# Generated by pormake.
# Topology eea, (3,6)-cn, num edge types: 1
# Building blocks:
#     Node 0, Type 0, BuildingBlock: ESEHIV_clean_linker_0, # of connection points: 3
#     Node 1, Type 0, BuildingBlock: ESEHIV_clean_linker_0, # of connection points: 3
#     Node 2, Type 0, BuildingBlock: ESEHIV_clean_linker_0, # of connection points: 3
#     Node 3, Type 0, BuildingBlock: ESEHIV_clean_linker_0, # of connection points: 3
#     Node 4, Type 0, BuildingBlock: ESEHIV_clean_linker_0, # of connection points: 3
#     Node 5, Type 0, BuildingBlock: ESEHIV_clean_linker_0, # of connection points: 3
#     Node 6, Type 0, BuildingBlock: ESEHIV_clean_linker_0, # of connection points: 3
#     Node 7, Type 0, BuildingBlock: ESEHIV_clean_linker_0, # of connection points: 3
#     Node 8, Type 0, BuildingBlock: ESEHIV_clean_linker_0, # of connection points: 3
#     Node 9, Type 0, BuildingBlock: ESEHIV_clean_linker_0, # of connection points: 3
#     Node 10, Type 0, BuildingBlock: ESEHIV_clean_linker_0, # of connection points: 3
#     Node 11, Type 0, BuildingBlock: ESEHIV_clean_linker_0, # of connection points: 3
#     Node 12, Type 0, BuildingBlock: ESEHIV_clean_linker_0, # of connection points: 3
#     Node 13, Type 0, BuildingBlock: ESEHIV_clean_linker_0, # of connection points: 3
#     Node 14, Type 0, BuildingBlock: ESEHIV_clean_linker_0, # of connection points: 3
#     Node 15, Type 0, BuildingBlock: ESEHIV_clean_linker_0, # of connection points: 3
#     Node 16, Type 0, BuildingBlock: ESEHIV_clean_linker_0, # of connection points: 3
#     Node 17, Type 0, BuildingBlock: ESEHIV_clean_linker_0, # of connection points: 3
#     Node 18, Type 1, BuildingBlock: CUKXOW_clean_sbu_0, # of connection points: 6
#     Node 19, Type 1, BuildingBlock: CUKXOW_clean_sbu_0, # of connection points: 6
#     Node 20, Type 1, BuildingBlock: CUKXOW_clean_sbu_0, # of connection points: 6
#     Node 21, Type 1, BuildingBlock: CUKXOW_clean_sbu_0, # of connection points: 6
#     Node 22, Type 1, BuildingBlock: CUKXOW_clean_sbu_0, # of connection points: 6
#     Node 23, Type 1, BuildingBlock: CUKXOW_clean_sbu_0, # of connection points: 6
#     Node 24, Type 1, BuildingBlock: CUKXOW_clean_sbu_0, # of connection points: 6
#     Node 25, Type 1, BuildingBlock: CUKXOW_clean_sbu_0, # of connection points: 6
#     Node 26, Type 1, BuildingBlock: CUKXOW_clean_sbu_0, # of connection points: 6
#     Edge 27, Type (0, 1), BuildingBlock: TEMPAE_clean_linker_10, # of connection points: 2
#     Edge 28, Type (0, 1), BuildingBlock: TEMPAE_clean_linker_10, # of connection points: 2
#     Edge 29, Type (0, 1), BuildingBlock: TEMPAE_clean_linker_10, # of connection points: 2
#     Edge 30, Type (0, 1), BuildingBlock: TEMPAE_clean_linker_10, # of connection points: 2
#     Edge 31, Type (0, 1), BuildingBlock: TEMPAE_clean_linker_10, # of connection points: 2
#     Edge 32, Type (0, 1), BuildingBlock: TEMPAE_clean_linker_10, # of connection points: 2
#     Edge 33, Type (0, 1), BuildingBlock: TEMPAE_clean_linker_10, # of connection points: 2
#     Edge 34, Type (0, 1), BuildingBlock: TEMPAE_clean_linker_10, # of connection points: 2
#     Edge 35, Type (0, 1), BuildingBlock: TEMPAE_clean_linker_10, # of connection points: 2
#     Edge 36, Type (0, 1), BuildingBlock: TEMPAE_clean_linker_10, # of connection points: 2
#     Edge 37, Type (0, 1), BuildingBlock: TEMPAE_clean_linker_10, # of connection points: 2
#     Edge 38, Type (0, 1), BuildingBlock: TEMPAE_clean_linker_10, # of connection points: 2
#     Edge 39, Type (0, 1), BuildingBlock: TEMPAE_clean_linker_10, # of connection points: 2
#     Edge 40, Type (0, 1), BuildingBlock: TEMPAE_clean_linker_10, # of connection points: 2
#     Edge 41, Type (0, 1), BuildingBlock: TEMPAE_clean_linker_10, # of connection points: 2
#     Edge 42, Type (0, 1), BuildingBlock: TEMPAE_clean_linker_10, # of connection points: 2
#     Edge 43, Type (0, 1), BuildingBlock: TEMPAE_clean_linker_10, # of connection points: 2
#     Edge 44, Type (0, 1), BuildingBlock: TEMPAE_clean_linker_10, # of connection points: 2
#     Edge 45, Type (0, 1), BuildingBlock: TEMPAE_clean_linker_10, # of connection points: 2
#     Edge 46, Type (0, 1), BuildingBlock: TEMPAE_clean_linker_10, # of connection points: 2
#     Edge 47, Type (0, 1), BuildingBlock: TEMPAE_clean_linker_10, # of connection points: 2
#     Edge 48, Type (0, 1), BuildingBlock: TEMPAE_clean_linker_10, # of connection points: 2
#     Edge 49, Type (0, 1), BuildingBlock: TEMPAE_clean_linker_10, # of connection points: 2
#     Edge 50, Type (0, 1), BuildingBlock: TEMPAE_clean_linker_10, # of connection points: 2
#     Edge 51, Type (0, 1), BuildingBlock: TEMPAE_clean_linker_10, # of connection points: 2
#     Edge 52, Type (0, 1), BuildingBlock: TEMPAE_clean_linker_10, # of connection points: 2
#     Edge 53, Type (0, 1), BuildingBlock: TEMPAE_clean_linker_10, # of connection points: 2
#     Edge 54, Type (0, 1), BuildingBlock: TEMPAE_clean_linker_10, # of connection points: 2
#     Edge 55, Type (0, 1), BuildingBlock: TEMPAE_clean_linker_10, # of connection points: 2
#     Edge 56, Type (0, 1), BuildingBlock: TEMPAE_clean_linker_10, # of connection points: 2
#     Edge 57, Type (0, 1), BuildingBlock: TEMPAE_clean_linker_10, # of connection points: 2
#     Edge 58, Type (0, 1), BuildingBlock: TEMPAE_clean_linker_10, # of connection points: 2
#     Edge 59, Type (0, 1), BuildingBlock: TEMPAE_clean_linker_10, # of connection points: 2
#     Edge 60, Type (0, 1), BuildingBlock: TEMPAE_clean_linker_10, # of connection points: 2
#     Edge 61, Type (0, 1), BuildingBlock: TEMPAE_clean_linker_10, # of connection points: 2
#     Edge 62, Type (0, 1), BuildingBlock: TEMPAE_clean_linker_10, # of connection points: 2
#     Edge 63, Type (0, 1), BuildingBlock: TEMPAE_clean_linker_10, # of connection points: 2
#     Edge 64, Type (0, 1), BuildingBlock: TEMPAE_clean_linker_10, # of connection points: 2
#     Edge 65, Type (0, 1), BuildingBlock: TEMPAE_clean_linker_10, # of connection points: 2
#     Edge 66, Type (0, 1), BuildingBlock: TEMPAE_clean_linker_10, # of connection points: 2
#     Edge 67, Type (0, 1), BuildingBlock: TEMPAE_clean_linker_10, # of connection points: 2
#     Edge 68, Type (0, 1), BuildingBlock: TEMPAE_clean_linker_10, # of connection points: 2
#     Edge 69, Type (0, 1), BuildingBlock: TEMPAE_clean_linker_10, # of connection points: 2
#     Edge 70, Type (0, 1), BuildingBlock: TEMPAE_clean_linker_10, # of connection points: 2
#     Edge 71, Type (0, 1), BuildingBlock: TEMPAE_clean_linker_10, # of connection points: 2
#     Edge 72, Type (0, 1), BuildingBlock: TEMPAE_clean_linker_10, # of connection points: 2
#     Edge 73, Type (0, 1), BuildingBlock: TEMPAE_clean_linker_10, # of connection points: 2
#     Edge 74, Type (0, 1), BuildingBlock: TEMPAE_clean_linker_10, # of connection points: 2
#     Edge 75, Type (0, 1), BuildingBlock: TEMPAE_clean_linker_10, # of connection points: 2
#     Edge 76, Type (0, 1), BuildingBlock: TEMPAE_clean_linker_10, # of connection points: 2
#     Edge 77, Type (0, 1), BuildingBlock: TEMPAE_clean_linker_10, # of connection points: 2
#     Edge 78, Type (0, 1), BuildingBlock: TEMPAE_clean_linker_10, # of connection points: 2
#     Edge 79, Type (0, 1), BuildingBlock: TEMPAE_clean_linker_10, # of connection points: 2
#     Edge 80, Type (0, 1), BuildingBlock: TEMPAE_clean_linker_10, # of connection points: 2
# Relax obj value: 0.018
# Max RMSD: 0.125
# Mean RMSD: 0.059
data_MOF--net-eea--node1-CUKXOW_clean_sbu_0--node2-ESEHIV_clean_linker_0--edge1-TEMPAE_clean_linker_10
_symmetry_space_group_name_H-M    P1
_symmetry_Int_Tables_number       1
_symmetry_cell_setting            triclinic
loop_
_symmetry_equiv_pos_as_xyz
'x, y, z'
_cell_length_a     53.120618
_cell_length_b     49.872564
_cell_length_c     57.03379
_cell_angle_alpha  93.365234
_cell_angle_beta   93.243555
_cell_angle_gamma 119.9359
loop_
_atom_site_label
_atom_site_type_symbol
_atom_site_fract_x
_atom_site_fract_y
_atom_site_fract_z
_atom_type_partial_charge
H0 H 0.25225 0.18282 0.46905 0.0
H1 H 0.25544 0.09862 0.46272 0.0
H2 H 0.21005 0.11755 0.40713 0.0
C3 C 0.24602 0.16091 0.45904 0.0
C4 C 0.23087 0.15323 0.43639 0.0
C5 C 0.2543 0.1409 0.46862 0.0
C6 C 0.24798 0.1133 0.4554 0.0
C7 C 0.23218 0.10467 0.43301 0.0
C8 C 0.22325 0.12456 0.42393 0.0
H9 H 0.83637 0.0978 0.46825 0.0
H10 H 0.91653 0.18517 0.47289 0.0
H11 H 0.88894 0.122 0.40969 0.0
C12 C 0.85553 0.11394 0.46016 0.0
C13 C 0.85984 0.10633 0.4372 0.0
C14 C 0.87569 0.1424 0.47287 0.0
C15 C 0.90092 0.1632 0.46296 0.0
C16 C 0.906 0.15573 0.44027 0.0
C17 C 0.88522 0.12749 0.42737 0.0
H18 H 0.84449 0.74782 0.48235 0.0
H19 H 0.92508 0.74725 0.48026 0.0
H20 H 0.89768 0.78556 0.4254 0.0
C21 C 0.86423 0.75383 0.47396 0.0
C22 C 0.86884 0.76795 0.45288 0.0
C23 C 0.88444 0.74637 0.48386 0.0
C24 C 0.90963 0.75343 0.47281 0.0
C25 C 0.91444 0.76768 0.45176 0.0
C26 C 0.89406 0.77488 0.44184 0.0
H27 H 0.07495 0.25212 0.52111 0.0
H28 H 0.15839 0.25776 0.52145 0.0
H29 H 0.10513 0.2183 0.57784 0.0
C30 C 0.09119 0.24767 0.52942 0.0
C31 C 0.08647 0.23365 0.55071 0.0
C32 C 0.11716 0.25652 0.51898 0.0
C33 C 0.13823 0.25068 0.52946 0.0
C34 C 0.13385 0.2367 0.55058 0.0
C35 C 0.1081 0.22847 0.5612 0.0
H36 H 0.7354 0.89782 0.54214 0.0
H37 H 0.7382 0.81337 0.53823 0.0
H38 H 0.77815 0.8794 0.60005 0.0
C39 C 0.74229 0.88307 0.55019 0.0
C40 C 0.75728 0.892 0.57291 0.0
C41 C 0.73624 0.85525 0.53752 0.0
C42 C 0.74403 0.83533 0.54794 0.0
C43 C 0.7584 0.84331 0.57094 0.0
C44 C 0.76556 0.87211 0.58296 0.0
H45 H 0.08416 0.82982 0.52788 0.0
H46 H 0.16836 0.91271 0.53775 0.0
H47 H 0.11283 0.88671 0.59436 0.0
C48 C 0.10043 0.85036 0.53898 0.0
C49 C 0.09526 0.85609 0.56211 0.0
C50 C 0.12716 0.87037 0.53053 0.0
C51 C 0.14828 0.89683 0.54489 0.0
C52 C 0.14335 0.90329 0.56794 0.0
C53 C 0.11683 0.88245 0.57648 0.0
H54 H 0.93371 0.51865 0.7943 0.0
H55 H 0.93097 0.43136 0.79354 0.0
H56 H 0.89235 0.45115 0.73348 0.0
C57 C 0.92713 0.49614 0.78513 0.0
C58 C 0.91259 0.48769 0.76222 0.0
C59 C 0.93298 0.47546 0.79651 0.0
C60 C 0.92539 0.44663 0.78472 0.0
C61 C 0.91126 0.43779 0.76168 0.0
C62 C 0.90454 0.45834 0.75075 0.0
H63 H 0.50476 0.43048 0.80357 0.0
H64 H 0.59222 0.50839 0.81245 0.0
H65 H 0.56292 0.44334 0.75021 0.0
C66 C 0.52599 0.44335 0.79705 0.0
C67 C 0.53119 0.43312 0.77534 0.0
C68 C 0.54801 0.47023 0.81051 0.0
C69 C 0.57534 0.48751 0.80205 0.0
C70 C 0.58072 0.4782 0.78005 0.0
C71 C 0.55869 0.45077 0.76703 0.0
H72 H 0.50886 0.07375 0.81084 0.0
H73 H 0.59351 0.08196 0.8162 0.0
H74 H 0.56765 0.11856 0.75879 0.0
C75 C 0.52981 0.08152 0.80401 0.0
C76 C 0.53621 0.09743 0.78378 0.0
C77 C 0.55053 0.07621 0.81583 0.0
C78 C 0.57765 0.08632 0.80704 0.0
C79 C 0.58404 0.10141 0.78625 0.0
C80 C 0.56329 0.10733 0.77498 0.0
H81 H 0.7496 0.59715 0.85706 0.0
H82 H 0.82628 0.5889 0.85638 0.0
H83 H 0.77231 0.55756 0.91378 0.0
C84 C 0.76387 0.58983 0.86513 0.0
C85 C 0.75771 0.57611 0.88641 0.0
C86 C 0.7887 0.59462 0.85444 0.0
C87 C 0.80725 0.58531 0.8649 0.0
C88 C 0.80169 0.57201 0.88642 0.0
C89 C 0.7768 0.56752 0.89706 0.0
H90 H 0.41559 0.24611 0.87495 0.0
H91 H 0.41053 0.15758 0.87152 0.0
H92 H 0.44805 0.22034 0.93527 0.0
C93 C 0.41937 0.22947 0.88359 0.0
C94 C 0.43238 0.23665 0.90694 0.0
C95 C 0.41176 0.20118 0.87089 0.0
C96 C 0.41715 0.17966 0.88144 0.0
C97 C 0.43027 0.18625 0.90479 0.0
C98 C 0.43784 0.2149 0.91734 0.0
H99 H 0.74968 0.14686 0.86436 0.0
H100 H 0.83189 0.23205 0.86984 0.0
H101 H 0.77863 0.2093 0.92801 0.0
C102 C 0.76581 0.16842 0.87448 0.0
C103 C 0.76083 0.17617 0.89714 0.0
C104 C 0.79166 0.18843 0.86489 0.0
C105 C 0.8124 0.21647 0.87782 0.0
C106 C 0.80823 0.22431 0.90079 0.0
C107 C 0.78231 0.2038 0.91033 0.0
H108 H 0.59617 0.857 0.13446 0.0
H109 H 0.59648 0.7712 0.13201 0.0
H110 H 0.55134 0.78796 0.07486 0.0
C111 C 0.58942 0.83448 0.12524 0.0
C112 C 0.57322 0.82534 0.10294 0.0
C113 C 0.59717 0.81462 0.13577 0.0
C114 C 0.58957 0.78588 0.12386 0.0
C115 C 0.57343 0.7762 0.1016 0.0
C116 C 0.56495 0.79589 0.09151 0.0
H117 H 0.15451 0.76528 0.12572 0.0
H118 H 0.23898 0.84807 0.13231 0.0
H119 H 0.21469 0.77872 0.07387 0.0
C120 C 0.17541 0.77918 0.11896 0.0
C121 C 0.18188 0.76811 0.09822 0.0
C122 C 0.19598 0.8077 0.13152 0.0
C123 C 0.2231 0.82586 0.12284 0.0
C124 C 0.22956 0.81583 0.10169 0.0
C125 C 0.20901 0.78689 0.08962 0.0
H126 H 0.17534 0.40209 0.14142 0.0
H127 H 0.26021 0.41098 0.14769 0.0
H128 H 0.23339 0.44304 0.08793 0.0
C129 C 0.19622 0.40962 0.13453 0.0
C130 C 0.20203 0.42359 0.11334 0.0
C131 C 0.21715 0.40505 0.14686 0.0
C132 C 0.24409 0.41448 0.13801 0.0
C133 C 0.25007 0.42806 0.11661 0.0
C134 C 0.22894 0.4326 0.10445 0.0
H135 H 0.40739 0.92046 0.19031 0.0
H136 H 0.49241 0.93037 0.19236 0.0
H137 H 0.44144 0.8956 0.25062 0.0
C138 C 0.42441 0.91812 0.19964 0.0
C139 C 0.42068 0.90658 0.22195 0.0
C140 C 0.45051 0.92739 0.18936 0.0
C141 C 0.47254 0.92377 0.2007 0.0
C142 C 0.46886 0.91125 0.22243 0.0
C143 C 0.44325 0.90341 0.23316 0.0
H144 H 0.07669 0.57581 0.20695 0.0
H145 H 0.08182 0.4926 0.20274 0.0
H146 H 0.11562 0.55562 0.26638 0.0
C147 C 0.08358 0.56107 0.21501 0.0
C148 C 0.09755 0.56953 0.23808 0.0
C149 C 0.07767 0.53327 0.20235 0.0
C150 C 0.08572 0.51358 0.21291 0.0
C151 C 0.09946 0.52133 0.23612 0.0
C152 C 0.10514 0.54936 0.24852 0.0
H153 H 0.42148 0.49046 0.19743 0.0
H154 H 0.50147 0.57802 0.20324 0.0
H155 H 0.44795 0.5523 0.26126 0.0
C156 C 0.43686 0.51231 0.20761 0.0
C157 C 0.43137 0.51929 0.23031 0.0
C158 C 0.4624 0.53337 0.19814 0.0
C159 C 0.48225 0.5617 0.21116 0.0
C160 C 0.47753 0.56892 0.23411 0.0
C161 C 0.45198 0.54734 0.24357 0.0
Tb162 Tb 0.52845 0.02181 0.99652 0.0
C163 C 0.51325 0.96176 0.0209 0.0
Tb164 Tb 0.46385 0.97844 0.00636 0.0
O165 O 0.5427 0.03326 0.03434 0.0
O166 O 0.50036 0.02049 0.02161 0.0
O167 O 0.53225 0.98338 0.00851 0.0
C168 C 0.41559 0.94519 0.02747 0.0
O169 O 0.48696 0.95779 0.02378 0.0
C170 C 0.47583 0.97449 0.96272 0.0
C171 C 0.47954 0.03956 0.98323 0.0
O172 O 0.42576 0.93393 0.01197 0.0
O173 O 0.43225 0.9752 0.03069 0.0
O174 O 0.45004 0.96771 0.96838 0.0
O175 O 0.49199 0.97972 0.9814 0.0
O176 O 0.4603 0.01743 0.99517 0.0
O177 O 0.50572 0.04342 0.98007 0.0
C178 C 0.57637 0.05302 0.97463 0.0
O179 O 0.56763 0.06524 0.99067 0.0
O180 O 0.55839 0.02328 0.97122 0.0
C181 C 0.51687 0.02606 0.04017 0.0
Tb182 Tb 0.97769 0.50538 0.99369 0.0
C183 C 0.03883 0.55349 0.01858 0.0
Tb184 Tb 0.02204 0.48377 0.00554 0.0
O185 O 0.96954 0.50942 0.03066 0.0
O186 O 0.98449 0.4801 0.01937 0.0
O187 O 0.01788 0.54963 0.00248 0.0
C188 C 0.05982 0.46918 0.0255 0.0
O189 O 0.04156 0.52984 0.02511 0.0
C190 C 0.01859 0.49666 0.96197 0.0
C191 C 0.95916 0.43431 0.98226 0.0
O192 O 0.06667 0.49545 0.01733 0.0
O193 O 0.03175 0.45106 0.0223 0.0
O194 O 0.02718 0.47766 0.96813 0.0
O195 O 0.01579 0.50989 0.98025 0.0
O196 O 0.98288 0.43876 0.99505 0.0
O197 O 0.95374 0.45703 0.97851 0.0
C198 C 0.9414 0.5197 0.97071 0.0
O199 O 0.95118 0.50258 0.9618 0.0
O200 O 0.95208 0.52883 0.99259 0.0
C201 C 0.98019 0.49241 0.03746 0.0
Tb202 Tb 0.47499 0.49506 0.00956 0.0
C203 C 0.49099 0.44828 0.98721 0.0
Tb204 Tb 0.53836 0.51998 0.99748 0.0
O205 O 0.45904 0.48603 0.97201 0.0
O206 O 0.50119 0.52091 0.98369 0.0
O207 O 0.47519 0.45173 0.00308 0.0
C208 C 0.58472 0.53413 0.97406 0.0
O209 O 0.51414 0.47244 0.9801 0.0
C210 C 0.52941 0.50918 0.04148 0.0
C211 C 0.52226 0.56788 0.01966 0.0
O212 O 0.57543 0.51436 0.98976 0.0
O213 O 0.56834 0.54648 0.97198 0.0
O214 O 0.55446 0.52959 0.03497 0.0
O215 O 0.51217 0.49402 0.0234 0.0
O216 O 0.54218 0.56427 0.00906 0.0
O217 O 0.49561 0.54451 0.02192 0.0
C218 C 0.42829 0.48028 0.03282 0.0
O219 O 0.4552 0.49639 0.04185 0.0
O220 O 0.42756 0.47243 0.01059 0.0
C221 C 0.48412 0.50621 0.96551 0.0
Tb222 Tb 0.20094 0.35986 0.33087 0.0
C223 C 0.18346 0.29961 0.35562 0.0
Tb224 Tb 0.13635 0.31946 0.34141 0.0
O225 O 0.21574 0.3716 0.36865 0.0
O226 O 0.17397 0.36073 0.35629 0.0
O227 O 0.20284 0.32028 0.34284 0.0
C228 C 0.08779 0.28726 0.36228 0.0
O229 O 0.158 0.29752 0.35894 0.0
C230 C 0.14695 0.31351 0.29765 0.0
C231 C 0.15383 0.37989 0.31723 0.0
O232 O 0.09766 0.27557 0.34688 0.0
O233 O 0.10495 0.31719 0.36559 0.0
O234 O 0.12176 0.3084 0.30362 0.0
O235 O 0.16334 0.31843 0.31613 0.0
O236 O 0.13519 0.35998 0.33085 0.0
O237 O 0.17872 0.38111 0.31296 0.0
C238 C 0.24919 0.39099 0.30925 0.0
O239 O 0.23972 0.40332 0.32455 0.0
O240 O 0.2318 0.36108 0.3065 0.0
C241 C 0.1904 0.36577 0.37478 0.0
Tb242 Tb 0.64915 0.85125 0.32884 0.0
C243 C 0.71018 0.89675 0.35412 0.0
Tb244 Tb 0.68835 0.8249 0.34373 0.0
O245 O 0.64449 0.86025 0.36602 0.0
O246 O 0.65101 0.82403 0.35515 0.0
O247 O 0.69078 0.89406 0.33704 0.0
C248 C 0.72389 0.81109 0.36811 0.0
O249 O 0.71011 0.87209 0.36179 0.0
C250 C 0.68782 0.8362 0.29956 0.0
C251 C 0.62623 0.77834 0.31844 0.0
O252 O 0.73128 0.8301 0.3519 0.0
O253 O 0.69624 0.79921 0.37029 0.0
O254 O 0.69276 0.81489 0.30686 0.0
O255 O 0.68637 0.85176 0.31711 0.0
O256 O 0.64881 0.78105 0.33192 0.0
O257 O 0.62291 0.80242 0.31419 0.0
C258 C 0.61556 0.86872 0.30552 0.0
O259 O 0.62849 0.85528 0.29594 0.0
O260 O 0.62146 0.87225 0.32823 0.0
C261 C 0.64925 0.83874 0.37297 0.0
Tb262 Tb 0.1323 0.82659 0.33766 0.0
C263 C 0.14931 0.77796 0.31941 0.0
Tb264 Tb 0.19576 0.85128 0.3263 0.0
O265 O 0.1168 0.81231 0.30033 0.0
O266 O 0.15836 0.85073 0.31084 0.0
O267 O 0.12944 0.78211 0.3295 0.0
C268 C 0.24314 0.86384 0.30461 0.0
O269 O 0.17569 0.80118 0.31624 0.0
C270 C 0.18662 0.84387 0.37066 0.0
C271 C 0.17865 0.89926 0.34477 0.0
O272 O 0.21655 0.84934 0.29462 0.0
O273 O 0.2431 0.87173 0.32667 0.0
O274 O 0.21147 0.864 0.36383 0.0
O275 O 0.16973 0.82731 0.35284 0.0
O276 O 0.19618 0.89507 0.33119 0.0
O277 O 0.15425 0.8758 0.35108 0.0
C278 C 0.08515 0.81146 0.36032 0.0
O279 O 0.08997 0.82361 0.34036 0.0
O280 O 0.10674 0.80774 0.36735 0.0
C281 C 0.14127 0.8332 0.29333 0.0
Tb282 Tb 0.86707 0.6888 0.66204 0.0
C283 C 0.85424 0.6273 0.68375 0.0
Tb284 Tb 0.80367 0.6436 0.6728 0.0
O285 O 0.88218 0.70139 0.69952 0.0
O286 O 0.839 0.68708 0.68751 0.0
O287 O 0.87357 0.65188 0.67385 0.0
C288 C 0.75742 0.60827 0.6956 0.0
O289 O 0.82672 0.62018 0.68519 0.0
C290 C 0.81504 0.63852 0.62907 0.0
C291 C 0.81674 0.70449 0.6511 0.0
O292 O 0.78436 0.62299 0.70461 0.0
O293 O 0.75637 0.61345 0.67362 0.0
O294 O 0.78906 0.63011 0.63504 0.0
O295 O 0.83176 0.64546 0.64765 0.0
O296 O 0.8001 0.68399 0.66541 0.0
O297 O 0.84187 0.70751 0.64539 0.0
C298 C 0.91381 0.72258 0.63957 0.0
O299 O 0.9044 0.73357 0.65592 0.0
O300 O 0.89718 0.69261 0.63616 0.0
C301 C 0.8564 0.69366 0.70574 0.0
Tb302 Tb 0.31674 0.18359 0.66115 0.0
C303 C 0.37969 0.23027 0.68469 0.0
Tb304 Tb 0.35666 0.15722 0.67526 0.0
O305 O 0.31504 0.19625 0.6981 0.0
O306 O 0.32109 0.15897 0.68846 0.0
O307 O 0.35664 0.2274 0.67184 0.0
C308 C 0.39142 0.14068 0.69783 0.0
O309 O 0.3831 0.20628 0.68904 0.0
C310 C 0.35197 0.16543 0.63058 0.0
C311 C 0.29422 0.11096 0.65214 0.0
O312 O 0.36999 0.14205 0.70649 0.0
O313 O 0.39324 0.14856 0.67645 0.0
O314 O 0.35666 0.14399 0.63795 0.0
O315 O 0.35241 0.18215 0.64815 0.0
O316 O 0.31552 0.11387 0.66734 0.0
O317 O 0.29291 0.13528 0.64525 0.0
C318 C 0.28076 0.19723 0.63714 0.0
O319 O 0.27382 0.17883 0.65379 0.0
O320 O 0.30822 0.20859 0.63433 0.0
C321 C 0.321 0.1758 0.70578 0.0
Tb322 Tb 0.80357 0.15435 0.67508 0.0
C323 C 0.81596 0.10243 0.65509 0.0
Tb324 Tb 0.86674 0.17382 0.66431 0.0
O325 O 0.78895 0.14899 0.63752 0.0
O326 O 0.83231 0.17962 0.65024 0.0
O327 O 0.79827 0.10833 0.66721 0.0
C328 C 0.91253 0.18416 0.64088 0.0
O329 O 0.84255 0.12445 0.65109 0.0
C330 C 0.855 0.16109 0.70767 0.0
C331 C 0.85415 0.22578 0.68393 0.0
O332 O 0.8855 0.16968 0.63204 0.0
O333 O 0.91388 0.19281 0.66306 0.0
O334 O 0.88119 0.17919 0.70197 0.0
O335 O 0.83798 0.14857 0.6891 0.0
O336 O 0.8719 0.21984 0.67195 0.0
O337 O 0.82763 0.20377 0.68804 0.0
C338 C 0.75804 0.1447 0.69855 0.0
O339 O 0.78505 0.15878 0.70738 0.0
O340 O 0.75654 0.13593 0.67637 0.0
C341 C 0.81511 0.16704 0.63177 0.0
C342 C 0.25791 0.84278 0.06866 0.0
C343 C 0.25771 0.83557 0.09204 0.0
C344 C 0.28425 0.86138 0.05908 0.0
C345 C 0.31107 0.87251 0.07309 0.0
C346 C 0.31102 0.8652 0.09673 0.0
C347 C 0.28427 0.84705 0.10601 0.0
C348 C 0.28336 0.86914 0.03396 0.0
C349 C 0.33919 0.87613 0.11204 0.0
C350 C 0.37654 0.89436 0.03848 0.0
C351 C 0.38961 0.92678 0.0399 0.0
C352 C 0.35155 0.87649 0.04994 0.0
C353 C 0.33909 0.8914 0.06274 0.0
C354 C 0.35259 0.92424 0.06456 0.0
C355 C 0.37788 0.94157 0.05326 0.0
C356 C 0.33821 0.8416 0.04805 0.0
C357 C 0.33984 0.941 0.07783 0.0
H358 H 0.23735 0.83414 0.05795 0.0
H359 H 0.28408 0.84127 0.12406 0.0
H360 H 0.29536 0.89474 0.03345 0.0
H361 H 0.29439 0.85967 0.02313 0.0
H362 H 0.26069 0.85958 0.02573 0.0
H363 H 0.33539 0.8687 0.13011 0.0
H364 H 0.35206 0.86679 0.10385 0.0
H365 H 0.3527 0.90186 0.11343 0.0
H366 H 0.38586 0.88295 0.02839 0.0
H367 H 0.38813 0.96669 0.05448 0.0
H368 H 0.31619 0.83027 0.03822 0.0
H369 H 0.33547 0.83338 0.0659 0.0
H370 H 0.3517 0.83383 0.03887 0.0
H371 H 0.3178 0.9338 0.0693 0.0
H372 H 0.35363 0.96668 0.07838 0.0
H373 H 0.33722 0.9346 0.0962 0.0
C374 C 0.17388 0.42159 0.07591 0.0
C375 C 0.18009 0.42888 0.10044 0.0
C376 C 0.15391 0.4274 0.06336 0.0
C377 C 0.13989 0.44091 0.07565 0.0
C378 C 0.14581 0.448 0.10045 0.0
C379 C 0.16582 0.44183 0.11257 0.0
C380 C 0.14795 0.41928 0.03695 0.0
C381 C 0.13134 0.46252 0.11413 0.0
C382 C 0.11019 0.48381 0.04132 0.0
C383 C 0.08037 0.46172 0.03774 0.0
C384 C 0.12985 0.47731 0.0536 0.0
C385 C 0.11933 0.44803 0.06249 0.0
C386 C 0.0892 0.42561 0.05883 0.0
C387 C 0.07006 0.43273 0.04646 0.0
C388 C 0.16183 0.5018 0.05717 0.0
C389 C 0.07719 0.39417 0.06809 0.0
H390 H 0.18458 0.41118 0.06653 0.0
H391 H 0.17078 0.44777 0.1315 0.0
H392 H 0.12429 0.40302 0.03207 0.0
H393 H 0.15399 0.44056 0.02801 0.0
H394 H 0.16027 0.40839 0.03012 0.0
H395 H 0.13779 0.46593 0.13342 0.0
H396 H 0.13724 0.48542 0.10792 0.0
H397 H 0.10725 0.44768 0.11098 0.0
H398 H 0.11814 0.50628 0.03463 0.0
H399 H 0.04695 0.41569 0.04377 0.0
H400 H 0.17499 0.49258 0.04938 0.0
H401 H 0.16918 0.50791 0.07631 0.0
H402 H 0.16647 0.52333 0.04906 0.0
H403 H 0.08808 0.38195 0.06076 0.0
H404 H 0.05325 0.37924 0.06354 0.0
H405 H 0.08185 0.39711 0.08757 0.0
C406 C 0.56606 0.74263 0.06431 0.0
C407 C 0.56557 0.74566 0.08889 0.0
C408 C 0.55892 0.71409 0.05211 0.0
C409 C 0.55167 0.68807 0.06483 0.0
C410 C 0.55129 0.69093 0.08962 0.0
C411 C 0.55794 0.71958 0.10131 0.0
C412 C 0.55914 0.71179 0.02561 0.0
C413 C 0.54391 0.66373 0.10381 0.0
C414 C 0.50804 0.60635 0.0337 0.0
C415 C 0.53001 0.59927 0.02986 0.0
C416 C 0.51486 0.63545 0.04456 0.0
C417 C 0.5443 0.65775 0.0522 0.0
C418 C 0.56661 0.6508 0.04825 0.0
C419 C 0.55921 0.62171 0.0369 0.0
C420 C 0.49053 0.64222 0.04808 0.0
C421 C 0.59819 0.67378 0.05657 0.0
H422 H 0.57239 0.7627 0.05457 0.0
H423 H 0.55696 0.72144 0.12022 0.0
H424 H 0.57542 0.70528 0.02064 0.0
H425 H 0.53749 0.69323 0.01723 0.0
H426 H 0.56444 0.73396 0.01827 0.0
H427 H 0.54551 0.67007 0.12306 0.0
H428 H 0.52141 0.64451 0.09806 0.0
H429 H 0.55887 0.65468 0.10068 0.0
H430 H 0.48543 0.58911 0.02818 0.0
H431 H 0.57623 0.6162 0.03422 0.0
H432 H 0.49511 0.66385 0.04022 0.0
H433 H 0.48918 0.64607 0.06721 0.0
H434 H 0.46898 0.62297 0.04005 0.0
H435 H 0.60523 0.69603 0.04879 0.0
H436 H 0.61294 0.66498 0.05181 0.0
H437 H 0.60074 0.67895 0.07603 0.0
C438 C 0.82267 0.27113 0.92954 0.0
C439 C 0.83081 0.25398 0.91457 0.0
C440 C 0.8437 0.29956 0.94195 0.0
C441 C 0.87357 0.31164 0.93885 0.0
C442 C 0.88203 0.29441 0.92399 0.0
C443 C 0.86063 0.26562 0.91235 0.0
C444 C 0.83387 0.31702 0.95799 0.0
C445 C 0.91363 0.30677 0.91988 0.0
C446 C 0.92247 0.39924 0.94942 0.0
C447 C 0.93769 0.40281 0.97134 0.0
C448 C 0.90186 0.36966 0.93853 0.0
C449 C 0.89582 0.34305 0.95013 0.0
C450 C 0.91102 0.34654 0.97237 0.0
C451 C 0.93216 0.37644 0.98258 0.0
C452 C 0.88677 0.36692 0.91451 0.0
C453 C 0.90463 0.31876 0.98552 0.0
H454 H 0.79977 0.26277 0.9312 0.0
H455 H 0.86735 0.25232 0.90136 0.0
H456 H 0.84634 0.32346 0.97566 0.0
H457 H 0.83832 0.33892 0.95067 0.0
H458 H 0.8102 0.30319 0.96015 0.0
H459 H 0.91663 0.29035 0.90798 0.0
H460 H 0.92223 0.32915 0.91196 0.0
H461 H 0.92699 0.3115 0.93691 0.0
H462 H 0.92705 0.41963 0.94056 0.0
H463 H 0.94385 0.37926 0.99959 0.0
H464 H 0.8628 0.35501 0.91525 0.0
H465 H 0.89116 0.35256 0.90164 0.0
H466 H 0.89406 0.38992 0.90787 0.0
H467 H 0.88121 0.30599 0.9886 0.0
H468 H 0.91802 0.32547 0.0028 0.0
H469 H 0.90888 0.30243 0.97477 0.0
C470 C 0.73464 0.58311 0.92132 0.0
C471 C 0.73164 0.57122 0.89784 0.0
C472 C 0.71012 0.57787 0.93273 0.0
C473 C 0.68191 0.55975 0.92047 0.0
C474 C 0.67878 0.54796 0.89662 0.0
C475 C 0.70379 0.55409 0.8855 0.0
C476 C 0.71438 0.59139 0.95801 0.0
C477 C 0.64904 0.52796 0.88313 0.0
C478 C 0.62088 0.52079 0.95984 0.0
C479 C 0.60902 0.54031 0.9599 0.0
C480 C 0.64397 0.52624 0.94638 0.0
C481 C 0.65576 0.55219 0.93306 0.0
C482 C 0.6435 0.57171 0.93279 0.0
C483 C 0.62005 0.56536 0.9461 0.0
C484 C 0.65598 0.50445 0.94664 0.0
C485 C 0.65559 0.59968 0.91891 0.0
H486 H 0.75625 0.59661 0.93073 0.0
H487 H 0.70155 0.54475 0.86736 0.0
H488 H 0.7034 0.60529 0.95968 0.0
H489 H 0.70422 0.57236 0.96958 0.0
H490 H 0.73781 0.60647 0.96453 0.0
H491 H 0.65045 0.52346 0.86408 0.0
H492 H 0.63751 0.50532 0.89065 0.0
H493 H 0.6355 0.53904 0.88487 0.0
H494 H 0.61202 0.50112 0.97026 0.0
H495 H 0.61065 0.5803 0.94601 0.0
H496 H 0.67892 0.51714 0.95473 0.0
H497 H 0.65604 0.49567 0.92833 0.0
H498 H 0.64315 0.48426 0.9567 0.0
H499 H 0.67861 0.61631 0.92576 0.0
H500 H 0.64293 0.61188 0.91991 0.0
H501 H 0.65552 0.59256 0.9001 0.0
C502 C 0.4446 0.14508 0.90281 0.0
C503 C 0.43609 0.16335 0.91608 0.0
C504 C 0.45048 0.12375 0.9133 0.0
C505 C 0.44856 0.12116 0.93779 0.0
C506 C 0.44002 0.13944 0.95131 0.0
C507 C 0.43346 0.15991 0.94024 0.0
C508 C 0.45887 0.1041 0.8982 0.0
C509 C 0.43825 0.13774 0.97757 0.0
C510 C 0.44223 0.04999 0.9641 0.0
C511 C 0.47136 0.06049 0.97215 0.0
C512 C 0.43452 0.06929 0.95247 0.0
C513 C 0.45638 0.10004 0.94946 0.0
C514 C 0.48579 0.11083 0.95783 0.0
C515 C 0.49297 0.09075 0.96877 0.0
C516 C 0.40308 0.05668 0.94315 0.0
C517 C 0.50964 0.14366 0.9554 0.0
H518 H 0.44714 0.14774 0.88423 0.0
H519 H 0.42622 0.17322 0.95062 0.0
H520 H 0.48098 0.1089 0.9046 0.0
H521 H 0.44349 0.07909 0.89958 0.0
H522 H 0.45874 0.10841 0.87932 0.0
H523 H 0.43162 0.15382 0.98561 0.0
H524 H 0.42234 0.11372 0.98117 0.0
H525 H 0.45979 0.14364 0.98642 0.0
H526 H 0.42557 0.0264 0.96635 0.0
H527 H 0.51553 0.09892 0.97501 0.0
H528 H 0.40155 0.05841 0.92387 0.0
H529 H 0.39456 0.07076 0.95155 0.0
H530 H 0.38886 0.03202 0.94644 0.0
H531 H 0.51127 0.14767 0.93648 0.0
H532 H 0.53128 0.14865 0.96343 0.0
H533 H 0.50428 0.16049 0.96399 0.0
C534 C 0.73327 0.14666 0.92973 0.0
C535 C 0.73301 0.15577 0.907 0.0
C536 C 0.70716 0.12872 0.93981 0.0
C537 C 0.68017 0.12011 0.92696 0.0
C538 C 0.67975 0.12887 0.90383 0.0
C539 C 0.70623 0.14646 0.89405 0.0
C540 C 0.70848 0.11933 0.96434 0.0
C541 C 0.65143 0.12056 0.88973 0.0
C542 C 0.61174 0.05393 0.9474 0.0
C543 C 0.60235 0.07016 0.96193 0.0
C544 C 0.63678 0.06988 0.93554 0.0
C545 C 0.65255 0.10281 0.93814 0.0
C546 C 0.64261 0.11926 0.9523 0.0
C547 C 0.6177 0.1027 0.96417 0.0
C548 C 0.64671 0.05152 0.92065 0.0
C549 C 0.65851 0.15437 0.95513 0.0
H550 H 0.75399 0.15363 0.93964 0.0
H551 H 0.70605 0.15377 0.87654 0.0
H552 H 0.69956 0.12998 0.97648 0.0
H553 H 0.69477 0.09372 0.96422 0.0
H554 H 0.7311 0.12658 0.97148 0.0
H555 H 0.65465 0.12682 0.87133 0.0
H556 H 0.6356 0.0953 0.88923 0.0
H557 H 0.64146 0.13301 0.89838 0.0
H558 H 0.59973 0.02872 0.94556 0.0
H559 H 0.61021 0.11523 0.97521 0.0
H560 H 0.66857 0.05659 0.92809 0.0
H561 H 0.64885 0.05855 0.90245 0.0
H562 H 0.63138 0.02605 0.91975 0.0
H563 H 0.68084 0.16359 0.96391 0.0
H564 H 0.64707 0.16359 0.96573 0.0
H565 H 0.66082 0.16333 0.93756 0.0
C566 C 0.85253 0.58355 0.8985 0.0
C567 C 0.82226 0.56366 0.89804 0.0
C568 C 0.87225 0.57628 0.90971 0.0
C569 C 0.86147 0.54857 0.92092 0.0
C570 C 0.83097 0.52828 0.92043 0.0
C571 C 0.81174 0.53603 0.90894 0.0
C572 C 0.90463 0.59845 0.90981 0.0
C573 C 0.81867 0.49852 0.93221 0.0
C574 C 0.91163 0.51638 0.93417 0.0
C575 C 0.92113 0.5272 0.95802 0.0
C576 C 0.89238 0.52334 0.92177 0.0
C577 C 0.88211 0.54119 0.93368 0.0
C578 C 0.89157 0.55203 0.95784 0.0
C579 C 0.9111 0.54499 0.96971 0.0
C580 C 0.88307 0.51164 0.89597 0.0
C581 C 0.88099 0.57098 0.97117 0.0
H582 H 0.86087 0.60518 0.89045 0.0
H583 H 0.7884 0.52032 0.90838 0.0
H584 H 0.91461 0.60761 0.92822 0.0
H585 H 0.9153 0.58604 0.90236 0.0
H586 H 0.90946 0.61841 0.89949 0.0
H587 H 0.79442 0.48513 0.93003 0.0
H588 H 0.82688 0.48362 0.92475 0.0
H589 H 0.82612 0.50389 0.95135 0.0
H590 H 0.91929 0.50248 0.92519 0.0
H591 H 0.91841 0.5533 0.9882 0.0
H592 H 0.88882 0.53147 0.88532 0.0
H593 H 0.85902 0.49623 0.89318 0.0
H594 H 0.89349 0.49854 0.88925 0.0
H595 H 0.88697 0.59255 0.96267 0.0
H596 H 0.89032 0.57749 0.98993 0.0
H597 H 0.85683 0.55762 0.97059 0.0
C598 C 0.46619 0.28311 0.93565 0.0
C599 C 0.44043 0.26695 0.92025 0.0
C600 C 0.4743 0.31201 0.94777 0.0
C601 C 0.45662 0.32548 0.94401 0.0
C602 C 0.43058 0.30934 0.92862 0.0
C603 C 0.42261 0.28012 0.9172 0.0
C604 C 0.50211 0.32844 0.96424 0.0
C605 C 0.41139 0.32318 0.92387 0.0
C606 C 0.46421 0.39037 0.9876 0.0
C607 C 0.48248 0.41681 0.97658 0.0
C608 C 0.45602 0.36047 0.97741 0.0
C609 C 0.46589 0.35698 0.9555 0.0
C610 C 0.48429 0.38363 0.9443 0.0
C611 C 0.4925 0.4132 0.95505 0.0
C612 C 0.43686 0.33261 0.99009 0.0
C613 C 0.49482 0.38094 0.92069 0.0
H614 H 0.48042 0.27352 0.93789 0.0
H615 H 0.40235 0.26763 0.90579 0.0
H616 H 0.518 0.35033 0.95729 0.0
H617 H 0.49761 0.33483 0.98184 0.0
H618 H 0.51236 0.31392 0.96647 0.0
H619 H 0.39181 0.3076 0.91142 0.0
H620 H 0.40409 0.32805 0.94061 0.0
H621 H 0.42402 0.34567 0.91633 0.0
H622 H 0.45655 0.39306 0.00431 0.0
H623 H 0.5064 0.43353 0.9463 0.0
H624 H 0.44774 0.31887 0.99312 0.0
H625 H 0.41601 0.31718 0.97902 0.0
H626 H 0.43185 0.33934 0.00737 0.0
H627 H 0.50439 0.36563 0.92094 0.0
H628 H 0.51143 0.40391 0.91559 0.0
H629 H 0.47602 0.37024 0.90688 0.0
C630 C 0.15772 0.73104 0.06135 0.0
C631 C 0.16069 0.73663 0.08606 0.0
C632 C 0.13836 0.70134 0.04983 0.0
C633 C 0.12091 0.67676 0.06325 0.0
C634 C 0.12346 0.68223 0.08812 0.0
C635 C 0.14359 0.71191 0.09923 0.0
C636 C 0.13671 0.6962 0.0233 0.0
C637 C 0.10488 0.65673 0.10304 0.0
C638 C 0.05172 0.60776 0.03202 0.0
C639 C 0.05993 0.58513 0.02955 0.0
C640 C 0.07129 0.63764 0.04313 0.0
C641 C 0.09999 0.64526 0.05131 0.0
C642 C 0.10854 0.62263 0.04845 0.0
C643 C 0.08824 0.59267 0.03791 0.0
C644 C 0.0611 0.66084 0.0465 0.0
C645 C 0.13914 0.63008 0.05642 0.0
H646 H 0.17039 0.74993 0.05091 0.0
H647 H 0.1461 0.71556 0.11832 0.0
H648 H 0.14107 0.67716 0.01831 0.0
H649 H 0.11442 0.68894 0.01536 0.0
H650 H 0.15258 0.71742 0.01552 0.0
H651 H 0.10855 0.66516 0.12207 0.0
H652 H 0.08142 0.64679 0.09702 0.0
H653 H 0.10974 0.63757 0.10098 0.0
H654 H 0.02973 0.60186 0.0258 0.0
H655 H 0.09469 0.57524 0.03589 0.0
H656 H 0.07496 0.68187 0.03766 0.0
H657 H 0.06334 0.66838 0.06557 0.0
H658 H 0.03799 0.65112 0.03935 0.0
H659 H 0.15525 0.65067 0.0482 0.0
H660 H 0.1427 0.61035 0.05182 0.0
H661 H 0.14356 0.63605 0.07582 0.0
C662 C 0.29293 0.46478 0.09631 0.0
C663 C 0.27792 0.43668 0.10645 0.0
C664 C 0.3181 0.47223 0.08509 0.0
C665 C 0.32854 0.45109 0.08407 0.0
C666 C 0.31402 0.42312 0.09489 0.0
C667 C 0.28882 0.41621 0.10593 0.0
C668 C 0.33321 0.50243 0.07395 0.0
C669 C 0.32482 0.40026 0.09442 0.0
C670 C 0.3745 0.45516 0.03437 0.0
C671 C 0.40275 0.47238 0.04589 0.0
C672 C 0.35009 0.44787 0.04667 0.0
C673 C 0.35417 0.45788 0.07106 0.0
C674 C 0.38271 0.47489 0.08283 0.0
C675 C 0.40668 0.48222 0.06999 0.0
C676 C 0.31996 0.42971 0.03355 0.0
C677 C 0.38804 0.48589 0.10883 0.0
H678 H 0.28485 0.48091 0.09702 0.0
H679 H 0.27717 0.39434 0.11357 0.0
H680 H 0.35636 0.51637 0.08145 0.0
H681 H 0.33313 0.49758 0.0547 0.0
H682 H 0.3226 0.51658 0.07668 0.0
H683 H 0.31175 0.38018 0.1045 0.0
H684 H 0.32386 0.39136 0.0759 0.0
H685 H 0.34797 0.41203 0.10193 0.0
H686 H 0.37148 0.44757 0.0157 0.0
H687 H 0.42855 0.4957 0.07884 0.0
H688 H 0.30898 0.44366 0.03451 0.0
H689 H 0.30645 0.40813 0.04193 0.0
H690 H 0.32053 0.4233 0.01468 0.0
H691 H 0.38459 0.50599 0.1115 0.0
H692 H 0.41062 0.49328 0.11614 0.0
H693 H 0.37255 0.46736 0.11905 0.0
C694 C 0.55747 0.8654 0.105 0.0
C695 C 0.56486 0.84631 0.0915 0.0
C696 C 0.5495 0.88511 0.0943 0.0
C697 C 0.54822 0.8852 0.06945 0.0
C698 C 0.55545 0.86592 0.05571 0.0
C699 C 0.56409 0.84711 0.0669 0.0
C700 C 0.54257 0.9059 0.10957 0.0
C701 C 0.55388 0.86499 0.02912 0.0
C702 C 0.5011 0.9129 0.03906 0.0
C703 C 0.52219 0.94215 0.0332 0.0
C704 C 0.50925 0.89415 0.05096 0.0
C705 C 0.53917 0.90531 0.05768 0.0
C706 C 0.56049 0.9352 0.05237 0.0
C707 C 0.55177 0.95312 0.03991 0.0
C708 C 0.48591 0.86218 0.05594 0.0
C709 C 0.59252 0.94827 0.05987 0.0
H710 H 0.55754 0.86474 0.12395 0.0
H711 H 0.57039 0.83311 0.05629 0.0
H712 H 0.55757 0.93057 0.10685 0.0
H713 H 0.52004 0.90077 0.10445 0.0
H714 H 0.54463 0.90309 0.12865 0.0
H715 H 0.55924 0.84792 0.02094 0.0
H716 H 0.53162 0.85882 0.02183 0.0
H717 H 0.56927 0.8883 0.02385 0.0
H718 H 0.47819 0.90439 0.03396 0.0
H719 H 0.5681 0.97601 0.03584 0.0
H720 H 0.48677 0.86004 0.07517 0.0
H721 H 0.48985 0.8443 0.04724 0.0
H722 H 0.46363 0.85702 0.04959 0.0
H723 H 0.59593 0.94784 0.07919 0.0
H724 H 0.60616 0.97254 0.05545 0.0
H725 H 0.60024 0.93365 0.05109 0.0
C726 C 0.93188 0.18562 0.40724 0.0
C727 C 0.93316 0.17721 0.43009 0.0
C728 C 0.95746 0.20495 0.397 0.0
C729 C 0.98495 0.21571 0.40982 0.0
C730 C 0.98638 0.20761 0.43304 0.0
C731 C 0.9604 0.18858 0.44297 0.0
C732 C 0.95509 0.21348 0.37233 0.0
C733 C 0.01532 0.21829 0.4471 0.0
C734 C 0.04819 0.23672 0.37287 0.0
C735 C 0.06189 0.26919 0.37478 0.0
C736 C 0.02352 0.21907 0.38469 0.0
C737 C 0.01214 0.23433 0.39846 0.0
C738 C 0.02616 0.26721 0.40066 0.0
C739 C 0.05103 0.2843 0.38886 0.0
C740 C 0.00948 0.18409 0.38226 0.0
C741 C 0.01459 0.28427 0.41512 0.0
H742 H 0.9108 0.17708 0.39739 0.0
H743 H 0.96137 0.18185 0.46058 0.0
H744 H 0.96737 0.23913 0.37216 0.0
H745 H 0.96499 0.20386 0.36031 0.0
H746 H 0.93208 0.20453 0.36524 0.0
H747 H 0.01267 0.21132 0.46534 0.0
H748 H 0.02717 0.20822 0.43814 0.0
H749 H 0.02925 0.24395 0.44805 0.0
H750 H 0.05683 0.22507 0.36219 0.0
H751 H 0.06177 0.30946 0.39041 0.0
H752 H 0.9869 0.17335 0.37358 0.0
H753 H 0.00797 0.17558 0.39996 0.0
H754 H 0.02181 0.17594 0.37174 0.0
H755 H 0.99222 0.2774 0.40763 0.0
H756 H 0.02856 0.30993 0.41562 0.0
H757 H 0.01307 0.2778 0.43348 0.0
C758 C 0.83694 0.79147 0.45456 0.0
C759 C 0.84661 0.77404 0.44181 0.0
C760 C 0.8161 0.79768 0.44402 0.0
C761 C 0.80434 0.78554 0.42038 0.0
C762 C 0.81354 0.76723 0.40768 0.0
C763 C 0.83483 0.76198 0.41849 0.0
C764 C 0.80723 0.81781 0.45792 0.0
C765 C 0.80108 0.7534 0.3826 0.0
C766 C 0.73369 0.78038 0.39645 0.0
C767 C 0.74418 0.80511 0.38235 0.0
C768 C 0.75305 0.77397 0.40935 0.0
C769 C 0.78351 0.79319 0.40839 0.0
C770 C 0.79414 0.81892 0.39487 0.0
C771 C 0.7743 0.82437 0.3818 0.0
C772 C 0.74093 0.74611 0.42334 0.0
C773 C 0.82647 0.8404 0.39388 0.0
H774 H 0.84618 0.80079 0.47261 0.0
H775 H 0.84208 0.74813 0.4088 0.0
H776 H 0.8132 0.83917 0.44911 0.0
H777 H 0.78321 0.80536 0.45846 0.0
H778 H 0.81783 0.82472 0.47632 0.0
H779 H 0.80922 0.73811 0.37574 0.0
H780 H 0.77689 0.73964 0.38154 0.0
H781 H 0.80695 0.77226 0.37092 0.0
H782 H 0.71035 0.76564 0.39697 0.0
H783 H 0.7824 0.84377 0.37113 0.0
H784 H 0.75075 0.75316 0.44193 0.0
H785 H 0.74673 0.72906 0.41591 0.0
H786 H 0.7168 0.73441 0.42315 0.0
H787 H 0.8377 0.84909 0.412 0.0
H788 H 0.83114 0.86066 0.38397 0.0
H789 H 0.83599 0.82748 0.38522 0.0
C790 C 0.22498 0.07353 0.39433 0.0
C791 C 0.22512 0.0751 0.41903 0.0
C792 C 0.21772 0.04571 0.38089 0.0
C793 C 0.21123 0.01896 0.39242 0.0
C794 C 0.2119 0.02045 0.41732 0.0
C795 C 0.21846 0.04834 0.43028 0.0
C796 C 0.2167 0.04485 0.35432 0.0
C797 C 0.20572 0.99257 0.43029 0.0
C798 C 0.16567 0.93808 0.36022 0.0
C799 C 0.18715 0.93098 0.35457 0.0
C800 C 0.17329 0.96708 0.37179 0.0
C801 C 0.20307 0.98916 0.37845 0.0
C802 C 0.22489 0.98226 0.37248 0.0
C803 C 0.21666 0.95333 0.36033 0.0
C804 C 0.14941 0.97382 0.37738 0.0
C805 C 0.25683 0.00491 0.37977 0.0
H806 H 0.23069 0.09412 0.38541 0.0
H807 H 0.21802 0.04901 0.44927 0.0
H808 H 0.23245 0.03837 0.34789 0.0
H809 H 0.19465 0.02683 0.34623 0.0
H810 H 0.22187 0.06756 0.34804 0.0
H811 H 0.20729 0.99758 0.44972 0.0
H812 H 0.18356 0.97285 0.42426 0.0
H813 H 0.2215 0.98493 0.42626 0.0
H814 H 0.14283 0.9208 0.35574 0.0
H815 H 0.23327 0.94766 0.35631 0.0
H816 H 0.15384 0.99614 0.37082 0.0
H817 H 0.14891 0.97631 0.39677 0.0
H818 H 0.12754 0.95514 0.36943 0.0
H819 H 0.26329 0.02778 0.37328 0.0
H820 H 0.27113 0.9965 0.37299 0.0
H821 H 0.26074 0.00869 0.39932 0.0
C822 C 0.52923 0.61197 0.24584 0.0
C823 C 0.49922 0.59892 0.24801 0.0
C824 C 0.5498 0.64092 0.25779 0.0
C825 C 0.54033 0.65689 0.27294 0.0
C826 C 0.51027 0.64351 0.27587 0.0
C827 C 0.49006 0.61494 0.26315 0.0
C828 C 0.58162 0.65469 0.25385 0.0
C829 C 0.4994 0.65968 0.29211 0.0
C830 C 0.59802 0.72039 0.31791 0.0
C831 C 0.60383 0.74727 0.30728 0.0
C832 C 0.57689 0.6908 0.30719 0.0
C833 C 0.56183 0.68809 0.28508 0.0
C834 C 0.56774 0.71522 0.27426 0.0
C835 C 0.58852 0.74449 0.28558 0.0
C836 C 0.57064 0.66245 0.31954 0.0
C837 C 0.55277 0.71336 0.25041 0.0
H838 H 0.53677 0.5996 0.23472 0.0
H839 H 0.467 0.60551 0.26475 0.0
H840 H 0.58971 0.67752 0.24673 0.0
H841 H 0.59484 0.65889 0.27085 0.0
H842 H 0.58539 0.63939 0.24137 0.0
H843 H 0.47565 0.64519 0.29375 0.0
H844 H 0.51139 0.66559 0.30995 0.0
H845 H 0.50362 0.68182 0.28535 0.0
H846 H 0.60973 0.72251 0.33475 0.0
H847 H 0.59331 0.76522 0.27713 0.0
H848 H 0.57601 0.64722 0.30857 0.0
H849 H 0.54704 0.64873 0.32187 0.0
H850 H 0.58334 0.66861 0.33711 0.0
H851 H 0.56081 0.70364 0.23667 0.0
H852 H 0.55697 0.7365 0.24589 0.0
H853 H 0.52884 0.69761 0.24982 0.0
C854 C 0.3793 0.91556 0.23067 0.0
C855 C 0.3939 0.89886 0.23397 0.0
C856 C 0.35452 0.90896 0.24224 0.0
C857 C 0.34472 0.88602 0.25829 0.0
C858 C 0.35942 0.86933 0.26201 0.0
C859 C 0.38334 0.87541 0.2494 0.0
C860 C 0.33884 0.9266 0.2373 0.0
C861 C 0.35005 0.84522 0.27946 0.0
C862 C 0.29705 0.89151 0.30329 0.0
C863 C 0.26913 0.86907 0.2931 0.0
C864 C 0.32198 0.8969 0.29238 0.0
C865 C 0.31877 0.87926 0.27089 0.0
C866 C 0.29064 0.85577 0.26102 0.0
C867 C 0.26608 0.8511 0.2722 0.0
C868 C 0.35171 0.92157 0.30376 0.0
C869 C 0.28653 0.83591 0.23849 0.0
H870 H 0.38739 0.93418 0.2193 0.0
H871 H 0.39371 0.86165 0.25174 0.0
H872 H 0.31555 0.91003 0.23116 0.0
H873 H 0.33939 0.94 0.25374 0.0
H874 H 0.34864 0.94297 0.22371 0.0
H875 H 0.36453 0.83515 0.28097 0.0
H876 H 0.3501 0.85577 0.29715 0.0
H877 H 0.32741 0.82607 0.2741 0.0
H878 H 0.29938 0.90513 0.31965 0.0
H879 H 0.2445 0.8331 0.26479 0.0
H880 H 0.36211 0.9404 0.29205 0.0
H881 H 0.36607 0.91152 0.30623 0.0
H882 H 0.35056 0.93195 0.32115 0.0
H883 H 0.29231 0.8505 0.22353 0.0
H884 H 0.26378 0.81625 0.23465 0.0
H885 H 0.30127 0.8262 0.23947 0.0
C886 C 0.09078 0.4679 0.24261 0.0
C887 C 0.10798 0.50037 0.24746 0.0
C888 C 0.09844 0.44802 0.25338 0.0
C889 C 0.12329 0.46079 0.27006 0.0
C890 C 0.14067 0.49342 0.27517 0.0
C891 C 0.13317 0.51278 0.26348 0.0
C892 C 0.07989 0.41334 0.24695 0.0
C893 C 0.16715 0.5079 0.2931 0.0
C894 C 0.12614 0.4082 0.31441 0.0
C895 C 0.14618 0.40082 0.30542 0.0
C896 C 0.11873 0.42799 0.30321 0.0
C897 C 0.13115 0.44005 0.28223 0.0
C898 C 0.15128 0.43251 0.273 0.0
C899 C 0.15874 0.4132 0.28482 0.0
C900 C 0.09787 0.43629 0.31396 0.0
C901 C 0.1645 0.44434 0.25039 0.0
H902 H 0.07105 0.45785 0.2306 0.0
H903 H 0.14722 0.53774 0.26692 0.0
H904 H 0.09369 0.40382 0.24107 0.0
H905 H 0.06986 0.40174 0.26268 0.0
H906 H 0.0622 0.40721 0.23271 0.0
H907 H 0.17767 0.53363 0.29577 0.0
H908 H 0.16084 0.49847 0.31032 0.0
H909 H 0.18347 0.50189 0.28734 0.0
H910 H 0.11654 0.39886 0.33041 0.0
H911 H 0.17405 0.40734 0.27764 0.0
H912 H 0.07826 0.42844 0.30137 0.0
H913 H 0.10842 0.46192 0.31759 0.0
H914 H 0.09075 0.42564 0.33068 0.0
H915 H 0.14718 0.43351 0.23538 0.0
H916 H 0.18192 0.43893 0.24686 0.0
H917 H 0.17389 0.46985 0.25099 0.0
C918 C 0.40509 0.48878 0.26302 0.0
C919 C 0.40403 0.49754 0.24025 0.0
C920 C 0.37939 0.46976 0.27327 0.0
C921 C 0.35196 0.45966 0.26057 0.0
C922 C 0.35074 0.46792 0.23736 0.0
C923 C 0.37685 0.48661 0.2274 0.0
C924 C 0.38161 0.46102 0.29789 0.0
C925 C 0.32191 0.45793 0.2234 0.0
C926 C 0.28499 0.39251 0.28211 0.0
C927 C 0.27499 0.40836 0.29637 0.0
C928 C 0.30981 0.40885 0.27003 0.0
C929 C 0.32469 0.44178 0.27212 0.0
C930 C 0.31415 0.45781 0.28606 0.0
C931 C 0.28952 0.44088 0.29815 0.0
C932 C 0.32044 0.39094 0.25544 0.0
C933 C 0.3291 0.49287 0.28841 0.0
H934 H 0.42611 0.49695 0.27285 0.0
H935 H 0.37602 0.49357 0.20985 0.0
H936 H 0.37242 0.47133 0.31006 0.0
H937 H 0.36859 0.4354 0.29808 0.0
H938 H 0.40451 0.46914 0.30478 0.0
H939 H 0.32465 0.46469 0.20509 0.0
H940 H 0.30741 0.43236 0.22261 0.0
H941 H 0.31065 0.46873 0.23233 0.0
H942 H 0.27364 0.36731 0.28063 0.0
H943 H 0.28159 0.45314 0.30898 0.0
H944 H 0.3426 0.39696 0.26286 0.0
H945 H 0.32216 0.39749 0.2371 0.0
H946 H 0.30576 0.36538 0.25491 0.0
H947 H 0.35164 0.50298 0.29701 0.0
H948 H 0.31731 0.50169 0.29897 0.0
H949 H 0.33079 0.50135 0.27069 0.0
C950 C 0.52122 0.92914 0.23535 0.0
C951 C 0.49165 0.90616 0.23396 0.0
C952 C 0.54283 0.92446 0.24637 0.0
C953 C 0.5346 0.89609 0.2561 0.0
C954 C 0.50481 0.87268 0.2545 0.0
C955 C 0.48369 0.87803 0.24349 0.0
C956 C 0.5744 0.94995 0.24782 0.0
C957 C 0.49522 0.84202 0.26451 0.0
C958 C 0.58988 0.87033 0.26824 0.0
C959 C 0.59624 0.87735 0.29273 0.0
C960 C 0.57037 0.87699 0.25592 0.0
C961 C 0.55698 0.89101 0.2685 0.0
C962 C 0.56395 0.89887 0.2932 0.0
C963 C 0.5835 0.89187 0.30504 0.0
C964 C 0.56348 0.86817 0.2296 0.0
C965 C 0.55025 0.91403 0.30718 0.0
H966 H 0.52742 0.95101 0.22816 0.0
H967 H 0.46087 0.86004 0.24212 0.0
H968 H 0.58333 0.95777 0.26658 0.0
H969 H 0.58756 0.94099 0.23962 0.0
H970 H 0.57723 0.97035 0.2389 0.0
H971 H 0.47123 0.82604 0.2614 0.0
H972 H 0.50627 0.83039 0.25646 0.0
H973 H 0.50167 0.84608 0.2838 0.0
H974 H 0.59978 0.85915 0.25877 0.0
H975 H 0.58852 0.8974 0.324 0.0
H976 H 0.56564 0.88811 0.22042 0.0
H977 H 0.54054 0.84898 0.22572 0.0
H978 H 0.57797 0.86044 0.22217 0.0
H979 H 0.55393 0.9355 0.29953 0.0
H980 H 0.55915 0.92012 0.32605 0.0
H981 H 0.52631 0.89808 0.3062 0.0
C982 C 0.11361 0.62629 0.23916 0.0
C983 C 0.10457 0.59961 0.25112 0.0
C984 C 0.12037 0.6548 0.25112 0.0
C985 C 0.11883 0.65696 0.27579 0.0
C986 C 0.11004 0.63032 0.28807 0.0
C987 C 0.10263 0.60188 0.27555 0.0
C988 C 0.12912 0.68262 0.23735 0.0
C989 C 0.1086 0.6319 0.31445 0.0
C990 C 0.16299 0.73837 0.30734 0.0
C991 C 0.14134 0.74617 0.31023 0.0
C992 C 0.15582 0.70893 0.29692 0.0
C993 C 0.12641 0.68718 0.28866 0.0
C994 C 0.10441 0.69483 0.2918 0.0
C995 C 0.11212 0.72416 0.30279 0.0
C996 C 0.17977 0.70134 0.29431 0.0
C997 C 0.07292 0.6725 0.28275 0.0
H998 H 0.11574 0.62505 0.2204 0.0
H999 H 0.09514 0.58138 0.28494 0.0
H1000 H 0.11423 0.6919 0.23991 0.0
H1001 H 0.15149 0.70147 0.24396 0.0
H1002 H 0.12858 0.67688 0.21814 0.0
H1003 H 0.10226 0.60929 0.32147 0.0
H1004 H 0.13014 0.64979 0.32349 0.0
H1005 H 0.09257 0.63896 0.31901 0.0
H1006 H 0.1856 0.75533 0.31316 0.0
H1007 H 0.09537 0.73028 0.30471 0.0
H1008 H 0.1822 0.6981 0.27533 0.0
H1009 H 0.17402 0.67918 0.30182 0.0
H1010 H 0.20113 0.71993 0.30321 0.0
H1011 H 0.071 0.66795 0.26327 0.0
H1012 H 0.05834 0.68161 0.28732 0.0
H1013 H 0.06513 0.64989 0.29013 0.0
C1014 C 0.84675 0.05902 0.40964 0.0
C1015 C 0.83788 0.07629 0.42367 0.0
C1016 C 0.82621 0.03026 0.39737 0.0
C1017 C 0.79611 0.01824 0.39946 0.0
C1018 C 0.78697 0.0356 0.41341 0.0
C1019 C 0.80792 0.06451 0.42516 0.0
C1020 C 0.83675 0.01248 0.3825 0.0
C1021 C 0.75507 0.02343 0.41623 0.0
C1022 C 0.73971 0.95457 0.35395 0.0
C1023 C 0.73221 0.92788 0.36546 0.0
C1024 C 0.76078 0.98416 0.36468 0.0
C1025 C 0.77419 0.98707 0.38761 0.0
C1026 C 0.76646 0.96019 0.39937 0.0
C1027 C 0.74573 0.93091 0.38808 0.0
C1028 C 0.76879 0.01227 0.35147 0.0
C1029 C 0.77977 0.96235 0.42402 0.0
H1030 H 0.86981 0.06766 0.40861 0.0
H1031 H 0.80079 0.07792 0.43555 0.0
H1032 H 0.83092 0.99022 0.38986 0.0
H1033 H 0.82582 0.00666 0.36426 0.0
H1034 H 0.86076 0.02579 0.38169 0.0
H1035 H 0.75157 0.03986 0.42766 0.0
H1036 H 0.74275 0.01901 0.39872 0.0
H1037 H 0.74571 0.00093 0.42403 0.0
H1038 H 0.7294 0.9523 0.33643 0.0
H1039 H 0.73978 0.91038 0.39718 0.0
H1040 H 0.79257 0.02483 0.34965 0.0
H1041 H 0.76398 0.02863 0.36155 0.0
H1042 H 0.75677 0.00598 0.3336 0.0
H1043 H 0.80392 0.9748 0.42462 0.0
H1044 H 0.7722 0.93911 0.43033 0.0
H1045 H 0.77397 0.97592 0.43644 0.0
C1046 C 0.93934 0.74971 0.42488 0.0
C1047 C 0.93999 0.77371 0.43935 0.0
C1048 C 0.96286 0.75537 0.41189 0.0
C1049 C 0.98761 0.78568 0.41371 0.0
C1050 C 0.98842 0.80989 0.42864 0.0
C1051 C 0.96441 0.80362 0.4412 0.0
C1052 C 0.96112 0.72904 0.39604 0.0
C1053 C 0.01459 0.84236 0.43131 0.0
C1054 C 0.05857 0.79352 0.39589 0.0
C1055 C 0.05985 0.8042 0.37358 0.0
C1056 C 0.03533 0.78771 0.40929 0.0
C1057 C 0.01255 0.79206 0.39985 0.0
C1058 C 0.01347 0.80226 0.37708 0.0
C1059 C 0.03728 0.80845 0.36426 0.0
C1060 C 0.03545 0.77747 0.43367 0.0
C1061 C 0.98932 0.80667 0.36629 0.0
H1062 H 0.92019 0.72665 0.42348 0.0
H1063 H 0.96462 0.82205 0.45245 0.0
H1064 H 0.96326 0.7351 0.37756 0.0
H1065 H 0.97944 0.7253 0.40141 0.0
H1066 H 0.94025 0.7069 0.39652 0.0
H1067 H 0.0116 0.85861 0.44343 0.0
H1068 H 0.0342 0.84177 0.43828 0.0
H1069 H 0.01891 0.85162 0.41387 0.0
H1070 H 0.076 0.79014 0.40305 0.0
H1071 H 0.03823 0.8166 0.34695 0.0
H1072 H 0.01447 0.75612 0.43559 0.0
H1073 H 0.0378 0.79587 0.44703 0.0
H1074 H 0.05353 0.7728 0.43765 0.0
H1075 H 0.96813 0.7846 0.3654 0.0
H1076 H 0.99307 0.81417 0.34824 0.0
H1077 H 0.98742 0.82436 0.37755 0.0
C1078 C 0.2166 0.1945 0.43895 0.0
C1079 C 0.22382 0.17536 0.42532 0.0
C1080 C 0.21065 0.21586 0.42859 0.0
C1081 C 0.21112 0.21755 0.40392 0.0
C1082 C 0.21805 0.19813 0.39002 0.0
C1083 C 0.22478 0.17772 0.40091 0.0
C1084 C 0.20398 0.23672 0.44405 0.0
C1085 C 0.2182 0.19876 0.36357 0.0
C1086 C 0.16835 0.24961 0.37274 0.0
C1087 C 0.19073 0.27871 0.36778 0.0
C1088 C 0.17466 0.22955 0.38467 0.0
C1089 C 0.20401 0.23925 0.39241 0.0
C1090 C 0.22663 0.26902 0.38806 0.0
C1091 C 0.21975 0.28825 0.37546 0.0
C1092 C 0.14999 0.19772 0.38849 0.0
C1093 C 0.25807 0.28056 0.39674 0.0
H1094 H 0.21539 0.1927 0.45774 0.0
H1095 H 0.23106 0.16376 0.39021 0.0
H1096 H 0.21975 0.26143 0.44204 0.0
H1097 H 0.18187 0.23253 0.4385 0.0
H1098 H 0.20507 0.23298 0.46301 0.0
H1099 H 0.22293 0.18128 0.3552 0.0
H1100 H 0.1967 0.19418 0.3556 0.0
H1101 H 0.23486 0.22214 0.3593 0.0
H1102 H 0.14587 0.24224 0.36688 0.0
H1103 H 0.23701 0.31104 0.37208 0.0
H1104 H 0.14961 0.19459 0.40758 0.0
H1105 H 0.15345 0.17956 0.37964 0.0
H1106 H 0.12837 0.19388 0.38152 0.0
H1107 H 0.2601 0.27896 0.41601 0.0
H1108 H 0.27279 0.30501 0.39321 0.0
H1109 H 0.26556 0.26569 0.38801 0.0
C1110 C 0.62056 0.53 0.77072 0.0
C1111 C 0.60871 0.49772 0.76999 0.0
C1112 C 0.64556 0.54845 0.75947 0.0
C1113 C 0.65895 0.53424 0.74714 0.0
C1114 C 0.64763 0.50182 0.74693 0.0
C1115 C 0.62266 0.48395 0.7584 0.0
C1116 C 0.65722 0.58302 0.76025 0.0
C1117 C 0.66148 0.4859 0.73414 0.0
C1118 C 0.70373 0.57532 0.69756 0.0
C1119 C 0.73221 0.58903 0.70853 0.0
C1120 C 0.67965 0.55731 0.70994 0.0
C1121 C 0.68428 0.55316 0.73384 0.0
C1122 C 0.71306 0.56703 0.74498 0.0
C1123 C 0.73668 0.58455 0.73208 0.0
C1124 C 0.64925 0.5428 0.69746 0.0
C1125 C 0.71893 0.56328 0.77045 0.0
H1126 H 0.60972 0.54074 0.77945 0.0
H1127 H 0.61384 0.45908 0.75809 0.0
H1128 H 0.68066 0.59602 0.76705 0.0
H1129 H 0.65557 0.5894 0.74215 0.0
H1130 H 0.64515 0.59067 0.77156 0.0
H1131 H 0.65051 0.46064 0.73627 0.0
H1132 H 0.66051 0.48882 0.71503 0.0
H1133 H 0.68486 0.49678 0.7408 0.0
H1134 H 0.70027 0.57872 0.67932 0.0
H1135 H 0.75871 0.59493 0.74049 0.0
H1136 H 0.63645 0.55133 0.70681 0.0
H1137 H 0.63779 0.51718 0.69777 0.0
H1138 H 0.6494 0.54813 0.67881 0.0
H1139 H 0.70552 0.56881 0.78181 0.0
H1140 H 0.74225 0.57846 0.7772 0.0
H1141 H 0.71276 0.53876 0.77218 0.0
C1142 C 0.52151 0.13365 0.76779 0.0
C1143 C 0.51436 0.10328 0.77161 0.0
C1144 C 0.50089 0.13958 0.75648 0.0
C1145 C 0.47276 0.11441 0.7483 0.0
C1146 C 0.46552 0.08365 0.75205 0.0
C1147 C 0.48635 0.07849 0.76393 0.0
C1148 C 0.50919 0.17274 0.75327 0.0
C1149 C 0.43597 0.05618 0.74318 0.0
C1150 C 0.41084 0.13038 0.73489 0.0
C1151 C 0.41137 0.1328 0.71057 0.0
C1152 C 0.43082 0.12461 0.74749 0.0
C1153 C 0.45118 0.12022 0.73527 0.0
C1154 C 0.45118 0.12174 0.71055 0.0
C1155 C 0.43148 0.12839 0.69853 0.0
C1156 C 0.43054 0.12385 0.77391 0.0
C1157 C 0.47208 0.11647 0.69681 0.0
H1158 H 0.54315 0.15279 0.77396 0.0
H1159 H 0.48097 0.055 0.76683 0.0
H1160 H 0.50827 0.1758 0.7342 0.0
H1161 H 0.49338 0.1782 0.76103 0.0
H1162 H 0.53148 0.18974 0.76162 0.0
H1163 H 0.43382 0.03375 0.74752 0.0
H1164 H 0.41851 0.05872 0.75096 0.0
H1165 H 0.43224 0.05533 0.72374 0.0
H1166 H 0.3951 0.13354 0.74411 0.0
H1167 H 0.43174 0.13006 0.67967 0.0
H1168 H 0.42769 0.10143 0.77895 0.0
H1169 H 0.41287 0.12701 0.78065 0.0
H1170 H 0.4518 0.14257 0.7828 0.0
H1171 H 0.4949 0.13458 0.70298 0.0
H1172 H 0.46836 0.11705 0.67753 0.0
H1173 H 0.46978 0.09363 0.69993 0.0
C1174 C 0.90533 0.40413 0.72476 0.0
C1175 C 0.90343 0.40713 0.74915 0.0
C1176 C 0.89793 0.37538 0.71276 0.0
C1177 C 0.88909 0.34913 0.72552 0.0
C1178 C 0.88751 0.35201 0.75015 0.0
C1179 C 0.89431 0.38082 0.76159 0.0
C1180 C 0.89932 0.37304 0.6864 0.0
C1181 C 0.87848 0.32458 0.76442 0.0
C1182 C 0.84275 0.2672 0.6954 0.0
C1183 C 0.8636 0.25816 0.69264 0.0
C1184 C 0.85094 0.29717 0.70525 0.0
C1185 C 0.88061 0.31833 0.71309 0.0
C1186 C 0.90185 0.30949 0.71 0.0
C1187 C 0.89311 0.27956 0.69952 0.0
C1188 C 0.82774 0.30595 0.70771 0.0
C1189 C 0.9336 0.3312 0.71861 0.0
H1190 H 0.91282 0.42433 0.715 0.0
H1191 H 0.89216 0.38259 0.78031 0.0
H1192 H 0.9148 0.3651 0.68208 0.0
H1193 H 0.87757 0.35547 0.67749 0.0
H1194 H 0.9063 0.39557 0.67902 0.0
H1195 H 0.88 0.33113 0.78362 0.0
H1196 H 0.85566 0.30629 0.75848 0.0
H1197 H 0.89248 0.31424 0.7616 0.0
H1198 H 0.81992 0.25075 0.68991 0.0
H1199 H 0.90921 0.27248 0.69759 0.0
H1200 H 0.83404 0.32801 0.69984 0.0
H1201 H 0.82564 0.30988 0.72667 0.0
H1202 H 0.80607 0.28768 0.69907 0.0
H1203 H 0.94182 0.35367 0.71092 0.0
H1204 H 0.94753 0.32126 0.71405 0.0
H1205 H 0.93594 0.33628 0.73807 0.0
C1206 C 0.15696 0.94883 0.59767 0.0
C1207 C 0.16559 0.93211 0.58273 0.0
C1208 C 0.17765 0.97692 0.61065 0.0
C1209 C 0.20767 0.98906 0.60818 0.0
C1210 C 0.21662 0.97216 0.59349 0.0
C1211 C 0.19552 0.94369 0.58124 0.0
C1212 C 0.16732 0.9941 0.62643 0.0
C1213 C 0.24844 0.9846 0.59013 0.0
C1214 C 0.25702 0.07646 0.61926 0.0
C1215 C 0.2718 0.07972 0.64135 0.0
C1216 C 0.23621 0.04708 0.60826 0.0
C1217 C 0.22959 0.02031 0.61984 0.0
C1218 C 0.2441 0.02345 0.64232 0.0
C1219 C 0.26534 0.05317 0.65271 0.0
C1220 C 0.22174 0.04469 0.58403 0.0
C1221 C 0.23707 0.99547 0.65541 0.0
H1222 H 0.13396 0.94047 0.59876 0.0
H1223 H 0.20255 0.93068 0.57025 0.0
H1224 H 0.17931 0.00039 0.64428 0.0
H1225 H 0.17194 0.01609 0.61915 0.0
H1226 H 0.14353 0.98016 0.62814 0.0
H1227 H 0.25184 0.96827 0.57848 0.0
H1228 H 0.25731 0.00703 0.58225 0.0
H1229 H 0.26125 0.98926 0.60742 0.0
H1230 H 0.26216 0.0969 0.61028 0.0
H1231 H 0.27661 0.05566 0.66985 0.0
H1232 H 0.19765 0.03104 0.58385 0.0
H1233 H 0.22811 0.03227 0.57104 0.0
H1234 H 0.22793 0.06787 0.57817 0.0
H1235 H 0.21342 0.98251 0.65774 0.0
H1236 H 0.24967 0.00197 0.67305 0.0
H1237 H 0.24191 0.97938 0.64499 0.0
C1238 C 0.04848 0.24564 0.56391 0.0
C1239 C 0.05956 0.22532 0.56252 0.0
C1240 C 0.02404 0.23876 0.57611 0.0
C1241 C 0.01042 0.21099 0.58731 0.0
C1242 C 0.02116 0.19014 0.58563 0.0
C1243 C 0.04551 0.1975 0.57321 0.0
C1244 C 0.01307 0.26147 0.57736 0.0
C1245 C 0.00717 0.16023 0.59723 0.0
C1246 C 0.96618 0.2077 0.63837 0.0
C1247 C 0.93759 0.19056 0.62746 0.0
C1248 C 0.99011 0.21445 0.62551 0.0
C1249 C 0.98525 0.20398 0.60115 0.0
C1250 C 0.95635 0.18666 0.59008 0.0
C1251 C 0.93288 0.1799 0.60346 0.0
C1252 C 0.0206 0.23282 0.63797 0.0
C1253 C 0.95021 0.17529 0.56413 0.0
H1254 H 0.05938 0.26735 0.55596 0.0
H1255 H 0.05362 0.18143 0.57189 0.0
H1256 H 0.98959 0.2495 0.57077 0.0
H1257 H 0.01509 0.27065 0.59599 0.0
H1258 H 0.02531 0.28137 0.56689 0.0
H1259 H 0.01794 0.14633 0.59402 0.0
H1260 H 0.00822 0.16546 0.61656 0.0
H1261 H 0.98376 0.14586 0.59053 0.0
H1262 H 0.96985 0.21591 0.65696 0.0
H1263 H 0.91077 0.16646 0.59506 0.0
H1264 H 0.03353 0.2545 0.62952 0.0
H1265 H 0.0318 0.21914 0.63635 0.0
H1266 H 0.02065 0.23908 0.657 0.0
H1267 H 0.96242 0.195 0.55352 0.0
H1268 H 0.92662 0.16381 0.55792 0.0
H1269 H 0.95778 0.15848 0.56065 0.0
C1270 C 0.7647 0.8198 0.60705 0.0
C1271 C 0.76573 0.82167 0.5826 0.0
C1272 C 0.77237 0.8004 0.61851 0.0
C1273 C 0.78034 0.7815 0.60513 0.0
C1274 C 0.78062 0.78246 0.58039 0.0
C1275 C 0.77372 0.80283 0.56947 0.0
C1276 C 0.77243 0.80055 0.64501 0.0
C1277 C 0.78835 0.76208 0.56546 0.0
C1278 C 0.82784 0.75439 0.63556 0.0
C1279 C 0.80707 0.72448 0.64048 0.0
C1280 C 0.81937 0.77331 0.62435 0.0
C1281 C 0.78947 0.76164 0.61721 0.0
C1282 C 0.76841 0.73125 0.62189 0.0
C1283 C 0.77745 0.71316 0.63382 0.0
C1284 C 0.84243 0.80584 0.62023 0.0
C1285 C 0.73644 0.71766 0.61388 0.0
H1286 H 0.75784 0.83352 0.61738 0.0
H1287 H 0.77502 0.80424 0.55066 0.0
H1288 H 0.75715 0.7769 0.64974 0.0
H1289 H 0.79453 0.80722 0.65309 0.0
H1290 H 0.76606 0.81694 0.65287 0.0
H1291 H 0.78662 0.76483 0.54635 0.0
H1292 H 0.81095 0.76771 0.57096 0.0
H1293 H 0.77363 0.73732 0.56812 0.0
H1294 H 0.85079 0.76312 0.6407 0.0
H1295 H 0.76145 0.68979 0.63723 0.0
H1296 H 0.83719 0.82299 0.62837 0.0
H1297 H 0.8428 0.80831 0.60103 0.0
H1298 H 0.86459 0.81175 0.62764 0.0
H1299 H 0.72823 0.73218 0.62203 0.0
H1300 H 0.72292 0.69347 0.6185 0.0
H1301 H 0.73346 0.71767 0.59446 0.0
C1302 C 0.0406 0.82477 0.55881 0.0
C1303 C 0.06757 0.83439 0.57156 0.0
C1304 C 0.01429 0.80556 0.56831 0.0
C1305 C 0.01514 0.79563 0.59095 0.0
C1306 C 0.04233 0.80458 0.60355 0.0
C1307 C 0.06821 0.82396 0.59374 0.0
C1308 C 0.98567 0.79668 0.55446 0.0
C1309 C 0.04411 0.79408 0.62759 0.0
C1310 C 0.95291 0.77368 0.6292 0.0
C1311 C 0.93901 0.74119 0.6265 0.0
C1312 C 0.97714 0.79169 0.61702 0.0
C1313 C 0.98775 0.77676 0.60199 0.0
C1314 C 0.9733 0.74388 0.5988 0.0
C1315 C 0.94902 0.72646 0.61112 0.0
C1316 C 0.99175 0.82669 0.62062 0.0
C1317 C 0.98393 0.72713 0.58291 0.0
H1318 H 0.0401 0.833 0.54171 0.0
H1319 H 0.08906 0.83103 0.60345 0.0
H1320 H 0.97063 0.77117 0.55325 0.0
H1321 H 0.9749 0.80779 0.56374 0.0
H1322 H 0.98866 0.80401 0.53632 0.0
H1323 H 0.06694 0.80203 0.63461 0.0
H1324 H 0.03447 0.80326 0.64026 0.0
H1325 H 0.03129 0.76833 0.62668 0.0
H1326 H 0.94492 0.78504 0.64091 0.0
H1327 H 0.93813 0.70128 0.60896 0.0
H1328 H 0.99352 0.83629 0.60333 0.0
H1329 H 0.01425 0.83658 0.62925 0.0
H1330 H 0.97969 0.8346 0.63171 0.0
H1331 H 0.98597 0.73534 0.56508 0.0
H1332 H 0.9691 0.70151 0.58113 0.0
H1333 H 0.00595 0.73242 0.59011 0.0
C1334 C 0.16844 0.24446 0.5852 0.0
C1335 C 0.15666 0.23167 0.562 0.0
C1336 C 0.18995 0.23979 0.5964 0.0
C1337 C 0.19934 0.22126 0.58425 0.0
C1338 C 0.18759 0.20841 0.56072 0.0
C1339 C 0.16657 0.21409 0.54976 0.0
C1340 C 0.20241 0.25445 0.62132 0.0
C1341 C 0.19654 0.18794 0.54739 0.0
C1342 C 0.27039 0.22727 0.60844 0.0
C1343 C 0.26019 0.20299 0.62297 0.0
C1344 C 0.25082 0.23334 0.59545 0.0
C1345 C 0.22041 0.21419 0.59669 0.0
C1346 C 0.21006 0.18894 0.61072 0.0
C1347 C 0.23011 0.18388 0.62391 0.0
C1348 C 0.2627 0.2607 0.58094 0.0
C1349 C 0.17779 0.16749 0.61202 0.0
H1350 H 0.16095 0.25835 0.59452 0.0
H1351 H 0.15731 0.20414 0.53181 0.0
H1352 H 0.19664 0.23604 0.63342 0.0
H1353 H 0.22659 0.26826 0.62233 0.0
H1354 H 0.19419 0.26986 0.62769 0.0
H1355 H 0.18659 0.18119 0.5288 0.0
H1356 H 0.22062 0.19994 0.54746 0.0
H1357 H 0.18976 0.16648 0.55628 0.0
H1358 H 0.29369 0.24191 0.60762 0.0
H1359 H 0.22221 0.16481 0.6349 0.0
H1360 H 0.25649 0.27767 0.58778 0.0
H1361 H 0.25303 0.25297 0.56234 0.0
H1362 H 0.28685 0.27271 0.58127 0.0
H1363 H 0.16823 0.18063 0.62025 0.0
H1364 H 0.17332 0.14771 0.62245 0.0
H1365 H 0.16645 0.15808 0.59399 0.0
C1366 C 0.76362 0.92467 0.61057 0.0
C1367 C 0.76455 0.92218 0.586 0.0
C1368 C 0.77114 0.95313 0.62316 0.0
C1369 C 0.77917 0.97964 0.61086 0.0
C1370 C 0.77958 0.97722 0.58605 0.0
C1371 C 0.77262 0.94867 0.57398 0.0
C1372 C 0.77091 0.95494 0.64966 0.0
C1373 C 0.78772 0.00491 0.57225 0.0
C1374 C 0.77644 0.04884 0.63951 0.0
C1375 C 0.80615 0.07011 0.64576 0.0
C1376 C 0.76723 0.01907 0.62839 0.0
C1377 C 0.78821 0.01026 0.62394 0.0
C1378 C 0.81812 0.03127 0.63109 0.0
C1379 C 0.82675 0.06107 0.64166 0.0
C1380 C 0.73522 0.99753 0.62059 0.0
C1381 C 0.84109 0.02253 0.62713 0.0
H1382 H 0.75692 0.90431 0.62002 0.0
H1383 H 0.77396 0.94729 0.5551 0.0
H1384 H 0.79303 0.97216 0.65813 0.0
H1385 H 0.75587 0.96305 0.65499 0.0
H1386 H 0.76408 0.93217 0.65658 0.0
H1387 H 0.78517 0.99868 0.5529 0.0
H1388 H 0.77392 0.0152 0.57619 0.0
H1389 H 0.81073 0.02314 0.5776 0.0
H1390 H 0.7605 0.05588 0.64245 0.0
H1391 H 0.84974 0.07739 0.64662 0.0
H1392 H 0.72741 0.97483 0.62783 0.0
H1393 H 0.73196 0.99293 0.60106 0.0
H1394 H 0.72156 0.00737 0.62625 0.0
H1395 H 0.83523 0.0003 0.63456 0.0
H1396 H 0.86309 0.04067 0.63528 0.0
H1397 H 0.84221 0.01893 0.60792 0.0
C1398 C 0.4896 0.37797 0.77272 0.0
C1399 C 0.508 0.4041 0.76137 0.0
C1400 C 0.46808 0.35028 0.75976 0.0
C1401 C 0.4652 0.34844 0.73481 0.0
C1402 C 0.48354 0.37469 0.72321 0.0
C1403 C 0.50448 0.40227 0.73663 0.0
C1404 C 0.44859 0.32287 0.77276 0.0
C1405 C 0.48132 0.37348 0.69661 0.0
C1406 C 0.43042 0.26755 0.70251 0.0
C1407 C 0.40206 0.26134 0.69587 0.0
C1408 C 0.45137 0.2961 0.71471 0.0
C1409 C 0.44358 0.31874 0.72084 0.0
C1410 C 0.41502 0.31269 0.71404 0.0
C1411 C 0.39465 0.28413 0.70142 0.0
C1412 C 0.48173 0.30189 0.72133 0.0
C1413 C 0.40576 0.33601 0.72067 0.0
H1414 H 0.49233 0.37892 0.79178 0.0
H1415 H 0.51811 0.42247 0.72767 0.0
H1416 H 0.42536 0.31528 0.76766 0.0
H1417 H 0.45167 0.30293 0.76778 0.0
H1418 H 0.45303 0.32838 0.79223 0.0
H1419 H 0.49718 0.39595 0.69031 0.0
H1420 H 0.48535 0.35509 0.68907 0.0
H1421 H 0.45897 0.36731 0.68963 0.0
H1422 H 0.43625 0.25 0.69822 0.0
H1423 H 0.37262 0.27923 0.69663 0.0
H1424 H 0.48628 0.30489 0.74083 0.0
H1425 H 0.49817 0.32369 0.71461 0.0
H1426 H 0.48468 0.28252 0.71422 0.0
H1427 H 0.40747 0.34017 0.74018 0.0
H1428 H 0.38298 0.32807 0.71353 0.0
H1429 H 0.42051 0.35862 0.71404 0.0
C1430 C 0.62674 0.13745 0.76523 0.0
C1431 C 0.61149 0.10942 0.77546 0.0
C1432 C 0.65126 0.14409 0.75325 0.0
C1433 C 0.66085 0.12224 0.75154 0.0
C1434 C 0.64611 0.09434 0.76242 0.0
C1435 C 0.62156 0.08822 0.77419 0.0
C1436 C 0.66654 0.17419 0.742 0.0
C1437 C 0.65592 0.07066 0.76121 0.0
C1438 C 0.70465 0.12337 0.70077 0.0
C1439 C 0.73318 0.13928 0.71186 0.0
C1440 C 0.68089 0.11782 0.71348 0.0
C1441 C 0.68587 0.1282 0.73786 0.0
C1442 C 0.71469 0.1442 0.74912 0.0
C1443 C 0.73802 0.14986 0.73589 0.0
C1444 C 0.65047 0.10078 0.70083 0.0
C1445 C 0.72093 0.15544 0.7751 0.0
H1446 H 0.61936 0.15415 0.76645 0.0
H1447 H 0.60971 0.06635 0.78177 0.0
H1448 H 0.68994 0.18755 0.74889 0.0
H1449 H 0.66555 0.16918 0.72265 0.0
H1450 H 0.65669 0.18898 0.74532 0.0
H1451 H 0.64293 0.0508 0.77152 0.0
H1452 H 0.65388 0.06151 0.74257 0.0
H1453 H 0.67928 0.08175 0.76803 0.0
H1454 H 0.7009 0.11524 0.68217 0.0
H1455 H 0.7601 0.16239 0.74442 0.0
H1456 H 0.64023 0.11542 0.7025 0.0
H1457 H 0.63669 0.07917 0.7091 0.0
H1458 H 0.65034 0.09453 0.68179 0.0
H1459 H 0.71655 0.17483 0.77821 0.0
H1460 H 0.74392 0.16375 0.78177 0.0
H1461 H 0.70642 0.1366 0.78559 0.0
C1462 C 0.89611 0.527 0.76343 0.0
C1463 C 0.90526 0.50914 0.75045 0.0
C1464 C 0.88877 0.54697 0.75248 0.0
C1465 C 0.89003 0.54868 0.72786 0.0
C1466 C 0.89922 0.53079 0.71463 0.0
C1467 C 0.907 0.51148 0.72611 0.0
C1468 C 0.87934 0.56598 0.76721 0.0
C1469 C 0.90048 0.53173 0.68828 0.0
C1470 C 0.84302 0.57606 0.69706 0.0
C1471 C 0.86368 0.60685 0.69398 0.0
C1472 C 0.8514 0.55671 0.70769 0.0
C1473 C 0.88107 0.56867 0.71586 0.0
C1474 C 0.90204 0.59976 0.71283 0.0
C1475 C 0.89312 0.61842 0.7017 0.0
C1476 C 0.82848 0.52352 0.71027 0.0
C1477 C 0.93376 0.61349 0.72179 0.0
H1478 H 0.89419 0.52501 0.78214 0.0
H1479 H 0.91453 0.49824 0.71598 0.0
H1480 H 0.89281 0.59096 0.76457 0.0
H1481 H 0.85633 0.55873 0.76151 0.0
H1482 H 0.88119 0.56338 0.78634 0.0
H1483 H 0.90795 0.51625 0.68054 0.0
H1484 H 0.87855 0.52457 0.67952 0.0
H1485 H 0.9155 0.55582 0.68422 0.0
H1486 H 0.82023 0.56699 0.69105 0.0
H1487 H 0.9091 0.64235 0.69964 0.0
H1488 H 0.82694 0.51976 0.72924 0.0
H1489 H 0.83475 0.50729 0.70198 0.0
H1490 H 0.80658 0.51746 0.70208 0.0
H1491 H 0.93581 0.61263 0.74116 0.0
H1492 H 0.94735 0.638 0.71789 0.0
H1493 H 0.94265 0.59958 0.71369 0.0
C1494 C 0.44169 0.92513 0.14563 0.0
C1495 C 0.45577 0.94245 0.1673 0.0
C1496 C 0.44931 0.93883 0.12439 0.0
C1497 C 0.4712 0.97058 0.12511 0.0
C1498 C 0.48427 0.98844 0.14713 0.0
C1499 C 0.47661 0.97402 0.16797 0.0
C1500 C 0.43513 0.91897 0.10123 0.0
C1501 C 0.50718 0.02249 0.14865 0.0
C1502 C 0.5192 0.99988 0.0752 0.0
C1503 C 0.50616 0.01377 0.06259 0.0
C1504 C 0.50728 0.98469 0.09505 0.0
C1505 C 0.48248 0.98461 0.10304 0.0
C1506 C 0.46961 0.99926 0.09063 0.0
C1507 C 0.48152 0.01347 0.07036 0.0
C1508 C 0.52107 0.96843 0.10728 0.0
C1509 C 0.44344 5e-05 0.09884 0.0
H1510 H 0.42562 0.90064 0.1453 0.0
H1511 H 0.4873 0.98726 0.18487 0.0
H1512 H 0.42724 0.93061 0.08934 0.0
H1513 H 0.4515 0.91567 0.0922 0.0
H1514 H 0.41646 0.89573 0.10371 0.0
H1515 H 0.51286 0.03375 0.16706 0.0
H1516 H 0.52731 0.02509 0.14174 0.0
H1517 H 0.49945 0.03504 0.1376 0.0
H1518 H 0.53814 0.99989 0.06903 0.0
H1519 H 0.47165 0.02446 0.06058 0.0
H1520 H 0.50434 0.94387 0.10873 0.0
H1521 H 0.53013 0.97978 0.12547 0.0
H1522 H 0.5389 0.96878 0.09777 0.0
H1523 H 0.42513 0.97606 0.09965 0.0
H1524 H 0.43586 0.01209 0.08703 0.0
H1525 H 0.44896 0.01214 0.11694 0.0
C1526 C 0.07345 0.54662 0.16133 0.0
C1527 C 0.06298 0.52495 0.17802 0.0
C1528 C 0.05923 0.53953 0.13844 0.0
C1529 C 0.03365 0.51028 0.1323 0.0
C1530 C 0.02308 0.48825 0.14907 0.0
C1531 C 0.03805 0.49577 0.17171 0.0
C1532 C 0.07153 0.56339 0.12088 0.0
C1533 C 0.99575 0.45694 0.14317 0.0
C1534 C 0.98418 0.50775 0.08048 0.0
C1535 C 0.99143 0.49382 0.06206 0.0
C1536 C 0.9969 0.51212 0.10366 0.0
C1537 C 0.01785 0.50297 0.10836 0.0
C1538 C 0.02462 0.48812 0.0899 0.0
C1539 C 0.01099 0.48343 0.06705 0.0
C1540 C 0.98849 0.52724 0.123 0.0
C1541 C 0.0473 0.4786 0.09393 0.0
H1542 H 0.0929 0.56909 0.16618 0.0
H1543 H 0.02987 0.47912 0.18471 0.0
H1544 H 0.07575 0.55318 0.10481 0.0
H1545 H 0.05544 0.57036 0.11533 0.0
H1546 H 0.09218 0.58458 0.12822 0.0
H1547 H 0.99034 0.4425 0.15824 0.0
H1548 H 0.97704 0.46013 0.13797 0.0
H1549 H 0.99844 0.44408 0.12789 0.0
H1550 H 0.96885 0.51567 0.07671 0.0
H1551 H 0.01646 0.47267 0.05293 0.0
H1552 H 0.0075 0.55027 0.12966 0.0
H1553 H 0.98213 0.51287 0.13809 0.0
H1554 H 0.97012 0.53058 0.11683 0.0
H1555 H 0.06936 0.49966 0.09586 0.0
H1556 H 0.04622 0.46261 0.07901 0.0
H1557 H 0.04468 0.46706 0.11039 0.0
C1558 C 0.482 0.50692 0.17323 0.0
C1559 C 0.46935 0.52563 0.17498 0.0
C1560 C 0.49218 0.5024 0.15202 0.0
C1561 C 0.48897 0.51641 0.13203 0.0
C1562 C 0.47552 0.53485 0.13369 0.0
C1563 C 0.46614 0.53946 0.15528 0.0
C1564 C 0.50748 0.48378 0.15131 0.0
C1565 C 0.47198 0.55103 0.11325 0.0
C1566 C 0.53782 0.53462 0.08229 0.0
C1567 C 0.52065 0.50916 0.06555 0.0
C1568 C 0.52824 0.5366 0.10441 0.0
C1569 C 0.50062 0.51278 0.10969 0.0
C1570 C 0.48372 0.48638 0.09312 0.0
C1571 C 0.49429 0.48466 0.07141 0.0
C1572 C 0.54735 0.56466 0.12181 0.0
C1573 C 0.4543 0.46003 0.09788 0.0
H1574 H 0.48487 0.49677 0.18874 0.0
H1575 H 0.45673 0.55434 0.15689 0.0
H1576 H 0.49474 0.46256 0.13881 0.0
H1577 H 0.52929 0.49761 0.14488 0.0
H1578 H 0.51033 0.47664 0.1689 0.0
H1579 H 0.45081 0.55051 0.11293 0.0
H1580 H 0.48948 0.57584 0.11568 0.0
H1581 H 0.47322 0.54077 0.09589 0.0
H1582 H 0.55838 0.55349 0.07787 0.0
H1583 H 0.48133 0.46461 0.05862 0.0
H1584 H 0.5484 0.55751 0.13974 0.0
H1585 H 0.53789 0.58007 0.12275 0.0
H1586 H 0.56991 0.57829 0.11666 0.0
H1587 H 0.44014 0.44798 0.08118 0.0
H1588 H 0.44268 0.46806 0.10933 0.0
H1589 H 0.45743 0.44265 0.10689 0.0
C1590 C 0.92978 0.46689 0.83888 0.0
C1591 C 0.94631 0.48337 0.82109 0.0
C1592 C 0.94245 0.47244 0.86216 0.0
C1593 C 0.97253 0.49446 0.86752 0.0
C1594 C 0.98913 0.51171 0.84962 0.0
C1595 C 0.97568 0.50613 0.82655 0.0
C1596 C 0.9239 0.45392 0.88081 0.0
C1597 C 0.02134 0.53492 0.85459 0.0
C1598 C 0.00083 0.51997 0.9323 0.0
C1599 C 0.00935 0.4984 0.93754 0.0
C1600 C 0.98906 0.51934 0.90945 0.0
C1601 C 0.98691 0.49736 0.89137 0.0
C1602 C 0.99704 0.4767 0.89638 0.0
C1603 C 0.00794 0.47732 0.91946 0.0
C1604 C 0.97839 0.54168 0.90481 0.0
C1605 C 0.99558 0.45326 0.8775 0.0
H1606 H 0.90698 0.44938 0.83447 0.0
H1607 H 0.98831 0.51869 0.81259 0.0
H1608 H 0.93029 0.43682 0.88583 0.0
H1609 H 0.92749 0.46941 0.89694 0.0
H1610 H 0.90025 0.4411 0.87457 0.0
H1611 H 0.03072 0.54768 0.83908 0.0
H1612 H 0.02528 0.55202 0.8697 0.0
H1613 H 0.03317 0.52267 0.85956 0.0
H1614 H 0.00266 0.53682 0.9462 0.0
H1615 H 0.0148 0.46081 0.92345 0.0
H1616 H 0.95613 0.52915 0.89534 0.0
H1617 H 0.99294 0.55901 0.89334 0.0
H1618 H 0.97798 0.55429 0.92137 0.0
H1619 H 0.97244 0.43583 0.87167 0.0
H1620 H 0.00671 0.44081 0.88382 0.0
H1621 H 0.00575 0.46495 0.86184 0.0
C1622 C 0.55694 0.48047 0.8544 0.0
C1623 C 0.54199 0.48027 0.83331 0.0
C1624 C 0.5491 0.48674 0.8763 0.0
C1625 C 0.52634 0.49375 0.8769 0.0
C1626 C 0.51228 0.49512 0.85553 0.0
C1627 C 0.52001 0.48792 0.83397 0.0
C1628 C 0.56425 0.48454 0.89872 0.0
C1629 C 0.4885 0.50334 0.85545 0.0
C1630 C 0.48094 0.47473 0.92889 0.0
C1631 C 0.49388 0.50364 0.9423 0.0
C1632 C 0.49182 0.47109 0.90787 0.0
C1633 C 0.5156 0.49726 0.89971 0.0
C1634 C 0.5284 0.52668 0.91301 0.0
C1635 C 0.51746 0.52945 0.93431 0.0
C1636 C 0.47796 0.43917 0.89449 0.0
C1637 C 0.55341 0.5552 0.90468 0.0
H1638 H 0.5739 0.47446 0.85374 0.0
H1639 H 0.50868 0.48793 0.81754 0.0
H1640 H 0.57484 0.50704 0.90991 0.0
H1641 H 0.54799 0.46679 0.90905 0.0
H1642 H 0.58111 0.47827 0.89517 0.0
H1643 H 0.48196 0.50657 0.83746 0.0
H1644 H 0.46899 0.48458 0.86242 0.0
H1645 H 0.49586 0.52502 0.86716 0.0
H1646 H 0.46292 0.45468 0.93527 0.0
H1647 H 0.52728 0.55182 0.94472 0.0
H1648 H 0.49496 0.4336 0.88986 0.0
H1649 H 0.46604 0.43873 0.87773 0.0
H1650 H 0.46236 0.4207 0.90476 0.0
H1651 H 0.57207 0.55148 0.90234 0.0
H1652 H 0.56106 0.57628 0.91722 0.0
H1653 H 0.54656 0.55951 0.88723 0.0
C1654 C 0.55799 0.07503 0.85926 0.0
C1655 C 0.54325 0.05962 0.83721 0.0
C1656 C 0.54865 0.06062 0.88002 0.0
C1657 C 0.52445 0.02992 0.87844 0.0
C1658 C 0.51062 0.01377 0.85603 0.0
C1659 C 0.51995 0.02901 0.83568 0.0
C1660 C 0.5637 0.07874 0.90361 0.0
C1661 C 0.4853 0.98077 0.85357 0.0
C1662 C 0.51016 0.9843 0.93204 0.0
C1663 C 0.48701 0.98668 0.94038 0.0
C1664 C 0.52265 0.99823 0.91182 0.0
C1665 C 0.51205 0.01546 0.90013 0.0
C1666 C 0.48875 0.01803 0.9087 0.0
C1667 C 0.47605 0.00296 0.9284 0.0
C1668 C 0.54695 0.99431 0.90288 0.0
C1669 C 0.47752 0.03716 0.89732 0.0
H1670 H 0.57595 0.0988 0.86031 0.0
H1671 H 0.50874 0.01719 0.81851 0.0
H1672 H 0.54825 0.08281 0.91342 0.0
H1673 H 0.57044 0.06527 0.91447 0.0
H1674 H 0.58327 0.10158 0.90176 0.0
H1675 H 0.47906 0.97044 0.8349 0.0
H1676 H 0.49083 0.96598 0.86399 0.0
H1677 H 0.46607 0.98028 0.86067 0.0
H1678 H 0.51844 0.97151 0.94134 0.0
H1679 H 0.45825 0.00494 0.935 0.0
H1680 H 0.56651 0.01734 0.90168 0.0
H1681 H 0.53999 0.98198 0.88482 0.0
H1682 H 0.55324 0.98098 0.91441 0.0
H1683 H 0.49578 0.0612 0.89649 0.0
H1684 H 0.46053 0.03835 0.90709 0.0
H1685 H 0.46811 0.02706 0.87894 0.0
C1686 C 0.14456 0.30546 0.50037 0.0
C1687 C 0.12357 0.2738 0.49796 0.0
C1688 C 0.15356 0.32187 0.48049 0.0
C1689 C 0.14167 0.30599 0.45769 0.0
C1690 C 0.11959 0.27416 0.45522 0.0
C1691 C 0.11066 0.25841 0.47551 0.0
C1692 C 0.17667 0.3559 0.48389 0.0
C1693 C 0.10657 0.25636 0.4312 0.0
C1694 C 0.15486 0.353 0.40492 0.0
C1695 C 0.17947 0.35323 0.39714 0.0
C1696 C 0.14221 0.33775 0.42467 0.0
C1697 C 0.15433 0.32204 0.43658 0.0
C1698 C 0.17936 0.32244 0.42879 0.0
C1699 C 0.19199 0.33861 0.40947 0.0
C1700 C 0.11591 0.33836 0.43274 0.0
C1701 C 0.19244 0.30519 0.4405 0.0
H1702 H 0.15439 0.31718 0.51785 0.0
H1703 H 0.09448 0.23384 0.47382 0.0
H1704 H 0.19722 0.35903 0.47749 0.0
H1705 H 0.16977 0.36958 0.47338 0.0
H1706 H 0.1813 0.36554 0.5027 0.0
H1707 H 0.08768 0.23274 0.43233 0.0
H1708 H 0.09929 0.26913 0.41999 0.0
H1709 H 0.12344 0.25398 0.42219 0.0
H1710 H 0.14544 0.36465 0.39546 0.0
H1711 H 0.21095 0.33862 0.40337 0.0
H1712 H 0.12105 0.34966 0.45109 0.0
H1713 H 0.09741 0.31431 0.43291 0.0
H1714 H 0.1088 0.35108 0.42126 0.0
H1715 H 0.20035 0.31496 0.45916 0.0
H1716 H 0.21094 0.30646 0.43146 0.0
H1717 H 0.17552 0.28037 0.44056 0.0
C1718 C 0.69373 0.8423 0.5089 0.0
C1719 C 0.72208 0.84752 0.51315 0.0
C1720 C 0.68101 0.83808 0.48577 0.0
C1721 C 0.69742 0.84002 0.46655 0.0
C1722 C 0.72589 0.84453 0.47079 0.0
C1723 C 0.73779 0.8479 0.49414 0.0
C1724 C 0.65033 0.83249 0.48193 0.0
C1725 C 0.74428 0.84734 0.4508 0.0
C1726 C 0.65775 0.81131 0.40482 0.0
C1727 C 0.66073 0.83875 0.39704 0.0
C1728 C 0.66964 0.81128 0.42743 0.0
C1729 C 0.68548 0.83957 0.44224 0.0
C1730 C 0.68907 0.86748 0.43414 0.0
C1731 C 0.67616 0.86662 0.41177 0.0
C1732 C 0.66504 0.78101 0.43554 0.0
C1733 C 0.70664 0.89831 0.44904 0.0
H1734 H 0.68171 0.84199 0.52373 0.0
H1735 H 0.75985 0.85221 0.49761 0.0
H1736 H 0.65081 0.85286 0.47464 0.0
H1737 H 0.63688 0.81198 0.46888 0.0
H1738 H 0.63957 0.82858 0.49854 0.0
H1739 H 0.76547 0.84948 0.45702 0.0
H1740 H 0.73241 0.82682 0.43752 0.0
H1741 H 0.74871 0.86812 0.4417 0.0
H1742 H 0.64585 0.78982 0.39327 0.0
H1743 H 0.67888 0.88794 0.40552 0.0
H1744 H 0.65432 0.77662 0.45216 0.0
H1745 H 0.68637 0.78238 0.43935 0.0
H1746 H 0.65141 0.76093 0.42214 0.0
H1747 H 0.69548 0.89821 0.46493 0.0
H1748 H 0.70967 0.91817 0.43926 0.0
H1749 H 0.72846 0.90209 0.45522 0.0
C1750 C 0.11692 0.86256 0.48665 0.0
C1751 C 0.13369 0.86357 0.50686 0.0
C1752 C 0.12454 0.85855 0.46407 0.0
C1753 C 0.14913 0.85491 0.46184 0.0
C1754 C 0.16554 0.85496 0.4823 0.0
C1755 C 0.15778 0.85964 0.5046 0.0
C1756 C 0.10696 0.85944 0.44273 0.0
C1757 C 0.19162 0.85069 0.48064 0.0
C1758 C 0.15644 0.81991 0.40346 0.0
C1759 C 0.17728 0.84643 0.39401 0.0
C1760 C 0.14692 0.8223 0.42553 0.0
C1761 C 0.15835 0.85197 0.43818 0.0
C1762 C 0.17922 0.87886 0.42848 0.0
C1763 C 0.18868 0.8757 0.40658 0.0
C1764 C 0.12505 0.79308 0.43548 0.0
C1765 C 0.19138 0.91096 0.44112 0.0
H1766 H 0.09846 0.86593 0.48854 0.0
H1767 H 0.17061 0.86036 0.52036 0.0
H1768 H 0.11949 0.88217 0.4355 0.0
H1769 H 0.1029 0.8411 0.42865 0.0
H1770 H 0.08569 0.85653 0.44712 0.0
H1771 H 0.20111 0.84974 0.49822 0.0
H1772 H 0.18528 0.82892 0.46942 0.0
H1773 H 0.20876 0.8702 0.47216 0.0
H1774 H 0.1478 0.79729 0.39366 0.0
H1775 H 0.20455 0.89624 0.39903 0.0
H1776 H 0.10721 0.7959 0.44216 0.0
H1777 H 0.13598 0.78862 0.45066 0.0
H1778 H 0.11536 0.77245 0.42219 0.0
H1779 H 0.17342 0.91591 0.44332 0.0
H1780 H 0.208 0.92933 0.43141 0.0
H1781 H 0.20148 0.91227 0.45903 0.0
C1782 C 0.59605 0.81233 0.17897 0.0
C1783 C 0.61232 0.82308 0.15973 0.0
C1784 C 0.60993 0.81712 0.20171 0.0
C1785 C 0.64084 0.83282 0.20513 0.0
C1786 C 0.65735 0.84438 0.18571 0.0
C1787 C 0.64282 0.83935 0.16314 0.0
C1788 C 0.59124 0.80364 0.22164 0.0
C1789 C 0.69026 0.86076 0.1886 0.0
C1790 C 0.67613 0.86216 0.26809 0.0
C1791 C 0.6787 0.83704 0.27486 0.0
C1792 C 0.66424 0.86142 0.24527 0.0
C1793 C 0.65567 0.83534 0.22872 0.0
C1794 C 0.65959 0.81059 0.23521 0.0
C1795 C 0.67099 0.81171 0.25825 0.0
C1796 C 0.66011 0.88811 0.23912 0.0
C1797 C 0.65076 0.78238 0.21809 0.0
H1798 H 0.5724 0.79939 0.17608 0.0
H1799 H 0.6552 0.84728 0.14803 0.0
H1800 H 0.58729 0.77979 0.22301 0.0
H1801 H 0.60194 0.81742 0.23885 0.0
H1802 H 0.56969 0.80202 0.21828 0.0
H1803 H 0.69989 0.86961 0.17197 0.0
H1804 H 0.69915 0.88056 0.20254 0.0
H1805 H 0.69737 0.84447 0.19432 0.0
H1806 H 0.68259 0.882 0.28087 0.0
H1807 H 0.67305 0.79228 0.26345 0.0
H1808 H 0.63775 0.87933 0.23053 0.0
H1809 H 0.67566 0.90139 0.22636 0.0
H1810 H 0.66381 0.90426 0.2549 0.0
H1811 H 0.62663 0.76889 0.21451 0.0
H1812 H 0.65818 0.76686 0.22503 0.0
H1813 H 0.65988 0.78955 0.20103 0.0
C1814 C 0.16259 0.81543 0.15689 0.0
C1815 C 0.18957 0.81737 0.15446 0.0
C1816 C 0.15514 0.82118 0.17912 0.0
C1817 C 0.17492 0.82847 0.19938 0.0
C1818 C 0.2027 0.83195 0.19679 0.0
C1819 C 0.2097 0.82637 0.17437 0.0
C1820 C 0.12577 0.81853 0.18101 0.0
C1821 C 0.22439 0.83926 0.21777 0.0
C1822 C 0.16547 0.85973 0.2587 0.0
C1823 C 0.1497 0.83228 0.26935 0.0
C1824 C 0.17301 0.85883 0.23556 0.0
C1825 C 0.16574 0.8299 0.22339 0.0
C1826 C 0.15046 0.8022 0.23448 0.0
C1827 C 0.14202 0.80368 0.25715 0.0
C1828 C 0.18889 0.88875 0.2242 0.0
C1829 C 0.1436 0.77108 0.22265 0.0
H1830 H 0.14714 0.80892 0.14143 0.0
H1831 H 0.23046 0.82758 0.17262 0.0
H1832 H 0.11172 0.79777 0.19006 0.0
H1833 H 0.12834 0.83917 0.19179 0.0
H1834 H 0.11442 0.81638 0.16344 0.0
H1835 H 0.24694 0.84987 0.21252 0.0
H1836 H 0.22382 0.85529 0.23175 0.0
H1837 H 0.21887 0.81723 0.22537 0.0
H1838 H 0.17134 0.88181 0.2683 0.0
H1839 H 0.13013 0.78252 0.26565 0.0
H1840 H 0.17717 0.8866 0.20682 0.0
H1841 H 0.21107 0.89349 0.22095 0.0
H1842 H 0.19099 0.90893 0.23535 0.0
H1843 H 0.12957 0.7655 0.20587 0.0
H1844 H 0.13231 0.75193 0.23399 0.0
H1845 H 0.16409 0.77202 0.21822 0.0
C1846 C 0.22435 0.40694 0.19058 0.0
C1847 C 0.21041 0.38983 0.16883 0.0
C1848 C 0.21577 0.39343 0.21176 0.0
C1849 C 0.19325 0.36193 0.2109 0.0
C1850 C 0.18039 0.34415 0.18883 0.0
C1851 C 0.18884 0.3585 0.16801 0.0
C1852 C 0.22983 0.41321 0.23497 0.0
C1853 C 0.15702 0.31027 0.18719 0.0
C1854 C 0.18161 0.32219 0.26739 0.0
C1855 C 0.15757 0.32362 0.27471 0.0
C1856 C 0.19342 0.3343 0.24648 0.0
C1857 C 0.18102 0.34849 0.23291 0.0
C1858 C 0.15651 0.34967 0.24021 0.0
C1859 C 0.14479 0.33673 0.26085 0.0
C1860 C 0.21896 0.33173 0.23884 0.0
C1861 C 0.14275 0.36483 0.2264 0.0
H1862 H 0.2411 0.4312 0.19101 0.0
H1863 H 0.17835 0.34537 0.15104 0.0
H1864 H 0.21289 0.41326 0.24547 0.0
H1865 H 0.24086 0.40333 0.24548 0.0
H1866 H 0.24618 0.43762 0.23252 0.0
H1867 H 0.15225 0.29877 0.16892 0.0
H1868 H 0.16374 0.2976 0.19905 0.0
H1869 H 0.13659 0.30816 0.193 0.0
H1870 H 0.19113 0.31157 0.27804 0.0
H1871 H 0.12624 0.33795 0.2666 0.0
H1872 H 0.23786 0.35517 0.23749 0.0
H1873 H 0.21309 0.31874 0.22106 0.0
H1874 H 0.22583 0.31973 0.25129 0.0
H1875 H 0.15974 0.38767 0.22149 0.0
H1876 H 0.12714 0.36835 0.23645 0.0
H1877 H 0.1308 0.34997 0.20979 0.0
C1878 C 0.79682 0.5952 0.81191 0.0
C1879 C 0.79633 0.61077 0.83291 0.0
C1880 C 0.80604 0.61087 0.79172 0.0
C1881 C 0.81583 0.64317 0.79291 0.0
C1882 C 0.81548 0.65897 0.81425 0.0
C1883 C 0.80518 0.64237 0.83391 0.0
C1884 C 0.80599 0.59255 0.76962 0.0
C1885 C 0.82688 0.69353 0.81662 0.0
C1886 C 0.86581 0.68108 0.7456 0.0
C1887 C 0.84757 0.68533 0.72946 0.0
C1888 C 0.85627 0.66906 0.76702 0.0
C1889 C 0.82758 0.66051 0.77214 0.0
C1890 C 0.80971 0.66657 0.75647 0.0
C1891 C 0.82024 0.6795 0.73547 0.0
C1892 C 0.87657 0.66442 0.7837 0.0
C1893 C 0.77931 0.65903 0.76132 0.0
H1894 H 0.79012 0.57073 0.81132 0.0
H1895 H 0.8051 0.65434 0.85038 0.0
H1896 H 0.80713 0.60415 0.75339 0.0
H1897 H 0.82502 0.58902 0.77151 0.0
H1898 H 0.78607 0.56912 0.76731 0.0
H1899 H 0.82985 0.70306 0.83532 0.0
H1900 H 0.84809 0.70609 0.80901 0.0
H1901 H 0.81123 0.69835 0.80675 0.0
H1902 H 0.8872 0.68606 0.74115 0.0
H1903 H 0.8065 0.68369 0.72322 0.0
H1904 H 0.87017 0.63949 0.7821 0.0
H1905 H 0.87517 0.67114 0.80228 0.0
H1906 H 0.89963 0.67814 0.77969 0.0
H1907 H 0.76886 0.63949 0.7724 0.0
H1908 H 0.76503 0.65321 0.74461 0.0
H1909 H 0.78052 0.67984 0.77066 0.0
C1910 C 0.41408 0.19604 0.82751 0.0
C1911 C 0.39796 0.1943 0.84651 0.0
C1912 C 0.40192 0.19214 0.8042 0.0
C1913 C 0.37287 0.186 0.79996 0.0
C1914 C 0.35633 0.18342 0.81922 0.0
C1915 C 0.36922 0.18793 0.84232 0.0
C1916 C 0.42072 0.19612 0.78432 0.0
C1917 C 0.32524 0.17661 0.81542 0.0
C1918 C 0.34891 0.20699 0.74338 0.0
C1919 C 0.33377 0.17808 0.72988 0.0
C1920 C 0.36232 0.21002 0.76603 0.0
C1921 C 0.35997 0.18334 0.77553 0.0
C1922 C 0.34467 0.15407 0.7619 0.0
C1923 C 0.33175 0.1518 0.73915 0.0
C1924 C 0.37918 0.24178 0.77971 0.0
C1925 C 0.34184 0.12517 0.77141 0.0
H1926 H 0.43648 0.20141 0.83095 0.0
H1927 H 0.35697 0.18675 0.85719 0.0
H1928 H 0.40787 0.17995 0.7685 0.0
H1929 H 0.43003 0.22015 0.77923 0.0
H1930 H 0.43911 0.19241 0.78967 0.0
H1931 H 0.31494 0.17382 0.83221 0.0
H1932 H 0.32473 0.19582 0.80695 0.0
H1933 H 0.31194 0.15504 0.80333 0.0
H1934 H 0.3508 0.2274 0.73602 0.0
H1935 H 0.31994 0.12946 0.72864 0.0
H1936 H 0.40222 0.248 0.78394 0.0
H1937 H 0.36992 0.24157 0.7967 0.0
H1938 H 0.37889 0.26014 0.76976 0.0
H1939 H 0.36365 0.12917 0.7779 0.0
H1940 H 0.33136 0.10475 0.75791 0.0
H1941 H 0.32858 0.11964 0.78665 0.0
C1942 C 0.79914 0.19723 0.82276 0.0
C1943 C 0.79775 0.17997 0.84158 0.0
C1944 C 0.80758 0.19137 0.80108 0.0
C1945 C 0.81559 0.16821 0.7985 0.0
C1946 C 0.81416 0.1507 0.81758 0.0
C1947 C 0.80478 0.15649 0.83883 0.0
C1948 C 0.80898 0.21114 0.78155 0.0
C1949 C 0.82368 0.12681 0.81593 0.0
C1950 C 0.81772 0.13814 0.73631 0.0
C1951 C 0.84601 0.16005 0.73172 0.0
C1952 C 0.80752 0.1399 0.7582 0.0
C1953 C 0.82663 0.16338 0.77619 0.0
C1954 C 0.85601 0.18388 0.7722 0.0
C1955 C 0.86525 0.18219 0.7499 0.0
C1956 C 0.77618 0.11693 0.76162 0.0
C1957 C 0.87746 0.20831 0.79123 0.0
H1958 H 0.79395 0.21562 0.8251 0.0
H1959 H 0.80407 0.14356 0.85366 0.0
H1960 H 0.83007 0.23342 0.78428 0.0
H1961 H 0.80733 0.19981 0.76377 0.0
H1962 H 0.79132 0.21691 0.78198 0.0
H1963 H 0.82439 0.11783 0.83317 0.0
H1964 H 0.80832 0.10692 0.80306 0.0
H1965 H 0.84564 0.13699 0.8095 0.0
H1966 H 0.80313 0.12035 0.72243 0.0
H1967 H 0.88734 0.19884 0.74651 0.0
H1968 H 0.76659 0.12737 0.77322 0.0
H1969 H 0.77524 0.09695 0.76994 0.0
H1970 H 0.76236 0.10762 0.74449 0.0
H1971 H 0.87246 0.22734 0.79356 0.0
H1972 H 0.90034 0.2185 0.78677 0.0
H1973 H 0.87565 0.1983 0.80836 0.0
C1974 C 0.29822 0.15405 0.49557 0.0
C1975 C 0.26973 0.14871 0.49252 0.0
C1976 C 0.31248 0.15931 0.51824 0.0
C1977 C 0.29747 0.15827 0.53823 0.0
C1978 C 0.26878 0.15341 0.53519 0.0
C1979 C 0.25535 0.14906 0.51226 0.0
C1980 C 0.34335 0.16527 0.52078 0.0
C1981 C 0.25186 0.1515 0.55607 0.0
C1982 C 0.32299 0.13537 0.59295 0.0
C1983 C 0.3389 0.16394 0.60678 0.0
C1984 C 0.30865 0.13309 0.5709 0.0
C1985 C 0.3112 0.16028 0.56218 0.0
C1986 C 0.32759 0.1893 0.57601 0.0
C1987 C 0.34103 0.19071 0.59832 0.0
C1988 C 0.29073 0.10156 0.55699 0.0
C1989 C 0.33115 0.21883 0.56718 0.0
H1990 H 0.30924 0.15388 0.48017 0.0
H1991 H 0.2332 0.14475 0.50972 0.0
H1992 H 0.35748 0.1865 0.53301 0.0
H1993 H 0.34373 0.14556 0.5285 0.0
H1994 H 0.35281 0.16818 0.5036 0.0
H1995 H 0.22979 0.14763 0.55065 0.0
H1996 H 0.24945 0.13216 0.56622 0.0
H1997 H 0.26389 0.17321 0.56817 0.0
H1998 H 0.32106 0.1146 0.59967 0.0
H1999 H 0.35345 0.21279 0.6091 0.0
H2000 H 0.30137 0.10075 0.541 0.0
H2001 H 0.26872 0.0974 0.551 0.0
H2002 H 0.28818 0.08239 0.56744 0.0
H2003 H 0.34063 0.22229 0.55001 0.0
H2004 H 0.34541 0.23963 0.5798 0.0
H2005 H 0.30954 0.21705 0.56415 0.0
C2006 C 0.86897 0.13298 0.51495 0.0
C2007 C 0.86978 0.15039 0.49639 0.0
C2008 C 0.86108 0.13862 0.53694 0.0
C2009 C 0.85303 0.16167 0.54009 0.0
C2010 C 0.85396 0.1794 0.52131 0.0
C2011 C 0.86277 0.17382 0.49971 0.0
C2012 C 0.86024 0.11878 0.55625 0.0
C2013 C 0.84442 0.20324 0.52366 0.0
C2014 C 0.80417 0.14706 0.5893 0.0
C2015 C 0.82383 0.16854 0.60762 0.0
C2016 C 0.81304 0.14581 0.56678 0.0
C2017 C 0.84242 0.1661 0.56272 0.0
C2018 C 0.86199 0.18888 0.5809 0.0
C2019 C 0.85219 0.19022 0.60304 0.0
C2020 C 0.79121 0.12201 0.54761 0.0
C2021 C 0.89342 0.21138 0.57735 0.0
H2022 H 0.87423 0.1147 0.51217 0.0
H2023 H 0.8631 0.18691 0.48508 0.0
H2024 H 0.86418 0.13098 0.57412 0.0
H2025 H 0.8384 0.09746 0.55473 0.0
H2026 H 0.87664 0.11134 0.55451 0.0
H2027 H 0.8448 0.21369 0.50692 0.0
H2028 H 0.82196 0.19234 0.52916 0.0
H2029 H 0.85895 0.22213 0.53755 0.0
H2030 H 0.78205 0.13059 0.59273 0.0
H2031 H 0.86711 0.20749 0.61707 0.0
H2032 H 0.79612 0.10302 0.5444 0.0
H2033 H 0.79269 0.13268 0.53082 0.0
H2034 H 0.76845 0.11163 0.55242 0.0
H2035 H 0.89457 0.23083 0.56809 0.0
H2036 H 0.9028 0.20008 0.56639 0.0
H2037 H 0.90724 0.22145 0.59443 0.0
C2038 C 0.89168 0.7447 0.52714 0.0
C2039 C 0.8779 0.72929 0.5049 0.0
C2040 C 0.88301 0.72928 0.54755 0.0
C2041 C 0.86031 0.69774 0.54539 0.0
C2042 C 0.84737 0.68181 0.52276 0.0
C2043 C 0.85616 0.69793 0.50275 0.0
C2044 C 0.89712 0.74713 0.57139 0.0
C2045 C 0.82354 0.64805 0.51973 0.0
C2046 C 0.84908 0.65092 0.59793 0.0
C2047 C 0.82518 0.65128 0.60669 0.0
C2048 C 0.8608 0.66588 0.57787 0.0
C2049 C 0.84852 0.68196 0.56674 0.0
C2050 C 0.82433 0.68234 0.57564 0.0
C2051 C 0.81258 0.66643 0.59526 0.0
C2052 C 0.88623 0.66451 0.56859 0.0
C2053 C 0.81123 0.70009 0.56478 0.0
H2054 H 0.90843 0.76907 0.52859 0.0
H2055 H 0.84566 0.68623 0.48539 0.0
H2056 H 0.88132 0.75143 0.58043 0.0
H2057 H 0.90307 0.73343 0.58269 0.0
H2058 H 0.91702 0.76987 0.56995 0.0
H2059 H 0.81776 0.63836 0.5009 0.0
H2060 H 0.83043 0.63393 0.52966 0.0
H2061 H 0.80367 0.64564 0.52702 0.0
H2062 H 0.85867 0.63906 0.60686 0.0
H2063 H 0.79426 0.66697 0.60227 0.0
H2064 H 0.90459 0.68832 0.56723 0.0
H2065 H 0.87962 0.65214 0.55055 0.0
H2066 H 0.89416 0.65238 0.57997 0.0
H2067 H 0.82832 0.72483 0.56459 0.0
H2068 H 0.7933 0.69912 0.57452 0.0
H2069 H 0.80252 0.69049 0.5462 0.0
loop_
_geom_bond_atom_site_label_1
_geom_bond_atom_site_label_2
_geom_bond_distance
_geom_bond_site_symmetry_2
_ccdc_geom_bond_type
H0 C3 0.931 . S
H1 C6 0.928 . S
H2 C8 0.930 . S
C3 H0 0.931 . S
C3 C4 1.413 . S
C3 C5 1.360 . S
C4 C3 1.413 . S
C4 C8 1.429 . S
C5 C3 1.360 . S
C5 C6 1.372 . S
C6 H1 0.928 . S
C6 C5 1.372 . S
C6 C7 1.404 . S
C7 C6 1.404 . S
C7 C8 1.391 . S
C8 H2 0.930 . S
C8 C4 1.429 . S
C8 C7 1.391 . S
H9 C12 0.931 . S
H10 C15 0.928 . S
H11 C17 0.930 . S
C12 H9 0.931 . S
C12 C13 1.413 . S
C12 C14 1.360 . S
C13 C12 1.413 . S
C13 C17 1.429 . S
C14 C12 1.360 . S
C14 C15 1.372 . S
C15 H10 0.928 . S
C15 C14 1.372 . S
C15 C16 1.404 . S
C16 C15 1.404 . S
C16 C17 1.391 . S
C17 H11 0.930 . S
C17 C13 1.429 . S
C17 C16 1.391 . S
H18 C21 0.931 . S
H19 C24 0.928 . S
H20 C26 0.930 . S
C21 H18 0.931 . S
C21 C22 1.413 . S
C21 C23 1.360 . S
C22 C21 1.413 . S
C22 C26 1.429 . S
C23 C21 1.360 . S
C23 C24 1.372 . S
C24 H19 0.928 . S
C24 C23 1.372 . S
C24 C25 1.404 . S
C25 C24 1.404 . S
C25 C26 1.391 . S
C26 H20 0.930 . S
C26 C22 1.429 . S
C26 C25 1.391 . S
H27 C30 0.931 . S
H28 C33 0.928 . S
H29 C35 0.930 . S
C30 H27 0.931 . S
C30 C31 1.413 . S
C30 C32 1.360 . S
C31 C30 1.413 . S
C31 C35 1.429 . S
C32 C30 1.360 . S
C32 C33 1.372 . S
C33 H28 0.928 . S
C33 C32 1.372 . S
C33 C34 1.404 . S
C34 C33 1.404 . S
C34 C35 1.391 . S
C35 H29 0.930 . S
C35 C31 1.429 . S
C35 C34 1.391 . S
H36 C39 0.931 . S
H37 C42 0.928 . S
H38 C44 0.930 . S
C39 H36 0.931 . S
C39 C40 1.413 . S
C39 C41 1.360 . S
C40 C39 1.413 . S
C40 C44 1.429 . S
C41 C39 1.360 . S
C41 C42 1.372 . S
C42 H37 0.928 . S
C42 C41 1.372 . S
C42 C43 1.404 . S
C43 C42 1.404 . S
C43 C44 1.391 . S
C44 H38 0.930 . S
C44 C40 1.429 . S
C44 C43 1.391 . S
H45 C48 0.931 . S
H46 C51 0.928 . S
H47 C53 0.930 . S
C48 H45 0.931 . S
C48 C49 1.413 . S
C48 C50 1.360 . S
C49 C48 1.413 . S
C49 C53 1.429 . S
C50 C48 1.360 . S
C50 C51 1.372 . S
C51 H46 0.928 . S
C51 C50 1.372 . S
C51 C52 1.404 . S
C52 C51 1.404 . S
C52 C53 1.391 . S
C53 H47 0.930 . S
C53 C49 1.429 . S
C53 C52 1.391 . S
H54 C57 0.931 . S
H55 C60 0.928 . S
H56 C62 0.930 . S
C57 H54 0.931 . S
C57 C58 1.413 . S
C57 C59 1.360 . S
C58 C57 1.413 . S
C58 C62 1.429 . S
C59 C57 1.360 . S
C59 C60 1.372 . S
C60 H55 0.928 . S
C60 C59 1.372 . S
C60 C61 1.404 . S
C61 C60 1.404 . S
C61 C62 1.391 . S
C62 H56 0.930 . S
C62 C58 1.429 . S
C62 C61 1.391 . S
H63 C66 0.931 . S
H64 C69 0.928 . S
H65 C71 0.930 . S
C66 H63 0.931 . S
C66 C67 1.413 . S
C66 C68 1.360 . S
C67 C66 1.413 . S
C67 C71 1.429 . S
C68 C66 1.360 . S
C68 C69 1.372 . S
C69 H64 0.928 . S
C69 C68 1.372 . S
C69 C70 1.404 . S
C70 C69 1.404 . S
C70 C71 1.391 . S
C71 H65 0.930 . S
C71 C67 1.429 . S
C71 C70 1.391 . S
H72 C75 0.931 . S
H73 C78 0.928 . S
H74 C80 0.930 . S
C75 H72 0.931 . S
C75 C76 1.413 . S
C75 C77 1.360 . S
C76 C75 1.413 . S
C76 C80 1.429 . S
C77 C75 1.360 . S
C77 C78 1.372 . S
C78 H73 0.928 . S
C78 C77 1.372 . S
C78 C79 1.404 . S
C79 C78 1.404 . S
C79 C80 1.391 . S
C80 H74 0.930 . S
C80 C76 1.429 . S
C80 C79 1.391 . S
H81 C84 0.931 . S
H82 C87 0.928 . S
H83 C89 0.930 . S
C84 H81 0.931 . S
C84 C85 1.413 . S
C84 C86 1.360 . S
C85 C84 1.413 . S
C85 C89 1.429 . S
C86 C84 1.360 . S
C86 C87 1.372 . S
C87 H82 0.928 . S
C87 C86 1.372 . S
C87 C88 1.404 . S
C88 C87 1.404 . S
C88 C89 1.391 . S
C89 H83 0.930 . S
C89 C85 1.429 . S
C89 C88 1.391 . S
H90 C93 0.931 . S
H91 C96 0.928 . S
H92 C98 0.930 . S
C93 H90 0.931 . S
C93 C94 1.413 . S
C93 C95 1.360 . S
C94 C93 1.413 . S
C94 C98 1.429 . S
C95 C93 1.360 . S
C95 C96 1.372 . S
C96 H91 0.928 . S
C96 C95 1.372 . S
C96 C97 1.404 . S
C97 C96 1.404 . S
C97 C98 1.391 . S
C98 H92 0.930 . S
C98 C94 1.429 . S
C98 C97 1.391 . S
H99 C102 0.931 . S
H100 C105 0.928 . S
H101 C107 0.930 . S
C102 H99 0.931 . S
C102 C103 1.413 . S
C102 C104 1.360 . S
C103 C102 1.413 . S
C103 C107 1.429 . S
C104 C102 1.360 . S
C104 C105 1.372 . S
C105 H100 0.928 . S
C105 C104 1.372 . S
C105 C106 1.404 . S
C106 C105 1.404 . S
C106 C107 1.391 . S
C107 H101 0.930 . S
C107 C103 1.429 . S
C107 C106 1.391 . S
H108 C111 0.931 . S
H109 C114 0.928 . S
H110 C116 0.930 . S
C111 H108 0.931 . S
C111 C112 1.413 . S
C111 C113 1.360 . S
C112 C111 1.413 . S
C112 C116 1.429 . S
C113 C111 1.360 . S
C113 C114 1.372 . S
C114 H109 0.928 . S
C114 C113 1.372 . S
C114 C115 1.404 . S
C115 C114 1.404 . S
C115 C116 1.391 . S
C116 H110 0.930 . S
C116 C112 1.429 . S
C116 C115 1.391 . S
H117 C120 0.931 . S
H118 C123 0.928 . S
H119 C125 0.930 . S
C120 H117 0.931 . S
C120 C121 1.413 . S
C120 C122 1.360 . S
C121 C120 1.413 . S
C121 C125 1.429 . S
C122 C120 1.360 . S
C122 C123 1.372 . S
C123 H118 0.928 . S
C123 C122 1.372 . S
C123 C124 1.404 . S
C124 C123 1.404 . S
C124 C125 1.391 . S
C125 H119 0.930 . S
C125 C121 1.429 . S
C125 C124 1.391 . S
H126 C129 0.931 . S
H127 C132 0.928 . S
H128 C134 0.930 . S
C129 H126 0.931 . S
C129 C130 1.413 . S
C129 C131 1.360 . S
C130 C129 1.413 . S
C130 C134 1.429 . S
C131 C129 1.360 . S
C131 C132 1.372 . S
C132 H127 0.928 . S
C132 C131 1.372 . S
C132 C133 1.404 . S
C133 C132 1.404 . S
C133 C134 1.391 . S
C134 H128 0.930 . S
C134 C130 1.429 . S
C134 C133 1.391 . S
H135 C138 0.931 . S
H136 C141 0.928 . S
H137 C143 0.930 . S
C138 H135 0.931 . S
C138 C139 1.413 . S
C138 C140 1.360 . S
C139 C138 1.413 . S
C139 C143 1.429 . S
C140 C138 1.360 . S
C140 C141 1.372 . S
C141 H136 0.928 . S
C141 C140 1.372 . S
C141 C142 1.404 . S
C142 C141 1.404 . S
C142 C143 1.391 . S
C143 H137 0.930 . S
C143 C139 1.429 . S
C143 C142 1.391 . S
H144 C147 0.931 . S
H145 C150 0.928 . S
H146 C152 0.930 . S
C147 H144 0.931 . S
C147 C148 1.413 . S
C147 C149 1.360 . S
C148 C147 1.413 . S
C148 C152 1.429 . S
C149 C147 1.360 . S
C149 C150 1.372 . S
C150 H145 0.928 . S
C150 C149 1.372 . S
C150 C151 1.404 . S
C151 C150 1.404 . S
C151 C152 1.391 . S
C152 H146 0.930 . S
C152 C148 1.429 . S
C152 C151 1.391 . S
H153 C156 0.931 . S
H154 C159 0.928 . S
H155 C161 0.930 . S
C156 H153 0.931 . S
C156 C157 1.413 . S
C156 C158 1.360 . S
C157 C156 1.413 . S
C157 C161 1.429 . S
C158 C156 1.360 . S
C158 C159 1.372 . S
C159 H154 0.928 . S
C159 C158 1.372 . S
C159 C160 1.404 . S
C160 C159 1.404 . S
C160 C161 1.391 . S
C161 H155 0.930 . S
C161 C157 1.429 . S
C161 C160 1.391 . S
Tb162 O165 2.453 . S
Tb162 O166 2.596 1_545 S
Tb162 O167 2.374 1_545 S
Tb162 O175 2.343 1_554 S
Tb162 O177 2.353 . S
Tb162 O179 2.427 1_554 S
Tb162 O180 2.513 1_554 S
C163 O167 1.251 . S
C163 O169 1.263 1_554 S
Tb164 O166 2.343 1_556 S
Tb164 O169 2.353 . S
Tb164 O172 2.427 1_556 S
Tb164 O173 2.513 1_556 S
Tb164 O174 2.453 . S
Tb164 O175 2.596 1_565 S
Tb164 O176 2.374 1_565 S
O165 Tb162 2.453 . S
O165 C181 1.245 . S
O166 Tb162 2.596 1_565 S
O166 Tb164 2.343 1_554 S
O166 C181 1.259 1_565 S
O167 Tb162 2.374 1_565 S
O167 C163 1.251 . S
C168 O172 1.275 . S
C168 O173 1.246 . S
O169 C163 1.263 1_556 S
O169 Tb164 2.353 . S
C170 O174 1.245 . S
C170 O175 1.259 1_565 S
C171 O176 1.250 . S
C171 O177 1.263 1_556 S
O172 Tb164 2.427 1_554 S
O172 C168 1.275 . S
O173 Tb164 2.513 1_554 S
O173 C168 1.246 . S
O174 Tb164 2.453 . S
O174 C170 1.245 . S
O175 Tb162 2.343 1_556 S
O175 Tb164 2.596 1_545 S
O175 C170 1.259 1_545 S
O176 Tb164 2.374 1_545 S
O176 C171 1.250 . S
O177 Tb162 2.353 . S
O177 C171 1.263 1_554 S
C178 O179 1.275 . S
C178 O180 1.246 . S
O179 Tb162 2.427 1_556 S
O179 C178 1.275 . S
O180 Tb162 2.513 1_556 S
O180 C178 1.246 . S
C181 O165 1.245 . S
C181 O166 1.259 1_545 S
Tb182 O185 2.453 . S
Tb182 O186 2.596 1_655 S
Tb182 O187 2.374 1_655 S
Tb182 O195 2.343 1_554 S
Tb182 O197 2.356 . S
Tb182 O199 2.427 1_554 S
Tb182 O200 2.513 1_554 S
C183 O187 1.251 . S
C183 O189 1.263 . S
Tb184 O186 2.343 1_556 S
Tb184 O189 2.353 1_556 S
Tb184 O192 2.427 1_556 S
Tb184 O193 2.513 1_556 S
Tb184 O194 2.453 . S
Tb184 O195 2.596 1_455 S
Tb184 O196 2.374 1_455 S
O185 Tb182 2.453 . S
O185 C201 1.245 1_655 S
O186 Tb182 2.596 1_455 S
O186 Tb184 2.343 1_554 S
O186 C201 1.259 . S
O187 Tb182 2.374 1_455 S
O187 C183 1.251 . S
C188 O192 1.275 . S
C188 O193 1.246 . S
O189 C183 1.263 . S
O189 Tb184 2.353 1_554 S
C190 O194 1.245 1_655 S
C190 O195 1.259 . S
C191 O196 1.250 . S
C191 O197 1.254 1_556 S
O192 Tb184 2.427 1_554 S
O192 C188 1.275 . S
O193 Tb184 2.513 1_554 S
O193 C188 1.246 . S
O194 Tb184 2.453 . S
O194 C190 1.245 1_455 S
O195 Tb182 2.343 1_556 S
O195 Tb184 2.596 1_655 S
O195 C190 1.259 . S
O196 Tb184 2.374 1_655 S
O196 C191 1.250 . S
O197 Tb182 2.356 . S
O197 C191 1.254 1_554 S
C198 O199 1.275 . S
C198 O200 1.246 . S
O199 Tb182 2.427 1_556 S
O199 C198 1.275 . S
O200 Tb182 2.513 1_556 S
O200 C198 1.246 . S
C201 O185 1.245 1_455 S
C201 O186 1.259 . S
Tb202 O205 2.453 . S
Tb202 O206 2.596 . S
Tb202 O207 2.374 . S
Tb202 O215 2.343 1_556 S
Tb202 O217 2.353 1_556 S
Tb202 O219 2.427 1_556 S
Tb202 O220 2.513 1_556 S
C203 O207 1.251 . S
C203 O209 1.263 1_556 S
Tb204 O206 2.343 1_554 S
Tb204 O209 2.353 . S
Tb204 O212 2.427 1_554 S
Tb204 O213 2.513 1_554 S
Tb204 O214 2.453 . S
Tb204 O215 2.596 . S
Tb204 O216 2.374 . S
O205 Tb202 2.453 . S
O205 C221 1.245 . S
O206 Tb202 2.596 . S
O206 Tb204 2.343 1_556 S
O206 C221 1.259 . S
O207 Tb202 2.374 . S
O207 C203 1.251 . S
C208 O212 1.275 . S
C208 O213 1.246 . S
O209 C203 1.263 1_554 S
O209 Tb204 2.353 . S
C210 O214 1.245 . S
C210 O215 1.259 . S
C211 O216 1.250 . S
C211 O217 1.263 . S
O212 Tb204 2.427 1_556 S
O212 C208 1.275 . S
O213 Tb204 2.513 1_556 S
O213 C208 1.246 . S
O214 Tb204 2.453 . S
O214 C210 1.245 . S
O215 Tb202 2.343 1_554 S
O215 Tb204 2.596 . S
O215 C210 1.259 . S
O216 Tb204 2.374 . S
O216 C211 1.250 . S
O217 Tb202 2.353 1_554 S
O217 C211 1.263 . S
C218 O219 1.275 . S
C218 O220 1.246 . S
O219 Tb202 2.427 1_554 S
O219 C218 1.275 . S
O220 Tb202 2.513 1_554 S
O220 C218 1.246 . S
C221 O205 1.245 . S
C221 O206 1.259 . S
Tb222 O225 2.453 . S
Tb222 O226 2.596 . S
Tb222 O227 2.374 . S
Tb222 O235 2.343 . S
Tb222 O237 2.353 . S
Tb222 O239 2.427 . S
Tb222 O240 2.513 . S
C223 O227 1.251 . S
C223 O229 1.263 . S
Tb224 O226 2.343 . S
Tb224 O229 2.353 . S
Tb224 O232 2.427 . S
Tb224 O233 2.513 . S
Tb224 O234 2.453 . S
Tb224 O235 2.596 . S
Tb224 O236 2.374 . S
O225 Tb222 2.453 . S
O225 C241 1.245 . S
O226 Tb222 2.596 . S
O226 Tb224 2.343 . S
O226 C241 1.259 . S
O227 Tb222 2.374 . S
O227 C223 1.251 . S
C228 O232 1.275 . S
C228 O233 1.246 . S
O229 C223 1.263 . S
O229 Tb224 2.353 . S
C230 O234 1.245 . S
C230 O235 1.259 . S
C231 O236 1.250 . S
C231 O237 1.263 . S
O232 Tb224 2.427 . S
O232 C228 1.275 . S
O233 Tb224 2.513 . S
O233 C228 1.246 . S
O234 Tb224 2.453 . S
O234 C230 1.245 . S
O235 Tb222 2.343 . S
O235 Tb224 2.596 . S
O235 C230 1.259 . S
O236 Tb224 2.374 . S
O236 C231 1.250 . S
O237 Tb222 2.353 . S
O237 C231 1.263 . S
C238 O239 1.275 . S
C238 O240 1.246 . S
O239 Tb222 2.427 . S
O239 C238 1.275 . S
O240 Tb222 2.513 . S
O240 C238 1.246 . S
C241 O225 1.245 . S
C241 O226 1.259 . S
Tb242 O245 2.453 . S
Tb242 O246 2.596 . S
Tb242 O247 2.374 . S
Tb242 O255 2.343 . S
Tb242 O257 2.353 . S
Tb242 O259 2.427 . S
Tb242 O260 2.513 . S
C243 O247 1.251 . S
C243 O249 1.263 . S
Tb244 O246 2.343 . S
Tb244 O249 2.353 . S
Tb244 O252 2.427 . S
Tb244 O253 2.513 . S
Tb244 O254 2.453 . S
Tb244 O255 2.596 . S
Tb244 O256 2.374 . S
O245 Tb242 2.453 . S
O245 C261 1.245 . S
O246 Tb242 2.596 . S
O246 Tb244 2.343 . S
O246 C261 1.259 . S
O247 Tb242 2.374 . S
O247 C243 1.251 . S
C248 O252 1.275 . S
C248 O253 1.246 . S
O249 C243 1.263 . S
O249 Tb244 2.353 . S
C250 O254 1.245 . S
C250 O255 1.259 . S
C251 O256 1.250 . S
C251 O257 1.263 . S
O252 Tb244 2.427 . S
O252 C248 1.275 . S
O253 Tb244 2.513 . S
O253 C248 1.246 . S
O254 Tb244 2.453 . S
O254 C250 1.245 . S
O255 Tb242 2.343 . S
O255 Tb244 2.596 . S
O255 C250 1.259 . S
O256 Tb244 2.374 . S
O256 C251 1.250 . S
O257 Tb242 2.353 . S
O257 C251 1.263 . S
C258 O259 1.275 . S
C258 O260 1.246 . S
O259 Tb242 2.427 . S
O259 C258 1.275 . S
O260 Tb242 2.513 . S
O260 C258 1.246 . S
C261 O245 1.245 . S
C261 O246 1.259 . S
Tb262 O265 2.453 . S
Tb262 O266 2.596 . S
Tb262 O267 2.374 . S
Tb262 O275 2.343 . S
Tb262 O277 2.353 . S
Tb262 O279 2.427 . S
Tb262 O280 2.513 . S
C263 O267 1.251 . S
C263 O269 1.263 . S
Tb264 O266 2.343 . S
Tb264 O269 2.353 . S
Tb264 O272 2.427 . S
Tb264 O273 2.513 . S
Tb264 O274 2.453 . S
Tb264 O275 2.596 . S
Tb264 O276 2.374 . S
O265 Tb262 2.453 . S
O265 C281 1.245 . S
O266 Tb262 2.596 . S
O266 Tb264 2.343 . S
O266 C281 1.259 . S
O267 Tb262 2.374 . S
O267 C263 1.251 . S
C268 O272 1.275 . S
C268 O273 1.246 . S
O269 C263 1.263 . S
O269 Tb264 2.353 . S
C270 O274 1.245 . S
C270 O275 1.259 . S
C271 O276 1.250 . S
C271 O277 1.263 . S
O272 Tb264 2.427 . S
O272 C268 1.275 . S
O273 Tb264 2.513 . S
O273 C268 1.246 . S
O274 Tb264 2.453 . S
O274 C270 1.245 . S
O275 Tb262 2.343 . S
O275 Tb264 2.596 . S
O275 C270 1.259 . S
O276 Tb264 2.374 . S
O276 C271 1.250 . S
O277 Tb262 2.353 . S
O277 C271 1.263 . S
C278 O279 1.275 . S
C278 O280 1.246 . S
O279 Tb262 2.427 . S
O279 C278 1.275 . S
O280 Tb262 2.513 . S
O280 C278 1.246 . S
C281 O265 1.245 . S
C281 O266 1.259 . S
Tb282 O285 2.453 . S
Tb282 O286 2.596 . S
Tb282 O287 2.374 . S
Tb282 O295 2.343 . S
Tb282 O297 2.353 . S
Tb282 O299 2.427 . S
Tb282 O300 2.513 . S
C283 O287 1.251 . S
C283 O289 1.263 . S
Tb284 O286 2.343 . S
Tb284 O289 2.353 . S
Tb284 O292 2.427 . S
Tb284 O293 2.513 . S
Tb284 O294 2.453 . S
Tb284 O295 2.596 . S
Tb284 O296 2.374 . S
O285 Tb282 2.453 . S
O285 C301 1.245 . S
O286 Tb282 2.596 . S
O286 Tb284 2.343 . S
O286 C301 1.259 . S
O287 Tb282 2.374 . S
O287 C283 1.251 . S
C288 O292 1.275 . S
C288 O293 1.246 . S
O289 C283 1.263 . S
O289 Tb284 2.353 . S
C290 O294 1.245 . S
C290 O295 1.259 . S
C291 O296 1.250 . S
C291 O297 1.263 . S
O292 Tb284 2.427 . S
O292 C288 1.275 . S
O293 Tb284 2.513 . S
O293 C288 1.246 . S
O294 Tb284 2.453 . S
O294 C290 1.245 . S
O295 Tb282 2.343 . S
O295 Tb284 2.596 . S
O295 C290 1.259 . S
O296 Tb284 2.374 . S
O296 C291 1.250 . S
O297 Tb282 2.353 . S
O297 C291 1.263 . S
C298 O299 1.275 . S
C298 O300 1.246 . S
O299 Tb282 2.427 . S
O299 C298 1.275 . S
O300 Tb282 2.513 . S
O300 C298 1.246 . S
C301 O285 1.245 . S
C301 O286 1.259 . S
Tb302 O305 2.453 . S
Tb302 O306 2.596 . S
Tb302 O307 2.374 . S
Tb302 O315 2.343 . S
Tb302 O317 2.353 . S
Tb302 O319 2.427 . S
Tb302 O320 2.513 . S
C303 O307 1.251 . S
C303 O309 1.263 . S
Tb304 O306 2.343 . S
Tb304 O309 2.353 . S
Tb304 O312 2.427 . S
Tb304 O313 2.513 . S
Tb304 O314 2.453 . S
Tb304 O315 2.596 . S
Tb304 O316 2.374 . S
O305 Tb302 2.453 . S
O305 C321 1.245 . S
O306 Tb302 2.596 . S
O306 Tb304 2.343 . S
O306 C321 1.259 . S
O307 Tb302 2.374 . S
O307 C303 1.251 . S
C308 O312 1.275 . S
C308 O313 1.246 . S
O309 C303 1.263 . S
O309 Tb304 2.353 . S
C310 O314 1.245 . S
C310 O315 1.259 . S
C311 O316 1.250 . S
C311 O317 1.263 . S
O312 Tb304 2.427 . S
O312 C308 1.275 . S
O313 Tb304 2.513 . S
O313 C308 1.246 . S
O314 Tb304 2.453 . S
O314 C310 1.245 . S
O315 Tb302 2.343 . S
O315 Tb304 2.596 . S
O315 C310 1.259 . S
O316 Tb304 2.374 . S
O316 C311 1.250 . S
O317 Tb302 2.353 . S
O317 C311 1.263 . S
C318 O319 1.275 . S
C318 O320 1.246 . S
O319 Tb302 2.427 . S
O319 C318 1.275 . S
O320 Tb302 2.513 . S
O320 C318 1.246 . S
C321 O305 1.245 . S
C321 O306 1.259 . S
Tb322 O325 2.453 . S
Tb322 O326 2.596 . S
Tb322 O327 2.374 . S
Tb322 O335 2.343 . S
Tb322 O337 2.353 . S
Tb322 O339 2.427 . S
Tb322 O340 2.513 . S
C323 O327 1.251 . S
C323 O329 1.263 . S
Tb324 O326 2.343 . S
Tb324 O329 2.353 . S
Tb324 O332 2.427 . S
Tb324 O333 2.513 . S
Tb324 O334 2.453 . S
Tb324 O335 2.596 . S
Tb324 O336 2.374 . S
O325 Tb322 2.453 . S
O325 C341 1.245 . S
O326 Tb322 2.596 . S
O326 Tb324 2.343 . S
O326 C341 1.259 . S
O327 Tb322 2.374 . S
O327 C323 1.251 . S
C328 O332 1.275 . S
C328 O333 1.246 . S
O329 C323 1.263 . S
O329 Tb324 2.353 . S
C330 O334 1.245 . S
C330 O335 1.259 . S
C331 O336 1.250 . S
C331 O337 1.263 . S
O332 Tb324 2.427 . S
O332 C328 1.275 . S
O333 Tb324 2.513 . S
O333 C328 1.246 . S
O334 Tb324 2.453 . S
O334 C330 1.245 . S
O335 Tb322 2.343 . S
O335 Tb324 2.596 . S
O335 C330 1.259 . S
O336 Tb324 2.374 . S
O336 C331 1.250 . S
O337 Tb322 2.353 . S
O337 C331 1.263 . S
C338 O339 1.275 . S
C338 O340 1.246 . S
O339 Tb322 2.427 . S
O339 C338 1.275 . S
O340 Tb322 2.513 . S
O340 C338 1.246 . S
C341 O325 1.245 . S
C341 O326 1.259 . S
C342 C343 1.391 . S
C342 C344 1.394 . S
C342 H358 0.931 . S
C343 C342 1.391 . S
C343 C347 1.376 . S
C344 C342 1.394 . S
C344 C345 1.369 . S
C344 C348 1.531 . S
C345 C344 1.369 . S
C345 C346 1.410 . S
C345 C353 1.503 . S
C346 C345 1.410 . S
C346 C347 1.392 . S
C346 C349 1.511 . S
C347 C343 1.376 . S
C347 C346 1.392 . S
C347 H359 0.929 . S
C348 C344 1.531 . S
C348 H360 0.960 . S
C348 H361 0.962 . S
C348 H362 0.960 . S
C349 C346 1.511 . S
C349 H363 0.961 . S
C349 H364 0.961 . S
C349 H365 0.961 . S
C350 C351 1.370 . S
C350 C352 1.363 . S
C350 H366 0.931 . S
C351 C350 1.370 . S
C351 C355 1.408 . S
C352 C350 1.363 . S
C352 C353 1.370 . S
C352 C356 1.524 . S
C353 C345 1.503 . S
C353 C352 1.370 . S
C353 C354 1.403 . S
C354 C353 1.403 . S
C354 C355 1.404 . S
C354 C357 1.539 . S
C355 C351 1.408 . S
C355 C354 1.404 . S
C355 H367 0.930 . S
C356 C352 1.524 . S
C356 H368 0.956 . S
C356 H369 0.961 . S
C356 H370 0.961 . S
C357 C354 1.539 . S
C357 H371 0.958 . S
C357 H372 0.961 . S
C357 H373 0.960 . S
H358 C342 0.931 . S
H359 C347 0.929 . S
H360 C348 0.960 . S
H361 C348 0.962 . S
H362 C348 0.960 . S
H363 C349 0.961 . S
H364 C349 0.961 . S
H365 C349 0.961 . S
H366 C350 0.931 . S
H367 C355 0.930 . S
H368 C356 0.956 . S
H369 C356 0.961 . S
H370 C356 0.961 . S
H371 C357 0.958 . S
H372 C357 0.961 . S
H373 C357 0.960 . S
C374 C375 1.391 . S
C374 C376 1.394 . S
C374 H390 0.931 . S
C375 C374 1.391 . S
C375 C379 1.376 . S
C376 C374 1.394 . S
C376 C377 1.369 . S
C376 C380 1.531 . S
C377 C376 1.369 . S
C377 C378 1.410 . S
C377 C385 1.503 . S
C378 C377 1.410 . S
C378 C379 1.392 . S
C378 C381 1.511 . S
C379 C375 1.376 . S
C379 C378 1.392 . S
C379 H391 0.929 . S
C380 C376 1.531 . S
C380 H392 0.960 . S
C380 H393 0.962 . S
C380 H394 0.960 . S
C381 C378 1.511 . S
C381 H395 0.961 . S
C381 H396 0.961 . S
C381 H397 0.961 . S
C382 C383 1.370 . S
C382 C384 1.363 . S
C382 H398 0.931 . S
C383 C382 1.370 . S
C383 C387 1.408 . S
C384 C382 1.363 . S
C384 C385 1.370 . S
C384 C388 1.524 . S
C385 C377 1.503 . S
C385 C384 1.370 . S
C385 C386 1.403 . S
C386 C385 1.403 . S
C386 C387 1.404 . S
C386 C389 1.539 . S
C387 C383 1.408 . S
C387 C386 1.404 . S
C387 H399 0.930 . S
C388 C384 1.524 . S
C388 H400 0.956 . S
C388 H401 0.961 . S
C388 H402 0.961 . S
C389 C386 1.539 . S
C389 H403 0.958 . S
C389 H404 0.961 . S
C389 H405 0.960 . S
H390 C374 0.931 . S
H391 C379 0.929 . S
H392 C380 0.960 . S
H393 C380 0.962 . S
H394 C380 0.960 . S
H395 C381 0.961 . S
H396 C381 0.961 . S
H397 C381 0.961 . S
H398 C382 0.931 . S
H399 C387 0.930 . S
H400 C388 0.956 . S
H401 C388 0.961 . S
H402 C388 0.961 . S
H403 C389 0.958 . S
H404 C389 0.961 . S
H405 C389 0.960 . S
C406 C407 1.391 . S
C406 C408 1.394 . S
C406 H422 0.931 . S
C407 C406 1.391 . S
C407 C411 1.376 . S
C408 C406 1.394 . S
C408 C409 1.369 . S
C408 C412 1.531 . S
C409 C408 1.369 . S
C409 C410 1.410 . S
C409 C417 1.503 . S
C410 C409 1.410 . S
C410 C411 1.392 . S
C410 C413 1.511 . S
C411 C407 1.376 . S
C411 C410 1.392 . S
C411 H423 0.929 . S
C412 C408 1.531 . S
C412 H424 0.960 . S
C412 H425 0.962 . S
C412 H426 0.960 . S
C413 C410 1.511 . S
C413 H427 0.961 . S
C413 H428 0.961 . S
C413 H429 0.961 . S
C414 C415 1.370 . S
C414 C416 1.363 . S
C414 H430 0.931 . S
C415 C414 1.370 . S
C415 C419 1.408 . S
C416 C414 1.363 . S
C416 C417 1.370 . S
C416 C420 1.524 . S
C417 C409 1.503 . S
C417 C416 1.370 . S
C417 C418 1.403 . S
C418 C417 1.403 . S
C418 C419 1.404 . S
C418 C421 1.539 . S
C419 C415 1.408 . S
C419 C418 1.404 . S
C419 H431 0.930 . S
C420 C416 1.524 . S
C420 H432 0.956 . S
C420 H433 0.961 . S
C420 H434 0.961 . S
C421 C418 1.539 . S
C421 H435 0.958 . S
C421 H436 0.961 . S
C421 H437 0.960 . S
H422 C406 0.931 . S
H423 C411 0.929 . S
H424 C412 0.960 . S
H425 C412 0.962 . S
H426 C412 0.960 . S
H427 C413 0.961 . S
H428 C413 0.961 . S
H429 C413 0.961 . S
H430 C414 0.931 . S
H431 C419 0.930 . S
H432 C420 0.956 . S
H433 C420 0.961 . S
H434 C420 0.961 . S
H435 C421 0.958 . S
H436 C421 0.961 . S
H437 C421 0.960 . S
C438 C439 1.391 . S
C438 C440 1.394 . S
C438 H454 0.931 . S
C439 C438 1.391 . S
C439 C443 1.376 . S
C440 C438 1.394 . S
C440 C441 1.369 . S
C440 C444 1.531 . S
C441 C440 1.369 . S
C441 C442 1.410 . S
C441 C449 1.503 . S
C442 C441 1.410 . S
C442 C443 1.392 . S
C442 C445 1.511 . S
C443 C439 1.376 . S
C443 C442 1.392 . S
C443 H455 0.929 . S
C444 C440 1.531 . S
C444 H456 0.960 . S
C444 H457 0.962 . S
C444 H458 0.960 . S
C445 C442 1.511 . S
C445 H459 0.961 . S
C445 H460 0.961 . S
C445 H461 0.961 . S
C446 C447 1.370 . S
C446 C448 1.363 . S
C446 H462 0.931 . S
C447 C446 1.370 . S
C447 C451 1.408 . S
C448 C446 1.363 . S
C448 C449 1.370 . S
C448 C452 1.524 . S
C449 C441 1.503 . S
C449 C448 1.370 . S
C449 C450 1.403 . S
C450 C449 1.403 . S
C450 C451 1.404 . S
C450 C453 1.539 . S
C451 C447 1.408 . S
C451 C450 1.404 . S
C451 H463 0.930 1_556 S
C452 C448 1.524 . S
C452 H464 0.956 . S
C452 H465 0.961 . S
C452 H466 0.961 . S
C453 C450 1.539 . S
C453 H467 0.958 1_556 S
C453 H468 0.961 1_556 S
C453 H469 0.960 . S
H454 C438 0.931 . S
H455 C443 0.929 . S
H456 C444 0.960 . S
H457 C444 0.962 . S
H458 C444 0.960 . S
H459 C445 0.961 . S
H460 C445 0.961 . S
H461 C445 0.961 . S
H462 C446 0.931 . S
H463 C451 0.930 1_554 S
H464 C452 0.956 . S
H465 C452 0.961 . S
H466 C452 0.961 . S
H467 C453 0.958 1_554 S
H468 C453 0.961 1_554 S
H469 C453 0.960 . S
C470 C471 1.391 . S
C470 C472 1.394 . S
C470 H486 0.931 . S
C471 C470 1.391 . S
C471 C475 1.376 . S
C472 C470 1.394 . S
C472 C473 1.369 . S
C472 C476 1.531 . S
C473 C472 1.369 . S
C473 C474 1.410 . S
C473 C481 1.503 . S
C474 C473 1.410 . S
C474 C475 1.392 . S
C474 C477 1.511 . S
C475 C471 1.376 . S
C475 C474 1.392 . S
C475 H487 0.929 . S
C476 C472 1.531 . S
C476 H488 0.960 . S
C476 H489 0.962 . S
C476 H490 0.960 . S
C477 C474 1.511 . S
C477 H491 0.961 . S
C477 H492 0.961 . S
C477 H493 0.961 . S
C478 C479 1.370 . S
C478 C480 1.363 . S
C478 H494 0.931 . S
C479 C478 1.370 . S
C479 C483 1.408 . S
C480 C478 1.363 . S
C480 C481 1.370 . S
C480 C484 1.524 . S
C481 C473 1.503 . S
C481 C480 1.370 . S
C481 C482 1.403 . S
C482 C481 1.403 . S
C482 C483 1.404 . S
C482 C485 1.539 . S
C483 C479 1.408 . S
C483 C482 1.404 . S
C483 H495 0.930 . S
C484 C480 1.524 . S
C484 H496 0.956 . S
C484 H497 0.961 . S
C484 H498 0.961 . S
C485 C482 1.539 . S
C485 H499 0.958 . S
C485 H500 0.961 . S
C485 H501 0.960 . S
H486 C470 0.931 . S
H487 C475 0.929 . S
H488 C476 0.960 . S
H489 C476 0.962 . S
H490 C476 0.960 . S
H491 C477 0.961 . S
H492 C477 0.961 . S
H493 C477 0.961 . S
H494 C478 0.931 . S
H495 C483 0.930 . S
H496 C484 0.956 . S
H497 C484 0.961 . S
H498 C484 0.961 . S
H499 C485 0.958 . S
H500 C485 0.961 . S
H501 C485 0.960 . S
C502 C503 1.391 . S
C502 C504 1.394 . S
C502 H518 0.931 . S
C503 C502 1.391 . S
C503 C507 1.376 . S
C504 C502 1.394 . S
C504 C505 1.369 . S
C504 C508 1.531 . S
C505 C504 1.369 . S
C505 C506 1.410 . S
C505 C513 1.503 . S
C506 C505 1.410 . S
C506 C507 1.392 . S
C506 C509 1.511 . S
C507 C503 1.376 . S
C507 C506 1.392 . S
C507 H519 0.929 . S
C508 C504 1.531 . S
C508 H520 0.960 . S
C508 H521 0.962 . S
C508 H522 0.960 . S
C509 C506 1.511 . S
C509 H523 0.961 . S
C509 H524 0.961 . S
C509 H525 0.961 . S
C510 C511 1.370 . S
C510 C512 1.363 . S
C510 H526 0.931 . S
C511 C510 1.370 . S
C511 C515 1.408 . S
C512 C510 1.363 . S
C512 C513 1.370 . S
C512 C516 1.524 . S
C513 C505 1.503 . S
C513 C512 1.370 . S
C513 C514 1.403 . S
C514 C513 1.403 . S
C514 C515 1.404 . S
C514 C517 1.539 1_556 S
C515 C511 1.408 . S
C515 C514 1.404 . S
C515 H527 0.930 1_556 S
C516 C512 1.524 . S
C516 H528 0.956 . S
C516 H529 0.961 . S
C516 H530 0.961 . S
C517 C514 1.539 1_554 S
C517 H531 0.958 . S
C517 H532 0.961 . S
C517 H533 0.960 . S
H518 C502 0.931 . S
H519 C507 0.929 . S
H520 C508 0.960 . S
H521 C508 0.962 . S
H522 C508 0.960 . S
H523 C509 0.961 . S
H524 C509 0.961 . S
H525 C509 0.961 . S
H526 C510 0.931 . S
H527 C515 0.930 1_554 S
H528 C516 0.956 . S
H529 C516 0.961 . S
H530 C516 0.961 . S
H531 C517 0.958 . S
H532 C517 0.961 . S
H533 C517 0.960 . S
C534 C535 1.391 . S
C534 C536 1.394 . S
C534 H550 0.931 . S
C535 C534 1.391 . S
C535 C539 1.376 . S
C536 C534 1.394 . S
C536 C537 1.369 . S
C536 C540 1.531 . S
C537 C536 1.369 . S
C537 C538 1.410 . S
C537 C545 1.503 . S
C538 C537 1.410 . S
C538 C539 1.392 . S
C538 C541 1.511 . S
C539 C535 1.376 . S
C539 C538 1.392 . S
C539 H551 0.929 . S
C540 C536 1.531 . S
C540 H552 0.960 . S
C540 H553 0.962 . S
C540 H554 0.960 . S
C541 C538 1.511 . S
C541 H555 0.961 . S
C541 H556 0.961 . S
C541 H557 0.961 . S
C542 C543 1.370 . S
C542 C544 1.363 . S
C542 H558 0.931 . S
C543 C542 1.370 . S
C543 C547 1.408 . S
C544 C542 1.363 . S
C544 C545 1.370 . S
C544 C548 1.524 . S
C545 C537 1.503 . S
C545 C544 1.370 . S
C545 C546 1.403 . S
C546 C545 1.403 . S
C546 C547 1.404 . S
C546 C549 1.539 . S
C547 C543 1.408 . S
C547 C546 1.404 . S
C547 H559 0.930 . S
C548 C544 1.524 . S
C548 H560 0.956 . S
C548 H561 0.961 . S
C548 H562 0.961 . S
C549 C546 1.539 . S
C549 H563 0.958 . S
C549 H564 0.961 . S
C549 H565 0.960 . S
H550 C534 0.931 . S
H551 C539 0.929 . S
H552 C540 0.960 . S
H553 C540 0.962 . S
H554 C540 0.960 . S
H555 C541 0.961 . S
H556 C541 0.961 . S
H557 C541 0.961 . S
H558 C542 0.931 . S
H559 C547 0.930 . S
H560 C548 0.956 . S
H561 C548 0.961 . S
H562 C548 0.961 . S
H563 C549 0.958 . S
H564 C549 0.961 . S
H565 C549 0.960 . S
C566 C567 1.391 . S
C566 C568 1.394 . S
C566 H582 0.931 . S
C567 C566 1.391 . S
C567 C571 1.376 . S
C568 C566 1.394 . S
C568 C569 1.369 . S
C568 C572 1.531 . S
C569 C568 1.369 . S
C569 C570 1.410 . S
C569 C577 1.503 . S
C570 C569 1.410 . S
C570 C571 1.392 . S
C570 C573 1.511 . S
C571 C567 1.376 . S
C571 C570 1.392 . S
C571 H583 0.929 . S
C572 C568 1.531 . S
C572 H584 0.960 . S
C572 H585 0.962 . S
C572 H586 0.960 . S
C573 C570 1.511 . S
C573 H587 0.961 . S
C573 H588 0.961 . S
C573 H589 0.961 . S
C574 C575 1.370 . S
C574 C576 1.363 . S
C574 H590 0.931 . S
C575 C574 1.370 . S
C575 C579 1.408 . S
C576 C574 1.363 . S
C576 C577 1.370 . S
C576 C580 1.524 . S
C577 C569 1.503 . S
C577 C576 1.370 . S
C577 C578 1.403 . S
C578 C577 1.403 . S
C578 C579 1.404 . S
C578 C581 1.539 . S
C579 C575 1.408 . S
C579 C578 1.404 . S
C579 H591 0.930 . S
C580 C576 1.524 . S
C580 H592 0.956 . S
C580 H593 0.961 . S
C580 H594 0.961 . S
C581 C578 1.539 . S
C581 H595 0.958 . S
C581 H596 0.961 . S
C581 H597 0.960 . S
H582 C566 0.931 . S
H583 C571 0.929 . S
H584 C572 0.960 . S
H585 C572 0.962 . S
H586 C572 0.960 . S
H587 C573 0.961 . S
H588 C573 0.961 . S
H589 C573 0.961 . S
H590 C574 0.931 . S
H591 C579 0.930 . S
H592 C580 0.956 . S
H593 C580 0.961 . S
H594 C580 0.961 . S
H595 C581 0.958 . S
H596 C581 0.961 . S
H597 C581 0.960 . S
C598 C599 1.391 . S
C598 C600 1.394 . S
C598 H614 0.931 . S
C599 C598 1.391 . S
C599 C603 1.376 . S
C600 C598 1.394 . S
C600 C601 1.369 . S
C600 C604 1.531 . S
C601 C600 1.369 . S
C601 C602 1.410 . S
C601 C609 1.503 . S
C602 C601 1.410 . S
C602 C603 1.392 . S
C602 C605 1.511 . S
C603 C599 1.376 . S
C603 C602 1.392 . S
C603 H615 0.929 . S
C604 C600 1.531 . S
C604 H616 0.960 . S
C604 H617 0.968 . S
C604 H618 0.960 . S
C605 C602 1.511 . S
C605 H619 0.961 . S
C605 H620 0.961 . S
C605 H621 0.961 . S
C606 C607 1.370 . S
C606 C608 1.363 . S
C606 H622 0.931 . S
C607 C606 1.370 . S
C607 C611 1.408 . S
C608 C606 1.363 . S
C608 C609 1.370 . S
C608 C612 1.524 . S
C609 C601 1.503 . S
C609 C608 1.370 . S
C609 C610 1.403 . S
C610 C609 1.403 . S
C610 C611 1.404 . S
C610 C613 1.539 . S
C611 C607 1.408 . S
C611 C610 1.404 . S
C611 H623 0.930 . S
C612 C608 1.524 . S
C612 H624 0.956 . S
C612 H625 0.961 . S
C612 H626 0.961 . S
C613 C610 1.539 . S
C613 H627 0.958 . S
C613 H628 0.961 . S
C613 H629 0.960 . S
H614 C598 0.931 . S
H615 C603 0.929 . S
H616 C604 0.960 . S
H617 C604 0.968 . S
H618 C604 0.960 . S
H619 C605 0.961 . S
H620 C605 0.961 . S
H621 C605 0.961 . S
H622 C606 0.931 . S
H623 C611 0.930 . S
H624 C612 0.956 . S
H625 C612 0.961 . S
H626 C612 0.961 . S
H627 C613 0.958 . S
H628 C613 0.961 . S
H629 C613 0.960 . S
C630 C631 1.391 . S
C630 C632 1.394 . S
C630 H646 0.931 . S
C631 C630 1.391 . S
C631 C635 1.376 . S
C632 C630 1.394 . S
C632 C633 1.369 . S
C632 C636 1.531 . S
C633 C632 1.369 . S
C633 C634 1.410 . S
C633 C641 1.503 . S
C634 C633 1.410 . S
C634 C635 1.392 . S
C634 C637 1.511 . S
C635 C631 1.376 . S
C635 C634 1.392 . S
C635 H647 0.929 . S
C636 C632 1.531 . S
C636 H648 0.960 . S
C636 H649 0.962 . S
C636 H650 0.960 . S
C637 C634 1.511 . S
C637 H651 0.961 . S
C637 H652 0.961 . S
C637 H653 0.961 . S
C638 C639 1.370 . S
C638 C640 1.363 . S
C638 H654 0.931 . S
C639 C638 1.370 . S
C639 C643 1.408 . S
C640 C638 1.363 . S
C640 C641 1.370 . S
C640 C644 1.524 . S
C641 C633 1.503 . S
C641 C640 1.370 . S
C641 C642 1.403 . S
C642 C641 1.403 . S
C642 C643 1.404 . S
C642 C645 1.539 . S
C643 C639 1.408 . S
C643 C642 1.404 . S
C643 H655 0.916 1_554 S
C644 C640 1.524 . S
C644 H656 0.956 . S
C644 H657 0.961 . S
C644 H658 0.961 . S
C645 C642 1.539 . S
C645 H659 0.958 1_554 S
C645 H660 0.979 . S
C645 H661 0.960 . S
H646 C630 0.931 . S
H647 C635 0.929 . S
H648 C636 0.960 . S
H649 C636 0.962 . S
H650 C636 0.960 . S
H651 C637 0.961 . S
H652 C637 0.961 . S
H653 C637 0.961 . S
H654 C638 0.931 . S
H655 C643 0.916 1_556 S
H656 C644 0.956 . S
H657 C644 0.961 . S
H658 C644 0.961 . S
H659 C645 0.958 1_556 S
H660 C645 0.979 . S
H661 C645 0.960 . S
C662 C663 1.391 . S
C662 C664 1.394 . S
C662 H678 0.931 . S
C663 C662 1.391 . S
C663 C667 1.376 . S
C664 C662 1.394 . S
C664 C665 1.369 . S
C664 C668 1.531 . S
C665 C664 1.369 . S
C665 C666 1.410 . S
C665 C673 1.503 . S
C666 C665 1.410 . S
C666 C667 1.392 . S
C666 C669 1.511 . S
C667 C663 1.376 . S
C667 C666 1.392 . S
C667 H679 0.929 . S
C668 C664 1.531 . S
C668 H680 0.960 . S
C668 H681 0.962 . S
C668 H682 0.960 . S
C669 C666 1.511 . S
C669 H683 0.961 . S
C669 H684 0.961 . S
C669 H685 0.961 . S
C670 C671 1.370 . S
C670 C672 1.363 . S
C670 H686 0.931 . S
C671 C670 1.370 . S
C671 C675 1.408 . S
C672 C670 1.363 . S
C672 C673 1.370 . S
C672 C676 1.524 . S
C673 C665 1.503 . S
C673 C672 1.370 . S
C673 C674 1.403 . S
C674 C673 1.403 . S
C674 C675 1.404 . S
C674 C677 1.539 . S
C675 C671 1.408 . S
C675 C674 1.404 . S
C675 H687 0.930 . S
C676 C672 1.524 . S
C676 H688 0.956 . S
C676 H689 0.961 . S
C676 H690 0.961 . S
C677 C674 1.539 . S
C677 H691 0.958 . S
C677 H692 0.961 . S
C677 H693 0.960 . S
H678 C662 0.931 . S
H679 C667 0.929 . S
H680 C668 0.960 . S
H681 C668 0.962 . S
H682 C668 0.960 . S
H683 C669 0.961 . S
H684 C669 0.961 . S
H685 C669 0.961 . S
H686 C670 0.931 . S
H687 C675 0.930 . S
H688 C676 0.956 . S
H689 C676 0.961 . S
H690 C676 0.961 . S
H691 C677 0.958 . S
H692 C677 0.961 . S
H693 C677 0.960 . S
C694 C695 1.391 . S
C694 C696 1.394 . S
C694 H710 0.931 . S
C695 C694 1.391 . S
C695 C699 1.376 . S
C696 C694 1.394 . S
C696 C697 1.369 . S
C696 C700 1.531 . S
C697 C696 1.369 . S
C697 C698 1.410 . S
C697 C705 1.503 . S
C698 C697 1.410 . S
C698 C699 1.392 . S
C698 C701 1.511 . S
C699 C695 1.376 . S
C699 C698 1.392 . S
C699 H711 0.929 . S
C700 C696 1.531 . S
C700 H712 0.960 . S
C700 H713 0.962 . S
C700 H714 0.960 . S
C701 C698 1.511 . S
C701 H715 0.961 . S
C701 H716 0.961 . S
C701 H717 0.961 . S
C702 C703 1.370 . S
C702 C704 1.363 . S
C702 H718 0.931 . S
C703 C702 1.370 . S
C703 C707 1.408 . S
C704 C702 1.363 . S
C704 C705 1.370 . S
C704 C708 1.524 . S
C705 C697 1.503 . S
C705 C704 1.370 . S
C705 C706 1.403 . S
C706 C705 1.403 . S
C706 C707 1.404 . S
C706 C709 1.539 . S
C707 C703 1.408 . S
C707 C706 1.404 . S
C707 H719 0.930 . S
C708 C704 1.524 . S
C708 H720 0.956 . S
C708 H721 0.961 . S
C708 H722 0.961 . S
C709 C706 1.539 . S
C709 H723 0.958 . S
C709 H724 0.961 . S
C709 H725 0.960 . S
H710 C694 0.931 . S
H711 C699 0.929 . S
H712 C700 0.960 . S
H713 C700 0.962 . S
H714 C700 0.960 . S
H715 C701 0.961 . S
H716 C701 0.961 . S
H717 C701 0.961 . S
H718 C702 0.931 . S
H719 C707 0.930 . S
H720 C708 0.956 . S
H721 C708 0.961 . S
H722 C708 0.961 . S
H723 C709 0.958 . S
H724 C709 0.961 . S
H725 C709 0.960 . S
C726 C727 1.391 . S
C726 C728 1.394 . S
C726 H742 0.931 . S
C727 C726 1.391 . S
C727 C731 1.376 . S
C728 C726 1.394 . S
C728 C729 1.369 . S
C728 C732 1.531 . S
C729 C728 1.369 . S
C729 C730 1.410 . S
C729 C737 1.503 1_655 S
C730 C729 1.410 . S
C730 C731 1.392 . S
C730 C733 1.511 . S
C731 C727 1.376 . S
C731 C730 1.392 . S
C731 H743 0.929 . S
C732 C728 1.531 . S
C732 H744 0.960 . S
C732 H745 0.962 . S
C732 H746 0.960 . S
C733 C730 1.511 . S
C733 H747 0.961 . S
C733 H748 0.961 1_655 S
C733 H749 0.961 . S
C734 C735 1.370 . S
C734 C736 1.363 . S
C734 H750 0.931 . S
C735 C734 1.370 . S
C735 C739 1.408 . S
C736 C734 1.363 . S
C736 C737 1.370 . S
C736 C740 1.524 . S
C737 C729 1.503 1_455 S
C737 C736 1.370 . S
C737 C738 1.403 . S
C738 C737 1.403 . S
C738 C739 1.404 . S
C738 C741 1.539 1_455 S
C739 C735 1.408 . S
C739 C738 1.404 . S
C739 H751 0.930 . S
C740 C736 1.524 . S
C740 H752 0.956 1_455 S
C740 H753 0.961 . S
C740 H754 0.961 . S
C741 C738 1.539 1_655 S
C741 H755 0.958 . S
C741 H756 0.961 1_655 S
C741 H757 0.960 . S
H742 C726 0.931 . S
H743 C731 0.929 . S
H744 C732 0.960 . S
H745 C732 0.962 . S
H746 C732 0.960 . S
H747 C733 0.961 . S
H748 C733 0.961 1_455 S
H749 C733 0.961 . S
H750 C734 0.931 . S
H751 C739 0.930 . S
H752 C740 0.956 1_655 S
H753 C740 0.961 . S
H754 C740 0.961 . S
H755 C741 0.958 . S
H756 C741 0.961 1_455 S
H757 C741 0.960 . S
C758 C759 1.391 . S
C758 C760 1.394 . S
C758 H774 0.931 . S
C759 C758 1.391 . S
C759 C763 1.376 . S
C760 C758 1.394 . S
C760 C761 1.369 . S
C760 C764 1.531 . S
C761 C760 1.369 . S
C761 C762 1.410 . S
C761 C769 1.503 . S
C762 C761 1.410 . S
C762 C763 1.392 . S
C762 C765 1.511 . S
C763 C759 1.376 . S
C763 C762 1.392 . S
C763 H775 0.929 . S
C764 C760 1.531 . S
C764 H776 0.960 . S
C764 H777 0.962 . S
C764 H778 0.960 . S
C765 C762 1.511 . S
C765 H779 0.961 . S
C765 H780 0.961 . S
C765 H781 0.961 . S
C766 C767 1.370 . S
C766 C768 1.363 . S
C766 H782 0.931 . S
C767 C766 1.370 . S
C767 C771 1.408 . S
C768 C766 1.363 . S
C768 C769 1.370 . S
C768 C772 1.524 . S
C769 C761 1.503 . S
C769 C768 1.370 . S
C769 C770 1.403 . S
C770 C769 1.403 . S
C770 C771 1.404 . S
C770 C773 1.539 . S
C771 C767 1.408 . S
C771 C770 1.404 . S
C771 H783 0.930 . S
C772 C768 1.524 . S
C772 H784 0.956 . S
C772 H785 0.961 . S
C772 H786 0.961 . S
C773 C770 1.539 . S
C773 H787 0.958 . S
C773 H788 0.961 . S
C773 H789 0.960 . S
H774 C758 0.931 . S
H775 C763 0.929 . S
H776 C764 0.960 . S
H777 C764 0.962 . S
H778 C764 0.960 . S
H779 C765 0.961 . S
H780 C765 0.961 . S
H781 C765 0.961 . S
H782 C766 0.931 . S
H783 C771 0.930 . S
H784 C772 0.956 . S
H785 C772 0.961 . S
H786 C772 0.961 . S
H787 C773 0.958 . S
H788 C773 0.961 . S
H789 C773 0.960 . S
C790 C791 1.391 . S
C790 C792 1.394 . S
C790 H806 0.931 . S
C791 C790 1.391 . S
C791 C795 1.376 . S
C792 C790 1.394 . S
C792 C793 1.369 . S
C792 C796 1.531 . S
C793 C792 1.369 . S
C793 C794 1.410 . S
C793 C801 1.503 1_545 S
C794 C793 1.410 . S
C794 C795 1.392 . S
C794 C797 1.511 . S
C795 C791 1.376 . S
C795 C794 1.392 . S
C795 H807 0.929 . S
C796 C792 1.531 . S
C796 H808 0.960 . S
C796 H809 0.962 . S
C796 H810 0.960 . S
C797 C794 1.511 . S
C797 H811 0.961 . S
C797 H812 0.961 1_545 S
C797 H813 0.961 1_545 S
C798 C799 1.370 . S
C798 C800 1.363 . S
C798 H814 0.931 . S
C799 C798 1.370 . S
C799 C803 1.408 . S
C800 C798 1.363 . S
C800 C801 1.370 . S
C800 C804 1.559 . S
C801 C793 1.503 1_565 S
C801 C800 1.370 . S
C801 C802 1.403 . S
C802 C801 1.403 . S
C802 C803 1.404 . S
C802 C805 1.539 . S
C803 C799 1.408 . S
C803 C802 1.404 . S
C803 H815 0.930 . S
C804 C800 1.559 . S
C804 H816 0.941 1_565 S
C804 H817 0.935 1_565 S
C804 H818 0.968 . S
C805 C802 1.539 . S
C805 H819 0.958 . S
C805 H820 0.961 . S
C805 H821 0.960 . S
H806 C790 0.931 . S
H807 C795 0.929 . S
H808 C796 0.960 . S
H809 C796 0.962 . S
H810 C796 0.960 . S
H811 C797 0.961 . S
H812 C797 0.961 1_565 S
H813 C797 0.961 1_565 S
H814 C798 0.931 . S
H815 C803 0.930 . S
H816 C804 0.941 1_545 S
H817 C804 0.935 1_545 S
H818 C804 0.968 . S
H819 C805 0.958 . S
H820 C805 0.961 . S
H821 C805 0.960 . S
C822 C823 1.391 . S
C822 C824 1.394 . S
C822 H838 0.931 . S
C823 C822 1.391 . S
C823 C827 1.376 . S
C824 C822 1.394 . S
C824 C825 1.369 . S
C824 C828 1.531 . S
C825 C824 1.369 . S
C825 C826 1.410 . S
C825 C833 1.503 . S
C826 C825 1.410 . S
C826 C827 1.392 . S
C826 C829 1.511 . S
C827 C823 1.376 . S
C827 C826 1.392 . S
C827 H839 0.929 . S
C828 C824 1.531 . S
C828 H840 0.960 . S
C828 H841 0.962 . S
C828 H842 0.960 . S
C829 C826 1.511 . S
C829 H843 0.961 . S
C829 H844 0.961 . S
C829 H845 0.961 . S
C830 C831 1.370 . S
C830 C832 1.363 . S
C830 H846 0.931 . S
C831 C830 1.370 . S
C831 C835 1.408 . S
C832 C830 1.363 . S
C832 C833 1.370 . S
C832 C836 1.524 . S
C833 C825 1.503 . S
C833 C832 1.370 . S
C833 C834 1.403 . S
C834 C833 1.403 . S
C834 C835 1.404 . S
C834 C837 1.539 . S
C835 C831 1.408 . S
C835 C834 1.404 . S
C835 H847 0.930 . S
C836 C832 1.524 . S
C836 H848 0.956 . S
C836 H849 0.961 . S
C836 H850 0.961 . S
C837 C834 1.539 . S
C837 H851 0.958 . S
C837 H852 0.961 . S
C837 H853 0.960 . S
H838 C822 0.931 . S
H839 C827 0.929 . S
H840 C828 0.960 . S
H841 C828 0.962 . S
H842 C828 0.960 . S
H843 C829 0.961 . S
H844 C829 0.961 . S
H845 C829 0.961 . S
H846 C830 0.931 . S
H847 C835 0.930 . S
H848 C836 0.956 . S
H849 C836 0.961 . S
H850 C836 0.961 . S
H851 C837 0.958 . S
H852 C837 0.961 . S
H853 C837 0.960 . S
C854 C855 1.391 . S
C854 C856 1.394 . S
C854 H870 0.931 . S
C855 C854 1.391 . S
C855 C859 1.376 . S
C856 C854 1.394 . S
C856 C857 1.369 . S
C856 C860 1.531 . S
C857 C856 1.369 . S
C857 C858 1.410 . S
C857 C865 1.503 . S
C858 C857 1.410 . S
C858 C859 1.392 . S
C858 C861 1.511 . S
C859 C855 1.376 . S
C859 C858 1.392 . S
C859 H871 0.929 . S
C860 C856 1.531 . S
C860 H872 0.960 . S
C860 H873 0.962 . S
C860 H874 0.960 . S
C861 C858 1.511 . S
C861 H875 0.961 . S
C861 H876 0.961 . S
C861 H877 0.961 . S
C862 C863 1.370 . S
C862 C864 1.363 . S
C862 H878 0.931 . S
C863 C862 1.370 . S
C863 C867 1.408 . S
C864 C862 1.363 . S
C864 C865 1.370 . S
C864 C868 1.524 . S
C865 C857 1.503 . S
C865 C864 1.370 . S
C865 C866 1.403 . S
C866 C865 1.403 . S
C866 C867 1.404 . S
C866 C869 1.539 . S
C867 C863 1.408 . S
C867 C866 1.404 . S
C867 H879 0.930 . S
C868 C864 1.524 . S
C868 H880 0.956 . S
C868 H881 0.961 . S
C868 H882 0.961 . S
C869 C866 1.539 . S
C869 H883 0.958 . S
C869 H884 0.961 . S
C869 H885 0.960 . S
H870 C854 0.931 . S
H871 C859 0.929 . S
H872 C860 0.960 . S
H873 C860 0.962 . S
H874 C860 0.960 . S
H875 C861 0.961 . S
H876 C861 0.961 . S
H877 C861 0.961 . S
H878 C862 0.931 . S
H879 C867 0.930 . S
H880 C868 0.956 . S
H881 C868 0.961 . S
H882 C868 0.961 . S
H883 C869 0.958 . S
H884 C869 0.961 . S
H885 C869 0.960 . S
C886 C887 1.391 . S
C886 C888 1.394 . S
C886 H902 0.931 . S
C887 C886 1.391 . S
C887 C891 1.376 . S
C888 C886 1.394 . S
C888 C889 1.369 . S
C888 C892 1.531 . S
C889 C888 1.369 . S
C889 C890 1.410 . S
C889 C897 1.503 . S
C890 C889 1.410 . S
C890 C891 1.392 . S
C890 C893 1.511 . S
C891 C887 1.376 . S
C891 C890 1.392 . S
C891 H903 0.929 . S
C892 C888 1.531 . S
C892 H904 0.960 . S
C892 H905 0.962 . S
C892 H906 0.960 . S
C893 C890 1.511 . S
C893 H907 0.961 . S
C893 H908 0.961 . S
C893 H909 0.961 . S
C894 C895 1.370 . S
C894 C896 1.363 . S
C894 H910 0.931 . S
C895 C894 1.370 . S
C895 C899 1.408 . S
C896 C894 1.363 . S
C896 C897 1.370 . S
C896 C900 1.524 . S
C897 C889 1.503 . S
C897 C896 1.370 . S
C897 C898 1.403 . S
C898 C897 1.403 . S
C898 C899 1.404 . S
C898 C901 1.539 . S
C899 C895 1.408 . S
C899 C898 1.404 . S
C899 H911 0.930 . S
C900 C896 1.524 . S
C900 H912 0.956 . S
C900 H913 0.961 . S
C900 H914 0.961 . S
C901 C898 1.539 . S
C901 H915 0.958 . S
C901 H916 0.961 . S
C901 H917 0.960 . S
H902 C886 0.931 . S
H903 C891 0.929 . S
H904 C892 0.960 . S
H905 C892 0.962 . S
H906 C892 0.960 . S
H907 C893 0.961 . S
H908 C893 0.961 . S
H909 C893 0.961 . S
H910 C894 0.931 . S
H911 C899 0.930 . S
H912 C900 0.956 . S
H913 C900 0.961 . S
H914 C900 0.961 . S
H915 C901 0.958 . S
H916 C901 0.961 . S
H917 C901 0.960 . S
C918 C919 1.391 . S
C918 C920 1.394 . S
C918 H934 0.931 . S
C919 C918 1.391 . S
C919 C923 1.376 . S
C920 C918 1.394 . S
C920 C921 1.369 . S
C920 C924 1.531 . S
C921 C920 1.369 . S
C921 C922 1.410 . S
C921 C929 1.503 . S
C922 C921 1.410 . S
C922 C923 1.392 . S
C922 C925 1.511 . S
C923 C919 1.376 . S
C923 C922 1.392 . S
C923 H935 0.929 . S
C924 C920 1.531 . S
C924 H936 0.960 . S
C924 H937 0.962 . S
C924 H938 0.960 . S
C925 C922 1.511 . S
C925 H939 0.961 . S
C925 H940 0.961 . S
C925 H941 0.961 . S
C926 C927 1.370 . S
C926 C928 1.363 . S
C926 H942 0.931 . S
C927 C926 1.370 . S
C927 C931 1.408 . S
C928 C926 1.363 . S
C928 C929 1.370 . S
C928 C932 1.524 . S
C929 C921 1.503 . S
C929 C928 1.370 . S
C929 C930 1.403 . S
C930 C929 1.403 . S
C930 C931 1.404 . S
C930 C933 1.539 . S
C931 C927 1.408 . S
C931 C930 1.404 . S
C931 H943 0.930 . S
C932 C928 1.524 . S
C932 H944 0.956 . S
C932 H945 0.961 . S
C932 H946 0.961 . S
C933 C930 1.539 . S
C933 H947 0.958 . S
C933 H948 0.961 . S
C933 H949 0.960 . S
H934 C918 0.931 . S
H935 C923 0.929 . S
H936 C924 0.960 . S
H937 C924 0.962 . S
H938 C924 0.960 . S
H939 C925 0.961 . S
H940 C925 0.961 . S
H941 C925 0.961 . S
H942 C926 0.931 . S
H943 C931 0.930 . S
H944 C932 0.956 . S
H945 C932 0.961 . S
H946 C932 0.961 . S
H947 C933 0.958 . S
H948 C933 0.961 . S
H949 C933 0.960 . S
C950 C951 1.391 . S
C950 C952 1.394 . S
C950 H966 0.931 . S
C951 C950 1.391 . S
C951 C955 1.376 . S
C952 C950 1.394 . S
C952 C953 1.369 . S
C952 C956 1.531 . S
C953 C952 1.369 . S
C953 C954 1.410 . S
C953 C961 1.503 . S
C954 C953 1.410 . S
C954 C955 1.392 . S
C954 C957 1.511 . S
C955 C951 1.376 . S
C955 C954 1.392 . S
C955 H967 0.929 . S
C956 C952 1.531 . S
C956 H968 0.960 . S
C956 H969 0.962 . S
C956 H970 0.960 . S
C957 C954 1.511 . S
C957 H971 0.961 . S
C957 H972 0.961 . S
C957 H973 0.961 . S
C958 C959 1.370 . S
C958 C960 1.363 . S
C958 H974 0.931 . S
C959 C958 1.370 . S
C959 C963 1.408 . S
C960 C958 1.363 . S
C960 C961 1.370 . S
C960 C964 1.524 . S
C961 C953 1.503 . S
C961 C960 1.370 . S
C961 C962 1.403 . S
C962 C961 1.403 . S
C962 C963 1.404 . S
C962 C965 1.539 . S
C963 C959 1.408 . S
C963 C962 1.404 . S
C963 H975 0.930 . S
C964 C960 1.524 . S
C964 H976 0.956 . S
C964 H977 0.961 . S
C964 H978 0.961 . S
C965 C962 1.539 . S
C965 H979 0.958 . S
C965 H980 0.961 . S
C965 H981 0.960 . S
H966 C950 0.931 . S
H967 C955 0.929 . S
H968 C956 0.960 . S
H969 C956 0.962 . S
H970 C956 0.960 . S
H971 C957 0.961 . S
H972 C957 0.961 . S
H973 C957 0.961 . S
H974 C958 0.931 . S
H975 C963 0.930 . S
H976 C964 0.956 . S
H977 C964 0.961 . S
H978 C964 0.961 . S
H979 C965 0.958 . S
H980 C965 0.961 . S
H981 C965 0.960 . S
C982 C983 1.391 . S
C982 C984 1.394 . S
C982 H998 0.931 . S
C983 C982 1.391 . S
C983 C987 1.376 . S
C984 C982 1.394 . S
C984 C985 1.369 . S
C984 C988 1.531 . S
C985 C984 1.369 . S
C985 C986 1.410 . S
C985 C993 1.503 . S
C986 C985 1.410 . S
C986 C987 1.392 . S
C986 C989 1.511 . S
C987 C983 1.376 . S
C987 C986 1.392 . S
C987 H999 0.929 . S
C988 C984 1.531 . S
C988 H1000 0.960 . S
C988 H1001 0.962 . S
C988 H1002 0.960 . S
C989 C986 1.511 . S
C989 H1003 0.961 . S
C989 H1004 0.961 . S
C989 H1005 0.961 . S
C990 C991 1.370 . S
C990 C992 1.363 . S
C990 H1006 0.931 . S
C991 C990 1.370 . S
C991 C995 1.408 . S
C992 C990 1.363 . S
C992 C993 1.370 . S
C992 C996 1.524 . S
C993 C985 1.503 . S
C993 C992 1.370 . S
C993 C994 1.403 . S
C994 C993 1.403 . S
C994 C995 1.404 . S
C994 C997 1.539 . S
C995 C991 1.408 . S
C995 C994 1.404 . S
C995 H1007 0.930 . S
C996 C992 1.524 . S
C996 H1008 0.956 . S
C996 H1009 0.961 . S
C996 H1010 0.961 . S
C997 C994 1.539 . S
C997 H1011 0.958 . S
C997 H1012 0.961 . S
C997 H1013 0.960 . S
H998 C982 0.931 . S
H999 C987 0.929 . S
H1000 C988 0.960 . S
H1001 C988 0.962 . S
H1002 C988 0.960 . S
H1003 C989 0.961 . S
H1004 C989 0.961 . S
H1005 C989 0.961 . S
H1006 C990 0.931 . S
H1007 C995 0.930 . S
H1008 C996 0.956 . S
H1009 C996 0.961 . S
H1010 C996 0.961 . S
H1011 C997 0.958 . S
H1012 C997 0.961 . S
H1013 C997 0.960 . S
C1014 C1015 1.391 . S
C1014 C1016 1.394 . S
C1014 H1030 0.931 . S
C1015 C1014 1.391 . S
C1015 C1019 1.376 . S
C1016 C1014 1.394 . S
C1016 C1017 1.369 . S
C1016 C1020 1.531 . S
C1017 C1016 1.369 . S
C1017 C1018 1.410 . S
C1017 C1025 1.503 1_545 S
C1018 C1017 1.410 . S
C1018 C1019 1.392 . S
C1018 C1021 1.511 . S
C1019 C1015 1.376 . S
C1019 C1018 1.392 . S
C1019 H1031 0.929 . S
C1020 C1016 1.531 . S
C1020 H1032 0.960 1_545 S
C1020 H1033 0.964 . S
C1020 H1034 0.960 . S
C1021 C1018 1.511 . S
C1021 H1035 0.961 . S
C1021 H1036 0.961 . S
C1021 H1037 0.961 . S
C1022 C1023 1.370 . S
C1022 C1024 1.363 . S
C1022 H1038 0.931 . S
C1023 C1022 1.370 . S
C1023 C1027 1.408 . S
C1024 C1022 1.363 . S
C1024 C1025 1.370 . S
C1024 C1028 1.524 1_565 S
C1025 C1017 1.503 1_565 S
C1025 C1024 1.370 . S
C1025 C1026 1.403 . S
C1026 C1025 1.403 . S
C1026 C1027 1.404 . S
C1026 C1029 1.539 . S
C1027 C1023 1.408 . S
C1027 C1026 1.404 . S
C1027 H1039 0.930 . S
C1028 C1024 1.524 1_545 S
C1028 H1040 0.956 . S
C1028 H1041 0.961 . S
C1028 H1042 0.961 1_545 S
C1029 C1026 1.539 . S
C1029 H1043 0.958 . S
C1029 H1044 0.961 . S
C1029 H1045 0.960 . S
H1030 C1014 0.931 . S
H1031 C1019 0.929 . S
H1032 C1020 0.960 1_565 S
H1033 C1020 0.964 . S
H1034 C1020 0.960 . S
H1035 C1021 0.961 . S
H1036 C1021 0.961 . S
H1037 C1021 0.961 . S
H1038 C1022 0.931 . S
H1039 C1027 0.930 . S
H1040 C1028 0.956 . S
H1041 C1028 0.961 . S
H1042 C1028 0.961 1_565 S
H1043 C1029 0.958 . S
H1044 C1029 0.961 . S
H1045 C1029 0.960 . S
C1046 C1047 1.391 . S
C1046 C1048 1.394 . S
C1046 H1062 0.931 . S
C1047 C1046 1.391 . S
C1047 C1051 1.376 . S
C1048 C1046 1.394 . S
C1048 C1049 1.369 . S
C1048 C1052 1.531 . S
C1049 C1048 1.369 . S
C1049 C1050 1.410 . S
C1049 C1057 1.503 1_655 S
C1050 C1049 1.410 . S
C1050 C1051 1.392 . S
C1050 C1053 1.502 1_655 S
C1051 C1047 1.376 . S
C1051 C1050 1.392 . S
C1051 H1063 0.929 . S
C1052 C1048 1.531 . S
C1052 H1064 0.960 . S
C1052 H1065 0.962 . S
C1052 H1066 0.960 . S
C1053 C1050 1.502 1_455 S
C1053 H1067 0.946 . S
C1053 H1068 1.005 . S
C1053 H1069 0.942 1_455 S
C1054 C1055 1.370 . S
C1054 C1056 1.363 . S
C1054 H1070 0.931 . S
C1055 C1054 1.370 . S
C1055 C1059 1.408 . S
C1056 C1054 1.363 . S
C1056 C1057 1.370 . S
C1056 C1060 1.524 . S
C1057 C1049 1.503 1_455 S
C1057 C1056 1.370 . S
C1057 C1058 1.403 . S
C1058 C1057 1.403 . S
C1058 C1059 1.404 . S
C1058 C1061 1.539 1_455 S
C1059 C1055 1.408 . S
C1059 C1058 1.404 . S
C1059 H1071 0.930 . S
C1060 C1056 1.524 . S
C1060 H1072 0.956 . S
C1060 H1073 0.961 . S
C1060 H1074 0.961 . S
C1061 C1058 1.539 1_655 S
C1061 H1075 0.958 . S
C1061 H1076 0.958 1_655 S
C1061 H1077 0.960 . S
H1062 C1046 0.931 . S
H1063 C1051 0.929 . S
H1064 C1052 0.960 . S
H1065 C1052 0.962 . S
H1066 C1052 0.960 . S
H1067 C1053 0.946 . S
H1068 C1053 1.005 . S
H1069 C1053 0.942 1_655 S
H1070 C1054 0.931 . S
H1071 C1059 0.930 . S
H1072 C1060 0.956 . S
H1073 C1060 0.961 . S
H1074 C1060 0.961 . S
H1075 C1061 0.958 . S
H1076 C1061 0.958 1_455 S
H1077 C1061 0.960 . S
C1078 C1079 1.391 . S
C1078 C1080 1.394 . S
C1078 H1094 0.931 . S
C1079 C1078 1.391 . S
C1079 C1083 1.376 . S
C1080 C1078 1.394 . S
C1080 C1081 1.369 . S
C1080 C1084 1.531 . S
C1081 C1080 1.369 . S
C1081 C1082 1.410 . S
C1081 C1089 1.503 . S
C1082 C1081 1.410 . S
C1082 C1083 1.392 . S
C1082 C1085 1.511 . S
C1083 C1079 1.376 . S
C1083 C1082 1.392 . S
C1083 H1095 0.929 . S
C1084 C1080 1.531 . S
C1084 H1096 0.960 . S
C1084 H1097 0.962 . S
C1084 H1098 0.960 . S
C1085 C1082 1.511 . S
C1085 H1099 0.961 . S
C1085 H1100 0.961 . S
C1085 H1101 0.961 . S
C1086 C1087 1.370 . S
C1086 C1088 1.363 . S
C1086 H1102 0.931 . S
C1087 C1086 1.370 . S
C1087 C1091 1.408 . S
C1088 C1086 1.363 . S
C1088 C1089 1.370 . S
C1088 C1092 1.524 . S
C1089 C1081 1.503 . S
C1089 C1088 1.370 . S
C1089 C1090 1.403 . S
C1090 C1089 1.403 . S
C1090 C1091 1.404 . S
C1090 C1093 1.539 . S
C1091 C1087 1.408 . S
C1091 C1090 1.404 . S
C1091 H1103 0.930 . S
C1092 C1088 1.524 . S
C1092 H1104 0.956 . S
C1092 H1105 0.961 . S
C1092 H1106 0.961 . S
C1093 C1090 1.539 . S
C1093 H1107 0.958 . S
C1093 H1108 0.961 . S
C1093 H1109 0.960 . S
H1094 C1078 0.931 . S
H1095 C1083 0.929 . S
H1096 C1084 0.960 . S
H1097 C1084 0.962 . S
H1098 C1084 0.960 . S
H1099 C1085 0.961 . S
H1100 C1085 0.961 . S
H1101 C1085 0.961 . S
H1102 C1086 0.931 . S
H1103 C1091 0.930 . S
H1104 C1092 0.956 . S
H1105 C1092 0.961 . S
H1106 C1092 0.961 . S
H1107 C1093 0.958 . S
H1108 C1093 0.961 . S
H1109 C1093 0.960 . S
C1110 C1111 1.391 . S
C1110 C1112 1.394 . S
C1110 H1126 0.931 . S
C1111 C1110 1.391 . S
C1111 C1115 1.376 . S
C1112 C1110 1.394 . S
C1112 C1113 1.369 . S
C1112 C1116 1.531 . S
C1113 C1112 1.369 . S
C1113 C1114 1.410 . S
C1113 C1121 1.503 . S
C1114 C1113 1.410 . S
C1114 C1115 1.392 . S
C1114 C1117 1.511 . S
C1115 C1111 1.376 . S
C1115 C1114 1.392 . S
C1115 H1127 0.929 . S
C1116 C1112 1.531 . S
C1116 H1128 0.960 . S
C1116 H1129 0.962 . S
C1116 H1130 0.960 . S
C1117 C1114 1.511 . S
C1117 H1131 0.961 . S
C1117 H1132 0.961 . S
C1117 H1133 0.961 . S
C1118 C1119 1.370 . S
C1118 C1120 1.363 . S
C1118 H1134 0.931 . S
C1119 C1118 1.370 . S
C1119 C1123 1.408 . S
C1120 C1118 1.363 . S
C1120 C1121 1.370 . S
C1120 C1124 1.524 . S
C1121 C1113 1.503 . S
C1121 C1120 1.370 . S
C1121 C1122 1.403 . S
C1122 C1121 1.403 . S
C1122 C1123 1.404 . S
C1122 C1125 1.539 . S
C1123 C1119 1.408 . S
C1123 C1122 1.404 . S
C1123 H1135 0.930 . S
C1124 C1120 1.524 . S
C1124 H1136 0.956 . S
C1124 H1137 0.961 . S
C1124 H1138 0.961 . S
C1125 C1122 1.539 . S
C1125 H1139 0.958 . S
C1125 H1140 0.961 . S
C1125 H1141 0.960 . S
H1126 C1110 0.931 . S
H1127 C1115 0.929 . S
H1128 C1116 0.960 . S
H1129 C1116 0.962 . S
H1130 C1116 0.960 . S
H1131 C1117 0.961 . S
H1132 C1117 0.961 . S
H1133 C1117 0.961 . S
H1134 C1118 0.931 . S
H1135 C1123 0.930 . S
H1136 C1124 0.956 . S
H1137 C1124 0.961 . S
H1138 C1124 0.961 . S
H1139 C1125 0.958 . S
H1140 C1125 0.961 . S
H1141 C1125 0.960 . S
C1142 C1143 1.391 . S
C1142 C1144 1.394 . S
C1142 H1158 0.931 . S
C1143 C1142 1.391 . S
C1143 C1147 1.376 . S
C1144 C1142 1.394 . S
C1144 C1145 1.369 . S
C1144 C1148 1.531 . S
C1145 C1144 1.369 . S
C1145 C1146 1.410 . S
C1145 C1153 1.503 . S
C1146 C1145 1.410 . S
C1146 C1147 1.392 . S
C1146 C1149 1.511 . S
C1147 C1143 1.376 . S
C1147 C1146 1.392 . S
C1147 H1159 0.929 . S
C1148 C1144 1.531 . S
C1148 H1160 0.960 . S
C1148 H1161 0.962 . S
C1148 H1162 0.960 . S
C1149 C1146 1.511 . S
C1149 H1163 0.961 . S
C1149 H1164 0.961 . S
C1149 H1165 0.961 . S
C1150 C1151 1.370 . S
C1150 C1152 1.363 . S
C1150 H1166 0.931 . S
C1151 C1150 1.370 . S
C1151 C1155 1.408 . S
C1152 C1150 1.363 . S
C1152 C1153 1.370 . S
C1152 C1156 1.524 . S
C1153 C1145 1.503 . S
C1153 C1152 1.370 . S
C1153 C1154 1.403 . S
C1154 C1153 1.403 . S
C1154 C1155 1.404 . S
C1154 C1157 1.539 . S
C1155 C1151 1.408 . S
C1155 C1154 1.404 . S
C1155 H1167 0.930 . S
C1156 C1152 1.524 . S
C1156 H1168 0.956 . S
C1156 H1169 0.961 . S
C1156 H1170 0.961 . S
C1157 C1154 1.539 . S
C1157 H1171 0.958 . S
C1157 H1172 0.961 . S
C1157 H1173 0.960 . S
H1158 C1142 0.931 . S
H1159 C1147 0.929 . S
H1160 C1148 0.960 . S
H1161 C1148 0.962 . S
H1162 C1148 0.960 . S
H1163 C1149 0.961 . S
H1164 C1149 0.961 . S
H1165 C1149 0.961 . S
H1166 C1150 0.931 . S
H1167 C1155 0.930 . S
H1168 C1156 0.956 . S
H1169 C1156 0.961 . S
H1170 C1156 0.961 . S
H1171 C1157 0.958 . S
H1172 C1157 0.961 . S
H1173 C1157 0.960 . S
C1174 C1175 1.391 . S
C1174 C1176 1.394 . S
C1174 H1190 0.931 . S
C1175 C1174 1.391 . S
C1175 C1179 1.376 . S
C1176 C1174 1.394 . S
C1176 C1177 1.369 . S
C1176 C1180 1.531 . S
C1177 C1176 1.369 . S
C1177 C1178 1.410 . S
C1177 C1185 1.503 . S
C1178 C1177 1.410 . S
C1178 C1179 1.392 . S
C1178 C1181 1.511 . S
C1179 C1175 1.376 . S
C1179 C1178 1.392 . S
C1179 H1191 0.929 . S
C1180 C1176 1.531 . S
C1180 H1192 0.960 . S
C1180 H1193 0.962 . S
C1180 H1194 0.960 . S
C1181 C1178 1.511 . S
C1181 H1195 0.961 . S
C1181 H1196 0.961 . S
C1181 H1197 0.961 . S
C1182 C1183 1.370 . S
C1182 C1184 1.363 . S
C1182 H1198 0.931 . S
C1183 C1182 1.370 . S
C1183 C1187 1.408 . S
C1184 C1182 1.363 . S
C1184 C1185 1.370 . S
C1184 C1188 1.524 . S
C1185 C1177 1.503 . S
C1185 C1184 1.370 . S
C1185 C1186 1.403 . S
C1186 C1185 1.403 . S
C1186 C1187 1.404 . S
C1186 C1189 1.539 . S
C1187 C1183 1.408 . S
C1187 C1186 1.404 . S
C1187 H1199 0.930 . S
C1188 C1184 1.524 . S
C1188 H1200 0.956 . S
C1188 H1201 0.961 . S
C1188 H1202 0.961 . S
C1189 C1186 1.539 . S
C1189 H1203 0.958 . S
C1189 H1204 0.961 . S
C1189 H1205 0.960 . S
H1190 C1174 0.931 . S
H1191 C1179 0.929 . S
H1192 C1180 0.960 . S
H1193 C1180 0.962 . S
H1194 C1180 0.960 . S
H1195 C1181 0.961 . S
H1196 C1181 0.961 . S
H1197 C1181 0.961 . S
H1198 C1182 0.931 . S
H1199 C1187 0.930 . S
H1200 C1188 0.956 . S
H1201 C1188 0.961 . S
H1202 C1188 0.961 . S
H1203 C1189 0.958 . S
H1204 C1189 0.961 . S
H1205 C1189 0.960 . S
C1206 C1207 1.391 . S
C1206 C1208 1.394 . S
C1206 H1222 0.931 . S
C1207 C1206 1.391 . S
C1207 C1211 1.376 . S
C1208 C1206 1.394 . S
C1208 C1209 1.369 . S
C1208 C1212 1.531 . S
C1209 C1208 1.369 . S
C1209 C1210 1.410 . S
C1209 C1217 1.503 1_565 S
C1210 C1209 1.410 . S
C1210 C1211 1.392 . S
C1210 C1213 1.511 . S
C1211 C1207 1.376 . S
C1211 C1210 1.392 . S
C1211 H1223 0.929 . S
C1212 C1208 1.531 . S
C1212 H1224 0.960 . S
C1212 H1225 0.962 . S
C1212 H1226 0.960 . S
C1213 C1210 1.511 . S
C1213 H1227 0.961 . S
C1213 H1228 0.961 1_565 S
C1213 H1229 0.961 . S
C1214 C1215 1.370 . S
C1214 C1216 1.363 . S
C1214 H1230 0.931 . S
C1215 C1214 1.370 . S
C1215 C1219 1.408 . S
C1216 C1214 1.363 . S
C1216 C1217 1.370 . S
C1216 C1220 1.524 . S
C1217 C1209 1.503 1_545 S
C1217 C1216 1.370 . S
C1217 C1218 1.403 . S
C1218 C1217 1.403 . S
C1218 C1219 1.404 . S
C1218 C1221 1.539 1_545 S
C1219 C1215 1.408 . S
C1219 C1218 1.404 . S
C1219 H1231 0.930 . S
C1220 C1216 1.524 . S
C1220 H1232 0.956 . S
C1220 H1233 0.961 . S
C1220 H1234 0.961 . S
C1221 C1218 1.539 1_565 S
C1221 H1235 0.958 . S
C1221 H1236 0.961 1_565 S
C1221 H1237 0.960 . S
H1222 C1206 0.931 . S
H1223 C1211 0.929 . S
H1224 C1212 0.960 . S
H1225 C1212 0.962 . S
H1226 C1212 0.960 . S
H1227 C1213 0.961 . S
H1228 C1213 0.961 1_545 S
H1229 C1213 0.961 . S
H1230 C1214 0.931 . S
H1231 C1219 0.930 . S
H1232 C1220 0.956 . S
H1233 C1220 0.961 . S
H1234 C1220 0.961 . S
H1235 C1221 0.958 . S
H1236 C1221 0.961 1_545 S
H1237 C1221 0.960 . S
C1238 C1239 1.391 . S
C1238 C1240 1.394 . S
C1238 H1254 0.931 . S
C1239 C1238 1.391 . S
C1239 C1243 1.376 . S
C1240 C1238 1.394 . S
C1240 C1241 1.369 . S
C1240 C1244 1.531 1_455 S
C1241 C1240 1.369 . S
C1241 C1242 1.410 . S
C1241 C1249 1.503 1_455 S
C1242 C1241 1.410 . S
C1242 C1243 1.392 . S
C1242 C1245 1.511 . S
C1243 C1239 1.376 . S
C1243 C1242 1.392 . S
C1243 H1255 0.929 . S
C1244 C1240 1.531 1_655 S
C1244 H1256 0.960 . S
C1244 H1257 0.962 . S
C1244 H1258 0.960 . S
C1245 C1242 1.511 . S
C1245 H1259 0.961 . S
C1245 H1260 0.961 . S
C1245 H1261 0.961 . S
C1246 C1247 1.370 . S
C1246 C1248 1.363 . S
C1246 H1262 0.931 . S
C1247 C1246 1.370 . S
C1247 C1251 1.408 . S
C1248 C1246 1.363 . S
C1248 C1249 1.370 . S
C1248 C1252 1.524 1_655 S
C1249 C1241 1.503 1_655 S
C1249 C1248 1.370 . S
C1249 C1250 1.403 . S
C1250 C1249 1.403 . S
C1250 C1251 1.404 . S
C1250 C1253 1.539 . S
C1251 C1247 1.408 . S
C1251 C1250 1.404 . S
C1251 H1263 0.930 . S
C1252 C1248 1.524 1_455 S
C1252 H1264 0.956 . S
C1252 H1265 0.961 . S
C1252 H1266 0.961 . S
C1253 C1250 1.539 . S
C1253 H1267 0.958 . S
C1253 H1268 0.961 . S
C1253 H1269 0.960 . S
H1254 C1238 0.931 . S
H1255 C1243 0.929 . S
H1256 C1244 0.960 . S
H1257 C1244 0.962 . S
H1258 C1244 0.960 . S
H1259 C1245 0.961 . S
H1260 C1245 0.961 . S
H1261 C1245 0.961 . S
H1262 C1246 0.931 . S
H1263 C1251 0.930 . S
H1264 C1252 0.956 . S
H1265 C1252 0.961 . S
H1266 C1252 0.961 . S
H1267 C1253 0.958 . S
H1268 C1253 0.961 . S
H1269 C1253 0.960 . S
C1270 C1271 1.391 . S
C1270 C1272 1.394 . S
C1270 H1286 0.931 . S
C1271 C1270 1.391 . S
C1271 C1275 1.376 . S
C1272 C1270 1.394 . S
C1272 C1273 1.369 . S
C1272 C1276 1.531 . S
C1273 C1272 1.369 . S
C1273 C1274 1.410 . S
C1273 C1281 1.503 . S
C1274 C1273 1.410 . S
C1274 C1275 1.392 . S
C1274 C1277 1.511 . S
C1275 C1271 1.376 . S
C1275 C1274 1.392 . S
C1275 H1287 0.929 . S
C1276 C1272 1.531 . S
C1276 H1288 0.960 . S
C1276 H1289 0.962 . S
C1276 H1290 0.960 . S
C1277 C1274 1.511 . S
C1277 H1291 0.961 . S
C1277 H1292 0.961 . S
C1277 H1293 0.961 . S
C1278 C1279 1.370 . S
C1278 C1280 1.363 . S
C1278 H1294 0.931 . S
C1279 C1278 1.370 . S
C1279 C1283 1.408 . S
C1280 C1278 1.363 . S
C1280 C1281 1.370 . S
C1280 C1284 1.524 . S
C1281 C1273 1.503 . S
C1281 C1280 1.370 . S
C1281 C1282 1.403 . S
C1282 C1281 1.403 . S
C1282 C1283 1.404 . S
C1282 C1285 1.539 . S
C1283 C1279 1.408 . S
C1283 C1282 1.404 . S
C1283 H1295 0.930 . S
C1284 C1280 1.524 . S
C1284 H1296 0.956 . S
C1284 H1297 0.961 . S
C1284 H1298 0.961 . S
C1285 C1282 1.539 . S
C1285 H1299 0.958 . S
C1285 H1300 0.961 . S
C1285 H1301 0.960 . S
H1286 C1270 0.931 . S
H1287 C1275 0.929 . S
H1288 C1276 0.960 . S
H1289 C1276 0.962 . S
H1290 C1276 0.960 . S
H1291 C1277 0.961 . S
H1292 C1277 0.961 . S
H1293 C1277 0.961 . S
H1294 C1278 0.931 . S
H1295 C1283 0.930 . S
H1296 C1284 0.956 . S
H1297 C1284 0.961 . S
H1298 C1284 0.961 . S
H1299 C1285 0.958 . S
H1300 C1285 0.961 . S
H1301 C1285 0.960 . S
C1302 C1303 1.391 . S
C1302 C1304 1.394 . S
C1302 H1318 0.931 . S
C1303 C1302 1.391 . S
C1303 C1307 1.376 . S
C1304 C1302 1.394 . S
C1304 C1305 1.369 . S
C1304 C1308 1.531 . S
C1305 C1304 1.369 . S
C1305 C1306 1.410 . S
C1305 C1313 1.503 1_455 S
C1306 C1305 1.410 . S
C1306 C1307 1.392 . S
C1306 C1309 1.511 . S
C1307 C1303 1.376 . S
C1307 C1306 1.392 . S
C1307 H1319 0.929 . S
C1308 C1304 1.531 . S
C1308 H1320 0.960 1_455 S
C1308 H1321 0.962 . S
C1308 H1322 0.960 . S
C1309 C1306 1.511 . S
C1309 H1323 0.961 . S
C1309 H1324 0.961 . S
C1309 H1325 0.961 . S
C1310 C1311 1.370 . S
C1310 C1312 1.363 . S
C1310 H1326 0.931 . S
C1311 C1310 1.370 . S
C1311 C1315 1.408 . S
C1312 C1310 1.363 . S
C1312 C1313 1.370 . S
C1312 C1316 1.524 1_655 S
C1313 C1305 1.503 1_655 S
C1313 C1312 1.370 . S
C1313 C1314 1.403 . S
C1314 C1313 1.403 . S
C1314 C1315 1.404 . S
C1314 C1317 1.539 . S
C1315 C1311 1.408 . S
C1315 C1314 1.404 . S
C1315 H1327 0.930 . S
C1316 C1312 1.524 1_455 S
C1316 H1328 0.956 . S
C1316 H1329 0.961 . S
C1316 H1330 0.961 . S
C1317 C1314 1.539 . S
C1317 H1331 0.958 . S
C1317 H1332 0.961 . S
C1317 H1333 0.960 . S
H1318 C1302 0.931 . S
H1319 C1307 0.929 . S
H1320 C1308 0.960 1_655 S
H1321 C1308 0.962 . S
H1322 C1308 0.960 . S
H1323 C1309 0.961 . S
H1324 C1309 0.961 . S
H1325 C1309 0.961 . S
H1326 C1310 0.931 . S
H1327 C1315 0.930 . S
H1328 C1316 0.956 . S
H1329 C1316 0.961 . S
H1330 C1316 0.961 . S
H1331 C1317 0.958 . S
H1332 C1317 0.961 . S
H1333 C1317 0.960 . S
C1334 C1335 1.391 . S
C1334 C1336 1.394 . S
C1334 H1350 0.931 . S
C1335 C1334 1.391 . S
C1335 C1339 1.376 . S
C1336 C1334 1.394 . S
C1336 C1337 1.369 . S
C1336 C1340 1.531 . S
C1337 C1336 1.369 . S
C1337 C1338 1.410 . S
C1337 C1345 1.503 . S
C1338 C1337 1.410 . S
C1338 C1339 1.392 . S
C1338 C1341 1.511 . S
C1339 C1335 1.376 . S
C1339 C1338 1.392 . S
C1339 H1351 0.929 . S
C1340 C1336 1.531 . S
C1340 H1352 0.960 . S
C1340 H1353 0.962 . S
C1340 H1354 0.960 . S
C1341 C1338 1.511 . S
C1341 H1355 0.961 . S
C1341 H1356 0.961 . S
C1341 H1357 0.961 . S
C1342 C1343 1.370 . S
C1342 C1344 1.363 . S
C1342 H1358 0.931 . S
C1343 C1342 1.370 . S
C1343 C1347 1.408 . S
C1344 C1342 1.363 . S
C1344 C1345 1.370 . S
C1344 C1348 1.524 . S
C1345 C1337 1.503 . S
C1345 C1344 1.370 . S
C1345 C1346 1.403 . S
C1346 C1345 1.403 . S
C1346 C1347 1.404 . S
C1346 C1349 1.539 . S
C1347 C1343 1.408 . S
C1347 C1346 1.404 . S
C1347 H1359 0.930 . S
C1348 C1344 1.524 . S
C1348 H1360 0.956 . S
C1348 H1361 0.961 . S
C1348 H1362 0.961 . S
C1349 C1346 1.539 . S
C1349 H1363 0.958 . S
C1349 H1364 0.961 . S
C1349 H1365 0.960 . S
H1350 C1334 0.931 . S
H1351 C1339 0.929 . S
H1352 C1340 0.960 . S
H1353 C1340 0.962 . S
H1354 C1340 0.960 . S
H1355 C1341 0.961 . S
H1356 C1341 0.961 . S
H1357 C1341 0.961 . S
H1358 C1342 0.931 . S
H1359 C1347 0.930 . S
H1360 C1348 0.956 . S
H1361 C1348 0.961 . S
H1362 C1348 0.961 . S
H1363 C1349 0.958 . S
H1364 C1349 0.961 . S
H1365 C1349 0.960 . S
C1366 C1367 1.391 . S
C1366 C1368 1.394 . S
C1366 H1382 0.931 . S
C1367 C1366 1.391 . S
C1367 C1371 1.376 . S
C1368 C1366 1.394 . S
C1368 C1369 1.369 . S
C1368 C1372 1.531 . S
C1369 C1368 1.369 . S
C1369 C1370 1.410 . S
C1369 C1377 1.503 1_565 S
C1370 C1369 1.410 . S
C1370 C1371 1.392 . S
C1370 C1373 1.511 . S
C1371 C1367 1.376 . S
C1371 C1370 1.392 . S
C1371 H1383 0.929 . S
C1372 C1368 1.531 . S
C1372 H1384 0.960 . S
C1372 H1385 0.962 . S
C1372 H1386 0.960 . S
C1373 C1370 1.511 . S
C1373 H1387 0.961 . S
C1373 H1388 0.961 1_565 S
C1373 H1389 0.961 . S
C1374 C1375 1.370 . S
C1374 C1376 1.363 . S
C1374 H1390 0.931 . S
C1375 C1374 1.370 . S
C1375 C1379 1.408 . S
C1376 C1374 1.363 . S
C1376 C1377 1.370 . S
C1376 C1380 1.524 . S
C1377 C1369 1.503 1_545 S
C1377 C1376 1.370 . S
C1377 C1378 1.403 . S
C1378 C1377 1.403 . S
C1378 C1379 1.404 . S
C1378 C1381 1.539 . S
C1379 C1375 1.408 . S
C1379 C1378 1.404 . S
C1379 H1391 0.930 . S
C1380 C1376 1.524 . S
C1380 H1392 0.949 1_545 S
C1380 H1393 0.961 . S
C1380 H1394 0.961 . S
C1381 C1378 1.539 . S
C1381 H1395 0.955 1_545 S
C1381 H1396 0.961 . S
C1381 H1397 0.960 1_545 S
H1382 C1366 0.931 . S
H1383 C1371 0.929 . S
H1384 C1372 0.960 . S
H1385 C1372 0.962 . S
H1386 C1372 0.960 . S
H1387 C1373 0.961 . S
H1388 C1373 0.961 1_545 S
H1389 C1373 0.961 . S
H1390 C1374 0.931 . S
H1391 C1379 0.930 . S
H1392 C1380 0.949 1_565 S
H1393 C1380 0.961 . S
H1394 C1380 0.961 . S
H1395 C1381 0.955 1_565 S
H1396 C1381 0.961 . S
H1397 C1381 0.960 1_565 S
C1398 C1399 1.391 . S
C1398 C1400 1.394 . S
C1398 H1414 0.931 . S
C1399 C1398 1.391 . S
C1399 C1403 1.376 . S
C1400 C1398 1.394 . S
C1400 C1401 1.369 . S
C1400 C1404 1.531 . S
C1401 C1400 1.369 . S
C1401 C1402 1.410 . S
C1401 C1409 1.503 . S
C1402 C1401 1.410 . S
C1402 C1403 1.392 . S
C1402 C1405 1.511 . S
C1403 C1399 1.376 . S
C1403 C1402 1.392 . S
C1403 H1415 0.929 . S
C1404 C1400 1.531 . S
C1404 H1416 0.960 . S
C1404 H1417 0.962 . S
C1404 H1418 0.960 . S
C1405 C1402 1.511 . S
C1405 H1419 0.961 . S
C1405 H1420 0.961 . S
C1405 H1421 0.961 . S
C1406 C1407 1.370 . S
C1406 C1408 1.363 . S
C1406 H1422 0.931 . S
C1407 C1406 1.370 . S
C1407 C1411 1.408 . S
C1408 C1406 1.363 . S
C1408 C1409 1.370 . S
C1408 C1412 1.524 . S
C1409 C1401 1.503 . S
C1409 C1408 1.370 . S
C1409 C1410 1.403 . S
C1410 C1409 1.403 . S
C1410 C1411 1.404 . S
C1410 C1413 1.539 . S
C1411 C1407 1.408 . S
C1411 C1410 1.404 . S
C1411 H1423 0.930 . S
C1412 C1408 1.524 . S
C1412 H1424 0.956 . S
C1412 H1425 0.961 . S
C1412 H1426 0.961 . S
C1413 C1410 1.539 . S
C1413 H1427 0.958 . S
C1413 H1428 0.961 . S
C1413 H1429 0.960 . S
H1414 C1398 0.931 . S
H1415 C1403 0.929 . S
H1416 C1404 0.960 . S
H1417 C1404 0.962 . S
H1418 C1404 0.960 . S
H1419 C1405 0.961 . S
H1420 C1405 0.961 . S
H1421 C1405 0.961 . S
H1422 C1406 0.931 . S
H1423 C1411 0.930 . S
H1424 C1412 0.956 . S
H1425 C1412 0.961 . S
H1426 C1412 0.961 . S
H1427 C1413 0.958 . S
H1428 C1413 0.961 . S
H1429 C1413 0.960 . S
C1430 C1431 1.391 . S
C1430 C1432 1.394 . S
C1430 H1446 0.931 . S
C1431 C1430 1.391 . S
C1431 C1435 1.376 . S
C1432 C1430 1.394 . S
C1432 C1433 1.369 . S
C1432 C1436 1.531 . S
C1433 C1432 1.369 . S
C1433 C1434 1.410 . S
C1433 C1441 1.503 . S
C1434 C1433 1.410 . S
C1434 C1435 1.392 . S
C1434 C1437 1.511 . S
C1435 C1431 1.376 . S
C1435 C1434 1.392 . S
C1435 H1447 0.929 . S
C1436 C1432 1.531 . S
C1436 H1448 0.960 . S
C1436 H1449 0.962 . S
C1436 H1450 0.960 . S
C1437 C1434 1.511 . S
C1437 H1451 0.961 . S
C1437 H1452 0.961 . S
C1437 H1453 0.961 . S
C1438 C1439 1.370 . S
C1438 C1440 1.363 . S
C1438 H1454 0.931 . S
C1439 C1438 1.370 . S
C1439 C1443 1.408 . S
C1440 C1438 1.363 . S
C1440 C1441 1.370 . S
C1440 C1444 1.524 . S
C1441 C1433 1.503 . S
C1441 C1440 1.370 . S
C1441 C1442 1.403 . S
C1442 C1441 1.403 . S
C1442 C1443 1.404 . S
C1442 C1445 1.539 . S
C1443 C1439 1.408 . S
C1443 C1442 1.404 . S
C1443 H1455 0.930 . S
C1444 C1440 1.524 . S
C1444 H1456 0.956 . S
C1444 H1457 0.961 . S
C1444 H1458 0.961 . S
C1445 C1442 1.539 . S
C1445 H1459 0.958 . S
C1445 H1460 0.961 . S
C1445 H1461 0.960 . S
H1446 C1430 0.931 . S
H1447 C1435 0.929 . S
H1448 C1436 0.960 . S
H1449 C1436 0.962 . S
H1450 C1436 0.960 . S
H1451 C1437 0.961 . S
H1452 C1437 0.961 . S
H1453 C1437 0.961 . S
H1454 C1438 0.931 . S
H1455 C1443 0.930 . S
H1456 C1444 0.956 . S
H1457 C1444 0.961 . S
H1458 C1444 0.961 . S
H1459 C1445 0.958 . S
H1460 C1445 0.961 . S
H1461 C1445 0.960 . S
C1462 C1463 1.391 . S
C1462 C1464 1.394 . S
C1462 H1478 0.931 . S
C1463 C1462 1.391 . S
C1463 C1467 1.376 . S
C1464 C1462 1.394 . S
C1464 C1465 1.369 . S
C1464 C1468 1.531 . S
C1465 C1464 1.369 . S
C1465 C1466 1.410 . S
C1465 C1473 1.503 . S
C1466 C1465 1.410 . S
C1466 C1467 1.392 . S
C1466 C1469 1.511 . S
C1467 C1463 1.376 . S
C1467 C1466 1.392 . S
C1467 H1479 0.929 . S
C1468 C1464 1.531 . S
C1468 H1480 0.960 . S
C1468 H1481 0.962 . S
C1468 H1482 0.960 . S
C1469 C1466 1.511 . S
C1469 H1483 0.961 . S
C1469 H1484 0.961 . S
C1469 H1485 0.961 . S
C1470 C1471 1.370 . S
C1470 C1472 1.363 . S
C1470 H1486 0.931 . S
C1471 C1470 1.370 . S
C1471 C1475 1.408 . S
C1472 C1470 1.363 . S
C1472 C1473 1.370 . S
C1472 C1476 1.524 . S
C1473 C1465 1.503 . S
C1473 C1472 1.370 . S
C1473 C1474 1.403 . S
C1474 C1473 1.403 . S
C1474 C1475 1.404 . S
C1474 C1477 1.539 . S
C1475 C1471 1.408 . S
C1475 C1474 1.404 . S
C1475 H1487 0.930 . S
C1476 C1472 1.524 . S
C1476 H1488 0.956 . S
C1476 H1489 0.961 . S
C1476 H1490 0.961 . S
C1477 C1474 1.539 . S
C1477 H1491 0.958 . S
C1477 H1492 0.961 . S
C1477 H1493 0.960 . S
H1478 C1462 0.931 . S
H1479 C1467 0.929 . S
H1480 C1468 0.960 . S
H1481 C1468 0.962 . S
H1482 C1468 0.960 . S
H1483 C1469 0.961 . S
H1484 C1469 0.961 . S
H1485 C1469 0.961 . S
H1486 C1470 0.931 . S
H1487 C1475 0.930 . S
H1488 C1476 0.956 . S
H1489 C1476 0.961 . S
H1490 C1476 0.961 . S
H1491 C1477 0.958 . S
H1492 C1477 0.961 . S
H1493 C1477 0.960 . S
C1494 C1495 1.391 . S
C1494 C1496 1.394 . S
C1494 H1510 0.931 . S
C1495 C1494 1.391 . S
C1495 C1499 1.376 . S
C1496 C1494 1.394 . S
C1496 C1497 1.369 . S
C1496 C1500 1.531 . S
C1497 C1496 1.369 . S
C1497 C1498 1.410 . S
C1497 C1505 1.503 . S
C1498 C1497 1.410 . S
C1498 C1499 1.392 . S
C1498 C1501 1.511 . S
C1499 C1495 1.376 . S
C1499 C1498 1.392 . S
C1499 H1511 0.929 . S
C1500 C1496 1.531 . S
C1500 H1512 0.960 . S
C1500 H1513 0.962 . S
C1500 H1514 0.960 . S
C1501 C1498 1.511 . S
C1501 H1515 0.961 . S
C1501 H1516 0.961 . S
C1501 H1517 0.961 1_565 S
C1502 C1503 1.370 . S
C1502 C1504 1.363 . S
C1502 H1518 0.931 . S
C1503 C1502 1.370 . S
C1503 C1507 1.408 1_565 S
C1504 C1502 1.363 . S
C1504 C1505 1.370 . S
C1504 C1508 1.524 . S
C1505 C1497 1.503 . S
C1505 C1504 1.370 . S
C1505 C1506 1.403 1_565 S
C1506 C1505 1.403 1_545 S
C1506 C1507 1.404 . S
C1506 C1509 1.539 . S
C1507 C1503 1.408 1_545 S
C1507 C1506 1.404 . S
C1507 H1519 0.930 . S
C1508 C1504 1.524 . S
C1508 H1520 0.956 . S
C1508 H1521 0.961 . S
C1508 H1522 0.961 . S
C1509 C1506 1.539 . S
C1509 H1523 0.958 . S
C1509 H1524 0.961 . S
C1509 H1525 0.960 . S
H1510 C1494 0.931 . S
H1511 C1499 0.929 . S
H1512 C1500 0.960 . S
H1513 C1500 0.962 . S
H1514 C1500 0.960 . S
H1515 C1501 0.961 . S
H1516 C1501 0.961 . S
H1517 C1501 0.961 1_545 S
H1518 C1502 0.931 . S
H1519 C1507 0.930 . S
H1520 C1508 0.956 . S
H1521 C1508 0.961 . S
H1522 C1508 0.961 . S
H1523 C1509 0.958 . S
H1524 C1509 0.961 . S
H1525 C1509 0.960 . S
C1526 C1527 1.391 . S
C1526 C1528 1.394 . S
C1526 H1542 0.931 . S
C1527 C1526 1.391 . S
C1527 C1531 1.376 . S
C1528 C1526 1.394 . S
C1528 C1529 1.369 . S
C1528 C1532 1.531 . S
C1529 C1528 1.369 . S
C1529 C1530 1.410 . S
C1529 C1537 1.503 . S
C1530 C1529 1.410 . S
C1530 C1531 1.392 . S
C1530 C1533 1.511 . S
C1531 C1527 1.376 . S
C1531 C1530 1.392 . S
C1531 H1543 0.929 . S
C1532 C1528 1.531 . S
C1532 H1544 0.960 . S
C1532 H1545 0.962 . S
C1532 H1546 0.960 . S
C1533 C1530 1.511 . S
C1533 H1547 0.961 . S
C1533 H1548 0.961 . S
C1533 H1549 0.961 . S
C1534 C1535 1.370 1_655 S
C1534 C1536 1.363 1_655 S
C1534 H1550 0.931 . S
C1535 C1534 1.370 1_455 S
C1535 C1539 1.408 . S
C1536 C1534 1.363 1_455 S
C1536 C1537 1.370 . S
C1536 C1540 1.524 1_455 S
C1537 C1529 1.503 . S
C1537 C1536 1.370 . S
C1537 C1538 1.403 . S
C1538 C1537 1.403 . S
C1538 C1539 1.404 . S
C1538 C1541 1.539 . S
C1539 C1535 1.408 . S
C1539 C1538 1.404 . S
C1539 H1551 0.930 . S
C1540 C1536 1.524 1_655 S
C1540 H1552 0.956 . S
C1540 H1553 0.961 . S
C1540 H1554 0.961 . S
C1541 C1538 1.539 . S
C1541 H1555 0.958 . S
C1541 H1556 0.961 . S
C1541 H1557 0.960 . S
H1542 C1526 0.931 . S
H1543 C1531 0.929 . S
H1544 C1532 0.960 . S
H1545 C1532 0.962 . S
H1546 C1532 0.960 . S
H1547 C1533 0.961 . S
H1548 C1533 0.961 . S
H1549 C1533 0.961 . S
H1550 C1534 0.931 . S
H1551 C1539 0.930 . S
H1552 C1540 0.956 . S
H1553 C1540 0.961 . S
H1554 C1540 0.961 . S
H1555 C1541 0.958 . S
H1556 C1541 0.961 . S
H1557 C1541 0.960 . S
C1558 C1559 1.391 . S
C1558 C1560 1.394 . S
C1558 H1574 0.931 . S
C1559 C1558 1.391 . S
C1559 C1563 1.376 . S
C1560 C1558 1.394 . S
C1560 C1561 1.369 . S
C1560 C1564 1.531 . S
C1561 C1560 1.369 . S
C1561 C1562 1.410 . S
C1561 C1569 1.503 . S
C1562 C1561 1.410 . S
C1562 C1563 1.392 . S
C1562 C1565 1.511 . S
C1563 C1559 1.376 . S
C1563 C1562 1.392 . S
C1563 H1575 0.929 . S
C1564 C1560 1.531 . S
C1564 H1576 0.960 . S
C1564 H1577 0.962 . S
C1564 H1578 0.960 . S
C1565 C1562 1.511 . S
C1565 H1579 0.961 . S
C1565 H1580 0.961 . S
C1565 H1581 0.961 . S
C1566 C1567 1.370 . S
C1566 C1568 1.363 . S
C1566 H1582 0.931 . S
C1567 C1566 1.370 . S
C1567 C1571 1.408 . S
C1568 C1566 1.363 . S
C1568 C1569 1.370 . S
C1568 C1572 1.524 . S
C1569 C1561 1.503 . S
C1569 C1568 1.370 . S
C1569 C1570 1.403 . S
C1570 C1569 1.403 . S
C1570 C1571 1.404 . S
C1570 C1573 1.539 . S
C1571 C1567 1.408 . S
C1571 C1570 1.404 . S
C1571 H1583 0.930 . S
C1572 C1568 1.524 . S
C1572 H1584 0.956 . S
C1572 H1585 0.961 . S
C1572 H1586 0.961 . S
C1573 C1570 1.539 . S
C1573 H1587 0.958 . S
C1573 H1588 0.961 . S
C1573 H1589 0.960 . S
H1574 C1558 0.931 . S
H1575 C1563 0.929 . S
H1576 C1564 0.960 . S
H1577 C1564 0.962 . S
H1578 C1564 0.960 . S
H1579 C1565 0.961 . S
H1580 C1565 0.961 . S
H1581 C1565 0.961 . S
H1582 C1566 0.931 . S
H1583 C1571 0.930 . S
H1584 C1572 0.956 . S
H1585 C1572 0.961 . S
H1586 C1572 0.961 . S
H1587 C1573 0.958 . S
H1588 C1573 0.961 . S
H1589 C1573 0.960 . S
C1590 C1591 1.391 . S
C1590 C1592 1.394 . S
C1590 H1606 0.931 . S
C1591 C1590 1.391 . S
C1591 C1595 1.376 . S
C1592 C1590 1.394 . S
C1592 C1593 1.369 . S
C1592 C1596 1.531 . S
C1593 C1592 1.369 . S
C1593 C1594 1.410 . S
C1593 C1601 1.503 . S
C1594 C1593 1.410 . S
C1594 C1595 1.392 . S
C1594 C1597 1.511 1_655 S
C1595 C1591 1.376 . S
C1595 C1594 1.392 . S
C1595 H1607 0.929 . S
C1596 C1592 1.531 . S
C1596 H1608 0.960 . S
C1596 H1609 0.962 . S
C1596 H1610 0.960 . S
C1597 C1594 1.511 1_455 S
C1597 H1611 0.961 . S
C1597 H1612 0.961 . S
C1597 H1613 0.961 . S
C1598 C1599 1.370 . S
C1598 C1600 1.363 . S
C1598 H1614 0.931 . S
C1599 C1598 1.370 . S
C1599 C1603 1.408 . S
C1600 C1598 1.363 . S
C1600 C1601 1.370 . S
C1600 C1604 1.524 . S
C1601 C1593 1.503 . S
C1601 C1600 1.370 . S
C1601 C1602 1.403 . S
C1602 C1601 1.403 . S
C1602 C1603 1.404 . S
C1602 C1605 1.539 . S
C1603 C1599 1.408 . S
C1603 C1602 1.404 . S
C1603 H1615 0.930 . S
C1604 C1600 1.524 . S
C1604 H1616 0.956 . S
C1604 H1617 0.961 . S
C1604 H1618 0.961 . S
C1605 C1602 1.539 . S
C1605 H1619 0.958 . S
C1605 H1620 0.961 . S
C1605 H1621 0.960 . S
H1606 C1590 0.931 . S
H1607 C1595 0.929 . S
H1608 C1596 0.960 . S
H1609 C1596 0.962 . S
H1610 C1596 0.960 . S
H1611 C1597 0.961 . S
H1612 C1597 0.961 . S
H1613 C1597 0.961 . S
H1614 C1598 0.931 . S
H1615 C1603 0.930 . S
H1616 C1604 0.956 . S
H1617 C1604 0.961 . S
H1618 C1604 0.961 . S
H1619 C1605 0.958 . S
H1620 C1605 0.961 . S
H1621 C1605 0.960 . S
C1622 C1623 1.391 . S
C1622 C1624 1.394 . S
C1622 H1638 0.931 . S
C1623 C1622 1.391 . S
C1623 C1627 1.376 . S
C1624 C1622 1.394 . S
C1624 C1625 1.369 . S
C1624 C1628 1.531 . S
C1625 C1624 1.369 . S
C1625 C1626 1.410 . S
C1625 C1633 1.503 . S
C1626 C1625 1.410 . S
C1626 C1627 1.392 . S
C1626 C1629 1.511 . S
C1627 C1623 1.376 . S
C1627 C1626 1.392 . S
C1627 H1639 0.929 . S
C1628 C1624 1.531 . S
C1628 H1640 0.960 . S
C1628 H1641 0.962 . S
C1628 H1642 0.960 . S
C1629 C1626 1.511 . S
C1629 H1643 0.961 . S
C1629 H1644 0.961 . S
C1629 H1645 0.961 . S
C1630 C1631 1.370 . S
C1630 C1632 1.363 . S
C1630 H1646 0.931 . S
C1631 C1630 1.370 . S
C1631 C1635 1.408 . S
C1632 C1630 1.363 . S
C1632 C1633 1.370 . S
C1632 C1636 1.524 . S
C1633 C1625 1.503 . S
C1633 C1632 1.370 . S
C1633 C1634 1.403 . S
C1634 C1633 1.403 . S
C1634 C1635 1.404 . S
C1634 C1637 1.539 . S
C1635 C1631 1.408 . S
C1635 C1634 1.404 . S
C1635 H1647 0.930 . S
C1636 C1632 1.524 . S
C1636 H1648 0.956 . S
C1636 H1649 0.961 . S
C1636 H1650 0.961 . S
C1637 C1634 1.539 . S
C1637 H1651 0.958 . S
C1637 H1652 0.961 . S
C1637 H1653 0.960 . S
H1638 C1622 0.931 . S
H1639 C1627 0.929 . S
H1640 C1628 0.960 . S
H1641 C1628 0.962 . S
H1642 C1628 0.960 . S
H1643 C1629 0.961 . S
H1644 C1629 0.961 . S
H1645 C1629 0.961 . S
H1646 C1630 0.931 . S
H1647 C1635 0.930 . S
H1648 C1636 0.956 . S
H1649 C1636 0.961 . S
H1650 C1636 0.961 . S
H1651 C1637 0.958 . S
H1652 C1637 0.961 . S
H1653 C1637 0.960 . S
C1654 C1655 1.391 . S
C1654 C1656 1.394 . S
C1654 H1670 0.931 . S
C1655 C1654 1.391 . S
C1655 C1659 1.376 . S
C1656 C1654 1.394 . S
C1656 C1657 1.369 . S
C1656 C1660 1.531 . S
C1657 C1656 1.369 . S
C1657 C1658 1.410 . S
C1657 C1665 1.503 . S
C1658 C1657 1.410 . S
C1658 C1659 1.392 . S
C1658 C1661 1.511 . S
C1659 C1655 1.376 . S
C1659 C1658 1.392 . S
C1659 H1671 0.929 . S
C1660 C1656 1.531 . S
C1660 H1672 0.960 . S
C1660 H1673 0.962 . S
C1660 H1674 0.960 . S
C1661 C1658 1.511 . S
C1661 H1675 0.961 1_545 S
C1661 H1676 0.961 1_545 S
C1661 H1677 0.961 . S
C1662 C1663 1.370 1_565 S
C1662 C1664 1.363 1_565 S
C1662 H1678 0.931 . S
C1663 C1662 1.370 1_545 S
C1663 C1667 1.408 . S
C1664 C1662 1.363 1_545 S
C1664 C1665 1.370 . S
C1664 C1668 1.524 1_545 S
C1665 C1657 1.503 . S
C1665 C1664 1.370 . S
C1665 C1666 1.403 . S
C1666 C1665 1.403 . S
C1666 C1667 1.404 . S
C1666 C1669 1.539 . S
C1667 C1663 1.408 . S
C1667 C1666 1.404 . S
C1667 H1679 0.930 . S
C1668 C1664 1.524 1_565 S
C1668 H1680 0.956 1_565 S
C1668 H1681 0.961 . S
C1668 H1682 0.961 . S
C1669 C1666 1.539 . S
C1669 H1683 0.958 . S
C1669 H1684 0.961 . S
C1669 H1685 0.960 . S
H1670 C1654 0.931 . S
H1671 C1659 0.929 . S
H1672 C1660 0.960 . S
H1673 C1660 0.962 . S
H1674 C1660 0.960 . S
H1675 C1661 0.961 1_565 S
H1676 C1661 0.961 1_565 S
H1677 C1661 0.961 . S
H1678 C1662 0.931 . S
H1679 C1667 0.930 . S
H1680 C1668 0.956 1_545 S
H1681 C1668 0.961 . S
H1682 C1668 0.961 . S
H1683 C1669 0.958 . S
H1684 C1669 0.961 . S
H1685 C1669 0.960 . S
C1686 C1687 1.391 . S
C1686 C1688 1.394 . S
C1686 H1702 0.931 . S
C1687 C1686 1.391 . S
C1687 C1691 1.376 . S
C1688 C1686 1.394 . S
C1688 C1689 1.369 . S
C1688 C1692 1.531 . S
C1689 C1688 1.369 . S
C1689 C1690 1.410 . S
C1689 C1697 1.503 . S
C1690 C1689 1.410 . S
C1690 C1691 1.392 . S
C1690 C1693 1.511 . S
C1691 C1687 1.376 . S
C1691 C1690 1.392 . S
C1691 H1703 0.929 . S
C1692 C1688 1.531 . S
C1692 H1704 0.960 . S
C1692 H1705 0.962 . S
C1692 H1706 0.960 . S
C1693 C1690 1.511 . S
C1693 H1707 0.961 . S
C1693 H1708 0.961 . S
C1693 H1709 0.961 . S
C1694 C1695 1.370 . S
C1694 C1696 1.363 . S
C1694 H1710 0.931 . S
C1695 C1694 1.370 . S
C1695 C1699 1.408 . S
C1696 C1694 1.363 . S
C1696 C1697 1.370 . S
C1696 C1700 1.524 . S
C1697 C1689 1.503 . S
C1697 C1696 1.370 . S
C1697 C1698 1.403 . S
C1698 C1697 1.403 . S
C1698 C1699 1.404 . S
C1698 C1701 1.539 . S
C1699 C1695 1.408 . S
C1699 C1698 1.404 . S
C1699 H1711 0.930 . S
C1700 C1696 1.524 . S
C1700 H1712 0.956 . S
C1700 H1713 0.961 . S
C1700 H1714 0.961 . S
C1701 C1698 1.539 . S
C1701 H1715 0.958 . S
C1701 H1716 0.961 . S
C1701 H1717 0.960 . S
H1702 C1686 0.931 . S
H1703 C1691 0.929 . S
H1704 C1692 0.960 . S
H1705 C1692 0.962 . S
H1706 C1692 0.960 . S
H1707 C1693 0.961 . S
H1708 C1693 0.961 . S
H1709 C1693 0.961 . S
H1710 C1694 0.931 . S
H1711 C1699 0.930 . S
H1712 C1700 0.956 . S
H1713 C1700 0.961 . S
H1714 C1700 0.961 . S
H1715 C1701 0.958 . S
H1716 C1701 0.961 . S
H1717 C1701 0.960 . S
C1718 C1719 1.391 . S
C1718 C1720 1.394 . S
C1718 H1734 0.931 . S
C1719 C1718 1.391 . S
C1719 C1723 1.376 . S
C1720 C1718 1.394 . S
C1720 C1721 1.369 . S
C1720 C1724 1.531 . S
C1721 C1720 1.369 . S
C1721 C1722 1.410 . S
C1721 C1729 1.503 . S
C1722 C1721 1.410 . S
C1722 C1723 1.392 . S
C1722 C1725 1.511 . S
C1723 C1719 1.376 . S
C1723 C1722 1.392 . S
C1723 H1735 0.929 . S
C1724 C1720 1.531 . S
C1724 H1736 0.960 . S
C1724 H1737 0.962 . S
C1724 H1738 0.960 . S
C1725 C1722 1.511 . S
C1725 H1739 0.961 . S
C1725 H1740 0.961 . S
C1725 H1741 0.961 . S
C1726 C1727 1.370 . S
C1726 C1728 1.363 . S
C1726 H1742 0.931 . S
C1727 C1726 1.370 . S
C1727 C1731 1.408 . S
C1728 C1726 1.363 . S
C1728 C1729 1.370 . S
C1728 C1732 1.524 . S
C1729 C1721 1.503 . S
C1729 C1728 1.370 . S
C1729 C1730 1.403 . S
C1730 C1729 1.403 . S
C1730 C1731 1.404 . S
C1730 C1733 1.539 . S
C1731 C1727 1.408 . S
C1731 C1730 1.404 . S
C1731 H1743 0.930 . S
C1732 C1728 1.524 . S
C1732 H1744 0.956 . S
C1732 H1745 0.961 . S
C1732 H1746 0.961 . S
C1733 C1730 1.539 . S
C1733 H1747 0.958 . S
C1733 H1748 0.961 . S
C1733 H1749 0.960 . S
H1734 C1718 0.931 . S
H1735 C1723 0.929 . S
H1736 C1724 0.960 . S
H1737 C1724 0.962 . S
H1738 C1724 0.960 . S
H1739 C1725 0.961 . S
H1740 C1725 0.961 . S
H1741 C1725 0.961 . S
H1742 C1726 0.931 . S
H1743 C1731 0.930 . S
H1744 C1732 0.956 . S
H1745 C1732 0.961 . S
H1746 C1732 0.961 . S
H1747 C1733 0.958 . S
H1748 C1733 0.961 . S
H1749 C1733 0.960 . S
C1750 C1751 1.391 . S
C1750 C1752 1.394 . S
C1750 H1766 0.931 . S
C1751 C1750 1.391 . S
C1751 C1755 1.376 . S
C1752 C1750 1.394 . S
C1752 C1753 1.369 . S
C1752 C1756 1.531 . S
C1753 C1752 1.369 . S
C1753 C1754 1.410 . S
C1753 C1761 1.503 . S
C1754 C1753 1.410 . S
C1754 C1755 1.392 . S
C1754 C1757 1.511 . S
C1755 C1751 1.376 . S
C1755 C1754 1.392 . S
C1755 H1767 0.929 . S
C1756 C1752 1.531 . S
C1756 H1768 0.960 . S
C1756 H1769 0.962 . S
C1756 H1770 0.960 . S
C1757 C1754 1.511 . S
C1757 H1771 0.961 . S
C1757 H1772 0.961 . S
C1757 H1773 0.961 . S
C1758 C1759 1.370 . S
C1758 C1760 1.363 . S
C1758 H1774 0.931 . S
C1759 C1758 1.370 . S
C1759 C1763 1.408 . S
C1760 C1758 1.363 . S
C1760 C1761 1.370 . S
C1760 C1764 1.524 . S
C1761 C1753 1.503 . S
C1761 C1760 1.370 . S
C1761 C1762 1.403 . S
C1762 C1761 1.403 . S
C1762 C1763 1.404 . S
C1762 C1765 1.539 . S
C1763 C1759 1.408 . S
C1763 C1762 1.404 . S
C1763 H1775 0.930 . S
C1764 C1760 1.524 . S
C1764 H1776 0.956 . S
C1764 H1777 0.961 . S
C1764 H1778 0.961 . S
C1765 C1762 1.539 . S
C1765 H1779 0.958 . S
C1765 H1780 0.961 . S
C1765 H1781 0.960 . S
H1766 C1750 0.931 . S
H1767 C1755 0.929 . S
H1768 C1756 0.960 . S
H1769 C1756 0.962 . S
H1770 C1756 0.960 . S
H1771 C1757 0.961 . S
H1772 C1757 0.961 . S
H1773 C1757 0.961 . S
H1774 C1758 0.931 . S
H1775 C1763 0.930 . S
H1776 C1764 0.956 . S
H1777 C1764 0.961 . S
H1778 C1764 0.961 . S
H1779 C1765 0.958 . S
H1780 C1765 0.961 . S
H1781 C1765 0.960 . S
C1782 C1783 1.391 . S
C1782 C1784 1.394 . S
C1782 H1798 0.931 . S
C1783 C1782 1.391 . S
C1783 C1787 1.376 . S
C1784 C1782 1.394 . S
C1784 C1785 1.369 . S
C1784 C1788 1.531 . S
C1785 C1784 1.369 . S
C1785 C1786 1.410 . S
C1785 C1793 1.503 . S
C1786 C1785 1.410 . S
C1786 C1787 1.392 . S
C1786 C1789 1.511 . S
C1787 C1783 1.376 . S
C1787 C1786 1.392 . S
C1787 H1799 0.929 . S
C1788 C1784 1.531 . S
C1788 H1800 0.960 . S
C1788 H1801 0.962 . S
C1788 H1802 0.960 . S
C1789 C1786 1.511 . S
C1789 H1803 0.961 . S
C1789 H1804 0.961 . S
C1789 H1805 0.961 . S
C1790 C1791 1.370 . S
C1790 C1792 1.363 . S
C1790 H1806 0.931 . S
C1791 C1790 1.370 . S
C1791 C1795 1.408 . S
C1792 C1790 1.363 . S
C1792 C1793 1.370 . S
C1792 C1796 1.524 . S
C1793 C1785 1.503 . S
C1793 C1792 1.370 . S
C1793 C1794 1.403 . S
C1794 C1793 1.403 . S
C1794 C1795 1.404 . S
C1794 C1797 1.539 . S
C1795 C1791 1.408 . S
C1795 C1794 1.404 . S
C1795 H1807 0.930 . S
C1796 C1792 1.524 . S
C1796 H1808 0.956 . S
C1796 H1809 0.961 . S
C1796 H1810 0.961 . S
C1797 C1794 1.539 . S
C1797 H1811 0.958 . S
C1797 H1812 0.961 . S
C1797 H1813 0.960 . S
H1798 C1782 0.931 . S
H1799 C1787 0.929 . S
H1800 C1788 0.960 . S
H1801 C1788 0.962 . S
H1802 C1788 0.960 . S
H1803 C1789 0.961 . S
H1804 C1789 0.961 . S
H1805 C1789 0.961 . S
H1806 C1790 0.931 . S
H1807 C1795 0.930 . S
H1808 C1796 0.956 . S
H1809 C1796 0.961 . S
H1810 C1796 0.961 . S
H1811 C1797 0.958 . S
H1812 C1797 0.961 . S
H1813 C1797 0.960 . S
C1814 C1815 1.391 . S
C1814 C1816 1.394 . S
C1814 H1830 0.931 . S
C1815 C1814 1.391 . S
C1815 C1819 1.376 . S
C1816 C1814 1.394 . S
C1816 C1817 1.369 . S
C1816 C1820 1.531 . S
C1817 C1816 1.369 . S
C1817 C1818 1.410 . S
C1817 C1825 1.503 . S
C1818 C1817 1.410 . S
C1818 C1819 1.392 . S
C1818 C1821 1.511 . S
C1819 C1815 1.376 . S
C1819 C1818 1.392 . S
C1819 H1831 0.929 . S
C1820 C1816 1.531 . S
C1820 H1832 0.960 . S
C1820 H1833 0.962 . S
C1820 H1834 0.960 . S
C1821 C1818 1.511 . S
C1821 H1835 0.961 . S
C1821 H1836 0.961 . S
C1821 H1837 0.961 . S
C1822 C1823 1.370 . S
C1822 C1824 1.363 . S
C1822 H1838 0.931 . S
C1823 C1822 1.370 . S
C1823 C1827 1.408 . S
C1824 C1822 1.363 . S
C1824 C1825 1.370 . S
C1824 C1828 1.524 . S
C1825 C1817 1.503 . S
C1825 C1824 1.370 . S
C1825 C1826 1.403 . S
C1826 C1825 1.403 . S
C1826 C1827 1.404 . S
C1826 C1829 1.539 . S
C1827 C1823 1.408 . S
C1827 C1826 1.404 . S
C1827 H1839 0.930 . S
C1828 C1824 1.524 . S
C1828 H1840 0.956 . S
C1828 H1841 0.961 . S
C1828 H1842 0.961 . S
C1829 C1826 1.539 . S
C1829 H1843 0.958 . S
C1829 H1844 0.961 . S
C1829 H1845 0.960 . S
H1830 C1814 0.931 . S
H1831 C1819 0.929 . S
H1832 C1820 0.960 . S
H1833 C1820 0.962 . S
H1834 C1820 0.960 . S
H1835 C1821 0.961 . S
H1836 C1821 0.961 . S
H1837 C1821 0.961 . S
H1838 C1822 0.931 . S
H1839 C1827 0.930 . S
H1840 C1828 0.956 . S
H1841 C1828 0.961 . S
H1842 C1828 0.961 . S
H1843 C1829 0.958 . S
H1844 C1829 0.961 . S
H1845 C1829 0.960 . S
C1846 C1847 1.391 . S
C1846 C1848 1.394 . S
C1846 H1862 0.931 . S
C1847 C1846 1.391 . S
C1847 C1851 1.376 . S
C1848 C1846 1.394 . S
C1848 C1849 1.369 . S
C1848 C1852 1.531 . S
C1849 C1848 1.369 . S
C1849 C1850 1.410 . S
C1849 C1857 1.503 . S
C1850 C1849 1.410 . S
C1850 C1851 1.392 . S
C1850 C1853 1.511 . S
C1851 C1847 1.376 . S
C1851 C1850 1.392 . S
C1851 H1863 0.929 . S
C1852 C1848 1.531 . S
C1852 H1864 0.960 . S
C1852 H1865 0.962 . S
C1852 H1866 0.960 . S
C1853 C1850 1.511 . S
C1853 H1867 0.961 . S
C1853 H1868 0.961 . S
C1853 H1869 0.961 . S
C1854 C1855 1.370 . S
C1854 C1856 1.363 . S
C1854 H1870 0.931 . S
C1855 C1854 1.370 . S
C1855 C1859 1.408 . S
C1856 C1854 1.363 . S
C1856 C1857 1.370 . S
C1856 C1860 1.524 . S
C1857 C1849 1.503 . S
C1857 C1856 1.370 . S
C1857 C1858 1.403 . S
C1858 C1857 1.403 . S
C1858 C1859 1.404 . S
C1858 C1861 1.539 . S
C1859 C1855 1.408 . S
C1859 C1858 1.404 . S
C1859 H1871 0.930 . S
C1860 C1856 1.524 . S
C1860 H1872 0.956 . S
C1860 H1873 0.961 . S
C1860 H1874 0.961 . S
C1861 C1858 1.539 . S
C1861 H1875 0.958 . S
C1861 H1876 0.961 . S
C1861 H1877 0.960 . S
H1862 C1846 0.931 . S
H1863 C1851 0.929 . S
H1864 C1852 0.960 . S
H1865 C1852 0.962 . S
H1866 C1852 0.960 . S
H1867 C1853 0.961 . S
H1868 C1853 0.961 . S
H1869 C1853 0.961 . S
H1870 C1854 0.931 . S
H1871 C1859 0.930 . S
H1872 C1860 0.956 . S
H1873 C1860 0.961 . S
H1874 C1860 0.961 . S
H1875 C1861 0.958 . S
H1876 C1861 0.961 . S
H1877 C1861 0.960 . S
C1878 C1879 1.391 . S
C1878 C1880 1.394 . S
C1878 H1894 0.931 . S
C1879 C1878 1.391 . S
C1879 C1883 1.376 . S
C1880 C1878 1.394 . S
C1880 C1881 1.369 . S
C1880 C1884 1.531 . S
C1881 C1880 1.369 . S
C1881 C1882 1.410 . S
C1881 C1889 1.503 . S
C1882 C1881 1.410 . S
C1882 C1883 1.392 . S
C1882 C1885 1.511 . S
C1883 C1879 1.376 . S
C1883 C1882 1.392 . S
C1883 H1895 0.929 . S
C1884 C1880 1.531 . S
C1884 H1896 0.960 . S
C1884 H1897 0.962 . S
C1884 H1898 0.960 . S
C1885 C1882 1.511 . S
C1885 H1899 0.961 . S
C1885 H1900 0.961 . S
C1885 H1901 0.961 . S
C1886 C1887 1.370 . S
C1886 C1888 1.363 . S
C1886 H1902 0.931 . S
C1887 C1886 1.370 . S
C1887 C1891 1.408 . S
C1888 C1886 1.363 . S
C1888 C1889 1.370 . S
C1888 C1892 1.524 . S
C1889 C1881 1.503 . S
C1889 C1888 1.370 . S
C1889 C1890 1.403 . S
C1890 C1889 1.403 . S
C1890 C1891 1.404 . S
C1890 C1893 1.539 . S
C1891 C1887 1.408 . S
C1891 C1890 1.404 . S
C1891 H1903 0.930 . S
C1892 C1888 1.524 . S
C1892 H1904 0.956 . S
C1892 H1905 0.961 . S
C1892 H1906 0.961 . S
C1893 C1890 1.539 . S
C1893 H1907 0.958 . S
C1893 H1908 0.961 . S
C1893 H1909 0.960 . S
H1894 C1878 0.931 . S
H1895 C1883 0.929 . S
H1896 C1884 0.960 . S
H1897 C1884 0.962 . S
H1898 C1884 0.960 . S
H1899 C1885 0.961 . S
H1900 C1885 0.961 . S
H1901 C1885 0.961 . S
H1902 C1886 0.931 . S
H1903 C1891 0.930 . S
H1904 C1892 0.956 . S
H1905 C1892 0.961 . S
H1906 C1892 0.961 . S
H1907 C1893 0.958 . S
H1908 C1893 0.961 . S
H1909 C1893 0.960 . S
C1910 C1911 1.391 . S
C1910 C1912 1.394 . S
C1910 H1926 0.931 . S
C1911 C1910 1.391 . S
C1911 C1915 1.376 . S
C1912 C1910 1.394 . S
C1912 C1913 1.369 . S
C1912 C1916 1.531 . S
C1913 C1912 1.369 . S
C1913 C1914 1.410 . S
C1913 C1921 1.503 . S
C1914 C1913 1.410 . S
C1914 C1915 1.392 . S
C1914 C1917 1.511 . S
C1915 C1911 1.376 . S
C1915 C1914 1.392 . S
C1915 H1927 0.929 . S
C1916 C1912 1.531 . S
C1916 H1928 0.960 . S
C1916 H1929 0.962 . S
C1916 H1930 0.960 . S
C1917 C1914 1.511 . S
C1917 H1931 0.961 . S
C1917 H1932 0.961 . S
C1917 H1933 0.961 . S
C1918 C1919 1.370 . S
C1918 C1920 1.363 . S
C1918 H1934 0.931 . S
C1919 C1918 1.370 . S
C1919 C1923 1.408 . S
C1920 C1918 1.363 . S
C1920 C1921 1.370 . S
C1920 C1924 1.524 . S
C1921 C1913 1.503 . S
C1921 C1920 1.370 . S
C1921 C1922 1.403 . S
C1922 C1921 1.403 . S
C1922 C1923 1.404 . S
C1922 C1925 1.539 . S
C1923 C1919 1.408 . S
C1923 C1922 1.404 . S
C1923 H1935 0.930 . S
C1924 C1920 1.524 . S
C1924 H1936 0.956 . S
C1924 H1937 0.961 . S
C1924 H1938 0.961 . S
C1925 C1922 1.539 . S
C1925 H1939 0.958 . S
C1925 H1940 0.961 . S
C1925 H1941 0.960 . S
H1926 C1910 0.931 . S
H1927 C1915 0.929 . S
H1928 C1916 0.960 . S
H1929 C1916 0.962 . S
H1930 C1916 0.960 . S
H1931 C1917 0.961 . S
H1932 C1917 0.961 . S
H1933 C1917 0.961 . S
H1934 C1918 0.931 . S
H1935 C1923 0.930 . S
H1936 C1924 0.956 . S
H1937 C1924 0.961 . S
H1938 C1924 0.961 . S
H1939 C1925 0.958 . S
H1940 C1925 0.961 . S
H1941 C1925 0.960 . S
C1942 C1943 1.391 . S
C1942 C1944 1.394 . S
C1942 H1958 0.931 . S
C1943 C1942 1.391 . S
C1943 C1947 1.376 . S
C1944 C1942 1.394 . S
C1944 C1945 1.369 . S
C1944 C1948 1.531 . S
C1945 C1944 1.369 . S
C1945 C1946 1.410 . S
C1945 C1953 1.503 . S
C1946 C1945 1.410 . S
C1946 C1947 1.392 . S
C1946 C1949 1.511 . S
C1947 C1943 1.376 . S
C1947 C1946 1.392 . S
C1947 H1959 0.929 . S
C1948 C1944 1.531 . S
C1948 H1960 0.960 . S
C1948 H1961 0.962 . S
C1948 H1962 0.960 . S
C1949 C1946 1.511 . S
C1949 H1963 0.961 . S
C1949 H1964 0.961 . S
C1949 H1965 0.961 . S
C1950 C1951 1.370 . S
C1950 C1952 1.363 . S
C1950 H1966 0.931 . S
C1951 C1950 1.370 . S
C1951 C1955 1.408 . S
C1952 C1950 1.363 . S
C1952 C1953 1.370 . S
C1952 C1956 1.524 . S
C1953 C1945 1.503 . S
C1953 C1952 1.370 . S
C1953 C1954 1.403 . S
C1954 C1953 1.403 . S
C1954 C1955 1.404 . S
C1954 C1957 1.539 . S
C1955 C1951 1.408 . S
C1955 C1954 1.404 . S
C1955 H1967 0.930 . S
C1956 C1952 1.524 . S
C1956 H1968 0.956 . S
C1956 H1969 0.961 . S
C1956 H1970 0.961 . S
C1957 C1954 1.539 . S
C1957 H1971 0.958 . S
C1957 H1972 0.961 . S
C1957 H1973 0.960 . S
H1958 C1942 0.931 . S
H1959 C1947 0.929 . S
H1960 C1948 0.960 . S
H1961 C1948 0.962 . S
H1962 C1948 0.960 . S
H1963 C1949 0.961 . S
H1964 C1949 0.961 . S
H1965 C1949 0.961 . S
H1966 C1950 0.931 . S
H1967 C1955 0.930 . S
H1968 C1956 0.956 . S
H1969 C1956 0.961 . S
H1970 C1956 0.961 . S
H1971 C1957 0.958 . S
H1972 C1957 0.961 . S
H1973 C1957 0.960 . S
C1974 C1975 1.391 . S
C1974 C1976 1.394 . S
C1974 H1990 0.931 . S
C1975 C1974 1.391 . S
C1975 C1979 1.376 . S
C1976 C1974 1.394 . S
C1976 C1977 1.369 . S
C1976 C1980 1.531 . S
C1977 C1976 1.369 . S
C1977 C1978 1.410 . S
C1977 C1985 1.503 . S
C1978 C1977 1.410 . S
C1978 C1979 1.392 . S
C1978 C1981 1.511 . S
C1979 C1975 1.376 . S
C1979 C1978 1.392 . S
C1979 H1991 0.929 . S
C1980 C1976 1.531 . S
C1980 H1992 0.960 . S
C1980 H1993 0.962 . S
C1980 H1994 0.960 . S
C1981 C1978 1.511 . S
C1981 H1995 0.961 . S
C1981 H1996 0.961 . S
C1981 H1997 0.961 . S
C1982 C1983 1.370 . S
C1982 C1984 1.363 . S
C1982 H1998 0.931 . S
C1983 C1982 1.370 . S
C1983 C1987 1.408 . S
C1984 C1982 1.363 . S
C1984 C1985 1.370 . S
C1984 C1988 1.524 . S
C1985 C1977 1.503 . S
C1985 C1984 1.370 . S
C1985 C1986 1.403 . S
C1986 C1985 1.403 . S
C1986 C1987 1.404 . S
C1986 C1989 1.539 . S
C1987 C1983 1.408 . S
C1987 C1986 1.404 . S
C1987 H1999 0.930 . S
C1988 C1984 1.524 . S
C1988 H2000 0.956 . S
C1988 H2001 0.961 . S
C1988 H2002 0.961 . S
C1989 C1986 1.539 . S
C1989 H2003 0.958 . S
C1989 H2004 0.961 . S
C1989 H2005 0.960 . S
H1990 C1974 0.931 . S
H1991 C1979 0.929 . S
H1992 C1980 0.960 . S
H1993 C1980 0.962 . S
H1994 C1980 0.960 . S
H1995 C1981 0.961 . S
H1996 C1981 0.961 . S
H1997 C1981 0.961 . S
H1998 C1982 0.931 . S
H1999 C1987 0.930 . S
H2000 C1988 0.956 . S
H2001 C1988 0.961 . S
H2002 C1988 0.961 . S
H2003 C1989 0.958 . S
H2004 C1989 0.961 . S
H2005 C1989 0.960 . S
C2006 C2007 1.391 . S
C2006 C2008 1.394 . S
C2006 H2022 0.931 . S
C2007 C2006 1.391 . S
C2007 C2011 1.376 . S
C2008 C2006 1.394 . S
C2008 C2009 1.369 . S
C2008 C2012 1.531 . S
C2009 C2008 1.369 . S
C2009 C2010 1.410 . S
C2009 C2017 1.503 . S
C2010 C2009 1.410 . S
C2010 C2011 1.392 . S
C2010 C2013 1.511 . S
C2011 C2007 1.376 . S
C2011 C2010 1.392 . S
C2011 H2023 0.929 . S
C2012 C2008 1.531 . S
C2012 H2024 0.960 . S
C2012 H2025 0.962 . S
C2012 H2026 0.960 . S
C2013 C2010 1.511 . S
C2013 H2027 0.961 . S
C2013 H2028 0.961 . S
C2013 H2029 0.961 . S
C2014 C2015 1.370 . S
C2014 C2016 1.363 . S
C2014 H2030 0.931 . S
C2015 C2014 1.370 . S
C2015 C2019 1.408 . S
C2016 C2014 1.363 . S
C2016 C2017 1.370 . S
C2016 C2020 1.524 . S
C2017 C2009 1.503 . S
C2017 C2016 1.370 . S
C2017 C2018 1.403 . S
C2018 C2017 1.403 . S
C2018 C2019 1.404 . S
C2018 C2021 1.539 . S
C2019 C2015 1.408 . S
C2019 C2018 1.404 . S
C2019 H2031 0.930 . S
C2020 C2016 1.524 . S
C2020 H2032 0.956 . S
C2020 H2033 0.961 . S
C2020 H2034 0.961 . S
C2021 C2018 1.539 . S
C2021 H2035 0.958 . S
C2021 H2036 0.961 . S
C2021 H2037 0.960 . S
H2022 C2006 0.931 . S
H2023 C2011 0.929 . S
H2024 C2012 0.960 . S
H2025 C2012 0.962 . S
H2026 C2012 0.960 . S
H2027 C2013 0.961 . S
H2028 C2013 0.961 . S
H2029 C2013 0.961 . S
H2030 C2014 0.931 . S
H2031 C2019 0.930 . S
H2032 C2020 0.956 . S
H2033 C2020 0.961 . S
H2034 C2020 0.961 . S
H2035 C2021 0.958 . S
H2036 C2021 0.961 . S
H2037 C2021 0.960 . S
C2038 C2039 1.391 . S
C2038 C2040 1.394 . S
C2038 H2054 0.931 . S
C2039 C2038 1.391 . S
C2039 C2043 1.376 . S
C2040 C2038 1.394 . S
C2040 C2041 1.369 . S
C2040 C2044 1.531 . S
C2041 C2040 1.369 . S
C2041 C2042 1.410 . S
C2041 C2049 1.503 . S
C2042 C2041 1.410 . S
C2042 C2043 1.392 . S
C2042 C2045 1.511 . S
C2043 C2039 1.376 . S
C2043 C2042 1.392 . S
C2043 H2055 0.929 . S
C2044 C2040 1.531 . S
C2044 H2056 0.960 . S
C2044 H2057 0.962 . S
C2044 H2058 0.960 . S
C2045 C2042 1.511 . S
C2045 H2059 0.961 . S
C2045 H2060 0.961 . S
C2045 H2061 0.961 . S
C2046 C2047 1.370 . S
C2046 C2048 1.363 . S
C2046 H2062 0.931 . S
C2047 C2046 1.370 . S
C2047 C2051 1.408 . S
C2048 C2046 1.363 . S
C2048 C2049 1.370 . S
C2048 C2052 1.524 . S
C2049 C2041 1.503 . S
C2049 C2048 1.370 . S
C2049 C2050 1.403 . S
C2050 C2049 1.403 . S
C2050 C2051 1.404 . S
C2050 C2053 1.539 . S
C2051 C2047 1.408 . S
C2051 C2050 1.404 . S
C2051 H2063 0.930 . S
C2052 C2048 1.524 . S
C2052 H2064 0.956 . S
C2052 H2065 0.961 . S
C2052 H2066 0.961 . S
C2053 C2050 1.539 . S
C2053 H2067 0.958 . S
C2053 H2068 0.961 . S
C2053 H2069 0.960 . S
H2054 C2038 0.931 . S
H2055 C2043 0.929 . S
H2056 C2044 0.960 . S
H2057 C2044 0.962 . S
H2058 C2044 0.960 . S
H2059 C2045 0.961 . S
H2060 C2045 0.961 . S
H2061 C2045 0.961 . S
H2062 C2046 0.931 . S
H2063 C2051 0.930 . S
H2064 C2052 0.956 . S
H2065 C2052 0.961 . S
H2066 C2052 0.961 . S
H2067 C2053 0.958 . S
H2068 C2053 0.961 . S
H2069 C2053 0.960 . S
C343 C124 1.524 . S
C351 C168 1.492 . S
C375 C130 1.483 . S
C383 C188 1.478 . S
C407 C115 1.503 . S
C415 C211 1.495 . S
C439 C106 1.450 . S
C447 C191 1.433 . S
C479 C208 1.434 . S
C471 C85 1.454 . S
C503 C97 1.450 . S
C511 C171 1.447 . S
C543 C178 1.517 . S
C535 C103 1.520 . S
C575 C198 1.443 . S
C567 C88 1.482 . S
C599 C94 1.485 . S
C607 C203 1.502 . S
C631 C121 1.440 . S
C639 C183 1.436 . S
C663 C133 1.416 . S
C671 C218 1.423 . S
C703 C163 1.461 . S
C695 C112 1.479 . S
C735 C228 1.493 . S
C727 C16 1.524 . S
C759 C22 1.480 . S
C767 C248 1.472 . S
C791 C7 1.491 . S
C799 C271 1.500 . S
C823 C160 1.428 . S
C831 C251 1.444 . S
C855 C139 1.434 . S
C863 C268 1.438 . S
C887 C151 1.438 . S
C895 C231 1.454 . S
C919 C157 1.522 . S
C927 C238 1.516 . S
C951 C142 1.482 . S
C959 C258 1.443 . S
C991 C263 1.497 . S
C983 C148 1.494 . S
C1015 C13 1.432 . S
C1023 C243 1.441 . S
C1055 C278 1.410 . S
C1047 C25 1.423 . S
C1079 C4 1.468 . S
C1087 C223 1.467 . S
C1119 C288 1.505 . S
C1111 C70 1.502 . S
C1143 C76 1.498 . S
C1151 C308 1.460 . S
C1183 C331 1.493 . S
C1175 C61 1.507 . S
C1215 C311 1.433 . S
C1207 C52 1.450 . S
C1247 C328 1.439 . S
C1239 C31 1.435 . S
C1271 C43 1.458 . S
C1279 C291 1.444 . S
C1303 C49 1.530 . S
C1311 C298 1.522 . S
C1335 C34 1.463 . S
C1343 C318 1.457 . S
C1375 C323 1.496 . S
C1367 C40 1.500 . S
C1399 C67 1.444 . S
C1407 C303 1.434 . S
C1431 C79 1.419 . S
C1439 C338 1.424 . S
C1463 C58 1.479 . S
C1471 C283 1.461 . S
C1495 C140 1.319 . S
C1503 C181 1.276 1_565 S
C1535 C201 1.554 . S
C1527 C149 1.582 . S
C1559 C158 1.475 . S
C1567 C210 1.457 . S
C1591 C59 1.607 . S
C1599 C190 1.555 . S
C1623 C68 1.466 . S
C1631 C221 1.421 . S
C1663 C170 1.285 1_545 S
C1655 C77 1.300 . S
C1687 C32 1.301 . S
C1695 C241 1.289 . S
C1719 C41 1.582 . S
C1727 C261 1.550 . S
C1751 C50 1.475 . S
C1759 C270 1.438 . S
C1783 C113 1.609 . S
C1791 C250 1.553 . S
C1823 C281 1.431 . S
C1815 C122 1.450 . S
C1847 C131 1.304 . S
C1855 C230 1.276 . S
C1879 C86 1.312 . S
C1887 C301 1.295 . S
C1911 C95 1.599 . S
C1919 C321 1.536 . S
C1951 C330 1.434 . S
C1943 C104 1.479 . S
C1975 C5 1.617 . S
C1983 C310 1.567 . S
C2007 C14 1.451 . S
C2015 C341 1.436 . S
C2039 C23 1.300 . S
C2047 C290 1.290 . S
