# Generated by pormake.
# Topology zzz, (3,6)-cn, num edge types: 1
# Building blocks:
#     Node 0, Type 0, BuildingBlock: BELTOD_clean_linker_0, # of connection points: 3
#     Node 1, Type 0, BuildingBlock: BELTOD_clean_linker_0, # of connection points: 3
#     Node 2, Type 0, BuildingBlock: BELTOD_clean_linker_0, # of connection points: 3
#     Node 3, Type 0, BuildingBlock: BELTOD_clean_linker_0, # of connection points: 3
#     Node 4, Type 0, BuildingBlock: BELTOD_clean_linker_0, # of connection points: 3
#     Node 5, Type 0, BuildingBlock: BELTOD_clean_linker_0, # of connection points: 3
#     Node 6, Type 0, BuildingBlock: BELTOD_clean_linker_0, # of connection points: 3
#     Node 7, Type 0, BuildingBlock: BELTOD_clean_linker_0, # of connection points: 3
#     Node 8, Type 1, BuildingBlock: KUMBOL_clean_sbu_0, # of connection points: 6
#     Node 9, Type 1, BuildingBlock: KUMBOL_clean_sbu_0, # of connection points: 6
#     Node 10, Type 1, BuildingBlock: KUMBOL_clean_sbu_0, # of connection points: 6
#     Node 11, Type 1, BuildingBlock: KUMBOL_clean_sbu_0, # of connection points: 6
#     Edge 12, Type (0, 1), BuildingBlock: ZUJKAS_clean_linker_0, # of connection points: 2
#     Edge 13, Type (0, 1), BuildingBlock: ZUJKAS_clean_linker_0, # of connection points: 2
#     Edge 14, Type (0, 1), BuildingBlock: ZUJKAS_clean_linker_0, # of connection points: 2
#     Edge 15, Type (0, 1), BuildingBlock: ZUJKAS_clean_linker_0, # of connection points: 2
#     Edge 16, Type (0, 1), BuildingBlock: ZUJKAS_clean_linker_0, # of connection points: 2
#     Edge 17, Type (0, 1), BuildingBlock: ZUJKAS_clean_linker_0, # of connection points: 2
#     Edge 18, Type (0, 1), BuildingBlock: ZUJKAS_clean_linker_0, # of connection points: 2
#     Edge 19, Type (0, 1), BuildingBlock: ZUJKAS_clean_linker_0, # of connection points: 2
#     Edge 20, Type (0, 1), BuildingBlock: ZUJKAS_clean_linker_0, # of connection points: 2
#     Edge 21, Type (0, 1), BuildingBlock: ZUJKAS_clean_linker_0, # of connection points: 2
#     Edge 22, Type (0, 1), BuildingBlock: ZUJKAS_clean_linker_0, # of connection points: 2
#     Edge 23, Type (0, 1), BuildingBlock: ZUJKAS_clean_linker_0, # of connection points: 2
#     Edge 24, Type (0, 1), BuildingBlock: ZUJKAS_clean_linker_0, # of connection points: 2
#     Edge 25, Type (0, 1), BuildingBlock: ZUJKAS_clean_linker_0, # of connection points: 2
#     Edge 26, Type (0, 1), BuildingBlock: ZUJKAS_clean_linker_0, # of connection points: 2
#     Edge 27, Type (0, 1), BuildingBlock: ZUJKAS_clean_linker_0, # of connection points: 2
#     Edge 28, Type (0, 1), BuildingBlock: ZUJKAS_clean_linker_0, # of connection points: 2
#     Edge 29, Type (0, 1), BuildingBlock: ZUJKAS_clean_linker_0, # of connection points: 2
#     Edge 30, Type (0, 1), BuildingBlock: ZUJKAS_clean_linker_0, # of connection points: 2
#     Edge 31, Type (0, 1), BuildingBlock: ZUJKAS_clean_linker_0, # of connection points: 2
#     Edge 32, Type (0, 1), BuildingBlock: ZUJKAS_clean_linker_0, # of connection points: 2
#     Edge 33, Type (0, 1), BuildingBlock: ZUJKAS_clean_linker_0, # of connection points: 2
#     Edge 34, Type (0, 1), BuildingBlock: ZUJKAS_clean_linker_0, # of connection points: 2
#     Edge 35, Type (0, 1), BuildingBlock: ZUJKAS_clean_linker_0, # of connection points: 2
# Relax obj value: 0.261
# Max RMSD: 0.213
# Mean RMSD: 0.200
data_MOF--net-zzz--node1-KUMBOL_clean_sbu_0--node2-BELTOD_clean_linker_0--edge1-ZUJKAS_clean_linker_0
_symmetry_space_group_name_H-M    P1
_symmetry_Int_Tables_number       1
_symmetry_cell_setting            triclinic
loop_
_symmetry_equiv_pos_as_xyz
'x, y, z'
_cell_length_a     67.565182
_cell_length_b     67.565744
_cell_length_c     23.339433
_cell_angle_alpha  90.602417
_cell_angle_beta   90.150081
_cell_angle_gamma 89.97321
loop_
_atom_site_label
_atom_site_type_symbol
_atom_site_fract_x
_atom_site_fract_y
_atom_site_fract_z
_atom_type_partial_charge
P0 P 0.73366 0.5582 0.18409 0.0
H1 H 0.73868 0.53857 0.29463 0.0
H2 H 0.76745 0.54053 0.35812 0.0
H3 H 0.78316 0.59674 0.28596 0.0
H4 H 0.75418 0.59495 0.22266 0.0
H5 H 0.70454 0.52903 0.14605 0.0
H6 H 0.67583 0.53161 0.0842 0.0
H7 H 0.67706 0.5951 0.10189 0.0
H8 H 0.70611 0.59257 0.16613 0.0
H9 H 0.77554 0.55416 0.16898 0.0
H10 H 0.72796 0.58423 0.08127 0.0
O11 O 0.73838 0.53393 0.1819 0.0
H12 H 0.79895 0.56729 0.10027 0.0
H13 H 0.75144 0.59717 0.01242 0.0
C14 C 0.74432 0.56634 0.25238 0.0
C15 C 0.74756 0.55191 0.29439 0.0
C16 C 0.76424 0.55289 0.33038 0.0
C17 C 0.77776 0.56858 0.32615 0.0
C18 C 0.77302 0.58442 0.29001 0.0
C19 C 0.75623 0.58347 0.25417 0.0
C20 C 0.70789 0.56063 0.16094 0.0
C21 C 0.69844 0.5436 0.13897 0.0
C22 C 0.68196 0.54502 0.10295 0.0
C23 C 0.6744 0.56351 0.08759 0.0
C24 C 0.68268 0.58062 0.113 0.0
C25 C 0.69913 0.57916 0.15032 0.0
C26 C 0.74994 0.56817 0.13088 0.0
C27 C 0.77011 0.56371 0.13538 0.0
C28 C 0.78351 0.57145 0.09667 0.0
C29 C 0.77694 0.58359 0.05209 0.0
C30 C 0.75678 0.5881 0.04722 0.0
C31 C 0.74334 0.58055 0.0867 0.0
P32 P 0.96457 0.73828 0.19432 0.0
H33 H 0.9848 0.74474 0.30513 0.0
H34 H 0.98329 0.77399 0.36782 0.0
H35 H 0.92773 0.79047 0.29114 0.0
H36 H 0.92863 0.76059 0.23085 0.0
H37 H 0.9939 0.70719 0.17233 0.0
H38 H 0.99283 0.6781 0.11111 0.0
H39 H 0.92918 0.68174 0.10437 0.0
H40 H 0.93023 0.71109 0.16822 0.0
H41 H 0.96485 0.78059 0.17879 0.0
H42 H 0.94347 0.72984 0.08258 0.0
O43 O 0.98881 0.74291 0.19084 0.0
H44 H 0.95295 0.80215 0.10333 0.0
H45 H 0.93188 0.75142 0.00773 0.0
C46 C 0.9571 0.75044 0.26164 0.0
C47 C 0.97167 0.75392 0.30385 0.0
C48 C 0.97097 0.77092 0.33934 0.0
C49 C 0.9557 0.78493 0.33328 0.0
C50 C 0.93987 0.78016 0.29628 0.0
C51 C 0.94028 0.76281 0.2622 0.0
C52 C 0.96217 0.71195 0.17453 0.0
C53 C 0.97952 0.70155 0.1599 0.0
C54 C 0.97895 0.68476 0.12416 0.0
C55 C 0.96098 0.67775 0.10133 0.0
C56 C 0.94335 0.68692 0.1203 0.0
C57 C 0.94392 0.70354 0.15783 0.0
C58 C 0.95444 0.75349 0.13833 0.0
C59 C 0.95702 0.77405 0.14274 0.0
C60 C 0.95008 0.7864 0.09992 0.0
C61 C 0.94098 0.77834 0.051 0.0
C62 C 0.93832 0.75787 0.04618 0.0
C63 C 0.94503 0.7455 0.08952 0.0
P64 P 0.77964 0.96808 0.20481 0.0
H65 H 0.77011 0.99468 0.3002 0.0
H66 H 0.74151 0.99421 0.36306 0.0
H67 H 0.73264 0.93231 0.32406 0.0
H68 H 0.76173 0.93279 0.2611 0.0
H69 H 0.81365 0.99473 0.19933 0.0
H70 H 0.84293 0.99258 0.13976 0.0
H71 H 0.83311 0.92991 0.11588 0.0
H72 H 0.80338 0.93223 0.17599 0.0
H73 H 0.73776 0.95643 0.19554 0.0
H74 H 0.78922 0.957 0.0859 0.0
O75 O 0.77608 0.99207 0.19157 0.0
H76 H 0.7176 0.9459 0.11527 0.0
H77 H 0.7687 0.94699 0.00536 0.0
C78 C 0.76778 0.96398 0.27389 0.0
C79 C 0.76263 0.98072 0.30668 0.0
C80 C 0.74598 0.98053 0.34224 0.0
C81 C 0.73417 0.96347 0.34666 0.0
C82 C 0.74117 0.94582 0.32102 0.0
C83 C 0.75804 0.94602 0.28541 0.0
C84 C 0.80589 0.96374 0.19149 0.0
C85 C 0.81812 0.98029 0.18354 0.0
C86 C 0.83497 0.97906 0.14884 0.0
C87 C 0.84018 0.96117 0.12139 0.0
C88 C 0.82929 0.94405 0.13514 0.0
C89 C 0.81248 0.94527 0.17068 0.0
C90 C 0.76554 0.95608 0.14875 0.0
C91 C 0.74515 0.95295 0.15574 0.0
C92 C 0.73347 0.94703 0.10949 0.0
C93 C 0.74182 0.94504 0.05491 0.0
C94 C 0.76218 0.94774 0.04771 0.0
C95 C 0.77393 0.95339 0.09417 0.0
P96 P 0.5564 0.78316 0.19888 0.0
H97 H 0.5365 0.78086 0.30925 0.0
H98 H 0.53781 0.75375 0.37707 0.0
H99 H 0.59369 0.73493 0.30561 0.0
H100 H 0.59268 0.76269 0.23945 0.0
H101 H 0.52747 0.81312 0.16838 0.0
H102 H 0.53051 0.84138 0.1061 0.0
H103 H 0.59404 0.83897 0.12147 0.0
H104 H 0.59103 0.80998 0.18438 0.0
H105 H 0.55975 0.74067 0.18636 0.0
H106 H 0.57481 0.79183 0.08572 0.0
O107 O 0.53227 0.77802 0.1946 0.0
H108 H 0.57104 0.71919 0.10904 0.0
H109 H 0.58613 0.77031 0.00875 0.0
C110 C 0.56408 0.77342 0.26759 0.0
C111 C 0.54958 0.77158 0.31004 0.0
C112 C 0.55015 0.75575 0.34819 0.0
C113 C 0.56534 0.74151 0.34488 0.0
C114 C 0.58155 0.74535 0.30883 0.0
C115 C 0.58105 0.76141 0.27104 0.0
C116 C 0.55903 0.80909 0.18079 0.0
C117 C 0.54213 0.81893 0.16068 0.0
C118 C 0.54383 0.83511 0.12447 0.0
C119 C 0.56248 0.84205 0.108 0.0
C120 C 0.57946 0.83382 0.13347 0.0
C121 C 0.57774 0.81742 0.17004 0.0
C122 C 0.56718 0.76795 0.14346 0.0
C123 C 0.56622 0.74734 0.1488 0.0
C124 C 0.57277 0.73505 0.10466 0.0
C125 C 0.57991 0.74318 0.05365 0.0
C126 C 0.58107 0.76378 0.04829 0.0
C127 C 0.57464 0.7761 0.09275 0.0
P128 P 0.28742 0.42001 0.98716 0.0
H129 H 0.2735 0.4085 0.8725 0.0
H130 H 0.245 0.41909 0.81677 0.0
H131 H 0.23731 0.46918 0.93082 0.0
H132 H 0.26599 0.45834 0.98703 0.0
H133 H 0.32107 0.40001 0.0359 0.0
H134 H 0.34698 0.41039 0.10032 0.0
H135 H 0.33118 0.4716 0.07177 0.0
H136 H 0.30384 0.46059 0.00999 0.0
H137 H 0.24689 0.4058 0.99462 0.0
H138 H 0.29133 0.42832 0.112 0.0
O139 O 0.29199 0.39726 0.96199 0.0
H140 H 0.2219 0.40957 0.0693 0.0
H141 H 0.26677 0.43122 0.18637 0.0
C142 C 0.27237 0.43275 0.93383 0.0
C143 C 0.26624 0.42219 0.88465 0.0
C144 C 0.24958 0.4281 0.8531 0.0
C145 C 0.23849 0.44486 0.86951 0.0
C146 C 0.24545 0.45625 0.91647 0.0
C147 C 0.2621 0.4502 0.9484 0.0
C148 C 0.31069 0.42947 0.01625 0.0
C149 C 0.32353 0.41575 0.04169 0.0
C150 C 0.33855 0.42182 0.07929 0.0
C151 C 0.34164 0.44201 0.09235 0.0
C152 C 0.3293 0.45589 0.06435 0.0
C153 C 0.31383 0.44968 0.02752 0.0
C154 C 0.27088 0.41735 0.04675 0.0
C155 C 0.25141 0.41101 0.0367 0.0
C156 C 0.23718 0.413 0.07953 0.0
C157 C 0.24239 0.42109 0.13315 0.0
C158 C 0.2623 0.42541 0.14487 0.0
C159 C 0.27642 0.42369 0.10194 0.0
P160 P 0.09224 0.28664 0.97808 0.0
H161 H 0.10527 0.2701 0.86777 0.0
H162 H 0.09589 0.24037 0.81632 0.0
H163 H 0.043 0.23631 0.91945 0.0
H164 H 0.05352 0.26557 0.97394 0.0
H165 H 0.1123 0.32075 0.02557 0.0
H166 H 0.10273 0.34644 0.09119 0.0
H167 H 0.04122 0.33016 0.06758 0.0
H168 H 0.05161 0.30281 1.00492 0.0
H169 H 0.10685 0.24616 0.98451 0.0
H170 H 0.08625 0.29092 0.10399 0.0
O171 O 0.11467 0.29183 0.9524 0.0
H172 H 0.10424 0.22141 0.05899 0.0
H173 H 0.08489 0.26663 0.17877 0.0
C174 C 0.07999 0.27067 0.92465 0.0
C175 C 0.09127 0.26331 0.87843 0.0
C176 C 0.08584 0.24593 0.84868 0.0
C177 C 0.06867 0.23524 0.86334 0.0
C178 C 0.05662 0.24349 0.90715 0.0
C179 C 0.06231 0.26076 0.93766 0.0
C180 C 0.08274 0.30991 0.00839 0.0
C181 C 0.09663 0.323 0.03281 0.0
C182 C 0.09097 0.338 0.07132 0.0
C183 C 0.07096 0.341 0.08643 0.0
C184 C 0.05685 0.32845 0.05916 0.0
C185 C 0.06268 0.31291 0.02163 0.0
C186 C 0.09595 0.27028 0.03751 0.0
C187 C 0.10224 0.25081 0.02695 0.0
C188 C 0.10096 0.23668 0.06987 0.0
C189 C 0.09382 0.24198 0.12443 0.0
C190 C 0.08979 0.26197 0.13658 0.0
C191 C 0.09066 0.27598 0.09341 0.0
P192 P 0.23475 0.09399 0.96402 0.0
H193 H 0.25101 0.10617 0.85362 0.0
H194 H 0.28036 0.09566 0.80255 0.0
H195 H 0.28355 0.0434 0.9075 0.0
H196 H 0.25473 0.05491 0.96119 0.0
H197 H 0.1975 0.11285 0.99434 0.0
H198 H 0.17072 0.10311 0.05717 0.0
H199 H 0.19434 0.04381 0.0628 0.0
H200 H 0.22139 0.05374 0.99919 0.0
H201 H 0.2763 0.10506 0.97387 0.0
H202 H 0.2289 0.09018 0.08972 0.0
O203 O 0.2301 0.11665 0.93947 0.0
H204 H 0.30009 0.10133 0.05119 0.0
H205 H 0.2525 0.08719 0.16732 0.0
C206 C 0.25015 0.08123 0.91107 0.0
C207 C 0.25751 0.09207 0.86462 0.0
C208 C 0.27461 0.086 0.8352 0.0
C209 C 0.28489 0.0687 0.85082 0.0
C210 C 0.27657 0.05707 0.89466 0.0
C211 C 0.25958 0.06334 0.92465 0.0
C212 C 0.21145 0.08399 0.99049 0.0
C213 C 0.19663 0.09751 0.00696 0.0
C214 C 0.1814 0.092 0.04409 0.0
C215 C 0.18043 0.07274 0.06613 0.0
C216 C 0.19451 0.05877 0.04663 0.0
C217 C 0.20995 0.06438 0.00959 0.0
C218 C 0.25091 0.09691 0.02494 0.0
C219 C 0.27092 0.10136 0.01607 0.0
C220 C 0.28452 0.09943 0.06061 0.0
C221 C 0.27822 0.09346 0.1151 0.0
C222 C 0.25787 0.09118 0.1253 0.0
C223 C 0.24431 0.09289 0.08058 0.0
P224 P 0.4167 0.23323 0.97264 0.0
H225 H 0.40805 0.24487 0.85432 0.0
H226 H 0.41992 0.27297 0.79852 0.0
H227 H 0.46584 0.28354 0.92355 0.0
H228 H 0.45428 0.25511 0.97887 0.0
H229 H 0.39596 0.20092 0.02472 0.0
H230 H 0.4069 0.17459 0.08749 0.0
H231 H 0.46773 0.18798 0.04731 0.0
H232 H 0.45654 0.21462 0.98369 0.0
H233 H 0.39604 0.27028 0.99407 0.0
H234 H 0.43643 0.23233 0.08567 0.0
O235 O 0.39361 0.23017 0.94855 0.0
H236 H 0.3999 0.29558 0.06909 0.0
H237 H 0.44058 0.25736 0.1588 0.0
C238 C 0.43035 0.24763 0.92077 0.0
C239 C 0.42123 0.25259 0.86862 0.0
C240 C 0.4279 0.26879 0.83687 0.0
C241 C 0.44369 0.28045 0.85701 0.0
C242 C 0.45363 0.27474 0.90715 0.0
C243 C 0.44716 0.25835 0.93842 0.0
C244 C 0.42538 0.20956 0.99837 0.0
C245 C 0.41165 0.19774 0.02728 0.0
C246 C 0.41794 0.18286 0.06415 0.0
C247 C 0.43819 0.17939 0.07327 0.0
C248 C 0.452 0.19025 0.04109 0.0
C249 C 0.44564 0.20535 1.00416 0.0
C250 C 0.41568 0.24928 0.03431 0.0
C251 C 0.40524 0.26713 0.03095 0.0
C252 C 0.40761 0.28162 0.07345 0.0
C253 C 0.42057 0.27842 0.11965 0.0
C254 C 0.43022 0.26013 0.12428 0.0
C255 C 0.42787 0.24573 0.08191 0.0
Gd256 Gd 0.98966 0.02076 0.54039 0.0
Gd257 Gd 0.02792 1.00257 0.63437 0.0
C258 C 0.05098 0.04076 0.78326 0.0
C259 C 0.08649 0.03888 0.76917 0.0
C260 C 0.06406 0.02365 0.69975 0.0
C261 C 0.04799 0.02973 0.73215 0.0
C262 C 0.0835 0.028 0.71834 0.0
C263 C 0.07027 0.0453 0.80143 0.0
C264 C 0.03453 0.04668 0.81527 0.0
C265 C 0.01566 0.04162 0.7963 0.0
N266 N 0.02951 0.02458 0.71448 0.0
C267 C 0.0134 0.03052 0.74595 0.0
H268 H 0.99853 0.02774 0.73169 0.0
C269 C 0.0764 0.00516 0.62108 0.0
N270 N 0.06078 0.01281 0.6514 0.0
C271 C 0.09587 0.00928 0.63743 0.0
C272 C 0.09945 0.0208 0.68622 0.0
H273 H 0.07384 0.99547 0.5846 0.0
H274 H 0.0728 0.0536 0.84075 0.0
H275 H 0.02044 0.99823 0.4422 0.0
H276 H 0.03624 0.05519 0.85458 0.0
H277 H 1.00278 0.04638 0.82023 0.0
H278 H 0.10131 0.04223 0.78422 0.0
H279 H 0.94309 0.02487 0.59049 0.0
H280 H 0.98486 0.96623 0.3234 0.0
H281 H 0.01759 0.9782 0.35567 0.0
H282 H 0.91926 0.97412 0.39537 0.0
H283 H 0.1081 1.00323 0.61304 0.0
H284 H 0.11457 0.02372 0.69938 0.0
H285 H 0.94839 0.96484 0.33849 0.0
H286 H 0.90962 0.01391 0.56357 0.0
N287 N 0.98955 0.99869 0.4606 0.0
C288 C 0.986 0.97525 0.36194 0.0
C289 C 1.00445 0.98206 0.37976 0.0
C290 C 0.96924 0.98007 0.39411 0.0
C291 C 0.97148 0.99178 0.44427 0.0
C292 C 0.00594 0.99387 0.42896 0.0
N293 N 0.95754 0.00792 0.52514 0.0
C294 C 0.95507 0.99657 0.47728 0.0
C295 C 0.92226 0.00869 0.53936 0.0
C296 C 0.91959 0.9964 0.49173 0.0
C297 C 0.94133 0.01466 0.55481 0.0
C298 C 0.936 0.99037 0.45964 0.0
H299 H 0.90474 0.99204 0.47926 0.0
O300 O 0.96899 0.04506 0.53486 0.0
O301 O 0.01461 0.02988 0.59799 0.0
O302 O 0.99839 0.99862 0.67961 0.0
O303 O 0.97347 0.00594 0.61404 0.0
O304 O 0.98834 0.04486 0.60873 0.0
O305 O 0.9883 0.03816 0.46268 0.0
O306 O 0.04664 0.97627 0.64077 0.0
O307 O 1.00297 0.99352 0.57653 0.0
O308 O 0.01959 0.02682 0.49764 0.0
O309 O 0.04456 0.01626 0.56007 0.0
O310 O 0.02967 0.97941 0.56388 0.0
O311 O 0.02506 0.9838 0.70834 0.0
C312 C 0.00658 0.04412 0.62471 0.0
C313 C 0.93378 0.97889 0.40962 0.0
C314 C 0.95036 0.97367 0.37712 0.0
C315 C 0.97411 0.04941 0.48278 0.0
C316 C 0.97364 0.07038 0.46786 0.0
C317 C 0.95513 0.07978 0.46693 0.0
C318 C 0.99069 0.08091 0.45252 0.0
C319 C 0.98911 0.10082 0.43606 0.0
C320 C 0.95353 0.09947 0.45075 0.0
C321 C 0.97038 0.10996 0.43524 0.0
C322 C 0.97947 0.99992 0.66506 0.0
C323 C 0.01128 0.97958 0.54916 0.0
C324 C 0.03891 0.97187 0.69 0.0
C325 C 0.04406 0.95405 0.72138 0.0
C326 C 0.06383 0.95008 0.73525 0.0
C327 C 0.02924 0.94058 0.73574 0.0
C328 C 0.03403 0.92303 0.76433 0.0
C329 C 0.0687 0.93278 0.76423 0.0
C330 C 0.05392 0.9193 0.77879 0.0
C331 C 0.03853 0.02395 0.51104 0.0
H332 H 0.94183 0.07175 0.47816 0.0
H333 H 1.00502 0.07368 0.45313 0.0
H334 H 0.93916 0.10656 0.4495 0.0
H335 H 0.96868 0.1251 0.42127 0.0
H336 H 0.07542 0.96039 0.72392 0.0
H337 H 0.01407 0.94357 0.72323 0.0
H338 H 0.08396 0.9298 0.77544 0.0
H339 H 0.05803 0.90609 0.80185 0.0
Gd340 Gd 0.49941 0.99156 0.54023 0.0
Gd341 Gd 0.51661 0.03079 0.63507 0.0
C342 C 0.47722 0.04704 0.78747 0.0
C343 C 0.47309 0.0824 0.77519 0.0
C344 C 0.49082 0.06287 0.70347 0.0
C345 C 0.4879 0.04593 0.73549 0.0
C346 C 0.48368 0.08134 0.72367 0.0
C347 C 0.46981 0.0653 0.80689 0.0
C348 C 0.47457 0.02985 0.81924 0.0
C349 C 0.48241 0.01208 0.79918 0.0
N350 N 0.49586 0.02854 0.71686 0.0
C351 C 0.49301 0.01166 0.74794 0.0
H352 H 0.49806 0.99748 0.73329 0.0
C353 C 0.50691 0.0785 0.6264 0.0
N354 N 0.50156 0.0616 0.65447 0.0
C355 C 0.49987 0.09697 0.64414 0.0
C356 C 0.48807 0.0984 0.69279 0.0
H357 H 0.5169 0.0778 0.59026 0.0
H358 H 0.46177 0.06639 0.8469 0.0
H359 H 0.51996 0.02386 0.44303 0.0
H360 H 0.46646 0.03014 0.85924 0.0
H361 H 0.48019 0.9986 0.82297 0.0
H362 H 0.46764 0.09646 0.7914 0.0
H363 H 0.49637 0.94466 0.58397 0.0
H364 H 0.55476 0.99037 0.32612 0.0
H365 H 0.54051 0.02222 0.35815 0.0
H366 H 0.55043 0.92426 0.39488 0.0
H367 H 0.50395 0.11015 0.62099 0.0
H368 H 0.48295 0.11281 0.70717 0.0
H369 H 0.55809 0.95398 0.33964 0.0
H370 H 0.50943 0.9119 0.5572 0.0
N371 N 0.52142 0.99287 0.46093 0.0
C372 C 0.54547 0.99089 0.36388 0.0
C373 C 0.53737 0.00885 0.3816 0.0
C374 C 0.54153 0.97382 0.39507 0.0
C375 C 0.5295 0.97528 0.4444 0.0
C376 C 0.52527 0.00958 0.42995 0.0
N377 N 0.51369 0.96024 0.52294 0.0
C378 C 0.52552 0.95855 0.47625 0.0
C379 C 0.51436 0.92489 0.53461 0.0
C380 C 0.52741 0.92306 0.48879 0.0
C381 C 0.50726 0.94357 0.55019 0.0
C382 C 0.53286 0.9399 0.45833 0.0
H383 H 0.53265 0.90851 0.47611 0.0
O384 O 0.47581 0.97014 0.53332 0.0
O385 O 0.48987 0.01616 0.59875 0.0
O386 O 0.5256 1.00136 0.67479 0.0
O387 O 0.51372 0.97585 0.61558 0.0
O388 O 0.47589 0.98934 0.60898 0.0
O389 O 0.48159 0.99005 0.46261 0.0
O390 O 0.53968 0.05287 0.63882 0.0
O391 O 0.52607 0.00626 0.5769 0.0
O392 O 0.49159 0.02085 0.4984 0.0
O393 O 0.50168 0.0463 0.56039 0.0
O394 O 0.54029 0.03296 0.56692 0.0
O395 O 0.53493 0.03342 0.71134 0.0
C396 C 0.47629 0.00754 0.62584 0.0
C397 C 0.54475 0.93846 0.40932 0.0
C398 C 0.54906 0.95537 0.37778 0.0
C399 C 0.47094 0.97541 0.48176 0.0
C400 C 0.44987 0.97446 0.46743 0.0
C401 C 0.44093 0.95573 0.46644 0.0
C402 C 0.43882 0.99125 0.45263 0.0
C403 C 0.41884 0.98918 0.43658 0.0
C404 C 0.42117 0.95365 0.45066 0.0
C405 C 0.41017 0.97023 0.43562 0.0
C406 C 0.52279 0.98226 0.66275 0.0
C407 C 0.53996 0.01469 0.55065 0.0
C408 C 0.54535 0.04788 0.69001 0.0
C409 C 0.5667 0.04865 0.7014 0.0
C410 C 0.57672 0.06639 0.69015 0.0
C411 C 0.57685 0.03298 0.72743 0.0
C412 C 0.59674 0.03538 0.74354 0.0
C413 C 0.59654 0.06863 0.70534 0.0
C414 C 0.6065 0.05328 0.73237 0.0
C415 C 0.49371 0.0399 0.51163 0.0
H416 H 0.44936 0.94263 0.47728 0.0
H417 H 0.44571 0.00574 0.45332 0.0
H418 H 0.41444 0.93912 0.44933 0.0
H419 H 0.39498 0.96814 0.42189 0.0
H420 H 0.56906 0.07869 0.67053 0.0
H421 H 0.56925 0.01926 0.73679 0.0
H422 H 0.60412 0.0824 0.69686 0.0
H423 H 0.62187 0.05531 0.74438 0.0
Gd424 Gd 0.48663 0.52012 0.63431 0.0
Gd425 Gd 0.52657 0.49969 0.54999 0.0
C426 C 0.5869 0.48875 0.63079 0.0
C427 C 0.60859 0.5072 0.56805 0.0
C428 C 0.57289 0.50825 0.55389 0.0
C429 C 0.5703 0.49553 0.59977 0.0
C430 C 0.59213 0.51389 0.53705 0.0
C431 C 0.60598 0.49474 0.61492 0.0
C432 C 0.58393 0.47575 0.67619 0.0
C433 C 0.56483 0.46951 0.68919 0.0
N434 N 0.55173 0.48931 0.61301 0.0
C435 C 0.54887 0.47623 0.65662 0.0
H436 H 0.53431 0.47119 0.66792 0.0
C437 C 0.55904 0.52469 0.47417 0.0
N438 N 0.55678 0.51426 0.52386 0.0
C439 C 0.57774 0.53083 0.45641 0.0
C440 C 0.59436 0.52553 0.48822 0.0
H441 H 0.54625 0.52841 0.44843 0.0
H442 H 0.61887 0.48954 0.63803 0.0
H443 H 0.48091 0.54835 0.51375 0.0
H444 H 0.5963 0.47028 0.70106 0.0
H445 H 0.56239 0.4594 0.72413 0.0
H446 H 0.62345 0.51133 0.55557 0.0
H447 H 0.46452 0.49347 0.73513 0.0
H448 H 0.41931 0.55315 0.47927 0.0
H449 H 0.45389 0.56207 0.4577 0.0
H450 H 0.38917 0.51323 0.62226 0.0
H451 H 0.57933 0.53938 0.41774 0.0
H452 H 0.6089 0.53005 0.47387 0.0
H453 H 0.3954 0.5349 0.54046 0.0
H454 H 0.4309 0.48357 0.7631 0.0
N455 N 0.46233 0.53134 0.56872 0.0
C456 C 0.43123 0.54687 0.50437 0.0
C457 C 0.45069 0.55203 0.49231 0.0
C458 C 0.42732 0.53384 0.54903 0.0
C459 C 0.44337 0.52605 0.58058 0.0
C460 C 0.46608 0.54428 0.52521 0.0
N461 N 0.45543 0.50692 0.65723 0.0
C462 C 0.43984 0.51351 0.62606 0.0
C463 C 0.43317 0.49169 0.72393 0.0
C464 C 0.41706 0.49755 0.69089 0.0
C465 C 0.45224 0.49698 0.70723 0.0
C466 C 0.42021 0.50891 0.64199 0.0
H467 H 0.40222 0.49383 0.70462 0.0
O468 O 0.48043 0.5267 0.72311 0.0
O469 O 0.51941 0.51692 0.6287 0.0
O470 O 0.51096 0.47391 0.5938 0.0
O471 O 0.48339 0.4868 0.64172 0.0
O472 O 0.5068 0.51072 0.70655 0.0
O473 O 0.4782 0.55001 0.65959 0.0
O474 O 0.53189 0.49321 0.46056 0.0
O475 O 0.49372 0.5024 0.55611 0.0
O476 O 0.50249 0.54573 0.59028 0.0
O477 O 0.53134 0.53279 0.55015 0.0
O478 O 0.50627 0.50944 0.47856 0.0
O479 O 0.53699 0.47039 0.52494 0.0
C480 C 0.52334 0.51254 0.67989 0.0
C481 C 0.4043 0.51651 0.61037 0.0
C482 C 0.40785 0.52889 0.56392 0.0
C483 C 0.47592 0.54504 0.71315 0.0
C484 C 0.48036 0.55935 0.75863 0.0
C485 C 0.4704 0.5572 0.8109 0.0
C486 C 0.49306 0.57548 0.7505 0.0
C487 C 0.49516 0.5897 0.79425 0.0
C488 C 0.47276 0.57118 0.85456 0.0
C489 C 0.48498 0.58746 0.84622 0.0
C490 C 0.49492 0.47179 0.62607 0.0
C491 C 0.48979 0.50704 0.50513 0.0
C492 C 0.53879 0.47566 0.47144 0.0
C493 C 0.53808 0.46086 0.42585 0.0
C494 C 0.55348 0.46092 0.38572 0.0
C495 C 0.52231 0.44758 0.4197 0.0
C496 C 0.52196 0.43453 0.37255 0.0
C497 C 0.55319 0.44783 0.33929 0.0
C498 C 0.53747 0.43472 0.33251 0.0
C499 C 0.51945 0.5478 0.5623 0.0
H500 H 0.46053 0.5448 0.81758 0.0
H501 H 0.50085 0.57722 0.7103 0.0
H502 H 0.46498 0.56949 0.89468 0.0
H503 H 0.48666 0.59825 0.88058 0.0
H504 H 0.56567 0.47125 0.3901 0.0
H505 H 0.51029 0.4477 0.45042 0.0
H506 H 0.56511 0.44794 0.3084 0.0
H507 H 0.53745 0.42459 0.2962 0.0
Gd508 Gd 1.00015 0.49305 0.63058 0.0
Gd509 Gd 0.02158 0.53155 0.54233 0.0
C510 C 0.0331 0.5899 0.63739 0.0
C511 C 0.01195 0.61273 0.58624 0.0
C512 C 0.01164 0.57757 0.56142 0.0
C513 C 0.02593 0.57407 0.60308 0.0
C514 C 1.0048 0.59708 0.55215 0.0
C515 C 0.026 0.60914 0.62884 0.0
C516 C 0.04747 0.58606 0.67897 0.0
C517 C 0.05449 0.56688 0.68556 0.0
N518 N 0.03304 0.5554 0.6097 0.0
C519 C 0.04726 0.55172 0.65027 0.0
H520 H 0.05281 0.5371 0.65762 0.0
C521 C 0.99318 0.56601 0.48171 0.0
N522 N 0.00517 0.56223 0.52812 0.0
C523 C 0.98581 0.58494 0.47175 0.0
C524 C 0.99149 0.60053 0.50743 0.0
H525 H 0.9897 0.55458 0.45051 0.0
H526 H 0.03147 0.62143 0.65454 0.0
H527 H 0.97215 0.48575 0.51136 0.0
H528 H 0.05326 0.59782 0.70611 0.0
H529 H 0.06554 0.56371 0.71785 0.0
H530 H 0.00691 0.62775 0.57941 0.0
H531 H 0.02745 0.47292 0.73449 0.0
H532 H 0.96609 0.42363 0.48427 0.0
H533 H 0.95798 0.45798 0.45744 0.0
H534 H 1.00511 0.39552 0.63414 0.0
H535 H 0.9762 0.58758 0.43543 0.0
H536 H 0.98607 0.61531 0.49885 0.0
H537 H 0.9837 0.40052 0.5502 0.0
H538 H 0.03637 0.43961 0.76863 0.0
N539 N 0.98852 0.46776 0.56904 0.0
C540 C 0.97252 0.43587 0.50821 0.0
C541 C 0.96784 0.45521 0.4931 0.0
C542 C 0.98525 0.43253 0.55443 0.0
C543 C 0.99322 0.44898 0.58428 0.0
C544 C 0.97588 0.47103 0.52433 0.0
N545 N 0.01234 0.46222 0.66019 0.0
C546 C 0.00546 0.44614 0.63122 0.0
C547 C 0.02782 0.44122 0.72968 0.0
C548 C 0.02133 0.42452 0.69945 0.0
C549 C 0.02285 0.46003 0.70998 0.0
C550 C 0.00981 0.42682 0.65002 0.0
H551 H 0.02491 0.40993 0.71531 0.0
O552 O 0.99313 0.49031 0.721 0.0
O553 O 1.004 0.52596 0.62205 0.0
O554 O 0.04697 0.51447 0.58529 0.0
O555 O 0.03323 0.48743 0.63297 0.0
O556 O 0.01258 0.51314 0.69878 0.0
O557 O 0.96971 0.4873 0.65509 0.0
O558 O 0.02658 0.5427 0.45733 0.0
O559 O 0.01666 0.49935 0.55132 0.0
O560 O 0.97482 0.50999 0.5888 0.0
O561 O 0.98913 0.52944 0.51837 0.0
O562 O 0.01917 0.50914 0.46921 0.0
O563 O 0.05112 0.54054 0.51755 0.0
C564 C 0.00951 0.52967 0.6731 0.0
C565 C 1.00202 0.41045 0.62014 0.0
C566 C 0.98981 0.41329 0.57241 0.0
C567 C 0.97456 0.48705 0.70931 0.0
C568 C 0.96005 0.48363 0.75401 0.0
C569 C 0.96242 0.46793 0.7922 0.0
C570 C 0.9442 0.49673 0.76032 0.0
C571 C 0.9306 0.49412 0.8046 0.0
C572 C 0.94865 0.46512 0.8359 0.0
C573 C 0.93271 0.47813 0.84208 0.0
C574 C 0.04862 0.49819 0.61683 0.0
C575 C 0.0164 0.49359 0.49953 0.0
C576 C 0.04545 0.54517 0.46577 0.0
C577 C 0.05816 0.53963 0.4177 0.0
C578 C 0.05548 0.54935 0.36533 0.0
C579 C 0.07325 0.52555 0.42343 0.0
C580 C 0.08585 0.52171 0.3773 0.0
C581 C 0.06791 0.54523 0.31916 0.0
C582 C 0.08316 0.53154 0.32519 0.0
C583 C 0.97357 0.52221 0.54497 0.0
H584 H 0.97486 0.45789 0.78806 0.0
H585 H 0.94264 0.50914 0.73148 0.0
H586 H 0.95044 0.45297 0.86533 0.0
H587 H 0.92231 0.47604 0.87677 0.0
H588 H 0.04387 0.56027 0.36037 0.0
H589 H 0.07548 0.51794 0.46362 0.0
H590 H 0.06585 0.5528 0.27895 0.0
H591 H 0.09292 0.52862 0.2893 0.0
H592 H 0.16919 0.09555 0.15863 0.0
H593 H 0.14569 0.0876 0.23441 0.0
H594 H 0.13431 0.03104 0.15381 0.0
H595 H 0.15806 0.03882 0.07807 0.0
H596 H 0.10668 0.07978 0.23426 0.0
H597 H 0.14628 0.01375 0.31419 0.0
H598 H 0.15734 0.03064 0.26424 0.0
H599 H 0.14018 0.01204 0.23948 0.0
C600 C 0.16163 0.08143 0.15667 0.0
C601 C 0.16566 0.06782 0.11194 0.0
C602 C 0.14819 0.07686 0.20038 0.0
C603 C 0.13838 0.05853 0.20092 0.0
C604 C 0.14204 0.04505 0.15569 0.0
H605 H 0.0535 1.00098 0.42472 0.0
H606 H 0.07715 0.01029 0.35072 0.0
C607 C 0.15562 0.04956 0.1121 0.0
C608 C 0.12424 0.05369 0.24843 0.0
H609 H 0.1142 0.01954 0.35177 0.0
C610 C 0.10839 0.06663 0.26008 0.0
C611 C 0.12638 0.0366 0.28266 0.0
C612 C 0.14356 0.02256 0.275 0.0
C613 C 0.09439 0.0627 0.30335 0.0
C614 C 0.09643 0.04548 0.33728 0.0
C615 C 0.11244 0.03269 0.32599 0.0
C616 C 0.08188 0.04005 0.38329 0.0
C617 C 0.07719 0.07677 0.31071 0.0
C618 C 0.07669 0.05342 0.42759 0.0
C619 C 0.06264 0.04823 0.46926 0.0
C620 C 0.05378 0.02943 0.46827 0.0
C621 C 0.05959 0.01578 0.4257 0.0
C622 C 0.07333 0.02106 0.38357 0.0
H623 H 0.07453 0.08553 0.2714 0.0
H624 H 0.06337 0.06875 0.32139 0.0
H625 H 0.08055 0.08738 0.34604 0.0
H626 H 0.08352 0.06789 0.43018 0.0
H627 H 0.0587 0.05892 0.50218 0.0
H628 H 0.42375 0.17706 0.18215 0.0
H629 H 0.43356 0.15444 0.2581 0.0
H630 H 0.47653 0.12759 0.14519 0.0
H631 H 0.46703 0.15059 0.06919 0.0
H632 H 0.43145 0.11543 0.26479 0.0
H633 H 0.5102 0.13732 0.28415 0.0
H634 H 0.49253 0.15147 0.24345 0.0
H635 H 0.50369 0.1296 0.21281 0.0
C636 C 0.4353 0.16633 0.17339 0.0
C637 C 0.44459 0.16561 0.11943 0.0
C638 C 0.44094 0.15342 0.21702 0.0
C639 C 0.456 0.13941 0.20798 0.0
C640 C 0.46524 0.13857 0.15398 0.0
H641 H 0.48571 0.03384 0.3976 0.0
H642 H 0.47623 0.05839 0.32619 0.0
C643 C 0.45974 0.15166 0.11038 0.0
C644 C 0.46153 0.1254 0.25458 0.0
H645 H 0.50062 0.10796 0.33298 0.0
C646 C 0.44658 0.11389 0.27969 0.0
C647 C 0.48122 0.12352 0.27503 0.0
C648 C 0.4978 0.13628 0.25292 0.0
C649 C 0.45087 0.10024 0.32318 0.0
C650 C 0.47061 0.09791 0.34192 0.0
C651 C 0.48551 0.10965 0.318 0.0
C652 C 0.47604 0.08307 0.38582 0.0
C653 C 0.43433 0.08838 0.34925 0.0
C654 C 0.47893 0.08879 0.44316 0.0
C655 C 0.48425 0.07476 0.48429 0.0
C656 C 0.48697 0.05473 0.46887 0.0
C657 C 0.48376 0.04907 0.41131 0.0
C658 C 0.4784 0.0631 0.37027 0.0
H659 H 0.41956 0.09282 0.33276 0.0
H660 H 0.43661 0.07241 0.3397 0.0
H661 H 0.43451 0.09027 0.39659 0.0
H662 H 0.477 0.10411 0.45613 0.0
H663 H 0.48607 0.07964 0.52812 0.0
H664 H 0.34217 0.47543 0.16304 0.0
H665 H 0.36651 0.48491 0.23528 0.0
H666 H 0.39904 0.43119 0.20177 0.0
H667 H 0.37618 0.42259 0.12535 0.0
H668 H 0.37724 0.47035 0.33258 0.0
H669 H 0.44394 0.46755 0.19498 0.0
H670 H 0.41938 0.46517 0.16555 0.0
H671 H 0.43142 0.44425 0.19809 0.0
C672 C 0.35476 0.46581 0.16934 0.0
C673 C 0.35692 0.4482 0.13679 0.0
C674 C 0.36863 0.47117 0.21181 0.0
C675 C 0.38503 0.45904 0.22389 0.0
C676 C 0.387 0.44125 0.19262 0.0
H677 H 0.46245 0.47784 0.52946 0.0
H678 H 0.43635 0.46504 0.46523 0.0
C679 C 0.37346 0.43612 0.14919 0.0
C680 C 0.39984 0.46502 0.2693 0.0
H681 H 0.44929 0.47265 0.29409 0.0
C682 C 0.39299 0.47085 0.32395 0.0
C683 C 0.42053 0.46571 0.25877 0.0
C684 C 0.42925 0.46051 0.20104 0.0
C685 C 0.40603 0.47755 0.36745 0.0
C686 C 0.42662 0.47827 0.35666 0.0
C687 C 0.43352 0.4721 0.30258 0.0
C688 C 0.44122 0.48669 0.3989 0.0
C689 C 0.39762 0.48451 0.42398 0.0
C690 C 0.45273 0.5031 0.38352 0.0
C691 C 0.46777 0.51017 0.41965 0.0
C692 C 0.4716 0.50126 0.47266 0.0
C693 C 0.45962 0.48529 0.4894 0.0
C694 C 0.44468 0.47797 0.45262 0.0
H695 H 0.38125 0.48594 0.4225 0.0
H696 H 0.40147 0.47372 0.45774 0.0
H697 H 0.40409 0.49903 0.43658 0.0
H698 H 0.45039 0.51019 0.34264 0.0
H699 H 0.47679 0.52243 0.40548 0.0
H700 H 0.03674 0.34356 0.15368 0.0
H701 H 0.02816 0.36788 0.22681 0.0
H702 H 0.08439 0.39665 0.20375 0.0
H703 H 0.09213 0.37422 0.12598 0.0
H704 H 0.04084 0.37671 0.32625 0.0
H705 H 0.05323 0.44471 0.20098 0.0
H706 H 0.05397 0.42053 0.16791 0.0
H707 H 0.07522 0.43008 0.2062 0.0
C708 C 0.04719 0.35533 0.16223 0.0
C709 C 0.06526 0.35641 0.13193 0.0
C710 C 0.04229 0.36923 0.20543 0.0
C711 C 0.05534 0.38465 0.22101 0.0
C712 C 0.07355 0.38553 0.19204 0.0
H713 H 0.04305 0.46376 0.52888 0.0
H714 H 0.05308 0.43574 0.46642 0.0
C715 C 0.07821 0.37206 0.14768 0.0
C716 C 0.04998 0.39943 0.26781 0.0
H717 H 0.04754 0.44909 0.30027 0.0
C718 C 0.04235 0.39252 0.32022 0.0
C719 C 0.05179 0.42027 0.261 0.0
C720 C 0.05881 0.42934 0.20581 0.0
C721 C 0.03649 0.4056 0.36492 0.0
C722 C 0.03841 0.42629 0.35795 0.0
C723 C 0.0462 0.43323 0.30609 0.0
C724 C 0.03089 0.44115 0.4013 0.0
C725 C 0.0276 0.39731 0.41874 0.0
C726 C 0.01484 0.4533 0.38672 0.0
C727 C 0.00919 0.4692 0.42207 0.0
C728 C 0.01911 0.47338 0.47381 0.0
C729 C 0.03459 0.46061 0.49039 0.0
C730 C 0.04045 0.44466 0.45433 0.0
H731 H 0.0258 0.38098 0.41626 0.0
H732 H 0.03725 0.40099 0.45589 0.0
H733 H 0.01292 0.40418 0.4268 0.0
H734 H 0.00716 0.45102 0.3464 0.0
H735 H 0.99752 0.47894 0.40746 0.0
H736 H 0.83882 0.94212 0.01661 0.0
H737 H 0.86188 0.94527 0.93613 0.0
H738 H 0.89878 0.98389 0.03828 0.0
H739 H 0.87596 0.98071 0.11899 0.0
H740 H 0.87321 0.98307 0.8829 0.0
H741 H 0.93775 0.94195 0.96828 0.0
H742 H 0.91293 0.93856 0.99511 0.0
H743 H 0.92709 0.95987 0.01662 0.0
C744 C 0.85206 0.95094 0.02251 0.0
C745 C 0.85549 0.96109 0.07473 0.0
C746 C 0.86516 0.95287 0.97613 0.0
C747 C 0.88216 0.96475 0.98102 0.0
C748 C 0.88589 0.97448 0.03346 0.0
H749 H 0.98272 1.00136 0.78184 0.0
H750 H 0.95816 0.99264 0.85325 0.0
C751 C 0.87274 0.97271 0.07961 0.0
C752 C 0.89558 0.9678 0.93087 0.0
H753 H 0.94321 0.96115 0.88565 0.0
C754 C 0.8885 0.97819 0.88316 0.0
C755 C 0.91551 0.96142 0.9311 0.0
C756 C 0.92382 0.94968 0.98023 0.0
C757 C 0.90102 0.98325 0.83717 0.0
C758 C 0.92119 0.97717 0.83772 0.0
C759 C 0.92795 0.96609 0.88477 0.0
C760 C 0.93588 0.98292 0.79223 0.0
C761 C 0.89257 0.99589 0.7901 0.0
C762 C 0.93193 0.98046 0.73318 0.0
C763 C 0.94585 0.98626 0.69178 0.0
C764 C 0.96439 0.99394 0.70832 0.0
C765 C 0.96858 0.99571 0.76722 0.0
C766 C 0.95448 0.99056 0.80839 0.0
H767 H 0.8792 1.00409 0.80457 0.0
H768 H 0.90358 0.00678 0.77468 0.0
H769 H 0.88806 0.98622 0.75362 0.0
H770 H 0.91819 0.97385 0.7188 0.0
H771 H 0.94227 0.98425 0.64684 0.0
H772 H 0.54997 0.83506 0.99975 0.0
H773 H 0.54724 0.8585 0.92099 0.0
H774 H 0.57387 0.9039 0.02718 0.0
H775 H 0.57702 0.88013 0.10606 0.0
H776 H 0.52482 0.89165 0.92562 0.0
H777 H 0.60235 0.91204 0.87539 0.0
H778 H 0.59611 0.89037 0.91623 0.0
H779 H 0.59601 0.91443 0.94983 0.0
C780 C 0.5556 0.84996 0.00586 0.0
C781 C 0.56368 0.85583 0.05893 0.0
C782 C 0.55401 0.86335 0.96086 0.0
C783 C 0.56042 0.88299 0.96781 0.0
C784 C 0.56917 0.88874 0.02025 0.0
H785 H 0.54313 0.98906 0.76329 0.0
H786 H 0.55273 0.96499 0.83586 0.0
C787 C 0.57091 0.87521 0.06539 0.0
C788 C 0.55608 0.89768 0.9221 0.0
H789 H 0.57709 0.93126 0.83189 0.0
C790 C 0.53629 0.90023 0.905 0.0
C791 C 0.571 0.90894 0.8951 0.0
C792 C 0.59259 0.90624 0.90957 0.0
C793 C 0.53096 0.91385 0.86256 0.0
C794 C 0.54585 0.92514 0.83558 0.0
C795 C 0.56566 0.92265 0.85263 0.0
C796 C 0.54106 0.93961 0.78977 0.0
C797 C 0.50932 0.91631 0.84795 0.0
C798 C 0.53172 0.93337 0.73894 0.0
C799 C 0.52615 0.94711 0.69742 0.0
C800 C 0.52991 0.96745 0.70523 0.0
C801 C 0.53987 0.97357 0.75551 0.0
C802 C 0.54543 0.9598 0.79716 0.0
H803 H 0.4996 0.91068 0.88249 0.0
H804 H 0.50563 0.93208 0.84034 0.0
H805 H 0.50593 0.90776 0.80828 0.0
H806 H 0.52853 0.91784 0.73156 0.0
H807 H 0.51861 0.94167 0.65977 0.0
H808 H 0.63427 0.55916 0.0964 0.0
H809 H 0.61045 0.55406 0.01764 0.0
H810 H 0.65702 0.56312 0.89481 0.0
H811 H 0.68077 0.56829 0.97356 0.0
H812 H 0.59908 0.57737 0.91667 0.0
H813 H 0.63622 0.50633 0.85967 0.0
H814 H 0.6407 0.51901 0.92695 0.0
H815 H 0.65165 0.528 0.86225 0.0
C816 C 0.63925 0.56058 0.05257 0.0
C817 C 0.65929 0.56437 0.04105 0.0
C818 C 0.62567 0.55758 0.00754 0.0
C819 C 0.63193 0.55794 0.95009 0.0
C820 C 0.65181 0.56256 0.93861 0.0
H821 H 0.55474 0.53611 0.64535 0.0
H822 H 0.58253 0.54807 0.70492 0.0
C823 C 0.66535 0.56571 0.98361 0.0
C824 C 0.61798 0.55213 0.90279 0.0
H825 H 0.60819 0.51505 0.80536 0.0
C826 C 0.6012 0.56385 0.89199 0.0
C827 C 0.62066 0.53447 0.87029 0.0
C828 C 0.63818 0.52109 0.88036 0.0
C829 C 0.58702 0.55825 0.85033 0.0
C830 C 0.58946 0.54034 0.81914 0.0
C831 C 0.60639 0.52883 0.82904 0.0
C832 C 0.57354 0.53236 0.78084 0.0
C833 C 0.56923 0.57124 0.84043 0.0
C834 C 0.55954 0.51923 0.80313 0.0
C835 C 0.54383 0.51228 0.76922 0.0
C836 C 0.54171 0.5182 0.71193 0.0
C837 C 0.55604 0.53103 0.689 0.0
C838 C 0.57186 0.53799 0.72314 0.0
H839 H 0.56965 0.58501 0.86685 0.0
H840 H 0.56847 0.57532 0.79451 0.0
H841 H 0.55551 0.56296 0.85058 0.0
H842 H 0.56052 0.51467 0.84741 0.0
H843 H 0.53303 0.50254 0.78833 0.0
H844 H 0.94224 0.67745 0.99603 0.0
H845 H 0.94654 0.65358 0.91652 0.0
H846 H 0.98536 0.61878 0.02208 0.0
H847 H 0.9812 0.64252 0.10108 0.0
H848 H 0.98278 0.64251 0.86079 0.0
H849 H 0.94671 0.57719 0.95576 0.0
H850 H 0.94263 0.60206 0.98231 0.0
H851 H 0.96443 0.5886 1.00316 0.0
C852 C 0.95136 0.66449 1.00268 0.0
C853 C 0.96127 0.66191 0.05537 0.0
C854 C 0.95396 0.65091 0.95691 0.0
C855 C 0.96621 0.63418 0.96299 0.0
C856 C 0.97565 0.63134 0.01609 0.0
H857 H 0.0213 0.53864 0.78119 0.0
H858 H 0.00923 0.56473 0.8453 0.0
C859 C 0.97329 0.64501 0.06139 0.0
C860 C 0.96995 0.62005 0.91381 0.0
H861 H 0.96867 0.57079 0.87735 0.0
C862 C 0.97941 0.62688 0.86405 0.0
C863 C 0.96545 0.5996 0.9173 0.0
C864 C 0.95406 0.59141 0.96721 0.0
C865 C 0.98545 0.61374 0.81972 0.0
C866 C 0.98187 0.59317 0.82481 0.0
C867 C 0.97166 0.58649 0.87339 0.0
C868 C 0.98987 0.57813 0.78288 0.0
C869 C 0.99643 0.62181 0.76887 0.0
C870 C 0.98321 0.57686 0.72561 0.0
C871 C 0.99003 0.56166 0.68861 0.0
C872 C 1.00387 0.54758 0.70787 0.0
C873 C 0.01079 0.54927 0.76464 0.0
C874 C 1.00384 0.56421 0.80156 0.0
H875 H 1.00062 0.63758 0.7751 0.0
H876 H 0.01004 0.613 0.76059 0.0
H877 H 0.98691 0.62063 0.73018 0.0
H878 H 0.97226 0.58721 0.71005 0.0
H879 H 0.984 0.56055 0.64566 0.0
H880 H 0.11288 0.20707 0.14899 0.0
H881 H 0.09988 0.1797 0.20591 0.0
H882 H 0.0487 0.21483 0.24974 0.0
H883 H 0.06087 0.24166 0.19113 0.0
H884 H 0.08804 0.17709 0.32266 0.0
H885 H 0.02517 0.16559 0.17258 0.0
H886 H 0.0463 0.18066 0.15487 0.0
H887 H 0.02684 0.19052 0.19929 0.0
C888 C 0.09889 0.20895 0.17091 0.0
C889 C 0.0879 0.22652 0.16537 0.0
C890 C 0.09156 0.19338 0.20355 0.0
C891 C 0.0732 0.19522 0.23088 0.0
C892 C 0.06275 0.21307 0.22802 0.0
H893 H 0.99929 0.13866 0.46412 0.0
H894 H 0.02385 0.15923 0.4163 0.0
C895 C 0.06992 0.22851 0.19516 0.0
C896 C 0.06438 0.17831 0.2607 0.0
H897 H 0.02276 0.14989 0.26381 0.0
C898 C 0.07393 0.17089 0.30943 0.0
C899 C 0.04606 0.17022 0.24272 0.0
C900 C 0.03558 0.17702 0.18917 0.0
C901 C 0.06501 0.15618 0.34252 0.0
C902 C 0.04631 0.14887 0.326 0.0
C903 C 0.03718 0.15565 0.27601 0.0
C904 C 0.03494 0.1355 0.36245 0.0
C905 C 0.07522 0.14884 0.39567 0.0
C906 C 0.03357 0.11533 0.34857 0.0
C907 C 0.01951 0.10354 0.37565 0.0
C908 C 0.00655 0.11196 0.41619 0.0
C909 C 0.00894 0.1319 0.4325 0.0
C910 C 0.02302 0.1436 0.40566 0.0
H911 H 0.09052 0.1547 0.39991 0.0
H912 H 0.06659 0.15345 0.43399 0.0
H913 H 0.07575 0.1324 0.39494 0.0
H914 H 0.04262 0.109 0.31479 0.0
H915 H 0.01792 0.08825 0.3621 0.0
H916 H 0.31383 0.11085 0.14176 0.0
H917 H 0.34 0.09718 0.20241 0.0
H918 H 0.30171 0.04883 0.24811 0.0
H919 H 0.27597 0.06166 0.18557 0.0
H920 H 0.34211 0.08752 0.3182 0.0
H921 H 0.34945 0.0209 0.17881 0.0
H922 H 0.33536 0.04233 0.15767 0.0
H923 H 0.32477 0.02442 0.20519 0.0
C924 C 0.31099 0.09733 0.16484 0.0
C925 C 0.29289 0.08728 0.15852 0.0
C926 C 0.32589 0.08963 0.19964 0.0
C927 C 0.32285 0.07183 0.22857 0.0
C928 C 0.30442 0.0624 0.22511 0.0
H929 H 0.38084 0.99828 0.46492 0.0
H930 H 0.35928 0.02209 0.41727 0.0
C931 C 0.28962 0.06994 0.19 0.0
C932 C 0.33915 0.06257 0.26053 0.0
H933 H 0.36584 0.01989 0.26952 0.0
C934 C 0.34748 0.07283 0.30731 0.0
C935 C 0.34623 0.0435 0.24547 0.0
C936 C 0.33863 0.03223 0.1937 0.0
C937 C 0.36222 0.06408 0.34105 0.0
C938 C 0.36858 0.04476 0.32735 0.0
C939 C 0.36075 0.03475 0.27963 0.0
C940 C 0.38244 0.03392 0.36388 0.0
C941 C 0.37068 0.07519 0.39175 0.0
C942 C 0.40261 0.03325 0.3503 0.0
C943 C 0.41495 0.01957 0.37711 0.0
C944 C 0.40711 0.00633 0.41724 0.0
C945 C 0.38717 0.00811 0.43351 0.0
C946 C 0.3749 0.02176 0.40677 0.0
H947 H 0.36486 0.09053 0.39507 0.0
H948 H 0.36705 0.0672 0.43171 0.0
H949 H 0.38707 0.07574 0.38834 0.0
H950 H 0.40851 0.04251 0.3168 0.0
H951 H 0.43024 0.01846 0.36361 0.0
H952 H 0.42815 0.31667 0.09245 0.0
H953 H 0.4407 0.34273 0.15578 0.0
H954 H 0.43868 0.30288 0.29882 0.0
H955 H 0.42574 0.27666 0.2358 0.0
H956 H 0.42389 0.3586 0.26125 0.0
H957 H 0.49742 0.32219 0.28818 0.0
H958 H 0.48065 0.31552 0.23084 0.0
H959 H 0.47574 0.30761 0.30252 0.0
C960 C 0.42987 0.31358 0.13763 0.0
C961 C 0.42586 0.29469 0.15935 0.0
C962 C 0.43718 0.32841 0.17356 0.0
C963 C 0.44069 0.32455 0.23153 0.0
C964 C 0.4362 0.30595 0.2539 0.0
H965 H 0.50925 0.40642 0.44644 0.0
H966 H 0.48592 0.37944 0.42449 0.0
C967 C 0.42882 0.29107 0.21798 0.0
C968 C 0.44968 0.34 0.26766 0.0
H969 H 0.49342 0.35383 0.3287 0.0
C970 C 0.43897 0.35749 0.27703 0.0
C971 C 0.46934 0.33833 0.28774 0.0
C972 C 0.48159 0.31999 0.2767 0.0
C973 C 0.44772 0.37379 0.30434 0.0
C974 C 0.46764 0.37245 0.32212 0.0
C975 C 0.47804 0.35461 0.3154 0.0
C976 C 0.47888 0.39007 0.33971 0.0
C977 C 0.43583 0.39253 0.31214 0.0
C978 C 0.48227 0.40492 0.29941 0.0
C979 C 0.49555 0.42009 0.31162 0.0
C980 C 0.50559 0.42057 0.36422 0.0
C981 C 0.50146 0.40631 0.4058 0.0
C982 C 0.48826 0.39097 0.39333 0.0
H983 H 0.4197 0.38938 0.31305 0.0
H984 H 0.44007 0.40042 0.3523 0.0
H985 H 0.43871 0.4025 0.2756 0.0
H986 H 0.47545 0.40419 0.25738 0.0
H987 H 0.4986 0.431 0.27912 0.0
H988 H 0.20867 0.4015 0.16521 0.0
H989 H 0.18147 0.41501 0.22347 0.0
H990 H 0.21424 0.46918 0.24871 0.0
H991 H 0.24099 0.45622 0.18977 0.0
H992 H 0.18197 0.43316 0.34247 0.0
H993 H 0.16108 0.4841 0.16682 0.0
H994 H 0.17655 0.46263 0.15525 0.0
H995 H 0.1868 0.48484 0.18626 0.0
C996 C 0.21008 0.4162 0.18373 0.0
C997 C 0.22695 0.42776 0.17339 0.0
C998 C 0.19466 0.4238 0.21707 0.0
C999 C 0.19601 0.44302 0.23983 0.0
C1000 C 0.21307 0.45429 0.23126 0.0
H1001 H 0.12426 0.53112 0.38952 0.0
H1002 H 0.15226 0.50901 0.37083 0.0
C1003 C 0.22838 0.44678 0.19805 0.0
C1004 C 0.17913 0.4521 0.26924 0.0
H1005 H 0.14656 0.49022 0.25772 0.0
C1006 C 0.17401 0.4455 0.32401 0.0
C1007 C 0.16894 0.46811 0.24441 0.0
C1008 C 0.17347 0.47526 0.18473 0.0
C1009 C 0.15922 0.45515 0.35576 0.0
C1010 C 0.14954 0.47154 0.33155 0.0
C1011 C 0.15432 0.47773 0.27618 0.0
C1012 C 0.13415 0.48275 0.36177 0.0
C1013 C 0.15436 0.44825 0.41527 0.0
C1014 C 0.11498 0.47494 0.36544 0.0
C1015 C 0.09903 0.48754 0.3763 0.0
C1016 C 0.10232 0.50791 0.38297 0.0
C1017 C 0.12163 0.51537 0.3846 0.0
C1018 C 0.13753 0.5028 0.3742 0.0
H1019 H 0.1649 0.43681 0.43047 0.0
H1020 H 0.15454 0.46098 0.44577 0.0
H1021 H 0.13921 0.44191 0.41549 0.0
H1022 H 0.11217 0.45954 0.35488 0.0
H1023 H 0.08411 0.48169 0.3746 0.0
H1024 H 0.96044 0.77482 0.9517 0.0
H1025 H 0.966 0.80136 0.88404 0.0
H1026 H 0.92154 0.83687 0.96925 0.0
H1027 H 0.91707 0.81063 0.04006 0.0
H1028 H 0.94929 0.82518 0.81003 0.0
H1029 H 0.97005 0.86771 0.00716 0.0
H1030 H 0.96316 0.84203 0.00932 0.0
H1031 H 0.94447 0.86089 1.00258 0.0
C1032 C 0.95134 0.788 0.95459 0.0
C1033 C 0.93853 0.79096 1.00096 0.0
C1034 C 0.95451 0.80318 0.91599 0.0
C1035 C 0.94465 0.82132 0.92292 0.0
C1036 C 0.92976 0.8232 0.9645 0.0
H1037 H 0.99682 0.93125 0.80385 0.0
H1038 H 0.97132 0.9077 0.83181 0.0
C1039 C 0.92704 0.80821 1.00439 0.0
C1040 C 0.95259 0.83881 0.89342 0.0
H1041 H 0.97786 0.88164 0.91965 0.0
C1042 C 0.95521 0.83774 0.8338 0.0
C1043 C 0.96061 0.85501 0.92484 0.0
C1044 C 0.95963 0.85647 0.98948 0.0
C1045 C 0.96631 0.85202 0.805 0.0
C1046 C 0.97473 0.86781 0.83673 0.0
C1047 C 0.97119 0.86951 0.89565 0.0
C1048 C 0.98884 0.88179 0.81144 0.0
C1049 C 0.96947 0.84974 0.74133 0.0
C1050 C 0.00708 0.87491 0.7907 0.0
C1051 C 0.02164 0.88829 0.7743 0.0
C1052 C 0.01827 0.90878 0.7791 0.0
C1053 C 0.9998 0.91557 0.79894 0.0
C1054 C 0.98522 0.90217 0.81499 0.0
H1055 H 0.95755 0.84075 0.72104 0.0
H1056 H 0.97011 0.86437 0.72017 0.0
H1057 H 0.98373 0.84201 0.73368 0.0
H1058 H 0.01031 0.85921 0.7891 0.0
H1059 H 0.0356 0.8826 0.75848 0.0
H1060 H 0.73889 0.97486 0.98128 0.0
H1061 H 0.71172 0.98104 0.91555 0.0
H1062 H 0.68779 0.9231 0.95025 0.0
H1063 H 0.71452 0.91753 0.02003 0.0
H1064 H 0.69648 0.9665 0.82296 0.0
H1065 H 0.64279 0.95646 1.00132 0.0
H1066 H 0.66914 0.95597 0.01292 0.0
H1067 H 0.65676 0.93489 0.98154 0.0
C1068 C 0.72812 0.96324 0.9736 0.0
C1069 C 0.72864 0.94574 1.00518 0.0
C1070 C 0.71256 0.96677 0.93619 0.0
C1071 C 0.69745 0.95271 0.92901 0.0
C1072 C 0.69897 0.93438 0.95657 0.0
H1073 H 0.60217 0.99739 0.7067 0.0
H1074 H 0.62428 0.97263 0.74953 0.0
C1075 C 0.71431 0.93107 0.99559 0.0
C1076 C 0.67948 0.95848 0.89715 0.0
H1077 H 0.63068 0.96987 0.9164 0.0
C1078 C 0.68198 0.96682 0.84281 0.0
C1079 C 0.66063 0.95915 0.92373 0.0
C1080 C 0.65711 0.9513 0.98322 0.0
C1081 C 0.66654 0.97698 0.816 0.0
C1082 C 0.64794 0.97803 0.84321 0.0
C1083 C 0.645 0.96869 0.89573 0.0
C1084 C 0.63242 0.99125 0.82173 0.0
C1085 C 0.67061 0.98786 0.7611 0.0
C1086 C 0.62944 0.0095 0.84942 0.0
C1087 C 0.61709 0.02359 0.82499 0.0
C1088 C 0.60746 0.01949 0.7729 0.0
C1089 C 0.60949 1.00076 0.74699 0.0
C1090 C 0.62205 0.98671 0.7712 0.0
H1091 H 0.6864 0.98692 0.74818 0.0
H1092 H 0.66137 0.98155 0.72604 0.0
H1093 H 0.66656 1.00372 0.76616 0.0
H1094 H 0.63739 0.01318 0.88849 0.0
H1095 H 0.61553 0.03792 0.8458 0.0
H1096 H 0.56356 0.7478 0.9488 0.0
H1097 H 0.55794 0.72142 0.87874 0.0
H1098 H 0.59584 0.68258 0.97535 0.0
H1099 H 0.6011 0.70888 0.04677 0.0
H1100 H 0.57679 0.69275 0.80991 0.0
H1101 H 0.53973 0.6616 1.00185 0.0
H1102 H 0.5498 0.68626 1.00115 0.0
H1103 H 0.5659 0.66529 0.00983 0.0
C1104 C 0.57143 0.73394 0.95374 0.0
C1105 C 0.58248 0.73015 1.00344 0.0
C1106 C 0.5682 0.71889 0.91368 0.0
C1107 C 0.57612 0.70002 0.9229 0.0
C1108 C 0.58939 0.69704 0.96829 0.0
H1109 H 0.5347 0.58944 0.77469 0.0
H1110 H 0.55729 0.61744 0.79158 0.0
C1111 C 0.5924 0.71201 0.00887 0.0
C1112 C 0.56719 0.683 0.89294 0.0
H1113 H 0.53654 0.64387 0.9158 0.0
C1114 C 0.56825 0.68183 0.83292 0.0
C1115 C 0.55553 0.66925 0.92339 0.0
C1116 C 0.55246 0.67069 0.98749 0.0
C1117 C 0.55783 0.66716 0.80243 0.0
C1118 C 0.54639 0.65347 0.83307 0.0
C1119 C 0.54561 0.65442 0.89292 0.0
C1120 C 0.53377 0.63871 0.80481 0.0
C1121 C 0.55837 0.6667 0.73792 0.0
C1122 C 0.51327 0.64179 0.80502 0.0
C1123 C 0.5005 0.6259 0.79646 0.0
C1124 C 0.50817 0.60685 0.78734 0.0
C1125 C 0.52864 0.60412 0.78148 0.0
C1126 C 0.54147 0.62003 0.79075 0.0
H1127 H 0.56808 0.67841 0.72031 0.0
H1128 H 0.56374 0.65202 0.72277 0.0
H1129 H 0.54316 0.6687 0.72075 0.0
H1130 H 0.50718 0.65612 0.81667 0.0
H1131 H 0.48471 0.6282 0.80102 0.0
H1132 H 0.8123 0.60215 0.06498 0.0
H1133 H 0.84028 0.59771 1.00012 0.0
H1134 H 0.80156 0.57065 0.87467 0.0
H1135 H 0.77354 0.57541 0.93892 0.0
H1136 H 0.844 0.55676 0.98577 0.0
H1137 H 0.84596 0.59435 0.77518 0.0
H1138 H 0.83354 0.6048 0.83709 0.0
H1139 H 0.82213 0.58518 0.79642 0.0
C1140 C 0.80963 0.59636 0.02217 0.0
C1141 C 0.79099 0.58882 0.00692 0.0
C1142 C 0.82556 0.59389 0.98516 0.0
C1143 C 0.82294 0.58375 0.93295 0.0
C1144 C 0.80381 0.57877 0.91442 0.0
H1145 H 0.89105 0.4877 0.79948 0.0
H1146 H 0.86473 0.51165 0.82206 0.0
C1147 C 0.78781 0.58143 0.95127 0.0
C1148 C 0.83989 0.57319 0.90785 0.0
H1149 H 0.86558 0.5649 0.78435 0.0
C1150 C 0.84897 0.55882 0.94205 0.0
C1151 C 0.8459 0.57563 0.85052 0.0
C1152 C 0.83649 0.59093 0.81264 0.0
C1153 C 0.86383 0.54662 0.92022 0.0
C1154 C 0.86968 0.54886 0.86275 0.0
C1155 C 0.86089 0.56336 0.82847 0.0
C1156 C 0.88493 0.5359 0.83852 0.0
C1157 C 0.87302 0.53116 0.95831 0.0
C1158 C 0.90473 0.54196 0.83959 0.0
C1159 C 0.91965 0.52841 0.82666 0.0
C1160 C 0.91482 0.50869 0.81332 0.0
C1161 C 0.89495 0.50285 0.81022 0.0
C1162 C 0.88003 0.51647 0.82245 0.0
H1163 H 0.86764 0.53225 1.00318 0.0
H1164 H 0.86944 0.51617 0.94136 0.0
H1165 H 0.88938 0.53271 0.95838 0.0
H1166 H 0.90865 0.55687 0.85294 0.0
H1167 H 0.93497 0.53308 0.82937 0.0
H1168 H 0.0791 0.22077 0.75463 0.0
H1169 H 0.07225 0.18832 0.7118 0.0
H1170 H 0.04024 0.17153 0.86273 0.0
H1171 H 0.04784 0.20336 0.90761 0.0
H1172 H 0.07958 0.14583 0.76379 0.0
H1173 H 1.00136 0.16514 0.71681 0.0
H1174 H 0.02034 0.18371 0.7266 0.0
H1175 H 0.01038 0.17119 0.78748 0.0
C1176 C 0.07086 0.21023 0.77965 0.0
C1177 C 0.06399 0.21529 0.83525 0.0
C1178 C 0.06687 0.19153 0.75458 0.0
C1179 C 0.05562 0.17734 0.7837 0.0
C1180 C 0.04883 0.18218 0.83897 0.0
H1181 H 0.99192 0.06927 0.70507 0.0
H1182 H 0.00591 0.09998 0.74258 0.0
C1183 C 0.05304 0.20071 0.86443 0.0
C1184 C 0.05024 0.15777 0.75609 0.0
H1185 H 0.01074 0.13205 0.70167 0.0
C1186 C 0.06453 0.14274 0.7501 0.0
C1187 C 0.03069 0.15367 0.73781 0.0
C1188 C 0.01475 0.16925 0.74195 0.0
C1189 C 0.0596 0.12354 0.72914 0.0
C1190 C 0.03981 0.11924 0.71158 0.0
C1191 C 0.02582 0.13475 0.71564 0.0
C1192 C 0.03269 0.0989 0.69162 0.0
C1193 C 0.07562 0.10797 0.72866 0.0
C1194 C 0.04301 0.08704 0.65116 0.0
C1195 C 0.03533 0.06864 0.63184 0.0
C1196 C 0.01669 0.06196 0.65043 0.0
C1197 C 0.00637 0.07383 0.69012 0.0
C1198 C 0.01437 0.09164 0.71125 0.0
H1199 H 0.08772 0.11172 0.75919 0.0
H1200 H 0.06967 0.0932 0.73986 0.0
H1201 H 0.08223 0.1071 0.68524 0.0
H1202 H 0.05673 0.09219 0.63285 0.0
H1203 H 0.04353 0.06012 0.60037 0.0
H1204 H 0.31682 0.04941 0.89972 0.0
H1205 H 0.34883 0.04149 0.85735 0.0
H1206 H 0.33121 0.06934 0.70024 0.0
H1207 H 0.29865 0.07656 0.74097 0.0
H1208 H 0.35486 0.01872 0.74694 0.0
H1209 H 0.3871 0.09446 0.74391 0.0
H1210 H 0.36678 0.08822 0.79066 0.0
H1211 H 0.36259 0.09075 0.71523 0.0
C1212 C 0.31941 0.05362 0.85579 0.0
C1213 C 0.30468 0.06359 0.82413 0.0
C1214 C 0.33798 0.04926 0.8318 0.0
C1215 C 0.34264 0.05501 0.77579 0.0
C1216 C 0.32816 0.06501 0.74389 0.0
H1217 H 0.45749 0.04222 0.59493 0.0
H1218 H 0.42494 0.05404 0.62762 0.0
C1219 C 0.30945 0.06917 0.76757 0.0
C1220 C 0.36231 0.04958 0.75034 0.0
H1221 H 0.40737 0.06833 0.71151 0.0
C1222 C 0.36635 0.02957 0.73908 0.0
C1223 C 0.37714 0.06375 0.73843 0.0
C1224 C 0.37337 0.08553 0.74774 0.0
C1225 C 0.38469 0.02327 0.71672 0.0
C1226 C 0.40021 0.03722 0.70861 0.0
C1227 C 0.3959 0.05741 0.71845 0.0
C1228 C 0.42086 0.03107 0.69078 0.0
C1229 C 0.38671 1.0017 0.70016 0.0
C1230 C 0.43018 0.01471 0.7163 0.0
C1231 C 0.44823 0.00741 0.69556 0.0
C1232 C 0.45845 0.01712 0.65177 0.0
C1233 C 0.4501 0.03448 0.62916 0.0
C1234 C 0.43141 0.04123 0.64796 0.0
H1235 H 0.37217 0.9953 0.68749 0.0
H1236 H 0.39712 0.99953 0.66394 0.0
H1237 H 0.39205 0.99324 0.73765 0.0
H1238 H 0.42327 0.00715 0.7516 0.0
H1239 H 0.45423 0.994 0.71382 0.0
H1240 H 0.46261 0.28668 0.755 0.0
H1241 H 0.47121 0.31866 0.712 0.0
H1242 H 0.4425 0.34914 0.8523 0.0
H1243 H 0.43482 0.31728 0.8963 0.0
H1244 H 0.45055 0.34942 0.67284 0.0
H1245 H 0.4949 0.37576 0.85827 0.0
H1246 H 0.48623 0.3506 0.85227 0.0
H1247 H 0.46999 0.3699 0.87791 0.0
C1248 C 0.45831 0.30027 0.77663 0.0
C1249 C 0.44842 0.2996 0.82941 0.0
C1250 C 0.46314 0.31854 0.75203 0.0
C1251 C 0.45802 0.33647 0.77953 0.0
C1252 C 0.44731 0.33566 0.8311 0.0
H1253 H 0.46935 0.46131 0.71183 0.0
H1254 H 0.46039 0.42852 0.74402 0.0
C1255 C 0.4428 0.31745 0.85611 0.0
C1256 C 0.46396 0.35596 0.75473 0.0
H1257 H 0.48724 0.39966 0.78738 0.0
C1258 C 0.45874 0.36031 0.69778 0.0
C1259 C 0.47471 0.37029 0.78696 0.0
C1260 C 0.48196 0.36635 0.84701 0.0
C1261 C 0.4635 0.37866 0.67297 0.0
C1262 C 0.47392 0.39303 0.70565 0.0
C1263 C 0.47925 0.38866 0.7623 0.0
C1264 C 0.47886 0.413 0.68291 0.0
C1265 C 0.45688 0.38281 0.61251 0.0
C1266 C 0.49233 0.4154 0.63764 0.0
C1267 C 0.49752 0.43442 0.61883 0.0
C1268 C 0.48927 0.45145 0.64476 0.0
C1269 C 0.47577 0.44882 0.68987 0.0
C1270 C 0.47069 0.42992 0.70876 0.0
H1271 H 0.44592 0.37176 0.59673 0.0
H1272 H 0.45023 0.39781 0.60981 0.0
H1273 H 0.4699 0.38235 0.58364 0.0
H1274 H 0.4991 0.40258 0.61749 0.0
H1275 H 0.50801 0.43576 0.58407 0.0
H1276 H 0.22353 0.48145 0.83989 0.0
H1277 H 0.19177 0.48903 0.79376 0.0
H1278 H 0.17795 0.42685 0.78509 0.0
H1279 H 0.20947 0.41915 0.83178 0.0
H1280 H 0.17633 0.47566 0.68428 0.0
H1281 H 0.12879 0.451 0.86381 0.0
H1282 H 0.15495 0.45563 0.87273 0.0
H1283 H 0.1466 0.43328 0.8381 0.0
C1284 C 0.21372 0.46937 0.82853 0.0
C1285 C 0.21924 0.44967 0.83985 0.0
C1286 C 0.19555 0.47373 0.8018 0.0
C1287 C 0.18222 0.45857 0.78639 0.0
C1288 C 0.18774 0.43888 0.79712 0.0
H1289 H 0.06025 0.46135 0.65328 0.0
H1290 H 0.0925 0.45131 0.69076 0.0
C1291 C 0.20596 0.43449 0.8234 0.0
C1292 C 0.16266 0.46338 0.759 0.0
H1293 H 0.11254 0.46136 0.77983 0.0
C1294 C 0.16238 0.47257 0.70525 0.0
C1295 C 0.14435 0.45908 0.78564 0.0
C1296 C 0.14355 0.44933 0.84344 0.0
C1297 C 0.14446 0.47744 0.6774 0.0
C1298 C 0.12609 0.47381 0.70494 0.0
C1299 C 0.12643 0.46435 0.75846 0.0
C1300 C 0.10646 0.47986 0.67958 0.0
C1301 C 0.1455 0.48582 0.61781 0.0
C1302 C 0.10317 0.4993 0.66041 0.0
C1303 C 0.08472 0.50501 0.63803 0.0
C1304 C 0.06876 0.49163 0.63575 0.0
C1305 C 0.07203 0.47219 0.65493 0.0
C1306 C 0.09058 0.46639 0.67645 0.0
H1307 H 0.15926 0.4811 0.59557 0.0
H1308 H 0.13263 0.48115 0.59127 0.0
H1309 H 0.1457 0.50222 0.6207 0.0
H1310 H 0.11477 0.51029 0.66378 0.0
H1311 H 0.08284 0.52012 0.62407 0.0
H1312 H 0.95851 0.79576 0.4476 0.0
H1313 H 0.96293 0.82916 0.48858 0.0
H1314 H 0.96405 0.85317 0.31806 0.0
H1315 H 0.95816 0.82014 0.2779 0.0
H1316 H 0.98979 0.85402 0.48971 0.0
H1317 H 0.92946 0.8936 0.3811 0.0
H1318 H 0.93153 0.86703 0.37728 0.0
H1319 H 0.94518 0.88243 0.32839 0.0
C1320 C 0.95928 0.80828 0.41907 0.0
C1321 C 0.95758 0.80529 0.35949 0.0
C1322 C 0.96191 0.82746 0.44248 0.0
C1323 C 0.96334 0.84422 0.40697 0.0
C1324 C 0.96209 0.841 0.34725 0.0
H1325 H 0.02835 0.95097 0.48395 0.0
H1326 H 0.01496 0.91897 0.45347 0.0
C1327 C 0.95891 0.82195 0.32404 0.0
C1328 C 0.96738 0.86471 0.43181 0.0
H1329 H 0.95603 0.9141 0.41806 0.0
C1330 C 0.98213 0.86701 0.47422 0.0
C1331 C 0.95727 0.88207 0.41353 0.0
C1332 C 0.93984 0.88111 0.37311 0.0
C1333 C 0.98761 0.88582 0.4962 0.0
C1334 C 0.97867 0.90317 0.47432 0.0
C1335 C 0.96327 0.90095 0.43416 0.0
C1336 C 0.98601 0.92358 0.49046 0.0
C1337 C 1.00296 0.88698 0.54319 0.0
C1338 C 0.97406 0.93748 0.51981 0.0
C1339 C 0.98178 0.95604 0.53747 0.0
C1340 C 1.00155 0.96122 0.52537 0.0
C1341 C 0.01311 0.94754 0.49422 0.0
C1342 C 0.00548 0.9291 0.47694 0.0
H1343 H 1.00474 0.87259 0.56523 0.0
H1344 H 0.01745 0.89108 0.52451 0.0
H1345 H 0.9989 0.89847 0.57549 0.0
H1346 H 0.95895 0.93374 0.53062 0.0
H1347 H 0.97248 0.96606 0.56193 0.0
H1348 H 0.70692 0.9924 0.32733 0.0
H1349 H 0.67344 0.99567 0.3651 0.0
H1350 H 0.68068 0.94138 0.45804 0.0
H1351 H 0.71457 0.93796 0.42005 0.0
H1352 H 0.64101 0.96726 0.35321 0.0
H1353 H 0.66101 0.98353 0.58058 0.0
H1354 H 0.67842 0.98675 0.52281 0.0
H1355 H 0.67225 0.96235 0.54625 0.0
C1356 C 0.70158 0.98122 0.35641 0.0
C1357 C 0.71369 0.96506 0.3713 0.0
C1358 C 0.6823 0.98306 0.37767 0.0
C1359 C 0.6745 0.96893 0.41497 0.0
C1360 C 0.68641 0.95264 0.42986 0.0
H1361 H 0.55401 0.97674 0.56918 0.0
H1362 H 0.58582 0.96266 0.53698 0.0
C1363 C 0.70576 0.95064 0.40791 0.0
C1364 C 0.65382 0.97144 0.43699 0.0
H1365 H 0.62721 0.98495 0.55604 0.0
C1366 C 0.638 0.97088 0.39772 0.0
C1367 C 0.64977 0.97615 0.49511 0.0
C1368 C 0.66618 0.97738 0.5389 0.0
C1369 C 0.61848 0.97536 0.41463 0.0
C1370 C 0.61454 0.98082 0.47214 0.0
C1371 C 0.63019 0.9807 0.51196 0.0
C1372 C 0.59473 0.9886 0.49002 0.0
C1373 C 0.60207 0.97444 0.37087 0.0
C1374 C 0.58902 0.00775 0.47403 0.0
C1375 C 0.57101 0.01581 0.49259 0.0
C1376 C 0.55803 1.00486 0.52691 0.0
C1377 C 0.56353 0.98548 0.54213 0.0
C1378 C 0.58176 0.97747 0.52403 0.0
H1379 H 0.60679 0.96692 0.33059 0.0
H1380 H 0.58922 0.96642 0.38877 0.0
H1381 H 0.59715 0.98967 0.36058 0.0
H1382 H 0.59875 0.01666 0.448 0.0
H1383 H 0.56728 0.03079 0.48046 0.0
H1384 H 0.53149 0.71965 0.35077 0.0
H1385 H 0.52682 0.68678 0.39033 0.0
H1386 H 0.58851 0.68454 0.43709 0.0
H1387 H 0.59333 0.71789 0.39817 0.0
H1388 H 0.54679 0.65108 0.35647 0.0
H1389 H 0.5585 0.66977 0.58705 0.0
H1390 H 0.55306 0.68841 0.53436 0.0
H1391 H 0.57728 0.67758 0.53765 0.0
C1392 C 0.54405 0.71245 0.37055 0.0
C1393 C 0.56273 0.72172 0.3722 0.0
C1394 C 0.54137 0.69349 0.39261 0.0
C1395 C 0.55723 0.68323 0.41727 0.0
C1396 C 0.57597 0.69228 0.419 0.0
H1397 H 0.55694 0.5604 0.53675 0.0
H1398 H 0.56709 0.59269 0.50056 0.0
C1399 C 0.57872 0.71132 0.39649 0.0
C1400 C 0.55391 0.66295 0.43999 0.0
H1401 H 0.55104 0.63653 0.56409 0.0
C1402 C 0.54786 0.64788 0.40181 0.0
C1403 C 0.55526 0.65875 0.49921 0.0
C1404 C 0.56125 0.67444 0.54226 0.0
C1405 C 0.54294 0.62887 0.42134 0.0
C1406 C 0.54387 0.62485 0.48056 0.0
C1407 C 0.55028 0.63973 0.51869 0.0
C1408 C 0.53774 0.60537 0.50357 0.0
C1409 C 0.53653 0.61316 0.37885 0.0
C1410 C 0.51789 0.60185 0.51783 0.0
C1411 C 0.51197 0.58333 0.53834 0.0
C1412 C 0.52581 0.56792 0.54456 0.0
C1413 C 0.54578 0.57171 0.53128 0.0
C1414 C 0.55167 0.59023 0.51096 0.0
H1415 H 0.53747 0.6183 0.33388 0.0
H1416 H 0.54593 0.59979 0.3836 0.0
H1417 H 0.52103 0.60875 0.38784 0.0
H1418 H 0.50692 0.61339 0.51253 0.0
H1419 H 0.4965 0.58098 0.54813 0.0
H1420 H 0.80901 0.54927 0.27971 0.0
H1421 H 0.84206 0.5441 0.32071 0.0
H1422 H 0.82543 0.57823 0.47015 0.0
H1423 H 0.79215 0.58327 0.42895 0.0
H1424 H 0.87131 0.57132 0.35524 0.0
H1425 H 0.84625 0.52705 0.54087 0.0
H1426 H 0.83019 0.5323 0.48096 0.0
H1427 H 0.83534 0.55115 0.53372 0.0
C1428 C 0.81245 0.5557 0.32129 0.0
C1429 C 0.798 0.56659 0.35126 0.0
C1430 C 0.83136 0.55276 0.34472 0.0
C1431 C 0.83631 0.56048 0.39907 0.0
C1432 C 0.82196 0.57175 0.42871 0.0
H1433 H 0.94273 0.53679 0.60807 0.0
H1434 H 0.9103 0.54801 0.57363 0.0
C1435 C 0.80298 0.57476 0.40505 0.0
C1436 C 0.85646 0.55654 0.42399 0.0
H1437 H 0.88042 0.53241 0.53221 0.0
C1438 C 0.8733 0.56287 0.39411 0.0
C1439 C 0.85922 0.54577 0.47516 0.0
C1440 C 0.84184 0.53852 0.50952 0.0
C1441 C 0.89267 0.55878 0.41365 0.0
C1442 C 0.89551 0.54712 0.46341 0.0
C1443 C 0.87857 0.54117 0.49391 0.0
C1444 C 0.91571 0.54073 0.48429 0.0
C1445 C 0.90975 0.56763 0.38121 0.0
C1446 C 0.92986 0.53262 0.44639 0.0
C1447 C 0.94869 0.52688 0.46594 0.0
C1448 C 0.95358 0.52816 0.52437 0.0
C1449 C 0.93932 0.53554 0.56278 0.0
C1450 C 0.92073 0.54195 0.54295 0.0
H1451 H 0.9053 0.58156 0.3598 0.0
H1452 H 0.92252 0.57091 0.40978 0.0
H1453 H 0.91453 0.55711 0.34714 0.0
H1454 H 0.92636 0.53049 0.40151 0.0
H1455 H 0.9593 0.52102 0.43546 0.0
loop_
_geom_bond_atom_site_label_1
_geom_bond_atom_site_label_2
_geom_bond_distance
_geom_bond_site_symmetry_2
_ccdc_geom_bond_type
P0 O11 1.490 . S
P0 C14 1.812 . S
P0 C20 1.803 . S
P0 C26 1.819 . S
H1 C15 0.941 . S
H2 C16 0.939 . S
H3 C18 0.940 . S
H4 C19 0.940 . S
H5 C21 0.939 . S
H6 C22 0.942 . S
H7 C24 0.940 . S
H8 C25 0.939 . S
H9 C27 0.941 . S
H10 C31 0.939 . S
O11 P0 1.490 . S
H12 C28 0.939 . S
H13 C30 0.928 1_556 S
C14 P0 1.812 . S
C14 C15 1.389 . S
C14 C19 1.391 . S
C15 H1 0.941 . S
C15 C14 1.389 . S
C15 C16 1.397 . S
C16 H2 0.939 . S
C16 C15 1.397 . S
C16 C17 1.378 . S
C17 C16 1.378 . S
C17 C18 1.378 . S
C18 H3 0.940 . S
C18 C17 1.378 . S
C18 C19 1.396 . S
C19 H4 0.940 . S
C19 C14 1.391 . S
C19 C18 1.396 . S
C20 P0 1.803 . S
C20 C21 1.378 . S
C20 C25 1.400 . S
C21 H5 0.939 . S
C21 C20 1.378 . S
C21 C22 1.361 . S
C22 H6 0.942 . S
C22 C21 1.361 . S
C22 C23 1.369 . S
C23 C22 1.369 . S
C23 C24 1.404 . S
C24 H7 0.940 . S
C24 C23 1.404 . S
C24 C25 1.389 . S
C25 H8 0.939 . S
C25 C20 1.400 . S
C25 C24 1.389 . S
C26 P0 1.819 . S
C26 C27 1.391 . S
C26 C31 1.391 . S
C27 H9 0.941 . S
C27 C26 1.391 . S
C27 C28 1.396 . S
C28 H12 0.939 . S
C28 C27 1.396 . S
C28 C29 1.397 . S
C29 C28 1.397 . S
C29 C30 1.385 . S
C30 H13 0.928 1_554 S
C30 C29 1.385 . S
C30 C31 1.388 . S
C31 H10 0.939 . S
C31 C26 1.391 . S
C31 C30 1.388 . S
P32 O43 1.490 . S
P32 C46 1.812 . S
P32 C52 1.803 . S
P32 C58 1.819 . S
H33 C47 0.941 . S
H34 C48 0.939 . S
H35 C50 0.940 . S
H36 C51 0.940 . S
H37 C53 0.939 . S
H38 C54 0.942 . S
H39 C56 0.940 . S
H40 C57 0.939 . S
H41 C59 0.941 . S
H42 C63 0.939 . S
O43 P32 1.490 . S
H44 C60 0.939 . S
H45 C62 0.940 . S
C46 P32 1.812 . S
C46 C47 1.389 . S
C46 C51 1.391 . S
C47 H33 0.941 . S
C47 C46 1.389 . S
C47 C48 1.397 . S
C48 H34 0.939 . S
C48 C47 1.397 . S
C48 C49 1.378 . S
C49 C48 1.378 . S
C49 C50 1.378 . S
C50 H35 0.940 . S
C50 C49 1.378 . S
C50 C51 1.396 . S
C51 H36 0.940 . S
C51 C46 1.391 . S
C51 C50 1.396 . S
C52 P32 1.803 . S
C52 C53 1.378 . S
C52 C57 1.400 . S
C53 H37 0.939 . S
C53 C52 1.378 . S
C53 C54 1.361 . S
C54 H38 0.942 . S
C54 C53 1.361 . S
C54 C55 1.369 . S
C55 C54 1.369 . S
C55 C56 1.404 . S
C56 H39 0.940 . S
C56 C55 1.404 . S
C56 C57 1.389 . S
C57 H40 0.939 . S
C57 C52 1.400 . S
C57 C56 1.389 . S
C58 P32 1.819 . S
C58 C59 1.391 . S
C58 C63 1.391 . S
C59 H41 0.941 . S
C59 C58 1.391 . S
C59 C60 1.396 . S
C60 H44 0.939 . S
C60 C59 1.396 . S
C60 C61 1.397 . S
C61 C60 1.397 . S
C61 C62 1.385 . S
C62 H45 0.940 . S
C62 C61 1.385 . S
C62 C63 1.388 . S
C63 H42 0.939 . S
C63 C58 1.391 . S
C63 C62 1.388 . S
P64 O75 1.490 . S
P64 C78 1.812 . S
P64 C84 1.803 . S
P64 C90 1.819 . S
H65 C79 0.941 . S
H66 C80 0.939 . S
H67 C82 0.940 . S
H68 C83 0.940 . S
H69 C85 0.939 . S
H70 C86 0.942 . S
H71 C88 0.940 . S
H72 C89 0.939 . S
H73 C91 0.941 . S
H74 C95 0.939 . S
O75 P64 1.490 . S
H76 C92 0.939 . S
H77 C94 0.940 . S
C78 P64 1.812 . S
C78 C79 1.389 . S
C78 C83 1.391 . S
C79 H65 0.941 . S
C79 C78 1.389 . S
C79 C80 1.397 . S
C80 H66 0.939 . S
C80 C79 1.397 . S
C80 C81 1.378 . S
C81 C80 1.378 . S
C81 C82 1.378 . S
C82 H67 0.940 . S
C82 C81 1.378 . S
C82 C83 1.396 . S
C83 H68 0.940 . S
C83 C78 1.391 . S
C83 C82 1.396 . S
C84 P64 1.803 . S
C84 C85 1.378 . S
C84 C89 1.400 . S
C85 H69 0.939 . S
C85 C84 1.378 . S
C85 C86 1.361 . S
C86 H70 0.942 . S
C86 C85 1.361 . S
C86 C87 1.369 . S
C87 C86 1.369 . S
C87 C88 1.404 . S
C88 H71 0.940 . S
C88 C87 1.404 . S
C88 C89 1.389 . S
C89 H72 0.939 . S
C89 C84 1.400 . S
C89 C88 1.389 . S
C90 P64 1.819 . S
C90 C91 1.391 . S
C90 C95 1.391 . S
C91 H73 0.941 . S
C91 C90 1.391 . S
C91 C92 1.396 . S
C92 H76 0.939 . S
C92 C91 1.396 . S
C92 C93 1.397 . S
C93 C92 1.397 . S
C93 C94 1.385 . S
C94 H77 0.940 . S
C94 C93 1.385 . S
C94 C95 1.388 . S
C95 H74 0.939 . S
C95 C90 1.391 . S
C95 C94 1.388 . S
P96 O107 1.490 . S
P96 C110 1.812 . S
P96 C116 1.803 . S
P96 C122 1.819 . S
H97 C111 0.941 . S
H98 C112 0.939 . S
H99 C114 0.940 . S
H100 C115 0.940 . S
H101 C117 0.939 . S
H102 C118 0.942 . S
H103 C120 0.940 . S
H104 C121 0.939 . S
H105 C123 0.941 . S
H106 C127 0.939 . S
O107 P96 1.490 . S
H108 C124 0.939 . S
H109 C126 0.939 1_556 S
C110 P96 1.812 . S
C110 C111 1.389 . S
C110 C115 1.391 . S
C111 H97 0.941 . S
C111 C110 1.389 . S
C111 C112 1.397 . S
C112 H98 0.939 . S
C112 C111 1.397 . S
C112 C113 1.378 . S
C113 C112 1.378 . S
C113 C114 1.378 . S
C114 H99 0.940 . S
C114 C113 1.378 . S
C114 C115 1.396 . S
C115 H100 0.940 . S
C115 C110 1.391 . S
C115 C114 1.396 . S
C116 P96 1.803 . S
C116 C117 1.378 . S
C116 C121 1.400 . S
C117 H101 0.939 . S
C117 C116 1.378 . S
C117 C118 1.361 . S
C118 H102 0.942 . S
C118 C117 1.361 . S
C118 C119 1.369 . S
C119 C118 1.369 . S
C119 C120 1.404 . S
C120 H103 0.940 . S
C120 C119 1.404 . S
C120 C121 1.389 . S
C121 H104 0.939 . S
C121 C116 1.400 . S
C121 C120 1.389 . S
C122 P96 1.819 . S
C122 C123 1.391 . S
C122 C127 1.391 . S
C123 H105 0.941 . S
C123 C122 1.391 . S
C123 C124 1.396 . S
C124 H108 0.939 . S
C124 C123 1.396 . S
C124 C125 1.397 . S
C125 C124 1.397 . S
C125 C126 1.385 . S
C126 H109 0.939 1_554 S
C126 C125 1.385 . S
C126 C127 1.388 . S
C127 H106 0.939 . S
C127 C122 1.391 . S
C127 C126 1.388 . S
P128 O139 1.490 . S
P128 C142 1.812 1_554 S
P128 C148 1.803 . S
P128 C154 1.819 . S
H129 C143 0.941 . S
H130 C144 0.939 . S
H131 C146 0.940 . S
H132 C147 0.940 . S
H133 C149 0.939 . S
H134 C150 0.942 . S
H135 C152 0.940 . S
H136 C153 0.939 1_556 S
H137 C155 0.941 . S
H138 C159 0.939 . S
O139 P128 1.490 . S
H140 C156 0.939 . S
H141 C158 0.940 . S
C142 P128 1.812 1_556 S
C142 C143 1.389 . S
C142 C147 1.391 . S
C143 H129 0.941 . S
C143 C142 1.389 . S
C143 C144 1.397 . S
C144 H130 0.939 . S
C144 C143 1.397 . S
C144 C145 1.378 . S
C145 C144 1.378 . S
C145 C146 1.378 . S
C146 H131 0.940 . S
C146 C145 1.378 . S
C146 C147 1.396 . S
C147 H132 0.940 . S
C147 C142 1.391 . S
C147 C146 1.396 . S
C148 P128 1.803 . S
C148 C149 1.378 . S
C148 C153 1.400 . S
C149 H133 0.939 . S
C149 C148 1.378 . S
C149 C150 1.361 . S
C150 H134 0.942 . S
C150 C149 1.361 . S
C150 C151 1.369 . S
C151 C150 1.369 . S
C151 C152 1.404 . S
C152 H135 0.940 . S
C152 C151 1.404 . S
C152 C153 1.389 . S
C153 H136 0.939 1_554 S
C153 C148 1.400 . S
C153 C152 1.389 . S
C154 P128 1.819 . S
C154 C155 1.391 . S
C154 C159 1.391 . S
C155 H137 0.941 . S
C155 C154 1.391 . S
C155 C156 1.396 . S
C156 H140 0.939 . S
C156 C155 1.396 . S
C156 C157 1.397 . S
C157 C156 1.397 . S
C157 C158 1.385 . S
C158 H141 0.940 . S
C158 C157 1.385 . S
C158 C159 1.388 . S
C159 H138 0.939 . S
C159 C154 1.391 . S
C159 C158 1.388 . S
P160 O171 1.490 . S
P160 C174 1.812 1_554 S
P160 C180 1.803 . S
P160 C186 1.819 . S
H161 C175 0.941 . S
H162 C176 0.939 . S
H163 C178 0.940 . S
H164 C179 0.940 . S
H165 C181 0.939 . S
H166 C182 0.942 . S
H167 C184 0.940 . S
H168 C185 0.939 1_556 S
H169 C187 0.941 . S
H170 C191 0.939 . S
O171 P160 1.490 . S
H172 C188 0.939 . S
H173 C190 0.940 . S
C174 P160 1.812 1_556 S
C174 C175 1.389 . S
C174 C179 1.391 . S
C175 H161 0.941 . S
C175 C174 1.389 . S
C175 C176 1.397 . S
C176 H162 0.939 . S
C176 C175 1.397 . S
C176 C177 1.378 . S
C177 C176 1.378 . S
C177 C178 1.378 . S
C178 H163 0.940 . S
C178 C177 1.378 . S
C178 C179 1.396 . S
C179 H164 0.940 . S
C179 C174 1.391 . S
C179 C178 1.396 . S
C180 P160 1.803 . S
C180 C181 1.378 . S
C180 C185 1.400 . S
C181 H165 0.939 . S
C181 C180 1.378 . S
C181 C182 1.361 . S
C182 H166 0.942 . S
C182 C181 1.361 . S
C182 C183 1.369 . S
C183 C182 1.369 . S
C183 C184 1.404 . S
C184 H167 0.940 . S
C184 C183 1.404 . S
C184 C185 1.389 . S
C185 H168 0.939 1_554 S
C185 C180 1.400 . S
C185 C184 1.389 . S
C186 P160 1.819 . S
C186 C187 1.391 . S
C186 C191 1.391 . S
C187 H169 0.941 . S
C187 C186 1.391 . S
C187 C188 1.396 . S
C188 H172 0.939 . S
C188 C187 1.396 . S
C188 C189 1.397 . S
C189 C188 1.397 . S
C189 C190 1.385 . S
C190 H173 0.940 . S
C190 C189 1.385 . S
C190 C191 1.388 . S
C191 H170 0.939 . S
C191 C186 1.391 . S
C191 C190 1.388 . S
P192 O203 1.490 . S
P192 C206 1.812 1_554 S
P192 C212 1.803 . S
P192 C218 1.819 . S
H193 C207 0.941 . S
H194 C208 0.939 . S
H195 C210 0.940 . S
H196 C211 0.940 . S
H197 C213 0.939 . S
H198 C214 0.942 . S
H199 C216 0.940 . S
H200 C217 0.939 1_556 S
H201 C219 0.941 . S
H202 C223 0.939 . S
O203 P192 1.490 . S
H204 C220 0.939 . S
H205 C222 0.940 . S
C206 P192 1.812 1_556 S
C206 C207 1.389 . S
C206 C211 1.391 . S
C207 H193 0.941 . S
C207 C206 1.389 . S
C207 C208 1.397 . S
C208 H194 0.939 . S
C208 C207 1.397 . S
C208 C209 1.378 . S
C209 C208 1.378 . S
C209 C210 1.378 . S
C210 H195 0.940 . S
C210 C209 1.378 . S
C210 C211 1.396 . S
C211 H196 0.940 . S
C211 C206 1.391 . S
C211 C210 1.396 . S
C212 P192 1.803 . S
C212 C213 1.378 . S
C212 C217 1.400 . S
C213 H197 0.939 . S
C213 C212 1.378 . S
C213 C214 1.361 . S
C214 H198 0.942 . S
C214 C213 1.361 . S
C214 C215 1.369 . S
C215 C214 1.369 . S
C215 C216 1.404 . S
C216 H199 0.940 . S
C216 C215 1.404 . S
C216 C217 1.389 . S
C217 H200 0.939 1_554 S
C217 C212 1.400 . S
C217 C216 1.389 . S
C218 P192 1.819 . S
C218 C219 1.391 . S
C218 C223 1.391 . S
C219 H201 0.941 . S
C219 C218 1.391 . S
C219 C220 1.396 . S
C220 H204 0.939 . S
C220 C219 1.396 . S
C220 C221 1.397 . S
C221 C220 1.397 . S
C221 C222 1.385 . S
C222 H205 0.940 . S
C222 C221 1.385 . S
C222 C223 1.388 . S
C223 H202 0.939 . S
C223 C218 1.391 . S
C223 C222 1.388 . S
P224 O235 1.490 . S
P224 C238 1.812 1_554 S
P224 C244 1.803 . S
P224 C250 1.819 . S
H225 C239 0.941 . S
H226 C240 0.939 . S
H227 C242 0.940 . S
H228 C243 0.940 . S
H229 C245 0.939 . S
H230 C246 0.942 . S
H231 C248 0.940 . S
H232 C249 0.939 1_556 S
H233 C251 0.941 . S
H234 C255 0.939 . S
O235 P224 1.490 . S
H236 C252 0.939 . S
H237 C254 0.940 . S
C238 P224 1.812 1_556 S
C238 C239 1.389 . S
C238 C243 1.391 . S
C239 H225 0.941 . S
C239 C238 1.389 . S
C239 C240 1.397 . S
C240 H226 0.939 . S
C240 C239 1.397 . S
C240 C241 1.378 . S
C241 C240 1.378 . S
C241 C242 1.378 . S
C242 H227 0.940 . S
C242 C241 1.378 . S
C242 C243 1.396 . S
C243 H228 0.940 . S
C243 C238 1.391 . S
C243 C242 1.396 . S
C244 P224 1.803 . S
C244 C245 1.378 . S
C244 C249 1.400 . S
C245 H229 0.939 . S
C245 C244 1.378 . S
C245 C246 1.361 . S
C246 H230 0.942 . S
C246 C245 1.361 . S
C246 C247 1.369 . S
C247 C246 1.369 . S
C247 C248 1.404 . S
C248 H231 0.940 . S
C248 C247 1.404 . S
C248 C249 1.389 . S
C249 H232 0.939 1_554 S
C249 C244 1.400 . S
C249 C248 1.389 . S
C250 P224 1.819 . S
C250 C251 1.391 . S
C250 C255 1.391 . S
C251 H233 0.941 . S
C251 C250 1.391 . S
C251 C252 1.396 . S
C252 H236 0.939 . S
C252 C251 1.396 . S
C252 C253 1.397 . S
C253 C252 1.397 . S
C253 C254 1.385 . S
C254 H237 0.940 . S
C254 C253 1.385 . S
C254 C255 1.388 . S
C255 H234 0.939 . S
C255 C250 1.391 . S
C255 C254 1.388 . S
Gd256 N287 2.661 . S
Gd256 N293 2.601 . S
Gd256 O300 2.545 . S
Gd256 O301 2.606 1_655 S
Gd256 O303 2.429 . S
Gd256 O304 2.545 1_655 S
Gd256 O305 2.412 . S
Gd256 O307 2.362 1_545 S
Gd256 O308 2.324 1_655 S
Gd256 C315 2.828 . S
Gd257 N266 2.661 1_565 S
Gd257 N270 2.601 . S
Gd257 O301 2.362 1_565 S
Gd257 O302 2.324 1_455 S
Gd257 O306 2.545 . S
Gd257 O307 2.606 1_455 S
Gd257 O309 2.429 . S
Gd257 O310 2.545 . S
Gd257 O311 2.412 . S
Gd257 C324 2.828 . S
C258 C261 1.417 . S
C258 C263 1.431 . S
C258 C264 1.412 . S
C259 C262 1.437 . S
C259 C263 1.317 . S
C259 H278 0.929 . S
C260 C261 1.426 . S
C260 C262 1.413 . S
C260 N270 1.359 1_545 S
C261 C258 1.417 . S
C261 C260 1.426 . S
C261 N266 1.350 . S
C262 C259 1.437 . S
C262 C260 1.413 . S
C262 C272 1.391 1_545 S
C263 C258 1.431 . S
C263 C259 1.317 . S
C263 H274 0.930 . S
C264 C258 1.412 . S
C264 C265 1.355 . S
C264 H276 0.930 . S
C265 C264 1.355 . S
C265 C267 1.402 . S
C265 H277 0.930 1_455 S
N266 Gd257 2.661 1_545 S
N266 C261 1.350 . S
N266 C267 1.307 . S
C267 C265 1.402 . S
C267 N266 1.307 . S
C267 H268 0.930 1_455 S
H268 C267 0.930 1_655 S
C269 N270 1.334 . S
C269 C271 1.394 . S
C269 H273 0.930 . S
N270 Gd257 2.601 . S
N270 C260 1.359 1_565 S
N270 C269 1.334 . S
C271 C269 1.394 . S
C271 C272 1.359 . S
C271 H283 0.930 . S
C272 C262 1.391 1_565 S
C272 C271 1.359 . S
C272 H284 0.934 . S
H273 C269 0.930 . S
H274 C263 0.930 . S
H275 C292 0.930 . S
H276 C264 0.930 . S
H277 C265 0.930 1_655 S
H278 C259 0.929 . S
H279 C297 0.930 . S
H280 C288 0.930 . S
H281 C289 0.930 . S
H282 C313 0.929 . S
H283 C271 0.930 . S
H284 C272 0.934 . S
H285 C314 0.930 . S
H286 C295 0.930 . S
N287 Gd256 2.661 . S
N287 C291 1.350 1_545 S
N287 C292 1.307 1_645 S
C288 H280 0.930 . S
C288 C289 1.355 1_655 S
C288 C290 1.412 . S
C289 H281 0.930 . S
C289 C288 1.355 1_455 S
C289 C292 1.402 . S
C290 C288 1.412 . S
C290 C291 1.417 . S
C290 C314 1.431 . S
C291 N287 1.350 1_565 S
C291 C290 1.417 . S
C291 C294 1.426 1_565 S
C292 H275 0.930 . S
C292 N287 1.307 1_465 S
C292 C289 1.402 . S
N293 Gd256 2.601 . S
N293 C294 1.359 . S
N293 C297 1.334 . S
C294 C291 1.426 1_545 S
C294 N293 1.359 . S
C294 C298 1.413 . S
C295 H286 0.930 . S
C295 C296 1.359 . S
C295 C297 1.394 . S
C296 C295 1.359 . S
C296 C298 1.391 . S
C296 H299 0.929 . S
C297 H279 0.930 . S
C297 N293 1.334 . S
C297 C295 1.394 . S
C298 C294 1.413 . S
C298 C296 1.391 . S
C298 C313 1.437 1_545 S
H299 C296 0.929 . S
O300 Gd256 2.545 . S
O300 C315 1.258 . S
O301 Gd256 2.606 1_455 S
O301 Gd257 2.362 1_545 S
O301 C312 1.284 . S
O302 Gd257 2.324 1_655 S
O302 C322 1.254 1_565 S
O303 Gd256 2.429 . S
O303 C322 1.268 . S
O304 Gd256 2.545 1_455 S
O304 C312 1.250 . S
O305 Gd256 2.412 . S
O305 C315 1.252 . S
O306 Gd257 2.545 . S
O306 C324 1.258 . S
O307 Gd256 2.362 1_565 S
O307 Gd257 2.606 1_655 S
O307 C323 1.284 . S
O308 Gd256 2.324 1_455 S
O308 C331 1.254 . S
O309 Gd257 2.429 . S
O309 C331 1.268 1_565 S
O310 Gd257 2.545 . S
O310 C323 1.250 1_455 S
O311 Gd257 2.412 . S
O311 C324 1.252 . S
C312 O301 1.284 . S
C312 O304 1.250 . S
C313 H282 0.929 . S
C313 C298 1.437 1_565 S
C313 C314 1.317 . S
C314 H285 0.930 . S
C314 C290 1.431 . S
C314 C313 1.317 . S
C315 Gd256 2.828 . S
C315 O300 1.258 . S
C315 O305 1.252 . S
C315 C316 1.497 . S
C316 C315 1.497 . S
C316 C317 1.395 . S
C316 C318 1.380 . S
C317 C316 1.395 . S
C317 C320 1.398 . S
C317 H332 0.930 . S
C318 C316 1.380 . S
C318 C319 1.391 . S
C318 H333 0.930 1_655 S
C319 C318 1.391 . S
C319 C321 1.387 . S
C320 C317 1.398 . S
C320 C321 1.380 . S
C320 H334 0.930 . S
C321 C319 1.387 . S
C321 C320 1.380 . S
C321 H335 0.930 . S
C322 O302 1.254 1_545 S
C322 O303 1.268 . S
C323 O307 1.284 . S
C323 O310 1.250 1_655 S
C324 Gd257 2.828 . S
C324 O306 1.258 . S
C324 O311 1.252 . S
C324 C325 1.497 . S
C325 C324 1.497 . S
C325 C326 1.395 . S
C325 C327 1.380 . S
C326 C325 1.395 . S
C326 C329 1.398 . S
C326 H336 0.930 . S
C327 C325 1.380 . S
C327 C328 1.391 . S
C327 H337 0.930 1_455 S
C328 C327 1.391 . S
C328 C330 1.387 . S
C329 C326 1.398 . S
C329 C330 1.380 . S
C329 H338 0.930 . S
C330 C328 1.387 . S
C330 C329 1.380 . S
C330 H339 0.930 . S
C331 O308 1.254 . S
C331 O309 1.268 1_545 S
H332 C317 0.930 . S
H333 C318 0.930 1_455 S
H334 C320 0.930 . S
H335 C321 0.930 . S
H336 C326 0.930 . S
H337 C327 0.930 1_655 S
H338 C329 0.930 . S
H339 C330 0.930 . S
Gd340 N371 2.661 . S
Gd340 N377 2.601 . S
Gd340 O384 2.545 . S
Gd340 O385 2.606 1_565 S
Gd340 O387 2.429 . S
Gd340 O388 2.545 1_565 S
Gd340 O389 2.412 . S
Gd340 O391 2.362 . S
Gd340 O392 2.324 1_565 S
Gd340 C399 2.828 . S
Gd341 N350 2.661 . S
Gd341 N354 2.601 . S
Gd341 O385 2.362 . S
Gd341 O386 2.324 1_545 S
Gd341 O390 2.545 . S
Gd341 O391 2.606 1_545 S
Gd341 O393 2.429 . S
Gd341 O394 2.545 . S
Gd341 O395 2.412 . S
Gd341 C408 2.828 . S
C342 C345 1.417 . S
C342 C347 1.431 . S
C342 C348 1.412 . S
C343 C346 1.437 . S
C343 C347 1.317 . S
C343 H362 0.929 . S
C344 C345 1.426 . S
C344 C346 1.413 . S
C344 N354 1.359 . S
C345 C342 1.417 . S
C345 C344 1.426 . S
C345 N350 1.350 . S
C346 C343 1.437 . S
C346 C344 1.413 . S
C346 C356 1.391 . S
C347 C342 1.431 . S
C347 C343 1.317 . S
C347 H358 0.930 . S
C348 C342 1.412 . S
C348 C349 1.355 . S
C348 H360 0.930 . S
C349 C348 1.355 . S
C349 C351 1.402 . S
C349 H361 0.930 1_545 S
N350 Gd341 2.661 . S
N350 C345 1.350 . S
N350 C351 1.307 . S
C351 C349 1.402 . S
C351 N350 1.307 . S
C351 H352 0.930 1_545 S
H352 C351 0.930 1_565 S
C353 N354 1.334 . S
C353 C355 1.394 . S
C353 H357 0.930 . S
N354 Gd341 2.601 . S
N354 C344 1.359 . S
N354 C353 1.334 . S
C355 C353 1.394 . S
C355 C356 1.359 . S
C355 H367 0.930 . S
C356 C346 1.391 . S
C356 C355 1.359 . S
C356 H368 0.929 . S
H357 C353 0.930 . S
H358 C347 0.930 . S
H359 C376 0.930 . S
H360 C348 0.930 . S
H361 C349 0.930 1_565 S
H362 C343 0.929 . S
H363 C381 0.930 . S
H364 C372 0.930 . S
H365 C373 0.930 . S
H366 C397 0.929 . S
H367 C355 0.930 . S
H368 C356 0.929 . S
H369 C398 0.930 . S
H370 C379 0.930 . S
N371 Gd340 2.661 . S
N371 C375 1.350 . S
N371 C376 1.307 1_565 S
C372 H364 0.930 . S
C372 C373 1.355 1_565 S
C372 C374 1.412 . S
C373 H365 0.930 . S
C373 C372 1.355 1_545 S
C373 C376 1.402 . S
C374 C372 1.412 . S
C374 C375 1.417 . S
C374 C398 1.431 . S
C375 N371 1.350 . S
C375 C374 1.417 . S
C375 C378 1.426 . S
C376 H359 0.930 . S
C376 N371 1.307 1_545 S
C376 C373 1.402 . S
N377 Gd340 2.601 . S
N377 C378 1.359 . S
N377 C381 1.334 . S
C378 C375 1.426 . S
C378 N377 1.359 . S
C378 C382 1.413 . S
C379 H370 0.930 . S
C379 C380 1.359 . S
C379 C381 1.394 . S
C380 C379 1.359 . S
C380 C382 1.391 . S
C380 H383 0.929 . S
C381 H363 0.930 . S
C381 N377 1.334 . S
C381 C379 1.394 . S
C382 C378 1.413 . S
C382 C380 1.391 . S
C382 C397 1.437 . S
H383 C380 0.929 . S
O384 Gd340 2.545 . S
O384 C399 1.258 . S
O385 Gd340 2.606 1_545 S
O385 Gd341 2.362 . S
O385 C396 1.284 . S
O386 Gd341 2.324 1_565 S
O386 C406 1.254 . S
O387 Gd340 2.429 . S
O387 C406 1.268 . S
O388 Gd340 2.545 1_545 S
O388 C396 1.250 . S
O389 Gd340 2.412 . S
O389 C399 1.252 . S
O390 Gd341 2.545 . S
O390 C408 1.258 . S
O391 Gd340 2.362 . S
O391 Gd341 2.606 1_565 S
O391 C407 1.284 . S
O392 Gd340 2.324 1_545 S
O392 C415 1.254 . S
O393 Gd341 2.429 . S
O393 C415 1.268 . S
O394 Gd341 2.545 . S
O394 C407 1.250 1_545 S
O395 Gd341 2.412 . S
O395 C408 1.252 . S
C396 O385 1.284 . S
C396 O388 1.250 . S
C397 H366 0.929 . S
C397 C382 1.437 . S
C397 C398 1.317 . S
C398 H369 0.930 . S
C398 C374 1.431 . S
C398 C397 1.317 . S
C399 Gd340 2.828 . S
C399 O384 1.258 . S
C399 O389 1.252 . S
C399 C400 1.497 . S
C400 C399 1.497 . S
C400 C401 1.395 . S
C400 C402 1.380 . S
C401 C400 1.395 . S
C401 C404 1.398 . S
C401 H416 0.930 . S
C402 C400 1.380 . S
C402 C403 1.391 . S
C402 H417 0.930 1_565 S
C403 C402 1.391 . S
C403 C405 1.387 . S
C404 C401 1.398 . S
C404 C405 1.380 . S
C404 H418 0.930 . S
C405 C403 1.387 . S
C405 C404 1.380 . S
C405 H419 0.930 . S
C406 O386 1.254 . S
C406 O387 1.268 . S
C407 O391 1.284 . S
C407 O394 1.250 1_565 S
C408 Gd341 2.828 . S
C408 O390 1.258 . S
C408 O395 1.252 . S
C408 C409 1.497 . S
C409 C408 1.497 . S
C409 C410 1.395 . S
C409 C411 1.380 . S
C410 C409 1.395 . S
C410 C413 1.398 . S
C410 H420 0.930 . S
C411 C409 1.380 . S
C411 C412 1.391 . S
C411 H421 0.942 . S
C412 C411 1.391 . S
C412 C414 1.387 . S
C413 C410 1.398 . S
C413 C414 1.380 . S
C413 H422 0.930 . S
C414 C412 1.387 . S
C414 C413 1.380 . S
C414 H423 0.930 . S
C415 O392 1.254 . S
C415 O393 1.268 . S
H416 C401 0.930 . S
H417 C402 0.930 1_545 S
H418 C404 0.930 . S
H419 C405 0.930 . S
H420 C410 0.930 . S
H421 C411 0.942 . S
H422 C413 0.930 . S
H423 C414 0.930 . S
Gd424 N455 2.661 . S
Gd424 N461 2.601 . S
Gd424 O468 2.545 . S
Gd424 O469 2.606 . S
Gd424 O471 2.429 . S
Gd424 O472 2.545 . S
Gd424 O473 2.412 . S
Gd424 O475 2.362 . S
Gd424 O476 2.324 . S
Gd424 C483 2.828 . S
Gd425 N434 2.661 . S
Gd425 N438 2.601 . S
Gd425 O469 2.362 . S
Gd425 O470 2.324 . S
Gd425 O474 2.545 . S
Gd425 O475 2.606 . S
Gd425 O477 2.429 . S
Gd425 O478 2.545 . S
Gd425 O479 2.412 . S
Gd425 C492 2.828 . S
C426 C429 1.417 . S
C426 C431 1.431 . S
C426 C432 1.412 . S
C427 C430 1.437 . S
C427 C431 1.317 . S
C427 H446 0.929 . S
C428 C429 1.426 . S
C428 C430 1.413 . S
C428 N438 1.359 . S
C429 C426 1.417 . S
C429 C428 1.426 . S
C429 N434 1.350 . S
C430 C427 1.437 . S
C430 C428 1.413 . S
C430 C440 1.391 . S
C431 C426 1.431 . S
C431 C427 1.317 . S
C431 H442 0.930 . S
C432 C426 1.412 . S
C432 C433 1.355 . S
C432 H444 0.930 . S
C433 C432 1.355 . S
C433 C435 1.402 . S
C433 H445 0.930 . S
N434 Gd425 2.661 . S
N434 C429 1.350 . S
N434 C435 1.307 . S
C435 C433 1.402 . S
C435 N434 1.307 . S
C435 H436 0.930 . S
H436 C435 0.930 . S
C437 N438 1.334 . S
C437 C439 1.394 . S
C437 H441 0.930 . S
N438 Gd425 2.601 . S
N438 C428 1.359 . S
N438 C437 1.334 . S
C439 C437 1.394 . S
C439 C440 1.359 . S
C439 H451 0.930 . S
C440 C430 1.391 . S
C440 C439 1.359 . S
C440 H452 0.929 . S
H441 C437 0.930 . S
H442 C431 0.930 . S
H443 C460 0.930 . S
H444 C432 0.930 . S
H445 C433 0.930 . S
H446 C427 0.929 . S
H447 C465 0.930 . S
H448 C456 0.930 . S
H449 C457 0.930 . S
H450 C481 0.929 . S
H451 C439 0.930 . S
H452 C440 0.929 . S
H453 C482 0.930 . S
H454 C463 0.930 . S
N455 Gd424 2.661 . S
N455 C459 1.350 . S
N455 C460 1.307 . S
C456 H448 0.930 . S
C456 C457 1.355 . S
C456 C458 1.412 . S
C457 H449 0.930 . S
C457 C456 1.355 . S
C457 C460 1.402 . S
C458 C456 1.412 . S
C458 C459 1.417 . S
C458 C482 1.431 . S
C459 N455 1.350 . S
C459 C458 1.417 . S
C459 C462 1.426 . S
C460 H443 0.930 . S
C460 N455 1.307 . S
C460 C457 1.402 . S
N461 Gd424 2.601 . S
N461 C462 1.359 . S
N461 C465 1.334 . S
C462 C459 1.426 . S
C462 N461 1.359 . S
C462 C466 1.413 . S
C463 H454 0.930 . S
C463 C464 1.359 . S
C463 C465 1.394 . S
C464 C463 1.359 . S
C464 C466 1.391 . S
C464 H467 0.929 . S
C465 H447 0.930 . S
C465 N461 1.334 . S
C465 C463 1.394 . S
C466 C462 1.413 . S
C466 C464 1.391 . S
C466 C481 1.437 . S
H467 C464 0.929 . S
O468 Gd424 2.545 . S
O468 C483 1.258 . S
O469 Gd424 2.606 . S
O469 Gd425 2.362 . S
O469 C480 1.284 . S
O470 Gd425 2.324 . S
O470 C490 1.254 . S
O471 Gd424 2.429 . S
O471 C490 1.268 . S
O472 Gd424 2.545 . S
O472 C480 1.250 . S
O473 Gd424 2.412 . S
O473 C483 1.252 . S
O474 Gd425 2.545 . S
O474 C492 1.258 . S
O475 Gd424 2.362 . S
O475 Gd425 2.606 . S
O475 C491 1.284 . S
O476 Gd424 2.324 . S
O476 C499 1.254 . S
O477 Gd425 2.429 . S
O477 C499 1.268 . S
O478 Gd425 2.545 . S
O478 C491 1.250 . S
O479 Gd425 2.412 . S
O479 C492 1.252 . S
C480 O469 1.284 . S
C480 O472 1.250 . S
C481 H450 0.929 . S
C481 C466 1.437 . S
C481 C482 1.317 . S
C482 H453 0.930 . S
C482 C458 1.431 . S
C482 C481 1.317 . S
C483 Gd424 2.828 . S
C483 O468 1.258 . S
C483 O473 1.252 . S
C483 C484 1.497 . S
C484 C483 1.497 . S
C484 C485 1.395 . S
C484 C486 1.380 . S
C485 C484 1.395 . S
C485 C488 1.398 . S
C485 H500 0.930 . S
C486 C484 1.380 . S
C486 C487 1.391 . S
C486 H501 0.930 . S
C487 C486 1.391 . S
C487 C489 1.387 . S
C488 C485 1.398 . S
C488 C489 1.380 . S
C488 H502 0.930 . S
C489 C487 1.387 . S
C489 C488 1.380 . S
C489 H503 0.930 . S
C490 O470 1.254 . S
C490 O471 1.268 . S
C491 O475 1.284 . S
C491 O478 1.250 . S
C492 Gd425 2.828 . S
C492 O474 1.258 . S
C492 O479 1.252 . S
C492 C493 1.497 . S
C493 C492 1.497 . S
C493 C494 1.395 . S
C493 C495 1.380 . S
C494 C493 1.395 . S
C494 C497 1.398 . S
C494 H504 0.930 . S
C495 C493 1.380 . S
C495 C496 1.391 . S
C495 H505 0.930 . S
C496 C495 1.391 . S
C496 C498 1.387 . S
C497 C494 1.398 . S
C497 C498 1.380 . S
C497 H506 0.930 . S
C498 C496 1.387 . S
C498 C497 1.380 . S
C498 H507 0.930 . S
C499 O476 1.254 . S
C499 O477 1.268 . S
H500 C485 0.930 . S
H501 C486 0.930 . S
H502 C488 0.930 . S
H503 C489 0.930 . S
H504 C494 0.930 . S
H505 C495 0.930 . S
H506 C497 0.930 . S
H507 C498 0.930 . S
Gd508 N539 2.661 . S
Gd508 N545 2.601 . S
Gd508 O552 2.545 . S
Gd508 O553 2.589 1_655 S
Gd508 O555 2.429 1_655 S
Gd508 O556 2.545 . S
Gd508 O557 2.412 . S
Gd508 O559 2.362 1_655 S
Gd508 O560 2.324 . S
Gd508 C567 2.828 . S
Gd509 N518 2.661 . S
Gd509 N522 2.601 . S
Gd509 O553 2.390 . S
Gd509 O554 2.324 . S
Gd509 O558 2.545 . S
Gd509 O559 2.606 . S
Gd509 O561 2.429 1_455 S
Gd509 O562 2.545 . S
Gd509 O563 2.412 . S
Gd509 C576 2.828 . S
C510 C513 1.417 . S
C510 C515 1.431 . S
C510 C516 1.412 . S
C511 C514 1.437 . S
C511 C515 1.317 . S
C511 H530 0.929 . S
C512 C513 1.426 . S
C512 C514 1.413 . S
C512 N522 1.359 . S
C513 C510 1.417 . S
C513 C512 1.426 . S
C513 N518 1.350 . S
C514 C511 1.437 . S
C514 C512 1.413 . S
C514 C524 1.391 . S
C515 C510 1.431 . S
C515 C511 1.317 . S
C515 H526 0.930 . S
C516 C510 1.412 . S
C516 C517 1.355 . S
C516 H528 0.930 . S
C517 C516 1.355 . S
C517 C519 1.402 . S
C517 H529 0.930 . S
N518 Gd509 2.661 . S
N518 C513 1.350 . S
N518 C519 1.307 . S
C519 C517 1.402 . S
C519 N518 1.307 . S
C519 H520 0.930 . S
H520 C519 0.930 . S
C521 N522 1.334 . S
C521 C523 1.394 . S
C521 H525 0.930 1_455 S
N522 Gd509 2.601 . S
N522 C512 1.359 . S
N522 C521 1.334 . S
C523 C521 1.394 . S
C523 C524 1.359 . S
C523 H535 0.930 1_455 S
C524 C514 1.391 . S
C524 C523 1.359 . S
C524 H536 0.929 . S
H525 C521 0.930 1_655 S
H526 C515 0.930 . S
H527 C544 0.930 . S
H528 C516 0.930 . S
H529 C517 0.930 . S
H530 C511 0.929 . S
H531 C549 0.930 . S
H532 C540 0.930 . S
H533 C541 0.930 . S
H534 C565 0.929 . S
H535 C523 0.930 1_655 S
H536 C524 0.929 . S
H537 C566 0.930 . S
H538 C547 0.930 . S
N539 Gd508 2.661 . S
N539 C543 1.350 . S
N539 C544 1.307 . S
C540 H532 0.930 . S
C540 C541 1.355 . S
C540 C542 1.412 . S
C541 H533 0.930 . S
C541 C540 1.355 . S
C541 C544 1.402 . S
C542 C540 1.412 . S
C542 C543 1.417 . S
C542 C566 1.431 . S
C543 N539 1.350 . S
C543 C542 1.417 . S
C543 C546 1.426 . S
C544 H527 0.930 . S
C544 N539 1.307 . S
C544 C541 1.402 . S
N545 Gd508 2.601 . S
N545 C546 1.359 . S
N545 C549 1.334 1_655 S
C546 C543 1.426 . S
C546 N545 1.359 . S
C546 C550 1.413 . S
C547 H538 0.930 . S
C547 C548 1.359 1_455 S
C547 C549 1.394 . S
C548 C547 1.359 1_655 S
C548 C550 1.391 . S
C548 H551 0.929 . S
C549 H531 0.930 . S
C549 N545 1.334 1_455 S
C549 C547 1.394 . S
C550 C546 1.413 . S
C550 C548 1.391 . S
C550 C565 1.437 . S
H551 C548 0.929 . S
O552 Gd508 2.545 . S
O552 C567 1.258 . S
O553 Gd508 2.589 1_455 S
O553 Gd509 2.390 . S
O553 C564 1.265 1_455 S
O554 Gd509 2.324 . S
O554 C574 1.254 . S
O555 Gd508 2.429 1_455 S
O555 C574 1.268 . S
O556 Gd508 2.545 . S
O556 C564 1.250 . S
O557 Gd508 2.412 . S
O557 C567 1.252 . S
O558 Gd509 2.545 . S
O558 C576 1.258 . S
O559 Gd508 2.362 1_455 S
O559 Gd509 2.606 . S
O559 C575 1.284 . S
O560 Gd508 2.324 . S
O560 C583 1.254 . S
O561 Gd509 2.429 1_655 S
O561 C583 1.268 . S
O562 Gd509 2.545 . S
O562 C575 1.250 . S
O563 Gd509 2.412 . S
O563 C576 1.252 . S
C564 O553 1.265 1_655 S
C564 O556 1.250 . S
C565 H534 0.929 . S
C565 C550 1.437 . S
C565 C566 1.317 . S
C566 H537 0.930 . S
C566 C542 1.431 . S
C566 C565 1.317 . S
C567 Gd508 2.828 . S
C567 O552 1.258 . S
C567 O557 1.252 . S
C567 C568 1.497 . S
C568 C567 1.497 . S
C568 C569 1.395 . S
C568 C570 1.380 . S
C569 C568 1.395 . S
C569 C572 1.398 . S
C569 H584 0.930 . S
C570 C568 1.380 . S
C570 C571 1.391 . S
C570 H585 0.930 . S
C571 C570 1.391 . S
C571 C573 1.387 . S
C572 C569 1.398 . S
C572 C573 1.380 . S
C572 H586 0.930 . S
C573 C571 1.387 . S
C573 C572 1.380 . S
C573 H587 0.930 . S
C574 O554 1.254 . S
C574 O555 1.268 . S
C575 O559 1.284 . S
C575 O562 1.250 . S
C576 Gd509 2.828 . S
C576 O558 1.258 . S
C576 O563 1.252 . S
C576 C577 1.497 . S
C577 C576 1.497 . S
C577 C578 1.395 . S
C577 C579 1.380 . S
C578 C577 1.395 . S
C578 C581 1.398 . S
C578 H588 0.930 . S
C579 C577 1.380 . S
C579 C580 1.391 . S
C579 H589 0.930 . S
C580 C579 1.391 . S
C580 C582 1.387 . S
C581 C578 1.398 . S
C581 C582 1.380 . S
C581 H590 0.930 . S
C582 C580 1.387 . S
C582 C581 1.380 . S
C582 H591 0.930 . S
C583 O560 1.254 . S
C583 O561 1.268 . S
H584 C569 0.930 . S
H585 C570 0.930 . S
H586 C572 0.930 . S
H587 C573 0.930 . S
H588 C578 0.930 . S
H589 C579 0.930 . S
H590 C581 0.930 . S
H591 C582 0.930 . S
H592 C600 0.929 . S
H593 C602 0.930 . S
H594 C604 0.930 . S
H595 C607 0.929 . S
H596 C610 0.930 . S
H597 C612 0.960 . S
H598 C612 0.960 . S
H599 C612 0.960 . S
C600 H592 0.929 . S
C600 C601 1.377 . S
C600 C602 1.384 . S
C601 C600 1.377 . S
C601 C607 1.390 . S
C602 H593 0.930 . S
C602 C600 1.384 . S
C602 C603 1.372 . S
C603 C602 1.372 . S
C603 C604 1.400 . S
C603 C608 1.490 . S
C604 H594 0.930 . S
C604 C603 1.400 . S
C604 C607 1.386 . S
H605 C621 0.894 1_565 S
H606 C622 0.931 . S
C607 H595 0.929 . S
C607 C601 1.390 . S
C607 C604 1.386 . S
C608 C603 1.490 . S
C608 C610 1.395 . S
C608 C611 1.403 . S
H609 C615 0.930 . S
C610 H596 0.930 . S
C610 C608 1.395 . S
C610 C613 1.403 . S
C611 C608 1.403 . S
C611 C612 1.524 . S
C611 C615 1.400 . S
C612 H597 0.960 . S
C612 H598 0.960 . S
C612 H599 0.960 . S
C612 C611 1.524 . S
C613 C610 1.403 . S
C613 C614 1.392 . S
C613 C617 1.495 . S
C614 C613 1.392 . S
C614 C615 1.385 . S
C614 C616 1.478 . S
C615 H609 0.930 . S
C615 C611 1.400 . S
C615 C614 1.385 . S
C616 C614 1.478 . S
C616 C618 1.381 . S
C616 C622 1.383 . S
C617 C613 1.495 . S
C617 H623 0.959 . S
C617 H624 0.961 . S
C617 H625 0.960 . S
C618 C616 1.381 . S
C618 C619 1.394 . S
C618 H626 0.930 . S
C619 C618 1.394 . S
C619 C620 1.383 . S
C619 H627 0.929 . S
C620 C619 1.383 . S
C620 C621 1.377 . S
C621 H605 0.894 1_545 S
C621 C620 1.377 . S
C621 C622 1.379 . S
C622 H606 0.931 . S
C622 C616 1.383 . S
C622 C621 1.379 . S
H623 C617 0.959 . S
H624 C617 0.961 . S
H625 C617 0.960 . S
H626 C618 0.930 . S
H627 C619 0.929 . S
H628 C636 0.929 . S
H629 C638 0.930 . S
H630 C640 0.930 . S
H631 C643 0.929 . S
H632 C646 0.930 . S
H633 C648 0.960 . S
H634 C648 0.960 . S
H635 C648 0.960 . S
C636 H628 0.929 . S
C636 C637 1.377 . S
C636 C638 1.384 . S
C637 C636 1.377 . S
C637 C643 1.390 . S
C638 H629 0.930 . S
C638 C636 1.384 . S
C638 C639 1.372 . S
C639 C638 1.372 . S
C639 C640 1.400 . S
C639 C644 1.490 . S
C640 H630 0.930 . S
C640 C639 1.400 . S
C640 C643 1.386 . S
H641 C657 0.930 . S
H642 C658 0.931 . S
C643 H631 0.929 . S
C643 C637 1.390 . S
C643 C640 1.386 . S
C644 C639 1.490 . S
C644 C646 1.395 . S
C644 C647 1.403 . S
H645 C651 0.930 . S
C646 H632 0.930 . S
C646 C644 1.395 . S
C646 C649 1.403 . S
C647 C644 1.403 . S
C647 C648 1.524 . S
C647 C651 1.400 . S
C648 H633 0.960 . S
C648 H634 0.960 . S
C648 H635 0.960 . S
C648 C647 1.524 . S
C649 C646 1.403 . S
C649 C650 1.392 . S
C649 C653 1.495 . S
C650 C649 1.392 . S
C650 C651 1.385 . S
C650 C652 1.478 . S
C651 H645 0.930 . S
C651 C647 1.400 . S
C651 C650 1.385 . S
C652 C650 1.478 . S
C652 C654 1.381 . S
C652 C658 1.383 . S
C653 C649 1.495 . S
C653 H659 0.959 . S
C653 H660 0.961 . S
C653 H661 0.960 . S
C654 C652 1.381 . S
C654 C655 1.394 . S
C654 H662 0.930 . S
C655 C654 1.394 . S
C655 C656 1.383 . S
C655 H663 0.929 . S
C656 C655 1.383 . S
C656 C657 1.377 . S
C657 H641 0.930 . S
C657 C656 1.377 . S
C657 C658 1.379 . S
C658 H642 0.931 . S
C658 C652 1.383 . S
C658 C657 1.379 . S
H659 C653 0.959 . S
H660 C653 0.961 . S
H661 C653 0.960 . S
H662 C654 0.930 . S
H663 C655 0.929 . S
H664 C672 0.929 . S
H665 C674 0.930 . S
H666 C676 0.930 . S
H667 C679 0.929 . S
H668 C682 0.930 . S
H669 C684 0.960 . S
H670 C684 0.960 . S
H671 C684 0.960 . S
C672 H664 0.929 . S
C672 C673 1.377 . S
C672 C674 1.384 . S
C673 C672 1.377 . S
C673 C679 1.390 . S
C674 H665 0.930 . S
C674 C672 1.384 . S
C674 C675 1.372 . S
C675 C674 1.372 . S
C675 C676 1.400 . S
C675 C680 1.490 . S
C676 H666 0.930 . S
C676 C675 1.400 . S
C676 C679 1.386 . S
H677 C693 0.930 . S
H678 C694 0.931 . S
C679 H667 0.929 . S
C679 C673 1.390 . S
C679 C676 1.386 . S
C680 C675 1.490 . S
C680 C682 1.395 . S
C680 C683 1.403 . S
H681 C687 0.930 . S
C682 H668 0.930 . S
C682 C680 1.395 . S
C682 C685 1.403 . S
C683 C680 1.403 . S
C683 C684 1.524 . S
C683 C687 1.400 . S
C684 H669 0.960 . S
C684 H670 0.960 . S
C684 H671 0.960 . S
C684 C683 1.524 . S
C685 C682 1.403 . S
C685 C686 1.392 . S
C685 C689 1.495 . S
C686 C685 1.392 . S
C686 C687 1.385 . S
C686 C688 1.478 . S
C687 H681 0.930 . S
C687 C683 1.400 . S
C687 C686 1.385 . S
C688 C686 1.478 . S
C688 C690 1.381 . S
C688 C694 1.383 . S
C689 C685 1.495 . S
C689 H695 0.959 . S
C689 H696 0.961 . S
C689 H697 0.960 . S
C690 C688 1.381 . S
C690 C691 1.394 . S
C690 H698 0.930 . S
C691 C690 1.394 . S
C691 C692 1.383 . S
C691 H699 0.929 . S
C692 C691 1.383 . S
C692 C693 1.377 . S
C693 H677 0.930 . S
C693 C692 1.377 . S
C693 C694 1.379 . S
C694 H678 0.931 . S
C694 C688 1.383 . S
C694 C693 1.379 . S
H695 C689 0.959 . S
H696 C689 0.961 . S
H697 C689 0.960 . S
H698 C690 0.930 . S
H699 C691 0.929 . S
H700 C708 0.929 . S
H701 C710 0.930 . S
H702 C712 0.930 . S
H703 C715 0.929 . S
H704 C718 0.930 . S
H705 C720 0.960 . S
H706 C720 0.960 . S
H707 C720 0.960 . S
C708 H700 0.929 . S
C708 C709 1.377 . S
C708 C710 1.384 . S
C709 C708 1.377 . S
C709 C715 1.390 . S
C710 H701 0.930 . S
C710 C708 1.384 . S
C710 C711 1.372 . S
C711 C710 1.372 . S
C711 C712 1.400 . S
C711 C716 1.490 . S
C712 H702 0.930 . S
C712 C711 1.400 . S
C712 C715 1.386 . S
H713 C729 0.930 . S
H714 C730 0.931 . S
C715 H703 0.929 . S
C715 C709 1.390 . S
C715 C712 1.386 . S
C716 C711 1.490 . S
C716 C718 1.395 . S
C716 C719 1.403 . S
H717 C723 0.930 . S
C718 H704 0.930 . S
C718 C716 1.395 . S
C718 C721 1.403 . S
C719 C716 1.403 . S
C719 C720 1.524 . S
C719 C723 1.400 . S
C720 H705 0.960 . S
C720 H706 0.960 . S
C720 H707 0.960 . S
C720 C719 1.524 . S
C721 C718 1.403 . S
C721 C722 1.392 . S
C721 C725 1.495 . S
C722 C721 1.392 . S
C722 C723 1.385 . S
C722 C724 1.478 . S
C723 H717 0.930 . S
C723 C719 1.400 . S
C723 C722 1.385 . S
C724 C722 1.478 . S
C724 C726 1.381 . S
C724 C730 1.383 . S
C725 C721 1.495 . S
C725 H731 0.959 . S
C725 H732 0.961 . S
C725 H733 0.960 . S
C726 C724 1.381 . S
C726 C727 1.394 . S
C726 H734 0.930 . S
C727 C726 1.394 . S
C727 C728 1.383 . S
C727 H735 0.929 1_455 S
C728 C727 1.383 . S
C728 C729 1.377 . S
C729 H713 0.930 . S
C729 C728 1.377 . S
C729 C730 1.379 . S
C730 H714 0.931 . S
C730 C724 1.383 . S
C730 C729 1.379 . S
H731 C725 0.959 . S
H732 C725 0.961 . S
H733 C725 0.960 . S
H734 C726 0.930 . S
H735 C727 0.929 1_655 S
H736 C744 0.929 . S
H737 C746 0.930 . S
H738 C748 0.930 . S
H739 C751 0.929 . S
H740 C754 0.930 . S
H741 C756 0.960 . S
H742 C756 0.960 . S
H743 C756 0.960 1_554 S
C744 H736 0.929 . S
C744 C745 1.377 . S
C744 C746 1.384 1_554 S
C745 C744 1.377 . S
C745 C751 1.390 . S
C746 H737 0.930 . S
C746 C744 1.384 1_556 S
C746 C747 1.372 . S
C747 C746 1.372 . S
C747 C748 1.400 1_556 S
C747 C752 1.490 . S
C748 H738 0.930 . S
C748 C747 1.400 1_554 S
C748 C751 1.386 . S
H749 C765 0.934 . S
H750 C766 0.931 1_545 S
C751 H739 0.929 . S
C751 C745 1.390 . S
C751 C748 1.386 . S
C752 C747 1.490 . S
C752 C754 1.395 . S
C752 C755 1.403 . S
H753 C759 0.930 . S
C754 H740 0.930 . S
C754 C752 1.395 . S
C754 C757 1.403 . S
C755 C752 1.403 . S
C755 C756 1.524 . S
C755 C759 1.400 . S
C756 H741 0.960 . S
C756 H742 0.960 . S
C756 H743 0.960 1_556 S
C756 C755 1.524 . S
C757 C754 1.403 . S
C757 C758 1.392 . S
C757 C761 1.495 . S
C758 C757 1.392 . S
C758 C759 1.385 . S
C758 C760 1.478 . S
C759 H753 0.930 . S
C759 C755 1.400 . S
C759 C758 1.385 . S
C760 C758 1.478 . S
C760 C762 1.381 . S
C760 C766 1.383 . S
C761 C757 1.495 . S
C761 H767 0.959 . S
C761 H768 0.961 1_565 S
C761 H769 0.960 . S
C762 C760 1.381 . S
C762 C763 1.394 . S
C762 H770 0.930 . S
C763 C762 1.394 . S
C763 C764 1.383 . S
C763 H771 0.929 . S
C764 C763 1.383 . S
C764 C765 1.374 1_565 S
C765 H749 0.934 . S
C765 C764 1.374 1_545 S
C765 C766 1.378 1_545 S
C766 H750 0.931 1_565 S
C766 C760 1.383 . S
C766 C765 1.378 1_565 S
H767 C761 0.959 . S
H768 C761 0.961 1_545 S
H769 C761 0.960 . S
H770 C762 0.930 . S
H771 C763 0.929 . S
H772 C780 0.929 . S
H773 C782 0.930 . S
H774 C784 0.930 . S
H775 C787 0.929 . S
H776 C790 0.930 . S
H777 C792 0.960 . S
H778 C792 0.960 . S
H779 C792 0.960 . S
C780 H772 0.929 . S
C780 C781 1.377 . S
C780 C782 1.384 1_554 S
C781 C780 1.377 . S
C781 C787 1.390 . S
C782 H773 0.930 . S
C782 C780 1.384 1_556 S
C782 C783 1.372 . S
C783 C782 1.372 . S
C783 C784 1.400 1_556 S
C783 C788 1.490 . S
C784 H774 0.930 . S
C784 C783 1.400 1_554 S
C784 C787 1.386 . S
H785 C801 0.930 . S
H786 C802 0.931 . S
C787 H775 0.929 . S
C787 C781 1.390 . S
C787 C784 1.386 . S
C788 C783 1.490 . S
C788 C790 1.395 . S
C788 C791 1.403 . S
H789 C795 0.930 . S
C790 H776 0.930 . S
C790 C788 1.395 . S
C790 C793 1.403 . S
C791 C788 1.403 . S
C791 C792 1.524 . S
C791 C795 1.400 . S
C792 H777 0.960 . S
C792 H778 0.960 . S
C792 H779 0.960 . S
C792 C791 1.524 . S
C793 C790 1.403 . S
C793 C794 1.392 . S
C793 C797 1.495 . S
C794 C793 1.392 . S
C794 C795 1.385 . S
C794 C796 1.478 . S
C795 H789 0.930 . S
C795 C791 1.400 . S
C795 C794 1.385 . S
C796 C794 1.478 . S
C796 C798 1.381 . S
C796 C802 1.383 . S
C797 C793 1.495 . S
C797 H803 0.959 . S
C797 H804 0.961 . S
C797 H805 0.960 . S
C798 C796 1.381 . S
C798 C799 1.394 . S
C798 H806 0.930 . S
C799 C798 1.394 . S
C799 C800 1.383 . S
C799 H807 0.929 . S
C800 C799 1.383 . S
C800 C801 1.377 . S
C801 H785 0.930 . S
C801 C800 1.377 . S
C801 C802 1.379 . S
C802 H786 0.931 . S
C802 C796 1.383 . S
C802 C801 1.379 . S
H803 C797 0.959 . S
H804 C797 0.961 . S
H805 C797 0.960 . S
H806 C798 0.930 . S
H807 C799 0.929 . S
H808 C816 0.929 . S
H809 C818 0.930 . S
H810 C820 0.930 . S
H811 C823 0.931 . S
H812 C826 0.930 . S
H813 C828 0.960 . S
H814 C828 0.960 . S
H815 C828 0.960 . S
C816 H808 0.929 . S
C816 C817 1.377 . S
C816 C818 1.384 . S
C817 C816 1.377 . S
C817 C823 1.384 1_554 S
C818 H809 0.930 . S
C818 C816 1.384 . S
C818 C819 1.372 1_554 S
C819 C818 1.372 1_556 S
C819 C820 1.400 . S
C819 C824 1.490 . S
C820 H810 0.930 . S
C820 C819 1.400 . S
C820 C823 1.390 . S
H821 C837 0.930 . S
H822 C838 0.931 . S
C823 H811 0.931 . S
C823 C817 1.384 1_556 S
C823 C820 1.390 . S
C824 C819 1.490 . S
C824 C826 1.395 . S
C824 C827 1.403 . S
H825 C831 0.930 . S
C826 H812 0.930 . S
C826 C824 1.395 . S
C826 C829 1.403 . S
C827 C824 1.403 . S
C827 C828 1.524 . S
C827 C831 1.400 . S
C828 H813 0.960 . S
C828 H814 0.960 . S
C828 H815 0.960 . S
C828 C827 1.524 . S
C829 C826 1.403 . S
C829 C830 1.392 . S
C829 C833 1.495 . S
C830 C829 1.392 . S
C830 C831 1.385 . S
C830 C832 1.478 . S
C831 H825 0.930 . S
C831 C827 1.400 . S
C831 C830 1.385 . S
C832 C830 1.478 . S
C832 C834 1.381 . S
C832 C838 1.383 . S
C833 C829 1.495 . S
C833 H839 0.959 . S
C833 H840 0.961 . S
C833 H841 0.960 . S
C834 C832 1.381 . S
C834 C835 1.394 . S
C834 H842 0.930 . S
C835 C834 1.394 . S
C835 C836 1.383 . S
C835 H843 0.929 . S
C836 C835 1.383 . S
C836 C837 1.377 . S
C837 H821 0.930 . S
C837 C836 1.377 . S
C837 C838 1.379 . S
C838 H822 0.931 . S
C838 C832 1.383 . S
C838 C837 1.379 . S
H839 C833 0.959 . S
H840 C833 0.961 . S
H841 C833 0.960 . S
H842 C834 0.930 . S
H843 C835 0.929 . S
H844 C852 0.927 1_556 S
H845 C854 0.930 . S
H846 C856 0.930 . S
H847 C859 0.929 . S
H848 C862 0.930 . S
H849 C864 0.960 . S
H850 C864 0.960 . S
H851 C864 0.960 . S
C852 H844 0.927 1_554 S
C852 C853 1.377 . S
C852 C854 1.384 1_554 S
C853 C852 1.377 . S
C853 C859 1.390 . S
C854 H845 0.930 . S
C854 C852 1.384 1_556 S
C854 C855 1.372 . S
C855 C854 1.372 . S
C855 C856 1.400 1_556 S
C855 C860 1.490 . S
C856 H846 0.930 . S
C856 C855 1.400 1_554 S
C856 C859 1.386 . S
H857 C873 0.930 1_455 S
H858 C874 0.931 . S
C859 H847 0.929 . S
C859 C853 1.390 . S
C859 C856 1.386 . S
C860 C855 1.490 . S
C860 C862 1.395 . S
C860 C863 1.403 . S
H861 C867 0.930 . S
C862 H848 0.930 . S
C862 C860 1.395 . S
C862 C865 1.403 . S
C863 C860 1.403 . S
C863 C864 1.524 . S
C863 C867 1.400 . S
C864 H849 0.960 . S
C864 H850 0.960 . S
C864 H851 0.960 . S
C864 C863 1.524 . S
C865 C862 1.403 . S
C865 C866 1.392 . S
C865 C869 1.495 . S
C866 C865 1.392 . S
C866 C867 1.385 . S
C866 C868 1.478 . S
C867 H861 0.930 . S
C867 C863 1.400 . S
C867 C866 1.385 . S
C868 C866 1.478 . S
C868 C870 1.381 . S
C868 C874 1.383 . S
C869 C865 1.495 . S
C869 H875 0.959 . S
C869 H876 0.992 . S
C869 H877 0.960 . S
C870 C868 1.381 . S
C870 C871 1.394 . S
C870 H878 0.930 . S
C871 C870 1.394 . S
C871 C872 1.383 . S
C871 H879 0.929 . S
C872 C871 1.383 . S
C872 C873 1.377 . S
C873 H857 0.930 1_655 S
C873 C872 1.377 . S
C873 C874 1.379 . S
C874 H858 0.931 . S
C874 C868 1.383 . S
C874 C873 1.379 . S
H875 C869 0.959 . S
H876 C869 0.992 . S
H877 C869 0.960 . S
H878 C870 0.930 . S
H879 C871 0.929 . S
H880 C888 0.929 . S
H881 C890 0.930 . S
H882 C892 0.930 . S
H883 C895 0.929 . S
H884 C898 0.930 . S
H885 C900 0.960 . S
H886 C900 0.960 . S
H887 C900 0.960 . S
C888 H880 0.929 . S
C888 C889 1.377 . S
C888 C890 1.384 . S
C889 C888 1.377 . S
C889 C895 1.390 . S
C890 H881 0.930 . S
C890 C888 1.384 . S
C890 C891 1.372 . S
C891 C890 1.372 . S
C891 C892 1.400 . S
C891 C896 1.490 . S
C892 H882 0.930 . S
C892 C891 1.400 . S
C892 C895 1.386 . S
H893 C909 0.930 . S
H894 C910 0.931 . S
C895 H883 0.929 . S
C895 C889 1.390 . S
C895 C892 1.386 . S
C896 C891 1.490 . S
C896 C898 1.395 . S
C896 C899 1.403 . S
H897 C903 0.930 . S
C898 H884 0.930 . S
C898 C896 1.395 . S
C898 C901 1.403 . S
C899 C896 1.403 . S
C899 C900 1.524 . S
C899 C903 1.400 . S
C900 H885 0.960 . S
C900 H886 0.960 . S
C900 H887 0.960 . S
C900 C899 1.524 . S
C901 C898 1.403 . S
C901 C902 1.392 . S
C901 C905 1.495 . S
C902 C901 1.392 . S
C902 C903 1.385 . S
C902 C904 1.478 . S
C903 H897 0.930 . S
C903 C899 1.400 . S
C903 C902 1.385 . S
C904 C902 1.478 . S
C904 C906 1.381 . S
C904 C910 1.383 . S
C905 C901 1.495 . S
C905 H911 0.959 . S
C905 H912 0.961 . S
C905 H913 0.960 . S
C906 C904 1.381 . S
C906 C907 1.394 . S
C906 H914 0.930 . S
C907 C906 1.394 . S
C907 C908 1.383 . S
C907 H915 0.929 . S
C908 C907 1.383 . S
C908 C909 1.377 1_455 S
C909 H893 0.930 . S
C909 C908 1.377 1_655 S
C909 C910 1.379 1_655 S
C910 H894 0.931 . S
C910 C904 1.383 . S
C910 C909 1.379 1_455 S
H911 C905 0.959 . S
H912 C905 0.961 . S
H913 C905 0.960 . S
H914 C906 0.930 . S
H915 C907 0.929 . S
H916 C924 0.929 . S
H917 C926 0.930 . S
H918 C928 0.930 . S
H919 C931 0.929 . S
H920 C934 0.930 . S
H921 C936 0.960 . S
H922 C936 0.960 . S
H923 C936 0.960 . S
C924 H916 0.929 . S
C924 C925 1.377 . S
C924 C926 1.384 . S
C925 C924 1.377 . S
C925 C931 1.390 . S
C926 H917 0.930 . S
C926 C924 1.384 . S
C926 C927 1.372 . S
C927 C926 1.372 . S
C927 C928 1.400 . S
C927 C932 1.490 . S
C928 H918 0.930 . S
C928 C927 1.400 . S
C928 C931 1.386 . S
H929 C945 0.930 . S
H930 C946 0.931 . S
C931 H919 0.929 . S
C931 C925 1.390 . S
C931 C928 1.386 . S
C932 C927 1.490 . S
C932 C934 1.395 . S
C932 C935 1.403 . S
H933 C939 0.930 . S
C934 H920 0.930 . S
C934 C932 1.395 . S
C934 C937 1.403 . S
C935 C932 1.403 . S
C935 C936 1.524 . S
C935 C939 1.400 . S
C936 H921 0.960 . S
C936 H922 0.960 . S
C936 H923 0.960 . S
C936 C935 1.524 . S
C937 C934 1.403 . S
C937 C938 1.392 . S
C937 C941 1.495 . S
C938 C937 1.392 . S
C938 C939 1.385 . S
C938 C940 1.478 . S
C939 H933 0.930 . S
C939 C935 1.400 . S
C939 C938 1.385 . S
C940 C938 1.478 . S
C940 C942 1.381 . S
C940 C946 1.383 . S
C941 C937 1.495 . S
C941 H947 0.959 . S
C941 H948 0.961 . S
C941 H949 0.960 . S
C942 C940 1.381 . S
C942 C943 1.394 . S
C942 H950 0.930 . S
C943 C942 1.394 . S
C943 C944 1.383 . S
C943 H951 0.929 . S
C944 C943 1.383 . S
C944 C945 1.377 1_545 S
C945 H929 0.930 . S
C945 C944 1.377 1_565 S
C945 C946 1.379 1_565 S
C946 H930 0.931 . S
C946 C940 1.383 . S
C946 C945 1.379 1_545 S
H947 C941 0.959 . S
H948 C941 0.961 . S
H949 C941 0.960 . S
H950 C942 0.930 . S
H951 C943 0.929 . S
H952 C960 0.929 . S
H953 C962 0.930 . S
H954 C964 0.930 . S
H955 C967 0.929 . S
H956 C970 0.930 . S
H957 C972 0.960 . S
H958 C972 0.960 . S
H959 C972 0.960 . S
C960 H952 0.929 . S
C960 C961 1.377 . S
C960 C962 1.384 . S
C961 C960 1.377 . S
C961 C967 1.390 . S
C962 H953 0.930 . S
C962 C960 1.384 . S
C962 C963 1.372 . S
C963 C962 1.372 . S
C963 C964 1.400 . S
C963 C968 1.490 . S
C964 H954 0.930 . S
C964 C963 1.400 . S
C964 C967 1.386 . S
H965 C981 0.930 . S
H966 C982 0.931 . S
C967 H955 0.929 . S
C967 C961 1.390 . S
C967 C964 1.386 . S
C968 C963 1.490 . S
C968 C970 1.395 . S
C968 C971 1.403 . S
H969 C975 0.930 . S
C970 H956 0.930 . S
C970 C968 1.395 . S
C970 C973 1.403 . S
C971 C968 1.403 . S
C971 C972 1.524 . S
C971 C975 1.400 . S
C972 H957 0.960 . S
C972 H958 0.960 . S
C972 H959 0.960 . S
C972 C971 1.524 . S
C973 C970 1.403 . S
C973 C974 1.392 . S
C973 C977 1.495 . S
C974 C973 1.392 . S
C974 C975 1.385 . S
C974 C976 1.478 . S
C975 H969 0.930 . S
C975 C971 1.400 . S
C975 C974 1.385 . S
C976 C974 1.478 . S
C976 C978 1.381 . S
C976 C982 1.383 . S
C977 C973 1.495 . S
C977 H983 0.959 . S
C977 H984 0.961 . S
C977 H985 0.960 . S
C978 C976 1.381 . S
C978 C979 1.394 . S
C978 H986 0.930 . S
C979 C978 1.394 . S
C979 C980 1.383 . S
C979 H987 0.929 . S
C980 C979 1.383 . S
C980 C981 1.377 . S
C981 H965 0.930 . S
C981 C980 1.377 . S
C981 C982 1.379 . S
C982 H966 0.931 . S
C982 C976 1.383 . S
C982 C981 1.379 . S
H983 C977 0.959 . S
H984 C977 0.961 . S
H985 C977 0.960 . S
H986 C978 0.930 . S
H987 C979 0.929 . S
H988 C996 0.929 . S
H989 C998 0.930 . S
H990 C1000 0.930 . S
H991 C1003 0.929 . S
H992 C1006 0.930 . S
H993 C1008 0.960 . S
H994 C1008 0.960 . S
H995 C1008 0.960 . S
C996 H988 0.929 . S
C996 C997 1.377 . S
C996 C998 1.384 . S
C997 C996 1.377 . S
C997 C1003 1.390 . S
C998 H989 0.930 . S
C998 C996 1.384 . S
C998 C999 1.372 . S
C999 C998 1.372 . S
C999 C1000 1.400 . S
C999 C1004 1.490 . S
C1000 H990 0.930 . S
C1000 C999 1.400 . S
C1000 C1003 1.386 . S
H1001 C1017 0.930 . S
H1002 C1018 0.931 . S
C1003 H991 0.929 . S
C1003 C997 1.390 . S
C1003 C1000 1.386 . S
C1004 C999 1.490 . S
C1004 C1006 1.395 . S
C1004 C1007 1.403 . S
H1005 C1011 0.930 . S
C1006 H992 0.930 . S
C1006 C1004 1.395 . S
C1006 C1009 1.403 . S
C1007 C1004 1.403 . S
C1007 C1008 1.524 . S
C1007 C1011 1.400 . S
C1008 H993 0.960 . S
C1008 H994 0.960 . S
C1008 H995 0.960 . S
C1008 C1007 1.524 . S
C1009 C1006 1.403 . S
C1009 C1010 1.392 . S
C1009 C1013 1.495 . S
C1010 C1009 1.392 . S
C1010 C1011 1.385 . S
C1010 C1012 1.478 . S
C1011 H1005 0.930 . S
C1011 C1007 1.400 . S
C1011 C1010 1.385 . S
C1012 C1010 1.478 . S
C1012 C1014 1.381 . S
C1012 C1018 1.383 . S
C1013 C1009 1.495 . S
C1013 H1019 0.959 . S
C1013 H1020 0.961 . S
C1013 H1021 0.960 . S
C1014 C1012 1.381 . S
C1014 C1015 1.394 . S
C1014 H1022 0.930 . S
C1015 C1014 1.394 . S
C1015 C1016 1.383 . S
C1015 H1023 0.929 . S
C1016 C1015 1.383 . S
C1016 C1017 1.377 . S
C1017 H1001 0.930 . S
C1017 C1016 1.377 . S
C1017 C1018 1.379 . S
C1018 H1002 0.931 . S
C1018 C1012 1.383 . S
C1018 C1017 1.379 . S
H1019 C1013 0.959 . S
H1020 C1013 0.961 . S
H1021 C1013 0.960 . S
H1022 C1014 0.930 . S
H1023 C1015 0.929 . S
H1024 C1032 0.929 . S
H1025 C1034 0.930 . S
H1026 C1036 0.930 . S
H1027 C1039 0.929 . S
H1028 C1042 0.930 . S
H1029 C1044 0.960 . S
H1030 C1044 0.960 . S
H1031 C1044 0.960 . S
C1032 H1024 0.929 . S
C1032 C1033 1.377 . S
C1032 C1034 1.384 1_554 S
C1033 C1032 1.377 . S
C1033 C1039 1.390 . S
C1034 H1025 0.930 . S
C1034 C1032 1.384 1_556 S
C1034 C1035 1.372 . S
C1035 C1034 1.372 . S
C1035 C1036 1.400 . S
C1035 C1040 1.490 . S
C1036 H1026 0.930 . S
C1036 C1035 1.400 . S
C1036 C1039 1.386 1_556 S
H1037 C1053 0.930 . S
H1038 C1054 0.931 . S
C1039 H1027 0.929 . S
C1039 C1033 1.390 . S
C1039 C1036 1.386 1_554 S
C1040 C1035 1.490 . S
C1040 C1042 1.395 . S
C1040 C1043 1.403 . S
H1041 C1047 0.930 . S
C1042 H1028 0.930 . S
C1042 C1040 1.395 . S
C1042 C1045 1.403 . S
C1043 C1040 1.403 . S
C1043 C1044 1.524 1_556 S
C1043 C1047 1.400 . S
C1044 H1029 0.960 . S
C1044 H1030 0.960 . S
C1044 H1031 0.960 . S
C1044 C1043 1.524 1_554 S
C1045 C1042 1.403 . S
C1045 C1046 1.392 . S
C1045 C1049 1.495 . S
C1046 C1045 1.392 . S
C1046 C1047 1.385 . S
C1046 C1048 1.478 . S
C1047 H1041 0.930 . S
C1047 C1043 1.400 . S
C1047 C1046 1.385 . S
C1048 C1046 1.478 . S
C1048 C1050 1.381 1_655 S
C1048 C1054 1.383 . S
C1049 C1045 1.495 . S
C1049 H1055 0.959 . S
C1049 H1056 0.961 . S
C1049 H1057 0.960 . S
C1050 C1048 1.381 1_455 S
C1050 C1051 1.394 . S
C1050 H1058 0.930 . S
C1051 C1050 1.394 . S
C1051 C1052 1.383 . S
C1051 H1059 0.929 . S
C1052 C1051 1.383 . S
C1052 C1053 1.377 1_455 S
C1053 H1037 0.930 . S
C1053 C1052 1.377 1_655 S
C1053 C1054 1.379 . S
C1054 H1038 0.931 . S
C1054 C1048 1.383 . S
C1054 C1053 1.379 . S
H1055 C1049 0.959 . S
H1056 C1049 0.961 . S
H1057 C1049 0.960 . S
H1058 C1050 0.930 . S
H1059 C1051 0.929 . S
H1060 C1068 0.929 . S
H1061 C1070 0.930 . S
H1062 C1072 0.930 . S
H1063 C1075 0.929 . S
H1064 C1078 0.930 . S
H1065 C1080 0.960 . S
H1066 C1080 0.960 1_554 S
H1067 C1080 0.960 . S
C1068 H1060 0.929 . S
C1068 C1069 1.377 . S
C1068 C1070 1.384 1_554 S
C1069 C1068 1.377 . S
C1069 C1075 1.390 1_554 S
C1070 H1061 0.930 . S
C1070 C1068 1.384 1_556 S
C1070 C1071 1.372 . S
C1071 C1070 1.372 . S
C1071 C1072 1.400 . S
C1071 C1076 1.490 . S
C1072 H1062 0.930 . S
C1072 C1071 1.400 . S
C1072 C1075 1.386 . S
H1073 C1089 0.930 . S
H1074 C1090 0.931 . S
C1075 H1063 0.929 . S
C1075 C1069 1.390 1_556 S
C1075 C1072 1.386 . S
C1076 C1071 1.490 . S
C1076 C1078 1.395 . S
C1076 C1079 1.403 . S
H1077 C1083 0.930 . S
C1078 H1064 0.930 . S
C1078 C1076 1.395 . S
C1078 C1081 1.403 . S
C1079 C1076 1.403 . S
C1079 C1080 1.524 . S
C1079 C1083 1.400 . S
C1080 H1065 0.960 . S
C1080 H1066 0.960 1_556 S
C1080 H1067 0.960 . S
C1080 C1079 1.524 . S
C1081 C1078 1.403 . S
C1081 C1082 1.392 . S
C1081 C1085 1.495 1_565 S
C1082 C1081 1.392 . S
C1082 C1083 1.385 . S
C1082 C1084 1.478 . S
C1083 H1077 0.930 . S
C1083 C1079 1.400 . S
C1083 C1082 1.385 . S
C1084 C1082 1.478 . S
C1084 C1086 1.381 1_565 S
C1084 C1090 1.383 . S
C1085 C1081 1.495 1_545 S
C1085 H1091 0.959 . S
C1085 H1092 0.961 1_545 S
C1085 H1093 0.960 . S
C1086 C1084 1.381 1_545 S
C1086 C1087 1.394 . S
C1086 H1094 0.930 . S
C1087 C1086 1.394 . S
C1087 C1088 1.383 . S
C1087 H1095 0.929 . S
C1088 C1087 1.383 . S
C1088 C1089 1.377 1_545 S
C1089 H1073 0.930 . S
C1089 C1088 1.377 1_565 S
C1089 C1090 1.379 . S
C1090 H1074 0.931 . S
C1090 C1084 1.383 . S
C1090 C1089 1.379 . S
H1091 C1085 0.959 . S
H1092 C1085 0.961 1_565 S
H1093 C1085 0.960 . S
H1094 C1086 0.930 . S
H1095 C1087 0.929 . S
H1096 C1104 0.929 . S
H1097 C1106 0.930 . S
H1098 C1108 0.931 . S
H1099 C1111 0.929 . S
H1100 C1114 0.930 . S
H1101 C1116 0.960 . S
H1102 C1116 0.960 . S
H1103 C1116 0.960 . S
C1104 H1096 0.929 . S
C1104 C1105 1.377 1_556 S
C1104 C1106 1.384 . S
C1105 C1104 1.377 1_554 S
C1105 C1111 1.390 . S
C1106 H1097 0.930 . S
C1106 C1104 1.384 . S
C1106 C1107 1.372 . S
C1107 C1106 1.372 . S
C1107 C1108 1.400 . S
C1107 C1112 1.490 . S
C1108 H1098 0.931 . S
C1108 C1107 1.400 . S
C1108 C1111 1.386 1_556 S
H1109 C1125 0.930 . S
H1110 C1126 0.931 . S
C1111 H1099 0.929 . S
C1111 C1105 1.390 . S
C1111 C1108 1.386 1_554 S
C1112 C1107 1.490 . S
C1112 C1114 1.395 . S
C1112 C1115 1.403 . S
H1113 C1119 0.930 . S
C1114 H1100 0.930 . S
C1114 C1112 1.395 . S
C1114 C1117 1.403 . S
C1115 C1112 1.403 . S
C1115 C1116 1.524 1_556 S
C1115 C1119 1.400 . S
C1116 H1101 0.960 . S
C1116 H1102 0.960 . S
C1116 H1103 0.960 . S
C1116 C1115 1.524 1_554 S
C1117 C1114 1.403 . S
C1117 C1118 1.392 . S
C1117 C1121 1.495 . S
C1118 C1117 1.392 . S
C1118 C1119 1.385 . S
C1118 C1120 1.478 . S
C1119 H1113 0.930 . S
C1119 C1115 1.400 . S
C1119 C1118 1.385 . S
C1120 C1118 1.478 . S
C1120 C1122 1.381 . S
C1120 C1126 1.383 . S
C1121 C1117 1.495 . S
C1121 H1127 0.959 . S
C1121 H1128 0.961 . S
C1121 H1129 0.960 . S
C1122 C1120 1.381 . S
C1122 C1123 1.394 . S
C1122 H1130 0.930 . S
C1123 C1122 1.394 . S
C1123 C1124 1.383 . S
C1123 H1131 0.929 . S
C1124 C1123 1.383 . S
C1124 C1125 1.377 . S
C1125 H1109 0.930 . S
C1125 C1124 1.377 . S
C1125 C1126 1.379 . S
C1126 H1110 0.931 . S
C1126 C1120 1.383 . S
C1126 C1125 1.379 . S
H1127 C1121 0.959 . S
H1128 C1121 0.961 . S
H1129 C1121 0.960 . S
H1130 C1122 0.930 . S
H1131 C1123 0.929 . S
H1132 C1140 0.929 . S
H1133 C1142 0.930 . S
H1134 C1144 0.930 . S
H1135 C1147 0.929 . S
H1136 C1150 0.939 . S
H1137 C1152 0.960 . S
H1138 C1152 0.960 . S
H1139 C1152 0.960 . S
C1140 H1132 0.929 . S
C1140 C1141 1.377 . S
C1140 C1142 1.384 . S
C1141 C1140 1.377 . S
C1141 C1147 1.390 1_554 S
C1142 H1133 0.930 . S
C1142 C1140 1.384 . S
C1142 C1143 1.372 1_554 S
C1143 C1142 1.372 1_556 S
C1143 C1144 1.400 . S
C1143 C1148 1.490 . S
C1144 H1134 0.930 . S
C1144 C1143 1.400 . S
C1144 C1147 1.386 . S
H1145 C1161 0.930 . S
H1146 C1162 0.931 . S
C1147 H1135 0.929 . S
C1147 C1141 1.390 1_556 S
C1147 C1144 1.386 . S
C1148 C1143 1.490 . S
C1148 C1150 1.395 . S
C1148 C1151 1.403 . S
H1149 C1155 0.930 . S
C1150 H1136 0.939 . S
C1150 C1148 1.395 . S
C1150 C1153 1.403 . S
C1151 C1148 1.403 . S
C1151 C1152 1.524 . S
C1151 C1155 1.400 . S
C1152 H1137 0.960 . S
C1152 H1138 0.960 . S
C1152 H1139 0.960 . S
C1152 C1151 1.524 . S
C1153 C1150 1.403 . S
C1153 C1154 1.392 . S
C1153 C1157 1.495 . S
C1154 C1153 1.392 . S
C1154 C1155 1.385 . S
C1154 C1156 1.478 . S
C1155 H1149 0.930 . S
C1155 C1151 1.400 . S
C1155 C1154 1.385 . S
C1156 C1154 1.478 . S
C1156 C1158 1.381 . S
C1156 C1162 1.383 . S
C1157 C1153 1.495 . S
C1157 H1163 0.959 1_556 S
C1157 H1164 0.961 . S
C1157 H1165 0.960 . S
C1158 C1156 1.381 . S
C1158 C1159 1.394 . S
C1158 H1166 0.930 . S
C1159 C1158 1.394 . S
C1159 C1160 1.383 . S
C1159 H1167 0.929 . S
C1160 C1159 1.383 . S
C1160 C1161 1.377 . S
C1161 H1145 0.930 . S
C1161 C1160 1.377 . S
C1161 C1162 1.379 . S
C1162 H1146 0.931 . S
C1162 C1156 1.383 . S
C1162 C1161 1.379 . S
H1163 C1157 0.959 1_554 S
H1164 C1157 0.961 . S
H1165 C1157 0.960 . S
H1166 C1158 0.930 . S
H1167 C1159 0.929 . S
H1168 C1176 0.929 . S
H1169 C1178 0.930 . S
H1170 C1180 0.930 . S
H1171 C1183 0.929 . S
H1172 C1186 0.930 . S
H1173 C1188 0.960 . S
H1174 C1188 0.960 . S
H1175 C1188 0.960 . S
C1176 H1168 0.929 . S
C1176 C1177 1.377 . S
C1176 C1178 1.384 . S
C1177 C1176 1.377 . S
C1177 C1183 1.390 . S
C1178 H1169 0.930 . S
C1178 C1176 1.384 . S
C1178 C1179 1.372 . S
C1179 C1178 1.372 . S
C1179 C1180 1.400 . S
C1179 C1184 1.490 . S
C1180 H1170 0.930 . S
C1180 C1179 1.400 . S
C1180 C1183 1.386 . S
H1181 C1197 0.930 . S
H1182 C1198 0.931 . S
C1183 H1171 0.929 . S
C1183 C1177 1.390 . S
C1183 C1180 1.386 . S
C1184 C1179 1.490 . S
C1184 C1186 1.395 . S
C1184 C1187 1.403 . S
H1185 C1191 0.930 . S
C1186 H1172 0.930 . S
C1186 C1184 1.395 . S
C1186 C1189 1.403 . S
C1187 C1184 1.403 . S
C1187 C1188 1.524 . S
C1187 C1191 1.400 . S
C1188 H1173 0.960 . S
C1188 H1174 0.960 . S
C1188 H1175 0.960 . S
C1188 C1187 1.524 . S
C1189 C1186 1.403 . S
C1189 C1190 1.392 . S
C1189 C1193 1.495 . S
C1190 C1189 1.392 . S
C1190 C1191 1.385 . S
C1190 C1192 1.478 . S
C1191 H1185 0.930 . S
C1191 C1187 1.400 . S
C1191 C1190 1.385 . S
C1192 C1190 1.478 . S
C1192 C1194 1.381 . S
C1192 C1198 1.383 . S
C1193 C1189 1.495 . S
C1193 H1199 0.959 . S
C1193 H1200 0.961 . S
C1193 H1201 0.960 . S
C1194 C1192 1.381 . S
C1194 C1195 1.394 . S
C1194 H1202 0.930 . S
C1195 C1194 1.394 . S
C1195 C1196 1.383 . S
C1195 H1203 0.929 . S
C1196 C1195 1.383 . S
C1196 C1197 1.377 . S
C1197 H1181 0.930 . S
C1197 C1196 1.377 . S
C1197 C1198 1.379 . S
C1198 H1182 0.931 . S
C1198 C1192 1.383 . S
C1198 C1197 1.379 . S
H1199 C1193 0.959 . S
H1200 C1193 0.961 . S
H1201 C1193 0.960 . S
H1202 C1194 0.930 . S
H1203 C1195 0.929 . S
H1204 C1212 0.929 . S
H1205 C1214 0.930 . S
H1206 C1216 0.930 . S
H1207 C1219 0.929 . S
H1208 C1222 0.930 . S
H1209 C1224 0.960 . S
H1210 C1224 0.960 . S
H1211 C1224 0.960 . S
C1212 H1204 0.929 . S
C1212 C1213 1.377 . S
C1212 C1214 1.384 . S
C1213 C1212 1.377 . S
C1213 C1219 1.390 . S
C1214 H1205 0.930 . S
C1214 C1212 1.384 . S
C1214 C1215 1.372 . S
C1215 C1214 1.372 . S
C1215 C1216 1.400 . S
C1215 C1220 1.490 . S
C1216 H1206 0.930 . S
C1216 C1215 1.400 . S
C1216 C1219 1.386 . S
H1217 C1233 0.930 . S
H1218 C1234 0.931 . S
C1219 H1207 0.929 . S
C1219 C1213 1.390 . S
C1219 C1216 1.386 . S
C1220 C1215 1.490 . S
C1220 C1222 1.395 . S
C1220 C1223 1.403 . S
H1221 C1227 0.930 . S
C1222 H1208 0.930 . S
C1222 C1220 1.395 . S
C1222 C1225 1.403 . S
C1223 C1220 1.403 . S
C1223 C1224 1.524 . S
C1223 C1227 1.400 . S
C1224 H1209 0.960 . S
C1224 H1210 0.960 . S
C1224 H1211 0.960 . S
C1224 C1223 1.524 . S
C1225 C1222 1.403 . S
C1225 C1226 1.392 . S
C1225 C1229 1.495 . S
C1226 C1225 1.392 . S
C1226 C1227 1.385 . S
C1226 C1228 1.478 . S
C1227 H1221 0.930 . S
C1227 C1223 1.400 . S
C1227 C1226 1.385 . S
C1228 C1226 1.478 . S
C1228 C1230 1.381 . S
C1228 C1234 1.383 . S
C1229 C1225 1.495 . S
C1229 H1235 0.959 1_545 S
C1229 H1236 0.961 1_545 S
C1229 H1237 0.956 1_545 S
C1230 C1228 1.381 . S
C1230 C1231 1.394 . S
C1230 H1238 0.930 . S
C1231 C1230 1.394 . S
C1231 C1232 1.383 . S
C1231 H1239 0.929 . S
C1232 C1231 1.383 . S
C1232 C1233 1.377 . S
C1233 H1217 0.930 . S
C1233 C1232 1.377 . S
C1233 C1234 1.379 . S
C1234 H1218 0.931 . S
C1234 C1228 1.383 . S
C1234 C1233 1.379 . S
H1235 C1229 0.959 1_565 S
H1236 C1229 0.961 1_565 S
H1237 C1229 0.956 1_565 S
H1238 C1230 0.930 . S
H1239 C1231 0.929 . S
H1240 C1248 0.929 . S
H1241 C1250 0.930 . S
H1242 C1252 0.930 . S
H1243 C1255 0.929 . S
H1244 C1258 0.930 . S
H1245 C1260 0.960 . S
H1246 C1260 0.960 . S
H1247 C1260 0.960 . S
C1248 H1240 0.929 . S
C1248 C1249 1.377 . S
C1248 C1250 1.384 . S
C1249 C1248 1.377 . S
C1249 C1255 1.390 . S
C1250 H1241 0.930 . S
C1250 C1248 1.384 . S
C1250 C1251 1.372 . S
C1251 C1250 1.372 . S
C1251 C1252 1.400 . S
C1251 C1256 1.490 . S
C1252 H1242 0.930 . S
C1252 C1251 1.400 . S
C1252 C1255 1.386 . S
H1253 C1269 0.930 . S
H1254 C1270 0.931 . S
C1255 H1243 0.929 . S
C1255 C1249 1.390 . S
C1255 C1252 1.386 . S
C1256 C1251 1.490 . S
C1256 C1258 1.395 . S
C1256 C1259 1.403 . S
H1257 C1263 0.930 . S
C1258 H1244 0.930 . S
C1258 C1256 1.395 . S
C1258 C1261 1.403 . S
C1259 C1256 1.403 . S
C1259 C1260 1.524 . S
C1259 C1263 1.400 . S
C1260 H1245 0.960 . S
C1260 H1246 0.960 . S
C1260 H1247 0.960 . S
C1260 C1259 1.524 . S
C1261 C1258 1.403 . S
C1261 C1262 1.392 . S
C1261 C1265 1.495 . S
C1262 C1261 1.392 . S
C1262 C1263 1.385 . S
C1262 C1264 1.478 . S
C1263 H1257 0.930 . S
C1263 C1259 1.400 . S
C1263 C1262 1.385 . S
C1264 C1262 1.478 . S
C1264 C1266 1.381 . S
C1264 C1270 1.383 . S
C1265 C1261 1.495 . S
C1265 H1271 0.959 . S
C1265 H1272 0.961 . S
C1265 H1273 0.960 . S
C1266 C1264 1.381 . S
C1266 C1267 1.394 . S
C1266 H1274 0.930 . S
C1267 C1266 1.394 . S
C1267 C1268 1.383 . S
C1267 H1275 0.929 . S
C1268 C1267 1.383 . S
C1268 C1269 1.377 . S
C1269 H1253 0.930 . S
C1269 C1268 1.377 . S
C1269 C1270 1.379 . S
C1270 H1254 0.931 . S
C1270 C1264 1.383 . S
C1270 C1269 1.379 . S
H1271 C1265 0.959 . S
H1272 C1265 0.961 . S
H1273 C1265 0.960 . S
H1274 C1266 0.930 . S
H1275 C1267 0.929 . S
H1276 C1284 0.929 . S
H1277 C1286 0.930 . S
H1278 C1288 0.930 . S
H1279 C1291 0.929 . S
H1280 C1294 0.930 . S
H1281 C1296 0.960 . S
H1282 C1296 0.960 . S
H1283 C1296 0.960 . S
C1284 H1276 0.929 . S
C1284 C1285 1.377 . S
C1284 C1286 1.384 . S
C1285 C1284 1.377 . S
C1285 C1291 1.390 . S
C1286 H1277 0.930 . S
C1286 C1284 1.384 . S
C1286 C1287 1.372 . S
C1287 C1286 1.372 . S
C1287 C1288 1.400 . S
C1287 C1292 1.490 . S
C1288 H1278 0.930 . S
C1288 C1287 1.400 . S
C1288 C1291 1.386 . S
H1289 C1305 0.930 . S
H1290 C1306 0.931 . S
C1291 H1279 0.929 . S
C1291 C1285 1.390 . S
C1291 C1288 1.386 . S
C1292 C1287 1.490 . S
C1292 C1294 1.395 . S
C1292 C1295 1.403 . S
H1293 C1299 0.930 . S
C1294 H1280 0.930 . S
C1294 C1292 1.395 . S
C1294 C1297 1.403 . S
C1295 C1292 1.403 . S
C1295 C1296 1.524 . S
C1295 C1299 1.400 . S
C1296 H1281 0.960 . S
C1296 H1282 0.960 . S
C1296 H1283 0.960 . S
C1296 C1295 1.524 . S
C1297 C1294 1.403 . S
C1297 C1298 1.392 . S
C1297 C1301 1.495 . S
C1298 C1297 1.392 . S
C1298 C1299 1.385 . S
C1298 C1300 1.478 . S
C1299 H1293 0.930 . S
C1299 C1295 1.400 . S
C1299 C1298 1.385 . S
C1300 C1298 1.478 . S
C1300 C1302 1.381 . S
C1300 C1306 1.383 . S
C1301 C1297 1.495 . S
C1301 H1307 0.959 . S
C1301 H1308 0.961 . S
C1301 H1309 0.960 . S
C1302 C1300 1.381 . S
C1302 C1303 1.394 . S
C1302 H1310 0.930 . S
C1303 C1302 1.394 . S
C1303 C1304 1.383 . S
C1303 H1311 0.929 . S
C1304 C1303 1.383 . S
C1304 C1305 1.377 . S
C1305 H1289 0.930 . S
C1305 C1304 1.377 . S
C1305 C1306 1.379 . S
C1306 H1290 0.931 . S
C1306 C1300 1.383 . S
C1306 C1305 1.379 . S
H1307 C1301 0.959 . S
H1308 C1301 0.961 . S
H1309 C1301 0.960 . S
H1310 C1302 0.930 . S
H1311 C1303 0.929 . S
H1312 C1320 0.929 . S
H1313 C1322 0.930 . S
H1314 C1324 0.930 . S
H1315 C1327 0.929 . S
H1316 C1330 0.930 . S
H1317 C1332 0.960 . S
H1318 C1332 0.960 . S
H1319 C1332 0.960 . S
C1320 H1312 0.929 . S
C1320 C1321 1.377 . S
C1320 C1322 1.384 . S
C1321 C1320 1.377 . S
C1321 C1327 1.390 . S
C1322 H1313 0.930 . S
C1322 C1320 1.384 . S
C1322 C1323 1.372 . S
C1323 C1322 1.372 . S
C1323 C1324 1.400 . S
C1323 C1328 1.490 . S
C1324 H1314 0.930 . S
C1324 C1323 1.400 . S
C1324 C1327 1.386 . S
H1325 C1341 0.930 . S
H1326 C1342 0.931 . S
C1327 H1315 0.929 . S
C1327 C1321 1.390 . S
C1327 C1324 1.386 . S
C1328 C1323 1.490 . S
C1328 C1330 1.395 . S
C1328 C1331 1.403 . S
H1329 C1335 0.930 . S
C1330 H1316 0.930 . S
C1330 C1328 1.395 . S
C1330 C1333 1.403 . S
C1331 C1328 1.403 . S
C1331 C1332 1.524 . S
C1331 C1335 1.400 . S
C1332 H1317 0.960 . S
C1332 H1318 0.960 . S
C1332 H1319 0.960 . S
C1332 C1331 1.524 . S
C1333 C1330 1.403 . S
C1333 C1334 1.392 . S
C1333 C1337 1.495 . S
C1334 C1333 1.392 . S
C1334 C1335 1.385 . S
C1334 C1336 1.478 . S
C1335 H1329 0.930 . S
C1335 C1331 1.400 . S
C1335 C1334 1.385 . S
C1336 C1334 1.478 . S
C1336 C1338 1.381 . S
C1336 C1342 1.383 . S
C1337 C1333 1.495 . S
C1337 H1343 0.959 . S
C1337 H1344 0.961 1_655 S
C1337 H1345 0.960 . S
C1338 C1336 1.381 . S
C1338 C1339 1.394 . S
C1338 H1346 0.930 . S
C1339 C1338 1.394 . S
C1339 C1340 1.383 . S
C1339 H1347 0.929 . S
C1340 C1339 1.383 . S
C1340 C1341 1.377 . S
C1341 H1325 0.930 . S
C1341 C1340 1.377 . S
C1341 C1342 1.379 . S
C1342 H1326 0.931 . S
C1342 C1336 1.383 . S
C1342 C1341 1.379 . S
H1343 C1337 0.959 . S
H1344 C1337 0.961 1_455 S
H1345 C1337 0.960 . S
H1346 C1338 0.930 . S
H1347 C1339 0.929 . S
H1348 C1356 0.929 . S
H1349 C1358 0.930 . S
H1350 C1360 0.930 . S
H1351 C1363 0.929 . S
H1352 C1366 0.930 . S
H1353 C1368 0.960 . S
H1354 C1368 0.960 . S
H1355 C1368 0.960 . S
C1356 H1348 0.929 . S
C1356 C1357 1.377 . S
C1356 C1358 1.384 . S
C1357 C1356 1.377 . S
C1357 C1363 1.390 . S
C1358 H1349 0.930 . S
C1358 C1356 1.384 . S
C1358 C1359 1.372 . S
C1359 C1358 1.372 . S
C1359 C1360 1.400 . S
C1359 C1364 1.490 . S
C1360 H1350 0.930 . S
C1360 C1359 1.400 . S
C1360 C1363 1.386 . S
H1361 C1377 0.930 . S
H1362 C1378 0.931 . S
C1363 H1351 0.929 . S
C1363 C1357 1.390 . S
C1363 C1360 1.386 . S
C1364 C1359 1.490 . S
C1364 C1366 1.395 . S
C1364 C1367 1.403 . S
H1365 C1371 0.930 . S
C1366 H1352 0.930 . S
C1366 C1364 1.395 . S
C1366 C1369 1.403 . S
C1367 C1364 1.403 . S
C1367 C1368 1.524 . S
C1367 C1371 1.400 . S
C1368 H1353 0.960 . S
C1368 H1354 0.960 . S
C1368 H1355 0.960 . S
C1368 C1367 1.524 . S
C1369 C1366 1.403 . S
C1369 C1370 1.392 . S
C1369 C1373 1.495 . S
C1370 C1369 1.392 . S
C1370 C1371 1.385 . S
C1370 C1372 1.478 . S
C1371 H1365 0.930 . S
C1371 C1367 1.400 . S
C1371 C1370 1.385 . S
C1372 C1370 1.478 . S
C1372 C1374 1.381 . S
C1372 C1378 1.383 . S
C1373 C1369 1.495 . S
C1373 H1379 0.959 . S
C1373 H1380 0.961 . S
C1373 H1381 0.960 . S
C1374 C1372 1.381 . S
C1374 C1375 1.394 . S
C1374 H1382 0.930 . S
C1375 C1374 1.394 . S
C1375 C1376 1.383 . S
C1375 H1383 0.929 1_565 S
C1376 C1375 1.383 . S
C1376 C1377 1.377 . S
C1377 H1361 0.930 . S
C1377 C1376 1.377 . S
C1377 C1378 1.379 . S
C1378 H1362 0.931 . S
C1378 C1372 1.383 . S
C1378 C1377 1.379 . S
H1379 C1373 0.959 . S
H1380 C1373 0.961 . S
H1381 C1373 0.960 . S
H1382 C1374 0.930 . S
H1383 C1375 0.929 1_545 S
H1384 C1392 0.929 . S
H1385 C1394 0.930 . S
H1386 C1396 0.930 . S
H1387 C1399 0.929 . S
H1388 C1402 0.930 . S
H1389 C1404 0.960 . S
H1390 C1404 0.960 . S
H1391 C1404 0.960 . S
C1392 H1384 0.929 . S
C1392 C1393 1.377 . S
C1392 C1394 1.384 . S
C1393 C1392 1.377 . S
C1393 C1399 1.390 . S
C1394 H1385 0.930 . S
C1394 C1392 1.384 . S
C1394 C1395 1.372 . S
C1395 C1394 1.372 . S
C1395 C1396 1.400 . S
C1395 C1400 1.490 . S
C1396 H1386 0.930 . S
C1396 C1395 1.400 . S
C1396 C1399 1.386 . S
H1397 C1413 0.930 . S
H1398 C1414 0.931 . S
C1399 H1387 0.929 . S
C1399 C1393 1.390 . S
C1399 C1396 1.386 . S
C1400 C1395 1.490 . S
C1400 C1402 1.395 . S
C1400 C1403 1.403 . S
H1401 C1407 0.930 . S
C1402 H1388 0.930 . S
C1402 C1400 1.395 . S
C1402 C1405 1.403 . S
C1403 C1400 1.403 . S
C1403 C1404 1.524 . S
C1403 C1407 1.400 . S
C1404 H1389 0.960 . S
C1404 H1390 0.960 . S
C1404 H1391 0.960 . S
C1404 C1403 1.524 . S
C1405 C1402 1.403 . S
C1405 C1406 1.392 . S
C1405 C1409 1.495 . S
C1406 C1405 1.392 . S
C1406 C1407 1.385 . S
C1406 C1408 1.478 . S
C1407 H1401 0.930 . S
C1407 C1403 1.400 . S
C1407 C1406 1.385 . S
C1408 C1406 1.478 . S
C1408 C1410 1.381 . S
C1408 C1414 1.383 . S
C1409 C1405 1.495 . S
C1409 H1415 0.959 . S
C1409 H1416 0.961 . S
C1409 H1417 0.960 . S
C1410 C1408 1.381 . S
C1410 C1411 1.394 . S
C1410 H1418 0.930 . S
C1411 C1410 1.394 . S
C1411 C1412 1.383 . S
C1411 H1419 0.929 . S
C1412 C1411 1.383 . S
C1412 C1413 1.377 . S
C1413 H1397 0.930 . S
C1413 C1412 1.377 . S
C1413 C1414 1.379 . S
C1414 H1398 0.931 . S
C1414 C1408 1.383 . S
C1414 C1413 1.379 . S
H1415 C1409 0.959 . S
H1416 C1409 0.961 . S
H1417 C1409 0.960 . S
H1418 C1410 0.930 . S
H1419 C1411 0.929 . S
H1420 C1428 0.929 . S
H1421 C1430 0.930 . S
H1422 C1432 0.930 . S
H1423 C1435 0.929 . S
H1424 C1438 0.930 . S
H1425 C1440 0.960 . S
H1426 C1440 0.960 . S
H1427 C1440 0.960 . S
C1428 H1420 0.929 . S
C1428 C1429 1.377 . S
C1428 C1430 1.384 . S
C1429 C1428 1.377 . S
C1429 C1435 1.390 . S
C1430 H1421 0.930 . S
C1430 C1428 1.384 . S
C1430 C1431 1.372 . S
C1431 C1430 1.372 . S
C1431 C1432 1.400 . S
C1431 C1436 1.490 . S
C1432 H1422 0.930 . S
C1432 C1431 1.400 . S
C1432 C1435 1.386 . S
H1433 C1449 0.930 . S
H1434 C1450 0.931 . S
C1435 H1423 0.929 . S
C1435 C1429 1.390 . S
C1435 C1432 1.386 . S
C1436 C1431 1.490 . S
C1436 C1438 1.395 . S
C1436 C1439 1.403 . S
H1437 C1443 0.930 . S
C1438 H1424 0.930 . S
C1438 C1436 1.395 . S
C1438 C1441 1.403 . S
C1439 C1436 1.403 . S
C1439 C1440 1.524 . S
C1439 C1443 1.400 . S
C1440 H1425 0.960 . S
C1440 H1426 0.960 . S
C1440 H1427 0.960 . S
C1440 C1439 1.524 . S
C1441 C1438 1.403 . S
C1441 C1442 1.392 . S
C1441 C1445 1.495 . S
C1442 C1441 1.392 . S
C1442 C1443 1.385 . S
C1442 C1444 1.478 . S
C1443 H1437 0.930 . S
C1443 C1439 1.400 . S
C1443 C1442 1.385 . S
C1444 C1442 1.478 . S
C1444 C1446 1.381 . S
C1444 C1450 1.383 . S
C1445 C1441 1.495 . S
C1445 H1451 0.959 . S
C1445 H1452 0.961 . S
C1445 H1453 0.960 . S
C1446 C1444 1.381 . S
C1446 C1447 1.394 . S
C1446 H1454 0.930 . S
C1447 C1446 1.394 . S
C1447 C1448 1.383 . S
C1447 H1455 0.929 . S
C1448 C1447 1.383 . S
C1448 C1449 1.377 . S
C1449 H1433 0.930 . S
C1449 C1448 1.377 . S
C1449 C1450 1.379 . S
C1450 H1434 0.931 . S
C1450 C1444 1.383 . S
C1450 C1449 1.379 . S
H1451 C1445 0.959 . S
H1452 C1445 0.961 . S
H1453 C1445 0.960 . S
H1454 C1446 0.930 . S
H1455 C1447 0.929 . S
C601 C215 1.964 . S
C620 C331 1.962 . S
C656 C415 2.004 . S
C637 C247 1.999 . S
C692 C491 2.005 . S
C673 C151 2.133 . S
C728 C575 1.982 . S
C709 C183 2.107 . S
C764 C322 1.974 1_565 S
C745 C87 1.870 . S
C781 C119 1.889 . S
C800 C406 1.985 . S
C817 C23 2.009 . S
C836 C480 1.953 . S
C853 C55 1.995 . S
C872 C564 1.981 . S
C908 C319 0.527 1_455 S
C889 C189 0.339 . S
C944 C403 0.515 1_545 S
C925 C221 0.285 . S
C980 C496 0.491 . S
C961 C253 0.230 . S
C997 C157 0.282 . S
C1016 C580 0.566 . S
C1033 C61 0.564 . S
C1052 C328 0.464 . S
C1088 C412 0.405 . S
C1069 C93 0.554 . S
C1124 C487 0.566 . S
C1105 C125 0.562 . S
C1141 C29 0.608 . S
C1160 C571 0.376 . S
C1177 C177 2.376 . S
C1196 C312 2.406 . S
C1213 C209 2.320 . S
C1232 C396 2.329 . S
C1268 C490 2.346 . S
C1249 C241 2.210 . S
C1304 C574 2.373 . S
C1285 C145 2.243 . S
C1321 C49 2.277 . S
C1340 C323 2.366 . S
C1376 C407 2.367 . S
C1357 C81 2.232 . S
C1412 C499 2.333 . S
C1393 C113 2.109 . S
C1429 C17 2.138 . S
C1448 C583 2.376 . S
