# Generated by pormake.
# Topology ptr, (4,4)-cn, num edge types: 1
# Building blocks:
#     Node 0, Type 0, BuildingBlock: QUQFOY_clean_sbu_3, # of connection points: 4
#     Node 1, Type 0, BuildingBlock: QUQFOY_clean_sbu_3, # of connection points: 4
#     Node 2, Type 0, BuildingBlock: QUQFOY_clean_sbu_3, # of connection points: 4
#     Node 3, Type 0, BuildingBlock: QUQFOY_clean_sbu_3, # of connection points: 4
#     Node 4, Type 0, BuildingBlock: QUQFOY_clean_sbu_3, # of connection points: 4
#     Node 5, Type 0, BuildingBlock: QUQFOY_clean_sbu_3, # of connection points: 4
#     Node 6, Type 0, BuildingBlock: QUQFOY_clean_sbu_3, # of connection points: 4
#     Node 7, Type 0, BuildingBlock: QUQFOY_clean_sbu_3, # of connection points: 4
#     Node 8, Type 0, BuildingBlock: QUQFOY_clean_sbu_3, # of connection points: 4
#     Node 9, Type 0, BuildingBlock: QUQFOY_clean_sbu_3, # of connection points: 4
#     Node 10, Type 0, BuildingBlock: QUQFOY_clean_sbu_3, # of connection points: 4
#     Node 11, Type 0, BuildingBlock: QUQFOY_clean_sbu_3, # of connection points: 4
#     Node 12, Type 0, BuildingBlock: QUQFOY_clean_sbu_3, # of connection points: 4
#     Node 13, Type 0, BuildingBlock: QUQFOY_clean_sbu_3, # of connection points: 4
#     Node 14, Type 0, BuildingBlock: QUQFOY_clean_sbu_3, # of connection points: 4
#     Node 15, Type 0, BuildingBlock: QUQFOY_clean_sbu_3, # of connection points: 4
#     Node 16, Type 0, BuildingBlock: QUQFOY_clean_sbu_3, # of connection points: 4
#     Node 17, Type 0, BuildingBlock: QUQFOY_clean_sbu_3, # of connection points: 4
#     Node 18, Type 1, BuildingBlock: AZAVOO_clean_linker_0, # of connection points: 4
#     Node 19, Type 1, BuildingBlock: AZAVOO_clean_linker_0, # of connection points: 4
#     Node 20, Type 1, BuildingBlock: AZAVOO_clean_linker_0, # of connection points: 4
#     Node 21, Type 1, BuildingBlock: AZAVOO_clean_linker_0, # of connection points: 4
#     Node 22, Type 1, BuildingBlock: AZAVOO_clean_linker_0, # of connection points: 4
#     Node 23, Type 1, BuildingBlock: AZAVOO_clean_linker_0, # of connection points: 4
#     Node 24, Type 1, BuildingBlock: AZAVOO_clean_linker_0, # of connection points: 4
#     Node 25, Type 1, BuildingBlock: AZAVOO_clean_linker_0, # of connection points: 4
#     Node 26, Type 1, BuildingBlock: AZAVOO_clean_linker_0, # of connection points: 4
#     Node 27, Type 1, BuildingBlock: AZAVOO_clean_linker_0, # of connection points: 4
#     Node 28, Type 1, BuildingBlock: AZAVOO_clean_linker_0, # of connection points: 4
#     Node 29, Type 1, BuildingBlock: AZAVOO_clean_linker_0, # of connection points: 4
#     Node 30, Type 1, BuildingBlock: AZAVOO_clean_linker_0, # of connection points: 4
#     Node 31, Type 1, BuildingBlock: AZAVOO_clean_linker_0, # of connection points: 4
#     Node 32, Type 1, BuildingBlock: AZAVOO_clean_linker_0, # of connection points: 4
#     Node 33, Type 1, BuildingBlock: AZAVOO_clean_linker_0, # of connection points: 4
#     Node 34, Type 1, BuildingBlock: AZAVOO_clean_linker_0, # of connection points: 4
#     Node 35, Type 1, BuildingBlock: AZAVOO_clean_linker_0, # of connection points: 4
#     Edge 36, Type (0, 1), BuildingBlock: MIFKUJ_clean_linker_0, # of connection points: 2
#     Edge 37, Type (0, 1), BuildingBlock: MIFKUJ_clean_linker_0, # of connection points: 2
#     Edge 38, Type (0, 1), BuildingBlock: MIFKUJ_clean_linker_0, # of connection points: 2
#     Edge 39, Type (0, 1), BuildingBlock: MIFKUJ_clean_linker_0, # of connection points: 2
#     Edge 40, Type (0, 1), BuildingBlock: MIFKUJ_clean_linker_0, # of connection points: 2
#     Edge 41, Type (0, 1), BuildingBlock: MIFKUJ_clean_linker_0, # of connection points: 2
#     Edge 42, Type (0, 1), BuildingBlock: MIFKUJ_clean_linker_0, # of connection points: 2
#     Edge 43, Type (0, 1), BuildingBlock: MIFKUJ_clean_linker_0, # of connection points: 2
#     Edge 44, Type (0, 1), BuildingBlock: MIFKUJ_clean_linker_0, # of connection points: 2
#     Edge 45, Type (0, 1), BuildingBlock: MIFKUJ_clean_linker_0, # of connection points: 2
#     Edge 46, Type (0, 1), BuildingBlock: MIFKUJ_clean_linker_0, # of connection points: 2
#     Edge 47, Type (0, 1), BuildingBlock: MIFKUJ_clean_linker_0, # of connection points: 2
#     Edge 48, Type (0, 1), BuildingBlock: MIFKUJ_clean_linker_0, # of connection points: 2
#     Edge 49, Type (0, 1), BuildingBlock: MIFKUJ_clean_linker_0, # of connection points: 2
#     Edge 50, Type (0, 1), BuildingBlock: MIFKUJ_clean_linker_0, # of connection points: 2
#     Edge 51, Type (0, 1), BuildingBlock: MIFKUJ_clean_linker_0, # of connection points: 2
#     Edge 52, Type (0, 1), BuildingBlock: MIFKUJ_clean_linker_0, # of connection points: 2
#     Edge 53, Type (0, 1), BuildingBlock: MIFKUJ_clean_linker_0, # of connection points: 2
#     Edge 54, Type (0, 1), BuildingBlock: MIFKUJ_clean_linker_0, # of connection points: 2
#     Edge 55, Type (0, 1), BuildingBlock: MIFKUJ_clean_linker_0, # of connection points: 2
#     Edge 56, Type (0, 1), BuildingBlock: MIFKUJ_clean_linker_0, # of connection points: 2
#     Edge 57, Type (0, 1), BuildingBlock: MIFKUJ_clean_linker_0, # of connection points: 2
#     Edge 58, Type (0, 1), BuildingBlock: MIFKUJ_clean_linker_0, # of connection points: 2
#     Edge 59, Type (0, 1), BuildingBlock: MIFKUJ_clean_linker_0, # of connection points: 2
#     Edge 60, Type (0, 1), BuildingBlock: MIFKUJ_clean_linker_0, # of connection points: 2
#     Edge 61, Type (0, 1), BuildingBlock: MIFKUJ_clean_linker_0, # of connection points: 2
#     Edge 62, Type (0, 1), BuildingBlock: MIFKUJ_clean_linker_0, # of connection points: 2
#     Edge 63, Type (0, 1), BuildingBlock: MIFKUJ_clean_linker_0, # of connection points: 2
#     Edge 64, Type (0, 1), BuildingBlock: MIFKUJ_clean_linker_0, # of connection points: 2
#     Edge 65, Type (0, 1), BuildingBlock: MIFKUJ_clean_linker_0, # of connection points: 2
#     Edge 66, Type (0, 1), BuildingBlock: MIFKUJ_clean_linker_0, # of connection points: 2
#     Edge 67, Type (0, 1), BuildingBlock: MIFKUJ_clean_linker_0, # of connection points: 2
#     Edge 68, Type (0, 1), BuildingBlock: MIFKUJ_clean_linker_0, # of connection points: 2
#     Edge 69, Type (0, 1), BuildingBlock: MIFKUJ_clean_linker_0, # of connection points: 2
#     Edge 70, Type (0, 1), BuildingBlock: MIFKUJ_clean_linker_0, # of connection points: 2
#     Edge 71, Type (0, 1), BuildingBlock: MIFKUJ_clean_linker_0, # of connection points: 2
#     Edge 72, Type (0, 1), BuildingBlock: MIFKUJ_clean_linker_0, # of connection points: 2
#     Edge 73, Type (0, 1), BuildingBlock: MIFKUJ_clean_linker_0, # of connection points: 2
#     Edge 74, Type (0, 1), BuildingBlock: MIFKUJ_clean_linker_0, # of connection points: 2
#     Edge 75, Type (0, 1), BuildingBlock: MIFKUJ_clean_linker_0, # of connection points: 2
#     Edge 76, Type (0, 1), BuildingBlock: MIFKUJ_clean_linker_0, # of connection points: 2
#     Edge 77, Type (0, 1), BuildingBlock: MIFKUJ_clean_linker_0, # of connection points: 2
#     Edge 78, Type (0, 1), BuildingBlock: MIFKUJ_clean_linker_0, # of connection points: 2
#     Edge 79, Type (0, 1), BuildingBlock: MIFKUJ_clean_linker_0, # of connection points: 2
#     Edge 80, Type (0, 1), BuildingBlock: MIFKUJ_clean_linker_0, # of connection points: 2
#     Edge 81, Type (0, 1), BuildingBlock: MIFKUJ_clean_linker_0, # of connection points: 2
#     Edge 82, Type (0, 1), BuildingBlock: MIFKUJ_clean_linker_0, # of connection points: 2
#     Edge 83, Type (0, 1), BuildingBlock: MIFKUJ_clean_linker_0, # of connection points: 2
#     Edge 84, Type (0, 1), BuildingBlock: MIFKUJ_clean_linker_0, # of connection points: 2
#     Edge 85, Type (0, 1), BuildingBlock: MIFKUJ_clean_linker_0, # of connection points: 2
#     Edge 86, Type (0, 1), BuildingBlock: MIFKUJ_clean_linker_0, # of connection points: 2
#     Edge 87, Type (0, 1), BuildingBlock: MIFKUJ_clean_linker_0, # of connection points: 2
#     Edge 88, Type (0, 1), BuildingBlock: MIFKUJ_clean_linker_0, # of connection points: 2
#     Edge 89, Type (0, 1), BuildingBlock: MIFKUJ_clean_linker_0, # of connection points: 2
#     Edge 90, Type (0, 1), BuildingBlock: MIFKUJ_clean_linker_0, # of connection points: 2
#     Edge 91, Type (0, 1), BuildingBlock: MIFKUJ_clean_linker_0, # of connection points: 2
#     Edge 92, Type (0, 1), BuildingBlock: MIFKUJ_clean_linker_0, # of connection points: 2
#     Edge 93, Type (0, 1), BuildingBlock: MIFKUJ_clean_linker_0, # of connection points: 2
#     Edge 94, Type (0, 1), BuildingBlock: MIFKUJ_clean_linker_0, # of connection points: 2
#     Edge 95, Type (0, 1), BuildingBlock: MIFKUJ_clean_linker_0, # of connection points: 2
#     Edge 96, Type (0, 1), BuildingBlock: MIFKUJ_clean_linker_0, # of connection points: 2
#     Edge 97, Type (0, 1), BuildingBlock: MIFKUJ_clean_linker_0, # of connection points: 2
#     Edge 98, Type (0, 1), BuildingBlock: MIFKUJ_clean_linker_0, # of connection points: 2
#     Edge 99, Type (0, 1), BuildingBlock: MIFKUJ_clean_linker_0, # of connection points: 2
#     Edge 100, Type (0, 1), BuildingBlock: MIFKUJ_clean_linker_0, # of connection points: 2
#     Edge 101, Type (0, 1), BuildingBlock: MIFKUJ_clean_linker_0, # of connection points: 2
#     Edge 102, Type (0, 1), BuildingBlock: MIFKUJ_clean_linker_0, # of connection points: 2
#     Edge 103, Type (0, 1), BuildingBlock: MIFKUJ_clean_linker_0, # of connection points: 2
#     Edge 104, Type (0, 1), BuildingBlock: MIFKUJ_clean_linker_0, # of connection points: 2
#     Edge 105, Type (0, 1), BuildingBlock: MIFKUJ_clean_linker_0, # of connection points: 2
#     Edge 106, Type (0, 1), BuildingBlock: MIFKUJ_clean_linker_0, # of connection points: 2
#     Edge 107, Type (0, 1), BuildingBlock: MIFKUJ_clean_linker_0, # of connection points: 2
# Relax obj value: 0.051
# Max RMSD: 0.180
# Mean RMSD: 0.121
data_MOF--net-ptr--node1-QUQFOY_clean_sbu_3--node2-AZAVOO_clean_linker_0--edge1-MIFKUJ_clean_linker_0
_symmetry_space_group_name_H-M    P1
_symmetry_Int_Tables_number       1
_symmetry_cell_setting            triclinic
loop_
_symmetry_equiv_pos_as_xyz
'x, y, z'
_cell_length_a     102.69681
_cell_length_b     101.97272
_cell_length_c     87.724535
_cell_angle_alpha  92.605778
_cell_angle_beta   91.666891
_cell_angle_gamma 120.77526
loop_
_atom_site_label
_atom_site_type_symbol
_atom_site_fract_x
_atom_site_fract_y
_atom_site_fract_z
_atom_type_partial_charge
C0 C 0.97115 0.32247 -0.00035 0.0
O1 O 0.9633 0.32855 0.00261 0.0
Cd2 Cd 0.97369 0.3537 0.01479 0.0
O3 O 0.98526 0.32944 0.0037 0.0
Cd4 Cd 0.00502 0.3537 0.01756 0.0
C5 C 0.00167 0.37393 0.98979 0.0
O6 O 0.98939 0.35628 0.03658 0.0
O7 O 0.01163 0.37609 0.03454 0.0
O8 O 0.01138 0.3379 0.03198 0.0
C9 C -0.00061 0.36983 0.04139 0.0
O10 O 0.98921 0.37043 0.99572 0.0
C11 C 0.02543 0.34494 0.02969 0.0
O12 O 0.00988 0.36878 0.9948 0.0
O13 O 0.03023 0.35617 0.02126 0.0
C14 C 0.63016 0.6556 0.06846 0.0
O15 O 0.61617 0.65032 0.06505 0.0
Cd16 Cd 0.60025 0.62541 0.05244 0.0
O17 O 0.63647 0.64818 0.06422 0.0
Cd18 Cd 0.63034 0.62472 0.04842 0.0
C19 C 0.60788 0.60296 0.0752 0.0
O20 O 0.61216 0.62458 0.02975 0.0
O21 O 0.6132 0.60395 0.02957 0.0
O22 O 0.65254 0.64137 0.03517 0.0
C23 C 0.60796 0.61147 0.02345 0.0
O24 O 0.59883 0.60711 0.07029 0.0
C25 C 0.65936 0.63406 0.03693 0.0
O26 O 0.62089 0.60816 0.0698 0.0
O27 O 0.65273 0.62213 0.04437 0.0
C28 C 0.34417 0.96328 0.02075 0.0
O29 O 0.34887 0.95447 0.0164 0.0
Cd30 Cd 0.37389 0.96526 0.00712 0.0
O31 O 0.35224 0.9776 0.01938 0.0
Cd32 Cd 0.37616 -0.00298 0.00947 0.0
C33 C 0.39493 0.99107 0.03761 0.0
O34 O 0.37737 0.98229 0.9875 0.0
O35 O 0.3983 0.00311 0.9952 0.0
O36 O 0.36092 0.00463 0.99563 0.0
C37 C 0.39108 0.99201 0.98523 0.0
O38 O 0.39103 0.97873 0.0296 0.0
C39 C 0.3678 0.01847 0.00088 0.0
O40 O 0.39043 2e-05 0.03353 0.0
O41 O 0.379 0.02272 0.01048 0.0
C42 C 0.95978 0.63313 0.0254 0.0
O43 O 0.95187 0.6195 0.02929 0.0
Cd44 Cd 0.96336 0.60695 0.04191 0.0
O45 O 0.9739 0.64107 0.02926 0.0
Cd46 Cd 0.99368 0.63967 0.04426 0.0
C47 C 0.99197 0.61349 0.01803 0.0
O48 O 0.979 0.62239 0.06381 0.0
O49 O 0.00185 0.62697 0.06125 0.0
O50 O 0.00068 0.66282 0.05971 0.0
C51 C 0.9898 0.62059 0.06842 0.0
O52 O 0.97945 0.60423 0.02365 0.0
C53 C 0.0139 0.67075 0.05499 0.0
O54 O -0.0006 0.62762 0.02267 0.0
O55 O 0.01786 0.66432 0.04491 0.0
C56 C 0.33893 0.37383 0.01265 0.0
O57 O 0.34479 0.38815 0.01192 0.0
Cd58 Cd 0.36948 0.40314 0.00214 0.0
O59 O 0.34582 0.36724 0.00771 0.0
Cd60 Cd 0.3689 0.37253 0.995 0.0
C61 C 0.39079 0.39435 0.02594 0.0
O62 O 0.3698 0.39122 0.97788 0.0
O63 O 0.38952 0.38881 0.97939 0.0
O64 O 0.35142 0.34925 0.97982 0.0
C65 C 0.3826 0.39462 0.973 0.0
O66 O 0.38729 0.40403 0.02181 0.0
C67 C 0.35906 0.34276 0.98142 0.0
O68 O 0.38521 0.38136 0.0186 0.0
O69 O 0.37155 0.35018 0.98941 0.0
C70 C 0.65824 0.0347 0.02799 0.0
O71 O 0.65243 0.04261 0.03204 0.0
Cd72 Cd 0.62767 0.0305 0.04232 0.0
O73 O 0.6514 0.0205 0.03014 0.0
Cd74 Cd 0.62845 0.00052 0.04138 0.0
C75 C 0.60677 0.00289 0.01337 0.0
O76 O 0.62663 0.01547 0.06316 0.0
O77 O 0.60685 0.99324 0.05696 0.0
O78 O 0.64608 0.99437 0.05318 0.0
C79 C 0.61346 0.00499 0.06626 0.0
O80 O 0.60957 0.0151 0.02094 0.0
C81 C 0.6385 0.98014 0.0494 0.0
O82 O 0.61299 0.99545 0.01754 0.0
O83 O 0.62597 0.97513 0.0417 0.0
C84 C 0.63644 0.66257 0.32888 0.0
O85 O 0.6292 0.6695 0.33062 0.0
Cd86 Cd 0.63977 0.69428 0.34363 0.0
O87 O 0.65005 0.66857 0.33444 0.0
Cd88 Cd 0.66935 0.69219 0.34965 0.0
C89 C 0.67053 0.71483 0.32202 0.0
O90 O 0.6523 0.69439 0.36703 0.0
O91 O 0.67508 0.7139 0.36746 0.0
O92 O 0.67474 0.67605 0.36484 0.0
C93 C 0.66218 0.70745 0.37309 0.0
O94 O 0.65765 0.71185 0.32644 0.0
C95 C 0.6888 0.68266 0.36267 0.0
O96 O 0.67737 0.7086 0.32788 0.0
O97 O 0.69402 0.69382 0.35415 0.0
C98 C 0.29261 0.9853 0.4069 0.0
O99 O 0.2783 0.97897 0.40482 0.0
Cd100 Cd 0.2623 0.95486 0.39085 0.0
O101 O 0.29948 0.97887 0.40137 0.0
Cd102 Cd 0.29275 0.95488 0.38591 0.0
C103 C 0.26995 0.93203 0.41237 0.0
O104 O 0.27438 0.95529 0.36786 0.0
O105 O 0.2757 0.93483 0.36637 0.0
O106 O 0.31544 0.97009 0.3723 0.0
C107 C 0.27033 0.9425 0.36088 0.0
O108 O 0.26059 0.93583 0.40764 0.0
C109 C 0.32118 0.96182 0.37428 0.0
O110 O 0.28307 0.93786 0.40708 0.0
O111 O 0.31388 0.95032 0.38213 0.0
C112 C 0.02582 0.30105 0.363 0.0
O113 O 0.03123 0.29239 0.36098 0.0
Cd114 Cd 0.0551 0.30157 0.34967 0.0
O115 O 0.03297 0.31469 0.35891 0.0
Cd116 Cd 0.05639 0.33227 0.34656 0.0
C117 C 0.07869 0.33177 0.3751 0.0
O118 O 0.05426 0.31348 0.32677 0.0
O119 O 0.07549 0.33508 0.32893 0.0
O120 O 0.03951 0.34007 0.33611 0.0
C121 C 0.067 0.32234 0.32149 0.0
O122 O 0.07464 0.31841 0.36945 0.0
C123 C 0.0491 0.35431 0.33728 0.0
O124 O 0.0731 0.33925 0.36951 0.0
O125 O 0.06235 0.35849 0.34277 0.0
C126 C 0.62809 0.95746 0.3584 0.0
O127 O 0.62023 0.9439 0.36247 0.0
Cd128 Cd 0.63147 0.93159 0.37549 0.0
O129 O 0.64216 0.96563 0.36248 0.0
Cd130 Cd 0.6614 0.96425 0.37903 0.0
C131 C 0.66122 0.93909 0.35278 0.0
O132 O 0.6454 0.94723 0.39806 0.0
O133 O 0.66794 0.95074 0.39704 0.0
O134 O 0.66773 0.98873 0.39158 0.0
C135 C 0.65551 0.94484 0.40357 0.0
O136 O 0.64832 0.92959 0.35753 0.0
C137 C 0.68179 0.99548 0.38931 0.0
O138 O 0.6685 0.95298 0.35815 0.0
O139 O 0.68644 0.98769 0.38213 0.0
C140 C 0.01246 0.71597 0.35468 0.0
O141 O 0.0192 0.73039 0.354 0.0
Cd142 Cd 0.04363 0.7451 0.34377 0.0
O143 O 0.01836 0.7085 0.34936 0.0
Cd144 Cd 0.04107 0.71314 0.33597 0.0
C145 C 0.06458 0.73504 0.36638 0.0
O146 O 0.04222 0.73244 0.31952 0.0
O147 O 0.06097 0.72852 0.31913 0.0
O148 O 0.02391 0.68932 0.32094 0.0
C149 C 0.0545 0.73523 0.31379 0.0
O150 O 0.06169 0.74525 0.36264 0.0
C151 C 0.03214 0.68346 0.32268 0.0
O152 O 0.05813 0.72199 0.35902 0.0
O153 O 0.04448 0.69136 0.3308 0.0
C154 C 0.31683 0.36322 0.35615 0.0
O155 O 0.31109 0.37143 0.35923 0.0
Cd156 Cd 0.28706 0.36071 0.37102 0.0
O157 O 0.31045 0.34955 0.36012 0.0
Cd158 Cd 0.28888 0.33114 0.37413 0.0
C159 C 0.2644 0.32932 0.34622 0.0
O160 O 0.28872 0.34911 0.3937 0.0
O161 O 0.26995 0.32574 0.39277 0.0
O162 O 0.308 0.32696 0.38578 0.0
C163 C 0.27672 0.33906 0.39944 0.0
O164 O 0.26766 0.34246 0.35185 0.0
C165 C 0.30063 0.31251 0.38339 0.0
O166 O 0.27104 0.32269 0.35156 0.0
O167 O 0.28751 0.30649 0.37662 0.0
C168 C 0.30827 -0.0009 0.66012 0.0
O169 O 0.30069 0.00577 0.66058 0.0
Cd170 Cd 0.31017 0.03088 0.6719 0.0
O171 O 0.32175 0.00568 0.66623 0.0
Cd172 Cd 0.33991 0.0305 0.68096 0.0
C173 C 0.34152 0.05099 0.65106 0.0
O174 O 0.32108 0.03159 0.6967 0.0
O175 O 0.3433 0.05191 0.69793 0.0
O176 O 0.34669 0.01458 0.69522 0.0
C177 C 0.33015 0.04483 0.70294 0.0
O178 O 0.32814 0.04754 0.6541 0.0
C179 C 0.36089 0.02402 0.69614 0.0
O180 O 0.3486 0.04596 0.65868 0.0
O181 O 0.36547 0.03643 0.6897 0.0
C182 C 0.95475 0.30929 0.7334 0.0
O183 O 0.94075 0.30113 0.72918 0.0
Cd184 Cd 0.93021 0.27877 0.71184 0.0
O185 O 0.96426 0.3059 0.72835 0.0
Cd186 Cd 0.96408 0.28618 0.71047 0.0
C187 C 0.94087 0.25725 0.73167 0.0
O188 O 0.94649 0.28624 0.69113 0.0
O189 O 0.95168 0.26841 0.68762 0.0
O190 O 0.98865 0.30733 0.70403 0.0
C191 C 0.9452 0.27524 0.6826 0.0
O192 O 0.93014 0.25844 0.72559 0.0
C193 C 0.99517 0.2996 0.70327 0.0
O194 O 0.95469 0.26678 0.72937 0.0
O195 O 0.98734 0.28565 0.70625 0.0
C196 C 0.68443 0.63226 0.69471 0.0
O197 O 0.68954 0.62344 0.69205 0.0
Cd198 Cd 0.71368 0.63311 0.68107 0.0
O199 O 0.69164 0.64597 0.69082 0.0
Cd200 Cd 0.71426 0.6635 0.67746 0.0
C201 C 0.73698 0.66403 0.70618 0.0
O202 O 0.71333 0.64507 0.65813 0.0
O203 O 0.73419 0.66709 0.6606 0.0
O204 O 0.69746 0.66911 0.66322 0.0
C205 C 0.72613 0.65425 0.65314 0.0
O206 O 0.73286 0.65055 0.70086 0.0
C207 C 0.70468 0.6834 0.66667 0.0
O208 O 0.73145 0.67144 0.70027 0.0
O209 O 0.71679 0.68877 0.67521 0.0
C210 C 0.30085 0.29647 0.68718 0.0
O211 O 0.29251 0.28242 0.68956 0.0
Cd212 Cd 0.30182 0.26866 0.70298 0.0
O213 O 0.31447 0.30413 0.69291 0.0
Cd214 Cd 0.33197 0.30064 0.7101 0.0
C215 C 0.33337 0.2773 0.68272 0.0
O216 O 0.31367 0.2824 0.72702 0.0
O217 O 0.33589 0.28499 0.72768 0.0
O218 O 0.33759 0.32479 0.7229 0.0
C219 C 0.32291 0.27909 0.73307 0.0
O220 O 0.32004 0.26763 0.68642 0.0
C221 C 0.35191 0.33093 0.72342 0.0
O222 O 0.34048 0.29088 0.68898 0.0
O223 O 0.3571 0.323 0.71761 0.0
C224 C 0.68026 0.04859 0.6743 0.0
O225 O 0.68708 0.06249 0.67107 0.0
Cd226 Cd 0.71176 0.07451 0.6611 0.0
O227 O 0.68562 0.04006 0.67092 0.0
Cd228 Cd 0.70649 0.04055 0.657 0.0
C229 C 0.73077 0.06367 0.68618 0.0
O230 O 0.70895 0.05884 0.63874 0.0
O231 O 0.72636 0.05294 0.63906 0.0
O232 O 0.68668 0.01663 0.64413 0.0
C233 C 0.72078 0.06023 0.63311 0.0
O234 O 0.72843 0.07392 0.68131 0.0
C235 C 0.69344 0.0093 0.64621 0.0
O236 O 0.72397 0.0502 0.6797 0.0
O237 O 0.70633 0.01648 0.65354 0.0
C238 C 0.98326 0.69588 0.69093 0.0
O239 O 0.97867 0.70498 0.69453 0.0
Cd240 Cd 0.95377 0.69542 0.7038 0.0
O241 O 0.97529 0.68176 0.69336 0.0
Cd242 Cd 0.95162 0.66411 0.70553 0.0
C243 C 0.93102 0.66653 0.67647 0.0
O244 O 0.95204 0.68168 0.72592 0.0
O245 O 0.93091 0.66024 0.72144 0.0
O246 O 0.9671 0.65567 0.71822 0.0
C247 C 0.9387 0.67256 0.72978 0.0
O248 O 0.93495 0.67962 0.68285 0.0
C249 C 0.95807 0.64147 0.71503 0.0
O250 O 0.93621 0.65858 0.68178 0.0
O251 O 0.94583 0.63763 0.7073 0.0
H252 H 0.16936 0.32414 0.04782 0.0
H253 H 0.2319 0.26701 0.1702 0.0
H254 H 0.15756 0.32309 0.13113 0.0
H255 H 0.14043 0.32956 0.11815 0.0
H256 H 0.10519 0.28176 0.1145 0.0
H257 H 0.12241 0.27549 0.1279 0.0
H258 H 0.18169 0.32151 0.11279 0.0
H259 H 0.18025 0.32692 0.0861 0.0
H260 H 0.14101 0.28152 0.0769 0.0
H261 H 0.14269 0.27621 0.1036 0.0
H262 H 0.20367 0.31695 0.13381 0.0
H263 H 0.22364 0.32225 0.11643 0.0
H264 H 0.19342 0.27971 0.09003 0.0
H265 H 0.17335 0.27461 0.10751 0.0
H266 H 0.20031 0.31007 0.1664 0.0
H267 H 0.22064 0.30641 0.17638 0.0
H268 H 0.19966 0.26228 0.15108 0.0
H269 H 0.17929 0.26601 0.14134 0.0
H270 H 0.17442 0.31262 0.17982 0.0
H271 H 0.18206 0.31253 0.20636 0.0
H272 H 0.16845 0.26487 0.19884 0.0
H273 H 0.16117 0.26525 0.17208 0.0
H274 H 0.15038 0.31608 0.1619 0.0
H275 H 0.13418 0.31631 0.18167 0.0
H276 H 0.11564 0.26792 0.18569 0.0
H277 H 0.13188 0.2678 0.16582 0.0
O278 O 0.16976 0.32173 0.05832 0.0
O279 O 0.14958 0.2983 0.0542 0.0
O280 O 0.23428 0.29148 0.17927 0.0
O281 O 0.224 0.26876 0.16642 0.0
C282 C 0.15243 0.29495 0.13627 0.0
C283 C 0.16313 0.29525 0.12631 0.0
C284 C 0.17485 0.29307 0.13192 0.0
C285 C 0.17578 0.29034 0.14742 0.0
C286 C 0.16506 0.28999 0.1574 0.0
C287 C 0.15328 0.29215 0.15178 0.0
C288 C 0.14119 0.29884 0.13047 0.0
C289 C 0.14604 0.31407 0.12778 0.0
C290 C 0.13629 0.3177 0.12021 0.0
C291 C 0.1215 0.30615 0.11508 0.0
C292 C 0.11647 0.29094 0.11838 0.0
C293 C 0.12626 0.28732 0.12603 0.0
C294 C 0.16234 0.29845 0.11007 0.0
C295 C 0.17286 0.31272 0.10495 0.0
C296 C 0.17198 0.3158 0.08972 0.0
C297 C 0.16052 0.30465 0.07936 0.0
C298 C 0.14998 0.29035 0.08457 0.0
C299 C 0.1509 0.28729 0.0998 0.0
C300 C 0.18714 0.29538 0.12194 0.0
C301 C 0.20146 0.30867 0.12441 0.0
C302 C 0.21285 0.31164 0.11449 0.0
C303 C 0.21013 0.30136 0.10188 0.0
C304 C 0.19581 0.2879 0.09957 0.0
C305 C 0.18438 0.28492 0.10955 0.0
C306 C 0.18827 0.28824 0.15326 0.0
C307 C 0.20009 0.29959 0.1631 0.0
C308 C 0.2117 0.29748 0.16874 0.0
C309 C 0.21175 0.28402 0.16455 0.0
C310 C 0.19995 0.27275 0.15456 0.0
C311 C 0.18832 0.27486 0.14896 0.0
C312 C 0.16724 0.28895 0.17404 0.0
C313 C 0.17277 0.30207 0.18401 0.0
C314 C 0.17711 0.30197 0.1992 0.0
C315 C 0.17596 0.2887 0.20477 0.0
C316 C 0.16973 0.27535 0.19489 0.0
C317 C 0.16543 0.27549 0.17964 0.0
C318 C 0.1422 0.2919 0.16237 0.0
C319 C 0.14254 0.30546 0.16677 0.0
C320 C 0.13329 0.30556 0.17806 0.0
C321 C 0.12366 0.29212 0.18522 0.0
C322 C 0.12304 0.27846 0.18045 0.0
C323 C 0.13222 0.27835 0.16908 0.0
C324 C 0.15957 0.30797 0.0632 0.0
C325 C 0.22404 0.28171 0.17055 0.0
H326 H 0.68183 0.8322 0.06776 0.0
H327 H 0.71816 0.95184 0.19832 0.0
H328 H 0.67956 0.82428 0.15181 0.0
H329 H 0.67379 0.7993 0.1411 0.0
H330 H 0.72135 0.81371 0.14646 0.0
H331 H 0.72694 0.83874 0.15771 0.0
H332 H 0.67957 0.84696 0.13248 0.0
H333 H 0.67607 0.83961 0.10506 0.0
H334 H 0.72306 0.8518 0.10467 0.0
H335 H 0.72643 0.85926 0.13208 0.0
H336 H 0.6787 0.87044 0.15436 0.0
H337 H 0.67071 0.88312 0.13661 0.0
H338 H 0.71428 0.9031 0.11667 0.0
H339 H 0.72229 0.89045 0.13474 0.0
H340 H 0.68525 0.87595 0.18802 0.0
H341 H 0.68471 0.89839 0.19824 0.0
H342 H 0.72795 0.92786 0.17938 0.0
H343 H 0.7284 0.9053 0.16934 0.0
H344 H 0.68821 0.84909 0.20251 0.0
H345 H 0.6865 0.85638 0.22877 0.0
H346 H 0.72845 0.89952 0.22597 0.0
H347 H 0.73085 0.89129 0.20019 0.0
H348 H 0.68578 0.82461 0.18322 0.0
H349 H 0.6859 0.80766 0.20186 0.0
H350 H 0.73298 0.84057 0.21496 0.0
H351 H 0.73288 0.85735 0.19575 0.0
O352 O 0.68348 0.83525 0.07859 0.0
O353 O 0.7077 0.84163 0.07901 0.0
O354 O 0.69528 0.92712 0.20271 0.0
O355 O 0.71803 0.94277 0.19427 0.0
C356 C 0.70677 0.84859 0.1612 0.0
C357 C 0.70542 0.85812 0.15088 0.0
C358 C 0.70539 0.87131 0.15644 0.0
C359 C 0.70747 0.87538 0.1723 0.0
C360 C 0.70931 0.8661 0.18267 0.0
C361 C 0.70887 0.85262 0.1771 0.0
C362 C 0.70366 0.83331 0.1554 0.0
C363 C 0.68872 0.82202 0.15072 0.0
C364 C 0.68548 0.80779 0.14452 0.0
C365 C 0.69715 0.80458 0.14269 0.0
C366 C 0.71211 0.81581 0.14777 0.0
C367 C 0.71534 0.8301 0.15412 0.0
C368 C 0.7033 0.8538 0.1342 0.0
C369 C 0.68912 0.84817 0.12641 0.0
C370 C 0.68714 0.84392 0.11077 0.0
C371 C 0.6993 0.84515 0.10266 0.0
C372 C 0.71347 0.85074 0.11056 0.0
C373 C 0.71544 0.85501 0.1262 0.0
C374 C 0.70109 0.87962 0.14588 0.0
C375 C 0.68657 0.87765 0.14623 0.0
C376 C 0.68197 0.88477 0.13598 0.0
C377 C 0.69183 0.89401 0.12517 0.0
C378 C 0.70648 0.89611 0.12493 0.0
C379 C 0.71105 0.88889 0.13519 0.0
C380 C 0.70692 0.88902 0.17806 0.0
C381 C 0.6946 0.88726 0.18614 0.0
C382 C 0.69431 0.9001 0.19194 0.0
C383 C 0.70632 0.91493 0.18967 0.0
C384 C 0.71855 0.91661 0.18138 0.0
C385 C 0.71882 0.90376 0.1756 0.0
C386 C 0.7097 0.8696 0.1994 0.0
C387 C 0.69738 0.85981 0.20778 0.0
C388 C 0.69626 0.8642 0.22273 0.0
C389 C 0.70713 0.87874 0.22947 0.0
C390 C 0.71989 0.88819 0.22131 0.0
C391 C 0.72125 0.88356 0.20648 0.0
C392 C 0.70937 0.84212 0.18798 0.0
C393 C 0.69621 0.82804 0.18987 0.0
C394 C 0.69625 0.81848 0.2007 0.0
C395 C 0.70941 0.82285 0.20999 0.0
C396 C 0.72269 0.83686 0.2079 0.0
C397 C 0.72265 0.84646 0.197 0.0
C398 C 0.69714 0.84059 0.08605 0.0
C399 C 0.70615 0.9286 0.19595 0.0
H400 H 0.14109 0.85657 0.05189 0.0
H401 H 0.26424 0.94874 0.17665 0.0
H402 H 0.13003 0.85743 0.13044 0.0
H403 H 0.10864 0.83348 0.11851 0.0
H404 H 0.12549 0.80794 0.1412 0.0
H405 H 0.14721 0.83186 0.15247 0.0
H406 H 0.15851 0.88442 0.11448 0.0
H407 H 0.15103 0.87655 0.08735 0.0
H408 H 0.15327 0.83587 0.09332 0.0
H409 H 0.16096 0.84399 0.12037 0.0
H410 H 0.19102 0.91182 0.13183 0.0
H411 H 0.21094 0.92469 0.11377 0.0
H412 H 0.21154 0.88298 0.10495 0.0
H413 H 0.19205 0.87038 0.12318 0.0
H414 H 0.1887 0.91435 0.16907 0.0
H415 H 0.21331 0.93684 0.1774 0.0
H416 H 0.23574 0.91293 0.16198 0.0
H417 H 0.21104 0.89046 0.15388 0.0
H418 H 0.1628 0.88995 0.18931 0.0
H419 H 0.17262 0.89796 0.21604 0.0
H420 H 0.2051 0.88368 0.20851 0.0
H421 H 0.19539 0.87599 0.18189 0.0
H422 H 0.13075 0.8593 0.16947 0.0
H423 H 0.1144 0.84246 0.18842 0.0
H424 H 0.14958 0.83316 0.20197 0.0
H425 H 0.16528 0.84911 0.18242 0.0
O426 O 0.14416 0.85951 0.06264 0.0
O427 O 0.14535 0.83871 0.06635 0.0
O428 O 0.24227 0.95176 0.18129 0.0
O429 O 0.25436 0.94001 0.17344 0.0
C430 C 0.15458 0.86086 0.14716 0.0
C431 C 0.16451 0.86951 0.13593 0.0
C432 C 0.17884 0.88247 0.14038 0.0
C433 C 0.18309 0.88713 0.15603 0.0
C434 C 0.17325 0.87845 0.16726 0.0
C435 C 0.15903 0.86527 0.16285 0.0
C436 C 0.1402 0.84641 0.14232 0.0
C437 C 0.12897 0.84665 0.13301 0.0
C438 C 0.11682 0.83302 0.1262 0.0
C439 C 0.11551 0.81896 0.12896 0.0
C440 C 0.12622 0.81866 0.13902 0.0
C441 C 0.13856 0.8323 0.14552 0.0
C442 C 0.16015 0.86472 0.11941 0.0
C443 C 0.15742 0.87384 0.10988 0.0
C444 C 0.15312 0.8693 0.0944 0.0
C445 C 0.1515 0.85555 0.08817 0.0
C446 C 0.15437 0.8465 0.09775 0.0
C447 C 0.15872 0.85108 0.11321 0.0
C448 C 0.19005 0.89015 0.12873 0.0
C449 C 0.19542 0.90548 0.12591 0.0
C450 C 0.20676 0.91279 0.11565 0.0
C451 C 0.21267 0.90477 0.10793 0.0
C452 C 0.20701 0.88934 0.11056 0.0
C453 C 0.19589 0.88214 0.12096 0.0
C454 C 0.19811 0.90084 0.16078 0.0
C455 C 0.19895 0.91401 0.1675 0.0
C456 C 0.21302 0.92683 0.17223 0.0
C457 C 0.2265 0.92669 0.17032 0.0
C458 C 0.22559 0.91344 0.16359 0.0
C459 C 0.21151 0.90061 0.1589 0.0
C460 C 0.17851 0.88257 0.18366 0.0
C461 C 0.17199 0.88852 0.19351 0.0
C462 C 0.17757 0.89301 0.20876 0.0
C463 C 0.18975 0.89159 0.21435 0.0
C464 C 0.19593 0.88523 0.20449 0.0
C465 C 0.19038 0.88077 0.18931 0.0
C466 C 0.14925 0.85553 0.17467 0.0
C467 C 0.13485 0.85355 0.17653 0.0
C468 C 0.12558 0.84402 0.18743 0.0
C469 C 0.13064 0.8364 0.19671 0.0
C470 C 0.14516 0.83858 0.19485 0.0
C471 C 0.15429 0.8479 0.18384 0.0
C472 C 0.14683 0.8507 0.07174 0.0
C473 C 0.24148 0.94027 0.17536 0.0
H474 H 0.29006 0.16293 0.9877 0.0
H475 H 0.31495 0.05886 0.88158 0.0
H476 H 0.27746 0.15707 0.90738 0.0
H477 H 0.28432 0.18301 0.91664 0.0
H478 H 0.32776 0.20105 0.89673 0.0
H479 H 0.32109 0.17517 0.88817 0.0
H480 H 0.27566 0.12964 0.92766 0.0
H481 H 0.27746 0.14019 0.95379 0.0
H482 H 0.32328 0.17661 0.94739 0.0
H483 H 0.32138 0.16583 0.92137 0.0
H484 H 0.27787 0.09954 0.91522 0.0
H485 H 0.28424 0.08643 0.93417 0.0
H486 H 0.32996 0.12548 0.9399 0.0
H487 H 0.3234 0.13848 0.92124 0.0
H488 H 0.27394 0.09268 0.87795 0.0
H489 H 0.27573 0.06975 0.87385 0.0
H490 H 0.32317 0.09595 0.88947 0.0
H491 H 0.32128 0.1188 0.89326 0.0
H492 H 0.27171 0.11345 0.85465 0.0
H493 H 0.27292 0.10378 0.82883 0.0
H494 H 0.32113 0.12266 0.83738 0.0
H495 H 0.3198 0.13228 0.86295 0.0
H496 H 0.27107 0.14467 0.86817 0.0
H497 H 0.27061 0.15966 0.84736 0.0
H498 H 0.31787 0.17539 0.84084 0.0
H499 H 0.31789 0.1598 0.8611 0.0
O500 O 0.28964 0.15888 0.97738 0.0
O501 O 0.31311 0.17742 0.97347 0.0
O502 O 0.28972 0.05496 0.8742 0.0
O503 O 0.31396 0.06779 0.88284 0.0
C504 C 0.29616 0.14863 0.89418 0.0
C505 C 0.29701 0.14074 0.90666 0.0
C506 C 0.29717 0.12708 0.90397 0.0
C507 C 0.29625 0.12116 0.88883 0.0
C508 C 0.29505 0.12887 0.87639 0.0
C509 C 0.29494 0.14257 0.87906 0.0
C510 C 0.29876 0.16426 0.89705 0.0
C511 C 0.28831 0.16669 0.90475 0.0
C512 C 0.29224 0.18149 0.91 0.0
C513 C 0.30666 0.19404 0.90756 0.0
C514 C 0.31668 0.19159 0.89901 0.0
C515 C 0.31279 0.17684 0.89389 0.0
C516 C 0.29833 0.14705 0.9226 0.0
C517 C 0.28608 0.13987 0.93195 0.0
C518 C 0.28714 0.14594 0.94686 0.0
C519 C 0.30049 0.15929 0.95266 0.0
C520 C 0.31281 0.16635 0.94327 0.0
C521 C 0.31175 0.16025 0.92839 0.0
C522 C 0.30017 0.11995 0.91691 0.0
C523 C 0.28914 0.10534 0.92085 0.0
C524 C 0.29283 0.09786 0.9316 0.0
C525 C 0.30763 0.10489 0.93852 0.0
C526 C 0.3184 0.11984 0.93501 0.0
C527 C 0.3147 0.12728 0.92431 0.0
C528 C 0.29744 0.10735 0.886 0.0
C529 C 0.28471 0.09344 0.8804 0.0
C530 C 0.28577 0.08036 0.8781 0.0
C531 C 0.29959 0.081 0.8814 0.0
C532 C 0.31235 0.09503 0.88687 0.0
C533 C 0.31129 0.1081 0.88907 0.0
C534 C 0.29566 0.12351 0.8606 0.0
C535 C 0.28251 0.11555 0.85084 0.0
C536 C 0.28322 0.11001 0.83618 0.0
C537 C 0.29713 0.11254 0.83108 0.0
C538 C 0.3103 0.12074 0.84088 0.0
C539 C 0.30955 0.12615 0.85551 0.0
C540 C 0.29448 0.15111 0.86604 0.0
C541 C 0.28124 0.15124 0.86208 0.0
C542 C 0.28106 0.15992 0.85028 0.0
C543 C 0.29421 0.1688 0.84238 0.0
C544 C 0.30743 0.1685 0.8464 0.0
C545 C 0.30752 0.15966 0.85804 0.0
C546 C 0.30152 0.16578 0.96845 0.0
C547 C 0.30073 0.06711 0.87923 0.0
H548 H 0.84323 0.1571 0.99024 0.0
H549 H 0.74892 0.03279 0.86397 0.0
H550 H 0.84677 0.15965 0.90878 0.0
H551 H 0.86797 0.18417 0.91904 0.0
H552 H 0.89875 0.16775 0.91125 0.0
H553 H 0.87712 0.1428 0.90136 0.0
H554 H 0.8225 0.13821 0.92592 0.0
H555 H 0.82782 0.14714 0.95298 0.0
H556 H 0.86155 0.13385 0.95614 0.0
H557 H 0.856 0.1248 0.92909 0.0
H558 H 0.79641 0.11435 0.9033 0.0
H559 H 0.77634 0.10391 0.92124 0.0
H560 H 0.79957 0.085 0.9454 0.0
H561 H 0.81952 0.09522 0.92703 0.0
H562 H 0.79689 0.10836 0.87015 0.0
H563 H 0.77271 0.08623 0.86017 0.0
H564 H 0.78424 0.05629 0.8826 0.0
H565 H 0.80847 0.07852 0.89235 0.0
H566 H 0.82811 0.13477 0.85677 0.0
H567 H 0.82005 0.12841 0.82979 0.0
H568 H 0.8149 0.08385 0.83365 0.0
H569 H 0.82438 0.09096 0.86042 0.0
H570 H 0.85411 0.15939 0.87645 0.0
H571 H 0.87178 0.17431 0.85745 0.0
H572 H 0.8774 0.13616 0.84483 0.0
H573 H 0.86014 0.12142 0.86442 0.0
O574 O 0.84113 0.15327 0.97961 0.0
O575 O 0.85816 0.14598 0.98071 0.0
O576 O 0.75304 0.05763 0.85642 0.0
O577 O 0.75838 0.04175 0.86782 0.0
C578 C 0.84707 0.13448 0.89877 0.0
C579 C 0.83593 0.12578 0.90902 0.0
C580 C 0.82196 0.11292 0.90343 0.0
C581 C 0.81933 0.10843 0.88764 0.0
C582 C 0.83057 0.11698 0.87736 0.0
C583 C 0.84452 0.13 0.88295 0.0
C584 C 0.8604 0.14943 0.90445 0.0
C585 C 0.85808 0.16131 0.90932 0.0
C586 C 0.87025 0.17539 0.915 0.0
C587 C 0.88508 0.17797 0.9158 0.0
C588 C 0.88744 0.16607 0.91081 0.0
C589 C 0.87516 0.15188 0.90512 0.0
C590 C 0.83874 0.13069 0.9256 0.0
C591 C 0.83089 0.13705 0.93253 0.0
C592 C 0.83402 0.14223 0.94796 0.0
C593 C 0.84511 0.14121 0.95673 0.0
C594 C 0.85293 0.13479 0.94973 0.0
C595 C 0.84977 0.12959 0.93429 0.0
C596 C 0.80936 0.10546 0.91381 0.0
C597 C 0.79705 0.10775 0.91232 0.0
C598 C 0.7857 0.10194 0.92269 0.0
C599 C 0.78646 0.09377 0.93483 0.0
C600 C 0.79864 0.09118 0.93611 0.0
C601 C 0.81004 0.09702 0.92569 0.0
C602 C 0.80448 0.09502 0.88185 0.0
C603 C 0.7942 0.09701 0.87283 0.0
C604 C 0.78038 0.08435 0.86718 0.0
C605 C 0.77656 0.06948 0.87055 0.0
C606 C 0.78684 0.06757 0.87976 0.0
C607 C 0.80067 0.08024 0.88536 0.0
C608 C 0.82691 0.11337 0.86059 0.0
C609 C 0.82568 0.12381 0.85169 0.0
C610 C 0.82078 0.12001 0.83629 0.0
C611 C 0.81652 0.10548 0.82951 0.0
C612 C 0.8182 0.09519 0.83837 0.0
C613 C 0.82349 0.09917 0.85373 0.0
C614 C 0.85603 0.13939 0.87206 0.0
C615 C 0.85951 0.15439 0.86996 0.0
C616 C 0.86954 0.16288 0.85905 0.0
C617 C 0.876 0.15639 0.84977 0.0
C618 C 0.87257 0.1414 0.85188 0.0
C619 C 0.86276 0.13301 0.86304 0.0
C620 C 0.84856 0.14693 0.97307 0.0
C621 C 0.76194 0.05598 0.86448 0.0
H622 H 0.87167 0.70638 0.00852 0.0
H623 H 0.74391 0.68093 0.89667 0.0
H624 H 0.87791 0.71875 0.92935 0.0
H625 H 0.89751 0.71441 0.94029 0.0
H626 H 0.87395 0.66862 0.91846 0.0
H627 H 0.85446 0.67304 0.90768 0.0
H628 H 0.85223 0.71839 0.9501 0.0
H629 H 0.86113 0.71757 0.97604 0.0
H630 H 0.85155 0.67162 0.96479 0.0
H631 H 0.84247 0.67251 0.93898 0.0
H632 H 0.8209 0.71568 0.93768 0.0
H633 H 0.80204 0.70986 0.95677 0.0
H634 H 0.79302 0.66349 0.95621 0.0
H635 H 0.81208 0.66957 0.9375 0.0
H636 H 0.81973 0.72015 0.90065 0.0
H637 H 0.79572 0.71928 0.89561 0.0
H638 H 0.7711 0.67144 0.90485 0.0
H639 H 0.79518 0.67242 0.90964 0.0
H640 H 0.84359 0.72196 0.87851 0.0
H641 H 0.83412 0.72207 0.85255 0.0
H642 H 0.80116 0.67375 0.85316 0.0
H643 H 0.81047 0.67391 0.87916 0.0
H644 H 0.87209 0.72139 0.88891 0.0
H645 H 0.88535 0.72059 0.86641 0.0
H646 H 0.85332 0.67197 0.85884 0.0
H647 H 0.83988 0.67313 0.88088 0.0
O648 O 0.8679 0.70638 -0.00172 0.0
O649 O 0.86294 0.68284 0.99186 0.0
O650 O 0.76674 0.70605 0.89332 0.0
O651 O 0.75357 0.68157 0.89846 0.0
C652 C 0.85112 0.69728 0.91455 0.0
C653 C 0.84205 0.69641 0.92676 0.0
C654 C 0.82827 0.696 0.92381 0.0
C655 C 0.82377 0.69699 0.90875 0.0
C656 C 0.83288 0.69797 0.89659 0.0
C657 C 0.84643 0.69787 0.89946 0.0
C658 C 0.8648 0.69622 0.9177 0.0
C659 C 0.87729 0.70798 0.92654 0.0
C660 C 0.88837 0.70543 0.93288 0.0
C661 C 0.88716 0.69112 0.93037 0.0
C662 C 0.87528 0.67981 0.9205 0.0
C663 C 0.86416 0.68233 0.91425 0.0
C664 C 0.84682 0.69556 0.94266 0.0
C665 C 0.85198 0.70813 0.95331 0.0
C666 C 0.8571 0.70764 0.96809 0.0
C667 C 0.85712 0.69456 0.97247 0.0
C668 C 0.85173 0.68189 0.96179 0.0
C669 C 0.84656 0.68238 0.94703 0.0
C670 C 0.81785 0.69305 0.93627 0.0
C671 C 0.81497 0.70435 0.94188 0.0
C672 C 0.80414 0.70097 0.9527 0.0
C673 C 0.79598 0.68619 0.95802 0.0
C674 C 0.79925 0.67505 0.9526 0.0
C675 C 0.81009 0.67847 0.94185 0.0
C676 C 0.80918 0.69638 0.90559 0.0
C677 C 0.80913 0.70949 0.90153 0.0
C678 C 0.79541 0.70896 0.89868 0.0
C679 C 0.78148 0.69529 0.89988 0.0
C680 C 0.78161 0.68215 0.90387 0.0
C681 C 0.79534 0.68269 0.90665 0.0
C682 C 0.82762 0.69796 0.88068 0.0
C683 C 0.83435 0.71143 0.87296 0.0
C684 C 0.82897 0.71143 0.85814 0.0
C685 C 0.8168 0.69794 0.85081 0.0
C686 C 0.81034 0.6844 0.85856 0.0
C687 C 0.81568 0.68443 0.87337 0.0
C688 C 0.85507 0.69732 0.88647 0.0
C689 C 0.86803 0.7106 0.88237 0.0
C690 C 0.8756 0.71008 0.86956 0.0
C691 C 0.87037 0.69622 0.86072 0.0
C692 C 0.8575 0.6829 0.86514 0.0
C693 C 0.84988 0.68348 0.87781 0.0
C694 C 0.8628 0.69417 0.9881 0.0
C695 C 0.76686 0.69469 0.897 0.0
H696 H 0.83063 0.66361 0.38106 0.0
H697 H 0.89867 0.61099 0.50494 0.0
H698 H 0.81616 0.65853 0.46562 0.0
H699 H 0.79752 0.66309 0.45275 0.0
H700 H 0.76768 0.61439 0.44316 0.0
H701 H 0.78636 0.60991 0.45638 0.0
H702 H 0.84212 0.66054 0.44615 0.0
H703 H 0.84059 0.66635 0.41961 0.0
H704 H 0.80643 0.61889 0.40819 0.0
H705 H 0.80818 0.61324 0.43475 0.0
H706 H 0.86599 0.65803 0.46834 0.0
H707 H 0.88755 0.66659 0.45236 0.0
H708 H 0.86198 0.62528 0.42271 0.0
H709 H 0.8405 0.61654 0.43919 0.0
H710 H 0.86284 0.64992 0.49946 0.0
H711 H 0.88385 0.6478 0.5103 0.0
H712 H 0.8664 0.60443 0.48429 0.0
H713 H 0.8453 0.60659 0.47372 0.0
H714 H 0.83641 0.65009 0.51205 0.0
H715 H 0.84433 0.65021 0.53851 0.0
H716 H 0.83225 0.60299 0.53076 0.0
H717 H 0.82483 0.60325 0.50403 0.0
H718 H 0.81257 0.65258 0.4941 0.0
H719 H 0.796 0.65246 0.51357 0.0
H720 H 0.7776 0.60403 0.51712 0.0
H721 H 0.79422 0.60426 0.49746 0.0
O722 O 0.83112 0.66104 0.39148 0.0
O723 O 0.8136 0.63652 0.38621 0.0
O724 O 0.899 0.63448 0.51389 0.0
O725 O 0.89051 0.61214 0.50077 0.0
C726 C 0.81467 0.63148 0.46814 0.0
C727 C 0.82606 0.63305 0.45846 0.0
C728 C 0.83855 0.63225 0.46435 0.0
C729 C 0.83937 0.62931 0.47981 0.0
C730 C 0.828 0.62777 0.48953 0.0
C731 C 0.81568 0.62894 0.4837 0.0
C732 C 0.80249 0.6339 0.46209 0.0
C733 C 0.80543 0.64884 0.46108 0.0
C734 C 0.7948 0.65142 0.45372 0.0
C735 C 0.78116 0.63909 0.44699 0.0
C736 C 0.77812 0.62408 0.44823 0.0
C737 C 0.78869 0.6215 0.45584 0.0
C738 C 0.8253 0.63648 0.4423 0.0
C739 C 0.83438 0.65142 0.43786 0.0
C740 C 0.83346 0.6547 0.42271 0.0
C741 C 0.82339 0.64308 0.41177 0.0
C742 C 0.81431 0.6281 0.41632 0.0
C743 C 0.81528 0.62484 0.43146 0.0
C744 C 0.85175 0.63664 0.45496 0.0
C745 C 0.86512 0.65072 0.45852 0.0
C746 C 0.87735 0.65567 0.44928 0.0
C747 C 0.8764 0.64668 0.43618 0.0
C748 C 0.86307 0.6324 0.43277 0.0
C749 C 0.8508 0.62742 0.44211 0.0
C750 C 0.85247 0.62832 0.48594 0.0
C751 C 0.86354 0.63994 0.49618 0.0
C752 C 0.87555 0.63872 0.50232 0.0
C753 C 0.87678 0.62591 0.4982 0.0
C754 C 0.86577 0.61442 0.48774 0.0
C755 C 0.85373 0.61563 0.48165 0.0
C756 C 0.83005 0.62667 0.50615 0.0
C757 C 0.83512 0.63967 0.51618 0.0
C758 C 0.83962 0.63967 0.53134 0.0
C759 C 0.83903 0.62662 0.53681 0.0
C760 C 0.83312 0.61332 0.52689 0.0
C761 C 0.82872 0.61338 0.51166 0.0
C762 C 0.80441 0.62838 0.49421 0.0
C763 C 0.80465 0.64186 0.49876 0.0
C764 C 0.79521 0.64178 0.50991 0.0
C765 C 0.78548 0.62822 0.51683 0.0
C766 C 0.78505 0.61465 0.51203 0.0
C767 C 0.79444 0.61474 0.50077 0.0
C768 C 0.82236 0.64662 0.39571 0.0
C769 C 0.88945 0.6245 0.50479 0.0
H770 H 0.34955 0.1676 0.39753 0.0
H771 H 0.3884 0.28828 0.52701 0.0
H772 H 0.34669 0.16046 0.47993 0.0
H773 H 0.33933 0.13444 0.47136 0.0
H774 H 0.38493 0.14457 0.48288 0.0
H775 H 0.39241 0.17106 0.49082 0.0
H776 H 0.34741 0.18294 0.4621 0.0
H777 H 0.34394 0.17559 0.4347 0.0
H778 H 0.3901 0.18509 0.43493 0.0
H779 H 0.39348 0.1926 0.46233 0.0
H780 H 0.34683 0.20557 0.48375 0.0
H781 H 0.33919 0.21866 0.46614 0.0
H782 H 0.38323 0.23932 0.44719 0.0
H783 H 0.39082 0.22605 0.46496 0.0
H784 H 0.3543 0.21221 0.51801 0.0
H785 H 0.35436 0.23504 0.52799 0.0
H786 H 0.39734 0.26356 0.50825 0.0
H787 H 0.39721 0.24061 0.49845 0.0
H788 H 0.3574 0.18593 0.5334 0.0
H789 H 0.35693 0.1945 0.55953 0.0
H790 H 0.39929 0.23663 0.55446 0.0
H791 H 0.40045 0.22708 0.52884 0.0
H792 H 0.35319 0.16115 0.51556 0.0
H793 H 0.35388 0.14394 0.53352 0.0
H794 H 0.40253 0.17391 0.5408 0.0
H795 H 0.40153 0.19141 0.5232 0.0
O796 O 0.35119 0.17062 0.40837 0.0
O797 O 0.37498 0.17562 0.40911 0.0
O798 O 0.36543 0.26389 0.53205 0.0
O799 O 0.38803 0.27907 0.52306 0.0
C800 C 0.37405 0.18338 0.49127 0.0
C801 C 0.37294 0.19296 0.4808 0.0
C802 C 0.3735 0.20649 0.48621 0.0
C803 C 0.37598 0.21089 0.502 0.0
C804 C 0.3778 0.20169 0.51248 0.0
C805 C 0.3767 0.18785 0.50709 0.0
C806 C 0.37011 0.16769 0.48585 0.0
C807 C 0.35515 0.15714 0.48043 0.0
C808 C 0.35092 0.14219 0.47575 0.0
C809 C 0.36149 0.13734 0.4766 0.0
C810 C 0.37654 0.14797 0.48199 0.0
C811 C 0.38082 0.16305 0.48658 0.0
C812 C 0.37076 0.1885 0.46414 0.0
C813 C 0.35681 0.18359 0.45618 0.0
C814 C 0.35483 0.17932 0.44054 0.0
C815 C 0.36676 0.1798 0.43261 0.0
C816 C 0.3807 0.18463 0.44068 0.0
C817 C 0.38266 0.18892 0.45632 0.0
C818 C 0.36937 0.21491 0.47562 0.0
C819 C 0.35484 0.21295 0.47582 0.0
C820 C 0.35046 0.22032 0.46569 0.0
C821 C 0.36058 0.22989 0.45523 0.0
C822 C 0.37524 0.23202 0.45517 0.0
C823 C 0.37957 0.22447 0.46525 0.0
C824 C 0.37581 0.22478 0.50762 0.0
C825 C 0.36373 0.22341 0.51588 0.0
C826 C 0.36378 0.23646 0.52154 0.0
C827 C 0.37589 0.25113 0.51896 0.0
C828 C 0.38787 0.25244 0.51048 0.0
C829 C 0.38781 0.23936 0.50484 0.0
C830 C 0.37901 0.2058 0.52918 0.0
C831 C 0.36695 0.19668 0.53816 0.0
C832 C 0.36652 0.20182 0.55303 0.0
C833 C 0.37785 0.21649 0.55908 0.0
C834 C 0.39038 0.22525 0.55033 0.0
C835 C 0.39103 0.21985 0.5356 0.0
C836 C 0.37731 0.17749 0.51807 0.0
C837 C 0.36399 0.16397 0.52104 0.0
C838 C 0.36445 0.15409 0.53123 0.0
C839 C 0.3783 0.15743 0.53856 0.0
C840 C 0.39165 0.17104 0.53553 0.0
C841 C 0.39113 0.18102 0.52542 0.0
C842 C 0.36462 0.17524 0.416 0.0
C843 C 0.37607 0.26504 0.5251 0.0
H844 H 0.80577 0.18952 0.37668 0.0
H845 H 0.93357 0.2814 0.49649 0.0
H846 H 0.79699 0.18472 0.45695 0.0
H847 H 0.77641 0.15947 0.44649 0.0
H848 H 0.80093 0.13888 0.46431 0.0
H849 H 0.82147 0.16404 0.47433 0.0
H850 H 0.82521 0.21539 0.43977 0.0
H851 H 0.81659 0.20824 0.41277 0.0
H852 H 0.82134 0.16861 0.41522 0.0
H853 H 0.83013 0.17601 0.44214 0.0
H854 H 0.86102 0.24341 0.45509 0.0
H855 H 0.88275 0.25617 0.43911 0.0
H856 H 0.88 0.21291 0.42877 0.0
H857 H 0.85931 0.20067 0.44561 0.0
H858 H 0.85785 0.24548 0.49229 0.0
H859 H 0.88248 0.26836 0.49974 0.0
H860 H 0.9051 0.24503 0.48321 0.0
H861 H 0.88041 0.22217 0.47601 0.0
H862 H 0.83315 0.22033 0.51366 0.0
H863 H 0.84416 0.22856 0.54004 0.0
H864 H 0.87715 0.21556 0.52995 0.0
H865 H 0.86621 0.20756 0.50373 0.0
H866 H 0.80076 0.18865 0.49408 0.0
H867 H 0.78513 0.17071 0.51264 0.0
H868 H 0.8218 0.16303 0.52433 0.0
H869 H 0.83687 0.18019 0.50515 0.0
O870 O 0.80925 0.19217 0.38736 0.0
O871 O 0.81183 0.17192 0.38924 0.0
O872 O 0.91149 0.28383 0.50245 0.0
O873 O 0.92368 0.27248 0.49374 0.0
C874 C 0.82418 0.19149 0.47086 0.0
C875 C 0.83328 0.20059 0.45938 0.0
C876 C 0.84758 0.21377 0.46346 0.0
C877 C 0.85235 0.21838 0.47906 0.0
C878 C 0.84313 0.20945 0.49054 0.0
C879 C 0.82911 0.19594 0.48645 0.0
C880 C 0.8107 0.17619 0.4664 0.0
C881 C 0.79776 0.1747 0.45876 0.0
C882 C 0.78604 0.1603 0.45284 0.0
C883 C 0.78718 0.14725 0.45444 0.0
C884 C 0.79987 0.14876 0.46268 0.0
C885 C 0.81152 0.16309 0.46857 0.0
C886 C 0.82811 0.19613 0.44296 0.0
C887 C 0.82438 0.20518 0.43445 0.0
C888 C 0.81945 0.20105 0.41903 0.0
C889 C 0.81821 0.18782 0.41184 0.0
C890 C 0.8221 0.17884 0.42041 0.0
C891 C 0.82706 0.183 0.43581 0.0
C892 C 0.85861 0.22112 0.45156 0.0
C893 C 0.86505 0.23671 0.4492 0.0
C894 C 0.87739 0.24395 0.44001 0.0
C895 C 0.88329 0.23561 0.43287 0.0
C896 C 0.87604 0.21977 0.43442 0.0
C897 C 0.86399 0.21267 0.44382 0.0
C898 C 0.86736 0.23224 0.48348 0.0
C899 C 0.86815 0.24535 0.4903 0.0
C900 C 0.88222 0.25839 0.49453 0.0
C901 C 0.89577 0.25854 0.49202 0.0
C902 C 0.89491 0.24532 0.48526 0.0
C903 C 0.88082 0.23227 0.48109 0.0
C904 C 0.84901 0.21354 0.50678 0.0
C905 C 0.84269 0.2192 0.51724 0.0
C906 C 0.84896 0.22383 0.53227 0.0
C907 C 0.86163 0.22286 0.53702 0.0
C908 C 0.8676 0.21675 0.52657 0.0
C909 C 0.86134 0.21213 0.51162 0.0
C910 C 0.82 0.18585 0.49839 0.0
C911 C 0.80538 0.18308 0.5007 0.0
C912 C 0.79652 0.17291 0.51137 0.0
C913 C 0.80219 0.1654 0.51998 0.0
C914 C 0.81696 0.1684 0.51775 0.0
C915 C 0.82571 0.1784 0.50696 0.0
C916 C 0.81292 0.18344 0.39548 0.0
C917 C 0.91075 0.2724 0.49641 0.0
H918 H 0.99113 0.50521 0.32452 0.0
H919 H 0.01231 0.41196 0.19533 0.0
H920 H 0.97316 0.50307 0.24483 0.0
H921 H 0.97667 0.52755 0.25499 0.0
H922 H 0.01948 0.5515 0.23371 0.0
H923 H 0.01604 0.52702 0.22394 0.0
H924 H 0.9752 0.47621 0.26235 0.0
H925 H 0.97782 0.48469 0.2894 0.0
H926 H 0.0217 0.52416 0.28239 0.0
H927 H 0.01901 0.51544 0.25542 0.0
H928 H 0.9772 0.44758 0.24411 0.0
H929 H 0.9839 0.43328 0.26101 0.0
H930 H 0.02792 0.4739 0.27184 0.0
H931 H 0.02147 0.48771 0.25406 0.0
H932 H 0.9708 0.44403 0.20917 0.0
H933 H 0.97239 0.42199 0.19966 0.0
H934 H 0.02066 0.44716 0.21172 0.0
H935 H 0.01892 0.46918 0.22102 0.0
H936 H 0.96705 0.46436 0.18954 0.0
H937 H 0.96574 0.45147 0.16475 0.0
H938 H 0.01459 0.47255 0.16796 0.0
H939 H 0.01568 0.48494 0.19283 0.0
H940 H 0.96831 0.49871 0.20882 0.0
H941 H 0.9662 0.51489 0.19036 0.0
H942 H 0.00891 0.52445 0.17277 0.0
H943 H 0.01139 0.50923 0.19197 0.0
O944 O 0.99036 0.50202 0.31379 0.0
O945 O 0.01282 0.52215 0.30957 0.0
O946 O 0.98645 0.40794 0.19344 0.0
O947 O 0.01133 0.42042 0.19925 0.0
C948 C 0.99328 0.49857 0.22916 0.0
C949 C 0.99513 0.49009 0.24048 0.0
C950 C 0.99554 0.47681 0.23615 0.0
C951 C 0.99388 0.47188 0.22054 0.0
C952 C 0.99203 0.48035 0.20924 0.0
C953 C 0.99165 0.49365 0.21352 0.0
C954 C 0.99437 0.5133 0.2337 0.0
C955 C 0.98319 0.51364 0.24223 0.0
C956 C 0.98518 0.5276 0.24795 0.0
C957 C -0.0016 0.54142 0.24523 0.0
C958 C 0.00928 0.54103 0.23617 0.0
C959 C 0.00728 0.52709 0.23046 0.0
C960 C -0.00314 0.49526 0.25692 0.0
C961 C 0.98538 0.48666 0.2667 0.0
C962 C 0.9869 0.49155 0.28213 0.0
C963 C -5e-05 0.50513 0.28805 0.0
C964 C 0.01148 0.51367 0.2782 0.0
C965 C 0.00996 0.50875 0.26278 0.0
C966 C -0.00114 0.46865 0.24781 0.0
C967 C 0.98826 0.45337 0.25019 0.0
C968 C 0.99208 0.44527 0.25998 0.0
C969 C 0.00651 0.4524 0.26777 0.0
C970 C 0.01684 0.46794 0.26582 0.0
C971 C 0.0131 0.47593 0.25583 0.0
C972 C 0.99474 0.45817 0.21579 0.0
C973 C 0.98168 0.44472 0.2098 0.0
C974 C 0.98263 0.43216 0.20437 0.0
C975 C 0.99667 0.43282 0.20489 0.0
C976 C 0.00968 0.44627 0.21113 0.0
C977 C 0.00872 0.45884 0.21652 0.0
C978 C 0.99145 0.47551 0.19294 0.0
C979 C 0.97746 0.46649 0.18465 0.0
C980 C 0.97676 0.45914 0.17052 0.0
C981 C 0.99005 0.4608 0.16452 0.0
C982 C 0.00412 0.47078 0.17242 0.0
C983 C 0.0048 0.478 0.18653 0.0
C984 C 0.98993 0.50267 0.20165 0.0
C985 C 0.97719 0.50434 0.20096 0.0
C986 C 0.97596 0.51349 0.19031 0.0
C987 C 0.98738 0.52102 0.18003 0.0
C988 C 1e-05 0.51908 0.18064 0.0
C989 C 0.00135 0.51015 0.19145 0.0
C990 C 0.00149 0.51033 0.30444 0.0
C991 C -0.00222 0.41961 0.19885 0.0
H992 H 0.50414 0.47773 0.33088 0.0
H993 H 0.41736 0.36496 0.1955 0.0
H994 H 0.50777 0.49043 0.24996 0.0
H995 H 0.52752 0.51576 0.26015 0.0
H996 H 0.56181 0.50537 0.24749 0.0
H997 H 0.5417 0.47954 0.23777 0.0
H998 H 0.48563 0.46734 0.26569 0.0
H999 H 0.49007 0.47275 0.2934 0.0
H1000 H 0.52532 0.46146 0.29261 0.0
H1001 H 0.52061 0.45589 0.26489 0.0
H1002 H 0.46147 0.44679 0.24093 0.0
H1003 H 0.44091 0.43514 0.25826 0.0
H1004 H 0.46211 0.41254 0.27899 0.0
H1005 H 0.48285 0.42436 0.26149 0.0
H1006 H 0.46136 0.44081 0.20736 0.0
H1007 H 0.4381 0.41843 0.19599 0.0
H1008 H 0.45185 0.38886 0.21549 0.0
H1009 H 0.47517 0.41136 0.22664 0.0
H1010 H 0.49085 0.46847 0.19483 0.0
H1011 H 0.4826 0.46243 0.16789 0.0
H1012 H 0.48247 0.42002 0.16966 0.0
H1013 H 0.49219 0.42698 0.19634 0.0
H1014 H 0.51333 0.49286 0.21642 0.0
H1015 H 0.53001 0.51121 0.19887 0.0
H1016 H 0.54405 0.47969 0.18349 0.0
H1017 H 0.52767 0.46156 0.20166 0.0
O1018 O 0.50252 0.47546 0.31992 0.0
O1019 O 0.52057 0.46958 0.31888 0.0
O1020 O 0.41994 0.38972 0.19007 0.0
O1021 O 0.42642 0.37401 0.19995 0.0
C1022 C 0.51089 0.4679 0.23676 0.0
C1023 C 0.50003 0.45772 0.24647 0.0
C1024 C 0.48652 0.44474 0.24015 0.0
C1025 C 0.48437 0.4413 0.22418 0.0
C1026 C 0.49549 0.45116 0.21443 0.0
C1027 C 0.50866 0.46462 0.22072 0.0
C1028 C 0.52329 0.48308 0.24329 0.0
C1029 C 0.51953 0.49351 0.24958 0.0
C1030 C 0.53086 0.50808 0.2552 0.0
C1031 C 0.54626 0.51266 0.25447 0.0
C1032 C 0.55005 0.50214 0.24828 0.0
C1033 C 0.53862 0.48744 0.24269 0.0
C1034 C 0.50265 0.46101 0.26332 0.0
C1035 C 0.49418 0.46588 0.27155 0.0
C1036 C 0.49681 0.46904 0.28737 0.0
C1037 C 0.50802 0.46749 0.29524 0.0
C1038 C 0.51656 0.46273 0.28691 0.0
C1039 C 0.5139 0.45954 0.27109 0.0
C1040 C 0.4736 0.43637 0.24994 0.0
C1041 C 0.4616 0.43918 0.24908 0.0
C1042 C 0.44996 0.43265 0.25906 0.0
C1043 C 0.45004 0.42309 0.27004 0.0
C1044 C 0.46182 0.41986 0.2706 0.0
C1045 C 0.47362 0.42657 0.26066 0.0
C1046 C 0.47001 0.4277 0.21768 0.0
C1047 C 0.45935 0.42949 0.2091 0.0
C1048 C 0.44606 0.41669 0.20266 0.0
C1049 C 0.44315 0.40184 0.20478 0.0
C1050 C 0.45376 0.40011 0.21359 0.0
C1051 C 0.46707 0.41293 0.22 0.0
C1052 C 0.49228 0.44825 0.19757 0.0
C1053 C 0.4896 0.45815 0.18927 0.0
C1054 C 0.48455 0.45449 0.1739 0.0
C1055 C 0.48154 0.44056 0.16658 0.0
C1056 C 0.48478 0.43091 0.1748 0.0
C1057 C 0.49024 0.4348 0.19011 0.0
C1058 C 0.5194 0.47594 0.21044 0.0
C1059 C 0.52022 0.49003 0.20948 0.0
C1060 C 0.52961 0.50041 0.19929 0.0
C1061 C 0.53828 0.49686 0.18968 0.0
C1062 C 0.53763 0.48282 0.19083 0.0
C1063 C 0.52824 0.47243 0.20112 0.0
C1064 C 0.5108 0.47089 0.31204 0.0
C1065 C 0.42912 0.3882 0.19781 0.0
H1066 H 0.51846 0.01051 0.34143 0.0
H1067 H 0.39803 0.98274 0.21876 0.0
H1068 H 0.53087 0.02775 0.26189 0.0
H1069 H 0.55269 0.02723 0.27317 0.0
H1070 H 0.53472 0.98158 0.2522 0.0
H1071 H 0.51314 0.98234 0.24082 0.0
H1072 H 0.50312 0.02348 0.28141 0.0
H1073 H 0.51005 0.02215 0.30799 0.0
H1074 H 0.50428 0.97773 0.29643 0.0
H1075 H 0.49718 0.97911 0.26995 0.0
H1076 H 0.47422 0.02144 0.2653 0.0
H1077 H 0.45499 0.01672 0.2836 0.0
H1078 H 0.44534 0.97034 0.28607 0.0
H1079 H 0.46485 0.97534 0.26806 0.0
H1080 H 0.4736 0.02456 0.22868 0.0
H1081 H 0.44948 0.02263 0.22131 0.0
H1082 H 0.42553 0.97485 0.23081 0.0
H1083 H 0.44975 0.9769 0.23797 0.0
H1084 H 0.49983 0.028 0.209 0.0
H1085 H 0.491 0.02871 0.18293 0.0
H1086 H 0.45739 0.98051 0.18255 0.0
H1087 H 0.46653 0.97987 0.20838 0.0
H1088 H 0.52839 0.02982 0.22354 0.0
H1089 H 0.54438 0.03166 0.20259 0.0
H1090 H 0.51456 0.98332 0.19029 0.0
H1091 H 0.49842 0.98182 0.21086 0.0
O1092 O 0.51558 0.01075 0.33088 0.0
O1093 O 0.51261 0.98801 0.3243 0.0
O1094 O 0.42058 0.00842 0.21683 0.0
O1095 O 0.40773 0.98383 0.22161 0.0
C1096 C 0.506 0.00427 0.24619 0.0
C1097 C 0.49582 0.00241 0.25759 0.0
C1098 C 0.48186 0.00128 0.25356 0.0
C1099 C 0.47808 0.00207 0.23816 0.0
C1100 C 0.48816 0.00371 0.22675 0.0
C1101 C 0.50208 0.00474 0.23075 0.0
C1102 C 0.52046 0.00508 0.25056 0.0
C1103 C 0.53189 0.01781 0.25944 0.0
C1104 C 0.54426 0.01744 0.26596 0.0
C1105 C 0.54538 0.00431 0.26369 0.0
C1106 C 0.53432 0.99194 0.25403 0.0
C1107 C 0.52197 0.99233 0.24751 0.0
C1108 C 0.4997 0.00142 0.27377 0.0
C1109 C 0.50329 0.01344 0.28467 0.0
C1110 C 0.50728 0.01267 0.29983 0.0
C1111 C 0.50776 -0.00015 0.30433 0.0
C1112 C 0.50405 0.98777 0.29335 0.0
C1113 C 0.50002 0.98855 0.27822 0.0
C1114 C 0.4709 -0.00127 0.26538 0.0
C1115 C 0.46802 0.01032 0.26992 0.0
C1116 C 0.45697 0.00756 0.2803 0.0
C1117 C 0.44855 0.99312 0.28626 0.0
C1118 C 0.45173 0.98165 0.28189 0.0
C1119 C 0.46283 0.98445 0.27155 0.0
C1120 C 0.4634 0.00089 0.23389 0.0
C1121 C 0.46313 0.01369 0.22914 0.0
C1122 C 0.44934 0.01255 0.22495 0.0
C1123 C 0.43556 -0.00143 0.22548 0.0
C1124 C 0.43591 0.98578 0.23028 0.0
C1125 C 0.44972 0.98692 0.23442 0.0
C1126 C 0.48379 0.00389 0.21053 0.0
C1127 C 0.49072 0.01757 0.20315 0.0
C1128 C 0.48558 0.01798 0.18834 0.0
C1129 C 0.47346 0.00468 0.1807 0.0
C1130 C 0.46686 0.99091 0.18803 0.0
C1131 C 0.472 0.99052 0.2028 0.0
C1132 C 0.51225 0.00571 0.21864 0.0
C1133 C 0.52539 0.01965 0.21631 0.0
C1134 C 0.53454 0.02064 0.20439 0.0
C1135 C 0.53075 0.00765 0.19466 0.0
C1136 C 0.51769 0.99362 0.19732 0.0
C1137 C 0.5085 0.9927 0.20914 0.0
C1138 C 0.51212 -0.00088 0.32041 0.0
C1139 C 0.42088 -0.0027 0.22104 0.0
H1140 H 0.50511 0.02417 0.72009 0.0
H1141 H 0.5794 0.96265 0.82673 0.0
H1142 H 0.50004 0.01749 0.79797 0.0
H1143 H 0.48023 0.02107 0.78679 0.0
H1144 H 0.44676 0.97416 0.79441 0.0
H1145 H 0.46701 0.97045 0.80457 0.0
H1146 H 0.52552 0.01818 0.78095 0.0
H1147 H 0.52115 0.0247 0.75555 0.0
H1148 H 0.48018 0.98028 0.74828 0.0
H1149 H 0.48476 0.97386 0.77364 0.0
H1150 H 0.54974 0.0119 0.80015 0.0
H1151 H 0.5685 0.01575 0.78155 0.0
H1152 H 0.53384 0.97744 0.75286 0.0
H1153 H 0.51518 0.97306 0.77194 0.0
H1154 H 0.5472 0.00517 0.83256 0.0
H1155 H 0.56805 0.00111 0.83956 0.0
H1156 H 0.54621 0.9588 0.81102 0.0
H1157 H 0.52533 0.96289 0.80428 0.0
H1158 H 0.52187 0.00657 0.84935 0.0
H1159 H 0.53018 0.00438 0.87498 0.0
H1160 H 0.51709 0.95752 0.86247 0.0
H1161 H 0.50911 0.96 0.8367 0.0
H1162 H 0.49532 0.01035 0.83269 0.0
H1163 H 0.47867 0.00883 0.85284 0.0
H1164 H 0.46418 0.96122 0.85652 0.0
H1165 H 0.48061 0.96273 0.83613 0.0
O1166 O 0.50685 0.02121 0.72992 0.0
O1167 O 0.48634 -0.00207 0.72642 0.0
O1168 O 0.58199 0.98632 0.83877 0.0
O1169 O 0.57129 0.96453 0.82417 0.0
C1170 C 0.49754 0.99094 0.80608 0.0
C1171 C 0.50764 0.99198 0.79491 0.0
C1172 C 0.51989 0.98993 0.79886 0.0
C1173 C 0.52194 0.98663 0.81391 0.0
C1174 C 0.51189 0.98564 0.82509 0.0
C1175 C 0.49963 0.9877 0.82115 0.0
C1176 C 0.48501 0.99365 0.80187 0.0
C1177 C 0.48841 0.00802 0.79731 0.0
C1178 C 0.47699 0.01007 0.79105 0.0
C1179 C 0.46181 -0.00213 0.78954 0.0
C1180 C 0.45834 0.98372 0.79504 0.0
C1181 C 0.46985 0.98161 0.80105 0.0
C1182 C 0.50548 0.99554 0.77911 0.0
C1183 C 0.51571 0.00982 0.77377 0.0
C1184 C 0.51314 0.01353 0.7593 0.0
C1185 C 0.50028 0.00303 0.7499 0.0
C1186 C 0.49018 0.98864 0.75522 0.0
C1187 C 0.49277 0.98493 0.76969 0.0
C1188 C 0.53113 0.99212 0.78746 0.0
C1189 C 0.54623 0.00416 0.78999 0.0
C1190 C 0.55689 0.00638 0.77938 0.0
C1191 C 0.55252 -0.00316 0.7659 0.0
C1192 C 0.53739 0.98491 0.76322 0.0
C1193 C 0.52678 0.98244 0.77405 0.0
C1194 C 0.53471 0.98427 0.818 0.0
C1195 C 0.5469 0.99499 0.82791 0.0
C1196 C 0.55882 0.99266 0.83185 0.0
C1197 C 0.55878 0.97961 0.82586 0.0
C1198 C 0.54658 0.96896 0.81584 0.0
C1199 C 0.53465 0.97127 0.81195 0.0
C1200 C 0.51493 0.98346 0.84117 0.0
C1201 C 0.52055 0.99576 0.85225 0.0
C1202 C 0.52527 0.99445 0.86691 0.0
C1203 C 0.5244 0.98079 0.87079 0.0
C1204 C 0.51816 0.96829 0.8598 0.0
C1205 C 0.51349 0.96962 0.84512 0.0
C1206 C 0.48913 0.98664 0.83294 0.0
C1207 C 0.48839 -0.00045 0.8377 0.0
C1208 C 0.4789 -0.00134 0.84918 0.0
C1209 C 0.47017 0.9849 0.8562 0.0
C1210 C 0.47089 0.97198 0.85136 0.0
C1211 C 0.48022 0.97282 0.83974 0.0
C1212 C 0.49737 0.00716 0.7347 0.0
C1213 C 0.57141 0.97708 0.83002 0.0
H1214 H 0.97157 0.46965 0.74015 0.0
H1215 H 0.03263 0.60792 0.85456 0.0
H1216 H 0.98232 0.47196 0.82637 0.0
H1217 H 0.97643 0.44639 0.81744 0.0
H1218 H 0.02426 0.46375 0.8126 0.0
H1219 H 0.03001 0.48919 0.82236 0.0
H1220 H 0.97942 0.49337 0.80384 0.0
H1221 H 0.97172 0.48233 0.77746 0.0
H1222 H 0.01772 0.49344 0.77055 0.0
H1223 H 0.02526 0.50455 0.79693 0.0
H1224 H 0.98324 0.52147 0.82042 0.0
H1225 H 0.97642 0.53491 0.80238 0.0
H1226 H 0.01908 0.55089 0.78139 0.0
H1227 H 0.02584 0.53739 0.79961 0.0
H1228 H 0.99382 0.53169 0.85392 0.0
H1229 H 0.99635 0.55628 0.86168 0.0
H1230 H 0.03848 0.57965 0.83907 0.0
H1231 H 0.03588 0.55497 0.83155 0.0
H1232 H 0.99594 0.50834 0.87131 0.0
H1233 H -0.0013 0.52138 0.89622 0.0
H1234 H 0.04508 0.55508 0.88782 0.0
H1235 H 0.04191 0.54216 0.86259 0.0
H1236 H 0.99157 0.47832 0.85627 0.0
H1237 H 0.99427 0.46227 0.87433 0.0
H1238 H 0.04285 0.49363 0.87827 0.0
H1239 H 0.04002 0.50927 0.85951 0.0
O1240 O 0.97487 0.47414 0.75052 0.0
O1241 O -0.00132 0.48009 0.74756 0.0
O1242 O 0.00969 0.58548 0.86319 0.0
O1243 O 0.03135 0.59804 0.85164 0.0
C1244 C 0.00976 0.49796 0.82937 0.0
C1245 C 0.00749 0.50631 0.81827 0.0
C1246 C 0.00907 0.52057 0.82254 0.0
C1247 C 0.01331 0.52667 0.83783 0.0
C1248 C 0.01572 0.51838 0.84895 0.0
C1249 C 0.01387 0.50396 0.84474 0.0
C1250 C 0.00657 0.48235 0.825 0.0
C1251 C 0.99151 0.47015 0.82358 0.0
C1252 C 0.98819 0.45559 0.81834 0.0
C1253 C -0.00015 0.45301 0.8141 0.0
C1254 C 0.015 0.46525 0.81591 0.0
C1255 C 0.01833 0.47981 0.82139 0.0
C1256 C 0.0029 0.4998 0.80222 0.0
C1257 C 0.98782 0.49348 0.79656 0.0
C1258 C 0.98345 0.48715 0.78152 0.0
C1259 C 0.99411 0.48701 0.77189 0.0
C1260 C 0.00923 0.49337 0.77765 0.0
C1261 C 0.01357 0.49972 0.7927 0.0
C1262 C 0.00503 0.52853 0.8113 0.0
C1263 C 0.99108 0.52784 0.81188 0.0
C1264 C 0.98717 0.53542 0.80152 0.0
C1265 C -0.0028 0.5439 0.79044 0.0
C1266 C 0.01118 0.54451 0.78986 0.0
C1267 C 0.01503 0.5368 0.80019 0.0
C1268 C 0.01473 0.54159 0.84229 0.0
C1269 C 0.00362 0.54214 0.85073 0.0
C1270 C 0.00507 0.5562 0.8551 0.0
C1271 C 0.01764 0.56995 0.85102 0.0
C1272 C 0.02868 0.5693 0.84243 0.0
C1273 C 0.02722 0.55523 0.8381 0.0
C1274 C 0.01872 0.52432 0.86518 0.0
C1275 C 0.00682 0.5183 0.87505 0.0
C1276 C 0.00845 0.5258 0.88931 0.0
C1277 C 0.02209 0.53941 0.89402 0.0
C1278 C 0.03433 0.54482 0.88445 0.0
C1279 C 0.03263 0.53736 0.87012 0.0
C1280 C 0.01561 0.49485 0.85646 0.0
C1281 C 0.0028 0.48167 0.86098 0.0
C1282 C 0.00437 0.47261 0.87144 0.0
C1283 C 0.0188 0.47665 0.87782 0.0
C1284 C 0.03161 0.49006 0.87345 0.0
C1285 C 0.03002 0.49907 0.86285 0.0
C1286 C 0.98942 0.48022 0.75593 0.0
C1287 C 0.01926 0.58491 0.85567 0.0
H1288 H 0.48338 0.52501 0.7175 0.0
H1289 H 0.58982 0.6105 0.86859 0.0
H1290 H 0.46012 0.51426 0.81031 0.0
H1291 H 0.43995 0.48877 0.80017 0.0
H1292 H 0.474 0.47859 0.78592 0.0
H1293 H 0.49384 0.50347 0.79699 0.0
H1294 H 0.48198 0.53755 0.783 0.0
H1295 H 0.47903 0.53304 0.75514 0.0
H1296 H 0.51577 0.52389 0.75619 0.0
H1297 H 0.51845 0.52821 0.78404 0.0
H1298 H 0.51796 0.56912 0.78819 0.0
H1299 H 0.53881 0.58215 0.77112 0.0
H1300 H 0.56274 0.5629 0.79329 0.0
H1301 H 0.54184 0.54971 0.8099 0.0
H1302 H 0.52534 0.58197 0.82522 0.0
H1303 H 0.54798 0.60408 0.838 0.0
H1304 H 0.56211 0.57392 0.85518 0.0
H1305 H 0.53956 0.55197 0.84223 0.0
H1306 H 0.50482 0.5635 0.85337 0.0
H1307 H 0.51341 0.56989 0.88052 0.0
H1308 H 0.52032 0.53152 0.88051 0.0
H1309 H 0.51178 0.52523 0.85341 0.0
H1310 H 0.47386 0.53316 0.84582 0.0
H1311 H 0.45562 0.5154 0.86309 0.0
H1312 H 0.46629 0.48118 0.8483 0.0
H1313 H 0.48493 0.49914 0.83153 0.0
O1314 O 0.48471 0.52669 0.72854 0.0
O1315 O 0.50375 0.52223 0.7297 0.0
O1316 O 0.57263 0.61696 0.85502 0.0
O1317 O 0.58077 0.602 0.86345 0.0
C1318 C 0.49085 0.52564 0.81152 0.0
C1319 C 0.50223 0.53618 0.80244 0.0
C1320 C 0.51534 0.54915 0.80948 0.0
C1321 C 0.51678 0.55196 0.82551 0.0
C1322 C 0.50524 0.54167 0.83457 0.0
C1323 C 0.49229 0.52849 0.82761 0.0
C1324 C 0.47846 0.51077 0.80431 0.0
C1325 C 0.46316 0.50648 0.80497 0.0
C1326 C 0.45167 0.49195 0.79908 0.0
C1327 C 0.45532 0.48154 0.7923 0.0
C1328 C 0.47071 0.48612 0.79134 0.0
C1329 C 0.48211 0.50047 0.79743 0.0
C1330 C 0.50053 0.53337 0.78552 0.0
C1331 C 0.48937 0.53456 0.77718 0.0
C1332 C 0.48772 0.53199 0.76127 0.0
C1333 C 0.4972 0.52816 0.75342 0.0
C1334 C 0.50832 0.52688 0.76186 0.0
C1335 C 0.50992 0.52941 0.77777 0.0
C1336 C 0.52845 0.55853 0.80028 0.0
C1337 C 0.52781 0.56791 0.78943 0.0
C1338 C 0.53971 0.57534 0.77975 0.0
C1339 C 0.5523 0.57339 0.78079 0.0
C1340 C 0.55307 0.5644 0.79205 0.0
C1341 C 0.54124 0.55702 0.80167 0.0
C1342 C 0.53076 0.56539 0.8329 0.0
C1343 C 0.53338 0.58019 0.8317 0.0
C1344 C 0.54629 0.59278 0.83904 0.0
C1345 C 0.55683 0.59076 0.84767 0.0
C1346 C 0.55422 0.57589 0.84868 0.0
C1347 C 0.54133 0.56333 0.84132 0.0
C1348 C 0.5077 0.54393 0.85146 0.0
C1349 C 0.50784 0.55627 0.85936 0.0
C1350 C 0.5127 0.55988 0.87483 0.0
C1351 C 0.51762 0.55124 0.88254 0.0
C1352 C 0.51671 0.53841 0.87478 0.0
C1353 C 0.51173 0.53475 0.85937 0.0
C1354 C 0.48063 0.5174 0.83734 0.0
C1355 C 0.47222 0.52181 0.84628 0.0
C1356 C 0.46183 0.5117 0.85609 0.0
C1357 C 0.45953 0.49694 0.85687 0.0
C1358 C 0.46773 0.49243 0.84769 0.0
C1359 C 0.47834 0.50265 0.83814 0.0
C1360 C 0.49547 0.5255 0.73652 0.0
C1361 C 0.57052 0.60406 0.85558 0.0
H1362 H 0.62203 0.82506 0.65863 0.0
H1363 H 0.64238 0.71934 0.55124 0.0
H1364 H 0.6103 0.82107 0.57721 0.0
H1365 H 0.61626 0.84687 0.58596 0.0
H1366 H 0.66067 0.86577 0.56805 0.0
H1367 H 0.65489 0.84005 0.56001 0.0
H1368 H 0.60829 0.79345 0.59776 0.0
H1369 H 0.60976 0.80332 0.62411 0.0
H1370 H 0.6558 0.83982 0.61876 0.0
H1371 H 0.65423 0.82971 0.59251 0.0
H1372 H 0.61035 0.76362 0.5856 0.0
H1373 H 0.61674 0.7499 0.60379 0.0
H1374 H 0.66281 0.78841 0.60914 0.0
H1375 H 0.65619 0.80202 0.59137 0.0
H1376 H 0.60595 0.75783 0.54766 0.0
H1377 H 0.60591 0.73393 0.54331 0.0
H1378 H 0.65306 0.7571 0.55987 0.0
H1379 H 0.653 0.78096 0.5639 0.0
H1380 H 0.60697 0.78037 0.52344 0.0
H1381 H 0.60939 0.77134 0.49779 0.0
H1382 H 0.65642 0.78684 0.50988 0.0
H1383 H 0.65394 0.796 0.53519 0.0
H1384 H 0.60582 0.81001 0.53757 0.0
H1385 H 0.60661 0.82576 0.51697 0.0
H1386 H 0.65429 0.84168 0.51313 0.0
H1387 H 0.65305 0.82525 0.53307 0.0
O1388 O 0.62171 0.82131 0.6482 0.0
O1389 O 0.64532 0.83989 0.64483 0.0
O1390 O 0.61804 0.7174 0.54375 0.0
O1391 O 0.64214 0.72867 0.55263 0.0
C1392 C 0.62972 0.81317 0.56482 0.0
C1393 C 0.63005 0.80491 0.5772 0.0
C1394 C 0.62996 0.79114 0.57438 0.0
C1395 C 0.62923 0.78543 0.5592 0.0
C1396 C 0.62889 0.79368 0.54685 0.0
C1397 C 0.62904 0.80748 0.54965 0.0
C1398 C 0.63213 0.82871 0.5679 0.0
C1399 C 0.6212 0.83084 0.57497 0.0
C1400 C 0.62461 0.84556 0.57991 0.0
C1401 C 0.639 0.85832 0.57783 0.0
C1402 C 0.64959 0.85615 0.57005 0.0
C1403 C 0.64622 0.84148 0.56523 0.0
C1404 C 0.63109 0.81095 0.5932 0.0
C1405 C 0.61868 0.80356 0.60232 0.0
C1406 C 0.61955 0.80924 0.61736 0.0
C1407 C 0.63288 0.8224 0.62353 0.0
C1408 C 0.64535 0.8297 0.61435 0.0
C1409 C 0.64447 0.82398 0.59934 0.0
C1410 C 0.63281 0.78379 0.58722 0.0
C1411 C 0.62169 0.76918 0.59105 0.0
C1412 C 0.62541 0.76135 0.60133 0.0
C1413 C 0.64032 0.76801 0.60786 0.0
C1414 C 0.65116 0.783 0.60457 0.0
C1415 C 0.64743 0.79082 0.59437 0.0
C1416 C 0.62943 0.77107 0.55621 0.0
C1417 C 0.61626 0.75772 0.55027 0.0
C1418 C 0.61628 0.74409 0.54783 0.0
C1419 C 0.62948 0.74359 0.55132 0.0
C1420 C 0.6427 0.75706 0.55712 0.0
C1421 C 0.64269 0.7707 0.55947 0.0
C1422 C 0.63027 0.78876 0.53112 0.0
C1423 C 0.61779 0.78189 0.52043 0.0
C1424 C 0.61918 0.7767 0.50586 0.0
C1425 C 0.63311 0.77842 0.50181 0.0
C1426 C 0.64561 0.78556 0.51254 0.0
C1427 C 0.6442 0.79069 0.52704 0.0
C1428 C 0.62936 0.81649 0.53673 0.0
C1429 C 0.61635 0.81679 0.5321 0.0
C1430 C 0.61689 0.82591 0.52043 0.0
C1431 C 0.63054 0.83509 0.51336 0.0
C1432 C 0.64351 0.83458 0.51803 0.0
C1433 C 0.64287 0.82528 0.52951 0.0
C1434 C 0.63374 0.82843 0.63948 0.0
C1435 C 0.62948 0.72908 0.54897 0.0
H1436 H 0.16893 0.81208 0.67157 0.0
H1437 H 0.09084 0.69344 0.54033 0.0
H1438 H 0.17662 0.82349 0.59183 0.0
H1439 H 0.19661 0.84883 0.6018 0.0
H1440 H 0.23049 0.8381 0.58841 0.0
H1441 H 0.21019 0.81229 0.57903 0.0
H1442 H 0.15207 0.79845 0.60605 0.0
H1443 H 0.15555 0.80483 0.63365 0.0
H1444 H 0.19395 0.79826 0.63552 0.0
H1445 H 0.19022 0.7917 0.60792 0.0
H1446 H 0.12756 0.77301 0.58031 0.0
H1447 H 0.10681 0.75906 0.59703 0.0
H1448 H 0.13484 0.74716 0.62351 0.0
H1449 H 0.1555 0.76053 0.60618 0.0
H1450 H 0.12987 0.76977 0.5483 0.0
H1451 H 0.10764 0.74593 0.53768 0.0
H1452 H 0.12491 0.72019 0.55944 0.0
H1453 H 0.1472 0.74413 0.56983 0.0
H1454 H 0.15872 0.8 0.53696 0.0
H1455 H 0.15097 0.79425 0.50991 0.0
H1456 H 0.15333 0.75312 0.511 0.0
H1457 H 0.16254 0.75986 0.53786 0.0
H1458 H 0.18179 0.82537 0.55812 0.0
H1459 H 0.19769 0.84339 0.53993 0.0
H1460 H 0.21157 0.81185 0.52413 0.0
H1461 H 0.19615 0.79416 0.54303 0.0
O1462 O 0.16774 0.80948 0.66066 0.0
O1463 O 0.18746 0.80605 0.661 0.0
O1464 O 0.09119 0.71682 0.53334 0.0
O1465 O 0.09953 0.70305 0.54435 0.0
C1466 C 0.17947 0.80074 0.57847 0.0
C1467 C 0.16868 0.79053 0.58825 0.0
C1468 C 0.15567 0.77692 0.58203 0.0
C1469 C 0.15382 0.77316 0.56609 0.0
C1470 C 0.16457 0.78337 0.55627 0.0
C1471 C 0.17739 0.7972 0.56247 0.0
C1472 C 0.19193 0.81598 0.58486 0.0
C1473 C 0.18834 0.8265 0.59126 0.0
C1474 C 0.19981 0.84107 0.59675 0.0
C1475 C 0.21517 0.84557 0.59576 0.0
C1476 C 0.21877 0.83495 0.58945 0.0
C1477 C 0.20722 0.82026 0.58403 0.0
C1478 C 0.1708 0.79446 0.60502 0.0
C1479 C 0.16116 0.79828 0.61246 0.0
C1480 C 0.16321 0.80198 0.62822 0.0
C1481 C 0.17501 0.80203 0.6368 0.0
C1482 C 0.18473 0.7983 0.62926 0.0
C1483 C 0.18264 0.79457 0.6135 0.0
C1484 C 0.143 0.76765 0.59189 0.0
C1485 C 0.12914 0.76708 0.58946 0.0
C1486 C 0.11735 0.75921 0.59902 0.0
C1487 C 0.11933 0.75207 0.6114 0.0
C1488 C 0.13314 0.75257 0.61393 0.0
C1489 C 0.14488 0.76019 0.6041 0.0
C1490 C 0.14023 0.75868 0.55969 0.0
C1491 C 0.12889 0.75898 0.55066 0.0
C1492 C 0.11617 0.74534 0.54466 0.0
C1493 C 0.11452 0.73114 0.54769 0.0
C1494 C 0.12585 0.73091 0.55686 0.0
C1495 C 0.13858 0.74456 0.56282 0.0
C1496 C 0.16131 0.78042 0.53941 0.0
C1497 C 0.15805 0.79001 0.53126 0.0
C1498 C 0.15331 0.78651 0.51581 0.0
C1499 C 0.15118 0.77302 0.50824 0.0
C1500 C 0.15494 0.76366 0.51634 0.0
C1501 C 0.1601 0.76742 0.53175 0.0
C1502 C 0.18793 0.80851 0.55204 0.0
C1503 C 0.18854 0.8225 0.55099 0.0
C1504 C 0.19746 0.83268 0.54041 0.0
C1505 C 0.2058 0.82901 0.53045 0.0
C1506 C 0.20541 0.8151 0.53172 0.0
C1507 C 0.19656 0.80495 0.54245 0.0
C1508 C 0.17716 0.80597 0.65354 0.0
C1509 C 0.10103 0.71661 0.54134 0.0
H1510 H 0.20381 0.37332 0.68089 0.0
H1511 H 0.08449 0.35039 0.55941 0.0
H1512 H 0.21601 0.38351 0.60222 0.0
H1513 H 0.23485 0.37761 0.61215 0.0
H1514 H 0.21091 0.33366 0.58646 0.0
H1515 H 0.19182 0.33935 0.57724 0.0
H1516 H 0.18899 0.38563 0.62031 0.0
H1517 H 0.19599 0.38472 0.64698 0.0
H1518 H 0.18771 0.33908 0.63681 0.0
H1519 H 0.18054 0.34006 0.61024 0.0
H1520 H 0.15679 0.38258 0.60408 0.0
H1521 H 0.13646 0.37646 0.62134 0.0
H1522 H 0.13247 0.33271 0.62759 0.0
H1523 H 0.15178 0.33843 0.60938 0.0
H1524 H 0.16015 0.38817 0.56844 0.0
H1525 H 0.13678 0.38786 0.56121 0.0
H1526 H 0.11042 0.34039 0.57154 0.0
H1527 H 0.13388 0.34083 0.57857 0.0
H1528 H 0.18476 0.38885 0.54775 0.0
H1529 H 0.17589 0.38904 0.52153 0.0
H1530 H 0.14081 0.34148 0.52288 0.0
H1531 H 0.14946 0.34162 0.54912 0.0
H1532 H 0.21453 0.38598 0.56368 0.0
H1533 H 0.22917 0.38451 0.54275 0.0
H1534 H 0.19099 0.34012 0.52712 0.0
H1535 H 0.17686 0.34141 0.54839 0.0
O1536 O 0.20094 0.37341 0.67029 0.0
O1537 O 0.19661 0.35 0.66445 0.0
O1538 O 0.10798 0.37523 0.55701 0.0
O1539 O 0.0939 0.35084 0.56223 0.0
C1540 C 0.18957 0.36401 0.58536 0.0
C1541 C 0.18025 0.36369 0.59713 0.0
C1542 C 0.16674 0.36369 0.59348 0.0
C1543 C 0.16293 0.36474 0.57815 0.0
C1544 C 0.17235 0.36529 0.56646 0.0
C1545 C 0.18555 0.36471 0.57 0.0
C1546 C 0.20252 0.36184 0.58906 0.0
C1547 C 0.21502 0.37273 0.59856 0.0
C1548 C 0.22579 0.36936 0.60416 0.0
C1549 C 0.22426 0.35508 0.60025 0.0
C1550 C 0.21225 0.34464 0.58993 0.0
C1551 C 0.20144 0.34795 0.58447 0.0
C1552 C 0.1844 0.36297 0.61332 0.0
C1553 C 0.18868 0.37544 0.62388 0.0
C1554 C 0.19269 0.3749 0.6391 0.0
C1555 C 0.19246 0.36185 0.64402 0.0
C1556 C 0.18806 0.34933 0.6334 0.0
C1557 C 0.18401 0.34987 0.6182 0.0
C1558 C 0.15577 0.36095 0.60542 0.0
C1559 C 0.1515 0.37169 0.60922 0.0
C1560 C 0.13996 0.3682 0.61921 0.0
C1561 C 0.13265 0.354 0.62582 0.0
C1562 C 0.1375 0.3436 0.62247 0.0
C1563 C 0.14877 0.34695 0.61225 0.0
C1564 C 0.14869 0.36456 0.57411 0.0
C1565 C 0.14931 0.37773 0.56914 0.0
C1566 C 0.13595 0.37752 0.56503 0.0
C1567 C 0.12172 0.3641 0.56582 0.0
C1568 C 0.12117 0.35092 0.57082 0.0
C1569 C 0.13455 0.35114 0.57489 0.0
C1570 C 0.16765 0.36527 0.55031 0.0
C1571 C 0.17519 0.3785 0.5423 0.0
C1572 C 0.17015 0.37855 0.52733 0.0
C1573 C 0.15754 0.36531 0.52015 0.0
C1574 C 0.15032 0.35197 0.52816 0.0
C1575 C 0.15529 0.35198 0.54311 0.0
C1576 C 0.19459 0.36387 0.55747 0.0
C1577 C 0.20942 0.37592 0.55576 0.0
C1578 C 0.2177 0.3751 0.54374 0.0
C1579 C 0.21127 0.36219 0.53322 0.0
C1580 C 0.19642 0.35012 0.5351 0.0
C1581 C 0.18823 0.35091 0.54715 0.0
C1582 C 0.19678 0.36134 0.66018 0.0
C1583 C 0.1075 0.36379 0.56142 0.0
H1584 H 0.97362 0.35993 0.05696 0.0
H1585 H 0.96874 0.37442 0.07667 0.0
H1586 H 0.01367 0.41336 0.07302 0.0
H1587 H 0.01855 0.39907 0.05323 0.0
H1588 H 0.98231 0.38664 0.1043 0.0
H1589 H 0.01321 0.44602 0.07846 0.0
H1590 H 0.01821 0.4564 0.05304 0.0
H1591 H 0.97861 0.41559 0.03345 0.0
H1592 H 0.97324 0.40505 0.05878 0.0
H1593 H 0.0057 0.44608 0.16058 0.0
H1594 H 0.00421 0.42981 0.13861 0.0
H1595 H 0.97043 0.43655 0.11596 0.0
H1596 H 0.97231 0.45346 0.13782 0.0
H1597 H 0.99094 0.43835 0.09646 0.0
H1598 H 0.95978 0.40326 0.13196 0.0
H1599 H 0.95328 0.39245 0.1571 0.0
H1600 H 0.98963 0.38319 0.15644 0.0
H1601 H 0.99649 0.39415 0.13138 0.0
C1602 C 0.98244 0.37159 0.06035 0.0
C1603 C 0.99645 0.37838 0.05351 0.0
C1604 C 0.97964 0.37984 0.07161 0.0
C1605 C 0.99076 0.39503 0.07616 0.0
C1606 C 0.00482 0.40175 0.06948 0.0
C1607 C 0.00762 0.39353 0.05823 0.0
C1608 C 0.98791 0.40381 0.08816 0.0
C1609 C 0.9841 0.3979 0.10256 0.0
C1610 C 0.98989 0.41835 0.08578 0.0
C1611 C 0.99289 0.4247 0.07052 0.0
C1612 C 0.00552 0.43929 0.06875 0.0
C1613 C 0.00843 0.4452 0.05435 0.0
C1614 C -0.00124 0.43664 0.04163 0.0
C1615 C 0.98612 0.42218 0.0433 0.0
C1616 C 0.98315 0.41623 0.05768 0.0
C1617 C -0.00188 0.44433 0.15084 0.0
C1618 C 0.9892 0.45117 0.15089 0.0
C1619 C -0.00287 0.43485 0.13836 0.0
C1620 C 0.98704 0.43179 0.12575 0.0
C1621 C 0.97824 0.43872 0.12563 0.0
C1622 C 0.97925 0.44829 0.13814 0.0
C1623 C 0.98589 0.42141 0.11271 0.0
C1624 C 0.98895 0.42701 0.09813 0.0
C1625 C 0.98294 0.40647 0.11485 0.0
C1626 C 0.97869 0.3996 0.12981 0.0
C1627 C 0.96643 0.39898 0.1372 0.0
C1628 C 0.96268 0.39283 0.15144 0.0
C1629 C 0.97104 0.38714 0.15836 0.0
C1630 C 0.98315 0.38759 0.15105 0.0
C1631 C 0.98696 0.39375 0.13682 0.0
H1632 H 0.96812 0.38238 0.16939 0.0
H1633 H 0.00104 0.44123 0.03049 0.0
H1634 H 0.58099 0.59001 0.0889 0.0
H1635 H 0.57296 0.57269 0.10935 0.0
H1636 H 0.61555 0.57386 0.11004 0.0
H1637 H 0.62375 0.59127 0.08926 0.0
H1638 H 0.59074 0.54448 0.11188 0.0
H1639 H 0.61046 0.59346 0.13786 0.0
H1640 H 0.6142 0.6192 0.14279 0.0
H1641 H 0.56676 0.59939 0.14996 0.0
H1642 H 0.56268 0.57353 0.14484 0.0
H1643 H 0.56705 0.50505 0.18171 0.0
H1644 H 0.58224 0.52343 0.16316 0.0
H1645 H 0.54551 0.53132 0.15333 0.0
H1646 H 0.53028 0.51295 0.17157 0.0
H1647 H 0.57258 0.55794 0.15848 0.0
H1648 H 0.55266 0.50931 0.12898 0.0
H1649 H 0.5489 0.48359 0.12375 0.0
H1650 H 0.59715 0.50298 0.12353 0.0
H1651 H 0.6012 0.52881 0.12896 0.0
C1652 C 0.58872 0.58664 0.09333 0.0
C1653 C 0.60308 0.59214 0.08747 0.0
C1654 C 0.5841 0.57675 0.10509 0.0
C1655 C 0.59375 0.57219 0.11138 0.0
C1656 C 0.60797 0.57733 0.10538 0.0
C1657 C 0.61264 0.5873 0.09355 0.0
C1658 C 0.58873 0.56205 0.12423 0.0
C1659 C 0.58708 0.54753 0.12224 0.0
C1660 C 0.58385 0.566 0.13768 0.0
C1661 C 0.58626 0.58154 0.14088 0.0
C1662 C 0.60081 0.59459 0.14039 0.0
C1663 C 0.60299 0.60921 0.14323 0.0
C1664 C 0.59073 0.61093 0.14667 0.0
C1665 C 0.57625 0.59804 0.1473 0.0
C1666 C 0.574 0.58339 0.14445 0.0
C1667 C 0.56218 0.5106 0.17547 0.0
C1668 C 0.54751 0.50764 0.17821 0.0
C1669 C 0.57088 0.52112 0.16492 0.0
C1670 C 0.56501 0.52875 0.1569 0.0
C1671 C 0.55032 0.52567 0.15951 0.0
C1672 C 0.54165 0.5152 0.16999 0.0
C1673 C 0.57405 0.54017 0.14588 0.0
C1674 C 0.5765 0.55498 0.14827 0.0
C1675 C 0.57968 0.53647 0.13286 0.0
C1676 C 0.57724 0.52096 0.12957 0.0
C1677 C 0.56247 0.50807 0.12795 0.0
C1678 C 0.56029 0.49348 0.12492 0.0
C1679 C 0.57278 0.49165 0.12336 0.0
C1680 C 0.58748 0.50441 0.12478 0.0
C1681 C 0.58973 0.51903 0.12782 0.0
H1682 H 0.57107 0.48034 0.12101 0.0
H1683 H 0.59244 0.62225 0.14886 0.0
H1684 H 0.40605 0.97421 0.04936 0.0
H1685 H 0.42022 0.97885 0.07368 0.0
H1686 H 0.41932 0.02025 0.08312 0.0
H1687 H 0.40509 0.01574 0.05856 0.0
H1688 H 0.44761 0.02346 0.0909 0.0
H1689 H 0.39553 0.99016 0.10022 0.0
H1690 H 0.36973 0.96772 0.09532 0.0
H1691 H 0.38707 0.93774 0.1012 0.0
H1692 H 0.41302 0.96001 0.1059 0.0
H1693 H 0.46815 0.02669 0.17076 0.0
H1694 H 0.456 0.0265 0.14627 0.0
H1695 H 0.45211 0.98358 0.1318 0.0
H1696 H 0.46438 0.98376 0.15617 0.0
H1697 H 0.42543 0.98278 0.12743 0.0
H1698 H 0.47789 0.01664 0.11724 0.0
H1699 H 0.5035 0.03936 0.12217 0.0
H1700 H 0.48515 0.06868 0.11833 0.0
H1701 H 0.45937 0.04612 0.11365 0.0
C1702 C 0.40889 0.98436 0.05651 0.0
C1703 C 0.4043 0.99454 0.05204 0.0
C1704 C 0.41698 0.98697 0.07045 0.0
C1705 C 0.42062 -0.00023 0.08027 0.0
C1706 C 0.41655 0.01027 0.07569 0.0
C1707 C 0.40839 0.00765 0.06169 0.0
C1708 C 0.42827 0.00175 0.09549 0.0
C1709 C 0.44268 0.01471 0.09903 0.0
C1710 C 0.42187 0.99021 0.10597 0.0
C1711 C 0.40625 0.97677 0.10329 0.0
C1712 C 0.39386 0.97878 0.10036 0.0
C1713 C 0.3792 0.96609 0.09763 0.0
C1714 C 0.37677 0.95131 0.09792 0.0
C1715 C 0.38897 0.9492 0.10097 0.0
C1716 C 0.40366 0.96185 0.10368 0.0
C1717 C 0.46497 0.01736 0.16225 0.0
C1718 C 0.4672 0.00521 0.16542 0.0
C1719 C 0.45799 0.01725 0.14828 0.0
C1720 C 0.45318 0.00504 0.13721 0.0
C1721 C 0.45567 0.99307 0.14022 0.0
C1722 C 0.46264 0.99317 0.15416 0.0
C1723 C 0.44495 0.00433 0.12274 0.0
C1724 C 0.43036 0.99159 0.11937 0.0
C1725 C 0.45117 0.01612 0.11251 0.0
C1726 C 0.46667 0.02968 0.11526 0.0
C1727 C 0.47929 0.02793 0.11758 0.0
C1728 C 0.49385 0.04078 0.12031 0.0
C1729 C 0.49595 0.05545 0.1206 0.0
C1730 C 0.4835 0.05731 0.11813 0.0
C1731 C 0.46892 0.04449 0.11544 0.0
H1732 H 0.50723 0.06538 0.1227 0.0
H1733 H 0.36541 0.9415 0.09581 0.0
H1734 H 0.37798 0.97886 0.95702 0.0
H1735 H 0.39055 0.97682 0.93455 0.0
H1736 H 0.43328 -0.00178 0.96131 0.0
H1737 H 0.42089 0.00122 0.98345 0.0
H1738 H 0.43865 0.00954 0.93608 0.0
H1739 H 0.41027 0.95756 0.94986 0.0
H1740 H 0.38755 0.93356 0.95608 0.0
H1741 H 0.36652 0.92969 0.91176 0.0
H1742 H 0.38905 0.95377 0.90534 0.0
H1743 H 0.46879 0.97316 0.88379 0.0
H1744 H 0.45404 0.97316 0.90528 0.0
H1745 H 0.43546 0.99493 0.87864 0.0
H1746 H 0.4503 0.99513 0.85714 0.0
H1747 H 0.41812 0.96136 0.90325 0.0
H1748 H 0.44704 0.01963 0.89548 0.0
H1749 H 0.47172 0.04227 0.89059 0.0
H1750 H 0.4937 0.03122 0.92587 0.0
H1751 H 0.46914 0.00842 0.93078 0.0
C1752 C 0.39005 0.98307 0.95805 0.0
C1753 C 0.3985 0.99017 0.9719 0.0
C1754 C 0.39721 0.98181 0.94525 0.0
C1755 C 0.41285 0.98711 0.94626 0.0
C1756 C 0.42123 0.99407 0.9602 0.0
C1757 C 0.41416 0.99574 0.97285 0.0
C1758 C 0.4206 0.98586 0.93271 0.0
C1759 C 0.43408 -0.00106 0.92901 0.0
C1760 C 0.41481 0.97206 0.92337 0.0
C1761 C 0.4013 0.95754 0.92718 0.0
C1762 C 0.40076 0.95164 0.94148 0.0
C1763 C 0.38792 0.93802 0.94503 0.0
C1764 C 0.37558 0.93013 0.93434 0.0
C1765 C 0.37608 0.93582 0.92004 0.0
C1766 C 0.38889 0.94944 0.91643 0.0
C1767 C 0.46143 0.97779 0.88248 0.0
C1768 C 0.46069 0.98419 0.86886 0.0
C1769 C 0.45306 0.9778 0.89473 0.0
C1770 C 0.4438 0.98412 0.89348 0.0
C1771 C 0.44269 0.99014 0.87978 0.0
C1772 C 0.45117 0.99028 0.86757 0.0
C1773 C 0.43576 0.98501 0.90675 0.0
C1774 C 0.42241 0.97189 0.91038 0.0
C1775 C 0.44174 -0.00141 0.91622 0.0
C1776 C 0.45636 0.01234 0.91339 0.0
C1777 C 0.45717 0.02202 0.90211 0.0
C1778 C 0.47112 0.03486 0.89935 0.0
C1779 C 0.48428 0.03817 0.90789 0.0
C1780 C 0.48351 0.02864 0.91924 0.0
C1781 C 0.46959 0.01576 0.92201 0.0
H1782 H 0.49506 0.04812 0.90574 0.0
H1783 H 0.36565 0.91959 0.93711 0.0
H1784 H 0.02801 0.38577 0.97424 0.0
H1785 H 0.03489 0.4026 0.95295 0.0
H1786 H 0.99248 0.40159 0.95512 0.0
H1787 H 0.98553 0.38492 0.97598 0.0
H1788 H -0.00201 0.3974 0.92611 0.0
H1789 H 0.02603 0.43181 0.97113 0.0
H1790 H 0.04498 0.44137 0.99299 0.0
H1791 H 0.07985 0.44897 0.96259 0.0
H1792 H 0.06105 0.43928 0.94056 0.0
H1793 H 5e-05 0.46169 0.90048 0.0
H1794 H 0.00117 0.4437 0.91705 0.0
H1795 H 0.04232 0.45152 0.89737 0.0
H1796 H 0.04103 0.46923 0.88023 0.0
H1797 H 0.04191 0.45066 0.93108 0.0
H1798 H 0.01416 0.42105 0.88555 0.0
H1799 H 0.99504 0.41258 0.86402 0.0
H1800 H 0.95944 0.39588 0.8953 0.0
H1801 H 0.97838 0.40462 0.91708 0.0
C1802 C 0.02017 0.38912 0.97012 0.0
C1803 C 0.00622 0.38399 0.97686 0.0
C1804 C 0.02412 0.39876 0.95799 0.0
C1805 C 0.01419 0.40336 0.95246 0.0
C1806 C 0.00029 0.39813 0.95912 0.0
C1807 C 0.99636 0.38861 0.97114 0.0
C1808 C 0.01801 0.4138 0.9399 0.0
C1809 C 0.00763 0.40903 0.92717 0.0
C1810 C 0.03086 0.42881 0.94102 0.0
C1811 C 0.04212 0.43464 0.95425 0.0
C1812 C 0.03772 0.4354 0.96913 0.0
C1813 C 0.04843 0.44087 0.98155 0.0
C1814 C 0.0636 0.44573 0.97919 0.0
C1815 C 0.06809 0.44517 0.9644 0.0
C1816 C 0.05742 0.4397 0.95195 0.0
C1817 C 0.0093 0.45954 0.89954 0.0
C1818 C 0.02033 0.46676 0.88883 0.0
C1819 C 0.00998 0.44934 0.90912 0.0
C1820 C 0.02173 0.44619 0.9083 0.0
C1821 C 0.03315 0.45382 0.89814 0.0
C1822 C 0.03241 0.46397 0.88841 0.0
C1823 C 0.0215 0.4344 0.91775 0.0
C1824 C 0.03252 0.4389 0.92981 0.0
C1825 C 0.00922 0.41911 0.91605 0.0
C1826 C -0.00227 0.41358 0.90297 0.0
C1827 C 0.00227 0.41568 0.88786 0.0
C1828 C 0.99145 0.41082 0.8756 0.0
C1829 C 0.97603 0.40368 0.87829 0.0
C1830 C 0.97139 0.4014 0.89324 0.0
C1831 C 0.98217 0.40631 0.90555 0.0
H1832 H 0.96767 0.39992 0.86878 0.0
H1833 H 0.07188 0.44996 0.98881 0.0
H1834 H 0.59631 0.62577 0.00727 0.0
H1835 H 0.5789 0.61555 0.98445 0.0
H1836 H 0.57806 0.5729 0.98592 0.0
H1837 H 0.59542 0.583 0.00878 0.0
H1838 H 0.58288 0.60592 0.95668 0.0
H1839 H 0.54259 0.54381 0.97299 0.0
H1840 H 0.53229 0.52997 0.99612 0.0
H1841 H 0.53802 0.57082 0.01916 0.0
H1842 H 0.54815 0.58484 0.9961 0.0
H1843 H 0.54462 0.55486 0.89242 0.0
H1844 H 0.55801 0.56519 0.91751 0.0
H1845 H 0.52108 0.57006 0.93281 0.0
H1846 H 0.50757 0.55974 0.90757 0.0
H1847 H 0.53305 0.55739 0.95446 0.0
H1848 H 0.54916 0.60032 0.92412 0.0
H1849 H 0.5587 0.61468 0.90116 0.0
H1850 H 0.59989 0.6138 0.90695 0.0
H1851 H 0.59049 0.59919 0.92983 0.0
C1852 C 0.59237 0.61419 0.00278 0.0
C1853 C 0.59723 0.60518 0.00982 0.0
C1854 C 0.58245 0.60839 0.98973 0.0
C1855 C 0.57711 0.59344 0.98358 0.0
C1856 C 0.5819 0.5844 0.99061 0.0
C1857 C 0.59187 0.59021 0.00363 0.0
C1858 C 0.56689 0.58746 0.96952 0.0
C1859 C 0.57197 0.59534 0.95623 0.0
C1860 C 0.55254 0.57378 0.96898 0.0
C1861 C 0.54626 0.5654 0.98285 0.0
C1862 C 0.54159 0.54982 0.98297 0.0
C1863 C 0.53579 0.54195 0.99607 0.0
C1864 C 0.53454 0.54953 0.00912 0.0
C1865 C 0.53904 0.56498 0.00906 0.0
C1866 C 0.54484 0.5729 0.99599 0.0
C1867 C 0.53924 0.55791 0.9012 0.0
C1868 C 0.52504 0.55646 0.89811 0.0
C1869 C 0.54693 0.56387 0.91547 0.0
C1870 C 0.54053 0.56842 0.92693 0.0
C1871 C 0.52616 0.56658 0.92407 0.0
C1872 C 0.51852 0.56078 0.90969 0.0
C1873 C 0.54926 0.57567 0.94165 0.0
C1874 C 0.54392 0.56802 0.955 0.0
C1875 C 0.56329 0.58966 0.94231 0.0
C1876 C 0.56906 0.59856 0.92863 0.0
C1877 C 0.5602 0.60307 0.92043 0.0
C1878 C 0.56559 0.61128 0.90744 0.0
C1879 C 0.57988 0.61514 0.90259 0.0
C1880 C 0.58882 0.6108 0.91072 0.0
C1881 C 0.58347 0.60257 0.92371 0.0
H1882 H 0.58405 0.62154 0.89257 0.0
H1883 H 0.53006 0.54342 0.01925 0.0
H1884 H 0.01481 0.62975 -0.00107 0.0
H1885 H 0.02378 0.61941 0.97871 0.0
H1886 H 0.9915 0.57353 0.99 0.0
H1887 H 0.98245 0.58366 0.01006 0.0
H1888 H 0.02038 0.57816 0.98561 0.0
H1889 H 0.98336 0.58752 0.96058 0.0
H1890 H 0.97304 0.60366 0.95329 0.0
H1891 H 0.01392 0.63305 0.93133 0.0
H1892 H 0.02457 0.61718 0.93868 0.0
H1893 H 0.00961 0.52895 0.92137 0.0
H1894 H 0.00825 0.54378 0.94316 0.0
H1895 H 0.03575 0.58547 0.92096 0.0
H1896 H 0.03625 0.57062 0.89865 0.0
H1897 H 0.01307 0.58607 0.93138 0.0
H1898 H 0.04918 0.5753 0.95346 0.0
H1899 H 0.05993 0.55954 0.96072 0.0
H1900 H 0.02231 0.53375 0.98833 0.0
H1901 H 0.01121 0.54922 0.98107 0.0
C1902 C 0.00967 0.61747 -0.00286 0.0
C1903 C -0.00215 0.60753 0.00604 0.0
C1904 C 0.01479 0.61159 0.98558 0.0
C1905 C 0.00825 0.59571 0.98286 0.0
C1906 C 0.99671 0.58582 0.99195 0.0
C1907 C 0.9915 0.59165 0.00336 0.0
C1908 C 0.01296 0.58921 0.97022 0.0
C1909 C 0.01876 0.57982 0.97373 0.0
C1910 C 0.01125 0.59178 0.95479 0.0
C1911 C 0.00483 0.60128 0.95035 0.0
C1912 C 0.9902 0.59751 0.95432 0.0
C1913 C 0.98428 0.60659 0.95015 0.0
C1914 C 0.99284 0.61941 0.9419 0.0
C1915 C 0.00732 0.62314 0.93775 0.0
C1916 C 0.0133 0.6141 0.94191 0.0
C1917 C 0.01539 0.54127 0.9211 0.0
C1918 C 0.023 0.54854 0.90818 0.0
C1919 C 0.01478 0.54979 0.93369 0.0
C1920 C 0.02207 0.5658 0.93383 0.0
C1921 C 0.03008 0.57314 0.92117 0.0
C1922 C 0.03051 0.56461 0.90847 0.0
C1923 C 0.02033 0.57473 0.94667 0.0
C1924 C 0.01503 0.58458 0.94323 0.0
C1925 C 0.02264 0.57267 0.96217 0.0
C1926 C 0.02931 0.56337 0.96663 0.0
C1927 C 0.04314 0.56621 0.961 0.0
C1928 C 0.04931 0.55733 0.96513 0.0
C1929 C 0.04179 0.54563 0.97496 0.0
C1930 C 0.02811 0.54281 0.98071 0.0
C1931 C 0.02189 0.55165 0.97661 0.0
H1932 H 0.04659 0.53877 0.97814 0.0
H1933 H 0.98824 0.62642 0.93868 0.0
H1934 H 0.41121 0.40677 0.96326 0.0
H1935 H 0.42238 0.42397 0.94283 0.0
H1936 H 0.38018 0.42268 0.93387 0.0
H1937 H 0.36904 0.40578 0.95466 0.0
H1938 H 0.41604 0.42064 0.91348 0.0
H1939 H 0.38764 0.45677 0.921 0.0
H1940 H 0.37715 0.4655 0.94135 0.0
H1941 H 0.40645 0.46241 0.97506 0.0
H1942 H 0.41725 0.45386 0.95489 0.0
H1943 H 0.43632 0.46745 0.85118 0.0
H1944 H 0.42064 0.44971 0.86992 0.0
H1945 H 0.44471 0.48522 0.90613 0.0
H1946 H 0.45986 0.50308 0.88734 0.0
H1947 H 0.41661 0.46952 0.91216 0.0
H1948 H 0.45375 0.4569 0.89634 0.0
H1949 H 0.46691 0.44968 0.87768 0.0
H1950 H 0.42503 0.40822 0.86401 0.0
H1951 H 0.41157 0.41534 0.88241 0.0
C1952 C 0.40431 0.41018 0.95697 0.0
C1953 C 0.38927 0.40499 0.9606 0.0
C1954 C 0.41069 0.41996 0.94526 0.0
C1955 C 0.40216 0.4247 0.93689 0.0
C1956 C 0.38706 0.41937 0.94034 0.0
C1957 C 0.3807 0.40968 0.95218 0.0
C1958 C 0.40918 0.43525 0.92459 0.0
C1959 C 0.41611 0.4313 0.91316 0.0
C1960 C 0.40941 0.44922 0.92424 0.0
C1961 C 0.40311 0.4545 0.93645 0.0
C1962 C 0.39187 0.458 0.93275 0.0
C1963 C 0.38587 0.46291 0.94425 0.0
C1964 C 0.39109 0.46445 0.95949 0.0
C1965 C 0.40237 0.46115 0.96326 0.0
C1966 C 0.40842 0.45625 0.9518 0.0
C1967 C 0.43809 0.47144 0.86314 0.0
C1968 C 0.44929 0.48655 0.86789 0.0
C1969 C 0.4292 0.46132 0.87383 0.0
C1970 C 0.43169 0.46605 0.88948 0.0
C1971 C 0.44255 0.48131 0.89413 0.0
C1972 C 0.45122 0.4915 0.88342 0.0
C1973 C 0.42361 0.45499 0.90114 0.0
C1974 C 0.41642 0.45879 0.91239 0.0
C1975 C 0.42353 0.44108 0.9016 0.0
C1976 C 0.43163 0.43673 0.89063 0.0
C1977 C 0.44734 0.4463 0.88928 0.0
C1978 C 0.45484 0.44222 0.87875 0.0
C1979 C 0.44679 0.42853 0.86962 0.0
C1980 C 0.43123 0.41886 0.87105 0.0
C1981 C 0.42366 0.4229 0.88152 0.0
H1982 H 0.45262 0.4254 0.86147 0.0
H1983 H 0.38642 0.46825 0.96838 0.0
H1984 H 0.60281 0.98159 0.99055 0.0
H1985 H 0.58707 0.97452 0.96662 0.0
H1986 H 0.57191 0.00539 0.98055 0.0
H1987 H 0.58756 0.01253 0.00438 0.0
H1988 H 0.54845 0.97744 0.9674 0.0
H1989 H 0.59938 0.01673 0.95684 0.0
H1990 H 0.62706 0.02797 0.95603 0.0
H1991 H 0.61987 0.98967 0.92671 0.0
H1992 H 0.59213 0.97809 0.92753 0.0
H1993 H 0.52279 0.99292 0.89876 0.0
H1994 H 0.53519 0.99346 0.92313 0.0
H1995 H 0.55238 0.96689 0.90172 0.0
H1996 H 0.54068 0.96699 0.87712 0.0
H1997 H 0.5741 0.98971 0.91858 0.0
H1998 H 0.52318 0.95142 0.92689 0.0
H1999 H 0.49548 0.93996 0.92761 0.0
H2000 H 0.5022 0.97535 0.96097 0.0
H2001 H 0.52996 0.98716 0.9603 0.0
C2002 C 0.59602 0.98676 0.98858 0.0
C2003 C 0.59653 -0.0023 -0.00067 0.0
C2004 C 0.58707 0.98274 0.97489 0.0
C2005 C 0.57841 0.98952 0.97178 0.0
C2006 C 0.5785 2e-05 0.98273 0.0
C2007 C 0.58752 0.00414 0.99631 0.0
C2008 C 0.56977 0.98627 0.95688 0.0
C2009 C 0.55403 0.98018 0.95671 0.0
C2010 C 0.57703 0.98949 0.94293 0.0
C2011 C 0.59369 0.99646 0.9424 0.0
C2012 C 0.60371 0.01064 0.95033 0.0
C2013 C 0.6194 0.01708 0.94985 0.0
C2014 C 0.62522 0.00951 0.94137 0.0
C2015 C 0.61535 0.9955 0.93331 0.0
C2016 C 0.59964 0.989 0.93377 0.0
C2017 C 0.52922 0.9872 0.89921 0.0
C2018 C 0.53073 0.97993 0.88595 0.0
C2019 C 0.53616 0.98736 0.91322 0.0
C2020 C 0.54458 0.98005 0.91433 0.0
C2021 C 0.54589 0.97255 0.90117 0.0
C2022 C 0.53905 0.97248 0.88713 0.0
C2023 C 0.5527 0.98099 0.92903 0.0
C2024 C 0.5684 0.98671 0.92919 0.0
C2025 C 0.54536 0.97734 0.94296 0.0
C2026 C 0.52866 0.97024 0.94345 0.0
C2027 C 0.51876 0.95683 0.9343 0.0
C2028 C 0.50304 0.95026 0.93471 0.0
C2029 C 0.49708 0.95694 0.9443 0.0
C2030 C 0.50683 0.97019 0.95353 0.0
C2031 C 0.52256 0.97682 0.95316 0.0
H2032 H 0.48491 0.95184 0.9446 0.0
H2033 H 0.63738 0.01452 0.941 0.0
H2034 H 0.62612 0.02591 0.09094 0.0
H2035 H 0.61327 0.02809 0.11322 0.0
H2036 H 0.57079 0.99004 0.09396 0.0
H2037 H 0.58353 0.98765 0.07181 0.0
H2038 H 0.56904 0.01566 0.10514 0.0
H2039 H 0.5883 0.98361 0.12103 0.0
H2040 H 0.60832 0.97748 0.12585 0.0
H2041 H 0.63204 0.01681 0.15777 0.0
H2042 H 0.61225 0.02329 0.15296 0.0
H2043 H 0.52101 0.99313 0.16601 0.0
H2044 H 0.53632 0.9944 0.14484 0.0
H2045 H 0.57706 0.02647 0.17208 0.0
H2046 H 0.56183 0.02455 0.19371 0.0
H2047 H 0.58153 0.00649 0.15717 0.0
H2048 H 0.56186 0.03791 0.14302 0.0
H2049 H 0.54237 0.04474 0.13818 0.0
H2050 H 0.52029 0.00819 0.10304 0.0
H2051 H 0.53953 0.00099 0.10782 0.0
C2052 C 0.61404 0.01802 0.09146 0.0
C2053 C 0.60583 0.00658 0.07965 0.0
C2054 C 0.60674 0.01926 0.10419 0.0
C2055 C 0.5911 0.00919 0.10522 0.0
C2056 C 0.58286 -0.00208 0.09335 0.0
C2057 C 0.59018 0.99655 0.08074 0.0
C2058 C 0.58324 0.01024 0.1187 0.0
C2059 C 0.57166 0.01354 0.11652 0.0
C2060 C 0.58703 0.00795 0.13357 0.0
C2061 C 0.5989 0.00404 0.1365 0.0
C2062 C 0.59786 0.99103 0.12897 0.0
C2063 C 0.60914 0.98748 0.13172 0.0
C2064 C 0.62147 -0.00322 0.14207 0.0
C2065 C 0.6225 0.00963 0.14973 0.0
C2066 C 0.61125 0.01325 0.147 0.0
C2067 C 0.53323 0.00032 0.16762 0.0
C2068 C 0.54016 0.00872 0.18163 0.0
C2069 C 0.54198 0.00121 0.15539 0.0
C2070 C 0.55785 0.01075 0.15674 0.0
C2071 C 0.56483 0.0191 0.17072 0.0
C2072 C 0.55609 0.0181 0.18304 0.0
C2073 C 0.5671 0.01171 0.14364 0.0
C2074 C 0.57896 0.00879 0.14586 0.0
C2075 C 0.56367 0.01451 0.1288 0.0
C2076 C 0.55209 0.01883 0.12586 0.0
C2077 C 0.55279 0.03126 0.13433 0.0
C2078 C 0.54179 0.03521 0.13159 0.0
C2079 C 0.53009 0.02689 0.12033 0.0
C2080 C 0.52936 0.01461 0.11177 0.0
C2081 C 0.54032 0.0106 0.11448 0.0
H2082 H 0.52159 0.02996 0.11821 0.0
H2083 H 0.63019 0.99401 0.1442 0.0
H2084 H 0.01229 0.61901 0.08365 0.0
H2085 H 0.00977 0.6014 0.1028 0.0
H2086 H 0.96115 0.58151 0.09995 0.0
H2087 H 0.96367 0.59953 0.081 0.0
H2088 H 0.97121 0.584 0.12886 0.0
H2089 H 0.97725 0.56346 0.08172 0.0
H2090 H 0.98877 0.56352 0.05743 0.0
H2091 H 0.03033 0.57469 0.08202 0.0
H2092 H 0.01915 0.57493 0.10646 0.0
H2093 H 0.96185 0.51693 0.16429 0.0
H2094 H 0.96034 0.53345 0.14581 0.0
H2095 H 0.00884 0.56381 0.15141 0.0
H2096 H 0.01045 0.5479 0.17042 0.0
H2097 H 0.99601 0.55364 0.12004 0.0
H2098 H 0.98917 0.57538 0.16731 0.0
H2099 H 0.97648 0.57421 0.19107 0.0
H2100 H 0.93445 0.55868 0.16508 0.0
H2101 H 0.94686 0.55954 0.14116 0.0
C2102 C 0.00106 0.61095 0.08715 0.0
C2103 C 0.98816 0.61054 0.08073 0.0
C2104 C -0.00037 0.60084 0.09804 0.0
C2105 C 0.98524 0.58989 0.10254 0.0
C2106 C 0.97235 0.5898 0.09656 0.0
C2107 C 0.9738 0.60008 0.08574 0.0
C2108 C 0.9838 0.57845 0.11325 0.0
C2109 C 0.9764 0.57717 0.1268 0.0
C2110 C 0.99062 0.56955 0.1106 0.0
C2111 C -0.00261 0.56933 0.09593 0.0
C2112 C 0.98888 0.56603 0.08195 0.0
C2113 C 0.99535 0.566 0.06815 0.0
C2114 C 0.01028 0.56913 0.06818 0.0
C2115 C 0.01877 0.57227 0.08201 0.0
C2116 C 0.01237 0.57234 0.09584 0.0
C2117 C 0.97218 0.52725 0.16181 0.0
C2118 C 0.98629 0.53101 0.16884 0.0
C2119 C 0.97128 0.53661 0.15117 0.0
C2120 C 0.98448 0.54978 0.14728 0.0
C2121 C -0.00145 0.5536 0.15423 0.0
C2122 C -0.00056 0.54441 0.16501 0.0
C2123 C 0.98377 0.55952 0.13571 0.0
C2124 C 0.99071 0.56039 0.12198 0.0
C2125 C 0.97633 0.56781 0.1381 0.0
C2126 C 0.96889 0.56734 0.15246 0.0
C2127 C 0.97719 0.57157 0.16667 0.0
C2128 C 0.97006 0.571 0.18016 0.0
C2129 C 0.95466 0.56633 0.17959 0.0
C2130 C 0.94637 0.56227 0.16551 0.0
C2131 C 0.95345 0.5628 0.15198 0.0
H2132 H 0.94916 0.5659 0.19005 0.0
H2133 H 0.01526 0.5691 0.05749 0.0
H2134 H 0.3989 0.4172 0.04809 0.0
H2135 H 0.41643 0.42414 0.07034 0.0
H2136 H 0.4246 0.38789 0.05671 0.0
H2137 H 0.40651 0.38048 0.03457 0.0
H2138 H 0.42226 0.38867 0.08625 0.0
H2139 H 0.45121 0.42615 0.05187 0.0
H2140 H 0.45691 0.44579 0.03356 0.0
H2141 H 0.45263 0.47409 0.06839 0.0
H2142 H 0.44667 0.45453 0.08686 0.0
H2143 H 0.48564 0.42381 0.14358 0.0
H2144 H 0.47221 0.41496 0.11828 0.0
H2145 H 0.4477 0.4379 0.12839 0.0
H2146 H 0.46022 0.44601 0.15386 0.0
H2147 H 0.46187 0.44312 0.0986 0.0
H2148 H 0.42974 0.40299 0.1316 0.0
H2149 H 0.42509 0.38333 0.14957 0.0
H2150 H 0.43734 0.36006 0.11614 0.0
H2151 H 0.44231 0.37975 0.09807 0.0
C2152 C 0.40443 0.4107 0.04977 0.0
C2153 C 0.40139 0.39835 0.03949 0.0
C2154 C 0.41454 0.41475 0.06248 0.0
C2155 C 0.42214 0.40679 0.06502 0.0
C2156 C 0.41896 0.39427 0.05492 0.0
C2157 C 0.40863 0.39006 0.04227 0.0
C2158 C 0.43314 0.41148 0.07844 0.0
C2159 C 0.43112 0.40053 0.08875 0.0
C2160 C 0.44474 0.42695 0.08178 0.0
C2161 C 0.4484 0.43882 0.07074 0.0
C2162 C 0.45139 0.43652 0.05561 0.0
C2163 C 0.45468 0.44764 0.0452 0.0
C2164 C 0.45511 0.46117 0.0498 0.0
C2165 C 0.45229 0.46361 0.06484 0.0
C2166 C 0.44898 0.45252 0.07529 0.0
C2167 C 0.47729 0.42687 0.14051 0.0
C2168 C 0.47413 0.43573 0.15083 0.0
C2169 C 0.46973 0.42188 0.12601 0.0
C2170 C 0.45905 0.42586 0.12152 0.0
C2171 C 0.45604 0.43487 0.13163 0.0
C2172 C 0.46334 0.4396 0.14617 0.0
C2173 C 0.45063 0.42042 0.10644 0.0
C2174 C 0.45318 0.43124 0.09585 0.0
C2175 C 0.43971 0.40483 0.10275 0.0
C2176 C 0.43659 0.39294 0.11357 0.0
C2177 C 0.43159 0.39376 0.12814 0.0
C2178 C 0.42887 0.3826 0.13833 0.0
C2179 C 0.43097 0.37048 0.13402 0.0
C2180 C 0.43575 0.36948 0.11948 0.0
C2181 C 0.43852 0.38063 0.10926 0.0
H2182 H 0.42885 0.36185 0.14192 0.0
H2183 H 0.45766 0.46976 0.04172 0.0
H2184 H 0.68023 0.73643 0.38621 0.0
H2185 H 0.67428 0.74906 0.40686 0.0
H2186 H 0.63013 0.70849 0.40884 0.0
H2187 H 0.63588 0.69589 0.38794 0.0
H2188 H 0.62807 0.73363 0.41114 0.0
H2189 H 0.65894 0.7167 0.43507 0.0
H2190 H 0.68133 0.714 0.43875 0.0
H2191 H 0.71006 0.76277 0.44622 0.0
H2192 H 0.68785 0.76577 0.44238 0.0
H2193 H 0.61313 0.75085 0.48658 0.0
H2194 H 0.61702 0.73965 0.46315 0.0
H2195 H 0.66048 0.78072 0.45975 0.0
H2196 H 0.6566 0.79203 0.48305 0.0
H2197 H 0.66258 0.75534 0.45794 0.0
H2198 H 0.63099 0.77191 0.43477 0.0
H2199 H 0.60824 0.77405 0.43149 0.0
H2200 H 0.58036 0.72528 0.42322 0.0
H2201 H 0.60294 0.72283 0.42666 0.0
C2202 C 0.66924 0.7302 0.39102 0.0
C2203 C 0.65856 0.71513 0.38552 0.0
C2204 C 0.66587 0.73742 0.40285 0.0
C2205 C 0.65183 0.72964 0.40953 0.0
C2206 C 0.64103 0.71469 0.40387 0.0
C2207 C 0.64437 0.70749 0.39197 0.0
C2208 C 0.64853 0.73703 0.42259 0.0
C2209 C 0.63551 0.73823 0.42146 0.0
C2210 C 0.65838 0.74324 0.43593 0.0
C2211 C 0.67175 0.74147 0.43829 0.0
C2212 C 0.67004 0.72686 0.43738 0.0
C2213 C 0.6827 0.72527 0.43952 0.0
C2214 C 0.69711 0.73821 0.44268 0.0
C2215 C 0.69889 0.75276 0.44375 0.0
C2216 C 0.68627 0.75441 0.44161 0.0
C2217 C 0.62335 0.75762 0.48065 0.0
C2218 C 0.6346 0.77228 0.48671 0.0
C2219 C 0.62558 0.7512 0.46728 0.0
C2220 C 0.63905 0.75936 0.45972 0.0
C2221 C 0.65005 0.7742 0.46546 0.0
C2222 C 0.64783 0.78062 0.47879 0.0
C2223 C 0.64219 0.75207 0.44647 0.0
C2224 C 0.65516 0.75082 0.4476 0.0
C2225 C 0.63224 0.74573 0.43321 0.0
C2226 C 0.61865 0.74718 0.43112 0.0
C2227 C 0.62 0.76163 0.43238 0.0
C2228 C 0.60713 0.7629 0.43047 0.0
C2229 C 0.59286 0.7498 0.42719 0.0
C2230 C 0.59143 0.73541 0.42578 0.0
C2231 C 0.60425 0.73408 0.4277 0.0
H2232 H 0.58291 0.75081 0.42571 0.0
H2233 H 0.7069 0.73696 0.44433 0.0
H2234 H 0.24346 0.91895 0.42675 0.0
H2235 H 0.23617 0.90185 0.44737 0.0
H2236 H 0.27868 0.90297 0.44638 0.0
H2237 H 0.28619 0.92026 0.42549 0.0
H2238 H 0.25279 0.87313 0.44889 0.0
H2239 H 0.27571 0.92305 0.47408 0.0
H2240 H 0.28052 0.94922 0.47883 0.0
H2241 H 0.23393 0.93114 0.48889 0.0
H2242 H 0.22878 0.90485 0.48398 0.0
H2243 H 0.23386 0.83661 0.52057 0.0
H2244 H 0.24778 0.8541 0.5009 0.0
H2245 H 0.21103 0.8625 0.49367 0.0
H2246 H 0.19696 0.84487 0.51292 0.0
H2247 H 0.23891 0.88904 0.49709 0.0
H2248 H 0.21525 0.8398 0.46846 0.0
H2249 H 0.20969 0.81342 0.46305 0.0
H2250 H 0.2572 0.83015 0.45935 0.0
H2251 H 0.26305 0.85663 0.46492 0.0
C2252 C 0.25131 0.91558 0.43082 0.0
C2253 C 0.26548 0.92109 0.4245 0.0
C2254 C 0.24711 0.90581 0.44266 0.0
C2255 C 0.25697 0.90132 0.44852 0.0
C2256 C 0.27095 0.90639 0.44202 0.0
C2257 C 0.27523 0.91628 0.43014 0.0
C2258 C 0.25249 0.89153 0.46163 0.0
C2259 C 0.25008 0.87671 0.45958 0.0
C2260 C 0.24878 0.89616 0.47547 0.0
C2261 C 0.25185 0.91196 0.47857 0.0
C2262 C 0.26647 0.92465 0.47721 0.0
C2263 C 0.26926 0.93951 0.47994 0.0
C2264 C 0.25754 0.94184 0.48414 0.0
C2265 C 0.243 0.92931 0.48564 0.0
C2266 C 0.24015 0.91443 0.4829 0.0
C2267 C 0.22869 0.84206 0.51467 0.0
C2268 C 0.21434 0.83943 0.51843 0.0
C2269 C 0.23667 0.85208 0.50348 0.0
C2270 C 0.23044 0.85961 0.49587 0.0
C2271 C 0.21611 0.85691 0.49952 0.0
C2272 C 0.20811 0.84688 0.5106 0.0
C2273 C 0.23877 0.87049 0.48419 0.0
C2274 C 0.24191 0.88556 0.48654 0.0
C2275 C 0.24311 0.86605 0.47065 0.0
C2276 C 0.2396 0.85016 0.4673 0.0
C2277 C 0.22452 0.83783 0.46663 0.0
C2278 C 0.22131 0.82287 0.46351 0.0
C2279 C 0.23309 0.82011 0.46092 0.0
C2280 C 0.24809 0.83231 0.4614 0.0
C2281 C 0.25136 0.8473 0.46453 0.0
H2282 H 0.23059 0.80851 0.4585 0.0
H2283 H 0.25972 0.95335 0.48625 0.0
H2284 H 0.09253 0.36103 0.38829 0.0
H2285 H 0.10988 0.37156 0.41114 0.0
H2286 H 0.10651 0.32795 0.41547 0.0
H2287 H 0.08958 0.3175 0.39249 0.0
H2288 H 0.10533 0.36458 0.43908 0.0
H2289 H 0.1378 0.33156 0.43208 0.0
H2290 H 0.148 0.32294 0.41137 0.0
H2291 H 0.1502 0.35752 0.38357 0.0
H2292 H 0.14024 0.36651 0.40418 0.0
H2293 H 0.12791 0.35165 0.50946 0.0
H2294 H 0.11807 0.35055 0.48359 0.0
H2295 H 0.16375 0.3787 0.4696 0.0
H2296 H 0.17377 0.37911 0.49541 0.0
H2297 H 0.14838 0.35642 0.44907 0.0
H2298 H 0.13972 0.39312 0.47382 0.0
H2299 H 0.13141 0.40443 0.49391 0.0
H2300 H 0.08527 0.36781 0.4848 0.0
H2301 H 0.09333 0.35615 0.4648 0.0
C2302 C 0.09561 0.35373 0.39403 0.0
C2303 C 0.08967 0.33842 0.38855 0.0
C2304 C 0.10552 0.35977 0.40709 0.0
C2305 C 0.10966 0.35062 0.41493 0.0
C2306 C 0.10379 0.33536 0.40943 0.0
C2307 C 0.094 0.32936 0.39632 0.0
C2308 C 0.1193 0.3566 0.42941 0.0
C2309 C 0.11483 0.36292 0.44122 0.0
C2310 C 0.13201 0.3549 0.43208 0.0
C2311 C 0.13816 0.34964 0.41967 0.0
C2312 C 0.14054 0.33739 0.42159 0.0
C2313 C 0.14626 0.33242 0.40985 0.0
C2314 C 0.14971 0.33965 0.39615 0.0
C2315 C 0.14748 0.3519 0.39417 0.0
C2316 C 0.14177 0.35692 0.40587 0.0
C2317 C 0.13591 0.35751 0.50088 0.0
C2318 C 0.15165 0.36539 0.50451 0.0
C2319 C 0.13024 0.35707 0.48612 0.0
C2320 C 0.14015 0.36476 0.47469 0.0
C2321 C 0.15588 0.37276 0.47826 0.0
C2322 C 0.16159 0.37309 0.49305 0.0
C2323 C 0.13395 0.36373 0.4589 0.0
C2324 C 0.13906 0.35833 0.44685 0.0
C2325 C 0.12212 0.3667 0.45588 0.0
C2326 C 0.11716 0.37372 0.46784 0.0
C2327 C 0.12782 0.38743 0.47615 0.0
C2328 C 0.12315 0.39391 0.48753 0.0
C2329 C 0.10783 0.38684 0.49065 0.0
C2330 C 0.09714 0.37328 0.48237 0.0
C2331 C 0.10175 0.36674 0.47099 0.0
H2332 H 0.10424 0.39187 0.49946 0.0
H2333 H 0.15413 0.33578 0.38707 0.0
H2334 H 0.04911 0.30136 0.29837 0.0
H2335 H 0.0573 0.29482 0.27478 0.0
H2336 H 0.10412 0.32626 0.29005 0.0
H2337 H 0.09592 0.33343 0.3132 0.0
H2338 H 0.10109 0.32984 0.26229 0.0
H2339 H 0.08578 0.28537 0.29033 0.0
H2340 H 0.06844 0.26336 0.30465 0.0
H2341 H 0.03674 0.24418 0.26551 0.0
H2342 H 0.05382 0.26617 0.25101 0.0
H2343 H 0.12124 0.27942 0.21244 0.0
H2344 H 0.10977 0.28275 0.23519 0.0
H2345 H 0.09563 0.30948 0.21055 0.0
H2346 H 0.1072 0.30628 0.18775 0.0
H2347 H 0.0823 0.27628 0.24294 0.0
H2348 H 0.10116 0.33941 0.23406 0.0
H2349 H 0.12118 0.36137 0.22154 0.0
H2350 H 0.15055 0.34313 0.22596 0.0
H2351 H 0.13079 0.32121 0.23869 0.0
C2352 C 0.06115 0.30682 0.29667 0.0
C2353 C 0.0719 0.31789 0.30757 0.0
C2354 C 0.06582 0.30301 0.28324 0.0
C2355 C 0.08135 0.30988 0.28069 0.0
C2356 C 0.09208 0.32083 0.2917 0.0
C2357 C 0.0874 0.3249 0.30494 0.0
C2358 C 0.08649 0.30604 0.26641 0.0
C2359 C 0.09694 0.31811 0.2581 0.0
C2360 C 0.08127 0.29075 0.26096 0.0
C2361 C 0.07101 0.27749 0.26964 0.0
C2362 C 0.07507 0.27651 0.28481 0.0
C2363 C 0.06529 0.26403 0.29296 0.0
C2364 C 0.05148 0.2524 0.28601 0.0
C2365 C 0.04743 0.2532 0.27088 0.0
C2366 C 0.05716 0.26566 0.26269 0.0
C2367 C 0.11542 0.28575 0.21178 0.0
C2368 C 0.11519 0.29268 0.19837 0.0
C2369 C 0.10889 0.28765 0.22479 0.0
C2370 C 0.10204 0.29653 0.22461 0.0
C2371 C 0.1011 0.30281 0.21099 0.0
C2372 C 0.10772 0.30099 0.198 0.0
C2373 C 0.09681 0.30006 0.23894 0.0
C2374 C 0.08634 0.28797 0.24718 0.0
C2375 C 0.10239 0.31533 0.24463 0.0
C2376 C 0.11442 0.32859 0.23716 0.0
C2377 C 0.11191 0.34013 0.2324 0.0
C2378 C 0.12321 0.35256 0.22527 0.0
C2379 C 0.13711 0.35362 0.2229 0.0
C2380 C 0.13976 0.34227 0.22773 0.0
C2381 C 0.12851 0.32983 0.2349 0.0
H2382 H 0.14583 0.36324 0.21736 0.0
H2383 H 0.04392 0.24275 0.29233 0.0
H2384 H 0.69879 0.72626 0.31047 0.0
H2385 H 0.70952 0.74429 0.29035 0.0
H2386 H 0.66832 0.74573 0.28617 0.0
H2387 H 0.65757 0.72785 0.30594 0.0
H2388 H 0.67751 0.74231 0.25853 0.0
H2389 H 0.70007 0.7741 0.30612 0.0
H2390 H 0.71563 0.78195 0.33044 0.0
H2391 H 0.75436 0.78933 0.3063 0.0
H2392 H 0.73895 0.78132 0.28184 0.0
H2393 H 0.68716 0.80815 0.22964 0.0
H2394 H 0.68497 0.7898 0.24776 0.0
H2395 H 0.72849 0.79678 0.23616 0.0
H2396 H 0.7307 0.81515 0.21769 0.0
H2397 H 0.72274 0.79434 0.26879 0.0
H2398 H 0.70059 0.76739 0.22051 0.0
H2399 H 0.68479 0.76129 0.19661 0.0
H2400 H 0.64492 0.74485 0.22211 0.0
H2401 H 0.66055 0.75134 0.24624 0.0
C2402 C 0.69203 0.7304 0.30522 0.0
C2403 C 0.67732 0.7256 0.30984 0.0
C2404 C 0.69819 0.74073 0.29376 0.0
C2405 C 0.68971 0.74636 0.28679 0.0
C2406 C 0.67503 0.74147 0.29134 0.0
C2407 C 0.66893 0.73127 0.30272 0.0
C2408 C 0.69586 0.75746 0.27481 0.0
C2409 C 0.68743 0.75366 0.26076 0.0
C2410 C 0.70908 0.77211 0.27752 0.0
C2411 C 0.71832 0.77692 0.2922 0.0
C2412 C 0.71187 0.77726 0.30602 0.0
C2413 C 0.72066 0.78177 0.31982 0.0
C2414 C 0.73596 0.78608 0.31992 0.0
C2415 C 0.7425 0.78594 0.30621 0.0
C2416 C 0.73374 0.78143 0.29238 0.0
C2417 C 0.69628 0.8058 0.2309 0.0
C2418 C 0.70897 0.81288 0.22202 0.0
C2419 C 0.69505 0.79539 0.24133 0.0
C2420 C 0.70647 0.7918 0.24312 0.0
C2421 C 0.71956 0.7994 0.2349 0.0
C2422 C 0.72079 0.80987 0.22437 0.0
C2423 C 0.70398 0.77934 0.25287 0.0
C2424 C 0.71308 0.78285 0.26641 0.0
C2425 C 0.69134 0.76439 0.24973 0.0
C2426 C 0.68178 0.75993 0.23521 0.0
C2427 C 0.68847 0.76256 0.22105 0.0
C2428 C 0.67954 0.75905 0.20745 0.0
C2429 C 0.66386 0.75267 0.20784 0.0
C2430 C 0.65707 0.74979 0.22183 0.0
C2431 C 0.66597 0.7534 0.23548 0.0
H2432 H 0.65696 0.74995 0.1973 0.0
H2433 H 0.74276 0.78957 0.33062 0.0
H2434 H 0.25483 0.9551 0.34865 0.0
H2435 H 0.23816 0.94625 0.32535 0.0
H2436 H 0.24584 0.90863 0.31834 0.0
H2437 H 0.26222 0.91721 0.34184 0.0
H2438 H 0.24419 0.94433 0.29718 0.0
H2439 H 0.21559 0.87827 0.2995 0.0
H2440 H 0.20666 0.85913 0.31882 0.0
H2441 H 0.20148 0.8897 0.3499 0.0
H2442 H 0.21016 0.90893 0.33069 0.0
H2443 H 0.21971 0.90735 0.22407 0.0
H2444 H 0.23071 0.91592 0.25015 0.0
H2445 H 0.18592 0.8975 0.26677 0.0
H2446 H 0.17473 0.8883 0.24061 0.0
H2447 H 0.2027 0.89068 0.28464 0.0
H2448 H 0.2089 0.93591 0.26467 0.0
H2449 H 0.21608 0.95557 0.24607 0.0
H2450 H 0.2627 0.9678 0.25202 0.0
H2451 H 0.25578 0.94806 0.27049 0.0
C2452 C 0.25287 0.94487 0.34221 0.0
C2453 C 0.25983 0.93684 0.34708 0.0
C2454 C 0.24335 0.93983 0.32888 0.0
C2455 C 0.24062 0.92669 0.32015 0.0
C2456 C 0.24752 0.91863 0.32504 0.0
C2457 C 0.25696 0.92359 0.33843 0.0
C2458 C 0.23121 0.92187 0.30553 0.0
C2459 C 0.23507 0.93261 0.29448 0.0
C2460 C 0.21905 0.90667 0.30211 0.0
C2461 C 0.21366 0.8951 0.31369 0.0
C2462 C 0.21248 0.88088 0.31043 0.0
C2463 C 0.20747 0.87002 0.32137 0.0
C2464 C 0.20355 0.87321 0.33559 0.0
C2465 C 0.20458 0.88726 0.33889 0.0
C2466 C 0.20956 0.89815 0.32799 0.0
C2467 C 0.21217 0.90497 0.23327 0.0
C2468 C 0.19633 0.89709 0.23026 0.0
C2469 C 0.21849 0.91004 0.24817 0.0
C2470 C 0.20915 0.90754 0.2604 0.0
C2471 C 0.19333 0.89962 0.25749 0.0
C2472 C 0.18697 0.89448 0.24254 0.0
C2473 C 0.21604 0.91303 0.27619 0.0
C2474 C 0.21172 0.90242 0.28743 0.0
C2475 C 0.22754 0.92844 0.27993 0.0
C2476 C 0.2318 0.94042 0.2689 0.0
C2477 C 0.22067 0.94272 0.26194 0.0
C2478 C 0.2247 0.95389 0.25143 0.0
C2479 C 0.23983 0.96291 0.24785 0.0
C2480 C 0.25098 0.9608 0.2548 0.0
C2481 C 0.24701 0.94964 0.26531 0.0
H2482 H 0.24293 0.97155 0.2397 0.0
H2483 H 0.19968 0.86479 0.34405 0.0
H2484 H 0.6465 0.91314 0.33381 0.0
H2485 H 0.65732 0.90379 0.31496 0.0
H2486 H 0.7018 0.94321 0.32656 0.0
H2487 H 0.69088 0.95296 0.34515 0.0
H2488 H 0.69823 0.93747 0.29703 0.0
H2489 H 0.69134 0.90731 0.33898 0.0
H2490 H 0.67788 0.89094 0.35976 0.0
H2491 H 0.64516 0.8563 0.32691 0.0
H2492 H 0.65828 0.87255 0.30594 0.0
H2493 H 0.72816 0.89827 0.25237 0.0
H2494 H 0.72339 0.90938 0.27535 0.0
H2495 H 0.67531 0.88302 0.26341 0.0
H2496 H 0.67987 0.87264 0.24008 0.0
H2497 H 0.68512 0.88332 0.29575 0.0
H2498 H 0.69118 0.91641 0.25454 0.0
H2499 H 0.70565 0.93298 0.23428 0.0
H2500 H 0.74195 0.96246 0.2673 0.0
H2501 H 0.72778 0.94589 0.28773 0.0
C2502 C 0.65859 0.91984 0.33237 0.0
C2503 C 0.66785 0.93374 0.34105 0.0
C2504 C 0.66479 0.91443 0.32164 0.0
C2505 C 0.68045 0.9226 0.31959 0.0
C2506 C 0.68971 0.93665 0.32802 0.0
C2507 C 0.68345 0.94221 0.33863 0.0
C2508 C 0.68697 0.91647 0.30844 0.0
C2509 C 0.69563 0.92573 0.29698 0.0
C2510 C 0.68361 0.90113 0.30832 0.0
C2511 C 0.67576 0.8912 0.32088 0.0
C2512 C 0.68122 0.89624 0.33619 0.0
C2513 C 0.67365 0.88698 0.348 0.0
C2514 C 0.66066 0.8726 0.34466 0.0
C2515 C 0.65523 0.86744 0.32949 0.0
C2516 C 0.66274 0.87666 0.31763 0.0
C2517 C 0.71656 0.89487 0.25455 0.0
C2518 C 0.70442 0.88449 0.24427 0.0
C2519 C 0.71388 0.90114 0.26777 0.0
C2520 C 0.699 0.89694 0.27103 0.0
C2521 C 0.68686 0.88625 0.26113 0.0
C2522 C 0.68952 0.88023 0.24782 0.0
C2523 C 0.69593 0.90421 0.28427 0.0
C2524 C 0.68795 0.89515 0.29609 0.0
C2525 C 0.7001 0.91976 0.28485 0.0
C2526 C 0.70851 0.92981 0.27262 0.0
C2527 C 0.70231 0.92634 0.25745 0.0
C2528 C 0.71044 0.93575 0.24594 0.0
C2529 C 0.72474 0.94874 0.24949 0.0
C2530 C 0.7309 0.95238 0.26456 0.0
C2531 C 0.72282 0.94298 0.27611 0.0
H2532 H 0.73102 0.95601 0.24056 0.0
H2533 H 0.6548 0.86546 0.35383 0.0
H2534 H 0.04636 0.75527 0.30398 0.0
H2535 H 0.05804 0.77362 0.28444 0.0
H2536 H 0.08918 0.75773 0.27678 0.0
H2537 H 0.0779 0.73976 0.29659 0.0
H2538 H 0.10391 0.78743 0.27814 0.0
H2539 H 0.05753 0.74744 0.25195 0.0
H2540 H 0.02983 0.73001 0.24805 0.0
H2541 H 0.02357 0.76851 0.24713 0.0
H2542 H 0.05124 0.78617 0.25122 0.0
H2543 H 0.12761 0.80931 0.20439 0.0
H2544 H 0.11341 0.79362 0.22488 0.0
H2545 H 0.09671 0.82391 0.23534 0.0
H2546 H 0.1115 0.84021 0.21527 0.0
H2547 H 0.07424 0.78951 0.23361 0.0
H2548 H 0.1217 0.82933 0.258 0.0
H2549 H 0.14958 0.84582 0.26054 0.0
H2550 H 0.1538 0.80624 0.26367 0.0
H2551 H 0.12593 0.78949 0.26088 0.0
C2552 C 0.05568 0.75568 0.29809 0.0
C2553 C 0.06123 0.74609 0.30179 0.0
C2554 C 0.0623 0.76613 0.28689 0.0
C2555 C 0.0744 0.76695 0.27903 0.0
C2556 C 0.07989 0.75733 0.28272 0.0
C2557 C 0.07341 0.74704 0.29402 0.0
C2558 C 0.08157 0.77795 0.26711 0.0
C2559 C 0.0974 0.78778 0.26837 0.0
C2560 C 0.07306 0.77871 0.25454 0.0
C2561 C 0.05643 0.76812 0.25207 0.0
C2562 C 0.05024 0.75218 0.25104 0.0
C2563 C 0.03455 0.74227 0.24878 0.0
C2564 C 0.02494 0.74815 0.24739 0.0
C2565 C 0.03102 0.76397 0.24823 0.0
C2566 C 0.0467 0.77394 0.25052 0.0
C2567 C 0.12106 0.81277 0.2111 0.0
C2568 C 0.12091 0.82618 0.20831 0.0
C2569 C 0.11284 0.8037 0.22271 0.0
C2570 C 0.10415 0.80771 0.23162 0.0
C2571 C 0.10338 0.82067 0.22851 0.0
C2572 C 0.11179 0.82991 0.21701 0.0
C2573 C 0.09648 0.79863 0.24459 0.0
C2574 C 0.08064 0.78922 0.24352 0.0
C2575 C 0.10496 0.7981 0.25727 0.0
C2576 C 0.12173 0.80815 0.2591 0.0
C2577 C 0.12857 0.82413 0.25909 0.0
C2578 C 0.14438 0.83353 0.2606 0.0
C2579 C 0.15346 0.82708 0.26223 0.0
C2580 C 0.14675 0.81122 0.26239 0.0
C2581 C 0.13095 0.80177 0.26086 0.0
H2582 H 0.1657 0.83437 0.2634 0.0
H2583 H 0.0128 0.74045 0.24563 0.0
H2584 H 0.25865 0.30459 0.32716 0.0
H2585 H 0.24143 0.29406 0.30416 0.0
H2586 H 0.22764 0.32711 0.31227 0.0
H2587 H 0.24477 0.3377 0.33519 0.0
H2588 H 0.20332 0.29794 0.30308 0.0
H2589 H 0.25363 0.33398 0.28757 0.0
H2590 H 0.28108 0.34427 0.28584 0.0
H2591 H 0.27181 0.30192 0.26308 0.0
H2592 H 0.2443 0.29131 0.26486 0.0
H2593 H 0.17483 0.30375 0.23102 0.0
H2594 H 0.18782 0.30709 0.25585 0.0
H2595 H 0.2039 0.27774 0.2392 0.0
H2596 H 0.19171 0.2751 0.21404 0.0
H2597 H 0.22622 0.30196 0.25321 0.0
H2598 H 0.17583 0.26658 0.26608 0.0
H2599 H 0.14833 0.256 0.26774 0.0
H2600 H 0.1572 0.29586 0.29541 0.0
H2601 H 0.18476 0.3068 0.29375 0.0
C2602 C 0.25184 0.30952 0.32414 0.0
C2603 C 0.25318 0.32207 0.33296 0.0
C2604 C 0.24204 0.30351 0.31098 0.0
C2605 C 0.23335 0.30989 0.30646 0.0
C2606 C 0.23423 0.32201 0.31556 0.0
C2607 C 0.2441 0.3281 0.32862 0.0
C2608 C 0.22394 0.30455 0.29184 0.0
C2609 C 0.20829 0.29886 0.29215 0.0
C2610 C 0.2304 0.3054 0.27764 0.0
C2611 C 0.24693 0.31179 0.27651 0.0
C2612 C 0.25746 0.32682 0.28231 0.0
C2613 C 0.27302 0.33272 0.2813 0.0
C2614 C 0.27819 0.32374 0.2744 0.0
C2615 C 0.2678 0.30885 0.26845 0.0
C2616 C 0.25222 0.30289 0.26945 0.0
C2617 C 0.18112 0.29799 0.23261 0.0
C2618 C 0.18224 0.2892 0.22046 0.0
C2619 C 0.18839 0.29974 0.24692 0.0
C2620 C 0.19672 0.29253 0.24951 0.0
C2621 C 0.1975 0.28339 0.23753 0.0
C2622 C 0.19037 0.28175 0.22316 0.0
C2623 C 0.2055 0.29542 0.26433 0.0
C2624 C 0.2211 0.30074 0.2641 0.0
C2625 C 0.19895 0.29412 0.27859 0.0
C2626 C 0.18237 0.28756 0.27969 0.0
C2627 C 0.17192 0.27314 0.27243 0.0
C2628 C 0.15632 0.26707 0.27339 0.0
C2629 C 0.15102 0.27526 0.28165 0.0
C2630 C 0.16132 0.28953 0.28901 0.0
C2631 C 0.17693 0.29566 0.28808 0.0
H2632 H 0.13894 0.27055 0.28238 0.0
H2633 H 0.29025 0.32833 0.27363 0.0
H2634 H 0.28479 0.36723 0.41269 0.0
H2635 H 0.27472 0.37284 0.43542 0.0
H2636 H 0.24591 0.32445 0.44049 0.0
H2637 H 0.25548 0.31882 0.41749 0.0
H2638 H 0.23037 0.33743 0.44482 0.0
H2639 H 0.27991 0.34877 0.46349 0.0
H2640 H 0.30782 0.36152 0.46393 0.0
H2641 H 0.31167 0.40537 0.47064 0.0
H2642 H 0.28376 0.39289 0.47005 0.0
H2643 H 0.2118 0.33713 0.52147 0.0
H2644 H 0.22398 0.33507 0.49876 0.0
H2645 H 0.24271 0.38307 0.49289 0.0
H2646 H 0.23013 0.38519 0.51538 0.0
H2647 H 0.26356 0.37231 0.48863 0.0
H2648 H 0.21357 0.36015 0.47125 0.0
H2649 H 0.18567 0.34677 0.47165 0.0
H2650 H 0.18285 0.30355 0.46321 0.0
H2651 H 0.21076 0.31666 0.46299 0.0
C2652 C 0.27632 0.35781 0.41868 0.0
C2653 C 0.27093 0.34259 0.41332 0.0
C2654 C 0.27063 0.36103 0.43172 0.0
C2655 C 0.25968 0.34908 0.43983 0.0
C2656 C 0.25433 0.33388 0.43445 0.0
C2657 C 0.25983 0.33067 0.42131 0.0
C2658 C 0.2535 0.35227 0.45372 0.0
C2659 C 0.23767 0.34493 0.45445 0.0
C2660 C 0.26298 0.36239 0.46617 0.0
C2661 C 0.27975 0.3699 0.46656 0.0
C2662 C 0.28671 0.36114 0.46495 0.0
C2663 C 0.30253 0.36831 0.46524 0.0
C2664 C 0.31151 0.38425 0.46727 0.0
C2665 C 0.3047 0.39303 0.46905 0.0
C2666 C 0.28888 0.38591 0.46875 0.0
C2667 C 0.21841 0.34726 0.51533 0.0
C2668 C 0.2198 0.36129 0.52017 0.0
C2669 C 0.22545 0.34607 0.5024 0.0
C2670 C 0.2341 0.35888 0.49409 0.0
C2671 C 0.23607 0.37306 0.49918 0.0
C2672 C 0.22892 0.37424 0.51207 0.0
C2673 C 0.24053 0.35722 0.47973 0.0
C2674 C 0.25635 0.36487 0.47893 0.0
C2675 C 0.23107 0.34729 0.46725 0.0
C2676 C 0.21427 0.33938 0.46723 0.0
C2677 C 0.20701 0.34778 0.4696 0.0
C2678 C 0.19119 0.34025 0.46977 0.0
C2679 C 0.1825 0.32432 0.46749 0.0
C2680 C 0.1896 0.31589 0.46499 0.0
C2681 C 0.20542 0.32337 0.46482 0.0
H2682 H 0.17025 0.3185 0.46763 0.0
H2683 H 0.32376 0.38978 0.46749 0.0
H2684 H 0.67209 0.93209 0.41203 0.0
H2685 H 0.66608 0.91307 0.43077 0.0
H2686 H 0.62585 0.91417 0.44108 0.0
H2687 H 0.63164 0.93311 0.4221 0.0
H2688 H 0.64522 0.91538 0.46751 0.0
H2689 H 0.61987 0.8859 0.42007 0.0
H2690 H 0.61879 0.87886 0.3926 0.0
H2691 H 0.65289 0.86716 0.40098 0.0
H2692 H 0.65434 0.87435 0.42849 0.0
H2693 H 0.6158 0.85121 0.51182 0.0
H2694 H 0.61802 0.86891 0.49292 0.0
H2695 H 0.65038 0.86131 0.46984 0.0
H2696 H 0.64726 0.84263 0.48792 0.0
H2697 H 0.63331 0.86331 0.4496 0.0
H2698 H 0.66069 0.89361 0.4955 0.0
H2699 H 0.66426 0.90187 0.52292 0.0
H2700 H 0.62977 0.91354 0.51776 0.0
H2701 H 0.62582 0.90512 0.49033 0.0
C2702 C 0.66201 0.92837 0.41833 0.0
C2703 C 0.6523 0.93405 0.41556 0.0
C2704 C 0.65858 0.91748 0.429 0.0
C2705 C 0.64549 0.91219 0.43719 0.0
C2706 C 0.636 0.91814 0.43482 0.0
C2707 C 0.6393 0.9289 0.42397 0.0
C2708 C 0.64161 0.90014 0.44795 0.0
C2709 C 0.64236 0.9039 0.46364 0.0
C2710 C 0.63834 0.88536 0.44282 0.0
C2711 C 0.6373 0.88079 0.42632 0.0
C2712 C 0.62721 0.88193 0.41604 0.0
C2713 C 0.62652 0.8779 0.40046 0.0
C2714 C 0.63579 0.8726 0.39504 0.0
C2715 C 0.64573 0.87128 0.40519 0.0
C2716 C 0.64647 0.87531 0.42078 0.0
C2717 C 0.62315 0.85301 0.50255 0.0
C2718 C 0.63144 0.84551 0.50152 0.0
C2719 C 0.62459 0.86336 0.49186 0.0
C2720 C 0.63464 0.86675 0.48014 0.0
C2721 C 0.64262 0.859 0.47884 0.0
C2722 C 0.64097 0.84844 0.48934 0.0
C2723 C 0.63705 0.87851 0.46933 0.0
C2724 C 0.63605 0.87472 0.45357 0.0
C2725 C 0.64041 0.89338 0.47443 0.0
C2726 C 0.64285 0.89858 0.4909 0.0
C2727 C 0.65379 0.89784 0.50024 0.0
C2728 C 0.6559 0.90257 0.51578 0.0
C2729 C 0.64722 0.90819 0.52209 0.0
C2730 C 0.63646 0.90915 0.51286 0.0
C2731 C 0.63429 0.90441 0.49731 0.0
H2732 H 0.64885 0.91183 0.53413 0.0
H2733 H 0.63525 0.8695 0.38297 0.0
H2734 H 0.07808 0.71891 0.37457 0.0
H2735 H 0.09563 0.72448 0.39672 0.0
H2736 H 0.09255 0.76395 0.41042 0.0
H2737 H 0.07551 0.75878 0.38812 0.0
H2738 H 0.12051 0.77104 0.41434 0.0
H2739 H 0.07228 0.72862 0.42706 0.0
H2740 H 0.04972 0.70264 0.42349 0.0
H2741 H 0.07826 0.68326 0.42507 0.0
H2742 H 0.10101 0.70915 0.42847 0.0
H2743 H 0.12922 0.77735 0.49525 0.0
H2744 H 0.11801 0.77019 0.46921 0.0
H2745 H 0.1449 0.74984 0.45915 0.0
H2746 H 0.15706 0.75783 0.48507 0.0
H2747 H 0.1085 0.73186 0.45174 0.0
H2748 H 0.15688 0.77609 0.44254 0.0
H2749 H 0.17797 0.80264 0.44825 0.0
H2750 H 0.1473 0.81908 0.44183 0.0
H2751 H 0.12598 0.7926 0.43634 0.0
C2752 C 0.08119 0.7288 0.38229 0.0
C2753 C 0.07536 0.73838 0.37961 0.0
C2754 C 0.09119 0.73194 0.39497 0.0
C2755 C 0.09529 0.74454 0.40536 0.0
C2756 C 0.08962 0.7542 0.40256 0.0
C2757 C 0.07981 0.75119 0.38981 0.0
C2758 C 0.10523 0.74763 0.41933 0.0
C2759 C 0.11786 0.76243 0.42247 0.0
C2760 C 0.102 0.73636 0.42988 0.0
C2761 C 0.08834 0.72081 0.42782 0.0
C2762 C 0.07374 0.71881 0.42652 0.0
C2763 C 0.06092 0.70411 0.42455 0.0
C2764 C 0.06256 0.69131 0.424 0.0
C2765 C 0.07701 0.69319 0.42546 0.0
C2766 C 0.08987 0.70787 0.42742 0.0
C2767 C 0.1331 0.77168 0.48749 0.0
C2768 C 0.14427 0.76839 0.4923 0.0
C2769 C 0.12652 0.76745 0.47264 0.0
C2770 C 0.1307 0.75957 0.46233 0.0
C2771 C 0.14157 0.75593 0.46703 0.0
C2772 C 0.14842 0.76044 0.48186 0.0
C2773 C 0.12349 0.75523 0.4467 0.0
C2774 C 0.11134 0.74027 0.44333 0.0
C2775 C 0.12699 0.76639 0.43606 0.0
C2776 C 0.13981 0.78235 0.43916 0.0
C2777 C 0.15461 0.78536 0.44249 0.0
C2778 C 0.16661 0.80039 0.44565 0.0
C2779 C 0.16397 0.81253 0.44544 0.0
C2780 C 0.14933 0.80966 0.442 0.0
C2781 C 0.13728 0.79464 0.43885 0.0
H2782 H 0.17328 0.82417 0.4479 0.0
H2783 H 0.05262 0.67994 0.42248 0.0
H2784 H 0.30376 0.03141 0.71776 0.0
H2785 H 0.29647 0.04304 0.73823 0.0
H2786 H 0.33847 0.08591 0.7355 0.0
H2787 H 0.34599 0.07424 0.71535 0.0
H2788 H 0.33367 0.07948 0.76404 0.0
H2789 H 0.30348 0.07977 0.72128 0.0
H2790 H 0.28491 0.06848 0.69911 0.0
H2791 H 0.25046 0.03869 0.72809 0.0
H2792 H 0.26889 0.04967 0.75042 0.0
H2793 H 0.31821 0.12696 0.81015 0.0
H2794 H 0.32183 0.11548 0.7868 0.0
H2795 H 0.28184 0.07231 0.79432 0.0
H2796 H 0.27814 0.08374 0.81775 0.0
H2797 H 0.28478 0.07838 0.76344 0.0
H2798 H 0.31511 0.07791 0.80598 0.0
H2799 H 0.33357 0.08951 0.82822 0.0
H2800 H 0.36782 0.11977 0.79932 0.0
H2801 H 0.34948 0.10851 0.77694 0.0
C2802 C 0.31141 0.04333 0.72149 0.0
C2803 C 0.32546 0.05191 0.71497 0.0
C2804 C 0.30719 0.04999 0.73312 0.0
C2805 C 0.31684 0.06541 0.73829 0.0
C2806 C 0.33083 0.074 0.7317 0.0
C2807 C 0.33511 0.06732 0.72017 0.0
C2808 C 0.31275 0.07246 0.75101 0.0
C2809 C 0.32307 0.07942 0.76377 0.0
C2810 C 0.29872 0.07201 0.75089 0.0
C2811 C 0.28761 0.06544 0.73749 0.0
C2812 C 0.29198 0.07073 0.72291 0.0
C2813 C 0.28147 0.0644 0.71031 0.0
C2814 C 0.26652 0.05285 0.71218 0.0
C2815 C 0.26205 0.04763 0.72666 0.0
C2816 C 0.27251 0.05391 0.73929 0.0
C2817 C 0.31011 0.11506 0.80675 0.0
C2818 C 0.29802 0.10618 0.81587 0.0
C2819 C 0.31216 0.10853 0.7934 0.0
C2820 C 0.30225 0.09299 0.789 0.0
C2821 C 0.28962 0.08432 0.79755 0.0
C2822 C 0.28752 0.09087 0.81091 0.0
C2823 C 0.30583 0.08555 0.77624 0.0
C2824 C 0.29539 0.07845 0.7636 0.0
C2825 C 0.31976 0.08586 0.77641 0.0
C2826 C 0.33088 0.09246 0.78981 0.0
C2827 C 0.32655 0.08711 0.80438 0.0
C2828 C 0.337 0.09361 0.81701 0.0
C2829 C 0.35185 0.10539 0.81519 0.0
C2830 C 0.35631 0.11065 0.80072 0.0
C2831 C 0.34589 0.10421 0.78806 0.0
H2832 H 0.35992 0.11042 0.82498 0.0
H2833 H 0.25841 0.04796 0.70242 0.0
H2834 H 0.91807 0.22761 0.72778 0.0
H2835 H 0.90958 0.20831 0.74658 0.0
H2836 H 0.94572 0.24082 0.77868 0.0
H2837 H 0.95489 0.25976 0.75939 0.0
H2838 H 0.94124 0.21449 0.78355 0.0
H2839 H 0.9077 0.23383 0.77798 0.0
H2840 H 0.89062 0.2403 0.76429 0.0
H2841 H 0.86069 0.19294 0.74964 0.0
H2842 H 0.87769 0.18622 0.76309 0.0
H2843 H 0.90036 0.18556 0.85162 0.0
H2844 H 0.91399 0.20071 0.83036 0.0
H2845 H 0.88607 0.16193 0.79851 0.0
H2846 H 0.87257 0.14667 0.81973 0.0
H2847 H 0.88654 0.19008 0.79318 0.0
H2848 H 0.92068 0.17165 0.80251 0.0
H2849 H 0.93793 0.16707 0.81848 0.0
H2850 H 0.96692 0.21542 0.8291 0.0
H2851 H 0.94972 0.22028 0.81337 0.0
C2852 C 0.92435 0.23049 0.73876 0.0
C2853 C 0.93703 0.24515 0.74224 0.0
C2854 C 0.91944 0.21952 0.74955 0.0
C2855 C 0.92667 0.22324 0.76428 0.0
C2856 C 0.93986 0.23767 0.76746 0.0
C2857 C 0.94509 0.2485 0.75646 0.0
C2858 C 0.91995 0.2125 0.77658 0.0
C2859 C 0.9293 0.20927 0.78571 0.0
C2860 C 0.90433 0.20555 0.77943 0.0
C2861 C 0.89404 0.20955 0.7714 0.0
C2862 C 0.89752 0.22482 0.77176 0.0
C2863 C 0.88785 0.22853 0.76405 0.0
C2864 C 0.8746 0.21705 0.75606 0.0
C2865 C 0.87097 0.20182 0.75581 0.0
C2866 C 0.88061 0.19805 0.76347 0.0
C2867 C 0.89734 0.18022 0.8401 0.0
C2868 C 0.88544 0.16498 0.83727 0.0
C2869 C 0.90515 0.18884 0.82801 0.0
C2870 C 0.90104 0.18239 0.81291 0.0
C2871 C 0.88944 0.16705 0.8101 0.0
C2872 C 0.8818 0.15835 0.82221 0.0
C2873 C 0.90781 0.19209 0.8 0.0
C2874 C 0.89844 0.1952 0.79086 0.0
C2875 C 0.92344 0.19922 0.79747 0.0
C2876 C 0.93383 0.19631 0.80687 0.0
C2877 C 0.93066 0.1813 0.80836 0.0
C2878 C 0.94045 0.17865 0.81735 0.0
C2879 C 0.9535 0.19094 0.82483 0.0
C2880 C 0.95681 0.20591 0.82331 0.0
C2881 C 0.94705 0.20861 0.81434 0.0
H2882 H 0.96106 0.18887 0.83178 0.0
H2883 H 0.86713 0.21994 0.7501 0.0
H2884 H 0.74995 0.69312 0.71976 0.0
H2885 H 0.76727 0.70384 0.74265 0.0
H2886 H 0.76566 0.66097 0.74619 0.0
H2887 H 0.74874 0.65034 0.72324 0.0
H2888 H 0.76297 0.69625 0.77062 0.0
H2889 H 0.79777 0.66577 0.76228 0.0
H2890 H 0.80861 0.65831 0.74125 0.0
H2891 H 0.80899 0.6926 0.7143 0.0
H2892 H 0.79838 0.70045 0.73525 0.0
H2893 H 0.78706 0.68312 0.84022 0.0
H2894 H 0.77687 0.6821 0.81452 0.0
H2895 H 0.82216 0.71228 0.8006 0.0
H2896 H 0.83256 0.71272 0.82622 0.0
H2897 H 0.80742 0.69012 0.77972 0.0
H2898 H 0.79696 0.72498 0.8056 0.0
H2899 H 0.78802 0.73524 0.8261 0.0
H2900 H 0.74247 0.69753 0.81667 0.0
H2901 H 0.75116 0.68691 0.79626 0.0
C2902 C 0.75341 0.68603 0.72533 0.0
C2903 C 0.74796 0.67087 0.71965 0.0
C2904 C 0.76331 0.69218 0.73842 0.0
C2905 C 0.76793 0.68329 0.74605 0.0
C2906 C 0.76255 0.66819 0.74033 0.0
C2907 C 0.75277 0.66208 0.72723 0.0
C2908 C 0.77759 0.68932 0.76052 0.0
C2909 C 0.77277 0.69504 0.77257 0.0
C2910 C 0.79067 0.68821 0.76296 0.0
C2911 C 0.79716 0.68362 0.75032 0.0
C2912 C 0.80024 0.67178 0.7519 0.0
C2913 C 0.80633 0.66747 0.73999 0.0
C2914 C 0.80945 0.67495 0.72643 0.0
C2915 C 0.80652 0.68678 0.72479 0.0
C2916 C 0.80045 0.69115 0.73667 0.0
C2917 C 0.7949 0.68946 0.83169 0.0
C2918 C 0.81064 0.69794 0.83528 0.0
C2919 C 0.78902 0.68905 0.81703 0.0
C2920 C 0.79872 0.69733 0.80567 0.0
C2921 C 0.81445 0.70589 0.80921 0.0
C2922 C 0.82037 0.70622 0.82389 0.0
C2923 C 0.79234 0.69633 0.78997 0.0
C2924 C 0.79778 0.69158 0.7777 0.0
C2925 C 0.78009 0.69874 0.78722 0.0
C2926 C 0.77474 0.70511 0.79944 0.0
C2927 C 0.78505 0.71882 0.80796 0.0
C2928 C 0.78003 0.72471 0.81956 0.0
C2929 C 0.76469 0.71703 0.8227 0.0
C2930 C 0.75435 0.70346 0.81422 0.0
C2931 C 0.75931 0.69752 0.80262 0.0
H2932 H 0.76082 0.72161 0.83169 0.0
H2933 H 0.81415 0.67159 0.71722 0.0
H2934 H 0.75523 0.66594 0.64494 0.0
H2935 H 0.76365 0.6598 0.62131 0.0
H2936 H 0.71698 0.62804 0.60579 0.0
H2937 H 0.70861 0.6335 0.6298 0.0
H2938 H 0.73258 0.61632 0.59782 0.0
H2939 H 0.7387 0.66581 0.59317 0.0
H2940 H 0.74775 0.6928 0.60104 0.0
H2941 H 0.79397 0.70353 0.60033 0.0
H2942 H 0.78519 0.67656 0.59263 0.0
H2943 H 0.76901 0.64238 0.51885 0.0
H2944 H 0.7565 0.64503 0.5411 0.0
H2945 H 0.76985 0.61792 0.56621 0.0
H2946 H 0.78228 0.61518 0.544 0.0
H2947 H 0.76889 0.65878 0.56793 0.0
H2948 H 0.7444 0.59909 0.59265 0.0
H2949 H 0.73302 0.57206 0.58322 0.0
H2950 H 0.71918 0.58163 0.54053 0.0
H2951 H 0.73028 0.60865 0.54977 0.0
C2952 C 0.7468 0.65759 0.6365 0.0
C2953 C 0.73128 0.65026 0.63912 0.0
C2954 C 0.7516 0.65415 0.62296 0.0
C2955 C 0.74094 0.64371 0.61158 0.0
C2956 C 0.72543 0.63615 0.61436 0.0
C2957 C 0.72065 0.63931 0.62806 0.0
C2958 C 0.74591 0.6408 0.59672 0.0
C2959 C 0.7405 0.62561 0.59128 0.0
C2960 C 0.75597 0.65289 0.58796 0.0
C2961 C 0.76128 0.66915 0.59243 0.0
C2962 C 0.75079 0.67392 0.59477 0.0
C2963 C 0.75588 0.68921 0.59919 0.0
C2964 C 0.77143 0.69986 0.60121 0.0
C2965 C 0.78193 0.69526 0.59877 0.0
C2966 C 0.77691 0.67998 0.59435 0.0
C2967 C 0.76916 0.63689 0.52909 0.0
C2968 C 0.77661 0.62857 0.5297 0.0
C2969 C 0.762 0.6384 0.54177 0.0
C2970 C 0.76217 0.63162 0.55529 0.0
C2971 C 0.76933 0.62303 0.55582 0.0
C2972 C 0.77642 0.62145 0.54311 0.0
C2973 C 0.75571 0.63433 0.56914 0.0
C2974 C 0.76089 0.64949 0.57443 0.0
C2975 C 0.74511 0.6222 0.57749 0.0
C2976 C 0.73832 0.60594 0.57186 0.0
C2977 C 0.73889 0.59542 0.58127 0.0
C2978 C 0.73249 0.5801 0.57595 0.0
C2979 C 0.72543 0.57514 0.56127 0.0
C2980 C 0.72471 0.58549 0.55188 0.0
C2981 C 0.73108 0.60082 0.55714 0.0
H2982 H 0.72048 0.56328 0.55717 0.0
H2983 H 0.77534 0.71169 0.60465 0.0
H2984 H 0.37149 0.0729 0.64958 0.0
H2985 H 0.38266 0.09163 0.63006 0.0
H2986 H 0.33914 0.07037 0.60502 0.0
H2987 H 0.32782 0.05207 0.62467 0.0
H2988 H 0.36947 0.08 0.58776 0.0
H2989 H 0.34298 0.09671 0.6231 0.0
H2990 H 0.33895 0.10362 0.64913 0.0
H2991 H 0.38633 0.13775 0.65574 0.0
H2992 H 0.39065 0.13085 0.6298 0.0
H2993 H 0.36144 0.12607 0.53651 0.0
H2994 H 0.36009 0.10882 0.55543 0.0
H2995 H 0.39529 0.14706 0.58378 0.0
H2996 H 0.39588 0.16459 0.56537 0.0
H2997 H 0.3747 0.1304 0.60085 0.0
H2998 H 0.40098 0.119 0.56458 0.0
H2999 H 0.4074 0.11275 0.53949 0.0
H3000 H 0.36497 0.07004 0.5352 0.0
H3001 H 0.35819 0.0761 0.5602 0.0
C3002 C 0.36439 0.07212 0.63978 0.0
C3003 C 0.34879 0.06112 0.63863 0.0
C3004 C 0.37077 0.08279 0.62869 0.0
C3005 C 0.36169 0.08229 0.61615 0.0
C3006 C 0.34631 0.07084 0.61461 0.0
C3007 C 0.33986 0.06048 0.62585 0.0
C3008 C 0.36773 0.09439 0.60525 0.0
C3009 C 0.37064 0.09104 0.59052 0.0
C3010 C 0.36981 0.10894 0.60914 0.0
C3011 C 0.36717 0.11314 0.62464 0.0
C3012 C 0.35255 0.10558 0.63018 0.0
C3013 C 0.35021 0.10951 0.64489 0.0
C3014 C 0.36238 0.12108 0.6541 0.0
C3015 C 0.37692 0.12877 0.6486 0.0
C3016 C 0.37932 0.12485 0.6339 0.0
C3017 C 0.36885 0.13088 0.5468 0.0
C3018 C 0.37865 0.14679 0.54944 0.0
C3019 C 0.36827 0.12092 0.55752 0.0
C3020 C 0.37775 0.12656 0.57099 0.0
C3021 C 0.38788 0.1424 0.57347 0.0
C3022 C 0.38831 0.15241 0.56283 0.0
C3023 C 0.37611 0.11599 0.58295 0.0
C3024 C 0.37395 0.11957 0.59798 0.0
C3025 C 0.37511 0.10178 0.57937 0.0
C3026 C 0.37904 0.09806 0.56426 0.0
C3027 C 0.39296 0.10832 0.55825 0.0
C3028 C 0.39668 0.1048 0.54405 0.0
C3029 C 0.38661 0.09101 0.53577 0.0
C3030 C 0.37277 0.08071 0.54165 0.0
C3031 C 0.369 0.08417 0.55585 0.0
H3032 H 0.38954 0.08828 0.52481 0.0
H3033 H 0.36055 0.12412 0.66549 0.0
H3034 H 0.92822 0.28636 0.6707 0.0
H3035 H 0.91201 0.27736 0.64708 0.0
H3036 H 0.92434 0.24326 0.63818 0.0
H3037 H 0.94037 0.25204 0.66195 0.0
H3038 H 0.91842 0.27691 0.61836 0.0
H3039 H 0.89473 0.21159 0.61955 0.0
H3040 H 0.88797 0.19232 0.63853 0.0
H3041 H 0.8806 0.22028 0.67105 0.0
H3042 H 0.8871 0.23961 0.65221 0.0
H3043 H 0.89194 0.23976 0.54512 0.0
H3044 H 0.90421 0.24867 0.57076 0.0
H3045 H 0.86035 0.22831 0.58993 0.0
H3046 H 0.84794 0.21889 0.56422 0.0
H3047 H 0.8792 0.22233 0.60601 0.0
H3048 H 0.88122 0.26656 0.58782 0.0
H3049 H 0.8863 0.28616 0.56965 0.0
H3050 H 0.93377 0.30115 0.57291 0.0
H3051 H 0.92894 0.28148 0.59094 0.0
C3052 C 0.92745 0.27692 0.66373 0.0
C3053 C 0.93554 0.26988 0.66821 0.0
C3054 C 0.9182 0.27181 0.65023 0.0
C3055 C 0.91682 0.25953 0.64094 0.0
C3056 C 0.92501 0.25257 0.6453 0.0
C3057 C 0.93423 0.25765 0.65885 0.0
C3058 C 0.90713 0.25427 0.6265 0.0
C3059 C 0.90982 0.26498 0.61569 0.0
C3060 C 0.89565 0.23877 0.62314 0.0
C3061 C 0.89154 0.22711 0.6345 0.0
C3062 C 0.8916 0.2136 0.63073 0.0
C3063 C 0.88783 0.20266 0.64147 0.0
C3064 C 0.8839 0.20509 0.65601 0.0
C3065 C 0.88369 0.21844 0.65981 0.0
C3066 C 0.88744 0.22939 0.64911 0.0
C3067 C 0.88489 0.23706 0.55479 0.0
C3068 C 0.86896 0.22857 0.55265 0.0
C3069 C 0.89192 0.24229 0.56943 0.0
C3070 C 0.8832 0.23929 0.58224 0.0
C3071 C 0.86729 0.23079 0.58019 0.0
C3072 C 0.86022 0.22553 0.5655 0.0
C3073 C 0.8908 0.24491 0.59775 0.0
C3074 C 0.88773 0.23427 0.60875 0.0
C3075 C 0.9017 0.26054 0.60142 0.0
C3076 C 0.90469 0.27246 0.59065 0.0
C3077 C 0.89273 0.27396 0.58458 0.0
C3078 C 0.89556 0.2851 0.57432 0.0
C3079 C 0.91035 0.29488 0.57011 0.0
C3080 C 0.92232 0.29356 0.57618 0.0
C3081 C 0.91954 0.28243 0.58644 0.0
H3082 H 0.91252 0.30349 0.56216 0.0
H3083 H 0.88099 0.19662 0.66431 0.0
H3084 H 0.31955 0.25157 0.66344 0.0
H3085 H 0.33106 0.24296 0.64474 0.0
H3086 H 0.37489 0.2831 0.65686 0.0
H3087 H 0.36328 0.29209 0.67549 0.0
H3088 H 0.37111 0.27718 0.62673 0.0
H3089 H 0.36634 0.24817 0.66905 0.0
H3090 H 0.35397 0.232 0.69028 0.0
H3091 H 0.32112 0.19621 0.65843 0.0
H3092 H 0.33315 0.21224 0.637 0.0
H3093 H 0.39987 0.23672 0.58095 0.0
H3094 H 0.39622 0.24879 0.60392 0.0
H3095 H 0.34783 0.22291 0.5938 0.0
H3096 H 0.35127 0.21161 0.57046 0.0
H3097 H 0.35946 0.22351 0.62594 0.0
H3098 H 0.36285 0.2556 0.58451 0.0
H3099 H 0.3762 0.27192 0.56367 0.0
H3100 H 0.41363 0.30224 0.59522 0.0
H3101 H 0.40059 0.28592 0.61622 0.0
C3102 C 0.33165 0.25861 0.66219 0.0
C3103 C 0.34051 0.27247 0.67107 0.0
C3104 C 0.33824 0.25361 0.65152 0.0
C3105 C 0.35391 0.26219 0.64965 0.0
C3106 C 0.36279 0.27623 0.65822 0.0
C3107 C 0.35614 0.28135 0.66885 0.0
C3108 C 0.36075 0.25639 0.63854 0.0
C3109 C 0.36887 0.26556 0.62678 0.0
C3110 C 0.35787 0.24123 0.63857 0.0
C3111 C 0.35062 0.23146 0.65141 0.0
C3112 C 0.35642 0.23689 0.66657 0.0
C3113 C 0.34948 0.22774 0.67864 0.0
C3114 C 0.33676 0.21309 0.67571 0.0
C3115 C 0.33098 0.20756 0.66068 0.0
C3116 C 0.33787 0.21666 0.64856 0.0
C3117 C 0.38845 0.23366 0.58351 0.0
C3118 C 0.37588 0.22306 0.57377 0.0
C3119 C 0.38641 0.24049 0.59671 0.0
C3120 C 0.37176 0.23665 0.60052 0.0
C3121 C 0.35921 0.22587 0.5911 0.0
C3122 C 0.36123 0.21931 0.57779 0.0
C3123 C 0.36928 0.24412 0.61401 0.0
C3124 C 0.362 0.23524 0.62618 0.0
C3125 C 0.37311 0.25957 0.61446 0.0
C3126 C 0.38085 0.26944 0.60188 0.0
C3127 C 0.37399 0.26566 0.58697 0.0
C3128 C 0.38149 0.27492 0.57514 0.0
C3129 C 0.39578 0.28807 0.5781 0.0
C3130 C 0.40258 0.29202 0.59293 0.0
C3131 C 0.39514 0.28277 0.6048 0.0
H3132 H 0.40156 0.29523 0.56893 0.0
H3133 H 0.33139 0.20603 0.68507 0.0
H3134 H 0.71556 0.08219 0.6232 0.0
H3135 H 0.72863 0.10002 0.60365 0.0
H3136 H 0.75565 0.07929 0.59569 0.0
H3137 H 0.74299 0.06181 0.61563 0.0
H3138 H 0.77302 0.10874 0.59704 0.0
H3139 H 0.72537 0.07289 0.57049 0.0
H3140 H 0.69748 0.05759 0.56641 0.0
H3141 H 0.6956 0.09872 0.56718 0.0
H3142 H 0.72347 0.11427 0.57147 0.0
H3143 H 0.80028 0.13833 0.52577 0.0
H3144 H 0.78577 0.12075 0.54495 0.0
H3145 H 0.76765 0.14922 0.55817 0.0
H3146 H 0.7826 0.16727 0.53938 0.0
H3147 H 0.74568 0.11663 0.55419 0.0
H3148 H 0.79402 0.15219 0.58027 0.0
H3149 H 0.82198 0.16679 0.58337 0.0
H3150 H 0.8224 0.12487 0.58233 0.0
H3151 H 0.79444 0.11002 0.57898 0.0
C3152 C 0.72424 0.08139 0.61722 0.0
C3153 C 0.72825 0.07061 0.62091 0.0
C3154 C 0.73165 0.09154 0.606 0.0
C3155 C 0.74299 0.09087 0.59804 0.0
C3156 C 0.74694 0.08003 0.60168 0.0
C3157 C 0.73968 0.07002 0.61304 0.0
C3158 C 0.75107 0.10175 0.58626 0.0
C3159 C 0.76701 0.11028 0.58757 0.0
C3160 C 0.74326 0.10405 0.57407 0.0
C3161 C 0.7265 0.09473 0.57146 0.0
C3162 C 0.719 0.07867 0.56991 0.0
C3163 C 0.7032 0.06995 0.56753 0.0
C3164 C 0.69477 0.07718 0.56658 0.0
C3165 C 0.70214 0.09314 0.56795 0.0
C3166 C 0.71794 0.10191 0.57034 0.0
C3167 C 0.79336 0.14099 0.53285 0.0
C3168 C 0.79276 0.15433 0.53114 0.0
C3169 C 0.78499 0.13086 0.54372 0.0
C3170 C 0.77575 0.13379 0.553 0.0
C3171 C 0.77472 0.1468 0.55106 0.0
C3172 C 0.78323 0.15705 0.54029 0.0
C3173 C 0.7675 0.1234 0.56498 0.0
C3174 C 0.7516 0.11502 0.56371 0.0
C3175 C 0.77532 0.12109 0.5771 0.0
C3176 C 0.79214 0.13 0.57923 0.0
C3177 C 0.80008 0.14609 0.58057 0.0
C3178 C 0.81593 0.15441 0.5824 0.0
C3179 C 0.82397 0.14676 0.58301 0.0
C3180 C 0.81616 0.13077 0.58184 0.0
C3181 C 0.80031 0.1224 0.57999 0.0
H3182 H 0.83624 0.15322 0.58442 0.0
H3183 H 0.68254 0.07041 0.56474 0.0
H3184 H 0.91284 0.67687 0.66581 0.0
H3185 H 0.89555 0.6673 0.64291 0.0
H3186 H 0.90793 0.63343 0.63298 0.0
H3187 H 0.92517 0.64281 0.65598 0.0
H3188 H 0.90876 0.65039 0.60777 0.0
H3189 H 0.87489 0.62161 0.64599 0.0
H3190 H 0.86272 0.61824 0.67047 0.0
H3191 H 0.84476 0.64612 0.65697 0.0
H3192 H 0.85702 0.64985 0.63248 0.0
H3193 H 0.85544 0.61355 0.54561 0.0
H3194 H 0.86888 0.61723 0.57023 0.0
H3195 H 0.85249 0.6461 0.58751 0.0
H3196 H 0.83813 0.64163 0.56324 0.0
H3197 H 0.85342 0.63004 0.60939 0.0
H3198 H 0.88814 0.66078 0.57272 0.0
H3199 H 0.9007 0.66565 0.54834 0.0
H3200 H 0.91774 0.63628 0.55904 0.0
H3201 H 0.90508 0.63104 0.58338 0.0
C3202 C 0.91187 0.66736 0.65879 0.0
C3203 C 0.92039 0.6606 0.66272 0.0
C3204 C 0.90194 0.66187 0.64575 0.0
C3205 C 0.90041 0.64961 0.63633 0.0
C3206 C 0.90894 0.64288 0.64015 0.0
C3207 C 0.91874 0.64823 0.6533 0.0
C3208 C 0.8902 0.64412 0.62228 0.0
C3209 C 0.89662 0.64568 0.6081 0.0
C3210 C 0.87444 0.6384 0.62277 0.0
C3211 C 0.867 0.63612 0.63746 0.0
C3212 C 0.86846 0.62713 0.64829 0.0
C3213 C 0.86152 0.62514 0.66216 0.0
C3214 C 0.853 0.63199 0.66529 0.0
C3215 C 0.85137 0.64083 0.65454 0.0
C3216 C 0.8583 0.64288 0.64065 0.0
C3217 C 0.8543 0.62033 0.55475 0.0
C3218 C 0.84578 0.62742 0.55233 0.0
C3219 C 0.86219 0.6226 0.56879 0.0
C3220 C 0.86203 0.63227 0.58061 0.0
C3221 C 0.85292 0.63871 0.57852 0.0
C3222 C 0.84483 0.63627 0.56456 0.0
C3223 C 0.87197 0.63636 0.5948 0.0
C3224 C 0.86553 0.6346 0.60902 0.0
C3225 C 0.88778 0.64213 0.59436 0.0
C3226 C 0.89553 0.64539 0.5798 0.0
C3227 C 0.89448 0.65528 0.56983 0.0
C3228 C 0.90162 0.65811 0.55602 0.0
C3229 C 0.90999 0.65126 0.55214 0.0
C3230 C 0.91124 0.64157 0.56206 0.0
C3231 C 0.90409 0.63866 0.57586 0.0
H3232 H 0.91553 0.65349 0.54146 0.0
H3233 H 0.84763 0.63043 0.67604 0.0
H3234 H 0.95371 0.69597 0.75191 0.0
H3235 H 0.94304 0.70192 0.77395 0.0
H3236 H 0.89859 0.6639 0.75939 0.0
H3237 H 0.90917 0.6578 0.73741 0.0
H3238 H 0.89886 0.69106 0.76811 0.0
H3239 H 0.91751 0.65955 0.78718 0.0
H3240 H 0.93699 0.65272 0.79217 0.0
H3241 H 0.9646 0.69528 0.81882 0.0
H3242 H 0.94536 0.70246 0.81381 0.0
H3243 H 0.85739 0.6793 0.83358 0.0
H3244 H 0.87007 0.67723 0.8114 0.0
H3245 H 0.91356 0.71029 0.83368 0.0
H3246 H 0.90098 0.71167 0.85641 0.0
H3247 H 0.91539 0.68798 0.82086 0.0
H3248 H 0.89647 0.71912 0.80367 0.0
H3249 H 0.87741 0.72653 0.79883 0.0
H3250 H 0.85114 0.68624 0.76861 0.0
H3251 H 0.86994 0.67846 0.77344 0.0
C3252 C 0.94166 0.6889 0.75339 0.0
C3253 C 0.93228 0.67638 0.74296 0.0
C3254 C 0.9356 0.6923 0.76598 0.0
C3255 C 0.92005 0.6833 0.7683 0.0
C3256 C 0.91062 0.67098 0.75777 0.0
C3257 C 0.91669 0.66748 0.74527 0.0
C3258 C 0.9136 0.68651 0.78188 0.0
C3259 C 0.90235 0.69028 0.77965 0.0
C3260 C 0.91854 0.68594 0.79692 0.0
C3261 C 0.93008 0.68161 0.79997 0.0
C3262 C 0.9278 0.66751 0.79399 0.0
C3263 C 0.93878 0.66356 0.79685 0.0
C3264 C 0.95205 0.67358 0.80577 0.0
C3265 C 0.95433 0.68754 0.81189 0.0
C3266 C 0.94339 0.69155 0.80905 0.0
C3267 C 0.86967 0.68603 0.83388 0.0
C3268 C 0.87815 0.6956 0.84687 0.0
C3269 C 0.8769 0.68501 0.82105 0.0
C3270 C 0.89278 0.6938 0.82073 0.0
C3271 C 0.90129 0.70345 0.83362 0.0
C3272 C 0.89406 0.70434 0.84656 0.0
C3273 C 0.90046 0.69241 0.80717 0.0
C3274 C 0.91196 0.68896 0.80936 0.0
C3275 C 0.89584 0.69343 0.7921 0.0
C3276 C 0.88457 0.69815 0.78902 0.0
C3277 C 0.88659 0.71179 0.79607 0.0
C3278 C 0.87583 0.71606 0.79332 0.0
C3279 C 0.86305 0.70684 0.78345 0.0
C3280 C 0.86104 0.69336 0.77627 0.0
C3281 C 0.87175 0.68902 0.77899 0.0
H3282 H 0.85473 0.71016 0.78134 0.0
H3283 H 0.96054 0.6705 0.80797 0.0
H3284 H 0.29827 0.26813 0.75057 0.0
H3285 H 0.29046 0.24836 0.769 0.0
H3286 H 0.32883 0.24369 0.75905 0.0
H3287 H 0.33687 0.26357 0.74094 0.0
H3288 H 0.29916 0.21514 0.75859 0.0
H3289 H 0.33217 0.26253 0.78971 0.0
H3290 H 0.3397 0.28843 0.80031 0.0
H3291 H 0.29663 0.27063 0.82025 0.0
H3292 H 0.28877 0.24464 0.80957 0.0
H3293 H 0.30918 0.175 0.81584 0.0
H3294 H 0.31111 0.19273 0.7972 0.0
H3295 H 0.28072 0.20199 0.8221 0.0
H3296 H 0.27968 0.18514 0.84152 0.0
H3297 H 0.30254 0.22735 0.81448 0.0
H3298 H 0.26984 0.17999 0.78657 0.0
H3299 H 0.26068 0.15377 0.77575 0.0
H3300 H 0.29994 0.17035 0.74928 0.0
H3301 H 0.30946 0.19665 0.7601 0.0
C3302 C 0.30504 0.2629 0.75236 0.0
C3303 C 0.3182 0.26741 0.74436 0.0
C3304 C 0.30057 0.25164 0.76286 0.0
C3305 C 0.30907 0.2446 0.76531 0.0
C3306 C 0.32211 0.24899 0.75725 0.0
C3307 C 0.32673 0.2604 0.74698 0.0
C3308 C 0.30456 0.2327 0.77636 0.0
C3309 C 0.29995 0.21776 0.77083 0.0
C3310 C 0.30505 0.23609 0.79223 0.0
C3311 C 0.30981 0.25169 0.79869 0.0
C3312 C 0.32425 0.26417 0.79623 0.0
C3313 C 0.3286 0.27886 0.80228 0.0
C3314 C 0.31863 0.28119 0.8109 0.0
C3315 C 0.30433 0.26882 0.81354 0.0
C3316 C 0.29992 0.25411 0.8075 0.0
C3317 C 0.30299 0.18088 0.81748 0.0
C3318 C 0.29433 0.17865 0.83029 0.0
C3319 C 0.3039 0.19085 0.80662 0.0
C3320 C 0.29585 0.19854 0.80805 0.0
C3321 C 0.28698 0.19615 0.82068 0.0
C3322 C 0.28627 0.18635 0.8317 0.0
C3323 C 0.2974 0.20967 0.79681 0.0
C3324 C 0.30146 0.22453 0.80226 0.0
C3325 C 0.2961 0.20611 0.78082 0.0
C3326 C 0.29042 0.1903 0.77424 0.0
C3327 C 0.27658 0.17804 0.77852 0.0
C3328 C 0.27131 0.16316 0.77238 0.0
C3329 C 0.27974 0.16039 0.76186 0.0
C3330 C 0.29343 0.17251 0.75743 0.0
C3331 C 0.29876 0.18741 0.76355 0.0
H3332 H 0.27564 0.14886 0.75711 0.0
H3333 H 0.32202 0.29257 0.81558 0.0
H3334 H 0.74085 0.08783 0.70723 0.0
H3335 H 0.7577 0.094 0.72991 0.0
H3336 H 0.76176 0.05467 0.7185 0.0
H3337 H 0.74429 0.04804 0.69599 0.0
H3338 H 0.75874 0.05624 0.74748 0.0
H3339 H 0.79132 0.09229 0.71376 0.0
H3340 H 0.79961 0.11214 0.69524 0.0
H3341 H 0.79705 0.14256 0.72886 0.0
H3342 H 0.78853 0.12282 0.74753 0.0
H3343 H 0.81939 0.08697 0.80756 0.0
H3344 H 0.80696 0.07883 0.78178 0.0
H3345 H 0.78602 0.10575 0.78941 0.0
H3346 H 0.79756 0.11326 0.81531 0.0
H3347 H 0.80109 0.1094 0.76051 0.0
H3348 H 0.76523 0.07067 0.79271 0.0
H3349 H 0.75811 0.05062 0.81086 0.0
H3350 H 0.76902 0.02506 0.77885 0.0
H3351 H 0.77644 0.0451 0.7606 0.0
C3352 C 0.74538 0.08052 0.70948 0.0
C3353 C 0.74129 0.06749 0.69976 0.0
C3354 C 0.75511 0.08412 0.72242 0.0
C3355 C 0.76131 0.07502 0.72576 0.0
C3356 C 0.7572 0.06193 0.71612 0.0
C3357 C 0.74723 0.05816 0.70326 0.0
C3358 C 0.77164 0.07898 0.73964 0.0
C3359 C 0.76821 0.0678 0.75014 0.0
C3360 C 0.78402 0.09405 0.7432 0.0
C3361 C 0.7892 0.10602 0.73203 0.0
C3362 C 0.79243 0.10318 0.71718 0.0
C3363 C 0.79718 0.11442 0.70666 0.0
C3364 C 0.79883 0.1286 0.71087 0.0
C3365 C 0.79576 0.13157 0.72562 0.0
C3366 C 0.791 0.12037 0.73619 0.0
C3367 C 0.81202 0.09106 0.80384 0.0
C3368 C 0.80959 0.10087 0.81358 0.0
C3369 C 0.80504 0.08647 0.78906 0.0
C3370 C 0.79566 0.09177 0.78374 0.0
C3371 C 0.79336 0.10169 0.79329 0.0
C3372 C 0.80009 0.10605 0.80809 0.0
C3373 C 0.78785 0.08681 0.76834 0.0
C3374 C 0.7918 0.09781 0.75761 0.0
C3375 C 0.77615 0.07155 0.76447 0.0
C3376 C 0.77157 0.05946 0.77538 0.0
C3377 C 0.76625 0.06084 0.78961 0.0
C3378 C 0.76213 0.04947 0.7999 0.0
C3379 C 0.76316 0.0366 0.79603 0.0
C3380 C 0.76826 0.03505 0.78184 0.0
C3381 C 0.77242 0.04641 0.77152 0.0
H3382 H 0.75997 0.0278 0.80401 0.0
H3383 H 0.80251 0.13728 0.7027 0.0
H3384 H 0.05607 0.35729 0.02698 0.0
H3385 H 0.0728 0.35054 0.04065 0.0
H3386 H 0.03448 0.31601 0.06294 0.0
H3387 H 0.01779 0.32264 0.04943 0.0
H3388 H 0.05848 0.33418 0.08314 0.0
H3389 H 0.04945 0.3058 0.03472 0.0
H3390 H 0.04905 0.30248 0.00666 0.0
H3391 H 0.09723 0.33363 0.00805 0.0
H3392 H 0.09789 0.3373 0.03612 0.0
H3393 H 0.09089 0.29471 0.11653 0.0
H3394 H 0.07491 0.3011 0.10115 0.0
H3395 H 0.11391 0.33282 0.07757 0.0
H3396 H 0.1298 0.32602 0.09242 0.0
H3397 H 0.09022 0.31688 0.05785 0.0
H3398 H 0.0996 0.34528 0.10598 0.0
H3399 H 0.10036 0.34905 0.13403 0.0
H3400 H 0.05205 0.31872 0.13324 0.0
H3401 H 0.05104 0.3146 0.10518 0.0
C3402 C 0.05122 0.34819 0.03471 0.0
C3403 C 0.03561 0.34051 0.03712 0.0
C3404 C 0.06077 0.34432 0.04248 0.0
C3405 C 0.05486 0.33275 0.05279 0.0
C3406 C 0.03928 0.325 0.05508 0.0
C3407 C 0.02975 0.32879 0.04729 0.0
C3408 C 0.06489 0.32891 0.06159 0.0
C3409 C 0.06529 0.33023 0.07762 0.0
C3410 C 0.07407 0.32415 0.05437 0.0
C3411 C 0.07369 0.32196 0.0375 0.0
C3412 C 0.05994 0.31205 0.02903 0.0
C3413 C 0.05967 0.31008 0.01313 0.0
C3414 C 0.0731 0.31787 0.00557 0.0
C3415 C 0.08684 0.32762 0.01391 0.0
C3416 C 0.08717 0.32964 0.02982 0.0
C3417 C 0.09604 0.30294 0.10798 0.0
C3418 C 0.11166 0.30996 0.10582 0.0
C3419 C 0.08692 0.3067 0.09929 0.0
C3420 C 0.09325 0.31763 0.08836 0.0
C3421 C 0.10878 0.32442 0.08599 0.0
C3422 C 0.11788 0.32064 0.09462 0.0
C3423 C 0.08373 0.32203 0.07943 0.0
C3424 C 0.08344 0.32086 0.06339 0.0
C3425 C 0.0747 0.32702 0.08663 0.0
C3426 C 0.07527 0.32952 0.1035 0.0
C3427 C 0.08915 0.33932 0.1118 0.0
C3428 C 0.08963 0.34154 0.1277 0.0
C3429 C 0.07627 0.3341 0.13541 0.0
C3430 C 0.0624 0.32446 0.12724 0.0
C3431 C 0.06186 0.32219 0.11134 0.0
H3432 H 0.07666 0.33583 0.14772 0.0
H3433 H 0.07287 0.31633 0.99326 0.0
H3434 H 0.62371 0.67839 0.07109 0.0
H3435 H 0.6394 0.70389 0.084 0.0
H3436 H 0.67291 0.6926 0.0979 0.0
H3437 H 0.65741 0.66708 0.08467 0.0
H3438 H 0.6627 0.70743 0.1218 0.0
H3439 H 0.68379 0.71399 0.07281 0.0
H3440 H 0.68279 0.71144 0.04466 0.0
H3441 H 0.66105 0.73781 0.04215 0.0
H3442 H 0.66169 0.74031 0.07031 0.0
H3443 H 0.70842 0.78616 0.15016 0.0
H3444 H 0.70133 0.7611 0.13789 0.0
H3445 H 0.67027 0.76424 0.10617 0.0
H3446 H 0.67786 0.78942 0.11773 0.0
H3447 H 0.68424 0.75317 0.09154 0.0
H3448 H 0.65937 0.74337 0.13953 0.0
H3449 H 0.65768 0.7441 0.16752 0.0
H3450 H 0.68453 0.72304 0.17191 0.0
H3451 H 0.68656 0.72238 0.14396 0.0
C3452 C 0.63438 0.68129 0.07694 0.0
C3453 C 0.63935 0.67075 0.07685 0.0
C3454 C 0.64334 0.69586 0.08425 0.0
C3455 C 0.6573 0.70007 0.0918 0.0
C3456 C 0.66216 0.6895 0.09208 0.0
C3457 C 0.65333 0.67499 0.08451 0.0
C3458 C 0.66671 0.71563 0.09926 0.0
C3459 C 0.66774 0.71749 0.11525 0.0
C3460 C 0.67303 0.72863 0.09062 0.0
C3461 C 0.67268 0.72723 0.07368 0.0
C3462 C 0.67867 0.71913 0.06626 0.0
C3463 C 0.67819 0.71772 0.0503 0.0
C3464 C 0.67183 0.72444 0.04162 0.0
C3465 C 0.66596 0.73261 0.04889 0.0
C3466 C 0.6664 0.73404 0.06485 0.0
C3467 C 0.70025 0.78158 0.14043 0.0
C3468 C 0.69356 0.7897 0.13506 0.0
C3469 C 0.69609 0.76719 0.13353 0.0
C3470 C 0.68509 0.76067 0.12124 0.0
C3471 C 0.67875 0.76898 0.11565 0.0
C3472 C 0.68298 0.78333 0.12241 0.0
C3473 C 0.67978 0.7451 0.11419 0.0
C3474 C 0.67953 0.7432 0.09819 0.0
C3475 C 0.67402 0.73206 0.12286 0.0
C3476 C 0.67328 0.73301 0.13969 0.0
C3477 C 0.66507 0.73907 0.14649 0.0
C3478 C 0.66402 0.73943 0.16234 0.0
C3479 C 0.671 0.73362 0.17148 0.0
C3480 C 0.67915 0.72755 0.16481 0.0
C3481 C 0.68026 0.72719 0.14898 0.0
H3482 H 0.67003 0.73372 0.18372 0.0
H3483 H 0.67148 0.72333 0.02927 0.0
H3484 H 0.32862 0.9779 0.02637 0.0
H3485 H 0.30556 0.96875 0.04019 0.0
H3486 H 0.30353 0.9259 0.04542 0.0
H3487 H 0.32667 0.93495 0.03156 0.0
H3488 H 0.27638 0.94368 0.03514 0.0
H3489 H 0.29316 0.91648 0.08233 0.0
H3490 H 0.31632 0.91923 0.09491 0.0
H3491 H 0.34151 0.96651 0.08501 0.0
H3492 H 0.31846 0.9641 0.07259 0.0
H3493 H 0.21476 0.89465 0.07934 0.0
H3494 H 0.2367 0.90616 0.06355 0.0
H3495 H 0.26091 0.94366 0.09777 0.0
H3496 H 0.239 0.93214 0.11367 0.0
H3497 H 0.27749 0.93053 0.08876 0.0
H3498 H 0.24884 0.95022 0.06559 0.0
H3499 H 0.22615 0.94882 0.0535 0.0
H3500 H 0.22558 0.91951 0.01643 0.0
H3501 H 0.24816 0.92056 0.02842 0.0
C3502 C 0.32322 0.96647 0.03035 0.0
C3503 C 0.32953 0.95717 0.02798 0.0
C3504 C 0.31001 0.96126 0.03818 0.0
C3505 C 0.30297 0.94674 0.04392 0.0
C3506 C 0.30893 0.93721 0.04117 0.0
C3507 C 0.3221 0.94238 0.03322 0.0
C3508 C 0.28977 0.94186 0.05335 0.0
C3509 C 0.27657 0.94076 0.04685 0.0
C3510 C 0.29022 0.93839 0.06872 0.0
C3511 C 0.30411 0.94005 0.07639 0.0
C3512 C 0.30363 0.92747 0.0829 0.0
C3513 C 0.31674 0.92897 0.08999 0.0
C3514 C 0.33039 0.94302 0.09071 0.0
C3515 C 0.33094 0.95562 0.08439 0.0
C3516 C 0.31786 0.95419 0.07731 0.0
C3517 C 0.22472 0.90542 0.0834 0.0
C3518 C 0.22523 0.91253 0.09769 0.0
C3519 C 0.23719 0.912 0.07437 0.0
C3520 C 0.25038 0.92575 0.07951 0.0
C3521 C 0.2508 0.93304 0.09363 0.0
C3522 C 0.23827 0.92653 0.10262 0.0
C3523 C 0.26397 0.93208 0.07047 0.0
C3524 C 0.27726 0.93344 0.07705 0.0
C3525 C 0.26366 0.93597 0.05525 0.0
C3526 C 0.25012 0.93536 0.04798 0.0
C3527 C 0.24381 0.94337 0.05493 0.0
C3528 C 0.23098 0.94266 0.04808 0.0
C3529 C 0.22441 0.93406 0.03423 0.0
C3530 C 0.23068 0.92617 0.02717 0.0
C3531 C 0.2435 0.92683 0.03398 0.0
H3532 H 0.21448 0.93352 0.02894 0.0
H3533 H 0.34052 0.94415 0.0962 0.0
H3534 H 0.37733 0.0478 0.01228 0.0
H3535 H 0.36811 0.06444 0.00376 0.0
H3536 H 0.3377 0.02911 0.96973 0.0
H3537 H 0.34676 0.01259 0.97806 0.0
H3538 H 0.35307 0.05697 0.95801 0.0
H3539 H 0.32454 0.03477 0.00221 0.0
H3540 H 0.3215 0.02906 0.02933 0.0
H3541 H 0.34537 0.07713 0.04283 0.0
H3542 H 0.34872 0.08312 0.01576 0.0
H3543 H 0.29986 0.07508 0.93367 0.0
H3544 H 0.31052 0.0619 0.94694 0.0
H3545 H 0.33752 0.10202 0.97756 0.0
H3546 H 0.32639 0.11516 0.9647 0.0
H3547 H 0.3268 0.07498 0.99214 0.0
H3548 H 0.35336 0.09697 0.94747 0.0
H3549 H 0.35495 0.10219 0.92021 0.0
H3550 H 0.33432 0.05421 0.90749 0.0
H3551 H 0.33239 0.04867 0.9347 0.0
C3552 C 0.36872 0.04365 0.00296 0.0
C3553 C 0.36276 0.02889 0.99586 0.0
C3554 C 0.36343 0.05312 -0.00185 0.0
C3555 C 0.35219 0.04796 0.98615 0.0
C3556 C 0.34641 0.03332 0.97898 0.0
C3557 C 0.35158 0.02387 0.98381 0.0
C3558 C 0.34625 0.05761 0.9809 0.0
C3559 C 0.34728 0.06086 0.96547 0.0
C3560 C 0.33903 0.06298 0.99073 0.0
C3561 C 0.33706 0.0594 0.00698 0.0
C3562 C 0.32927 0.04412 0.01097 0.0
C3563 C 0.32746 0.04084 0.02633 0.0
C3564 C 0.33329 0.05273 0.0378 0.0
C3565 C 0.3409 0.06793 0.03393 0.0
C3566 C 0.34275 0.07128 0.01858 0.0
C3567 C 0.3077 0.08097 0.94351 0.0
C3568 C 0.31237 0.09622 0.94805 0.0
C3569 C 0.31391 0.07347 0.95099 0.0
C3570 C 0.32504 0.08112 0.963 0.0
C3571 C 0.32903 0.09598 0.96822 0.0
C3572 C 0.32275 0.10349 0.96079 0.0
C3573 C 0.3333 0.07396 0.9692 0.0
C3574 C 0.33278 0.07126 0.98477 0.0
C3575 C 0.34101 0.06907 0.95951 0.0
C3576 C 0.34265 0.0724 0.94313 0.0
C3577 C 0.34912 0.08753 0.93886 0.0
C3578 C 0.35008 0.09054 0.92342 0.0
C3579 C 0.34472 0.07854 0.91212 0.0
C3580 C 0.33847 0.0635 0.91626 0.0
C3581 C 0.33746 0.06041 0.93169 0.0
H3582 H 0.34544 0.08089 0.90017 0.0
H3583 H 0.33187 0.05016 0.04968 0.0
H3584 H 0.98149 0.30249 -0.0022 0.0
H3585 H 0.96929 0.27735 0.9838 0.0
H3586 H 0.93261 0.28336 0.96793 0.0
H3587 H 0.9444 0.30813 0.98239 0.0
H3588 H 0.92131 0.25608 0.97606 0.0
H3589 H 0.96255 0.28777 0.94504 0.0
H3590 H 0.98927 0.30542 0.93971 0.0
H3591 H 0.00072 0.27216 0.95226 0.0
H3592 H 0.97409 0.25438 0.95784 0.0
H3593 H 0.8901 0.20633 0.9107 0.0
H3594 H 0.90783 0.23043 0.92511 0.0
H3595 H 0.92678 0.20792 0.94992 0.0
H3596 H 0.90863 0.18349 0.93589 0.0
H3597 H 0.94818 0.24168 0.93887 0.0
H3598 H 0.9053 0.20967 0.96886 0.0
H3599 H 0.8779 0.19237 0.97159 0.0
H3600 H 0.86925 0.22746 0.95868 0.0
H3601 H 0.89658 0.24487 0.95558 0.0
C3602 C 0.97082 0.29843 0.99132 0.0
C3603 C 0.9639 0.30728 0.9912 0.0
C3604 C 0.9639 0.28409 0.98326 0.0
C3605 C 0.95012 0.27852 0.97463 0.0
C3606 C 0.94322 0.28737 0.97453 0.0
C3607 C 0.94998 0.30156 0.98279 0.0
C3608 C 0.94264 0.26338 0.96586 0.0
C3609 C 0.92724 0.25304 0.96791 0.0
C3610 C 0.95038 0.25917 0.9554 0.0
C3611 C 0.96637 0.26983 0.95203 0.0
C3612 C 0.97079 0.28427 0.94677 0.0
C3613 C 0.98592 0.29429 0.94368 0.0
C3614 C 0.9967 0.28993 0.94569 0.0
C3615 C 0.99236 0.27553 0.95074 0.0
C3616 C 0.97726 0.26548 0.95386 0.0
C3617 C 0.89812 0.2065 0.91911 0.0
C3618 C 0.89776 0.19295 0.92238 0.0
C3619 C 0.90832 0.2203 0.92722 0.0
C3620 C 0.91847 0.22085 0.9386 0.0
C3621 C 0.91902 0.20765 0.94111 0.0
C3622 C 0.90867 0.19374 0.93308 0.0
C3623 C 0.92699 0.23475 0.94901 0.0
C3624 C 0.94247 0.24478 0.94724 0.0
C3625 C 0.91933 0.23882 0.9596 0.0
C3626 C 0.90296 0.22852 0.96186 0.0
C3627 C 0.89754 0.21365 0.96649 0.0
C3628 C 0.88202 0.20383 0.96811 0.0
C3629 C 0.87184 0.2088 0.96528 0.0
C3630 C 0.87715 0.22362 0.96086 0.0
C3631 C 0.89265 0.23347 0.95918 0.0
H3632 H 0.85983 0.20118 0.96653 0.0
H3633 H 0.0084 0.2977 0.94329 0.0
H3634 H 0.67874 0.62322 0.04112 0.0
H3635 H 0.70298 0.63185 0.02928 0.0
H3636 H 0.6973 0.66496 0.00571 0.0
H3637 H 0.67331 0.65656 0.01746 0.0
H3638 H 0.70479 0.6476 0.98669 0.0
H3639 H 0.72151 0.67671 0.03562 0.0
H3640 H 0.72373 0.67995 0.06378 0.0
H3641 H 0.74507 0.65316 0.06546 0.0
H3642 H 0.74278 0.64958 0.03729 0.0
H3643 H 0.77495 0.69507 0.95731 0.0
H3644 H 0.75291 0.6863 0.9726 0.0
H3645 H 0.76586 0.65843 -0.0032 0.0
H3646 H 0.78844 0.66776 0.98205 0.0
H3647 H 0.75462 0.671 0.01589 0.0
H3648 H 0.73916 0.64271 0.96726 0.0
H3649 H 0.73731 0.63942 0.93911 0.0
H3650 H 0.71339 0.66369 0.93679 0.0
H3651 H 0.71531 0.66733 0.96494 0.0
C3652 C 0.68271 0.63236 0.03345 0.0
C3653 C 0.67412 0.6392 0.03022 0.0
C3654 C 0.69655 0.6373 0.02674 0.0
C3655 C 0.70191 0.64906 0.01665 0.0
C3656 C 0.69334 0.65586 0.01344 0.0
C3657 C 0.67965 0.65106 0.02021 0.0
C3658 C 0.71629 0.6542 0.00908 0.0
C3659 C 0.7157 0.65283 0.99306 0.0
C3660 C 0.73044 0.66059 0.01744 0.0
C3661 C 0.7318 0.66272 0.03436 0.0
C3662 C 0.72654 0.67138 0.042 0.0
C3663 C 0.72784 0.67331 0.05796 0.0
C3664 C 0.73449 0.66672 0.06641 0.0
C3665 C 0.73989 0.65823 0.0589 0.0
C3666 C 0.7386 0.65625 0.04294 0.0
C3667 C 0.77335 0.68737 0.96612 0.0
C3668 C 0.78342 0.68202 0.96835 0.0
C3669 C 0.76063 0.68222 0.97474 0.0
C3670 C 0.75756 0.67144 0.9856 0.0
C3671 C 0.76794 0.66664 0.98839 0.0
C3672 C 0.78076 0.67188 0.97984 0.0
C3673 C 0.74315 0.66469 0.99347 0.0
C3674 C 0.74371 0.66568 0.00952 0.0
C3675 C 0.72892 0.65781 0.98515 0.0
C3676 C 0.72749 0.6554 0.96821 0.0
C3677 C 0.73358 0.64742 0.96075 0.0
C3678 C 0.73252 0.64549 0.94479 0.0
C3679 C 0.72527 0.65137 0.93617 0.0
C3680 C 0.71902 0.65915 0.94349 0.0
C3681 C 0.72007 0.66114 0.95945 0.0
H3682 H 0.72448 0.64988 0.92381 0.0
H3683 H 0.73549 0.66823 0.07876 0.0
H3684 H 0.92973 0.6243 0.02165 0.0
H3685 H 0.91853 0.63528 0.00534 0.0
H3686 H 0.96296 0.66739 0.99064 0.0
H3687 H 0.97423 0.65699 0.00743 0.0
H3688 H 0.94886 0.68156 0.99458 0.0
H3689 H 0.93572 0.63363 0.96825 0.0
H3690 H 0.92485 0.6057 0.96538 0.0
H3691 H 0.88083 0.59833 0.97456 0.0
H3692 H 0.89148 0.62622 0.97766 0.0
H3693 H 0.90086 0.67556 0.92026 0.0
H3694 H 0.9149 0.66692 0.93577 0.0
H3695 H 0.9094 0.68893 0.9762 0.0
H3696 H 0.89542 0.69757 0.9608 0.0
H3697 H 0.90518 0.64802 0.95796 0.0
H3698 H 0.93922 0.70045 0.00181 0.0
H3699 H 0.95186 0.72859 0.00258 0.0
H3700 H 0.95743 0.72739 0.95432 0.0
H3701 H 0.94502 0.69928 0.95329 0.0
C3702 C 0.93708 0.63373 0.01497 0.0
C3703 C 0.95284 0.63976 0.01579 0.0
C3704 C 0.93067 0.63995 0.00558 0.0
C3705 C 0.93986 0.65202 -0.00347 0.0
C3706 C 0.95562 0.65812 -0.0025 0.0
C3707 C 0.96205 0.65213 0.0071 0.0
C3708 C 0.93315 0.65829 0.98598 0.0
C3709 C 0.93931 0.6742 0.98658 0.0
C3710 C 0.92087 0.64877 0.97529 0.0
C3711 C 0.91443 0.632 0.97331 0.0
C3712 C 0.92374 0.62605 0.96974 0.0
C3713 C 0.91762 0.61023 0.96806 0.0
C3714 C 0.90217 0.60025 0.96982 0.0
C3715 C 0.8928 0.60607 0.97322 0.0
C3716 C 0.89887 0.62188 0.97492 0.0
C3717 C 0.9028 0.67867 0.93243 0.0
C3718 C 0.89714 0.68733 0.93929 0.0
C3719 C 0.91079 0.67373 0.94128 0.0
C3720 C 0.91327 0.67735 0.95713 0.0
C3721 C 0.90787 0.68622 0.96396 0.0
C3722 C 0.89993 0.69121 0.95512 0.0
C3723 C 0.92084 0.67123 0.96667 0.0
C3724 C 0.91477 0.65536 0.96593 0.0
C3725 C 0.93346 0.68081 0.97692 0.0
C3726 C 0.94105 0.69774 0.97746 0.0
C3727 C 0.94319 0.7062 0.99137 0.0
C3728 C 0.95031 0.72214 0.99185 0.0
C3729 C 0.9554 0.72977 0.9785 0.0
C3730 C 0.95342 0.72147 0.96464 0.0
C3731 C 0.94633 0.70553 0.9641 0.0
H3732 H 0.9609 0.74211 0.9789 0.0
H3733 H 0.89745 0.58801 0.96853 0.0
H3734 H 0.37403 0.32696 0.98007 0.0
H3735 H 0.3648 0.30151 0.96754 0.0
H3736 H 0.32247 0.29826 0.95402 0.0
H3737 H 0.33155 0.3236 0.96651 0.0
H3738 H 0.31827 0.2718 0.96553 0.0
H3739 H 0.3482 0.30667 0.92844 0.0
H3740 H 0.37117 0.32844 0.91911 0.0
H3741 H 0.39637 0.30635 0.92835 0.0
H3742 H 0.37359 0.28453 0.93795 0.0
H3743 H 0.29068 0.20885 0.90979 0.0
H3744 H 0.2993 0.2341 0.92253 0.0
H3745 H 0.34267 0.23903 0.93471 0.0
H3746 H 0.33415 0.21389 0.92216 0.0
H3747 H 0.34614 0.26473 0.92375 0.0
H3748 H 0.31655 0.22995 0.96088 0.0
H3749 H 0.29378 0.2081 0.97037 0.0
H3750 H 0.26819 0.22985 0.96146 0.0
H3751 H 0.29077 0.25175 0.95168 0.0
C3752 C 0.36275 0.3208 0.97446 0.0
C3753 C 0.35355 0.3273 0.97421 0.0
C3754 C 0.35751 0.3063 0.96728 0.0
C3755 C 0.343 0.29809 0.95976 0.0
C3756 C 0.3337 0.30443 0.95976 0.0
C3757 C 0.33894 0.31893 0.96684 0.0
C3758 C 0.33755 0.28295 0.95172 0.0
C3759 C 0.32425 0.27026 0.95627 0.0
C3760 C 0.34554 0.28095 0.93985 0.0
C3761 C 0.35923 0.29404 0.93406 0.0
C3762 C 0.35867 0.30651 0.9286 0.0
C3763 C 0.37165 0.31885 0.92324 0.0
C3764 C 0.38523 0.3188 0.92318 0.0
C3765 C 0.38585 0.30639 0.92843 0.0
C3766 C 0.37291 0.29402 0.93382 0.0
C3767 C 0.30203 0.21531 0.91524 0.0
C3768 C 0.31177 0.20943 0.91489 0.0
C3769 C 0.30694 0.22971 0.9225 0.0
C3770 C 0.3216 0.23838 0.92963 0.0
C3771 C 0.33135 0.23257 0.9292 0.0
C3772 C 0.32648 0.21822 0.92196 0.0
C3773 C 0.32688 0.25354 0.93758 0.0
C3774 C 0.34015 0.26625 0.93301 0.0
C3775 C 0.31888 0.25553 0.94946 0.0
C3776 C 0.30531 0.24241 0.95539 0.0
C3777 C 0.30603 0.23002 0.96082 0.0
C3778 C 0.29317 0.21763 0.96627 0.0
C3779 C 0.27953 0.21756 0.96648 0.0
C3780 C 0.27875 0.2299 0.96127 0.0
C3781 C 0.29158 0.24231 0.95577 0.0
H3782 H 0.26958 0.20796 0.97071 0.0
H3783 H 0.39526 0.32836 0.91902 0.0
H3784 H 0.6742 0.02122 0.01912 0.0
H3785 H 0.69725 0.03224 0.00513 0.0
H3786 H 0.69831 0.07509 0.00541 0.0
H3787 H 0.67507 0.06408 0.01931 0.0
H3788 H 0.70205 0.06618 0.97728 0.0
H3789 H 0.72365 0.07141 0.02795 0.0
H3790 H 0.72643 0.06274 0.05297 0.0
H3791 H 0.73638 0.03071 0.03085 0.0
H3792 H 0.73346 0.03904 0.00566 0.0
H3793 H 0.7742 0.10933 0.9482 0.0
H3794 H 0.75359 0.09987 0.96556 0.0
H3795 H 0.75147 0.05649 0.96474 0.0
H3796 H 0.77213 0.06589 0.94725 0.0
H3797 H 0.74867 0.06605 0.9936 0.0
H3798 H 0.72624 0.05994 0.94313 0.0
H3799 H 0.72337 0.06825 0.91793 0.0
H3800 H 0.71464 0.10139 0.93957 0.0
H3801 H 0.71769 0.09343 0.96493 0.0
C3802 C 0.67936 0.03303 0.01632 0.0
C3803 C 0.67275 0.04176 0.02032 0.0
C3804 C 0.69261 0.03934 0.00838 0.0
C3805 C 0.69958 0.05453 0.00434 0.0
C3806 C 0.69312 0.06335 0.00845 0.0
C3807 C 0.67986 0.05705 0.01642 0.0
C3808 C 0.71315 0.06093 0.99515 0.0
C3809 C 0.71234 0.0664 0.98098 0.0
C3810 C 0.7264 0.06078 -0.00023 0.0
C3811 C 0.7282 0.05576 0.01491 0.0
C3812 C 0.72631 0.06243 0.02841 0.0
C3813 C 0.72793 0.0576 0.04263 0.0
C3814 C 0.73154 0.04616 0.0435 0.0
C3815 C 0.73357 0.03956 0.03016 0.0
C3816 C 0.73195 0.04435 0.01591 0.0
C3817 C 0.76932 0.09775 0.95167 0.0
C3818 C 0.77464 0.08827 0.94619 0.0
C3819 C 0.75758 0.09239 0.96163 0.0
C3820 C 0.75085 0.07741 0.96624 0.0
C3821 C 0.7565 0.06809 0.96128 0.0
C3822 C 0.7683 0.07347 0.95131 0.0
C3823 C 0.73756 0.07135 0.9758 0.0
C3824 C 0.7384 0.0659 0.98997 0.0
C3825 C 0.72429 0.07145 0.97118 0.0
C3826 C 0.72234 0.07619 0.95594 0.0
C3827 C 0.72383 0.06908 0.94253 0.0
C3828 C 0.72215 0.07372 0.92821 0.0
C3829 C 0.71887 0.08537 0.92715 0.0
C3830 C 0.71721 0.09238 0.94041 0.0
C3831 C 0.7189 0.0878 0.95475 0.0
H3832 H 0.71757 0.08894 0.91606 0.0
H3833 H 0.7328 0.04243 0.05452 0.0
H3834 H 0.62303 0.94875 0.04756 0.0
H3835 H 0.63187 0.93229 0.0573 0.0
H3836 H 0.67513 0.97217 0.07179 0.0
H3837 H 0.66643 0.98864 0.06213 0.0
H3838 H 0.67816 0.94885 0.05845 0.0
H3839 H 0.64921 0.95583 0.09712 0.0
H3840 H 0.62651 0.95485 0.10699 0.0
H3841 H 0.60043 0.90633 0.09595 0.0
H3842 H 0.62295 0.90707 0.08582 0.0
H3843 H 0.70756 0.9236 0.11712 0.0
H3844 H 0.69828 0.93639 0.10093 0.0
H3845 H 0.65536 0.89412 0.09263 0.0
H3846 H 0.66456 0.88132 0.10887 0.0
H3847 H 0.65091 0.91665 0.10064 0.0
H3848 H 0.68065 0.90917 0.0644 0.0
H3849 H 0.70342 0.91018 0.05473 0.0
H3850 H 0.72803 0.95923 0.06099 0.0
H3851 H 0.70546 0.95851 0.07091 0.0
C3852 C 0.63446 0.95399 0.05269 0.0
C3853 C 0.64399 0.96999 0.05419 0.0
C3854 C 0.63949 0.94458 0.05827 0.0
C3855 C 0.65412 0.95104 0.06537 0.0
C3856 C 0.66381 0.96697 0.06634 0.0
C3857 C 0.65878 0.97636 0.06089 0.0
C3858 C 0.65913 0.94135 0.07256 0.0
C3859 C 0.67227 0.94185 0.06773 0.0
C3860 C 0.65123 0.93199 0.08443 0.0
C3861 C 0.6377 0.93153 0.09054 0.0
C3862 C 0.6386 0.94497 0.09668 0.0
C3863 C 0.62577 0.94446 0.10234 0.0
C3864 C 0.61202 0.93055 0.10205 0.0
C3865 C 0.61108 0.91711 0.09614 0.0
C3866 C 0.62387 0.91756 0.09044 0.0
C3867 C 0.69625 0.91698 0.11162 0.0
C3868 C 0.68676 0.90149 0.11432 0.0
C3869 C 0.69095 0.92429 0.10236 0.0
C3870 C 0.67614 0.91619 0.09548 0.0
C3871 C 0.6668 0.90061 0.09786 0.0
C3872 C 0.67205 0.89333 0.10717 0.0
C3873 C 0.67006 0.92418 0.08664 0.0
C3874 C 0.65672 0.92343 0.09121 0.0
C3875 C 0.67778 0.93328 0.07452 0.0
C3876 C 0.69138 0.93377 0.06852 0.0
C3877 C 0.69095 0.92017 0.06383 0.0
C3878 C 0.70382 0.92069 0.05828 0.0
C3879 C 0.71717 0.93476 0.05728 0.0
C3880 C 0.71768 0.94834 0.06179 0.0
C3881 C 0.70484 0.94788 0.06736 0.0
H3882 H 0.72713 0.93514 0.05298 0.0
H3883 H 0.6021 0.93017 0.10645 0.0
H3884 H 0.03789 0.69404 0.04171 0.0
H3885 H 0.0546 0.72035 0.05252 0.0
H3886 H 0.03029 0.70901 0.09383 0.0
H3887 H 0.01309 0.68312 0.08269 0.0
H3888 H 0.0357 0.73508 0.08795 0.0
H3889 H 0.06685 0.71249 0.08976 0.0
H3890 H 0.07942 0.69915 0.07948 0.0
H3891 H 0.10364 0.7351 0.04956 0.0
H3892 H 0.09107 0.74857 0.05954 0.0
H3893 H 0.09474 0.79228 0.14058 0.0
H3894 H 0.07664 0.76804 0.12619 0.0
H3895 H 0.09249 0.78918 0.08382 0.0
H3896 H 0.11035 0.81353 0.09816 0.0
H3897 H 0.09173 0.75972 0.08854 0.0
H3898 H 0.06088 0.78294 0.08991 0.0
H3899 H 0.04889 0.79575 0.10273 0.0
H3900 H 0.02466 0.75735 0.12993 0.0
H3901 H 0.03669 0.74441 0.11743 0.0
C3902 C 0.03615 0.69723 0.05308 0.0
C3903 C 0.02423 0.68658 0.06138 0.0
C3904 C 0.04574 0.71223 0.0593 0.0
C3905 C 0.0439 0.71667 0.07413 0.0
C3906 C 0.03196 0.70596 0.08237 0.0
C3907 C 0.02215 0.69113 0.07601 0.0
C3908 C 0.0543 0.73241 0.08117 0.0
C3909 C 0.04795 0.74035 0.08817 0.0
C3910 C 0.07032 0.73951 0.08129 0.0
C3911 C 0.07789 0.73144 0.07527 0.0
C3912 C 0.07477 0.71749 0.08091 0.0
C3913 C 0.08191 0.70992 0.07515 0.0
C3914 C 0.09228 0.71625 0.06384 0.0
C3915 C 0.09558 0.73019 0.05829 0.0
C3916 C 0.08846 0.7378 0.06401 0.0
C3917 C 0.09418 0.79175 0.1282 0.0
C3918 C 0.10379 0.80471 0.12043 0.0
C3919 C 0.08389 0.77797 0.12002 0.0
C3920 C 0.08328 0.77691 0.10398 0.0
C3921 C 0.09282 0.78985 0.0962 0.0
C3922 C 0.10289 0.80371 0.10437 0.0
C3923 C 0.07306 0.76208 0.0954 0.0
C3924 C 0.07947 0.75438 0.08815 0.0
C3925 C 0.05712 0.75504 0.09538 0.0
C3926 C 0.0498 0.76277 0.10283 0.0
C3927 C 0.05311 0.77729 0.09872 0.0
C3928 C 0.04628 0.78456 0.10591 0.0
C3929 C 0.03605 0.77739 0.11716 0.0
C3930 C 0.0326 0.7629 0.12122 0.0
C3931 C 0.03941 0.75559 0.11408 0.0
H3932 H 0.03078 0.78303 0.12271 0.0
H3933 H 0.0978 0.71037 0.05939 0.0
H3934 H 0.32102 0.34273 0.01126 0.0
H3935 H 0.29705 0.32743 0.02317 0.0
H3936 H 0.29966 0.36872 0.04169 0.0
H3937 H 0.32345 0.38411 0.02942 0.0
H3938 H 0.29123 0.32474 0.05159 0.0
H3939 H 0.26497 0.36334 0.04592 0.0
H3940 H 0.264 0.38052 0.02761 0.0
H3941 H 0.27238 0.35687 0.99103 0.0
H3942 H 0.2732 0.33942 0.00907 0.0
H3943 H 0.24056 0.31384 0.10829 0.0
H3944 H 0.26051 0.32287 0.09025 0.0
H3945 H 0.22674 0.30617 0.05257 0.0
H3946 H 0.20671 0.29774 0.07063 0.0
H3947 H 0.24828 0.33396 0.04845 0.0
H3948 H 0.24703 0.28848 0.06026 0.0
H3949 H 0.24666 0.26923 0.07656 0.0
H3950 H 0.29071 0.30259 0.09685 0.0
H3951 H 0.29126 0.32211 0.08083 0.0
C3952 C 0.31644 0.34857 0.01777 0.0
C3953 C 0.32413 0.36465 0.01941 0.0
C3954 C 0.30274 0.3398 0.02459 0.0
C3955 C 0.29648 0.34691 0.03321 0.0
C3956 C 0.30411 0.36297 0.03482 0.0
C3957 C 0.31775 0.37176 0.02787 0.0
C3958 C 0.28237 0.33755 0.04115 0.0
C3959 C 0.2818 0.32669 0.05083 0.0
C3960 C 0.26989 0.33978 0.03985 0.0
C3961 C 0.26927 0.35015 0.02889 0.0
C3962 C 0.26654 0.36176 0.03396 0.0
C3963 C 0.26603 0.37156 0.02363 0.0
C3964 C 0.26817 0.36982 0.00818 0.0
C3965 C 0.27078 0.35825 0.00302 0.0
C3966 C 0.27129 0.34841 0.01329 0.0
C3967 C 0.23736 0.31205 0.09616 0.0
C3968 C 0.22206 0.30515 0.09089 0.0
C3969 C 0.24877 0.31706 0.08585 0.0
C3970 C 0.24511 0.31507 0.07005 0.0
C3971 C 0.22981 0.30779 0.06472 0.0
C3972 C 0.21838 0.30285 0.07505 0.0
C3973 C 0.25737 0.32151 0.05923 0.0
C3974 C 0.25762 0.33186 0.04905 0.0
C3975 C 0.26937 0.3185 0.05975 0.0
C3976 C 0.26914 0.30679 0.06939 0.0
C3977 C 0.2566 0.29174 0.06827 0.0
C3978 C 0.25636 0.28078 0.07745 0.0
C3979 C 0.26864 0.28469 0.08775 0.0
C3980 C 0.2812 0.29957 0.08886 0.0
C3981 C 0.28149 0.31059 0.07972 0.0
H3982 H 0.26844 0.27619 0.09484 0.0
H3983 H 0.26778 0.37742 0.00021 0.0
H3984 H 0.71848 0.69203 0.35774 0.0
H3985 H 0.73437 0.6836 0.3702 0.0
H3986 H 0.69711 0.6541 0.39705 0.0
H3987 H 0.68113 0.66207 0.38436 0.0
H3988 H 0.74442 0.68636 0.39831 0.0
H3989 H 0.69798 0.62289 0.40528 0.0
H3990 H 0.6746 0.60234 0.39143 0.0
H3991 H 0.69029 0.62343 0.34925 0.0
H3992 H 0.71385 0.64398 0.3628 0.0
H3993 H 0.77031 0.65764 0.45538 0.0
H3994 H 0.75459 0.66414 0.43971 0.0
H3995 H 0.75312 0.63424 0.40238 0.0
H3996 H 0.76849 0.62739 0.41821 0.0
H3997 H 0.72671 0.63155 0.40345 0.0
H3998 H 0.77738 0.67371 0.40358 0.0
H3999 H 0.80227 0.69416 0.41492 0.0
H4000 H 0.78087 0.7156 0.43788 0.0
H4001 H 0.75581 0.69514 0.42686 0.0
C4002 C 0.71367 0.68368 0.36623 0.0
C4003 C 0.69853 0.67765 0.37 0.0
C4004 C 0.72276 0.67889 0.37337 0.0
C4005 C 0.71688 0.66804 0.38442 0.0
C4006 C 0.70182 0.6622 0.38831 0.0
C4007 C 0.69271 0.66684 0.38109 0.0
C4008 C 0.72655 0.66313 0.39225 0.0
C4009 C 0.74056 0.67437 0.39937 0.0
C4010 C 0.72171 0.64748 0.39339 0.0
C4011 C 0.70763 0.63506 0.3851 0.0
C4012 C 0.69648 0.62311 0.39304 0.0
C4013 C 0.68318 0.61146 0.38524 0.0
C4014 C 0.68094 0.6116 0.36947 0.0
C4015 C 0.69201 0.62336 0.36147 0.0
C4016 C 0.70533 0.63502 0.36921 0.0
C4017 C 0.76654 0.6524 0.44386 0.0
C4018 C 0.77063 0.64206 0.43798 0.0
C4019 C 0.75762 0.65616 0.43489 0.0
C4020 C 0.75293 0.64993 0.41974 0.0
C4021 C 0.75663 0.63923 0.41401 0.0
C4022 C 0.76537 0.6353 0.42306 0.0
C4023 C 0.74438 0.65478 0.40982 0.0
C4024 C 0.73059 0.64353 0.40231 0.0
C4025 C 0.74964 0.67041 0.40794 0.0
C4026 C 0.76471 0.68282 0.41449 0.0
C4027 C 0.77797 0.68273 0.41112 0.0
C4028 C 0.79211 0.69433 0.41749 0.0
C4029 C 0.79315 0.70616 0.42714 0.0
C4030 C 0.78005 0.70642 0.43042 0.0
C4031 C 0.76588 0.69484 0.4241 0.0
H4032 H 0.80411 0.71512 0.43206 0.0
H4033 H 0.67064 0.60259 0.36346 0.0
H4034 H 0.28153 -0.00068 0.42501 0.0
H4035 H 0.29546 0.02486 0.4379 0.0
H4036 H 0.33725 0.03135 0.42098 0.0
H4037 H 0.32338 0.0055 0.40832 0.0
H4038 H 0.34192 0.04361 0.44986 0.0
H4039 H 0.31867 0.04669 0.40338 0.0
H4040 H 0.29793 0.03945 0.38386 0.0
H4041 H 0.27349 0.0495 0.41671 0.0
H4042 H 0.294 0.0566 0.43649 0.0
H4043 H 0.37716 0.12674 0.46032 0.0
H4044 H 0.36771 0.10044 0.44998 0.0
H4045 H 0.32532 0.08549 0.47094 0.0
H4046 H 0.3348 0.11147 0.48177 0.0
H4047 H 0.323 0.07842 0.43854 0.0
H4048 H 0.34676 0.07473 0.48517 0.0
H4049 H 0.3682 0.0826 0.50396 0.0
H4050 H 0.39283 0.07478 0.46953 0.0
H4051 H 0.37158 0.06708 0.45046 0.0
C4052 C 0.29369 0.00612 0.42407 0.0
C4053 C 0.30132 0.00044 0.41548 0.0
C4054 C 0.30164 0.02075 0.43143 0.0
C4055 C 0.31734 0.03015 0.43013 0.0
C4056 C 0.32512 0.02432 0.42207 0.0
C4057 C 0.31717 0.00957 0.41481 0.0
C4058 C 0.3254 0.04621 0.43674 0.0
C4059 C 0.33794 0.0513 0.44721 0.0
C4060 C 0.32016 0.05624 0.43334 0.0
C4061 C 0.30783 0.05206 0.42145 0.0
C4062 C 0.30883 0.04725 0.40647 0.0
C4063 C 0.29712 0.04319 0.39535 0.0
C4064 C 0.28438 0.04398 0.39905 0.0
C4065 C 0.28335 0.04888 0.41386 0.0
C4066 C 0.29503 0.05294 0.42503 0.0
C4067 C 0.36597 0.11779 0.46303 0.0
C4068 C 0.35664 0.12126 0.47168 0.0
C4069 C 0.36058 0.1028 0.45707 0.0
C4070 C 0.3458 0.09111 0.45963 0.0
C4071 C 0.33672 0.09441 0.46875 0.0
C4072 C 0.34213 0.10929 0.47483 0.0
C4073 C 0.33923 0.07565 0.4519 0.0
C4074 C 0.32702 0.07074 0.44112 0.0
C4075 C 0.3449 0.06592 0.45489 0.0
C4076 C 0.35766 0.07051 0.46635 0.0
C4077 C 0.3568 0.07484 0.48157 0.0
C4078 C 0.36891 0.07923 0.49228 0.0
C4079 C 0.3819 0.07924 0.48794 0.0
C4080 C 0.38277 0.0748 0.47288 0.0
C4081 C 0.3707 0.07041 0.46211 0.0
H4082 H 0.39127 0.08264 0.49624 0.0
H4083 H 0.27533 0.04083 0.39043 0.0
H4084 H 0.00979 0.27482 0.37776 0.0
H4085 H 0.98502 0.26499 0.38838 0.0
H4086 H 0.98327 0.30392 0.37371 0.0
H4087 H 0.00828 0.31408 0.36348 0.0
H4088 H 0.97334 0.29809 0.40113 0.0
H4089 H 0.96256 0.26827 0.35401 0.0
H4090 H 0.96526 0.25189 0.33436 0.0
H4091 H 0.95327 0.21722 0.36616 0.0
H4092 H 0.9507 0.23349 0.38608 0.0
H4093 H 0.8929 0.25952 0.41419 0.0
H4094 H 0.91672 0.27214 0.40113 0.0
H4095 H 0.92952 0.24175 0.42004 0.0
H4096 H 0.90626 0.22956 0.43353 0.0
H4097 H 0.9324 0.24433 0.38794 0.0
H4098 H 0.94528 0.2759 0.43547 0.0
H4099 H 0.94196 0.2924 0.45443 0.0
H4100 H 0.94907 0.32399 0.42035 0.0
H4101 H 0.95221 0.30753 0.40112 0.0
C4102 C 0.00414 0.2813 0.3768 0.0
C4103 C 0.01096 0.29519 0.36971 0.0
C4104 C 0.98994 0.27563 0.38281 0.0
C4105 C 0.98215 0.28357 0.38158 0.0
C4106 C 0.98905 0.29757 0.37474 0.0
C4107 C 0.00333 0.30335 0.36888 0.0
C4108 C 0.96685 0.27726 0.38752 0.0
C4109 C 0.96431 0.28642 0.39802 0.0
C4110 C 0.95506 0.26201 0.38353 0.0
C4111 C 0.95655 0.25216 0.37157 0.0
C4112 C 0.9606 0.2572 0.35685 0.0
C4113 C 0.96209 0.24792 0.34566 0.0
C4114 C 0.95947 0.23353 0.34902 0.0
C4115 C 0.95531 0.22837 0.36358 0.0
C4116 C 0.95381 0.23761 0.37481 0.0
C4117 C 0.90085 0.25563 0.41566 0.0
C4118 C 0.89756 0.24339 0.42476 0.0
C4119 C 0.9144 0.26279 0.40815 0.0
C4120 C 0.92477 0.25777 0.40959 0.0
C4121 C 0.92155 0.24565 0.41867 0.0
C4122 C 0.90818 0.23863 0.42628 0.0
C4123 C 0.93909 0.26504 0.40173 0.0
C4124 C 0.94141 0.25606 0.39084 0.0
C4125 C 0.95057 0.28047 0.40523 0.0
C4126 C 0.94879 0.2904 0.41681 0.0
C4127 C 0.94599 0.28629 0.43198 0.0
C4128 C 0.94417 0.29565 0.44278 0.0
C4129 C 0.94525 0.30921 0.43858 0.0
C4130 C 0.94821 0.31347 0.42358 0.0
C4131 C 0.95001 0.30413 0.41272 0.0
H4132 H 0.94385 0.31645 0.44696 0.0
H4133 H 0.96063 0.22637 0.34034 0.0
H4134 H 0.02078 0.35002 0.33393 0.0
H4135 H 0.0136 0.36767 0.32435 0.0
H4136 H 0.06075 0.40089 0.31895 0.0
H4137 H 0.06805 0.38347 0.32929 0.0
H4138 H 0.04746 0.41509 0.3287 0.0
H4139 H 0.0357 0.37698 0.28823 0.0
H4140 H 0.0243 0.35093 0.27589 0.0
H4141 H 0.97972 0.34241 0.28427 0.0
H4142 H 0.99087 0.36836 0.29685 0.0
H4143 H 0.03438 0.45494 0.27055 0.0
H4144 H 0.04151 0.43945 0.28497 0.0
H4145 H 0.99605 0.41349 0.30002 0.0
H4146 H 0.98891 0.42941 0.28622 0.0
H4147 H 0.00807 0.39594 0.28591 0.0
H4148 H 0.02145 0.43602 0.32527 0.0
H4149 H 0.0342 0.46283 0.33579 0.0
H4150 H 0.07763 0.46845 0.327 0.0
H4151 H 0.06511 0.44172 0.31621 0.0
C4152 C 0.02962 0.36113 0.33077 0.0
C4153 C 0.04496 0.36535 0.3322 0.0
C4154 C 0.0255 0.37118 0.32523 0.0
C4155 C 0.0366 0.38547 0.32057 0.0
C4156 C 0.05198 0.38989 0.32242 0.0
C4157 C 0.05614 0.37994 0.32828 0.0
C4158 C 0.0321 0.39561 0.31345 0.0
C4159 C 0.03897 0.41092 0.31923 0.0
C4160 C 0.02088 0.39016 0.3012 0.0
C4161 C 0.01413 0.37456 0.29362 0.0
C4162 C 0.02347 0.36951 0.28754 0.0
C4163 C 0.01705 0.35477 0.28049 0.0
C4164 C 0.0013 0.34501 0.27934 0.0
C4165 C 0.99192 0.34998 0.2852 0.0
C4166 C -0.00171 0.36471 0.29228 0.0
C4167 C 0.02595 0.44622 0.27722 0.0
C4168 C 0.01104 0.44347 0.27721 0.0
C4169 C 0.03005 0.43731 0.28538 0.0
C4170 C 0.0193 0.4254 0.29355 0.0
C4171 C 0.00447 0.42266 0.29373 0.0
C4172 C 0.00041 0.4317 0.28575 0.0
C4173 C 0.02338 0.41528 0.30121 0.0
C4174 C 0.01648 0.40001 0.29545 0.0
C4175 C 0.03478 0.42085 0.31323 0.0
C4176 C 0.04233 0.4369 0.3198 0.0
C4177 C 0.03371 0.44301 0.32545 0.0
C4178 C 0.0409 0.45818 0.33149 0.0
C4179 C 0.05672 0.46735 0.33203 0.0
C4180 C 0.06538 0.46134 0.32656 0.0
C4181 C 0.05824 0.44617 0.3205 0.0
H4182 H 0.06226 0.4791 0.33671 0.0
H4183 H 0.99635 0.3336 0.27387 0.0
H4184 H 0.61042 0.64924 0.31046 0.0
H4185 H 0.59738 0.62378 0.29734 0.0
H4186 H 0.63201 0.6157 0.31538 0.0
H4187 H 0.64544 0.64146 0.3282 0.0
H4188 H 0.62394 0.60421 0.2866 0.0
H4189 H 0.59755 0.60056 0.33143 0.0
H4190 H 0.58448 0.6077 0.35025 0.0
H4191 H 0.55022 0.59953 0.31564 0.0
H4192 H 0.56321 0.59254 0.29655 0.0
H4193 H 0.57272 0.52176 0.27159 0.0
H4194 H 0.5906 0.54746 0.2834 0.0
H4195 H 0.56419 0.56456 0.2625 0.0
H4196 H 0.54661 0.53917 0.25038 0.0
H4197 H 0.5692 0.5703 0.29462 0.0
H4198 H 0.59705 0.57467 0.24967 0.0
H4199 H 0.61031 0.56685 0.23177 0.0
H4200 H 0.64194 0.57243 0.26822 0.0
H4201 H 0.62871 0.58007 0.2864 0.0
C4202 C 0.61531 0.64208 0.31162 0.0
C4203 C 0.62889 0.64732 0.3205 0.0
C4204 C 0.60781 0.6275 0.30415 0.0
C4205 C 0.61355 0.6177 0.30564 0.0
C4206 C 0.62734 0.62304 0.31413 0.0
C4207 C 0.63497 0.63774 0.32148 0.0
C4208 C 0.60488 0.60181 0.29858 0.0
C4209 C 0.61203 0.5967 0.28854 0.0
C4210 C 0.58933 0.59201 0.30107 0.0
C4211 C 0.58143 0.59614 0.31253 0.0
C4212 C 0.58729 0.60039 0.3278 0.0
C4213 C 0.57988 0.60439 0.33852 0.0
C4214 C 0.56654 0.6041 0.33413 0.0
C4215 C 0.56056 0.59976 0.31902 0.0
C4216 C 0.56793 0.59576 0.30825 0.0
C4217 C 0.57093 0.53108 0.26925 0.0
C4218 C 0.55812 0.52839 0.26024 0.0
C4219 C 0.58112 0.54572 0.27603 0.0
C4220 C 0.57861 0.55783 0.27389 0.0
C4221 C 0.56622 0.5553 0.26439 0.0
C4222 C 0.55615 0.54078 0.25755 0.0
C4223 C 0.58814 0.5729 0.28235 0.0
C4224 C 0.58114 0.57779 0.29277 0.0
C4225 C 0.60383 0.58234 0.28035 0.0
C4226 C 0.61178 0.57776 0.26943 0.0
C4227 C 0.60674 0.57408 0.2539 0.0
C4228 C 0.61427 0.56971 0.2437 0.0
C4229 C 0.62693 0.56909 0.24886 0.0
C4230 C 0.63211 0.57288 0.26424 0.0
C4231 C 0.62461 0.57724 0.2745 0.0
H4232 H 0.63275 0.56572 0.24094 0.0
H4233 H 0.56083 0.60721 0.34245 0.0
H4234 H 0.33618 0.98285 0.35359 0.0
H4235 H 0.3583 0.98709 0.34006 0.0
H4236 H 0.36032 0.95255 0.36484 0.0
H4237 H 0.33795 0.94807 0.37841 0.0
H4238 H 0.38943 0.98052 0.36192 0.0
H4239 H 0.34602 0.9421 0.3311 0.0
H4240 H 0.32086 0.9308 0.31749 0.0
H4241 H 0.33816 0.96862 0.28892 0.0
H4242 H 0.36338 0.98028 0.30253 0.0
H4243 H 0.44087 0.97626 0.31153 0.0
H4244 H 0.41967 0.97005 0.3276 0.0
H4245 H 0.40718 -0.00328 0.30064 0.0
H4246 H 0.42786 0.00237 0.28411 0.0
H4247 H 0.38292 0.97052 0.3055 0.0
H4248 H 0.42565 0.0098 0.33676 0.0
H4249 H 0.45084 0.02196 0.35049 0.0
H4250 H 0.43511 0.98363 0.37822 0.0
H4251 H 0.40987 0.97114 0.3645 0.0
C4252 C 0.34137 0.97621 0.35628 0.0
C4253 C 0.33527 0.96506 0.36703 0.0
C4254 C 0.35399 0.97864 0.34851 0.0
C4255 C 0.36083 0.97004 0.35137 0.0
C4256 C 0.35515 0.95927 0.36247 0.0
C4257 C 0.34237 0.95671 0.37017 0.0
C4258 C 0.37357 0.97204 0.34228 0.0
C4259 C 0.38801 0.9781 0.34961 0.0
C4260 C 0.37169 0.96915 0.32621 0.0
C4261 C 0.35656 0.96213 0.31793 0.0
C4262 C 0.34443 0.94807 0.322 0.0
C4263 C 0.33016 0.94159 0.31427 0.0
C4264 C 0.3279 0.949 0.30237 0.0
C4265 C 0.33992 0.9629 0.29815 0.0
C4266 C 0.35421 0.96944 0.30586 0.0
C4267 C 0.43356 0.98073 0.30896 0.0
C4268 C 0.43611 0.98986 0.29654 0.0
C4269 C 0.42153 0.9773 0.31826 0.0
C4270 C 0.41192 0.98305 0.31543 0.0
C4271 C 0.41447 0.99218 0.30307 0.0
C4272 C 0.42642 0.99555 0.29373 0.0
C4273 C 0.39896 0.97931 0.32507 0.0
C4274 C 0.38441 0.97286 0.31782 0.0
C4275 C 0.40078 0.98196 0.3412 0.0
C4276 C 0.41593 0.98946 0.34949 0.0
C4277 C 0.4276 0.00391 0.3457 0.0
C4278 C 0.44188 0.01087 0.35349 0.0
C4279 C 0.44459 0.00355 0.36519 0.0
C4280 C 0.43301 0.98927 0.36914 0.0
C4281 C 0.41871 0.98225 0.36137 0.0
H4282 H 0.45565 0.00896 0.37121 0.0
H4283 H 0.31685 0.94396 0.2964 0.0
H4284 H 0.64175 0.98051 0.33918 0.0
H4285 H 0.62961 0.99022 0.32246 0.0
H4286 H 0.58612 0.9588 0.33957 0.0
H4287 H 0.59811 0.94853 0.35567 0.0
H4288 H 0.58247 0.95844 0.31091 0.0
H4289 H 0.60792 -0.00085 0.35054 0.0
H4290 H 0.62987 0.01872 0.36696 0.0
H4291 H 0.65223 0.04127 0.32732 0.0
H4292 H 0.63048 0.02172 0.31065 0.0
H4293 H 0.55506 0.0133 0.29372 0.0
H4294 H 0.57166 0.00781 0.30912 0.0
H4295 H 0.57843 0.98611 0.2693 0.0
H4296 H 0.56196 0.99174 0.25371 0.0
H4297 H 0.60094 0.01379 0.30905 0.0
H4298 H 0.57532 0.95285 0.28018 0.0
H4299 H 0.5517 0.93319 0.26587 0.0
H4300 H 0.52677 0.95099 0.28828 0.0
H4301 H 0.55017 0.97058 0.30288 0.0
C4302 C 0.62961 0.97572 0.3394 0.0
C4303 C 0.62087 0.96377 0.34873 0.0
C4304 C 0.62268 0.98134 0.32989 0.0
C4305 C 0.60696 0.97541 0.32988 0.0
C4306 C 0.59826 0.96354 0.33931 0.0
C4307 C 0.60513 0.9577 0.34855 0.0
C4308 C 0.59941 0.98123 0.3198 0.0
C4309 C 0.58657 0.97056 0.31053 0.0
C4310 C 0.60462 -0.00296 0.31932 0.0
C4311 C 0.61763 0.00889 0.32934 0.0
C4312 C 0.61756 0.00824 0.34532 0.0
C4313 C 0.62996 0.01933 0.35467 0.0
C4314 C 0.64246 0.03121 0.34819 0.0
C4315 C 0.64255 0.03205 0.33233 0.0
C4316 C 0.63018 0.02098 0.32293 0.0
C4317 C 0.56041 0.00774 0.28812 0.0
C4318 C 0.55711 0.00286 0.27249 0.0
C4319 C 0.56988 0.00458 0.29697 0.0
C4320 C 0.57613 0.99641 0.29039 0.0
C4321 C 0.57355 0.99227 0.27462 0.0
C4322 C 0.5641 0.99544 0.26575 0.0
C4323 C 0.58411 0.99099 0.30027 0.0
C4324 C 0.59699 0.00171 0.30943 0.0
C4325 C 0.57872 0.97521 0.301 0.0
C4326 C 0.56453 0.96329 0.29247 0.0
C4327 C 0.56478 0.95253 0.28208 0.0
C4328 C 0.55144 0.9414 0.27393 0.0
C4329 C 0.53776 0.94088 0.27613 0.0
C4330 C 0.53738 0.95144 0.28654 0.0
C4331 C 0.55068 0.96256 0.29475 0.0
H4332 H 0.52745 0.93227 0.26979 0.0
H4333 H 0.65205 0.03978 0.35544 0.0
H4334 H 0.04918 0.66993 0.32118 0.0
H4335 H 0.0424 0.64558 0.30759 0.0
H4336 H -0.00146 0.63858 0.29365 0.0
H4337 H 0.00524 0.66296 0.30719 0.0
H4338 H -0.00282 0.61231 0.30392 0.0
H4339 H 0.02441 0.6505 0.26861 0.0
H4340 H 0.04581 0.67442 0.26031 0.0
H4341 H 0.07597 0.65763 0.2684 0.0
H4342 H 0.05478 0.63367 0.27697 0.0
H4343 H 0.97853 0.55173 0.24755 0.0
H4344 H 0.98335 0.5758 0.26037 0.0
H4345 H 0.02949 0.58818 0.27236 0.0
H4346 H 0.02477 0.56426 0.25956 0.0
H4347 H 0.02871 0.61194 0.26228 0.0
H4348 H 0.00217 0.57435 0.29846 0.0
H4349 H 0.98113 0.55045 0.30723 0.0
H4350 H 0.95012 0.56601 0.2981 0.0
H4351 H 0.97095 0.58993 0.28906 0.0
C4352 C 0.03806 0.66318 0.31529 0.0
C4353 C 0.02777 0.66839 0.31518 0.0
C4354 C 0.03423 0.64931 0.30751 0.0
C4355 C 0.02004 0.64039 0.29951 0.0
C4356 C 0.00956 0.64533 0.29974 0.0
C4357 C 0.01343 0.65927 0.30744 0.0
C4358 C 0.01628 0.62607 0.29065 0.0
C4359 C 0.00392 0.61222 0.29466 0.0
C4360 C 0.02528 0.62599 0.27879 0.0
C4361 C 0.03803 0.64035 0.27357 0.0
C4362 C 0.03563 0.65196 0.26874 0.0
C4363 C 0.04772 0.66551 0.26397 0.0
C4364 C 0.06225 0.66756 0.26386 0.0
C4365 C 0.06471 0.65603 0.2685 0.0
C4366 C 0.05266 0.64246 0.2733 0.0
C4367 C 0.98968 0.55959 0.25296 0.0
C4368 C 0.00128 0.55614 0.25253 0.0
C4369 C 0.99242 0.57331 0.26028 0.0
C4370 C 0.00674 0.58371 0.26744 0.0
C4371 C 0.01837 0.58035 0.26686 0.0
C4372 C 0.01567 0.5667 0.2595 0.0
C4373 C 0.00969 0.5981 0.27564 0.0
C4374 C 0.02191 0.612 0.27149 0.0
C4375 C 0.00061 0.5982 0.28743 0.0
C4376 C 0.98808 0.58386 0.29293 0.0
C4377 C 0.99084 0.57263 0.29821 0.0
C4378 C 0.97896 0.55908 0.30324 0.0
C4379 C 0.96429 0.55669 0.30318 0.0
C4380 C 0.96148 0.56786 0.29811 0.0
C4381 C 0.97332 0.58142 0.29304 0.0
H4382 H 0.9551 0.5462 0.30708 0.0
H4383 H 0.07159 0.67806 0.26016 0.0
H4384 H 0.32892 0.34733 0.34314 0.0
H4385 H 0.35222 0.35736 0.32967 0.0
H4386 H 0.36045 0.40314 0.33755 0.0
H4387 H 0.33681 0.3931 0.35065 0.0
H4388 H 0.36545 0.39856 0.30924 0.0
H4389 H 0.38011 0.389 0.35834 0.0
H4390 H 0.37793 0.37329 0.37978 0.0
H4391 H 0.38356 0.34247 0.34956 0.0
H4392 H 0.38551 0.35783 0.32788 0.0
H4393 H 0.44027 0.43878 0.28732 0.0
H4394 H 0.4186 0.42838 0.30338 0.0
H4395 H 0.4105 0.3829 0.29326 0.0
H4396 H 0.43249 0.39338 0.27736 0.0
H4397 H 0.40554 0.38688 0.32271 0.0
H4398 H 0.39023 0.39538 0.27382 0.0
H4399 H 0.39208 0.41035 0.25183 0.0
H4400 H 0.38717 0.44225 0.28113 0.0
H4401 H 0.38552 0.42759 0.30335 0.0
C4402 C 0.33569 0.35955 0.34206 0.0
C4403 C 0.33102 0.36943 0.34802 0.0
C4404 C 0.34908 0.36527 0.33442 0.0
C4405 C 0.35826 0.38104 0.33283 0.0
C4406 C 0.35358 0.39093 0.33869 0.0
C4407 C 0.34007 0.38518 0.34618 0.0
C4408 C 0.37248 0.38716 0.32464 0.0
C4409 C 0.37432 0.39621 0.31237 0.0
C4410 C 0.38384 0.38366 0.32837 0.0
C4411 C 0.38282 0.3745 0.34145 0.0
C4412 C 0.38077 0.37881 0.35624 0.0
C4413 C 0.37958 0.36997 0.36844 0.0
C4414 C 0.38055 0.35686 0.36603 0.0
C4415 C 0.38277 0.3526 0.35141 0.0
C4416 C 0.38393 0.36138 0.33917 0.0
C4417 C 0.43392 0.42657 0.28861 0.0
C4418 C 0.43789 0.41683 0.28096 0.0
C4419 C 0.42154 0.42064 0.29777 0.0
C4420 C 0.41272 0.40482 0.29924 0.0
C4421 C 0.41711 0.39513 0.29222 0.0
C4422 C 0.42964 0.40111 0.28315 0.0
C4423 C 0.39854 0.39841 0.30749 0.0
C4424 C 0.39668 0.38927 0.31968 0.0
C4425 C 0.38709 0.40172 0.30365 0.0
C4426 C 0.38788 0.41046 0.29027 0.0
C4427 C 0.38964 0.40564 0.27559 0.0
C4428 C 0.39065 0.41406 0.26308 0.0
C4429 C 0.38978 0.42726 0.26509 0.0
C4430 C 0.38785 0.43204 0.2796 0.0
C4431 C 0.38687 0.42367 0.29215 0.0
H4432 H 0.39056 0.43377 0.25539 0.0
H4433 H 0.37961 0.35002 0.37548 0.0
H4434 H 0.329 0.32295 0.39626 0.0
H4435 H 0.33955 0.30794 0.4056 0.0
H4436 H 0.29766 0.26626 0.39145 0.0
H4437 H 0.28692 0.28127 0.38214 0.0
H4438 H 0.30754 0.26619 0.42056 0.0
H4439 H 0.32904 0.27705 0.37161 0.0
H4440 H 0.34291 0.29365 0.35113 0.0
H4441 H 0.38278 0.31862 0.38151 0.0
H4442 H 0.3691 0.30226 0.40224 0.0
H4443 H 0.33426 0.21728 0.43744 0.0
H4444 H 0.32479 0.23057 0.42235 0.0
H4445 H 0.36625 0.27345 0.43427 0.0
H4446 H 0.37589 0.26011 0.44923 0.0
H4447 H 0.35629 0.27216 0.40501 0.0
H4448 H 0.33509 0.26312 0.45412 0.0
H4449 H 0.32165 0.24757 0.47538 0.0
H4450 H 0.28163 0.22053 0.44561 0.0
H4451 H 0.29493 0.23579 0.42409 0.0
C4452 C 0.32203 0.31059 0.39504 0.0
C4453 C 0.3071 0.30329 0.38848 0.0
C4454 C 0.32813 0.30202 0.40031 0.0
C4455 C 0.31945 0.28599 0.39907 0.0
C4456 C 0.30456 0.27864 0.39245 0.0
C4457 C 0.29846 0.28721 0.38713 0.0
C4458 C 0.32571 0.27697 0.4054 0.0
C4459 C 0.31804 0.26726 0.41694 0.0
C4460 C 0.33967 0.27877 0.40102 0.0
C4461 C 0.348 0.28849 0.38851 0.0
C4462 C 0.34074 0.28614 0.37396 0.0
C4463 C 0.34857 0.29549 0.3623 0.0
C4464 C 0.36371 0.3072 0.36503 0.0
C4465 C 0.37106 0.30955 0.37942 0.0
C4466 C 0.36328 0.30021 0.39112 0.0
C4467 C 0.34141 0.22952 0.43672 0.0
C4468 C 0.35572 0.23771 0.44465 0.0
C4469 C 0.33599 0.2371 0.4281 0.0
C4470 C 0.34469 0.25305 0.42744 0.0
C4471 C 0.35934 0.26115 0.43467 0.0
C4472 C 0.36483 0.25353 0.4432 0.0
C4473 C 0.33806 0.26133 0.42011 0.0
C4474 C 0.3457 0.27096 0.40848 0.0
C4475 C 0.32413 0.2596 0.42451 0.0
C4476 C 0.31606 0.25049 0.43746 0.0
C4477 C 0.32346 0.25379 0.45208 0.0
C4478 C 0.31587 0.24503 0.46418 0.0
C4479 C 0.30081 0.23304 0.46184 0.0
C4480 C 0.29331 0.22981 0.4474 0.0
C4481 C 0.30086 0.23851 0.43524 0.0
H4482 H 0.29495 0.22628 0.47122 0.0
H4483 H 0.36974 0.31442 0.35599 0.0
H4484 H 0.67452 0.01501 0.40361 0.0
H4485 H 0.69184 0.0413 0.41392 0.0
H4486 H 0.72992 0.03861 0.39834 0.0
H4487 H 0.71266 0.01225 0.38806 0.0
H4488 H 0.73455 0.05019 0.42795 0.0
H4489 H 0.71755 0.05878 0.37975 0.0
H4490 H 0.69839 0.05577 0.36008 0.0
H4491 H 0.68118 0.07554 0.39197 0.0
H4492 H 0.70012 0.07847 0.41191 0.0
H4493 H 0.7922 0.12724 0.43788 0.0
H4494 H 0.77347 0.10193 0.42637 0.0
H4495 H 0.73732 0.10787 0.44225 0.0
H4496 H 0.75613 0.13338 0.45381 0.0
H4497 H 0.73082 0.09462 0.41318 0.0
H4498 H 0.74753 0.08633 0.46124 0.0
H4499 H 0.7662 0.08909 0.48135 0.0
H4500 H 0.78323 0.06836 0.4504 0.0
H4501 H 0.7648 0.06569 0.43001 0.0
C4502 C 0.68657 0.02003 0.40231 0.0
C4503 C 0.69223 0.01156 0.39503 0.0
C4504 C 0.69645 0.03508 0.40815 0.0
C4505 C 0.71215 0.04193 0.40679 0.0
C4506 C 0.71783 0.03352 0.39948 0.0
C4507 C 0.70796 0.01848 0.39359 0.0
C4508 C 0.7227 0.05769 0.41344 0.0
C4509 C 0.73387 0.05994 0.42456 0.0
C4510 C 0.72145 0.0703 0.40939 0.0
C4511 C 0.71016 0.0687 0.39737 0.0
C4512 C 0.70961 0.06238 0.3826 0.0
C4513 C 0.6988 0.06071 0.3714 0.0
C4514 C 0.68855 0.06542 0.37479 0.0
C4515 C 0.68912 0.07187 0.38937 0.0
C4516 C 0.6999 0.07355 0.40062 0.0
C4517 C 0.78027 0.12313 0.43901 0.0
C4518 C 0.77562 0.13218 0.44695 0.0
C4519 C 0.76957 0.10869 0.43239 0.0
C4520 C 0.75401 0.10291 0.43369 0.0
C4521 C 0.74928 0.1121 0.44117 0.0
C4522 C 0.76002 0.12664 0.44776 0.0
C4523 C 0.7428 0.08713 0.42752 0.0
C4524 C 0.73148 0.08486 0.41656 0.0
C4525 C 0.74382 0.07444 0.43178 0.0
C4526 C 0.75486 0.07593 0.44405 0.0
C4527 C 0.75533 0.08246 0.45868 0.0
C4528 C 0.76586 0.08399 0.47014 0.0
C4529 C 0.77592 0.07893 0.46714 0.0
C4530 C 0.77544 0.07229 0.45269 0.0
C4531 C 0.76494 0.07075 0.44118 0.0
H4532 H 0.78406 0.08013 0.47603 0.0
H4533 H 0.68018 0.06411 0.3661 0.0
H4534 H 0.99646 0.72813 0.36703 0.0
H4535 H 0.97269 0.7148 0.37976 0.0
H4536 H 0.97142 0.67211 0.37163 0.0
H4537 H 0.99514 0.68531 0.35866 0.0
H4538 H 0.94352 0.66861 0.36632 0.0
H4539 H 0.98284 0.69055 0.40629 0.0
H4540 H 0.0059 0.71096 0.42069 0.0
H4541 H 0.98371 0.73636 0.42936 0.0
H4542 H 0.96058 0.71619 0.41481 0.0
H4543 H 0.88855 0.63091 0.42259 0.0
H4544 H 0.91092 0.64123 0.40731 0.0
H4545 H 0.91563 0.68579 0.41186 0.0
H4546 H 0.89328 0.67557 0.4269 0.0
H4547 H 0.94209 0.68678 0.41934 0.0
H4548 H 0.90283 0.66469 0.37854 0.0
H4549 H 0.87984 0.64388 0.3644 0.0
H4550 H 0.90198 0.61814 0.3578 0.0
H4551 H 0.92505 0.63872 0.3721 0.0
C4552 C 0.99112 0.7159 0.36789 0.0
C4553 C -0.00223 0.70781 0.36193 0.0
C4554 C 0.97755 0.7083 0.3752 0.0
C4555 C 0.97042 0.69251 0.37682 0.0
C4556 C 0.97678 0.68431 0.37053 0.0
C4557 C 0.99036 0.6919 0.36318 0.0
C4558 C 0.95651 0.68468 0.38538 0.0
C4559 C 0.94324 0.67242 0.37799 0.0
C4560 C 0.95614 0.68977 0.40054 0.0
C4561 C 0.97002 0.70191 0.40934 0.0
C4562 C 0.98292 0.70054 0.41117 0.0
C4563 C 0.996 0.71206 0.41937 0.0
C4564 C 0.99628 0.72497 0.4259 0.0
C4565 C 0.98348 0.72636 0.42428 0.0
C4566 C 0.97038 0.71488 0.41606 0.0
C4567 C 0.89423 0.64285 0.42012 0.0
C4568 C 0.88926 0.65247 0.42607 0.0
C4569 C 0.90701 0.64873 0.41143 0.0
C4570 C 0.91492 0.66428 0.40849 0.0
C4571 C 0.90974 0.67378 0.41411 0.0
C4572 C 0.89701 0.66794 0.42274 0.0
C4573 C 0.92902 0.67093 0.40018 0.0
C4574 C 0.94237 0.68293 0.40768 0.0
C4575 C 0.92945 0.66552 0.38518 0.0
C4576 C 0.91561 0.65317 0.37654 0.0
C4577 C 0.90275 0.65453 0.37419 0.0
C4578 C 0.88972 0.64279 0.36612 0.0
C4579 C 0.88943 0.62968 0.36024 0.0
C4580 C 0.90221 0.6283 0.36238 0.0
C4581 C 0.91527 0.64 0.37046 0.0
H4582 H 0.87933 0.6206 0.35399 0.0
H4583 H 0.00642 0.73387 0.43226 0.0
H4584 H 0.35611 0.99639 0.70396 0.0
H4585 H 0.37294 0.99141 0.71968 0.0
H4586 H 0.40594 0.03982 0.7246 0.0
H4587 H 0.38944 0.04473 0.70819 0.0
H4588 H 0.4203 0.0257 0.72169 0.0
H4589 H 0.38061 0.01941 0.75336 0.0
H4590 H 0.35425 0.00918 0.76054 0.0
H4591 H 0.34684 0.96368 0.7581 0.0
H4592 H 0.37311 0.97363 0.7507 0.0
H4593 H 0.45917 0.02343 0.7896 0.0
H4594 H 0.44162 0.02722 0.77368 0.0
H4595 H 0.41951 0.98029 0.75557 0.0
H4596 H 0.43754 0.97654 0.77068 0.0
H4597 H 0.39981 0.99346 0.76564 0.0
H4598 H 0.44081 0.0014 0.73381 0.0
H4599 H 0.46789 0.0132 0.7287 0.0
H4600 H 0.47334 0.05785 0.73377 0.0
H4601 H 0.44633 0.04631 0.7392 0.0
C4602 C 0.36701 0.00595 0.70831 0.0
C4603 C 0.37144 0.02095 0.70492 0.0
C4604 C 0.37658 0.00311 0.7174 0.0
C4605 C 0.39059 0.01527 0.72368 0.0
C4606 C 0.39518 0.03024 0.71996 0.0
C4607 C 0.38574 0.03304 0.71059 0.0
C4608 C 0.40038 0.01241 0.73421 0.0
C4609 C 0.4158 0.01879 0.73138 0.0
C4610 C 0.39457 0.00327 0.74683 0.0
C4611 C 0.37878 -0.00275 0.75133 0.0
C4612 C 0.37333 0.00721 0.75425 0.0
C4613 C 0.35841 0.00146 0.75838 0.0
C4614 C 0.34887 0.98578 0.75974 0.0
C4615 C 0.35424 0.97582 0.75702 0.0
C4616 C 0.36915 0.98151 0.75287 0.0
C4617 C 0.45067 0.0139 0.78218 0.0
C4618 C 0.44995 -0.0003 0.78137 0.0
C4619 C 0.44056 0.01607 0.7732 0.0
C4620 C 0.42936 0.00405 0.76344 0.0
C4621 C 0.42807 0.98968 0.7631 0.0
C4622 C 0.43836 0.98756 0.77186 0.0
C4623 C 0.41952 0.00672 0.75301 0.0
C4624 C 0.40418 0.00033 0.7559 0.0
C4625 C 0.42543 0.01607 0.74063 0.0
C4626 C 0.44159 0.023 0.73707 0.0
C4627 C 0.44781 0.01374 0.73397 0.0
C4628 C 0.46314 0.02037 0.731 0.0
C4629 C 0.47234 0.03626 0.73095 0.0
C4630 C 0.46621 0.04554 0.73383 0.0
C4631 C 0.45089 0.03896 0.73685 0.0
H4632 H 0.48421 0.04138 0.72865 0.0
H4633 H 0.33732 0.98135 0.76293 0.0
H4634 H 0.93914 0.32345 0.74104 0.0
H4635 H 0.94864 0.34762 0.75619 0.0
H4636 H 0.99191 0.35102 0.76419 0.0
H4637 H 0.98259 0.32684 0.74881 0.0
H4638 H 0.97895 0.35873 0.79106 0.0
H4639 H 0.9921 0.37108 0.73917 0.0
H4640 H 0.98679 0.36846 0.71125 0.0
H4641 H 0.95313 0.38102 0.71724 0.0
H4642 H 0.95808 0.38348 0.74522 0.0
H4643 H 0.0154 0.43784 0.81784 0.0
H4644 H 0.00947 0.41334 0.80526 0.0
H4645 H 0.9695 0.40902 0.7825 0.0
H4646 H 0.97585 0.43381 0.79415 0.0
H4647 H 0.98347 0.40196 0.76307 0.0
H4648 H 0.96852 0.38834 0.81423 0.0
H4649 H 0.97205 0.38985 0.84231 0.0
H4650 H 0.00708 0.37895 0.83828 0.0
H4651 H 0.00388 0.37755 0.81015 0.0
C4652 C 0.95063 0.32922 0.74613 0.0
C4653 C 0.96015 0.32327 0.74363 0.0
C4654 C 0.95603 0.34303 0.75478 0.0
C4655 C 0.97097 0.35108 0.76121 0.0
C4656 C 0.98033 0.34492 0.7593 0.0
C4657 C 0.97501 0.33117 0.75046 0.0
C4658 C 0.97696 0.36636 0.76911 0.0
C4659 C 0.9802 0.3683 0.78497 0.0
C4660 C 0.97827 0.37867 0.76113 0.0
C4661 C 0.97537 0.37733 0.7443 0.0
C4662 C 0.98347 0.37316 0.73454 0.0
C4663 C 0.98055 0.37172 0.7187 0.0
C4664 C 0.9696 0.37454 0.71248 0.0
C4665 C 0.96159 0.37883 0.72208 0.0
C4666 C 0.96447 0.38026 0.73793 0.0
C4667 C 0.00542 0.43173 0.81006 0.0
C4668 C 0.99607 0.43781 0.80709 0.0
C4669 C 0.00194 0.41762 0.80302 0.0
C4670 C 0.98893 0.40922 0.79307 0.0
C4671 C 0.97958 0.41525 0.79016 0.0
C4672 C 0.98314 0.42938 0.79701 0.0
C4673 C 0.98516 0.39438 0.78521 0.0
C4674 C 0.98237 0.3925 0.76926 0.0
C4675 C 0.9841 0.38211 0.79318 0.0
C4676 C 0.98607 0.38301 0.81009 0.0
C4677 C 0.97706 0.3864 0.81933 0.0
C4678 C 0.97899 0.38721 0.83526 0.0
C4679 C 0.98981 0.38454 0.84208 0.0
C4680 C -0.00128 0.38104 0.83298 0.0
C4681 C -0.00315 0.38022 0.81705 0.0
H4682 H 0.99126 0.38514 0.85441 0.0
H4683 H 0.96735 0.37342 0.70021 0.0
H4684 H 0.67107 0.64857 0.70304 0.0
H4685 H 0.64745 0.63956 0.71581 0.0
H4686 H 0.64147 0.59453 0.71634 0.0
H4687 H 0.66508 0.60339 0.70345 0.0
H4688 H 0.61502 0.59376 0.70765 0.0
H4689 H 0.65482 0.61813 0.74796 0.0
H4690 H 0.67843 0.6394 0.76075 0.0
H4691 H 0.65857 0.66761 0.76246 0.0
H4692 H 0.6349 0.64655 0.74949 0.0
H4693 H 0.56527 0.55948 0.76577 0.0
H4694 H 0.58638 0.57084 0.74914 0.0
H4695 H 0.58768 0.6138 0.75415 0.0
H4696 H 0.56668 0.60252 0.77124 0.0
H4697 H 0.61559 0.61761 0.75845 0.0
H4698 H 0.57477 0.59239 0.72064 0.0
H4699 H 0.55103 0.57106 0.70815 0.0
H4700 H 0.57243 0.54461 0.70158 0.0
H4701 H 0.59625 0.56569 0.71425 0.0
C4702 C 0.66474 0.63673 0.70584 0.0
C4703 C 0.67001 0.6267 0.70229 0.0
C4704 C 0.65126 0.63162 0.71316 0.0
C4705 C 0.64281 0.61643 0.71712 0.0
C4706 C 0.64786 0.60631 0.71337 0.0
C4707 C 0.66138 0.61141 0.70606 0.0
C4708 C 0.62883 0.61113 0.72544 0.0
C4709 C 0.61514 0.59887 0.71881 0.0
C4710 C 0.62895 0.61818 0.73976 0.0
C4711 C 0.64316 0.63083 0.7476 0.0
C4712 C 0.65554 0.62891 0.75095 0.0
C4713 C 0.66892 0.64092 0.75825 0.0
C4714 C 0.67002 0.65487 0.76237 0.0
C4715 C 0.65771 0.65681 0.75924 0.0
C4716 C 0.64431 0.64484 0.75192 0.0
C4717 C 0.57005 0.57136 0.76335 0.0
C4718 C 0.56443 0.58017 0.7699 0.0
C4719 C 0.582 0.57778 0.75371 0.0
C4720 C 0.58849 0.59311 0.75029 0.0
C4721 C 0.58277 0.60192 0.75661 0.0
C4722 C 0.57075 0.59546 0.76628 0.0
C4723 C 0.60179 0.60003 0.74079 0.0
C4724 C 0.61539 0.61261 0.74719 0.0
C4725 C 0.60156 0.5933 0.72624 0.0
C4726 C 0.58728 0.5806 0.7185 0.0
C4727 C 0.57439 0.58198 0.71663 0.0
C4728 C 0.56092 0.56994 0.7095 0.0
C4729 C 0.56022 0.55648 0.7041 0.0
C4730 C 0.573 0.55505 0.70578 0.0
C4731 C 0.58649 0.56705 0.71292 0.0
H4732 H 0.54977 0.54717 0.69858 0.0
H4733 H 0.68038 0.66415 0.76803 0.0
H4734 H 0.71492 0.71353 0.67515 0.0
H4735 H 0.70426 0.72887 0.66651 0.0
H4736 H 0.67075 0.69033 0.63725 0.0
H4737 H 0.68127 0.67502 0.64574 0.0
H4738 H 0.6839 0.71702 0.62273 0.0
H4739 H 0.6612 0.69891 0.67069 0.0
H4740 H 0.66168 0.69565 0.69834 0.0
H4741 H 0.68636 0.74442 0.70771 0.0
H4742 H 0.68621 0.74797 0.68008 0.0
H4743 H 0.63148 0.73789 0.60237 0.0
H4744 H 0.6421 0.72404 0.61435 0.0
H4745 H 0.67142 0.76387 0.64451 0.0
H4746 H 0.66021 0.77758 0.63317 0.0
H4747 H 0.6621 0.73829 0.65908 0.0
H4748 H 0.68424 0.75678 0.61167 0.0
H4749 H 0.68392 0.76055 0.58412 0.0
H4750 H 0.66126 0.712 0.57373 0.0
H4751 H 0.66124 0.70791 0.60125 0.0
C4752 C 0.70533 0.70838 0.66682 0.0
C4753 C 0.69891 0.69307 0.66115 0.0
C4754 C 0.69923 0.71712 0.66196 0.0
C4755 C 0.68666 0.71067 0.65133 0.0
C4756 C 0.68045 0.6955 0.64545 0.0
C4757 C 0.68646 0.68677 0.65036 0.0
C4758 C 0.67978 0.71957 0.6463 0.0
C4759 C 0.67902 0.72156 0.63065 0.0
C4760 C 0.67379 0.72584 0.65671 0.0
C4761 C 0.67384 0.72371 0.67332 0.0
C4762 C 0.66684 0.70894 0.67864 0.0
C4763 C 0.66703 0.70704 0.69431 0.0
C4764 C 0.67409 0.71982 0.70478 0.0
C4765 C 0.68093 0.73453 0.69959 0.0
C4766 C 0.68078 0.73649 0.68393 0.0
C4767 C 0.63983 0.74359 0.61187 0.0
C4768 C 0.6451 0.75892 0.6167 0.0
C4769 C 0.64604 0.73571 0.61858 0.0
C4770 C 0.65784 0.74307 0.63003 0.0
C4771 C 0.66245 0.75803 0.63557 0.0
C4772 C 0.65612 0.76588 0.62898 0.0
C4773 C 0.666 0.7355 0.63547 0.0
C4774 C 0.66705 0.73382 0.65116 0.0
C4775 C 0.67239 0.72961 0.62511 0.0
C4776 C 0.67265 0.73203 0.60853 0.0
C4777 C 0.67913 0.7469 0.60352 0.0
C4778 C 0.679 0.74909 0.58791 0.0
C4779 C 0.67256 0.73652 0.57719 0.0
C4780 C 0.66625 0.72172 0.58206 0.0
C4781 C 0.66631 0.71946 0.59766 0.0
H4782 H 0.6725 0.73825 0.56511 0.0
H4783 H 0.67422 0.71832 0.7169 0.0
H4784 H 0.28203 0.984 0.64213 0.0
H4785 H 0.26899 0.95762 0.63146 0.0
H4786 H 0.30474 0.95194 0.65084 0.0
H4787 H 0.31815 0.97865 0.66141 0.0
H4788 H 0.2948 0.93759 0.62206 0.0
H4789 H 0.27245 0.93819 0.6686 0.0
H4790 H 0.26105 0.94712 0.68771 0.0
H4791 H 0.22395 0.93587 0.65546 0.0
H4792 H 0.23524 0.92708 0.63607 0.0
H4793 H 0.24226 0.8548 0.6118 0.0
H4794 H 0.26092 0.88071 0.62254 0.0
H4795 H 0.23378 0.89769 0.60316 0.0
H4796 H 0.21541 0.87211 0.59205 0.0
H4797 H 0.24116 0.90496 0.6349 0.0
H4798 H 0.26528 0.90613 0.58785 0.0
H4799 H 0.27693 0.8969 0.56933 0.0
H4800 H 0.31086 0.90395 0.60383 0.0
H4801 H 0.29927 0.91302 0.62262 0.0
C4802 C 0.28721 0.97721 0.64409 0.0
C4803 C 0.30105 0.98339 0.65279 0.0
C4804 C 0.27971 0.9621 0.638 0.0
C4805 C 0.28574 0.95273 0.64062 0.0
C4806 C 0.29986 0.95898 0.64876 0.0
C4807 C 0.30747 0.97421 0.65481 0.0
C4808 C 0.27686 0.9363 0.63526 0.0
C4809 C 0.28316 0.93035 0.62508 0.0
C4810 C 0.26166 0.92687 0.63919 0.0
C4811 C 0.25476 0.93207 0.65084 0.0
C4812 C 0.26191 0.93772 0.66554 0.0
C4813 C 0.25546 0.94274 0.67643 0.0
C4814 C 0.2418 0.94209 0.67279 0.0
C4815 C 0.23454 0.93638 0.65826 0.0
C4816 C 0.24095 0.93135 0.64732 0.0
C4817 C 0.24042 0.86411 0.60959 0.0
C4818 C 0.22723 0.86135 0.60125 0.0
C4819 C 0.25106 0.87888 0.61577 0.0
C4820 C 0.24864 0.89105 0.61371 0.0
C4821 C 0.23576 0.8884 0.60498 0.0
C4822 C 0.22524 0.87375 0.59873 0.0
C4823 C 0.25892 0.90643 0.62131 0.0
C4824 C 0.25286 0.91214 0.63202 0.0
C4825 C 0.27433 0.9155 0.61799 0.0
C4826 C 0.28129 0.91007 0.60669 0.0
C4827 C 0.27513 0.90556 0.59153 0.0
C4828 C 0.28174 0.9004 0.58097 0.0
C4829 C 0.29459 0.89979 0.58541 0.0
C4830 C 0.30088 0.9044 0.60041 0.0
C4831 C 0.2943 0.90956 0.61102 0.0
H4832 H 0.2997 0.89579 0.57722 0.0
H4833 H 0.23682 0.94599 0.68124 0.0
H4834 H 0.01652 0.32988 0.70229 0.0
H4835 H 0.04157 0.34092 0.69194 0.0
H4836 H 0.03381 0.29557 0.68174 0.0
H4837 H 0.00905 0.28452 0.69272 0.0
H4838 H 0.06179 0.31324 0.69099 0.0
H4839 H 0.02857 0.31712 0.65418 0.0
H4840 H 0.01056 0.32458 0.6448 0.0
H4841 H 0.044 0.37193 0.65564 0.0
H4842 H 0.06215 0.36473 0.66527 0.0
H4843 H 0.10718 0.3257 0.62744 0.0
H4844 H 0.08594 0.31854 0.64354 0.0
H4845 H 0.10643 0.36529 0.66179 0.0
H4846 H 0.12829 0.37256 0.64632 0.0
H4847 H 0.0739 0.34935 0.65027 0.0
H4848 H 0.10798 0.34396 0.68459 0.0
H4849 H 0.12531 0.33492 0.69176 0.0
H4850 H 0.08905 0.28831 0.68301 0.0
H4851 H 0.07155 0.29708 0.67555 0.0
C4852 C 0.02024 0.32228 0.69799 0.0
C4853 C 0.01079 0.30633 0.69822 0.0
C4854 C 0.03452 0.3286 0.69198 0.0
C4855 C 0.03948 0.31908 0.68572 0.0
C4856 C 0.03026 0.30317 0.68645 0.0
C4857 C 0.01609 0.29685 0.69271 0.0
C4858 C 0.05399 0.3256 0.67795 0.0
C4859 C 0.06436 0.32106 0.68203 0.0
C4860 C 0.05753 0.33602 0.66639 0.0
C4861 C 0.04665 0.34037 0.66061 0.0
C4862 C 0.03204 0.32911 0.65467 0.0
C4863 C 0.02181 0.33329 0.64929 0.0
C4864 C 0.02612 0.34872 0.64967 0.0
C4865 C 0.04067 0.35999 0.65539 0.0
C4866 C 0.05093 0.35587 0.6608 0.0
C4867 C 0.10743 0.33447 0.6351 0.0
C4868 C 0.11963 0.34972 0.63564 0.0
C4869 C 0.09518 0.33034 0.6442 0.0
C4870 C 0.0947 0.34137 0.65389 0.0
C4871 C 0.10664 0.35663 0.65436 0.0
C4872 C 0.11907 0.36076 0.64542 0.0
C4873 C 0.08148 0.33684 0.66324 0.0
C4874 C 0.07137 0.34171 0.6594 0.0
C4875 C 0.07803 0.3265 0.67478 0.0
C4876 C 0.08849 0.32118 0.67939 0.0
C4877 C 0.10373 0.33178 0.68407 0.0
C4878 C 0.11358 0.32671 0.68821 0.0
C4879 C 0.10829 0.31105 0.68781 0.0
C4880 C 0.09313 0.30043 0.68331 0.0
C4881 C 0.08324 0.30545 0.67914 0.0
H4882 H 0.11594 0.30714 0.69102 0.0
H4883 H 0.01819 0.35193 0.6455 0.0
H4884 H 0.31587 0.32577 0.67804 0.0
H4885 H 0.3057 0.33776 0.66184 0.0
H4886 H 0.26188 0.29614 0.6586 0.0
H4887 H 0.27199 0.28399 0.6745 0.0
H4888 H 0.26943 0.30739 0.63124 0.0
H4889 H 0.26968 0.32756 0.68249 0.0
H4890 H 0.28167 0.34123 0.70751 0.0
H4891 H 0.31169 0.38176 0.68527 0.0
H4892 H 0.29999 0.36827 0.66009 0.0
H4893 H 0.21599 0.3275 0.61126 0.0
H4894 H 0.23206 0.31982 0.62419 0.0
H4895 H 0.27124 0.3646 0.62008 0.0
H4896 H 0.25514 0.3724 0.60685 0.0
H4897 H 0.26995 0.35459 0.6489 0.0
H4898 H 0.26736 0.33529 0.59783 0.0
H4899 H 0.25504 0.32169 0.57289 0.0
H4900 H 0.22947 0.27963 0.59462 0.0
H4901 H 0.24147 0.29301 0.61973 0.0
C4902 C 0.30406 0.31917 0.6739 0.0
C4903 C 0.29474 0.30392 0.6776 0.0
C4904 C 0.29826 0.32607 0.66467 0.0
C4905 C 0.283 0.31788 0.6591 0.0
C4906 C 0.27371 0.30266 0.66274 0.0
C4907 C 0.2795 0.29575 0.67189 0.0
C4908 C 0.27658 0.32502 0.64944 0.0
C4909 C 0.26946 0.31766 0.63515 0.0
C4910 C 0.27711 0.33874 0.65428 0.0
C4911 C 0.28409 0.34686 0.66941 0.0
C4912 C 0.27892 0.33936 0.68293 0.0
C4913 C 0.28565 0.34707 0.69714 0.0
C4914 C 0.29747 0.36234 0.69797 0.0
C4915 C 0.30256 0.36993 0.6846 0.0
C4916 C 0.29588 0.36226 0.67036 0.0
C4917 C 0.22807 0.33567 0.61282 0.0
C4918 C 0.23432 0.35051 0.60782 0.0
C4919 C 0.23723 0.33126 0.62028 0.0
C4920 C 0.25288 0.34156 0.62288 0.0
C4921 C 0.25919 0.35647 0.61811 0.0
C4922 C 0.24999 0.3609 0.61059 0.0
C4923 C 0.26239 0.33666 0.63095 0.0
C4924 C 0.27012 0.34446 0.6449 0.0
C4925 C 0.26244 0.32334 0.62579 0.0
C4926 C 0.25527 0.31519 0.61069 0.0
C4927 C 0.25904 0.32316 0.59731 0.0
C4928 C 0.25212 0.31548 0.58313 0.0
C4929 C 0.24146 0.29981 0.58217 0.0
C4930 C 0.23773 0.29177 0.59538 0.0
C4931 C 0.24461 0.29939 0.60959 0.0
H4932 H 0.23611 0.29389 0.57119 0.0
H4933 H 0.30266 0.36829 0.70899 0.0
H4934 H 0.66519 0.99065 0.63237 0.0
H4935 H 0.65463 0.96467 0.62078 0.0
H4936 H 0.69602 0.96588 0.63407 0.0
H4937 H 0.70669 0.9919 0.64569 0.0
H4938 H 0.68658 0.95591 0.60384 0.0
H4939 H 0.66491 0.94532 0.65297 0.0
H4940 H 0.65046 0.94734 0.67397 0.0
H4941 H 0.61068 0.92909 0.64348 0.0
H4942 H 0.62497 0.92715 0.62223 0.0
H4943 H 0.66574 0.879 0.59317 0.0
H4944 H 0.67347 0.9045 0.60412 0.0
H4945 H 0.63001 0.89802 0.58935 0.0
H4946 H 0.62218 0.87235 0.57815 0.0
H4947 H 0.63908 0.91086 0.61888 0.0
H4948 H 0.66004 0.92028 0.57002 0.0
H4949 H 0.67424 0.91816 0.54883 0.0
H4950 H 0.71494 0.93875 0.57822 0.0
H4951 H 0.70095 0.94081 0.59968 0.0
C4952 C 0.67201 0.98536 0.63292 0.0
C4953 C 0.68678 0.99332 0.63993 0.0
C4954 C 0.66594 0.9705 0.62633 0.0
C4955 C 0.67452 0.96335 0.62663 0.0
C4956 C 0.68922 0.97122 0.63372 0.0
C4957 C 0.69528 0.98605 0.64039 0.0
C4958 C 0.66839 0.94786 0.61912 0.0
C4959 C 0.67629 0.94602 0.60724 0.0
C4960 C 0.65467 0.9351 0.62321 0.0
C4961 C 0.64606 0.93625 0.63597 0.0
C4962 C 0.65312 0.94187 0.65071 0.0
C4963 C 0.64495 0.94297 0.66267 0.0
C4964 C 0.62967 0.93839 0.66005 0.0
C4965 C 0.62252 0.93266 0.64548 0.0
C4966 C 0.63065 0.93154 0.63348 0.0
C4967 C 0.65787 0.88304 0.59205 0.0
C4968 C 0.64343 0.87375 0.58459 0.0
C4969 C 0.66229 0.8976 0.59838 0.0
C4970 C 0.6524 0.90323 0.59734 0.0
C4971 C 0.63782 0.89389 0.59021 0.0
C4972 C 0.63337 0.87925 0.58385 0.0
C4973 C 0.65743 0.91888 0.60379 0.0
C4974 C 0.64931 0.92077 0.61541 0.0
C4975 C 0.67092 0.93173 0.59941 0.0
C4976 C 0.67941 0.93059 0.5865 0.0
C4977 C 0.67199 0.92426 0.57201 0.0
C4978 C 0.68001 0.92308 0.55993 0.0
C4979 C 0.69547 0.92829 0.56218 0.0
C4980 C 0.70296 0.93472 0.5765 0.0
C4981 C 0.695 0.93591 0.58862 0.0
H4982 H 0.70165 0.92736 0.55281 0.0
H4983 H 0.62336 0.93925 0.66932 0.0
H4984 H 0.00845 0.72447 0.695 0.0
H4985 H 0.0329 0.73372 0.68373 0.0
H4986 H 0.01533 0.68969 0.65918 0.0
H4987 H 0.99124 0.68016 0.67124 0.0
H4988 H 0.04217 0.6987 0.66816 0.0
H4989 H 0.01966 0.7234 0.64241 0.0
H4990 H 0.00777 0.73903 0.64004 0.0
H4991 H 0.04742 0.77779 0.66249 0.0
H4992 H 0.05948 0.76233 0.66516 0.0
H4993 H 0.09258 0.72525 0.60632 0.0
H4994 H 0.0707 0.71511 0.6224 0.0
H4995 H 0.09641 0.75323 0.65565 0.0
H4996 H 0.11842 0.76317 0.63973 0.0
H4997 H 0.06686 0.74795 0.64352 0.0
H4998 H 0.08961 0.72172 0.66642 0.0
H4999 H 0.10058 0.70514 0.66598 0.0
H5000 H 0.05881 0.66784 0.64511 0.0
H5001 H 0.04765 0.68427 0.64521 0.0
C5002 C 0.00984 0.71679 0.68719 0.0
C5003 C -0.00205 0.70163 0.68392 0.0
C5004 C 0.0238 0.7221 0.68068 0.0
C5005 C 0.02594 0.71252 0.67031 0.0
C5006 C 0.01403 0.69733 0.66713 0.0
C5007 C 0.00023 0.6919 0.67397 0.0
C5008 C 0.04052 0.71826 0.66277 0.0
C5009 C 0.04744 0.70939 0.66264 0.0
C5010 C 0.04762 0.73234 0.65572 0.0
C5011 C 0.0404 0.74166 0.65413 0.0
C5012 C 0.0258 0.73522 0.64694 0.0
C5013 C 0.01903 0.74406 0.64553 0.0
C5014 C 0.02681 0.75938 0.65115 0.0
C5015 C 0.04139 0.76591 0.65817 0.0
C5016 C 0.0482 0.75712 0.65962 0.0
C5017 C 0.09361 0.7312 0.61725 0.0
C5018 C 0.1071 0.74484 0.62197 0.0
C5019 C 0.08117 0.72545 0.62638 0.0
C5020 C 0.08201 0.73344 0.64019 0.0
C5021 C 0.09561 0.74691 0.64505 0.0
C5022 C 0.10815 0.75251 0.63605 0.0
C5023 C 0.06829 0.72834 0.64889 0.0
C5024 C 0.06156 0.73731 0.64916 0.0
C5025 C 0.06117 0.7142 0.65569 0.0
C5026 C 0.06784 0.70428 0.6557 0.0
C5027 C 0.08281 0.71003 0.66161 0.0
C5028 C 0.08905 0.70064 0.66145 0.0
C5029 C 0.08041 0.68546 0.65549 0.0
C5030 C 0.06549 0.67961 0.64971 0.0
C5031 C 0.0592 0.68895 0.64983 0.0
H5032 H 0.08526 0.67821 0.65538 0.0
H5033 H 0.02156 0.7662 0.65005 0.0
H5034 H 0.98482 0.6469 0.72833 0.0
H5035 H 0.99064 0.62831 0.73805 0.0
H5036 H 0.94541 0.59168 0.72362 0.0
H5037 H 0.93946 0.61029 0.7138 0.0
H5038 H 0.95393 0.59026 0.75342 0.0
H5039 H 0.97431 0.59548 0.70429 0.0
H5040 H 0.98957 0.60936 0.68303 0.0
H5041 H 0.03024 0.62895 0.71239 0.0
H5042 H 0.0152 0.61536 0.7339 0.0
H5043 H 0.97016 0.53372 0.77438 0.0
H5044 H 0.9629 0.54847 0.7587 0.0
H5045 H 0.00781 0.58812 0.76726 0.0
H5046 H 0.01517 0.57335 0.78279 0.0
H5047 H -0.00209 0.58604 0.73829 0.0
H5048 H 0.9779 0.58342 0.78774 0.0
H5049 H 0.96316 0.57047 0.80964 0.0
H5050 H 0.92236 0.54707 0.78034 0.0
H5051 H 0.93691 0.55974 0.75821 0.0
C5052 C 0.97612 0.63488 0.72712 0.0
C5053 C 0.96167 0.63005 0.72031 0.0
C5054 C 0.9795 0.62427 0.73262 0.0
C5055 C 0.9685 0.60861 0.73143 0.0
C5056 C 0.95407 0.60372 0.72459 0.0
C5057 C 0.9507 0.61434 0.71897 0.0
C5058 C 0.97196 0.59753 0.73803 0.0
C5059 C 0.96335 0.58909 0.74991 0.0
C5060 C 0.9845 0.59633 0.73368 0.0
C5061 C 0.9936 0.60448 0.72075 0.0
C5062 C 0.98649 0.60284 0.70625 0.0
C5063 C 0.99511 0.61064 0.69415 0.0
C5064 C 0.01086 0.62005 0.69637 0.0
C5065 C 0.01804 0.62166 0.71069 0.0
C5066 C 0.00947 0.6139 0.72284 0.0
C5067 C 0.97849 0.54557 0.77286 0.0
C5068 C 0.99319 0.55243 0.77991 0.0
C5069 C 0.97434 0.55398 0.7639 0.0
C5070 C 0.98474 0.56947 0.76201 0.0
C5071 C -0.0004 0.57618 0.76856 0.0
C5072 C 0.0038 0.56774 0.77742 0.0
C5073 C 0.97997 0.57889 0.75381 0.0
C5074 C 0.98836 0.58706 0.74167 0.0
C5075 C 0.9673 0.57995 0.758 0.0
C5076 C 0.95852 0.57239 0.7713 0.0
C5077 C 0.96581 0.57543 0.78595 0.0
C5078 C 0.95748 0.56815 0.79841 0.0
C5079 C 0.94184 0.55792 0.79638 0.0
C5080 C 0.93448 0.55498 0.78189 0.0
C5081 C 0.94276 0.5622 0.76939 0.0
H5082 H 0.93541 0.5523 0.80603 0.0
H5083 H 0.01751 0.62608 0.68698 0.0
H5084 H 0.34483 0.35289 0.7297 0.0
H5085 H 0.36137 0.37857 0.74206 0.0
H5086 H 0.39802 0.36964 0.74628 0.0
H5087 H 0.38165 0.34402 0.7336 0.0
H5088 H 0.39145 0.38274 0.7742 0.0
H5089 H 0.40086 0.39045 0.72042 0.0
H5090 H 0.39292 0.38871 0.69324 0.0
H5091 H 0.37242 0.41531 0.70424 0.0
H5092 H 0.38007 0.41702 0.73154 0.0
H5093 H 0.45552 0.45489 0.79379 0.0
H5094 H 0.43674 0.42958 0.7827 0.0
H5095 H 0.40839 0.44685 0.76733 0.0
H5096 H 0.42776 0.4726 0.77747 0.0
H5097 H 0.40875 0.42925 0.74568 0.0
H5098 H 0.39999 0.42366 0.79841 0.0
H5099 H 0.4065 0.4255 0.82601 0.0
H5100 H 0.42317 0.39495 0.81827 0.0
H5101 H 0.41698 0.3931 0.79058 0.0
C5102 C 0.35643 0.35641 0.73323 0.0
C5103 C 0.36198 0.34648 0.73067 0.0
C5104 C 0.36583 0.37105 0.74028 0.0
C5105 C 0.38086 0.37592 0.74507 0.0
C5106 C 0.38642 0.36602 0.74267 0.0
C5107 C 0.37709 0.35145 0.73537 0.0
C5108 C 0.39084 0.39144 0.75247 0.0
C5109 C 0.3954 0.39294 0.76798 0.0
C5110 C 0.39541 0.40467 0.74444 0.0
C5111 C 0.39088 0.40371 0.72803 0.0
C5112 C 0.39454 0.3958 0.71706 0.0
C5113 C 0.39012 0.39485 0.70163 0.0
C5114 C 0.38213 0.40185 0.69702 0.0
C5115 C 0.37859 0.40987 0.70783 0.0
C5116 C 0.38297 0.41084 0.72328 0.0
C5117 C 0.44539 0.45341 0.78791 0.0
C5118 C 0.44325 0.46588 0.78642 0.0
C5119 C 0.4345 0.43881 0.78178 0.0
C5120 C 0.421 0.4362 0.77438 0.0
C5121 C 0.41869 0.44856 0.77305 0.0
C5122 C 0.42972 0.46326 0.77899 0.0
C5123 C 0.40966 0.4207 0.76749 0.0
C5124 C 0.40477 0.41914 0.75204 0.0
C5125 C 0.40454 0.40742 0.77569 0.0
C5126 C 0.40813 0.40834 0.79238 0.0
C5127 C 0.40514 0.41741 0.80257 0.0
C5128 C 0.40876 0.41845 0.81824 0.0
C5129 C 0.41527 0.41038 0.82388 0.0
C5130 C 0.41813 0.40121 0.81388 0.0
C5131 C 0.41455 0.40014 0.79819 0.0
H5132 H 0.41808 0.41121 0.83601 0.0
H5133 H 0.37872 0.4011 0.68507 0.0
H5134 H 0.65823 0.05579 0.67119 0.0
H5135 H 0.63461 0.0452 0.68436 0.0
H5136 H 0.64715 0.01716 0.70899 0.0
H5137 H 0.6702 0.02694 0.695 0.0
H5138 H 0.61919 0.00131 0.70261 0.0
H5139 H 0.65109 0.0526 0.7246 0.0
H5140 H 0.66732 0.08067 0.72484 0.0
H5141 H 0.63007 0.08335 0.70508 0.0
H5142 H 0.61367 0.05526 0.70455 0.0
H5143 H 0.57866 0.99658 0.7701 0.0
H5144 H 0.59853 0.0034 0.75191 0.0
H5145 H 0.57195 0.01104 0.71843 0.0
H5146 H 0.55182 0.00378 0.73647 0.0
H5147 H 0.60514 0.03648 0.72786 0.0
H5148 H 0.57303 0.98347 0.709 0.0
H5149 H 0.55815 0.95573 0.71205 0.0
H5150 H 0.59815 0.9571 0.7302 0.0
H5151 H 0.61322 0.98491 0.72747 0.0
C5152 C 0.65587 0.04733 0.67939 0.0
C5153 C 0.66602 0.04223 0.68218 0.0
C5154 C 0.64243 0.04134 0.68698 0.0
C5155 C 0.63921 0.03061 0.69796 0.0
C5156 C 0.64932 0.0254 0.70059 0.0
C5157 C 0.66252 0.03104 0.69265 0.0
C5158 C 0.62543 0.0249 0.70684 0.0
C5159 C 0.61625 0.00907 0.70821 0.0
C5160 C 0.62138 0.03493 0.71406 0.0
C5161 C 0.63121 0.05182 0.71437 0.0
C5162 C 0.6464 0.05917 0.7202 0.0
C5163 C 0.65562 0.07508 0.72041 0.0
C5164 C 0.64974 0.08379 0.71494 0.0
C5165 C 0.63461 0.07659 0.70929 0.0
C5166 C 0.62535 0.06068 0.70904 0.0
C5167 C 0.57701 -0.0005 0.75877 0.0
C5168 C 0.5638 -0.00034 0.75457 0.0
C5169 C 0.58829 0.00336 0.74843 0.0
C5170 C 0.5866 0.00767 0.7339 0.0
C5171 C 0.57334 0.00767 0.72961 0.0
C5172 C 0.5619 0.00349 0.73984 0.0
C5173 C 0.59917 0.01307 0.7236 0.0
C5174 C 0.60811 0.02883 0.72206 0.0
C5175 C 0.60324 0.00304 0.71664 0.0
C5176 C 0.59422 0.9863 0.71816 0.0
C5177 C 0.57862 0.97789 0.71377 0.0
C5178 C 0.57016 0.96214 0.71542 0.0
C5179 C 0.57719 0.95466 0.72136 0.0
C5180 C 0.59271 0.96291 0.72562 0.0
C5181 C 0.60122 0.97866 0.72401 0.0
H5182 H 0.57062 0.94247 0.72262 0.0
H5183 H 0.6569 0.09611 0.71511 0.0
loop_
_geom_bond_atom_site_label_1
_geom_bond_atom_site_label_2
_geom_bond_distance
_geom_bond_site_symmetry_2
_ccdc_geom_bond_type
C0 O1 1.306 . S
C0 O3 1.160 . S
O1 C0 1.306 . S
O1 Cd2 2.228 . S
Cd2 O1 2.228 . S
Cd2 O6 2.273 . S
Cd2 O10 2.277 . S
O3 C0 1.160 . S
O3 Cd4 2.203 1_655 S
Cd4 O3 2.203 1_455 S
Cd4 O6 2.411 1_455 S
Cd4 O7 2.333 . S
Cd4 O8 2.352 . S
Cd4 O12 2.321 . S
Cd4 O13 2.356 . S
C5 O10 1.209 1_456 S
C5 O12 1.216 1_556 S
O6 Cd2 2.273 . S
O6 Cd4 2.411 1_655 S
O6 C9 1.320 1_655 S
O7 Cd4 2.333 . S
O7 C9 1.214 . S
O8 Cd4 2.352 . S
O8 C11 1.258 . S
C9 O6 1.320 1_455 S
C9 O7 1.214 . S
O10 Cd2 2.277 . S
O10 C5 1.209 1_654 S
C11 O8 1.258 . S
C11 O13 1.282 . S
O12 Cd4 2.321 . S
O12 C5 1.216 1_554 S
O13 Cd4 2.356 . S
O13 C11 1.282 . S
C14 O15 1.306 . S
C14 O17 1.160 . S
O15 C14 1.306 . S
O15 Cd16 2.228 . S
Cd16 O15 2.228 . S
Cd16 O20 2.273 . S
Cd16 O24 2.277 . S
O17 C14 1.160 . S
O17 Cd18 2.203 . S
Cd18 O17 2.203 . S
Cd18 O20 2.411 . S
Cd18 O21 2.333 . S
Cd18 O22 2.352 . S
Cd18 O26 2.277 . S
Cd18 O27 2.356 . S
C19 O24 1.209 . S
C19 O26 1.226 . S
O20 Cd16 2.273 . S
O20 Cd18 2.411 . S
O20 C23 1.320 . S
O21 Cd18 2.333 . S
O21 C23 1.214 . S
O22 Cd18 2.352 . S
O22 C25 1.258 . S
C23 O20 1.320 . S
C23 O21 1.214 . S
O24 Cd16 2.277 . S
O24 C19 1.209 . S
C25 O22 1.258 . S
C25 O27 1.282 . S
O26 Cd18 2.277 . S
O26 C19 1.226 . S
O27 Cd18 2.356 . S
O27 C25 1.282 . S
C28 O29 1.306 . S
C28 O31 1.160 . S
O29 C28 1.306 . S
O29 Cd30 2.228 . S
Cd30 O29 2.228 . S
Cd30 O34 2.273 . S
Cd30 O38 2.277 . S
O31 C28 1.160 . S
O31 Cd32 2.203 1_565 S
Cd32 O31 2.203 1_545 S
Cd32 O34 2.411 1_545 S
Cd32 O35 2.333 . S
Cd32 O36 2.352 . S
Cd32 O40 2.277 . S
Cd32 O41 2.356 . S
C33 O38 1.209 1_545 S
C33 O40 1.226 . S
O34 Cd30 2.273 . S
O34 Cd32 2.411 1_565 S
O34 C37 1.320 1_554 S
O35 Cd32 2.333 . S
O35 C37 1.214 1_544 S
O36 Cd32 2.352 . S
O36 C39 1.258 . S
C37 O34 1.320 1_556 S
C37 O35 1.214 1_566 S
O38 Cd30 2.277 . S
O38 C33 1.209 1_565 S
C39 O36 1.258 . S
C39 O41 1.282 . S
O40 Cd32 2.277 . S
O40 C33 1.226 . S
O41 Cd32 2.356 . S
O41 C39 1.282 . S
C42 O43 1.306 . S
C42 O45 1.160 . S
O43 C42 1.306 . S
O43 Cd44 2.228 . S
Cd44 O43 2.228 . S
Cd44 O48 2.273 . S
Cd44 O52 2.277 . S
O45 C42 1.160 . S
O45 Cd46 2.203 1_655 S
Cd46 O45 2.203 1_455 S
Cd46 O48 2.411 1_455 S
Cd46 O49 2.333 . S
Cd46 O50 2.352 . S
Cd46 O54 2.277 . S
Cd46 O55 2.356 . S
C47 O52 1.209 1_455 S
C47 O54 1.226 . S
O48 Cd44 2.273 . S
O48 Cd46 2.411 1_655 S
O48 C51 1.342 . S
O49 Cd46 2.333 . S
O49 C51 1.195 1_455 S
O50 Cd46 2.352 . S
O50 C53 1.258 . S
C51 O48 1.342 . S
C51 O49 1.195 1_655 S
O52 Cd44 2.277 . S
O52 C47 1.209 1_655 S
C53 O50 1.258 . S
C53 O55 1.282 . S
O54 Cd46 2.277 . S
O54 C47 1.226 . S
O55 Cd46 2.356 . S
O55 C53 1.282 . S
C56 O57 1.306 . S
C56 O59 1.160 . S
O57 C56 1.306 . S
O57 Cd58 2.228 . S
Cd58 O57 2.228 . S
Cd58 O62 2.273 1_554 S
Cd58 O66 2.277 . S
O59 C56 1.160 . S
O59 Cd60 2.203 . S
Cd60 O59 2.203 . S
Cd60 O62 2.411 1_554 S
Cd60 O63 2.333 1_554 S
Cd60 O64 2.352 1_554 S
Cd60 O68 2.277 . S
Cd60 O69 2.356 1_554 S
C61 O66 1.209 . S
C61 O68 1.226 . S
O62 Cd58 2.273 1_556 S
O62 Cd60 2.411 1_556 S
O62 C65 1.320 . S
O63 Cd60 2.333 1_556 S
O63 C65 1.214 . S
O64 Cd60 2.352 1_556 S
O64 C67 1.258 . S
C65 O62 1.320 . S
C65 O63 1.214 . S
O66 Cd58 2.277 . S
O66 C61 1.209 . S
C67 O64 1.258 . S
C67 O69 1.282 . S
O68 Cd60 2.277 . S
O68 C61 1.226 . S
O69 Cd60 2.356 1_556 S
O69 C67 1.282 . S
C70 O71 1.306 . S
C70 O73 1.160 . S
O71 C70 1.306 . S
O71 Cd72 2.228 . S
Cd72 O71 2.228 . S
Cd72 O76 2.273 . S
Cd72 O80 2.277 . S
O73 C70 1.160 . S
O73 Cd74 2.203 1_545 S
Cd74 O73 2.203 1_565 S
Cd74 O76 2.411 1_565 S
Cd74 O77 2.333 . S
Cd74 O78 2.352 . S
Cd74 O82 2.277 . S
Cd74 O83 2.356 . S
C75 O80 1.209 1_565 S
C75 O82 1.226 . S
O76 Cd72 2.273 . S
O76 Cd74 2.411 1_545 S
O76 C79 1.320 . S
O77 Cd74 2.333 . S
O77 C79 1.214 1_565 S
O78 Cd74 2.352 . S
O78 C81 1.258 . S
C79 O76 1.320 . S
C79 O77 1.214 1_545 S
O80 Cd72 2.277 . S
O80 C75 1.209 1_545 S
C81 O78 1.258 . S
C81 O83 1.282 . S
O82 Cd74 2.277 . S
O82 C75 1.226 . S
O83 Cd74 2.356 . S
O83 C81 1.282 . S
C84 O85 1.306 . S
C84 O87 1.160 . S
O85 C84 1.306 . S
O85 Cd86 2.228 . S
Cd86 O85 2.228 . S
Cd86 O90 2.273 . S
Cd86 O94 2.277 . S
O87 C84 1.160 . S
O87 Cd88 2.203 . S
Cd88 O87 2.203 . S
Cd88 O90 2.411 . S
Cd88 O91 2.333 . S
Cd88 O92 2.352 . S
Cd88 O96 2.277 . S
Cd88 O97 2.356 . S
C89 O94 1.209 . S
C89 O96 1.226 . S
O90 Cd86 2.273 . S
O90 Cd88 2.411 . S
O90 C93 1.320 . S
O91 Cd88 2.333 . S
O91 C93 1.214 . S
O92 Cd88 2.352 . S
O92 C95 1.258 . S
C93 O90 1.320 . S
C93 O91 1.214 . S
O94 Cd86 2.277 . S
O94 C89 1.209 . S
C95 O92 1.258 . S
C95 O97 1.282 . S
O96 Cd88 2.277 . S
O96 C89 1.226 . S
O97 Cd88 2.356 . S
O97 C95 1.282 . S
C98 O99 1.306 . S
C98 O101 1.160 . S
O99 C98 1.306 . S
O99 Cd100 2.228 . S
Cd100 O99 2.228 . S
Cd100 O104 2.273 . S
Cd100 O108 2.277 . S
O101 C98 1.160 . S
O101 Cd102 2.203 . S
Cd102 O101 2.203 . S
Cd102 O104 2.411 . S
Cd102 O105 2.333 . S
Cd102 O106 2.352 . S
Cd102 O110 2.277 . S
Cd102 O111 2.356 . S
C103 O108 1.209 . S
C103 O110 1.226 . S
O104 Cd100 2.273 . S
O104 Cd102 2.411 . S
O104 C107 1.320 . S
O105 Cd102 2.333 . S
O105 C107 1.214 . S
O106 Cd102 2.352 . S
O106 C109 1.258 . S
C107 O104 1.320 . S
C107 O105 1.214 . S
O108 Cd100 2.277 . S
O108 C103 1.209 . S
C109 O106 1.258 . S
C109 O111 1.282 . S
O110 Cd102 2.277 . S
O110 C103 1.226 . S
O111 Cd102 2.356 . S
O111 C109 1.282 . S
C112 O113 1.306 . S
C112 O115 1.160 . S
O113 C112 1.306 . S
O113 Cd114 2.228 . S
Cd114 O113 2.228 . S
Cd114 O118 2.273 . S
Cd114 O122 2.277 . S
O115 C112 1.160 . S
O115 Cd116 2.203 . S
Cd116 O115 2.203 . S
Cd116 O118 2.411 . S
Cd116 O119 2.333 . S
Cd116 O120 2.352 . S
Cd116 O124 2.277 . S
Cd116 O125 2.356 . S
C117 O122 1.209 . S
C117 O124 1.226 . S
O118 Cd114 2.273 . S
O118 Cd116 2.411 . S
O118 C121 1.320 . S
O119 Cd116 2.333 . S
O119 C121 1.214 . S
O120 Cd116 2.352 . S
O120 C123 1.258 . S
C121 O118 1.320 . S
C121 O119 1.214 . S
O122 Cd114 2.277 . S
O122 C117 1.209 . S
C123 O120 1.258 . S
C123 O125 1.282 . S
O124 Cd116 2.277 . S
O124 C117 1.226 . S
O125 Cd116 2.356 . S
O125 C123 1.282 . S
C126 O127 1.306 . S
C126 O129 1.160 . S
O127 C126 1.306 . S
O127 Cd128 2.228 . S
Cd128 O127 2.228 . S
Cd128 O132 2.273 . S
Cd128 O136 2.277 . S
O129 C126 1.160 . S
O129 Cd130 2.203 . S
Cd130 O129 2.203 . S
Cd130 O132 2.411 . S
Cd130 O133 2.333 . S
Cd130 O134 2.352 . S
Cd130 O138 2.277 . S
Cd130 O139 2.356 . S
C131 O136 1.209 . S
C131 O138 1.226 . S
O132 Cd128 2.273 . S
O132 Cd130 2.411 . S
O132 C135 1.320 . S
O133 Cd130 2.333 . S
O133 C135 1.214 . S
O134 Cd130 2.352 . S
O134 C137 1.258 . S
C135 O132 1.320 . S
C135 O133 1.214 . S
O136 Cd128 2.277 . S
O136 C131 1.209 . S
C137 O134 1.258 . S
C137 O139 1.282 . S
O138 Cd130 2.277 . S
O138 C131 1.226 . S
O139 Cd130 2.356 . S
O139 C137 1.282 . S
C140 O141 1.306 . S
C140 O143 1.160 . S
O141 C140 1.306 . S
O141 Cd142 2.228 . S
Cd142 O141 2.228 . S
Cd142 O146 2.273 . S
Cd142 O150 2.277 . S
O143 C140 1.160 . S
O143 Cd144 2.203 . S
Cd144 O143 2.203 . S
Cd144 O146 2.411 . S
Cd144 O147 2.333 . S
Cd144 O148 2.352 . S
Cd144 O152 2.277 . S
Cd144 O153 2.356 . S
C145 O150 1.209 . S
C145 O152 1.226 . S
O146 Cd142 2.273 . S
O146 Cd144 2.411 . S
O146 C149 1.320 . S
O147 Cd144 2.333 . S
O147 C149 1.214 . S
O148 Cd144 2.352 . S
O148 C151 1.258 . S
C149 O146 1.320 . S
C149 O147 1.214 . S
O150 Cd142 2.277 . S
O150 C145 1.209 . S
C151 O148 1.258 . S
C151 O153 1.282 . S
O152 Cd144 2.277 . S
O152 C145 1.226 . S
O153 Cd144 2.356 . S
O153 C151 1.282 . S
C154 O155 1.306 . S
C154 O157 1.160 . S
O155 C154 1.306 . S
O155 Cd156 2.228 . S
Cd156 O155 2.228 . S
Cd156 O160 2.273 . S
Cd156 O164 2.277 . S
O157 C154 1.160 . S
O157 Cd158 2.203 . S
Cd158 O157 2.203 . S
Cd158 O160 2.411 . S
Cd158 O161 2.333 . S
Cd158 O162 2.352 . S
Cd158 O166 2.277 . S
Cd158 O167 2.356 . S
C159 O164 1.209 . S
C159 O166 1.226 . S
O160 Cd156 2.273 . S
O160 Cd158 2.411 . S
O160 C163 1.320 . S
O161 Cd158 2.333 . S
O161 C163 1.214 . S
O162 Cd158 2.352 . S
O162 C165 1.258 . S
C163 O160 1.320 . S
C163 O161 1.214 . S
O164 Cd156 2.277 . S
O164 C159 1.209 . S
C165 O162 1.258 . S
C165 O167 1.282 . S
O166 Cd158 2.277 . S
O166 C159 1.226 . S
O167 Cd158 2.356 . S
O167 C165 1.282 . S
C168 O169 1.306 . S
C168 O171 1.160 . S
O169 C168 1.306 . S
O169 Cd170 2.228 . S
Cd170 O169 2.228 . S
Cd170 O174 2.273 . S
Cd170 O178 2.277 . S
O171 C168 1.160 . S
O171 Cd172 2.203 . S
Cd172 O171 2.203 . S
Cd172 O174 2.411 . S
Cd172 O175 2.333 . S
Cd172 O176 2.352 . S
Cd172 O180 2.277 . S
Cd172 O181 2.356 . S
C173 O178 1.209 . S
C173 O180 1.226 . S
O174 Cd170 2.273 . S
O174 Cd172 2.411 . S
O174 C177 1.320 . S
O175 Cd172 2.333 . S
O175 C177 1.214 . S
O176 Cd172 2.352 . S
O176 C179 1.258 . S
C177 O174 1.320 . S
C177 O175 1.214 . S
O178 Cd170 2.277 . S
O178 C173 1.209 . S
C179 O176 1.258 . S
C179 O181 1.282 . S
O180 Cd172 2.277 . S
O180 C173 1.226 . S
O181 Cd172 2.356 . S
O181 C179 1.282 . S
C182 O183 1.306 . S
C182 O185 1.160 . S
O183 C182 1.306 . S
O183 Cd184 2.228 . S
Cd184 O183 2.228 . S
Cd184 O188 2.273 . S
Cd184 O192 2.277 . S
O185 C182 1.160 . S
O185 Cd186 2.203 . S
Cd186 O185 2.203 . S
Cd186 O188 2.411 . S
Cd186 O189 2.333 . S
Cd186 O190 2.352 . S
Cd186 O194 2.277 . S
Cd186 O195 2.356 . S
C187 O192 1.209 . S
C187 O194 1.226 . S
O188 Cd184 2.273 . S
O188 Cd186 2.411 . S
O188 C191 1.320 . S
O189 Cd186 2.333 . S
O189 C191 1.214 . S
O190 Cd186 2.352 . S
O190 C193 1.258 . S
C191 O188 1.320 . S
C191 O189 1.214 . S
O192 Cd184 2.277 . S
O192 C187 1.209 . S
C193 O190 1.258 . S
C193 O195 1.282 . S
O194 Cd186 2.277 . S
O194 C187 1.226 . S
O195 Cd186 2.356 . S
O195 C193 1.282 . S
C196 O197 1.306 . S
C196 O199 1.160 . S
O197 C196 1.306 . S
O197 Cd198 2.228 . S
Cd198 O197 2.228 . S
Cd198 O202 2.273 . S
Cd198 O206 2.277 . S
O199 C196 1.160 . S
O199 Cd200 2.203 . S
Cd200 O199 2.203 . S
Cd200 O202 2.411 . S
Cd200 O203 2.333 . S
Cd200 O204 2.352 . S
Cd200 O208 2.277 . S
Cd200 O209 2.356 . S
C201 O206 1.209 . S
C201 O208 1.226 . S
O202 Cd198 2.273 . S
O202 Cd200 2.411 . S
O202 C205 1.320 . S
O203 Cd200 2.333 . S
O203 C205 1.214 . S
O204 Cd200 2.352 . S
O204 C207 1.258 . S
C205 O202 1.320 . S
C205 O203 1.214 . S
O206 Cd198 2.277 . S
O206 C201 1.209 . S
C207 O204 1.258 . S
C207 O209 1.282 . S
O208 Cd200 2.277 . S
O208 C201 1.226 . S
O209 Cd200 2.356 . S
O209 C207 1.282 . S
C210 O211 1.306 . S
C210 O213 1.160 . S
O211 C210 1.306 . S
O211 Cd212 2.228 . S
Cd212 O211 2.228 . S
Cd212 O216 2.273 . S
Cd212 O220 2.277 . S
O213 C210 1.160 . S
O213 Cd214 2.203 . S
Cd214 O213 2.203 . S
Cd214 O216 2.411 . S
Cd214 O217 2.333 . S
Cd214 O218 2.352 . S
Cd214 O222 2.277 . S
Cd214 O223 2.356 . S
C215 O220 1.209 . S
C215 O222 1.226 . S
O216 Cd212 2.273 . S
O216 Cd214 2.411 . S
O216 C219 1.320 . S
O217 Cd214 2.333 . S
O217 C219 1.214 . S
O218 Cd214 2.352 . S
O218 C221 1.258 . S
C219 O216 1.320 . S
C219 O217 1.214 . S
O220 Cd212 2.277 . S
O220 C215 1.209 . S
C221 O218 1.258 . S
C221 O223 1.282 . S
O222 Cd214 2.277 . S
O222 C215 1.226 . S
O223 Cd214 2.356 . S
O223 C221 1.282 . S
C224 O225 1.306 . S
C224 O227 1.160 . S
O225 C224 1.306 . S
O225 Cd226 2.228 . S
Cd226 O225 2.228 . S
Cd226 O230 2.273 . S
Cd226 O234 2.277 . S
O227 C224 1.160 . S
O227 Cd228 2.203 . S
Cd228 O227 2.203 . S
Cd228 O230 2.411 . S
Cd228 O231 2.333 . S
Cd228 O232 2.352 . S
Cd228 O236 2.277 . S
Cd228 O237 2.356 . S
C229 O234 1.209 . S
C229 O236 1.226 . S
O230 Cd226 2.273 . S
O230 Cd228 2.411 . S
O230 C233 1.320 . S
O231 Cd228 2.333 . S
O231 C233 1.214 . S
O232 Cd228 2.352 . S
O232 C235 1.258 . S
C233 O230 1.320 . S
C233 O231 1.214 . S
O234 Cd226 2.277 . S
O234 C229 1.209 . S
C235 O232 1.258 . S
C235 O237 1.282 . S
O236 Cd228 2.277 . S
O236 C229 1.226 . S
O237 Cd228 2.356 . S
O237 C235 1.282 . S
C238 O239 1.306 . S
C238 O241 1.160 . S
O239 C238 1.306 . S
O239 Cd240 2.228 . S
Cd240 O239 2.228 . S
Cd240 O244 2.273 . S
Cd240 O248 2.277 . S
O241 C238 1.160 . S
O241 Cd242 2.203 . S
Cd242 O241 2.203 . S
Cd242 O244 2.411 . S
Cd242 O245 2.333 . S
Cd242 O246 2.352 . S
Cd242 O250 2.277 . S
Cd242 O251 2.356 . S
C243 O248 1.209 . S
C243 O250 1.226 . S
O244 Cd240 2.273 . S
O244 Cd242 2.411 . S
O244 C247 1.320 . S
O245 Cd242 2.333 . S
O245 C247 1.214 . S
O246 Cd242 2.352 . S
O246 C249 1.258 . S
C247 O244 1.320 . S
C247 O245 1.214 . S
O248 Cd240 2.277 . S
O248 C243 1.209 . S
C249 O246 1.258 . S
C249 O251 1.282 . S
O250 Cd242 2.277 . S
O250 C243 1.226 . S
O251 Cd242 2.356 . S
O251 C249 1.282 . S
H252 O278 0.856 . S
H253 O281 0.854 . S
H254 C289 0.930 . S
H255 C290 0.930 . S
H256 C292 0.930 . S
H257 C293 0.930 . S
H258 C295 0.931 . S
H259 C296 0.930 . S
H260 C298 0.930 . S
H261 C299 0.929 . S
H262 C301 0.930 . S
H263 C302 0.931 . S
H264 C304 0.930 . S
H265 C305 0.929 . S
H266 C307 0.931 . S
H267 C308 0.930 . S
H268 C310 0.930 . S
H269 C311 0.932 . S
H270 C313 0.930 . S
H271 C314 0.929 . S
H272 C316 0.931 . S
H273 C317 0.930 . S
H274 C319 0.929 . S
H275 C320 0.931 . S
H276 C322 0.930 . S
H277 C323 0.929 . S
O278 H252 0.856 . S
O278 C324 1.300 . S
O279 C324 1.209 . S
O280 C325 1.199 . S
O281 H253 0.854 . S
O281 C325 1.297 . S
C282 C283 1.404 . S
C282 C287 1.397 . S
C282 C288 1.492 . S
C283 C282 1.404 . S
C283 C284 1.396 . S
C283 C294 1.492 . S
C284 C283 1.396 . S
C284 C285 1.397 . S
C284 C300 1.509 . S
C285 C284 1.397 . S
C285 C286 1.412 . S
C285 C306 1.485 . S
C286 C285 1.412 . S
C286 C287 1.388 . S
C286 C312 1.490 . S
C287 C282 1.397 . S
C287 C286 1.388 . S
C287 C318 1.519 . S
C288 C282 1.492 . S
C288 C289 1.363 . S
C288 C293 1.390 . S
C289 H254 0.930 . S
C289 C288 1.363 . S
C289 C290 1.372 . S
C290 H255 0.930 . S
C290 C289 1.372 . S
C290 C291 1.383 . S
C291 C290 1.383 . S
C291 C292 1.395 . S
C292 H256 0.930 . S
C292 C291 1.395 . S
C292 C293 1.362 . S
C293 H257 0.930 . S
C293 C288 1.390 . S
C293 C292 1.362 . S
C294 C283 1.492 . S
C294 C295 1.377 . S
C294 C299 1.397 . S
C295 H258 0.931 . S
C295 C294 1.377 . S
C295 C296 1.376 . S
C296 H259 0.930 . S
C296 C295 1.376 . S
C296 C297 1.376 . S
C297 C296 1.376 . S
C297 C298 1.378 . S
C297 C324 1.486 . S
C298 H260 0.930 . S
C298 C297 1.378 . S
C298 C299 1.376 . S
C299 H261 0.929 . S
C299 C294 1.397 . S
C299 C298 1.376 . S
C300 C284 1.509 . S
C300 C301 1.391 . S
C300 C305 1.386 . S
C301 H262 0.930 . S
C301 C300 1.391 . S
C301 C302 1.375 . S
C302 H263 0.931 . S
C302 C301 1.375 . S
C302 C303 1.375 . S
C303 C302 1.375 . S
C303 C304 1.361 . S
C304 H264 0.930 . S
C304 C303 1.361 . S
C304 C305 1.399 . S
C305 H265 0.929 . S
C305 C300 1.386 . S
C305 C304 1.399 . S
C306 C285 1.485 . S
C306 C307 1.394 . S
C306 C311 1.360 . S
C307 H266 0.931 . S
C307 C306 1.394 . S
C307 C308 1.372 . S
C308 H267 0.930 . S
C308 C307 1.372 . S
C308 C309 1.397 . S
C309 C308 1.397 . S
C309 C310 1.390 . S
C309 C325 1.476 . S
C310 H268 0.930 . S
C310 C309 1.390 . S
C310 C311 1.366 . S
C311 H269 0.932 . S
C311 C306 1.360 . S
C311 C310 1.366 . S
C312 C286 1.490 . S
C312 C313 1.380 . S
C312 C317 1.386 . S
C313 H270 0.930 . S
C313 C312 1.380 . S
C313 C314 1.381 . S
C314 H271 0.929 . S
C314 C313 1.381 . S
C314 C315 1.371 . S
C315 C314 1.371 . S
C315 C316 1.380 . S
C316 H272 0.931 . S
C316 C315 1.380 . S
C316 C317 1.387 . S
C317 H273 0.930 . S
C317 C312 1.386 . S
C317 C316 1.387 . S
C318 C287 1.519 . S
C318 C319 1.377 . S
C318 C323 1.361 . S
C319 H274 0.929 . S
C319 C318 1.377 . S
C319 C320 1.386 . S
C320 H275 0.931 . S
C320 C319 1.386 . S
C320 C321 1.363 . S
C321 C320 1.363 . S
C321 C322 1.385 . S
C322 H276 0.930 . S
C322 C321 1.385 . S
C322 C323 1.396 . S
C323 H277 0.929 . S
C323 C318 1.361 . S
C323 C322 1.396 . S
C324 O278 1.300 . S
C324 O279 1.209 . S
C324 C297 1.486 . S
C325 O280 1.199 . S
C325 O281 1.297 . S
C325 C309 1.476 . S
H326 O352 0.856 . S
H327 O355 0.854 . S
H328 C363 0.930 . S
H329 C364 0.930 . S
H330 C366 0.930 . S
H331 C367 0.930 . S
H332 C369 0.931 . S
H333 C370 0.930 . S
H334 C372 0.930 . S
H335 C373 0.929 . S
H336 C375 0.930 . S
H337 C376 0.931 . S
H338 C378 0.930 . S
H339 C379 0.929 . S
H340 C381 0.931 . S
H341 C382 0.930 . S
H342 C384 0.930 . S
H343 C385 0.932 . S
H344 C387 0.930 . S
H345 C388 0.929 . S
H346 C390 0.931 . S
H347 C391 0.930 . S
H348 C393 0.929 . S
H349 C394 0.931 . S
H350 C396 0.930 . S
H351 C397 0.929 . S
O352 H326 0.856 . S
O352 C398 1.300 . S
O353 C398 1.209 . S
O354 C399 1.199 . S
O355 H327 0.854 . S
O355 C399 1.297 . S
C356 C357 1.404 . S
C356 C361 1.397 . S
C356 C362 1.492 . S
C357 C356 1.404 . S
C357 C358 1.396 . S
C357 C368 1.492 . S
C358 C357 1.396 . S
C358 C359 1.397 . S
C358 C374 1.509 . S
C359 C358 1.397 . S
C359 C360 1.412 . S
C359 C380 1.485 . S
C360 C359 1.412 . S
C360 C361 1.388 . S
C360 C386 1.490 . S
C361 C356 1.397 . S
C361 C360 1.388 . S
C361 C392 1.519 . S
C362 C356 1.492 . S
C362 C363 1.363 . S
C362 C367 1.390 . S
C363 H328 0.930 . S
C363 C362 1.363 . S
C363 C364 1.372 . S
C364 H329 0.930 . S
C364 C363 1.372 . S
C364 C365 1.383 . S
C365 C364 1.383 . S
C365 C366 1.395 . S
C366 H330 0.930 . S
C366 C365 1.395 . S
C366 C367 1.362 . S
C367 H331 0.930 . S
C367 C362 1.390 . S
C367 C366 1.362 . S
C368 C357 1.492 . S
C368 C369 1.377 . S
C368 C373 1.397 . S
C369 H332 0.931 . S
C369 C368 1.377 . S
C369 C370 1.376 . S
C370 H333 0.930 . S
C370 C369 1.376 . S
C370 C371 1.376 . S
C371 C370 1.376 . S
C371 C372 1.378 . S
C371 C398 1.486 . S
C372 H334 0.930 . S
C372 C371 1.378 . S
C372 C373 1.376 . S
C373 H335 0.929 . S
C373 C368 1.397 . S
C373 C372 1.376 . S
C374 C358 1.509 . S
C374 C375 1.391 . S
C374 C379 1.386 . S
C375 H336 0.930 . S
C375 C374 1.391 . S
C375 C376 1.375 . S
C376 H337 0.931 . S
C376 C375 1.375 . S
C376 C377 1.375 . S
C377 C376 1.375 . S
C377 C378 1.361 . S
C378 H338 0.930 . S
C378 C377 1.361 . S
C378 C379 1.399 . S
C379 H339 0.929 . S
C379 C374 1.386 . S
C379 C378 1.399 . S
C380 C359 1.485 . S
C380 C381 1.394 . S
C380 C385 1.360 . S
C381 H340 0.931 . S
C381 C380 1.394 . S
C381 C382 1.372 . S
C382 H341 0.930 . S
C382 C381 1.372 . S
C382 C383 1.397 . S
C383 C382 1.397 . S
C383 C384 1.390 . S
C383 C399 1.476 . S
C384 H342 0.930 . S
C384 C383 1.390 . S
C384 C385 1.366 . S
C385 H343 0.932 . S
C385 C380 1.360 . S
C385 C384 1.366 . S
C386 C360 1.490 . S
C386 C387 1.380 . S
C386 C391 1.386 . S
C387 H344 0.930 . S
C387 C386 1.380 . S
C387 C388 1.381 . S
C388 H345 0.929 . S
C388 C387 1.381 . S
C388 C389 1.371 . S
C389 C388 1.371 . S
C389 C390 1.380 . S
C390 H346 0.931 . S
C390 C389 1.380 . S
C390 C391 1.387 . S
C391 H347 0.930 . S
C391 C386 1.386 . S
C391 C390 1.387 . S
C392 C361 1.519 . S
C392 C393 1.377 . S
C392 C397 1.361 . S
C393 H348 0.929 . S
C393 C392 1.377 . S
C393 C394 1.386 . S
C394 H349 0.931 . S
C394 C393 1.386 . S
C394 C395 1.363 . S
C395 C394 1.363 . S
C395 C396 1.385 . S
C396 H350 0.930 . S
C396 C395 1.385 . S
C396 C397 1.396 . S
C397 H351 0.929 . S
C397 C392 1.361 . S
C397 C396 1.396 . S
C398 O352 1.300 . S
C398 O353 1.209 . S
C398 C371 1.486 . S
C399 O354 1.199 . S
C399 O355 1.297 . S
C399 C383 1.476 . S
H400 O426 0.856 . S
H401 O429 0.854 . S
H402 C437 0.930 . S
H403 C438 0.930 . S
H404 C440 0.930 . S
H405 C441 0.930 . S
H406 C443 0.931 . S
H407 C444 0.930 . S
H408 C446 0.930 . S
H409 C447 0.929 . S
H410 C449 0.930 . S
H411 C450 0.931 . S
H412 C452 0.930 . S
H413 C453 0.929 . S
H414 C455 0.931 . S
H415 C456 0.930 . S
H416 C458 0.930 . S
H417 C459 0.932 . S
H418 C461 0.930 . S
H419 C462 0.929 . S
H420 C464 0.931 . S
H421 C465 0.930 . S
H422 C467 0.929 . S
H423 C468 0.931 . S
H424 C470 0.930 . S
H425 C471 0.929 . S
O426 H400 0.856 . S
O426 C472 1.300 . S
O427 C472 1.209 . S
O428 C473 1.199 . S
O429 H401 0.854 . S
O429 C473 1.297 . S
C430 C431 1.404 . S
C430 C435 1.397 . S
C430 C436 1.492 . S
C431 C430 1.404 . S
C431 C432 1.396 . S
C431 C442 1.492 . S
C432 C431 1.396 . S
C432 C433 1.397 . S
C432 C448 1.509 . S
C433 C432 1.397 . S
C433 C434 1.412 . S
C433 C454 1.485 . S
C434 C433 1.412 . S
C434 C435 1.388 . S
C434 C460 1.490 . S
C435 C430 1.397 . S
C435 C434 1.388 . S
C435 C466 1.519 . S
C436 C430 1.492 . S
C436 C437 1.363 . S
C436 C441 1.390 . S
C437 H402 0.930 . S
C437 C436 1.363 . S
C437 C438 1.372 . S
C438 H403 0.930 . S
C438 C437 1.372 . S
C438 C439 1.383 . S
C439 C438 1.383 . S
C439 C440 1.395 . S
C440 H404 0.930 . S
C440 C439 1.395 . S
C440 C441 1.362 . S
C441 H405 0.930 . S
C441 C436 1.390 . S
C441 C440 1.362 . S
C442 C431 1.492 . S
C442 C443 1.377 . S
C442 C447 1.397 . S
C443 H406 0.931 . S
C443 C442 1.377 . S
C443 C444 1.376 . S
C444 H407 0.930 . S
C444 C443 1.376 . S
C444 C445 1.376 . S
C445 C444 1.376 . S
C445 C446 1.378 . S
C445 C472 1.486 . S
C446 H408 0.930 . S
C446 C445 1.378 . S
C446 C447 1.376 . S
C447 H409 0.929 . S
C447 C442 1.397 . S
C447 C446 1.376 . S
C448 C432 1.509 . S
C448 C449 1.391 . S
C448 C453 1.386 . S
C449 H410 0.930 . S
C449 C448 1.391 . S
C449 C450 1.375 . S
C450 H411 0.931 . S
C450 C449 1.375 . S
C450 C451 1.375 . S
C451 C450 1.375 . S
C451 C452 1.361 . S
C452 H412 0.930 . S
C452 C451 1.361 . S
C452 C453 1.399 . S
C453 H413 0.929 . S
C453 C448 1.386 . S
C453 C452 1.399 . S
C454 C433 1.485 . S
C454 C455 1.394 . S
C454 C459 1.360 . S
C455 H414 0.931 . S
C455 C454 1.394 . S
C455 C456 1.372 . S
C456 H415 0.930 . S
C456 C455 1.372 . S
C456 C457 1.397 . S
C457 C456 1.397 . S
C457 C458 1.390 . S
C457 C473 1.476 . S
C458 H416 0.930 . S
C458 C457 1.390 . S
C458 C459 1.366 . S
C459 H417 0.932 . S
C459 C454 1.360 . S
C459 C458 1.366 . S
C460 C434 1.490 . S
C460 C461 1.380 . S
C460 C465 1.386 . S
C461 H418 0.930 . S
C461 C460 1.380 . S
C461 C462 1.381 . S
C462 H419 0.929 . S
C462 C461 1.381 . S
C462 C463 1.371 . S
C463 C462 1.371 . S
C463 C464 1.380 . S
C464 H420 0.931 . S
C464 C463 1.380 . S
C464 C465 1.387 . S
C465 H421 0.930 . S
C465 C460 1.386 . S
C465 C464 1.387 . S
C466 C435 1.519 . S
C466 C467 1.377 . S
C466 C471 1.361 . S
C467 H422 0.929 . S
C467 C466 1.377 . S
C467 C468 1.386 . S
C468 H423 0.931 . S
C468 C467 1.386 . S
C468 C469 1.363 . S
C469 C468 1.363 . S
C469 C470 1.385 . S
C470 H424 0.930 . S
C470 C469 1.385 . S
C470 C471 1.396 . S
C471 H425 0.929 . S
C471 C466 1.361 . S
C471 C470 1.396 . S
C472 O426 1.300 . S
C472 O427 1.209 . S
C472 C445 1.486 . S
C473 O428 1.199 . S
C473 O429 1.297 . S
C473 C457 1.476 . S
H474 O500 0.856 . S
H475 O503 0.854 . S
H476 C511 0.930 . S
H477 C512 0.930 . S
H478 C514 0.930 . S
H479 C515 0.930 . S
H480 C517 0.931 . S
H481 C518 0.930 . S
H482 C520 0.930 . S
H483 C521 0.929 . S
H484 C523 0.930 . S
H485 C524 0.931 . S
H486 C526 0.930 . S
H487 C527 0.929 . S
H488 C529 0.931 . S
H489 C530 0.930 . S
H490 C532 0.930 . S
H491 C533 0.932 . S
H492 C535 0.930 . S
H493 C536 0.929 . S
H494 C538 0.931 . S
H495 C539 0.930 . S
H496 C541 0.929 . S
H497 C542 0.931 . S
H498 C544 0.930 . S
H499 C545 0.929 . S
O500 H474 0.856 . S
O500 C546 1.300 . S
O501 C546 1.209 . S
O502 C547 1.199 . S
O503 H475 0.854 . S
O503 C547 1.297 . S
C504 C505 1.404 . S
C504 C509 1.397 . S
C504 C510 1.492 . S
C505 C504 1.404 . S
C505 C506 1.396 . S
C505 C516 1.492 . S
C506 C505 1.396 . S
C506 C507 1.397 . S
C506 C522 1.509 . S
C507 C506 1.397 . S
C507 C508 1.412 . S
C507 C528 1.485 . S
C508 C507 1.412 . S
C508 C509 1.388 . S
C508 C534 1.490 . S
C509 C504 1.397 . S
C509 C508 1.388 . S
C509 C540 1.519 . S
C510 C504 1.492 . S
C510 C511 1.363 . S
C510 C515 1.390 . S
C511 H476 0.930 . S
C511 C510 1.363 . S
C511 C512 1.372 . S
C512 H477 0.930 . S
C512 C511 1.372 . S
C512 C513 1.383 . S
C513 C512 1.383 . S
C513 C514 1.395 . S
C514 H478 0.930 . S
C514 C513 1.395 . S
C514 C515 1.362 . S
C515 H479 0.930 . S
C515 C510 1.390 . S
C515 C514 1.362 . S
C516 C505 1.492 . S
C516 C517 1.377 . S
C516 C521 1.397 . S
C517 H480 0.931 . S
C517 C516 1.377 . S
C517 C518 1.376 . S
C518 H481 0.930 . S
C518 C517 1.376 . S
C518 C519 1.376 . S
C519 C518 1.376 . S
C519 C520 1.378 . S
C519 C546 1.486 . S
C520 H482 0.930 . S
C520 C519 1.378 . S
C520 C521 1.376 . S
C521 H483 0.929 . S
C521 C516 1.397 . S
C521 C520 1.376 . S
C522 C506 1.509 . S
C522 C523 1.391 . S
C522 C527 1.386 . S
C523 H484 0.930 . S
C523 C522 1.391 . S
C523 C524 1.375 . S
C524 H485 0.931 . S
C524 C523 1.375 . S
C524 C525 1.375 . S
C525 C524 1.375 . S
C525 C526 1.361 . S
C526 H486 0.930 . S
C526 C525 1.361 . S
C526 C527 1.399 . S
C527 H487 0.929 . S
C527 C522 1.386 . S
C527 C526 1.399 . S
C528 C507 1.485 . S
C528 C529 1.394 . S
C528 C533 1.360 . S
C529 H488 0.931 . S
C529 C528 1.394 . S
C529 C530 1.372 . S
C530 H489 0.930 . S
C530 C529 1.372 . S
C530 C531 1.397 . S
C531 C530 1.397 . S
C531 C532 1.390 . S
C531 C547 1.476 . S
C532 H490 0.930 . S
C532 C531 1.390 . S
C532 C533 1.366 . S
C533 H491 0.932 . S
C533 C528 1.360 . S
C533 C532 1.366 . S
C534 C508 1.490 . S
C534 C535 1.380 . S
C534 C539 1.386 . S
C535 H492 0.930 . S
C535 C534 1.380 . S
C535 C536 1.381 . S
C536 H493 0.929 . S
C536 C535 1.381 . S
C536 C537 1.371 . S
C537 C536 1.371 . S
C537 C538 1.380 . S
C538 H494 0.931 . S
C538 C537 1.380 . S
C538 C539 1.387 . S
C539 H495 0.930 . S
C539 C534 1.386 . S
C539 C538 1.387 . S
C540 C509 1.519 . S
C540 C541 1.377 . S
C540 C545 1.361 . S
C541 H496 0.929 . S
C541 C540 1.377 . S
C541 C542 1.386 . S
C542 H497 0.931 . S
C542 C541 1.386 . S
C542 C543 1.363 . S
C543 C542 1.363 . S
C543 C544 1.385 . S
C544 H498 0.930 . S
C544 C543 1.385 . S
C544 C545 1.396 . S
C545 H499 0.929 . S
C545 C540 1.361 . S
C545 C544 1.396 . S
C546 O500 1.300 . S
C546 O501 1.209 . S
C546 C519 1.486 . S
C547 O502 1.199 . S
C547 O503 1.297 . S
C547 C531 1.476 . S
H548 O574 0.856 . S
H549 O577 0.854 . S
H550 C585 0.930 . S
H551 C586 0.930 . S
H552 C588 0.930 . S
H553 C589 0.930 . S
H554 C591 0.931 . S
H555 C592 0.930 . S
H556 C594 0.930 . S
H557 C595 0.929 . S
H558 C597 0.930 . S
H559 C598 0.931 . S
H560 C600 0.930 . S
H561 C601 0.929 . S
H562 C603 0.931 . S
H563 C604 0.930 . S
H564 C606 0.930 . S
H565 C607 0.932 . S
H566 C609 0.930 . S
H567 C610 0.929 . S
H568 C612 0.931 . S
H569 C613 0.930 . S
H570 C615 0.929 . S
H571 C616 0.931 . S
H572 C618 0.930 . S
H573 C619 0.929 . S
O574 H548 0.856 . S
O574 C620 1.300 . S
O575 C620 1.209 . S
O576 C621 1.199 . S
O577 H549 0.854 . S
O577 C621 1.297 . S
C578 C579 1.404 . S
C578 C583 1.397 . S
C578 C584 1.492 . S
C579 C578 1.404 . S
C579 C580 1.396 . S
C579 C590 1.492 . S
C580 C579 1.396 . S
C580 C581 1.397 . S
C580 C596 1.509 . S
C581 C580 1.397 . S
C581 C582 1.412 . S
C581 C602 1.485 . S
C582 C581 1.412 . S
C582 C583 1.388 . S
C582 C608 1.490 . S
C583 C578 1.397 . S
C583 C582 1.388 . S
C583 C614 1.519 . S
C584 C578 1.492 . S
C584 C585 1.363 . S
C584 C589 1.390 . S
C585 H550 0.930 . S
C585 C584 1.363 . S
C585 C586 1.372 . S
C586 H551 0.930 . S
C586 C585 1.372 . S
C586 C587 1.383 . S
C587 C586 1.383 . S
C587 C588 1.395 . S
C588 H552 0.930 . S
C588 C587 1.395 . S
C588 C589 1.362 . S
C589 H553 0.930 . S
C589 C584 1.390 . S
C589 C588 1.362 . S
C590 C579 1.492 . S
C590 C591 1.377 . S
C590 C595 1.397 . S
C591 H554 0.931 . S
C591 C590 1.377 . S
C591 C592 1.376 . S
C592 H555 0.930 . S
C592 C591 1.376 . S
C592 C593 1.376 . S
C593 C592 1.376 . S
C593 C594 1.378 . S
C593 C620 1.486 . S
C594 H556 0.930 . S
C594 C593 1.378 . S
C594 C595 1.376 . S
C595 H557 0.929 . S
C595 C590 1.397 . S
C595 C594 1.376 . S
C596 C580 1.509 . S
C596 C597 1.391 . S
C596 C601 1.386 . S
C597 H558 0.930 . S
C597 C596 1.391 . S
C597 C598 1.375 . S
C598 H559 0.931 . S
C598 C597 1.375 . S
C598 C599 1.375 . S
C599 C598 1.375 . S
C599 C600 1.361 . S
C600 H560 0.930 . S
C600 C599 1.361 . S
C600 C601 1.399 . S
C601 H561 0.929 . S
C601 C596 1.386 . S
C601 C600 1.399 . S
C602 C581 1.485 . S
C602 C603 1.394 . S
C602 C607 1.360 . S
C603 H562 0.931 . S
C603 C602 1.394 . S
C603 C604 1.372 . S
C604 H563 0.930 . S
C604 C603 1.372 . S
C604 C605 1.397 . S
C605 C604 1.397 . S
C605 C606 1.390 . S
C605 C621 1.476 . S
C606 H564 0.930 . S
C606 C605 1.390 . S
C606 C607 1.366 . S
C607 H565 0.932 . S
C607 C602 1.360 . S
C607 C606 1.366 . S
C608 C582 1.490 . S
C608 C609 1.380 . S
C608 C613 1.386 . S
C609 H566 0.930 . S
C609 C608 1.380 . S
C609 C610 1.381 . S
C610 H567 0.929 . S
C610 C609 1.381 . S
C610 C611 1.371 . S
C611 C610 1.371 . S
C611 C612 1.380 . S
C612 H568 0.931 . S
C612 C611 1.380 . S
C612 C613 1.387 . S
C613 H569 0.930 . S
C613 C608 1.386 . S
C613 C612 1.387 . S
C614 C583 1.519 . S
C614 C615 1.377 . S
C614 C619 1.361 . S
C615 H570 0.929 . S
C615 C614 1.377 . S
C615 C616 1.386 . S
C616 H571 0.931 . S
C616 C615 1.386 . S
C616 C617 1.363 . S
C617 C616 1.363 . S
C617 C618 1.385 . S
C618 H572 0.930 . S
C618 C617 1.385 . S
C618 C619 1.396 . S
C619 H573 0.929 . S
C619 C614 1.361 . S
C619 C618 1.396 . S
C620 O574 1.300 . S
C620 O575 1.209 . S
C620 C593 1.486 . S
C621 O576 1.199 . S
C621 O577 1.297 . S
C621 C605 1.476 . S
H622 O648 0.856 1_554 S
H623 O651 0.854 . S
H624 C659 0.930 . S
H625 C660 0.930 . S
H626 C662 0.930 . S
H627 C663 0.930 . S
H628 C665 0.931 . S
H629 C666 0.930 . S
H630 C668 0.930 . S
H631 C669 0.929 . S
H632 C671 0.930 . S
H633 C672 0.931 . S
H634 C674 0.930 . S
H635 C675 0.929 . S
H636 C677 0.931 . S
H637 C678 0.930 . S
H638 C680 0.930 . S
H639 C681 0.932 . S
H640 C683 0.930 . S
H641 C684 0.929 . S
H642 C686 0.931 . S
H643 C687 0.930 . S
H644 C689 0.929 . S
H645 C690 0.931 . S
H646 C692 0.930 . S
H647 C693 0.929 . S
O648 H622 0.856 1_556 S
O648 C694 1.300 . S
O649 C694 1.209 . S
O650 C695 1.199 . S
O651 H623 0.854 . S
O651 C695 1.297 . S
C652 C653 1.404 . S
C652 C657 1.397 . S
C652 C658 1.492 . S
C653 C652 1.404 . S
C653 C654 1.396 . S
C653 C664 1.492 . S
C654 C653 1.396 . S
C654 C655 1.397 . S
C654 C670 1.509 . S
C655 C654 1.397 . S
C655 C656 1.412 . S
C655 C676 1.485 . S
C656 C655 1.412 . S
C656 C657 1.388 . S
C656 C682 1.490 . S
C657 C652 1.397 . S
C657 C656 1.388 . S
C657 C688 1.519 . S
C658 C652 1.492 . S
C658 C659 1.363 . S
C658 C663 1.390 . S
C659 H624 0.930 . S
C659 C658 1.363 . S
C659 C660 1.372 . S
C660 H625 0.930 . S
C660 C659 1.372 . S
C660 C661 1.383 . S
C661 C660 1.383 . S
C661 C662 1.395 . S
C662 H626 0.930 . S
C662 C661 1.395 . S
C662 C663 1.362 . S
C663 H627 0.930 . S
C663 C658 1.390 . S
C663 C662 1.362 . S
C664 C653 1.492 . S
C664 C665 1.377 . S
C664 C669 1.397 . S
C665 H628 0.931 . S
C665 C664 1.377 . S
C665 C666 1.376 . S
C666 H629 0.930 . S
C666 C665 1.376 . S
C666 C667 1.376 . S
C667 C666 1.376 . S
C667 C668 1.378 . S
C667 C694 1.486 . S
C668 H630 0.930 . S
C668 C667 1.378 . S
C668 C669 1.376 . S
C669 H631 0.929 . S
C669 C664 1.397 . S
C669 C668 1.376 . S
C670 C654 1.509 . S
C670 C671 1.391 . S
C670 C675 1.386 . S
C671 H632 0.930 . S
C671 C670 1.391 . S
C671 C672 1.375 . S
C672 H633 0.931 . S
C672 C671 1.375 . S
C672 C673 1.375 . S
C673 C672 1.375 . S
C673 C674 1.361 . S
C674 H634 0.930 . S
C674 C673 1.361 . S
C674 C675 1.399 . S
C675 H635 0.929 . S
C675 C670 1.386 . S
C675 C674 1.399 . S
C676 C655 1.485 . S
C676 C677 1.394 . S
C676 C681 1.360 . S
C677 H636 0.931 . S
C677 C676 1.394 . S
C677 C678 1.372 . S
C678 H637 0.930 . S
C678 C677 1.372 . S
C678 C679 1.397 . S
C679 C678 1.397 . S
C679 C680 1.390 . S
C679 C695 1.476 . S
C680 H638 0.930 . S
C680 C679 1.390 . S
C680 C681 1.366 . S
C681 H639 0.932 . S
C681 C676 1.360 . S
C681 C680 1.366 . S
C682 C656 1.490 . S
C682 C683 1.380 . S
C682 C687 1.386 . S
C683 H640 0.930 . S
C683 C682 1.380 . S
C683 C684 1.381 . S
C684 H641 0.929 . S
C684 C683 1.381 . S
C684 C685 1.371 . S
C685 C684 1.371 . S
C685 C686 1.380 . S
C686 H642 0.931 . S
C686 C685 1.380 . S
C686 C687 1.387 . S
C687 H643 0.930 . S
C687 C682 1.386 . S
C687 C686 1.387 . S
C688 C657 1.519 . S
C688 C689 1.377 . S
C688 C693 1.361 . S
C689 H644 0.929 . S
C689 C688 1.377 . S
C689 C690 1.386 . S
C690 H645 0.931 . S
C690 C689 1.386 . S
C690 C691 1.363 . S
C691 C690 1.363 . S
C691 C692 1.385 . S
C692 H646 0.930 . S
C692 C691 1.385 . S
C692 C693 1.396 . S
C693 H647 0.929 . S
C693 C688 1.361 . S
C693 C692 1.396 . S
C694 O648 1.300 . S
C694 O649 1.209 . S
C694 C667 1.486 . S
C695 O650 1.199 . S
C695 O651 1.297 . S
C695 C679 1.476 . S
H696 O722 0.856 . S
H697 O725 0.854 . S
H698 C733 0.930 . S
H699 C734 0.930 . S
H700 C736 0.930 . S
H701 C737 0.930 . S
H702 C739 0.931 . S
H703 C740 0.930 . S
H704 C742 0.930 . S
H705 C743 0.929 . S
H706 C745 0.930 . S
H707 C746 0.931 . S
H708 C748 0.930 . S
H709 C749 0.929 . S
H710 C751 0.931 . S
H711 C752 0.930 . S
H712 C754 0.930 . S
H713 C755 0.932 . S
H714 C757 0.930 . S
H715 C758 0.929 . S
H716 C760 0.931 . S
H717 C761 0.930 . S
H718 C763 0.929 . S
H719 C764 0.931 . S
H720 C766 0.930 . S
H721 C767 0.929 . S
O722 H696 0.856 . S
O722 C768 1.300 . S
O723 C768 1.209 . S
O724 C769 1.199 . S
O725 H697 0.854 . S
O725 C769 1.297 . S
C726 C727 1.404 . S
C726 C731 1.397 . S
C726 C732 1.492 . S
C727 C726 1.404 . S
C727 C728 1.396 . S
C727 C738 1.492 . S
C728 C727 1.396 . S
C728 C729 1.397 . S
C728 C744 1.509 . S
C729 C728 1.397 . S
C729 C730 1.412 . S
C729 C750 1.485 . S
C730 C729 1.412 . S
C730 C731 1.388 . S
C730 C756 1.490 . S
C731 C726 1.397 . S
C731 C730 1.388 . S
C731 C762 1.519 . S
C732 C726 1.492 . S
C732 C733 1.363 . S
C732 C737 1.390 . S
C733 H698 0.930 . S
C733 C732 1.363 . S
C733 C734 1.372 . S
C734 H699 0.930 . S
C734 C733 1.372 . S
C734 C735 1.383 . S
C735 C734 1.383 . S
C735 C736 1.395 . S
C736 H700 0.930 . S
C736 C735 1.395 . S
C736 C737 1.362 . S
C737 H701 0.930 . S
C737 C732 1.390 . S
C737 C736 1.362 . S
C738 C727 1.492 . S
C738 C739 1.377 . S
C738 C743 1.397 . S
C739 H702 0.931 . S
C739 C738 1.377 . S
C739 C740 1.376 . S
C740 H703 0.930 . S
C740 C739 1.376 . S
C740 C741 1.376 . S
C741 C740 1.376 . S
C741 C742 1.378 . S
C741 C768 1.486 . S
C742 H704 0.930 . S
C742 C741 1.378 . S
C742 C743 1.376 . S
C743 H705 0.929 . S
C743 C738 1.397 . S
C743 C742 1.376 . S
C744 C728 1.509 . S
C744 C745 1.391 . S
C744 C749 1.386 . S
C745 H706 0.930 . S
C745 C744 1.391 . S
C745 C746 1.375 . S
C746 H707 0.931 . S
C746 C745 1.375 . S
C746 C747 1.375 . S
C747 C746 1.375 . S
C747 C748 1.361 . S
C748 H708 0.930 . S
C748 C747 1.361 . S
C748 C749 1.399 . S
C749 H709 0.929 . S
C749 C744 1.386 . S
C749 C748 1.399 . S
C750 C729 1.485 . S
C750 C751 1.394 . S
C750 C755 1.360 . S
C751 H710 0.931 . S
C751 C750 1.394 . S
C751 C752 1.372 . S
C752 H711 0.930 . S
C752 C751 1.372 . S
C752 C753 1.397 . S
C753 C752 1.397 . S
C753 C754 1.390 . S
C753 C769 1.476 . S
C754 H712 0.930 . S
C754 C753 1.390 . S
C754 C755 1.366 . S
C755 H713 0.932 . S
C755 C750 1.360 . S
C755 C754 1.366 . S
C756 C730 1.490 . S
C756 C757 1.380 . S
C756 C761 1.386 . S
C757 H714 0.930 . S
C757 C756 1.380 . S
C757 C758 1.381 . S
C758 H715 0.929 . S
C758 C757 1.381 . S
C758 C759 1.371 . S
C759 C758 1.371 . S
C759 C760 1.380 . S
C760 H716 0.931 . S
C760 C759 1.380 . S
C760 C761 1.387 . S
C761 H717 0.930 . S
C761 C756 1.386 . S
C761 C760 1.387 . S
C762 C731 1.519 . S
C762 C763 1.377 . S
C762 C767 1.361 . S
C763 H718 0.929 . S
C763 C762 1.377 . S
C763 C764 1.386 . S
C764 H719 0.931 . S
C764 C763 1.386 . S
C764 C765 1.363 . S
C765 C764 1.363 . S
C765 C766 1.385 . S
C766 H720 0.930 . S
C766 C765 1.385 . S
C766 C767 1.396 . S
C767 H721 0.929 . S
C767 C762 1.361 . S
C767 C766 1.396 . S
C768 O722 1.300 . S
C768 O723 1.209 . S
C768 C741 1.486 . S
C769 O724 1.199 . S
C769 O725 1.297 . S
C769 C753 1.476 . S
H770 O796 0.856 . S
H771 O799 0.854 . S
H772 C807 0.930 . S
H773 C808 0.930 . S
H774 C810 0.930 . S
H775 C811 0.930 . S
H776 C813 0.931 . S
H777 C814 0.930 . S
H778 C816 0.930 . S
H779 C817 0.929 . S
H780 C819 0.930 . S
H781 C820 0.931 . S
H782 C822 0.930 . S
H783 C823 0.929 . S
H784 C825 0.931 . S
H785 C826 0.930 . S
H786 C828 0.930 . S
H787 C829 0.932 . S
H788 C831 0.930 . S
H789 C832 0.929 . S
H790 C834 0.931 . S
H791 C835 0.930 . S
H792 C837 0.929 . S
H793 C838 0.931 . S
H794 C840 0.930 . S
H795 C841 0.929 . S
O796 H770 0.856 . S
O796 C842 1.300 . S
O797 C842 1.209 . S
O798 C843 1.199 . S
O799 H771 0.854 . S
O799 C843 1.297 . S
C800 C801 1.404 . S
C800 C805 1.397 . S
C800 C806 1.492 . S
C801 C800 1.404 . S
C801 C802 1.396 . S
C801 C812 1.492 . S
C802 C801 1.396 . S
C802 C803 1.397 . S
C802 C818 1.509 . S
C803 C802 1.397 . S
C803 C804 1.412 . S
C803 C824 1.485 . S
C804 C803 1.412 . S
C804 C805 1.388 . S
C804 C830 1.490 . S
C805 C800 1.397 . S
C805 C804 1.388 . S
C805 C836 1.519 . S
C806 C800 1.492 . S
C806 C807 1.363 . S
C806 C811 1.390 . S
C807 H772 0.930 . S
C807 C806 1.363 . S
C807 C808 1.372 . S
C808 H773 0.930 . S
C808 C807 1.372 . S
C808 C809 1.383 . S
C809 C808 1.383 . S
C809 C810 1.395 . S
C810 H774 0.930 . S
C810 C809 1.395 . S
C810 C811 1.362 . S
C811 H775 0.930 . S
C811 C806 1.390 . S
C811 C810 1.362 . S
C812 C801 1.492 . S
C812 C813 1.377 . S
C812 C817 1.397 . S
C813 H776 0.931 . S
C813 C812 1.377 . S
C813 C814 1.376 . S
C814 H777 0.930 . S
C814 C813 1.376 . S
C814 C815 1.376 . S
C815 C814 1.376 . S
C815 C816 1.378 . S
C815 C842 1.486 . S
C816 H778 0.930 . S
C816 C815 1.378 . S
C816 C817 1.376 . S
C817 H779 0.929 . S
C817 C812 1.397 . S
C817 C816 1.376 . S
C818 C802 1.509 . S
C818 C819 1.391 . S
C818 C823 1.386 . S
C819 H780 0.930 . S
C819 C818 1.391 . S
C819 C820 1.375 . S
C820 H781 0.931 . S
C820 C819 1.375 . S
C820 C821 1.375 . S
C821 C820 1.375 . S
C821 C822 1.361 . S
C822 H782 0.930 . S
C822 C821 1.361 . S
C822 C823 1.399 . S
C823 H783 0.929 . S
C823 C818 1.386 . S
C823 C822 1.399 . S
C824 C803 1.485 . S
C824 C825 1.394 . S
C824 C829 1.360 . S
C825 H784 0.931 . S
C825 C824 1.394 . S
C825 C826 1.372 . S
C826 H785 0.930 . S
C826 C825 1.372 . S
C826 C827 1.397 . S
C827 C826 1.397 . S
C827 C828 1.390 . S
C827 C843 1.476 . S
C828 H786 0.930 . S
C828 C827 1.390 . S
C828 C829 1.366 . S
C829 H787 0.932 . S
C829 C824 1.360 . S
C829 C828 1.366 . S
C830 C804 1.490 . S
C830 C831 1.380 . S
C830 C835 1.386 . S
C831 H788 0.930 . S
C831 C830 1.380 . S
C831 C832 1.381 . S
C832 H789 0.929 . S
C832 C831 1.381 . S
C832 C833 1.371 . S
C833 C832 1.371 . S
C833 C834 1.380 . S
C834 H790 0.931 . S
C834 C833 1.380 . S
C834 C835 1.387 . S
C835 H791 0.930 . S
C835 C830 1.386 . S
C835 C834 1.387 . S
C836 C805 1.519 . S
C836 C837 1.377 . S
C836 C841 1.361 . S
C837 H792 0.929 . S
C837 C836 1.377 . S
C837 C838 1.386 . S
C838 H793 0.931 . S
C838 C837 1.386 . S
C838 C839 1.363 . S
C839 C838 1.363 . S
C839 C840 1.385 . S
C840 H794 0.930 . S
C840 C839 1.385 . S
C840 C841 1.396 . S
C841 H795 0.929 . S
C841 C836 1.361 . S
C841 C840 1.396 . S
C842 O796 1.300 . S
C842 O797 1.209 . S
C842 C815 1.486 . S
C843 O798 1.199 . S
C843 O799 1.297 . S
C843 C827 1.476 . S
H844 O870 0.856 . S
H845 O873 0.854 . S
H846 C881 0.930 . S
H847 C882 0.930 . S
H848 C884 0.930 . S
H849 C885 0.930 . S
H850 C887 0.931 . S
H851 C888 0.930 . S
H852 C890 0.930 . S
H853 C891 0.929 . S
H854 C893 0.930 . S
H855 C894 0.931 . S
H856 C896 0.930 . S
H857 C897 0.929 . S
H858 C899 0.931 . S
H859 C900 0.930 . S
H860 C902 0.930 . S
H861 C903 0.932 . S
H862 C905 0.930 . S
H863 C906 0.929 . S
H864 C908 0.931 . S
H865 C909 0.930 . S
H866 C911 0.929 . S
H867 C912 0.931 . S
H868 C914 0.930 . S
H869 C915 0.929 . S
O870 H844 0.856 . S
O870 C916 1.300 . S
O871 C916 1.209 . S
O872 C917 1.199 . S
O873 H845 0.854 . S
O873 C917 1.297 . S
C874 C875 1.404 . S
C874 C879 1.397 . S
C874 C880 1.492 . S
C875 C874 1.404 . S
C875 C876 1.396 . S
C875 C886 1.492 . S
C876 C875 1.396 . S
C876 C877 1.397 . S
C876 C892 1.509 . S
C877 C876 1.397 . S
C877 C878 1.412 . S
C877 C898 1.485 . S
C878 C877 1.412 . S
C878 C879 1.388 . S
C878 C904 1.490 . S
C879 C874 1.397 . S
C879 C878 1.388 . S
C879 C910 1.519 . S
C880 C874 1.492 . S
C880 C881 1.363 . S
C880 C885 1.390 . S
C881 H846 0.930 . S
C881 C880 1.363 . S
C881 C882 1.372 . S
C882 H847 0.930 . S
C882 C881 1.372 . S
C882 C883 1.383 . S
C883 C882 1.383 . S
C883 C884 1.395 . S
C884 H848 0.930 . S
C884 C883 1.395 . S
C884 C885 1.362 . S
C885 H849 0.930 . S
C885 C880 1.390 . S
C885 C884 1.362 . S
C886 C875 1.492 . S
C886 C887 1.377 . S
C886 C891 1.397 . S
C887 H850 0.931 . S
C887 C886 1.377 . S
C887 C888 1.376 . S
C888 H851 0.930 . S
C888 C887 1.376 . S
C888 C889 1.376 . S
C889 C888 1.376 . S
C889 C890 1.378 . S
C889 C916 1.486 . S
C890 H852 0.930 . S
C890 C889 1.378 . S
C890 C891 1.376 . S
C891 H853 0.929 . S
C891 C886 1.397 . S
C891 C890 1.376 . S
C892 C876 1.509 . S
C892 C893 1.391 . S
C892 C897 1.386 . S
C893 H854 0.930 . S
C893 C892 1.391 . S
C893 C894 1.375 . S
C894 H855 0.931 . S
C894 C893 1.375 . S
C894 C895 1.375 . S
C895 C894 1.375 . S
C895 C896 1.361 . S
C896 H856 0.930 . S
C896 C895 1.361 . S
C896 C897 1.399 . S
C897 H857 0.929 . S
C897 C892 1.386 . S
C897 C896 1.399 . S
C898 C877 1.485 . S
C898 C899 1.394 . S
C898 C903 1.360 . S
C899 H858 0.931 . S
C899 C898 1.394 . S
C899 C900 1.372 . S
C900 H859 0.930 . S
C900 C899 1.372 . S
C900 C901 1.397 . S
C901 C900 1.397 . S
C901 C902 1.390 . S
C901 C917 1.476 . S
C902 H860 0.930 . S
C902 C901 1.390 . S
C902 C903 1.366 . S
C903 H861 0.932 . S
C903 C898 1.360 . S
C903 C902 1.366 . S
C904 C878 1.490 . S
C904 C905 1.380 . S
C904 C909 1.386 . S
C905 H862 0.930 . S
C905 C904 1.380 . S
C905 C906 1.381 . S
C906 H863 0.929 . S
C906 C905 1.381 . S
C906 C907 1.371 . S
C907 C906 1.371 . S
C907 C908 1.380 . S
C908 H864 0.931 . S
C908 C907 1.380 . S
C908 C909 1.387 . S
C909 H865 0.930 . S
C909 C904 1.386 . S
C909 C908 1.387 . S
C910 C879 1.519 . S
C910 C911 1.377 . S
C910 C915 1.361 . S
C911 H866 0.929 . S
C911 C910 1.377 . S
C911 C912 1.386 . S
C912 H867 0.931 . S
C912 C911 1.386 . S
C912 C913 1.363 . S
C913 C912 1.363 . S
C913 C914 1.385 . S
C914 H868 0.930 . S
C914 C913 1.385 . S
C914 C915 1.396 . S
C915 H869 0.929 . S
C915 C910 1.361 . S
C915 C914 1.396 . S
C916 O870 1.300 . S
C916 O871 1.209 . S
C916 C889 1.486 . S
C917 O872 1.199 . S
C917 O873 1.297 . S
C917 C901 1.476 . S
H918 O944 0.856 . S
H919 O947 0.854 . S
H920 C955 0.930 . S
H921 C956 0.930 . S
H922 C958 0.930 . S
H923 C959 0.930 . S
H924 C961 0.931 . S
H925 C962 0.897 1_655 S
H926 C964 0.930 . S
H927 C965 0.929 . S
H928 C967 0.930 . S
H929 C968 0.912 1_655 S
H930 C970 0.930 . S
H931 C971 0.929 . S
H932 C973 0.931 . S
H933 C974 0.930 . S
H934 C976 0.930 . S
H935 C977 0.932 . S
H936 C979 0.930 . S
H937 C980 0.929 . S
H938 C982 0.931 . S
H939 C983 0.930 . S
H940 C985 0.929 . S
H941 C986 0.931 . S
H942 C988 0.930 . S
H943 C989 0.929 . S
O944 H918 0.856 . S
O944 C990 1.300 . S
O945 C990 1.209 . S
O946 C991 1.199 1_655 S
O947 H919 0.854 . S
O947 C991 1.297 . S
C948 C949 1.404 . S
C948 C953 1.395 . S
C948 C954 1.492 . S
C949 C948 1.404 . S
C949 C950 1.396 . S
C949 C960 1.492 . S
C950 C949 1.396 . S
C950 C951 1.397 . S
C950 C966 1.509 . S
C951 C950 1.397 . S
C951 C952 1.429 . S
C951 C972 1.485 . S
C952 C951 1.429 . S
C952 C953 1.399 . S
C952 C978 1.490 1_455 S
C953 C948 1.395 . S
C953 C952 1.399 . S
C953 C984 1.488 1_455 S
C954 C948 1.492 . S
C954 C955 1.363 1_455 S
C954 C959 1.390 . S
C955 H920 0.930 . S
C955 C954 1.363 1_655 S
C955 C956 1.372 . S
C956 H921 0.930 . S
C956 C955 1.372 . S
C956 C957 1.383 . S
C957 C956 1.383 . S
C957 C958 1.395 1_655 S
C958 H922 0.930 . S
C958 C957 1.395 1_455 S
C958 C959 1.362 . S
C959 H923 0.930 . S
C959 C954 1.390 . S
C959 C958 1.362 . S
C960 C949 1.492 . S
C960 C961 1.377 1_455 S
C960 C965 1.397 . S
C961 H924 0.931 . S
C961 C960 1.377 1_655 S
C961 C962 1.382 1_655 S
C962 H925 0.897 1_455 S
C962 C961 1.382 1_455 S
C962 C963 1.408 . S
C963 C962 1.408 . S
C963 C964 1.378 . S
C963 C990 1.486 . S
C964 H926 0.930 . S
C964 C963 1.378 . S
C964 C965 1.376 . S
C965 H927 0.929 . S
C965 C960 1.397 . S
C965 C964 1.376 . S
C966 C950 1.509 . S
C966 C967 1.391 1_455 S
C966 C971 1.386 . S
C967 H928 0.930 . S
C967 C966 1.391 1_655 S
C967 C968 1.347 1_655 S
C968 H929 0.912 1_455 S
C968 C967 1.347 1_455 S
C968 C969 1.425 . S
C969 C968 1.425 . S
C969 C970 1.361 . S
C970 H930 0.930 . S
C970 C969 1.361 . S
C970 C971 1.399 . S
C971 H931 0.929 . S
C971 C966 1.386 . S
C971 C970 1.399 . S
C972 C951 1.485 . S
C972 C973 1.394 1_455 S
C972 C977 1.360 . S
C973 H932 0.931 . S
C973 C972 1.394 1_655 S
C973 C974 1.372 . S
C974 H933 0.930 . S
C974 C973 1.372 . S
C974 C975 1.397 1_655 S
C975 C974 1.397 1_455 S
C975 C976 1.390 . S
C975 C991 1.476 . S
C976 H934 0.930 . S
C976 C975 1.390 . S
C976 C977 1.366 . S
C977 H935 0.932 . S
C977 C972 1.360 . S
C977 C976 1.366 . S
C978 C952 1.490 1_655 S
C978 C979 1.380 . S
C978 C983 1.386 1_655 S
C979 H936 0.930 . S
C979 C978 1.380 . S
C979 C980 1.381 . S
C980 H937 0.929 . S
C980 C979 1.381 . S
C980 C981 1.371 . S
C981 C980 1.371 . S
C981 C982 1.380 1_655 S
C982 H938 0.931 . S
C982 C981 1.380 1_455 S
C982 C983 1.387 . S
C983 H939 0.930 . S
C983 C978 1.386 1_455 S
C983 C982 1.387 . S
C984 C953 1.488 1_655 S
C984 C985 1.405 . S
C984 C989 1.343 1_655 S
C985 H940 0.929 . S
C985 C984 1.405 . S
C985 C986 1.386 . S
C986 H941 0.931 . S
C986 C985 1.386 . S
C986 C987 1.378 . S
C987 C986 1.378 . S
C987 C988 1.362 1_655 S
C988 H942 0.930 . S
C988 C987 1.362 1_455 S
C988 C989 1.396 . S
C989 H943 0.929 . S
C989 C984 1.343 1_455 S
C989 C988 1.396 . S
C990 O944 1.300 . S
C990 O945 1.209 . S
C990 C963 1.486 . S
C991 O946 1.199 1_455 S
C991 O947 1.297 . S
C991 C975 1.476 . S
H992 O1018 0.856 . S
H993 O1021 0.854 . S
H994 C1029 0.930 . S
H995 C1030 0.930 . S
H996 C1032 0.930 . S
H997 C1033 0.930 . S
H998 C1035 0.931 . S
H999 C1036 0.930 . S
H1000 C1038 0.930 . S
H1001 C1039 0.929 . S
H1002 C1041 0.930 . S
H1003 C1042 0.931 . S
H1004 C1044 0.930 . S
H1005 C1045 0.929 . S
H1006 C1047 0.931 . S
H1007 C1048 0.930 . S
H1008 C1050 0.930 . S
H1009 C1051 0.932 . S
H1010 C1053 0.930 . S
H1011 C1054 0.929 . S
H1012 C1056 0.931 . S
H1013 C1057 0.930 . S
H1014 C1059 0.929 . S
H1015 C1060 0.931 . S
H1016 C1062 0.930 . S
H1017 C1063 0.929 . S
O1018 H992 0.856 . S
O1018 C1064 1.300 . S
O1019 C1064 1.209 . S
O1020 C1065 1.199 . S
O1021 H993 0.854 . S
O1021 C1065 1.297 . S
C1022 C1023 1.404 . S
C1022 C1027 1.397 . S
C1022 C1028 1.492 . S
C1023 C1022 1.404 . S
C1023 C1024 1.396 . S
C1023 C1034 1.492 . S
C1024 C1023 1.396 . S
C1024 C1025 1.397 . S
C1024 C1040 1.509 . S
C1025 C1024 1.397 . S
C1025 C1026 1.412 . S
C1025 C1046 1.485 . S
C1026 C1025 1.412 . S
C1026 C1027 1.388 . S
C1026 C1052 1.490 . S
C1027 C1022 1.397 . S
C1027 C1026 1.388 . S
C1027 C1058 1.519 . S
C1028 C1022 1.492 . S
C1028 C1029 1.363 . S
C1028 C1033 1.390 . S
C1029 H994 0.930 . S
C1029 C1028 1.363 . S
C1029 C1030 1.372 . S
C1030 H995 0.930 . S
C1030 C1029 1.372 . S
C1030 C1031 1.383 . S
C1031 C1030 1.383 . S
C1031 C1032 1.395 . S
C1032 H996 0.930 . S
C1032 C1031 1.395 . S
C1032 C1033 1.362 . S
C1033 H997 0.930 . S
C1033 C1028 1.390 . S
C1033 C1032 1.362 . S
C1034 C1023 1.492 . S
C1034 C1035 1.377 . S
C1034 C1039 1.397 . S
C1035 H998 0.931 . S
C1035 C1034 1.377 . S
C1035 C1036 1.376 . S
C1036 H999 0.930 . S
C1036 C1035 1.376 . S
C1036 C1037 1.376 . S
C1037 C1036 1.376 . S
C1037 C1038 1.378 . S
C1037 C1064 1.486 . S
C1038 H1000 0.930 . S
C1038 C1037 1.378 . S
C1038 C1039 1.376 . S
C1039 H1001 0.929 . S
C1039 C1034 1.397 . S
C1039 C1038 1.376 . S
C1040 C1024 1.509 . S
C1040 C1041 1.391 . S
C1040 C1045 1.386 . S
C1041 H1002 0.930 . S
C1041 C1040 1.391 . S
C1041 C1042 1.375 . S
C1042 H1003 0.931 . S
C1042 C1041 1.375 . S
C1042 C1043 1.375 . S
C1043 C1042 1.375 . S
C1043 C1044 1.361 . S
C1044 H1004 0.930 . S
C1044 C1043 1.361 . S
C1044 C1045 1.399 . S
C1045 H1005 0.929 . S
C1045 C1040 1.386 . S
C1045 C1044 1.399 . S
C1046 C1025 1.485 . S
C1046 C1047 1.394 . S
C1046 C1051 1.360 . S
C1047 H1006 0.931 . S
C1047 C1046 1.394 . S
C1047 C1048 1.372 . S
C1048 H1007 0.930 . S
C1048 C1047 1.372 . S
C1048 C1049 1.397 . S
C1049 C1048 1.397 . S
C1049 C1050 1.390 . S
C1049 C1065 1.476 . S
C1050 H1008 0.930 . S
C1050 C1049 1.390 . S
C1050 C1051 1.366 . S
C1051 H1009 0.932 . S
C1051 C1046 1.360 . S
C1051 C1050 1.366 . S
C1052 C1026 1.490 . S
C1052 C1053 1.380 . S
C1052 C1057 1.386 . S
C1053 H1010 0.930 . S
C1053 C1052 1.380 . S
C1053 C1054 1.381 . S
C1054 H1011 0.929 . S
C1054 C1053 1.381 . S
C1054 C1055 1.371 . S
C1055 C1054 1.371 . S
C1055 C1056 1.380 . S
C1056 H1012 0.931 . S
C1056 C1055 1.380 . S
C1056 C1057 1.387 . S
C1057 H1013 0.930 . S
C1057 C1052 1.386 . S
C1057 C1056 1.387 . S
C1058 C1027 1.519 . S
C1058 C1059 1.377 . S
C1058 C1063 1.361 . S
C1059 H1014 0.929 . S
C1059 C1058 1.377 . S
C1059 C1060 1.386 . S
C1060 H1015 0.931 . S
C1060 C1059 1.386 . S
C1060 C1061 1.363 . S
C1061 C1060 1.363 . S
C1061 C1062 1.385 . S
C1062 H1016 0.930 . S
C1062 C1061 1.385 . S
C1062 C1063 1.396 . S
C1063 H1017 0.929 . S
C1063 C1058 1.361 . S
C1063 C1062 1.396 . S
C1064 O1018 1.300 . S
C1064 O1019 1.209 . S
C1064 C1037 1.486 . S
C1065 O1020 1.199 . S
C1065 O1021 1.297 . S
C1065 C1049 1.476 . S
H1066 O1092 0.856 . S
H1067 O1095 0.854 . S
H1068 C1103 0.930 . S
H1069 C1104 0.930 . S
H1070 C1106 0.930 . S
H1071 C1107 0.930 . S
H1072 C1109 0.931 . S
H1073 C1110 0.973 . S
H1074 C1112 0.930 . S
H1075 C1113 0.929 . S
H1076 C1115 0.930 . S
H1077 C1116 0.931 . S
H1078 C1118 0.930 . S
H1079 C1119 0.929 . S
H1080 C1121 0.931 . S
H1081 C1122 0.930 . S
H1082 C1124 0.930 . S
H1083 C1125 0.932 . S
H1084 C1127 0.930 . S
H1085 C1128 0.929 . S
H1086 C1130 0.931 . S
H1087 C1131 0.930 . S
H1088 C1133 0.929 . S
H1089 C1134 0.931 . S
H1090 C1136 0.930 . S
H1091 C1137 0.929 . S
O1092 H1066 0.856 . S
O1092 C1138 1.300 . S
O1093 C1138 1.209 . S
O1094 C1139 1.199 1_545 S
O1095 H1067 0.854 . S
O1095 C1139 1.297 . S
C1096 C1097 1.404 . S
C1096 C1101 1.412 . S
C1096 C1102 1.492 . S
C1097 C1096 1.404 . S
C1097 C1098 1.396 . S
C1097 C1108 1.492 . S
C1098 C1097 1.396 . S
C1098 C1099 1.397 . S
C1098 C1114 1.509 . S
C1099 C1098 1.397 . S
C1099 C1100 1.411 . S
C1099 C1120 1.485 . S
C1100 C1099 1.411 . S
C1100 C1101 1.367 . S
C1100 C1126 1.488 1_565 S
C1101 C1096 1.412 . S
C1101 C1100 1.367 . S
C1101 C1132 1.536 . S
C1102 C1096 1.492 . S
C1102 C1103 1.363 1_565 S
C1102 C1107 1.390 . S
C1103 H1068 0.930 . S
C1103 C1102 1.363 1_545 S
C1103 C1104 1.372 . S
C1104 H1069 0.930 . S
C1104 C1103 1.372 . S
C1104 C1105 1.383 . S
C1105 C1104 1.383 . S
C1105 C1106 1.395 1_545 S
C1106 H1070 0.930 . S
C1106 C1105 1.395 1_565 S
C1106 C1107 1.362 . S
C1107 H1071 0.930 . S
C1107 C1102 1.390 . S
C1107 C1106 1.362 . S
C1108 C1097 1.492 . S
C1108 C1109 1.377 1_565 S
C1108 C1113 1.397 . S
C1109 H1072 0.931 . S
C1109 C1108 1.377 1_545 S
C1109 C1110 1.398 . S
C1110 H1073 0.973 . S
C1110 C1109 1.398 . S
C1110 C1111 1.313 1_545 S
C1111 C1110 1.313 1_565 S
C1111 C1112 1.378 . S
C1111 C1138 1.486 . S
C1112 H1074 0.930 . S
C1112 C1111 1.378 . S
C1112 C1113 1.376 . S
C1113 H1075 0.929 . S
C1113 C1108 1.397 . S
C1113 C1112 1.376 . S
C1114 C1098 1.509 . S
C1114 C1115 1.391 1_565 S
C1114 C1119 1.386 . S
C1115 H1076 0.930 . S
C1115 C1114 1.391 1_545 S
C1115 C1116 1.375 . S
C1116 H1077 0.931 . S
C1116 C1115 1.375 . S
C1116 C1117 1.375 1_545 S
C1117 C1116 1.375 1_565 S
C1117 C1118 1.361 . S
C1118 H1078 0.930 . S
C1118 C1117 1.361 . S
C1118 C1119 1.399 . S
C1119 H1079 0.929 . S
C1119 C1114 1.386 . S
C1119 C1118 1.399 . S
C1120 C1099 1.485 . S
C1120 C1121 1.394 1_565 S
C1120 C1125 1.360 . S
C1121 H1080 0.931 . S
C1121 C1120 1.394 1_545 S
C1121 C1122 1.372 . S
C1122 H1081 0.930 . S
C1122 C1121 1.372 . S
C1122 C1123 1.397 1_545 S
C1123 C1122 1.397 1_565 S
C1123 C1124 1.390 . S
C1123 C1139 1.476 . S
C1124 H1082 0.930 . S
C1124 C1123 1.390 . S
C1124 C1125 1.366 . S
C1125 H1083 0.932 . S
C1125 C1120 1.360 . S
C1125 C1124 1.366 . S
C1126 C1100 1.488 1_545 S
C1126 C1127 1.380 . S
C1126 C1131 1.386 1_545 S
C1127 H1084 0.930 . S
C1127 C1126 1.380 . S
C1127 C1128 1.381 . S
C1128 H1085 0.929 . S
C1128 C1127 1.381 . S
C1128 C1129 1.371 . S
C1129 C1128 1.371 . S
C1129 C1130 1.380 1_545 S
C1130 H1086 0.931 . S
C1130 C1129 1.380 1_565 S
C1130 C1131 1.387 . S
C1131 H1087 0.930 . S
C1131 C1126 1.386 1_565 S
C1131 C1130 1.387 . S
C1132 C1101 1.536 . S
C1132 C1133 1.379 1_565 S
C1132 C1137 1.357 . S
C1133 H1088 0.929 . S
C1133 C1132 1.379 1_545 S
C1133 C1134 1.386 . S
C1134 H1089 0.931 . S
C1134 C1133 1.386 . S
C1134 C1135 1.299 1_545 S
C1135 C1134 1.299 1_565 S
C1135 C1136 1.419 . S
C1136 H1090 0.930 . S
C1136 C1135 1.419 . S
C1136 C1137 1.396 . S
C1137 H1091 0.929 . S
C1137 C1132 1.357 . S
C1137 C1136 1.396 . S
C1138 O1092 1.300 . S
C1138 O1093 1.209 . S
C1138 C1111 1.486 . S
C1139 O1094 1.199 1_565 S
C1139 O1095 1.297 . S
C1139 C1123 1.476 . S
H1140 O1166 0.856 . S
H1141 O1169 0.854 . S
H1142 C1177 0.930 . S
H1143 C1178 0.930 . S
H1144 C1180 0.930 . S
H1145 C1181 0.930 . S
H1146 C1183 0.931 . S
H1147 C1184 0.930 . S
H1148 C1186 0.930 . S
H1149 C1187 0.929 . S
H1150 C1189 0.930 . S
H1151 C1190 0.931 . S
H1152 C1192 0.930 . S
H1153 C1193 0.929 . S
H1154 C1195 0.931 . S
H1155 C1196 0.930 . S
H1156 C1198 0.930 . S
H1157 C1199 0.932 . S
H1158 C1201 0.930 . S
H1159 C1202 0.929 . S
H1160 C1204 0.931 . S
H1161 C1205 0.930 . S
H1162 C1207 0.929 . S
H1163 C1208 0.931 . S
H1164 C1210 0.930 . S
H1165 C1211 0.929 . S
O1166 H1140 0.856 . S
O1166 C1212 1.300 . S
O1167 C1212 1.209 1_565 S
O1168 C1213 1.199 1_545 S
O1169 H1141 0.854 . S
O1169 C1213 1.297 . S
C1170 C1171 1.404 . S
C1170 C1175 1.398 1_545 S
C1170 C1176 1.492 . S
C1171 C1170 1.404 . S
C1171 C1172 1.417 . S
C1171 C1182 1.492 . S
C1172 C1171 1.417 . S
C1172 C1173 1.381 1_545 S
C1172 C1188 1.500 . S
C1173 C1172 1.381 1_565 S
C1173 C1174 1.413 . S
C1173 C1194 1.508 . S
C1174 C1173 1.413 . S
C1174 C1175 1.364 . S
C1174 C1200 1.489 . S
C1175 C1170 1.398 1_565 S
C1175 C1174 1.364 . S
C1175 C1206 1.519 . S
C1176 C1170 1.492 . S
C1176 C1177 1.363 . S
C1176 C1181 1.390 1_545 S
C1177 H1142 0.930 . S
C1177 C1176 1.363 . S
C1177 C1178 1.372 . S
C1178 H1143 0.930 . S
C1178 C1177 1.372 . S
C1178 C1179 1.383 . S
C1179 C1178 1.383 . S
C1179 C1180 1.395 1_545 S
C1180 H1144 0.930 . S
C1180 C1179 1.395 1_565 S
C1180 C1181 1.362 . S
C1181 H1145 0.930 . S
C1181 C1176 1.390 1_565 S
C1181 C1180 1.362 . S
C1182 C1171 1.492 . S
C1182 C1183 1.377 . S
C1182 C1187 1.397 1_545 S
C1183 H1146 0.931 . S
C1183 C1182 1.377 . S
C1183 C1184 1.376 . S
C1184 H1147 0.930 . S
C1184 C1183 1.376 . S
C1184 C1185 1.376 . S
C1185 C1184 1.376 . S
C1185 C1186 1.378 1_545 S
C1185 C1212 1.486 . S
C1186 H1148 0.930 . S
C1186 C1185 1.378 1_565 S
C1186 C1187 1.376 . S
C1187 H1149 0.929 . S
C1187 C1182 1.397 1_565 S
C1187 C1186 1.376 . S
C1188 C1172 1.500 . S
C1188 C1189 1.396 . S
C1188 C1193 1.378 1_545 S
C1189 H1150 0.930 . S
C1189 C1188 1.396 . S
C1189 C1190 1.375 . S
C1190 H1151 0.931 . S
C1190 C1189 1.375 . S
C1190 C1191 1.359 1_545 S
C1191 C1190 1.359 1_565 S
C1191 C1192 1.371 . S
C1192 H1152 0.930 . S
C1192 C1191 1.371 . S
C1192 C1193 1.399 . S
C1193 H1153 0.929 . S
C1193 C1188 1.378 1_565 S
C1193 C1192 1.399 . S
C1194 C1173 1.508 . S
C1194 C1195 1.394 1_565 S
C1194 C1199 1.360 . S
C1195 H1154 0.931 . S
C1195 C1194 1.394 1_545 S
C1195 C1196 1.372 . S
C1196 H1155 0.930 . S
C1196 C1195 1.372 . S
C1196 C1197 1.397 1_545 S
C1197 C1196 1.397 1_565 S
C1197 C1198 1.390 . S
C1197 C1213 1.476 . S
C1198 H1156 0.930 . S
C1198 C1197 1.390 . S
C1198 C1199 1.366 . S
C1199 H1157 0.932 . S
C1199 C1194 1.360 . S
C1199 C1198 1.366 . S
C1200 C1174 1.489 . S
C1200 C1201 1.343 1_565 S
C1200 C1205 1.432 . S
C1201 H1158 0.930 . S
C1201 C1200 1.343 1_545 S
C1201 C1202 1.381 . S
C1202 H1159 0.929 . S
C1202 C1201 1.381 . S
C1202 C1203 1.395 . S
C1203 C1202 1.395 . S
C1203 C1204 1.360 1_545 S
C1204 H1160 0.931 . S
C1204 C1203 1.360 1_565 S
C1204 C1205 1.387 . S
C1205 H1161 0.930 . S
C1205 C1200 1.432 . S
C1205 C1204 1.387 . S
C1206 C1175 1.519 . S
C1206 C1207 1.377 1_565 S
C1206 C1211 1.361 . S
C1207 H1162 0.929 . S
C1207 C1206 1.377 1_545 S
C1207 C1208 1.386 . S
C1208 H1163 0.931 . S
C1208 C1207 1.386 . S
C1208 C1209 1.363 1_545 S
C1209 C1208 1.363 1_565 S
C1209 C1210 1.385 . S
C1210 H1164 0.930 . S
C1210 C1209 1.385 . S
C1210 C1211 1.396 . S
C1211 H1165 0.929 . S
C1211 C1206 1.361 . S
C1211 C1210 1.396 . S
C1212 O1166 1.300 . S
C1212 O1167 1.209 1_545 S
C1212 C1185 1.486 . S
C1213 O1168 1.199 1_565 S
C1213 O1169 1.297 . S
C1213 C1197 1.476 . S
H1214 O1240 0.856 . S
H1215 O1243 0.854 . S
H1216 C1251 0.930 . S
H1217 C1252 0.930 . S
H1218 C1254 0.930 . S
H1219 C1255 0.930 . S
H1220 C1257 0.931 . S
H1221 C1258 0.930 . S
H1222 C1260 0.930 . S
H1223 C1261 0.929 . S
H1224 C1263 0.930 . S
H1225 C1264 0.931 . S
H1226 C1266 0.930 . S
H1227 C1267 0.929 . S
H1228 C1269 0.931 . S
H1229 C1270 0.930 . S
H1230 C1272 0.930 . S
H1231 C1273 0.932 . S
H1232 C1275 0.930 . S
H1233 C1276 0.929 . S
H1234 C1278 0.931 . S
H1235 C1279 0.930 . S
H1236 C1281 0.929 . S
H1237 C1282 0.931 . S
H1238 C1284 0.930 . S
H1239 C1285 0.929 . S
O1240 H1214 0.856 . S
O1240 C1286 1.300 . S
O1241 C1286 1.209 1_455 S
O1242 C1287 1.199 1_655 S
O1243 H1215 0.854 . S
O1243 C1287 1.297 . S
C1244 C1245 1.404 . S
C1244 C1249 1.398 . S
C1244 C1250 1.492 . S
C1245 C1244 1.404 . S
C1245 C1246 1.396 . S
C1245 C1256 1.492 . S
C1246 C1245 1.396 . S
C1246 C1247 1.397 . S
C1246 C1262 1.509 . S
C1247 C1246 1.397 . S
C1247 C1248 1.400 1_655 S
C1247 C1268 1.518 1_655 S
C1248 C1247 1.400 1_455 S
C1248 C1249 1.397 1_455 S
C1248 C1274 1.499 . S
C1249 C1244 1.398 . S
C1249 C1248 1.397 1_655 S
C1249 C1280 1.523 1_655 S
C1250 C1244 1.492 . S
C1250 C1251 1.363 . S
C1250 C1255 1.390 1_655 S
C1251 H1216 0.930 . S
C1251 C1250 1.363 . S
C1251 C1252 1.372 . S
C1252 H1217 0.930 . S
C1252 C1251 1.372 . S
C1252 C1253 1.383 . S
C1253 C1252 1.383 . S
C1253 C1254 1.395 1_655 S
C1254 H1218 0.930 . S
C1254 C1253 1.395 1_455 S
C1254 C1255 1.362 . S
C1255 H1219 0.930 . S
C1255 C1250 1.390 1_455 S
C1255 C1254 1.362 . S
C1256 C1245 1.492 . S
C1256 C1257 1.377 . S
C1256 C1261 1.397 1_655 S
C1257 H1220 0.931 . S
C1257 C1256 1.377 . S
C1257 C1258 1.376 . S
C1258 H1221 0.930 . S
C1258 C1257 1.376 . S
C1258 C1259 1.376 . S
C1259 C1258 1.376 . S
C1259 C1260 1.378 1_655 S
C1259 C1286 1.486 . S
C1260 H1222 0.930 . S
C1260 C1259 1.378 1_455 S
C1260 C1261 1.376 . S
C1261 H1223 0.929 . S
C1261 C1256 1.397 1_455 S
C1261 C1260 1.376 . S
C1262 C1246 1.509 . S
C1262 C1263 1.391 . S
C1262 C1267 1.386 1_655 S
C1263 H1224 0.930 . S
C1263 C1262 1.391 . S
C1263 C1264 1.375 . S
C1264 H1225 0.931 . S
C1264 C1263 1.375 . S
C1264 C1265 1.375 . S
C1265 C1264 1.375 . S
C1265 C1266 1.361 1_655 S
C1266 H1226 0.930 . S
C1266 C1265 1.361 1_455 S
C1266 C1267 1.399 . S
C1267 H1227 0.929 . S
C1267 C1262 1.386 1_455 S
C1267 C1266 1.399 . S
C1268 C1247 1.518 1_455 S
C1268 C1269 1.343 1_455 S
C1268 C1273 1.384 . S
C1269 H1228 0.931 . S
C1269 C1268 1.343 1_655 S
C1269 C1270 1.372 . S
C1270 H1229 0.930 . S
C1270 C1269 1.372 . S
C1270 C1271 1.397 1_655 S
C1271 C1270 1.397 1_455 S
C1271 C1272 1.390 . S
C1271 C1287 1.476 . S
C1272 H1230 0.930 . S
C1272 C1271 1.390 . S
C1272 C1273 1.366 . S
C1273 H1231 0.932 . S
C1273 C1268 1.384 . S
C1273 C1272 1.366 . S
C1274 C1248 1.499 . S
C1274 C1275 1.337 1_455 S
C1274 C1279 1.419 . S
C1275 H1232 0.930 . S
C1275 C1274 1.337 1_655 S
C1275 C1276 1.381 . S
C1276 H1233 0.929 . S
C1276 C1275 1.381 . S
C1276 C1277 1.346 1_655 S
C1277 C1276 1.346 1_455 S
C1277 C1278 1.419 . S
C1278 H1234 0.931 . S
C1278 C1277 1.419 . S
C1278 C1279 1.387 . S
C1279 H1235 0.930 . S
C1279 C1274 1.419 . S
C1279 C1278 1.387 . S
C1280 C1249 1.523 1_455 S
C1280 C1281 1.377 1_455 S
C1280 C1285 1.361 . S
C1281 H1236 0.929 . S
C1281 C1280 1.377 1_655 S
C1281 C1282 1.386 . S
C1282 H1237 0.931 . S
C1282 C1281 1.386 . S
C1282 C1283 1.363 1_655 S
C1283 C1282 1.363 1_455 S
C1283 C1284 1.385 . S
C1284 H1238 0.930 . S
C1284 C1283 1.385 . S
C1284 C1285 1.396 . S
C1285 H1239 0.929 . S
C1285 C1280 1.361 . S
C1285 C1284 1.396 . S
C1286 O1240 1.300 . S
C1286 O1241 1.209 1_655 S
C1286 C1259 1.486 . S
C1287 O1242 1.199 1_455 S
C1287 O1243 1.297 . S
C1287 C1271 1.476 . S
H1288 O1314 0.856 . S
H1289 O1317 0.854 . S
H1290 C1325 0.930 . S
H1291 C1326 0.930 . S
H1292 C1328 0.930 . S
H1293 C1329 0.930 . S
H1294 C1331 0.931 . S
H1295 C1332 0.930 . S
H1296 C1334 0.930 . S
H1297 C1335 0.929 . S
H1298 C1337 0.930 . S
H1299 C1338 0.931 . S
H1300 C1340 0.930 . S
H1301 C1341 0.929 . S
H1302 C1343 0.931 . S
H1303 C1344 0.930 . S
H1304 C1346 0.930 . S
H1305 C1347 0.932 . S
H1306 C1349 0.930 . S
H1307 C1350 0.929 . S
H1308 C1352 0.931 . S
H1309 C1353 0.930 . S
H1310 C1355 0.929 . S
H1311 C1356 0.931 . S
H1312 C1358 0.930 . S
H1313 C1359 0.929 . S
O1314 H1288 0.856 . S
O1314 C1360 1.300 . S
O1315 C1360 1.209 . S
O1316 C1361 1.199 . S
O1317 H1289 0.854 . S
O1317 C1361 1.297 . S
C1318 C1319 1.404 . S
C1318 C1323 1.397 . S
C1318 C1324 1.492 . S
C1319 C1318 1.404 . S
C1319 C1320 1.396 . S
C1319 C1330 1.492 . S
C1320 C1319 1.396 . S
C1320 C1321 1.397 . S
C1320 C1336 1.509 . S
C1321 C1320 1.397 . S
C1321 C1322 1.412 . S
C1321 C1342 1.485 . S
C1322 C1321 1.412 . S
C1322 C1323 1.388 . S
C1322 C1348 1.490 . S
C1323 C1318 1.397 . S
C1323 C1322 1.388 . S
C1323 C1354 1.519 . S
C1324 C1318 1.492 . S
C1324 C1325 1.363 . S
C1324 C1329 1.390 . S
C1325 H1290 0.930 . S
C1325 C1324 1.363 . S
C1325 C1326 1.372 . S
C1326 H1291 0.930 . S
C1326 C1325 1.372 . S
C1326 C1327 1.383 . S
C1327 C1326 1.383 . S
C1327 C1328 1.395 . S
C1328 H1292 0.930 . S
C1328 C1327 1.395 . S
C1328 C1329 1.362 . S
C1329 H1293 0.930 . S
C1329 C1324 1.390 . S
C1329 C1328 1.362 . S
C1330 C1319 1.492 . S
C1330 C1331 1.377 . S
C1330 C1335 1.397 . S
C1331 H1294 0.931 . S
C1331 C1330 1.377 . S
C1331 C1332 1.376 . S
C1332 H1295 0.930 . S
C1332 C1331 1.376 . S
C1332 C1333 1.376 . S
C1333 C1332 1.376 . S
C1333 C1334 1.378 . S
C1333 C1360 1.486 . S
C1334 H1296 0.930 . S
C1334 C1333 1.378 . S
C1334 C1335 1.376 . S
C1335 H1297 0.929 . S
C1335 C1330 1.397 . S
C1335 C1334 1.376 . S
C1336 C1320 1.509 . S
C1336 C1337 1.391 . S
C1336 C1341 1.386 . S
C1337 H1298 0.930 . S
C1337 C1336 1.391 . S
C1337 C1338 1.375 . S
C1338 H1299 0.931 . S
C1338 C1337 1.375 . S
C1338 C1339 1.375 . S
C1339 C1338 1.375 . S
C1339 C1340 1.361 . S
C1340 H1300 0.930 . S
C1340 C1339 1.361 . S
C1340 C1341 1.399 . S
C1341 H1301 0.929 . S
C1341 C1336 1.386 . S
C1341 C1340 1.399 . S
C1342 C1321 1.485 . S
C1342 C1343 1.394 . S
C1342 C1347 1.360 . S
C1343 H1302 0.931 . S
C1343 C1342 1.394 . S
C1343 C1344 1.372 . S
C1344 H1303 0.930 . S
C1344 C1343 1.372 . S
C1344 C1345 1.397 . S
C1345 C1344 1.397 . S
C1345 C1346 1.390 . S
C1345 C1361 1.476 . S
C1346 H1304 0.930 . S
C1346 C1345 1.390 . S
C1346 C1347 1.366 . S
C1347 H1305 0.932 . S
C1347 C1342 1.360 . S
C1347 C1346 1.366 . S
C1348 C1322 1.490 . S
C1348 C1349 1.380 . S
C1348 C1353 1.386 . S
C1349 H1306 0.930 . S
C1349 C1348 1.380 . S
C1349 C1350 1.381 . S
C1350 H1307 0.929 . S
C1350 C1349 1.381 . S
C1350 C1351 1.371 . S
C1351 C1350 1.371 . S
C1351 C1352 1.380 . S
C1352 H1308 0.931 . S
C1352 C1351 1.380 . S
C1352 C1353 1.387 . S
C1353 H1309 0.930 . S
C1353 C1348 1.386 . S
C1353 C1352 1.387 . S
C1354 C1323 1.519 . S
C1354 C1355 1.377 . S
C1354 C1359 1.361 . S
C1355 H1310 0.929 . S
C1355 C1354 1.377 . S
C1355 C1356 1.386 . S
C1356 H1311 0.931 . S
C1356 C1355 1.386 . S
C1356 C1357 1.363 . S
C1357 C1356 1.363 . S
C1357 C1358 1.385 . S
C1358 H1312 0.930 . S
C1358 C1357 1.385 . S
C1358 C1359 1.396 . S
C1359 H1313 0.929 . S
C1359 C1354 1.361 . S
C1359 C1358 1.396 . S
C1360 O1314 1.300 . S
C1360 O1315 1.209 . S
C1360 C1333 1.486 . S
C1361 O1316 1.199 . S
C1361 O1317 1.297 . S
C1361 C1345 1.476 . S
H1362 O1388 0.856 . S
H1363 O1391 0.854 . S
H1364 C1399 0.930 . S
H1365 C1400 0.930 . S
H1366 C1402 0.930 . S
H1367 C1403 0.930 . S
H1368 C1405 0.931 . S
H1369 C1406 0.930 . S
H1370 C1408 0.930 . S
H1371 C1409 0.929 . S
H1372 C1411 0.930 . S
H1373 C1412 0.931 . S
H1374 C1414 0.930 . S
H1375 C1415 0.929 . S
H1376 C1417 0.931 . S
H1377 C1418 0.930 . S
H1378 C1420 0.930 . S
H1379 C1421 0.932 . S
H1380 C1423 0.930 . S
H1381 C1424 0.929 . S
H1382 C1426 0.931 . S
H1383 C1427 0.930 . S
H1384 C1429 0.929 . S
H1385 C1430 0.931 . S
H1386 C1432 0.930 . S
H1387 C1433 0.929 . S
O1388 H1362 0.856 . S
O1388 C1434 1.300 . S
O1389 C1434 1.209 . S
O1390 C1435 1.199 . S
O1391 H1363 0.854 . S
O1391 C1435 1.297 . S
C1392 C1393 1.404 . S
C1392 C1397 1.397 . S
C1392 C1398 1.492 . S
C1393 C1392 1.404 . S
C1393 C1394 1.396 . S
C1393 C1404 1.492 . S
C1394 C1393 1.396 . S
C1394 C1395 1.397 . S
C1394 C1410 1.509 . S
C1395 C1394 1.397 . S
C1395 C1396 1.412 . S
C1395 C1416 1.485 . S
C1396 C1395 1.412 . S
C1396 C1397 1.388 . S
C1396 C1422 1.490 . S
C1397 C1392 1.397 . S
C1397 C1396 1.388 . S
C1397 C1428 1.519 . S
C1398 C1392 1.492 . S
C1398 C1399 1.363 . S
C1398 C1403 1.390 . S
C1399 H1364 0.930 . S
C1399 C1398 1.363 . S
C1399 C1400 1.372 . S
C1400 H1365 0.930 . S
C1400 C1399 1.372 . S
C1400 C1401 1.383 . S
C1401 C1400 1.383 . S
C1401 C1402 1.395 . S
C1402 H1366 0.930 . S
C1402 C1401 1.395 . S
C1402 C1403 1.362 . S
C1403 H1367 0.930 . S
C1403 C1398 1.390 . S
C1403 C1402 1.362 . S
C1404 C1393 1.492 . S
C1404 C1405 1.377 . S
C1404 C1409 1.397 . S
C1405 H1368 0.931 . S
C1405 C1404 1.377 . S
C1405 C1406 1.376 . S
C1406 H1369 0.930 . S
C1406 C1405 1.376 . S
C1406 C1407 1.376 . S
C1407 C1406 1.376 . S
C1407 C1408 1.378 . S
C1407 C1434 1.486 . S
C1408 H1370 0.930 . S
C1408 C1407 1.378 . S
C1408 C1409 1.376 . S
C1409 H1371 0.929 . S
C1409 C1404 1.397 . S
C1409 C1408 1.376 . S
C1410 C1394 1.509 . S
C1410 C1411 1.391 . S
C1410 C1415 1.386 . S
C1411 H1372 0.930 . S
C1411 C1410 1.391 . S
C1411 C1412 1.375 . S
C1412 H1373 0.931 . S
C1412 C1411 1.375 . S
C1412 C1413 1.375 . S
C1413 C1412 1.375 . S
C1413 C1414 1.361 . S
C1414 H1374 0.930 . S
C1414 C1413 1.361 . S
C1414 C1415 1.399 . S
C1415 H1375 0.929 . S
C1415 C1410 1.386 . S
C1415 C1414 1.399 . S
C1416 C1395 1.485 . S
C1416 C1417 1.394 . S
C1416 C1421 1.360 . S
C1417 H1376 0.931 . S
C1417 C1416 1.394 . S
C1417 C1418 1.372 . S
C1418 H1377 0.930 . S
C1418 C1417 1.372 . S
C1418 C1419 1.397 . S
C1419 C1418 1.397 . S
C1419 C1420 1.390 . S
C1419 C1435 1.476 . S
C1420 H1378 0.930 . S
C1420 C1419 1.390 . S
C1420 C1421 1.366 . S
C1421 H1379 0.932 . S
C1421 C1416 1.360 . S
C1421 C1420 1.366 . S
C1422 C1396 1.490 . S
C1422 C1423 1.380 . S
C1422 C1427 1.386 . S
C1423 H1380 0.930 . S
C1423 C1422 1.380 . S
C1423 C1424 1.381 . S
C1424 H1381 0.929 . S
C1424 C1423 1.381 . S
C1424 C1425 1.371 . S
C1425 C1424 1.371 . S
C1425 C1426 1.380 . S
C1426 H1382 0.931 . S
C1426 C1425 1.380 . S
C1426 C1427 1.387 . S
C1427 H1383 0.930 . S
C1427 C1422 1.386 . S
C1427 C1426 1.387 . S
C1428 C1397 1.519 . S
C1428 C1429 1.377 . S
C1428 C1433 1.361 . S
C1429 H1384 0.929 . S
C1429 C1428 1.377 . S
C1429 C1430 1.386 . S
C1430 H1385 0.931 . S
C1430 C1429 1.386 . S
C1430 C1431 1.363 . S
C1431 C1430 1.363 . S
C1431 C1432 1.385 . S
C1432 H1386 0.930 . S
C1432 C1431 1.385 . S
C1432 C1433 1.396 . S
C1433 H1387 0.929 . S
C1433 C1428 1.361 . S
C1433 C1432 1.396 . S
C1434 O1388 1.300 . S
C1434 O1389 1.209 . S
C1434 C1407 1.486 . S
C1435 O1390 1.199 . S
C1435 O1391 1.297 . S
C1435 C1419 1.476 . S
H1436 O1462 0.856 . S
H1437 O1465 0.854 . S
H1438 C1473 0.930 . S
H1439 C1474 0.930 . S
H1440 C1476 0.930 . S
H1441 C1477 0.930 . S
H1442 C1479 0.931 . S
H1443 C1480 0.930 . S
H1444 C1482 0.930 . S
H1445 C1483 0.929 . S
H1446 C1485 0.930 . S
H1447 C1486 0.931 . S
H1448 C1488 0.930 . S
H1449 C1489 0.929 . S
H1450 C1491 0.931 . S
H1451 C1492 0.930 . S
H1452 C1494 0.930 . S
H1453 C1495 0.932 . S
H1454 C1497 0.930 . S
H1455 C1498 0.929 . S
H1456 C1500 0.931 . S
H1457 C1501 0.930 . S
H1458 C1503 0.929 . S
H1459 C1504 0.931 . S
H1460 C1506 0.930 . S
H1461 C1507 0.929 . S
O1462 H1436 0.856 . S
O1462 C1508 1.300 . S
O1463 C1508 1.209 . S
O1464 C1509 1.199 . S
O1465 H1437 0.854 . S
O1465 C1509 1.297 . S
C1466 C1467 1.404 . S
C1466 C1471 1.397 . S
C1466 C1472 1.492 . S
C1467 C1466 1.404 . S
C1467 C1468 1.396 . S
C1467 C1478 1.492 . S
C1468 C1467 1.396 . S
C1468 C1469 1.397 . S
C1468 C1484 1.509 . S
C1469 C1468 1.397 . S
C1469 C1470 1.412 . S
C1469 C1490 1.485 . S
C1470 C1469 1.412 . S
C1470 C1471 1.388 . S
C1470 C1496 1.490 . S
C1471 C1466 1.397 . S
C1471 C1470 1.388 . S
C1471 C1502 1.519 . S
C1472 C1466 1.492 . S
C1472 C1473 1.363 . S
C1472 C1477 1.390 . S
C1473 H1438 0.930 . S
C1473 C1472 1.363 . S
C1473 C1474 1.372 . S
C1474 H1439 0.930 . S
C1474 C1473 1.372 . S
C1474 C1475 1.383 . S
C1475 C1474 1.383 . S
C1475 C1476 1.395 . S
C1476 H1440 0.930 . S
C1476 C1475 1.395 . S
C1476 C1477 1.362 . S
C1477 H1441 0.930 . S
C1477 C1472 1.390 . S
C1477 C1476 1.362 . S
C1478 C1467 1.492 . S
C1478 C1479 1.377 . S
C1478 C1483 1.397 . S
C1479 H1442 0.931 . S
C1479 C1478 1.377 . S
C1479 C1480 1.376 . S
C1480 H1443 0.930 . S
C1480 C1479 1.376 . S
C1480 C1481 1.376 . S
C1481 C1480 1.376 . S
C1481 C1482 1.378 . S
C1481 C1508 1.486 . S
C1482 H1444 0.930 . S
C1482 C1481 1.378 . S
C1482 C1483 1.376 . S
C1483 H1445 0.929 . S
C1483 C1478 1.397 . S
C1483 C1482 1.376 . S
C1484 C1468 1.509 . S
C1484 C1485 1.391 . S
C1484 C1489 1.386 . S
C1485 H1446 0.930 . S
C1485 C1484 1.391 . S
C1485 C1486 1.375 . S
C1486 H1447 0.931 . S
C1486 C1485 1.375 . S
C1486 C1487 1.375 . S
C1487 C1486 1.375 . S
C1487 C1488 1.361 . S
C1488 H1448 0.930 . S
C1488 C1487 1.361 . S
C1488 C1489 1.399 . S
C1489 H1449 0.929 . S
C1489 C1484 1.386 . S
C1489 C1488 1.399 . S
C1490 C1469 1.485 . S
C1490 C1491 1.394 . S
C1490 C1495 1.360 . S
C1491 H1450 0.931 . S
C1491 C1490 1.394 . S
C1491 C1492 1.372 . S
C1492 H1451 0.930 . S
C1492 C1491 1.372 . S
C1492 C1493 1.397 . S
C1493 C1492 1.397 . S
C1493 C1494 1.390 . S
C1493 C1509 1.476 . S
C1494 H1452 0.930 . S
C1494 C1493 1.390 . S
C1494 C1495 1.366 . S
C1495 H1453 0.932 . S
C1495 C1490 1.360 . S
C1495 C1494 1.366 . S
C1496 C1470 1.490 . S
C1496 C1497 1.380 . S
C1496 C1501 1.386 . S
C1497 H1454 0.930 . S
C1497 C1496 1.380 . S
C1497 C1498 1.381 . S
C1498 H1455 0.929 . S
C1498 C1497 1.381 . S
C1498 C1499 1.371 . S
C1499 C1498 1.371 . S
C1499 C1500 1.380 . S
C1500 H1456 0.931 . S
C1500 C1499 1.380 . S
C1500 C1501 1.387 . S
C1501 H1457 0.930 . S
C1501 C1496 1.386 . S
C1501 C1500 1.387 . S
C1502 C1471 1.519 . S
C1502 C1503 1.377 . S
C1502 C1507 1.361 . S
C1503 H1458 0.929 . S
C1503 C1502 1.377 . S
C1503 C1504 1.386 . S
C1504 H1459 0.931 . S
C1504 C1503 1.386 . S
C1504 C1505 1.363 . S
C1505 C1504 1.363 . S
C1505 C1506 1.385 . S
C1506 H1460 0.930 . S
C1506 C1505 1.385 . S
C1506 C1507 1.396 . S
C1507 H1461 0.929 . S
C1507 C1502 1.361 . S
C1507 C1506 1.396 . S
C1508 O1462 1.300 . S
C1508 O1463 1.209 . S
C1508 C1481 1.486 . S
C1509 O1464 1.199 . S
C1509 O1465 1.297 . S
C1509 C1493 1.476 . S
H1510 O1536 0.856 . S
H1511 O1539 0.854 . S
H1512 C1547 0.930 . S
H1513 C1548 0.930 . S
H1514 C1550 0.930 . S
H1515 C1551 0.930 . S
H1516 C1553 0.931 . S
H1517 C1554 0.930 . S
H1518 C1556 0.930 . S
H1519 C1557 0.929 . S
H1520 C1559 0.930 . S
H1521 C1560 0.931 . S
H1522 C1562 0.930 . S
H1523 C1563 0.929 . S
H1524 C1565 0.931 . S
H1525 C1566 0.930 . S
H1526 C1568 0.930 . S
H1527 C1569 0.932 . S
H1528 C1571 0.930 . S
H1529 C1572 0.929 . S
H1530 C1574 0.931 . S
H1531 C1575 0.930 . S
H1532 C1577 0.929 . S
H1533 C1578 0.931 . S
H1534 C1580 0.930 . S
H1535 C1581 0.929 . S
O1536 H1510 0.856 . S
O1536 C1582 1.300 . S
O1537 C1582 1.209 . S
O1538 C1583 1.199 . S
O1539 H1511 0.854 . S
O1539 C1583 1.297 . S
C1540 C1541 1.404 . S
C1540 C1545 1.397 . S
C1540 C1546 1.492 . S
C1541 C1540 1.404 . S
C1541 C1542 1.396 . S
C1541 C1552 1.492 . S
C1542 C1541 1.396 . S
C1542 C1543 1.397 . S
C1542 C1558 1.509 . S
C1543 C1542 1.397 . S
C1543 C1544 1.412 . S
C1543 C1564 1.485 . S
C1544 C1543 1.412 . S
C1544 C1545 1.388 . S
C1544 C1570 1.490 . S
C1545 C1540 1.397 . S
C1545 C1544 1.388 . S
C1545 C1576 1.519 . S
C1546 C1540 1.492 . S
C1546 C1547 1.363 . S
C1546 C1551 1.390 . S
C1547 H1512 0.930 . S
C1547 C1546 1.363 . S
C1547 C1548 1.372 . S
C1548 H1513 0.930 . S
C1548 C1547 1.372 . S
C1548 C1549 1.383 . S
C1549 C1548 1.383 . S
C1549 C1550 1.395 . S
C1550 H1514 0.930 . S
C1550 C1549 1.395 . S
C1550 C1551 1.362 . S
C1551 H1515 0.930 . S
C1551 C1546 1.390 . S
C1551 C1550 1.362 . S
C1552 C1541 1.492 . S
C1552 C1553 1.377 . S
C1552 C1557 1.397 . S
C1553 H1516 0.931 . S
C1553 C1552 1.377 . S
C1553 C1554 1.376 . S
C1554 H1517 0.930 . S
C1554 C1553 1.376 . S
C1554 C1555 1.376 . S
C1555 C1554 1.376 . S
C1555 C1556 1.378 . S
C1555 C1582 1.486 . S
C1556 H1518 0.930 . S
C1556 C1555 1.378 . S
C1556 C1557 1.376 . S
C1557 H1519 0.929 . S
C1557 C1552 1.397 . S
C1557 C1556 1.376 . S
C1558 C1542 1.509 . S
C1558 C1559 1.391 . S
C1558 C1563 1.386 . S
C1559 H1520 0.930 . S
C1559 C1558 1.391 . S
C1559 C1560 1.375 . S
C1560 H1521 0.931 . S
C1560 C1559 1.375 . S
C1560 C1561 1.375 . S
C1561 C1560 1.375 . S
C1561 C1562 1.361 . S
C1562 H1522 0.930 . S
C1562 C1561 1.361 . S
C1562 C1563 1.399 . S
C1563 H1523 0.929 . S
C1563 C1558 1.386 . S
C1563 C1562 1.399 . S
C1564 C1543 1.485 . S
C1564 C1565 1.394 . S
C1564 C1569 1.360 . S
C1565 H1524 0.931 . S
C1565 C1564 1.394 . S
C1565 C1566 1.372 . S
C1566 H1525 0.930 . S
C1566 C1565 1.372 . S
C1566 C1567 1.397 . S
C1567 C1566 1.397 . S
C1567 C1568 1.390 . S
C1567 C1583 1.476 . S
C1568 H1526 0.930 . S
C1568 C1567 1.390 . S
C1568 C1569 1.366 . S
C1569 H1527 0.932 . S
C1569 C1564 1.360 . S
C1569 C1568 1.366 . S
C1570 C1544 1.490 . S
C1570 C1571 1.380 . S
C1570 C1575 1.386 . S
C1571 H1528 0.930 . S
C1571 C1570 1.380 . S
C1571 C1572 1.381 . S
C1572 H1529 0.929 . S
C1572 C1571 1.381 . S
C1572 C1573 1.371 . S
C1573 C1572 1.371 . S
C1573 C1574 1.380 . S
C1574 H1530 0.931 . S
C1574 C1573 1.380 . S
C1574 C1575 1.387 . S
C1575 H1531 0.930 . S
C1575 C1570 1.386 . S
C1575 C1574 1.387 . S
C1576 C1545 1.519 . S
C1576 C1577 1.377 . S
C1576 C1581 1.361 . S
C1577 H1532 0.929 . S
C1577 C1576 1.377 . S
C1577 C1578 1.386 . S
C1578 H1533 0.931 . S
C1578 C1577 1.386 . S
C1578 C1579 1.363 . S
C1579 C1578 1.363 . S
C1579 C1580 1.385 . S
C1580 H1534 0.930 . S
C1580 C1579 1.385 . S
C1580 C1581 1.396 . S
C1581 H1535 0.929 . S
C1581 C1576 1.361 . S
C1581 C1580 1.396 . S
C1582 O1536 1.300 . S
C1582 O1537 1.209 . S
C1582 C1555 1.486 . S
C1583 O1538 1.199 . S
C1583 O1539 1.297 . S
C1583 C1567 1.476 . S
H1584 C1602 0.951 . S
H1585 C1604 0.951 . S
H1586 C1606 0.950 . S
H1587 C1607 0.950 . S
H1588 C1609 0.950 . S
H1589 C1612 0.950 . S
H1590 C1613 0.950 . S
H1591 C1615 0.981 . S
H1592 C1616 0.950 . S
H1593 C1617 0.951 1_455 S
H1594 C1619 0.951 1_455 S
H1595 C1621 0.950 . S
H1596 C1622 0.950 . S
H1597 C1624 0.950 . S
H1598 C1627 0.950 . S
H1599 C1628 0.950 . S
H1600 C1630 0.950 . S
H1601 C1631 0.950 1_455 S
C1602 H1584 0.951 . S
C1602 C1603 1.366 1_655 S
C1602 C1604 1.388 . S
C1603 C1602 1.366 1_455 S
C1603 C1607 1.385 . S
C1604 H1585 0.951 . S
C1604 C1602 1.388 . S
C1604 C1605 1.366 . S
C1605 C1604 1.366 . S
C1605 C1606 1.414 1_655 S
C1605 C1608 1.499 . S
C1606 H1586 0.950 . S
C1606 C1605 1.414 1_455 S
C1606 C1607 1.374 . S
C1607 H1587 0.950 . S
C1607 C1603 1.385 . S
C1607 C1606 1.374 . S
C1608 C1605 1.499 . S
C1608 C1609 1.373 . S
C1608 C1610 1.389 . S
C1609 H1588 0.950 . S
C1609 C1608 1.373 . S
C1609 C1625 1.377 . S
C1610 C1608 1.389 . S
C1610 C1611 1.524 1_655 S
C1610 C1624 1.377 . S
C1611 C1610 1.524 1_455 S
C1611 C1612 1.397 . S
C1611 C1616 1.363 1_455 S
C1612 H1589 0.950 . S
C1612 C1611 1.397 . S
C1612 C1613 1.334 . S
C1613 H1590 0.950 . S
C1613 C1612 1.334 . S
C1613 C1614 1.287 . S
C1614 C1613 1.287 . S
C1614 C1615 1.484 1_455 S
C1614 H1633 0.913 . S
C1615 H1591 0.981 . S
C1615 C1614 1.484 1_655 S
C1615 C1616 1.420 . S
C1616 H1592 0.950 . S
C1616 C1611 1.363 1_655 S
C1616 C1615 1.420 . S
C1617 H1593 0.951 1_655 S
C1617 C1618 1.366 . S
C1617 C1619 1.388 . S
C1618 C1617 1.366 . S
C1618 C1622 1.385 . S
C1619 H1594 0.951 1_655 S
C1619 C1617 1.388 . S
C1619 C1620 1.366 . S
C1620 C1619 1.366 . S
C1620 C1621 1.414 . S
C1620 C1623 1.499 . S
C1621 H1595 0.950 . S
C1621 C1620 1.414 . S
C1621 C1622 1.374 . S
C1622 H1596 0.950 . S
C1622 C1618 1.385 . S
C1622 C1621 1.374 . S
C1623 C1620 1.499 . S
C1623 C1624 1.373 . S
C1623 C1625 1.389 . S
C1624 H1597 0.950 . S
C1624 C1610 1.377 . S
C1624 C1623 1.373 . S
C1625 C1609 1.377 . S
C1625 C1623 1.389 . S
C1625 C1626 1.524 . S
C1626 C1625 1.524 . S
C1626 C1627 1.397 . S
C1626 C1631 1.363 . S
C1627 H1598 0.950 . S
C1627 C1626 1.397 . S
C1627 C1628 1.334 . S
C1628 H1599 0.950 . S
C1628 C1627 1.334 . S
C1628 C1629 1.287 . S
C1629 C1628 1.287 . S
C1629 C1630 1.524 . S
C1629 H1632 0.999 . S
C1630 H1600 0.950 . S
C1630 C1629 1.524 . S
C1630 C1631 1.415 . S
C1631 H1601 0.950 1_655 S
C1631 C1626 1.363 . S
C1631 C1630 1.415 . S
H1632 C1629 0.999 . S
H1633 C1614 0.913 . S
H1634 C1652 0.951 . S
H1635 C1654 0.951 . S
H1636 C1656 0.950 . S
H1637 C1657 0.950 . S
H1638 C1659 0.950 . S
H1639 C1662 0.950 . S
H1640 C1663 0.950 . S
H1641 C1665 0.950 . S
H1642 C1666 0.950 . S
H1643 C1667 0.951 . S
H1644 C1669 0.951 . S
H1645 C1671 0.950 . S
H1646 C1672 0.950 . S
H1647 C1674 0.950 . S
H1648 C1677 0.950 . S
H1649 C1678 0.950 . S
H1650 C1680 0.950 . S
H1651 C1681 0.950 . S
C1652 H1634 0.951 . S
C1652 C1653 1.366 . S
C1652 C1654 1.388 . S
C1653 C1652 1.366 . S
C1653 C1657 1.385 . S
C1654 H1635 0.951 . S
C1654 C1652 1.388 . S
C1654 C1655 1.366 . S
C1655 C1654 1.366 . S
C1655 C1656 1.414 . S
C1655 C1658 1.499 . S
C1656 H1636 0.950 . S
C1656 C1655 1.414 . S
C1656 C1657 1.374 . S
C1657 H1637 0.950 . S
C1657 C1653 1.385 . S
C1657 C1656 1.374 . S
C1658 C1655 1.499 . S
C1658 C1659 1.373 . S
C1658 C1660 1.389 . S
C1659 H1638 0.950 . S
C1659 C1658 1.373 . S
C1659 C1675 1.377 . S
C1660 C1658 1.389 . S
C1660 C1661 1.524 . S
C1660 C1674 1.377 . S
C1661 C1660 1.524 . S
C1661 C1662 1.397 . S
C1661 C1666 1.363 . S
C1662 H1639 0.950 . S
C1662 C1661 1.397 . S
C1662 C1663 1.334 . S
C1663 H1640 0.950 . S
C1663 C1662 1.334 . S
C1663 C1664 1.287 . S
C1664 C1663 1.287 . S
C1664 C1665 1.524 . S
C1664 H1683 0.913 . S
C1665 H1641 0.950 . S
C1665 C1664 1.524 . S
C1665 C1666 1.415 . S
C1666 H1642 0.950 . S
C1666 C1661 1.363 . S
C1666 C1665 1.415 . S
C1667 H1643 0.951 . S
C1667 C1668 1.366 . S
C1667 C1669 1.388 . S
C1668 C1667 1.366 . S
C1668 C1672 1.385 . S
C1669 H1644 0.951 . S
C1669 C1667 1.388 . S
C1669 C1670 1.366 . S
C1670 C1669 1.366 . S
C1670 C1671 1.414 . S
C1670 C1673 1.499 . S
C1671 H1645 0.950 . S
C1671 C1670 1.414 . S
C1671 C1672 1.374 . S
C1672 H1646 0.950 . S
C1672 C1668 1.385 . S
C1672 C1671 1.374 . S
C1673 C1670 1.499 . S
C1673 C1674 1.373 . S
C1673 C1675 1.389 . S
C1674 H1647 0.950 . S
C1674 C1660 1.377 . S
C1674 C1673 1.373 . S
C1675 C1659 1.377 . S
C1675 C1673 1.389 . S
C1675 C1676 1.524 . S
C1676 C1675 1.524 . S
C1676 C1677 1.397 . S
C1676 C1681 1.363 . S
C1677 H1648 0.950 . S
C1677 C1676 1.397 . S
C1677 C1678 1.334 . S
C1678 H1649 0.950 . S
C1678 C1677 1.334 . S
C1678 C1679 1.287 . S
C1679 C1678 1.287 . S
C1679 C1680 1.524 . S
C1679 H1682 0.999 . S
C1680 H1650 0.950 . S
C1680 C1679 1.524 . S
C1680 C1681 1.415 . S
C1681 H1651 0.950 . S
C1681 C1676 1.363 . S
C1681 C1680 1.415 . S
H1682 C1679 0.999 . S
H1683 C1664 0.913 . S
H1684 C1702 0.951 . S
H1685 C1704 0.951 . S
H1686 C1706 0.950 . S
H1687 C1707 0.950 . S
H1688 C1709 0.950 . S
H1689 C1712 0.950 . S
H1690 C1713 0.950 . S
H1691 C1715 0.950 . S
H1692 C1716 0.950 . S
H1693 C1717 0.951 . S
H1694 C1719 0.951 . S
H1695 C1721 0.950 . S
H1696 C1722 0.950 . S
H1697 C1724 1.005 . S
H1698 C1727 0.950 . S
H1699 C1728 0.950 . S
H1700 C1730 0.950 . S
H1701 C1731 0.950 . S
C1702 H1684 0.951 . S
C1702 C1703 1.366 . S
C1702 C1704 1.388 . S
C1703 C1702 1.366 . S
C1703 C1707 1.385 . S
C1704 H1685 0.951 . S
C1704 C1702 1.388 . S
C1704 C1705 1.366 . S
C1705 C1704 1.366 . S
C1705 C1706 1.414 . S
C1705 C1708 1.499 . S
C1706 H1686 0.950 . S
C1706 C1705 1.414 . S
C1706 C1707 1.374 . S
C1707 H1687 0.950 . S
C1707 C1703 1.385 . S
C1707 C1706 1.374 . S
C1708 C1705 1.499 . S
C1708 C1709 1.373 . S
C1708 C1710 1.389 1_545 S
C1709 H1688 0.950 . S
C1709 C1708 1.373 . S
C1709 C1725 1.377 . S
C1710 C1708 1.389 1_565 S
C1710 C1711 1.524 . S
C1710 C1724 1.360 . S
C1711 C1710 1.524 . S
C1711 C1712 1.397 . S
C1711 C1716 1.363 . S
C1712 H1689 0.950 . S
C1712 C1711 1.397 . S
C1712 C1713 1.334 . S
C1713 H1690 0.950 . S
C1713 C1712 1.334 . S
C1713 C1714 1.287 . S
C1714 C1713 1.287 . S
C1714 C1715 1.524 . S
C1714 H1733 0.913 . S
C1715 H1691 0.950 . S
C1715 C1714 1.524 . S
C1715 C1716 1.415 . S
C1716 H1692 0.950 . S
C1716 C1711 1.363 . S
C1716 C1715 1.415 . S
C1717 H1693 0.951 . S
C1717 C1718 1.366 . S
C1717 C1719 1.388 . S
C1718 C1717 1.366 . S
C1718 C1722 1.385 . S
C1719 H1694 0.951 . S
C1719 C1717 1.388 . S
C1719 C1720 1.366 . S
C1720 C1719 1.366 . S
C1720 C1721 1.414 . S
C1720 C1723 1.499 . S
C1721 H1695 0.950 . S
C1721 C1720 1.414 . S
C1721 C1722 1.374 . S
C1722 H1696 0.950 . S
C1722 C1718 1.385 . S
C1722 C1721 1.374 . S
C1723 C1720 1.499 . S
C1723 C1724 1.337 1_545 S
C1723 C1725 1.389 . S
C1724 H1697 1.005 . S
C1724 C1710 1.360 . S
C1724 C1723 1.337 1_565 S
C1725 C1709 1.377 . S
C1725 C1723 1.389 . S
C1725 C1726 1.524 . S
C1726 C1725 1.524 . S
C1726 C1727 1.397 . S
C1726 C1731 1.363 . S
C1727 H1698 0.950 . S
C1727 C1726 1.397 . S
C1727 C1728 1.334 . S
C1728 H1699 0.950 . S
C1728 C1727 1.334 . S
C1728 C1729 1.287 . S
C1729 C1728 1.287 . S
C1729 C1730 1.524 . S
C1729 H1732 0.999 . S
C1730 H1700 0.950 . S
C1730 C1729 1.524 . S
C1730 C1731 1.415 . S
C1731 H1701 0.950 . S
C1731 C1726 1.363 . S
C1731 C1730 1.415 . S
H1732 C1729 0.999 . S
H1733 C1714 0.913 . S
H1734 C1752 0.954 . S
H1735 C1754 0.951 . S
H1736 C1756 0.950 . S
H1737 C1757 0.950 . S
H1738 C1759 0.950 . S
H1739 C1762 0.950 . S
H1740 C1763 0.950 . S
H1741 C1765 0.950 . S
H1742 C1766 0.950 . S
H1743 C1767 0.951 . S
H1744 C1769 0.951 . S
H1745 C1771 0.950 . S
H1746 C1772 0.950 . S
H1747 C1774 0.950 . S
H1748 C1777 0.950 . S
H1749 C1778 0.950 . S
H1750 C1780 0.950 . S
H1751 C1781 0.950 . S
C1752 H1734 0.954 . S
C1752 C1753 1.366 . S
C1752 C1754 1.388 . S
C1753 C1752 1.366 . S
C1753 C1757 1.385 . S
C1754 H1735 0.951 . S
C1754 C1752 1.388 . S
C1754 C1755 1.366 . S
C1755 C1754 1.366 . S
C1755 C1756 1.414 . S
C1755 C1758 1.499 . S
C1756 H1736 0.950 . S
C1756 C1755 1.414 . S
C1756 C1757 1.374 . S
C1757 H1737 0.950 . S
C1757 C1753 1.385 . S
C1757 C1756 1.374 . S
C1758 C1755 1.499 . S
C1758 C1759 1.373 1_565 S
C1758 C1760 1.389 . S
C1759 H1738 0.950 . S
C1759 C1758 1.373 1_545 S
C1759 C1775 1.377 . S
C1760 C1758 1.389 . S
C1760 C1761 1.524 . S
C1760 C1774 1.377 . S
C1761 C1760 1.524 . S
C1761 C1762 1.397 . S
C1761 C1766 1.363 . S
C1762 H1739 0.950 . S
C1762 C1761 1.397 . S
C1762 C1763 1.334 . S
C1763 H1740 0.950 . S
C1763 C1762 1.334 . S
C1763 C1764 1.287 . S
C1764 C1763 1.287 . S
C1764 C1765 1.524 . S
C1764 H1783 0.913 . S
C1765 H1741 0.950 . S
C1765 C1764 1.524 . S
C1765 C1766 1.415 . S
C1766 H1742 0.950 . S
C1766 C1761 1.363 . S
C1766 C1765 1.415 . S
C1767 H1743 0.951 . S
C1767 C1768 1.366 . S
C1767 C1769 1.388 . S
C1768 C1767 1.366 . S
C1768 C1772 1.385 . S
C1769 H1744 0.951 . S
C1769 C1767 1.388 . S
C1769 C1770 1.366 . S
C1770 C1769 1.366 . S
C1770 C1771 1.414 . S
C1770 C1773 1.499 . S
C1771 H1745 0.950 . S
C1771 C1770 1.414 . S
C1771 C1772 1.374 . S
C1772 H1746 0.950 . S
C1772 C1768 1.385 . S
C1772 C1771 1.374 . S
C1773 C1770 1.499 . S
C1773 C1774 1.373 . S
C1773 C1775 1.389 1_565 S
C1774 H1747 0.950 . S
C1774 C1760 1.377 . S
C1774 C1773 1.373 . S
C1775 C1759 1.377 . S
C1775 C1773 1.389 1_545 S
C1775 C1776 1.524 . S
C1776 C1775 1.524 . S
C1776 C1777 1.397 . S
C1776 C1781 1.363 . S
C1777 H1748 0.950 . S
C1777 C1776 1.397 . S
C1777 C1778 1.334 . S
C1778 H1749 0.950 . S
C1778 C1777 1.334 . S
C1778 C1779 1.287 . S
C1779 C1778 1.287 . S
C1779 C1780 1.524 . S
C1779 H1782 0.999 . S
C1780 H1750 0.950 . S
C1780 C1779 1.524 . S
C1780 C1781 1.415 . S
C1781 H1751 0.950 . S
C1781 C1776 1.363 . S
C1781 C1780 1.415 . S
H1782 C1779 0.999 . S
H1783 C1764 0.913 . S
H1784 C1802 0.951 . S
H1785 C1804 0.951 . S
H1786 C1806 0.941 1_655 S
H1787 C1807 0.949 1_655 S
H1788 C1809 0.950 . S
H1789 C1812 0.950 . S
H1790 C1813 0.950 . S
H1791 C1815 0.950 . S
H1792 C1816 0.950 . S
H1793 C1817 0.895 1_655 S
H1794 C1819 0.932 1_655 S
H1795 C1821 0.950 . S
H1796 C1822 0.950 . S
H1797 C1824 0.950 . S
H1798 C1827 0.950 . S
H1799 C1828 0.950 . S
H1800 C1830 0.950 . S
H1801 C1831 0.950 . S
C1802 H1784 0.951 . S
C1802 C1803 1.366 . S
C1802 C1804 1.388 . S
C1803 C1802 1.366 . S
C1803 C1807 1.386 . S
C1804 H1785 0.951 . S
C1804 C1802 1.388 . S
C1804 C1805 1.366 . S
C1805 C1804 1.366 . S
C1805 C1806 1.420 . S
C1805 C1808 1.499 . S
C1806 H1786 0.941 1_455 S
C1806 C1805 1.420 . S
C1806 C1807 1.376 . S
C1807 H1787 0.949 1_455 S
C1807 C1803 1.386 . S
C1807 C1806 1.376 . S
C1808 C1805 1.499 . S
C1808 C1809 1.373 1_455 S
C1808 C1810 1.389 . S
C1809 H1788 0.950 . S
C1809 C1808 1.373 1_655 S
C1809 C1825 1.377 . S
C1810 C1808 1.389 . S
C1810 C1811 1.524 . S
C1810 C1824 1.377 . S
C1811 C1810 1.524 . S
C1811 C1812 1.397 . S
C1811 C1816 1.363 . S
C1812 H1789 0.950 . S
C1812 C1811 1.397 . S
C1812 C1813 1.334 . S
C1813 H1790 0.950 . S
C1813 C1812 1.334 . S
C1813 C1814 1.287 . S
C1814 C1813 1.287 . S
C1814 C1815 1.524 . S
C1814 H1833 0.913 . S
C1815 H1791 0.950 . S
C1815 C1814 1.524 . S
C1815 C1816 1.415 . S
C1816 H1792 0.950 . S
C1816 C1811 1.363 . S
C1816 C1815 1.415 . S
C1817 H1793 0.895 1_455 S
C1817 C1818 1.403 . S
C1817 C1819 1.397 . S
C1818 C1817 1.403 . S
C1818 C1822 1.385 . S
C1819 H1794 0.932 1_455 S
C1819 C1817 1.397 . S
C1819 C1820 1.394 . S
C1820 C1819 1.394 . S
C1820 C1821 1.414 . S
C1820 C1823 1.499 . S
C1821 H1795 0.950 . S
C1821 C1820 1.414 . S
C1821 C1822 1.374 . S
C1822 H1796 0.950 . S
C1822 C1818 1.385 . S
C1822 C1821 1.374 . S
C1823 C1820 1.499 . S
C1823 C1824 1.373 . S
C1823 C1825 1.389 1_455 S
C1824 H1797 0.950 . S
C1824 C1810 1.377 . S
C1824 C1823 1.373 . S
C1825 C1809 1.377 . S
C1825 C1823 1.389 1_655 S
C1825 C1826 1.524 . S
C1826 C1825 1.524 . S
C1826 C1827 1.397 . S
C1826 C1831 1.363 . S
C1827 H1798 0.950 . S
C1827 C1826 1.397 . S
C1827 C1828 1.334 . S
C1828 H1799 0.950 . S
C1828 C1827 1.334 . S
C1828 C1829 1.287 . S
C1829 C1828 1.287 . S
C1829 C1830 1.524 . S
C1829 H1832 0.999 . S
C1830 H1800 0.950 . S
C1830 C1829 1.524 . S
C1830 C1831 1.415 . S
C1831 H1801 0.950 . S
C1831 C1826 1.363 . S
C1831 C1830 1.415 . S
H1832 C1829 0.999 . S
H1833 C1814 0.913 . S
H1834 C1852 0.951 . S
H1835 C1854 0.951 . S
H1836 C1856 0.950 . S
H1837 C1857 0.950 . S
H1838 C1859 0.950 . S
H1839 C1862 0.950 . S
H1840 C1863 0.950 . S
H1841 C1865 0.950 . S
H1842 C1866 0.950 . S
H1843 C1867 0.951 . S
H1844 C1869 0.951 . S
H1845 C1871 0.950 . S
H1846 C1872 0.950 . S
H1847 C1874 0.950 . S
H1848 C1877 0.950 . S
H1849 C1878 0.950 . S
H1850 C1880 0.950 . S
H1851 C1881 0.950 . S
C1852 H1834 0.951 . S
C1852 C1853 1.366 . S
C1852 C1854 1.388 . S
C1853 C1852 1.366 . S
C1853 C1857 1.385 . S
C1854 H1835 0.951 . S
C1854 C1852 1.388 . S
C1854 C1855 1.366 1_554 S
C1855 C1854 1.366 1_556 S
C1855 C1856 1.414 . S
C1855 C1858 1.499 . S
C1856 H1836 0.950 . S
C1856 C1855 1.414 . S
C1856 C1857 1.374 1_556 S
C1857 H1837 0.950 . S
C1857 C1853 1.385 . S
C1857 C1856 1.374 1_554 S
C1858 C1855 1.499 . S
C1858 C1859 1.373 . S
C1858 C1860 1.389 . S
C1859 H1838 0.950 . S
C1859 C1858 1.373 . S
C1859 C1875 1.377 . S
C1860 C1858 1.389 . S
C1860 C1861 1.524 . S
C1860 C1874 1.377 . S
C1861 C1860 1.524 . S
C1861 C1862 1.397 . S
C1861 C1866 1.363 . S
C1862 H1839 0.950 . S
C1862 C1861 1.397 . S
C1862 C1863 1.334 1_556 S
C1863 H1840 0.950 . S
C1863 C1862 1.334 1_554 S
C1863 C1864 1.287 . S
C1864 C1863 1.287 . S
C1864 C1865 1.524 . S
C1864 H1883 0.913 . S
C1865 H1841 0.950 . S
C1865 C1864 1.524 . S
C1865 C1866 1.415 1_554 S
C1866 H1842 0.950 . S
C1866 C1861 1.363 . S
C1866 C1865 1.415 1_556 S
C1867 H1843 0.951 . S
C1867 C1868 1.366 . S
C1867 C1869 1.388 . S
C1868 C1867 1.366 . S
C1868 C1872 1.385 . S
C1869 H1844 0.951 . S
C1869 C1867 1.388 . S
C1869 C1870 1.366 . S
C1870 C1869 1.366 . S
C1870 C1871 1.414 . S
C1870 C1873 1.499 . S
C1871 H1845 0.950 . S
C1871 C1870 1.414 . S
C1871 C1872 1.374 . S
C1872 H1846 0.950 . S
C1872 C1868 1.385 . S
C1872 C1871 1.374 . S
C1873 C1870 1.499 . S
C1873 C1874 1.373 . S
C1873 C1875 1.389 . S
C1874 H1847 0.950 . S
C1874 C1860 1.377 . S
C1874 C1873 1.373 . S
C1875 C1859 1.377 . S
C1875 C1873 1.389 . S
C1875 C1876 1.524 . S
C1876 C1875 1.524 . S
C1876 C1877 1.397 . S
C1876 C1881 1.363 . S
C1877 H1848 0.950 . S
C1877 C1876 1.397 . S
C1877 C1878 1.334 . S
C1878 H1849 0.950 . S
C1878 C1877 1.334 . S
C1878 C1879 1.287 . S
C1879 C1878 1.287 . S
C1879 C1880 1.524 . S
C1879 H1882 0.999 . S
C1880 H1850 0.950 . S
C1880 C1879 1.524 . S
C1880 C1881 1.415 . S
C1881 H1851 0.950 . S
C1881 C1876 1.363 . S
C1881 C1880 1.415 . S
H1882 C1879 0.999 . S
H1883 C1864 0.913 . S
H1884 C1902 0.951 . S
H1885 C1904 0.951 . S
H1886 C1906 0.950 . S
H1887 C1907 0.950 . S
H1888 C1909 0.953 . S
H1889 C1912 0.950 . S
H1890 C1913 0.950 . S
H1891 C1915 0.950 . S
H1892 C1916 0.950 . S
H1893 C1917 0.951 . S
H1894 C1919 0.951 . S
H1895 C1921 0.950 . S
H1896 C1922 0.950 . S
H1897 C1924 0.950 . S
H1898 C1927 0.950 . S
H1899 C1928 0.950 . S
H1900 C1930 0.950 . S
H1901 C1931 0.950 . S
C1902 H1884 0.951 . S
C1902 C1903 1.366 1_556 S
C1902 C1904 1.388 . S
C1903 C1902 1.366 1_554 S
C1903 C1907 1.385 1_455 S
C1904 H1885 0.951 . S
C1904 C1902 1.388 . S
C1904 C1905 1.366 . S
C1905 C1904 1.366 . S
C1905 C1906 1.414 1_455 S
C1905 C1908 1.499 . S
C1906 H1886 0.950 . S
C1906 C1905 1.414 1_655 S
C1906 C1907 1.374 1_556 S
C1907 H1887 0.950 . S
C1907 C1903 1.385 1_655 S
C1907 C1906 1.374 1_554 S
C1908 C1905 1.499 . S
C1908 C1909 1.373 . S
C1908 C1910 1.389 . S
C1909 H1888 0.953 . S
C1909 C1908 1.373 . S
C1909 C1925 1.377 . S
C1910 C1908 1.389 . S
C1910 C1911 1.524 . S
C1910 C1924 1.377 . S
C1911 C1910 1.524 . S
C1911 C1912 1.397 1_455 S
C1911 C1916 1.363 . S
C1912 H1889 0.950 . S
C1912 C1911 1.397 1_655 S
C1912 C1913 1.334 . S
C1913 H1890 0.950 . S
C1913 C1912 1.334 . S
C1913 C1914 1.282 1_655 S
C1914 C1913 1.282 1_455 S
C1914 C1915 1.534 . S
C1914 H1933 0.892 1_455 S
C1915 H1891 0.950 . S
C1915 C1914 1.534 . S
C1915 C1916 1.415 . S
C1916 H1892 0.950 . S
C1916 C1911 1.363 . S
C1916 C1915 1.415 . S
C1917 H1893 0.951 . S
C1917 C1918 1.340 1_655 S
C1917 C1919 1.388 . S
C1918 C1917 1.340 1_455 S
C1918 C1922 1.397 . S
C1919 H1894 0.951 . S
C1919 C1917 1.388 . S
C1919 C1920 1.366 1_655 S
C1920 C1919 1.366 1_455 S
C1920 C1921 1.414 . S
C1920 C1923 1.499 . S
C1921 H1895 0.950 . S
C1921 C1920 1.414 . S
C1921 C1922 1.374 . S
C1922 H1896 0.950 . S
C1922 C1918 1.397 . S
C1922 C1921 1.374 . S
C1923 C1920 1.499 . S
C1923 C1924 1.373 . S
C1923 C1925 1.389 . S
C1924 H1897 0.950 . S
C1924 C1910 1.377 . S
C1924 C1923 1.373 . S
C1925 C1909 1.377 . S
C1925 C1923 1.389 . S
C1925 C1926 1.524 . S
C1926 C1925 1.524 . S
C1926 C1927 1.397 . S
C1926 C1931 1.363 1_455 S
C1927 H1898 0.950 . S
C1927 C1926 1.397 . S
C1927 C1928 1.334 . S
C1928 H1899 0.950 . S
C1928 C1927 1.334 . S
C1928 C1929 1.287 . S
C1929 C1928 1.287 . S
C1929 C1930 1.524 1_455 S
C1929 H1932 0.999 . S
C1930 H1900 0.950 . S
C1930 C1929 1.524 1_655 S
C1930 C1931 1.415 . S
C1931 H1901 0.950 . S
C1931 C1926 1.363 1_655 S
C1931 C1930 1.415 . S
H1932 C1929 0.999 . S
H1933 C1914 0.892 1_655 S
H1934 C1952 0.951 . S
H1935 C1954 0.951 . S
H1936 C1956 0.950 . S
H1937 C1957 0.950 . S
H1938 C1959 0.950 . S
H1939 C1962 0.950 . S
H1940 C1963 0.950 . S
H1941 C1965 0.950 . S
H1942 C1966 0.950 . S
H1943 C1967 0.951 . S
H1944 C1969 0.951 . S
H1945 C1971 0.950 . S
H1946 C1972 0.950 . S
H1947 C1974 0.950 . S
H1948 C1977 0.950 . S
H1949 C1978 0.950 . S
H1950 C1980 0.950 . S
H1951 C1981 0.950 . S
C1952 H1934 0.951 . S
C1952 C1953 1.366 . S
C1952 C1954 1.388 . S
C1953 C1952 1.366 . S
C1953 C1957 1.385 . S
C1954 H1935 0.951 . S
C1954 C1952 1.388 . S
C1954 C1955 1.366 . S
C1955 C1954 1.366 . S
C1955 C1956 1.414 . S
C1955 C1958 1.499 . S
C1956 H1936 0.950 . S
C1956 C1955 1.414 . S
C1956 C1957 1.374 . S
C1957 H1937 0.950 . S
C1957 C1953 1.385 . S
C1957 C1956 1.374 . S
C1958 C1955 1.499 . S
C1958 C1959 1.373 . S
C1958 C1960 1.389 . S
C1959 H1938 0.950 . S
C1959 C1958 1.373 . S
C1959 C1975 1.377 . S
C1960 C1958 1.389 . S
C1960 C1961 1.524 . S
C1960 C1974 1.377 . S
C1961 C1960 1.524 . S
C1961 C1962 1.397 . S
C1961 C1966 1.363 . S
C1962 H1939 0.950 . S
C1962 C1961 1.397 . S
C1962 C1963 1.334 . S
C1963 H1940 0.950 . S
C1963 C1962 1.334 . S
C1963 C1964 1.287 . S
C1964 C1963 1.287 . S
C1964 C1965 1.524 . S
C1964 H1983 0.913 . S
C1965 H1941 0.950 . S
C1965 C1964 1.524 . S
C1965 C1966 1.415 . S
C1966 H1942 0.950 . S
C1966 C1961 1.363 . S
C1966 C1965 1.415 . S
C1967 H1943 0.951 . S
C1967 C1968 1.366 . S
C1967 C1969 1.388 . S
C1968 C1967 1.366 . S
C1968 C1972 1.385 . S
C1969 H1944 0.951 . S
C1969 C1967 1.388 . S
C1969 C1970 1.366 . S
C1970 C1969 1.366 . S
C1970 C1971 1.414 . S
C1970 C1973 1.499 . S
C1971 H1945 0.950 . S
C1971 C1970 1.414 . S
C1971 C1972 1.374 . S
C1972 H1946 0.950 . S
C1972 C1968 1.385 . S
C1972 C1971 1.374 . S
C1973 C1970 1.499 . S
C1973 C1974 1.373 . S
C1973 C1975 1.389 . S
C1974 H1947 0.950 . S
C1974 C1960 1.377 . S
C1974 C1973 1.373 . S
C1975 C1959 1.377 . S
C1975 C1973 1.389 . S
C1975 C1976 1.524 . S
C1976 C1975 1.524 . S
C1976 C1977 1.397 . S
C1976 C1981 1.363 . S
C1977 H1948 0.950 . S
C1977 C1976 1.397 . S
C1977 C1978 1.334 . S
C1978 H1949 0.950 . S
C1978 C1977 1.334 . S
C1978 C1979 1.287 . S
C1979 C1978 1.287 . S
C1979 C1980 1.524 . S
C1979 H1982 0.999 . S
C1980 H1950 0.950 . S
C1980 C1979 1.524 . S
C1980 C1981 1.415 . S
C1981 H1951 0.950 . S
C1981 C1976 1.363 . S
C1981 C1980 1.415 . S
H1982 C1979 0.999 . S
H1983 C1964 0.913 . S
H1984 C2002 0.951 . S
H1985 C2004 0.951 . S
H1986 C2006 0.950 . S
H1987 C2007 0.950 . S
H1988 C2009 0.950 . S
H1989 C2012 0.950 . S
H1990 C2013 0.950 . S
H1991 C2015 0.950 . S
H1992 C2016 0.950 . S
H1993 C2017 0.936 . S
H1994 C2019 0.945 . S
H1995 C2021 0.951 . S
H1996 C2022 0.955 . S
H1997 C2024 0.950 . S
H1998 C2027 0.950 . S
H1999 C2028 0.950 . S
H2000 C2030 0.950 . S
H2001 C2031 0.950 . S
C2002 H1984 0.951 . S
C2002 C2003 1.366 1_556 S
C2002 C2004 1.388 . S
C2003 C2002 1.366 1_554 S
C2003 C2007 1.385 . S
C2004 H1985 0.951 . S
C2004 C2002 1.388 . S
C2004 C2005 1.366 . S
C2005 C2004 1.366 . S
C2005 C2006 1.414 . S
C2005 C2008 1.499 . S
C2006 H1986 0.950 . S
C2006 C2005 1.414 . S
C2006 C2007 1.374 1_556 S
C2007 H1987 0.950 . S
C2007 C2003 1.385 . S
C2007 C2006 1.374 1_554 S
C2008 C2005 1.499 . S
C2008 C2009 1.373 . S
C2008 C2010 1.389 1_565 S
C2009 H1988 0.950 . S
C2009 C2008 1.373 . S
C2009 C2025 1.377 . S
C2010 C2008 1.389 1_545 S
C2010 C2011 1.524 . S
C2010 C2024 1.377 . S
C2011 C2010 1.524 . S
C2011 C2012 1.397 . S
C2011 C2016 1.363 . S
C2012 H1989 0.950 . S
C2012 C2011 1.397 . S
C2012 C2013 1.334 . S
C2013 H1990 0.950 . S
C2013 C2012 1.334 . S
C2013 C2014 1.287 . S
C2014 C2013 1.287 . S
C2014 C2015 1.524 . S
C2014 H2033 0.913 . S
C2015 H1991 0.950 . S
C2015 C2014 1.524 . S
C2015 C2016 1.415 . S
C2016 H1992 0.950 . S
C2016 C2011 1.363 . S
C2016 C2015 1.415 . S
C2017 H1993 0.936 . S
C2017 C2018 1.374 . S
C2017 C2019 1.352 1_545 S
C2018 C2017 1.374 . S
C2018 C2022 1.365 . S
C2019 H1994 0.945 . S
C2019 C2017 1.352 1_565 S
C2019 C2020 1.415 . S
C2020 C2019 1.415 . S
C2020 C2021 1.411 . S
C2020 C2023 1.499 . S
C2021 H1995 0.951 . S
C2021 C2020 1.411 . S
C2021 C2022 1.344 1_565 S
C2022 H1996 0.955 . S
C2022 C2018 1.365 . S
C2022 C2021 1.344 1_545 S
C2023 C2020 1.499 . S
C2023 C2024 1.373 1_565 S
C2023 C2025 1.389 . S
C2024 H1997 0.950 . S
C2024 C2010 1.377 . S
C2024 C2023 1.373 1_545 S
C2025 C2009 1.377 . S
C2025 C2023 1.389 . S
C2025 C2026 1.524 . S
C2026 C2025 1.524 . S
C2026 C2027 1.397 . S
C2026 C2031 1.363 . S
C2027 H1998 0.950 . S
C2027 C2026 1.397 . S
C2027 C2028 1.334 . S
C2028 H1999 0.950 . S
C2028 C2027 1.334 . S
C2028 C2029 1.287 . S
C2029 C2028 1.287 . S
C2029 C2030 1.524 . S
C2029 H2032 0.999 . S
C2030 H2000 0.950 . S
C2030 C2029 1.524 . S
C2030 C2031 1.415 . S
C2031 H2001 0.950 . S
C2031 C2026 1.363 . S
C2031 C2030 1.415 . S
H2032 C2029 0.999 . S
H2033 C2014 0.913 . S
H2034 C2052 0.951 . S
H2035 C2054 0.951 . S
H2036 C2056 0.950 . S
H2037 C2057 0.953 . S
H2038 C2059 0.950 . S
H2039 C2062 0.950 . S
H2040 C2063 0.950 . S
H2041 C2065 0.950 . S
H2042 C2066 0.950 1_545 S
H2043 C2067 0.951 . S
H2044 C2069 0.951 . S
H2045 C2071 0.950 . S
H2046 C2072 0.950 . S
H2047 C2074 0.950 . S
H2048 C2077 0.950 . S
H2049 C2078 0.950 . S
H2050 C2080 0.950 . S
H2051 C2081 0.950 . S
C2052 H2034 0.951 . S
C2052 C2053 1.366 . S
C2052 C2054 1.388 . S
C2053 C2052 1.366 . S
C2053 C2057 1.387 1_545 S
C2054 H2035 0.951 . S
C2054 C2052 1.388 . S
C2054 C2055 1.366 . S
C2055 C2054 1.366 . S
C2055 C2056 1.414 1_545 S
C2055 C2058 1.499 . S
C2056 H2036 0.950 . S
C2056 C2055 1.414 1_565 S
C2056 C2057 1.369 . S
C2057 H2037 0.953 . S
C2057 C2053 1.387 1_565 S
C2057 C2056 1.369 . S
C2058 C2055 1.499 . S
C2058 C2059 1.373 . S
C2058 C2060 1.389 1_545 S
C2059 H2038 0.950 . S
C2059 C2058 1.373 . S
C2059 C2075 1.377 . S
C2060 C2058 1.389 1_565 S
C2060 C2061 1.524 . S
C2060 C2074 1.377 . S
C2061 C2060 1.524 . S
C2061 C2062 1.397 . S
C2061 C2066 1.363 . S
C2062 H2039 0.950 . S
C2062 C2061 1.397 . S
C2062 C2063 1.334 . S
C2063 H2040 0.950 . S
C2063 C2062 1.334 . S
C2063 C2064 1.287 . S
C2064 C2063 1.287 . S
C2064 C2065 1.524 . S
C2064 H2083 0.913 . S
C2065 H2041 0.950 . S
C2065 C2064 1.524 . S
C2065 C2066 1.415 . S
C2066 H2042 0.950 1_565 S
C2066 C2061 1.363 . S
C2066 C2065 1.415 . S
C2067 H2043 0.951 . S
C2067 C2068 1.375 . S
C2067 C2069 1.388 . S
C2068 C2067 1.375 . S
C2068 C2072 1.392 1_565 S
C2069 H2044 0.951 . S
C2069 C2067 1.388 . S
C2069 C2070 1.366 1_565 S
C2070 C2069 1.366 1_545 S
C2070 C2071 1.414 . S
C2070 C2073 1.499 . S
C2071 H2045 0.950 . S
C2071 C2070 1.414 . S
C2071 C2072 1.374 . S
C2072 H2046 0.950 . S
C2072 C2068 1.392 1_545 S
C2072 C2071 1.374 . S
C2073 C2070 1.499 . S
C2073 C2074 1.373 1_545 S
C2073 C2075 1.389 . S
C2074 H2047 0.950 . S
C2074 C2060 1.377 . S
C2074 C2073 1.373 1_565 S
C2075 C2059 1.377 . S
C2075 C2073 1.389 . S
C2075 C2076 1.524 . S
C2076 C2075 1.524 . S
C2076 C2077 1.397 . S
C2076 C2081 1.363 . S
C2077 H2048 0.950 . S
C2077 C2076 1.397 . S
C2077 C2078 1.334 . S
C2078 H2049 0.950 . S
C2078 C2077 1.334 . S
C2078 C2079 1.287 . S
C2079 C2078 1.287 . S
C2079 C2080 1.524 . S
C2079 H2082 0.999 . S
C2080 H2050 0.950 . S
C2080 C2079 1.524 . S
C2080 C2081 1.415 . S
C2081 H2051 0.950 . S
C2081 C2076 1.363 . S
C2081 C2080 1.415 . S
H2082 C2079 0.999 . S
H2083 C2064 0.913 . S
H2084 C2102 0.951 . S
H2085 C2104 0.951 . S
H2086 C2106 0.950 . S
H2087 C2107 0.950 . S
H2088 C2109 0.950 . S
H2089 C2112 0.950 1_655 S
H2090 C2113 0.950 . S
H2091 C2115 0.950 . S
H2092 C2116 0.950 . S
H2093 C2117 0.951 . S
H2094 C2119 0.951 . S
H2095 C2121 0.950 . S
H2096 C2122 0.950 . S
H2097 C2124 0.950 . S
H2098 C2127 0.950 1_455 S
H2099 C2128 0.950 . S
H2100 C2130 0.950 . S
H2101 C2131 0.950 . S
C2102 H2084 0.951 . S
C2102 C2103 1.366 1_455 S
C2102 C2104 1.388 . S
C2103 C2102 1.366 1_655 S
C2103 C2107 1.385 . S
C2104 H2085 0.951 . S
C2104 C2102 1.388 . S
C2104 C2105 1.366 1_455 S
C2105 C2104 1.366 1_655 S
C2105 C2106 1.414 . S
C2105 C2108 1.499 . S
C2106 H2086 0.950 . S
C2106 C2105 1.414 . S
C2106 C2107 1.374 . S
C2107 H2087 0.950 . S
C2107 C2103 1.385 . S
C2107 C2106 1.374 . S
C2108 C2105 1.499 . S
C2108 C2109 1.373 . S
C2108 C2110 1.389 1_655 S
C2109 H2088 0.950 . S
C2109 C2108 1.373 . S
C2109 C2125 1.377 . S
C2110 C2108 1.389 1_455 S
C2110 C2111 1.524 . S
C2110 C2124 1.377 . S
C2111 C2110 1.524 . S
C2111 C2112 1.397 . S
C2111 C2116 1.363 . S
C2112 H2089 0.950 1_455 S
C2112 C2111 1.397 . S
C2112 C2113 1.334 . S
C2113 H2090 0.950 . S
C2113 C2112 1.334 . S
C2113 C2114 1.287 . S
C2114 C2113 1.287 . S
C2114 C2115 1.524 . S
C2114 H2133 0.913 . S
C2115 H2091 0.950 . S
C2115 C2114 1.524 . S
C2115 C2116 1.415 . S
C2116 H2092 0.950 . S
C2116 C2111 1.363 . S
C2116 C2115 1.415 . S
C2117 H2093 0.951 . S
C2117 C2118 1.375 . S
C2117 C2119 1.388 . S
C2118 C2117 1.375 . S
C2118 C2122 1.379 1_655 S
C2119 H2094 0.951 . S
C2119 C2117 1.388 . S
C2119 C2120 1.399 . S
C2120 C2119 1.399 . S
C2120 C2121 1.362 1_655 S
C2120 C2123 1.504 . S
C2121 H2095 0.950 . S
C2121 C2120 1.362 1_455 S
C2121 C2122 1.374 . S
C2122 H2096 0.950 . S
C2122 C2118 1.379 1_455 S
C2122 C2121 1.374 . S
C2123 C2120 1.504 . S
C2123 C2124 1.353 1_655 S
C2123 C2125 1.424 . S
C2124 H2097 0.950 . S
C2124 C2110 1.377 . S
C2124 C2123 1.353 1_455 S
C2125 C2109 1.377 . S
C2125 C2123 1.424 . S
C2125 C2126 1.524 . S
C2126 C2125 1.524 . S
C2126 C2127 1.397 . S
C2126 C2131 1.363 . S
C2127 H2098 0.950 1_655 S
C2127 C2126 1.397 . S
C2127 C2128 1.334 . S
C2128 H2099 0.950 . S
C2128 C2127 1.334 . S
C2128 C2129 1.287 . S
C2129 C2128 1.287 . S
C2129 C2130 1.524 . S
C2129 H2132 0.999 . S
C2130 H2100 0.950 . S
C2130 C2129 1.524 . S
C2130 C2131 1.415 . S
C2131 H2101 0.950 . S
C2131 C2126 1.363 . S
C2131 C2130 1.415 . S
H2132 C2129 0.999 . S
H2133 C2114 0.913 . S
H2134 C2152 0.951 . S
H2135 C2154 0.951 . S
H2136 C2156 0.950 . S
H2137 C2157 0.950 . S
H2138 C2159 0.950 . S
H2139 C2162 0.950 . S
H2140 C2163 0.950 . S
H2141 C2165 0.950 . S
H2142 C2166 0.950 . S
H2143 C2167 0.951 . S
H2144 C2169 0.951 . S
H2145 C2171 0.950 . S
H2146 C2172 0.950 . S
H2147 C2174 0.950 . S
H2148 C2177 0.950 . S
H2149 C2178 0.950 . S
H2150 C2180 0.950 . S
H2151 C2181 0.950 . S
C2152 H2134 0.951 . S
C2152 C2153 1.366 . S
C2152 C2154 1.388 . S
C2153 C2152 1.366 . S
C2153 C2157 1.385 . S
C2154 H2135 0.951 . S
C2154 C2152 1.388 . S
C2154 C2155 1.366 . S
C2155 C2154 1.366 . S
C2155 C2156 1.414 . S
C2155 C2158 1.499 . S
C2156 H2136 0.950 . S
C2156 C2155 1.414 . S
C2156 C2157 1.374 . S
C2157 H2137 0.950 . S
C2157 C2153 1.385 . S
C2157 C2156 1.374 . S
C2158 C2155 1.499 . S
C2158 C2159 1.373 . S
C2158 C2160 1.389 . S
C2159 H2138 0.950 . S
C2159 C2158 1.373 . S
C2159 C2175 1.377 . S
C2160 C2158 1.389 . S
C2160 C2161 1.524 . S
C2160 C2174 1.377 . S
C2161 C2160 1.524 . S
C2161 C2162 1.397 . S
C2161 C2166 1.363 . S
C2162 H2139 0.950 . S
C2162 C2161 1.397 . S
C2162 C2163 1.334 . S
C2163 H2140 0.950 . S
C2163 C2162 1.334 . S
C2163 C2164 1.287 . S
C2164 C2163 1.287 . S
C2164 C2165 1.524 . S
C2164 H2183 0.913 . S
C2165 H2141 0.950 . S
C2165 C2164 1.524 . S
C2165 C2166 1.415 . S
C2166 H2142 0.950 . S
C2166 C2161 1.363 . S
C2166 C2165 1.415 . S
C2167 H2143 0.951 . S
C2167 C2168 1.366 . S
C2167 C2169 1.388 . S
C2168 C2167 1.366 . S
C2168 C2172 1.385 . S
C2169 H2144 0.951 . S
C2169 C2167 1.388 . S
C2169 C2170 1.366 . S
C2170 C2169 1.366 . S
C2170 C2171 1.414 . S
C2170 C2173 1.499 . S
C2171 H2145 0.950 . S
C2171 C2170 1.414 . S
C2171 C2172 1.374 . S
C2172 H2146 0.950 . S
C2172 C2168 1.385 . S
C2172 C2171 1.374 . S
C2173 C2170 1.499 . S
C2173 C2174 1.373 . S
C2173 C2175 1.389 . S
C2174 H2147 0.950 . S
C2174 C2160 1.377 . S
C2174 C2173 1.373 . S
C2175 C2159 1.377 . S
C2175 C2173 1.389 . S
C2175 C2176 1.524 . S
C2176 C2175 1.524 . S
C2176 C2177 1.397 . S
C2176 C2181 1.363 . S
C2177 H2148 0.950 . S
C2177 C2176 1.397 . S
C2177 C2178 1.334 . S
C2178 H2149 0.950 . S
C2178 C2177 1.334 . S
C2178 C2179 1.287 . S
C2179 C2178 1.287 . S
C2179 C2180 1.524 . S
C2179 H2182 0.999 . S
C2180 H2150 0.950 . S
C2180 C2179 1.524 . S
C2180 C2181 1.415 . S
C2181 H2151 0.950 . S
C2181 C2176 1.363 . S
C2181 C2180 1.415 . S
H2182 C2179 0.999 . S
H2183 C2164 0.913 . S
H2184 C2202 0.951 . S
H2185 C2204 0.951 . S
H2186 C2206 0.950 . S
H2187 C2207 0.950 . S
H2188 C2209 0.950 . S
H2189 C2212 0.950 . S
H2190 C2213 0.950 . S
H2191 C2215 0.950 . S
H2192 C2216 0.950 . S
H2193 C2217 0.951 . S
H2194 C2219 0.951 . S
H2195 C2221 0.950 . S
H2196 C2222 0.950 . S
H2197 C2224 0.950 . S
H2198 C2227 0.950 . S
H2199 C2228 0.950 . S
H2200 C2230 0.950 . S
H2201 C2231 0.950 . S
C2202 H2184 0.951 . S
C2202 C2203 1.366 . S
C2202 C2204 1.388 . S
C2203 C2202 1.366 . S
C2203 C2207 1.385 . S
C2204 H2185 0.951 . S
C2204 C2202 1.388 . S
C2204 C2205 1.366 . S
C2205 C2204 1.366 . S
C2205 C2206 1.414 . S
C2205 C2208 1.499 . S
C2206 H2186 0.950 . S
C2206 C2205 1.414 . S
C2206 C2207 1.374 . S
C2207 H2187 0.950 . S
C2207 C2203 1.385 . S
C2207 C2206 1.374 . S
C2208 C2205 1.499 . S
C2208 C2209 1.373 . S
C2208 C2210 1.389 . S
C2209 H2188 0.950 . S
C2209 C2208 1.373 . S
C2209 C2225 1.377 . S
C2210 C2208 1.389 . S
C2210 C2211 1.524 . S
C2210 C2224 1.377 . S
C2211 C2210 1.524 . S
C2211 C2212 1.397 . S
C2211 C2216 1.363 . S
C2212 H2189 0.950 . S
C2212 C2211 1.397 . S
C2212 C2213 1.334 . S
C2213 H2190 0.950 . S
C2213 C2212 1.334 . S
C2213 C2214 1.287 . S
C2214 C2213 1.287 . S
C2214 C2215 1.524 . S
C2214 H2233 0.913 . S
C2215 H2191 0.950 . S
C2215 C2214 1.524 . S
C2215 C2216 1.415 . S
C2216 H2192 0.950 . S
C2216 C2211 1.363 . S
C2216 C2215 1.415 . S
C2217 H2193 0.951 . S
C2217 C2218 1.366 . S
C2217 C2219 1.388 . S
C2218 C2217 1.366 . S
C2218 C2222 1.385 . S
C2219 H2194 0.951 . S
C2219 C2217 1.388 . S
C2219 C2220 1.366 . S
C2220 C2219 1.366 . S
C2220 C2221 1.414 . S
C2220 C2223 1.499 . S
C2221 H2195 0.950 . S
C2221 C2220 1.414 . S
C2221 C2222 1.374 . S
C2222 H2196 0.950 . S
C2222 C2218 1.385 . S
C2222 C2221 1.374 . S
C2223 C2220 1.499 . S
C2223 C2224 1.373 . S
C2223 C2225 1.389 . S
C2224 H2197 0.950 . S
C2224 C2210 1.377 . S
C2224 C2223 1.373 . S
C2225 C2209 1.377 . S
C2225 C2223 1.389 . S
C2225 C2226 1.524 . S
C2226 C2225 1.524 . S
C2226 C2227 1.397 . S
C2226 C2231 1.363 . S
C2227 H2198 0.950 . S
C2227 C2226 1.397 . S
C2227 C2228 1.334 . S
C2228 H2199 0.950 . S
C2228 C2227 1.334 . S
C2228 C2229 1.287 . S
C2229 C2228 1.287 . S
C2229 C2230 1.524 . S
C2229 H2232 0.999 . S
C2230 H2200 0.950 . S
C2230 C2229 1.524 . S
C2230 C2231 1.415 . S
C2231 H2201 0.950 . S
C2231 C2226 1.363 . S
C2231 C2230 1.415 . S
H2232 C2229 0.999 . S
H2233 C2214 0.913 . S
H2234 C2252 0.951 . S
H2235 C2254 0.951 . S
H2236 C2256 0.950 . S
H2237 C2257 0.950 . S
H2238 C2259 0.950 . S
H2239 C2262 0.950 . S
H2240 C2263 0.950 . S
H2241 C2265 0.950 . S
H2242 C2266 0.950 . S
H2243 C2267 0.951 . S
H2244 C2269 0.951 . S
H2245 C2271 0.950 . S
H2246 C2272 0.950 . S
H2247 C2274 0.950 . S
H2248 C2277 0.950 . S
H2249 C2278 0.950 . S
H2250 C2280 0.950 . S
H2251 C2281 0.950 . S
C2252 H2234 0.951 . S
C2252 C2253 1.366 . S
C2252 C2254 1.388 . S
C2253 C2252 1.366 . S
C2253 C2257 1.385 . S
C2254 H2235 0.951 . S
C2254 C2252 1.388 . S
C2254 C2255 1.366 . S
C2255 C2254 1.366 . S
C2255 C2256 1.414 . S
C2255 C2258 1.499 . S
C2256 H2236 0.950 . S
C2256 C2255 1.414 . S
C2256 C2257 1.374 . S
C2257 H2237 0.950 . S
C2257 C2253 1.385 . S
C2257 C2256 1.374 . S
C2258 C2255 1.499 . S
C2258 C2259 1.373 . S
C2258 C2260 1.389 . S
C2259 H2238 0.950 . S
C2259 C2258 1.373 . S
C2259 C2275 1.377 . S
C2260 C2258 1.389 . S
C2260 C2261 1.524 . S
C2260 C2274 1.377 . S
C2261 C2260 1.524 . S
C2261 C2262 1.397 . S
C2261 C2266 1.363 . S
C2262 H2239 0.950 . S
C2262 C2261 1.397 . S
C2262 C2263 1.334 . S
C2263 H2240 0.950 . S
C2263 C2262 1.334 . S
C2263 C2264 1.287 . S
C2264 C2263 1.287 . S
C2264 C2265 1.524 . S
C2264 H2283 0.913 . S
C2265 H2241 0.950 . S
C2265 C2264 1.524 . S
C2265 C2266 1.415 . S
C2266 H2242 0.950 . S
C2266 C2261 1.363 . S
C2266 C2265 1.415 . S
C2267 H2243 0.951 . S
C2267 C2268 1.366 . S
C2267 C2269 1.388 . S
C2268 C2267 1.366 . S
C2268 C2272 1.385 . S
C2269 H2244 0.951 . S
C2269 C2267 1.388 . S
C2269 C2270 1.366 . S
C2270 C2269 1.366 . S
C2270 C2271 1.414 . S
C2270 C2273 1.499 . S
C2271 H2245 0.950 . S
C2271 C2270 1.414 . S
C2271 C2272 1.374 . S
C2272 H2246 0.950 . S
C2272 C2268 1.385 . S
C2272 C2271 1.374 . S
C2273 C2270 1.499 . S
C2273 C2274 1.373 . S
C2273 C2275 1.389 . S
C2274 H2247 0.950 . S
C2274 C2260 1.377 . S
C2274 C2273 1.373 . S
C2275 C2259 1.377 . S
C2275 C2273 1.389 . S
C2275 C2276 1.524 . S
C2276 C2275 1.524 . S
C2276 C2277 1.397 . S
C2276 C2281 1.363 . S
C2277 H2248 0.950 . S
C2277 C2276 1.397 . S
C2277 C2278 1.334 . S
C2278 H2249 0.950 . S
C2278 C2277 1.334 . S
C2278 C2279 1.287 . S
C2279 C2278 1.287 . S
C2279 C2280 1.524 . S
C2279 H2282 0.999 . S
C2280 H2250 0.950 . S
C2280 C2279 1.524 . S
C2280 C2281 1.415 . S
C2281 H2251 0.950 . S
C2281 C2276 1.363 . S
C2281 C2280 1.415 . S
H2282 C2279 0.999 . S
H2283 C2264 0.913 . S
H2284 C2302 0.951 . S
H2285 C2304 0.951 . S
H2286 C2306 0.950 . S
H2287 C2307 0.950 . S
H2288 C2309 0.950 . S
H2289 C2312 0.950 . S
H2290 C2313 0.950 . S
H2291 C2315 0.950 . S
H2292 C2316 0.950 . S
H2293 C2317 0.951 . S
H2294 C2319 0.951 . S
H2295 C2321 0.950 . S
H2296 C2322 0.950 . S
H2297 C2324 0.950 . S
H2298 C2327 0.950 . S
H2299 C2328 0.950 . S
H2300 C2330 0.950 . S
H2301 C2331 0.950 . S
C2302 H2284 0.951 . S
C2302 C2303 1.366 . S
C2302 C2304 1.388 . S
C2303 C2302 1.366 . S
C2303 C2307 1.385 . S
C2304 H2285 0.951 . S
C2304 C2302 1.388 . S
C2304 C2305 1.366 . S
C2305 C2304 1.366 . S
C2305 C2306 1.414 . S
C2305 C2308 1.499 . S
C2306 H2286 0.950 . S
C2306 C2305 1.414 . S
C2306 C2307 1.374 . S
C2307 H2287 0.950 . S
C2307 C2303 1.385 . S
C2307 C2306 1.374 . S
C2308 C2305 1.499 . S
C2308 C2309 1.373 . S
C2308 C2310 1.389 . S
C2309 H2288 0.950 . S
C2309 C2308 1.373 . S
C2309 C2325 1.377 . S
C2310 C2308 1.389 . S
C2310 C2311 1.524 . S
C2310 C2324 1.377 . S
C2311 C2310 1.524 . S
C2311 C2312 1.397 . S
C2311 C2316 1.363 . S
C2312 H2289 0.950 . S
C2312 C2311 1.397 . S
C2312 C2313 1.334 . S
C2313 H2290 0.950 . S
C2313 C2312 1.334 . S
C2313 C2314 1.287 . S
C2314 C2313 1.287 . S
C2314 C2315 1.524 . S
C2314 H2333 0.913 . S
C2315 H2291 0.950 . S
C2315 C2314 1.524 . S
C2315 C2316 1.415 . S
C2316 H2292 0.950 . S
C2316 C2311 1.363 . S
C2316 C2315 1.415 . S
C2317 H2293 0.951 . S
C2317 C2318 1.366 . S
C2317 C2319 1.388 . S
C2318 C2317 1.366 . S
C2318 C2322 1.385 . S
C2319 H2294 0.951 . S
C2319 C2317 1.388 . S
C2319 C2320 1.366 . S
C2320 C2319 1.366 . S
C2320 C2321 1.414 . S
C2320 C2323 1.499 . S
C2321 H2295 0.950 . S
C2321 C2320 1.414 . S
C2321 C2322 1.374 . S
C2322 H2296 0.950 . S
C2322 C2318 1.385 . S
C2322 C2321 1.374 . S
C2323 C2320 1.499 . S
C2323 C2324 1.373 . S
C2323 C2325 1.389 . S
C2324 H2297 0.950 . S
C2324 C2310 1.377 . S
C2324 C2323 1.373 . S
C2325 C2309 1.377 . S
C2325 C2323 1.389 . S
C2325 C2326 1.524 . S
C2326 C2325 1.524 . S
C2326 C2327 1.397 . S
C2326 C2331 1.363 . S
C2327 H2298 0.950 . S
C2327 C2326 1.397 . S
C2327 C2328 1.334 . S
C2328 H2299 0.950 . S
C2328 C2327 1.334 . S
C2328 C2329 1.287 . S
C2329 C2328 1.287 . S
C2329 C2330 1.524 . S
C2329 H2332 0.999 . S
C2330 H2300 0.950 . S
C2330 C2329 1.524 . S
C2330 C2331 1.415 . S
C2331 H2301 0.950 . S
C2331 C2326 1.363 . S
C2331 C2330 1.415 . S
H2332 C2329 0.999 . S
H2333 C2314 0.913 . S
H2334 C2352 0.951 . S
H2335 C2354 0.951 . S
H2336 C2356 0.950 . S
H2337 C2357 0.950 . S
H2338 C2359 0.950 . S
H2339 C2362 0.950 . S
H2340 C2363 0.950 . S
H2341 C2365 0.950 . S
H2342 C2366 0.950 . S
H2343 C2367 0.951 . S
H2344 C2369 0.951 . S
H2345 C2371 0.950 . S
H2346 C2372 0.950 . S
H2347 C2374 0.950 . S
H2348 C2377 0.950 . S
H2349 C2378 0.950 . S
H2350 C2380 0.950 . S
H2351 C2381 0.950 . S
C2352 H2334 0.951 . S
C2352 C2353 1.366 . S
C2352 C2354 1.388 . S
C2353 C2352 1.366 . S
C2353 C2357 1.385 . S
C2354 H2335 0.951 . S
C2354 C2352 1.388 . S
C2354 C2355 1.366 . S
C2355 C2354 1.366 . S
C2355 C2356 1.414 . S
C2355 C2358 1.499 . S
C2356 H2336 0.950 . S
C2356 C2355 1.414 . S
C2356 C2357 1.374 . S
C2357 H2337 0.950 . S
C2357 C2353 1.385 . S
C2357 C2356 1.374 . S
C2358 C2355 1.499 . S
C2358 C2359 1.373 . S
C2358 C2360 1.389 . S
C2359 H2338 0.950 . S
C2359 C2358 1.373 . S
C2359 C2375 1.377 . S
C2360 C2358 1.389 . S
C2360 C2361 1.524 . S
C2360 C2374 1.377 . S
C2361 C2360 1.524 . S
C2361 C2362 1.397 . S
C2361 C2366 1.363 . S
C2362 H2339 0.950 . S
C2362 C2361 1.397 . S
C2362 C2363 1.334 . S
C2363 H2340 0.950 . S
C2363 C2362 1.334 . S
C2363 C2364 1.287 . S
C2364 C2363 1.287 . S
C2364 C2365 1.524 . S
C2364 H2383 0.913 . S
C2365 H2341 0.950 . S
C2365 C2364 1.524 . S
C2365 C2366 1.415 . S
C2366 H2342 0.950 . S
C2366 C2361 1.363 . S
C2366 C2365 1.415 . S
C2367 H2343 0.951 . S
C2367 C2368 1.366 . S
C2367 C2369 1.388 . S
C2368 C2367 1.366 . S
C2368 C2372 1.385 . S
C2369 H2344 0.951 . S
C2369 C2367 1.388 . S
C2369 C2370 1.366 . S
C2370 C2369 1.366 . S
C2370 C2371 1.414 . S
C2370 C2373 1.499 . S
C2371 H2345 0.950 . S
C2371 C2370 1.414 . S
C2371 C2372 1.374 . S
C2372 H2346 0.950 . S
C2372 C2368 1.385 . S
C2372 C2371 1.374 . S
C2373 C2370 1.499 . S
C2373 C2374 1.373 . S
C2373 C2375 1.389 . S
C2374 H2347 0.950 . S
C2374 C2360 1.377 . S
C2374 C2373 1.373 . S
C2375 C2359 1.377 . S
C2375 C2373 1.389 . S
C2375 C2376 1.524 . S
C2376 C2375 1.524 . S
C2376 C2377 1.397 . S
C2376 C2381 1.363 . S
C2377 H2348 0.950 . S
C2377 C2376 1.397 . S
C2377 C2378 1.334 . S
C2378 H2349 0.950 . S
C2378 C2377 1.334 . S
C2378 C2379 1.287 . S
C2379 C2378 1.287 . S
C2379 C2380 1.524 . S
C2379 H2382 0.999 . S
C2380 H2350 0.950 . S
C2380 C2379 1.524 . S
C2380 C2381 1.415 . S
C2381 H2351 0.950 . S
C2381 C2376 1.363 . S
C2381 C2380 1.415 . S
H2382 C2379 0.999 . S
H2383 C2364 0.913 . S
H2384 C2402 0.951 . S
H2385 C2404 0.951 . S
H2386 C2406 0.950 . S
H2387 C2407 0.950 . S
H2388 C2409 0.950 . S
H2389 C2412 0.950 . S
H2390 C2413 0.950 . S
H2391 C2415 0.950 . S
H2392 C2416 0.950 . S
H2393 C2417 0.951 . S
H2394 C2419 0.951 . S
H2395 C2421 0.950 . S
H2396 C2422 0.950 . S
H2397 C2424 0.950 . S
H2398 C2427 0.950 . S
H2399 C2428 0.950 . S
H2400 C2430 0.950 . S
H2401 C2431 0.950 . S
C2402 H2384 0.951 . S
C2402 C2403 1.366 . S
C2402 C2404 1.388 . S
C2403 C2402 1.366 . S
C2403 C2407 1.385 . S
C2404 H2385 0.951 . S
C2404 C2402 1.388 . S
C2404 C2405 1.366 . S
C2405 C2404 1.366 . S
C2405 C2406 1.414 . S
C2405 C2408 1.499 . S
C2406 H2386 0.950 . S
C2406 C2405 1.414 . S
C2406 C2407 1.374 . S
C2407 H2387 0.950 . S
C2407 C2403 1.385 . S
C2407 C2406 1.374 . S
C2408 C2405 1.499 . S
C2408 C2409 1.373 . S
C2408 C2410 1.389 . S
C2409 H2388 0.950 . S
C2409 C2408 1.373 . S
C2409 C2425 1.377 . S
C2410 C2408 1.389 . S
C2410 C2411 1.524 . S
C2410 C2424 1.377 . S
C2411 C2410 1.524 . S
C2411 C2412 1.397 . S
C2411 C2416 1.363 . S
C2412 H2389 0.950 . S
C2412 C2411 1.397 . S
C2412 C2413 1.334 . S
C2413 H2390 0.950 . S
C2413 C2412 1.334 . S
C2413 C2414 1.287 . S
C2414 C2413 1.287 . S
C2414 C2415 1.524 . S
C2414 H2433 0.913 . S
C2415 H2391 0.950 . S
C2415 C2414 1.524 . S
C2415 C2416 1.415 . S
C2416 H2392 0.950 . S
C2416 C2411 1.363 . S
C2416 C2415 1.415 . S
C2417 H2393 0.951 . S
C2417 C2418 1.366 . S
C2417 C2419 1.388 . S
C2418 C2417 1.366 . S
C2418 C2422 1.385 . S
C2419 H2394 0.951 . S
C2419 C2417 1.388 . S
C2419 C2420 1.366 . S
C2420 C2419 1.366 . S
C2420 C2421 1.414 . S
C2420 C2423 1.499 . S
C2421 H2395 0.950 . S
C2421 C2420 1.414 . S
C2421 C2422 1.374 . S
C2422 H2396 0.950 . S
C2422 C2418 1.385 . S
C2422 C2421 1.374 . S
C2423 C2420 1.499 . S
C2423 C2424 1.373 . S
C2423 C2425 1.389 . S
C2424 H2397 0.950 . S
C2424 C2410 1.377 . S
C2424 C2423 1.373 . S
C2425 C2409 1.377 . S
C2425 C2423 1.389 . S
C2425 C2426 1.524 . S
C2426 C2425 1.524 . S
C2426 C2427 1.397 . S
C2426 C2431 1.363 . S
C2427 H2398 0.950 . S
C2427 C2426 1.397 . S
C2427 C2428 1.334 . S
C2428 H2399 0.950 . S
C2428 C2427 1.334 . S
C2428 C2429 1.287 . S
C2429 C2428 1.287 . S
C2429 C2430 1.524 . S
C2429 H2432 0.999 . S
C2430 H2400 0.950 . S
C2430 C2429 1.524 . S
C2430 C2431 1.415 . S
C2431 H2401 0.950 . S
C2431 C2426 1.363 . S
C2431 C2430 1.415 . S
H2432 C2429 0.999 . S
H2433 C2414 0.913 . S
H2434 C2452 0.951 . S
H2435 C2454 0.951 . S
H2436 C2456 0.950 . S
H2437 C2457 0.950 . S
H2438 C2459 0.950 . S
H2439 C2462 0.950 . S
H2440 C2463 0.950 . S
H2441 C2465 0.950 . S
H2442 C2466 0.950 . S
H2443 C2467 0.951 . S
H2444 C2469 0.951 . S
H2445 C2471 0.950 . S
H2446 C2472 0.950 . S
H2447 C2474 0.950 . S
H2448 C2477 0.950 . S
H2449 C2478 0.950 . S
H2450 C2480 0.950 . S
H2451 C2481 0.950 . S
C2452 H2434 0.951 . S
C2452 C2453 1.366 . S
C2452 C2454 1.388 . S
C2453 C2452 1.366 . S
C2453 C2457 1.385 . S
C2454 H2435 0.951 . S
C2454 C2452 1.388 . S
C2454 C2455 1.366 . S
C2455 C2454 1.366 . S
C2455 C2456 1.414 . S
C2455 C2458 1.499 . S
C2456 H2436 0.950 . S
C2456 C2455 1.414 . S
C2456 C2457 1.374 . S
C2457 H2437 0.950 . S
C2457 C2453 1.385 . S
C2457 C2456 1.374 . S
C2458 C2455 1.499 . S
C2458 C2459 1.373 . S
C2458 C2460 1.389 . S
C2459 H2438 0.950 . S
C2459 C2458 1.373 . S
C2459 C2475 1.377 . S
C2460 C2458 1.389 . S
C2460 C2461 1.524 . S
C2460 C2474 1.377 . S
C2461 C2460 1.524 . S
C2461 C2462 1.397 . S
C2461 C2466 1.363 . S
C2462 H2439 0.950 . S
C2462 C2461 1.397 . S
C2462 C2463 1.334 . S
C2463 H2440 0.950 . S
C2463 C2462 1.334 . S
C2463 C2464 1.287 . S
C2464 C2463 1.287 . S
C2464 C2465 1.524 . S
C2464 H2483 0.913 . S
C2465 H2441 0.950 . S
C2465 C2464 1.524 . S
C2465 C2466 1.415 . S
C2466 H2442 0.950 . S
C2466 C2461 1.363 . S
C2466 C2465 1.415 . S
C2467 H2443 0.951 . S
C2467 C2468 1.366 . S
C2467 C2469 1.388 . S
C2468 C2467 1.366 . S
C2468 C2472 1.385 . S
C2469 H2444 0.951 . S
C2469 C2467 1.388 . S
C2469 C2470 1.366 . S
C2470 C2469 1.366 . S
C2470 C2471 1.414 . S
C2470 C2473 1.499 . S
C2471 H2445 0.950 . S
C2471 C2470 1.414 . S
C2471 C2472 1.374 . S
C2472 H2446 0.950 . S
C2472 C2468 1.385 . S
C2472 C2471 1.374 . S
C2473 C2470 1.499 . S
C2473 C2474 1.373 . S
C2473 C2475 1.389 . S
C2474 H2447 0.950 . S
C2474 C2460 1.377 . S
C2474 C2473 1.373 . S
C2475 C2459 1.377 . S
C2475 C2473 1.389 . S
C2475 C2476 1.524 . S
C2476 C2475 1.524 . S
C2476 C2477 1.397 . S
C2476 C2481 1.363 . S
C2477 H2448 0.950 . S
C2477 C2476 1.397 . S
C2477 C2478 1.334 . S
C2478 H2449 0.950 . S
C2478 C2477 1.334 . S
C2478 C2479 1.287 . S
C2479 C2478 1.287 . S
C2479 C2480 1.524 . S
C2479 H2482 0.999 . S
C2480 H2450 0.950 . S
C2480 C2479 1.524 . S
C2480 C2481 1.415 . S
C2481 H2451 0.950 . S
C2481 C2476 1.363 . S
C2481 C2480 1.415 . S
H2482 C2479 0.999 . S
H2483 C2464 0.913 . S
H2484 C2502 0.951 . S
H2485 C2504 0.951 . S
H2486 C2506 0.950 . S
H2487 C2507 0.950 . S
H2488 C2509 0.950 . S
H2489 C2512 0.950 . S
H2490 C2513 0.950 . S
H2491 C2515 0.950 . S
H2492 C2516 0.950 . S
H2493 C2517 0.951 . S
H2494 C2519 0.951 . S
H2495 C2521 0.950 . S
H2496 C2522 0.950 . S
H2497 C2524 0.950 . S
H2498 C2527 0.950 . S
H2499 C2528 0.950 . S
H2500 C2530 0.950 . S
H2501 C2531 0.950 . S
C2502 H2484 0.951 . S
C2502 C2503 1.366 . S
C2502 C2504 1.388 . S
C2503 C2502 1.366 . S
C2503 C2507 1.385 . S
C2504 H2485 0.951 . S
C2504 C2502 1.388 . S
C2504 C2505 1.366 . S
C2505 C2504 1.366 . S
C2505 C2506 1.414 . S
C2505 C2508 1.499 . S
C2506 H2486 0.950 . S
C2506 C2505 1.414 . S
C2506 C2507 1.374 . S
C2507 H2487 0.950 . S
C2507 C2503 1.385 . S
C2507 C2506 1.374 . S
C2508 C2505 1.499 . S
C2508 C2509 1.373 . S
C2508 C2510 1.389 . S
C2509 H2488 0.950 . S
C2509 C2508 1.373 . S
C2509 C2525 1.377 . S
C2510 C2508 1.389 . S
C2510 C2511 1.524 . S
C2510 C2524 1.377 . S
C2511 C2510 1.524 . S
C2511 C2512 1.397 . S
C2511 C2516 1.363 . S
C2512 H2489 0.950 . S
C2512 C2511 1.397 . S
C2512 C2513 1.334 . S
C2513 H2490 0.950 . S
C2513 C2512 1.334 . S
C2513 C2514 1.287 . S
C2514 C2513 1.287 . S
C2514 C2515 1.524 . S
C2514 H2533 0.913 . S
C2515 H2491 0.950 . S
C2515 C2514 1.524 . S
C2515 C2516 1.415 . S
C2516 H2492 0.950 . S
C2516 C2511 1.363 . S
C2516 C2515 1.415 . S
C2517 H2493 0.951 . S
C2517 C2518 1.366 . S
C2517 C2519 1.388 . S
C2518 C2517 1.366 . S
C2518 C2522 1.385 . S
C2519 H2494 0.951 . S
C2519 C2517 1.388 . S
C2519 C2520 1.366 . S
C2520 C2519 1.366 . S
C2520 C2521 1.414 . S
C2520 C2523 1.499 . S
C2521 H2495 0.950 . S
C2521 C2520 1.414 . S
C2521 C2522 1.374 . S
C2522 H2496 0.950 . S
C2522 C2518 1.385 . S
C2522 C2521 1.374 . S
C2523 C2520 1.499 . S
C2523 C2524 1.373 . S
C2523 C2525 1.389 . S
C2524 H2497 0.950 . S
C2524 C2510 1.377 . S
C2524 C2523 1.373 . S
C2525 C2509 1.377 . S
C2525 C2523 1.389 . S
C2525 C2526 1.524 . S
C2526 C2525 1.524 . S
C2526 C2527 1.397 . S
C2526 C2531 1.363 . S
C2527 H2498 0.950 . S
C2527 C2526 1.397 . S
C2527 C2528 1.334 . S
C2528 H2499 0.950 . S
C2528 C2527 1.334 . S
C2528 C2529 1.287 . S
C2529 C2528 1.287 . S
C2529 C2530 1.524 . S
C2529 H2532 0.999 . S
C2530 H2500 0.950 . S
C2530 C2529 1.524 . S
C2530 C2531 1.415 . S
C2531 H2501 0.950 . S
C2531 C2526 1.363 . S
C2531 C2530 1.415 . S
H2532 C2529 0.999 . S
H2533 C2514 0.913 . S
H2534 C2552 0.951 . S
H2535 C2554 0.951 . S
H2536 C2556 0.950 . S
H2537 C2557 0.950 . S
H2538 C2559 0.950 . S
H2539 C2562 0.950 . S
H2540 C2563 0.950 . S
H2541 C2565 0.950 . S
H2542 C2566 0.950 . S
H2543 C2567 0.951 . S
H2544 C2569 0.951 . S
H2545 C2571 0.950 . S
H2546 C2572 0.950 . S
H2547 C2574 0.950 . S
H2548 C2577 0.950 . S
H2549 C2578 0.950 . S
H2550 C2580 0.950 . S
H2551 C2581 0.950 . S
C2552 H2534 0.951 . S
C2552 C2553 1.366 . S
C2552 C2554 1.388 . S
C2553 C2552 1.366 . S
C2553 C2557 1.385 . S
C2554 H2535 0.951 . S
C2554 C2552 1.388 . S
C2554 C2555 1.366 . S
C2555 C2554 1.366 . S
C2555 C2556 1.414 . S
C2555 C2558 1.499 . S
C2556 H2536 0.950 . S
C2556 C2555 1.414 . S
C2556 C2557 1.374 . S
C2557 H2537 0.950 . S
C2557 C2553 1.385 . S
C2557 C2556 1.374 . S
C2558 C2555 1.499 . S
C2558 C2559 1.373 . S
C2558 C2560 1.389 . S
C2559 H2538 0.950 . S
C2559 C2558 1.373 . S
C2559 C2575 1.377 . S
C2560 C2558 1.389 . S
C2560 C2561 1.524 . S
C2560 C2574 1.377 . S
C2561 C2560 1.524 . S
C2561 C2562 1.397 . S
C2561 C2566 1.363 . S
C2562 H2539 0.950 . S
C2562 C2561 1.397 . S
C2562 C2563 1.334 . S
C2563 H2540 0.950 . S
C2563 C2562 1.334 . S
C2563 C2564 1.287 . S
C2564 C2563 1.287 . S
C2564 C2565 1.524 . S
C2564 H2583 0.913 . S
C2565 H2541 0.950 . S
C2565 C2564 1.524 . S
C2565 C2566 1.415 . S
C2566 H2542 0.950 . S
C2566 C2561 1.363 . S
C2566 C2565 1.415 . S
C2567 H2543 0.951 . S
C2567 C2568 1.366 . S
C2567 C2569 1.388 . S
C2568 C2567 1.366 . S
C2568 C2572 1.385 . S
C2569 H2544 0.951 . S
C2569 C2567 1.388 . S
C2569 C2570 1.366 . S
C2570 C2569 1.366 . S
C2570 C2571 1.414 . S
C2570 C2573 1.499 . S
C2571 H2545 0.950 . S
C2571 C2570 1.414 . S
C2571 C2572 1.374 . S
C2572 H2546 0.950 . S
C2572 C2568 1.385 . S
C2572 C2571 1.374 . S
C2573 C2570 1.499 . S
C2573 C2574 1.373 . S
C2573 C2575 1.389 . S
C2574 H2547 0.950 . S
C2574 C2560 1.377 . S
C2574 C2573 1.373 . S
C2575 C2559 1.377 . S
C2575 C2573 1.389 . S
C2575 C2576 1.524 . S
C2576 C2575 1.524 . S
C2576 C2577 1.397 . S
C2576 C2581 1.363 . S
C2577 H2548 0.950 . S
C2577 C2576 1.397 . S
C2577 C2578 1.334 . S
C2578 H2549 0.950 . S
C2578 C2577 1.334 . S
C2578 C2579 1.287 . S
C2579 C2578 1.287 . S
C2579 C2580 1.524 . S
C2579 H2582 0.999 . S
C2580 H2550 0.950 . S
C2580 C2579 1.524 . S
C2580 C2581 1.415 . S
C2581 H2551 0.950 . S
C2581 C2576 1.363 . S
C2581 C2580 1.415 . S
H2582 C2579 0.999 . S
H2583 C2564 0.913 . S
H2584 C2602 0.951 . S
H2585 C2604 0.951 . S
H2586 C2606 0.950 . S
H2587 C2607 0.950 . S
H2588 C2609 0.950 . S
H2589 C2612 0.950 . S
H2590 C2613 0.950 . S
H2591 C2615 0.950 . S
H2592 C2616 0.950 . S
H2593 C2617 0.951 . S
H2594 C2619 0.951 . S
H2595 C2621 0.950 . S
H2596 C2622 0.950 . S
H2597 C2624 0.950 . S
H2598 C2627 0.950 . S
H2599 C2628 0.950 . S
H2600 C2630 0.950 . S
H2601 C2631 0.950 . S
C2602 H2584 0.951 . S
C2602 C2603 1.366 . S
C2602 C2604 1.388 . S
C2603 C2602 1.366 . S
C2603 C2607 1.385 . S
C2604 H2585 0.951 . S
C2604 C2602 1.388 . S
C2604 C2605 1.366 . S
C2605 C2604 1.366 . S
C2605 C2606 1.414 . S
C2605 C2608 1.499 . S
C2606 H2586 0.950 . S
C2606 C2605 1.414 . S
C2606 C2607 1.374 . S
C2607 H2587 0.950 . S
C2607 C2603 1.385 . S
C2607 C2606 1.374 . S
C2608 C2605 1.499 . S
C2608 C2609 1.373 . S
C2608 C2610 1.389 . S
C2609 H2588 0.950 . S
C2609 C2608 1.373 . S
C2609 C2625 1.377 . S
C2610 C2608 1.389 . S
C2610 C2611 1.524 . S
C2610 C2624 1.377 . S
C2611 C2610 1.524 . S
C2611 C2612 1.397 . S
C2611 C2616 1.363 . S
C2612 H2589 0.950 . S
C2612 C2611 1.397 . S
C2612 C2613 1.334 . S
C2613 H2590 0.950 . S
C2613 C2612 1.334 . S
C2613 C2614 1.287 . S
C2614 C2613 1.287 . S
C2614 C2615 1.524 . S
C2614 H2633 0.913 . S
C2615 H2591 0.950 . S
C2615 C2614 1.524 . S
C2615 C2616 1.415 . S
C2616 H2592 0.950 . S
C2616 C2611 1.363 . S
C2616 C2615 1.415 . S
C2617 H2593 0.951 . S
C2617 C2618 1.366 . S
C2617 C2619 1.388 . S
C2618 C2617 1.366 . S
C2618 C2622 1.385 . S
C2619 H2594 0.951 . S
C2619 C2617 1.388 . S
C2619 C2620 1.366 . S
C2620 C2619 1.366 . S
C2620 C2621 1.414 . S
C2620 C2623 1.499 . S
C2621 H2595 0.950 . S
C2621 C2620 1.414 . S
C2621 C2622 1.374 . S
C2622 H2596 0.950 . S
C2622 C2618 1.385 . S
C2622 C2621 1.374 . S
C2623 C2620 1.499 . S
C2623 C2624 1.373 . S
C2623 C2625 1.389 . S
C2624 H2597 0.950 . S
C2624 C2610 1.377 . S
C2624 C2623 1.373 . S
C2625 C2609 1.377 . S
C2625 C2623 1.389 . S
C2625 C2626 1.524 . S
C2626 C2625 1.524 . S
C2626 C2627 1.397 . S
C2626 C2631 1.363 . S
C2627 H2598 0.950 . S
C2627 C2626 1.397 . S
C2627 C2628 1.334 . S
C2628 H2599 0.950 . S
C2628 C2627 1.334 . S
C2628 C2629 1.287 . S
C2629 C2628 1.287 . S
C2629 C2630 1.524 . S
C2629 H2632 0.999 . S
C2630 H2600 0.950 . S
C2630 C2629 1.524 . S
C2630 C2631 1.415 . S
C2631 H2601 0.950 . S
C2631 C2626 1.363 . S
C2631 C2630 1.415 . S
H2632 C2629 0.999 . S
H2633 C2614 0.913 . S
H2634 C2652 0.951 . S
H2635 C2654 0.951 . S
H2636 C2656 0.950 . S
H2637 C2657 0.950 . S
H2638 C2659 0.950 . S
H2639 C2662 0.950 . S
H2640 C2663 0.950 . S
H2641 C2665 0.950 . S
H2642 C2666 0.950 . S
H2643 C2667 0.951 . S
H2644 C2669 0.951 . S
H2645 C2671 0.950 . S
H2646 C2672 0.950 . S
H2647 C2674 0.950 . S
H2648 C2677 0.950 . S
H2649 C2678 0.950 . S
H2650 C2680 0.950 . S
H2651 C2681 0.950 . S
C2652 H2634 0.951 . S
C2652 C2653 1.366 . S
C2652 C2654 1.388 . S
C2653 C2652 1.366 . S
C2653 C2657 1.385 . S
C2654 H2635 0.951 . S
C2654 C2652 1.388 . S
C2654 C2655 1.366 . S
C2655 C2654 1.366 . S
C2655 C2656 1.414 . S
C2655 C2658 1.499 . S
C2656 H2636 0.950 . S
C2656 C2655 1.414 . S
C2656 C2657 1.374 . S
C2657 H2637 0.950 . S
C2657 C2653 1.385 . S
C2657 C2656 1.374 . S
C2658 C2655 1.499 . S
C2658 C2659 1.373 . S
C2658 C2660 1.389 . S
C2659 H2638 0.950 . S
C2659 C2658 1.373 . S
C2659 C2675 1.377 . S
C2660 C2658 1.389 . S
C2660 C2661 1.524 . S
C2660 C2674 1.377 . S
C2661 C2660 1.524 . S
C2661 C2662 1.397 . S
C2661 C2666 1.363 . S
C2662 H2639 0.950 . S
C2662 C2661 1.397 . S
C2662 C2663 1.334 . S
C2663 H2640 0.950 . S
C2663 C2662 1.334 . S
C2663 C2664 1.287 . S
C2664 C2663 1.287 . S
C2664 C2665 1.524 . S
C2664 H2683 0.913 . S
C2665 H2641 0.950 . S
C2665 C2664 1.524 . S
C2665 C2666 1.415 . S
C2666 H2642 0.950 . S
C2666 C2661 1.363 . S
C2666 C2665 1.415 . S
C2667 H2643 0.951 . S
C2667 C2668 1.366 . S
C2667 C2669 1.388 . S
C2668 C2667 1.366 . S
C2668 C2672 1.385 . S
C2669 H2644 0.951 . S
C2669 C2667 1.388 . S
C2669 C2670 1.366 . S
C2670 C2669 1.366 . S
C2670 C2671 1.414 . S
C2670 C2673 1.499 . S
C2671 H2645 0.950 . S
C2671 C2670 1.414 . S
C2671 C2672 1.374 . S
C2672 H2646 0.950 . S
C2672 C2668 1.385 . S
C2672 C2671 1.374 . S
C2673 C2670 1.499 . S
C2673 C2674 1.373 . S
C2673 C2675 1.389 . S
C2674 H2647 0.950 . S
C2674 C2660 1.377 . S
C2674 C2673 1.373 . S
C2675 C2659 1.377 . S
C2675 C2673 1.389 . S
C2675 C2676 1.524 . S
C2676 C2675 1.524 . S
C2676 C2677 1.397 . S
C2676 C2681 1.363 . S
C2677 H2648 0.950 . S
C2677 C2676 1.397 . S
C2677 C2678 1.334 . S
C2678 H2649 0.950 . S
C2678 C2677 1.334 . S
C2678 C2679 1.287 . S
C2679 C2678 1.287 . S
C2679 C2680 1.524 . S
C2679 H2682 0.999 . S
C2680 H2650 0.950 . S
C2680 C2679 1.524 . S
C2680 C2681 1.415 . S
C2681 H2651 0.950 . S
C2681 C2676 1.363 . S
C2681 C2680 1.415 . S
H2682 C2679 0.999 . S
H2683 C2664 0.913 . S
H2684 C2702 0.951 . S
H2685 C2704 0.951 . S
H2686 C2706 0.950 . S
H2687 C2707 0.950 . S
H2688 C2709 0.950 . S
H2689 C2712 0.950 . S
H2690 C2713 0.950 . S
H2691 C2715 0.950 . S
H2692 C2716 0.950 . S
H2693 C2717 0.951 . S
H2694 C2719 0.951 . S
H2695 C2721 0.950 . S
H2696 C2722 0.950 . S
H2697 C2724 0.950 . S
H2698 C2727 0.950 . S
H2699 C2728 0.950 . S
H2700 C2730 0.950 . S
H2701 C2731 0.950 . S
C2702 H2684 0.951 . S
C2702 C2703 1.366 . S
C2702 C2704 1.388 . S
C2703 C2702 1.366 . S
C2703 C2707 1.385 . S
C2704 H2685 0.951 . S
C2704 C2702 1.388 . S
C2704 C2705 1.366 . S
C2705 C2704 1.366 . S
C2705 C2706 1.414 . S
C2705 C2708 1.499 . S
C2706 H2686 0.950 . S
C2706 C2705 1.414 . S
C2706 C2707 1.374 . S
C2707 H2687 0.950 . S
C2707 C2703 1.385 . S
C2707 C2706 1.374 . S
C2708 C2705 1.499 . S
C2708 C2709 1.373 . S
C2708 C2710 1.389 . S
C2709 H2688 0.950 . S
C2709 C2708 1.373 . S
C2709 C2725 1.377 . S
C2710 C2708 1.389 . S
C2710 C2711 1.524 . S
C2710 C2724 1.377 . S
C2711 C2710 1.524 . S
C2711 C2712 1.397 . S
C2711 C2716 1.363 . S
C2712 H2689 0.950 . S
C2712 C2711 1.397 . S
C2712 C2713 1.334 . S
C2713 H2690 0.950 . S
C2713 C2712 1.334 . S
C2713 C2714 1.287 . S
C2714 C2713 1.287 . S
C2714 C2715 1.524 . S
C2714 H2733 0.913 . S
C2715 H2691 0.950 . S
C2715 C2714 1.524 . S
C2715 C2716 1.415 . S
C2716 H2692 0.950 . S
C2716 C2711 1.363 . S
C2716 C2715 1.415 . S
C2717 H2693 0.951 . S
C2717 C2718 1.366 . S
C2717 C2719 1.388 . S
C2718 C2717 1.366 . S
C2718 C2722 1.385 . S
C2719 H2694 0.951 . S
C2719 C2717 1.388 . S
C2719 C2720 1.366 . S
C2720 C2719 1.366 . S
C2720 C2721 1.414 . S
C2720 C2723 1.499 . S
C2721 H2695 0.950 . S
C2721 C2720 1.414 . S
C2721 C2722 1.374 . S
C2722 H2696 0.950 . S
C2722 C2718 1.385 . S
C2722 C2721 1.374 . S
C2723 C2720 1.499 . S
C2723 C2724 1.373 . S
C2723 C2725 1.389 . S
C2724 H2697 0.950 . S
C2724 C2710 1.377 . S
C2724 C2723 1.373 . S
C2725 C2709 1.377 . S
C2725 C2723 1.389 . S
C2725 C2726 1.524 . S
C2726 C2725 1.524 . S
C2726 C2727 1.397 . S
C2726 C2731 1.363 . S
C2727 H2698 0.950 . S
C2727 C2726 1.397 . S
C2727 C2728 1.334 . S
C2728 H2699 0.950 . S
C2728 C2727 1.334 . S
C2728 C2729 1.287 . S
C2729 C2728 1.287 . S
C2729 C2730 1.524 . S
C2729 H2732 0.999 . S
C2730 H2700 0.950 . S
C2730 C2729 1.524 . S
C2730 C2731 1.415 . S
C2731 H2701 0.950 . S
C2731 C2726 1.363 . S
C2731 C2730 1.415 . S
H2732 C2729 0.999 . S
H2733 C2714 0.913 . S
H2734 C2752 0.951 . S
H2735 C2754 0.951 . S
H2736 C2756 0.950 . S
H2737 C2757 0.950 . S
H2738 C2759 0.950 . S
H2739 C2762 0.950 . S
H2740 C2763 0.950 . S
H2741 C2765 0.950 . S
H2742 C2766 0.950 . S
H2743 C2767 0.951 . S
H2744 C2769 0.951 . S
H2745 C2771 0.950 . S
H2746 C2772 0.950 . S
H2747 C2774 0.950 . S
H2748 C2777 0.950 . S
H2749 C2778 0.950 . S
H2750 C2780 0.950 . S
H2751 C2781 0.950 . S
C2752 H2734 0.951 . S
C2752 C2753 1.366 . S
C2752 C2754 1.388 . S
C2753 C2752 1.366 . S
C2753 C2757 1.385 . S
C2754 H2735 0.951 . S
C2754 C2752 1.388 . S
C2754 C2755 1.366 . S
C2755 C2754 1.366 . S
C2755 C2756 1.414 . S
C2755 C2758 1.499 . S
C2756 H2736 0.950 . S
C2756 C2755 1.414 . S
C2756 C2757 1.374 . S
C2757 H2737 0.950 . S
C2757 C2753 1.385 . S
C2757 C2756 1.374 . S
C2758 C2755 1.499 . S
C2758 C2759 1.373 . S
C2758 C2760 1.389 . S
C2759 H2738 0.950 . S
C2759 C2758 1.373 . S
C2759 C2775 1.377 . S
C2760 C2758 1.389 . S
C2760 C2761 1.524 . S
C2760 C2774 1.377 . S
C2761 C2760 1.524 . S
C2761 C2762 1.397 . S
C2761 C2766 1.363 . S
C2762 H2739 0.950 . S
C2762 C2761 1.397 . S
C2762 C2763 1.334 . S
C2763 H2740 0.950 . S
C2763 C2762 1.334 . S
C2763 C2764 1.287 . S
C2764 C2763 1.287 . S
C2764 C2765 1.524 . S
C2764 H2783 0.913 . S
C2765 H2741 0.950 . S
C2765 C2764 1.524 . S
C2765 C2766 1.415 . S
C2766 H2742 0.950 . S
C2766 C2761 1.363 . S
C2766 C2765 1.415 . S
C2767 H2743 0.951 . S
C2767 C2768 1.366 . S
C2767 C2769 1.388 . S
C2768 C2767 1.366 . S
C2768 C2772 1.385 . S
C2769 H2744 0.951 . S
C2769 C2767 1.388 . S
C2769 C2770 1.366 . S
C2770 C2769 1.366 . S
C2770 C2771 1.414 . S
C2770 C2773 1.499 . S
C2771 H2745 0.950 . S
C2771 C2770 1.414 . S
C2771 C2772 1.374 . S
C2772 H2746 0.950 . S
C2772 C2768 1.385 . S
C2772 C2771 1.374 . S
C2773 C2770 1.499 . S
C2773 C2774 1.373 . S
C2773 C2775 1.389 . S
C2774 H2747 0.950 . S
C2774 C2760 1.377 . S
C2774 C2773 1.373 . S
C2775 C2759 1.377 . S
C2775 C2773 1.389 . S
C2775 C2776 1.524 . S
C2776 C2775 1.524 . S
C2776 C2777 1.397 . S
C2776 C2781 1.363 . S
C2777 H2748 0.950 . S
C2777 C2776 1.397 . S
C2777 C2778 1.334 . S
C2778 H2749 0.950 . S
C2778 C2777 1.334 . S
C2778 C2779 1.287 . S
C2779 C2778 1.287 . S
C2779 C2780 1.524 . S
C2779 H2782 0.999 . S
C2780 H2750 0.950 . S
C2780 C2779 1.524 . S
C2780 C2781 1.415 . S
C2781 H2751 0.950 . S
C2781 C2776 1.363 . S
C2781 C2780 1.415 . S
H2782 C2779 0.999 . S
H2783 C2764 0.913 . S
H2784 C2802 0.951 . S
H2785 C2804 0.951 . S
H2786 C2806 0.950 . S
H2787 C2807 0.950 . S
H2788 C2809 0.950 . S
H2789 C2812 0.950 . S
H2790 C2813 0.950 . S
H2791 C2815 0.950 . S
H2792 C2816 0.950 . S
H2793 C2817 0.951 . S
H2794 C2819 0.951 . S
H2795 C2821 0.950 . S
H2796 C2822 0.950 . S
H2797 C2824 0.950 . S
H2798 C2827 0.950 . S
H2799 C2828 0.950 . S
H2800 C2830 0.950 . S
H2801 C2831 0.950 . S
C2802 H2784 0.951 . S
C2802 C2803 1.366 . S
C2802 C2804 1.388 . S
C2803 C2802 1.366 . S
C2803 C2807 1.385 . S
C2804 H2785 0.951 . S
C2804 C2802 1.388 . S
C2804 C2805 1.366 . S
C2805 C2804 1.366 . S
C2805 C2806 1.414 . S
C2805 C2808 1.499 . S
C2806 H2786 0.950 . S
C2806 C2805 1.414 . S
C2806 C2807 1.374 . S
C2807 H2787 0.950 . S
C2807 C2803 1.385 . S
C2807 C2806 1.374 . S
C2808 C2805 1.499 . S
C2808 C2809 1.373 . S
C2808 C2810 1.389 . S
C2809 H2788 0.950 . S
C2809 C2808 1.373 . S
C2809 C2825 1.377 . S
C2810 C2808 1.389 . S
C2810 C2811 1.524 . S
C2810 C2824 1.377 . S
C2811 C2810 1.524 . S
C2811 C2812 1.397 . S
C2811 C2816 1.363 . S
C2812 H2789 0.950 . S
C2812 C2811 1.397 . S
C2812 C2813 1.334 . S
C2813 H2790 0.950 . S
C2813 C2812 1.334 . S
C2813 C2814 1.287 . S
C2814 C2813 1.287 . S
C2814 C2815 1.524 . S
C2814 H2833 0.913 . S
C2815 H2791 0.950 . S
C2815 C2814 1.524 . S
C2815 C2816 1.415 . S
C2816 H2792 0.950 . S
C2816 C2811 1.363 . S
C2816 C2815 1.415 . S
C2817 H2793 0.951 . S
C2817 C2818 1.366 . S
C2817 C2819 1.388 . S
C2818 C2817 1.366 . S
C2818 C2822 1.385 . S
C2819 H2794 0.951 . S
C2819 C2817 1.388 . S
C2819 C2820 1.366 . S
C2820 C2819 1.366 . S
C2820 C2821 1.414 . S
C2820 C2823 1.499 . S
C2821 H2795 0.950 . S
C2821 C2820 1.414 . S
C2821 C2822 1.374 . S
C2822 H2796 0.950 . S
C2822 C2818 1.385 . S
C2822 C2821 1.374 . S
C2823 C2820 1.499 . S
C2823 C2824 1.373 . S
C2823 C2825 1.389 . S
C2824 H2797 0.950 . S
C2824 C2810 1.377 . S
C2824 C2823 1.373 . S
C2825 C2809 1.377 . S
C2825 C2823 1.389 . S
C2825 C2826 1.524 . S
C2826 C2825 1.524 . S
C2826 C2827 1.397 . S
C2826 C2831 1.363 . S
C2827 H2798 0.950 . S
C2827 C2826 1.397 . S
C2827 C2828 1.334 . S
C2828 H2799 0.950 . S
C2828 C2827 1.334 . S
C2828 C2829 1.287 . S
C2829 C2828 1.287 . S
C2829 C2830 1.524 . S
C2829 H2832 0.999 . S
C2830 H2800 0.950 . S
C2830 C2829 1.524 . S
C2830 C2831 1.415 . S
C2831 H2801 0.950 . S
C2831 C2826 1.363 . S
C2831 C2830 1.415 . S
H2832 C2829 0.999 . S
H2833 C2814 0.913 . S
H2834 C2852 0.951 . S
H2835 C2854 0.951 . S
H2836 C2856 0.950 . S
H2837 C2857 0.950 . S
H2838 C2859 0.950 . S
H2839 C2862 0.950 . S
H2840 C2863 0.950 . S
H2841 C2865 0.950 . S
H2842 C2866 0.950 . S
H2843 C2867 0.951 . S
H2844 C2869 0.951 . S
H2845 C2871 0.950 . S
H2846 C2872 0.950 . S
H2847 C2874 0.950 . S
H2848 C2877 0.950 . S
H2849 C2878 0.950 . S
H2850 C2880 0.950 . S
H2851 C2881 0.950 . S
C2852 H2834 0.951 . S
C2852 C2853 1.366 . S
C2852 C2854 1.388 . S
C2853 C2852 1.366 . S
C2853 C2857 1.385 . S
C2854 H2835 0.951 . S
C2854 C2852 1.388 . S
C2854 C2855 1.366 . S
C2855 C2854 1.366 . S
C2855 C2856 1.414 . S
C2855 C2858 1.499 . S
C2856 H2836 0.950 . S
C2856 C2855 1.414 . S
C2856 C2857 1.374 . S
C2857 H2837 0.950 . S
C2857 C2853 1.385 . S
C2857 C2856 1.374 . S
C2858 C2855 1.499 . S
C2858 C2859 1.373 . S
C2858 C2860 1.389 . S
C2859 H2838 0.950 . S
C2859 C2858 1.373 . S
C2859 C2875 1.377 . S
C2860 C2858 1.389 . S
C2860 C2861 1.524 . S
C2860 C2874 1.377 . S
C2861 C2860 1.524 . S
C2861 C2862 1.397 . S
C2861 C2866 1.363 . S
C2862 H2839 0.950 . S
C2862 C2861 1.397 . S
C2862 C2863 1.334 . S
C2863 H2840 0.950 . S
C2863 C2862 1.334 . S
C2863 C2864 1.287 . S
C2864 C2863 1.287 . S
C2864 C2865 1.524 . S
C2864 H2883 0.913 . S
C2865 H2841 0.950 . S
C2865 C2864 1.524 . S
C2865 C2866 1.415 . S
C2866 H2842 0.950 . S
C2866 C2861 1.363 . S
C2866 C2865 1.415 . S
C2867 H2843 0.951 . S
C2867 C2868 1.366 . S
C2867 C2869 1.388 . S
C2868 C2867 1.366 . S
C2868 C2872 1.385 . S
C2869 H2844 0.951 . S
C2869 C2867 1.388 . S
C2869 C2870 1.366 . S
C2870 C2869 1.366 . S
C2870 C2871 1.414 . S
C2870 C2873 1.499 . S
C2871 H2845 0.950 . S
C2871 C2870 1.414 . S
C2871 C2872 1.374 . S
C2872 H2846 0.950 . S
C2872 C2868 1.385 . S
C2872 C2871 1.374 . S
C2873 C2870 1.499 . S
C2873 C2874 1.373 . S
C2873 C2875 1.389 . S
C2874 H2847 0.950 . S
C2874 C2860 1.377 . S
C2874 C2873 1.373 . S
C2875 C2859 1.377 . S
C2875 C2873 1.389 . S
C2875 C2876 1.524 . S
C2876 C2875 1.524 . S
C2876 C2877 1.397 . S
C2876 C2881 1.363 . S
C2877 H2848 0.950 . S
C2877 C2876 1.397 . S
C2877 C2878 1.334 . S
C2878 H2849 0.950 . S
C2878 C2877 1.334 . S
C2878 C2879 1.287 . S
C2879 C2878 1.287 . S
C2879 C2880 1.524 . S
C2879 H2882 0.999 . S
C2880 H2850 0.950 . S
C2880 C2879 1.524 . S
C2880 C2881 1.415 . S
C2881 H2851 0.950 . S
C2881 C2876 1.363 . S
C2881 C2880 1.415 . S
H2882 C2879 0.999 . S
H2883 C2864 0.913 . S
H2884 C2902 0.951 . S
H2885 C2904 0.951 . S
H2886 C2906 0.950 . S
H2887 C2907 0.950 . S
H2888 C2909 0.950 . S
H2889 C2912 0.950 . S
H2890 C2913 0.950 . S
H2891 C2915 0.950 . S
H2892 C2916 0.950 . S
H2893 C2917 0.951 . S
H2894 C2919 0.951 . S
H2895 C2921 0.950 . S
H2896 C2922 0.950 . S
H2897 C2924 0.950 . S
H2898 C2927 0.950 . S
H2899 C2928 0.950 . S
H2900 C2930 0.950 . S
H2901 C2931 0.950 . S
C2902 H2884 0.951 . S
C2902 C2903 1.366 . S
C2902 C2904 1.388 . S
C2903 C2902 1.366 . S
C2903 C2907 1.385 . S
C2904 H2885 0.951 . S
C2904 C2902 1.388 . S
C2904 C2905 1.366 . S
C2905 C2904 1.366 . S
C2905 C2906 1.414 . S
C2905 C2908 1.499 . S
C2906 H2886 0.950 . S
C2906 C2905 1.414 . S
C2906 C2907 1.374 . S
C2907 H2887 0.950 . S
C2907 C2903 1.385 . S
C2907 C2906 1.374 . S
C2908 C2905 1.499 . S
C2908 C2909 1.373 . S
C2908 C2910 1.389 . S
C2909 H2888 0.950 . S
C2909 C2908 1.373 . S
C2909 C2925 1.377 . S
C2910 C2908 1.389 . S
C2910 C2911 1.524 . S
C2910 C2924 1.377 . S
C2911 C2910 1.524 . S
C2911 C2912 1.397 . S
C2911 C2916 1.363 . S
C2912 H2889 0.950 . S
C2912 C2911 1.397 . S
C2912 C2913 1.334 . S
C2913 H2890 0.950 . S
C2913 C2912 1.334 . S
C2913 C2914 1.287 . S
C2914 C2913 1.287 . S
C2914 C2915 1.524 . S
C2914 H2933 0.913 . S
C2915 H2891 0.950 . S
C2915 C2914 1.524 . S
C2915 C2916 1.415 . S
C2916 H2892 0.950 . S
C2916 C2911 1.363 . S
C2916 C2915 1.415 . S
C2917 H2893 0.951 . S
C2917 C2918 1.366 . S
C2917 C2919 1.388 . S
C2918 C2917 1.366 . S
C2918 C2922 1.385 . S
C2919 H2894 0.951 . S
C2919 C2917 1.388 . S
C2919 C2920 1.366 . S
C2920 C2919 1.366 . S
C2920 C2921 1.414 . S
C2920 C2923 1.499 . S
C2921 H2895 0.950 . S
C2921 C2920 1.414 . S
C2921 C2922 1.374 . S
C2922 H2896 0.950 . S
C2922 C2918 1.385 . S
C2922 C2921 1.374 . S
C2923 C2920 1.499 . S
C2923 C2924 1.373 . S
C2923 C2925 1.389 . S
C2924 H2897 0.950 . S
C2924 C2910 1.377 . S
C2924 C2923 1.373 . S
C2925 C2909 1.377 . S
C2925 C2923 1.389 . S
C2925 C2926 1.524 . S
C2926 C2925 1.524 . S
C2926 C2927 1.397 . S
C2926 C2931 1.363 . S
C2927 H2898 0.950 . S
C2927 C2926 1.397 . S
C2927 C2928 1.334 . S
C2928 H2899 0.950 . S
C2928 C2927 1.334 . S
C2928 C2929 1.287 . S
C2929 C2928 1.287 . S
C2929 C2930 1.524 . S
C2929 H2932 0.999 . S
C2930 H2900 0.950 . S
C2930 C2929 1.524 . S
C2930 C2931 1.415 . S
C2931 H2901 0.950 . S
C2931 C2926 1.363 . S
C2931 C2930 1.415 . S
H2932 C2929 0.999 . S
H2933 C2914 0.913 . S
H2934 C2952 0.951 . S
H2935 C2954 0.951 . S
H2936 C2956 0.950 . S
H2937 C2957 0.950 . S
H2938 C2959 0.950 . S
H2939 C2962 0.950 . S
H2940 C2963 0.950 . S
H2941 C2965 0.950 . S
H2942 C2966 0.950 . S
H2943 C2967 0.951 . S
H2944 C2969 0.951 . S
H2945 C2971 0.950 . S
H2946 C2972 0.950 . S
H2947 C2974 0.950 . S
H2948 C2977 0.950 . S
H2949 C2978 0.950 . S
H2950 C2980 0.950 . S
H2951 C2981 0.950 . S
C2952 H2934 0.951 . S
C2952 C2953 1.366 . S
C2952 C2954 1.388 . S
C2953 C2952 1.366 . S
C2953 C2957 1.385 . S
C2954 H2935 0.951 . S
C2954 C2952 1.388 . S
C2954 C2955 1.366 . S
C2955 C2954 1.366 . S
C2955 C2956 1.414 . S
C2955 C2958 1.499 . S
C2956 H2936 0.950 . S
C2956 C2955 1.414 . S
C2956 C2957 1.374 . S
C2957 H2937 0.950 . S
C2957 C2953 1.385 . S
C2957 C2956 1.374 . S
C2958 C2955 1.499 . S
C2958 C2959 1.373 . S
C2958 C2960 1.389 . S
C2959 H2938 0.950 . S
C2959 C2958 1.373 . S
C2959 C2975 1.377 . S
C2960 C2958 1.389 . S
C2960 C2961 1.524 . S
C2960 C2974 1.377 . S
C2961 C2960 1.524 . S
C2961 C2962 1.397 . S
C2961 C2966 1.363 . S
C2962 H2939 0.950 . S
C2962 C2961 1.397 . S
C2962 C2963 1.334 . S
C2963 H2940 0.950 . S
C2963 C2962 1.334 . S
C2963 C2964 1.287 . S
C2964 C2963 1.287 . S
C2964 C2965 1.524 . S
C2964 H2983 0.913 . S
C2965 H2941 0.950 . S
C2965 C2964 1.524 . S
C2965 C2966 1.415 . S
C2966 H2942 0.950 . S
C2966 C2961 1.363 . S
C2966 C2965 1.415 . S
C2967 H2943 0.951 . S
C2967 C2968 1.366 . S
C2967 C2969 1.388 . S
C2968 C2967 1.366 . S
C2968 C2972 1.385 . S
C2969 H2944 0.951 . S
C2969 C2967 1.388 . S
C2969 C2970 1.366 . S
C2970 C2969 1.366 . S
C2970 C2971 1.414 . S
C2970 C2973 1.499 . S
C2971 H2945 0.950 . S
C2971 C2970 1.414 . S
C2971 C2972 1.374 . S
C2972 H2946 0.950 . S
C2972 C2968 1.385 . S
C2972 C2971 1.374 . S
C2973 C2970 1.499 . S
C2973 C2974 1.373 . S
C2973 C2975 1.389 . S
C2974 H2947 0.950 . S
C2974 C2960 1.377 . S
C2974 C2973 1.373 . S
C2975 C2959 1.377 . S
C2975 C2973 1.389 . S
C2975 C2976 1.524 . S
C2976 C2975 1.524 . S
C2976 C2977 1.397 . S
C2976 C2981 1.363 . S
C2977 H2948 0.950 . S
C2977 C2976 1.397 . S
C2977 C2978 1.334 . S
C2978 H2949 0.950 . S
C2978 C2977 1.334 . S
C2978 C2979 1.287 . S
C2979 C2978 1.287 . S
C2979 C2980 1.524 . S
C2979 H2982 0.999 . S
C2980 H2950 0.950 . S
C2980 C2979 1.524 . S
C2980 C2981 1.415 . S
C2981 H2951 0.950 . S
C2981 C2976 1.363 . S
C2981 C2980 1.415 . S
H2982 C2979 0.999 . S
H2983 C2964 0.913 . S
H2984 C3002 0.951 . S
H2985 C3004 0.951 . S
H2986 C3006 0.950 . S
H2987 C3007 0.950 . S
H2988 C3009 0.950 . S
H2989 C3012 0.950 . S
H2990 C3013 0.950 . S
H2991 C3015 0.950 . S
H2992 C3016 0.950 . S
H2993 C3017 0.951 . S
H2994 C3019 0.951 . S
H2995 C3021 0.950 . S
H2996 C3022 0.950 . S
H2997 C3024 0.950 . S
H2998 C3027 0.950 . S
H2999 C3028 0.950 . S
H3000 C3030 0.950 . S
H3001 C3031 0.950 . S
C3002 H2984 0.951 . S
C3002 C3003 1.366 . S
C3002 C3004 1.388 . S
C3003 C3002 1.366 . S
C3003 C3007 1.385 . S
C3004 H2985 0.951 . S
C3004 C3002 1.388 . S
C3004 C3005 1.366 . S
C3005 C3004 1.366 . S
C3005 C3006 1.414 . S
C3005 C3008 1.499 . S
C3006 H2986 0.950 . S
C3006 C3005 1.414 . S
C3006 C3007 1.374 . S
C3007 H2987 0.950 . S
C3007 C3003 1.385 . S
C3007 C3006 1.374 . S
C3008 C3005 1.499 . S
C3008 C3009 1.373 . S
C3008 C3010 1.389 . S
C3009 H2988 0.950 . S
C3009 C3008 1.373 . S
C3009 C3025 1.377 . S
C3010 C3008 1.389 . S
C3010 C3011 1.524 . S
C3010 C3024 1.377 . S
C3011 C3010 1.524 . S
C3011 C3012 1.397 . S
C3011 C3016 1.363 . S
C3012 H2989 0.950 . S
C3012 C3011 1.397 . S
C3012 C3013 1.334 . S
C3013 H2990 0.950 . S
C3013 C3012 1.334 . S
C3013 C3014 1.287 . S
C3014 C3013 1.287 . S
C3014 C3015 1.524 . S
C3014 H3033 0.913 . S
C3015 H2991 0.950 . S
C3015 C3014 1.524 . S
C3015 C3016 1.415 . S
C3016 H2992 0.950 . S
C3016 C3011 1.363 . S
C3016 C3015 1.415 . S
C3017 H2993 0.951 . S
C3017 C3018 1.366 . S
C3017 C3019 1.388 . S
C3018 C3017 1.366 . S
C3018 C3022 1.385 . S
C3019 H2994 0.951 . S
C3019 C3017 1.388 . S
C3019 C3020 1.366 . S
C3020 C3019 1.366 . S
C3020 C3021 1.414 . S
C3020 C3023 1.499 . S
C3021 H2995 0.950 . S
C3021 C3020 1.414 . S
C3021 C3022 1.374 . S
C3022 H2996 0.950 . S
C3022 C3018 1.385 . S
C3022 C3021 1.374 . S
C3023 C3020 1.499 . S
C3023 C3024 1.373 . S
C3023 C3025 1.389 . S
C3024 H2997 0.950 . S
C3024 C3010 1.377 . S
C3024 C3023 1.373 . S
C3025 C3009 1.377 . S
C3025 C3023 1.389 . S
C3025 C3026 1.524 . S
C3026 C3025 1.524 . S
C3026 C3027 1.397 . S
C3026 C3031 1.363 . S
C3027 H2998 0.950 . S
C3027 C3026 1.397 . S
C3027 C3028 1.334 . S
C3028 H2999 0.950 . S
C3028 C3027 1.334 . S
C3028 C3029 1.287 . S
C3029 C3028 1.287 . S
C3029 C3030 1.524 . S
C3029 H3032 0.999 . S
C3030 H3000 0.950 . S
C3030 C3029 1.524 . S
C3030 C3031 1.415 . S
C3031 H3001 0.950 . S
C3031 C3026 1.363 . S
C3031 C3030 1.415 . S
H3032 C3029 0.999 . S
H3033 C3014 0.913 . S
H3034 C3052 0.951 . S
H3035 C3054 0.951 . S
H3036 C3056 0.950 . S
H3037 C3057 0.950 . S
H3038 C3059 0.950 . S
H3039 C3062 0.950 . S
H3040 C3063 0.950 . S
H3041 C3065 0.950 . S
H3042 C3066 0.950 . S
H3043 C3067 0.951 . S
H3044 C3069 0.951 . S
H3045 C3071 0.950 . S
H3046 C3072 0.950 . S
H3047 C3074 0.950 . S
H3048 C3077 0.950 . S
H3049 C3078 0.950 . S
H3050 C3080 0.950 . S
H3051 C3081 0.950 . S
C3052 H3034 0.951 . S
C3052 C3053 1.366 . S
C3052 C3054 1.388 . S
C3053 C3052 1.366 . S
C3053 C3057 1.385 . S
C3054 H3035 0.951 . S
C3054 C3052 1.388 . S
C3054 C3055 1.366 . S
C3055 C3054 1.366 . S
C3055 C3056 1.414 . S
C3055 C3058 1.499 . S
C3056 H3036 0.950 . S
C3056 C3055 1.414 . S
C3056 C3057 1.374 . S
C3057 H3037 0.950 . S
C3057 C3053 1.385 . S
C3057 C3056 1.374 . S
C3058 C3055 1.499 . S
C3058 C3059 1.373 . S
C3058 C3060 1.389 . S
C3059 H3038 0.950 . S
C3059 C3058 1.373 . S
C3059 C3075 1.377 . S
C3060 C3058 1.389 . S
C3060 C3061 1.524 . S
C3060 C3074 1.377 . S
C3061 C3060 1.524 . S
C3061 C3062 1.397 . S
C3061 C3066 1.363 . S
C3062 H3039 0.950 . S
C3062 C3061 1.397 . S
C3062 C3063 1.334 . S
C3063 H3040 0.950 . S
C3063 C3062 1.334 . S
C3063 C3064 1.287 . S
C3064 C3063 1.287 . S
C3064 C3065 1.524 . S
C3064 H3083 0.913 . S
C3065 H3041 0.950 . S
C3065 C3064 1.524 . S
C3065 C3066 1.415 . S
C3066 H3042 0.950 . S
C3066 C3061 1.363 . S
C3066 C3065 1.415 . S
C3067 H3043 0.951 . S
C3067 C3068 1.366 . S
C3067 C3069 1.388 . S
C3068 C3067 1.366 . S
C3068 C3072 1.385 . S
C3069 H3044 0.951 . S
C3069 C3067 1.388 . S
C3069 C3070 1.366 . S
C3070 C3069 1.366 . S
C3070 C3071 1.414 . S
C3070 C3073 1.499 . S
C3071 H3045 0.950 . S
C3071 C3070 1.414 . S
C3071 C3072 1.374 . S
C3072 H3046 0.950 . S
C3072 C3068 1.385 . S
C3072 C3071 1.374 . S
C3073 C3070 1.499 . S
C3073 C3074 1.373 . S
C3073 C3075 1.389 . S
C3074 H3047 0.950 . S
C3074 C3060 1.377 . S
C3074 C3073 1.373 . S
C3075 C3059 1.377 . S
C3075 C3073 1.389 . S
C3075 C3076 1.524 . S
C3076 C3075 1.524 . S
C3076 C3077 1.397 . S
C3076 C3081 1.363 . S
C3077 H3048 0.950 . S
C3077 C3076 1.397 . S
C3077 C3078 1.334 . S
C3078 H3049 0.950 . S
C3078 C3077 1.334 . S
C3078 C3079 1.287 . S
C3079 C3078 1.287 . S
C3079 C3080 1.524 . S
C3079 H3082 0.999 . S
C3080 H3050 0.950 . S
C3080 C3079 1.524 . S
C3080 C3081 1.415 . S
C3081 H3051 0.950 . S
C3081 C3076 1.363 . S
C3081 C3080 1.415 . S
H3082 C3079 0.999 . S
H3083 C3064 0.913 . S
H3084 C3102 0.951 . S
H3085 C3104 0.951 . S
H3086 C3106 0.950 . S
H3087 C3107 0.950 . S
H3088 C3109 0.950 . S
H3089 C3112 0.950 . S
H3090 C3113 0.950 . S
H3091 C3115 0.950 . S
H3092 C3116 0.950 . S
H3093 C3117 0.951 . S
H3094 C3119 0.951 . S
H3095 C3121 0.950 . S
H3096 C3122 0.950 . S
H3097 C3124 0.950 . S
H3098 C3127 0.950 . S
H3099 C3128 0.950 . S
H3100 C3130 0.950 . S
H3101 C3131 0.950 . S
C3102 H3084 0.951 . S
C3102 C3103 1.366 . S
C3102 C3104 1.388 . S
C3103 C3102 1.366 . S
C3103 C3107 1.385 . S
C3104 H3085 0.951 . S
C3104 C3102 1.388 . S
C3104 C3105 1.366 . S
C3105 C3104 1.366 . S
C3105 C3106 1.414 . S
C3105 C3108 1.499 . S
C3106 H3086 0.950 . S
C3106 C3105 1.414 . S
C3106 C3107 1.374 . S
C3107 H3087 0.950 . S
C3107 C3103 1.385 . S
C3107 C3106 1.374 . S
C3108 C3105 1.499 . S
C3108 C3109 1.373 . S
C3108 C3110 1.389 . S
C3109 H3088 0.950 . S
C3109 C3108 1.373 . S
C3109 C3125 1.377 . S
C3110 C3108 1.389 . S
C3110 C3111 1.524 . S
C3110 C3124 1.377 . S
C3111 C3110 1.524 . S
C3111 C3112 1.397 . S
C3111 C3116 1.363 . S
C3112 H3089 0.950 . S
C3112 C3111 1.397 . S
C3112 C3113 1.334 . S
C3113 H3090 0.950 . S
C3113 C3112 1.334 . S
C3113 C3114 1.287 . S
C3114 C3113 1.287 . S
C3114 C3115 1.524 . S
C3114 H3133 0.913 . S
C3115 H3091 0.950 . S
C3115 C3114 1.524 . S
C3115 C3116 1.415 . S
C3116 H3092 0.950 . S
C3116 C3111 1.363 . S
C3116 C3115 1.415 . S
C3117 H3093 0.951 . S
C3117 C3118 1.366 . S
C3117 C3119 1.388 . S
C3118 C3117 1.366 . S
C3118 C3122 1.385 . S
C3119 H3094 0.951 . S
C3119 C3117 1.388 . S
C3119 C3120 1.366 . S
C3120 C3119 1.366 . S
C3120 C3121 1.414 . S
C3120 C3123 1.499 . S
C3121 H3095 0.950 . S
C3121 C3120 1.414 . S
C3121 C3122 1.374 . S
C3122 H3096 0.950 . S
C3122 C3118 1.385 . S
C3122 C3121 1.374 . S
C3123 C3120 1.499 . S
C3123 C3124 1.373 . S
C3123 C3125 1.389 . S
C3124 H3097 0.950 . S
C3124 C3110 1.377 . S
C3124 C3123 1.373 . S
C3125 C3109 1.377 . S
C3125 C3123 1.389 . S
C3125 C3126 1.524 . S
C3126 C3125 1.524 . S
C3126 C3127 1.397 . S
C3126 C3131 1.363 . S
C3127 H3098 0.950 . S
C3127 C3126 1.397 . S
C3127 C3128 1.334 . S
C3128 H3099 0.950 . S
C3128 C3127 1.334 . S
C3128 C3129 1.287 . S
C3129 C3128 1.287 . S
C3129 C3130 1.524 . S
C3129 H3132 0.999 . S
C3130 H3100 0.950 . S
C3130 C3129 1.524 . S
C3130 C3131 1.415 . S
C3131 H3101 0.950 . S
C3131 C3126 1.363 . S
C3131 C3130 1.415 . S
H3132 C3129 0.999 . S
H3133 C3114 0.913 . S
H3134 C3152 0.951 . S
H3135 C3154 0.951 . S
H3136 C3156 0.950 . S
H3137 C3157 0.950 . S
H3138 C3159 0.950 . S
H3139 C3162 0.950 . S
H3140 C3163 0.950 . S
H3141 C3165 0.950 . S
H3142 C3166 0.950 . S
H3143 C3167 0.951 . S
H3144 C3169 0.951 . S
H3145 C3171 0.950 . S
H3146 C3172 0.950 . S
H3147 C3174 0.950 . S
H3148 C3177 0.950 . S
H3149 C3178 0.950 . S
H3150 C3180 0.950 . S
H3151 C3181 0.950 . S
C3152 H3134 0.951 . S
C3152 C3153 1.366 . S
C3152 C3154 1.388 . S
C3153 C3152 1.366 . S
C3153 C3157 1.385 . S
C3154 H3135 0.951 . S
C3154 C3152 1.388 . S
C3154 C3155 1.366 . S
C3155 C3154 1.366 . S
C3155 C3156 1.414 . S
C3155 C3158 1.499 . S
C3156 H3136 0.950 . S
C3156 C3155 1.414 . S
C3156 C3157 1.374 . S
C3157 H3137 0.950 . S
C3157 C3153 1.385 . S
C3157 C3156 1.374 . S
C3158 C3155 1.499 . S
C3158 C3159 1.373 . S
C3158 C3160 1.389 . S
C3159 H3138 0.950 . S
C3159 C3158 1.373 . S
C3159 C3175 1.377 . S
C3160 C3158 1.389 . S
C3160 C3161 1.524 . S
C3160 C3174 1.377 . S
C3161 C3160 1.524 . S
C3161 C3162 1.397 . S
C3161 C3166 1.363 . S
C3162 H3139 0.950 . S
C3162 C3161 1.397 . S
C3162 C3163 1.334 . S
C3163 H3140 0.950 . S
C3163 C3162 1.334 . S
C3163 C3164 1.287 . S
C3164 C3163 1.287 . S
C3164 C3165 1.524 . S
C3164 H3183 0.913 . S
C3165 H3141 0.950 . S
C3165 C3164 1.524 . S
C3165 C3166 1.415 . S
C3166 H3142 0.950 . S
C3166 C3161 1.363 . S
C3166 C3165 1.415 . S
C3167 H3143 0.951 . S
C3167 C3168 1.366 . S
C3167 C3169 1.388 . S
C3168 C3167 1.366 . S
C3168 C3172 1.385 . S
C3169 H3144 0.951 . S
C3169 C3167 1.388 . S
C3169 C3170 1.366 . S
C3170 C3169 1.366 . S
C3170 C3171 1.414 . S
C3170 C3173 1.499 . S
C3171 H3145 0.950 . S
C3171 C3170 1.414 . S
C3171 C3172 1.374 . S
C3172 H3146 0.950 . S
C3172 C3168 1.385 . S
C3172 C3171 1.374 . S
C3173 C3170 1.499 . S
C3173 C3174 1.373 . S
C3173 C3175 1.389 . S
C3174 H3147 0.950 . S
C3174 C3160 1.377 . S
C3174 C3173 1.373 . S
C3175 C3159 1.377 . S
C3175 C3173 1.389 . S
C3175 C3176 1.524 . S
C3176 C3175 1.524 . S
C3176 C3177 1.397 . S
C3176 C3181 1.363 . S
C3177 H3148 0.950 . S
C3177 C3176 1.397 . S
C3177 C3178 1.334 . S
C3178 H3149 0.950 . S
C3178 C3177 1.334 . S
C3178 C3179 1.287 . S
C3179 C3178 1.287 . S
C3179 C3180 1.524 . S
C3179 H3182 0.999 . S
C3180 H3150 0.950 . S
C3180 C3179 1.524 . S
C3180 C3181 1.415 . S
C3181 H3151 0.950 . S
C3181 C3176 1.363 . S
C3181 C3180 1.415 . S
H3182 C3179 0.999 . S
H3183 C3164 0.913 . S
H3184 C3202 0.951 . S
H3185 C3204 0.951 . S
H3186 C3206 0.950 . S
H3187 C3207 0.950 . S
H3188 C3209 0.950 . S
H3189 C3212 0.950 . S
H3190 C3213 0.950 . S
H3191 C3215 0.950 . S
H3192 C3216 0.950 . S
H3193 C3217 0.951 . S
H3194 C3219 0.951 . S
H3195 C3221 0.950 . S
H3196 C3222 0.950 . S
H3197 C3224 0.950 . S
H3198 C3227 0.950 . S
H3199 C3228 0.950 . S
H3200 C3230 0.950 . S
H3201 C3231 0.950 . S
C3202 H3184 0.951 . S
C3202 C3203 1.366 . S
C3202 C3204 1.388 . S
C3203 C3202 1.366 . S
C3203 C3207 1.385 . S
C3204 H3185 0.951 . S
C3204 C3202 1.388 . S
C3204 C3205 1.366 . S
C3205 C3204 1.366 . S
C3205 C3206 1.414 . S
C3205 C3208 1.499 . S
C3206 H3186 0.950 . S
C3206 C3205 1.414 . S
C3206 C3207 1.374 . S
C3207 H3187 0.950 . S
C3207 C3203 1.385 . S
C3207 C3206 1.374 . S
C3208 C3205 1.499 . S
C3208 C3209 1.373 . S
C3208 C3210 1.389 . S
C3209 H3188 0.950 . S
C3209 C3208 1.373 . S
C3209 C3225 1.377 . S
C3210 C3208 1.389 . S
C3210 C3211 1.524 . S
C3210 C3224 1.377 . S
C3211 C3210 1.524 . S
C3211 C3212 1.397 . S
C3211 C3216 1.363 . S
C3212 H3189 0.950 . S
C3212 C3211 1.397 . S
C3212 C3213 1.334 . S
C3213 H3190 0.950 . S
C3213 C3212 1.334 . S
C3213 C3214 1.287 . S
C3214 C3213 1.287 . S
C3214 C3215 1.524 . S
C3214 H3233 0.913 . S
C3215 H3191 0.950 . S
C3215 C3214 1.524 . S
C3215 C3216 1.415 . S
C3216 H3192 0.950 . S
C3216 C3211 1.363 . S
C3216 C3215 1.415 . S
C3217 H3193 0.951 . S
C3217 C3218 1.366 . S
C3217 C3219 1.388 . S
C3218 C3217 1.366 . S
C3218 C3222 1.385 . S
C3219 H3194 0.951 . S
C3219 C3217 1.388 . S
C3219 C3220 1.366 . S
C3220 C3219 1.366 . S
C3220 C3221 1.414 . S
C3220 C3223 1.499 . S
C3221 H3195 0.950 . S
C3221 C3220 1.414 . S
C3221 C3222 1.374 . S
C3222 H3196 0.950 . S
C3222 C3218 1.385 . S
C3222 C3221 1.374 . S
C3223 C3220 1.499 . S
C3223 C3224 1.373 . S
C3223 C3225 1.389 . S
C3224 H3197 0.950 . S
C3224 C3210 1.377 . S
C3224 C3223 1.373 . S
C3225 C3209 1.377 . S
C3225 C3223 1.389 . S
C3225 C3226 1.524 . S
C3226 C3225 1.524 . S
C3226 C3227 1.397 . S
C3226 C3231 1.363 . S
C3227 H3198 0.950 . S
C3227 C3226 1.397 . S
C3227 C3228 1.334 . S
C3228 H3199 0.950 . S
C3228 C3227 1.334 . S
C3228 C3229 1.287 . S
C3229 C3228 1.287 . S
C3229 C3230 1.524 . S
C3229 H3232 0.999 . S
C3230 H3200 0.950 . S
C3230 C3229 1.524 . S
C3230 C3231 1.415 . S
C3231 H3201 0.950 . S
C3231 C3226 1.363 . S
C3231 C3230 1.415 . S
H3232 C3229 0.999 . S
H3233 C3214 0.913 . S
H3234 C3252 0.951 . S
H3235 C3254 0.951 . S
H3236 C3256 0.950 . S
H3237 C3257 0.950 . S
H3238 C3259 0.950 . S
H3239 C3262 0.950 . S
H3240 C3263 0.950 . S
H3241 C3265 0.950 . S
H3242 C3266 0.950 . S
H3243 C3267 0.951 . S
H3244 C3269 0.951 . S
H3245 C3271 0.950 . S
H3246 C3272 0.950 . S
H3247 C3274 0.950 . S
H3248 C3277 0.950 . S
H3249 C3278 0.950 . S
H3250 C3280 0.950 . S
H3251 C3281 0.950 . S
C3252 H3234 0.951 . S
C3252 C3253 1.366 . S
C3252 C3254 1.388 . S
C3253 C3252 1.366 . S
C3253 C3257 1.385 . S
C3254 H3235 0.951 . S
C3254 C3252 1.388 . S
C3254 C3255 1.366 . S
C3255 C3254 1.366 . S
C3255 C3256 1.414 . S
C3255 C3258 1.499 . S
C3256 H3236 0.950 . S
C3256 C3255 1.414 . S
C3256 C3257 1.374 . S
C3257 H3237 0.950 . S
C3257 C3253 1.385 . S
C3257 C3256 1.374 . S
C3258 C3255 1.499 . S
C3258 C3259 1.373 . S
C3258 C3260 1.389 . S
C3259 H3238 0.950 . S
C3259 C3258 1.373 . S
C3259 C3275 1.377 . S
C3260 C3258 1.389 . S
C3260 C3261 1.524 . S
C3260 C3274 1.377 . S
C3261 C3260 1.524 . S
C3261 C3262 1.397 . S
C3261 C3266 1.363 . S
C3262 H3239 0.950 . S
C3262 C3261 1.397 . S
C3262 C3263 1.334 . S
C3263 H3240 0.950 . S
C3263 C3262 1.334 . S
C3263 C3264 1.287 . S
C3264 C3263 1.287 . S
C3264 C3265 1.524 . S
C3264 H3283 0.913 . S
C3265 H3241 0.950 . S
C3265 C3264 1.524 . S
C3265 C3266 1.415 . S
C3266 H3242 0.950 . S
C3266 C3261 1.363 . S
C3266 C3265 1.415 . S
C3267 H3243 0.951 . S
C3267 C3268 1.366 . S
C3267 C3269 1.388 . S
C3268 C3267 1.366 . S
C3268 C3272 1.385 . S
C3269 H3244 0.951 . S
C3269 C3267 1.388 . S
C3269 C3270 1.366 . S
C3270 C3269 1.366 . S
C3270 C3271 1.414 . S
C3270 C3273 1.499 . S
C3271 H3245 0.950 . S
C3271 C3270 1.414 . S
C3271 C3272 1.374 . S
C3272 H3246 0.950 . S
C3272 C3268 1.385 . S
C3272 C3271 1.374 . S
C3273 C3270 1.499 . S
C3273 C3274 1.373 . S
C3273 C3275 1.389 . S
C3274 H3247 0.950 . S
C3274 C3260 1.377 . S
C3274 C3273 1.373 . S
C3275 C3259 1.377 . S
C3275 C3273 1.389 . S
C3275 C3276 1.524 . S
C3276 C3275 1.524 . S
C3276 C3277 1.397 . S
C3276 C3281 1.363 . S
C3277 H3248 0.950 . S
C3277 C3276 1.397 . S
C3277 C3278 1.334 . S
C3278 H3249 0.950 . S
C3278 C3277 1.334 . S
C3278 C3279 1.287 . S
C3279 C3278 1.287 . S
C3279 C3280 1.524 . S
C3279 H3282 0.999 . S
C3280 H3250 0.950 . S
C3280 C3279 1.524 . S
C3280 C3281 1.415 . S
C3281 H3251 0.950 . S
C3281 C3276 1.363 . S
C3281 C3280 1.415 . S
H3282 C3279 0.999 . S
H3283 C3264 0.913 . S
H3284 C3302 0.951 . S
H3285 C3304 0.951 . S
H3286 C3306 0.950 . S
H3287 C3307 0.950 . S
H3288 C3309 0.950 . S
H3289 C3312 0.950 . S
H3290 C3313 0.950 . S
H3291 C3315 0.950 . S
H3292 C3316 0.950 . S
H3293 C3317 0.951 . S
H3294 C3319 0.951 . S
H3295 C3321 0.950 . S
H3296 C3322 0.950 . S
H3297 C3324 0.950 . S
H3298 C3327 0.950 . S
H3299 C3328 0.950 . S
H3300 C3330 0.950 . S
H3301 C3331 0.950 . S
C3302 H3284 0.951 . S
C3302 C3303 1.366 . S
C3302 C3304 1.388 . S
C3303 C3302 1.366 . S
C3303 C3307 1.385 . S
C3304 H3285 0.951 . S
C3304 C3302 1.388 . S
C3304 C3305 1.366 . S
C3305 C3304 1.366 . S
C3305 C3306 1.414 . S
C3305 C3308 1.499 . S
C3306 H3286 0.950 . S
C3306 C3305 1.414 . S
C3306 C3307 1.374 . S
C3307 H3287 0.950 . S
C3307 C3303 1.385 . S
C3307 C3306 1.374 . S
C3308 C3305 1.499 . S
C3308 C3309 1.373 . S
C3308 C3310 1.389 . S
C3309 H3288 0.950 . S
C3309 C3308 1.373 . S
C3309 C3325 1.377 . S
C3310 C3308 1.389 . S
C3310 C3311 1.524 . S
C3310 C3324 1.377 . S
C3311 C3310 1.524 . S
C3311 C3312 1.397 . S
C3311 C3316 1.363 . S
C3312 H3289 0.950 . S
C3312 C3311 1.397 . S
C3312 C3313 1.334 . S
C3313 H3290 0.950 . S
C3313 C3312 1.334 . S
C3313 C3314 1.287 . S
C3314 C3313 1.287 . S
C3314 C3315 1.524 . S
C3314 H3333 0.913 . S
C3315 H3291 0.950 . S
C3315 C3314 1.524 . S
C3315 C3316 1.415 . S
C3316 H3292 0.950 . S
C3316 C3311 1.363 . S
C3316 C3315 1.415 . S
C3317 H3293 0.951 . S
C3317 C3318 1.366 . S
C3317 C3319 1.388 . S
C3318 C3317 1.366 . S
C3318 C3322 1.385 . S
C3319 H3294 0.951 . S
C3319 C3317 1.388 . S
C3319 C3320 1.366 . S
C3320 C3319 1.366 . S
C3320 C3321 1.414 . S
C3320 C3323 1.499 . S
C3321 H3295 0.950 . S
C3321 C3320 1.414 . S
C3321 C3322 1.374 . S
C3322 H3296 0.950 . S
C3322 C3318 1.385 . S
C3322 C3321 1.374 . S
C3323 C3320 1.499 . S
C3323 C3324 1.373 . S
C3323 C3325 1.389 . S
C3324 H3297 0.950 . S
C3324 C3310 1.377 . S
C3324 C3323 1.373 . S
C3325 C3309 1.377 . S
C3325 C3323 1.389 . S
C3325 C3326 1.524 . S
C3326 C3325 1.524 . S
C3326 C3327 1.397 . S
C3326 C3331 1.363 . S
C3327 H3298 0.950 . S
C3327 C3326 1.397 . S
C3327 C3328 1.334 . S
C3328 H3299 0.950 . S
C3328 C3327 1.334 . S
C3328 C3329 1.287 . S
C3329 C3328 1.287 . S
C3329 C3330 1.524 . S
C3329 H3332 0.999 . S
C3330 H3300 0.950 . S
C3330 C3329 1.524 . S
C3330 C3331 1.415 . S
C3331 H3301 0.950 . S
C3331 C3326 1.363 . S
C3331 C3330 1.415 . S
H3332 C3329 0.999 . S
H3333 C3314 0.913 . S
H3334 C3352 0.951 . S
H3335 C3354 0.951 . S
H3336 C3356 0.950 . S
H3337 C3357 0.950 . S
H3338 C3359 0.950 . S
H3339 C3362 0.950 . S
H3340 C3363 0.950 . S
H3341 C3365 0.950 . S
H3342 C3366 0.950 . S
H3343 C3367 0.951 . S
H3344 C3369 0.951 . S
H3345 C3371 0.950 . S
H3346 C3372 0.950 . S
H3347 C3374 0.950 . S
H3348 C3377 0.950 . S
H3349 C3378 0.950 . S
H3350 C3380 0.950 . S
H3351 C3381 0.950 . S
C3352 H3334 0.951 . S
C3352 C3353 1.366 . S
C3352 C3354 1.388 . S
C3353 C3352 1.366 . S
C3353 C3357 1.385 . S
C3354 H3335 0.951 . S
C3354 C3352 1.388 . S
C3354 C3355 1.366 . S
C3355 C3354 1.366 . S
C3355 C3356 1.414 . S
C3355 C3358 1.499 . S
C3356 H3336 0.950 . S
C3356 C3355 1.414 . S
C3356 C3357 1.374 . S
C3357 H3337 0.950 . S
C3357 C3353 1.385 . S
C3357 C3356 1.374 . S
C3358 C3355 1.499 . S
C3358 C3359 1.373 . S
C3358 C3360 1.389 . S
C3359 H3338 0.950 . S
C3359 C3358 1.373 . S
C3359 C3375 1.377 . S
C3360 C3358 1.389 . S
C3360 C3361 1.524 . S
C3360 C3374 1.377 . S
C3361 C3360 1.524 . S
C3361 C3362 1.397 . S
C3361 C3366 1.363 . S
C3362 H3339 0.950 . S
C3362 C3361 1.397 . S
C3362 C3363 1.334 . S
C3363 H3340 0.950 . S
C3363 C3362 1.334 . S
C3363 C3364 1.287 . S
C3364 C3363 1.287 . S
C3364 C3365 1.524 . S
C3364 H3383 0.913 . S
C3365 H3341 0.950 . S
C3365 C3364 1.524 . S
C3365 C3366 1.415 . S
C3366 H3342 0.950 . S
C3366 C3361 1.363 . S
C3366 C3365 1.415 . S
C3367 H3343 0.951 . S
C3367 C3368 1.366 . S
C3367 C3369 1.388 . S
C3368 C3367 1.366 . S
C3368 C3372 1.385 . S
C3369 H3344 0.951 . S
C3369 C3367 1.388 . S
C3369 C3370 1.366 . S
C3370 C3369 1.366 . S
C3370 C3371 1.414 . S
C3370 C3373 1.499 . S
C3371 H3345 0.950 . S
C3371 C3370 1.414 . S
C3371 C3372 1.374 . S
C3372 H3346 0.950 . S
C3372 C3368 1.385 . S
C3372 C3371 1.374 . S
C3373 C3370 1.499 . S
C3373 C3374 1.373 . S
C3373 C3375 1.389 . S
C3374 H3347 0.950 . S
C3374 C3360 1.377 . S
C3374 C3373 1.373 . S
C3375 C3359 1.377 . S
C3375 C3373 1.389 . S
C3375 C3376 1.524 . S
C3376 C3375 1.524 . S
C3376 C3377 1.397 . S
C3376 C3381 1.363 . S
C3377 H3348 0.950 . S
C3377 C3376 1.397 . S
C3377 C3378 1.334 . S
C3378 H3349 0.950 . S
C3378 C3377 1.334 . S
C3378 C3379 1.287 . S
C3379 C3378 1.287 . S
C3379 C3380 1.524 . S
C3379 H3382 0.999 . S
C3380 H3350 0.950 . S
C3380 C3379 1.524 . S
C3380 C3381 1.415 . S
C3381 H3351 0.950 . S
C3381 C3376 1.363 . S
C3381 C3380 1.415 . S
H3382 C3379 0.999 . S
H3383 C3364 0.913 . S
H3384 C3402 0.951 . S
H3385 C3404 0.951 . S
H3386 C3406 0.950 . S
H3387 C3407 0.950 . S
H3388 C3409 0.950 . S
H3389 C3412 0.950 . S
H3390 C3413 0.950 . S
H3391 C3415 0.950 . S
H3392 C3416 0.950 . S
H3393 C3417 0.951 . S
H3394 C3419 0.951 . S
H3395 C3421 0.950 . S
H3396 C3422 0.950 . S
H3397 C3424 0.950 . S
H3398 C3427 0.950 . S
H3399 C3428 0.950 . S
H3400 C3430 0.950 . S
H3401 C3431 0.950 . S
C3402 H3384 0.951 . S
C3402 C3403 1.366 . S
C3402 C3404 1.388 . S
C3403 C3402 1.366 . S
C3403 C3407 1.385 . S
C3404 H3385 0.951 . S
C3404 C3402 1.388 . S
C3404 C3405 1.366 . S
C3405 C3404 1.366 . S
C3405 C3406 1.414 . S
C3405 C3408 1.499 . S
C3406 H3386 0.950 . S
C3406 C3405 1.414 . S
C3406 C3407 1.374 . S
C3407 H3387 0.950 . S
C3407 C3403 1.385 . S
C3407 C3406 1.374 . S
C3408 C3405 1.499 . S
C3408 C3409 1.373 . S
C3408 C3410 1.389 . S
C3409 H3388 0.950 . S
C3409 C3408 1.373 . S
C3409 C3425 1.377 . S
C3410 C3408 1.389 . S
C3410 C3411 1.524 . S
C3410 C3424 1.377 . S
C3411 C3410 1.524 . S
C3411 C3412 1.397 . S
C3411 C3416 1.363 . S
C3412 H3389 0.950 . S
C3412 C3411 1.397 . S
C3412 C3413 1.334 . S
C3413 H3390 0.950 . S
C3413 C3412 1.334 . S
C3413 C3414 1.287 . S
C3414 C3413 1.287 . S
C3414 C3415 1.524 . S
C3414 H3433 0.913 . S
C3415 H3391 0.950 . S
C3415 C3414 1.524 . S
C3415 C3416 1.415 . S
C3416 H3392 0.950 . S
C3416 C3411 1.363 . S
C3416 C3415 1.415 . S
C3417 H3393 0.951 . S
C3417 C3418 1.366 . S
C3417 C3419 1.388 . S
C3418 C3417 1.366 . S
C3418 C3422 1.385 . S
C3419 H3394 0.951 . S
C3419 C3417 1.388 . S
C3419 C3420 1.366 . S
C3420 C3419 1.366 . S
C3420 C3421 1.414 . S
C3420 C3423 1.499 . S
C3421 H3395 0.950 . S
C3421 C3420 1.414 . S
C3421 C3422 1.374 . S
C3422 H3396 0.950 . S
C3422 C3418 1.385 . S
C3422 C3421 1.374 . S
C3423 C3420 1.499 . S
C3423 C3424 1.373 . S
C3423 C3425 1.389 . S
C3424 H3397 0.950 . S
C3424 C3410 1.377 . S
C3424 C3423 1.373 . S
C3425 C3409 1.377 . S
C3425 C3423 1.389 . S
C3425 C3426 1.524 . S
C3426 C3425 1.524 . S
C3426 C3427 1.397 . S
C3426 C3431 1.363 . S
C3427 H3398 0.950 . S
C3427 C3426 1.397 . S
C3427 C3428 1.334 . S
C3428 H3399 0.950 . S
C3428 C3427 1.334 . S
C3428 C3429 1.287 . S
C3429 C3428 1.287 . S
C3429 C3430 1.524 . S
C3429 H3432 0.999 . S
C3430 H3400 0.950 . S
C3430 C3429 1.524 . S
C3430 C3431 1.415 . S
C3431 H3401 0.950 . S
C3431 C3426 1.363 . S
C3431 C3430 1.415 . S
H3432 C3429 0.999 . S
H3433 C3414 0.913 . S
H3434 C3452 0.951 . S
H3435 C3454 0.951 . S
H3436 C3456 0.950 . S
H3437 C3457 0.950 . S
H3438 C3459 0.950 . S
H3439 C3462 0.950 . S
H3440 C3463 0.950 . S
H3441 C3465 0.950 . S
H3442 C3466 0.950 . S
H3443 C3467 0.951 . S
H3444 C3469 0.951 . S
H3445 C3471 0.950 . S
H3446 C3472 0.950 . S
H3447 C3474 0.950 . S
H3448 C3477 0.950 . S
H3449 C3478 0.950 . S
H3450 C3480 0.950 . S
H3451 C3481 0.950 . S
C3452 H3434 0.951 . S
C3452 C3453 1.366 . S
C3452 C3454 1.388 . S
C3453 C3452 1.366 . S
C3453 C3457 1.385 . S
C3454 H3435 0.951 . S
C3454 C3452 1.388 . S
C3454 C3455 1.366 . S
C3455 C3454 1.366 . S
C3455 C3456 1.414 . S
C3455 C3458 1.499 . S
C3456 H3436 0.950 . S
C3456 C3455 1.414 . S
C3456 C3457 1.374 . S
C3457 H3437 0.950 . S
C3457 C3453 1.385 . S
C3457 C3456 1.374 . S
C3458 C3455 1.499 . S
C3458 C3459 1.373 . S
C3458 C3460 1.389 . S
C3459 H3438 0.950 . S
C3459 C3458 1.373 . S
C3459 C3475 1.377 . S
C3460 C3458 1.389 . S
C3460 C3461 1.524 . S
C3460 C3474 1.377 . S
C3461 C3460 1.524 . S
C3461 C3462 1.397 . S
C3461 C3466 1.363 . S
C3462 H3439 0.950 . S
C3462 C3461 1.397 . S
C3462 C3463 1.334 . S
C3463 H3440 0.950 . S
C3463 C3462 1.334 . S
C3463 C3464 1.287 . S
C3464 C3463 1.287 . S
C3464 C3465 1.524 . S
C3464 H3483 0.913 . S
C3465 H3441 0.950 . S
C3465 C3464 1.524 . S
C3465 C3466 1.415 . S
C3466 H3442 0.950 . S
C3466 C3461 1.363 . S
C3466 C3465 1.415 . S
C3467 H3443 0.951 . S
C3467 C3468 1.366 . S
C3467 C3469 1.388 . S
C3468 C3467 1.366 . S
C3468 C3472 1.385 . S
C3469 H3444 0.951 . S
C3469 C3467 1.388 . S
C3469 C3470 1.366 . S
C3470 C3469 1.366 . S
C3470 C3471 1.414 . S
C3470 C3473 1.499 . S
C3471 H3445 0.950 . S
C3471 C3470 1.414 . S
C3471 C3472 1.374 . S
C3472 H3446 0.950 . S
C3472 C3468 1.385 . S
C3472 C3471 1.374 . S
C3473 C3470 1.499 . S
C3473 C3474 1.373 . S
C3473 C3475 1.389 . S
C3474 H3447 0.950 . S
C3474 C3460 1.377 . S
C3474 C3473 1.373 . S
C3475 C3459 1.377 . S
C3475 C3473 1.389 . S
C3475 C3476 1.524 . S
C3476 C3475 1.524 . S
C3476 C3477 1.397 . S
C3476 C3481 1.363 . S
C3477 H3448 0.950 . S
C3477 C3476 1.397 . S
C3477 C3478 1.334 . S
C3478 H3449 0.950 . S
C3478 C3477 1.334 . S
C3478 C3479 1.287 . S
C3479 C3478 1.287 . S
C3479 C3480 1.524 . S
C3479 H3482 0.999 . S
C3480 H3450 0.950 . S
C3480 C3479 1.524 . S
C3480 C3481 1.415 . S
C3481 H3451 0.950 . S
C3481 C3476 1.363 . S
C3481 C3480 1.415 . S
H3482 C3479 0.999 . S
H3483 C3464 0.913 . S
H3484 C3502 0.951 . S
H3485 C3504 0.951 . S
H3486 C3506 0.950 . S
H3487 C3507 0.950 . S
H3488 C3509 0.950 . S
H3489 C3512 0.950 . S
H3490 C3513 0.950 . S
H3491 C3515 0.950 . S
H3492 C3516 0.950 . S
H3493 C3517 0.951 . S
H3494 C3519 0.951 . S
H3495 C3521 0.950 . S
H3496 C3522 0.950 . S
H3497 C3524 0.950 . S
H3498 C3527 0.950 . S
H3499 C3528 0.950 . S
H3500 C3530 0.950 . S
H3501 C3531 0.950 . S
C3502 H3484 0.951 . S
C3502 C3503 1.366 . S
C3502 C3504 1.388 . S
C3503 C3502 1.366 . S
C3503 C3507 1.385 . S
C3504 H3485 0.951 . S
C3504 C3502 1.388 . S
C3504 C3505 1.366 . S
C3505 C3504 1.366 . S
C3505 C3506 1.414 . S
C3505 C3508 1.499 . S
C3506 H3486 0.950 . S
C3506 C3505 1.414 . S
C3506 C3507 1.374 . S
C3507 H3487 0.950 . S
C3507 C3503 1.385 . S
C3507 C3506 1.374 . S
C3508 C3505 1.499 . S
C3508 C3509 1.373 . S
C3508 C3510 1.389 . S
C3509 H3488 0.950 . S
C3509 C3508 1.373 . S
C3509 C3525 1.377 . S
C3510 C3508 1.389 . S
C3510 C3511 1.524 . S
C3510 C3524 1.377 . S
C3511 C3510 1.524 . S
C3511 C3512 1.397 . S
C3511 C3516 1.363 . S
C3512 H3489 0.950 . S
C3512 C3511 1.397 . S
C3512 C3513 1.334 . S
C3513 H3490 0.950 . S
C3513 C3512 1.334 . S
C3513 C3514 1.287 . S
C3514 C3513 1.287 . S
C3514 C3515 1.524 . S
C3514 H3533 0.913 . S
C3515 H3491 0.950 . S
C3515 C3514 1.524 . S
C3515 C3516 1.415 . S
C3516 H3492 0.950 . S
C3516 C3511 1.363 . S
C3516 C3515 1.415 . S
C3517 H3493 0.951 . S
C3517 C3518 1.366 . S
C3517 C3519 1.388 . S
C3518 C3517 1.366 . S
C3518 C3522 1.385 . S
C3519 H3494 0.951 . S
C3519 C3517 1.388 . S
C3519 C3520 1.366 . S
C3520 C3519 1.366 . S
C3520 C3521 1.414 . S
C3520 C3523 1.499 . S
C3521 H3495 0.950 . S
C3521 C3520 1.414 . S
C3521 C3522 1.374 . S
C3522 H3496 0.950 . S
C3522 C3518 1.385 . S
C3522 C3521 1.374 . S
C3523 C3520 1.499 . S
C3523 C3524 1.373 . S
C3523 C3525 1.389 . S
C3524 H3497 0.950 . S
C3524 C3510 1.377 . S
C3524 C3523 1.373 . S
C3525 C3509 1.377 . S
C3525 C3523 1.389 . S
C3525 C3526 1.524 . S
C3526 C3525 1.524 . S
C3526 C3527 1.397 . S
C3526 C3531 1.363 . S
C3527 H3498 0.950 . S
C3527 C3526 1.397 . S
C3527 C3528 1.334 . S
C3528 H3499 0.950 . S
C3528 C3527 1.334 . S
C3528 C3529 1.287 . S
C3529 C3528 1.287 . S
C3529 C3530 1.524 . S
C3529 H3532 0.999 . S
C3530 H3500 0.950 . S
C3530 C3529 1.524 . S
C3530 C3531 1.415 . S
C3531 H3501 0.950 . S
C3531 C3526 1.363 . S
C3531 C3530 1.415 . S
H3532 C3529 0.999 . S
H3533 C3514 0.913 . S
H3534 C3552 0.951 . S
H3535 C3554 0.978 . S
H3536 C3556 0.950 . S
H3537 C3557 0.950 . S
H3538 C3559 0.950 . S
H3539 C3562 0.950 . S
H3540 C3563 0.950 . S
H3541 C3565 0.950 . S
H3542 C3566 0.950 . S
H3543 C3567 0.951 . S
H3544 C3569 0.951 . S
H3545 C3571 0.950 . S
H3546 C3572 0.950 . S
H3547 C3574 0.950 . S
H3548 C3577 0.950 . S
H3549 C3578 0.950 . S
H3550 C3580 0.950 . S
H3551 C3581 0.950 . S
C3552 H3534 0.951 . S
C3552 C3553 1.354 1_554 S
C3552 C3554 1.411 . S
C3553 C3552 1.354 1_556 S
C3553 C3557 1.407 . S
C3554 H3535 0.978 . S
C3554 C3552 1.411 . S
C3554 C3555 1.317 1_554 S
C3555 C3554 1.317 1_556 S
C3555 C3556 1.414 . S
C3555 C3558 1.499 . S
C3556 H3536 0.950 . S
C3556 C3555 1.414 . S
C3556 C3557 1.374 . S
C3557 H3537 0.950 . S
C3557 C3553 1.407 . S
C3557 C3556 1.374 . S
C3558 C3555 1.499 . S
C3558 C3559 1.373 . S
C3558 C3560 1.389 . S
C3559 H3538 0.950 . S
C3559 C3558 1.373 . S
C3559 C3575 1.377 . S
C3560 C3558 1.389 . S
C3560 C3561 1.524 . S
C3560 C3574 1.377 . S
C3561 C3560 1.524 . S
C3561 C3562 1.397 . S
C3561 C3566 1.363 1_556 S
C3562 H3539 0.950 . S
C3562 C3561 1.397 . S
C3562 C3563 1.334 . S
C3563 H3540 0.950 . S
C3563 C3562 1.334 . S
C3563 C3564 1.287 1_556 S
C3564 C3563 1.287 1_554 S
C3564 C3565 1.524 . S
C3564 H3583 0.913 . S
C3565 H3541 0.950 . S
C3565 C3564 1.524 . S
C3565 C3566 1.415 . S
C3566 H3542 0.950 . S
C3566 C3561 1.363 1_554 S
C3566 C3565 1.415 . S
C3567 H3543 0.951 . S
C3567 C3568 1.366 . S
C3567 C3569 1.388 . S
C3568 C3567 1.366 . S
C3568 C3572 1.385 . S
C3569 H3544 0.951 . S
C3569 C3567 1.388 . S
C3569 C3570 1.366 . S
C3570 C3569 1.366 . S
C3570 C3571 1.414 . S
C3570 C3573 1.499 . S
C3571 H3545 0.950 . S
C3571 C3570 1.414 . S
C3571 C3572 1.374 . S
C3572 H3546 0.950 . S
C3572 C3568 1.385 . S
C3572 C3571 1.374 . S
C3573 C3570 1.499 . S
C3573 C3574 1.373 . S
C3573 C3575 1.389 . S
C3574 H3547 0.950 . S
C3574 C3560 1.377 . S
C3574 C3573 1.373 . S
C3575 C3559 1.377 . S
C3575 C3573 1.389 . S
C3575 C3576 1.524 . S
C3576 C3575 1.524 . S
C3576 C3577 1.397 . S
C3576 C3581 1.363 . S
C3577 H3548 0.950 . S
C3577 C3576 1.397 . S
C3577 C3578 1.334 . S
C3578 H3549 0.950 . S
C3578 C3577 1.334 . S
C3578 C3579 1.287 . S
C3579 C3578 1.287 . S
C3579 C3580 1.524 . S
C3579 H3582 0.999 . S
C3580 H3550 0.950 . S
C3580 C3579 1.524 . S
C3580 C3581 1.415 . S
C3581 H3551 0.950 . S
C3581 C3576 1.363 . S
C3581 C3580 1.415 . S
H3582 C3579 0.999 . S
H3583 C3564 0.913 . S
H3584 C3602 0.951 . S
H3585 C3604 0.951 . S
H3586 C3606 0.950 . S
H3587 C3607 0.950 . S
H3588 C3609 0.950 . S
H3589 C3612 0.950 . S
H3590 C3613 0.950 1_455 S
H3591 C3615 0.950 . S
H3592 C3616 0.950 . S
H3593 C3617 0.951 . S
H3594 C3619 0.951 . S
H3595 C3621 0.950 . S
H3596 C3622 0.950 . S
H3597 C3624 0.950 . S
H3598 C3627 0.950 . S
H3599 C3628 0.950 . S
H3600 C3630 0.950 . S
H3601 C3631 0.950 . S
C3602 H3584 0.951 . S
C3602 C3603 1.366 1_554 S
C3602 C3604 1.388 1_554 S
C3603 C3602 1.366 1_556 S
C3603 C3607 1.385 . S
C3604 H3585 0.951 . S
C3604 C3602 1.388 1_556 S
C3604 C3605 1.366 . S
C3605 C3604 1.366 . S
C3605 C3606 1.414 . S
C3605 C3608 1.499 . S
C3606 H3586 0.950 . S
C3606 C3605 1.414 . S
C3606 C3607 1.374 . S
C3607 H3587 0.950 . S
C3607 C3603 1.385 . S
C3607 C3606 1.374 . S
C3608 C3605 1.499 . S
C3608 C3609 1.373 . S
C3608 C3610 1.389 . S
C3609 H3588 0.950 . S
C3609 C3608 1.373 . S
C3609 C3625 1.377 . S
C3610 C3608 1.389 . S
C3610 C3611 1.524 . S
C3610 C3624 1.377 . S
C3611 C3610 1.524 . S
C3611 C3612 1.397 . S
C3611 C3616 1.363 . S
C3612 H3589 0.950 . S
C3612 C3611 1.397 . S
C3612 C3613 1.334 . S
C3613 H3590 0.950 1_655 S
C3613 C3612 1.334 . S
C3613 C3614 1.287 . S
C3614 C3613 1.287 . S
C3614 C3615 1.524 . S
C3614 H3633 0.913 1_655 S
C3615 H3591 0.950 . S
C3615 C3614 1.524 . S
C3615 C3616 1.415 . S
C3616 H3592 0.950 . S
C3616 C3611 1.363 . S
C3616 C3615 1.415 . S
C3617 H3593 0.951 . S
C3617 C3618 1.366 . S
C3617 C3619 1.388 . S
C3618 C3617 1.366 . S
C3618 C3622 1.385 . S
C3619 H3594 0.951 . S
C3619 C3617 1.388 . S
C3619 C3620 1.366 . S
C3620 C3619 1.366 . S
C3620 C3621 1.414 . S
C3620 C3623 1.499 . S
C3621 H3595 0.950 . S
C3621 C3620 1.414 . S
C3621 C3622 1.374 . S
C3622 H3596 0.950 . S
C3622 C3618 1.385 . S
C3622 C3621 1.374 . S
C3623 C3620 1.499 . S
C3623 C3624 1.373 . S
C3623 C3625 1.389 . S
C3624 H3597 0.950 . S
C3624 C3610 1.377 . S
C3624 C3623 1.373 . S
C3625 C3609 1.377 . S
C3625 C3623 1.389 . S
C3625 C3626 1.524 . S
C3626 C3625 1.524 . S
C3626 C3627 1.397 . S
C3626 C3631 1.363 . S
C3627 H3598 0.950 . S
C3627 C3626 1.397 . S
C3627 C3628 1.334 . S
C3628 H3599 0.950 . S
C3628 C3627 1.334 . S
C3628 C3629 1.287 . S
C3629 C3628 1.287 . S
C3629 C3630 1.524 . S
C3629 H3632 0.999 . S
C3630 H3600 0.950 . S
C3630 C3629 1.524 . S
C3630 C3631 1.415 . S
C3631 H3601 0.950 . S
C3631 C3626 1.363 . S
C3631 C3630 1.415 . S
H3632 C3629 0.999 . S
H3633 C3614 0.913 1_455 S
H3634 C3652 0.951 . S
H3635 C3654 0.951 . S
H3636 C3656 0.950 1_556 S
H3637 C3657 0.950 . S
H3638 C3659 0.950 . S
H3639 C3662 0.950 . S
H3640 C3663 0.950 . S
H3641 C3665 0.950 . S
H3642 C3666 0.950 . S
H3643 C3667 0.951 . S
H3644 C3669 0.951 . S
H3645 C3671 0.950 . S
H3646 C3672 0.950 . S
H3647 C3674 0.950 . S
H3648 C3677 0.950 . S
H3649 C3678 0.950 . S
H3650 C3680 0.950 . S
H3651 C3681 0.950 . S
C3652 H3634 0.951 . S
C3652 C3653 1.366 . S
C3652 C3654 1.388 . S
C3653 C3652 1.366 . S
C3653 C3657 1.385 . S
C3654 H3635 0.951 . S
C3654 C3652 1.388 . S
C3654 C3655 1.366 . S
C3655 C3654 1.366 . S
C3655 C3656 1.414 . S
C3655 C3658 1.499 . S
C3656 H3636 0.950 1_554 S
C3656 C3655 1.414 . S
C3656 C3657 1.374 . S
C3657 H3637 0.950 . S
C3657 C3653 1.385 . S
C3657 C3656 1.374 . S
C3658 C3655 1.499 . S
C3658 C3659 1.373 1_554 S
C3658 C3660 1.389 . S
C3659 H3638 0.950 . S
C3659 C3658 1.373 1_556 S
C3659 C3675 1.377 . S
C3660 C3658 1.389 . S
C3660 C3661 1.524 . S
C3660 C3674 1.377 . S
C3661 C3660 1.524 . S
C3661 C3662 1.397 . S
C3661 C3666 1.363 . S
C3662 H3639 0.950 . S
C3662 C3661 1.397 . S
C3662 C3663 1.334 . S
C3663 H3640 0.950 . S
C3663 C3662 1.334 . S
C3663 C3664 1.287 . S
C3664 C3663 1.287 . S
C3664 C3665 1.524 . S
C3664 H3683 0.913 . S
C3665 H3641 0.950 . S
C3665 C3664 1.524 . S
C3665 C3666 1.415 . S
C3666 H3642 0.950 . S
C3666 C3661 1.363 . S
C3666 C3665 1.415 . S
C3667 H3643 0.951 . S
C3667 C3668 1.366 . S
C3667 C3669 1.388 . S
C3668 C3667 1.366 . S
C3668 C3672 1.385 . S
C3669 H3644 0.951 . S
C3669 C3667 1.388 . S
C3669 C3670 1.366 . S
C3670 C3669 1.366 . S
C3670 C3671 1.414 . S
C3670 C3673 1.499 . S
C3671 H3645 0.950 . S
C3671 C3670 1.414 . S
C3671 C3672 1.374 . S
C3672 H3646 0.950 . S
C3672 C3668 1.385 . S
C3672 C3671 1.374 . S
C3673 C3670 1.499 . S
C3673 C3674 1.373 1_556 S
C3673 C3675 1.389 . S
C3674 H3647 0.950 . S
C3674 C3660 1.377 . S
C3674 C3673 1.373 1_554 S
C3675 C3659 1.377 . S
C3675 C3673 1.389 . S
C3675 C3676 1.524 . S
C3676 C3675 1.524 . S
C3676 C3677 1.397 . S
C3676 C3681 1.363 . S
C3677 H3648 0.950 . S
C3677 C3676 1.397 . S
C3677 C3678 1.334 . S
C3678 H3649 0.950 . S
C3678 C3677 1.334 . S
C3678 C3679 1.287 . S
C3679 C3678 1.287 . S
C3679 C3680 1.524 . S
C3679 H3682 0.999 . S
C3680 H3650 0.950 . S
C3680 C3679 1.524 . S
C3680 C3681 1.415 . S
C3681 H3651 0.950 . S
C3681 C3676 1.363 . S
C3681 C3680 1.415 . S
H3682 C3679 0.999 . S
H3683 C3664 0.913 . S
H3684 C3702 0.951 . S
H3685 C3704 0.951 . S
H3686 C3706 0.950 . S
H3687 C3707 0.950 . S
H3688 C3709 0.950 . S
H3689 C3712 0.950 . S
H3690 C3713 0.950 . S
H3691 C3715 0.950 . S
H3692 C3716 0.950 . S
H3693 C3717 0.951 . S
H3694 C3719 0.951 . S
H3695 C3721 0.950 . S
H3696 C3722 0.950 . S
H3697 C3724 0.950 . S
H3698 C3727 0.950 . S
H3699 C3728 0.950 . S
H3700 C3730 0.950 . S
H3701 C3731 0.950 . S
C3702 H3684 0.951 . S
C3702 C3703 1.366 . S
C3702 C3704 1.388 . S
C3703 C3702 1.366 . S
C3703 C3707 1.385 1_554 S
C3704 H3685 0.951 . S
C3704 C3702 1.388 . S
C3704 C3705 1.366 1_554 S
C3705 C3704 1.366 1_556 S
C3705 C3706 1.414 . S
C3705 C3708 1.499 . S
C3706 H3686 0.950 . S
C3706 C3705 1.414 . S
C3706 C3707 1.374 . S
C3707 H3687 0.950 . S
C3707 C3703 1.385 1_556 S
C3707 C3706 1.374 . S
C3708 C3705 1.499 . S
C3708 C3709 1.373 . S
C3708 C3710 1.389 . S
C3709 H3688 0.950 . S
C3709 C3708 1.373 . S
C3709 C3725 1.377 . S
C3710 C3708 1.389 . S
C3710 C3711 1.524 . S
C3710 C3724 1.377 . S
C3711 C3710 1.524 . S
C3711 C3712 1.397 . S
C3711 C3716 1.363 . S
C3712 H3689 0.950 . S
C3712 C3711 1.397 . S
C3712 C3713 1.334 . S
C3713 H3690 0.950 . S
C3713 C3712 1.334 . S
C3713 C3714 1.287 . S
C3714 C3713 1.287 . S
C3714 C3715 1.524 1_556 S
C3714 H3733 0.912 . S
C3715 H3691 0.950 . S
C3715 C3714 1.524 1_554 S
C3715 C3716 1.415 1_554 S
C3716 H3692 0.950 . S
C3716 C3711 1.363 . S
C3716 C3715 1.415 1_556 S
C3717 H3693 0.951 . S
C3717 C3718 1.366 . S
C3717 C3719 1.388 . S
C3718 C3717 1.366 . S
C3718 C3722 1.385 . S
C3719 H3694 0.951 . S
C3719 C3717 1.388 . S
C3719 C3720 1.366 . S
C3720 C3719 1.366 . S
C3720 C3721 1.414 . S
C3720 C3723 1.499 . S
C3721 H3695 0.950 . S
C3721 C3720 1.414 . S
C3721 C3722 1.374 . S
C3722 H3696 0.950 . S
C3722 C3718 1.385 . S
C3722 C3721 1.374 . S
C3723 C3720 1.499 . S
C3723 C3724 1.373 . S
C3723 C3725 1.389 . S
C3724 H3697 0.950 . S
C3724 C3710 1.377 . S
C3724 C3723 1.373 . S
C3725 C3709 1.377 . S
C3725 C3723 1.389 . S
C3725 C3726 1.524 . S
C3726 C3725 1.524 . S
C3726 C3727 1.397 . S
C3726 C3731 1.363 . S
C3727 H3698 0.950 . S
C3727 C3726 1.397 . S
C3727 C3728 1.334 . S
C3728 H3699 0.950 . S
C3728 C3727 1.334 . S
C3728 C3729 1.287 . S
C3729 C3728 1.287 . S
C3729 C3730 1.524 . S
C3729 H3732 0.999 . S
C3730 H3700 0.950 . S
C3730 C3729 1.524 . S
C3730 C3731 1.415 . S
C3731 H3701 0.950 . S
C3731 C3726 1.363 . S
C3731 C3730 1.415 . S
H3732 C3729 0.999 . S
H3733 C3714 0.912 . S
H3734 C3752 0.951 . S
H3735 C3754 0.951 . S
H3736 C3756 0.950 . S
H3737 C3757 0.950 . S
H3738 C3759 0.950 . S
H3739 C3762 0.950 . S
H3740 C3763 0.950 . S
H3741 C3765 0.950 . S
H3742 C3766 0.950 . S
H3743 C3767 0.951 . S
H3744 C3769 0.951 . S
H3745 C3771 0.950 . S
H3746 C3772 0.950 . S
H3747 C3774 0.950 . S
H3748 C3777 0.950 . S
H3749 C3778 0.950 . S
H3750 C3780 0.950 . S
H3751 C3781 0.950 . S
C3752 H3734 0.951 . S
C3752 C3753 1.366 . S
C3752 C3754 1.388 . S
C3753 C3752 1.366 . S
C3753 C3757 1.385 . S
C3754 H3735 0.951 . S
C3754 C3752 1.388 . S
C3754 C3755 1.366 . S
C3755 C3754 1.366 . S
C3755 C3756 1.414 . S
C3755 C3758 1.499 . S
C3756 H3736 0.950 . S
C3756 C3755 1.414 . S
C3756 C3757 1.374 . S
C3757 H3737 0.950 . S
C3757 C3753 1.385 . S
C3757 C3756 1.374 . S
C3758 C3755 1.499 . S
C3758 C3759 1.373 . S
C3758 C3760 1.389 . S
C3759 H3738 0.950 . S
C3759 C3758 1.373 . S
C3759 C3775 1.377 . S
C3760 C3758 1.389 . S
C3760 C3761 1.524 . S
C3760 C3774 1.377 . S
C3761 C3760 1.524 . S
C3761 C3762 1.397 . S
C3761 C3766 1.363 . S
C3762 H3739 0.950 . S
C3762 C3761 1.397 . S
C3762 C3763 1.334 . S
C3763 H3740 0.950 . S
C3763 C3762 1.334 . S
C3763 C3764 1.287 . S
C3764 C3763 1.287 . S
C3764 C3765 1.524 . S
C3764 H3783 0.913 . S
C3765 H3741 0.950 . S
C3765 C3764 1.524 . S
C3765 C3766 1.415 . S
C3766 H3742 0.950 . S
C3766 C3761 1.363 . S
C3766 C3765 1.415 . S
C3767 H3743 0.951 . S
C3767 C3768 1.366 . S
C3767 C3769 1.388 . S
C3768 C3767 1.366 . S
C3768 C3772 1.385 . S
C3769 H3744 0.951 . S
C3769 C3767 1.388 . S
C3769 C3770 1.366 . S
C3770 C3769 1.366 . S
C3770 C3771 1.414 . S
C3770 C3773 1.499 . S
C3771 H3745 0.950 . S
C3771 C3770 1.414 . S
C3771 C3772 1.374 . S
C3772 H3746 0.950 . S
C3772 C3768 1.385 . S
C3772 C3771 1.374 . S
C3773 C3770 1.499 . S
C3773 C3774 1.373 . S
C3773 C3775 1.389 . S
C3774 H3747 0.950 . S
C3774 C3760 1.377 . S
C3774 C3773 1.373 . S
C3775 C3759 1.377 . S
C3775 C3773 1.389 . S
C3775 C3776 1.524 . S
C3776 C3775 1.524 . S
C3776 C3777 1.397 . S
C3776 C3781 1.363 . S
C3777 H3748 0.950 . S
C3777 C3776 1.397 . S
C3777 C3778 1.334 . S
C3778 H3749 0.950 . S
C3778 C3777 1.334 . S
C3778 C3779 1.287 . S
C3779 C3778 1.287 . S
C3779 C3780 1.524 . S
C3779 H3782 0.999 . S
C3780 H3750 0.950 . S
C3780 C3779 1.524 . S
C3780 C3781 1.415 . S
C3781 H3751 0.950 . S
C3781 C3776 1.363 . S
C3781 C3780 1.415 . S
H3782 C3779 0.999 . S
H3783 C3764 0.913 . S
H3784 C3802 0.951 . S
H3785 C3804 0.951 . S
H3786 C3806 0.939 1_556 S
H3787 C3807 0.950 . S
H3788 C3809 0.950 . S
H3789 C3812 0.950 . S
H3790 C3813 0.950 . S
H3791 C3815 0.950 . S
H3792 C3816 0.950 . S
H3793 C3817 0.951 . S
H3794 C3819 0.951 . S
H3795 C3821 0.950 . S
H3796 C3822 0.950 . S
H3797 C3824 0.950 . S
H3798 C3827 0.950 . S
H3799 C3828 0.950 . S
H3800 C3830 0.950 . S
H3801 C3831 0.950 . S
C3802 H3784 0.951 . S
C3802 C3803 1.366 . S
C3802 C3804 1.388 . S
C3803 C3802 1.366 . S
C3803 C3807 1.385 . S
C3804 H3785 0.951 . S
C3804 C3802 1.388 . S
C3804 C3805 1.366 . S
C3805 C3804 1.366 . S
C3805 C3806 1.416 . S
C3805 C3808 1.499 1_554 S
C3806 H3786 0.939 1_554 S
C3806 C3805 1.416 . S
C3806 C3807 1.383 . S
C3807 H3787 0.950 . S
C3807 C3803 1.385 . S
C3807 C3806 1.383 . S
C3808 C3805 1.499 1_556 S
C3808 C3809 1.373 . S
C3808 C3810 1.389 1_556 S
C3809 H3788 0.950 . S
C3809 C3808 1.373 . S
C3809 C3825 1.377 . S
C3810 C3808 1.389 1_554 S
C3810 C3811 1.524 . S
C3810 C3824 1.377 1_554 S
C3811 C3810 1.524 . S
C3811 C3812 1.397 . S
C3811 C3816 1.363 . S
C3812 H3789 0.950 . S
C3812 C3811 1.397 . S
C3812 C3813 1.334 . S
C3813 H3790 0.950 . S
C3813 C3812 1.334 . S
C3813 C3814 1.287 . S
C3814 C3813 1.287 . S
C3814 C3815 1.524 . S
C3814 H3833 0.913 . S
C3815 H3791 0.950 . S
C3815 C3814 1.524 . S
C3815 C3816 1.415 . S
C3816 H3792 0.950 . S
C3816 C3811 1.363 . S
C3816 C3815 1.415 . S
C3817 H3793 0.951 . S
C3817 C3818 1.366 . S
C3817 C3819 1.388 . S
C3818 C3817 1.366 . S
C3818 C3822 1.385 . S
C3819 H3794 0.951 . S
C3819 C3817 1.388 . S
C3819 C3820 1.366 . S
C3820 C3819 1.366 . S
C3820 C3821 1.414 . S
C3820 C3823 1.499 . S
C3821 H3795 0.950 . S
C3821 C3820 1.414 . S
C3821 C3822 1.374 . S
C3822 H3796 0.950 . S
C3822 C3818 1.385 . S
C3822 C3821 1.374 . S
C3823 C3820 1.499 . S
C3823 C3824 1.373 . S
C3823 C3825 1.389 . S
C3824 H3797 0.950 . S
C3824 C3810 1.377 1_556 S
C3824 C3823 1.373 . S
C3825 C3809 1.377 . S
C3825 C3823 1.389 . S
C3825 C3826 1.524 . S
C3826 C3825 1.524 . S
C3826 C3827 1.397 . S
C3826 C3831 1.363 . S
C3827 H3798 0.950 . S
C3827 C3826 1.397 . S
C3827 C3828 1.334 . S
C3828 H3799 0.950 . S
C3828 C3827 1.334 . S
C3828 C3829 1.287 . S
C3829 C3828 1.287 . S
C3829 C3830 1.524 . S
C3829 H3832 0.999 . S
C3830 H3800 0.950 . S
C3830 C3829 1.524 . S
C3830 C3831 1.415 . S
C3831 H3801 0.950 . S
C3831 C3826 1.363 . S
C3831 C3830 1.415 . S
H3832 C3829 0.999 . S
H3833 C3814 0.913 . S
H3834 C3852 0.951 . S
H3835 C3854 0.951 . S
H3836 C3856 0.950 . S
H3837 C3857 0.950 . S
H3838 C3859 0.950 . S
H3839 C3862 0.950 . S
H3840 C3863 0.950 . S
H3841 C3865 0.950 . S
H3842 C3866 0.950 . S
H3843 C3867 0.951 . S
H3844 C3869 0.951 . S
H3845 C3871 0.950 . S
H3846 C3872 0.950 . S
H3847 C3874 0.950 . S
H3848 C3877 0.950 . S
H3849 C3878 0.950 . S
H3850 C3880 0.950 . S
H3851 C3881 0.950 . S
C3852 H3834 0.951 . S
C3852 C3853 1.366 . S
C3852 C3854 1.388 . S
C3853 C3852 1.366 . S
C3853 C3857 1.385 . S
C3854 H3835 0.951 . S
C3854 C3852 1.388 . S
C3854 C3855 1.366 . S
C3855 C3854 1.366 . S
C3855 C3856 1.414 . S
C3855 C3858 1.499 . S
C3856 H3836 0.950 . S
C3856 C3855 1.414 . S
C3856 C3857 1.374 . S
C3857 H3837 0.950 . S
C3857 C3853 1.385 . S
C3857 C3856 1.374 . S
C3858 C3855 1.499 . S
C3858 C3859 1.373 . S
C3858 C3860 1.389 . S
C3859 H3838 0.950 . S
C3859 C3858 1.373 . S
C3859 C3875 1.377 . S
C3860 C3858 1.389 . S
C3860 C3861 1.524 . S
C3860 C3874 1.377 . S
C3861 C3860 1.524 . S
C3861 C3862 1.397 . S
C3861 C3866 1.363 . S
C3862 H3839 0.950 . S
C3862 C3861 1.397 . S
C3862 C3863 1.334 . S
C3863 H3840 0.950 . S
C3863 C3862 1.334 . S
C3863 C3864 1.287 . S
C3864 C3863 1.287 . S
C3864 C3865 1.524 . S
C3864 H3883 0.913 . S
C3865 H3841 0.950 . S
C3865 C3864 1.524 . S
C3865 C3866 1.415 . S
C3866 H3842 0.950 . S
C3866 C3861 1.363 . S
C3866 C3865 1.415 . S
C3867 H3843 0.951 . S
C3867 C3868 1.366 . S
C3867 C3869 1.388 . S
C3868 C3867 1.366 . S
C3868 C3872 1.385 . S
C3869 H3844 0.951 . S
C3869 C3867 1.388 . S
C3869 C3870 1.366 . S
C3870 C3869 1.366 . S
C3870 C3871 1.414 . S
C3870 C3873 1.499 . S
C3871 H3845 0.950 . S
C3871 C3870 1.414 . S
C3871 C3872 1.374 . S
C3872 H3846 0.950 . S
C3872 C3868 1.385 . S
C3872 C3871 1.374 . S
C3873 C3870 1.499 . S
C3873 C3874 1.373 . S
C3873 C3875 1.389 . S
C3874 H3847 0.950 . S
C3874 C3860 1.377 . S
C3874 C3873 1.373 . S
C3875 C3859 1.377 . S
C3875 C3873 1.389 . S
C3875 C3876 1.524 . S
C3876 C3875 1.524 . S
C3876 C3877 1.397 . S
C3876 C3881 1.363 . S
C3877 H3848 0.950 . S
C3877 C3876 1.397 . S
C3877 C3878 1.334 . S
C3878 H3849 0.950 . S
C3878 C3877 1.334 . S
C3878 C3879 1.287 . S
C3879 C3878 1.287 . S
C3879 C3880 1.524 . S
C3879 H3882 0.999 . S
C3880 H3850 0.950 . S
C3880 C3879 1.524 . S
C3880 C3881 1.415 . S
C3881 H3851 0.950 . S
C3881 C3876 1.363 . S
C3881 C3880 1.415 . S
H3882 C3879 0.999 . S
H3883 C3864 0.913 . S
H3884 C3902 0.951 . S
H3885 C3904 0.951 . S
H3886 C3906 0.950 . S
H3887 C3907 0.950 . S
H3888 C3909 0.950 . S
H3889 C3912 0.950 . S
H3890 C3913 0.950 . S
H3891 C3915 0.950 . S
H3892 C3916 0.950 . S
H3893 C3917 0.951 . S
H3894 C3919 0.951 . S
H3895 C3921 0.950 . S
H3896 C3922 0.950 . S
H3897 C3924 0.950 . S
H3898 C3927 0.950 . S
H3899 C3928 0.950 . S
H3900 C3930 0.950 . S
H3901 C3931 0.950 . S
C3902 H3884 0.951 . S
C3902 C3903 1.366 . S
C3902 C3904 1.388 . S
C3903 C3902 1.366 . S
C3903 C3907 1.385 . S
C3904 H3885 0.951 . S
C3904 C3902 1.388 . S
C3904 C3905 1.366 . S
C3905 C3904 1.366 . S
C3905 C3906 1.414 . S
C3905 C3908 1.499 . S
C3906 H3886 0.950 . S
C3906 C3905 1.414 . S
C3906 C3907 1.374 . S
C3907 H3887 0.950 . S
C3907 C3903 1.385 . S
C3907 C3906 1.374 . S
C3908 C3905 1.499 . S
C3908 C3909 1.373 . S
C3908 C3910 1.389 . S
C3909 H3888 0.950 . S
C3909 C3908 1.373 . S
C3909 C3925 1.377 . S
C3910 C3908 1.389 . S
C3910 C3911 1.524 . S
C3910 C3924 1.377 . S
C3911 C3910 1.524 . S
C3911 C3912 1.397 . S
C3911 C3916 1.363 . S
C3912 H3889 0.950 . S
C3912 C3911 1.397 . S
C3912 C3913 1.334 . S
C3913 H3890 0.950 . S
C3913 C3912 1.334 . S
C3913 C3914 1.287 . S
C3914 C3913 1.287 . S
C3914 C3915 1.524 . S
C3914 H3933 0.913 . S
C3915 H3891 0.950 . S
C3915 C3914 1.524 . S
C3915 C3916 1.415 . S
C3916 H3892 0.950 . S
C3916 C3911 1.363 . S
C3916 C3915 1.415 . S
C3917 H3893 0.951 . S
C3917 C3918 1.366 . S
C3917 C3919 1.388 . S
C3918 C3917 1.366 . S
C3918 C3922 1.385 . S
C3919 H3894 0.951 . S
C3919 C3917 1.388 . S
C3919 C3920 1.366 . S
C3920 C3919 1.366 . S
C3920 C3921 1.414 . S
C3920 C3923 1.499 . S
C3921 H3895 0.950 . S
C3921 C3920 1.414 . S
C3921 C3922 1.374 . S
C3922 H3896 0.950 . S
C3922 C3918 1.385 . S
C3922 C3921 1.374 . S
C3923 C3920 1.499 . S
C3923 C3924 1.373 . S
C3923 C3925 1.389 . S
C3924 H3897 0.950 . S
C3924 C3910 1.377 . S
C3924 C3923 1.373 . S
C3925 C3909 1.377 . S
C3925 C3923 1.389 . S
C3925 C3926 1.524 . S
C3926 C3925 1.524 . S
C3926 C3927 1.397 . S
C3926 C3931 1.363 . S
C3927 H3898 0.950 . S
C3927 C3926 1.397 . S
C3927 C3928 1.334 . S
C3928 H3899 0.950 . S
C3928 C3927 1.334 . S
C3928 C3929 1.287 . S
C3929 C3928 1.287 . S
C3929 C3930 1.524 . S
C3929 H3932 0.999 . S
C3930 H3900 0.950 . S
C3930 C3929 1.524 . S
C3930 C3931 1.415 . S
C3931 H3901 0.950 . S
C3931 C3926 1.363 . S
C3931 C3930 1.415 . S
H3932 C3929 0.999 . S
H3933 C3914 0.913 . S
H3934 C3952 0.951 . S
H3935 C3954 0.951 . S
H3936 C3956 0.950 . S
H3937 C3957 0.950 . S
H3938 C3959 0.950 . S
H3939 C3962 0.950 . S
H3940 C3963 0.950 . S
H3941 C3965 0.950 . S
H3942 C3966 0.950 . S
H3943 C3967 0.951 . S
H3944 C3969 0.951 . S
H3945 C3971 0.950 . S
H3946 C3972 0.950 . S
H3947 C3974 0.950 . S
H3948 C3977 0.950 . S
H3949 C3978 0.950 . S
H3950 C3980 0.950 . S
H3951 C3981 0.950 . S
C3952 H3934 0.951 . S
C3952 C3953 1.366 . S
C3952 C3954 1.388 . S
C3953 C3952 1.366 . S
C3953 C3957 1.385 . S
C3954 H3935 0.951 . S
C3954 C3952 1.388 . S
C3954 C3955 1.366 . S
C3955 C3954 1.366 . S
C3955 C3956 1.414 . S
C3955 C3958 1.499 . S
C3956 H3936 0.950 . S
C3956 C3955 1.414 . S
C3956 C3957 1.374 . S
C3957 H3937 0.950 . S
C3957 C3953 1.385 . S
C3957 C3956 1.374 . S
C3958 C3955 1.499 . S
C3958 C3959 1.373 . S
C3958 C3960 1.389 . S
C3959 H3938 0.950 . S
C3959 C3958 1.373 . S
C3959 C3975 1.377 . S
C3960 C3958 1.389 . S
C3960 C3961 1.524 . S
C3960 C3974 1.377 . S
C3961 C3960 1.524 . S
C3961 C3962 1.397 . S
C3961 C3966 1.363 . S
C3962 H3939 0.950 . S
C3962 C3961 1.397 . S
C3962 C3963 1.334 . S
C3963 H3940 0.950 . S
C3963 C3962 1.334 . S
C3963 C3964 1.287 . S
C3964 C3963 1.287 . S
C3964 C3965 1.524 . S
C3964 H3983 0.913 . S
C3965 H3941 0.950 . S
C3965 C3964 1.524 . S
C3965 C3966 1.415 . S
C3966 H3942 0.950 . S
C3966 C3961 1.363 . S
C3966 C3965 1.415 . S
C3967 H3943 0.951 . S
C3967 C3968 1.366 . S
C3967 C3969 1.388 . S
C3968 C3967 1.366 . S
C3968 C3972 1.385 . S
C3969 H3944 0.951 . S
C3969 C3967 1.388 . S
C3969 C3970 1.366 . S
C3970 C3969 1.366 . S
C3970 C3971 1.414 . S
C3970 C3973 1.499 . S
C3971 H3945 0.950 . S
C3971 C3970 1.414 . S
C3971 C3972 1.374 . S
C3972 H3946 0.950 . S
C3972 C3968 1.385 . S
C3972 C3971 1.374 . S
C3973 C3970 1.499 . S
C3973 C3974 1.373 . S
C3973 C3975 1.389 . S
C3974 H3947 0.950 . S
C3974 C3960 1.377 . S
C3974 C3973 1.373 . S
C3975 C3959 1.377 . S
C3975 C3973 1.389 . S
C3975 C3976 1.524 . S
C3976 C3975 1.524 . S
C3976 C3977 1.397 . S
C3976 C3981 1.363 . S
C3977 H3948 0.950 . S
C3977 C3976 1.397 . S
C3977 C3978 1.334 . S
C3978 H3949 0.950 . S
C3978 C3977 1.334 . S
C3978 C3979 1.287 . S
C3979 C3978 1.287 . S
C3979 C3980 1.524 . S
C3979 H3982 0.999 . S
C3980 H3950 0.950 . S
C3980 C3979 1.524 . S
C3980 C3981 1.415 . S
C3981 H3951 0.950 . S
C3981 C3976 1.363 . S
C3981 C3980 1.415 . S
H3982 C3979 0.999 . S
H3983 C3964 0.913 . S
H3984 C4002 0.951 . S
H3985 C4004 0.951 . S
H3986 C4006 0.950 . S
H3987 C4007 0.950 . S
H3988 C4009 0.950 . S
H3989 C4012 0.950 . S
H3990 C4013 0.950 . S
H3991 C4015 0.950 . S
H3992 C4016 0.950 . S
H3993 C4017 0.951 . S
H3994 C4019 0.951 . S
H3995 C4021 0.950 . S
H3996 C4022 0.950 . S
H3997 C4024 0.950 . S
H3998 C4027 0.950 . S
H3999 C4028 0.950 . S
H4000 C4030 0.950 . S
H4001 C4031 0.950 . S
C4002 H3984 0.951 . S
C4002 C4003 1.366 . S
C4002 C4004 1.388 . S
C4003 C4002 1.366 . S
C4003 C4007 1.385 . S
C4004 H3985 0.951 . S
C4004 C4002 1.388 . S
C4004 C4005 1.366 . S
C4005 C4004 1.366 . S
C4005 C4006 1.414 . S
C4005 C4008 1.499 . S
C4006 H3986 0.950 . S
C4006 C4005 1.414 . S
C4006 C4007 1.374 . S
C4007 H3987 0.950 . S
C4007 C4003 1.385 . S
C4007 C4006 1.374 . S
C4008 C4005 1.499 . S
C4008 C4009 1.373 . S
C4008 C4010 1.389 . S
C4009 H3988 0.950 . S
C4009 C4008 1.373 . S
C4009 C4025 1.377 . S
C4010 C4008 1.389 . S
C4010 C4011 1.524 . S
C4010 C4024 1.377 . S
C4011 C4010 1.524 . S
C4011 C4012 1.397 . S
C4011 C4016 1.363 . S
C4012 H3989 0.950 . S
C4012 C4011 1.397 . S
C4012 C4013 1.334 . S
C4013 H3990 0.950 . S
C4013 C4012 1.334 . S
C4013 C4014 1.287 . S
C4014 C4013 1.287 . S
C4014 C4015 1.524 . S
C4014 H4033 0.913 . S
C4015 H3991 0.950 . S
C4015 C4014 1.524 . S
C4015 C4016 1.415 . S
C4016 H3992 0.950 . S
C4016 C4011 1.363 . S
C4016 C4015 1.415 . S
C4017 H3993 0.951 . S
C4017 C4018 1.366 . S
C4017 C4019 1.388 . S
C4018 C4017 1.366 . S
C4018 C4022 1.385 . S
C4019 H3994 0.951 . S
C4019 C4017 1.388 . S
C4019 C4020 1.366 . S
C4020 C4019 1.366 . S
C4020 C4021 1.414 . S
C4020 C4023 1.499 . S
C4021 H3995 0.950 . S
C4021 C4020 1.414 . S
C4021 C4022 1.374 . S
C4022 H3996 0.950 . S
C4022 C4018 1.385 . S
C4022 C4021 1.374 . S
C4023 C4020 1.499 . S
C4023 C4024 1.373 . S
C4023 C4025 1.389 . S
C4024 H3997 0.950 . S
C4024 C4010 1.377 . S
C4024 C4023 1.373 . S
C4025 C4009 1.377 . S
C4025 C4023 1.389 . S
C4025 C4026 1.524 . S
C4026 C4025 1.524 . S
C4026 C4027 1.397 . S
C4026 C4031 1.363 . S
C4027 H3998 0.950 . S
C4027 C4026 1.397 . S
C4027 C4028 1.334 . S
C4028 H3999 0.950 . S
C4028 C4027 1.334 . S
C4028 C4029 1.287 . S
C4029 C4028 1.287 . S
C4029 C4030 1.524 . S
C4029 H4032 0.999 . S
C4030 H4000 0.950 . S
C4030 C4029 1.524 . S
C4030 C4031 1.415 . S
C4031 H4001 0.950 . S
C4031 C4026 1.363 . S
C4031 C4030 1.415 . S
H4032 C4029 0.999 . S
H4033 C4014 0.913 . S
H4034 C4052 0.951 1_565 S
H4035 C4054 0.951 . S
H4036 C4056 0.950 . S
H4037 C4057 0.950 . S
H4038 C4059 0.950 . S
H4039 C4062 0.950 . S
H4040 C4063 0.950 . S
H4041 C4065 0.950 . S
H4042 C4066 0.950 . S
H4043 C4067 0.951 . S
H4044 C4069 0.951 . S
H4045 C4071 0.950 . S
H4046 C4072 0.950 . S
H4047 C4074 0.950 . S
H4048 C4077 0.950 . S
H4049 C4078 0.950 . S
H4050 C4080 0.950 . S
H4051 C4081 0.950 . S
C4052 H4034 0.951 1_545 S
C4052 C4053 1.366 . S
C4052 C4054 1.388 . S
C4053 C4052 1.366 . S
C4053 C4057 1.385 . S
C4054 H4035 0.951 . S
C4054 C4052 1.388 . S
C4054 C4055 1.366 . S
C4055 C4054 1.366 . S
C4055 C4056 1.414 . S
C4055 C4058 1.499 . S
C4056 H4036 0.950 . S
C4056 C4055 1.414 . S
C4056 C4057 1.374 . S
C4057 H4037 0.950 . S
C4057 C4053 1.385 . S
C4057 C4056 1.374 . S
C4058 C4055 1.499 . S
C4058 C4059 1.373 . S
C4058 C4060 1.389 . S
C4059 H4038 0.950 . S
C4059 C4058 1.373 . S
C4059 C4075 1.377 . S
C4060 C4058 1.389 . S
C4060 C4061 1.524 . S
C4060 C4074 1.377 . S
C4061 C4060 1.524 . S
C4061 C4062 1.397 . S
C4061 C4066 1.363 . S
C4062 H4039 0.950 . S
C4062 C4061 1.397 . S
C4062 C4063 1.334 . S
C4063 H4040 0.950 . S
C4063 C4062 1.334 . S
C4063 C4064 1.287 . S
C4064 C4063 1.287 . S
C4064 C4065 1.524 . S
C4064 H4083 0.913 . S
C4065 H4041 0.950 . S
C4065 C4064 1.524 . S
C4065 C4066 1.415 . S
C4066 H4042 0.950 . S
C4066 C4061 1.363 . S
C4066 C4065 1.415 . S
C4067 H4043 0.951 . S
C4067 C4068 1.366 . S
C4067 C4069 1.388 . S
C4068 C4067 1.366 . S
C4068 C4072 1.385 . S
C4069 H4044 0.951 . S
C4069 C4067 1.388 . S
C4069 C4070 1.366 . S
C4070 C4069 1.366 . S
C4070 C4071 1.414 . S
C4070 C4073 1.499 . S
C4071 H4045 0.950 . S
C4071 C4070 1.414 . S
C4071 C4072 1.374 . S
C4072 H4046 0.950 . S
C4072 C4068 1.385 . S
C4072 C4071 1.374 . S
C4073 C4070 1.499 . S
C4073 C4074 1.373 . S
C4073 C4075 1.389 . S
C4074 H4047 0.950 . S
C4074 C4060 1.377 . S
C4074 C4073 1.373 . S
C4075 C4059 1.377 . S
C4075 C4073 1.389 . S
C4075 C4076 1.524 . S
C4076 C4075 1.524 . S
C4076 C4077 1.397 . S
C4076 C4081 1.363 . S
C4077 H4048 0.950 . S
C4077 C4076 1.397 . S
C4077 C4078 1.334 . S
C4078 H4049 0.950 . S
C4078 C4077 1.334 . S
C4078 C4079 1.287 . S
C4079 C4078 1.287 . S
C4079 C4080 1.524 . S
C4079 H4082 0.999 . S
C4080 H4050 0.950 . S
C4080 C4079 1.524 . S
C4080 C4081 1.415 . S
C4081 H4051 0.950 . S
C4081 C4076 1.363 . S
C4081 C4080 1.415 . S
H4082 C4079 0.999 . S
H4083 C4064 0.913 . S
H4084 C4102 0.951 . S
H4085 C4104 0.951 . S
H4086 C4106 0.950 . S
H4087 C4107 0.950 . S
H4088 C4109 0.950 . S
H4089 C4112 0.950 . S
H4090 C4113 0.950 . S
H4091 C4115 0.950 . S
H4092 C4116 0.950 . S
H4093 C4117 0.951 . S
H4094 C4119 0.951 . S
H4095 C4121 0.950 . S
H4096 C4122 0.950 . S
H4097 C4124 0.950 . S
H4098 C4127 0.950 . S
H4099 C4128 0.950 . S
H4100 C4130 0.950 . S
H4101 C4131 0.950 . S
C4102 H4084 0.951 . S
C4102 C4103 1.366 . S
C4102 C4104 1.388 1_455 S
C4103 C4102 1.366 . S
C4103 C4107 1.385 1_455 S
C4104 H4085 0.951 . S
C4104 C4102 1.388 1_655 S
C4104 C4105 1.366 . S
C4105 C4104 1.366 . S
C4105 C4106 1.414 . S
C4105 C4108 1.499 . S
C4106 H4086 0.950 . S
C4106 C4105 1.414 . S
C4106 C4107 1.374 . S
C4107 H4087 0.950 . S
C4107 C4103 1.385 1_655 S
C4107 C4106 1.374 . S
C4108 C4105 1.499 . S
C4108 C4109 1.373 . S
C4108 C4110 1.389 . S
C4109 H4088 0.950 . S
C4109 C4108 1.373 . S
C4109 C4125 1.377 . S
C4110 C4108 1.389 . S
C4110 C4111 1.524 . S
C4110 C4124 1.377 . S
C4111 C4110 1.524 . S
C4111 C4112 1.397 . S
C4111 C4116 1.363 . S
C4112 H4089 0.950 . S
C4112 C4111 1.397 . S
C4112 C4113 1.334 . S
C4113 H4090 0.950 . S
C4113 C4112 1.334 . S
C4113 C4114 1.287 . S
C4114 C4113 1.287 . S
C4114 C4115 1.524 . S
C4114 H4133 0.913 . S
C4115 H4091 0.950 . S
C4115 C4114 1.524 . S
C4115 C4116 1.415 . S
C4116 H4092 0.950 . S
C4116 C4111 1.363 . S
C4116 C4115 1.415 . S
C4117 H4093 0.951 . S
C4117 C4118 1.366 . S
C4117 C4119 1.388 . S
C4118 C4117 1.366 . S
C4118 C4122 1.385 . S
C4119 H4094 0.951 . S
C4119 C4117 1.388 . S
C4119 C4120 1.366 . S
C4120 C4119 1.366 . S
C4120 C4121 1.414 . S
C4120 C4123 1.499 . S
C4121 H4095 0.950 . S
C4121 C4120 1.414 . S
C4121 C4122 1.374 . S
C4122 H4096 0.950 . S
C4122 C4118 1.385 . S
C4122 C4121 1.374 . S
C4123 C4120 1.499 . S
C4123 C4124 1.373 . S
C4123 C4125 1.389 . S
C4124 H4097 0.950 . S
C4124 C4110 1.377 . S
C4124 C4123 1.373 . S
C4125 C4109 1.377 . S
C4125 C4123 1.389 . S
C4125 C4126 1.524 . S
C4126 C4125 1.524 . S
C4126 C4127 1.397 . S
C4126 C4131 1.363 . S
C4127 H4098 0.950 . S
C4127 C4126 1.397 . S
C4127 C4128 1.334 . S
C4128 H4099 0.950 . S
C4128 C4127 1.334 . S
C4128 C4129 1.287 . S
C4129 C4128 1.287 . S
C4129 C4130 1.524 . S
C4129 H4132 0.999 . S
C4130 H4100 0.950 . S
C4130 C4129 1.524 . S
C4130 C4131 1.415 . S
C4131 H4101 0.950 . S
C4131 C4126 1.363 . S
C4131 C4130 1.415 . S
H4132 C4129 0.999 . S
H4133 C4114 0.913 . S
H4134 C4152 0.951 . S
H4135 C4154 0.951 . S
H4136 C4156 0.950 . S
H4137 C4157 0.950 . S
H4138 C4159 0.950 . S
H4139 C4162 0.950 . S
H4140 C4163 0.950 . S
H4141 C4165 0.950 . S
H4142 C4166 0.950 . S
H4143 C4167 0.951 . S
H4144 C4169 0.951 . S
H4145 C4171 0.950 . S
H4146 C4172 0.950 1_655 S
H4147 C4174 0.950 . S
H4148 C4177 0.950 . S
H4149 C4178 0.950 . S
H4150 C4180 0.950 . S
H4151 C4181 0.950 . S
C4152 H4134 0.951 . S
C4152 C4153 1.366 . S
C4152 C4154 1.388 . S
C4153 C4152 1.366 . S
C4153 C4157 1.385 . S
C4154 H4135 0.951 . S
C4154 C4152 1.388 . S
C4154 C4155 1.366 . S
C4155 C4154 1.366 . S
C4155 C4156 1.414 . S
C4155 C4158 1.499 . S
C4156 H4136 0.950 . S
C4156 C4155 1.414 . S
C4156 C4157 1.374 . S
C4157 H4137 0.950 . S
C4157 C4153 1.385 . S
C4157 C4156 1.374 . S
C4158 C4155 1.499 . S
C4158 C4159 1.373 . S
C4158 C4160 1.389 . S
C4159 H4138 0.950 . S
C4159 C4158 1.373 . S
C4159 C4175 1.377 . S
C4160 C4158 1.389 . S
C4160 C4161 1.524 . S
C4160 C4174 1.377 . S
C4161 C4160 1.524 . S
C4161 C4162 1.397 . S
C4161 C4166 1.363 1_455 S
C4162 H4139 0.950 . S
C4162 C4161 1.397 . S
C4162 C4163 1.334 . S
C4163 H4140 0.950 . S
C4163 C4162 1.334 . S
C4163 C4164 1.287 1_455 S
C4164 C4163 1.287 1_655 S
C4164 C4165 1.524 . S
C4164 H4183 0.913 . S
C4165 H4141 0.950 . S
C4165 C4164 1.524 . S
C4165 C4166 1.415 . S
C4166 H4142 0.950 . S
C4166 C4161 1.363 1_655 S
C4166 C4165 1.415 . S
C4167 H4143 0.951 . S
C4167 C4168 1.366 . S
C4167 C4169 1.388 . S
C4168 C4167 1.366 . S
C4168 C4172 1.385 . S
C4169 H4144 0.951 . S
C4169 C4167 1.388 . S
C4169 C4170 1.366 . S
C4170 C4169 1.366 . S
C4170 C4171 1.414 . S
C4170 C4173 1.499 . S
C4171 H4145 0.950 . S
C4171 C4170 1.414 . S
C4171 C4172 1.374 . S
C4172 H4146 0.950 1_455 S
C4172 C4168 1.385 . S
C4172 C4171 1.374 . S
C4173 C4170 1.499 . S
C4173 C4174 1.373 . S
C4173 C4175 1.389 . S
C4174 H4147 0.950 . S
C4174 C4160 1.377 . S
C4174 C4173 1.373 . S
C4175 C4159 1.377 . S
C4175 C4173 1.389 . S
C4175 C4176 1.524 . S
C4176 C4175 1.524 . S
C4176 C4177 1.397 . S
C4176 C4181 1.363 . S
C4177 H4148 0.950 . S
C4177 C4176 1.397 . S
C4177 C4178 1.334 . S
C4178 H4149 0.950 . S
C4178 C4177 1.334 . S
C4178 C4179 1.287 . S
C4179 C4178 1.287 . S
C4179 C4180 1.524 . S
C4179 H4182 0.999 . S
C4180 H4150 0.950 . S
C4180 C4179 1.524 . S
C4180 C4181 1.415 . S
C4181 H4151 0.950 . S
C4181 C4176 1.363 . S
C4181 C4180 1.415 . S
H4182 C4179 0.999 . S
H4183 C4164 0.913 . S
H4184 C4202 0.951 . S
H4185 C4204 0.951 . S
H4186 C4206 0.950 . S
H4187 C4207 0.950 . S
H4188 C4209 0.950 . S
H4189 C4212 0.950 . S
H4190 C4213 0.950 . S
H4191 C4215 0.950 . S
H4192 C4216 0.950 . S
H4193 C4217 0.951 . S
H4194 C4219 0.951 . S
H4195 C4221 0.950 . S
H4196 C4222 0.950 . S
H4197 C4224 0.950 . S
H4198 C4227 0.950 . S
H4199 C4228 0.950 . S
H4200 C4230 0.950 . S
H4201 C4231 0.950 . S
C4202 H4184 0.951 . S
C4202 C4203 1.366 . S
C4202 C4204 1.388 . S
C4203 C4202 1.366 . S
C4203 C4207 1.385 . S
C4204 H4185 0.951 . S
C4204 C4202 1.388 . S
C4204 C4205 1.366 . S
C4205 C4204 1.366 . S
C4205 C4206 1.414 . S
C4205 C4208 1.499 . S
C4206 H4186 0.950 . S
C4206 C4205 1.414 . S
C4206 C4207 1.374 . S
C4207 H4187 0.950 . S
C4207 C4203 1.385 . S
C4207 C4206 1.374 . S
C4208 C4205 1.499 . S
C4208 C4209 1.373 . S
C4208 C4210 1.389 . S
C4209 H4188 0.950 . S
C4209 C4208 1.373 . S
C4209 C4225 1.377 . S
C4210 C4208 1.389 . S
C4210 C4211 1.524 . S
C4210 C4224 1.377 . S
C4211 C4210 1.524 . S
C4211 C4212 1.397 . S
C4211 C4216 1.363 . S
C4212 H4189 0.950 . S
C4212 C4211 1.397 . S
C4212 C4213 1.334 . S
C4213 H4190 0.950 . S
C4213 C4212 1.334 . S
C4213 C4214 1.287 . S
C4214 C4213 1.287 . S
C4214 C4215 1.524 . S
C4214 H4233 0.913 . S
C4215 H4191 0.950 . S
C4215 C4214 1.524 . S
C4215 C4216 1.415 . S
C4216 H4192 0.950 . S
C4216 C4211 1.363 . S
C4216 C4215 1.415 . S
C4217 H4193 0.951 . S
C4217 C4218 1.366 . S
C4217 C4219 1.388 . S
C4218 C4217 1.366 . S
C4218 C4222 1.385 . S
C4219 H4194 0.951 . S
C4219 C4217 1.388 . S
C4219 C4220 1.366 . S
C4220 C4219 1.366 . S
C4220 C4221 1.414 . S
C4220 C4223 1.499 . S
C4221 H4195 0.950 . S
C4221 C4220 1.414 . S
C4221 C4222 1.374 . S
C4222 H4196 0.950 . S
C4222 C4218 1.385 . S
C4222 C4221 1.374 . S
C4223 C4220 1.499 . S
C4223 C4224 1.373 . S
C4223 C4225 1.389 . S
C4224 H4197 0.950 . S
C4224 C4210 1.377 . S
C4224 C4223 1.373 . S
C4225 C4209 1.377 . S
C4225 C4223 1.389 . S
C4225 C4226 1.524 . S
C4226 C4225 1.524 . S
C4226 C4227 1.397 . S
C4226 C4231 1.363 . S
C4227 H4198 0.950 . S
C4227 C4226 1.397 . S
C4227 C4228 1.334 . S
C4228 H4199 0.950 . S
C4228 C4227 1.334 . S
C4228 C4229 1.287 . S
C4229 C4228 1.287 . S
C4229 C4230 1.524 . S
C4229 H4232 0.999 . S
C4230 H4200 0.950 . S
C4230 C4229 1.524 . S
C4230 C4231 1.415 . S
C4231 H4201 0.950 . S
C4231 C4226 1.363 . S
C4231 C4230 1.415 . S
H4232 C4229 0.999 . S
H4233 C4214 0.913 . S
H4234 C4252 0.951 . S
H4235 C4254 0.951 . S
H4236 C4256 0.950 . S
H4237 C4257 0.950 . S
H4238 C4259 0.950 . S
H4239 C4262 0.950 . S
H4240 C4263 0.950 . S
H4241 C4265 0.950 . S
H4242 C4266 0.950 . S
H4243 C4267 0.951 . S
H4244 C4269 0.951 . S
H4245 C4271 0.950 . S
H4246 C4272 0.950 . S
H4247 C4274 0.950 . S
H4248 C4277 0.950 . S
H4249 C4278 0.950 . S
H4250 C4280 0.950 . S
H4251 C4281 0.950 . S
C4252 H4234 0.951 . S
C4252 C4253 1.366 . S
C4252 C4254 1.388 . S
C4253 C4252 1.366 . S
C4253 C4257 1.385 . S
C4254 H4235 0.951 . S
C4254 C4252 1.388 . S
C4254 C4255 1.366 . S
C4255 C4254 1.366 . S
C4255 C4256 1.414 . S
C4255 C4258 1.499 . S
C4256 H4236 0.950 . S
C4256 C4255 1.414 . S
C4256 C4257 1.374 . S
C4257 H4237 0.950 . S
C4257 C4253 1.385 . S
C4257 C4256 1.374 . S
C4258 C4255 1.499 . S
C4258 C4259 1.373 . S
C4258 C4260 1.389 . S
C4259 H4238 0.950 . S
C4259 C4258 1.373 . S
C4259 C4275 1.377 . S
C4260 C4258 1.389 . S
C4260 C4261 1.524 . S
C4260 C4274 1.377 . S
C4261 C4260 1.524 . S
C4261 C4262 1.397 . S
C4261 C4266 1.363 . S
C4262 H4239 0.950 . S
C4262 C4261 1.397 . S
C4262 C4263 1.334 . S
C4263 H4240 0.950 . S
C4263 C4262 1.334 . S
C4263 C4264 1.287 . S
C4264 C4263 1.287 . S
C4264 C4265 1.524 . S
C4264 H4283 0.913 . S
C4265 H4241 0.950 . S
C4265 C4264 1.524 . S
C4265 C4266 1.415 . S
C4266 H4242 0.950 . S
C4266 C4261 1.363 . S
C4266 C4265 1.415 . S
C4267 H4243 0.951 . S
C4267 C4268 1.366 . S
C4267 C4269 1.388 . S
C4268 C4267 1.366 . S
C4268 C4272 1.385 . S
C4269 H4244 0.951 . S
C4269 C4267 1.388 . S
C4269 C4270 1.366 . S
C4270 C4269 1.366 . S
C4270 C4271 1.414 . S
C4270 C4273 1.499 . S
C4271 H4245 0.950 . S
C4271 C4270 1.414 . S
C4271 C4272 1.374 . S
C4272 H4246 0.950 . S
C4272 C4268 1.385 . S
C4272 C4271 1.374 . S
C4273 C4270 1.499 . S
C4273 C4274 1.373 . S
C4273 C4275 1.389 . S
C4274 H4247 0.950 . S
C4274 C4260 1.377 . S
C4274 C4273 1.373 . S
C4275 C4259 1.377 . S
C4275 C4273 1.389 . S
C4275 C4276 1.524 1_565 S
C4276 C4275 1.524 1_545 S
C4276 C4277 1.397 . S
C4276 C4281 1.363 . S
C4277 H4248 0.950 . S
C4277 C4276 1.397 . S
C4277 C4278 1.334 . S
C4278 H4249 0.950 . S
C4278 C4277 1.334 . S
C4278 C4279 1.287 . S
C4279 C4278 1.287 . S
C4279 C4280 1.524 . S
C4279 H4282 0.999 . S
C4280 H4250 0.950 . S
C4280 C4279 1.524 . S
C4280 C4281 1.415 . S
C4281 H4251 0.950 . S
C4281 C4276 1.363 . S
C4281 C4280 1.415 . S
H4282 C4279 0.999 . S
H4283 C4264 0.913 . S
H4284 C4302 0.951 . S
H4285 C4304 0.951 . S
H4286 C4306 0.950 . S
H4287 C4307 0.950 . S
H4288 C4309 0.950 . S
H4289 C4312 0.950 . S
H4290 C4313 0.950 . S
H4291 C4315 0.950 . S
H4292 C4316 0.950 . S
H4293 C4317 0.931 1_545 S
H4294 C4319 0.951 . S
H4295 C4321 0.950 . S
H4296 C4322 0.950 . S
H4297 C4324 0.950 1_545 S
H4298 C4327 0.950 . S
H4299 C4328 0.950 . S
H4300 C4330 0.950 . S
H4301 C4331 0.950 . S
C4302 H4284 0.951 . S
C4302 C4303 1.366 . S
C4302 C4304 1.388 . S
C4303 C4302 1.366 . S
C4303 C4307 1.385 . S
C4304 H4285 0.951 . S
C4304 C4302 1.388 . S
C4304 C4305 1.366 . S
C4305 C4304 1.366 . S
C4305 C4306 1.414 . S
C4305 C4308 1.499 . S
C4306 H4286 0.950 . S
C4306 C4305 1.414 . S
C4306 C4307 1.374 . S
C4307 H4287 0.950 . S
C4307 C4303 1.385 . S
C4307 C4306 1.374 . S
C4308 C4305 1.499 . S
C4308 C4309 1.373 . S
C4308 C4310 1.389 . S
C4309 H4288 0.950 . S
C4309 C4308 1.373 . S
C4309 C4325 1.377 . S
C4310 C4308 1.389 . S
C4310 C4311 1.524 1_565 S
C4310 C4324 1.377 . S
C4311 C4310 1.524 1_545 S
C4311 C4312 1.397 . S
C4311 C4316 1.363 . S
C4312 H4289 0.950 . S
C4312 C4311 1.397 . S
C4312 C4313 1.334 . S
C4313 H4290 0.950 . S
C4313 C4312 1.334 . S
C4313 C4314 1.287 . S
C4314 C4313 1.287 . S
C4314 C4315 1.524 . S
C4314 H4333 0.913 . S
C4315 H4291 0.950 . S
C4315 C4314 1.524 . S
C4315 C4316 1.415 . S
C4316 H4292 0.950 . S
C4316 C4311 1.363 . S
C4316 C4315 1.415 . S
C4317 H4293 0.931 1_565 S
C4317 C4318 1.365 1_565 S
C4317 C4319 1.388 . S
C4318 C4317 1.365 1_545 S
C4318 C4322 1.377 1_545 S
C4319 H4294 0.951 . S
C4319 C4317 1.388 . S
C4319 C4320 1.366 . S
C4320 C4319 1.366 . S
C4320 C4321 1.414 . S
C4320 C4323 1.499 . S
C4321 H4295 0.950 . S
C4321 C4320 1.414 . S
C4321 C4322 1.374 . S
C4322 H4296 0.950 . S
C4322 C4318 1.377 1_565 S
C4322 C4321 1.374 . S
C4323 C4320 1.499 . S
C4323 C4324 1.373 . S
C4323 C4325 1.389 . S
C4324 H4297 0.950 1_565 S
C4324 C4310 1.377 . S
C4324 C4323 1.373 . S
C4325 C4309 1.377 . S
C4325 C4323 1.389 . S
C4325 C4326 1.524 . S
C4326 C4325 1.524 . S
C4326 C4327 1.397 . S
C4326 C4331 1.363 . S
C4327 H4298 0.950 . S
C4327 C4326 1.397 . S
C4327 C4328 1.334 . S
C4328 H4299 0.950 . S
C4328 C4327 1.334 . S
C4328 C4329 1.287 . S
C4329 C4328 1.287 . S
C4329 C4330 1.524 . S
C4329 H4332 0.999 . S
C4330 H4300 0.950 . S
C4330 C4329 1.524 . S
C4330 C4331 1.415 . S
C4331 H4301 0.950 . S
C4331 C4326 1.363 . S
C4331 C4330 1.415 . S
H4332 C4329 0.999 . S
H4333 C4314 0.913 . S
H4334 C4352 0.951 . S
H4335 C4354 0.951 . S
H4336 C4356 0.944 . S
H4337 C4357 0.950 . S
H4338 C4359 0.950 . S
H4339 C4362 0.950 . S
H4340 C4363 0.950 . S
H4341 C4365 0.950 . S
H4342 C4366 0.950 . S
H4343 C4367 0.951 . S
H4344 C4369 0.951 . S
H4345 C4371 0.950 . S
H4346 C4372 0.950 . S
H4347 C4374 0.950 . S
H4348 C4377 0.950 1_455 S
H4349 C4378 0.950 . S
H4350 C4380 0.950 . S
H4351 C4381 0.950 . S
C4352 H4334 0.951 . S
C4352 C4353 1.366 . S
C4352 C4354 1.388 . S
C4353 C4352 1.366 . S
C4353 C4357 1.385 . S
C4354 H4335 0.951 . S
C4354 C4352 1.388 . S
C4354 C4355 1.366 . S
C4355 C4354 1.366 . S
C4355 C4356 1.414 . S
C4355 C4358 1.499 . S
C4356 H4336 0.944 . S
C4356 C4355 1.414 . S
C4356 C4357 1.374 . S
C4357 H4337 0.950 . S
C4357 C4353 1.385 . S
C4357 C4356 1.374 . S
C4358 C4355 1.499 . S
C4358 C4359 1.373 . S
C4358 C4360 1.389 . S
C4359 H4338 0.950 . S
C4359 C4358 1.373 . S
C4359 C4375 1.377 . S
C4360 C4358 1.389 . S
C4360 C4361 1.524 . S
C4360 C4374 1.377 . S
C4361 C4360 1.524 . S
C4361 C4362 1.397 . S
C4361 C4366 1.363 . S
C4362 H4339 0.950 . S
C4362 C4361 1.397 . S
C4362 C4363 1.334 . S
C4363 H4340 0.950 . S
C4363 C4362 1.334 . S
C4363 C4364 1.287 . S
C4364 C4363 1.287 . S
C4364 C4365 1.524 . S
C4364 H4383 0.913 . S
C4365 H4341 0.950 . S
C4365 C4364 1.524 . S
C4365 C4366 1.415 . S
C4366 H4342 0.950 . S
C4366 C4361 1.363 . S
C4366 C4365 1.415 . S
C4367 H4343 0.951 . S
C4367 C4368 1.366 . S
C4367 C4369 1.388 . S
C4368 C4367 1.366 . S
C4368 C4372 1.385 1_655 S
C4369 H4344 0.951 . S
C4369 C4367 1.388 . S
C4369 C4370 1.366 1_655 S
C4370 C4369 1.366 1_455 S
C4370 C4371 1.414 . S
C4370 C4373 1.499 . S
C4371 H4345 0.950 . S
C4371 C4370 1.414 . S
C4371 C4372 1.374 . S
C4372 H4346 0.950 . S
C4372 C4368 1.385 1_455 S
C4372 C4371 1.374 . S
C4373 C4370 1.499 . S
C4373 C4374 1.373 . S
C4373 C4375 1.389 . S
C4374 H4347 0.950 . S
C4374 C4360 1.377 . S
C4374 C4373 1.373 . S
C4375 C4359 1.377 . S
C4375 C4373 1.389 . S
C4375 C4376 1.524 1_455 S
C4376 C4375 1.524 1_655 S
C4376 C4377 1.397 . S
C4376 C4381 1.363 . S
C4377 H4348 0.950 1_655 S
C4377 C4376 1.397 . S
C4377 C4378 1.334 . S
C4378 H4349 0.950 . S
C4378 C4377 1.334 . S
C4378 C4379 1.287 . S
C4379 C4378 1.287 . S
C4379 C4380 1.524 . S
C4379 H4382 0.999 . S
C4380 H4350 0.950 . S
C4380 C4379 1.524 . S
C4380 C4381 1.415 . S
C4381 H4351 0.950 . S
C4381 C4376 1.363 . S
C4381 C4380 1.415 . S
H4382 C4379 0.999 . S
H4383 C4364 0.913 . S
H4384 C4402 0.951 . S
H4385 C4404 0.951 . S
H4386 C4406 0.950 . S
H4387 C4407 0.950 . S
H4388 C4409 0.950 . S
H4389 C4412 0.950 . S
H4390 C4413 0.950 . S
H4391 C4415 0.950 . S
H4392 C4416 0.950 . S
H4393 C4417 0.951 . S
H4394 C4419 0.951 . S
H4395 C4421 0.950 . S
H4396 C4422 0.950 . S
H4397 C4424 0.950 . S
H4398 C4427 0.950 . S
H4399 C4428 0.950 . S
H4400 C4430 0.950 . S
H4401 C4431 0.950 . S
C4402 H4384 0.951 . S
C4402 C4403 1.366 . S
C4402 C4404 1.388 . S
C4403 C4402 1.366 . S
C4403 C4407 1.385 . S
C4404 H4385 0.951 . S
C4404 C4402 1.388 . S
C4404 C4405 1.366 . S
C4405 C4404 1.366 . S
C4405 C4406 1.414 . S
C4405 C4408 1.499 . S
C4406 H4386 0.950 . S
C4406 C4405 1.414 . S
C4406 C4407 1.374 . S
C4407 H4387 0.950 . S
C4407 C4403 1.385 . S
C4407 C4406 1.374 . S
C4408 C4405 1.499 . S
C4408 C4409 1.373 . S
C4408 C4410 1.389 . S
C4409 H4388 0.950 . S
C4409 C4408 1.373 . S
C4409 C4425 1.377 . S
C4410 C4408 1.389 . S
C4410 C4411 1.524 . S
C4410 C4424 1.377 . S
C4411 C4410 1.524 . S
C4411 C4412 1.397 . S
C4411 C4416 1.363 . S
C4412 H4389 0.950 . S
C4412 C4411 1.397 . S
C4412 C4413 1.334 . S
C4413 H4390 0.950 . S
C4413 C4412 1.334 . S
C4413 C4414 1.287 . S
C4414 C4413 1.287 . S
C4414 C4415 1.524 . S
C4414 H4433 0.913 . S
C4415 H4391 0.950 . S
C4415 C4414 1.524 . S
C4415 C4416 1.415 . S
C4416 H4392 0.950 . S
C4416 C4411 1.363 . S
C4416 C4415 1.415 . S
C4417 H4393 0.951 . S
C4417 C4418 1.366 . S
C4417 C4419 1.388 . S
C4418 C4417 1.366 . S
C4418 C4422 1.385 . S
C4419 H4394 0.951 . S
C4419 C4417 1.388 . S
C4419 C4420 1.366 . S
C4420 C4419 1.366 . S
C4420 C4421 1.414 . S
C4420 C4423 1.499 . S
C4421 H4395 0.950 . S
C4421 C4420 1.414 . S
C4421 C4422 1.374 . S
C4422 H4396 0.950 . S
C4422 C4418 1.385 . S
C4422 C4421 1.374 . S
C4423 C4420 1.499 . S
C4423 C4424 1.373 . S
C4423 C4425 1.389 . S
C4424 H4397 0.950 . S
C4424 C4410 1.377 . S
C4424 C4423 1.373 . S
C4425 C4409 1.377 . S
C4425 C4423 1.389 . S
C4425 C4426 1.524 . S
C4426 C4425 1.524 . S
C4426 C4427 1.397 . S
C4426 C4431 1.363 . S
C4427 H4398 0.950 . S
C4427 C4426 1.397 . S
C4427 C4428 1.334 . S
C4428 H4399 0.950 . S
C4428 C4427 1.334 . S
C4428 C4429 1.287 . S
C4429 C4428 1.287 . S
C4429 C4430 1.524 . S
C4429 H4432 0.999 . S
C4430 H4400 0.950 . S
C4430 C4429 1.524 . S
C4430 C4431 1.415 . S
C4431 H4401 0.950 . S
C4431 C4426 1.363 . S
C4431 C4430 1.415 . S
H4432 C4429 0.999 . S
H4433 C4414 0.913 . S
H4434 C4452 0.951 . S
H4435 C4454 0.951 . S
H4436 C4456 0.950 . S
H4437 C4457 0.950 . S
H4438 C4459 0.950 . S
H4439 C4462 0.950 . S
H4440 C4463 0.950 . S
H4441 C4465 0.950 . S
H4442 C4466 0.950 . S
H4443 C4467 0.951 . S
H4444 C4469 0.951 . S
H4445 C4471 0.950 . S
H4446 C4472 0.950 . S
H4447 C4474 0.950 . S
H4448 C4477 0.950 . S
H4449 C4478 0.950 . S
H4450 C4480 0.950 . S
H4451 C4481 0.950 . S
C4452 H4434 0.951 . S
C4452 C4453 1.366 . S
C4452 C4454 1.388 . S
C4453 C4452 1.366 . S
C4453 C4457 1.385 . S
C4454 H4435 0.951 . S
C4454 C4452 1.388 . S
C4454 C4455 1.366 . S
C4455 C4454 1.366 . S
C4455 C4456 1.414 . S
C4455 C4458 1.499 . S
C4456 H4436 0.950 . S
C4456 C4455 1.414 . S
C4456 C4457 1.374 . S
C4457 H4437 0.950 . S
C4457 C4453 1.385 . S
C4457 C4456 1.374 . S
C4458 C4455 1.499 . S
C4458 C4459 1.373 . S
C4458 C4460 1.389 . S
C4459 H4438 0.950 . S
C4459 C4458 1.373 . S
C4459 C4475 1.377 . S
C4460 C4458 1.389 . S
C4460 C4461 1.524 . S
C4460 C4474 1.377 . S
C4461 C4460 1.524 . S
C4461 C4462 1.397 . S
C4461 C4466 1.363 . S
C4462 H4439 0.950 . S
C4462 C4461 1.397 . S
C4462 C4463 1.334 . S
C4463 H4440 0.950 . S
C4463 C4462 1.334 . S
C4463 C4464 1.287 . S
C4464 C4463 1.287 . S
C4464 C4465 1.524 . S
C4464 H4483 0.913 . S
C4465 H4441 0.950 . S
C4465 C4464 1.524 . S
C4465 C4466 1.415 . S
C4466 H4442 0.950 . S
C4466 C4461 1.363 . S
C4466 C4465 1.415 . S
C4467 H4443 0.951 . S
C4467 C4468 1.366 . S
C4467 C4469 1.388 . S
C4468 C4467 1.366 . S
C4468 C4472 1.385 . S
C4469 H4444 0.951 . S
C4469 C4467 1.388 . S
C4469 C4470 1.366 . S
C4470 C4469 1.366 . S
C4470 C4471 1.414 . S
C4470 C4473 1.499 . S
C4471 H4445 0.950 . S
C4471 C4470 1.414 . S
C4471 C4472 1.374 . S
C4472 H4446 0.950 . S
C4472 C4468 1.385 . S
C4472 C4471 1.374 . S
C4473 C4470 1.499 . S
C4473 C4474 1.373 . S
C4473 C4475 1.389 . S
C4474 H4447 0.950 . S
C4474 C4460 1.377 . S
C4474 C4473 1.373 . S
C4475 C4459 1.377 . S
C4475 C4473 1.389 . S
C4475 C4476 1.524 . S
C4476 C4475 1.524 . S
C4476 C4477 1.397 . S
C4476 C4481 1.363 . S
C4477 H4448 0.950 . S
C4477 C4476 1.397 . S
C4477 C4478 1.334 . S
C4478 H4449 0.950 . S
C4478 C4477 1.334 . S
C4478 C4479 1.287 . S
C4479 C4478 1.287 . S
C4479 C4480 1.524 . S
C4479 H4482 0.999 . S
C4480 H4450 0.950 . S
C4480 C4479 1.524 . S
C4480 C4481 1.415 . S
C4481 H4451 0.950 . S
C4481 C4476 1.363 . S
C4481 C4480 1.415 . S
H4482 C4479 0.999 . S
H4483 C4464 0.913 . S
H4484 C4502 0.951 . S
H4485 C4504 0.951 . S
H4486 C4506 0.950 . S
H4487 C4507 0.950 . S
H4488 C4509 0.950 . S
H4489 C4512 0.950 . S
H4490 C4513 0.950 . S
H4491 C4515 0.950 . S
H4492 C4516 0.950 . S
H4493 C4517 0.951 . S
H4494 C4519 0.951 . S
H4495 C4521 0.950 . S
H4496 C4522 0.950 . S
H4497 C4524 0.950 . S
H4498 C4527 0.950 . S
H4499 C4528 0.950 . S
H4500 C4530 0.950 . S
H4501 C4531 0.950 . S
C4502 H4484 0.951 . S
C4502 C4503 1.366 . S
C4502 C4504 1.388 . S
C4503 C4502 1.366 . S
C4503 C4507 1.385 . S
C4504 H4485 0.951 . S
C4504 C4502 1.388 . S
C4504 C4505 1.366 . S
C4505 C4504 1.366 . S
C4505 C4506 1.414 . S
C4505 C4508 1.499 . S
C4506 H4486 0.950 . S
C4506 C4505 1.414 . S
C4506 C4507 1.374 . S
C4507 H4487 0.950 . S
C4507 C4503 1.385 . S
C4507 C4506 1.374 . S
C4508 C4505 1.499 . S
C4508 C4509 1.373 . S
C4508 C4510 1.389 . S
C4509 H4488 0.950 . S
C4509 C4508 1.373 . S
C4509 C4525 1.377 . S
C4510 C4508 1.389 . S
C4510 C4511 1.524 . S
C4510 C4524 1.377 . S
C4511 C4510 1.524 . S
C4511 C4512 1.397 . S
C4511 C4516 1.363 . S
C4512 H4489 0.950 . S
C4512 C4511 1.397 . S
C4512 C4513 1.334 . S
C4513 H4490 0.950 . S
C4513 C4512 1.334 . S
C4513 C4514 1.287 . S
C4514 C4513 1.287 . S
C4514 C4515 1.524 . S
C4514 H4533 0.913 . S
C4515 H4491 0.950 . S
C4515 C4514 1.524 . S
C4515 C4516 1.415 . S
C4516 H4492 0.950 . S
C4516 C4511 1.363 . S
C4516 C4515 1.415 . S
C4517 H4493 0.951 . S
C4517 C4518 1.366 . S
C4517 C4519 1.388 . S
C4518 C4517 1.366 . S
C4518 C4522 1.385 . S
C4519 H4494 0.951 . S
C4519 C4517 1.388 . S
C4519 C4520 1.366 . S
C4520 C4519 1.366 . S
C4520 C4521 1.414 . S
C4520 C4523 1.499 . S
C4521 H4495 0.950 . S
C4521 C4520 1.414 . S
C4521 C4522 1.374 . S
C4522 H4496 0.950 . S
C4522 C4518 1.385 . S
C4522 C4521 1.374 . S
C4523 C4520 1.499 . S
C4523 C4524 1.373 . S
C4523 C4525 1.389 . S
C4524 H4497 0.950 . S
C4524 C4510 1.377 . S
C4524 C4523 1.373 . S
C4525 C4509 1.377 . S
C4525 C4523 1.389 . S
C4525 C4526 1.524 . S
C4526 C4525 1.524 . S
C4526 C4527 1.397 . S
C4526 C4531 1.363 . S
C4527 H4498 0.950 . S
C4527 C4526 1.397 . S
C4527 C4528 1.334 . S
C4528 H4499 0.950 . S
C4528 C4527 1.334 . S
C4528 C4529 1.287 . S
C4529 C4528 1.287 . S
C4529 C4530 1.524 . S
C4529 H4532 0.999 . S
C4530 H4500 0.950 . S
C4530 C4529 1.524 . S
C4530 C4531 1.415 . S
C4531 H4501 0.950 . S
C4531 C4526 1.363 . S
C4531 C4530 1.415 . S
H4532 C4529 0.999 . S
H4533 C4514 0.913 . S
H4534 C4552 0.951 . S
H4535 C4554 0.951 . S
H4536 C4556 0.950 . S
H4537 C4557 0.950 . S
H4538 C4559 0.950 . S
H4539 C4562 0.950 . S
H4540 C4563 1.016 . S
H4541 C4565 0.950 . S
H4542 C4566 0.950 . S
H4543 C4567 0.951 . S
H4544 C4569 0.951 . S
H4545 C4571 0.950 . S
H4546 C4572 0.950 . S
H4547 C4574 0.950 . S
H4548 C4577 0.950 . S
H4549 C4578 0.950 . S
H4550 C4580 0.950 . S
H4551 C4581 0.950 . S
C4552 H4534 0.951 . S
C4552 C4553 1.366 . S
C4552 C4554 1.388 . S
C4553 C4552 1.366 . S
C4553 C4557 1.385 . S
C4554 H4535 0.951 . S
C4554 C4552 1.388 . S
C4554 C4555 1.366 . S
C4555 C4554 1.366 . S
C4555 C4556 1.414 . S
C4555 C4558 1.499 . S
C4556 H4536 0.950 . S
C4556 C4555 1.414 . S
C4556 C4557 1.374 . S
C4557 H4537 0.950 . S
C4557 C4553 1.385 . S
C4557 C4556 1.374 . S
C4558 C4555 1.499 . S
C4558 C4559 1.373 . S
C4558 C4560 1.389 . S
C4559 H4538 0.950 . S
C4559 C4558 1.373 . S
C4559 C4575 1.377 . S
C4560 C4558 1.389 . S
C4560 C4561 1.524 . S
C4560 C4574 1.377 . S
C4561 C4560 1.524 . S
C4561 C4562 1.397 . S
C4561 C4566 1.363 . S
C4562 H4539 0.950 . S
C4562 C4561 1.397 . S
C4562 C4563 1.334 . S
C4563 H4540 1.016 . S
C4563 C4562 1.334 . S
C4563 C4564 1.287 . S
C4564 C4563 1.287 . S
C4564 C4565 1.524 . S
C4564 H4583 0.913 1_655 S
C4565 H4541 0.950 . S
C4565 C4564 1.524 . S
C4565 C4566 1.415 . S
C4566 H4542 0.950 . S
C4566 C4561 1.363 . S
C4566 C4565 1.415 . S
C4567 H4543 0.951 . S
C4567 C4568 1.366 . S
C4567 C4569 1.388 . S
C4568 C4567 1.366 . S
C4568 C4572 1.385 . S
C4569 H4544 0.951 . S
C4569 C4567 1.388 . S
C4569 C4570 1.366 . S
C4570 C4569 1.366 . S
C4570 C4571 1.414 . S
C4570 C4573 1.499 . S
C4571 H4545 0.950 . S
C4571 C4570 1.414 . S
C4571 C4572 1.374 . S
C4572 H4546 0.950 . S
C4572 C4568 1.385 . S
C4572 C4571 1.374 . S
C4573 C4570 1.499 . S
C4573 C4574 1.373 . S
C4573 C4575 1.389 . S
C4574 H4547 0.950 . S
C4574 C4560 1.377 . S
C4574 C4573 1.373 . S
C4575 C4559 1.377 . S
C4575 C4573 1.389 . S
C4575 C4576 1.524 . S
C4576 C4575 1.524 . S
C4576 C4577 1.397 . S
C4576 C4581 1.363 . S
C4577 H4548 0.950 . S
C4577 C4576 1.397 . S
C4577 C4578 1.334 . S
C4578 H4549 0.950 . S
C4578 C4577 1.334 . S
C4578 C4579 1.287 . S
C4579 C4578 1.287 . S
C4579 C4580 1.524 . S
C4579 H4582 0.999 . S
C4580 H4550 0.950 . S
C4580 C4579 1.524 . S
C4580 C4581 1.415 . S
C4581 H4551 0.950 . S
C4581 C4576 1.363 . S
C4581 C4580 1.415 . S
H4582 C4579 0.999 . S
H4583 C4564 0.913 1_455 S
H4584 C4602 0.951 . S
H4585 C4604 0.951 . S
H4586 C4606 0.950 . S
H4587 C4607 0.950 . S
H4588 C4609 0.950 . S
H4589 C4612 0.950 . S
H4590 C4613 0.950 . S
H4591 C4615 0.950 . S
H4592 C4616 0.950 . S
H4593 C4617 0.951 . S
H4594 C4619 0.951 . S
H4595 C4621 0.950 1_565 S
H4596 C4622 0.950 1_565 S
H4597 C4624 0.950 1_565 S
H4598 C4627 0.950 . S
H4599 C4628 0.950 . S
H4600 C4630 0.950 . S
H4601 C4631 0.950 . S
C4602 H4584 0.951 . S
C4602 C4603 1.366 . S
C4602 C4604 1.388 . S
C4603 C4602 1.366 . S
C4603 C4607 1.385 . S
C4604 H4585 0.951 . S
C4604 C4602 1.388 . S
C4604 C4605 1.366 . S
C4605 C4604 1.366 . S
C4605 C4606 1.414 . S
C4605 C4608 1.499 . S
C4606 H4586 0.950 . S
C4606 C4605 1.414 . S
C4606 C4607 1.374 . S
C4607 H4587 0.950 . S
C4607 C4603 1.385 . S
C4607 C4606 1.374 . S
C4608 C4605 1.499 . S
C4608 C4609 1.373 . S
C4608 C4610 1.389 . S
C4609 H4588 0.950 . S
C4609 C4608 1.373 . S
C4609 C4625 1.377 . S
C4610 C4608 1.389 . S
C4610 C4611 1.524 1_545 S
C4610 C4624 1.377 . S
C4611 C4610 1.524 1_565 S
C4611 C4612 1.397 . S
C4611 C4616 1.363 . S
C4612 H4589 0.950 . S
C4612 C4611 1.397 . S
C4612 C4613 1.334 . S
C4613 H4590 0.950 . S
C4613 C4612 1.334 . S
C4613 C4614 1.287 . S
C4614 C4613 1.287 . S
C4614 C4615 1.524 . S
C4614 H4633 0.913 . S
C4615 H4591 0.950 . S
C4615 C4614 1.524 . S
C4615 C4616 1.415 . S
C4616 H4592 0.950 . S
C4616 C4611 1.363 . S
C4616 C4615 1.415 . S
C4617 H4593 0.951 . S
C4617 C4618 1.366 . S
C4617 C4619 1.388 . S
C4618 C4617 1.366 . S
C4618 C4622 1.385 . S
C4619 H4594 0.951 . S
C4619 C4617 1.388 . S
C4619 C4620 1.366 . S
C4620 C4619 1.366 . S
C4620 C4621 1.414 . S
C4620 C4623 1.499 . S
C4621 H4595 0.950 1_545 S
C4621 C4620 1.414 . S
C4621 C4622 1.374 . S
C4622 H4596 0.950 1_545 S
C4622 C4618 1.385 . S
C4622 C4621 1.374 . S
C4623 C4620 1.499 . S
C4623 C4624 1.373 . S
C4623 C4625 1.389 . S
C4624 H4597 0.950 1_545 S
C4624 C4610 1.377 . S
C4624 C4623 1.373 . S
C4625 C4609 1.377 . S
C4625 C4623 1.389 . S
C4625 C4626 1.524 . S
C4626 C4625 1.524 . S
C4626 C4627 1.397 . S
C4626 C4631 1.363 . S
C4627 H4598 0.950 . S
C4627 C4626 1.397 . S
C4627 C4628 1.334 . S
C4628 H4599 0.950 . S
C4628 C4627 1.334 . S
C4628 C4629 1.287 . S
C4629 C4628 1.287 . S
C4629 C4630 1.524 . S
C4629 H4632 0.999 . S
C4630 H4600 0.950 . S
C4630 C4629 1.524 . S
C4630 C4631 1.415 . S
C4631 H4601 0.950 . S
C4631 C4626 1.363 . S
C4631 C4630 1.415 . S
H4632 C4629 0.999 . S
H4633 C4614 0.913 . S
H4634 C4652 0.951 . S
H4635 C4654 0.951 . S
H4636 C4656 0.950 1_455 S
H4637 C4657 0.950 . S
H4638 C4659 0.950 . S
H4639 C4662 0.950 . S
H4640 C4663 0.950 . S
H4641 C4665 0.950 . S
H4642 C4666 0.950 . S
H4643 C4667 0.951 . S
H4644 C4669 0.943 . S
H4645 C4671 0.950 . S
H4646 C4672 0.950 . S
H4647 C4674 0.950 . S
H4648 C4677 0.950 . S
H4649 C4678 0.950 . S
H4650 C4680 0.950 . S
H4651 C4681 0.950 . S
C4652 H4634 0.951 . S
C4652 C4653 1.366 . S
C4652 C4654 1.388 . S
C4653 C4652 1.366 . S
C4653 C4657 1.385 . S
C4654 H4635 0.951 . S
C4654 C4652 1.388 . S
C4654 C4655 1.366 . S
C4655 C4654 1.366 . S
C4655 C4656 1.414 . S
C4655 C4658 1.499 . S
C4656 H4636 0.950 1_655 S
C4656 C4655 1.414 . S
C4656 C4657 1.374 . S
C4657 H4637 0.950 . S
C4657 C4653 1.385 . S
C4657 C4656 1.374 . S
C4658 C4655 1.499 . S
C4658 C4659 1.373 . S
C4658 C4660 1.389 . S
C4659 H4638 0.950 . S
C4659 C4658 1.373 . S
C4659 C4675 1.377 . S
C4660 C4658 1.389 . S
C4660 C4661 1.524 . S
C4660 C4674 1.377 . S
C4661 C4660 1.524 . S
C4661 C4662 1.397 . S
C4661 C4666 1.363 . S
C4662 H4639 0.950 . S
C4662 C4661 1.397 . S
C4662 C4663 1.334 . S
C4663 H4640 0.950 . S
C4663 C4662 1.334 . S
C4663 C4664 1.287 . S
C4664 C4663 1.287 . S
C4664 C4665 1.524 . S
C4664 H4683 0.913 . S
C4665 H4641 0.950 . S
C4665 C4664 1.524 . S
C4665 C4666 1.415 . S
C4666 H4642 0.950 . S
C4666 C4661 1.363 . S
C4666 C4665 1.415 . S
C4667 H4643 0.951 . S
C4667 C4668 1.366 1_455 S
C4667 C4669 1.391 . S
C4668 C4667 1.366 1_655 S
C4668 C4672 1.385 . S
C4669 H4644 0.943 . S
C4669 C4667 1.391 . S
C4669 C4670 1.370 1_455 S
C4670 C4669 1.370 1_655 S
C4670 C4671 1.414 . S
C4670 C4673 1.499 . S
C4671 H4645 0.950 . S
C4671 C4670 1.414 . S
C4671 C4672 1.374 . S
C4672 H4646 0.950 . S
C4672 C4668 1.385 . S
C4672 C4671 1.374 . S
C4673 C4670 1.499 . S
C4673 C4674 1.373 . S
C4673 C4675 1.389 . S
C4674 H4647 0.950 . S
C4674 C4660 1.377 . S
C4674 C4673 1.373 . S
C4675 C4659 1.377 . S
C4675 C4673 1.389 . S
C4675 C4676 1.524 . S
C4676 C4675 1.524 . S
C4676 C4677 1.397 . S
C4676 C4681 1.363 1_655 S
C4677 H4648 0.950 . S
C4677 C4676 1.397 . S
C4677 C4678 1.334 . S
C4678 H4649 0.950 . S
C4678 C4677 1.334 . S
C4678 C4679 1.287 . S
C4679 C4678 1.287 . S
C4679 C4680 1.524 1_655 S
C4679 H4682 0.997 1_655 S
C4680 H4650 0.950 . S
C4680 C4679 1.524 1_455 S
C4680 C4681 1.415 . S
C4681 H4651 0.950 . S
C4681 C4676 1.363 1_455 S
C4681 C4680 1.415 . S
H4682 C4679 0.997 1_455 S
H4683 C4664 0.913 . S
H4684 C4702 0.951 . S
H4685 C4704 0.951 . S
H4686 C4706 0.950 . S
H4687 C4707 0.950 . S
H4688 C4709 0.950 . S
H4689 C4712 0.950 . S
H4690 C4713 0.950 . S
H4691 C4715 0.950 . S
H4692 C4716 0.950 . S
H4693 C4717 0.951 . S
H4694 C4719 0.951 . S
H4695 C4721 0.950 . S
H4696 C4722 0.950 . S
H4697 C4724 0.950 . S
H4698 C4727 0.950 . S
H4699 C4728 0.950 . S
H4700 C4730 0.950 . S
H4701 C4731 0.950 . S
C4702 H4684 0.951 . S
C4702 C4703 1.366 . S
C4702 C4704 1.388 . S
C4703 C4702 1.366 . S
C4703 C4707 1.385 . S
C4704 H4685 0.951 . S
C4704 C4702 1.388 . S
C4704 C4705 1.366 . S
C4705 C4704 1.366 . S
C4705 C4706 1.414 . S
C4705 C4708 1.499 . S
C4706 H4686 0.950 . S
C4706 C4705 1.414 . S
C4706 C4707 1.374 . S
C4707 H4687 0.950 . S
C4707 C4703 1.385 . S
C4707 C4706 1.374 . S
C4708 C4705 1.499 . S
C4708 C4709 1.373 . S
C4708 C4710 1.389 . S
C4709 H4688 0.950 . S
C4709 C4708 1.373 . S
C4709 C4725 1.377 . S
C4710 C4708 1.389 . S
C4710 C4711 1.524 . S
C4710 C4724 1.377 . S
C4711 C4710 1.524 . S
C4711 C4712 1.397 . S
C4711 C4716 1.363 . S
C4712 H4689 0.950 . S
C4712 C4711 1.397 . S
C4712 C4713 1.334 . S
C4713 H4690 0.950 . S
C4713 C4712 1.334 . S
C4713 C4714 1.287 . S
C4714 C4713 1.287 . S
C4714 C4715 1.524 . S
C4714 H4733 0.913 . S
C4715 H4691 0.950 . S
C4715 C4714 1.524 . S
C4715 C4716 1.415 . S
C4716 H4692 0.950 . S
C4716 C4711 1.363 . S
C4716 C4715 1.415 . S
C4717 H4693 0.951 . S
C4717 C4718 1.366 . S
C4717 C4719 1.388 . S
C4718 C4717 1.366 . S
C4718 C4722 1.385 . S
C4719 H4694 0.951 . S
C4719 C4717 1.388 . S
C4719 C4720 1.366 . S
C4720 C4719 1.366 . S
C4720 C4721 1.414 . S
C4720 C4723 1.499 . S
C4721 H4695 0.950 . S
C4721 C4720 1.414 . S
C4721 C4722 1.374 . S
C4722 H4696 0.950 . S
C4722 C4718 1.385 . S
C4722 C4721 1.374 . S
C4723 C4720 1.499 . S
C4723 C4724 1.373 . S
C4723 C4725 1.389 . S
C4724 H4697 0.950 . S
C4724 C4710 1.377 . S
C4724 C4723 1.373 . S
C4725 C4709 1.377 . S
C4725 C4723 1.389 . S
C4725 C4726 1.524 . S
C4726 C4725 1.524 . S
C4726 C4727 1.397 . S
C4726 C4731 1.363 . S
C4727 H4698 0.950 . S
C4727 C4726 1.397 . S
C4727 C4728 1.334 . S
C4728 H4699 0.950 . S
C4728 C4727 1.334 . S
C4728 C4729 1.287 . S
C4729 C4728 1.287 . S
C4729 C4730 1.524 . S
C4729 H4732 0.999 . S
C4730 H4700 0.950 . S
C4730 C4729 1.524 . S
C4730 C4731 1.415 . S
C4731 H4701 0.950 . S
C4731 C4726 1.363 . S
C4731 C4730 1.415 . S
H4732 C4729 0.999 . S
H4733 C4714 0.913 . S
H4734 C4752 0.951 . S
H4735 C4754 0.951 . S
H4736 C4756 0.950 . S
H4737 C4757 0.950 . S
H4738 C4759 0.950 . S
H4739 C4762 0.950 . S
H4740 C4763 0.950 . S
H4741 C4765 0.950 . S
H4742 C4766 0.950 . S
H4743 C4767 0.951 . S
H4744 C4769 0.951 . S
H4745 C4771 0.950 . S
H4746 C4772 0.950 . S
H4747 C4774 0.950 . S
H4748 C4777 0.950 . S
H4749 C4778 0.950 . S
H4750 C4780 0.950 . S
H4751 C4781 0.950 . S
C4752 H4734 0.951 . S
C4752 C4753 1.366 . S
C4752 C4754 1.388 . S
C4753 C4752 1.366 . S
C4753 C4757 1.385 . S
C4754 H4735 0.951 . S
C4754 C4752 1.388 . S
C4754 C4755 1.366 . S
C4755 C4754 1.366 . S
C4755 C4756 1.414 . S
C4755 C4758 1.499 . S
C4756 H4736 0.950 . S
C4756 C4755 1.414 . S
C4756 C4757 1.374 . S
C4757 H4737 0.950 . S
C4757 C4753 1.385 . S
C4757 C4756 1.374 . S
C4758 C4755 1.499 . S
C4758 C4759 1.373 . S
C4758 C4760 1.389 . S
C4759 H4738 0.950 . S
C4759 C4758 1.373 . S
C4759 C4775 1.377 . S
C4760 C4758 1.389 . S
C4760 C4761 1.524 . S
C4760 C4774 1.377 . S
C4761 C4760 1.524 . S
C4761 C4762 1.397 . S
C4761 C4766 1.363 . S
C4762 H4739 0.950 . S
C4762 C4761 1.397 . S
C4762 C4763 1.334 . S
C4763 H4740 0.950 . S
C4763 C4762 1.334 . S
C4763 C4764 1.287 . S
C4764 C4763 1.287 . S
C4764 C4765 1.524 . S
C4764 H4783 0.913 . S
C4765 H4741 0.950 . S
C4765 C4764 1.524 . S
C4765 C4766 1.415 . S
C4766 H4742 0.950 . S
C4766 C4761 1.363 . S
C4766 C4765 1.415 . S
C4767 H4743 0.951 . S
C4767 C4768 1.366 . S
C4767 C4769 1.388 . S
C4768 C4767 1.366 . S
C4768 C4772 1.385 . S
C4769 H4744 0.951 . S
C4769 C4767 1.388 . S
C4769 C4770 1.366 . S
C4770 C4769 1.366 . S
C4770 C4771 1.414 . S
C4770 C4773 1.499 . S
C4771 H4745 0.950 . S
C4771 C4770 1.414 . S
C4771 C4772 1.374 . S
C4772 H4746 0.950 . S
C4772 C4768 1.385 . S
C4772 C4771 1.374 . S
C4773 C4770 1.499 . S
C4773 C4774 1.373 . S
C4773 C4775 1.389 . S
C4774 H4747 0.950 . S
C4774 C4760 1.377 . S
C4774 C4773 1.373 . S
C4775 C4759 1.377 . S
C4775 C4773 1.389 . S
C4775 C4776 1.524 . S
C4776 C4775 1.524 . S
C4776 C4777 1.397 . S
C4776 C4781 1.363 . S
C4777 H4748 0.950 . S
C4777 C4776 1.397 . S
C4777 C4778 1.334 . S
C4778 H4749 0.950 . S
C4778 C4777 1.334 . S
C4778 C4779 1.287 . S
C4779 C4778 1.287 . S
C4779 C4780 1.524 . S
C4779 H4782 0.999 . S
C4780 H4750 0.950 . S
C4780 C4779 1.524 . S
C4780 C4781 1.415 . S
C4781 H4751 0.950 . S
C4781 C4776 1.363 . S
C4781 C4780 1.415 . S
H4782 C4779 0.999 . S
H4783 C4764 0.913 . S
H4784 C4802 0.951 . S
H4785 C4804 0.951 . S
H4786 C4806 0.950 . S
H4787 C4807 0.950 . S
H4788 C4809 0.950 . S
H4789 C4812 0.950 . S
H4790 C4813 0.950 . S
H4791 C4815 0.950 . S
H4792 C4816 0.950 . S
H4793 C4817 0.951 . S
H4794 C4819 0.951 . S
H4795 C4821 0.950 . S
H4796 C4822 0.950 . S
H4797 C4824 0.950 . S
H4798 C4827 0.950 . S
H4799 C4828 0.950 . S
H4800 C4830 0.950 . S
H4801 C4831 0.950 . S
C4802 H4784 0.951 . S
C4802 C4803 1.366 . S
C4802 C4804 1.388 . S
C4803 C4802 1.366 . S
C4803 C4807 1.385 . S
C4804 H4785 0.951 . S
C4804 C4802 1.388 . S
C4804 C4805 1.366 . S
C4805 C4804 1.366 . S
C4805 C4806 1.414 . S
C4805 C4808 1.499 . S
C4806 H4786 0.950 . S
C4806 C4805 1.414 . S
C4806 C4807 1.374 . S
C4807 H4787 0.950 . S
C4807 C4803 1.385 . S
C4807 C4806 1.374 . S
C4808 C4805 1.499 . S
C4808 C4809 1.373 . S
C4808 C4810 1.389 . S
C4809 H4788 0.950 . S
C4809 C4808 1.373 . S
C4809 C4825 1.377 . S
C4810 C4808 1.389 . S
C4810 C4811 1.524 . S
C4810 C4824 1.377 . S
C4811 C4810 1.524 . S
C4811 C4812 1.397 . S
C4811 C4816 1.363 . S
C4812 H4789 0.950 . S
C4812 C4811 1.397 . S
C4812 C4813 1.334 . S
C4813 H4790 0.950 . S
C4813 C4812 1.334 . S
C4813 C4814 1.287 . S
C4814 C4813 1.287 . S
C4814 C4815 1.524 . S
C4814 H4833 0.913 . S
C4815 H4791 0.950 . S
C4815 C4814 1.524 . S
C4815 C4816 1.415 . S
C4816 H4792 0.950 . S
C4816 C4811 1.363 . S
C4816 C4815 1.415 . S
C4817 H4793 0.951 . S
C4817 C4818 1.366 . S
C4817 C4819 1.388 . S
C4818 C4817 1.366 . S
C4818 C4822 1.385 . S
C4819 H4794 0.951 . S
C4819 C4817 1.388 . S
C4819 C4820 1.366 . S
C4820 C4819 1.366 . S
C4820 C4821 1.414 . S
C4820 C4823 1.499 . S
C4821 H4795 0.950 . S
C4821 C4820 1.414 . S
C4821 C4822 1.374 . S
C4822 H4796 0.950 . S
C4822 C4818 1.385 . S
C4822 C4821 1.374 . S
C4823 C4820 1.499 . S
C4823 C4824 1.373 . S
C4823 C4825 1.389 . S
C4824 H4797 0.950 . S
C4824 C4810 1.377 . S
C4824 C4823 1.373 . S
C4825 C4809 1.377 . S
C4825 C4823 1.389 . S
C4825 C4826 1.524 . S
C4826 C4825 1.524 . S
C4826 C4827 1.397 . S
C4826 C4831 1.363 . S
C4827 H4798 0.950 . S
C4827 C4826 1.397 . S
C4827 C4828 1.334 . S
C4828 H4799 0.950 . S
C4828 C4827 1.334 . S
C4828 C4829 1.287 . S
C4829 C4828 1.287 . S
C4829 C4830 1.524 . S
C4829 H4832 0.999 . S
C4830 H4800 0.950 . S
C4830 C4829 1.524 . S
C4830 C4831 1.415 . S
C4831 H4801 0.950 . S
C4831 C4826 1.363 . S
C4831 C4830 1.415 . S
H4832 C4829 0.999 . S
H4833 C4814 0.913 . S
H4834 C4852 0.951 . S
H4835 C4854 0.951 . S
H4836 C4856 0.950 . S
H4837 C4857 0.950 . S
H4838 C4859 0.950 . S
H4839 C4862 0.950 . S
H4840 C4863 0.950 . S
H4841 C4865 0.950 . S
H4842 C4866 0.950 . S
H4843 C4867 0.951 . S
H4844 C4869 0.951 . S
H4845 C4871 0.950 . S
H4846 C4872 0.950 . S
H4847 C4874 0.950 . S
H4848 C4877 0.950 . S
H4849 C4878 0.950 . S
H4850 C4880 0.950 . S
H4851 C4881 0.950 . S
C4852 H4834 0.951 . S
C4852 C4853 1.366 . S
C4852 C4854 1.388 . S
C4853 C4852 1.366 . S
C4853 C4857 1.385 . S
C4854 H4835 0.951 . S
C4854 C4852 1.388 . S
C4854 C4855 1.366 . S
C4855 C4854 1.366 . S
C4855 C4856 1.414 . S
C4855 C4858 1.499 . S
C4856 H4836 0.950 . S
C4856 C4855 1.414 . S
C4856 C4857 1.374 . S
C4857 H4837 0.950 . S
C4857 C4853 1.385 . S
C4857 C4856 1.374 . S
C4858 C4855 1.499 . S
C4858 C4859 1.373 . S
C4858 C4860 1.389 . S
C4859 H4838 0.950 . S
C4859 C4858 1.373 . S
C4859 C4875 1.377 . S
C4860 C4858 1.389 . S
C4860 C4861 1.524 . S
C4860 C4874 1.377 . S
C4861 C4860 1.524 . S
C4861 C4862 1.397 . S
C4861 C4866 1.363 . S
C4862 H4839 0.950 . S
C4862 C4861 1.397 . S
C4862 C4863 1.334 . S
C4863 H4840 0.950 . S
C4863 C4862 1.334 . S
C4863 C4864 1.287 . S
C4864 C4863 1.287 . S
C4864 C4865 1.524 . S
C4864 H4883 0.913 . S
C4865 H4841 0.950 . S
C4865 C4864 1.524 . S
C4865 C4866 1.415 . S
C4866 H4842 0.950 . S
C4866 C4861 1.363 . S
C4866 C4865 1.415 . S
C4867 H4843 0.951 . S
C4867 C4868 1.366 . S
C4867 C4869 1.388 . S
C4868 C4867 1.366 . S
C4868 C4872 1.385 . S
C4869 H4844 0.951 . S
C4869 C4867 1.388 . S
C4869 C4870 1.366 . S
C4870 C4869 1.366 . S
C4870 C4871 1.414 . S
C4870 C4873 1.499 . S
C4871 H4845 0.950 . S
C4871 C4870 1.414 . S
C4871 C4872 1.374 . S
C4872 H4846 0.950 . S
C4872 C4868 1.385 . S
C4872 C4871 1.374 . S
C4873 C4870 1.499 . S
C4873 C4874 1.373 . S
C4873 C4875 1.389 . S
C4874 H4847 0.950 . S
C4874 C4860 1.377 . S
C4874 C4873 1.373 . S
C4875 C4859 1.377 . S
C4875 C4873 1.389 . S
C4875 C4876 1.524 . S
C4876 C4875 1.524 . S
C4876 C4877 1.397 . S
C4876 C4881 1.363 . S
C4877 H4848 0.950 . S
C4877 C4876 1.397 . S
C4877 C4878 1.334 . S
C4878 H4849 0.950 . S
C4878 C4877 1.334 . S
C4878 C4879 1.287 . S
C4879 C4878 1.287 . S
C4879 C4880 1.524 . S
C4879 H4882 0.999 . S
C4880 H4850 0.950 . S
C4880 C4879 1.524 . S
C4880 C4881 1.415 . S
C4881 H4851 0.950 . S
C4881 C4876 1.363 . S
C4881 C4880 1.415 . S
H4882 C4879 0.999 . S
H4883 C4864 0.913 . S
H4884 C4902 0.951 . S
H4885 C4904 0.951 . S
H4886 C4906 0.950 . S
H4887 C4907 0.950 . S
H4888 C4909 0.950 . S
H4889 C4912 0.950 . S
H4890 C4913 0.950 . S
H4891 C4915 0.950 . S
H4892 C4916 0.950 . S
H4893 C4917 0.951 . S
H4894 C4919 0.951 . S
H4895 C4921 0.950 . S
H4896 C4922 0.950 . S
H4897 C4924 0.950 . S
H4898 C4927 0.950 . S
H4899 C4928 0.950 . S
H4900 C4930 0.950 . S
H4901 C4931 0.950 . S
C4902 H4884 0.951 . S
C4902 C4903 1.366 . S
C4902 C4904 1.388 . S
C4903 C4902 1.366 . S
C4903 C4907 1.385 . S
C4904 H4885 0.951 . S
C4904 C4902 1.388 . S
C4904 C4905 1.366 . S
C4905 C4904 1.366 . S
C4905 C4906 1.414 . S
C4905 C4908 1.499 . S
C4906 H4886 0.950 . S
C4906 C4905 1.414 . S
C4906 C4907 1.374 . S
C4907 H4887 0.950 . S
C4907 C4903 1.385 . S
C4907 C4906 1.374 . S
C4908 C4905 1.499 . S
C4908 C4909 1.373 . S
C4908 C4910 1.389 . S
C4909 H4888 0.950 . S
C4909 C4908 1.373 . S
C4909 C4925 1.377 . S
C4910 C4908 1.389 . S
C4910 C4911 1.524 . S
C4910 C4924 1.377 . S
C4911 C4910 1.524 . S
C4911 C4912 1.397 . S
C4911 C4916 1.363 . S
C4912 H4889 0.950 . S
C4912 C4911 1.397 . S
C4912 C4913 1.334 . S
C4913 H4890 0.950 . S
C4913 C4912 1.334 . S
C4913 C4914 1.287 . S
C4914 C4913 1.287 . S
C4914 C4915 1.524 . S
C4914 H4933 0.913 . S
C4915 H4891 0.950 . S
C4915 C4914 1.524 . S
C4915 C4916 1.415 . S
C4916 H4892 0.950 . S
C4916 C4911 1.363 . S
C4916 C4915 1.415 . S
C4917 H4893 0.951 . S
C4917 C4918 1.366 . S
C4917 C4919 1.388 . S
C4918 C4917 1.366 . S
C4918 C4922 1.385 . S
C4919 H4894 0.951 . S
C4919 C4917 1.388 . S
C4919 C4920 1.366 . S
C4920 C4919 1.366 . S
C4920 C4921 1.414 . S
C4920 C4923 1.499 . S
C4921 H4895 0.950 . S
C4921 C4920 1.414 . S
C4921 C4922 1.374 . S
C4922 H4896 0.950 . S
C4922 C4918 1.385 . S
C4922 C4921 1.374 . S
C4923 C4920 1.499 . S
C4923 C4924 1.373 . S
C4923 C4925 1.389 . S
C4924 H4897 0.950 . S
C4924 C4910 1.377 . S
C4924 C4923 1.373 . S
C4925 C4909 1.377 . S
C4925 C4923 1.389 . S
C4925 C4926 1.524 . S
C4926 C4925 1.524 . S
C4926 C4927 1.397 . S
C4926 C4931 1.363 . S
C4927 H4898 0.950 . S
C4927 C4926 1.397 . S
C4927 C4928 1.334 . S
C4928 H4899 0.950 . S
C4928 C4927 1.334 . S
C4928 C4929 1.287 . S
C4929 C4928 1.287 . S
C4929 C4930 1.524 . S
C4929 H4932 0.999 . S
C4930 H4900 0.950 . S
C4930 C4929 1.524 . S
C4930 C4931 1.415 . S
C4931 H4901 0.950 . S
C4931 C4926 1.363 . S
C4931 C4930 1.415 . S
H4932 C4929 0.999 . S
H4933 C4914 0.913 . S
H4934 C4952 0.951 . S
H4935 C4954 0.951 . S
H4936 C4956 0.950 . S
H4937 C4957 0.950 . S
H4938 C4959 0.950 . S
H4939 C4962 0.950 . S
H4940 C4963 0.950 . S
H4941 C4965 0.950 . S
H4942 C4966 0.950 . S
H4943 C4967 0.951 . S
H4944 C4969 0.951 . S
H4945 C4971 0.950 . S
H4946 C4972 0.950 . S
H4947 C4974 0.950 . S
H4948 C4977 0.950 . S
H4949 C4978 0.950 . S
H4950 C4980 0.950 . S
H4951 C4981 0.950 . S
C4952 H4934 0.951 . S
C4952 C4953 1.366 . S
C4952 C4954 1.388 . S
C4953 C4952 1.366 . S
C4953 C4957 1.385 . S
C4954 H4935 0.951 . S
C4954 C4952 1.388 . S
C4954 C4955 1.366 . S
C4955 C4954 1.366 . S
C4955 C4956 1.414 . S
C4955 C4958 1.499 . S
C4956 H4936 0.950 . S
C4956 C4955 1.414 . S
C4956 C4957 1.374 . S
C4957 H4937 0.950 . S
C4957 C4953 1.385 . S
C4957 C4956 1.374 . S
C4958 C4955 1.499 . S
C4958 C4959 1.373 . S
C4958 C4960 1.389 . S
C4959 H4938 0.950 . S
C4959 C4958 1.373 . S
C4959 C4975 1.377 . S
C4960 C4958 1.389 . S
C4960 C4961 1.524 . S
C4960 C4974 1.377 . S
C4961 C4960 1.524 . S
C4961 C4962 1.397 . S
C4961 C4966 1.363 . S
C4962 H4939 0.950 . S
C4962 C4961 1.397 . S
C4962 C4963 1.334 . S
C4963 H4940 0.950 . S
C4963 C4962 1.334 . S
C4963 C4964 1.287 . S
C4964 C4963 1.287 . S
C4964 C4965 1.524 . S
C4964 H4983 0.913 . S
C4965 H4941 0.950 . S
C4965 C4964 1.524 . S
C4965 C4966 1.415 . S
C4966 H4942 0.950 . S
C4966 C4961 1.363 . S
C4966 C4965 1.415 . S
C4967 H4943 0.951 . S
C4967 C4968 1.366 . S
C4967 C4969 1.388 . S
C4968 C4967 1.366 . S
C4968 C4972 1.385 . S
C4969 H4944 0.951 . S
C4969 C4967 1.388 . S
C4969 C4970 1.366 . S
C4970 C4969 1.366 . S
C4970 C4971 1.414 . S
C4970 C4973 1.499 . S
C4971 H4945 0.950 . S
C4971 C4970 1.414 . S
C4971 C4972 1.374 . S
C4972 H4946 0.950 . S
C4972 C4968 1.385 . S
C4972 C4971 1.374 . S
C4973 C4970 1.499 . S
C4973 C4974 1.373 . S
C4973 C4975 1.389 . S
C4974 H4947 0.950 . S
C4974 C4960 1.377 . S
C4974 C4973 1.373 . S
C4975 C4959 1.377 . S
C4975 C4973 1.389 . S
C4975 C4976 1.524 . S
C4976 C4975 1.524 . S
C4976 C4977 1.397 . S
C4976 C4981 1.363 . S
C4977 H4948 0.950 . S
C4977 C4976 1.397 . S
C4977 C4978 1.334 . S
C4978 H4949 0.950 . S
C4978 C4977 1.334 . S
C4978 C4979 1.287 . S
C4979 C4978 1.287 . S
C4979 C4980 1.524 . S
C4979 H4982 0.999 . S
C4980 H4950 0.950 . S
C4980 C4979 1.524 . S
C4980 C4981 1.415 . S
C4981 H4951 0.950 . S
C4981 C4976 1.363 . S
C4981 C4980 1.415 . S
H4982 C4979 0.999 . S
H4983 C4964 0.913 . S
H4984 C5002 0.951 . S
H4985 C5004 0.951 . S
H4986 C5006 0.950 . S
H4987 C5007 0.950 1_655 S
H4988 C5009 0.950 . S
H4989 C5012 0.950 . S
H4990 C5013 0.950 . S
H4991 C5015 0.950 . S
H4992 C5016 0.950 . S
H4993 C5017 0.951 . S
H4994 C5019 0.951 . S
H4995 C5021 0.950 . S
H4996 C5022 0.950 . S
H4997 C5024 0.950 . S
H4998 C5027 0.950 . S
H4999 C5028 0.950 . S
H5000 C5030 0.950 . S
H5001 C5031 0.950 . S
C5002 H4984 0.951 . S
C5002 C5003 1.366 . S
C5002 C5004 1.388 . S
C5003 C5002 1.366 . S
C5003 C5007 1.385 . S
C5004 H4985 0.951 . S
C5004 C5002 1.388 . S
C5004 C5005 1.366 . S
C5005 C5004 1.366 . S
C5005 C5006 1.414 . S
C5005 C5008 1.499 . S
C5006 H4986 0.950 . S
C5006 C5005 1.414 . S
C5006 C5007 1.374 . S
C5007 H4987 0.950 1_455 S
C5007 C5003 1.385 . S
C5007 C5006 1.374 . S
C5008 C5005 1.499 . S
C5008 C5009 1.373 . S
C5008 C5010 1.389 . S
C5009 H4988 0.950 . S
C5009 C5008 1.373 . S
C5009 C5025 1.377 . S
C5010 C5008 1.389 . S
C5010 C5011 1.524 . S
C5010 C5024 1.377 . S
C5011 C5010 1.524 . S
C5011 C5012 1.397 . S
C5011 C5016 1.363 . S
C5012 H4989 0.950 . S
C5012 C5011 1.397 . S
C5012 C5013 1.334 . S
C5013 H4990 0.950 . S
C5013 C5012 1.334 . S
C5013 C5014 1.287 . S
C5014 C5013 1.287 . S
C5014 C5015 1.524 . S
C5014 H5033 0.913 . S
C5015 H4991 0.950 . S
C5015 C5014 1.524 . S
C5015 C5016 1.415 . S
C5016 H4992 0.950 . S
C5016 C5011 1.363 . S
C5016 C5015 1.415 . S
C5017 H4993 0.951 . S
C5017 C5018 1.366 . S
C5017 C5019 1.388 . S
C5018 C5017 1.366 . S
C5018 C5022 1.385 . S
C5019 H4994 0.951 . S
C5019 C5017 1.388 . S
C5019 C5020 1.366 . S
C5020 C5019 1.366 . S
C5020 C5021 1.414 . S
C5020 C5023 1.499 . S
C5021 H4995 0.950 . S
C5021 C5020 1.414 . S
C5021 C5022 1.374 . S
C5022 H4996 0.950 . S
C5022 C5018 1.385 . S
C5022 C5021 1.374 . S
C5023 C5020 1.499 . S
C5023 C5024 1.373 . S
C5023 C5025 1.389 . S
C5024 H4997 0.950 . S
C5024 C5010 1.377 . S
C5024 C5023 1.373 . S
C5025 C5009 1.377 . S
C5025 C5023 1.389 . S
C5025 C5026 1.524 . S
C5026 C5025 1.524 . S
C5026 C5027 1.397 . S
C5026 C5031 1.363 . S
C5027 H4998 0.950 . S
C5027 C5026 1.397 . S
C5027 C5028 1.334 . S
C5028 H4999 0.950 . S
C5028 C5027 1.334 . S
C5028 C5029 1.287 . S
C5029 C5028 1.287 . S
C5029 C5030 1.524 . S
C5029 H5032 0.999 . S
C5030 H5000 0.950 . S
C5030 C5029 1.524 . S
C5030 C5031 1.415 . S
C5031 H5001 0.950 . S
C5031 C5026 1.363 . S
C5031 C5030 1.415 . S
H5032 C5029 0.999 . S
H5033 C5014 0.913 . S
H5034 C5052 0.951 . S
H5035 C5054 0.951 . S
H5036 C5056 0.950 . S
H5037 C5057 0.950 . S
H5038 C5059 0.950 . S
H5039 C5062 0.950 . S
H5040 C5063 0.950 . S
H5041 C5065 0.950 . S
H5042 C5066 0.950 . S
H5043 C5067 0.951 . S
H5044 C5069 0.951 . S
H5045 C5071 0.950 . S
H5046 C5072 0.950 . S
H5047 C5074 0.950 . S
H5048 C5077 0.950 . S
H5049 C5078 0.950 . S
H5050 C5080 0.950 . S
H5051 C5081 0.950 . S
C5052 H5034 0.951 . S
C5052 C5053 1.366 . S
C5052 C5054 1.388 . S
C5053 C5052 1.366 . S
C5053 C5057 1.385 . S
C5054 H5035 0.951 . S
C5054 C5052 1.388 . S
C5054 C5055 1.366 . S
C5055 C5054 1.366 . S
C5055 C5056 1.414 . S
C5055 C5058 1.499 . S
C5056 H5036 0.950 . S
C5056 C5055 1.414 . S
C5056 C5057 1.374 . S
C5057 H5037 0.950 . S
C5057 C5053 1.385 . S
C5057 C5056 1.374 . S
C5058 C5055 1.499 . S
C5058 C5059 1.373 . S
C5058 C5060 1.389 . S
C5059 H5038 0.950 . S
C5059 C5058 1.373 . S
C5059 C5075 1.377 . S
C5060 C5058 1.389 . S
C5060 C5061 1.524 . S
C5060 C5074 1.377 . S
C5061 C5060 1.524 . S
C5061 C5062 1.397 . S
C5061 C5066 1.363 1_655 S
C5062 H5039 0.950 . S
C5062 C5061 1.397 . S
C5062 C5063 1.334 . S
C5063 H5040 0.950 . S
C5063 C5062 1.334 . S
C5063 C5064 1.287 . S
C5064 C5063 1.287 . S
C5064 C5065 1.524 1_655 S
C5064 H5083 0.913 . S
C5065 H5041 0.950 . S
C5065 C5064 1.524 1_455 S
C5065 C5066 1.415 . S
C5066 H5042 0.950 . S
C5066 C5061 1.363 1_455 S
C5066 C5065 1.415 . S
C5067 H5043 0.951 . S
C5067 C5068 1.366 . S
C5067 C5069 1.388 . S
C5068 C5067 1.366 . S
C5068 C5072 1.385 1_655 S
C5069 H5044 0.951 . S
C5069 C5067 1.388 . S
C5069 C5070 1.366 . S
C5070 C5069 1.366 . S
C5070 C5071 1.414 1_655 S
C5070 C5073 1.499 . S
C5071 H5045 0.950 . S
C5071 C5070 1.414 1_455 S
C5071 C5072 1.374 . S
C5072 H5046 0.950 . S
C5072 C5068 1.385 1_455 S
C5072 C5071 1.374 . S
C5073 C5070 1.499 . S
C5073 C5074 1.373 . S
C5073 C5075 1.389 . S
C5074 H5047 0.950 . S
C5074 C5060 1.377 . S
C5074 C5073 1.373 . S
C5075 C5059 1.377 . S
C5075 C5073 1.389 . S
C5075 C5076 1.524 . S
C5076 C5075 1.524 . S
C5076 C5077 1.397 . S
C5076 C5081 1.363 . S
C5077 H5048 0.950 . S
C5077 C5076 1.397 . S
C5077 C5078 1.334 . S
C5078 H5049 0.950 . S
C5078 C5077 1.334 . S
C5078 C5079 1.287 . S
C5079 C5078 1.287 . S
C5079 C5080 1.524 . S
C5079 H5082 0.999 . S
C5080 H5050 0.950 . S
C5080 C5079 1.524 . S
C5080 C5081 1.415 . S
C5081 H5051 0.950 . S
C5081 C5076 1.363 . S
C5081 C5080 1.415 . S
H5082 C5079 0.999 . S
H5083 C5064 0.913 . S
H5084 C5102 0.951 . S
H5085 C5104 0.951 . S
H5086 C5106 0.950 . S
H5087 C5107 0.950 . S
H5088 C5109 0.950 . S
H5089 C5112 0.950 . S
H5090 C5113 0.950 . S
H5091 C5115 0.950 . S
H5092 C5116 0.950 . S
H5093 C5117 0.951 . S
H5094 C5119 0.951 . S
H5095 C5121 0.950 . S
H5096 C5122 0.950 . S
H5097 C5124 0.950 . S
H5098 C5127 0.950 . S
H5099 C5128 0.950 . S
H5100 C5130 0.950 . S
H5101 C5131 0.950 . S
C5102 H5084 0.951 . S
C5102 C5103 1.366 . S
C5102 C5104 1.388 . S
C5103 C5102 1.366 . S
C5103 C5107 1.385 . S
C5104 H5085 0.951 . S
C5104 C5102 1.388 . S
C5104 C5105 1.366 . S
C5105 C5104 1.366 . S
C5105 C5106 1.414 . S
C5105 C5108 1.499 . S
C5106 H5086 0.950 . S
C5106 C5105 1.414 . S
C5106 C5107 1.374 . S
C5107 H5087 0.950 . S
C5107 C5103 1.385 . S
C5107 C5106 1.374 . S
C5108 C5105 1.499 . S
C5108 C5109 1.373 . S
C5108 C5110 1.389 . S
C5109 H5088 0.950 . S
C5109 C5108 1.373 . S
C5109 C5125 1.377 . S
C5110 C5108 1.389 . S
C5110 C5111 1.524 . S
C5110 C5124 1.377 . S
C5111 C5110 1.524 . S
C5111 C5112 1.397 . S
C5111 C5116 1.363 . S
C5112 H5089 0.950 . S
C5112 C5111 1.397 . S
C5112 C5113 1.334 . S
C5113 H5090 0.950 . S
C5113 C5112 1.334 . S
C5113 C5114 1.287 . S
C5114 C5113 1.287 . S
C5114 C5115 1.524 . S
C5114 H5133 0.913 . S
C5115 H5091 0.950 . S
C5115 C5114 1.524 . S
C5115 C5116 1.415 . S
C5116 H5092 0.950 . S
C5116 C5111 1.363 . S
C5116 C5115 1.415 . S
C5117 H5093 0.951 . S
C5117 C5118 1.366 . S
C5117 C5119 1.388 . S
C5118 C5117 1.366 . S
C5118 C5122 1.385 . S
C5119 H5094 0.951 . S
C5119 C5117 1.388 . S
C5119 C5120 1.366 . S
C5120 C5119 1.366 . S
C5120 C5121 1.414 . S
C5120 C5123 1.499 . S
C5121 H5095 0.950 . S
C5121 C5120 1.414 . S
C5121 C5122 1.374 . S
C5122 H5096 0.950 . S
C5122 C5118 1.385 . S
C5122 C5121 1.374 . S
C5123 C5120 1.499 . S
C5123 C5124 1.373 . S
C5123 C5125 1.389 . S
C5124 H5097 0.950 . S
C5124 C5110 1.377 . S
C5124 C5123 1.373 . S
C5125 C5109 1.377 . S
C5125 C5123 1.389 . S
C5125 C5126 1.524 . S
C5126 C5125 1.524 . S
C5126 C5127 1.397 . S
C5126 C5131 1.363 . S
C5127 H5098 0.950 . S
C5127 C5126 1.397 . S
C5127 C5128 1.334 . S
C5128 H5099 0.950 . S
C5128 C5127 1.334 . S
C5128 C5129 1.287 . S
C5129 C5128 1.287 . S
C5129 C5130 1.524 . S
C5129 H5132 0.999 . S
C5130 H5100 0.950 . S
C5130 C5129 1.524 . S
C5130 C5131 1.415 . S
C5131 H5101 0.950 . S
C5131 C5126 1.363 . S
C5131 C5130 1.415 . S
H5132 C5129 0.999 . S
H5133 C5114 0.913 . S
H5134 C5152 0.951 . S
H5135 C5154 0.951 . S
H5136 C5156 0.950 . S
H5137 C5157 0.950 . S
H5138 C5159 0.950 . S
H5139 C5162 0.950 . S
H5140 C5163 0.950 . S
H5141 C5165 0.950 . S
H5142 C5166 0.950 . S
H5143 C5167 0.951 . S
H5144 C5169 0.951 . S
H5145 C5171 0.950 . S
H5146 C5172 0.950 . S
H5147 C5174 0.950 . S
H5148 C5177 0.950 . S
H5149 C5178 0.950 . S
H5150 C5180 0.950 . S
H5151 C5181 0.950 . S
C5152 H5134 0.951 . S
C5152 C5153 1.366 . S
C5152 C5154 1.388 . S
C5153 C5152 1.366 . S
C5153 C5157 1.385 . S
C5154 H5135 0.951 . S
C5154 C5152 1.388 . S
C5154 C5155 1.366 . S
C5155 C5154 1.366 . S
C5155 C5156 1.414 . S
C5155 C5158 1.499 . S
C5156 H5136 0.950 . S
C5156 C5155 1.414 . S
C5156 C5157 1.374 . S
C5157 H5137 0.950 . S
C5157 C5153 1.385 . S
C5157 C5156 1.374 . S
C5158 C5155 1.499 . S
C5158 C5159 1.373 . S
C5158 C5160 1.389 . S
C5159 H5138 0.950 . S
C5159 C5158 1.373 . S
C5159 C5175 1.377 . S
C5160 C5158 1.389 . S
C5160 C5161 1.524 . S
C5160 C5174 1.377 . S
C5161 C5160 1.524 . S
C5161 C5162 1.397 . S
C5161 C5166 1.363 . S
C5162 H5139 0.950 . S
C5162 C5161 1.397 . S
C5162 C5163 1.334 . S
C5163 H5140 0.950 . S
C5163 C5162 1.334 . S
C5163 C5164 1.287 . S
C5164 C5163 1.287 . S
C5164 C5165 1.524 . S
C5164 H5183 0.913 . S
C5165 H5141 0.950 . S
C5165 C5164 1.524 . S
C5165 C5166 1.415 . S
C5166 H5142 0.950 . S
C5166 C5161 1.363 . S
C5166 C5165 1.415 . S
C5167 H5143 0.951 . S
C5167 C5168 1.366 . S
C5167 C5169 1.388 . S
C5168 C5167 1.366 . S
C5168 C5172 1.385 . S
C5169 H5144 0.951 . S
C5169 C5167 1.388 . S
C5169 C5170 1.366 . S
C5170 C5169 1.366 . S
C5170 C5171 1.414 . S
C5170 C5173 1.499 . S
C5171 H5145 0.950 . S
C5171 C5170 1.414 . S
C5171 C5172 1.374 . S
C5172 H5146 0.950 . S
C5172 C5168 1.385 . S
C5172 C5171 1.374 . S
C5173 C5170 1.499 . S
C5173 C5174 1.373 . S
C5173 C5175 1.389 . S
C5174 H5147 0.950 . S
C5174 C5160 1.377 . S
C5174 C5173 1.373 . S
C5175 C5159 1.377 . S
C5175 C5173 1.389 . S
C5175 C5176 1.524 1_545 S
C5176 C5175 1.524 1_565 S
C5176 C5177 1.397 . S
C5176 C5181 1.363 . S
C5177 H5148 0.950 . S
C5177 C5176 1.397 . S
C5177 C5178 1.334 . S
C5178 H5149 0.950 . S
C5178 C5177 1.334 . S
C5178 C5179 1.287 . S
C5179 C5178 1.287 . S
C5179 C5180 1.524 . S
C5179 H5182 0.999 . S
C5180 H5150 0.950 . S
C5180 C5179 1.524 . S
C5180 C5181 1.415 . S
C5181 H5151 0.950 . S
C5181 C5176 1.363 . S
C5181 C5180 1.415 . S
H5182 C5179 0.999 . S
H5183 C5164 0.913 . S
C1603 C9 1.093 . S
C1618 C981 1.051 . S
C1653 C19 1.584 . S
C1668 C1061 1.544 . S
C1718 C1129 1.325 . S
C1703 C33 1.360 . S
C1753 C37 1.750 . S
C1768 C1209 1.752 . S
C1803 C5 1.478 . S
C1818 C1283 1.474 . S
C1853 C23 1.646 . S
C1868 C1351 1.572 . S
C1903 C47 1.031 . S
C1918 C1277 0.999 . S
C1968 C1357 1.499 . S
C1953 C65 1.494 . S
C2018 C1203 1.258 . S
C2003 C75 1.262 . S
C2053 C79 1.624 . S
C2068 C1135 1.649 . S
C2118 C987 1.494 . S
C2103 C51 1.469 . S
C2153 C61 1.472 . S
C2168 C1055 1.451 . S
C2203 C93 1.455 . S
C2218 C1425 1.354 . S
C2253 C103 1.630 . S
C2268 C1505 1.583 . S
C2318 C1573 1.503 . S
C2303 C117 1.578 . S
C2353 C121 1.966 . S
C2368 C321 1.921 . S
C2403 C89 1.758 . S
C2418 C395 1.707 . S
C2453 C107 1.681 . S
C2468 C463 1.606 . S
C2503 C131 1.096 . S
C2518 C389 1.071 . S
C2553 C149 1.541 . S
C2568 C469 1.544 . S
C2618 C315 1.377 . S
C2603 C159 1.395 . S
C2668 C1579 1.904 . S
C2653 C163 1.902 . S
C2718 C1431 1.610 . S
C2703 C135 1.615 . S
C2768 C1499 1.501 . S
C2753 C145 1.520 . S
C2803 C177 1.315 . S
C2818 C537 1.227 . S
C2853 C187 1.640 . S
C2868 C617 1.591 . S
C2903 C201 1.633 . S
C2918 C685 1.556 . S
C2953 C205 2.096 . S
C2968 C765 2.046 . S
C3018 C839 1.674 . S
C3003 C173 1.727 . S
C3068 C907 1.638 . S
C3053 C191 1.719 . S
C3118 C833 1.218 . S
C3103 C215 1.249 . S
C3168 C913 1.533 . S
C3153 C233 1.534 . S
C3203 C243 1.327 . S
C3218 C759 1.310 . S
C3268 C691 1.759 . S
C3253 C247 1.755 . S
C3303 C219 1.660 . S
C3318 C543 1.658 . S
C3368 C611 1.481 . S
C3353 C229 1.497 . S
C3418 C291 1.967 . S
C3403 C11 2.006 . S
C3453 C14 1.436 . S
C3468 C365 1.420 . S
C3518 C451 1.566 . S
C3503 C28 1.573 . S
C3568 C525 1.224 . S
C3553 C39 1.232 1_556 S
C3618 C587 1.646 . S
C3603 C0 1.663 1_556 S
C3668 C673 1.468 . S
C3653 C25 1.478 . S
C3703 C42 2.251 . S
C3718 C661 2.156 . S
C3753 C67 1.649 . S
C3768 C513 1.572 . S
C3803 C70 1.665 . S
C3818 C599 1.618 . S
C3853 C81 1.388 . S
C3868 C377 1.340 . S
C3918 C439 1.778 . S
C3903 C53 1.864 . S
C3953 C56 1.770 . S
C3968 C303 1.718 . S
C4018 C735 1.909 . S
C4003 C95 1.944 . S
C4053 C98 1.629 1_545 S
C4068 C809 1.615 . S
C4103 C112 1.655 . S
C4118 C895 1.643 . S
C4168 C969 0.954 . S
C4153 C123 0.953 . S
C4203 C84 1.579 . S
C4218 C1031 1.563 . S
C4253 C109 1.325 . S
C4268 C1117 1.329 . S
C4303 C126 1.913 . S
C4318 C1105 1.869 . S
C4353 C151 1.363 . S
C4368 C957 1.335 . S
C4418 C1043 1.576 . S
C4403 C154 1.618 . S
C4453 C165 1.354 . S
C4468 C821 1.298 . S
C4503 C137 1.889 1_545 S
C4518 C883 1.812 . S
C4568 C747 1.854 . S
C4553 C140 1.907 1_655 S
C4618 C1179 1.765 . S
C4603 C179 1.788 . S
C4653 C182 1.268 . S
C4668 C1253 1.268 . S
C4703 C196 1.529 . S
C4718 C1339 1.520 . S
C4768 C1413 1.188 . S
C4753 C207 1.208 . S
C4818 C1475 1.695 . S
C4803 C168 1.708 1_565 S
C4853 C193 1.628 1_455 S
C4868 C1561 1.617 . S
C4903 C210 2.201 . S
C4918 C1549 2.109 . S
C4953 C235 1.825 1_565 S
C4968 C1401 1.745 . S
C5018 C1487 1.691 . S
C5003 C238 1.741 1_455 S
C5068 C1265 0.947 . S
C5053 C249 0.953 . S
C5118 C1327 1.691 . S
C5103 C221 1.767 . S
C5153 C224 1.483 . S
C5168 C1191 1.480 1_545 S
