# Generated by pormake.
# Topology sit, (3,6)-cn, num edge types: 1
# Building blocks:
#     Node 0, Type 0, BuildingBlock: BETDAH_clean_linker_0, # of connection points: 3
#     Node 1, Type 0, BuildingBlock: BETDAH_clean_linker_0, # of connection points: 3
#     Node 2, Type 0, BuildingBlock: BETDAH_clean_linker_0, # of connection points: 3
#     Node 3, Type 0, BuildingBlock: BETDAH_clean_linker_0, # of connection points: 3
#     Node 4, Type 1, BuildingBlock: MIDCAF_clean_sbu_0, # of connection points: 6
#     Node 5, Type 1, BuildingBlock: MIDCAF_clean_sbu_0, # of connection points: 6
#     Edge 6, Type (0, 1), BuildingBlock: EZIPEK_clean_linker_0, # of connection points: 2
#     Edge 7, Type (0, 1), BuildingBlock: EZIPEK_clean_linker_0, # of connection points: 2
#     Edge 8, Type (0, 1), BuildingBlock: EZIPEK_clean_linker_0, # of connection points: 2
#     Edge 9, Type (0, 1), BuildingBlock: EZIPEK_clean_linker_0, # of connection points: 2
#     Edge 10, Type (0, 1), BuildingBlock: EZIPEK_clean_linker_0, # of connection points: 2
#     Edge 11, Type (0, 1), BuildingBlock: EZIPEK_clean_linker_0, # of connection points: 2
#     Edge 12, Type (0, 1), BuildingBlock: EZIPEK_clean_linker_0, # of connection points: 2
#     Edge 13, Type (0, 1), BuildingBlock: EZIPEK_clean_linker_0, # of connection points: 2
#     Edge 14, Type (0, 1), BuildingBlock: EZIPEK_clean_linker_0, # of connection points: 2
#     Edge 15, Type (0, 1), BuildingBlock: EZIPEK_clean_linker_0, # of connection points: 2
#     Edge 16, Type (0, 1), BuildingBlock: EZIPEK_clean_linker_0, # of connection points: 2
#     Edge 17, Type (0, 1), BuildingBlock: EZIPEK_clean_linker_0, # of connection points: 2
# Relax obj value: 0.072
# Max RMSD: 0.182
# Mean RMSD: 0.106
data_MOF--net-sit--node1-MIDCAF_clean_sbu_0--node2-BETDAH_clean_linker_0--edge1-EZIPEK_clean_linker_0
_symmetry_space_group_name_H-M    P1
_symmetry_Int_Tables_number       1
_symmetry_cell_setting            triclinic
loop_
_symmetry_equiv_pos_as_xyz
'x, y, z'
_cell_length_a     16.767544
_cell_length_b     20.583804
_cell_length_c     27.980431
_cell_angle_alpha  90.917252
_cell_angle_beta   86.215368
_cell_angle_gamma 82.031359
loop_
_atom_site_label
_atom_site_type_symbol
_atom_site_fract_x
_atom_site_fract_y
_atom_site_fract_z
_atom_type_partial_charge
H0 H 0.05125 0.52654 0.96215 0.0
H1 H 0.14935 0.33974 0.01611 0.0
H2 H 0.89542 0.3833 -0.00068 0.0
C3 C 0.04221 0.48025 0.97823 0.0
C4 C -0.03467 0.46099 0.98082 0.0
C5 C 0.10888 0.43607 -0.01007 0.0
C6 C 0.0975 0.37502 0.00906 0.0
C7 C 0.01998 0.35656 0.01341 0.0
C8 C -0.04558 0.39931 -0.00126 0.0
N9 N 0.00917 0.29157 0.02498 0.0
C10 C 0.01564 0.26882 0.07113 0.0
H11 H -0.04585 0.68703 0.97917 0.0
H12 H 0.09163 0.84349 0.00773 0.0
H13 H 0.83364 0.88315 0.00957 0.0
C14 C -0.0435 0.73743 -0.00966 0.0
C15 C 0.88548 0.78227 -0.00527 0.0
C16 C 0.03136 0.7596 -0.00698 0.0
C17 C 0.03403 0.82557 0.00607 0.0
C18 C -0.03744 0.86963 0.0138 0.0
C19 C 0.88835 0.84805 0.00747 0.0
N20 N -0.03435 0.93721 0.02187 0.0
C21 C -0.02217 0.96123 0.06699 0.0
H22 H 0.54639 1.03392 0.46405 0.0
H23 H 0.64224 0.84787 0.52015 0.0
H24 H 0.38888 0.89224 0.50191 0.0
C25 C 0.53675 0.98804 0.48056 0.0
C26 C 0.45966 0.9692 0.48303 0.0
C27 C 0.60292 0.9438 0.49291 0.0
C28 C 0.59075 0.88326 0.51267 0.0
C29 C 0.51297 0.86525 0.51687 0.0
C30 C 0.44803 0.90797 0.50145 0.0
N31 N 0.5012 0.80059 0.52883 0.0
C32 C 0.51189 0.77664 0.57434 0.0
H33 H 0.4487 0.19326 0.47733 0.0
H34 H 0.58585 0.34969 0.50669 0.0
H35 H 0.32792 0.38931 0.50768 0.0
C36 C 0.45096 0.24365 0.48855 0.0
C37 C 0.3799 0.28846 0.49284 0.0
C38 C 0.52579 0.26584 0.49148 0.0
C39 C 0.5283 0.33177 0.50473 0.0
C40 C 0.45676 0.3758 0.51229 0.0
C41 C 0.38266 0.35424 0.50561 0.0
N42 N 0.4596 0.44331 0.52086 0.0
C43 C 0.4747 0.46635 0.56575 0.0
Zn44 Zn -0.04622 0.24691 0.36666 0.0
Zn45 Zn 0.05534 0.97683 0.35421 0.0
Zn46 Zn 0.00301 0.11129 0.35989 0.0
C47 C 0.02525 1.02428 0.26156 0.0
C48 C 0.90808 1.00082 0.40975 0.0
O49 O 0.09082 0.15889 0.39692 0.0
O50 O 0.04499 0.26536 0.40419 0.0
C51 C -0.01693 0.20581 0.26901 0.0
O52 O 0.01051 1.08005 0.28417 0.0
O53 O 0.0447 0.97194 0.28357 0.0
O54 O -0.03607 0.95472 0.39743 0.0
O55 O 0.91313 1.06026 0.39775 0.0
O56 O -0.03675 0.25654 0.29553 0.0
O57 O -0.00249 0.14865 0.28715 0.0
O58 O 0.8867 0.1278 0.40087 0.0
O59 O 0.84976 0.23564 0.4016 0.0
C60 C 0.83615 0.17896 0.41323 0.0
O61 O 0.1185 1.09204 0.39197 0.0
O62 O 0.1606 0.98555 0.3806 0.0
C63 C 0.09729 0.21716 0.41201 0.0
C64 C 0.17137 1.04136 0.39619 0.0
Zn65 Zn 0.4586 0.74334 0.86924 0.0
Zn66 Zn 0.56008 0.47391 0.85173 0.0
Zn67 Zn 0.5079 0.60814 0.85982 0.0
C68 C 0.52902 0.52447 0.76007 0.0
C69 C 0.41326 0.49606 0.90767 0.0
O70 O 0.59616 0.65433 0.8975 0.0
O71 O 0.55001 0.76053 0.90695 0.0
C72 C 0.48692 0.70597 0.77089 0.0
O73 O 0.51448 0.57953 0.78363 0.0
O74 O 0.54886 0.4714 0.78111 0.0
O75 O 0.46902 0.45029 0.8945 0.0
O76 O 0.41829 0.5559 0.89679 0.0
O77 O 0.46727 0.75571 0.79841 0.0
O78 O 0.50163 0.64809 0.78784 0.0
O79 O 0.39191 0.62336 0.9012 0.0
O80 O 0.35485 0.73121 0.90403 0.0
C81 C 0.34138 0.67412 0.91456 0.0
O82 O 0.62373 0.58754 0.89147 0.0
O83 O 0.66552 0.48133 0.87823 0.0
C84 C 0.6026 0.71208 0.91369 0.0
C85 C 0.6765 0.53657 0.89481 0.0
C86 C -0.03915 0.20144 0.13447 0.0
C87 C 0.01526 0.24536 0.11971 0.0
C88 C 0.06117 0.24894 0.20068 0.0
C89 C -0.00213 0.21389 0.21696 0.0
N90 N 0.88404 0.15924 0.20064 0.0
N91 N 0.11567 0.31345 0.13809 0.0
C92 C -0.05276 0.19003 0.18415 0.0
C93 C 0.06549 0.26949 0.15254 0.0
N94 N 0.92291 0.17028 0.10093 0.0
N95 N 0.11851 0.26084 0.23099 0.0
H96 H 0.12303 0.32739 0.10263 0.0
H97 H 0.14632 0.33905 0.16163 0.0
H98 H 0.11779 0.24559 0.26636 0.0
H99 H 0.17075 0.28014 0.22002 0.0
H100 H 0.88896 0.13268 0.10892 0.0
H101 H -0.06856 0.17796 0.06428 0.0
H102 H 0.83989 0.14679 0.1791 0.0
H103 H 0.87271 0.14962 0.23676 0.0
C104 C 0.04765 1.022 0.12519 0.0
C105 C -0.01466 0.98459 0.11541 0.0
C106 C -0.06236 0.99138 0.19999 0.0
C107 C 0.00737 1.01898 0.2108 0.0
N108 N 0.12881 1.0623 0.18509 0.0
N109 N 0.87213 0.93101 0.14276 0.0
C110 C 0.06209 1.03557 0.17373 0.0
C111 C -0.06977 0.96889 0.15256 0.0
N112 N 0.09196 1.04516 0.08811 0.0
N113 N 0.87732 0.98876 0.23497 0.0
H114 H 0.86271 0.91558 0.10815 0.0
H115 H 0.83659 0.91129 0.16917 0.0
H116 H 0.8799 1.0073 0.26967 0.0
H117 H 0.82153 0.97486 0.22856 0.0
H118 H 0.13275 1.0782 0.09256 0.0
H119 H 0.08317 1.03526 0.05228 0.0
H120 H 0.17562 1.06935 0.16026 0.0
H121 H 0.13915 1.07484 0.22021 0.0
C122 C 0.56418 0.77535 0.65525 0.0
C123 C 0.51407 0.75125 0.62235 0.0
C124 C 0.44942 0.69248 0.68612 0.0
C125 C 0.50023 0.71602 0.71897 0.0
N126 N 0.61966 0.76472 0.73297 0.0
N127 N 0.42404 0.67455 0.60288 0.0
C128 C 0.56192 0.75287 0.70292 0.0
C129 C 0.46162 0.70561 0.63665 0.0
N130 N 0.61219 0.82115 0.64138 0.0
N131 N 0.38711 0.66056 0.70245 0.0
H132 H 0.43159 0.6834 0.56635 0.0
H133 H 0.39156 0.63592 0.61049 0.0
H134 H 0.37649 0.64995 0.73844 0.0
H135 H 0.34282 0.64829 0.68093 0.0
H136 H 0.64255 0.84657 0.66519 0.0
H137 H 0.61781 0.83677 0.60625 0.0
H138 H 0.67082 0.78549 0.72199 0.0
H139 H 0.6205 0.74803 0.76796 0.0
C140 C 0.54825 0.5243 0.62371 0.0
C141 C 0.48429 0.48852 0.61419 0.0
C142 C 0.43858 0.49476 0.69908 0.0
C143 C 0.50963 0.5207 0.70949 0.0
N144 N 0.63202 0.56214 0.68321 0.0
N145 N 0.36965 0.43697 0.64205 0.0
C146 C 0.56417 0.53681 0.67216 0.0
C147 C 0.42935 0.47337 0.65163 0.0
N148 N 0.59274 0.54689 0.58645 0.0
N149 N 0.37884 0.49265 0.73451 0.0
H150 H 0.35892 0.42237 0.60746 0.0
H151 H 0.334 0.41759 0.66857 0.0
H152 H 0.38282 0.51037 0.76928 0.0
H153 H 0.32226 0.48004 0.72847 0.0
H154 H 0.63496 0.57875 0.59075 0.0
H155 H 0.58287 0.53768 0.55069 0.0
H156 H 0.67869 0.56872 0.65814 0.0
H157 H 0.64332 0.57403 0.71829 0.0
C158 C 0.21937 0.42218 0.92509 0.0
C159 C 0.18996 0.44803 0.97128 0.0
C160 C 0.31101 0.50104 0.97772 0.0
C161 C 0.33709 0.47931 0.93018 0.0
N162 N 0.30967 0.4302 0.85513 0.0
N163 N 0.20064 0.5189 0.03923 0.0
C164 C 0.28977 0.44257 0.90297 0.0
C165 C 0.23374 0.48953 -0.003 0.0
N166 N 0.18002 0.37805 0.90221 0.0
N167 N 0.36123 0.53066 0.00482 0.0
H168 H 0.14558 0.50936 0.0552 0.0
H169 H 0.22499 0.55572 0.05684 0.0
H170 H 0.41812 0.53995 -0.00835 0.0
H171 H 0.34921 0.5418 0.04123 0.0
H172 H 0.20436 0.35125 0.87152 0.0
H173 H 0.12546 0.36428 0.91544 0.0
H174 H 0.27193 0.41129 0.83203 0.0
H175 H 0.36088 0.4441 0.83726 0.0
C176 C 0.80313 0.77004 0.92522 0.0
C177 C 0.81222 0.76338 0.97507 0.0
C178 C 0.68295 0.72118 0.98519 0.0
C179 C 0.67705 0.724 0.93496 0.0
N180 N 0.73891 0.73598 0.85597 0.0
N181 N 0.76896 0.72332 0.05155 0.0
C182 C 0.73959 0.74364 0.90458 0.0
C183 C 0.75458 0.73596 0.00487 0.0
N184 N 0.85355 0.80355 0.89781 0.0
N185 N 0.61944 0.706 0.01398 0.0
H186 H 0.81992 0.7354 0.06722 0.0
H187 H 0.7335 0.69696 0.07371 0.0
H188 H 0.56723 0.69293 0.00038 0.0
H189 H 0.61657 0.70976 0.05122 0.0
H190 H 0.84401 0.81605 0.86252 0.0
H191 H 0.90105 0.82417 0.91134 0.0
H192 H 0.78739 0.74284 0.83225 0.0
H193 H 0.69308 0.71656 0.83953 0.0
C194 C 0.89643 0.50357 0.90816 0.0
C195 C 0.89744 0.50073 0.95889 0.0
C196 C 0.75347 0.54246 0.96791 0.0
C197 C 0.75216 0.54143 0.91738 0.0
N198 N 0.82358 0.54591 0.84062 0.0
N199 N 0.8355 0.53736 0.03644 0.0
C200 C 0.82452 0.53091 0.88797 0.0
C201 C 0.82864 0.52741 -0.01139 0.0
N202 N -0.03869 0.47552 0.87917 0.0
N203 N 0.68277 0.55347 -0.00415 0.0
H204 H 0.89049 0.52671 0.05209 0.0
H205 H 0.78908 0.56168 0.0594 0.0
H206 H 0.6269 0.56593 0.98161 0.0
H207 H 0.67912 0.5475 0.03277 0.0
H208 H -0.04026 0.46971 0.84222 0.0
H209 H 0.01509 0.45345 0.89197 0.0
H210 H 0.87574 0.54475 0.81804 0.0
H211 H 0.77081 0.56626 0.82544 0.0
C212 C 0.17015 0.70567 0.00841 0.0
C213 C 0.10728 0.71659 0.97672 0.0
C214 C 0.19842 0.66074 0.91228 0.0
C215 C 0.26379 0.66733 0.94011 0.0
N216 N 0.31491 0.69003 0.01588 0.0
N217 N 0.06381 0.70733 0.89589 0.0
C218 C 0.2505 0.68671 -0.01102 0.0
C219 C 0.12104 0.69316 0.92818 0.0
N220 N 0.15277 0.71409 0.05666 0.0
N221 N 0.21128 0.62638 0.86969 0.0
H222 H 0.00772 0.73466 0.90433 0.0
H223 H 0.07489 0.69727 0.85926 0.0
H224 H 0.26836 0.60312 0.85731 0.0
H225 H 0.16452 0.61515 0.84967 0.0
H226 H 0.19517 0.70208 0.08181 0.0
H227 H 0.09385 0.72717 0.07153 0.0
H228 H 0.30987 0.71088 0.05029 0.0
H229 H 0.3741 0.67368 0.0026 0.0
C230 C 0.71374 0.92782 0.42827 0.0
C231 C 0.6843 0.95486 0.47414 0.0
C232 C 0.80569 1.00766 0.47982 0.0
C233 C 0.8318 0.98472 0.43255 0.0
N234 N 0.80455 0.93365 0.35821 0.0
N235 N 0.69522 1.02721 0.54121 0.0
C236 C 0.78442 0.94738 0.40587 0.0
C237 C 0.72828 0.99679 0.49931 0.0
N238 N 0.67411 0.88337 0.40595 0.0
N239 N 0.85599 1.03786 0.50649 0.0
H240 H 0.64006 1.01817 0.55734 0.0
H241 H 0.71974 1.06433 0.55834 0.0
H242 H 0.91295 1.04672 0.49313 0.0
H243 H 0.84394 1.04991 0.54277 0.0
H244 H 0.6984 0.85572 0.37563 0.0
H245 H 0.61926 0.87026 0.4193 0.0
H246 H 0.76684 0.91424 0.33535 0.0
H247 H 0.85602 0.94684 0.34017 0.0
C248 C 0.29779 0.27539 0.42335 0.0
C249 C 0.3066 0.2695 0.47327 0.0
C250 C 0.17693 0.22796 0.48363 0.0
C251 C 0.17148 0.22972 0.43333 0.0
N252 N 0.23421 0.2399 0.35431 0.0
N253 N 0.26251 0.23107 0.55012 0.0
C254 C 0.23438 0.24864 0.40286 0.0
C255 C 0.24854 0.24286 0.50328 0.0
N256 N 0.34832 0.30853 0.39573 0.0
N257 N 0.11304 0.21365 0.5125 0.0
H258 H 0.31348 0.24321 0.56574 0.0
H259 H 0.22666 0.20531 0.57251 0.0
H260 H 0.0608 0.20055 0.49895 0.0
H261 H 0.1099 0.21819 0.5497 0.0
H262 H 0.33903 0.32036 0.36029 0.0
H263 H 0.39551 0.32962 0.40922 0.0
H264 H 0.28293 0.24628 0.33063 0.0
H265 H 0.18861 0.21999 0.33802 0.0
C266 C 0.39139 1.01026 0.40979 0.0
C267 C 0.39224 1.00875 0.46056 0.0
C268 C 0.24811 1.04988 0.4691 0.0
C269 C 0.24689 1.04729 0.41858 0.0
N270 N 0.31833 1.05007 0.34166 0.0
N271 N 0.33001 1.04726 0.53763 0.0
C272 C 0.31933 1.03646 0.38925 0.0
C273 C 0.32329 1.03593 0.48995 0.0
N274 N 0.45661 0.98198 0.38116 0.0
N275 N 0.17735 1.06128 0.49696 0.0
H276 H 0.38504 1.03742 0.55334 0.0
H277 H 0.28342 1.0719 0.56031 0.0
H278 H 0.12145 1.07294 0.48258 0.0
H279 H 0.17368 1.05645 0.53399 0.0
H280 H 0.45523 0.97509 0.34428 0.0
H281 H 0.5106 0.96091 0.39425 0.0
H282 H 0.37047 1.04864 0.31903 0.0
H283 H 0.26544 1.06956 0.32622 0.0
C284 C 0.61567 0.19904 0.42685 0.0
C285 C 0.60186 0.22287 0.4753 0.0
C286 C 0.7451 0.1931 0.48763 0.0
C287 C 0.75836 0.17303 0.43888 0.0
N288 N 0.70571 0.13138 0.36876 0.0
N289 N 0.64741 0.22103 0.55523 0.0
C290 C 0.69296 0.16627 0.41113 0.0
C291 C 0.66475 0.21223 0.50701 0.0
N292 N 0.55864 0.21316 0.39444 0.0
N293 N 0.80952 0.19685 0.51444 0.0
H294 H 0.58849 0.23418 0.57009 0.0
H295 H 0.68983 0.20922 0.5804 0.0
H296 H 0.86872 0.18042 0.50123 0.0
H297 H 0.80444 0.21818 0.5487 0.0
H298 H 0.56981 0.2027 0.35787 0.0
H299 H 0.50277 0.24094 0.40267 0.0
H300 H 0.65888 0.12006 0.34883 0.0
H301 H 0.76273 0.10781 0.35653 0.0
loop_
_geom_bond_atom_site_label_1
_geom_bond_atom_site_label_2
_geom_bond_distance
_geom_bond_site_symmetry_2
_ccdc_geom_bond_type
H0 C3 0.929 . S
H1 C6 0.929 . S
H2 C8 0.930 1_655 S
C3 H0 0.929 . S
C3 C4 1.398 . S
C3 C5 1.396 . S
C4 C3 1.398 . S
C4 C8 1.407 1_556 S
C5 C3 1.396 . S
C5 C6 1.394 1_556 S
C6 H1 0.929 . S
C6 C5 1.394 1_554 S
C6 C7 1.382 . S
C7 C6 1.382 . S
C7 C8 1.392 . S
C7 N9 1.420 . S
C8 H2 0.930 1_455 S
C8 C4 1.407 1_554 S
C8 C7 1.392 . S
N9 C7 1.420 . S
N9 C10 1.244 . S
C10 N9 1.244 . S
H11 C14 0.929 . S
H12 C17 0.929 . S
H13 C19 0.930 . S
C14 H11 0.929 . S
C14 C15 1.398 1_455 S
C14 C16 1.396 . S
C15 C14 1.398 1_655 S
C15 C19 1.407 1_556 S
C16 C14 1.396 . S
C16 C17 1.394 1_556 S
C17 H12 0.929 . S
C17 C16 1.394 1_554 S
C17 C18 1.382 1_455 S
C18 C17 1.382 1_655 S
C18 C19 1.392 . S
C18 N20 1.420 . S
C19 H13 0.930 . S
C19 C15 1.407 1_554 S
C19 C18 1.392 . S
N20 C18 1.420 . S
N20 C21 1.244 1_655 S
C21 N20 1.244 1_455 S
H22 C25 0.929 . S
H23 C28 0.929 . S
H24 C30 0.930 . S
C25 H22 0.929 . S
C25 C26 1.398 . S
C25 C27 1.396 . S
C26 C25 1.398 . S
C26 C30 1.407 . S
C27 C25 1.396 . S
C27 C28 1.394 . S
C28 H23 0.929 . S
C28 C27 1.394 . S
C28 C29 1.382 . S
C29 C28 1.382 . S
C29 C30 1.392 . S
C29 N31 1.420 . S
C30 H24 0.930 . S
C30 C26 1.407 . S
C30 C29 1.392 . S
N31 C29 1.420 . S
N31 C32 1.244 . S
C32 N31 1.244 . S
H33 C36 0.929 . S
H34 C39 0.929 . S
H35 C41 0.930 . S
C36 H33 0.929 . S
C36 C37 1.398 . S
C36 C38 1.396 . S
C37 C36 1.398 . S
C37 C41 1.407 . S
C38 C36 1.396 . S
C38 C39 1.394 . S
C39 H34 0.929 . S
C39 C38 1.394 . S
C39 C40 1.382 . S
C40 C39 1.382 . S
C40 C41 1.392 . S
C40 N42 1.420 . S
C41 H35 0.930 . S
C41 C37 1.407 . S
C41 C40 1.392 . S
N42 C40 1.420 . S
N42 C43 1.244 . S
C43 N42 1.244 . S
Zn44 O50 1.920 . S
Zn44 O56 1.898 . S
Zn44 O59 1.905 1_455 S
Zn45 O53 1.905 . S
Zn45 O54 1.898 1_455 S
Zn45 O62 1.920 . S
Zn46 O49 2.080 . S
Zn46 O52 2.114 1_545 S
Zn46 O55 2.120 1_545 S
Zn46 O57 2.120 . S
Zn46 O58 2.114 1_455 S
Zn46 O61 2.080 1_545 S
C47 O52 1.166 . S
C47 O53 1.182 . S
C48 O54 1.167 . S
C48 O55 1.299 1_655 S
O49 Zn46 2.080 . S
O49 C63 1.305 . S
O50 Zn44 1.920 . S
O50 C63 1.234 . S
C51 O56 1.167 . S
C51 O57 1.299 . S
O52 Zn46 2.114 1_565 S
O52 C47 1.166 . S
O53 Zn45 1.905 . S
O53 C47 1.182 . S
O54 Zn45 1.898 1_655 S
O54 C48 1.167 . S
O55 Zn46 2.120 1_565 S
O55 C48 1.299 1_455 S
O56 Zn44 1.898 . S
O56 C51 1.167 . S
O57 Zn46 2.120 . S
O57 C51 1.299 . S
O58 Zn46 2.114 1_655 S
O58 C60 1.166 . S
O59 Zn44 1.905 1_655 S
O59 C60 1.182 . S
C60 O58 1.166 . S
C60 O59 1.182 . S
O61 Zn46 2.080 1_565 S
O61 C64 1.305 . S
O62 Zn45 1.920 . S
O62 C64 1.234 . S
C63 O49 1.305 . S
C63 O50 1.234 . S
C64 O61 1.305 . S
C64 O62 1.234 . S
Zn65 O71 1.920 . S
Zn65 O77 1.898 . S
Zn65 O80 1.905 . S
Zn66 O74 1.905 . S
Zn66 O75 1.898 . S
Zn66 O83 1.920 . S
Zn67 O70 2.080 . S
Zn67 O73 2.114 . S
Zn67 O76 2.120 . S
Zn67 O78 2.120 . S
Zn67 O79 2.114 . S
Zn67 O82 2.080 . S
C68 O73 1.166 . S
C68 O74 1.182 . S
C69 O75 1.167 . S
C69 O76 1.299 . S
O70 Zn67 2.080 . S
O70 C84 1.305 . S
O71 Zn65 1.920 . S
O71 C84 1.234 . S
C72 O77 1.167 . S
C72 O78 1.299 . S
O73 Zn67 2.114 . S
O73 C68 1.166 . S
O74 Zn66 1.905 . S
O74 C68 1.182 . S
O75 Zn66 1.898 . S
O75 C69 1.167 . S
O76 Zn67 2.120 . S
O76 C69 1.299 . S
O77 Zn65 1.898 . S
O77 C72 1.167 . S
O78 Zn67 2.120 . S
O78 C72 1.299 . S
O79 Zn67 2.114 . S
O79 C81 1.166 . S
O80 Zn65 1.905 . S
O80 C81 1.182 . S
C81 O79 1.166 . S
C81 O80 1.182 . S
O82 Zn67 2.080 . S
O82 C85 1.305 . S
O83 Zn66 1.920 . S
O83 C85 1.234 . S
C84 O70 1.305 . S
C84 O71 1.234 . S
C85 O82 1.305 . S
C85 O83 1.234 . S
C86 C87 1.363 . S
C86 C92 1.379 . S
C86 N94 1.356 . S
C87 C86 1.363 . S
C87 C93 1.363 . S
C88 C89 1.363 . S
C88 C93 1.379 . S
C88 N95 1.356 . S
C89 C88 1.363 . S
C89 C92 1.363 . S
N90 C92 1.356 . S
N90 H102 0.984 . S
N90 H103 0.985 . S
N91 C93 1.356 . S
N91 H96 0.984 . S
N91 H97 0.985 . S
C92 C86 1.379 . S
C92 C89 1.363 . S
C92 N90 1.356 . S
C93 C87 1.363 . S
C93 C88 1.379 . S
C93 N91 1.356 . S
N94 C86 1.356 . S
N94 H100 0.984 . S
N94 H101 0.984 . S
N95 C88 1.356 . S
N95 H98 0.984 . S
N95 H99 0.985 . S
H96 N91 0.984 . S
H97 N91 0.985 . S
H98 N95 0.984 . S
H99 N95 0.985 . S
H100 N94 0.984 . S
H101 N94 0.984 . S
H102 N90 0.984 . S
H103 N90 0.985 . S
C104 C105 1.363 . S
C104 C110 1.379 . S
C104 N112 1.356 . S
C105 C104 1.363 . S
C105 C111 1.362 1_455 S
C106 C107 1.363 . S
C106 C111 1.377 1_455 S
C106 N113 1.356 . S
C107 C106 1.363 . S
C107 C110 1.363 . S
N108 C110 1.356 . S
N108 H120 0.984 1_565 S
N108 H121 0.985 . S
N109 C111 1.359 . S
N109 H114 0.984 . S
N109 H115 0.985 . S
C110 C104 1.379 . S
C110 C107 1.363 . S
C110 N108 1.356 . S
C111 C105 1.362 1_655 S
C111 C106 1.377 1_655 S
C111 N109 1.359 . S
N112 C104 1.356 . S
N112 H118 0.984 . S
N112 H119 0.984 . S
N113 C106 1.356 . S
N113 H116 0.984 . S
N113 H117 0.985 1_455 S
H114 N109 0.984 . S
H115 N109 0.985 . S
H116 N113 0.984 . S
H117 N113 0.985 1_655 S
H118 N112 0.984 . S
H119 N112 0.984 . S
H120 N108 0.984 1_545 S
H121 N108 0.985 . S
C122 C123 1.363 . S
C122 C128 1.379 . S
C122 N130 1.356 . S
C123 C122 1.363 . S
C123 C129 1.363 . S
C124 C125 1.363 . S
C124 C129 1.379 . S
C124 N131 1.356 . S
C125 C124 1.363 . S
C125 C128 1.363 . S
N126 C128 1.356 . S
N126 H138 0.984 . S
N126 H139 0.985 . S
N127 C129 1.356 . S
N127 H132 0.984 . S
N127 H133 0.985 . S
C128 C122 1.379 . S
C128 C125 1.363 . S
C128 N126 1.356 . S
C129 C123 1.363 . S
C129 C124 1.379 . S
C129 N127 1.356 . S
N130 C122 1.356 . S
N130 H136 0.984 . S
N130 H137 0.984 . S
N131 C124 1.356 . S
N131 H134 0.984 . S
N131 H135 0.985 . S
H132 N127 0.984 . S
H133 N127 0.985 . S
H134 N131 0.984 . S
H135 N131 0.985 . S
H136 N130 0.984 . S
H137 N130 0.984 . S
H138 N126 0.984 . S
H139 N126 0.985 . S
C140 C141 1.363 . S
C140 C146 1.379 . S
C140 N148 1.356 . S
C141 C140 1.363 . S
C141 C147 1.363 . S
C142 C143 1.363 . S
C142 C147 1.379 . S
C142 N149 1.356 . S
C143 C142 1.363 . S
C143 C146 1.363 . S
N144 C146 1.356 . S
N144 H156 0.984 . S
N144 H157 0.985 . S
N145 C147 1.356 . S
N145 H150 0.984 . S
N145 H151 0.985 . S
C146 C140 1.379 . S
C146 C143 1.363 . S
C146 N144 1.356 . S
C147 C141 1.363 . S
C147 C142 1.379 . S
C147 N145 1.356 . S
N148 C140 1.356 . S
N148 H154 0.984 . S
N148 H155 0.984 . S
N149 C142 1.356 . S
N149 H152 0.984 . S
N149 H153 0.985 . S
H150 N145 0.984 . S
H151 N145 0.985 . S
H152 N149 0.984 . S
H153 N149 0.985 . S
H154 N148 0.984 . S
H155 N148 0.984 . S
H156 N144 0.984 . S
H157 N144 0.985 . S
C158 C159 1.363 . S
C158 C164 1.379 . S
C158 N166 1.356 . S
C159 C158 1.363 . S
C159 C165 1.363 1_556 S
C160 C161 1.363 . S
C160 C165 1.379 1_556 S
C160 N167 1.356 1_556 S
C161 C160 1.363 . S
C161 C164 1.363 . S
N162 C164 1.356 . S
N162 H174 0.984 . S
N162 H175 0.985 . S
N163 C165 1.356 . S
N163 H168 0.984 . S
N163 H169 0.985 . S
C164 C158 1.379 . S
C164 C161 1.363 . S
C164 N162 1.356 . S
C165 C159 1.363 1_554 S
C165 C160 1.379 1_554 S
C165 N163 1.356 . S
N166 C158 1.356 . S
N166 H172 0.984 . S
N166 H173 0.984 . S
N167 C160 1.356 1_554 S
N167 H170 0.984 1_554 S
N167 H171 0.985 . S
H168 N163 0.984 . S
H169 N163 0.985 . S
H170 N167 0.984 1_556 S
H171 N167 0.985 . S
H172 N166 0.984 . S
H173 N166 0.984 . S
H174 N162 0.984 . S
H175 N162 0.985 . S
C176 C177 1.363 . S
C176 C182 1.379 . S
C176 N184 1.356 . S
C177 C176 1.363 . S
C177 C183 1.363 1_556 S
C178 C179 1.363 . S
C178 C183 1.379 1_556 S
C178 N185 1.356 1_556 S
C179 C178 1.363 . S
C179 C182 1.363 . S
N180 C182 1.356 . S
N180 H192 0.984 . S
N180 H193 0.985 . S
N181 C183 1.356 . S
N181 H186 0.984 . S
N181 H187 0.985 . S
C182 C176 1.379 . S
C182 C179 1.363 . S
C182 N180 1.356 . S
C183 C177 1.363 1_554 S
C183 C178 1.379 1_554 S
C183 N181 1.356 . S
N184 C176 1.356 . S
N184 H190 0.984 . S
N184 H191 0.984 . S
N185 C178 1.356 1_554 S
N185 H188 0.979 1_554 S
N185 H189 0.985 . S
H186 N181 0.984 . S
H187 N181 0.985 . S
H188 N185 0.979 1_556 S
H189 N185 0.985 . S
H190 N184 0.984 . S
H191 N184 0.984 . S
H192 N180 0.984 . S
H193 N180 0.985 . S
C194 C195 1.363 . S
C194 C200 1.379 . S
C194 N202 1.356 1_655 S
C195 C194 1.363 . S
C195 C201 1.363 . S
C196 C197 1.363 . S
C196 C201 1.379 . S
C196 N203 1.356 . S
C197 C196 1.363 . S
C197 C200 1.363 . S
N198 C200 1.356 . S
N198 H210 0.984 . S
N198 H211 0.985 . S
N199 C201 1.356 1_554 S
N199 H204 0.984 . S
N199 H205 0.985 . S
C200 C194 1.379 . S
C200 C197 1.363 . S
C200 N198 1.356 . S
C201 C195 1.363 . S
C201 C196 1.379 . S
C201 N199 1.356 1_556 S
N202 C194 1.356 1_455 S
N202 H208 0.984 . S
N202 H209 0.984 . S
N203 C196 1.356 . S
N203 H206 0.984 . S
N203 H207 0.985 1_556 S
H204 N199 0.984 . S
H205 N199 0.985 . S
H206 N203 0.984 . S
H207 N203 0.985 1_554 S
H208 N202 0.984 . S
H209 N202 0.984 . S
H210 N198 0.984 . S
H211 N198 0.985 . S
C212 C213 1.363 . S
C212 C218 1.379 . S
C212 N220 1.356 1_556 S
C213 C212 1.363 . S
C213 C219 1.363 . S
C214 C215 1.363 . S
C214 C219 1.379 . S
C214 N221 1.356 . S
C215 C214 1.363 . S
C215 C218 1.363 . S
N216 C218 1.356 . S
N216 H228 0.984 1_556 S
N216 H229 0.985 . S
N217 C219 1.356 . S
N217 H222 0.984 . S
N217 H223 0.985 . S
C218 C212 1.379 . S
C218 C215 1.363 . S
C218 N216 1.356 . S
C219 C213 1.363 . S
C219 C214 1.379 . S
C219 N217 1.356 . S
N220 C212 1.356 1_554 S
N220 H226 0.984 . S
N220 H227 0.984 . S
N221 C214 1.356 . S
N221 H224 0.984 . S
N221 H225 0.985 . S
H222 N217 0.984 . S
H223 N217 0.985 . S
H224 N221 0.984 . S
H225 N221 0.985 . S
H226 N220 0.984 . S
H227 N220 0.984 . S
H228 N216 0.984 1_554 S
H229 N216 0.985 . S
C230 C231 1.363 . S
C230 C236 1.379 . S
C230 N238 1.356 . S
C231 C230 1.363 . S
C231 C237 1.363 . S
C232 C233 1.363 . S
C232 C237 1.379 . S
C232 N239 1.356 . S
C233 C232 1.363 . S
C233 C236 1.363 . S
N234 C236 1.356 . S
N234 H246 0.984 . S
N234 H247 0.985 1_655 S
N235 C237 1.356 . S
N235 H240 0.984 . S
N235 H241 0.985 . S
C236 C230 1.379 . S
C236 C233 1.363 . S
C236 N234 1.356 . S
C237 C231 1.363 . S
C237 C232 1.379 . S
C237 N235 1.356 . S
N238 C230 1.356 . S
N238 H244 0.984 . S
N238 H245 0.984 . S
N239 C232 1.356 . S
N239 H242 0.984 . S
N239 H243 0.985 . S
H240 N235 0.984 . S
H241 N235 0.985 . S
H242 N239 0.984 . S
H243 N239 0.985 . S
H244 N238 0.984 . S
H245 N238 0.984 . S
H246 N234 0.984 . S
H247 N234 0.985 1_455 S
C248 C249 1.363 . S
C248 C254 1.379 . S
C248 N256 1.356 . S
C249 C248 1.363 . S
C249 C255 1.363 . S
C250 C251 1.363 . S
C250 C255 1.379 . S
C250 N257 1.356 . S
C251 C250 1.363 . S
C251 C254 1.363 . S
N252 C254 1.356 . S
N252 H264 0.984 . S
N252 H265 0.985 . S
N253 C255 1.356 . S
N253 H258 0.984 . S
N253 H259 0.985 . S
C254 C248 1.379 . S
C254 C251 1.363 . S
C254 N252 1.356 . S
C255 C249 1.363 . S
C255 C250 1.379 . S
C255 N253 1.356 . S
N256 C248 1.356 . S
N256 H262 0.984 . S
N256 H263 0.984 . S
N257 C250 1.356 . S
N257 H260 0.984 . S
N257 H261 0.985 . S
H258 N253 0.984 . S
H259 N253 0.985 . S
H260 N257 0.984 . S
H261 N257 0.985 . S
H262 N256 0.984 . S
H263 N256 0.984 . S
H264 N252 0.984 . S
H265 N252 0.985 . S
C266 C267 1.363 . S
C266 C272 1.379 . S
C266 N274 1.356 . S
C267 C266 1.363 . S
C267 C273 1.363 . S
C268 C269 1.363 . S
C268 C273 1.379 . S
C268 N275 1.356 . S
C269 C268 1.363 . S
C269 C272 1.363 . S
N270 C272 1.356 . S
N270 H282 0.984 . S
N270 H283 0.985 . S
N271 C273 1.356 . S
N271 H276 0.984 . S
N271 H277 0.985 . S
C272 C266 1.379 . S
C272 C269 1.363 . S
C272 N270 1.356 . S
C273 C267 1.363 . S
C273 C268 1.379 . S
C273 N271 1.356 . S
N274 C266 1.356 . S
N274 H280 0.984 . S
N274 H281 0.984 . S
N275 C268 1.356 . S
N275 H278 0.984 . S
N275 H279 0.985 1_565 S
H276 N271 0.984 . S
H277 N271 0.985 . S
H278 N275 0.984 . S
H279 N275 0.985 1_545 S
H280 N274 0.984 . S
H281 N274 0.984 . S
H282 N270 0.984 . S
H283 N270 0.985 . S
C284 C285 1.363 . S
C284 C290 1.379 . S
C284 N292 1.356 . S
C285 C284 1.363 . S
C285 C291 1.363 . S
C286 C287 1.363 . S
C286 C291 1.379 . S
C286 N293 1.356 . S
C287 C286 1.363 . S
C287 C290 1.363 . S
N288 C290 1.356 . S
N288 H300 0.984 . S
N288 H301 0.985 . S
N289 C291 1.356 . S
N289 H294 0.984 . S
N289 H295 0.985 . S
C290 C284 1.379 . S
C290 C287 1.363 . S
C290 N288 1.356 . S
C291 C285 1.363 . S
C291 C286 1.379 . S
C291 N289 1.356 . S
N292 C284 1.356 . S
N292 H298 0.984 . S
N292 H299 0.984 . S
N293 C286 1.356 . S
N293 H296 0.984 . S
N293 H297 0.985 . S
H294 N289 0.984 . S
H295 N289 0.985 . S
H296 N293 0.984 . S
H297 N293 0.985 . S
H298 N292 0.984 . S
H299 N292 0.984 . S
H300 N288 0.984 . S
H301 N288 0.985 . S
C89 C51 1.433 . S
C87 C10 1.539 . S
C107 C47 1.418 . S
C105 C21 1.504 . S
C125 C72 1.433 . S
C123 C32 1.539 . S
C141 C43 1.504 . S
C143 C68 1.418 . S
C159 C5 1.355 . S
C161 C69 1.188 . S
C179 C84 1.196 . S
C177 C15 1.366 . S
C195 C4 1.679 1_655 S
C197 C85 1.537 . S
C215 C81 1.564 . S
C213 C16 1.694 . S
C233 C48 1.188 . S
C231 C27 1.356 . S
C249 C37 1.366 . S
C251 C63 1.196 . S
C269 C64 1.537 . S
C267 C26 1.679 . S
C287 C60 1.564 . S
C285 C38 1.694 . S
