# Generated by pormake.
# Topology the, (3,8)-cn, num edge types: 1
# Building blocks:
#     Node 0, Type 0, BuildingBlock: MIDCAF_clean_linker_0, # of connection points: 3
#     Node 1, Type 0, BuildingBlock: MIDCAF_clean_linker_0, # of connection points: 3
#     Node 2, Type 0, BuildingBlock: MIDCAF_clean_linker_0, # of connection points: 3
#     Node 3, Type 0, BuildingBlock: MIDCAF_clean_linker_0, # of connection points: 3
#     Node 4, Type 0, BuildingBlock: MIDCAF_clean_linker_0, # of connection points: 3
#     Node 5, Type 0, BuildingBlock: MIDCAF_clean_linker_0, # of connection points: 3
#     Node 6, Type 0, BuildingBlock: MIDCAF_clean_linker_0, # of connection points: 3
#     Node 7, Type 0, BuildingBlock: MIDCAF_clean_linker_0, # of connection points: 3
#     Node 8, Type 1, BuildingBlock: GIZVER_clean_sbu_0, # of connection points: 8
#     Node 9, Type 1, BuildingBlock: GIZVER_clean_sbu_0, # of connection points: 8
#     Node 10, Type 1, BuildingBlock: GIZVER_clean_sbu_0, # of connection points: 8
#     Edge 11, Type (0, 1), BuildingBlock: OJICUG_clean_linker_0, # of connection points: 2
#     Edge 12, Type (0, 1), BuildingBlock: OJICUG_clean_linker_0, # of connection points: 2
#     Edge 13, Type (0, 1), BuildingBlock: OJICUG_clean_linker_0, # of connection points: 2
#     Edge 14, Type (0, 1), BuildingBlock: OJICUG_clean_linker_0, # of connection points: 2
#     Edge 15, Type (0, 1), BuildingBlock: OJICUG_clean_linker_0, # of connection points: 2
#     Edge 16, Type (0, 1), BuildingBlock: OJICUG_clean_linker_0, # of connection points: 2
#     Edge 17, Type (0, 1), BuildingBlock: OJICUG_clean_linker_0, # of connection points: 2
#     Edge 18, Type (0, 1), BuildingBlock: OJICUG_clean_linker_0, # of connection points: 2
#     Edge 19, Type (0, 1), BuildingBlock: OJICUG_clean_linker_0, # of connection points: 2
#     Edge 20, Type (0, 1), BuildingBlock: OJICUG_clean_linker_0, # of connection points: 2
#     Edge 21, Type (0, 1), BuildingBlock: OJICUG_clean_linker_0, # of connection points: 2
#     Edge 22, Type (0, 1), BuildingBlock: OJICUG_clean_linker_0, # of connection points: 2
#     Edge 23, Type (0, 1), BuildingBlock: OJICUG_clean_linker_0, # of connection points: 2
#     Edge 24, Type (0, 1), BuildingBlock: OJICUG_clean_linker_0, # of connection points: 2
#     Edge 25, Type (0, 1), BuildingBlock: OJICUG_clean_linker_0, # of connection points: 2
#     Edge 26, Type (0, 1), BuildingBlock: OJICUG_clean_linker_0, # of connection points: 2
#     Edge 27, Type (0, 1), BuildingBlock: OJICUG_clean_linker_0, # of connection points: 2
#     Edge 28, Type (0, 1), BuildingBlock: OJICUG_clean_linker_0, # of connection points: 2
#     Edge 29, Type (0, 1), BuildingBlock: OJICUG_clean_linker_0, # of connection points: 2
#     Edge 30, Type (0, 1), BuildingBlock: OJICUG_clean_linker_0, # of connection points: 2
#     Edge 31, Type (0, 1), BuildingBlock: OJICUG_clean_linker_0, # of connection points: 2
#     Edge 32, Type (0, 1), BuildingBlock: OJICUG_clean_linker_0, # of connection points: 2
#     Edge 33, Type (0, 1), BuildingBlock: OJICUG_clean_linker_0, # of connection points: 2
#     Edge 34, Type (0, 1), BuildingBlock: OJICUG_clean_linker_0, # of connection points: 2
# Relax obj value: 0.049
# Max RMSD: 0.137
# Mean RMSD: 0.073
data_MOF--net-the--node1-GIZVER_clean_sbu_0--node2-MIDCAF_clean_linker_0--edge1-OJICUG_clean_linker_0
_symmetry_space_group_name_H-M    P1
_symmetry_Int_Tables_number       1
_symmetry_cell_setting            triclinic
loop_
_symmetry_equiv_pos_as_xyz
'x, y, z'
_cell_length_a     39.381555
_cell_length_b     37.435684
_cell_length_c     34.28059
_cell_angle_alpha  86.465438
_cell_angle_beta   95.723437
_cell_angle_gamma 104.04226
loop_
_atom_site_label
_atom_site_type_symbol
_atom_site_fract_x
_atom_site_fract_y
_atom_site_fract_z
_atom_type_partial_charge
C0 C 0.26439 0.42666 0.48134 0.0
C1 C 0.24375 0.39948 0.50472 0.0
C2 C 0.25163 0.36499 0.51116 0.0
C3 C 0.27876 0.35707 0.49266 0.0
H4 H 0.3278 0.27359 0.48004 0.0
H5 H 0.34756 0.21644 0.49398 0.0
H6 H 0.42797 0.25405 0.41391 0.0
H7 H 0.4084 0.31068 0.39974 0.0
H8 H 0.35431 0.34185 0.31751 0.0
H9 H 0.36491 0.36757 0.25193 0.0
H10 H 0.36079 0.47469 0.2884 0.0
H11 H 0.3496 0.44859 0.35487 0.0
H12 H 0.30545 0.43931 0.4426 0.0
H13 H 0.25822 0.45329 0.47568 0.0
H14 H 0.23558 0.34362 0.52875 0.0
H15 H 0.28324 0.3296 0.49674 0.0
N16 N 0.33427 0.34222 0.45224 0.0
N17 N 0.35964 0.34725 0.39273 0.0
N18 N 0.32797 0.38989 0.40618 0.0
C19 C 0.35367 0.32983 0.42806 0.0
C20 C 0.34688 0.37715 0.38149 0.0
C21 C 0.32162 0.3724 0.44171 0.0
C22 C 0.36656 0.29648 0.43874 0.0
C23 C 0.34989 0.26971 0.46572 0.0
C24 C 0.36093 0.23702 0.4735 0.0
C25 C 0.38917 0.23113 0.45495 0.0
C26 C 0.40626 0.25821 0.42872 0.0
C27 C 0.39495 0.29049 0.42052 0.0
C28 C 0.35147 0.39332 0.34143 0.0
C29 C 0.35542 0.37087 0.31166 0.0
C30 C 0.36108 0.38548 0.27392 0.0
C31 C 0.36339 0.42303 0.26507 0.0
C32 C 0.35898 0.4456 0.29457 0.0
C33 C 0.35259 0.43071 0.33244 0.0
C34 C 0.29772 0.38326 0.46667 0.0
C35 C 0.29107 0.41854 0.46217 0.0
C36 C 0.64987 0.20687 0.38366 0.0
C37 C 0.62359 0.18333 0.35995 0.0
C38 C 0.61842 0.19345 0.31995 0.0
C39 C 0.63776 0.2268 0.30455 0.0
H40 H 0.63346 0.30042 0.2117 0.0
H41 H 0.59733 0.32568 0.16116 0.0
H42 H 0.65201 0.43593 0.19319 0.0
H43 H 0.68914 0.41038 0.24364 0.0
H44 H 0.77782 0.40048 0.28944 0.0
H45 H 0.83466 0.43057 0.32204 0.0
H46 H 0.81486 0.35435 0.42173 0.0
H47 H 0.75903 0.32365 0.38869 0.0
H48 H 0.68897 0.25789 0.38739 0.0
H49 H 0.65439 0.20045 0.41468 0.0
H50 H 0.59912 0.17577 0.30045 0.0
H51 H 0.6325 0.23391 0.2738 0.0
N52 N 0.6671 0.30287 0.28053 0.0
N53 N 0.71381 0.35561 0.28423 0.0
N54 N 0.7127 0.30616 0.33041 0.0
C55 C 0.6826 0.33693 0.26617 0.0
C56 C 0.72919 0.34011 0.31634 0.0
C57 C 0.68177 0.28731 0.31257 0.0
C58 C 0.66404 0.35332 0.2322 0.0
C59 C 0.63813 0.3301 0.20788 0.0
C60 C 0.61716 0.34463 0.17889 0.0
C61 C 0.62113 0.3829 0.1734 0.0
C62 C 0.64821 0.40631 0.19641 0.0
C63 C 0.66951 0.39167 0.22542 0.0
C64 C 0.76363 0.35955 0.33627 0.0
C65 C 0.78563 0.39013 0.3183 0.0
C66 C 0.8183 0.40747 0.33714 0.0
C67 C 0.82979 0.39496 0.37469 0.0
C68 C 0.80762 0.36442 0.39256 0.0
C69 C 0.77521 0.34693 0.37362 0.0
C70 C 0.66327 0.25073 0.32851 0.0
C71 C 0.66963 0.24003 0.36806 0.0
C72 C 0.66863 0.63756 0.20311 0.0
C73 C 0.63877 0.64706 0.18376 0.0
C74 C 0.62998 0.67928 0.19402 0.0
C75 C 0.6498 0.70062 0.22442 0.0
H76 H 0.64996 0.78438 0.29827 0.0
H77 H 0.62429 0.82738 0.32851 0.0
H78 H 0.69995 0.83104 0.42925 0.0
H79 H 0.72627 0.78808 0.39873 0.0
H80 H 0.77812 0.72922 0.40495 0.0
H81 H 0.82279 0.6992 0.43806 0.0
H82 H 0.82267 0.64145 0.33294 0.0
H83 H 0.77881 0.67094 0.30001 0.0
H84 H 0.71099 0.65013 0.24771 0.0
H85 H 0.67616 0.61304 0.1956 0.0
H86 H 0.60692 0.68709 0.1797 0.0
H87 H 0.64173 0.72462 0.2325 0.0
N88 N 0.68711 0.73743 0.29515 0.0
N89 N 0.73251 0.74284 0.34625 0.0
N90 N 0.72715 0.70025 0.29736 0.0
C91 C 0.70396 0.7539 0.32848 0.0
C92 C 0.74439 0.71611 0.33054 0.0
C93 C 0.6986 0.71052 0.27941 0.0
C94 C 0.69005 0.78228 0.34613 0.0
C95 C 0.66142 0.79438 0.32676 0.0
C96 C 0.64657 0.81905 0.34417 0.0
C97 C 0.65982 0.83238 0.38149 0.0
C98 C 0.68926 0.82147 0.40037 0.0
C99 C 0.7042 0.79665 0.38291 0.0
C100 C 0.77437 0.70212 0.34997 0.0
C101 C 0.78804 0.71055 0.38877 0.0
C102 C 0.81364 0.69347 0.40771 0.0
C103 C 0.82575 0.66766 0.38816 0.0
C104 C 0.81336 0.66077 0.34891 0.0
C105 C 0.78813 0.67777 0.33006 0.0
C106 C 0.67903 0.69032 0.2448 0.0
C107 C 0.6886 0.65898 0.23304 0.0
C108 C 0.19062 0.67659 0.3792 0.0
C109 C 0.17424 0.63962 0.37189 0.0
C110 C 0.18715 0.62174 0.34374 0.0
C111 C 0.21714 0.63979 0.32515 0.0
H112 H 0.28678 0.62707 0.24507 0.0
H113 H 0.31497 0.59383 0.2039 0.0
H114 H 0.40896 0.68186 0.21268 0.0
H115 H 0.38124 0.71487 0.254 0.0
H116 H 0.38194 0.78905 0.30083 0.0
H117 H 0.41839 0.842 0.33601 0.0
H118 H 0.3446 0.82402 0.42425 0.0
H119 H 0.30801 0.77171 0.38932 0.0
H120 H 0.23288 0.72275 0.36811 0.0
H121 H 0.18103 0.69126 0.40034 0.0
H122 H 0.17525 0.59315 0.33768 0.0
H123 H 0.22728 0.6247 0.30492 0.0
N124 N 0.2832 0.67731 0.29259 0.0
N125 N 0.33445 0.72526 0.29629 0.0
N126 N 0.28838 0.72611 0.33417 0.0
C127 C 0.31577 0.69288 0.28082 0.0
C128 C 0.32089 0.74206 0.32301 0.0
C129 C 0.26923 0.69395 0.31912 0.0
C130 C 0.33175 0.67364 0.25332 0.0
C131 C 0.31339 0.63951 0.23805 0.0
C132 C 0.32947 0.62047 0.21423 0.0
C133 C 0.36435 0.63498 0.20526 0.0
C134 C 0.38227 0.66955 0.21955 0.0
C135 C 0.36624 0.68861 0.24318 0.0
C136 C 0.34208 0.77588 0.34227 0.0
C137 C 0.37328 0.79662 0.3275 0.0
C138 C 0.39405 0.82708 0.34746 0.0
C139 C 0.38432 0.83701 0.38287 0.0
C140 C 0.35279 0.81687 0.39711 0.0
C141 C 0.33181 0.78689 0.37694 0.0
C142 C 0.23479 0.67611 0.33432 0.0
C143 C 0.22044 0.69461 0.36066 0.0
C144 C 0.20426 0.62184 0.69919 0.0
C145 C 0.19253 0.62637 0.65934 0.0
C146 C 0.21487 0.65203 0.63571 0.0
C147 C 0.24814 0.67151 0.6511 0.0
H148 H 0.32373 0.78482 0.65593 0.0
H149 H 0.35832 0.84361 0.63042 0.0
H150 H 0.45372 0.81407 0.67934 0.0
H151 H 0.41953 0.7567 0.70559 0.0
H152 H 0.41825 0.69456 0.7644 0.0
H153 H 0.45138 0.66861 0.81696 0.0
H154 H 0.35472 0.60634 0.86159 0.0
H155 H 0.32112 0.63167 0.80727 0.0
H156 H 0.24601 0.63581 0.74487 0.0
H157 H 0.18774 0.60329 0.71887 0.0
H158 H 0.20734 0.65615 0.60483 0.0
H159 H 0.26485 0.69027 0.63171 0.0
N160 N 0.3146 0.71558 0.68835 0.0
N161 N 0.36444 0.71451 0.7314 0.0
N162 N 0.31339 0.66755 0.73653 0.0
C163 C 0.34849 0.73125 0.70126 0.0
C164 C 0.3474 0.68288 0.7493 0.0
C165 C 0.29684 0.68364 0.70583 0.0
C166 C 0.36873 0.76609 0.68315 0.0
C167 C 0.3521 0.79098 0.66111 0.0
C168 C 0.37198 0.82469 0.64647 0.0
C169 C 0.40894 0.8341 0.65332 0.0
C170 C 0.42537 0.8086 0.67447 0.0
C171 C 0.40563 0.77532 0.6893 0.0
C172 C 0.36686 0.66549 0.78161 0.0
C173 C 0.40383 0.67543 0.78538 0.0
C174 C 0.42299 0.66068 0.81595 0.0
C175 C 0.40595 0.63579 0.8443 0.0
C176 C 0.36887 0.62532 0.84033 0.0
C177 C 0.34955 0.63989 0.80922 0.0
C178 C 0.26033 0.66549 0.69038 0.0
C179 C 0.23775 0.64074 0.71432 0.0
C180 C 0.19373 0.33494 0.68462 0.0
C181 C 0.17336 0.31721 0.65209 0.0
C182 C 0.18546 0.29008 0.63463 0.0
C183 C 0.21706 0.28104 0.64938 0.0
H184 H 0.29222 0.22195 0.62543 0.0
H185 H 0.32218 0.18474 0.59078 0.0
H186 H 0.41079 0.20878 0.67784 0.0
H187 H 0.38155 0.24572 0.71206 0.0
H188 H 0.39036 0.30717 0.76878 0.0
H189 H 0.42582 0.34469 0.82044 0.0
H190 H 0.33497 0.37971 0.84874 0.0
H191 H 0.299 0.34234 0.79639 0.0
H192 H 0.23979 0.34056 0.72427 0.0
H193 H 0.18607 0.35675 0.6983 0.0
H194 H 0.17051 0.27573 0.60963 0.0
H195 H 0.22564 0.26016 0.63513 0.0
N196 N 0.28577 0.26754 0.67864 0.0
N197 N 0.33503 0.27866 0.72471 0.0
N198 N 0.2894 0.30757 0.72998 0.0
C199 C 0.31764 0.26132 0.69227 0.0
C200 C 0.32119 0.3017 0.74387 0.0
C201 C 0.27144 0.29067 0.69744 0.0
C202 C 0.33444 0.23719 0.6715 0.0
C203 C 0.31804 0.21918 0.63724 0.0
C204 C 0.33511 0.19774 0.61745 0.0
C205 C 0.36901 0.19413 0.63135 0.0
C206 C 0.38497 0.21152 0.66593 0.0
C207 C 0.36799 0.23265 0.68571 0.0
C208 C 0.34177 0.32192 0.77799 0.0
C209 C 0.37761 0.32241 0.78616 0.0
C210 C 0.39803 0.34391 0.81581 0.0
C211 C 0.38312 0.36509 0.83851 0.0
C212 C 0.34701 0.3634 0.83182 0.0
C213 C 0.32655 0.34221 0.80164 0.0
C214 C 0.23729 0.29892 0.68196 0.0
C215 C 0.22499 0.32584 0.69941 0.0
C216 C 0.68285 0.21355 0.62464 0.0
C217 C 0.65159 0.19236 0.63874 0.0
C218 C 0.64073 0.20268 0.67335 0.0
C219 C 0.65997 0.23429 0.69253 0.0
H220 H 0.6444 0.31646 0.76056 0.0
H221 H 0.6146 0.34712 0.80219 0.0
H222 H 0.70799 0.43519 0.8182 0.0
H223 H 0.73816 0.40436 0.77679 0.0
H224 H 0.7943 0.4137 0.71056 0.0
H225 H 0.85009 0.44613 0.68689 0.0
H226 H 0.86263 0.34449 0.64349 0.0
H227 H 0.80596 0.31242 0.66568 0.0
H228 H 0.72594 0.26075 0.63186 0.0
H229 H 0.692 0.20621 0.59815 0.0
H230 H 0.61658 0.18712 0.68474 0.0
H231 H 0.65033 0.24194 0.71855 0.0
N232 N 0.69463 0.30702 0.72226 0.0
N233 N 0.7441 0.35681 0.72748 0.0
N234 N 0.74284 0.30837 0.68663 0.0
C235 C 0.71143 0.3399 0.73794 0.0
C236 C 0.76008 0.34118 0.70201 0.0
C237 C 0.71012 0.29104 0.69657 0.0
C238 C 0.69374 0.3579 0.76494 0.0
C239 C 0.65878 0.34225 0.77302 0.0
C240 C 0.64156 0.35998 0.7968 0.0
C241 C 0.65878 0.39382 0.81336 0.0
C242 C 0.694 0.40906 0.80617 0.0
C243 C 0.71122 0.39141 0.78217 0.0
C244 C 0.79538 0.36043 0.68983 0.0
C245 C 0.80902 0.39816 0.69619 0.0
C246 C 0.84132 0.41677 0.6828 0.0
C247 C 0.86121 0.39811 0.66311 0.0
C248 C 0.84795 0.36009 0.6578 0.0
C249 C 0.81541 0.34158 0.67074 0.0
C250 C 0.69082 0.25607 0.67787 0.0
C251 C 0.70235 0.24481 0.64409 0.0
C252 C 0.66463 0.65036 0.76395 0.0
C253 C 0.66217 0.61264 0.77182 0.0
C254 C 0.67134 0.59175 0.74372 0.0
C255 C 0.68316 0.60853 0.70837 0.0
H256 H 0.74309 0.5987 0.6171 0.0
H257 H 0.7921 0.5793 0.59478 0.0
H258 H 0.82505 0.68454 0.53347 0.0
H259 H 0.77599 0.70442 0.55631 0.0
H260 H 0.69268 0.74141 0.54162 0.0
H261 H 0.67312 0.7977 0.52079 0.0
H262 H 0.67171 0.82177 0.64209 0.0
H263 H 0.69042 0.7656 0.66288 0.0
H264 H 0.67733 0.69613 0.72332 0.0
H265 H 0.65726 0.66693 0.78501 0.0
H266 H 0.66958 0.56257 0.74922 0.0
H267 H 0.69019 0.59188 0.68716 0.0
N268 N 0.71781 0.64971 0.64207 0.0
N269 N 0.72197 0.69933 0.596 0.0
N270 N 0.68962 0.69662 0.6504 0.0
C271 C 0.73033 0.66716 0.60863 0.0
C272 C 0.70148 0.71404 0.61678 0.0
C273 C 0.69744 0.6643 0.66306 0.0
C274 C 0.75596 0.65328 0.58899 0.0
C275 C 0.76038 0.61756 0.59834 0.0
C276 C 0.78835 0.60632 0.5853 0.0
C277 C 0.81252 0.63059 0.5627 0.0
C278 C 0.80698 0.66553 0.5513 0.0
C279 C 0.77877 0.67674 0.56417 0.0
C280 C 0.69273 0.74914 0.60381 0.0
C281 C 0.68856 0.75904 0.56372 0.0
C282 C 0.67737 0.79103 0.55182 0.0
C283 C 0.67117 0.81388 0.57993 0.0
C284 C 0.67672 0.80469 0.61995 0.0
C285 C 0.68711 0.77245 0.63178 0.0
C286 C 0.68525 0.64627 0.70034 0.0
C287 C 0.67582 0.66696 0.72849 0.0
Co288 Co 0.06137 0.44494 0.56934 0.0
Co289 Co 0.08402 0.4759 0.50929 0.0
Co290 Co 0.01781 0.50563 0.51246 0.0
O291 O 0.03892 0.46169 0.52041 0.0
H292 H 0.02614 0.44142 0.50462 0.0
O293 O 0.9964 0.54908 0.50447 0.0
Co294 Co 0.948 0.54376 0.48478 0.0
Co295 Co 0.98435 0.55966 0.55394 0.0
H296 H 0.01192 0.57038 0.49308 0.0
O297 O 0.09982 0.44347 0.48335 0.0
O298 O 0.10858 0.45626 0.54815 0.0
O299 O 0.10213 0.52697 0.49676 0.0
O300 O 0.04934 0.52999 0.46965 0.0
O301 O 0.98256 0.47772 0.47135 0.0
O302 O 0.90447 0.54339 0.46574 0.0
O303 O 0.95106 0.59206 0.47091 0.0
O304 O 0.93846 0.49272 0.49535 0.0
O305 O 0.98572 0.48078 0.55399 0.0
O306 O 0.98643 0.52337 0.59642 0.0
O307 O 0.93689 0.55092 0.5377 0.0
O308 O 0.96973 0.6028 0.5635 0.0
C309 C 0.07187 0.39625 0.59192 0.0
C310 C 0.07209 0.52568 0.5815 0.0
C311 C 0.08278 0.54252 0.47335 0.0
C312 C 0.11649 0.44135 0.51784 0.0
C313 C 0.91791 0.57841 0.45994 0.0
C314 C 0.94953 0.47353 0.47258 0.0
C315 C 0.9785 0.48993 0.58699 0.0
C316 C 0.93918 0.58301 0.55113 0.0
O317 O 0.07993 0.42577 0.61223 0.0
O318 O 0.05467 0.39677 0.55727 0.0
O319 O 0.05274 0.53526 0.55262 0.0
O320 O 0.0736 0.49244 0.58801 0.0
Co321 Co 0.55374 0.94534 0.48662 0.0
Co322 Co 0.57048 0.97068 0.5574 0.0
Co323 Co 0.51769 0.01325 0.51221 0.0
O324 O 0.55933 0.99239 0.50901 0.0
H325 H 0.57943 0.01058 0.50056 0.0
O326 O 0.47622 0.03431 0.51539 0.0
Co327 Co 0.4822 0.08248 0.53531 0.0
Co328 Co 0.46324 0.05304 0.46544 0.0
H329 H 0.45651 0.01658 0.52531 0.0
O330 O 0.61492 0.96319 0.57042 0.0
O331 O 0.5689 0.92505 0.53827 0.0
O332 O 0.53644 0.96152 0.59587 0.0
O333 O 0.49519 0.97493 0.55244 0.0
O334 O 0.54572 0.04608 0.55454 0.0
O335 O 0.4832 0.12573 0.55454 0.0
O336 O 0.43713 0.07679 0.54725 0.0
O337 O 0.5303 0.09502 0.5268 0.0
O338 O 0.53944 0.05143 0.47143 0.0
O339 O 0.49622 0.05716 0.4264 0.0
O340 O 0.47112 0.10064 0.48207 0.0
O341 O 0.42072 0.06829 0.45284 0.0
C342 C 0.58417 0.9193 0.45842 0.0
C343 C 0.48517 0.94529 0.47472 0.0
C344 C 0.50436 0.95929 0.58462 0.0
C345 C 0.60102 0.93179 0.5545 0.0
C346 C 0.45032 0.11038 0.55876 0.0
C347 C 0.55112 0.08105 0.55003 0.0
C348 C 0.52874 0.06303 0.43761 0.0
C349 C 0.43949 0.09902 0.46671 0.0
O350 O 0.55186 0.90346 0.46458 0.0
O351 O 0.59807 0.95235 0.47123 0.0
O352 O 0.48991 0.98022 0.47019 0.0
O353 O 0.50638 0.93175 0.49797 0.0
Co354 Co 0.4702 0.52949 0.08928 0.0
Co355 Co 0.45273 0.46084 0.07088 0.0
Co356 Co 0.50804 0.50738 1.01247 0.0
O357 O 0.4653 0.50425 0.04102 0.0
H358 H 0.44548 0.50796 0.02361 0.0
O359 O 0.55113 0.51073 0.98463 0.0
Co360 Co 0.54811 0.48933 0.93481 0.0
Co361 Co 0.56389 0.55625 0.95898 0.0
H362 H 0.57062 0.50626 1.00209 0.0
O363 O 0.40751 0.44364 0.08679 0.0
O364 O 0.45317 0.48246 0.11825 0.0
O365 O 0.48695 0.43158 0.07942 0.0
O366 O 0.52893 0.47276 0.05085 0.0
O367 O 0.4805 0.4652 0.97955 0.0
O368 O 0.54847 0.46841 0.88988 0.0
O369 O 0.59227 0.48142 0.93798 0.0
O370 O 0.50142 0.49322 0.92556 0.0
O371 O 0.48724 0.54174 0.97411 0.0
O372 O 0.53048 0.58682 0.95354 0.0
O373 O 0.56475 0.53883 0.90971 0.0
O374 O 0.60927 0.57518 0.94597 0.0
C375 C 0.43979 0.5552 0.11811 0.0
C376 C 0.53933 0.54712 0.0816 0.0
C377 C 0.51893 0.44386 0.07284 0.0
C378 C 0.42113 0.46253 0.11742 0.0
C379 C 0.58004 0.46713 0.90403 0.0
C380 C 0.47876 0.46837 0.94203 0.0
C381 C 0.49802 0.57285 0.95619 0.0
C382 C 0.59659 0.55955 0.91311 0.0
O383 O 0.47138 0.55388 0.13221 0.0
O384 O 0.42666 0.53895 0.08537 0.0
O385 O 0.53569 0.55002 0.04426 0.0
O386 O 0.5165 0.52408 0.09966 0.0
C387 C 0.17936 0.38702 0.49342 0.0
C388 C 0.21019 0.40481 0.51518 0.0
H389 H 0.12515 0.38508 0.47715 0.0
C390 C 0.20906 0.43129 0.54187 0.0
H391 H 0.17995 0.36671 0.47245 0.0
C392 C 0.17748 0.44117 0.54532 0.0
C393 C 0.14729 0.42551 0.52106 0.0
H394 H 0.2328 0.44541 0.5586 0.0
H395 H 0.17734 0.46288 0.56474 0.0
C396 C 0.14821 0.39765 0.49595 0.0
C397 C 0.61294 0.12881 0.4085 0.0
C398 C 0.60026 0.14965 0.37724 0.0
H399 H 0.60056 0.08489 0.45177 0.0
C400 C 0.56441 0.13913 0.36383 0.0
H401 H 0.64045 0.13553 0.41923 0.0
C402 C 0.54171 0.10961 0.38195 0.0
C403 C 0.55403 0.08994 0.41438 0.0
H404 H 0.55336 0.15466 0.34033 0.0
H405 H 0.51411 0.10337 0.37154 0.0
C406 C 0.59009 0.09943 0.42692 0.0
C407 C 0.88117 0.66216 0.42954 0.0
C408 C 0.84919 0.64557 0.40872 0.0
H409 H 0.92861 0.65393 0.46173 0.0
C410 C 0.83989 0.60711 0.40594 0.0
H411 H 0.88888 0.69178 0.43212 0.0
C412 C 0.86226 0.58566 0.42278 0.0
C413 C 0.89475 0.6021 0.44257 0.0
H414 H 0.81519 0.59354 0.39051 0.0
H415 H 0.85421 0.55609 0.41974 0.0
C416 C 0.90396 0.64058 0.4461 0.0
C417 C 0.4177 0.85856 0.44628 0.0
C418 C 0.40817 0.8663 0.40667 0.0
H419 H 0.44951 0.87758 0.49868 0.0
C420 C 0.42238 0.90144 0.39012 0.0
H421 H 0.40733 0.83167 0.45975 0.0
C422 C 0.44609 0.92815 0.41276 0.0
C423 C 0.45658 0.91973 0.45195 0.0
H424 H 0.41532 0.90811 0.35966 0.0
H425 H 0.4573 0.95476 0.3992 0.0
C426 C 0.44187 0.88482 0.46853 0.0
C427 C 0.13845 0.61485 0.60985 0.0
C428 C 0.15855 0.6025 0.64203 0.0
H429 H 0.09509 0.6007 0.56565 0.0
C430 C 0.14696 0.56592 0.65629 0.0
H431 H 0.14595 0.64294 0.59828 0.0
C432 C 0.11742 0.54215 0.63822 0.0
C433 C 0.09849 0.55377 0.6048 0.0
H434 H 0.16164 0.55477 0.68041 0.0
H435 H 0.11041 0.5139 0.64954 0.0
C436 C 0.10884 0.59077 0.59141 0.0
C437 C 0.37252 0.13792 0.59602 0.0
C438 C 0.38852 0.17318 0.60992 0.0
H439 H 0.37948 0.09006 0.56917 0.0
C440 C 0.42424 0.18802 0.6049 0.0
H441 H 0.34504 0.12575 0.59946 0.0
C442 C 0.44384 0.16774 0.58779 0.0
C443 C 0.42836 0.13192 0.57524 0.0
H444 H 0.43721 0.21538 0.61456 0.0
H445 H 0.47139 0.18012 0.58494 0.0
C446 C 0.3923 0.1174 0.57894 0.0
C447 C 0.90334 0.40924 0.61022 0.0
C448 C 0.89451 0.4187 0.6464 0.0
H449 H 0.93707 0.42364 0.56363 0.0
C450 C 0.91667 0.4494 0.6651 0.0
H451 H 0.88691 0.38616 0.59453 0.0
C452 C 0.94535 0.47135 0.64697 0.0
C453 C 0.95295 0.46293 0.60986 0.0
H454 H 0.91141 0.45711 0.69341 0.0
H455 H 0.96083 0.49568 0.66144 0.0
C456 C 0.93227 0.43089 0.59235 0.0
C457 C 0.62403 0.84053 0.54505 0.0
C458 C 0.65611 0.84566 0.56823 0.0
H459 H 0.58087 0.86347 0.5234 0.0
C460 C 0.67136 0.88008 0.58418 0.0
H461 H 0.61167 0.81401 0.53283 0.0
C462 C 0.65406 0.90861 0.57835 0.0
C463 C 0.62094 0.90293 0.55704 0.0
H464 H 0.69615 0.88452 0.60215 0.0
H465 H 0.66609 0.93461 0.59181 0.0
C466 C 0.60639 0.86882 0.53984 0.0
C467 C 0.43662 0.19833 0.47148 0.0
C468 C 0.40088 0.19669 0.46198 0.0
H469 H 0.47674 0.16872 0.48018 0.0
C470 C 0.37722 0.16243 0.45588 0.0
H471 H 0.45523 0.22449 0.47659 0.0
C472 C 0.38953 0.13029 0.45757 0.0
C473 C 0.42555 0.13216 0.46581 0.0
H474 H 0.34951 0.16071 0.44834 0.0
H475 H 0.37101 0.10418 0.45203 0.0
C476 C 0.44884 0.16639 0.47346 0.0
C477 C 0.8839 0.3952 0.42197 0.0
C478 C 0.86378 0.41452 0.39604 0.0
H479 H 0.92728 0.39875 0.46632 0.0
C480 C 0.87542 0.45313 0.39248 0.0
H481 H 0.87635 0.36545 0.42506 0.0
C482 C 0.90501 0.47188 0.41546 0.0
C483 C 0.92373 0.45272 0.44278 0.0
H484 H 0.8608 0.46923 0.37329 0.0
H485 H 0.91259 0.50165 0.41277 0.0
C486 C 0.91346 0.41414 0.44521 0.0
C487 C 0.65968 0.88687 0.42191 0.0
C488 C 0.6413 0.85554 0.4013 0.0
H489 H 0.65613 0.93218 0.45581 0.0
C490 C 0.60445 0.84594 0.39972 0.0
H491 H 0.68811 0.89498 0.42364 0.0
C492 C 0.58637 0.867 0.41796 0.0
C493 C 0.60449 0.89848 0.43826 0.0
H494 H 0.58946 0.82166 0.38478 0.0
H495 H 0.55795 0.85842 0.4161 0.0
C496 C 0.64141 0.90832 0.44003 0.0
C497 C 0.15238 0.62173 0.43792 0.0
C498 C 0.14682 0.61866 0.39699 0.0
H499 H 0.13595 0.60004 0.49403 0.0
C500 C 0.11678 0.59334 0.38118 0.0
H501 H 0.17542 0.64061 0.45111 0.0
C502 C 0.0937 0.5704 0.40599 0.0
C503 C 0.10081 0.57203 0.4469 0.0
H504 H 0.11176 0.59051 0.34974 0.0
H505 H 0.07175 0.54981 0.39331 0.0
C506 C 0.12981 0.5985 0.46254 0.0
C507 C 0.46205 0.88769 0.65934 0.0
C508 C 0.43078 0.8697 0.63793 0.0
H509 H 0.50965 0.93015 0.65959 0.0
C510 C 0.42199 0.88477 0.60074 0.0
H511 H 0.4693 0.87767 0.68854 0.0
C512 C 0.44484 0.91558 0.58456 0.0
C513 C 0.47722 0.93186 0.60495 0.0
H514 H 0.39834 0.87169 0.5832 0.0
H515 H 0.438 0.92524 0.55506 0.0
C516 C 0.4851 0.91812 0.64295 0.0
C517 C 0.13213 0.33207 0.59513 0.0
C518 C 0.14077 0.32881 0.63591 0.0
H519 H 0.10141 0.35443 0.54895 0.0
C520 C 0.12003 0.3406 0.66128 0.0
H521 H 0.14734 0.3233 0.57456 0.0
C522 C 0.09455 0.35932 0.64652 0.0
C523 C 0.08838 0.36577 0.60598 0.0
H524 H 0.12486 0.33734 0.6928 0.0
H525 H 0.08132 0.37096 0.66698 0.0
C526 C 0.10578 0.34997 0.58034 0.0
C527 C 0.62062 0.16732 0.57525 0.0
C528 C 0.62891 0.16161 0.61561 0.0
H529 H 0.58966 0.14618 0.52309 0.0
C530 C 0.61378 0.12735 0.63361 0.0
H531 H 0.63156 0.19344 0.56055 0.0
C532 C 0.59013 0.09981 0.61182 0.0
C533 C 0.58061 0.10647 0.57192 0.0
H534 H 0.61981 0.12211 0.66465 0.0
H535 H 0.57796 0.07416 0.62659 0.0
C536 C 0.59655 0.14027 0.55381 0.0
C537 C 0.84337 0.58446 0.54349 0.0
C538 C 0.84494 0.6203 0.55451 0.0
H539 H 0.87186 0.54448 0.53448 0.0
C540 C 0.87789 0.64481 0.56204 0.0
H541 H 0.81832 0.56516 0.53711 0.0
C542 C 0.90876 0.63303 0.56041 0.0
C543 C 0.90707 0.59662 0.55113 0.0
H544 H 0.8798 0.67254 0.57097 0.0
H545 H 0.93382 0.65216 0.5672 0.0
C546 C 0.87409 0.57269 0.54199 0.0
C547 C 0.4027 0.46814 0.22275 0.0
C548 C 0.37343 0.4384 0.22594 0.0
H549 H 0.44097 0.49903 0.18584 0.0
C550 C 0.35714 0.42001 0.19201 0.0
H551 H 0.41584 0.48262 0.24852 0.0
C552 C 0.37139 0.42944 0.15603 0.0
C553 C 0.40242 0.45717 0.15345 0.0
H554 H 0.33432 0.39716 0.19371 0.0
H555 H 0.35915 0.41361 0.1308 0.0
C556 C 0.41719 0.47734 0.18685 0.0
C557 C 0.45943 0.64254 0.89299 0.0
C558 C 0.42726 0.62067 0.87705 0.0
H559 H 0.50681 0.64478 0.93037 0.0
C560 C 0.41695 0.58382 0.89107 0.0
H561 H 0.46792 0.67131 0.884 0.0
C562 C 0.43904 0.56885 0.91862 0.0
C563 C 0.47214 0.59022 0.9325 0.0
H564 H 0.39258 0.56597 0.87946 0.0
H565 H 0.43095 0.53996 0.92742 0.0
C566 C 0.48169 0.62744 0.91999 0.0
C567 C 0.4007 0.39164 0.90582 0.0
C568 C 0.40627 0.39167 0.86588 0.0
H569 H 0.41966 0.41552 0.96185 0.0
C570 C 0.43484 0.41737 0.8515 0.0
H571 H 0.37874 0.37204 0.91755 0.0
C572 C 0.45761 0.44232 0.8763 0.0
C573 C 0.45294 0.44198 0.91654 0.0
H574 H 0.43951 0.41831 0.82078 0.0
H575 H 0.47922 0.4617 0.86371 0.0
C576 C 0.42411 0.41638 0.9311 0.0
C577 C 0.65511 0.43098 0.87156 0.0
C578 C 0.63945 0.41357 0.8367 0.0
H579 H 0.64874 0.46141 0.92047 0.0
C580 C 0.60476 0.41503 0.824 0.0
H581 H 0.68177 0.4303 0.88224 0.0
C582 C 0.586 0.43279 0.84571 0.0
C583 C 0.60126 0.44958 0.88095 0.0
H584 H 0.59206 0.40261 0.79696 0.0
H585 H 0.55928 0.43304 0.83483 0.0
C586 C 0.63616 0.44868 0.89355 0.0
C587 C 0.66233 0.61176 0.84461 0.0
C588 C 0.64875 0.59534 0.80886 0.0
H589 H 0.65688 0.61284 0.90584 0.0
C590 C 0.62019 0.56446 0.80833 0.0
H591 H 0.68459 0.63539 0.84572 0.0
C592 C 0.604 0.55172 0.84266 0.0
C593 C 0.61644 0.5694 0.87812 0.0
H594 H 0.60923 0.55143 0.78103 0.0
H595 H 0.58101 0.52892 0.84106 0.0
C596 C 0.64649 0.59875 0.87899 0.0
C597 C 0.60316 0.63403 0.11854 0.0
C598 C 0.61532 0.62148 0.15562 0.0
H599 H 0.57016 0.61989 0.06513 0.0
C600 C 0.60411 0.58401 0.16661 0.0
H601 H 0.61153 0.66277 0.10933 0.0
C602 C 0.58036 0.55981 0.14177 0.0
C603 C 0.56768 0.57232 0.10501 0.0
H604 H 0.61283 0.5736 0.19509 0.0
H605 H 0.57141 0.5313 0.15164 0.0
C606 C 0.57982 0.6095 0.09318 0.0
C607 C 0.41758 0.61236 0.19504 0.0
C608 C 0.38279 0.61366 0.18275 0.0
H609 H 0.46242 0.59303 0.1847 0.0
C610 C 0.36623 0.59461 0.14915 0.0
H611 H 0.43094 0.62602 0.22118 0.0
C612 C 0.38444 0.57541 0.12794 0.0
C613 C 0.41946 0.57466 0.14013 0.0
H614 H 0.33944 0.59511 0.13885 0.0
H615 H 0.37118 0.56134 0.102 0.0
C616 C 0.43559 0.59314 0.17414 0.0
C617 C 0.60639 0.43027 0.1224 0.0
C618 C 0.59562 0.39782 0.14554 0.0
H619 H 0.59095 0.46995 0.08081 0.0
C620 C 0.5597 0.37979 0.14264 0.0
H621 H 0.63382 0.44477 0.12355 0.0
C622 C 0.53522 0.39399 0.11799 0.0
C623 C 0.54578 0.42676 0.09538 0.0
H624 H 0.55016 0.35511 0.16038 0.0
H625 H 0.50778 0.3796 0.1174 0.0
C626 C 0.58181 0.4445 0.09753 0.0
loop_
_geom_bond_atom_site_label_1
_geom_bond_atom_site_label_2
_geom_bond_distance
_geom_bond_site_symmetry_2
_ccdc_geom_bond_type
C0 C1 1.384 . S
C0 H13 0.947 . S
C0 C35 1.382 . S
C1 C0 1.384 . S
C1 C2 1.378 . S
C2 C1 1.378 . S
C2 C3 1.378 . S
C2 H14 0.952 . S
C3 C2 1.378 . S
C3 H15 0.950 . S
C3 C34 1.383 . S
H4 C23 0.947 . S
H5 C24 0.946 . S
H6 C26 0.953 . S
H7 C27 0.945 . S
H8 C29 0.952 . S
H9 C30 0.949 . S
H10 C32 0.950 . S
H11 C33 0.948 . S
H12 C35 0.951 . S
H13 C0 0.947 . S
H14 C2 0.952 . S
H15 C3 0.950 . S
N16 C19 1.382 . S
N16 C21 1.363 . S
N17 C19 1.371 . S
N17 C20 1.372 . S
N18 C20 1.361 . S
N18 C21 1.377 . S
C19 N16 1.382 . S
C19 N17 1.371 . S
C19 C22 1.480 . S
C20 N17 1.372 . S
C20 N18 1.361 . S
C20 C28 1.457 . S
C21 N16 1.363 . S
C21 N18 1.377 . S
C21 C34 1.479 . S
C22 C19 1.480 . S
C22 C23 1.383 . S
C22 C27 1.385 . S
C23 H4 0.947 . S
C23 C22 1.383 . S
C23 C24 1.388 . S
C24 H5 0.946 . S
C24 C23 1.388 . S
C24 C25 1.384 . S
C25 C24 1.384 . S
C25 C26 1.377 . S
C26 H6 0.953 . S
C26 C25 1.377 . S
C26 C27 1.369 . S
C27 H7 0.945 . S
C27 C22 1.385 . S
C27 C26 1.369 . S
C28 C20 1.457 . S
C28 C29 1.372 . S
C28 C33 1.364 . S
C29 H8 0.952 . S
C29 C28 1.372 . S
C29 C30 1.389 . S
C30 H9 0.949 . S
C30 C29 1.389 . S
C30 C31 1.387 . S
C31 C30 1.387 . S
C31 C32 1.372 . S
C32 H10 0.950 . S
C32 C31 1.372 . S
C32 C33 1.379 . S
C33 H11 0.948 . S
C33 C28 1.364 . S
C33 C32 1.379 . S
C34 C3 1.383 . S
C34 C21 1.479 . S
C34 C35 1.398 . S
C35 C0 1.382 . S
C35 H12 0.951 . S
C35 C34 1.398 . S
C36 C37 1.384 . S
C36 H49 0.947 . S
C36 C71 1.382 . S
C37 C36 1.384 . S
C37 C38 1.378 . S
C38 C37 1.378 . S
C38 C39 1.378 . S
C38 H50 0.952 . S
C39 C38 1.378 . S
C39 H51 0.950 . S
C39 C70 1.383 . S
H40 C59 0.947 . S
H41 C60 0.946 . S
H42 C62 0.953 . S
H43 C63 0.945 . S
H44 C65 0.952 . S
H45 C66 0.949 . S
H46 C68 0.950 . S
H47 C69 0.948 . S
H48 C71 0.951 . S
H49 C36 0.947 . S
H50 C38 0.952 . S
H51 C39 0.950 . S
N52 C55 1.382 . S
N52 C57 1.363 . S
N53 C55 1.371 . S
N53 C56 1.372 . S
N54 C56 1.361 . S
N54 C57 1.377 . S
C55 N52 1.382 . S
C55 N53 1.371 . S
C55 C58 1.480 . S
C56 N53 1.372 . S
C56 N54 1.361 . S
C56 C64 1.457 . S
C57 N52 1.363 . S
C57 N54 1.377 . S
C57 C70 1.479 . S
C58 C55 1.480 . S
C58 C59 1.383 . S
C58 C63 1.385 . S
C59 H40 0.947 . S
C59 C58 1.383 . S
C59 C60 1.388 . S
C60 H41 0.946 . S
C60 C59 1.388 . S
C60 C61 1.384 . S
C61 C60 1.384 . S
C61 C62 1.377 . S
C62 H42 0.953 . S
C62 C61 1.377 . S
C62 C63 1.369 . S
C63 H43 0.945 . S
C63 C58 1.385 . S
C63 C62 1.369 . S
C64 C56 1.457 . S
C64 C65 1.372 . S
C64 C69 1.364 . S
C65 H44 0.952 . S
C65 C64 1.372 . S
C65 C66 1.389 . S
C66 H45 0.949 . S
C66 C65 1.389 . S
C66 C67 1.387 . S
C67 C66 1.387 . S
C67 C68 1.372 . S
C68 H46 0.950 . S
C68 C67 1.372 . S
C68 C69 1.379 . S
C69 H47 0.948 . S
C69 C64 1.364 . S
C69 C68 1.379 . S
C70 C39 1.383 . S
C70 C57 1.479 . S
C70 C71 1.398 . S
C71 C36 1.382 . S
C71 H48 0.951 . S
C71 C70 1.398 . S
C72 C73 1.384 . S
C72 H85 0.947 . S
C72 C107 1.382 . S
C73 C72 1.384 . S
C73 C74 1.378 . S
C74 C73 1.378 . S
C74 C75 1.378 . S
C74 H86 0.952 . S
C75 C74 1.378 . S
C75 H87 0.950 . S
C75 C106 1.383 . S
H76 C95 0.947 . S
H77 C96 0.946 . S
H78 C98 0.953 . S
H79 C99 0.945 . S
H80 C101 0.952 . S
H81 C102 0.949 . S
H82 C104 0.950 . S
H83 C105 0.948 . S
H84 C107 0.951 . S
H85 C72 0.947 . S
H86 C74 0.952 . S
H87 C75 0.950 . S
N88 C91 1.382 . S
N88 C93 1.363 . S
N89 C91 1.371 . S
N89 C92 1.372 . S
N90 C92 1.361 . S
N90 C93 1.377 . S
C91 N88 1.382 . S
C91 N89 1.371 . S
C91 C94 1.480 . S
C92 N89 1.372 . S
C92 N90 1.361 . S
C92 C100 1.457 . S
C93 N88 1.363 . S
C93 N90 1.377 . S
C93 C106 1.479 . S
C94 C91 1.480 . S
C94 C95 1.383 . S
C94 C99 1.385 . S
C95 H76 0.947 . S
C95 C94 1.383 . S
C95 C96 1.388 . S
C96 H77 0.946 . S
C96 C95 1.388 . S
C96 C97 1.384 . S
C97 C96 1.384 . S
C97 C98 1.377 . S
C98 H78 0.953 . S
C98 C97 1.377 . S
C98 C99 1.369 . S
C99 H79 0.945 . S
C99 C94 1.385 . S
C99 C98 1.369 . S
C100 C92 1.457 . S
C100 C101 1.372 . S
C100 C105 1.364 . S
C101 H80 0.952 . S
C101 C100 1.372 . S
C101 C102 1.389 . S
C102 H81 0.949 . S
C102 C101 1.389 . S
C102 C103 1.387 . S
C103 C102 1.387 . S
C103 C104 1.372 . S
C104 H82 0.950 . S
C104 C103 1.372 . S
C104 C105 1.379 . S
C105 H83 0.948 . S
C105 C100 1.364 . S
C105 C104 1.379 . S
C106 C75 1.383 . S
C106 C93 1.479 . S
C106 C107 1.398 . S
C107 C72 1.382 . S
C107 H84 0.951 . S
C107 C106 1.398 . S
C108 C109 1.384 . S
C108 H121 0.947 . S
C108 C143 1.382 . S
C109 C108 1.384 . S
C109 C110 1.378 . S
C110 C109 1.378 . S
C110 C111 1.378 . S
C110 H122 0.952 . S
C111 C110 1.378 . S
C111 H123 0.950 . S
C111 C142 1.383 . S
H112 C131 0.947 . S
H113 C132 0.946 . S
H114 C134 0.953 . S
H115 C135 0.945 . S
H116 C137 0.952 . S
H117 C138 0.949 . S
H118 C140 0.950 . S
H119 C141 0.948 . S
H120 C143 0.951 . S
H121 C108 0.947 . S
H122 C110 0.952 . S
H123 C111 0.950 . S
N124 C127 1.382 . S
N124 C129 1.363 . S
N125 C127 1.371 . S
N125 C128 1.372 . S
N126 C128 1.361 . S
N126 C129 1.377 . S
C127 N124 1.382 . S
C127 N125 1.371 . S
C127 C130 1.480 . S
C128 N125 1.372 . S
C128 N126 1.361 . S
C128 C136 1.457 . S
C129 N124 1.363 . S
C129 N126 1.377 . S
C129 C142 1.479 . S
C130 C127 1.480 . S
C130 C131 1.383 . S
C130 C135 1.385 . S
C131 H112 0.947 . S
C131 C130 1.383 . S
C131 C132 1.388 . S
C132 H113 0.946 . S
C132 C131 1.388 . S
C132 C133 1.384 . S
C133 C132 1.384 . S
C133 C134 1.377 . S
C134 H114 0.953 . S
C134 C133 1.377 . S
C134 C135 1.369 . S
C135 H115 0.945 . S
C135 C130 1.385 . S
C135 C134 1.369 . S
C136 C128 1.457 . S
C136 C137 1.372 . S
C136 C141 1.364 . S
C137 H116 0.952 . S
C137 C136 1.372 . S
C137 C138 1.389 . S
C138 H117 0.949 . S
C138 C137 1.389 . S
C138 C139 1.387 . S
C139 C138 1.387 . S
C139 C140 1.372 . S
C140 H118 0.950 . S
C140 C139 1.372 . S
C140 C141 1.379 . S
C141 H119 0.948 . S
C141 C136 1.364 . S
C141 C140 1.379 . S
C142 C111 1.383 . S
C142 C129 1.479 . S
C142 C143 1.398 . S
C143 C108 1.382 . S
C143 H120 0.951 . S
C143 C142 1.398 . S
C144 C145 1.384 . S
C144 H157 0.947 . S
C144 C179 1.382 . S
C145 C144 1.384 . S
C145 C146 1.378 . S
C146 C145 1.378 . S
C146 C147 1.378 . S
C146 H158 0.952 . S
C147 C146 1.378 . S
C147 H159 0.950 . S
C147 C178 1.383 . S
H148 C167 0.947 . S
H149 C168 0.946 . S
H150 C170 0.953 . S
H151 C171 0.945 . S
H152 C173 0.952 . S
H153 C174 0.949 . S
H154 C176 0.950 . S
H155 C177 0.948 . S
H156 C179 0.951 . S
H157 C144 0.947 . S
H158 C146 0.952 . S
H159 C147 0.950 . S
N160 C163 1.382 . S
N160 C165 1.363 . S
N161 C163 1.371 . S
N161 C164 1.372 . S
N162 C164 1.361 . S
N162 C165 1.377 . S
C163 N160 1.382 . S
C163 N161 1.371 . S
C163 C166 1.480 . S
C164 N161 1.372 . S
C164 N162 1.361 . S
C164 C172 1.457 . S
C165 N160 1.363 . S
C165 N162 1.377 . S
C165 C178 1.479 . S
C166 C163 1.480 . S
C166 C167 1.383 . S
C166 C171 1.385 . S
C167 H148 0.947 . S
C167 C166 1.383 . S
C167 C168 1.388 . S
C168 H149 0.946 . S
C168 C167 1.388 . S
C168 C169 1.384 . S
C169 C168 1.384 . S
C169 C170 1.377 . S
C170 H150 0.953 . S
C170 C169 1.377 . S
C170 C171 1.369 . S
C171 H151 0.945 . S
C171 C166 1.385 . S
C171 C170 1.369 . S
C172 C164 1.457 . S
C172 C173 1.372 . S
C172 C177 1.364 . S
C173 H152 0.952 . S
C173 C172 1.372 . S
C173 C174 1.389 . S
C174 H153 0.949 . S
C174 C173 1.389 . S
C174 C175 1.387 . S
C175 C174 1.387 . S
C175 C176 1.372 . S
C176 H154 0.950 . S
C176 C175 1.372 . S
C176 C177 1.379 . S
C177 H155 0.948 . S
C177 C172 1.364 . S
C177 C176 1.379 . S
C178 C147 1.383 . S
C178 C165 1.479 . S
C178 C179 1.398 . S
C179 C144 1.382 . S
C179 H156 0.951 . S
C179 C178 1.398 . S
C180 C181 1.384 . S
C180 H193 0.947 . S
C180 C215 1.382 . S
C181 C180 1.384 . S
C181 C182 1.378 . S
C182 C181 1.378 . S
C182 C183 1.378 . S
C182 H194 0.952 . S
C183 C182 1.378 . S
C183 H195 0.950 . S
C183 C214 1.383 . S
H184 C203 0.947 . S
H185 C204 0.946 . S
H186 C206 0.953 . S
H187 C207 0.945 . S
H188 C209 0.952 . S
H189 C210 0.949 . S
H190 C212 0.950 . S
H191 C213 0.948 . S
H192 C215 0.951 . S
H193 C180 0.947 . S
H194 C182 0.952 . S
H195 C183 0.950 . S
N196 C199 1.382 . S
N196 C201 1.363 . S
N197 C199 1.371 . S
N197 C200 1.372 . S
N198 C200 1.361 . S
N198 C201 1.377 . S
C199 N196 1.382 . S
C199 N197 1.371 . S
C199 C202 1.480 . S
C200 N197 1.372 . S
C200 N198 1.361 . S
C200 C208 1.457 . S
C201 N196 1.363 . S
C201 N198 1.377 . S
C201 C214 1.479 . S
C202 C199 1.480 . S
C202 C203 1.383 . S
C202 C207 1.385 . S
C203 H184 0.947 . S
C203 C202 1.383 . S
C203 C204 1.388 . S
C204 H185 0.946 . S
C204 C203 1.388 . S
C204 C205 1.384 . S
C205 C204 1.384 . S
C205 C206 1.377 . S
C206 H186 0.953 . S
C206 C205 1.377 . S
C206 C207 1.369 . S
C207 H187 0.945 . S
C207 C202 1.385 . S
C207 C206 1.369 . S
C208 C200 1.457 . S
C208 C209 1.372 . S
C208 C213 1.364 . S
C209 H188 0.952 . S
C209 C208 1.372 . S
C209 C210 1.389 . S
C210 H189 0.949 . S
C210 C209 1.389 . S
C210 C211 1.387 . S
C211 C210 1.387 . S
C211 C212 1.372 . S
C212 H190 0.950 . S
C212 C211 1.372 . S
C212 C213 1.379 . S
C213 H191 0.948 . S
C213 C208 1.364 . S
C213 C212 1.379 . S
C214 C183 1.383 . S
C214 C201 1.479 . S
C214 C215 1.398 . S
C215 C180 1.382 . S
C215 H192 0.951 . S
C215 C214 1.398 . S
C216 C217 1.384 . S
C216 H229 0.947 . S
C216 C251 1.382 . S
C217 C216 1.384 . S
C217 C218 1.378 . S
C218 C217 1.378 . S
C218 C219 1.378 . S
C218 H230 0.952 . S
C219 C218 1.378 . S
C219 H231 0.950 . S
C219 C250 1.383 . S
H220 C239 0.947 . S
H221 C240 0.946 . S
H222 C242 0.953 . S
H223 C243 0.945 . S
H224 C245 0.952 . S
H225 C246 0.949 . S
H226 C248 0.950 . S
H227 C249 0.948 . S
H228 C251 0.951 . S
H229 C216 0.947 . S
H230 C218 0.952 . S
H231 C219 0.950 . S
N232 C235 1.382 . S
N232 C237 1.363 . S
N233 C235 1.371 . S
N233 C236 1.372 . S
N234 C236 1.361 . S
N234 C237 1.377 . S
C235 N232 1.382 . S
C235 N233 1.371 . S
C235 C238 1.480 . S
C236 N233 1.372 . S
C236 N234 1.361 . S
C236 C244 1.457 . S
C237 N232 1.363 . S
C237 N234 1.377 . S
C237 C250 1.479 . S
C238 C235 1.480 . S
C238 C239 1.383 . S
C238 C243 1.385 . S
C239 H220 0.947 . S
C239 C238 1.383 . S
C239 C240 1.388 . S
C240 H221 0.946 . S
C240 C239 1.388 . S
C240 C241 1.384 . S
C241 C240 1.384 . S
C241 C242 1.377 . S
C242 H222 0.953 . S
C242 C241 1.377 . S
C242 C243 1.369 . S
C243 H223 0.945 . S
C243 C238 1.385 . S
C243 C242 1.369 . S
C244 C236 1.457 . S
C244 C245 1.372 . S
C244 C249 1.364 . S
C245 H224 0.952 . S
C245 C244 1.372 . S
C245 C246 1.389 . S
C246 H225 0.949 . S
C246 C245 1.389 . S
C246 C247 1.387 . S
C247 C246 1.387 . S
C247 C248 1.372 . S
C248 H226 0.950 . S
C248 C247 1.372 . S
C248 C249 1.379 . S
C249 H227 0.948 . S
C249 C244 1.364 . S
C249 C248 1.379 . S
C250 C219 1.383 . S
C250 C237 1.479 . S
C250 C251 1.398 . S
C251 C216 1.382 . S
C251 H228 0.951 . S
C251 C250 1.398 . S
C252 C253 1.384 . S
C252 H265 0.947 . S
C252 C287 1.382 . S
C253 C252 1.384 . S
C253 C254 1.378 . S
C254 C253 1.378 . S
C254 C255 1.378 . S
C254 H266 0.952 . S
C255 C254 1.378 . S
C255 H267 0.950 . S
C255 C286 1.383 . S
H256 C275 0.947 . S
H257 C276 0.946 . S
H258 C278 0.953 . S
H259 C279 0.945 . S
H260 C281 0.952 . S
H261 C282 0.949 . S
H262 C284 0.950 . S
H263 C285 0.948 . S
H264 C287 0.951 . S
H265 C252 0.947 . S
H266 C254 0.952 . S
H267 C255 0.950 . S
N268 C271 1.382 . S
N268 C273 1.363 . S
N269 C271 1.371 . S
N269 C272 1.372 . S
N270 C272 1.361 . S
N270 C273 1.377 . S
C271 N268 1.382 . S
C271 N269 1.371 . S
C271 C274 1.480 . S
C272 N269 1.372 . S
C272 N270 1.361 . S
C272 C280 1.457 . S
C273 N268 1.363 . S
C273 N270 1.377 . S
C273 C286 1.479 . S
C274 C271 1.480 . S
C274 C275 1.383 . S
C274 C279 1.385 . S
C275 H256 0.947 . S
C275 C274 1.383 . S
C275 C276 1.388 . S
C276 H257 0.946 . S
C276 C275 1.388 . S
C276 C277 1.384 . S
C277 C276 1.384 . S
C277 C278 1.377 . S
C278 H258 0.953 . S
C278 C277 1.377 . S
C278 C279 1.369 . S
C279 H259 0.945 . S
C279 C274 1.385 . S
C279 C278 1.369 . S
C280 C272 1.457 . S
C280 C281 1.372 . S
C280 C285 1.364 . S
C281 H260 0.952 . S
C281 C280 1.372 . S
C281 C282 1.389 . S
C282 H261 0.949 . S
C282 C281 1.389 . S
C282 C283 1.387 . S
C283 C282 1.387 . S
C283 C284 1.372 . S
C284 H262 0.950 . S
C284 C283 1.372 . S
C284 C285 1.379 . S
C285 H263 0.948 . S
C285 C280 1.364 . S
C285 C284 1.379 . S
C286 C255 1.383 . S
C286 C273 1.479 . S
C286 C287 1.398 . S
C287 C252 1.382 . S
C287 H264 0.951 . S
C287 C286 1.398 . S
Co288 O291 2.042 . S
Co288 O298 2.264 . S
Co288 O317 2.286 . S
Co288 O318 2.069 . S
Co288 O320 2.015 . S
Co289 O291 2.122 . S
Co289 O297 2.073 . S
Co289 O298 2.327 . S
Co289 O299 1.976 . S
Co290 O291 2.087 . S
Co290 O293 2.087 1_455 S
Co290 O300 2.111 . S
Co290 O301 2.143 1_455 S
Co290 O305 2.111 1_455 S
Co290 O319 2.143 . S
O291 Co288 2.042 . S
O291 Co289 2.122 . S
O291 Co290 2.087 . S
O291 H292 0.980 . S
H292 O291 0.980 . S
O293 Co290 2.087 1_655 S
O293 Co294 2.042 . S
O293 Co295 2.122 . S
O293 H296 0.980 . S
Co294 O293 2.042 . S
Co294 O302 2.286 . S
Co294 O303 2.069 . S
Co294 O304 2.015 . S
Co294 O307 2.264 . S
Co295 O293 2.122 . S
Co295 O306 1.976 . S
Co295 O307 2.327 . S
Co295 O308 2.073 . S
H296 O293 0.980 . S
O297 Co289 2.073 . S
O297 C312 1.245 . S
O298 Co288 2.264 . S
O298 Co289 2.327 . S
O298 C312 1.257 . S
O299 Co289 1.976 . S
O299 C311 1.251 . S
O300 Co290 2.111 . S
O300 C311 1.274 . S
O301 Co290 2.143 1_655 S
O301 C314 1.246 . S
O302 Co294 2.286 . S
O302 C313 1.259 . S
O303 Co294 2.069 . S
O303 C313 1.289 . S
O304 Co294 2.015 . S
O304 C314 1.257 . S
O305 Co290 2.111 1_655 S
O305 C315 1.274 . S
O306 Co295 1.976 . S
O306 C315 1.251 . S
O307 Co294 2.264 . S
O307 Co295 2.327 . S
O307 C316 1.257 . S
O308 Co295 2.073 . S
O308 C316 1.245 . S
C309 O317 1.259 . S
C309 O318 1.289 . S
C310 O319 1.246 . S
C310 O320 1.257 . S
C311 O299 1.251 . S
C311 O300 1.274 . S
C312 O297 1.245 . S
C312 O298 1.257 . S
C313 O302 1.259 . S
C313 O303 1.289 . S
C314 O301 1.246 . S
C314 O304 1.257 . S
C315 O305 1.274 . S
C315 O306 1.251 . S
C316 O307 1.257 . S
C316 O308 1.245 . S
O317 Co288 2.286 . S
O317 C309 1.259 . S
O318 Co288 2.069 . S
O318 C309 1.289 . S
O319 Co290 2.143 . S
O319 C310 1.246 . S
O320 Co288 2.015 . S
O320 C310 1.257 . S
Co321 O324 2.042 . S
Co321 O331 2.264 . S
Co321 O350 2.286 . S
Co321 O351 2.069 . S
Co321 O353 2.015 . S
Co322 O324 2.122 . S
Co322 O330 2.073 . S
Co322 O331 2.327 . S
Co322 O332 1.976 . S
Co323 O324 2.087 1_545 S
Co323 O326 2.087 . S
Co323 O333 2.111 1_545 S
Co323 O334 2.143 . S
Co323 O338 2.111 . S
Co323 O352 2.143 1_545 S
O324 Co321 2.042 . S
O324 Co322 2.122 . S
O324 Co323 2.087 1_565 S
O324 H325 0.980 . S
H325 O324 0.980 . S
O326 Co323 2.087 . S
O326 Co327 2.042 . S
O326 Co328 2.122 . S
O326 H329 0.980 . S
Co327 O326 2.042 . S
Co327 O335 2.286 . S
Co327 O336 2.069 . S
Co327 O337 2.015 . S
Co327 O340 2.264 . S
Co328 O326 2.122 . S
Co328 O339 1.976 . S
Co328 O340 2.327 . S
Co328 O341 2.073 . S
H329 O326 0.980 . S
O330 Co322 2.073 . S
O330 C345 1.245 . S
O331 Co321 2.264 . S
O331 Co322 2.327 . S
O331 C345 1.257 . S
O332 Co322 1.976 . S
O332 C344 1.251 . S
O333 Co323 2.111 1_565 S
O333 C344 1.274 . S
O334 Co323 2.143 . S
O334 C347 1.246 . S
O335 Co327 2.286 . S
O335 C346 1.259 . S
O336 Co327 2.069 . S
O336 C346 1.289 . S
O337 Co327 2.015 . S
O337 C347 1.257 . S
O338 Co323 2.111 . S
O338 C348 1.274 . S
O339 Co328 1.976 . S
O339 C348 1.251 . S
O340 Co327 2.264 . S
O340 Co328 2.327 . S
O340 C349 1.257 . S
O341 Co328 2.073 . S
O341 C349 1.245 . S
C342 O350 1.259 . S
C342 O351 1.289 . S
C343 O352 1.246 . S
C343 O353 1.257 . S
C344 O332 1.251 . S
C344 O333 1.274 . S
C345 O330 1.245 . S
C345 O331 1.257 . S
C346 O335 1.259 . S
C346 O336 1.289 . S
C347 O334 1.246 . S
C347 O337 1.257 . S
C348 O338 1.274 . S
C348 O339 1.251 . S
C349 O340 1.257 . S
C349 O341 1.245 . S
O350 Co321 2.286 . S
O350 C342 1.259 . S
O351 Co321 2.069 . S
O351 C342 1.289 . S
O352 Co323 2.143 1_565 S
O352 C343 1.246 . S
O353 Co321 2.015 . S
O353 C343 1.257 . S
Co354 O357 2.042 . S
Co354 O364 2.264 . S
Co354 O383 2.286 . S
Co354 O384 2.069 . S
Co354 O386 2.015 . S
Co355 O357 2.122 . S
Co355 O363 2.073 . S
Co355 O364 2.327 . S
Co355 O365 1.976 . S
Co356 O357 2.087 . S
Co356 O359 2.087 1_554 S
Co356 O366 2.111 . S
Co356 O367 2.143 1_554 S
Co356 O371 2.111 1_554 S
Co356 O385 2.143 . S
O357 Co354 2.042 . S
O357 Co355 2.122 . S
O357 Co356 2.087 . S
O357 H358 0.980 . S
H358 O357 0.980 . S
O359 Co356 2.087 1_556 S
O359 Co360 2.042 . S
O359 Co361 2.122 . S
O359 H362 0.980 . S
Co360 O359 2.042 . S
Co360 O368 2.286 . S
Co360 O369 2.069 . S
Co360 O370 2.015 . S
Co360 O373 2.264 . S
Co361 O359 2.122 . S
Co361 O372 1.976 . S
Co361 O373 2.327 . S
Co361 O374 2.073 . S
H362 O359 0.980 . S
O363 Co355 2.073 . S
O363 C378 1.245 . S
O364 Co354 2.264 . S
O364 Co355 2.327 . S
O364 C378 1.257 . S
O365 Co355 1.976 . S
O365 C377 1.251 . S
O366 Co356 2.111 . S
O366 C377 1.274 . S
O367 Co356 2.143 1_556 S
O367 C380 1.246 . S
O368 Co360 2.286 . S
O368 C379 1.259 . S
O369 Co360 2.069 . S
O369 C379 1.289 . S
O370 Co360 2.015 . S
O370 C380 1.257 . S
O371 Co356 2.111 1_556 S
O371 C381 1.274 . S
O372 Co361 1.976 . S
O372 C381 1.251 . S
O373 Co360 2.264 . S
O373 Co361 2.327 . S
O373 C382 1.257 . S
O374 Co361 2.073 . S
O374 C382 1.245 . S
C375 O383 1.259 . S
C375 O384 1.289 . S
C376 O385 1.246 . S
C376 O386 1.257 . S
C377 O365 1.251 . S
C377 O366 1.274 . S
C378 O363 1.245 . S
C378 O364 1.257 . S
C379 O368 1.259 . S
C379 O369 1.289 . S
C380 O367 1.246 . S
C380 O370 1.257 . S
C381 O371 1.274 . S
C381 O372 1.251 . S
C382 O373 1.257 . S
C382 O374 1.245 . S
O383 Co354 2.286 . S
O383 C375 1.259 . S
O384 Co354 2.069 . S
O384 C375 1.289 . S
O385 Co356 2.143 . S
O385 C376 1.246 . S
O386 Co354 2.015 . S
O386 C376 1.257 . S
C387 C388 1.387 . S
C387 H391 0.950 . S
C387 C396 1.390 . S
C388 C387 1.387 . S
C388 C390 1.387 . S
H389 C396 0.950 . S
C390 C388 1.387 . S
C390 C392 1.390 . S
C390 H394 0.950 . S
H391 C387 0.950 . S
C392 C390 1.390 . S
C392 C393 1.387 . S
C392 H395 0.950 . S
C393 C392 1.387 . S
C393 C396 1.387 . S
H394 C390 0.950 . S
H395 C392 0.950 . S
C396 C387 1.390 . S
C396 H389 0.950 . S
C396 C393 1.387 . S
C397 C398 1.387 . S
C397 H401 0.950 . S
C397 C406 1.390 . S
C398 C397 1.387 . S
C398 C400 1.387 . S
H399 C406 0.950 . S
C400 C398 1.387 . S
C400 C402 1.390 . S
C400 H404 0.950 . S
H401 C397 0.950 . S
C402 C400 1.390 . S
C402 C403 1.387 . S
C402 H405 0.950 . S
C403 C402 1.387 . S
C403 C406 1.387 . S
H404 C400 0.950 . S
H405 C402 0.950 . S
C406 C397 1.390 . S
C406 H399 0.950 . S
C406 C403 1.387 . S
C407 C408 1.387 . S
C407 H411 0.950 . S
C407 C416 1.390 . S
C408 C407 1.387 . S
C408 C410 1.387 . S
H409 C416 0.950 . S
C410 C408 1.387 . S
C410 C412 1.390 . S
C410 H414 0.950 . S
H411 C407 0.950 . S
C412 C410 1.390 . S
C412 C413 1.387 . S
C412 H415 0.950 . S
C413 C412 1.387 . S
C413 C416 1.387 . S
H414 C410 0.950 . S
H415 C412 0.950 . S
C416 C407 1.390 . S
C416 H409 0.950 . S
C416 C413 1.387 . S
C417 C418 1.387 . S
C417 H421 0.950 . S
C417 C426 1.390 . S
C418 C417 1.387 . S
C418 C420 1.387 . S
H419 C426 0.950 . S
C420 C418 1.387 . S
C420 C422 1.390 . S
C420 H424 0.950 . S
H421 C417 0.950 . S
C422 C420 1.390 . S
C422 C423 1.387 . S
C422 H425 0.950 . S
C423 C422 1.387 . S
C423 C426 1.387 . S
H424 C420 0.950 . S
H425 C422 0.950 . S
C426 C417 1.390 . S
C426 H419 0.950 . S
C426 C423 1.387 . S
C427 C428 1.387 . S
C427 H431 0.950 . S
C427 C436 1.390 . S
C428 C427 1.387 . S
C428 C430 1.387 . S
H429 C436 0.950 . S
C430 C428 1.387 . S
C430 C432 1.390 . S
C430 H434 0.950 . S
H431 C427 0.950 . S
C432 C430 1.390 . S
C432 C433 1.387 . S
C432 H435 0.950 . S
C433 C432 1.387 . S
C433 C436 1.387 . S
H434 C430 0.950 . S
H435 C432 0.950 . S
C436 C427 1.390 . S
C436 H429 0.950 . S
C436 C433 1.387 . S
C437 C438 1.387 . S
C437 H441 0.950 . S
C437 C446 1.390 . S
C438 C437 1.387 . S
C438 C440 1.387 . S
H439 C446 0.950 . S
C440 C438 1.387 . S
C440 C442 1.390 . S
C440 H444 0.950 . S
H441 C437 0.950 . S
C442 C440 1.390 . S
C442 C443 1.387 . S
C442 H445 0.950 . S
C443 C442 1.387 . S
C443 C446 1.387 . S
H444 C440 0.950 . S
H445 C442 0.950 . S
C446 C437 1.390 . S
C446 H439 0.950 . S
C446 C443 1.387 . S
C447 C448 1.387 . S
C447 H451 0.950 . S
C447 C456 1.390 . S
C448 C447 1.387 . S
C448 C450 1.387 . S
H449 C456 0.950 . S
C450 C448 1.387 . S
C450 C452 1.390 . S
C450 H454 0.950 . S
H451 C447 0.950 . S
C452 C450 1.390 . S
C452 C453 1.387 . S
C452 H455 0.950 . S
C453 C452 1.387 . S
C453 C456 1.387 . S
H454 C450 0.950 . S
H455 C452 0.950 . S
C456 C447 1.390 . S
C456 H449 0.950 . S
C456 C453 1.387 . S
C457 C458 1.387 . S
C457 H461 0.950 . S
C457 C466 1.390 . S
C458 C457 1.387 . S
C458 C460 1.387 . S
H459 C466 0.950 . S
C460 C458 1.387 . S
C460 C462 1.390 . S
C460 H464 0.950 . S
H461 C457 0.950 . S
C462 C460 1.390 . S
C462 C463 1.387 . S
C462 H465 0.950 . S
C463 C462 1.387 . S
C463 C466 1.387 . S
H464 C460 0.950 . S
H465 C462 0.950 . S
C466 C457 1.390 . S
C466 H459 0.950 . S
C466 C463 1.387 . S
C467 C468 1.387 . S
C467 H471 0.950 . S
C467 C476 1.390 . S
C468 C467 1.387 . S
C468 C470 1.387 . S
H469 C476 0.950 . S
C470 C468 1.387 . S
C470 C472 1.390 . S
C470 H474 0.950 . S
H471 C467 0.950 . S
C472 C470 1.390 . S
C472 C473 1.387 . S
C472 H475 0.950 . S
C473 C472 1.387 . S
C473 C476 1.387 . S
H474 C470 0.950 . S
H475 C472 0.950 . S
C476 C467 1.390 . S
C476 H469 0.950 . S
C476 C473 1.387 . S
C477 C478 1.387 . S
C477 H481 0.950 . S
C477 C486 1.390 . S
C478 C477 1.387 . S
C478 C480 1.387 . S
H479 C486 0.950 . S
C480 C478 1.387 . S
C480 C482 1.390 . S
C480 H484 0.950 . S
H481 C477 0.950 . S
C482 C480 1.390 . S
C482 C483 1.387 . S
C482 H485 0.950 . S
C483 C482 1.387 . S
C483 C486 1.387 . S
H484 C480 0.950 . S
H485 C482 0.950 . S
C486 C477 1.390 . S
C486 H479 0.950 . S
C486 C483 1.387 . S
C487 C488 1.387 . S
C487 H491 0.950 . S
C487 C496 1.390 . S
C488 C487 1.387 . S
C488 C490 1.387 . S
H489 C496 0.950 . S
C490 C488 1.387 . S
C490 C492 1.390 . S
C490 H494 0.950 . S
H491 C487 0.950 . S
C492 C490 1.390 . S
C492 C493 1.387 . S
C492 H495 0.950 . S
C493 C492 1.387 . S
C493 C496 1.387 . S
H494 C490 0.950 . S
H495 C492 0.950 . S
C496 C487 1.390 . S
C496 H489 0.950 . S
C496 C493 1.387 . S
C497 C498 1.387 . S
C497 H501 0.950 . S
C497 C506 1.390 . S
C498 C497 1.387 . S
C498 C500 1.387 . S
H499 C506 0.950 . S
C500 C498 1.387 . S
C500 C502 1.390 . S
C500 H504 0.950 . S
H501 C497 0.950 . S
C502 C500 1.390 . S
C502 C503 1.387 . S
C502 H505 0.950 . S
C503 C502 1.387 . S
C503 C506 1.387 . S
H504 C500 0.950 . S
H505 C502 0.950 . S
C506 C497 1.390 . S
C506 H499 0.950 . S
C506 C503 1.387 . S
C507 C508 1.387 . S
C507 H511 0.950 . S
C507 C516 1.390 . S
C508 C507 1.387 . S
C508 C510 1.387 . S
H509 C516 0.950 . S
C510 C508 1.387 . S
C510 C512 1.390 . S
C510 H514 0.950 . S
H511 C507 0.950 . S
C512 C510 1.390 . S
C512 C513 1.387 . S
C512 H515 0.950 . S
C513 C512 1.387 . S
C513 C516 1.387 . S
H514 C510 0.950 . S
H515 C512 0.950 . S
C516 C507 1.390 . S
C516 H509 0.950 . S
C516 C513 1.387 . S
C517 C518 1.387 . S
C517 H521 0.950 . S
C517 C526 1.390 . S
C518 C517 1.387 . S
C518 C520 1.387 . S
H519 C526 0.950 . S
C520 C518 1.387 . S
C520 C522 1.390 . S
C520 H524 0.950 . S
H521 C517 0.950 . S
C522 C520 1.390 . S
C522 C523 1.387 . S
C522 H525 0.950 . S
C523 C522 1.387 . S
C523 C526 1.387 . S
H524 C520 0.950 . S
H525 C522 0.950 . S
C526 C517 1.390 . S
C526 H519 0.950 . S
C526 C523 1.387 . S
C527 C528 1.387 . S
C527 H531 0.950 . S
C527 C536 1.390 . S
C528 C527 1.387 . S
C528 C530 1.387 . S
H529 C536 0.950 . S
C530 C528 1.387 . S
C530 C532 1.390 . S
C530 H534 0.950 . S
H531 C527 0.950 . S
C532 C530 1.390 . S
C532 C533 1.387 . S
C532 H535 0.950 . S
C533 C532 1.387 . S
C533 C536 1.387 . S
H534 C530 0.950 . S
H535 C532 0.950 . S
C536 C527 1.390 . S
C536 H529 0.950 . S
C536 C533 1.387 . S
C537 C538 1.387 . S
C537 H541 0.950 . S
C537 C546 1.390 . S
C538 C537 1.387 . S
C538 C540 1.387 . S
H539 C546 0.950 . S
C540 C538 1.387 . S
C540 C542 1.390 . S
C540 H544 0.950 . S
H541 C537 0.950 . S
C542 C540 1.390 . S
C542 C543 1.387 . S
C542 H545 0.950 . S
C543 C542 1.387 . S
C543 C546 1.387 . S
H544 C540 0.950 . S
H545 C542 0.950 . S
C546 C537 1.390 . S
C546 H539 0.950 . S
C546 C543 1.387 . S
C547 C548 1.387 . S
C547 H551 0.950 . S
C547 C556 1.390 . S
C548 C547 1.387 . S
C548 C550 1.387 . S
H549 C556 0.950 . S
C550 C548 1.387 . S
C550 C552 1.390 . S
C550 H554 0.950 . S
H551 C547 0.950 . S
C552 C550 1.390 . S
C552 C553 1.387 . S
C552 H555 0.950 . S
C553 C552 1.387 . S
C553 C556 1.387 . S
H554 C550 0.950 . S
H555 C552 0.950 . S
C556 C547 1.390 . S
C556 H549 0.950 . S
C556 C553 1.387 . S
C557 C558 1.387 . S
C557 H561 0.950 . S
C557 C566 1.390 . S
C558 C557 1.387 . S
C558 C560 1.387 . S
H559 C566 0.950 . S
C560 C558 1.387 . S
C560 C562 1.390 . S
C560 H564 0.950 . S
H561 C557 0.950 . S
C562 C560 1.390 . S
C562 C563 1.387 . S
C562 H565 0.950 . S
C563 C562 1.387 . S
C563 C566 1.387 . S
H564 C560 0.950 . S
H565 C562 0.950 . S
C566 C557 1.390 . S
C566 H559 0.950 . S
C566 C563 1.387 . S
C567 C568 1.387 . S
C567 H571 0.950 . S
C567 C576 1.390 . S
C568 C567 1.387 . S
C568 C570 1.387 . S
H569 C576 0.950 . S
C570 C568 1.387 . S
C570 C572 1.390 . S
C570 H574 0.950 . S
H571 C567 0.950 . S
C572 C570 1.390 . S
C572 C573 1.387 . S
C572 H575 0.950 . S
C573 C572 1.387 . S
C573 C576 1.387 . S
H574 C570 0.950 . S
H575 C572 0.950 . S
C576 C567 1.390 . S
C576 H569 0.950 . S
C576 C573 1.387 . S
C577 C578 1.387 . S
C577 H581 0.950 . S
C577 C586 1.390 . S
C578 C577 1.387 . S
C578 C580 1.387 . S
H579 C586 0.950 . S
C580 C578 1.387 . S
C580 C582 1.390 . S
C580 H584 0.950 . S
H581 C577 0.950 . S
C582 C580 1.390 . S
C582 C583 1.387 . S
C582 H585 0.950 . S
C583 C582 1.387 . S
C583 C586 1.387 . S
H584 C580 0.950 . S
H585 C582 0.950 . S
C586 C577 1.390 . S
C586 H579 0.950 . S
C586 C583 1.387 . S
C587 C588 1.387 . S
C587 H591 0.950 . S
C587 C596 1.390 . S
C588 C587 1.387 . S
C588 C590 1.387 . S
H589 C596 0.950 . S
C590 C588 1.387 . S
C590 C592 1.390 . S
C590 H594 0.950 . S
H591 C587 0.950 . S
C592 C590 1.390 . S
C592 C593 1.387 . S
C592 H595 0.950 . S
C593 C592 1.387 . S
C593 C596 1.387 . S
H594 C590 0.950 . S
H595 C592 0.950 . S
C596 C587 1.390 . S
C596 H589 0.950 . S
C596 C593 1.387 . S
C597 C598 1.387 . S
C597 H601 0.950 . S
C597 C606 1.390 . S
C598 C597 1.387 . S
C598 C600 1.387 . S
H599 C606 0.950 . S
C600 C598 1.387 . S
C600 C602 1.390 . S
C600 H604 0.950 . S
H601 C597 0.950 . S
C602 C600 1.390 . S
C602 C603 1.387 . S
C602 H605 0.950 . S
C603 C602 1.387 . S
C603 C606 1.387 . S
H604 C600 0.950 . S
H605 C602 0.950 . S
C606 C597 1.390 . S
C606 H599 0.950 . S
C606 C603 1.387 . S
C607 C608 1.387 . S
C607 H611 0.950 . S
C607 C616 1.390 . S
C608 C607 1.387 . S
C608 C610 1.387 . S
H609 C616 0.950 . S
C610 C608 1.387 . S
C610 C612 1.390 . S
C610 H614 0.950 . S
H611 C607 0.950 . S
C612 C610 1.390 . S
C612 C613 1.387 . S
C612 H615 0.950 . S
C613 C612 1.387 . S
C613 C616 1.387 . S
H614 C610 0.950 . S
H615 C612 0.950 . S
C616 C607 1.390 . S
C616 H609 0.950 . S
C616 C613 1.387 . S
C617 C618 1.387 . S
C617 H621 0.950 . S
C617 C626 1.390 . S
C618 C617 1.387 . S
C618 C620 1.387 . S
H619 C626 0.950 . S
C620 C618 1.387 . S
C620 C622 1.390 . S
C620 H624 0.950 . S
H621 C617 0.950 . S
C622 C620 1.390 . S
C622 C623 1.387 . S
C622 H625 0.950 . S
C623 C622 1.387 . S
C623 C626 1.387 . S
H624 C620 0.950 . S
H625 C622 0.950 . S
C626 C617 1.390 . S
C626 H619 0.950 . S
C626 C623 1.387 . S
C393 C312 1.191 . S
C388 C1 1.234 . S
C403 C348 1.676 . S
C398 C37 1.782 . S
C413 C313 1.456 . S
C408 C103 1.451 . S
C423 C343 1.593 . S
C418 C139 1.580 . S
C433 C310 1.536 . S
C428 C145 1.553 . S
C438 C205 1.717 . S
C443 C346 1.736 . S
C448 C247 1.298 . S
C453 C315 1.199 . S
C463 C345 1.535 . S
C458 C283 1.504 . S
C473 C349 1.536 . S
C468 C25 1.478 . S
C483 C314 1.544 . S
C478 C67 1.599 . S
C493 C342 1.728 . S
C488 C97 1.715 . S
C503 C311 1.194 . S
C498 C109 1.294 . S
C513 C344 1.665 . S
C508 C169 1.732 . S
C518 C181 1.444 . S
C523 C309 1.452 . S
C528 C217 1.553 . S
C533 C347 1.573 . S
C543 C316 1.184 . S
C538 C277 1.234 . S
C553 C378 1.601 . S
C548 C31 1.696 . S
C558 C175 1.987 . S
C563 C381 1.910 . S
C573 C380 1.737 . S
C568 C211 1.774 . S
C578 C241 1.978 . S
C583 C379 2.016 . S
C593 C382 1.580 . S
C588 C253 1.697 . S
C598 C73 1.760 . S
C603 C376 1.729 . S
C613 C375 2.011 . S
C608 C133 1.974 . S
C618 C61 2.032 . S
C623 C377 1.902 . S
