# Generated by pormake.
# Topology ctn, (3,4)-cn, num edge types: 1
# Building blocks:
#     Node 0, Type 0, BuildingBlock: CUQRIR_clean_linker_1, # of connection points: 3
#     Node 1, Type 0, BuildingBlock: CUQRIR_clean_linker_1, # of connection points: 3
#     Node 2, Type 0, BuildingBlock: CUQRIR_clean_linker_1, # of connection points: 3
#     Node 3, Type 0, BuildingBlock: CUQRIR_clean_linker_1, # of connection points: 3
#     Node 4, Type 0, BuildingBlock: CUQRIR_clean_linker_1, # of connection points: 3
#     Node 5, Type 0, BuildingBlock: CUQRIR_clean_linker_1, # of connection points: 3
#     Node 6, Type 0, BuildingBlock: CUQRIR_clean_linker_1, # of connection points: 3
#     Node 7, Type 0, BuildingBlock: CUQRIR_clean_linker_1, # of connection points: 3
#     Node 8, Type 0, BuildingBlock: CUQRIR_clean_linker_1, # of connection points: 3
#     Node 9, Type 0, BuildingBlock: CUQRIR_clean_linker_1, # of connection points: 3
#     Node 10, Type 0, BuildingBlock: CUQRIR_clean_linker_1, # of connection points: 3
#     Node 11, Type 0, BuildingBlock: CUQRIR_clean_linker_1, # of connection points: 3
#     Node 12, Type 0, BuildingBlock: CUQRIR_clean_linker_1, # of connection points: 3
#     Node 13, Type 0, BuildingBlock: CUQRIR_clean_linker_1, # of connection points: 3
#     Node 14, Type 0, BuildingBlock: CUQRIR_clean_linker_1, # of connection points: 3
#     Node 15, Type 0, BuildingBlock: CUQRIR_clean_linker_1, # of connection points: 3
#     Node 16, Type 1, BuildingBlock: AZAVOO_clean_sbu_0, # of connection points: 4
#     Node 17, Type 1, BuildingBlock: AZAVOO_clean_sbu_0, # of connection points: 4
#     Node 18, Type 1, BuildingBlock: AZAVOO_clean_sbu_0, # of connection points: 4
#     Node 19, Type 1, BuildingBlock: AZAVOO_clean_sbu_0, # of connection points: 4
#     Node 20, Type 1, BuildingBlock: AZAVOO_clean_sbu_0, # of connection points: 4
#     Node 21, Type 1, BuildingBlock: AZAVOO_clean_sbu_0, # of connection points: 4
#     Node 22, Type 1, BuildingBlock: AZAVOO_clean_sbu_0, # of connection points: 4
#     Node 23, Type 1, BuildingBlock: AZAVOO_clean_sbu_0, # of connection points: 4
#     Node 24, Type 1, BuildingBlock: AZAVOO_clean_sbu_0, # of connection points: 4
#     Node 25, Type 1, BuildingBlock: AZAVOO_clean_sbu_0, # of connection points: 4
#     Node 26, Type 1, BuildingBlock: AZAVOO_clean_sbu_0, # of connection points: 4
#     Node 27, Type 1, BuildingBlock: AZAVOO_clean_sbu_0, # of connection points: 4
#     Edge 28, Type (0, 1), BuildingBlock: UVAHIK_clean_linker_0, # of connection points: 2
#     Edge 29, Type (0, 1), BuildingBlock: UVAHIK_clean_linker_0, # of connection points: 2
#     Edge 30, Type (0, 1), BuildingBlock: UVAHIK_clean_linker_0, # of connection points: 2
#     Edge 31, Type (0, 1), BuildingBlock: UVAHIK_clean_linker_0, # of connection points: 2
#     Edge 32, Type (0, 1), BuildingBlock: UVAHIK_clean_linker_0, # of connection points: 2
#     Edge 33, Type (0, 1), BuildingBlock: UVAHIK_clean_linker_0, # of connection points: 2
#     Edge 34, Type (0, 1), BuildingBlock: UVAHIK_clean_linker_0, # of connection points: 2
#     Edge 35, Type (0, 1), BuildingBlock: UVAHIK_clean_linker_0, # of connection points: 2
#     Edge 36, Type (0, 1), BuildingBlock: UVAHIK_clean_linker_0, # of connection points: 2
#     Edge 37, Type (0, 1), BuildingBlock: UVAHIK_clean_linker_0, # of connection points: 2
#     Edge 38, Type (0, 1), BuildingBlock: UVAHIK_clean_linker_0, # of connection points: 2
#     Edge 39, Type (0, 1), BuildingBlock: UVAHIK_clean_linker_0, # of connection points: 2
#     Edge 40, Type (0, 1), BuildingBlock: UVAHIK_clean_linker_0, # of connection points: 2
#     Edge 41, Type (0, 1), BuildingBlock: UVAHIK_clean_linker_0, # of connection points: 2
#     Edge 42, Type (0, 1), BuildingBlock: UVAHIK_clean_linker_0, # of connection points: 2
#     Edge 43, Type (0, 1), BuildingBlock: UVAHIK_clean_linker_0, # of connection points: 2
#     Edge 44, Type (0, 1), BuildingBlock: UVAHIK_clean_linker_0, # of connection points: 2
#     Edge 45, Type (0, 1), BuildingBlock: UVAHIK_clean_linker_0, # of connection points: 2
#     Edge 46, Type (0, 1), BuildingBlock: UVAHIK_clean_linker_0, # of connection points: 2
#     Edge 47, Type (0, 1), BuildingBlock: UVAHIK_clean_linker_0, # of connection points: 2
#     Edge 48, Type (0, 1), BuildingBlock: UVAHIK_clean_linker_0, # of connection points: 2
#     Edge 49, Type (0, 1), BuildingBlock: UVAHIK_clean_linker_0, # of connection points: 2
#     Edge 50, Type (0, 1), BuildingBlock: UVAHIK_clean_linker_0, # of connection points: 2
#     Edge 51, Type (0, 1), BuildingBlock: UVAHIK_clean_linker_0, # of connection points: 2
#     Edge 52, Type (0, 1), BuildingBlock: UVAHIK_clean_linker_0, # of connection points: 2
#     Edge 53, Type (0, 1), BuildingBlock: UVAHIK_clean_linker_0, # of connection points: 2
#     Edge 54, Type (0, 1), BuildingBlock: UVAHIK_clean_linker_0, # of connection points: 2
#     Edge 55, Type (0, 1), BuildingBlock: UVAHIK_clean_linker_0, # of connection points: 2
#     Edge 56, Type (0, 1), BuildingBlock: UVAHIK_clean_linker_0, # of connection points: 2
#     Edge 57, Type (0, 1), BuildingBlock: UVAHIK_clean_linker_0, # of connection points: 2
#     Edge 58, Type (0, 1), BuildingBlock: UVAHIK_clean_linker_0, # of connection points: 2
#     Edge 59, Type (0, 1), BuildingBlock: UVAHIK_clean_linker_0, # of connection points: 2
#     Edge 60, Type (0, 1), BuildingBlock: UVAHIK_clean_linker_0, # of connection points: 2
#     Edge 61, Type (0, 1), BuildingBlock: UVAHIK_clean_linker_0, # of connection points: 2
#     Edge 62, Type (0, 1), BuildingBlock: UVAHIK_clean_linker_0, # of connection points: 2
#     Edge 63, Type (0, 1), BuildingBlock: UVAHIK_clean_linker_0, # of connection points: 2
#     Edge 64, Type (0, 1), BuildingBlock: UVAHIK_clean_linker_0, # of connection points: 2
#     Edge 65, Type (0, 1), BuildingBlock: UVAHIK_clean_linker_0, # of connection points: 2
#     Edge 66, Type (0, 1), BuildingBlock: UVAHIK_clean_linker_0, # of connection points: 2
#     Edge 67, Type (0, 1), BuildingBlock: UVAHIK_clean_linker_0, # of connection points: 2
#     Edge 68, Type (0, 1), BuildingBlock: UVAHIK_clean_linker_0, # of connection points: 2
#     Edge 69, Type (0, 1), BuildingBlock: UVAHIK_clean_linker_0, # of connection points: 2
#     Edge 70, Type (0, 1), BuildingBlock: UVAHIK_clean_linker_0, # of connection points: 2
#     Edge 71, Type (0, 1), BuildingBlock: UVAHIK_clean_linker_0, # of connection points: 2
#     Edge 72, Type (0, 1), BuildingBlock: UVAHIK_clean_linker_0, # of connection points: 2
#     Edge 73, Type (0, 1), BuildingBlock: UVAHIK_clean_linker_0, # of connection points: 2
#     Edge 74, Type (0, 1), BuildingBlock: UVAHIK_clean_linker_0, # of connection points: 2
#     Edge 75, Type (0, 1), BuildingBlock: UVAHIK_clean_linker_0, # of connection points: 2
# Relax obj value: 0.078
# Max RMSD: 0.209
# Mean RMSD: 0.134
data_MOF--net-ctn--node1-AZAVOO_clean_sbu_0--node2-CUQRIR_clean_linker_1--edge1-UVAHIK_clean_linker_0
_symmetry_space_group_name_H-M    P1
_symmetry_Int_Tables_number       1
_symmetry_cell_setting            triclinic
loop_
_symmetry_equiv_pos_as_xyz
'x, y, z'
_cell_length_a     67.873697
_cell_length_b     64.294101
_cell_length_c     65.858684
_cell_angle_alpha  96.69913
_cell_angle_beta   91.405634
_cell_angle_gamma 95.509627
loop_
_atom_site_label
_atom_site_type_symbol
_atom_site_fract_x
_atom_site_fract_y
_atom_site_fract_z
_atom_type_partial_charge
C0 C 0.02812 0.9841 0.04885 0.0
N1 N 0.03632 0.98949 0.03138 0.0
N2 N 0.01001 0.99114 0.05089 0.0
C3 C 0.03813 0.97274 0.06432 0.0
C4 C 0.00739 1.00073 0.03393 0.0
N5 N 0.02327 0.99954 0.02193 0.0
C6 C 0.98989 0.01256 0.02972 0.0
H7 H 0.0273 0.96468 0.07382 0.0
H8 H 0.04799 0.98434 0.07465 0.0
H9 H 0.04725 0.96095 0.05662 0.0
H10 H 0.99492 0.02955 0.03014 0.0
H11 H 0.97811 0.01045 0.04086 0.0
H12 H 0.98341 0.00695 0.01421 0.0
C13 C 0.29377 0.74133 0.2453 0.0
N14 N 0.30151 0.72982 0.2589 0.0
N15 N 0.30709 0.75723 0.24133 0.0
C16 C 0.27406 0.73561 0.23408 0.0
C17 C 0.32334 0.75487 0.25282 0.0
N18 N 0.31998 0.73819 0.26355 0.0
C19 C 0.34243 0.7689 0.25342 0.0
H20 H 0.27647 0.72721 0.21878 0.0
H21 H 0.26686 0.74996 0.23179 0.0
H22 H 0.26402 0.72526 0.24249 0.0
H23 H 0.34981 0.77059 0.26883 0.0
H24 H 0.33974 0.78467 0.2493 0.0
H25 H 0.35248 0.76179 0.24216 0.0
C26 C 0.9704 0.48849 0.08042 0.0
N27 N 0.98262 0.47296 0.08009 0.0
N28 N 0.95892 0.48621 0.06302 0.0
C29 C 0.97057 0.5067 0.097 0.0
C30 C 0.96464 0.46881 0.05205 0.0
N31 N 0.9792 0.46089 0.0623 0.0
C32 C 0.95485 0.45857 0.03214 0.0
H33 H 0.96071 0.50204 0.10924 0.0
H34 H 0.9651 0.52059 0.09099 0.0
H35 H 0.98572 0.5111 0.10382 0.0
H36 H 0.96351 0.46397 0.01933 0.0
H37 H 0.9395 0.46286 0.03045 0.0
H38 H 0.95449 0.44119 0.03104 0.0
C39 C 0.69209 0.78577 0.23587 0.0
N40 N 0.70794 0.79594 0.22793 0.0
N41 N 0.68503 0.79821 0.25147 0.0
C42 C 0.68285 0.76408 0.22777 0.0
C43 C 0.69712 0.81638 0.25271 0.0
N44 N 0.71095 0.8151 0.23822 0.0
C45 C 0.69669 0.83441 0.26942 0.0
H46 H 0.6846 0.76094 0.21102 0.0
H47 H 0.66687 0.76221 0.23109 0.0
H48 H 0.69035 0.75227 0.23529 0.0
H49 H 0.68992 0.82907 0.28332 0.0
H50 H 0.6877 0.8463 0.2639 0.0
H51 H 0.71184 0.84204 0.27356 0.0
C52 C 0.03616 0.99757 0.49784 0.0
N53 N 0.05406 0.99909 0.50776 0.0
N54 N 0.03697 0.00904 0.48188 0.0
C55 C 0.01815 0.98399 0.50318 0.0
C56 C 0.05607 0.01736 0.48219 0.0
N57 N 0.06659 0.01107 0.49777 0.0
C58 C 0.06438 0.03151 0.46718 0.0
H59 H 0.00585 0.98317 0.49163 0.0
H60 H 0.01292 0.99057 0.51819 0.0
H61 H 0.0221 0.96787 0.50468 0.0
H62 H 0.07583 0.04359 0.47478 0.0
H63 H 0.05261 0.03944 0.46014 0.0
H64 H 0.0714 0.0219 0.4548 0.0
C65 C 0.17718 0.70602 0.78151 0.0
N66 N 0.19234 0.69894 0.79161 0.0
N67 N 0.17518 0.69651 0.762 0.0
C68 C 0.16583 0.72396 0.78987 0.0
C69 C 0.1899 0.68364 0.76049 0.0
N70 N 0.20039 0.68519 0.77846 0.0
C71 C 0.19339 0.66882 0.74182 0.0
H72 H 0.15266 0.71758 0.79766 0.0
H73 H 0.1607 0.73263 0.77745 0.0
H74 H 0.17507 0.7352 0.80113 0.0
H75 H 0.20441 0.67677 0.73238 0.0
H76 H 0.17949 0.6643 0.73247 0.0
H77 H 0.19937 0.65444 0.7462 0.0
C78 C 0.9503 0.50683 0.45274 0.0
N79 N 0.96403 0.5237 0.45339 0.0
N80 N 0.93768 0.50949 0.46827 0.0
C81 C 0.95024 0.48703 0.4381 0.0
C82 C 0.94427 0.52852 0.47841 0.0
N83 N 0.96034 0.53704 0.46949 0.0
C84 C 0.93468 0.53912 0.49665 0.0
H85 H 0.94127 0.48864 0.42416 0.0
H86 H 0.94364 0.47316 0.44501 0.0
H87 H 0.96549 0.48431 0.43351 0.0
H88 H 0.94196 0.53523 0.5108 0.0
H89 H 0.91867 0.53366 0.49667 0.0
H90 H 0.93649 0.55648 0.49687 0.0
C91 C 0.79668 0.78996 0.80402 0.0
N92 N 0.81391 0.78092 0.80242 0.0
N93 N 0.79701 0.8065 0.79301 0.0
C94 C 0.77972 0.78275 0.81666 0.0
C95 C 0.81514 0.80735 0.78482 0.0
N96 N 0.82552 0.792 0.79078 0.0
C97 C 0.82291 0.82318 0.7711 0.0
H98 H 0.77355 0.76667 0.81026 0.0
H99 H 0.76763 0.79317 0.81692 0.0
H100 H 0.78519 0.78197 0.83255 0.0
H101 H 0.83636 0.83247 0.77843 0.0
H102 H 0.81193 0.83418 0.76793 0.0
H103 H 0.8273 0.81479 0.75647 0.0
C104 C 0.30128 0.29649 0.31058 0.0
N105 N 0.31755 0.28602 0.30744 0.0
N106 N 0.2985 0.30851 0.29536 0.0
C107 C 0.28729 0.29369 0.32766 0.0
C108 C 0.31362 0.30481 0.28278 0.0
N109 N 0.32506 0.29096 0.29 0.0
C110 C 0.31798 0.31572 0.26415 0.0
H111 H 0.27206 0.29671 0.32316 0.0
H112 H 0.29251 0.305 0.34118 0.0
H113 H 0.28691 0.27756 0.33216 0.0
H114 H 0.33416 0.31783 0.26184 0.0
H115 H 0.31211 0.33132 0.26548 0.0
H116 H 0.31085 0.30588 0.25049 0.0
C117 C 0.47291 0.98758 0.582 0.0
N118 N 0.48434 0.9714 0.58213 0.0
N119 N 0.46183 0.98568 0.56434 0.0
C120 C 0.47387 0.00622 0.59823 0.0
C121 C 0.46704 0.96786 0.55368 0.0
N122 N 0.48085 0.95933 0.56436 0.0
C123 C 0.45772 0.95804 0.53341 0.0
H124 H 0.4634 0.00259 0.61031 0.0
H125 H 0.46967 0.02042 0.59178 0.0
H126 H 0.48898 0.00966 0.60539 0.0
H127 H 0.46695 0.96336 0.52096 0.0
H128 H 0.44257 0.96275 0.53129 0.0
H129 H 0.45697 0.94062 0.53216 0.0
C130 C 0.18591 0.28786 0.73028 0.0
N131 N 0.20143 0.29789 0.72168 0.0
N132 N 0.17898 0.30069 0.74565 0.0
C133 C 0.17699 0.26579 0.72319 0.0
C134 C 0.19082 0.31895 0.74609 0.0
N135 N 0.20437 0.31733 0.73133 0.0
C136 C 0.19053 0.33744 0.76234 0.0
H137 H 0.16114 0.2637 0.72698 0.0
H138 H 0.18503 0.25457 0.73101 0.0
H139 H 0.17838 0.262 0.70644 0.0
H140 H 0.18383 0.33262 0.77646 0.0
H141 H 0.18159 0.34917 0.75647 0.0
H142 H 0.20573 0.34509 0.7662 0.0
C143 C 0.79448 0.24254 0.74379 0.0
N144 N 0.80246 0.23116 0.75737 0.0
N145 N 0.80816 0.25744 0.73845 0.0
C146 C 0.77387 0.2379 0.73433 0.0
C147 C 0.82484 0.25459 0.74901 0.0
N148 N 0.82143 0.23847 0.76049 0.0
C149 C 0.84403 0.26834 0.74886 0.0
H150 H 0.76933 0.22072 0.73225 0.0
H151 H 0.77277 0.24398 0.71929 0.0
H152 H 0.76339 0.24562 0.7447 0.0
H153 H 0.84147 0.28398 0.74434 0.0
H154 H 0.85378 0.26074 0.73757 0.0
H155 H 0.85171 0.27044 0.76413 0.0
C156 C 0.5341 0.48467 0.55275 0.0
N157 N 0.54119 0.49078 0.53514 0.0
N158 N 0.51546 0.48998 0.55539 0.0
C159 C 0.54544 0.4737 0.56749 0.0
C160 C 0.51147 0.49963 0.53877 0.0
N161 N 0.52706 0.4999 0.52626 0.0
C162 C 0.49341 0.51112 0.53609 0.0
H163 H 0.53525 0.46487 0.57711 0.0
H164 H 0.55516 0.48564 0.57761 0.0
H165 H 0.55497 0.46274 0.55913 0.0
H166 H 0.48553 0.5139 0.55054 0.0
H167 H 0.48312 0.50157 0.52449 0.0
H168 H 0.49759 0.52651 0.53049 0.0
C169 C 0.53724 0.49431 0.99629 0.0
N170 N 0.55443 0.49882 0.00749 0.0
N171 N 0.53554 0.5084 0.98274 0.0
C172 C 0.52197 0.47628 0.99877 0.0
C173 C 0.55233 0.52169 0.98617 0.0
N174 N 0.56381 0.51593 0.00129 0.0
C175 C 0.55816 0.53937 0.97374 0.0
H176 H 0.52572 0.46208 0.98895 0.0
H177 H 0.50696 0.47984 0.99406 0.0
H178 H 0.5218 0.47263 0.01481 0.0
H179 H 0.55311 0.55412 0.98142 0.0
H180 H 0.55117 0.53622 0.95814 0.0
H181 H 0.57448 0.54173 0.97254 0.0
C182 C 0.68421 0.21334 0.27615 0.0
N183 N 0.69953 0.20692 0.28655 0.0
N184 N 0.67959 0.20022 0.25875 0.0
C185 C 0.67386 0.23257 0.28286 0.0
C186 C 0.69256 0.18549 0.25893 0.0
N187 N 0.70453 0.18938 0.27602 0.0
C188 C 0.69384 0.16765 0.24224 0.0
H189 H 0.6585 0.23117 0.27643 0.0
H190 H 0.68207 0.24647 0.27736 0.0
H191 H 0.6735 0.23533 0.29978 0.0
H192 H 0.68674 0.17069 0.22769 0.0
H193 H 0.6861 0.1531 0.24698 0.0
H194 H 0.70954 0.1649 0.23971 0.0
C195 C 0.44828 0.01296 0.95256 0.0
N196 N 0.46269 0.02927 0.95426 0.0
N197 N 0.43542 0.01546 0.96787 0.0
C198 C 0.44777 0.99375 0.93706 0.0
C199 C 0.44257 0.0338 0.97896 0.0
N200 N 0.45929 0.04206 0.97088 0.0
C201 C 0.43233 0.04442 0.99677 0.0
H202 H 0.43903 0.99641 0.9233 0.0
H203 H 0.44066 0.97966 0.94323 0.0
H204 H 0.46291 0.99071 0.93236 0.0
H205 H 0.43861 0.04007 0.01122 0.0
H206 H 0.4162 0.03941 0.99584 0.0
H207 H 0.43464 0.06179 0.99721 0.0
Mg208 Mg 0.23374 0.84719 0.02708 0.0
O209 O 0.26261 0.86671 0.01971 0.0
O210 O 0.28663 0.84527 0.0206 0.0
Mg211 Mg 0.27415 0.81333 0.02877 0.0
C212 C 0.28073 0.86304 0.01786 0.0
C213 C 0.19585 0.86672 0.0185 0.0
O214 O 0.19011 0.84878 0.02532 0.0
O215 O 0.2327 0.82875 0.99509 0.0
O216 O 0.25709 0.80805 0.99783 0.0
O217 O 0.23905 0.85681 0.06076 0.0
O218 O 0.25008 0.82883 0.04393 0.0
C219 C 0.24308 0.81436 0.98758 0.0
C220 C 0.24924 0.84081 0.06092 0.0
O221 O 0.21429 0.87145 0.01657 0.0
Mg222 Mg 0.15406 0.5113 0.2836 0.0
O223 O 0.13591 0.50528 0.25295 0.0
O224 O 0.1573 0.5036 0.22775 0.0
Mg225 Mg 0.18878 0.50864 0.24189 0.0
C226 C 0.13959 0.50277 0.23392 0.0
C227 C 0.12813 0.50989 0.3207 0.0
O228 O 0.14595 0.51641 0.32858 0.0
O229 O 0.16146 0.47698 0.2806 0.0
O230 O 0.18328 0.47741 0.25559 0.0
O231 O 0.15669 0.54624 0.28278 0.0
O232 O 0.17846 0.52542 0.26998 0.0
C233 C 0.17355 0.46792 0.26876 0.0
C234 C 0.17313 0.54411 0.27354 0.0
O235 O 0.12604 0.50501 0.30144 0.0
Mg236 Mg 0.79438 0.66179 0.01943 0.0
O237 O 0.76262 0.64437 0.01604 0.0
O238 O 0.74224 0.66967 0.01596 0.0
Mg239 Mg 0.75975 0.70209 0.01883 0.0
C240 C 0.74516 0.65027 0.01529 0.0
C241 C 0.80668 0.61762 0.02504 0.0
O242 O 0.79457 0.62083 0.0401 0.0
O243 O 0.79379 0.66846 0.98579 0.0
O244 O 0.77397 0.69438 0.98787 0.0
O245 O 0.7925 0.66541 0.05362 0.0
O246 O 0.78366 0.68885 0.03424 0.0
C247 C 0.78529 0.68257 0.97769 0.0
C248 C 0.78499 0.68294 0.05217 0.0
O249 O 0.80873 0.63105 0.01232 0.0
Mg250 Mg 0.89 0.02776 0.26975 0.0
O251 O 0.87051 0.99598 0.26368 0.0
O252 O 0.89102 0.97108 0.25654 0.0
Mg253 Mg 0.92285 0.98623 0.25734 0.0
C254 C 0.87361 0.9767 0.25905 0.0
C255 C 0.86695 0.06453 0.28596 0.0
O256 O 0.88478 0.07358 0.28347 0.0
O257 O 0.90038 0.01993 0.30117 0.0
O258 O 0.92115 0.99585 0.29187 0.0
O259 O 0.88835 0.03192 0.23655 0.0
O260 O 0.91121 0.01542 0.2507 0.0
C261 C 0.9129 0.00737 0.30563 0.0
C262 C 0.9034 0.02104 0.23444 0.0
O263 O 0.86397 0.04457 0.28261 0.0
Mg264 Mg 0.29394 0.1609 0.51795 0.0
O265 O 0.26343 0.14089 0.51345 0.0
O266 O 0.24115 0.16384 0.51022 0.0
Mg267 Mg 0.25644 0.19731 0.51268 0.0
C268 C 0.24552 0.14504 0.51094 0.0
C269 C 0.3291 0.13592 0.51848 0.0
O270 O 0.33573 0.15562 0.52447 0.0
O271 O 0.29467 0.16603 0.48406 0.0
O272 O 0.27256 0.18952 0.48272 0.0
O273 O 0.29015 0.16522 0.55163 0.0
O274 O 0.28049 0.18706 0.5308 0.0
C275 C 0.28544 0.1784 0.47427 0.0
C276 C 0.28141 0.18179 0.54906 0.0
O277 O 0.31086 0.13174 0.51319 0.0
Mg278 Mg 0.38898 0.524 0.77129 0.0
O279 O 0.36819 0.49318 0.76469 0.0
O280 O 0.38743 0.46691 0.75909 0.0
Mg281 Mg 0.41984 0.48028 0.76169 0.0
C282 C 0.37035 0.47362 0.76047 0.0
C283 C 0.36295 0.56003 0.77558 0.0
O284 O 0.37732 0.56597 0.76386 0.0
O285 O 0.39721 0.51648 0.80351 0.0
O286 O 0.41687 0.49089 0.79583 0.0
O287 O 0.38954 0.52711 0.7378 0.0
O288 O 0.41084 0.51038 0.7539 0.0
C289 C 0.40869 0.50328 0.8089 0.0
C290 C 0.40439 0.51587 0.73697 0.0
O291 O 0.36314 0.54233 0.78239 0.0
Mg292 Mg 0.73194 0.34731 0.52629 0.0
O293 O 0.76173 0.36555 0.5202 0.0
O294 O 0.78464 0.34299 0.52228 0.0
Mg295 Mg 0.77049 0.3118 0.53119 0.0
C296 C 0.77966 0.36103 0.51905 0.0
C297 C 0.71581 0.39083 0.52266 0.0
O298 O 0.72945 0.3964 0.53729 0.0
O299 O 0.7324 0.32854 0.49458 0.0
O300 O 0.75412 0.30546 0.49985 0.0
O301 O 0.73571 0.35765 0.56 0.0
O302 O 0.74665 0.32891 0.54464 0.0
C303 C 0.74153 0.31261 0.48843 0.0
C304 C 0.74543 0.34145 0.5612 0.0
O305 O 0.71398 0.37193 0.5141 0.0
Mg306 Mg 0.65523 0.01308 0.78653 0.0
O307 O 0.63624 0.00676 0.75629 0.0
O308 O 0.65726 0.00567 0.73071 0.0
Mg309 Mg 0.68903 0.01137 0.74387 0.0
C310 C 0.63966 0.00439 0.73718 0.0
C311 C 0.62706 0.02101 0.82051 0.0
O312 O 0.64146 0.03636 0.82322 0.0
O313 O 0.66315 0.97889 0.78302 0.0
O314 O 0.68439 0.98006 0.75754 0.0
O315 O 0.65712 0.04801 0.78593 0.0
O316 O 0.67892 0.02789 0.77214 0.0
C317 C 0.67516 0.97021 0.77079 0.0
C318 C 0.67328 0.04642 0.7761 0.0
O319 O 0.62794 0.00658 0.80565 0.0
Mg320 Mg 0.01749 0.22385 0.92733 0.0
O321 O 0.9877 0.21975 0.90923 0.0
O322 O 0.9645 0.20858 0.93003 0.0
Mg323 Mg 0.97978 0.20367 0.9604 0.0
C324 C 0.96964 0.21426 0.91281 0.0
C325 C 0.04963 0.23774 0.90039 0.0
O326 O 0.05674 0.2242 0.91141 0.0
O327 O 0.0087 0.25328 0.94631 0.0
O328 O 0.9877 0.23966 0.96802 0.0
O329 O 0.02318 0.19108 0.9164 0.0
O330 O 0.00787 0.19993 0.94484 0.0
C331 C 0.99769 0.25542 0.96172 0.0
C332 C 0.01425 0.18535 0.93227 0.0
O333 O 0.03212 0.24253 0.90347 0.0
Mg334 Mg 0.51749 0.72175 0.42796 0.0
O335 O 0.48765 0.71811 0.40996 0.0
O336 O 0.46438 0.70765 0.43101 0.0
Mg337 Mg 0.47956 0.7029 0.46148 0.0
C338 C 0.46955 0.713 0.41368 0.0
C339 C 0.54972 0.73422 0.40058 0.0
O340 O 0.55628 0.72024 0.41142 0.0
O341 O 0.50938 0.75161 0.4467 0.0
O342 O 0.48808 0.73886 0.46861 0.0
O343 O 0.5224 0.68871 0.41732 0.0
O344 O 0.50746 0.69829 0.44581 0.0
C345 C 0.4984 0.75427 0.46209 0.0
C346 C 0.51345 0.68339 0.43333 0.0
O347 O 0.53252 0.73983 0.40388 0.0
Mg348 Mg 0.99364 0.77377 0.60587 0.0
O349 O 0.02124 0.76333 0.62146 0.0
O350 O 0.0428 0.75603 0.59713 0.0
Mg351 Mg 0.02942 0.76145 0.56631 0.0
C352 C 0.0379 0.75737 0.6158 0.0
C353 C 0.97968 0.77186 0.65035 0.0
O354 O 0.98715 0.75377 0.64643 0.0
O355 O 0.01051 0.80607 0.60259 0.0
O356 O 0.03057 0.79677 0.5774 0.0
O357 O 0.98058 0.74035 0.59986 0.0
O358 O 0.9998 0.75581 0.57839 0.0
C359 C 0.02385 0.8108 0.59001 0.0
C360 C 0.99009 0.73891 0.58305 0.0
O361 O 0.98105 0.78476 0.63704 0.0
Mg362 Mg 0.49456 0.27624 0.10735 0.0
O363 O 0.52267 0.26571 0.12176 0.0
O364 O 0.54358 0.25888 0.09667 0.0
Mg365 Mg 0.52943 0.26525 0.06649 0.0
C366 C 0.53916 0.25983 0.11547 0.0
C367 C 0.4805 0.27173 0.15116 0.0
O368 O 0.48712 0.25346 0.14557 0.0
O369 O 0.51092 0.30902 0.10456 0.0
O370 O 0.53054 0.30022 0.07883 0.0
O371 O 0.4823 0.24249 0.10069 0.0
O372 O 0.5002 0.25938 0.07914 0.0
C373 C 0.52405 0.31402 0.09186 0.0
C374 C 0.49134 0.242 0.08361 0.0
O375 O 0.48259 0.28592 0.13917 0.0
C376 C 0.21905 0.71491 0.81631 0.0
C377 C 0.19939 0.70633 0.81223 0.0
C378 C 0.22497 0.72512 0.83575 0.0
C379 C 0.20781 0.73542 0.88949 0.0
H380 H 0.24485 0.78545 0.89087 0.0
C381 C 0.21902 0.80072 0.95851 0.0
C382 C 0.23857 0.80392 0.96658 0.0
C383 C 0.21465 0.78875 0.93951 0.0
C384 C 0.23451 0.77149 0.89064 0.0
H385 H 0.17078 0.70049 0.82525 0.0
H386 H 0.18059 0.71909 0.85879 0.0
H387 H 0.23699 0.76327 0.85852 0.0
H388 H 0.26898 0.79802 0.96078 0.0
H389 H 0.26139 0.77779 0.92724 0.0
H390 H 0.20479 0.74441 0.92158 0.0
C391 C 0.19174 0.71769 0.84738 0.0
C392 C 0.23014 0.7586 0.87217 0.0
C393 C 0.186 0.70717 0.8281 0.0
C394 C 0.25376 0.79572 0.95495 0.0
C395 C 0.24946 0.78421 0.93578 0.0
C396 C 0.21187 0.74857 0.90784 0.0
C397 C 0.21121 0.72724 0.85138 0.0
C398 C 0.2167 0.74037 0.8713 0.0
C399 C 0.22984 0.78028 0.9281 0.0
C400 C 0.22523 0.76671 0.90855 0.0
H401 H 0.22959 0.71456 0.80424 0.0
H402 H 0.24021 0.73178 0.83832 0.0
H403 H 0.19774 0.72133 0.88963 0.0
H404 H 0.20703 0.80677 0.96721 0.0
H405 H 0.19942 0.78596 0.93378 0.0
C406 C 0.97668 0.52398 0.41869 0.0
C407 C 0.98027 0.52619 0.43993 0.0
C408 C 0.99242 0.52353 0.40539 0.0
C409 C 0.04661 0.53617 0.40258 0.0
H410 H 0.04137 0.49209 0.35668 0.0
C411 C 0.11362 0.51473 0.3553 0.0
C412 C 0.11079 0.51027 0.33397 0.0
C413 C 0.09747 0.51679 0.36788 0.0
C414 C 0.04301 0.50467 0.36924 0.0
H415 H 0.00293 0.53008 0.46405 0.0
H416 H 0.03061 0.52965 0.44091 0.0
H417 H 0.01369 0.4968 0.3791 0.0
H418 H 0.08865 0.50408 0.30914 0.0
H419 H 0.06042 0.50791 0.33108 0.0
H420 H 0.0759 0.54408 0.39274 0.0
C421 C 0.01566 0.52842 0.43445 0.0
C422 C 0.02712 0.50737 0.38211 0.0
C423 C 0.99987 0.52878 0.44773 0.0
C424 C 0.09135 0.50743 0.32553 0.0
C425 C 0.07516 0.50958 0.33813 0.0
C426 C 0.06247 0.53352 0.38967 0.0
C427 C 0.0121 0.52535 0.41311 0.0
C428 C 0.02876 0.52308 0.399 0.0
C429 C 0.07803 0.51455 0.35946 0.0
C430 C 0.06093 0.51763 0.37291 0.0
H431 H 0.96163 0.52207 0.41242 0.0
H432 H 0.98917 0.52149 0.38906 0.0
H433 H 0.04827 0.54859 0.41528 0.0
H434 H 0.12838 0.51688 0.36235 0.0
H435 H 0.10025 0.52016 0.38425 0.0
C436 C 0.83388 0.77116 0.83074 0.0
C437 C 0.81982 0.76528 0.81465 0.0
C438 C 0.8353 0.75855 0.84656 0.0
C439 C 0.81922 0.74172 0.88443 0.0
H440 H 0.80917 0.68098 0.88136 0.0
C441 C 0.78075 0.70305 0.94816 0.0
C442 C 0.79003 0.68722 0.95662 0.0
C443 C 0.78695 0.71 0.92987 0.0
C444 C 0.81218 0.69793 0.88244 0.0
H445 H 0.79777 0.74084 0.80114 0.0
H446 H 0.80007 0.71872 0.82874 0.0
H447 H 0.81795 0.69732 0.85045 0.0
H448 H 0.81243 0.66542 0.9516 0.0
H449 H 0.82306 0.67748 0.91916 0.0
H450 H 0.81282 0.74248 0.91613 0.0
C451 C 0.81006 0.73298 0.82929 0.0
C452 C 0.81712 0.70729 0.86477 0.0
C453 C 0.80866 0.74562 0.8135 0.0
C454 C 0.80497 0.67766 0.94558 0.0
C455 C 0.81108 0.68456 0.92703 0.0
C456 C 0.81411 0.73242 0.90193 0.0
C457 C 0.82266 0.73983 0.84653 0.0
C458 C 0.82035 0.72935 0.8655 0.0
C459 C 0.8025 0.70124 0.91935 0.0
C460 C 0.81008 0.71049 0.90106 0.0
H461 H 0.84253 0.78633 0.83191 0.0
H462 H 0.84543 0.7641 0.85944 0.0
H463 H 0.8213 0.75874 0.88558 0.0
H464 H 0.76906 0.71068 0.95601 0.0
H465 H 0.77979 0.7226 0.9241 0.0
C466 C 0.01681 0.99199 0.452 0.0
C467 C 0.02185 0.00963 0.46639 0.0
C468 C 0.002 0.99234 0.43697 0.0
C469 C 0.97557 0.02864 0.40937 0.0
H470 H 0.94031 0.97822 0.39214 0.0
C471 C 0.91847 0.02455 0.34192 0.0
C472 C 0.9195 0.00703 0.32719 0.0
C473 C 0.92769 0.0253 0.36131 0.0
C474 C 0.95004 0.99243 0.39679 0.0
H475 H 0.01568 0.04135 0.47675 0.0
H476 H 0.98954 0.04215 0.45042 0.0
H477 H 0.96324 0.97898 0.42138 0.0
H478 H 0.92988 0.97605 0.32172 0.0
H479 H 0.94572 0.97731 0.35536 0.0
H480 H 0.96263 0.04191 0.38446 0.0
C481 C 0.99709 0.02808 0.45058 0.0
C482 C 0.96323 0.99285 0.41349 0.0
C483 C 0.01194 0.02767 0.46563 0.0
C484 C 0.9289 0.98983 0.33266 0.0
C485 C 0.93789 0.9905 0.35203 0.0
C486 C 0.96232 0.02824 0.39267 0.0
C487 C 0.99193 0.01038 0.43607 0.0
C488 C 0.97651 0.01077 0.41968 0.0
C489 C 0.93785 0.00844 0.36641 0.0
C490 C 0.94974 0.00995 0.38589 0.0
H491 H 0.02444 0.978 0.45242 0.0
H492 H 0.99869 0.97858 0.42584 0.0
H493 H 0.98568 0.04264 0.41361 0.0
H494 H 0.91138 0.03806 0.33815 0.0
H495 H 0.92726 0.03926 0.37216 0.0
C496 C 0.21352 0.29763 0.68666 0.0
C497 C 0.21275 0.28901 0.70524 0.0
C498 C 0.22207 0.28715 0.66975 0.0
C499 C 0.23274 0.23349 0.6498 0.0
H500 H 0.26378 0.26134 0.61035 0.0
C501 C 0.27302 0.18728 0.58596 0.0
C502 C 0.27278 0.19409 0.56646 0.0
C503 C 0.26576 0.19931 0.60266 0.0
C504 C 0.25494 0.25337 0.62112 0.0
H505 H 0.22137 0.26381 0.72145 0.0
H506 H 0.23662 0.24557 0.69214 0.0
H507 H 0.25209 0.28218 0.6403 0.0
H508 H 0.26466 0.21892 0.54919 0.0
H509 H 0.25176 0.23982 0.57834 0.0
H510 H 0.23551 0.20472 0.63072 0.0
C511 C 0.23018 0.26004 0.6903 0.0
C512 C 0.24827 0.2653 0.63829 0.0
C513 C 0.2216 0.27048 0.70709 0.0
C514 C 0.26497 0.21316 0.564 0.0
C515 C 0.25775 0.22524 0.58073 0.0
C516 C 0.23939 0.22159 0.63269 0.0
C517 C 0.23003 0.26792 0.67125 0.0
C518 C 0.2372 0.25547 0.6529 0.0
C519 C 0.25812 0.21849 0.60028 0.0
C520 C 0.25066 0.23135 0.61819 0.0
H521 H 0.20668 0.31191 0.68502 0.0
H522 H 0.22165 0.29362 0.6553 0.0
H523 H 0.22384 0.22544 0.66048 0.0
H524 H 0.27902 0.17272 0.58842 0.0
H525 H 0.2665 0.19377 0.61755 0.0
C526 C 0.51154 0.50078 0.59194 0.0
C527 C 0.50412 0.48942 0.57347 0.0
C528 C 0.50007 0.50149 0.60926 0.0
C529 C 0.44808 0.49339 0.62503 0.0
H530 H 0.47353 0.49629 0.67874 0.0
C531 C 0.40862 0.5184 0.6996 0.0
C532 C 0.41368 0.50966 0.71737 0.0
C533 C 0.41864 0.51392 0.68153 0.0
C534 C 0.46606 0.49518 0.66388 0.0
H535 H 0.4793 0.46968 0.55831 0.0
H536 H 0.45921 0.47024 0.58881 0.0
H537 H 0.49305 0.49129 0.64855 0.0
H538 H 0.43282 0.48875 0.7298 0.0
H539 H 0.44955 0.4802 0.69829 0.0
H540 H 0.42095 0.49665 0.64043 0.0
C541 C 0.47372 0.479 0.58992 0.0
C542 C 0.47737 0.49264 0.64652 0.0
C543 C 0.48519 0.47848 0.57254 0.0
C544 C 0.42849 0.49577 0.71647 0.0
C545 C 0.43828 0.49105 0.69837 0.0
C546 C 0.4367 0.4957 0.64243 0.0
C547 C 0.48097 0.49066 0.60848 0.0
C548 C 0.4686 0.49201 0.62687 0.0
C549 C 0.43381 0.5004 0.68078 0.0
C550 C 0.44559 0.49685 0.66211 0.0
H551 H 0.52603 0.50957 0.59276 0.0
H552 H 0.50602 0.51099 0.6231 0.0
H553 H 0.44083 0.49318 0.61017 0.0
H554 H 0.39734 0.52925 0.6998 0.0
H555 H 0.41493 0.52164 0.66839 0.0
C556 C 0.81558 0.26872 0.70487 0.0
C557 C 0.80578 0.27143 0.7233 0.0
C558 C 0.8112 0.2803 0.68893 0.0
C559 C 0.77087 0.30931 0.67057 0.0
H560 H 0.80875 0.32256 0.6297 0.0
C561 C 0.75027 0.34891 0.59934 0.0
C562 C 0.75486 0.33758 0.58076 0.0
C563 C 0.75806 0.34417 0.61795 0.0
C564 C 0.79805 0.31901 0.64106 0.0
H565 H 0.78454 0.28873 0.74021 0.0
H566 H 0.77736 0.30981 0.71277 0.0
H567 H 0.81994 0.30895 0.66063 0.0
H568 H 0.77165 0.31273 0.5673 0.0
H569 H 0.78554 0.3049 0.59958 0.0
H570 H 0.74902 0.31946 0.6509 0.0
C571 C 0.788 0.29834 0.71021 0.0
C572 C 0.80441 0.31109 0.65873 0.0
C573 C 0.7922 0.28651 0.72601 0.0
C574 C 0.76786 0.32187 0.5812 0.0
C575 C 0.7759 0.31741 0.59973 0.0
C576 C 0.76459 0.31753 0.65305 0.0
C577 C 0.79705 0.29501 0.69124 0.0
C578 C 0.79082 0.30567 0.67352 0.0
C579 C 0.77086 0.32828 0.6183 0.0
C580 C 0.77803 0.32203 0.63793 0.0
H581 H 0.82593 0.25692 0.70252 0.0
H582 H 0.81827 0.27698 0.67452 0.0
H583 H 0.75985 0.30502 0.68135 0.0
H584 H 0.74026 0.36107 0.59956 0.0
H585 H 0.75397 0.35282 0.63208 0.0
C586 C 0.49371 0.96928 0.61815 0.0
C587 C 0.49897 0.96894 0.59766 0.0
C588 C 0.50828 0.97035 0.63374 0.0
C589 C 0.56153 0.96453 0.64413 0.0
H590 H 0.55522 0.00483 0.69157 0.0
C591 C 0.62652 0.99644 0.70084 0.0
C592 C 0.62285 0.99942 0.72187 0.0
C593 C 0.61094 0.99123 0.68631 0.0
C594 C 0.55711 0.99329 0.67859 0.0
H595 H 0.52331 0.96857 0.57716 0.0
H596 H 0.54895 0.97042 0.60432 0.0
H597 H 0.52898 0.99741 0.66509 0.0
H598 H 0.5997 0.99926 0.744 0.0
H599 H 0.57248 0.99009 0.71858 0.0
H600 H 0.58982 0.96067 0.65754 0.0
C601 C 0.53358 0.96969 0.60845 0.0
C602 C 0.54203 0.989 0.66338 0.0
C603 C 0.51895 0.96858 0.59287 0.0
C604 C 0.60311 0.99716 0.72796 0.0
C605 C 0.58748 0.99196 0.71337 0.0
C606 C 0.57662 0.96884 0.65935 0.0
C607 C 0.52846 0.97113 0.62914 0.0
C608 C 0.5441 0.97469 0.64585 0.0
C609 C 0.59122 0.98885 0.69235 0.0
C610 C 0.5747 0.98344 0.67668 0.0
H611 H 0.47833 0.96938 0.62211 0.0
H612 H 0.50375 0.97099 0.64943 0.0
H613 H 0.56352 0.9532 0.63102 0.0
H614 H 0.64149 0.99809 0.69549 0.0
H615 H 0.61438 0.98933 0.67026 0.0
C616 C 0.83027 0.2304 0.7951 0.0
C617 C 0.83522 0.23155 0.77467 0.0
C618 C 0.84442 0.22606 0.80945 0.0
C619 C 0.89815 0.23196 0.81906 0.0
H620 H 0.88709 0.19497 0.86071 0.0
C621 C 0.95937 0.21654 0.87626 0.0
C622 C 0.95415 0.21461 0.89653 0.0
C623 C 0.94479 0.21706 0.86099 0.0
C624 C 0.89038 0.20558 0.84935 0.0
H625 H 0.85823 0.22768 0.75283 0.0
H626 H 0.88315 0.22044 0.7779 0.0
H627 H 0.86151 0.19814 0.83483 0.0
H628 H 0.9294 0.21177 0.91659 0.0
H629 H 0.90407 0.21333 0.89016 0.0
H630 H 0.92672 0.23998 0.83377 0.0
C631 C 0.86845 0.22318 0.78294 0.0
C632 C 0.87572 0.2073 0.83447 0.0
C633 C 0.85425 0.22732 0.76861 0.0
C634 C 0.93397 0.21315 0.90112 0.0
C635 C 0.9194 0.2139 0.88589 0.0
C636 C 0.91273 0.23042 0.83404 0.0
C637 C 0.86382 0.22292 0.80361 0.0
C638 C 0.87945 0.22051 0.81916 0.0
C639 C 0.92459 0.21591 0.8656 0.0
C640 C 0.90907 0.21722 0.84942 0.0
H641 H 0.81571 0.23373 0.80012 0.0
H642 H 0.84043 0.22606 0.82527 0.0
H643 H 0.90138 0.24256 0.80767 0.0
H644 H 0.97475 0.21751 0.87212 0.0
H645 H 0.94939 0.21822 0.8455 0.0
C646 C 0.49986 0.93782 0.54033 0.0
C647 C 0.48895 0.93983 0.5581 0.0
C648 C 0.50395 0.91798 0.53138 0.0
C649 C 0.50167 0.86109 0.53894 0.0
H650 H 0.49361 0.85321 0.47992 0.0
C651 C 0.48841 0.77881 0.49179 0.0
C652 C 0.49819 0.77574 0.47323 0.0
C653 C 0.48883 0.79887 0.5027 0.0
C654 C 0.49615 0.85517 0.49636 0.0
H655 H 0.47447 0.92323 0.58112 0.0
H656 H 0.4813 0.88829 0.56544 0.0
H657 H 0.49275 0.88802 0.49856 0.0
H658 H 0.51601 0.79157 0.45161 0.0
H659 H 0.51662 0.82655 0.47061 0.0
H660 H 0.50455 0.82798 0.53663 0.0
C661 C 0.48706 0.90196 0.55849 0.0
C662 C 0.49575 0.87519 0.5071 0.0
C663 C 0.48316 0.9219 0.56754 0.0
C664 C 0.50826 0.79331 0.4658 0.0
C665 C 0.50857 0.8134 0.47667 0.0
C666 C 0.50196 0.841 0.52818 0.0
C667 C 0.49693 0.8997 0.53989 0.0
C668 C 0.49845 0.87845 0.52855 0.0
C669 C 0.49893 0.81641 0.49529 0.0
C670 C 0.49913 0.8378 0.50677 0.0
H671 H 0.50436 0.95156 0.53287 0.0
H672 H 0.51202 0.91694 0.51737 0.0
H673 H 0.50403 0.86301 0.5554 0.0
H674 H 0.48052 0.76567 0.49802 0.0
H675 H 0.48103 0.80069 0.51686 0.0
C676 C 0.16657 0.27814 0.77113 0.0
C677 C 0.16439 0.29514 0.76005 0.0
C678 C 0.15255 0.27265 0.7852 0.0
C679 C 0.11298 0.29334 0.81684 0.0
H680 H 0.09952 0.23414 0.82158 0.0
C681 C 0.05491 0.26127 0.87258 0.0
C682 C 0.0615 0.24591 0.88397 0.0
C683 C 0.06609 0.26815 0.85658 0.0
C684 C 0.10317 0.25074 0.82046 0.0
H685 H 0.14617 0.31989 0.75483 0.0
H686 H 0.12125 0.31021 0.77942 0.0
H687 H 0.12133 0.24437 0.79489 0.0
H688 H 0.08511 0.22599 0.88766 0.0
H689 H 0.10437 0.23786 0.85987 0.0
H690 H 0.09472 0.29955 0.84258 0.0
C691 C 0.1339 0.30121 0.77739 0.0
C692 C 0.11572 0.25661 0.80522 0.0
C693 C 0.14803 0.30672 0.76331 0.0
C694 C 0.07954 0.23779 0.87919 0.0
C695 C 0.09055 0.24448 0.86316 0.0
C696 C 0.10027 0.28742 0.83206 0.0
C697 C 0.13597 0.28403 0.78845 0.0
C698 C 0.12115 0.27797 0.8035 0.0
C699 C 0.08389 0.25958 0.85158 0.0
C700 C 0.09563 0.26606 0.83428 0.0
H701 H 0.17931 0.26929 0.76904 0.0
H702 H 0.15488 0.25966 0.79377 0.0
H703 H 0.11696 0.30993 0.81602 0.0
H704 H 0.04108 0.26785 0.87593 0.0
H705 H 0.06062 0.27981 0.84786 0.0
C706 C 0.54375 0.52981 0.51127 0.0
C707 C 0.52945 0.51238 0.50957 0.0
C708 C 0.54265 0.5454 0.49826 0.0
C709 C 0.50445 0.56913 0.47208 0.0
H710 H 0.54848 0.60178 0.45064 0.0
C711 C 0.50279 0.65545 0.45557 0.0
C712 C 0.51192 0.66128 0.43788 0.0
C713 C 0.50379 0.63521 0.46115 0.0
C714 C 0.53599 0.59268 0.45635 0.0
H715 H 0.50388 0.49652 0.4921 0.0
H716 H 0.50183 0.5238 0.46926 0.0
H717 H 0.55403 0.56923 0.46484 0.0
H718 H 0.52854 0.65014 0.41173 0.0
H719 H 0.53036 0.61497 0.42158 0.0
H720 H 0.48653 0.59289 0.46418 0.0
C721 C 0.51378 0.52555 0.48073 0.0
C722 C 0.53921 0.57414 0.46456 0.0
C723 C 0.51503 0.50989 0.49362 0.0
C724 C 0.52137 0.6462 0.42548 0.0
C725 C 0.52254 0.62607 0.43116 0.0
C726 C 0.50128 0.58779 0.46409 0.0
C727 C 0.52711 0.54386 0.48346 0.0
C728 C 0.52351 0.56228 0.47271 0.0
C729 C 0.5141 0.62049 0.44926 0.0
C730 C 0.51706 0.59989 0.45635 0.0
H731 H 0.55476 0.53221 0.5237 0.0
H732 H 0.55307 0.55938 0.50082 0.0
H733 H 0.4921 0.56048 0.4785 0.0
H734 H 0.49545 0.6667 0.46547 0.0
H735 H 0.49724 0.63139 0.47525 0.0
C736 C 0.84516 0.76951 0.76833 0.0
C737 C 0.84435 0.78683 0.78319 0.0
C738 C 0.86225 0.76722 0.75712 0.0
C739 C 0.90545 0.8002 0.74078 0.0
H740 H 0.92112 0.74638 0.71749 0.0
C741 C 0.95485 0.79167 0.6704 0.0
C742 C 0.96769 0.7757 0.66874 0.0
C743 C 0.94179 0.79348 0.68653 0.0
C744 C 0.91719 0.7616 0.72405 0.0
H745 H 0.86084 0.81454 0.79914 0.0
H746 H 0.89109 0.81032 0.78016 0.0
H747 H 0.89556 0.74751 0.74274 0.0
H748 H 0.97758 0.74982 0.68336 0.0
H749 H 0.9553 0.75334 0.7117 0.0
H750 H 0.92725 0.81431 0.7223 0.0
C751 C 0.87843 0.79874 0.77664 0.0
C752 C 0.90229 0.76222 0.73839 0.0
C753 C 0.86128 0.80106 0.7877 0.0
C754 C 0.96777 0.7622 0.68406 0.0
C755 C 0.95485 0.76411 0.70026 0.0
C756 C 0.92042 0.79959 0.72653 0.0
C757 C 0.87892 0.78221 0.76066 0.0
C758 C 0.89601 0.78152 0.74676 0.0
C759 C 0.94136 0.77947 0.7015 0.0
C760 C 0.92633 0.78027 0.71774 0.0
H761 H 0.8321 0.75858 0.76447 0.0
H762 H 0.86192 0.7544 0.74487 0.0
H763 H 0.90089 0.81538 0.74662 0.0
H764 H 0.95432 0.80227 0.65882 0.0
H765 H 0.93152 0.80539 0.68679 0.0
C766 C 0.07058 0.96992 0.51922 0.0
C767 C 0.05903 0.98671 0.52363 0.0
C768 C 0.07066 0.9541 0.53214 0.0
C769 C 0.0364 0.92912 0.56613 0.0
H770 H 0.07943 0.89539 0.57509 0.0
C771 C 0.02215 0.84985 0.59927 0.0
C772 C 0.03123 0.83317 0.58884 0.0
C773 C 0.02797 0.87074 0.5961 0.0
C774 C 0.06722 0.90461 0.57268 0.0
H775 H 0.04005 0.00138 0.54564 0.0
H776 H 0.04032 0.97396 0.56851 0.0
H777 H 0.0862 0.92872 0.56097 0.0
H778 H 0.05429 0.82561 0.56769 0.0
H779 H 0.06404 0.86157 0.56197 0.0
H780 H 0.01725 0.90468 0.57687 0.0
C781 C 0.04903 0.9727 0.55493 0.0
C782 C 0.07114 0.92374 0.56463 0.0
C783 C 0.049 0.98847 0.54202 0.0
C784 C 0.04683 0.83797 0.57593 0.0
C785 C 0.0526 0.85873 0.57278 0.0
C786 C 0.03247 0.90996 0.57406 0.0
C787 C 0.05914 0.95484 0.54968 0.0
C788 C 0.0557 0.93601 0.56084 0.0
C789 C 0.04302 0.8754 0.58248 0.0
C790 C 0.04774 0.89717 0.57697 0.0
H791 H 0.07819 0.9682 0.50495 0.0
H792 H 0.07852 0.94054 0.52756 0.0
H793 H 0.02408 0.93799 0.56313 0.0
H794 H 0.01015 0.84677 0.60938 0.0
H795 H 0.02043 0.88321 0.60405 0.0
C796 C 0.14093 0.6995 0.75033 0.0
C797 C 0.16118 0.70023 0.74638 0.0
C798 C 0.12746 0.70494 0.73595 0.0
C799 C 0.12546 0.7349 0.69128 0.0
H800 H 0.07213 0.70691 0.68373 0.0
C801 C 0.07162 0.74866 0.62611 0.0
C802 C 0.05196 0.75141 0.63119 0.0
C803 C 0.08484 0.74249 0.64031 0.0
C804 C 0.08692 0.71499 0.68583 0.0
H805 H 0.1833 0.70669 0.7243 0.0
H806 H 0.15974 0.71544 0.69868 0.0
H807 H 0.0955 0.69488 0.70748 0.0
H808 H 0.0308 0.74989 0.65528 0.0
H809 H 0.05394 0.73893 0.68006 0.0
H810 H 0.11691 0.75478 0.66936 0.0
C811 C 0.15423 0.71115 0.71307 0.0
C812 C 0.10032 0.70812 0.69944 0.0
C813 C 0.16771 0.70586 0.72756 0.0
C814 C 0.04584 0.74794 0.65088 0.0
C815 C 0.05904 0.74154 0.66502 0.0
C816 C 0.11211 0.74163 0.67755 0.0
C817 C 0.13396 0.71108 0.71721 0.0
C818 C 0.11977 0.71801 0.70237 0.0
C819 C 0.07867 0.73874 0.65986 0.0
C820 C 0.0927 0.73177 0.6747 0.0
H821 H 0.13563 0.69509 0.76475 0.0
H822 H 0.11205 0.70492 0.73981 0.0
H823 H 0.14015 0.7432 0.69343 0.0
H824 H 0.07686 0.75123 0.61112 0.0
H825 H 0.09982 0.74028 0.63584 0.0
C826 C 0.9644 0.57516 0.46836 0.0
C827 C 0.97071 0.55734 0.47589 0.0
C828 C 0.97057 0.59528 0.47823 0.0
C829 C 0.98792 0.62014 0.5299 0.0
H830 H 0.99048 0.67127 0.5038 0.0
C831 C 0.9796 0.70031 0.57575 0.0
C832 C 0.99048 0.71839 0.57028 0.0
C833 C 0.9796 0.68096 0.56364 0.0
C834 C 0.9901 0.65717 0.51137 0.0
H835 H 0.98897 0.54615 0.49872 0.0
H836 H 1.00085 0.58127 0.51541 0.0
H837 H 0.98825 0.63727 0.48282 0.0
H838 H 0.00982 0.73026 0.54761 0.0
H839 H 0.01037 0.69641 0.52686 0.0
H840 H 0.99019 0.63994 0.5584 0.0
C841 C 0.99071 0.57992 0.50227 0.0
C842 C 0.98857 0.63762 0.4993 0.0
C843 C 0.98424 0.55984 0.49258 0.0
C844 C 1.00141 0.71665 0.5524 0.0
C845 C 1.00155 0.69723 0.54036 0.0
C846 C 0.98965 0.63964 0.54193 0.0
C847 C 0.9833 0.59788 0.49578 0.0
C848 C 0.98711 0.61881 0.5084 0.0
C849 C 0.99062 0.67911 0.5458 0.0
C850 C 0.99035 0.65843 0.53286 0.0
H851 H 0.95358 0.57337 0.45575 0.0
H852 H 0.96432 0.6086 0.47287 0.0
H853 H 0.98653 0.60609 0.53757 0.0
H854 H 0.97088 0.7011 0.58933 0.0
H855 H 0.97063 0.66751 0.56813 0.0
C856 C 0.7241 0.85145 0.23441 0.0
C857 C 0.72739 0.83051 0.23612 0.0
C858 C 0.74001 0.86704 0.23511 0.0
C859 C 0.79208 0.87774 0.25426 0.0
H860 H 0.79214 0.92583 0.22376 0.0
C861 C 0.85996 0.93878 0.25402 0.0
C862 C 0.85661 0.96017 0.25618 0.0
C863 C 0.84416 0.92305 0.25095 0.0
C864 C 0.79223 0.91258 0.23251 0.0
H865 H 0.74972 0.80914 0.23906 0.0
H866 H 0.77771 0.83616 0.23949 0.0
H867 H 0.76504 0.89769 0.21811 0.0
H868 H 0.83387 0.98174 0.25674 0.0
H869 H 0.80618 0.95414 0.25132 0.0
H870 H 0.81932 0.89256 0.26854 0.0
C871 C 0.76284 0.84073 0.23811 0.0
C872 C 0.77671 0.89644 0.22927 0.0
C873 C 0.74688 0.82519 0.23756 0.0
C874 C 0.83699 0.96544 0.25518 0.0
C875 C 0.82114 0.94964 0.25194 0.0
C876 C 0.80763 0.89378 0.25738 0.0
C877 C 0.75959 0.86195 0.2374 0.0
C878 C 0.77642 0.87882 0.24014 0.0
C879 C 0.82457 0.92828 0.24983 0.0
C880 C 0.80787 0.91139 0.24657 0.0
H881 H 0.70913 0.8558 0.23319 0.0
H882 H 0.7369 0.88319 0.23467 0.0
H883 H 0.79216 0.86469 0.26326 0.0
H884 H 0.87485 0.9341 0.25469 0.0
H885 H 0.8473 0.90675 0.24916 0.0
C886 C 0.71749 0.156 0.28209 0.0
C887 C 0.72069 0.17774 0.28116 0.0
C888 C 0.73337 0.14438 0.28558 0.0
C889 C 0.78757 0.14643 0.28047 0.0
H890 H 0.78281 0.09886 0.31184 0.0
C891 C 0.85393 0.09967 0.29324 0.0
C892 C 0.8503 0.07761 0.29005 0.0
C893 C 0.83825 0.11228 0.29478 0.0
C894 C 0.78433 0.11203 0.30293 0.0
H895 H 0.74269 0.2046 0.28376 0.0
H896 H 0.77056 0.18449 0.29038 0.0
H897 H 0.75526 0.12047 0.30994 0.0
H898 H 0.82727 0.0515 0.28688 0.0
H899 H 0.79984 0.07355 0.28945 0.0
H900 H 0.81649 0.13792 0.27327 0.0
C901 C 0.75585 0.17626 0.28802 0.0
C902 C 0.76853 0.12441 0.30182 0.0
C903 C 0.73994 0.18784 0.28446 0.0
C904 C 0.83059 0.06844 0.28933 0.0
C905 C 0.81486 0.08109 0.29087 0.0
C906 C 0.80334 0.13411 0.28162 0.0
C907 C 0.75282 0.15431 0.28831 0.0
C908 C 0.76991 0.1417 0.29046 0.0
C909 C 0.81851 0.10317 0.29317 0.0
C910 C 0.8019 0.11668 0.29277 0.0
H911 H 0.7027 0.14798 0.27983 0.0
H912 H 0.73047 0.12752 0.28553 0.0
H913 H 0.78904 0.15933 0.27124 0.0
H914 H 0.86892 0.10728 0.29405 0.0
H915 H 0.8416 0.12922 0.29694 0.0
C916 C 0.40413 0.99323 0.95801 0.0
C917 C 0.41917 1.00098 0.97269 0.0
C918 C 0.3884 0.97915 0.96285 0.0
C919 C 0.37521 0.94132 0.9998 0.0
H920 H 0.32152 0.94376 0.97932 0.0
C921 C 0.31465 0.8745 0.0069 0.0
C922 C 0.29559 0.87962 0.01214 0.0
C923 C 0.32898 0.88985 0.00183 0.0
C924 C 0.3364 0.943 0.98532 0.0
H925 H 0.42979 1.00019 0.00377 0.0
H926 H 0.40215 0.97617 0.01255 0.0
H927 H 0.34788 0.96987 0.97129 0.0
H928 H 0.27661 0.90499 0.01583 0.0
H929 H 0.30192 0.93204 0.00729 0.0
H930 H 0.36381 0.91487 0.01424 0.0
C931 C 0.40251 0.9806 0.99719 0.0
C932 C 0.35156 0.9578 0.9805 0.0
C933 C 0.41823 0.99453 0.99228 0.0
C934 C 0.29115 0.90052 0.01189 0.0
C935 C 0.30562 0.91599 0.0069 0.0
C936 C 0.36011 0.92664 0.00467 0.0
C937 C 0.38745 0.9726 0.98251 0.0
C938 C 0.37116 0.95708 0.98764 0.0
C939 C 0.32477 0.91084 0.002 0.0
C940 C 0.34055 0.92715 0.99736 0.0
H941 H 0.40457 0.99814 0.94283 0.0
H942 H 0.37718 0.97312 0.95111 0.0
H943 H 0.39015 0.9401 0.00537 0.0
H944 H 0.31857 0.85854 0.00664 0.0
H945 H 0.34341 0.8852 0.99767 0.0
C946 C 0.27843 0.33668 0.3091 0.0
C947 C 0.28288 0.32181 0.29293 0.0
C948 C 0.26347 0.3498 0.30663 0.0
C949 C 0.23876 0.3743 0.26743 0.0
H950 H 0.19888 0.38462 0.30756 0.0
C951 C 0.18284 0.43277 0.25458 0.0
C952 C 0.17859 0.44661 0.27162 0.0
C953 C 0.19202 0.41467 0.2571 0.0
C954 C 0.21 0.3821 0.29628 0.0
H955 H 0.27495 0.30857 0.26178 0.0
H956 H 0.24919 0.332 0.25715 0.0
H957 H 0.22252 0.35908 0.31247 0.0
H958 H 0.17963 0.45193 0.3047 0.0
H959 H 0.19642 0.42081 0.30923 0.0
H960 H 0.22723 0.39787 0.25171 0.0
C961 C 0.25724 0.33347 0.27174 0.0
C962 C 0.22349 0.3674 0.29909 0.0
C963 C 0.272 0.32016 0.27432 0.0
C964 C 0.18256 0.44137 0.29131 0.0
C965 C 0.19222 0.42348 0.29386 0.0
C966 C 0.22553 0.38919 0.26478 0.0
C967 C 0.25288 0.34849 0.28784 0.0
C968 C 0.23803 0.36342 0.2847 0.0
C969 C 0.19775 0.4103 0.27674 0.0
C970 C 0.21096 0.39337 0.27917 0.0
H971 H 0.28678 0.33836 0.32351 0.0
H972 H 0.26057 0.3614 0.31922 0.0
H973 H 0.25 0.3718 0.25626 0.0
H974 H 0.17979 0.43641 0.23922 0.0
H975 H 0.19534 0.40456 0.24355 0.0
C976 C 0.10161 0.01501 0.48855 0.0
C977 C 0.08715 0.01744 0.50327 0.0
C978 C 0.12068 0.02533 0.49215 0.0
C979 C 0.16226 0.04577 0.50447 0.0
H980 H 0.1613 0.10341 0.52912 0.0
C981 C 0.23212 0.10749 0.5141 0.0
C982 C 0.22896 0.12795 0.51001 0.0
C983 C 0.21606 0.0921 0.51477 0.0
C984 C 0.16185 0.08737 0.52214 0.0
H985 H 0.08155 0.03092 0.5339 0.0
H986 H 0.11511 0.0486 0.54064 0.0
H987 H 0.13163 0.07902 0.52855 0.0
H988 H 0.20635 0.14788 0.50263 0.0
H989 H 0.17871 0.12122 0.50353 0.0
H990 H 0.19237 0.05459 0.49729 0.0
C991 C 0.11164 0.03919 0.52604 0.0
C992 C 0.14488 0.07324 0.5221 0.0
C993 C 0.09252 0.02888 0.52235 0.0
C994 C 0.20943 0.13241 0.50604 0.0
C995 C 0.19349 0.11712 0.50671 0.0
C996 C 0.17931 0.05997 0.50451 0.0
C997 C 0.12573 0.03824 0.51066 0.0
C998 C 0.14469 0.05233 0.51293 0.0
C999 C 0.19651 0.09687 0.51142 0.0
C1000 C 0.17916 0.08109 0.51294 0.0
H1001 H 0.09777 0.00604 0.4738 0.0
H1002 H 0.13102 0.02423 0.4799 0.0
H1003 H 0.16275 0.02974 0.49747 0.0
H1004 H 0.24694 0.10349 0.51726 0.0
H1005 H 0.21892 0.07667 0.51846 0.0
C1006 C 0.79978 0.19288 0.75847 0.0
C1007 C 0.79288 0.21248 0.76432 0.0
C1008 C 0.78816 0.17431 0.76124 0.0
C1009 C 0.74371 0.15297 0.78704 0.0
H1010 H 0.73862 0.11089 0.73947 0.0
C1011 C 0.68067 0.08556 0.77824 0.0
C1012 C 0.68595 0.06531 0.77169 0.0
C1013 C 0.69401 0.10332 0.77704 0.0
C1014 C 0.74001 0.12237 0.75296 0.0
H1015 H 0.76934 0.22837 0.77872 0.0
H1016 H 0.7489 0.19605 0.78362 0.0
H1017 H 0.76265 0.14169 0.74 0.0
H1018 H 0.70911 0.04794 0.75796 0.0
H1019 H 0.7323 0.07888 0.75581 0.0
H1020 H 0.7209 0.13375 0.7999 0.0
C1021 C 0.76325 0.19482 0.77699 0.0
C1022 C 0.75386 0.13999 0.75332 0.0
C1023 C 0.77487 0.21333 0.77418 0.0
C1024 C 0.70451 0.0633 0.76304 0.0
C1025 C 0.71783 0.08106 0.76181 0.0
C1026 C 0.72984 0.13536 0.78667 0.0
C1027 C 0.76946 0.17507 0.76996 0.0
C1028 C 0.75579 0.15558 0.77031 0.0
C1029 C 0.71292 0.10124 0.76923 0.0
C1030 C 0.72772 0.11993 0.76956 0.0
H1031 H 0.8136 0.19198 0.7507 0.0
H1032 H 0.79352 0.15935 0.75597 0.0
H1033 H 0.74498 0.16453 0.80047 0.0
H1034 H 0.66648 0.08767 0.78496 0.0
H1035 H 0.68962 0.11868 0.78253 0.0
C1036 C 0.44974 0.00746 0.53913 0.0
C1037 C 0.44804 0.99961 0.55808 0.0
C1038 C 0.43633 0.02089 0.53295 0.0
C1039 C 0.41395 0.05894 0.52927 0.0
H1040 H 0.35865 0.05142 0.54283 0.0
C1041 C 0.36241 0.12447 0.52589 0.0
C1042 C 0.34243 0.11909 0.51965 0.0
C1043 C 0.37489 0.1089 0.52855 0.0
C1044 C 0.37398 0.05361 0.53867 0.0
H1045 H 0.43108 0.99941 0.5854 0.0
H1046 H 0.40786 0.0234 0.57499 0.0
H1047 H 0.38091 0.02585 0.5513 0.0
H1048 H 0.32003 0.09301 0.51081 0.0
H1049 H 0.34198 0.06568 0.51523 0.0
H1050 H 0.407 0.08651 0.5164 0.0
C1051 C 0.41931 0.01892 0.56467 0.0
C1052 C 0.38683 0.0391 0.5438 0.0
C1053 C 0.4327 0.00541 0.57077 0.0
C1054 C 0.33534 0.09769 0.51566 0.0
C1055 C 0.34788 0.08204 0.51833 0.0
C1056 C 0.40111 0.07339 0.5241 0.0
C1057 C 0.42097 0.02687 0.54567 0.0
C1058 C 0.40703 0.04172 0.53938 0.0
C1059 C 0.36778 0.08748 0.525 0.0
C1060 C 0.38102 0.07109 0.52899 0.0
H1061 H 0.46156 0.00328 0.52918 0.0
H1062 H 0.43795 0.02648 0.51814 0.0
H1063 H 0.42943 0.0616 0.52577 0.0
H1064 H 0.36839 0.14079 0.52914 0.0
H1065 H 0.39001 0.11372 0.534 0.0
C1066 C 0.56252 0.47151 0.51165 0.0
C1067 C 0.56044 0.4876 0.52749 0.0
C1068 C 0.58119 0.46475 0.50757 0.0
C1069 C 0.62889 0.46334 0.53535 0.0
H1070 H 0.64533 0.43806 0.48294 0.0
C1071 C 0.70212 0.42575 0.52919 0.0
C1072 C 0.70093 0.40542 0.51845 0.0
C1073 C 0.68673 0.4385 0.5275 0.0
C1074 C 0.64091 0.44505 0.49768 0.0
H1075 H 0.57591 0.51027 0.55057 0.0
H1076 H 0.60874 0.4993 0.54298 0.0
H1077 H 0.61526 0.45629 0.48465 0.0
H1078 H 0.68311 0.38307 0.49654 0.0
H1079 H 0.6562 0.40528 0.49372 0.0
H1080 H 0.6542 0.45186 0.54845 0.0
C1081 C 0.59603 0.49137 0.53402 0.0
C1082 C 0.62367 0.45547 0.49868 0.0
C1083 C 0.57735 0.49788 0.53823 0.0
C1084 C 0.68449 0.39862 0.50508 0.0
C1085 C 0.66908 0.41141 0.50339 0.0
C1086 C 0.6461 0.45306 0.53433 0.0
C1087 C 0.59811 0.4741 0.51924 0.0
C1088 C 0.61731 0.46458 0.51758 0.0
C1089 C 0.66977 0.43126 0.51503 0.0
C1090 C 0.65224 0.44358 0.51554 0.0
H1091 H 0.54951 0.46324 0.50346 0.0
H1092 H 0.58212 0.45133 0.49619 0.0
H1093 H 0.62428 0.46962 0.55026 0.0
H1094 H 0.71463 0.4316 0.53948 0.0
H1095 H 0.6879 0.45388 0.53639 0.0
C1096 C 0.70884 0.2054 0.32275 0.0
C1097 C 0.70823 0.21678 0.30587 0.0
C1098 C 0.7147 0.21573 0.34216 0.0
C1099 C 0.71212 0.2656 0.37228 0.0
H1100 H 0.75224 0.24945 0.40857 0.0
C1101 C 0.73187 0.31295 0.45146 0.0
C1102 C 0.73768 0.30191 0.46741 0.0
C1103 C 0.72928 0.30283 0.43143 0.0
C1104 C 0.74073 0.25399 0.39881 0.0
H1105 H 0.7146 0.24732 0.29549 0.0
H1106 H 0.72412 0.26561 0.32957 0.0
H1107 H 0.74657 0.23062 0.37424 0.0
H1108 H 0.74465 0.27151 0.4751 0.0
H1109 H 0.73913 0.25363 0.4406 0.0
H1110 H 0.70546 0.28823 0.39686 0.0
C1111 C 0.72003 0.24878 0.32783 0.0
C1112 C 0.73765 0.24326 0.37909 0.0
C1113 C 0.71456 0.23838 0.30843 0.0
C1114 C 0.74039 0.28049 0.46305 0.0
C1115 C 0.73739 0.27028 0.44318 0.0
C1116 C 0.71489 0.27604 0.39211 0.0
C1117 C 0.71973 0.23762 0.34491 0.0
C1118 C 0.72336 0.24904 0.36567 0.0
C1119 C 0.73202 0.28133 0.427 0.0
C1120 C 0.72925 0.2704 0.4057 0.0
H1121 H 0.70395 0.18874 0.32106 0.0
H1122 H 0.71435 0.20682 0.35515 0.0
H1123 H 0.70084 0.27015 0.36222 0.0
H1124 H 0.72984 0.32953 0.45436 0.0
H1125 H 0.72547 0.31202 0.41941 0.0
C1126 C 0.4987 0.03073 0.94983 0.0
C1127 C 0.47957 0.03129 0.9416 0.0
C1128 C 0.51484 0.0299 0.93702 0.0
C1129 C 0.52643 0.01609 0.88232 0.0
H1130 H 0.57848 0.04285 0.90038 0.0
C1131 C 0.59596 0.00388 0.83427 0.0
C1132 C 0.61009 0.02134 0.83428 0.0
C1133 C 0.58016 0.00463 0.84761 0.0
C1134 C 0.56401 0.03542 0.89496 0.0
H1135 H 0.46211 0.03228 0.91397 0.0
H1136 H 0.49027 0.03168 0.8915 0.0
H1137 H 0.55082 0.04659 0.92277 0.0
H1138 H 0.61845 0.05344 0.848 0.0
H1139 H 0.59085 0.05497 0.87055 0.0
H1140 H 0.53949 0.00565 0.85416 0.0
C1141 C 0.49293 0.0312 0.9077 0.0
C1142 C 0.54815 0.03733 0.90797 0.0
C1143 C 0.47682 0.0318 0.92052 0.0
C1144 C 0.60797 0.03959 0.84771 0.0
C1145 C 0.59215 0.04042 0.86082 0.0
C1146 C 0.54227 0.01435 0.86921 0.0
C1147 C 0.51213 0.0298 0.9157 0.0
C1148 C 0.5291 0.02776 0.90183 0.0
C1149 C 0.57807 0.02295 0.8611 0.0
C1150 C 0.56128 0.02408 0.8753 0.0
H1151 H 0.501 0.03006 0.96606 0.0
H1152 H 0.5293 0.02858 0.94377 0.0
H1153 H 0.51209 0.00814 0.87714 0.0
H1154 H 0.59721 0.98957 0.82414 0.0
H1155 H 0.56975 0.99077 0.84752 0.0
C1156 C 0.31962 0.24918 0.31303 0.0
C1157 C 0.32392 0.27068 0.31972 0.0
C1158 C 0.31999 0.23434 0.32699 0.0
C1159 C 0.30333 0.2127 0.36255 0.0
H1160 H 0.33856 0.21742 0.41047 0.0
C1161 C 0.27805 0.19087 0.44055 0.0
C1162 C 0.29095 0.18171 0.45312 0.0
C1163 C 0.28412 0.19693 0.42181 0.0
C1164 C 0.32873 0.21561 0.39703 0.0
H1165 H 0.33322 0.2936 0.34557 0.0
H1166 H 0.33431 0.26784 0.36999 0.0
H1167 H 0.34782 0.23696 0.38188 0.0
H1168 H 0.32018 0.171 0.45541 0.0
H1169 H 0.33089 0.18186 0.42263 0.0
H1170 H 0.2839 0.19199 0.378 0.0
C1171 C 0.33073 0.26223 0.35405 0.0
C1172 C 0.33398 0.22694 0.38072 0.0
C1173 C 0.33018 0.27701 0.34013 0.0
C1174 C 0.30984 0.17794 0.44606 0.0
C1175 C 0.31604 0.1843 0.42737 0.0
C1176 C 0.29803 0.20151 0.3789 0.0
C1177 C 0.3248 0.24081 0.34784 0.0
C1178 C 0.32109 0.22606 0.36351 0.0
C1179 C 0.30335 0.19421 0.41522 0.0
C1180 C 0.31041 0.20329 0.39658 0.0
H1181 H 0.31447 0.2441 0.29738 0.0
H1182 H 0.31554 0.21794 0.32167 0.0
H1183 H 0.29295 0.21179 0.34965 0.0
H1184 H 0.26339 0.19396 0.44548 0.0
H1185 H 0.27404 0.2047 0.41294 0.0
C1186 C 0.51414 0.49081 0.95379 0.0
C1187 C 0.51983 0.5087 0.96772 0.0
C1188 C 0.49881 0.49096 0.93928 0.0
C1189 C 0.4721 0.52669 0.91146 0.0
H1190 H 0.43532 0.47683 0.89718 0.0
C1191 C 0.41436 0.52168 0.84472 0.0
C1192 C 0.4146 0.50344 0.83074 0.0
C1193 C 0.42357 0.52292 0.86418 0.0
C1194 C 0.44546 0.49089 0.90099 0.0
H1195 H 0.5141 0.54072 0.97762 0.0
H1196 H 0.48724 0.54119 0.95208 0.0
H1197 H 0.45914 0.47808 0.92574 0.0
H1198 H 0.42333 0.47167 0.82675 0.0
H1199 H 0.43919 0.47378 0.86044 0.0
H1200 H 0.45883 0.53924 0.88632 0.0
C1201 C 0.49468 0.52704 0.9523 0.0
C1202 C 0.45916 0.49158 0.91732 0.0
C1203 C 0.51 0.52682 0.96687 0.0
C1204 C 0.42298 0.48601 0.83711 0.0
C1205 C 0.43199 0.48718 0.85652 0.0
C1206 C 0.45841 0.52599 0.8951 0.0
C1207 C 0.48887 0.50908 0.93835 0.0
C1208 C 0.47297 0.50928 0.92243 0.0
C1209 C 0.43294 0.50585 0.87008 0.0
C1210 C 0.44526 0.50787 0.88936 0.0
H1211 H 0.52175 0.47679 0.95402 0.0
H1212 H 0.49501 0.477 0.92851 0.0
H1213 H 0.48262 0.5405 0.91489 0.0
H1214 H 0.40806 0.5354 0.84026 0.0
H1215 H 0.42385 0.53744 0.87439 0.0
C1216 C 0.72099 0.79751 0.19347 0.0
C1217 C 0.71933 0.7876 0.21129 0.0
C1218 C 0.73003 0.78797 0.17641 0.0
C1219 C 0.76229 0.74607 0.1597 0.0
H1220 H 0.73387 0.74401 0.1076 0.0
C1221 C 0.77783 0.68804 0.0895 0.0
C1222 C 0.77782 0.69551 0.07029 0.0
C1223 C 0.77162 0.70026 0.10671 0.0
C1224 C 0.74215 0.74465 0.12196 0.0
H1225 H 0.72662 0.76084 0.22595 0.0
H1226 H 0.74227 0.74396 0.19619 0.0
H1227 H 0.72247 0.76451 0.13773 0.0
H1228 H 0.77151 0.72179 0.05413 0.0
H1229 H 0.76075 0.74306 0.08407 0.0
H1230 H 0.78184 0.72601 0.14396 0.0
C1231 C 0.73671 0.75906 0.19524 0.0
C1232 C 0.73564 0.75646 0.13924 0.0
C1233 C 0.72764 0.76858 0.21221 0.0
C1234 C 0.77145 0.71543 0.06864 0.0
C1235 C 0.76526 0.72764 0.08582 0.0
C1236 C 0.76882 0.73427 0.14242 0.0
C1237 C 0.73765 0.76842 0.17698 0.0
C1238 C 0.74552 0.75716 0.15836 0.0
C1239 C 0.7653 0.72023 0.10508 0.0
C1240 C 0.75872 0.73326 0.12337 0.0
H1241 H 0.71465 0.8122 0.19255 0.0
H1242 H 0.73077 0.79573 0.16267 0.0
H1243 H 0.77039 0.74651 0.17414 0.0
H1244 H 0.78264 0.67276 0.09129 0.0
H1245 H 0.77158 0.69395 0.12125 0.0
C1246 C 0.98933 0.97374 0.07555 0.0
C1247 C 0.99821 0.99216 0.06874 0.0
C1248 C 0.97768 0.97493 0.09282 0.0
C1249 C 0.94523 0.0072 0.12142 0.0
H1250 H 0.96209 0.98426 0.17011 0.0
C1251 C 0.91171 0.02953 0.19953 0.0
C1252 C 0.91133 0.01531 0.21414 0.0
C1253 C 0.92079 0.02504 0.18093 0.0
C1254 C 0.95681 0.99036 0.15656 0.0
H1255 H 0.00199 0.02613 0.07423 0.0
H1256 H 0.98092 0.02834 0.10402 0.0
H1257 H 0.98062 0.97896 0.13901 0.0
H1258 H 0.91884 0.98463 0.2203 0.0
H1259 H 0.93384 0.97626 0.18756 0.0
H1260 H 0.92114 0.01816 0.13848 0.0
C1261 C 0.98316 0.01302 0.09617 0.0
C1262 C 0.96756 0.9874 0.1388 0.0
C1263 C 0.99515 0.01178 0.07926 0.0
C1264 C 0.91937 0.9961 0.2095 0.0
C1265 C 0.92804 0.99136 0.19071 0.0
C1266 C 0.93419 0.00977 0.13901 0.0
C1267 C 0.97439 0.99461 0.10311 0.0
C1268 C 0.96204 0.99612 0.12125 0.0
C1269 C 0.92928 0.00596 0.17631 0.0
C1270 C 0.94004 0.00174 0.15699 0.0
H1271 H 0.99135 0.95849 0.06743 0.0
H1272 H 0.97098 0.96056 0.09794 0.0
H1273 H 0.94066 0.01392 0.10792 0.0
H1274 H 0.90568 0.04452 0.20282 0.0
H1275 H 0.92168 0.0369 0.17051 0.0
C1276 C 0.31648 0.76577 0.20729 0.0
C1277 C 0.30573 0.76996 0.22494 0.0
C1278 C 0.31317 0.77604 0.19014 0.0
C1279 C 0.29147 0.82123 0.17173 0.0
H1280 H 0.2812 0.78339 0.12152 0.0
C1281 C 0.25389 0.84553 0.09914 0.0
C1282 C 0.25915 0.83614 0.07994 0.0
C1283 C 0.26167 0.8394 0.11717 0.0
C1284 C 0.2844 0.79433 0.13525 0.0
H1285 H 0.2839 0.78859 0.23919 0.0
H1286 H 0.27809 0.80688 0.20917 0.0
H1287 H 0.29166 0.76969 0.15242 0.0
H1288 H 0.27757 0.81381 0.06474 0.0
H1289 H 0.29167 0.80382 0.09587 0.0
H1290 H 0.28423 0.84591 0.1545 0.0
C1291 C 0.28909 0.79571 0.20854 0.0
C1292 C 0.29035 0.78641 0.15301 0.0
C1293 C 0.29232 0.78527 0.22563 0.0
C1294 C 0.27302 0.82125 0.07918 0.0
C1295 C 0.281 0.81536 0.09714 0.0
C1296 C 0.2857 0.82923 0.15385 0.0
C1297 C 0.29912 0.7908 0.19044 0.0
C1298 C 0.29385 0.79972 0.17147 0.0
C1299 C 0.27506 0.82392 0.11639 0.0
C1300 C 0.28198 0.81584 0.13538 0.0
H1301 H 0.32681 0.75389 0.20654 0.0
H1302 H 0.32125 0.77209 0.17647 0.0
H1303 H 0.29417 0.83186 0.18574 0.0
H1304 H 0.24317 0.85702 0.10027 0.0
H1305 H 0.25658 0.84623 0.13168 0.0
C1306 C 0.01757 0.47079 0.09009 0.0
C1307 C 0.99768 0.4709 0.09535 0.0
C1308 C 0.03253 0.47185 0.10532 0.0
C1309 C 0.04206 0.49042 0.16027 0.0
H1310 H 0.08951 0.46165 0.15323 0.0
C1311 C 0.10311 0.49634 0.22441 0.0
C1312 C 0.1229 0.4983 0.21844 0.0
C1313 C 0.08752 0.49173 0.20973 0.0
C1314 C 0.07643 0.46996 0.15537 0.0
H1315 H 0.97758 0.47079 0.12026 0.0
H1316 H 0.0036 0.47244 0.14697 0.0
H1317 H 0.06292 0.45494 0.12697 0.0
H1318 H 0.14168 0.49704 0.19219 0.0
H1319 H 0.1146 0.48933 0.16675 0.0
H1320 H 0.05562 0.50563 0.18851 0.0
C1321 C 0.00779 0.47205 0.13118 0.0
C1322 C 0.06116 0.46608 0.1403 0.0
C1323 C 0.99288 0.47099 0.11595 0.0
C1324 C 0.12666 0.4956 0.19742 0.0
C1325 C 0.1111 0.491 0.18278 0.0
C1326 C 0.05732 0.4943 0.17531 0.0
C1327 C 0.02786 0.47302 0.12612 0.0
C1328 C 0.04382 0.47634 0.1425 0.0
C1329 C 0.09132 0.48896 0.18872 0.0
C1330 C 0.07477 0.48424 0.17301 0.0
H1331 H 0.02156 0.47089 0.07428 0.0
H1332 H 0.04781 0.47271 0.10084 0.0
H1333 H 0.02909 0.4989 0.16233 0.0
H1334 H 0.09962 0.49822 0.24044 0.0
H1335 H 0.07248 0.49006 0.21489 0.0
C1336 C 0.35258 0.72602 0.27054 0.0
C1337 C 0.33383 0.73063 0.27719 0.0
C1338 C 0.36704 0.72155 0.28445 0.0
C1339 C 0.37523 0.70577 0.33593 0.0
H1340 H 0.42646 0.73772 0.33412 0.0
C1341 C 0.43389 0.71219 0.40212 0.0
C1342 C 0.45404 0.71333 0.39742 0.0
C1343 C 0.41928 0.7128 0.3869 0.0
C1344 C 0.4124 0.72835 0.33469 0.0
H1345 H 0.31525 0.73371 0.30329 0.0
H1346 H 0.34029 0.7253 0.32766 0.0
H1347 H 0.40083 0.74029 0.30831 0.0
H1348 H 0.47453 0.71559 0.37284 0.0
H1349 H 0.44909 0.71608 0.34624 0.0
H1350 H 0.38678 0.69367 0.3622 0.0
C1351 C 0.34384 0.72507 0.31169 0.0
C1352 C 0.39766 0.72988 0.31988 0.0
C1353 C 0.32946 0.72975 0.29778 0.0
C1354 C 0.45918 0.71486 0.37706 0.0
C1355 C 0.44455 0.71525 0.36179 0.0
C1356 C 0.39004 0.70405 0.35065 0.0
C1357 C 0.36295 0.72141 0.30527 0.0
C1358 C 0.37886 0.71875 0.32041 0.0
C1359 C 0.42438 0.71436 0.36651 0.0
C1360 C 0.40879 0.71548 0.35036 0.0
H1361 H 0.35617 0.72643 0.25465 0.0
H1362 H 0.38154 0.71851 0.27898 0.0
H1363 H 0.36094 0.69684 0.33662 0.0
H1364 H 0.42937 0.71113 0.41766 0.0
H1365 H 0.40398 0.71247 0.39126 0.0
C1366 C 0.98301 0.4242 0.06749 0.0
C1367 C 0.98717 0.44125 0.0563 0.0
C1368 C 0.98681 0.40394 0.05936 0.0
C1369 C 0.01289 0.37354 0.01875 0.0
H1370 H 0.96757 0.33208 0.01945 0.0
C1371 C 0.00584 0.29474 0.96557 0.0
C1372 C 0.99708 0.27665 0.97322 0.0
C1373 C 0.00581 0.31462 0.97678 0.0
C1374 C 0.98052 0.34329 0.01935 0.0
H1375 H 0.99959 0.45107 0.02868 0.0
H1376 H 0.00657 0.41572 0.01445 0.0
H1377 H 0.96698 0.36687 0.03828 0.0
H1378 H 0.98151 0.26541 0.99883 0.0
H1379 H 0.9818 0.29987 0.01848 0.0
H1380 H 0.02644 0.34998 0.99978 0.0
C1381 C 1.00038 0.41786 0.02946 0.0
C1382 C 0.98018 0.36327 0.0302 0.0
C1383 C 0.99641 0.43805 0.03754 0.0
C1384 C 0.98825 0.27898 0.99234 0.0
C1385 C 0.98835 0.29882 0.00362 0.0
C1386 C 0.01331 0.35347 0.00802 0.0
C1387 C 0.995 0.40046 0.03997 0.0
C1388 C 0.99627 0.3787 0.02987 0.0
C1389 C 0.99713 0.31693 0.99601 0.0
C1390 C 0.99704 0.33812 0.008 0.0
H1391 H 0.97572 0.42641 0.08192 0.0
H1392 H 0.98273 0.39088 0.06793 0.0
H1393 H 0.02558 0.38504 0.01833 0.0
H1394 H 0.01272 0.29358 0.95086 0.0
H1395 H 0.0124 0.32822 0.97023 0.0
C1396 C 0.65375 0.80462 0.26833 0.0
C1397 C 0.66975 0.7925 0.26509 0.0
C1398 C 0.63895 0.79898 0.28167 0.0
C1399 C 0.6181 0.75361 0.30699 0.0
H1400 H 0.5979 0.79612 0.34548 0.0
C1401 C 0.57948 0.73316 0.37922 0.0
C1402 C 0.56194 0.74219 0.3843 0.0
C1403 C 0.59094 0.7399 0.36353 0.0
C1404 C 0.6032 0.78412 0.33462 0.0
H1405 H 0.68329 0.76547 0.27335 0.0
H1406 H 0.65766 0.75558 0.29678 0.0
H1407 H 0.62125 0.80678 0.32 0.0
H1408 H 0.54281 0.76566 0.37708 0.0
H1409 H 0.56315 0.7777 0.34959 0.0
H1410 H 0.60054 0.73094 0.32195 0.0
C1411 C 0.65616 0.76914 0.28875 0.0
C1412 C 0.61655 0.7902 0.32002 0.0
C1413 C 0.67086 0.77478 0.27542 0.0
C1414 C 0.55624 0.75839 0.37349 0.0
C1415 C 0.56789 0.76531 0.35783 0.0
C1416 C 0.60489 0.74755 0.32161 0.0
C1417 C 0.63997 0.78111 0.29198 0.0
C1418 C 0.62446 0.77497 0.30631 0.0
C1419 C 0.58524 0.75595 0.35259 0.0
C1420 C 0.59761 0.7627 0.33583 0.0
H1421 H 0.65269 0.81833 0.2604 0.0
H1422 H 0.62662 0.80844 0.2837 0.0
H1423 H 0.62351 0.74149 0.29635 0.0
H1424 H 0.58435 0.72068 0.38724 0.0
H1425 H 0.60441 0.73263 0.36006 0.0
C1426 C 0.04138 0.02983 0.00897 0.0
C1427 C 0.02734 0.01221 0.00563 0.0
C1428 C 0.04132 0.04583 0.99629 0.0
C1429 C 0.00492 0.06968 0.96789 0.0
H1430 H 0.0501 0.10426 0.95093 0.0
C1431 C 0.02354 0.14864 0.92455 0.0
C1432 C 0.01311 0.16316 0.93655 0.0
C1433 C 0.02482 0.12843 0.92999 0.0
C1434 C 0.03732 0.09463 0.9554 0.0
H1435 H 0.00369 0.9962 0.98547 0.0
H1436 H 0.00338 0.02423 0.96323 0.0
H1437 H 0.05509 0.07124 0.96456 0.0
H1438 H 0.9951 0.1675 0.96316 0.0
H1439 H 0.99703 0.13199 0.97244 0.0
H1440 H 0.98723 0.09339 0.95939 0.0
C1441 C 0.01427 0.02587 0.97576 0.0
C1442 C 0.0402 0.07582 0.96327 0.0
C1443 C 0.01451 0.00981 0.98833 0.0
C1444 C 0.00321 0.15669 0.95358 0.0
C1445 C 0.00429 0.13635 0.95887 0.0
C1446 C 0.00208 0.08862 0.96028 0.0
C1447 C 0.02709 0.04445 0.98016 0.0
C1448 C 0.02405 0.06324 0.96977 0.0
C1449 C 0.01549 0.12219 0.94738 0.0
C1450 C 0.01826 0.1014 0.95415 0.0
H1451 H 0.05125 0.03201 0.02239 0.0
H1452 H 0.05134 0.05998 1.00011 0.0
H1453 H 0.99221 0.06047 0.97304 0.0
H1454 H 0.03135 0.1531 0.91133 0.0
H1455 H 0.03336 0.11777 0.92073 0.0
C1456 C 0.34115 0.27245 0.26126 0.0
C1457 C 0.3426 0.28385 0.28081 0.0
C1458 C 0.35813 0.26944 0.25014 0.0
C1459 C 0.40789 0.29517 0.24445 0.0
H1460 H 0.41431 0.24412 0.20872 0.0
C1461 C 0.45831 0.29236 0.17426 0.0
C1462 C 0.46843 0.27439 0.16967 0.0
C1463 C 0.44504 0.29344 0.19026 0.0
C1464 C 0.41291 0.25845 0.21876 0.0
H1465 H 0.36265 0.30049 0.30447 0.0
H1466 H 0.39267 0.2952 0.28507 0.0
H1467 H 0.3875 0.24451 0.23268 0.0
H1468 H 0.47325 0.24396 0.17906 0.0
H1469 H 0.4503 0.24595 0.20687 0.0
H1470 H 0.43316 0.30919 0.23027 0.0
C1471 C 0.3784 0.28859 0.2783 0.0
C1472 C 0.39742 0.25871 0.23239 0.0
C1473 C 0.36135 0.29139 0.28951 0.0
C1474 C 0.46561 0.25798 0.18202 0.0
C1475 C 0.45234 0.25905 0.19793 0.0
C1476 C 0.42332 0.29496 0.23069 0.0
C1477 C 0.37693 0.278 0.25827 0.0
C1478 C 0.39456 0.27713 0.24524 0.0
C1479 C 0.44155 0.27657 0.20198 0.0
C1480 C 0.42591 0.27665 0.21753 0.0
H1481 H 0.32674 0.26683 0.25424 0.0
H1482 H 0.35641 0.2614 0.23471 0.0
H1483 H 0.40599 0.3097 0.25398 0.0
H1484 H 0.46011 0.30527 0.16506 0.0
H1485 H 0.43689 0.30714 0.19288 0.0
C1486 C 0.55242 0.49101 0.04293 0.0
C1487 C 0.56059 0.48744 0.02364 0.0
C1488 C 0.55255 0.47586 0.05656 0.0
C1489 C 0.57272 0.42631 0.0669 0.0
H1490 H 0.51886 0.40905 0.08072 0.0
C1491 C 0.54726 0.34122 0.07823 0.0
C1492 C 0.5316 0.33642 0.09106 0.0
C1493 C 0.55327 0.36199 0.07535 0.0
C1494 C 0.53409 0.41385 0.07752 0.0
H1495 H 0.57621 0.46613 0.00374 0.0
H1496 H 0.57721 0.43986 0.02775 0.0
H1497 H 0.52622 0.44209 0.06651 0.0
H1498 H 0.51066 0.35001 0.11177 0.0
H1499 H 0.52142 0.38654 0.10696 0.0
H1500 H 0.58058 0.39791 0.07753 0.0
C1501 C 0.57073 0.45432 0.03249 0.0
C1502 C 0.53831 0.43284 0.06932 0.0
C1503 C 0.57033 0.46936 0.01879 0.0
C1504 C 0.52271 0.35312 0.10171 0.0
C1505 C 0.5288 0.37405 0.09884 0.0
C1506 C 0.56856 0.40745 0.07534 0.0
C1507 C 0.56105 0.45697 0.05114 0.0
C1508 C 0.55754 0.43894 0.06329 0.0
C1509 C 0.54394 0.37872 0.0853 0.0
C1510 C 0.54904 0.40055 0.08005 0.0
H1511 H 0.54446 0.50469 0.04668 0.0
H1512 H 0.54507 0.47838 0.07085 0.0
H1513 H 0.58772 0.43073 0.06264 0.0
H1514 H 0.55459 0.32886 0.06981 0.0
H1515 H 0.56472 0.36477 0.06454 0.0
C1516 C 0.6717 0.20936 0.22448 0.0
C1517 C 0.66535 0.20275 0.24297 0.0
C1518 C 0.65794 0.2141 0.21 0.0
C1519 C 0.60391 0.20874 0.19596 0.0
H1520 H 0.6187 0.25732 0.16781 0.0
C1521 C 0.54775 0.24903 0.14981 0.0
C1522 C 0.55355 0.25347 0.13029 0.0
C1523 C 0.56126 0.24231 0.16343 0.0
C1524 C 0.61442 0.24363 0.17546 0.0
H1525 H 0.64001 0.19531 0.26089 0.0
H1526 H 0.61578 0.20413 0.23593 0.0
H1527 H 0.64248 0.24583 0.19135 0.0
H1528 H 0.57821 0.25464 0.10993 0.0
H1529 H 0.60176 0.2432 0.13379 0.0
H1530 H 0.57561 0.207 0.18032 0.0
C1531 C 0.63128 0.20529 0.23225 0.0
C1532 C 0.62808 0.23694 0.18887 0.0
C1533 C 0.64506 0.20034 0.2466 0.0
C1534 C 0.57322 0.25132 0.12482 0.0
C1535 C 0.58676 0.24486 0.13851 0.0
C1536 C 0.59017 0.21559 0.18269 0.0
C1537 C 0.63756 0.21257 0.21388 0.0
C1538 C 0.62304 0.21936 0.19927 0.0
C1539 C 0.5809 0.24018 0.15791 0.0
C1540 C 0.59531 0.23307 0.17227 0.0
H1541 H 0.68735 0.21133 0.22154 0.0
H1542 H 0.66332 0.21922 0.19587 0.0
H1543 H 0.59957 0.19497 0.20345 0.0
H1544 H 0.5327 0.25047 0.15449 0.0
H1545 H 0.5564 0.23896 0.17836 0.0
C1546 C 0.47366 0.07801 0.96684 0.0
C1547 C 0.47091 0.06135 0.97876 0.0
C1548 C 0.48119 0.09811 0.97589 0.0
C1549 C 0.50303 0.12777 0.02529 0.0
H1550 H 0.47415 0.17239 0.00835 0.0
C1551 C 0.48891 0.20263 0.07815 0.0
C1552 C 0.4926 0.222 0.07035 0.0
C1553 C 0.48995 0.18373 0.06554 0.0
C1554 C 0.48252 0.16015 0.01308 0.0
H1555 H 0.47531 0.05186 0.00878 0.0
H1556 H 0.48773 0.08676 0.02484 0.0
H1557 H 0.47046 0.13789 0.98824 0.0
H1558 H 0.50024 0.23679 0.04326 0.0
H1559 H 0.50144 0.20363 0.02106 0.0
H1560 H 0.51402 0.1499 0.05091 0.0
C1561 C 0.48446 0.08465 0.00852 0.0
C1562 C 0.48054 0.14036 0.00148 0.0
C1563 C 0.47717 0.06463 0.99941 0.0
C1564 C 0.49737 0.22209 0.0497 0.0
C1565 C 0.49802 0.20316 0.03699 0.0
C1566 C 0.50471 0.14745 0.03707 0.0
C1567 C 0.48594 0.10187 0.99706 0.0
C1568 C 0.49043 0.12372 0.00766 0.0
C1569 C 0.49433 0.18381 0.04481 0.0
C1570 C 0.49418 0.16368 0.03128 0.0
H1571 H 0.46891 0.07574 0.95085 0.0
H1572 H 0.48255 0.11084 0.96645 0.0
H1573 H 0.51127 0.11558 0.03031 0.0
H1574 H 0.48528 0.20207 0.09401 0.0
H1575 H 0.48686 0.169 0.07189 0.0
C1576 C 0.21744 0.35341 0.72646 0.0
C1577 C 0.22078 0.33261 0.72878 0.0
C1578 C 0.2333 0.36907 0.72721 0.0
C1579 C 0.28773 0.37839 0.7242 0.0
H1580 H 0.28172 0.429 0.76084 0.0
C1581 C 0.35472 0.43642 0.75424 0.0
C1582 C 0.35264 0.45812 0.75636 0.0
C1583 C 0.3383 0.42167 0.74955 0.0
C1584 C 0.28358 0.41515 0.7503 0.0
H1585 H 0.24314 0.31156 0.7329 0.0
H1586 H 0.27104 0.33882 0.73387 0.0
H1587 H 0.25376 0.40218 0.75367 0.0
H1588 H 0.33151 0.48126 0.75527 0.0
H1589 H 0.30284 0.45547 0.74678 0.0
H1590 H 0.31755 0.39129 0.72086 0.0
C1591 C 0.25619 0.34308 0.7314 0.0
C1592 C 0.26754 0.39976 0.74619 0.0
C1593 C 0.24029 0.32746 0.73078 0.0
C1594 C 0.33365 0.46469 0.75386 0.0
C1595 C 0.31719 0.44988 0.74904 0.0
C1596 C 0.30374 0.39384 0.72822 0.0
C1597 C 0.25283 0.36416 0.73016 0.0
C1598 C 0.2695 0.3811 0.73328 0.0
C1599 C 0.31935 0.42818 0.74671 0.0
C1600 C 0.30196 0.4123 0.74154 0.0
H1601 H 0.20246 0.35761 0.72477 0.0
H1602 H 0.23025 0.3851 0.72589 0.0
H1603 H 0.28962 0.36431 0.71399 0.0
H1604 H 0.36908 0.43075 0.75621 0.0
H1605 H 0.34048 0.40511 0.74833 0.0
C1606 C 0.2169 0.66039 0.79741 0.0
C1607 C 0.21736 0.67432 0.78252 0.0
C1608 C 0.23294 0.64868 0.80019 0.0
C1609 C 0.28616 0.6472 0.79078 0.0
H1610 H 0.27554 0.58665 0.78887 0.0
C1611 C 0.34626 0.59217 0.7707 0.0
C1612 C 0.34664 0.57355 0.77989 0.0
C1613 C 0.33077 0.60481 0.77399 0.0
C1614 C 0.27881 0.60356 0.78983 0.0
H1615 H 0.23482 0.68768 0.7594 0.0
H1616 H 0.26303 0.66751 0.76432 0.0
H1617 H 0.248 0.60854 0.7898 0.0
H1618 H 0.33107 0.55375 0.80003 0.0
H1619 H 0.30405 0.5761 0.80608 0.0
H1620 H 0.31688 0.64239 0.79074 0.0
C1621 C 0.25035 0.66549 0.77383 0.0
C1622 C 0.263 0.61609 0.79033 0.0
C1623 C 0.23425 0.67692 0.7709 0.0
C1624 C 0.3312 0.56798 0.79268 0.0
C1625 C 0.31567 0.58074 0.79606 0.0
C1626 C 0.30194 0.63473 0.79048 0.0
C1627 C 0.2498 0.65104 0.78833 0.0
C1628 C 0.26651 0.638 0.79031 0.0
C1629 C 0.31524 0.59931 0.78669 0.0
C1630 C 0.29848 0.61268 0.78945 0.0
H1631 H 0.20392 0.65822 0.80647 0.0
H1632 H 0.23215 0.63775 0.81155 0.0
H1633 H 0.28933 0.66408 0.79111 0.0
H1634 H 0.35782 0.59692 0.76065 0.0
H1635 H 0.33079 0.61871 0.76614 0.0
C1636 C 0.92044 0.48918 0.49319 0.0
C1637 C 0.92151 0.49509 0.47339 0.0
C1638 C 0.90466 0.47542 0.49832 0.0
C1639 C 0.87667 0.43666 0.50185 0.0
H1640 H 0.82351 0.43921 0.47995 0.0
C1641 C 0.81443 0.37131 0.5096 0.0
C1642 C 0.79531 0.37701 0.5137 0.0
C1643 C 0.82936 0.38616 0.50469 0.0
C1644 C 0.83823 0.43842 0.48636 0.0
H1645 H 0.90712 0.4914 0.44338 0.0
H1646 H 0.87969 0.46673 0.45202 0.0
H1647 H 0.85033 0.46459 0.47174 0.0
H1648 H 0.77691 0.40292 0.51575 0.0
H1649 H 0.80317 0.42901 0.50752 0.0
H1650 H 0.86456 0.4109 0.5169 0.0
C1651 C 0.89082 0.47303 0.46377 0.0
C1652 C 0.85367 0.4528 0.48143 0.0
C1653 C 0.90658 0.48692 0.45872 0.0
C1654 C 0.79146 0.39797 0.51264 0.0
C1655 C 0.80649 0.41291 0.50782 0.0
C1656 C 0.86125 0.42238 0.50684 0.0
C1657 C 0.88966 0.46709 0.48366 0.0
C1658 C 0.8731 0.45204 0.48905 0.0
C1659 C 0.82566 0.40718 0.50388 0.0
C1660 C 0.84186 0.42296 0.49905 0.0
H1661 H 0.93191 0.49518 0.50467 0.0
H1662 H 0.90415 0.47144 0.51384 0.0
H1663 H 0.89146 0.43542 0.50782 0.0
H1664 H 0.81792 0.35527 0.51006 0.0
H1665 H 0.84381 0.38106 0.50133 0.0
C1666 C 0.77613 0.83329 0.80788 0.0
C1667 C 0.78181 0.82029 0.79086 0.0
C1668 C 0.76168 0.84707 0.80569 0.0
C1669 C 0.74054 0.87642 0.76766 0.0
H1670 H 0.69843 0.88399 0.80578 0.0
C1671 C 0.68533 0.93578 0.7556 0.0
C1672 C 0.68044 0.94881 0.77297 0.0
C1673 C 0.69444 0.91754 0.7576 0.0
C1674 C 0.71019 0.88221 0.79508 0.0
H1675 H 0.77693 0.81107 0.75842 0.0
H1676 H 0.7518 0.83546 0.75435 0.0
H1677 H 0.72124 0.8574 0.80987 0.0
H1678 H 0.68023 0.95243 0.80605 0.0
H1679 H 0.6968 0.9209 0.80969 0.0
H1680 H 0.73028 0.9016 0.7533 0.0
C1681 C 0.75846 0.83502 0.76939 0.0
C1682 C 0.72322 0.86694 0.79742 0.0
C1683 C 0.77275 0.8211 0.77166 0.0
C1684 C 0.6837 0.94255 0.7924 0.0
C1685 C 0.69322 0.92446 0.79445 0.0
C1686 C 0.72771 0.89178 0.76545 0.0
C1687 C 0.75285 0.84825 0.78637 0.0
C1688 C 0.73854 0.86392 0.78373 0.0
C1689 C 0.69937 0.91213 0.77706 0.0
C1690 C 0.71233 0.89493 0.77911 0.0
H1691 H 0.78309 0.83289 0.82278 0.0
H1692 H 0.75783 0.85723 0.819 0.0
H1693 H 0.75242 0.87474 0.75708 0.0
H1694 H 0.68279 0.94016 0.74042 0.0
H1695 H 0.69831 0.90811 0.74383 0.0
C1696 C 0.60014 0.51645 0.0052 0.0
C1697 C 0.58278 0.52633 0.00877 0.0
C1698 C 0.61875 0.5282 0.00788 0.0
C1699 C 0.63983 0.5819 0.00397 0.0
H1700 H 0.68784 0.56702 0.02932 0.0
C1701 C 0.70855 0.64136 0.0169 0.0
C1702 C 0.7275 0.63449 0.0145 0.0
C1703 C 0.69177 0.62697 0.0166 0.0
C1704 C 0.67463 0.57126 0.02192 0.0
H1705 H 0.57106 0.55561 0.01911 0.0
H1706 H 0.60342 0.57619 0.02397 0.0
H1707 H 0.65699 0.54376 0.02945 0.0
H1708 H 0.74356 0.60682 0.01003 0.0
H1709 H 0.71402 0.58153 0.009 0.0
H1710 H 0.65717 0.609 0.99596 0.0
C1711 C 0.60279 0.55948 0.01891 0.0
C1712 C 0.65696 0.55797 0.0221 0.0
C1713 C 0.58431 0.54775 0.01633 0.0
C1714 C 0.72919 0.61269 0.01186 0.0
C1715 C 0.71227 0.59819 0.01142 0.0
C1716 C 0.65741 0.59499 0.00359 0.0
C1717 C 0.62018 0.55003 0.014 0.0
C1718 C 0.63929 0.56339 0.01345 0.0
C1719 C 0.6933 0.60518 0.01367 0.0
C1720 C 0.67501 0.59012 0.0129 0.0
H1721 H 0.59922 0.50002 0.99902 0.0
H1722 H 0.63188 0.52049 0.00392 0.0
H1723 H 0.62659 0.58624 0.99667 0.0
H1724 H 0.70658 0.65798 0.01924 0.0
H1725 H 0.67755 0.63304 0.01892 0.0
C1726 C 0.29289 0.69246 0.24706 0.0
C1727 C 0.29325 0.70928 0.26271 0.0
C1728 C 0.28101 0.67373 0.2484 0.0
C1729 C 0.25643 0.63951 0.28131 0.0
H1730 H 0.21456 0.62719 0.23912 0.0
C1731 C 0.20668 0.56055 0.26649 0.0
C1732 C 0.18643 0.56255 0.2692 0.0
C1733 C 0.21999 0.57829 0.26529 0.0
C1734 C 0.22619 0.63048 0.25094 0.0
H1735 H 0.28192 0.71988 0.29208 0.0
H1736 H 0.26186 0.68647 0.29509 0.0
H1737 H 0.2388 0.65805 0.23866 0.0
H1738 H 0.16412 0.58459 0.27187 0.0
H1739 H 0.18744 0.61564 0.26885 0.0
H1740 H 0.24412 0.61162 0.29327 0.0
C1741 C 0.27074 0.68786 0.28178 0.0
C1742 C 0.24005 0.64799 0.25064 0.0
C1743 C 0.28232 0.7068 0.2802 0.0
C1744 C 0.17962 0.58257 0.26974 0.0
C1745 C 0.19292 0.6003 0.26805 0.0
C1746 C 0.24285 0.62171 0.28132 0.0
C1747 C 0.26955 0.67145 0.26559 0.0
C1748 C 0.25522 0.65267 0.26586 0.0
C1749 C 0.21326 0.59831 0.26629 0.0
C1750 C 0.22759 0.61712 0.26618 0.0
H1751 H 0.30094 0.69436 0.23329 0.0
H1752 H 0.28029 0.66126 0.23575 0.0
H1753 H 0.268 0.64288 0.29318 0.0
H1754 H 0.21242 0.54536 0.26615 0.0
H1755 H 0.2356 0.57641 0.2638 0.0
C1756 C 0.94386 0.50777 0.03941 0.0
C1757 C 0.94348 0.4987 0.05778 0.0
C1758 C 0.92855 0.51941 0.03403 0.0
C1759 C 0.87629 0.52703 0.04402 0.0
H1760 H 0.88861 0.58065 0.02338 0.0
C1761 C 0.81922 0.58756 0.04074 0.0
C1762 C 0.82005 0.60065 0.02505 0.0
C1763 C 0.83343 0.57348 0.04259 0.0
C1764 C 0.88484 0.56554 0.02875 0.0
H1765 H 0.92703 0.49444 0.0849 0.0
H1766 H 0.9002 0.51491 0.07566 0.0
H1767 H 0.91532 0.5597 0.03106 0.0
H1768 H 0.83594 0.60838 0.99832 0.0
H1769 H 0.86054 0.58347 0.00129 0.0
H1770 H 0.84584 0.53282 0.04177 0.0
C1771 C 0.91222 0.51296 0.06532 0.0
C1772 C 0.90019 0.55356 0.03324 0.0
C1773 C 0.92761 0.50145 0.07073 0.0
C1774 C 0.83491 0.59861 0.01065 0.0
C1775 C 0.84913 0.58445 0.01247 0.0
C1776 C 0.86093 0.53894 0.03943 0.0
C1777 C 0.91249 0.52204 0.04688 0.0
C1778 C 0.89612 0.5343 0.04118 0.0
C1779 C 0.84882 0.57203 0.02873 0.0
C1780 C 0.86501 0.55849 0.03199 0.0
H1781 H 0.95602 0.5058 0.02925 0.0
H1782 H 0.92913 0.52608 0.01967 0.0
H1783 H 0.87264 0.51208 0.04977 0.0
H1784 H 0.808 0.5887 0.05212 0.0
H1785 H 0.8328 0.56438 0.05544 0.0
C1786 C 0.07233 0.98821 0.03614 0.0
C1787 C 0.05505 0.98398 0.02364 0.0
C1788 C 0.08946 0.9788 0.03063 0.0
C1789 C 0.10279 0.93076 0.99998 0.0
H1790 H 0.15578 0.95235 0.02032 0.0
C1791 C 0.16087 0.87573 0.01732 0.0
C1792 C 0.18102 0.88137 0.01434 0.0
C1793 C 0.14675 0.88966 0.01454 0.0
C1794 C 0.14116 0.94614 0.01422 0.0
H1795 H 0.04256 0.96859 0.99466 0.0
H1796 H 0.07272 0.95267 0.98445 0.0
H1797 H 0.12964 0.9759 0.02125 0.0
H1798 H 0.20206 0.90605 0.00566 0.0
H1799 H 0.17726 0.9304 1.00054 0.0
H1800 H 0.11427 0.90106 0.99287 0.0
C1801 C 0.07292 0.96259 0.99892 0.0
C1802 C 0.12608 0.95961 0.01498 0.0
C1803 C 0.05572 0.97189 0.00458 0.0
C1804 C 0.18666 0.90122 0.00812 0.0
C1805 C 0.17246 0.91522 0.00529 0.0
C1806 C 0.11787 0.91737 0.99909 0.0
C1807 C 0.08974 0.96516 0.0123 0.0
C1808 C 0.10654 0.95195 0.00844 0.0
C1809 C 0.15232 0.90963 0.00859 0.0
C1810 C 0.13711 0.92469 0.0068 0.0
H1811 H 0.07221 0.99787 0.05073 0.0
H1812 H 0.10199 0.98119 0.04141 0.0
H1813 H 0.08797 0.92413 0.99495 0.0
H1814 H 0.15595 0.86062 0.02218 0.0
H1815 H 0.13149 0.88491 0.01765 0.0
loop_
_geom_bond_atom_site_label_1
_geom_bond_atom_site_label_2
_geom_bond_distance
_geom_bond_site_symmetry_2
_ccdc_geom_bond_type
C0 N1 1.319 . S
C0 N2 1.348 1_465 S
C0 C3 1.485 . S
N1 C0 1.319 . S
N1 N5 1.367 1_565 S
N2 C0 1.348 1_645 S
N2 C4 1.346 . S
C3 C0 1.485 . S
C3 H7 0.960 . S
C3 H8 0.961 . S
C3 H9 0.960 . S
C4 N2 1.346 . S
C4 N5 1.307 1_655 S
C4 C6 1.486 . S
N5 N1 1.367 1_545 S
N5 C4 1.307 1_455 S
C6 C4 1.486 . S
C6 H10 0.960 . S
C6 H11 0.960 . S
C6 H12 0.959 . S
H7 C3 0.960 . S
H8 C3 0.961 . S
H9 C3 0.960 . S
H10 C6 0.960 . S
H11 C6 0.960 . S
H12 C6 0.959 . S
C13 N14 1.317 . S
C13 N15 1.348 . S
C13 C16 1.485 . S
N14 C13 1.317 . S
N14 N18 1.370 . S
N15 C13 1.348 . S
N15 C17 1.346 . S
C16 C13 1.485 . S
C16 H20 0.960 . S
C16 H21 0.961 . S
C16 H22 0.960 . S
C17 N15 1.346 . S
C17 N18 1.307 . S
C17 C19 1.486 . S
N18 N14 1.370 . S
N18 C17 1.307 . S
C19 C17 1.486 . S
C19 H23 0.960 . S
C19 H24 0.960 . S
C19 H25 0.959 . S
H20 C16 0.960 . S
H21 C16 0.961 . S
H22 C16 0.960 . S
H23 C19 0.960 . S
H24 C19 0.960 . S
H25 C19 0.959 . S
C26 N27 1.317 . S
C26 N28 1.348 . S
C26 C29 1.485 . S
N27 C26 1.317 . S
N27 N31 1.370 . S
N28 C26 1.348 . S
N28 C30 1.346 . S
C29 C26 1.485 . S
C29 H33 0.960 . S
C29 H34 0.961 . S
C29 H35 0.960 . S
C30 N28 1.346 . S
C30 N31 1.307 . S
C30 C32 1.486 . S
N31 N27 1.370 . S
N31 C30 1.307 . S
C32 C30 1.486 . S
C32 H36 0.960 . S
C32 H37 0.960 . S
C32 H38 0.959 . S
H33 C29 0.960 . S
H34 C29 0.961 . S
H35 C29 0.960 . S
H36 C32 0.960 . S
H37 C32 0.960 . S
H38 C32 0.959 . S
C39 N40 1.317 . S
C39 N41 1.348 . S
C39 C42 1.485 . S
N40 C39 1.317 . S
N40 N44 1.370 . S
N41 C39 1.348 . S
N41 C43 1.346 . S
C42 C39 1.485 . S
C42 H46 0.960 . S
C42 H47 0.961 . S
C42 H48 0.960 . S
C43 N41 1.346 . S
C43 N44 1.307 . S
C43 C45 1.486 . S
N44 N40 1.370 . S
N44 C43 1.307 . S
C45 C43 1.486 . S
C45 H49 0.960 . S
C45 H50 0.960 . S
C45 H51 0.959 . S
H46 C42 0.960 . S
H47 C42 0.961 . S
H48 C42 0.960 . S
H49 C45 0.960 . S
H50 C45 0.960 . S
H51 C45 0.959 . S
C52 N53 1.317 . S
C52 N54 1.348 . S
C52 C55 1.485 . S
N53 C52 1.317 . S
N53 N57 1.370 . S
N54 C52 1.348 . S
N54 C56 1.346 . S
C55 C52 1.485 . S
C55 H59 0.960 . S
C55 H60 0.961 . S
C55 H61 0.960 . S
C56 N54 1.346 . S
C56 N57 1.307 . S
C56 C58 1.486 1_565 S
N57 N53 1.370 . S
N57 C56 1.307 . S
C58 C56 1.486 1_545 S
C58 H62 0.960 . S
C58 H63 0.960 . S
C58 H64 0.959 . S
H59 C55 0.960 . S
H60 C55 0.961 . S
H61 C55 0.960 . S
H62 C58 0.960 . S
H63 C58 0.960 . S
H64 C58 0.959 . S
C65 N66 1.317 . S
C65 N67 1.348 . S
C65 C68 1.485 . S
N66 C65 1.317 . S
N66 N70 1.370 . S
N67 C65 1.348 . S
N67 C69 1.346 . S
C68 C65 1.485 . S
C68 H72 0.960 . S
C68 H73 0.961 . S
C68 H74 0.960 . S
C69 N67 1.346 . S
C69 N70 1.307 . S
C69 C71 1.486 . S
N70 N66 1.370 . S
N70 C69 1.307 . S
C71 C69 1.486 . S
C71 H75 0.960 . S
C71 H76 0.960 . S
C71 H77 0.959 . S
H72 C68 0.960 . S
H73 C68 0.961 . S
H74 C68 0.960 . S
H75 C71 0.960 . S
H76 C71 0.960 . S
H77 C71 0.959 . S
C78 N79 1.317 . S
C78 N80 1.348 . S
C78 C81 1.485 . S
N79 C78 1.317 . S
N79 N83 1.370 . S
N80 C78 1.348 . S
N80 C82 1.346 . S
C81 C78 1.485 . S
C81 H85 0.960 . S
C81 H86 0.961 . S
C81 H87 0.960 . S
C82 N80 1.346 . S
C82 N83 1.307 . S
C82 C84 1.486 . S
N83 N79 1.370 . S
N83 C82 1.307 . S
C84 C82 1.486 . S
C84 H88 0.960 . S
C84 H89 0.960 . S
C84 H90 0.959 . S
H85 C81 0.960 . S
H86 C81 0.961 . S
H87 C81 0.960 . S
H88 C84 0.960 . S
H89 C84 0.960 . S
H90 C84 0.959 . S
C91 N92 1.317 . S
C91 N93 1.348 . S
C91 C94 1.485 . S
N92 C91 1.317 . S
N92 N96 1.370 . S
N93 C91 1.348 . S
N93 C95 1.346 . S
C94 C91 1.485 . S
C94 H98 0.960 . S
C94 H99 0.961 . S
C94 H100 0.960 . S
C95 N93 1.346 . S
C95 N96 1.307 . S
C95 C97 1.486 . S
N96 N92 1.370 . S
N96 C95 1.307 . S
C97 C95 1.486 . S
C97 H101 0.960 . S
C97 H102 0.960 . S
C97 H103 0.959 . S
H98 C94 0.960 . S
H99 C94 0.961 . S
H100 C94 0.960 . S
H101 C97 0.960 . S
H102 C97 0.960 . S
H103 C97 0.959 . S
C104 N105 1.317 . S
C104 N106 1.348 . S
C104 C107 1.485 . S
N105 C104 1.317 . S
N105 N109 1.370 . S
N106 C104 1.348 . S
N106 C108 1.346 . S
C107 C104 1.485 . S
C107 H111 0.960 . S
C107 H112 0.961 . S
C107 H113 0.960 . S
C108 N106 1.346 . S
C108 N109 1.307 . S
C108 C110 1.486 . S
N109 N105 1.370 . S
N109 C108 1.307 . S
C110 C108 1.486 . S
C110 H114 0.960 . S
C110 H115 0.960 . S
C110 H116 0.959 . S
H111 C107 0.960 . S
H112 C107 0.961 . S
H113 C107 0.960 . S
H114 C110 0.960 . S
H115 C110 0.960 . S
H116 C110 0.959 . S
C117 N118 1.317 . S
C117 N119 1.348 . S
C117 C120 1.484 1_565 S
N118 C117 1.317 . S
N118 N122 1.370 . S
N119 C117 1.348 . S
N119 C121 1.346 . S
C120 C117 1.484 1_545 S
C120 H124 0.960 1_545 S
C120 H125 0.963 . S
C120 H126 0.960 . S
C121 N119 1.346 . S
C121 N122 1.307 . S
C121 C123 1.486 . S
N122 N118 1.370 . S
N122 C121 1.307 . S
C123 C121 1.486 . S
C123 H127 0.960 . S
C123 H128 0.960 . S
C123 H129 0.959 . S
H124 C120 0.960 1_565 S
H125 C120 0.963 . S
H126 C120 0.960 . S
H127 C123 0.960 . S
H128 C123 0.960 . S
H129 C123 0.959 . S
C130 N131 1.317 . S
C130 N132 1.348 . S
C130 C133 1.485 . S
N131 C130 1.317 . S
N131 N135 1.370 . S
N132 C130 1.348 . S
N132 C134 1.346 . S
C133 C130 1.485 . S
C133 H137 0.960 . S
C133 H138 0.961 . S
C133 H139 0.960 . S
C134 N132 1.346 . S
C134 N135 1.307 . S
C134 C136 1.486 . S
N135 N131 1.370 . S
N135 C134 1.307 . S
C136 C134 1.486 . S
C136 H140 0.960 . S
C136 H141 0.960 . S
C136 H142 0.959 . S
H137 C133 0.960 . S
H138 C133 0.961 . S
H139 C133 0.960 . S
H140 C136 0.960 . S
H141 C136 0.960 . S
H142 C136 0.959 . S
C143 N144 1.317 . S
C143 N145 1.348 . S
C143 C146 1.485 . S
N144 C143 1.317 . S
N144 N148 1.370 . S
N145 C143 1.348 . S
N145 C147 1.346 . S
C146 C143 1.485 . S
C146 H150 0.960 . S
C146 H151 0.961 . S
C146 H152 0.960 . S
C147 N145 1.346 . S
C147 N148 1.307 . S
C147 C149 1.486 . S
N148 N144 1.370 . S
N148 C147 1.307 . S
C149 C147 1.486 . S
C149 H153 0.960 . S
C149 H154 0.960 . S
C149 H155 0.959 . S
H150 C146 0.960 . S
H151 C146 0.961 . S
H152 C146 0.960 . S
H153 C149 0.960 . S
H154 C149 0.960 . S
H155 C149 0.959 . S
C156 N157 1.317 . S
C156 N158 1.348 . S
C156 C159 1.485 . S
N157 C156 1.317 . S
N157 N161 1.370 . S
N158 C156 1.348 . S
N158 C160 1.346 . S
C159 C156 1.485 . S
C159 H163 0.960 . S
C159 H164 0.961 . S
C159 H165 0.960 . S
C160 N158 1.346 . S
C160 N161 1.307 . S
C160 C162 1.486 . S
N161 N157 1.370 . S
N161 C160 1.307 . S
C162 C160 1.486 . S
C162 H166 0.960 . S
C162 H167 0.960 . S
C162 H168 0.959 . S
H163 C159 0.960 . S
H164 C159 0.961 . S
H165 C159 0.960 . S
H166 C162 0.960 . S
H167 C162 0.960 . S
H168 C162 0.959 . S
C169 N170 1.317 . S
C169 N171 1.348 . S
C169 C172 1.485 . S
N170 C169 1.317 . S
N170 N174 1.370 . S
N171 C169 1.348 . S
N171 C173 1.346 . S
C172 C169 1.485 . S
C172 H176 0.960 . S
C172 H177 0.961 . S
C172 H178 0.960 . S
C173 N171 1.346 . S
C173 N174 1.307 . S
C173 C175 1.486 . S
N174 N170 1.370 . S
N174 C173 1.307 . S
C175 C173 1.486 . S
C175 H179 0.960 . S
C175 H180 0.960 . S
C175 H181 0.959 . S
H176 C172 0.960 . S
H177 C172 0.961 . S
H178 C172 0.960 . S
H179 C175 0.960 . S
H180 C175 0.960 . S
H181 C175 0.959 . S
C182 N183 1.317 . S
C182 N184 1.348 . S
C182 C185 1.485 . S
N183 C182 1.317 . S
N183 N187 1.370 . S
N184 C182 1.348 . S
N184 C186 1.346 . S
C185 C182 1.485 . S
C185 H189 0.960 . S
C185 H190 0.961 . S
C185 H191 0.960 . S
C186 N184 1.346 . S
C186 N187 1.307 . S
C186 C188 1.486 . S
N187 N183 1.370 . S
N187 C186 1.307 . S
C188 C186 1.486 . S
C188 H192 0.960 . S
C188 H193 0.960 . S
C188 H194 0.959 . S
H189 C185 0.960 . S
H190 C185 0.961 . S
H191 C185 0.960 . S
H192 C188 0.960 . S
H193 C188 0.960 . S
H194 C188 0.959 . S
C195 N196 1.317 . S
C195 N197 1.348 . S
C195 C198 1.485 1_545 S
N196 C195 1.317 . S
N196 N200 1.370 . S
N197 C195 1.348 . S
N197 C199 1.346 . S
C198 C195 1.485 1_565 S
C198 H202 0.954 1_565 S
C198 H203 0.961 . S
C198 H204 0.960 . S
C199 N197 1.346 . S
C199 N200 1.307 . S
C199 C201 1.486 1_556 S
N200 N196 1.370 . S
N200 C199 1.307 . S
C201 C199 1.486 1_554 S
C201 H205 0.960 . S
C201 H206 0.960 . S
C201 H207 0.959 . S
H202 C198 0.954 1_545 S
H203 C198 0.961 . S
H204 C198 0.960 . S
H205 C201 0.960 . S
H206 C201 0.960 . S
H207 C201 0.959 . S
Mg208 O209 2.028 . S
Mg208 O215 1.986 1_554 S
Mg208 O217 2.114 . S
Mg208 O218 2.251 . S
Mg208 O221 2.010 . S
O209 Mg208 2.028 . S
O209 C212 1.250 . S
O210 Mg211 2.028 . S
O210 C212 1.248 . S
Mg211 O210 2.028 . S
Mg211 O216 2.032 1_554 S
Mg211 O218 2.079 . S
C212 O209 1.250 . S
C212 O210 1.248 . S
C213 O214 1.264 . S
C213 O221 1.249 . S
O214 C213 1.264 . S
O215 Mg208 1.986 1_556 S
O215 C219 1.246 . S
O216 Mg211 2.032 1_556 S
O216 C219 1.259 . S
O217 Mg208 2.114 . S
O217 C220 1.252 . S
O218 Mg208 2.251 . S
O218 Mg211 2.079 . S
O218 C220 1.273 . S
C219 O215 1.246 . S
C219 O216 1.259 . S
C220 O217 1.252 . S
C220 O218 1.273 . S
O221 Mg208 2.010 . S
O221 C213 1.249 . S
Mg222 O223 2.028 . S
Mg222 O229 1.986 . S
Mg222 O231 2.114 . S
Mg222 O232 2.251 . S
Mg222 O235 2.010 . S
O223 Mg222 2.028 . S
O223 C226 1.250 . S
O224 Mg225 2.028 . S
O224 C226 1.248 . S
Mg225 O224 2.028 . S
Mg225 O230 2.032 . S
Mg225 O232 2.079 . S
C226 O223 1.250 . S
C226 O224 1.248 . S
C227 O228 1.264 . S
C227 O235 1.249 . S
O228 C227 1.264 . S
O229 Mg222 1.986 . S
O229 C233 1.246 . S
O230 Mg225 2.032 . S
O230 C233 1.259 . S
O231 Mg222 2.114 . S
O231 C234 1.252 . S
O232 Mg222 2.251 . S
O232 Mg225 2.079 . S
O232 C234 1.273 . S
C233 O229 1.246 . S
C233 O230 1.259 . S
C234 O231 1.252 . S
C234 O232 1.273 . S
O235 Mg222 2.010 . S
O235 C227 1.249 . S
Mg236 O237 2.028 . S
Mg236 O243 1.986 1_554 S
Mg236 O245 2.114 . S
Mg236 O246 2.251 . S
Mg236 O249 2.010 . S
O237 Mg236 2.028 . S
O237 C240 1.250 . S
O238 Mg239 2.028 . S
O238 C240 1.248 . S
Mg239 O238 2.028 . S
Mg239 O244 2.032 1_554 S
Mg239 O246 2.079 . S
C240 O237 1.250 . S
C240 O238 1.248 . S
C241 O242 1.264 . S
C241 O249 1.249 . S
O242 C241 1.264 . S
O243 Mg236 1.986 1_556 S
O243 C247 1.246 . S
O244 Mg239 2.032 1_556 S
O244 C247 1.259 . S
O245 Mg236 2.114 . S
O245 C248 1.252 . S
O246 Mg236 2.251 . S
O246 Mg239 2.079 . S
O246 C248 1.273 . S
C247 O243 1.246 . S
C247 O244 1.259 . S
C248 O245 1.252 . S
C248 O246 1.273 . S
O249 Mg236 2.010 . S
O249 C241 1.249 . S
Mg250 O251 2.028 1_545 S
Mg250 O257 1.986 . S
Mg250 O259 2.114 . S
Mg250 O260 2.231 1_545 S
Mg250 O263 2.010 . S
O251 Mg250 2.028 1_565 S
O251 C254 1.250 . S
O252 Mg253 2.028 . S
O252 C254 1.248 . S
Mg253 O252 2.028 . S
Mg253 O258 2.032 . S
Mg253 O260 2.111 . S
C254 O251 1.250 . S
C254 O252 1.248 . S
C255 O256 1.264 . S
C255 O263 1.249 . S
O256 C255 1.264 . S
O257 Mg250 1.986 . S
O257 C261 1.246 . S
O258 Mg253 2.032 . S
O258 C261 1.259 1_565 S
O259 Mg250 2.114 . S
O259 C262 1.252 . S
O260 Mg250 2.231 1_565 S
O260 Mg253 2.111 . S
O260 C262 1.253 1_565 S
C261 O257 1.246 . S
C261 O258 1.259 1_545 S
C262 O259 1.252 . S
C262 O260 1.253 1_545 S
O263 Mg250 2.010 . S
O263 C255 1.249 . S
Mg264 O265 2.028 . S
Mg264 O271 1.986 . S
Mg264 O273 2.114 . S
Mg264 O274 2.251 . S
Mg264 O277 2.010 . S
O265 Mg264 2.028 . S
O265 C268 1.250 . S
O266 Mg267 2.028 . S
O266 C268 1.248 . S
Mg267 O266 2.028 . S
Mg267 O272 2.032 . S
Mg267 O274 2.079 . S
C268 O265 1.250 . S
C268 O266 1.248 . S
C269 O270 1.264 . S
C269 O277 1.249 . S
O270 C269 1.264 . S
O271 Mg264 1.986 . S
O271 C275 1.246 . S
O272 Mg267 2.032 . S
O272 C275 1.259 . S
O273 Mg264 2.114 . S
O273 C276 1.252 . S
O274 Mg264 2.251 . S
O274 Mg267 2.079 . S
O274 C276 1.273 . S
C275 O271 1.246 . S
C275 O272 1.259 . S
C276 O273 1.252 . S
C276 O274 1.273 . S
O277 Mg264 2.010 . S
O277 C269 1.249 . S
Mg278 O279 2.028 . S
Mg278 O285 1.986 . S
Mg278 O287 2.114 . S
Mg278 O288 2.251 . S
Mg278 O291 2.010 . S
O279 Mg278 2.028 . S
O279 C282 1.250 . S
O280 Mg281 2.028 . S
O280 C282 1.248 . S
Mg281 O280 2.028 . S
Mg281 O286 2.032 . S
Mg281 O288 2.079 . S
C282 O279 1.250 . S
C282 O280 1.248 . S
C283 O284 1.264 . S
C283 O291 1.249 . S
O284 C283 1.264 . S
O285 Mg278 1.986 . S
O285 C289 1.246 . S
O286 Mg281 2.032 . S
O286 C289 1.259 . S
O287 Mg278 2.114 . S
O287 C290 1.252 . S
O288 Mg278 2.251 . S
O288 Mg281 2.079 . S
O288 C290 1.273 . S
C289 O285 1.246 . S
C289 O286 1.259 . S
C290 O287 1.252 . S
C290 O288 1.273 . S
O291 Mg278 2.010 . S
O291 C283 1.249 . S
Mg292 O293 2.028 . S
Mg292 O299 1.986 . S
Mg292 O301 2.114 . S
Mg292 O302 2.251 . S
Mg292 O305 2.010 . S
O293 Mg292 2.028 . S
O293 C296 1.250 . S
O294 Mg295 2.028 . S
O294 C296 1.248 . S
Mg295 O294 2.028 . S
Mg295 O300 2.032 . S
Mg295 O302 2.079 . S
C296 O293 1.250 . S
C296 O294 1.248 . S
C297 O298 1.264 . S
C297 O305 1.249 . S
O298 C297 1.264 . S
O299 Mg292 1.986 . S
O299 C303 1.246 . S
O300 Mg295 2.032 . S
O300 C303 1.259 . S
O301 Mg292 2.114 . S
O301 C304 1.252 . S
O302 Mg292 2.251 . S
O302 Mg295 2.079 . S
O302 C304 1.273 . S
C303 O299 1.246 . S
C303 O300 1.259 . S
C304 O301 1.252 . S
C304 O302 1.273 . S
O305 Mg292 2.010 . S
O305 C297 1.249 . S
Mg306 O307 2.028 . S
Mg306 O313 1.986 1_545 S
Mg306 O315 2.114 . S
Mg306 O316 2.251 . S
Mg306 O319 2.010 . S
O307 Mg306 2.028 . S
O307 C310 1.250 . S
O308 Mg309 2.028 . S
O308 C310 1.248 . S
Mg309 O308 2.028 . S
Mg309 O314 2.032 1_545 S
Mg309 O316 2.079 . S
C310 O307 1.250 . S
C310 O308 1.248 . S
C311 O312 1.264 . S
C311 O319 1.249 . S
O312 C311 1.264 . S
O313 Mg306 1.986 1_565 S
O313 C317 1.246 . S
O314 Mg309 2.032 1_565 S
O314 C317 1.259 . S
O315 Mg306 2.114 . S
O315 C318 1.252 . S
O316 Mg306 2.251 . S
O316 Mg309 2.079 . S
O316 C318 1.273 . S
C317 O313 1.246 . S
C317 O314 1.259 . S
C318 O315 1.252 . S
C318 O316 1.273 . S
O319 Mg306 2.010 . S
O319 C311 1.249 . S
Mg320 O321 2.028 . S
Mg320 O327 1.986 . S
Mg320 O329 2.114 . S
Mg320 O330 2.251 . S
Mg320 O333 2.010 . S
O321 Mg320 2.028 . S
O321 C324 1.250 1_455 S
O322 Mg323 2.028 . S
O322 C324 1.248 . S
Mg323 O322 2.028 . S
Mg323 O328 2.032 . S
Mg323 O330 2.079 1_655 S
C324 O321 1.250 1_655 S
C324 O322 1.248 . S
C325 O326 1.264 . S
C325 O333 1.249 . S
O326 C325 1.264 . S
O327 Mg320 1.986 . S
O327 C331 1.246 . S
O328 Mg323 2.032 . S
O328 C331 1.259 1_655 S
O329 Mg320 2.114 . S
O329 C332 1.252 . S
O330 Mg320 2.251 . S
O330 Mg323 2.079 1_455 S
O330 C332 1.273 . S
C331 O327 1.246 . S
C331 O328 1.259 1_455 S
C332 O329 1.252 . S
C332 O330 1.273 . S
O333 Mg320 2.010 . S
O333 C325 1.249 . S
Mg334 O335 2.028 . S
Mg334 O341 1.986 . S
Mg334 O343 2.114 . S
Mg334 O344 2.251 . S
Mg334 O347 2.010 . S
O335 Mg334 2.028 . S
O335 C338 1.250 . S
O336 Mg337 2.028 . S
O336 C338 1.248 . S
Mg337 O336 2.028 . S
Mg337 O342 2.032 . S
Mg337 O344 2.079 . S
C338 O335 1.250 . S
C338 O336 1.248 . S
C339 O340 1.264 . S
C339 O347 1.249 . S
O340 C339 1.264 . S
O341 Mg334 1.986 . S
O341 C345 1.246 . S
O342 Mg337 2.032 . S
O342 C345 1.259 . S
O343 Mg334 2.114 . S
O343 C346 1.252 . S
O344 Mg334 2.251 . S
O344 Mg337 2.079 . S
O344 C346 1.273 . S
C345 O341 1.246 . S
C345 O342 1.259 . S
C346 O343 1.252 . S
C346 O344 1.273 . S
O347 Mg334 2.010 . S
O347 C339 1.249 . S
Mg348 O349 2.028 . S
Mg348 O355 1.986 . S
Mg348 O357 2.107 1_455 S
Mg348 O358 2.251 . S
Mg348 O361 2.010 1_455 S
O349 Mg348 2.028 . S
O349 C352 1.250 . S
O350 Mg351 2.028 . S
O350 C352 1.248 . S
Mg351 O350 2.028 . S
Mg351 O356 2.032 . S
Mg351 O358 2.079 . S
C352 O349 1.250 . S
C352 O350 1.248 . S
C353 O354 1.264 . S
C353 O361 1.249 . S
O354 C353 1.264 . S
O355 Mg348 1.986 . S
O355 C359 1.246 . S
O356 Mg351 2.032 . S
O356 C359 1.259 . S
O357 Mg348 2.107 1_655 S
O357 C360 1.229 1_655 S
O358 Mg348 2.251 . S
O358 Mg351 2.079 . S
O358 C360 1.273 . S
C359 O355 1.246 . S
C359 O356 1.259 . S
C360 O357 1.229 1_455 S
C360 O358 1.273 . S
O361 Mg348 2.010 1_655 S
O361 C353 1.249 . S
Mg362 O363 2.028 . S
Mg362 O369 1.986 . S
Mg362 O371 2.114 . S
Mg362 O372 2.251 . S
Mg362 O375 2.010 . S
O363 Mg362 2.028 . S
O363 C366 1.250 . S
O364 Mg365 2.028 . S
O364 C366 1.248 . S
Mg365 O364 2.028 . S
Mg365 O370 2.032 . S
Mg365 O372 2.079 . S
C366 O363 1.250 . S
C366 O364 1.248 . S
C367 O368 1.264 . S
C367 O375 1.249 . S
O368 C367 1.264 . S
O369 Mg362 1.986 . S
O369 C373 1.246 . S
O370 Mg365 2.032 . S
O370 C373 1.259 . S
O371 Mg362 2.114 . S
O371 C374 1.252 . S
O372 Mg362 2.251 . S
O372 Mg365 2.079 . S
O372 C374 1.273 . S
C373 O369 1.246 . S
C373 O370 1.259 . S
C374 O371 1.252 . S
C374 O372 1.273 . S
O375 Mg362 2.010 . S
O375 C367 1.249 . S
C376 C377 1.349 . S
C376 C378 1.327 . S
C376 H401 0.950 . S
C377 C376 1.349 . S
C377 C393 1.349 . S
C378 C376 1.327 . S
C378 C397 1.429 . S
C378 H402 0.950 . S
C379 C396 1.574 . S
C379 C398 1.368 . S
C379 H403 0.949 . S
H380 C384 0.949 . S
C381 C382 1.349 . S
C381 C383 1.327 . S
C381 H404 0.950 . S
C382 C381 1.349 . S
C382 C394 1.349 . S
C383 C381 1.327 . S
C383 C399 1.429 . S
C383 H405 0.950 . S
C384 H380 0.949 . S
C384 C392 1.574 . S
C384 C400 1.368 . S
H385 C393 0.950 . S
H386 C391 0.950 . S
H387 C392 0.949 . S
H388 C394 0.950 . S
H389 C395 0.950 . S
H390 C396 0.949 . S
C391 H386 0.950 . S
C391 C393 1.327 . S
C391 C397 1.429 . S
C392 C384 1.574 . S
C392 H387 0.949 . S
C392 C398 1.368 . S
C393 C377 1.349 . S
C393 H385 0.950 . S
C393 C391 1.327 . S
C394 C382 1.349 . S
C394 H388 0.950 . S
C394 C395 1.327 . S
C395 H389 0.950 . S
C395 C394 1.327 . S
C395 C399 1.429 . S
C396 C379 1.574 . S
C396 H390 0.949 . S
C396 C400 1.368 . S
C397 C378 1.429 . S
C397 C391 1.429 . S
C397 C398 1.523 . S
C398 C379 1.368 . S
C398 C392 1.368 . S
C398 C397 1.523 . S
C399 C383 1.429 . S
C399 C395 1.429 . S
C399 C400 1.523 . S
C400 C384 1.368 . S
C400 C396 1.368 . S
C400 C399 1.523 . S
H401 C376 0.950 . S
H402 C378 0.950 . S
H403 C379 0.949 . S
H404 C381 0.950 . S
H405 C383 0.950 . S
C406 C407 1.349 . S
C406 C408 1.327 . S
C406 H431 0.950 . S
C407 C406 1.349 . S
C407 C423 1.349 . S
C408 C406 1.327 . S
C408 C427 1.429 1_655 S
C408 H432 0.950 . S
C409 C426 1.574 . S
C409 C428 1.368 . S
C409 H433 0.949 . S
H410 C414 0.949 . S
C411 C412 1.349 . S
C411 C413 1.327 . S
C411 H434 0.950 . S
C412 C411 1.349 . S
C412 C424 1.349 . S
C413 C411 1.327 . S
C413 C429 1.429 . S
C413 H435 0.950 . S
C414 H410 0.949 . S
C414 C422 1.574 . S
C414 C430 1.368 . S
H415 C423 0.950 . S
H416 C421 0.950 . S
H417 C422 0.949 . S
H418 C424 0.950 . S
H419 C425 0.950 . S
H420 C426 0.949 . S
C421 H416 0.950 . S
C421 C423 1.327 1_455 S
C421 C427 1.429 . S
C422 C414 1.574 . S
C422 H417 0.949 . S
C422 C428 1.368 . S
C423 C407 1.349 . S
C423 H415 0.950 . S
C423 C421 1.327 1_655 S
C424 C412 1.349 . S
C424 H418 0.950 . S
C424 C425 1.327 . S
C425 H419 0.950 . S
C425 C424 1.327 . S
C425 C429 1.429 . S
C426 C409 1.574 . S
C426 H420 0.949 . S
C426 C430 1.368 . S
C427 C408 1.429 1_455 S
C427 C421 1.429 . S
C427 C428 1.523 . S
C428 C409 1.368 . S
C428 C422 1.368 . S
C428 C427 1.523 . S
C429 C413 1.429 . S
C429 C425 1.429 . S
C429 C430 1.523 . S
C430 C414 1.368 . S
C430 C426 1.368 . S
C430 C429 1.523 . S
H431 C406 0.950 . S
H432 C408 0.950 . S
H433 C409 0.949 . S
H434 C411 0.950 . S
H435 C413 0.950 . S
C436 C437 1.349 . S
C436 C438 1.327 . S
C436 H461 0.950 . S
C437 C436 1.349 . S
C437 C453 1.349 . S
C438 C436 1.327 . S
C438 C457 1.429 . S
C438 H462 0.950 . S
C439 C456 1.574 . S
C439 C458 1.368 . S
C439 H463 0.949 . S
H440 C444 0.949 . S
C441 C442 1.349 . S
C441 C443 1.327 . S
C441 H464 0.950 . S
C442 C441 1.349 . S
C442 C454 1.349 . S
C443 C441 1.327 . S
C443 C459 1.429 . S
C443 H465 0.950 . S
C444 H440 0.949 . S
C444 C452 1.574 . S
C444 C460 1.368 . S
H445 C453 0.950 . S
H446 C451 0.950 . S
H447 C452 0.949 . S
H448 C454 0.950 . S
H449 C455 0.950 . S
H450 C456 0.949 . S
C451 H446 0.950 . S
C451 C453 1.327 . S
C451 C457 1.429 . S
C452 C444 1.574 . S
C452 H447 0.949 . S
C452 C458 1.368 . S
C453 C437 1.349 . S
C453 H445 0.950 . S
C453 C451 1.327 . S
C454 C442 1.349 . S
C454 H448 0.950 . S
C454 C455 1.327 . S
C455 H449 0.950 . S
C455 C454 1.327 . S
C455 C459 1.429 . S
C456 C439 1.574 . S
C456 H450 0.949 . S
C456 C460 1.368 . S
C457 C438 1.429 . S
C457 C451 1.429 . S
C457 C458 1.523 . S
C458 C439 1.368 . S
C458 C452 1.368 . S
C458 C457 1.523 . S
C459 C443 1.429 . S
C459 C455 1.429 . S
C459 C460 1.523 . S
C460 C444 1.368 . S
C460 C456 1.368 . S
C460 C459 1.523 . S
H461 C436 0.950 . S
H462 C438 0.950 . S
H463 C439 0.949 . S
H464 C441 0.950 . S
H465 C443 0.950 . S
C466 C467 1.349 . S
C466 C468 1.327 1_455 S
C466 H491 0.950 . S
C467 C466 1.349 . S
C467 C483 1.349 1_565 S
C468 C466 1.327 1_655 S
C468 C487 1.429 . S
C468 H492 0.950 . S
C469 C486 1.574 . S
C469 C488 1.368 1_545 S
C469 H493 0.949 . S
H470 C474 0.949 . S
C471 C472 1.349 . S
C471 C473 1.327 . S
C471 H494 0.950 . S
C472 C471 1.349 . S
C472 C484 1.349 1_545 S
C473 C471 1.327 . S
C473 C489 1.429 . S
C473 H495 0.950 . S
C474 H470 0.949 . S
C474 C482 1.574 . S
C474 C490 1.405 . S
H475 C483 0.950 . S
H476 C481 0.950 . S
H477 C482 0.949 . S
H478 C484 0.950 . S
H479 C485 0.950 . S
H480 C486 0.949 . S
C481 H476 0.950 . S
C481 C483 1.327 . S
C481 C487 1.429 1_445 S
C482 C474 1.574 . S
C482 H477 0.949 . S
C482 C488 1.368 . S
C483 C467 1.349 1_545 S
C483 H475 0.950 . S
C483 C481 1.327 . S
C484 C472 1.349 1_565 S
C484 H478 0.950 . S
C484 C485 1.327 . S
C485 H479 0.950 . S
C485 C484 1.327 . S
C485 C489 1.429 1_565 S
C486 C469 1.574 . S
C486 H480 0.949 . S
C486 C490 1.341 1_545 S
C487 C468 1.429 . S
C487 C481 1.429 1_665 S
C487 C488 1.523 . S
C488 C469 1.368 1_565 S
C488 C482 1.368 . S
C488 C487 1.523 . S
C489 C473 1.429 . S
C489 C485 1.429 1_545 S
C489 C490 1.512 1_545 S
C490 C474 1.405 . S
C490 C486 1.341 1_565 S
C490 C489 1.512 1_565 S
H491 C466 0.950 . S
H492 C468 0.950 . S
H493 C469 0.949 . S
H494 C471 0.950 . S
H495 C473 0.950 . S
C496 C497 1.349 . S
C496 C498 1.327 . S
C496 H521 0.950 . S
C497 C496 1.349 . S
C497 C513 1.349 . S
C498 C496 1.327 . S
C498 C517 1.429 . S
C498 H522 0.950 . S
C499 C516 1.574 . S
C499 C518 1.368 . S
C499 H523 0.949 . S
H500 C504 0.949 . S
C501 C502 1.349 . S
C501 C503 1.327 . S
C501 H524 0.950 . S
C502 C501 1.349 . S
C502 C514 1.349 . S
C503 C501 1.327 . S
C503 C519 1.429 . S
C503 H525 0.950 . S
C504 H500 0.949 . S
C504 C512 1.574 . S
C504 C520 1.368 . S
H505 C513 0.950 . S
H506 C511 0.950 . S
H507 C512 0.949 . S
H508 C514 0.950 . S
H509 C515 0.950 . S
H510 C516 0.949 . S
C511 H506 0.950 . S
C511 C513 1.327 . S
C511 C517 1.429 . S
C512 C504 1.574 . S
C512 H507 0.949 . S
C512 C518 1.368 . S
C513 C497 1.349 . S
C513 H505 0.950 . S
C513 C511 1.327 . S
C514 C502 1.349 . S
C514 H508 0.950 . S
C514 C515 1.327 . S
C515 H509 0.950 . S
C515 C514 1.327 . S
C515 C519 1.429 . S
C516 C499 1.574 . S
C516 H510 0.949 . S
C516 C520 1.368 . S
C517 C498 1.429 . S
C517 C511 1.429 . S
C517 C518 1.523 . S
C518 C499 1.368 . S
C518 C512 1.368 . S
C518 C517 1.523 . S
C519 C503 1.429 . S
C519 C515 1.429 . S
C519 C520 1.523 . S
C520 C504 1.368 . S
C520 C516 1.368 . S
C520 C519 1.523 . S
H521 C496 0.950 . S
H522 C498 0.950 . S
H523 C499 0.949 . S
H524 C501 0.950 . S
H525 C503 0.950 . S
C526 C527 1.349 . S
C526 C528 1.327 . S
C526 H551 0.950 . S
C527 C526 1.349 . S
C527 C543 1.349 . S
C528 C526 1.327 . S
C528 C547 1.429 . S
C528 H552 0.950 . S
C529 C546 1.574 . S
C529 C548 1.368 . S
C529 H553 0.949 . S
H530 C534 0.949 . S
C531 C532 1.349 . S
C531 C533 1.327 . S
C531 H554 0.950 . S
C532 C531 1.349 . S
C532 C544 1.349 . S
C533 C531 1.327 . S
C533 C549 1.429 . S
C533 H555 0.950 . S
C534 H530 0.949 . S
C534 C542 1.574 . S
C534 C550 1.368 . S
H535 C543 0.950 . S
H536 C541 0.950 . S
H537 C542 0.949 . S
H538 C544 0.950 . S
H539 C545 0.950 . S
H540 C546 0.949 . S
C541 H536 0.950 . S
C541 C543 1.327 . S
C541 C547 1.429 . S
C542 C534 1.574 . S
C542 H537 0.949 . S
C542 C548 1.368 . S
C543 C527 1.349 . S
C543 H535 0.950 . S
C543 C541 1.327 . S
C544 C532 1.349 . S
C544 H538 0.950 . S
C544 C545 1.327 . S
C545 H539 0.950 . S
C545 C544 1.327 . S
C545 C549 1.429 . S
C546 C529 1.574 . S
C546 H540 0.949 . S
C546 C550 1.368 . S
C547 C528 1.429 . S
C547 C541 1.429 . S
C547 C548 1.523 . S
C548 C529 1.368 . S
C548 C542 1.368 . S
C548 C547 1.523 . S
C549 C533 1.429 . S
C549 C545 1.429 . S
C549 C550 1.523 . S
C550 C534 1.368 . S
C550 C546 1.368 . S
C550 C549 1.523 . S
H551 C526 0.950 . S
H552 C528 0.950 . S
H553 C529 0.949 . S
H554 C531 0.950 . S
H555 C533 0.950 . S
C556 C557 1.349 . S
C556 C558 1.327 . S
C556 H581 0.950 . S
C557 C556 1.349 . S
C557 C573 1.349 . S
C558 C556 1.327 . S
C558 C577 1.429 . S
C558 H582 0.950 . S
C559 C576 1.574 . S
C559 C578 1.368 . S
C559 H583 0.949 . S
H560 C564 0.949 . S
C561 C562 1.349 . S
C561 C563 1.327 . S
C561 H584 0.950 . S
C562 C561 1.349 . S
C562 C574 1.349 . S
C563 C561 1.327 . S
C563 C579 1.429 . S
C563 H585 0.950 . S
C564 H560 0.949 . S
C564 C572 1.574 . S
C564 C580 1.368 . S
H565 C573 0.950 . S
H566 C571 0.950 . S
H567 C572 0.949 . S
H568 C574 0.950 . S
H569 C575 0.950 . S
H570 C576 0.949 . S
C571 H566 0.950 . S
C571 C573 1.327 . S
C571 C577 1.429 . S
C572 C564 1.574 . S
C572 H567 0.949 . S
C572 C578 1.368 . S
C573 C557 1.349 . S
C573 H565 0.950 . S
C573 C571 1.327 . S
C574 C562 1.349 . S
C574 H568 0.950 . S
C574 C575 1.327 . S
C575 H569 0.950 . S
C575 C574 1.327 . S
C575 C579 1.429 . S
C576 C559 1.574 . S
C576 H570 0.949 . S
C576 C580 1.368 . S
C577 C558 1.429 . S
C577 C571 1.429 . S
C577 C578 1.523 . S
C578 C559 1.368 . S
C578 C572 1.368 . S
C578 C577 1.523 . S
C579 C563 1.429 . S
C579 C575 1.429 . S
C579 C580 1.523 . S
C580 C564 1.368 . S
C580 C576 1.368 . S
C580 C579 1.523 . S
H581 C556 0.950 . S
H582 C558 0.950 . S
H583 C559 0.949 . S
H584 C561 0.950 . S
H585 C563 0.950 . S
C586 C587 1.349 . S
C586 C588 1.327 . S
C586 H611 0.950 . S
C587 C586 1.349 . S
C587 C603 1.349 . S
C588 C586 1.327 . S
C588 C607 1.429 . S
C588 H612 0.950 1_565 S
C589 C606 1.574 . S
C589 C608 1.368 . S
C589 H613 0.949 . S
H590 C594 0.949 . S
C591 C592 1.349 . S
C591 C593 1.327 . S
C591 H614 0.950 . S
C592 C591 1.349 . S
C592 C604 1.349 1_565 S
C593 C591 1.327 . S
C593 C609 1.429 . S
C593 H615 0.950 . S
C594 H590 0.949 . S
C594 C602 1.574 1_545 S
C594 C610 1.368 1_545 S
H595 C603 0.950 . S
H596 C601 0.950 . S
H597 C602 0.949 1_545 S
H598 C604 0.950 . S
H599 C605 0.950 . S
H600 C606 0.949 . S
C601 H596 0.950 . S
C601 C603 1.327 . S
C601 C607 1.429 . S
C602 C594 1.574 1_565 S
C602 H597 0.949 1_565 S
C602 C608 1.368 . S
C603 C587 1.349 . S
C603 H595 0.950 . S
C603 C601 1.327 . S
C604 C592 1.349 1_545 S
C604 H598 0.950 . S
C604 C605 1.327 . S
C605 H599 0.950 . S
C605 C604 1.327 . S
C605 C609 1.429 1_545 S
C606 C589 1.574 . S
C606 H600 0.949 . S
C606 C610 1.368 . S
C607 C588 1.429 . S
C607 C601 1.429 . S
C607 C608 1.523 . S
C608 C589 1.368 . S
C608 C602 1.368 . S
C608 C607 1.523 . S
C609 C593 1.429 . S
C609 C605 1.429 1_565 S
C609 C610 1.523 . S
C610 C594 1.368 1_565 S
C610 C606 1.368 . S
C610 C609 1.523 . S
H611 C586 0.950 . S
H612 C588 0.950 1_545 S
H613 C589 0.949 . S
H614 C591 0.950 . S
H615 C593 0.950 . S
C616 C617 1.349 . S
C616 C618 1.327 . S
C616 H641 0.950 . S
C617 C616 1.349 . S
C617 C633 1.349 . S
C618 C616 1.327 . S
C618 C637 1.429 . S
C618 H642 0.950 . S
C619 C636 1.574 . S
C619 C638 1.368 . S
C619 H643 0.949 . S
H620 C624 0.949 . S
C621 C622 1.349 . S
C621 C623 1.327 . S
C621 H644 0.950 . S
C622 C621 1.349 . S
C622 C634 1.349 . S
C623 C621 1.327 . S
C623 C639 1.429 . S
C623 H645 0.950 . S
C624 H620 0.949 . S
C624 C632 1.574 . S
C624 C640 1.368 . S
H625 C633 0.950 . S
H626 C631 0.950 . S
H627 C632 0.949 . S
H628 C634 0.950 . S
H629 C635 0.950 . S
H630 C636 0.949 . S
C631 H626 0.950 . S
C631 C633 1.327 . S
C631 C637 1.429 . S
C632 C624 1.574 . S
C632 H627 0.949 . S
C632 C638 1.368 . S
C633 C617 1.349 . S
C633 H625 0.950 . S
C633 C631 1.327 . S
C634 C622 1.349 . S
C634 H628 0.950 . S
C634 C635 1.327 . S
C635 H629 0.950 . S
C635 C634 1.327 . S
C635 C639 1.429 . S
C636 C619 1.574 . S
C636 H630 0.949 . S
C636 C640 1.368 . S
C637 C618 1.429 . S
C637 C631 1.429 . S
C637 C638 1.523 . S
C638 C619 1.368 . S
C638 C632 1.368 . S
C638 C637 1.523 . S
C639 C623 1.429 . S
C639 C635 1.429 . S
C639 C640 1.523 . S
C640 C624 1.368 . S
C640 C636 1.368 . S
C640 C639 1.523 . S
H641 C616 0.950 . S
H642 C618 0.950 . S
H643 C619 0.949 . S
H644 C621 0.950 . S
H645 C623 0.950 . S
C646 C647 1.349 . S
C646 C648 1.327 . S
C646 H671 0.950 . S
C647 C646 1.349 . S
C647 C663 1.349 . S
C648 C646 1.327 . S
C648 C667 1.429 . S
C648 H672 0.950 . S
C649 C666 1.574 . S
C649 C668 1.368 . S
C649 H673 0.949 . S
H650 C654 0.949 . S
C651 C652 1.349 . S
C651 C653 1.327 . S
C651 H674 0.950 . S
C652 C651 1.349 . S
C652 C664 1.349 . S
C653 C651 1.327 . S
C653 C669 1.429 . S
C653 H675 0.950 . S
C654 H650 0.949 . S
C654 C662 1.574 . S
C654 C670 1.368 . S
H655 C663 0.950 . S
H656 C661 0.950 . S
H657 C662 0.949 . S
H658 C664 0.950 . S
H659 C665 0.950 . S
H660 C666 0.949 . S
C661 H656 0.950 . S
C661 C663 1.327 . S
C661 C667 1.429 . S
C662 C654 1.574 . S
C662 H657 0.949 . S
C662 C668 1.368 . S
C663 C647 1.349 . S
C663 H655 0.950 . S
C663 C661 1.327 . S
C664 C652 1.349 . S
C664 H658 0.950 . S
C664 C665 1.327 . S
C665 H659 0.950 . S
C665 C664 1.327 . S
C665 C669 1.429 . S
C666 C649 1.574 . S
C666 H660 0.949 . S
C666 C670 1.368 . S
C667 C648 1.429 . S
C667 C661 1.429 . S
C667 C668 1.523 . S
C668 C649 1.368 . S
C668 C662 1.368 . S
C668 C667 1.523 . S
C669 C653 1.429 . S
C669 C665 1.429 . S
C669 C670 1.523 . S
C670 C654 1.368 . S
C670 C666 1.368 . S
C670 C669 1.523 . S
H671 C646 0.950 . S
H672 C648 0.950 . S
H673 C649 0.949 . S
H674 C651 0.950 . S
H675 C653 0.950 . S
C676 C677 1.349 . S
C676 C678 1.327 . S
C676 H701 0.950 . S
C677 C676 1.349 . S
C677 C693 1.349 . S
C678 C676 1.327 . S
C678 C697 1.429 . S
C678 H702 0.950 . S
C679 C696 1.574 . S
C679 C698 1.368 . S
C679 H703 0.949 . S
H680 C684 0.949 . S
C681 C682 1.349 . S
C681 C683 1.327 . S
C681 H704 0.950 . S
C682 C681 1.349 . S
C682 C694 1.349 . S
C683 C681 1.327 . S
C683 C699 1.429 . S
C683 H705 0.950 . S
C684 H680 0.949 . S
C684 C692 1.574 . S
C684 C700 1.368 . S
H685 C693 0.950 . S
H686 C691 0.950 . S
H687 C692 0.949 . S
H688 C694 0.950 . S
H689 C695 0.950 . S
H690 C696 0.949 . S
C691 H686 0.950 . S
C691 C693 1.327 . S
C691 C697 1.429 . S
C692 C684 1.574 . S
C692 H687 0.949 . S
C692 C698 1.368 . S
C693 C677 1.349 . S
C693 H685 0.950 . S
C693 C691 1.327 . S
C694 C682 1.349 . S
C694 H688 0.950 . S
C694 C695 1.327 . S
C695 H689 0.950 . S
C695 C694 1.327 . S
C695 C699 1.429 . S
C696 C679 1.574 . S
C696 H690 0.949 . S
C696 C700 1.368 . S
C697 C678 1.429 . S
C697 C691 1.429 . S
C697 C698 1.523 . S
C698 C679 1.368 . S
C698 C692 1.368 . S
C698 C697 1.523 . S
C699 C683 1.429 . S
C699 C695 1.429 . S
C699 C700 1.523 . S
C700 C684 1.368 . S
C700 C696 1.368 . S
C700 C699 1.523 . S
H701 C676 0.950 . S
H702 C678 0.950 . S
H703 C679 0.949 . S
H704 C681 0.950 . S
H705 C683 0.950 . S
C706 C707 1.349 . S
C706 C708 1.327 . S
C706 H731 0.950 . S
C707 C706 1.349 . S
C707 C723 1.349 . S
C708 C706 1.327 . S
C708 C727 1.429 . S
C708 H732 0.950 . S
C709 C726 1.574 . S
C709 C728 1.368 . S
C709 H733 0.949 . S
H710 C714 0.949 . S
C711 C712 1.349 . S
C711 C713 1.327 . S
C711 H734 0.950 . S
C712 C711 1.349 . S
C712 C724 1.349 . S
C713 C711 1.327 . S
C713 C729 1.429 . S
C713 H735 0.950 . S
C714 H710 0.949 . S
C714 C722 1.574 . S
C714 C730 1.368 . S
H715 C723 0.950 . S
H716 C721 0.950 . S
H717 C722 0.949 . S
H718 C724 0.950 . S
H719 C725 0.950 . S
H720 C726 0.949 . S
C721 H716 0.950 . S
C721 C723 1.327 . S
C721 C727 1.429 . S
C722 C714 1.574 . S
C722 H717 0.949 . S
C722 C728 1.368 . S
C723 C707 1.349 . S
C723 H715 0.950 . S
C723 C721 1.327 . S
C724 C712 1.349 . S
C724 H718 0.950 . S
C724 C725 1.327 . S
C725 H719 0.950 . S
C725 C724 1.327 . S
C725 C729 1.429 . S
C726 C709 1.574 . S
C726 H720 0.949 . S
C726 C730 1.368 . S
C727 C708 1.429 . S
C727 C721 1.429 . S
C727 C728 1.523 . S
C728 C709 1.368 . S
C728 C722 1.368 . S
C728 C727 1.523 . S
C729 C713 1.429 . S
C729 C725 1.429 . S
C729 C730 1.523 . S
C730 C714 1.368 . S
C730 C726 1.368 . S
C730 C729 1.523 . S
H731 C706 0.950 . S
H732 C708 0.950 . S
H733 C709 0.949 . S
H734 C711 0.950 . S
H735 C713 0.950 . S
C736 C737 1.349 . S
C736 C738 1.327 . S
C736 H761 0.950 . S
C737 C736 1.349 . S
C737 C753 1.349 . S
C738 C736 1.327 . S
C738 C757 1.429 . S
C738 H762 0.950 . S
C739 C756 1.574 . S
C739 C758 1.368 . S
C739 H763 0.949 . S
H740 C744 0.949 . S
C741 C742 1.349 . S
C741 C743 1.327 . S
C741 H764 0.950 . S
C742 C741 1.349 . S
C742 C754 1.349 . S
C743 C741 1.327 . S
C743 C759 1.429 . S
C743 H765 0.950 . S
C744 H740 0.949 . S
C744 C752 1.574 . S
C744 C760 1.368 . S
H745 C753 0.950 . S
H746 C751 0.950 . S
H747 C752 0.949 . S
H748 C754 0.950 . S
H749 C755 0.950 . S
H750 C756 0.949 . S
C751 H746 0.950 . S
C751 C753 1.327 . S
C751 C757 1.429 . S
C752 C744 1.574 . S
C752 H747 0.949 . S
C752 C758 1.368 . S
C753 C737 1.349 . S
C753 H745 0.950 . S
C753 C751 1.327 . S
C754 C742 1.349 . S
C754 H748 0.950 . S
C754 C755 1.327 . S
C755 H749 0.950 . S
C755 C754 1.327 . S
C755 C759 1.429 . S
C756 C739 1.574 . S
C756 H750 0.949 . S
C756 C760 1.368 . S
C757 C738 1.429 . S
C757 C751 1.429 . S
C757 C758 1.523 . S
C758 C739 1.368 . S
C758 C752 1.368 . S
C758 C757 1.523 . S
C759 C743 1.429 . S
C759 C755 1.429 . S
C759 C760 1.523 . S
C760 C744 1.368 . S
C760 C756 1.368 . S
C760 C759 1.523 . S
H761 C736 0.950 . S
H762 C738 0.950 . S
H763 C739 0.949 . S
H764 C741 0.950 . S
H765 C743 0.950 . S
C766 C767 1.349 . S
C766 C768 1.327 . S
C766 H791 0.950 . S
C767 C766 1.349 . S
C767 C783 1.349 . S
C768 C766 1.327 . S
C768 C787 1.429 . S
C768 H792 0.950 . S
C769 C786 1.574 . S
C769 C788 1.368 . S
C769 H793 0.949 . S
H770 C774 0.949 . S
C771 C772 1.349 . S
C771 C773 1.327 . S
C771 H794 0.950 . S
C772 C771 1.349 . S
C772 C784 1.349 . S
C773 C771 1.327 . S
C773 C789 1.429 . S
C773 H795 0.950 . S
C774 H770 0.949 . S
C774 C782 1.574 . S
C774 C790 1.368 . S
H775 C783 0.950 . S
H776 C781 0.950 . S
H777 C782 0.949 . S
H778 C784 0.950 . S
H779 C785 0.950 . S
H780 C786 0.949 . S
C781 H776 0.950 . S
C781 C783 1.327 . S
C781 C787 1.429 . S
C782 C774 1.574 . S
C782 H777 0.949 . S
C782 C788 1.368 . S
C783 C767 1.349 . S
C783 H775 0.950 . S
C783 C781 1.327 . S
C784 C772 1.349 . S
C784 H778 0.950 . S
C784 C785 1.327 . S
C785 H779 0.950 . S
C785 C784 1.327 . S
C785 C789 1.429 . S
C786 C769 1.574 . S
C786 H780 0.949 . S
C786 C790 1.368 . S
C787 C768 1.429 . S
C787 C781 1.429 . S
C787 C788 1.523 . S
C788 C769 1.368 . S
C788 C782 1.368 . S
C788 C787 1.523 . S
C789 C773 1.429 . S
C789 C785 1.429 . S
C789 C790 1.523 . S
C790 C774 1.368 . S
C790 C786 1.368 . S
C790 C789 1.523 . S
H791 C766 0.950 . S
H792 C768 0.950 . S
H793 C769 0.949 . S
H794 C771 0.950 . S
H795 C773 0.950 . S
C796 C797 1.349 . S
C796 C798 1.327 . S
C796 H821 0.950 . S
C797 C796 1.349 . S
C797 C813 1.349 . S
C798 C796 1.327 . S
C798 C817 1.429 . S
C798 H822 0.950 . S
C799 C816 1.574 . S
C799 C818 1.368 . S
C799 H823 0.949 . S
H800 C804 0.949 . S
C801 C802 1.349 . S
C801 C803 1.327 . S
C801 H824 0.950 . S
C802 C801 1.349 . S
C802 C814 1.349 . S
C803 C801 1.327 . S
C803 C819 1.429 . S
C803 H825 0.950 . S
C804 H800 0.949 . S
C804 C812 1.574 . S
C804 C820 1.368 . S
H805 C813 0.950 . S
H806 C811 0.950 . S
H807 C812 0.949 . S
H808 C814 0.950 . S
H809 C815 0.950 . S
H810 C816 0.949 . S
C811 H806 0.950 . S
C811 C813 1.327 . S
C811 C817 1.429 . S
C812 C804 1.574 . S
C812 H807 0.949 . S
C812 C818 1.368 . S
C813 C797 1.349 . S
C813 H805 0.950 . S
C813 C811 1.327 . S
C814 C802 1.349 . S
C814 H808 0.950 . S
C814 C815 1.327 . S
C815 H809 0.950 . S
C815 C814 1.327 . S
C815 C819 1.429 . S
C816 C799 1.574 . S
C816 H810 0.949 . S
C816 C820 1.368 . S
C817 C798 1.429 . S
C817 C811 1.429 . S
C817 C818 1.523 . S
C818 C799 1.368 . S
C818 C812 1.368 . S
C818 C817 1.523 . S
C819 C803 1.429 . S
C819 C815 1.429 . S
C819 C820 1.523 . S
C820 C804 1.368 . S
C820 C816 1.368 . S
C820 C819 1.523 . S
H821 C796 0.950 . S
H822 C798 0.950 . S
H823 C799 0.949 . S
H824 C801 0.950 . S
H825 C803 0.950 . S
C826 C827 1.349 . S
C826 C828 1.327 . S
C826 H851 0.950 . S
C827 C826 1.349 . S
C827 C843 1.349 . S
C828 C826 1.327 . S
C828 C847 1.429 . S
C828 H852 0.950 . S
C829 C846 1.574 . S
C829 C848 1.368 . S
C829 H853 0.949 . S
H830 C834 0.949 . S
C831 C832 1.349 . S
C831 C833 1.327 1_455 S
C831 H854 0.950 . S
C832 C831 1.349 . S
C832 C844 1.349 . S
C833 C831 1.327 1_655 S
C833 C849 1.429 . S
C833 H855 0.950 . S
C834 H830 0.949 . S
C834 C842 1.574 . S
C834 C850 1.368 . S
H835 C843 0.950 . S
H836 C841 0.950 . S
H837 C842 0.949 . S
H838 C844 0.950 . S
H839 C845 0.950 . S
H840 C846 0.949 . S
C841 H836 0.950 . S
C841 C843 1.327 . S
C841 C847 1.429 . S
C842 C834 1.574 . S
C842 H837 0.949 . S
C842 C848 1.368 . S
C843 C827 1.349 . S
C843 H835 0.950 . S
C843 C841 1.327 . S
C844 C832 1.349 . S
C844 H838 0.950 . S
C844 C845 1.327 1_455 S
C845 H839 0.950 . S
C845 C844 1.327 1_655 S
C845 C849 1.429 . S
C846 C829 1.574 . S
C846 H840 0.949 . S
C846 C850 1.368 . S
C847 C828 1.429 . S
C847 C841 1.429 . S
C847 C848 1.523 . S
C848 C829 1.368 . S
C848 C842 1.368 . S
C848 C847 1.523 . S
C849 C833 1.429 . S
C849 C845 1.429 . S
C849 C850 1.523 . S
C850 C834 1.368 . S
C850 C846 1.368 . S
C850 C849 1.523 . S
H851 C826 0.950 . S
H852 C828 0.950 . S
H853 C829 0.949 . S
H854 C831 0.950 . S
H855 C833 0.950 . S
C856 C857 1.349 . S
C856 C858 1.327 . S
C856 H881 0.950 . S
C857 C856 1.349 . S
C857 C873 1.349 . S
C858 C856 1.327 . S
C858 C877 1.429 . S
C858 H882 0.950 . S
C859 C876 1.574 . S
C859 C878 1.368 . S
C859 H883 0.949 . S
H860 C864 0.949 . S
C861 C862 1.349 . S
C861 C863 1.327 . S
C861 H884 0.950 . S
C862 C861 1.349 . S
C862 C874 1.349 . S
C863 C861 1.327 . S
C863 C879 1.429 . S
C863 H885 0.950 . S
C864 H860 0.949 . S
C864 C872 1.574 . S
C864 C880 1.368 . S
H865 C873 0.950 . S
H866 C871 0.950 . S
H867 C872 0.949 . S
H868 C874 0.950 . S
H869 C875 0.950 . S
H870 C876 0.949 . S
C871 H866 0.950 . S
C871 C873 1.327 . S
C871 C877 1.429 . S
C872 C864 1.574 . S
C872 H867 0.949 . S
C872 C878 1.368 . S
C873 C857 1.349 . S
C873 H865 0.950 . S
C873 C871 1.327 . S
C874 C862 1.349 . S
C874 H868 0.950 . S
C874 C875 1.327 . S
C875 H869 0.950 . S
C875 C874 1.327 . S
C875 C879 1.429 . S
C876 C859 1.574 . S
C876 H870 0.949 . S
C876 C880 1.368 . S
C877 C858 1.429 . S
C877 C871 1.429 . S
C877 C878 1.523 . S
C878 C859 1.368 . S
C878 C872 1.368 . S
C878 C877 1.523 . S
C879 C863 1.429 . S
C879 C875 1.429 . S
C879 C880 1.523 . S
C880 C864 1.368 . S
C880 C876 1.368 . S
C880 C879 1.523 . S
H881 C856 0.950 . S
H882 C858 0.950 . S
H883 C859 0.949 . S
H884 C861 0.950 . S
H885 C863 0.950 . S
C886 C887 1.349 . S
C886 C888 1.327 . S
C886 H911 0.950 . S
C887 C886 1.349 . S
C887 C903 1.349 . S
C888 C886 1.327 . S
C888 C907 1.429 . S
C888 H912 0.950 . S
C889 C906 1.574 . S
C889 C908 1.368 . S
C889 H913 0.949 . S
H890 C894 0.949 . S
C891 C892 1.349 . S
C891 C893 1.327 . S
C891 H914 0.950 . S
C892 C891 1.349 . S
C892 C904 1.349 . S
C893 C891 1.327 . S
C893 C909 1.429 . S
C893 H915 0.950 . S
C894 H890 0.949 . S
C894 C902 1.574 . S
C894 C910 1.368 . S
H895 C903 0.950 . S
H896 C901 0.950 . S
H897 C902 0.949 . S
H898 C904 0.950 . S
H899 C905 0.950 . S
H900 C906 0.949 . S
C901 H896 0.950 . S
C901 C903 1.327 . S
C901 C907 1.429 . S
C902 C894 1.574 . S
C902 H897 0.949 . S
C902 C908 1.368 . S
C903 C887 1.349 . S
C903 H895 0.950 . S
C903 C901 1.327 . S
C904 C892 1.349 . S
C904 H898 0.950 . S
C904 C905 1.327 . S
C905 H899 0.950 . S
C905 C904 1.327 . S
C905 C909 1.429 . S
C906 C889 1.574 . S
C906 H900 0.949 . S
C906 C910 1.368 . S
C907 C888 1.429 . S
C907 C901 1.429 . S
C907 C908 1.523 . S
C908 C889 1.368 . S
C908 C902 1.368 . S
C908 C907 1.523 . S
C909 C893 1.429 . S
C909 C905 1.429 . S
C909 C910 1.523 . S
C910 C894 1.368 . S
C910 C906 1.368 . S
C910 C909 1.523 . S
H911 C886 0.950 . S
H912 C888 0.950 . S
H913 C889 0.949 . S
H914 C891 0.950 . S
H915 C893 0.950 . S
C916 C917 1.349 . S
C916 C918 1.327 . S
C916 H941 0.950 . S
C917 C916 1.349 . S
C917 C933 1.349 1_545 S
C918 C916 1.327 . S
C918 C937 1.429 1_545 S
C918 H942 0.950 . S
C919 C936 1.574 . S
C919 C938 1.368 . S
C919 H943 0.949 . S
H920 C924 0.949 . S
C921 C922 1.349 . S
C921 C923 1.327 1_554 S
C921 H944 0.950 1_554 S
C922 C921 1.349 . S
C922 C934 1.349 . S
C923 C921 1.327 1_556 S
C923 C939 1.429 1_556 S
C923 H945 0.950 . S
C924 H920 0.949 . S
C924 C932 1.569 1_554 S
C924 C940 1.368 1_554 S
H925 C933 0.950 . S
H926 C931 0.950 . S
H927 C932 0.948 1_554 S
H928 C934 0.950 . S
H929 C935 0.950 . S
H930 C936 0.949 . S
C931 H926 0.950 . S
C931 C933 1.327 . S
C931 C937 1.429 . S
C932 C924 1.569 1_556 S
C932 H927 0.948 1_556 S
C932 C938 1.375 . S
C933 C917 1.349 1_565 S
C933 H925 0.950 . S
C933 C931 1.327 . S
C934 C922 1.349 . S
C934 H928 0.950 . S
C934 C935 1.327 . S
C935 H929 0.950 . S
C935 C934 1.327 . S
C935 C939 1.429 . S
C936 C919 1.574 . S
C936 H930 0.949 . S
C936 C940 1.368 . S
C937 C918 1.429 1_565 S
C937 C931 1.429 . S
C937 C938 1.523 . S
C938 C919 1.368 . S
C938 C932 1.375 . S
C938 C937 1.523 . S
C939 C923 1.429 1_554 S
C939 C935 1.429 . S
C939 C940 1.523 1_554 S
C940 C924 1.368 1_556 S
C940 C936 1.368 . S
C940 C939 1.523 1_556 S
H941 C916 0.950 . S
H942 C918 0.950 . S
H943 C919 0.949 . S
H944 C921 0.950 1_556 S
H945 C923 0.950 . S
C946 C947 1.349 . S
C946 C948 1.327 . S
C946 H971 0.950 . S
C947 C946 1.349 . S
C947 C963 1.349 . S
C948 C946 1.327 . S
C948 C967 1.429 . S
C948 H972 0.950 . S
C949 C966 1.574 . S
C949 C968 1.368 . S
C949 H973 0.949 . S
H950 C954 0.949 . S
C951 C952 1.349 . S
C951 C953 1.327 . S
C951 H974 0.950 . S
C952 C951 1.349 . S
C952 C964 1.349 . S
C953 C951 1.327 . S
C953 C969 1.429 . S
C953 H975 0.950 . S
C954 H950 0.949 . S
C954 C962 1.574 . S
C954 C970 1.368 . S
H955 C963 0.950 . S
H956 C961 0.950 . S
H957 C962 0.949 . S
H958 C964 0.950 . S
H959 C965 0.950 . S
H960 C966 0.949 . S
C961 H956 0.950 . S
C961 C963 1.327 . S
C961 C967 1.429 . S
C962 C954 1.574 . S
C962 H957 0.949 . S
C962 C968 1.368 . S
C963 C947 1.349 . S
C963 H955 0.950 . S
C963 C961 1.327 . S
C964 C952 1.349 . S
C964 H958 0.950 . S
C964 C965 1.327 . S
C965 H959 0.950 . S
C965 C964 1.327 . S
C965 C969 1.429 . S
C966 C949 1.574 . S
C966 H960 0.949 . S
C966 C970 1.368 . S
C967 C948 1.429 . S
C967 C961 1.429 . S
C967 C968 1.523 . S
C968 C949 1.368 . S
C968 C962 1.368 . S
C968 C967 1.523 . S
C969 C953 1.429 . S
C969 C965 1.429 . S
C969 C970 1.523 . S
C970 C954 1.368 . S
C970 C966 1.368 . S
C970 C969 1.523 . S
H971 C946 0.950 . S
H972 C948 0.950 . S
H973 C949 0.949 . S
H974 C951 0.950 . S
H975 C953 0.950 . S
C976 C977 1.349 . S
C976 C978 1.327 . S
C976 H1001 0.950 . S
C977 C976 1.349 . S
C977 C993 1.335 1_545 S
C978 C976 1.327 . S
C978 C997 1.429 . S
C978 H1002 0.950 . S
C979 C996 1.574 . S
C979 C998 1.368 . S
C979 H1003 0.949 . S
H980 C984 0.949 . S
C981 C982 1.349 . S
C981 C983 1.327 . S
C981 H1004 0.950 . S
C982 C981 1.349 . S
C982 C994 1.349 . S
C983 C981 1.327 . S
C983 C999 1.429 . S
C983 H1005 0.950 . S
C984 H980 0.949 . S
C984 C992 1.574 . S
C984 C1000 1.368 . S
H985 C993 0.990 . S
H986 C991 0.950 . S
H987 C992 0.949 . S
H988 C994 0.950 . S
H989 C995 0.950 . S
H990 C996 0.949 . S
C991 H986 0.950 . S
C991 C993 1.304 1_545 S
C991 C997 1.429 . S
C992 C984 1.574 . S
C992 H987 0.949 . S
C992 C998 1.368 . S
C993 C977 1.335 1_565 S
C993 H985 0.990 . S
C993 C991 1.304 1_565 S
C994 C982 1.349 . S
C994 H988 0.950 . S
C994 C995 1.327 . S
C995 H989 0.950 . S
C995 C994 1.327 . S
C995 C999 1.429 . S
C996 C979 1.574 . S
C996 H990 0.949 . S
C996 C1000 1.368 . S
C997 C978 1.429 . S
C997 C991 1.429 . S
C997 C998 1.523 . S
C998 C979 1.368 . S
C998 C992 1.368 . S
C998 C997 1.523 . S
C999 C983 1.429 . S
C999 C995 1.429 . S
C999 C1000 1.523 . S
C1000 C984 1.368 . S
C1000 C996 1.368 . S
C1000 C999 1.523 . S
H1001 C976 0.950 . S
H1002 C978 0.950 . S
H1003 C979 0.949 . S
H1004 C981 0.950 . S
H1005 C983 0.950 . S
C1006 C1007 1.349 . S
C1006 C1008 1.327 . S
C1006 H1031 0.950 . S
C1007 C1006 1.349 . S
C1007 C1023 1.349 . S
C1008 C1006 1.327 . S
C1008 C1027 1.429 . S
C1008 H1032 0.950 . S
C1009 C1026 1.574 . S
C1009 C1028 1.368 . S
C1009 H1033 0.949 . S
H1010 C1014 0.949 . S
C1011 C1012 1.349 . S
C1011 C1013 1.327 . S
C1011 H1034 0.950 . S
C1012 C1011 1.349 . S
C1012 C1024 1.349 . S
C1013 C1011 1.327 . S
C1013 C1029 1.429 . S
C1013 H1035 0.950 . S
C1014 H1010 0.949 . S
C1014 C1022 1.574 . S
C1014 C1030 1.368 . S
H1015 C1023 0.950 . S
H1016 C1021 0.950 . S
H1017 C1022 0.949 . S
H1018 C1024 0.950 . S
H1019 C1025 0.950 . S
H1020 C1026 0.949 . S
C1021 H1016 0.950 . S
C1021 C1023 1.327 . S
C1021 C1027 1.429 . S
C1022 C1014 1.574 . S
C1022 H1017 0.949 . S
C1022 C1028 1.368 . S
C1023 C1007 1.349 . S
C1023 H1015 0.950 . S
C1023 C1021 1.327 . S
C1024 C1012 1.349 . S
C1024 H1018 0.950 . S
C1024 C1025 1.327 . S
C1025 H1019 0.950 . S
C1025 C1024 1.327 . S
C1025 C1029 1.429 . S
C1026 C1009 1.574 . S
C1026 H1020 0.949 . S
C1026 C1030 1.368 . S
C1027 C1008 1.429 . S
C1027 C1021 1.429 . S
C1027 C1028 1.523 . S
C1028 C1009 1.368 . S
C1028 C1022 1.368 . S
C1028 C1027 1.523 . S
C1029 C1013 1.429 . S
C1029 C1025 1.429 . S
C1029 C1030 1.523 . S
C1030 C1014 1.368 . S
C1030 C1026 1.368 . S
C1030 C1029 1.523 . S
H1031 C1006 0.950 . S
H1032 C1008 0.950 . S
H1033 C1009 0.949 . S
H1034 C1011 0.950 . S
H1035 C1013 0.950 . S
C1036 C1037 1.349 . S
C1036 C1038 1.327 . S
C1036 H1061 0.950 . S
C1037 C1036 1.349 . S
C1037 C1053 1.349 1_565 S
C1038 C1036 1.327 . S
C1038 C1057 1.429 1_565 S
C1038 H1062 0.950 . S
C1039 C1056 1.574 . S
C1039 C1058 1.368 . S
C1039 H1063 0.949 . S
H1040 C1044 0.949 . S
C1041 C1042 1.349 . S
C1041 C1043 1.327 . S
C1041 H1064 0.950 . S
C1042 C1041 1.349 . S
C1042 C1054 1.349 . S
C1043 C1041 1.327 . S
C1043 C1059 1.429 . S
C1043 H1065 0.950 . S
C1044 H1040 0.949 . S
C1044 C1052 1.574 . S
C1044 C1060 1.368 . S
H1045 C1053 0.950 . S
H1046 C1051 0.950 . S
H1047 C1052 0.949 . S
H1048 C1054 0.950 . S
H1049 C1055 0.950 . S
H1050 C1056 0.949 . S
C1051 H1046 0.950 . S
C1051 C1053 1.327 . S
C1051 C1057 1.429 . S
C1052 C1044 1.574 . S
C1052 H1047 0.949 . S
C1052 C1058 1.368 . S
C1053 C1037 1.349 1_545 S
C1053 H1045 0.950 . S
C1053 C1051 1.327 . S
C1054 C1042 1.349 . S
C1054 H1048 0.950 . S
C1054 C1055 1.327 . S
C1055 H1049 0.950 . S
C1055 C1054 1.327 . S
C1055 C1059 1.429 . S
C1056 C1039 1.574 . S
C1056 H1050 0.949 . S
C1056 C1060 1.368 . S
C1057 C1038 1.429 1_545 S
C1057 C1051 1.429 . S
C1057 C1058 1.523 . S
C1058 C1039 1.368 . S
C1058 C1052 1.368 . S
C1058 C1057 1.523 . S
C1059 C1043 1.429 . S
C1059 C1055 1.429 . S
C1059 C1060 1.523 . S
C1060 C1044 1.368 . S
C1060 C1056 1.368 . S
C1060 C1059 1.523 . S
H1061 C1036 0.950 . S
H1062 C1038 0.950 . S
H1063 C1039 0.949 . S
H1064 C1041 0.950 . S
H1065 C1043 0.950 . S
C1066 C1067 1.349 . S
C1066 C1068 1.327 . S
C1066 H1091 0.950 . S
C1067 C1066 1.349 . S
C1067 C1083 1.349 . S
C1068 C1066 1.327 . S
C1068 C1087 1.429 . S
C1068 H1092 0.950 . S
C1069 C1086 1.574 . S
C1069 C1088 1.368 . S
C1069 H1093 0.949 . S
H1070 C1074 0.949 . S
C1071 C1072 1.349 . S
C1071 C1073 1.327 . S
C1071 H1094 0.950 . S
C1072 C1071 1.349 . S
C1072 C1084 1.349 . S
C1073 C1071 1.327 . S
C1073 C1089 1.429 . S
C1073 H1095 0.950 . S
C1074 H1070 0.949 . S
C1074 C1082 1.574 . S
C1074 C1090 1.368 . S
H1075 C1083 0.950 . S
H1076 C1081 0.950 . S
H1077 C1082 0.949 . S
H1078 C1084 0.950 . S
H1079 C1085 0.950 . S
H1080 C1086 0.949 . S
C1081 H1076 0.950 . S
C1081 C1083 1.327 . S
C1081 C1087 1.429 . S
C1082 C1074 1.574 . S
C1082 H1077 0.949 . S
C1082 C1088 1.368 . S
C1083 C1067 1.349 . S
C1083 H1075 0.950 . S
C1083 C1081 1.327 . S
C1084 C1072 1.349 . S
C1084 H1078 0.950 . S
C1084 C1085 1.327 . S
C1085 H1079 0.950 . S
C1085 C1084 1.327 . S
C1085 C1089 1.429 . S
C1086 C1069 1.574 . S
C1086 H1080 0.949 . S
C1086 C1090 1.368 . S
C1087 C1068 1.429 . S
C1087 C1081 1.429 . S
C1087 C1088 1.523 . S
C1088 C1069 1.368 . S
C1088 C1082 1.368 . S
C1088 C1087 1.523 . S
C1089 C1073 1.429 . S
C1089 C1085 1.429 . S
C1089 C1090 1.523 . S
C1090 C1074 1.368 . S
C1090 C1086 1.368 . S
C1090 C1089 1.523 . S
H1091 C1066 0.950 . S
H1092 C1068 0.950 . S
H1093 C1069 0.949 . S
H1094 C1071 0.950 . S
H1095 C1073 0.950 . S
C1096 C1097 1.349 . S
C1096 C1098 1.327 . S
C1096 H1121 0.950 . S
C1097 C1096 1.349 . S
C1097 C1113 1.349 . S
C1098 C1096 1.327 . S
C1098 C1117 1.429 . S
C1098 H1122 0.950 . S
C1099 C1116 1.574 . S
C1099 C1118 1.368 . S
C1099 H1123 0.949 . S
H1100 C1104 0.949 . S
C1101 C1102 1.349 . S
C1101 C1103 1.327 . S
C1101 H1124 0.950 . S
C1102 C1101 1.349 . S
C1102 C1114 1.349 . S
C1103 C1101 1.327 . S
C1103 C1119 1.429 . S
C1103 H1125 0.950 . S
C1104 H1100 0.949 . S
C1104 C1112 1.574 . S
C1104 C1120 1.368 . S
H1105 C1113 0.950 . S
H1106 C1111 0.950 . S
H1107 C1112 0.949 . S
H1108 C1114 0.950 . S
H1109 C1115 0.950 . S
H1110 C1116 0.949 . S
C1111 H1106 0.950 . S
C1111 C1113 1.327 . S
C1111 C1117 1.429 . S
C1112 C1104 1.574 . S
C1112 H1107 0.949 . S
C1112 C1118 1.368 . S
C1113 C1097 1.349 . S
C1113 H1105 0.950 . S
C1113 C1111 1.327 . S
C1114 C1102 1.349 . S
C1114 H1108 0.950 . S
C1114 C1115 1.327 . S
C1115 H1109 0.950 . S
C1115 C1114 1.327 . S
C1115 C1119 1.429 . S
C1116 C1099 1.574 . S
C1116 H1110 0.949 . S
C1116 C1120 1.368 . S
C1117 C1098 1.429 . S
C1117 C1111 1.429 . S
C1117 C1118 1.523 . S
C1118 C1099 1.368 . S
C1118 C1112 1.368 . S
C1118 C1117 1.523 . S
C1119 C1103 1.429 . S
C1119 C1115 1.429 . S
C1119 C1120 1.523 . S
C1120 C1104 1.368 . S
C1120 C1116 1.368 . S
C1120 C1119 1.523 . S
H1121 C1096 0.950 . S
H1122 C1098 0.950 . S
H1123 C1099 0.949 . S
H1124 C1101 0.950 . S
H1125 C1103 0.950 . S
C1126 C1127 1.349 . S
C1126 C1128 1.327 . S
C1126 H1151 0.950 . S
C1127 C1126 1.349 . S
C1127 C1143 1.349 . S
C1128 C1126 1.327 . S
C1128 C1147 1.429 . S
C1128 H1152 0.950 . S
C1129 C1146 1.574 . S
C1129 C1148 1.368 . S
C1129 H1153 0.959 . S
H1130 C1134 0.949 . S
C1131 C1132 1.349 . S
C1131 C1133 1.327 . S
C1131 H1154 0.950 1_545 S
C1132 C1131 1.349 . S
C1132 C1144 1.349 . S
C1133 C1131 1.327 . S
C1133 C1149 1.429 . S
C1133 H1155 0.950 1_545 S
C1134 H1130 0.949 . S
C1134 C1142 1.574 . S
C1134 C1150 1.368 . S
H1135 C1143 0.950 . S
H1136 C1141 0.950 . S
H1137 C1142 0.949 . S
H1138 C1144 0.950 . S
H1139 C1145 0.950 . S
H1140 C1146 0.949 1_565 S
C1141 H1136 0.950 . S
C1141 C1143 1.327 . S
C1141 C1147 1.429 . S
C1142 C1134 1.574 . S
C1142 H1137 0.949 . S
C1142 C1148 1.368 . S
C1143 C1127 1.349 . S
C1143 H1135 0.950 . S
C1143 C1141 1.327 . S
C1144 C1132 1.349 . S
C1144 H1138 0.950 . S
C1144 C1145 1.327 . S
C1145 H1139 0.950 . S
C1145 C1144 1.327 . S
C1145 C1149 1.429 . S
C1146 C1129 1.574 . S
C1146 H1140 0.949 1_545 S
C1146 C1150 1.368 . S
C1147 C1128 1.429 . S
C1147 C1141 1.429 . S
C1147 C1148 1.523 . S
C1148 C1129 1.368 . S
C1148 C1142 1.368 . S
C1148 C1147 1.523 . S
C1149 C1133 1.429 . S
C1149 C1145 1.429 . S
C1149 C1150 1.523 . S
C1150 C1134 1.368 . S
C1150 C1146 1.368 . S
C1150 C1149 1.523 . S
H1151 C1126 0.950 . S
H1152 C1128 0.950 . S
H1153 C1129 0.959 . S
H1154 C1131 0.950 1_565 S
H1155 C1133 0.950 1_565 S
C1156 C1157 1.349 . S
C1156 C1158 1.327 . S
C1156 H1181 0.950 . S
C1157 C1156 1.349 . S
C1157 C1173 1.349 . S
C1158 C1156 1.327 . S
C1158 C1177 1.429 . S
C1158 H1182 0.950 . S
C1159 C1176 1.574 . S
C1159 C1178 1.368 . S
C1159 H1183 0.949 . S
H1160 C1164 0.949 . S
C1161 C1162 1.349 . S
C1161 C1163 1.327 . S
C1161 H1184 0.950 . S
C1162 C1161 1.349 . S
C1162 C1174 1.349 . S
C1163 C1161 1.327 . S
C1163 C1179 1.429 . S
C1163 H1185 0.950 . S
C1164 H1160 0.949 . S
C1164 C1172 1.574 . S
C1164 C1180 1.368 . S
H1165 C1173 0.950 . S
H1166 C1171 0.950 . S
H1167 C1172 0.949 . S
H1168 C1174 0.950 . S
H1169 C1175 0.950 . S
H1170 C1176 0.949 . S
C1171 H1166 0.950 . S
C1171 C1173 1.327 . S
C1171 C1177 1.429 . S
C1172 C1164 1.574 . S
C1172 H1167 0.949 . S
C1172 C1178 1.368 . S
C1173 C1157 1.349 . S
C1173 H1165 0.950 . S
C1173 C1171 1.327 . S
C1174 C1162 1.349 . S
C1174 H1168 0.950 . S
C1174 C1175 1.327 . S
C1175 H1169 0.950 . S
C1175 C1174 1.327 . S
C1175 C1179 1.429 . S
C1176 C1159 1.574 . S
C1176 H1170 0.949 . S
C1176 C1180 1.368 . S
C1177 C1158 1.429 . S
C1177 C1171 1.429 . S
C1177 C1178 1.523 . S
C1178 C1159 1.368 . S
C1178 C1172 1.368 . S
C1178 C1177 1.523 . S
C1179 C1163 1.429 . S
C1179 C1175 1.429 . S
C1179 C1180 1.523 . S
C1180 C1164 1.368 . S
C1180 C1176 1.368 . S
C1180 C1179 1.523 . S
H1181 C1156 0.950 . S
H1182 C1158 0.950 . S
H1183 C1159 0.949 . S
H1184 C1161 0.950 . S
H1185 C1163 0.950 . S
C1186 C1187 1.349 . S
C1186 C1188 1.327 . S
C1186 H1211 0.950 . S
C1187 C1186 1.349 . S
C1187 C1203 1.349 . S
C1188 C1186 1.327 . S
C1188 C1207 1.429 . S
C1188 H1212 0.950 . S
C1189 C1206 1.574 . S
C1189 C1208 1.368 . S
C1189 H1213 0.949 . S
H1190 C1194 0.949 . S
C1191 C1192 1.349 . S
C1191 C1193 1.327 . S
C1191 H1214 0.950 . S
C1192 C1191 1.349 . S
C1192 C1204 1.349 . S
C1193 C1191 1.327 . S
C1193 C1209 1.429 . S
C1193 H1215 0.950 . S
C1194 H1190 0.949 . S
C1194 C1202 1.574 . S
C1194 C1210 1.368 . S
H1195 C1203 0.950 . S
H1196 C1201 0.950 . S
H1197 C1202 0.949 . S
H1198 C1204 0.950 . S
H1199 C1205 0.950 . S
H1200 C1206 0.949 . S
C1201 H1196 0.950 . S
C1201 C1203 1.327 . S
C1201 C1207 1.429 . S
C1202 C1194 1.574 . S
C1202 H1197 0.949 . S
C1202 C1208 1.368 . S
C1203 C1187 1.349 . S
C1203 H1195 0.950 . S
C1203 C1201 1.327 . S
C1204 C1192 1.349 . S
C1204 H1198 0.950 . S
C1204 C1205 1.327 . S
C1205 H1199 0.950 . S
C1205 C1204 1.327 . S
C1205 C1209 1.429 . S
C1206 C1189 1.574 . S
C1206 H1200 0.949 . S
C1206 C1210 1.368 . S
C1207 C1188 1.429 . S
C1207 C1201 1.429 . S
C1207 C1208 1.523 . S
C1208 C1189 1.368 . S
C1208 C1202 1.368 . S
C1208 C1207 1.523 . S
C1209 C1193 1.429 . S
C1209 C1205 1.429 . S
C1209 C1210 1.523 . S
C1210 C1194 1.368 . S
C1210 C1206 1.368 . S
C1210 C1209 1.523 . S
H1211 C1186 0.950 . S
H1212 C1188 0.950 . S
H1213 C1189 0.949 . S
H1214 C1191 0.950 . S
H1215 C1193 0.950 . S
C1216 C1217 1.349 . S
C1216 C1218 1.327 . S
C1216 H1241 0.950 . S
C1217 C1216 1.349 . S
C1217 C1233 1.349 . S
C1218 C1216 1.327 . S
C1218 C1237 1.429 . S
C1218 H1242 0.950 . S
C1219 C1236 1.574 . S
C1219 C1238 1.368 . S
C1219 H1243 0.949 . S
H1220 C1224 0.949 . S
C1221 C1222 1.349 . S
C1221 C1223 1.327 . S
C1221 H1244 0.950 . S
C1222 C1221 1.349 . S
C1222 C1234 1.349 . S
C1223 C1221 1.327 . S
C1223 C1239 1.429 . S
C1223 H1245 0.950 . S
C1224 H1220 0.949 . S
C1224 C1232 1.574 . S
C1224 C1240 1.368 . S
H1225 C1233 0.950 . S
H1226 C1231 0.950 . S
H1227 C1232 0.949 . S
H1228 C1234 0.950 . S
H1229 C1235 0.950 . S
H1230 C1236 0.949 . S
C1231 H1226 0.950 . S
C1231 C1233 1.327 . S
C1231 C1237 1.429 . S
C1232 C1224 1.574 . S
C1232 H1227 0.949 . S
C1232 C1238 1.368 . S
C1233 C1217 1.349 . S
C1233 H1225 0.950 . S
C1233 C1231 1.327 . S
C1234 C1222 1.349 . S
C1234 H1228 0.950 . S
C1234 C1235 1.327 . S
C1235 H1229 0.950 . S
C1235 C1234 1.327 . S
C1235 C1239 1.429 . S
C1236 C1219 1.574 . S
C1236 H1230 0.949 . S
C1236 C1240 1.368 . S
C1237 C1218 1.429 . S
C1237 C1231 1.429 . S
C1237 C1238 1.523 . S
C1238 C1219 1.368 . S
C1238 C1232 1.368 . S
C1238 C1237 1.523 . S
C1239 C1223 1.429 . S
C1239 C1235 1.429 . S
C1239 C1240 1.523 . S
C1240 C1224 1.368 . S
C1240 C1236 1.368 . S
C1240 C1239 1.523 . S
H1241 C1216 0.950 . S
H1242 C1218 0.950 . S
H1243 C1219 0.949 . S
H1244 C1221 0.950 . S
H1245 C1223 0.950 . S
C1246 C1247 1.349 1_565 S
C1246 C1248 1.327 . S
C1246 H1271 0.950 . S
C1247 C1246 1.349 1_545 S
C1247 C1263 1.349 . S
C1248 C1246 1.327 . S
C1248 C1267 1.429 1_565 S
C1248 H1272 0.950 . S
C1249 C1266 1.574 . S
C1249 C1268 1.368 . S
C1249 H1273 0.949 . S
H1250 C1254 0.949 . S
C1251 C1252 1.349 . S
C1251 C1253 1.327 . S
C1251 H1274 0.950 . S
C1252 C1251 1.349 . S
C1252 C1264 1.349 1_545 S
C1253 C1251 1.327 . S
C1253 C1269 1.429 . S
C1253 H1275 0.950 . S
C1254 H1250 0.949 . S
C1254 C1262 1.574 . S
C1254 C1270 1.368 1_565 S
H1255 C1263 0.950 . S
H1256 C1261 0.950 . S
H1257 C1262 0.949 . S
H1258 C1264 0.950 . S
H1259 C1265 0.950 . S
H1260 C1266 0.949 . S
C1261 H1256 0.950 . S
C1261 C1263 1.327 . S
C1261 C1267 1.429 . S
C1262 C1254 1.574 . S
C1262 H1257 0.949 . S
C1262 C1268 1.368 1_565 S
C1263 C1247 1.349 . S
C1263 H1255 0.950 . S
C1263 C1261 1.327 . S
C1264 C1252 1.349 1_565 S
C1264 H1258 0.950 . S
C1264 C1265 1.327 . S
C1265 H1259 0.950 . S
C1265 C1264 1.327 . S
C1265 C1269 1.429 1_565 S
C1266 C1249 1.574 . S
C1266 H1260 0.949 . S
C1266 C1270 1.368 . S
C1267 C1248 1.429 1_545 S
C1267 C1261 1.429 . S
C1267 C1268 1.523 . S
C1268 C1249 1.368 . S
C1268 C1262 1.368 1_545 S
C1268 C1267 1.523 . S
C1269 C1253 1.429 . S
C1269 C1265 1.429 1_545 S
C1269 C1270 1.523 . S
C1270 C1254 1.368 1_545 S
C1270 C1266 1.368 . S
C1270 C1269 1.523 . S
H1271 C1246 0.950 . S
H1272 C1248 0.950 . S
H1273 C1249 0.949 . S
H1274 C1251 0.950 . S
H1275 C1253 0.950 . S
C1276 C1277 1.349 . S
C1276 C1278 1.327 . S
C1276 H1301 0.950 . S
C1277 C1276 1.349 . S
C1277 C1293 1.349 . S
C1278 C1276 1.327 . S
C1278 C1297 1.429 . S
C1278 H1302 0.950 . S
C1279 C1296 1.574 . S
C1279 C1298 1.368 . S
C1279 H1303 0.949 . S
H1280 C1284 0.949 . S
C1281 C1282 1.349 . S
C1281 C1283 1.327 . S
C1281 H1304 0.950 . S
C1282 C1281 1.349 . S
C1282 C1294 1.349 . S
C1283 C1281 1.327 . S
C1283 C1299 1.429 . S
C1283 H1305 0.950 . S
C1284 H1280 0.949 . S
C1284 C1292 1.574 . S
C1284 C1300 1.368 . S
H1285 C1293 0.950 . S
H1286 C1291 0.950 . S
H1287 C1292 0.949 . S
H1288 C1294 0.950 . S
H1289 C1295 0.950 . S
H1290 C1296 0.949 . S
C1291 H1286 0.950 . S
C1291 C1293 1.327 . S
C1291 C1297 1.429 . S
C1292 C1284 1.574 . S
C1292 H1287 0.949 . S
C1292 C1298 1.368 . S
C1293 C1277 1.349 . S
C1293 H1285 0.950 . S
C1293 C1291 1.327 . S
C1294 C1282 1.349 . S
C1294 H1288 0.950 . S
C1294 C1295 1.327 . S
C1295 H1289 0.950 . S
C1295 C1294 1.327 . S
C1295 C1299 1.429 . S
C1296 C1279 1.574 . S
C1296 H1290 0.949 . S
C1296 C1300 1.368 . S
C1297 C1278 1.429 . S
C1297 C1291 1.429 . S
C1297 C1298 1.523 . S
C1298 C1279 1.368 . S
C1298 C1292 1.368 . S
C1298 C1297 1.523 . S
C1299 C1283 1.429 . S
C1299 C1295 1.429 . S
C1299 C1300 1.523 . S
C1300 C1284 1.368 . S
C1300 C1296 1.368 . S
C1300 C1299 1.523 . S
H1301 C1276 0.950 . S
H1302 C1278 0.950 . S
H1303 C1279 0.949 . S
H1304 C1281 0.950 . S
H1305 C1283 0.950 . S
C1306 C1307 1.349 . S
C1306 C1308 1.327 . S
C1306 H1331 0.950 . S
C1307 C1306 1.349 . S
C1307 C1323 1.349 . S
C1308 C1306 1.327 . S
C1308 C1327 1.429 . S
C1308 H1332 0.950 . S
C1309 C1326 1.574 . S
C1309 C1328 1.368 . S
C1309 H1333 0.949 . S
H1310 C1314 0.949 . S
C1311 C1312 1.349 . S
C1311 C1313 1.327 . S
C1311 H1334 0.950 . S
C1312 C1311 1.349 . S
C1312 C1324 1.349 . S
C1313 C1311 1.327 . S
C1313 C1329 1.429 . S
C1313 H1335 0.950 . S
C1314 H1310 0.949 . S
C1314 C1322 1.574 . S
C1314 C1330 1.368 . S
H1315 C1323 0.950 1_655 S
H1316 C1321 0.950 . S
H1317 C1322 0.949 . S
H1318 C1324 0.950 . S
H1319 C1325 0.950 . S
H1320 C1326 0.949 . S
C1321 H1316 0.950 . S
C1321 C1323 1.327 . S
C1321 C1327 1.429 . S
C1322 C1314 1.574 . S
C1322 H1317 0.949 . S
C1322 C1328 1.368 . S
C1323 C1307 1.349 . S
C1323 H1315 0.950 1_455 S
C1323 C1321 1.327 . S
C1324 C1312 1.349 . S
C1324 H1318 0.950 . S
C1324 C1325 1.327 . S
C1325 H1319 0.950 . S
C1325 C1324 1.327 . S
C1325 C1329 1.429 . S
C1326 C1309 1.574 . S
C1326 H1320 0.949 . S
C1326 C1330 1.368 . S
C1327 C1308 1.429 . S
C1327 C1321 1.429 . S
C1327 C1328 1.523 . S
C1328 C1309 1.368 . S
C1328 C1322 1.368 . S
C1328 C1327 1.523 . S
C1329 C1313 1.429 . S
C1329 C1325 1.429 . S
C1329 C1330 1.523 . S
C1330 C1314 1.368 . S
C1330 C1326 1.368 . S
C1330 C1329 1.523 . S
H1331 C1306 0.950 . S
H1332 C1308 0.950 . S
H1333 C1309 0.949 . S
H1334 C1311 0.950 . S
H1335 C1313 0.950 . S
C1336 C1337 1.349 . S
C1336 C1338 1.327 . S
C1336 H1361 0.950 . S
C1337 C1336 1.349 . S
C1337 C1353 1.349 . S
C1338 C1336 1.327 . S
C1338 C1357 1.429 . S
C1338 H1362 0.950 . S
C1339 C1356 1.574 . S
C1339 C1358 1.368 . S
C1339 H1363 0.949 . S
H1340 C1344 0.949 . S
C1341 C1342 1.349 . S
C1341 C1343 1.327 . S
C1341 H1364 0.950 . S
C1342 C1341 1.349 . S
C1342 C1354 1.349 . S
C1343 C1341 1.327 . S
C1343 C1359 1.429 . S
C1343 H1365 0.950 . S
C1344 H1340 0.949 . S
C1344 C1352 1.574 . S
C1344 C1360 1.368 . S
H1345 C1353 0.950 . S
H1346 C1351 0.950 . S
H1347 C1352 0.949 . S
H1348 C1354 0.950 . S
H1349 C1355 0.950 . S
H1350 C1356 0.949 . S
C1351 H1346 0.950 . S
C1351 C1353 1.327 . S
C1351 C1357 1.429 . S
C1352 C1344 1.574 . S
C1352 H1347 0.949 . S
C1352 C1358 1.368 . S
C1353 C1337 1.349 . S
C1353 H1345 0.950 . S
C1353 C1351 1.327 . S
C1354 C1342 1.349 . S
C1354 H1348 0.950 . S
C1354 C1355 1.327 . S
C1355 H1349 0.950 . S
C1355 C1354 1.327 . S
C1355 C1359 1.429 . S
C1356 C1339 1.574 . S
C1356 H1350 0.949 . S
C1356 C1360 1.368 . S
C1357 C1338 1.429 . S
C1357 C1351 1.429 . S
C1357 C1358 1.523 . S
C1358 C1339 1.368 . S
C1358 C1352 1.368 . S
C1358 C1357 1.523 . S
C1359 C1343 1.429 . S
C1359 C1355 1.429 . S
C1359 C1360 1.523 . S
C1360 C1344 1.368 . S
C1360 C1356 1.368 . S
C1360 C1359 1.523 . S
H1361 C1336 0.950 . S
H1362 C1338 0.950 . S
H1363 C1339 0.949 . S
H1364 C1341 0.950 . S
H1365 C1343 0.950 . S
C1366 C1367 1.349 . S
C1366 C1368 1.327 . S
C1366 H1391 0.950 . S
C1367 C1366 1.349 . S
C1367 C1383 1.349 1_655 S
C1368 C1366 1.327 . S
C1368 C1387 1.429 . S
C1368 H1392 0.950 . S
C1369 C1386 1.574 . S
C1369 C1388 1.368 1_456 S
C1369 H1393 0.949 . S
H1370 C1374 0.947 . S
C1371 C1372 1.349 . S
C1371 C1373 1.327 . S
C1371 H1394 0.950 . S
C1372 C1371 1.349 . S
C1372 C1384 1.349 1_455 S
C1373 C1371 1.327 . S
C1373 C1389 1.429 . S
C1373 H1395 0.950 . S
C1374 H1370 0.947 . S
C1374 C1382 1.550 1_556 S
C1374 C1390 1.401 . S
H1375 C1383 0.950 . S
H1376 C1381 0.950 . S
H1377 C1382 0.949 . S
H1378 C1384 0.950 . S
H1379 C1385 0.950 . S
H1380 C1386 0.949 . S
C1381 H1376 0.950 . S
C1381 C1383 1.327 . S
C1381 C1387 1.429 1_455 S
C1382 C1374 1.550 1_554 S
C1382 H1377 0.949 . S
C1382 C1388 1.368 . S
C1383 C1367 1.349 1_455 S
C1383 H1375 0.950 . S
C1383 C1381 1.327 . S
C1384 C1372 1.349 1_655 S
C1384 H1378 0.950 . S
C1384 C1385 1.327 . S
C1385 H1379 0.950 . S
C1385 C1384 1.327 . S
C1385 C1389 1.429 1_655 S
C1386 C1369 1.574 . S
C1386 H1380 0.949 . S
C1386 C1390 1.368 1_455 S
C1387 C1368 1.429 . S
C1387 C1381 1.429 1_655 S
C1387 C1388 1.523 . S
C1388 C1369 1.368 1_654 S
C1388 C1382 1.368 . S
C1388 C1387 1.523 . S
C1389 C1373 1.429 . S
C1389 C1385 1.429 1_455 S
C1389 C1390 1.523 1_455 S
C1390 C1374 1.401 . S
C1390 C1386 1.368 1_655 S
C1390 C1389 1.523 1_655 S
H1391 C1366 0.950 . S
H1392 C1368 0.950 . S
H1393 C1369 0.949 . S
H1394 C1371 0.950 . S
H1395 C1373 0.950 . S
C1396 C1397 1.349 . S
C1396 C1398 1.327 . S
C1396 H1421 0.950 . S
C1397 C1396 1.349 . S
C1397 C1413 1.349 . S
C1398 C1396 1.327 . S
C1398 C1417 1.429 . S
C1398 H1422 0.950 . S
C1399 C1416 1.574 . S
C1399 C1418 1.368 . S
C1399 H1423 0.949 . S
H1400 C1404 0.949 . S
C1401 C1402 1.349 . S
C1401 C1403 1.327 . S
C1401 H1424 0.950 . S
C1402 C1401 1.349 . S
C1402 C1414 1.349 . S
C1403 C1401 1.327 . S
C1403 C1419 1.429 . S
C1403 H1425 0.950 . S
C1404 H1400 0.949 . S
C1404 C1412 1.574 . S
C1404 C1420 1.368 . S
H1405 C1413 0.950 . S
H1406 C1411 0.950 . S
H1407 C1412 0.949 . S
H1408 C1414 0.950 . S
H1409 C1415 0.950 . S
H1410 C1416 0.949 . S
C1411 H1406 0.950 . S
C1411 C1413 1.327 . S
C1411 C1417 1.429 . S
C1412 C1404 1.574 . S
C1412 H1407 0.949 . S
C1412 C1418 1.368 . S
C1413 C1397 1.349 . S
C1413 H1405 0.950 . S
C1413 C1411 1.327 . S
C1414 C1402 1.349 . S
C1414 H1408 0.950 . S
C1414 C1415 1.327 . S
C1415 H1409 0.950 . S
C1415 C1414 1.327 . S
C1415 C1419 1.429 . S
C1416 C1399 1.574 . S
C1416 H1410 0.949 . S
C1416 C1420 1.368 . S
C1417 C1398 1.429 . S
C1417 C1411 1.429 . S
C1417 C1418 1.523 . S
C1418 C1399 1.368 . S
C1418 C1412 1.368 . S
C1418 C1417 1.523 . S
C1419 C1403 1.429 . S
C1419 C1415 1.429 . S
C1419 C1420 1.523 . S
C1420 C1404 1.368 . S
C1420 C1416 1.368 . S
C1420 C1419 1.523 . S
H1421 C1396 0.950 . S
H1422 C1398 0.950 . S
H1423 C1399 0.949 . S
H1424 C1401 0.950 . S
H1425 C1403 0.950 . S
C1426 C1427 1.349 . S
C1426 C1428 1.327 . S
C1426 H1451 0.950 . S
C1427 C1426 1.349 . S
C1427 C1443 1.311 1_455 S
C1428 C1426 1.327 . S
C1428 C1447 1.429 . S
C1428 H1452 0.950 . S
C1429 C1446 1.574 . S
C1429 C1448 1.368 1_655 S
C1429 H1453 0.949 . S
H1430 C1434 0.949 . S
C1431 C1432 1.349 1_655 S
C1431 C1433 1.327 . S
C1431 H1454 0.950 . S
C1432 C1431 1.349 1_455 S
C1432 C1444 1.349 . S
C1433 C1431 1.327 . S
C1433 C1449 1.429 1_655 S
C1433 H1455 0.950 . S
C1434 H1430 0.949 . S
C1434 C1442 1.574 . S
C1434 C1450 1.368 . S
H1435 C1443 0.985 . S
H1436 C1441 0.950 . S
H1437 C1442 0.949 1_554 S
H1438 C1444 0.950 . S
H1439 C1445 0.950 . S
H1440 C1446 0.949 . S
C1441 H1436 0.950 . S
C1441 C1443 1.333 1_556 S
C1441 C1447 1.429 1_656 S
C1442 C1434 1.574 . S
C1442 H1437 0.949 1_556 S
C1442 C1448 1.368 . S
C1443 C1427 1.311 1_655 S
C1443 H1435 0.985 . S
C1443 C1441 1.333 1_554 S
C1444 C1432 1.349 . S
C1444 H1438 0.950 . S
C1444 C1445 1.327 . S
C1445 H1439 0.950 . S
C1445 C1444 1.327 . S
C1445 C1449 1.429 . S
C1446 C1429 1.574 . S
C1446 H1440 0.949 . S
C1446 C1450 1.368 1_655 S
C1447 C1428 1.429 . S
C1447 C1441 1.429 1_454 S
C1447 C1448 1.523 1_554 S
C1448 C1429 1.368 1_455 S
C1448 C1442 1.368 . S
C1448 C1447 1.523 1_556 S
C1449 C1433 1.429 1_455 S
C1449 C1445 1.429 . S
C1449 C1450 1.523 . S
C1450 C1434 1.368 . S
C1450 C1446 1.368 1_455 S
C1450 C1449 1.523 . S
H1451 C1426 0.950 . S
H1452 C1428 0.950 . S
H1453 C1429 0.949 . S
H1454 C1431 0.950 . S
H1455 C1433 0.950 . S
C1456 C1457 1.349 . S
C1456 C1458 1.327 . S
C1456 H1481 0.950 . S
C1457 C1456 1.349 . S
C1457 C1473 1.349 . S
C1458 C1456 1.327 . S
C1458 C1477 1.429 . S
C1458 H1482 0.950 . S
C1459 C1476 1.574 . S
C1459 C1478 1.368 . S
C1459 H1483 0.949 . S
H1460 C1464 0.949 . S
C1461 C1462 1.349 . S
C1461 C1463 1.327 . S
C1461 H1484 0.950 . S
C1462 C1461 1.349 . S
C1462 C1474 1.349 . S
C1463 C1461 1.327 . S
C1463 C1479 1.429 . S
C1463 H1485 0.950 . S
C1464 H1460 0.949 . S
C1464 C1472 1.574 . S
C1464 C1480 1.368 . S
H1465 C1473 0.950 . S
H1466 C1471 0.950 . S
H1467 C1472 0.949 . S
H1468 C1474 0.950 . S
H1469 C1475 0.950 . S
H1470 C1476 0.949 . S
C1471 H1466 0.950 . S
C1471 C1473 1.327 . S
C1471 C1477 1.429 . S
C1472 C1464 1.574 . S
C1472 H1467 0.949 . S
C1472 C1478 1.368 . S
C1473 C1457 1.349 . S
C1473 H1465 0.950 . S
C1473 C1471 1.327 . S
C1474 C1462 1.349 . S
C1474 H1468 0.950 . S
C1474 C1475 1.327 . S
C1475 H1469 0.950 . S
C1475 C1474 1.327 . S
C1475 C1479 1.429 . S
C1476 C1459 1.574 . S
C1476 H1470 0.949 . S
C1476 C1480 1.368 . S
C1477 C1458 1.429 . S
C1477 C1471 1.429 . S
C1477 C1478 1.523 . S
C1478 C1459 1.368 . S
C1478 C1472 1.368 . S
C1478 C1477 1.523 . S
C1479 C1463 1.429 . S
C1479 C1475 1.429 . S
C1479 C1480 1.523 . S
C1480 C1464 1.368 . S
C1480 C1476 1.368 . S
C1480 C1479 1.523 . S
H1481 C1456 0.950 . S
H1482 C1458 0.950 . S
H1483 C1459 0.949 . S
H1484 C1461 0.950 . S
H1485 C1463 0.950 . S
C1486 C1487 1.349 1_554 S
C1486 C1488 1.327 . S
C1486 H1511 0.952 . S
C1487 C1486 1.349 1_556 S
C1487 C1503 1.349 . S
C1488 C1486 1.327 . S
C1488 C1507 1.429 . S
C1488 H1512 0.950 . S
C1489 C1506 1.574 . S
C1489 C1508 1.368 . S
C1489 H1513 0.949 . S
H1490 C1494 0.949 . S
C1491 C1492 1.349 . S
C1491 C1493 1.327 . S
C1491 H1514 0.950 . S
C1492 C1491 1.349 . S
C1492 C1504 1.349 . S
C1493 C1491 1.327 . S
C1493 C1509 1.429 . S
C1493 H1515 0.950 . S
C1494 H1490 0.949 . S
C1494 C1502 1.574 . S
C1494 C1510 1.368 . S
H1495 C1503 0.950 . S
H1496 C1501 0.950 . S
H1497 C1502 0.949 . S
H1498 C1504 0.950 . S
H1499 C1505 0.950 . S
H1500 C1506 0.949 . S
C1501 H1496 0.950 . S
C1501 C1503 1.327 1_554 S
C1501 C1507 1.429 . S
C1502 C1494 1.574 . S
C1502 H1497 0.949 . S
C1502 C1508 1.368 . S
C1503 C1487 1.349 . S
C1503 H1495 0.950 . S
C1503 C1501 1.327 1_556 S
C1504 C1492 1.349 . S
C1504 H1498 0.950 . S
C1504 C1505 1.327 . S
C1505 H1499 0.950 . S
C1505 C1504 1.327 . S
C1505 C1509 1.429 . S
C1506 C1489 1.574 . S
C1506 H1500 0.949 . S
C1506 C1510 1.368 . S
C1507 C1488 1.429 . S
C1507 C1501 1.429 . S
C1507 C1508 1.523 . S
C1508 C1489 1.368 . S
C1508 C1502 1.368 . S
C1508 C1507 1.523 . S
C1509 C1493 1.429 . S
C1509 C1505 1.429 . S
C1509 C1510 1.523 . S
C1510 C1494 1.368 . S
C1510 C1506 1.368 . S
C1510 C1509 1.523 . S
H1511 C1486 0.952 . S
H1512 C1488 0.950 . S
H1513 C1489 0.949 . S
H1514 C1491 0.950 . S
H1515 C1493 0.950 . S
C1516 C1517 1.349 . S
C1516 C1518 1.327 . S
C1516 H1541 0.950 . S
C1517 C1516 1.349 . S
C1517 C1533 1.349 . S
C1518 C1516 1.327 . S
C1518 C1537 1.429 . S
C1518 H1542 0.950 . S
C1519 C1536 1.574 . S
C1519 C1538 1.368 . S
C1519 H1543 0.949 . S
H1520 C1524 0.949 . S
C1521 C1522 1.349 . S
C1521 C1523 1.327 . S
C1521 H1544 0.950 . S
C1522 C1521 1.349 . S
C1522 C1534 1.349 . S
C1523 C1521 1.327 . S
C1523 C1539 1.429 . S
C1523 H1545 0.950 . S
C1524 H1520 0.949 . S
C1524 C1532 1.574 . S
C1524 C1540 1.368 . S
H1525 C1533 0.950 . S
H1526 C1531 0.950 . S
H1527 C1532 0.949 . S
H1528 C1534 0.950 . S
H1529 C1535 0.950 . S
H1530 C1536 0.949 . S
C1531 H1526 0.950 . S
C1531 C1533 1.327 . S
C1531 C1537 1.429 . S
C1532 C1524 1.574 . S
C1532 H1527 0.949 . S
C1532 C1538 1.368 . S
C1533 C1517 1.349 . S
C1533 H1525 0.950 . S
C1533 C1531 1.327 . S
C1534 C1522 1.349 . S
C1534 H1528 0.950 . S
C1534 C1535 1.327 . S
C1535 H1529 0.950 . S
C1535 C1534 1.327 . S
C1535 C1539 1.429 . S
C1536 C1519 1.574 . S
C1536 H1530 0.949 . S
C1536 C1540 1.368 . S
C1537 C1518 1.429 . S
C1537 C1531 1.429 . S
C1537 C1538 1.523 . S
C1538 C1519 1.368 . S
C1538 C1532 1.368 . S
C1538 C1537 1.523 . S
C1539 C1523 1.429 . S
C1539 C1535 1.429 . S
C1539 C1540 1.523 . S
C1540 C1524 1.368 . S
C1540 C1536 1.368 . S
C1540 C1539 1.523 . S
H1541 C1516 0.950 . S
H1542 C1518 0.950 . S
H1543 C1519 0.949 . S
H1544 C1521 0.950 . S
H1545 C1523 0.950 . S
C1546 C1547 1.349 . S
C1546 C1548 1.327 1_556 S
C1546 H1571 0.950 . S
C1547 C1546 1.349 . S
C1547 C1563 1.349 1_556 S
C1548 C1546 1.327 1_554 S
C1548 C1567 1.429 . S
C1548 H1572 0.950 1_554 S
C1549 C1566 1.574 . S
C1549 C1568 1.368 . S
C1549 H1573 0.949 . S
H1550 C1554 0.949 . S
C1551 C1552 1.349 . S
C1551 C1553 1.327 . S
C1551 H1574 0.950 . S
C1552 C1551 1.349 . S
C1552 C1564 1.349 . S
C1553 C1551 1.327 . S
C1553 C1569 1.429 . S
C1553 H1575 0.950 . S
C1554 H1550 0.949 . S
C1554 C1562 1.574 . S
C1554 C1570 1.368 . S
H1555 C1563 0.950 . S
H1556 C1561 0.950 . S
H1557 C1562 0.949 . S
H1558 C1564 0.950 . S
H1559 C1565 0.950 . S
H1560 C1566 0.949 . S
C1561 H1556 0.950 . S
C1561 C1563 1.327 . S
C1561 C1567 1.429 . S
C1562 C1554 1.574 . S
C1562 H1557 0.949 . S
C1562 C1568 1.368 . S
C1563 C1547 1.349 1_554 S
C1563 H1555 0.950 . S
C1563 C1561 1.327 . S
C1564 C1552 1.349 . S
C1564 H1558 0.950 . S
C1564 C1565 1.327 . S
C1565 H1559 0.950 . S
C1565 C1564 1.327 . S
C1565 C1569 1.429 . S
C1566 C1549 1.574 . S
C1566 H1560 0.949 . S
C1566 C1570 1.368 . S
C1567 C1548 1.429 . S
C1567 C1561 1.429 . S
C1567 C1568 1.523 . S
C1568 C1549 1.368 . S
C1568 C1562 1.368 . S
C1568 C1567 1.523 . S
C1569 C1553 1.429 . S
C1569 C1565 1.429 . S
C1569 C1570 1.523 . S
C1570 C1554 1.368 . S
C1570 C1566 1.368 . S
C1570 C1569 1.523 . S
H1571 C1546 0.950 . S
H1572 C1548 0.950 1_556 S
H1573 C1549 0.949 . S
H1574 C1551 0.950 . S
H1575 C1553 0.950 . S
C1576 C1577 1.349 . S
C1576 C1578 1.327 . S
C1576 H1601 0.950 . S
C1577 C1576 1.349 . S
C1577 C1593 1.349 . S
C1578 C1576 1.327 . S
C1578 C1597 1.429 . S
C1578 H1602 0.950 . S
C1579 C1596 1.574 . S
C1579 C1598 1.368 . S
C1579 H1603 0.949 . S
H1580 C1584 0.949 . S
C1581 C1582 1.349 . S
C1581 C1583 1.327 . S
C1581 H1604 0.950 . S
C1582 C1581 1.349 . S
C1582 C1594 1.349 . S
C1583 C1581 1.327 . S
C1583 C1599 1.429 . S
C1583 H1605 0.950 . S
C1584 H1580 0.949 . S
C1584 C1592 1.574 . S
C1584 C1600 1.368 . S
H1585 C1593 0.950 . S
H1586 C1591 0.950 . S
H1587 C1592 0.949 . S
H1588 C1594 0.950 . S
H1589 C1595 0.950 . S
H1590 C1596 0.949 . S
C1591 H1586 0.950 . S
C1591 C1593 1.327 . S
C1591 C1597 1.429 . S
C1592 C1584 1.574 . S
C1592 H1587 0.949 . S
C1592 C1598 1.368 . S
C1593 C1577 1.349 . S
C1593 H1585 0.950 . S
C1593 C1591 1.327 . S
C1594 C1582 1.349 . S
C1594 H1588 0.950 . S
C1594 C1595 1.327 . S
C1595 H1589 0.950 . S
C1595 C1594 1.327 . S
C1595 C1599 1.429 . S
C1596 C1579 1.574 . S
C1596 H1590 0.949 . S
C1596 C1600 1.368 . S
C1597 C1578 1.429 . S
C1597 C1591 1.429 . S
C1597 C1598 1.523 . S
C1598 C1579 1.368 . S
C1598 C1592 1.368 . S
C1598 C1597 1.523 . S
C1599 C1583 1.429 . S
C1599 C1595 1.429 . S
C1599 C1600 1.523 . S
C1600 C1584 1.368 . S
C1600 C1596 1.368 . S
C1600 C1599 1.523 . S
H1601 C1576 0.950 . S
H1602 C1578 0.950 . S
H1603 C1579 0.949 . S
H1604 C1581 0.950 . S
H1605 C1583 0.950 . S
C1606 C1607 1.349 . S
C1606 C1608 1.327 . S
C1606 H1631 0.950 . S
C1607 C1606 1.349 . S
C1607 C1623 1.349 . S
C1608 C1606 1.327 . S
C1608 C1627 1.429 . S
C1608 H1632 0.950 . S
C1609 C1626 1.574 . S
C1609 C1628 1.368 . S
C1609 H1633 0.949 . S
H1610 C1614 0.949 . S
C1611 C1612 1.349 . S
C1611 C1613 1.327 . S
C1611 H1634 0.950 . S
C1612 C1611 1.349 . S
C1612 C1624 1.349 . S
C1613 C1611 1.327 . S
C1613 C1629 1.429 . S
C1613 H1635 0.950 . S
C1614 H1610 0.949 . S
C1614 C1622 1.574 . S
C1614 C1630 1.368 . S
H1615 C1623 0.950 . S
H1616 C1621 0.950 . S
H1617 C1622 0.949 . S
H1618 C1624 0.950 . S
H1619 C1625 0.950 . S
H1620 C1626 0.949 . S
C1621 H1616 0.950 . S
C1621 C1623 1.327 . S
C1621 C1627 1.429 . S
C1622 C1614 1.574 . S
C1622 H1617 0.949 . S
C1622 C1628 1.368 . S
C1623 C1607 1.349 . S
C1623 H1615 0.950 . S
C1623 C1621 1.327 . S
C1624 C1612 1.349 . S
C1624 H1618 0.950 . S
C1624 C1625 1.327 . S
C1625 H1619 0.950 . S
C1625 C1624 1.327 . S
C1625 C1629 1.429 . S
C1626 C1609 1.574 . S
C1626 H1620 0.949 . S
C1626 C1630 1.368 . S
C1627 C1608 1.429 . S
C1627 C1621 1.429 . S
C1627 C1628 1.523 . S
C1628 C1609 1.368 . S
C1628 C1622 1.368 . S
C1628 C1627 1.523 . S
C1629 C1613 1.429 . S
C1629 C1625 1.429 . S
C1629 C1630 1.523 . S
C1630 C1614 1.368 . S
C1630 C1626 1.368 . S
C1630 C1629 1.523 . S
H1631 C1606 0.950 . S
H1632 C1608 0.950 . S
H1633 C1609 0.949 . S
H1634 C1611 0.950 . S
H1635 C1613 0.950 . S
C1636 C1637 1.349 . S
C1636 C1638 1.327 . S
C1636 H1661 0.950 . S
C1637 C1636 1.349 . S
C1637 C1653 1.349 . S
C1638 C1636 1.327 . S
C1638 C1657 1.429 . S
C1638 H1662 0.950 . S
C1639 C1656 1.574 . S
C1639 C1658 1.368 . S
C1639 H1663 0.949 . S
H1640 C1644 0.949 . S
C1641 C1642 1.349 . S
C1641 C1643 1.327 . S
C1641 H1664 0.950 . S
C1642 C1641 1.349 . S
C1642 C1654 1.349 . S
C1643 C1641 1.327 . S
C1643 C1659 1.429 . S
C1643 H1665 0.950 . S
C1644 H1640 0.949 . S
C1644 C1652 1.574 . S
C1644 C1660 1.368 . S
H1645 C1653 0.950 . S
H1646 C1651 0.950 . S
H1647 C1652 0.949 . S
H1648 C1654 0.950 . S
H1649 C1655 0.950 . S
H1650 C1656 0.949 . S
C1651 H1646 0.950 . S
C1651 C1653 1.327 . S
C1651 C1657 1.429 . S
C1652 C1644 1.574 . S
C1652 H1647 0.949 . S
C1652 C1658 1.368 . S
C1653 C1637 1.349 . S
C1653 H1645 0.950 . S
C1653 C1651 1.327 . S
C1654 C1642 1.349 . S
C1654 H1648 0.950 . S
C1654 C1655 1.327 . S
C1655 H1649 0.950 . S
C1655 C1654 1.327 . S
C1655 C1659 1.429 . S
C1656 C1639 1.574 . S
C1656 H1650 0.949 . S
C1656 C1660 1.368 . S
C1657 C1638 1.429 . S
C1657 C1651 1.429 . S
C1657 C1658 1.523 . S
C1658 C1639 1.368 . S
C1658 C1652 1.368 . S
C1658 C1657 1.523 . S
C1659 C1643 1.429 . S
C1659 C1655 1.429 . S
C1659 C1660 1.523 . S
C1660 C1644 1.368 . S
C1660 C1656 1.368 . S
C1660 C1659 1.523 . S
H1661 C1636 0.950 . S
H1662 C1638 0.950 . S
H1663 C1639 0.949 . S
H1664 C1641 0.950 . S
H1665 C1643 0.950 . S
C1666 C1667 1.349 . S
C1666 C1668 1.327 . S
C1666 H1691 0.950 . S
C1667 C1666 1.349 . S
C1667 C1683 1.349 . S
C1668 C1666 1.327 . S
C1668 C1687 1.429 . S
C1668 H1692 0.950 . S
C1669 C1686 1.574 . S
C1669 C1688 1.368 . S
C1669 H1693 0.949 . S
H1670 C1674 0.949 . S
C1671 C1672 1.349 . S
C1671 C1673 1.327 . S
C1671 H1694 0.950 . S
C1672 C1671 1.349 . S
C1672 C1684 1.349 . S
C1673 C1671 1.327 . S
C1673 C1689 1.429 . S
C1673 H1695 0.950 . S
C1674 H1670 0.949 . S
C1674 C1682 1.574 . S
C1674 C1690 1.368 . S
H1675 C1683 0.950 . S
H1676 C1681 0.950 . S
H1677 C1682 0.949 . S
H1678 C1684 0.950 . S
H1679 C1685 0.950 . S
H1680 C1686 0.949 . S
C1681 H1676 0.950 . S
C1681 C1683 1.327 . S
C1681 C1687 1.429 . S
C1682 C1674 1.574 . S
C1682 H1677 0.949 . S
C1682 C1688 1.368 . S
C1683 C1667 1.349 . S
C1683 H1675 0.950 . S
C1683 C1681 1.327 . S
C1684 C1672 1.349 . S
C1684 H1678 0.950 . S
C1684 C1685 1.327 . S
C1685 H1679 0.950 . S
C1685 C1684 1.327 . S
C1685 C1689 1.429 . S
C1686 C1669 1.574 . S
C1686 H1680 0.949 . S
C1686 C1690 1.368 . S
C1687 C1668 1.429 . S
C1687 C1681 1.429 . S
C1687 C1688 1.523 . S
C1688 C1669 1.368 . S
C1688 C1682 1.368 . S
C1688 C1687 1.523 . S
C1689 C1673 1.429 . S
C1689 C1685 1.429 . S
C1689 C1690 1.523 . S
C1690 C1674 1.368 . S
C1690 C1686 1.368 . S
C1690 C1689 1.523 . S
H1691 C1666 0.950 . S
H1692 C1668 0.950 . S
H1693 C1669 0.949 . S
H1694 C1671 0.950 . S
H1695 C1673 0.950 . S
C1696 C1697 1.349 . S
C1696 C1698 1.327 . S
C1696 H1721 0.944 1_556 S
C1697 C1696 1.349 . S
C1697 C1713 1.349 . S
C1698 C1696 1.327 . S
C1698 C1717 1.429 . S
C1698 H1722 0.950 1_556 S
C1699 C1716 1.574 . S
C1699 C1718 1.368 . S
C1699 H1723 0.949 . S
H1700 C1704 0.949 . S
C1701 C1702 1.352 . S
C1701 C1703 1.327 . S
C1701 H1724 0.950 . S
C1702 C1701 1.352 . S
C1702 C1714 1.346 1_556 S
C1703 C1701 1.327 . S
C1703 C1719 1.429 . S
C1703 H1725 0.950 . S
C1704 H1700 0.949 . S
C1704 C1712 1.574 . S
C1704 C1720 1.368 1_554 S
H1705 C1713 0.950 . S
H1706 C1711 0.950 . S
H1707 C1712 0.949 . S
H1708 C1714 0.950 . S
H1709 C1715 0.950 . S
H1710 C1716 0.949 . S
C1711 H1706 0.950 . S
C1711 C1713 1.327 . S
C1711 C1717 1.429 . S
C1712 C1704 1.574 . S
C1712 H1707 0.949 . S
C1712 C1718 1.368 1_554 S
C1713 C1697 1.349 . S
C1713 H1705 0.950 . S
C1713 C1711 1.327 . S
C1714 C1702 1.346 1_554 S
C1714 H1708 0.950 . S
C1714 C1715 1.327 . S
C1715 H1709 0.950 . S
C1715 C1714 1.327 . S
C1715 C1719 1.429 1_554 S
C1716 C1699 1.574 . S
C1716 H1710 0.949 . S
C1716 C1720 1.368 . S
C1717 C1698 1.429 . S
C1717 C1711 1.429 . S
C1717 C1718 1.523 . S
C1718 C1699 1.368 . S
C1718 C1712 1.368 1_556 S
C1718 C1717 1.523 . S
C1719 C1703 1.429 . S
C1719 C1715 1.429 1_556 S
C1719 C1720 1.523 . S
C1720 C1704 1.368 1_556 S
C1720 C1716 1.368 . S
C1720 C1719 1.523 . S
H1721 C1696 0.944 1_554 S
H1722 C1698 0.950 1_554 S
H1723 C1699 0.949 . S
H1724 C1701 0.950 . S
H1725 C1703 0.950 . S
C1726 C1727 1.349 . S
C1726 C1728 1.327 . S
C1726 H1751 0.950 . S
C1727 C1726 1.349 . S
C1727 C1743 1.349 . S
C1728 C1726 1.327 . S
C1728 C1747 1.429 . S
C1728 H1752 0.950 . S
C1729 C1746 1.574 . S
C1729 C1748 1.368 . S
C1729 H1753 0.949 . S
H1730 C1734 0.949 . S
C1731 C1732 1.349 . S
C1731 C1733 1.327 . S
C1731 H1754 0.950 . S
C1732 C1731 1.349 . S
C1732 C1744 1.349 . S
C1733 C1731 1.327 . S
C1733 C1749 1.429 . S
C1733 H1755 0.950 . S
C1734 H1730 0.949 . S
C1734 C1742 1.574 . S
C1734 C1750 1.368 . S
H1735 C1743 0.950 . S
H1736 C1741 0.950 . S
H1737 C1742 0.949 . S
H1738 C1744 0.950 . S
H1739 C1745 0.950 . S
H1740 C1746 0.949 . S
C1741 H1736 0.950 . S
C1741 C1743 1.327 . S
C1741 C1747 1.429 . S
C1742 C1734 1.574 . S
C1742 H1737 0.949 . S
C1742 C1748 1.368 . S
C1743 C1727 1.349 . S
C1743 H1735 0.950 . S
C1743 C1741 1.327 . S
C1744 C1732 1.349 . S
C1744 H1738 0.950 . S
C1744 C1745 1.327 . S
C1745 H1739 0.950 . S
C1745 C1744 1.327 . S
C1745 C1749 1.429 . S
C1746 C1729 1.574 . S
C1746 H1740 0.949 . S
C1746 C1750 1.368 . S
C1747 C1728 1.429 . S
C1747 C1741 1.429 . S
C1747 C1748 1.523 . S
C1748 C1729 1.368 . S
C1748 C1742 1.368 . S
C1748 C1747 1.523 . S
C1749 C1733 1.429 . S
C1749 C1745 1.429 . S
C1749 C1750 1.523 . S
C1750 C1734 1.368 . S
C1750 C1746 1.368 . S
C1750 C1749 1.523 . S
H1751 C1726 0.950 . S
H1752 C1728 0.950 . S
H1753 C1729 0.949 . S
H1754 C1731 0.950 . S
H1755 C1733 0.950 . S
C1756 C1757 1.349 . S
C1756 C1758 1.327 . S
C1756 H1781 0.950 . S
C1757 C1756 1.349 . S
C1757 C1773 1.349 . S
C1758 C1756 1.327 . S
C1758 C1777 1.429 . S
C1758 H1782 0.950 . S
C1759 C1776 1.574 . S
C1759 C1778 1.368 . S
C1759 H1783 0.949 . S
H1760 C1764 0.949 . S
C1761 C1762 1.349 . S
C1761 C1763 1.327 . S
C1761 H1784 0.950 . S
C1762 C1761 1.349 . S
C1762 C1774 1.349 . S
C1763 C1761 1.327 . S
C1763 C1779 1.429 . S
C1763 H1785 0.950 . S
C1764 H1760 0.949 . S
C1764 C1772 1.574 . S
C1764 C1780 1.368 . S
H1765 C1773 0.950 . S
H1766 C1771 0.950 . S
H1767 C1772 0.949 . S
H1768 C1774 0.950 . S
H1769 C1775 0.950 . S
H1770 C1776 0.949 . S
C1771 H1766 0.950 . S
C1771 C1773 1.327 . S
C1771 C1777 1.429 . S
C1772 C1764 1.574 . S
C1772 H1767 0.949 . S
C1772 C1778 1.368 . S
C1773 C1757 1.349 . S
C1773 H1765 0.950 . S
C1773 C1771 1.327 . S
C1774 C1762 1.349 . S
C1774 H1768 0.950 . S
C1774 C1775 1.327 . S
C1775 H1769 0.950 . S
C1775 C1774 1.327 . S
C1775 C1779 1.429 . S
C1776 C1759 1.574 . S
C1776 H1770 0.949 . S
C1776 C1780 1.368 . S
C1777 C1758 1.429 . S
C1777 C1771 1.429 . S
C1777 C1778 1.523 . S
C1778 C1759 1.368 . S
C1778 C1772 1.368 . S
C1778 C1777 1.523 . S
C1779 C1763 1.429 . S
C1779 C1775 1.429 . S
C1779 C1780 1.523 . S
C1780 C1764 1.368 . S
C1780 C1776 1.368 . S
C1780 C1779 1.523 . S
H1781 C1756 0.950 . S
H1782 C1758 0.950 . S
H1783 C1759 0.949 . S
H1784 C1761 0.950 . S
H1785 C1763 0.950 . S
C1786 C1787 1.349 . S
C1786 C1788 1.327 . S
C1786 H1811 0.950 1_565 S
C1787 C1786 1.349 . S
C1787 C1803 1.349 . S
C1788 C1786 1.327 . S
C1788 C1807 1.429 . S
C1788 H1812 0.950 . S
C1789 C1806 1.574 . S
C1789 C1808 1.368 . S
C1789 H1813 0.949 . S
H1790 C1794 0.949 . S
C1791 C1792 1.349 . S
C1791 C1793 1.327 . S
C1791 H1814 0.950 . S
C1792 C1791 1.349 . S
C1792 C1804 1.349 . S
C1793 C1791 1.327 . S
C1793 C1809 1.429 . S
C1793 H1815 0.950 . S
C1794 H1790 0.949 . S
C1794 C1802 1.574 . S
C1794 C1810 1.368 . S
H1795 C1803 0.950 . S
H1796 C1801 0.950 . S
H1797 C1802 0.949 . S
H1798 C1804 0.950 . S
H1799 C1805 0.950 . S
H1800 C1806 0.949 . S
C1801 H1796 0.950 . S
C1801 C1803 1.327 . S
C1801 C1807 1.429 . S
C1802 C1794 1.574 . S
C1802 H1797 0.949 . S
C1802 C1808 1.368 . S
C1803 C1787 1.349 . S
C1803 H1795 0.950 . S
C1803 C1801 1.327 . S
C1804 C1792 1.349 . S
C1804 H1798 0.950 . S
C1804 C1805 1.327 . S
C1805 H1799 0.950 . S
C1805 C1804 1.327 . S
C1805 C1809 1.429 . S
C1806 C1789 1.574 . S
C1806 H1800 0.949 . S
C1806 C1810 1.368 . S
C1807 C1788 1.429 . S
C1807 C1801 1.429 . S
C1807 C1808 1.523 . S
C1808 C1789 1.368 . S
C1808 C1802 1.368 . S
C1808 C1807 1.523 . S
C1809 C1793 1.429 . S
C1809 C1805 1.429 . S
C1809 C1810 1.523 . S
C1810 C1794 1.368 . S
C1810 C1806 1.368 . S
C1810 C1809 1.523 . S
H1811 C1786 0.950 1_545 S
H1812 C1788 0.950 . S
H1813 C1789 0.949 . S
H1814 C1791 0.950 . S
H1815 C1793 0.950 . S
C382 C219 1.184 . S
C377 N66 1.178 . S
C412 C227 1.398 . S
C407 N79 1.593 . S
C437 N92 1.755 . S
C442 C247 1.748 . S
C472 C261 1.280 . S
C467 N54 1.319 . S
C502 C276 1.540 . S
C497 N131 1.528 . S
C532 C290 1.141 . S
C527 N158 1.136 . S
C557 N145 1.605 . S
C562 C304 1.608 . S
C592 C310 1.791 1_565 S
C587 N118 1.800 . S
C617 N148 2.053 . S
C622 C324 2.014 . S
C652 C345 1.623 . S
C647 N122 1.618 . S
C677 N132 1.161 . S
C682 C325 1.000 . S
C712 C346 1.515 . S
C707 N161 1.482 . S
C737 N96 1.913 . S
C742 C353 1.623 . S
C767 N53 1.754 . S
C772 C359 1.764 . S
C797 N67 0.930 . S
C802 C352 0.917 . S
C827 N83 1.299 . S
C832 C360 1.314 . S
C857 N44 1.434 . S
C862 C254 1.406 . S
C887 N187 1.478 . S
C892 C255 1.247 . S
C922 C212 1.111 . S
C917 N197 1.150 . S
C952 C233 1.193 . S
C947 N106 1.215 . S
C977 N57 1.839 1_545 S
C982 C268 1.801 . S
C1012 C318 1.420 . S
C1007 N144 1.401 . S
C1042 C269 1.096 . S
C1037 N119 1.305 . S
C1072 C297 1.560 . S
C1067 N157 1.862 . S
C1102 C303 1.184 . S
C1097 N183 1.178 . S
C1127 N196 1.593 . S
C1132 C311 1.398 . S
C1157 N105 1.755 . S
C1162 C275 1.748 . S
C1192 C289 1.280 . S
C1187 N171 1.319 . S
C1217 N40 1.527 . S
C1222 C248 1.540 . S
C1252 C262 1.141 . S
C1247 N2 1.136 . S
C1282 C220 1.608 . S
C1277 N15 1.605 . S
C1312 C226 1.791 . S
C1307 N27 1.800 1_455 S
C1337 N18 2.053 . S
C1342 C338 2.014 . S
C1367 N31 1.618 . S
C1372 C331 1.623 . S
C1397 N41 1.161 . S
C1402 C339 1.000 . S
C1427 N5 1.482 . S
C1432 C332 1.515 . S
C1462 C367 1.623 . S
C1457 N109 1.913 . S
C1492 C373 1.764 . S
C1487 N170 1.754 . S
C1522 C366 0.917 . S
C1517 N184 0.930 . S
C1547 N200 1.300 . S
C1552 C374 1.314 . S
C1577 N135 1.434 . S
C1582 C282 1.406 . S
C1612 C283 1.247 . S
C1607 N70 1.478 . S
C1642 C296 1.111 . S
C1637 N80 1.150 . S
C1672 C317 1.193 . S
C1667 N93 1.216 . S
C1697 N174 1.839 . S
C1702 C240 1.801 1_556 S
C1732 C234 1.420 . S
C1727 N14 1.401 . S
C1757 N28 1.305 . S
C1762 C241 1.096 . S
C1792 C213 1.560 . S
C1787 N1 1.864 . S
