# Generated by pormake.
# Topology nom, (4,4)-cn, num edge types: 1
# Building blocks:
#     Node 0, Type 0, BuildingBlock: MUDLON_clean_linker_0, # of connection points: 4
#     Node 1, Type 0, BuildingBlock: MUDLON_clean_linker_0, # of connection points: 4
#     Node 2, Type 0, BuildingBlock: MUDLON_clean_linker_0, # of connection points: 4
#     Node 3, Type 0, BuildingBlock: MUDLON_clean_linker_0, # of connection points: 4
#     Node 4, Type 0, BuildingBlock: MUDLON_clean_linker_0, # of connection points: 4
#     Node 5, Type 0, BuildingBlock: MUDLON_clean_linker_0, # of connection points: 4
#     Node 6, Type 1, BuildingBlock: TATPOV_clean_sbu_0, # of connection points: 4
#     Node 7, Type 1, BuildingBlock: TATPOV_clean_sbu_0, # of connection points: 4
#     Node 8, Type 1, BuildingBlock: TATPOV_clean_sbu_0, # of connection points: 4
#     Node 9, Type 1, BuildingBlock: TATPOV_clean_sbu_0, # of connection points: 4
#     Node 10, Type 1, BuildingBlock: TATPOV_clean_sbu_0, # of connection points: 4
#     Node 11, Type 1, BuildingBlock: TATPOV_clean_sbu_0, # of connection points: 4
#     Edge 12, Type (0, 1), BuildingBlock: KIFKEQ_clean_linker_1, # of connection points: 2
#     Edge 13, Type (0, 1), BuildingBlock: KIFKEQ_clean_linker_1, # of connection points: 2
#     Edge 14, Type (0, 1), BuildingBlock: KIFKEQ_clean_linker_1, # of connection points: 2
#     Edge 15, Type (0, 1), BuildingBlock: KIFKEQ_clean_linker_1, # of connection points: 2
#     Edge 16, Type (0, 1), BuildingBlock: KIFKEQ_clean_linker_1, # of connection points: 2
#     Edge 17, Type (0, 1), BuildingBlock: KIFKEQ_clean_linker_1, # of connection points: 2
#     Edge 18, Type (0, 1), BuildingBlock: KIFKEQ_clean_linker_1, # of connection points: 2
#     Edge 19, Type (0, 1), BuildingBlock: KIFKEQ_clean_linker_1, # of connection points: 2
#     Edge 20, Type (0, 1), BuildingBlock: KIFKEQ_clean_linker_1, # of connection points: 2
#     Edge 21, Type (0, 1), BuildingBlock: KIFKEQ_clean_linker_1, # of connection points: 2
#     Edge 22, Type (0, 1), BuildingBlock: KIFKEQ_clean_linker_1, # of connection points: 2
#     Edge 23, Type (0, 1), BuildingBlock: KIFKEQ_clean_linker_1, # of connection points: 2
#     Edge 24, Type (0, 1), BuildingBlock: KIFKEQ_clean_linker_1, # of connection points: 2
#     Edge 25, Type (0, 1), BuildingBlock: KIFKEQ_clean_linker_1, # of connection points: 2
#     Edge 26, Type (0, 1), BuildingBlock: KIFKEQ_clean_linker_1, # of connection points: 2
#     Edge 27, Type (0, 1), BuildingBlock: KIFKEQ_clean_linker_1, # of connection points: 2
#     Edge 28, Type (0, 1), BuildingBlock: KIFKEQ_clean_linker_1, # of connection points: 2
#     Edge 29, Type (0, 1), BuildingBlock: KIFKEQ_clean_linker_1, # of connection points: 2
#     Edge 30, Type (0, 1), BuildingBlock: KIFKEQ_clean_linker_1, # of connection points: 2
#     Edge 31, Type (0, 1), BuildingBlock: KIFKEQ_clean_linker_1, # of connection points: 2
#     Edge 32, Type (0, 1), BuildingBlock: KIFKEQ_clean_linker_1, # of connection points: 2
#     Edge 33, Type (0, 1), BuildingBlock: KIFKEQ_clean_linker_1, # of connection points: 2
#     Edge 34, Type (0, 1), BuildingBlock: KIFKEQ_clean_linker_1, # of connection points: 2
#     Edge 35, Type (0, 1), BuildingBlock: KIFKEQ_clean_linker_1, # of connection points: 2
# Relax obj value: 0.022
# Max RMSD: 0.119
# Mean RMSD: 0.104
data_MOF--net-nom--node1-TATPOV_clean_sbu_0--node2-MUDLON_clean_linker_0--edge1-KIFKEQ_clean_linker_1
_symmetry_space_group_name_H-M    P1
_symmetry_Int_Tables_number       1
_symmetry_cell_setting            triclinic
loop_
_symmetry_equiv_pos_as_xyz
'x, y, z'
_cell_length_a     60.388794
_cell_length_b     61.787271
_cell_length_c     61.021567
_cell_angle_alpha  90.959433
_cell_angle_beta   90.518897
_cell_angle_gamma 120.40416
loop_
_atom_site_label
_atom_site_type_symbol
_atom_site_fract_x
_atom_site_fract_y
_atom_site_fract_z
_atom_type_partial_charge
H0 H 0.15161 0.52796 0.32128 0.0
N1 N 0.10439 0.5166 0.3311 0.0
H2 H 0.18215 0.56215 0.29914 0.0
H3 H 0.09293 0.54518 0.30405 0.0
H4 H 0.12258 0.57799 0.28027 0.0
H5 H 0.10969 0.56035 0.34791 0.0
H6 H 0.1284 0.5798 0.38353 0.0
H7 H 0.11835 0.49716 0.36329 0.0
H8 H 0.13759 0.51683 0.39911 0.0
H9 H 0.07955 0.47174 0.3112 0.0
H10 H 0.06724 0.52856 0.34084 0.0
H11 H 0.03326 0.44543 0.30375 0.0
H12 H 0.02134 0.50254 0.33352 0.0
H13 H 0.88215 0.37063 0.27688 0.0
H14 H 0.86237 0.36935 0.24123 0.0
H15 H 0.90759 0.45026 0.23936 0.0
H16 H 0.92694 0.45137 0.27491 0.0
H17 H 0.91557 0.45538 0.31108 0.0
H18 H 0.8835 0.46004 0.33118 0.0
H19 H 0.8417 0.38027 0.34243 0.0
H20 H 0.87443 0.37593 0.3227 0.0
H21 H 0.95286 0.41884 0.27395 0.0
H22 H 0.99885 0.44459 0.28092 0.0
H23 H 0.98487 0.46216 0.3462 0.0
N24 N 0.91407 0.4112 0.30107 0.0
H25 H 0.93904 0.43656 0.33951 0.0
C26 C 0.11997 0.5338 0.31442 0.0
C27 C 0.14509 0.53859 0.31206 0.0
C28 C 0.16253 0.55817 0.29919 0.0
C29 C 0.15511 0.57322 0.28782 0.0
C30 C 0.12936 0.56738 0.28915 0.0
C31 C 0.1121 0.54819 0.30256 0.0
C32 C 0.11225 0.52702 0.35306 0.0
C33 C 0.11497 0.55032 0.35919 0.0
C34 C 0.12579 0.56149 0.37956 0.0
C35 C 0.13447 0.54983 0.39409 0.0
C36 C 0.1312 0.52629 0.38817 0.0
C37 C 0.12006 0.51496 0.36786 0.0
C38 C 0.07701 0.50199 0.32678 0.0
C39 C 0.06689 0.47853 0.31608 0.0
C40 C 0.0405 0.46361 0.31176 0.0
C41 C 0.02362 0.47186 0.31816 0.0
C42 C 0.03379 0.49548 0.32871 0.0
C43 C 0.06019 0.51045 0.3329 0.0
C44 C 0.90593 0.41099 0.27862 0.0
C45 C 0.88809 0.38801 0.26853 0.0
C46 C 0.87685 0.38733 0.24819 0.0
C47 C 0.88319 0.40972 0.23761 0.0
C48 C 0.90192 0.4327 0.2473 0.0
C49 C 0.91311 0.43336 0.2676 0.0
C50 C 0.89744 0.4152 0.31544 0.0
C51 C 0.89971 0.43894 0.3181 0.0
C52 C 0.88123 0.44154 0.32951 0.0
C53 C 0.85983 0.42049 0.33823 0.0
C54 C 0.85805 0.39694 0.33616 0.0
C55 C 0.87669 0.39438 0.32487 0.0
C56 C 0.94169 0.42706 0.30539 0.0
C57 C 0.95943 0.42869 0.28962 0.0
C58 C 0.9859 0.44318 0.29371 0.0
C59 C 0.9955 0.45595 0.31391 0.0
C60 C 0.97805 0.45328 0.33017 0.0
C61 C 0.95159 0.43866 0.32616 0.0
H62 H 0.50734 0.9001 0.47465 0.0
N63 N 0.50644 0.93973 0.45968 0.0
H64 H 0.47618 0.86788 0.49849 0.0
H65 H 0.47024 0.94351 0.48393 0.0
H66 H 0.43959 0.91187 0.50819 0.0
H67 H 0.4569 0.92128 0.44473 0.0
H68 H 0.4387 0.89947 0.40974 0.0
H69 H 0.53161 0.93512 0.42595 0.0
H70 H 0.51339 0.91388 0.3903 0.0
H71 H 0.55189 0.97151 0.47775 0.0
H72 H 0.48508 0.9683 0.44836 0.0
H73 H 0.572 0.01701 0.48263 0.0
H74 H 0.5053 0.01382 0.45252 0.0
H75 H 0.61794 0.1261 0.52176 0.0
H76 H 0.6143 0.13936 0.55914 0.0
H77 H 0.55276 0.15043 0.53697 0.0
H78 H 0.55584 0.1365 0.50006 0.0
H79 H 0.55563 0.12683 0.45961 0.0
H80 H 0.56146 0.16365 0.44015 0.0
H81 H 0.64207 0.20314 0.45819 0.0
H82 H 0.63597 0.16642 0.47787 0.0
H83 H 0.61237 0.09952 0.46954 0.0
H84 H 0.59087 0.05437 0.46157 0.0
H85 H 0.51843 0.04708 0.47981 0.0
N86 N 0.59198 0.1253 0.48596 0.0
H87 H 0.54003 0.09235 0.487 0.0
C88 C 0.49124 0.92421 0.47739 0.0
C89 C 0.49299 0.90306 0.48241 0.0
C90 C 0.47517 0.88468 0.49607 0.0
C91 C 0.45516 0.88713 0.50505 0.0
C92 C 0.45448 0.90919 0.50122 0.0
C93 C 0.47226 0.92751 0.48748 0.0
C94 C 0.49569 0.9295 0.43816 0.0
C95 C 0.46949 0.91986 0.43306 0.0
C96 C 0.45905 0.90738 0.41305 0.0
C97 C 0.47464 0.90482 0.39754 0.0
C98 C 0.50103 0.91562 0.40208 0.0
C99 C 0.51141 0.92771 0.42232 0.0
C100 C 0.51715 0.96647 0.46261 0.0
C101 C 0.54164 0.98068 0.47228 0.0
C102 C 0.55315 0.0067 0.47485 0.0
C103 C 0.5404 0.01918 0.46773 0.0
C104 C 0.51562 0.00485 0.45829 0.0
C105 C 0.50408 0.97875 0.45577 0.0
C106 C 0.58753 0.13066 0.50805 0.0
C107 C 0.60342 0.131 0.52511 0.0
C108 C 0.60131 0.13853 0.54635 0.0
C109 C 0.58345 0.14614 0.55075 0.0
C110 C 0.56688 0.14491 0.53387 0.0
C111 C 0.56867 0.13696 0.51276 0.0
C112 C 0.59545 0.14397 0.47032 0.0
C113 C 0.57467 0.14314 0.45889 0.0
C114 C 0.57802 0.16423 0.44777 0.0
C115 C 0.60214 0.18644 0.44797 0.0
C116 C 0.62316 0.18648 0.45808 0.0
C117 C 0.6198 0.16547 0.46912 0.0
C118 C 0.57794 0.09929 0.47896 0.0
C119 C 0.59179 0.08818 0.47144 0.0
C120 C 0.57949 0.06235 0.46714 0.0
C121 C 0.55296 0.04698 0.4704 0.0
C122 C 0.53885 0.05833 0.47704 0.0
C123 C 0.55121 0.08426 0.48124 0.0
H124 H 0.49107 0.63997 0.644 0.0
N125 N 0.48462 0.59665 0.65728 0.0
H126 H 0.46188 0.6468 0.62114 0.0
H127 H 0.44302 0.56005 0.63366 0.0
H128 H 0.4139 0.56665 0.61043 0.0
H129 H 0.43678 0.56613 0.67363 0.0
H130 H 0.42273 0.56806 0.7104 0.0
H131 H 0.5133 0.62574 0.69077 0.0
H132 H 0.49973 0.62703 0.72825 0.0
H133 H 0.53118 0.61096 0.643 0.0
H134 H 0.46075 0.54552 0.66157 0.0
H135 H 0.55143 0.58555 0.6388 0.0
H136 H 0.48054 0.5197 0.6568 0.0
H137 H 0.62389 0.51324 0.63685 0.0
H138 H 0.63801 0.50161 0.60365 0.0
H139 H 0.55974 0.46258 0.57846 0.0
H140 H 0.54575 0.47323 0.61237 0.0
H141 H 0.53434 0.45274 0.64825 0.0
H142 H 0.53119 0.41773 0.66908 0.0
H143 H 0.60354 0.46839 0.70175 0.0
H144 H 0.6066 0.50318 0.68071 0.0
H145 H 0.57782 0.53309 0.61832 0.0
H146 H 0.5528 0.55375 0.61766 0.0
H147 H 0.5127 0.51375 0.67509 0.0
N148 N 0.5763 0.50015 0.64764 0.0
H149 H 0.53692 0.49227 0.67537 0.0
C150 C 0.46936 0.59963 0.64058 0.0
C151 C 0.47457 0.62394 0.63627 0.0
C152 C 0.45785 0.62777 0.62316 0.0
C153 C 0.43541 0.60725 0.61402 0.0
C154 C 0.43082 0.58285 0.61746 0.0
C155 C 0.44763 0.57905 0.63062 0.0
C156 C 0.47613 0.59605 0.67938 0.0
C157 C 0.45068 0.57949 0.68538 0.0
C158 C 0.4427 0.58048 0.70658 0.0
C159 C 0.46006 0.59775 0.72239 0.0
C160 C 0.48571 0.61382 0.71645 0.0
C161 C 0.49358 0.61298 0.69513 0.0
C162 C 0.49454 0.58025 0.65248 0.0
C163 C 0.51994 0.59097 0.64569 0.0
C164 C 0.53142 0.57634 0.64323 0.0
C165 C 0.51763 0.55049 0.64744 0.0
C166 C 0.49182 0.53958 0.65366 0.0
C167 C 0.48038 0.5543 0.65618 0.0
C168 C 0.58395 0.49444 0.62696 0.0
C169 C 0.60988 0.50231 0.62406 0.0
C170 C 0.61788 0.49569 0.605 0.0
C171 C 0.60007 0.48125 0.58819 0.0
C172 C 0.57397 0.4734 0.59112 0.0
C173 C 0.56594 0.47971 0.6104 0.0
C174 C 0.5708 0.48058 0.66297 0.0
C175 C 0.54915 0.45638 0.66031 0.0
C176 C 0.54737 0.43642 0.67226 0.0
C177 C 0.56729 0.4403 0.68685 0.0
C178 C 0.58807 0.4648 0.69043 0.0
C179 C 0.58973 0.48471 0.67862 0.0
C180 C 0.55884 0.50992 0.64621 0.0
C181 C 0.56306 0.52794 0.6304 0.0
C182 C 0.54894 0.54016 0.63022 0.0
C183 C 0.53064 0.53543 0.64629 0.0
C184 C 0.52622 0.51746 0.66213 0.0
C185 C 0.54024 0.50504 0.66224 0.0
H186 H 0.12644 0.61944 0.81278 0.0
N187 N 0.08806 0.57973 0.79244 0.0
H188 H 0.1607 0.62078 0.83546 0.0
H189 H 0.08896 0.53877 0.80813 0.0
H190 H 0.12254 0.53979 0.83131 0.0
H191 H 0.10352 0.55183 0.76873 0.0
H192 H 0.12548 0.56316 0.73367 0.0
H193 H 0.09435 0.61656 0.76676 0.0
H194 H 0.1161 0.62792 0.73156 0.0
H195 H 0.05682 0.59253 0.81089 0.0
H196 H 0.05798 0.53029 0.77927 0.0
H197 H 0.0105 0.56675 0.81516 0.0
H198 H 0.01169 0.50378 0.78438 0.0
H199 H 0.86599 0.4933 0.82825 0.0
H200 H 0.84687 0.48248 0.86446 0.0
H201 H 0.88625 0.44159 0.87659 0.0
H202 H 0.90463 0.45195 0.84005 0.0
H203 H 0.88763 0.43184 0.80469 0.0
H204 H 0.85124 0.39789 0.78402 0.0
H205 H 0.83207 0.45142 0.75883 0.0
H206 H 0.86811 0.48504 0.77986 0.0
H207 H 0.93349 0.51208 0.83874 0.0
H208 H 0.97955 0.53361 0.83532 0.0
H209 H 0.97066 0.49703 0.77224 0.0
N210 N 0.89713 0.47997 0.8098 0.0
H211 H 0.92435 0.47417 0.77617 0.0
C212 C 0.10514 0.57913 0.80876 0.0
C213 C 0.12526 0.60199 0.81719 0.0
C214 C 0.14477 0.60268 0.8302 0.0
C215 C 0.14451 0.58039 0.83507 0.0
C216 C 0.12357 0.55734 0.82755 0.0
C217 C 0.10413 0.5567 0.81443 0.0
C218 C 0.09746 0.58355 0.77041 0.0
C219 C 0.10583 0.56824 0.76059 0.0
C220 C 0.11852 0.5748 0.74062 0.0
C221 C 0.12267 0.59652 0.72998 0.0
C222 C 0.11303 0.61098 0.73928 0.0
C223 C 0.10063 0.60456 0.75935 0.0
C224 C 0.06087 0.56336 0.79503 0.0
C225 C 0.04703 0.57314 0.80515 0.0
C226 C 0.02056 0.55825 0.8077 0.0
C227 C 0.00726 0.53298 0.80039 0.0
C228 C 0.02121 0.52316 0.79011 0.0
C229 C 0.04777 0.53825 0.78736 0.0
C230 C 0.88683 0.47366 0.83156 0.0
C231 C 0.87047 0.48205 0.83879 0.0
C232 C 0.85968 0.47591 0.85951 0.0
C233 C 0.86515 0.46128 0.87352 0.0
C234 C 0.88139 0.45263 0.86614 0.0
C235 C 0.89205 0.45866 0.84531 0.0
C236 C 0.88032 0.46094 0.79396 0.0
C237 C 0.8759 0.4363 0.79437 0.0
C238 C 0.85509 0.41693 0.7826 0.0
C239 C 0.83865 0.42196 0.76999 0.0
C240 C 0.84446 0.44695 0.76825 0.0
C241 C 0.86503 0.46619 0.78022 0.0
C242 C 0.92475 0.49034 0.80828 0.0
C243 C 0.9412 0.50782 0.82444 0.0
C244 C 0.96778 0.52064 0.82227 0.0
C245 C 0.97897 0.51727 0.80342 0.0
C246 C 0.96278 0.49981 0.78718 0.0
C247 C 0.93604 0.48662 0.78949 0.0
H248 H 0.54306 0.13551 0.9929 0.0
N249 N 0.55227 0.10221 0.9736 0.0
H250 H 0.57296 0.17241 0.01499 0.0
H251 H 0.5989 0.11189 0.98958 0.0
H252 H 0.62907 0.14868 0.01209 0.0
H253 H 0.59694 0.13371 0.95242 0.0
H254 H 0.60027 0.15159 0.91692 0.0
H255 H 0.51481 0.08812 0.94363 0.0
H256 H 0.51814 0.10377 0.90669 0.0
H257 H 0.51803 0.07197 0.00193 0.0
H258 H 0.57108 0.0748 0.95374 0.0
H259 H 0.5015 0.02713 0.00622 0.0
H260 H 0.55411 0.02951 0.95754 0.0
H261 H 0.41529 0.90774 0.00479 0.0
H262 H 0.39857 0.88652 0.03952 0.0
H263 H 0.4677 0.88327 0.04967 0.0
H264 H 0.48443 0.90489 0.01526 0.0
H265 H 0.49223 0.90108 0.97896 0.0
H266 H 0.48133 0.86246 0.95859 0.0
H267 H 0.41132 0.85786 0.93479 0.0
H268 H 0.42146 0.89517 0.95683 0.0
H269 H 0.48632 0.95157 0.02074 0.0
H270 H 0.51452 0.99631 0.01856 0.0
H271 H 0.50929 0.99062 0.948 0.0
N272 N 0.45931 0.91872 0.98617 0.0
H273 H 0.48072 0.94533 0.94987 0.0
C274 C 0.56873 0.12105 0.98967 0.0
C275 C 0.56158 0.13801 -0.00249 0.0
C276 C 0.57872 0.15904 0.01018 0.0
C277 C 0.60351 0.16361 0.01526 0.0
C278 C 0.61023 0.14587 0.00826 0.0
C279 C 0.59296 0.12471 0.99561 0.0
C280 C 0.55538 0.11007 0.9511 0.0
C281 C 0.57956 0.12715 0.9427 0.0
C282 C 0.58148 0.13717 0.92199 0.0
C283 C 0.55943 0.12964 0.90871 0.0
C284 C 0.53552 0.11096 0.91656 0.0
C285 C 0.53354 0.10162 0.93761 0.0
C286 C 0.54552 0.07664 0.97745 0.0
C287 C 0.52636 0.06293 0.99254 0.0
C288 C 0.51702 0.03734 0.99499 0.0
C289 C 0.52649 0.02478 0.98217 0.0
C290 C 0.54638 0.03869 0.96752 0.0
C291 C 0.55609 0.06453 0.96538 0.0
C292 C 0.45089 0.90767 0.00735 0.0
C293 C 0.42686 0.90261 0.01465 0.0
C294 C 0.4174 0.89055 0.03445 0.0
C295 C 0.43179 0.88311 0.0472 0.0
C296 C 0.45604 0.88844 0.03999 0.0
C297 C 0.46559 0.90073 0.0203 0.0
C298 C 0.4572 0.90052 0.96989 0.0
C299 C 0.47461 0.89176 0.96928 0.0
C300 C 0.46842 0.86974 0.95738 0.0
C301 C 0.44499 0.85644 0.94547 0.0
C302 C 0.42903 0.86691 0.9444 0.0
C303 C 0.43496 0.88851 0.95668 0.0
C304 C 0.48124 0.94415 0.98536 0.0
C305 C 0.49167 0.95928 0.00459 0.0
C306 C 0.50784 0.98524 0.00345 0.0
C307 C 0.51399 0.99701 0.98315 0.0
C308 C 0.50511 0.98204 0.96391 0.0
C309 C 0.48876 0.956 0.96501 0.0
H310 H 0.54865 0.4477 0.15864 0.0
N311 N 0.57297 0.49745 0.1708 0.0
H312 H 0.56478 0.42854 0.13262 0.0
H313 H 0.6106 0.52115 0.14282 0.0
H314 H 0.6268 0.5023 0.11673 0.0
H315 H 0.61457 0.5164 0.19631 0.0
H316 H 0.61933 0.50163 0.23196 0.0
H317 H 0.53472 0.45876 0.19318 0.0
H318 H 0.53906 0.44405 0.22915 0.0
H319 H 0.52275 0.46938 0.15729 0.0
H320 H 0.58238 0.54388 0.17682 0.0
H321 H 0.49254 0.48452 0.15266 0.0
H322 H 0.55235 0.55921 0.17265 0.0
H323 H 0.41119 0.52424 0.12465 0.0
H324 H 0.40003 0.5311 0.08769 0.0
H325 H 0.46394 0.60728 0.09098 0.0
H326 H 0.47493 0.60035 0.12763 0.0
H327 H 0.48642 0.60447 0.16515 0.0
H328 H 0.48004 0.63496 0.18603 0.0
H329 H 0.40062 0.57862 0.19496 0.0
H330 H 0.40689 0.54841 0.17339 0.0
H331 H 0.43963 0.51544 0.16978 0.0
H332 H 0.46974 0.50021 0.17449 0.0
H333 H 0.52904 0.56728 0.14459 0.0
N334 N 0.4482 0.55747 0.15138 0.0
H335 H 0.49906 0.58244 0.14036 0.0
C336 C 0.57867 0.48591 0.15275 0.0
C337 C 0.56537 0.45974 0.1492 0.0
C338 C 0.57466 0.4488 0.13439 0.0
C339 C 0.59717 0.46388 0.12273 0.0
C340 C 0.60928 0.49014 0.12525 0.0
C341 C 0.60012 0.50098 0.14017 0.0
C342 C 0.57437 0.48888 0.19226 0.0
C343 C 0.59801 0.50073 0.20352 0.0
C344 C 0.60061 0.49229 0.22389 0.0
C345 C 0.5795 0.47175 0.23348 0.0
C346 C 0.55571 0.4598 0.22213 0.0
C347 C 0.55315 0.46831 0.20166 0.0
C348 C 0.55481 0.50564 0.16731 0.0
C349 C 0.5293 0.48899 0.16057 0.0
C350 C 0.51205 0.49767 0.15808 0.0
C351 C 0.52003 0.52311 0.16228 0.0
C352 C 0.54564 0.53962 0.16897 0.0
C353 C 0.56279 0.53092 0.17145 0.0
C354 C 0.44371 0.56166 0.12902 0.0
C355 C 0.42292 0.54228 0.11724 0.0
C356 C 0.41664 0.54624 0.09617 0.0
C357 C 0.43105 0.5698 0.08653 0.0
C358 C 0.4523 0.58904 0.09812 0.0
C359 C 0.45867 0.58501 0.11911 0.0
C360 C 0.44692 0.57416 0.16743 0.0
C361 C 0.46773 0.5985 0.17183 0.0
C362 C 0.4641 0.61595 0.18378 0.0
C363 C 0.4398 0.60917 0.19195 0.0
C364 C 0.41959 0.5843 0.18897 0.0
C365 C 0.42312 0.56705 0.17669 0.0
C366 C 0.46701 0.55003 0.15486 0.0
C367 C 0.45921 0.52688 0.16444 0.0
C368 C 0.47636 0.51813 0.16691 0.0
C369 C 0.50178 0.53246 0.15982 0.0
C370 C 0.50968 0.55588 0.15045 0.0
C371 C 0.49249 0.5646 0.14798 0.0
Zn372 Zn 0.68094 0.45715 0.40287 0.0
Zn373 Zn 0.65333 0.40744 0.40689 0.0
O374 O 0.68985 0.41486 0.39976 0.0
O375 O 0.7127 0.45568 0.39567 0.0
O376 O 0.63507 0.37012 0.41196 0.0
O377 O 0.67359 0.4628 0.43364 0.0
O378 O 0.64893 0.4219 0.43649 0.0
C379 C 0.71112 0.43445 0.39555 0.0
C380 C 0.63772 0.43239 0.37232 0.0
O381 O 0.63433 0.41216 0.38066 0.0
O382 O 0.65578 0.45352 0.37922 0.0
C383 C 0.6354 0.35478 0.39798 0.0
O384 O 0.64647 0.36323 0.37911 0.0
C385 C 0.65821 0.44406 0.44461 0.0
Zn386 Zn 0.24712 0.69682 0.55801 0.0
Zn387 Zn 0.2728 0.67245 0.56428 0.0
O388 O 0.3011 0.70958 0.56003 0.0
O389 O 0.28011 0.72988 0.55641 0.0
O390 O 0.29357 0.65582 0.57067 0.0
O391 O 0.22962 0.68493 0.58688 0.0
O392 O 0.25028 0.66447 0.59168 0.0
C393 C 0.30113 0.73004 0.55736 0.0
C394 C 0.23581 0.65794 0.52505 0.0
O395 O 0.25142 0.65433 0.53643 0.0
O396 O 0.23126 0.67515 0.53062 0.0
C397 C 0.31034 0.65688 0.55757 0.0
O398 O 0.31371 0.66842 0.53894 0.0
C399 C 0.2342 0.67064 0.59826 0.0
Zn400 Zn 0.55109 0.23184 0.73122 0.0
Zn401 Zn 0.60313 0.25977 0.73389 0.0
O402 O 0.59156 0.28595 0.7326 0.0
O403 O 0.54964 0.26364 0.72749 0.0
O404 O 0.64184 0.28079 0.73685 0.0
O405 O 0.55084 0.21896 0.76161 0.0
O406 O 0.5931 0.2379 0.7612 0.0
C407 C 0.57009 0.28479 0.72936 0.0
C408 C 0.57697 0.22177 0.69609 0.0
O409 O 0.59705 0.23986 0.70518 0.0
O410 O 0.55515 0.21405 0.70446 0.0
C411 C 0.65466 0.30134 0.72692 0.0
O412 O 0.64249 0.30899 0.71413 0.0
C413 C 0.57189 0.22348 0.77037 0.0
Zn414 Zn 0.34242 0.57504 0.89853 0.0
Zn415 Zn 0.36589 0.62526 0.90272 0.0
O416 O 0.32769 0.61423 0.89707 0.0
O417 O 0.30865 0.57319 0.8927 0.0
O418 O 0.38354 0.66309 0.90711 0.0
O419 O 0.35279 0.57255 0.92918 0.0
O420 O 0.37408 0.61382 0.93198 0.0
C421 C 0.30744 0.59306 0.89318 0.0
C422 C 0.38159 0.6008 0.86662 0.0
O423 O 0.38335 0.62038 0.8757 0.0
O424 O 0.36599 0.57926 0.87371 0.0
C425 C 0.37665 0.67629 0.89644 0.0
O426 O 0.35788 0.6652 0.88181 0.0
C427 C 0.36724 0.59249 0.94014 0.0
Zn428 Zn 0.78358 0.44484 0.06731 0.0
Zn429 Zn 0.75529 0.3953 0.06109 0.0
O430 O 0.72788 0.40548 0.06644 0.0
O431 O 0.75134 0.44663 0.06987 0.0
O432 O 0.73419 0.35793 0.05468 0.0
O433 O 0.80007 0.44906 0.03816 0.0
O434 O 0.77556 0.40832 0.03236 0.0
C435 C 0.72954 0.42676 0.06929 0.0
C436 C 0.79421 0.41787 0.09964 0.0
O437 O 0.77738 0.39872 0.0886 0.0
O438 O 0.79999 0.4397 0.09394 0.0
C439 C 0.72171 0.34168 0.06903 0.0
O440 O 0.7224 0.34915 0.08944 0.0
C441 C 0.79271 0.42984 0.02586 0.0
Zn442 Zn 0.33664 0.78863 0.23095 0.0
Zn443 Zn 0.36251 0.76337 0.22759 0.0
O444 O 0.32484 0.73588 0.23168 0.0
O445 O 0.30422 0.75616 0.23823 0.0
O446 O 0.38107 0.74383 0.22492 0.0
O447 O 0.34563 0.7991 0.19945 0.0
O448 O 0.36988 0.78189 0.19852 0.0
C449 C 0.30428 0.73573 0.23647 0.0
C450 C 0.37804 0.80482 0.26282 0.0
O451 O 0.37984 0.78675 0.25443 0.0
O452 O 0.36174 0.81005 0.25524 0.0
C453 C 0.37332 0.72335 0.23485 0.0
O454 O 0.35324 0.71504 0.24745 0.0
C455 C 0.3613 0.7947 0.18946 0.0
H456 H 0.15632 0.618 0.28217 0.0
H457 H 0.19864 0.58054 0.26687 0.0
H458 H 0.18961 0.65586 0.26613 0.0
H459 H 0.23341 0.61932 0.2534 0.0
H460 H 0.2895 0.68915 0.21934 0.0
H461 H 0.25133 0.64951 0.2279 0.0
H462 H 0.22927 0.68878 0.2742 0.0
H463 H 0.26622 0.72831 0.26418 0.0
C464 C 0.17259 0.61763 0.27531 0.0
C465 C 0.17464 0.59595 0.27616 0.0
C466 C 0.19214 0.63973 0.26649 0.0
C467 C 0.21475 0.64115 0.25882 0.0
C468 C 0.21639 0.61922 0.25894 0.0
C469 C 0.1965 0.5969 0.26717 0.0
C470 C 0.27623 0.68919 0.23115 0.0
C471 C 0.28076 0.71177 0.24107 0.0
C472 C 0.2544 0.66642 0.23625 0.0
C473 C 0.23697 0.6656 0.2519 0.0
C474 C 0.24165 0.68841 0.26168 0.0
C475 C 0.26305 0.7112 0.2561 0.0
H476 H 0.62708 0.23254 0.468 0.0
H477 H 0.5834 0.19395 0.40931 0.0
H478 H 0.63217 0.27176 0.455 0.0
H479 H 0.5882 0.23348 0.39632 0.0
H480 H 0.63413 0.31722 0.37245 0.0
H481 H 0.62369 0.2754 0.38378 0.0
H482 H 0.60542 0.29088 0.44827 0.0
H483 H 0.616 0.33266 0.4371 0.0
C484 C 0.61867 0.23247 0.45223 0.0
C485 C 0.60505 0.21018 0.43958 0.0
C486 C 0.6213 0.25491 0.44491 0.0
C487 C 0.61046 0.25571 0.42469 0.0
C488 C 0.59684 0.23345 0.41194 0.0
C489 C 0.59399 0.21084 0.4194 0.0
C490 C 0.62758 0.3116 0.38897 0.0
C491 C 0.62617 0.32842 0.40393 0.0
C492 C 0.62149 0.28758 0.39541 0.0
C493 C 0.61401 0.27995 0.41699 0.0
C494 C 0.61154 0.29637 0.43164 0.0
C495 C 0.61749 0.32029 0.42519 0.0
H496 H 0.38304 0.57995 0.61705 0.0
H497 H 0.44389 0.64422 0.58521 0.0
H498 H 0.35162 0.58919 0.60127 0.0
H499 H 0.4126 0.65413 0.57025 0.0
H500 H 0.34814 0.6562 0.53362 0.0
H501 H 0.37705 0.64149 0.54489 0.0
H502 H 0.3396 0.62043 0.60733 0.0
H503 H 0.31036 0.63454 0.59589 0.0
C504 C 0.38971 0.59586 0.60643 0.0
C505 C 0.41605 0.6114 0.60249 0.0
C506 C 0.3717 0.60136 0.59762 0.0
C507 C 0.37956 0.62256 0.58467 0.0
C508 C 0.4058 0.63755 0.58003 0.0
C509 C 0.4238 0.63202 0.58881 0.0
C510 C 0.34593 0.64823 0.54969 0.0
C511 C 0.32697 0.64664 0.56388 0.0
C512 C 0.36262 0.63992 0.55619 0.0
C513 C 0.36075 0.62983 0.57705 0.0
C514 C 0.3414 0.62775 0.59103 0.0
C515 C 0.32471 0.63602 0.58452 0.0
H516 H 0.80383 0.37973 0.79054 0.0
H517 H 0.81725 0.41783 0.72921 0.0
H518 H 0.76047 0.3491 0.7782 0.0
H519 H 0.77397 0.38667 0.71642 0.0
H520 H 0.68602 0.34992 0.71517 0.0
H521 H 0.73156 0.3769 0.72352 0.0
H522 H 0.73284 0.31518 0.75467 0.0
H523 H 0.68694 0.28849 0.74706 0.0
C524 C 0.79774 0.38112 0.77414 0.0
C525 C 0.81393 0.40123 0.76087 0.0
C526 C 0.77281 0.36351 0.76701 0.0
C527 C 0.7635 0.36544 0.74634 0.0
C528 C 0.78023 0.38488 0.73263 0.0
C529 C 0.80509 0.40265 0.73986 0.0
C530 C 0.69605 0.34205 0.72368 0.0
C531 C 0.68279 0.31711 0.73061 0.0
C532 C 0.72229 0.35749 0.72833 0.0
C533 C 0.73603 0.34831 0.73984 0.0
C534 C 0.72286 0.32308 0.74614 0.0
C535 C 0.69654 0.30771 0.74168 0.0
H536 H 0.47377 0.83785 0.92668 0.0
H537 H 0.39583 0.81632 0.94308 0.0
H538 H 0.45872 0.79492 0.91341 0.0
H539 H 0.381 0.77416 0.92901 0.0
H540 H 0.36006 0.70767 0.88286 0.0
H541 H 0.37787 0.75193 0.89271 0.0
H542 H 0.43802 0.75114 0.9308 0.0
H543 H 0.42013 0.7067 0.92107 0.0
C544 C 0.45349 0.82414 0.92741 0.0
C545 C 0.43608 0.83083 0.93587 0.0
C546 C 0.44489 0.79957 0.91973 0.0
C547 C 0.41867 0.78126 0.92005 0.0
C548 C 0.40126 0.78798 0.92819 0.0
C549 C 0.40984 0.81232 0.93613 0.0
C550 C 0.3772 0.71693 0.8932 0.0
C551 C 0.38856 0.70358 0.9013 0.0
C552 C 0.38734 0.74227 0.89889 0.0
C553 C 0.40928 0.75496 0.91258 0.0
C554 C 0.4212 0.74189 0.92009 0.0
C555 C 0.41085 0.71641 0.91463 0.0
H556 H 0.61936 0.4774 0.08254 0.0
H557 H 0.60426 0.42532 0.13446 0.0
H558 H 0.64752 0.46467 0.06543 0.0
H559 H 0.63252 0.41274 0.1175 0.0
H560 H 0.68036 0.38912 0.07791 0.0
H561 H 0.64344 0.39385 0.08659 0.0
H562 H 0.6899 0.47373 0.07721 0.0
H563 H 0.72629 0.46903 0.06835 0.0
C564 C 0.62174 0.46294 0.0901 0.0
C565 C 0.60985 0.4526 0.10999 0.0
C566 C 0.63788 0.45567 0.08033 0.0
C567 C 0.6426 0.43799 0.0903 0.0
C568 C 0.62919 0.42628 0.1093 0.0
C569 C 0.61296 0.4335 0.11903 0.0
C570 C 0.6825 0.4076 0.07741 0.0
C571 C 0.70633 0.42872 0.07262 0.0
C572 C 0.66141 0.41032 0.08245 0.0
C573 C 0.6637 0.43416 0.08256 0.0
C574 C 0.68728 0.45504 0.07695 0.0
C575 C 0.70829 0.45236 0.07208 0.0
H576 H 0.45758 0.85502 0.53449 0.0
H577 H 0.40398 0.87021 0.50055 0.0
H578 H 0.42163 0.81781 0.55031 0.0
H579 H 0.36839 0.83336 0.51621 0.0
H580 H 0.3085 0.77732 0.55904 0.0
H581 H 0.34686 0.81631 0.54986 0.0
H582 H 0.3871 0.77607 0.5384 0.0
H583 H 0.34872 0.73693 0.54822 0.0
C584 C 0.43817 0.85051 0.53049 0.0
C585 C 0.4337 0.86572 0.51636 0.0
C586 C 0.41759 0.82918 0.53952 0.0
C587 C 0.39211 0.82262 0.53461 0.0
C588 C 0.38773 0.8381 0.52076 0.0
C589 C 0.40822 0.85933 0.51177 0.0
C590 C 0.32559 0.77677 0.55479 0.0
C591 C 0.32545 0.75395 0.55411 0.0
C592 C 0.34757 0.79915 0.54942 0.0
C593 C 0.36995 0.7993 0.54304 0.0
C594 C 0.37024 0.77666 0.54336 0.0
C595 C 0.34821 0.7542 0.54889 0.0
H596 H 0.60738 0.43196 0.68823 0.0
H597 H 0.5282 0.39949 0.70674 0.0
H598 H 0.60776 0.39513 0.70096 0.0
H599 H 0.52868 0.3627 0.72026 0.0
H600 H 0.52971 0.28894 0.7143 0.0
H601 H 0.52903 0.32702 0.70653 0.0
H602 H 0.60725 0.37161 0.731 0.0
H603 H 0.60825 0.33336 0.73786 0.0
C604 C 0.59019 0.41714 0.69552 0.0
C605 C 0.56776 0.41864 0.69653 0.0
C606 C 0.59041 0.39599 0.7029 0.0
C607 C 0.56825 0.37581 0.71169 0.0
C608 C 0.54598 0.37764 0.71326 0.0
C609 C 0.5457 0.39875 0.70561 0.0
C610 C 0.54672 0.30686 0.71819 0.0
C611 C 0.56911 0.30808 0.72655 0.0
C612 C 0.54627 0.32878 0.71387 0.0
C613 C 0.56811 0.35252 0.71803 0.0
C614 C 0.59022 0.3537 0.72716 0.0
C615 C 0.59076 0.33175 0.73124 0.0
H616 H 0.17386 0.61119 0.86959 0.0
H617 H 0.16655 0.55226 0.8256 0.0
H618 H 0.2126 0.61449 0.88599 0.0
H619 H 0.20484 0.55539 0.84207 0.0
H620 H 0.26061 0.55068 0.88766 0.0
H621 H 0.22034 0.54736 0.87623 0.0
H622 H 0.25739 0.62819 0.87537 0.0
H623 H 0.29787 0.63162 0.88722 0.0
C624 C 0.18044 0.5989 0.86346 0.0
C625 C 0.16698 0.58136 0.84634 0.0
C626 C 0.20263 0.60081 0.87285 0.0
C627 C 0.21174 0.58515 0.86539 0.0
C628 C 0.19807 0.56742 0.84849 0.0
C629 C 0.17603 0.56557 0.83908 0.0
C630 C 0.26022 0.56781 0.88522 0.0
C631 C 0.28258 0.59144 0.88814 0.0
C632 C 0.23711 0.56587 0.87858 0.0
C633 C 0.23573 0.58749 0.87463 0.0
C634 C 0.2578 0.61118 0.8784 0.0
C635 C 0.28102 0.61314 0.88509 0.0
H636 H 0.59627 0.18883 0.04931 0.0
H637 H 0.65422 0.19354 0.00544 0.0
H638 H 0.62608 0.23113 0.06335 0.0
H639 H 0.68436 0.23541 0.02012 0.0
H640 H 0.71583 0.32031 0.02821 0.0
H641 H 0.68884 0.27638 0.0172 0.0
H642 H 0.66539 0.25776 0.08422 0.0
H643 H 0.69208 0.30193 0.0952 0.0
C644 C 0.61548 0.19876 0.04286 0.0
C645 C 0.62275 0.18782 0.02611 0.0
C646 C 0.63268 0.22294 0.05107 0.0
C647 C 0.65757 0.23681 0.04273 0.0
C648 C 0.6652 0.22543 0.02667 0.0
C649 C 0.64801 0.20125 0.01846 0.0
C650 C 0.70502 0.30687 0.04065 0.0
C651 C 0.70606 0.3147 0.06258 0.0
C652 C 0.68967 0.2816 0.03435 0.0
C653 C 0.67495 0.26347 0.04982 0.0
C654 C 0.67626 0.27125 0.07183 0.0
C655 C 0.69165 0.29657 0.07815 0.0
H656 H 0.41591 0.60751 0.23026 0.0
H657 H 0.45134 0.65372 0.17446 0.0
H658 H 0.40295 0.63694 0.24335 0.0
H659 H 0.4374 0.68249 0.18671 0.0
H660 H 0.42093 0.73866 0.21847 0.0
H661 H 0.44048 0.71314 0.21126 0.0
H662 H 0.37243 0.64798 0.23482 0.0
H663 H 0.35369 0.67381 0.24307 0.0
C664 C 0.42103 0.62409 0.2209 0.0
C665 C 0.43464 0.62839 0.2014 0.0
C666 C 0.41343 0.64087 0.22825 0.0
C667 C 0.4188 0.66207 0.216 0.0
C668 C 0.43321 0.66669 0.19684 0.0
C669 C 0.44118 0.65015 0.18973 0.0
C670 C 0.41031 0.71892 0.22227 0.0
C671 C 0.38575 0.70823 0.23127 0.0
C672 C 0.42144 0.70421 0.21802 0.0
C673 C 0.40807 0.67835 0.22232 0.0
C674 C 0.38363 0.66785 0.23166 0.0
C675 C 0.37273 0.68265 0.23625 0.0
H676 H 0.8316 0.39694 0.37446 0.0
H677 H 0.83997 0.44912 0.32442 0.0
H678 H 0.79614 0.40021 0.38991 0.0
H679 H 0.80496 0.45257 0.33998 0.0
H680 H 0.75885 0.47245 0.38517 0.0
H681 H 0.79534 0.46921 0.37304 0.0
H682 H 0.75135 0.38878 0.37983 0.0
H683 H 0.71473 0.39198 0.39227 0.0
C684 C 0.82589 0.40907 0.36674 0.0
C685 C 0.83879 0.4229 0.34827 0.0
C686 C 0.80559 0.41094 0.3756 0.0
C687 C 0.79785 0.42676 0.36624 0.0
C688 C 0.81078 0.4406 0.34784 0.0
C689 C 0.83093 0.43865 0.33895 0.0
C690 C 0.75694 0.45406 0.38424 0.0
C691 C 0.73377 0.43245 0.38957 0.0
C692 C 0.77785 0.45221 0.37718 0.0
C693 C 0.77616 0.42872 0.37529 0.0
C694 C 0.75329 0.40716 0.38125 0.0
C695 C 0.73228 0.40899 0.38828 0.0
H696 H 0.12066 0.57395 0.42402 0.0
H697 H 0.17953 0.55581 0.4105 0.0
H698 H 0.14514 0.59885 0.45615 0.0
H699 H 0.20442 0.58121 0.44236 0.0
H700 H 0.23243 0.61346 0.51234 0.0
H701 H 0.20705 0.58548 0.48176 0.0
H702 H 0.18328 0.63803 0.46331 0.0
H703 H 0.20783 0.66542 0.49404 0.0
C704 C 0.13886 0.5753 0.42796 0.0
C705 C 0.14824 0.56304 0.41471 0.0
C706 C 0.15297 0.58966 0.4463 0.0
C707 C 0.17696 0.59234 0.4517 0.0
C708 C 0.18595 0.5794 0.43882 0.0
C709 C 0.17169 0.56484 0.42055 0.0
C710 C 0.22184 0.61904 0.50167 0.0
C711 C 0.22203 0.6416 0.50572 0.0
C712 C 0.20734 0.60303 0.48412 0.0
C713 C 0.19284 0.60934 0.4702 0.0
C714 C 0.19364 0.63222 0.47399 0.0
C715 C 0.20793 0.64807 0.49155 0.0
H716 H 0.58765 0.19121 0.55972 0.0
H717 H 0.57852 0.12494 0.59067 0.0
H718 H 0.58729 0.20925 0.59565 0.0
H719 H 0.57765 0.14284 0.62672 0.0
H720 H 0.54297 0.1751 0.67929 0.0
H721 H 0.54555 0.1562 0.64455 0.0
H722 H 0.61761 0.22305 0.63144 0.0
H723 H 0.6154 0.24187 0.66638 0.0
C724 C 0.58544 0.1805 0.57425 0.0
C725 C 0.58301 0.1567 0.57253 0.0
C726 C 0.58541 0.19086 0.59474 0.0
C727 C 0.58249 0.1774 0.61385 0.0
C728 C 0.57987 0.1535 0.61216 0.0
C729 C 0.58044 0.14334 0.59165 0.0
C730 C 0.55944 0.18571 0.66906 0.0
C731 C 0.57896 0.20999 0.6755 0.0
C732 C 0.56095 0.17483 0.64928 0.0
C733 C 0.58174 0.18824 0.63541 0.0
C734 C 0.60134 0.21242 0.64188 0.0
C735 C 0.6001 0.22311 0.66186 0.0
H736 H 0.42536 0.55902 0.74715 0.0
H737 H 0.47465 0.63971 0.74849 0.0
H738 H 0.40857 0.5614 0.78242 0.0
H739 H 0.45923 0.64193 0.78472 0.0
H740 H 0.40184 0.63803 0.83649 0.0
H741 H 0.4228 0.63819 0.8024 0.0
H742 H 0.41805 0.56842 0.81988 0.0
H743 H 0.39602 0.56773 0.85319 0.0
C744 C 0.43275 0.5773 0.75501 0.0
C745 C 0.45124 0.59918 0.7448 0.0
C746 C 0.42342 0.57864 0.77551 0.0
C747 C 0.43259 0.60188 0.78659 0.0
C748 C 0.45148 0.62374 0.7766 0.0
C749 C 0.46062 0.62242 0.75593 0.0
C750 C 0.40553 0.62289 0.83306 0.0
C751 C 0.39702 0.60272 0.84732 0.0
C752 C 0.41764 0.623 0.81357 0.0
C753 C 0.42184 0.60311 0.80816 0.0
C754 C 0.41449 0.58367 0.82311 0.0
C755 C 0.40201 0.58335 0.84232 0.0
H756 H 0.85945 0.49256 0.90206 0.0
H757 H 0.84649 0.41722 0.89572 0.0
H758 H 0.8415 0.48356 0.93843 0.0
H759 H 0.82969 0.40861 0.93281 0.0
H760 H 0.77592 0.39572 0.99134 0.0
H761 H 0.79334 0.40245 0.95441 0.0
H762 H 0.85284 0.47728 0.97429 0.0
H763 H 0.83511 0.47088 0.01069 0.0
C764 C 0.85272 0.47403 0.9084 0.0
C765 C 0.85437 0.45561 0.8959 0.0
C766 C 0.84274 0.46897 0.92943 0.0
C767 C 0.83433 0.44541 0.93865 0.0
C768 C 0.83584 0.42689 0.92615 0.0
C769 C 0.84576 0.43194 0.905 0.0
C770 C 0.79278 0.41354 0.98779 0.0
C771 C 0.80395 0.43285 0.00388 0.0
C772 C 0.80283 0.41737 0.96667 0.0
C773 C 0.82431 0.44052 0.9613 0.0
C774 C 0.83591 0.45945 0.97767 0.0
C775 C 0.8258 0.45571 -0.00138 0.0
H776 H 0.40904 0.89482 0.08007 0.0
H777 H 0.43103 0.84088 0.06083 0.0
H778 H 0.39173 0.87256 0.11394 0.0
H779 H 0.41306 0.81806 0.09441 0.0
H780 H 0.4027 0.79927 0.16744 0.0
H781 H 0.41974 0.82034 0.13302 0.0
H782 H 0.35721 0.83515 0.12754 0.0
H783 H 0.34081 0.81498 0.16231 0.0
C784 C 0.40993 0.87803 0.08302 0.0
C785 C 0.42138 0.86958 0.06784 0.0
C786 C 0.39991 0.86518 0.10239 0.0
C787 C 0.40084 0.84338 0.10691 0.0
C788 C 0.41233 0.83496 0.09166 0.0
C789 C 0.42259 0.84798 0.07239 0.0
C790 C 0.39251 0.8069 0.1588 0.0
C791 C 0.37049 0.80559 0.16768 0.0
C792 C 0.40223 0.8189 0.139 0.0
C793 C 0.38998 0.82966 0.12752 0.0
C794 C 0.3675 0.82763 0.13614 0.0
C795 C 0.35796 0.81587 0.15602 0.0
H796 H 0.60609 0.50064 0.26915 0.0
H797 H 0.56008 0.42329 0.24704 0.0
H798 H 0.61492 0.48729 0.30355 0.0
H799 H 0.56789 0.40966 0.28227 0.0
H800 H 0.62168 0.40262 0.33509 0.0
H801 H 0.6027 0.40945 0.30213 0.0
H802 H 0.59696 0.46797 0.33681 0.0
H803 H 0.61711 0.46198 0.36902 0.0
C804 C 0.59766 0.48071 0.27173 0.0
C805 C 0.58262 0.46307 0.25525 0.0
C806 C 0.60239 0.47298 0.29165 0.0
C807 C 0.59199 0.44733 0.29582 0.0
C808 C 0.57634 0.42956 0.27955 0.0
C809 C 0.57166 0.43736 0.25947 0.0
C810 C 0.61578 0.41651 0.33567 0.0
C811 C 0.62112 0.43204 0.35435 0.0
C812 C 0.60487 0.42043 0.31685 0.0
C813 C 0.59886 0.4397 0.31664 0.0
C814 C 0.60212 0.45355 0.33613 0.0
C815 C 0.61344 0.44999 0.35465 0.0
H816 H 0.4875 0.91976 0.35543 0.0
H817 H 0.43559 0.85657 0.39385 0.0
H818 H 0.46623 0.89555 0.32165 0.0
H819 H 0.41474 0.83224 0.3602 0.0
H820 H 0.40214 0.79088 0.29283 0.0
H821 H 0.42792 0.81521 0.32501 0.0
H822 H 0.41798 0.87701 0.30685 0.0
H823 H 0.39182 0.85265 0.27504 0.0
C824 C 0.47176 0.90062 0.35657 0.0
C825 C 0.46301 0.89 0.37711 0.0
C826 C 0.4596 0.88684 0.33735 0.0
C827 C 0.43894 0.86207 0.33842 0.0
C828 C 0.43076 0.85124 0.35897 0.0
C829 C 0.44253 0.86516 0.37816 0.0
C830 C 0.40562 0.80971 0.29565 0.0
C831 C 0.39485 0.81982 0.28153 0.0
C832 C 0.42028 0.82356 0.31404 0.0
C833 C 0.42491 0.84794 0.31829 0.0
C834 C 0.41483 0.85833 0.3038 0.0
C835 C 0.39974 0.84432 0.28572 0.0
H836 H 0.64493 0.51011 0.56661 0.0
H837 H 0.57525 0.4376 0.5631 0.0
H838 H 0.65971 0.49967 0.53355 0.0
H839 H 0.58922 0.42793 0.52885 0.0
H840 H 0.63215 0.40988 0.47665 0.0
H841 H 0.61862 0.41797 0.51205 0.0
H842 H 0.65123 0.49605 0.49593 0.0
H843 H 0.66557 0.48823 0.46142 0.0
C844 C 0.63272 0.49188 0.55885 0.0
C845 C 0.60885 0.47473 0.56766 0.0
C846 C 0.64105 0.48603 0.5396 0.0
C847 C 0.62557 0.46304 0.5283 0.0
C848 C 0.60178 0.44573 0.53717 0.0
C849 C 0.59357 0.45147 0.55666 0.0
C850 C 0.63655 0.42877 0.48083 0.0
C851 C 0.65014 0.44843 0.46629 0.0
C852 C 0.62865 0.4334 0.50104 0.0
C853 C 0.63396 0.45773 0.50699 0.0
C854 C 0.64734 0.47722 0.49226 0.0
C855 C 0.65547 0.47268 0.47232 0.0
H856 H 0.1686 0.59934 0.7227 0.0
H857 H 0.11234 0.61332 0.69232 0.0
H858 H 0.1964 0.61712 0.69132 0.0
H859 H 0.13975 0.63053 0.66069 0.0
H860 H 0.22952 0.63115 0.62184 0.0
H861 H 0.20203 0.61164 0.65315 0.0
H862 H 0.17881 0.66729 0.65189 0.0
H863 H 0.20549 0.68616 0.62033 0.0
C864 C 0.16198 0.60579 0.7091 0.0
C865 C 0.13836 0.60505 0.70998 0.0
C866 C 0.17791 0.61599 0.69111 0.0
C867 C 0.17047 0.62552 0.67354 0.0
C868 C 0.1464 0.62394 0.67415 0.0
C869 C 0.1306 0.61396 0.69221 0.0
C870 C 0.21867 0.63929 0.62837 0.0
C871 C 0.21957 0.66011 0.6185 0.0
C872 C 0.20293 0.62813 0.64634 0.0
C873 C 0.18792 0.63768 0.6549 0.0
C874 C 0.18955 0.65901 0.64541 0.0
C875 C 0.20506 0.66999 0.6274 0.0
H876 H 0.60011 0.15118 0.88023 0.0
H877 H 0.52284 0.1371 0.88854 0.0
H878 H 0.60443 0.17543 0.84831 0.0
H879 H 0.5259 0.1582 0.85497 0.0
H880 H 0.54323 0.21755 0.80617 0.0
H881 H 0.54124 0.19568 0.83948 0.0
H882 H 0.59584 0.17701 0.81258 0.0
H883 H 0.59941 0.20109 0.7803 0.0
C884 C 0.58389 0.15299 0.87528 0.0
C885 C 0.5612 0.1422 0.88746 0.0
C886 C 0.5862 0.16659 0.85649 0.0
C887 C 0.56561 0.16916 0.84882 0.0
C888 C 0.54257 0.15746 0.86049 0.0
C889 C 0.54056 0.14461 0.87966 0.0
C890 C 0.55498 0.20896 0.80764 0.0
C891 C 0.57154 0.21103 0.79083 0.0
C892 C 0.55363 0.19607 0.82662 0.0
C893 C 0.56808 0.18404 0.82891 0.0
C894 C 0.58472 0.18628 0.81188 0.0
C895 C 0.58672 0.19997 0.79323 0.0
H896 H 0.42761 0.61035 0.07429 0.0
H897 H 0.41713 0.53977 0.0497 0.0
H898 H 0.41264 0.61694 0.0391 0.0
H899 H 0.40266 0.54649 0.01441 0.0
H900 H 0.34963 0.55061 0.96441 0.0
H901 H 0.36584 0.54628 -0.00044 0.0
H902 H 0.42276 0.62536 0.00077 0.0
H903 H 0.40592 0.62987 0.9656 0.0
C904 C 0.42245 0.59643 0.06124 0.0
C905 C 0.42339 0.57447 0.06476 0.0
C906 C 0.41391 0.60021 0.04107 0.0
C907 C 0.40624 0.58216 0.02398 0.0
C908 C 0.40786 0.56052 0.02738 0.0
C909 C 0.41622 0.55667 0.04756 0.0
C910 C 0.36556 0.56714 0.97215 0.0
C911 C 0.37657 0.59058 0.96213 0.0
C912 C 0.375 0.5646 0.99228 0.0
C913 C 0.39585 0.58538 0.00287 0.0
C914 C 0.40657 0.60899 0.9931 0.0
C915 C 0.39698 0.61158 0.97294 0.0
H916 H 0.86463 0.44047 0.22778 0.0
H917 H 0.86989 0.37787 0.2016 0.0
H918 H 0.84258 0.44087 0.19443 0.0
H919 H 0.84773 0.37833 0.16793 0.0
H920 H 0.78492 0.37448 0.11975 0.0
H921 H 0.80584 0.37114 0.15312 0.0
H922 H 0.85407 0.45187 0.15664 0.0
H923 H 0.83316 0.45527 0.12393 0.0
C924 C 0.86131 0.42694 0.21478 0.0
C925 C 0.86937 0.40939 0.21721 0.0
C926 C 0.84861 0.42713 0.19566 0.0
C927 C 0.84365 0.40981 0.1784 0.0
C928 C 0.85113 0.39182 0.18098 0.0
C929 C 0.86387 0.3916 0.20022 0.0
C930 C 0.80003 0.39147 0.12767 0.0
C931 C 0.80718 0.41514 0.11926 0.0
C932 C 0.81208 0.38955 0.1467 0.0
C933 C 0.83142 0.41127 0.15766 0.0
C934 C 0.83888 0.43481 0.1489 0.0
C935 C 0.82691 0.43672 0.13002 0.0
loop_
_geom_bond_atom_site_label_1
_geom_bond_atom_site_label_2
_geom_bond_distance
_geom_bond_site_symmetry_2
_ccdc_geom_bond_type
H0 C27 0.929 . S
N1 C26 1.433 . S
N1 C32 1.435 . S
N1 C38 1.423 . S
H2 C28 0.930 . S
H3 C31 0.931 . S
H4 C30 0.929 . S
H5 C33 0.930 . S
H6 C34 0.932 . S
H7 C37 0.929 . S
H8 C36 0.931 . S
H9 C39 0.929 . S
H10 C43 0.932 . S
H11 C40 0.931 . S
H12 C42 0.929 . S
H13 C45 0.929 . S
H14 C46 0.930 . S
H15 C48 0.929 . S
H16 C49 0.931 . S
H17 C51 0.930 . S
H18 C52 0.932 . S
H19 C54 0.931 . S
H20 C55 0.929 . S
H21 C57 0.929 . S
H22 C58 0.931 . S
H23 C60 0.929 . S
N24 C44 1.433 . S
N24 C50 1.435 . S
N24 C56 1.423 . S
H25 C61 0.932 . S
C26 N1 1.433 . S
C26 C27 1.363 . S
C26 C31 1.370 . S
C27 H0 0.929 . S
C27 C26 1.363 . S
C27 C28 1.385 . S
C28 H2 0.930 . S
C28 C27 1.385 . S
C28 C29 1.357 . S
C29 C28 1.357 . S
C29 C30 1.406 . S
C30 H4 0.929 . S
C30 C29 1.406 . S
C30 C31 1.391 . S
C31 H3 0.931 . S
C31 C26 1.370 . S
C31 C30 1.391 . S
C32 N1 1.435 . S
C32 C33 1.358 . S
C32 C37 1.371 . S
C33 H5 0.930 . S
C33 C32 1.358 . S
C33 C34 1.405 . S
C34 H6 0.932 . S
C34 C33 1.405 . S
C34 C35 1.383 . S
C35 C34 1.383 . S
C35 C36 1.393 . S
C36 H8 0.931 . S
C36 C35 1.393 . S
C36 C37 1.382 . S
C37 H7 0.929 . S
C37 C32 1.371 . S
C37 C36 1.382 . S
C38 N1 1.423 . S
C38 C39 1.362 . S
C38 C43 1.388 . S
C39 H9 0.929 . S
C39 C38 1.362 . S
C39 C40 1.376 . S
C40 H11 0.931 . S
C40 C39 1.376 . S
C40 C41 1.396 . S
C41 C40 1.396 . S
C41 C42 1.348 . S
C41 C59 1.472 1_455 S
C42 H12 0.929 . S
C42 C41 1.348 . S
C42 C43 1.443 . S
C43 H10 0.932 . S
C43 C38 1.388 . S
C43 C42 1.443 . S
C44 N24 1.433 . S
C44 C45 1.363 . S
C44 C49 1.370 . S
C45 H13 0.929 . S
C45 C44 1.363 . S
C45 C46 1.385 . S
C46 H14 0.930 . S
C46 C45 1.385 . S
C46 C47 1.357 . S
C47 C46 1.357 . S
C47 C48 1.406 . S
C48 H15 0.929 . S
C48 C47 1.406 . S
C48 C49 1.391 . S
C49 H16 0.931 . S
C49 C44 1.370 . S
C49 C48 1.391 . S
C50 N24 1.435 . S
C50 C51 1.358 . S
C50 C55 1.371 . S
C51 H17 0.930 . S
C51 C50 1.358 . S
C51 C52 1.405 . S
C52 H18 0.932 . S
C52 C51 1.405 . S
C52 C53 1.383 . S
C53 C52 1.383 . S
C53 C54 1.393 . S
C54 H19 0.931 . S
C54 C53 1.393 . S
C54 C55 1.382 . S
C55 H20 0.929 . S
C55 C50 1.371 . S
C55 C54 1.382 . S
C56 N24 1.423 . S
C56 C57 1.362 . S
C56 C61 1.388 . S
C57 H21 0.929 . S
C57 C56 1.362 . S
C57 C58 1.376 . S
C58 H22 0.931 . S
C58 C57 1.376 . S
C58 C59 1.396 . S
C59 C41 1.472 1_655 S
C59 C58 1.396 . S
C59 C60 1.348 . S
C60 H23 0.929 . S
C60 C59 1.348 . S
C60 C61 1.443 . S
C61 H25 0.932 . S
C61 C56 1.388 . S
C61 C60 1.443 . S
H62 C89 0.929 . S
N63 C88 1.433 . S
N63 C94 1.435 . S
N63 C100 1.423 . S
H64 C90 0.930 . S
H65 C93 0.931 . S
H66 C92 0.929 . S
H67 C95 0.930 . S
H68 C96 0.932 . S
H69 C99 0.929 . S
H70 C98 0.931 . S
H71 C101 0.929 . S
H72 C105 0.932 . S
H73 C102 0.931 . S
H74 C104 0.929 1_545 S
H75 C107 0.929 . S
H76 C108 0.930 . S
H77 C110 0.929 . S
H78 C111 0.931 . S
H79 C113 0.930 . S
H80 C114 0.932 . S
H81 C116 0.931 . S
H82 C117 0.929 . S
H83 C119 0.929 . S
H84 C120 0.931 . S
H85 C122 0.929 . S
N86 C106 1.433 . S
N86 C112 1.435 . S
N86 C118 1.423 . S
H87 C123 0.932 . S
C88 N63 1.433 . S
C88 C89 1.363 . S
C88 C93 1.370 . S
C89 H62 0.929 . S
C89 C88 1.363 . S
C89 C90 1.385 . S
C90 H64 0.930 . S
C90 C89 1.385 . S
C90 C91 1.357 . S
C91 C90 1.357 . S
C91 C92 1.406 . S
C92 H66 0.929 . S
C92 C91 1.406 . S
C92 C93 1.391 . S
C93 H65 0.931 . S
C93 C88 1.370 . S
C93 C92 1.391 . S
C94 N63 1.435 . S
C94 C95 1.358 . S
C94 C99 1.371 . S
C95 H67 0.930 . S
C95 C94 1.358 . S
C95 C96 1.405 . S
C96 H68 0.932 . S
C96 C95 1.405 . S
C96 C97 1.383 . S
C97 C96 1.383 . S
C97 C98 1.393 . S
C98 H70 0.931 . S
C98 C97 1.393 . S
C98 C99 1.382 . S
C99 H69 0.929 . S
C99 C94 1.371 . S
C99 C98 1.382 . S
C100 N63 1.423 . S
C100 C101 1.362 . S
C100 C105 1.388 . S
C101 H71 0.929 . S
C101 C100 1.362 . S
C101 C102 1.376 . S
C102 H73 0.931 . S
C102 C101 1.376 . S
C102 C103 1.396 1_565 S
C103 C102 1.396 1_545 S
C103 C104 1.348 1_545 S
C103 C121 1.472 . S
C104 H74 0.929 1_565 S
C104 C103 1.348 1_565 S
C104 C105 1.443 . S
C105 H72 0.932 . S
C105 C100 1.388 . S
C105 C104 1.443 . S
C106 N86 1.433 . S
C106 C107 1.363 . S
C106 C111 1.370 . S
C107 H75 0.929 . S
C107 C106 1.363 . S
C107 C108 1.385 . S
C108 H76 0.930 . S
C108 C107 1.385 . S
C108 C109 1.357 . S
C109 C108 1.357 . S
C109 C110 1.406 . S
C110 H77 0.929 . S
C110 C109 1.406 . S
C110 C111 1.391 . S
C111 H78 0.931 . S
C111 C106 1.370 . S
C111 C110 1.391 . S
C112 N86 1.435 . S
C112 C113 1.358 . S
C112 C117 1.371 . S
C113 H79 0.930 . S
C113 C112 1.358 . S
C113 C114 1.405 . S
C114 H80 0.932 . S
C114 C113 1.405 . S
C114 C115 1.383 . S
C115 C114 1.383 . S
C115 C116 1.393 . S
C116 H81 0.931 . S
C116 C115 1.393 . S
C116 C117 1.382 . S
C117 H82 0.929 . S
C117 C112 1.371 . S
C117 C116 1.382 . S
C118 N86 1.423 . S
C118 C119 1.362 . S
C118 C123 1.388 . S
C119 H83 0.929 . S
C119 C118 1.362 . S
C119 C120 1.376 . S
C120 H84 0.931 . S
C120 C119 1.376 . S
C120 C121 1.396 . S
C121 C103 1.472 . S
C121 C120 1.396 . S
C121 C122 1.348 . S
C122 H85 0.929 . S
C122 C121 1.348 . S
C122 C123 1.443 . S
C123 H87 0.932 . S
C123 C118 1.388 . S
C123 C122 1.443 . S
H124 C151 0.929 . S
N125 C150 1.433 . S
N125 C156 1.435 . S
N125 C162 1.423 . S
H126 C152 0.930 . S
H127 C155 0.931 . S
H128 C154 0.929 . S
H129 C157 0.930 . S
H130 C158 0.932 . S
H131 C161 0.929 . S
H132 C160 0.931 . S
H133 C163 0.929 . S
H134 C167 0.932 . S
H135 C164 0.931 . S
H136 C166 0.929 . S
H137 C169 0.929 . S
H138 C170 0.930 . S
H139 C172 0.929 . S
H140 C173 0.931 . S
H141 C175 0.930 . S
H142 C176 0.932 . S
H143 C178 0.931 . S
H144 C179 0.929 . S
H145 C181 0.929 . S
H146 C182 0.931 . S
H147 C184 0.929 . S
N148 C168 1.433 . S
N148 C174 1.435 . S
N148 C180 1.423 . S
H149 C185 0.932 . S
C150 N125 1.433 . S
C150 C151 1.363 . S
C150 C155 1.370 . S
C151 H124 0.929 . S
C151 C150 1.363 . S
C151 C152 1.385 . S
C152 H126 0.930 . S
C152 C151 1.385 . S
C152 C153 1.357 . S
C153 C152 1.357 . S
C153 C154 1.406 . S
C154 H128 0.929 . S
C154 C153 1.406 . S
C154 C155 1.391 . S
C155 H127 0.931 . S
C155 C150 1.370 . S
C155 C154 1.391 . S
C156 N125 1.435 . S
C156 C157 1.358 . S
C156 C161 1.371 . S
C157 H129 0.930 . S
C157 C156 1.358 . S
C157 C158 1.405 . S
C158 H130 0.932 . S
C158 C157 1.405 . S
C158 C159 1.383 . S
C159 C158 1.383 . S
C159 C160 1.393 . S
C160 H132 0.931 . S
C160 C159 1.393 . S
C160 C161 1.382 . S
C161 H131 0.929 . S
C161 C156 1.371 . S
C161 C160 1.382 . S
C162 N125 1.423 . S
C162 C163 1.362 . S
C162 C167 1.388 . S
C163 H133 0.929 . S
C163 C162 1.362 . S
C163 C164 1.376 . S
C164 H135 0.931 . S
C164 C163 1.376 . S
C164 C165 1.396 . S
C165 C164 1.396 . S
C165 C166 1.348 . S
C165 C183 1.472 . S
C166 H136 0.929 . S
C166 C165 1.348 . S
C166 C167 1.443 . S
C167 H134 0.932 . S
C167 C162 1.388 . S
C167 C166 1.443 . S
C168 N148 1.433 . S
C168 C169 1.363 . S
C168 C173 1.370 . S
C169 H137 0.929 . S
C169 C168 1.363 . S
C169 C170 1.385 . S
C170 H138 0.930 . S
C170 C169 1.385 . S
C170 C171 1.357 . S
C171 C170 1.357 . S
C171 C172 1.406 . S
C172 H139 0.929 . S
C172 C171 1.406 . S
C172 C173 1.391 . S
C173 H140 0.931 . S
C173 C168 1.370 . S
C173 C172 1.391 . S
C174 N148 1.435 . S
C174 C175 1.358 . S
C174 C179 1.371 . S
C175 H141 0.930 . S
C175 C174 1.358 . S
C175 C176 1.405 . S
C176 H142 0.932 . S
C176 C175 1.405 . S
C176 C177 1.383 . S
C177 C176 1.383 . S
C177 C178 1.393 . S
C178 H143 0.931 . S
C178 C177 1.393 . S
C178 C179 1.382 . S
C179 H144 0.929 . S
C179 C174 1.371 . S
C179 C178 1.382 . S
C180 N148 1.423 . S
C180 C181 1.362 . S
C180 C185 1.388 . S
C181 H145 0.929 . S
C181 C180 1.362 . S
C181 C182 1.376 . S
C182 H146 0.931 . S
C182 C181 1.376 . S
C182 C183 1.396 . S
C183 C165 1.472 . S
C183 C182 1.396 . S
C183 C184 1.348 . S
C184 H147 0.929 . S
C184 C183 1.348 . S
C184 C185 1.443 . S
C185 H149 0.932 . S
C185 C180 1.388 . S
C185 C184 1.443 . S
H186 C213 0.929 . S
N187 C212 1.433 . S
N187 C218 1.435 . S
N187 C224 1.423 . S
H188 C214 0.930 . S
H189 C217 0.931 . S
H190 C216 0.929 . S
H191 C219 0.930 . S
H192 C220 0.932 . S
H193 C223 0.929 . S
H194 C222 0.931 . S
H195 C225 0.929 . S
H196 C229 0.932 . S
H197 C226 0.931 . S
H198 C228 0.929 . S
H199 C231 0.929 . S
H200 C232 0.930 . S
H201 C234 0.929 . S
H202 C235 0.931 . S
H203 C237 0.930 . S
H204 C238 0.932 . S
H205 C240 0.931 . S
H206 C241 0.929 . S
H207 C243 0.929 . S
H208 C244 0.931 . S
H209 C246 0.929 . S
N210 C230 1.433 . S
N210 C236 1.435 . S
N210 C242 1.423 . S
H211 C247 0.932 . S
C212 N187 1.433 . S
C212 C213 1.363 . S
C212 C217 1.370 . S
C213 H186 0.929 . S
C213 C212 1.363 . S
C213 C214 1.385 . S
C214 H188 0.930 . S
C214 C213 1.385 . S
C214 C215 1.357 . S
C215 C214 1.357 . S
C215 C216 1.406 . S
C216 H190 0.929 . S
C216 C215 1.406 . S
C216 C217 1.391 . S
C217 H189 0.931 . S
C217 C212 1.370 . S
C217 C216 1.391 . S
C218 N187 1.435 . S
C218 C219 1.358 . S
C218 C223 1.371 . S
C219 H191 0.930 . S
C219 C218 1.358 . S
C219 C220 1.405 . S
C220 H192 0.932 . S
C220 C219 1.405 . S
C220 C221 1.383 . S
C221 C220 1.383 . S
C221 C222 1.393 . S
C222 H194 0.931 . S
C222 C221 1.393 . S
C222 C223 1.382 . S
C223 H193 0.929 . S
C223 C218 1.371 . S
C223 C222 1.382 . S
C224 N187 1.423 . S
C224 C225 1.362 . S
C224 C229 1.388 . S
C225 H195 0.929 . S
C225 C224 1.362 . S
C225 C226 1.376 . S
C226 H197 0.931 . S
C226 C225 1.376 . S
C226 C227 1.396 . S
C227 C226 1.396 . S
C227 C228 1.348 . S
C227 C245 1.472 1_455 S
C228 H198 0.929 . S
C228 C227 1.348 . S
C228 C229 1.443 . S
C229 H196 0.932 . S
C229 C224 1.388 . S
C229 C228 1.443 . S
C230 N210 1.433 . S
C230 C231 1.363 . S
C230 C235 1.370 . S
C231 H199 0.929 . S
C231 C230 1.363 . S
C231 C232 1.385 . S
C232 H200 0.930 . S
C232 C231 1.385 . S
C232 C233 1.357 . S
C233 C232 1.357 . S
C233 C234 1.406 . S
C234 H201 0.929 . S
C234 C233 1.406 . S
C234 C235 1.391 . S
C235 H202 0.931 . S
C235 C230 1.370 . S
C235 C234 1.391 . S
C236 N210 1.435 . S
C236 C237 1.358 . S
C236 C241 1.371 . S
C237 H203 0.930 . S
C237 C236 1.358 . S
C237 C238 1.405 . S
C238 H204 0.932 . S
C238 C237 1.405 . S
C238 C239 1.383 . S
C239 C238 1.383 . S
C239 C240 1.393 . S
C240 H205 0.931 . S
C240 C239 1.393 . S
C240 C241 1.382 . S
C241 H206 0.929 . S
C241 C236 1.371 . S
C241 C240 1.382 . S
C242 N210 1.423 . S
C242 C243 1.362 . S
C242 C247 1.388 . S
C243 H207 0.929 . S
C243 C242 1.362 . S
C243 C244 1.376 . S
C244 H208 0.931 . S
C244 C243 1.376 . S
C244 C245 1.396 . S
C245 C227 1.472 1_655 S
C245 C244 1.396 . S
C245 C246 1.348 . S
C246 H209 0.929 . S
C246 C245 1.348 . S
C246 C247 1.443 . S
C247 H211 0.932 . S
C247 C242 1.388 . S
C247 C246 1.443 . S
H248 C275 0.929 . S
N249 C274 1.433 . S
N249 C280 1.435 . S
N249 C286 1.423 . S
H250 C276 0.930 . S
H251 C279 0.931 . S
H252 C278 0.929 . S
H253 C281 0.930 . S
H254 C282 0.932 . S
H255 C285 0.929 . S
H256 C284 0.931 . S
H257 C287 0.929 . S
H258 C291 0.932 . S
H259 C288 0.931 . S
H260 C290 0.929 . S
H261 C293 0.929 . S
H262 C294 0.930 . S
H263 C296 0.929 . S
H264 C297 0.931 . S
H265 C299 0.930 1_554 S
H266 C300 0.932 . S
H267 C302 0.931 . S
H268 C303 0.929 . S
H269 C305 0.929 . S
H270 C306 0.957 1_554 S
H271 C308 0.929 . S
N272 C292 1.433 . S
N272 C298 1.435 1_554 S
N272 C304 1.423 1_554 S
H273 C309 0.932 . S
C274 N249 1.433 . S
C274 C275 1.363 . S
C274 C279 1.370 . S
C275 H248 0.929 . S
C275 C274 1.363 . S
C275 C276 1.385 . S
C276 H250 0.930 . S
C276 C275 1.385 . S
C276 C277 1.357 1_556 S
C277 C276 1.357 1_554 S
C277 C278 1.406 . S
C278 H252 0.929 . S
C278 C277 1.406 . S
C278 C279 1.391 1_554 S
C279 H251 0.931 . S
C279 C274 1.370 . S
C279 C278 1.391 1_556 S
C280 N249 1.435 . S
C280 C281 1.358 . S
C280 C285 1.371 . S
C281 H253 0.930 . S
C281 C280 1.358 . S
C281 C282 1.405 . S
C282 H254 0.932 . S
C282 C281 1.405 . S
C282 C283 1.383 . S
C283 C282 1.383 . S
C283 C284 1.393 . S
C284 H256 0.931 . S
C284 C283 1.393 . S
C284 C285 1.382 . S
C285 H255 0.929 . S
C285 C280 1.371 . S
C285 C284 1.382 . S
C286 N249 1.423 . S
C286 C287 1.362 . S
C286 C291 1.388 . S
C287 H257 0.929 . S
C287 C286 1.362 . S
C287 C288 1.376 . S
C288 H259 0.931 . S
C288 C287 1.376 . S
C288 C289 1.396 . S
C289 C288 1.396 . S
C289 C290 1.348 . S
C289 C307 1.472 1_545 S
C290 H260 0.929 . S
C290 C289 1.348 . S
C290 C291 1.443 . S
C291 H258 0.932 . S
C291 C286 1.388 . S
C291 C290 1.443 . S
C292 N272 1.433 . S
C292 C293 1.363 . S
C292 C297 1.370 . S
C293 H261 0.929 . S
C293 C292 1.363 . S
C293 C294 1.385 . S
C294 H262 0.930 . S
C294 C293 1.385 . S
C294 C295 1.357 . S
C295 C294 1.357 . S
C295 C296 1.406 . S
C296 H263 0.929 . S
C296 C295 1.406 . S
C296 C297 1.391 . S
C297 H264 0.931 . S
C297 C292 1.370 . S
C297 C296 1.391 . S
C298 N272 1.435 1_556 S
C298 C299 1.358 . S
C298 C303 1.371 . S
C299 H265 0.930 1_556 S
C299 C298 1.358 . S
C299 C300 1.405 . S
C300 H266 0.932 . S
C300 C299 1.405 . S
C300 C301 1.383 . S
C301 C300 1.383 . S
C301 C302 1.393 . S
C302 H267 0.931 . S
C302 C301 1.393 . S
C302 C303 1.382 . S
C303 H268 0.929 . S
C303 C298 1.371 . S
C303 C302 1.382 . S
C304 N272 1.423 1_556 S
C304 C305 1.362 1_556 S
C304 C309 1.388 . S
C305 H269 0.929 . S
C305 C304 1.362 1_554 S
C305 C306 1.376 1_554 S
C306 H270 0.957 1_556 S
C306 C305 1.376 1_556 S
C306 C307 1.396 . S
C307 C289 1.472 1_565 S
C307 C306 1.396 . S
C307 C308 1.348 . S
C308 H271 0.929 . S
C308 C307 1.348 . S
C308 C309 1.443 . S
C309 H273 0.932 . S
C309 C304 1.388 . S
C309 C308 1.443 . S
H310 C337 0.929 . S
N311 C336 1.433 . S
N311 C342 1.435 . S
N311 C348 1.423 . S
H312 C338 0.930 . S
H313 C341 0.931 . S
H314 C340 0.929 . S
H315 C343 0.930 . S
H316 C344 0.932 . S
H317 C347 0.929 . S
H318 C346 0.931 . S
H319 C349 0.929 . S
H320 C353 0.932 . S
H321 C350 0.931 . S
H322 C352 0.929 . S
H323 C355 0.929 . S
H324 C356 0.930 . S
H325 C358 0.929 . S
H326 C359 0.931 . S
H327 C361 0.930 . S
H328 C362 0.932 . S
H329 C364 0.931 . S
H330 C365 0.929 . S
H331 C367 0.929 . S
H332 C368 0.931 . S
H333 C370 0.929 . S
N334 C354 1.433 . S
N334 C360 1.435 . S
N334 C366 1.423 . S
H335 C371 0.932 . S
C336 N311 1.433 . S
C336 C337 1.363 . S
C336 C341 1.370 . S
C337 H310 0.929 . S
C337 C336 1.363 . S
C337 C338 1.385 . S
C338 H312 0.930 . S
C338 C337 1.385 . S
C338 C339 1.357 . S
C339 C338 1.357 . S
C339 C340 1.406 . S
C340 H314 0.929 . S
C340 C339 1.406 . S
C340 C341 1.391 . S
C341 H313 0.931 . S
C341 C336 1.370 . S
C341 C340 1.391 . S
C342 N311 1.435 . S
C342 C343 1.358 . S
C342 C347 1.371 . S
C343 H315 0.930 . S
C343 C342 1.358 . S
C343 C344 1.405 . S
C344 H316 0.932 . S
C344 C343 1.405 . S
C344 C345 1.383 . S
C345 C344 1.383 . S
C345 C346 1.393 . S
C346 H318 0.931 . S
C346 C345 1.393 . S
C346 C347 1.382 . S
C347 H317 0.929 . S
C347 C342 1.371 . S
C347 C346 1.382 . S
C348 N311 1.423 . S
C348 C349 1.362 . S
C348 C353 1.388 . S
C349 H319 0.929 . S
C349 C348 1.362 . S
C349 C350 1.376 . S
C350 H321 0.931 . S
C350 C349 1.376 . S
C350 C351 1.396 . S
C351 C350 1.396 . S
C351 C352 1.348 . S
C351 C369 1.472 . S
C352 H322 0.929 . S
C352 C351 1.348 . S
C352 C353 1.443 . S
C353 H320 0.932 . S
C353 C348 1.388 . S
C353 C352 1.443 . S
C354 N334 1.433 . S
C354 C355 1.363 . S
C354 C359 1.370 . S
C355 H323 0.929 . S
C355 C354 1.363 . S
C355 C356 1.385 . S
C356 H324 0.930 . S
C356 C355 1.385 . S
C356 C357 1.357 . S
C357 C356 1.357 . S
C357 C358 1.406 . S
C358 H325 0.929 . S
C358 C357 1.406 . S
C358 C359 1.391 . S
C359 H326 0.931 . S
C359 C354 1.370 . S
C359 C358 1.391 . S
C360 N334 1.435 . S
C360 C361 1.358 . S
C360 C365 1.371 . S
C361 H327 0.930 . S
C361 C360 1.358 . S
C361 C362 1.405 . S
C362 H328 0.932 . S
C362 C361 1.405 . S
C362 C363 1.383 . S
C363 C362 1.383 . S
C363 C364 1.393 . S
C364 H329 0.931 . S
C364 C363 1.393 . S
C364 C365 1.382 . S
C365 H330 0.929 . S
C365 C360 1.371 . S
C365 C364 1.382 . S
C366 N334 1.423 . S
C366 C367 1.362 . S
C366 C371 1.388 . S
C367 H331 0.929 . S
C367 C366 1.362 . S
C367 C368 1.376 . S
C368 H332 0.931 . S
C368 C367 1.376 . S
C368 C369 1.396 . S
C369 C351 1.472 . S
C369 C368 1.396 . S
C369 C370 1.348 . S
C370 H333 0.929 . S
C370 C369 1.348 . S
C370 C371 1.443 . S
C371 H335 0.932 . S
C371 C366 1.388 . S
C371 C370 1.443 . S
Zn372 O375 2.031 . S
Zn372 O377 2.049 . S
Zn372 O382 2.067 . S
Zn373 O374 1.962 . S
Zn373 O376 1.986 . S
Zn373 O378 1.996 . S
Zn373 O381 1.943 . S
O374 Zn373 1.962 . S
O374 C379 1.254 . S
O375 Zn372 2.031 . S
O375 C379 1.269 . S
O376 Zn373 1.986 . S
O376 C383 1.262 . S
O377 Zn372 2.049 . S
O377 C385 1.260 . S
O378 Zn373 1.996 . S
O378 C385 1.257 . S
C379 O374 1.254 . S
C379 O375 1.269 . S
C380 O381 1.249 . S
C380 O382 1.270 . S
O381 Zn373 1.943 . S
O381 C380 1.249 . S
O382 Zn372 2.067 . S
O382 C380 1.270 . S
C383 O376 1.262 . S
C383 O384 1.232 . S
O384 C383 1.232 . S
C385 O377 1.260 . S
C385 O378 1.257 . S
Zn386 O389 2.031 . S
Zn386 O391 2.049 . S
Zn386 O396 2.067 . S
Zn387 O388 1.962 . S
Zn387 O390 1.986 . S
Zn387 O392 1.996 . S
Zn387 O395 1.943 . S
O388 Zn387 1.962 . S
O388 C393 1.254 . S
O389 Zn386 2.031 . S
O389 C393 1.269 . S
O390 Zn387 1.986 . S
O390 C397 1.262 . S
O391 Zn386 2.049 . S
O391 C399 1.260 . S
O392 Zn387 1.996 . S
O392 C399 1.257 . S
C393 O388 1.254 . S
C393 O389 1.269 . S
C394 O395 1.249 . S
C394 O396 1.270 . S
O395 Zn387 1.943 . S
O395 C394 1.249 . S
O396 Zn386 2.067 . S
O396 C394 1.270 . S
C397 O390 1.262 . S
C397 O398 1.232 . S
O398 C397 1.232 . S
C399 O391 1.260 . S
C399 O392 1.257 . S
Zn400 O403 2.031 . S
Zn400 O405 2.049 . S
Zn400 O410 2.067 . S
Zn401 O402 1.962 . S
Zn401 O404 1.986 . S
Zn401 O406 1.996 . S
Zn401 O409 1.943 . S
O402 Zn401 1.962 . S
O402 C407 1.254 . S
O403 Zn400 2.031 . S
O403 C407 1.269 . S
O404 Zn401 1.986 . S
O404 C411 1.262 . S
O405 Zn400 2.049 . S
O405 C413 1.260 . S
O406 Zn401 1.996 . S
O406 C413 1.257 . S
C407 O402 1.254 . S
C407 O403 1.269 . S
C408 O409 1.249 . S
C408 O410 1.270 . S
O409 Zn401 1.943 . S
O409 C408 1.249 . S
O410 Zn400 2.067 . S
O410 C408 1.270 . S
C411 O404 1.262 . S
C411 O412 1.232 . S
O412 C411 1.232 . S
C413 O405 1.260 . S
C413 O406 1.257 . S
Zn414 O417 2.031 . S
Zn414 O419 2.049 . S
Zn414 O424 2.067 . S
Zn415 O416 1.962 . S
Zn415 O418 1.986 . S
Zn415 O420 1.996 . S
Zn415 O423 1.943 . S
O416 Zn415 1.962 . S
O416 C421 1.254 . S
O417 Zn414 2.031 . S
O417 C421 1.269 . S
O418 Zn415 1.986 . S
O418 C425 1.262 . S
O419 Zn414 2.049 . S
O419 C427 1.260 . S
O420 Zn415 1.996 . S
O420 C427 1.257 . S
C421 O416 1.254 . S
C421 O417 1.269 . S
C422 O423 1.249 . S
C422 O424 1.270 . S
O423 Zn415 1.943 . S
O423 C422 1.249 . S
O424 Zn414 2.067 . S
O424 C422 1.270 . S
C425 O418 1.262 . S
C425 O426 1.232 . S
O426 C425 1.232 . S
C427 O419 1.260 . S
C427 O420 1.257 . S
Zn428 O431 2.031 . S
Zn428 O433 2.049 . S
Zn428 O438 2.067 . S
Zn429 O430 1.962 . S
Zn429 O432 1.986 . S
Zn429 O434 1.996 . S
Zn429 O437 1.943 . S
O430 Zn429 1.962 . S
O430 C435 1.254 . S
O431 Zn428 2.031 . S
O431 C435 1.269 . S
O432 Zn429 1.986 . S
O432 C439 1.262 . S
O433 Zn428 2.049 . S
O433 C441 1.260 . S
O434 Zn429 1.996 . S
O434 C441 1.257 . S
C435 O430 1.254 . S
C435 O431 1.269 . S
C436 O437 1.249 . S
C436 O438 1.270 . S
O437 Zn429 1.943 . S
O437 C436 1.249 . S
O438 Zn428 2.067 . S
O438 C436 1.270 . S
C439 O432 1.262 . S
C439 O440 1.232 . S
O440 C439 1.232 . S
C441 O433 1.260 . S
C441 O434 1.257 . S
Zn442 O445 2.031 . S
Zn442 O447 2.049 . S
Zn442 O452 2.067 . S
Zn443 O444 1.962 . S
Zn443 O446 1.986 . S
Zn443 O448 1.996 . S
Zn443 O451 1.943 . S
O444 Zn443 1.962 . S
O444 C449 1.254 . S
O445 Zn442 2.031 . S
O445 C449 1.269 . S
O446 Zn443 1.986 . S
O446 C453 1.262 . S
O447 Zn442 2.049 . S
O447 C455 1.260 . S
O448 Zn443 1.996 . S
O448 C455 1.257 . S
C449 O444 1.254 . S
C449 O445 1.269 . S
C450 O451 1.249 . S
C450 O452 1.270 . S
O451 Zn443 1.943 . S
O451 C450 1.249 . S
O452 Zn442 2.067 . S
O452 C450 1.270 . S
C453 O446 1.262 . S
C453 O454 1.232 . S
O454 C453 1.232 . S
C455 O447 1.260 . S
C455 O448 1.257 . S
H456 C464 0.950 . S
H457 C469 0.950 . S
H458 C466 0.950 . S
H459 C468 0.950 . S
H460 C470 0.950 . S
H461 C472 0.950 . S
H462 C474 0.950 . S
H463 C475 0.950 . S
C464 H456 0.950 . S
C464 C465 1.386 . S
C464 C466 1.391 . S
C465 C464 1.386 . S
C465 C469 1.393 . S
C466 H458 0.950 . S
C466 C464 1.391 . S
C466 C467 1.400 . S
C467 C466 1.400 . S
C467 C468 1.398 . S
C467 C473 1.491 . S
C468 H459 0.950 . S
C468 C467 1.398 . S
C468 C469 1.391 . S
C469 H457 0.950 . S
C469 C465 1.393 . S
C469 C468 1.391 . S
C470 H460 0.950 . S
C470 C471 1.386 . S
C470 C472 1.391 . S
C471 C470 1.386 . S
C471 C475 1.393 . S
C472 H461 0.950 . S
C472 C470 1.391 . S
C472 C473 1.400 . S
C473 C467 1.491 . S
C473 C472 1.400 . S
C473 C474 1.398 . S
C474 H462 0.950 . S
C474 C473 1.398 . S
C474 C475 1.391 . S
C475 H463 0.950 . S
C475 C471 1.393 . S
C475 C474 1.391 . S
H476 C484 0.950 . S
H477 C489 0.950 . S
H478 C486 0.950 . S
H479 C488 0.950 . S
H480 C490 0.950 . S
H481 C492 0.950 . S
H482 C494 0.950 . S
H483 C495 0.950 . S
C484 H476 0.950 . S
C484 C485 1.386 . S
C484 C486 1.391 . S
C485 C484 1.386 . S
C485 C489 1.393 . S
C486 H478 0.950 . S
C486 C484 1.391 . S
C486 C487 1.400 . S
C487 C486 1.400 . S
C487 C488 1.398 . S
C487 C493 1.491 . S
C488 H479 0.950 . S
C488 C487 1.398 . S
C488 C489 1.391 . S
C489 H477 0.950 . S
C489 C485 1.393 . S
C489 C488 1.391 . S
C490 H480 0.950 . S
C490 C491 1.386 . S
C490 C492 1.391 . S
C491 C490 1.386 . S
C491 C495 1.393 . S
C492 H481 0.950 . S
C492 C490 1.391 . S
C492 C493 1.400 . S
C493 C487 1.491 . S
C493 C492 1.400 . S
C493 C494 1.398 . S
C494 H482 0.950 . S
C494 C493 1.398 . S
C494 C495 1.391 . S
C495 H483 0.950 . S
C495 C491 1.393 . S
C495 C494 1.391 . S
H496 C504 0.950 . S
H497 C509 0.950 . S
H498 C506 0.950 . S
H499 C508 0.950 . S
H500 C510 0.950 . S
H501 C512 0.950 . S
H502 C514 0.950 . S
H503 C515 0.950 . S
C504 H496 0.950 . S
C504 C505 1.386 . S
C504 C506 1.391 . S
C505 C504 1.386 . S
C505 C509 1.393 . S
C506 H498 0.950 . S
C506 C504 1.391 . S
C506 C507 1.400 . S
C507 C506 1.400 . S
C507 C508 1.398 . S
C507 C513 1.491 . S
C508 H499 0.950 . S
C508 C507 1.398 . S
C508 C509 1.391 . S
C509 H497 0.950 . S
C509 C505 1.393 . S
C509 C508 1.391 . S
C510 H500 0.950 . S
C510 C511 1.386 . S
C510 C512 1.391 . S
C511 C510 1.386 . S
C511 C515 1.393 . S
C512 H501 0.950 . S
C512 C510 1.391 . S
C512 C513 1.400 . S
C513 C507 1.491 . S
C513 C512 1.400 . S
C513 C514 1.398 . S
C514 H502 0.950 . S
C514 C513 1.398 . S
C514 C515 1.391 . S
C515 H503 0.950 . S
C515 C511 1.393 . S
C515 C514 1.391 . S
H516 C524 0.950 . S
H517 C529 0.950 . S
H518 C526 0.950 . S
H519 C528 0.950 . S
H520 C530 0.950 . S
H521 C532 0.950 . S
H522 C534 0.950 . S
H523 C535 0.950 . S
C524 H516 0.950 . S
C524 C525 1.386 . S
C524 C526 1.391 . S
C525 C524 1.386 . S
C525 C529 1.393 . S
C526 H518 0.950 . S
C526 C524 1.391 . S
C526 C527 1.400 . S
C527 C526 1.400 . S
C527 C528 1.398 . S
C527 C533 1.491 . S
C528 H519 0.950 . S
C528 C527 1.398 . S
C528 C529 1.391 . S
C529 H517 0.950 . S
C529 C525 1.393 . S
C529 C528 1.391 . S
C530 H520 0.950 . S
C530 C531 1.386 . S
C530 C532 1.391 . S
C531 C530 1.386 . S
C531 C535 1.393 . S
C532 H521 0.950 . S
C532 C530 1.391 . S
C532 C533 1.400 . S
C533 C527 1.491 . S
C533 C532 1.400 . S
C533 C534 1.398 . S
C534 H522 0.950 . S
C534 C533 1.398 . S
C534 C535 1.391 . S
C535 H523 0.950 . S
C535 C531 1.393 . S
C535 C534 1.391 . S
H536 C544 0.950 . S
H537 C549 0.950 . S
H538 C546 0.950 . S
H539 C548 0.950 . S
H540 C550 0.950 . S
H541 C552 0.950 . S
H542 C554 0.950 . S
H543 C555 0.950 . S
C544 H536 0.950 . S
C544 C545 1.386 . S
C544 C546 1.391 . S
C545 C544 1.386 . S
C545 C549 1.393 . S
C546 H538 0.950 . S
C546 C544 1.391 . S
C546 C547 1.400 . S
C547 C546 1.400 . S
C547 C548 1.398 . S
C547 C553 1.491 . S
C548 H539 0.950 . S
C548 C547 1.398 . S
C548 C549 1.391 . S
C549 H537 0.950 . S
C549 C545 1.393 . S
C549 C548 1.391 . S
C550 H540 0.950 . S
C550 C551 1.386 . S
C550 C552 1.391 . S
C551 C550 1.386 . S
C551 C555 1.393 . S
C552 H541 0.950 . S
C552 C550 1.391 . S
C552 C553 1.400 . S
C553 C547 1.491 . S
C553 C552 1.400 . S
C553 C554 1.398 . S
C554 H542 0.950 . S
C554 C553 1.398 . S
C554 C555 1.391 . S
C555 H543 0.950 . S
C555 C551 1.393 . S
C555 C554 1.391 . S
H556 C564 0.950 . S
H557 C569 0.950 . S
H558 C566 0.950 . S
H559 C568 0.950 . S
H560 C570 0.950 . S
H561 C572 0.950 . S
H562 C574 0.950 . S
H563 C575 0.950 . S
C564 H556 0.950 . S
C564 C565 1.386 . S
C564 C566 1.391 . S
C565 C564 1.386 . S
C565 C569 1.393 . S
C566 H558 0.950 . S
C566 C564 1.391 . S
C566 C567 1.400 . S
C567 C566 1.400 . S
C567 C568 1.398 . S
C567 C573 1.491 . S
C568 H559 0.950 . S
C568 C567 1.398 . S
C568 C569 1.391 . S
C569 H557 0.950 . S
C569 C565 1.393 . S
C569 C568 1.391 . S
C570 H560 0.950 . S
C570 C571 1.386 . S
C570 C572 1.391 . S
C571 C570 1.386 . S
C571 C575 1.393 . S
C572 H561 0.950 . S
C572 C570 1.391 . S
C572 C573 1.400 . S
C573 C567 1.491 . S
C573 C572 1.400 . S
C573 C574 1.398 . S
C574 H562 0.950 . S
C574 C573 1.398 . S
C574 C575 1.391 . S
C575 H563 0.950 . S
C575 C571 1.393 . S
C575 C574 1.391 . S
H576 C584 0.950 . S
H577 C589 0.950 . S
H578 C586 0.950 . S
H579 C588 0.950 . S
H580 C590 0.950 . S
H581 C592 0.950 . S
H582 C594 0.950 . S
H583 C595 0.950 . S
C584 H576 0.950 . S
C584 C585 1.386 . S
C584 C586 1.391 . S
C585 C584 1.386 . S
C585 C589 1.393 . S
C586 H578 0.950 . S
C586 C584 1.391 . S
C586 C587 1.400 . S
C587 C586 1.400 . S
C587 C588 1.398 . S
C587 C593 1.491 . S
C588 H579 0.950 . S
C588 C587 1.398 . S
C588 C589 1.391 . S
C589 H577 0.950 . S
C589 C585 1.393 . S
C589 C588 1.391 . S
C590 H580 0.950 . S
C590 C591 1.386 . S
C590 C592 1.391 . S
C591 C590 1.386 . S
C591 C595 1.393 . S
C592 H581 0.950 . S
C592 C590 1.391 . S
C592 C593 1.400 . S
C593 C587 1.491 . S
C593 C592 1.400 . S
C593 C594 1.398 . S
C594 H582 0.950 . S
C594 C593 1.398 . S
C594 C595 1.391 . S
C595 H583 0.950 . S
C595 C591 1.393 . S
C595 C594 1.391 . S
H596 C604 0.950 . S
H597 C609 0.950 . S
H598 C606 0.950 . S
H599 C608 0.950 . S
H600 C610 0.950 . S
H601 C612 0.950 . S
H602 C614 0.950 . S
H603 C615 0.950 . S
C604 H596 0.950 . S
C604 C605 1.386 . S
C604 C606 1.391 . S
C605 C604 1.386 . S
C605 C609 1.393 . S
C606 H598 0.950 . S
C606 C604 1.391 . S
C606 C607 1.400 . S
C607 C606 1.400 . S
C607 C608 1.398 . S
C607 C613 1.491 . S
C608 H599 0.950 . S
C608 C607 1.398 . S
C608 C609 1.391 . S
C609 H597 0.950 . S
C609 C605 1.393 . S
C609 C608 1.391 . S
C610 H600 0.950 . S
C610 C611 1.386 . S
C610 C612 1.391 . S
C611 C610 1.386 . S
C611 C615 1.393 . S
C612 H601 0.950 . S
C612 C610 1.391 . S
C612 C613 1.400 . S
C613 C607 1.491 . S
C613 C612 1.400 . S
C613 C614 1.398 . S
C614 H602 0.950 . S
C614 C613 1.398 . S
C614 C615 1.391 . S
C615 H603 0.950 . S
C615 C611 1.393 . S
C615 C614 1.391 . S
H616 C624 0.950 . S
H617 C629 0.950 . S
H618 C626 0.950 . S
H619 C628 0.950 . S
H620 C630 0.950 . S
H621 C632 0.950 . S
H622 C634 0.950 . S
H623 C635 0.950 . S
C624 H616 0.950 . S
C624 C625 1.386 . S
C624 C626 1.391 . S
C625 C624 1.386 . S
C625 C629 1.393 . S
C626 H618 0.950 . S
C626 C624 1.391 . S
C626 C627 1.400 . S
C627 C626 1.400 . S
C627 C628 1.398 . S
C627 C633 1.491 . S
C628 H619 0.950 . S
C628 C627 1.398 . S
C628 C629 1.391 . S
C629 H617 0.950 . S
C629 C625 1.393 . S
C629 C628 1.391 . S
C630 H620 0.950 . S
C630 C631 1.386 . S
C630 C632 1.391 . S
C631 C630 1.386 . S
C631 C635 1.393 . S
C632 H621 0.950 . S
C632 C630 1.391 . S
C632 C633 1.400 . S
C633 C627 1.491 . S
C633 C632 1.400 . S
C633 C634 1.398 . S
C634 H622 0.950 . S
C634 C633 1.398 . S
C634 C635 1.391 . S
C635 H623 0.950 . S
C635 C631 1.393 . S
C635 C634 1.391 . S
H636 C644 0.950 . S
H637 C649 0.950 . S
H638 C646 0.950 . S
H639 C648 0.950 . S
H640 C650 0.950 . S
H641 C652 0.950 . S
H642 C654 0.950 . S
H643 C655 0.950 . S
C644 H636 0.950 . S
C644 C645 1.386 . S
C644 C646 1.391 . S
C645 C644 1.386 . S
C645 C649 1.393 . S
C646 H638 0.950 . S
C646 C644 1.391 . S
C646 C647 1.400 . S
C647 C646 1.400 . S
C647 C648 1.398 . S
C647 C653 1.491 . S
C648 H639 0.950 . S
C648 C647 1.398 . S
C648 C649 1.391 . S
C649 H637 0.950 . S
C649 C645 1.393 . S
C649 C648 1.391 . S
C650 H640 0.950 . S
C650 C651 1.386 . S
C650 C652 1.391 . S
C651 C650 1.386 . S
C651 C655 1.393 . S
C652 H641 0.950 . S
C652 C650 1.391 . S
C652 C653 1.400 . S
C653 C647 1.491 . S
C653 C652 1.400 . S
C653 C654 1.398 . S
C654 H642 0.950 . S
C654 C653 1.398 . S
C654 C655 1.391 . S
C655 H643 0.950 . S
C655 C651 1.393 . S
C655 C654 1.391 . S
H656 C664 0.950 . S
H657 C669 0.950 . S
H658 C666 0.950 . S
H659 C668 0.950 . S
H660 C670 0.950 . S
H661 C672 0.950 . S
H662 C674 0.950 . S
H663 C675 0.950 . S
C664 H656 0.950 . S
C664 C665 1.386 . S
C664 C666 1.391 . S
C665 C664 1.386 . S
C665 C669 1.393 . S
C666 H658 0.950 . S
C666 C664 1.391 . S
C666 C667 1.400 . S
C667 C666 1.400 . S
C667 C668 1.398 . S
C667 C673 1.491 . S
C668 H659 0.950 . S
C668 C667 1.398 . S
C668 C669 1.391 . S
C669 H657 0.950 . S
C669 C665 1.393 . S
C669 C668 1.391 . S
C670 H660 0.950 . S
C670 C671 1.386 . S
C670 C672 1.391 . S
C671 C670 1.386 . S
C671 C675 1.393 . S
C672 H661 0.950 . S
C672 C670 1.391 . S
C672 C673 1.400 . S
C673 C667 1.491 . S
C673 C672 1.400 . S
C673 C674 1.398 . S
C674 H662 0.950 . S
C674 C673 1.398 . S
C674 C675 1.391 . S
C675 H663 0.950 . S
C675 C671 1.393 . S
C675 C674 1.391 . S
H676 C684 0.950 . S
H677 C689 0.950 . S
H678 C686 0.950 . S
H679 C688 0.950 . S
H680 C690 0.950 . S
H681 C692 0.950 . S
H682 C694 0.950 . S
H683 C695 0.950 . S
C684 H676 0.950 . S
C684 C685 1.386 . S
C684 C686 1.391 . S
C685 C684 1.386 . S
C685 C689 1.393 . S
C686 H678 0.950 . S
C686 C684 1.391 . S
C686 C687 1.400 . S
C687 C686 1.400 . S
C687 C688 1.398 . S
C687 C693 1.491 . S
C688 H679 0.950 . S
C688 C687 1.398 . S
C688 C689 1.391 . S
C689 H677 0.950 . S
C689 C685 1.393 . S
C689 C688 1.391 . S
C690 H680 0.950 . S
C690 C691 1.386 . S
C690 C692 1.391 . S
C691 C690 1.386 . S
C691 C695 1.393 . S
C692 H681 0.950 . S
C692 C690 1.391 . S
C692 C693 1.400 . S
C693 C687 1.491 . S
C693 C692 1.400 . S
C693 C694 1.398 . S
C694 H682 0.950 . S
C694 C693 1.398 . S
C694 C695 1.391 . S
C695 H683 0.950 . S
C695 C691 1.393 . S
C695 C694 1.391 . S
H696 C704 0.950 . S
H697 C709 0.950 . S
H698 C706 0.950 . S
H699 C708 0.950 . S
H700 C710 0.950 . S
H701 C712 0.950 . S
H702 C714 0.950 . S
H703 C715 0.950 . S
C704 H696 0.950 . S
C704 C705 1.386 . S
C704 C706 1.391 . S
C705 C704 1.386 . S
C705 C709 1.393 . S
C706 H698 0.950 . S
C706 C704 1.391 . S
C706 C707 1.400 . S
C707 C706 1.400 . S
C707 C708 1.398 . S
C707 C713 1.491 . S
C708 H699 0.950 . S
C708 C707 1.398 . S
C708 C709 1.391 . S
C709 H697 0.950 . S
C709 C705 1.393 . S
C709 C708 1.391 . S
C710 H700 0.950 . S
C710 C711 1.386 . S
C710 C712 1.391 . S
C711 C710 1.386 . S
C711 C715 1.393 . S
C712 H701 0.950 . S
C712 C710 1.391 . S
C712 C713 1.400 . S
C713 C707 1.491 . S
C713 C712 1.400 . S
C713 C714 1.398 . S
C714 H702 0.950 . S
C714 C713 1.398 . S
C714 C715 1.391 . S
C715 H703 0.950 . S
C715 C711 1.393 . S
C715 C714 1.391 . S
H716 C724 0.950 . S
H717 C729 0.950 . S
H718 C726 0.950 . S
H719 C728 0.950 . S
H720 C730 0.950 . S
H721 C732 0.950 . S
H722 C734 0.950 . S
H723 C735 0.950 . S
C724 H716 0.950 . S
C724 C725 1.386 . S
C724 C726 1.391 . S
C725 C724 1.386 . S
C725 C729 1.393 . S
C726 H718 0.950 . S
C726 C724 1.391 . S
C726 C727 1.400 . S
C727 C726 1.400 . S
C727 C728 1.398 . S
C727 C733 1.491 . S
C728 H719 0.950 . S
C728 C727 1.398 . S
C728 C729 1.391 . S
C729 H717 0.950 . S
C729 C725 1.393 . S
C729 C728 1.391 . S
C730 H720 0.950 . S
C730 C731 1.386 . S
C730 C732 1.391 . S
C731 C730 1.386 . S
C731 C735 1.393 . S
C732 H721 0.950 . S
C732 C730 1.391 . S
C732 C733 1.400 . S
C733 C727 1.491 . S
C733 C732 1.400 . S
C733 C734 1.398 . S
C734 H722 0.950 . S
C734 C733 1.398 . S
C734 C735 1.391 . S
C735 H723 0.950 . S
C735 C731 1.393 . S
C735 C734 1.391 . S
H736 C744 0.950 . S
H737 C749 0.950 . S
H738 C746 0.950 . S
H739 C748 0.950 . S
H740 C750 0.950 . S
H741 C752 0.950 . S
H742 C754 0.950 . S
H743 C755 0.950 . S
C744 H736 0.950 . S
C744 C745 1.386 . S
C744 C746 1.391 . S
C745 C744 1.386 . S
C745 C749 1.393 . S
C746 H738 0.950 . S
C746 C744 1.391 . S
C746 C747 1.400 . S
C747 C746 1.400 . S
C747 C748 1.398 . S
C747 C753 1.491 . S
C748 H739 0.950 . S
C748 C747 1.398 . S
C748 C749 1.391 . S
C749 H737 0.950 . S
C749 C745 1.393 . S
C749 C748 1.391 . S
C750 H740 0.950 . S
C750 C751 1.386 . S
C750 C752 1.391 . S
C751 C750 1.386 . S
C751 C755 1.393 . S
C752 H741 0.950 . S
C752 C750 1.391 . S
C752 C753 1.400 . S
C753 C747 1.491 . S
C753 C752 1.400 . S
C753 C754 1.398 . S
C754 H742 0.950 . S
C754 C753 1.398 . S
C754 C755 1.391 . S
C755 H743 0.950 . S
C755 C751 1.393 . S
C755 C754 1.391 . S
H756 C764 0.950 . S
H757 C769 0.950 . S
H758 C766 0.950 . S
H759 C768 0.950 . S
H760 C770 0.950 . S
H761 C772 0.950 . S
H762 C774 0.943 1_554 S
H763 C775 0.950 . S
C764 H756 0.950 . S
C764 C765 1.386 . S
C764 C766 1.391 . S
C765 C764 1.386 . S
C765 C769 1.393 . S
C766 H758 0.950 . S
C766 C764 1.391 . S
C766 C767 1.400 . S
C767 C766 1.400 . S
C767 C768 1.398 . S
C767 C773 1.491 . S
C768 H759 0.950 . S
C768 C767 1.398 . S
C768 C769 1.391 . S
C769 H757 0.950 . S
C769 C765 1.393 . S
C769 C768 1.391 . S
C770 H760 0.950 . S
C770 C771 1.386 1_556 S
C770 C772 1.391 . S
C771 C770 1.386 1_554 S
C771 C775 1.393 . S
C772 H761 0.950 . S
C772 C770 1.391 . S
C772 C773 1.400 . S
C773 C767 1.491 . S
C773 C772 1.400 . S
C773 C774 1.427 . S
C774 H762 0.943 1_556 S
C774 C773 1.427 . S
C774 C775 1.370 1_556 S
C775 H763 0.950 . S
C775 C771 1.393 . S
C775 C774 1.370 1_554 S
H776 C784 0.950 . S
H777 C789 0.950 . S
H778 C786 0.950 . S
H779 C788 0.950 . S
H780 C790 0.950 . S
H781 C792 0.950 . S
H782 C794 0.950 . S
H783 C795 0.950 . S
C784 H776 0.950 . S
C784 C785 1.386 . S
C784 C786 1.391 . S
C785 C784 1.386 . S
C785 C789 1.393 . S
C786 H778 0.950 . S
C786 C784 1.391 . S
C786 C787 1.400 . S
C787 C786 1.400 . S
C787 C788 1.398 . S
C787 C793 1.491 . S
C788 H779 0.950 . S
C788 C787 1.398 . S
C788 C789 1.391 . S
C789 H777 0.950 . S
C789 C785 1.393 . S
C789 C788 1.391 . S
C790 H780 0.950 . S
C790 C791 1.386 . S
C790 C792 1.391 . S
C791 C790 1.386 . S
C791 C795 1.393 . S
C792 H781 0.950 . S
C792 C790 1.391 . S
C792 C793 1.400 . S
C793 C787 1.491 . S
C793 C792 1.400 . S
C793 C794 1.398 . S
C794 H782 0.950 . S
C794 C793 1.398 . S
C794 C795 1.391 . S
C795 H783 0.950 . S
C795 C791 1.393 . S
C795 C794 1.391 . S
H796 C804 0.950 . S
H797 C809 0.950 . S
H798 C806 0.950 . S
H799 C808 0.950 . S
H800 C810 0.950 . S
H801 C812 0.950 . S
H802 C814 0.950 . S
H803 C815 0.950 . S
C804 H796 0.950 . S
C804 C805 1.386 . S
C804 C806 1.391 . S
C805 C804 1.386 . S
C805 C809 1.393 . S
C806 H798 0.950 . S
C806 C804 1.391 . S
C806 C807 1.400 . S
C807 C806 1.400 . S
C807 C808 1.398 . S
C807 C813 1.491 . S
C808 H799 0.950 . S
C808 C807 1.398 . S
C808 C809 1.391 . S
C809 H797 0.950 . S
C809 C805 1.393 . S
C809 C808 1.391 . S
C810 H800 0.950 . S
C810 C811 1.386 . S
C810 C812 1.391 . S
C811 C810 1.386 . S
C811 C815 1.393 . S
C812 H801 0.950 . S
C812 C810 1.391 . S
C812 C813 1.400 . S
C813 C807 1.491 . S
C813 C812 1.400 . S
C813 C814 1.398 . S
C814 H802 0.950 . S
C814 C813 1.398 . S
C814 C815 1.391 . S
C815 H803 0.950 . S
C815 C811 1.393 . S
C815 C814 1.391 . S
H816 C824 0.950 . S
H817 C829 0.950 . S
H818 C826 0.950 . S
H819 C828 0.950 . S
H820 C830 0.950 . S
H821 C832 0.950 . S
H822 C834 0.950 . S
H823 C835 0.950 . S
C824 H816 0.950 . S
C824 C825 1.386 . S
C824 C826 1.391 . S
C825 C824 1.386 . S
C825 C829 1.393 . S
C826 H818 0.950 . S
C826 C824 1.391 . S
C826 C827 1.400 . S
C827 C826 1.400 . S
C827 C828 1.398 . S
C827 C833 1.491 . S
C828 H819 0.950 . S
C828 C827 1.398 . S
C828 C829 1.391 . S
C829 H817 0.950 . S
C829 C825 1.393 . S
C829 C828 1.391 . S
C830 H820 0.950 . S
C830 C831 1.386 . S
C830 C832 1.391 . S
C831 C830 1.386 . S
C831 C835 1.393 . S
C832 H821 0.950 . S
C832 C830 1.391 . S
C832 C833 1.400 . S
C833 C827 1.491 . S
C833 C832 1.400 . S
C833 C834 1.398 . S
C834 H822 0.950 . S
C834 C833 1.398 . S
C834 C835 1.391 . S
C835 H823 0.950 . S
C835 C831 1.393 . S
C835 C834 1.391 . S
H836 C844 0.950 . S
H837 C849 0.950 . S
H838 C846 0.950 . S
H839 C848 0.950 . S
H840 C850 0.950 . S
H841 C852 0.950 . S
H842 C854 0.950 . S
H843 C855 0.950 . S
C844 H836 0.950 . S
C844 C845 1.386 . S
C844 C846 1.391 . S
C845 C844 1.386 . S
C845 C849 1.393 . S
C846 H838 0.950 . S
C846 C844 1.391 . S
C846 C847 1.400 . S
C847 C846 1.400 . S
C847 C848 1.398 . S
C847 C853 1.491 . S
C848 H839 0.950 . S
C848 C847 1.398 . S
C848 C849 1.391 . S
C849 H837 0.950 . S
C849 C845 1.393 . S
C849 C848 1.391 . S
C850 H840 0.950 . S
C850 C851 1.386 . S
C850 C852 1.391 . S
C851 C850 1.386 . S
C851 C855 1.393 . S
C852 H841 0.950 . S
C852 C850 1.391 . S
C852 C853 1.400 . S
C853 C847 1.491 . S
C853 C852 1.400 . S
C853 C854 1.398 . S
C854 H842 0.950 . S
C854 C853 1.398 . S
C854 C855 1.391 . S
C855 H843 0.950 . S
C855 C851 1.393 . S
C855 C854 1.391 . S
H856 C864 0.950 . S
H857 C869 0.950 . S
H858 C866 0.950 . S
H859 C868 0.950 . S
H860 C870 0.950 . S
H861 C872 0.950 . S
H862 C874 0.950 . S
H863 C875 0.950 . S
C864 H856 0.950 . S
C864 C865 1.386 . S
C864 C866 1.391 . S
C865 C864 1.386 . S
C865 C869 1.393 . S
C866 H858 0.950 . S
C866 C864 1.391 . S
C866 C867 1.400 . S
C867 C866 1.400 . S
C867 C868 1.398 . S
C867 C873 1.491 . S
C868 H859 0.950 . S
C868 C867 1.398 . S
C868 C869 1.391 . S
C869 H857 0.950 . S
C869 C865 1.393 . S
C869 C868 1.391 . S
C870 H860 0.950 . S
C870 C871 1.386 . S
C870 C872 1.391 . S
C871 C870 1.386 . S
C871 C875 1.393 . S
C872 H861 0.950 . S
C872 C870 1.391 . S
C872 C873 1.400 . S
C873 C867 1.491 . S
C873 C872 1.400 . S
C873 C874 1.398 . S
C874 H862 0.950 . S
C874 C873 1.398 . S
C874 C875 1.391 . S
C875 H863 0.950 . S
C875 C871 1.393 . S
C875 C874 1.391 . S
H876 C884 0.950 . S
H877 C889 0.950 . S
H878 C886 0.950 . S
H879 C888 0.950 . S
H880 C890 0.950 . S
H881 C892 0.950 . S
H882 C894 0.950 . S
H883 C895 0.950 . S
C884 H876 0.950 . S
C884 C885 1.386 . S
C884 C886 1.391 . S
C885 C884 1.386 . S
C885 C889 1.393 . S
C886 H878 0.950 . S
C886 C884 1.391 . S
C886 C887 1.400 . S
C887 C886 1.400 . S
C887 C888 1.398 . S
C887 C893 1.491 . S
C888 H879 0.950 . S
C888 C887 1.398 . S
C888 C889 1.391 . S
C889 H877 0.950 . S
C889 C885 1.393 . S
C889 C888 1.391 . S
C890 H880 0.950 . S
C890 C891 1.386 . S
C890 C892 1.391 . S
C891 C890 1.386 . S
C891 C895 1.393 . S
C892 H881 0.950 . S
C892 C890 1.391 . S
C892 C893 1.400 . S
C893 C887 1.491 . S
C893 C892 1.400 . S
C893 C894 1.398 . S
C894 H882 0.950 . S
C894 C893 1.398 . S
C894 C895 1.391 . S
C895 H883 0.950 . S
C895 C891 1.393 . S
C895 C894 1.391 . S
H896 C904 0.950 . S
H897 C909 0.950 . S
H898 C906 0.950 . S
H899 C908 0.950 . S
H900 C910 0.950 . S
H901 C912 0.950 . S
H902 C914 0.950 . S
H903 C915 0.950 . S
C904 H896 0.950 . S
C904 C905 1.386 . S
C904 C906 1.391 . S
C905 C904 1.386 . S
C905 C909 1.393 . S
C906 H898 0.950 . S
C906 C904 1.391 . S
C906 C907 1.400 . S
C907 C906 1.400 . S
C907 C908 1.398 . S
C907 C913 1.491 1_554 S
C908 H899 0.950 . S
C908 C907 1.398 . S
C908 C909 1.391 . S
C909 H897 0.950 . S
C909 C905 1.393 . S
C909 C908 1.391 . S
C910 H900 0.950 . S
C910 C911 1.386 . S
C910 C912 1.391 . S
C911 C910 1.386 . S
C911 C915 1.393 . S
C912 H901 0.950 . S
C912 C910 1.391 . S
C912 C913 1.400 . S
C913 C907 1.491 1_556 S
C913 C912 1.400 . S
C913 C914 1.398 . S
C914 H902 0.950 . S
C914 C913 1.398 . S
C914 C915 1.391 . S
C915 H903 0.950 . S
C915 C911 1.393 . S
C915 C914 1.391 . S
H916 C924 0.950 . S
H917 C929 0.950 . S
H918 C926 0.950 . S
H919 C928 0.950 . S
H920 C930 0.950 . S
H921 C932 0.950 . S
H922 C934 0.950 . S
H923 C935 0.950 . S
C924 H916 0.950 . S
C924 C925 1.386 . S
C924 C926 1.391 . S
C925 C924 1.386 . S
C925 C929 1.393 . S
C926 H918 0.950 . S
C926 C924 1.391 . S
C926 C927 1.400 . S
C927 C926 1.400 . S
C927 C928 1.398 . S
C927 C933 1.491 . S
C928 H919 0.950 . S
C928 C927 1.398 . S
C928 C929 1.391 . S
C929 H917 0.950 . S
C929 C925 1.393 . S
C929 C928 1.391 . S
C930 H920 0.950 . S
C930 C931 1.386 . S
C930 C932 1.391 . S
C931 C930 1.386 . S
C931 C935 1.393 . S
C932 H921 0.950 . S
C932 C930 1.391 . S
C932 C933 1.400 . S
C933 C927 1.491 . S
C933 C932 1.400 . S
C933 C934 1.398 . S
C934 H922 0.950 . S
C934 C933 1.398 . S
C934 C935 1.391 . S
C935 H923 0.950 . S
C935 C931 1.393 . S
C935 C934 1.391 . S
C471 C449 1.628 . S
C465 C29 1.529 . S
C485 C115 1.411 . S
C491 C383 1.406 . S
C505 C153 1.369 . S
C511 C397 1.447 . S
C525 C239 1.418 . S
C531 C411 1.413 . S
C551 C425 1.519 . S
C545 C301 1.511 . S
C565 C339 1.732 . S
C571 C435 1.841 . S
C585 C91 1.557 . S
C591 C393 1.629 . S
C605 C177 1.604 . S
C611 C407 1.623 . S
C625 C215 1.567 . S
C631 C421 1.644 . S
C651 C439 1.800 . S
C645 C277 1.739 . S
C671 C453 1.492 . S
C665 C363 1.493 . S
C691 C379 1.510 . S
C685 C53 1.491 . S
C705 C35 1.573 . S
C711 C394 1.541 . S
C725 C109 1.486 . S
C731 C408 1.540 . S
C751 C422 1.500 . S
C745 C159 1.526 . S
C765 C233 1.578 . S
C771 C441 1.649 . S
C791 C455 1.419 . S
C785 C295 1.346 . S
C811 C380 1.332 . S
C805 C345 1.360 . S
C831 C450 1.385 . S
C825 C97 1.410 . S
C845 C171 1.241 . S
C851 C385 1.308 . S
C871 C399 1.394 . S
C865 C221 1.432 . S
C885 C283 1.329 . S
C891 C413 1.296 . S
C905 C357 1.408 . S
C911 C427 1.469 . S
C925 C47 1.627 . S
C931 C436 1.675 . S
