# Generated by pormake.
# Topology eea, (3,6)-cn, num edge types: 1
# Building blocks:
#     Node 0, Type 0, BuildingBlock: PAMTOO_clean_linker_0, # of connection points: 3
#     Node 1, Type 0, BuildingBlock: PAMTOO_clean_linker_0, # of connection points: 3
#     Node 2, Type 0, BuildingBlock: PAMTOO_clean_linker_0, # of connection points: 3
#     Node 3, Type 0, BuildingBlock: PAMTOO_clean_linker_0, # of connection points: 3
#     Node 4, Type 0, BuildingBlock: PAMTOO_clean_linker_0, # of connection points: 3
#     Node 5, Type 0, BuildingBlock: PAMTOO_clean_linker_0, # of connection points: 3
#     Node 6, Type 0, BuildingBlock: PAMTOO_clean_linker_0, # of connection points: 3
#     Node 7, Type 0, BuildingBlock: PAMTOO_clean_linker_0, # of connection points: 3
#     Node 8, Type 0, BuildingBlock: PAMTOO_clean_linker_0, # of connection points: 3
#     Node 9, Type 0, BuildingBlock: PAMTOO_clean_linker_0, # of connection points: 3
#     Node 10, Type 0, BuildingBlock: PAMTOO_clean_linker_0, # of connection points: 3
#     Node 11, Type 0, BuildingBlock: PAMTOO_clean_linker_0, # of connection points: 3
#     Node 12, Type 0, BuildingBlock: PAMTOO_clean_linker_0, # of connection points: 3
#     Node 13, Type 0, BuildingBlock: PAMTOO_clean_linker_0, # of connection points: 3
#     Node 14, Type 0, BuildingBlock: PAMTOO_clean_linker_0, # of connection points: 3
#     Node 15, Type 0, BuildingBlock: PAMTOO_clean_linker_0, # of connection points: 3
#     Node 16, Type 0, BuildingBlock: PAMTOO_clean_linker_0, # of connection points: 3
#     Node 17, Type 0, BuildingBlock: PAMTOO_clean_linker_0, # of connection points: 3
#     Node 18, Type 1, BuildingBlock: CUWYAW_clean_sbu_0, # of connection points: 6
#     Node 19, Type 1, BuildingBlock: CUWYAW_clean_sbu_0, # of connection points: 6
#     Node 20, Type 1, BuildingBlock: CUWYAW_clean_sbu_0, # of connection points: 6
#     Node 21, Type 1, BuildingBlock: CUWYAW_clean_sbu_0, # of connection points: 6
#     Node 22, Type 1, BuildingBlock: CUWYAW_clean_sbu_0, # of connection points: 6
#     Node 23, Type 1, BuildingBlock: CUWYAW_clean_sbu_0, # of connection points: 6
#     Node 24, Type 1, BuildingBlock: CUWYAW_clean_sbu_0, # of connection points: 6
#     Node 25, Type 1, BuildingBlock: CUWYAW_clean_sbu_0, # of connection points: 6
#     Node 26, Type 1, BuildingBlock: CUWYAW_clean_sbu_0, # of connection points: 6
#     Edge 27, Type (0, 1), BuildingBlock: EZIPEK_clean_linker_0, # of connection points: 2
#     Edge 28, Type (0, 1), BuildingBlock: EZIPEK_clean_linker_0, # of connection points: 2
#     Edge 29, Type (0, 1), BuildingBlock: EZIPEK_clean_linker_0, # of connection points: 2
#     Edge 30, Type (0, 1), BuildingBlock: EZIPEK_clean_linker_0, # of connection points: 2
#     Edge 31, Type (0, 1), BuildingBlock: EZIPEK_clean_linker_0, # of connection points: 2
#     Edge 32, Type (0, 1), BuildingBlock: EZIPEK_clean_linker_0, # of connection points: 2
#     Edge 33, Type (0, 1), BuildingBlock: EZIPEK_clean_linker_0, # of connection points: 2
#     Edge 34, Type (0, 1), BuildingBlock: EZIPEK_clean_linker_0, # of connection points: 2
#     Edge 35, Type (0, 1), BuildingBlock: EZIPEK_clean_linker_0, # of connection points: 2
#     Edge 36, Type (0, 1), BuildingBlock: EZIPEK_clean_linker_0, # of connection points: 2
#     Edge 37, Type (0, 1), BuildingBlock: EZIPEK_clean_linker_0, # of connection points: 2
#     Edge 38, Type (0, 1), BuildingBlock: EZIPEK_clean_linker_0, # of connection points: 2
#     Edge 39, Type (0, 1), BuildingBlock: EZIPEK_clean_linker_0, # of connection points: 2
#     Edge 40, Type (0, 1), BuildingBlock: EZIPEK_clean_linker_0, # of connection points: 2
#     Edge 41, Type (0, 1), BuildingBlock: EZIPEK_clean_linker_0, # of connection points: 2
#     Edge 42, Type (0, 1), BuildingBlock: EZIPEK_clean_linker_0, # of connection points: 2
#     Edge 43, Type (0, 1), BuildingBlock: EZIPEK_clean_linker_0, # of connection points: 2
#     Edge 44, Type (0, 1), BuildingBlock: EZIPEK_clean_linker_0, # of connection points: 2
#     Edge 45, Type (0, 1), BuildingBlock: EZIPEK_clean_linker_0, # of connection points: 2
#     Edge 46, Type (0, 1), BuildingBlock: EZIPEK_clean_linker_0, # of connection points: 2
#     Edge 47, Type (0, 1), BuildingBlock: EZIPEK_clean_linker_0, # of connection points: 2
#     Edge 48, Type (0, 1), BuildingBlock: EZIPEK_clean_linker_0, # of connection points: 2
#     Edge 49, Type (0, 1), BuildingBlock: EZIPEK_clean_linker_0, # of connection points: 2
#     Edge 50, Type (0, 1), BuildingBlock: EZIPEK_clean_linker_0, # of connection points: 2
#     Edge 51, Type (0, 1), BuildingBlock: EZIPEK_clean_linker_0, # of connection points: 2
#     Edge 52, Type (0, 1), BuildingBlock: EZIPEK_clean_linker_0, # of connection points: 2
#     Edge 53, Type (0, 1), BuildingBlock: EZIPEK_clean_linker_0, # of connection points: 2
#     Edge 54, Type (0, 1), BuildingBlock: EZIPEK_clean_linker_0, # of connection points: 2
#     Edge 55, Type (0, 1), BuildingBlock: EZIPEK_clean_linker_0, # of connection points: 2
#     Edge 56, Type (0, 1), BuildingBlock: EZIPEK_clean_linker_0, # of connection points: 2
#     Edge 57, Type (0, 1), BuildingBlock: EZIPEK_clean_linker_0, # of connection points: 2
#     Edge 58, Type (0, 1), BuildingBlock: EZIPEK_clean_linker_0, # of connection points: 2
#     Edge 59, Type (0, 1), BuildingBlock: EZIPEK_clean_linker_0, # of connection points: 2
#     Edge 60, Type (0, 1), BuildingBlock: EZIPEK_clean_linker_0, # of connection points: 2
#     Edge 61, Type (0, 1), BuildingBlock: EZIPEK_clean_linker_0, # of connection points: 2
#     Edge 62, Type (0, 1), BuildingBlock: EZIPEK_clean_linker_0, # of connection points: 2
#     Edge 63, Type (0, 1), BuildingBlock: EZIPEK_clean_linker_0, # of connection points: 2
#     Edge 64, Type (0, 1), BuildingBlock: EZIPEK_clean_linker_0, # of connection points: 2
#     Edge 65, Type (0, 1), BuildingBlock: EZIPEK_clean_linker_0, # of connection points: 2
#     Edge 66, Type (0, 1), BuildingBlock: EZIPEK_clean_linker_0, # of connection points: 2
#     Edge 67, Type (0, 1), BuildingBlock: EZIPEK_clean_linker_0, # of connection points: 2
#     Edge 68, Type (0, 1), BuildingBlock: EZIPEK_clean_linker_0, # of connection points: 2
#     Edge 69, Type (0, 1), BuildingBlock: EZIPEK_clean_linker_0, # of connection points: 2
#     Edge 70, Type (0, 1), BuildingBlock: EZIPEK_clean_linker_0, # of connection points: 2
#     Edge 71, Type (0, 1), BuildingBlock: EZIPEK_clean_linker_0, # of connection points: 2
#     Edge 72, Type (0, 1), BuildingBlock: EZIPEK_clean_linker_0, # of connection points: 2
#     Edge 73, Type (0, 1), BuildingBlock: EZIPEK_clean_linker_0, # of connection points: 2
#     Edge 74, Type (0, 1), BuildingBlock: EZIPEK_clean_linker_0, # of connection points: 2
#     Edge 75, Type (0, 1), BuildingBlock: EZIPEK_clean_linker_0, # of connection points: 2
#     Edge 76, Type (0, 1), BuildingBlock: EZIPEK_clean_linker_0, # of connection points: 2
#     Edge 77, Type (0, 1), BuildingBlock: EZIPEK_clean_linker_0, # of connection points: 2
#     Edge 78, Type (0, 1), BuildingBlock: EZIPEK_clean_linker_0, # of connection points: 2
#     Edge 79, Type (0, 1), BuildingBlock: EZIPEK_clean_linker_0, # of connection points: 2
#     Edge 80, Type (0, 1), BuildingBlock: EZIPEK_clean_linker_0, # of connection points: 2
# Relax obj value: 0.058
# Max RMSD: 0.227
# Mean RMSD: 0.161
data_MOF--net-eea--node1-CUWYAW_clean_sbu_0--node2-PAMTOO_clean_linker_0--edge1-EZIPEK_clean_linker_0
_symmetry_space_group_name_H-M    P1
_symmetry_Int_Tables_number       1
_symmetry_cell_setting            triclinic
loop_
_symmetry_equiv_pos_as_xyz
'x, y, z'
_cell_length_a     39.554518
_cell_length_b     39.130043
_cell_length_c     54.640691
_cell_angle_alpha  93.28587
_cell_angle_beta   93.09219
_cell_angle_gamma 119.85035
loop_
_atom_site_label
_atom_site_type_symbol
_atom_site_fract_x
_atom_site_fract_y
_atom_site_fract_z
_atom_type_partial_charge
H0 H 0.24669 0.05083 0.42686 0.0
H1 H 0.23321 0.15316 0.43578 0.0
H2 H 0.21383 0.09291 0.36372 0.0
H3 H 0.25733 0.18484 0.36851 0.0
C4 C 0.24012 0.18804 0.38294 0.0
O5 O 0.21252 0.15131 0.38914 0.0
H6 H 0.26252 0.20498 0.39872 0.0
C7 C 0.23973 0.07161 0.41892 0.0
C8 C 0.22944 0.06755 0.39345 0.0
C9 C 0.24179 0.10279 0.43415 0.0
C10 C 0.2321 0.12928 0.42404 0.0
C11 C 0.22226 0.12588 0.39866 0.0
C12 C 0.22149 0.09541 0.38334 0.0
H13 H 0.9601 0.22179 0.43483 0.0
H14 H 0.85897 0.10577 0.43416 0.0
H15 H 0.92686 0.13583 0.372 0.0
H16 H 0.83131 0.08328 0.36359 0.0
C17 C 0.82959 0.06597 0.37932 0.0
O18 O 0.86653 0.07935 0.39087 0.0
H19 H 0.81152 0.07203 0.39182 0.0
C20 C 0.94018 0.19277 0.42538 0.0
C21 C 0.94722 0.18231 0.40191 0.0
C22 C 0.90811 0.16525 0.43697 0.0
C23 C 0.88324 0.12728 0.42505 0.0
C24 C 0.88955 0.1168 0.40153 0.0
C25 C 0.92136 0.14441 0.3899 0.0
H26 H 0.8209 0.75784 0.44045 0.0
H27 H 0.93239 0.7629 0.44655 0.0
H28 H 0.89841 0.80329 0.38335 0.0
H29 H 0.94036 0.76405 0.37079 0.0
C30 C 0.95915 0.77007 0.38819 0.0
O31 O 0.95407 0.79444 0.40501 0.0
H32 H 0.94835 0.74036 0.39477 0.0
C33 C 0.84821 0.76484 0.43294 0.0
C34 C 0.85612 0.78072 0.41018 0.0
C35 C 0.87561 0.7584 0.4462 0.0
C36 C 0.911 0.76764 0.43642 0.0
C37 C 0.91919 0.7838 0.41378 0.0
C38 C 0.89181 0.79042 0.40073 0.0
H39 H 0.06352 0.27095 0.58318 0.0
H40 H 0.16379 0.25664 0.57632 0.0
H41 H 0.10138 0.22286 0.64066 0.0
H42 H 0.20108 0.27578 0.64004 0.0
C43 C 0.19865 0.25204 0.62669 0.0
O44 O 0.15994 0.22626 0.61823 0.0
H45 H 0.21504 0.26802 0.61128 0.0
C46 C 0.08386 0.26242 0.59071 0.0
C47 C 0.07852 0.24622 0.61351 0.0
C48 C 0.1151 0.26693 0.57744 0.0
C49 C 0.14025 0.25418 0.58675 0.0
C50 C 0.1358 0.23901 0.60969 0.0
C51 C 0.10528 0.23551 0.62319 0.0
H52 H 0.76327 0.79699 0.59379 0.0
H53 H 0.77825 0.91306 0.58936 0.0
H54 H 0.80979 0.88259 0.65771 0.0
H55 H 0.76877 0.935 0.65883 0.0
C56 C 0.78409 0.95206 0.64349 0.0
O57 O 0.80857 0.93936 0.63488 0.0
H58 H 0.7599 0.94504 0.62917 0.0
C59 C 0.77193 0.82611 0.60253 0.0
C60 C 0.78698 0.83632 0.62746 0.0
C61 C 0.76797 0.8535 0.58888 0.0
C62 C 0.78038 0.89156 0.59998 0.0
C63 C 0.79522 0.90199 0.62475 0.0
C64 C 0.79795 0.87423 0.63858 0.0
H65 H 0.20663 0.96469 0.59239 0.0
H66 H 0.09031 0.86373 0.58012 0.0
H67 H 0.13392 0.92595 0.65244 0.0
H68 H 0.08548 0.82781 0.64138 0.0
C69 C 0.06181 0.82875 0.63011 0.0
O70 O 0.07311 0.86727 0.6257 0.0
H71 H 0.05839 0.81117 0.61248 0.0
C72 C 0.17917 0.94446 0.59939 0.0
C73 C 0.17381 0.94957 0.62425 0.0
C74 C 0.1495 0.91322 0.58353 0.0
C75 C 0.11356 0.8876 0.59239 0.0
C76 C 0.10802 0.89186 0.6173 0.0
C77 C 0.13837 0.92249 0.63327 0.0
H78 H 0.9149 0.38292 0.76085 0.0
H79 H 0.89903 0.48379 0.76963 0.0
H80 H 0.87951 0.42296 0.69773 0.0
H81 H 0.92372 0.51558 0.70257 0.0
C82 C 0.90645 0.51864 0.71701 0.0
O83 O 0.87862 0.48182 0.72295 0.0
H84 H 0.92876 0.53527 0.73288 0.0
C85 C 0.90729 0.40326 0.75291 0.0
C86 C 0.89644 0.39872 0.72752 0.0
C87 C 0.90867 0.43412 0.76808 0.0
C88 C 0.89824 0.46005 0.75793 0.0
C89 C 0.88825 0.45639 0.73256 0.0
C90 C 0.8876 0.42591 0.71733 0.0
H91 H 0.62999 0.5574 0.77207 0.0
H92 H 0.52978 0.44091 0.77265 0.0
H93 H 0.59641 0.47009 0.70997 0.0
H94 H 0.50281 0.4186 0.70162 0.0
C95 C 0.50034 0.40092 0.71729 0.0
O96 O 0.5368 0.41399 0.72944 0.0
H97 H 0.4817 0.40669 0.72945 0.0
C98 C 0.61018 0.52812 0.76293 0.0
C99 C 0.61689 0.51721 0.73946 0.0
C100 C 0.57856 0.50066 0.77492 0.0
C101 C 0.55379 0.46239 0.76334 0.0
C102 C 0.55984 0.45155 0.73984 0.0
C103 C 0.59119 0.479 0.72787 0.0
H104 H 0.49015 0.09605 0.77312 0.0
H105 H 0.60496 0.10939 0.78234 0.0
H106 H 0.56622 0.13622 0.71484 0.0
H107 H 0.61264 0.08148 0.72098 0.0
C108 C 0.63658 0.10776 0.73228 0.0
O109 O 0.62464 0.13445 0.73889 0.0
H110 H 0.64195 0.09569 0.74905 0.0
C111 C 0.51767 0.10328 0.76584 0.0
C112 C 0.52472 0.11651 0.74232 0.0
C113 C 0.54632 0.10024 0.78025 0.0
C114 C 0.58244 0.111 0.77113 0.0
C115 C 0.58938 0.12321 0.74735 0.0
C116 C 0.56038 0.12566 0.7329 0.0
H117 H 0.73831 0.62336 0.92417 0.0
H118 H 0.83429 0.6043 0.91124 0.0
H119 H 0.77228 0.56348 0.97529 0.0
H120 H 0.87339 0.61703 0.97265 0.0
C121 C 0.8692 0.59225 0.95948 0.0
O122 O 0.83007 0.56837 0.95109 0.0
H123 H 0.88598 0.6071 0.94391 0.0
C124 C 0.75776 0.61272 0.93005 0.0
C125 C 0.75167 0.59298 0.95149 0.0
C126 C 0.78755 0.61694 0.91547 0.0
C127 C 0.81162 0.60165 0.92259 0.0
C128 C 0.80691 0.5834 0.94452 0.0
C129 C 0.77692 0.57907 0.95893 0.0
H130 H 0.43853 0.14476 0.92619 0.0
H131 H 0.45783 0.26202 0.92016 0.0
H132 H 0.49165 0.23313 0.98852 0.0
H133 H 0.4384 0.28876 0.96922 0.0
C134 C 0.46901 0.30915 0.96551 0.0
O135 O 0.49029 0.28977 0.96553 0.0
H136 H 0.46644 0.31733 0.94663 0.0
C137 C 0.44865 0.17448 0.93451 0.0
C138 C 0.466 0.18575 0.95891 0.0
C139 C 0.44494 0.20178 0.92073 0.0
C140 C 0.45963 0.24067 0.93112 0.0
C141 C 0.47538 0.25181 0.95579 0.0
C142 C 0.47816 0.22415 0.96974 0.0
H143 H 0.87629 0.29982 0.92395 0.0
H144 H 0.76058 0.19771 0.91159 0.0
H145 H 0.80272 0.26123 0.9836 0.0
H146 H 0.75557 0.16351 0.97377 0.0
C147 C 0.73181 0.16359 0.96208 0.0
O148 O 0.74266 0.20173 0.95694 0.0
H149 H 0.72895 0.1455 0.94481 0.0
C150 C 0.84881 0.27941 0.93085 0.0
C151 C 0.84299 0.28479 0.95561 0.0
C152 C 0.81955 0.24769 0.91499 0.0
C153 C 0.78359 0.22187 0.92382 0.0
C154 C 0.77763 0.22641 0.94863 0.0
C155 C 0.80754 0.25754 0.96454 0.0
H156 H 0.58816 0.72688 0.09105 0.0
H157 H 0.57289 0.82796 0.10226 0.0
H158 H 0.54649 0.76562 0.03015 0.0
H159 H 0.59164 0.85805 0.03404 0.0
C160 C 0.57564 0.86201 0.04902 0.0
O161 O 0.54877 0.82568 0.05622 0.0
H162 H 0.59911 0.87956 0.06417 0.0
C163 C 0.58037 0.74749 0.08375 0.0
C164 C 0.56712 0.74256 0.05878 0.0
C165 C 0.58242 0.77816 0.09951 0.0
C166 C 0.57154 0.80432 0.09014 0.0
C167 C 0.55939 0.80039 0.06504 0.0
C168 C 0.55695 0.76933 0.04939 0.0
H169 H 0.29738 0.89338 0.10533 0.0
H170 H 0.19836 0.77601 0.10492 0.0
H171 H 0.26787 0.8066 0.04351 0.0
H172 H 0.17317 0.75424 0.03406 0.0
C173 C 0.17056 0.73687 0.04992 0.0
O174 O 0.20707 0.74977 0.06199 0.0
H175 H 0.15227 0.74333 0.06199 0.0
C176 C 0.27845 0.86393 0.09612 0.0
C177 C 0.28649 0.85342 0.07301 0.0
C178 C 0.24652 0.83604 0.10762 0.0
C179 C 0.22271 0.7977 0.09595 0.0
C180 C 0.22992 0.7872 0.07272 0.0
C181 C 0.26177 0.81508 0.06123 0.0
H182 H 0.15495 0.42994 0.10585 0.0
H183 H 0.26904 0.44185 0.11609 0.0
H184 H 0.23302 0.47136 0.04866 0.0
H185 H 0.27927 0.41553 0.05546 0.0
C186 C 0.30274 0.44165 0.0671 0.0
O187 O 0.2905 0.46832 0.07318 0.0
H188 H 0.30709 0.42932 0.08405 0.0
C189 C 0.1827 0.43726 0.09888 0.0
C190 C 0.19061 0.45121 0.0756 0.0
C191 C 0.21064 0.43331 0.11342 0.0
C192 C 0.24706 0.44413 0.10474 0.0
C193 C 0.25493 0.4571 0.08119 0.0
C194 C 0.22652 0.46029 0.06654 0.0
H195 H 0.39803 0.93721 0.25291 0.0
H196 H 0.5065 0.93633 0.25388 0.0
H197 H 0.43475 0.89378 0.31367 0.0
H198 H 0.49979 0.86683 0.26813 0.0
C199 C 0.49817 0.8697 0.28834 0.0
O200 O 0.49923 0.90466 0.29553 0.0
H201 H 0.46934 0.84397 0.29122 0.0
C202 C 0.41931 0.93125 0.26203 0.0
C203 C 0.41267 0.91538 0.28492 0.0
C204 C 0.45321 0.93888 0.25077 0.0
C205 C 0.48044 0.93074 0.26253 0.0
C206 C 0.4736 0.9141 0.285 0.0
C207 C 0.43991 0.90669 0.29626 0.0
H208 H 0.09218 0.46589 0.26047 0.0
H209 H 0.10775 0.5825 0.25821 0.0
H210 H 0.14098 0.5499 0.32513 0.0
H211 H 0.10091 0.60268 0.32879 0.0
C212 C 0.11532 0.61997 0.31332 0.0
O213 O 0.13935 0.60749 0.30368 0.0
H214 H 0.09043 0.61307 0.2996 0.0
C215 C 0.10137 0.49491 0.26961 0.0
C216 C 0.11716 0.50442 0.29441 0.0
C217 C 0.09737 0.52287 0.25664 0.0
C218 C 0.11015 0.56068 0.26831 0.0
C219 C 0.12563 0.57037 0.29298 0.0
C220 C 0.12862 0.5421 0.3061 0.0
H221 H 0.54627 0.63242 0.26715 0.0
H222 H 0.42707 0.54377 0.24535 0.0
H223 H 0.46163 0.58411 0.32106 0.0
H224 H 0.4125 0.49262 0.30107 0.0
C225 C 0.3899 0.49759 0.29169 0.0
O226 O 0.40428 0.53754 0.2899 0.0
H227 H 0.38416 0.48205 0.27295 0.0
C228 C 0.51741 0.6125 0.27252 0.0
C229 C 0.51006 0.61146 0.29769 0.0
C230 C 0.4881 0.58775 0.25377 0.0
C231 C 0.44988 0.56304 0.25968 0.0
C232 C 0.44124 0.56201 0.28419 0.0
C233 C 0.47085 0.58617 0.30291 0.0
C234 C 0.54079 0.05292 0.09013 0.0
Eu235 Eu 0.52008 0.03841 0.04284 0.0
C236 C 0.52601 0.03337 0.11257 0.0
C237 C 0.55094 0.04618 0.13445 0.0
C238 C 0.53671 0.02985 0.15634 0.0
C239 C 0.49726 1.00057 0.15668 0.0
C240 C 0.47249 0.98713 0.13465 0.0
C241 C 0.48676 1.00342 0.11275 0.0
C242 C 0.49962 0.08141 0.01456 0.0
C243 C 0.42865 0.96553 0.03195 0.0
C244 C 0.46507 0.99152 0.94335 0.0
Eu245 Eu 0.4865 1.00065 0.99032 0.0
C246 C 0.48128 0.01019 0.9207 0.0
C247 C 0.50702 1.00188 0.90828 0.0
C248 C 0.52005 0.01784 0.88609 0.0
C249 C 0.50748 0.04221 0.87593 0.0
C250 C 0.48245 0.0512 0.88847 0.0
C251 C 0.46938 0.03525 0.91061 0.0
C252 C 0.50869 0.95812 0.01761 0.0
C253 C 0.57953 0.06993 1.0009 0.0
O254 O 0.55456 0.03672 0.075 0.0
O255 O 0.51922 0.06486 0.07868 0.0
O256 O 0.52735 0.09671 0.03246 0.0
O257 O 0.48149 0.0442 0.01464 0.0
O258 O 0.45992 0.98621 0.04785 0.0
O259 O 0.42999 0.96881 0.00806 0.0
O260 O 0.45773 0.01237 0.95954 0.0
O261 O 0.47974 0.97169 0.9536 0.0
O262 O 0.47886 0.94266 1.00096 0.0
O263 O 0.52701 0.99555 0.01805 0.0
O264 O 0.54926 0.04617 0.98488 0.0
O265 O 0.57633 0.07115 0.0249 0.0
H266 H 0.58128 0.06925 0.13469 0.0
H267 H 0.55634 0.04038 0.17311 0.0
H268 H 0.442 0.96449 0.1345 0.0
H269 H 0.46697 0.99311 0.0961 0.0
H270 H 0.51663 0.98257 0.91545 0.0
H271 H 0.53932 0.01057 0.87658 0.0
H272 H 0.4724 0.0699 0.88083 0.0
H273 H 0.44939 0.04202 0.91964 0.0
C274 C 0.98889 0.51177 0.08369 0.0
Eu275 Eu 1.00301 0.49888 0.03902 0.0
C276 C 1.00345 0.50968 0.10887 0.0
C277 C 0.98905 0.47336 0.11921 0.0
C278 C 1.00338 0.47197 0.14292 0.0
C279 C 0.03221 0.50683 0.15668 0.0
C280 C 0.04658 0.54305 0.14649 0.0
C281 C 0.03225 0.5445 0.12286 0.0
C282 C 0.96772 0.42741 0.01124 0.0
C283 C 0.07216 0.48107 0.03141 0.0
C284 C 0.03144 0.48674 0.94162 0.0
Eu285 Eu 0.02807 0.501 0.98822 0.0
C286 C 1.0073 0.47577 0.9179 0.0
C287 C 0.9881 0.49618 0.91065 0.0
C288 C 0.9687 0.48764 0.88701 0.0
C289 C 0.96797 0.4584 0.8705 0.0
C290 C 0.98553 0.4368 0.87812 0.0
C291 C 1.00516 0.44552 0.90165 0.0
C292 C 0.07769 0.56747 0.01826 0.0
C293 C 0.96089 0.5239 0.99693 0.0
O294 O 0.01403 0.53955 0.07133 0.0
O295 O 0.96707 0.47848 0.06985 0.0
O296 O 0.97973 0.43229 0.03443 0.0
O297 O 0.97447 0.46005 1.00425 0.0
O298 O 0.05856 0.49707 0.04698 0.0
O299 O 0.05918 0.4729 0.00779 0.0
O300 O 0.02044 0.45956 0.95708 0.0
O301 O 0.0441 0.52232 0.95241 0.0
O302 O 0.08869 0.55075 1.00178 0.0
O303 O 0.04077 0.54885 0.01757 0.0
O304 O 0.9846 0.52192 0.98146 0.0
O305 O 0.96101 0.51439 0.01976 0.0
H306 H 0.96675 0.446 0.10902 0.0
H307 H 0.99188 0.44378 0.15059 0.0
H308 H 0.06872 0.57025 0.15694 0.0
H309 H 0.04376 0.57296 0.11553 0.0
H310 H 0.98899 0.5194 0.92294 0.0
H311 H 0.95525 0.50456 0.88133 0.0
H312 H 0.98528 0.41424 0.86553 0.0
H313 H 0.01967 0.42938 0.90692 0.0
C314 C 0.48267 0.4965 0.94134 0.0
Eu315 Eu 0.51466 0.52409 0.98611 0.0
C316 C 0.49743 0.50243 0.91676 0.0
C317 C 0.52508 0.54017 0.91056 0.0
C318 C 0.54066 0.54459 0.88775 0.0
C319 C 0.52922 0.51129 0.871 0.0
C320 C 0.50154 0.4737 0.87714 0.0
C321 C 0.48574 0.46932 0.89981 0.0
C322 C 0.54794 0.59946 0.00785 0.0
C323 C 0.60732 0.55528 0.99602 0.0
C324 C 0.57077 0.55895 0.08642 0.0
Eu325 Eu 0.54943 0.53589 0.03968 0.0
C326 C 0.55595 0.56773 0.1088 0.0
C327 C 0.51632 0.54518 0.11317 0.0
C328 C 0.50396 0.55071 0.13587 0.0
C329 C 0.53098 0.57897 0.15445 0.0
C330 C 0.57014 0.60273 0.14967 0.0
C331 C 0.58251 0.59711 0.12702 0.0
C332 C 0.5353 0.46746 0.01462 0.0
C333 C 0.45538 0.50229 0.02866 0.0
O334 O 0.49517 0.47838 0.95551 0.0
O335 O 0.48209 0.52626 0.95328 0.0
O336 O 0.54889 0.59084 0.98467 0.0
O337 O 0.52808 0.56802 0.01776 0.0
O338 O 0.57597 0.53944 0.98011 0.0
O339 O 0.60516 0.56146 0.0199 0.0
O340 O 0.58004 0.58375 0.06944 0.0
O341 O 0.55316 0.52186 0.07722 0.0
O342 O 0.56391 0.4875 0.03171 0.0
O343 O 0.51427 0.48334 0.0129 0.0
O344 O 0.48504 0.51048 0.045 0.0
O345 O 0.45957 0.50614 1.00493 0.0
H346 H 0.53504 0.56615 0.92345 0.0
H347 H 0.56197 0.57382 0.88327 0.0
H348 H 0.49234 0.44772 0.8644 0.0
H349 H 0.4648 0.43994 0.9043 0.0
H350 H 0.49521 0.5224 0.09939 0.0
H351 H 0.47364 0.53207 0.13925 0.0
H352 H 0.59138 0.62456 0.16383 0.0
H353 H 0.61317 0.61479 0.12406 0.0
C354 C 0.20986 0.38481 0.41913 0.0
Eu355 Eu 0.18033 0.36298 0.37334 0.0
C356 C 0.19345 0.37073 0.44253 0.0
C357 C 0.21844 0.3759 0.46335 0.0
C358 C 0.20297 0.35962 0.48503 0.0
C359 C 0.16226 0.33786 0.48616 0.0
C360 C 0.13722 0.33325 0.46544 0.0
C361 C 0.1527 0.3494 0.44374 0.0
C362 C 0.14153 0.39125 0.34573 0.0
C363 C 0.09241 0.29146 0.36237 0.0
C364 C 0.13491 0.31126 0.27374 0.0
Eu365 Eu 0.153 0.32527 0.32114 0.0
C366 C 0.14852 0.33226 0.25142 0.0
C367 C 0.1698 0.32211 0.23568 0.0
C368 C 0.18136 0.34024 0.21397 0.0
C369 C 0.17153 0.36857 0.20745 0.0
C370 C 0.1507 0.3792 0.2232 0.0
C371 C 0.13932 0.36125 0.24504 0.0
C372 C 0.17199 0.28267 0.3509 0.0
C373 C 0.2423 0.39999 0.33273 0.0
O374 O 0.21406 0.35939 0.40498 0.0
O375 O 0.19532 0.40296 0.40678 0.0
O376 O 0.13752 0.38587 0.36886 0.0
O377 O 0.16646 0.38278 0.3389 0.0
O378 O 0.12325 0.30855 0.37864 0.0
O379 O 0.09535 0.29872 0.33896 0.0
O380 O 0.11734 0.32336 0.28873 0.0
O381 O 0.15853 0.30189 0.2854 0.0
O382 O 0.14358 0.26734 0.33342 0.0
O383 O 0.19026 0.3199 0.351 0.0
O384 O 0.21552 0.372 0.31636 0.0
O385 O 0.2355 0.40355 0.35593 0.0
H386 H 0.2499 0.39188 0.46269 0.0
H387 H 0.22271 0.36342 0.50082 0.0
H388 H 0.10575 0.31652 0.46597 0.0
H389 H 0.13287 0.34465 0.42777 0.0
H390 H 0.17707 0.29972 0.24001 0.0
H391 H 0.19733 0.33162 0.20197 0.0
H392 H 0.14278 0.40095 0.21838 0.0
H393 H 0.12287 0.36972 0.25669 0.0
C394 C 0.65771 0.84289 0.41758 0.0
Eu395 Eu 0.66972 0.82778 0.37278 0.0
C396 C 0.66985 0.83725 0.44222 0.0
C397 C 0.66535 0.85671 0.46304 0.0
C398 C 0.6804 0.85499 0.4864 0.0
C399 C 0.70024 0.83385 0.48921 0.0
C400 C 0.70391 0.81351 0.46843 0.0
C401 C 0.68895 0.81536 0.44503 0.0
C402 C 0.63697 0.75375 0.34825 0.0
C403 C 0.73881 0.81008 0.36414 0.0
C404 C 0.69625 0.81496 0.27436 0.0
Eu405 Eu 0.69189 0.82641 0.32125 0.0
C406 C 0.67306 0.80562 0.25034 0.0
C407 C 0.65572 0.82783 0.24321 0.0
C408 C 0.63816 0.8217 0.21923 0.0
C409 C 0.63743 0.79312 0.20215 0.0
C410 C 0.65315 0.76975 0.20952 0.0
C411 C 0.67095 0.77605 0.23344 0.0
C412 C 0.74051 0.89551 0.34985 0.0
C413 C 0.62147 0.84435 0.33017 0.0
O414 O 0.68617 0.86836 0.40586 0.0
O415 O 0.63293 0.81097 0.40337 0.0
O416 O 0.65022 0.76234 0.37132 0.0
O417 O 0.64077 0.78438 0.33947 0.0
O418 O 0.72611 0.82727 0.37956 0.0
O419 O 0.72478 0.80034 0.34072 0.0
O420 O 0.68524 0.78678 0.28911 0.0
O421 O 0.70813 0.84976 0.28602 0.0
O422 O 0.752 0.87857 0.33394 0.0
O423 O 0.70369 0.87579 0.34931 0.0
O424 O 0.64131 0.83724 0.31393 0.0
O425 O 0.6279 0.84371 0.35405 0.0
H426 H 0.65103 0.87402 0.46117 0.0
H427 H 0.67733 0.87084 0.50224 0.0
H428 H 0.71914 0.79708 0.47029 0.0
H429 H 0.69305 0.8005 0.42909 0.0
H430 H 0.65674 0.85072 0.25589 0.0
H431 H 0.62611 0.83995 0.21378 0.0
H432 H 0.65284 0.74762 0.1965 0.0
H433 H 0.68418 0.75867 0.23852 0.0
C434 C 0.1459 0.83357 0.27216 0.0
Eu435 Eu 0.17782 0.85262 0.31741 0.0
C436 C 0.16094 0.83926 0.24762 0.0
C437 C 0.18664 0.87713 0.24062 0.0
C438 C 0.20252 0.88125 0.21793 0.0
C439 C 0.1932 0.84761 0.20209 0.0
C440 C 0.16727 0.80992 0.20891 0.0
C441 C 0.15118 0.80579 0.23144 0.0
C442 C 0.21527 0.9269 0.34181 0.0
C443 C 0.26813 0.87814 0.32758 0.0
C444 C 0.23007 0.87417 0.41729 0.0
Eu445 Eu 0.20985 0.85826 0.37007 0.0
C446 C 0.21477 0.88168 0.43987 0.0
C447 C 0.17686 0.85485 0.44588 0.0
C448 C 0.16434 0.86063 0.46842 0.0
C449 C 0.18931 0.89345 0.48517 0.0
C450 C 0.22656 0.92102 0.47885 0.0
C451 C 0.23922 0.91511 0.45639 0.0
C452 C 0.19184 0.78999 0.34251 0.0
C453 C 0.11746 0.83011 0.35941 0.0
O454 O 0.15278 0.8101 0.28495 0.0
O455 O 0.15072 0.86472 0.28567 0.0
O456 O 0.21781 0.9195 0.31875 0.0
O457 O 0.19214 0.89514 0.35031 0.0
O458 O 0.23666 0.85905 0.31184 0.0
O459 O 0.26599 0.88736 0.35092 0.0
O460 O 0.24236 0.9015 0.40187 0.0
O461 O 0.2109 0.83821 0.40618 0.0
O462 O 0.22143 0.80858 0.35911 0.0
O463 O 0.1723 0.80745 0.34214 0.0
O464 O 0.14713 0.83997 0.37606 0.0
O465 O 0.12166 0.83196 0.33559 0.0
H466 H 0.19496 0.90347 0.25278 0.0
H467 H 0.22248 0.91055 0.21287 0.0
H468 H 0.15974 0.78368 0.19685 0.0
H469 H 0.13163 0.77632 0.23646 0.0
H470 H 0.15722 0.8289 0.43347 0.0
H471 H 0.13552 0.83907 0.47305 0.0
H472 H 0.24621 0.94645 0.49163 0.0
H473 H 0.2685 0.93617 0.45218 0.0
C474 C 0.87745 0.71745 0.75437 0.0
Eu475 Eu 0.84837 0.69525 0.70844 0.0
C476 C 0.86041 0.70581 0.77797 0.0
C477 C 0.88023 0.72893 0.8 0.0
C478 C 0.86402 0.71789 0.8224 0.0
C479 C 0.82633 0.68434 0.82345 0.0
C480 C 0.80885 0.65946 0.80115 0.0
C481 C 0.82497 0.67057 0.7788 0.0
C482 C 0.81016 0.7238 0.68047 0.0
C483 C 0.76028 0.62417 0.69743 0.0
C484 C 0.80283 0.64284 0.60872 0.0
Eu485 Eu 0.82101 0.65735 0.65614 0.0
C486 C 0.81635 0.66255 0.58598 0.0
C487 C 0.83408 0.64878 0.56954 0.0
C488 C 0.84527 0.6655 0.54736 0.0
C489 C 0.83858 0.69602 0.54107 0.0
C490 C 0.82133 0.71025 0.55752 0.0
C491 C 0.81035 0.69372 0.57983 0.0
C492 C 0.83938 0.61456 0.68602 0.0
C493 C 0.91095 0.73079 0.66805 0.0
O494 O 0.87947 0.69001 0.74082 0.0
O495 O 0.86516 0.73686 0.74137 0.0
O496 O 0.80588 0.71851 0.7036 0.0
O497 O 0.83498 0.71505 0.67384 0.0
O498 O 0.79106 0.64129 0.71371 0.0
O499 O 0.76328 0.63106 0.67396 0.0
O500 O 0.78613 0.65626 0.62354 0.0
O501 O 0.82596 0.63304 0.62053 0.0
O502 O 0.81101 0.59938 0.66851 0.0
O503 O 0.85792 0.65181 0.68615 0.0
O504 O 0.88405 0.70302 0.65161 0.0
O505 O 0.90399 0.73467 0.69117 0.0
H506 H 0.90867 0.75528 0.79998 0.0
H507 H 0.88227 0.73558 0.83877 0.0
H508 H 0.78322 0.63052 0.80048 0.0
H509 H 0.80996 0.65109 0.76217 0.0
H510 H 0.83882 0.62467 0.57371 0.0
H511 H 0.85852 0.65415 0.53486 0.0
H512 H 0.81593 0.73379 0.55293 0.0
H513 H 0.79671 0.70501 0.59204 0.0
C514 C 0.32341 0.17769 0.74982 0.0
Eu515 Eu 0.33694 0.16343 0.70531 0.0
C516 C 0.33944 0.17744 0.77492 0.0
C517 C 0.32826 0.14176 0.7855 0.0
C518 C 0.34446 0.14216 0.80901 0.0
C519 C 0.37203 0.17817 0.82226 0.0
C520 C 0.38311 0.21375 0.81186 0.0
C521 C 0.36685 0.21342 0.78845 0.0
C522 C 0.30162 0.09169 0.67799 0.0
C523 C 0.40603 0.14548 0.69758 0.0
C524 C 0.36471 0.15113 0.60761 0.0
Eu525 Eu 0.36183 0.16513 0.65436 0.0
C526 C 0.34066 0.14119 0.58388 0.0
C527 C 0.32375 0.16367 0.57653 0.0
C528 C 0.30454 0.15602 0.55289 0.0
C529 C 0.30172 0.12562 0.53644 0.0
C530 C 0.31705 0.10208 0.54413 0.0
C531 C 0.33648 0.1099 0.56766 0.0
C532 C 0.41105 0.23185 0.68436 0.0
C533 C 0.29421 0.18732 0.66312 0.0
O534 O 0.34739 0.20522 0.73683 0.0
O535 O 0.30211 0.14364 0.73663 0.0
O536 O 0.31369 0.09697 0.7012 0.0
O537 O 0.30839 0.12419 0.67071 0.0
O538 O 0.39246 0.16157 0.71312 0.0
O539 O 0.39308 0.13721 0.67395 0.0
O540 O 0.35301 0.12364 0.62289 0.0
O541 O 0.37838 0.18671 0.61867 0.0
O542 O 0.42237 0.21537 0.66792 0.0
O543 O 0.37416 0.21294 0.68355 0.0
O544 O 0.31834 0.18602 0.64775 0.0
O545 O 0.29411 0.17749 0.68587 0.0
H546 H 0.30713 0.11354 0.77565 0.0
H547 H 0.3355 0.11447 0.81689 0.0
H548 H 0.40421 0.24179 0.82195 0.0
H549 H 0.37589 0.24137 0.78088 0.0
H550 H 0.32625 0.18778 0.58876 0.0
H551 H 0.29284 0.17444 0.54718 0.0
H552 H 0.31517 0.0786 0.53159 0.0
H553 H 0.34924 0.09219 0.57297 0.0
C554 C 0.81489 0.16887 0.60401 0.0
Eu555 Eu 0.84665 0.18646 0.64932 0.0
C556 C 0.82986 0.1729 0.57943 0.0
C557 C 0.85612 0.21011 0.57178 0.0
C558 C 0.87104 0.21284 0.54883 0.0
C559 C 0.86013 0.17846 0.53329 0.0
C560 C 0.83387 0.1414 0.54081 0.0
C561 C 0.81878 0.13865 0.56364 0.0
C562 C 0.88404 0.25935 0.67537 0.0
C563 C 0.93646 0.21044 0.65911 0.0
C564 C 0.89881 0.20388 0.74902 0.0
Eu565 Eu 0.87786 0.18898 0.70177 0.0
C566 C 0.88532 0.21269 0.77195 0.0
C567 C 0.91242 0.23222 0.79265 0.0
C568 C 0.90005 0.23869 0.81508 0.0
C569 C 0.86037 0.2259 0.8171 0.0
C570 C 0.83327 0.20717 0.79626 0.0
C571 C 0.84566 0.20051 0.77383 0.0
C572 C 0.85971 0.12187 0.67298 0.0
C573 C 0.78612 0.1645 0.69106 0.0
O574 O 0.81864 0.14373 0.61702 0.0
O575 O 0.82258 0.20122 0.61737 0.0
O576 O 0.88707 0.25339 0.65217 0.0
O577 O 0.86077 0.22698 0.68312 0.0
O578 O 0.90505 0.19234 0.64329 0.0
O579 O 0.93425 0.21861 0.68265 0.0
O580 O 0.91175 0.23127 0.73366 0.0
O581 O 0.87727 0.16813 0.73788 0.0
O582 O 0.88914 0.13961 0.68978 0.0
O583 O 0.84039 0.13961 0.67298 0.0
O584 O 0.81457 0.1692 0.70726 0.0
O585 O 0.79143 0.17037 0.66764 0.0
H586 H 0.86544 0.23707 0.58357 0.0
H587 H 0.89129 0.24168 0.54326 0.0
H588 H 0.82512 0.11458 0.529 0.0
H589 H 0.79871 0.10965 0.56909 0.0
H590 H 0.94311 0.24177 0.7916 0.0
H591 H 0.9213 0.25308 0.83099 0.0
H592 H 0.80251 0.19695 0.79753 0.0
H593 H 0.82422 0.18515 0.75814 0.0
C594 C 0.35625 0.878 0.06444 0.0
C595 C 0.32243 0.8818 0.06192 0.0
C596 C 0.35878 0.94199 0.04099 0.0
C597 C 0.39146 0.9361 0.04148 0.0
N598 N 0.41853 0.89416 0.04963 0.0
N599 N 0.2892 0.91375 0.04483 0.0
C600 C 0.38943 0.9029 0.05213 0.0
C601 C 0.32301 0.91272 0.04926 0.0
N602 N 0.3571 0.85129 0.07918 0.0
N603 N 0.36252 0.97646 0.03378 0.0
H604 H 0.26271 0.89321 0.051 0.0
H605 H 0.28668 0.93296 0.03343 0.0
H606 H 0.38858 0.99891 0.02835 0.0
H607 H 0.34115 0.98439 0.03536 0.0
H608 H 0.38244 0.85039 0.08408 0.0
H609 H 0.33325 0.83213 0.08828 0.0
H610 H 0.4169 0.86816 0.05471 0.0
H611 H 0.44272 0.91104 0.0402 0.0
C612 C 0.16876 0.49831 0.06275 0.0
C613 C 0.16208 0.45912 0.06184 0.0
C614 C 0.09582 0.43391 0.04184 0.0
C615 C 0.1036 0.47335 0.04088 0.0
N616 N 0.15009 0.54351 0.04685 0.0
N617 N 0.12226 0.39022 0.04693 0.0
C618 C 0.14087 0.50566 0.05028 0.0
C619 C 0.12655 0.42711 0.05015 0.0
N620 N 0.20092 0.52837 0.07649 0.0
N621 N 0.05849 0.403 0.03641 0.0
H622 H 0.14411 0.38428 0.05301 0.0
H623 H 0.09864 0.36646 0.0364 0.0
H624 H 0.03496 0.4071 0.03176 0.0
H625 H 0.05014 0.37378 0.03902 0.0
H626 H 0.20481 0.55652 0.08046 0.0
H627 H 0.2224 0.5245 0.08568 0.0
H628 H 0.17818 0.56788 0.05064 0.0
H629 H 0.13044 0.55026 0.03821 0.0
C630 C 0.52471 0.67181 0.04137 0.0
C631 C 0.56135 0.7074 0.04306 0.0
C632 C 0.58884 0.67338 0.01918 0.0
C633 C 0.55204 0.63786 0.01752 0.0
N634 N 0.48223 0.60733 0.0194 0.0
N635 N 0.62636 0.74458 0.03037 0.0
C636 C 0.51914 0.63822 0.02643 0.0
C637 C 0.59285 0.70897 0.03089 0.0
N638 N 0.49543 0.66974 0.05456 0.0
N639 N 0.62011 0.67277 0.01018 0.0
H640 H 0.6303 0.77089 0.03913 0.0
H641 H 0.64914 0.74874 0.01996 0.0
H642 H 0.61746 0.64795 1.00016 0.0
H643 H 0.64883 0.69611 0.01335 0.0
H644 H 0.46998 0.64323 0.05653 0.0
H645 H 0.49771 0.69403 0.06508 0.0
H646 H 0.45688 0.6074 0.02358 0.0
H647 H 0.47673 0.58367 1.00684 0.0
C648 C 0.86697 0.35008 0.98104 0.0
C649 C 0.87405 0.31973 0.97183 0.0
C650 C 0.94328 0.36076 0.98768 0.0
C651 C 0.93531 0.38924 0.99891 0.0
N652 N 0.88761 0.40691 0.01064 0.0
N653 N 0.91705 0.29259 0.97121 0.0
C654 C 0.8965 0.38257 0.99697 0.0
C655 C 0.91166 0.32396 0.97669 0.0
N656 N 0.83295 0.34913 0.97355 0.0
N657 N 0.9811 0.36958 0.98633 0.0
H658 H 0.89439 0.26496 0.9636 0.0
H659 H 0.94291 0.29287 0.97645 0.0
H660 H 1.0049 0.39694 0.99314 0.0
H661 H 0.98877 0.35147 0.97624 0.0
H662 H 0.82819 0.37266 0.97753 0.0
H663 H 0.81094 0.32655 0.96135 0.0
H664 H 0.85906 0.40114 0.01178 0.0
H665 H 0.90825 0.43071 0.02278 0.0
C666 C 0.67966 0.54942 0.95427 0.0
C667 C 0.71573 0.58251 0.96419 0.0
C668 C 0.68152 0.59939 0.99475 0.0
C669 C 0.6455 0.56432 0.9861 0.0
N670 N 0.61356 0.50125 0.96064 0.0
N671 N 0.7526 0.63534 0.99627 0.0
C672 C 0.6455 0.53811 0.96666 0.0
C673 C 0.71714 0.60619 0.98527 0.0
N674 N 0.67779 0.52871 0.93269 0.0
N675 N 0.68172 0.62767 0.01074 0.0
H676 H 0.77903 0.64208 0.98928 0.0
H677 H 0.75603 0.65059 0.01332 0.0
H678 H 0.65676 0.62516 0.01771 0.0
H679 H 0.70622 0.65561 0.01531 0.0
H680 H 0.65152 0.50846 0.92249 0.0
H681 H 0.70241 0.5336 0.92397 0.0
H682 H 0.61388 0.47952 0.94887 0.0
H683 H 0.58787 0.49008 0.96921 0.0
C684 C 0.4432 0.12356 0.98031 0.0
C685 C 0.47423 0.15821 0.97237 0.0
C686 C 0.52166 0.1418 0.99082 0.0
C687 C 0.49041 0.1055 0.99771 0.0
N688 N 0.42056 0.05761 0.99182 0.0
N689 N 0.54194 0.19497 0.96436 0.0
C690 C 0.45092 0.09494 0.99022 0.0
C691 C 0.51315 0.16583 0.97603 0.0
N692 N 0.40633 0.11845 0.97909 0.0
N693 N 0.55983 0.15376 0.99812 0.0
H694 H 0.53701 0.21309 0.95318 0.0
H695 H 0.56985 0.1987 0.96376 0.0
H696 H 0.56912 0.13551 1.00532 0.0
H697 H 0.58266 0.18258 0.99729 0.0
H698 H 0.38338 0.09622 0.98731 0.0
H699 H 0.39954 0.13868 0.9719 0.0
H700 H 0.39211 0.04778 0.98428 0.0
H701 H 0.42386 0.03472 0.99778 0.0
C702 C 0.69024 0.1337 0.99774 0.0
C703 C 0.69248 0.1442 0.9732 0.0
C704 C 0.62066 0.11346 0.9688 0.0
C705 C 0.61841 0.09603 0.99138 0.0
N706 N 0.65335 0.08239 0.02366 0.0
N707 N 0.65822 0.14099 0.93431 0.0
C708 C 0.65383 0.10425 1.00492 0.0
C709 C 0.6572 0.13317 0.95841 0.0
N710 N 0.72241 0.15227 0.0145 0.0
N711 N 0.58866 0.11312 0.95767 0.0
H712 H 0.68408 0.15737 0.92615 0.0
H713 H 0.63317 0.12892 0.92195 0.0
H714 H 0.56166 0.10111 0.96483 0.0
H715 H 0.59008 0.12898 0.9427 0.0
H716 H 0.72109 0.14713 0.03304 0.0
H717 H 0.74871 0.17654 0.01078 0.0
H718 H 0.67889 0.08566 0.03261 0.0
H719 H 0.628 0.05762 0.02799 0.0
C720 C 0.89287 0.54219 0.95438 0.0
C721 C 0.88612 0.56804 0.97012 0.0
C722 C 0.92784 0.56458 1.00348 0.0
C723 C 0.9333 0.53731 0.98826 0.0
N724 N 0.90996 0.49067 0.95189 0.0
N725 N 0.88388 0.58886 0.0122 0.0
C726 C 0.9125 0.52322 0.96446 0.0
C727 C 0.89921 0.57436 0.99552 0.0
N728 N 0.88128 0.53618 0.92975 0.0
N729 N 0.95146 0.58332 0.02477 0.0
H730 H 0.86042 0.59307 0.0074 0.0
H731 H 0.89076 0.5913 0.03115 0.0
H732 H 0.9751 0.57996 0.0305 0.0
H733 H 0.95045 0.60593 0.03516 0.0
H734 H 0.88988 0.5217 0.9171 0.0
H735 H 0.86504 0.54761 0.92166 0.0
H736 H 0.89238 0.47713 0.93542 0.0
H737 H 0.92167 0.47438 0.95929 0.0
C738 C 0.46979 0.35491 1.00129 0.0
C739 C 0.48971 0.34757 0.98259 0.0
C740 C 0.54532 0.41462 0.99356 0.0
C741 C 0.52111 0.42506 1.00639 0.0
N742 N 0.46029 0.40325 0.02487 0.0
N743 N 0.54689 0.37368 0.95954 0.0
C744 C 0.48316 0.39467 0.01085 0.0
C745 C 0.52779 0.3782 0.97847 0.0
N746 N 0.43976 0.32405 0.01103 0.0
N747 N 0.58501 0.43866 0.99608 0.0
H748 H 0.53545 0.3481 0.94745 0.0
H749 H 0.57289 0.397 0.95458 0.0
H750 H 0.59925 0.46539 1.00721 0.0
H751 H 0.60384 0.43015 0.98878 0.0
H752 H 0.4261 0.32778 0.0259 0.0
H753 H 0.43226 0.29467 1.00679 0.0
H754 H 0.43057 0.38351 0.02572 0.0
H755 H 0.4707 0.43036 0.0352 0.0
C756 C 0.14683 0.67823 0.01741 0.0
C757 C 0.15005 0.69241 0.0424 0.0
C758 C 0.11126 0.62343 0.05232 0.0
C759 C 0.10222 0.61042 0.02681 0.0
N760 N 0.10551 0.62761 0.98484 0.0
N761 N 0.13515 0.67785 0.08424 0.0
C762 C 0.1184 0.63841 0.00926 0.0
C763 C 0.13226 0.66478 0.06006 0.0
N764 N 0.17179 0.70214 1.00156 0.0
N765 N 0.10142 0.59637 0.0692 0.0
H766 H 0.15306 0.70727 0.09129 0.0
H767 H 0.11833 0.65968 0.09717 0.0
H768 H 0.08663 0.56606 0.06416 0.0
H769 H 0.11094 0.60386 0.08788 0.0
H770 H 0.17241 0.69193 0.98363 0.0
H771 H 0.19528 0.73037 1.00721 0.0
H772 H 0.11392 0.64798 0.97172 0.0
H773 H 0.08312 0.59935 0.97808 0.0
C774 C 0.37643 0.49118 0.07006 0.0
C775 C 0.34168 0.46197 0.05567 0.0
C776 C 0.38167 0.4578 0.0242 0.0
C777 C 0.41608 0.48919 0.03753 0.0
N778 N 0.44332 0.54403 0.06934 0.0
N779 N 0.31216 0.4303 0.01473 0.0
C780 C 0.41269 0.50839 0.05937 0.0
C781 C 0.34448 0.4493 0.03135 0.0
N782 N 0.37527 0.5022 0.09405 0.0
N783 N 0.38407 0.43455 1.00555 0.0
H784 H 0.28514 0.42708 0.01826 0.0
H785 H 0.31369 0.42301 0.99632 0.0
H786 H 0.41051 0.43752 1.0008 0.0
H787 H 0.35953 0.40926 0.99686 0.0
H788 H 0.40049 0.51979 0.10595 0.0
H789 H 0.34951 0.49163 0.10266 0.0
H790 H 0.44104 0.56082 0.08398 0.0
H791 H 0.4695 0.55909 0.06125 0.0
C792 C 0.5454 0.88493 0.01601 0.0
C793 C 0.55522 0.8847 0.04135 0.0
C794 C 0.53064 0.93013 0.05162 0.0
C795 C 0.52683 0.93487 0.02622 0.0
N796 N 0.53832 0.92251 0.98456 0.0
N797 N 0.55551 0.90599 0.08382 0.0
C798 C 0.53641 0.91388 0.00851 0.0
C799 C 0.5473 0.90699 0.05934 0.0
N800 N 0.54287 0.85643 0.9991 0.0
N801 N 0.51664 0.94619 0.06828 0.0
H802 H 0.56309 0.88606 0.09051 0.0
H803 H 0.55596 0.92577 0.0976 0.0
H804 H 0.5047 0.96345 0.06328 0.0
H805 H 0.51409 0.94013 0.0866 0.0
H806 H 0.53251 0.85337 0.9807 0.0
H807 H 0.5461 0.83277 1.00397 0.0
H808 H 0.5489 0.91077 0.97144 0.0
H809 H 0.53351 0.94463 0.97842 0.0
C810 C 0.01536 0.20233 0.39152 0.0
C811 C 0.98371 0.20977 0.39089 0.0
C812 C 0.024 0.27209 0.37285 0.0
C813 C 0.05409 0.26255 0.37098 0.0
N814 N 0.07597 0.21541 0.37542 0.0
N815 N 0.95541 0.24851 0.37766 0.0
C816 C 0.04902 0.22672 0.37943 0.0
C817 C 0.98726 0.24367 0.38049 0.0
N818 N 0.01397 0.17289 0.40455 0.0
N819 N 0.03131 0.3092 0.36888 0.0
H820 H 0.92825 0.22855 0.38333 0.0
H821 H 0.95506 0.27043 0.36788 0.0
H822 H 0.05858 0.33138 0.36477 0.0
H823 H 0.01188 0.31922 0.37223 0.0
H824 H 0.03794 0.16908 0.40816 0.0
H825 H 0.98992 0.15434 0.41371 0.0
H826 H 0.0718 0.18764 0.37859 0.0
H827 H 0.10109 0.23247 0.36685 0.0
C828 C 0.83369 0.82746 0.39755 0.0
C829 C 0.82728 0.78839 0.3967 0.0
C830 C 0.76255 0.76302 0.37434 0.0
C831 C 0.77011 0.80243 0.37368 0.0
N832 N 0.81624 0.87259 0.38003 0.0
N833 N 0.78922 0.71981 0.38061 0.0
C834 C 0.80669 0.83479 0.38395 0.0
C835 C 0.7928 0.75641 0.38389 0.0
N836 N 0.86482 0.85739 0.41207 0.0
N837 N 0.72588 0.73186 0.36718 0.0
H838 H 0.81064 0.71386 0.38757 0.0
H839 H 0.76669 0.6963 0.36924 0.0
H840 H 0.70275 0.73549 0.36066 0.0
H841 H 0.71742 0.70261 0.36974 0.0
H842 H 0.8684 0.88548 0.41575 0.0
H843 H 0.8855 0.85336 0.42217 0.0
H844 H 0.84395 0.89711 0.38487 0.0
H845 H 0.79766 0.87908 0.36969 0.0
C846 C 0.26056 0.02935 0.37706 0.0
C847 C 0.22714 0.03388 0.37764 0.0
C848 C 0.18995 0.97355 0.34927 0.0
C849 C 0.22114 0.96559 0.35224 0.0
N850 N 0.28449 0.98352 0.37207 0.0
N851 N 0.15749 1.00576 0.36755 0.0
C852 C 0.2561 0.99289 0.36694 0.0
C853 C 0.19114 1.00494 0.36445 0.0
N854 N 0.29672 0.06018 0.38568 0.0
N855 N 0.15922 0.95131 0.33189 0.0
H856 H 0.15648 0.02709 0.37932 0.0
H857 H 0.1299 0.98293 0.36038 0.0
H858 H 0.15716 0.92791 0.3205 0.0
H859 H 0.13765 0.95837 0.32732 0.0
H860 H 0.32252 0.05969 0.38366 0.0
H861 H 0.30126 0.08775 0.3925 0.0
H862 H 0.30871 1.00052 0.38482 0.0
H863 H 0.28201 0.95692 0.36525 0.0
C864 C 0.58286 0.65113 0.31225 0.0
C865 C 0.54369 0.63873 0.31711 0.0
C866 C 0.5675 0.69746 0.34643 0.0
C867 C 0.60553 0.71325 0.33836 0.0
N868 N 0.65011 0.7047 0.3138 0.0
N869 N 0.5103 0.63661 0.35308 0.0
C870 C 0.61362 0.68968 0.32161 0.0
C871 C 0.53836 0.65797 0.3381 0.0
N872 N 0.5906 0.62467 0.30012 0.0
N873 N 0.55884 0.71993 0.36206 0.0
H874 H 0.49853 0.60611 0.3527 0.0
H875 H 0.50613 0.64906 0.3692 0.0
H876 H 0.57939 0.7487 0.36924 0.0
H877 H 0.53034 0.7108 0.36626 0.0
H878 H 0.61871 0.6301 0.29767 0.0
H879 H 0.56856 0.59547 0.29488 0.0
H880 H 0.65673 0.69092 0.2995 0.0
H881 H 0.67333 0.7324 0.32058 0.0
C882 C 0.34634 0.8662 0.29692 0.0
C883 C 0.37622 0.90618 0.29657 0.0
C884 C 0.33479 0.92826 0.31589 0.0
C885 C 0.30654 0.88828 0.31842 0.0
N886 N 0.2889 0.81951 0.3154 0.0
N887 N 0.40202 0.97533 0.30946 0.0
C888 C 0.31335 0.85733 0.31009 0.0
C889 C 0.3714 0.93727 0.30721 0.0
N890 N 0.34872 0.83669 0.28388 0.0
N891 N 0.3259 0.95743 0.32046 0.0
H892 H 0.42916 0.98307 0.30321 0.0
H893 H 0.4016 0.99864 0.31937 0.0
H894 H 0.2989 0.95172 0.32592 0.0
H895 H 0.34369 0.98653 0.31654 0.0
H896 H 0.32577 0.80749 0.28115 0.0
H897 H 0.37225 0.84193 0.27384 0.0
H898 H 0.29455 0.79643 0.3121 0.0
H899 H 0.26487 0.81198 0.32534 0.0
C900 C 0.16143 0.4846 0.31653 0.0
C901 C 0.12301 0.47539 0.30795 0.0
C902 C 0.09692 0.4093 0.32222 0.0
C903 C 0.13451 0.42048 0.33359 0.0
N904 N 0.20134 0.47198 0.34558 0.0
N905 N 0.05318 0.43153 0.30705 0.0
C906 C 0.16642 0.45914 0.33197 0.0
C907 C 0.09039 0.43846 0.31211 0.0
N908 N 0.19327 0.51664 0.30903 0.0
N909 N 0.06794 0.37054 0.31994 0.0
H910 H 0.04718 0.45245 0.30015 0.0
H911 H 0.02854 0.40658 0.31196 0.0
H912 H 0.07244 0.3482 0.32591 0.0
H913 H 0.04104 0.36015 0.30977 0.0
H914 H 0.2218 0.52222 0.31265 0.0
H915 H 0.19098 0.53531 0.29702 0.0
H916 H 0.22434 0.50114 0.34682 0.0
H917 H 0.20596 0.45464 0.35761 0.0
C918 C 0.3159 0.46992 0.29136 0.0
C919 C 0.35205 0.47932 0.3044 0.0
C920 C 0.31653 0.43912 0.33704 0.0
C921 C 0.28032 0.42962 0.32412 0.0
N922 N 0.24674 0.44675 0.29325 0.0
N923 N 0.38593 0.48648 0.34411 0.0
C924 C 0.28033 0.44825 0.30251 0.0
C925 C 0.35213 0.46835 0.32872 0.0
N926 N 0.31533 0.48116 0.26818 0.0
N927 N 0.31735 0.41884 0.35638 0.0
H928 H 0.41184 0.51009 0.33928 0.0
H929 H 0.38684 0.48165 0.36264 0.0
H930 H 0.29224 0.39591 0.36249 0.0
H931 H 0.34325 0.42209 0.36473 0.0
H932 H 0.28971 0.47058 0.25656 0.0
H933 H 0.34063 0.49971 0.26007 0.0
H934 H 0.24572 0.46278 0.27893 0.0
H935 H 0.22067 0.43295 0.3016 0.0
C936 C 0.52515 0.84434 0.32163 0.0
C937 C 0.53208 0.86825 0.30185 0.0
C938 C 0.60075 0.88411 0.30531 0.0
C939 C 0.59112 0.85369 0.3212 0.0
N940 N 0.54168 0.80041 0.34154 0.0
N941 N 0.57773 0.91298 0.27533 0.0
C942 C 0.55271 0.83275 0.32873 0.0
C943 C 0.57035 0.88893 0.29389 0.0
N944 N 0.49291 0.83362 0.33417 0.0
N945 N 0.63911 0.90962 0.30208 0.0
H946 H 0.55771 0.92054 0.26805 0.0
H947 H 0.60325 0.92421 0.26642 0.0
H948 H 0.66229 0.9081 0.31092 0.0
H949 H 0.64831 0.93476 0.2927 0.0
H950 H 0.4883 0.81878 0.34999 0.0
H951 H 0.47362 0.84407 0.33079 0.0
H952 H 0.51285 0.78191 0.34528 0.0
H953 H 0.56025 0.78956 0.34611 0.0
C954 C 0.14881 0.69166 0.30245 0.0
C955 C 0.1388 0.66448 0.32072 0.0
C956 C 0.16231 0.71955 0.35299 0.0
C957 C 0.17413 0.74691 0.3349 0.0
N958 N 0.18792 0.75934 0.29288 0.0
N959 N 0.15092 0.65561 0.36312 0.0
C960 C 0.17 0.73308 0.30974 0.0
C961 C 0.1501 0.67928 0.34594 0.0
N962 N 0.13803 0.67815 0.27808 0.0
N963 N 0.16137 0.73149 0.37682 0.0
H964 H 0.14574 0.62707 0.35855 0.0
H965 H 0.16196 0.66618 0.38141 0.0
H966 H 0.16886 0.7604 0.38274 0.0
H967 H 0.14922 0.7117 0.39008 0.0
H968 H 0.1396 0.69629 0.26443 0.0
H969 H 0.12564 0.64853 0.27146 0.0
H970 H 0.18975 0.751 0.27478 0.0
H971 H 0.20436 0.78966 0.29766 0.0
C972 C 0.79484 0.99422 0.39017 0.0
C973 C 0.80953 0.02147 0.37196 0.0
C974 C 0.77666 0.9662 0.3396 0.0
C975 C 0.76399 0.9388 0.35766 0.0
N976 N 0.77002 0.92681 0.39999 0.0
N977 N 0.82634 0.03065 0.32997 0.0
C978 C 0.77557 0.95281 0.38293 0.0
C979 C 0.80412 1.00671 0.34684 0.0
N980 N 0.79899 0.00763 0.41441 0.0
N981 N 0.76163 0.95397 0.31557 0.0
H982 H 0.84945 0.0594 0.33477 0.0
H983 H 0.82539 0.02017 0.31183 0.0
H984 H 0.74038 0.92486 0.30955 0.0
H985 H 0.7672 0.97362 0.3022 0.0
H986 H 0.78423 0.98921 0.42782 0.0
H987 H 0.81546 0.03737 0.42107 0.0
H988 H 0.78172 0.93548 0.4183 0.0
H989 H 0.75698 0.89654 0.39529 0.0
C990 C 0.01738 0.81978 0.36678 0.0
C991 C 1.00202 0.78949 0.38306 0.0
C992 C 0.06223 0.78604 0.38377 0.0
C993 C 0.07806 0.81678 0.36794 0.0
N994 N 0.07502 0.87026 0.35011 0.0
N995 N 0.01695 0.75666 0.41447 0.0
C996 C 0.05682 0.83574 0.36101 0.0
C997 C 0.02664 0.7766 0.39391 0.0
N998 N 0.99441 0.83341 0.3568 0.0
N999 N 0.08008 0.76449 0.3883 0.0
H1000 H 0.99281 0.75196 0.42369 0.0
H1001 H 0.03566 0.74955 0.42418 0.0
H1002 H 0.10527 0.76911 0.38043 0.0
H1003 H 0.0675 0.73929 0.39779 0.0
H1004 H 1.00204 0.85116 0.34227 0.0
H1005 H 0.96692 0.82582 0.36232 0.0
H1006 H 0.06259 0.88782 0.34696 0.0
H1007 H 0.10425 0.88357 0.34652 0.0
C1008 C 0.21223 0.21253 0.34952 0.0
C1009 C 0.22004 0.21082 0.37495 0.0
C1010 C 0.19235 0.25354 0.38495 0.0
C1011 C 0.1905 0.25993 0.35971 0.0
N1012 N 0.2068 0.25176 0.31865 0.0
N1013 N 0.21644 0.22916 0.41738 0.0
C1014 C 0.20283 0.24125 0.3422 0.0
C1015 C 0.20975 0.23119 0.39283 0.0
N1016 N 0.21188 0.18558 0.3323 0.0
N1017 N 0.17589 0.26729 0.40126 0.0
H1018 H 0.22465 0.20973 0.42412 0.0
H1019 H 0.21514 0.24782 0.4312 0.0
H1020 H 0.16362 0.28424 0.39625 0.0
H1021 H 0.17178 0.25964 0.41924 0.0
H1022 H 0.20304 0.18365 0.31371 0.0
H1023 H 0.21526 0.16188 0.33687 0.0
H1024 H 0.21932 0.24173 0.30586 0.0
H1025 H 0.20173 0.27381 0.31271 0.0
C1026 C 0.65607 0.57782 0.71715 0.0
C1027 C 0.65296 0.54438 0.72797 0.0
C1028 C 0.71714 0.56002 0.71504 0.0
C1029 C 0.72202 0.59556 0.70625 0.0
N1030 N 0.69953 0.64246 0.70409 0.0
N1031 N 0.68365 0.50784 0.74151 0.0
C1032 C 0.6923 0.60556 0.70857 0.0
C1033 C 0.68437 0.53662 0.72809 0.0
N1034 N 0.6243 0.58285 0.71481 0.0
N1035 N 0.74339 0.548 0.71045 0.0
H1036 H 0.66033 0.49014 0.75146 0.0
H1037 H 0.70765 0.50392 0.74467 0.0
H1038 H 0.76767 0.56418 0.70097 0.0
H1039 H 0.73921 0.52034 0.71397 0.0
H1040 H 0.62352 0.60434 0.70478 0.0
H1041 H 0.59754 0.56342 0.72119 0.0
H1042 H 0.6805 0.65287 0.70776 0.0
H1043 H 0.72642 0.66413 0.69913 0.0
C1044 C 0.50229 0.16314 0.72956 0.0
C1045 C 0.49583 0.12404 0.72871 0.0
C1046 C 0.42987 0.09852 0.70815 0.0
C1047 C 0.43749 0.1379 0.70714 0.0
N1048 N 0.4837 0.20813 0.71322 0.0
N1049 N 0.45652 0.05511 0.71377 0.0
C1050 C 0.47454 0.17033 0.71677 0.0
C1051 C 0.46056 0.09191 0.71683 0.0
N1052 N 0.53416 0.19328 0.74348 0.0
N1053 N 0.39271 0.06748 0.70234 0.0
H1054 H 0.47829 0.04927 0.72018 0.0
H1055 H 0.43317 0.03128 0.7031 0.0
H1056 H 0.36921 0.07141 0.69725 0.0
H1057 H 0.3844 0.03828 0.70498 0.0
H1058 H 0.53783 0.22136 0.74736 0.0
H1059 H 0.55555 0.18953 0.75289 0.0
H1060 H 0.51168 0.2326 0.71724 0.0
H1061 H 0.4642 0.21474 0.70421 0.0
C1062 C 0.85711 0.33394 0.70094 0.0
C1063 C 0.89397 0.36493 0.71189 0.0
C1064 C 0.92452 0.32623 0.69934 0.0
C1065 C 0.88853 0.29704 0.68647 0.0
N1066 N 0.8223 0.27679 0.67088 0.0
N1067 N 0.96425 0.39445 0.7167 0.0
C1068 C 0.85539 0.30215 0.6859 0.0
C1069 C 0.92819 0.3623 0.70954 0.0
N1070 N 0.82346 0.33359 0.706 0.0
N1071 N 0.95457 0.31878 0.703 0.0
H1072 H 0.96806 0.42157 0.72386 0.0
H1073 H 0.99033 0.39534 0.71329 0.0
H1074 H 0.95226 0.29201 0.69671 0.0
H1075 H 0.98013 0.33741 0.71435 0.0
H1076 H 0.79561 0.30947 0.70079 0.0
H1077 H 0.82318 0.35573 0.71739 0.0
H1078 H 0.79872 0.28144 0.6679 0.0
H1079 H 0.81982 0.25311 0.65958 0.0
C1080 C 0.19931 0.01485 0.65 0.0
C1081 C 0.20549 0.98407 0.64041 0.0
C1082 C 0.27537 0.02454 0.65479 0.0
C1083 C 0.26844 0.05356 0.6663 0.0
N1084 N 0.22208 0.07224 0.67948 0.0
N1085 N 0.24762 0.95598 0.63865 0.0
C1086 C 0.22982 0.04737 0.66539 0.0
C1087 C 0.24301 0.98778 0.64441 0.0
N1088 N 0.16523 0.01432 0.64334 0.0
N1089 N 0.31284 0.03275 0.65262 0.0
H1090 H 0.22438 0.92838 0.6315 0.0
H1091 H 0.27349 0.95593 0.64326 0.0
H1092 H 0.33713 0.06002 0.65904 0.0
H1093 H 0.31967 0.01417 0.64229 0.0
H1094 H 0.16106 0.03817 0.6476 0.0
H1095 H 0.14247 0.99174 0.63156 0.0
H1096 H 0.19381 0.06684 0.68135 0.0
H1097 H 0.24349 0.09611 0.69123 0.0
C1098 C 0.01282 0.1977 0.6267 0.0
C1099 C 0.04314 0.23754 0.62638 0.0
C1100 C 1.00331 0.26024 0.64723 0.0
C1101 C 0.97473 0.22033 0.64972 0.0
N1102 N 0.95602 0.15128 0.64579 0.0
N1103 N 0.0704 0.30663 0.64002 0.0
C1104 C 0.98066 0.18914 0.64063 0.0
C1105 C 0.03937 0.26881 0.63783 0.0
N1106 N 0.01379 0.16806 0.61279 0.0
N1107 N 0.99513 0.28975 0.65242 0.0
H1108 H 0.09711 0.31397 0.63323 0.0
H1109 H 0.07078 0.33002 0.65039 0.0
H1110 H 0.96838 0.2843 0.6582 0.0
H1111 H 0.01314 0.3189 0.64864 0.0
H1112 H 0.99035 0.13912 0.61006 0.0
H1113 H 0.03649 0.173 0.60201 0.0
H1114 H 0.96115 0.12797 0.64191 0.0
H1115 H 0.93246 0.1439 0.65614 0.0
C1116 C 0.83081 0.81701 0.65074 0.0
C1117 C 0.79254 0.80774 0.64172 0.0
C1118 C 0.766 0.74185 0.6564 0.0
C1119 C 0.80341 0.75303 0.66808 0.0
N1120 N 0.8702 0.80442 0.68027 0.0
N1121 N 0.72264 0.76403 0.64042 0.0
C1122 C 0.83546 0.79162 0.66645 0.0
C1123 C 0.75976 0.77093 0.64589 0.0
N1124 N 0.86286 0.84901 0.6434 0.0
N1125 N 0.73693 0.70313 0.65418 0.0
H1126 H 0.71687 0.78492 0.63324 0.0
H1127 H 0.69783 0.73921 0.64528 0.0
H1128 H 0.74123 0.68083 0.66045 0.0
H1129 H 0.7102 0.6927 0.6438 0.0
H1130 H 0.89135 0.85463 0.64733 0.0
H1131 H 0.86086 0.86767 0.63125 0.0
H1132 H 0.89327 0.83355 0.68154 0.0
H1133 H 0.87461 0.78708 0.6924 0.0
C1134 C 0.98722 0.79828 0.62704 0.0
C1135 C 0.0228 0.8094 0.64154 0.0
C1136 C 0.98516 0.7697 0.67372 0.0
C1137 C 0.94957 0.75964 0.65972 0.0
N1138 N 0.91794 0.77564 0.62691 0.0
N1139 N 0.05375 0.81861 0.68263 0.0
C1140 C 0.95091 0.77727 0.63748 0.0
C1141 C 0.02124 0.79928 0.66617 0.0
N1142 N 0.98782 0.80719 0.60319 0.0
N1143 N 0.98506 0.74972 0.69344 0.0
H1144 H 0.07975 0.84286 0.67849 0.0
H1145 H 0.05313 0.81412 0.70127 0.0
H1146 H 0.95969 0.72621 0.69888 0.0
H1147 H 0.01069 0.75367 0.70269 0.0
H1148 H 0.96265 0.79537 0.59096 0.0
H1149 H 0.01354 0.82455 0.59511 0.0
H1150 H 0.91803 0.79103 0.61195 0.0
H1151 H 0.8914 0.76276 0.63477 0.0
C1152 C 0.22544 0.2048 0.62088 0.0
C1153 C 0.21764 0.22951 0.63694 0.0
C1154 C 0.26033 0.22693 0.66996 0.0
C1155 C 0.26639 0.20035 0.65451 0.0
N1156 N 0.24403 0.15446 0.61781 0.0
N1157 N 0.21496 0.24907 0.67927 0.0
C1158 C 0.24578 0.1864 0.63068 0.0
C1159 C 0.23092 0.23574 0.66231 0.0
N1160 N 0.21409 0.19926 0.59622 0.0
N1161 N 0.28398 0.24583 0.69122 0.0
H1162 H 0.19083 0.25232 0.67477 0.0
H1163 H 0.22212 0.25137 0.69817 0.0
H1164 H 0.30813 0.24316 0.69671 0.0
H1165 H 0.28242 0.26796 0.7018 0.0
H1166 H 0.22337 0.18564 0.58344 0.0
H1167 H 0.19747 0.21035 0.58824 0.0
H1168 H 0.22659 0.141 0.60128 0.0
H1169 H 0.25626 0.13848 0.62499 0.0
C1170 C 0.81748 0.02381 0.63258 0.0
C1171 C 0.80738 0.99659 0.65084 0.0
C1172 C 0.82988 0.05136 0.68315 0.0
C1173 C 0.84162 0.07883 0.66513 0.0
N1174 N 0.85499 0.09189 0.62314 0.0
N1175 N 0.81896 0.98758 0.69327 0.0
C1176 C 0.83776 0.06526 0.63993 0.0
C1177 C 0.81818 0.01126 0.67608 0.0
N1178 N 0.80768 0.01025 0.60818 0.0
N1179 N 0.82846 0.06304 0.70695 0.0
H1180 H 0.81397 0.9591 0.68868 0.0
H1181 H 0.82973 0.99807 0.7116 0.0
H1182 H 0.83528 0.09176 0.71284 0.0
H1183 H 0.81643 0.04316 0.72017 0.0
H1184 H 0.80912 0.02812 0.59439 0.0
H1185 H 0.79646 0.98075 0.60163 0.0
H1186 H 0.85711 0.084 0.605 0.0
H1187 H 0.87037 0.12227 0.62793 0.0
C1188 C 0.47835 0.34318 0.68433 0.0
C1189 C 0.48068 0.35669 0.70936 0.0
C1190 C 0.44347 0.28732 0.71876 0.0
C1191 C 0.43509 0.27474 0.69317 0.0
N1192 N 0.43868 0.29261 0.65134 0.0
N1193 N 0.46545 0.34096 0.75101 0.0
C1194 C 0.45094 0.30318 0.67586 0.0
C1195 C 0.46328 0.32853 0.72678 0.0
N1196 N 0.50323 0.36792 0.66876 0.0
N1197 N 0.4342 0.26004 0.73544 0.0
H1198 H 0.48263 0.37036 0.75831 0.0
H1199 H 0.44872 0.32222 0.76374 0.0
H1200 H 0.42028 0.22984 0.73022 0.0
H1201 H 0.44339 0.26737 0.75417 0.0
H1202 H 0.50455 0.35829 0.65083 0.0
H1203 H 0.52606 0.3964 0.67465 0.0
H1204 H 0.44675 0.31321 0.63838 0.0
H1205 H 0.4171 0.26414 0.64432 0.0
C1206 C 0.67562 0.11566 0.6951 0.0
C1207 C 0.67459 0.12795 0.71988 0.0
C1208 C 0.74567 0.17314 0.72218 0.0
C1209 C 0.74734 0.1536 0.69995 0.0
N1210 N 0.71269 0.10072 0.66711 0.0
N1211 N 0.7105 0.16809 0.75786 0.0
C1212 C 0.71198 0.12349 0.68676 0.0
C1213 C 0.71016 0.15677 0.73367 0.0
N1214 N 0.64235 0.09763 0.67923 0.0
N1215 N 0.77737 0.20828 0.73179 0.0
H1216 H 0.6853 0.15822 0.767 0.0
H1217 H 0.73632 0.18536 0.76931 0.0
H1218 H 0.80308 0.2225 0.72309 0.0
H1219 H 0.77653 0.22545 0.74679 0.0
H1220 H 0.6425 0.09071 0.66053 0.0
H1221 H 0.61591 0.09484 0.68384 0.0
H1222 H 0.68743 0.07611 0.65848 0.0
H1223 H 0.73845 0.10347 0.66118 0.0
C1224 C 0.87609 0.56163 0.72731 0.0
C1225 C 0.88668 0.54179 0.70925 0.0
C1226 C 0.87042 0.57351 0.67692 0.0
C1227 C 0.85772 0.59159 0.69458 0.0
N1228 N 0.84188 0.59729 0.736 0.0
N1229 N 0.87938 0.51797 0.66637 0.0
C1230 C 0.85885 0.58423 0.71966 0.0
C1231 C 0.8795 0.54442 0.68389 0.0
N1232 N 0.88234 0.5589 0.75179 0.0
N1233 N 0.87497 0.58489 0.65358 0.0
H1234 H 0.88244 0.49397 0.67065 0.0
H1235 H 0.87102 0.51675 0.64778 0.0
H1236 H 0.87008 0.60719 0.64793 0.0
H1237 H 0.88774 0.57528 0.64072 0.0
H1238 H 0.88073 0.57713 0.76577 0.0
H1239 H 0.89057 0.53938 0.75834 0.0
H1240 H 0.83728 0.58893 0.75382 0.0
H1241 H 0.8296 0.61428 0.73111 0.0
C1242 C 0.47353 0.9946 0.22365 0.0
C1243 C 0.46001 0.95398 0.22608 0.0
C1244 C 0.46975 0.94408 0.18288 0.0
C1245 C 0.48203 0.98415 0.18023 0.0
N1246 N 0.48692 0.04536 0.19599 0.0
N1247 N 0.43703 0.88809 0.20706 0.0
C1248 C 0.48132 0.00882 0.20002 0.0
C1249 C 0.45555 0.92799 0.20533 0.0
N1250 N 0.48041 0.01989 0.24405 0.0
N1251 N 0.47382 0.92278 0.16383 0.0
H1252 H 0.42628 0.87555 0.22327 0.0
H1253 H 0.42901 0.86714 0.19203 0.0
H1254 H 0.46866 0.89398 0.16429 0.0
H1255 H 0.46866 0.89398 0.16429 0.0
H1256 H 0.49449 0.05053 0.24391 0.0
H1257 H 0.47458 0.01053 0.26161 0.0
H1258 H 0.48296 0.06325 0.209 0.0
H1259 H 0.49192 0.05626 0.17877 0.0
C1260 C 0.03992 0.50522 0.22645 0.0
C1261 C 0.07885 0.51286 0.23088 0.0
C1262 C 0.08376 0.50815 0.18636 0.0
C1263 C 0.04694 0.50589 0.18212 0.0
N1264 N 0.99096 0.50547 0.1979 0.0
N1265 N 0.13925 0.52417 0.21557 0.0
C1266 C 0.02509 0.50494 0.2021 0.0
C1267 C 0.10109 0.51465 0.21096 0.0
N1268 N 0.017 0.49768 0.24556 0.0
N1269 N 0.10181 0.50352 0.16683 0.0
H1270 H 0.1526 0.52824 0.23332 0.0
H1271 H 0.15846 0.53047 0.202 0.0
H1272 H 0.09001 0.49907 0.14861 0.0
H1273 H 0.12668 0.50082 0.16868 0.0
H1274 H 0.98718 0.48796 0.24326 0.0
H1275 H 0.02702 0.4977 0.26363 0.0
H1276 H 0.97609 0.50959 0.21187 0.0
H1277 H 0.97876 0.50457 0.1803 0.0
C1278 C 0.50722 0.55569 0.22036 0.0
C1279 C 0.49838 0.58542 0.22809 0.0
C1280 C 0.50805 0.60921 0.18691 0.0
C1281 C 0.51922 0.58107 0.17971 0.0
N1282 N 0.53453 0.53092 0.19011 0.0
N1283 N 0.49425 0.64319 0.22014 0.0
C1284 C 0.5201 0.55516 0.19658 0.0
C1285 C 0.49988 0.61298 0.21174 0.0
N1286 N 0.50277 0.52756 0.23569 0.0
N1287 N 0.5044 0.63164 0.16981 0.0
H1288 H 0.48686 0.64596 0.2379 0.0
H1289 H 0.49918 0.66688 0.21018 0.0
H1290 H 0.51105 0.63025 0.15169 0.0
H1291 H 0.4923 0.6496 0.17297 0.0
H1292 H 0.5039 0.50228 0.23017 0.0
H1293 H 0.49535 0.52797 0.25369 0.0
H1294 H 0.54049 0.51483 0.20241 0.0
H1295 H 0.54332 0.52887 0.17269 0.0
C1296 C 0.96296 0.46961 0.8019 0.0
C1297 C 0.92332 0.4407 0.79449 0.0
C1298 C 0.91195 0.42555 0.8373 0.0
C1299 C 0.95211 0.45285 0.84445 0.0
N1300 N 0.01705 0.49834 0.83397 0.0
N1301 N 0.86043 0.38891 0.80398 0.0
C1302 C 0.97793 0.4743 0.82686 0.0
C1303 C 0.89785 0.41801 0.81189 0.0
N1304 N 0.98615 0.49294 0.78507 0.0
N1305 N 0.88732 0.40743 0.85494 0.0
H1306 H 0.84874 0.38373 0.78568 0.0
H1307 H 0.84137 0.36849 0.81509 0.0
H1308 H 0.89699 0.41152 0.87358 0.0
H1309 H 0.85704 0.39015 0.85152 0.0
H1310 H 0.01364 0.51781 0.78969 0.0
H1311 H 0.97712 0.48893 0.76632 0.0
H1312 H 0.03831 0.51101 0.82176 0.0
H1313 H 0.02897 0.50399 0.85224 0.0
C1314 C 0.59206 0.50933 0.82115 0.0
C1315 C 0.57088 0.51101 0.79986 0.0
C1316 C 0.52489 0.51739 0.82553 0.0
C1317 C 0.5458 0.51533 0.84681 0.0
N1318 N 0.60344 0.51769 0.86581 0.0
N1319 N 0.52317 0.52554 0.78181 0.0
C1320 C 0.58089 0.51417 0.84489 0.0
C1321 C 0.53918 0.51793 0.80211 0.0
N1322 N 0.62159 0.50116 0.81857 0.0
N1323 N 0.49068 0.51754 0.82768 0.0
H1324 H 0.53313 0.52622 0.76445 0.0
H1325 H 0.50247 0.53451 0.78244 0.0
H1326 H 0.48028 0.51901 0.84462 0.0
H1327 H 0.47146 0.51409 0.81271 0.0
H1328 H 0.63525 0.49496 0.83305 0.0
H1329 H 0.63113 0.49831 0.80155 0.0
H1330 H 0.63136 0.52132 0.86583 0.0
H1331 H 0.59551 0.52009 0.88346 0.0
C1332 C 0.55491 0.11196 0.82657 0.0
C1333 C 0.53803 0.08528 0.8049 0.0
C1334 C 0.49996 0.0308 0.82976 0.0
C1335 C 0.5189 0.05686 0.85149 0.0
N1336 N 0.56899 0.12038 0.87101 0.0
N1337 N 0.50018 0.01827 0.78582 0.0
C1338 C 0.54778 0.09695 0.85002 0.0
C1339 C 0.5122 0.04435 0.8065 0.0
N1340 N 0.57654 0.15177 0.82472 0.0
N1341 N 0.46925 0.99354 0.8313 0.0
H1342 H 0.50848 0.02708 0.76843 0.0
H1343 H 0.48481 0.98765 0.78619 0.0
H1344 H 0.4595 0.98235 0.84799 0.0
H1345 H 0.45137 0.97481 0.81603 0.0
H1346 H 0.586 0.17303 0.83973 0.0
H1347 H 0.58252 0.16384 0.80788 0.0
H1348 H 0.59326 0.14856 0.87099 0.0
H1349 H 0.56435 0.11039 0.88849 0.0
C1350 C 0.14024 0.32644 0.55322 0.0
C1351 C 0.12197 0.28474 0.55354 0.0
C1352 C 0.12909 0.27757 0.5095 0.0
C1353 C 0.14606 0.31915 0.50895 0.0
N1354 N 0.15993 0.38202 0.5287 0.0
N1355 N 0.09093 0.21997 0.53129 0.0
C1356 C 0.14916 0.34324 0.53036 0.0
C1357 C 0.1138 0.2601 0.5314 0.0
N1358 N 0.15067 0.35015 0.57486 0.0
N1359 N 0.12927 0.25501 0.4895 0.0
H1360 H 0.0792 0.20632 0.54703 0.0
H1361 H 0.08058 0.20058 0.51528 0.0
H1362 H 0.14028 0.26661 0.47313 0.0
H1363 H 0.1214 0.22538 0.48975 0.0
H1364 H 0.16818 0.38084 0.57611 0.0
H1365 H 0.14418 0.33903 0.59194 0.0
H1366 H 0.15887 0.40009 0.54303 0.0
H1367 H 0.16661 0.39522 0.51224 0.0
C1368 C 0.77593 0.8597 0.54387 0.0
C1369 C 0.75098 0.84301 0.56275 0.0
C1370 C 0.69378 0.81287 0.53211 0.0
C1371 C 0.71821 0.83437 0.51398 0.0
N1372 N 0.78226 0.88144 0.50287 0.0
N1373 N 0.68583 0.80631 0.57559 0.0
C1374 C 0.75932 0.85837 0.51984 0.0
C1375 C 0.70978 0.81992 0.55706 0.0
N1376 N 0.81551 0.87644 0.54891 0.0
N1377 N 0.65539 0.7853 0.52536 0.0
H1378 H 0.69639 0.81042 0.59405 0.0
H1379 H 0.65552 0.79338 0.57292 0.0
H1380 H 0.64282 0.77946 0.50722 0.0
H1381 H 0.637 0.76581 0.53719 0.0
H1382 H 0.83507 0.8856 0.53544 0.0
H1383 H 0.82852 0.87777 0.56635 0.0
H1384 H 0.81162 0.90294 0.50698 0.0
H1385 H 0.77133 0.88134 0.48505 0.0
C1386 C 0.17403 0.88219 0.55319 0.0
C1387 C 0.1573 0.90638 0.55791 0.0
C1388 C 0.15811 0.91915 0.51437 0.0
C1389 C 0.17759 0.89746 0.51011 0.0
N1390 N 0.2081 0.8618 0.52553 0.0
N1391 N 0.13654 0.95102 0.54416 0.0
C1392 C 0.18655 0.87982 0.52955 0.0
C1393 C 0.15008 0.92566 0.53878 0.0
N1394 N 0.17737 0.86098 0.57129 0.0
N1395 N 0.14676 0.93289 0.49496 0.0
H1396 H 0.12907 0.95536 0.56163 0.0
H1397 H 0.13485 0.96955 0.53184 0.0
H1398 H 0.15309 0.9295 0.47699 0.0
H1399 H 0.12891 0.94531 0.49622 0.0
H1400 H 0.18513 0.83937 0.56835 0.0
H1401 H 0.16963 0.86284 0.58906 0.0
H1402 H 0.21978 0.85262 0.53949 0.0
H1403 H 0.21673 0.85829 0.50831 0.0
C1404 C 0.56983 0.75813 0.14249 0.0
C1405 C 0.59606 0.78273 0.12601 0.0
C1406 C 0.64954 0.81292 0.15926 0.0
C1407 C 0.62289 0.7897 0.17598 0.0
N1408 N 0.55728 0.7436 0.18481 0.0
N1409 N 0.65939 0.8363 0.1186 0.0
C1410 C 0.58288 0.76321 0.16795 0.0
C1411 C 0.6355 0.81099 0.1344 0.0
N1412 N 0.53266 0.72949 0.13366 0.0
N1413 N 0.68852 0.83599 0.16705 0.0
H1414 H 0.65087 0.8345 0.09996 0.0
H1415 H 0.68689 0.86067 0.12411 0.0
H1416 H 0.69978 0.83929 0.18529 0.0
H1417 H 0.71027 0.85 0.15531 0.0
H1418 H 0.51347 0.70752 0.14393 0.0
H1419 H 0.52144 0.72622 0.11542 0.0
H1420 H 0.52704 0.72729 0.18082 0.0
H1421 H 0.5661 0.74568 0.20344 0.0
C1422 C 0.25773 0.84467 0.15389 0.0
C1423 C 0.23744 0.84618 0.13212 0.0
C1424 C 0.19034 0.85281 0.15648 0.0
C1425 C 0.2106 0.8513 0.17826 0.0
N1426 N 0.26763 0.85409 0.19858 0.0
N1427 N 0.19023 0.86021 0.11265 0.0
C1428 C 0.24575 0.85003 0.17722 0.0
C1429 C 0.20556 0.85303 0.13345 0.0
N1430 N 0.28721 0.83621 0.15218 0.0
N1431 N 0.15582 0.85261 0.15779 0.0
H1432 H 0.20079 0.86053 0.09551 0.0
H1433 H 0.16945 0.86913 0.11263 0.0
H1434 H 0.14461 0.85403 0.17443 0.0
H1435 H 0.13711 0.84881 0.14243 0.0
H1436 H 0.30012 0.83001 0.16708 0.0
H1437 H 0.29738 0.833 0.13547 0.0
H1438 H 0.29552 0.85754 0.19917 0.0
H1439 H 0.25923 0.8572 0.21596 0.0
C1440 C 0.17388 0.37616 0.13833 0.0
C1441 C 0.20118 0.41698 0.13764 0.0
C1442 C 0.21143 0.42559 0.18279 0.0
C1443 C 0.1815 0.38564 0.18346 0.0
N1444 N 0.12901 0.32494 0.16213 0.0
N1445 N 0.24131 0.48218 0.15898 0.0
C1446 C 0.16124 0.36147 0.16128 0.0
C1447 C 0.21873 0.44221 0.15983 0.0
N1448 N 0.16094 0.35114 0.11712 0.0
N1449 N 0.23368 0.44724 0.20399 0.0
H1450 H 0.24728 0.4954 0.1425 0.0
H1451 H 0.25141 0.5025 0.17453 0.0
H1452 H 0.22913 0.43609 0.22114 0.0
H1453 H 0.25862 0.47504 0.20433 0.0
H1454 H 0.1444 0.32046 0.11684 0.0
H1455 H 0.16965 0.36069 0.09993 0.0
H1456 H 0.11055 0.30777 0.14659 0.0
H1457 H 0.11854 0.31321 0.17857 0.0
C1458 C 0.82248 0.67735 0.89251 0.0
C1459 C 0.79315 0.63698 0.89245 0.0
C1460 C 0.77248 0.63701 0.84939 0.0
C1461 C 0.8081 0.6728 0.84783 0.0
N1462 N 0.84316 0.7363 0.87153 0.0
N1463 N 0.73849 0.57821 0.87058 0.0
C1464 C 0.82689 0.69621 0.87047 0.0
C1465 C 0.76734 0.61681 0.87088 0.0
N1466 N 0.84632 0.6977 0.91345 0.0
N1467 N 0.74139 0.62601 0.83246 0.0
H1468 H 0.73362 0.56229 0.88594 0.0
H1469 H 0.72145 0.56139 0.8545 0.0
H1470 H 0.74239 0.64453 0.81914 0.0
H1471 H 0.71357 0.60204 0.83389 0.0
H1472 H 0.87078 0.72587 0.91361 0.0
H1473 H 0.84301 0.68551 0.93025 0.0
H1474 H 0.85415 0.75479 0.88793 0.0
H1475 H 0.84031 0.75002 0.85633 0.0
C1476 C 0.38522 0.18131 0.89207 0.0
C1477 C 0.42457 0.18988 0.89547 0.0
C1478 C 0.42623 0.18241 0.85075 0.0
C1479 C 0.38882 0.17906 0.84741 0.0
N1480 N 0.33331 0.17788 0.86445 0.0
N1481 N 0.48378 0.20062 0.87865 0.0
C1482 C 0.36829 0.17884 0.86796 0.0
C1483 C 0.44535 0.19061 0.87496 0.0
N1484 N 0.36396 0.17503 0.91195 0.0
N1485 N 0.44313 0.17727 0.83074 0.0
H1486 H 0.49832 0.20569 0.89614 0.0
H1487 H 0.50199 0.20616 0.86454 0.0
H1488 H 0.43005 0.17173 0.81276 0.0
H1489 H 0.46848 0.17537 0.83198 0.0
H1490 H 0.334 0.16471 0.91054 0.0
H1491 H 0.37558 0.17686 0.9299 0.0
H1492 H 0.31915 0.18248 0.8787 0.0
H1493 H 0.31946 0.17504 0.84705 0.0
C1494 C 0.83407 0.20899 0.88306 0.0
C1495 C 0.82746 0.24079 0.88932 0.0
C1496 C 0.84305 0.26348 0.84821 0.0
C1497 C 0.84716 0.23023 0.84151 0.0
N1498 N 0.83984 0.16753 0.85077 0.0
N1499 N 0.81922 0.29452 0.87689 0.0
C1500 C 0.84052 0.20178 0.85841 0.0
C1501 C 0.8301 0.26698 0.87158 0.0
N1502 N 0.83608 0.18682 0.90094 0.0
N1503 N 0.85264 0.29226 0.83251 0.0
H1504 H 0.8095 0.29778 0.89377 0.0
H1505 H 0.81669 0.31187 0.86397 0.0
H1506 H 0.86116 0.29013 0.81501 0.0
H1507 H 0.85487 0.31945 0.83743 0.0
H1508 H 0.84526 0.16628 0.89815 0.0
H1509 H 0.83179 0.1912 0.91926 0.0
H1510 H 0.83083 0.14369 0.86135 0.0
H1511 H 0.84511 0.16148 0.83299 0.0
C1512 C 0.29675 0.13663 0.46775 0.0
C1513 C 0.25661 0.10916 0.46054 0.0
C1514 C 0.24521 0.09487 0.50349 0.0
C1515 C 0.28579 0.12053 0.51041 0.0
N1516 N 0.35122 0.1629 0.49945 0.0
N1517 N 0.19303 0.0593 0.47042 0.0
C1518 C 0.31184 0.14071 0.49262 0.0
C1519 C 0.2309 0.08747 0.47812 0.0
N1520 N 0.32032 0.1592 0.4508 0.0
N1521 N 0.2204 0.07822 0.52127 0.0
H1522 H 0.1812 0.05429 0.45217 0.0
H1523 H 0.17385 0.03926 0.48168 0.0
H1524 H 0.23012 0.08227 0.53991 0.0
H1525 H 0.19003 0.06245 0.51795 0.0
H1526 H 0.34845 0.18312 0.45531 0.0
H1527 H 0.31103 0.15565 0.43213 0.0
H1528 H 0.37236 0.17438 0.48704 0.0
H1529 H 0.36333 0.16802 0.51764 0.0
C1530 C 0.92026 0.1715 0.48316 0.0
C1531 C 0.90035 0.17519 0.46197 0.0
C1532 C 0.85595 0.18427 0.48776 0.0
C1533 C 0.876 0.18084 0.50896 0.0
N1534 N 0.93164 0.17929 0.5278 0.0
N1535 N 0.85515 0.19323 0.44414 0.0
C1536 C 0.90968 0.17712 0.50694 0.0
C1537 C 0.87003 0.18422 0.46433 0.0
N1538 N 0.94808 0.16088 0.48046 0.0
N1539 N 0.82261 0.18613 0.48994 0.0
H1540 H 0.86484 0.19334 0.42673 0.0
H1541 H 0.83572 0.20383 0.44491 0.0
H1542 H 0.81217 0.18758 0.50687 0.0
H1543 H 0.80394 0.18388 0.47497 0.0
H1544 H 0.96044 0.15309 0.49484 0.0
H1545 H 0.95729 0.1575 0.46342 0.0
H1546 H 0.95872 0.18093 0.52773 0.0
H1547 H 0.92427 0.18265 0.54547 0.0
C1548 C 0.88735 0.76718 0.4925 0.0
C1549 C 0.86709 0.74224 0.47054 0.0
C1550 C 0.82582 0.68843 0.49495 0.0
C1551 C 0.84845 0.71211 0.51679 0.0
N1552 N 0.90496 0.77151 0.53625 0.0
N1553 N 0.82193 0.67714 0.45055 0.0
C1554 C 0.88046 0.75082 0.51555 0.0
C1555 C 0.83771 0.70224 0.47168 0.0
N1556 N 0.91208 0.80678 0.49144 0.0
N1557 N 0.79213 0.65336 0.49644 0.0
H1558 H 0.83004 0.68612 0.43315 0.0
H1559 H 0.80349 0.6467 0.45042 0.0
H1560 H 0.78217 0.64236 0.51314 0.0
H1561 H 0.77222 0.63692 0.48128 0.0
H1562 H 0.92433 0.82714 0.50698 0.0
H1563 H 0.91778 0.81994 0.47494 0.0
H1564 H 0.93115 0.79806 0.536 0.0
H1565 H 0.90086 0.7605 0.55344 0.0
loop_
_geom_bond_atom_site_label_1
_geom_bond_atom_site_label_2
_geom_bond_distance
_geom_bond_site_symmetry_2
_ccdc_geom_bond_type
H0 C7 0.929 . S
H1 C10 0.930 . S
H2 C12 0.929 . S
H3 C4 0.969 . S
C4 H3 0.969 . S
C4 O5 1.550 . S
C4 H6 0.973 . S
O5 C4 1.550 . S
O5 C11 1.412 . S
H6 C4 0.973 . S
C7 H0 0.929 . S
C7 C8 1.400 . S
C7 C9 1.364 . S
C8 C7 1.400 . S
C8 C12 1.377 . S
C9 C7 1.364 . S
C9 C10 1.374 . S
C10 H1 0.930 . S
C10 C9 1.374 . S
C10 C11 1.383 . S
C11 O5 1.412 . S
C11 C10 1.383 . S
C11 C12 1.394 . S
C12 H2 0.929 . S
C12 C8 1.377 . S
C12 C11 1.394 . S
H13 C20 0.929 . S
H14 C23 0.930 . S
H15 C25 0.929 . S
H16 C17 0.969 . S
C17 H16 0.969 . S
C17 O18 1.550 . S
C17 H19 0.973 . S
O18 C17 1.550 . S
O18 C24 1.412 . S
H19 C17 0.973 . S
C20 H13 0.929 . S
C20 C21 1.400 . S
C20 C22 1.364 . S
C21 C20 1.400 . S
C21 C25 1.377 . S
C22 C20 1.364 . S
C22 C23 1.374 . S
C23 H14 0.930 . S
C23 C22 1.374 . S
C23 C24 1.383 . S
C24 O18 1.412 . S
C24 C23 1.383 . S
C24 C25 1.394 . S
C25 H15 0.929 . S
C25 C21 1.377 . S
C25 C24 1.394 . S
H26 C33 0.929 . S
H27 C36 0.930 . S
H28 C38 0.929 . S
H29 C30 0.969 . S
C30 H29 0.969 . S
C30 O31 1.550 . S
C30 H32 0.973 . S
O31 C30 1.550 . S
O31 C37 1.412 . S
H32 C30 0.973 . S
C33 H26 0.929 . S
C33 C34 1.400 . S
C33 C35 1.364 . S
C34 C33 1.400 . S
C34 C38 1.377 . S
C35 C33 1.364 . S
C35 C36 1.374 . S
C36 H27 0.930 . S
C36 C35 1.374 . S
C36 C37 1.383 . S
C37 O31 1.412 . S
C37 C36 1.383 . S
C37 C38 1.394 . S
C38 H28 0.929 . S
C38 C34 1.377 . S
C38 C37 1.394 . S
H39 C46 0.929 . S
H40 C49 0.930 . S
H41 C51 0.929 . S
H42 C43 0.969 . S
C43 H42 0.969 . S
C43 O44 1.550 . S
C43 H45 0.973 . S
O44 C43 1.550 . S
O44 C50 1.412 . S
H45 C43 0.973 . S
C46 H39 0.929 . S
C46 C47 1.400 . S
C46 C48 1.364 . S
C47 C46 1.400 . S
C47 C51 1.377 . S
C48 C46 1.364 . S
C48 C49 1.374 . S
C49 H40 0.930 . S
C49 C48 1.374 . S
C49 C50 1.383 . S
C50 O44 1.412 . S
C50 C49 1.383 . S
C50 C51 1.394 . S
C51 H41 0.929 . S
C51 C47 1.377 . S
C51 C50 1.394 . S
H52 C59 0.929 . S
H53 C62 0.930 . S
H54 C64 0.929 . S
H55 C56 0.969 . S
C56 H55 0.969 . S
C56 O57 1.550 . S
C56 H58 0.973 . S
O57 C56 1.550 . S
O57 C63 1.412 . S
H58 C56 0.973 . S
C59 H52 0.929 . S
C59 C60 1.400 . S
C59 C61 1.364 . S
C60 C59 1.400 . S
C60 C64 1.377 . S
C61 C59 1.364 . S
C61 C62 1.374 . S
C62 H53 0.930 . S
C62 C61 1.374 . S
C62 C63 1.383 . S
C63 O57 1.412 . S
C63 C62 1.383 . S
C63 C64 1.394 . S
C64 H54 0.929 . S
C64 C60 1.377 . S
C64 C63 1.394 . S
H65 C72 0.929 . S
H66 C75 0.930 . S
H67 C77 0.929 . S
H68 C69 0.969 . S
C69 H68 0.969 . S
C69 O70 1.550 . S
C69 H71 0.973 . S
O70 C69 1.550 . S
O70 C76 1.412 . S
H71 C69 0.973 . S
C72 H65 0.929 . S
C72 C73 1.400 . S
C72 C74 1.364 . S
C73 C72 1.400 . S
C73 C77 1.377 . S
C74 C72 1.364 . S
C74 C75 1.374 . S
C75 H66 0.930 . S
C75 C74 1.374 . S
C75 C76 1.383 . S
C76 O70 1.412 . S
C76 C75 1.383 . S
C76 C77 1.394 . S
C77 H67 0.929 . S
C77 C73 1.377 . S
C77 C76 1.394 . S
H78 C85 0.929 . S
H79 C88 0.930 . S
H80 C90 0.929 . S
H81 C82 0.969 . S
C82 H81 0.969 . S
C82 O83 1.550 . S
C82 H84 0.973 . S
O83 C82 1.550 . S
O83 C89 1.412 . S
H84 C82 0.973 . S
C85 H78 0.929 . S
C85 C86 1.400 . S
C85 C87 1.364 . S
C86 C85 1.400 . S
C86 C90 1.377 . S
C87 C85 1.364 . S
C87 C88 1.374 . S
C88 H79 0.930 . S
C88 C87 1.374 . S
C88 C89 1.383 . S
C89 O83 1.412 . S
C89 C88 1.383 . S
C89 C90 1.394 . S
C90 H80 0.929 . S
C90 C86 1.377 . S
C90 C89 1.394 . S
H91 C98 0.929 . S
H92 C101 0.930 . S
H93 C103 0.929 . S
H94 C95 0.969 . S
C95 H94 0.969 . S
C95 O96 1.550 . S
C95 H97 0.973 . S
O96 C95 1.550 . S
O96 C102 1.412 . S
H97 C95 0.973 . S
C98 H91 0.929 . S
C98 C99 1.400 . S
C98 C100 1.364 . S
C99 C98 1.400 . S
C99 C103 1.377 . S
C100 C98 1.364 . S
C100 C101 1.374 . S
C101 H92 0.930 . S
C101 C100 1.374 . S
C101 C102 1.383 . S
C102 O96 1.412 . S
C102 C101 1.383 . S
C102 C103 1.394 . S
C103 H93 0.929 . S
C103 C99 1.377 . S
C103 C102 1.394 . S
H104 C111 0.929 . S
H105 C114 0.930 . S
H106 C116 0.929 . S
H107 C108 0.969 . S
C108 H107 0.969 . S
C108 O109 1.550 . S
C108 H110 0.973 . S
O109 C108 1.550 . S
O109 C115 1.412 . S
H110 C108 0.973 . S
C111 H104 0.929 . S
C111 C112 1.400 . S
C111 C113 1.364 . S
C112 C111 1.400 . S
C112 C116 1.377 . S
C113 C111 1.364 . S
C113 C114 1.374 . S
C114 H105 0.930 . S
C114 C113 1.374 . S
C114 C115 1.383 . S
C115 O109 1.412 . S
C115 C114 1.383 . S
C115 C116 1.394 . S
C116 H106 0.929 . S
C116 C112 1.377 . S
C116 C115 1.394 . S
H117 C124 0.929 . S
H118 C127 0.930 . S
H119 C129 0.929 . S
H120 C121 0.969 . S
C121 H120 0.969 . S
C121 O122 1.550 . S
C121 H123 0.973 . S
O122 C121 1.550 . S
O122 C128 1.412 . S
H123 C121 0.973 . S
C124 H117 0.929 . S
C124 C125 1.400 . S
C124 C126 1.364 . S
C125 C124 1.400 . S
C125 C129 1.377 . S
C126 C124 1.364 . S
C126 C127 1.374 . S
C127 H118 0.930 . S
C127 C126 1.374 . S
C127 C128 1.383 . S
C128 O122 1.412 . S
C128 C127 1.383 . S
C128 C129 1.394 . S
C129 H119 0.929 . S
C129 C125 1.377 . S
C129 C128 1.394 . S
H130 C137 0.929 . S
H131 C140 0.930 . S
H132 C142 0.929 1_554 S
H133 C134 0.969 . S
C134 H133 0.969 . S
C134 O135 1.550 . S
C134 H136 0.973 . S
O135 C134 1.550 . S
O135 C141 1.412 . S
H136 C134 0.973 . S
C137 H130 0.929 . S
C137 C138 1.400 . S
C137 C139 1.364 . S
C138 C137 1.400 . S
C138 C142 1.377 . S
C139 C137 1.364 . S
C139 C140 1.374 . S
C140 H131 0.930 . S
C140 C139 1.374 . S
C140 C141 1.383 . S
C141 O135 1.412 . S
C141 C140 1.383 . S
C141 C142 1.394 . S
C142 H132 0.929 1_556 S
C142 C138 1.377 . S
C142 C141 1.394 . S
H143 C150 0.929 . S
H144 C153 0.930 . S
H145 C155 0.929 . S
H146 C147 0.969 . S
C147 H146 0.969 . S
C147 O148 1.550 . S
C147 H149 0.973 . S
O148 C147 1.550 . S
O148 C154 1.412 . S
H149 C147 0.973 . S
C150 H143 0.929 . S
C150 C151 1.400 . S
C150 C152 1.364 . S
C151 C150 1.400 . S
C151 C155 1.377 . S
C152 C150 1.364 . S
C152 C153 1.374 . S
C153 H144 0.930 . S
C153 C152 1.374 . S
C153 C154 1.383 . S
C154 O148 1.412 . S
C154 C153 1.383 . S
C154 C155 1.394 . S
C155 H145 0.929 . S
C155 C151 1.377 . S
C155 C154 1.394 . S
H156 C163 0.929 . S
H157 C166 0.930 . S
H158 C168 0.929 . S
H159 C160 0.969 . S
C160 H159 0.969 . S
C160 O161 1.550 . S
C160 H162 0.973 . S
O161 C160 1.550 . S
O161 C167 1.412 . S
H162 C160 0.973 . S
C163 H156 0.929 . S
C163 C164 1.400 . S
C163 C165 1.364 . S
C164 C163 1.400 . S
C164 C168 1.377 . S
C165 C163 1.364 . S
C165 C166 1.374 . S
C166 H157 0.930 . S
C166 C165 1.374 . S
C166 C167 1.383 . S
C167 O161 1.412 . S
C167 C166 1.383 . S
C167 C168 1.394 . S
C168 H158 0.929 . S
C168 C164 1.377 . S
C168 C167 1.394 . S
H169 C176 0.929 . S
H170 C179 0.930 . S
H171 C181 0.929 . S
H172 C173 0.969 . S
C173 H172 0.969 . S
C173 O174 1.550 . S
C173 H175 0.973 . S
O174 C173 1.550 . S
O174 C180 1.412 . S
H175 C173 0.973 . S
C176 H169 0.929 . S
C176 C177 1.400 . S
C176 C178 1.364 . S
C177 C176 1.400 . S
C177 C181 1.377 . S
C178 C176 1.364 . S
C178 C179 1.374 . S
C179 H170 0.930 . S
C179 C178 1.374 . S
C179 C180 1.383 . S
C180 O174 1.412 . S
C180 C179 1.383 . S
C180 C181 1.394 . S
C181 H171 0.929 . S
C181 C177 1.377 . S
C181 C180 1.394 . S
H182 C189 0.929 . S
H183 C192 0.930 . S
H184 C194 0.929 . S
H185 C186 0.969 . S
C186 H185 0.969 . S
C186 O187 1.550 . S
C186 H188 0.973 . S
O187 C186 1.550 . S
O187 C193 1.412 . S
H188 C186 0.973 . S
C189 H182 0.929 . S
C189 C190 1.400 . S
C189 C191 1.364 . S
C190 C189 1.400 . S
C190 C194 1.377 . S
C191 C189 1.364 . S
C191 C192 1.374 . S
C192 H183 0.930 . S
C192 C191 1.374 . S
C192 C193 1.383 . S
C193 O187 1.412 . S
C193 C192 1.383 . S
C193 C194 1.394 . S
C194 H184 0.929 . S
C194 C190 1.377 . S
C194 C193 1.394 . S
H195 C202 0.929 . S
H196 C205 0.930 . S
H197 C207 0.929 . S
H198 C199 0.969 . S
C199 H198 0.969 . S
C199 O200 1.550 . S
C199 H201 0.973 . S
O200 C199 1.550 . S
O200 C206 1.412 . S
H201 C199 0.973 . S
C202 H195 0.929 . S
C202 C203 1.400 . S
C202 C204 1.364 . S
C203 C202 1.400 . S
C203 C207 1.377 . S
C204 C202 1.364 . S
C204 C205 1.374 . S
C205 H196 0.930 . S
C205 C204 1.374 . S
C205 C206 1.383 . S
C206 O200 1.412 . S
C206 C205 1.383 . S
C206 C207 1.394 . S
C207 H197 0.929 . S
C207 C203 1.377 . S
C207 C206 1.394 . S
H208 C215 0.929 . S
H209 C218 0.930 . S
H210 C220 0.929 . S
H211 C212 0.969 . S
C212 H211 0.969 . S
C212 O213 1.550 . S
C212 H214 0.973 . S
O213 C212 1.550 . S
O213 C219 1.412 . S
H214 C212 0.973 . S
C215 H208 0.929 . S
C215 C216 1.400 . S
C215 C217 1.364 . S
C216 C215 1.400 . S
C216 C220 1.377 . S
C217 C215 1.364 . S
C217 C218 1.374 . S
C218 H209 0.930 . S
C218 C217 1.374 . S
C218 C219 1.383 . S
C219 O213 1.412 . S
C219 C218 1.383 . S
C219 C220 1.394 . S
C220 H210 0.929 . S
C220 C216 1.377 . S
C220 C219 1.394 . S
H221 C228 0.929 . S
H222 C231 0.930 . S
H223 C233 0.929 . S
H224 C225 0.969 . S
C225 H224 0.969 . S
C225 O226 1.550 . S
C225 H227 0.973 . S
O226 C225 1.550 . S
O226 C232 1.412 . S
H227 C225 0.973 . S
C228 H221 0.929 . S
C228 C229 1.400 . S
C228 C230 1.364 . S
C229 C228 1.400 . S
C229 C233 1.377 . S
C230 C228 1.364 . S
C230 C231 1.374 . S
C231 H222 0.930 . S
C231 C230 1.374 . S
C231 C232 1.383 . S
C232 O226 1.412 . S
C232 C231 1.383 . S
C232 C233 1.394 . S
C233 H223 0.929 . S
C233 C229 1.377 . S
C233 C232 1.394 . S
C234 Eu235 2.835 . S
C234 C236 1.500 1_545 S
C234 O254 1.257 1_545 S
C234 O255 1.260 . S
Eu235 C234 2.835 . S
Eu235 O254 2.473 1_545 S
Eu235 O255 2.480 . S
Eu235 O256 2.430 . S
Eu235 O257 2.670 1_554 S
Eu235 O258 2.394 1_545 S
Eu235 O263 2.355 1_545 S
Eu235 O265 2.374 . S
C236 C234 1.500 1_565 S
C236 C237 1.377 1_565 S
C236 C241 1.377 . S
C237 C236 1.377 1_545 S
C237 C238 1.395 . S
C237 H266 0.931 . S
C238 C237 1.395 . S
C238 C239 1.383 1_545 S
C238 H267 0.931 . S
C239 C238 1.383 1_565 S
C239 C240 1.394 . S
C240 C239 1.394 . S
C240 C241 1.378 . S
C240 H268 0.931 . S
C241 C236 1.377 . S
C241 C240 1.378 . S
C241 H269 0.931 . S
C242 O256 1.259 . S
C242 O257 1.270 1_554 S
C243 O258 1.251 . S
C243 O259 1.251 1_554 S
C244 Eu245 2.835 1_545 S
C244 C246 1.500 . S
C244 O260 1.257 . S
C244 O261 1.260 1_545 S
Eu245 C244 2.835 1_565 S
Eu245 O257 2.355 1_565 S
Eu245 O259 2.374 . S
Eu245 O260 2.473 1_565 S
Eu245 O261 2.480 . S
Eu245 O262 2.430 . S
Eu245 O263 2.670 1_556 S
Eu245 O264 2.394 1_565 S
C246 C244 1.500 . S
C246 C247 1.380 . S
C246 C251 1.377 . S
C247 C246 1.380 . S
C247 C248 1.396 . S
C247 H270 0.927 1_545 S
C248 C247 1.396 . S
C248 C249 1.383 . S
C248 H271 0.931 1_545 S
C249 C248 1.383 . S
C249 C250 1.394 . S
C250 C249 1.394 . S
C250 C251 1.378 . S
C250 H272 0.931 . S
C251 C246 1.377 . S
C251 C250 1.378 . S
C251 H273 0.931 . S
C252 O262 1.259 1_554 S
C252 O263 1.270 . S
C253 O264 1.251 . S
C253 O265 1.251 1_556 S
O254 C234 1.257 1_565 S
O254 Eu235 2.473 1_565 S
O255 C234 1.260 . S
O255 Eu235 2.480 . S
O256 Eu235 2.430 . S
O256 C242 1.259 . S
O257 Eu235 2.670 1_556 S
O257 C242 1.270 1_556 S
O257 Eu245 2.355 1_545 S
O258 Eu235 2.394 1_565 S
O258 C243 1.251 . S
O259 C243 1.251 1_556 S
O259 Eu245 2.374 . S
O260 C244 1.257 . S
O260 Eu245 2.473 1_545 S
O261 C244 1.260 1_565 S
O261 Eu245 2.480 . S
O262 Eu245 2.430 . S
O262 C252 1.259 1_556 S
O263 Eu235 2.355 1_565 S
O263 Eu245 2.670 1_554 S
O263 C252 1.270 . S
O264 Eu245 2.394 1_545 S
O264 C253 1.251 . S
O265 Eu235 2.374 . S
O265 C253 1.251 1_554 S
H266 C237 0.931 . S
H267 C238 0.931 . S
H268 C240 0.931 . S
H269 C241 0.931 . S
H270 C247 0.927 1_565 S
H271 C248 0.931 1_565 S
H272 C250 0.931 . S
H273 C251 0.931 . S
C274 Eu275 2.835 1_455 S
C274 C276 1.500 . S
C274 O294 1.257 . S
C274 O295 1.260 1_455 S
Eu275 C274 2.835 1_655 S
Eu275 O294 2.473 1_655 S
Eu275 O295 2.480 . S
Eu275 O296 2.430 . S
Eu275 O297 2.670 1_554 S
Eu275 O298 2.394 1_655 S
Eu275 O303 2.355 1_655 S
Eu275 O305 2.374 . S
C276 C274 1.500 . S
C276 C277 1.377 . S
C276 C281 1.377 . S
C277 C276 1.377 . S
C277 C278 1.395 . S
C277 H306 0.931 1_455 S
C278 C277 1.395 . S
C278 C279 1.383 . S
C278 H307 0.926 1_455 S
C279 C278 1.383 . S
C279 C280 1.394 . S
C280 C279 1.394 . S
C280 C281 1.378 . S
C280 H308 0.931 . S
C281 C276 1.377 . S
C281 C280 1.378 . S
C281 H309 0.931 . S
C282 O296 1.231 1_556 S
C282 O297 1.283 . S
C283 O298 1.251 . S
C283 O299 1.259 . S
C284 Eu285 2.835 1_655 S
C284 C286 1.500 . S
C284 O300 1.257 . S
C284 O301 1.260 1_655 S
Eu285 C284 2.835 1_455 S
Eu285 O297 2.355 1_455 S
Eu285 O299 2.369 1_556 S
Eu285 O300 2.473 1_455 S
Eu285 O301 2.480 . S
Eu285 O302 2.430 . S
Eu285 O303 2.670 1_556 S
Eu285 O304 2.394 1_455 S
C286 C284 1.500 . S
C286 C287 1.370 1_655 S
C286 C291 1.377 . S
C287 C286 1.370 1_455 S
C287 C288 1.389 1_455 S
C287 H310 0.944 . S
C288 C287 1.389 1_655 S
C288 C289 1.383 . S
C288 H311 0.931 1_655 S
C289 C288 1.383 . S
C289 C290 1.394 . S
C290 C289 1.394 . S
C290 C291 1.378 . S
C290 H312 0.931 . S
C291 C286 1.377 . S
C291 C290 1.378 . S
C291 H313 0.931 . S
C292 O302 1.259 1_554 S
C292 O303 1.270 . S
C293 O304 1.251 . S
C293 O305 1.251 1_556 S
O294 C274 1.257 . S
O294 Eu275 2.473 1_455 S
O295 C274 1.260 1_655 S
O295 Eu275 2.480 . S
O296 Eu275 2.430 . S
O296 C282 1.231 1_554 S
O297 Eu275 2.670 1_556 S
O297 C282 1.283 . S
O297 Eu285 2.355 1_655 S
O298 Eu275 2.394 1_455 S
O298 C283 1.251 . S
O299 C283 1.259 . S
O299 Eu285 2.369 1_554 S
O300 C284 1.257 . S
O300 Eu285 2.473 1_655 S
O301 C284 1.260 1_455 S
O301 Eu285 2.480 . S
O302 Eu285 2.430 . S
O302 C292 1.259 1_556 S
O303 Eu275 2.355 1_455 S
O303 Eu285 2.670 1_554 S
O303 C292 1.270 . S
O304 Eu285 2.394 1_655 S
O304 C293 1.251 . S
O305 Eu275 2.374 . S
O305 C293 1.251 1_554 S
H306 C277 0.931 1_655 S
H307 C278 0.926 1_655 S
H308 C280 0.931 . S
H309 C281 0.931 . S
H310 C287 0.944 . S
H311 C288 0.931 1_455 S
H312 C290 0.931 . S
H313 C291 0.931 . S
C314 Eu315 2.835 . S
C314 C316 1.500 . S
C314 O334 1.257 . S
C314 O335 1.260 . S
Eu315 C314 2.835 . S
Eu315 O334 2.473 . S
Eu315 O335 2.480 . S
Eu315 O336 2.430 . S
Eu315 O337 2.670 1_556 S
Eu315 O338 2.394 . S
Eu315 O343 2.355 . S
Eu315 O345 2.374 1_556 S
C316 C314 1.500 . S
C316 C317 1.377 . S
C316 C321 1.377 . S
C317 C316 1.377 . S
C317 C318 1.395 . S
C317 H346 0.931 . S
C318 C317 1.395 . S
C318 C319 1.383 . S
C318 H347 0.931 . S
C319 C318 1.383 . S
C319 C320 1.394 . S
C320 C319 1.394 . S
C320 C321 1.378 . S
C320 H348 0.931 . S
C321 C316 1.377 . S
C321 C320 1.378 . S
C321 H349 0.931 . S
C322 O336 1.259 1_554 S
C322 O337 1.270 . S
C323 O338 1.251 . S
C323 O339 1.251 1_556 S
C324 Eu325 2.835 . S
C324 C326 1.500 . S
C324 O340 1.257 . S
C324 O341 1.260 . S
Eu325 C324 2.835 . S
Eu325 O337 2.355 . S
Eu325 O339 2.374 . S
Eu325 O340 2.473 . S
Eu325 O341 2.480 . S
Eu325 O342 2.430 . S
Eu325 O343 2.670 1_554 S
Eu325 O344 2.394 . S
C326 C324 1.500 . S
C326 C327 1.377 . S
C326 C331 1.377 . S
C327 C326 1.377 . S
C327 C328 1.395 . S
C327 H350 0.931 . S
C328 C327 1.395 . S
C328 C329 1.383 . S
C328 H351 0.931 . S
C329 C328 1.383 . S
C329 C330 1.394 . S
C330 C329 1.394 . S
C330 C331 1.378 . S
C330 H352 0.931 . S
C331 C326 1.377 . S
C331 C330 1.378 . S
C331 H353 0.931 . S
C332 O342 1.259 . S
C332 O343 1.270 1_554 S
C333 O344 1.251 . S
C333 O345 1.251 . S
O334 C314 1.257 . S
O334 Eu315 2.473 . S
O335 C314 1.260 . S
O335 Eu315 2.480 . S
O336 Eu315 2.430 . S
O336 C322 1.259 1_556 S
O337 Eu315 2.670 1_554 S
O337 C322 1.270 . S
O337 Eu325 2.355 . S
O338 Eu315 2.394 . S
O338 C323 1.251 . S
O339 C323 1.251 1_554 S
O339 Eu325 2.374 . S
O340 C324 1.257 . S
O340 Eu325 2.473 . S
O341 C324 1.260 . S
O341 Eu325 2.480 . S
O342 Eu325 2.430 . S
O342 C332 1.259 . S
O343 Eu315 2.355 . S
O343 Eu325 2.670 1_556 S
O343 C332 1.270 1_556 S
O344 Eu325 2.394 . S
O344 C333 1.251 . S
O345 Eu315 2.374 1_554 S
O345 C333 1.251 . S
H346 C317 0.931 . S
H347 C318 0.931 . S
H348 C320 0.931 . S
H349 C321 0.931 . S
H350 C327 0.931 . S
H351 C328 0.931 . S
H352 C330 0.931 . S
H353 C331 0.931 . S
C354 Eu355 2.835 . S
C354 C356 1.500 . S
C354 O374 1.257 . S
C354 O375 1.260 . S
Eu355 C354 2.835 . S
Eu355 O374 2.473 . S
Eu355 O375 2.480 . S
Eu355 O376 2.430 . S
Eu355 O377 2.670 . S
Eu355 O378 2.394 . S
Eu355 O383 2.355 . S
Eu355 O385 2.374 . S
C356 C354 1.500 . S
C356 C357 1.377 . S
C356 C361 1.377 . S
C357 C356 1.377 . S
C357 C358 1.395 . S
C357 H386 0.931 . S
C358 C357 1.395 . S
C358 C359 1.383 . S
C358 H387 0.931 . S
C359 C358 1.383 . S
C359 C360 1.394 . S
C360 C359 1.394 . S
C360 C361 1.378 . S
C360 H388 0.931 . S
C361 C356 1.377 . S
C361 C360 1.378 . S
C361 H389 0.931 . S
C362 O376 1.259 . S
C362 O377 1.270 . S
C363 O378 1.251 . S
C363 O379 1.251 . S
C364 Eu365 2.835 . S
C364 C366 1.500 . S
C364 O380 1.257 . S
C364 O381 1.260 . S
Eu365 C364 2.835 . S
Eu365 O377 2.355 . S
Eu365 O379 2.374 . S
Eu365 O380 2.473 . S
Eu365 O381 2.480 . S
Eu365 O382 2.430 . S
Eu365 O383 2.670 . S
Eu365 O384 2.394 . S
C366 C364 1.500 . S
C366 C367 1.377 . S
C366 C371 1.377 . S
C367 C366 1.377 . S
C367 C368 1.395 . S
C367 H390 0.931 . S
C368 C367 1.395 . S
C368 C369 1.383 . S
C368 H391 0.931 . S
C369 C368 1.383 . S
C369 C370 1.394 . S
C370 C369 1.394 . S
C370 C371 1.378 . S
C370 H392 0.931 . S
C371 C366 1.377 . S
C371 C370 1.378 . S
C371 H393 0.931 . S
C372 O382 1.259 . S
C372 O383 1.270 . S
C373 O384 1.251 . S
C373 O385 1.251 . S
O374 C354 1.257 . S
O374 Eu355 2.473 . S
O375 C354 1.260 . S
O375 Eu355 2.480 . S
O376 Eu355 2.430 . S
O376 C362 1.259 . S
O377 Eu355 2.670 . S
O377 C362 1.270 . S
O377 Eu365 2.355 . S
O378 Eu355 2.394 . S
O378 C363 1.251 . S
O379 C363 1.251 . S
O379 Eu365 2.374 . S
O380 C364 1.257 . S
O380 Eu365 2.473 . S
O381 C364 1.260 . S
O381 Eu365 2.480 . S
O382 Eu365 2.430 . S
O382 C372 1.259 . S
O383 Eu355 2.355 . S
O383 Eu365 2.670 . S
O383 C372 1.270 . S
O384 Eu365 2.394 . S
O384 C373 1.251 . S
O385 Eu355 2.374 . S
O385 C373 1.251 . S
H386 C357 0.931 . S
H387 C358 0.931 . S
H388 C360 0.931 . S
H389 C361 0.931 . S
H390 C367 0.931 . S
H391 C368 0.931 . S
H392 C370 0.931 . S
H393 C371 0.931 . S
C394 Eu395 2.835 . S
C394 C396 1.500 . S
C394 O414 1.257 . S
C394 O415 1.260 . S
Eu395 C394 2.835 . S
Eu395 O414 2.473 . S
Eu395 O415 2.480 . S
Eu395 O416 2.430 . S
Eu395 O417 2.670 . S
Eu395 O418 2.394 . S
Eu395 O423 2.355 . S
Eu395 O425 2.374 . S
C396 C394 1.500 . S
C396 C397 1.377 . S
C396 C401 1.377 . S
C397 C396 1.377 . S
C397 C398 1.395 . S
C397 H426 0.931 . S
C398 C397 1.395 . S
C398 C399 1.383 . S
C398 H427 0.931 . S
C399 C398 1.383 . S
C399 C400 1.394 . S
C400 C399 1.394 . S
C400 C401 1.378 . S
C400 H428 0.931 . S
C401 C396 1.377 . S
C401 C400 1.378 . S
C401 H429 0.931 . S
C402 O416 1.259 . S
C402 O417 1.270 . S
C403 O418 1.251 . S
C403 O419 1.251 . S
C404 Eu405 2.835 . S
C404 C406 1.500 . S
C404 O420 1.257 . S
C404 O421 1.260 . S
Eu405 C404 2.835 . S
Eu405 O417 2.355 . S
Eu405 O419 2.374 . S
Eu405 O420 2.473 . S
Eu405 O421 2.480 . S
Eu405 O422 2.430 . S
Eu405 O423 2.670 . S
Eu405 O424 2.394 . S
C406 C404 1.500 . S
C406 C407 1.377 . S
C406 C411 1.377 . S
C407 C406 1.377 . S
C407 C408 1.395 . S
C407 H430 0.931 . S
C408 C407 1.395 . S
C408 C409 1.383 . S
C408 H431 0.931 . S
C409 C408 1.383 . S
C409 C410 1.394 . S
C410 C409 1.394 . S
C410 C411 1.378 . S
C410 H432 0.931 . S
C411 C406 1.377 . S
C411 C410 1.378 . S
C411 H433 0.931 . S
C412 O422 1.259 . S
C412 O423 1.270 . S
C413 O424 1.251 . S
C413 O425 1.251 . S
O414 C394 1.257 . S
O414 Eu395 2.473 . S
O415 C394 1.260 . S
O415 Eu395 2.480 . S
O416 Eu395 2.430 . S
O416 C402 1.259 . S
O417 Eu395 2.670 . S
O417 C402 1.270 . S
O417 Eu405 2.355 . S
O418 Eu395 2.394 . S
O418 C403 1.251 . S
O419 C403 1.251 . S
O419 Eu405 2.374 . S
O420 C404 1.257 . S
O420 Eu405 2.473 . S
O421 C404 1.260 . S
O421 Eu405 2.480 . S
O422 Eu405 2.430 . S
O422 C412 1.259 . S
O423 Eu395 2.355 . S
O423 Eu405 2.670 . S
O423 C412 1.270 . S
O424 Eu405 2.394 . S
O424 C413 1.251 . S
O425 Eu395 2.374 . S
O425 C413 1.251 . S
H426 C397 0.931 . S
H427 C398 0.931 . S
H428 C400 0.931 . S
H429 C401 0.931 . S
H430 C407 0.931 . S
H431 C408 0.931 . S
H432 C410 0.931 . S
H433 C411 0.931 . S
C434 Eu435 2.835 . S
C434 C436 1.500 . S
C434 O454 1.257 . S
C434 O455 1.260 . S
Eu435 C434 2.835 . S
Eu435 O454 2.473 . S
Eu435 O455 2.480 . S
Eu435 O456 2.430 . S
Eu435 O457 2.670 . S
Eu435 O458 2.394 . S
Eu435 O463 2.355 . S
Eu435 O465 2.374 . S
C436 C434 1.500 . S
C436 C437 1.377 . S
C436 C441 1.377 . S
C437 C436 1.377 . S
C437 C438 1.395 . S
C437 H466 0.931 . S
C438 C437 1.395 . S
C438 C439 1.383 . S
C438 H467 0.931 . S
C439 C438 1.383 . S
C439 C440 1.394 . S
C440 C439 1.394 . S
C440 C441 1.378 . S
C440 H468 0.931 . S
C441 C436 1.377 . S
C441 C440 1.378 . S
C441 H469 0.931 . S
C442 O456 1.259 . S
C442 O457 1.270 . S
C443 O458 1.251 . S
C443 O459 1.251 . S
C444 Eu445 2.835 . S
C444 C446 1.500 . S
C444 O460 1.257 . S
C444 O461 1.260 . S
Eu445 C444 2.835 . S
Eu445 O457 2.355 . S
Eu445 O459 2.374 . S
Eu445 O460 2.473 . S
Eu445 O461 2.480 . S
Eu445 O462 2.430 . S
Eu445 O463 2.670 . S
Eu445 O464 2.394 . S
C446 C444 1.500 . S
C446 C447 1.377 . S
C446 C451 1.377 . S
C447 C446 1.377 . S
C447 C448 1.395 . S
C447 H470 0.931 . S
C448 C447 1.395 . S
C448 C449 1.383 . S
C448 H471 0.931 . S
C449 C448 1.383 . S
C449 C450 1.394 . S
C450 C449 1.394 . S
C450 C451 1.378 . S
C450 H472 0.931 . S
C451 C446 1.377 . S
C451 C450 1.378 . S
C451 H473 0.931 . S
C452 O462 1.259 . S
C452 O463 1.270 . S
C453 O464 1.251 . S
C453 O465 1.251 . S
O454 C434 1.257 . S
O454 Eu435 2.473 . S
O455 C434 1.260 . S
O455 Eu435 2.480 . S
O456 Eu435 2.430 . S
O456 C442 1.259 . S
O457 Eu435 2.670 . S
O457 C442 1.270 . S
O457 Eu445 2.355 . S
O458 Eu435 2.394 . S
O458 C443 1.251 . S
O459 C443 1.251 . S
O459 Eu445 2.374 . S
O460 C444 1.257 . S
O460 Eu445 2.473 . S
O461 C444 1.260 . S
O461 Eu445 2.480 . S
O462 Eu445 2.430 . S
O462 C452 1.259 . S
O463 Eu435 2.355 . S
O463 Eu445 2.670 . S
O463 C452 1.270 . S
O464 Eu445 2.394 . S
O464 C453 1.251 . S
O465 Eu435 2.374 . S
O465 C453 1.251 . S
H466 C437 0.931 . S
H467 C438 0.931 . S
H468 C440 0.931 . S
H469 C441 0.931 . S
H470 C447 0.931 . S
H471 C448 0.931 . S
H472 C450 0.931 . S
H473 C451 0.931 . S
C474 Eu475 2.835 . S
C474 C476 1.500 . S
C474 O494 1.257 . S
C474 O495 1.260 . S
Eu475 C474 2.835 . S
Eu475 O494 2.473 . S
Eu475 O495 2.480 . S
Eu475 O496 2.430 . S
Eu475 O497 2.670 . S
Eu475 O498 2.394 . S
Eu475 O503 2.355 . S
Eu475 O505 2.374 . S
C476 C474 1.500 . S
C476 C477 1.377 . S
C476 C481 1.377 . S
C477 C476 1.377 . S
C477 C478 1.395 . S
C477 H506 0.931 . S
C478 C477 1.395 . S
C478 C479 1.383 . S
C478 H507 0.931 . S
C479 C478 1.383 . S
C479 C480 1.394 . S
C480 C479 1.394 . S
C480 C481 1.378 . S
C480 H508 0.931 . S
C481 C476 1.377 . S
C481 C480 1.378 . S
C481 H509 0.931 . S
C482 O496 1.259 . S
C482 O497 1.270 . S
C483 O498 1.251 . S
C483 O499 1.251 . S
C484 Eu485 2.835 . S
C484 C486 1.500 . S
C484 O500 1.257 . S
C484 O501 1.260 . S
Eu485 C484 2.835 . S
Eu485 O497 2.355 . S
Eu485 O499 2.374 . S
Eu485 O500 2.473 . S
Eu485 O501 2.480 . S
Eu485 O502 2.430 . S
Eu485 O503 2.670 . S
Eu485 O504 2.394 . S
C486 C484 1.500 . S
C486 C487 1.377 . S
C486 C491 1.377 . S
C487 C486 1.377 . S
C487 C488 1.395 . S
C487 H510 0.931 . S
C488 C487 1.395 . S
C488 C489 1.383 . S
C488 H511 0.931 . S
C489 C488 1.383 . S
C489 C490 1.394 . S
C490 C489 1.394 . S
C490 C491 1.378 . S
C490 H512 0.931 . S
C491 C486 1.377 . S
C491 C490 1.378 . S
C491 H513 0.931 . S
C492 O502 1.259 . S
C492 O503 1.270 . S
C493 O504 1.251 . S
C493 O505 1.251 . S
O494 C474 1.257 . S
O494 Eu475 2.473 . S
O495 C474 1.260 . S
O495 Eu475 2.480 . S
O496 Eu475 2.430 . S
O496 C482 1.259 . S
O497 Eu475 2.670 . S
O497 C482 1.270 . S
O497 Eu485 2.355 . S
O498 Eu475 2.394 . S
O498 C483 1.251 . S
O499 C483 1.251 . S
O499 Eu485 2.374 . S
O500 C484 1.257 . S
O500 Eu485 2.473 . S
O501 C484 1.260 . S
O501 Eu485 2.480 . S
O502 Eu485 2.430 . S
O502 C492 1.259 . S
O503 Eu475 2.355 . S
O503 Eu485 2.670 . S
O503 C492 1.270 . S
O504 Eu485 2.394 . S
O504 C493 1.251 . S
O505 Eu475 2.374 . S
O505 C493 1.251 . S
H506 C477 0.931 . S
H507 C478 0.931 . S
H508 C480 0.931 . S
H509 C481 0.931 . S
H510 C487 0.931 . S
H511 C488 0.931 . S
H512 C490 0.931 . S
H513 C491 0.931 . S
C514 Eu515 2.835 . S
C514 C516 1.500 . S
C514 O534 1.257 . S
C514 O535 1.260 . S
Eu515 C514 2.835 . S
Eu515 O534 2.473 . S
Eu515 O535 2.480 . S
Eu515 O536 2.430 . S
Eu515 O537 2.670 . S
Eu515 O538 2.394 . S
Eu515 O543 2.355 . S
Eu515 O545 2.374 . S
C516 C514 1.500 . S
C516 C517 1.377 . S
C516 C521 1.377 . S
C517 C516 1.377 . S
C517 C518 1.395 . S
C517 H546 0.931 . S
C518 C517 1.395 . S
C518 C519 1.383 . S
C518 H547 0.931 . S
C519 C518 1.383 . S
C519 C520 1.394 . S
C520 C519 1.394 . S
C520 C521 1.378 . S
C520 H548 0.931 . S
C521 C516 1.377 . S
C521 C520 1.378 . S
C521 H549 0.931 . S
C522 O536 1.259 . S
C522 O537 1.270 . S
C523 O538 1.251 . S
C523 O539 1.251 . S
C524 Eu525 2.835 . S
C524 C526 1.500 . S
C524 O540 1.257 . S
C524 O541 1.260 . S
Eu525 C524 2.835 . S
Eu525 O537 2.355 . S
Eu525 O539 2.374 . S
Eu525 O540 2.473 . S
Eu525 O541 2.480 . S
Eu525 O542 2.430 . S
Eu525 O543 2.670 . S
Eu525 O544 2.394 . S
C526 C524 1.500 . S
C526 C527 1.377 . S
C526 C531 1.377 . S
C527 C526 1.377 . S
C527 C528 1.395 . S
C527 H550 0.931 . S
C528 C527 1.395 . S
C528 C529 1.383 . S
C528 H551 0.931 . S
C529 C528 1.383 . S
C529 C530 1.394 . S
C530 C529 1.394 . S
C530 C531 1.378 . S
C530 H552 0.931 . S
C531 C526 1.377 . S
C531 C530 1.378 . S
C531 H553 0.931 . S
C532 O542 1.259 . S
C532 O543 1.270 . S
C533 O544 1.251 . S
C533 O545 1.251 . S
O534 C514 1.257 . S
O534 Eu515 2.473 . S
O535 C514 1.260 . S
O535 Eu515 2.480 . S
O536 Eu515 2.430 . S
O536 C522 1.259 . S
O537 Eu515 2.670 . S
O537 C522 1.270 . S
O537 Eu525 2.355 . S
O538 Eu515 2.394 . S
O538 C523 1.251 . S
O539 C523 1.251 . S
O539 Eu525 2.374 . S
O540 C524 1.257 . S
O540 Eu525 2.473 . S
O541 C524 1.260 . S
O541 Eu525 2.480 . S
O542 Eu525 2.430 . S
O542 C532 1.259 . S
O543 Eu515 2.355 . S
O543 Eu525 2.670 . S
O543 C532 1.270 . S
O544 Eu525 2.394 . S
O544 C533 1.251 . S
O545 Eu515 2.374 . S
O545 C533 1.251 . S
H546 C517 0.931 . S
H547 C518 0.931 . S
H548 C520 0.931 . S
H549 C521 0.931 . S
H550 C527 0.931 . S
H551 C528 0.931 . S
H552 C530 0.931 . S
H553 C531 0.931 . S
C554 Eu555 2.835 . S
C554 C556 1.500 . S
C554 O574 1.257 . S
C554 O575 1.260 . S
Eu555 C554 2.835 . S
Eu555 O574 2.473 . S
Eu555 O575 2.480 . S
Eu555 O576 2.430 . S
Eu555 O577 2.670 . S
Eu555 O578 2.394 . S
Eu555 O583 2.355 . S
Eu555 O585 2.374 . S
C556 C554 1.500 . S
C556 C557 1.377 . S
C556 C561 1.377 . S
C557 C556 1.377 . S
C557 C558 1.395 . S
C557 H586 0.931 . S
C558 C557 1.395 . S
C558 C559 1.383 . S
C558 H587 0.931 . S
C559 C558 1.383 . S
C559 C560 1.394 . S
C560 C559 1.394 . S
C560 C561 1.378 . S
C560 H588 0.931 . S
C561 C556 1.377 . S
C561 C560 1.378 . S
C561 H589 0.931 . S
C562 O576 1.259 . S
C562 O577 1.270 . S
C563 O578 1.251 . S
C563 O579 1.251 . S
C564 Eu565 2.835 . S
C564 C566 1.500 . S
C564 O580 1.257 . S
C564 O581 1.260 . S
Eu565 C564 2.835 . S
Eu565 O577 2.355 . S
Eu565 O579 2.374 . S
Eu565 O580 2.473 . S
Eu565 O581 2.480 . S
Eu565 O582 2.430 . S
Eu565 O583 2.670 . S
Eu565 O584 2.394 . S
C566 C564 1.500 . S
C566 C567 1.377 . S
C566 C571 1.377 . S
C567 C566 1.377 . S
C567 C568 1.395 . S
C567 H590 0.931 . S
C568 C567 1.395 . S
C568 C569 1.383 . S
C568 H591 0.931 . S
C569 C568 1.383 . S
C569 C570 1.394 . S
C570 C569 1.394 . S
C570 C571 1.378 . S
C570 H592 0.931 . S
C571 C566 1.377 . S
C571 C570 1.378 . S
C571 H593 0.931 . S
C572 O582 1.259 . S
C572 O583 1.270 . S
C573 O584 1.251 . S
C573 O585 1.251 . S
O574 C554 1.257 . S
O574 Eu555 2.473 . S
O575 C554 1.260 . S
O575 Eu555 2.480 . S
O576 Eu555 2.430 . S
O576 C562 1.259 . S
O577 Eu555 2.670 . S
O577 C562 1.270 . S
O577 Eu565 2.355 . S
O578 Eu555 2.394 . S
O578 C563 1.251 . S
O579 C563 1.251 . S
O579 Eu565 2.374 . S
O580 C564 1.257 . S
O580 Eu565 2.473 . S
O581 C564 1.260 . S
O581 Eu565 2.480 . S
O582 Eu565 2.430 . S
O582 C572 1.259 . S
O583 Eu555 2.355 . S
O583 Eu565 2.670 . S
O583 C572 1.270 . S
O584 Eu565 2.394 . S
O584 C573 1.251 . S
O585 Eu555 2.374 . S
O585 C573 1.251 . S
H586 C557 0.931 . S
H587 C558 0.931 . S
H588 C560 0.931 . S
H589 C561 0.931 . S
H590 C567 0.931 . S
H591 C568 0.931 . S
H592 C570 0.931 . S
H593 C571 0.931 . S
C594 C595 1.363 . S
C594 C600 1.379 . S
C594 N602 1.356 . S
C595 C594 1.363 . S
C595 C601 1.363 . S
C596 C597 1.363 . S
C596 C601 1.379 . S
C596 N603 1.356 . S
C597 C596 1.363 . S
C597 C600 1.363 . S
N598 C600 1.356 . S
N598 H610 0.984 . S
N598 H611 0.985 . S
N599 C601 1.356 . S
N599 H604 0.984 . S
N599 H605 0.985 . S
C600 C594 1.379 . S
C600 C597 1.363 . S
C600 N598 1.356 . S
C601 C595 1.363 . S
C601 C596 1.379 . S
C601 N599 1.356 . S
N602 C594 1.356 . S
N602 H608 0.984 . S
N602 H609 0.984 . S
N603 C596 1.356 . S
N603 H606 0.984 . S
N603 H607 0.985 . S
H604 N599 0.984 . S
H605 N599 0.985 . S
H606 N603 0.984 . S
H607 N603 0.985 . S
H608 N602 0.984 . S
H609 N602 0.984 . S
H610 N598 0.984 . S
H611 N598 0.985 . S
C612 C613 1.363 . S
C612 C618 1.379 . S
C612 N620 1.356 . S
C613 C612 1.363 . S
C613 C619 1.363 . S
C614 C615 1.363 . S
C614 C619 1.379 . S
C614 N621 1.356 . S
C615 C614 1.363 . S
C615 C618 1.363 . S
N616 C618 1.356 . S
N616 H628 0.984 . S
N616 H629 0.985 . S
N617 C619 1.356 . S
N617 H622 0.984 . S
N617 H623 0.985 . S
C618 C612 1.379 . S
C618 C615 1.363 . S
C618 N616 1.356 . S
C619 C613 1.363 . S
C619 C614 1.379 . S
C619 N617 1.356 . S
N620 C612 1.356 . S
N620 H626 0.984 . S
N620 H627 0.984 . S
N621 C614 1.356 . S
N621 H624 0.984 . S
N621 H625 0.985 . S
H622 N617 0.984 . S
H623 N617 0.985 . S
H624 N621 0.984 . S
H625 N621 0.985 . S
H626 N620 0.984 . S
H627 N620 0.984 . S
H628 N616 0.984 . S
H629 N616 0.985 . S
C630 C631 1.363 . S
C630 C636 1.379 . S
C630 N638 1.356 1_554 S
C631 C630 1.363 . S
C631 C637 1.363 . S
C632 C633 1.363 . S
C632 C637 1.379 . S
C632 N639 1.356 . S
C633 C632 1.363 . S
C633 C636 1.363 . S
N634 C636 1.356 1_556 S
N634 H646 0.984 . S
N634 H647 0.985 . S
N635 C637 1.356 . S
N635 H640 0.984 . S
N635 H641 0.985 . S
C636 C630 1.379 . S
C636 C633 1.363 . S
C636 N634 1.356 1_554 S
C637 C631 1.363 . S
C637 C632 1.379 . S
C637 N635 1.356 . S
N638 C630 1.356 1_556 S
N638 H644 0.984 . S
N638 H645 0.984 1_556 S
N639 C632 1.356 . S
N639 H642 0.984 . S
N639 H643 0.985 . S
H640 N635 0.984 . S
H641 N635 0.985 . S
H642 N639 0.984 . S
H643 N639 0.985 . S
H644 N638 0.984 . S
H645 N638 0.984 1_554 S
H646 N634 0.984 . S
H647 N634 0.985 . S
C648 C649 1.363 . S
C648 C654 1.378 1_556 S
C648 N656 1.356 1_556 S
C649 C648 1.363 . S
C649 C655 1.363 . S
C650 C651 1.363 . S
C650 C655 1.379 . S
C650 N657 1.356 . S
C651 C650 1.363 . S
C651 C654 1.359 1_556 S
N652 C654 1.360 . S
N652 H664 0.984 . S
N652 H665 0.985 . S
N653 C655 1.356 . S
N653 H658 0.984 . S
N653 H659 0.985 . S
C654 C648 1.378 1_554 S
C654 C651 1.359 1_554 S
C654 N652 1.360 . S
C655 C649 1.363 . S
C655 C650 1.379 . S
C655 N653 1.356 . S
N656 C648 1.356 1_554 S
N656 H662 0.984 . S
N656 H663 0.984 1_554 S
N657 C650 1.356 . S
N657 H660 0.984 . S
N657 H661 0.985 . S
H658 N653 0.984 . S
H659 N653 0.985 . S
H660 N657 0.984 . S
H661 N657 0.985 . S
H662 N656 0.984 . S
H663 N656 0.984 1_556 S
H664 N652 0.984 . S
H665 N652 0.985 . S
C666 C667 1.363 . S
C666 C672 1.379 . S
C666 N674 1.356 . S
C667 C666 1.363 . S
C667 C673 1.363 . S
C668 C669 1.363 . S
C668 C673 1.379 . S
C668 N675 1.356 1_556 S
C669 C668 1.363 . S
C669 C672 1.363 . S
N670 C672 1.356 . S
N670 H682 0.984 . S
N670 H683 0.985 . S
N671 C673 1.356 . S
N671 H676 0.984 . S
N671 H677 0.985 1_556 S
C672 C666 1.379 . S
C672 C669 1.363 . S
C672 N670 1.356 . S
C673 C667 1.363 . S
C673 C668 1.379 . S
C673 N671 1.356 . S
N674 C666 1.356 . S
N674 H680 0.984 . S
N674 H681 0.984 . S
N675 C668 1.356 1_554 S
N675 H678 0.984 . S
N675 H679 0.985 . S
H676 N671 0.984 . S
H677 N671 0.985 1_554 S
H678 N675 0.984 . S
H679 N675 0.985 . S
H680 N674 0.984 . S
H681 N674 0.984 . S
H682 N670 0.984 . S
H683 N670 0.985 . S
C684 C685 1.363 . S
C684 C690 1.379 . S
C684 N692 1.356 . S
C685 C684 1.363 . S
C685 C691 1.363 . S
C686 C687 1.361 1_554 S
C686 C691 1.375 1_554 S
C686 N693 1.363 . S
C687 C686 1.361 1_556 S
C687 C690 1.363 . S
N688 C690 1.356 . S
N688 H700 0.984 . S
N688 H701 0.985 . S
N689 C691 1.356 . S
N689 H694 0.984 . S
N689 H695 0.985 1_556 S
C690 C684 1.379 . S
C690 C687 1.363 . S
C690 N688 1.356 . S
C691 C685 1.363 . S
C691 C686 1.375 1_556 S
C691 N689 1.356 . S
N692 C684 1.356 . S
N692 H698 0.984 . S
N692 H699 0.984 . S
N693 C686 1.363 . S
N693 H696 0.984 . S
N693 H697 0.985 . S
H694 N689 0.984 . S
H695 N689 0.985 1_554 S
H696 N693 0.984 . S
H697 N693 0.985 . S
H698 N692 0.984 . S
H699 N692 0.984 . S
H700 N688 0.984 . S
H701 N688 0.985 . S
C702 C703 1.376 . S
C702 C708 1.375 1_556 S
C702 N710 1.350 1_556 S
C703 C702 1.376 . S
C703 C709 1.363 . S
C704 C705 1.363 . S
C704 C709 1.379 . S
C704 N711 1.356 . S
C705 C704 1.363 . S
C705 C708 1.363 1_556 S
N706 C708 1.356 . S
N706 H718 0.984 . S
N706 H719 0.985 . S
N707 C709 1.356 . S
N707 H712 0.984 . S
N707 H713 0.985 . S
C708 C702 1.375 1_554 S
C708 C705 1.363 1_554 S
C708 N706 1.356 . S
C709 C703 1.363 . S
C709 C704 1.379 . S
C709 N707 1.356 . S
N710 C702 1.350 1_554 S
N710 H716 0.984 . S
N710 H717 0.984 . S
N711 C704 1.356 . S
N711 H714 0.984 . S
N711 H715 0.985 . S
H712 N707 0.984 . S
H713 N707 0.985 . S
H714 N711 0.984 . S
H715 N711 0.985 . S
H716 N710 0.984 . S
H717 N710 0.984 . S
H718 N706 0.984 . S
H719 N706 0.985 . S
C720 C721 1.363 . S
C720 C726 1.379 . S
C720 N728 1.356 . S
C721 C720 1.363 . S
C721 C727 1.363 . S
C722 C723 1.363 . S
C722 C727 1.379 . S
C722 N729 1.356 . S
C723 C722 1.363 . S
C723 C726 1.363 . S
N724 C726 1.356 . S
N724 H736 0.984 . S
N724 H737 0.985 . S
N725 C727 1.356 . S
N725 H730 0.984 . S
N725 H731 0.985 . S
C726 C720 1.379 . S
C726 C723 1.363 . S
C726 N724 1.356 . S
C727 C721 1.363 . S
C727 C722 1.379 . S
C727 N725 1.356 . S
N728 C720 1.356 . S
N728 H734 0.984 . S
N728 H735 0.984 . S
N729 C722 1.356 . S
N729 H732 0.984 . S
N729 H733 0.985 1_556 S
H730 N725 0.984 . S
H731 N725 0.985 . S
H732 N729 0.984 . S
H733 N729 0.985 1_554 S
H734 N728 0.984 . S
H735 N728 0.984 . S
H736 N724 0.984 . S
H737 N724 0.985 . S
C738 C739 1.363 1_554 S
C738 C744 1.379 . S
C738 N746 1.356 . S
C739 C738 1.363 1_556 S
C739 C745 1.363 . S
C740 C741 1.363 . S
C740 C745 1.379 . S
C740 N747 1.356 . S
C741 C740 1.363 . S
C741 C744 1.363 1_556 S
N742 C744 1.356 . S
N742 H754 0.984 . S
N742 H755 0.985 . S
N743 C745 1.356 . S
N743 H748 0.984 . S
N743 H749 0.985 . S
C744 C738 1.379 . S
C744 C741 1.363 1_554 S
C744 N742 1.356 . S
C745 C739 1.363 . S
C745 C740 1.379 . S
C745 N743 1.356 . S
N746 C738 1.356 . S
N746 H752 0.984 . S
N746 H753 0.984 . S
N747 C740 1.356 . S
N747 H750 0.984 . S
N747 H751 0.985 . S
H748 N743 0.984 . S
H749 N743 0.985 . S
H750 N747 0.984 . S
H751 N747 0.985 . S
H752 N746 0.984 . S
H753 N746 0.984 . S
H754 N742 0.984 . S
H755 N742 0.985 . S
C756 C757 1.363 . S
C756 C762 1.379 . S
C756 N764 1.356 1_554 S
C757 C756 1.363 . S
C757 C763 1.363 . S
C758 C759 1.363 . S
C758 C763 1.379 . S
C758 N765 1.356 . S
C759 C758 1.363 . S
C759 C762 1.392 . S
N760 C762 1.334 1_556 S
N760 H772 0.984 . S
N760 H773 0.985 . S
N761 C763 1.356 . S
N761 H766 0.984 . S
N761 H767 0.985 . S
C762 C756 1.379 . S
C762 C759 1.392 . S
C762 N760 1.334 1_554 S
C763 C757 1.363 . S
C763 C758 1.379 . S
C763 N761 1.356 . S
N764 C756 1.356 1_556 S
N764 H770 0.984 . S
N764 H771 0.984 . S
N765 C758 1.356 . S
N765 H768 0.984 . S
N765 H769 0.985 . S
H766 N761 0.984 . S
H767 N761 0.985 . S
H768 N765 0.984 . S
H769 N765 0.985 . S
H770 N764 0.984 . S
H771 N764 0.984 . S
H772 N760 0.984 . S
H773 N760 0.985 . S
C774 C775 1.363 . S
C774 C780 1.379 . S
C774 N782 1.356 . S
C775 C774 1.363 . S
C775 C781 1.363 . S
C776 C777 1.363 . S
C776 C781 1.379 . S
C776 N783 1.356 . S
C777 C776 1.363 . S
C777 C780 1.363 . S
N778 C780 1.356 . S
N778 H790 0.984 . S
N778 H791 0.985 . S
N779 C781 1.356 . S
N779 H784 0.984 . S
N779 H785 0.985 . S
C780 C774 1.379 . S
C780 C777 1.363 . S
C780 N778 1.356 . S
C781 C775 1.363 . S
C781 C776 1.379 . S
C781 N779 1.356 . S
N782 C774 1.356 . S
N782 H788 0.984 . S
N782 H789 0.984 . S
N783 C776 1.356 . S
N783 H786 0.984 . S
N783 H787 0.985 . S
H784 N779 0.984 . S
H785 N779 0.985 . S
H786 N783 0.984 . S
H787 N783 0.985 . S
H788 N782 0.984 . S
H789 N782 0.984 . S
H790 N778 0.984 . S
H791 N778 0.985 . S
C792 C793 1.363 . S
C792 C798 1.379 . S
C792 N800 1.353 1_554 S
C793 C792 1.363 . S
C793 C799 1.363 . S
C794 C795 1.363 . S
C794 C799 1.379 . S
C794 N801 1.356 . S
C795 C794 1.363 . S
C795 C798 1.363 . S
N796 C798 1.356 1_556 S
N796 H808 0.984 . S
N796 H809 0.985 . S
N797 C799 1.356 . S
N797 H802 0.984 . S
N797 H803 0.985 . S
C798 C792 1.379 . S
C798 C795 1.363 . S
C798 N796 1.356 1_554 S
C799 C793 1.363 . S
C799 C794 1.379 . S
C799 N797 1.356 . S
N800 C792 1.353 1_556 S
N800 H806 0.990 . S
N800 H807 0.982 1_556 S
N801 C794 1.356 . S
N801 H804 0.984 . S
N801 H805 0.985 . S
H802 N797 0.984 . S
H803 N797 0.985 . S
H804 N801 0.984 . S
H805 N801 0.985 . S
H806 N800 0.990 . S
H807 N800 0.982 1_554 S
H808 N796 0.984 . S
H809 N796 0.985 . S
C810 C811 1.363 . S
C810 C816 1.379 1_655 S
C810 N818 1.356 . S
C811 C810 1.363 . S
C811 C817 1.363 . S
C812 C813 1.363 . S
C812 C817 1.379 1_455 S
C812 N819 1.356 . S
C813 C812 1.363 . S
C813 C816 1.363 . S
N814 C816 1.356 . S
N814 H826 0.984 . S
N814 H827 0.985 . S
N815 C817 1.356 . S
N815 H820 0.984 . S
N815 H821 0.985 . S
C816 C810 1.379 1_455 S
C816 C813 1.363 . S
C816 N814 1.356 . S
C817 C811 1.363 . S
C817 C812 1.379 1_655 S
C817 N815 1.356 . S
N818 C810 1.356 . S
N818 H824 0.984 . S
N818 H825 0.984 . S
N819 C812 1.356 . S
N819 H822 0.984 . S
N819 H823 0.985 . S
H820 N815 0.984 . S
H821 N815 0.985 . S
H822 N819 0.984 . S
H823 N819 0.985 . S
H824 N818 0.984 . S
H825 N818 0.984 . S
H826 N814 0.984 . S
H827 N814 0.985 . S
C828 C829 1.363 . S
C828 C834 1.379 . S
C828 N836 1.356 . S
C829 C828 1.363 . S
C829 C835 1.363 . S
C830 C831 1.363 . S
C830 C835 1.379 . S
C830 N837 1.356 . S
C831 C830 1.363 . S
C831 C834 1.363 . S
N832 C834 1.356 . S
N832 H844 0.984 . S
N832 H845 0.985 . S
N833 C835 1.356 . S
N833 H838 0.984 . S
N833 H839 0.985 . S
C834 C828 1.379 . S
C834 C831 1.363 . S
C834 N832 1.356 . S
C835 C829 1.363 . S
C835 C830 1.379 . S
C835 N833 1.356 . S
N836 C828 1.356 . S
N836 H842 0.984 . S
N836 H843 0.984 . S
N837 C830 1.356 . S
N837 H840 0.984 . S
N837 H841 0.985 . S
H838 N833 0.984 . S
H839 N833 0.985 . S
H840 N837 0.984 . S
H841 N837 0.985 . S
H842 N836 0.984 . S
H843 N836 0.984 . S
H844 N832 0.984 . S
H845 N832 0.985 . S
C846 C847 1.363 . S
C846 C852 1.379 . S
C846 N854 1.356 . S
C847 C846 1.363 . S
C847 C853 1.363 . S
C848 C849 1.363 1_545 S
C848 C853 1.379 . S
C848 N855 1.356 1_545 S
C849 C848 1.363 1_565 S
C849 C852 1.363 1_565 S
N850 C852 1.356 1_565 S
N850 H862 0.984 . S
N850 H863 0.985 . S
N851 C853 1.356 . S
N851 H856 0.984 . S
N851 H857 0.985 . S
C852 C846 1.379 . S
C852 C849 1.363 1_545 S
C852 N850 1.356 1_545 S
C853 C847 1.363 . S
C853 C848 1.379 . S
C853 N851 1.356 . S
N854 C846 1.356 . S
N854 H860 0.984 . S
N854 H861 0.984 . S
N855 C848 1.356 1_565 S
N855 H858 0.984 . S
N855 H859 0.985 . S
H856 N851 0.984 . S
H857 N851 0.985 . S
H858 N855 0.984 . S
H859 N855 0.985 . S
H860 N854 0.984 . S
H861 N854 0.984 . S
H862 N850 0.984 . S
H863 N850 0.985 . S
C864 C865 1.363 . S
C864 C870 1.379 . S
C864 N872 1.356 . S
C865 C864 1.363 . S
C865 C871 1.363 . S
C866 C867 1.363 . S
C866 C871 1.379 . S
C866 N873 1.356 . S
C867 C866 1.363 . S
C867 C870 1.363 . S
N868 C870 1.356 . S
N868 H880 0.984 . S
N868 H881 0.985 . S
N869 C871 1.356 . S
N869 H874 0.984 . S
N869 H875 0.985 . S
C870 C864 1.379 . S
C870 C867 1.363 . S
C870 N868 1.356 . S
C871 C865 1.363 . S
C871 C866 1.379 . S
C871 N869 1.356 . S
N872 C864 1.356 . S
N872 H878 0.984 . S
N872 H879 0.984 . S
N873 C866 1.356 . S
N873 H876 0.984 . S
N873 H877 0.985 . S
H874 N869 0.984 . S
H875 N869 0.985 . S
H876 N873 0.984 . S
H877 N873 0.985 . S
H878 N872 0.984 . S
H879 N872 0.984 . S
H880 N868 0.984 . S
H881 N868 0.985 . S
C882 C883 1.363 . S
C882 C888 1.379 . S
C882 N890 1.356 . S
C883 C882 1.363 . S
C883 C889 1.363 . S
C884 C885 1.363 . S
C884 C889 1.379 . S
C884 N891 1.356 . S
C885 C884 1.363 . S
C885 C888 1.363 . S
N886 C888 1.356 . S
N886 H898 0.984 . S
N886 H899 0.985 . S
N887 C889 1.356 . S
N887 H892 0.984 . S
N887 H893 0.985 . S
C888 C882 1.379 . S
C888 C885 1.363 . S
C888 N886 1.356 . S
C889 C883 1.363 . S
C889 C884 1.379 . S
C889 N887 1.356 . S
N890 C882 1.356 . S
N890 H896 0.984 . S
N890 H897 0.984 . S
N891 C884 1.356 . S
N891 H894 0.984 . S
N891 H895 0.985 . S
H892 N887 0.984 . S
H893 N887 0.985 . S
H894 N891 0.984 . S
H895 N891 0.985 . S
H896 N890 0.984 . S
H897 N890 0.984 . S
H898 N886 0.984 . S
H899 N886 0.985 . S
C900 C901 1.363 . S
C900 C906 1.379 . S
C900 N908 1.356 . S
C901 C900 1.363 . S
C901 C907 1.363 . S
C902 C903 1.363 . S
C902 C907 1.379 . S
C902 N909 1.356 . S
C903 C902 1.363 . S
C903 C906 1.363 . S
N904 C906 1.356 . S
N904 H916 0.984 . S
N904 H917 0.985 . S
N905 C907 1.356 . S
N905 H910 0.984 . S
N905 H911 0.985 . S
C906 C900 1.379 . S
C906 C903 1.363 . S
C906 N904 1.356 . S
C907 C901 1.363 . S
C907 C902 1.379 . S
C907 N905 1.356 . S
N908 C900 1.356 . S
N908 H914 0.984 . S
N908 H915 0.984 . S
N909 C902 1.356 . S
N909 H912 0.984 . S
N909 H913 0.985 . S
H910 N905 0.984 . S
H911 N905 0.985 . S
H912 N909 0.984 . S
H913 N909 0.985 . S
H914 N908 0.984 . S
H915 N908 0.984 . S
H916 N904 0.984 . S
H917 N904 0.985 . S
C918 C919 1.363 . S
C918 C924 1.379 . S
C918 N926 1.356 . S
C919 C918 1.363 . S
C919 C925 1.363 . S
C920 C921 1.363 . S
C920 C925 1.379 . S
C920 N927 1.356 . S
C921 C920 1.363 . S
C921 C924 1.363 . S
N922 C924 1.356 . S
N922 H934 0.984 . S
N922 H935 0.985 . S
N923 C925 1.356 . S
N923 H928 0.984 . S
N923 H929 0.985 . S
C924 C918 1.379 . S
C924 C921 1.363 . S
C924 N922 1.356 . S
C925 C919 1.363 . S
C925 C920 1.379 . S
C925 N923 1.356 . S
N926 C918 1.356 . S
N926 H932 0.984 . S
N926 H933 0.984 . S
N927 C920 1.356 . S
N927 H930 0.984 . S
N927 H931 0.985 . S
H928 N923 0.984 . S
H929 N923 0.985 . S
H930 N927 0.984 . S
H931 N927 0.985 . S
H932 N926 0.984 . S
H933 N926 0.984 . S
H934 N922 0.984 . S
H935 N922 0.985 . S
C936 C937 1.363 . S
C936 C942 1.379 . S
C936 N944 1.356 . S
C937 C936 1.363 . S
C937 C943 1.363 . S
C938 C939 1.363 . S
C938 C943 1.379 . S
C938 N945 1.356 . S
C939 C938 1.363 . S
C939 C942 1.363 . S
N940 C942 1.356 . S
N940 H952 0.984 . S
N940 H953 0.985 . S
N941 C943 1.356 . S
N941 H946 0.984 . S
N941 H947 0.985 . S
C942 C936 1.379 . S
C942 C939 1.363 . S
C942 N940 1.356 . S
C943 C937 1.363 . S
C943 C938 1.379 . S
C943 N941 1.356 . S
N944 C936 1.356 . S
N944 H950 0.984 . S
N944 H951 0.984 . S
N945 C938 1.356 . S
N945 H948 0.984 . S
N945 H949 0.985 . S
H946 N941 0.984 . S
H947 N941 0.985 . S
H948 N945 0.984 . S
H949 N945 0.985 . S
H950 N944 0.984 . S
H951 N944 0.984 . S
H952 N940 0.984 . S
H953 N940 0.985 . S
C954 C955 1.363 . S
C954 C960 1.379 . S
C954 N962 1.356 . S
C955 C954 1.363 . S
C955 C961 1.363 . S
C956 C957 1.363 . S
C956 C961 1.379 . S
C956 N963 1.356 . S
C957 C956 1.363 . S
C957 C960 1.363 . S
N958 C960 1.356 . S
N958 H970 0.984 . S
N958 H971 0.985 . S
N959 C961 1.356 . S
N959 H964 0.984 . S
N959 H965 0.985 . S
C960 C954 1.379 . S
C960 C957 1.363 . S
C960 N958 1.356 . S
C961 C955 1.363 . S
C961 C956 1.379 . S
C961 N959 1.356 . S
N962 C954 1.356 . S
N962 H968 0.984 . S
N962 H969 0.984 . S
N963 C956 1.356 . S
N963 H966 0.984 . S
N963 H967 0.985 . S
H964 N959 0.984 . S
H965 N959 0.985 . S
H966 N963 0.984 . S
H967 N963 0.985 . S
H968 N962 0.984 . S
H969 N962 0.984 . S
H970 N958 0.984 . S
H971 N958 0.985 . S
C972 C973 1.363 1_565 S
C972 C978 1.379 . S
C972 N980 1.356 1_565 S
C973 C972 1.363 1_545 S
C973 C979 1.363 1_545 S
C974 C975 1.363 . S
C974 C979 1.379 . S
C974 N981 1.356 . S
C975 C974 1.363 . S
C975 C978 1.363 . S
N976 C978 1.356 . S
N976 H988 0.984 . S
N976 H989 0.985 . S
N977 C979 1.356 1_545 S
N977 H982 0.984 . S
N977 H983 0.985 . S
C978 C972 1.379 . S
C978 C975 1.363 . S
C978 N976 1.356 . S
C979 C973 1.363 1_565 S
C979 C974 1.379 . S
C979 N977 1.356 1_565 S
N980 C972 1.356 1_545 S
N980 H986 0.984 . S
N980 H987 0.984 . S
N981 C974 1.356 . S
N981 H984 0.984 . S
N981 H985 0.985 . S
H982 N977 0.984 . S
H983 N977 0.985 . S
H984 N981 0.984 . S
H985 N981 0.985 . S
H986 N980 0.984 . S
H987 N980 0.984 . S
H988 N976 0.984 . S
H989 N976 0.985 . S
C990 C991 1.363 . S
C990 C996 1.379 . S
C990 N998 1.356 1_455 S
C991 C990 1.363 . S
C991 C997 1.363 . S
C992 C993 1.363 . S
C992 C997 1.379 . S
C992 N999 1.356 . S
C993 C992 1.363 . S
C993 C996 1.363 . S
N994 C996 1.356 . S
N994 H1006 0.984 . S
N994 H1007 0.985 . S
N995 C997 1.356 . S
N995 H1000 0.984 1_455 S
N995 H1001 0.985 . S
C996 C990 1.379 . S
C996 C993 1.363 . S
C996 N994 1.356 . S
C997 C991 1.363 . S
C997 C992 1.379 . S
C997 N995 1.356 . S
N998 C990 1.356 1_655 S
N998 H1004 0.984 . S
N998 H1005 0.984 . S
N999 C992 1.356 . S
N999 H1002 0.984 . S
N999 H1003 0.985 . S
H1000 N995 0.984 1_655 S
H1001 N995 0.985 . S
H1002 N999 0.984 . S
H1003 N999 0.985 . S
H1004 N998 0.984 . S
H1005 N998 0.984 . S
H1006 N994 0.984 . S
H1007 N994 0.985 . S
C1008 C1009 1.363 . S
C1008 C1014 1.379 . S
C1008 N1016 1.356 . S
C1009 C1008 1.363 . S
C1009 C1015 1.363 . S
C1010 C1011 1.363 . S
C1010 C1015 1.379 . S
C1010 N1017 1.356 . S
C1011 C1010 1.363 . S
C1011 C1014 1.363 . S
N1012 C1014 1.356 . S
N1012 H1024 0.984 . S
N1012 H1025 0.985 . S
N1013 C1015 1.356 . S
N1013 H1018 0.984 . S
N1013 H1019 0.985 . S
C1014 C1008 1.379 . S
C1014 C1011 1.363 . S
C1014 N1012 1.356 . S
C1015 C1009 1.363 . S
C1015 C1010 1.379 . S
C1015 N1013 1.356 . S
N1016 C1008 1.356 . S
N1016 H1022 0.984 . S
N1016 H1023 0.984 . S
N1017 C1010 1.356 . S
N1017 H1020 0.984 . S
N1017 H1021 0.985 . S
H1018 N1013 0.984 . S
H1019 N1013 0.985 . S
H1020 N1017 0.984 . S
H1021 N1017 0.985 . S
H1022 N1016 0.984 . S
H1023 N1016 0.984 . S
H1024 N1012 0.984 . S
H1025 N1012 0.985 . S
C1026 C1027 1.363 . S
C1026 C1032 1.379 . S
C1026 N1034 1.356 . S
C1027 C1026 1.363 . S
C1027 C1033 1.363 . S
C1028 C1029 1.363 . S
C1028 C1033 1.379 . S
C1028 N1035 1.356 . S
C1029 C1028 1.363 . S
C1029 C1032 1.363 . S
N1030 C1032 1.356 . S
N1030 H1042 0.984 . S
N1030 H1043 0.985 . S
N1031 C1033 1.356 . S
N1031 H1036 0.984 . S
N1031 H1037 0.985 . S
C1032 C1026 1.379 . S
C1032 C1029 1.363 . S
C1032 N1030 1.356 . S
C1033 C1027 1.363 . S
C1033 C1028 1.379 . S
C1033 N1031 1.356 . S
N1034 C1026 1.356 . S
N1034 H1040 0.984 . S
N1034 H1041 0.984 . S
N1035 C1028 1.356 . S
N1035 H1038 0.984 . S
N1035 H1039 0.985 . S
H1036 N1031 0.984 . S
H1037 N1031 0.985 . S
H1038 N1035 0.984 . S
H1039 N1035 0.985 . S
H1040 N1034 0.984 . S
H1041 N1034 0.984 . S
H1042 N1030 0.984 . S
H1043 N1030 0.985 . S
C1044 C1045 1.363 . S
C1044 C1050 1.379 . S
C1044 N1052 1.356 . S
C1045 C1044 1.363 . S
C1045 C1051 1.363 . S
C1046 C1047 1.363 . S
C1046 C1051 1.379 . S
C1046 N1053 1.356 . S
C1047 C1046 1.363 . S
C1047 C1050 1.363 . S
N1048 C1050 1.356 . S
N1048 H1060 0.984 . S
N1048 H1061 0.985 . S
N1049 C1051 1.356 . S
N1049 H1054 0.984 . S
N1049 H1055 0.985 . S
C1050 C1044 1.379 . S
C1050 C1047 1.363 . S
C1050 N1048 1.356 . S
C1051 C1045 1.363 . S
C1051 C1046 1.379 . S
C1051 N1049 1.356 . S
N1052 C1044 1.356 . S
N1052 H1058 0.984 . S
N1052 H1059 0.984 . S
N1053 C1046 1.356 . S
N1053 H1056 0.984 . S
N1053 H1057 0.985 . S
H1054 N1049 0.984 . S
H1055 N1049 0.985 . S
H1056 N1053 0.984 . S
H1057 N1053 0.985 . S
H1058 N1052 0.984 . S
H1059 N1052 0.984 . S
H1060 N1048 0.984 . S
H1061 N1048 0.985 . S
C1062 C1063 1.363 . S
C1062 C1068 1.379 . S
C1062 N1070 1.356 . S
C1063 C1062 1.363 . S
C1063 C1069 1.363 . S
C1064 C1065 1.363 . S
C1064 C1069 1.379 . S
C1064 N1071 1.356 . S
C1065 C1064 1.363 . S
C1065 C1068 1.363 . S
N1066 C1068 1.356 . S
N1066 H1078 0.984 . S
N1066 H1079 0.985 . S
N1067 C1069 1.356 . S
N1067 H1072 0.984 . S
N1067 H1073 0.985 . S
C1068 C1062 1.379 . S
C1068 C1065 1.363 . S
C1068 N1066 1.356 . S
C1069 C1063 1.363 . S
C1069 C1064 1.379 . S
C1069 N1067 1.356 . S
N1070 C1062 1.356 . S
N1070 H1076 0.984 . S
N1070 H1077 0.984 . S
N1071 C1064 1.356 . S
N1071 H1074 0.984 . S
N1071 H1075 0.985 . S
H1072 N1067 0.984 . S
H1073 N1067 0.985 . S
H1074 N1071 0.984 . S
H1075 N1071 0.985 . S
H1076 N1070 0.984 . S
H1077 N1070 0.984 . S
H1078 N1066 0.984 . S
H1079 N1066 0.985 . S
C1080 C1081 1.363 . S
C1080 C1086 1.379 1_565 S
C1080 N1088 1.356 . S
C1081 C1080 1.363 . S
C1081 C1087 1.363 . S
C1082 C1083 1.363 . S
C1082 C1087 1.379 1_545 S
C1082 N1089 1.356 . S
C1083 C1082 1.363 . S
C1083 C1086 1.363 . S
N1084 C1086 1.356 . S
N1084 H1096 0.984 . S
N1084 H1097 0.985 . S
N1085 C1087 1.356 . S
N1085 H1090 0.984 . S
N1085 H1091 0.985 . S
C1086 C1080 1.379 1_545 S
C1086 C1083 1.363 . S
C1086 N1084 1.356 . S
C1087 C1081 1.363 . S
C1087 C1082 1.379 1_565 S
C1087 N1085 1.356 . S
N1088 C1080 1.356 . S
N1088 H1094 0.984 . S
N1088 H1095 0.984 . S
N1089 C1082 1.356 . S
N1089 H1092 0.984 . S
N1089 H1093 0.985 . S
H1090 N1085 0.984 . S
H1091 N1085 0.985 . S
H1092 N1089 0.984 . S
H1093 N1089 0.985 . S
H1094 N1088 0.984 . S
H1095 N1088 0.984 . S
H1096 N1084 0.984 . S
H1097 N1084 0.985 . S
C1098 C1099 1.363 . S
C1098 C1104 1.379 1_455 S
C1098 N1106 1.356 . S
C1099 C1098 1.363 . S
C1099 C1105 1.363 . S
C1100 C1101 1.363 1_455 S
C1100 C1105 1.379 . S
C1100 N1107 1.356 . S
C1101 C1100 1.363 1_655 S
C1101 C1104 1.363 . S
N1102 C1104 1.356 . S
N1102 H1114 0.984 . S
N1102 H1115 0.985 . S
N1103 C1105 1.356 . S
N1103 H1108 0.984 . S
N1103 H1109 0.985 . S
C1104 C1098 1.379 1_655 S
C1104 C1101 1.363 . S
C1104 N1102 1.356 . S
C1105 C1099 1.363 . S
C1105 C1100 1.379 . S
C1105 N1103 1.356 . S
N1106 C1098 1.356 . S
N1106 H1112 0.984 1_455 S
N1106 H1113 0.984 . S
N1107 C1100 1.356 . S
N1107 H1110 0.984 1_455 S
N1107 H1111 0.985 . S
H1108 N1103 0.984 . S
H1109 N1103 0.985 . S
H1110 N1107 0.984 1_655 S
H1111 N1107 0.985 . S
H1112 N1106 0.984 1_655 S
H1113 N1106 0.984 . S
H1114 N1102 0.984 . S
H1115 N1102 0.985 . S
C1116 C1117 1.363 . S
C1116 C1122 1.379 . S
C1116 N1124 1.356 . S
C1117 C1116 1.363 . S
C1117 C1123 1.363 . S
C1118 C1119 1.363 . S
C1118 C1123 1.379 . S
C1118 N1125 1.356 . S
C1119 C1118 1.363 . S
C1119 C1122 1.363 . S
N1120 C1122 1.356 . S
N1120 H1132 0.984 . S
N1120 H1133 0.985 . S
N1121 C1123 1.356 . S
N1121 H1126 0.984 . S
N1121 H1127 0.985 . S
C1122 C1116 1.379 . S
C1122 C1119 1.363 . S
C1122 N1120 1.356 . S
C1123 C1117 1.363 . S
C1123 C1118 1.379 . S
C1123 N1121 1.356 . S
N1124 C1116 1.356 . S
N1124 H1130 0.984 . S
N1124 H1131 0.984 . S
N1125 C1118 1.356 . S
N1125 H1128 0.984 . S
N1125 H1129 0.985 . S
H1126 N1121 0.984 . S
H1127 N1121 0.985 . S
H1128 N1125 0.984 . S
H1129 N1125 0.985 . S
H1130 N1124 0.984 . S
H1131 N1124 0.984 . S
H1132 N1120 0.984 . S
H1133 N1120 0.985 . S
C1134 C1135 1.371 . S
C1134 C1140 1.379 . S
C1134 N1142 1.356 . S
C1135 C1134 1.371 . S
C1135 C1141 1.372 . S
C1136 C1137 1.363 . S
C1136 C1141 1.379 . S
C1136 N1143 1.356 . S
C1137 C1136 1.363 . S
C1137 C1140 1.363 . S
N1138 C1140 1.356 . S
N1138 H1150 0.984 . S
N1138 H1151 0.985 . S
N1139 C1141 1.356 1_455 S
N1139 H1144 0.984 . S
N1139 H1145 0.985 . S
C1140 C1134 1.379 . S
C1140 C1137 1.363 . S
C1140 N1138 1.356 . S
C1141 C1135 1.372 . S
C1141 C1136 1.379 . S
C1141 N1139 1.356 1_655 S
N1142 C1134 1.356 . S
N1142 H1148 0.984 . S
N1142 H1149 0.984 1_655 S
N1143 C1136 1.356 . S
N1143 H1146 0.984 . S
N1143 H1147 0.985 . S
H1144 N1139 0.984 . S
H1145 N1139 0.985 . S
H1146 N1143 0.984 . S
H1147 N1143 0.985 . S
H1148 N1142 0.984 . S
H1149 N1142 0.984 1_455 S
H1150 N1138 0.984 . S
H1151 N1138 0.985 . S
C1152 C1153 1.363 . S
C1152 C1158 1.379 . S
C1152 N1160 1.356 . S
C1153 C1152 1.363 . S
C1153 C1159 1.363 . S
C1154 C1155 1.363 . S
C1154 C1159 1.379 . S
C1154 N1161 1.356 . S
C1155 C1154 1.363 . S
C1155 C1158 1.363 . S
N1156 C1158 1.356 . S
N1156 H1168 0.984 . S
N1156 H1169 0.985 . S
N1157 C1159 1.356 . S
N1157 H1162 0.984 . S
N1157 H1163 0.985 . S
C1158 C1152 1.379 . S
C1158 C1155 1.363 . S
C1158 N1156 1.356 . S
C1159 C1153 1.363 . S
C1159 C1154 1.379 . S
C1159 N1157 1.356 . S
N1160 C1152 1.356 . S
N1160 H1166 0.984 . S
N1160 H1167 0.984 . S
N1161 C1154 1.356 . S
N1161 H1164 0.984 . S
N1161 H1165 0.985 . S
H1162 N1157 0.984 . S
H1163 N1157 0.985 . S
H1164 N1161 0.984 . S
H1165 N1161 0.985 . S
H1166 N1160 0.984 . S
H1167 N1160 0.984 . S
H1168 N1156 0.984 . S
H1169 N1156 0.985 . S
C1170 C1171 1.363 . S
C1170 C1176 1.379 . S
C1170 N1178 1.356 1_545 S
C1171 C1170 1.363 . S
C1171 C1177 1.363 . S
C1172 C1173 1.363 . S
C1172 C1177 1.379 . S
C1172 N1179 1.356 . S
C1173 C1172 1.363 . S
C1173 C1176 1.363 . S
N1174 C1176 1.356 . S
N1174 H1186 0.984 . S
N1174 H1187 0.985 . S
N1175 C1177 1.360 . S
N1175 H1180 0.976 1_545 S
N1175 H1181 0.989 . S
C1176 C1170 1.379 . S
C1176 C1173 1.363 . S
C1176 N1174 1.356 . S
C1177 C1171 1.363 . S
C1177 C1172 1.379 . S
C1177 N1175 1.360 . S
N1178 C1170 1.356 1_565 S
N1178 H1184 0.984 . S
N1178 H1185 0.984 . S
N1179 C1172 1.356 . S
N1179 H1182 0.984 . S
N1179 H1183 0.985 . S
H1180 N1175 0.976 1_565 S
H1181 N1175 0.989 . S
H1182 N1179 0.984 . S
H1183 N1179 0.985 . S
H1184 N1178 0.984 . S
H1185 N1178 0.984 . S
H1186 N1174 0.984 . S
H1187 N1174 0.985 . S
C1188 C1189 1.363 . S
C1188 C1194 1.379 . S
C1188 N1196 1.356 . S
C1189 C1188 1.363 . S
C1189 C1195 1.363 . S
C1190 C1191 1.363 . S
C1190 C1195 1.379 . S
C1190 N1197 1.356 . S
C1191 C1190 1.363 . S
C1191 C1194 1.363 . S
N1192 C1194 1.356 . S
N1192 H1204 0.984 . S
N1192 H1205 0.985 . S
N1193 C1195 1.356 . S
N1193 H1198 0.984 . S
N1193 H1199 0.985 . S
C1194 C1188 1.379 . S
C1194 C1191 1.363 . S
C1194 N1192 1.356 . S
C1195 C1189 1.363 . S
C1195 C1190 1.379 . S
C1195 N1193 1.356 . S
N1196 C1188 1.356 . S
N1196 H1202 0.984 . S
N1196 H1203 0.984 . S
N1197 C1190 1.356 . S
N1197 H1200 0.984 . S
N1197 H1201 0.985 . S
H1198 N1193 0.984 . S
H1199 N1193 0.985 . S
H1200 N1197 0.984 . S
H1201 N1197 0.985 . S
H1202 N1196 0.984 . S
H1203 N1196 0.984 . S
H1204 N1192 0.984 . S
H1205 N1192 0.985 . S
C1206 C1207 1.363 . S
C1206 C1212 1.379 . S
C1206 N1214 1.356 . S
C1207 C1206 1.363 . S
C1207 C1213 1.363 . S
C1208 C1209 1.363 . S
C1208 C1213 1.379 . S
C1208 N1215 1.356 . S
C1209 C1208 1.363 . S
C1209 C1212 1.363 . S
N1210 C1212 1.356 . S
N1210 H1222 0.984 . S
N1210 H1223 0.985 . S
N1211 C1213 1.356 . S
N1211 H1216 0.984 . S
N1211 H1217 0.985 . S
C1212 C1206 1.379 . S
C1212 C1209 1.363 . S
C1212 N1210 1.356 . S
C1213 C1207 1.363 . S
C1213 C1208 1.379 . S
C1213 N1211 1.356 . S
N1214 C1206 1.356 . S
N1214 H1220 0.984 . S
N1214 H1221 0.984 . S
N1215 C1208 1.356 . S
N1215 H1218 0.984 . S
N1215 H1219 0.985 . S
H1216 N1211 0.984 . S
H1217 N1211 0.985 . S
H1218 N1215 0.984 . S
H1219 N1215 0.985 . S
H1220 N1214 0.984 . S
H1221 N1214 0.984 . S
H1222 N1210 0.984 . S
H1223 N1210 0.985 . S
C1224 C1225 1.363 . S
C1224 C1230 1.379 . S
C1224 N1232 1.356 . S
C1225 C1224 1.363 . S
C1225 C1231 1.363 . S
C1226 C1227 1.363 . S
C1226 C1231 1.379 . S
C1226 N1233 1.356 . S
C1227 C1226 1.363 . S
C1227 C1230 1.363 . S
N1228 C1230 1.356 . S
N1228 H1240 0.984 . S
N1228 H1241 0.985 . S
N1229 C1231 1.356 . S
N1229 H1234 0.984 . S
N1229 H1235 0.985 . S
C1230 C1224 1.379 . S
C1230 C1227 1.363 . S
C1230 N1228 1.356 . S
C1231 C1225 1.363 . S
C1231 C1226 1.379 . S
C1231 N1229 1.356 . S
N1232 C1224 1.356 . S
N1232 H1238 0.984 . S
N1232 H1239 0.984 . S
N1233 C1226 1.356 . S
N1233 H1236 0.984 . S
N1233 H1237 0.985 . S
H1234 N1229 0.984 . S
H1235 N1229 0.985 . S
H1236 N1233 0.984 . S
H1237 N1233 0.985 . S
H1238 N1232 0.984 . S
H1239 N1232 0.984 . S
H1240 N1228 0.984 . S
H1241 N1228 0.985 . S
C1242 C1243 1.363 . S
C1242 C1248 1.379 . S
C1242 N1250 1.356 . S
C1243 C1242 1.363 . S
C1243 C1249 1.363 . S
C1244 C1245 1.363 . S
C1244 C1249 1.379 . S
C1244 N1251 1.356 . S
C1245 C1244 1.363 . S
C1245 C1248 1.363 . S
N1246 C1248 1.356 . S
N1246 H1258 0.984 1_565 S
N1246 H1259 0.988 . S
N1247 C1249 1.356 . S
N1247 H1252 0.984 . S
N1247 H1253 0.985 . S
C1248 C1242 1.379 . S
C1248 C1245 1.363 . S
C1248 N1246 1.356 . S
C1249 C1243 1.363 . S
C1249 C1244 1.379 . S
C1249 N1247 1.356 . S
N1250 C1242 1.356 . S
N1250 H1256 0.984 . S
N1250 H1257 0.984 . S
N1251 C1244 1.356 . S
N1251 H1254 0.984 . S
N1251 H1255 0.985 . S
H1252 N1247 0.984 . S
H1253 N1247 0.985 . S
H1254 N1251 0.984 . S
H1255 N1251 0.985 . S
H1256 N1250 0.984 . S
H1257 N1250 0.984 . S
H1258 N1246 0.984 1_545 S
H1259 N1246 0.988 . S
C1260 C1261 1.363 . S
C1260 C1266 1.379 . S
C1260 N1268 1.356 . S
C1261 C1260 1.363 . S
C1261 C1267 1.363 . S
C1262 C1263 1.363 . S
C1262 C1267 1.379 . S
C1262 N1269 1.356 . S
C1263 C1262 1.363 . S
C1263 C1266 1.363 . S
N1264 C1266 1.356 . S
N1264 H1276 0.984 . S
N1264 H1277 0.985 . S
N1265 C1267 1.356 . S
N1265 H1270 0.984 . S
N1265 H1271 0.985 . S
C1266 C1260 1.379 . S
C1266 C1263 1.363 . S
C1266 N1264 1.356 . S
C1267 C1261 1.363 . S
C1267 C1262 1.379 . S
C1267 N1265 1.356 . S
N1268 C1260 1.356 . S
N1268 H1274 0.984 . S
N1268 H1275 0.984 . S
N1269 C1262 1.356 . S
N1269 H1272 0.984 . S
N1269 H1273 0.985 . S
H1270 N1265 0.984 . S
H1271 N1265 0.985 . S
H1272 N1269 0.984 . S
H1273 N1269 0.985 . S
H1274 N1268 0.984 . S
H1275 N1268 0.984 . S
H1276 N1264 0.984 . S
H1277 N1264 0.985 . S
C1278 C1279 1.363 . S
C1278 C1284 1.379 . S
C1278 N1286 1.356 . S
C1279 C1278 1.363 . S
C1279 C1285 1.363 . S
C1280 C1281 1.363 . S
C1280 C1285 1.379 . S
C1280 N1287 1.356 . S
C1281 C1280 1.363 . S
C1281 C1284 1.363 . S
N1282 C1284 1.356 . S
N1282 H1294 0.984 . S
N1282 H1295 0.985 . S
N1283 C1285 1.356 . S
N1283 H1288 0.984 . S
N1283 H1289 0.985 . S
C1284 C1278 1.379 . S
C1284 C1281 1.363 . S
C1284 N1282 1.356 . S
C1285 C1279 1.363 . S
C1285 C1280 1.379 . S
C1285 N1283 1.356 . S
N1286 C1278 1.356 . S
N1286 H1292 0.984 . S
N1286 H1293 0.984 . S
N1287 C1280 1.356 . S
N1287 H1290 0.984 . S
N1287 H1291 0.985 . S
H1288 N1283 0.984 . S
H1289 N1283 0.985 . S
H1290 N1287 0.984 . S
H1291 N1287 0.985 . S
H1292 N1286 0.984 . S
H1293 N1286 0.984 . S
H1294 N1282 0.984 . S
H1295 N1282 0.985 . S
C1296 C1297 1.363 . S
C1296 C1302 1.379 . S
C1296 N1304 1.356 1_655 S
C1297 C1296 1.363 . S
C1297 C1303 1.363 . S
C1298 C1299 1.363 . S
C1298 C1303 1.379 . S
C1298 N1305 1.356 . S
C1299 C1298 1.363 . S
C1299 C1302 1.363 . S
N1300 C1302 1.356 1_455 S
N1300 H1312 0.984 . S
N1300 H1313 0.985 1_455 S
N1301 C1303 1.356 . S
N1301 H1306 0.984 . S
N1301 H1307 0.985 . S
C1302 C1296 1.379 . S
C1302 C1299 1.363 . S
C1302 N1300 1.356 1_655 S
C1303 C1297 1.363 . S
C1303 C1298 1.379 . S
C1303 N1301 1.356 . S
N1304 C1296 1.356 1_455 S
N1304 H1310 0.984 . S
N1304 H1311 0.984 . S
N1305 C1298 1.356 . S
N1305 H1308 0.984 . S
N1305 H1309 0.985 . S
H1306 N1301 0.984 . S
H1307 N1301 0.985 . S
H1308 N1305 0.984 . S
H1309 N1305 0.985 . S
H1310 N1304 0.984 . S
H1311 N1304 0.984 . S
H1312 N1300 0.984 . S
H1313 N1300 0.985 1_655 S
C1314 C1315 1.363 . S
C1314 C1320 1.379 . S
C1314 N1322 1.356 . S
C1315 C1314 1.363 . S
C1315 C1321 1.363 . S
C1316 C1317 1.363 . S
C1316 C1321 1.379 . S
C1316 N1323 1.356 . S
C1317 C1316 1.363 . S
C1317 C1320 1.363 . S
N1318 C1320 1.356 . S
N1318 H1330 0.984 . S
N1318 H1331 0.985 . S
N1319 C1321 1.356 . S
N1319 H1324 0.984 . S
N1319 H1325 0.985 . S
C1320 C1314 1.379 . S
C1320 C1317 1.363 . S
C1320 N1318 1.356 . S
C1321 C1315 1.363 . S
C1321 C1316 1.379 . S
C1321 N1319 1.356 . S
N1322 C1314 1.356 . S
N1322 H1328 0.984 . S
N1322 H1329 0.984 . S
N1323 C1316 1.356 . S
N1323 H1326 0.984 . S
N1323 H1327 0.985 . S
H1324 N1319 0.984 . S
H1325 N1319 0.985 . S
H1326 N1323 0.984 . S
H1327 N1323 0.985 . S
H1328 N1322 0.984 . S
H1329 N1322 0.984 . S
H1330 N1318 0.984 . S
H1331 N1318 0.985 . S
C1332 C1333 1.363 . S
C1332 C1338 1.379 . S
C1332 N1340 1.356 . S
C1333 C1332 1.363 . S
C1333 C1339 1.363 . S
C1334 C1335 1.363 . S
C1334 C1339 1.379 . S
C1334 N1341 1.356 . S
C1335 C1334 1.363 . S
C1335 C1338 1.363 . S
N1336 C1338 1.356 . S
N1336 H1348 0.984 . S
N1336 H1349 0.985 . S
N1337 C1339 1.356 . S
N1337 H1342 0.984 . S
N1337 H1343 0.985 . S
C1338 C1332 1.379 . S
C1338 C1335 1.363 . S
C1338 N1336 1.356 . S
C1339 C1333 1.363 . S
C1339 C1334 1.379 . S
C1339 N1337 1.356 . S
N1340 C1332 1.356 . S
N1340 H1346 0.984 . S
N1340 H1347 0.984 . S
N1341 C1334 1.356 . S
N1341 H1344 0.984 . S
N1341 H1345 0.985 . S
H1342 N1337 0.984 . S
H1343 N1337 0.985 . S
H1344 N1341 0.984 . S
H1345 N1341 0.985 . S
H1346 N1340 0.984 . S
H1347 N1340 0.984 . S
H1348 N1336 0.984 . S
H1349 N1336 0.985 . S
C1350 C1351 1.363 . S
C1350 C1356 1.379 . S
C1350 N1358 1.356 . S
C1351 C1350 1.363 . S
C1351 C1357 1.363 . S
C1352 C1353 1.363 . S
C1352 C1357 1.379 . S
C1352 N1359 1.356 . S
C1353 C1352 1.363 . S
C1353 C1356 1.363 . S
N1354 C1356 1.356 . S
N1354 H1366 0.984 . S
N1354 H1367 0.985 . S
N1355 C1357 1.356 . S
N1355 H1360 0.984 . S
N1355 H1361 0.985 . S
C1356 C1350 1.379 . S
C1356 C1353 1.363 . S
C1356 N1354 1.356 . S
C1357 C1351 1.363 . S
C1357 C1352 1.379 . S
C1357 N1355 1.356 . S
N1358 C1350 1.356 . S
N1358 H1364 0.984 . S
N1358 H1365 0.984 . S
N1359 C1352 1.356 . S
N1359 H1362 0.984 . S
N1359 H1363 0.985 . S
H1360 N1355 0.984 . S
H1361 N1355 0.985 . S
H1362 N1359 0.984 . S
H1363 N1359 0.985 . S
H1364 N1358 0.984 . S
H1365 N1358 0.984 . S
H1366 N1354 0.984 . S
H1367 N1354 0.985 . S
C1368 C1369 1.363 . S
C1368 C1374 1.379 . S
C1368 N1376 1.356 . S
C1369 C1368 1.363 . S
C1369 C1375 1.363 . S
C1370 C1371 1.363 . S
C1370 C1375 1.379 . S
C1370 N1377 1.356 . S
C1371 C1370 1.363 . S
C1371 C1374 1.363 . S
N1372 C1374 1.356 . S
N1372 H1384 0.984 . S
N1372 H1385 0.985 . S
N1373 C1375 1.356 . S
N1373 H1378 0.984 . S
N1373 H1379 0.985 . S
C1374 C1368 1.379 . S
C1374 C1371 1.363 . S
C1374 N1372 1.356 . S
C1375 C1369 1.363 . S
C1375 C1370 1.379 . S
C1375 N1373 1.356 . S
N1376 C1368 1.356 . S
N1376 H1382 0.984 . S
N1376 H1383 0.984 . S
N1377 C1370 1.356 . S
N1377 H1380 0.984 . S
N1377 H1381 0.985 . S
H1378 N1373 0.984 . S
H1379 N1373 0.985 . S
H1380 N1377 0.984 . S
H1381 N1377 0.985 . S
H1382 N1376 0.984 . S
H1383 N1376 0.984 . S
H1384 N1372 0.984 . S
H1385 N1372 0.985 . S
C1386 C1387 1.363 . S
C1386 C1392 1.379 . S
C1386 N1394 1.356 . S
C1387 C1386 1.363 . S
C1387 C1393 1.363 . S
C1388 C1389 1.363 . S
C1388 C1393 1.379 . S
C1388 N1395 1.356 . S
C1389 C1388 1.363 . S
C1389 C1392 1.363 . S
N1390 C1392 1.356 . S
N1390 H1402 0.984 . S
N1390 H1403 0.985 . S
N1391 C1393 1.356 . S
N1391 H1396 0.984 . S
N1391 H1397 0.985 . S
C1392 C1386 1.379 . S
C1392 C1389 1.363 . S
C1392 N1390 1.356 . S
C1393 C1387 1.363 . S
C1393 C1388 1.379 . S
C1393 N1391 1.356 . S
N1394 C1386 1.356 . S
N1394 H1400 0.984 . S
N1394 H1401 0.984 . S
N1395 C1388 1.356 . S
N1395 H1398 0.984 . S
N1395 H1399 0.985 . S
H1396 N1391 0.984 . S
H1397 N1391 0.985 . S
H1398 N1395 0.984 . S
H1399 N1395 0.985 . S
H1400 N1394 0.984 . S
H1401 N1394 0.984 . S
H1402 N1390 0.984 . S
H1403 N1390 0.985 . S
C1404 C1405 1.363 . S
C1404 C1410 1.379 . S
C1404 N1412 1.356 . S
C1405 C1404 1.363 . S
C1405 C1411 1.363 . S
C1406 C1407 1.363 . S
C1406 C1411 1.379 . S
C1406 N1413 1.356 . S
C1407 C1406 1.363 . S
C1407 C1410 1.363 . S
N1408 C1410 1.356 . S
N1408 H1420 0.984 . S
N1408 H1421 0.985 . S
N1409 C1411 1.356 . S
N1409 H1414 0.984 . S
N1409 H1415 0.985 . S
C1410 C1404 1.379 . S
C1410 C1407 1.363 . S
C1410 N1408 1.356 . S
C1411 C1405 1.363 . S
C1411 C1406 1.379 . S
C1411 N1409 1.356 . S
N1412 C1404 1.356 . S
N1412 H1418 0.984 . S
N1412 H1419 0.984 . S
N1413 C1406 1.356 . S
N1413 H1416 0.984 . S
N1413 H1417 0.985 . S
H1414 N1409 0.984 . S
H1415 N1409 0.985 . S
H1416 N1413 0.984 . S
H1417 N1413 0.985 . S
H1418 N1412 0.984 . S
H1419 N1412 0.984 . S
H1420 N1408 0.984 . S
H1421 N1408 0.985 . S
C1422 C1423 1.363 . S
C1422 C1428 1.379 . S
C1422 N1430 1.356 . S
C1423 C1422 1.363 . S
C1423 C1429 1.363 . S
C1424 C1425 1.363 . S
C1424 C1429 1.379 . S
C1424 N1431 1.356 . S
C1425 C1424 1.363 . S
C1425 C1428 1.363 . S
N1426 C1428 1.356 . S
N1426 H1438 0.984 . S
N1426 H1439 0.985 . S
N1427 C1429 1.356 . S
N1427 H1432 0.984 . S
N1427 H1433 0.985 . S
C1428 C1422 1.379 . S
C1428 C1425 1.363 . S
C1428 N1426 1.356 . S
C1429 C1423 1.363 . S
C1429 C1424 1.379 . S
C1429 N1427 1.356 . S
N1430 C1422 1.356 . S
N1430 H1436 0.984 . S
N1430 H1437 0.984 . S
N1431 C1424 1.356 . S
N1431 H1434 0.984 . S
N1431 H1435 0.985 . S
H1432 N1427 0.984 . S
H1433 N1427 0.985 . S
H1434 N1431 0.984 . S
H1435 N1431 0.985 . S
H1436 N1430 0.984 . S
H1437 N1430 0.984 . S
H1438 N1426 0.984 . S
H1439 N1426 0.985 . S
C1440 C1441 1.363 . S
C1440 C1446 1.379 . S
C1440 N1448 1.356 . S
C1441 C1440 1.363 . S
C1441 C1447 1.363 . S
C1442 C1443 1.363 . S
C1442 C1447 1.379 . S
C1442 N1449 1.356 . S
C1443 C1442 1.363 . S
C1443 C1446 1.363 . S
N1444 C1446 1.356 . S
N1444 H1456 0.984 . S
N1444 H1457 0.985 . S
N1445 C1447 1.356 . S
N1445 H1450 0.984 . S
N1445 H1451 0.985 . S
C1446 C1440 1.379 . S
C1446 C1443 1.363 . S
C1446 N1444 1.356 . S
C1447 C1441 1.363 . S
C1447 C1442 1.379 . S
C1447 N1445 1.356 . S
N1448 C1440 1.356 . S
N1448 H1454 0.984 . S
N1448 H1455 0.984 . S
N1449 C1442 1.356 . S
N1449 H1452 0.984 . S
N1449 H1453 0.985 . S
H1450 N1445 0.984 . S
H1451 N1445 0.985 . S
H1452 N1449 0.984 . S
H1453 N1449 0.985 . S
H1454 N1448 0.984 . S
H1455 N1448 0.984 . S
H1456 N1444 0.984 . S
H1457 N1444 0.985 . S
C1458 C1459 1.363 . S
C1458 C1464 1.379 . S
C1458 N1466 1.356 . S
C1459 C1458 1.363 . S
C1459 C1465 1.363 . S
C1460 C1461 1.363 . S
C1460 C1465 1.379 . S
C1460 N1467 1.356 . S
C1461 C1460 1.363 . S
C1461 C1464 1.363 . S
N1462 C1464 1.356 . S
N1462 H1474 0.984 . S
N1462 H1475 0.985 . S
N1463 C1465 1.356 . S
N1463 H1468 0.984 . S
N1463 H1469 0.985 . S
C1464 C1458 1.379 . S
C1464 C1461 1.363 . S
C1464 N1462 1.356 . S
C1465 C1459 1.363 . S
C1465 C1460 1.379 . S
C1465 N1463 1.356 . S
N1466 C1458 1.356 . S
N1466 H1472 0.984 . S
N1466 H1473 0.984 . S
N1467 C1460 1.356 . S
N1467 H1470 0.984 . S
N1467 H1471 0.985 . S
H1468 N1463 0.984 . S
H1469 N1463 0.985 . S
H1470 N1467 0.984 . S
H1471 N1467 0.985 . S
H1472 N1466 0.984 . S
H1473 N1466 0.984 . S
H1474 N1462 0.984 . S
H1475 N1462 0.985 . S
C1476 C1477 1.363 . S
C1476 C1482 1.379 . S
C1476 N1484 1.356 . S
C1477 C1476 1.363 . S
C1477 C1483 1.363 . S
C1478 C1479 1.363 . S
C1478 C1483 1.379 . S
C1478 N1485 1.356 . S
C1479 C1478 1.363 . S
C1479 C1482 1.363 . S
N1480 C1482 1.356 . S
N1480 H1492 0.984 . S
N1480 H1493 0.985 . S
N1481 C1483 1.356 . S
N1481 H1486 0.984 . S
N1481 H1487 0.985 . S
C1482 C1476 1.379 . S
C1482 C1479 1.363 . S
C1482 N1480 1.356 . S
C1483 C1477 1.363 . S
C1483 C1478 1.379 . S
C1483 N1481 1.356 . S
N1484 C1476 1.356 . S
N1484 H1490 0.984 . S
N1484 H1491 0.984 . S
N1485 C1478 1.356 . S
N1485 H1488 0.984 . S
N1485 H1489 0.985 . S
H1486 N1481 0.984 . S
H1487 N1481 0.985 . S
H1488 N1485 0.984 . S
H1489 N1485 0.985 . S
H1490 N1484 0.984 . S
H1491 N1484 0.984 . S
H1492 N1480 0.984 . S
H1493 N1480 0.985 . S
C1494 C1495 1.363 . S
C1494 C1500 1.379 . S
C1494 N1502 1.356 . S
C1495 C1494 1.363 . S
C1495 C1501 1.363 . S
C1496 C1497 1.363 . S
C1496 C1501 1.379 . S
C1496 N1503 1.356 . S
C1497 C1496 1.363 . S
C1497 C1500 1.363 . S
N1498 C1500 1.356 . S
N1498 H1510 0.984 . S
N1498 H1511 0.985 . S
N1499 C1501 1.356 . S
N1499 H1504 0.984 . S
N1499 H1505 0.985 . S
C1500 C1494 1.379 . S
C1500 C1497 1.363 . S
C1500 N1498 1.356 . S
C1501 C1495 1.363 . S
C1501 C1496 1.379 . S
C1501 N1499 1.356 . S
N1502 C1494 1.356 . S
N1502 H1508 0.984 . S
N1502 H1509 0.984 . S
N1503 C1496 1.356 . S
N1503 H1506 0.984 . S
N1503 H1507 0.985 . S
H1504 N1499 0.984 . S
H1505 N1499 0.985 . S
H1506 N1503 0.984 . S
H1507 N1503 0.985 . S
H1508 N1502 0.984 . S
H1509 N1502 0.984 . S
H1510 N1498 0.984 . S
H1511 N1498 0.985 . S
C1512 C1513 1.363 . S
C1512 C1518 1.379 . S
C1512 N1520 1.356 . S
C1513 C1512 1.363 . S
C1513 C1519 1.363 . S
C1514 C1515 1.363 . S
C1514 C1519 1.379 . S
C1514 N1521 1.356 . S
C1515 C1514 1.363 . S
C1515 C1518 1.363 . S
N1516 C1518 1.356 . S
N1516 H1528 0.984 . S
N1516 H1529 0.985 . S
N1517 C1519 1.356 . S
N1517 H1522 0.984 . S
N1517 H1523 0.985 . S
C1518 C1512 1.379 . S
C1518 C1515 1.363 . S
C1518 N1516 1.356 . S
C1519 C1513 1.363 . S
C1519 C1514 1.379 . S
C1519 N1517 1.356 . S
N1520 C1512 1.356 . S
N1520 H1526 0.984 . S
N1520 H1527 0.984 . S
N1521 C1514 1.356 . S
N1521 H1524 0.984 . S
N1521 H1525 0.985 . S
H1522 N1517 0.984 . S
H1523 N1517 0.985 . S
H1524 N1521 0.984 . S
H1525 N1521 0.985 . S
H1526 N1520 0.984 . S
H1527 N1520 0.984 . S
H1528 N1516 0.984 . S
H1529 N1516 0.985 . S
C1530 C1531 1.363 . S
C1530 C1536 1.379 . S
C1530 N1538 1.356 . S
C1531 C1530 1.363 . S
C1531 C1537 1.363 . S
C1532 C1533 1.363 . S
C1532 C1537 1.379 . S
C1532 N1539 1.356 . S
C1533 C1532 1.363 . S
C1533 C1536 1.363 . S
N1534 C1536 1.356 . S
N1534 H1546 0.984 . S
N1534 H1547 0.985 . S
N1535 C1537 1.356 . S
N1535 H1540 0.984 . S
N1535 H1541 0.985 . S
C1536 C1530 1.379 . S
C1536 C1533 1.363 . S
C1536 N1534 1.356 . S
C1537 C1531 1.363 . S
C1537 C1532 1.379 . S
C1537 N1535 1.356 . S
N1538 C1530 1.356 . S
N1538 H1544 0.984 . S
N1538 H1545 0.984 . S
N1539 C1532 1.356 . S
N1539 H1542 0.984 . S
N1539 H1543 0.985 . S
H1540 N1535 0.984 . S
H1541 N1535 0.985 . S
H1542 N1539 0.984 . S
H1543 N1539 0.985 . S
H1544 N1538 0.984 . S
H1545 N1538 0.984 . S
H1546 N1534 0.984 . S
H1547 N1534 0.985 . S
C1548 C1549 1.363 . S
C1548 C1554 1.379 . S
C1548 N1556 1.356 . S
C1549 C1548 1.363 . S
C1549 C1555 1.363 . S
C1550 C1551 1.363 . S
C1550 C1555 1.379 . S
C1550 N1557 1.356 . S
C1551 C1550 1.363 . S
C1551 C1554 1.363 . S
N1552 C1554 1.356 . S
N1552 H1564 0.984 . S
N1552 H1565 0.985 . S
N1553 C1555 1.356 . S
N1553 H1558 0.984 . S
N1553 H1559 0.985 . S
C1554 C1548 1.379 . S
C1554 C1551 1.363 . S
C1554 N1552 1.356 . S
C1555 C1549 1.363 . S
C1555 C1550 1.379 . S
C1555 N1553 1.356 . S
N1556 C1548 1.356 . S
N1556 H1562 0.984 . S
N1556 H1563 0.984 . S
N1557 C1550 1.356 . S
N1557 H1560 0.984 . S
N1557 H1561 0.985 . S
H1558 N1553 0.984 . S
H1559 N1553 0.985 . S
H1560 N1557 0.984 . S
H1561 N1557 0.985 . S
H1562 N1556 0.984 . S
H1563 N1556 0.984 . S
H1564 N1552 0.984 . S
H1565 N1552 0.985 . S
C595 C177 1.643 . S
C597 C243 1.641 . S
C613 C190 1.733 . S
C615 C283 1.728 . S
C631 C164 1.584 . S
C633 C322 1.557 . S
C649 C151 1.493 . S
C651 C282 1.463 . S
C669 C323 1.515 . S
C667 C125 1.517 . S
C685 C138 1.406 . S
C687 C242 1.393 1_556 S
C705 C253 1.618 . S
C703 C147 1.645 . S
C723 C293 1.605 . S
C721 C121 1.585 . S
C739 C134 1.607 . S
C741 C332 1.662 1_556 S
C757 C173 1.494 . S
C759 C292 1.528 . S
C775 C186 1.480 . S
C777 C333 1.457 . S
C795 C252 1.533 . S
C793 C160 1.501 . S
C813 C363 1.641 . S
C811 C21 1.643 . S
C829 C34 1.733 . S
C831 C403 1.728 . S
C847 C8 1.584 . S
C849 C442 1.557 . S
C865 C229 1.493 . S
C867 C402 1.453 . S
C883 C203 1.517 . S
C885 C443 1.515 . S
C901 C216 1.406 . S
C903 C362 1.393 . S
C919 C225 1.645 . S
C921 C373 1.618 . S
C937 C199 1.585 . S
C939 C413 1.605 . S
C957 C452 1.662 . S
C955 C212 1.608 . S
C973 C17 1.493 . S
C975 C412 1.527 . S
C993 C453 1.457 . S
C991 C30 1.480 1_455 S
C1009 C4 1.501 . S
C1011 C372 1.533 . S
C1029 C483 1.641 . S
C1027 C99 1.643 . S
C1045 C112 1.733 . S
C1047 C523 1.728 . S
C1065 C562 1.557 . S
C1063 C86 1.584 . S
C1083 C522 1.453 . S
C1081 C73 1.493 . S
C1101 C563 1.515 . S
C1099 C47 1.517 . S
C1117 C60 1.406 . S
C1119 C482 1.393 . S
C1135 C69 1.630 1_655 S
C1137 C493 1.618 . S
C1153 C43 1.585 . S
C1155 C533 1.605 . S
C1173 C572 1.662 . S
C1171 C56 1.608 1_545 S
C1189 C95 1.494 . S
C1191 C532 1.528 . S
C1207 C108 1.480 . S
C1209 C573 1.457 . S
C1225 C82 1.501 . S
C1227 C492 1.533 . S
C1243 C204 1.597 . S
C1245 C239 1.581 . S
C1263 C279 1.887 . S
C1261 C217 1.892 . S
C1279 C230 1.552 . S
C1281 C329 1.570 . S
C1297 C87 1.714 . S
C1299 C289 1.729 . S
C1315 C100 1.672 . S
C1317 C319 1.674 . S
C1335 C249 1.381 . S
C1333 C113 1.373 . S
C1351 C48 1.597 . S
C1353 C359 1.581 . S
C1369 C61 1.892 . S
C1371 C399 1.887 . S
C1387 C74 1.552 . S
C1389 C449 1.570 . S
C1405 C165 1.714 . S
C1407 C409 1.729 . S
C1425 C439 1.674 . S
C1423 C178 1.672 . S
C1441 C191 1.373 . S
C1443 C369 1.381 . S
C1459 C126 1.597 . S
C1461 C479 1.581 . S
C1477 C139 1.892 . S
C1479 C519 1.887 . S
C1497 C569 1.570 . S
C1495 C152 1.552 . S
C1513 C9 1.714 . S
C1515 C529 1.729 . S
C1531 C22 1.672 . S
C1533 C559 1.674 . S
C1549 C35 1.373 . S
C1551 C489 1.381 . S
