# Generated by pormake.
# Topology cml, (3,6)-cn, num edge types: 1
# Building blocks:
#     Node 0, Type 0, BuildingBlock: CUQRIR_clean_linker_1, # of connection points: 3
#     Node 1, Type 0, BuildingBlock: CUQRIR_clean_linker_1, # of connection points: 3
#     Node 2, Type 0, BuildingBlock: CUQRIR_clean_linker_1, # of connection points: 3
#     Node 3, Type 0, BuildingBlock: CUQRIR_clean_linker_1, # of connection points: 3
#     Node 4, Type 0, BuildingBlock: CUQRIR_clean_linker_1, # of connection points: 3
#     Node 5, Type 0, BuildingBlock: CUQRIR_clean_linker_1, # of connection points: 3
#     Node 6, Type 0, BuildingBlock: CUQRIR_clean_linker_1, # of connection points: 3
#     Node 7, Type 0, BuildingBlock: CUQRIR_clean_linker_1, # of connection points: 3
#     Node 8, Type 1, BuildingBlock: IZENUY_clean_sbu_0, # of connection points: 6
#     Node 9, Type 1, BuildingBlock: IZENUY_clean_sbu_0, # of connection points: 6
#     Node 10, Type 1, BuildingBlock: IZENUY_clean_sbu_0, # of connection points: 6
#     Node 11, Type 1, BuildingBlock: IZENUY_clean_sbu_0, # of connection points: 6
#     Edge 12, Type (0, 1), BuildingBlock: XUDNAN_clean_linker_2, # of connection points: 2
#     Edge 13, Type (0, 1), BuildingBlock: XUDNAN_clean_linker_2, # of connection points: 2
#     Edge 14, Type (0, 1), BuildingBlock: XUDNAN_clean_linker_2, # of connection points: 2
#     Edge 15, Type (0, 1), BuildingBlock: XUDNAN_clean_linker_2, # of connection points: 2
#     Edge 16, Type (0, 1), BuildingBlock: XUDNAN_clean_linker_2, # of connection points: 2
#     Edge 17, Type (0, 1), BuildingBlock: XUDNAN_clean_linker_2, # of connection points: 2
#     Edge 18, Type (0, 1), BuildingBlock: XUDNAN_clean_linker_2, # of connection points: 2
#     Edge 19, Type (0, 1), BuildingBlock: XUDNAN_clean_linker_2, # of connection points: 2
#     Edge 20, Type (0, 1), BuildingBlock: XUDNAN_clean_linker_2, # of connection points: 2
#     Edge 21, Type (0, 1), BuildingBlock: XUDNAN_clean_linker_2, # of connection points: 2
#     Edge 22, Type (0, 1), BuildingBlock: XUDNAN_clean_linker_2, # of connection points: 2
#     Edge 23, Type (0, 1), BuildingBlock: XUDNAN_clean_linker_2, # of connection points: 2
#     Edge 24, Type (0, 1), BuildingBlock: XUDNAN_clean_linker_2, # of connection points: 2
#     Edge 25, Type (0, 1), BuildingBlock: XUDNAN_clean_linker_2, # of connection points: 2
#     Edge 26, Type (0, 1), BuildingBlock: XUDNAN_clean_linker_2, # of connection points: 2
#     Edge 27, Type (0, 1), BuildingBlock: XUDNAN_clean_linker_2, # of connection points: 2
#     Edge 28, Type (0, 1), BuildingBlock: XUDNAN_clean_linker_2, # of connection points: 2
#     Edge 29, Type (0, 1), BuildingBlock: XUDNAN_clean_linker_2, # of connection points: 2
#     Edge 30, Type (0, 1), BuildingBlock: XUDNAN_clean_linker_2, # of connection points: 2
#     Edge 31, Type (0, 1), BuildingBlock: XUDNAN_clean_linker_2, # of connection points: 2
#     Edge 32, Type (0, 1), BuildingBlock: XUDNAN_clean_linker_2, # of connection points: 2
#     Edge 33, Type (0, 1), BuildingBlock: XUDNAN_clean_linker_2, # of connection points: 2
#     Edge 34, Type (0, 1), BuildingBlock: XUDNAN_clean_linker_2, # of connection points: 2
#     Edge 35, Type (0, 1), BuildingBlock: XUDNAN_clean_linker_2, # of connection points: 2
# Relax obj value: 0.001
# Max RMSD: 0.077
# Mean RMSD: 0.057
data_MOF--net-cml--node1-IZENUY_clean_sbu_0--node2-CUQRIR_clean_linker_1--edge1-XUDNAN_clean_linker_2
_symmetry_space_group_name_H-M    P1
_symmetry_Int_Tables_number       1
_symmetry_cell_setting            triclinic
loop_
_symmetry_equiv_pos_as_xyz
'x, y, z'
_cell_length_a     34.402888
_cell_length_b     38.214896
_cell_length_c     32.720853
_cell_angle_alpha  89.886731
_cell_angle_beta   89.862095
_cell_angle_gamma 90.321936
loop_
_atom_site_label
_atom_site_type_symbol
_atom_site_fract_x
_atom_site_fract_y
_atom_site_fract_z
_atom_type_partial_charge
C0 C 0.26132 0.35042 0.04748 0.0
N1 N 0.2883 0.37628 0.04914 0.0
N2 N 0.24864 0.34587 1.00868 0.0
C3 C 0.24625 0.33034 0.08385 0.0
C4 C 0.26877 0.37007 0.98679 0.0
N5 N 0.2926 0.38881 1.01147 0.0
C6 C 0.26794 0.37283 0.94092 0.0
H7 H 0.26497 0.30724 0.08917 0.0
H8 H 0.21612 0.32097 0.07837 0.0
H9 H 0.24684 0.34685 0.1117 0.0
H10 H 0.2417 0.38762 0.93177 0.0
H11 H 0.26597 0.34643 0.92701 0.0
H12 H 0.29396 0.38662 0.92874 0.0
C13 C 0.77094 0.6725 0.54702 0.0
N14 N 0.74064 0.65013 0.55234 0.0
N15 N 0.78599 0.67013 0.50885 0.0
C16 C 0.78512 0.69816 0.57857 0.0
C17 C 0.76435 0.64444 0.49137 0.0
N18 N 0.73715 0.63199 0.51787 0.0
C19 C 0.76525 0.63574 0.44659 0.0
H20 H 0.77082 0.72379 0.57389 0.0
H21 H 0.81695 0.70225 0.57531 0.0
H22 H 0.77836 0.68869 0.6099 0.0
H23 H 0.79113 0.64718 0.43122 0.0
H24 H 0.73857 0.64597 0.43191 0.0
H25 H 0.76535 0.60694 0.44246 0.0
C26 C 0.75587 0.35722 0.04747 0.0
N27 N 0.73086 0.38455 0.04739 0.0
N28 N 0.77239 0.35322 1.01015 0.0
C29 C 0.76157 0.33263 0.0828 0.0
C30 C 0.75648 0.37917 0.98759 0.0
N31 N 0.73113 0.39822 1.00999 0.0
C32 C 0.76431 0.38481 0.94279 0.0
H33 H 0.79076 0.32053 0.08166 0.0
H34 H 0.73943 0.31146 0.08109 0.0
H35 H 0.75787 0.34652 0.1123 0.0
H36 H 0.74358 0.36888 0.92463 0.0
H37 H 0.79426 0.37652 0.93486 0.0
H38 H 0.76035 0.41274 0.93448 0.0
C39 C 0.26212 0.67758 0.54112 0.0
N40 N 0.28293 0.64796 0.54653 0.0
N41 N 0.24996 0.68023 0.50187 0.0
C42 C 0.25537 0.70481 0.57345 0.0
C43 C 0.26432 0.65122 0.48366 0.0
N44 N 0.28463 0.63174 0.51068 0.0
C45 C 0.25664 0.64095 0.44002 0.0
H46 H 0.22605 0.70069 0.58685 0.0
H47 H 0.25635 0.73143 0.55986 0.0
H48 H 0.27709 0.70302 0.59834 0.0
H49 H 0.27995 0.65186 0.42019 0.0
H50 H 0.22837 0.65147 0.42949 0.0
H51 H 0.25651 0.61206 0.43667 0.0
C52 C 0.77415 0.83548 0.03516 0.0
N53 N 0.80232 0.86046 0.03646 0.0
N54 N 0.7529 0.83859 1.00048 0.0
C55 C 0.76658 0.8088 0.06816 0.0
C56 C 0.76937 0.86606 0.98062 0.0
N57 N 0.79949 0.87917 1.00228 0.0
C58 C 0.7546 0.88138 0.94123 0.0
H59 H 0.79404 0.80137 0.08353 0.0
H60 H 0.7525 0.78495 0.05586 0.0
H61 H 0.74674 0.82026 0.09124 0.0
H62 H 0.73662 0.86219 0.92416 0.0
H63 H 0.77905 0.89003 0.92149 0.0
H64 H 0.73666 0.90465 0.94828 0.0
C65 C 0.2628 0.17478 0.54745 0.0
N66 N 0.23332 0.15129 0.55078 0.0
N67 N 0.27884 0.17432 0.50958 0.0
C68 C 0.2749 0.1996 0.5808 0.0
C69 C 0.25852 0.14877 0.49016 0.0
N70 N 0.23116 0.1346 0.51526 0.0
C71 C 0.2605 0.1421 0.44495 0.0
H72 H 0.25798 0.22413 0.57838 0.0
H73 H 0.30621 0.20632 0.57779 0.0
H74 H 0.26925 0.18784 0.6113 0.0
H75 H 0.25527 0.114 0.43838 0.0
H76 H 0.28906 0.15007 0.43212 0.0
H77 H 0.23742 0.15742 0.4296 0.0
C78 C 0.24991 0.8502 0.03722 0.0
N79 N 0.22501 0.8776 0.03772 0.0
N80 N 0.26322 0.84442 0.99882 0.0
C81 C 0.258 0.82699 0.07331 0.0
C82 C 0.24544 0.86932 0.97619 0.0
N83 N 0.22205 0.88943 0.99964 0.0
C84 C 0.25022 0.87344 0.93071 0.0
H85 H 0.28749 0.81559 0.07129 0.0
H86 H 0.23655 0.8052 0.0736 0.0
H87 H 0.25519 0.84172 0.10235 0.0
H88 H 0.22829 0.857 0.91488 0.0
H89 H 0.27956 0.86481 0.92093 0.0
H90 H 0.24576 0.90109 0.92147 0.0
C91 C 0.77087 0.18449 0.53039 0.0
N92 N 0.79906 0.16043 0.53615 0.0
N93 N 0.76178 0.18705 0.4902 0.0
C94 C 0.75078 0.20413 0.5641 0.0
C95 C 0.78586 0.16382 0.47184 0.0
N96 N 0.80849 0.14757 0.49979 0.0
C97 C 0.78602 0.1557 0.42678 0.0
H98 H 0.71914 0.20588 0.55791 0.0
H99 H 0.7627 0.23114 0.56529 0.0
H100 H 0.7553 0.19166 0.59431 0.0
H101 H 0.77093 0.17613 0.40881 0.0
H102 H 0.77161 0.13002 0.42173 0.0
H103 H 0.81616 0.15385 0.41511 0.0
Fe104 Fe 0.01415 0.86134 0.32788 0.0
Fe105 Fe 0.01325 0.90112 0.40949 0.0
O106 O 0.01232 0.90132 0.3553 0.0
Fe107 Fe 0.00959 0.94152 0.32829 0.0
O108 O 0.98295 0.92336 0.28453 0.0
O109 O 0.96784 0.86978 0.30298 0.0
O110 O 0.98708 0.83535 0.36635 0.0
C111 C 0.96469 0.84532 0.39475 0.0
C112 C 0.06242 0.90713 0.28101 0.0
O113 O 0.96963 0.8745 0.4118 0.0
C114 C 0.05804 0.95898 0.39581 0.0
O115 O 0.06055 0.8505 0.35019 0.0
O116 O 0.0452 0.86272 0.41386 0.0
O117 O 0.05596 0.93356 0.30316 0.0
O118 O 0.0417 0.87972 0.28453 0.0
C119 C 0.95792 0.95344 0.39008 0.0
O120 O 0.0568 0.92868 0.41128 0.0
O121 O 0.0356 0.96717 0.36681 0.0
C122 C 0.06767 0.84884 0.38787 0.0
O123 O 0.98123 0.939 0.41472 0.0
O124 O 0.96325 0.95224 0.35185 0.0
C125 C 0.96251 0.89598 0.28021 0.0
Fe126 Fe 1.00537 0.12781 0.91239 0.0
Fe127 Fe 1.00249 0.09129 0.82884 0.0
O128 O 1.00438 0.13008 0.85833 0.0
Fe129 Fe 1.00498 0.17147 0.83396 0.0
O130 O 0.03506 0.19314 0.87354 0.0
O131 O 0.05178 0.14979 0.91379 0.0
O132 O 0.03235 0.08631 0.91452 0.0
C133 C 0.05276 0.07051 0.88817 0.0
C134 C 0.95477 0.18424 0.89667 0.0
O135 O 0.04741 0.07536 0.85048 0.0
C136 C 0.95263 0.13194 0.78506 0.0
O137 O 0.95912 0.10524 0.91402 0.0
O138 O 0.97304 0.06651 0.86656 0.0
O139 O 0.95991 0.18351 0.85858 0.0
O140 O 0.97822 0.16896 0.92054 0.0
C141 C 0.05352 0.13631 0.78312 0.0
O142 O 0.95711 0.10419 0.80531 0.0
O143 O 0.97557 0.15767 0.78971 0.0
C144 C 0.9524 0.07642 0.89662 0.0
O145 O 0.03173 0.10938 0.78577 0.0
O146 O 0.04962 0.16151 0.80759 0.0
C147 C 0.05837 0.17968 0.89907 0.0
Fe148 Fe 0.50845 0.36506 0.32887 0.0
Fe149 Fe 0.51428 0.40092 0.4134 0.0
O150 O 0.51049 0.40365 0.35932 0.0
Fe151 Fe 0.50831 0.44537 0.3354 0.0
O152 O 0.47871 0.4312 0.29205 0.0
O153 O 0.46205 0.37717 0.30657 0.0
O154 O 0.48083 0.33864 0.36641 0.0
C155 C 0.4618 0.34765 0.3978 0.0
C156 C 0.55789 0.41139 0.28371 0.0
O157 O 0.46998 0.37528 0.4169 0.0
C158 C 0.56026 0.45824 0.40139 0.0
O159 O 0.55429 0.34948 0.3483 0.0
O160 O 0.54498 0.36174 0.41338 0.0
O161 O 0.553 0.43709 0.30747 0.0
O162 O 0.53603 0.38453 0.28599 0.0
C163 C 0.45944 0.45497 0.40035 0.0
O164 O 0.55885 0.42723 0.41466 0.0
O165 O 0.53691 0.46822 0.3741 0.0
C166 C 0.56325 0.34596 0.38537 0.0
O167 O 0.48359 0.43917 0.4229 0.0
O168 O 0.46354 0.45607 0.36197 0.0
C169 C 0.45617 0.40533 0.28751 0.0
Fe170 Fe 0.50648 0.62549 0.90883 0.0
Fe171 Fe 0.512 0.58815 0.82582 0.0
O172 O 0.50603 0.62689 0.85464 0.0
Fe173 Fe 0.49923 0.66732 0.82935 0.0
O174 O 0.52331 0.69367 0.86905 0.0
O175 O 0.54822 0.65478 0.91083 0.0
O176 O 0.54075 0.58868 0.91222 0.0
C177 C 0.56396 0.57534 0.88655 0.0
C178 C 0.44653 0.67377 0.89101 0.0
O179 O 0.5589 0.57963 0.84869 0.0
C180 C 0.45586 0.62024 0.78059 0.0
O181 O 0.4649 0.59586 0.9102 0.0
O182 O 0.48732 0.55984 0.86336 0.0
O183 O 0.45194 0.67263 0.85292 0.0
O184 O 0.47184 0.66196 0.91549 0.0
C185 C 0.55548 0.6392 0.78089 0.0
O186 O 0.46509 0.59362 0.80112 0.0
O187 O 0.4741 0.6488 0.78487 0.0
C188 C 0.4644 0.56644 0.89269 0.0
O189 O 0.53832 0.60974 0.78322 0.0
O190 O 0.54586 0.66412 0.80405 0.0
C191 C 0.54811 0.68518 0.8958 0.0
H192 H 0.18316 0.34918 0.96259 0.0
H193 H 0.2638 0.27766 0.01967 0.0
H194 H 0.22489 0.22735 0.99521 0.0
H195 H 0.09665 0.30066 0.98516 0.0
H196 H 0.07308 0.31 0.93726 0.0
H197 H 0.10799 0.34047 0.95786 0.0
H198 H 0.14794 0.33733 0.89075 0.0
H199 H 0.1131 0.30686 0.86992 0.0
H200 H 0.16381 0.2954 0.87211 0.0
H201 H 0.17664 0.18543 0.96761 0.0
H202 H 0.12151 0.15326 0.93781 0.0
H203 H 0.07145 0.25123 0.89647 0.0
C204 C 0.19254 0.32283 0.9695 0.0
C205 C 0.22608 0.31699 0.99328 0.0
C206 C 0.23776 0.28238 1.00204 0.0
C207 C 0.21603 0.25378 0.98806 0.0
C208 C 0.18283 0.26029 0.96508 0.0
C209 C 0.17108 0.29388 0.95566 0.0
C210 C 0.13364 0.29334 0.93119 0.0
C211 C 0.10091 0.31223 0.95425 0.0
C212 C 0.14002 0.30917 0.88845 0.0
C213 C 0.126 0.25424 0.92886 0.0
C214 C 0.15491 0.23579 0.94855 0.0
C215 C 0.15392 0.19952 0.95188 0.0
C216 C 0.12236 0.18151 0.93495 0.0
C217 C 0.09212 0.1997 0.9148 0.0
C218 C 0.09427 0.23658 0.91135 0.0
H219 H 0.85835 0.66983 0.47426 0.0
H220 H 0.75757 0.73432 0.49691 0.0
H221 H 0.79183 0.78556 0.46754 0.0
H222 H 0.93016 0.73351 0.49811 0.0
H223 H 0.96357 0.72167 0.458 0.0
H224 H 0.93071 0.68936 0.4788 0.0
H225 H 0.9039 0.67678 0.40639 0.0
H226 H 0.93688 0.70894 0.3853 0.0
H227 H 0.88542 0.71236 0.37597 0.0
H228 H 0.83829 0.83051 0.44271 0.0
H229 H 0.89296 0.86654 0.41724 0.0
H230 H 0.96356 0.77342 0.405 0.0
C231 C 0.84358 0.69471 0.47231 0.0
C232 C 0.80552 0.69849 0.488 0.0
C233 C 0.78684 0.73128 0.48525 0.0
C234 C 0.80603 0.76038 0.4686 0.0
C235 C 0.8438 0.75617 0.45416 0.0
C236 C 0.86231 0.72414 0.45516 0.0
C237 C 0.90325 0.7273 0.43785 0.0
C238 C 0.93371 0.71737 0.47012 0.0
C239 C 0.90761 0.70502 0.39907 0.0
C240 C 0.90498 0.76617 0.4279 0.0
C241 C 0.87032 0.78221 0.43783 0.0
C242 C 0.86537 0.81822 0.43414 0.0
C243 C 0.89661 0.83848 0.41984 0.0
C244 C 0.93223 0.82272 0.4088 0.0
C245 C 0.93635 0.78601 0.41253 0.0
H246 H 0.84565 0.33125 0.02778 0.0
H247 H 0.7433 0.30749 0.95616 0.0
H248 H 0.77815 0.25915 0.92213 0.0
H249 H 0.91505 0.31595 0.95087 0.0
H250 H 0.95059 0.29555 0.9834 0.0
H251 H 0.91695 0.32663 1.00448 0.0
H252 H 0.89402 0.28078 0.05785 0.0
H253 H 0.92782 0.24958 0.03709 0.0
H254 H 0.87691 0.2386 0.04083 0.0
H255 H 0.82556 0.21861 0.8906 0.0
H256 H 0.88165 0.18401 0.86696 0.0
H257 H 0.95321 0.22994 0.96191 0.0
C258 C 0.83057 0.31523 1.00558 0.0
C259 C 0.79192 0.32287 0.99432 0.0
C260 C 0.77298 0.30191 0.96481 0.0
C261 C 0.7925 0.27446 0.9455 0.0
C262 C 0.83087 0.26794 0.95652 0.0
C263 C 0.84964 0.28729 0.98628 0.0
C264 C 0.89137 0.27521 0.99133 0.0
C265 C 0.92018 0.30512 0.98195 0.0
C266 C 0.89791 0.26014 0.03433 0.0
C267 C 0.89331 0.24675 0.95903 0.0
C268 C 0.85801 0.24317 0.93932 0.0
C269 C 0.85313 0.22064 0.9063 0.0
C270 C 0.88514 0.20123 0.89298 0.0
C271 C 0.92143 0.20403 0.91296 0.0
C272 C 0.92547 0.2268 0.94673 0.0
H273 H 0.18136 0.70934 0.52449 0.0
H274 H 0.27451 0.71581 0.43554 0.0
H275 H 0.23908 0.76204 0.3983 0.0
H276 H 0.10345 0.72099 0.45619 0.0
H277 H 0.07468 0.74776 0.48984 0.0
H278 H 0.10823 0.71656 0.51081 0.0
H279 H 0.14208 0.76586 0.55199 0.0
H280 H 0.10846 0.79723 0.53129 0.0
H281 H 0.16007 0.80415 0.52562 0.0
H282 H 0.1914 0.80317 0.36766 0.0
H283 H 0.13588 0.83994 0.34738 0.0
H284 H 0.0748 0.8102 0.45842 0.0
C285 C 0.19443 0.72107 0.4976 0.0
C286 C 0.23039 0.70898 0.48247 0.0
C287 C 0.24665 0.72447 0.44701 0.0
C288 C 0.22689 0.75082 0.42592 0.0
C289 C 0.19112 0.76174 0.4411 0.0
C290 C 0.17518 0.74773 0.47638 0.0
C291 C 0.13584 0.7637 0.48545 0.0
C292 C 0.10366 0.73558 0.48556 0.0
C293 C 0.13668 0.78394 0.526 0.0
C294 C 0.13185 0.78829 0.44928 0.0
C295 C 0.1641 0.78665 0.42409 0.0
C296 C 0.16625 0.80513 0.38742 0.0
C297 C 0.13455 0.82581 0.37609 0.0
C298 C 0.10132 0.82812 0.40152 0.0
C299 C 0.10019 0.8094 0.43881 0.0
H300 H 0.74412 0.76945 0.9839 0.0
H301 H 0.68252 0.86764 0.99162 0.0
H302 H 0.62246 0.83855 0.96705 0.0
H303 H 0.69951 0.73747 0.89431 0.0
H304 H 0.69647 0.69254 0.91094 0.0
H305 H 0.73418 0.72068 0.93053 0.0
H306 H 0.71194 0.7072 1.00464 0.0
H307 H 0.67433 0.67876 0.98527 0.0
H308 H 0.66197 0.71429 0.01896 0.0
H309 H 0.57137 0.80017 0.93637 0.0
H310 H 0.52996 0.75362 0.90707 0.0
H311 H 0.62279 0.67865 0.92417 0.0
C312 C 0.71765 0.78445 0.98121 0.0
C313 C 0.71753 0.82064 0.98971 0.0
C314 C 0.68282 0.83987 0.98514 0.0
C315 C 0.64875 0.82358 0.9713 0.0
C316 C 0.64983 0.7879 0.96274 0.0
C317 C 0.68316 0.76839 0.96807 0.0
C318 C 0.6764 0.73046 0.95635 0.0
C319 C 0.70323 0.71967 0.92093 0.0
C320 C 0.68146 0.70625 0.99352 0.0
C321 C 0.63429 0.73187 0.94291 0.0
C322 C 0.61967 0.76534 0.9466 0.0
C323 C 0.58226 0.77375 0.93388 0.0
C324 C 0.55907 0.74721 0.91708 0.0
C325 C 0.57316 0.7126 0.91367 0.0
C326 C 0.61117 0.70482 0.92704 0.0
H327 H 0.3497 0.17316 0.47158 0.0
H328 H 0.25414 0.24066 0.50502 0.0
H329 H 0.29019 0.29194 0.47835 0.0
H330 H 0.42689 0.23197 0.49541 0.0
H331 H 0.45693 0.22087 0.45217 0.0
H332 H 0.42343 0.18905 0.47289 0.0
H333 H 0.39149 0.18192 0.40178 0.0
H334 H 0.42505 0.21362 0.38079 0.0
H335 H 0.37342 0.21998 0.37549 0.0
H336 H 0.3381 0.33615 0.45416 0.0
H337 H 0.39317 0.37092 0.42723 0.0
H338 H 0.45679 0.27548 0.40293 0.0
C339 C 0.33643 0.19875 0.4727 0.0
C340 C 0.29944 0.20324 0.49086 0.0
C341 C 0.28274 0.23698 0.4919 0.0
C342 C 0.30291 0.26614 0.47666 0.0
C343 C 0.33958 0.2611 0.45967 0.0
C344 C 0.35605 0.22826 0.45689 0.0
C345 C 0.39595 0.23049 0.43691 0.0
C346 C 0.42767 0.21731 0.46609 0.0
C347 C 0.3965 0.2103 0.39633 0.0
C348 C 0.39952 0.26972 0.42976 0.0
C349 C 0.36665 0.28676 0.44344 0.0
C350 C 0.36374 0.3231 0.44271 0.0
C351 C 0.3952 0.34263 0.42753 0.0
C352 C 0.42895 0.32587 0.41264 0.0
C353 C 0.43099 0.28888 0.41344 0.0
H354 H 0.33703 0.82376 0.01566 0.0
H355 H 0.23389 0.79696 0.94674 0.0
H356 H 0.26876 0.74778 0.91435 0.0
H357 H 0.40571 0.80602 0.93874 0.0
H358 H 0.44161 0.78704 0.972 0.0
H359 H 0.40799 0.81878 0.9917 0.0
H360 H 0.38575 0.77494 0.04765 0.0
H361 H 0.41951 0.74309 0.02823 0.0
H362 H 0.36868 0.73208 0.03303 0.0
H363 H 0.31642 0.7061 0.88422 0.0
H364 H 0.37284 0.6711 0.86185 0.0
H365 H 0.44435 0.7211 0.95397 0.0
C366 C 0.32176 0.80694 0.99442 0.0
C367 C 0.2829 0.81396 0.98345 0.0
C368 C 0.26378 0.79196 0.9551 0.0
C369 C 0.28328 0.76398 0.93677 0.0
C370 C 0.32181 0.758 0.94762 0.0
C371 C 0.34076 0.77849 0.9762 0.0
C372 C 0.38255 0.7668 0.98152 0.0
C373 C 0.41114 0.79642 0.97031 0.0
C374 C 0.38952 0.75343 0.02521 0.0
C375 C 0.38432 0.73716 0.95076 0.0
C376 C 0.34893 0.73265 0.93148 0.0
C377 C 0.34405 0.70885 0.89966 0.0
C378 C 0.3762 0.68918 0.88708 0.0
C379 C 0.41256 0.69303 0.90668 0.0
C380 C 0.41653 0.71704 0.93924 0.0
H381 H 0.74385 0.25607 0.49775 0.0
H382 H 0.7055 0.15853 0.4435 0.0
H383 H 0.65175 0.18935 0.40916 0.0
H384 H 0.6454 0.28722 0.51878 0.0
H385 H 0.65762 0.33242 0.50911 0.0
H386 H 0.69408 0.30292 0.52809 0.0
H387 H 0.73854 0.31883 0.46672 0.0
H388 H 0.70208 0.34813 0.44737 0.0
H389 H 0.72044 0.31355 0.41543 0.0
H390 H 0.60545 0.23098 0.37723 0.0
H391 H 0.56257 0.27966 0.35709 0.0
H392 H 0.62496 0.34939 0.43857 0.0
C393 C 0.72387 0.24129 0.4789 0.0
C394 C 0.72933 0.20513 0.47224 0.0
C395 C 0.70248 0.18646 0.44775 0.0
C396 C 0.6718 0.20368 0.42839 0.0
C397 C 0.66767 0.23946 0.43483 0.0
C398 C 0.69235 0.25798 0.4602 0.0
C399 C 0.68008 0.29598 0.46333 0.0
C400 C 0.6686 0.30517 0.50745 0.0
C401 C 0.71221 0.32057 0.44725 0.0
C402 C 0.64502 0.29592 0.43529 0.0
C403 C 0.63887 0.2631 0.41873 0.0
C404 C 0.6096 0.25669 0.39036 0.0
C405 C 0.5856 0.28448 0.37893 0.0
C406 C 0.59053 0.31801 0.39645 0.0
C407 C 0.62051 0.32382 0.42509 0.0
H408 H 0.28555 0.4548 0.98239 0.0
H409 H 0.36856 0.37383 1.01087 0.0
H410 H 0.42214 0.41136 0.9845 0.0
H411 H 0.32926 0.48464 0.8898 0.0
H412 H 0.31971 0.53036 0.89846 0.0
H413 H 0.28815 0.49756 0.92041 0.0
H414 H 0.29969 0.52345 0.99251 0.0
H415 H 0.33117 0.55647 0.97078 0.0
H416 H 0.34869 0.5285 1.01109 0.0
H417 H 0.4651 0.45523 0.95007 0.0
H418 H 0.49684 0.50552 0.91585 0.0
H419 H 0.38717 0.56087 0.91425 0.0
C420 C 0.31516 0.4454 0.98324 0.0
C421 C 0.32347 0.41171 0.9984 0.0
C422 C 0.36219 0.39975 0.99934 0.0
C423 C 0.39255 0.4208 0.98441 0.0
C424 C 0.38353 0.45388 0.96921 0.0
C425 C 0.34591 0.46641 0.96906 0.0
C426 C 0.34434 0.50306 0.95124 0.0
C427 C 0.31885 0.50394 0.91269 0.0
C428 C 0.33013 0.52943 0.98332 0.0
C429 C 0.38686 0.50896 0.94082 0.0
C430 C 0.4088 0.48004 0.95112 0.0
C431 C 0.44836 0.47821 0.94239 0.0
C432 C 0.46606 0.50675 0.92279 0.0
C433 C 0.44438 0.53691 0.91276 0.0
C434 C 0.40435 0.53818 0.92214 0.0
H435 H 0.74043 0.56317 0.49873 0.0
H436 H 0.66204 0.6506 0.5117 0.0
H437 H 0.60722 0.61336 0.4887 0.0
H438 H 0.7003 0.52985 0.40777 0.0
H439 H 0.70613 0.48428 0.42056 0.0
H440 H 0.73841 0.51654 0.44207 0.0
H441 H 0.72056 0.49534 0.51499 0.0
H442 H 0.68823 0.4629 0.49371 0.0
H443 H 0.67026 0.49393 0.53052 0.0
H444 H 0.56305 0.56928 0.45838 0.0
H445 H 0.5304 0.52017 0.42392 0.0
H446 H 0.63619 0.45913 0.43068 0.0
C447 C 0.71148 0.57404 0.49727 0.0
C448 C 0.70499 0.60945 0.50744 0.0
C449 C 0.66713 0.62332 0.50476 0.0
C450 C 0.63601 0.6024 0.49162 0.0
C451 C 0.64333 0.56764 0.48136 0.0
C452 C 0.68002 0.55337 0.48424 0.0
C453 C 0.68012 0.51571 0.46929 0.0
C454 C 0.70788 0.51135 0.43275 0.0
C455 C 0.6904 0.49048 0.50422 0.0
C456 C 0.63796 0.51137 0.45647 0.0
C457 C 0.6174 0.54172 0.46401 0.0
C458 C 0.57868 0.54526 0.4528 0.0
C459 C 0.56048 0.51725 0.43302 0.0
C460 C 0.58077 0.48586 0.4247 0.0
C461 C 0.61991 0.48265 0.43719 0.0
H462 H 0.71813 0.46812 0.02105 0.0
H463 H 0.67618 0.37551 0.95879 0.0
H464 H 0.62976 0.41151 0.9197 0.0
H465 H 0.6201 0.50926 0.02923 0.0
H466 H 0.63941 0.55287 0.02267 0.0
H467 H 0.66853 0.51955 0.04655 0.0
H468 H 0.72298 0.53112 0.99335 0.0
H469 H 0.69373 0.56392 0.96878 0.0
H470 H 0.7121 0.52758 0.93963 0.0
H471 H 0.5943 0.45747 0.88205 0.0
H472 H 0.56133 0.51009 0.85606 0.0
H473 H 0.61914 0.57329 0.94788 0.0
C474 C 0.6983 0.45545 1.00013 0.0
C475 C 0.70055 0.41911 0.99269 0.0
C476 C 0.67478 0.40338 0.96449 0.0
C477 C 0.6485 0.42359 0.94221 0.0
C478 C 0.64766 0.45947 0.94926 0.0
C479 C 0.67095 0.47525 0.97832 0.0
C480 C 0.6633 0.51436 0.98015 0.0
C481 C 0.64685 0.52462 0.02215 0.0
C482 C 0.70023 0.53548 0.96986 0.0
C483 C 0.6329 0.51806 0.94681 0.0
C484 C 0.62491 0.48601 0.9291 0.0
C485 C 0.59979 0.48265 0.89605 0.0
C486 C 0.58157 0.5127 0.88122 0.0
C487 C 0.58792 0.5456 0.89987 0.0
C488 C 0.61388 0.54836 0.93316 0.0
H489 H 0.3399 0.62721 0.4523 0.0
H490 H 0.28051 0.56788 0.5466 0.0
H491 H 0.31937 0.51566 0.52899 0.0
H492 H 0.33988 0.55767 0.37856 0.0
H493 H 0.38666 0.5693 0.35746 0.0
H494 H 0.35637 0.60252 0.37977 0.0
H495 H 0.41222 0.62017 0.42878 0.0
H496 H 0.44275 0.58714 0.4065 0.0
H497 H 0.43407 0.58732 0.46084 0.0
H498 H 0.36577 0.47051 0.50143 0.0
H499 H 0.41405 0.4348 0.46412 0.0
H500 H 0.43759 0.52195 0.3826 0.0
C501 C 0.33517 0.60315 0.46913 0.0
C502 C 0.30787 0.60156 0.50133 0.0
C503 C 0.30227 0.56982 0.52283 0.0
C504 C 0.32385 0.54 0.51265 0.0
C505 C 0.35032 0.54236 0.4804 0.0
C506 C 0.3558 0.57306 0.45873 0.0
C507 C 0.38484 0.56839 0.42436 0.0
C508 C 0.36579 0.57485 0.38256 0.0
C509 C 0.42058 0.59216 0.43051 0.0
C510 C 0.395 0.53022 0.43008 0.0
C511 C 0.37509 0.51578 0.46286 0.0
C512 C 0.38116 0.4814 0.47543 0.0
C513 C 0.40853 0.46136 0.45413 0.0
C514 C 0.42883 0.47558 0.42024 0.0
C515 C 0.42168 0.5103 0.40783 0.0
H516 H 0.85048 0.89113 0.94077 0.0
H517 H 0.79415 0.9391 0.04462 0.0
H518 H 0.82592 0.99588 0.02779 0.0
H519 H 0.94205 0.93836 0.95004 0.0
H520 H 0.9492 0.94198 0.8956 0.0
H521 H 0.92235 0.90545 0.91643 0.0
H522 H 0.8639 0.92077 0.87 0.0
H523 H 0.89043 0.95754 0.84927 0.0
H524 H 0.84335 0.96402 0.87225 0.0
H525 H 0.86199 0.04733 0.99806 0.0
H526 H 0.90395 0.08936 0.9613 0.0
H527 H 0.93784 1.00751 0.87662 0.0
C528 C 0.84508 0.91374 0.95979 0.0
C529 C 0.81988 0.91131 0.99373 0.0
C530 C 0.81348 0.94092 0.01853 0.0
C531 C 0.83122 0.97309 1.00907 0.0
C532 C 0.85542 0.97492 0.97485 0.0
C533 C 0.86273 0.94595 0.95084 0.0
C534 C 0.89033 0.95486 0.91612 0.0
C535 C 0.92823 0.93392 0.91978 0.0
C536 C 0.87083 0.94895 0.87444 0.0
C537 C 0.89718 0.99344 0.92413 0.0
C538 C 0.87665 1.00447 0.95806 0.0
C539 C 0.87833 0.03896 0.97156 0.0
C540 C 0.90222 0.06267 0.95034 0.0
C541 C 0.92433 0.05183 0.91601 0.0
C542 C 0.92125 0.01676 0.90257 0.0
H543 H 0.23434 0.06537 0.49858 0.0
H544 H 0.15737 0.15441 0.50235 0.0
H545 H 0.10343 0.11756 0.47615 0.0
H546 H 0.19929 0.02956 0.40603 0.0
H547 H 0.20327 0.98442 0.42147 0.0
H548 H 0.2349 0.01694 0.44353 0.0
H549 H 0.21215 0.9988 0.51608 0.0
H550 H 0.18047 0.9661 0.49428 0.0
H551 H 0.16099 0.99878 0.52817 0.0
H552 H 0.0603 0.07312 0.44425 0.0
H553 H 0.02857 0.02288 0.41095 0.0
H554 H 0.13215 0.96052 0.42918 0.0
C555 C 0.20585 0.07668 0.49437 0.0
C556 C 0.19946 0.11243 0.5027 0.0
C557 C 0.16227 0.1269 0.49654 0.0
C558 C 0.1317 0.10621 0.48163 0.0
C559 C 0.1389 0.07106 0.47325 0.0
C560 C 0.17492 0.05624 0.47965 0.0
C561 C 0.17508 0.01807 0.4667 0.0
C562 C 0.2049 1.0119 0.43239 0.0
C563 C 0.18261 0.99401 0.50351 0.0
C564 C 0.13375 0.01396 0.4512 0.0
C565 C 0.11353 0.04497 0.45536 0.0
C566 C 0.07567 0.04862 0.44125 0.0
C567 C 0.05799 0.01997 0.42217 0.0
C568 C 0.07793 0.98785 0.41755 0.0
C569 C 0.11615 0.98465 0.43278 0.0
H570 H 0.21088 0.9593 1.01203 0.0
H571 H 0.16386 0.86776 0.95163 0.0
H572 H 0.11525 0.90457 0.91671 0.0
H573 H 0.11452 1.00164 0.02793 0.0
H574 H 0.13408 0.04503 0.02028 0.0
H575 H 0.16418 1.01116 0.04162 0.0
H576 H 0.21509 0.02225 0.98454 0.0
H577 H 0.18488 0.05568 0.96259 0.0
H578 H 0.20049 0.01931 0.93176 0.0
H579 H 0.07746 0.95136 0.88279 0.0
H580 H 0.0446 1.00494 0.85912 0.0
H581 H 0.11024 0.06645 0.94654 0.0
C582 C 0.18958 0.94704 0.9924 0.0
C583 C 0.19095 0.9108 0.98425 0.0
C584 C 0.16322 0.89559 0.95776 0.0
C585 C 0.13562 0.91624 0.93791 0.0
C586 C 0.13558 0.95204 0.94564 0.0
C587 C 0.16109 0.96731 0.97298 0.0
C588 C 0.15433 1.00648 0.97574 0.0
C589 C 0.14097 0.01668 0.01896 0.0
C590 C 0.19088 0.02713 0.96289 0.0
C591 C 0.12182 1.01085 0.94485 0.0
C592 C 0.11187 0.97904 0.92761 0.0
C593 C 0.0845 0.97635 0.89648 0.0
C594 C 0.06628 1.0069 0.88299 0.0
C595 C 0.07502 0.0396 0.90103 0.0
C596 C 0.10301 0.04162 0.93249 0.0
H597 H 0.8725 0.13924 0.45226 0.0
H598 H 0.79062 0.08404 0.52988 0.0
H599 H 0.82037 0.02763 0.51056 0.0
H600 H 0.86731 0.07915 0.37073 0.0
H601 H 0.91782 0.08258 0.35641 0.0
H602 H 0.89402 0.11895 0.3806 0.0
H603 H 0.94617 0.11978 0.43766 0.0
H604 H 0.97055 0.08378 0.41328 0.0
H605 H 0.95583 0.08029 0.46602 0.0
H606 H 0.8575 0.97731 0.48072 0.0
H607 H 0.90025 0.93645 0.44307 0.0
H608 H 0.95305 0.02387 0.37885 0.0
C609 C 0.86136 0.11521 0.46549 0.0
C610 C 0.82972 0.11575 0.49297 0.0
C611 C 0.81558 0.08401 0.50971 0.0
C612 C 0.83199 0.05193 0.4985 0.0
C613 C 0.86224 0.05212 0.47012 0.0
C614 C 0.87693 0.08292 0.4539 0.0
C615 C 0.90797 0.07573 0.4221 0.0
C616 C 0.89605 0.08995 0.37997 0.0
C617 C 0.94747 0.09078 0.43558 0.0
C618 C 0.9081 0.03609 0.42261 0.0
C619 C 0.88184 0.02301 0.45091 0.0
C620 C 0.87787 0.98721 0.45819 0.0
C621 C 0.90195 0.96423 0.43656 0.0
C622 C 0.92883 0.97713 0.40741 0.0
C623 C 0.93167 0.01343 0.40003 0.0
H624 H 0.32915 0.33484 0.10067 0.0
H625 H 0.29755 0.44235 0.07633 0.0
H626 H 0.33507 0.46148 0.13704 0.0
H627 H 0.32254 0.33982 0.21133 0.0
H628 H 0.36348 0.31145 0.21959 0.0
H629 H 0.3341 0.30646 0.17443 0.0
H630 H 0.39542 0.31362 0.12893 0.0
H631 H 0.42498 0.31849 0.17392 0.0
H632 H 0.42585 0.35182 0.13486 0.0
H633 H 0.37699 0.46862 0.19917 0.0
H634 H 0.42183 0.46397 0.25765 0.0
H635 H 0.42402 0.35111 0.24342 0.0
C636 C 0.32973 0.36231 0.10862 0.0
C637 C 0.31025 0.38723 0.08435 0.0
C638 C 0.31244 0.42306 0.09473 0.0
C639 C 0.33342 0.43403 0.12916 0.0
C640 C 0.3519 0.40872 0.15285 0.0
C641 C 0.3503 0.3736 0.14302 0.0
C642 C 0.37335 0.3518 0.17306 0.0
C643 C 0.34677 0.32585 0.19596 0.0
C644 C 0.40689 0.33282 0.15139 0.0
C645 C 0.38836 0.38016 0.2013 0.0
C646 C 0.37563 0.41279 0.18904 0.0
C647 C 0.38692 0.44321 0.20922 0.0
C648 C 0.4124 0.44028 0.24238 0.0
C649 C 0.42619 0.40718 0.25524 0.0
C650 C 0.41346 0.3767 0.23474 0.0
H651 H 0.70977 0.59891 0.60138 0.0
H652 H 0.70269 0.70913 0.57134 0.0
H653 H 0.65549 0.71787 0.62706 0.0
H654 H 0.60527 0.58961 0.62514 0.0
H655 H 0.61303 0.55867 0.66593 0.0
H656 H 0.64659 0.56084 0.62359 0.0
H657 H 0.70343 0.57066 0.67411 0.0
H658 H 0.67005 0.56884 0.71657 0.0
H659 H 0.70125 0.60647 0.70983 0.0
H660 H 0.61363 0.7161 0.68825 0.0
H661 H 0.57175 0.70278 0.74731 0.0
H662 H 0.59986 0.59251 0.73623 0.0
C663 C 0.69801 0.62473 0.60668 0.0
C664 C 0.71086 0.65369 0.58322 0.0
C665 C 0.69437 0.68701 0.59018 0.0
C666 C 0.66732 0.69214 0.62147 0.0
C667 C 0.65618 0.66346 0.64502 0.0
C668 C 0.67024 0.63024 0.63764 0.0
C669 C 0.65224 0.60398 0.6672 0.0
C670 C 0.62783 0.57666 0.64408 0.0
C671 C 0.68362 0.58646 0.69348 0.0
C672 C 0.62667 0.62789 0.69274 0.0
C673 C 0.62978 0.66209 0.67938 0.0
C674 C 0.61052 0.68936 0.69878 0.0
C675 C 0.58699 0.68153 0.73253 0.0
C676 C 0.5824 0.6466 0.74642 0.0
C677 C 0.60257 0.61942 0.72613 0.0
H678 H 0.67295 0.34771 0.08413 0.0
H679 H 0.73578 0.44598 0.08681 0.0
H680 H 0.69729 0.46468 0.14706 0.0
H681 H 0.57864 0.38183 0.11606 0.0
H682 H 0.56703 0.34399 0.14682 0.0
H683 H 0.59797 0.33962 0.10265 0.0
H684 H 0.65136 0.3119 0.14791 0.0
H685 H 0.62068 0.31638 0.19225 0.0
H686 H 0.66878 0.33533 0.19205 0.0
H687 H 0.65384 0.47119 0.2089 0.0
H688 H 0.60745 0.46616 0.26636 0.0
H689 H 0.57354 0.36276 0.22403 0.0
C690 C 0.67812 0.37326 0.09735 0.0
C691 C 0.70666 0.39585 0.08075 0.0
C692 C 0.71324 0.42891 0.09873 0.0
C693 C 0.69179 0.43951 0.13305 0.0
C694 C 0.66398 0.41655 0.14905 0.0
C695 C 0.65699 0.38415 0.13169 0.0
C696 C 0.62619 0.36408 0.1554 0.0
C697 C 0.59033 0.35697 0.12864 0.0
C698 C 0.64276 0.3299 0.17294 0.0
C699 C 0.61719 0.39009 0.189 0.0
C700 C 0.63924 0.4202 0.18477 0.0
C701 C 0.63628 0.44778 0.2124 0.0
C702 C 0.60987 0.44464 0.24503 0.0
C703 C 0.58668 0.4141 0.24985 0.0
C704 C 0.5907 0.3865 0.22135 0.0
H705 H 0.35344 0.67105 0.57007 0.0
H706 H 0.25765 0.60366 0.60495 0.0
H707 H 0.29292 0.58633 0.66798 0.0
H708 H 0.43205 0.6178 0.60938 0.0
H709 H 0.45971 0.65478 0.6276 0.0
H710 H 0.428 0.65963 0.58424 0.0
H711 H 0.39226 0.7103 0.62081 0.0
H712 H 0.42388 0.70564 0.66423 0.0
H713 H 0.37192 0.70308 0.67097 0.0
H714 H 0.33975 0.5761 0.72667 0.0
H715 H 0.3911 0.57816 0.7797 0.0
H716 H 0.45354 0.65626 0.7086 0.0
C717 C 0.34035 0.65241 0.591 0.0
C718 C 0.30354 0.63785 0.58276 0.0
C719 C 0.28633 0.61429 0.61083 0.0
C720 C 0.30609 0.60444 0.64651 0.0
C721 C 0.34266 0.61906 0.65382 0.0
C722 C 0.35938 0.64291 0.62708 0.0
C723 C 0.3978 0.65646 0.64319 0.0
C724 C 0.43137 0.64656 0.61439 0.0
C725 C 0.39636 0.69622 0.65022 0.0
C726 C 0.40009 0.63662 0.6832 0.0
C727 C 0.36836 0.61475 0.68855 0.0
C728 C 0.36462 0.59328 0.72291 0.0
C729 C 0.39391 0.59452 0.75277 0.0
C730 C 0.42601 0.61754 0.74834 0.0
C731 C 0.42905 0.6387 0.713 0.0
H732 H 0.79073 0.86526 0.11884 0.0
H733 H 0.87941 0.86762 0.02462 0.0
H734 H 0.92974 0.87776 0.07715 0.0
H735 H 0.83217 0.92989 0.18509 0.0
H736 H 0.81956 0.90722 0.23168 0.0
H737 H 0.79025 0.90138 0.18663 0.0
H738 H 0.80001 0.83431 0.19091 0.0
H739 H 0.82925 0.83991 0.23607 0.0
H740 H 0.8486 0.81695 0.19254 0.0
H741 H 0.96981 0.88898 0.139 0.0
H742 H 0.99847 0.89755 0.20735 0.0
H743 H 0.88517 0.8825 0.26323 0.0
C744 C 0.82081 0.86742 0.10944 0.0
C745 C 0.83133 0.86571 0.06768 0.0
C746 C 0.87085 0.86938 0.05639 0.0
C747 C 0.89956 0.87491 0.08601 0.0
C748 C 0.8883 0.87623 0.1269 0.0
C749 C 0.84997 0.87226 0.13878 0.0
C750 C 0.84597 0.87392 0.18496 0.0
C751 C 0.82048 0.90495 0.19784 0.0
C752 C 0.83002 0.8392 0.20213 0.0
C753 C 0.88805 0.87966 0.19716 0.0
C754 C 0.91182 0.88122 0.16301 0.0
C755 C 0.95158 0.88756 0.16596 0.0
C756 C 0.96754 0.89246 0.20482 0.0
C757 C 0.94395 0.89051 0.24025 0.0
C758 C 0.90374 0.88378 0.23649 0.0
H759 H 0.20649 0.09914 0.60106 0.0
H760 H 0.18974 0.20747 0.56662 0.0
H761 H 0.1405 0.21399 0.62089 0.0
H762 H 0.10244 0.08202 0.62624 0.0
H763 H 0.11367 0.05362 0.6686 0.0
H764 H 0.14645 0.05665 0.62564 0.0
H765 H 0.20267 0.0731 0.67457 0.0
H766 H 0.17005 0.07039 0.71761 0.0
H767 H 0.19731 0.11004 0.70827 0.0
H768 H 0.09885 0.21109 0.68151 0.0
H769 H 0.0608 0.19775 0.74321 0.0
H770 H 0.09913 0.08974 0.73869 0.0
C771 C 0.19199 0.12398 0.60496 0.0
C772 C 0.2024 0.15317 0.58056 0.0
C773 C 0.18278 0.18525 0.58591 0.0
C774 C 0.15464 0.18907 0.61638 0.0
C775 C 0.14583 0.1603 0.64088 0.0
C776 C 0.16329 0.12817 0.63531 0.0
C777 C 0.14825 0.10185 0.66665 0.0
C778 C 0.1264 0.07175 0.64552 0.0
C779 C 0.18156 0.08804 0.69336 0.0
C780 C 0.12061 0.12461 0.69128 0.0
C781 C 0.11993 0.15821 0.67559 0.0
C782 C 0.09868 0.18479 0.69384 0.0
C783 C 0.07739 0.17697 0.72911 0.0
C784 C 0.07703 0.14274 0.74582 0.0
C785 C 0.09864 0.11605 0.72636 0.0
H786 H 0.16723 0.8426 0.07641 0.0
H787 H 0.23417 0.93864 0.07738 0.0
H788 H 0.19903 0.95801 0.13966 0.0
H789 H 0.07576 0.87969 0.11318 0.0
H790 H 0.06388 0.84182 0.14375 0.0
H791 H 0.09263 0.83705 0.09802 0.0
H792 H 0.14671 0.8068 0.14012 0.0
H793 H 0.11825 0.81168 0.18599 0.0
H794 H 0.16707 0.82897 0.18376 0.0
H795 H 0.15792 0.96535 0.20367 0.0
H796 H 0.11338 0.96092 0.26298 0.0
H797 H 0.07466 0.85898 0.22044 0.0
C798 C 0.17392 0.86785 0.08966 0.0
C799 C 0.20269 0.88959 0.07212 0.0
C800 C 0.21145 0.92223 0.09017 0.0
C801 C 0.19188 0.93321 0.12557 0.0
C802 C 0.16378 0.91103 0.14252 0.0
C803 C 0.15472 0.87908 0.12503 0.0
C804 C 0.1242 0.85971 0.14979 0.0
C805 C 0.08691 0.85425 0.12469 0.0
C806 C 0.14002 0.82472 0.16587 0.0
C807 C 0.11782 0.8855 0.18419 0.0
C808 C 0.14074 0.91502 0.17945 0.0
C809 C 0.13976 0.94238 0.20761 0.0
C810 C 0.11443 0.93959 0.24126 0.0
C811 C 0.09052 0.90959 0.24657 0.0
C812 C 0.0926 0.88223 0.21757 0.0
H813 H 0.86783 0.18283 0.56544 0.0
H814 H 0.7684 0.1172 0.59293 0.0
H815 H 0.79706 0.10204 0.66027 0.0
H816 H 0.94118 0.12965 0.6151 0.0
H817 H 0.96802 0.16677 0.63426 0.0
H818 H 0.94047 0.17063 0.58773 0.0
H819 H 0.90314 0.2232 0.61829 0.0
H820 H 0.93039 0.21937 0.665 0.0
H821 H 0.87802 0.21806 0.66638 0.0
H822 H 0.83728 0.09387 0.72403 0.0
H823 H 0.88456 0.09494 0.78091 0.0
H824 H 0.95581 0.16937 0.71356 0.0
C825 C 0.85255 0.16501 0.58571 0.0
C826 C 0.81641 0.15061 0.57435 0.0
C827 C 0.79644 0.12792 0.6014 0.0
C828 C 0.81244 0.11934 0.63952 0.0
C829 C 0.84817 0.13415 0.65014 0.0
C830 C 0.86789 0.15667 0.62411 0.0
C831 C 0.90505 0.17006 0.64348 0.0
C832 C 0.94079 0.15858 0.61867 0.0
C833 C 0.90407 0.21005 0.64859 0.0
C834 C 0.90319 0.15159 0.68446 0.0
C835 C 0.87035 0.13073 0.68754 0.0
C836 C 0.86296 0.11029 0.72206 0.0
C837 C 0.88993 0.11105 0.75418 0.0
C838 C 0.92357 0.1325 0.75181 0.0
C839 C 0.93002 0.15317 0.71654 0.0
loop_
_geom_bond_atom_site_label_1
_geom_bond_atom_site_label_2
_geom_bond_distance
_geom_bond_site_symmetry_2
_ccdc_geom_bond_type
C0 N1 1.317 . S
C0 N2 1.348 1_554 S
C0 C3 1.485 . S
N1 C0 1.317 . S
N1 N5 1.350 1_554 S
N2 C0 1.348 1_556 S
N2 C4 1.346 . S
C3 C0 1.485 . S
C3 H7 0.960 . S
C3 H8 0.961 . S
C3 H9 0.960 . S
C4 N2 1.346 . S
C4 N5 1.320 . S
C4 C6 1.486 . S
N5 N1 1.350 1_556 S
N5 C4 1.320 . S
C6 C4 1.486 . S
C6 H10 0.960 . S
C6 H11 0.960 . S
C6 H12 0.959 . S
H7 C3 0.960 . S
H8 C3 0.961 . S
H9 C3 0.960 . S
H10 C6 0.960 . S
H11 C6 0.960 . S
H12 C6 0.959 . S
C13 N14 1.317 . S
C13 N15 1.348 . S
C13 C16 1.485 . S
N14 C13 1.317 . S
N14 N18 1.370 . S
N15 C13 1.348 . S
N15 C17 1.346 . S
C16 C13 1.485 . S
C16 H20 0.960 . S
C16 H21 0.961 . S
C16 H22 0.960 . S
C17 N15 1.346 . S
C17 N18 1.307 . S
C17 C19 1.486 . S
N18 N14 1.370 . S
N18 C17 1.307 . S
C19 C17 1.486 . S
C19 H23 0.960 . S
C19 H24 0.960 . S
C19 H25 0.959 . S
H20 C16 0.960 . S
H21 C16 0.961 . S
H22 C16 0.960 . S
H23 C19 0.960 . S
H24 C19 0.960 . S
H25 C19 0.959 . S
C26 N27 1.317 . S
C26 N28 1.348 1_554 S
C26 C29 1.485 . S
N27 C26 1.317 . S
N27 N31 1.370 1_554 S
N28 C26 1.348 1_556 S
N28 C30 1.346 . S
C29 C26 1.485 . S
C29 H33 0.960 . S
C29 H34 0.961 . S
C29 H35 0.960 . S
C30 N28 1.346 . S
C30 N31 1.307 . S
C30 C32 1.486 . S
N31 N27 1.370 1_556 S
N31 C30 1.307 . S
C32 C30 1.486 . S
C32 H36 0.960 . S
C32 H37 0.960 . S
C32 H38 0.959 . S
H33 C29 0.960 . S
H34 C29 0.961 . S
H35 C29 0.960 . S
H36 C32 0.960 . S
H37 C32 0.960 . S
H38 C32 0.959 . S
C39 N40 1.317 . S
C39 N41 1.348 . S
C39 C42 1.485 . S
N40 C39 1.317 . S
N40 N44 1.370 . S
N41 C39 1.348 . S
N41 C43 1.346 . S
C42 C39 1.485 . S
C42 H46 0.960 . S
C42 H47 0.961 . S
C42 H48 0.960 . S
C43 N41 1.346 . S
C43 N44 1.307 . S
C43 C45 1.486 . S
N44 N40 1.370 . S
N44 C43 1.307 . S
C45 C43 1.486 . S
C45 H49 0.960 . S
C45 H50 0.960 . S
C45 H51 0.959 . S
H46 C42 0.960 . S
H47 C42 0.961 . S
H48 C42 0.960 . S
H49 C45 0.960 . S
H50 C45 0.960 . S
H51 C45 0.959 . S
C52 N53 1.317 . S
C52 N54 1.348 1_554 S
C52 C55 1.485 . S
N53 C52 1.317 . S
N53 N57 1.350 1_554 S
N54 C52 1.348 1_556 S
N54 C56 1.346 . S
C55 C52 1.485 . S
C55 H59 0.960 . S
C55 H60 0.961 . S
C55 H61 0.960 . S
C56 N54 1.346 . S
C56 N57 1.320 . S
C56 C58 1.486 . S
N57 N53 1.350 1_556 S
N57 C56 1.320 . S
C58 C56 1.486 . S
C58 H62 0.960 . S
C58 H63 0.960 . S
C58 H64 0.959 . S
H59 C55 0.960 . S
H60 C55 0.961 . S
H61 C55 0.960 . S
H62 C58 0.960 . S
H63 C58 0.960 . S
H64 C58 0.959 . S
C65 N66 1.317 . S
C65 N67 1.348 . S
C65 C68 1.485 . S
N66 C65 1.317 . S
N66 N70 1.370 . S
N67 C65 1.348 . S
N67 C69 1.346 . S
C68 C65 1.485 . S
C68 H72 0.960 . S
C68 H73 0.961 . S
C68 H74 0.960 . S
C69 N67 1.346 . S
C69 N70 1.307 . S
C69 C71 1.486 . S
N70 N66 1.370 . S
N70 C69 1.307 . S
C71 C69 1.486 . S
C71 H75 0.960 . S
C71 H76 0.960 . S
C71 H77 0.959 . S
H72 C68 0.960 . S
H73 C68 0.961 . S
H74 C68 0.960 . S
H75 C71 0.960 . S
H76 C71 0.960 . S
H77 C71 0.959 . S
C78 N79 1.317 . S
C78 N80 1.348 1_554 S
C78 C81 1.485 . S
N79 C78 1.317 . S
N79 N83 1.370 1_554 S
N80 C78 1.348 1_556 S
N80 C82 1.346 . S
C81 C78 1.485 . S
C81 H85 0.960 . S
C81 H86 0.961 . S
C81 H87 0.960 . S
C82 N80 1.346 . S
C82 N83 1.307 . S
C82 C84 1.486 . S
N83 N79 1.370 1_556 S
N83 C82 1.307 . S
C84 C82 1.486 . S
C84 H88 0.960 . S
C84 H89 0.960 . S
C84 H90 0.959 . S
H85 C81 0.960 . S
H86 C81 0.961 . S
H87 C81 0.960 . S
H88 C84 0.960 . S
H89 C84 0.960 . S
H90 C84 0.959 . S
C91 N92 1.317 . S
C91 N93 1.348 . S
C91 C94 1.485 . S
N92 C91 1.317 . S
N92 N96 1.370 . S
N93 C91 1.348 . S
N93 C95 1.346 . S
C94 C91 1.485 . S
C94 H98 0.960 . S
C94 H99 0.961 . S
C94 H100 0.960 . S
C95 N93 1.346 . S
C95 N96 1.307 . S
C95 C97 1.486 . S
N96 N92 1.370 . S
N96 C95 1.307 . S
C97 C95 1.486 . S
C97 H101 0.960 . S
C97 H102 0.960 . S
C97 H103 0.959 . S
H98 C94 0.960 . S
H99 C94 0.961 . S
H100 C94 0.960 . S
H101 C97 0.960 . S
H102 C97 0.960 . S
H103 C97 0.959 . S
Fe104 O106 1.918 . S
Fe104 O109 1.997 1_455 S
Fe104 O110 2.002 1_455 S
Fe104 O115 1.976 . S
Fe104 O118 1.996 . S
Fe105 O106 1.918 . S
Fe105 O113 1.997 1_455 S
Fe105 O116 1.996 . S
Fe105 O120 1.976 . S
Fe105 O123 2.002 1_455 S
O106 Fe104 1.918 . S
O106 Fe105 1.918 . S
O106 Fe107 1.918 . S
Fe107 O106 1.918 . S
Fe107 O108 2.002 1_455 S
Fe107 O117 1.976 . S
Fe107 O121 1.996 . S
Fe107 O124 1.997 1_455 S
O108 Fe107 2.002 1_655 S
O108 C125 1.295 . S
O109 Fe104 1.997 1_655 S
O109 C125 1.235 . S
O110 Fe104 2.002 1_655 S
O110 C111 1.295 . S
C111 O110 1.295 . S
C111 O113 1.235 . S
C112 O117 1.287 . S
C112 O118 1.255 . S
O113 Fe105 1.997 1_655 S
O113 C111 1.235 . S
C114 O120 1.287 . S
C114 O121 1.255 . S
O115 Fe104 1.976 . S
O115 C122 1.287 . S
O116 Fe105 1.996 . S
O116 C122 1.255 . S
O117 Fe107 1.976 . S
O117 C112 1.287 . S
O118 Fe104 1.996 . S
O118 C112 1.255 . S
C119 O123 1.295 . S
C119 O124 1.235 . S
O120 Fe105 1.976 . S
O120 C114 1.287 . S
O121 Fe107 1.996 . S
O121 C114 1.255 . S
C122 O115 1.287 . S
C122 O116 1.255 . S
O123 Fe105 2.002 1_655 S
O123 C119 1.295 . S
O124 Fe107 1.997 1_655 S
O124 C119 1.235 . S
C125 O108 1.295 . S
C125 O109 1.235 . S
Fe126 O128 1.919 . S
Fe126 O131 1.984 1_655 S
Fe126 O132 1.989 1_655 S
Fe126 O137 1.989 . S
Fe126 O140 2.009 . S
Fe127 O128 1.919 . S
Fe127 O135 1.983 1_655 S
Fe127 O138 2.009 . S
Fe127 O142 1.989 . S
Fe127 O145 1.989 1_655 S
O128 Fe126 1.919 . S
O128 Fe127 1.919 . S
O128 Fe129 1.919 . S
Fe129 O128 1.919 . S
Fe129 O130 1.989 1_655 S
Fe129 O139 1.989 . S
Fe129 O143 2.009 . S
Fe129 O146 1.983 1_655 S
O130 Fe129 1.989 1_455 S
O130 C147 1.295 . S
O131 Fe126 1.984 1_455 S
O131 C147 1.235 . S
O132 Fe126 1.989 1_455 S
O132 C133 1.295 . S
C133 O132 1.295 . S
C133 O135 1.235 . S
C134 O139 1.287 . S
C134 O140 1.255 . S
O135 Fe127 1.983 1_455 S
O135 C133 1.235 . S
C136 O142 1.287 . S
C136 O143 1.255 . S
O137 Fe126 1.989 . S
O137 C144 1.287 . S
O138 Fe127 2.009 . S
O138 C144 1.255 . S
O139 Fe129 1.989 . S
O139 C134 1.287 . S
O140 Fe126 2.009 . S
O140 C134 1.255 . S
C141 O145 1.295 . S
C141 O146 1.235 . S
O142 Fe127 1.989 . S
O142 C136 1.287 . S
O143 Fe129 2.009 . S
O143 C136 1.255 . S
C144 O137 1.287 . S
C144 O138 1.255 . S
O145 Fe127 1.989 1_455 S
O145 C141 1.295 . S
O146 Fe129 1.983 1_455 S
O146 C141 1.235 . S
C147 O130 1.295 . S
C147 O131 1.235 . S
Fe148 O150 1.918 . S
Fe148 O153 1.997 . S
Fe148 O154 2.002 . S
Fe148 O159 1.976 . S
Fe148 O162 1.996 . S
Fe149 O150 1.918 . S
Fe149 O157 1.997 . S
Fe149 O160 1.996 . S
Fe149 O164 1.976 . S
Fe149 O167 2.002 . S
O150 Fe148 1.918 . S
O150 Fe149 1.918 . S
O150 Fe151 1.918 . S
Fe151 O150 1.918 . S
Fe151 O152 2.002 . S
Fe151 O161 1.976 . S
Fe151 O165 1.996 . S
Fe151 O168 1.997 . S
O152 Fe151 2.002 . S
O152 C169 1.295 . S
O153 Fe148 1.997 . S
O153 C169 1.235 . S
O154 Fe148 2.002 . S
O154 C155 1.295 . S
C155 O154 1.295 . S
C155 O157 1.235 . S
C156 O161 1.287 . S
C156 O162 1.255 . S
O157 Fe149 1.997 . S
O157 C155 1.235 . S
C158 O164 1.287 . S
C158 O165 1.255 . S
O159 Fe148 1.976 . S
O159 C166 1.287 . S
O160 Fe149 1.996 . S
O160 C166 1.255 . S
O161 Fe151 1.976 . S
O161 C156 1.287 . S
O162 Fe148 1.996 . S
O162 C156 1.255 . S
C163 O167 1.295 . S
C163 O168 1.235 . S
O164 Fe149 1.976 . S
O164 C158 1.287 . S
O165 Fe151 1.996 . S
O165 C158 1.255 . S
C166 O159 1.287 . S
C166 O160 1.255 . S
O167 Fe149 2.002 . S
O167 C163 1.295 . S
O168 Fe151 1.997 . S
O168 C163 1.235 . S
C169 O152 1.295 . S
C169 O153 1.235 . S
Fe170 O172 1.918 . S
Fe170 O175 1.997 . S
Fe170 O176 2.002 . S
Fe170 O181 1.976 . S
Fe170 O184 1.996 . S
Fe171 O172 1.918 . S
Fe171 O179 1.997 . S
Fe171 O182 1.996 . S
Fe171 O186 1.976 . S
Fe171 O189 2.002 . S
O172 Fe170 1.918 . S
O172 Fe171 1.918 . S
O172 Fe173 1.918 . S
Fe173 O172 1.918 . S
Fe173 O174 2.002 . S
Fe173 O183 1.976 . S
Fe173 O187 1.996 . S
Fe173 O190 1.997 . S
O174 Fe173 2.002 . S
O174 C191 1.295 . S
O175 Fe170 1.997 . S
O175 C191 1.235 . S
O176 Fe170 2.002 . S
O176 C177 1.295 . S
C177 O176 1.295 . S
C177 O179 1.235 . S
C178 O183 1.287 . S
C178 O184 1.255 . S
O179 Fe171 1.997 . S
O179 C177 1.235 . S
C180 O186 1.287 . S
C180 O187 1.255 . S
O181 Fe170 1.976 . S
O181 C188 1.287 . S
O182 Fe171 1.996 . S
O182 C188 1.255 . S
O183 Fe173 1.976 . S
O183 C178 1.287 . S
O184 Fe170 1.996 . S
O184 C178 1.255 . S
C185 O189 1.295 . S
C185 O190 1.235 . S
O186 Fe171 1.976 . S
O186 C180 1.287 . S
O187 Fe173 1.996 . S
O187 C180 1.255 . S
C188 O181 1.287 . S
C188 O182 1.255 . S
O189 Fe171 2.002 . S
O189 C185 1.295 . S
O190 Fe173 1.997 . S
O190 C185 1.235 . S
C191 O174 1.295 . S
C191 O175 1.235 . S
H192 C204 0.930 . S
H193 C206 0.930 1_554 S
H194 C207 0.921 1_554 S
H195 C211 0.959 . S
H196 C211 0.959 . S
H197 C211 0.961 . S
H198 C212 0.960 . S
H199 C212 0.961 . S
H200 C212 0.959 . S
H201 C215 0.929 . S
H202 C216 0.931 . S
H203 C218 0.930 . S
C204 H192 0.930 . S
C204 C205 1.399 . S
C204 C209 1.399 . S
C205 C204 1.399 . S
C205 C206 1.376 . S
C206 H193 0.930 1_556 S
C206 C205 1.376 . S
C206 C207 1.388 . S
C207 H194 0.921 1_556 S
C207 C206 1.388 . S
C207 C208 1.390 . S
C208 C207 1.390 . S
C208 C209 1.394 . S
C208 C214 1.465 . S
C209 C204 1.399 . S
C209 C208 1.394 . S
C209 C210 1.516 . S
C210 C209 1.516 . S
C210 C211 1.502 . S
C210 C212 1.561 . S
C210 C213 1.526 . S
C211 H195 0.959 . S
C211 H196 0.959 . S
C211 H197 0.961 . S
C211 C210 1.502 . S
C212 H198 0.960 . S
C212 H199 0.961 . S
C212 H200 0.959 . S
C212 C210 1.561 . S
C213 C210 1.526 . S
C213 C214 1.396 . S
C213 C218 1.390 . S
C214 C208 1.465 . S
C214 C213 1.396 . S
C214 C215 1.399 . S
C215 H201 0.929 . S
C215 C214 1.399 . S
C215 C216 1.385 . S
C216 H202 0.931 . S
C216 C215 1.385 . S
C216 C217 1.389 . S
C217 C216 1.389 . S
C217 C218 1.387 . S
C218 H203 0.930 . S
C218 C213 1.390 . S
C218 C217 1.387 . S
H219 C231 0.930 . S
H220 C233 0.930 . S
H221 C234 0.930 . S
H222 C238 0.959 . S
H223 C238 0.959 . S
H224 C238 0.961 . S
H225 C239 0.960 . S
H226 C239 0.961 . S
H227 C239 0.959 . S
H228 C242 0.929 . S
H229 C243 0.931 . S
H230 C245 0.930 . S
C231 H219 0.930 . S
C231 C232 1.399 . S
C231 C236 1.399 . S
C232 C231 1.399 . S
C232 C233 1.376 . S
C233 H220 0.930 . S
C233 C232 1.376 . S
C233 C234 1.388 . S
C234 H221 0.930 . S
C234 C233 1.388 . S
C234 C235 1.390 . S
C235 C234 1.390 . S
C235 C236 1.394 . S
C235 C241 1.465 . S
C236 C231 1.399 . S
C236 C235 1.394 . S
C236 C237 1.516 . S
C237 C236 1.516 . S
C237 C238 1.502 . S
C237 C239 1.561 . S
C237 C240 1.526 . S
C238 H222 0.959 . S
C238 H223 0.959 . S
C238 H224 0.961 . S
C238 C237 1.502 . S
C239 H225 0.960 . S
C239 H226 0.961 . S
C239 H227 0.959 . S
C239 C237 1.561 . S
C240 C237 1.526 . S
C240 C241 1.396 . S
C240 C245 1.390 . S
C241 C235 1.465 . S
C241 C240 1.396 . S
C241 C242 1.399 . S
C242 H228 0.929 . S
C242 C241 1.399 . S
C242 C243 1.385 . S
C243 H229 0.931 . S
C243 C242 1.385 . S
C243 C244 1.389 . S
C244 C243 1.389 . S
C244 C245 1.387 . S
C245 H230 0.930 . S
C245 C240 1.390 . S
C245 C244 1.387 . S
H246 C258 0.930 1_554 S
H247 C260 0.930 . S
H248 C261 0.930 . S
H249 C265 0.959 1_556 S
H250 C265 0.959 . S
H251 C265 0.961 . S
H252 C266 0.960 . S
H253 C266 0.961 . S
H254 C266 0.959 1_556 S
H255 C269 0.929 . S
H256 C270 0.931 . S
H257 C272 0.930 . S
C258 H246 0.930 1_556 S
C258 C259 1.399 . S
C258 C263 1.399 . S
C259 C258 1.399 . S
C259 C260 1.376 . S
C260 H247 0.930 . S
C260 C259 1.376 . S
C260 C261 1.388 . S
C261 H248 0.930 . S
C261 C260 1.388 . S
C261 C262 1.390 . S
C262 C261 1.390 . S
C262 C263 1.394 . S
C262 C268 1.465 . S
C263 C258 1.399 . S
C263 C262 1.394 . S
C263 C264 1.516 . S
C264 C263 1.516 . S
C264 C265 1.502 1_556 S
C264 C266 1.561 1_556 S
C264 C267 1.526 . S
C265 H249 0.959 1_554 S
C265 H250 0.959 . S
C265 H251 0.961 . S
C265 C264 1.502 1_554 S
C266 H252 0.960 . S
C266 H253 0.961 . S
C266 H254 0.959 1_554 S
C266 C264 1.561 1_554 S
C267 C264 1.526 . S
C267 C268 1.396 . S
C267 C272 1.390 . S
C268 C262 1.465 . S
C268 C267 1.396 . S
C268 C269 1.399 . S
C269 H255 0.929 . S
C269 C268 1.399 . S
C269 C270 1.385 . S
C270 H256 0.931 . S
C270 C269 1.385 . S
C270 C271 1.389 . S
C271 C270 1.389 . S
C271 C272 1.387 . S
C272 H257 0.930 . S
C272 C267 1.390 . S
C272 C271 1.387 . S
H273 C285 0.930 . S
H274 C287 0.930 . S
H275 C288 0.930 . S
H276 C292 0.959 . S
H277 C292 0.959 . S
H278 C292 0.961 . S
H279 C293 0.960 . S
H280 C293 0.961 . S
H281 C293 0.959 . S
H282 C296 0.929 . S
H283 C297 0.931 . S
H284 C299 0.930 . S
C285 H273 0.930 . S
C285 C286 1.399 . S
C285 C290 1.399 . S
C286 C285 1.399 . S
C286 C287 1.376 . S
C287 H274 0.930 . S
C287 C286 1.376 . S
C287 C288 1.388 . S
C288 H275 0.930 . S
C288 C287 1.388 . S
C288 C289 1.390 . S
C289 C288 1.390 . S
C289 C290 1.394 . S
C289 C295 1.465 . S
C290 C285 1.399 . S
C290 C289 1.394 . S
C290 C291 1.516 . S
C291 C290 1.516 . S
C291 C292 1.502 . S
C291 C293 1.561 . S
C291 C294 1.526 . S
C292 H276 0.959 . S
C292 H277 0.959 . S
C292 H278 0.961 . S
C292 C291 1.502 . S
C293 H279 0.960 . S
C293 H280 0.961 . S
C293 H281 0.959 . S
C293 C291 1.561 . S
C294 C291 1.526 . S
C294 C295 1.396 . S
C294 C299 1.390 . S
C295 C289 1.465 . S
C295 C294 1.396 . S
C295 C296 1.399 . S
C296 H282 0.929 . S
C296 C295 1.399 . S
C296 C297 1.385 . S
C297 H283 0.931 . S
C297 C296 1.385 . S
C297 C298 1.389 . S
C298 C297 1.389 . S
C298 C299 1.387 . S
C299 H284 0.930 . S
C299 C294 1.390 . S
C299 C298 1.387 . S
H300 C312 0.930 . S
H301 C314 0.930 . S
H302 C315 0.930 . S
H303 C319 0.959 . S
H304 C319 0.959 . S
H305 C319 0.961 . S
H306 C320 0.960 . S
H307 C320 0.961 . S
H308 C320 0.959 1_554 S
H309 C323 0.929 . S
H310 C324 0.931 . S
H311 C326 0.930 . S
C312 H300 0.930 . S
C312 C313 1.399 . S
C312 C317 1.399 . S
C313 C312 1.399 . S
C313 C314 1.376 . S
C314 H301 0.930 . S
C314 C313 1.376 . S
C314 C315 1.388 . S
C315 H302 0.930 . S
C315 C314 1.388 . S
C315 C316 1.390 . S
C316 C315 1.390 . S
C316 C317 1.394 . S
C316 C322 1.465 . S
C317 C312 1.399 . S
C317 C316 1.394 . S
C317 C318 1.516 . S
C318 C317 1.516 . S
C318 C319 1.502 . S
C318 C320 1.561 . S
C318 C321 1.526 . S
C319 H303 0.959 . S
C319 H304 0.959 . S
C319 H305 0.961 . S
C319 C318 1.502 . S
C320 H306 0.960 . S
C320 H307 0.961 . S
C320 H308 0.959 1_556 S
C320 C318 1.561 . S
C321 C318 1.526 . S
C321 C322 1.396 . S
C321 C326 1.390 . S
C322 C316 1.465 . S
C322 C321 1.396 . S
C322 C323 1.399 . S
C323 H309 0.929 . S
C323 C322 1.399 . S
C323 C324 1.385 . S
C324 H310 0.931 . S
C324 C323 1.385 . S
C324 C325 1.389 . S
C325 C324 1.389 . S
C325 C326 1.387 . S
C326 H311 0.930 . S
C326 C321 1.390 . S
C326 C325 1.387 . S
H327 C339 0.930 . S
H328 C341 0.930 . S
H329 C342 0.930 . S
H330 C346 0.959 . S
H331 C346 0.959 . S
H332 C346 0.961 . S
H333 C347 0.960 . S
H334 C347 0.961 . S
H335 C347 0.959 . S
H336 C350 0.929 . S
H337 C351 0.931 . S
H338 C353 0.930 . S
C339 H327 0.930 . S
C339 C340 1.399 . S
C339 C344 1.399 . S
C340 C339 1.399 . S
C340 C341 1.376 . S
C341 H328 0.930 . S
C341 C340 1.376 . S
C341 C342 1.388 . S
C342 H329 0.930 . S
C342 C341 1.388 . S
C342 C343 1.390 . S
C343 C342 1.390 . S
C343 C344 1.394 . S
C343 C349 1.465 . S
C344 C339 1.399 . S
C344 C343 1.394 . S
C344 C345 1.516 . S
C345 C344 1.516 . S
C345 C346 1.502 . S
C345 C347 1.561 . S
C345 C348 1.526 . S
C346 H330 0.959 . S
C346 H331 0.959 . S
C346 H332 0.961 . S
C346 C345 1.502 . S
C347 H333 0.960 . S
C347 H334 0.961 . S
C347 H335 0.959 . S
C347 C345 1.561 . S
C348 C345 1.526 . S
C348 C349 1.396 . S
C348 C353 1.390 . S
C349 C343 1.465 . S
C349 C348 1.396 . S
C349 C350 1.399 . S
C350 H336 0.929 . S
C350 C349 1.399 . S
C350 C351 1.385 . S
C351 H337 0.931 . S
C351 C350 1.385 . S
C351 C352 1.389 . S
C352 C351 1.389 . S
C352 C353 1.387 . S
C353 H338 0.930 . S
C353 C348 1.390 . S
C353 C352 1.387 . S
H354 C366 0.930 1_554 S
H355 C368 0.930 . S
H356 C369 0.930 . S
H357 C373 0.959 1_556 S
H358 C373 0.959 . S
H359 C373 0.961 . S
H360 C374 0.960 . S
H361 C374 0.961 . S
H362 C374 0.959 1_556 S
H363 C377 0.929 . S
H364 C378 0.931 . S
H365 C380 0.930 . S
C366 H354 0.930 1_556 S
C366 C367 1.399 . S
C366 C371 1.399 . S
C367 C366 1.399 . S
C367 C368 1.376 . S
C368 H355 0.930 . S
C368 C367 1.376 . S
C368 C369 1.388 . S
C369 H356 0.930 . S
C369 C368 1.388 . S
C369 C370 1.390 . S
C370 C369 1.390 . S
C370 C371 1.394 . S
C370 C376 1.465 . S
C371 C366 1.399 . S
C371 C370 1.394 . S
C371 C372 1.516 . S
C372 C371 1.516 . S
C372 C373 1.502 1_556 S
C372 C374 1.561 1_556 S
C372 C375 1.526 . S
C373 H357 0.959 1_554 S
C373 H358 0.959 . S
C373 H359 0.961 . S
C373 C372 1.502 1_554 S
C374 H360 0.960 . S
C374 H361 0.961 . S
C374 H362 0.959 1_554 S
C374 C372 1.561 1_554 S
C375 C372 1.526 . S
C375 C376 1.396 . S
C375 C380 1.390 . S
C376 C370 1.465 . S
C376 C375 1.396 . S
C376 C377 1.399 . S
C377 H363 0.929 . S
C377 C376 1.399 . S
C377 C378 1.385 . S
C378 H364 0.931 . S
C378 C377 1.385 . S
C378 C379 1.389 . S
C379 C378 1.389 . S
C379 C380 1.387 . S
C380 H365 0.930 . S
C380 C375 1.390 . S
C380 C379 1.387 . S
H381 C393 0.930 . S
H382 C395 0.930 . S
H383 C396 0.930 . S
H384 C400 0.959 . S
H385 C400 0.959 . S
H386 C400 0.961 . S
H387 C401 0.960 . S
H388 C401 0.961 . S
H389 C401 0.959 . S
H390 C404 0.929 . S
H391 C405 0.931 . S
H392 C407 0.930 . S
C393 H381 0.930 . S
C393 C394 1.399 . S
C393 C398 1.399 . S
C394 C393 1.399 . S
C394 C395 1.376 . S
C395 H382 0.930 . S
C395 C394 1.376 . S
C395 C396 1.388 . S
C396 H383 0.930 . S
C396 C395 1.388 . S
C396 C397 1.390 . S
C397 C396 1.390 . S
C397 C398 1.394 . S
C397 C403 1.465 . S
C398 C393 1.399 . S
C398 C397 1.394 . S
C398 C399 1.516 . S
C399 C398 1.516 . S
C399 C400 1.502 . S
C399 C401 1.561 . S
C399 C402 1.526 . S
C400 H384 0.959 . S
C400 H385 0.959 . S
C400 H386 0.961 . S
C400 C399 1.502 . S
C401 H387 0.960 . S
C401 H388 0.961 . S
C401 H389 0.959 . S
C401 C399 1.561 . S
C402 C399 1.526 . S
C402 C403 1.396 . S
C402 C407 1.390 . S
C403 C397 1.465 . S
C403 C402 1.396 . S
C403 C404 1.399 . S
C404 H390 0.929 . S
C404 C403 1.399 . S
C404 C405 1.385 . S
C405 H391 0.931 . S
C405 C404 1.385 . S
C405 C406 1.389 . S
C406 C405 1.389 . S
C406 C407 1.387 . S
C407 H392 0.930 . S
C407 C402 1.390 . S
C407 C406 1.387 . S
H408 C420 0.930 . S
H409 C422 0.930 . S
H410 C423 0.930 . S
H411 C427 0.959 . S
H412 C427 0.959 . S
H413 C427 0.961 . S
H414 C428 0.960 . S
H415 C428 0.961 . S
H416 C428 0.959 . S
H417 C431 0.929 . S
H418 C432 0.931 . S
H419 C434 0.930 . S
C420 H408 0.930 . S
C420 C421 1.399 . S
C420 C425 1.399 . S
C421 C420 1.399 . S
C421 C422 1.376 . S
C422 H409 0.930 . S
C422 C421 1.376 . S
C422 C423 1.388 . S
C423 H410 0.930 . S
C423 C422 1.388 . S
C423 C424 1.390 . S
C424 C423 1.390 . S
C424 C425 1.394 . S
C424 C430 1.465 . S
C425 C420 1.399 . S
C425 C424 1.394 . S
C425 C426 1.516 . S
C426 C425 1.516 . S
C426 C427 1.502 . S
C426 C428 1.561 1_556 S
C426 C429 1.526 . S
C427 H411 0.959 . S
C427 H412 0.959 . S
C427 H413 0.961 . S
C427 C426 1.502 . S
C428 H414 0.960 . S
C428 H415 0.961 . S
C428 H416 0.959 . S
C428 C426 1.561 1_554 S
C429 C426 1.526 . S
C429 C430 1.396 . S
C429 C434 1.390 . S
C430 C424 1.465 . S
C430 C429 1.396 . S
C430 C431 1.399 . S
C431 H417 0.929 . S
C431 C430 1.399 . S
C431 C432 1.385 . S
C432 H418 0.931 . S
C432 C431 1.385 . S
C432 C433 1.389 . S
C433 C432 1.389 . S
C433 C434 1.387 . S
C434 H419 0.930 . S
C434 C429 1.390 . S
C434 C433 1.387 . S
H435 C447 0.930 . S
H436 C449 0.930 . S
H437 C450 0.930 . S
H438 C454 0.959 . S
H439 C454 0.959 . S
H440 C454 0.961 . S
H441 C455 0.960 . S
H442 C455 0.961 . S
H443 C455 0.959 . S
H444 C458 0.929 . S
H445 C459 0.931 . S
H446 C461 0.930 . S
C447 H435 0.930 . S
C447 C448 1.399 . S
C447 C452 1.399 . S
C448 C447 1.399 . S
C448 C449 1.376 . S
C449 H436 0.930 . S
C449 C448 1.376 . S
C449 C450 1.388 . S
C450 H437 0.930 . S
C450 C449 1.388 . S
C450 C451 1.390 . S
C451 C450 1.390 . S
C451 C452 1.394 . S
C451 C457 1.465 . S
C452 C447 1.399 . S
C452 C451 1.394 . S
C452 C453 1.516 . S
C453 C452 1.516 . S
C453 C454 1.502 . S
C453 C455 1.561 . S
C453 C456 1.526 . S
C454 H438 0.959 . S
C454 H439 0.959 . S
C454 H440 0.961 . S
C454 C453 1.502 . S
C455 H441 0.960 . S
C455 H442 0.961 . S
C455 H443 0.959 . S
C455 C453 1.561 . S
C456 C453 1.526 . S
C456 C457 1.396 . S
C456 C461 1.390 . S
C457 C451 1.465 . S
C457 C456 1.396 . S
C457 C458 1.399 . S
C458 H444 0.929 . S
C458 C457 1.399 . S
C458 C459 1.385 . S
C459 H445 0.931 . S
C459 C458 1.385 . S
C459 C460 1.389 . S
C460 C459 1.389 . S
C460 C461 1.387 . S
C461 H446 0.930 . S
C461 C456 1.390 . S
C461 C460 1.387 . S
H462 C474 0.930 1_554 S
H463 C476 0.930 . S
H464 C477 0.930 . S
H465 C481 0.959 . S
H466 C481 0.959 . S
H467 C481 0.961 . S
H468 C482 0.960 . S
H469 C482 0.961 . S
H470 C482 0.959 . S
H471 C485 0.929 . S
H472 C486 0.931 . S
H473 C488 0.930 . S
C474 H462 0.930 1_556 S
C474 C475 1.399 . S
C474 C479 1.399 . S
C475 C474 1.399 . S
C475 C476 1.376 . S
C476 H463 0.930 . S
C476 C475 1.376 . S
C476 C477 1.388 . S
C477 H464 0.930 . S
C477 C476 1.388 . S
C477 C478 1.390 . S
C478 C477 1.390 . S
C478 C479 1.394 . S
C478 C484 1.465 . S
C479 C474 1.399 . S
C479 C478 1.394 . S
C479 C480 1.516 . S
C480 C479 1.516 . S
C480 C481 1.502 1_556 S
C480 C482 1.561 . S
C480 C483 1.526 . S
C481 H465 0.959 . S
C481 H466 0.959 . S
C481 H467 0.961 . S
C481 C480 1.502 1_554 S
C482 H468 0.960 . S
C482 H469 0.961 . S
C482 H470 0.959 . S
C482 C480 1.561 . S
C483 C480 1.526 . S
C483 C484 1.396 . S
C483 C488 1.390 . S
C484 C478 1.465 . S
C484 C483 1.396 . S
C484 C485 1.399 . S
C485 H471 0.929 . S
C485 C484 1.399 . S
C485 C486 1.385 . S
C486 H472 0.931 . S
C486 C485 1.385 . S
C486 C487 1.389 . S
C487 C486 1.389 . S
C487 C488 1.387 . S
C488 H473 0.930 . S
C488 C483 1.390 . S
C488 C487 1.387 . S
H489 C501 0.930 . S
H490 C503 0.930 . S
H491 C504 0.930 . S
H492 C508 0.959 . S
H493 C508 0.959 . S
H494 C508 0.961 . S
H495 C509 0.960 . S
H496 C509 0.961 . S
H497 C509 0.959 . S
H498 C512 0.929 . S
H499 C513 0.931 . S
H500 C515 0.930 . S
C501 H489 0.930 . S
C501 C502 1.399 . S
C501 C506 1.399 . S
C502 C501 1.399 . S
C502 C503 1.376 . S
C503 H490 0.930 . S
C503 C502 1.376 . S
C503 C504 1.388 . S
C504 H491 0.930 . S
C504 C503 1.388 . S
C504 C505 1.390 . S
C505 C504 1.390 . S
C505 C506 1.394 . S
C505 C511 1.465 . S
C506 C501 1.399 . S
C506 C505 1.394 . S
C506 C507 1.516 . S
C507 C506 1.516 . S
C507 C508 1.502 . S
C507 C509 1.561 . S
C507 C510 1.526 . S
C508 H492 0.959 . S
C508 H493 0.959 . S
C508 H494 0.961 . S
C508 C507 1.502 . S
C509 H495 0.960 . S
C509 H496 0.961 . S
C509 H497 0.959 . S
C509 C507 1.561 . S
C510 C507 1.526 . S
C510 C511 1.396 . S
C510 C515 1.390 . S
C511 C505 1.465 . S
C511 C510 1.396 . S
C511 C512 1.399 . S
C512 H498 0.929 . S
C512 C511 1.399 . S
C512 C513 1.385 . S
C513 H499 0.931 . S
C513 C512 1.385 . S
C513 C514 1.389 . S
C514 C513 1.389 . S
C514 C515 1.387 . S
C515 H500 0.930 . S
C515 C510 1.390 . S
C515 C514 1.387 . S
H516 C528 0.930 . S
H517 C530 0.930 . S
H518 C531 0.930 . S
H519 C535 0.959 . S
H520 C535 0.959 . S
H521 C535 0.961 . S
H522 C536 0.960 1_565 S
H523 C536 0.961 . S
H524 C536 0.959 . S
H525 C539 0.929 . S
H526 C540 0.931 . S
H527 C542 0.930 . S
C528 H516 0.930 . S
C528 C529 1.399 . S
C528 C533 1.399 . S
C529 C528 1.399 . S
C529 C530 1.376 1_556 S
C530 H517 0.930 . S
C530 C529 1.376 1_554 S
C530 C531 1.388 . S
C531 H518 0.930 . S
C531 C530 1.388 . S
C531 C532 1.390 1_554 S
C532 C531 1.390 1_556 S
C532 C533 1.394 . S
C532 C538 1.465 . S
C533 C528 1.399 . S
C533 C532 1.394 . S
C533 C534 1.516 . S
C534 C533 1.516 . S
C534 C535 1.502 . S
C534 C536 1.561 1_565 S
C534 C537 1.511 1_565 S
C535 H519 0.959 . S
C535 H520 0.959 . S
C535 H521 0.961 . S
C535 C534 1.502 . S
C536 H522 0.960 1_545 S
C536 H523 0.961 . S
C536 H524 0.959 . S
C536 C534 1.561 1_545 S
C537 C534 1.511 1_545 S
C537 C538 1.394 1_545 S
C537 C542 1.405 . S
C538 C532 1.465 . S
C538 C537 1.394 1_565 S
C538 C539 1.399 1_565 S
C539 H525 0.929 . S
C539 C538 1.399 1_545 S
C539 C540 1.385 . S
C540 H526 0.931 . S
C540 C539 1.385 . S
C540 C541 1.389 . S
C541 C540 1.389 . S
C541 C542 1.387 . S
C542 H527 0.930 . S
C542 C537 1.405 . S
C542 C541 1.387 . S
H543 C555 0.930 . S
H544 C557 0.930 . S
H545 C558 0.930 . S
H546 C562 0.959 . S
H547 C562 0.959 . S
H548 C562 0.961 . S
H549 C563 0.960 1_545 S
H550 C563 0.961 . S
H551 C563 0.959 . S
H552 C566 0.929 . S
H553 C567 0.931 . S
H554 C569 0.930 . S
C555 H543 0.930 . S
C555 C556 1.399 . S
C555 C560 1.399 . S
C556 C555 1.399 . S
C556 C557 1.376 . S
C557 H544 0.930 . S
C557 C556 1.376 . S
C557 C558 1.388 . S
C558 H545 0.930 . S
C558 C557 1.388 . S
C558 C559 1.390 . S
C559 C558 1.390 . S
C559 C560 1.394 . S
C559 C565 1.465 . S
C560 C555 1.399 . S
C560 C559 1.394 . S
C560 C561 1.516 . S
C561 C560 1.516 . S
C561 C562 1.502 . S
C561 C563 1.561 1_545 S
C561 C564 1.526 1_545 S
C562 H546 0.959 . S
C562 H547 0.959 . S
C562 H548 0.961 . S
C562 C561 1.502 . S
C563 H549 0.960 1_565 S
C563 H550 0.961 . S
C563 H551 0.959 . S
C563 C561 1.561 1_565 S
C564 C561 1.526 1_565 S
C564 C565 1.396 1_565 S
C564 C569 1.390 . S
C565 C559 1.465 . S
C565 C564 1.396 1_545 S
C565 C566 1.399 1_545 S
C566 H552 0.929 . S
C566 C565 1.399 1_565 S
C566 C567 1.385 . S
C567 H553 0.931 . S
C567 C566 1.385 . S
C567 C568 1.389 . S
C568 C567 1.389 . S
C568 C569 1.387 . S
C569 H554 0.930 . S
C569 C564 1.390 . S
C569 C568 1.387 . S
H570 C582 0.930 1_554 S
H571 C584 0.930 . S
H572 C585 0.930 . S
H573 C589 0.959 1_565 S
H574 C589 0.959 . S
H575 C589 0.961 . S
H576 C590 0.960 1_554 S
H577 C590 0.961 . S
H578 C590 0.959 . S
H579 C593 0.929 . S
H580 C594 0.931 . S
H581 C596 0.930 . S
C582 H570 0.930 1_556 S
C582 C583 1.399 . S
C582 C587 1.399 . S
C583 C582 1.399 . S
C583 C584 1.376 . S
C584 H571 0.930 . S
C584 C583 1.376 . S
C584 C585 1.388 . S
C585 H572 0.930 . S
C585 C584 1.388 . S
C585 C586 1.390 . S
C586 C585 1.390 . S
C586 C587 1.394 . S
C586 C592 1.465 . S
C587 C582 1.399 . S
C587 C586 1.394 . S
C587 C588 1.516 1_565 S
C588 C587 1.516 1_545 S
C588 C589 1.502 1_556 S
C588 C590 1.561 . S
C588 C591 1.526 . S
C589 H573 0.959 1_545 S
C589 H574 0.959 . S
C589 H575 0.961 . S
C589 C588 1.502 1_554 S
C590 H576 0.960 1_556 S
C590 H577 0.961 . S
C590 H578 0.959 . S
C590 C588 1.561 . S
C591 C588 1.526 . S
C591 C592 1.396 1_545 S
C591 C596 1.390 . S
C592 C586 1.465 . S
C592 C591 1.396 1_565 S
C592 C593 1.399 . S
C593 H579 0.929 . S
C593 C592 1.399 . S
C593 C594 1.385 1_565 S
C594 H580 0.931 . S
C594 C593 1.385 1_545 S
C594 C595 1.389 . S
C595 C594 1.389 . S
C595 C596 1.387 . S
C596 H581 0.930 . S
C596 C591 1.390 . S
C596 C595 1.387 . S
H597 C609 0.930 . S
H598 C611 0.930 . S
H599 C612 0.930 . S
H600 C616 0.959 . S
H601 C616 0.959 . S
H602 C616 0.961 . S
H603 C617 0.960 . S
H604 C617 0.961 . S
H605 C617 0.959 . S
H606 C620 0.929 . S
H607 C621 0.931 . S
H608 C623 0.930 . S
C609 H597 0.930 . S
C609 C610 1.399 . S
C609 C614 1.399 . S
C610 C609 1.399 . S
C610 C611 1.376 . S
C611 H598 0.930 . S
C611 C610 1.376 . S
C611 C612 1.388 . S
C612 H599 0.930 . S
C612 C611 1.388 . S
C612 C613 1.390 . S
C613 C612 1.390 . S
C613 C614 1.394 . S
C613 C619 1.465 1_545 S
C614 C609 1.399 . S
C614 C613 1.394 . S
C614 C615 1.516 . S
C615 C614 1.516 . S
C615 C616 1.502 . S
C615 C617 1.561 . S
C615 C618 1.526 . S
C616 H600 0.959 . S
C616 H601 0.959 . S
C616 H602 0.961 . S
C616 C615 1.502 . S
C617 H603 0.960 . S
C617 H604 0.961 . S
C617 H605 0.959 . S
C617 C615 1.561 . S
C618 C615 1.526 . S
C618 C619 1.396 1_545 S
C618 C623 1.390 1_545 S
C619 C613 1.465 1_565 S
C619 C618 1.396 1_565 S
C619 C620 1.399 . S
C620 H606 0.929 . S
C620 C619 1.399 . S
C620 C621 1.385 . S
C621 H607 0.931 . S
C621 C620 1.385 . S
C621 C622 1.389 . S
C622 C621 1.389 . S
C622 C623 1.387 . S
C623 H608 0.930 . S
C623 C618 1.390 1_565 S
C623 C622 1.387 . S
H624 C636 0.930 . S
H625 C638 0.930 . S
H626 C639 0.930 . S
H627 C643 0.959 . S
H628 C643 0.959 . S
H629 C643 0.961 . S
H630 C644 0.960 . S
H631 C644 0.961 . S
H632 C644 0.959 . S
H633 C647 0.929 . S
H634 C648 0.931 . S
H635 C650 0.930 . S
C636 H624 0.930 . S
C636 C637 1.399 . S
C636 C641 1.399 . S
C637 C636 1.399 . S
C637 C638 1.376 . S
C638 H625 0.930 . S
C638 C637 1.376 . S
C638 C639 1.388 . S
C639 H626 0.930 . S
C639 C638 1.388 . S
C639 C640 1.390 . S
C640 C639 1.390 . S
C640 C641 1.394 . S
C640 C646 1.465 . S
C641 C636 1.399 . S
C641 C640 1.394 . S
C641 C642 1.516 . S
C642 C641 1.516 . S
C642 C643 1.502 . S
C642 C644 1.561 . S
C642 C645 1.526 . S
C643 H627 0.959 . S
C643 H628 0.959 . S
C643 H629 0.961 . S
C643 C642 1.502 . S
C644 H630 0.960 . S
C644 H631 0.961 . S
C644 H632 0.959 . S
C644 C642 1.561 . S
C645 C642 1.526 . S
C645 C646 1.396 . S
C645 C650 1.390 . S
C646 C640 1.465 . S
C646 C645 1.396 . S
C646 C647 1.399 . S
C647 H633 0.929 . S
C647 C646 1.399 . S
C647 C648 1.385 . S
C648 H634 0.931 . S
C648 C647 1.385 . S
C648 C649 1.389 . S
C649 C648 1.389 . S
C649 C650 1.387 . S
C650 H635 0.930 . S
C650 C645 1.390 . S
C650 C649 1.387 . S
H651 C663 0.930 . S
H652 C665 0.930 . S
H653 C666 0.930 . S
H654 C670 0.959 . S
H655 C670 0.959 . S
H656 C670 0.961 . S
H657 C671 0.960 . S
H658 C671 0.961 . S
H659 C671 0.959 . S
H660 C674 0.929 . S
H661 C675 0.931 . S
H662 C677 0.930 . S
C663 H651 0.930 . S
C663 C664 1.399 . S
C663 C668 1.399 . S
C664 C663 1.399 . S
C664 C665 1.376 . S
C665 H652 0.930 . S
C665 C664 1.376 . S
C665 C666 1.388 . S
C666 H653 0.930 . S
C666 C665 1.388 . S
C666 C667 1.390 . S
C667 C666 1.390 . S
C667 C668 1.394 . S
C667 C673 1.465 . S
C668 C663 1.399 . S
C668 C667 1.394 . S
C668 C669 1.516 . S
C669 C668 1.516 . S
C669 C670 1.502 . S
C669 C671 1.561 . S
C669 C672 1.526 . S
C670 H654 0.959 . S
C670 H655 0.959 . S
C670 H656 0.961 . S
C670 C669 1.502 . S
C671 H657 0.960 . S
C671 H658 0.961 . S
C671 H659 0.959 . S
C671 C669 1.561 . S
C672 C669 1.526 . S
C672 C673 1.396 . S
C672 C677 1.390 . S
C673 C667 1.465 . S
C673 C672 1.396 . S
C673 C674 1.399 . S
C674 H660 0.929 . S
C674 C673 1.399 . S
C674 C675 1.385 . S
C675 H661 0.931 . S
C675 C674 1.385 . S
C675 C676 1.389 . S
C676 C675 1.389 . S
C676 C677 1.387 . S
C677 H662 0.930 . S
C677 C672 1.390 . S
C677 C676 1.387 . S
H678 C690 0.930 . S
H679 C692 0.930 . S
H680 C693 0.930 . S
H681 C697 0.959 . S
H682 C697 0.959 . S
H683 C697 0.961 . S
H684 C698 0.960 . S
H685 C698 0.961 . S
H686 C698 0.959 . S
H687 C701 0.929 . S
H688 C702 0.931 . S
H689 C704 0.930 . S
C690 H678 0.930 . S
C690 C691 1.399 . S
C690 C695 1.399 . S
C691 C690 1.399 . S
C691 C692 1.376 . S
C692 H679 0.930 . S
C692 C691 1.376 . S
C692 C693 1.388 . S
C693 H680 0.930 . S
C693 C692 1.388 . S
C693 C694 1.390 . S
C694 C693 1.390 . S
C694 C695 1.394 . S
C694 C700 1.465 . S
C695 C690 1.399 . S
C695 C694 1.394 . S
C695 C696 1.516 . S
C696 C695 1.516 . S
C696 C697 1.502 . S
C696 C698 1.561 . S
C696 C699 1.526 . S
C697 H681 0.959 . S
C697 H682 0.959 . S
C697 H683 0.961 . S
C697 C696 1.502 . S
C698 H684 0.960 . S
C698 H685 0.961 . S
C698 H686 0.959 . S
C698 C696 1.561 . S
C699 C696 1.526 . S
C699 C700 1.396 . S
C699 C704 1.390 . S
C700 C694 1.465 . S
C700 C699 1.396 . S
C700 C701 1.399 . S
C701 H687 0.929 . S
C701 C700 1.399 . S
C701 C702 1.385 . S
C702 H688 0.931 . S
C702 C701 1.385 . S
C702 C703 1.389 . S
C703 C702 1.389 . S
C703 C704 1.387 . S
C704 H689 0.930 . S
C704 C699 1.390 . S
C704 C703 1.387 . S
H705 C717 0.930 . S
H706 C719 0.930 . S
H707 C720 0.930 . S
H708 C724 0.959 . S
H709 C724 0.959 . S
H710 C724 0.961 . S
H711 C725 0.960 . S
H712 C725 0.961 . S
H713 C725 0.959 . S
H714 C728 0.929 . S
H715 C729 0.931 . S
H716 C731 0.930 . S
C717 H705 0.930 . S
C717 C718 1.399 . S
C717 C722 1.399 . S
C718 C717 1.399 . S
C718 C719 1.376 . S
C719 H706 0.930 . S
C719 C718 1.376 . S
C719 C720 1.388 . S
C720 H707 0.930 . S
C720 C719 1.388 . S
C720 C721 1.390 . S
C721 C720 1.390 . S
C721 C722 1.394 . S
C721 C727 1.465 . S
C722 C717 1.399 . S
C722 C721 1.394 . S
C722 C723 1.516 . S
C723 C722 1.516 . S
C723 C724 1.502 . S
C723 C725 1.561 . S
C723 C726 1.526 . S
C724 H708 0.959 . S
C724 H709 0.959 . S
C724 H710 0.961 . S
C724 C723 1.502 . S
C725 H711 0.960 . S
C725 H712 0.961 . S
C725 H713 0.959 . S
C725 C723 1.561 . S
C726 C723 1.526 . S
C726 C727 1.396 . S
C726 C731 1.390 . S
C727 C721 1.465 . S
C727 C726 1.396 . S
C727 C728 1.399 . S
C728 H714 0.929 . S
C728 C727 1.399 . S
C728 C729 1.385 . S
C729 H715 0.931 . S
C729 C728 1.385 . S
C729 C730 1.389 . S
C730 C729 1.389 . S
C730 C731 1.387 . S
C731 H716 0.930 . S
C731 C726 1.390 . S
C731 C730 1.387 . S
H732 C744 0.930 . S
H733 C746 0.930 . S
H734 C747 0.930 . S
H735 C751 0.959 . S
H736 C751 0.959 . S
H737 C751 0.961 . S
H738 C752 0.960 . S
H739 C752 0.961 . S
H740 C752 0.959 . S
H741 C755 0.929 . S
H742 C756 0.931 . S
H743 C758 0.930 . S
C744 H732 0.930 . S
C744 C745 1.399 . S
C744 C749 1.399 . S
C745 C744 1.399 . S
C745 C746 1.376 . S
C746 H733 0.930 . S
C746 C745 1.376 . S
C746 C747 1.388 . S
C747 H734 0.930 . S
C747 C746 1.388 . S
C747 C748 1.390 . S
C748 C747 1.390 . S
C748 C749 1.394 . S
C748 C754 1.465 . S
C749 C744 1.399 . S
C749 C748 1.394 . S
C749 C750 1.516 . S
C750 C749 1.516 . S
C750 C751 1.502 . S
C750 C752 1.561 . S
C750 C753 1.526 . S
C751 H735 0.959 . S
C751 H736 0.959 . S
C751 H737 0.961 . S
C751 C750 1.502 . S
C752 H738 0.960 . S
C752 H739 0.961 . S
C752 H740 0.959 . S
C752 C750 1.561 . S
C753 C750 1.526 . S
C753 C754 1.396 . S
C753 C758 1.390 . S
C754 C748 1.465 . S
C754 C753 1.396 . S
C754 C755 1.399 . S
C755 H741 0.929 . S
C755 C754 1.399 . S
C755 C756 1.385 . S
C756 H742 0.931 . S
C756 C755 1.385 . S
C756 C757 1.389 . S
C757 C756 1.389 . S
C757 C758 1.387 . S
C758 H743 0.930 . S
C758 C753 1.390 . S
C758 C757 1.387 . S
H759 C771 0.930 . S
H760 C773 0.930 . S
H761 C774 0.930 . S
H762 C778 0.959 . S
H763 C778 0.959 . S
H764 C778 0.961 . S
H765 C779 0.960 . S
H766 C779 0.961 . S
H767 C779 0.959 . S
H768 C782 0.929 . S
H769 C783 0.931 . S
H770 C785 0.930 . S
C771 H759 0.930 . S
C771 C772 1.399 . S
C771 C776 1.399 . S
C772 C771 1.399 . S
C772 C773 1.376 . S
C773 H760 0.930 . S
C773 C772 1.376 . S
C773 C774 1.388 . S
C774 H761 0.930 . S
C774 C773 1.388 . S
C774 C775 1.390 . S
C775 C774 1.390 . S
C775 C776 1.394 . S
C775 C781 1.465 . S
C776 C771 1.399 . S
C776 C775 1.394 . S
C776 C777 1.516 . S
C777 C776 1.516 . S
C777 C778 1.502 . S
C777 C779 1.561 . S
C777 C780 1.526 . S
C778 H762 0.959 . S
C778 H763 0.959 . S
C778 H764 0.961 . S
C778 C777 1.502 . S
C779 H765 0.960 . S
C779 H766 0.961 . S
C779 H767 0.959 . S
C779 C777 1.561 . S
C780 C777 1.526 . S
C780 C781 1.396 . S
C780 C785 1.390 . S
C781 C775 1.465 . S
C781 C780 1.396 . S
C781 C782 1.399 . S
C782 H768 0.929 . S
C782 C781 1.399 . S
C782 C783 1.385 . S
C783 H769 0.931 . S
C783 C782 1.385 . S
C783 C784 1.389 . S
C784 C783 1.389 . S
C784 C785 1.387 . S
C785 H770 0.930 . S
C785 C780 1.390 . S
C785 C784 1.387 . S
H786 C798 0.930 . S
H787 C800 0.930 . S
H788 C801 0.930 . S
H789 C805 0.959 . S
H790 C805 0.959 . S
H791 C805 0.961 . S
H792 C806 0.960 . S
H793 C806 0.961 . S
H794 C806 0.959 . S
H795 C809 0.929 . S
H796 C810 0.931 . S
H797 C812 0.930 . S
C798 H786 0.930 . S
C798 C799 1.399 . S
C798 C803 1.399 . S
C799 C798 1.399 . S
C799 C800 1.376 . S
C800 H787 0.930 . S
C800 C799 1.376 . S
C800 C801 1.388 . S
C801 H788 0.930 . S
C801 C800 1.388 . S
C801 C802 1.390 . S
C802 C801 1.390 . S
C802 C803 1.394 . S
C802 C808 1.465 . S
C803 C798 1.399 . S
C803 C802 1.394 . S
C803 C804 1.516 . S
C804 C803 1.516 . S
C804 C805 1.502 . S
C804 C806 1.561 . S
C804 C807 1.526 . S
C805 H789 0.959 . S
C805 H790 0.959 . S
C805 H791 0.961 . S
C805 C804 1.502 . S
C806 H792 0.960 . S
C806 H793 0.961 . S
C806 H794 0.959 . S
C806 C804 1.561 . S
C807 C804 1.526 . S
C807 C808 1.396 . S
C807 C812 1.390 . S
C808 C802 1.465 . S
C808 C807 1.396 . S
C808 C809 1.399 . S
C809 H795 0.929 . S
C809 C808 1.399 . S
C809 C810 1.385 . S
C810 H796 0.931 . S
C810 C809 1.385 . S
C810 C811 1.389 . S
C811 C810 1.389 . S
C811 C812 1.387 . S
C812 H797 0.930 . S
C812 C807 1.390 . S
C812 C811 1.387 . S
H813 C825 0.930 . S
H814 C827 0.930 . S
H815 C828 0.930 . S
H816 C832 0.959 . S
H817 C832 0.959 . S
H818 C832 0.961 . S
H819 C833 0.960 . S
H820 C833 0.961 . S
H821 C833 0.959 . S
H822 C836 0.929 . S
H823 C837 0.931 . S
H824 C839 0.930 . S
C825 H813 0.930 . S
C825 C826 1.399 . S
C825 C830 1.399 . S
C826 C825 1.399 . S
C826 C827 1.376 . S
C827 H814 0.930 . S
C827 C826 1.376 . S
C827 C828 1.388 . S
C828 H815 0.930 . S
C828 C827 1.388 . S
C828 C829 1.390 . S
C829 C828 1.390 . S
C829 C830 1.394 . S
C829 C835 1.465 . S
C830 C825 1.399 . S
C830 C829 1.394 . S
C830 C831 1.516 . S
C831 C830 1.516 . S
C831 C832 1.502 . S
C831 C833 1.561 . S
C831 C834 1.526 . S
C832 H816 0.959 . S
C832 H817 0.959 . S
C832 H818 0.961 . S
C832 C831 1.502 . S
C833 H819 0.960 . S
C833 H820 0.961 . S
C833 H821 0.959 . S
C833 C831 1.561 . S
C834 C831 1.526 . S
C834 C835 1.396 . S
C834 C839 1.390 . S
C835 C829 1.465 . S
C835 C834 1.396 . S
C835 C836 1.399 . S
C836 H822 0.929 . S
C836 C835 1.399 . S
C836 C837 1.385 . S
C837 H823 0.931 . S
C837 C836 1.385 . S
C837 C838 1.389 . S
C838 C837 1.389 . S
C838 C839 1.387 . S
C839 H824 0.930 . S
C839 C834 1.390 . S
C839 C838 1.387 . S
C205 N2 1.529 . S
C217 C147 1.537 . S
C244 C111 1.535 . S
C232 N15 1.530 . S
C271 C134 1.531 . S
C259 N28 1.507 . S
C298 C122 1.531 . S
C286 N41 1.506 . S
C325 C191 1.506 . S
C313 N54 1.545 . S
C352 C155 1.529 . S
C340 N67 1.532 . S
C367 N80 1.508 . S
C379 C178 1.530 . S
C406 C166 1.525 . S
C394 N93 1.517 . S
C421 N5 1.497 . S
C433 C188 1.497 . S
C460 C158 1.504 . S
C448 N18 1.481 . S
C475 N31 1.502 . S
C487 C177 1.517 . S
C502 N44 1.527 . S
C514 C163 1.508 . S
C541 C144 1.501 . S
C529 N57 1.516 . S
C556 N70 1.509 . S
C568 C114 1.500 . S
C595 C133 1.524 . S
C583 N83 1.506 . S
C622 C119 1.514 . S
C610 N96 1.532 . S
C649 C169 1.507 . S
C637 N1 1.534 . S
C676 C185 1.535 . S
C664 N14 1.521 . S
C691 N27 1.500 . S
C703 C156 1.501 . S
C730 C180 1.502 . S
C718 N40 1.499 . S
C757 C125 1.507 . S
C745 N53 1.535 . S
C772 N66 1.518 . S
C784 C141 1.529 . S
C799 N79 1.503 . S
C811 C112 1.500 . S
C826 N92 1.502 . S
C838 C136 1.500 . S
