# Generated by pormake.
# Topology ptr, (4,4)-cn, num edge types: 1
# Building blocks:
#     Node 0, Type 0, BuildingBlock: KUFVIS_clean_sbu_0, # of connection points: 4
#     Node 1, Type 0, BuildingBlock: KUFVIS_clean_sbu_0, # of connection points: 4
#     Node 2, Type 0, BuildingBlock: KUFVIS_clean_sbu_0, # of connection points: 4
#     Node 3, Type 0, BuildingBlock: KUFVIS_clean_sbu_0, # of connection points: 4
#     Node 4, Type 0, BuildingBlock: KUFVIS_clean_sbu_0, # of connection points: 4
#     Node 5, Type 0, BuildingBlock: KUFVIS_clean_sbu_0, # of connection points: 4
#     Node 6, Type 0, BuildingBlock: KUFVIS_clean_sbu_0, # of connection points: 4
#     Node 7, Type 0, BuildingBlock: KUFVIS_clean_sbu_0, # of connection points: 4
#     Node 8, Type 0, BuildingBlock: KUFVIS_clean_sbu_0, # of connection points: 4
#     Node 9, Type 0, BuildingBlock: KUFVIS_clean_sbu_0, # of connection points: 4
#     Node 10, Type 0, BuildingBlock: KUFVIS_clean_sbu_0, # of connection points: 4
#     Node 11, Type 0, BuildingBlock: KUFVIS_clean_sbu_0, # of connection points: 4
#     Node 12, Type 0, BuildingBlock: KUFVIS_clean_sbu_0, # of connection points: 4
#     Node 13, Type 0, BuildingBlock: KUFVIS_clean_sbu_0, # of connection points: 4
#     Node 14, Type 0, BuildingBlock: KUFVIS_clean_sbu_0, # of connection points: 4
#     Node 15, Type 0, BuildingBlock: KUFVIS_clean_sbu_0, # of connection points: 4
#     Node 16, Type 0, BuildingBlock: KUFVIS_clean_sbu_0, # of connection points: 4
#     Node 17, Type 0, BuildingBlock: KUFVIS_clean_sbu_0, # of connection points: 4
#     Node 18, Type 1, BuildingBlock: GIZVER_clean_linker_0, # of connection points: 4
#     Node 19, Type 1, BuildingBlock: GIZVER_clean_linker_0, # of connection points: 4
#     Node 20, Type 1, BuildingBlock: GIZVER_clean_linker_0, # of connection points: 4
#     Node 21, Type 1, BuildingBlock: GIZVER_clean_linker_0, # of connection points: 4
#     Node 22, Type 1, BuildingBlock: GIZVER_clean_linker_0, # of connection points: 4
#     Node 23, Type 1, BuildingBlock: GIZVER_clean_linker_0, # of connection points: 4
#     Node 24, Type 1, BuildingBlock: GIZVER_clean_linker_0, # of connection points: 4
#     Node 25, Type 1, BuildingBlock: GIZVER_clean_linker_0, # of connection points: 4
#     Node 26, Type 1, BuildingBlock: GIZVER_clean_linker_0, # of connection points: 4
#     Node 27, Type 1, BuildingBlock: GIZVER_clean_linker_0, # of connection points: 4
#     Node 28, Type 1, BuildingBlock: GIZVER_clean_linker_0, # of connection points: 4
#     Node 29, Type 1, BuildingBlock: GIZVER_clean_linker_0, # of connection points: 4
#     Node 30, Type 1, BuildingBlock: GIZVER_clean_linker_0, # of connection points: 4
#     Node 31, Type 1, BuildingBlock: GIZVER_clean_linker_0, # of connection points: 4
#     Node 32, Type 1, BuildingBlock: GIZVER_clean_linker_0, # of connection points: 4
#     Node 33, Type 1, BuildingBlock: GIZVER_clean_linker_0, # of connection points: 4
#     Node 34, Type 1, BuildingBlock: GIZVER_clean_linker_0, # of connection points: 4
#     Node 35, Type 1, BuildingBlock: GIZVER_clean_linker_0, # of connection points: 4
#     Edge 36, Type (0, 1), BuildingBlock: OJICUG_clean_linker_0, # of connection points: 2
#     Edge 37, Type (0, 1), BuildingBlock: OJICUG_clean_linker_0, # of connection points: 2
#     Edge 38, Type (0, 1), BuildingBlock: OJICUG_clean_linker_0, # of connection points: 2
#     Edge 39, Type (0, 1), BuildingBlock: OJICUG_clean_linker_0, # of connection points: 2
#     Edge 40, Type (0, 1), BuildingBlock: OJICUG_clean_linker_0, # of connection points: 2
#     Edge 41, Type (0, 1), BuildingBlock: OJICUG_clean_linker_0, # of connection points: 2
#     Edge 42, Type (0, 1), BuildingBlock: OJICUG_clean_linker_0, # of connection points: 2
#     Edge 43, Type (0, 1), BuildingBlock: OJICUG_clean_linker_0, # of connection points: 2
#     Edge 44, Type (0, 1), BuildingBlock: OJICUG_clean_linker_0, # of connection points: 2
#     Edge 45, Type (0, 1), BuildingBlock: OJICUG_clean_linker_0, # of connection points: 2
#     Edge 46, Type (0, 1), BuildingBlock: OJICUG_clean_linker_0, # of connection points: 2
#     Edge 47, Type (0, 1), BuildingBlock: OJICUG_clean_linker_0, # of connection points: 2
#     Edge 48, Type (0, 1), BuildingBlock: OJICUG_clean_linker_0, # of connection points: 2
#     Edge 49, Type (0, 1), BuildingBlock: OJICUG_clean_linker_0, # of connection points: 2
#     Edge 50, Type (0, 1), BuildingBlock: OJICUG_clean_linker_0, # of connection points: 2
#     Edge 51, Type (0, 1), BuildingBlock: OJICUG_clean_linker_0, # of connection points: 2
#     Edge 52, Type (0, 1), BuildingBlock: OJICUG_clean_linker_0, # of connection points: 2
#     Edge 53, Type (0, 1), BuildingBlock: OJICUG_clean_linker_0, # of connection points: 2
#     Edge 54, Type (0, 1), BuildingBlock: OJICUG_clean_linker_0, # of connection points: 2
#     Edge 55, Type (0, 1), BuildingBlock: OJICUG_clean_linker_0, # of connection points: 2
#     Edge 56, Type (0, 1), BuildingBlock: OJICUG_clean_linker_0, # of connection points: 2
#     Edge 57, Type (0, 1), BuildingBlock: OJICUG_clean_linker_0, # of connection points: 2
#     Edge 58, Type (0, 1), BuildingBlock: OJICUG_clean_linker_0, # of connection points: 2
#     Edge 59, Type (0, 1), BuildingBlock: OJICUG_clean_linker_0, # of connection points: 2
#     Edge 60, Type (0, 1), BuildingBlock: OJICUG_clean_linker_0, # of connection points: 2
#     Edge 61, Type (0, 1), BuildingBlock: OJICUG_clean_linker_0, # of connection points: 2
#     Edge 62, Type (0, 1), BuildingBlock: OJICUG_clean_linker_0, # of connection points: 2
#     Edge 63, Type (0, 1), BuildingBlock: OJICUG_clean_linker_0, # of connection points: 2
#     Edge 64, Type (0, 1), BuildingBlock: OJICUG_clean_linker_0, # of connection points: 2
#     Edge 65, Type (0, 1), BuildingBlock: OJICUG_clean_linker_0, # of connection points: 2
#     Edge 66, Type (0, 1), BuildingBlock: OJICUG_clean_linker_0, # of connection points: 2
#     Edge 67, Type (0, 1), BuildingBlock: OJICUG_clean_linker_0, # of connection points: 2
#     Edge 68, Type (0, 1), BuildingBlock: OJICUG_clean_linker_0, # of connection points: 2
#     Edge 69, Type (0, 1), BuildingBlock: OJICUG_clean_linker_0, # of connection points: 2
#     Edge 70, Type (0, 1), BuildingBlock: OJICUG_clean_linker_0, # of connection points: 2
#     Edge 71, Type (0, 1), BuildingBlock: OJICUG_clean_linker_0, # of connection points: 2
#     Edge 72, Type (0, 1), BuildingBlock: OJICUG_clean_linker_0, # of connection points: 2
#     Edge 73, Type (0, 1), BuildingBlock: OJICUG_clean_linker_0, # of connection points: 2
#     Edge 74, Type (0, 1), BuildingBlock: OJICUG_clean_linker_0, # of connection points: 2
#     Edge 75, Type (0, 1), BuildingBlock: OJICUG_clean_linker_0, # of connection points: 2
#     Edge 76, Type (0, 1), BuildingBlock: OJICUG_clean_linker_0, # of connection points: 2
#     Edge 77, Type (0, 1), BuildingBlock: OJICUG_clean_linker_0, # of connection points: 2
#     Edge 78, Type (0, 1), BuildingBlock: OJICUG_clean_linker_0, # of connection points: 2
#     Edge 79, Type (0, 1), BuildingBlock: OJICUG_clean_linker_0, # of connection points: 2
#     Edge 80, Type (0, 1), BuildingBlock: OJICUG_clean_linker_0, # of connection points: 2
#     Edge 81, Type (0, 1), BuildingBlock: OJICUG_clean_linker_0, # of connection points: 2
#     Edge 82, Type (0, 1), BuildingBlock: OJICUG_clean_linker_0, # of connection points: 2
#     Edge 83, Type (0, 1), BuildingBlock: OJICUG_clean_linker_0, # of connection points: 2
#     Edge 84, Type (0, 1), BuildingBlock: OJICUG_clean_linker_0, # of connection points: 2
#     Edge 85, Type (0, 1), BuildingBlock: OJICUG_clean_linker_0, # of connection points: 2
#     Edge 86, Type (0, 1), BuildingBlock: OJICUG_clean_linker_0, # of connection points: 2
#     Edge 87, Type (0, 1), BuildingBlock: OJICUG_clean_linker_0, # of connection points: 2
#     Edge 88, Type (0, 1), BuildingBlock: OJICUG_clean_linker_0, # of connection points: 2
#     Edge 89, Type (0, 1), BuildingBlock: OJICUG_clean_linker_0, # of connection points: 2
#     Edge 90, Type (0, 1), BuildingBlock: OJICUG_clean_linker_0, # of connection points: 2
#     Edge 91, Type (0, 1), BuildingBlock: OJICUG_clean_linker_0, # of connection points: 2
#     Edge 92, Type (0, 1), BuildingBlock: OJICUG_clean_linker_0, # of connection points: 2
#     Edge 93, Type (0, 1), BuildingBlock: OJICUG_clean_linker_0, # of connection points: 2
#     Edge 94, Type (0, 1), BuildingBlock: OJICUG_clean_linker_0, # of connection points: 2
#     Edge 95, Type (0, 1), BuildingBlock: OJICUG_clean_linker_0, # of connection points: 2
#     Edge 96, Type (0, 1), BuildingBlock: OJICUG_clean_linker_0, # of connection points: 2
#     Edge 97, Type (0, 1), BuildingBlock: OJICUG_clean_linker_0, # of connection points: 2
#     Edge 98, Type (0, 1), BuildingBlock: OJICUG_clean_linker_0, # of connection points: 2
#     Edge 99, Type (0, 1), BuildingBlock: OJICUG_clean_linker_0, # of connection points: 2
#     Edge 100, Type (0, 1), BuildingBlock: OJICUG_clean_linker_0, # of connection points: 2
#     Edge 101, Type (0, 1), BuildingBlock: OJICUG_clean_linker_0, # of connection points: 2
#     Edge 102, Type (0, 1), BuildingBlock: OJICUG_clean_linker_0, # of connection points: 2
#     Edge 103, Type (0, 1), BuildingBlock: OJICUG_clean_linker_0, # of connection points: 2
#     Edge 104, Type (0, 1), BuildingBlock: OJICUG_clean_linker_0, # of connection points: 2
#     Edge 105, Type (0, 1), BuildingBlock: OJICUG_clean_linker_0, # of connection points: 2
#     Edge 106, Type (0, 1), BuildingBlock: OJICUG_clean_linker_0, # of connection points: 2
#     Edge 107, Type (0, 1), BuildingBlock: OJICUG_clean_linker_0, # of connection points: 2
# Relax obj value: 0.051
# Max RMSD: 0.135
# Mean RMSD: 0.084
data_MOF--net-ptr--node1-KUFVIS_clean_sbu_0--node2-GIZVER_clean_linker_0--edge1-OJICUG_clean_linker_0
_symmetry_space_group_name_H-M    P1
_symmetry_Int_Tables_number       1
_symmetry_cell_setting            triclinic
loop_
_symmetry_equiv_pos_as_xyz
'x, y, z'
_cell_length_a     58.374138
_cell_length_b     58.101788
_cell_length_c     36.366338
_cell_angle_alpha  89.731893
_cell_angle_beta   91.158876
_cell_angle_gamma 119.3566
loop_
_atom_site_label
_atom_site_type_symbol
_atom_site_fract_x
_atom_site_fract_y
_atom_site_fract_z
_atom_type_partial_charge
Mn0 Mn 0.9984 0.37207 -0.00542 0.0
Mn1 Mn 0.05627 0.42245 0.96629 0.0
C2 C 0.99894 0.40074 0.94974 0.0
C3 C 0.9655 0.32795 0.99117 0.0
C4 C 0.03118 0.42305 0.03834 0.0
O5 O 0.0255 0.3621 0.01365 0.0
O6 O 0.06247 0.39488 0.98954 0.0
C7 C 0.06726 0.39415 0.90773 0.0
N8 N 0.06374 0.41461 0.91845 0.0
C9 C 0.07088 0.43213 0.85705 0.0
C10 C 0.07476 0.41134 0.84542 0.0
C11 C 0.07288 0.39225 0.87086 0.0
C12 C 0.06542 0.43305 0.89417 0.0
H13 H 0.06571 0.37936 0.92716 0.0
C14 C 0.05013 0.37325 0.00738 0.0
O15 O 0.96917 0.3419 0.02066 0.0
O16 O 0.98104 0.33941 0.96394 0.0
N17 N 0.05337 0.45048 0.94282 0.0
C18 C 0.04773 0.46845 0.95805 0.0
C19 C 0.0482 0.4886 0.93609 0.0
C20 C 0.05458 0.49018 0.89879 0.0
C21 C 0.06061 0.47165 0.88382 0.0
C22 C 0.06013 0.45218 0.90715 0.0
H23 H 0.04283 0.46738 0.9867 0.0
O24 O 0.97776 0.38651 0.96809 0.0
O25 O 0.01885 0.39724 0.95759 0.0
O26 O 0.01035 0.40089 0.0336 0.0
O27 O 0.04996 0.43265 0.01547 0.0
C28 C 0.06658 0.47143 0.84651 0.0
C29 C 0.07163 0.45163 0.83311 0.0
H30 H 0.07893 0.4097 0.81695 0.0
H31 H 0.07569 0.37605 0.86204 0.0
H32 H 0.04358 0.5028 0.94793 0.0
H33 H 0.05464 0.50556 0.88183 0.0
H34 H 0.0669 0.48612 0.82776 0.0
H35 H 0.07572 0.45138 0.80424 0.0
Mn36 Mn 0.63638 0.63552 0.02596 0.0
Mn37 Mn 0.63479 0.57918 0.05456 0.0
C38 C 0.60728 0.60992 0.07041 0.0
C39 C 0.65309 0.68095 0.0279 0.0
C40 C 0.6088 0.58319 0.98392 0.0
O41 O 0.67057 0.63916 0.00653 0.0
O42 O 0.66817 0.60189 0.02905 0.0
C43 C 0.67774 0.60348 0.11053 0.0
N44 N 0.65237 0.58564 0.10142 0.0
C45 C 0.64362 0.56965 0.16355 0.0
C46 C 0.6697 0.58772 0.17355 0.0
C47 C 0.6868 0.60476 0.14693 0.0
C48 C 0.63571 0.56931 0.12686 0.0
H49 H 0.69092 0.61666 0.09018 0.0
C50 C 0.68003 0.62363 0.01143 0.0
O51 O 0.64114 0.66728 -0.00129 0.0
O52 O 0.6561 0.66841 0.05563 0.0
N53 N 0.6039 0.55495 0.08001 0.0
C54 C 0.57927 0.53899 0.06599 0.0
C55 C 0.5598 0.52072 0.08902 0.0
C56 C 0.56585 0.51878 0.12607 0.0
C57 C 0.59143 0.53513 0.13976 0.0
C58 C 0.61013 0.55277 0.11539 0.0
H59 H 0.5745 0.54023 0.03747 0.0
O60 O 0.60337 0.62688 0.05197 0.0
O61 O 0.62869 0.60914 0.06344 0.0
O62 O 0.61524 0.60736 0.98785 0.0
O63 O 0.61562 0.57061 0.00654 0.0
C64 C 0.59902 0.53485 0.17671 0.0
C65 C 0.62507 0.5522 0.18864 0.0
H66 H 0.67675 0.58881 0.20162 0.0
H67 H 0.70692 0.61885 0.15448 0.0
H68 H 0.54019 0.50823 0.07819 0.0
H69 H 0.55074 0.50469 0.14377 0.0
H70 H 0.58491 0.5216 0.19626 0.0
H71 H 0.6306 0.55204 0.21721 0.0
Mn72 Mn 0.38185 0.99971 0.01574 0.0
Mn73 Mn 0.44346 0.05146 0.02472 0.0
C74 C 0.41231 0.99778 0.05535 0.0
C75 C 0.33853 0.97496 0.03531 0.0
C76 C 0.42534 0.01351 0.96007 0.0
O77 O 0.37759 0.03009 -0.00525 0.0
O78 O 0.4194 0.06314 0.00262 0.0
C79 C 0.43356 0.08251 0.08026 0.0
N80 N 0.44679 0.06986 0.06969 0.0
C81 C 0.47188 0.08139 0.12652 0.0
C82 C 0.45863 0.09468 0.1379 0.0
C83 C 0.43938 0.09522 0.11467 0.0
C84 C 0.46548 0.06936 0.09174 0.0
H85 H 0.41863 0.08286 0.06263 0.0
C86 C 0.39531 0.05441 0.99258 0.0
O87 O 0.34482 0.97213 0.00224 0.0
O88 O 0.35678 0.99361 0.05528 0.0
N89 N 0.46831 0.04268 0.04654 0.0
C90 C 0.47776 0.02726 0.03274 0.0
C91 C 0.49635 0.02367 0.05337 0.0
C92 C 0.50509 0.036 0.08788 0.0
C93 C 0.49519 0.05189 0.10141 0.0
C94 C 0.47688 0.05495 0.07948 0.0
H95 H 0.47096 0.01755 0.00637 0.0
O96 O 0.39269 0.97628 0.04221 0.0
O97 O 0.41379 0.01975 0.04444 0.0
O98 O 0.40165 0.99932 0.97019 0.0
O99 O 0.44245 0.03354 0.97825 0.0
C100 C 0.5023 0.06426 0.13621 0.0
C101 C 0.49066 0.07901 0.14874 0.0
H102 H 0.46287 0.10428 0.16457 0.0
H103 H 0.42897 0.10531 0.12335 0.0
H104 H 0.50382 0.0113 0.04279 0.0
H105 H 0.51921 0.03293 0.10389 0.0
H106 H 0.51637 0.0622 0.15381 0.0
H107 H 0.49598 0.08808 0.17579 0.0
Mn108 Mn 1.00741 0.63764 0.98749 0.0
Mn109 Mn 0.06132 0.63452 0.96281 0.0
C110 C 1.00408 0.60747 0.94385 0.0
C111 C 0.97921 0.65498 0.98027 0.0
C112 C 0.03214 0.61112 0.03328 0.0
O113 O 0.03761 0.67227 0.00732 0.0
O114 O 0.07205 0.66944 0.98555 0.0
C115 C 0.07986 0.67476 0.90405 0.0
N116 N 0.07202 0.64961 0.91516 0.0
C117 C 0.0786 0.63724 0.85485 0.0
C118 C 0.08689 0.66305 0.84282 0.0
C119 C 0.08745 0.68187 0.86751 0.0
C120 C 0.0713 0.63132 0.89159 0.0
H121 H 0.08026 0.68925 0.92293 0.0
C122 C 0.06224 0.68188 0.00224 0.0
O123 O 0.98031 0.64388 0.01083 0.0
O124 O 0.9953 0.65707 0.95472 0.0
N125 N 0.05389 0.60188 0.9401 0.0
C126 C 0.04408 0.57754 0.95557 0.0
C127 C 0.04162 0.55632 0.93431 0.0
C128 C 0.04964 0.5604 0.89759 0.0
C129 C 0.05987 0.58567 0.88235 0.0
C130 C 0.06192 0.60609 0.90491 0.0
H131 H 0.03796 0.57426 0.98381 0.0
O132 O 0.98337 0.60397 0.96099 0.0
O133 O 0.0259 0.62877 0.95208 0.0
O134 O 0.01395 0.61692 0.02776 0.0
O135 O 0.05133 0.61777 0.01161 0.0
C136 C 0.06762 0.59129 0.84547 0.0
C137 C 0.07687 0.61703 0.83169 0.0
H138 H 0.09267 0.66859 0.81462 0.0
H139 H 0.09371 0.7018 0.85837 0.0
H140 H 0.03332 0.53686 0.94617 0.0
H141 H 0.04759 0.54395 0.88126 0.0
H142 H 0.06617 0.57588 0.82732 0.0
H143 H 0.08237 0.62101 0.80314 0.0
Mn144 Mn 0.37519 0.38203 0.00581 0.0
Mn145 Mn 0.43148 0.38418 0.03525 0.0
C146 C 0.4013 0.41187 0.05121 0.0
C147 C 0.32981 0.36476 0.01034 0.0
C148 C 0.42592 0.40678 0.96219 0.0
O149 O 0.37122 0.34699 0.98718 0.0
O150 O 0.40785 0.3492 0.01257 0.0
C151 C 0.41021 0.34446 0.09454 0.0
N152 N 0.42715 0.36946 0.08341 0.0
C153 C 0.44571 0.38216 0.14454 0.0
C154 C 0.42855 0.3565 0.15662 0.0
C155 C 0.41069 0.33759 0.13152 0.0
C156 C 0.44438 0.38782 0.10734 0.0
H157 H 0.39641 0.3299 0.07535 0.0
C158 C 0.3861 0.33701 -0.00569 0.0
O159 O 0.34189 0.37606 0.98038 0.0
O160 O 0.34386 0.36288 0.03701 0.0
N161 N 0.45592 0.41693 0.05819 0.0
C162 C 0.46947 0.44128 0.04278 0.0
C163 C 0.48726 0.46274 0.06459 0.0
C164 C 0.49124 0.45888 0.10184 0.0
C165 C 0.47726 0.43357 0.117 0.0
C166 C 0.45971 0.41295 0.09394 0.0
H167 H 0.46648 0.44436 0.01419 0.0
O168 O 0.38455 0.41593 0.03231 0.0
O169 O 0.402 0.3905 0.04309 0.0
O170 O 0.40236 0.40212 0.96638 0.0
O171 O 0.43824 0.40028 0.98579 0.0
C172 C 0.4795 0.42815 0.1543 0.0
C173 C 0.46365 0.40249 0.16811 0.0
H174 H 0.42875 0.35117 0.18517 0.0
H175 H 0.39729 0.31779 0.14069 0.0
H176 H 0.49761 0.48223 0.05271 0.0
H177 H 0.50468 0.47553 0.11875 0.0
H178 H 0.49301 0.44368 0.17276 0.0
H179 H 0.46513 0.39871 0.19701 0.0
Mn180 Mn 0.63354 0.00519 0.98826 0.0
Mn181 Mn 0.57816 0.94967 0.96214 0.0
C182 C 0.60537 0.007 0.94414 0.0
C183 C 0.67832 0.03505 0.98257 0.0
C184 C 0.5839 0.97821 0.03424 0.0
O185 O 0.6402 0.97557 0.00639 0.0
O186 O 0.60371 0.93989 0.98417 0.0
C187 C 0.59994 0.93224 0.90234 0.0
N188 N 0.5823 0.93945 0.9139 0.0
C189 C 0.56307 0.9334 0.85309 0.0
C190 C 0.58092 0.92575 0.84059 0.0
C191 C 0.59947 0.92522 0.86532 0.0
C192 C 0.56441 0.94009 0.89032 0.0
H193 H 0.61431 0.93193 0.9212 0.0
C194 C 0.62626 0.95066 0.00063 0.0
O195 O 0.66623 0.03335 0.01286 0.0
O196 O 0.66466 0.0189 0.95612 0.0
N197 N 0.55203 0.95644 0.93989 0.0
C198 C 0.53727 0.96582 0.9558 0.0
C199 C 0.51823 0.96827 0.93453 0.0
C200 C 0.51446 0.96094 0.89721 0.0
C201 C 0.52975 0.95116 0.8815 0.0
C202 C 0.54828 0.94895 0.90413 0.0
H203 H 0.54008 0.97151 0.98446 0.0
O204 O 0.62164 0.02813 0.96229 0.0
O205 O 0.60625 0.98567 0.95233 0.0
O206 O 0.60693 0.99725 0.02856 0.0
O207 O 0.5716 0.95889 0.01183 0.0
C208 C 0.52767 0.94399 0.84412 0.0
C209 C 0.54438 0.93521 0.82989 0.0
H210 H 0.58074 0.92048 0.81201 0.0
H211 H 0.61341 0.91948 0.85583 0.0
H212 H 0.50655 0.9759 0.94683 0.0
H213 H 0.49995 0.96312 0.8808 0.0
H214 H 0.51355 0.94552 0.82594 0.0
H215 H 0.54292 0.93021 0.80096 0.0
Mn216 Mn 0.66046 0.70419 0.3291 0.0
Mn217 Mn 0.7174 0.75615 0.30134 0.0
C218 C 0.65996 0.73201 0.28366 0.0
C219 C 0.62894 0.65959 0.32572 0.0
C220 C 0.69102 0.75555 0.37273 0.0
O221 O 0.68859 0.69587 0.34891 0.0
O222 O 0.72496 0.72954 0.32486 0.0
C223 C 0.73076 0.72943 0.24322 0.0
N224 N 0.72595 0.7491 0.25374 0.0
C225 C 0.73339 0.76702 0.19257 0.0
C226 C 0.73858 0.74704 0.18114 0.0
C227 C 0.73719 0.72814 0.20656 0.0
C228 C 0.72715 0.76734 0.22948 0.0
H229 H 0.72962 0.7148 0.26264 0.0
C230 C 0.71327 0.70785 0.34273 0.0
O231 O 0.63181 0.67345 0.35503 0.0
O232 O 0.64454 0.67143 0.29868 0.0
N233 N 0.71313 0.78332 0.27763 0.0
C234 C 0.70579 0.80015 0.29244 0.0
C235 C 0.70525 0.81974 0.27031 0.0
C236 C 0.71261 0.8221 0.23336 0.0
C237 C 0.72033 0.80471 0.2188 0.0
C238 C 0.72055 0.7856 0.24221 0.0
H239 H 0.70014 0.79849 0.32083 0.0
O240 O 0.63883 0.71717 0.30178 0.0
O241 O 0.68045 0.72964 0.29213 0.0
O242 O 0.67081 0.73294 0.3679 0.0
O243 O 0.71 0.76569 0.35024 0.0
C244 C 0.72718 0.80517 0.18176 0.0
C245 C 0.7336 0.78627 0.16862 0.0
H246 H 0.7434 0.74588 0.15284 0.0
H247 H 0.74103 0.71257 0.19789 0.0
H248 H 0.69892 0.83281 0.28166 0.0
H249 H 0.71189 0.83704 0.21628 0.0
H250 H 0.72709 0.81965 0.16298 0.0
H251 H 0.73833 0.78649 0.13992 0.0
Mn252 Mn 0.30227 0.96598 0.35854 0.0
Mn253 Mn 0.30074 0.9096 0.38673 0.0
C254 C 0.27342 0.94039 0.40328 0.0
C255 C 0.31901 0.01144 0.36083 0.0
C256 C 0.27454 0.9137 0.31632 0.0
O257 O 0.33641 0.96966 0.33883 0.0
O258 O 0.33403 0.93231 0.36101 0.0
C259 C 0.34397 0.9337 0.44232 0.0
N260 N 0.31854 0.91595 0.43341 0.0
C261 C 0.31009 0.89981 0.49549 0.0
C262 C 0.33623 0.9178 0.50528 0.0
C263 C 0.35322 0.93486 0.47859 0.0
C264 C 0.30199 0.89957 0.45892 0.0
H265 H 0.35706 0.94692 0.42192 0.0
C266 C 0.34588 0.95412 0.34353 0.0
O267 O 0.30696 0.99785 0.33162 0.0
O268 O 0.3221 0.99878 0.38835 0.0
N269 N 0.26994 0.88543 0.41242 0.0
C270 C 0.24513 0.86979 0.39874 0.0
C271 C 0.2257 0.85168 0.42198 0.0
C272 C 0.23199 0.84949 0.45883 0.0
C273 C 0.25771 0.86557 0.47219 0.0
C274 C 0.27634 0.88313 0.44767 0.0
H275 H 0.24018 0.87122 0.37037 0.0
O276 O 0.26936 0.9573 0.38495 0.0
O277 O 0.29476 0.93959 0.39593 0.0
O278 O 0.28099 0.93788 0.32033 0.0
O279 O 0.28137 0.9011 0.33888 0.0
C280 C 0.2655 0.86517 0.50901 0.0
C281 C 0.29164 0.88237 0.52069 0.0
H282 H 0.34343 0.9188 0.53325 0.0
H283 H 0.37339 0.94889 0.48597 0.0
H284 H 0.20591 0.83955 0.41155 0.0
H285 H 0.21693 0.83551 0.47666 0.0
H286 H 0.25145 0.85196 0.52866 0.0
H287 H 0.29732 0.88213 0.54917 0.0
Mn288 Mn 0.05069 0.33714 0.35031 0.0
Mn289 Mn 0.1126 0.38836 0.35874 0.0
C290 C 0.08107 0.33474 0.38954 0.0
C291 C 1.00739 0.31291 0.37009 0.0
C292 C 0.09371 0.35037 0.29408 0.0
O293 O 0.04679 0.36779 0.32956 0.0
O294 O 0.08876 0.40054 0.33717 0.0
C295 C 0.10359 0.41976 0.41476 0.0
N296 N 0.11646 0.40682 0.40384 0.0
C297 C 0.1418 0.41793 0.46044 0.0
C298 C 0.12894 0.43152 0.47215 0.0
C299 C 0.10975 0.43241 0.44922 0.0
C300 C 0.1351 0.40598 0.42561 0.0
H301 H 0.08869 0.42037 0.39736 0.0
C302 C 0.06466 0.39204 0.32744 0.0
O303 O 0.01351 0.30998 0.33696 0.0
O304 O 0.02585 0.33136 0.39007 0.0
N305 N 0.13724 0.3791 0.38009 0.0
C306 C 0.14625 0.36339 0.36602 0.0
C307 C 0.16471 0.35941 0.38635 0.0
C308 C 0.17375 0.37165 0.42086 0.0
C309 C 0.1643 0.38783 0.43469 0.0
C310 C 0.1461 0.39128 0.41303 0.0
H311 H 0.1392 0.35374 0.33966 0.0
O312 O 0.06121 0.31339 0.37651 0.0
O313 O 0.08282 0.35686 0.37874 0.0
O314 O 0.07008 0.33641 0.30454 0.0
O315 O 0.11109 0.37035 0.31206 0.0
C316 C 0.17171 0.40013 0.46951 0.0
C317 C 0.16049 0.41518 0.48237 0.0
H318 H 0.13343 0.44108 0.49887 0.0
H319 H 0.09962 0.44273 0.45816 0.0
H320 H 0.17183 0.3468 0.37555 0.0
H321 H 0.18777 0.36828 0.43664 0.0
H322 H 0.18571 0.39778 0.48689 0.0
H323 H 0.16604 0.42418 0.50943 0.0
Mn324 Mn 0.67861 0.97557 0.32144 0.0
Mn325 Mn 0.73355 0.97428 0.29708 0.0
C326 C 0.67614 0.94461 0.27977 0.0
C327 C 0.64877 0.99085 0.31314 0.0
C328 C 0.70602 0.95251 0.3691 0.0
O329 O 0.70798 0.0114 0.339 0.0
O330 O 0.74307 0.00936 0.31818 0.0
C331 C 0.74969 0.01298 0.23644 0.0
N332 N 0.74304 0.98834 0.24868 0.0
C333 C 0.74884 0.97496 0.18861 0.0
C334 C 0.75591 1.00025 0.17542 0.0
C335 C 0.75629 0.01932 0.19943 0.0
C336 C 0.74254 0.96983 0.22579 0.0
H337 H 0.74989 0.02766 0.25476 0.0
C338 C 0.73266 0.02161 0.33386 0.0
O339 O 0.65088 0.98105 0.34436 0.0
O340 O 0.66468 0.99274 0.28742 0.0
N341 N 0.72722 0.94155 0.27587 0.0
C342 C 0.71896 0.91782 0.29259 0.0
C343 C 0.71709 0.89649 0.27223 0.0
C344 C 0.72388 0.89978 0.23499 0.0
C345 C 0.73263 0.92447 0.21849 0.0
C346 C 0.73437 0.9451 0.24027 0.0
H347 H 0.71373 0.91514 0.32122 0.0
O348 O 0.65537 0.94068 0.29717 0.0
O349 O 0.69748 0.96669 0.28672 0.0
O350 O 0.68718 0.9573 0.36309 0.0
O351 O 0.72481 0.95872 0.34682 0.0
C352 C 0.73929 0.9293 0.18114 0.0
C353 C 0.74731 0.95451 0.16618 0.0
H354 H 0.76089 0.00518 0.14685 0.0
H355 H 0.7616 0.03884 0.1894 0.0
H356 H 0.71034 0.87756 0.28525 0.0
H357 H 0.72217 0.88322 0.21928 0.0
H358 H 0.73796 0.91367 0.16356 0.0
H359 H 0.75201 0.95788 0.13731 0.0
Mn360 Mn 0.04144 0.71582 0.3387 0.0
Mn361 Mn 0.09492 0.71226 0.36764 0.0
C362 C 0.06811 0.74332 0.38547 0.0
C363 C 0.99632 0.7005 0.3424 0.0
C364 C 0.09198 0.7379 0.29572 0.0
O365 O 0.03602 0.68114 0.3169 0.0
O366 O 0.06928 0.67785 0.3448 0.0
C367 C 0.07154 0.67274 0.42683 0.0
N368 N 0.0898 0.69728 0.41571 0.0
C369 C 0.10874 0.70891 0.47679 0.0
C370 C 0.09025 0.6837 0.48884 0.0
C371 C 0.07154 0.66556 0.46376 0.0
C372 C 0.10787 0.71489 0.43961 0.0
H373 H 0.05705 0.65881 0.40766 0.0
C374 C 0.04847 0.66862 0.32439 0.0
O375 O 0.00917 0.71259 0.31328 0.0
O376 O 0.00946 0.69677 0.3687 0.0
N377 N 0.12113 0.74417 0.39057 0.0
C378 C 0.13609 0.7683 0.37517 0.0
C379 C 0.15498 0.78908 0.39692 0.0
C380 C 0.15853 0.78478 0.43416 0.0
C381 C 0.14304 0.7597 0.44932 0.0
C382 C 0.12454 0.73972 0.42625 0.0
H383 H 0.13345 0.77177 0.34662 0.0
O384 O 0.05217 0.74906 0.36748 0.0
O385 O 0.06736 0.72141 0.37608 0.0
O386 O 0.06961 0.73615 0.30078 0.0
O387 O 0.1025 0.72856 0.31814 0.0
C388 C 0.14472 0.75394 0.48664 0.0
C389 C 0.12753 0.72858 0.50039 0.0
H390 H 0.09004 0.67815 0.51737 0.0
H391 H 0.0571 0.64612 0.47292 0.0
H392 H 0.16653 0.80837 0.38494 0.0
H393 H 0.17285 0.80094 0.45101 0.0
H394 H 0.1588 0.76901 0.50516 0.0
H395 H 0.12864 0.72455 0.52929 0.0
Mn396 Mn 0.30008 0.33618 0.32333 0.0
Mn397 Mn 0.24446 0.2809 0.29723 0.0
C398 C 0.27203 0.33824 0.27931 0.0
C399 C 0.34488 0.36581 0.31758 0.0
C400 C 0.25037 0.30958 0.36922 0.0
O401 O 0.30651 0.30642 0.3414 0.0
O402 O 0.2698 0.27089 0.31939 0.0
C403 C 0.26614 0.26322 0.23758 0.0
N404 N 0.24859 0.27058 0.24905 0.0
C405 C 0.22944 0.26457 0.18818 0.0
C406 C 0.24721 0.25676 0.17579 0.0
C407 C 0.26567 0.25614 0.20059 0.0
C408 C 0.23079 0.27132 0.22539 0.0
H409 H 0.28045 0.26285 0.25651 0.0
C410 C 0.29239 0.28152 0.33573 0.0
O411 O 0.33287 0.36419 0.34791 0.0
O412 O 0.33115 0.34969 0.29115 0.0
N413 N 0.2185 0.28786 0.27483 0.0
C414 C 0.20378 0.29733 0.29066 0.0
C415 C 0.1848 0.29982 0.26932 0.0
C416 C 0.18103 0.29244 0.23202 0.0
C417 C 0.19627 0.28257 0.2164 0.0
C418 C 0.21475 0.28032 0.2391 0.0
H419 H 0.20658 0.30304 0.31931 0.0
O420 O 0.28841 0.35932 0.29746 0.0
O421 O 0.27274 0.31681 0.28743 0.0
O422 O 0.27353 0.32842 0.36363 0.0
O423 O 0.23793 0.29029 0.34683 0.0
C424 C 0.19417 0.27531 0.17905 0.0
C425 C 0.21082 0.26643 0.16492 0.0
H426 H 0.24701 0.25143 0.14723 0.0
H427 H 0.27954 0.25029 0.19118 0.0
H428 H 0.17316 0.30752 0.28156 0.0
H429 H 0.16655 0.29463 0.21557 0.0
H430 H 0.18007 0.27684 0.16083 0.0
H431 H 0.20934 0.26136 0.13601 0.0
Mn432 Mn 0.32772 0.03609 0.66361 0.0
Mn433 Mn 0.38429 0.08866 0.63622 0.0
C434 C 0.32684 0.06364 0.61808 0.0
C435 C 0.29684 0.99132 0.66012 0.0
C436 C 0.35748 0.08736 0.70751 0.0
O437 O 0.35623 0.02839 0.68356 0.0
O438 O 0.39238 0.06231 0.65943 0.0
C439 C 0.39852 0.06288 0.57778 0.0
N440 N 0.39318 0.08215 0.58852 0.0
C441 C 0.40049 0.10043 0.52757 0.0
C442 C 0.40622 0.08087 0.51591 0.0
C443 C 0.40516 0.06198 0.54112 0.0
C444 C 0.39407 0.10038 0.56448 0.0
H445 H 0.39764 0.04827 0.59704 0.0
C446 C 0.3809 0.04059 0.67729 0.0
O447 O 0.29934 0.00507 0.68941 0.0
O448 O 0.31243 1.00338 0.63315 0.0
N449 N 0.37941 0.11556 0.61281 0.0
C450 C 0.3714 0.13183 0.62776 0.0
C451 C 0.37032 0.15122 0.6058 0.0
C452 C 0.37787 0.15397 0.5689 0.0
C453 C 0.38627 0.13717 0.5542 0.0
C454 C 0.38694 0.11819 0.57741 0.0
H455 H 0.36559 0.12984 0.6561 0.0
O456 O 0.30572 0.04853 0.63607 0.0
O457 O 0.34753 0.06171 0.62677 0.0
O458 O 0.33743 0.06468 0.70243 0.0
O459 O 0.37657 0.09773 0.68522 0.0
C460 C 0.39332 0.13802 0.51718 0.0
C461 C 0.40032 0.1196 0.50383 0.0
H462 H 0.41119 0.08 0.4876 0.0
H463 H 0.40941 0.04673 0.53227 0.0
H464 H 0.36341 0.16378 0.61723 0.0
H465 H 0.3767 0.16873 0.55193 0.0
H466 H 0.39293 0.15244 0.49856 0.0
H467 H 0.40517 0.1201 0.47514 0.0
Mn468 Mn 0.97052 0.3036 0.69185 0.0
Mn469 Mn 0.96856 0.24725 0.72117 0.0
C470 C 0.9414 0.27841 0.73654 0.0
C471 C 0.98744 0.34906 0.69324 0.0
C472 C 0.94253 0.25103 0.65045 0.0
O473 O 1.0046 0.30691 0.6725 0.0
O474 O 1.00191 0.2696 0.69537 0.0
C475 C 0.0117 0.2717 0.77683 0.0
N476 N 0.98628 0.25392 0.76795 0.0
C477 C 0.97764 0.23837 0.8303 0.0
C478 C 1.00379 0.25639 0.84007 0.0
C479 C 0.02086 0.27317 0.81323 0.0
C480 C 0.96964 0.23783 0.79361 0.0
H481 H 0.02486 0.2847 0.75632 0.0
C482 C 0.01389 0.29125 0.67757 0.0
O483 O 0.9754 0.33525 0.66419 0.0
O484 O 0.99042 0.33663 0.72114 0.0
N485 N 0.9377 0.22336 0.74694 0.0
C486 C 0.91298 0.20748 0.73315 0.0
C487 C 0.89351 0.18949 0.75644 0.0
C488 C 0.89966 0.1877 0.7935 0.0
C489 C 0.92531 0.20397 0.80695 0.0
C490 C 0.944 0.22135 0.78235 0.0
H491 H 0.90812 0.2086 0.70463 0.0
O492 O 0.93759 0.29534 0.71784 0.0
O493 O 0.96272 0.27743 0.72967 0.0
O494 O 0.94919 0.27528 0.65405 0.0
O495 O 0.94924 0.23847 0.67326 0.0
C496 C 0.933 0.20388 0.84391 0.0
C497 C 0.95912 0.22117 0.85562 0.0
H498 H 0.01091 0.25762 0.86812 0.0
H499 H 0.04103 0.28722 0.8206 0.0
H500 H 0.87382 0.17712 0.74581 0.0
H501 H 0.88455 0.17381 0.81138 0.0
H502 H 0.9189 0.19083 0.86363 0.0
H503 H 0.96472 0.22117 0.8842 0.0
Mn504 Mn 0.71507 0.66879 0.68238 0.0
Mn505 Mn 0.77695 0.72005 0.69104 0.0
C506 C 0.74529 0.66652 0.72201 0.0
C507 C 0.67174 0.64477 0.7021 0.0
C508 C 0.75834 0.68185 0.62665 0.0
O509 O 0.71126 0.69931 0.66107 0.0
O510 O 0.75319 0.73209 0.66885 0.0
C511 C 0.76762 0.75161 0.74641 0.0
N512 N 0.78058 0.73867 0.73591 0.0
C513 C 0.8057 0.75005 0.79271 0.0
C514 C 0.79274 0.76365 0.804 0.0
C515 C 0.77361 0.76441 0.78076 0.0
C516 C 0.79914 0.73795 0.75797 0.0
H517 H 0.75278 0.75212 0.72876 0.0
C518 C 0.72914 0.72354 0.65877 0.0
O519 O 0.67787 0.64157 0.66909 0.0
O520 O 0.6902 0.66332 0.72192 0.0
N521 N 0.80154 0.71093 0.71291 0.0
C522 C 0.81071 0.69526 0.69918 0.0
C523 C 0.82915 0.69144 0.71984 0.0
C524 C 0.83802 0.70381 0.75429 0.0
C525 C 0.82843 0.71997 0.76775 0.0
C526 C 0.81025 0.72326 0.74579 0.0
H527 H 0.8038 0.68551 0.67285 0.0
O528 O 0.72546 0.64512 0.70906 0.0
O529 O 0.74709 0.6886 0.71095 0.0
O530 O 0.73465 0.66788 0.63689 0.0
O531 O 0.77562 0.70187 0.64467 0.0
C532 C 0.83568 0.73242 0.80249 0.0
C533 C 0.82434 0.74746 0.81495 0.0
H534 H 0.79711 0.77332 0.83064 0.0
H535 H 0.76342 0.77473 0.78938 0.0
H536 H 0.83639 0.67886 0.70932 0.0
H537 H 0.85202 0.70057 0.77032 0.0
H538 H 0.84966 0.73019 0.82011 0.0
H539 H 0.82977 0.75658 0.84195 0.0
Mn540 Mn 0.34446 0.30621 0.65548 0.0
Mn541 Mn 0.39978 0.30554 0.63142 0.0
C542 C 0.34242 0.27544 0.61379 0.0
C543 C 0.31442 0.32125 0.64709 0.0
C544 C 0.37206 0.28333 0.70319 0.0
O545 O 0.37354 0.34213 0.67325 0.0
O546 O 0.40888 0.3404 0.65287 0.0
C547 C 0.41578 0.3446 0.57124 0.0
N548 N 0.40935 0.31995 0.5832 0.0
C549 C 0.41553 0.3071 0.52298 0.0
C550 C 0.42238 0.3324 0.51008 0.0
C551 C 0.42245 0.35121 0.53431 0.0
C552 C 0.40914 0.30168 0.56009 0.0
H553 H 0.41574 0.35907 0.58972 0.0
C554 C 0.39826 0.35249 0.66839 0.0
O555 O 0.31648 0.31138 0.67827 0.0
O556 O 0.33041 0.32326 0.62143 0.0
N557 N 0.39392 0.27308 0.60984 0.0
C558 C 0.38595 0.24932 0.62633 0.0
C559 C 0.38449 0.22824 0.60575 0.0
C560 C 0.39135 0.23183 0.56853 0.0
C561 C 0.39981 0.25654 0.55229 0.0
C562 C 0.40119 0.27692 0.5743 0.0
H563 H 0.38068 0.24643 0.65493 0.0
O564 O 0.32153 0.27131 0.63105 0.0
O565 O 0.36363 0.29763 0.62085 0.0
O566 O 0.35317 0.28805 0.69714 0.0
O567 O 0.39092 0.28966 0.68098 0.0
C568 C 0.40655 0.26165 0.515 0.0
C569 C 0.41433 0.28689 0.50033 0.0
H570 H 0.42742 0.33754 0.48158 0.0
H571 H 0.42758 0.37073 0.5245 0.0
H572 H 0.37804 0.20931 0.61858 0.0
H573 H 0.38997 0.21548 0.55264 0.0
H574 H 0.40548 0.24622 0.49725 0.0
H575 H 0.41911 0.29048 0.4715 0.0
Mn576 Mn 0.70958 0.05038 0.67177 0.0
Mn577 Mn 0.76558 0.05212 0.70182 0.0
C578 C 0.73572 0.08028 0.71708 0.0
C579 C 0.66422 0.03343 0.676 0.0
C580 C 0.76044 0.07462 0.62843 0.0
O581 O 0.70538 0.01518 0.65348 0.0
O582 O 0.74183 0.01716 0.67921 0.0
C583 C 0.74384 0.01258 0.76126 0.0
N584 N 0.76096 0.03751 0.75007 0.0
C585 C 0.77927 0.05027 0.81131 0.0
C586 C 0.76193 0.02469 0.82345 0.0
C587 C 0.7441 0.00578 0.79833 0.0
C588 C 0.77817 0.05586 0.77403 0.0
H589 H 0.73005 0.99802 0.74205 0.0
C590 C 0.72013 0.00506 0.66081 0.0
O591 O 0.67642 0.04457 0.64605 0.0
O592 O 0.67813 0.03151 0.70285 0.0
N593 N 0.79012 0.08485 0.72469 0.0
C594 C 0.80389 0.10913 0.70917 0.0
C595 C 0.82169 0.13059 0.73097 0.0
C596 C 0.82545 0.1268 0.76833 0.0
C597 C 0.81124 0.10156 0.7836 0.0
C598 C 0.7937 0.08093 0.76054 0.0
H599 H 0.80106 0.11217 0.6805 0.0
O600 O 0.71911 0.08442 0.69795 0.0
O601 O 0.73626 0.05878 0.70924 0.0
O602 O 0.73693 0.07016 0.63242 0.0
O603 O 0.7726 0.06809 0.65226 0.0
C604 C 0.81324 0.09621 0.82101 0.0
C605 C 0.79718 0.07062 0.8349 0.0
H606 H 0.76194 0.01942 0.85206 0.0
H607 H 0.73055 0.98604 0.80753 0.0
H608 H 0.83222 0.15003 0.71898 0.0
H609 H 0.83889 0.14345 0.78524 0.0
H610 H 0.8267 0.11175 0.83949 0.0
H611 H 0.79848 0.0669 0.86387 0.0
Mn612 Mn 0.96585 0.67224 0.65445 0.0
Mn613 Mn 0.91022 0.61724 0.62768 0.0
C614 C 0.93806 0.67471 0.61026 0.0
C615 C 0.01079 0.70143 0.64948 0.0
C616 C 0.91615 0.64543 0.70019 0.0
O617 O 0.97197 0.64222 0.67226 0.0
O618 O 0.93551 0.60694 0.64919 0.0
C619 C 0.93164 0.59992 0.56729 0.0
N620 N 0.91418 0.60727 0.5792 0.0
C621 C 0.89484 0.60168 0.51853 0.0
C622 C 0.91251 0.59389 0.50568 0.0
C623 C 0.93102 0.59306 0.53016 0.0
C624 C 0.89634 0.60822 0.55585 0.0
H625 H 0.94599 0.59937 0.58597 0.0
C626 C 0.95798 0.61741 0.66584 0.0
O627 O 0.99858 0.69984 0.67959 0.0
O628 O 0.99712 0.68569 0.62266 0.0
N629 N 0.88431 0.62453 0.60584 0.0
C630 C 0.86976 0.63402 0.62209 0.0
C631 C 0.85077 0.63675 0.6011 0.0
C632 C 0.84684 0.62958 0.56372 0.0
C633 C 0.86192 0.61969 0.54766 0.0
C634 C 0.88042 0.61722 0.57001 0.0
H635 H 0.87268 0.63956 0.65081 0.0
O636 O 0.95449 0.69567 0.6286 0.0
O637 O 0.9386 0.65317 0.61828 0.0
O638 O 0.93919 0.66444 0.69457 0.0
O639 O 0.9038 0.6262 0.67766 0.0
C640 C 0.85964 0.61262 0.51021 0.0
C641 C 0.87617 0.60374 0.49562 0.0
H642 H 0.91219 0.58873 0.47702 0.0
H643 H 0.94482 0.58722 0.5204 0.0
H644 H 0.83925 0.64446 0.61368 0.0
H645 H 0.83235 0.63195 0.54755 0.0
H646 H 0.84551 0.6143 0.49226 0.0
H647 H 0.87457 0.59884 0.46664 0.0
H648 H 0.148 0.31695 0.16097 0.0
H649 H 0.13487 0.32938 0.04689 0.0
H650 H 0.09413 0.34441 0.13235 0.0
H651 H 0.15532 0.29261 0.10647 0.0
H652 H 0.15704 0.30502 0.06122 0.0
H653 H 0.18909 0.32668 0.15616 0.0
H654 H 0.26665 0.36254 0.11339 0.0
H655 H 0.20018 0.32827 0.03914 0.0
C656 C 0.13938 0.32383 0.1401 0.0
C657 C 0.12125 0.33166 0.15079 0.0
C658 C 0.14494 0.32334 0.10256 0.0
C659 C 0.13157 0.33047 0.07589 0.0
C660 C 0.11264 0.33731 0.08663 0.0
C661 C 0.10813 0.33834 0.12399 0.0
C662 C 0.16141 0.31108 0.09064 0.0
C663 C 0.1909 0.32849 0.09669 0.0
C664 C 0.20173 0.33395 0.13276 0.0
C665 C 0.229 0.3459 0.13887 0.0
C666 C 0.24557 0.35372 0.10873 0.0
C667 C 0.2354 0.34683 0.07294 0.0
C668 C 0.20807 0.33459 0.06675 0.0
H669 H 0.67599 0.82026 0.16525 0.0
H670 H 0.68386 0.81089 0.04957 0.0
H671 H 0.64152 0.74284 0.11684 0.0
H672 H 0.71131 0.85611 0.12312 0.0
H673 H 0.70485 0.85389 0.07489 0.0
H674 H 0.68559 0.86641 0.16602 0.0
H675 H 0.64635 0.90616 0.11974 0.0
H676 H 0.67351 0.86637 0.04846 0.0
C677 C 0.67051 0.80768 0.14113 0.0
C678 C 0.65787 0.78007 0.14534 0.0
C679 C 0.67855 0.81908 0.106 0.0
C680 C 0.67507 0.80249 0.0757 0.0
C681 C 0.66197 0.77503 0.08 0.0
C682 C 0.6514 0.76416 0.11391 0.0
C683 C 0.69516 0.8487 0.10204 0.0
C684 C 0.67956 0.86293 0.10692 0.0
C685 C 0.67692 0.87094 0.14239 0.0
C686 C 0.66537 0.88694 0.14693 0.0
C687 C 0.6551 0.89359 0.11627 0.0
C688 C 0.65836 0.88675 0.08086 0.0
C689 C 0.67031 0.87108 0.076 0.0
H690 H 0.1811 0.79847 0.17374 0.0
H691 H 0.16861 0.79164 0.05633 0.0
H692 H 0.10369 0.75278 0.12957 0.0
H693 H 0.21752 0.80539 0.12357 0.0
H694 H 0.21233 0.81444 0.0786 0.0
H695 H 0.21601 0.83375 0.17876 0.0
H696 H 0.25402 0.91603 0.15725 0.0
H697 H 0.23743 0.86084 0.06845 0.0
C698 C 0.16826 0.79273 0.14995 0.0
C699 C 0.14117 0.77727 0.15554 0.0
C700 C 0.17847 0.79952 0.11421 0.0
C701 C 0.16099 0.78821 0.08393 0.0
C702 C 0.134 0.77086 0.08923 0.0
C703 C 0.12426 0.76659 0.12502 0.0
C704 C 0.20807 0.81518 0.10811 0.0
C705 C 0.22102 0.84379 0.12109 0.0
C706 C 0.22251 0.84933 0.15888 0.0
C707 C 0.23406 0.87523 0.17189 0.0
C708 C 0.2453 0.89599 0.14689 0.0
C709 C 0.24903 0.89138 0.11014 0.0
C710 C 0.23542 0.86504 0.09679 0.0
H711 H 0.39388 0.21795 0.83168 0.0
H712 H 0.38592 0.22674 0.9474 0.0
H713 H 0.36208 0.26609 0.86748 0.0
H714 H 0.42162 0.21124 0.8819 0.0
H715 H 0.41128 0.20729 0.92829 0.0
H716 H 0.38359 0.17694 0.83355 0.0
H717 H 0.3597 0.09889 0.871 0.0
H718 H 0.39289 0.16351 0.94811 0.0
C719 C 0.3865 0.22463 0.85382 0.0
C720 C 0.37543 0.24071 0.84547 0.0
C721 C 0.38925 0.21835 0.8905 0.0
C722 C 0.38234 0.23006 0.91903 0.0
C723 C 0.37277 0.24764 0.91102 0.0
C724 C 0.3685 0.25191 0.87415 0.0
C725 C 0.40391 0.20337 0.89927 0.0
C726 C 0.38812 0.17375 0.89229 0.0
C727 C 0.38019 0.16378 0.85628 0.0
C728 C 0.36927 0.13673 0.84873 0.0
C729 C 0.36641 0.11946 0.87742 0.0
C730 C 0.37518 0.12886 0.91324 0.0
C731 C 0.38551 0.156 0.92067 0.0
H732 H 0.85925 0.19066 0.84487 0.0
H733 H 0.8649 0.19948 0.96285 0.0
H734 H 0.90066 0.26773 0.894 0.0
H735 H 0.8519 0.1537 0.88785 0.0
H736 H 0.84829 0.15665 0.93574 0.0
H737 H 0.81665 0.15272 0.8426 0.0
H738 H 0.73884 0.10557 0.88374 0.0
H739 H 0.80504 0.13484 0.95817 0.0
C740 C 0.86441 0.20317 0.86903 0.0
C741 C 0.88066 0.23058 0.86543 0.0
C742 C 0.8573 0.19169 0.90422 0.0
C743 C 0.86763 0.20811 0.93572 0.0
C744 C 0.88326 0.23558 0.93184 0.0
C745 C 0.8879 0.24657 0.89678 0.0
C746 C 0.84372 0.16189 0.90814 0.0
C747 C 0.81415 0.14836 0.9018 0.0
C748 C 0.80358 0.14496 0.86563 0.0
C749 C 0.77644 0.12883 0.8589 0.0
C750 C 0.75981 0.11808 0.88877 0.0
C751 C 0.76995 0.11913 0.92416 0.0
C752 C 0.79709 0.13474 0.93095 0.0
H753 H 0.83529 0.62093 0.83636 0.0
H754 H 0.86115 0.64082 0.94928 0.0
H755 H 0.91742 0.66253 0.86312 0.0
H756 H 0.80588 0.59731 0.88962 0.0
H757 H 0.8162 0.6094 0.93544 0.0
H758 H 0.81079 0.64005 0.84484 0.0
H759 H 0.75266 0.65707 0.88606 0.0
H760 H 0.78731 0.62324 0.95771 0.0
C761 C 0.85094 0.63096 0.85662 0.0
C762 C 0.87711 0.64385 0.84524 0.0
C763 C 0.84495 0.63074 0.89404 0.0
C764 C 0.86563 0.642 0.92034 0.0
C765 C 0.89197 0.65329 0.90956 0.0
C766 C 0.89734 0.6547 0.87188 0.0
C767 C 0.81669 0.61566 0.90637 0.0
C768 C 0.80193 0.631 0.90225 0.0
C769 C 0.7998 0.6409 0.86772 0.0
C770 C 0.78242 0.65075 0.86177 0.0
C771 C 0.76743 0.65121 0.89108 0.0
C772 C 0.76922 0.64173 0.92588 0.0
C773 C 0.78654 0.63158 0.93131 0.0
H774 H 0.8138 0.65159 0.49131 0.0
H775 H 0.80093 0.66695 0.37844 0.0
H776 H 0.75887 0.67822 0.4657 0.0
H777 H 0.82221 0.62948 0.43523 0.0
H778 H 0.82394 0.64309 0.39081 0.0
H779 H 0.8554 0.66381 0.48658 0.0
H780 H 0.9332 0.69993 0.44465 0.0
H781 H 0.86718 0.66607 0.36968 0.0
C782 C 0.80509 0.65884 0.4711 0.0
C783 C 0.78651 0.66577 0.48267 0.0
C784 C 0.81102 0.65968 0.43348 0.0
C785 C 0.79742 0.66712 0.40756 0.0
C786 C 0.77798 0.67301 0.41914 0.0
C787 C 0.77321 0.67282 0.45663 0.0
C788 C 0.82807 0.64833 0.42051 0.0
C789 C 0.85751 0.66595 0.42711 0.0
C790 C 0.86814 0.6712 0.46332 0.0
C791 C 0.89539 0.68311 0.46974 0.0
C792 C 0.91215 0.69117 0.43978 0.0
C793 C 0.90219 0.68455 0.40386 0.0
C794 C 0.87489 0.67227 0.39739 0.0
H795 H 0.34221 0.15103 0.49886 0.0
H796 H 0.34996 0.14133 0.38322 0.0
H797 H 0.30818 0.07347 0.45106 0.0
H798 H 0.37767 0.18669 0.45642 0.0
H799 H 0.37088 0.18443 0.40828 0.0
H800 H 0.35244 0.19731 0.49982 0.0
H801 H 0.31273 0.23681 0.45426 0.0
H802 H 0.33935 0.19684 0.38244 0.0
C803 C 0.33676 0.13838 0.47482 0.0
C804 C 0.32427 0.11081 0.47922 0.0
C805 C 0.34476 0.14967 0.43963 0.0
C806 C 0.34127 0.133 0.40943 0.0
C807 C 0.3283 0.10555 0.41391 0.0
C808 C 0.31789 0.09478 0.44794 0.0
C809 C 0.36137 0.17929 0.43556 0.0
C810 C 0.34588 0.19358 0.4408 0.0
C811 C 0.34357 0.20175 0.47634 0.0
C812 C 0.33202 0.21773 0.48111 0.0
C813 C 0.32148 0.22425 0.45063 0.0
C814 C 0.32446 0.21732 0.41515 0.0
C815 C 0.33637 0.20164 0.41006 0.0
H816 H 0.84926 0.13606 0.50685 0.0
H817 H 0.83749 0.13174 0.38939 0.0
H818 H 0.77206 0.09132 0.46139 0.0
H819 H 0.8858 0.14354 0.45728 0.0
H820 H 0.88102 0.1529 0.41227 0.0
H821 H 0.88405 0.17159 0.51247 0.0
H822 H 0.92238 0.25401 0.492 0.0
H823 H 0.90612 0.19934 0.40256 0.0
C824 C 0.83651 0.13075 0.48299 0.0
C825 C 0.80934 0.11528 0.48818 0.0
C826 C 0.84695 0.13813 0.44746 0.0
C827 C 0.82966 0.12768 0.41688 0.0
C828 C 0.80264 0.11028 0.42162 0.0
C829 C 0.79265 0.10525 0.45731 0.0
C830 C 0.87658 0.15352 0.44173 0.0
C831 C 0.88954 0.18202 0.45497 0.0
C832 C 0.89078 0.18732 0.49278 0.0
C833 C 0.90231 0.21312 0.50607 0.0
C834 C 0.91371 0.23405 0.48136 0.0
C835 C 0.91756 0.22966 0.44456 0.0
C836 C 0.90402 0.2034 0.43093 0.0
H837 H 0.0555 0.54649 0.16134 0.0
H838 H 0.05833 0.56876 0.27402 0.0
H839 H 0.0133 0.58524 0.19328 0.0
H840 H 0.09087 0.55058 0.21213 0.0
H841 H 0.08022 0.54527 0.25839 0.0
H842 H 0.06186 0.51397 0.16288 0.0
H843 H 0.03397 0.43613 0.2036 0.0
H844 H 0.06112 0.50116 0.27972 0.0
C845 C 0.04827 0.55352 0.18308 0.0
C846 C 0.03345 0.56567 0.17335 0.0
C847 C 0.05537 0.55239 0.21993 0.0
C848 C 0.04998 0.56667 0.24661 0.0
C849 C 0.03597 0.58005 0.2369 0.0
C850 C 0.02542 0.57662 0.20097 0.0
C851 C 0.07309 0.54067 0.22933 0.0
C852 C 0.06047 0.51103 0.22235 0.0
C853 C 0.0561 0.50093 0.18615 0.0
C854 C 0.04522 0.4738 0.17946 0.0
C855 C 0.04048 0.45677 0.20913 0.0
C856 C 0.04689 0.46646 0.24524 0.0
C857 C 0.0561 0.49354 0.25185 0.0
H858 H 0.52553 0.52138 0.17852 0.0
H859 H 0.53038 0.53027 0.29651 0.0
H860 H 0.56633 0.59849 0.22762 0.0
H861 H 0.51782 0.48443 0.22137 0.0
H862 H 0.51449 0.48747 0.26934 0.0
H863 H 0.48237 0.48384 0.17664 0.0
H864 H 0.40481 0.43633 0.21841 0.0
H865 H 0.47139 0.46547 0.29213 0.0
C866 C 0.53052 0.5339 0.20265 0.0
C867 C 0.54663 0.56132 0.19906 0.0
C868 C 0.52328 0.52243 0.23783 0.0
C869 C 0.53329 0.53888 0.26934 0.0
C870 C 0.54882 0.56635 0.26545 0.0
C871 C 0.55366 0.57731 0.23038 0.0
C872 C 0.50977 0.49266 0.2418 0.0
C873 C 0.48018 0.47916 0.23579 0.0
C874 C 0.46943 0.47593 0.19977 0.0
C875 C 0.44226 0.45979 0.19327 0.0
C876 C 0.4258 0.44887 0.22327 0.0
C877 C 0.43613 0.44985 0.25851 0.0
C878 C 0.46329 0.46545 0.26504 0.0
H879 H 0.50303 0.9536 0.17062 0.0
H880 H 0.52938 0.97412 0.28329 0.0
H881 H 0.58525 0.99605 0.19655 0.0
H882 H 0.47402 0.92998 0.22441 0.0
H883 H 0.4844 0.94264 0.26998 0.0
H884 H 0.47856 0.97265 0.17889 0.0
H885 H 0.41924 0.98821 0.21919 0.0
H886 H 0.4544 0.95529 0.2915 0.0
C887 C 0.51874 0.96387 0.19071 0.0
C888 C 0.54484 0.97693 0.17908 0.0
C889 C 0.51289 0.96378 0.22818 0.0
C890 C 0.53371 0.97525 0.25429 0.0
C891 C 0.56001 0.98674 0.24323 0.0
C892 C 0.56518 0.98806 0.20551 0.0
C893 C 0.48468 0.94854 0.24077 0.0
C894 C 0.46947 0.96342 0.23626 0.0
C895 C 0.4673 0.97321 0.20163 0.0
C896 C 0.44957 0.9826 0.19538 0.0
C897 C 0.43424 0.9827 0.22444 0.0
C898 C 0.43601 0.9733 0.2593 0.0
C899 C 0.45366 0.96359 0.26506 0.0
H900 H 0.48109 0.98348 0.82469 0.0
H901 H 0.46868 0.99952 0.71194 0.0
H902 H 0.42688 0.01106 0.79931 0.0
H903 H 0.48933 0.96139 0.76842 0.0
H904 H 0.49127 0.97522 0.72409 0.0
H905 H 0.52262 0.99555 0.82 0.0
H906 H 0.6005 0.03131 0.77841 0.0
H907 H 0.53463 0.99764 0.70315 0.0
C908 C 0.4726 0.99099 0.80455 0.0
C909 C 0.45421 0.99817 0.81618 0.0
C910 C 0.47857 0.99191 0.76692 0.0
C911 C 0.46519 0.99965 0.74107 0.0
C912 C 0.44593 0.00578 0.75272 0.0
C913 C 0.44114 0.00554 0.79021 0.0
C914 C 0.4954 0.98033 0.75383 0.0
C915 C 0.52486 0.99768 0.76053 0.0
C916 C 0.53542 1.00286 0.79678 0.0
C917 C 0.56264 0.01466 0.80332 0.0
C918 C 0.57946 0.02258 0.77344 0.0
C919 C 0.56957 0.01588 0.7375 0.0
C920 C 0.54229 1.00382 0.73089 0.0
H921 H 0.01371 0.48936 0.83093 0.0
H922 H 0.01696 0.47881 0.7143 0.0
H923 H 0.97914 0.41143 0.78403 0.0
H924 H 0.0451 0.5258 0.78721 0.0
H925 H 0.0383 0.52217 0.73901 0.0
H926 H 0.01563 0.53178 0.82982 0.0
H927 H 0.97529 0.57 0.78251 0.0
H928 H 1.00738 0.53445 0.71191 0.0
C929 C 1.0076 0.47647 0.80707 0.0
C930 C 0.9958 0.44896 0.8119 0.0
C931 C 0.01375 0.48744 0.77139 0.0
C932 C 0.00957 0.47062 0.74111 0.0
C933 C 0.99753 0.44328 0.74612 0.0
C934 C 0.98855 0.4327 0.78074 0.0
C935 C 0.02883 0.51706 0.76631 0.0
C936 C 0.01172 0.52973 0.77051 0.0
C937 C 1.00732 0.53636 0.80588 0.0
C938 C 0.99465 0.55132 0.81013 0.0
C939 C 0.98476 0.55806 0.77919 0.0
C940 C 0.98953 0.55243 0.74387 0.0
C941 C 1.00286 0.53804 0.73932 0.0
H942 H 0.51426 0.46961 0.84048 0.0
H943 H 0.50245 0.46324 0.723 0.0
H944 H 0.43718 0.42327 0.79537 0.0
H945 H 0.55066 0.47556 0.79054 0.0
H946 H 0.54595 0.48507 0.74563 0.0
H947 H 0.55047 0.50374 0.84592 0.0
H948 H 0.58742 0.58615 0.82539 0.0
H949 H 0.57043 0.53151 0.73566 0.0
C950 C 0.50153 0.46369 0.81659 0.0
C951 C 0.47441 0.44793 0.8219 0.0
C952 C 0.51194 0.47052 0.78097 0.0
C953 C 0.49464 0.45954 0.7505 0.0
C954 C 0.46766 0.44204 0.75543 0.0
C955 C 0.45771 0.43735 0.79113 0.0
C956 C 0.54157 0.48572 0.77512 0.0
C957 C 0.55478 0.5142 0.78842 0.0
C958 C 0.55667 0.51948 0.82629 0.0
C959 C 0.56808 0.54528 0.83957 0.0
C960 C 0.5789 0.5662 0.81476 0.0
C961 C 0.58238 0.56186 0.77776 0.0
C962 C 0.56877 0.53559 0.76419 0.0
H963 H 0.72784 0.88677 0.49671 0.0
H964 H 0.72041 0.89529 0.61264 0.0
H965 H 0.69598 0.93464 0.53353 0.0
H966 H 0.75607 0.88034 0.54621 0.0
H967 H 0.74616 0.8764 0.59281 0.0
H968 H 0.7184 0.84587 0.49824 0.0
H969 H 0.69409 0.76783 0.53628 0.0
H970 H 0.72737 0.83268 0.61301 0.0
C971 C 0.72056 0.89341 0.51903 0.0
C972 C 0.7094 0.90945 0.51102 0.0
C973 C 0.7236 0.88716 0.55559 0.0
C974 C 0.71668 0.89866 0.58437 0.0
C975 C 0.7069 0.91612 0.57671 0.0
C976 C 0.70249 0.92049 0.53994 0.0
C977 C 0.73853 0.8724 0.56392 0.0
C978 C 0.72279 0.84279 0.55704 0.0
C979 C 0.7149 0.83274 0.52105 0.0
C980 C 0.70384 0.80565 0.51369 0.0
C981 C 0.7009 0.78844 0.54253 0.0
C982 C 0.70965 0.79795 0.57832 0.0
C983 C 0.72005 0.82511 0.58557 0.0
H984 H 0.19349 0.8524 0.51323 0.0
H985 H 0.19961 0.86148 0.63121 0.0
H986 H 0.23465 0.92958 0.56199 0.0
H987 H 0.18691 0.81561 0.55656 0.0
H988 H 0.18298 0.81854 0.60439 0.0
H989 H 0.15188 0.81342 0.51068 0.0
H990 H 0.0737 0.76875 0.55164 0.0
H991 H 0.13952 0.79811 0.62679 0.0
C992 C 0.19875 0.86494 0.53736 0.0
C993 C 0.21471 0.89236 0.53358 0.0
C994 C 0.19199 0.85351 0.57262 0.0
C995 C 0.20223 0.87003 0.60403 0.0
C996 C 0.2176 0.89749 0.59998 0.0
C997 C 0.22208 0.9084 0.56488 0.0
C998 C 0.17857 0.82375 0.57666 0.0
C999 C 0.14907 0.81024 0.56999 0.0
C1000 C 0.1387 0.80633 0.53366 0.0
C1001 C 0.11152 0.79074 0.52689 0.0
C1002 C 0.09472 0.78083 0.5567 0.0
C1003 C 0.10461 0.78238 0.59237 0.0
C1004 C 0.13178 0.79756 0.59928 0.0
H1005 H 0.16923 0.28704 0.50482 0.0
H1006 H 0.19564 0.30681 0.61764 0.0
H1007 H 0.25144 0.32755 0.53107 0.0
H1008 H 0.13984 0.26395 0.55847 0.0
H1009 H 0.15035 0.27642 0.60409 0.0
H1010 H 0.14584 0.30733 0.51305 0.0
H1011 H 0.08755 0.32454 0.55305 0.0
H1012 H 0.12108 0.29003 0.62542 0.0
C1013 C 0.18498 0.29694 0.52499 0.0
C1014 C 0.2111 0.30937 0.51348 0.0
C1015 C 0.17915 0.297 0.56244 0.0
C1016 C 0.19996 0.3079 0.58865 0.0
C1017 C 0.22623 0.31879 0.57765 0.0
C1018 C 0.23142 0.32002 0.53996 0.0
C1019 C 0.15088 0.28243 0.57488 0.0
C1020 C 0.13637 0.29802 0.57031 0.0
C1021 C 0.13465 0.30812 0.53571 0.0
C1022 C 0.11745 0.31817 0.5294 0.0
C1023 C 0.10219 0.31855 0.55838 0.0
C1024 C 0.10351 0.30884 0.5932 0.0
C1025 C 0.12067 0.29854 0.59901 0.0
C1026 C 0.01382 0.4274 0.09876 0.0
C1027 C 0.03395 0.4378 0.07282 0.0
H1028 H 1.00153 0.43094 0.15245 0.0
C1029 C 0.057 0.46168 0.08104 0.0
H1030 H 0.99566 0.40923 0.09333 0.0
C1031 C 0.06028 0.47416 0.1151 0.0
C1032 C 0.0406 0.46296 0.14155 0.0
H1033 H 0.07285 0.47034 0.06164 0.0
H1034 H 0.07866 0.4919 0.12134 0.0
C1035 C 0.01713 0.43981 0.13269 0.0
C1036 C 0.60354 0.60107 0.1369 0.0
C1037 C 0.59118 0.59687 0.10239 0.0
H1038 H 0.59916 0.59228 0.19403 0.0
C1039 C 0.56367 0.5815 0.09931 0.0
H1040 H 0.62466 0.6134 0.13992 0.0
C1041 C 0.5488 0.56929 0.1305 0.0
C1042 C 0.56134 0.57319 0.16507 0.0
H1043 H 0.55382 0.5785 0.07277 0.0
H1044 H 0.52766 0.55716 0.12773 0.0
C1045 C 0.58885 0.58919 0.16783 0.0
C1046 C 0.42721 0.01191 0.11942 0.0
C1047 C 0.42578 0.99648 0.08908 0.0
H1048 H 0.43811 0.02138 0.17587 0.0
C1049 C 0.43401 0.97764 0.09299 0.0
H1050 H 0.41986 0.02576 0.11743 0.0
C1051 C 0.44329 0.97409 0.1271 0.0
C1052 C 0.4444 0.98936 0.15779 0.0
H1053 H 0.43244 0.96511 0.07001 0.0
H1054 H 0.44816 0.95842 0.12977 0.0
C1055 C 0.43717 0.00899 0.15309 0.0
C1056 C 0.41424 0.98865 0.9004 0.0
C1057 C 0.43332 0.00682 0.92506 0.0
H1058 H 0.40616 0.97136 0.84657 0.0
C1059 C 0.45997 0.0192 0.91527 0.0
H1060 H 0.3936 0.97856 0.90711 0.0
C1061 C 0.46716 0.01472 0.88067 0.0
C1062 C 0.4478 0.99799 0.85528 0.0
H1063 H 0.47523 0.03301 0.93384 0.0
H1064 H 0.4876 0.02552 0.87297 0.0
C1065 C 0.42141 0.98439 0.86582 0.0
C1066 C 1.00394 0.40563 0.88282 0.0
C1067 C 0.99755 0.41349 0.91546 0.0
H1068 H 0.00982 0.41155 0.82552 0.0
C1069 C 0.9892 0.43245 0.91438 0.0
H1070 H 0.00985 0.39061 0.88294 0.0
C1071 C 0.98862 0.44439 0.88088 0.0
C1072 C 0.99574 0.43691 0.84816 0.0
H1073 H 0.98375 0.4384 0.93942 0.0
H1074 H 0.98256 0.45927 0.88052 0.0
C1075 C 1.00346 0.41742 0.84979 0.0
C1076 C 0.59474 0.548 0.93572 0.0
C1077 C 0.59379 0.56984 0.95022 0.0
H1078 H 0.58737 0.52314 0.88882 0.0
C1079 C 0.58039 0.5806 0.93033 0.0
H1080 H 0.60484 0.53926 0.9505 0.0
C1081 C 0.57007 0.57117 0.8953 0.0
C1082 C 0.57307 0.55089 0.87944 0.0
H1083 H 0.57885 0.59712 0.94117 0.0
H1084 H 0.56095 0.58064 0.87986 0.0
C1085 C 0.58456 0.53867 0.90049 0.0
C1086 C 0.98932 0.56467 0.91072 0.0
C1087 C 1.00117 0.59233 0.91045 0.0
H1088 H 0.9787 0.52963 0.87871 0.0
C1089 C 0.00957 0.60598 0.87736 0.0
H1090 H 0.98231 0.55388 0.93614 0.0
C1091 C 1.00733 0.59238 0.84506 0.0
C1092 C 0.99635 0.56479 0.84514 0.0
H1093 H 0.01817 0.62728 0.87656 0.0
H1094 H 0.01464 0.60356 0.81997 0.0
C1095 C 0.98733 0.55092 0.87818 0.0
C1096 C 0.42741 0.42826 0.90145 0.0
C1097 C 0.43945 0.41953 0.92765 0.0
H1098 H 0.42931 0.44463 0.848 0.0
C1099 C 0.46412 0.42211 0.91981 0.0
H1100 H 0.40855 0.42684 0.90661 0.0
C1101 C 0.47593 0.43216 0.88605 0.0
C1102 C 0.46343 0.44002 0.85937 0.0
H1103 H 0.47404 0.41564 0.9393 0.0
H1104 H 0.49435 0.43276 0.88035 0.0
C1105 C 0.43928 0.43842 0.86779 0.0
C1106 C 0.57746 0.02062 0.90647 0.0
C1107 C 0.59397 0.00941 0.90899 0.0
H1108 H 0.55375 0.03051 0.87063 0.0
C1109 C 0.60087 1.00124 0.87698 0.0
H1110 H 0.5723 0.02743 0.93098 0.0
C1111 C 0.59064 1.00313 0.84303 0.0
C1112 C 0.57352 0.01365 0.84013 0.0
H1113 H 0.61404 0.99306 0.87827 0.0
H1114 H 0.59577 0.9958 0.819 0.0
C1115 C 0.56689 0.02234 0.87217 0.0
C1116 C 0.5498 0.95523 0.0826 0.0
C1117 C 0.57132 0.97833 0.06921 0.0
H1118 H 0.52448 0.93656 0.12811 0.0
C1119 C 0.58176 1.00151 0.09058 0.0
H1120 H 0.54121 0.93707 0.06674 0.0
C1121 C 0.57199 1.00127 0.12532 0.0
C1122 C 0.55167 0.97782 0.13977 0.0
H1123 H 0.59799 0.0198 0.08089 0.0
H1124 H 0.58097 0.01932 0.14147 0.0
C1125 C 0.54009 0.95496 0.11765 0.0
C1126 C 0.05336 0.59453 0.07864 0.0
C1127 C 0.03118 0.59621 0.06681 0.0
H1128 H 0.07146 0.58358 0.12162 0.0
C1129 C 0.00835 0.58418 0.08794 0.0
H1130 H 0.0712 0.60339 0.06289 0.0
C1131 C 0.00827 0.57217 0.12132 0.0
C1132 C 0.0311 0.5722 0.13443 0.0
H1133 H 0.99072 0.58462 0.07921 0.0
H1134 H 0.9907 0.56387 0.13764 0.0
C1135 C 0.05337 0.58279 0.11216 0.0
C1136 C 0.42707 0.45288 0.08995 0.0
C1137 C 0.4116 0.4253 0.08673 0.0
H1138 H 0.44979 0.48579 0.12657 0.0
C1139 C 0.40515 0.40979 0.11834 0.0
H1140 H 0.43188 0.46519 0.06574 0.0
C1141 C 0.4151 0.42129 0.15248 0.0
C1142 C 0.4314 0.44879 0.15614 0.0
H1143 H 0.39277 0.38853 0.11656 0.0
H1144 H 0.41054 0.40837 0.17601 0.0
C1145 C 0.43731 0.46459 0.12453 0.0
C1146 C 0.67289 0.75913 0.433 0.0
C1147 C 0.69289 0.77026 0.4069 0.0
H1148 H 0.66049 0.76196 0.48698 0.0
C1149 C 0.71513 0.79487 0.4147 0.0
H1150 H 0.65532 0.74037 0.42784 0.0
C1151 C 0.71798 0.80728 0.44867 0.0
C1152 C 0.69865 0.7953 0.47547 0.0
H1153 H 0.73081 0.80414 0.39514 0.0
H1154 H 0.73595 0.8255 0.45467 0.0
C1155 C 0.67577 0.7715 0.46689 0.0
C1156 C 0.23022 0.91233 0.43347 0.0
C1157 C 0.25777 0.92763 0.43573 0.0
H1158 H 0.19465 0.88814 0.4629 0.0
C1159 C 0.27063 0.93194 0.46988 0.0
H1160 H 0.21998 0.90925 0.40723 0.0
C1161 C 0.25641 0.92021 0.50121 0.0
C1162 C 0.22888 0.90421 0.49923 0.0
H1163 H 0.2918 0.94422 0.47229 0.0
H1164 H 0.2671 0.92337 0.5271 0.0
C1165 C 0.21583 0.90026 0.46505 0.0
C1166 C 0.10225 0.31395 0.42693 0.0
C1167 C 0.09455 0.3332 0.42315 0.0
H1168 H 0.1157 0.29403 0.46359 0.0
C1169 C 0.09636 0.34872 0.45358 0.0
H1170 H 0.10039 0.30135 0.4039 0.0
C1171 C 0.1061 0.34542 0.48722 0.0
C1172 C 0.1127 0.32534 0.49182 0.0
H1173 H 0.08939 0.36288 0.45172 0.0
H1174 H 0.10729 0.35786 0.5101 0.0
C1175 C 0.1113 0.31003 0.46102 0.0
C1176 C 0.08196 0.32482 0.23495 0.0
C1177 C 0.10132 0.34324 0.25907 0.0
H1178 H 0.07334 0.30641 0.18183 0.0
C1179 C 0.12788 0.35519 0.24891 0.0
H1180 H 0.06138 0.31504 0.24193 0.0
C1181 C 0.13472 0.34988 0.21456 0.0
C1182 C 0.11511 0.33275 0.18974 0.0
H1183 H 0.14334 0.3692 0.26706 0.0
H1184 H 0.15513 0.36026 0.2066 0.0
C1185 C 0.08879 0.31973 0.20061 0.0
C1186 C 0.66553 0.73685 0.21682 0.0
C1187 C 0.65826 0.74428 0.24908 0.0
H1188 H 0.67224 0.7431 0.15968 0.0
C1189 C 0.64904 0.76255 0.2474 0.0
H1190 H 0.67213 0.72236 0.2174 0.0
C1191 C 0.64872 0.77448 0.21378 0.0
C1192 C 0.65688 0.76757 0.18152 0.0
H1193 H 0.64291 0.76814 0.27213 0.0
H1194 H 0.64222 0.78902 0.21299 0.0
C1195 C 0.66518 0.74854 0.18363 0.0
C1196 C 0.24665 0.91139 0.26209 0.0
C1197 C 0.25958 0.90036 0.28253 0.0
H1198 H 0.2276 0.91145 0.21124 0.0
C1199 C 0.26007 0.87815 0.26855 0.0
H1200 H 0.24545 0.92821 0.27248 0.0
C1201 C 0.24993 0.86866 0.23334 0.0
C1202 C 0.2389 0.88108 0.21175 0.0
H1203 H 0.26979 0.86917 0.28373 0.0
H1204 H 0.25242 0.85281 0.22213 0.0
C1205 C 0.23635 0.90179 0.22708 0.0
C1206 C 0.6624 0.90155 0.24784 0.0
C1207 C 0.67333 0.92911 0.24678 0.0
H1208 H 0.652 0.86625 0.21658 0.0
C1209 C 0.68072 0.94229 0.21322 0.0
H1210 H 0.65619 0.8911 0.27364 0.0
C1211 C 0.6783 0.92839 0.18117 0.0
C1212 C 0.66798 0.90087 0.1819 0.0
H1213 H 0.68862 0.96349 0.21182 0.0
H1214 H 0.68482 0.93928 0.15572 0.0
C1215 C 0.66012 0.88747 0.21549 0.0
C1216 C 0.13006 0.75155 0.25345 0.0
C1217 C 0.10601 0.7504 0.26139 0.0
H1218 H 0.15997 0.76078 0.21383 0.0
C1219 C 0.09487 0.7602 0.23532 0.0
H1220 H 0.13929 0.74428 0.27288 0.0
C1221 C 0.10688 0.76985 0.20162 0.0
C1222 C 0.13032 0.76997 0.1931 0.0
H1223 H 0.07651 0.75987 0.24051 0.0
H1224 H 0.09752 0.77677 0.18184 0.0
C1225 C 0.14207 0.76121 0.21967 0.0
C1226 C 0.24424 0.35208 0.24184 0.0
C1227 C 0.26066 0.34076 0.24422 0.0
H1228 H 0.2205 0.36203 0.20619 0.0
C1229 C 0.26748 0.33257 0.21216 0.0
H1230 H 0.23916 0.3589 0.26641 0.0
C1231 C 0.25721 0.33452 0.17827 0.0
C1232 C 0.24012 0.34508 0.17553 0.0
H1233 H 0.28058 0.32432 0.21336 0.0
H1234 H 0.26224 0.32714 0.15419 0.0
C1235 C 0.23362 0.35383 0.20762 0.0
C1236 C 0.21594 0.28713 0.41734 0.0
C1237 C 0.23777 0.31 0.40402 0.0
H1238 H 0.19029 0.26891 0.46268 0.0
C1239 C 0.24843 0.33326 0.42525 0.0
H1240 H 0.20716 0.26893 0.40156 0.0
C1241 C 0.23857 0.33329 0.45982 0.0
C1242 C 0.21794 0.31005 0.47423 0.0
H1243 H 0.26488 0.35139 0.4156 0.0
H1244 H 0.24774 0.35137 0.47591 0.0
C1245 C 0.20614 0.28714 0.45222 0.0
C1246 C 0.72812 0.93689 0.4149 0.0
C1247 C 0.70615 0.93931 0.40394 0.0
H1248 H 0.74645 0.92562 0.45751 0.0
C1249 C 0.68439 0.92952 0.42711 0.0
H1250 H 0.74516 0.94409 0.39764 0.0
C1251 C 0.68502 0.91863 0.46108 0.0
C1252 C 0.70744 0.91737 0.4728 0.0
H1253 H 0.66696 0.93066 0.41936 0.0
H1254 H 0.66816 0.91176 0.47866 0.0
C1255 C 0.72878 0.92607 0.44906 0.0
C1256 C 0.09646 0.7838 0.42369 0.0
C1257 C 0.07967 0.75639 0.42076 0.0
H1258 H 0.12056 0.81646 0.45993 0.0
C1259 C 0.07267 0.74097 0.45246 0.0
H1260 H 0.10166 0.79605 0.39939 0.0
C1261 C 0.08323 0.75237 0.48646 0.0
C1262 C 0.10064 0.7797 0.48984 0.0
H1263 H 0.05925 0.71989 0.45088 0.0
H1264 H 0.07808 0.73953 0.51016 0.0
C1265 C 0.10726 0.79539 0.45809 0.0
C1266 C 0.3811 0.12656 0.74977 0.0
C1267 C 0.35904 0.10187 0.74172 0.0
H1268 H 0.40155 0.15708 0.78999 0.0
C1269 C 0.33893 0.09049 0.76763 0.0
H1270 H 0.39685 0.13602 0.73035 0.0
C1271 C 0.34155 0.10269 0.8016 0.0
C1272 C 0.36427 0.12657 0.81042 0.0
H1273 H 0.32149 0.07167 0.76228 0.0
H1274 H 0.32621 0.09296 0.82155 0.0
C1275 C 0.38369 0.13879 0.7838 0.0
C1276 C 0.89774 0.25043 0.76558 0.0
C1277 C 0.92528 0.26562 0.7686 0.0
H1278 H 0.86169 0.22641 0.79408 0.0
C1279 C 0.93763 0.26988 0.80312 0.0
H1280 H 0.8879 0.24739 0.73903 0.0
C1281 C 0.92291 0.2582 0.83411 0.0
C1282 C 0.89538 0.24236 0.83141 0.0
H1283 H 0.95877 0.28207 0.80609 0.0
H1284 H 0.93323 0.26132 0.86031 0.0
C1285 C 0.88284 0.23843 0.79682 0.0
C1286 C 0.76049 0.68063 0.78601 0.0
C1287 C 0.75876 0.6651 0.75564 0.0
H1288 H 0.77155 0.68999 0.84245 0.0
C1289 C 0.76662 0.64596 0.75947 0.0
H1290 H 0.75342 0.6947 0.78408 0.0
C1291 C 0.7758 0.64223 0.79353 0.0
C1292 C 0.77722 0.6576 0.82425 0.0
H1293 H 0.7648 0.63335 0.73648 0.0
H1294 H 0.78037 0.62634 0.79612 0.0
C1295 C 0.77036 0.67751 0.81964 0.0
C1296 C 0.79274 0.68714 0.58168 0.0
C1297 C 0.76613 0.67493 0.59165 0.0
H1298 H 0.82016 0.69317 0.53922 0.0
C1299 C 0.7469 0.65676 0.56716 0.0
H1300 H 0.8081 0.70094 0.60013 0.0
C1301 C 0.75389 0.65233 0.53255 0.0
C1302 C 0.78024 0.66578 0.5218 0.0
H1303 H 0.72629 0.64679 0.57402 0.0
H1304 H 0.73854 0.63929 0.51343 0.0
C1305 C 0.79974 0.68249 0.54706 0.0
C1306 C 0.31533 0.09356 0.58133 0.0
C1307 C 0.32499 0.07566 0.58335 0.0
H1308 H 0.30806 0.11956 0.54653 0.0
C1309 C 0.3326 0.06837 0.55127 0.0
H1310 H 0.30894 0.09904 0.60592 0.0
C1311 C 0.33212 0.07984 0.51794 0.0
C1312 C 0.32338 0.09851 0.51551 0.0
H1313 H 0.33955 0.05416 0.5521 0.0
H1314 H 0.33942 0.07452 0.49412 0.0
C1315 C 0.3149 0.10529 0.54758 0.0
C1316 C 0.92817 0.21558 0.60262 0.0
C1317 C 0.92745 0.2376 0.61684 0.0
H1318 H 0.92077 0.19057 0.55588 0.0
C1319 C 0.9143 0.24852 0.59667 0.0
H1320 H 0.93806 0.2067 0.61762 0.0
C1321 C 0.9041 0.23909 0.56159 0.0
C1322 C 0.90695 0.21865 0.54598 0.0
H1323 H 0.91292 0.26518 0.60729 0.0
H1324 H 0.89525 0.24871 0.54589 0.0
C1325 C 0.91809 0.20624 0.56734 0.0
C1326 C 0.34726 0.27312 0.5473 0.0
C1327 C 0.33988 0.25997 0.58088 0.0
H1328 H 0.35142 0.27007 0.48982 0.0
C1329 C 0.32915 0.23243 0.58201 0.0
H1330 H 0.355 0.29429 0.54583 0.0
C1331 C 0.32698 0.21834 0.54972 0.0
C1332 C 0.33478 0.23171 0.51609 0.0
H1333 H 0.32295 0.22199 0.60783 0.0
H1334 H 0.31895 0.19714 0.55086 0.0
C1335 C 0.34497 0.25921 0.5153 0.0
C1336 C 0.76235 0.0962 0.56766 0.0
C1337 C 0.77408 0.08714 0.59386 0.0
H1338 H 0.76459 0.11273 0.51426 0.0
C1339 C 0.79853 0.08918 0.586 0.0
H1340 H 0.74367 0.0952 0.57283 0.0
C1341 C 0.81042 0.09906 0.55224 0.0
C1342 C 0.79824 0.10729 0.52558 0.0
H1343 H 0.80819 0.08242 0.6055 0.0
H1344 H 0.82866 0.09928 0.54654 0.0
C1345 C 0.77431 0.1062 0.534 0.0
C1346 C 0.93361 0.66933 0.54302 0.0
C1347 C 0.92677 0.67741 0.57517 0.0
H1348 H 0.92849 0.66415 0.48499 0.0
C1349 C 0.91034 0.68873 0.57286 0.0
H1350 H 0.9467 0.66105 0.54415 0.0
C1351 C 0.89979 0.69062 0.53864 0.0
C1352 C 0.90635 0.68202 0.50646 0.0
H1353 H 0.90522 0.69546 0.59748 0.0
H1354 H 0.88668 0.69885 0.53727 0.0
C1355 C 0.92341 0.67142 0.50914 0.0
C1356 C 0.88195 0.62245 0.74847 0.0
C1357 C 0.90364 0.6455 0.73527 0.0
H1358 H 0.8565 0.60375 0.79384 0.0
C1359 C 0.91432 0.66855 0.75695 0.0
H1360 H 0.87317 0.60438 0.73238 0.0
C1361 C 0.9046 0.66823 0.79175 0.0
C1362 C 0.88406 0.64483 0.80596 0.0
H1363 H 0.93069 0.6868 0.74744 0.0
H1364 H 0.91374 0.68619 0.80811 0.0
C1365 C 0.87228 0.6221 0.78357 0.0
C1366 C 0.35038 0.2603 0.76115 0.0
C1367 C 0.37218 0.27014 0.73806 0.0
H1368 H 0.33413 0.24266 0.81274 0.0
C1369 C 0.3942 0.26784 0.74919 0.0
H1370 H 0.33291 0.26134 0.75329 0.0
C1371 C 0.39486 0.25713 0.78345 0.0
C1372 C 0.37349 0.24843 0.80712 0.0
H1373 H 0.41127 0.27508 0.73199 0.0
H1374 H 0.41256 0.25678 0.79204 0.0
C1375 C 0.35102 0.24953 0.79522 0.0
C1376 C 0.73945 0.0785 0.78427 0.0
C1377 C 0.74604 0.09385 0.7525 0.0
H1378 H 0.74467 0.07734 0.84202 0.0
C1379 C 0.76162 0.12145 0.75549 0.0
H1380 H 0.72699 0.05725 0.78267 0.0
C1381 C 0.7718 0.1333 0.79 0.0
C1382 C 0.76573 0.11766 0.82179 0.0
H1383 H 0.76653 0.13363 0.73114 0.0
H1384 H 0.78434 0.15451 0.79187 0.0
C1385 C 0.74936 0.09015 0.81834 0.0
C1386 C 0.09309 0.37348 0.01739 0.0
C1387 C 0.06574 0.3614 0.02282 0.0
H1388 H 0.12951 0.37494 0.03302 0.0
C1389 C 0.05381 0.33879 0.04493 0.0
H1390 H 0.10295 0.39075 0.00016 0.0
C1391 C 0.06905 0.32972 0.06331 0.0
C1392 C 0.09654 0.34296 0.05997 0.0
H1393 H 0.03283 0.32874 0.04941 0.0
H1394 H 0.05949 0.3131 0.08176 0.0
C1395 C 0.10836 0.36432 0.03582 0.0
C1396 C 0.64222 0.71704 0.01828 0.0
C1397 C 0.65987 0.70882 0.03144 0.0
H1398 H 0.62914 0.74559 0.02355 0.0
C1399 C 0.68171 0.7262 0.05292 0.0
H1400 H 0.62511 0.70382 0.00183 0.0
C1401 C 0.68463 0.75051 0.06378 0.0
C1402 C 0.66524 0.75734 0.05442 0.0
H1403 H 0.69557 0.72028 0.06331 0.0
H1404 H 0.70036 0.76256 0.08311 0.0
C1405 C 0.64463 0.74102 0.03028 0.0
C1406 C 0.29228 0.93554 0.03225 0.0
C1407 C 0.31383 0.95507 0.05256 0.0
H1408 H 0.25433 0.90047 0.03412 0.0
C1409 C 0.31329 0.9538 0.091 0.0
H1410 H 0.2923 0.93582 0.00248 0.0
C1411 C 0.29247 0.93327 0.10883 0.0
C1412 C 0.27051 0.91363 0.08916 0.0
H1413 H 0.32975 0.96797 0.10768 0.0
H1414 H 0.29443 0.93252 0.13839 0.0
C1415 C 0.27065 0.91513 0.05041 0.0
C1416 C 0.36351 0.06582 0.96048 0.0
C1417 C 0.38828 0.07389 0.97704 0.0
H1418 H 0.33952 0.07714 0.92827 0.0
C1419 C 0.407 0.10098 0.97726 0.0
H1420 H 0.34847 0.04521 0.96023 0.0
C1421 C 0.40186 0.11923 0.95905 0.0
C1422 C 0.37784 0.11089 0.94018 0.0
H1423 H 0.42617 0.10809 0.99026 0.0
H1424 H 0.41742 0.13957 0.95773 0.0
C1425 C 0.35835 0.08413 0.94227 0.0
C1426 C 0.91745 0.29566 0.99101 0.0
C1427 C 0.94345 0.3008 0.98721 0.0
H1428 H 0.87687 0.26971 0.97642 0.0
C1429 C 0.948 0.28086 0.97383 0.0
H1430 H 0.91358 0.31093 0.00099 0.0
C1431 C 0.92699 0.25688 0.9616 0.0
C1432 C 0.9012 0.25289 0.96118 0.0
H1433 H 0.9679 0.28447 0.97059 0.0
H1434 H 0.93124 0.2428 0.94822 0.0
C1435 C 0.89643 0.27197 0.97748 0.0
C1436 C 0.7209 0.65457 0.97761 0.0
C1437 C 0.70538 0.63005 -0.00559 0.0
H1438 H 0.75406 0.67795 0.94409 0.0
C1439 C 0.7136 0.61095 0.99305 0.0
H1440 H 0.71547 0.6699 0.97864 0.0
C1441 C 0.73559 0.61548 0.97301 0.0
C1442 C 0.75002 0.63929 0.95408 0.0
H1443 H 0.70229 0.59188 0.00593 0.0
H1444 H 0.74021 0.59965 0.97043 0.0
C1445 C 0.74306 0.65919 0.95789 0.0
C1446 C 0.9321 0.64283 0.98342 0.0
C1447 C 0.9576 0.66049 0.97182 0.0
H1448 H 0.89092 0.62646 0.97239 0.0
C1449 C 0.96118 0.6799 0.94601 0.0
H1450 H 0.92885 0.62763 0.0033 0.0
C1451 C 0.93946 0.67985 0.92913 0.0
C1452 C 0.9138 0.65969 0.93666 0.0
H1453 H 0.98071 0.69396 0.93699 0.0
H1454 H 0.94285 0.69416 0.90776 0.0
C1455 C 0.91031 0.64226 0.96573 0.0
C1456 C 0.3568 0.29651 0.95629 0.0
C1457 C 0.37926 0.3107 0.97883 0.0
H1458 H 0.33631 0.26436 0.91837 0.0
C1459 C 0.39656 0.30051 0.98423 0.0
H1460 H 0.34277 0.30342 0.95204 0.0
C1461 C 0.393 0.27831 0.96473 0.0
C1462 C 0.37192 0.26557 0.93951 0.0
H1463 H 0.41387 0.31056 0.0019 0.0
H1464 H 0.40798 0.27251 0.96731 0.0
C1465 C 0.35309 0.27407 0.93703 0.0
C1466 C 0.71397 0.08219 0.98833 0.0
C1467 C 0.70556 0.05616 0.97652 0.0
H1468 H 0.74177 0.12336 0.98075 0.0
C1469 C 0.7219 0.05125 0.95399 0.0
H1470 H 0.70154 0.08646 0.00548 0.0
C1471 C 0.74525 0.07215 0.94115 0.0
C1472 C 0.75232 0.09841 0.94972 0.0
H1473 H 0.71586 0.03139 0.94454 0.0
H1474 H 0.75647 0.06797 0.92148 0.0
C1475 C 0.73706 0.10328 0.9745 0.0
C1476 C 0.61883 0.90557 0.01802 0.0
C1477 C 0.63605 0.93295 0.01478 0.0
H1478 H 0.61275 0.86896 0.04118 0.0
C1479 C 0.66228 0.94328 0.02703 0.0
H1480 H 0.59852 0.89687 0.00873 0.0
C1481 C 0.6705 0.92703 0.04458 0.0
C1482 C 0.65268 0.90019 0.05042 0.0
H1483 H 0.67616 0.96415 0.02459 0.0
H1484 H 0.69022 0.93589 0.05635 0.0
C1485 C 0.62701 0.88941 0.03604 0.0
C1486 C 0.1082 0.71768 0.0166 0.0
C1487 C 0.08093 0.70807 0.01833 0.0
H1488 H 0.14643 0.74527 0.03741 0.0
C1489 C 0.07193 0.7228 0.03789 0.0
H1490 H 0.11596 0.70715 0.0013 0.0
C1491 C 0.08964 0.7452 0.058 0.0
C1492 C 0.11665 0.75312 0.05933 0.0
H1493 H 0.05113 0.71633 0.03919 0.0
H1494 H 0.08199 0.75531 0.07444 0.0
C1495 C 0.12584 0.73988 0.03694 0.0
C1496 C 0.2924 0.37431 0.00903 0.0
C1497 C 0.30189 0.35661 0.01596 0.0
H1498 H 0.26298 0.38499 0.02196 0.0
C1499 C 0.28599 0.33305 0.03456 0.0
H1500 H 0.30454 0.39279 -0.00486 0.0
C1501 C 0.26193 0.32818 0.04854 0.0
C1502 C 0.2537 0.34714 0.04516 0.0
H1503 H 0.29296 0.31919 0.04036 0.0
H1504 H 0.25107 0.31085 0.06539 0.0
C1505 C 0.26858 0.36979 0.02408 0.0
C1506 C 0.71824 0.67359 0.37899 0.0
C1507 C 0.72963 0.6967 0.35784 0.0
H1508 H 0.72479 0.64764 0.41415 0.0
C1509 C 0.75705 0.7097 0.35261 0.0
H1510 H 0.69724 0.66283 0.38327 0.0
C1511 C 0.77284 0.7008 0.37018 0.0
C1512 C 0.7615 0.67877 0.39327 0.0
H1513 H 0.76652 0.72739 0.33611 0.0
H1514 H 0.79399 0.71204 0.36751 0.0
C1515 C 0.734 0.66476 0.39649 0.0
C1516 C 0.30828 0.04768 0.35173 0.0
C1517 C 0.32586 0.03931 0.36467 0.0
H1518 H 0.29536 0.07633 0.35739 0.0
C1519 C 0.34772 0.05654 0.38627 0.0
H1520 H 0.29116 0.03459 0.33519 0.0
C1521 C 0.35071 0.08082 0.39745 0.0
C1522 C 0.33141 0.0878 0.38825 0.0
H1523 H 0.36152 0.0505 0.39651 0.0
H1524 H 0.36646 0.09274 0.41684 0.0
C1525 C 0.31079 0.07165 0.36401 0.0
C1526 C 0.9818 0.29221 0.42572 0.0
C1527 C 0.98255 0.29331 0.38728 0.0
H1528 H 0.96271 0.27109 0.47309 0.0
C1529 C 0.96104 0.27379 0.36691 0.0
H1530 H 0.9982 0.30641 0.44244 0.0
C1531 C 0.93932 0.25347 0.38498 0.0
C1532 C 0.93903 0.25203 0.42374 0.0
H1533 H 0.9612 0.27396 0.33713 0.0
H1534 H 0.92308 0.23878 0.36861 0.0
C1535 C 0.96087 0.27175 0.4435 0.0
C1536 C 0.03341 0.40366 0.29424 0.0
C1537 C 0.05778 0.41167 0.31202 0.0
H1538 H 0.01036 0.41507 0.26005 0.0
C1539 C 0.07637 0.43881 0.3132 0.0
H1540 H 0.01847 0.38302 0.29324 0.0
C1541 C 0.07164 0.45714 0.2944 0.0
C1542 C 0.04825 0.4488 0.2739 0.0
H1543 H 0.09518 0.44584 0.32726 0.0
H1544 H 0.08719 0.47752 0.29362 0.0
C1545 C 0.0287 0.42204 0.27538 0.0
C1546 C 0.58125 0.62614 0.32534 0.0
C1547 C 0.60752 0.63215 0.3216 0.0
H1548 H 0.54094 0.59931 0.31041 0.0
C1549 C 0.6129 0.61281 0.30805 0.0
H1550 H 0.57673 0.64095 0.33545 0.0
C1551 C 0.59241 0.58859 0.29555 0.0
C1552 C 0.56633 0.58378 0.29502 0.0
H1553 H 0.63302 0.61709 0.30486 0.0
H1554 H 0.59727 0.57499 0.28204 0.0
C1555 C 0.56075 0.60222 0.31153 0.0
C1556 C 0.38689 0.98536 0.31022 0.0
C1557 C 0.37135 0.96072 0.32669 0.0
H1558 H 0.42032 0.00911 0.27733 0.0
C1559 C 0.37976 0.94176 0.32539 0.0
H1560 H 0.38132 1.00059 0.31121 0.0
C1561 C 0.40202 0.94658 0.30577 0.0
C1562 C 0.41651 0.97054 0.28719 0.0
H1563 H 0.36844 0.92261 0.33804 0.0
H1564 H 0.40683 0.93088 0.30323 0.0
C1565 C 0.4093 0.99026 0.2909 0.0
C1566 C 0.6296 0.01466 0.27873 0.0
C1567 C 0.62661 0.99548 0.30459 0.0
H1568 H 0.61048 0.02826 0.24081 0.0
C1569 C 0.60131 0.9774 0.31645 0.0
H1570 H 0.64896 0.02902 0.26952 0.0
C1571 C 0.57917 0.97628 0.29907 0.0
C1572 C 0.58209 0.99357 0.27005 0.0
H1573 H 0.59854 0.96237 0.33637 0.0
H1574 H 0.55996 0.96024 0.30593 0.0
C1575 C 0.60753 0.01407 0.26218 0.0
C1576 C 0.04236 0.6227 0.32087 0.0
C1577 C 0.0411 0.64395 0.30418 0.0
H1578 H 0.04015 0.58509 0.31351 0.0
C1579 C 0.03643 0.64323 0.2663 0.0
H1580 H 0.04619 0.62299 0.35018 0.0
C1581 C 0.03448 0.62249 0.24505 0.0
C1582 C 0.03582 0.60092 0.26114 0.0
H1583 H 0.03616 0.65971 0.2526 0.0
H1584 H 0.03335 0.62451 0.21563 0.0
C1585 C 0.03923 0.60115 0.29968 0.0
C1586 C 0.3806 0.41291 0.3233 0.0
C1587 C 0.37211 0.38689 0.31141 0.0
H1588 H 0.40834 0.45408 0.3156 0.0
C1589 C 0.38831 0.38198 0.28857 0.0
H1590 H 0.36827 0.41717 0.34069 0.0
C1591 C 0.41156 0.40287 0.27549 0.0
C1592 C 0.41866 0.42913 0.28416 0.0
H1593 H 0.3822 0.36211 0.27904 0.0
H1594 H 0.42265 0.3987 0.25559 0.0
C1595 C 0.40358 0.434 0.30927 0.0
C1596 C 0.28463 0.23638 0.35335 0.0
C1597 C 0.30205 0.26368 0.34971 0.0
H1598 H 0.27844 0.19975 0.37662 0.0
C1599 C 0.32838 0.27381 0.3613 0.0
H1600 H 0.26424 0.22783 0.34456 0.0
C1601 C 0.33657 0.25745 0.3786 0.0
C1602 C 0.31861 0.23071 0.38485 0.0
H1603 H 0.3424 0.29461 0.35852 0.0
H1604 H 0.35642 0.26618 0.38987 0.0
C1605 C 0.29279 0.22011 0.37113 0.0
C1606 C 0.74121 0.06222 0.36928 0.0
C1607 C 0.75076 0.04816 0.34932 0.0
H1608 H 0.75047 0.0941 0.40667 0.0
C1609 C 0.77813 0.05855 0.34723 0.0
H1610 H 0.72029 0.05515 0.37084 0.0
C1611 C 0.79536 0.08067 0.36798 0.0
C1612 C 0.78564 0.09307 0.39108 0.0
H1613 H 0.78631 0.04858 0.33154 0.0
H1614 H 0.81606 0.08651 0.3683 0.0
C1615 C 0.75852 0.08458 0.38978 0.0
C1616 C 0.95169 0.66941 0.36478 0.0
C1617 C 0.96861 0.69332 0.34764 0.0
H1618 H 0.91604 0.64737 0.39421 0.0
C1619 C 0.96027 0.71205 0.34187 0.0
H1620 H 0.95776 0.65476 0.36969 0.0
C1621 C 0.93655 0.70805 0.35664 0.0
C1622 C 0.9206 0.68492 0.37622 0.0
H1623 H 0.9732 0.7308 0.32914 0.0
H1624 H 0.9318 0.72388 0.35547 0.0
C1625 C 0.92773 0.66509 0.37846 0.0
C1626 C 0.42491 0.04296 0.68729 0.0
C1627 C 0.39744 0.02959 0.69215 0.0
H1628 H 0.46195 0.04554 0.70224 0.0
C1629 C 0.38614 0.00615 0.71262 0.0
H1630 H 0.43432 0.06092 0.67133 0.0
C1631 C 0.40198 0.99732 0.7298 0.0
C1632 C 0.4295 0.01164 0.72694 0.0
H1633 H 0.36511 0.99511 0.71659 0.0
H1634 H 0.39282 0.97993 0.74698 0.0
C1635 C 0.44079 0.03405 0.70455 0.0
C1636 C 0.01675 0.39456 0.71675 0.0
C1637 C 0.99431 0.37695 0.6965 0.0
H1638 H 0.03619 0.43118 0.74624 0.0
C1639 C 0.97625 0.38498 0.68459 0.0
H1640 H 0.03091 0.38876 0.72617 0.0
C1641 C 0.97894 0.40904 0.69678 0.0
C1642 C 1.00021 0.42558 0.71985 0.0
H1643 H 0.95869 0.37156 0.66909 0.0
H1644 H 0.96322 0.41347 0.69119 0.0
C1645 C 0.01993 0.41894 0.72775 0.0
C1646 C 0.64617 0.62467 0.75793 0.0
C1647 C 0.64689 0.62533 0.71948 0.0
H1648 H 0.62734 0.60402 0.80563 0.0
C1649 C 0.62541 0.60555 0.6994 0.0
H1650 H 0.66255 0.63911 0.77446 0.0
C1651 C 0.60378 0.58535 0.71779 0.0
C1652 C 0.60357 0.58427 0.75659 0.0
H1653 H 0.62554 0.6054 0.66963 0.0
H1654 H 0.58758 0.57044 0.7016 0.0
C1655 C 0.62536 0.60433 0.77603 0.0
C1656 C 0.69757 0.73507 0.62634 0.0
C1657 C 0.72231 0.74308 0.64294 0.0
H1658 H 0.67375 0.74643 0.59379 0.0
C1659 C 0.74118 0.77012 0.64289 0.0
H1660 H 0.68243 0.71451 0.62629 0.0
C1661 C 0.73619 0.78836 0.62438 0.0
C1662 C 0.71219 0.78006 0.60548 0.0
H1663 H 0.76033 0.77716 0.65591 0.0
H1664 H 0.75184 0.80865 0.62287 0.0
C1665 C 0.69256 0.75338 0.60782 0.0
C1666 C 0.24942 0.9571 0.66026 0.0
C1667 C 0.27581 0.96371 0.65595 0.0
H1668 H 0.20918 0.92965 0.64581 0.0
C1669 C 0.28162 0.94481 0.64186 0.0
H1670 H 0.24457 0.97156 0.67082 0.0
C1671 C 0.26141 0.92045 0.62936 0.0
C1672 C 0.23515 0.91506 0.6294 0.0
H1673 H 0.30185 0.94956 0.63826 0.0
H1674 H 0.26654 0.9072 0.61544 0.0
C1675 C 0.22916 0.93303 0.64646 0.0
C1676 C 0.04723 0.27817 0.65943 0.0
C1677 C 0.03923 0.29744 0.66067 0.0
H1678 H 0.07381 0.26665 0.63725 0.0
C1679 C 0.055 0.32196 0.64402 0.0
H1680 H 0.03572 0.2591 0.67219 0.0
C1681 C 0.07726 0.32645 0.62463 0.0
C1682 C 0.08407 0.30643 0.62099 0.0
H1683 H 0.04973 0.33741 0.64496 0.0
H1684 H 0.08849 0.34524 0.61099 0.0
C1685 C 0.06933 0.28258 0.63971 0.0
C1686 C 0.29566 0.34561 0.61312 0.0
C1687 C 0.2924 0.32613 0.63863 0.0
H1688 H 0.27689 0.35985 0.5756 0.0
C1689 C 0.26701 0.30818 0.65033 0.0
H1690 H 0.3151 0.35987 0.60404 0.0
C1691 C 0.24501 0.30752 0.63313 0.0
C1692 C 0.2482 0.32514 0.60446 0.0
H1693 H 0.26403 0.29293 0.66998 0.0
H1694 H 0.2257 0.2916 0.63982 0.0
C1695 C 0.27375 0.34546 0.59676 0.0
C1696 C 0.69078 0.96462 0.62273 0.0
C1697 C 0.71326 0.97878 0.64526 0.0
H1698 H 0.67031 0.93262 0.5846 0.0
C1699 C 0.7306 0.96861 0.65045 0.0
H1700 H 0.67672 0.97152 0.61865 0.0
C1701 C 0.72708 0.94652 0.6307 0.0
C1702 C 0.706 0.93386 0.60546 0.0
H1703 H 0.74792 0.97863 0.66809 0.0
H1704 H 0.74211 0.94078 0.6331 0.0
C1705 C 0.6871 0.94229 0.60324 0.0
C1706 C 0.04724 0.74817 0.65474 0.0
C1707 C 0.0384 0.72182 0.64423 0.0
H1708 H 0.07609 0.78889 0.64632 0.0
C1709 C 0.05488 0.71582 0.62373 0.0
H1710 H 0.03471 0.75324 0.67034 0.0
C1711 C 0.07889 0.736 0.61146 0.0
C1712 C 0.08646 0.76259 0.61846 0.0
H1713 H 0.04848 0.69566 0.61533 0.0
H1714 H 0.09025 0.731 0.59316 0.0
C1715 C 0.07099 0.76854 0.64139 0.0
C1716 C 0.95031 0.57208 0.68202 0.0
C1717 C 0.96766 0.59945 0.67927 0.0
H1718 H 0.94404 0.53517 0.70427 0.0
C1719 C 0.99391 0.60951 0.69122 0.0
H1720 H 0.92998 0.56359 0.67291 0.0
C1721 C 1.00205 0.59296 0.70809 0.0
C1722 C 0.9841 0.56612 0.71355 0.0
H1723 H 0.00789 0.63038 0.68911 0.0
H1724 H 0.02179 0.6016 0.71976 0.0
C1725 C 0.9584 0.55563 0.69937 0.0
C1726 C 0.40639 0.39309 0.70351 0.0
C1727 C 0.41616 0.3791 0.68385 0.0
H1728 H 0.41535 0.42515 0.74041 0.0
C1729 C 0.44356 0.38968 0.6819 0.0
H1730 H 0.38545 0.38586 0.70495 0.0
C1731 C 0.46063 0.41199 0.70244 0.0
C1732 C 0.45072 0.42439 0.72518 0.0
H1733 H 0.4519 0.37977 0.66644 0.0
H1734 H 0.48137 0.41801 0.70284 0.0
C1735 C 0.42355 0.41565 0.72379 0.0
C1736 C 0.62698 0.04323 0.67426 0.0
C1737 C 0.63631 0.02543 0.68138 0.0
H1738 H 0.5976 0.05407 0.68677 0.0
C1739 C 0.62024 1.00189 0.6999 0.0
H1740 H 0.63925 0.0617 0.66043 0.0
C1741 C 0.59614 0.99712 0.71361 0.0
C1742 C 0.58804 0.01617 0.71002 0.0
H1743 H 0.62709 0.98795 0.70586 0.0
H1744 H 0.58513 0.97979 0.7304 0.0
C1745 C 0.60311 0.03882 0.68904 0.0
loop_
_geom_bond_atom_site_label_1
_geom_bond_atom_site_label_2
_geom_bond_distance
_geom_bond_site_symmetry_2
_ccdc_geom_bond_type
Mn0 O5 2.095 1_655 S
Mn0 O15 2.162 . S
Mn0 O16 2.297 1_554 S
Mn0 O24 2.385 1_554 S
Mn0 O25 2.209 1_654 S
Mn0 O26 2.094 . S
Mn1 O6 2.121 . S
Mn1 N8 2.257 1_554 S
Mn1 N17 2.282 1_554 S
Mn1 O25 2.215 1_554 S
Mn1 O27 2.117 . S
C2 O24 1.234 1_455 S
C2 O25 1.283 . S
C3 O15 1.281 1_556 S
C3 O16 1.236 . S
C4 O26 1.240 1_455 S
C4 O27 1.264 . S
O5 Mn0 2.095 1_455 S
O5 C14 1.250 . S
O6 Mn1 2.121 . S
O6 C14 1.258 . S
C7 N8 1.326 . S
C7 C11 1.460 . S
C7 H13 0.929 . S
N8 Mn1 2.257 1_556 S
N8 C7 1.326 . S
N8 C12 1.362 . S
C9 C10 1.258 . S
C9 C12 1.431 . S
C9 C29 1.449 . S
C10 C9 1.258 . S
C10 C11 1.477 . S
C10 H30 0.931 . S
C11 C7 1.460 . S
C11 C10 1.477 . S
C11 H31 0.930 . S
C12 N8 1.362 . S
C12 C9 1.431 . S
C12 C22 1.476 . S
H13 C7 0.929 . S
C14 O5 1.250 . S
C14 O6 1.258 . S
O15 Mn0 2.162 . S
O15 C3 1.281 1_554 S
O16 Mn0 2.297 1_556 S
O16 C3 1.236 . S
N17 Mn1 2.282 1_556 S
N17 C18 1.328 1_556 S
N17 C22 1.318 . S
C18 N17 1.328 1_554 S
C18 C19 1.457 1_554 S
C18 H23 0.929 . S
C19 C18 1.457 1_556 S
C19 C20 1.291 . S
C19 H32 0.931 . S
C20 C19 1.291 . S
C20 C21 1.373 . S
C20 H33 0.929 . S
C21 C20 1.373 . S
C21 C22 1.396 . S
C21 C28 1.403 . S
C22 C12 1.476 . S
C22 N17 1.318 . S
C22 C21 1.396 . S
H23 C18 0.929 . S
O24 Mn0 2.385 1_556 S
O24 C2 1.234 1_655 S
O25 Mn0 2.209 1_456 S
O25 Mn1 2.215 1_556 S
O25 C2 1.283 . S
O26 Mn0 2.094 . S
O26 C4 1.240 1_655 S
O27 Mn1 2.117 . S
O27 C4 1.264 . S
C28 C21 1.403 . S
C28 C29 1.399 . S
C28 H34 0.929 . S
C29 C9 1.449 . S
C29 C28 1.399 . S
C29 H35 0.930 . S
H30 C10 0.931 . S
H31 C11 0.930 . S
H32 C19 0.931 . S
H33 C20 0.929 . S
H34 C28 0.929 . S
H35 C29 0.930 . S
Mn36 O41 2.095 1_554 S
Mn36 O51 2.162 . S
Mn36 O52 2.297 . S
Mn36 O60 2.385 . S
Mn36 O61 2.209 . S
Mn36 O62 2.094 1_554 S
Mn37 O42 2.121 . S
Mn37 N44 2.257 1_556 S
Mn37 N53 2.282 1_556 S
Mn37 O61 2.215 1_556 S
Mn37 O63 2.117 . S
C38 O60 1.234 . S
C38 O61 1.283 . S
C39 O51 1.281 . S
C39 O52 1.236 . S
C40 O62 1.240 . S
C40 O63 1.264 . S
O41 Mn36 2.095 1_556 S
O41 C50 1.250 . S
O42 Mn37 2.121 . S
O42 C50 1.258 . S
C43 N44 1.326 . S
C43 C47 1.460 . S
C43 H49 0.929 . S
N44 Mn37 2.257 1_554 S
N44 C43 1.326 . S
N44 C48 1.362 . S
C45 C46 1.258 . S
C45 C48 1.431 . S
C45 C65 1.449 . S
C46 C45 1.258 . S
C46 C47 1.477 . S
C46 H66 0.931 . S
C47 C43 1.460 . S
C47 C46 1.477 . S
C47 H67 0.930 . S
C48 N44 1.362 . S
C48 C45 1.431 . S
C48 C58 1.476 . S
H49 C43 0.929 . S
C50 O41 1.250 . S
C50 O42 1.258 . S
O51 Mn36 2.162 . S
O51 C39 1.281 . S
O52 Mn36 2.297 . S
O52 C39 1.236 . S
N53 Mn37 2.282 1_554 S
N53 C54 1.328 . S
N53 C58 1.318 . S
C54 N53 1.328 . S
C54 C55 1.457 . S
C54 H59 0.929 1_554 S
C55 C54 1.457 . S
C55 C56 1.291 . S
C55 H68 0.931 . S
C56 C55 1.291 . S
C56 C57 1.373 . S
C56 H69 0.929 . S
C57 C56 1.373 . S
C57 C58 1.396 . S
C57 C64 1.403 . S
C58 C48 1.476 . S
C58 N53 1.318 . S
C58 C57 1.396 . S
H59 C54 0.929 1_556 S
O60 Mn36 2.385 . S
O60 C38 1.234 . S
O61 Mn36 2.209 . S
O61 Mn37 2.215 1_554 S
O61 C38 1.283 . S
O62 Mn36 2.094 1_556 S
O62 C40 1.240 . S
O63 Mn37 2.117 . S
O63 C40 1.264 . S
C64 C57 1.403 . S
C64 C65 1.399 . S
C64 H70 0.929 . S
C65 C45 1.449 . S
C65 C64 1.399 . S
C65 H71 0.930 . S
H66 C46 0.931 . S
H67 C47 0.930 . S
H68 C55 0.931 . S
H69 C56 0.929 . S
H70 C64 0.929 . S
H71 C65 0.930 . S
Mn72 O77 2.095 1_564 S
Mn72 O87 2.162 . S
Mn72 O88 2.297 . S
Mn72 O96 2.385 . S
Mn72 O97 2.209 1_565 S
Mn72 O98 2.094 1_554 S
Mn73 O78 2.121 1_554 S
Mn73 N80 2.257 . S
Mn73 N89 2.282 . S
Mn73 O97 2.215 . S
Mn73 O99 2.117 1_554 S
C74 O96 1.208 1_545 S
C74 O97 1.311 . S
C75 O87 1.281 . S
C75 O88 1.236 . S
C76 O98 1.253 . S
C76 O99 1.237 1_565 S
O77 Mn72 2.095 1_546 S
O77 C86 1.250 . S
O78 Mn73 2.121 1_556 S
O78 C86 1.258 . S
C79 N80 1.326 . S
C79 C83 1.460 . S
C79 H85 0.929 . S
N80 Mn73 2.257 . S
N80 C79 1.326 . S
N80 C84 1.362 . S
C81 C82 1.258 . S
C81 C84 1.431 . S
C81 C101 1.449 . S
C82 C81 1.258 . S
C82 C83 1.477 . S
C82 H102 0.931 . S
C83 C79 1.460 . S
C83 C82 1.477 . S
C83 H103 0.930 . S
C84 N80 1.362 . S
C84 C81 1.431 . S
C84 C94 1.476 . S
H85 C79 0.929 . S
C86 O77 1.250 . S
C86 O78 1.258 . S
O87 Mn72 2.162 . S
O87 C75 1.281 . S
O88 Mn72 2.297 . S
O88 C75 1.236 . S
N89 Mn73 2.282 . S
N89 C90 1.328 . S
N89 C94 1.318 . S
C90 N89 1.328 . S
C90 C91 1.457 . S
C90 H95 0.949 . S
C91 C90 1.457 . S
C91 C92 1.291 . S
C91 H104 0.931 . S
C92 C91 1.291 . S
C92 C93 1.373 . S
C92 H105 0.929 . S
C93 C92 1.373 . S
C93 C94 1.396 . S
C93 C100 1.403 . S
C94 C84 1.476 . S
C94 N89 1.318 . S
C94 C93 1.396 . S
H95 C90 0.949 . S
O96 Mn72 2.385 . S
O96 C74 1.208 1_565 S
O97 Mn72 2.209 1_545 S
O97 Mn73 2.215 . S
O97 C74 1.311 . S
O98 Mn72 2.094 1_556 S
O98 C76 1.253 . S
O99 Mn73 2.117 1_556 S
O99 C76 1.237 1_545 S
C100 C93 1.403 . S
C100 C101 1.399 . S
C100 H106 0.929 . S
C101 C81 1.449 . S
C101 C100 1.399 . S
C101 H107 0.930 . S
H102 C82 0.931 . S
H103 C83 0.930 . S
H104 C91 0.931 . S
H105 C92 0.929 . S
H106 C100 0.929 . S
H107 C101 0.930 . S
Mn108 O113 2.095 1_655 S
Mn108 O123 2.162 . S
Mn108 O124 2.297 1_554 S
Mn108 O132 2.385 1_554 S
Mn108 O133 2.209 1_654 S
Mn108 O134 2.094 . S
Mn109 O114 2.121 . S
Mn109 N116 2.257 1_554 S
Mn109 N125 2.282 1_554 S
Mn109 O133 2.215 1_554 S
Mn109 O135 2.117 . S
C110 O132 1.191 1_455 S
C110 O133 1.301 . S
C111 O123 1.281 1_556 S
C111 O124 1.236 . S
C112 O134 1.212 1_455 S
C112 O135 1.291 . S
O113 Mn108 2.095 1_455 S
O113 C122 1.250 . S
O114 Mn109 2.121 . S
O114 C122 1.258 . S
C115 N116 1.326 . S
C115 C119 1.460 . S
C115 H121 0.929 . S
N116 Mn109 2.257 1_556 S
N116 C115 1.326 . S
N116 C120 1.362 . S
C117 C118 1.258 . S
C117 C120 1.431 . S
C117 C137 1.449 . S
C118 C117 1.258 . S
C118 C119 1.477 . S
C118 H138 0.931 . S
C119 C115 1.460 . S
C119 C118 1.477 . S
C119 H139 0.930 . S
C120 N116 1.362 . S
C120 C117 1.431 . S
C120 C130 1.476 . S
H121 C115 0.929 . S
C122 O113 1.250 . S
C122 O114 1.258 . S
O123 Mn108 2.162 . S
O123 C111 1.281 1_554 S
O124 Mn108 2.297 1_556 S
O124 C111 1.236 . S
N125 Mn109 2.282 1_556 S
N125 C126 1.328 1_556 S
N125 C130 1.318 . S
C126 N125 1.328 1_554 S
C126 C127 1.457 1_554 S
C126 H131 0.929 . S
C127 C126 1.457 1_556 S
C127 C128 1.291 . S
C127 H140 0.931 . S
C128 C127 1.291 . S
C128 C129 1.373 . S
C128 H141 0.929 . S
C129 C128 1.373 . S
C129 C130 1.396 . S
C129 C136 1.403 . S
C130 C120 1.476 . S
C130 N125 1.318 . S
C130 C129 1.396 . S
H131 C126 0.929 . S
O132 Mn108 2.385 1_556 S
O132 C110 1.191 1_655 S
O133 Mn108 2.209 1_456 S
O133 Mn109 2.215 1_556 S
O133 C110 1.301 . S
O134 Mn108 2.094 . S
O134 C112 1.212 1_655 S
O135 Mn109 2.117 . S
O135 C112 1.291 . S
C136 C129 1.403 . S
C136 C137 1.399 . S
C136 H142 0.929 . S
C137 C117 1.449 . S
C137 C136 1.399 . S
C137 H143 0.930 . S
H138 C118 0.931 . S
H139 C119 0.930 . S
H140 C127 0.931 . S
H141 C128 0.929 . S
H142 C136 0.929 . S
H143 C137 0.930 . S
Mn144 O149 2.095 1_554 S
Mn144 O159 2.162 . S
Mn144 O160 2.297 . S
Mn144 O168 2.385 . S
Mn144 O169 2.209 . S
Mn144 O170 2.094 1_554 S
Mn145 O150 2.121 . S
Mn145 N152 2.257 1_556 S
Mn145 N161 2.282 1_556 S
Mn145 O169 2.215 1_556 S
Mn145 O171 2.117 . S
C146 O168 1.234 . S
C146 O169 1.283 . S
C147 O159 1.281 . S
C147 O160 1.236 . S
C148 O170 1.240 . S
C148 O171 1.264 . S
O149 Mn144 2.095 1_556 S
O149 C158 1.250 . S
O150 Mn145 2.121 . S
O150 C158 1.258 . S
C151 N152 1.326 . S
C151 C155 1.460 . S
C151 H157 0.929 . S
N152 Mn145 2.257 1_554 S
N152 C151 1.326 . S
N152 C156 1.362 . S
C153 C154 1.258 . S
C153 C156 1.431 . S
C153 C173 1.449 . S
C154 C153 1.258 . S
C154 C155 1.477 . S
C154 H174 0.931 . S
C155 C151 1.460 . S
C155 C154 1.477 . S
C155 H175 0.930 . S
C156 N152 1.362 . S
C156 C153 1.431 . S
C156 C166 1.476 . S
H157 C151 0.929 . S
C158 O149 1.250 . S
C158 O150 1.258 . S
O159 Mn144 2.162 . S
O159 C147 1.281 . S
O160 Mn144 2.297 . S
O160 C147 1.236 . S
N161 Mn145 2.282 1_554 S
N161 C162 1.328 . S
N161 C166 1.318 . S
C162 N161 1.328 . S
C162 C163 1.457 . S
C162 H167 0.929 1_554 S
C163 C162 1.457 . S
C163 C164 1.291 . S
C163 H176 0.931 . S
C164 C163 1.291 . S
C164 C165 1.373 . S
C164 H177 0.929 . S
C165 C164 1.373 . S
C165 C166 1.396 . S
C165 C172 1.403 . S
C166 C156 1.476 . S
C166 N161 1.318 . S
C166 C165 1.396 . S
H167 C162 0.929 1_556 S
O168 Mn144 2.385 . S
O168 C146 1.234 . S
O169 Mn144 2.209 . S
O169 Mn145 2.215 1_554 S
O169 C146 1.283 . S
O170 Mn144 2.094 1_556 S
O170 C148 1.240 . S
O171 Mn145 2.117 . S
O171 C148 1.264 . S
C172 C165 1.403 . S
C172 C173 1.399 . S
C172 H178 0.929 . S
C173 C153 1.449 . S
C173 C172 1.399 . S
C173 H179 0.930 . S
H174 C154 0.931 . S
H175 C155 0.930 . S
H176 C163 0.931 . S
H177 C164 0.929 . S
H178 C172 0.929 . S
H179 C173 0.930 . S
Mn180 O185 2.095 1_545 S
Mn180 O195 2.162 . S
Mn180 O196 2.297 1_554 S
Mn180 O204 2.385 1_554 S
Mn180 O205 2.209 1_544 S
Mn180 O206 2.094 . S
Mn181 O186 2.121 . S
Mn181 N188 2.257 1_554 S
Mn181 N197 2.282 1_554 S
Mn181 O205 2.215 1_554 S
Mn181 O207 2.117 . S
C182 O204 1.229 . S
C182 O205 1.288 1_545 S
C183 O195 1.281 1_556 S
C183 O196 1.236 . S
C184 O206 1.240 . S
C184 O207 1.264 1_545 S
O185 Mn180 2.095 1_565 S
O185 C194 1.250 . S
O186 Mn181 2.121 . S
O186 C194 1.258 . S
C187 N188 1.326 . S
C187 C191 1.460 . S
C187 H193 0.929 . S
N188 Mn181 2.257 1_556 S
N188 C187 1.326 . S
N188 C192 1.362 . S
C189 C190 1.258 . S
C189 C192 1.431 . S
C189 C209 1.449 . S
C190 C189 1.258 . S
C190 C191 1.477 . S
C190 H210 0.931 . S
C191 C187 1.460 . S
C191 C190 1.477 . S
C191 H211 0.930 . S
C192 N188 1.362 . S
C192 C189 1.431 . S
C192 C202 1.476 . S
H193 C187 0.929 . S
C194 O185 1.250 . S
C194 O186 1.258 . S
O195 Mn180 2.162 . S
O195 C183 1.281 1_554 S
O196 Mn180 2.297 1_556 S
O196 C183 1.236 . S
N197 Mn181 2.282 1_556 S
N197 C198 1.334 . S
N197 C202 1.318 . S
C198 N197 1.334 . S
C198 C199 1.468 . S
C198 H203 0.912 1_556 S
C199 C198 1.468 . S
C199 C200 1.291 . S
C199 H212 0.931 . S
C200 C199 1.291 . S
C200 C201 1.373 . S
C200 H213 0.929 . S
C201 C200 1.373 . S
C201 C202 1.396 . S
C201 C208 1.403 . S
C202 C192 1.476 . S
C202 N197 1.318 . S
C202 C201 1.396 . S
H203 C198 0.912 1_554 S
O204 Mn180 2.385 1_556 S
O204 C182 1.229 . S
O205 Mn180 2.209 1_566 S
O205 Mn181 2.215 1_556 S
O205 C182 1.288 1_565 S
O206 Mn180 2.094 . S
O206 C184 1.240 . S
O207 Mn181 2.117 . S
O207 C184 1.264 1_565 S
C208 C201 1.403 . S
C208 C209 1.399 . S
C208 H214 0.929 . S
C209 C189 1.449 . S
C209 C208 1.399 . S
C209 H215 0.930 . S
H210 C190 0.931 . S
H211 C191 0.930 . S
H212 C199 0.931 . S
H213 C200 0.929 . S
H214 C208 0.929 . S
H215 C209 0.930 . S
Mn216 O221 2.095 . S
Mn216 O231 2.162 . S
Mn216 O232 2.297 . S
Mn216 O240 2.385 . S
Mn216 O241 2.209 . S
Mn216 O242 2.094 . S
Mn217 O222 2.121 . S
Mn217 N224 2.257 . S
Mn217 N233 2.282 . S
Mn217 O241 2.215 . S
Mn217 O243 2.117 . S
C218 O240 1.234 . S
C218 O241 1.283 . S
C219 O231 1.281 . S
C219 O232 1.236 . S
C220 O242 1.240 . S
C220 O243 1.264 . S
O221 Mn216 2.095 . S
O221 C230 1.250 . S
O222 Mn217 2.121 . S
O222 C230 1.258 . S
C223 N224 1.326 . S
C223 C227 1.460 . S
C223 H229 0.929 . S
N224 Mn217 2.257 . S
N224 C223 1.326 . S
N224 C228 1.362 . S
C225 C226 1.258 . S
C225 C228 1.431 . S
C225 C245 1.449 . S
C226 C225 1.258 . S
C226 C227 1.477 . S
C226 H246 0.931 . S
C227 C223 1.460 . S
C227 C226 1.477 . S
C227 H247 0.930 . S
C228 N224 1.362 . S
C228 C225 1.431 . S
C228 C238 1.476 . S
H229 C223 0.929 . S
C230 O221 1.250 . S
C230 O222 1.258 . S
O231 Mn216 2.162 . S
O231 C219 1.281 . S
O232 Mn216 2.297 . S
O232 C219 1.236 . S
N233 Mn217 2.282 . S
N233 C234 1.328 . S
N233 C238 1.318 . S
C234 N233 1.328 . S
C234 C235 1.457 . S
C234 H239 0.929 . S
C235 C234 1.457 . S
C235 C236 1.291 . S
C235 H248 0.931 . S
C236 C235 1.291 . S
C236 C237 1.373 . S
C236 H249 0.929 . S
C237 C236 1.373 . S
C237 C238 1.396 . S
C237 C244 1.403 . S
C238 C228 1.476 . S
C238 N233 1.318 . S
C238 C237 1.396 . S
H239 C234 0.929 . S
O240 Mn216 2.385 . S
O240 C218 1.234 . S
O241 Mn216 2.209 . S
O241 Mn217 2.215 . S
O241 C218 1.283 . S
O242 Mn216 2.094 . S
O242 C220 1.240 . S
O243 Mn217 2.117 . S
O243 C220 1.264 . S
C244 C237 1.403 . S
C244 C245 1.399 . S
C244 H250 0.929 . S
C245 C225 1.449 . S
C245 C244 1.399 . S
C245 H251 0.930 . S
H246 C226 0.931 . S
H247 C227 0.930 . S
H248 C235 0.931 . S
H249 C236 0.929 . S
H250 C244 0.929 . S
H251 C245 0.930 . S
Mn252 O257 2.095 . S
Mn252 O267 2.162 1_565 S
Mn252 O268 2.297 1_565 S
Mn252 O276 2.385 . S
Mn252 O277 2.209 . S
Mn252 O278 2.094 . S
Mn253 O258 2.121 . S
Mn253 N260 2.257 . S
Mn253 N269 2.282 . S
Mn253 O277 2.215 . S
Mn253 O279 2.117 . S
C254 O276 1.234 . S
C254 O277 1.283 . S
C255 O267 1.281 . S
C255 O268 1.236 . S
C256 O278 1.240 . S
C256 O279 1.264 . S
O257 Mn252 2.095 . S
O257 C266 1.250 . S
O258 Mn253 2.121 . S
O258 C266 1.258 . S
C259 N260 1.326 . S
C259 C263 1.460 . S
C259 H265 0.929 . S
N260 Mn253 2.257 . S
N260 C259 1.326 . S
N260 C264 1.362 . S
C261 C262 1.258 . S
C261 C264 1.431 . S
C261 C281 1.449 . S
C262 C261 1.258 . S
C262 C263 1.477 . S
C262 H282 0.931 . S
C263 C259 1.460 . S
C263 C262 1.477 . S
C263 H283 0.930 . S
C264 N260 1.362 . S
C264 C261 1.431 . S
C264 C274 1.476 . S
H265 C259 0.929 . S
C266 O257 1.250 . S
C266 O258 1.258 . S
O267 Mn252 2.162 1_545 S
O267 C255 1.281 . S
O268 Mn252 2.297 1_545 S
O268 C255 1.236 . S
N269 Mn253 2.282 . S
N269 C270 1.328 . S
N269 C274 1.318 . S
C270 N269 1.328 . S
C270 C271 1.457 . S
C270 H275 0.929 . S
C271 C270 1.457 . S
C271 C272 1.291 . S
C271 H284 0.931 . S
C272 C271 1.291 . S
C272 C273 1.373 . S
C272 H285 0.929 . S
C273 C272 1.373 . S
C273 C274 1.396 . S
C273 C280 1.403 . S
C274 C264 1.476 . S
C274 N269 1.318 . S
C274 C273 1.396 . S
H275 C270 0.929 . S
O276 Mn252 2.385 . S
O276 C254 1.234 . S
O277 Mn252 2.209 . S
O277 Mn253 2.215 . S
O277 C254 1.283 . S
O278 Mn252 2.094 . S
O278 C256 1.240 . S
O279 Mn253 2.117 . S
O279 C256 1.264 . S
C280 C273 1.403 . S
C280 C281 1.399 . S
C280 H286 0.929 . S
C281 C261 1.449 . S
C281 C280 1.399 . S
C281 H287 0.930 . S
H282 C262 0.931 . S
H283 C263 0.930 . S
H284 C271 0.931 . S
H285 C272 0.929 . S
H286 C280 0.929 . S
H287 C281 0.930 . S
Mn288 O293 2.095 . S
Mn288 O303 2.162 1_455 S
Mn288 O304 2.297 1_455 S
Mn288 O312 2.385 . S
Mn288 O313 2.209 . S
Mn288 O314 2.094 . S
Mn289 O294 2.121 . S
Mn289 N296 2.257 . S
Mn289 N305 2.282 . S
Mn289 O313 2.215 . S
Mn289 O315 2.117 . S
C290 O312 1.234 . S
C290 O313 1.283 . S
C291 O303 1.281 . S
C291 O304 1.236 . S
C292 O314 1.240 . S
C292 O315 1.264 . S
O293 Mn288 2.095 . S
O293 C302 1.250 . S
O294 Mn289 2.121 . S
O294 C302 1.258 . S
C295 N296 1.326 . S
C295 C299 1.460 . S
C295 H301 0.929 . S
N296 Mn289 2.257 . S
N296 C295 1.326 . S
N296 C300 1.362 . S
C297 C298 1.258 . S
C297 C300 1.431 . S
C297 C317 1.449 . S
C298 C297 1.258 . S
C298 C299 1.477 . S
C298 H318 0.931 . S
C299 C295 1.460 . S
C299 C298 1.477 . S
C299 H319 0.930 . S
C300 N296 1.362 . S
C300 C297 1.431 . S
C300 C310 1.476 . S
H301 C295 0.929 . S
C302 O293 1.250 . S
C302 O294 1.258 . S
O303 Mn288 2.162 1_655 S
O303 C291 1.281 . S
O304 Mn288 2.297 1_655 S
O304 C291 1.236 . S
N305 Mn289 2.282 . S
N305 C306 1.328 . S
N305 C310 1.318 . S
C306 N305 1.328 . S
C306 C307 1.457 . S
C306 H311 0.929 . S
C307 C306 1.457 . S
C307 C308 1.291 . S
C307 H320 0.931 . S
C308 C307 1.291 . S
C308 C309 1.373 . S
C308 H321 0.929 . S
C309 C308 1.373 . S
C309 C310 1.396 . S
C309 C316 1.403 . S
C310 C300 1.476 . S
C310 N305 1.318 . S
C310 C309 1.396 . S
H311 C306 0.929 . S
O312 Mn288 2.385 . S
O312 C290 1.234 . S
O313 Mn288 2.209 . S
O313 Mn289 2.215 . S
O313 C290 1.283 . S
O314 Mn288 2.094 . S
O314 C292 1.240 . S
O315 Mn289 2.117 . S
O315 C292 1.264 . S
C316 C309 1.403 . S
C316 C317 1.399 . S
C316 H322 0.929 . S
C317 C297 1.449 . S
C317 C316 1.399 . S
C317 H323 0.930 . S
H318 C298 0.931 . S
H319 C299 0.930 . S
H320 C307 0.931 . S
H321 C308 0.929 . S
H322 C316 0.929 . S
H323 C317 0.930 . S
Mn324 O329 2.095 1_565 S
Mn324 O339 2.162 . S
Mn324 O340 2.309 . S
Mn324 O348 2.385 . S
Mn324 O349 2.209 . S
Mn324 O350 2.094 . S
Mn325 O330 2.121 1_565 S
Mn325 N332 2.257 . S
Mn325 N341 2.282 . S
Mn325 O349 2.215 . S
Mn325 O351 2.117 . S
C326 O348 1.234 . S
C326 O349 1.283 . S
C327 O339 1.281 . S
C327 O340 1.234 . S
C328 O350 1.240 . S
C328 O351 1.264 . S
O329 Mn324 2.095 1_545 S
O329 C338 1.250 . S
O330 Mn325 2.121 1_545 S
O330 C338 1.258 . S
C331 N332 1.326 1_545 S
C331 C335 1.460 . S
C331 H337 0.929 . S
N332 Mn325 2.257 . S
N332 C331 1.326 1_565 S
N332 C336 1.362 . S
C333 C334 1.258 1_565 S
C333 C336 1.431 . S
C333 C353 1.449 . S
C334 C333 1.258 1_545 S
C334 C335 1.477 . S
C334 H354 0.931 . S
C335 C331 1.460 . S
C335 C334 1.477 . S
C335 H355 0.930 . S
C336 N332 1.362 . S
C336 C333 1.431 . S
C336 C346 1.476 . S
H337 C331 0.929 . S
C338 O329 1.250 . S
C338 O330 1.258 . S
O339 Mn324 2.162 . S
O339 C327 1.281 . S
O340 Mn324 2.309 . S
O340 C327 1.234 . S
N341 Mn325 2.282 . S
N341 C342 1.328 . S
N341 C346 1.318 . S
C342 N341 1.328 . S
C342 C343 1.457 . S
C342 H347 0.929 . S
C343 C342 1.457 . S
C343 C344 1.291 . S
C343 H356 0.931 . S
C344 C343 1.291 . S
C344 C345 1.373 . S
C344 H357 0.929 . S
C345 C344 1.373 . S
C345 C346 1.396 . S
C345 C352 1.403 . S
C346 C336 1.476 . S
C346 N341 1.318 . S
C346 C345 1.396 . S
H347 C342 0.929 . S
O348 Mn324 2.385 . S
O348 C326 1.234 . S
O349 Mn324 2.209 . S
O349 Mn325 2.215 . S
O349 C326 1.283 . S
O350 Mn324 2.094 . S
O350 C328 1.240 . S
O351 Mn325 2.117 . S
O351 C328 1.264 . S
C352 C345 1.403 . S
C352 C353 1.399 . S
C352 H358 0.929 . S
C353 C333 1.449 . S
C353 C352 1.399 . S
C353 H359 0.930 . S
H354 C334 0.931 . S
H355 C335 0.930 . S
H356 C343 0.931 . S
H357 C344 0.929 . S
H358 C352 0.929 . S
H359 C353 0.930 . S
Mn360 O365 2.095 . S
Mn360 O375 2.162 1_455 S
Mn360 O376 2.297 1_455 S
Mn360 O384 2.385 . S
Mn360 O385 2.209 . S
Mn360 O386 2.094 . S
Mn361 O366 2.121 . S
Mn361 N368 2.257 . S
Mn361 N377 2.282 . S
Mn361 O385 2.215 . S
Mn361 O387 2.117 . S
C362 O384 1.234 . S
C362 O385 1.283 . S
C363 O375 1.281 . S
C363 O376 1.236 . S
C364 O386 1.240 . S
C364 O387 1.264 . S
O365 Mn360 2.095 . S
O365 C374 1.250 . S
O366 Mn361 2.121 . S
O366 C374 1.258 . S
C367 N368 1.326 . S
C367 C371 1.460 . S
C367 H373 0.929 . S
N368 Mn361 2.257 . S
N368 C367 1.326 . S
N368 C372 1.362 . S
C369 C370 1.258 . S
C369 C372 1.431 . S
C369 C389 1.449 . S
C370 C369 1.258 . S
C370 C371 1.477 . S
C370 H390 0.931 . S
C371 C367 1.460 . S
C371 C370 1.477 . S
C371 H391 0.930 . S
C372 N368 1.362 . S
C372 C369 1.431 . S
C372 C382 1.476 . S
H373 C367 0.929 . S
C374 O365 1.250 . S
C374 O366 1.258 . S
O375 Mn360 2.162 1_655 S
O375 C363 1.281 . S
O376 Mn360 2.297 1_655 S
O376 C363 1.236 . S
N377 Mn361 2.282 . S
N377 C378 1.328 . S
N377 C382 1.318 . S
C378 N377 1.328 . S
C378 C379 1.457 . S
C378 H383 0.929 . S
C379 C378 1.457 . S
C379 C380 1.291 . S
C379 H392 0.931 . S
C380 C379 1.291 . S
C380 C381 1.373 . S
C380 H393 0.929 . S
C381 C380 1.373 . S
C381 C382 1.396 . S
C381 C388 1.403 . S
C382 C372 1.476 . S
C382 N377 1.318 . S
C382 C381 1.396 . S
H383 C378 0.929 . S
O384 Mn360 2.385 . S
O384 C362 1.234 . S
O385 Mn360 2.209 . S
O385 Mn361 2.215 . S
O385 C362 1.283 . S
O386 Mn360 2.094 . S
O386 C364 1.240 . S
O387 Mn361 2.117 . S
O387 C364 1.264 . S
C388 C381 1.403 . S
C388 C389 1.399 . S
C388 H394 0.929 . S
C389 C369 1.449 . S
C389 C388 1.399 . S
C389 H395 0.930 . S
H390 C370 0.931 . S
H391 C371 0.930 . S
H392 C379 0.931 . S
H393 C380 0.929 . S
H394 C388 0.929 . S
H395 C389 0.930 . S
Mn396 O401 2.095 . S
Mn396 O411 2.162 . S
Mn396 O412 2.297 . S
Mn396 O420 2.385 . S
Mn396 O421 2.209 . S
Mn396 O422 2.094 . S
Mn397 O402 2.121 . S
Mn397 N404 2.257 . S
Mn397 N413 2.282 . S
Mn397 O421 2.215 . S
Mn397 O423 2.117 . S
C398 O420 1.234 . S
C398 O421 1.283 . S
C399 O411 1.281 . S
C399 O412 1.236 . S
C400 O422 1.240 . S
C400 O423 1.264 . S
O401 Mn396 2.095 . S
O401 C410 1.250 . S
O402 Mn397 2.121 . S
O402 C410 1.258 . S
C403 N404 1.326 . S
C403 C407 1.460 . S
C403 H409 0.929 . S
N404 Mn397 2.257 . S
N404 C403 1.326 . S
N404 C408 1.362 . S
C405 C406 1.258 . S
C405 C408 1.431 . S
C405 C425 1.449 . S
C406 C405 1.258 . S
C406 C407 1.477 . S
C406 H426 0.931 . S
C407 C403 1.460 . S
C407 C406 1.477 . S
C407 H427 0.930 . S
C408 N404 1.362 . S
C408 C405 1.431 . S
C408 C418 1.476 . S
H409 C403 0.929 . S
C410 O401 1.250 . S
C410 O402 1.258 . S
O411 Mn396 2.162 . S
O411 C399 1.281 . S
O412 Mn396 2.297 . S
O412 C399 1.236 . S
N413 Mn397 2.282 . S
N413 C414 1.328 . S
N413 C418 1.318 . S
C414 N413 1.328 . S
C414 C415 1.457 . S
C414 H419 0.929 . S
C415 C414 1.457 . S
C415 C416 1.291 . S
C415 H428 0.931 . S
C416 C415 1.291 . S
C416 C417 1.373 . S
C416 H429 0.929 . S
C417 C416 1.373 . S
C417 C418 1.396 . S
C417 C424 1.403 . S
C418 C408 1.476 . S
C418 N413 1.318 . S
C418 C417 1.396 . S
H419 C414 0.929 . S
O420 Mn396 2.385 . S
O420 C398 1.234 . S
O421 Mn396 2.209 . S
O421 Mn397 2.215 . S
O421 C398 1.283 . S
O422 Mn396 2.094 . S
O422 C400 1.240 . S
O423 Mn397 2.117 . S
O423 C400 1.264 . S
C424 C417 1.403 . S
C424 C425 1.399 . S
C424 H430 0.929 . S
C425 C405 1.449 . S
C425 C424 1.399 . S
C425 H431 0.930 . S
H426 C406 0.931 . S
H427 C407 0.930 . S
H428 C415 0.931 . S
H429 C416 0.929 . S
H430 C424 0.929 . S
H431 C425 0.930 . S
Mn432 O437 2.095 . S
Mn432 O447 2.162 1_545 S
Mn432 O448 2.297 1_545 S
Mn432 O456 2.385 . S
Mn432 O457 2.209 . S
Mn432 O458 2.094 . S
Mn433 O438 2.121 . S
Mn433 N440 2.257 . S
Mn433 N449 2.282 . S
Mn433 O457 2.215 . S
Mn433 O459 2.117 . S
C434 O456 1.234 . S
C434 O457 1.283 . S
C435 O447 1.281 . S
C435 O448 1.236 . S
C436 O458 1.240 . S
C436 O459 1.264 . S
O437 Mn432 2.095 . S
O437 C446 1.250 . S
O438 Mn433 2.121 . S
O438 C446 1.258 . S
C439 N440 1.326 . S
C439 C443 1.460 . S
C439 H445 0.929 . S
N440 Mn433 2.257 . S
N440 C439 1.326 . S
N440 C444 1.362 . S
C441 C442 1.258 . S
C441 C444 1.431 . S
C441 C461 1.449 . S
C442 C441 1.258 . S
C442 C443 1.477 . S
C442 H462 0.931 . S
C443 C439 1.460 . S
C443 C442 1.477 . S
C443 H463 0.930 . S
C444 N440 1.362 . S
C444 C441 1.431 . S
C444 C454 1.476 . S
H445 C439 0.929 . S
C446 O437 1.250 . S
C446 O438 1.258 . S
O447 Mn432 2.162 1_565 S
O447 C435 1.281 . S
O448 Mn432 2.297 1_565 S
O448 C435 1.236 . S
N449 Mn433 2.282 . S
N449 C450 1.328 . S
N449 C454 1.318 . S
C450 N449 1.328 . S
C450 C451 1.457 . S
C450 H455 0.929 . S
C451 C450 1.457 . S
C451 C452 1.291 . S
C451 H464 0.931 . S
C452 C451 1.291 . S
C452 C453 1.373 . S
C452 H465 0.929 . S
C453 C452 1.373 . S
C453 C454 1.396 . S
C453 C460 1.403 . S
C454 C444 1.476 . S
C454 N449 1.318 . S
C454 C453 1.396 . S
H455 C450 0.929 . S
O456 Mn432 2.385 . S
O456 C434 1.234 . S
O457 Mn432 2.209 . S
O457 Mn433 2.215 . S
O457 C434 1.283 . S
O458 Mn432 2.094 . S
O458 C436 1.240 . S
O459 Mn433 2.117 . S
O459 C436 1.264 . S
C460 C453 1.403 . S
C460 C461 1.399 . S
C460 H466 0.929 . S
C461 C441 1.449 . S
C461 C460 1.399 . S
C461 H467 0.930 . S
H462 C442 0.931 . S
H463 C443 0.930 . S
H464 C451 0.931 . S
H465 C452 0.929 . S
H466 C460 0.929 . S
H467 C461 0.930 . S
Mn468 O473 2.095 1_655 S
Mn468 O483 2.162 . S
Mn468 O484 2.297 . S
Mn468 O492 2.385 . S
Mn468 O493 2.209 . S
Mn468 O494 2.094 . S
Mn469 O474 2.121 1_655 S
Mn469 N476 2.257 . S
Mn469 N485 2.282 . S
Mn469 O493 2.215 . S
Mn469 O495 2.117 . S
C470 O492 1.234 . S
C470 O493 1.283 . S
C471 O483 1.281 . S
C471 O484 1.236 . S
C472 O494 1.240 . S
C472 O495 1.264 . S
O473 Mn468 2.095 1_455 S
O473 C482 1.250 . S
O474 Mn469 2.121 1_455 S
O474 C482 1.258 . S
C475 N476 1.326 1_455 S
C475 C479 1.460 . S
C475 H481 0.929 . S
N476 Mn469 2.257 . S
N476 C475 1.326 1_655 S
N476 C480 1.362 . S
C477 C478 1.258 1_655 S
C477 C480 1.431 . S
C477 C497 1.449 . S
C478 C477 1.258 1_455 S
C478 C479 1.477 . S
C478 H498 0.931 . S
C479 C475 1.460 . S
C479 C478 1.477 . S
C479 H499 0.930 . S
C480 N476 1.362 . S
C480 C477 1.431 . S
C480 C490 1.476 . S
H481 C475 0.929 . S
C482 O473 1.250 . S
C482 O474 1.258 . S
O483 Mn468 2.162 . S
O483 C471 1.281 . S
O484 Mn468 2.297 . S
O484 C471 1.236 . S
N485 Mn469 2.282 . S
N485 C486 1.328 . S
N485 C490 1.318 . S
C486 N485 1.328 . S
C486 C487 1.457 . S
C486 H491 0.929 . S
C487 C486 1.457 . S
C487 C488 1.291 . S
C487 H500 0.931 . S
C488 C487 1.291 . S
C488 C489 1.373 . S
C488 H501 0.929 . S
C489 C488 1.373 . S
C489 C490 1.396 . S
C489 C496 1.403 . S
C490 C480 1.476 . S
C490 N485 1.318 . S
C490 C489 1.396 . S
H491 C486 0.929 . S
O492 Mn468 2.385 . S
O492 C470 1.234 . S
O493 Mn468 2.209 . S
O493 Mn469 2.215 . S
O493 C470 1.283 . S
O494 Mn468 2.094 . S
O494 C472 1.240 . S
O495 Mn469 2.117 . S
O495 C472 1.264 . S
C496 C489 1.403 . S
C496 C497 1.399 . S
C496 H502 0.929 . S
C497 C477 1.449 . S
C497 C496 1.399 . S
C497 H503 0.930 . S
H498 C478 0.931 . S
H499 C479 0.930 . S
H500 C487 0.931 . S
H501 C488 0.929 . S
H502 C496 0.929 . S
H503 C497 0.930 . S
Mn504 O509 2.095 . S
Mn504 O519 2.162 . S
Mn504 O520 2.297 . S
Mn504 O528 2.385 . S
Mn504 O529 2.209 . S
Mn504 O530 2.094 . S
Mn505 O510 2.121 . S
Mn505 N512 2.257 . S
Mn505 N521 2.282 . S
Mn505 O529 2.215 . S
Mn505 O531 2.117 . S
C506 O528 1.234 . S
C506 O529 1.283 . S
C507 O519 1.281 . S
C507 O520 1.236 . S
C508 O530 1.240 . S
C508 O531 1.264 . S
O509 Mn504 2.095 . S
O509 C518 1.250 . S
O510 Mn505 2.121 . S
O510 C518 1.258 . S
C511 N512 1.326 . S
C511 C515 1.460 . S
C511 H517 0.929 . S
N512 Mn505 2.257 . S
N512 C511 1.326 . S
N512 C516 1.362 . S
C513 C514 1.258 . S
C513 C516 1.431 . S
C513 C533 1.449 . S
C514 C513 1.258 . S
C514 C515 1.477 . S
C514 H534 0.931 . S
C515 C511 1.460 . S
C515 C514 1.477 . S
C515 H535 0.930 . S
C516 N512 1.362 . S
C516 C513 1.431 . S
C516 C526 1.476 . S
H517 C511 0.929 . S
C518 O509 1.250 . S
C518 O510 1.258 . S
O519 Mn504 2.162 . S
O519 C507 1.281 . S
O520 Mn504 2.297 . S
O520 C507 1.236 . S
N521 Mn505 2.282 . S
N521 C522 1.328 . S
N521 C526 1.318 . S
C522 N521 1.328 . S
C522 C523 1.457 . S
C522 H527 0.929 . S
C523 C522 1.457 . S
C523 C524 1.291 . S
C523 H536 0.931 . S
C524 C523 1.291 . S
C524 C525 1.373 . S
C524 H537 0.929 . S
C525 C524 1.373 . S
C525 C526 1.396 . S
C525 C532 1.403 . S
C526 C516 1.476 . S
C526 N521 1.318 . S
C526 C525 1.396 . S
H527 C522 0.929 . S
O528 Mn504 2.385 . S
O528 C506 1.234 . S
O529 Mn504 2.209 . S
O529 Mn505 2.215 . S
O529 C506 1.283 . S
O530 Mn504 2.094 . S
O530 C508 1.240 . S
O531 Mn505 2.117 . S
O531 C508 1.264 . S
C532 C525 1.403 . S
C532 C533 1.399 . S
C532 H538 0.929 . S
C533 C513 1.449 . S
C533 C532 1.399 . S
C533 H539 0.930 . S
H534 C514 0.931 . S
H535 C515 0.930 . S
H536 C523 0.931 . S
H537 C524 0.929 . S
H538 C532 0.929 . S
H539 C533 0.930 . S
Mn540 O545 2.095 . S
Mn540 O555 2.162 . S
Mn540 O556 2.297 . S
Mn540 O564 2.385 . S
Mn540 O565 2.209 . S
Mn540 O566 2.094 . S
Mn541 O546 2.121 . S
Mn541 N548 2.257 . S
Mn541 N557 2.282 . S
Mn541 O565 2.215 . S
Mn541 O567 2.117 . S
C542 O564 1.234 . S
C542 O565 1.283 . S
C543 O555 1.281 . S
C543 O556 1.236 . S
C544 O566 1.240 . S
C544 O567 1.264 . S
O545 Mn540 2.095 . S
O545 C554 1.250 . S
O546 Mn541 2.121 . S
O546 C554 1.258 . S
C547 N548 1.326 . S
C547 C551 1.460 . S
C547 H553 0.929 . S
N548 Mn541 2.257 . S
N548 C547 1.326 . S
N548 C552 1.362 . S
C549 C550 1.258 . S
C549 C552 1.431 . S
C549 C569 1.449 . S
C550 C549 1.258 . S
C550 C551 1.477 . S
C550 H570 0.931 . S
C551 C547 1.460 . S
C551 C550 1.477 . S
C551 H571 0.930 . S
C552 N548 1.362 . S
C552 C549 1.431 . S
C552 C562 1.476 . S
H553 C547 0.929 . S
C554 O545 1.250 . S
C554 O546 1.258 . S
O555 Mn540 2.162 . S
O555 C543 1.281 . S
O556 Mn540 2.297 . S
O556 C543 1.236 . S
N557 Mn541 2.282 . S
N557 C558 1.328 . S
N557 C562 1.318 . S
C558 N557 1.328 . S
C558 C559 1.457 . S
C558 H563 0.929 . S
C559 C558 1.457 . S
C559 C560 1.291 . S
C559 H572 0.931 . S
C560 C559 1.291 . S
C560 C561 1.373 . S
C560 H573 0.929 . S
C561 C560 1.373 . S
C561 C562 1.396 . S
C561 C568 1.403 . S
C562 C552 1.476 . S
C562 N557 1.318 . S
C562 C561 1.396 . S
H563 C558 0.929 . S
O564 Mn540 2.385 . S
O564 C542 1.234 . S
O565 Mn540 2.209 . S
O565 Mn541 2.215 . S
O565 C542 1.283 . S
O566 Mn540 2.094 . S
O566 C544 1.240 . S
O567 Mn541 2.117 . S
O567 C544 1.264 . S
C568 C561 1.403 . S
C568 C569 1.399 . S
C568 H574 0.929 . S
C569 C549 1.449 . S
C569 C568 1.399 . S
C569 H575 0.930 . S
H570 C550 0.931 . S
H571 C551 0.930 . S
H572 C559 0.931 . S
H573 C560 0.929 . S
H574 C568 0.929 . S
H575 C569 0.930 . S
Mn576 O581 2.095 1_545 S
Mn576 O591 2.162 . S
Mn576 O592 2.295 1_545 S
Mn576 O600 2.385 . S
Mn576 O601 2.209 . S
Mn576 O602 2.094 . S
Mn577 O582 2.121 1_545 S
Mn577 N584 2.257 . S
Mn577 N593 2.282 . S
Mn577 O601 2.215 . S
Mn577 O603 2.117 . S
C578 O600 1.234 . S
C578 O601 1.283 . S
C579 O591 1.281 . S
C579 O592 1.231 1_545 S
C580 O602 1.240 . S
C580 O603 1.264 . S
O581 Mn576 2.095 1_565 S
O581 C590 1.250 . S
O582 Mn577 2.121 1_565 S
O582 C590 1.258 . S
C583 N584 1.326 1_565 S
C583 C587 1.460 . S
C583 H589 0.929 . S
N584 Mn577 2.257 . S
N584 C583 1.326 1_545 S
N584 C588 1.362 . S
C585 C586 1.258 1_545 S
C585 C588 1.431 . S
C585 C605 1.449 . S
C586 C585 1.258 1_565 S
C586 C587 1.477 . S
C586 H606 0.931 . S
C587 C583 1.460 . S
C587 C586 1.477 . S
C587 H607 0.930 . S
C588 N584 1.362 . S
C588 C585 1.431 . S
C588 C598 1.476 . S
H589 C583 0.929 . S
C590 O581 1.250 . S
C590 O582 1.258 . S
O591 Mn576 2.162 . S
O591 C579 1.281 . S
O592 Mn576 2.295 1_565 S
O592 C579 1.231 1_565 S
N593 Mn577 2.282 . S
N593 C594 1.328 . S
N593 C598 1.318 . S
C594 N593 1.328 . S
C594 C595 1.457 . S
C594 H599 0.929 . S
C595 C594 1.457 . S
C595 C596 1.291 . S
C595 H608 0.931 . S
C596 C595 1.291 . S
C596 C597 1.373 . S
C596 H609 0.929 . S
C597 C596 1.373 . S
C597 C598 1.396 . S
C597 C604 1.403 . S
C598 C588 1.476 . S
C598 N593 1.318 . S
C598 C597 1.396 . S
H599 C594 0.929 . S
O600 Mn576 2.385 . S
O600 C578 1.234 . S
O601 Mn576 2.209 . S
O601 Mn577 2.215 . S
O601 C578 1.283 . S
O602 Mn576 2.094 . S
O602 C580 1.240 . S
O603 Mn577 2.117 . S
O603 C580 1.264 . S
C604 C597 1.403 . S
C604 C605 1.399 . S
C604 H610 0.929 . S
C605 C585 1.449 . S
C605 C604 1.399 . S
C605 H611 0.930 . S
H606 C586 0.931 . S
H607 C587 0.930 . S
H608 C595 0.931 . S
H609 C596 0.929 . S
H610 C604 0.929 . S
H611 C605 0.930 . S
Mn612 O617 2.095 . S
Mn612 O627 2.162 1_655 S
Mn612 O628 2.297 1_655 S
Mn612 O636 2.385 . S
Mn612 O637 2.209 . S
Mn612 O638 2.094 . S
Mn613 O618 2.121 . S
Mn613 N620 2.257 . S
Mn613 N629 2.282 . S
Mn613 O637 2.215 . S
Mn613 O639 2.117 . S
C614 O636 1.234 . S
C614 O637 1.283 . S
C615 O627 1.281 . S
C615 O628 1.236 . S
C616 O638 1.240 . S
C616 O639 1.264 . S
O617 Mn612 2.095 . S
O617 C626 1.250 . S
O618 Mn613 2.121 . S
O618 C626 1.258 . S
C619 N620 1.326 . S
C619 C623 1.460 . S
C619 H625 0.929 . S
N620 Mn613 2.257 . S
N620 C619 1.326 . S
N620 C624 1.362 . S
C621 C622 1.258 . S
C621 C624 1.431 . S
C621 C641 1.449 . S
C622 C621 1.258 . S
C622 C623 1.477 . S
C622 H642 0.931 . S
C623 C619 1.460 . S
C623 C622 1.477 . S
C623 H643 0.930 . S
C624 N620 1.362 . S
C624 C621 1.431 . S
C624 C634 1.476 . S
H625 C619 0.929 . S
C626 O617 1.250 . S
C626 O618 1.258 . S
O627 Mn612 2.162 1_455 S
O627 C615 1.281 . S
O628 Mn612 2.297 1_455 S
O628 C615 1.236 . S
N629 Mn613 2.282 . S
N629 C630 1.328 . S
N629 C634 1.318 . S
C630 N629 1.328 . S
C630 C631 1.457 . S
C630 H635 0.929 . S
C631 C630 1.457 . S
C631 C632 1.291 . S
C631 H644 0.931 . S
C632 C631 1.291 . S
C632 C633 1.373 . S
C632 H645 0.929 . S
C633 C632 1.373 . S
C633 C634 1.396 . S
C633 C640 1.403 . S
C634 C624 1.476 . S
C634 N629 1.318 . S
C634 C633 1.396 . S
H635 C630 0.929 . S
O636 Mn612 2.385 . S
O636 C614 1.234 . S
O637 Mn612 2.209 . S
O637 Mn613 2.215 . S
O637 C614 1.283 . S
O638 Mn612 2.094 . S
O638 C616 1.240 . S
O639 Mn613 2.117 . S
O639 C616 1.264 . S
C640 C633 1.403 . S
C640 C641 1.399 . S
C640 H646 0.929 . S
C641 C621 1.449 . S
C641 C640 1.399 . S
C641 H647 0.930 . S
H642 C622 0.931 . S
H643 C623 0.930 . S
H644 C631 0.931 . S
H645 C632 0.929 . S
H646 C640 0.929 . S
H647 C641 0.930 . S
H648 C656 0.930 . S
H649 C659 0.930 . S
H650 C661 0.930 . S
H651 C662 0.970 . S
H652 C662 0.970 . S
H653 C664 0.930 . S
H654 C666 0.930 . S
H655 C668 0.930 . S
C656 H648 0.930 . S
C656 C657 1.382 . S
C656 C658 1.426 . S
C657 C656 1.382 . S
C657 C661 1.389 . S
C658 C656 1.426 . S
C658 C659 1.375 . S
C658 C662 1.532 . S
C659 H649 0.930 . S
C659 C658 1.375 . S
C659 C660 1.416 . S
C660 C659 1.416 . S
C660 C661 1.371 . S
C661 H650 0.930 . S
C661 C657 1.389 . S
C661 C660 1.371 . S
C662 H651 0.970 . S
C662 H652 0.970 . S
C662 C658 1.532 . S
C662 C663 1.499 . S
C663 C662 1.499 . S
C663 C664 1.370 . S
C663 C668 1.415 . S
C664 H653 0.930 . S
C664 C663 1.370 . S
C664 C665 1.407 . S
C665 C664 1.407 . S
C665 C666 1.365 . S
C666 H654 0.930 . S
C666 C665 1.365 . S
C666 C667 1.393 . S
C667 C666 1.393 . S
C667 C668 1.387 . S
C668 H655 0.930 . S
C668 C663 1.415 . S
C668 C667 1.387 . S
H669 C677 0.930 . S
H670 C680 0.930 . S
H671 C682 0.930 . S
H672 C683 0.970 . S
H673 C683 0.970 . S
H674 C685 0.930 . S
H675 C687 0.930 . S
H676 C689 0.930 . S
C677 H669 0.930 . S
C677 C678 1.382 . S
C677 C679 1.426 . S
C678 C677 1.382 . S
C678 C682 1.389 . S
C679 C677 1.426 . S
C679 C680 1.375 . S
C679 C683 1.532 . S
C680 H670 0.930 . S
C680 C679 1.375 . S
C680 C681 1.416 . S
C681 C680 1.416 . S
C681 C682 1.371 . S
C682 H671 0.930 . S
C682 C678 1.389 . S
C682 C681 1.371 . S
C683 H672 0.970 . S
C683 H673 0.970 . S
C683 C679 1.532 . S
C683 C684 1.499 . S
C684 C683 1.499 . S
C684 C685 1.370 . S
C684 C689 1.415 . S
C685 H674 0.930 . S
C685 C684 1.370 . S
C685 C686 1.407 . S
C686 C685 1.407 . S
C686 C687 1.365 . S
C687 H675 0.930 . S
C687 C686 1.365 . S
C687 C688 1.393 . S
C688 C687 1.393 . S
C688 C689 1.387 . S
C689 H676 0.930 . S
C689 C684 1.415 . S
C689 C688 1.387 . S
H690 C698 0.930 . S
H691 C701 0.930 . S
H692 C703 0.930 . S
H693 C704 0.970 . S
H694 C704 0.970 . S
H695 C706 0.930 . S
H696 C708 0.930 . S
H697 C710 0.930 . S
C698 H690 0.930 . S
C698 C699 1.382 . S
C698 C700 1.426 . S
C699 C698 1.382 . S
C699 C703 1.389 . S
C700 C698 1.426 . S
C700 C701 1.375 . S
C700 C704 1.532 . S
C701 H691 0.930 . S
C701 C700 1.375 . S
C701 C702 1.416 . S
C702 C701 1.416 . S
C702 C703 1.371 . S
C703 H692 0.930 . S
C703 C699 1.389 . S
C703 C702 1.371 . S
C704 H693 0.970 . S
C704 H694 0.970 . S
C704 C700 1.532 . S
C704 C705 1.499 . S
C705 C704 1.499 . S
C705 C706 1.370 . S
C705 C710 1.415 . S
C706 H695 0.930 . S
C706 C705 1.370 . S
C706 C707 1.407 . S
C707 C706 1.407 . S
C707 C708 1.365 . S
C708 H696 0.930 . S
C708 C707 1.365 . S
C708 C709 1.393 . S
C709 C708 1.393 . S
C709 C710 1.387 . S
C710 H697 0.930 . S
C710 C705 1.415 . S
C710 C709 1.387 . S
H711 C719 0.930 . S
H712 C722 0.930 . S
H713 C724 0.930 . S
H714 C725 0.970 . S
H715 C725 0.970 . S
H716 C727 0.930 . S
H717 C729 0.930 . S
H718 C731 0.930 . S
C719 H711 0.930 . S
C719 C720 1.382 . S
C719 C721 1.426 . S
C720 C719 1.382 . S
C720 C724 1.389 . S
C721 C719 1.426 . S
C721 C722 1.375 . S
C721 C725 1.532 . S
C722 H712 0.930 . S
C722 C721 1.375 . S
C722 C723 1.416 . S
C723 C722 1.416 . S
C723 C724 1.371 . S
C724 H713 0.930 . S
C724 C720 1.389 . S
C724 C723 1.371 . S
C725 H714 0.970 . S
C725 H715 0.970 . S
C725 C721 1.532 . S
C725 C726 1.499 . S
C726 C725 1.499 . S
C726 C727 1.370 . S
C726 C731 1.415 . S
C727 H716 0.930 . S
C727 C726 1.370 . S
C727 C728 1.407 . S
C728 C727 1.407 . S
C728 C729 1.365 . S
C729 H717 0.930 . S
C729 C728 1.365 . S
C729 C730 1.393 . S
C730 C729 1.393 . S
C730 C731 1.387 . S
C731 H718 0.930 . S
C731 C726 1.415 . S
C731 C730 1.387 . S
H732 C740 0.930 . S
H733 C743 0.930 . S
H734 C745 0.930 . S
H735 C746 0.970 . S
H736 C746 0.970 . S
H737 C748 0.930 . S
H738 C750 0.930 . S
H739 C752 0.930 . S
C740 H732 0.930 . S
C740 C741 1.382 . S
C740 C742 1.426 . S
C741 C740 1.382 . S
C741 C745 1.389 . S
C742 C740 1.426 . S
C742 C743 1.375 . S
C742 C746 1.532 . S
C743 H733 0.930 . S
C743 C742 1.375 . S
C743 C744 1.416 . S
C744 C743 1.416 . S
C744 C745 1.371 . S
C745 H734 0.930 . S
C745 C741 1.389 . S
C745 C744 1.371 . S
C746 H735 0.970 . S
C746 H736 0.970 . S
C746 C742 1.532 . S
C746 C747 1.499 . S
C747 C746 1.499 . S
C747 C748 1.370 . S
C747 C752 1.415 . S
C748 H737 0.930 . S
C748 C747 1.370 . S
C748 C749 1.407 . S
C749 C748 1.407 . S
C749 C750 1.365 . S
C750 H738 0.930 . S
C750 C749 1.365 . S
C750 C751 1.393 . S
C751 C750 1.393 . S
C751 C752 1.387 . S
C752 H739 0.930 . S
C752 C747 1.415 . S
C752 C751 1.387 . S
H753 C761 0.930 . S
H754 C764 0.930 . S
H755 C766 0.930 . S
H756 C767 0.970 . S
H757 C767 0.970 . S
H758 C769 0.930 . S
H759 C771 0.930 . S
H760 C773 0.930 . S
C761 H753 0.930 . S
C761 C762 1.382 . S
C761 C763 1.426 . S
C762 C761 1.382 . S
C762 C766 1.389 . S
C763 C761 1.426 . S
C763 C764 1.375 . S
C763 C767 1.532 . S
C764 H754 0.930 . S
C764 C763 1.375 . S
C764 C765 1.416 . S
C765 C764 1.416 . S
C765 C766 1.371 . S
C766 H755 0.930 . S
C766 C762 1.389 . S
C766 C765 1.371 . S
C767 H756 0.970 . S
C767 H757 0.970 . S
C767 C763 1.532 . S
C767 C768 1.499 . S
C768 C767 1.499 . S
C768 C769 1.370 . S
C768 C773 1.415 . S
C769 H758 0.930 . S
C769 C768 1.370 . S
C769 C770 1.407 . S
C770 C769 1.407 . S
C770 C771 1.365 . S
C771 H759 0.930 . S
C771 C770 1.365 . S
C771 C772 1.393 . S
C772 C771 1.393 . S
C772 C773 1.387 . S
C773 H760 0.930 . S
C773 C768 1.415 . S
C773 C772 1.387 . S
H774 C782 0.930 . S
H775 C785 0.930 . S
H776 C787 0.930 . S
H777 C788 0.970 . S
H778 C788 0.970 . S
H779 C790 0.930 . S
H780 C792 0.930 . S
H781 C794 0.930 . S
C782 H774 0.930 . S
C782 C783 1.382 . S
C782 C784 1.426 . S
C783 C782 1.382 . S
C783 C787 1.389 . S
C784 C782 1.426 . S
C784 C785 1.375 . S
C784 C788 1.532 . S
C785 H775 0.930 . S
C785 C784 1.375 . S
C785 C786 1.416 . S
C786 C785 1.416 . S
C786 C787 1.371 . S
C787 H776 0.930 . S
C787 C783 1.389 . S
C787 C786 1.371 . S
C788 H777 0.970 . S
C788 H778 0.970 . S
C788 C784 1.532 . S
C788 C789 1.499 . S
C789 C788 1.499 . S
C789 C790 1.370 . S
C789 C794 1.415 . S
C790 H779 0.930 . S
C790 C789 1.370 . S
C790 C791 1.407 . S
C791 C790 1.407 . S
C791 C792 1.365 . S
C792 H780 0.930 . S
C792 C791 1.365 . S
C792 C793 1.393 . S
C793 C792 1.393 . S
C793 C794 1.387 . S
C794 H781 0.930 . S
C794 C789 1.415 . S
C794 C793 1.387 . S
H795 C803 0.930 . S
H796 C806 0.930 . S
H797 C808 0.930 . S
H798 C809 0.970 . S
H799 C809 0.970 . S
H800 C811 0.930 . S
H801 C813 0.930 . S
H802 C815 0.930 . S
C803 H795 0.930 . S
C803 C804 1.382 . S
C803 C805 1.426 . S
C804 C803 1.382 . S
C804 C808 1.389 . S
C805 C803 1.426 . S
C805 C806 1.375 . S
C805 C809 1.532 . S
C806 H796 0.930 . S
C806 C805 1.375 . S
C806 C807 1.416 . S
C807 C806 1.416 . S
C807 C808 1.371 . S
C808 H797 0.930 . S
C808 C804 1.389 . S
C808 C807 1.371 . S
C809 H798 0.970 . S
C809 H799 0.970 . S
C809 C805 1.532 . S
C809 C810 1.499 . S
C810 C809 1.499 . S
C810 C811 1.370 . S
C810 C815 1.415 . S
C811 H800 0.930 . S
C811 C810 1.370 . S
C811 C812 1.407 . S
C812 C811 1.407 . S
C812 C813 1.365 . S
C813 H801 0.930 . S
C813 C812 1.365 . S
C813 C814 1.393 . S
C814 C813 1.393 . S
C814 C815 1.387 . S
C815 H802 0.930 . S
C815 C810 1.415 . S
C815 C814 1.387 . S
H816 C824 0.930 . S
H817 C827 0.930 . S
H818 C829 0.930 . S
H819 C830 0.970 . S
H820 C830 0.970 . S
H821 C832 0.930 . S
H822 C834 0.930 . S
H823 C836 0.930 . S
C824 H816 0.930 . S
C824 C825 1.382 . S
C824 C826 1.426 . S
C825 C824 1.382 . S
C825 C829 1.389 . S
C826 C824 1.426 . S
C826 C827 1.375 . S
C826 C830 1.532 . S
C827 H817 0.930 . S
C827 C826 1.375 . S
C827 C828 1.416 . S
C828 C827 1.416 . S
C828 C829 1.371 . S
C829 H818 0.930 . S
C829 C825 1.389 . S
C829 C828 1.371 . S
C830 H819 0.970 . S
C830 H820 0.970 . S
C830 C826 1.532 . S
C830 C831 1.499 . S
C831 C830 1.499 . S
C831 C832 1.370 . S
C831 C836 1.415 . S
C832 H821 0.930 . S
C832 C831 1.370 . S
C832 C833 1.407 . S
C833 C832 1.407 . S
C833 C834 1.365 . S
C834 H822 0.930 . S
C834 C833 1.365 . S
C834 C835 1.393 . S
C835 C834 1.393 . S
C835 C836 1.387 . S
C836 H823 0.930 . S
C836 C831 1.415 . S
C836 C835 1.387 . S
H837 C845 0.930 . S
H838 C848 0.930 . S
H839 C850 0.930 . S
H840 C851 0.970 . S
H841 C851 0.970 . S
H842 C853 0.930 . S
H843 C855 0.930 . S
H844 C857 0.930 . S
C845 H837 0.930 . S
C845 C846 1.382 . S
C845 C847 1.426 . S
C846 C845 1.382 . S
C846 C850 1.389 1_455 S
C847 C845 1.426 . S
C847 C848 1.375 . S
C847 C851 1.532 . S
C848 H838 0.930 . S
C848 C847 1.375 . S
C848 C849 1.416 . S
C849 C848 1.416 . S
C849 C850 1.371 1_455 S
C850 H839 0.930 . S
C850 C846 1.389 1_655 S
C850 C849 1.371 1_655 S
C851 H840 0.970 . S
C851 H841 0.970 . S
C851 C847 1.532 . S
C851 C852 1.499 . S
C852 C851 1.499 . S
C852 C853 1.370 . S
C852 C857 1.415 . S
C853 H842 0.930 . S
C853 C852 1.370 . S
C853 C854 1.411 . S
C854 C853 1.411 . S
C854 C855 1.367 1_455 S
C855 H843 0.930 . S
C855 C854 1.367 1_655 S
C855 C856 1.393 1_655 S
C856 C855 1.393 1_455 S
C856 C857 1.387 . S
C857 H844 0.930 . S
C857 C852 1.415 . S
C857 C856 1.387 . S
H858 C866 0.930 . S
H859 C869 0.930 . S
H860 C871 0.930 . S
H861 C872 0.970 . S
H862 C872 0.970 . S
H863 C874 0.930 . S
H864 C876 0.930 . S
H865 C878 0.930 . S
C866 H858 0.930 . S
C866 C867 1.382 . S
C866 C868 1.426 . S
C867 C866 1.382 . S
C867 C871 1.389 . S
C868 C866 1.426 . S
C868 C869 1.375 . S
C868 C872 1.532 . S
C869 H859 0.930 . S
C869 C868 1.375 . S
C869 C870 1.416 . S
C870 C869 1.416 . S
C870 C871 1.371 . S
C871 H860 0.930 . S
C871 C867 1.389 . S
C871 C870 1.371 . S
C872 H861 0.970 . S
C872 H862 0.970 . S
C872 C868 1.532 . S
C872 C873 1.499 . S
C873 C872 1.499 . S
C873 C874 1.370 . S
C873 C878 1.415 . S
C874 H863 0.930 . S
C874 C873 1.370 . S
C874 C875 1.407 . S
C875 C874 1.407 . S
C875 C876 1.365 . S
C876 H864 0.930 . S
C876 C875 1.365 . S
C876 C877 1.393 . S
C877 C876 1.393 . S
C877 C878 1.387 . S
C878 H865 0.930 . S
C878 C873 1.415 . S
C878 C877 1.387 . S
H879 C887 0.930 . S
H880 C890 0.930 . S
H881 C892 0.930 . S
H882 C893 0.970 . S
H883 C893 0.970 . S
H884 C895 0.930 . S
H885 C897 0.930 . S
H886 C899 0.930 . S
C887 H879 0.930 . S
C887 C888 1.382 . S
C887 C889 1.426 . S
C888 C887 1.382 . S
C888 C892 1.389 1_565 S
C889 C887 1.426 . S
C889 C890 1.375 . S
C889 C893 1.532 . S
C890 H880 0.930 . S
C890 C889 1.375 . S
C890 C891 1.416 . S
C891 C890 1.416 . S
C891 C892 1.371 1_565 S
C892 H881 0.930 . S
C892 C888 1.389 1_545 S
C892 C891 1.371 1_545 S
C893 H882 0.970 . S
C893 H883 0.970 . S
C893 C889 1.532 . S
C893 C894 1.499 . S
C894 C893 1.499 . S
C894 C895 1.370 . S
C894 C899 1.415 . S
C895 H884 0.930 . S
C895 C894 1.370 . S
C895 C896 1.448 . S
C896 C895 1.448 . S
C896 C897 1.349 1_565 S
C897 H885 0.930 . S
C897 C896 1.349 1_545 S
C897 C898 1.393 1_545 S
C898 C897 1.393 1_565 S
C898 C899 1.387 . S
C899 H886 0.930 . S
C899 C894 1.415 . S
C899 C898 1.387 . S
H900 C908 0.930 . S
H901 C911 0.930 . S
H902 C913 0.930 . S
H903 C914 0.970 . S
H904 C914 0.970 . S
H905 C916 0.930 . S
H906 C918 0.930 . S
H907 C920 0.930 . S
C908 H900 0.930 . S
C908 C909 1.382 . S
C908 C910 1.426 . S
C909 C908 1.382 . S
C909 C913 1.389 1_565 S
C910 C908 1.426 . S
C910 C911 1.375 . S
C910 C914 1.532 . S
C911 H901 0.930 . S
C911 C910 1.375 . S
C911 C912 1.416 . S
C912 C911 1.416 . S
C912 C913 1.371 1_565 S
C913 H902 0.930 . S
C913 C909 1.389 1_545 S
C913 C912 1.371 1_545 S
C914 H903 0.970 . S
C914 H904 0.970 . S
C914 C910 1.532 . S
C914 C915 1.499 . S
C915 C914 1.499 . S
C915 C916 1.370 . S
C915 C920 1.415 . S
C916 H905 0.930 . S
C916 C915 1.370 . S
C916 C917 1.407 . S
C917 C916 1.407 . S
C917 C918 1.365 1_565 S
C918 H906 0.930 . S
C918 C917 1.365 1_545 S
C918 C919 1.393 1_545 S
C919 C918 1.393 1_565 S
C919 C920 1.387 . S
C920 H907 0.930 . S
C920 C915 1.415 . S
C920 C919 1.387 . S
H921 C929 0.930 . S
H922 C932 0.930 . S
H923 C934 0.930 . S
H924 C935 0.970 . S
H925 C935 0.970 . S
H926 C937 0.930 . S
H927 C939 0.930 . S
H928 C941 0.930 . S
C929 H921 0.930 . S
C929 C930 1.382 . S
C929 C931 1.426 . S
C930 C929 1.382 . S
C930 C934 1.389 1_455 S
C931 C929 1.426 . S
C931 C932 1.375 . S
C931 C935 1.532 . S
C932 H922 0.930 . S
C932 C931 1.375 . S
C932 C933 1.416 . S
C933 C932 1.416 . S
C933 C934 1.371 1_455 S
C934 H923 0.930 . S
C934 C930 1.389 1_655 S
C934 C933 1.371 1_655 S
C935 H924 0.970 . S
C935 H925 0.970 . S
C935 C931 1.532 . S
C935 C936 1.499 . S
C936 C935 1.499 . S
C936 C937 1.370 . S
C936 C941 1.415 . S
C937 H926 0.930 . S
C937 C936 1.370 . S
C937 C938 1.407 . S
C938 C937 1.407 . S
C938 C939 1.365 1_455 S
C939 H927 0.930 . S
C939 C938 1.365 1_655 S
C939 C940 1.393 1_655 S
C940 C939 1.393 1_455 S
C940 C941 1.387 . S
C941 H928 0.930 . S
C941 C936 1.415 . S
C941 C940 1.387 . S
H942 C950 0.930 . S
H943 C953 0.930 . S
H944 C955 0.930 . S
H945 C956 0.970 . S
H946 C956 0.970 . S
H947 C958 0.930 . S
H948 C960 0.930 . S
H949 C962 0.930 . S
C950 H942 0.930 . S
C950 C951 1.382 . S
C950 C952 1.426 . S
C951 C950 1.382 . S
C951 C955 1.389 . S
C952 C950 1.426 . S
C952 C953 1.375 . S
C952 C956 1.532 . S
C953 H943 0.930 . S
C953 C952 1.375 . S
C953 C954 1.416 . S
C954 C953 1.416 . S
C954 C955 1.371 . S
C955 H944 0.930 . S
C955 C951 1.389 . S
C955 C954 1.371 . S
C956 H945 0.970 . S
C956 H946 0.970 . S
C956 C952 1.532 . S
C956 C957 1.499 . S
C957 C956 1.499 . S
C957 C958 1.370 . S
C957 C962 1.415 . S
C958 H947 0.930 . S
C958 C957 1.370 . S
C958 C959 1.407 . S
C959 C958 1.407 . S
C959 C960 1.365 . S
C960 H948 0.930 . S
C960 C959 1.365 . S
C960 C961 1.393 . S
C961 C960 1.393 . S
C961 C962 1.387 . S
C962 H949 0.930 . S
C962 C957 1.415 . S
C962 C961 1.387 . S
H963 C971 0.930 . S
H964 C974 0.930 . S
H965 C976 0.930 . S
H966 C977 0.970 . S
H967 C977 0.970 . S
H968 C979 0.930 . S
H969 C981 0.930 . S
H970 C983 0.930 . S
C971 H963 0.930 . S
C971 C972 1.382 . S
C971 C973 1.426 . S
C972 C971 1.382 . S
C972 C976 1.389 . S
C973 C971 1.426 . S
C973 C974 1.375 . S
C973 C977 1.532 . S
C974 H964 0.930 . S
C974 C973 1.375 . S
C974 C975 1.416 . S
C975 C974 1.416 . S
C975 C976 1.371 . S
C976 H965 0.930 . S
C976 C972 1.389 . S
C976 C975 1.371 . S
C977 H966 0.970 . S
C977 H967 0.970 . S
C977 C973 1.532 . S
C977 C978 1.499 . S
C978 C977 1.499 . S
C978 C979 1.370 . S
C978 C983 1.415 . S
C979 H968 0.930 . S
C979 C978 1.370 . S
C979 C980 1.407 . S
C980 C979 1.407 . S
C980 C981 1.365 . S
C981 H969 0.930 . S
C981 C980 1.365 . S
C981 C982 1.393 . S
C982 C981 1.393 . S
C982 C983 1.387 . S
C983 H970 0.930 . S
C983 C978 1.415 . S
C983 C982 1.387 . S
H984 C992 0.930 . S
H985 C995 0.930 . S
H986 C997 0.930 . S
H987 C998 0.970 . S
H988 C998 0.970 . S
H989 C1000 0.930 . S
H990 C1002 0.930 . S
H991 C1004 0.930 . S
C992 H984 0.930 . S
C992 C993 1.382 . S
C992 C994 1.426 . S
C993 C992 1.382 . S
C993 C997 1.389 . S
C994 C992 1.426 . S
C994 C995 1.375 . S
C994 C998 1.532 . S
C995 H985 0.930 . S
C995 C994 1.375 . S
C995 C996 1.416 . S
C996 C995 1.416 . S
C996 C997 1.371 . S
C997 H986 0.930 . S
C997 C993 1.389 . S
C997 C996 1.371 . S
C998 H987 0.970 . S
C998 H988 0.970 . S
C998 C994 1.532 . S
C998 C999 1.499 . S
C999 C998 1.499 . S
C999 C1000 1.370 . S
C999 C1004 1.415 . S
C1000 H989 0.930 . S
C1000 C999 1.370 . S
C1000 C1001 1.407 . S
C1001 C1000 1.407 . S
C1001 C1002 1.365 . S
C1002 H990 0.930 . S
C1002 C1001 1.365 . S
C1002 C1003 1.393 . S
C1003 C1002 1.393 . S
C1003 C1004 1.387 . S
C1004 H991 0.930 . S
C1004 C999 1.415 . S
C1004 C1003 1.387 . S
H1005 C1013 0.930 . S
H1006 C1016 0.930 . S
H1007 C1018 0.930 . S
H1008 C1019 0.970 . S
H1009 C1019 0.970 . S
H1010 C1021 0.930 . S
H1011 C1023 0.930 . S
H1012 C1025 0.930 . S
C1013 H1005 0.930 . S
C1013 C1014 1.382 . S
C1013 C1015 1.426 . S
C1014 C1013 1.382 . S
C1014 C1018 1.389 . S
C1015 C1013 1.426 . S
C1015 C1016 1.375 . S
C1015 C1019 1.532 . S
C1016 H1006 0.930 . S
C1016 C1015 1.375 . S
C1016 C1017 1.416 . S
C1017 C1016 1.416 . S
C1017 C1018 1.371 . S
C1018 H1007 0.930 . S
C1018 C1014 1.389 . S
C1018 C1017 1.371 . S
C1019 H1008 0.970 . S
C1019 H1009 0.970 . S
C1019 C1015 1.532 . S
C1019 C1020 1.499 . S
C1020 C1019 1.499 . S
C1020 C1021 1.370 . S
C1020 C1025 1.415 . S
C1021 H1010 0.930 . S
C1021 C1020 1.370 . S
C1021 C1022 1.407 . S
C1022 C1021 1.407 . S
C1022 C1023 1.365 . S
C1023 H1011 0.930 . S
C1023 C1022 1.365 . S
C1023 C1024 1.393 . S
C1024 C1023 1.393 . S
C1024 C1025 1.387 . S
C1025 H1012 0.930 . S
C1025 C1020 1.415 . S
C1025 C1024 1.387 . S
C1026 C1027 1.387 . S
C1026 H1030 0.950 . S
C1026 C1035 1.390 . S
C1027 C1026 1.387 . S
C1027 C1029 1.387 1_655 S
H1028 C1035 0.950 . S
C1029 C1027 1.387 1_455 S
C1029 C1031 1.390 . S
C1029 H1033 0.950 . S
H1030 C1026 0.950 . S
C1031 C1029 1.390 . S
C1031 C1032 1.387 1_455 S
C1031 H1034 0.950 . S
C1032 C1031 1.387 1_655 S
C1032 C1035 1.387 . S
H1033 C1029 0.950 . S
H1034 C1031 0.950 . S
C1035 C1026 1.390 . S
C1035 H1028 0.950 . S
C1035 C1032 1.387 . S
C1036 C1037 1.387 . S
C1036 H1040 0.950 . S
C1036 C1045 1.390 . S
C1037 C1036 1.387 . S
C1037 C1039 1.387 . S
H1038 C1045 0.950 . S
C1039 C1037 1.387 . S
C1039 C1041 1.390 . S
C1039 H1043 0.950 . S
H1040 C1036 0.950 . S
C1041 C1039 1.390 . S
C1041 C1042 1.387 . S
C1041 H1044 0.950 . S
C1042 C1041 1.387 . S
C1042 C1045 1.387 . S
H1043 C1039 0.950 . S
H1044 C1041 0.950 . S
C1045 C1036 1.390 . S
C1045 H1038 0.950 . S
C1045 C1042 1.387 . S
C1046 C1047 1.387 . S
C1046 H1050 0.950 . S
C1046 C1055 1.390 . S
C1047 C1046 1.387 . S
C1047 C1049 1.387 1_545 S
H1048 C1055 0.950 . S
C1049 C1047 1.387 1_565 S
C1049 C1051 1.390 . S
C1049 H1053 0.950 . S
H1050 C1046 0.950 . S
C1051 C1049 1.390 . S
C1051 C1052 1.387 1_565 S
C1051 H1054 0.950 . S
C1052 C1051 1.387 1_545 S
C1052 C1055 1.387 . S
H1053 C1049 0.950 . S
H1054 C1051 0.950 . S
C1055 C1046 1.390 . S
C1055 H1048 0.950 . S
C1055 C1052 1.387 . S
C1056 C1057 1.387 . S
C1056 H1060 0.950 . S
C1056 C1065 1.390 . S
C1057 C1056 1.387 . S
C1057 C1059 1.387 1_565 S
H1058 C1065 0.950 . S
C1059 C1057 1.387 1_545 S
C1059 C1061 1.390 . S
C1059 H1063 0.950 . S
H1060 C1056 0.950 . S
C1061 C1059 1.390 . S
C1061 C1062 1.387 1_545 S
C1061 H1064 0.950 . S
C1062 C1061 1.387 1_565 S
C1062 C1065 1.387 . S
H1063 C1059 0.950 . S
H1064 C1061 0.950 . S
C1065 C1056 1.390 . S
C1065 H1058 0.950 . S
C1065 C1062 1.387 . S
C1066 C1067 1.387 . S
C1066 H1070 0.950 . S
C1066 C1075 1.390 . S
C1067 C1066 1.387 . S
C1067 C1069 1.387 1_455 S
H1068 C1075 0.950 . S
C1069 C1067 1.387 1_655 S
C1069 C1071 1.390 . S
C1069 H1073 0.950 . S
H1070 C1066 0.950 . S
C1071 C1069 1.390 . S
C1071 C1072 1.387 1_655 S
C1071 H1074 0.950 . S
C1072 C1071 1.387 1_455 S
C1072 C1075 1.387 . S
H1073 C1069 0.950 . S
H1074 C1071 0.950 . S
C1075 C1066 1.390 . S
C1075 H1068 0.950 . S
C1075 C1072 1.387 . S
C1076 C1077 1.387 . S
C1076 H1080 0.950 . S
C1076 C1085 1.390 . S
C1077 C1076 1.387 . S
C1077 C1079 1.387 . S
H1078 C1085 0.950 . S
C1079 C1077 1.387 . S
C1079 C1081 1.390 . S
C1079 H1083 0.950 . S
H1080 C1076 0.950 . S
C1081 C1079 1.390 . S
C1081 C1082 1.387 . S
C1081 H1084 0.950 . S
C1082 C1081 1.387 . S
C1082 C1085 1.387 . S
H1083 C1079 0.950 . S
H1084 C1081 0.950 . S
C1085 C1076 1.390 . S
C1085 H1078 0.950 . S
C1085 C1082 1.387 . S
C1086 C1087 1.387 1_655 S
C1086 H1090 0.950 . S
C1086 C1095 1.390 . S
C1087 C1086 1.387 1_455 S
C1087 C1089 1.387 . S
H1088 C1095 0.950 . S
C1089 C1087 1.387 . S
C1089 C1091 1.390 . S
C1089 H1093 0.950 . S
H1090 C1086 0.950 . S
C1091 C1089 1.390 . S
C1091 C1092 1.387 . S
C1091 H1094 0.950 . S
C1092 C1091 1.387 . S
C1092 C1095 1.387 1_455 S
H1093 C1089 0.950 . S
H1094 C1091 0.950 . S
C1095 C1086 1.390 . S
C1095 H1088 0.950 . S
C1095 C1092 1.387 1_655 S
C1096 C1097 1.387 . S
C1096 H1100 0.950 . S
C1096 C1105 1.390 . S
C1097 C1096 1.387 . S
C1097 C1099 1.387 . S
H1098 C1105 0.950 . S
C1099 C1097 1.387 . S
C1099 C1101 1.390 . S
C1099 H1103 0.950 . S
H1100 C1096 0.950 . S
C1101 C1099 1.390 . S
C1101 C1102 1.387 . S
C1101 H1104 0.950 . S
C1102 C1101 1.387 . S
C1102 C1105 1.387 . S
H1103 C1099 0.950 . S
H1104 C1101 0.950 . S
C1105 C1096 1.390 . S
C1105 H1098 0.950 . S
C1105 C1102 1.387 . S
C1106 C1107 1.387 1_545 S
C1106 H1110 0.950 . S
C1106 C1115 1.390 . S
C1107 C1106 1.387 1_565 S
C1107 C1109 1.387 . S
H1108 C1115 0.950 . S
C1109 C1107 1.387 . S
C1109 C1111 1.390 . S
C1109 H1113 0.950 . S
H1110 C1106 0.950 . S
C1111 C1109 1.390 . S
C1111 C1112 1.387 . S
C1111 H1114 0.950 . S
C1112 C1111 1.387 . S
C1112 C1115 1.387 1_565 S
H1113 C1109 0.950 . S
H1114 C1111 0.950 . S
C1115 C1106 1.390 . S
C1115 H1108 0.950 . S
C1115 C1112 1.387 1_545 S
C1116 C1117 1.387 1_565 S
C1116 H1120 0.950 . S
C1116 C1125 1.390 . S
C1117 C1116 1.387 1_545 S
C1117 C1119 1.387 . S
H1118 C1125 0.950 . S
C1119 C1117 1.387 . S
C1119 C1121 1.390 . S
C1119 H1123 0.950 . S
H1120 C1116 0.950 . S
C1121 C1119 1.390 . S
C1121 C1122 1.387 . S
C1121 H1124 0.950 . S
C1122 C1121 1.387 . S
C1122 C1125 1.387 1_545 S
H1123 C1119 0.950 . S
H1124 C1121 0.950 . S
C1125 C1116 1.390 . S
C1125 H1118 0.950 . S
C1125 C1122 1.387 1_565 S
C1126 C1127 1.387 1_455 S
C1126 H1130 0.950 . S
C1126 C1135 1.390 . S
C1127 C1126 1.387 1_655 S
C1127 C1129 1.387 . S
H1128 C1135 0.950 . S
C1129 C1127 1.387 . S
C1129 C1131 1.390 . S
C1129 H1133 0.950 . S
H1130 C1126 0.950 . S
C1131 C1129 1.390 . S
C1131 C1132 1.417 . S
C1131 H1134 0.950 . S
C1132 C1131 1.417 . S
C1132 C1135 1.372 1_655 S
H1133 C1129 0.950 . S
H1134 C1131 0.950 . S
C1135 C1126 1.390 . S
C1135 H1128 0.950 . S
C1135 C1132 1.372 1_455 S
C1136 C1137 1.387 . S
C1136 H1140 0.950 . S
C1136 C1145 1.390 . S
C1137 C1136 1.387 . S
C1137 C1139 1.387 . S
H1138 C1145 0.950 . S
C1139 C1137 1.387 . S
C1139 C1141 1.390 . S
C1139 H1143 0.950 . S
H1140 C1136 0.950 . S
C1141 C1139 1.390 . S
C1141 C1142 1.387 . S
C1141 H1144 0.950 . S
C1142 C1141 1.387 . S
C1142 C1145 1.387 . S
H1143 C1139 0.950 . S
H1144 C1141 0.950 . S
C1145 C1136 1.390 . S
C1145 H1138 0.950 . S
C1145 C1142 1.387 . S
C1146 C1147 1.387 . S
C1146 H1150 0.950 . S
C1146 C1155 1.390 . S
C1147 C1146 1.387 . S
C1147 C1149 1.387 . S
H1148 C1155 0.950 . S
C1149 C1147 1.387 . S
C1149 C1151 1.390 . S
C1149 H1153 0.950 . S
H1150 C1146 0.950 . S
C1151 C1149 1.390 . S
C1151 C1152 1.387 . S
C1151 H1154 0.950 . S
C1152 C1151 1.387 . S
C1152 C1155 1.387 . S
H1153 C1149 0.950 . S
H1154 C1151 0.950 . S
C1155 C1146 1.390 . S
C1155 H1148 0.950 . S
C1155 C1152 1.387 . S
C1156 C1157 1.387 . S
C1156 H1160 0.950 . S
C1156 C1165 1.390 . S
C1157 C1156 1.387 . S
C1157 C1159 1.387 . S
H1158 C1165 0.950 . S
C1159 C1157 1.387 . S
C1159 C1161 1.390 . S
C1159 H1163 0.950 . S
H1160 C1156 0.950 . S
C1161 C1159 1.390 . S
C1161 C1162 1.387 . S
C1161 H1164 0.950 . S
C1162 C1161 1.387 . S
C1162 C1165 1.387 . S
H1163 C1159 0.950 . S
H1164 C1161 0.950 . S
C1165 C1156 1.390 . S
C1165 H1158 0.950 . S
C1165 C1162 1.387 . S
C1166 C1167 1.387 . S
C1166 H1170 0.950 . S
C1166 C1175 1.390 . S
C1167 C1166 1.387 . S
C1167 C1169 1.387 . S
H1168 C1175 0.950 . S
C1169 C1167 1.387 . S
C1169 C1171 1.390 . S
C1169 H1173 0.950 . S
H1170 C1166 0.950 . S
C1171 C1169 1.390 . S
C1171 C1172 1.387 . S
C1171 H1174 0.950 . S
C1172 C1171 1.387 . S
C1172 C1175 1.387 . S
H1173 C1169 0.950 . S
H1174 C1171 0.950 . S
C1175 C1166 1.390 . S
C1175 H1168 0.950 . S
C1175 C1172 1.387 . S
C1176 C1177 1.387 . S
C1176 H1180 0.950 . S
C1176 C1185 1.390 . S
C1177 C1176 1.387 . S
C1177 C1179 1.387 . S
H1178 C1185 0.950 . S
C1179 C1177 1.387 . S
C1179 C1181 1.390 . S
C1179 H1183 0.950 . S
H1180 C1176 0.950 . S
C1181 C1179 1.390 . S
C1181 C1182 1.387 . S
C1181 H1184 0.950 . S
C1182 C1181 1.387 . S
C1182 C1185 1.387 . S
H1183 C1179 0.950 . S
H1184 C1181 0.950 . S
C1185 C1176 1.390 . S
C1185 H1178 0.950 . S
C1185 C1182 1.387 . S
C1186 C1187 1.387 . S
C1186 H1190 0.950 . S
C1186 C1195 1.390 . S
C1187 C1186 1.387 . S
C1187 C1189 1.387 . S
H1188 C1195 0.950 . S
C1189 C1187 1.387 . S
C1189 C1191 1.390 . S
C1189 H1193 0.950 . S
H1190 C1186 0.950 . S
C1191 C1189 1.390 . S
C1191 C1192 1.387 . S
C1191 H1194 0.950 . S
C1192 C1191 1.387 . S
C1192 C1195 1.387 . S
H1193 C1189 0.950 . S
H1194 C1191 0.950 . S
C1195 C1186 1.390 . S
C1195 H1188 0.950 . S
C1195 C1192 1.387 . S
C1196 C1197 1.387 . S
C1196 H1200 0.950 . S
C1196 C1205 1.390 . S
C1197 C1196 1.387 . S
C1197 C1199 1.387 . S
H1198 C1205 0.950 . S
C1199 C1197 1.387 . S
C1199 C1201 1.390 . S
C1199 H1203 0.950 . S
H1200 C1196 0.950 . S
C1201 C1199 1.390 . S
C1201 C1202 1.387 . S
C1201 H1204 0.950 . S
C1202 C1201 1.387 . S
C1202 C1205 1.387 . S
H1203 C1199 0.950 . S
H1204 C1201 0.950 . S
C1205 C1196 1.390 . S
C1205 H1198 0.950 . S
C1205 C1202 1.387 . S
C1206 C1207 1.387 . S
C1206 H1210 0.950 . S
C1206 C1215 1.390 . S
C1207 C1206 1.387 . S
C1207 C1209 1.387 . S
H1208 C1215 0.950 . S
C1209 C1207 1.387 . S
C1209 C1211 1.390 . S
C1209 H1213 0.950 . S
H1210 C1206 0.950 . S
C1211 C1209 1.390 . S
C1211 C1212 1.387 . S
C1211 H1214 0.950 . S
C1212 C1211 1.387 . S
C1212 C1215 1.387 . S
H1213 C1209 0.950 . S
H1214 C1211 0.950 . S
C1215 C1206 1.390 . S
C1215 H1208 0.950 . S
C1215 C1212 1.387 . S
C1216 C1217 1.387 . S
C1216 H1220 0.950 . S
C1216 C1225 1.390 . S
C1217 C1216 1.387 . S
C1217 C1219 1.387 . S
H1218 C1225 0.950 . S
C1219 C1217 1.387 . S
C1219 C1221 1.390 . S
C1219 H1223 0.950 . S
H1220 C1216 0.950 . S
C1221 C1219 1.390 . S
C1221 C1222 1.387 . S
C1221 H1224 0.950 . S
C1222 C1221 1.387 . S
C1222 C1225 1.387 . S
H1223 C1219 0.950 . S
H1224 C1221 0.950 . S
C1225 C1216 1.390 . S
C1225 H1218 0.950 . S
C1225 C1222 1.387 . S
C1226 C1227 1.387 . S
C1226 H1230 0.950 . S
C1226 C1235 1.390 . S
C1227 C1226 1.387 . S
C1227 C1229 1.387 . S
H1228 C1235 0.950 . S
C1229 C1227 1.387 . S
C1229 C1231 1.390 . S
C1229 H1233 0.950 . S
H1230 C1226 0.950 . S
C1231 C1229 1.390 . S
C1231 C1232 1.387 . S
C1231 H1234 0.950 . S
C1232 C1231 1.387 . S
C1232 C1235 1.387 . S
H1233 C1229 0.950 . S
H1234 C1231 0.950 . S
C1235 C1226 1.390 . S
C1235 H1228 0.950 . S
C1235 C1232 1.387 . S
C1236 C1237 1.387 . S
C1236 H1240 0.950 . S
C1236 C1245 1.390 . S
C1237 C1236 1.387 . S
C1237 C1239 1.387 . S
H1238 C1245 0.950 . S
C1239 C1237 1.387 . S
C1239 C1241 1.390 . S
C1239 H1243 0.950 . S
H1240 C1236 0.950 . S
C1241 C1239 1.390 . S
C1241 C1242 1.387 . S
C1241 H1244 0.950 . S
C1242 C1241 1.387 . S
C1242 C1245 1.387 . S
H1243 C1239 0.950 . S
H1244 C1241 0.950 . S
C1245 C1236 1.390 . S
C1245 H1238 0.950 . S
C1245 C1242 1.387 . S
C1246 C1247 1.387 . S
C1246 H1250 0.950 . S
C1246 C1255 1.390 . S
C1247 C1246 1.387 . S
C1247 C1249 1.387 . S
H1248 C1255 0.950 . S
C1249 C1247 1.387 . S
C1249 C1251 1.390 . S
C1249 H1253 0.950 . S
H1250 C1246 0.950 . S
C1251 C1249 1.390 . S
C1251 C1252 1.387 . S
C1251 H1254 0.950 . S
C1252 C1251 1.387 . S
C1252 C1255 1.387 . S
H1253 C1249 0.950 . S
H1254 C1251 0.950 . S
C1255 C1246 1.390 . S
C1255 H1248 0.950 . S
C1255 C1252 1.387 . S
C1256 C1257 1.387 . S
C1256 H1260 0.950 . S
C1256 C1265 1.390 . S
C1257 C1256 1.387 . S
C1257 C1259 1.387 . S
H1258 C1265 0.950 . S
C1259 C1257 1.387 . S
C1259 C1261 1.390 . S
C1259 H1263 0.950 . S
H1260 C1256 0.950 . S
C1261 C1259 1.390 . S
C1261 C1262 1.387 . S
C1261 H1264 0.950 . S
C1262 C1261 1.387 . S
C1262 C1265 1.387 . S
H1263 C1259 0.950 . S
H1264 C1261 0.950 . S
C1265 C1256 1.390 . S
C1265 H1258 0.950 . S
C1265 C1262 1.387 . S
C1266 C1267 1.387 . S
C1266 H1270 0.950 . S
C1266 C1275 1.390 . S
C1267 C1266 1.387 . S
C1267 C1269 1.387 . S
H1268 C1275 0.950 . S
C1269 C1267 1.387 . S
C1269 C1271 1.390 . S
C1269 H1273 0.950 . S
H1270 C1266 0.950 . S
C1271 C1269 1.390 . S
C1271 C1272 1.387 . S
C1271 H1274 0.950 . S
C1272 C1271 1.387 . S
C1272 C1275 1.387 . S
H1273 C1269 0.950 . S
H1274 C1271 0.950 . S
C1275 C1266 1.390 . S
C1275 H1268 0.950 . S
C1275 C1272 1.387 . S
C1276 C1277 1.387 . S
C1276 H1280 0.950 . S
C1276 C1285 1.390 . S
C1277 C1276 1.387 . S
C1277 C1279 1.387 . S
H1278 C1285 0.950 . S
C1279 C1277 1.387 . S
C1279 C1281 1.390 . S
C1279 H1283 0.950 . S
H1280 C1276 0.950 . S
C1281 C1279 1.390 . S
C1281 C1282 1.387 . S
C1281 H1284 0.950 . S
C1282 C1281 1.387 . S
C1282 C1285 1.387 . S
H1283 C1279 0.950 . S
H1284 C1281 0.950 . S
C1285 C1276 1.390 . S
C1285 H1278 0.950 . S
C1285 C1282 1.387 . S
C1286 C1287 1.387 . S
C1286 H1290 0.950 . S
C1286 C1295 1.390 . S
C1287 C1286 1.387 . S
C1287 C1289 1.387 . S
H1288 C1295 0.950 . S
C1289 C1287 1.387 . S
C1289 C1291 1.390 . S
C1289 H1293 0.950 . S
H1290 C1286 0.950 . S
C1291 C1289 1.390 . S
C1291 C1292 1.387 . S
C1291 H1294 0.950 . S
C1292 C1291 1.387 . S
C1292 C1295 1.387 . S
H1293 C1289 0.950 . S
H1294 C1291 0.950 . S
C1295 C1286 1.390 . S
C1295 H1288 0.950 . S
C1295 C1292 1.387 . S
C1296 C1297 1.387 . S
C1296 H1300 0.950 . S
C1296 C1305 1.390 . S
C1297 C1296 1.387 . S
C1297 C1299 1.387 . S
H1298 C1305 0.950 . S
C1299 C1297 1.387 . S
C1299 C1301 1.390 . S
C1299 H1303 0.950 . S
H1300 C1296 0.950 . S
C1301 C1299 1.390 . S
C1301 C1302 1.387 . S
C1301 H1304 0.950 . S
C1302 C1301 1.387 . S
C1302 C1305 1.387 . S
H1303 C1299 0.950 . S
H1304 C1301 0.950 . S
C1305 C1296 1.390 . S
C1305 H1298 0.950 . S
C1305 C1302 1.387 . S
C1306 C1307 1.387 . S
C1306 H1310 0.950 . S
C1306 C1315 1.390 . S
C1307 C1306 1.387 . S
C1307 C1309 1.387 . S
H1308 C1315 0.950 . S
C1309 C1307 1.387 . S
C1309 C1311 1.390 . S
C1309 H1313 0.950 . S
H1310 C1306 0.950 . S
C1311 C1309 1.390 . S
C1311 C1312 1.387 . S
C1311 H1314 0.950 . S
C1312 C1311 1.387 . S
C1312 C1315 1.387 . S
H1313 C1309 0.950 . S
H1314 C1311 0.950 . S
C1315 C1306 1.390 . S
C1315 H1308 0.950 . S
C1315 C1312 1.387 . S
C1316 C1317 1.387 . S
C1316 H1320 0.950 . S
C1316 C1325 1.390 . S
C1317 C1316 1.387 . S
C1317 C1319 1.387 . S
H1318 C1325 0.950 . S
C1319 C1317 1.387 . S
C1319 C1321 1.390 . S
C1319 H1323 0.950 . S
H1320 C1316 0.950 . S
C1321 C1319 1.390 . S
C1321 C1322 1.387 . S
C1321 H1324 0.950 . S
C1322 C1321 1.387 . S
C1322 C1325 1.387 . S
H1323 C1319 0.950 . S
H1324 C1321 0.950 . S
C1325 C1316 1.390 . S
C1325 H1318 0.950 . S
C1325 C1322 1.387 . S
C1326 C1327 1.387 . S
C1326 H1330 0.950 . S
C1326 C1335 1.390 . S
C1327 C1326 1.387 . S
C1327 C1329 1.387 . S
H1328 C1335 0.950 . S
C1329 C1327 1.387 . S
C1329 C1331 1.390 . S
C1329 H1333 0.950 . S
H1330 C1326 0.950 . S
C1331 C1329 1.390 . S
C1331 C1332 1.387 . S
C1331 H1334 0.950 . S
C1332 C1331 1.387 . S
C1332 C1335 1.387 . S
H1333 C1329 0.950 . S
H1334 C1331 0.950 . S
C1335 C1326 1.390 . S
C1335 H1328 0.950 . S
C1335 C1332 1.387 . S
C1336 C1337 1.387 . S
C1336 H1340 0.950 . S
C1336 C1345 1.390 . S
C1337 C1336 1.387 . S
C1337 C1339 1.387 . S
H1338 C1345 0.950 . S
C1339 C1337 1.387 . S
C1339 C1341 1.390 . S
C1339 H1343 0.950 . S
H1340 C1336 0.950 . S
C1341 C1339 1.390 . S
C1341 C1342 1.387 . S
C1341 H1344 0.950 . S
C1342 C1341 1.387 . S
C1342 C1345 1.387 . S
H1343 C1339 0.950 . S
H1344 C1341 0.950 . S
C1345 C1336 1.390 . S
C1345 H1338 0.950 . S
C1345 C1342 1.387 . S
C1346 C1347 1.387 . S
C1346 H1350 0.950 . S
C1346 C1355 1.390 . S
C1347 C1346 1.387 . S
C1347 C1349 1.387 . S
H1348 C1355 0.950 . S
C1349 C1347 1.387 . S
C1349 C1351 1.390 . S
C1349 H1353 0.950 . S
H1350 C1346 0.950 . S
C1351 C1349 1.390 . S
C1351 C1352 1.387 . S
C1351 H1354 0.950 . S
C1352 C1351 1.387 . S
C1352 C1355 1.387 . S
H1353 C1349 0.950 . S
H1354 C1351 0.950 . S
C1355 C1346 1.390 . S
C1355 H1348 0.950 . S
C1355 C1352 1.387 . S
C1356 C1357 1.387 . S
C1356 H1360 0.950 . S
C1356 C1365 1.390 . S
C1357 C1356 1.387 . S
C1357 C1359 1.387 . S
H1358 C1365 0.950 . S
C1359 C1357 1.387 . S
C1359 C1361 1.390 . S
C1359 H1363 0.950 . S
H1360 C1356 0.950 . S
C1361 C1359 1.390 . S
C1361 C1362 1.387 . S
C1361 H1364 0.950 . S
C1362 C1361 1.387 . S
C1362 C1365 1.387 . S
H1363 C1359 0.950 . S
H1364 C1361 0.950 . S
C1365 C1356 1.390 . S
C1365 H1358 0.950 . S
C1365 C1362 1.387 . S
C1366 C1367 1.387 . S
C1366 H1370 0.950 . S
C1366 C1375 1.390 . S
C1367 C1366 1.387 . S
C1367 C1369 1.387 . S
H1368 C1375 0.950 . S
C1369 C1367 1.387 . S
C1369 C1371 1.390 . S
C1369 H1373 0.950 . S
H1370 C1366 0.950 . S
C1371 C1369 1.390 . S
C1371 C1372 1.387 . S
C1371 H1374 0.950 . S
C1372 C1371 1.387 . S
C1372 C1375 1.387 . S
H1373 C1369 0.950 . S
H1374 C1371 0.950 . S
C1375 C1366 1.390 . S
C1375 H1368 0.950 . S
C1375 C1372 1.387 . S
C1376 C1377 1.387 . S
C1376 H1380 0.950 . S
C1376 C1385 1.390 . S
C1377 C1376 1.387 . S
C1377 C1379 1.387 . S
H1378 C1385 0.950 . S
C1379 C1377 1.387 . S
C1379 C1381 1.390 . S
C1379 H1383 0.950 . S
H1380 C1376 0.950 . S
C1381 C1379 1.390 . S
C1381 C1382 1.387 . S
C1381 H1384 0.950 . S
C1382 C1381 1.387 . S
C1382 C1385 1.387 . S
H1383 C1379 0.950 . S
H1384 C1381 0.950 . S
C1385 C1376 1.390 . S
C1385 H1378 0.950 . S
C1385 C1382 1.387 . S
C1386 C1387 1.387 . S
C1386 H1390 0.950 . S
C1386 C1395 1.390 . S
C1387 C1386 1.387 . S
C1387 C1389 1.387 . S
H1388 C1395 0.950 . S
C1389 C1387 1.387 . S
C1389 C1391 1.390 . S
C1389 H1393 0.950 . S
H1390 C1386 0.950 . S
C1391 C1389 1.390 . S
C1391 C1392 1.387 . S
C1391 H1394 0.950 . S
C1392 C1391 1.387 . S
C1392 C1395 1.387 . S
H1393 C1389 0.950 . S
H1394 C1391 0.950 . S
C1395 C1386 1.390 . S
C1395 H1388 0.950 . S
C1395 C1392 1.387 . S
C1396 C1397 1.387 . S
C1396 H1400 0.950 . S
C1396 C1405 1.390 . S
C1397 C1396 1.387 . S
C1397 C1399 1.387 . S
H1398 C1405 0.950 . S
C1399 C1397 1.387 . S
C1399 C1401 1.390 . S
C1399 H1403 0.950 . S
H1400 C1396 0.950 . S
C1401 C1399 1.390 . S
C1401 C1402 1.387 . S
C1401 H1404 0.950 . S
C1402 C1401 1.387 . S
C1402 C1405 1.387 . S
H1403 C1399 0.950 . S
H1404 C1401 0.950 . S
C1405 C1396 1.390 . S
C1405 H1398 0.950 . S
C1405 C1402 1.387 . S
C1406 C1407 1.387 . S
C1406 H1410 0.950 1_554 S
C1406 C1415 1.390 . S
C1407 C1406 1.387 . S
C1407 C1409 1.387 . S
H1408 C1415 0.950 . S
C1409 C1407 1.387 . S
C1409 C1411 1.390 . S
C1409 H1413 0.950 . S
H1410 C1406 0.950 1_556 S
C1411 C1409 1.390 . S
C1411 C1412 1.387 . S
C1411 H1414 0.950 . S
C1412 C1411 1.387 . S
C1412 C1415 1.387 . S
H1413 C1409 0.950 . S
H1414 C1411 0.950 . S
C1415 C1406 1.390 . S
C1415 H1408 0.950 . S
C1415 C1412 1.387 . S
C1416 C1417 1.387 . S
C1416 H1420 0.950 . S
C1416 C1425 1.390 . S
C1417 C1416 1.387 . S
C1417 C1419 1.387 . S
H1418 C1425 0.950 . S
C1419 C1417 1.387 . S
C1419 C1421 1.390 . S
C1419 H1423 0.950 1_556 S
H1420 C1416 0.950 . S
C1421 C1419 1.390 . S
C1421 C1422 1.387 . S
C1421 H1424 0.957 . S
C1422 C1421 1.387 . S
C1422 C1425 1.387 . S
H1423 C1419 0.950 1_554 S
H1424 C1421 0.957 . S
C1425 C1416 1.390 . S
C1425 H1418 0.950 . S
C1425 C1422 1.387 . S
C1426 C1427 1.387 . S
C1426 H1430 0.950 1_556 S
C1426 C1435 1.390 . S
C1427 C1426 1.387 . S
C1427 C1429 1.387 . S
H1428 C1435 0.950 . S
C1429 C1427 1.387 . S
C1429 C1431 1.390 . S
C1429 H1433 0.950 . S
H1430 C1426 0.950 1_554 S
C1431 C1429 1.390 . S
C1431 C1432 1.387 . S
C1431 H1434 0.950 . S
C1432 C1431 1.387 . S
C1432 C1435 1.387 . S
H1433 C1429 0.950 . S
H1434 C1431 0.950 . S
C1435 C1426 1.390 . S
C1435 H1428 0.950 . S
C1435 C1432 1.387 . S
C1436 C1437 1.387 . S
C1436 H1440 0.961 . S
C1436 C1445 1.390 . S
C1437 C1436 1.387 . S
C1437 C1439 1.387 . S
H1438 C1445 0.950 . S
C1439 C1437 1.387 . S
C1439 C1441 1.390 . S
C1439 H1443 0.950 . S
H1440 C1436 0.961 . S
C1441 C1439 1.390 . S
C1441 C1442 1.387 . S
C1441 H1444 0.950 . S
C1442 C1441 1.387 . S
C1442 C1445 1.387 . S
H1443 C1439 0.950 . S
H1444 C1441 0.950 . S
C1445 C1436 1.390 . S
C1445 H1438 0.950 . S
C1445 C1442 1.387 . S
C1446 C1447 1.387 . S
C1446 H1450 0.950 1_556 S
C1446 C1455 1.390 . S
C1447 C1446 1.387 . S
C1447 C1449 1.387 . S
H1448 C1455 0.950 . S
C1449 C1447 1.387 . S
C1449 C1451 1.390 . S
C1449 H1453 0.950 . S
H1450 C1446 0.950 1_554 S
C1451 C1449 1.390 . S
C1451 C1452 1.387 . S
C1451 H1454 0.950 . S
C1452 C1451 1.387 . S
C1452 C1455 1.387 . S
H1453 C1449 0.950 . S
H1454 C1451 0.950 . S
C1455 C1446 1.390 . S
C1455 H1448 0.950 . S
C1455 C1452 1.387 . S
C1456 C1457 1.387 . S
C1456 H1460 0.950 . S
C1456 C1465 1.390 . S
C1457 C1456 1.387 . S
C1457 C1459 1.387 . S
H1458 C1465 0.950 . S
C1459 C1457 1.387 . S
C1459 C1461 1.390 . S
C1459 H1463 0.950 1_556 S
H1460 C1456 0.950 . S
C1461 C1459 1.390 . S
C1461 C1462 1.387 . S
C1461 H1464 0.950 . S
C1462 C1461 1.387 . S
C1462 C1465 1.387 . S
H1463 C1459 0.950 1_554 S
H1464 C1461 0.950 . S
C1465 C1456 1.390 . S
C1465 H1458 0.950 . S
C1465 C1462 1.387 . S
C1466 C1467 1.387 . S
C1466 H1470 0.950 1_556 S
C1466 C1475 1.390 . S
C1467 C1466 1.387 . S
C1467 C1469 1.387 . S
H1468 C1475 0.950 . S
C1469 C1467 1.387 . S
C1469 C1471 1.390 . S
C1469 H1473 0.950 . S
H1470 C1466 0.950 1_554 S
C1471 C1469 1.390 . S
C1471 C1472 1.387 . S
C1471 H1474 0.950 . S
C1472 C1471 1.387 . S
C1472 C1475 1.387 . S
H1473 C1469 0.950 . S
H1474 C1471 0.950 . S
C1475 C1466 1.390 . S
C1475 H1468 0.950 . S
C1475 C1472 1.387 . S
C1476 C1477 1.387 . S
C1476 H1480 0.950 . S
C1476 C1485 1.390 . S
C1477 C1476 1.387 . S
C1477 C1479 1.387 . S
H1478 C1485 0.950 . S
C1479 C1477 1.387 . S
C1479 C1481 1.390 . S
C1479 H1483 0.950 . S
H1480 C1476 0.950 . S
C1481 C1479 1.390 . S
C1481 C1482 1.387 . S
C1481 H1484 0.950 . S
C1482 C1481 1.387 . S
C1482 C1485 1.387 . S
H1483 C1479 0.950 . S
H1484 C1481 0.950 . S
C1485 C1476 1.390 . S
C1485 H1478 0.950 . S
C1485 C1482 1.387 . S
C1486 C1487 1.387 . S
C1486 H1490 0.950 . S
C1486 C1495 1.390 . S
C1487 C1486 1.387 . S
C1487 C1489 1.387 . S
H1488 C1495 0.950 . S
C1489 C1487 1.387 . S
C1489 C1491 1.390 . S
C1489 H1493 0.950 . S
H1490 C1486 0.950 . S
C1491 C1489 1.390 . S
C1491 C1492 1.387 . S
C1491 H1494 0.950 . S
C1492 C1491 1.387 . S
C1492 C1495 1.387 . S
H1493 C1489 0.950 . S
H1494 C1491 0.950 . S
C1495 C1486 1.390 . S
C1495 H1488 0.950 . S
C1495 C1492 1.387 . S
C1496 C1497 1.387 . S
C1496 H1500 0.950 . S
C1496 C1505 1.390 . S
C1497 C1496 1.387 . S
C1497 C1499 1.387 . S
H1498 C1505 0.950 . S
C1499 C1497 1.387 . S
C1499 C1501 1.390 . S
C1499 H1503 0.950 . S
H1500 C1496 0.950 . S
C1501 C1499 1.390 . S
C1501 C1502 1.387 . S
C1501 H1504 0.950 . S
C1502 C1501 1.387 . S
C1502 C1505 1.387 . S
H1503 C1499 0.950 . S
H1504 C1501 0.950 . S
C1505 C1496 1.390 . S
C1505 H1498 0.950 . S
C1505 C1502 1.387 . S
C1506 C1507 1.387 . S
C1506 H1510 0.950 . S
C1506 C1515 1.390 . S
C1507 C1506 1.387 . S
C1507 C1509 1.387 . S
H1508 C1515 0.950 . S
C1509 C1507 1.387 . S
C1509 C1511 1.390 . S
C1509 H1513 0.950 . S
H1510 C1506 0.950 . S
C1511 C1509 1.390 . S
C1511 C1512 1.387 . S
C1511 H1514 0.950 . S
C1512 C1511 1.387 . S
C1512 C1515 1.387 . S
H1513 C1509 0.950 . S
H1514 C1511 0.950 . S
C1515 C1506 1.390 . S
C1515 H1508 0.950 . S
C1515 C1512 1.387 . S
C1516 C1517 1.387 . S
C1516 H1520 0.950 . S
C1516 C1525 1.390 . S
C1517 C1516 1.387 . S
C1517 C1519 1.387 . S
H1518 C1525 0.950 . S
C1519 C1517 1.387 . S
C1519 C1521 1.390 . S
C1519 H1523 0.950 . S
H1520 C1516 0.950 . S
C1521 C1519 1.390 . S
C1521 C1522 1.387 . S
C1521 H1524 0.950 . S
C1522 C1521 1.387 . S
C1522 C1525 1.387 . S
H1523 C1519 0.950 . S
H1524 C1521 0.950 . S
C1525 C1516 1.390 . S
C1525 H1518 0.950 . S
C1525 C1522 1.387 . S
C1526 C1527 1.387 . S
C1526 H1530 0.950 . S
C1526 C1535 1.390 . S
C1527 C1526 1.387 . S
C1527 C1529 1.387 . S
H1528 C1535 0.950 . S
C1529 C1527 1.387 . S
C1529 C1531 1.390 . S
C1529 H1533 0.950 . S
H1530 C1526 0.950 . S
C1531 C1529 1.390 . S
C1531 C1532 1.387 . S
C1531 H1534 0.950 . S
C1532 C1531 1.387 . S
C1532 C1535 1.387 . S
H1533 C1529 0.950 . S
H1534 C1531 0.950 . S
C1535 C1526 1.390 . S
C1535 H1528 0.950 . S
C1535 C1532 1.387 . S
C1536 C1537 1.378 1_655 S
C1536 H1540 0.944 . S
C1536 C1545 1.407 . S
C1537 C1536 1.378 1_455 S
C1537 C1539 1.387 . S
H1538 C1545 0.950 . S
C1539 C1537 1.387 . S
C1539 C1541 1.390 . S
C1539 H1543 0.950 . S
H1540 C1536 0.944 . S
C1541 C1539 1.390 . S
C1541 C1542 1.387 . S
C1541 H1544 0.950 . S
C1542 C1541 1.387 . S
C1542 C1545 1.387 1_455 S
H1543 C1539 0.950 . S
H1544 C1541 0.950 . S
C1545 C1536 1.407 . S
C1545 H1538 0.950 . S
C1545 C1542 1.387 1_655 S
C1546 C1547 1.387 . S
C1546 H1550 0.950 . S
C1546 C1555 1.390 . S
C1547 C1546 1.387 . S
C1547 C1549 1.387 . S
H1548 C1555 0.950 . S
C1549 C1547 1.387 . S
C1549 C1551 1.390 . S
C1549 H1553 0.950 . S
H1550 C1546 0.950 . S
C1551 C1549 1.390 . S
C1551 C1552 1.387 . S
C1551 H1554 0.950 . S
C1552 C1551 1.387 . S
C1552 C1555 1.387 . S
H1553 C1549 0.950 . S
H1554 C1551 0.950 . S
C1555 C1546 1.390 . S
C1555 H1548 0.950 . S
C1555 C1552 1.387 . S
C1556 C1557 1.387 1_545 S
C1556 H1560 0.950 . S
C1556 C1565 1.390 . S
C1557 C1556 1.387 1_565 S
C1557 C1559 1.387 . S
H1558 C1565 0.950 . S
C1559 C1557 1.387 . S
C1559 C1561 1.390 . S
C1559 H1563 0.950 . S
H1560 C1556 0.950 . S
C1561 C1559 1.390 . S
C1561 C1562 1.387 . S
C1561 H1564 0.950 . S
C1562 C1561 1.387 . S
C1562 C1565 1.387 1_565 S
H1563 C1559 0.950 . S
H1564 C1561 0.950 . S
C1565 C1556 1.390 . S
C1565 H1558 0.950 . S
C1565 C1562 1.387 1_545 S
C1566 C1567 1.387 . S
C1566 H1570 0.950 . S
C1566 C1575 1.390 . S
C1567 C1566 1.387 . S
C1567 C1569 1.387 1_565 S
H1568 C1575 0.950 . S
C1569 C1567 1.387 1_545 S
C1569 C1571 1.390 . S
C1569 H1573 0.950 . S
H1570 C1566 0.950 . S
C1571 C1569 1.390 . S
C1571 C1572 1.387 1_545 S
C1571 H1574 0.950 . S
C1572 C1571 1.387 1_565 S
C1572 C1575 1.387 . S
H1573 C1569 0.950 . S
H1574 C1571 0.950 . S
C1575 C1566 1.390 . S
C1575 H1568 0.950 . S
C1575 C1572 1.387 . S
C1576 C1577 1.387 . S
C1576 H1580 0.950 1_455 S
C1576 C1585 1.390 1_455 S
C1577 C1576 1.387 . S
C1577 C1579 1.387 . S
H1578 C1585 0.950 . S
C1579 C1577 1.387 . S
C1579 C1581 1.390 . S
C1579 H1583 0.950 . S
H1580 C1576 0.950 1_655 S
C1581 C1579 1.390 . S
C1581 C1582 1.387 . S
C1581 H1584 0.950 . S
C1582 C1581 1.387 . S
C1582 C1585 1.387 1_455 S
H1583 C1579 0.950 . S
H1584 C1581 0.950 . S
C1585 C1576 1.390 1_655 S
C1585 H1578 0.950 . S
C1585 C1582 1.387 1_655 S
C1586 C1587 1.387 . S
C1586 H1590 0.950 . S
C1586 C1595 1.390 . S
C1587 C1586 1.387 . S
C1587 C1589 1.387 . S
H1588 C1595 0.950 . S
C1589 C1587 1.387 . S
C1589 C1591 1.390 . S
C1589 H1593 0.950 . S
H1590 C1586 0.950 . S
C1591 C1589 1.390 . S
C1591 C1592 1.387 . S
C1591 H1594 0.950 . S
C1592 C1591 1.387 . S
C1592 C1595 1.387 . S
H1593 C1589 0.950 . S
H1594 C1591 0.950 . S
C1595 C1586 1.390 . S
C1595 H1588 0.950 . S
C1595 C1592 1.387 . S
C1596 C1597 1.387 . S
C1596 H1600 0.950 . S
C1596 C1605 1.390 . S
C1597 C1596 1.387 . S
C1597 C1599 1.387 . S
H1598 C1605 0.950 . S
C1599 C1597 1.387 . S
C1599 C1601 1.390 . S
C1599 H1603 0.950 . S
H1600 C1596 0.950 . S
C1601 C1599 1.390 . S
C1601 C1602 1.387 . S
C1601 H1604 0.950 . S
C1602 C1601 1.387 . S
C1602 C1605 1.387 . S
H1603 C1599 0.950 . S
H1604 C1601 0.950 . S
C1605 C1596 1.390 . S
C1605 H1598 0.950 . S
C1605 C1602 1.387 . S
C1606 C1607 1.387 . S
C1606 H1610 0.950 . S
C1606 C1615 1.390 . S
C1607 C1606 1.387 . S
C1607 C1609 1.387 . S
H1608 C1615 0.950 . S
C1609 C1607 1.387 . S
C1609 C1611 1.390 . S
C1609 H1613 0.950 . S
H1610 C1606 0.950 . S
C1611 C1609 1.390 . S
C1611 C1612 1.387 . S
C1611 H1614 0.950 . S
C1612 C1611 1.387 . S
C1612 C1615 1.387 . S
H1613 C1609 0.950 . S
H1614 C1611 0.950 . S
C1615 C1606 1.390 . S
C1615 H1608 0.950 . S
C1615 C1612 1.387 . S
C1616 C1617 1.387 . S
C1616 H1620 0.950 . S
C1616 C1625 1.390 . S
C1617 C1616 1.387 . S
C1617 C1619 1.387 . S
H1618 C1625 0.950 . S
C1619 C1617 1.387 . S
C1619 C1621 1.390 . S
C1619 H1623 0.950 . S
H1620 C1616 0.950 . S
C1621 C1619 1.390 . S
C1621 C1622 1.387 . S
C1621 H1624 0.950 . S
C1622 C1621 1.387 . S
C1622 C1625 1.387 . S
H1623 C1619 0.950 . S
H1624 C1621 0.950 . S
C1625 C1616 1.390 . S
C1625 H1618 0.950 . S
C1625 C1622 1.387 . S
C1626 C1627 1.387 . S
C1626 H1630 0.950 . S
C1626 C1635 1.390 . S
C1627 C1626 1.387 . S
C1627 C1629 1.387 1_545 S
H1628 C1635 0.950 . S
C1629 C1627 1.387 1_565 S
C1629 C1631 1.390 . S
C1629 H1633 0.950 . S
H1630 C1626 0.950 . S
C1631 C1629 1.390 . S
C1631 C1632 1.387 1_565 S
C1631 H1634 0.950 . S
C1632 C1631 1.387 1_545 S
C1632 C1635 1.387 . S
H1633 C1629 0.950 . S
H1634 C1631 0.950 . S
C1635 C1626 1.390 . S
C1635 H1628 0.950 . S
C1635 C1632 1.387 . S
C1636 C1637 1.387 . S
C1636 H1640 0.950 . S
C1636 C1645 1.390 . S
C1637 C1636 1.387 . S
C1637 C1639 1.387 . S
H1638 C1645 0.950 . S
C1639 C1637 1.387 . S
C1639 C1641 1.388 1_655 S
C1639 H1643 0.950 1_655 S
H1640 C1636 0.950 . S
C1641 C1639 1.388 1_455 S
C1641 C1642 1.389 1_455 S
C1641 H1644 0.950 . S
C1642 C1641 1.389 1_655 S
C1642 C1645 1.387 . S
H1643 C1639 0.950 1_455 S
H1644 C1641 0.950 . S
C1645 C1636 1.390 . S
C1645 H1638 0.950 . S
C1645 C1642 1.387 . S
C1646 C1647 1.387 . S
C1646 H1650 0.950 . S
C1646 C1655 1.390 . S
C1647 C1646 1.387 . S
C1647 C1649 1.387 . S
H1648 C1655 0.950 . S
C1649 C1647 1.387 . S
C1649 C1651 1.390 . S
C1649 H1653 0.950 . S
H1650 C1646 0.950 . S
C1651 C1649 1.390 . S
C1651 C1652 1.387 . S
C1651 H1654 0.950 . S
C1652 C1651 1.387 . S
C1652 C1655 1.387 . S
H1653 C1649 0.950 . S
H1654 C1651 0.950 . S
C1655 C1646 1.390 . S
C1655 H1648 0.950 . S
C1655 C1652 1.387 . S
C1656 C1657 1.387 . S
C1656 H1660 0.950 . S
C1656 C1665 1.390 . S
C1657 C1656 1.387 . S
C1657 C1659 1.387 . S
H1658 C1665 0.950 . S
C1659 C1657 1.387 . S
C1659 C1661 1.390 . S
C1659 H1663 0.950 . S
H1660 C1656 0.950 . S
C1661 C1659 1.390 . S
C1661 C1662 1.387 . S
C1661 H1664 0.950 . S
C1662 C1661 1.387 . S
C1662 C1665 1.387 . S
H1663 C1659 0.950 . S
H1664 C1661 0.950 . S
C1665 C1656 1.390 . S
C1665 H1658 0.950 . S
C1665 C1662 1.387 . S
C1666 C1667 1.387 . S
C1666 H1670 0.950 . S
C1666 C1675 1.390 . S
C1667 C1666 1.387 . S
C1667 C1669 1.387 . S
H1668 C1675 0.950 . S
C1669 C1667 1.387 . S
C1669 C1671 1.390 . S
C1669 H1673 0.950 . S
H1670 C1666 0.950 . S
C1671 C1669 1.390 . S
C1671 C1672 1.387 . S
C1671 H1674 0.950 . S
C1672 C1671 1.387 . S
C1672 C1675 1.387 . S
H1673 C1669 0.950 . S
H1674 C1671 0.950 . S
C1675 C1666 1.390 . S
C1675 H1668 0.950 . S
C1675 C1672 1.387 . S
C1676 C1677 1.387 . S
C1676 H1680 0.950 . S
C1676 C1685 1.390 . S
C1677 C1676 1.387 . S
C1677 C1679 1.387 . S
H1678 C1685 0.950 . S
C1679 C1677 1.387 . S
C1679 C1681 1.390 . S
C1679 H1683 0.950 . S
H1680 C1676 0.950 . S
C1681 C1679 1.390 . S
C1681 C1682 1.387 . S
C1681 H1684 0.950 . S
C1682 C1681 1.387 . S
C1682 C1685 1.387 . S
H1683 C1679 0.950 . S
H1684 C1681 0.950 . S
C1685 C1676 1.390 . S
C1685 H1678 0.950 . S
C1685 C1682 1.387 . S
C1686 C1687 1.387 . S
C1686 H1690 0.950 . S
C1686 C1695 1.390 . S
C1687 C1686 1.387 . S
C1687 C1689 1.387 . S
H1688 C1695 0.950 . S
C1689 C1687 1.387 . S
C1689 C1691 1.390 . S
C1689 H1693 0.950 . S
H1690 C1686 0.950 . S
C1691 C1689 1.390 . S
C1691 C1692 1.387 . S
C1691 H1694 0.950 . S
C1692 C1691 1.387 . S
C1692 C1695 1.387 . S
H1693 C1689 0.950 . S
H1694 C1691 0.950 . S
C1695 C1686 1.390 . S
C1695 H1688 0.950 . S
C1695 C1692 1.387 . S
C1696 C1697 1.387 . S
C1696 H1700 0.950 . S
C1696 C1705 1.390 . S
C1697 C1696 1.387 . S
C1697 C1699 1.387 . S
H1698 C1705 0.950 . S
C1699 C1697 1.387 . S
C1699 C1701 1.390 . S
C1699 H1703 0.950 . S
H1700 C1696 0.950 . S
C1701 C1699 1.390 . S
C1701 C1702 1.387 . S
C1701 H1704 0.950 . S
C1702 C1701 1.387 . S
C1702 C1705 1.387 . S
H1703 C1699 0.950 . S
H1704 C1701 0.950 . S
C1705 C1696 1.390 . S
C1705 H1698 0.950 . S
C1705 C1702 1.387 . S
C1706 C1707 1.387 . S
C1706 H1710 0.950 . S
C1706 C1715 1.390 . S
C1707 C1706 1.387 . S
C1707 C1709 1.387 . S
H1708 C1715 0.950 . S
C1709 C1707 1.387 . S
C1709 C1711 1.390 . S
C1709 H1713 0.950 . S
H1710 C1706 0.950 . S
C1711 C1709 1.390 . S
C1711 C1712 1.387 . S
C1711 H1714 0.950 . S
C1712 C1711 1.387 . S
C1712 C1715 1.387 . S
H1713 C1709 0.950 . S
H1714 C1711 0.950 . S
C1715 C1706 1.390 . S
C1715 H1708 0.950 . S
C1715 C1712 1.387 . S
C1716 C1717 1.387 1_455 S
C1716 H1720 0.950 . S
C1716 C1725 1.390 . S
C1717 C1716 1.387 1_655 S
C1717 C1719 1.387 . S
H1718 C1725 0.950 . S
C1719 C1717 1.387 . S
C1719 C1721 1.390 . S
C1719 H1723 0.950 . S
H1720 C1716 0.950 . S
C1721 C1719 1.390 . S
C1721 C1722 1.387 . S
C1721 H1724 0.950 . S
C1722 C1721 1.387 . S
C1722 C1725 1.387 1_655 S
H1723 C1719 0.950 . S
H1724 C1721 0.950 . S
C1725 C1716 1.390 . S
C1725 H1718 0.950 . S
C1725 C1722 1.387 1_455 S
C1726 C1727 1.387 . S
C1726 H1730 0.950 . S
C1726 C1735 1.390 . S
C1727 C1726 1.387 . S
C1727 C1729 1.387 . S
H1728 C1735 0.950 . S
C1729 C1727 1.387 . S
C1729 C1731 1.390 . S
C1729 H1733 0.950 . S
H1730 C1726 0.950 . S
C1731 C1729 1.390 . S
C1731 C1732 1.387 . S
C1731 H1734 0.950 . S
C1732 C1731 1.387 . S
C1732 C1735 1.387 . S
H1733 C1729 0.950 . S
H1734 C1731 0.950 . S
C1735 C1726 1.390 . S
C1735 H1728 0.950 . S
C1735 C1732 1.387 . S
C1736 C1737 1.387 . S
C1736 H1740 0.950 . S
C1736 C1745 1.390 . S
C1737 C1736 1.387 . S
C1737 C1739 1.387 1_545 S
H1738 C1745 0.950 . S
C1739 C1737 1.387 1_565 S
C1739 C1741 1.390 . S
C1739 H1743 0.950 . S
H1740 C1736 0.950 . S
C1741 C1739 1.390 . S
C1741 C1742 1.387 1_565 S
C1741 H1744 0.950 . S
C1742 C1741 1.387 1_545 S
C1742 C1745 1.387 . S
H1743 C1739 0.950 . S
H1744 C1741 0.950 . S
C1745 C1736 1.390 . S
C1745 H1738 0.950 . S
C1745 C1742 1.387 . S
C1027 C4 1.517 1_655 S
C1032 C854 1.471 1_655 S
C1037 C38 1.668 . S
C1042 C867 1.648 . S
C1052 C896 1.459 1_545 S
C1047 C74 1.514 . S
C1057 C76 1.507 . S
C1062 C909 1.464 . S
C1067 C2 1.606 . S
C1072 C930 1.590 . S
C1077 C40 1.526 . S
C1082 C959 1.449 . S
C1087 C110 1.608 . S
C1092 C938 1.551 . S
C1102 C951 1.440 . S
C1097 C148 1.503 . S
C1112 C917 1.534 . S
C1107 C182 1.555 1_565 S
C1117 C184 1.523 . S
C1122 C888 1.503 1_545 S
C1132 C846 1.440 1_655 S
C1127 C112 1.491 1_655 S
C1137 C146 1.600 . S
C1142 C875 1.572 . S
C1147 C220 1.581 . S
C1152 C980 1.500 . S
C1157 C254 1.703 . S
C1162 C993 1.682 . S
C1172 C1022 1.511 . S
C1167 C290 1.600 . S
C1177 C292 1.533 . S
C1182 C657 1.511 . S
C1187 C218 1.659 . S
C1192 C678 1.640 . S
C1197 C256 1.534 . S
C1202 C707 1.455 . S
C1207 C326 1.632 . S
C1212 C686 1.605 . S
C1217 C364 1.529 . S
C1222 C699 1.462 . S
C1232 C665 1.588 . S
C1227 C398 1.609 . S
C1242 C1014 1.517 . S
C1237 C400 1.575 . S
C1252 C972 1.447 . S
C1247 C328 1.499 . S
C1262 C1001 1.603 . S
C1257 C362 1.631 . S
C1267 C436 1.559 . S
C1272 C728 1.477 . S
C1277 C470 1.691 . S
C1282 C741 1.673 . S
C1287 C506 1.598 . S
C1292 C770 1.513 . S
C1297 C508 1.557 . S
C1302 C783 1.536 . S
C1312 C804 1.643 . S
C1307 C434 1.662 . S
C1322 C833 1.467 . S
C1317 C472 1.549 . S
C1332 C812 1.634 . S
C1327 C542 1.661 . S
C1342 C825 1.464 . S
C1337 C580 1.534 . S
C1347 C614 1.605 . S
C1352 C791 1.584 . S
C1362 C762 1.490 . S
C1357 C616 1.546 . S
C1367 C544 1.503 . S
C1372 C720 1.451 . S
C1382 C749 1.587 . S
C1377 C578 1.611 . S
C1392 C660 1.442 . S
C1387 C14 1.509 . S
C1397 C39 1.493 . S
C1402 C681 1.391 . S
C1412 C709 1.339 . S
C1407 C75 1.477 . S
C1422 C730 1.310 . S
C1417 C86 1.381 . S
C1432 C744 1.414 . S
C1427 C3 1.511 . S
C1442 C772 1.389 . S
C1437 C50 1.470 . S
C1447 C111 1.530 . S
C1452 C765 1.342 . S
C1457 C158 1.457 . S
C1462 C723 1.293 . S
C1467 C183 1.587 . S
C1472 C751 1.516 . S
C1477 C194 1.507 . S
C1482 C688 1.474 . S
C1492 C702 1.308 . S
C1487 C122 1.459 . S
C1497 C147 1.464 . S
C1502 C667 1.381 . S
C1512 C786 1.425 . S
C1507 C230 1.495 . S
C1517 C255 1.539 . S
C1522 C807 1.431 . S
C1527 C291 1.495 . S
C1532 C835 1.355 . S
C1542 C856 1.303 . S
C1537 C302 1.338 . S
C1547 C219 1.509 . S
C1552 C870 1.406 . S
C1557 C266 1.413 . S
C1562 C898 1.399 . S
C1567 C327 1.444 . S
C1572 C891 1.295 . S
C1577 C374 1.404 . S
C1582 C849 1.305 . S
C1592 C877 1.500 . S
C1587 C399 1.575 . S
C1597 C410 1.502 . S
C1602 C814 1.460 . S
C1607 C338 1.488 . S
C1612 C828 1.338 . S
C1622 C793 1.414 . S
C1617 C363 1.505 . S
C1632 C912 1.364 1_545 S
C1627 C446 1.426 . S
C1637 C471 1.468 . S
C1642 C933 1.345 1_655 S
C1647 C507 1.466 . S
C1652 C961 1.330 . S
C1662 C982 1.304 . S
C1657 C518 1.388 . S
C1672 C996 1.433 . S
C1667 C435 1.545 . S
C1677 C482 1.498 . S
C1682 C1024 1.426 . S
C1687 C543 1.506 . S
C1692 C1017 1.312 . S
C1697 C590 1.489 . S
C1702 C975 1.335 . S
C1712 C1003 1.518 . S
C1707 C615 1.600 . S
C1722 C940 1.395 1_655 S
C1717 C626 1.416 . S
C1732 C954 1.320 . S
C1727 C554 1.472 . S
C1737 C579 1.435 . S
C1742 C919 1.345 1_545 S
