# Generated by pormake.
# Topology zzz, (3,6)-cn, num edge types: 1
# Building blocks:
#     Node 0, Type 0, BuildingBlock: CUQRIR_clean_linker_1, # of connection points: 3
#     Node 1, Type 0, BuildingBlock: CUQRIR_clean_linker_1, # of connection points: 3
#     Node 2, Type 0, BuildingBlock: CUQRIR_clean_linker_1, # of connection points: 3
#     Node 3, Type 0, BuildingBlock: CUQRIR_clean_linker_1, # of connection points: 3
#     Node 4, Type 0, BuildingBlock: CUQRIR_clean_linker_1, # of connection points: 3
#     Node 5, Type 0, BuildingBlock: CUQRIR_clean_linker_1, # of connection points: 3
#     Node 6, Type 0, BuildingBlock: CUQRIR_clean_linker_1, # of connection points: 3
#     Node 7, Type 0, BuildingBlock: CUQRIR_clean_linker_1, # of connection points: 3
#     Node 8, Type 1, BuildingBlock: KUMJIN_clean_sbu_0, # of connection points: 6
#     Node 9, Type 1, BuildingBlock: KUMJIN_clean_sbu_0, # of connection points: 6
#     Node 10, Type 1, BuildingBlock: KUMJIN_clean_sbu_0, # of connection points: 6
#     Node 11, Type 1, BuildingBlock: KUMJIN_clean_sbu_0, # of connection points: 6
#     Edge 12, Type (0, 1), BuildingBlock: KIFKEQ_clean_linker_1, # of connection points: 2
#     Edge 13, Type (0, 1), BuildingBlock: KIFKEQ_clean_linker_1, # of connection points: 2
#     Edge 14, Type (0, 1), BuildingBlock: KIFKEQ_clean_linker_1, # of connection points: 2
#     Edge 15, Type (0, 1), BuildingBlock: KIFKEQ_clean_linker_1, # of connection points: 2
#     Edge 16, Type (0, 1), BuildingBlock: KIFKEQ_clean_linker_1, # of connection points: 2
#     Edge 17, Type (0, 1), BuildingBlock: KIFKEQ_clean_linker_1, # of connection points: 2
#     Edge 18, Type (0, 1), BuildingBlock: KIFKEQ_clean_linker_1, # of connection points: 2
#     Edge 19, Type (0, 1), BuildingBlock: KIFKEQ_clean_linker_1, # of connection points: 2
#     Edge 20, Type (0, 1), BuildingBlock: KIFKEQ_clean_linker_1, # of connection points: 2
#     Edge 21, Type (0, 1), BuildingBlock: KIFKEQ_clean_linker_1, # of connection points: 2
#     Edge 22, Type (0, 1), BuildingBlock: KIFKEQ_clean_linker_1, # of connection points: 2
#     Edge 23, Type (0, 1), BuildingBlock: KIFKEQ_clean_linker_1, # of connection points: 2
#     Edge 24, Type (0, 1), BuildingBlock: KIFKEQ_clean_linker_1, # of connection points: 2
#     Edge 25, Type (0, 1), BuildingBlock: KIFKEQ_clean_linker_1, # of connection points: 2
#     Edge 26, Type (0, 1), BuildingBlock: KIFKEQ_clean_linker_1, # of connection points: 2
#     Edge 27, Type (0, 1), BuildingBlock: KIFKEQ_clean_linker_1, # of connection points: 2
#     Edge 28, Type (0, 1), BuildingBlock: KIFKEQ_clean_linker_1, # of connection points: 2
#     Edge 29, Type (0, 1), BuildingBlock: KIFKEQ_clean_linker_1, # of connection points: 2
#     Edge 30, Type (0, 1), BuildingBlock: KIFKEQ_clean_linker_1, # of connection points: 2
#     Edge 31, Type (0, 1), BuildingBlock: KIFKEQ_clean_linker_1, # of connection points: 2
#     Edge 32, Type (0, 1), BuildingBlock: KIFKEQ_clean_linker_1, # of connection points: 2
#     Edge 33, Type (0, 1), BuildingBlock: KIFKEQ_clean_linker_1, # of connection points: 2
#     Edge 34, Type (0, 1), BuildingBlock: KIFKEQ_clean_linker_1, # of connection points: 2
#     Edge 35, Type (0, 1), BuildingBlock: KIFKEQ_clean_linker_1, # of connection points: 2
# Relax obj value: 0.204
# Max RMSD: 0.169
# Mean RMSD: 0.119
data_MOF--net-zzz--node1-KUMJIN_clean_sbu_0--node2-CUQRIR_clean_linker_1--edge1-KIFKEQ_clean_linker_1
_symmetry_space_group_name_H-M    P1
_symmetry_Int_Tables_number       1
_symmetry_cell_setting            triclinic
loop_
_symmetry_equiv_pos_as_xyz
'x, y, z'
_cell_length_a     47.128612
_cell_length_b     47.271471
_cell_length_c     13.367348
_cell_angle_alpha  91.869041
_cell_angle_beta   90.07135
_cell_angle_gamma 89.966619
loop_
_atom_site_label
_atom_site_type_symbol
_atom_site_fract_x
_atom_site_fract_y
_atom_site_fract_z
_atom_type_partial_charge
C0 C 0.75574 0.54009 0.31029 0.0
N1 N 0.78202 0.55137 0.32596 0.0
N2 N 0.74085 0.55509 0.24202 0.0
C3 C 0.74495 0.51419 0.35953 0.0
C4 C 0.75934 0.57564 0.21634 0.0
N5 N 0.78406 0.57347 0.26737 0.0
C6 C 0.7536 0.59698 0.13759 0.0
H7 H 0.75105 0.49525 0.31323 0.0
H8 H 0.72147 0.51478 0.36564 0.0
H9 H 0.75456 0.5123 0.43485 0.0
H10 H 0.73799 0.61271 0.16698 0.0
H11 H 0.7442 0.5863 0.07021 0.0
H12 H 0.77299 0.60856 0.11627 0.0
C13 C 1.01464 0.76482 0.31726 0.0
N14 N 0.99952 0.78938 0.32954 0.0
N15 N 0.99952 0.74461 0.26442 0.0
C16 C 0.04431 0.76086 0.35464 0.0
C17 C 0.97478 0.75808 0.24487 0.0
N18 N 0.97492 0.78523 0.2818 0.0
C19 C 0.95127 0.74542 0.18112 0.0
H20 H 0.05935 0.76939 0.29942 0.0
H21 H 0.04902 0.73808 0.36386 0.0
H22 H 0.04743 0.77273 0.42682 0.0
H23 H 0.94184 0.72722 0.21927 0.0
H24 H 0.95998 0.73749 0.10837 0.0
H25 H 0.93394 0.76073 0.16797 0.0
C26 C 0.80211 1.00903 0.35416 0.0
N27 N 0.77518 0.99821 0.35374 0.0
N28 N 0.81819 0.99686 0.27928 0.0
C29 C 0.81288 0.03125 0.42719 0.0
C30 C 0.79988 0.97871 0.23243 0.0
N31 N 0.77409 0.97941 0.27734 0.0
C32 C 0.80611 0.96285 0.1352 0.0
H33 H 0.809 0.05242 0.39639 0.0
H34 H 0.83608 0.02881 0.43871 0.0
H35 H 0.80166 0.03005 0.49985 0.0
H36 H 0.81062 0.94041 0.15125 0.0
H37 H 0.82465 0.9717 0.09602 0.0
H38 H 0.78754 0.96334 0.08422 0.0
C39 C 0.5494 0.80826 0.33283 0.0
N40 N 0.55967 0.78196 0.35086 0.0
N41 N 0.56501 0.82098 0.26112 0.0
C42 C 0.52268 0.8204 0.37725 0.0
C43 C 0.58499 0.8013 0.23647 0.0
N44 N 0.58184 0.77781 0.29061 0.0
C45 C 0.60727 0.80478 0.15742 0.0
H46 H 0.50583 0.81993 0.3192 0.0
H47 H 0.52618 0.84284 0.401 0.0
H48 H 0.51552 0.80822 0.44212 0.0
H49 H 0.61379 0.82729 0.15401 0.0
H50 H 0.5984 0.79812 0.08344 0.0
H51 H 0.62608 0.79145 0.17259 0.0
C52 C 0.30679 0.53031 0.10089 0.0
N53 N 0.28041 0.51911 0.08671 0.0
N54 N 0.32163 0.51581 0.17065 0.0
C55 C 0.31773 0.55566 0.04872 0.0
C56 C 0.303 0.49566 0.19882 0.0
N57 N 0.27824 0.49758 0.14781 0.0
C58 C 0.30865 0.47501 0.27989 0.0
H59 H 0.34119 0.55481 0.04228 0.0
H60 H 0.31186 0.57501 0.09315 0.0
H61 H 0.30803 0.557 0.97332 0.0
H62 H 0.31799 0.48624 0.34628 0.0
H63 H 0.32429 0.45905 0.25237 0.0
H64 H 0.28923 0.46363 0.30221 0.0
C65 C 0.04429 0.3028 0.10657 0.0
N66 N 0.06024 0.27917 0.0851 0.0
N67 N 0.05965 0.32288 0.15928 0.0
C68 C 1.01323 0.30514 0.08428 0.0
C69 C 0.08543 0.31042 0.16754 0.0
N70 N 0.08571 0.28384 0.12609 0.0
C71 C 0.11063 0.32403 0.21903 0.0
H72 H 1.00686 0.32757 0.07729 0.0
H73 H 1.0011 0.29613 0.14681 0.0
H74 H 1.00784 0.29292 1.01454 0.0
H75 H 0.1096 0.32057 0.30057 0.0
H76 H 0.11066 0.34719 0.20773 0.0
H77 H 0.13067 0.3146 0.18983 0.0
C78 C 0.26833 0.05807 0.06205 0.0
N79 N 0.29287 0.07274 0.04836 0.0
N80 N 0.24859 0.07429 0.11183 0.0
C81 C 0.26418 0.02753 0.03212 0.0
C82 C 0.26234 0.09911 0.12912 0.0
N83 N 0.28923 0.09818 0.09276 0.0
C84 C 0.25044 0.12323 0.19228 0.0
H85 H 0.24128 1.0226 0.02314 0.0
H86 H 0.27301 1.01424 0.09159 0.0
H87 H 0.27567 1.02232 0.96146 0.0
H88 H 0.24919 0.11686 0.27133 0.0
H89 H 0.22857 0.12813 0.1673 0.0
H90 H 0.26375 0.1425 0.18766 0.0
C91 C 0.51642 0.26498 0.0834 0.0
N92 N 0.50586 0.29118 0.0654 0.0
N93 N 0.50116 0.25225 0.15604 0.0
C94 C 0.54266 0.25263 0.03608 0.0
C95 C 0.48107 0.27177 0.18109 0.0
N96 N 0.48384 0.29519 0.1264 0.0
C97 C 0.45864 0.26802 0.25946 0.0
H98 H 0.53659 0.23432 0.98655 0.0
H99 H 0.55692 0.24462 0.09492 0.0
H100 H 0.55405 0.26837 0.99132 0.0
H101 H 0.46717 0.275 0.33359 0.0
H102 H 0.45244 0.24543 0.26312 0.0
H103 H 0.43965 0.28101 0.24336 0.0
Eu104 Eu 0.0608 0.02716 0.78864 0.0
C105 C 0.95925 0.99943 0.51916 0.0
C106 C 0.98105 0.97094 0.38662 0.0
C107 C 0.93109 0.96478 0.42334 0.0
C108 C 0.98315 0.99167 0.46472 0.0
C109 C 0.93278 0.98657 0.49691 0.0
C110 C 0.95516 0.95707 0.36792 0.0
C111 C 0.91052 1.02117 0.60763 0.0
N112 N 0.96122 1.02132 0.58695 0.0
C113 C 0.93704 0.03359 0.6249 0.0
C114 C 0.90844 0.99715 0.5448 0.0
Eu115 Eu 1.00657 0.04272 0.60813 0.0
N116 N 1.00798 1.00556 0.48345 0.0
C117 C 0.0311 1.00026 0.42371 0.0
C118 C 1.00473 0.9655 0.32666 0.0
C119 C 0.02986 0.98013 0.34516 0.0
H120 H 0.93832 0.05315 0.66871 0.0
H121 H 0.04824 0.97609 0.29837 0.0
H122 H 0.95334 0.94094 0.30875 0.0
H123 H 0.89165 0.03053 0.64081 0.0
H124 H 0.05083 1.01108 0.43594 0.0
H125 H 0.03876 0.10019 0.10414 0.0
H126 H 1.00348 0.95077 0.26393 0.0
H127 H 0.1263 1.0085 0.70343 0.0
H128 H 0.0283 0.06269 0.97906 0.0
H129 H 0.17489 0.02774 0.70179 0.0
H130 H 0.91101 0.95459 0.4058 0.0
H131 H 0.08549 0.124 0.10342 0.0
H132 H 0.13286 0.13013 0.02658 0.0
H133 H 0.88778 0.98791 0.52952 0.0
H134 H 0.1697 0.11119 0.91305 0.0
N135 N 0.06799 0.06595 0.90352 0.0
C136 C 0.04852 0.07316 0.97584 0.0
C137 C 0.08042 0.10831 0.04614 0.0
C138 C 0.10061 0.10042 0.97449 0.0
C139 C 0.05432 0.09457 0.04739 0.0
C140 C 0.094 0.07837 0.9047 0.0
H141 H 0.18574 0.07272 0.79327 0.0
N142 N 0.1089 0.04367 0.78663 0.0
C143 C 0.15821 0.03929 0.7409 0.0
C144 C 0.11491 0.06726 0.84287 0.0
C145 C 0.13061 0.02856 0.74172 0.0
C146 C 0.1642 0.0647 0.79222 0.0
C147 C 0.14272 0.07849 0.84692 0.0
O148 O 0.08996 0.99559 0.84442 0.0
O149 O 0.02856 1.00652 0.68296 0.0
O150 O 0.98216 0.02679 0.74232 0.0
O151 O 1.0169 0.02531 0.86608 0.0
O152 O 0.06863 0.9888 0.68609 0.0
O153 O 0.05384 1.00847 0.9338 0.0
O154 O 0.97819 0.07777 0.5748 0.0
O155 O 0.03832 0.06354 0.71614 0.0
O156 O 0.08389 0.03771 0.6461 0.0
O157 O 0.04963 0.05311 0.53553 0.0
O158 O 0.99694 0.07853 0.71984 0.0
O159 O 1.00436 0.05874 0.45768 0.0
C160 C 0.04381 0.98626 0.64673 0.0
C161 C 0.07126 0.9616 0.94987 0.0
C162 C 0.04192 0.92394 1.01224 0.0
C163 C 0.0447 0.95165 0.98043 0.0
C164 C 0.06552 0.90578 1.01062 0.0
C165 C 0.09473 0.94324 0.94838 0.0
C166 C 0.09177 0.91537 0.97782 0.0
C167 C 0.98991 1.02424 0.83695 0.0
C168 C 0.07538 0.99129 0.92465 0.0
C169 C 0.14862 0.10207 0.90994 0.0
C170 C 0.12765 0.11286 0.97445 0.0
C171 C 1.02197 0.08224 0.75703 0.0
C172 C 0.99046 0.1064 0.44072 0.0
C173 C 1.01741 0.11514 0.40958 0.0
C174 C 1.02048 0.1409 0.36216 0.0
C175 C 0.99664 0.15828 0.34871 0.0
C176 C 0.96686 0.12397 0.42738 0.0
C177 C 0.97001 0.14991 0.38197 0.0
C178 C 0.0764 0.04774 0.55926 0.0
C179 C 0.986 0.07845 0.48167 0.0
H180 H 0.02646 0.96557 0.9831 0.0
H181 H 0.06364 0.88429 0.03565 0.0
H182 H 0.11545 0.95058 0.92557 0.0
H183 H 0.10994 0.90136 0.97698 0.0
H184 H 0.03571 0.10163 0.41914 0.0
H185 H 0.99868 0.17838 0.31263 0.0
H186 H 0.94594 0.11743 0.45091 0.0
H187 H 0.95174 0.16337 0.37143 0.0
Eu188 Eu 0.53964 0.06069 0.78774 0.0
C189 C 0.56658 0.95192 0.54339 0.0
C190 C 0.60229 0.96634 0.42505 0.0
C191 C 0.60155 0.9179 0.48035 0.0
C192 C 0.57874 0.97276 0.48697 0.0
C193 C 0.5774 0.92407 0.53861 0.0
C194 C 0.61403 0.93902 0.42396 0.0
C195 C 0.5381 0.90979 0.64138 0.0
N196 N 0.54313 0.95845 0.59831 0.0
C197 C 0.52811 0.93766 0.64354 0.0
C198 C 0.56307 0.90303 0.58978 0.0
Eu199 Eu 0.52717 1.00601 0.59641 0.0
N200 N 0.56662 0.99884 0.48815 0.0
C201 C 0.57552 1.01862 0.4227 0.0
C202 C 0.61279 0.9873 0.36357 0.0
C203 C 0.59896 1.01334 0.36084 0.0
H204 H 0.5088 0.94288 0.6837 0.0
H205 H 0.60646 0.02945 0.31161 0.0
H206 H 0.63222 0.93379 0.37739 0.0
H207 H 0.52654 0.89355 0.67944 0.0
H208 H 0.56524 0.03892 0.41981 0.0
H209 H 0.47168 0.04803 0.11371 0.0
H210 H 0.63109 0.98341 0.31626 0.0
H211 H 0.55993 0.12109 0.68223 0.0
H212 H 0.50287 0.03236 0.9774 0.0
H213 H 0.54718 0.17166 0.68702 0.0
H214 H 0.61028 0.89668 0.47633 0.0
H215 H 0.45574 0.09805 0.12656 0.0
H216 H 0.45416 0.14591 0.05363 0.0
H217 H 0.57068 0.88138 0.5877 0.0
H218 H 0.47385 0.17931 0.93471 0.0
N219 N 0.50507 0.07272 0.9111 0.0
C220 C 0.49602 0.05404 0.98013 0.0
C221 C 0.46882 0.09088 0.06444 0.0
C222 C 0.47767 0.10983 0.99303 0.0
C223 C 0.478 0.06284 0.05793 0.0
C224 C 0.49668 0.10021 0.9179 0.0
H225 H 0.50914 0.18929 0.8001 0.0
N226 N 0.52875 0.10978 0.78902 0.0
C227 C 0.53607 0.15715 0.7342 0.0
C228 C 0.50853 0.11921 0.8538 0.0
C229 C 0.54327 0.12844 0.73192 0.0
C230 C 0.51452 0.16699 0.79773 0.0
C231 C 0.5008 0.14809 0.85989 0.0
O232 O 0.57713 0.08353 0.84098 0.0
O233 O 0.56089 0.03038 0.67801 0.0
O234 O 0.54936 0.98564 0.72698 0.0
O235 O 0.53524 1.01654 0.85559 0.0
O236 O 0.57537 0.0713 0.68026 0.0
O237 O 0.56041 0.04921 0.92676 0.0
O238 O 0.49284 0.97955 0.53659 0.0
O239 O 0.50595 0.0363 0.70586 0.0
O240 O 0.51505 0.08112 0.66302 0.0
O241 O 0.52636 0.05058 0.52934 0.0
O242 O 0.48843 0.99668 0.69402 0.0
O243 O 0.51327 1.01007 0.44218 0.0
C244 C 0.57959 0.04637 0.642 0.0
C245 C 0.61005 0.05027 0.89767 0.0
C246 C 0.63836 1.00685 0.90152 0.0
C247 C 0.61278 1.02147 0.91991 0.0
C248 C 0.661 1.02151 0.85751 0.0
C249 C 0.63313 0.06433 0.85528 0.0
C250 C 0.65827 0.0499 0.83432 0.0
C251 C 0.54483 0.99143 0.82316 0.0
C252 C 0.58248 0.06493 0.90842 0.0
C253 C 0.48035 0.15731 0.92985 0.0
C254 C 0.46906 0.13829 0.9972 0.0
C255 C 0.486 1.02117 0.7385 0.0
C256 C 0.46592 0.99662 0.40239 0.0
C257 C 0.4581 1.02387 0.37338 0.0
C258 C 0.43272 0.02775 0.32079 0.0
C259 C 0.41491 1.00443 0.29976 0.0
C260 C 0.44789 0.97359 0.38094 0.0
C261 C 0.42243 0.97754 0.33029 0.0
C262 C 0.51794 0.07573 0.56575 0.0
C263 C 0.49339 0.99104 0.4493 0.0
H264 H 0.59502 1.01045 0.95185 0.0
H265 H 0.68139 1.01155 0.84447 0.0
H266 H 0.63154 0.08638 0.83634 0.0
H267 H 0.67588 0.06086 0.80106 0.0
H268 H 0.47193 0.0418 0.38908 0.0
H269 H 0.39505 1.00706 0.26016 0.0
H270 H 0.45371 0.95245 0.4024 0.0
H271 H 0.40862 0.9597 0.31385 0.0
Eu272 Eu 0.56185 0.53094 0.62142 0.0
C273 C 0.44356 0.50533 0.78037 0.0
C274 C 0.41059 0.52824 0.66971 0.0
C275 C 0.39753 0.48397 0.74422 0.0
C276 C 0.43742 0.52715 0.71684 0.0
C277 C 0.42315 0.48421 0.79789 0.0
C278 C 0.39127 0.50595 0.68012 0.0
C279 C 0.45265 0.4679 0.93207 0.0
N280 N 0.4682 0.50638 0.83292 0.0
C281 C 0.47227 0.48915 0.91214 0.0
C282 C 0.42836 0.46493 0.87298 0.0
Eu283 Eu 0.50115 0.54168 0.78798 0.0
N284 N 0.45637 0.54869 0.70929 0.0
C285 C 0.44806 0.57342 0.66751 0.0
C286 C 0.40331 0.55243 0.618 0.0
C287 C 0.42179 0.57542 0.61952 0.0
H288 H 0.49119 0.49127 0.95756 0.0
H289 H 0.41579 0.59478 0.58394 0.0
H290 H 0.37085 0.50622 0.64279 0.0
H291 H 0.45613 0.4539 0.9931 0.0
H292 H 0.46124 0.59193 0.67055 0.0
H293 H 0.64732 0.47749 0.82367 0.0
H294 H 0.38296 0.55408 0.58082 0.0
H295 H 0.57183 0.58157 0.4526 0.0
H296 H 0.60191 0.48043 0.73673 0.0
H297 H 0.60688 0.61903 0.41785 0.0
H298 H 0.38184 0.46763 0.75543 0.0
H299 H 0.68003 0.5183 0.82831 0.0
H300 H 0.69206 0.56633 0.76765 0.0
H301 H 0.41313 0.44852 0.88905 0.0
H302 H 0.68105 0.60509 0.6558 0.0
N303 N 0.60664 0.52382 0.69982 0.0
C304 C 0.61501 0.49899 0.74071 0.0
C305 C 0.65968 0.51999 0.79113 0.0
C306 C 0.65236 0.54428 0.7401 0.0
C307 C 0.64127 0.49694 0.78876 0.0
C308 C 0.62554 0.54543 0.69293 0.0
H309 H 0.6498 0.62434 0.5223 0.0
N310 N 0.59476 0.56634 0.57716 0.0
C311 C 0.61033 0.60496 0.47869 0.0
C312 C 0.61939 0.56735 0.62986 0.0
C313 C 0.59072 0.58366 0.49816 0.0
C314 C 0.63458 0.6079 0.53801 0.0
C315 C 0.63978 0.58852 0.61282 0.0
O316 O 0.58856 0.52051 0.49216 0.0
O317 O 0.51439 0.52981 0.63227 0.0
O318 O 0.50754 0.49414 0.75977 0.0
O319 O 0.55487 0.49068 0.71163 0.0
O320 O 0.53057 0.54751 0.50532 0.0
O321 O 0.5547 0.49228 0.53088 0.0
O322 O 0.47444 0.55238 0.91702 0.0
O323 O 0.54855 0.54267 0.77712 0.0
O324 O 0.5556 0.57843 0.65072 0.0
O325 O 0.5082 0.58194 0.69774 0.0
O326 O 0.53236 0.52512 0.90429 0.0
O327 O 0.50848 0.58037 0.87816 0.0
C328 C 0.5075 0.54051 0.5502 0.0
C329 C 0.56227 0.4995 0.3584 0.0
C330 C 0.52895 0.48169 0.23122 0.0
C331 C 0.54027 0.48116 0.32844 0.0
C332 C 0.54041 0.50046 0.16281 0.0
C333 C 0.57319 0.51846 0.28932 0.0
C334 C 0.56219 0.51895 0.19243 0.0
C335 C 0.53117 0.47934 0.74642 0.0
C336 C 0.57285 0.49926 0.4625 0.0
C337 C 0.66538 0.58872 0.66662 0.0
C338 C 0.67164 0.56664 0.73028 0.0
C339 C 0.55544 0.53199 0.85924 0.0
C340 C 0.50083 0.57336 0.05066 0.0
C341 C 0.52271 0.59182 0.08075 0.0
C342 C 0.53405 0.5913 0.17795 0.0
C343 C 0.52274 0.57238 0.24617 0.0
C344 C 0.49004 0.55427 0.11959 0.0
C345 C 0.50106 0.55379 0.21644 0.0
C346 C 0.53199 0.59327 0.66362 0.0
C347 C 0.49026 0.57356 0.94653 0.0
H348 H 0.53221 0.46608 0.38079 0.0
H349 H 0.53211 0.50128 0.08746 0.0
H350 H 0.58994 0.53319 0.31024 0.0
H351 H 0.5701 0.53428 0.1411 0.0
H352 H 0.53067 0.60698 0.02851 0.0
H353 H 0.53108 0.57153 0.32147 0.0
H354 H 0.47339 0.53945 0.09857 0.0
H355 H 0.49326 0.53837 0.26762 0.0
Eu356 Eu 0.03567 0.56436 0.62777 0.0
C357 C 0.06258 0.44802 0.79556 0.0
C358 C 0.04085 0.41333 0.68207 0.0
C359 C 0.0843 0.40162 0.76908 0.0
C360 C 0.04138 0.44081 0.72725 0.0
C361 C 0.08359 0.42805 0.8199 0.0
C362 C 0.06297 0.39428 0.70023 0.0
C363 C 0.09905 0.45987 0.95389 0.0
N364 N 0.06114 0.47349 0.84525 0.0
C365 C 0.07794 0.479 0.9273 0.0
C366 C 0.10236 0.4346 0.89842 0.0
Eu367 Eu 1.0257 0.50523 0.79117 0.0
N368 N 1.01999 0.45958 0.71174 0.0
C369 C 0.99604 0.45071 0.66176 0.0
C370 C 1.01745 0.40528 0.62355 0.0
C371 C 0.99471 0.42384 0.61522 0.0
H372 H 0.07555 0.4986 0.97014 0.0
H373 H 0.97596 0.41739 0.57356 0.0
H374 H 0.0631 0.37335 0.66465 0.0
H375 H 0.11265 0.46446 1.01741 0.0
H376 H 0.97756 0.46381 0.65697 0.0
H377 H 0.08709 0.65153 0.8424 0.0
H378 H 1.01621 0.38439 0.58801 0.0
H379 H 0.98531 0.57335 0.45126 0.0
H380 H 0.08532 0.60603 0.75074 0.0
H381 H 0.94695 0.60739 0.41465 0.0
H382 H 0.10053 0.38622 0.78573 0.0
H383 H 0.04512 0.68284 0.84694 0.0
H384 H 0.99648 0.69333 0.78281 0.0
H385 H 0.11865 0.41975 0.91967 0.0
H386 H 0.95806 0.68133 0.66446 0.0
N387 N 0.04156 0.60935 0.71094 0.0
C388 C 0.06631 0.61852 0.75465 0.0
C389 C 0.04396 0.66245 0.80773 0.0
C390 C 1.01972 0.65436 0.7537 0.0
C391 C 0.06768 0.64484 0.80536 0.0
C392 C 1.01933 0.62756 0.70365 0.0
H393 H 0.94005 0.64985 0.52391 0.0
N394 N 0.99949 0.59639 0.5812 0.0
C395 C 0.96073 0.61109 0.47829 0.0
C396 C 0.99763 0.62085 0.63682 0.0
C397 C 0.98255 0.59208 0.49871 0.0
C398 C 0.95689 0.63508 0.54036 0.0
C399 C 0.97591 0.64065 0.61898 0.0
O400 O 0.04543 0.5911 0.50231 0.0
O401 O 0.03808 0.51699 0.63686 0.0
O402 O 0.0734 0.51188 0.77098 0.0
O403 O 0.07611 0.55866 0.7234 0.0
O404 O 1.02059 0.53188 0.50737 0.0
O405 O 0.07498 0.55863 0.54308 0.0
O406 O 1.0143 0.47912 0.91662 0.0
O407 O 1.02365 0.55259 0.78224 0.0
O408 O 0.98807 0.55716 0.64674 0.0
O409 O 0.98557 0.5104 0.69382 0.0
O410 O 0.04154 0.53758 0.91069 0.0
O411 O 0.98655 0.51304 0.87496 0.0
C412 C 0.02801 0.50925 0.55231 0.0
C413 C 0.06848 0.56587 0.37004 0.0
C414 C 0.08886 0.53363 0.24294 0.0
C415 C 0.08815 0.54491 0.34146 0.0
C416 C 0.06994 0.54419 0.17191 0.0
C417 C 0.04951 0.57597 0.29817 0.0
C418 C 0.05028 0.5651 0.19991 0.0
C419 C 0.08789 0.53556 0.75974 0.0
C420 C 0.06757 0.5764 0.47526 0.0
C421 C 0.97488 0.66612 0.67583 0.0
C422 C 0.99676 0.67296 0.74322 0.0
C423 C 0.03422 0.56028 0.86605 0.0
C424 C 0.99284 0.50615 0.04805 0.0
C425 C 0.97331 0.52722 0.07687 0.0
C426 C 0.97336 0.53913 0.17455 0.0
C427 C 0.99295 0.5292 0.24445 0.0
C428 C 1.01253 0.4967 0.11872 0.0
C429 C 1.01254 0.50826 0.2161 0.0
C430 C 0.97373 0.53341 0.65725 0.0
C431 C 0.99302 0.49512 0.9434 0.0
H432 H 0.10333 0.53772 0.39607 0.0
H433 H 0.07002 0.53602 0.09542 0.0
H434 H 0.03387 0.592 0.31784 0.0
H435 H 0.03505 0.5724 0.14605 0.0
H436 H 0.95768 0.53404 0.02316 0.0
H437 H 0.99343 0.53789 0.32028 0.0
H438 H 0.02814 0.48068 0.09876 0.0
H439 H 0.0283 0.50144 0.26899 0.0
H440 H 0.24378 0.04276 0.27531 0.0
H441 H 0.19478 0.08934 0.06537 0.0
H442 H 0.20165 0.03639 0.378 0.0
H443 H 0.15174 0.08202 0.16452 0.0
H444 H 0.08544 0.08986 0.4215 0.0
H445 H 0.12568 0.09453 0.30705 0.0
H446 H 0.15938 1.01518 0.40706 0.0
H447 H 0.11999 1.01141 0.52222 0.0
C448 C 0.22362 0.05076 0.24945 0.0
C449 C 0.22251 0.06597 0.16113 0.0
C450 C 0.19921 0.0472 0.30845 0.0
C451 C 0.17261 0.05854 0.28086 0.0
C452 C 0.17153 0.07321 0.19036 0.0
C453 C 0.19613 0.07703 0.13207 0.0
C454 C 0.10142 0.07343 0.41847 0.0
C455 C 0.0996 0.05053 0.48291 0.0
C456 C 0.12467 0.07599 0.35229 0.0
C457 C 0.14664 0.05549 0.34745 0.0
C458 C 0.14389 0.03209 0.40963 0.0
C459 C 0.12102 0.0298 0.47619 0.0
H460 H 0.50283 0.19856 0.07688 0.0
H461 H 0.51231 0.2471 0.35237 0.0
H462 H 0.50578 0.15442 0.16937 0.0
H463 H 0.5158 0.20366 0.4451 0.0
H464 H 0.48989 0.12566 0.60425 0.0
H465 H 0.48699 0.16694 0.5013 0.0
H466 H 0.53302 0.12221 0.26592 0.0
H467 H 0.53554 0.08049 0.36945 0.0
C468 C 0.50593 0.1997 0.15704 0.0
C469 C 0.50693 0.22624 0.20749 0.0
C470 C 0.5076 0.17445 0.2104 0.0
C471 C 0.51036 0.17516 0.31576 0.0
C472 C 0.51272 0.20193 0.36487 0.0
C473 C 0.51098 0.22696 0.31168 0.0
C474 C 0.49941 0.12449 0.53052 0.0
C475 C 0.51342 0.09971 0.49647 0.0
C476 C 0.49791 0.1484 0.47123 0.0
C477 C 0.51037 0.14851 0.37535 0.0
C478 C 0.5232 0.1232 0.33911 0.0
C479 C 0.52468 0.09916 0.39876 0.0
H480 H 0.34063 0.56418 0.26392 0.0
H481 H 0.36587 0.47939 0.17742 0.0
H482 H 0.38549 0.57089 0.35573 0.0
H483 H 0.41056 0.48573 0.26907 0.0
H484 H 0.47153 0.49499 0.53895 0.0
H485 H 0.42765 0.48982 0.44135 0.0
H486 H 0.43727 0.57514 0.34059 0.0
H487 H 0.48123 0.58003 0.43815 0.0
C488 C 0.35602 0.54717 0.26304 0.0
C489 C 0.34961 0.52123 0.21354 0.0
C490 C 0.38174 0.55091 0.316 0.0
C491 C 0.40176 0.52875 0.32135 0.0
C492 C 0.39558 0.50312 0.26895 0.0
C493 C 0.36999 0.49948 0.21581 0.0
C494 C 0.46407 0.5127 0.49669 0.0
C495 C 0.47958 0.53808 0.49768 0.0
C496 C 0.43905 0.50968 0.43958 0.0
C497 C 0.42865 0.53205 0.38235 0.0
C498 C 0.44422 0.55753 0.38428 0.0
C499 C 0.46948 0.56036 0.44016 0.0
H500 H 0.0375 0.37179 0.08669 0.0
H501 H 0.06215 0.3326 0.35961 0.0
H502 H 0.0288 0.41668 0.18127 0.0
H503 H 0.05491 0.37736 0.45304 0.0
H504 H 0.07198 0.47078 0.56113 0.0
H505 H 0.07768 0.42593 0.46506 0.0
H506 H 0.99743 0.43973 0.31909 0.0
H507 H 0.99156 0.4842 0.41714 0.0
C508 C 0.04059 0.37258 0.167 0.0
C509 C 0.05046 0.3484 0.21528 0.0
C510 C 0.03584 0.39841 0.22139 0.0
C511 C 0.0414 0.40099 0.32536 0.0
C512 C 0.0507 0.37656 0.37336 0.0
C513 C 0.0548 0.35076 0.31964 0.0
C514 C 0.05537 0.46402 0.50967 0.0
C515 C 0.03103 0.48092 0.49862 0.0
C516 C 0.05867 0.43832 0.45389 0.0
C517 C 0.03799 0.42886 0.3838 0.0
C518 C 1.01389 0.44612 0.37167 0.0
C519 C 1.01044 0.47161 0.42845 0.0
H520 H 0.83525 0.04621 0.20148 0.0
H521 H 0.86445 0.96283 0.26948 0.0
H522 H 0.87881 0.05431 0.10629 0.0
H523 H 0.90816 0.97055 0.17418 0.0
H524 H 0.99234 1.00077 0.02579 0.0
H525 H 0.95371 0.99579 0.14755 0.0
H526 H 0.89658 0.03736 0.94701 0.0
H527 H 0.93474 0.04247 0.82855 0.0
C528 C 0.85142 0.02993 0.19853 0.0
C529 C 0.84646 1.00401 0.24386 0.0
C530 C 0.8763 0.03432 0.14258 0.0
C531 C 0.89713 1.01292 0.1303 0.0
C532 C 0.89289 0.98763 0.18143 0.0
C533 C 0.86785 0.98318 0.23658 0.0
C534 C 0.97151 1.00867 1.00741 0.0
C535 C 0.96679 1.02127 0.91448 0.0
C536 C 0.94923 1.00583 0.07756 0.0
C537 C 0.92166 1.01619 0.05811 0.0
C538 C 0.91732 0.02929 0.96625 0.0
C539 C 0.93934 0.03174 0.89637 0.0
H540 H 0.56652 0.87573 0.33135 0.0
H541 H 0.55079 0.82377 0.06687 0.0
H542 H 0.56264 0.91856 0.23168 0.0
H543 H 0.54684 0.86599 0.96715 0.0
H544 H 0.57422 0.94179 0.79367 0.0
H545 H 0.57803 0.90201 0.90393 0.0
H546 H 0.53056 0.94852 0.13096 0.0
H547 H 0.52651 0.98846 1.01946 0.0
C548 C 0.5617 0.87355 0.25226 0.0
C549 C 0.55893 0.84642 0.2068 0.0
C550 C 0.55957 0.89804 0.19486 0.0
C551 C 0.55482 0.89591 0.09046 0.0
C552 C 0.55115 0.86865 0.04649 0.0
C553 C 0.55315 0.84438 0.10369 0.0
C554 C 0.56431 0.94357 0.86662 0.0
C555 C 0.54931 0.96824 0.89585 0.0
C556 C 0.56654 0.92064 0.93031 0.0
C557 C 0.5541 0.92158 0.02622 0.0
C558 C 0.54035 0.94683 0.05775 0.0
C559 C 0.53795 0.9698 0.99344 0.0
H560 H 0.69641 0.59132 0.23752 0.0
H561 H 0.72224 0.5072 0.1445 0.0
H562 H 0.65191 0.58536 0.14447 0.0
H563 H 0.67752 0.50085 0.05153 0.0
H564 H 0.58159 0.49198 0.96926 0.0
H565 H 0.62553 0.49642 0.06714 0.0
H566 H 0.63537 0.58212 0.9705 0.0
H567 H 0.59155 0.57737 0.87221 0.0
C568 C 0.69246 0.57146 0.19739 0.0
C569 C 0.71296 0.5498 0.19821 0.0
C570 C 0.66698 0.56804 0.1435 0.0
C571 C 0.66102 0.54271 0.08898 0.0
C572 C 0.68113 0.5206 0.09288 0.0
C573 C 0.70676 0.52414 0.14652 0.0
C574 C 0.59341 0.51162 0.96806 0.0
C575 C 0.58341 0.53413 0.91145 0.0
C576 C 0.61864 0.51419 0.02418 0.0
C577 C 0.63424 0.53966 0.02741 0.0
C578 C 0.62393 0.56227 0.97114 0.0
C579 C 0.59897 0.55949 0.91366 0.0
H580 H 0.97289 0.69396 0.28128 0.0
H581 H 0.0455 0.73251 0.14621 0.0
H582 H 0.98142 0.65021 0.18221 0.0
H583 H 0.05514 0.688 0.05094 0.0
H584 H 0.07343 0.58914 0.98058 0.0
H585 H 0.06715 0.63311 0.08177 0.0
H586 H 0.97992 0.63727 0.98605 0.0
H587 H 0.9866 0.59388 0.88198 0.0
C588 C 0.99087 0.69304 0.23104 0.0
C589 C 1.00825 0.71708 0.22122 0.0
C590 C 0.99578 0.66788 0.1741 0.0
C591 C 1.01877 0.66551 0.10711 0.0
C592 C 0.0372 0.68897 0.10147 0.0
C593 C 0.03185 0.71445 0.1569 0.0
C594 C 0.05305 0.59973 0.97984 0.0
C595 C 0.03073 0.58829 0.92112 0.0
C596 C 0.04942 0.62494 0.0381 0.0
C597 C 1.02302 0.63895 0.04247 0.0
C598 C 1.00054 0.62715 0.98496 0.0
C599 C 1.00441 0.60238 0.92448 0.0
H600 H 0.11732 0.24363 0.02533 0.0
H601 H 0.09186 0.273 0.32022 0.0
H602 H 0.12328 0.19583 0.0877 0.0
H603 H 0.09981 0.22676 0.38369 0.0
H604 H 0.07001 0.14863 0.46651 0.0
H605 H 0.11096 0.17613 0.41112 0.0
H606 H 0.07384 0.17949 0.11631 0.0
H607 H 0.03316 0.15301 0.17218 0.0
C608 C 0.11431 0.24017 0.10415 0.0
C609 C 0.10239 0.26137 0.16667 0.0
C610 C 0.11837 0.21302 0.14048 0.0
C611 C 0.11043 0.20726 0.23937 0.0
C612 C 0.10543 0.23018 0.30646 0.0
C613 C 0.10072 0.25694 0.26983 0.0
C614 C 0.07129 0.15454 0.38901 0.0
C615 C 0.04822 0.14981 0.32405 0.0
C616 C 0.09477 0.16998 0.35709 0.0
C617 C 0.09527 0.18065 0.25996 0.0
C618 C 0.0739 0.17222 0.19209 0.0
C619 C 0.05043 0.15724 0.22408 0.0
H620 H 0.32949 0.12936 0.9999 0.0
H621 H 0.3016 0.10222 0.28796 0.0
H622 H 0.37806 0.13356 0.06413 0.0
H623 H 0.34888 0.10814 0.35382 0.0
H624 H 0.41872 0.04144 0.13281 0.0
H625 H 0.39333 0.08326 0.08317 0.0
H626 H 0.4005 0.11885 0.38365 0.0
H627 H 0.42766 0.07714 0.43219 0.0
C628 C 0.33352 0.12565 0.07805 0.0
C629 C 0.31246 0.1138 0.13755 0.0
C630 C 0.36113 0.12865 0.11551 0.0
C631 C 0.3675 0.11972 0.21252 0.0
C632 C 0.34493 0.11457 0.278 0.0
C633 C 0.31765 0.11099 0.24009 0.0
C634 C 0.41572 0.05865 0.1873 0.0
C635 C 0.42429 0.05587 0.28671 0.0
C636 C 0.40139 0.08278 0.15877 0.0
C637 C 0.39411 0.10398 0.23021 0.0
C638 C 0.40575 0.10278 0.32705 0.0
C639 C 0.42097 0.07883 0.35504 0.0
H640 H 0.48583 0.32452 0.30107 0.0
H641 H 0.45488 0.3276 0.99847 0.0
H642 H 0.48093 0.37558 0.32055 0.0
H643 H 0.45131 0.37931 1.01535 0.0
H644 H 0.52585 0.44983 0.05767 0.0
H645 H 0.49778 0.40719 0.03043 0.0
H646 H 0.45449 0.42311 0.31051 0.0
H647 H 0.48198 0.46656 0.33712 0.0
C648 C 0.47656 0.33606 0.24049 0.0
C649 C 0.47123 0.32243 0.14778 0.0
C650 C 0.47381 0.36536 0.25129 0.0
C651 C 0.46614 0.38143 0.16885 0.0
C652 C 0.45741 0.36739 0.07984 0.0
C653 C 0.45958 0.33794 0.06998 0.0
C654 C 0.50953 0.44497 0.1115 0.0
C655 C 0.5067 0.46102 0.20106 0.0
C656 C 0.49345 0.42049 0.09577 0.0
C657 C 0.47443 0.41159 0.16919 0.0
C658 C 0.46922 0.4294 0.25318 0.0
C659 C 0.48511 0.45407 0.26863 0.0
H660 H 0.24654 0.46472 0.02282 0.0
H661 H 0.24978 0.50202 0.32066 0.0
H662 H 0.195 0.45896 0.03793 0.0
H663 H 0.19887 0.49495 0.3387 0.0
H664 H 0.10713 0.4885 0.34952 0.0
H665 H 0.15246 0.46391 0.32747 0.0
H666 H 0.16512 0.50544 0.04899 0.0
H667 H 0.12094 0.53129 0.07271 0.0
C668 C 0.23634 0.47027 0.09326 0.0
C669 C 0.25175 0.48415 0.17015 0.0
C670 C 0.20701 0.46689 0.10206 0.0
C671 C 0.19301 0.47666 0.18922 0.0
C672 C 0.20915 0.48693 0.27108 0.0
C673 C 0.23829 0.49094 0.26114 0.0
C674 C 0.11939 0.492 0.28254 0.0
C675 C 0.111 0.5126 0.21463 0.0
C676 C 0.14511 0.47767 0.26959 0.0
C677 C 0.16238 0.48319 0.18718 0.0
C678 C 0.15219 0.50095 0.11306 0.0
C679 C 0.12682 0.51575 0.12682 0.0
H680 H 0.97078 0.79447 0.08571 0.0
H681 H 0.94408 0.82737 0.37494 0.0
H682 H 0.96293 0.83988 1.01471 0.0
H683 H 0.93912 0.87448 0.30545 0.0
H684 H 0.03338 0.90914 0.20152 0.0
H685 H 0.99176 0.88659 0.26945 0.0
H686 H 0.94935 0.89212 0.98439 0.0
H687 H 0.99044 0.91782 0.91929 0.0
C688 C 0.96185 0.81117 0.13328 0.0
C689 C 0.95953 0.80792 0.23694 0.0
C690 C 0.95709 0.83737 0.0923 0.0
C691 C 0.95188 0.86104 0.15569 0.0
C692 C 0.94386 0.85661 0.25541 0.0
C693 C 0.94756 0.82992 0.29585 0.0
C694 C 1.01473 0.9064 0.15466 0.0
C695 C 1.01508 0.91445 0.05513 0.0
C696 C 0.99073 0.8939 0.19381 0.0
C697 C 0.96758 0.88695 0.13157 0.0
C698 C 0.96687 0.89737 0.03414 0.0
C699 C 0.99049 0.91146 0.99643 0.0
H700 H 0.76072 0.92502 0.2232 0.0
H701 H 0.72986 1.01089 0.22543 0.0
H702 H 0.71736 0.90912 0.13287 0.0
H703 H 0.68653 0.99523 0.14393 0.0
H704 H 0.6149 0.98351 0.06993 0.0
H705 H 0.64153 0.95287 0.1761 0.0
H706 H 0.7006 0.93499 0.93765 0.0
H707 H 0.67263 0.96357 0.82626 0.0
C708 C 0.74433 0.94023 0.2067 0.0
C709 C 0.74818 0.96908 0.23231 0.0
C710 C 0.71959 0.93114 0.15656 0.0
C711 C 0.69829 0.95079 0.13486 0.0
C712 C 0.70212 0.97943 0.16317 0.0
C713 C 0.72691 0.98848 0.2096 0.0
C714 C 0.63235 0.9717 0.03667 0.0
C715 C 0.64335 0.97823 0.94213 0.0
C716 C 0.64752 0.95375 0.09813 0.0
C717 C 0.67435 0.94402 0.06723 0.0
C718 C 0.68063 0.94363 0.96471 0.0
C719 C 0.665 0.96078 0.90169 0.0
H720 H 0.60996 0.74422 0.41697 0.0
H721 H 0.57918 0.74916 0.11465 0.0
H722 H 0.61232 0.69248 0.39759 0.0
H723 H 0.5829 0.69806 0.09273 0.0
H724 H 0.58087 0.60683 0.07194 0.0
H725 H 0.60857 0.65008 0.10012 0.0
H726 H 0.56543 0.66534 0.38087 0.0
H727 H 0.53716 0.6229 0.35211 0.0
C728 C 0.60506 0.73426 0.34497 0.0
C729 C 0.59384 0.75036 0.26791 0.0
C730 C 0.60652 0.7048 0.33372 0.0
C731 C 0.59751 0.69129 0.24403 0.0
C732 C 0.59023 0.70786 0.16245 0.0
C733 C 0.58818 0.73718 0.17464 0.0
C734 C 0.57779 0.61915 0.14082 0.0
C735 C 0.55622 0.61204 0.2083 0.0
C736 C 0.5938 0.64371 0.15717 0.0
C737 C 0.58874 0.66125 0.24196 0.0
C738 C 0.56965 0.65225 0.31495 0.0
C739 C 0.55345 0.62787 0.29836 0.0
H740 H 0.81278 0.57081 0.09491 0.0
H741 H 0.81527 0.60551 0.39647 0.0
H742 H 0.86362 0.57846 0.07863 0.0
H743 H 0.86675 0.61202 0.38285 0.0
H744 H 0.9548 0.58409 0.06822 0.0
H745 H 0.90953 0.6087 0.09157 0.0
H746 H 0.89745 0.56697 0.3702 0.0
H747 H 0.94181 0.54147 0.34569 0.0
C748 C 0.82409 0.58149 0.15575 0.0
C749 C 0.81044 0.58736 0.24707 0.0
C750 C 0.8532 0.58584 0.14683 0.0
C751 C 0.86914 0.59557 0.22998 0.0
C752 C 0.85492 0.60448 0.31775 0.0
C753 C 0.82561 0.60071 0.32567 0.0
C754 C 0.94273 0.58068 0.13568 0.0
C755 C 0.95133 0.56017 0.2035 0.0
C756 C 0.91702 0.59495 0.1493 0.0
C757 C 0.89985 0.5893 0.23191 0.0
C758 C 0.91026 0.57158 0.30589 0.0
C759 C 0.93572 0.55698 0.29172 0.0
H760 H 0.07909 0.25816 0.90632 0.0
H761 H 1.02306 0.23897 0.14792 0.0
H762 H 0.07095 0.21115 0.82942 0.0
H763 H 1.0141 0.19202 0.07124 0.0
H764 H 0.98805 0.11403 0.87984 0.0
H765 H 0.99527 0.16111 0.95386 0.0
H766 H 0.0795 0.1627 0.82733 0.0
H767 H 0.07141 0.11559 0.74923 0.0
C768 C 0.06468 0.24389 0.94247 0.0
C769 C 0.05181 0.25252 0.03357 0.0
C770 C 0.06019 0.21656 0.89887 0.0
C771 C 0.04216 0.19669 0.94361 0.0
C772 C 0.02813 0.20609 0.03272 0.0
C773 C 0.03313 0.23329 0.07735 0.0
C774 C 1.00827 0.12429 0.86809 0.0
C775 C 0.02926 0.11037 0.80943 0.0
C776 C 1.01256 0.15159 0.91159 0.0
C777 C 0.03807 0.16665 0.89806 0.0
C778 C 0.05927 0.15258 0.83941 0.0
C779 C 0.05488 0.12511 0.79538 0.0
H780 H 0.32964 0.03246 0.11308 0.0
H781 H 0.31669 0.09112 0.87847 0.0
H782 H 0.37643 1.02011 0.04367 0.0
H783 H 0.36361 0.0797 0.80967 0.0
H784 H 0.45944 0.07395 0.75459 0.0
H785 H 0.41323 0.08534 0.83049 0.0
H786 H 0.40473 0.99866 0.91806 0.0
H787 H 0.45105 0.98782 0.84532 0.0
C788 C 0.33669 0.04247 0.04579 0.0
C789 C 0.31938 0.06289 1.00169 0.0
C790 C 0.36371 0.0355 1.00562 0.0
C791 C 0.37469 0.04919 0.92109 0.0
C792 C 0.35676 0.06907 0.87594 0.0
C793 C 0.3296 0.07554 0.91491 0.0
C794 C 0.44797 0.05751 0.79198 0.0
C795 C 0.45943 0.03001 0.79472 0.0
C796 C 0.42106 0.06388 0.83443 0.0
C797 C 0.40444 0.04293 0.88038 0.0
C798 C 0.41644 1.01565 0.88483 0.0
C799 C 0.44322 1.00934 0.84249 0.0
H800 H 0.49488 0.3005 0.87097 0.0
H801 H 0.54084 0.33349 0.12686 0.0
H802 H 0.50354 0.34461 0.78352 0.0
H803 H 0.55002 0.37754 0.04009 0.0
H804 H 0.57476 0.44918 0.83091 0.0
H805 H 0.57319 0.40148 0.89715 0.0
H806 H 0.48544 0.39399 0.80812 0.0
H807 H 0.48705 0.44162 0.74231 0.0
C808 C 0.50787 0.31679 0.90673 0.0
C809 C 0.51772 0.31329 1.00482 0.0
C810 C 0.51247 0.34229 0.85749 0.0
C811 C 0.52742 0.36493 0.9045 0.0
C812 C 0.53876 0.36062 1.00056 0.0
C813 C 0.53373 0.33529 0.05027 0.0
C814 C 0.55531 0.43716 0.82339 0.0
C815 C 0.53116 0.44928 0.77966 0.0
C816 C 0.55432 0.40981 0.86242 0.0
C817 C 0.52928 0.39349 0.85733 0.0
C818 C 0.5053 0.40549 0.8118 0.0
C819 C 0.50616 0.43299 0.77457 0.0
H820 H 0.26905 0.50464 0.89364 0.0
H821 H 0.23727 0.55343 0.14616 0.0
H822 H 0.22367 0.51067 0.806 0.0
H823 H 0.19195 0.56005 0.05896 0.0
H824 H 0.11786 0.58047 0.84512 0.0
H825 H 0.16606 0.58059 0.91405 0.0
H826 H 0.1746 0.49211 0.8304 0.0
H827 H 0.12639 0.49201 0.76221 0.0
C828 C 0.2527 0.51765 0.92862 0.0
C829 C 0.25704 0.52916 0.02578 0.0
C830 C 0.22647 0.52075 0.87923 0.0
C831 C 0.20382 0.53582 0.92499 0.0
C832 C 0.20882 0.54865 0.02024 0.0
C833 C 0.2349 0.54509 0.07021 0.0
C834 C 0.13016 0.56117 0.83949 0.0
C835 C 0.11814 0.53635 0.79627 0.0
C836 C 0.15783 0.56116 0.8801 0.0
C837 C 0.17467 0.53645 0.87716 0.0
C838 C 0.16273 0.51174 0.83251 0.0
C839 C 0.13489 0.51162 0.79385 0.0
H840 H 0.97971 0.81241 0.5043 0.0
H841 H 0.03819 0.82796 0.26623 0.0
H842 H 0.98886 0.85974 0.57773 0.0
H843 H 0.04805 0.8752 0.33929 0.0
H844 H 0.07715 0.95176 0.53204 0.0
H845 H 0.06799 0.90482 0.46006 0.0
H846 H 0.9822 0.90901 0.57249 0.0
H847 H 0.9921 0.95615 0.64835 0.0
C848 C 0.99486 0.82593 0.46824 0.0
C849 C 1.00818 0.81621 0.37922 0.0
C850 C 0.99994 0.85341 0.50976 0.0
C851 C 1.01903 0.87227 0.46496 0.0
C852 C 0.03332 0.86183 0.37783 0.0
C853 C 0.02777 0.8345 0.33531 0.0
C854 C 0.05617 0.94284 0.54104 0.0
C855 C 0.03529 0.95838 0.59498 0.0
C856 C 0.05078 0.91565 0.49868 0.0
C857 C 1.02422 0.90227 0.50893 0.0
C858 C 1.00313 0.9179 0.56302 0.0
C859 C 1.00862 0.94534 0.60576 0.0
H860 H 0.75475 0.05093 0.40684 0.0
H861 H 0.73865 0.96218 0.43998 0.0
H862 H 0.70929 0.06226 0.48535 0.0
H863 H 0.6921 0.97286 0.50935 0.0
H864 H 0.61088 0.99766 0.67566 0.0
H865 H 0.6594 0.98688 0.62259 0.0
H866 H 0.6623 0.06581 0.46784 0.0
H867 H 0.61479 0.07692 0.52697 0.0
C868 C 0.74174 0.03379 0.43261 0.0
C869 C 0.75073 1.0056 0.41729 0.0
C870 C 0.71499 0.04019 0.47561 0.0
C871 C 0.69583 1.01862 0.50304 0.0
C872 C 0.70561 0.99044 0.49125 0.0
C873 C 0.73255 0.98416 0.45058 0.0
C874 C 0.62194 1.01256 0.6298 0.0
C875 C 0.60861 0.03799 0.60435 0.0
C876 C 0.65002 1.00639 0.59859 0.0
C877 C 0.66575 0.02532 0.53978 0.0
C878 C 0.65197 0.0507 0.5146 0.0
C879 C 0.62426 0.05705 0.54756 0.0
H880 H 0.57018 0.772 0.545 0.0
H881 H 0.52413 0.74027 0.28744 0.0
H882 H 0.56081 0.72778 0.63084 0.0
H883 H 0.51427 0.6961 0.37259 0.0
H884 H 0.48873 0.62391 0.57896 0.0
H885 H 0.49077 0.67177 0.51399 0.0
H886 H 0.57841 0.67843 0.60521 0.0
H887 H 0.57631 0.6307 0.66979 0.0
C888 C 0.55702 0.75597 0.50852 0.0
C889 C 0.54735 0.75987 0.41043 0.0
C890 C 0.55201 0.7304 0.55684 0.0
C891 C 0.53686 0.70806 0.50887 0.0
C892 C 0.52568 0.71277 0.41283 0.0
C893 C 0.5311 0.73819 0.36405 0.0
C894 C 0.50824 0.63579 0.5872 0.0
C895 C 0.53222 0.62341 0.63118 0.0
C896 C 0.50952 0.66323 0.54891 0.0
C897 C 0.53467 0.67937 0.55503 0.0
C898 C 0.55847 0.66709 0.60076 0.0
C899 C 0.55733 0.63953 0.63729 0.0
H900 H 0.82585 0.51851 0.26274 0.0
H901 H 0.79267 0.56363 0.52117 0.0
H902 H 0.87104 0.51145 0.35033 0.0
H903 H 0.83787 0.55708 0.60943 0.0
H904 H 0.93461 0.57633 0.66118 0.0
H905 H 0.88669 0.57654 0.59069 0.0
H906 H 0.89676 0.48931 0.49232 0.0
H907 H 0.94473 0.48914 0.5634 0.0
C908 C 0.8279 0.52592 0.3399 0.0
C909 C 0.80541 0.54095 0.38597 0.0
C910 C 0.85389 0.5221 0.39013 0.0
C911 C 0.85842 0.53374 0.48744 0.0
C912 C 0.83543 0.54792 0.53462 0.0
C913 C 0.8093 0.5513 0.48483 0.0
C914 C 0.9265 0.55703 0.6258 0.0
C915 C 0.94359 0.53257 0.6199 0.0
C916 C 0.89883 0.55709 0.58578 0.0
C917 C 0.88741 0.53284 0.53633 0.0
C918 C 0.90459 0.50838 0.52999 0.0
C919 C 0.93211 0.50817 0.57188 0.0
loop_
_geom_bond_atom_site_label_1
_geom_bond_atom_site_label_2
_geom_bond_distance
_geom_bond_site_symmetry_2
_ccdc_geom_bond_type
C0 N1 1.317 . S
C0 N2 1.348 . S
C0 C3 1.485 . S
N1 C0 1.317 . S
N1 N5 1.370 . S
N2 C0 1.348 . S
N2 C4 1.346 . S
C3 C0 1.485 . S
C3 H7 0.960 . S
C3 H8 0.961 . S
C3 H9 0.960 . S
C4 N2 1.346 . S
C4 N5 1.307 . S
C4 C6 1.486 . S
N5 N1 1.370 . S
N5 C4 1.307 . S
C6 C4 1.486 . S
C6 H10 0.960 . S
C6 H11 0.960 . S
C6 H12 0.959 . S
H7 C3 0.960 . S
H8 C3 0.961 . S
H9 C3 0.960 . S
H10 C6 0.960 . S
H11 C6 0.960 . S
H12 C6 0.959 . S
C13 N14 1.317 . S
C13 N15 1.348 . S
C13 C16 1.485 . S
N14 C13 1.317 . S
N14 N18 1.370 . S
N15 C13 1.348 . S
N15 C17 1.346 . S
C16 C13 1.485 . S
C16 H20 0.960 . S
C16 H21 0.961 . S
C16 H22 0.960 . S
C17 N15 1.346 . S
C17 N18 1.307 . S
C17 C19 1.486 . S
N18 N14 1.370 . S
N18 C17 1.307 . S
C19 C17 1.486 . S
C19 H23 0.960 . S
C19 H24 0.960 . S
C19 H25 0.959 . S
H20 C16 0.960 . S
H21 C16 0.961 . S
H22 C16 0.960 . S
H23 C19 0.960 . S
H24 C19 0.960 . S
H25 C19 0.959 . S
C26 N27 1.317 . S
C26 N28 1.348 . S
C26 C29 1.485 . S
N27 C26 1.317 . S
N27 N31 1.370 . S
N28 C26 1.348 . S
N28 C30 1.346 . S
C29 C26 1.485 . S
C29 H33 0.960 . S
C29 H34 0.961 . S
C29 H35 0.960 . S
C30 N28 1.346 . S
C30 N31 1.307 . S
C30 C32 1.486 . S
N31 N27 1.370 . S
N31 C30 1.307 . S
C32 C30 1.486 . S
C32 H36 0.960 . S
C32 H37 0.960 . S
C32 H38 0.959 . S
H33 C29 0.960 . S
H34 C29 0.961 . S
H35 C29 0.960 . S
H36 C32 0.960 . S
H37 C32 0.960 . S
H38 C32 0.959 . S
C39 N40 1.317 . S
C39 N41 1.348 . S
C39 C42 1.485 . S
N40 C39 1.317 . S
N40 N44 1.370 . S
N41 C39 1.348 . S
N41 C43 1.346 . S
C42 C39 1.485 . S
C42 H46 0.960 . S
C42 H47 0.961 . S
C42 H48 0.960 . S
C43 N41 1.346 . S
C43 N44 1.307 . S
C43 C45 1.486 . S
N44 N40 1.370 . S
N44 C43 1.307 . S
C45 C43 1.486 . S
C45 H49 0.960 . S
C45 H50 0.960 . S
C45 H51 0.959 . S
H46 C42 0.960 . S
H47 C42 0.961 . S
H48 C42 0.960 . S
H49 C45 0.960 . S
H50 C45 0.960 . S
H51 C45 0.959 . S
C52 N53 1.317 . S
C52 N54 1.348 1_556 S
C52 C55 1.485 . S
N53 C52 1.317 . S
N53 N57 1.370 1_556 S
N54 C52 1.348 1_554 S
N54 C56 1.346 . S
C55 C52 1.485 . S
C55 H59 0.960 . S
C55 H60 0.961 . S
C55 H61 0.960 . S
C56 N54 1.346 . S
C56 N57 1.307 . S
C56 C58 1.486 . S
N57 N53 1.370 1_554 S
N57 C56 1.307 . S
C58 C56 1.486 . S
C58 H62 0.960 . S
C58 H63 0.960 . S
C58 H64 0.959 . S
H59 C55 0.960 . S
H60 C55 0.961 . S
H61 C55 0.960 . S
H62 C58 0.960 . S
H63 C58 0.960 . S
H64 C58 0.959 . S
C65 N66 1.317 . S
C65 N67 1.348 1_556 S
C65 C68 1.485 . S
N66 C65 1.317 . S
N66 N70 1.370 1_556 S
N67 C65 1.348 1_554 S
N67 C69 1.346 . S
C68 C65 1.485 . S
C68 H72 0.960 . S
C68 H73 0.961 . S
C68 H74 0.960 . S
C69 N67 1.346 . S
C69 N70 1.307 . S
C69 C71 1.486 . S
N70 N66 1.370 1_554 S
N70 C69 1.307 . S
C71 C69 1.486 . S
C71 H75 0.960 . S
C71 H76 0.960 . S
C71 H77 0.959 . S
H72 C68 0.960 . S
H73 C68 0.961 . S
H74 C68 0.960 . S
H75 C71 0.960 . S
H76 C71 0.960 . S
H77 C71 0.959 . S
C78 N79 1.317 . S
C78 N80 1.348 1_556 S
C78 C81 1.485 . S
N79 C78 1.317 . S
N79 N83 1.370 1_556 S
N80 C78 1.348 1_554 S
N80 C82 1.346 . S
C81 C78 1.485 . S
C81 H85 0.960 . S
C81 H86 0.961 . S
C81 H87 0.960 . S
C82 N80 1.346 . S
C82 N83 1.307 . S
C82 C84 1.486 . S
N83 N79 1.370 1_554 S
N83 C82 1.307 . S
C84 C82 1.486 . S
C84 H88 0.960 . S
C84 H89 0.960 . S
C84 H90 0.959 . S
H85 C81 0.960 . S
H86 C81 0.961 . S
H87 C81 0.960 . S
H88 C84 0.960 . S
H89 C84 0.960 . S
H90 C84 0.959 . S
C91 N92 1.317 . S
C91 N93 1.348 1_556 S
C91 C94 1.485 . S
N92 C91 1.317 . S
N92 N96 1.370 1_556 S
N93 C91 1.348 1_554 S
N93 C95 1.346 . S
C94 C91 1.485 . S
C94 H98 0.960 . S
C94 H99 0.961 . S
C94 H100 0.960 . S
C95 N93 1.346 . S
C95 N96 1.307 . S
C95 C97 1.486 . S
N96 N92 1.370 1_554 S
N96 C95 1.307 . S
C97 C95 1.486 . S
C97 H101 0.960 . S
C97 H102 0.960 . S
C97 H103 0.959 . S
H98 C94 0.960 . S
H99 C94 0.961 . S
H100 C94 0.960 . S
H101 C97 0.960 . S
H102 C97 0.960 . S
H103 C97 0.959 . S
Eu104 N135 2.657 1_565 S
Eu104 N142 2.609 1_565 S
Eu104 O148 2.558 . S
Eu104 O149 2.612 1_455 S
Eu104 O151 2.339 1_455 S
Eu104 O152 2.563 . S
Eu104 O153 2.419 . S
Eu104 O155 2.380 1_565 S
Eu104 O156 2.432 . S
Eu104 C168 2.848 . S
C105 C108 1.429 1_545 S
C105 C109 1.411 1_545 S
C105 N112 1.377 . S
C106 C108 1.420 . S
C106 C110 1.423 . S
C106 C118 1.392 . S
C107 C109 1.420 . S
C107 C110 1.351 . S
C107 H130 0.931 . S
C108 C105 1.429 1_565 S
C108 C106 1.420 . S
C108 N116 1.362 . S
C109 C105 1.411 1_565 S
C109 C107 1.420 . S
C109 C114 1.395 1_565 S
C110 C106 1.423 . S
C110 C107 1.351 . S
C110 H122 0.930 . S
C111 C113 1.400 . S
C111 C114 1.386 . S
C111 H123 0.930 . S
N112 C105 1.377 . S
N112 C113 1.321 . S
N112 Eu115 2.609 . S
C113 C111 1.400 . S
C113 N112 1.321 . S
C113 H120 0.930 . S
C114 C109 1.395 1_545 S
C114 C111 1.386 . S
C114 H133 0.930 . S
Eu115 N112 2.609 . S
Eu115 N116 2.657 1_545 S
Eu115 O149 2.380 1_545 S
Eu115 O150 2.432 . S
Eu115 O154 2.558 . S
Eu115 O155 2.612 1_655 S
Eu115 O157 2.339 1_655 S
Eu115 O158 2.563 1_655 S
Eu115 O159 2.419 . S
Eu115 C179 2.848 . S
N116 C108 1.362 . S
N116 Eu115 2.657 1_565 S
N116 C117 1.334 1_655 S
C117 N116 1.334 1_455 S
C117 C119 1.413 . S
C117 H124 0.929 . S
C118 C106 1.392 . S
C118 C119 1.367 1_655 S
C118 H126 0.930 . S
C119 C117 1.413 . S
C119 C118 1.367 1_455 S
C119 H121 0.930 . S
H120 C113 0.930 . S
H121 C119 0.930 . S
H122 C110 0.930 . S
H123 C111 0.930 . S
H124 C117 0.929 . S
H125 C139 0.930 1_655 S
H126 C118 0.930 . S
H127 C145 0.930 . S
H128 C136 0.929 1_655 S
H129 C143 0.930 . S
H130 C107 0.931 . S
H131 C137 0.930 . S
H132 C170 0.930 . S
H133 C114 0.930 . S
H134 C169 0.931 . S
N135 Eu104 2.657 1_545 S
N135 C136 1.334 . S
N135 C140 1.362 . S
C136 H128 0.929 1_455 S
C136 N135 1.334 . S
C136 C139 1.413 1_556 S
C137 H131 0.930 . S
C137 C138 1.392 . S
C137 C139 1.367 . S
C138 C137 1.392 . S
C138 C140 1.420 1_554 S
C138 C170 1.423 . S
C139 H125 0.930 1_455 S
C139 C136 1.413 1_554 S
C139 C137 1.367 . S
C140 N135 1.362 . S
C140 C138 1.420 1_556 S
C140 C144 1.429 . S
H141 C146 0.930 . S
N142 Eu104 2.609 1_545 S
N142 C144 1.377 . S
N142 C145 1.321 1_545 S
C143 H129 0.930 . S
C143 C145 1.400 . S
C143 C146 1.386 1_565 S
C144 C140 1.429 . S
C144 N142 1.377 . S
C144 C147 1.411 . S
C145 H127 0.930 . S
C145 N142 1.321 1_565 S
C145 C143 1.400 . S
C146 H141 0.930 . S
C146 C143 1.386 1_545 S
C146 C147 1.395 . S
C147 C144 1.411 . S
C147 C146 1.395 . S
C147 C169 1.420 1_556 S
O148 Eu104 2.558 . S
O148 C168 1.257 . S
O149 Eu104 2.612 1_655 S
O149 Eu115 2.380 1_565 S
O149 C160 1.276 . S
O150 Eu115 2.432 . S
O150 C167 1.264 . S
O151 Eu104 2.339 1_655 S
O151 C167 1.254 1_565 S
O152 Eu104 2.563 . S
O152 C160 1.235 1_455 S
O153 Eu104 2.419 . S
O153 C168 1.249 . S
O154 Eu115 2.558 . S
O154 C179 1.257 . S
O155 Eu104 2.380 1_545 S
O155 Eu115 2.612 1_455 S
O155 C171 1.276 . S
O156 Eu104 2.432 . S
O156 C178 1.264 1_565 S
O157 Eu115 2.339 1_455 S
O157 C178 1.254 . S
O158 Eu115 2.563 1_455 S
O158 C171 1.235 . S
O159 Eu115 2.419 . S
O159 C179 1.249 . S
C160 O149 1.276 . S
C160 O152 1.235 1_655 S
C161 C163 1.393 . S
C161 C165 1.395 . S
C161 C168 1.492 . S
C162 C163 1.392 1_554 S
C162 C164 1.386 . S
C163 C161 1.393 . S
C163 C162 1.392 1_556 S
C163 H180 0.930 . S
C164 C162 1.386 . S
C164 C166 1.395 . S
C164 H181 0.930 . S
C165 C161 1.395 . S
C165 C166 1.379 1_556 S
C165 H182 0.930 . S
C166 C164 1.395 . S
C166 C165 1.379 1_554 S
C166 H183 0.930 . S
C167 O150 1.264 . S
C167 O151 1.254 1_545 S
C168 Eu104 2.848 . S
C168 O148 1.257 . S
C168 O153 1.249 . S
C168 C161 1.492 . S
C169 H134 0.931 . S
C169 C147 1.420 1_554 S
C169 C170 1.351 . S
C170 H132 0.930 . S
C170 C138 1.423 . S
C170 C169 1.351 . S
C171 O155 1.276 . S
C171 O158 1.235 . S
C172 C173 1.393 . S
C172 C176 1.395 . S
C172 C179 1.492 . S
C173 C172 1.393 . S
C173 C174 1.392 . S
C173 H184 0.930 1_655 S
C174 C173 1.392 . S
C174 C175 1.386 . S
C175 C174 1.386 . S
C175 C177 1.395 . S
C175 H185 0.930 . S
C176 C172 1.395 . S
C176 C177 1.379 . S
C176 H186 0.930 . S
C177 C175 1.395 . S
C177 C176 1.379 . S
C177 H187 0.930 . S
C178 O156 1.264 1_545 S
C178 O157 1.254 . S
C179 Eu115 2.848 . S
C179 O154 1.257 . S
C179 O159 1.249 . S
C179 C172 1.492 . S
H180 C163 0.930 . S
H181 C164 0.930 . S
H182 C165 0.930 . S
H183 C166 0.930 . S
H184 C173 0.930 1_455 S
H185 C175 0.930 . S
H186 C176 0.930 . S
H187 C177 0.930 . S
Eu188 N219 2.657 . S
Eu188 N226 2.609 . S
Eu188 O232 2.558 . S
Eu188 O233 2.612 1_545 S
Eu188 O235 2.339 1_545 S
Eu188 O236 2.563 . S
Eu188 O237 2.419 . S
Eu188 O239 2.380 . S
Eu188 O240 2.432 . S
Eu188 C252 2.848 . S
C189 C192 1.429 . S
C189 C193 1.411 . S
C189 N196 1.377 . S
C190 C192 1.420 . S
C190 C194 1.423 . S
C190 C202 1.392 . S
C191 C193 1.420 . S
C191 C194 1.351 . S
C191 H214 0.931 . S
C192 C189 1.429 . S
C192 C190 1.420 . S
C192 N200 1.362 . S
C193 C189 1.411 . S
C193 C191 1.420 . S
C193 C198 1.395 . S
C194 C190 1.423 . S
C194 C191 1.351 . S
C194 H206 0.930 . S
C195 C197 1.400 . S
C195 C198 1.386 . S
C195 H207 0.930 . S
N196 C189 1.377 . S
N196 C197 1.321 . S
N196 Eu199 2.609 . S
C197 C195 1.400 . S
C197 N196 1.321 . S
C197 H204 0.930 . S
C198 C193 1.395 . S
C198 C195 1.386 . S
C198 H217 0.930 . S
Eu199 N196 2.609 . S
Eu199 N200 2.657 . S
Eu199 O233 2.380 . S
Eu199 O234 2.432 . S
Eu199 O238 2.558 . S
Eu199 O239 2.612 1_565 S
Eu199 O241 2.339 1_565 S
Eu199 O242 2.563 1_565 S
Eu199 O243 2.419 . S
Eu199 C263 2.848 . S
N200 C192 1.362 . S
N200 Eu199 2.657 . S
N200 C201 1.334 1_565 S
C201 N200 1.334 1_545 S
C201 C203 1.413 . S
C201 H208 0.929 . S
C202 C190 1.392 . S
C202 C203 1.367 1_565 S
C202 H210 0.930 . S
C203 C201 1.413 . S
C203 C202 1.367 1_545 S
C203 H205 0.930 . S
H204 C197 0.930 . S
H205 C203 0.930 . S
H206 C194 0.930 . S
H207 C195 0.930 . S
H208 C201 0.929 . S
H209 C223 0.930 1_565 S
H210 C202 0.930 . S
H211 C229 0.930 . S
H212 C220 0.929 1_565 S
H213 C227 0.930 . S
H214 C191 0.931 . S
H215 C221 0.930 . S
H216 C254 0.930 . S
H217 C198 0.930 . S
H218 C253 0.931 . S
N219 Eu188 2.657 . S
N219 C220 1.334 . S
N219 C224 1.362 . S
C220 H212 0.929 1_545 S
C220 N219 1.334 . S
C220 C223 1.413 1_556 S
C221 H215 0.930 . S
C221 C222 1.392 . S
C221 C223 1.367 . S
C222 C221 1.392 . S
C222 C224 1.420 1_554 S
C222 C254 1.423 . S
C223 H209 0.930 1_545 S
C223 C220 1.413 1_554 S
C223 C221 1.367 . S
C224 N219 1.362 . S
C224 C222 1.420 1_556 S
C224 C228 1.429 . S
H225 C230 0.930 . S
N226 Eu188 2.609 . S
N226 C228 1.377 . S
N226 C229 1.321 . S
C227 H213 0.930 . S
C227 C229 1.400 . S
C227 C230 1.386 . S
C228 C224 1.429 . S
C228 N226 1.377 . S
C228 C231 1.411 . S
C229 H211 0.930 . S
C229 N226 1.321 . S
C229 C227 1.400 . S
C230 H225 0.930 . S
C230 C227 1.386 . S
C230 C231 1.395 . S
C231 C228 1.411 . S
C231 C230 1.395 . S
C231 C253 1.420 1_556 S
O232 Eu188 2.558 . S
O232 C252 1.257 . S
O233 Eu188 2.612 1_565 S
O233 Eu199 2.380 . S
O233 C244 1.278 . S
O234 Eu199 2.432 . S
O234 C251 1.264 . S
O235 Eu188 2.339 1_565 S
O235 C251 1.254 . S
O236 Eu188 2.563 . S
O236 C244 1.217 1_545 S
O237 Eu188 2.419 . S
O237 C252 1.249 . S
O238 Eu199 2.558 . S
O238 C263 1.257 . S
O239 Eu188 2.380 . S
O239 Eu199 2.612 1_545 S
O239 C255 1.276 . S
O240 Eu188 2.432 . S
O240 C262 1.264 . S
O241 Eu199 2.339 1_545 S
O241 C262 1.254 . S
O242 Eu199 2.563 1_545 S
O242 C255 1.235 . S
O243 Eu199 2.419 . S
O243 C263 1.249 . S
C244 O233 1.278 . S
C244 O236 1.217 1_565 S
C245 C247 1.393 . S
C245 C249 1.395 . S
C245 C252 1.492 . S
C246 C247 1.392 1_554 S
C246 C248 1.386 . S
C247 C245 1.393 . S
C247 C246 1.392 1_556 S
C247 H264 0.930 . S
C248 C246 1.386 . S
C248 C250 1.395 . S
C248 H265 0.930 . S
C249 C245 1.395 . S
C249 C250 1.379 1_556 S
C249 H266 0.930 . S
C250 C248 1.395 . S
C250 C249 1.379 1_554 S
C250 H267 0.930 . S
C251 O234 1.264 . S
C251 O235 1.254 . S
C252 Eu188 2.848 . S
C252 O232 1.257 . S
C252 O237 1.249 . S
C252 C245 1.492 . S
C253 H218 0.931 . S
C253 C231 1.420 1_554 S
C253 C254 1.351 . S
C254 H216 0.930 . S
C254 C222 1.423 . S
C254 C253 1.351 . S
C255 O239 1.276 . S
C255 O242 1.235 . S
C256 C257 1.393 . S
C256 C260 1.395 . S
C256 C263 1.492 . S
C257 C256 1.393 . S
C257 C258 1.392 . S
C257 H268 0.930 1_565 S
C258 C257 1.392 . S
C258 C259 1.386 . S
C259 C258 1.386 . S
C259 C261 1.395 . S
C259 H269 0.930 . S
C260 C256 1.395 . S
C260 C261 1.379 . S
C260 H270 0.930 . S
C261 C259 1.395 . S
C261 C260 1.379 . S
C261 H271 0.930 . S
C262 O240 1.264 . S
C262 O241 1.254 . S
C263 Eu199 2.848 . S
C263 O238 1.257 . S
C263 O243 1.249 . S
C263 C256 1.492 . S
H264 C247 0.930 . S
H265 C248 0.930 . S
H266 C249 0.930 . S
H267 C250 0.930 . S
H268 C257 0.930 1_545 S
H269 C259 0.930 . S
H270 C260 0.930 . S
H271 C261 0.930 . S
Eu272 N303 2.657 . S
Eu272 N310 2.609 . S
Eu272 O316 2.558 . S
Eu272 O317 2.612 . S
Eu272 O319 2.339 . S
Eu272 O320 2.563 . S
Eu272 O321 2.419 . S
Eu272 O323 2.380 . S
Eu272 O324 2.432 . S
Eu272 C336 2.848 . S
C273 C276 1.429 . S
C273 C277 1.411 . S
C273 N280 1.377 . S
C274 C276 1.420 . S
C274 C278 1.423 . S
C274 C286 1.392 . S
C275 C277 1.420 . S
C275 C278 1.351 . S
C275 H298 0.931 . S
C276 C273 1.429 . S
C276 C274 1.420 . S
C276 N284 1.362 . S
C277 C273 1.411 . S
C277 C275 1.420 . S
C277 C282 1.395 . S
C278 C274 1.423 . S
C278 C275 1.351 . S
C278 H290 0.930 . S
C279 C281 1.400 . S
C279 C282 1.386 . S
C279 H291 0.930 1_556 S
N280 C273 1.377 . S
N280 C281 1.321 . S
N280 Eu283 2.609 . S
C281 C279 1.400 . S
C281 N280 1.321 . S
C281 H288 0.930 . S
C282 C277 1.395 . S
C282 C279 1.386 . S
C282 H301 0.930 . S
Eu283 N280 2.609 . S
Eu283 N284 2.657 . S
Eu283 O317 2.380 . S
Eu283 O318 2.432 . S
Eu283 O322 2.558 . S
Eu283 O323 2.612 . S
Eu283 O325 2.339 . S
Eu283 O326 2.563 . S
Eu283 O327 2.419 . S
Eu283 C347 2.848 . S
N284 C276 1.362 . S
N284 Eu283 2.657 . S
N284 C285 1.334 . S
C285 N284 1.334 . S
C285 C287 1.413 . S
C285 H292 0.929 . S
C286 C274 1.392 . S
C286 C287 1.367 . S
C286 H294 0.930 . S
C287 C285 1.413 . S
C287 C286 1.367 . S
C287 H289 0.930 . S
H288 C281 0.930 . S
H289 C287 0.930 . S
H290 C278 0.930 . S
H291 C279 0.930 1_554 S
H292 C285 0.929 . S
H293 C307 0.930 . S
H294 C286 0.930 . S
H295 C313 0.930 . S
H296 C304 0.929 . S
H297 C311 0.930 . S
H298 C275 0.931 . S
H299 C305 0.930 . S
H300 C338 0.930 . S
H301 C282 0.930 . S
H302 C337 0.931 . S
N303 Eu272 2.657 . S
N303 C304 1.334 . S
N303 C308 1.362 . S
C304 H296 0.929 . S
C304 N303 1.334 . S
C304 C307 1.413 . S
C305 H299 0.930 . S
C305 C306 1.392 . S
C305 C307 1.367 . S
C306 C305 1.392 . S
C306 C308 1.420 . S
C306 C338 1.423 . S
C307 H293 0.930 . S
C307 C304 1.413 . S
C307 C305 1.367 . S
C308 N303 1.362 . S
C308 C306 1.420 . S
C308 C312 1.429 . S
H309 C314 0.930 . S
N310 Eu272 2.609 . S
N310 C312 1.377 . S
N310 C313 1.321 . S
C311 H297 0.930 . S
C311 C313 1.400 . S
C311 C314 1.386 . S
C312 C308 1.429 . S
C312 N310 1.377 . S
C312 C315 1.411 . S
C313 H295 0.930 . S
C313 N310 1.321 . S
C313 C311 1.400 . S
C314 H309 0.930 . S
C314 C311 1.386 . S
C314 C315 1.395 . S
C315 C312 1.411 . S
C315 C314 1.395 . S
C315 C337 1.420 . S
O316 Eu272 2.558 . S
O316 C336 1.257 . S
O317 Eu272 2.612 . S
O317 Eu283 2.380 . S
O317 C328 1.276 . S
O318 Eu283 2.432 . S
O318 C335 1.264 . S
O319 Eu272 2.339 . S
O319 C335 1.254 . S
O320 Eu272 2.563 . S
O320 C328 1.235 . S
O321 Eu272 2.419 . S
O321 C336 1.249 . S
O322 Eu283 2.558 . S
O322 C347 1.257 . S
O323 Eu272 2.380 . S
O323 Eu283 2.612 . S
O323 C339 1.276 . S
O324 Eu272 2.432 . S
O324 C346 1.264 . S
O325 Eu283 2.339 . S
O325 C346 1.254 . S
O326 Eu283 2.563 . S
O326 C339 1.235 . S
O327 Eu283 2.419 . S
O327 C347 1.249 . S
C328 O317 1.276 . S
C328 O320 1.235 . S
C329 C331 1.393 . S
C329 C333 1.395 . S
C329 C336 1.492 . S
C330 C331 1.392 . S
C330 C332 1.386 . S
C331 C329 1.393 . S
C331 C330 1.392 . S
C331 H348 0.930 . S
C332 C330 1.386 . S
C332 C334 1.395 . S
C332 H349 0.930 . S
C333 C329 1.395 . S
C333 C334 1.379 . S
C333 H350 0.930 . S
C334 C332 1.395 . S
C334 C333 1.379 . S
C334 H351 0.930 . S
C335 O318 1.264 . S
C335 O319 1.254 . S
C336 Eu272 2.848 . S
C336 O316 1.257 . S
C336 O321 1.249 . S
C336 C329 1.492 . S
C337 H302 0.931 . S
C337 C315 1.420 . S
C337 C338 1.351 . S
C338 H300 0.930 . S
C338 C306 1.423 . S
C338 C337 1.351 . S
C339 O323 1.276 . S
C339 O326 1.235 . S
C340 C341 1.393 . S
C340 C344 1.395 . S
C340 C347 1.492 1_554 S
C341 C340 1.393 . S
C341 C342 1.392 . S
C341 H352 0.930 1_554 S
C342 C341 1.392 . S
C342 C343 1.386 . S
C343 C342 1.386 . S
C343 C345 1.395 . S
C343 H353 0.930 . S
C344 C340 1.395 . S
C344 C345 1.379 . S
C344 H354 0.930 . S
C345 C343 1.395 . S
C345 C344 1.379 . S
C345 H355 0.930 . S
C346 O324 1.264 . S
C346 O325 1.254 . S
C347 Eu283 2.848 . S
C347 O322 1.257 . S
C347 O327 1.249 . S
C347 C340 1.492 1_556 S
H348 C331 0.930 . S
H349 C332 0.930 . S
H350 C333 0.930 . S
H351 C334 0.930 . S
H352 C341 0.930 1_556 S
H353 C343 0.930 . S
H354 C344 0.930 . S
H355 C345 0.930 . S
Eu356 N387 2.657 . S
Eu356 N394 2.609 . S
Eu356 O400 2.558 . S
Eu356 O401 2.612 . S
Eu356 O403 2.339 . S
Eu356 O404 2.563 . S
Eu356 O405 2.419 . S
Eu356 O407 2.380 . S
Eu356 O408 2.432 1_455 S
Eu356 C420 2.848 . S
C357 C360 1.429 . S
C357 C361 1.411 . S
C357 N364 1.377 . S
C358 C360 1.420 . S
C358 C362 1.423 . S
C358 C370 1.392 . S
C359 C361 1.420 . S
C359 C362 1.351 . S
C359 H382 0.931 . S
C360 C357 1.429 . S
C360 C358 1.420 . S
C360 N368 1.362 . S
C361 C357 1.411 . S
C361 C359 1.420 . S
C361 C366 1.395 1_655 S
C362 C358 1.423 . S
C362 C359 1.351 . S
C362 H374 0.930 . S
C363 C365 1.400 . S
C363 C366 1.386 . S
C363 H375 0.930 1_556 S
N364 C357 1.377 . S
N364 C365 1.321 1_655 S
N364 Eu367 2.609 . S
C365 C363 1.400 . S
C365 N364 1.321 1_455 S
C365 H372 0.930 . S
C366 C361 1.395 1_455 S
C366 C363 1.386 . S
C366 H385 0.930 . S
Eu367 N364 2.609 . S
Eu367 N368 2.657 . S
Eu367 O401 2.380 1_655 S
Eu367 O402 2.432 1_655 S
Eu367 O406 2.558 . S
Eu367 O407 2.612 1_655 S
Eu367 O409 2.339 . S
Eu367 O410 2.563 . S
Eu367 O411 2.419 . S
Eu367 C431 2.848 . S
N368 C360 1.362 . S
N368 Eu367 2.657 . S
N368 C369 1.334 . S
C369 N368 1.334 . S
C369 C371 1.413 . S
C369 H376 0.929 . S
C370 C358 1.392 . S
C370 C371 1.367 . S
C370 H378 0.930 . S
C371 C369 1.413 . S
C371 C370 1.367 . S
C371 H373 0.930 . S
H372 C365 0.930 . S
H373 C371 0.930 . S
H374 C362 0.930 . S
H375 C363 0.930 1_554 S
H376 C369 0.929 . S
H377 C391 0.930 . S
H378 C370 0.930 . S
H379 C397 0.930 . S
H380 C388 0.929 . S
H381 C395 0.930 . S
H382 C359 0.931 . S
H383 C389 0.930 . S
H384 C422 0.930 . S
H385 C366 0.930 . S
H386 C421 0.931 . S
N387 Eu356 2.657 . S
N387 C388 1.334 . S
N387 C392 1.362 . S
C388 H380 0.929 . S
C388 N387 1.334 . S
C388 C391 1.413 . S
C389 H383 0.930 . S
C389 C390 1.392 . S
C389 C391 1.367 . S
C390 C389 1.392 . S
C390 C392 1.420 . S
C390 C422 1.423 . S
C391 H377 0.930 . S
C391 C388 1.413 . S
C391 C389 1.367 . S
C392 N387 1.362 . S
C392 C390 1.420 . S
C392 C396 1.429 . S
H393 C398 0.930 . S
N394 Eu356 2.609 . S
N394 C396 1.377 . S
N394 C397 1.321 1_455 S
C395 H381 0.930 . S
C395 C397 1.400 . S
C395 C398 1.386 1_655 S
C396 C392 1.429 . S
C396 N394 1.377 . S
C396 C399 1.411 . S
C397 H379 0.930 . S
C397 N394 1.321 1_655 S
C397 C395 1.400 . S
C398 H393 0.930 . S
C398 C395 1.386 1_455 S
C398 C399 1.395 . S
C399 C396 1.411 . S
C399 C398 1.395 . S
C399 C421 1.420 . S
O400 Eu356 2.558 . S
O400 C420 1.257 . S
O401 Eu356 2.612 . S
O401 Eu367 2.380 1_455 S
O401 C412 1.276 . S
O402 Eu367 2.432 1_455 S
O402 C419 1.264 . S
O403 Eu356 2.339 . S
O403 C419 1.254 . S
O404 Eu356 2.563 . S
O404 C412 1.235 . S
O405 Eu356 2.419 . S
O405 C420 1.249 . S
O406 Eu367 2.558 . S
O406 C431 1.257 . S
O407 Eu356 2.380 . S
O407 Eu367 2.612 1_455 S
O407 C423 1.276 1_455 S
O408 Eu356 2.432 1_655 S
O408 C430 1.264 . S
O409 Eu367 2.339 . S
O409 C430 1.254 . S
O410 Eu367 2.563 . S
O410 C423 1.235 . S
O411 Eu367 2.419 . S
O411 C431 1.249 . S
C412 O401 1.276 . S
C412 O404 1.235 . S
C413 C415 1.393 . S
C413 C417 1.395 . S
C413 C420 1.492 . S
C414 C415 1.392 . S
C414 C416 1.386 . S
C415 C413 1.393 . S
C415 C414 1.392 . S
C415 H432 0.930 . S
C416 C414 1.386 . S
C416 C418 1.395 . S
C416 H433 0.930 . S
C417 C413 1.395 . S
C417 C418 1.379 . S
C417 H434 0.930 . S
C418 C416 1.395 . S
C418 C417 1.379 . S
C418 H435 0.930 . S
C419 O402 1.264 . S
C419 O403 1.254 . S
C420 Eu356 2.848 . S
C420 O400 1.257 . S
C420 O405 1.249 . S
C420 C413 1.492 . S
C421 H386 0.931 . S
C421 C399 1.420 . S
C421 C422 1.351 . S
C422 H384 0.930 . S
C422 C390 1.423 . S
C422 C421 1.351 . S
C423 O407 1.276 1_655 S
C423 O410 1.235 . S
C424 C425 1.393 . S
C424 C428 1.395 . S
C424 C431 1.492 1_554 S
C425 C424 1.393 . S
C425 C426 1.392 . S
C425 H436 0.930 1_554 S
C426 C425 1.392 . S
C426 C427 1.386 . S
C427 C426 1.386 . S
C427 C429 1.395 . S
C427 H437 0.930 . S
C428 C424 1.395 . S
C428 C429 1.379 . S
C428 H438 0.930 . S
C429 C427 1.395 . S
C429 C428 1.379 . S
C429 H439 0.930 . S
C430 O408 1.264 . S
C430 O409 1.254 . S
C431 Eu367 2.848 . S
C431 O406 1.257 . S
C431 O411 1.249 . S
C431 C424 1.492 1_556 S
H432 C415 0.930 . S
H433 C416 0.930 . S
H434 C417 0.930 . S
H435 C418 0.930 . S
H436 C425 0.930 1_556 S
H437 C427 0.930 . S
H438 C428 0.930 . S
H439 C429 0.930 . S
H440 C448 0.950 . S
H441 C453 0.950 . S
H442 C450 0.950 . S
H443 C452 0.950 . S
H444 C454 0.950 . S
H445 C456 0.950 . S
H446 C458 0.950 . S
H447 C459 0.950 . S
C448 H440 0.950 . S
C448 C449 1.386 . S
C448 C450 1.391 . S
C449 C448 1.386 . S
C449 C453 1.393 . S
C450 H442 0.950 . S
C450 C448 1.391 . S
C450 C451 1.400 . S
C451 C450 1.400 . S
C451 C452 1.398 . S
C451 C457 1.491 . S
C452 H443 0.950 . S
C452 C451 1.398 . S
C452 C453 1.391 . S
C453 H441 0.950 . S
C453 C449 1.393 . S
C453 C452 1.391 . S
C454 H444 0.950 . S
C454 C455 1.386 . S
C454 C456 1.391 . S
C455 C454 1.386 . S
C455 C459 1.393 . S
C456 H445 0.950 . S
C456 C454 1.391 . S
C456 C457 1.400 . S
C457 C451 1.491 . S
C457 C456 1.400 . S
C457 C458 1.398 . S
C458 H446 0.950 . S
C458 C457 1.398 . S
C458 C459 1.391 . S
C459 H447 0.950 . S
C459 C455 1.393 . S
C459 C458 1.391 . S
H460 C468 0.950 . S
H461 C473 0.950 . S
H462 C470 0.950 . S
H463 C472 0.950 . S
H464 C474 0.950 . S
H465 C476 0.950 . S
H466 C478 0.950 . S
H467 C479 0.950 . S
C468 H460 0.950 . S
C468 C469 1.386 . S
C468 C470 1.391 . S
C469 C468 1.386 . S
C469 C473 1.393 . S
C470 H462 0.950 . S
C470 C468 1.391 . S
C470 C471 1.400 . S
C471 C470 1.400 . S
C471 C472 1.398 . S
C471 C477 1.491 . S
C472 H463 0.950 . S
C472 C471 1.398 . S
C472 C473 1.391 . S
C473 H461 0.950 . S
C473 C469 1.393 . S
C473 C472 1.391 . S
C474 H464 0.950 . S
C474 C475 1.386 . S
C474 C476 1.391 . S
C475 C474 1.386 . S
C475 C479 1.393 . S
C476 H465 0.950 . S
C476 C474 1.391 . S
C476 C477 1.400 . S
C477 C471 1.491 . S
C477 C476 1.400 . S
C477 C478 1.398 . S
C478 H466 0.950 . S
C478 C477 1.398 . S
C478 C479 1.391 . S
C479 H467 0.950 . S
C479 C475 1.393 . S
C479 C478 1.391 . S
H480 C488 0.950 . S
H481 C493 0.950 . S
H482 C490 0.950 . S
H483 C492 0.950 . S
H484 C494 0.950 . S
H485 C496 0.950 . S
H486 C498 0.950 . S
H487 C499 0.950 . S
C488 H480 0.950 . S
C488 C489 1.386 . S
C488 C490 1.391 . S
C489 C488 1.386 . S
C489 C493 1.393 . S
C490 H482 0.950 . S
C490 C488 1.391 . S
C490 C491 1.400 . S
C491 C490 1.400 . S
C491 C492 1.398 . S
C491 C497 1.491 . S
C492 H483 0.950 . S
C492 C491 1.398 . S
C492 C493 1.391 . S
C493 H481 0.950 . S
C493 C489 1.393 . S
C493 C492 1.391 . S
C494 H484 0.950 . S
C494 C495 1.386 . S
C494 C496 1.391 . S
C495 C494 1.386 . S
C495 C499 1.393 . S
C496 H485 0.950 . S
C496 C494 1.391 . S
C496 C497 1.400 . S
C497 C491 1.491 . S
C497 C496 1.400 . S
C497 C498 1.398 . S
C498 H486 0.950 . S
C498 C497 1.398 . S
C498 C499 1.391 . S
C499 H487 0.950 . S
C499 C495 1.393 . S
C499 C498 1.391 . S
H500 C508 0.950 . S
H501 C513 0.950 . S
H502 C510 0.950 . S
H503 C512 0.950 . S
H504 C514 0.950 . S
H505 C516 0.950 . S
H506 C518 0.950 . S
H507 C519 0.950 . S
C508 H500 0.950 . S
C508 C509 1.386 . S
C508 C510 1.391 . S
C509 C508 1.386 . S
C509 C513 1.393 . S
C510 H502 0.950 . S
C510 C508 1.391 . S
C510 C511 1.400 . S
C511 C510 1.400 . S
C511 C512 1.398 . S
C511 C517 1.491 . S
C512 H503 0.950 . S
C512 C511 1.398 . S
C512 C513 1.391 . S
C513 H501 0.950 . S
C513 C509 1.393 . S
C513 C512 1.391 . S
C514 H504 0.950 . S
C514 C515 1.386 . S
C514 C516 1.391 . S
C515 C514 1.386 . S
C515 C519 1.393 . S
C516 H505 0.950 . S
C516 C514 1.391 . S
C516 C517 1.400 . S
C517 C511 1.491 . S
C517 C516 1.400 . S
C517 C518 1.398 . S
C518 H506 0.950 . S
C518 C517 1.398 . S
C518 C519 1.391 . S
C519 H507 0.950 . S
C519 C515 1.393 . S
C519 C518 1.391 . S
H520 C528 0.950 . S
H521 C533 0.950 . S
H522 C530 0.950 1_545 S
H523 C532 0.950 . S
H524 C534 0.950 . S
H525 C536 0.950 . S
H526 C538 0.950 . S
H527 C539 0.950 . S
C528 H520 0.950 . S
C528 C529 1.386 . S
C528 C530 1.391 . S
C529 C528 1.386 . S
C529 C533 1.393 . S
C530 H522 0.950 1_565 S
C530 C528 1.391 . S
C530 C531 1.400 . S
C531 C530 1.400 . S
C531 C532 1.398 . S
C531 C537 1.491 . S
C532 H523 0.950 . S
C532 C531 1.398 . S
C532 C533 1.391 . S
C533 H521 0.950 . S
C533 C529 1.393 . S
C533 C532 1.391 . S
C534 H524 0.950 . S
C534 C535 1.386 . S
C534 C536 1.391 1_556 S
C535 C534 1.386 . S
C535 C539 1.393 1_565 S
C536 H525 0.950 . S
C536 C534 1.391 1_554 S
C536 C537 1.400 . S
C537 C531 1.491 . S
C537 C536 1.400 . S
C537 C538 1.398 1_564 S
C538 H526 0.950 . S
C538 C537 1.398 1_546 S
C538 C539 1.391 . S
C539 H527 0.950 . S
C539 C535 1.393 1_545 S
C539 C538 1.391 . S
H540 C548 0.950 . S
H541 C553 0.950 . S
H542 C550 0.950 . S
H543 C552 0.950 . S
H544 C554 0.950 . S
H545 C556 0.950 1_554 S
H546 C558 0.950 . S
H547 C559 0.950 . S
C548 H540 0.950 . S
C548 C549 1.386 . S
C548 C550 1.391 . S
C549 C548 1.386 . S
C549 C553 1.393 . S
C550 H542 0.950 . S
C550 C548 1.391 . S
C550 C551 1.400 . S
C551 C550 1.400 . S
C551 C552 1.398 . S
C551 C557 1.491 . S
C552 H543 0.950 . S
C552 C551 1.398 . S
C552 C553 1.391 . S
C553 H541 0.950 . S
C553 C549 1.393 . S
C553 C552 1.391 . S
C554 H544 0.950 . S
C554 C555 1.386 . S
C554 C556 1.391 . S
C555 C554 1.386 . S
C555 C559 1.393 . S
C556 H545 0.950 1_556 S
C556 C554 1.391 . S
C556 C557 1.400 1_556 S
C557 C551 1.491 . S
C557 C556 1.400 1_554 S
C557 C558 1.398 1_554 S
C558 H546 0.950 . S
C558 C557 1.398 1_556 S
C558 C559 1.391 . S
C559 H547 0.950 . S
C559 C555 1.393 . S
C559 C558 1.391 . S
H560 C568 0.950 . S
H561 C573 0.950 . S
H562 C570 0.950 . S
H563 C572 0.950 . S
H564 C574 0.950 . S
H565 C576 0.950 . S
H566 C578 0.950 . S
H567 C579 0.950 . S
C568 H560 0.950 . S
C568 C569 1.386 . S
C568 C570 1.391 . S
C569 C568 1.386 . S
C569 C573 1.393 . S
C570 H562 0.950 . S
C570 C568 1.391 . S
C570 C571 1.400 . S
C571 C570 1.400 . S
C571 C572 1.398 . S
C571 C577 1.491 . S
C572 H563 0.950 . S
C572 C571 1.398 . S
C572 C573 1.391 . S
C573 H561 0.950 . S
C573 C569 1.393 . S
C573 C572 1.391 . S
C574 H564 0.950 . S
C574 C575 1.386 . S
C574 C576 1.391 1_556 S
C575 C574 1.386 . S
C575 C579 1.393 . S
C576 H565 0.950 . S
C576 C574 1.391 1_554 S
C576 C577 1.400 . S
C577 C571 1.491 . S
C577 C576 1.400 . S
C577 C578 1.398 1_554 S
C578 H566 0.950 . S
C578 C577 1.398 1_556 S
C578 C579 1.391 . S
C579 H567 0.950 . S
C579 C575 1.393 . S
C579 C578 1.391 . S
H580 C588 0.950 . S
H581 C593 0.950 . S
H582 C590 0.950 . S
H583 C592 0.958 . S
H584 C594 0.947 . S
H585 C596 0.950 1_455 S
H586 C598 0.950 . S
H587 C599 0.950 . S
C588 H580 0.950 . S
C588 C589 1.386 . S
C588 C590 1.391 . S
C589 C588 1.386 . S
C589 C593 1.393 . S
C590 H582 0.950 . S
C590 C588 1.391 . S
C590 C591 1.400 . S
C591 C590 1.400 . S
C591 C592 1.398 . S
C591 C597 1.491 . S
C592 H583 0.958 . S
C592 C591 1.398 . S
C592 C593 1.391 . S
C593 H581 0.950 . S
C593 C589 1.393 . S
C593 C592 1.391 . S
C594 H584 0.947 . S
C594 C595 1.388 1_455 S
C594 C596 1.392 1_456 S
C595 C594 1.388 1_655 S
C595 C599 1.393 . S
C596 H585 0.950 1_655 S
C596 C594 1.392 1_654 S
C596 C597 1.400 . S
C597 C591 1.491 . S
C597 C596 1.400 . S
C597 C598 1.398 1_554 S
C598 H586 0.950 . S
C598 C597 1.398 1_556 S
C598 C599 1.391 . S
C599 H587 0.950 . S
C599 C595 1.393 . S
C599 C598 1.391 . S
H600 C608 0.950 . S
H601 C613 0.950 . S
H602 C610 0.950 . S
H603 C612 0.950 . S
H604 C614 0.950 . S
H605 C616 0.950 . S
H606 C618 0.950 . S
H607 C619 0.950 . S
C608 H600 0.950 . S
C608 C609 1.386 . S
C608 C610 1.391 . S
C609 C608 1.386 . S
C609 C613 1.393 . S
C610 H602 0.950 . S
C610 C608 1.391 . S
C610 C611 1.400 . S
C611 C610 1.400 . S
C611 C612 1.398 . S
C611 C617 1.491 . S
C612 H603 0.950 . S
C612 C611 1.398 . S
C612 C613 1.391 . S
C613 H601 0.950 . S
C613 C609 1.393 . S
C613 C612 1.391 . S
C614 H604 0.950 . S
C614 C615 1.372 1_655 S
C614 C616 1.391 . S
C615 C614 1.372 1_455 S
C615 C619 1.418 . S
C616 H605 0.950 . S
C616 C614 1.391 . S
C616 C617 1.400 1_655 S
C617 C611 1.491 . S
C617 C616 1.400 1_455 S
C617 C618 1.398 . S
C618 H606 0.950 . S
C618 C617 1.398 . S
C618 C619 1.391 . S
C619 H607 0.950 . S
C619 C615 1.418 . S
C619 C618 1.391 . S
H620 C628 0.950 . S
H621 C633 0.950 1_556 S
H622 C630 0.950 . S
H623 C632 0.950 . S
H624 C634 0.950 . S
H625 C636 0.933 1_565 S
H626 C638 0.950 . S
H627 C639 0.950 . S
C628 H620 0.950 . S
C628 C629 1.386 . S
C628 C630 1.391 . S
C629 C628 1.386 . S
C629 C633 1.393 . S
C630 H622 0.950 . S
C630 C628 1.391 . S
C630 C631 1.400 . S
C631 C630 1.400 . S
C631 C632 1.398 . S
C631 C637 1.491 . S
C632 H623 0.950 . S
C632 C631 1.398 . S
C632 C633 1.391 . S
C633 H621 0.950 1_554 S
C633 C629 1.393 . S
C633 C632 1.391 . S
C634 H624 0.950 . S
C634 C635 1.386 1_565 S
C634 C636 1.377 1_565 S
C635 C634 1.386 1_545 S
C635 C639 1.393 . S
C636 H625 0.933 1_545 S
C636 C634 1.377 1_545 S
C636 C637 1.432 . S
C637 C631 1.491 . S
C637 C636 1.432 . S
C637 C638 1.398 . S
C638 H626 0.950 . S
C638 C637 1.398 . S
C638 C639 1.391 . S
C639 H627 0.950 . S
C639 C635 1.393 . S
C639 C638 1.391 . S
H640 C648 0.950 . S
H641 C653 0.950 1_556 S
H642 C650 0.950 . S
H643 C652 0.950 . S
H644 C654 0.950 . S
H645 C656 0.950 . S
H646 C658 0.950 . S
H647 C659 0.950 . S
C648 H640 0.950 . S
C648 C649 1.386 . S
C648 C650 1.391 . S
C649 C648 1.386 . S
C649 C653 1.393 . S
C650 H642 0.950 . S
C650 C648 1.391 . S
C650 C651 1.400 . S
C651 C650 1.400 . S
C651 C652 1.398 . S
C651 C657 1.491 . S
C652 H643 0.950 . S
C652 C651 1.398 . S
C652 C653 1.391 . S
C653 H641 0.950 1_554 S
C653 C649 1.393 . S
C653 C652 1.391 . S
C654 H644 0.950 . S
C654 C655 1.386 . S
C654 C656 1.391 . S
C655 C654 1.386 . S
C655 C659 1.393 . S
C656 H645 0.950 . S
C656 C654 1.391 . S
C656 C657 1.400 . S
C657 C651 1.491 . S
C657 C656 1.400 . S
C657 C658 1.398 . S
C658 H646 0.950 . S
C658 C657 1.398 . S
C658 C659 1.391 . S
C659 H647 0.950 . S
C659 C655 1.393 . S
C659 C658 1.391 . S
H660 C668 0.950 . S
H661 C673 0.950 . S
H662 C670 0.950 . S
H663 C672 0.950 . S
H664 C674 0.950 . S
H665 C676 0.950 . S
H666 C678 0.950 . S
H667 C679 0.950 . S
C668 H660 0.950 . S
C668 C669 1.386 . S
C668 C670 1.391 . S
C669 C668 1.386 . S
C669 C673 1.393 . S
C670 H662 0.950 . S
C670 C668 1.391 . S
C670 C671 1.400 . S
C671 C670 1.400 . S
C671 C672 1.398 . S
C671 C677 1.491 . S
C672 H663 0.950 . S
C672 C671 1.398 . S
C672 C673 1.391 . S
C673 H661 0.950 . S
C673 C669 1.393 . S
C673 C672 1.391 . S
C674 H664 0.950 . S
C674 C675 1.386 . S
C674 C676 1.391 . S
C675 C674 1.386 . S
C675 C679 1.393 . S
C676 H665 0.950 . S
C676 C674 1.391 . S
C676 C677 1.400 . S
C677 C671 1.491 . S
C677 C676 1.400 . S
C677 C678 1.398 . S
C678 H666 0.950 . S
C678 C677 1.398 . S
C678 C679 1.391 . S
C679 H667 0.950 . S
C679 C675 1.393 . S
C679 C678 1.391 . S
H680 C688 0.950 . S
H681 C693 0.950 . S
H682 C690 0.950 . S
H683 C692 0.950 . S
H684 C694 0.950 . S
H685 C696 0.950 . S
H686 C698 0.950 . S
H687 C699 0.950 1_556 S
C688 H680 0.950 . S
C688 C689 1.386 . S
C688 C690 1.391 . S
C689 C688 1.386 . S
C689 C693 1.393 . S
C690 H682 0.950 . S
C690 C688 1.391 . S
C690 C691 1.400 . S
C691 C690 1.400 . S
C691 C692 1.398 . S
C691 C697 1.491 . S
C692 H683 0.950 . S
C692 C691 1.398 . S
C692 C693 1.391 . S
C693 H681 0.950 . S
C693 C689 1.393 . S
C693 C692 1.391 . S
C694 H684 0.950 . S
C694 C695 1.386 1_655 S
C694 C696 1.391 . S
C695 C694 1.386 1_455 S
C695 C699 1.393 . S
C696 H685 0.950 . S
C696 C694 1.391 . S
C696 C697 1.400 . S
C697 C691 1.491 . S
C697 C696 1.400 . S
C697 C698 1.398 1_655 S
C698 H686 0.950 . S
C698 C697 1.398 1_455 S
C698 C699 1.391 . S
C699 H687 0.950 1_554 S
C699 C695 1.393 . S
C699 C698 1.391 . S
H700 C708 0.950 . S
H701 C713 0.950 . S
H702 C710 0.950 . S
H703 C712 0.950 . S
H704 C714 0.950 . S
H705 C716 0.943 1_565 S
H706 C718 0.950 1_565 S
H707 C719 0.950 1_556 S
C708 H700 0.950 . S
C708 C709 1.386 . S
C708 C710 1.391 . S
C709 C708 1.386 . S
C709 C713 1.393 . S
C710 H702 0.950 . S
C710 C708 1.391 . S
C710 C711 1.400 . S
C711 C710 1.400 . S
C711 C712 1.398 . S
C711 C717 1.491 . S
C712 H703 0.950 . S
C712 C711 1.398 . S
C712 C713 1.391 . S
C713 H701 0.950 . S
C713 C709 1.393 . S
C713 C712 1.391 . S
C714 H704 0.950 . S
C714 C715 1.386 . S
C714 C716 1.391 . S
C715 C714 1.386 . S
C715 C719 1.393 . S
C716 H705 0.943 1_545 S
C716 C714 1.391 . S
C716 C717 1.400 1_545 S
C717 C711 1.491 . S
C717 C716 1.400 1_565 S
C717 C718 1.398 1_565 S
C718 H706 0.950 1_545 S
C718 C717 1.398 1_545 S
C718 C719 1.391 . S
C719 H707 0.950 1_554 S
C719 C715 1.393 . S
C719 C718 1.391 . S
H720 C728 0.950 . S
H721 C733 0.950 . S
H722 C730 0.950 . S
H723 C732 0.950 . S
H724 C734 0.950 . S
H725 C736 0.950 . S
H726 C738 0.950 . S
H727 C739 0.950 . S
C728 H720 0.950 . S
C728 C729 1.386 . S
C728 C730 1.391 . S
C729 C728 1.386 . S
C729 C733 1.393 . S
C730 H722 0.950 . S
C730 C728 1.391 . S
C730 C731 1.400 . S
C731 C730 1.400 . S
C731 C732 1.398 . S
C731 C737 1.491 . S
C732 H723 0.950 . S
C732 C731 1.398 . S
C732 C733 1.391 . S
C733 H721 0.950 . S
C733 C729 1.393 . S
C733 C732 1.391 . S
C734 H724 0.950 . S
C734 C735 1.386 . S
C734 C736 1.391 . S
C735 C734 1.386 . S
C735 C739 1.393 . S
C736 H725 0.950 . S
C736 C734 1.391 . S
C736 C737 1.400 . S
C737 C731 1.491 . S
C737 C736 1.400 . S
C737 C738 1.398 . S
C738 H726 0.950 . S
C738 C737 1.398 . S
C738 C739 1.391 . S
C739 H727 0.950 . S
C739 C735 1.393 . S
C739 C738 1.391 . S
H740 C748 0.950 . S
H741 C753 0.950 . S
H742 C750 0.950 . S
H743 C752 0.950 . S
H744 C754 0.950 1_556 S
H745 C756 0.950 . S
H746 C758 0.950 . S
H747 C759 0.950 . S
C748 H740 0.950 . S
C748 C749 1.386 . S
C748 C750 1.391 . S
C749 C748 1.386 . S
C749 C753 1.393 . S
C750 H742 0.950 . S
C750 C748 1.391 . S
C750 C751 1.400 . S
C751 C750 1.400 . S
C751 C752 1.398 . S
C751 C757 1.491 . S
C752 H743 0.950 . S
C752 C751 1.398 . S
C752 C753 1.391 . S
C753 H741 0.950 . S
C753 C749 1.393 . S
C753 C752 1.391 . S
C754 H744 0.950 1_554 S
C754 C755 1.386 . S
C754 C756 1.391 . S
C755 C754 1.386 . S
C755 C759 1.393 . S
C756 H745 0.950 . S
C756 C754 1.391 . S
C756 C757 1.400 . S
C757 C751 1.491 . S
C757 C756 1.400 . S
C757 C758 1.398 . S
C758 H746 0.950 . S
C758 C757 1.398 . S
C758 C759 1.391 . S
C759 H747 0.950 . S
C759 C755 1.393 . S
C759 C758 1.391 . S
H760 C768 0.950 . S
H761 C773 0.950 . S
H762 C770 0.950 . S
H763 C772 0.950 . S
H764 C774 0.950 1_655 S
H765 C776 0.950 . S
H766 C778 0.950 . S
H767 C779 0.950 . S
C768 H760 0.950 . S
C768 C769 1.386 . S
C768 C770 1.391 . S
C769 C768 1.386 . S
C769 C773 1.393 . S
C770 H762 0.950 . S
C770 C768 1.391 . S
C770 C771 1.400 . S
C771 C770 1.400 . S
C771 C772 1.398 . S
C771 C777 1.491 . S
C772 H763 0.950 . S
C772 C771 1.398 . S
C772 C773 1.391 . S
C773 H761 0.950 . S
C773 C769 1.393 . S
C773 C772 1.391 . S
C774 H764 0.950 1_455 S
C774 C775 1.386 . S
C774 C776 1.391 . S
C775 C774 1.386 . S
C775 C779 1.393 . S
C776 H765 0.950 . S
C776 C774 1.391 . S
C776 C777 1.400 . S
C777 C771 1.491 . S
C777 C776 1.400 . S
C777 C778 1.398 . S
C778 H766 0.950 . S
C778 C777 1.398 . S
C778 C779 1.391 . S
C779 H767 0.950 . S
C779 C775 1.393 . S
C779 C778 1.391 . S
H780 C788 0.950 . S
H781 C793 0.950 . S
H782 C790 0.950 . S
H783 C792 0.950 . S
H784 C794 0.950 . S
H785 C796 0.950 . S
H786 C798 0.949 1_565 S
H787 C799 0.950 1_565 S
C788 H780 0.950 . S
C788 C789 1.386 . S
C788 C790 1.391 . S
C789 C788 1.386 . S
C789 C793 1.393 . S
C790 H782 0.950 . S
C790 C788 1.391 . S
C790 C791 1.400 . S
C791 C790 1.400 . S
C791 C792 1.398 . S
C791 C797 1.491 . S
C792 H783 0.950 . S
C792 C791 1.398 . S
C792 C793 1.391 . S
C793 H781 0.950 . S
C793 C789 1.393 . S
C793 C792 1.391 . S
C794 H784 0.950 . S
C794 C795 1.386 . S
C794 C796 1.391 . S
C795 C794 1.386 . S
C795 C799 1.393 . S
C796 H785 0.950 . S
C796 C794 1.391 . S
C796 C797 1.400 . S
C797 C791 1.491 . S
C797 C796 1.400 . S
C797 C798 1.398 . S
C798 H786 0.949 1_545 S
C798 C797 1.398 . S
C798 C799 1.391 . S
C799 H787 0.950 1_545 S
C799 C795 1.393 . S
C799 C798 1.391 . S
H800 C808 0.950 . S
H801 C813 0.950 . S
H802 C810 0.950 . S
H803 C812 0.950 . S
H804 C814 0.950 . S
H805 C816 0.950 . S
H806 C818 0.950 . S
H807 C819 0.950 . S
C808 H800 0.950 . S
C808 C809 1.386 . S
C808 C810 1.391 . S
C809 C808 1.386 . S
C809 C813 1.393 . S
C810 H802 0.950 . S
C810 C808 1.391 . S
C810 C811 1.400 . S
C811 C810 1.400 . S
C811 C812 1.398 . S
C811 C817 1.491 . S
C812 H803 0.950 . S
C812 C811 1.398 . S
C812 C813 1.391 . S
C813 H801 0.950 . S
C813 C809 1.393 . S
C813 C812 1.391 . S
C814 H804 0.950 . S
C814 C815 1.386 . S
C814 C816 1.391 . S
C815 C814 1.386 . S
C815 C819 1.393 . S
C816 H805 0.950 . S
C816 C814 1.391 . S
C816 C817 1.400 . S
C817 C811 1.491 . S
C817 C816 1.400 . S
C817 C818 1.398 . S
C818 H806 0.950 . S
C818 C817 1.398 . S
C818 C819 1.391 . S
C819 H807 0.950 . S
C819 C815 1.393 . S
C819 C818 1.391 . S
H820 C828 0.950 1_554 S
H821 C833 0.950 . S
H822 C830 0.950 . S
H823 C832 0.950 . S
H824 C834 0.950 . S
H825 C836 0.950 . S
H826 C838 0.950 . S
H827 C839 0.950 . S
C828 H820 0.950 1_556 S
C828 C829 1.386 . S
C828 C830 1.391 . S
C829 C828 1.386 . S
C829 C833 1.393 . S
C830 H822 0.950 . S
C830 C828 1.391 . S
C830 C831 1.400 . S
C831 C830 1.400 . S
C831 C832 1.398 . S
C831 C837 1.491 . S
C832 H823 0.950 . S
C832 C831 1.398 . S
C832 C833 1.391 . S
C833 H821 0.950 . S
C833 C829 1.393 . S
C833 C832 1.391 . S
C834 H824 0.950 . S
C834 C835 1.386 . S
C834 C836 1.391 . S
C835 C834 1.386 . S
C835 C839 1.393 . S
C836 H825 0.950 . S
C836 C834 1.391 . S
C836 C837 1.400 . S
C837 C831 1.491 . S
C837 C836 1.400 . S
C837 C838 1.398 . S
C838 H826 0.950 . S
C838 C837 1.398 . S
C838 C839 1.391 . S
C839 H827 0.950 . S
C839 C835 1.393 . S
C839 C838 1.391 . S
H840 C848 0.950 . S
H841 C853 0.950 . S
H842 C850 0.950 . S
H843 C852 0.950 . S
H844 C854 0.950 . S
H845 C856 0.950 . S
H846 C858 0.950 . S
H847 C859 0.950 . S
C848 H840 0.950 . S
C848 C849 1.386 . S
C848 C850 1.391 . S
C849 C848 1.386 . S
C849 C853 1.393 . S
C850 H842 0.950 . S
C850 C848 1.391 . S
C850 C851 1.400 . S
C851 C850 1.400 . S
C851 C852 1.398 . S
C851 C857 1.491 . S
C852 H843 0.950 . S
C852 C851 1.398 . S
C852 C853 1.391 . S
C853 H841 0.950 . S
C853 C849 1.393 . S
C853 C852 1.391 . S
C854 H844 0.950 . S
C854 C855 1.386 . S
C854 C856 1.391 . S
C855 C854 1.386 . S
C855 C859 1.393 . S
C856 H845 0.950 . S
C856 C854 1.391 . S
C856 C857 1.400 . S
C857 C851 1.491 . S
C857 C856 1.400 . S
C857 C858 1.398 . S
C858 H846 0.950 . S
C858 C857 1.398 . S
C858 C859 1.391 . S
C859 H847 0.950 . S
C859 C855 1.393 . S
C859 C858 1.391 . S
H860 C868 0.950 . S
H861 C873 0.950 . S
H862 C870 0.950 . S
H863 C872 0.950 . S
H864 C874 0.950 . S
H865 C876 0.950 . S
H866 C878 0.950 . S
H867 C879 0.950 . S
C868 H860 0.950 . S
C868 C869 1.386 . S
C868 C870 1.391 . S
C869 C868 1.386 . S
C869 C873 1.393 . S
C870 H862 0.950 . S
C870 C868 1.391 . S
C870 C871 1.400 . S
C871 C870 1.400 . S
C871 C872 1.398 . S
C871 C877 1.491 . S
C872 H863 0.950 . S
C872 C871 1.398 . S
C872 C873 1.391 . S
C873 H861 0.950 . S
C873 C869 1.393 . S
C873 C872 1.391 . S
C874 H864 0.950 . S
C874 C875 1.386 . S
C874 C876 1.391 . S
C875 C874 1.386 . S
C875 C879 1.393 . S
C876 H865 0.950 . S
C876 C874 1.391 . S
C876 C877 1.400 . S
C877 C871 1.491 . S
C877 C876 1.400 . S
C877 C878 1.398 . S
C878 H866 0.950 . S
C878 C877 1.398 . S
C878 C879 1.391 . S
C879 H867 0.950 . S
C879 C875 1.393 . S
C879 C878 1.391 . S
H880 C888 0.950 . S
H881 C893 0.950 . S
H882 C890 0.950 . S
H883 C892 0.950 . S
H884 C894 0.950 . S
H885 C896 0.950 . S
H886 C898 0.950 . S
H887 C899 0.950 . S
C888 H880 0.950 . S
C888 C889 1.386 . S
C888 C890 1.391 . S
C889 C888 1.386 . S
C889 C893 1.393 . S
C890 H882 0.950 . S
C890 C888 1.391 . S
C890 C891 1.400 . S
C891 C890 1.400 . S
C891 C892 1.398 . S
C891 C897 1.491 . S
C892 H883 0.950 . S
C892 C891 1.398 . S
C892 C893 1.391 . S
C893 H881 0.950 . S
C893 C889 1.393 . S
C893 C892 1.391 . S
C894 H884 0.950 . S
C894 C895 1.386 . S
C894 C896 1.391 . S
C895 C894 1.386 . S
C895 C899 1.393 . S
C896 H885 0.950 . S
C896 C894 1.391 . S
C896 C897 1.400 . S
C897 C891 1.491 . S
C897 C896 1.400 . S
C897 C898 1.398 . S
C898 H886 0.950 . S
C898 C897 1.398 . S
C898 C899 1.391 . S
C899 H887 0.950 . S
C899 C895 1.393 . S
C899 C898 1.391 . S
H900 C908 0.950 . S
H901 C913 0.950 . S
H902 C910 0.950 . S
H903 C912 0.950 . S
H904 C914 0.950 . S
H905 C916 0.950 . S
H906 C918 0.950 . S
H907 C919 0.950 . S
C908 H900 0.950 . S
C908 C909 1.386 . S
C908 C910 1.391 . S
C909 C908 1.386 . S
C909 C913 1.393 . S
C910 H902 0.950 . S
C910 C908 1.391 . S
C910 C911 1.400 . S
C911 C910 1.400 . S
C911 C912 1.398 . S
C911 C917 1.491 . S
C912 H903 0.950 . S
C912 C911 1.398 . S
C912 C913 1.391 . S
C913 H901 0.950 . S
C913 C909 1.393 . S
C913 C912 1.391 . S
C914 H904 0.950 . S
C914 C915 1.386 . S
C914 C916 1.391 . S
C915 C914 1.386 . S
C915 C919 1.393 . S
C916 H905 0.950 . S
C916 C914 1.391 . S
C916 C917 1.400 . S
C917 C911 1.491 . S
C917 C916 1.400 . S
C917 C918 1.398 . S
C918 H906 0.950 . S
C918 C917 1.398 . S
C918 C919 1.391 . S
C919 H907 0.950 . S
C919 C915 1.393 . S
C919 C918 1.391 . S
C449 N80 1.901 . S
C455 C178 1.913 . S
C475 C262 1.946 . S
C469 N93 1.911 . S
C495 C328 1.923 . S
C489 N54 1.999 . S
C515 C412 1.927 . S
C509 N67 1.998 . S
C535 C167 1.934 1_565 S
C529 N28 1.918 . S
C549 N41 1.916 . S
C555 C251 1.935 . S
C569 N2 2.010 . S
C575 C339 1.923 . S
C589 N15 1.998 . S
C595 C423 1.912 . S
C615 C174 0.557 1_455 S
C609 N70 0.581 . S
C635 C258 0.593 1_545 S
C629 N83 0.527 . S
C655 C330 0.576 . S
C649 N96 0.497 . S
C669 N57 0.555 . S
C675 C414 0.536 . S
C689 N18 0.595 . S
C695 C162 0.561 . S
C715 C246 0.536 . S
C709 N31 0.571 . S
C735 C342 0.581 . S
C729 N44 0.514 . S
C749 N5 0.525 . S
C755 C426 0.565 . S
C769 N66 2.080 . S
C775 C171 2.028 . S
C789 N79 2.073 . S
C795 C255 2.022 . S
C815 C335 2.026 . S
C809 N92 1.956 . S
C835 C419 2.054 . S
C829 N53 1.984 . S
C849 N14 2.103 . S
C855 C160 2.049 . S
C875 C244 2.029 . S
C869 N27 2.071 . S
C895 C346 2.013 . S
C889 N40 1.989 . S
C909 N1 2.000 . S
C915 C430 2.043 . S
