# Generated by pormake.
# Topology eea, (3,6)-cn, num edge types: 1
# Building blocks:
#     Node 0, Type 0, BuildingBlock: ESEHIV_clean_linker_0, # of connection points: 3
#     Node 1, Type 0, BuildingBlock: ESEHIV_clean_linker_0, # of connection points: 3
#     Node 2, Type 0, BuildingBlock: ESEHIV_clean_linker_0, # of connection points: 3
#     Node 3, Type 0, BuildingBlock: ESEHIV_clean_linker_0, # of connection points: 3
#     Node 4, Type 0, BuildingBlock: ESEHIV_clean_linker_0, # of connection points: 3
#     Node 5, Type 0, BuildingBlock: ESEHIV_clean_linker_0, # of connection points: 3
#     Node 6, Type 0, BuildingBlock: ESEHIV_clean_linker_0, # of connection points: 3
#     Node 7, Type 0, BuildingBlock: ESEHIV_clean_linker_0, # of connection points: 3
#     Node 8, Type 0, BuildingBlock: ESEHIV_clean_linker_0, # of connection points: 3
#     Node 9, Type 0, BuildingBlock: ESEHIV_clean_linker_0, # of connection points: 3
#     Node 10, Type 0, BuildingBlock: ESEHIV_clean_linker_0, # of connection points: 3
#     Node 11, Type 0, BuildingBlock: ESEHIV_clean_linker_0, # of connection points: 3
#     Node 12, Type 0, BuildingBlock: ESEHIV_clean_linker_0, # of connection points: 3
#     Node 13, Type 0, BuildingBlock: ESEHIV_clean_linker_0, # of connection points: 3
#     Node 14, Type 0, BuildingBlock: ESEHIV_clean_linker_0, # of connection points: 3
#     Node 15, Type 0, BuildingBlock: ESEHIV_clean_linker_0, # of connection points: 3
#     Node 16, Type 0, BuildingBlock: ESEHIV_clean_linker_0, # of connection points: 3
#     Node 17, Type 0, BuildingBlock: ESEHIV_clean_linker_0, # of connection points: 3
#     Node 18, Type 1, BuildingBlock: KUMBOL_clean_sbu_0, # of connection points: 6
#     Node 19, Type 1, BuildingBlock: KUMBOL_clean_sbu_0, # of connection points: 6
#     Node 20, Type 1, BuildingBlock: KUMBOL_clean_sbu_0, # of connection points: 6
#     Node 21, Type 1, BuildingBlock: KUMBOL_clean_sbu_0, # of connection points: 6
#     Node 22, Type 1, BuildingBlock: KUMBOL_clean_sbu_0, # of connection points: 6
#     Node 23, Type 1, BuildingBlock: KUMBOL_clean_sbu_0, # of connection points: 6
#     Node 24, Type 1, BuildingBlock: KUMBOL_clean_sbu_0, # of connection points: 6
#     Node 25, Type 1, BuildingBlock: KUMBOL_clean_sbu_0, # of connection points: 6
#     Node 26, Type 1, BuildingBlock: KUMBOL_clean_sbu_0, # of connection points: 6
#     Edge 27, Type (0, 1), BuildingBlock: OJICUG_clean_linker_0, # of connection points: 2
#     Edge 28, Type (0, 1), BuildingBlock: OJICUG_clean_linker_0, # of connection points: 2
#     Edge 29, Type (0, 1), BuildingBlock: OJICUG_clean_linker_0, # of connection points: 2
#     Edge 30, Type (0, 1), BuildingBlock: OJICUG_clean_linker_0, # of connection points: 2
#     Edge 31, Type (0, 1), BuildingBlock: OJICUG_clean_linker_0, # of connection points: 2
#     Edge 32, Type (0, 1), BuildingBlock: OJICUG_clean_linker_0, # of connection points: 2
#     Edge 33, Type (0, 1), BuildingBlock: OJICUG_clean_linker_0, # of connection points: 2
#     Edge 34, Type (0, 1), BuildingBlock: OJICUG_clean_linker_0, # of connection points: 2
#     Edge 35, Type (0, 1), BuildingBlock: OJICUG_clean_linker_0, # of connection points: 2
#     Edge 36, Type (0, 1), BuildingBlock: OJICUG_clean_linker_0, # of connection points: 2
#     Edge 37, Type (0, 1), BuildingBlock: OJICUG_clean_linker_0, # of connection points: 2
#     Edge 38, Type (0, 1), BuildingBlock: OJICUG_clean_linker_0, # of connection points: 2
#     Edge 39, Type (0, 1), BuildingBlock: OJICUG_clean_linker_0, # of connection points: 2
#     Edge 40, Type (0, 1), BuildingBlock: OJICUG_clean_linker_0, # of connection points: 2
#     Edge 41, Type (0, 1), BuildingBlock: OJICUG_clean_linker_0, # of connection points: 2
#     Edge 42, Type (0, 1), BuildingBlock: OJICUG_clean_linker_0, # of connection points: 2
#     Edge 43, Type (0, 1), BuildingBlock: OJICUG_clean_linker_0, # of connection points: 2
#     Edge 44, Type (0, 1), BuildingBlock: OJICUG_clean_linker_0, # of connection points: 2
#     Edge 45, Type (0, 1), BuildingBlock: OJICUG_clean_linker_0, # of connection points: 2
#     Edge 46, Type (0, 1), BuildingBlock: OJICUG_clean_linker_0, # of connection points: 2
#     Edge 47, Type (0, 1), BuildingBlock: OJICUG_clean_linker_0, # of connection points: 2
#     Edge 48, Type (0, 1), BuildingBlock: OJICUG_clean_linker_0, # of connection points: 2
#     Edge 49, Type (0, 1), BuildingBlock: OJICUG_clean_linker_0, # of connection points: 2
#     Edge 50, Type (0, 1), BuildingBlock: OJICUG_clean_linker_0, # of connection points: 2
#     Edge 51, Type (0, 1), BuildingBlock: OJICUG_clean_linker_0, # of connection points: 2
#     Edge 52, Type (0, 1), BuildingBlock: OJICUG_clean_linker_0, # of connection points: 2
#     Edge 53, Type (0, 1), BuildingBlock: OJICUG_clean_linker_0, # of connection points: 2
#     Edge 54, Type (0, 1), BuildingBlock: OJICUG_clean_linker_0, # of connection points: 2
#     Edge 55, Type (0, 1), BuildingBlock: OJICUG_clean_linker_0, # of connection points: 2
#     Edge 56, Type (0, 1), BuildingBlock: OJICUG_clean_linker_0, # of connection points: 2
#     Edge 57, Type (0, 1), BuildingBlock: OJICUG_clean_linker_0, # of connection points: 2
#     Edge 58, Type (0, 1), BuildingBlock: OJICUG_clean_linker_0, # of connection points: 2
#     Edge 59, Type (0, 1), BuildingBlock: OJICUG_clean_linker_0, # of connection points: 2
#     Edge 60, Type (0, 1), BuildingBlock: OJICUG_clean_linker_0, # of connection points: 2
#     Edge 61, Type (0, 1), BuildingBlock: OJICUG_clean_linker_0, # of connection points: 2
#     Edge 62, Type (0, 1), BuildingBlock: OJICUG_clean_linker_0, # of connection points: 2
#     Edge 63, Type (0, 1), BuildingBlock: OJICUG_clean_linker_0, # of connection points: 2
#     Edge 64, Type (0, 1), BuildingBlock: OJICUG_clean_linker_0, # of connection points: 2
#     Edge 65, Type (0, 1), BuildingBlock: OJICUG_clean_linker_0, # of connection points: 2
#     Edge 66, Type (0, 1), BuildingBlock: OJICUG_clean_linker_0, # of connection points: 2
#     Edge 67, Type (0, 1), BuildingBlock: OJICUG_clean_linker_0, # of connection points: 2
#     Edge 68, Type (0, 1), BuildingBlock: OJICUG_clean_linker_0, # of connection points: 2
#     Edge 69, Type (0, 1), BuildingBlock: OJICUG_clean_linker_0, # of connection points: 2
#     Edge 70, Type (0, 1), BuildingBlock: OJICUG_clean_linker_0, # of connection points: 2
#     Edge 71, Type (0, 1), BuildingBlock: OJICUG_clean_linker_0, # of connection points: 2
#     Edge 72, Type (0, 1), BuildingBlock: OJICUG_clean_linker_0, # of connection points: 2
#     Edge 73, Type (0, 1), BuildingBlock: OJICUG_clean_linker_0, # of connection points: 2
#     Edge 74, Type (0, 1), BuildingBlock: OJICUG_clean_linker_0, # of connection points: 2
#     Edge 75, Type (0, 1), BuildingBlock: OJICUG_clean_linker_0, # of connection points: 2
#     Edge 76, Type (0, 1), BuildingBlock: OJICUG_clean_linker_0, # of connection points: 2
#     Edge 77, Type (0, 1), BuildingBlock: OJICUG_clean_linker_0, # of connection points: 2
#     Edge 78, Type (0, 1), BuildingBlock: OJICUG_clean_linker_0, # of connection points: 2
#     Edge 79, Type (0, 1), BuildingBlock: OJICUG_clean_linker_0, # of connection points: 2
#     Edge 80, Type (0, 1), BuildingBlock: OJICUG_clean_linker_0, # of connection points: 2
# Relax obj value: 0.007
# Max RMSD: 0.109
# Mean RMSD: 0.092
data_MOF--net-eea--node1-KUMBOL_clean_sbu_0--node2-ESEHIV_clean_linker_0--edge1-OJICUG_clean_linker_0
_symmetry_space_group_name_H-M    P1
_symmetry_Int_Tables_number       1
_symmetry_cell_setting            triclinic
loop_
_symmetry_equiv_pos_as_xyz
'x, y, z'
_cell_length_a     33.139198
_cell_length_b     34.558507
_cell_length_c     53.838726
_cell_angle_alpha  89.556735
_cell_angle_beta   89.470148
_cell_angle_gamma 120.0866
loop_
_atom_site_label
_atom_site_type_symbol
_atom_site_fract_x
_atom_site_fract_y
_atom_site_fract_z
_atom_type_partial_charge
H0 H 0.28284 0.19395 0.44999 0.0
H1 H 0.28187 0.06923 0.44959 0.0
H2 H 0.22234 0.10413 0.38895 0.0
C3 C 0.27385 0.16276 0.44102 0.0
C4 C 0.24971 0.15197 0.41844 0.0
C5 C 0.28677 0.13361 0.45202 0.0
C6 C 0.27399 0.09275 0.44057 0.0
C7 C 0.25021 0.08156 0.41797 0.0
C8 C 0.23887 0.11168 0.40691 0.0
H9 H 0.81833 0.06993 0.44783 0.0
H10 H 0.93832 0.20168 0.44485 0.0
H11 H 0.91609 0.10965 0.38628 0.0
C12 C 0.85051 0.09423 0.43865 0.0
C13 C 0.8638 0.08391 0.41581 0.0
C14 C 0.87725 0.13644 0.44936 0.0
C15 C 0.91733 0.16905 0.43669 0.0
C16 C 0.93129 0.15967 0.41385 0.0
C17 C 0.90487 0.11687 0.40373 0.0
H18 H 0.808 0.73861 0.44464 0.0
H19 H 0.93726 0.73769 0.44493 0.0
H20 H 0.90252 0.79294 0.38201 0.0
C21 C 0.8408 0.74654 0.43574 0.0
C22 C 0.85149 0.76696 0.41203 0.0
C23 C 0.87145 0.73606 0.44802 0.0
C24 C 0.91383 0.74668 0.43604 0.0
C25 C 0.9256 0.76732 0.41223 0.0
C26 C 0.8945 0.77816 0.40052 0.0
H27 H 0.07249 0.25836 0.60062 0.0
H28 H 0.20187 0.25787 0.59781 0.0
H29 H 0.11147 0.20405 0.66221 0.0
C30 C 0.09684 0.25007 0.60904 0.0
C31 C 0.0866 0.22965 0.63285 0.0
C32 C 0.1379 0.2597 0.59596 0.0
C33 C 0.16939 0.24931 0.60731 0.0
C34 C 0.16043 0.22945 0.63118 0.0
C35 C 0.11832 0.21867 0.64368 0.0
H36 H 0.73475 0.9266 0.59289 0.0
H37 H 0.73507 0.80263 0.59349 0.0
H38 H 0.79284 0.8927 0.65474 0.0
C39 C 0.74329 0.90369 0.60209 0.0
C40 C 0.76602 0.91502 0.62501 0.0
C41 C 0.73108 0.86276 0.59095 0.0
C42 C 0.74305 0.83348 0.60258 0.0
C43 C 0.76638 0.84446 0.62541 0.0
C44 C 0.77693 0.88495 0.63662 0.0
H45 H 0.07582 0.79456 0.59898 0.0
H46 H 0.19373 0.92765 0.59413 0.0
H47 H 0.1028 0.88603 0.65864 0.0
C48 C 0.09711 0.82729 0.60697 0.0
C49 C 0.08446 0.83667 0.63021 0.0
C50 C 0.13632 0.85999 0.59373 0.0
C51 C 0.16322 0.90242 0.60418 0.0
C52 C 0.15185 0.91224 0.62769 0.0
C53 C 0.11177 0.87928 0.6404 0.0
H54 H 0.94648 0.52563 0.78549 0.0
H55 H 0.9506 0.40351 0.78317 0.0
H56 H 0.88197 0.43424 0.72543 0.0
C57 C 0.93808 0.49485 0.77617 0.0
C58 C 0.91304 0.4838 0.75388 0.0
C59 C 0.95128 0.46579 0.78696 0.0
C60 C 0.93926 0.42534 0.77526 0.0
C61 C 0.91408 0.41358 0.75308 0.0
C62 C 0.90119 0.44304 0.74258 0.0
H63 H 0.48291 0.4085 0.77985 0.0
H64 H 0.60418 0.53931 0.77615 0.0
H65 H 0.58024 0.44555 0.71826 0.0
C66 C 0.51519 0.4323 0.77054 0.0
C67 C 0.52807 0.42118 0.74785 0.0
C68 C 0.54251 0.47463 0.78096 0.0
C69 C 0.58277 0.50659 0.76817 0.0
C70 C 0.59639 0.49638 0.74548 0.0
C71 C 0.56934 0.45345 0.73561 0.0
H72 H 0.47255 0.07324 0.77904 0.0
H73 H 0.60137 0.07159 0.77775 0.0
H74 H 0.56604 0.12888 0.71605 0.0
C75 C 0.50516 0.08133 0.76985 0.0
C76 C 0.51556 0.10242 0.74634 0.0
C77 C 0.53586 0.07028 0.78156 0.0
C78 C 0.57796 0.08104 0.76927 0.0
C79 C 0.5894 0.10225 0.74563 0.0
C80 C 0.55829 0.11367 0.73444 0.0
H81 H 0.74565 0.59339 0.93174 0.0
H82 H 0.87299 0.58909 0.93402 0.0
H83 H 0.77573 0.5365 0.99563 0.0
C84 C 0.76817 0.58373 0.94107 0.0
C85 C 0.75501 0.56316 0.96483 0.0
C86 C 0.81064 0.5933 0.92965 0.0
C87 C 0.8401 0.5819 0.94249 0.0
C88 C 0.82805 0.56147 0.96622 0.0
C89 C 0.78487 0.55131 0.97715 0.0
H90 H 0.39372 0.25863 0.927 0.0
H91 H 0.38796 0.13161 0.92722 0.0
H92 H 0.46727 0.22919 0.98238 0.0
C93 C 0.40414 0.23614 0.93498 0.0
C94 C 0.43164 0.24861 0.95634 0.0
C95 C 0.38889 0.19432 0.92412 0.0
C96 C 0.40032 0.1642 0.9353 0.0
C97 C 0.42802 0.17627 0.95667 0.0
C98 C 0.44412 0.21882 0.96666 0.0
H99 H 0.74162 0.12777 0.93179 0.0
H100 H 0.86367 0.25837 0.92919 0.0
H101 H 0.7702 0.21744 0.99263 0.0
C102 C 0.76341 0.16008 0.94014 0.0
C103 C 0.75065 0.16922 0.96344 0.0
C104 C 0.80441 0.19191 0.92777 0.0
C105 C 0.83265 0.23335 0.93898 0.0
C106 C 0.82103 0.24313 0.96242 0.0
C107 C 0.77941 0.21092 0.9744 0.0
H108 H 0.6111 0.85959 0.11757 0.0
H109 H 0.61386 0.73683 0.11484 0.0
H110 H 0.54354 0.76764 0.0581 0.0
C111 C 0.60203 0.82863 0.10828 0.0
C112 C 0.576 0.81741 0.08633 0.0
C113 C 0.61539 0.79948 0.11875 0.0
C114 C 0.60251 0.7588 0.10712 0.0
C115 C 0.57645 0.74699 0.08525 0.0
C116 C 0.56343 0.77651 0.07503 0.0
H117 H 0.15062 0.73932 0.11522 0.0
H118 H 0.27029 0.87134 0.1102 0.0
H119 H 0.24046 0.77975 0.05026 0.0
C120 C 0.18108 0.76426 0.10502 0.0
C121 C 0.19164 0.75414 0.08139 0.0
C122 C 0.20897 0.80646 0.11552 0.0
C123 C 0.24827 0.8388 0.10216 0.0
C124 C 0.26019 0.82919 0.07877 0.0
C125 C 0.23191 0.78672 0.06855 0.0
H126 H 0.14562 0.40751 0.11283 0.0
H127 H 0.27318 0.40358 0.11065 0.0
H128 H 0.23731 0.46005 0.04886 0.0
C129 C 0.17811 0.41552 0.10353 0.0
C130 C 0.18802 0.43565 0.0797 0.0
C131 C 0.20859 0.4039 0.11499 0.0
C132 C 0.24955 0.41268 0.10211 0.0
C133 C 0.26056 0.43323 0.07835 0.0
C134 C 0.22991 0.4454 0.0674 0.0
H135 H 0.41018 0.92395 0.26564 0.0
H136 H 0.53909 0.92243 0.26529 0.0
H137 H 0.44548 0.86865 0.32832 0.0
C138 C 0.43362 0.91486 0.27441 0.0
C139 C 0.42214 0.89434 0.29824 0.0
C140 C 0.47576 0.92526 0.26226 0.0
C141 C 0.50646 0.91463 0.27434 0.0
C142 C 0.49605 0.89431 0.29807 0.0
C143 C 0.45328 0.88335 0.30979 0.0
H144 H 0.0662 0.59323 0.26119 0.0
H145 H 0.06588 0.46886 0.26064 0.0
H146 H 0.12595 0.55849 0.32181 0.0
C147 C 0.07424 0.5698 0.27019 0.0
C148 C 0.098 0.58101 0.2928 0.0
C149 C 0.06169 0.52904 0.2587 0.0
C150 C 0.07472 0.49997 0.26967 0.0
C151 C 0.09874 0.51071 0.29228 0.0
C152 C 0.10945 0.55094 0.30384 0.0
H153 H 0.40922 0.45871 0.26479 0.0
H154 H 0.52935 0.59035 0.26108 0.0
H155 H 0.43229 0.55175 0.32291 0.0
C156 C 0.43034 0.49147 0.27277 0.0
C157 C 0.41664 0.50128 0.29558 0.0
C158 C 0.4703 0.52386 0.25991 0.0
C159 C 0.49727 0.56623 0.27042 0.0
C160 C 0.48433 0.57691 0.29326 0.0
C161 C 0.4433 0.54421 0.30548 0.0
Gd162 Gd 0.52546 0.03248 0.05044 0.0
Gd163 Gd 0.48562 0.9652 0.99288 0.0
C164 C 0.34287 0.83846 0.98845 0.0
C165 C 0.36383 0.78065 0.98471 0.0
C166 C 0.42421 0.85887 0.98712 0.0
C167 C 0.39061 0.87117 0.98906 0.0
C168 C 0.4113 0.81357 0.98444 0.0
C169 C 0.32966 0.79308 0.98675 0.0
C170 C 0.3099 0.85243 0.98907 0.0
C171 C 0.32493 0.89806 0.98946 0.0
N172 N 0.40466 0.9153 0.99064 0.0
C173 C 0.37269 0.92922 0.98989 0.0
H174 H 0.38361 0.9643 0.99033 0.0
C175 C 0.50406 0.88154 0.98236 0.0
N176 N 0.46964 0.89152 0.98685 0.0
C177 C 0.49307 0.83708 0.97974 0.0
C178 C 0.4465 0.80287 0.98105 0.0
H179 H 0.54013 0.90786 0.98151 0.0
H180 H 0.29316 0.76745 0.98649 0.0
H181 H 0.62907 0.036 0.05071 0.0
H182 H 0.27289 0.82837 0.98875 0.0
H183 H 0.29975 0.90928 0.98952 0.0
H184 H 0.35317 0.74561 0.9829 0.0
H185 H 0.47123 0.08666 0.06879 0.0
H186 H 0.73794 0.17268 0.05119 0.0
H187 H 0.71254 0.0921 0.04998 0.0
H188 H 0.65528 0.25214 0.06294 0.0
H189 H 0.5205 0.82923 0.97675 0.0
H190 H 0.43806 0.76846 0.97895 0.0
H191 H 0.71617 0.23233 0.05564 0.0
H192 H 0.4894 0.16425 0.07611 0.0
N193 N 0.60651 0.08387 0.0515 0.0
C194 C 0.70106 0.14809 0.05149 0.0
C195 C 0.68686 0.10267 0.05089 0.0
C196 C 0.66746 0.16113 0.05342 0.0
C197 C 0.61991 0.12774 0.05358 0.0
C198 C 0.63925 0.07084 0.05135 0.0
N199 N 0.54101 0.10534 0.05902 0.0
C200 C 0.58593 0.13887 0.05749 0.0
C201 C 0.5169 0.15765 0.07072 0.0
C202 C 0.56271 0.19289 0.06781 0.0
C203 C 0.50673 0.11375 0.0666 0.0
C204 C 0.5981 0.18367 0.06157 0.0
H205 H 0.57056 0.22684 0.07111 0.0
O206 O 0.48808 0.01847 0.08585 0.0
O207 O 0.46878 0.97315 0.03182 0.0
O208 O 0.46525 0.01871 0.9937 0.0
O209 O 0.51107 0.07331 0.02274 0.0
O210 O 0.4486 0.00871 0.05417 0.0
O211 O 0.55001 0.01319 0.08309 0.0
O212 O 0.5225 0.974 0.95777 0.0
O213 O 0.54206 0.02559 1.01102 0.0
O214 O 0.54815 0.98067 0.04746 0.0
O215 O 0.49355 0.92364 0.02278 0.0
O216 O 0.56231 0.98881 0.98955 0.0
O217 O 0.46295 0.98371 0.95928 0.0
C218 C 0.43364 0.97395 0.04042 0.0
C219 C 0.64521 0.21744 0.06016 0.0
C220 C 0.67987 0.20617 0.05602 0.0
C221 C 0.51727 0.01066 0.09777 0.0
C222 C 0.53176 0.03143 0.12236 0.0
C223 C 0.56065 0.07784 0.12411 0.0
C224 C 0.51654 0.00485 0.14429 0.0
C225 C 0.53061 0.02462 0.16788 0.0
C226 C 0.57421 0.09764 0.1473 0.0
C227 C 0.55941 0.07141 0.16898 0.0
C228 C 0.48286 0.05903 1.00342 0.0
C229 C 0.57716 0.02461 1.0024 0.0
C230 C 0.49502 0.9834 0.94519 0.0
C231 C 0.48029 0.96227 0.92073 0.0
C232 C 0.45147 0.91585 0.91906 0.0
C233 C 0.49525 0.98877 0.8988 0.0
C234 C 0.48109 0.96896 0.87524 0.0
C235 C 0.43771 0.89598 0.89589 0.0
C236 C 0.4523 0.92217 0.87418 0.0
C237 C 0.5257 0.93858 0.04016 0.0
H238 H 0.57268 0.09876 0.10755 0.0
H239 H 0.49454 0.9689 0.14292 0.0
H240 H 0.59634 0.13355 0.1485 0.0
H241 H 0.57027 0.08793 0.18668 0.0
H242 H 0.4397 0.89501 0.93567 0.0
H243 H 0.51717 0.02474 0.90013 0.0
H244 H 0.41561 0.86006 0.89473 0.0
H245 H 0.44131 0.90563 0.85649 0.0
Gd246 Gd 0.97102 0.48239 0.05108 0.0
Gd247 Gd 0.04384 0.51236 0.99446 0.0
C248 C 0.18561 0.52075 0.9947 0.0
C249 C 0.23894 0.60083 0.99038 0.0
C250 C 0.15518 0.57094 0.98962 0.0
C251 C 0.14761 0.52819 0.99315 0.0
C252 C 0.20091 0.60767 0.98749 0.0
C253 C 0.23126 0.55748 0.99419 0.0
C254 C 0.17653 0.47663 0.99632 0.0
C255 C 0.13049 0.44136 0.99553 0.0
N256 N 0.10302 0.49369 0.99414 0.0
C257 C 0.09394 0.45055 0.99418 0.0
H258 H 0.05844 0.42309 0.99408 0.0
C259 C 0.12321 0.61725 0.98122 0.0
N260 N 0.11758 0.57637 0.98747 0.0
C261 C 0.16791 0.65469 0.97879 0.0
C262 C 0.20696 0.65001 0.98229 0.0
H263 H 0.0933 0.62139 0.97882 0.0
H264 H 0.26088 0.55279 0.9964 0.0
H265 H 0.95571 0.57094 0.05155 0.0
H266 H 0.20471 0.46943 0.99767 0.0
H267 H 0.12309 0.4071 0.99633 0.0
H268 H 0.27439 0.62871 0.98934 0.0
H269 H 0.923 0.37247 0.0646 0.0
H270 H 0.80924 0.52389 0.0534 0.0
H271 H 0.89065 0.58643 0.05186 0.0
H272 H 0.74107 0.36483 0.06227 0.0
H273 H 0.1722 0.68718 0.97441 0.0
H274 H 0.24155 0.67909 0.98052 0.0
H275 H 0.75366 0.44056 0.05698 0.0
H276 H 0.84481 0.30657 0.07035 0.0
N277 N 0.91145 0.50028 0.05226 0.0
C278 C 0.83756 0.51681 0.0533 0.0
C279 C 0.88352 0.55226 0.05249 0.0
C280 C 0.82887 0.47279 0.05469 0.0
C281 C 0.86709 0.46557 0.05436 0.0
C282 C 0.92029 0.54334 0.05233 0.0
N283 N 0.89793 0.41764 0.05815 0.0
C284 C 0.86007 0.42287 0.05745 0.0
C285 C 0.84859 0.33907 0.06667 0.0
C286 C 0.8092 0.34368 0.06506 0.0
C287 C 0.89295 0.37665 0.06346 0.0
C288 C 0.81465 0.38602 0.06071 0.0
H289 H 0.77486 0.31455 0.06764 0.0
O290 O 0.98304 0.46261 0.08733 0.0
O291 O 0.03626 0.4906 0.03392 0.0
O292 O 0.99128 0.43735 0.99786 0.0
O293 O 0.92993 0.43207 0.02192 0.0
O294 O 0.9997 0.43599 0.05699 0.0
O295 O 0.98232 0.52474 0.08287 0.0
O296 O 0.03069 0.53153 0.95834 0.0
O297 O 0.97877 0.5044 1.01172 0.0
O298 O 0.02305 0.5575 0.04778 0.0
O299 O 0.08441 0.56386 0.02321 0.0
O300 O 0.01502 0.55883 0.9885 0.0
O301 O 0.03425 0.47083 0.96245 0.0
C302 C 0.03678 0.45734 0.04344 0.0
C303 C 0.77631 0.39273 0.06001 0.0
C304 C 0.78347 0.436 0.05699 0.0
C305 C 0.98508 0.49696 0.09835 0.0
C306 C 0.95864 0.4874 0.12176 0.0
C307 C 0.91016 0.46924 0.12205 0.0
C308 C 0.9825 0.49589 0.1442 0.0
C309 C 0.95828 0.48634 0.16706 0.0
C310 C 0.88579 0.45966 0.14464 0.0
C311 C 0.90959 0.46811 0.16705 0.0
C312 C 0.94684 0.41577 1.00529 0.0
C313 C 0.97805 0.53757 1.00219 0.0
C314 C 0.02996 0.49794 0.94714 0.0
C315 C 0.0561 0.50858 0.92357 0.0
C316 C 0.10496 0.5307 0.92294 0.0
C317 C 0.03149 0.49802 0.90129 0.0
C318 C 0.05534 0.50979 0.87828 0.0
C319 C 0.12894 0.54243 0.90015 0.0
C320 C 0.10438 0.53227 0.87792 0.0
C321 C 0.06731 0.57966 0.04004 0.0
H322 H 0.89122 0.46243 0.10491 0.0
H323 H 0.02009 0.51048 0.1438 0.0
H324 H 0.84832 0.44551 0.1448 0.0
H325 H 0.88984 0.45992 0.18432 0.0
H326 H 0.12446 0.53913 0.93997 0.0
H327 H 0.99371 0.48145 0.9019 0.0
H328 H 0.16667 0.55958 0.89971 0.0
H329 H 0.12365 0.54148 0.86046 0.0
Gd330 Gd 0.48769 0.51369 0.99114 0.0
Gd331 Gd 0.52562 0.48448 0.04919 0.0
C332 C 0.6729 0.50574 0.05325 0.0
C333 C 0.65767 0.42984 0.05947 0.0
C334 C 0.59338 0.44435 0.05609 0.0
C335 C 0.62451 0.48946 0.05284 0.0
C336 C 0.60956 0.41414 0.06021 0.0
C337 C 0.68924 0.47562 0.05595 0.0
C338 C 0.70347 0.55192 0.05169 0.0
C339 C 0.68544 0.58069 0.05083 0.0
N340 N 0.60747 0.51771 0.05063 0.0
C341 C 0.63714 0.56299 0.05071 0.0
H342 H 0.62414 0.58594 0.0499 0.0
C343 C 0.51564 0.3878 0.06449 0.0
N344 N 0.54727 0.43051 0.05712 0.0
C345 C 0.52985 0.35641 0.06852 0.0
C346 C 0.57699 0.36946 0.06596 0.0
H347 H 0.47916 0.37772 0.06649 0.0
H348 H 0.72626 0.48788 0.05614 0.0
H349 H 0.38946 0.41208 0.99102 0.0
H350 H 0.74091 0.56569 0.05181 0.0
H351 H 0.70872 0.61653 0.05016 0.0
H352 H 0.67071 0.40704 0.06237 0.0
H353 H 0.53427 0.62081 0.97498 0.0
H354 H 0.27239 0.43122 0.98496 0.0
H355 H 0.30496 0.38095 0.98902 0.0
H356 H 0.34192 0.58943 0.97321 0.0
H357 H 0.50449 0.32225 0.07363 0.0
H358 H 0.58801 0.3452 0.06926 0.0
H359 H 0.28665 0.50866 0.97843 0.0
H360 H 0.50882 0.67586 0.96668 0.0
N361 N 0.40574 0.48017 0.98939 0.0
C362 C 0.3098 0.44528 0.9861 0.0
C363 C 0.32804 0.41682 0.9883 0.0
C364 C 0.34013 0.49148 0.98453 0.0
C365 C 0.38853 0.50816 0.98632 0.0
C366 C 0.37632 0.43484 0.98943 0.0
N367 N 0.46583 0.56759 0.98328 0.0
C368 C 0.41958 0.55337 0.98329 0.0
C369 C 0.48335 0.6416 0.97152 0.0
C370 C 0.43597 0.62807 0.97278 0.0
C371 C 0.49764 0.61048 0.97627 0.0
C372 C 0.4033 0.58325 0.97812 0.0
H373 H 0.42489 0.65207 0.96874 0.0
O374 O 0.52453 0.54225 0.9562 0.0
O375 O 0.54395 0.50738 1.00979 0.0
O376 O 0.54273 0.55657 0.04856 0.0
O377 O 0.49883 0.56717 0.01824 0.0
O378 O 0.56469 0.56403 0.98827 0.0
O379 O 0.46582 0.47469 0.95741 0.0
O380 O 0.48871 0.45649 0.08422 0.0
O381 O 0.4693 0.49046 0.03046 0.0
O382 O 0.47097 0.4417 0.99145 0.0
O383 O 0.5137 0.43042 0.02225 0.0
O384 O 0.4489 0.43367 0.05183 0.0
O385 O 0.54753 0.52385 0.0828 0.0
C386 C 0.57937 0.54222 1.00131 0.0
C387 C 0.35511 0.56704 0.97719 0.0
C388 C 0.32363 0.52118 0.98028 0.0
C389 C 0.49702 0.50704 0.94344 0.0
C390 C 0.48102 0.51516 0.91961 0.0
C391 C 0.45058 0.53222 0.91878 0.0
C392 C 0.49702 0.50621 0.89734 0.0
C393 C 0.48317 0.51474 0.87423 0.0
C394 C 0.43673 0.5408 0.89597 0.0
C395 C 0.45297 0.53229 0.87381 0.0
C396 C 0.5256 0.57986 0.03802 0.0
C397 C 0.43403 0.45528 0.03875 0.0
C398 C 0.51623 0.49181 0.09688 0.0
C399 C 0.53217 0.48392 0.12082 0.0
C400 C 0.56269 0.46696 0.12173 0.0
C401 C 0.5161 0.49296 0.14308 0.0
C402 C 0.52993 0.48456 0.16625 0.0
C403 C 0.57658 0.45859 0.14459 0.0
C404 C 0.56026 0.46715 0.16671 0.0
C405 C 0.48744 0.41803 1.00224 0.0
H406 H 0.43758 0.53896 0.93566 0.0
H407 H 0.52076 0.49322 0.89801 0.0
H408 H 0.41323 0.55401 0.89546 0.0
H409 H 0.44131 0.53876 0.85635 0.0
H410 H 0.57574 0.46016 0.10485 0.0
H411 H 0.4923 0.50587 0.14235 0.0
H412 H 0.60015 0.44548 0.14516 0.0
H413 H 0.57195 0.46078 0.18419 0.0
Gd414 Gd 0.19546 0.36524 0.38391 0.0
Gd415 Gd 0.15269 0.29715 0.32664 0.0
C416 C 0.01237 0.16717 0.32355 0.0
C417 C 0.03615 0.11163 0.31823 0.0
C418 C 0.09439 0.1906 0.32046 0.0
C419 C 0.05968 0.20113 0.32352 0.0
C420 C 0.08311 0.14582 0.31732 0.0
C421 C 1.00082 0.12229 0.32137 0.0
C422 C 0.97812 0.17943 0.32524 0.0
C423 C 0.99146 0.22465 0.32601 0.0
N424 N 0.07216 0.24482 0.3255 0.0
C425 C 0.03886 0.25708 0.32577 0.0
H426 H 0.0485 0.2918 0.32655 0.0
C427 C 0.17457 0.21619 0.3141 0.0
N428 N 0.13926 0.22447 0.31957 0.0
C429 C 0.16521 0.17231 0.31098 0.0
C430 C 0.11931 0.13689 0.31286 0.0
H431 H 0.21018 0.24334 0.31278 0.0
H432 H 0.96469 0.09569 0.32157 0.0
H433 H 0.29985 0.37105 0.38386 0.0
H434 H 0.9414 0.15437 0.32545 0.0
H435 H 0.96528 0.23458 0.3269 0.0
H436 H 0.02676 0.07697 0.31605 0.0
H437 H 0.13754 0.41862 0.39786 0.0
H438 H 0.4065 0.50869 0.38475 0.0
H439 H 0.383 0.42857 0.38335 0.0
H440 H 0.32052 0.58547 0.39428 0.0
H441 H 0.1934 0.16584 0.30717 0.0
H442 H 0.11213 0.10294 0.31038 0.0
H443 H 0.38283 0.5671 0.38867 0.0
H444 H 0.15398 0.49602 0.40345 0.0
N445 N 0.2759 0.4178 0.38493 0.0
C446 C 0.36981 0.48351 0.38502 0.0
C447 C 0.35669 0.43833 0.38428 0.0
C448 C 0.33542 0.49556 0.38676 0.0
C449 C 0.28817 0.46144 0.38687 0.0
C450 C 0.30935 0.40574 0.38461 0.0
N451 N 0.2085 0.43778 0.39093 0.0
C452 C 0.25331 0.47178 0.38998 0.0
C453 C 0.18225 0.48969 0.39958 0.0
C454 C 0.22807 0.52524 0.39763 0.0
C455 C 0.17308 0.44587 0.39648 0.0
C456 C 0.26439 0.51651 0.39311 0.0
H457 H 0.2351 0.55915 0.4001 0.0
O458 O 0.15853 0.35077 0.41941 0.0
O459 O 0.13829 0.30533 0.36602 0.0
O460 O 0.12974 0.3488 0.33009 0.0
O461 O 0.18442 0.4061 0.35481 0.0
O462 O 0.11865 0.34069 0.38897 0.0
O463 O 0.22289 0.34949 0.41675 0.0
O464 O 0.18894 0.31061 0.29097 0.0
O465 O 0.20999 0.3569 0.34454 0.0
O466 O 0.21853 0.31368 0.38054 0.0
O467 O 0.16393 0.2564 0.35577 0.0
O468 O 0.22941 0.32145 0.32154 0.0
O469 O 0.126 0.31438 0.29407 0.0
C470 C 0.10344 0.30571 0.37539 0.0
C471 C 0.31129 0.55084 0.39212 0.0
C472 C 0.34675 0.54039 0.38893 0.0
C473 C 0.18917 0.34508 0.43136 0.0
C474 C 0.20197 0.36562 0.4561 0.0
C475 C 0.22915 0.41215 0.45822 0.0
C476 C 0.18511 0.33865 0.47783 0.0
C477 C 0.19472 0.3582 0.50159 0.0
C478 C 0.23917 0.43166 0.48162 0.0
C479 C 0.22201 0.40506 0.50311 0.0
C480 C 0.15169 0.3908 0.3377 0.0
C481 C 0.24479 0.35642 0.33515 0.0
C482 C 0.15894 0.31759 0.27926 0.0
C483 C 0.14496 0.29714 0.25457 0.0
C484 C 0.11672 0.25071 0.25248 0.0
C485 C 0.16149 0.32409 0.23282 0.0
C486 C 0.15053 0.30457 0.20907 0.0
C487 C 0.10535 0.23126 0.22909 0.0
C488 C 0.1222 0.25782 0.20757 0.0
C489 C 0.19668 0.27172 0.37289 0.0
H490 H 0.24229 0.43336 0.44178 0.0
H491 H 0.16371 0.30267 0.47621 0.0
H492 H 0.26019 0.46763 0.48312 0.0
H493 H 0.23056 0.42118 0.52099 0.0
H494 H 0.10377 0.22952 0.26893 0.0
H495 H 0.1837 0.35998 0.23441 0.0
H496 H 0.08352 0.19535 0.22761 0.0
H497 H 0.11266 0.24176 0.18968 0.0
Gd498 Gd 0.63824 0.81682 0.38315 0.0
Gd499 Gd 0.70997 0.84429 0.32567 0.0
C500 C 0.83512 0.82283 0.32725 0.0
C501 C 0.90013 0.89899 0.32367 0.0
C502 C 0.8204 0.88423 0.32207 0.0
C503 C 0.80383 0.83909 0.32541 0.0
C504 C 0.86872 0.91455 0.32012 0.0
C505 C 0.88327 0.85315 0.3274 0.0
C506 C 0.81711 0.77658 0.32846 0.0
C507 C 0.76905 0.74786 0.32692 0.0
N508 N 0.75704 0.81088 0.32575 0.0
C509 C 0.73937 0.76564 0.32534 0.0
H510 H 0.70234 0.74282 0.32463 0.0
C511 C 0.80337 0.94074 0.31108 0.0
N512 N 0.78906 0.89805 0.31904 0.0
C513 C 0.85096 0.97219 0.30889 0.0
C514 C 0.88385 0.95926 0.31395 0.0
H515 H 0.77791 0.95083 0.30744 0.0
H516 H 0.90756 0.84121 0.32981 0.0
H517 H 0.64668 0.91867 0.3844 0.0
H518 H 0.84 0.76276 0.32996 0.0
H519 H 0.75476 0.712 0.32731 0.0
H520 H 0.93742 0.92195 0.32294 0.0
H521 H 0.56979 0.71026 0.40108 0.0
H522 H 0.50936 0.89977 0.37989 0.0
H523 H 0.59474 0.95002 0.38217 0.0
H524 H 0.41102 0.74071 0.38683 0.0
H525 H 0.86223 0.00637 0.30343 0.0
H526 H 0.92069 0.98365 0.31226 0.0
H527 H 0.44136 0.82157 0.38022 0.0
H528 H 0.48538 0.65513 0.40526 0.0
N529 N 0.59161 0.85074 0.38335 0.0
C530 C 0.53206 0.88569 0.38117 0.0
C531 C 0.58019 0.91413 0.3825 0.0
C532 C 0.51372 0.8394 0.38229 0.0
C533 C 0.54477 0.8228 0.38385 0.0
C534 C 0.60961 0.89604 0.38383 0.0
N535 N 0.55903 0.76344 0.38983 0.0
C536 C 0.52791 0.77759 0.38705 0.0
C537 C 0.49684 0.6894 0.39992 0.0
C538 C 0.46415 0.7027 0.39516 0.0
C539 C 0.54448 0.72062 0.39762 0.0
C540 C 0.47954 0.74752 0.38915 0.0
H541 H 0.42726 0.67851 0.39695 0.0
O542 O 0.64278 0.7883 0.41832 0.0
O543 O 0.70189 0.82263 0.36527 0.0
O544 O 0.6507 0.77199 0.32593 0.0
O545 O 0.59538 0.76168 0.3566 0.0
O546 O 0.66234 0.76653 0.38721 0.0
O547 O 0.65462 0.8559 0.41677 0.0
O548 O 0.70491 0.87231 0.29044 0.0
O549 O 0.64639 0.83844 0.34358 0.0
O550 O 0.69768 0.88905 0.38292 0.0
O551 O 0.75283 0.89956 0.35212 0.0
O552 O 0.68554 0.89436 0.32149 0.0
O553 O 0.69457 0.80525 0.29207 0.0
C554 C 0.70035 0.78798 0.37423 0.0
C555 C 0.44835 0.76344 0.38593 0.0
C556 C 0.4655 0.80936 0.38235 0.0
C557 C 0.65119 0.82355 0.43087 0.0
C558 C 0.6256 0.81544 0.45445 0.0
C559 C 0.57699 0.79639 0.45527 0.0
C560 C 0.65053 0.82602 0.47661 0.0
C561 C 0.6272 0.81719 0.49969 0.0
C562 C 0.55353 0.78744 0.47814 0.0
C563 C 0.57838 0.79754 0.50027 0.0
C564 C 0.60918 0.74849 0.33691 0.0
C565 C 0.64771 0.87296 0.33462 0.0
C566 C 0.69736 0.83729 0.27792 0.0
C567 C 0.72318 0.84587 0.25437 0.0
C568 C 0.77188 0.86568 0.25361 0.0
C569 C 0.69835 0.83509 0.23218 0.0
C570 C 0.72185 0.84452 0.20913 0.0
C571 C 0.79551 0.87522 0.23076 0.0
C572 C 0.77074 0.86497 0.20859 0.0
C573 C 0.73912 0.91264 0.37187 0.0
H574 H 0.55726 0.78829 0.43834 0.0
H575 H 0.68811 0.84046 0.47588 0.0
H576 H 0.51598 0.77262 0.47872 0.0
H577 H 0.55956 0.79061 0.5178 0.0
H578 H 0.79155 0.87393 0.27056 0.0
H579 H 0.6607 0.82007 0.23286 0.0
H580 H 0.83312 0.89065 0.23021 0.0
H581 H 0.78967 0.87242 0.19107 0.0
Gd582 Gd 0.15548 0.84676 0.32655 0.0
Gd583 Gd 0.19283 0.81616 0.38393 0.0
C584 C 0.3269 0.81108 0.39308 0.0
C585 C 0.29732 0.73167 0.39998 0.0
C586 C 0.24369 0.75924 0.39297 0.0
C587 C 0.2808 0.80238 0.39042 0.0
C588 C 0.25148 0.72338 0.3979 0.0
C589 C 0.33487 0.77547 0.39778 0.0
C590 C 0.36346 0.85544 0.39168 0.0
C591 C 0.35344 0.88985 0.38847 0.0
N592 N 0.2717 0.8361 0.38663 0.0
C593 C 0.30708 0.87957 0.38639 0.0
H594 H 0.29983 0.90653 0.38416 0.0
C595 C 0.16208 0.71104 0.39603 0.0
N596 N 0.19985 0.75262 0.39169 0.0
C597 C 0.16804 0.67432 0.4005 0.0
C598 C 0.21294 0.68045 0.40131 0.0
H599 H 0.12717 0.70582 0.39551 0.0
H600 H 0.3698 0.78148 0.40044 0.0
H601 H 0.04845 0.75659 0.32625 0.0
H602 H 0.39937 0.86355 0.39356 0.0
H603 H 0.38139 0.92433 0.38774 0.0
H604 H 0.30405 0.70463 0.40389 0.0
H605 H 0.22146 0.9572 0.31529 0.0
H606 H 0.9492 0.79989 0.3167 0.0
H607 H 0.96695 0.73896 0.32253 0.0
H608 H 0.04486 0.95884 0.30672 0.0
H609 H 0.13799 0.64136 0.40345 0.0
H610 H 0.21749 0.65201 0.40503 0.0
H611 H 0.97903 0.88203 0.3099 0.0
H612 H 0.21086 0.02182 0.30747 0.0
N613 N 0.0767 0.82703 0.32392 0.0
C614 C 0.98507 0.80792 0.31868 0.0
C615 C 0.99496 0.77342 0.32189 0.0
C616 C 0.02171 0.85226 0.31742 0.0
C617 C 0.06774 0.86086 0.32019 0.0
C618 C 0.04127 0.78359 0.32406 0.0
N619 N 0.14875 0.91051 0.31905 0.0
C620 C 0.10494 0.90399 0.31775 0.0
C621 C 0.18076 0.98888 0.31036 0.0
C622 C 0.13589 0.98286 0.30952 0.0
C623 C 0.18659 0.95207 0.31477 0.0
C624 C 0.09728 0.93994 0.31284 0.0
H625 H 0.13144 0.01135 0.30582 0.0
O626 O 0.19121 0.86766 0.29075 0.0
O627 O 0.21126 0.83869 0.34459 0.0
O628 O 0.21939 0.8907 0.38008 0.0
O629 O 0.16471 0.89632 0.35584 0.0
O630 O 0.23309 0.8937 0.32179 0.0
O631 O 0.12644 0.8046 0.29429 0.0
O632 O 0.15723 0.79541 0.41977 0.0
O633 O 0.13695 0.82395 0.36585 0.0
O634 O 0.12904 0.77219 0.33024 0.0
O635 O 0.1834 0.76641 0.35473 0.0
O636 O 0.11525 0.76903 0.38867 0.0
O637 O 0.22148 0.85892 0.41599 0.0
C638 C 0.24718 0.87223 0.33545 0.0
C639 C 0.0515 0.93174 0.31064 0.0
C640 C 0.01388 0.88797 0.3127 0.0
C641 C 0.15928 0.8329 0.27923 0.0
C642 C 0.14458 0.84192 0.2552 0.0
C643 C 0.11485 0.85975 0.25416 0.0
C644 C 0.16159 0.83372 0.233 0.0
C645 C 0.14931 0.84364 0.20978 0.0
C646 C 0.10238 0.86951 0.23126 0.0
C647 C 0.11951 0.86165 0.20921 0.0
C648 C 0.19779 0.91218 0.37267 0.0
C649 C 0.10103 0.79035 0.37497 0.0
C650 C 0.18882 0.83062 0.43112 0.0
C651 C 0.20374 0.82248 0.45529 0.0
C652 C 0.23385 0.80509 0.45669 0.0
C653 C 0.18663 0.83117 0.47728 0.0
C654 C 0.19915 0.8222 0.50068 0.0
C655 C 0.24659 0.7963 0.47977 0.0
C656 C 0.22935 0.80465 0.50163 0.0
C657 C 0.15041 0.75059 0.33783 0.0
H658 H 0.1014 0.86624 0.27098 0.0
H659 H 0.18498 0.82035 0.23385 0.0
H660 H 0.07935 0.88323 0.23059 0.0
H661 H 0.10889 0.86911 0.19169 0.0
H662 H 0.24735 0.79821 0.44 0.0
H663 H 0.16293 0.84416 0.47614 0.0
H664 H 0.26991 0.78293 0.48073 0.0
H665 H 0.24014 0.7979 0.51929 0.0
Gd666 Gd 0.86299 0.6993 0.71767 0.0
Gd667 Gd 0.82132 0.63137 0.66027 0.0
C668 C 0.68087 0.5017 0.65617 0.0
C669 C 0.70451 0.44591 0.65169 0.0
C670 C 0.76289 0.5248 0.65416 0.0
C671 C 0.72821 0.53553 0.65658 0.0
C672 C 0.75153 0.47996 0.65122 0.0
C673 C 0.66921 0.45677 0.65418 0.0
C674 C 0.64672 0.51416 0.65722 0.0
C675 C 0.66022 0.55943 0.65781 0.0
N676 N 0.7408 0.57928 0.65837 0.0
C677 C 0.70765 0.59172 0.65803 0.0
H678 H 0.71739 0.62646 0.65867 0.0
C679 C 0.84321 0.55006 0.64882 0.0
N680 N 0.80783 0.55854 0.65368 0.0
C681 C 0.83378 0.50612 0.64595 0.0
C682 C 0.78776 0.47083 0.6474 0.0
H683 H 0.8789 0.57712 0.64784 0.0
H684 H 0.63305 0.43027 0.65404 0.0
H685 H 0.96674 0.70374 0.71858 0.0
H686 H 0.60997 0.48921 0.65706 0.0
H687 H 0.63413 0.5695 0.65822 0.0
H688 H 0.69505 0.4112 0.64966 0.0
H689 H 0.80616 0.75389 0.73097 0.0
H690 H 0.07465 0.84085 0.71971 0.0
H691 H 0.05011 0.76047 0.71853 0.0
H692 H 0.99032 0.91946 0.72801 0.0
H693 H 0.86201 0.49949 0.64263 0.0
H694 H 0.78053 0.43683 0.6451 0.0
H695 H 0.05199 0.90007 0.72304 0.0
H696 H 0.82348 0.83164 0.73631 0.0
N697 N 0.94363 0.75116 0.71919 0.0
C698 C 0.03785 0.81601 0.71977 0.0
C699 C 0.02414 0.77069 0.71917 0.0
C700 C 1.00388 0.82866 0.72114 0.0
C701 C 0.95647 0.79496 0.72101 0.0
C702 C 0.97665 0.73853 0.71924 0.0
N703 N 0.87702 0.77224 0.72452 0.0
C704 C 0.92199 0.80587 0.72376 0.0
C705 C 0.85154 0.82489 0.73271 0.0
C706 C 0.89758 0.86007 0.73093 0.0
C707 C 0.84187 0.78088 0.72975 0.0
C708 C 0.9336 0.85077 0.72675 0.0
H709 H 0.905 0.89413 0.73328 0.0
O710 O 0.82708 0.68783 0.75336 0.0
O711 O 0.80595 0.63979 0.69945 0.0
O712 O 0.79835 0.68308 0.66319 0.0
O713 O 0.85217 0.74011 0.68838 0.0
O714 O 0.78617 0.67504 0.72239 0.0
O715 O 0.88762 0.68003 0.75028 0.0
O716 O 0.8578 0.64304 0.62475 0.0
O717 O 0.87818 0.69112 0.67841 0.0
O718 O 0.88561 0.64735 0.71463 0.0
O719 O 0.83083 0.59023 0.68991 0.0
O720 O 0.89822 0.65573 0.65582 0.0
O721 O 0.79675 0.65009 0.62741 0.0
C722 C 0.77106 0.64034 0.7086 0.0
C723 C 0.98067 0.88471 0.72597 0.0
C724 C 0.01578 0.87366 0.72314 0.0
C725 C 0.8557 0.67892 0.76511 0.0
C726 C 0.8711 0.69955 0.78968 0.0
C727 C 0.90127 0.74576 0.79142 0.0
C728 C 0.85535 0.67296 0.81159 0.0
C729 C 0.87009 0.69248 0.8352 0.0
C730 C 0.91563 0.76533 0.81462 0.0
C731 C 0.90027 0.73908 0.83629 0.0
C732 C 0.81977 0.72491 0.67108 0.0
C733 C 0.91322 0.69073 0.66936 0.0
C734 C 0.82905 0.65149 0.61277 0.0
C735 C 0.8142 0.63059 0.58821 0.0
C736 C 0.78499 0.58422 0.58656 0.0
C737 C 0.82961 0.65703 0.56622 0.0
C738 C 0.81543 0.63716 0.54265 0.0
C739 C 0.77125 0.56431 0.5634 0.0
C740 C 0.78624 0.59039 0.54167 0.0
C741 C 0.86324 0.60526 0.70721 0.0
H742 H 0.91361 0.76666 0.77485 0.0
H743 H 0.83229 0.63717 0.8102 0.0
H744 H 0.93876 0.8011 0.81584 0.0
H745 H 0.91171 0.75548 0.854 0.0
H746 H 0.77293 0.56342 0.60318 0.0
H747 H 0.85193 0.69295 0.56752 0.0
H748 H 0.74886 0.52843 0.56227 0.0
H749 H 0.77527 0.57375 0.524 0.0
Gd750 Gd 0.30146 0.15298 0.71624 0.0
Gd751 Gd 0.37585 0.1794 0.65994 0.0
C752 C 0.50786 0.16913 0.66395 0.0
C753 C 0.56888 0.2469 0.65939 0.0
C754 C 0.48733 0.22618 0.6567 0.0
C755 C 0.47399 0.18204 0.66111 0.0
C756 C 0.53493 0.25895 0.65471 0.0
C757 C 0.55522 0.20202 0.6643 0.0
C758 C 0.49313 0.12355 0.66586 0.0
C759 C 0.44575 0.0922 0.66401 0.0
N760 N 0.42784 0.1514 0.66131 0.0
C761 C 0.41345 0.10676 0.66151 0.0
H762 H 0.37699 0.08202 0.66065 0.0
C763 C 0.46477 0.27792 0.64379 0.0
N764 N 0.45353 0.2365 0.65268 0.0
C765 C 0.51153 0.31169 0.64144 0.0
C766 C 0.5468 0.30242 0.64744 0.0
H767 H 0.43751 0.28531 0.63951 0.0
H768 H 0.58139 0.19279 0.66781 0.0
H769 H 0.3075 0.25363 0.71672 0.0
H770 H 0.51805 0.11224 0.6681 0.0
H771 H 0.43399 0.0568 0.66492 0.0
H772 H 0.60567 0.27173 0.65864 0.0
H773 H 0.2345 0.04431 0.73037 0.0
H774 H 0.16892 0.23156 0.71215 0.0
H775 H 0.25403 0.2833 0.71429 0.0
H776 H 0.07349 0.07209 0.71807 0.0
H777 H 0.5203 0.34489 0.6352 0.0
H778 H 0.58298 0.32863 0.64568 0.0
H779 H 0.10221 0.15279 0.7123 0.0
H780 H 0.15037 0.98783 0.73367 0.0
N781 N 0.2535 0.18529 0.71598 0.0
C782 C 0.19227 0.21824 0.71353 0.0
C783 C 0.24026 0.24753 0.71476 0.0
C784 C 0.17494 0.17209 0.71469 0.0
C785 C 0.20681 0.15646 0.71634 0.0
C786 C 0.27054 0.23042 0.7162 0.0
N787 N 0.2226 0.09773 0.72136 0.0
C788 C 0.19084 0.11124 0.71902 0.0
C789 C 0.16128 0.02239 0.7294 0.0
C790 C 0.12802 0.03526 0.72539 0.0
C791 C 0.20876 0.05437 0.72764 0.0
C792 C 0.14262 0.0803 0.7205 0.0
H793 H 0.09127 0.01042 0.72668 0.0
O794 O 0.30412 0.12421 0.75166 0.0
O795 O 0.36628 0.15904 0.69983 0.0
O796 O 0.3203 0.10567 0.66321 0.0
O797 O 0.25975 0.10148 0.68755 0.0
O798 O 0.32596 0.10318 0.72184 0.0
O799 O 0.31484 0.19154 0.74993 0.0
O800 O 0.36684 0.20172 0.62372 0.0
O801 O 0.31183 0.1743 0.67672 0.0
O802 O 0.36035 0.22565 0.71585 0.0
O803 O 0.41714 0.23556 0.68613 0.0
O804 O 0.35046 0.22852 0.65361 0.0
O805 O 0.36159 0.13699 0.62786 0.0
C806 C 0.36466 0.12481 0.70945 0.0
C807 C 0.1107 0.09544 0.71755 0.0
C808 C 0.12692 0.14128 0.71446 0.0
C809 C 0.31129 0.15919 0.76415 0.0
C810 C 0.28474 0.15038 0.78748 0.0
C811 C 0.23604 0.13047 0.78781 0.0
C812 C 0.30884 0.16064 0.80993 0.0
C813 C 0.28465 0.15074 0.8328 0.0
C814 C 0.2117 0.12053 0.81047 0.0
C815 C 0.23575 0.13036 0.83287 0.0
C816 C 0.27607 0.08483 0.6708 0.0
C817 C 0.31282 0.20809 0.66694 0.0
C818 C 0.36181 0.16641 0.6125 0.0
C819 C 0.38838 0.17461 0.58926 0.0
C820 C 0.43657 0.191 0.58926 0.0
C821 C 0.365 0.16669 0.56669 0.0
C822 C 0.38942 0.1752 0.54395 0.0
C823 C 0.46115 0.19957 0.56678 0.0
C824 C 0.43785 0.1918 0.54424 0.0
C825 C 0.40228 0.24912 0.70522 0.0
H826 H 0.21691 0.12237 0.77067 0.0
H827 H 0.34648 0.17556 0.80956 0.0
H828 H 0.17408 0.10506 0.81068 0.0
H829 H 0.21623 0.1226 0.85021 0.0
H830 H 0.45509 0.19722 0.60653 0.0
H831 H 0.3276 0.15336 0.56693 0.0
H832 H 0.4984 0.2124 0.56682 0.0
H833 H 0.45781 0.19921 0.52707 0.0
Gd834 Gd 0.81964 0.17962 0.65919 0.0
Gd835 Gd 0.85398 0.14741 0.7171 0.0
C836 C 0.98853 0.14353 0.72663 0.0
C837 C 0.95962 0.0639 0.73196 0.0
C838 C 0.90554 0.09104 0.72532 0.0
C839 C 0.94238 0.13451 0.72367 0.0
C840 C 0.91369 0.05523 0.72964 0.0
C841 C 0.99688 0.10796 0.73067 0.0
C842 C 0.02473 0.1881 0.72621 0.0
C843 C 0.01428 0.22236 0.72371 0.0
N844 N 0.93292 0.16815 0.72052 0.0
C845 C 0.96785 0.21173 0.7213 0.0
H846 H 0.96018 0.23851 0.71958 0.0
C847 C 0.82394 0.04206 0.72754 0.0
N848 N 0.86154 0.08399 0.72387 0.0
C849 C 0.83029 0.00541 0.73137 0.0
C850 C 0.87537 0.01196 0.73227 0.0
H851 H 0.78894 0.03663 0.72693 0.0
H852 H 0.03183 0.11418 0.73353 0.0
H853 H 0.71261 0.08901 0.65975 0.0
H854 H 0.06068 0.19644 0.72832 0.0
H855 H 0.04193 0.25696 0.72376 0.0
H856 H 0.96663 0.0369 0.73541 0.0
H857 H 0.88365 0.2866 0.64115 0.0
H858 H 0.61235 0.13105 0.65013 0.0
H859 H 0.63088 0.07073 0.65664 0.0
H860 H 0.70712 0.28869 0.63491 0.0
H861 H 0.8004 0.97217 0.73375 0.0
H862 H 0.8802 0.98357 0.73551 0.0
H863 H 0.64155 0.21233 0.64084 0.0
H864 H 0.87274 0.35016 0.63047 0.0
N865 N 0.74044 0.15938 0.65688 0.0
C866 C 0.64836 0.13937 0.65194 0.0
C867 C 0.65868 0.10524 0.65552 0.0
C868 C 0.68477 0.18367 0.64976 0.0
C869 C 0.73101 0.19273 0.65247 0.0
C870 C 0.70519 0.11583 0.65738 0.0
N871 N 0.81171 0.24184 0.64903 0.0
C872 C 0.76793 0.23546 0.64849 0.0
C873 C 0.84294 0.31815 0.63563 0.0
C874 C 0.79824 0.31261 0.63598 0.0
C875 C 0.84896 0.28199 0.64176 0.0
C876 C 0.75993 0.27062 0.64188 0.0
H877 H 0.79356 0.34048 0.63085 0.0
O878 O 0.85671 0.19852 0.62364 0.0
O879 O 0.87464 0.1716 0.6782 0.0
O880 O 0.87892 0.22172 0.71555 0.0
O881 O 0.8338 0.23378 0.68653 0.0
O882 O 0.89734 0.22697 0.65562 0.0
O883 O 0.79109 0.13659 0.62724 0.0
O884 O 0.81737 0.12277 0.75249 0.0
O885 O 0.79948 0.15714 0.69863 0.0
O886 O 0.79303 0.10499 0.6629 0.0
O887 O 0.84742 0.09961 0.68733 0.0
O888 O 0.77639 0.10034 0.72022 0.0
O889 O 0.88023 0.18773 0.75016 0.0
C890 C 0.91094 0.20561 0.66973 0.0
C891 C 0.71401 0.26221 0.6401 0.0
C892 C 0.67656 0.21873 0.64377 0.0
C893 C 0.82445 0.16398 0.61218 0.0
C894 C 0.81027 0.17305 0.588 0.0
C895 C 0.78038 0.19069 0.5867 0.0
C896 C 0.82739 0.1646 0.56593 0.0
C897 C 0.81509 0.17414 0.54261 0.0
C898 C 0.76804 0.20021 0.56371 0.0
C899 C 0.78529 0.19213 0.54179 0.0
C900 C 0.86212 0.246 0.70575 0.0
C901 C 0.76313 0.12313 0.70711 0.0
C902 C 0.84768 0.15761 0.76466 0.0
C903 C 0.86275 0.14867 0.78859 0.0
C904 C 0.89232 0.13065 0.78942 0.0
C905 C 0.84749 0.15849 0.81089 0.0
C906 C 0.86207 0.15075 0.83401 0.0
C907 C 0.90663 0.12258 0.81221 0.0
C908 C 0.89175 0.13258 0.83436 0.0
C909 C 0.81496 0.0838 0.6702 0.0
H910 H 0.76656 0.19708 0.60341 0.0
H911 H 0.85076 0.15122 0.56694 0.0
H912 H 0.74491 0.21382 0.56287 0.0
H913 H 0.77473 0.19933 0.52418 0.0
H914 H 0.90438 0.12288 0.77252 0.0
H915 H 0.82498 0.17285 0.81021 0.0
H916 H 0.92939 0.10855 0.81272 0.0
H917 H 0.90313 0.1257 0.85179 0.0
C918 C 0.30852 0.90726 0.0621 0.0
C919 C 0.30216 0.86417 0.06521 0.0
H920 H 0.35488 0.97531 0.05104 0.0
C921 C 0.33777 0.85607 0.05724 0.0
H922 H 0.28152 0.91434 0.06792 0.0
C923 C 0.38015 0.89123 0.04783 0.0
C924 C 0.387 0.9347 0.04561 0.0
H925 H 0.33382 0.82318 0.05956 0.0
H926 H 0.40811 0.88475 0.04338 0.0
C927 C 0.35039 0.94206 0.05236 0.0
C928 C 0.10731 0.40494 0.06381 0.0
C929 C 0.15188 0.4421 0.06718 0.0
H930 H 0.03672 0.38099 0.05308 0.0
C931 C 0.15982 0.48484 0.06046 0.0
H932 H 0.10024 0.37166 0.06881 0.0
C933 C 0.12304 0.49031 0.05166 0.0
C934 C 0.07816 0.45295 0.04886 0.0
H935 H 0.19381 0.51407 0.06304 0.0
H936 H 0.12931 0.52371 0.04786 0.0
C937 C 0.07101 0.4103 0.05477 0.0
C938 C 0.56302 0.70132 0.0469 0.0
C939 C 0.56283 0.70393 0.07298 0.0
H940 H 0.55141 0.6599 1.01539 0.0
C941 C 0.54934 0.66501 0.08727 0.0
H942 H 0.57421 0.73081 0.03531 0.0
C943 C 0.53692 0.62464 0.07576 0.0
C944 C 0.53695 0.6222 0.04976 0.0
H945 H 0.54797 0.66558 0.10737 0.0
H946 H 0.52686 0.59517 0.08721 0.0
C947 C 0.54985 0.66072 0.03541 0.0
C948 C 0.90185 0.30598 0.97166 0.0
C949 C 0.85313 0.28673 0.97428 0.0
H950 H 0.96942 0.36153 0.97919 0.0
C951 C 0.83567 0.30998 0.98781 0.0
H952 H 0.91672 0.28867 0.96189 0.0
C953 C 0.86609 0.35166 0.99802 0.0
C954 C 0.91471 0.37118 0.99492 0.0
H955 H 0.79846 0.29651 0.99003 0.0
H956 H 0.85137 0.36892 1.00797 0.0
C957 C 0.9322 0.34775 0.9817 0.0
C958 C 0.67546 0.51534 0.98536 0.0
C959 C 0.71156 0.55744 0.97704 0.0
H960 H 0.60466 0.47692 0.99912 0.0
C961 C 0.70473 0.59433 0.97877 0.0
H962 H 0.67957 0.48624 0.98412 0.0
C963 C 0.66255 0.58921 0.98778 0.0
C964 C 0.62574 0.54703 0.99528 0.0
H965 H 0.7319 0.62723 0.97266 0.0
H966 H 0.65827 0.61829 0.98832 0.0
C967 C 0.63267 0.51005 0.99404 0.0
C968 C 0.44368 0.14358 0.9947 0.0
C969 C 0.44097 0.14518 0.96864 0.0
H970 H 0.45906 0.11515 0.02606 0.0
C971 C 0.45206 0.11792 0.95426 0.0
H972 H 0.43426 0.16324 1.00642 0.0
C973 C 0.46576 0.09 0.96569 0.0
C974 C 0.46931 0.08927 0.99165 0.0
H975 H 0.45104 0.11873 0.93418 0.0
H976 H 0.47434 0.0695 0.95416 0.0
C977 C 0.45807 0.11618 1.00604 0.0
C978 C 0.67261 0.14231 0.9846 0.0
C979 C 0.70811 0.13409 0.97652 0.0
H980 H 0.60244 0.11375 0.99893 0.0
C981 C 0.70159 0.09094 0.97951 0.0
H982 H 0.67676 0.17531 0.98243 0.0
C983 C 0.65982 0.05625 0.98937 0.0
C984 C 0.62342 0.06376 0.99639 0.0
H985 H 0.72852 0.08379 0.97367 0.0
H986 H 0.65535 0.02302 0.99075 0.0
C987 C 0.63027 0.10723 0.99416 0.0
C988 C 0.90807 0.59141 0.98313 0.0
C989 C 0.86321 0.55461 0.97971 0.0
H990 H 0.97875 0.61451 0.99339 0.0
C991 C 0.8548 0.51169 0.98644 0.0
H992 H 0.91562 0.62483 0.9781 0.0
C993 C 0.89141 0.50566 0.99503 0.0
C994 C 0.93672 0.54261 0.99751 0.0
H995 H 0.82068 0.48268 0.98378 0.0
H996 H 0.88473 0.4721 0.99871 0.0
C997 C 0.94422 0.58548 0.99188 0.0
C998 C 0.44876 0.29609 0.99418 0.0
C999 C 0.44714 0.29248 0.96813 0.0
H1000 H 0.4627 0.33866 0.02537 0.0
C1001 C 0.46017 0.33097 0.95353 0.0
H1002 H 0.43799 0.26697 1.00603 0.0
C1003 C 0.47378 0.37188 0.96475 0.0
C1004 C 0.47537 0.37527 0.99072 0.0
H1005 H 0.46014 0.32962 0.93345 0.0
H1006 H 0.48335 0.40099 0.95307 0.0
C1007 C 0.46306 0.33718 1.00535 0.0
C1008 C 0.17769 0.68692 0.05663 0.0
C1009 C 0.15985 0.70983 0.07017 0.0
H1010 H 0.16268 0.62784 0.03683 0.0
C1011 C 0.11114 0.68969 0.0733 0.0
H1012 H 0.21494 0.70108 0.05406 0.0
C1013 C 0.08115 0.64752 0.06358 0.0
C1014 C 0.09902 0.62453 0.05023 0.0
H1015 H 0.096 0.70667 0.08315 0.0
H1016 H 0.04391 0.63311 0.0664 0.0
C1017 C 0.14764 0.6448 0.04679 0.0
C1018 C 0.33787 0.48106 0.05582 0.0
C1019 C 0.30279 0.43898 0.06479 0.0
H1020 H 0.40769 0.51981 0.0408 0.0
C1021 C 0.30974 0.40226 0.06252 0.0
H1022 H 0.33352 0.50999 0.05739 0.0
C1023 C 0.35143 0.40766 0.05264 0.0
C1024 C 0.38757 0.44995 0.04483 0.0
H1025 H 0.28322 0.36937 0.06904 0.0
H1026 H 0.35607 0.3788 0.05189 0.0
C1027 C 0.3802 0.48664 0.04622 0.0
C1028 C 0.51927 0.83196 0.06303 0.0
C1029 C 0.5625 0.84846 0.07485 0.0
H1030 H 0.47401 0.84745 0.04246 0.0
C1031 C 0.59336 0.89486 0.07499 0.0
H1032 H 0.4942 0.79649 0.06295 0.0
C1033 C 0.58129 0.92401 0.0637 0.0
C1034 C 0.53841 0.90743 0.05168 0.0
H1035 H 0.62727 0.90875 0.08345 0.0
H1036 H 0.60596 0.95955 0.06415 0.0
C1037 C 0.50755 0.86113 0.05135 0.0
C1038 C 0.00923 0.18765 0.39253 0.0
C1039 C 0.97333 0.1952 0.40068 0.0
H1040 H 0.07935 0.21706 0.37826 0.0
C1041 C 0.97902 0.23806 0.39768 0.0
H1042 H 1.00577 0.15493 0.39472 0.0
C1043 C 0.02054 0.27318 0.3879 0.0
C1044 C 0.05732 0.2663 0.38089 0.0
H1045 H 0.95171 0.24468 0.40352 0.0
H1046 H 0.02456 0.30625 0.38663 0.0
C1047 C 0.05118 0.22309 0.38298 0.0
C1048 C 0.82317 0.81547 0.39206 0.0
C1049 C 0.8153 0.77293 0.39913 0.0
H1050 H 0.79271 0.85404 0.37897 0.0
C1051 C 0.7705 0.73572 0.39619 0.0
H1052 H 0.85721 0.84476 0.3944 0.0
C1053 C 0.73406 0.74089 0.38712 0.0
C1054 C 0.74133 0.78337 0.38064 0.0
H1055 H 0.76338 0.70257 0.40155 0.0
H1056 H 0.69973 0.71158 0.38563 0.0
C1057 C 0.78631 0.82072 0.3832 0.0
C1058 C 0.26715 0.02074 0.40667 0.0
C1059 C 0.23714 0.03844 0.40588 0.0
H1060 H 0.27822 0.96695 0.39683 0.0
C1061 C 0.19442 0.01454 0.39355 0.0
H1062 H 0.30071 0.03864 0.41554 0.0
C1063 C 0.18201 0.9739 0.38233 0.0
C1064 C 0.21171 0.95596 0.38356 0.0
H1065 H 0.17009 0.02679 0.39291 0.0
H1066 H 0.14869 0.9561 0.37317 0.0
C1067 C 0.25441 0.97977 0.39579 0.0
C1068 C 0.52 0.62574 0.33059 0.0
C1069 C 0.51468 0.62153 0.30464 0.0
H1070 H 0.55431 0.66903 0.36104 0.0
C1071 C 0.54015 0.66011 0.28961 0.0
H1072 H 0.502 0.59685 0.34283 0.0
C1073 C 0.57093 0.70127 0.30016 0.0
C1074 C 0.57609 0.70512 0.32599 0.0
H1075 H 0.53639 0.65867 0.26964 0.0
H1076 H 0.59038 0.73025 0.28811 0.0
C1077 C 0.5501 0.66715 0.34113 0.0
C1078 C 0.34384 0.84607 0.32007 0.0
C1079 C 0.37938 0.88827 0.31144 0.0
H1080 H 0.27335 0.80723 0.33431 0.0
C1081 C 0.37253 0.92504 0.31376 0.0
H1082 H 0.34811 0.8171 0.31849 0.0
C1083 C 0.33056 0.91961 0.32324 0.0
C1084 C 0.29391 0.87724 0.33057 0.0
H1085 H 0.39935 0.95802 0.30754 0.0
H1086 H 0.32604 0.94855 0.32389 0.0
C1087 C 0.30117 0.84046 0.32927 0.0
C1088 C 0.08259 0.4334 0.30319 0.0
C1089 C 0.1123 0.47995 0.30409 0.0
H1090 H 0.07168 0.3689 0.31308 0.0
C1091 C 0.15493 0.49693 0.31658 0.0
H1092 H 0.04912 0.41912 0.29422 0.0
C1093 C 0.16743 0.46806 0.32794 0.0
C1094 C 0.1379 0.42158 0.3267 0.0
H1095 H 0.17906 0.53259 0.31732 0.0
H1096 H 0.20062 0.48215 0.33723 0.0
C1097 C 0.09539 0.40457 0.31422 0.0
C1098 C 0.33912 0.47404 0.31729 0.0
C1099 C 0.37468 0.46609 0.309 0.0
H1100 H 0.26931 0.4452 0.332 0.0
C1101 C 0.36884 0.42323 0.31225 0.0
H1102 H 0.34271 0.50678 0.31494 0.0
C1103 C 0.32748 0.38846 0.3224 0.0
C1104 C 0.29096 0.39568 0.32951 0.0
H1105 H 0.39591 0.41631 0.30633 0.0
H1106 H 0.32331 0.35534 0.32382 0.0
C1107 C 0.29729 0.43893 0.3272 0.0
C1108 C 0.52459 0.84565 0.31759 0.0
C1109 C 0.53237 0.88825 0.31074 0.0
H1110 H 0.55525 0.80697 0.3302 0.0
C1111 C 0.57724 0.92541 0.31353 0.0
H1112 H 0.4905 0.81638 0.31533 0.0
C1113 C 0.61384 0.92016 0.32225 0.0
C1114 C 0.60665 0.87763 0.32853 0.0
H1115 H 0.58429 0.9586 0.30831 0.0
H1116 H 0.64822 0.94944 0.32363 0.0
C1117 C 0.5616 0.84031 0.32612 0.0
C1118 C 0.15371 0.64807 0.31721 0.0
C1119 C 0.111 0.62412 0.30488 0.0
H1120 H 0.19945 0.70662 0.3375 0.0
C1121 C 0.08098 0.64183 0.30403 0.0
H1122 H 0.17804 0.63583 0.3179 0.0
C1123 C 0.09374 0.68286 0.31483 0.0
C1124 C 0.13646 0.70674 0.32703 0.0
H1125 H 0.04742 0.62388 0.29517 0.0
H1126 H 0.06995 0.6957 0.31374 0.0
C1127 C 0.16614 0.68878 0.32835 0.0
C1128 C 0.82835 0.03536 0.37836 0.0
C1129 C 0.83369 0.03937 0.40431 0.0
H1130 H 0.79394 0.99226 0.34784 0.0
C1131 C 0.80835 0.00067 0.41926 0.0
H1132 H 0.84632 0.06434 0.36619 0.0
C1133 C 0.77756 0.95959 0.40865 0.0
C1134 C 0.77226 0.95594 0.38283 0.0
H1135 H 0.81217 0.00196 0.43923 0.0
H1136 H 0.75818 0.93052 0.42065 0.0
C1137 C 0.79822 0.99401 0.36775 0.0
C1138 C 1.004 0.81595 0.39052 0.0
C1139 C 0.96862 0.77367 0.39917 0.0
H1140 H 0.07443 0.85508 0.37622 0.0
C1141 C 0.97572 0.73707 0.39684 0.0
H1142 H 0.99952 0.84481 0.3921 0.0
C1143 C 0.01774 0.74271 0.38728 0.0
C1144 C 0.05422 0.78516 0.3799 0.0
H1145 H 0.94904 0.70403 0.40306 0.0
H1146 H 0.02243 0.71387 0.3866 0.0
C1147 C 0.04673 0.82179 0.38127 0.0
C1148 C 0.19344 0.16568 0.39417 0.0
C1149 C 0.23613 0.18271 0.40662 0.0
H1150 H 0.14771 0.18038 0.3735 0.0
C1151 C 0.26586 0.22925 0.40743 0.0
H1152 H 0.16928 0.13003 0.3935 0.0
C1153 C 0.25305 0.25804 0.39636 0.0
C1154 C 0.2105 0.24098 0.38391 0.0
H1155 H 0.29937 0.24357 0.41637 0.0
H1156 H 0.27678 0.29372 0.39742 0.0
C1157 C 0.18094 0.1945 0.38276 0.0
C1158 C 0.67463 0.52286 0.72487 0.0
C1159 C 0.63891 0.53117 0.73231 0.0
H1160 H 0.74533 0.5513 0.71162 0.0
C1161 C 0.64545 0.57428 0.72891 0.0
H1162 H 0.67051 0.48993 0.72739 0.0
C1163 C 0.68768 0.60895 0.71953 0.0
C1164 C 0.72431 0.60135 0.71333 0.0
H1165 H 0.61831 0.58147 0.73424 0.0
H1166 H 0.69238 0.64227 0.71804 0.0
C1167 C 0.7173 0.55786 0.71571 0.0
C1168 C 0.48719 0.15158 0.72733 0.0
C1169 C 0.47922 0.10885 0.73399 0.0
H1170 H 0.4569 0.19056 0.71464 0.0
C1171 C 0.43426 0.07183 0.73115 0.0
H1172 H 0.52134 0.18074 0.72964 0.0
C1173 C 0.39783 0.07732 0.7224 0.0
C1174 C 0.40532 0.11994 0.71612 0.0
H1175 H 0.42705 0.03854 0.73624 0.0
H1176 H 0.36342 0.04813 0.72086 0.0
C1177 C 0.45037 0.15715 0.71873 0.0
C1178 C 0.90186 0.36805 0.71477 0.0
C1179 C 0.90123 0.37059 0.74084 0.0
H1180 H 0.89028 0.32667 0.68328 0.0
C1181 C 0.88782 0.33163 0.75511 0.0
H1182 H 0.91311 0.39754 0.70317 0.0
C1183 C 0.87548 0.29123 0.74358 0.0
C1184 C 0.87544 0.2888 0.71759 0.0
H1185 H 0.88616 0.3321 0.77519 0.0
H1186 H 0.86507 0.26167 0.755 0.0
C1187 C 0.88873 0.32745 0.70328 0.0
C1188 C 0.16523 0.97906 0.65276 0.0
C1189 C 0.18323 0.95623 0.63925 0.0
H1190 H 0.18029 0.03781 0.67308 0.0
C1191 C 0.2319 0.9758 0.63672 0.0
H1192 H 0.12793 0.96516 0.65489 0.0
C1193 C 0.26178 0.01736 0.64699 0.0
C1194 C 0.24391 0.04039 0.66032 0.0
H1195 H 0.24711 0.95879 0.62695 0.0
H1196 H 0.29899 0.03126 0.64452 0.0
C1197 C 0.19526 0.02072 0.66318 0.0
C1198 C 0.00819 0.18034 0.6543 0.0
C1199 C 0.04406 0.22303 0.64655 0.0
H1200 H 0.93716 0.1407 0.66763 0.0
C1201 C 0.03725 0.25967 0.64969 0.0
H1202 H 0.01237 0.15143 0.65201 0.0
C1203 C 0.99496 0.25371 0.65903 0.0
C1204 C 0.95795 0.21091 0.66539 0.0
H1205 H 0.06426 0.29297 0.64405 0.0
H1206 H 0.99042 0.2826 0.66021 0.0
C1207 C 0.96523 0.17422 0.66338 0.0
C1208 C 0.7505 0.76725 0.63645 0.0
C1209 C 0.7798 0.81384 0.63758 0.0
H1210 H 0.74008 0.70284 0.64607 0.0
C1211 C 0.82212 0.83094 0.65041 0.0
H1212 H 0.71725 0.75284 0.62722 0.0
C1213 C 0.83479 0.80215 0.66173 0.0
C1214 C 0.80576 0.75564 0.66016 0.0
H1215 H 0.84597 0.86663 0.65135 0.0
H1216 H 0.86779 0.81635 0.67123 0.0
C1217 C 0.76347 0.73853 0.64745 0.0
C1218 C 0.03746 0.75849 0.64679 0.0
C1219 C 0.04299 0.80128 0.64379 0.0
H1220 H 0.99217 0.69033 0.65799 0.0
C1221 C 0.0072 0.80882 0.65214 0.0
H1222 H 0.0647 0.75191 0.64074 0.0
C1223 C 0.96539 0.77337 0.66181 0.0
C1224 C 0.95933 0.73019 0.66387 0.0
H1225 H 0.01058 0.84151 0.64994 0.0
H1226 H 0.93722 0.77936 0.6666 0.0
C1227 C 0.99612 0.72338 0.65675 0.0
C1228 C 0.24246 0.26056 0.64551 0.0
C1229 C 0.19736 0.2235 0.64323 0.0
H1230 H 0.31365 0.28451 0.65523 0.0
C1231 C 0.18953 0.18102 0.65041 0.0
H1232 H 0.24957 0.29367 0.64006 0.0
C1233 C 0.2266 0.17567 0.65881 0.0
C1234 C 0.27181 0.21289 0.66087 0.0
H1235 H 0.15526 0.15181 0.64857 0.0
H1236 H 0.22008 0.14236 0.6631 0.0
C1237 C 0.27913 0.25532 0.65419 0.0
C1238 C 0.82043 0.98227 0.64969 0.0
C1239 C 0.77828 0.95813 0.6369 0.0
H1240 H 0.86491 0.04073 0.67037 0.0
C1241 C 0.74805 0.97557 0.6355 0.0
H1242 H 0.84492 0.97026 0.6508 0.0
C1243 C 0.75998 0.01642 0.64632 0.0
C1244 C 0.80205 0.04038 0.65908 0.0
H1245 H 0.7149 0.95748 0.62625 0.0
H1246 H 0.73599 0.02898 0.64486 0.0
C1247 C 0.83203 0.02281 0.66081 0.0
C1248 C 0.49132 0.37198 0.71083 0.0
C1249 C 0.49732 0.37649 0.73672 0.0
H1250 H 0.45593 0.3283 0.6807 0.0
C1251 C 0.47197 0.33819 0.75197 0.0
H1252 H 0.50928 0.40069 0.69847 0.0
C1253 C 0.4407 0.29694 0.7417 0.0
C1254 C 0.43494 0.29277 0.71592 0.0
H1255 H 0.47624 0.33993 0.77192 0.0
H1256 H 0.4215 0.26812 0.75389 0.0
C1257 C 0.46067 0.33049 0.70057 0.0
C1258 C 0.63813 0.07124 0.72931 0.0
C1259 C 0.6319 0.10827 0.73216 0.0
H1260 H 0.68381 0.04718 0.71851 0.0
C1261 C 0.66779 0.15054 0.72382 0.0
H1262 H 0.61102 0.03821 0.73528 0.0
C1263 C 0.7102 0.15587 0.71435 0.0
C1264 C 0.71684 0.11877 0.71257 0.0
H1265 H 0.66396 0.17971 0.72579 0.0
H1266 H 0.73828 0.18905 0.70942 0.0
C1267 C 0.67983 0.0764 0.71961 0.0
C1268 C 0.93032 0.56135 0.74261 0.0
C1269 C 0.89979 0.51489 0.7421 0.0
H1270 H 0.94279 0.62613 0.73202 0.0
C1271 C 0.8571 0.49842 0.72971 0.0
H1272 H 0.96385 0.57527 0.7515 0.0
C1273 C 0.84551 0.52766 0.71795 0.0
C1274 C 0.87597 0.57404 0.71871 0.0
H1275 H 0.83226 0.46291 0.72929 0.0
H1276 H 0.81233 0.51395 0.70868 0.0
C1277 C 0.9184 0.59056 0.73122 0.0
C1278 C 0.45689 0.93876 0.21849 0.0
C1279 C 0.48935 0.94958 0.23768 0.0
H1280 H 0.4443 0.95341 0.18139 0.0
C1281 C 0.53546 0.98428 0.23328 0.0
H1282 H 0.42117 0.91204 0.22111 0.0
C1283 C 0.54869 0.00767 0.21058 0.0
C1284 C 0.5163 0.99729 0.19145 0.0
H1285 H 0.5614 0.99406 0.2476 0.0
H1286 H 0.58457 0.03411 0.20804 0.0
C1287 C 0.47026 0.96215 0.19561 0.0
C1288 C 0.99756 0.52543 0.23266 0.0
C1289 C 0.03463 0.51698 0.23538 0.0
H1290 H 0.94479 0.52281 0.20899 0.0
C1291 C 0.04571 0.49737 0.21567 0.0
H1292 H 0.98775 0.53999 0.24763 0.0
C1293 C 0.02066 0.48699 0.19361 0.0
C1294 C 0.98395 0.49597 0.19079 0.0
H1295 H 0.07426 0.49071 0.21711 0.0
H1296 H 0.02998 0.47181 0.17877 0.0
C1297 C 0.97255 0.51508 0.21063 0.0
C1298 C 0.48379 0.47266 0.23247 0.0
C1299 C 0.48443 0.5133 0.23568 0.0
H1300 H 0.49745 0.43171 0.20809 0.0
C1301 C 0.4991 0.54399 0.21565 0.0
H1302 H 0.47297 0.44844 0.24758 0.0
C1303 C 0.51305 0.53436 0.19299 0.0
C1304 C 0.51313 0.49404 0.18994 0.0
H1305 H 0.4996 0.57542 0.21746 0.0
H1306 H 0.52469 0.55891 0.17803 0.0
C1307 C 0.49817 0.46324 0.20992 0.0
C1308 C 0.01658 0.52026 0.81366 0.0
C1309 C 0.97771 0.47745 0.81044 0.0
H1310 H 0.07184 0.56397 0.83762 0.0
C1311 C 0.96462 0.44544 0.82966 0.0
H1312 H 0.02764 0.54547 0.79908 0.0
C1313 C 0.98982 0.456 0.85164 0.0
C1314 C 0.0289 0.49867 0.85481 0.0
H1315 H 0.93463 0.41228 0.82775 0.0
H1316 H 0.979 0.43057 0.86608 0.0
C1317 C 0.04211 0.53069 0.83558 0.0
C1318 C 0.51359 0.45483 0.82511 0.0
C1319 C 0.52852 0.48548 0.80507 0.0
H1320 H 0.48773 0.44009 0.86265 0.0
C1321 C 0.52942 0.52626 0.80814 0.0
H1322 H 0.51291 0.4233 0.82337 0.0
C1323 C 0.515 0.53585 0.83062 0.0
C1324 C 0.49977 0.50507 0.8506 0.0
H1325 H 0.54047 0.55042 0.793 0.0
H1326 H 0.51592 0.56749 0.83239 0.0
C1327 C 0.49958 0.46461 0.84766 0.0
C1328 C 0.47628 0.01016 0.81007 0.0
C1329 C 0.5223 0.0452 0.80588 0.0
H1330 H 0.42726 0.95956 0.83502 0.0
C1331 C 0.55473 0.0557 0.82504 0.0
H1332 H 0.4504 0.00064 0.79573 0.0
C1333 C 0.54138 0.03177 0.84773 0.0
C1334 C 0.49541 0.9964 0.85172 0.0
H1335 H 0.59038 0.08265 0.82256 0.0
H1336 H 0.56731 0.04037 0.86196 0.0
C1337 C 0.46308 0.9862 0.83259 0.0
C1338 C 0.16797 0.26918 0.55161 0.0
C1339 C 0.14934 0.28279 0.57107 0.0
H1340 H 0.19622 0.28171 0.51439 0.0
C1341 C 0.14347 0.31989 0.56688 0.0
H1342 H 0.17264 0.24054 0.55411 0.0
C1343 C 0.1572 0.34355 0.5442 0.0
C1344 C 0.17671 0.33054 0.52492 0.0
H1345 H 0.12958 0.33156 0.58143 0.0
H1346 H 0.15291 0.37243 0.54183 0.0
C1347 C 0.18114 0.29253 0.52876 0.0
C1348 C 0.66514 0.80838 0.56473 0.0
C1349 C 0.70527 0.85054 0.56731 0.0
H1350 H 0.60871 0.7649 0.54133 0.0
C1351 C 0.71972 0.88148 0.54746 0.0
H1352 H 0.65306 0.78406 0.57983 0.0
C1353 C 0.69447 0.87052 0.52549 0.0
C1354 C 0.65398 0.82858 0.52301 0.0
H1355 H 0.75067 0.91412 0.54891 0.0
H1356 H 0.70625 0.89512 0.51054 0.0
C1357 C 0.63955 0.79761 0.54284 0.0
C1358 C 0.15029 0.80914 0.56634 0.0
C1359 C 0.15029 0.8495 0.56944 0.0
H1360 H 0.1654 0.76883 0.54226 0.0
C1361 C 0.1651 0.88024 0.54943 0.0
H1362 H 0.13946 0.7849 0.58143 0.0
C1363 C 0.18009 0.87107 0.52697 0.0
C1364 C 0.18103 0.83112 0.52408 0.0
H1365 H 0.16513 0.91146 0.55114 0.0
H1366 H 0.19199 0.89575 0.51207 0.0
C1367 C 0.1656 0.80013 0.54397 0.0
C1368 C 0.62951 0.77981 0.1614 0.0
C1369 C 0.64273 0.81128 0.14189 0.0
H1370 H 0.64427 0.76574 0.19793 0.0
C1371 C 0.68243 0.85373 0.14453 0.0
H1372 H 0.59891 0.74693 0.1599 0.0
C1373 C 0.70858 0.86439 0.16623 0.0
C1374 C 0.6951 0.833 0.1858 0.0
H1375 H 0.69355 0.87848 0.12969 0.0
H1376 H 0.73894 0.8974 0.16786 0.0
C1377 C 0.65528 0.79065 0.18318 0.0
C1378 C 0.18142 0.78582 0.15997 0.0
C1379 C 0.19617 0.81695 0.14016 0.0
H1380 H 0.15524 0.76981 0.19745 0.0
C1381 C 0.19713 0.85765 0.14379 0.0
H1382 H 0.18072 0.75434 0.15786 0.0
C1383 C 0.18262 0.86652 0.16646 0.0
C1384 C 0.16708 0.83507 0.18614 0.0
H1385 H 0.208 0.88222 0.12887 0.0
H1386 H 0.18342 0.89805 0.16857 0.0
C1387 C 0.16724 0.79485 0.18273 0.0
C1388 C 0.201 0.34246 0.14367 0.0
C1389 C 0.19625 0.38026 0.13972 0.0
H1390 H 0.19057 0.2893 0.16848 0.0
C1391 C 0.17828 0.39427 0.15931 0.0
H1392 H 0.21432 0.33047 0.12899 0.0
C1393 C 0.1649 0.37074 0.1821 0.0
C1394 C 0.16841 0.33218 0.18573 0.0
H1395 H 0.17445 0.42342 0.15697 0.0
H1396 H 0.15049 0.38195 0.19663 0.0
C1397 C 0.18704 0.31864 0.16627 0.0
C1398 C 0.79383 0.60735 0.88554 0.0
C1399 C 0.82563 0.61736 0.90499 0.0
H1400 H 0.78269 0.62266 0.84831 0.0
C1401 C 0.87224 0.65116 0.90083 0.0
H1402 H 0.75775 0.58128 0.88793 0.0
C1403 C 0.88653 0.67456 0.87813 0.0
C1404 C 0.85474 0.66508 0.85877 0.0
H1405 H 0.89775 0.66033 0.91534 0.0
H1406 H 0.92274 0.70033 0.87579 0.0
C1407 C 0.80824 0.63074 0.86269 0.0
C1408 C 0.32133 0.14085 0.89813 0.0
C1409 C 0.36175 0.18277 0.90086 0.0
H1410 H 0.26498 0.09794 0.87448 0.0
C1411 C 0.37629 0.21405 0.88117 0.0
H1412 H 0.30915 0.11622 0.91307 0.0
C1413 C 0.35114 0.20364 0.85918 0.0
C1414 C 0.31067 0.16181 0.85643 0.0
H1415 H 0.40751 0.24649 0.88265 0.0
H1416 H 0.36322 0.2285 0.84436 0.0
C1417 C 0.29586 0.13057 0.87617 0.0
C1418 C 0.78643 0.16041 0.88454 0.0
C1419 C 0.81882 0.1816 0.90355 0.0
H1420 H 0.77466 0.13424 0.84762 0.0
C1421 C 0.86545 0.19297 0.89933 0.0
H1422 H 0.75033 0.15151 0.88714 0.0
C1423 C 0.87934 0.1832 0.87677 0.0
C1424 C 0.84705 0.16196 0.85775 0.0
H1425 H 0.8912 0.20893 0.91364 0.0
H1426 H 0.91558 0.19256 0.87416 0.0
C1427 C 0.80045 0.15091 0.86183 0.0
C1428 C 0.30326 0.16588 0.49494 0.0
C1429 C 0.31383 0.14561 0.47536 0.0
H1430 H 0.31923 0.19175 0.53175 0.0
C1431 C 0.35031 0.13636 0.47827 0.0
H1432 H 0.27518 0.17317 0.49338 0.0
C1433 C 0.37512 0.14641 0.50037 0.0
C1434 C 0.36417 0.16611 0.52009 0.0
H1435 H 0.35979 0.12134 0.46342 0.0
H1436 H 0.4023 0.13793 0.50215 0.0
C1437 C 0.32817 0.17604 0.51704 0.0
C1438 C 0.84725 0.11551 0.49338 0.0
C1439 C 0.8627 0.14665 0.47354 0.0
H1440 H 0.82032 0.09981 0.53073 0.0
C1441 C 0.86363 0.18739 0.47689 0.0
H1442 H 0.84655 0.084 0.49146 0.0
C1443 C 0.84871 0.19646 0.49936 0.0
C1444 C 0.83281 0.16515 0.51911 0.0
H1445 H 0.87503 0.21195 0.46194 0.0
H1446 H 0.84966 0.22808 0.50129 0.0
C1447 C 0.83268 0.12474 0.51594 0.0
C1448 C 0.88986 0.72259 0.49194 0.0
C1449 C 0.85761 0.71176 0.47264 0.0
H1450 H 0.90203 0.70812 0.52917 0.0
C1451 C 0.81142 0.67716 0.47698 0.0
H1452 H 0.92562 0.74924 0.48939 0.0
C1453 C 0.7979 0.65392 0.49973 0.0
C1454 C 0.83007 0.66432 0.51899 0.0
H1455 H 0.78561 0.66734 0.46258 0.0
H1456 H 0.76197 0.62758 0.50221 0.0
C1457 C 0.8762 0.69934 0.51487 0.0
loop_
_geom_bond_atom_site_label_1
_geom_bond_atom_site_label_2
_geom_bond_distance
_geom_bond_site_symmetry_2
_ccdc_geom_bond_type
H0 C3 0.931 . S
H1 C6 0.928 . S
H2 C8 0.930 . S
C3 H0 0.931 . S
C3 C4 1.413 . S
C3 C5 1.360 . S
C4 C3 1.413 . S
C4 C8 1.429 . S
C5 C3 1.360 . S
C5 C6 1.372 . S
C6 H1 0.928 . S
C6 C5 1.372 . S
C6 C7 1.404 . S
C7 C6 1.404 . S
C7 C8 1.391 . S
C8 H2 0.930 . S
C8 C4 1.429 . S
C8 C7 1.391 . S
H9 C12 0.931 . S
H10 C15 0.928 . S
H11 C17 0.930 . S
C12 H9 0.931 . S
C12 C13 1.413 . S
C12 C14 1.360 . S
C13 C12 1.413 . S
C13 C17 1.429 . S
C14 C12 1.360 . S
C14 C15 1.372 . S
C15 H10 0.928 . S
C15 C14 1.372 . S
C15 C16 1.404 . S
C16 C15 1.404 . S
C16 C17 1.391 . S
C17 H11 0.930 . S
C17 C13 1.429 . S
C17 C16 1.391 . S
H18 C21 0.931 . S
H19 C24 0.928 . S
H20 C26 0.930 . S
C21 H18 0.931 . S
C21 C22 1.413 . S
C21 C23 1.360 . S
C22 C21 1.413 . S
C22 C26 1.429 . S
C23 C21 1.360 . S
C23 C24 1.372 . S
C24 H19 0.928 . S
C24 C23 1.372 . S
C24 C25 1.404 . S
C25 C24 1.404 . S
C25 C26 1.391 . S
C26 H20 0.930 . S
C26 C22 1.429 . S
C26 C25 1.391 . S
H27 C30 0.931 . S
H28 C33 0.928 . S
H29 C35 0.930 . S
C30 H27 0.931 . S
C30 C31 1.413 . S
C30 C32 1.360 . S
C31 C30 1.413 . S
C31 C35 1.429 . S
C32 C30 1.360 . S
C32 C33 1.372 . S
C33 H28 0.928 . S
C33 C32 1.372 . S
C33 C34 1.404 . S
C34 C33 1.404 . S
C34 C35 1.391 . S
C35 H29 0.930 . S
C35 C31 1.429 . S
C35 C34 1.391 . S
H36 C39 0.931 . S
H37 C42 0.928 . S
H38 C44 0.930 . S
C39 H36 0.931 . S
C39 C40 1.413 . S
C39 C41 1.360 . S
C40 C39 1.413 . S
C40 C44 1.429 . S
C41 C39 1.360 . S
C41 C42 1.372 . S
C42 H37 0.928 . S
C42 C41 1.372 . S
C42 C43 1.404 . S
C43 C42 1.404 . S
C43 C44 1.391 . S
C44 H38 0.930 . S
C44 C40 1.429 . S
C44 C43 1.391 . S
H45 C48 0.931 . S
H46 C51 0.928 . S
H47 C53 0.930 . S
C48 H45 0.931 . S
C48 C49 1.413 . S
C48 C50 1.360 . S
C49 C48 1.413 . S
C49 C53 1.429 . S
C50 C48 1.360 . S
C50 C51 1.372 . S
C51 H46 0.928 . S
C51 C50 1.372 . S
C51 C52 1.404 . S
C52 C51 1.404 . S
C52 C53 1.391 . S
C53 H47 0.930 . S
C53 C49 1.429 . S
C53 C52 1.391 . S
H54 C57 0.931 . S
H55 C60 0.928 . S
H56 C62 0.930 . S
C57 H54 0.931 . S
C57 C58 1.413 . S
C57 C59 1.360 . S
C58 C57 1.413 . S
C58 C62 1.429 . S
C59 C57 1.360 . S
C59 C60 1.372 . S
C60 H55 0.928 . S
C60 C59 1.372 . S
C60 C61 1.404 . S
C61 C60 1.404 . S
C61 C62 1.391 . S
C62 H56 0.930 . S
C62 C58 1.429 . S
C62 C61 1.391 . S
H63 C66 0.931 . S
H64 C69 0.928 . S
H65 C71 0.930 . S
C66 H63 0.931 . S
C66 C67 1.413 . S
C66 C68 1.360 . S
C67 C66 1.413 . S
C67 C71 1.429 . S
C68 C66 1.360 . S
C68 C69 1.372 . S
C69 H64 0.928 . S
C69 C68 1.372 . S
C69 C70 1.404 . S
C70 C69 1.404 . S
C70 C71 1.391 . S
C71 H65 0.930 . S
C71 C67 1.429 . S
C71 C70 1.391 . S
H72 C75 0.931 . S
H73 C78 0.928 . S
H74 C80 0.930 . S
C75 H72 0.931 . S
C75 C76 1.413 . S
C75 C77 1.360 . S
C76 C75 1.413 . S
C76 C80 1.429 . S
C77 C75 1.360 . S
C77 C78 1.372 . S
C78 H73 0.928 . S
C78 C77 1.372 . S
C78 C79 1.404 . S
C79 C78 1.404 . S
C79 C80 1.391 . S
C80 H74 0.930 . S
C80 C76 1.429 . S
C80 C79 1.391 . S
H81 C84 0.931 . S
H82 C87 0.928 . S
H83 C89 0.930 . S
C84 H81 0.931 . S
C84 C85 1.413 . S
C84 C86 1.360 . S
C85 C84 1.413 . S
C85 C89 1.429 . S
C86 C84 1.360 . S
C86 C87 1.372 . S
C87 H82 0.928 . S
C87 C86 1.372 . S
C87 C88 1.404 . S
C88 C87 1.404 . S
C88 C89 1.391 . S
C89 H83 0.930 . S
C89 C85 1.429 . S
C89 C88 1.391 . S
H90 C93 0.931 . S
H91 C96 0.928 . S
H92 C98 0.930 . S
C93 H90 0.931 . S
C93 C94 1.413 . S
C93 C95 1.360 . S
C94 C93 1.413 . S
C94 C98 1.429 . S
C95 C93 1.360 . S
C95 C96 1.372 . S
C96 H91 0.928 . S
C96 C95 1.372 . S
C96 C97 1.404 . S
C97 C96 1.404 . S
C97 C98 1.391 . S
C98 H92 0.930 . S
C98 C94 1.429 . S
C98 C97 1.391 . S
H99 C102 0.931 . S
H100 C105 0.928 . S
H101 C107 0.930 . S
C102 H99 0.931 . S
C102 C103 1.413 . S
C102 C104 1.360 . S
C103 C102 1.413 . S
C103 C107 1.429 . S
C104 C102 1.360 . S
C104 C105 1.372 . S
C105 H100 0.928 . S
C105 C104 1.372 . S
C105 C106 1.404 . S
C106 C105 1.404 . S
C106 C107 1.391 . S
C107 H101 0.930 . S
C107 C103 1.429 . S
C107 C106 1.391 . S
H108 C111 0.931 . S
H109 C114 0.928 . S
H110 C116 0.930 . S
C111 H108 0.931 . S
C111 C112 1.413 . S
C111 C113 1.360 . S
C112 C111 1.413 . S
C112 C116 1.429 . S
C113 C111 1.360 . S
C113 C114 1.372 . S
C114 H109 0.928 . S
C114 C113 1.372 . S
C114 C115 1.404 . S
C115 C114 1.404 . S
C115 C116 1.391 . S
C116 H110 0.930 . S
C116 C112 1.429 . S
C116 C115 1.391 . S
H117 C120 0.931 . S
H118 C123 0.928 . S
H119 C125 0.930 . S
C120 H117 0.931 . S
C120 C121 1.413 . S
C120 C122 1.360 . S
C121 C120 1.413 . S
C121 C125 1.429 . S
C122 C120 1.360 . S
C122 C123 1.372 . S
C123 H118 0.928 . S
C123 C122 1.372 . S
C123 C124 1.404 . S
C124 C123 1.404 . S
C124 C125 1.391 . S
C125 H119 0.930 . S
C125 C121 1.429 . S
C125 C124 1.391 . S
H126 C129 0.931 . S
H127 C132 0.928 . S
H128 C134 0.930 . S
C129 H126 0.931 . S
C129 C130 1.413 . S
C129 C131 1.360 . S
C130 C129 1.413 . S
C130 C134 1.429 . S
C131 C129 1.360 . S
C131 C132 1.372 . S
C132 H127 0.928 . S
C132 C131 1.372 . S
C132 C133 1.404 . S
C133 C132 1.404 . S
C133 C134 1.391 . S
C134 H128 0.930 . S
C134 C130 1.429 . S
C134 C133 1.391 . S
H135 C138 0.931 . S
H136 C141 0.928 . S
H137 C143 0.930 . S
C138 H135 0.931 . S
C138 C139 1.413 . S
C138 C140 1.360 . S
C139 C138 1.413 . S
C139 C143 1.429 . S
C140 C138 1.360 . S
C140 C141 1.372 . S
C141 H136 0.928 . S
C141 C140 1.372 . S
C141 C142 1.404 . S
C142 C141 1.404 . S
C142 C143 1.391 . S
C143 H137 0.930 . S
C143 C139 1.429 . S
C143 C142 1.391 . S
H144 C147 0.931 . S
H145 C150 0.928 . S
H146 C152 0.930 . S
C147 H144 0.931 . S
C147 C148 1.413 . S
C147 C149 1.360 . S
C148 C147 1.413 . S
C148 C152 1.429 . S
C149 C147 1.360 . S
C149 C150 1.372 . S
C150 H145 0.928 . S
C150 C149 1.372 . S
C150 C151 1.404 . S
C151 C150 1.404 . S
C151 C152 1.391 . S
C152 H146 0.930 . S
C152 C148 1.429 . S
C152 C151 1.391 . S
H153 C156 0.931 . S
H154 C159 0.928 . S
H155 C161 0.930 . S
C156 H153 0.931 . S
C156 C157 1.413 . S
C156 C158 1.360 . S
C157 C156 1.413 . S
C157 C161 1.429 . S
C158 C156 1.360 . S
C158 C159 1.372 . S
C159 H154 0.928 . S
C159 C158 1.372 . S
C159 C160 1.404 . S
C160 C159 1.404 . S
C160 C161 1.391 . S
C161 H155 0.930 . S
C161 C157 1.429 . S
C161 C160 1.391 . S
Gd162 N193 2.661 . S
Gd162 N199 2.601 . S
Gd162 O206 2.545 . S
Gd162 O207 2.606 1_545 S
Gd162 O209 2.429 . S
Gd162 O210 2.545 1_545 S
Gd162 O211 2.412 . S
Gd162 O213 2.362 1_554 S
Gd162 O214 2.324 1_545 S
Gd162 C221 2.828 . S
Gd163 N172 2.661 . S
Gd163 N176 2.601 . S
Gd163 O207 2.362 1_556 S
Gd163 O208 2.324 1_565 S
Gd163 O212 2.545 . S
Gd163 O213 2.606 1_565 S
Gd163 O215 2.429 . S
Gd163 O216 2.545 1_565 S
Gd163 O217 2.412 . S
Gd163 C230 2.828 . S
C164 C167 1.417 . S
C164 C169 1.431 . S
C164 C170 1.412 . S
C165 C168 1.437 . S
C165 C169 1.317 . S
C165 H184 0.929 . S
C166 C167 1.426 . S
C166 C168 1.413 . S
C166 N176 1.359 . S
C167 C164 1.417 . S
C167 C166 1.426 . S
C167 N172 1.350 . S
C168 C165 1.437 . S
C168 C166 1.413 . S
C168 C178 1.391 . S
C169 C164 1.431 . S
C169 C165 1.317 . S
C169 H180 0.930 . S
C170 C164 1.412 . S
C170 C171 1.355 . S
C170 H182 0.930 . S
C171 C170 1.355 . S
C171 C173 1.402 . S
C171 H183 0.930 . S
N172 Gd163 2.661 . S
N172 C167 1.350 . S
N172 C173 1.307 . S
C173 C171 1.402 . S
C173 N172 1.307 . S
C173 H174 0.930 . S
H174 C173 0.930 . S
C175 N176 1.334 . S
C175 C177 1.394 . S
C175 H179 0.930 . S
N176 Gd163 2.601 . S
N176 C166 1.359 . S
N176 C175 1.334 . S
C177 C175 1.394 . S
C177 C178 1.359 . S
C177 H189 0.930 . S
C178 C168 1.391 . S
C178 C177 1.359 . S
C178 H190 0.929 . S
H179 C175 0.930 . S
H180 C169 0.930 . S
H181 C198 0.930 . S
H182 C170 0.930 . S
H183 C171 0.930 . S
H184 C165 0.929 . S
H185 C203 0.930 . S
H186 C194 0.930 . S
H187 C195 0.930 . S
H188 C219 0.929 . S
H189 C177 0.930 . S
H190 C178 0.929 . S
H191 C220 0.930 . S
H192 C201 0.930 . S
N193 Gd162 2.661 . S
N193 C197 1.350 . S
N193 C198 1.307 . S
C194 H186 0.930 . S
C194 C195 1.355 . S
C194 C196 1.412 . S
C195 H187 0.930 . S
C195 C194 1.355 . S
C195 C198 1.402 . S
C196 C194 1.412 . S
C196 C197 1.417 . S
C196 C220 1.431 . S
C197 N193 1.350 . S
C197 C196 1.417 . S
C197 C200 1.426 . S
C198 H181 0.930 . S
C198 N193 1.307 . S
C198 C195 1.402 . S
N199 Gd162 2.601 . S
N199 C200 1.359 . S
N199 C203 1.334 . S
C200 C197 1.426 . S
C200 N199 1.359 . S
C200 C204 1.413 . S
C201 H192 0.930 . S
C201 C202 1.359 . S
C201 C203 1.394 . S
C202 C201 1.359 . S
C202 C204 1.391 . S
C202 H205 0.929 . S
C203 H185 0.930 . S
C203 N199 1.334 . S
C203 C201 1.394 . S
C204 C200 1.413 . S
C204 C202 1.391 . S
C204 C219 1.437 . S
H205 C202 0.929 . S
O206 Gd162 2.545 . S
O206 C221 1.258 . S
O207 Gd162 2.606 1_565 S
O207 Gd163 2.362 1_554 S
O207 C218 1.284 . S
O208 Gd163 2.324 1_545 S
O208 C228 1.254 . S
O209 Gd162 2.429 . S
O209 C228 1.268 1_554 S
O210 Gd162 2.545 1_565 S
O210 C218 1.250 . S
O211 Gd162 2.412 . S
O211 C221 1.252 . S
O212 Gd163 2.545 . S
O212 C230 1.258 . S
O213 Gd162 2.362 1_556 S
O213 Gd163 2.606 1_545 S
O213 C229 1.284 . S
O214 Gd162 2.324 1_565 S
O214 C237 1.254 . S
O215 Gd163 2.429 . S
O215 C237 1.268 1_556 S
O216 Gd163 2.545 1_545 S
O216 C229 1.250 . S
O217 Gd163 2.412 . S
O217 C230 1.252 . S
C218 O207 1.284 . S
C218 O210 1.250 . S
C219 H188 0.929 . S
C219 C204 1.437 . S
C219 C220 1.317 . S
C220 H191 0.930 . S
C220 C196 1.431 . S
C220 C219 1.317 . S
C221 Gd162 2.828 . S
C221 O206 1.258 . S
C221 O211 1.252 . S
C221 C222 1.497 . S
C222 C221 1.497 . S
C222 C223 1.395 . S
C222 C224 1.380 1_545 S
C223 C222 1.395 . S
C223 C226 1.398 . S
C223 H238 0.930 . S
C224 C222 1.380 1_565 S
C224 C225 1.391 . S
C224 H239 0.930 . S
C225 C224 1.391 . S
C225 C227 1.387 1_565 S
C226 C223 1.398 . S
C226 C227 1.380 . S
C226 H240 0.930 . S
C227 C225 1.387 1_545 S
C227 C226 1.380 . S
C227 H241 0.930 . S
C228 O208 1.254 . S
C228 O209 1.268 1_556 S
C229 O213 1.284 . S
C229 O216 1.250 . S
C230 Gd163 2.828 . S
C230 O212 1.258 . S
C230 O217 1.252 . S
C230 C231 1.497 . S
C231 C230 1.497 . S
C231 C232 1.395 . S
C231 C233 1.380 1_565 S
C232 C231 1.395 . S
C232 C235 1.398 . S
C232 H242 0.930 . S
C233 C231 1.380 1_545 S
C233 C234 1.391 . S
C233 H243 0.930 . S
C234 C233 1.391 . S
C234 C236 1.387 1_545 S
C235 C232 1.398 . S
C235 C236 1.380 . S
C235 H244 0.930 . S
C236 C234 1.387 1_565 S
C236 C235 1.380 . S
C236 H245 0.930 . S
C237 O214 1.254 . S
C237 O215 1.268 1_554 S
H238 C223 0.930 . S
H239 C224 0.930 . S
H240 C226 0.930 . S
H241 C227 0.930 . S
H242 C232 0.930 . S
H243 C233 0.930 . S
H244 C235 0.930 . S
H245 C236 0.930 . S
Gd246 N277 2.661 . S
Gd246 N283 2.601 . S
Gd246 O290 2.545 . S
Gd246 O291 2.606 1_655 S
Gd246 O293 2.429 . S
Gd246 O294 2.545 1_655 S
Gd246 O295 2.412 . S
Gd246 O297 2.362 1_554 S
Gd246 O298 2.324 1_655 S
Gd246 C305 2.828 . S
Gd247 N256 2.661 . S
Gd247 N260 2.601 . S
Gd247 O291 2.362 1_556 S
Gd247 O292 2.324 1_455 S
Gd247 O296 2.545 . S
Gd247 O297 2.606 1_455 S
Gd247 O299 2.429 . S
Gd247 O300 2.545 1_455 S
Gd247 O301 2.412 . S
Gd247 C314 2.828 . S
C248 C251 1.417 . S
C248 C253 1.431 . S
C248 C254 1.412 . S
C249 C252 1.437 . S
C249 C253 1.317 . S
C249 H268 0.929 . S
C250 C251 1.426 . S
C250 C252 1.413 . S
C250 N260 1.359 . S
C251 C248 1.417 . S
C251 C250 1.426 . S
C251 N256 1.350 . S
C252 C249 1.437 . S
C252 C250 1.413 . S
C252 C262 1.391 . S
C253 C248 1.431 . S
C253 C249 1.317 . S
C253 H264 0.930 . S
C254 C248 1.412 . S
C254 C255 1.355 . S
C254 H266 0.930 . S
C255 C254 1.355 . S
C255 C257 1.402 . S
C255 H267 0.930 . S
N256 Gd247 2.661 . S
N256 C251 1.350 . S
N256 C257 1.307 . S
C257 C255 1.402 . S
C257 N256 1.307 . S
C257 H258 0.930 . S
H258 C257 0.930 . S
C259 N260 1.334 . S
C259 C261 1.394 . S
C259 H263 0.930 . S
N260 Gd247 2.601 . S
N260 C250 1.359 . S
N260 C259 1.334 . S
C261 C259 1.394 . S
C261 C262 1.359 . S
C261 H273 0.930 . S
C262 C252 1.391 . S
C262 C261 1.359 . S
C262 H274 0.929 . S
H263 C259 0.930 . S
H264 C253 0.930 . S
H265 C282 0.930 . S
H266 C254 0.930 . S
H267 C255 0.930 . S
H268 C249 0.929 . S
H269 C287 0.930 . S
H270 C278 0.930 . S
H271 C279 0.930 . S
H272 C303 0.929 . S
H273 C261 0.930 . S
H274 C262 0.929 . S
H275 C304 0.930 . S
H276 C285 0.930 . S
N277 Gd246 2.661 . S
N277 C281 1.350 . S
N277 C282 1.307 . S
C278 H270 0.930 . S
C278 C279 1.355 . S
C278 C280 1.412 . S
C279 H271 0.930 . S
C279 C278 1.355 . S
C279 C282 1.402 . S
C280 C278 1.412 . S
C280 C281 1.417 . S
C280 C304 1.431 . S
C281 N277 1.350 . S
C281 C280 1.417 . S
C281 C284 1.426 . S
C282 H265 0.930 . S
C282 N277 1.307 . S
C282 C279 1.402 . S
N283 Gd246 2.601 . S
N283 C284 1.359 . S
N283 C287 1.334 . S
C284 C281 1.426 . S
C284 N283 1.359 . S
C284 C288 1.413 . S
C285 H276 0.930 . S
C285 C286 1.359 . S
C285 C287 1.394 . S
C286 C285 1.359 . S
C286 C288 1.391 . S
C286 H289 0.929 . S
C287 H269 0.930 . S
C287 N283 1.334 . S
C287 C285 1.394 . S
C288 C284 1.413 . S
C288 C286 1.391 . S
C288 C303 1.437 . S
H289 C286 0.929 . S
O290 Gd246 2.545 . S
O290 C305 1.258 . S
O291 Gd246 2.606 1_455 S
O291 Gd247 2.362 1_554 S
O291 C302 1.284 . S
O292 Gd247 2.324 1_655 S
O292 C312 1.254 . S
O293 Gd246 2.429 . S
O293 C312 1.268 1_554 S
O294 Gd246 2.545 1_455 S
O294 C302 1.250 . S
O295 Gd246 2.412 . S
O295 C305 1.252 . S
O296 Gd247 2.545 . S
O296 C314 1.258 . S
O297 Gd246 2.362 1_556 S
O297 Gd247 2.606 1_655 S
O297 C313 1.284 . S
O298 Gd246 2.324 1_455 S
O298 C321 1.254 . S
O299 Gd247 2.429 . S
O299 C321 1.268 1_556 S
O300 Gd247 2.545 1_655 S
O300 C313 1.250 . S
O301 Gd247 2.412 . S
O301 C314 1.252 . S
C302 O291 1.284 . S
C302 O294 1.250 . S
C303 H272 0.929 . S
C303 C288 1.437 . S
C303 C304 1.317 . S
C304 H275 0.930 . S
C304 C280 1.431 . S
C304 C303 1.317 . S
C305 Gd246 2.828 . S
C305 O290 1.258 . S
C305 O295 1.252 . S
C305 C306 1.497 . S
C306 C305 1.497 . S
C306 C307 1.395 . S
C306 C308 1.380 1_655 S
C307 C306 1.395 . S
C307 C310 1.398 . S
C307 H322 0.930 . S
C308 C306 1.380 1_455 S
C308 C309 1.391 . S
C308 H323 0.930 . S
C309 C308 1.391 . S
C309 C311 1.387 1_455 S
C310 C307 1.398 . S
C310 C311 1.380 . S
C310 H324 0.930 . S
C311 C309 1.387 1_655 S
C311 C310 1.380 . S
C311 H325 0.930 . S
C312 O292 1.254 . S
C312 O293 1.268 1_556 S
C313 O297 1.284 . S
C313 O300 1.250 . S
C314 Gd247 2.828 . S
C314 O296 1.258 . S
C314 O301 1.252 . S
C314 C315 1.497 . S
C315 C314 1.497 . S
C315 C316 1.395 . S
C315 C317 1.380 1_455 S
C316 C315 1.395 . S
C316 C319 1.398 . S
C316 H326 0.930 . S
C317 C315 1.380 1_655 S
C317 C318 1.391 . S
C317 H327 0.930 . S
C318 C317 1.391 . S
C318 C320 1.387 1_655 S
C319 C316 1.398 . S
C319 C320 1.380 . S
C319 H328 0.930 . S
C320 C318 1.387 1_455 S
C320 C319 1.380 . S
C320 H329 0.930 . S
C321 O298 1.254 . S
C321 O299 1.268 1_554 S
H322 C307 0.930 . S
H323 C308 0.930 . S
H324 C310 0.930 . S
H325 C311 0.930 . S
H326 C316 0.930 . S
H327 C317 0.930 . S
H328 C319 0.930 . S
H329 C320 0.930 . S
Gd330 N361 2.661 . S
Gd330 N367 2.601 . S
Gd330 O374 2.545 . S
Gd330 O375 2.606 . S
Gd330 O377 2.429 . S
Gd330 O378 2.545 . S
Gd330 O379 2.412 . S
Gd330 O381 2.362 1_556 S
Gd330 O382 2.324 . S
Gd330 C389 2.828 . S
Gd331 N340 2.661 . S
Gd331 N344 2.601 . S
Gd331 O375 2.362 1_554 S
Gd331 O376 2.324 . S
Gd331 O380 2.545 . S
Gd331 O381 2.606 . S
Gd331 O383 2.429 . S
Gd331 O384 2.545 . S
Gd331 O385 2.412 . S
Gd331 C398 2.828 . S
C332 C335 1.417 . S
C332 C337 1.431 . S
C332 C338 1.412 . S
C333 C336 1.437 . S
C333 C337 1.317 . S
C333 H352 0.929 . S
C334 C335 1.426 . S
C334 C336 1.413 . S
C334 N344 1.359 . S
C335 C332 1.417 . S
C335 C334 1.426 . S
C335 N340 1.350 . S
C336 C333 1.437 . S
C336 C334 1.413 . S
C336 C346 1.391 . S
C337 C332 1.431 . S
C337 C333 1.317 . S
C337 H348 0.930 . S
C338 C332 1.412 . S
C338 C339 1.355 . S
C338 H350 0.930 . S
C339 C338 1.355 . S
C339 C341 1.402 . S
C339 H351 0.930 . S
N340 Gd331 2.661 . S
N340 C335 1.350 . S
N340 C341 1.307 . S
C341 C339 1.402 . S
C341 N340 1.307 . S
C341 H342 0.930 . S
H342 C341 0.930 . S
C343 N344 1.334 . S
C343 C345 1.394 . S
C343 H347 0.930 . S
N344 Gd331 2.601 . S
N344 C334 1.359 . S
N344 C343 1.334 . S
C345 C343 1.394 . S
C345 C346 1.359 . S
C345 H357 0.930 . S
C346 C336 1.391 . S
C346 C345 1.359 . S
C346 H358 0.929 . S
H347 C343 0.930 . S
H348 C337 0.930 . S
H349 C366 0.930 . S
H350 C338 0.930 . S
H351 C339 0.930 . S
H352 C333 0.929 . S
H353 C371 0.930 . S
H354 C362 0.930 . S
H355 C363 0.930 . S
H356 C387 0.929 . S
H357 C345 0.930 . S
H358 C346 0.929 . S
H359 C388 0.930 . S
H360 C369 0.930 . S
N361 Gd330 2.661 . S
N361 C365 1.350 . S
N361 C366 1.307 . S
C362 H354 0.930 . S
C362 C363 1.355 . S
C362 C364 1.412 . S
C363 H355 0.930 . S
C363 C362 1.355 . S
C363 C366 1.402 . S
C364 C362 1.412 . S
C364 C365 1.417 . S
C364 C388 1.431 . S
C365 N361 1.350 . S
C365 C364 1.417 . S
C365 C368 1.426 . S
C366 H349 0.930 . S
C366 N361 1.307 . S
C366 C363 1.402 . S
N367 Gd330 2.601 . S
N367 C368 1.359 . S
N367 C371 1.334 . S
C368 C365 1.426 . S
C368 N367 1.359 . S
C368 C372 1.413 . S
C369 H360 0.930 . S
C369 C370 1.359 . S
C369 C371 1.394 . S
C370 C369 1.359 . S
C370 C372 1.391 . S
C370 H373 0.929 . S
C371 H353 0.930 . S
C371 N367 1.334 . S
C371 C369 1.394 . S
C372 C368 1.413 . S
C372 C370 1.391 . S
C372 C387 1.437 . S
H373 C370 0.929 . S
O374 Gd330 2.545 . S
O374 C389 1.258 . S
O375 Gd330 2.606 . S
O375 Gd331 2.362 1_556 S
O375 C386 1.284 . S
O376 Gd331 2.324 . S
O376 C396 1.254 . S
O377 Gd330 2.429 . S
O377 C396 1.268 1_556 S
O378 Gd330 2.545 . S
O378 C386 1.250 . S
O379 Gd330 2.412 . S
O379 C389 1.252 . S
O380 Gd331 2.545 . S
O380 C398 1.258 . S
O381 Gd330 2.362 1_554 S
O381 Gd331 2.606 . S
O381 C397 1.284 . S
O382 Gd330 2.324 . S
O382 C405 1.254 . S
O383 Gd331 2.429 . S
O383 C405 1.268 1_554 S
O384 Gd331 2.545 . S
O384 C397 1.250 . S
O385 Gd331 2.412 . S
O385 C398 1.252 . S
C386 O375 1.284 . S
C386 O378 1.250 . S
C387 H356 0.929 . S
C387 C372 1.437 . S
C387 C388 1.317 . S
C388 H359 0.930 . S
C388 C364 1.431 . S
C388 C387 1.317 . S
C389 Gd330 2.828 . S
C389 O374 1.258 . S
C389 O379 1.252 . S
C389 C390 1.497 . S
C390 C389 1.497 . S
C390 C391 1.395 . S
C390 C392 1.380 . S
C391 C390 1.395 . S
C391 C394 1.398 . S
C391 H406 0.930 . S
C392 C390 1.380 . S
C392 C393 1.391 . S
C392 H407 0.930 . S
C393 C392 1.391 . S
C393 C395 1.387 . S
C394 C391 1.398 . S
C394 C395 1.380 . S
C394 H408 0.930 . S
C395 C393 1.387 . S
C395 C394 1.380 . S
C395 H409 0.930 . S
C396 O376 1.254 . S
C396 O377 1.268 1_554 S
C397 O381 1.284 . S
C397 O384 1.250 . S
C398 Gd331 2.828 . S
C398 O380 1.258 . S
C398 O385 1.252 . S
C398 C399 1.497 . S
C399 C398 1.497 . S
C399 C400 1.395 . S
C399 C401 1.380 . S
C400 C399 1.395 . S
C400 C403 1.398 . S
C400 H410 0.930 . S
C401 C399 1.380 . S
C401 C402 1.391 . S
C401 H411 0.930 . S
C402 C401 1.391 . S
C402 C404 1.387 . S
C403 C400 1.398 . S
C403 C404 1.380 . S
C403 H412 0.930 . S
C404 C402 1.387 . S
C404 C403 1.380 . S
C404 H413 0.930 . S
C405 O382 1.254 . S
C405 O383 1.268 1_556 S
H406 C391 0.930 . S
H407 C392 0.930 . S
H408 C394 0.930 . S
H409 C395 0.930 . S
H410 C400 0.930 . S
H411 C401 0.930 . S
H412 C403 0.930 . S
H413 C404 0.930 . S
Gd414 N445 2.661 . S
Gd414 N451 2.601 . S
Gd414 O458 2.545 . S
Gd414 O459 2.606 . S
Gd414 O461 2.429 . S
Gd414 O462 2.545 . S
Gd414 O463 2.412 . S
Gd414 O465 2.362 . S
Gd414 O466 2.324 . S
Gd414 C473 2.828 . S
Gd415 N424 2.661 . S
Gd415 N428 2.601 . S
Gd415 O459 2.362 . S
Gd415 O460 2.324 . S
Gd415 O464 2.545 . S
Gd415 O465 2.606 . S
Gd415 O467 2.429 . S
Gd415 O468 2.545 . S
Gd415 O469 2.412 . S
Gd415 C482 2.828 . S
C416 C419 1.417 1_655 S
C416 C421 1.431 . S
C416 C422 1.412 . S
C417 C420 1.437 1_655 S
C417 C421 1.317 . S
C417 H436 0.929 . S
C418 C419 1.426 . S
C418 C420 1.413 . S
C418 N428 1.359 . S
C419 C416 1.417 1_455 S
C419 C418 1.426 . S
C419 N424 1.350 . S
C420 C417 1.437 1_455 S
C420 C418 1.413 . S
C420 C430 1.391 . S
C421 C416 1.431 . S
C421 C417 1.317 . S
C421 H432 0.930 . S
C422 C416 1.412 . S
C422 C423 1.355 . S
C422 H434 0.930 . S
C423 C422 1.355 . S
C423 C425 1.402 1_655 S
C423 H435 0.930 . S
N424 Gd415 2.661 . S
N424 C419 1.350 . S
N424 C425 1.307 . S
C425 C423 1.402 1_455 S
C425 N424 1.307 . S
C425 H426 0.930 . S
H426 C425 0.930 . S
C427 N428 1.334 . S
C427 C429 1.394 . S
C427 H431 0.930 . S
N428 Gd415 2.601 . S
N428 C418 1.359 . S
N428 C427 1.334 . S
C429 C427 1.394 . S
C429 C430 1.359 . S
C429 H441 0.930 . S
C430 C420 1.391 . S
C430 C429 1.359 . S
C430 H442 0.929 . S
H431 C427 0.930 . S
H432 C421 0.930 . S
H433 C450 0.930 . S
H434 C422 0.930 . S
H435 C423 0.930 . S
H436 C417 0.929 . S
H437 C455 0.930 . S
H438 C446 0.930 . S
H439 C447 0.930 . S
H440 C471 0.929 . S
H441 C429 0.930 . S
H442 C430 0.929 . S
H443 C472 0.930 . S
H444 C453 0.930 . S
N445 Gd414 2.661 . S
N445 C449 1.350 . S
N445 C450 1.307 . S
C446 H438 0.930 . S
C446 C447 1.355 . S
C446 C448 1.412 . S
C447 H439 0.930 . S
C447 C446 1.355 . S
C447 C450 1.402 . S
C448 C446 1.412 . S
C448 C449 1.417 . S
C448 C472 1.431 . S
C449 N445 1.350 . S
C449 C448 1.417 . S
C449 C452 1.426 . S
C450 H433 0.930 . S
C450 N445 1.307 . S
C450 C447 1.402 . S
N451 Gd414 2.601 . S
N451 C452 1.359 . S
N451 C455 1.334 . S
C452 C449 1.426 . S
C452 N451 1.359 . S
C452 C456 1.413 . S
C453 H444 0.930 . S
C453 C454 1.359 . S
C453 C455 1.394 . S
C454 C453 1.359 . S
C454 C456 1.391 . S
C454 H457 0.929 . S
C455 H437 0.930 . S
C455 N451 1.334 . S
C455 C453 1.394 . S
C456 C452 1.413 . S
C456 C454 1.391 . S
C456 C471 1.437 . S
H457 C454 0.929 . S
O458 Gd414 2.545 . S
O458 C473 1.258 . S
O459 Gd414 2.606 . S
O459 Gd415 2.362 . S
O459 C470 1.284 . S
O460 Gd415 2.324 . S
O460 C480 1.254 . S
O461 Gd414 2.429 . S
O461 C480 1.268 . S
O462 Gd414 2.545 . S
O462 C470 1.250 . S
O463 Gd414 2.412 . S
O463 C473 1.252 . S
O464 Gd415 2.545 . S
O464 C482 1.258 . S
O465 Gd414 2.362 . S
O465 Gd415 2.606 . S
O465 C481 1.284 . S
O466 Gd414 2.324 . S
O466 C489 1.254 . S
O467 Gd415 2.429 . S
O467 C489 1.268 . S
O468 Gd415 2.545 . S
O468 C481 1.250 . S
O469 Gd415 2.412 . S
O469 C482 1.252 . S
C470 O459 1.284 . S
C470 O462 1.250 . S
C471 H440 0.929 . S
C471 C456 1.437 . S
C471 C472 1.317 . S
C472 H443 0.930 . S
C472 C448 1.431 . S
C472 C471 1.317 . S
C473 Gd414 2.828 . S
C473 O458 1.258 . S
C473 O463 1.252 . S
C473 C474 1.497 . S
C474 C473 1.497 . S
C474 C475 1.395 . S
C474 C476 1.380 . S
C475 C474 1.395 . S
C475 C478 1.398 . S
C475 H490 0.930 . S
C476 C474 1.380 . S
C476 C477 1.391 . S
C476 H491 0.930 . S
C477 C476 1.391 . S
C477 C479 1.387 . S
C478 C475 1.398 . S
C478 C479 1.380 . S
C478 H492 0.930 . S
C479 C477 1.387 . S
C479 C478 1.380 . S
C479 H493 0.930 . S
C480 O460 1.254 . S
C480 O461 1.268 . S
C481 O465 1.284 . S
C481 O468 1.250 . S
C482 Gd415 2.828 . S
C482 O464 1.258 . S
C482 O469 1.252 . S
C482 C483 1.497 . S
C483 C482 1.497 . S
C483 C484 1.395 . S
C483 C485 1.380 . S
C484 C483 1.395 . S
C484 C487 1.398 . S
C484 H494 0.930 . S
C485 C483 1.380 . S
C485 C486 1.391 . S
C485 H495 0.930 . S
C486 C485 1.391 . S
C486 C488 1.387 . S
C487 C484 1.398 . S
C487 C488 1.380 . S
C487 H496 0.930 . S
C488 C486 1.387 . S
C488 C487 1.380 . S
C488 H497 0.930 . S
C489 O466 1.254 . S
C489 O467 1.268 . S
H490 C475 0.930 . S
H491 C476 0.930 . S
H492 C478 0.930 . S
H493 C479 0.930 . S
H494 C484 0.930 . S
H495 C485 0.930 . S
H496 C487 0.930 . S
H497 C488 0.930 . S
Gd498 N529 2.661 . S
Gd498 N535 2.601 . S
Gd498 O542 2.545 . S
Gd498 O543 2.606 . S
Gd498 O545 2.429 . S
Gd498 O546 2.545 . S
Gd498 O547 2.412 . S
Gd498 O549 2.362 . S
Gd498 O550 2.324 . S
Gd498 C557 2.828 . S
Gd499 N508 2.661 . S
Gd499 N512 2.601 . S
Gd499 O543 2.362 . S
Gd499 O544 2.324 . S
Gd499 O548 2.545 . S
Gd499 O549 2.606 . S
Gd499 O551 2.429 . S
Gd499 O552 2.545 . S
Gd499 O553 2.412 . S
Gd499 C566 2.828 . S
C500 C503 1.417 . S
C500 C505 1.431 . S
C500 C506 1.412 . S
C501 C504 1.437 . S
C501 C505 1.317 . S
C501 H520 0.929 . S
C502 C503 1.426 . S
C502 C504 1.413 . S
C502 N512 1.359 . S
C503 C500 1.417 . S
C503 C502 1.426 . S
C503 N508 1.350 . S
C504 C501 1.437 . S
C504 C502 1.413 . S
C504 C514 1.391 . S
C505 C500 1.431 . S
C505 C501 1.317 . S
C505 H516 0.930 . S
C506 C500 1.412 . S
C506 C507 1.355 . S
C506 H518 0.930 . S
C507 C506 1.355 . S
C507 C509 1.402 . S
C507 H519 0.930 . S
N508 Gd499 2.661 . S
N508 C503 1.350 . S
N508 C509 1.307 . S
C509 C507 1.402 . S
C509 N508 1.307 . S
C509 H510 0.930 . S
H510 C509 0.930 . S
C511 N512 1.334 . S
C511 C513 1.394 . S
C511 H515 0.930 . S
N512 Gd499 2.601 . S
N512 C502 1.359 . S
N512 C511 1.334 . S
C513 C511 1.394 . S
C513 C514 1.359 . S
C513 H525 0.930 . S
C514 C504 1.391 . S
C514 C513 1.359 . S
C514 H526 0.929 . S
H515 C511 0.930 . S
H516 C505 0.930 . S
H517 C534 0.930 . S
H518 C506 0.930 . S
H519 C507 0.930 . S
H520 C501 0.929 . S
H521 C539 0.930 . S
H522 C530 0.930 . S
H523 C531 0.930 . S
H524 C555 0.929 . S
H525 C513 0.930 . S
H526 C514 0.929 . S
H527 C556 0.930 . S
H528 C537 0.930 . S
N529 Gd498 2.661 . S
N529 C533 1.350 . S
N529 C534 1.307 . S
C530 H522 0.930 . S
C530 C531 1.355 . S
C530 C532 1.412 . S
C531 H523 0.930 . S
C531 C530 1.355 . S
C531 C534 1.402 . S
C532 C530 1.412 . S
C532 C533 1.417 . S
C532 C556 1.431 . S
C533 N529 1.350 . S
C533 C532 1.417 . S
C533 C536 1.426 . S
C534 H517 0.930 . S
C534 N529 1.307 . S
C534 C531 1.402 . S
N535 Gd498 2.601 . S
N535 C536 1.359 . S
N535 C539 1.334 . S
C536 C533 1.426 . S
C536 N535 1.359 . S
C536 C540 1.413 . S
C537 H528 0.930 . S
C537 C538 1.359 . S
C537 C539 1.394 . S
C538 C537 1.359 . S
C538 C540 1.391 . S
C538 H541 0.929 . S
C539 H521 0.930 . S
C539 N535 1.334 . S
C539 C537 1.394 . S
C540 C536 1.413 . S
C540 C538 1.391 . S
C540 C555 1.437 . S
H541 C538 0.929 . S
O542 Gd498 2.545 . S
O542 C557 1.258 . S
O543 Gd498 2.606 . S
O543 Gd499 2.362 . S
O543 C554 1.284 . S
O544 Gd499 2.324 . S
O544 C564 1.254 . S
O545 Gd498 2.429 . S
O545 C564 1.268 . S
O546 Gd498 2.545 . S
O546 C554 1.250 . S
O547 Gd498 2.412 . S
O547 C557 1.252 . S
O548 Gd499 2.545 . S
O548 C566 1.258 . S
O549 Gd498 2.362 . S
O549 Gd499 2.606 . S
O549 C565 1.284 . S
O550 Gd498 2.324 . S
O550 C573 1.254 . S
O551 Gd499 2.429 . S
O551 C573 1.268 . S
O552 Gd499 2.545 . S
O552 C565 1.250 . S
O553 Gd499 2.412 . S
O553 C566 1.252 . S
C554 O543 1.284 . S
C554 O546 1.250 . S
C555 H524 0.929 . S
C555 C540 1.437 . S
C555 C556 1.317 . S
C556 H527 0.930 . S
C556 C532 1.431 . S
C556 C555 1.317 . S
C557 Gd498 2.828 . S
C557 O542 1.258 . S
C557 O547 1.252 . S
C557 C558 1.497 . S
C558 C557 1.497 . S
C558 C559 1.395 . S
C558 C560 1.380 . S
C559 C558 1.395 . S
C559 C562 1.398 . S
C559 H574 0.930 . S
C560 C558 1.380 . S
C560 C561 1.391 . S
C560 H575 0.930 . S
C561 C560 1.391 . S
C561 C563 1.387 . S
C562 C559 1.398 . S
C562 C563 1.380 . S
C562 H576 0.930 . S
C563 C561 1.387 . S
C563 C562 1.380 . S
C563 H577 0.930 . S
C564 O544 1.254 . S
C564 O545 1.268 . S
C565 O549 1.284 . S
C565 O552 1.250 . S
C566 Gd499 2.828 . S
C566 O548 1.258 . S
C566 O553 1.252 . S
C566 C567 1.497 . S
C567 C566 1.497 . S
C567 C568 1.395 . S
C567 C569 1.380 . S
C568 C567 1.395 . S
C568 C571 1.398 . S
C568 H578 0.930 . S
C569 C567 1.380 . S
C569 C570 1.391 . S
C569 H579 0.930 . S
C570 C569 1.391 . S
C570 C572 1.387 . S
C571 C568 1.398 . S
C571 C572 1.380 . S
C571 H580 0.930 . S
C572 C570 1.387 . S
C572 C571 1.380 . S
C572 H581 0.930 . S
C573 O550 1.254 . S
C573 O551 1.268 . S
H574 C559 0.930 . S
H575 C560 0.930 . S
H576 C562 0.930 . S
H577 C563 0.930 . S
H578 C568 0.930 . S
H579 C569 0.930 . S
H580 C571 0.930 . S
H581 C572 0.930 . S
Gd582 N613 2.661 . S
Gd582 N619 2.601 . S
Gd582 O626 2.545 . S
Gd582 O627 2.606 . S
Gd582 O629 2.429 . S
Gd582 O630 2.545 . S
Gd582 O631 2.412 . S
Gd582 O633 2.362 . S
Gd582 O634 2.324 . S
Gd582 C641 2.828 . S
Gd583 N592 2.661 . S
Gd583 N596 2.601 . S
Gd583 O627 2.362 . S
Gd583 O628 2.324 . S
Gd583 O632 2.545 . S
Gd583 O633 2.606 . S
Gd583 O635 2.429 . S
Gd583 O636 2.545 . S
Gd583 O637 2.412 . S
Gd583 C650 2.828 . S
C584 C587 1.417 . S
C584 C589 1.431 . S
C584 C590 1.412 . S
C585 C588 1.437 . S
C585 C589 1.317 . S
C585 H604 0.929 . S
C586 C587 1.426 . S
C586 C588 1.413 . S
C586 N596 1.359 . S
C587 C584 1.417 . S
C587 C586 1.426 . S
C587 N592 1.350 . S
C588 C585 1.437 . S
C588 C586 1.413 . S
C588 C598 1.391 . S
C589 C584 1.431 . S
C589 C585 1.317 . S
C589 H600 0.930 . S
C590 C584 1.412 . S
C590 C591 1.355 . S
C590 H602 0.930 . S
C591 C590 1.355 . S
C591 C593 1.402 . S
C591 H603 0.930 . S
N592 Gd583 2.661 . S
N592 C587 1.350 . S
N592 C593 1.307 . S
C593 C591 1.402 . S
C593 N592 1.307 . S
C593 H594 0.930 . S
H594 C593 0.930 . S
C595 N596 1.334 . S
C595 C597 1.394 . S
C595 H599 0.930 . S
N596 Gd583 2.601 . S
N596 C586 1.359 . S
N596 C595 1.334 . S
C597 C595 1.394 . S
C597 C598 1.359 . S
C597 H609 0.930 . S
C598 C588 1.391 . S
C598 C597 1.359 . S
C598 H610 0.929 . S
H599 C595 0.930 . S
H600 C589 0.930 . S
H601 C618 0.930 . S
H602 C590 0.930 . S
H603 C591 0.930 . S
H604 C585 0.929 . S
H605 C623 0.930 . S
H606 C614 0.930 . S
H607 C615 0.930 . S
H608 C639 0.929 . S
H609 C597 0.930 . S
H610 C598 0.929 . S
H611 C640 0.930 . S
H612 C621 0.930 . S
N613 Gd582 2.661 . S
N613 C617 1.350 . S
N613 C618 1.307 . S
C614 H606 0.930 . S
C614 C615 1.355 . S
C614 C616 1.412 . S
C615 H607 0.930 . S
C615 C614 1.355 . S
C615 C618 1.402 1_655 S
C616 C614 1.412 . S
C616 C617 1.417 1_655 S
C616 C640 1.431 . S
C617 N613 1.350 . S
C617 C616 1.417 1_455 S
C617 C620 1.426 . S
C618 H601 0.930 . S
C618 N613 1.307 . S
C618 C615 1.402 1_455 S
N619 Gd582 2.601 . S
N619 C620 1.359 . S
N619 C623 1.334 . S
C620 C617 1.426 . S
C620 N619 1.359 . S
C620 C624 1.413 . S
C621 H612 0.930 . S
C621 C622 1.359 . S
C621 C623 1.394 . S
C622 C621 1.359 . S
C622 C624 1.391 . S
C622 H625 0.929 . S
C623 H605 0.930 . S
C623 N619 1.334 . S
C623 C621 1.394 . S
C624 C620 1.413 . S
C624 C622 1.391 . S
C624 C639 1.437 1_455 S
H625 C622 0.929 . S
O626 Gd582 2.545 . S
O626 C641 1.258 . S
O627 Gd582 2.606 . S
O627 Gd583 2.362 . S
O627 C638 1.284 . S
O628 Gd583 2.324 . S
O628 C648 1.254 . S
O629 Gd582 2.429 . S
O629 C648 1.268 . S
O630 Gd582 2.545 . S
O630 C638 1.250 . S
O631 Gd582 2.412 . S
O631 C641 1.252 . S
O632 Gd583 2.545 . S
O632 C650 1.258 . S
O633 Gd582 2.362 . S
O633 Gd583 2.606 . S
O633 C649 1.284 . S
O634 Gd582 2.324 . S
O634 C657 1.254 . S
O635 Gd583 2.429 . S
O635 C657 1.268 . S
O636 Gd583 2.545 . S
O636 C649 1.250 . S
O637 Gd583 2.412 . S
O637 C650 1.252 . S
C638 O627 1.284 . S
C638 O630 1.250 . S
C639 H608 0.929 . S
C639 C624 1.437 1_655 S
C639 C640 1.317 . S
C640 H611 0.930 . S
C640 C616 1.431 . S
C640 C639 1.317 . S
C641 Gd582 2.828 . S
C641 O626 1.258 . S
C641 O631 1.252 . S
C641 C642 1.497 . S
C642 C641 1.497 . S
C642 C643 1.395 . S
C642 C644 1.380 . S
C643 C642 1.395 . S
C643 C646 1.398 . S
C643 H658 0.930 . S
C644 C642 1.380 . S
C644 C645 1.391 . S
C644 H659 0.930 . S
C645 C644 1.391 . S
C645 C647 1.387 . S
C646 C643 1.398 . S
C646 C647 1.380 . S
C646 H660 0.930 . S
C647 C645 1.387 . S
C647 C646 1.380 . S
C647 H661 0.930 . S
C648 O628 1.254 . S
C648 O629 1.268 . S
C649 O633 1.284 . S
C649 O636 1.250 . S
C650 Gd583 2.828 . S
C650 O632 1.258 . S
C650 O637 1.252 . S
C650 C651 1.497 . S
C651 C650 1.497 . S
C651 C652 1.395 . S
C651 C653 1.380 . S
C652 C651 1.395 . S
C652 C655 1.398 . S
C652 H662 0.930 . S
C653 C651 1.380 . S
C653 C654 1.391 . S
C653 H663 0.930 . S
C654 C653 1.391 . S
C654 C656 1.387 . S
C655 C652 1.398 . S
C655 C656 1.380 . S
C655 H664 0.930 . S
C656 C654 1.387 . S
C656 C655 1.380 . S
C656 H665 0.930 . S
C657 O634 1.254 . S
C657 O635 1.268 . S
H658 C643 0.930 . S
H659 C644 0.930 . S
H660 C646 0.930 . S
H661 C647 0.930 . S
H662 C652 0.930 . S
H663 C653 0.930 . S
H664 C655 0.930 . S
H665 C656 0.930 . S
Gd666 N697 2.661 . S
Gd666 N703 2.601 . S
Gd666 O710 2.545 . S
Gd666 O711 2.606 . S
Gd666 O713 2.429 . S
Gd666 O714 2.545 . S
Gd666 O715 2.412 . S
Gd666 O717 2.362 . S
Gd666 O718 2.324 . S
Gd666 C725 2.828 . S
Gd667 N676 2.661 . S
Gd667 N680 2.601 . S
Gd667 O711 2.362 . S
Gd667 O712 2.324 . S
Gd667 O716 2.545 . S
Gd667 O717 2.606 . S
Gd667 O719 2.429 . S
Gd667 O720 2.545 . S
Gd667 O721 2.412 . S
Gd667 C734 2.828 . S
C668 C671 1.417 . S
C668 C673 1.431 . S
C668 C674 1.412 . S
C669 C672 1.437 . S
C669 C673 1.317 . S
C669 H688 0.929 . S
C670 C671 1.426 . S
C670 C672 1.413 . S
C670 N680 1.359 . S
C671 C668 1.417 . S
C671 C670 1.426 . S
C671 N676 1.350 . S
C672 C669 1.437 . S
C672 C670 1.413 . S
C672 C682 1.391 . S
C673 C668 1.431 . S
C673 C669 1.317 . S
C673 H684 0.930 . S
C674 C668 1.412 . S
C674 C675 1.355 . S
C674 H686 0.930 . S
C675 C674 1.355 . S
C675 C677 1.402 . S
C675 H687 0.930 . S
N676 Gd667 2.661 . S
N676 C671 1.350 . S
N676 C677 1.307 . S
C677 C675 1.402 . S
C677 N676 1.307 . S
C677 H678 0.930 . S
H678 C677 0.930 . S
C679 N680 1.334 . S
C679 C681 1.394 . S
C679 H683 0.930 . S
N680 Gd667 2.601 . S
N680 C670 1.359 . S
N680 C679 1.334 . S
C681 C679 1.394 . S
C681 C682 1.359 . S
C681 H693 0.930 . S
C682 C672 1.391 . S
C682 C681 1.359 . S
C682 H694 0.929 . S
H683 C679 0.930 . S
H684 C673 0.930 . S
H685 C702 0.930 . S
H686 C674 0.930 . S
H687 C675 0.930 . S
H688 C669 0.929 . S
H689 C707 0.930 . S
H690 C698 0.930 . S
H691 C699 0.930 . S
H692 C723 0.929 . S
H693 C681 0.930 . S
H694 C682 0.929 . S
H695 C724 0.930 . S
H696 C705 0.930 . S
N697 Gd666 2.661 . S
N697 C701 1.350 . S
N697 C702 1.307 . S
C698 H690 0.930 . S
C698 C699 1.355 . S
C698 C700 1.412 . S
C699 H691 0.930 . S
C699 C698 1.355 . S
C699 C702 1.402 1_455 S
C700 C698 1.412 . S
C700 C701 1.417 1_455 S
C700 C724 1.431 . S
C701 N697 1.350 . S
C701 C700 1.417 1_655 S
C701 C704 1.426 . S
C702 H685 0.930 . S
C702 N697 1.307 . S
C702 C699 1.402 1_655 S
N703 Gd666 2.601 . S
N703 C704 1.359 . S
N703 C707 1.334 . S
C704 C701 1.426 . S
C704 N703 1.359 . S
C704 C708 1.413 . S
C705 H696 0.930 . S
C705 C706 1.359 . S
C705 C707 1.394 . S
C706 C705 1.359 . S
C706 C708 1.391 . S
C706 H709 0.929 . S
C707 H689 0.930 . S
C707 N703 1.334 . S
C707 C705 1.394 . S
C708 C704 1.413 . S
C708 C706 1.391 . S
C708 C723 1.437 1_655 S
H709 C706 0.929 . S
O710 Gd666 2.545 . S
O710 C725 1.258 . S
O711 Gd666 2.606 . S
O711 Gd667 2.362 . S
O711 C722 1.284 . S
O712 Gd667 2.324 . S
O712 C732 1.254 . S
O713 Gd666 2.429 . S
O713 C732 1.268 . S
O714 Gd666 2.545 . S
O714 C722 1.250 . S
O715 Gd666 2.412 . S
O715 C725 1.252 . S
O716 Gd667 2.545 . S
O716 C734 1.258 . S
O717 Gd666 2.362 . S
O717 Gd667 2.606 . S
O717 C733 1.284 . S
O718 Gd666 2.324 . S
O718 C741 1.254 . S
O719 Gd667 2.429 . S
O719 C741 1.268 . S
O720 Gd667 2.545 . S
O720 C733 1.250 . S
O721 Gd667 2.412 . S
O721 C734 1.252 . S
C722 O711 1.284 . S
C722 O714 1.250 . S
C723 H692 0.929 . S
C723 C708 1.437 1_455 S
C723 C724 1.317 . S
C724 H695 0.930 . S
C724 C700 1.431 . S
C724 C723 1.317 . S
C725 Gd666 2.828 . S
C725 O710 1.258 . S
C725 O715 1.252 . S
C725 C726 1.497 . S
C726 C725 1.497 . S
C726 C727 1.395 . S
C726 C728 1.380 . S
C727 C726 1.395 . S
C727 C730 1.398 . S
C727 H742 0.930 . S
C728 C726 1.380 . S
C728 C729 1.391 . S
C728 H743 0.930 . S
C729 C728 1.391 . S
C729 C731 1.387 . S
C730 C727 1.398 . S
C730 C731 1.380 . S
C730 H744 0.930 . S
C731 C729 1.387 . S
C731 C730 1.380 . S
C731 H745 0.930 . S
C732 O712 1.254 . S
C732 O713 1.268 . S
C733 O717 1.284 . S
C733 O720 1.250 . S
C734 Gd667 2.828 . S
C734 O716 1.258 . S
C734 O721 1.252 . S
C734 C735 1.497 . S
C735 C734 1.497 . S
C735 C736 1.395 . S
C735 C737 1.380 . S
C736 C735 1.395 . S
C736 C739 1.398 . S
C736 H746 0.930 . S
C737 C735 1.380 . S
C737 C738 1.391 . S
C737 H747 0.930 . S
C738 C737 1.391 . S
C738 C740 1.387 . S
C739 C736 1.398 . S
C739 C740 1.380 . S
C739 H748 0.930 . S
C740 C738 1.387 . S
C740 C739 1.380 . S
C740 H749 0.930 . S
C741 O718 1.254 . S
C741 O719 1.268 . S
H742 C727 0.930 . S
H743 C728 0.930 . S
H744 C730 0.930 . S
H745 C731 0.930 . S
H746 C736 0.930 . S
H747 C737 0.930 . S
H748 C739 0.930 . S
H749 C740 0.930 . S
Gd750 N781 2.661 . S
Gd750 N787 2.601 . S
Gd750 O794 2.545 . S
Gd750 O795 2.606 . S
Gd750 O797 2.429 . S
Gd750 O798 2.545 . S
Gd750 O799 2.412 . S
Gd750 O801 2.362 . S
Gd750 O802 2.324 . S
Gd750 C809 2.828 . S
Gd751 N760 2.661 . S
Gd751 N764 2.601 . S
Gd751 O795 2.362 . S
Gd751 O796 2.324 . S
Gd751 O800 2.545 . S
Gd751 O801 2.606 . S
Gd751 O803 2.429 . S
Gd751 O804 2.545 . S
Gd751 O805 2.412 . S
Gd751 C818 2.828 . S
C752 C755 1.417 . S
C752 C757 1.431 . S
C752 C758 1.412 . S
C753 C756 1.437 . S
C753 C757 1.317 . S
C753 H772 0.929 . S
C754 C755 1.426 . S
C754 C756 1.413 . S
C754 N764 1.359 . S
C755 C752 1.417 . S
C755 C754 1.426 . S
C755 N760 1.350 . S
C756 C753 1.437 . S
C756 C754 1.413 . S
C756 C766 1.391 . S
C757 C752 1.431 . S
C757 C753 1.317 . S
C757 H768 0.930 . S
C758 C752 1.412 . S
C758 C759 1.355 . S
C758 H770 0.930 . S
C759 C758 1.355 . S
C759 C761 1.402 . S
C759 H771 0.930 . S
N760 Gd751 2.661 . S
N760 C755 1.350 . S
N760 C761 1.307 . S
C761 C759 1.402 . S
C761 N760 1.307 . S
C761 H762 0.930 . S
H762 C761 0.930 . S
C763 N764 1.334 . S
C763 C765 1.394 . S
C763 H767 0.930 . S
N764 Gd751 2.601 . S
N764 C754 1.359 . S
N764 C763 1.334 . S
C765 C763 1.394 . S
C765 C766 1.359 . S
C765 H777 0.930 . S
C766 C756 1.391 . S
C766 C765 1.359 . S
C766 H778 0.929 . S
H767 C763 0.930 . S
H768 C757 0.930 . S
H769 C786 0.930 . S
H770 C758 0.930 . S
H771 C759 0.930 . S
H772 C753 0.929 . S
H773 C791 0.930 . S
H774 C782 0.930 . S
H775 C783 0.930 . S
H776 C807 0.929 . S
H777 C765 0.930 . S
H778 C766 0.929 . S
H779 C808 0.930 . S
H780 C789 0.930 . S
N781 Gd750 2.661 . S
N781 C785 1.350 . S
N781 C786 1.307 . S
C782 H774 0.930 . S
C782 C783 1.355 . S
C782 C784 1.412 . S
C783 H775 0.930 . S
C783 C782 1.355 . S
C783 C786 1.402 . S
C784 C782 1.412 . S
C784 C785 1.417 . S
C784 C808 1.431 . S
C785 N781 1.350 . S
C785 C784 1.417 . S
C785 C788 1.426 . S
C786 H769 0.930 . S
C786 N781 1.307 . S
C786 C783 1.402 . S
N787 Gd750 2.601 . S
N787 C788 1.359 . S
N787 C791 1.334 . S
C788 C785 1.426 . S
C788 N787 1.359 . S
C788 C792 1.413 . S
C789 H780 0.930 . S
C789 C790 1.359 . S
C789 C791 1.394 . S
C790 C789 1.359 . S
C790 C792 1.391 . S
C790 H793 0.929 . S
C791 H773 0.930 . S
C791 N787 1.334 . S
C791 C789 1.394 . S
C792 C788 1.413 . S
C792 C790 1.391 . S
C792 C807 1.437 . S
H793 C790 0.929 . S
O794 Gd750 2.545 . S
O794 C809 1.258 . S
O795 Gd750 2.606 . S
O795 Gd751 2.362 . S
O795 C806 1.284 . S
O796 Gd751 2.324 . S
O796 C816 1.254 . S
O797 Gd750 2.429 . S
O797 C816 1.268 . S
O798 Gd750 2.545 . S
O798 C806 1.250 . S
O799 Gd750 2.412 . S
O799 C809 1.252 . S
O800 Gd751 2.545 . S
O800 C818 1.258 . S
O801 Gd750 2.362 . S
O801 Gd751 2.606 . S
O801 C817 1.284 . S
O802 Gd750 2.324 . S
O802 C825 1.254 . S
O803 Gd751 2.429 . S
O803 C825 1.268 . S
O804 Gd751 2.545 . S
O804 C817 1.250 . S
O805 Gd751 2.412 . S
O805 C818 1.252 . S
C806 O795 1.284 . S
C806 O798 1.250 . S
C807 H776 0.929 . S
C807 C792 1.437 . S
C807 C808 1.317 . S
C808 H779 0.930 . S
C808 C784 1.431 . S
C808 C807 1.317 . S
C809 Gd750 2.828 . S
C809 O794 1.258 . S
C809 O799 1.252 . S
C809 C810 1.497 . S
C810 C809 1.497 . S
C810 C811 1.395 . S
C810 C812 1.380 . S
C811 C810 1.395 . S
C811 C814 1.398 . S
C811 H826 0.930 . S
C812 C810 1.380 . S
C812 C813 1.391 . S
C812 H827 0.930 . S
C813 C812 1.391 . S
C813 C815 1.387 . S
C814 C811 1.398 . S
C814 C815 1.380 . S
C814 H828 0.930 . S
C815 C813 1.387 . S
C815 C814 1.380 . S
C815 H829 0.930 . S
C816 O796 1.254 . S
C816 O797 1.268 . S
C817 O801 1.284 . S
C817 O804 1.250 . S
C818 Gd751 2.828 . S
C818 O800 1.258 . S
C818 O805 1.252 . S
C818 C819 1.497 . S
C819 C818 1.497 . S
C819 C820 1.395 . S
C819 C821 1.380 . S
C820 C819 1.395 . S
C820 C823 1.398 . S
C820 H830 0.930 . S
C821 C819 1.380 . S
C821 C822 1.391 . S
C821 H831 0.930 . S
C822 C821 1.391 . S
C822 C824 1.387 . S
C823 C820 1.398 . S
C823 C824 1.380 . S
C823 H832 0.930 . S
C824 C822 1.387 . S
C824 C823 1.380 . S
C824 H833 0.930 . S
C825 O802 1.254 . S
C825 O803 1.268 . S
H826 C811 0.930 . S
H827 C812 0.930 . S
H828 C814 0.930 . S
H829 C815 0.930 . S
H830 C820 0.930 . S
H831 C821 0.930 . S
H832 C823 0.930 . S
H833 C824 0.930 . S
Gd834 N865 2.661 . S
Gd834 N871 2.601 . S
Gd834 O878 2.545 . S
Gd834 O879 2.606 . S
Gd834 O881 2.429 . S
Gd834 O882 2.545 . S
Gd834 O883 2.412 . S
Gd834 O885 2.362 . S
Gd834 O886 2.324 . S
Gd834 C893 2.828 . S
Gd835 N844 2.661 . S
Gd835 N848 2.601 . S
Gd835 O879 2.362 . S
Gd835 O880 2.324 . S
Gd835 O884 2.545 . S
Gd835 O885 2.606 . S
Gd835 O887 2.429 . S
Gd835 O888 2.545 . S
Gd835 O889 2.412 . S
Gd835 C902 2.828 . S
C836 C839 1.417 1_455 S
C836 C841 1.431 . S
C836 C842 1.412 . S
C837 C840 1.437 1_455 S
C837 C841 1.317 . S
C837 H856 0.929 . S
C838 C839 1.426 . S
C838 C840 1.413 . S
C838 N848 1.359 . S
C839 C836 1.417 1_655 S
C839 C838 1.426 . S
C839 N844 1.350 . S
C840 C837 1.437 1_655 S
C840 C838 1.413 . S
C840 C850 1.391 . S
C841 C836 1.431 . S
C841 C837 1.317 . S
C841 H852 0.930 . S
C842 C836 1.412 . S
C842 C843 1.355 . S
C842 H854 0.930 . S
C843 C842 1.355 . S
C843 C845 1.402 1_455 S
C843 H855 0.930 . S
N844 Gd835 2.661 . S
N844 C839 1.350 . S
N844 C845 1.307 . S
C845 C843 1.402 1_655 S
C845 N844 1.307 . S
C845 H846 0.930 . S
H846 C845 0.930 . S
C847 N848 1.334 . S
C847 C849 1.394 . S
C847 H851 0.930 . S
N848 Gd835 2.601 . S
N848 C838 1.359 . S
N848 C847 1.334 . S
C849 C847 1.394 . S
C849 C850 1.359 . S
C849 H861 0.930 . S
C850 C840 1.391 . S
C850 C849 1.359 . S
C850 H862 0.929 . S
H851 C847 0.930 . S
H852 C841 0.930 . S
H853 C870 0.930 . S
H854 C842 0.930 . S
H855 C843 0.930 . S
H856 C837 0.929 . S
H857 C875 0.930 . S
H858 C866 0.930 . S
H859 C867 0.930 . S
H860 C891 0.929 . S
H861 C849 0.930 . S
H862 C850 0.929 . S
H863 C892 0.930 . S
H864 C873 0.930 . S
N865 Gd834 2.661 . S
N865 C869 1.350 . S
N865 C870 1.307 . S
C866 H858 0.930 . S
C866 C867 1.355 . S
C866 C868 1.412 . S
C867 H859 0.930 . S
C867 C866 1.355 . S
C867 C870 1.402 . S
C868 C866 1.412 . S
C868 C869 1.417 . S
C868 C892 1.431 . S
C869 N865 1.350 . S
C869 C868 1.417 . S
C869 C872 1.426 . S
C870 H853 0.930 . S
C870 N865 1.307 . S
C870 C867 1.402 . S
N871 Gd834 2.601 . S
N871 C872 1.359 . S
N871 C875 1.334 . S
C872 C869 1.426 . S
C872 N871 1.359 . S
C872 C876 1.413 . S
C873 H864 0.930 . S
C873 C874 1.359 . S
C873 C875 1.394 . S
C874 C873 1.359 . S
C874 C876 1.391 . S
C874 H877 0.929 . S
C875 H857 0.930 . S
C875 N871 1.334 . S
C875 C873 1.394 . S
C876 C872 1.413 . S
C876 C874 1.391 . S
C876 C891 1.437 . S
H877 C874 0.929 . S
O878 Gd834 2.545 . S
O878 C893 1.258 . S
O879 Gd834 2.606 . S
O879 Gd835 2.362 . S
O879 C890 1.284 . S
O880 Gd835 2.324 . S
O880 C900 1.254 . S
O881 Gd834 2.429 . S
O881 C900 1.268 . S
O882 Gd834 2.545 . S
O882 C890 1.250 . S
O883 Gd834 2.412 . S
O883 C893 1.252 . S
O884 Gd835 2.545 . S
O884 C902 1.258 . S
O885 Gd834 2.362 . S
O885 Gd835 2.606 . S
O885 C901 1.284 . S
O886 Gd834 2.324 . S
O886 C909 1.254 . S
O887 Gd835 2.429 . S
O887 C909 1.268 . S
O888 Gd835 2.545 . S
O888 C901 1.250 . S
O889 Gd835 2.412 . S
O889 C902 1.252 . S
C890 O879 1.284 . S
C890 O882 1.250 . S
C891 H860 0.929 . S
C891 C876 1.437 . S
C891 C892 1.317 . S
C892 H863 0.930 . S
C892 C868 1.431 . S
C892 C891 1.317 . S
C893 Gd834 2.828 . S
C893 O878 1.258 . S
C893 O883 1.252 . S
C893 C894 1.497 . S
C894 C893 1.497 . S
C894 C895 1.395 . S
C894 C896 1.380 . S
C895 C894 1.395 . S
C895 C898 1.398 . S
C895 H910 0.930 . S
C896 C894 1.380 . S
C896 C897 1.391 . S
C896 H911 0.930 . S
C897 C896 1.391 . S
C897 C899 1.387 . S
C898 C895 1.398 . S
C898 C899 1.380 . S
C898 H912 0.930 . S
C899 C897 1.387 . S
C899 C898 1.380 . S
C899 H913 0.930 . S
C900 O880 1.254 . S
C900 O881 1.268 . S
C901 O885 1.284 . S
C901 O888 1.250 . S
C902 Gd835 2.828 . S
C902 O884 1.258 . S
C902 O889 1.252 . S
C902 C903 1.497 . S
C903 C902 1.497 . S
C903 C904 1.395 . S
C903 C905 1.380 . S
C904 C903 1.395 . S
C904 C907 1.398 . S
C904 H914 0.930 . S
C905 C903 1.380 . S
C905 C906 1.391 . S
C905 H915 0.930 . S
C906 C905 1.391 . S
C906 C908 1.387 . S
C907 C904 1.398 . S
C907 C908 1.380 . S
C907 H916 0.930 . S
C908 C906 1.387 . S
C908 C907 1.380 . S
C908 H917 0.930 . S
C909 O886 1.254 . S
C909 O887 1.268 . S
H910 C895 0.930 . S
H911 C896 0.930 . S
H912 C898 0.930 . S
H913 C899 0.930 . S
H914 C904 0.930 . S
H915 C905 0.930 . S
H916 C907 0.930 . S
H917 C908 0.930 . S
C918 C919 1.387 . S
C918 H922 0.950 . S
C918 C927 1.390 . S
C919 C918 1.387 . S
C919 C921 1.387 . S
H920 C927 0.950 . S
C921 C919 1.387 . S
C921 C923 1.390 . S
C921 H925 0.950 . S
H922 C918 0.950 . S
C923 C921 1.390 . S
C923 C924 1.387 . S
C923 H926 0.950 . S
C924 C923 1.387 . S
C924 C927 1.387 . S
H925 C921 0.950 . S
H926 C923 0.950 . S
C927 C918 1.390 . S
C927 H920 0.950 . S
C927 C924 1.387 . S
C928 C929 1.387 . S
C928 H932 0.950 . S
C928 C937 1.390 . S
C929 C928 1.387 . S
C929 C931 1.387 . S
H930 C937 0.950 . S
C931 C929 1.387 . S
C931 C933 1.390 . S
C931 H935 0.950 . S
H932 C928 0.950 . S
C933 C931 1.390 . S
C933 C934 1.387 . S
C933 H936 0.950 . S
C934 C933 1.387 . S
C934 C937 1.387 . S
H935 C931 0.950 . S
H936 C933 0.950 . S
C937 C928 1.390 . S
C937 H930 0.950 . S
C937 C934 1.387 . S
C938 C939 1.387 . S
C938 H942 0.950 . S
C938 C947 1.390 . S
C939 C938 1.387 . S
C939 C941 1.387 . S
H940 C947 0.952 1_556 S
C941 C939 1.387 . S
C941 C943 1.390 . S
C941 H945 0.950 . S
H942 C938 0.950 . S
C943 C941 1.390 . S
C943 C944 1.387 . S
C943 H946 0.950 . S
C944 C943 1.387 . S
C944 C947 1.387 . S
H945 C941 0.950 . S
H946 C943 0.950 . S
C947 C938 1.390 . S
C947 H940 0.952 1_554 S
C947 C944 1.387 . S
C948 C949 1.387 . S
C948 H952 0.950 . S
C948 C957 1.390 . S
C949 C948 1.387 . S
C949 C951 1.387 . S
H950 C957 0.950 . S
C951 C949 1.387 . S
C951 C953 1.390 . S
C951 H955 0.950 . S
H952 C948 0.950 . S
C953 C951 1.390 . S
C953 C954 1.387 . S
C953 H956 0.950 . S
C954 C953 1.387 . S
C954 C957 1.387 . S
H955 C951 0.950 . S
H956 C953 0.950 . S
C957 C948 1.390 . S
C957 H950 0.950 . S
C957 C954 1.387 . S
C958 C959 1.387 . S
C958 H962 0.950 . S
C958 C967 1.390 . S
C959 C958 1.387 . S
C959 C961 1.387 . S
H960 C967 0.950 . S
C961 C959 1.387 . S
C961 C963 1.390 . S
C961 H965 0.950 . S
H962 C958 0.950 . S
C963 C961 1.390 . S
C963 C964 1.387 . S
C963 H966 0.950 . S
C964 C963 1.387 . S
C964 C967 1.387 . S
H965 C961 0.950 . S
H966 C963 0.950 . S
C967 C958 1.390 . S
C967 H960 0.950 . S
C967 C964 1.387 . S
C968 C969 1.387 . S
C968 H972 0.950 . S
C968 C977 1.390 . S
C969 C968 1.387 . S
C969 C971 1.387 . S
H970 C977 0.950 1_554 S
C971 C969 1.387 . S
C971 C973 1.390 . S
C971 H975 0.950 . S
H972 C968 0.950 . S
C973 C971 1.390 . S
C973 C974 1.387 . S
C973 H976 0.950 . S
C974 C973 1.387 . S
C974 C977 1.387 . S
H975 C971 0.950 . S
H976 C973 0.950 . S
C977 C968 1.390 . S
C977 H970 0.950 1_556 S
C977 C974 1.387 . S
C978 C979 1.387 . S
C978 H982 0.950 . S
C978 C987 1.390 . S
C979 C978 1.387 . S
C979 C981 1.387 . S
H980 C987 0.950 . S
C981 C979 1.387 . S
C981 C983 1.390 . S
C981 H985 0.950 . S
H982 C978 0.950 . S
C983 C981 1.390 . S
C983 C984 1.387 . S
C983 H986 0.950 . S
C984 C983 1.387 . S
C984 C987 1.387 . S
H985 C981 0.950 . S
H986 C983 0.950 . S
C987 C978 1.390 . S
C987 H980 0.950 . S
C987 C984 1.387 . S
C988 C989 1.387 . S
C988 H992 0.950 . S
C988 C997 1.390 . S
C989 C988 1.387 . S
C989 C991 1.387 . S
H990 C997 0.950 . S
C991 C989 1.387 . S
C991 C993 1.390 . S
C991 H995 0.950 . S
H992 C988 0.950 . S
C993 C991 1.390 . S
C993 C994 1.387 . S
C993 H996 0.950 . S
C994 C993 1.387 . S
C994 C997 1.387 . S
H995 C991 0.950 . S
H996 C993 0.950 . S
C997 C988 1.390 . S
C997 H990 0.950 . S
C997 C994 1.387 . S
C998 C999 1.387 . S
C998 H1002 0.950 . S
C998 C1007 1.390 . S
C999 C998 1.387 . S
C999 C1001 1.387 . S
H1000 C1007 0.950 1_554 S
C1001 C999 1.387 . S
C1001 C1003 1.390 . S
C1001 H1005 0.950 . S
H1002 C998 0.950 . S
C1003 C1001 1.390 . S
C1003 C1004 1.387 . S
C1003 H1006 0.950 . S
C1004 C1003 1.387 . S
C1004 C1007 1.387 . S
H1005 C1001 0.950 . S
H1006 C1003 0.950 . S
C1007 C998 1.390 . S
C1007 H1000 0.950 1_556 S
C1007 C1004 1.387 . S
C1008 C1009 1.387 . S
C1008 H1012 0.950 . S
C1008 C1017 1.390 . S
C1009 C1008 1.387 . S
C1009 C1011 1.387 . S
H1010 C1017 0.950 . S
C1011 C1009 1.387 . S
C1011 C1013 1.390 . S
C1011 H1015 0.950 . S
H1012 C1008 0.950 . S
C1013 C1011 1.390 . S
C1013 C1014 1.387 . S
C1013 H1016 0.950 . S
C1014 C1013 1.387 . S
C1014 C1017 1.387 . S
H1015 C1011 0.950 . S
H1016 C1013 0.950 . S
C1017 C1008 1.390 . S
C1017 H1010 0.950 . S
C1017 C1014 1.387 . S
C1018 C1019 1.387 . S
C1018 H1022 0.950 . S
C1018 C1027 1.390 . S
C1019 C1018 1.387 . S
C1019 C1021 1.387 . S
H1020 C1027 0.950 . S
C1021 C1019 1.387 . S
C1021 C1023 1.390 . S
C1021 H1025 0.950 . S
H1022 C1018 0.950 . S
C1023 C1021 1.390 . S
C1023 C1024 1.387 . S
C1023 H1026 0.950 . S
C1024 C1023 1.387 . S
C1024 C1027 1.387 . S
H1025 C1021 0.950 . S
H1026 C1023 0.950 . S
C1027 C1018 1.390 . S
C1027 H1020 0.950 . S
C1027 C1024 1.387 . S
C1028 C1029 1.387 . S
C1028 H1032 0.950 . S
C1028 C1037 1.390 . S
C1029 C1028 1.387 . S
C1029 C1031 1.387 . S
H1030 C1037 0.950 . S
C1031 C1029 1.387 . S
C1031 C1033 1.390 . S
C1031 H1035 0.950 . S
H1032 C1028 0.950 . S
C1033 C1031 1.390 . S
C1033 C1034 1.387 . S
C1033 H1036 0.950 . S
C1034 C1033 1.387 . S
C1034 C1037 1.387 . S
H1035 C1031 0.950 . S
H1036 C1033 0.950 . S
C1037 C1028 1.390 . S
C1037 H1030 0.950 . S
C1037 C1034 1.387 . S
C1038 C1039 1.387 . S
C1038 H1042 0.950 . S
C1038 C1047 1.390 1_655 S
C1039 C1038 1.387 . S
C1039 C1041 1.387 . S
H1040 C1047 0.950 . S
C1041 C1039 1.387 . S
C1041 C1043 1.390 1_655 S
C1041 H1045 0.950 . S
H1042 C1038 0.950 . S
C1043 C1041 1.390 1_455 S
C1043 C1044 1.387 . S
C1043 H1046 0.950 . S
C1044 C1043 1.387 . S
C1044 C1047 1.387 . S
H1045 C1041 0.950 . S
H1046 C1043 0.950 . S
C1047 C1038 1.390 1_455 S
C1047 H1040 0.950 . S
C1047 C1044 1.387 . S
C1048 C1049 1.387 . S
C1048 H1052 0.950 . S
C1048 C1057 1.390 . S
C1049 C1048 1.387 . S
C1049 C1051 1.387 . S
H1050 C1057 0.950 . S
C1051 C1049 1.387 . S
C1051 C1053 1.390 . S
C1051 H1055 0.950 . S
H1052 C1048 0.950 . S
C1053 C1051 1.390 . S
C1053 C1054 1.387 . S
C1053 H1056 0.950 . S
C1054 C1053 1.387 . S
C1054 C1057 1.387 . S
H1055 C1051 0.950 . S
H1056 C1053 0.950 . S
C1057 C1048 1.390 . S
C1057 H1050 0.950 . S
C1057 C1054 1.387 . S
C1058 C1059 1.387 . S
C1058 H1062 0.950 . S
C1058 C1067 1.390 1_545 S
C1059 C1058 1.387 . S
C1059 C1061 1.387 . S
H1060 C1067 0.950 . S
C1061 C1059 1.387 . S
C1061 C1063 1.390 1_545 S
C1061 H1065 0.950 . S
H1062 C1058 0.950 . S
C1063 C1061 1.390 1_565 S
C1063 C1064 1.387 . S
C1063 H1066 0.950 . S
C1064 C1063 1.387 . S
C1064 C1067 1.387 . S
H1065 C1061 0.950 . S
H1066 C1063 0.950 . S
C1067 C1058 1.390 1_565 S
C1067 H1060 0.950 . S
C1067 C1064 1.387 . S
C1068 C1069 1.387 . S
C1068 H1072 0.950 . S
C1068 C1077 1.390 . S
C1069 C1068 1.387 . S
C1069 C1071 1.387 . S
H1070 C1077 0.950 . S
C1071 C1069 1.387 . S
C1071 C1073 1.390 . S
C1071 H1075 0.950 . S
H1072 C1068 0.950 . S
C1073 C1071 1.390 . S
C1073 C1074 1.387 . S
C1073 H1076 0.950 . S
C1074 C1073 1.387 . S
C1074 C1077 1.387 . S
H1075 C1071 0.950 . S
H1076 C1073 0.950 . S
C1077 C1068 1.390 . S
C1077 H1070 0.950 . S
C1077 C1074 1.387 . S
C1078 C1079 1.387 . S
C1078 H1082 0.950 . S
C1078 C1087 1.390 . S
C1079 C1078 1.387 . S
C1079 C1081 1.387 . S
H1080 C1087 0.950 . S
C1081 C1079 1.387 . S
C1081 C1083 1.390 . S
C1081 H1085 0.950 . S
H1082 C1078 0.950 . S
C1083 C1081 1.390 . S
C1083 C1084 1.387 . S
C1083 H1086 0.950 . S
C1084 C1083 1.387 . S
C1084 C1087 1.387 . S
H1085 C1081 0.950 . S
H1086 C1083 0.950 . S
C1087 C1078 1.390 . S
C1087 H1080 0.950 . S
C1087 C1084 1.387 . S
C1088 C1089 1.387 . S
C1088 H1092 0.950 . S
C1088 C1097 1.390 . S
C1089 C1088 1.387 . S
C1089 C1091 1.387 . S
H1090 C1097 0.950 . S
C1091 C1089 1.387 . S
C1091 C1093 1.390 . S
C1091 H1095 0.950 . S
H1092 C1088 0.950 . S
C1093 C1091 1.390 . S
C1093 C1094 1.387 . S
C1093 H1096 0.950 . S
C1094 C1093 1.387 . S
C1094 C1097 1.387 . S
H1095 C1091 0.950 . S
H1096 C1093 0.950 . S
C1097 C1088 1.390 . S
C1097 H1090 0.950 . S
C1097 C1094 1.387 . S
C1098 C1099 1.387 . S
C1098 H1102 0.950 . S
C1098 C1107 1.390 . S
C1099 C1098 1.387 . S
C1099 C1101 1.387 . S
H1100 C1107 0.950 . S
C1101 C1099 1.387 . S
C1101 C1103 1.390 . S
C1101 H1105 0.950 . S
H1102 C1098 0.950 . S
C1103 C1101 1.390 . S
C1103 C1104 1.387 . S
C1103 H1106 0.950 . S
C1104 C1103 1.387 . S
C1104 C1107 1.387 . S
H1105 C1101 0.950 . S
H1106 C1103 0.950 . S
C1107 C1098 1.390 . S
C1107 H1100 0.950 . S
C1107 C1104 1.387 . S
C1108 C1109 1.387 . S
C1108 H1112 0.950 . S
C1108 C1117 1.390 . S
C1109 C1108 1.387 . S
C1109 C1111 1.387 . S
H1110 C1117 0.950 . S
C1111 C1109 1.387 . S
C1111 C1113 1.390 . S
C1111 H1115 0.950 . S
H1112 C1108 0.950 . S
C1113 C1111 1.390 . S
C1113 C1114 1.387 . S
C1113 H1116 0.950 . S
C1114 C1113 1.387 . S
C1114 C1117 1.387 . S
H1115 C1111 0.950 . S
H1116 C1113 0.950 . S
C1117 C1108 1.390 . S
C1117 H1110 0.950 . S
C1117 C1114 1.387 . S
C1118 C1119 1.387 . S
C1118 H1122 0.950 . S
C1118 C1127 1.390 . S
C1119 C1118 1.387 . S
C1119 C1121 1.387 . S
H1120 C1127 0.950 . S
C1121 C1119 1.387 . S
C1121 C1123 1.390 . S
C1121 H1125 0.950 . S
H1122 C1118 0.950 . S
C1123 C1121 1.390 . S
C1123 C1124 1.387 . S
C1123 H1126 0.950 . S
C1124 C1123 1.387 . S
C1124 C1127 1.387 . S
H1125 C1121 0.950 . S
H1126 C1123 0.950 . S
C1127 C1118 1.390 . S
C1127 H1120 0.950 . S
C1127 C1124 1.387 . S
C1128 C1129 1.387 . S
C1128 H1132 0.950 . S
C1128 C1137 1.390 1_545 S
C1129 C1128 1.387 . S
C1129 C1131 1.387 . S
H1130 C1137 0.950 . S
C1131 C1129 1.387 . S
C1131 C1133 1.390 1_545 S
C1131 H1135 0.950 . S
H1132 C1128 0.950 . S
C1133 C1131 1.390 1_565 S
C1133 C1134 1.387 . S
C1133 H1136 0.950 . S
C1134 C1133 1.387 . S
C1134 C1137 1.387 . S
H1135 C1131 0.950 . S
H1136 C1133 0.950 . S
C1137 C1128 1.390 1_565 S
C1137 H1130 0.950 . S
C1137 C1134 1.387 . S
C1138 C1139 1.387 . S
C1138 H1142 0.950 . S
C1138 C1147 1.390 1_655 S
C1139 C1138 1.387 . S
C1139 C1141 1.387 . S
H1140 C1147 0.950 . S
C1141 C1139 1.387 . S
C1141 C1143 1.390 1_655 S
C1141 H1145 0.950 . S
H1142 C1138 0.950 . S
C1143 C1141 1.390 1_455 S
C1143 C1144 1.387 . S
C1143 H1146 0.950 . S
C1144 C1143 1.387 . S
C1144 C1147 1.387 . S
H1145 C1141 0.950 . S
H1146 C1143 0.950 . S
C1147 C1138 1.390 1_455 S
C1147 H1140 0.950 . S
C1147 C1144 1.387 . S
C1148 C1149 1.387 . S
C1148 H1152 0.950 . S
C1148 C1157 1.390 . S
C1149 C1148 1.387 . S
C1149 C1151 1.387 . S
H1150 C1157 0.950 . S
C1151 C1149 1.387 . S
C1151 C1153 1.390 . S
C1151 H1155 0.950 . S
H1152 C1148 0.950 . S
C1153 C1151 1.390 . S
C1153 C1154 1.387 . S
C1153 H1156 0.950 . S
C1154 C1153 1.387 . S
C1154 C1157 1.387 . S
H1155 C1151 0.950 . S
H1156 C1153 0.950 . S
C1157 C1148 1.390 . S
C1157 H1150 0.950 . S
C1157 C1154 1.387 . S
C1158 C1159 1.387 . S
C1158 H1162 0.950 . S
C1158 C1167 1.390 . S
C1159 C1158 1.387 . S
C1159 C1161 1.387 . S
H1160 C1167 0.950 . S
C1161 C1159 1.387 . S
C1161 C1163 1.390 . S
C1161 H1165 0.950 . S
H1162 C1158 0.950 . S
C1163 C1161 1.390 . S
C1163 C1164 1.387 . S
C1163 H1166 0.950 . S
C1164 C1163 1.387 . S
C1164 C1167 1.387 . S
H1165 C1161 0.950 . S
H1166 C1163 0.950 . S
C1167 C1158 1.390 . S
C1167 H1160 0.950 . S
C1167 C1164 1.387 . S
C1168 C1169 1.387 . S
C1168 H1172 0.950 . S
C1168 C1177 1.390 . S
C1169 C1168 1.387 . S
C1169 C1171 1.387 . S
H1170 C1177 0.950 . S
C1171 C1169 1.387 . S
C1171 C1173 1.390 . S
C1171 H1175 0.950 . S
H1172 C1168 0.950 . S
C1173 C1171 1.390 . S
C1173 C1174 1.387 . S
C1173 H1176 0.950 . S
C1174 C1173 1.387 . S
C1174 C1177 1.387 . S
H1175 C1171 0.950 . S
H1176 C1173 0.950 . S
C1177 C1168 1.390 . S
C1177 H1170 0.950 . S
C1177 C1174 1.387 . S
C1178 C1179 1.387 . S
C1178 H1182 0.950 . S
C1178 C1187 1.390 . S
C1179 C1178 1.387 . S
C1179 C1181 1.387 . S
H1180 C1187 0.950 . S
C1181 C1179 1.387 . S
C1181 C1183 1.390 . S
C1181 H1185 0.950 . S
H1182 C1178 0.950 . S
C1183 C1181 1.390 . S
C1183 C1184 1.387 . S
C1183 H1186 0.950 . S
C1184 C1183 1.387 . S
C1184 C1187 1.387 . S
H1185 C1181 0.950 . S
H1186 C1183 0.950 . S
C1187 C1178 1.390 . S
C1187 H1180 0.950 . S
C1187 C1184 1.387 . S
C1188 C1189 1.387 . S
C1188 H1192 0.950 . S
C1188 C1197 1.390 1_565 S
C1189 C1188 1.387 . S
C1189 C1191 1.387 . S
H1190 C1197 0.950 . S
C1191 C1189 1.387 . S
C1191 C1193 1.390 1_565 S
C1191 H1195 0.950 . S
H1192 C1188 0.950 . S
C1193 C1191 1.390 1_545 S
C1193 C1194 1.387 . S
C1193 H1196 0.950 . S
C1194 C1193 1.387 . S
C1194 C1197 1.387 . S
H1195 C1191 0.950 . S
H1196 C1193 0.950 . S
C1197 C1188 1.390 1_545 S
C1197 H1190 0.950 . S
C1197 C1194 1.387 . S
C1198 C1199 1.387 1_655 S
C1198 H1202 0.950 . S
C1198 C1207 1.390 . S
C1199 C1198 1.387 1_455 S
C1199 C1201 1.387 . S
H1200 C1207 0.950 . S
C1201 C1199 1.387 . S
C1201 C1203 1.390 1_455 S
C1201 H1205 0.950 . S
H1202 C1198 0.950 . S
C1203 C1201 1.390 1_655 S
C1203 C1204 1.387 . S
C1203 H1206 0.950 . S
C1204 C1203 1.387 . S
C1204 C1207 1.387 . S
H1205 C1201 0.950 . S
H1206 C1203 0.950 . S
C1207 C1198 1.390 . S
C1207 H1200 0.950 . S
C1207 C1204 1.387 . S
C1208 C1209 1.387 . S
C1208 H1212 0.950 . S
C1208 C1217 1.390 . S
C1209 C1208 1.387 . S
C1209 C1211 1.387 . S
H1210 C1217 0.950 . S
C1211 C1209 1.387 . S
C1211 C1213 1.390 . S
C1211 H1215 0.950 . S
H1212 C1208 0.950 . S
C1213 C1211 1.390 . S
C1213 C1214 1.387 . S
C1213 H1216 0.950 . S
C1214 C1213 1.387 . S
C1214 C1217 1.387 . S
H1215 C1211 0.950 . S
H1216 C1213 0.950 . S
C1217 C1208 1.390 . S
C1217 H1210 0.950 . S
C1217 C1214 1.387 . S
C1218 C1219 1.387 . S
C1218 H1222 0.950 . S
C1218 C1227 1.390 1_455 S
C1219 C1218 1.387 . S
C1219 C1221 1.387 . S
H1220 C1227 0.950 . S
C1221 C1219 1.387 . S
C1221 C1223 1.390 1_455 S
C1221 H1225 0.950 . S
H1222 C1218 0.950 . S
C1223 C1221 1.390 1_655 S
C1223 C1224 1.387 . S
C1223 H1226 0.950 . S
C1224 C1223 1.387 . S
C1224 C1227 1.387 . S
H1225 C1221 0.950 . S
H1226 C1223 0.950 . S
C1227 C1218 1.390 1_655 S
C1227 H1220 0.950 . S
C1227 C1224 1.387 . S
C1228 C1229 1.387 . S
C1228 H1232 0.950 . S
C1228 C1237 1.390 . S
C1229 C1228 1.387 . S
C1229 C1231 1.387 . S
H1230 C1237 0.950 . S
C1231 C1229 1.387 . S
C1231 C1233 1.390 . S
C1231 H1235 0.950 . S
H1232 C1228 0.950 . S
C1233 C1231 1.390 . S
C1233 C1234 1.387 . S
C1233 H1236 0.950 . S
C1234 C1233 1.387 . S
C1234 C1237 1.387 . S
H1235 C1231 0.950 . S
H1236 C1233 0.950 . S
C1237 C1228 1.390 . S
C1237 H1230 0.950 . S
C1237 C1234 1.387 . S
C1238 C1239 1.387 . S
C1238 H1242 0.950 . S
C1238 C1247 1.390 1_565 S
C1239 C1238 1.387 . S
C1239 C1241 1.387 . S
H1240 C1247 0.950 . S
C1241 C1239 1.387 . S
C1241 C1243 1.390 1_565 S
C1241 H1245 0.950 . S
H1242 C1238 0.950 . S
C1243 C1241 1.390 1_545 S
C1243 C1244 1.387 . S
C1243 H1246 0.950 . S
C1244 C1243 1.387 . S
C1244 C1247 1.387 . S
H1245 C1241 0.950 . S
H1246 C1243 0.950 . S
C1247 C1238 1.390 1_545 S
C1247 H1240 0.950 . S
C1247 C1244 1.387 . S
C1248 C1249 1.387 . S
C1248 H1252 0.950 . S
C1248 C1257 1.390 . S
C1249 C1248 1.387 . S
C1249 C1251 1.387 . S
H1250 C1257 0.950 . S
C1251 C1249 1.387 . S
C1251 C1253 1.390 . S
C1251 H1255 0.950 . S
H1252 C1248 0.950 . S
C1253 C1251 1.390 . S
C1253 C1254 1.387 . S
C1253 H1256 0.950 . S
C1254 C1253 1.387 . S
C1254 C1257 1.387 . S
H1255 C1251 0.950 . S
H1256 C1253 0.950 . S
C1257 C1248 1.390 . S
C1257 H1250 0.950 . S
C1257 C1254 1.387 . S
C1258 C1259 1.387 . S
C1258 H1262 0.950 . S
C1258 C1267 1.390 . S
C1259 C1258 1.387 . S
C1259 C1261 1.387 . S
H1260 C1267 0.950 . S
C1261 C1259 1.387 . S
C1261 C1263 1.390 . S
C1261 H1265 0.950 . S
H1262 C1258 0.950 . S
C1263 C1261 1.390 . S
C1263 C1264 1.387 . S
C1263 H1266 0.950 . S
C1264 C1263 1.387 . S
C1264 C1267 1.387 . S
H1265 C1261 0.950 . S
H1266 C1263 0.950 . S
C1267 C1258 1.390 . S
C1267 H1260 0.950 . S
C1267 C1264 1.387 . S
C1268 C1269 1.387 . S
C1268 H1272 0.950 . S
C1268 C1277 1.390 . S
C1269 C1268 1.387 . S
C1269 C1271 1.387 . S
H1270 C1277 0.950 . S
C1271 C1269 1.387 . S
C1271 C1273 1.390 . S
C1271 H1275 0.950 . S
H1272 C1268 0.950 . S
C1273 C1271 1.390 . S
C1273 C1274 1.387 . S
C1273 H1276 0.950 . S
C1274 C1273 1.387 . S
C1274 C1277 1.387 . S
H1275 C1271 0.950 . S
H1276 C1273 0.950 . S
C1277 C1268 1.390 . S
C1277 H1270 0.950 . S
C1277 C1274 1.387 . S
C1278 C1279 1.387 . S
C1278 H1282 0.950 . S
C1278 C1287 1.390 . S
C1279 C1278 1.387 . S
C1279 C1281 1.387 . S
H1280 C1287 0.950 . S
C1281 C1279 1.387 . S
C1281 C1283 1.390 . S
C1281 H1285 0.950 . S
H1282 C1278 0.950 . S
C1283 C1281 1.390 . S
C1283 C1284 1.387 . S
C1283 H1286 0.950 . S
C1284 C1283 1.387 . S
C1284 C1287 1.387 . S
H1285 C1281 0.950 . S
H1286 C1283 0.950 . S
C1287 C1278 1.390 . S
C1287 H1280 0.950 . S
C1287 C1284 1.387 . S
C1288 C1289 1.387 . S
C1288 H1292 0.950 . S
C1288 C1297 1.390 . S
C1289 C1288 1.387 . S
C1289 C1291 1.387 . S
H1290 C1297 0.950 . S
C1291 C1289 1.387 . S
C1291 C1293 1.390 . S
C1291 H1295 0.950 . S
H1292 C1288 0.950 . S
C1293 C1291 1.390 . S
C1293 C1294 1.387 . S
C1293 H1296 0.950 . S
C1294 C1293 1.387 . S
C1294 C1297 1.387 . S
H1295 C1291 0.950 . S
H1296 C1293 0.950 . S
C1297 C1288 1.390 . S
C1297 H1290 0.950 . S
C1297 C1294 1.387 . S
C1298 C1299 1.387 . S
C1298 H1302 0.950 . S
C1298 C1307 1.390 . S
C1299 C1298 1.387 . S
C1299 C1301 1.387 . S
H1300 C1307 0.950 . S
C1301 C1299 1.387 . S
C1301 C1303 1.390 . S
C1301 H1305 0.950 . S
H1302 C1298 0.950 . S
C1303 C1301 1.390 . S
C1303 C1304 1.387 . S
C1303 H1306 0.950 . S
C1304 C1303 1.387 . S
C1304 C1307 1.387 . S
H1305 C1301 0.950 . S
H1306 C1303 0.950 . S
C1307 C1298 1.390 . S
C1307 H1300 0.950 . S
C1307 C1304 1.387 . S
C1308 C1309 1.387 . S
C1308 H1312 0.950 . S
C1308 C1317 1.390 . S
C1309 C1308 1.387 . S
C1309 C1311 1.387 . S
H1310 C1317 0.950 . S
C1311 C1309 1.387 . S
C1311 C1313 1.390 . S
C1311 H1315 0.950 . S
H1312 C1308 0.950 . S
C1313 C1311 1.390 . S
C1313 C1314 1.387 . S
C1313 H1316 0.950 . S
C1314 C1313 1.387 . S
C1314 C1317 1.387 . S
H1315 C1311 0.950 . S
H1316 C1313 0.950 . S
C1317 C1308 1.390 . S
C1317 H1310 0.950 . S
C1317 C1314 1.387 . S
C1318 C1319 1.387 . S
C1318 H1322 0.950 . S
C1318 C1327 1.390 . S
C1319 C1318 1.387 . S
C1319 C1321 1.387 . S
H1320 C1327 0.950 . S
C1321 C1319 1.387 . S
C1321 C1323 1.390 . S
C1321 H1325 0.950 . S
H1322 C1318 0.950 . S
C1323 C1321 1.390 . S
C1323 C1324 1.387 . S
C1323 H1326 0.950 . S
C1324 C1323 1.387 . S
C1324 C1327 1.387 . S
H1325 C1321 0.950 . S
H1326 C1323 0.950 . S
C1327 C1318 1.390 . S
C1327 H1320 0.950 . S
C1327 C1324 1.387 . S
C1328 C1329 1.387 . S
C1328 H1332 0.950 . S
C1328 C1337 1.390 . S
C1329 C1328 1.387 . S
C1329 C1331 1.387 . S
H1330 C1337 0.950 . S
C1331 C1329 1.387 . S
C1331 C1333 1.390 . S
C1331 H1335 0.950 . S
H1332 C1328 0.950 . S
C1333 C1331 1.390 . S
C1333 C1334 1.387 . S
C1333 H1336 0.950 . S
C1334 C1333 1.387 . S
C1334 C1337 1.387 . S
H1335 C1331 0.950 . S
H1336 C1333 0.950 . S
C1337 C1328 1.390 . S
C1337 H1330 0.950 . S
C1337 C1334 1.387 . S
C1338 C1339 1.387 . S
C1338 H1342 0.950 . S
C1338 C1347 1.390 . S
C1339 C1338 1.387 . S
C1339 C1341 1.387 . S
H1340 C1347 0.950 . S
C1341 C1339 1.387 . S
C1341 C1343 1.390 . S
C1341 H1345 0.950 . S
H1342 C1338 0.950 . S
C1343 C1341 1.390 . S
C1343 C1344 1.387 . S
C1343 H1346 0.950 . S
C1344 C1343 1.387 . S
C1344 C1347 1.387 . S
H1345 C1341 0.950 . S
H1346 C1343 0.950 . S
C1347 C1338 1.390 . S
C1347 H1340 0.950 . S
C1347 C1344 1.387 . S
C1348 C1349 1.387 . S
C1348 H1352 0.950 . S
C1348 C1357 1.390 . S
C1349 C1348 1.387 . S
C1349 C1351 1.387 . S
H1350 C1357 0.950 . S
C1351 C1349 1.387 . S
C1351 C1353 1.390 . S
C1351 H1355 0.950 . S
H1352 C1348 0.950 . S
C1353 C1351 1.390 . S
C1353 C1354 1.387 . S
C1353 H1356 0.950 . S
C1354 C1353 1.387 . S
C1354 C1357 1.387 . S
H1355 C1351 0.950 . S
H1356 C1353 0.950 . S
C1357 C1348 1.390 . S
C1357 H1350 0.950 . S
C1357 C1354 1.387 . S
C1358 C1359 1.387 . S
C1358 H1362 0.950 . S
C1358 C1367 1.390 . S
C1359 C1358 1.387 . S
C1359 C1361 1.387 . S
H1360 C1367 0.950 . S
C1361 C1359 1.387 . S
C1361 C1363 1.390 . S
C1361 H1365 0.950 . S
H1362 C1358 0.950 . S
C1363 C1361 1.390 . S
C1363 C1364 1.387 . S
C1363 H1366 0.950 . S
C1364 C1363 1.387 . S
C1364 C1367 1.387 . S
H1365 C1361 0.950 . S
H1366 C1363 0.950 . S
C1367 C1358 1.390 . S
C1367 H1360 0.950 . S
C1367 C1364 1.387 . S
C1368 C1369 1.387 . S
C1368 H1372 0.950 . S
C1368 C1377 1.390 . S
C1369 C1368 1.387 . S
C1369 C1371 1.387 . S
H1370 C1377 0.950 . S
C1371 C1369 1.387 . S
C1371 C1373 1.390 . S
C1371 H1375 0.950 . S
H1372 C1368 0.950 . S
C1373 C1371 1.390 . S
C1373 C1374 1.387 . S
C1373 H1376 0.950 . S
C1374 C1373 1.387 . S
C1374 C1377 1.387 . S
H1375 C1371 0.950 . S
H1376 C1373 0.950 . S
C1377 C1368 1.390 . S
C1377 H1370 0.950 . S
C1377 C1374 1.387 . S
C1378 C1379 1.387 . S
C1378 H1382 0.950 . S
C1378 C1387 1.390 . S
C1379 C1378 1.387 . S
C1379 C1381 1.387 . S
H1380 C1387 0.950 . S
C1381 C1379 1.387 . S
C1381 C1383 1.390 . S
C1381 H1385 0.950 . S
H1382 C1378 0.950 . S
C1383 C1381 1.390 . S
C1383 C1384 1.387 . S
C1383 H1386 0.950 . S
C1384 C1383 1.387 . S
C1384 C1387 1.387 . S
H1385 C1381 0.950 . S
H1386 C1383 0.950 . S
C1387 C1378 1.390 . S
C1387 H1380 0.950 . S
C1387 C1384 1.387 . S
C1388 C1389 1.387 . S
C1388 H1392 0.950 . S
C1388 C1397 1.390 . S
C1389 C1388 1.387 . S
C1389 C1391 1.387 . S
H1390 C1397 0.950 . S
C1391 C1389 1.387 . S
C1391 C1393 1.390 . S
C1391 H1395 0.950 . S
H1392 C1388 0.950 . S
C1393 C1391 1.390 . S
C1393 C1394 1.387 . S
C1393 H1396 0.950 . S
C1394 C1393 1.387 . S
C1394 C1397 1.387 . S
H1395 C1391 0.950 . S
H1396 C1393 0.950 . S
C1397 C1388 1.390 . S
C1397 H1390 0.950 . S
C1397 C1394 1.387 . S
C1398 C1399 1.387 . S
C1398 H1402 0.950 . S
C1398 C1407 1.390 . S
C1399 C1398 1.387 . S
C1399 C1401 1.387 . S
H1400 C1407 0.950 . S
C1401 C1399 1.387 . S
C1401 C1403 1.390 . S
C1401 H1405 0.950 . S
H1402 C1398 0.950 . S
C1403 C1401 1.390 . S
C1403 C1404 1.387 . S
C1403 H1406 0.950 . S
C1404 C1403 1.387 . S
C1404 C1407 1.387 . S
H1405 C1401 0.950 . S
H1406 C1403 0.950 . S
C1407 C1398 1.390 . S
C1407 H1400 0.950 . S
C1407 C1404 1.387 . S
C1408 C1409 1.387 . S
C1408 H1412 0.950 . S
C1408 C1417 1.390 . S
C1409 C1408 1.387 . S
C1409 C1411 1.387 . S
H1410 C1417 0.950 . S
C1411 C1409 1.387 . S
C1411 C1413 1.390 . S
C1411 H1415 0.950 . S
H1412 C1408 0.950 . S
C1413 C1411 1.390 . S
C1413 C1414 1.387 . S
C1413 H1416 0.950 . S
C1414 C1413 1.387 . S
C1414 C1417 1.387 . S
H1415 C1411 0.950 . S
H1416 C1413 0.950 . S
C1417 C1408 1.390 . S
C1417 H1410 0.950 . S
C1417 C1414 1.387 . S
C1418 C1419 1.387 . S
C1418 H1422 0.950 . S
C1418 C1427 1.390 . S
C1419 C1418 1.387 . S
C1419 C1421 1.387 . S
H1420 C1427 0.950 . S
C1421 C1419 1.387 . S
C1421 C1423 1.390 . S
C1421 H1425 0.950 . S
H1422 C1418 0.950 . S
C1423 C1421 1.390 . S
C1423 C1424 1.387 . S
C1423 H1426 0.950 . S
C1424 C1423 1.387 . S
C1424 C1427 1.387 . S
H1425 C1421 0.950 . S
H1426 C1423 0.950 . S
C1427 C1418 1.390 . S
C1427 H1420 0.950 . S
C1427 C1424 1.387 . S
C1428 C1429 1.387 . S
C1428 H1432 0.950 . S
C1428 C1437 1.390 . S
C1429 C1428 1.387 . S
C1429 C1431 1.387 . S
H1430 C1437 0.950 . S
C1431 C1429 1.387 . S
C1431 C1433 1.390 . S
C1431 H1435 0.950 . S
H1432 C1428 0.950 . S
C1433 C1431 1.390 . S
C1433 C1434 1.387 . S
C1433 H1436 0.950 . S
C1434 C1433 1.387 . S
C1434 C1437 1.387 . S
H1435 C1431 0.950 . S
H1436 C1433 0.950 . S
C1437 C1428 1.390 . S
C1437 H1430 0.950 . S
C1437 C1434 1.387 . S
C1438 C1439 1.387 . S
C1438 H1442 0.950 . S
C1438 C1447 1.390 . S
C1439 C1438 1.387 . S
C1439 C1441 1.387 . S
H1440 C1447 0.950 . S
C1441 C1439 1.387 . S
C1441 C1443 1.390 . S
C1441 H1445 0.950 . S
H1442 C1438 0.950 . S
C1443 C1441 1.390 . S
C1443 C1444 1.387 . S
C1443 H1446 0.950 . S
C1444 C1443 1.387 . S
C1444 C1447 1.387 . S
H1445 C1441 0.950 . S
H1446 C1443 0.950 . S
C1447 C1438 1.390 . S
C1447 H1440 0.950 . S
C1447 C1444 1.387 . S
C1448 C1449 1.387 . S
C1448 H1452 0.950 . S
C1448 C1457 1.390 . S
C1449 C1448 1.387 . S
C1449 C1451 1.387 . S
H1450 C1457 0.950 . S
C1451 C1449 1.387 . S
C1451 C1453 1.390 . S
C1451 H1455 0.950 . S
H1452 C1448 0.950 . S
C1453 C1451 1.390 . S
C1453 C1454 1.387 . S
C1453 H1456 0.950 . S
C1454 C1453 1.387 . S
C1454 C1457 1.387 . S
H1455 C1451 0.950 . S
H1456 C1453 0.950 . S
C1457 C1448 1.390 . S
C1457 H1450 0.950 . S
C1457 C1454 1.387 . S
C919 C124 1.462 . S
C924 C218 1.382 . S
C929 C130 1.501 . S
C934 C302 1.426 . S
C939 C115 1.486 . S
C944 C396 1.442 . S
C949 C106 1.466 . S
C954 C312 1.426 . S
C964 C386 1.382 . S
C959 C85 1.460 . S
C969 C97 1.436 . S
C974 C228 1.393 . S
C984 C229 1.398 . S
C979 C103 1.481 . S
C994 C313 1.410 . S
C989 C88 1.481 . S
C999 C94 1.485 . S
C1004 C405 1.444 . S
C1009 C121 1.463 . S
C1014 C321 1.425 . S
C1019 C133 1.439 . S
C1024 C397 1.360 . S
C1034 C237 1.414 . S
C1029 C112 1.456 . S
C1044 C470 1.382 . S
C1039 C16 1.461 . S
C1049 C22 1.502 . S
C1054 C554 1.430 . S
C1059 C7 1.487 . S
C1064 C648 1.445 . S
C1069 C160 1.465 . S
C1074 C564 1.424 . S
C1079 C139 1.460 . S
C1084 C638 1.382 . S
C1089 C151 1.438 . S
C1094 C480 1.396 . S
C1099 C157 1.481 . S
C1104 C481 1.398 . S
C1109 C142 1.480 . S
C1114 C565 1.406 . S
C1124 C657 1.443 . S
C1119 C148 1.484 . S
C1129 C13 1.463 . S
C1134 C573 1.424 . S
C1144 C649 1.360 . S
C1139 C25 1.439 . S
C1149 C4 1.456 . S
C1154 C489 1.415 . S
C1164 C722 1.384 . S
C1159 C70 1.461 . S
C1169 C76 1.501 . S
C1174 C806 1.429 . S
C1184 C900 1.443 . S
C1179 C61 1.486 . S
C1194 C816 1.425 . S
C1189 C52 1.465 . S
C1204 C890 1.383 . S
C1199 C31 1.460 . S
C1209 C43 1.437 . S
C1214 C732 1.396 . S
C1219 C49 1.480 . S
C1224 C733 1.399 . S
C1229 C34 1.481 . S
C1234 C817 1.410 . S
C1244 C909 1.444 . S
C1239 C40 1.485 . S
C1249 C67 1.463 . S
C1254 C825 1.425 . S
C1259 C79 1.439 . S
C1264 C901 1.363 . S
C1269 C58 1.455 . S
C1274 C741 1.412 . S
C1279 C140 1.509 . S
C1284 C225 1.403 . S
C1294 C309 1.385 . S
C1289 C149 1.514 . S
C1299 C158 1.517 . S
C1304 C402 1.397 . S
C1309 C59 1.527 . S
C1314 C318 1.396 . S
C1319 C68 1.505 . S
C1324 C393 1.387 . S
C1334 C234 1.405 . S
C1329 C77 1.509 . S
C1339 C32 1.508 . S
C1344 C477 1.407 . S
C1349 C41 1.514 . S
C1354 C561 1.381 . S
C1359 C50 1.517 . S
C1364 C654 1.396 . S
C1369 C113 1.527 . S
C1374 C570 1.393 . S
C1384 C645 1.387 . S
C1379 C122 1.505 . S
C1389 C131 1.508 . S
C1394 C486 1.409 . S
C1399 C86 1.508 . S
C1404 C729 1.403 . S
C1409 C95 1.514 . S
C1414 C813 1.381 . S
C1424 C906 1.398 . S
C1419 C104 1.517 . S
C1429 C5 1.527 . S
C1434 C822 1.395 . S
C1439 C14 1.505 . S
C1444 C897 1.387 . S
C1449 C23 1.508 . S
C1454 C738 1.408 . S
