# Generated by pormake.
# Topology zzz, (3,6)-cn, num edge types: 1
# Building blocks:
#     Node 0, Type 0, BuildingBlock: PAMTOO_clean_linker_0, # of connection points: 3
#     Node 1, Type 0, BuildingBlock: PAMTOO_clean_linker_0, # of connection points: 3
#     Node 2, Type 0, BuildingBlock: PAMTOO_clean_linker_0, # of connection points: 3
#     Node 3, Type 0, BuildingBlock: PAMTOO_clean_linker_0, # of connection points: 3
#     Node 4, Type 0, BuildingBlock: PAMTOO_clean_linker_0, # of connection points: 3
#     Node 5, Type 0, BuildingBlock: PAMTOO_clean_linker_0, # of connection points: 3
#     Node 6, Type 0, BuildingBlock: PAMTOO_clean_linker_0, # of connection points: 3
#     Node 7, Type 0, BuildingBlock: PAMTOO_clean_linker_0, # of connection points: 3
#     Node 8, Type 1, BuildingBlock: LEVNOQ01_clean_sbu_1, # of connection points: 6
#     Node 9, Type 1, BuildingBlock: LEVNOQ01_clean_sbu_1, # of connection points: 6
#     Node 10, Type 1, BuildingBlock: LEVNOQ01_clean_sbu_1, # of connection points: 6
#     Node 11, Type 1, BuildingBlock: LEVNOQ01_clean_sbu_1, # of connection points: 6
#     Edge 12, Type (0, 1), BuildingBlock: XUDNAN_clean_linker_2, # of connection points: 2
#     Edge 13, Type (0, 1), BuildingBlock: XUDNAN_clean_linker_2, # of connection points: 2
#     Edge 14, Type (0, 1), BuildingBlock: XUDNAN_clean_linker_2, # of connection points: 2
#     Edge 15, Type (0, 1), BuildingBlock: XUDNAN_clean_linker_2, # of connection points: 2
#     Edge 16, Type (0, 1), BuildingBlock: XUDNAN_clean_linker_2, # of connection points: 2
#     Edge 17, Type (0, 1), BuildingBlock: XUDNAN_clean_linker_2, # of connection points: 2
#     Edge 18, Type (0, 1), BuildingBlock: XUDNAN_clean_linker_2, # of connection points: 2
#     Edge 19, Type (0, 1), BuildingBlock: XUDNAN_clean_linker_2, # of connection points: 2
#     Edge 20, Type (0, 1), BuildingBlock: XUDNAN_clean_linker_2, # of connection points: 2
#     Edge 21, Type (0, 1), BuildingBlock: XUDNAN_clean_linker_2, # of connection points: 2
#     Edge 22, Type (0, 1), BuildingBlock: XUDNAN_clean_linker_2, # of connection points: 2
#     Edge 23, Type (0, 1), BuildingBlock: XUDNAN_clean_linker_2, # of connection points: 2
#     Edge 24, Type (0, 1), BuildingBlock: XUDNAN_clean_linker_2, # of connection points: 2
#     Edge 25, Type (0, 1), BuildingBlock: XUDNAN_clean_linker_2, # of connection points: 2
#     Edge 26, Type (0, 1), BuildingBlock: XUDNAN_clean_linker_2, # of connection points: 2
#     Edge 27, Type (0, 1), BuildingBlock: XUDNAN_clean_linker_2, # of connection points: 2
#     Edge 28, Type (0, 1), BuildingBlock: XUDNAN_clean_linker_2, # of connection points: 2
#     Edge 29, Type (0, 1), BuildingBlock: XUDNAN_clean_linker_2, # of connection points: 2
#     Edge 30, Type (0, 1), BuildingBlock: XUDNAN_clean_linker_2, # of connection points: 2
#     Edge 31, Type (0, 1), BuildingBlock: XUDNAN_clean_linker_2, # of connection points: 2
#     Edge 32, Type (0, 1), BuildingBlock: XUDNAN_clean_linker_2, # of connection points: 2
#     Edge 33, Type (0, 1), BuildingBlock: XUDNAN_clean_linker_2, # of connection points: 2
#     Edge 34, Type (0, 1), BuildingBlock: XUDNAN_clean_linker_2, # of connection points: 2
#     Edge 35, Type (0, 1), BuildingBlock: XUDNAN_clean_linker_2, # of connection points: 2
# Relax obj value: 0.134
# Max RMSD: 0.181
# Mean RMSD: 0.104
data_MOF--net-zzz--node1-LEVNOQ01_clean_sbu_1--node2-PAMTOO_clean_linker_0--edge1-XUDNAN_clean_linker_2
_symmetry_space_group_name_H-M    P1
_symmetry_Int_Tables_number       1
_symmetry_cell_setting            triclinic
loop_
_symmetry_equiv_pos_as_xyz
'x, y, z'
_cell_length_a     49.679803
_cell_length_b     49.839274
_cell_length_c     15.774261
_cell_angle_alpha  90.077457
_cell_angle_beta   90.082481
_cell_angle_gamma 90.074189
loop_
_atom_site_label
_atom_site_type_symbol
_atom_site_fract_x
_atom_site_fract_y
_atom_site_fract_z
_atom_type_partial_charge
H0 H 0.85518 0.57703 0.18123 0.0
H1 H 0.78365 0.56638 0.03251 0.0
H2 H 0.77754 0.58665 0.29683 0.0
H3 H 0.72134 0.55712 0.21293 0.0
C4 C 0.7354 0.55548 0.15848 0.0
O5 O 0.75032 0.57888 0.15351 0.0
H6 H 0.74846 0.53779 0.17189 0.0
C7 C 0.83348 0.57909 0.17489 0.0
C8 C 0.8181 0.58362 0.24748 0.0
C9 C 0.82125 0.57173 0.09863 0.0
C10 C 0.79326 0.5727 0.09095 0.0
C11 C 0.77745 0.57928 0.16139 0.0
C12 C 0.78982 0.58398 0.24078 0.0
H13 H 0.96097 0.84314 0.22061 0.0
H14 H 0.94548 0.7743 0.06233 0.0
H15 H 0.98186 0.7648 0.30777 0.0
H16 H 1.00365 0.72856 0.17403 0.0
C17 C 0.98646 0.72937 0.12887 0.0
O18 O 0.96413 0.73954 0.17022 0.0
H19 H 0.99257 0.743 0.0763 0.0
C20 C 0.95954 0.82162 0.21157 0.0
C21 C 0.97075 0.8054 0.27437 0.0
C22 C 0.95193 0.8111 0.13253 0.0
C23 C 0.95145 0.78305 0.1224 0.0
C24 C 0.96165 0.7662 0.18611 0.0
C25 C 0.97194 0.77748 0.26165 0.0
H26 H 0.68514 0.94882 0.18285 0.0
H27 H 0.75646 0.95251 0.02949 0.0
H28 H 0.76201 0.96181 0.30083 0.0
H29 H 0.81181 0.98902 0.20781 0.0
C30 C 0.80244 0.98307 0.14665 0.0
O31 O 0.78963 0.95864 0.15723 0.0
H32 H 0.78763 0.99893 0.1291 0.0
C33 C 0.70692 0.95007 0.178 0.0
C34 C 0.72197 0.95487 0.25112 0.0
C35 C 0.71903 0.94938 0.09811 0.0
C36 C 0.74695 0.95246 0.09127 0.0
C37 C 0.76259 0.95625 0.16454 0.0
C38 C 0.75004 0.95794 0.24467 0.0
H39 H 0.58803 0.67933 0.18026 0.0
H40 H 0.59728 0.74975 0.026 0.0
H41 H 0.55117 0.753 0.25666 0.0
H42 H 0.5327 0.79211 0.13005 0.0
C43 C 0.55026 0.79087 0.08661 0.0
O44 O 0.57219 0.78165 0.13176 0.0
H45 H 0.54491 0.77666 0.03463 0.0
C46 C 0.58571 0.7008 0.1712 0.0
C47 C 0.56857 0.71444 0.22613 0.0
C48 C 0.59492 0.71268 0.09633 0.0
C49 C 0.5908 0.74024 0.08424 0.0
C50 C 0.57639 0.75516 0.14483 0.0
C51 C 0.56448 0.74207 0.21473 0.0
H52 H 0.18971 0.44411 0.19994 0.0
H53 H 0.2485 0.45246 0.39872 0.0
H54 H 0.27013 0.46858 0.13957 0.0
H55 H 0.31944 0.44593 0.24409 0.0
C56 C 0.30849 0.44711 0.30535 0.0
O57 O 0.28802 0.46578 0.29815 0.0
H58 H 0.30002 0.42682 0.31839 0.0
C59 C 0.2104 0.44705 0.2202 0.0
C60 C 0.22913 0.4553 0.15981 0.0
C61 C 0.21671 0.44665 0.30665 0.0
C62 C 0.24328 0.45224 0.33201 0.0
C63 C 0.26286 0.4592 0.27169 0.0
C64 C 0.25559 0.46141 0.18539 0.0
H65 H 0.06197 0.1871 0.25235 0.0
H66 H 0.05828 0.26413 0.37448 0.0
H67 H 0.09342 0.25656 0.12539 0.0
H68 H 0.11716 0.30941 0.24038 0.0
C69 C 0.10295 0.3023 0.28982 0.0
O70 O 0.08109 0.29036 0.25009 0.0
H71 H 0.11386 0.28757 0.33033 0.0
C72 C 0.0658 0.20857 0.25137 0.0
C73 C 0.07854 0.21974 0.18113 0.0
C74 C 0.05821 0.2243 0.32066 0.0
C75 C 0.06376 0.25183 0.32051 0.0
C76 C 0.07656 0.26355 0.25029 0.0
C77 C 0.08384 0.2475 0.17995 0.0
H78 H 0.35109 0.07084 0.26235 0.0
H79 H 0.27716 0.076 0.40224 0.0
H80 H 0.27606 0.08062 0.1301 0.0
H81 H 0.23987 0.04327 0.25203 0.0
C82 C 0.22875 0.06245 0.26178 0.0
O83 O 0.24653 0.08375 0.26961 0.0
H84 H 0.21622 0.06569 0.20436 0.0
C85 C 0.32964 0.07506 0.26343 0.0
C86 C 0.31561 0.07657 0.18676 0.0
C87 C 0.31594 0.07423 0.34095 0.0
C88 C 0.28796 0.07738 0.34274 0.0
C89 C 0.27365 0.08084 0.26697 0.0
C90 C 0.28741 0.07991 0.18874 0.0
H91 H 0.45929 0.33905 0.32927 0.0
H92 H 0.49415 0.26193 0.37142 0.0
H93 H 0.45739 0.27917 0.13178 0.0
H94 H 0.44331 0.21302 0.20939 0.0
C95 C 0.45387 0.22176 0.26505 0.0
O96 O 0.47292 0.23998 0.23632 0.0
H97 H 0.43817 0.2319 0.30405 0.0
C98 C 0.46323 0.31896 0.30606 0.0
C99 C 0.45936 0.31282 0.22008 0.0
C100 C 0.47888 0.30209 0.35645 0.0
C101 C 0.48248 0.27544 0.33216 0.0
C102 C 0.4717 0.26648 0.25508 0.0
C103 C 0.46174 0.2855 0.19599 0.0
O104 O 0.06008 0.96501 0.88226 0.0
Mg105 Mg 0.06797 0.97218 0.75308 0.0
O106 O 0.02126 0.97708 0.83137 0.0
Mg107 Mg 0.02637 0.01136 0.73319 0.0
O108 O 0.07292 0.00949 0.70168 0.0
O109 O 0.10662 0.98015 0.72029 0.0
O110 O 0.03198 0.04572 0.63476 0.0
O111 O 0.03766 0.04291 0.8382 0.0
Mg112 Mg 0.9897 0.04836 0.71079 0.0
O113 O 0.97867 0.0129 0.76595 0.0
O114 O 0.9928 0.05301 0.57844 0.0
O115 O 0.01259 0.07537 0.78632 0.0
O116 O 0.9513 0.04846 0.74769 0.0
C117 C 0.02751 0.95563 0.61889 0.0
C118 C 0.03473 0.96353 0.88462 0.0
C119 C 0.09818 0.00299 0.69248 0.0
C120 C 0.01772 0.0578 0.57991 0.0
C121 C 0.0308 0.06763 0.83699 0.0
C122 C 0.95508 0.0243 0.77428 0.0
O123 O 0.04692 0.94801 0.66527 0.0
O124 O 0.01713 0.97906 0.627 0.0
O125 O 0.45491 0.99144 0.75741 0.0
Mg126 Mg 0.4835 0.97019 0.68358 0.0
O127 O 0.48022 0.02494 0.80608 0.0
Mg128 Mg 0.51817 0.01774 0.71603 0.0
O129 O 0.51865 0.97197 0.74759 0.0
O130 O 0.49585 0.93372 0.72738 0.0
O131 O 0.55477 0.00917 0.62736 0.0
O132 O 0.54754 0.01693 0.82594 0.0
Mg133 Mg 0.55996 0.06521 0.73185 0.0
O134 O 0.52128 0.0633 0.68597 0.0
O135 O 0.58388 0.04283 0.64339 0.0
O136 O 0.56747 0.05465 0.85998 0.0
O137 O 0.54371 0.10179 0.69762 0.0
C138 C 0.47938 1.00238 0.54819 0.0
C139 C 0.45783 0.01193 0.80485 0.0
C140 C 0.5162 0.94628 0.75934 0.0
C141 C 0.57741 0.02032 0.61076 0.0
C142 C 0.56334 0.02997 0.87382 0.0
C143 C 0.52309 0.08881 0.66935 0.0
O144 O 0.48579 0.97794 0.55283 0.0
O145 O 0.48807 0.01829 0.60496 0.0
O146 O 0.52598 0.4814 0.93449 0.0
Mg147 Mg 0.5463 0.48385 0.81709 0.0
O148 O 0.4986 0.48396 0.82737 0.0
Mg149 Mg 0.51887 0.51653 0.73469 0.0
O150 O 0.56674 0.51683 0.77624 0.0
O151 O 0.5858 0.4806 0.83755 0.0
O152 O 0.5319 0.54925 0.63343 0.0
O153 O 0.51835 0.54867 0.83865 0.0
Mg154 Mg 0.47711 0.55829 0.73419 0.0
O155 O 0.47323 0.51905 0.69163 0.0
O156 O 0.50072 0.58079 0.65047 0.0
O157 O 0.48116 0.57068 0.86172 0.0
O158 O 0.43983 0.54949 0.69024 0.0
C159 C 0.52895 0.45927 0.65451 0.0
C160 C 0.50358 0.47539 0.90184 0.0
C161 C 0.58788 0.50444 0.80689 0.0
C162 C 0.52205 0.57238 0.61574 0.0
C163 C 0.50525 0.56569 0.88171 0.0
C164 C 0.44841 0.52562 0.67362 0.0
O165 O 0.53633 0.45386 0.72914 0.0
O166 O 0.52351 0.48329 0.63321 0.0
O167 O 0.97667 0.46735 0.83029 0.0
Mg168 Mg 0.98215 0.4688 0.69886 0.0
O169 O 0.99273 0.50819 0.82278 0.0
Mg170 Mg 0.02123 0.51268 0.70812 0.0
O171 O 0.02092 0.46785 0.65538 0.0
O172 O 0.99175 0.43349 0.64505 0.0
O173 O 0.04892 0.51702 0.59549 0.0
O174 O 0.05934 0.50064 0.78997 0.0
Mg175 Mg 0.06149 0.56126 0.71079 0.0
O176 O 0.02276 0.55705 0.7535 0.0
O177 O 0.06969 0.55555 0.57985 0.0
O178 O 0.08554 0.53703 0.79112 0.0
O179 O 0.04494 0.59599 0.7581 0.0
C180 C 0.96166 0.51666 0.60448 0.0
C181 C 0.97896 0.49054 0.86163 0.0
C182 C 0.0154 0.44331 0.63145 0.0
C183 C 0.06437 0.53215 0.55326 0.0
C184 C 0.08099 0.51285 0.81248 0.0
C185 C 0.02406 0.58195 0.77806 0.0
O186 O 0.95559 0.49299 0.62672 0.0
O187 O 0.9844 0.52677 0.62523 0.0
H188 H 0.20759 0.01656 0.32842 0.0
H189 H 0.20649 0.10282 0.36178 0.0
H190 H 0.17278 0.09786 0.47682 0.0
H191 H 0.13694 0.00713 0.35992 0.0
H192 H 0.1409 0.97536 0.41282 0.0
H193 H 0.16534 0.98601 0.33566 0.0
H194 H 0.20353 0.98056 0.44658 0.0
H195 H 0.17923 0.96964 0.52374 0.0
H196 H 0.20101 0.99766 0.54708 0.0
H197 H 0.13632 0.08251 0.58503 0.0
H198 H 0.10449 0.05819 0.67996 0.0
H199 H 0.13197 0.9826 0.57568 0.0
C200 C 0.20065 0.03439 0.36103 0.0
C201 C 0.21023 0.06 0.33777 0.0
C202 C 0.19992 0.08293 0.37997 0.0
C203 C 0.18064 0.08029 0.44501 0.0
C204 C 0.17161 0.05462 0.46639 0.0
C205 C 0.18149 0.0321 0.42558 0.0
C206 C 0.16833 0.00677 0.45804 0.0
C207 C 0.15191 0.99301 0.38742 0.0
C208 C 0.18928 0.98754 0.49616 0.0
C209 C 0.15008 0.01831 0.52542 0.0
C210 C 0.15164 0.04598 0.52859 0.0
C211 C 0.13528 0.06083 0.58361 0.0
C212 C 0.11725 0.04694 0.63715 0.0
C213 C 0.11627 0.01856 0.63637 0.0
C214 C 0.13282 0.0043 0.5793 0.0
H215 H 0.44691 0.20842 0.43461 0.0
H216 H 0.49002 0.18447 0.2082 0.0
H217 H 0.50853 0.14521 0.28481 0.0
H218 H 0.49826 0.19035 0.58534 0.0
H219 H 0.47476 0.17835 0.66363 0.0
H220 H 0.46472 0.20405 0.59012 0.0
H221 H 0.42424 0.17453 0.54454 0.0
H222 H 0.43466 0.14827 0.61592 0.0
H223 H 0.43019 0.14116 0.50483 0.0
H224 H 0.52066 0.10757 0.38385 0.0
H225 H 0.53262 0.07874 0.50548 0.0
H226 H 0.48417 0.12831 0.67121 0.0
C227 C 0.46036 0.19495 0.40142 0.0
C228 C 0.46695 0.19933 0.31513 0.0
C229 C 0.48468 0.18136 0.274 0.0
C230 C 0.49509 0.15895 0.31688 0.0
C231 C 0.48758 0.15474 0.40106 0.0
C232 C 0.47102 0.17249 0.44349 0.0
C233 C 0.46688 0.16375 0.5349 0.0
C234 C 0.47677 0.18541 0.59715 0.0
C235 C 0.43723 0.15651 0.551 0.0
C236 C 0.48442 0.13884 0.53802 0.0
C237 C 0.49543 0.13355 0.45926 0.0
C238 C 0.51206 0.11148 0.44563 0.0
C239 C 0.51844 0.09499 0.51482 0.0
C240 C 0.50872 0.1009 0.597 0.0
C241 C 0.49122 0.12294 0.60854 0.0
H242 H 0.34033 0.49234 0.31471 0.0
H243 H 0.32133 0.41933 0.45098 0.0
H244 H 0.35652 0.43006 0.55713 0.0
H245 H 0.41164 0.49019 0.34726 0.0
H246 H 0.41529 0.52593 0.3606 0.0
H247 H 0.38841 0.51273 0.29604 0.0
H248 H 0.35325 0.5383 0.38655 0.0
H249 H 0.38008 0.55196 0.45026 0.0
H250 H 0.35297 0.53379 0.49995 0.0
H251 H 0.39616 0.44792 0.64484 0.0
H252 H 0.43212 0.47458 0.7159 0.0
H253 H 0.42321 0.5366 0.5259 0.0
C254 C 0.34344 0.4788 0.36745 0.0
C255 C 0.32816 0.45499 0.37458 0.0
C256 C 0.33284 0.43767 0.44426 0.0
C257 C 0.35287 0.44354 0.50465 0.0
C258 C 0.36803 0.46689 0.49477 0.0
C259 C 0.36324 0.48446 0.42856 0.0
C260 C 0.38202 0.50839 0.43281 0.0
C261 C 0.40043 0.50935 0.35453 0.0
C262 C 0.36612 0.53466 0.44304 0.0
C263 C 0.3979 0.50174 0.51215 0.0
C264 C 0.38997 0.47749 0.54633 0.0
C265 C 0.40239 0.46702 0.61879 0.0
C266 C 0.42289 0.48211 0.6584 0.0
C267 C 0.4303 0.5075 0.62613 0.0
C268 C 0.41782 0.51719 0.55172 0.0
H269 H 0.05168 0.32443 0.31654 0.0
H270 H 0.13556 0.33358 0.38762 0.0
H271 H 0.1236 0.37253 0.47801 0.0
H272 H 0.03615 0.39548 0.30884 0.0
H273 H 1.00273 0.39089 0.35073 0.0
H274 H 0.01825 0.36457 0.28961 0.0
H275 H 0.01093 0.33115 0.41338 0.0
H276 H 0.99522 0.3573 0.47442 0.0
H277 H 0.02363 0.33939 0.51738 0.0
H278 H 0.10161 0.41135 0.56142 0.0
H279 H 0.07123 0.44294 0.63753 0.0
H280 H 1.00257 0.40635 0.51254 0.0
C281 C 0.06764 0.33457 0.35071 0.0
C282 C 0.09469 0.32596 0.34471 0.0
C283 C 0.11475 0.33993 0.39115 0.0
C284 C 0.10815 0.36209 0.44245 0.0
C285 C 0.08132 0.37012 0.4467 0.0
C286 C 0.06141 0.35663 0.40223 0.0
C287 C 0.034 0.36866 0.41885 0.0
C288 C 0.02209 0.38061 0.33715 0.0
C289 C 0.01483 0.34789 0.45839 0.0
C290 C 0.04142 0.3905 0.4814 0.0
C291 C 0.06882 0.39155 0.49576 0.0
C292 C 0.08009 0.41056 0.55086 0.0
C293 C 0.06277 0.42848 0.59357 0.0
C294 C 0.03457 0.42683 0.58182 0.0
C295 C 0.02403 0.40785 0.52393 0.0
H296 H 0.82119 0.024 0.04889 0.0
H297 H 0.83432 0.93959 0.0992 0.0
H298 H 0.87276 0.93961 -0.00083 0.0
H299 H 0.84076 0.02346 0.8227 0.0
H300 H 0.85689 0.05577 0.831 0.0
H301 H 0.82854 0.04789 0.89765 0.0
H302 H 0.85712 0.05923 0.0307 0.0
H303 H 0.88558 0.06688 0.96466 0.0
H304 H 0.88865 0.04214 0.04736 0.0
H305 H 0.91092 0.95003 0.89403 0.0
H306 H 0.94893 0.97051 0.81475 0.0
H307 H 0.91007 0.04815 0.83699 0.0
C308 C 0.8317 0.00535 0.03704 0.0
C309 C 0.82419 0.98162 0.07963 0.0
C310 C 0.83918 0.95784 0.06531 0.0
C311 C 0.86105 0.95767 0.0086 0.0
C312 C 0.86784 0.9815 0.96732 0.0
C313 C 0.85358 0.00491 0.98133 0.0
C314 C 0.86617 0.02841 0.93553 0.0
C315 C 0.84694 0.03953 0.86769 0.0
C316 C 0.8749 0.05045 -0.00168 0.0
C317 C 0.8902 0.01483 0.89545 0.0
C318 C 0.89067 0.98772 0.91286 0.0
C319 C 0.91132 0.97132 0.88264 0.0
C320 C 0.93261 0.98308 0.83681 0.0
C321 C 0.93259 0.01095 0.81968 0.0
C322 C 0.91078 0.02675 0.84854 0.0
H323 H 0.52316 0.8382 0.10955 0.0
H324 H 0.58963 0.80332 0.97106 0.0
H325 H 0.59491 0.84559 0.88994 0.0
H326 H 0.49283 0.86687 0.94269 0.0
H327 H 0.48141 0.89671 0.99638 0.0
H328 H 0.48737 0.86663 0.05568 0.0
H329 H 0.52053 0.89243 0.15355 0.0
H330 H 0.51469 0.9227 0.09378 0.0
H331 H 0.54848 0.91033 0.10766 0.0
H332 H 0.58728 0.88821 0.8069 0.0
H333 H 0.5657 0.92499 0.72571 0.0
H334 H 0.50431 0.93177 0.91839 0.0
C335 C 0.53945 0.83987 0.0643 0.0
C336 C 0.55629 0.81778 0.04727 0.0
C337 C 0.57686 0.82029 0.98581 0.0
C338 C 0.58002 0.84423 0.93979 0.0
C339 C 0.56258 0.86554 0.95654 0.0
C340 C 0.54278 0.86356 0.01792 0.0
C341 C 0.5242 0.88758 0.01611 0.0
C342 C 0.49474 0.87891 0.00178 0.0
C343 C 0.52716 0.90425 0.09763 0.0
C344 C 0.53541 0.90252 0.94049 0.0
C345 C 0.55809 0.89003 0.90841 0.0
C346 C 0.57002 0.89856 0.83284 0.0
C347 C 0.55777 0.91953 0.78727 0.0
C348 C 0.53386 0.93145 0.81739 0.0
C349 C 0.52316 0.92348 0.89605 0.0
H350 H 0.6868 0.57719 0.11344 0.0
H351 H 0.74833 0.52286 0.02316 0.0
H352 H 0.71941 0.51062 0.90084 0.0
H353 H 0.6375 0.53644 0.0844 0.0
H354 H 0.61075 0.55686 0.04549 0.0
H355 H 0.63637 0.57158 0.1116 0.0
H356 H 0.65332 0.60638 0.00604 0.0
H357 H 0.6253 0.59737 0.93791 0.0
H358 H 0.6591 0.5971 0.89738 0.0
H359 H 0.68058 0.49851 0.80442 0.0
H360 H 0.63573 0.48656 0.74763 0.0
H361 H 0.59941 0.54922 0.89874 0.0
C362 C 0.6945 0.56344 0.06614 0.0
C363 C 0.71967 0.5509 0.07757 0.0
C364 C 0.72902 0.53264 0.01542 0.0
C365 C 0.71279 0.52572 0.94552 0.0
C366 C 0.68748 0.53766 0.9378 0.0
C367 C 0.67859 0.5564 0.99603 0.0
C368 C 0.64936 0.5634 0.98099 0.0
C369 C 0.63251 0.55679 0.06022 0.0
C370 C 0.64656 0.59285 0.95417 0.0
C371 C 0.64263 0.54496 0.90768 0.0
C372 C 0.66507 0.53064 0.8823 0.0
C373 C 0.66314 0.51025 0.822 0.0
C374 C 0.63761 0.50373 0.78945 0.0
C375 C 0.61431 0.51764 0.81656 0.0
C376 C 0.61705 0.53915 0.87407 0.0
H377 H 0.97224 0.71534 0.96577 0.0
H378 H 0.99011 0.68109 0.21133 0.0
H379 H 0.99026 0.63564 0.14785 0.0
H380 H 0.93155 0.65366 0.88298 0.0
H381 H 0.94468 0.6586 0.77775 0.0
H382 H 0.93832 0.68713 0.84536 0.0
H383 H 0.98772 0.70285 0.82614 0.0
H384 H 0.994 0.67465 0.75847 0.0
H385 H 0.01474 0.67999 0.85092 0.0
H386 H 0.99732 0.59549 0.05396 0.0
H387 H 0.01417 0.56605 0.93937 0.0
H388 H 0.99372 0.62653 0.75409 0.0
C389 C 0.97513 0.6981 0.00646 0.0
C390 C 0.98115 0.70161 0.09341 0.0
C391 C 0.9853 0.67873 0.14474 0.0
C392 C 0.98529 0.65285 0.10916 0.0
C393 C 0.98055 0.65007 0.02228 0.0
C394 C 0.97519 0.67213 0.97171 0.0
C395 C 0.97442 0.66427 0.87873 0.0
C396 C 0.94552 0.66603 0.84417 0.0
C397 C 0.99391 0.68144 0.82556 0.0
C398 C 0.98335 0.63524 0.88414 0.0
C399 C 0.9853 0.62695 0.96761 0.0
C400 C 0.99524 0.60158 0.98846 0.0
C401 C 0.00457 0.58485 0.92291 0.0
C402 C 0.00467 0.59389 0.83799 0.0
C403 C 0.99303 0.61893 0.81833 0.0
H404 H 0.01343 0.19367 0.32121 0.0
H405 H 0.07921 0.22104 0.47932 0.0
H406 H 0.07286 0.18189 0.57297 0.0
H407 H 0.97266 0.15667 0.49392 0.0
H408 H 0.96461 0.13056 0.41879 0.0
H409 H 0.96825 0.16474 0.38338 0.0
H410 H 1.00344 0.14856 0.27388 0.0
H411 H 1.00127 0.11465 0.31172 0.0
H412 H 0.03333 0.13161 0.31031 0.0
H413 H 0.06865 0.1348 0.62104 0.0
H414 H 0.05936 0.08703 0.64499 0.0
H415 H 0.99647 0.08915 0.45341 0.0
C416 C 0.02518 0.19227 0.37895 0.0
C417 C 0.04662 0.21026 0.39402 0.0
C418 C 0.06239 0.20764 0.46804 0.0
C419 C 0.05912 0.18526 0.52076 0.0
C420 C 0.03983 0.16614 0.49844 0.0
C421 C 0.02244 0.16983 0.43092 0.0
C422 C 0.0063 0.14467 0.4124 0.0
C423 C 0.97616 0.14945 0.42812 0.0
C424 C 0.01141 0.13429 0.32174 0.0
C425 C 0.01814 0.12589 0.47753 0.0
C426 C 0.03743 0.13866 0.5264 0.0
C427 C 0.05304 0.1248 0.58491 0.0
C428 C 0.04792 0.09747 0.59676 0.0
C429 C 0.0271 0.08431 0.55091 0.0
C430 C 0.0124 0.09869 0.4895 0.0
H431 H 0.35734 0.09693 0.42866 0.0
H432 H 0.30946 0.02475 0.40422 0.0
H433 H 0.34678 0.99808 0.4625 0.0
H434 H 0.41375 0.07516 0.35953 0.0
H435 H 0.43719 0.09032 0.43282 0.0
H436 H 0.40485 0.10543 0.41558 0.0
H437 H 0.39375 0.10294 0.57597 0.0
H438 H 0.42676 0.08908 0.59406 0.0
H439 H 0.39732 0.07148 0.63109 0.0
H440 H 0.3922 0.97866 0.47623 0.0
H441 H 0.44001 0.96767 0.49606 0.0
H442 H 0.45868 0.05254 0.52093 0.0
C443 C 0.35415 0.07586 0.44194 0.0
C444 C 0.33067 0.06279 0.41303 0.0
C445 C 0.32717 0.03506 0.42788 0.0
C446 C 0.34841 0.01972 0.45981 0.0
C447 C 0.37245 0.03274 0.4793 0.0
C448 C 0.37503 0.06037 0.47568 0.0
C449 C 0.40378 0.069 0.4936 0.0
C450 C 0.41556 0.08596 0.42101 0.0
C451 C 0.4055 0.084 0.57875 0.0
C452 C 0.41727 0.04188 0.499 0.0
C453 C 0.39882 0.02128 0.49107 0.0
C454 C 0.40674 0.99456 0.48593 0.0
C455 C 0.43408 0.98857 0.4953 0.0
C456 C 0.45312 0.00925 0.51057 0.0
C457 C 0.4446 0.03629 0.50961 0.0
H458 H 0.47279 0.31768 0.5214 0.0
H459 H 0.52654 0.32057 0.30602 0.0
H460 H 0.54699 0.36208 0.36105 0.0
H461 H 0.45738 0.38057 0.53755 0.0
H462 H 0.45891 0.38529 0.65079 0.0
H463 H 0.45254 0.35248 0.60798 0.0
H464 H 0.49357 0.33277 0.68806 0.0
H465 H 0.49931 0.36531 0.73485 0.0
H466 H 0.526 0.34871 0.67811 0.0
H467 H 0.55204 0.40882 0.4175 0.0
H468 H 0.55207 0.45164 0.49877 0.0
H469 H 0.49856 0.41605 0.68395 0.0
C470 C 0.49024 0.32597 0.48973 0.0
C471 C 0.49847 0.31591 0.41063 0.0
C472 C 0.52062 0.32773 0.36818 0.0
C473 C 0.53205 0.35154 0.39818 0.0
C474 C 0.52196 0.36235 0.47286 0.0
C475 C 0.50266 0.3492 0.52081 0.0
C476 C 0.49452 0.36581 0.59677 0.0
C477 C 0.46404 0.37135 0.5982 0.0
C478 C 0.50392 0.35236 0.67934 0.0
C479 C 0.51036 0.39108 0.57951 0.0
C480 C 0.52609 0.38881 0.50782 0.0
C481 C 0.54056 0.41057 0.4755 0.0
C482 C 0.54008 0.43486 0.52071 0.0
C483 C 0.52529 0.43676 0.59675 0.0
C484 C 0.51003 0.41481 0.62567 0.0
H485 H 0.20932 0.48169 0.43658 0.0
H486 H 0.17168 0.41451 0.30769 0.0
H487 H 0.12716 0.42982 0.35679 0.0
H488 H 0.15608 0.48285 0.62009 0.0
H489 H 0.15976 0.51875 0.62669 0.0
H490 H 0.18837 0.49813 0.60052 0.0
H491 H 0.19521 0.52691 0.4656 0.0
H492 H 0.16569 0.54645 0.48767 0.0
H493 H 0.16854 0.52889 0.38806 0.0
H494 H 0.08676 0.45815 0.39168 0.0
H495 H 0.05344 0.49119 0.44361 0.0
H496 H 0.11818 0.53974 0.5468 0.0
C497 C 0.19198 0.4692 0.42319 0.0
C498 C 0.19387 0.44725 0.36703 0.0
C499 C 0.17058 0.43162 0.35 0.0
C500 C 0.14518 0.44027 0.37702 0.0
C501 C 0.14371 0.4639 0.4239 0.0
C502 C 0.16656 0.47737 0.45076 0.0
C503 C 0.15942 0.50303 0.49678 0.0
C504 C 0.16631 0.50055 0.59162 0.0
C505 C 0.17303 0.52775 0.45703 0.0
C506 C 0.12934 0.50336 0.4832 0.0
C507 C 0.12052 0.48031 0.44304 0.0
C508 C 0.09342 0.47613 0.4241 0.0
C509 C 0.07472 0.49524 0.45202 0.0
C510 C 0.08333 0.51835 0.49693 0.0
C511 C 0.11106 0.52281 0.50985 0.0
H512 H 0.93546 0.86394 0.12314 0.0
H513 H 0.97292 0.8007 0.97482 0.0
H514 H 0.99419 0.83454 0.88485 0.0
H515 H 0.93155 0.91601 0.9587 0.0
H516 H 0.94259 0.94303 0.02737 0.0
H517 H 0.92326 0.91546 0.06958 0.0
H518 H 0.9593 0.90377 0.17864 0.0
H519 H 0.97944 0.93162 0.14359 0.0
H520 H 0.99351 0.8983 0.14505 0.0
H521 H 0.0219 0.87295 0.8401 0.0
H522 H 0.04666 0.91536 0.82044 0.0
H523 H 0.99434 0.95475 0.00166 0.0
C524 C 0.94737 0.85714 0.06988 0.0
C525 C 0.953 0.82951 0.05812 0.0
C526 C 0.96809 0.82157 0.98606 0.0
C527 C 0.98074 0.84077 0.93504 0.0
C528 C 0.97808 0.86771 0.95687 0.0
C529 C 0.96135 0.876 0.02152 0.0
C530 C 0.96514 0.90561 0.04069 0.0
C531 C 0.93908 0.92104 0.02306 0.0
C532 C 0.97492 0.91006 0.1324 0.0
C533 C 0.98701 0.91257 0.97757 0.0
C534 C 0.99425 0.89028 0.93044 0.0
C535 C 0.01599 0.89069 0.87504 0.0
C536 C 0.03023 0.91469 0.86553 0.0
C537 C 0.02257 0.93802 0.9106 0.0
C538 C 1.00062 0.93704 0.96708 0.0
H539 H 0.71247 0.99163 0.99446 0.0
H540 H 0.68296 0.91168 0.04706 0.0
H541 H 0.63876 0.92371 0.98711 0.0
H542 H 0.6633 0.02596 0.06066 0.0
H543 H 0.65989 0.05136 0.98008 0.0
H544 H 0.69175 0.03519 0.99587 0.0
H545 H 0.69362 0.0196 0.83975 0.0
H546 H 0.66256 0.03733 0.82116 0.0
H547 H 0.6652 1.00231 0.79407 0.0
H548 H 0.59569 0.94763 0.96215 0.0
H549 H 0.55829 0.97899 0.93476 0.0
H550 H 0.61571 0.04392 0.90227 0.0
C551 C 0.69731 0.97615 0.98707 0.0
C552 C 0.70091 0.95077 0.02458 0.0
C553 C 0.68051 0.93108 0.01711 0.0
C554 C 0.65525 0.93789 0.98436 0.0
C555 C 0.65121 0.96419 0.95756 0.0
C556 C 0.67199 0.98271 0.95447 0.0
C557 C 0.66166 0.01029 0.93058 0.0
C558 C 0.66963 0.03192 0.9958 0.0
C559 C 0.67132 0.01783 0.84109 0.0
C560 C 0.63169 0.005 0.93122 0.0
C561 C 0.62612 0.97818 0.94448 0.0
C562 C 0.59983 0.9686 0.94995 0.0
C563 C 0.57871 0.98666 0.93617 0.0
C564 C 0.58403 0.014 0.9177 0.0
C565 C 0.61088 0.02334 0.91819 0.0
H566 H 0.56703 0.70976 0.94928 0.0
H567 H 0.63136 0.67175 0.08926 0.0
H568 H 0.61307 0.62763 0.05232 0.0
H569 H 0.51833 0.67436 0.0054 0.0
H570 H 0.49979 0.6693 0.90832 0.0
H571 H 0.52142 0.69798 0.91934 0.0
H572 H 0.54891 0.68498 0.7867 0.0
H573 H 0.52618 0.65717 0.77073 0.0
H574 H 0.56192 0.65139 0.77655 0.0
H575 H 0.58127 0.58963 0.03438 0.0
H576 H 0.54599 0.55666 0.99408 0.0
H577 H 0.50268 0.61969 0.86298 0.0
C578 C 0.57888 0.69221 0.96478 0.0
C579 C 0.59986 0.69398 0.02513 0.0
C580 C 0.61507 0.67069 0.04363 0.0
C581 C 0.60458 0.64538 0.02365 0.0
C582 C 0.58101 0.64406 0.97598 0.0
C583 C 0.56931 0.66677 0.94173 0.0
C584 C 0.54277 0.65998 0.89895 0.0
C585 C 0.51921 0.67639 0.93528 0.0
C586 C 0.5451 0.66359 0.80253 0.0
C587 C 0.54025 0.63062 0.92169 0.0
C588 C 0.56262 0.62177 0.96529 0.0
C589 C 0.56431 0.59573 0.99651 0.0
C590 C 0.54381 0.57749 0.97578 0.0
C591 C 0.52138 0.58581 0.92721 0.0
C592 C 0.51924 0.61294 0.90229 0.0
H593 H 0.85957 0.58749 0.98478 0.0
H594 H 0.82104 0.51824 0.09772 0.0
H595 H 0.85974 0.49005 0.05792 0.0
H596 H 0.89168 0.54611 0.80417 0.0
H597 H 0.92062 0.56792 0.80334 0.0
H598 H 0.88792 0.5812 0.82917 0.0
H599 H 0.90769 0.5997 0.96997 0.0
H600 H 0.93995 0.58547 0.94537 0.0
H601 H 0.92348 0.57689 0.0435 0.0
H602 H 0.90503 0.4715 0.02807 0.0
H603 H 0.94991 0.45984 0.97202 0.0
H604 H 0.95867 0.54104 0.87594 0.0
C605 C 0.85873 0.56609 0.99633 0.0
C606 C 0.83736 0.55475 0.04265 0.0
C607 C 0.83704 0.52691 0.05991 0.0
C608 C 0.85909 0.5109 0.03897 0.0
C609 C 0.88078 0.52301 -0.00136 0.0
C610 C 0.88031 0.54962 0.97364 0.0
C611 C 0.90636 0.55748 0.93068 0.0
C612 C 0.90135 0.56352 0.83626 0.0
C613 C 0.92016 0.58129 0.97522 0.0
C614 C 0.92217 0.53178 0.94175 0.0
C615 C 0.90698 0.51213 0.98056 0.0
C616 C 0.91706 0.48656 0.99636 0.0
C617 C 0.94269 0.48024 0.96563 0.0
C618 C 0.95778 0.4995 0.92004 0.0
C619 C 0.94788 0.52596 0.91189 0.0
H620 H 0.05003 0.21299 0.03605 0.0
H621 H 0.11776 0.182 0.17748 0.0
H622 H 0.11538 0.13956 0.0965 0.0
H623 H 0.01291 0.15754 0.04149 0.0
H624 H 0.99866 0.15912 0.93645 0.0
H625 H 0.00954 0.18937 0.98831 0.0
H626 H 0.04135 0.20075 0.86332 0.0
H627 H 0.02985 0.17098 0.80911 0.0
H628 H 0.06529 0.17608 0.82745 0.0
H629 H 0.09948 0.09733 0.02016 0.0
H630 H 0.07543 0.06156 0.94071 0.0
H631 H 0.01802 0.12068 0.85102 0.0
C632 C 0.06547 0.19796 0.04557 0.0
C633 C 0.08467 0.20108 0.11075 0.0
C634 C 0.10358 0.18033 0.12548 0.0
C635 C 0.1021 0.15601 0.08057 0.0
C636 C 0.08175 0.15284 0.02041 0.0
C637 C 0.06424 0.17358 0.00113 0.0
C638 C 0.04249 0.16427 0.94045 0.0
C639 C 0.01425 0.16779 0.97904 0.0
C640 C 0.0449 0.17889 0.85501 0.0
C641 C 0.04973 0.13491 0.93169 0.0
C642 C 0.07253 0.12861 0.97753 0.0
C643 C 0.08193 0.10221 0.98258 0.0
C644 C 0.068 0.08196 0.93794 0.0
C645 C 0.04483 0.0882 0.88938 0.0
C646 C 0.03572 0.1151 0.887 0.0
H647 H 0.36184 0.09828 0.1171 0.0
H648 H 0.30384 0.03383 0.08807 0.0
H649 H 0.33417 0.01123 0.98724 0.0
H650 H 0.38481 0.09633 0.88707 0.0
H651 H 0.41898 0.10454 0.91563 0.0
H652 H 0.39141 0.1172 0.97819 0.0
H653 H 0.4129 0.09621 0.11212 0.0
H654 H 0.44014 0.08288 0.04988 0.0
H655 H 0.41994 0.06074 0.11404 0.0
H656 H 0.3724 0.99256 0.90854 0.0
H657 H 0.41352 0.98147 0.83215 0.0
H658 H 0.44798 0.05883 0.90057 0.0
C659 C 0.35515 0.07998 0.08655 0.0
C660 C 0.33018 0.06804 0.10903 0.0
C661 C 0.3224 0.04369 0.06991 0.0
C662 C 0.33969 0.03055 0.01343 0.0
C663 C 0.36451 0.04227 0.99515 0.0
C664 C 0.372 0.06682 0.02816 0.0
C665 C 0.4001 0.07459 -0.00215 0.0
C666 C 0.39875 0.09966 0.94134 0.0
C667 C 0.4194 0.07884 0.07297 0.0
C668 C 0.40771 0.04991 0.94619 0.0
C669 C 0.38668 0.03169 0.94599 0.0
C670 C 0.38872 0.00694 0.90628 0.0
C671 C 0.41241 1.00087 0.86291 0.0
C672 C 0.43413 0.01943 0.85833 0.0
C673 C 0.43181 0.04426 0.90194 0.0
H674 H 0.48169 0.36301 0.24028 0.0
H675 H 0.43777 0.31528 0.05506 0.0
H676 H 0.44032 0.3537 0.95496 0.0
H677 H 0.44711 0.42679 0.19028 0.0
H678 H 0.4772 0.44556 0.21423 0.0
H679 H 0.47016 0.41481 0.27 0.0
H680 H 0.51663 0.39622 0.22517 0.0
H681 H 0.5238 0.42656 0.16832 0.0
H682 H 0.52518 0.39471 0.11418 0.0
H683 H 0.45092 0.39807 0.87288 0.0
H684 H 0.46951 0.44078 0.81836 0.0
H685 H 0.50311 0.45817 0.06616 0.0
C686 C 0.47115 0.36044 0.18087 0.0
C687 C 0.45853 0.33585 0.15805 0.0
C688 C 0.44726 0.33374 0.07555 0.0
C689 C 0.44844 0.35561 0.01837 0.0
C690 C 0.46055 0.37962 0.045 0.0
C691 C 0.47139 0.382 0.12508 0.0
C692 C 0.48424 0.40915 0.13958 0.0
C693 C 0.46875 0.42501 0.20754 0.0
C694 C 0.51423 0.40647 0.1631 0.0
C695 C 0.48048 0.4215 0.05316 0.0
C696 C 0.46631 0.40454 -0.00049 0.0
C697 C 0.4616 0.41152 0.91511 0.0
C698 C 0.47212 0.43597 0.88481 0.0
C699 C 0.48758 0.453 0.93835 0.0
C700 C 0.49116 0.44579 0.02397 0.0
H701 H 0.2093 0.50304 0.11214 0.0
H702 H 0.21943 0.42109 0.02826 0.0
H703 H 0.18254 0.42708 0.92421 0.0
H704 H 0.14162 0.50034 0.11825 0.0
H705 H 0.13492 0.53424 0.08472 0.0
H706 H 0.16616 0.52638 0.13675 0.0
H707 H 0.19361 0.54507 0.01037 0.0
H708 H 0.16249 0.55429 0.95949 0.0
H709 H 0.18638 0.53339 0.9045 0.0
H710 H 0.13876 0.43974 0.84911 0.0
H711 H 0.09705 0.46048 0.79241 0.0
H712 H 0.11526 0.53358 0.93029 0.0
C713 C 0.20499 0.48703 0.06757 0.0
C714 C 0.2179 0.46195 0.07562 0.0
C715 C 0.21052 0.44076 0.02045 0.0
C716 C 0.18924 0.44388 0.96232 0.0
C717 C 0.17551 0.4683 0.96059 0.0
C718 C 0.18354 0.48973 0.01051 0.0
C719 C 0.16377 0.51276 0.00445 0.0
C720 C 0.15087 0.51877 0.09117 0.0
C721 C 0.17738 0.53786 0.96745 0.0
C722 C 0.14335 0.50103 0.94355 0.0
C723 C 0.15023 0.47529 0.9193 0.0
C724 C 0.13345 0.46004 0.86678 0.0
C725 C 0.1096 0.4718 0.83585 0.0
C726 C 0.10293 0.49857 0.85719 0.0
C727 C 0.11991 0.51309 0.91269 0.0
H728 H 0.95438 0.82624 0.42759 0.0
H729 H 0.02217 0.82032 0.25638 0.0
H730 H 0.04237 0.86065 0.32112 0.0
H731 H 0.9467 0.89346 0.4316 0.0
H732 H 0.94061 0.89809 0.54332 0.0
H733 H 0.93268 0.8665 0.49369 0.0
H734 H 0.96318 0.841 0.59968 0.0
H735 H 0.97025 0.87237 0.65229 0.0
H736 H 0.99752 0.85177 0.61459 0.0
H737 H 0.05098 0.90549 0.38549 0.0
H738 H 0.05503 0.94576 0.47614 0.0
H739 H 0.98397 0.92161 0.61554 0.0
C740 C 0.97427 0.83249 0.4077 0.0
C741 C 0.98708 0.8198 0.33837 0.0
C742 C 0.01255 0.82922 0.31127 0.0
C743 C 0.0239 0.85243 0.34653 0.0
C744 C 0.00995 0.86551 0.41094 0.0
C745 C 0.98641 0.85522 0.44446 0.0
C746 C 0.97578 0.87332 0.51449 0.0
C747 C 0.94725 0.88343 0.4945 0.0
C748 C 0.97674 0.85876 0.60035 0.0
C749 C 0.99616 0.89604 0.51149 0.0
C750 C 0.01554 0.89114 0.45062 0.0
C751 C 0.03617 0.90935 0.43423 0.0
C752 C 0.03806 0.93238 0.48493 0.0
C753 C 0.01944 0.93704 0.55101 0.0
C754 C 0.99792 0.91891 0.56351 0.0
H755 H 0.7101 1.00216 0.32934 0.0
H756 H 0.69623 0.91651 0.34123 0.0
H757 H 0.65793 0.9239 0.43833 0.0
H758 H 0.68915 0.01782 0.55477 0.0
H759 H 0.67365 0.04887 0.52256 0.0
H760 H 0.70255 0.03632 0.46616 0.0
H761 H 0.67534 0.03867 0.32613 0.0
H762 H 0.64611 0.05038 0.38227 0.0
H763 H 0.64398 0.02062 0.31751 0.0
H764 H 0.61696 0.94098 0.51411 0.0
H765 H 0.58031 0.96614 0.5837 0.0
H766 H 0.62111 0.04097 0.5259 0.0
C767 C 0.69995 0.98497 0.35655 0.0
C768 C 0.70665 0.95868 0.3305 0.0
C769 C 0.69195 0.93667 0.36312 0.0
C770 C 0.66996 0.94074 0.41729 0.0
C771 C 0.66298 0.96697 0.43853 0.0
C772 C 0.67792 0.98872 0.41098 0.0
C773 C 0.66504 0.01491 0.43854 0.0
C774 C 0.68371 0.03039 0.49913 0.0
C775 C 0.65716 0.03215 0.36151 0.0
C776 C 0.64032 0.00451 0.48428 0.0
C777 C 0.63941 0.97681 0.48301 0.0
C778 C 0.61772 0.96266 0.51691 0.0
C779 C 0.59683 0.97716 0.5555 0.0
C780 C 0.59785 0.00553 0.56057 0.0
C781 C 0.61984 0.01929 0.52367 0.0
H782 H 0.56981 0.7089 0.40053 0.0
H783 H 0.53126 0.67943 0.17198 0.0
H784 H 0.51808 0.63801 0.24605 0.0
H785 H 0.59607 0.65152 0.47797 0.0
H786 H 0.58726 0.65558 0.5881 0.0
H787 H 0.5913 0.68463 0.52164 0.0
H788 H 0.54316 0.70081 0.55755 0.0
H789 H 0.53926 0.67235 0.62659 0.0
H790 H 0.51513 0.6782 0.54351 0.0
H791 H 0.51789 0.59644 0.33468 0.0
H792 H 0.51555 0.56257 0.44905 0.0
H793 H 0.54814 0.62047 0.62688 0.0
C794 C 0.55735 0.69436 0.36778 0.0
C795 C 0.55158 0.69726 0.2807 0.0
C796 C 0.5356 0.67761 0.2391 0.0
C797 C 0.52842 0.65382 0.28017 0.0
C798 C 0.53627 0.65054 0.3641 0.0
C799 C 0.54895 0.6708 0.40905 0.0
C800 C 0.55388 0.66227 0.49999 0.0
C801 C 0.58392 0.66359 0.5232 0.0
C802 C 0.53683 0.67943 0.56049 0.0
C803 C 0.54386 0.63349 0.49705 0.0
C804 C 0.53411 0.62707 0.41755 0.0
C805 C 0.52498 0.60134 0.39774 0.0
C806 C 0.52426 0.58207 0.46243 0.0
C807 C 0.53233 0.58878 0.54573 0.0
C808 C 0.54261 0.61468 0.56295 0.0
H809 H 0.83074 0.53718 0.32177 0.0
H810 H 0.84153 0.62294 0.34497 0.0
H811 H 0.87911 0.61555 0.44635 0.0
H812 H 0.85127 0.51596 0.53807 0.0
H813 H 0.8689 0.48724 0.49641 0.0
H814 H 0.83973 0.50002 0.44193 0.0
H815 H 0.86817 0.50426 0.30486 0.0
H816 H 0.89767 0.49246 0.35949 0.0
H817 H 0.89832 0.5244 0.30611 0.0
H818 H 0.91993 0.59778 0.53013 0.0
H819 H 0.95687 0.57174 0.59683 0.0
H820 H 0.91987 0.49789 0.50904 0.0
C821 C 0.83997 0.55437 0.35239 0.0
C822 C 0.83252 0.58063 0.32894 0.0
C823 C 0.84624 0.60273 0.36524 0.0
C824 C 0.86785 0.59864 0.42176 0.0
C825 C 0.87569 0.57233 0.4399 0.0
C826 C 0.86189 0.55059 0.40668 0.0
C827 C 0.87603 0.52445 0.4263 0.0
C828 C 0.8579 0.50583 0.47885 0.0
C829 C 0.8856 0.51059 0.34435 0.0
C830 C 0.89965 0.53465 0.47758 0.0
C831 C 0.89938 0.56231 0.48436 0.0
C832 C 0.92008 0.5761 0.52586 0.0
C833 C 0.94111 0.56118 0.5629 0.0
C834 C 0.94121 0.53278 0.55847 0.0
C835 C 0.92026 0.51956 0.51441 0.0
loop_
_geom_bond_atom_site_label_1
_geom_bond_atom_site_label_2
_geom_bond_distance
_geom_bond_site_symmetry_2
_ccdc_geom_bond_type
H0 C7 0.929 . S
H1 C10 0.930 1_556 S
H2 C12 0.929 . S
H3 C4 0.969 . S
C4 H3 0.969 . S
C4 O5 1.550 . S
C4 H6 0.973 1_554 S
O5 C4 1.550 . S
O5 C11 1.412 . S
H6 C4 0.973 1_556 S
C7 H0 0.929 . S
C7 C8 1.400 . S
C7 C9 1.364 . S
C8 C7 1.400 . S
C8 C12 1.377 . S
C9 C7 1.364 . S
C9 C10 1.374 . S
C10 H1 0.930 1_554 S
C10 C9 1.374 . S
C10 C11 1.383 . S
C11 O5 1.412 . S
C11 C10 1.383 . S
C11 C12 1.394 . S
C12 H2 0.929 . S
C12 C8 1.377 . S
C12 C11 1.394 . S
H13 C20 0.929 . S
H14 C23 0.930 1_556 S
H15 C25 0.929 . S
H16 C17 0.946 1_455 S
C17 H16 0.946 1_655 S
C17 O18 1.550 . S
C17 H19 0.973 1_554 S
O18 C17 1.550 . S
O18 C24 1.412 . S
H19 C17 0.973 1_556 S
C20 H13 0.929 . S
C20 C21 1.400 . S
C20 C22 1.364 . S
C21 C20 1.400 . S
C21 C25 1.377 . S
C22 C20 1.364 . S
C22 C23 1.374 . S
C23 H14 0.930 1_554 S
C23 C22 1.374 . S
C23 C24 1.383 . S
C24 O18 1.412 . S
C24 C23 1.383 . S
C24 C25 1.394 . S
C25 H15 0.929 . S
C25 C21 1.377 . S
C25 C24 1.394 . S
H26 C33 0.929 . S
H27 C36 0.930 1_556 S
H28 C38 0.929 . S
H29 C30 0.969 . S
C30 H29 0.969 . S
C30 O31 1.550 . S
C30 H32 0.973 1_554 S
O31 C30 1.550 . S
O31 C37 1.412 . S
H32 C30 0.973 1_556 S
C33 H26 0.929 . S
C33 C34 1.400 . S
C33 C35 1.364 . S
C34 C33 1.400 . S
C34 C38 1.377 . S
C35 C33 1.364 . S
C35 C36 1.374 . S
C36 H27 0.930 1_554 S
C36 C35 1.374 . S
C36 C37 1.383 . S
C37 O31 1.412 . S
C37 C36 1.383 . S
C37 C38 1.394 . S
C38 H28 0.929 . S
C38 C34 1.377 . S
C38 C37 1.394 . S
H39 C46 0.929 . S
H40 C49 0.930 1_556 S
H41 C51 0.929 . S
H42 C43 0.969 . S
C43 H42 0.969 . S
C43 O44 1.550 . S
C43 H45 0.973 1_554 S
O44 C43 1.550 . S
O44 C50 1.412 . S
H45 C43 0.973 1_556 S
C46 H39 0.929 . S
C46 C47 1.400 . S
C46 C48 1.364 . S
C47 C46 1.400 . S
C47 C51 1.377 . S
C48 C46 1.364 . S
C48 C49 1.374 . S
C49 H40 0.930 1_554 S
C49 C48 1.374 . S
C49 C50 1.383 . S
C50 O44 1.412 . S
C50 C49 1.383 . S
C50 C51 1.394 . S
C51 H41 0.929 . S
C51 C47 1.377 . S
C51 C50 1.394 . S
H52 C59 0.929 . S
H53 C62 0.930 . S
H54 C64 0.929 . S
H55 C56 0.969 . S
C56 H55 0.969 . S
C56 O57 1.550 . S
C56 H58 0.973 . S
O57 C56 1.550 . S
O57 C63 1.412 . S
H58 C56 0.973 . S
C59 H52 0.929 . S
C59 C60 1.400 . S
C59 C61 1.364 . S
C60 C59 1.400 . S
C60 C64 1.377 . S
C61 C59 1.364 . S
C61 C62 1.374 . S
C62 H53 0.930 . S
C62 C61 1.374 . S
C62 C63 1.383 . S
C63 O57 1.412 . S
C63 C62 1.383 . S
C63 C64 1.394 . S
C64 H54 0.929 . S
C64 C60 1.377 . S
C64 C63 1.394 . S
H65 C72 0.929 . S
H66 C75 0.930 . S
H67 C77 0.929 . S
H68 C69 0.969 . S
C69 H68 0.969 . S
C69 O70 1.550 . S
C69 H71 0.973 . S
O70 C69 1.550 . S
O70 C76 1.412 . S
H71 C69 0.973 . S
C72 H65 0.929 . S
C72 C73 1.400 . S
C72 C74 1.364 . S
C73 C72 1.400 . S
C73 C77 1.377 . S
C74 C72 1.364 . S
C74 C75 1.374 . S
C75 H66 0.930 . S
C75 C74 1.374 . S
C75 C76 1.383 . S
C76 O70 1.412 . S
C76 C75 1.383 . S
C76 C77 1.394 . S
C77 H67 0.929 . S
C77 C73 1.377 . S
C77 C76 1.394 . S
H78 C85 0.929 . S
H79 C88 0.930 . S
H80 C90 0.929 . S
H81 C82 0.969 . S
C82 H81 0.969 . S
C82 O83 1.550 . S
C82 H84 0.973 . S
O83 C82 1.550 . S
O83 C89 1.412 . S
H84 C82 0.973 . S
C85 H78 0.929 . S
C85 C86 1.400 . S
C85 C87 1.364 . S
C86 C85 1.400 . S
C86 C90 1.377 . S
C87 C85 1.364 . S
C87 C88 1.374 . S
C88 H79 0.930 . S
C88 C87 1.374 . S
C88 C89 1.383 . S
C89 O83 1.412 . S
C89 C88 1.383 . S
C89 C90 1.394 . S
C90 H80 0.929 . S
C90 C86 1.377 . S
C90 C89 1.394 . S
H91 C98 0.929 . S
H92 C101 0.930 . S
H93 C103 0.929 . S
H94 C95 0.969 . S
C95 H94 0.969 . S
C95 O96 1.550 . S
C95 H97 0.973 . S
O96 C95 1.550 . S
O96 C102 1.412 . S
H97 C95 0.973 . S
C98 H91 0.929 . S
C98 C99 1.400 . S
C98 C100 1.364 . S
C99 C98 1.400 . S
C99 C103 1.377 . S
C100 C98 1.364 . S
C100 C101 1.374 . S
C101 H92 0.930 . S
C101 C100 1.374 . S
C101 C102 1.383 . S
C102 O96 1.412 . S
C102 C101 1.383 . S
C102 C103 1.394 . S
C103 H93 0.929 . S
C103 C99 1.377 . S
C103 C102 1.394 . S
O104 Mg105 1.990 . S
O104 C118 1.253 . S
Mg105 O104 1.990 . S
Mg105 O108 2.180 1_565 S
Mg105 O109 2.117 . S
Mg105 O123 2.030 . S
O106 Mg107 2.072 1_565 S
O106 C118 1.260 . S
Mg107 O106 2.072 1_545 S
Mg107 O108 2.099 . S
Mg107 O110 2.079 . S
Mg107 O111 2.072 . S
Mg107 O113 2.099 1_455 S
Mg107 O124 2.079 1_545 S
O108 Mg105 2.180 1_545 S
O108 Mg107 2.099 . S
O108 C119 1.279 . S
O109 Mg105 2.117 . S
O109 C119 1.250 1_565 S
O110 Mg107 2.079 . S
O110 C120 1.264 . S
O111 Mg107 2.072 . S
O111 C121 1.260 . S
Mg112 O113 2.180 . S
Mg112 O114 2.030 . S
Mg112 O115 1.990 1_655 S
Mg112 O116 2.117 . S
O113 Mg107 2.099 1_655 S
O113 Mg112 2.180 . S
O113 C122 1.279 . S
O114 Mg112 2.030 . S
O114 C120 1.248 1_655 S
O115 Mg112 1.990 1_455 S
O115 C121 1.253 . S
O116 Mg112 2.117 . S
O116 C122 1.250 . S
C117 O123 1.248 . S
C117 O124 1.264 . S
C118 O104 1.253 . S
C118 O106 1.260 . S
C119 O108 1.279 . S
C119 O109 1.250 1_545 S
C120 O110 1.264 . S
C120 O114 1.248 1_455 S
C121 O111 1.260 . S
C121 O115 1.253 . S
C122 O113 1.279 . S
C122 O116 1.250 . S
O123 Mg105 2.030 . S
O123 C117 1.248 . S
O124 Mg107 2.079 1_565 S
O124 C117 1.264 . S
O125 Mg126 1.990 . S
O125 C139 1.253 1_565 S
Mg126 O125 1.990 . S
Mg126 O129 2.180 . S
Mg126 O130 2.117 . S
Mg126 O144 2.030 . S
O127 Mg128 2.072 . S
O127 C139 1.260 . S
Mg128 O127 2.072 . S
Mg128 O129 2.099 1_545 S
Mg128 O131 2.079 1_545 S
Mg128 O132 2.072 . S
Mg128 O134 2.099 . S
Mg128 O145 2.079 . S
O129 Mg126 2.180 . S
O129 Mg128 2.099 1_565 S
O129 C140 1.279 . S
O130 Mg126 2.117 . S
O130 C140 1.250 . S
O131 Mg128 2.079 1_565 S
O131 C141 1.264 1_565 S
O132 Mg128 2.072 . S
O132 C142 1.260 . S
Mg133 O134 2.180 . S
Mg133 O135 2.030 . S
Mg133 O136 1.990 . S
Mg133 O137 2.117 . S
O134 Mg128 2.099 . S
O134 Mg133 2.180 . S
O134 C143 1.279 . S
O135 Mg133 2.030 . S
O135 C141 1.248 . S
O136 Mg133 1.990 . S
O136 C142 1.253 . S
O137 Mg133 2.117 . S
O137 C143 1.250 . S
C138 O144 1.248 1_545 S
C138 O145 1.264 . S
C139 O125 1.253 1_545 S
C139 O127 1.260 . S
C140 O129 1.279 . S
C140 O130 1.250 . S
C141 O131 1.264 1_545 S
C141 O135 1.248 . S
C142 O132 1.260 . S
C142 O136 1.253 . S
C143 O134 1.279 . S
C143 O137 1.250 . S
O144 Mg126 2.030 . S
O144 C138 1.248 1_565 S
O145 Mg128 2.079 . S
O145 C138 1.264 . S
O146 Mg147 1.990 . S
O146 C160 1.253 . S
Mg147 O146 1.990 . S
Mg147 O150 2.180 . S
Mg147 O151 2.117 . S
Mg147 O165 2.030 . S
O148 Mg149 2.072 . S
O148 C160 1.260 . S
Mg149 O148 2.072 . S
Mg149 O150 2.099 . S
Mg149 O152 2.079 . S
Mg149 O153 2.072 . S
Mg149 O155 2.099 . S
Mg149 O166 2.079 . S
O150 Mg147 2.180 . S
O150 Mg149 2.099 . S
O150 C161 1.279 . S
O151 Mg147 2.117 . S
O151 C161 1.250 . S
O152 Mg149 2.079 . S
O152 C162 1.264 . S
O153 Mg149 2.072 . S
O153 C163 1.260 . S
Mg154 O155 2.180 . S
Mg154 O156 2.030 . S
Mg154 O157 1.990 . S
Mg154 O158 2.117 . S
O155 Mg149 2.099 . S
O155 Mg154 2.180 . S
O155 C164 1.279 . S
O156 Mg154 2.030 . S
O156 C162 1.248 . S
O157 Mg154 1.990 . S
O157 C163 1.253 . S
O158 Mg154 2.117 . S
O158 C164 1.250 . S
C159 O165 1.248 . S
C159 O166 1.264 . S
C160 O146 1.253 . S
C160 O148 1.260 . S
C161 O150 1.279 . S
C161 O151 1.250 . S
C162 O152 1.264 . S
C162 O156 1.248 . S
C163 O153 1.260 . S
C163 O157 1.253 . S
C164 O155 1.279 . S
C164 O158 1.250 . S
O165 Mg147 2.030 . S
O165 C159 1.248 . S
O166 Mg149 2.079 . S
O166 C159 1.264 . S
O167 Mg168 1.990 . S
O167 C181 1.253 . S
Mg168 O167 1.990 . S
Mg168 O171 2.180 1_655 S
Mg168 O172 2.117 . S
Mg168 O186 2.030 . S
O169 Mg170 2.072 1_655 S
O169 C181 1.260 . S
Mg170 O169 2.072 1_455 S
Mg170 O171 2.099 . S
Mg170 O173 2.079 . S
Mg170 O174 2.072 . S
Mg170 O176 2.099 . S
Mg170 O187 2.079 1_455 S
O171 Mg168 2.180 1_455 S
O171 Mg170 2.099 . S
O171 C182 1.279 . S
O172 Mg168 2.117 . S
O172 C182 1.250 1_655 S
O173 Mg170 2.079 . S
O173 C183 1.264 . S
O174 Mg170 2.072 . S
O174 C184 1.260 . S
Mg175 O176 2.180 . S
Mg175 O177 2.030 . S
Mg175 O178 1.990 . S
Mg175 O179 2.117 . S
O176 Mg170 2.099 . S
O176 Mg175 2.180 . S
O176 C185 1.279 . S
O177 Mg175 2.030 . S
O177 C183 1.248 . S
O178 Mg175 1.990 . S
O178 C184 1.253 . S
O179 Mg175 2.117 . S
O179 C185 1.250 . S
C180 O186 1.248 . S
C180 O187 1.264 . S
C181 O167 1.253 . S
C181 O169 1.260 . S
C182 O171 1.279 . S
C182 O172 1.250 1_455 S
C183 O173 1.264 . S
C183 O177 1.248 . S
C184 O174 1.260 . S
C184 O178 1.253 . S
C185 O176 1.279 . S
C185 O179 1.250 . S
O186 Mg168 2.030 . S
O186 C180 1.248 . S
O187 Mg170 2.079 1_655 S
O187 C180 1.264 . S
H188 C200 0.930 . S
H189 C202 0.930 . S
H190 C203 0.930 . S
H191 C207 0.959 1_545 S
H192 C207 0.959 . S
H193 C207 0.961 . S
H194 C208 0.960 . S
H195 C208 0.961 . S
H196 C208 0.959 . S
H197 C211 0.929 . S
H198 C212 0.931 . S
H199 C214 0.930 1_565 S
C200 H188 0.930 . S
C200 C201 1.399 . S
C200 C205 1.399 . S
C201 C200 1.399 . S
C201 C202 1.376 . S
C202 H189 0.930 . S
C202 C201 1.376 . S
C202 C203 1.388 . S
C203 H190 0.930 . S
C203 C202 1.388 . S
C203 C204 1.390 . S
C204 C203 1.390 . S
C204 C205 1.394 . S
C204 C210 1.465 . S
C205 C200 1.399 . S
C205 C204 1.394 . S
C205 C206 1.516 . S
C206 C205 1.516 . S
C206 C207 1.502 1_545 S
C206 C208 1.561 1_545 S
C206 C209 1.526 . S
C207 H191 0.959 1_565 S
C207 H192 0.959 . S
C207 H193 0.961 . S
C207 C206 1.502 1_565 S
C208 H194 0.960 . S
C208 H195 0.961 . S
C208 H196 0.959 . S
C208 C206 1.561 1_565 S
C209 C206 1.526 . S
C209 C210 1.396 . S
C209 C214 1.390 . S
C210 C204 1.465 . S
C210 C209 1.396 . S
C210 C211 1.399 . S
C211 H197 0.929 . S
C211 C210 1.399 . S
C211 C212 1.385 . S
C212 H198 0.931 . S
C212 C211 1.385 . S
C212 C213 1.389 . S
C213 C212 1.389 . S
C213 C214 1.387 . S
C214 H199 0.930 1_545 S
C214 C209 1.390 . S
C214 C213 1.387 . S
H215 C227 0.930 . S
H216 C229 0.930 . S
H217 C230 0.930 . S
H218 C234 0.959 . S
H219 C234 0.959 . S
H220 C234 0.961 . S
H221 C235 0.960 . S
H222 C235 0.961 . S
H223 C235 0.959 . S
H224 C238 0.929 . S
H225 C239 0.931 . S
H226 C241 0.930 . S
C227 H215 0.930 . S
C227 C228 1.399 . S
C227 C232 1.399 . S
C228 C227 1.399 . S
C228 C229 1.376 . S
C229 H216 0.930 . S
C229 C228 1.376 . S
C229 C230 1.388 . S
C230 H217 0.930 . S
C230 C229 1.388 . S
C230 C231 1.390 . S
C231 C230 1.390 . S
C231 C232 1.394 . S
C231 C237 1.465 . S
C232 C227 1.399 . S
C232 C231 1.394 . S
C232 C233 1.516 . S
C233 C232 1.516 . S
C233 C234 1.502 . S
C233 C235 1.561 . S
C233 C236 1.526 . S
C234 H218 0.959 . S
C234 H219 0.959 . S
C234 H220 0.961 . S
C234 C233 1.502 . S
C235 H221 0.960 . S
C235 H222 0.961 . S
C235 H223 0.959 . S
C235 C233 1.561 . S
C236 C233 1.526 . S
C236 C237 1.396 . S
C236 C241 1.390 . S
C237 C231 1.465 . S
C237 C236 1.396 . S
C237 C238 1.399 . S
C238 H224 0.929 . S
C238 C237 1.399 . S
C238 C239 1.385 . S
C239 H225 0.931 . S
C239 C238 1.385 . S
C239 C240 1.389 . S
C240 C239 1.389 . S
C240 C241 1.387 . S
C241 H226 0.930 . S
C241 C236 1.390 . S
C241 C240 1.387 . S
H242 C254 0.930 . S
H243 C256 0.930 . S
H244 C257 0.930 . S
H245 C261 0.959 . S
H246 C261 0.959 . S
H247 C261 0.961 . S
H248 C262 0.960 . S
H249 C262 0.961 . S
H250 C262 0.959 . S
H251 C265 0.929 . S
H252 C266 0.931 . S
H253 C268 0.930 . S
C254 H242 0.930 . S
C254 C255 1.399 . S
C254 C259 1.399 . S
C255 C254 1.399 . S
C255 C256 1.376 . S
C256 H243 0.930 . S
C256 C255 1.376 . S
C256 C257 1.388 . S
C257 H244 0.930 . S
C257 C256 1.388 . S
C257 C258 1.390 . S
C258 C257 1.390 . S
C258 C259 1.394 . S
C258 C264 1.465 . S
C259 C254 1.399 . S
C259 C258 1.394 . S
C259 C260 1.516 . S
C260 C259 1.516 . S
C260 C261 1.502 . S
C260 C262 1.561 . S
C260 C263 1.526 . S
C261 H245 0.959 . S
C261 H246 0.959 . S
C261 H247 0.961 . S
C261 C260 1.502 . S
C262 H248 0.960 . S
C262 H249 0.961 . S
C262 H250 0.959 . S
C262 C260 1.561 . S
C263 C260 1.526 . S
C263 C264 1.396 . S
C263 C268 1.390 . S
C264 C258 1.465 . S
C264 C263 1.396 . S
C264 C265 1.399 . S
C265 H251 0.929 . S
C265 C264 1.399 . S
C265 C266 1.385 . S
C266 H252 0.931 . S
C266 C265 1.385 . S
C266 C267 1.389 . S
C267 C266 1.389 . S
C267 C268 1.387 . S
C268 H253 0.930 . S
C268 C263 1.390 . S
C268 C267 1.387 . S
H269 C281 0.930 . S
H270 C283 0.930 . S
H271 C284 0.930 . S
H272 C288 0.959 . S
H273 C288 0.959 1_655 S
H274 C288 0.961 . S
H275 C289 0.960 . S
H276 C289 0.961 . S
H277 C289 0.959 . S
H278 C292 0.929 . S
H279 C293 0.931 . S
H280 C295 0.930 1_655 S
C281 H269 0.930 . S
C281 C282 1.399 . S
C281 C286 1.399 . S
C282 C281 1.399 . S
C282 C283 1.376 . S
C283 H270 0.930 . S
C283 C282 1.376 . S
C283 C284 1.388 . S
C284 H271 0.930 . S
C284 C283 1.388 . S
C284 C285 1.390 . S
C285 C284 1.390 . S
C285 C286 1.394 . S
C285 C291 1.465 . S
C286 C281 1.399 . S
C286 C285 1.394 . S
C286 C287 1.516 . S
C287 C286 1.516 . S
C287 C288 1.502 . S
C287 C289 1.561 1_455 S
C287 C290 1.526 . S
C288 H272 0.959 . S
C288 H273 0.959 1_455 S
C288 H274 0.961 . S
C288 C287 1.502 . S
C289 H275 0.960 . S
C289 H276 0.961 . S
C289 H277 0.959 . S
C289 C287 1.561 1_655 S
C290 C287 1.526 . S
C290 C291 1.396 . S
C290 C295 1.390 . S
C291 C285 1.465 . S
C291 C290 1.396 . S
C291 C292 1.399 . S
C292 H278 0.929 . S
C292 C291 1.399 . S
C292 C293 1.385 . S
C293 H279 0.931 . S
C293 C292 1.385 . S
C293 C294 1.389 . S
C294 C293 1.389 . S
C294 C295 1.387 . S
C295 H280 0.930 1_455 S
C295 C290 1.390 . S
C295 C294 1.387 . S
H296 C308 0.930 1_545 S
H297 C310 0.930 . S
H298 C311 0.930 . S
H299 C315 0.959 . S
H300 C315 0.959 . S
H301 C315 0.961 . S
H302 C316 0.960 1_554 S
H303 C316 0.961 . S
H304 C316 0.959 1_554 S
H305 C319 0.929 . S
H306 C320 0.931 . S
H307 C322 0.930 . S
C308 H296 0.930 1_565 S
C308 C309 1.399 1_556 S
C308 C313 1.399 . S
C309 C308 1.399 1_554 S
C309 C310 1.376 . S
C310 H297 0.930 . S
C310 C309 1.376 . S
C310 C311 1.388 1_554 S
C311 H298 0.930 . S
C311 C310 1.388 1_556 S
C311 C312 1.390 . S
C312 C311 1.390 . S
C312 C313 1.394 . S
C312 C318 1.465 . S
C313 C308 1.399 . S
C313 C312 1.394 . S
C313 C314 1.516 1_565 S
C314 C313 1.516 1_545 S
C314 C315 1.502 . S
C314 C316 1.561 . S
C314 C317 1.526 . S
C315 H299 0.959 . S
C315 H300 0.959 . S
C315 H301 0.961 . S
C315 C314 1.502 . S
C316 H302 0.960 1_556 S
C316 H303 0.961 . S
C316 H304 0.959 1_556 S
C316 C314 1.561 . S
C317 C314 1.526 . S
C317 C318 1.396 1_545 S
C317 C322 1.390 . S
C318 C312 1.465 . S
C318 C317 1.396 1_565 S
C318 C319 1.399 . S
C319 H305 0.929 . S
C319 C318 1.399 . S
C319 C320 1.385 . S
C320 H306 0.931 . S
C320 C319 1.385 . S
C320 C321 1.403 . S
C321 C320 1.403 . S
C321 C322 1.378 1_565 S
C322 H307 0.930 . S
C322 C317 1.390 . S
C322 C321 1.378 1_545 S
H323 C335 0.930 . S
H324 C337 0.930 . S
H325 C338 0.930 . S
H326 C342 0.959 . S
H327 C342 0.959 . S
H328 C342 0.961 1_554 S
H329 C343 0.960 . S
H330 C343 0.961 . S
H331 C343 0.959 . S
H332 C346 0.929 . S
H333 C347 0.931 . S
H334 C349 0.930 . S
C335 H323 0.930 . S
C335 C336 1.399 . S
C335 C340 1.399 1_554 S
C336 C335 1.399 . S
C336 C337 1.376 1_554 S
C337 H324 0.930 . S
C337 C336 1.376 1_556 S
C337 C338 1.388 . S
C338 H325 0.930 . S
C338 C337 1.388 . S
C338 C339 1.390 . S
C339 C338 1.390 . S
C339 C340 1.394 . S
C339 C345 1.465 . S
C340 C335 1.399 1_556 S
C340 C339 1.394 . S
C340 C341 1.516 . S
C341 C340 1.516 . S
C341 C342 1.502 . S
C341 C343 1.561 1_556 S
C341 C344 1.526 . S
C342 H326 0.959 . S
C342 H327 0.959 . S
C342 H328 0.961 1_556 S
C342 C341 1.502 . S
C343 H329 0.960 . S
C343 H330 0.961 . S
C343 H331 0.959 . S
C343 C341 1.561 1_554 S
C344 C341 1.526 . S
C344 C345 1.396 . S
C344 C349 1.390 . S
C345 C339 1.465 . S
C345 C344 1.396 . S
C345 C346 1.399 . S
C346 H332 0.929 . S
C346 C345 1.399 . S
C346 C347 1.385 . S
C347 H333 0.931 . S
C347 C346 1.385 . S
C347 C348 1.389 . S
C348 C347 1.389 . S
C348 C349 1.387 . S
C349 H334 0.930 . S
C349 C344 1.390 . S
C349 C348 1.387 . S
H350 C362 0.930 1_554 S
H351 C364 0.930 . S
H352 C365 0.930 . S
H353 C369 0.959 1_554 S
H354 C369 0.959 . S
H355 C369 0.961 1_554 S
H356 C370 0.960 . S
H357 C370 0.961 . S
H358 C370 0.959 . S
H359 C373 0.929 . S
H360 C374 0.931 . S
H361 C376 0.930 . S
C362 H350 0.930 1_556 S
C362 C363 1.399 1_556 S
C362 C367 1.399 . S
C363 C362 1.399 1_554 S
C363 C364 1.376 1_554 S
C364 H351 0.930 . S
C364 C363 1.376 1_556 S
C364 C365 1.388 . S
C365 H352 0.930 . S
C365 C364 1.388 . S
C365 C366 1.390 . S
C366 C365 1.390 . S
C366 C367 1.394 . S
C366 C372 1.465 . S
C367 C362 1.399 . S
C367 C366 1.394 . S
C367 C368 1.516 . S
C368 C367 1.516 . S
C368 C369 1.502 . S
C368 C370 1.561 . S
C368 C371 1.526 . S
C369 H353 0.959 1_556 S
C369 H354 0.959 . S
C369 H355 0.961 1_556 S
C369 C368 1.502 . S
C370 H356 0.960 . S
C370 H357 0.961 . S
C370 H358 0.959 . S
C370 C368 1.561 . S
C371 C368 1.526 . S
C371 C372 1.396 . S
C371 C376 1.390 . S
C372 C366 1.465 . S
C372 C371 1.396 . S
C372 C373 1.399 . S
C373 H359 0.929 . S
C373 C372 1.399 . S
C373 C374 1.385 . S
C374 H360 0.931 . S
C374 C373 1.385 . S
C374 C375 1.389 . S
C375 C374 1.389 . S
C375 C376 1.387 . S
C376 H361 0.930 . S
C376 C371 1.390 . S
C376 C375 1.387 . S
H377 C389 0.930 . S
H378 C391 0.930 . S
H379 C392 0.930 . S
H380 C396 0.959 . S
H381 C396 0.959 . S
H382 C396 0.961 . S
H383 C397 0.960 . S
H384 C397 0.961 . S
H385 C397 0.959 . S
H386 C400 0.929 . S
H387 C401 0.931 . S
H388 C403 0.930 . S
C389 H377 0.930 . S
C389 C390 1.399 1_556 S
C389 C394 1.399 . S
C390 C389 1.399 1_554 S
C390 C391 1.376 1_655 S
C391 H378 0.930 . S
C391 C390 1.376 1_455 S
C391 C392 1.388 . S
C392 H379 0.930 . S
C392 C391 1.388 . S
C392 C393 1.390 1_554 S
C393 C392 1.390 1_556 S
C393 C394 1.394 1_455 S
C393 C399 1.465 . S
C394 C389 1.399 . S
C394 C393 1.394 1_655 S
C394 C395 1.516 . S
C395 C394 1.516 . S
C395 C396 1.502 . S
C395 C397 1.561 . S
C395 C398 1.526 . S
C396 H380 0.959 . S
C396 H381 0.959 . S
C396 H382 0.961 . S
C396 C395 1.502 . S
C397 H383 0.960 . S
C397 H384 0.961 . S
C397 H385 0.959 . S
C397 C395 1.561 . S
C398 C395 1.526 . S
C398 C399 1.396 1_655 S
C398 C403 1.390 . S
C399 C393 1.465 . S
C399 C398 1.396 1_455 S
C399 C400 1.399 . S
C400 H386 0.929 . S
C400 C399 1.399 . S
C400 C401 1.385 . S
C401 H387 0.931 . S
C401 C400 1.385 . S
C401 C402 1.389 . S
C402 C401 1.389 . S
C402 C403 1.387 1_455 S
C403 H388 0.930 . S
C403 C398 1.390 . S
C403 C402 1.387 1_655 S
H404 C416 0.930 . S
H405 C418 0.930 . S
H406 C419 0.930 . S
H407 C423 0.959 . S
H408 C423 0.959 . S
H409 C423 0.963 . S
H410 C424 0.960 . S
H411 C424 0.961 . S
H412 C424 0.959 . S
H413 C427 0.929 . S
H414 C428 0.931 . S
H415 C430 0.930 . S
C416 H404 0.930 . S
C416 C417 1.399 . S
C416 C421 1.399 . S
C417 C416 1.399 . S
C417 C418 1.376 . S
C418 H405 0.930 . S
C418 C417 1.376 . S
C418 C419 1.388 . S
C419 H406 0.930 . S
C419 C418 1.388 . S
C419 C420 1.390 . S
C420 C419 1.390 . S
C420 C421 1.394 . S
C420 C426 1.465 . S
C421 C416 1.399 . S
C421 C420 1.394 . S
C421 C422 1.516 . S
C422 C421 1.516 . S
C422 C423 1.502 1_455 S
C422 C424 1.561 . S
C422 C425 1.526 . S
C423 H407 0.959 . S
C423 H408 0.959 . S
C423 H409 0.963 . S
C423 C422 1.502 1_655 S
C424 H410 0.960 . S
C424 H411 0.961 . S
C424 H412 0.959 . S
C424 C422 1.561 . S
C425 C422 1.526 . S
C425 C426 1.396 . S
C425 C430 1.390 . S
C426 C420 1.465 . S
C426 C425 1.396 . S
C426 C427 1.399 . S
C427 H413 0.929 . S
C427 C426 1.399 . S
C427 C428 1.385 . S
C428 H414 0.931 . S
C428 C427 1.385 . S
C428 C429 1.389 . S
C429 C428 1.389 . S
C429 C430 1.387 . S
C430 H415 0.930 . S
C430 C425 1.390 . S
C430 C429 1.387 . S
H431 C443 0.930 . S
H432 C445 0.930 . S
H433 C446 0.930 1_565 S
H434 C450 0.959 . S
H435 C450 0.959 . S
H436 C450 0.961 . S
H437 C451 0.960 . S
H438 C451 0.961 . S
H439 C451 0.959 . S
H440 C454 0.929 . S
H441 C455 0.931 . S
H442 C457 0.930 . S
C443 H431 0.930 . S
C443 C444 1.399 . S
C443 C448 1.399 . S
C444 C443 1.399 . S
C444 C445 1.376 . S
C445 H432 0.930 . S
C445 C444 1.376 . S
C445 C446 1.388 . S
C446 H433 0.930 1_545 S
C446 C445 1.388 . S
C446 C447 1.390 . S
C447 C446 1.390 . S
C447 C448 1.394 . S
C447 C453 1.465 . S
C448 C443 1.399 . S
C448 C447 1.394 . S
C448 C449 1.516 . S
C449 C448 1.516 . S
C449 C450 1.502 . S
C449 C451 1.561 . S
C449 C452 1.526 . S
C450 H434 0.959 . S
C450 H435 0.959 . S
C450 H436 0.961 . S
C450 C449 1.502 . S
C451 H437 0.960 . S
C451 H438 0.961 . S
C451 H439 0.959 . S
C451 C449 1.561 . S
C452 C449 1.526 . S
C452 C453 1.396 . S
C452 C457 1.390 . S
C453 C447 1.465 . S
C453 C452 1.396 . S
C453 C454 1.399 1_545 S
C454 H440 0.929 . S
C454 C453 1.399 1_565 S
C454 C455 1.385 . S
C455 H441 0.931 . S
C455 C454 1.385 . S
C455 C456 1.389 1_565 S
C456 C455 1.389 1_545 S
C456 C457 1.387 . S
C457 H442 0.930 . S
C457 C452 1.390 . S
C457 C456 1.387 . S
H458 C470 0.930 . S
H459 C472 0.930 . S
H460 C473 0.930 . S
H461 C477 0.959 . S
H462 C477 0.959 . S
H463 C477 0.961 . S
H464 C478 0.960 . S
H465 C478 0.961 . S
H466 C478 0.959 . S
H467 C481 0.929 . S
H468 C482 0.931 . S
H469 C484 0.930 . S
C470 H458 0.930 . S
C470 C471 1.399 . S
C470 C475 1.399 . S
C471 C470 1.399 . S
C471 C472 1.376 . S
C472 H459 0.930 . S
C472 C471 1.376 . S
C472 C473 1.388 . S
C473 H460 0.930 . S
C473 C472 1.388 . S
C473 C474 1.390 . S
C474 C473 1.390 . S
C474 C475 1.394 . S
C474 C480 1.465 . S
C475 C470 1.399 . S
C475 C474 1.394 . S
C475 C476 1.516 . S
C476 C475 1.516 . S
C476 C477 1.502 . S
C476 C478 1.561 . S
C476 C479 1.526 . S
C477 H461 0.959 . S
C477 H462 0.959 . S
C477 H463 0.961 . S
C477 C476 1.502 . S
C478 H464 0.960 . S
C478 H465 0.961 . S
C478 H466 0.959 . S
C478 C476 1.561 . S
C479 C476 1.526 . S
C479 C480 1.396 . S
C479 C484 1.390 . S
C480 C474 1.465 . S
C480 C479 1.396 . S
C480 C481 1.399 . S
C481 H467 0.929 . S
C481 C480 1.399 . S
C481 C482 1.385 . S
C482 H468 0.931 . S
C482 C481 1.385 . S
C482 C483 1.389 . S
C483 C482 1.389 . S
C483 C484 1.387 . S
C484 H469 0.930 . S
C484 C479 1.390 . S
C484 C483 1.387 . S
H485 C497 0.930 . S
H486 C499 0.930 . S
H487 C500 0.930 . S
H488 C504 0.959 . S
H489 C504 0.959 . S
H490 C504 0.961 . S
H491 C505 0.960 . S
H492 C505 0.961 . S
H493 C505 0.959 . S
H494 C508 0.929 . S
H495 C509 0.931 . S
H496 C511 0.930 . S
C497 H485 0.930 . S
C497 C498 1.399 . S
C497 C502 1.399 . S
C498 C497 1.399 . S
C498 C499 1.376 . S
C499 H486 0.930 . S
C499 C498 1.376 . S
C499 C500 1.388 . S
C500 H487 0.930 . S
C500 C499 1.388 . S
C500 C501 1.390 . S
C501 C500 1.390 . S
C501 C502 1.394 . S
C501 C507 1.465 . S
C502 C497 1.399 . S
C502 C501 1.394 . S
C502 C503 1.516 . S
C503 C502 1.516 . S
C503 C504 1.502 . S
C503 C505 1.561 . S
C503 C506 1.526 . S
C504 H488 0.959 . S
C504 H489 0.959 . S
C504 H490 0.961 . S
C504 C503 1.502 . S
C505 H491 0.960 . S
C505 H492 0.961 . S
C505 H493 0.959 . S
C505 C503 1.561 . S
C506 C503 1.526 . S
C506 C507 1.396 . S
C506 C511 1.390 . S
C507 C501 1.465 . S
C507 C506 1.396 . S
C507 C508 1.399 . S
C508 H494 0.929 . S
C508 C507 1.399 . S
C508 C509 1.385 . S
C509 H495 0.931 . S
C509 C508 1.385 . S
C509 C510 1.389 . S
C510 C509 1.389 . S
C510 C511 1.387 . S
C511 H496 0.930 . S
C511 C506 1.390 . S
C511 C510 1.387 . S
H512 C524 0.930 . S
H513 C526 0.930 . S
H514 C527 0.930 1_455 S
H515 C531 0.959 . S
H516 C531 0.959 . S
H517 C531 0.961 . S
H518 C532 0.960 . S
H519 C532 0.961 . S
H520 C532 0.959 . S
H521 C535 0.929 . S
H522 C536 0.931 . S
H523 C538 0.930 . S
C524 H512 0.930 . S
C524 C525 1.399 . S
C524 C529 1.399 1_554 S
C525 C524 1.399 . S
C525 C526 1.376 1_554 S
C526 H513 0.930 . S
C526 C525 1.376 1_556 S
C526 C527 1.388 . S
C527 H514 0.930 1_655 S
C527 C526 1.388 . S
C527 C528 1.390 . S
C528 C527 1.390 . S
C528 C529 1.394 . S
C528 C534 1.465 1_655 S
C529 C524 1.399 1_556 S
C529 C528 1.394 . S
C529 C530 1.516 1_556 S
C530 C529 1.516 1_554 S
C530 C531 1.502 . S
C530 C532 1.561 1_655 S
C530 C533 1.526 1_654 S
C531 H515 0.959 . S
C531 H516 0.959 . S
C531 H517 0.961 . S
C531 C530 1.502 . S
C532 H518 0.960 . S
C532 H519 0.961 . S
C532 H520 0.959 . S
C532 C530 1.561 1_455 S
C533 C530 1.526 1_456 S
C533 C534 1.396 . S
C533 C538 1.390 . S
C534 C528 1.465 1_455 S
C534 C533 1.396 . S
C534 C535 1.399 . S
C535 H521 0.929 . S
C535 C534 1.399 . S
C535 C536 1.385 . S
C536 H522 0.931 . S
C536 C535 1.385 . S
C536 C537 1.389 . S
C537 C536 1.389 . S
C537 C538 1.387 . S
C538 H523 0.930 . S
C538 C533 1.390 . S
C538 C537 1.387 . S
H539 C551 0.930 1_545 S
H540 C553 0.930 . S
H541 C554 0.929 1_554 S
H542 C558 0.959 . S
H543 C558 0.959 . S
H544 C558 0.961 . S
H545 C559 0.960 . S
H546 C559 0.961 . S
H547 C559 0.959 1_565 S
H548 C562 0.929 . S
H549 C563 0.931 . S
H550 C565 0.930 . S
C551 H539 0.930 1_565 S
C551 C552 1.399 1_556 S
C551 C556 1.399 . S
C552 C551 1.399 1_554 S
C552 C553 1.376 . S
C553 H540 0.930 . S
C553 C552 1.376 . S
C553 C554 1.387 1_554 S
C554 H541 0.929 1_556 S
C554 C553 1.387 1_556 S
C554 C555 1.392 . S
C555 C554 1.392 . S
C555 C556 1.394 . S
C555 C561 1.465 . S
C556 C551 1.399 . S
C556 C555 1.394 . S
C556 C557 1.516 1_565 S
C557 C556 1.516 1_545 S
C557 C558 1.502 . S
C557 C559 1.561 . S
C557 C560 1.526 . S
C558 H542 0.959 . S
C558 H543 0.959 . S
C558 H544 0.961 . S
C558 C557 1.502 . S
C559 H545 0.960 . S
C559 H546 0.961 . S
C559 H547 0.959 1_545 S
C559 C557 1.561 . S
C560 C557 1.526 . S
C560 C561 1.396 1_545 S
C560 C565 1.390 . S
C561 C555 1.465 . S
C561 C560 1.396 1_565 S
C561 C562 1.399 . S
C562 H548 0.929 . S
C562 C561 1.399 . S
C562 C563 1.385 . S
C563 H549 0.931 . S
C563 C562 1.385 . S
C563 C564 1.389 1_565 S
C564 C563 1.389 1_545 S
C564 C565 1.387 . S
C565 H550 0.930 . S
C565 C560 1.390 . S
C565 C564 1.387 . S
H566 C578 0.930 . S
H567 C580 0.930 . S
H568 C581 0.930 . S
H569 C585 0.959 . S
H570 C585 0.959 . S
H571 C585 0.961 . S
H572 C586 0.960 . S
H573 C586 0.961 . S
H574 C586 0.959 . S
H575 C589 0.929 1_554 S
H576 C590 0.931 . S
H577 C592 0.930 . S
C578 H566 0.930 . S
C578 C579 1.399 1_556 S
C578 C583 1.399 . S
C579 C578 1.399 1_554 S
C579 C580 1.376 . S
C580 H567 0.930 . S
C580 C579 1.376 . S
C580 C581 1.388 . S
C581 H568 0.930 . S
C581 C580 1.388 . S
C581 C582 1.390 1_554 S
C582 C581 1.390 1_556 S
C582 C583 1.394 . S
C582 C588 1.465 . S
C583 C578 1.399 . S
C583 C582 1.394 . S
C583 C584 1.516 . S
C584 C583 1.516 . S
C584 C585 1.502 . S
C584 C586 1.561 . S
C584 C587 1.526 . S
C585 H569 0.959 . S
C585 H570 0.959 . S
C585 H571 0.961 . S
C585 C584 1.502 . S
C586 H572 0.960 . S
C586 H573 0.961 . S
C586 H574 0.959 . S
C586 C584 1.561 . S
C587 C584 1.526 . S
C587 C588 1.396 . S
C587 C592 1.390 . S
C588 C582 1.465 . S
C588 C587 1.396 . S
C588 C589 1.399 . S
C589 H575 0.929 1_556 S
C589 C588 1.399 . S
C589 C590 1.385 . S
C590 H576 0.931 . S
C590 C589 1.385 . S
C590 C591 1.389 . S
C591 C590 1.389 . S
C591 C592 1.387 . S
C592 H577 0.930 . S
C592 C587 1.390 . S
C592 C591 1.387 . S
H593 C605 0.930 . S
H594 C607 0.930 . S
H595 C608 0.930 . S
H596 C612 0.959 . S
H597 C612 0.959 . S
H598 C612 0.961 . S
H599 C613 0.960 . S
H600 C613 0.961 . S
H601 C613 0.959 . S
H602 C616 0.929 1_554 S
H603 C617 0.931 . S
H604 C619 0.930 . S
C605 H593 0.930 . S
C605 C606 1.399 1_556 S
C605 C610 1.399 . S
C606 C605 1.399 1_554 S
C606 C607 1.376 . S
C607 H594 0.930 . S
C607 C606 1.376 . S
C607 C608 1.388 . S
C608 H595 0.930 . S
C608 C607 1.388 . S
C608 C609 1.390 1_554 S
C609 C608 1.390 1_556 S
C609 C610 1.394 . S
C609 C615 1.465 . S
C610 C605 1.399 . S
C610 C609 1.394 . S
C610 C611 1.516 . S
C611 C610 1.516 . S
C611 C612 1.502 . S
C611 C613 1.561 . S
C611 C614 1.526 . S
C612 H596 0.959 . S
C612 H597 0.959 . S
C612 H598 0.961 . S
C612 C611 1.502 . S
C613 H599 0.960 . S
C613 H600 0.961 . S
C613 H601 0.959 . S
C613 C611 1.561 . S
C614 C611 1.526 . S
C614 C615 1.396 . S
C614 C619 1.390 . S
C615 C609 1.465 . S
C615 C614 1.396 . S
C615 C616 1.399 . S
C616 H602 0.929 1_556 S
C616 C615 1.399 . S
C616 C617 1.385 . S
C617 H603 0.931 . S
C617 C616 1.385 . S
C617 C618 1.389 . S
C618 C617 1.389 . S
C618 C619 1.387 . S
C619 H604 0.930 . S
C619 C614 1.390 . S
C619 C618 1.387 . S
H620 C632 0.930 . S
H621 C634 0.930 . S
H622 C635 0.930 . S
H623 C639 0.959 1_655 S
H624 C639 0.959 . S
H625 C639 0.961 . S
H626 C640 0.960 . S
H627 C640 0.961 . S
H628 C640 0.959 . S
H629 C643 0.929 . S
H630 C644 0.932 . S
H631 C646 0.930 . S
C632 H620 0.930 . S
C632 C633 1.399 . S
C632 C637 1.399 . S
C633 C632 1.399 . S
C633 C634 1.376 . S
C634 H621 0.930 . S
C634 C633 1.376 . S
C634 C635 1.388 . S
C635 H622 0.930 . S
C635 C634 1.388 . S
C635 C636 1.390 . S
C636 C635 1.390 . S
C636 C637 1.394 . S
C636 C642 1.465 . S
C637 C632 1.399 . S
C637 C636 1.394 . S
C637 C638 1.516 1_554 S
C638 C637 1.516 1_556 S
C638 C639 1.502 . S
C638 C640 1.561 . S
C638 C641 1.526 . S
C639 H623 0.959 1_455 S
C639 H624 0.959 . S
C639 H625 0.961 . S
C639 C638 1.502 . S
C640 H626 0.960 . S
C640 H627 0.961 . S
C640 H628 0.959 . S
C640 C638 1.561 . S
C641 C638 1.526 . S
C641 C642 1.396 1_556 S
C641 C646 1.390 . S
C642 C636 1.465 . S
C642 C641 1.396 1_554 S
C642 C643 1.399 . S
C643 H629 0.929 . S
C643 C642 1.399 . S
C643 C644 1.385 1_554 S
C644 H630 0.932 . S
C644 C643 1.385 1_556 S
C644 C645 1.389 . S
C645 C644 1.389 . S
C645 C646 1.387 . S
C646 H631 0.930 . S
C646 C641 1.390 . S
C646 C645 1.387 . S
H647 C659 0.930 . S
H648 C661 0.930 . S
H649 C662 0.930 1_565 S
H650 C666 0.959 . S
H651 C666 0.959 . S
H652 C666 0.961 1_554 S
H653 C667 0.960 . S
H654 C667 0.961 . S
H655 C667 0.959 . S
H656 C670 0.929 1_564 S
H657 C671 0.931 1_565 S
H658 C673 0.930 . S
C659 H647 0.930 . S
C659 C660 1.399 . S
C659 C664 1.399 . S
C660 C659 1.399 . S
C660 C661 1.376 . S
C661 H648 0.930 . S
C661 C660 1.376 . S
C661 C662 1.388 . S
C662 H649 0.930 1_545 S
C662 C661 1.388 . S
C662 C663 1.390 . S
C663 C662 1.390 . S
C663 C664 1.394 . S
C663 C669 1.465 . S
C664 C659 1.399 . S
C664 C663 1.394 . S
C664 C665 1.516 . S
C665 C664 1.516 . S
C665 C666 1.502 1_554 S
C665 C667 1.561 . S
C665 C668 1.526 1_554 S
C666 H650 0.959 . S
C666 H651 0.959 . S
C666 H652 0.961 1_556 S
C666 C665 1.502 1_556 S
C667 H653 0.960 . S
C667 H654 0.961 . S
C667 H655 0.959 . S
C667 C665 1.561 . S
C668 C665 1.526 1_556 S
C668 C669 1.396 1_556 S
C668 C673 1.390 . S
C669 C663 1.465 . S
C669 C668 1.396 1_554 S
C669 C670 1.399 1_554 S
C670 H656 0.929 1_546 S
C670 C669 1.399 1_556 S
C670 C671 1.385 . S
C671 H657 0.931 1_545 S
C671 C670 1.385 . S
C671 C672 1.389 . S
C672 C671 1.389 . S
C672 C673 1.387 . S
C673 H658 0.930 . S
C673 C668 1.390 . S
C673 C672 1.387 . S
H674 C686 0.930 . S
H675 C688 0.930 . S
H676 C689 0.930 1_556 S
H677 C693 0.959 . S
H678 C693 0.959 . S
H679 C693 0.961 . S
H680 C694 0.960 . S
H681 C694 0.961 . S
H682 C694 0.959 . S
H683 C697 0.929 . S
H684 C698 0.931 . S
H685 C700 0.930 1_554 S
C686 H674 0.930 . S
C686 C687 1.399 . S
C686 C691 1.399 . S
C687 C686 1.399 . S
C687 C688 1.376 . S
C688 H675 0.930 . S
C688 C687 1.376 . S
C688 C689 1.388 . S
C689 H676 0.930 1_554 S
C689 C688 1.388 . S
C689 C690 1.390 . S
C690 C689 1.390 . S
C690 C691 1.394 . S
C690 C696 1.465 1_554 S
C691 C686 1.399 . S
C691 C690 1.394 . S
C691 C692 1.516 . S
C692 C691 1.516 . S
C692 C693 1.502 . S
C692 C694 1.561 . S
C692 C695 1.526 . S
C693 H677 0.959 . S
C693 H678 0.959 . S
C693 H679 0.961 . S
C693 C692 1.502 . S
C694 H680 0.960 . S
C694 H681 0.961 . S
C694 H682 0.959 . S
C694 C692 1.561 . S
C695 C692 1.526 . S
C695 C696 1.396 1_554 S
C695 C700 1.390 1_554 S
C696 C690 1.465 1_556 S
C696 C695 1.396 1_556 S
C696 C697 1.399 . S
C697 H683 0.929 . S
C697 C696 1.399 . S
C697 C698 1.385 . S
C698 H684 0.931 . S
C698 C697 1.385 . S
C698 C699 1.389 . S
C699 C698 1.389 . S
C699 C700 1.387 . S
C700 H685 0.930 1_556 S
C700 C695 1.390 1_556 S
C700 C699 1.387 . S
H701 C713 0.930 . S
H702 C715 0.930 . S
H703 C716 0.930 . S
H704 C720 0.959 . S
H705 C720 0.959 . S
H706 C720 0.961 . S
H707 C721 0.960 . S
H708 C721 0.961 . S
H709 C721 0.959 1_556 S
H710 C724 0.929 . S
H711 C725 0.931 . S
H712 C727 0.930 . S
C713 H701 0.930 . S
C713 C714 1.399 . S
C713 C718 1.399 . S
C714 C713 1.399 . S
C714 C715 1.376 . S
C715 H702 0.930 . S
C715 C714 1.376 . S
C715 C716 1.388 . S
C716 H703 0.930 . S
C716 C715 1.388 . S
C716 C717 1.390 . S
C717 C716 1.390 . S
C717 C718 1.394 . S
C717 C723 1.465 1_554 S
C718 C713 1.399 . S
C718 C717 1.394 . S
C718 C719 1.516 . S
C719 C718 1.516 . S
C719 C720 1.502 . S
C719 C721 1.561 . S
C719 C722 1.526 . S
C720 H704 0.959 . S
C720 H705 0.959 . S
C720 H706 0.961 . S
C720 C719 1.502 . S
C721 H707 0.960 . S
C721 H708 0.961 . S
C721 H709 0.959 1_554 S
C721 C719 1.561 . S
C722 C719 1.526 . S
C722 C723 1.396 1_554 S
C722 C727 1.390 1_554 S
C723 C717 1.465 1_556 S
C723 C722 1.396 1_556 S
C723 C724 1.399 . S
C724 H710 0.929 . S
C724 C723 1.399 . S
C724 C725 1.385 . S
C725 H711 0.931 . S
C725 C724 1.385 . S
C725 C726 1.389 . S
C726 C725 1.389 . S
C726 C727 1.387 . S
C727 H712 0.930 . S
C727 C722 1.390 1_556 S
C727 C726 1.387 . S
H728 C740 0.930 . S
H729 C742 0.930 1_455 S
H730 C743 0.930 . S
H731 C747 0.959 . S
H732 C747 0.959 . S
H733 C747 0.961 . S
H734 C748 0.960 . S
H735 C748 0.961 . S
H736 C748 0.959 1_455 S
H737 C751 0.929 . S
H738 C752 0.931 . S
H739 C754 0.930 . S
C740 H728 0.930 . S
C740 C741 1.399 . S
C740 C745 1.399 . S
C741 C740 1.399 . S
C741 C742 1.376 . S
C742 H729 0.930 1_655 S
C742 C741 1.376 . S
C742 C743 1.388 1_655 S
C743 H730 0.930 . S
C743 C742 1.388 1_455 S
C743 C744 1.390 1_455 S
C744 C743 1.390 1_655 S
C744 C745 1.394 . S
C744 C750 1.465 . S
C745 C740 1.399 . S
C745 C744 1.394 . S
C745 C746 1.516 . S
C746 C745 1.516 . S
C746 C747 1.502 . S
C746 C748 1.561 . S
C746 C749 1.526 . S
C747 H731 0.959 . S
C747 H732 0.959 . S
C747 H733 0.961 . S
C747 C746 1.502 . S
C748 H734 0.960 . S
C748 H735 0.961 . S
C748 H736 0.959 1_655 S
C748 C746 1.561 . S
C749 C746 1.526 . S
C749 C750 1.396 . S
C749 C754 1.390 . S
C750 C744 1.465 . S
C750 C749 1.396 . S
C750 C751 1.399 1_655 S
C751 H737 0.929 . S
C751 C750 1.399 1_455 S
C751 C752 1.385 . S
C752 H738 0.931 . S
C752 C751 1.385 . S
C752 C753 1.389 1_455 S
C753 C752 1.389 1_655 S
C753 C754 1.387 . S
C754 H739 0.930 . S
C754 C749 1.390 . S
C754 C753 1.387 . S
H755 C767 0.930 1_545 S
H756 C769 0.930 . S
H757 C770 0.930 . S
H758 C774 0.959 . S
H759 C774 0.959 . S
H760 C774 0.961 . S
H761 C775 0.960 . S
H762 C775 0.961 . S
H763 C775 0.959 . S
H764 C778 0.929 . S
H765 C779 0.931 . S
H766 C781 0.930 . S
C767 H755 0.930 1_565 S
C767 C768 1.399 . S
C767 C772 1.399 . S
C768 C767 1.399 . S
C768 C769 1.376 . S
C769 H756 0.930 . S
C769 C768 1.376 . S
C769 C770 1.388 . S
C770 H757 0.930 . S
C770 C769 1.388 . S
C770 C771 1.390 . S
C771 C770 1.390 . S
C771 C772 1.394 . S
C771 C777 1.465 . S
C772 C767 1.399 . S
C772 C771 1.394 . S
C772 C773 1.516 1_565 S
C773 C772 1.516 1_545 S
C773 C774 1.502 . S
C773 C775 1.561 . S
C773 C776 1.526 1_545 S
C774 H758 0.959 . S
C774 H759 0.959 . S
C774 H760 0.961 . S
C774 C773 1.502 . S
C775 H761 0.960 . S
C775 H762 0.961 . S
C775 H763 0.959 . S
C775 C773 1.561 . S
C776 C773 1.526 1_565 S
C776 C777 1.396 . S
C776 C781 1.390 1_565 S
C777 C771 1.465 . S
C777 C776 1.396 . S
C777 C778 1.399 . S
C778 H764 0.929 . S
C778 C777 1.399 . S
C778 C779 1.385 . S
C779 H765 0.931 . S
C779 C778 1.385 . S
C779 C780 1.389 . S
C780 C779 1.389 . S
C780 C781 1.387 1_565 S
C781 H766 0.930 . S
C781 C776 1.390 1_545 S
C781 C780 1.387 1_545 S
H782 C794 0.930 . S
H783 C796 0.930 . S
H784 C797 0.930 . S
H785 C801 0.959 . S
H786 C801 0.959 . S
H787 C801 0.961 . S
H788 C802 0.960 . S
H789 C802 0.961 . S
H790 C802 0.959 . S
H791 C805 0.929 . S
H792 C806 0.931 . S
H793 C808 0.930 . S
C794 H782 0.930 . S
C794 C795 1.399 . S
C794 C799 1.399 . S
C795 C794 1.399 . S
C795 C796 1.376 . S
C796 H783 0.930 . S
C796 C795 1.376 . S
C796 C797 1.388 . S
C797 H784 0.930 . S
C797 C796 1.388 . S
C797 C798 1.390 . S
C798 C797 1.390 . S
C798 C799 1.394 . S
C798 C804 1.465 . S
C799 C794 1.399 . S
C799 C798 1.394 . S
C799 C800 1.516 . S
C800 C799 1.516 . S
C800 C801 1.502 . S
C800 C802 1.561 . S
C800 C803 1.526 . S
C801 H785 0.959 . S
C801 H786 0.959 . S
C801 H787 0.961 . S
C801 C800 1.502 . S
C802 H788 0.960 . S
C802 H789 0.961 . S
C802 H790 0.959 . S
C802 C800 1.561 . S
C803 C800 1.526 . S
C803 C804 1.396 . S
C803 C808 1.390 . S
C804 C798 1.465 . S
C804 C803 1.396 . S
C804 C805 1.399 . S
C805 H791 0.929 . S
C805 C804 1.399 . S
C805 C806 1.385 . S
C806 H792 0.931 . S
C806 C805 1.385 . S
C806 C807 1.389 . S
C807 C806 1.389 . S
C807 C808 1.387 . S
C808 H793 0.930 . S
C808 C803 1.390 . S
C808 C807 1.387 . S
H809 C821 0.930 . S
H810 C823 0.930 . S
H811 C824 0.930 . S
H812 C828 0.959 . S
H813 C828 0.959 . S
H814 C828 0.961 . S
H815 C829 0.960 . S
H816 C829 0.961 . S
H817 C829 0.959 . S
H818 C832 0.929 . S
H819 C833 0.931 . S
H820 C835 0.930 . S
C821 H809 0.930 . S
C821 C822 1.399 . S
C821 C826 1.399 . S
C822 C821 1.399 . S
C822 C823 1.376 . S
C823 H810 0.930 . S
C823 C822 1.376 . S
C823 C824 1.388 . S
C824 H811 0.930 . S
C824 C823 1.388 . S
C824 C825 1.390 . S
C825 C824 1.390 . S
C825 C826 1.394 . S
C825 C831 1.465 . S
C826 C821 1.399 . S
C826 C825 1.394 . S
C826 C827 1.516 . S
C827 C826 1.516 . S
C827 C828 1.502 . S
C827 C829 1.561 . S
C827 C830 1.526 . S
C828 H812 0.959 . S
C828 H813 0.959 . S
C828 H814 0.961 . S
C828 C827 1.502 . S
C829 H815 0.960 . S
C829 H816 0.961 . S
C829 H817 0.959 . S
C829 C827 1.561 . S
C830 C827 1.526 . S
C830 C831 1.396 . S
C830 C835 1.390 . S
C831 C825 1.465 . S
C831 C830 1.396 . S
C831 C832 1.399 . S
C832 H818 0.929 . S
C832 C831 1.399 . S
C832 C833 1.385 . S
C833 H819 0.931 . S
C833 C832 1.385 . S
C833 C834 1.389 . S
C834 C833 1.389 . S
C834 C835 1.387 . S
C835 H820 0.930 . S
C835 C830 1.390 . S
C835 C834 1.387 . S
C201 C82 1.449 . S
C213 C119 1.477 . S
C240 C143 1.353 . S
C228 C95 1.532 . S
C267 C164 1.468 . S
C255 C56 1.444 . S
C294 C182 1.474 . S
C282 C69 1.447 . S
C321 C122 1.390 1_565 S
C309 C30 1.442 . S
C336 C43 1.409 . S
C348 C140 1.408 . S
C363 C4 1.330 . S
C375 C161 1.293 . S
C390 C17 1.357 . S
C402 C185 1.277 . S
C429 C120 0.587 . S
C417 C74 0.749 . S
C456 C138 0.670 . S
C444 C87 0.637 . S
C483 C159 0.736 . S
C471 C100 0.565 . S
C498 C61 0.565 . S
C510 C183 0.739 . S
C525 C22 0.784 . S
C537 C118 0.694 . S
C564 C142 0.795 . S
C552 C35 0.783 . S
C591 C163 0.804 . S
C579 C48 0.708 . S
C606 C9 0.685 . S
C618 C181 0.795 . S
C633 C73 1.570 . S
C645 C121 1.579 . S
C660 C86 1.570 . S
C672 C139 1.504 . S
C699 C160 1.521 . S
C687 C99 1.615 . S
C726 C184 1.578 . S
C714 C60 1.620 . S
C741 C21 1.418 . S
C753 C117 1.408 1_655 S
C780 C141 1.462 1_565 S
C768 C34 1.428 . S
C807 C162 1.431 . S
C795 C47 1.409 . S
C822 C8 1.433 . S
C834 C180 1.461 . S
