# Generated by pormake.
# Topology llk, (3,12)-cn, num edge types: 1
# Building blocks:
#     Node 0, Type 0, BuildingBlock: BELTOD_clean_linker_0, # of connection points: 3
#     Node 1, Type 0, BuildingBlock: BELTOD_clean_linker_0, # of connection points: 3
#     Node 2, Type 0, BuildingBlock: BELTOD_clean_linker_0, # of connection points: 3
#     Node 3, Type 0, BuildingBlock: BELTOD_clean_linker_0, # of connection points: 3
#     Node 4, Type 0, BuildingBlock: BELTOD_clean_linker_0, # of connection points: 3
#     Node 5, Type 0, BuildingBlock: BELTOD_clean_linker_0, # of connection points: 3
#     Node 6, Type 0, BuildingBlock: BELTOD_clean_linker_0, # of connection points: 3
#     Node 7, Type 0, BuildingBlock: BELTOD_clean_linker_0, # of connection points: 3
#     Node 8, Type 0, BuildingBlock: BELTOD_clean_linker_0, # of connection points: 3
#     Node 9, Type 0, BuildingBlock: BELTOD_clean_linker_0, # of connection points: 3
#     Node 10, Type 0, BuildingBlock: BELTOD_clean_linker_0, # of connection points: 3
#     Node 11, Type 0, BuildingBlock: BELTOD_clean_linker_0, # of connection points: 3
#     Node 12, Type 0, BuildingBlock: BELTOD_clean_linker_0, # of connection points: 3
#     Node 13, Type 0, BuildingBlock: BELTOD_clean_linker_0, # of connection points: 3
#     Node 14, Type 0, BuildingBlock: BELTOD_clean_linker_0, # of connection points: 3
#     Node 15, Type 0, BuildingBlock: BELTOD_clean_linker_0, # of connection points: 3
#     Node 16, Type 0, BuildingBlock: BELTOD_clean_linker_0, # of connection points: 3
#     Node 17, Type 0, BuildingBlock: BELTOD_clean_linker_0, # of connection points: 3
#     Node 18, Type 0, BuildingBlock: BELTOD_clean_linker_0, # of connection points: 3
#     Node 19, Type 0, BuildingBlock: BELTOD_clean_linker_0, # of connection points: 3
#     Node 20, Type 0, BuildingBlock: BELTOD_clean_linker_0, # of connection points: 3
#     Node 21, Type 0, BuildingBlock: BELTOD_clean_linker_0, # of connection points: 3
#     Node 22, Type 0, BuildingBlock: BELTOD_clean_linker_0, # of connection points: 3
#     Node 23, Type 0, BuildingBlock: BELTOD_clean_linker_0, # of connection points: 3
#     Node 24, Type 1, BuildingBlock: EZIPEK_clean_sbu_0, # of connection points: 12
#     Node 25, Type 1, BuildingBlock: EZIPEK_clean_sbu_0, # of connection points: 12
#     Node 26, Type 1, BuildingBlock: EZIPEK_clean_sbu_0, # of connection points: 12
#     Node 27, Type 1, BuildingBlock: EZIPEK_clean_sbu_0, # of connection points: 12
#     Node 28, Type 1, BuildingBlock: EZIPEK_clean_sbu_0, # of connection points: 12
#     Node 29, Type 1, BuildingBlock: EZIPEK_clean_sbu_0, # of connection points: 12
#     Edge 30, Type (0, 1), None
#     Edge 31, Type (0, 1), None
#     Edge 32, Type (0, 1), None
#     Edge 33, Type (0, 1), None
#     Edge 34, Type (0, 1), None
#     Edge 35, Type (0, 1), None
#     Edge 36, Type (0, 1), None
#     Edge 37, Type (0, 1), None
#     Edge 38, Type (0, 1), None
#     Edge 39, Type (0, 1), None
#     Edge 40, Type (0, 1), None
#     Edge 41, Type (0, 1), None
#     Edge 42, Type (0, 1), None
#     Edge 43, Type (0, 1), None
#     Edge 44, Type (0, 1), None
#     Edge 45, Type (0, 1), None
#     Edge 46, Type (0, 1), None
#     Edge 47, Type (0, 1), None
#     Edge 48, Type (0, 1), None
#     Edge 49, Type (0, 1), None
#     Edge 50, Type (0, 1), None
#     Edge 51, Type (0, 1), None
#     Edge 52, Type (0, 1), None
#     Edge 53, Type (0, 1), None
#     Edge 54, Type (0, 1), None
#     Edge 55, Type (0, 1), None
#     Edge 56, Type (0, 1), None
#     Edge 57, Type (0, 1), None
#     Edge 58, Type (0, 1), None
#     Edge 59, Type (0, 1), None
#     Edge 60, Type (0, 1), None
#     Edge 61, Type (0, 1), None
#     Edge 62, Type (0, 1), None
#     Edge 63, Type (0, 1), None
#     Edge 64, Type (0, 1), None
#     Edge 65, Type (0, 1), None
#     Edge 66, Type (0, 1), None
#     Edge 67, Type (0, 1), None
#     Edge 68, Type (0, 1), None
#     Edge 69, Type (0, 1), None
#     Edge 70, Type (0, 1), None
#     Edge 71, Type (0, 1), None
#     Edge 72, Type (0, 1), None
#     Edge 73, Type (0, 1), None
#     Edge 74, Type (0, 1), None
#     Edge 75, Type (0, 1), None
#     Edge 76, Type (0, 1), None
#     Edge 77, Type (0, 1), None
#     Edge 78, Type (0, 1), None
#     Edge 79, Type (0, 1), None
#     Edge 80, Type (0, 1), None
#     Edge 81, Type (0, 1), None
#     Edge 82, Type (0, 1), None
#     Edge 83, Type (0, 1), None
#     Edge 84, Type (0, 1), None
#     Edge 85, Type (0, 1), None
#     Edge 86, Type (0, 1), None
#     Edge 87, Type (0, 1), None
#     Edge 88, Type (0, 1), None
#     Edge 89, Type (0, 1), None
#     Edge 90, Type (0, 1), None
#     Edge 91, Type (0, 1), None
#     Edge 92, Type (0, 1), None
#     Edge 93, Type (0, 1), None
#     Edge 94, Type (0, 1), None
#     Edge 95, Type (0, 1), None
#     Edge 96, Type (0, 1), None
#     Edge 97, Type (0, 1), None
#     Edge 98, Type (0, 1), None
#     Edge 99, Type (0, 1), None
#     Edge 100, Type (0, 1), None
#     Edge 101, Type (0, 1), None
# Relax obj value: 0.095
# Max RMSD: 0.146
# Mean RMSD: 0.123
data_MOF--net-llk--node1-EZIPEK_clean_sbu_0--node2-BELTOD_clean_linker_0--edge1-none
_symmetry_space_group_name_H-M    P1
_symmetry_Int_Tables_number       1
_symmetry_cell_setting            triclinic
loop_
_symmetry_equiv_pos_as_xyz
'x, y, z'
_cell_length_a     29.464523
_cell_length_b     29.601978
_cell_length_c     29.388669
_cell_angle_alpha  90.063609
_cell_angle_beta   90.021362
_cell_angle_gamma 89.998027
loop_
_atom_site_label
_atom_site_type_symbol
_atom_site_fract_x
_atom_site_fract_y
_atom_site_fract_z
_atom_type_partial_charge
P0 P 0.9463 0.25449 0.2528 0.0
H1 H 0.92685 0.25932 0.15543 0.0
H2 H 0.94291 0.31936 0.10107 0.0
H3 H 0.04148 0.37656 0.19307 0.0
H4 H 0.02772 0.31448 0.2463 0.0
H5 H 0.89521 0.20498 0.31837 0.0
H6 H 0.91819 0.15358 0.37867 0.0
H7 H 0.04867 0.13678 0.31461 0.0
H8 H 0.02644 0.19146 0.25483 0.0
H9 H 0.9065 0.34238 0.2716 0.0
H10 H 0.00935 0.25557 0.32998 0.0
O11 O 0.89099 0.25396 0.24042 0.0
H12 H 0.92845 0.40196 0.32529 0.0
H13 H 0.02957 0.31337 0.38345 0.0
C14 C 0.97528 0.28214 0.20565 0.0
C15 C 0.95339 0.28339 0.16333 0.0
C16 C 0.96196 0.31853 0.13261 0.0
C17 C 0.99212 0.35388 0.14367 0.0
C18 C 0.01688 0.35079 0.1843 0.0
C19 C 0.0094 0.31461 0.21441 0.0
C20 C 0.95872 0.20162 0.28129 0.0
C21 C 0.92846 0.18948 0.31623 0.0
C22 C 0.94199 0.16111 0.3516 0.0
C23 C 0.98575 0.14286 0.35227 0.0
C24 C 0.0151 0.15167 0.31541 0.0
C25 C 0.00201 0.18168 0.2805 0.0
C26 C 0.95484 0.2939 0.29784 0.0
C27 C 0.93267 0.33564 0.29659 0.0
C28 C 0.94582 0.36971 0.32643 0.0
C29 C 0.9809 0.36177 0.35773 0.0
C30 C 0.00235 0.31987 0.3595 0.0
C31 C 0.98993 0.28641 0.3293 0.0
P32 P 0.74986 0.94593 0.25178 0.0
H33 H 0.74617 0.92614 0.1544 0.0
H34 H 0.68748 0.94425 0.09889 0.0
H35 H 0.63276 0.0453 0.18937 0.0
H36 H 0.69368 0.02945 0.24371 0.0
H37 H 0.79667 0.89417 0.31892 0.0
H38 H 0.84938 0.91542 0.37904 0.0
H39 H 0.87175 0.04378 0.31364 0.0
H40 H 0.8159 0.02337 0.25406 0.0
H41 H 0.65995 0.909 0.26873 0.0
H42 H 0.74895 0.00908 0.32857 0.0
O43 O 0.74885 0.89087 0.23946 0.0
H44 H 0.60042 0.93113 0.32266 0.0
H45 H 0.69104 0.02951 0.3824 0.0
C46 C 0.7245 0.97567 0.20391 0.0
C47 C 0.7231 0.95371 0.16166 0.0
C48 C 0.68874 0.96354 0.13023 0.0
C49 C 0.65438 0.99509 0.14054 0.0
C50 C 0.65787 0.01988 0.18107 0.0
C51 C 0.69334 0.01111 0.21187 0.0
C52 C 0.80288 0.95673 0.28116 0.0
C53 C 0.8137 0.92652 0.31647 0.0
C54 C 0.84291 0.93907 0.35166 0.0
C55 C 0.86331 0.98172 0.35175 0.0
C56 C 0.85551 0.01097 0.31469 0.0
C57 C 0.82468 0.99893 0.27999 0.0
C58 C 0.70952 0.95584 0.29584 0.0
C59 C 0.66709 0.93472 0.29399 0.0
C60 C 0.63306 0.94797 0.32397 0.0
C61 C 0.64167 0.98215 0.35597 0.0
C62 C 0.68405 0.00297 0.35792 0.0
C63 C 0.71751 0.99045 0.32757 0.0
P64 P 0.06146 0.75003 0.25125 0.0
H65 H 0.07726 0.74812 0.15293 0.0
H66 H 0.05933 0.68977 0.09699 0.0
H67 H 0.96578 0.62833 0.19128 0.0
H68 H 0.98139 0.68852 0.24615 0.0
H69 H 0.11464 0.80176 0.3137 0.0
H70 H 0.09309 0.85411 0.37385 0.0
H71 H 0.96029 0.8681 0.31395 0.0
H72 H 0.98122 0.81271 0.25431 0.0
H73 H 0.10086 0.66201 0.27051 0.0
H74 H 0.00053 0.75078 0.33037 0.0
O75 O 0.11652 0.74989 0.23784 0.0
H76 H 0.08066 0.60395 0.32635 0.0
H77 H 0.98213 0.69442 0.3861 0.0
C78 C 0.03143 0.72294 0.20436 0.0
C79 C 0.05132 0.7235 0.16103 0.0
C80 C 0.0416 0.68941 0.12928 0.0
C81 C 0.01233 0.65339 0.14038 0.0
C82 C 0.98951 0.65478 0.18225 0.0
C83 C 0.99813 0.68981 0.21343 0.0
C84 C 0.04988 0.80369 0.27872 0.0
C85 C 0.08121 0.81694 0.31234 0.0
C86 C 0.06855 0.84592 0.3476 0.0
C87 C 0.02459 0.86361 0.34944 0.0
C88 C 0.99415 0.85383 0.31372 0.0
C89 C 0.00643 0.82331 0.27892 0.0
C90 C 0.05357 0.71136 0.29712 0.0
C91 C 0.07563 0.66953 0.29622 0.0
C92 C 0.06358 0.63636 0.32747 0.0
C93 C 0.02972 0.64522 0.35989 0.0
C94 C 0.00852 0.68726 0.36142 0.0
C95 C 0.01976 0.71983 0.32974 0.0
P96 P 0.25402 0.94435 0.25219 0.0
H97 H 0.15713 0.92466 0.25725 0.0
H98 H 0.10274 0.94349 0.31664 0.0
H99 H 0.1933 0.04575 0.36861 0.0
H100 H 0.24664 0.02904 0.3069 0.0
H101 H 0.32131 0.89289 0.20534 0.0
H102 H 0.38253 0.91508 0.15439 0.0
H103 H 0.31781 0.04394 0.13314 0.0
H104 H 0.25716 0.02257 0.18727 0.0
H105 H 0.26891 0.90745 0.34279 0.0
H106 H 0.33142 0.0063 0.25427 0.0
O107 O 0.24119 0.88942 0.25242 0.0
H108 H 0.32211 0.92918 0.40335 0.0
H109 H 0.38421 0.02627 0.313 0.0
C110 C 0.20664 0.97467 0.27749 0.0
C111 C 0.16465 0.95261 0.27984 0.0
C112 C 0.13389 0.96284 0.31463 0.0
C113 C 0.14459 0.99497 0.34843 0.0
C114 C 0.1848 0.01987 0.34397 0.0
C115 C 0.21494 0.01066 0.30803 0.0
C116 C 0.28391 0.95567 0.19959 0.0
C117 C 0.31931 0.92558 0.1889 0.0
C118 C 0.35513 0.93868 0.16081 0.0
C119 C 0.35575 0.98176 0.14136 0.0
C120 C 0.31854 0.01085 0.14882 0.0
C121 C 0.28321 0.99826 0.17856 0.0
C122 C 0.29749 0.95354 0.29332 0.0
C123 C 0.2946 0.93273 0.33595 0.0
C124 C 0.32412 0.94578 0.37055 0.0
C125 C 0.35663 0.9794 0.36221 0.0
C126 C 0.3594 6e-05 0.31973 0.0
C127 C 0.32963 0.98773 0.28575 0.0
P128 P 0.94573 0.75073 0.74859 0.0
H129 H 0.9252 0.74615 0.84567 0.0
H130 H 0.94027 0.68586 0.89999 0.0
H131 H 0.0402 0.62888 0.8094 0.0
H132 H 0.0273 0.69118 0.75616 0.0
H133 H 0.89478 0.80011 0.68283 0.0
H134 H 0.91815 0.85028 0.62165 0.0
H135 H 0.04897 0.86667 0.68518 0.0
H136 H 0.02634 0.81318 0.74587 0.0
H137 H 0.90633 0.66241 0.73087 0.0
H138 H 0.00877 0.74892 0.67138 0.0
O139 O 0.89035 0.75154 0.76061 0.0
H140 H 0.92772 0.60266 0.67703 0.0
H141 H 0.02819 0.69112 0.61772 0.0
C142 C 0.9743 0.72339 0.79612 0.0
C143 C 0.95181 0.72207 0.83809 0.0
C144 C 0.9598 0.68677 0.86877 0.0
C145 C 0.99001 0.65138 0.85801 0.0
C146 C 0.01548 0.65464 0.81785 0.0
C147 C 0.00854 0.69095 0.78779 0.0
C148 C 0.95844 0.80329 0.71968 0.0
C149 C 0.92821 0.81526 0.68464 0.0
C150 C 0.94196 0.84286 0.64876 0.0
C151 C 0.98593 0.86055 0.64767 0.0
C152 C 0.01525 0.85209 0.68466 0.0
C153 C 0.00193 0.82282 0.7201 0.0
C154 C 0.95436 0.71084 0.704 0.0
C155 C 0.93225 0.66906 0.70563 0.0
C156 C 0.94504 0.63493 0.67569 0.0
C157 C 0.97962 0.6429 0.64389 0.0
C158 C 0.00124 0.68469 0.64198 0.0
C159 C 0.98927 0.71816 0.67232 0.0
P160 P 0.25465 0.94398 0.75116 0.0
H161 H 0.26065 0.92267 0.84794 0.0
H162 H 0.32049 0.94061 0.9022 0.0
H163 H 0.37071 0.04484 0.813 0.0
H164 H 0.30867 0.0289 0.75982 0.0
H165 H 0.20893 0.89241 0.68308 0.0
H166 H 0.15854 0.91437 0.62126 0.0
H167 H 0.13543 0.04281 0.68646 0.0
H168 H 0.18902 0.02172 0.74779 0.0
H169 H 0.34475 0.90688 0.73499 0.0
H170 H 0.25669 0.00767 0.67506 0.0
O171 O 0.25531 0.88889 0.76327 0.0
H172 H 0.40464 0.92875 0.68125 0.0
H173 H 0.31469 0.02755 0.62146 0.0
C174 C 0.28003 0.97366 0.79908 0.0
C175 C 0.28299 0.95082 0.84071 0.0
C176 C 0.31803 0.96054 0.87138 0.0
C177 C 0.35149 0.99296 0.86095 0.0
C178 C 0.34639 0.01866 0.82123 0.0
C179 C 0.31024 0.00991 0.7912 0.0
C180 C 0.20225 0.95501 0.72082 0.0
C181 C 0.19223 0.92496 0.68506 0.0
C182 C 0.16449 0.93795 0.64887 0.0
C183 C 0.14471 0.98086 0.6482 0.0
C184 C 0.15146 0.00989 0.68572 0.0
C185 C 0.18085 0.99742 0.72147 0.0
C186 C 0.2955 0.95391 0.70766 0.0
C187 C 0.33785 0.93263 0.70975 0.0
C188 C 0.37205 0.94569 0.67989 0.0
C189 C 0.36358 0.97977 0.64785 0.0
C190 C 0.32144 0.00097 0.6459 0.0
C191 C 0.28789 0.98869 0.67611 0.0
P192 P 0.0562 0.25366 0.74968 0.0
H193 H 0.07424 0.25617 0.84765 0.0
H194 H 0.05823 0.31515 0.90347 0.0
H195 H 0.96273 0.3765 0.81103 0.0
H196 H 0.97662 0.3158 0.75622 0.0
H197 H 0.10905 0.20313 0.6861 0.0
H198 H 0.08816 0.15072 0.62583 0.0
H199 H 0.95523 0.13562 0.68497 0.0
H200 H 0.97551 0.19109 0.7449 0.0
H201 H 0.09821 0.34045 0.73008 0.0
H202 H 0.99339 0.25555 0.67226 0.0
O203 O 0.11137 0.25294 0.76267 0.0
H204 H 0.07973 0.39892 0.67404 0.0
H205 H 0.97677 0.31223 0.61609 0.0
C206 C 0.02728 0.28119 0.7971 0.0
C207 C 0.04828 0.28091 0.83995 0.0
C208 C 0.03966 0.31537 0.87164 0.0
C209 C 0.01034 0.35152 0.86103 0.0
C210 C 0.98651 0.34995 0.8197 0.0
C211 C 0.99409 0.31459 0.78857 0.0
C212 C 0.04425 0.20059 0.72094 0.0
C213 C 0.07569 0.18778 0.68726 0.0
C214 C 0.06342 0.15872 0.65191 0.0
C215 C 0.01965 0.14058 0.64982 0.0
C216 C 0.98892 0.15026 0.68532 0.0
C217 C 0.00085 0.18082 0.72031 0.0
C218 C 0.04857 0.29293 0.70434 0.0
C219 C 0.0723 0.33384 0.70477 0.0
C220 C 0.06129 0.36724 0.67339 0.0
C221 C 0.02681 0.35949 0.64132 0.0
C222 C 0.00372 0.31843 0.64044 0.0
C223 C 0.01391 0.28569 0.6723 0.0
P224 P 0.75322 0.05713 0.7491 0.0
H225 H 0.74938 0.0733 0.84702 0.0
H226 H 0.68932 0.05716 0.90145 0.0
H227 H 0.62774 0.96427 0.8065 0.0
H228 H 0.68964 0.97859 0.75276 0.0
H229 H 0.80784 0.10978 0.68903 0.0
H230 H 0.85878 0.08764 0.62782 0.0
H231 H 0.86731 0.95336 0.6836 0.0
H232 H 0.81318 0.97499 0.74435 0.0
H233 H 0.66447 0.09617 0.73186 0.0
H234 H 0.75443 8e-05 0.66684 0.0
O235 O 0.75452 0.11181 0.76304 0.0
H236 H 0.60551 0.07656 0.67637 0.0
H237 H 0.69733 0.98252 0.6117 0.0
C238 C 0.72439 0.02778 0.79526 0.0
C239 C 0.72433 0.0479 0.83842 0.0
C240 C 0.6892 0.0392 0.86929 0.0
C241 C 0.65274 0.01047 0.8577 0.0
C242 C 0.65451 0.98753 0.81594 0.0
C243 C 0.69056 0.99531 0.7855 0.0
C244 C 0.80699 0.04433 0.72202 0.0
C245 C 0.82152 0.07581 0.68929 0.0
C246 C 0.84957 0.06286 0.65333 0.0
C247 C 0.86507 0.01836 0.64986 0.0
C248 C 0.85438 0.9876 0.68487 0.0
C249 C 0.82476 0.00026 0.72042 0.0
C250 C 0.71445 0.05089 0.7029 0.0
C251 C 0.6721 0.07212 0.70511 0.0
C252 C 0.63844 0.06037 0.67411 0.0
C253 C 0.64745 0.02782 0.64053 0.0
C254 C 0.69007 0.0078 0.63742 0.0
C255 C 0.72308 0.01861 0.66887 0.0
P256 P 0.25476 0.25451 0.94804 0.0
H257 H 0.25652 0.15756 0.92781 0.0
H258 H 0.31554 0.10161 0.94309 0.0
H259 H 0.37642 0.19091 0.04169 0.0
H260 H 0.31541 0.2455 0.02903 0.0
H261 H 0.20741 0.32165 0.89697 0.0
H262 H 0.15563 0.38183 0.919 0.0
H263 H 0.13568 0.31822 0.04931 0.0
H264 H 0.19071 0.25847 0.02804 0.0
H265 H 0.34221 0.27279 0.90569 0.0
H266 H 0.25956 0.32878 0.01352 0.0
O267 O 0.25369 0.24251 0.89252 0.0
H268 H 0.40255 0.32657 0.92515 0.0
H269 H 0.31812 0.38256 0.03139 0.0
C270 C 0.28129 0.20651 0.97647 0.0
C271 C 0.28113 0.16451 0.95428 0.0
C272 C 0.31564 0.13283 0.9624 0.0
C273 C 0.35178 0.14271 0.99223 0.0
C274 C 0.34997 0.18299 0.01735 0.0
C275 C 0.31442 0.21397 0.01045 0.0
C276 C 0.20247 0.28469 0.96042 0.0
C277 C 0.19122 0.31965 0.93001 0.0
C278 C 0.16254 0.3549 0.943 0.0
C279 C 0.14308 0.35559 0.98641 0.0
C280 C 0.15131 0.31896 0.01598 0.0
C281 C 0.18166 0.28414 0.00345 0.0
C282 C 0.29565 0.29806 0.95666 0.0
C283 C 0.33657 0.29721 0.93257 0.0
C284 C 0.37107 0.32719 0.9442 0.0
C285 C 0.36443 0.35819 0.97976 0.0
C286 C 0.32354 0.35905 0.00361 0.0
C287 C 0.28967 0.32871 0.99265 0.0
P288 P 0.25547 0.74898 0.94733 0.0
H289 H 0.15807 0.7485 0.92699 0.0
H290 H 0.1012 0.69019 0.94149 0.0
H291 H 0.19015 0.6276 0.03939 0.0
H292 H 0.24569 0.68776 0.02742 0.0
H293 H 0.32191 0.79705 0.89583 0.0
H294 H 0.3817 0.84947 0.91754 0.0
H295 H 0.31825 0.8685 0.04827 0.0
H296 H 0.25884 0.81293 0.02728 0.0
H297 H 0.27472 0.6617 0.90589 0.0
H298 H 0.33006 0.74545 0.0131 0.0
O299 O 0.24396 0.7494 0.89169 0.0
H300 H 0.32941 0.60243 0.92564 0.0
H301 H 0.38493 0.68788 0.03119 0.0
C302 C 0.20692 0.72273 0.97532 0.0
C303 C 0.16474 0.72362 0.95315 0.0
C304 C 0.13251 0.68954 0.96082 0.0
C305 C 0.14202 0.65313 0.9902 0.0
C306 C 0.18248 0.65426 0.01537 0.0
C307 C 0.21403 0.68932 0.00887 0.0
C308 C 0.285 0.80151 0.95948 0.0
C309 C 0.3198 0.81317 0.92888 0.0
C310 C 0.35485 0.84226 0.94167 0.0
C311 C 0.3555 0.86163 0.98509 0.0
C312 C 0.31899 0.85297 0.01489 0.0
C313 C 0.28436 0.82229 0.00253 0.0
C314 C 0.29954 0.70871 0.95656 0.0
C315 C 0.29918 0.6678 0.93272 0.0
C316 C 0.32972 0.63391 0.9445 0.0
C317 C 0.36086 0.64113 0.97993 0.0
C318 C 0.36129 0.68202 0.00353 0.0
C319 C 0.33031 0.71529 0.99247 0.0
P320 P 0.75288 0.25309 0.94754 0.0
H321 H 0.84974 0.25804 0.92702 0.0
H322 H 0.90396 0.31801 0.94336 0.0
H323 H 0.81383 0.37281 0.04499 0.0
H324 H 0.76072 0.31075 0.0308 0.0
H325 H 0.68633 0.20567 0.89555 0.0
H326 H 0.62513 0.15507 0.91763 0.0
H327 H 0.6884 0.13527 0.04833 0.0
H328 H 0.74918 0.18909 0.02704 0.0
H329 H 0.73491 0.34114 0.90747 0.0
H330 H 0.67722 0.25577 0.01202 0.0
O331 O 0.76514 0.25289 0.89208 0.0
H332 H 0.68127 0.40089 0.92872 0.0
H333 H 0.62368 0.31376 0.03152 0.0
C334 C 0.80041 0.27969 0.97686 0.0
C335 C 0.84227 0.28149 0.95432 0.0
C336 C 0.87294 0.3166 0.96311 0.0
C337 C 0.86232 0.35132 0.99423 0.0
C338 C 0.82229 0.34751 0.01973 0.0
C339 C 0.79223 0.31135 0.01198 0.0
C340 C 0.72311 0.20076 0.95927 0.0
C341 C 0.68805 0.18973 0.92867 0.0
C342 C 0.65218 0.16184 0.94171 0.0
C343 C 0.65103 0.14302 0.98531 0.0
C344 C 0.68793 0.15071 0.01494 0.0
C345 C 0.72339 0.18021 0.00236 0.0
C346 C 0.70883 0.29329 0.95661 0.0
C347 C 0.71015 0.33477 0.93394 0.0
C348 C 0.68034 0.36894 0.94668 0.0
C349 C 0.64908 0.36137 0.9819 0.0
C350 C 0.64758 0.3199 0.00417 0.0
C351 C 0.67775 0.28634 0.99215 0.0
P352 P 0.75101 0.75177 0.05505 0.0
H353 H 0.84872 0.74831 0.07133 0.0
H354 H 0.90322 0.68856 0.05532 0.0
H355 H 0.80872 0.62649 0.96211 0.0
H356 H 0.75502 0.68811 0.97614 0.0
H357 H 0.69083 0.80653 0.10763 0.0
H358 H 0.63065 0.8581 0.08507 0.0
H359 H 0.68728 0.86593 0.95014 0.0
H360 H 0.74704 0.81126 0.97222 0.0
H361 H 0.73326 0.66388 0.09504 0.0
H362 H 0.66983 0.75247 0.99662 0.0
O363 O 0.76465 0.7532 0.11017 0.0
H364 H 0.67871 0.60474 0.07462 0.0
H365 H 0.61566 0.69502 0.97796 0.0
C366 C 0.7972 0.72302 0.02564 0.0
C367 C 0.84023 0.72318 0.04589 0.0
C368 C 0.87114 0.68823 0.03728 0.0
C369 C 0.85967 0.65169 0.0086 0.0
C370 C 0.81806 0.65328 0.98543 0.0
C371 C 0.78761 0.68916 0.99305 0.0
C372 C 0.7242 0.80534 0.04191 0.0
C373 C 0.69151 0.82018 0.07344 0.0
C374 C 0.65617 0.84866 0.06024 0.0
C375 C 0.65327 0.86424 0.01543 0.0
C376 C 0.68819 0.85309 0.98462 0.0
C377 C 0.72313 0.82307 0.99754 0.0
C378 C 0.70501 0.71313 0.04858 0.0
C379 C 0.70705 0.67114 0.07024 0.0
C380 C 0.67664 0.63733 0.05796 0.0
C381 C 0.64386 0.64577 0.02434 0.0
C382 C 0.64085 0.6881 0.00394 0.0
C383 C 0.67166 0.72132 0.0154 0.0
P384 P 0.44885 0.75357 0.75225 0.0
H385 H 0.43188 0.75754 0.6545 0.0
H386 H 0.44881 0.81713 0.60013 0.0
H387 H 0.54473 0.8759 0.69404 0.0
H388 H 0.52987 0.81428 0.74751 0.0
H389 H 0.39677 0.70352 0.81663 0.0
H390 H 0.41916 0.65244 0.87745 0.0
H391 H 0.55083 0.63658 0.81563 0.0
H392 H 0.52917 0.69094 0.75538 0.0
H393 H 0.40862 0.84143 0.77043 0.0
H394 H 0.51007 0.75435 0.83092 0.0
O395 O 0.39381 0.75295 0.73873 0.0
H396 H 0.42945 0.90083 0.82476 0.0
H397 H 0.52914 0.81196 0.88497 0.0
C398 C 0.47882 0.78116 0.70573 0.0
C399 C 0.45809 0.78183 0.66285 0.0
C400 C 0.46725 0.81671 0.63204 0.0
C401 C 0.49698 0.85235 0.64346 0.0
C402 C 0.52063 0.84983 0.6848 0.0
C403 C 0.51248 0.81394 0.7151 0.0
C404 C 0.46094 0.70063 0.78068 0.0
C405 C 0.43016 0.68826 0.81508 0.0
C406 C 0.44334 0.6601 0.85075 0.0
C407 C 0.48726 0.64228 0.85222 0.0
C408 C 0.51713 0.65119 0.81582 0.0
C409 C 0.50438 0.681 0.78063 0.0
C410 C 0.45636 0.79283 0.79759 0.0
C411 C 0.43421 0.83458 0.79599 0.0
C412 C 0.44672 0.86853 0.82622 0.0
C413 C 0.48114 0.86047 0.85824 0.0
C414 C 0.50245 0.81854 0.86045 0.0
C415 C 0.49069 0.7852 0.82986 0.0
P416 P 0.25068 0.44493 0.75275 0.0
H417 H 0.24658 0.42624 0.65518 0.0
H418 H 0.18755 0.44421 0.60003 0.0
H419 H 0.13132 0.54308 0.69201 0.0
H420 H 0.19247 0.52725 0.74616 0.0
H421 H 0.29996 0.3927 0.81773 0.0
H422 H 0.35308 0.41392 0.87749 0.0
H423 H 0.37151 0.54409 0.81454 0.0
H424 H 0.31527 0.5236 0.75533 0.0
H425 H 0.16085 0.40794 0.76949 0.0
H426 H 0.25078 0.50589 0.83151 0.0
O427 O 0.25017 0.38997 0.73991 0.0
H428 H 0.10129 0.43003 0.82335 0.0
H429 H 0.19282 0.52626 0.8852 0.0
C430 C 0.22422 0.47469 0.70544 0.0
C431 C 0.22305 0.45329 0.66291 0.0
C432 C 0.1885 0.46304 0.63167 0.0
C433 C 0.15368 0.49397 0.6424 0.0
C434 C 0.15678 0.51813 0.68335 0.0
C435 C 0.1924 0.50942 0.71402 0.0
C436 C 0.30415 0.45613 0.7812 0.0
C437 C 0.31625 0.42544 0.81567 0.0
C438 C 0.34574 0.43794 0.85065 0.0
C439 C 0.36511 0.48106 0.85139 0.0
C440 C 0.35611 0.51086 0.81507 0.0
C441 C 0.32503 0.49882 0.78057 0.0
C442 C 0.21083 0.45382 0.79749 0.0
C443 C 0.16822 0.4331 0.79525 0.0
C444 C 0.13417 0.44634 0.82521 0.0
C445 C 0.14295 0.48006 0.85765 0.0
C446 C 0.18566 0.50013 0.86033 0.0
C447 C 0.21915 0.48765 0.82998 0.0
P448 P 0.56164 0.24977 0.7519 0.0
H449 H 0.57945 0.24584 0.65409 0.0
H450 H 0.56171 0.18672 0.59906 0.0
H451 H 0.46429 0.12936 0.692 0.0
H452 H 0.47979 0.19049 0.74595 0.0
H453 H 0.61506 0.3 0.81538 0.0
H454 H 0.59388 0.35232 0.87568 0.0
H455 H 0.46205 0.3693 0.81444 0.0
H456 H 0.48253 0.31392 0.75464 0.0
H457 H 0.59877 0.16072 0.77032 0.0
H458 H 0.50031 0.25125 0.83072 0.0
O459 O 0.61684 0.24881 0.73911 0.0
H460 H 0.57633 0.10232 0.82491 0.0
H461 H 0.47974 0.19445 0.88522 0.0
C462 C 0.53172 0.22285 0.70482 0.0
C463 C 0.55275 0.22199 0.66206 0.0
C464 C 0.54315 0.1874 0.63087 0.0
C465 C 0.51279 0.15224 0.64191 0.0
C466 C 0.48889 0.15506 0.68308 0.0
C467 C 0.49741 0.19066 0.71368 0.0
C468 C 0.55073 0.30341 0.77972 0.0
C469 C 0.58194 0.31581 0.81378 0.0
C470 C 0.56947 0.34477 0.84913 0.0
C471 C 0.52585 0.36331 0.85062 0.0
C472 C 0.49561 0.35436 0.81449 0.0
C473 C 0.50767 0.32385 0.7796 0.0
C474 C 0.55261 0.21092 0.79734 0.0
C475 C 0.57346 0.1685 0.79589 0.0
C476 C 0.56005 0.13512 0.8263 0.0
C477 C 0.52607 0.14438 0.85846 0.0
C478 C 0.50606 0.18696 0.86056 0.0
C479 C 0.51864 0.21977 0.8297 0.0
P480 P 0.75366 0.44309 0.75094 0.0
H481 H 0.65658 0.42484 0.7573 0.0
H482 H 0.6031 0.44357 0.81749 0.0
H483 H 0.696 0.54318 0.87058 0.0
H484 H 0.74862 0.52639 0.8082 0.0
H485 H 0.81813 0.39077 0.70112 0.0
H486 H 0.87959 0.41295 0.6505 0.0
H487 H 0.81814 0.54399 0.63366 0.0
H488 H 0.75726 0.52255 0.6875 0.0
H489 H 0.76949 0.40595 0.84116 0.0
H490 H 0.83319 0.50274 0.75113 0.0
O491 O 0.74016 0.38831 0.75082 0.0
H492 H 0.82328 0.42767 0.90113 0.0
H493 H 0.88647 0.52256 0.8092 0.0
C494 C 0.70722 0.4735 0.77797 0.0
C495 C 0.66488 0.45216 0.78038 0.0
C496 C 0.63462 0.46234 0.81563 0.0
C497 C 0.64611 0.49375 0.84989 0.0
C498 C 0.68683 0.51785 0.84559 0.0
C499 C 0.71656 0.50864 0.80925 0.0
C500 C 0.78236 0.45466 0.69769 0.0
C501 C 0.81681 0.42395 0.68566 0.0
C502 C 0.85282 0.43701 0.65779 0.0
C503 C 0.85455 0.48069 0.63985 0.0
C504 C 0.81807 0.51042 0.64828 0.0
C505 C 0.78254 0.4978 0.6778 0.0
C506 C 0.79834 0.45113 0.791 0.0
C507 C 0.7956 0.43065 0.83381 0.0
C508 C 0.8255 0.44368 0.86806 0.0
C509 C 0.85831 0.47688 0.85919 0.0
C510 C 0.86139 0.49673 0.81636 0.0
C511 C 0.83121 0.48449 0.78275 0.0
P512 P 0.44718 0.25032 0.24932 0.0
H513 H 0.42725 0.2472 0.3467 0.0
H514 H 0.44168 0.18731 0.40174 0.0
H515 H 0.53955 0.12726 0.31089 0.0
H516 H 0.52741 0.18908 0.25701 0.0
H517 H 0.39608 0.3001 0.18397 0.0
H518 H 0.41928 0.35056 0.12299 0.0
H519 H 0.55029 0.36659 0.18619 0.0
H520 H 0.52782 0.3128 0.24668 0.0
H521 H 0.40738 0.16238 0.23073 0.0
H522 H 0.51044 0.24877 0.17217 0.0
O523 O 0.39178 0.25109 0.26122 0.0
H524 H 0.42806 0.1032 0.17603 0.0
H525 H 0.52902 0.19154 0.11742 0.0
C526 C 0.47545 0.22286 0.297 0.0
C527 C 0.45333 0.22251 0.33922 0.0
C528 C 0.46095 0.18747 0.37034 0.0
C529 C 0.49035 0.15136 0.35976 0.0
C530 C 0.51547 0.15362 0.3193 0.0
C531 C 0.50895 0.18965 0.2888 0.0
C532 C 0.45984 0.30307 0.22067 0.0
C533 C 0.42951 0.31524 0.18577 0.0
C534 C 0.44316 0.34303 0.15 0.0
C535 C 0.48713 0.36073 0.14885 0.0
C536 C 0.51655 0.35206 0.18572 0.0
C537 C 0.50333 0.32259 0.22105 0.0
C538 C 0.4558 0.21072 0.20443 0.0
C539 C 0.4333 0.16915 0.20552 0.0
C540 C 0.44564 0.13535 0.17503 0.0
C541 C 0.48012 0.14345 0.14316 0.0
C542 C 0.50213 0.18505 0.14173 0.0
C543 C 0.49067 0.21817 0.17271 0.0
P544 P 0.75365 0.56117 0.25055 0.0
H545 H 0.65627 0.57916 0.24516 0.0
H546 H 0.6021 0.56068 0.18529 0.0
H547 H 0.69522 0.46253 0.13002 0.0
H548 H 0.7484 0.47887 0.192 0.0
H549 H 0.81721 0.6139 0.30128 0.0
H550 H 0.87891 0.59177 0.35167 0.0
H551 H 0.81856 0.4601 0.36739 0.0
H552 H 0.75742 0.48153 0.3138 0.0
H553 H 0.77021 0.59809 0.16042 0.0
H554 H 0.8335 0.50158 0.25111 0.0
O555 O 0.74037 0.616 0.25049 0.0
H556 H 0.82473 0.57669 0.10109 0.0
H557 H 0.88773 0.48229 0.19368 0.0
C558 C 0.70701 0.53108 0.22335 0.0
C559 C 0.66446 0.55216 0.22165 0.0
C560 C 0.63379 0.54214 0.18663 0.0
C561 C 0.64513 0.51126 0.15186 0.0
C562 C 0.68611 0.48744 0.15544 0.0
C563 C 0.71621 0.49642 0.19153 0.0
C564 C 0.782 0.54967 0.30407 0.0
C565 C 0.81617 0.58057 0.31643 0.0
C566 C 0.85236 0.56755 0.34414 0.0
C567 C 0.85453 0.52369 0.36162 0.0
C568 C 0.81821 0.4938 0.35305 0.0
C569 C 0.7825 0.5064 0.3237 0.0
C570 C 0.79869 0.55299 0.21087 0.0
C571 C 0.79637 0.57353 0.16808 0.0
C572 C 0.82675 0.56073 0.13421 0.0
C573 C 0.85973 0.52777 0.14344 0.0
C574 C 0.86253 0.50795 0.18628 0.0
C575 C 0.83174 0.51985 0.2195 0.0
P576 P 0.55669 0.75369 0.24944 0.0
H577 H 0.57488 0.75645 0.34729 0.0
H578 H 0.55891 0.8154 0.40303 0.0
H579 H 0.46316 0.87662 0.31072 0.0
H580 H 0.47715 0.81592 0.25589 0.0
H581 H 0.60935 0.70171 0.18678 0.0
H582 H 0.58804 0.64914 0.1268 0.0
H583 H 0.45446 0.63664 0.1851 0.0
H584 H 0.47526 0.69219 0.24477 0.0
H585 H 0.59833 0.84079 0.23054 0.0
H586 H 0.49468 0.75543 0.17133 0.0
O587 O 0.61185 0.75269 0.26243 0.0
H588 H 0.5796 0.89962 0.17494 0.0
H589 H 0.47767 0.81249 0.11581 0.0
C590 C 0.52785 0.78139 0.29678 0.0
C591 C 0.54889 0.78117 0.33959 0.0
C592 C 0.54028 0.81563 0.37123 0.0
C593 C 0.51085 0.85172 0.36068 0.0
C594 C 0.487 0.85013 0.31936 0.0
C595 C 0.49463 0.81477 0.28823 0.0
C596 C 0.54427 0.7005 0.22115 0.0
C597 C 0.57574 0.6869 0.18783 0.0
C598 C 0.56324 0.65775 0.15264 0.0
C599 C 0.51917 0.64035 0.15034 0.0
C600 C 0.48839 0.65072 0.18559 0.0
C601 C 0.50059 0.68134 0.22042 0.0
C602 C 0.5493 0.79303 0.20411 0.0
C603 C 0.57263 0.83417 0.20502 0.0
C604 C 0.56143 0.86779 0.17393 0.0
C605 C 0.52713 0.86005 0.14168 0.0
C606 C 0.50445 0.81876 0.14032 0.0
C607 C 0.51489 0.78577 0.17183 0.0
P608 P 0.25217 0.55612 0.24888 0.0
H609 H 0.24947 0.57387 0.3466 0.0
H610 H 0.1901 0.55763 0.40182 0.0
H611 H 0.12985 0.46162 0.30922 0.0
H612 H 0.19117 0.47589 0.25486 0.0
H613 H 0.30382 0.60826 0.18585 0.0
H614 H 0.35528 0.58619 0.12503 0.0
H615 H 0.36858 0.45385 0.18449 0.0
H616 H 0.31391 0.47529 0.24481 0.0
H617 H 0.16281 0.59443 0.23276 0.0
H618 H 0.25166 0.49693 0.16845 0.0
O619 O 0.25296 0.61098 0.26212 0.0
H620 H 0.10326 0.57459 0.17794 0.0
H621 H 0.19391 0.47908 0.1138 0.0
C622 C 0.22503 0.52679 0.29599 0.0
C623 C 0.22493 0.54776 0.33875 0.0
C624 C 0.19021 0.53899 0.37006 0.0
C625 C 0.15425 0.50942 0.35921 0.0
C626 C 0.15626 0.48554 0.31802 0.0
C627 C 0.19195 0.49332 0.28722 0.0
C628 C 0.30544 0.54378 0.22067 0.0
C629 C 0.31861 0.57477 0.18691 0.0
C630 C 0.34701 0.56181 0.15124 0.0
C631 C 0.3642 0.51785 0.14907 0.0
C632 C 0.3545 0.48765 0.18486 0.0
C633 C 0.32449 0.50023 0.22008 0.0
C634 C 0.21232 0.54863 0.20382 0.0
C635 C 0.17 0.56992 0.20633 0.0
C636 C 0.13599 0.55802 0.17574 0.0
C637 C 0.14458 0.5252 0.14233 0.0
C638 C 0.18698 0.50462 0.13935 0.0
C639 C 0.22036 0.51563 0.17038 0.0
P640 P 0.7552 0.75366 0.44647 0.0
H641 H 0.75856 0.65697 0.42529 0.0
H642 H 0.81774 0.60142 0.44133 0.0
H643 H 0.87589 0.69045 0.54182 0.0
H644 H 0.81467 0.74465 0.52834 0.0
H645 H 0.70838 0.82122 0.39552 0.0
H646 H 0.65752 0.88201 0.41802 0.0
H647 H 0.63665 0.81769 0.54783 0.0
H648 H 0.6908 0.75734 0.52614 0.0
H649 H 0.84215 0.77351 0.40381 0.0
H650 H 0.75978 0.82685 0.51321 0.0
O651 O 0.75443 0.7419 0.39089 0.0
H652 H 0.90179 0.82796 0.42338 0.0
H653 H 0.81756 0.88146 0.53107 0.0
C654 C 0.78189 0.70574 0.47487 0.0
C655 C 0.78258 0.66394 0.4523 0.0
C656 C 0.81719 0.6325 0.46085 0.0
C657 C 0.8526 0.64244 0.49153 0.0
C658 C 0.84999 0.68252 0.51688 0.0
C659 C 0.81433 0.71326 0.5095 0.0
C660 C 0.70296 0.7839 0.45872 0.0
C661 C 0.69218 0.81922 0.42854 0.0
C662 C 0.66411 0.85485 0.44184 0.0
C663 C 0.64476 0.85553 0.48528 0.0
C664 C 0.65235 0.81849 0.51452 0.0
C665 C 0.68211 0.7833 0.50172 0.0
C666 C 0.79575 0.79742 0.45556 0.0
C667 C 0.83639 0.7975 0.43105 0.0
C668 C 0.87047 0.8279 0.4427 0.0
C669 C 0.86366 0.8584 0.47868 0.0
C670 C 0.82304 0.85838 0.50294 0.0
C671 C 0.78962 0.82756 0.49199 0.0
P672 P 0.75504 0.24883 0.44742 0.0
H673 H 0.65763 0.2484 0.42685 0.0
H674 H 0.60072 0.1901 0.44154 0.0
H675 H 0.6894 0.12828 0.54015 0.0
H676 H 0.74487 0.18846 0.5281 0.0
H677 H 0.82293 0.29477 0.39599 0.0
H678 H 0.88307 0.34698 0.41726 0.0
H679 H 0.81821 0.36962 0.54672 0.0
H680 H 0.75849 0.31416 0.52629 0.0
H681 H 0.77465 0.16164 0.40591 0.0
H682 H 0.82877 0.24499 0.51405 0.0
O683 O 0.74359 0.24889 0.39177 0.0
H684 H 0.82958 0.10258 0.42559 0.0
H685 H 0.88404 0.18764 0.532 0.0
C686 C 0.70633 0.223 0.47555 0.0
C687 C 0.6642 0.22372 0.45322 0.0
C688 C 0.63196 0.18965 0.461 0.0
C689 C 0.64145 0.15343 0.49059 0.0
C690 C 0.68178 0.1548 0.51595 0.0
C691 C 0.71329 0.18987 0.50939 0.0
C692 C 0.78528 0.30108 0.45905 0.0
C693 C 0.82062 0.31164 0.42865 0.0
C694 C 0.85585 0.3406 0.44121 0.0
C695 C 0.85612 0.36102 0.48414 0.0
C696 C 0.8192 0.35331 0.51372 0.0
C697 C 0.78442 0.3227 0.50166 0.0
C698 C 0.79889 0.20843 0.45705 0.0
C699 C 0.79888 0.16769 0.43295 0.0
C700 C 0.82958 0.13394 0.44466 0.0
C701 C 0.86053 0.14115 0.48026 0.0
C702 C 0.86057 0.18185 0.50418 0.0
C703 C 0.82937 0.21495 0.49323 0.0
P704 P 0.25348 0.75283 0.44796 0.0
H705 H 0.3509 0.75574 0.42928 0.0
H706 H 0.40612 0.8149 0.44575 0.0
H707 H 0.31458 0.8738 0.54374 0.0
H708 H 0.2605 0.81268 0.52955 0.0
H709 H 0.18784 0.70395 0.39614 0.0
H710 H 0.12675 0.65336 0.41855 0.0
H711 H 0.18863 0.63658 0.55034 0.0
H712 H 0.24932 0.69036 0.52863 0.0
H713 H 0.23469 0.83976 0.40553 0.0
H714 H 0.17761 0.7565 0.51208 0.0
O715 O 0.26634 0.75175 0.39264 0.0
H716 H 0.17981 0.89917 0.42452 0.0
H717 H 0.12286 0.81405 0.52938 0.0
C718 C 0.30085 0.77956 0.47738 0.0
C719 C 0.34331 0.77994 0.45587 0.0
C720 C 0.3746 0.81453 0.46473 0.0
C721 C 0.36393 0.85012 0.4948 0.0
C722 C 0.32316 0.84773 0.51931 0.0
C723 C 0.29248 0.81215 0.51153 0.0
C724 C 0.22393 0.70052 0.46035 0.0
C725 C 0.1893 0.68866 0.42959 0.0
C726 C 0.15348 0.66078 0.44279 0.0
C727 C 0.15195 0.64283 0.48676 0.0
C728 C 0.18844 0.65134 0.51664 0.0
C729 C 0.22386 0.68082 0.50385 0.0
C730 C 0.20905 0.79293 0.45587 0.0
C731 C 0.2098 0.83374 0.43196 0.0
C732 C 0.17918 0.8677 0.44332 0.0
C733 C 0.14767 0.86061 0.47843 0.0
C734 C 0.14676 0.81978 0.50195 0.0
C735 C 0.17773 0.78648 0.49129 0.0
P736 P 0.25028 0.25078 0.55738 0.0
H737 H 0.34775 0.24684 0.57567 0.0
H738 H 0.40235 0.18675 0.56059 0.0
H739 H 0.3093 0.12529 0.46562 0.0
H740 H 0.2557 0.18723 0.47849 0.0
H741 H 0.18938 0.3055 0.60918 0.0
H742 H 0.12973 0.35741 0.58604 0.0
H743 H 0.18801 0.36533 0.45182 0.0
H744 H 0.24729 0.31037 0.4745 0.0
H745 H 0.23187 0.16295 0.59711 0.0
H746 H 0.17026 0.25129 0.49736 0.0
O747 O 0.26293 0.2522 0.61275 0.0
H748 H 0.17779 0.10369 0.57576 0.0
H749 H 0.11652 0.19375 0.47777 0.0
C750 C 0.297 0.22187 0.52893 0.0
C751 C 0.33962 0.22174 0.5501 0.0
C752 C 0.37052 0.1866 0.5421 0.0
C753 C 0.35935 0.15012 0.51326 0.0
C754 C 0.31825 0.15197 0.48923 0.0
C755 C 0.2879 0.18806 0.49615 0.0
C756 C 0.22359 0.30436 0.54389 0.0
C757 C 0.19054 0.31921 0.57503 0.0
C758 C 0.1555 0.34791 0.56149 0.0
C759 C 0.15321 0.36366 0.5167 0.0
C760 C 0.18844 0.35239 0.48627 0.0
C761 C 0.2231 0.32219 0.49954 0.0
C762 C 0.20444 0.2121 0.55007 0.0
C763 C 0.20612 0.17012 0.57181 0.0
C764 C 0.17601 0.13623 0.559 0.0
C765 C 0.14383 0.14457 0.5248 0.0
C766 C 0.14122 0.18687 0.50423 0.0
C767 C 0.17176 0.22017 0.51622 0.0
C768 C 0.9979 0.89257 0.61101 0.0
C769 C 0.0129 0.89528 0.3866 0.0
C770 C 0.00895 0.10809 0.61299 0.0
C771 C 0.99754 0.11039 0.38859 0.0
C772 C 0.89426 0.10723 0.49091 0.0
C773 C 0.89791 0.89169 0.48956 0.0
C774 C 0.11148 0.11003 0.51212 0.0
C775 C 0.11427 0.89476 0.48919 0.0
C776 C 0.11241 0.00189 0.38675 0.0
C777 C 0.89582 0.99302 0.38842 0.0
C778 C 0.11268 0.99225 0.61119 0.0
C779 C 0.89684 0.00682 0.61269 0.0
Eu780 Eu 0.00567 0.91562 0.49908 0.0
O781 O 0.96523 0.96156 0.45975 0.0
O782 O 0.04614 0.96068 0.53979 0.0
Eu783 Eu 0.91844 0.99975 0.5004 0.0
Eu784 Eu 0.0907 0.00217 0.49908 0.0
O785 O 0.96419 0.95939 0.54044 0.0
O786 O 0.04397 0.96311 0.45979 0.0
Eu787 Eu 0.0047 0.00017 0.58541 0.0
Eu788 Eu 0.00404 0.00268 0.41407 0.0
O789 O 0.96349 0.04082 0.54091 0.0
O790 O 0.96355 0.04084 0.4606 0.0
O791 O 0.04534 0.0437 0.45869 0.0
O792 O 0.04359 0.04049 0.53923 0.0
Eu793 Eu 0.00328 0.08688 0.50051 0.0
O794 O 0.99657 0.87841 0.56751 0.0
O795 O 0.01544 0.88049 0.42975 0.0
O796 O 0.00782 0.12317 0.56987 0.0
O797 O 0.99703 0.12449 0.43208 0.0
O798 O 0.88098 0.06439 0.48818 0.0
O799 O 0.88296 0.93275 0.50051 0.0
O800 O 0.12633 0.06761 0.51244 0.0
O801 O 0.12774 0.93747 0.48634 0.0
O802 O 0.06903 -2e-05 0.37476 0.0
O803 O 0.93828 3e-05 0.37497 0.0
O804 O 0.07019 0.99893 0.62457 0.0
O805 O 0.93977 0.00211 0.62553 0.0
O806 O 0.0694 0.12414 0.50364 0.0
O807 O 0.9359 0.12231 0.49999 0.0
O808 O 0.07274 0.87994 0.49898 0.0
O809 O 0.94087 0.87871 0.48547 0.0
O810 O 0.00602 0.93779 0.37388 0.0
O811 O 0.0017 0.06785 0.37494 0.0
O812 O 0.00304 0.93504 0.62454 0.0
O813 O 0.00738 0.06504 0.62566 0.0
O814 O 0.88194 0.0081 0.56944 0.0
O815 O 0.88176 0.99035 0.43181 0.0
O816 O 0.12689 0.9899 0.56774 0.0
O817 O 0.12792 0.00563 0.4297 0.0
C818 C 0.51588 0.8944 0.10852 0.0
C819 C 0.49159 0.10953 0.10976 0.0
C820 C 0.49307 0.89474 0.89112 0.0
C821 C 0.51338 0.11052 0.89149 0.0
C822 C 0.61451 0.00478 0.89048 0.0
C823 C 0.61612 0.00135 0.10807 0.0
C824 C 0.38999 0.99967 0.89301 0.0
C825 C 0.39264 0.99351 0.10938 0.0
C826 C 0.39001 0.1101 0.99711 0.0
C827 C 0.61433 0.11077 0.99638 0.0
C828 C 0.39202 0.89422 0.99626 0.0
C829 C 0.61626 0.89588 0.00363 0.0
Eu830 Eu 0.50413 0.00216 0.08672 0.0
O831 O 0.54381 0.04389 0.04124 0.0
O832 O 0.46357 0.9612 0.04149 0.0
Eu833 Eu 0.58806 0.00309 0.99941 0.0
Eu834 Eu 0.4182 0.00224 0.00145 0.0
O835 O 0.54297 0.96336 0.03927 0.0
O836 O 0.46346 0.04243 0.04143 0.0
Eu837 Eu 0.50405 0.91678 0.99984 0.0
Eu838 Eu 0.50219 0.08844 0.00048 0.0
O839 O 0.54413 0.96152 0.95778 0.0
O840 O 0.54117 0.04208 0.96044 0.0
O841 O 0.46193 0.04319 0.95931 0.0
O842 O 0.4643 0.9634 0.96111 0.0
Eu843 Eu 0.50244 0.00262 0.91335 0.0
O844 O 0.51727 0.93697 0.12285 0.0
O845 O 0.49204 0.06693 0.12402 0.0
O846 O 0.49227 0.93724 0.87669 0.0
O847 O 0.51192 0.06809 0.87672 0.0
O848 O 0.6267 0.00729 0.93391 0.0
O849 O 0.62776 0.99884 0.06448 0.0
O850 O 0.37858 0.99684 0.93661 0.0
O851 O 0.37929 0.00254 0.06723 0.0
O852 O 0.433 0.12542 0.99824 0.0
O853 O 0.57109 0.12532 0.99575 0.0
O854 O 0.43529 0.87988 0.99485 0.0
O855 O 0.57326 0.88081 0.00494 0.0
O856 O 0.43254 0.00483 0.87708 0.0
O857 O 0.57154 0.0003 0.87542 0.0
O858 O 0.43596 0.9892 0.12307 0.0
O859 O 0.57342 0.00576 0.12373 0.0
O860 O 0.49834 0.12441 0.06753 0.0
O861 O 0.50731 0.12508 0.93395 0.0
O862 O 0.50688 0.87998 0.06651 0.0
O863 O 0.50119 0.88026 0.93321 0.0
O864 O 0.62877 0.93874 0.99931 0.0
O865 O 0.62752 0.06805 0.99981 0.0
O866 O 0.37878 0.93691 0.00077 0.0
O867 O 0.37798 0.06682 0.99779 0.0
C868 C 0.99817 0.3919 0.11105 0.0
C869 C 0.00517 0.38982 0.8937 0.0
C870 C 0.00629 0.61527 0.10774 0.0
C871 C 0.99563 0.61333 0.89063 0.0
C872 C 0.89236 0.61356 0.0031 0.0
C873 C 0.89438 0.38987 0.99984 0.0
C874 C 0.10904 0.61515 0.99452 0.0
C875 C 0.11055 0.39214 0.99765 0.0
C876 C 0.10879 0.49205 0.89086 0.0
C877 C 0.89144 0.48887 0.8933 0.0
C878 C 0.11021 0.51401 0.1091 0.0
C879 C 0.89278 0.51557 0.10933 0.0
Eu880 Eu 0.00233 0.41846 0.00255 0.0
O881 O 0.96178 0.46287 0.96167 0.0
O882 O 0.04384 0.46306 0.04296 0.0
Eu883 Eu 0.91467 0.50185 0.00123 0.0
Eu884 Eu 0.08751 0.50359 1.0 0.0
O885 O 0.96032 0.4625 0.0431 0.0
O886 O 0.04046 0.46416 0.96141 0.0
Eu887 Eu 0.0017 0.50328 0.08758 0.0
Eu888 Eu 0.00039 0.50188 0.91379 0.0
O889 O 0.96174 0.54155 0.04016 0.0
O890 O 0.95907 0.54209 0.95892 0.0
O891 O 0.04198 0.54287 0.95807 0.0
O892 O 0.04066 0.54228 0.03976 0.0
Eu893 Eu 0.00075 0.58688 0.99903 0.0
O894 O 0.99763 0.37955 0.06764 0.0
O895 O 0.00728 0.37847 0.93744 0.0
O896 O 0.00743 0.62676 0.064 0.0
O897 O 0.99404 0.62557 0.93404 0.0
O898 O 0.87725 0.57087 0.99799 0.0
O899 O 0.87854 0.43227 0.00497 0.0
O900 O 0.12447 0.57249 0.99765 0.0
O901 O 0.12479 0.43521 0.99531 0.0
O902 O 0.06602 0.49301 0.87645 0.0
O903 O 0.93364 0.49465 0.87827 0.0
O904 O 0.0677 0.51206 0.1241 0.0
O905 O 0.93528 0.5107 0.12395 0.0
O906 O 0.06551 0.62695 0.99323 0.0
O907 O 0.9357 0.62549 0.00612 0.0
O908 O 0.06778 0.37903 0.00311 0.0
O909 O 0.93788 0.37867 0.99649 0.0
O910 O 0.001 0.43225 0.8778 0.0
O911 O 0.99959 0.57051 0.87552 0.0
O912 O 0.001 0.43482 0.1261 0.0
O913 O 0.00256 0.57281 0.12363 0.0
O914 O 0.87786 0.51242 0.0668 0.0
O915 O 0.87705 0.49098 0.93607 0.0
O916 O 0.12457 0.5089 0.06642 0.0
O917 O 0.12364 0.49822 0.9332 0.0
C918 C 0.49908 0.39271 0.1121 0.0
C919 C 0.50813 0.60803 0.11347 0.0
C920 C 0.51437 0.39509 0.88776 0.0
C921 C 0.49876 0.61005 0.88883 0.0
C922 C 0.6139 0.50106 0.88821 0.0
C923 C 0.61292 0.5043 0.11342 0.0
C924 C 0.39738 0.49253 0.88823 0.0
C925 C 0.39637 0.50641 0.11222 0.0
C926 C 0.39454 0.60713 0.99064 0.0
C927 C 0.61151 0.61116 0.01198 0.0
C928 C 0.39883 0.39151 0.99027 0.0
C929 C 0.61567 0.39529 0.993 0.0
Eu930 Eu 0.50447 0.50014 0.08589 0.0
O931 O 0.5431 0.54033 0.03961 0.0
O932 O 0.46444 0.45927 0.04072 0.0
Eu933 Eu 0.59159 0.50291 0.00072 0.0
Eu934 Eu 0.41905 0.49971 0.00028 0.0
O935 O 0.54731 0.46061 0.04136 0.0
O936 O 0.46354 0.54088 0.04112 0.0
Eu937 Eu 0.50673 0.41567 1.00021 0.0
Eu938 Eu 0.50346 0.58697 0.00086 0.0
O939 O 0.5452 0.46339 0.96125 0.0
O940 O 0.54637 0.54399 0.95958 0.0
O941 O 0.46422 0.54084 0.9606 0.0
O942 O 0.46654 0.46148 0.96044 0.0
Eu943 Eu 0.50546 0.50258 0.91488 0.0
O944 O 0.50455 0.43519 0.12547 0.0
O945 O 0.50546 0.56504 0.12619 0.0
O946 O 0.50759 0.43758 0.87493 0.0
O947 O 0.50337 0.5675 0.87541 0.0
O948 O 0.62919 0.5048 0.93128 0.0
O949 O 0.62852 0.5013 0.07044 0.0
O950 O 0.38294 0.48998 0.93149 0.0
O951 O 0.38196 0.50828 0.06885 0.0
O952 O 0.43607 0.62224 1.00011 0.0
O953 O 0.5691 0.62495 0.00472 0.0
O954 O 0.44187 0.37851 0.98654 0.0
O955 O 0.57378 0.38022 0.00053 0.0
O956 O 0.43998 0.49952 0.87515 0.0
O957 O 0.57059 0.49968 0.87598 0.0
O958 O 0.43911 0.50107 0.12545 0.0
O959 O 0.56946 0.50476 0.1254 0.0
O960 O 0.50807 0.62306 0.07032 0.0
O961 O 0.4976 0.62431 0.93225 0.0
O962 O 0.49733 0.37854 0.06863 0.0
O963 O 0.51677 0.38039 0.93096 0.0
O964 O 0.62934 0.43802 0.99158 0.0
O965 O 0.62685 0.56895 0.01132 0.0
O966 O 0.38379 0.43268 0.0006 0.0
O967 O 0.38142 0.56425 0.98765 0.0
C968 C 0.01557 0.39381 0.60818 0.0
C969 C 0.99315 0.39596 0.39063 0.0
C970 C 0.99126 0.60893 0.61063 0.0
C971 C 0.01728 0.61108 0.39284 0.0
C972 C 0.8908 0.60994 0.49709 0.0
C973 C 0.89256 0.39384 0.49489 0.0
C974 C 0.11525 0.61065 0.49802 0.0
C975 C 0.1165 0.39554 0.50459 0.0
C976 C 0.11599 0.5041 0.39191 0.0
C977 C 0.89198 0.51176 0.39295 0.0
C978 C 0.1156 0.50048 0.60969 0.0
C979 C 0.8918 0.49257 0.60832 0.0
Eu980 Eu 0.00438 0.41684 0.4995 0.0
O981 O 0.96459 0.46308 0.46 0.0
O982 O 0.04285 0.46327 0.53968 0.0
Eu983 Eu 0.91858 0.5019 0.50065 0.0
Eu984 Eu 0.08878 0.50298 0.50077 0.0
O985 O 0.9636 0.46099 0.54116 0.0
O986 O 0.0451 0.46193 0.45856 0.0
Eu987 Eu 0.00367 0.50166 0.58713 0.0
Eu988 Eu 0.00406 0.50337 0.414 0.0
O989 O 0.96357 0.54204 0.5414 0.0
O990 O 0.96351 0.54308 0.46025 0.0
O991 O 0.04247 0.54238 0.46166 0.0
O992 O 0.04414 0.54363 0.54251 0.0
Eu993 Eu 0.00307 0.58846 0.50146 0.0
O994 O 0.00707 0.37956 0.56599 0.0
O995 O 0.00251 0.38116 0.43235 0.0
O996 O 0.99862 0.62396 0.56858 0.0
O997 O 0.00894 0.62546 0.43501 0.0
O998 O 0.87867 0.5667 0.49818 0.0
O999 O 0.87925 0.43659 0.49835 0.0
O1000 O 0.12837 0.56789 0.50138 0.0
O1001 O 0.1292 0.43842 0.50101 0.0
O1002 O 0.07316 0.49962 0.37656 0.0
O1003 O 0.93515 0.51639 0.37875 0.0
O1004 O 0.0727 0.50466 0.62493 0.0
O1005 O 0.93499 0.48862 0.62261 0.0
O1006 O 0.07204 0.62525 0.49731 0.0
O1007 O 0.9338 0.62528 0.49815 0.0
O1008 O 0.07343 0.38059 0.50501 0.0
O1009 O 0.93585 0.37952 0.49448 0.0
O1010 O 0.99126 0.43866 0.37681 0.0
O1011 O 0.01718 0.56862 0.37813 0.0
O1012 O 0.0165 0.43627 0.62283 0.0
O1013 O 0.99128 0.56626 0.62469 0.0
O1014 O 0.8789 0.50131 0.56597 0.0
O1015 O 0.87916 0.50226 0.43514 0.0
O1016 O 0.12771 0.49848 0.56621 0.0
O1017 O 0.12789 0.50705 0.43541 0.0
C1018 C 0.50289 0.89051 0.61092 0.0
C1019 C 0.50556 0.88984 0.39355 0.0
C1020 C 0.50647 0.11402 0.60944 0.0
C1021 C 0.49527 0.11322 0.39245 0.0
C1022 C 0.3922 0.11217 0.50769 0.0
C1023 C 0.39615 0.88857 0.50008 0.0
C1024 C 0.60872 0.11526 0.49488 0.0
C1025 C 0.6123 0.89206 0.49668 0.0
C1026 C 0.60793 0.9935 0.38981 0.0
C1027 C 0.3904 0.99033 0.39609 0.0
C1028 C 0.61289 0.01559 0.60793 0.0
C1029 C 0.39708 0.99077 0.61386 0.0
Eu1030 Eu 0.50423 0.9177 0.50248 0.0
O1031 O 0.46219 0.962 0.46295 0.0
O1032 O 0.54606 0.96218 0.54298 0.0
Eu1033 Eu 0.41577 0.00064 0.50394 0.0
Eu1034 Eu 0.58846 0.00341 0.49945 0.0
O1035 O 0.46382 0.96225 0.5431 0.0
O1036 O 0.54147 0.96372 0.46096 0.0
Eu1037 Eu 0.50443 0.00207 0.58858 0.0
Eu1038 Eu 0.49988 0.00164 0.41482 0.0
O1039 O 0.46175 0.04141 0.54372 0.0
O1040 O 0.4591 0.04121 0.46108 0.0
O1041 O 0.54147 0.04254 0.45908 0.0
O1042 O 0.54179 0.0414 0.54005 0.0
Eu1043 Eu 0.50058 0.08616 0.5009 0.0
O1044 O 0.49973 0.87868 0.56748 0.0
O1045 O 0.50867 0.87827 0.43714 0.0
O1046 O 0.50848 0.12555 0.56579 0.0
O1047 O 0.49346 0.12523 0.43596 0.0
O1048 O 0.37736 0.0692 0.50466 0.0
O1049 O 0.3801 0.93093 0.50436 0.0
O1050 O 0.62457 0.0727 0.49706 0.0
O1051 O 0.62623 0.93524 0.49408 0.0
O1052 O 0.56489 0.99377 0.3762 0.0
O1053 O 0.43245 0.99551 0.38046 0.0
O1054 O 0.57071 0.01312 0.62368 0.0
O1055 O 0.43998 0.99292 0.6276 0.0
O1056 O 0.56507 0.12678 0.49462 0.0
O1057 O 0.43548 0.12467 0.50819 0.0
O1058 O 0.56973 0.8787 0.50267 0.0
O1059 O 0.43976 0.8774 0.4976 0.0
O1060 O 0.5004 0.93233 0.37808 0.0
O1061 O 0.49924 0.07049 0.37713 0.0
O1062 O 0.50788 0.93316 0.62616 0.0
O1063 O 0.50188 0.07152 0.62516 0.0
O1064 O 0.38142 0.99524 0.57162 0.0
O1065 O 0.37676 0.99186 0.43916 0.0
O1066 O 0.62666 0.00974 0.56515 0.0
O1067 O 0.62344 0.99953 0.43193 0.0
loop_
_geom_bond_atom_site_label_1
_geom_bond_atom_site_label_2
_geom_bond_distance
_geom_bond_site_symmetry_2
_ccdc_geom_bond_type
P0 O11 1.490 . S
P0 C14 1.812 . S
P0 C20 1.803 . S
P0 C26 1.819 . S
H1 C15 0.941 . S
H2 C16 0.939 . S
H3 C18 0.940 . S
H4 C19 0.940 . S
H5 C21 0.939 . S
H6 C22 0.942 . S
H7 C24 0.940 . S
H8 C25 0.939 . S
H9 C27 0.941 . S
H10 C31 0.939 1_455 S
O11 P0 1.490 . S
H12 C28 0.939 . S
H13 C30 0.940 . S
C14 P0 1.812 . S
C14 C15 1.389 . S
C14 C19 1.391 1_655 S
C15 H1 0.941 . S
C15 C14 1.389 . S
C15 C16 1.397 . S
C16 H2 0.939 . S
C16 C15 1.397 . S
C16 C17 1.378 . S
C17 C16 1.378 . S
C17 C18 1.378 1_655 S
C18 H3 0.940 . S
C18 C17 1.378 1_455 S
C18 C19 1.396 . S
C19 H4 0.940 . S
C19 C14 1.391 1_455 S
C19 C18 1.396 . S
C20 P0 1.803 . S
C20 C21 1.378 . S
C20 C25 1.400 1_655 S
C21 H5 0.939 . S
C21 C20 1.378 . S
C21 C22 1.361 . S
C22 H6 0.942 . S
C22 C21 1.361 . S
C22 C23 1.369 . S
C23 C22 1.369 . S
C23 C24 1.404 1_655 S
C24 H7 0.940 . S
C24 C23 1.404 1_455 S
C24 C25 1.389 . S
C25 H8 0.939 . S
C25 C20 1.400 1_455 S
C25 C24 1.389 . S
C26 P0 1.819 . S
C26 C27 1.391 . S
C26 C31 1.391 . S
C27 H9 0.941 . S
C27 C26 1.391 . S
C27 C28 1.396 . S
C28 H12 0.939 . S
C28 C27 1.396 . S
C28 C29 1.397 . S
C29 C28 1.397 . S
C29 C30 1.385 1_655 S
C30 H13 0.940 . S
C30 C29 1.385 1_455 S
C30 C31 1.388 1_455 S
C31 H10 0.939 1_655 S
C31 C26 1.391 . S
C31 C30 1.388 1_655 S
P32 O43 1.490 . S
P32 C46 1.812 . S
P32 C52 1.803 . S
P32 C58 1.819 . S
H33 C47 0.941 . S
H34 C48 0.939 . S
H35 C50 0.940 . S
H36 C51 0.940 . S
H37 C53 0.939 . S
H38 C54 0.942 . S
H39 C56 0.940 . S
H40 C57 0.939 . S
H41 C59 0.941 . S
H42 C63 0.939 1_545 S
O43 P32 1.490 . S
H44 C60 0.939 . S
H45 C62 0.940 . S
C46 P32 1.812 . S
C46 C47 1.389 . S
C46 C51 1.391 1_565 S
C47 H33 0.941 . S
C47 C46 1.389 . S
C47 C48 1.397 . S
C48 H34 0.939 . S
C48 C47 1.397 . S
C48 C49 1.378 . S
C49 C48 1.378 . S
C49 C50 1.378 1_565 S
C50 H35 0.940 . S
C50 C49 1.378 1_545 S
C50 C51 1.396 . S
C51 H36 0.940 . S
C51 C46 1.391 1_545 S
C51 C50 1.396 . S
C52 P32 1.803 . S
C52 C53 1.378 . S
C52 C57 1.400 1_565 S
C53 H37 0.939 . S
C53 C52 1.378 . S
C53 C54 1.361 . S
C54 H38 0.942 . S
C54 C53 1.361 . S
C54 C55 1.369 . S
C55 C54 1.369 . S
C55 C56 1.404 1_565 S
C56 H39 0.940 . S
C56 C55 1.404 1_545 S
C56 C57 1.389 . S
C57 H40 0.939 . S
C57 C52 1.400 1_545 S
C57 C56 1.389 . S
C58 P32 1.819 . S
C58 C59 1.391 . S
C58 C63 1.391 . S
C59 H41 0.941 . S
C59 C58 1.391 . S
C59 C60 1.396 . S
C60 H44 0.939 . S
C60 C59 1.396 . S
C60 C61 1.397 . S
C61 C60 1.397 . S
C61 C62 1.385 1_565 S
C62 H45 0.940 . S
C62 C61 1.385 1_545 S
C62 C63 1.388 1_545 S
C63 H42 0.939 1_565 S
C63 C58 1.391 . S
C63 C62 1.388 1_565 S
P64 O75 1.490 . S
P64 C78 1.812 . S
P64 C84 1.803 . S
P64 C90 1.819 . S
H65 C79 0.941 . S
H66 C80 0.939 . S
H67 C82 0.940 . S
H68 C83 0.940 1_655 S
H69 C85 0.939 . S
H70 C86 0.942 . S
H71 C88 0.940 . S
H72 C89 0.939 1_655 S
H73 C91 0.941 . S
H74 C95 0.939 . S
O75 P64 1.490 . S
H76 C92 0.939 . S
H77 C94 0.940 . S
C78 P64 1.812 . S
C78 C79 1.389 . S
C78 C83 1.391 . S
C79 H65 0.941 . S
C79 C78 1.389 . S
C79 C80 1.397 . S
C80 H66 0.939 . S
C80 C79 1.397 . S
C80 C81 1.378 . S
C81 C80 1.378 . S
C81 C82 1.378 1_455 S
C82 H67 0.940 . S
C82 C81 1.378 1_655 S
C82 C83 1.396 1_655 S
C83 H68 0.940 1_455 S
C83 C78 1.391 . S
C83 C82 1.396 1_455 S
C84 P64 1.803 . S
C84 C85 1.378 . S
C84 C89 1.400 . S
C85 H69 0.939 . S
C85 C84 1.378 . S
C85 C86 1.361 . S
C86 H70 0.942 . S
C86 C85 1.361 . S
C86 C87 1.369 . S
C87 C86 1.369 . S
C87 C88 1.404 1_455 S
C88 H71 0.940 . S
C88 C87 1.404 1_655 S
C88 C89 1.389 1_655 S
C89 H72 0.939 1_455 S
C89 C84 1.400 . S
C89 C88 1.389 1_455 S
C90 P64 1.819 . S
C90 C91 1.391 . S
C90 C95 1.391 . S
C91 H73 0.941 . S
C91 C90 1.391 . S
C91 C92 1.396 . S
C92 H76 0.939 . S
C92 C91 1.396 . S
C92 C93 1.397 . S
C93 C92 1.397 . S
C93 C94 1.385 1_455 S
C94 H77 0.940 . S
C94 C93 1.385 1_655 S
C94 C95 1.388 1_655 S
C95 H74 0.939 . S
C95 C90 1.391 . S
C95 C94 1.388 1_455 S
P96 O107 1.490 . S
P96 C110 1.812 . S
P96 C116 1.803 . S
P96 C122 1.819 . S
H97 C111 0.941 . S
H98 C112 0.939 . S
H99 C114 0.940 . S
H100 C115 0.940 . S
H101 C117 0.939 . S
H102 C118 0.942 . S
H103 C120 0.940 . S
H104 C121 0.939 . S
H105 C123 0.941 . S
H106 C127 0.939 1_545 S
O107 P96 1.490 . S
H108 C124 0.939 . S
H109 C126 0.940 . S
C110 P96 1.812 . S
C110 C111 1.389 . S
C110 C115 1.391 1_565 S
C111 H97 0.941 . S
C111 C110 1.389 . S
C111 C112 1.397 . S
C112 H98 0.939 . S
C112 C111 1.397 . S
C112 C113 1.378 . S
C113 C112 1.378 . S
C113 C114 1.378 1_565 S
C114 H99 0.940 . S
C114 C113 1.378 1_545 S
C114 C115 1.396 . S
C115 H100 0.940 . S
C115 C110 1.391 1_545 S
C115 C114 1.396 . S
C116 P96 1.803 . S
C116 C117 1.378 . S
C116 C121 1.400 1_565 S
C117 H101 0.939 . S
C117 C116 1.378 . S
C117 C118 1.361 . S
C118 H102 0.942 . S
C118 C117 1.361 . S
C118 C119 1.369 . S
C119 C118 1.369 . S
C119 C120 1.404 1_565 S
C120 H103 0.940 . S
C120 C119 1.404 1_545 S
C120 C121 1.389 . S
C121 H104 0.939 . S
C121 C116 1.400 1_545 S
C121 C120 1.389 . S
C122 P96 1.819 . S
C122 C123 1.391 . S
C122 C127 1.391 . S
C123 H105 0.941 . S
C123 C122 1.391 . S
C123 C124 1.396 . S
C124 H108 0.939 . S
C124 C123 1.396 . S
C124 C125 1.397 . S
C125 C124 1.397 . S
C125 C126 1.385 1_565 S
C126 H109 0.940 . S
C126 C125 1.385 1_545 S
C126 C127 1.388 1_545 S
C127 H106 0.939 1_565 S
C127 C122 1.391 . S
C127 C126 1.388 1_565 S
P128 O139 1.490 . S
P128 C142 1.812 . S
P128 C148 1.803 . S
P128 C154 1.819 . S
H129 C143 0.941 . S
H130 C144 0.939 . S
H131 C146 0.940 . S
H132 C147 0.940 . S
H133 C149 0.939 . S
H134 C150 0.942 . S
H135 C152 0.940 . S
H136 C153 0.939 . S
H137 C155 0.941 . S
H138 C159 0.939 1_455 S
O139 P128 1.490 . S
H140 C156 0.939 . S
H141 C158 0.940 . S
C142 P128 1.812 . S
C142 C143 1.389 . S
C142 C147 1.391 1_655 S
C143 H129 0.941 . S
C143 C142 1.389 . S
C143 C144 1.397 . S
C144 H130 0.939 . S
C144 C143 1.397 . S
C144 C145 1.378 . S
C145 C144 1.378 . S
C145 C146 1.378 1_655 S
C146 H131 0.940 . S
C146 C145 1.378 1_455 S
C146 C147 1.396 . S
C147 H132 0.940 . S
C147 C142 1.391 1_455 S
C147 C146 1.396 . S
C148 P128 1.803 . S
C148 C149 1.378 . S
C148 C153 1.400 1_655 S
C149 H133 0.939 . S
C149 C148 1.378 . S
C149 C150 1.361 . S
C150 H134 0.942 . S
C150 C149 1.361 . S
C150 C151 1.369 . S
C151 C150 1.369 . S
C151 C152 1.404 1_655 S
C152 H135 0.940 . S
C152 C151 1.404 1_455 S
C152 C153 1.389 . S
C153 H136 0.939 . S
C153 C148 1.400 1_455 S
C153 C152 1.389 . S
C154 P128 1.819 . S
C154 C155 1.391 . S
C154 C159 1.391 . S
C155 H137 0.941 . S
C155 C154 1.391 . S
C155 C156 1.396 . S
C156 H140 0.939 . S
C156 C155 1.396 . S
C156 C157 1.397 . S
C157 C156 1.397 . S
C157 C158 1.385 1_655 S
C158 H141 0.940 . S
C158 C157 1.385 1_455 S
C158 C159 1.388 1_455 S
C159 H138 0.939 1_655 S
C159 C154 1.391 . S
C159 C158 1.388 1_655 S
P160 O171 1.490 . S
P160 C174 1.812 . S
P160 C180 1.803 . S
P160 C186 1.819 . S
H161 C175 0.941 . S
H162 C176 0.939 . S
H163 C178 0.940 . S
H164 C179 0.940 . S
H165 C181 0.939 . S
H166 C182 0.942 . S
H167 C184 0.940 . S
H168 C185 0.939 . S
H169 C187 0.941 . S
H170 C191 0.939 1_545 S
O171 P160 1.490 . S
H172 C188 0.939 . S
H173 C190 0.940 . S
C174 P160 1.812 . S
C174 C175 1.389 . S
C174 C179 1.391 1_565 S
C175 H161 0.941 . S
C175 C174 1.389 . S
C175 C176 1.397 . S
C176 H162 0.939 . S
C176 C175 1.397 . S
C176 C177 1.378 . S
C177 C176 1.378 . S
C177 C178 1.378 1_565 S
C178 H163 0.940 . S
C178 C177 1.378 1_545 S
C178 C179 1.396 . S
C179 H164 0.940 . S
C179 C174 1.391 1_545 S
C179 C178 1.396 . S
C180 P160 1.803 . S
C180 C181 1.378 . S
C180 C185 1.400 1_565 S
C181 H165 0.939 . S
C181 C180 1.378 . S
C181 C182 1.361 . S
C182 H166 0.942 . S
C182 C181 1.361 . S
C182 C183 1.369 . S
C183 C182 1.369 . S
C183 C184 1.404 1_565 S
C184 H167 0.940 . S
C184 C183 1.404 1_545 S
C184 C185 1.389 . S
C185 H168 0.939 . S
C185 C180 1.400 1_545 S
C185 C184 1.389 . S
C186 P160 1.819 . S
C186 C187 1.391 . S
C186 C191 1.391 . S
C187 H169 0.941 . S
C187 C186 1.391 . S
C187 C188 1.396 . S
C188 H172 0.939 . S
C188 C187 1.396 . S
C188 C189 1.397 . S
C189 C188 1.397 . S
C189 C190 1.385 1_565 S
C190 H173 0.940 . S
C190 C189 1.385 1_545 S
C190 C191 1.388 1_545 S
C191 H170 0.939 1_565 S
C191 C186 1.391 . S
C191 C190 1.388 1_565 S
P192 O203 1.490 . S
P192 C206 1.812 . S
P192 C212 1.803 . S
P192 C218 1.819 . S
H193 C207 0.941 . S
H194 C208 0.939 . S
H195 C210 0.940 . S
H196 C211 0.940 1_655 S
H197 C213 0.939 . S
H198 C214 0.942 . S
H199 C216 0.940 . S
H200 C217 0.939 1_655 S
H201 C219 0.941 . S
H202 C223 0.939 . S
O203 P192 1.490 . S
H204 C220 0.939 . S
H205 C222 0.940 . S
C206 P192 1.812 . S
C206 C207 1.389 . S
C206 C211 1.391 . S
C207 H193 0.941 . S
C207 C206 1.389 . S
C207 C208 1.397 . S
C208 H194 0.939 . S
C208 C207 1.397 . S
C208 C209 1.378 . S
C209 C208 1.378 . S
C209 C210 1.378 1_455 S
C210 H195 0.940 . S
C210 C209 1.378 1_655 S
C210 C211 1.396 1_655 S
C211 H196 0.940 1_455 S
C211 C206 1.391 . S
C211 C210 1.396 1_455 S
C212 P192 1.803 . S
C212 C213 1.378 . S
C212 C217 1.400 . S
C213 H197 0.939 . S
C213 C212 1.378 . S
C213 C214 1.361 . S
C214 H198 0.942 . S
C214 C213 1.361 . S
C214 C215 1.369 . S
C215 C214 1.369 . S
C215 C216 1.404 1_455 S
C216 H199 0.940 . S
C216 C215 1.404 1_655 S
C216 C217 1.389 1_655 S
C217 H200 0.939 1_455 S
C217 C212 1.400 . S
C217 C216 1.389 1_455 S
C218 P192 1.819 . S
C218 C219 1.391 . S
C218 C223 1.391 . S
C219 H201 0.941 . S
C219 C218 1.391 . S
C219 C220 1.396 . S
C220 H204 0.939 . S
C220 C219 1.396 . S
C220 C221 1.397 . S
C221 C220 1.397 . S
C221 C222 1.385 1_455 S
C222 H205 0.940 . S
C222 C221 1.385 1_655 S
C222 C223 1.388 1_655 S
C223 H202 0.939 . S
C223 C218 1.391 . S
C223 C222 1.388 1_455 S
P224 O235 1.490 . S
P224 C238 1.812 . S
P224 C244 1.803 . S
P224 C250 1.819 . S
H225 C239 0.941 . S
H226 C240 0.939 . S
H227 C242 0.940 . S
H228 C243 0.940 1_565 S
H229 C245 0.939 . S
H230 C246 0.942 . S
H231 C248 0.940 . S
H232 C249 0.931 1_565 S
H233 C251 0.941 . S
H234 C255 0.946 . S
O235 P224 1.490 . S
H236 C252 0.939 . S
H237 C254 0.940 . S
C238 P224 1.812 . S
C238 C239 1.389 . S
C238 C243 1.391 . S
C239 H225 0.941 . S
C239 C238 1.389 . S
C239 C240 1.397 . S
C240 H226 0.939 . S
C240 C239 1.397 . S
C240 C241 1.378 . S
C241 C240 1.378 . S
C241 C242 1.378 1_545 S
C242 H227 0.940 . S
C242 C241 1.378 1_565 S
C242 C243 1.396 1_565 S
C243 H228 0.940 1_545 S
C243 C238 1.391 . S
C243 C242 1.396 1_545 S
C244 P224 1.803 . S
C244 C245 1.378 . S
C244 C249 1.414 . S
C245 H229 0.939 . S
C245 C244 1.378 . S
C245 C246 1.361 . S
C246 H230 0.942 . S
C246 C245 1.361 . S
C246 C247 1.369 . S
C247 C246 1.369 . S
C247 C248 1.404 1_545 S
C248 H231 0.940 . S
C248 C247 1.404 1_565 S
C248 C249 1.384 1_565 S
C249 H232 0.931 1_545 S
C249 C244 1.414 . S
C249 C248 1.384 1_545 S
C250 P224 1.819 . S
C250 C251 1.391 . S
C250 C255 1.391 . S
C251 H233 0.941 . S
C251 C250 1.391 . S
C251 C252 1.396 . S
C252 H236 0.939 . S
C252 C251 1.396 . S
C252 C253 1.397 . S
C253 C252 1.397 . S
C253 C254 1.385 1_545 S
C254 H237 0.940 . S
C254 C253 1.385 1_565 S
C254 C255 1.388 1_565 S
C255 H234 0.946 . S
C255 C250 1.391 . S
C255 C254 1.388 1_545 S
P256 O267 1.490 . S
P256 C270 1.812 . S
P256 C276 1.803 . S
P256 C282 1.819 . S
H257 C271 0.941 . S
H258 C272 0.939 . S
H259 C274 0.940 . S
H260 C275 0.954 . S
H261 C277 0.939 . S
H262 C278 0.942 . S
H263 C280 0.940 . S
H264 C281 0.939 . S
H265 C283 0.941 . S
H266 C287 0.939 1_554 S
O267 P256 1.490 . S
H268 C284 0.939 . S
H269 C286 0.940 . S
C270 P256 1.812 . S
C270 C271 1.389 . S
C270 C275 1.368 1_556 S
C271 H257 0.941 . S
C271 C270 1.389 . S
C271 C272 1.397 . S
C272 H258 0.939 . S
C272 C271 1.397 . S
C272 C273 1.378 . S
C273 C272 1.378 . S
C273 C274 1.378 1_556 S
C274 H259 0.940 . S
C274 C273 1.378 1_554 S
C274 C275 1.405 . S
C275 H260 0.954 . S
C275 C270 1.368 1_554 S
C275 C274 1.405 . S
C276 P256 1.803 . S
C276 C277 1.378 . S
C276 C281 1.400 1_556 S
C277 H261 0.939 . S
C277 C276 1.378 . S
C277 C278 1.361 . S
C278 H262 0.942 . S
C278 C277 1.361 . S
C278 C279 1.369 . S
C279 C278 1.369 . S
C279 C280 1.404 1_556 S
C280 H263 0.940 . S
C280 C279 1.404 1_554 S
C280 C281 1.389 . S
C281 H264 0.939 . S
C281 C276 1.400 1_554 S
C281 C280 1.389 . S
C282 P256 1.819 . S
C282 C283 1.391 . S
C282 C287 1.391 . S
C283 H265 0.941 . S
C283 C282 1.391 . S
C283 C284 1.396 . S
C284 H268 0.939 . S
C284 C283 1.396 . S
C284 C285 1.397 . S
C285 C284 1.397 . S
C285 C286 1.385 1_556 S
C286 H269 0.940 . S
C286 C285 1.385 1_554 S
C286 C287 1.388 1_554 S
C287 H266 0.939 1_556 S
C287 C282 1.391 . S
C287 C286 1.388 1_556 S
P288 O299 1.490 . S
P288 C302 1.812 . S
P288 C308 1.803 . S
P288 C314 1.819 . S
H289 C303 0.941 . S
H290 C304 0.939 . S
H291 C306 0.940 . S
H292 C307 0.940 . S
H293 C309 0.939 . S
H294 C310 0.942 . S
H295 C312 0.940 . S
H296 C313 0.939 . S
H297 C315 0.941 . S
H298 C319 0.939 1_554 S
O299 P288 1.490 . S
H300 C316 0.939 . S
H301 C318 0.940 . S
C302 P288 1.812 . S
C302 C303 1.389 . S
C302 C307 1.391 1_556 S
C303 H289 0.941 . S
C303 C302 1.389 . S
C303 C304 1.397 . S
C304 H290 0.939 . S
C304 C303 1.397 . S
C304 C305 1.378 . S
C305 C304 1.378 . S
C305 C306 1.378 1_556 S
C306 H291 0.940 . S
C306 C305 1.378 1_554 S
C306 C307 1.396 . S
C307 H292 0.940 . S
C307 C302 1.391 1_554 S
C307 C306 1.396 . S
C308 P288 1.803 . S
C308 C309 1.378 . S
C308 C313 1.400 1_556 S
C309 H293 0.939 . S
C309 C308 1.378 . S
C309 C310 1.361 . S
C310 H294 0.942 . S
C310 C309 1.361 . S
C310 C311 1.369 . S
C311 C310 1.369 . S
C311 C312 1.404 1_556 S
C312 H295 0.940 . S
C312 C311 1.404 1_554 S
C312 C313 1.389 . S
C313 H296 0.939 . S
C313 C308 1.400 1_554 S
C313 C312 1.389 . S
C314 P288 1.819 . S
C314 C315 1.391 . S
C314 C319 1.391 . S
C315 H297 0.941 . S
C315 C314 1.391 . S
C315 C316 1.396 . S
C316 H300 0.939 . S
C316 C315 1.396 . S
C316 C317 1.397 . S
C317 C316 1.397 . S
C317 C318 1.385 1_556 S
C318 H301 0.940 . S
C318 C317 1.385 1_554 S
C318 C319 1.388 1_554 S
C319 H298 0.939 1_556 S
C319 C314 1.391 . S
C319 C318 1.388 1_556 S
P320 O331 1.490 . S
P320 C334 1.812 . S
P320 C340 1.803 . S
P320 C346 1.819 . S
H321 C335 0.941 . S
H322 C336 0.939 . S
H323 C338 0.940 . S
H324 C339 0.955 . S
H325 C341 0.939 . S
H326 C342 0.942 . S
H327 C344 0.940 . S
H328 C345 0.939 . S
H329 C347 0.941 . S
H330 C351 0.939 1_554 S
O331 P320 1.490 . S
H332 C348 0.939 . S
H333 C350 0.940 . S
C334 P320 1.812 . S
C334 C335 1.389 . S
C334 C339 1.368 1_556 S
C335 H321 0.941 . S
C335 C334 1.389 . S
C335 C336 1.397 . S
C336 H322 0.939 . S
C336 C335 1.397 . S
C336 C337 1.378 . S
C337 C336 1.378 . S
C337 C338 1.378 1_556 S
C338 H323 0.940 . S
C338 C337 1.378 1_554 S
C338 C339 1.405 . S
C339 H324 0.955 . S
C339 C334 1.368 1_554 S
C339 C338 1.405 . S
C340 P320 1.803 . S
C340 C341 1.378 . S
C340 C345 1.400 1_556 S
C341 H325 0.939 . S
C341 C340 1.378 . S
C341 C342 1.361 . S
C342 H326 0.942 . S
C342 C341 1.361 . S
C342 C343 1.369 . S
C343 C342 1.369 . S
C343 C344 1.404 1_556 S
C344 H327 0.940 . S
C344 C343 1.404 1_554 S
C344 C345 1.389 . S
C345 H328 0.939 . S
C345 C340 1.400 1_554 S
C345 C344 1.389 . S
C346 P320 1.819 . S
C346 C347 1.391 . S
C346 C351 1.391 . S
C347 H329 0.941 . S
C347 C346 1.391 . S
C347 C348 1.396 . S
C348 H332 0.939 . S
C348 C347 1.396 . S
C348 C349 1.397 . S
C349 C348 1.397 . S
C349 C350 1.385 1_556 S
C350 H333 0.940 . S
C350 C349 1.385 1_554 S
C350 C351 1.388 1_554 S
C351 H330 0.939 1_556 S
C351 C346 1.391 . S
C351 C350 1.388 1_556 S
P352 O363 1.490 . S
P352 C366 1.812 . S
P352 C372 1.803 . S
P352 C378 1.819 . S
H353 C367 0.941 . S
H354 C368 0.939 . S
H355 C370 0.940 . S
H356 C371 0.942 . S
H357 C373 0.939 . S
H358 C374 0.942 . S
H359 C376 0.940 . S
H360 C377 0.953 . S
H361 C379 0.941 . S
H362 C383 0.934 1_556 S
O363 P352 1.490 . S
H364 C380 0.939 . S
H365 C382 0.940 . S
C366 P352 1.812 . S
C366 C367 1.389 . S
C366 C371 1.387 1_554 S
C367 H353 0.941 . S
C367 C366 1.389 . S
C367 C368 1.397 . S
C368 H354 0.939 . S
C368 C367 1.397 . S
C368 C369 1.378 . S
C369 C368 1.378 . S
C369 C370 1.378 1_554 S
C370 H355 0.940 . S
C370 C369 1.378 1_556 S
C370 C371 1.398 . S
C371 H356 0.942 . S
C371 C366 1.387 1_556 S
C371 C370 1.398 . S
C372 P352 1.803 . S
C372 C373 1.378 . S
C372 C377 1.378 1_554 S
C373 H357 0.939 . S
C373 C372 1.378 . S
C373 C374 1.361 . S
C374 H358 0.942 . S
C374 C373 1.361 . S
C374 C375 1.369 . S
C375 C374 1.369 . S
C375 C376 1.404 1_554 S
C376 H359 0.940 . S
C376 C375 1.404 1_556 S
C376 C377 1.398 . S
C377 H360 0.953 . S
C377 C372 1.378 1_556 S
C377 C376 1.398 . S
C378 P352 1.819 . S
C378 C379 1.391 . S
C378 C383 1.391 . S
C379 H361 0.941 . S
C379 C378 1.391 . S
C379 C380 1.396 . S
C380 H364 0.939 . S
C380 C379 1.396 . S
C380 C381 1.397 . S
C381 C380 1.397 . S
C381 C382 1.385 1_554 S
C382 H365 0.940 . S
C382 C381 1.385 1_556 S
C382 C383 1.388 1_556 S
C383 H362 0.934 1_554 S
C383 C378 1.391 . S
C383 C382 1.388 1_554 S
P384 O395 1.490 . S
P384 C398 1.812 . S
P384 C404 1.803 . S
P384 C410 1.819 . S
H385 C399 0.941 . S
H386 C400 0.939 . S
H387 C402 0.940 . S
H388 C403 0.940 . S
H389 C405 0.939 . S
H390 C406 0.942 . S
H391 C408 0.940 . S
H392 C409 0.939 . S
H393 C411 0.941 . S
H394 C415 0.939 . S
O395 P384 1.490 . S
H396 C412 0.939 . S
H397 C414 0.940 . S
C398 P384 1.812 . S
C398 C399 1.389 . S
C398 C403 1.391 . S
C399 H385 0.941 . S
C399 C398 1.389 . S
C399 C400 1.397 . S
C400 H386 0.939 . S
C400 C399 1.397 . S
C400 C401 1.378 . S
C401 C400 1.378 . S
C401 C402 1.378 . S
C402 H387 0.940 . S
C402 C401 1.378 . S
C402 C403 1.396 . S
C403 H388 0.940 . S
C403 C398 1.391 . S
C403 C402 1.396 . S
C404 P384 1.803 . S
C404 C405 1.378 . S
C404 C409 1.400 . S
C405 H389 0.939 . S
C405 C404 1.378 . S
C405 C406 1.361 . S
C406 H390 0.942 . S
C406 C405 1.361 . S
C406 C407 1.369 . S
C407 C406 1.369 . S
C407 C408 1.404 . S
C408 H391 0.940 . S
C408 C407 1.404 . S
C408 C409 1.389 . S
C409 H392 0.939 . S
C409 C404 1.400 . S
C409 C408 1.389 . S
C410 P384 1.819 . S
C410 C411 1.391 . S
C410 C415 1.391 . S
C411 H393 0.941 . S
C411 C410 1.391 . S
C411 C412 1.396 . S
C412 H396 0.939 . S
C412 C411 1.396 . S
C412 C413 1.397 . S
C413 C412 1.397 . S
C413 C414 1.385 . S
C414 H397 0.940 . S
C414 C413 1.385 . S
C414 C415 1.388 . S
C415 H394 0.939 . S
C415 C410 1.391 . S
C415 C414 1.388 . S
P416 O427 1.490 . S
P416 C430 1.812 . S
P416 C436 1.803 . S
P416 C442 1.819 . S
H417 C431 0.941 . S
H418 C432 0.939 . S
H419 C434 0.940 . S
H420 C435 0.940 . S
H421 C437 0.939 . S
H422 C438 0.942 . S
H423 C440 0.940 . S
H424 C441 0.939 . S
H425 C443 0.941 . S
H426 C447 0.939 . S
O427 P416 1.490 . S
H428 C444 0.939 . S
H429 C446 0.940 . S
C430 P416 1.812 . S
C430 C431 1.389 . S
C430 C435 1.391 . S
C431 H417 0.941 . S
C431 C430 1.389 . S
C431 C432 1.397 . S
C432 H418 0.939 . S
C432 C431 1.397 . S
C432 C433 1.378 . S
C433 C432 1.378 . S
C433 C434 1.378 . S
C434 H419 0.940 . S
C434 C433 1.378 . S
C434 C435 1.396 . S
C435 H420 0.940 . S
C435 C430 1.391 . S
C435 C434 1.396 . S
C436 P416 1.803 . S
C436 C437 1.378 . S
C436 C441 1.400 . S
C437 H421 0.939 . S
C437 C436 1.378 . S
C437 C438 1.361 . S
C438 H422 0.942 . S
C438 C437 1.361 . S
C438 C439 1.369 . S
C439 C438 1.369 . S
C439 C440 1.404 . S
C440 H423 0.940 . S
C440 C439 1.404 . S
C440 C441 1.389 . S
C441 H424 0.939 . S
C441 C436 1.400 . S
C441 C440 1.389 . S
C442 P416 1.819 . S
C442 C443 1.391 . S
C442 C447 1.391 . S
C443 H425 0.941 . S
C443 C442 1.391 . S
C443 C444 1.396 . S
C444 H428 0.939 . S
C444 C443 1.396 . S
C444 C445 1.397 . S
C445 C444 1.397 . S
C445 C446 1.385 . S
C446 H429 0.940 . S
C446 C445 1.385 . S
C446 C447 1.388 . S
C447 H426 0.939 . S
C447 C442 1.391 . S
C447 C446 1.388 . S
P448 O459 1.490 . S
P448 C462 1.812 . S
P448 C468 1.803 . S
P448 C474 1.819 . S
H449 C463 0.941 . S
H450 C464 0.939 . S
H451 C466 0.940 . S
H452 C467 0.940 . S
H453 C469 0.939 . S
H454 C470 0.942 . S
H455 C472 0.940 . S
H456 C473 0.939 . S
H457 C475 0.941 . S
H458 C479 0.939 . S
O459 P448 1.490 . S
H460 C476 0.939 . S
H461 C478 0.940 . S
C462 P448 1.812 . S
C462 C463 1.389 . S
C462 C467 1.391 . S
C463 H449 0.941 . S
C463 C462 1.389 . S
C463 C464 1.397 . S
C464 H450 0.939 . S
C464 C463 1.397 . S
C464 C465 1.378 . S
C465 C464 1.378 . S
C465 C466 1.378 . S
C466 H451 0.940 . S
C466 C465 1.378 . S
C466 C467 1.396 . S
C467 H452 0.940 . S
C467 C462 1.391 . S
C467 C466 1.396 . S
C468 P448 1.803 . S
C468 C469 1.378 . S
C468 C473 1.400 . S
C469 H453 0.939 . S
C469 C468 1.378 . S
C469 C470 1.361 . S
C470 H454 0.942 . S
C470 C469 1.361 . S
C470 C471 1.369 . S
C471 C470 1.369 . S
C471 C472 1.404 . S
C472 H455 0.940 . S
C472 C471 1.404 . S
C472 C473 1.389 . S
C473 H456 0.939 . S
C473 C468 1.400 . S
C473 C472 1.389 . S
C474 P448 1.819 . S
C474 C475 1.391 . S
C474 C479 1.391 . S
C475 H457 0.941 . S
C475 C474 1.391 . S
C475 C476 1.396 . S
C476 H460 0.939 . S
C476 C475 1.396 . S
C476 C477 1.397 . S
C477 C476 1.397 . S
C477 C478 1.385 . S
C478 H461 0.940 . S
C478 C477 1.385 . S
C478 C479 1.388 . S
C479 H458 0.939 . S
C479 C474 1.391 . S
C479 C478 1.388 . S
P480 O491 1.490 . S
P480 C494 1.812 . S
P480 C500 1.803 . S
P480 C506 1.819 . S
H481 C495 0.941 . S
H482 C496 0.939 . S
H483 C498 0.940 . S
H484 C499 0.940 . S
H485 C501 0.939 . S
H486 C502 0.942 . S
H487 C504 0.940 . S
H488 C505 0.939 . S
H489 C507 0.941 . S
H490 C511 0.939 . S
O491 P480 1.490 . S
H492 C508 0.939 . S
H493 C510 0.940 . S
C494 P480 1.812 . S
C494 C495 1.389 . S
C494 C499 1.391 . S
C495 H481 0.941 . S
C495 C494 1.389 . S
C495 C496 1.397 . S
C496 H482 0.939 . S
C496 C495 1.397 . S
C496 C497 1.378 . S
C497 C496 1.378 . S
C497 C498 1.378 . S
C498 H483 0.940 . S
C498 C497 1.378 . S
C498 C499 1.396 . S
C499 H484 0.940 . S
C499 C494 1.391 . S
C499 C498 1.396 . S
C500 P480 1.803 . S
C500 C501 1.378 . S
C500 C505 1.400 . S
C501 H485 0.939 . S
C501 C500 1.378 . S
C501 C502 1.361 . S
C502 H486 0.942 . S
C502 C501 1.361 . S
C502 C503 1.369 . S
C503 C502 1.369 . S
C503 C504 1.404 . S
C504 H487 0.940 . S
C504 C503 1.404 . S
C504 C505 1.389 . S
C505 H488 0.939 . S
C505 C500 1.400 . S
C505 C504 1.389 . S
C506 P480 1.819 . S
C506 C507 1.391 . S
C506 C511 1.391 . S
C507 H489 0.941 . S
C507 C506 1.391 . S
C507 C508 1.396 . S
C508 H492 0.939 . S
C508 C507 1.396 . S
C508 C509 1.397 . S
C509 C508 1.397 . S
C509 C510 1.385 . S
C510 H493 0.940 . S
C510 C509 1.385 . S
C510 C511 1.388 . S
C511 H490 0.939 . S
C511 C506 1.391 . S
C511 C510 1.388 . S
P512 O523 1.490 . S
P512 C526 1.812 . S
P512 C532 1.803 . S
P512 C538 1.819 . S
H513 C527 0.941 . S
H514 C528 0.939 . S
H515 C530 0.940 . S
H516 C531 0.940 . S
H517 C533 0.939 . S
H518 C534 0.942 . S
H519 C536 0.940 . S
H520 C537 0.939 . S
H521 C539 0.941 . S
H522 C543 0.939 . S
O523 P512 1.490 . S
H524 C540 0.939 . S
H525 C542 0.940 . S
C526 P512 1.812 . S
C526 C527 1.389 . S
C526 C531 1.391 . S
C527 H513 0.941 . S
C527 C526 1.389 . S
C527 C528 1.397 . S
C528 H514 0.939 . S
C528 C527 1.397 . S
C528 C529 1.378 . S
C529 C528 1.378 . S
C529 C530 1.378 . S
C530 H515 0.940 . S
C530 C529 1.378 . S
C530 C531 1.396 . S
C531 H516 0.940 . S
C531 C526 1.391 . S
C531 C530 1.396 . S
C532 P512 1.803 . S
C532 C533 1.378 . S
C532 C537 1.400 . S
C533 H517 0.939 . S
C533 C532 1.378 . S
C533 C534 1.361 . S
C534 H518 0.942 . S
C534 C533 1.361 . S
C534 C535 1.369 . S
C535 C534 1.369 . S
C535 C536 1.404 . S
C536 H519 0.940 . S
C536 C535 1.404 . S
C536 C537 1.389 . S
C537 H520 0.939 . S
C537 C532 1.400 . S
C537 C536 1.389 . S
C538 P512 1.819 . S
C538 C539 1.391 . S
C538 C543 1.391 . S
C539 H521 0.941 . S
C539 C538 1.391 . S
C539 C540 1.396 . S
C540 H524 0.939 . S
C540 C539 1.396 . S
C540 C541 1.397 . S
C541 C540 1.397 . S
C541 C542 1.385 . S
C542 H525 0.940 . S
C542 C541 1.385 . S
C542 C543 1.388 . S
C543 H522 0.939 . S
C543 C538 1.391 . S
C543 C542 1.388 . S
P544 O555 1.490 . S
P544 C558 1.812 . S
P544 C564 1.803 . S
P544 C570 1.819 . S
H545 C559 0.941 . S
H546 C560 0.939 . S
H547 C562 0.940 . S
H548 C563 0.940 . S
H549 C565 0.939 . S
H550 C566 0.942 . S
H551 C568 0.940 . S
H552 C569 0.939 . S
H553 C571 0.941 . S
H554 C575 0.939 . S
O555 P544 1.490 . S
H556 C572 0.939 . S
H557 C574 0.940 . S
C558 P544 1.812 . S
C558 C559 1.389 . S
C558 C563 1.391 . S
C559 H545 0.941 . S
C559 C558 1.389 . S
C559 C560 1.397 . S
C560 H546 0.939 . S
C560 C559 1.397 . S
C560 C561 1.378 . S
C561 C560 1.378 . S
C561 C562 1.378 . S
C562 H547 0.940 . S
C562 C561 1.378 . S
C562 C563 1.396 . S
C563 H548 0.940 . S
C563 C558 1.391 . S
C563 C562 1.396 . S
C564 P544 1.803 . S
C564 C565 1.378 . S
C564 C569 1.400 . S
C565 H549 0.939 . S
C565 C564 1.378 . S
C565 C566 1.361 . S
C566 H550 0.942 . S
C566 C565 1.361 . S
C566 C567 1.369 . S
C567 C566 1.369 . S
C567 C568 1.404 . S
C568 H551 0.940 . S
C568 C567 1.404 . S
C568 C569 1.389 . S
C569 H552 0.939 . S
C569 C564 1.400 . S
C569 C568 1.389 . S
C570 P544 1.819 . S
C570 C571 1.391 . S
C570 C575 1.391 . S
C571 H553 0.941 . S
C571 C570 1.391 . S
C571 C572 1.396 . S
C572 H556 0.939 . S
C572 C571 1.396 . S
C572 C573 1.397 . S
C573 C572 1.397 . S
C573 C574 1.385 . S
C574 H557 0.940 . S
C574 C573 1.385 . S
C574 C575 1.388 . S
C575 H554 0.939 . S
C575 C570 1.391 . S
C575 C574 1.388 . S
P576 O587 1.490 . S
P576 C590 1.812 . S
P576 C596 1.803 . S
P576 C602 1.819 . S
H577 C591 0.941 . S
H578 C592 0.939 . S
H579 C594 0.940 . S
H580 C595 0.940 . S
H581 C597 0.939 . S
H582 C598 0.942 . S
H583 C600 0.940 . S
H584 C601 0.939 . S
H585 C603 0.941 . S
H586 C607 0.939 . S
O587 P576 1.490 . S
H588 C604 0.939 . S
H589 C606 0.940 . S
C590 P576 1.812 . S
C590 C591 1.389 . S
C590 C595 1.391 . S
C591 H577 0.941 . S
C591 C590 1.389 . S
C591 C592 1.397 . S
C592 H578 0.939 . S
C592 C591 1.397 . S
C592 C593 1.378 . S
C593 C592 1.378 . S
C593 C594 1.378 . S
C594 H579 0.940 . S
C594 C593 1.378 . S
C594 C595 1.396 . S
C595 H580 0.940 . S
C595 C590 1.391 . S
C595 C594 1.396 . S
C596 P576 1.803 . S
C596 C597 1.378 . S
C596 C601 1.400 . S
C597 H581 0.939 . S
C597 C596 1.378 . S
C597 C598 1.361 . S
C598 H582 0.942 . S
C598 C597 1.361 . S
C598 C599 1.369 . S
C599 C598 1.369 . S
C599 C600 1.404 . S
C600 H583 0.940 . S
C600 C599 1.404 . S
C600 C601 1.389 . S
C601 H584 0.939 . S
C601 C596 1.400 . S
C601 C600 1.389 . S
C602 P576 1.819 . S
C602 C603 1.391 . S
C602 C607 1.391 . S
C603 H585 0.941 . S
C603 C602 1.391 . S
C603 C604 1.396 . S
C604 H588 0.939 . S
C604 C603 1.396 . S
C604 C605 1.397 . S
C605 C604 1.397 . S
C605 C606 1.385 . S
C606 H589 0.940 . S
C606 C605 1.385 . S
C606 C607 1.388 . S
C607 H586 0.939 . S
C607 C602 1.391 . S
C607 C606 1.388 . S
P608 O619 1.490 . S
P608 C622 1.812 . S
P608 C628 1.803 . S
P608 C634 1.819 . S
H609 C623 0.941 . S
H610 C624 0.939 . S
H611 C626 0.940 . S
H612 C627 0.940 . S
H613 C629 0.939 . S
H614 C630 0.942 . S
H615 C632 0.940 . S
H616 C633 0.939 . S
H617 C635 0.941 . S
H618 C639 0.939 . S
O619 P608 1.490 . S
H620 C636 0.939 . S
H621 C638 0.940 . S
C622 P608 1.812 . S
C622 C623 1.389 . S
C622 C627 1.391 . S
C623 H609 0.941 . S
C623 C622 1.389 . S
C623 C624 1.397 . S
C624 H610 0.939 . S
C624 C623 1.397 . S
C624 C625 1.378 . S
C625 C624 1.378 . S
C625 C626 1.378 . S
C626 H611 0.940 . S
C626 C625 1.378 . S
C626 C627 1.396 . S
C627 H612 0.940 . S
C627 C622 1.391 . S
C627 C626 1.396 . S
C628 P608 1.803 . S
C628 C629 1.378 . S
C628 C633 1.400 . S
C629 H613 0.939 . S
C629 C628 1.378 . S
C629 C630 1.361 . S
C630 H614 0.942 . S
C630 C629 1.361 . S
C630 C631 1.369 . S
C631 C630 1.369 . S
C631 C632 1.404 . S
C632 H615 0.940 . S
C632 C631 1.404 . S
C632 C633 1.389 . S
C633 H616 0.939 . S
C633 C628 1.400 . S
C633 C632 1.389 . S
C634 P608 1.819 . S
C634 C635 1.391 . S
C634 C639 1.391 . S
C635 H617 0.941 . S
C635 C634 1.391 . S
C635 C636 1.396 . S
C636 H620 0.939 . S
C636 C635 1.396 . S
C636 C637 1.397 . S
C637 C636 1.397 . S
C637 C638 1.385 . S
C638 H621 0.940 . S
C638 C637 1.385 . S
C638 C639 1.388 . S
C639 H618 0.939 . S
C639 C634 1.391 . S
C639 C638 1.388 . S
P640 O651 1.490 . S
P640 C654 1.812 . S
P640 C660 1.803 . S
P640 C666 1.819 . S
H641 C655 0.941 . S
H642 C656 0.939 . S
H643 C658 0.940 . S
H644 C659 0.940 . S
H645 C661 0.939 . S
H646 C662 0.942 . S
H647 C664 0.940 . S
H648 C665 0.939 . S
H649 C667 0.941 . S
H650 C671 0.939 . S
O651 P640 1.490 . S
H652 C668 0.939 . S
H653 C670 0.940 . S
C654 P640 1.812 . S
C654 C655 1.389 . S
C654 C659 1.391 . S
C655 H641 0.941 . S
C655 C654 1.389 . S
C655 C656 1.397 . S
C656 H642 0.939 . S
C656 C655 1.397 . S
C656 C657 1.378 . S
C657 C656 1.378 . S
C657 C658 1.378 . S
C658 H643 0.940 . S
C658 C657 1.378 . S
C658 C659 1.396 . S
C659 H644 0.940 . S
C659 C654 1.391 . S
C659 C658 1.396 . S
C660 P640 1.803 . S
C660 C661 1.378 . S
C660 C665 1.400 . S
C661 H645 0.939 . S
C661 C660 1.378 . S
C661 C662 1.361 . S
C662 H646 0.942 . S
C662 C661 1.361 . S
C662 C663 1.369 . S
C663 C662 1.369 . S
C663 C664 1.404 . S
C664 H647 0.940 . S
C664 C663 1.404 . S
C664 C665 1.389 . S
C665 H648 0.939 . S
C665 C660 1.400 . S
C665 C664 1.389 . S
C666 P640 1.819 . S
C666 C667 1.391 . S
C666 C671 1.391 . S
C667 H649 0.941 . S
C667 C666 1.391 . S
C667 C668 1.396 . S
C668 H652 0.939 . S
C668 C667 1.396 . S
C668 C669 1.397 . S
C669 C668 1.397 . S
C669 C670 1.385 . S
C670 H653 0.940 . S
C670 C669 1.385 . S
C670 C671 1.388 . S
C671 H650 0.939 . S
C671 C666 1.391 . S
C671 C670 1.388 . S
P672 O683 1.490 . S
P672 C686 1.812 . S
P672 C692 1.803 . S
P672 C698 1.819 . S
H673 C687 0.941 . S
H674 C688 0.939 . S
H675 C690 0.940 . S
H676 C691 0.940 . S
H677 C693 0.939 . S
H678 C694 0.942 . S
H679 C696 0.940 . S
H680 C697 0.939 . S
H681 C699 0.941 . S
H682 C703 0.939 . S
O683 P672 1.490 . S
H684 C700 0.939 . S
H685 C702 0.940 . S
C686 P672 1.812 . S
C686 C687 1.389 . S
C686 C691 1.391 . S
C687 H673 0.941 . S
C687 C686 1.389 . S
C687 C688 1.397 . S
C688 H674 0.939 . S
C688 C687 1.397 . S
C688 C689 1.378 . S
C689 C688 1.378 . S
C689 C690 1.378 . S
C690 H675 0.940 . S
C690 C689 1.378 . S
C690 C691 1.396 . S
C691 H676 0.940 . S
C691 C686 1.391 . S
C691 C690 1.396 . S
C692 P672 1.803 . S
C692 C693 1.378 . S
C692 C697 1.400 . S
C693 H677 0.939 . S
C693 C692 1.378 . S
C693 C694 1.361 . S
C694 H678 0.942 . S
C694 C693 1.361 . S
C694 C695 1.369 . S
C695 C694 1.369 . S
C695 C696 1.404 . S
C696 H679 0.940 . S
C696 C695 1.404 . S
C696 C697 1.389 . S
C697 H680 0.939 . S
C697 C692 1.400 . S
C697 C696 1.389 . S
C698 P672 1.819 . S
C698 C699 1.391 . S
C698 C703 1.391 . S
C699 H681 0.941 . S
C699 C698 1.391 . S
C699 C700 1.396 . S
C700 H684 0.939 . S
C700 C699 1.396 . S
C700 C701 1.397 . S
C701 C700 1.397 . S
C701 C702 1.385 . S
C702 H685 0.940 . S
C702 C701 1.385 . S
C702 C703 1.388 . S
C703 H682 0.939 . S
C703 C698 1.391 . S
C703 C702 1.388 . S
P704 O715 1.490 . S
P704 C718 1.812 . S
P704 C724 1.803 . S
P704 C730 1.819 . S
H705 C719 0.941 . S
H706 C720 0.939 . S
H707 C722 0.940 . S
H708 C723 0.940 . S
H709 C725 0.939 . S
H710 C726 0.942 . S
H711 C728 0.940 . S
H712 C729 0.939 . S
H713 C731 0.941 . S
H714 C735 0.939 . S
O715 P704 1.490 . S
H716 C732 0.939 . S
H717 C734 0.940 . S
C718 P704 1.812 . S
C718 C719 1.389 . S
C718 C723 1.391 . S
C719 H705 0.941 . S
C719 C718 1.389 . S
C719 C720 1.397 . S
C720 H706 0.939 . S
C720 C719 1.397 . S
C720 C721 1.378 . S
C721 C720 1.378 . S
C721 C722 1.378 . S
C722 H707 0.940 . S
C722 C721 1.378 . S
C722 C723 1.396 . S
C723 H708 0.940 . S
C723 C718 1.391 . S
C723 C722 1.396 . S
C724 P704 1.803 . S
C724 C725 1.378 . S
C724 C729 1.400 . S
C725 H709 0.939 . S
C725 C724 1.378 . S
C725 C726 1.361 . S
C726 H710 0.942 . S
C726 C725 1.361 . S
C726 C727 1.369 . S
C727 C726 1.369 . S
C727 C728 1.404 . S
C728 H711 0.940 . S
C728 C727 1.404 . S
C728 C729 1.389 . S
C729 H712 0.939 . S
C729 C724 1.400 . S
C729 C728 1.389 . S
C730 P704 1.819 . S
C730 C731 1.391 . S
C730 C735 1.391 . S
C731 H713 0.941 . S
C731 C730 1.391 . S
C731 C732 1.396 . S
C732 H716 0.939 . S
C732 C731 1.396 . S
C732 C733 1.397 . S
C733 C732 1.397 . S
C733 C734 1.385 . S
C734 H717 0.940 . S
C734 C733 1.385 . S
C734 C735 1.388 . S
C735 H714 0.939 . S
C735 C730 1.391 . S
C735 C734 1.388 . S
P736 O747 1.490 . S
P736 C750 1.812 . S
P736 C756 1.803 . S
P736 C762 1.819 . S
H737 C751 0.941 . S
H738 C752 0.939 . S
H739 C754 0.940 . S
H740 C755 0.940 . S
H741 C757 0.939 . S
H742 C758 0.942 . S
H743 C760 0.940 . S
H744 C761 0.939 . S
H745 C763 0.941 . S
H746 C767 0.939 . S
O747 P736 1.490 . S
H748 C764 0.939 . S
H749 C766 0.940 . S
C750 P736 1.812 . S
C750 C751 1.389 . S
C750 C755 1.391 . S
C751 H737 0.941 . S
C751 C750 1.389 . S
C751 C752 1.397 . S
C752 H738 0.939 . S
C752 C751 1.397 . S
C752 C753 1.378 . S
C753 C752 1.378 . S
C753 C754 1.378 . S
C754 H739 0.940 . S
C754 C753 1.378 . S
C754 C755 1.396 . S
C755 H740 0.940 . S
C755 C750 1.391 . S
C755 C754 1.396 . S
C756 P736 1.803 . S
C756 C757 1.378 . S
C756 C761 1.400 . S
C757 H741 0.939 . S
C757 C756 1.378 . S
C757 C758 1.361 . S
C758 H742 0.942 . S
C758 C757 1.361 . S
C758 C759 1.369 . S
C759 C758 1.369 . S
C759 C760 1.404 . S
C760 H743 0.940 . S
C760 C759 1.404 . S
C760 C761 1.389 . S
C761 H744 0.939 . S
C761 C756 1.400 . S
C761 C760 1.389 . S
C762 P736 1.819 . S
C762 C763 1.391 . S
C762 C767 1.391 . S
C763 H745 0.941 . S
C763 C762 1.391 . S
C763 C764 1.396 . S
C764 H748 0.939 . S
C764 C763 1.396 . S
C764 C765 1.397 . S
C765 C764 1.397 . S
C765 C766 1.385 . S
C766 H749 0.940 . S
C766 C765 1.385 . S
C766 C767 1.388 . S
C767 H746 0.939 . S
C767 C762 1.391 . S
C767 C766 1.388 . S
C768 O794 1.283 . S
C768 O812 1.283 . S
C769 O795 1.283 . S
C769 O810 1.283 . S
C770 O796 1.283 . S
C770 O813 1.283 . S
C771 O797 1.283 . S
C771 O811 1.283 . S
C772 O798 1.283 . S
C772 O807 1.283 . S
C773 O799 1.283 . S
C773 O809 1.283 . S
C774 O800 1.283 . S
C774 O806 1.283 . S
C775 O801 1.283 . S
C775 O808 1.283 . S
C776 O802 1.283 . S
C776 O817 1.283 . S
C777 O803 1.283 . S
C777 O815 1.283 . S
C778 O804 1.283 . S
C778 O816 1.283 . S
C779 O805 1.283 . S
C779 O814 1.283 . S
Eu780 O781 2.370 1_455 S
Eu780 O782 2.370 . S
Eu780 O785 2.370 1_455 S
Eu780 O786 2.370 . S
Eu780 O794 2.363 . S
Eu780 O795 2.363 . S
Eu780 O808 2.363 . S
Eu780 O809 2.363 1_455 S
O781 Eu780 2.370 1_655 S
O781 Eu783 2.370 1_565 S
O781 Eu788 2.370 1_665 S
O782 Eu780 2.370 . S
O782 Eu784 2.370 1_565 S
O782 Eu787 2.370 1_565 S
Eu783 O781 2.370 1_545 S
Eu783 O785 2.370 1_545 S
Eu783 O789 2.370 . S
Eu783 O790 2.370 . S
Eu783 O798 2.363 . S
Eu783 O799 2.363 1_545 S
Eu783 O814 2.363 . S
Eu783 O815 2.363 . S
Eu784 O782 2.370 1_545 S
Eu784 O786 2.370 1_545 S
Eu784 O791 2.370 . S
Eu784 O792 2.370 . S
Eu784 O800 2.363 . S
Eu784 O801 2.363 1_545 S
Eu784 O816 2.363 . S
Eu784 O817 2.363 . S
O785 Eu780 2.370 1_655 S
O785 Eu783 2.370 1_565 S
O785 Eu787 2.370 1_665 S
O786 Eu780 2.370 . S
O786 Eu784 2.370 1_565 S
O786 Eu788 2.370 1_565 S
Eu787 O782 2.370 1_545 S
Eu787 O785 2.370 1_445 S
Eu787 O789 2.370 1_455 S
Eu787 O792 2.370 . S
Eu787 O804 2.363 . S
Eu787 O805 2.363 1_455 S
Eu787 O812 2.363 1_545 S
Eu787 O813 2.363 . S
Eu788 O781 2.370 1_445 S
Eu788 O786 2.370 1_545 S
Eu788 O790 2.370 1_455 S
Eu788 O791 2.370 . S
Eu788 O802 2.363 . S
Eu788 O803 2.363 1_455 S
Eu788 O810 2.363 1_545 S
Eu788 O811 2.363 . S
O789 Eu783 2.370 . S
O789 Eu787 2.370 1_655 S
O789 Eu793 2.370 1_655 S
O790 Eu783 2.370 . S
O790 Eu788 2.370 1_655 S
O790 Eu793 2.370 1_655 S
O791 Eu784 2.370 . S
O791 Eu788 2.370 . S
O791 Eu793 2.370 . S
O792 Eu784 2.370 . S
O792 Eu787 2.370 . S
O792 Eu793 2.370 . S
Eu793 O789 2.370 1_455 S
Eu793 O790 2.370 1_455 S
Eu793 O791 2.370 . S
Eu793 O792 2.370 . S
Eu793 O796 2.363 . S
Eu793 O797 2.363 . S
Eu793 O806 2.363 . S
Eu793 O807 2.363 1_455 S
O794 C768 1.283 . S
O794 Eu780 2.363 . S
O795 C769 1.283 . S
O795 Eu780 2.363 . S
O796 C770 1.283 . S
O796 Eu793 2.363 . S
O797 C771 1.283 . S
O797 Eu793 2.363 . S
O798 C772 1.283 . S
O798 Eu783 2.363 . S
O799 C773 1.283 . S
O799 Eu783 2.363 1_565 S
O800 C774 1.283 . S
O800 Eu784 2.363 . S
O801 C775 1.283 . S
O801 Eu784 2.363 1_565 S
O802 C776 1.283 . S
O802 Eu788 2.363 . S
O803 C777 1.283 . S
O803 Eu788 2.363 1_655 S
O804 C778 1.283 . S
O804 Eu787 2.363 . S
O805 C779 1.283 . S
O805 Eu787 2.363 1_655 S
O806 C774 1.283 . S
O806 Eu793 2.363 . S
O807 C772 1.283 . S
O807 Eu793 2.363 1_655 S
O808 C775 1.283 . S
O808 Eu780 2.363 . S
O809 C773 1.283 . S
O809 Eu780 2.363 1_655 S
O810 C769 1.283 . S
O810 Eu788 2.363 1_565 S
O811 C771 1.283 . S
O811 Eu788 2.363 . S
O812 C768 1.283 . S
O812 Eu787 2.363 1_565 S
O813 C770 1.283 . S
O813 Eu787 2.363 . S
O814 C779 1.283 . S
O814 Eu783 2.363 . S
O815 C777 1.283 . S
O815 Eu783 2.363 . S
O816 C778 1.283 . S
O816 Eu784 2.363 . S
O817 C776 1.283 . S
O817 Eu784 2.363 . S
C818 O844 1.283 . S
C818 O862 1.283 . S
C819 O845 1.283 . S
C819 O860 1.283 . S
C820 O846 1.283 . S
C820 O863 1.283 . S
C821 O847 1.283 . S
C821 O861 1.283 . S
C822 O848 1.283 . S
C822 O857 1.283 . S
C823 O849 1.283 . S
C823 O859 1.283 . S
C824 O850 1.283 . S
C824 O856 1.283 . S
C825 O851 1.283 . S
C825 O858 1.283 . S
C826 O852 1.283 . S
C826 O867 1.283 . S
C827 O853 1.283 . S
C827 O865 1.283 . S
C828 O854 1.283 . S
C828 O866 1.283 . S
C829 O855 1.283 . S
C829 O864 1.283 . S
Eu830 O831 2.370 . S
Eu830 O832 2.370 1_545 S
Eu830 O835 2.370 1_545 S
Eu830 O836 2.370 . S
Eu830 O844 2.363 1_545 S
Eu830 O845 2.363 . S
Eu830 O858 2.363 . S
Eu830 O859 2.363 . S
O831 Eu830 2.370 . S
O831 Eu833 2.370 . S
O831 Eu838 2.370 . S
O832 Eu830 2.370 1_565 S
O832 Eu834 2.370 1_565 S
O832 Eu837 2.370 . S
Eu833 O831 2.370 . S
Eu833 O835 2.370 1_545 S
Eu833 O839 2.370 1_544 S
Eu833 O840 2.370 1_554 S
Eu833 O848 2.362 1_554 S
Eu833 O849 2.363 . S
Eu833 O864 2.363 1_545 S
Eu833 O865 2.363 . S
Eu834 O832 2.370 1_545 S
Eu834 O836 2.370 . S
Eu834 O841 2.370 1_554 S
Eu834 O842 2.370 1_544 S
Eu834 O850 2.363 1_554 S
Eu834 O851 2.362 . S
Eu834 O866 2.363 1_545 S
Eu834 O867 2.363 . S
O835 Eu830 2.370 1_565 S
O835 Eu833 2.370 1_565 S
O835 Eu837 2.370 . S
O836 Eu830 2.370 . S
O836 Eu834 2.370 . S
O836 Eu838 2.370 . S
Eu837 O832 2.370 . S
Eu837 O835 2.370 . S
Eu837 O839 2.370 1_554 S
Eu837 O842 2.370 1_554 S
Eu837 O854 2.363 . S
Eu837 O855 2.363 . S
Eu837 O862 2.363 . S
Eu837 O863 2.363 1_554 S
Eu838 O831 2.370 . S
Eu838 O836 2.370 . S
Eu838 O840 2.370 1_554 S
Eu838 O841 2.370 1_554 S
Eu838 O852 2.363 . S
Eu838 O853 2.363 . S
Eu838 O860 2.363 . S
Eu838 O861 2.363 1_554 S
O839 Eu833 2.370 1_566 S
O839 Eu837 2.370 1_556 S
O839 Eu843 2.370 1_565 S
O840 Eu833 2.370 1_556 S
O840 Eu838 2.370 1_556 S
O840 Eu843 2.370 . S
O841 Eu834 2.370 1_556 S
O841 Eu838 2.370 1_556 S
O841 Eu843 2.370 . S
O842 Eu834 2.370 1_566 S
O842 Eu837 2.370 1_556 S
O842 Eu843 2.370 1_565 S
Eu843 O839 2.370 1_545 S
Eu843 O840 2.370 . S
Eu843 O841 2.370 . S
Eu843 O842 2.370 1_545 S
Eu843 O846 2.363 1_545 S
Eu843 O847 2.363 . S
Eu843 O856 2.363 . S
Eu843 O857 2.363 . S
O844 C818 1.283 . S
O844 Eu830 2.363 1_565 S
O845 C819 1.283 . S
O845 Eu830 2.363 . S
O846 C820 1.283 . S
O846 Eu843 2.363 1_565 S
O847 C821 1.283 . S
O847 Eu843 2.363 . S
O848 C822 1.283 . S
O848 Eu833 2.362 1_556 S
O849 C823 1.283 . S
O849 Eu833 2.363 . S
O850 C824 1.283 . S
O850 Eu834 2.363 1_556 S
O851 C825 1.283 . S
O851 Eu834 2.362 . S
O852 C826 1.283 . S
O852 Eu838 2.363 . S
O853 C827 1.283 . S
O853 Eu838 2.363 . S
O854 C828 1.283 . S
O854 Eu837 2.363 . S
O855 C829 1.283 . S
O855 Eu837 2.363 . S
O856 C824 1.283 . S
O856 Eu843 2.363 . S
O857 C822 1.283 . S
O857 Eu843 2.363 . S
O858 C825 1.283 . S
O858 Eu830 2.363 . S
O859 C823 1.283 . S
O859 Eu830 2.363 . S
O860 C819 1.283 . S
O860 Eu838 2.363 . S
O861 C821 1.283 . S
O861 Eu838 2.363 1_556 S
O862 C818 1.283 . S
O862 Eu837 2.363 . S
O863 C820 1.283 . S
O863 Eu837 2.363 1_556 S
O864 C829 1.283 . S
O864 Eu833 2.363 1_565 S
O865 C827 1.283 . S
O865 Eu833 2.363 . S
O866 C828 1.283 . S
O866 Eu834 2.363 1_565 S
O867 C826 1.283 . S
O867 Eu834 2.363 . S
C868 O894 1.283 . S
C868 O912 1.283 . S
C869 O895 1.283 . S
C869 O910 1.283 . S
C870 O896 1.283 . S
C870 O913 1.283 . S
C871 O897 1.283 . S
C871 O911 1.283 . S
C872 O898 1.283 . S
C872 O907 1.283 . S
C873 O899 1.283 . S
C873 O909 1.283 . S
C874 O900 1.283 . S
C874 O906 1.283 . S
C875 O901 1.283 . S
C875 O908 1.283 . S
C876 O902 1.283 . S
C876 O917 1.283 . S
C877 O903 1.283 . S
C877 O915 1.283 . S
C878 O904 1.283 . S
C878 O916 1.283 . S
C879 O905 1.283 . S
C879 O914 1.283 . S
Eu880 O881 2.365 1_454 S
Eu880 O882 2.376 . S
Eu880 O885 2.376 1_455 S
Eu880 O886 2.365 1_554 S
Eu880 O894 2.372 . S
Eu880 O895 2.354 1_554 S
Eu880 O908 2.363 . S
Eu880 O909 2.363 1_455 S
O881 Eu880 2.365 1_656 S
O881 Eu883 2.365 1_556 S
O881 Eu888 2.370 1_655 S
O882 Eu880 2.376 . S
O882 Eu884 2.376 . S
O882 Eu887 2.370 . S
Eu883 O881 2.365 1_554 S
Eu883 O885 2.376 . S
Eu883 O889 2.376 . S
Eu883 O890 2.365 1_554 S
Eu883 O898 2.363 . S
Eu883 O899 2.363 . S
Eu883 O914 2.372 . S
Eu883 O915 2.354 1_554 S
Eu884 O882 2.376 . S
Eu884 O886 2.365 1_554 S
Eu884 O891 2.365 1_554 S
Eu884 O892 2.376 . S
Eu884 O900 2.363 . S
Eu884 O901 2.363 . S
Eu884 O916 2.372 . S
Eu884 O917 2.353 1_554 S
O885 Eu880 2.376 1_655 S
O885 Eu883 2.376 . S
O885 Eu887 2.370 1_655 S
O886 Eu880 2.365 1_556 S
O886 Eu884 2.365 1_556 S
O886 Eu888 2.370 . S
Eu887 O882 2.370 . S
Eu887 O885 2.370 1_455 S
Eu887 O889 2.370 1_455 S
Eu887 O892 2.370 . S
Eu887 O904 2.363 . S
Eu887 O905 2.363 1_455 S
Eu887 O912 2.363 . S
Eu887 O913 2.363 . S
Eu888 O881 2.370 1_455 S
Eu888 O886 2.370 . S
Eu888 O890 2.370 1_455 S
Eu888 O891 2.370 . S
Eu888 O902 2.363 . S
Eu888 O903 2.363 1_455 S
Eu888 O910 2.363 . S
Eu888 O911 2.363 . S
O889 Eu883 2.376 . S
O889 Eu887 2.370 1_655 S
O889 Eu893 2.376 1_655 S
O890 Eu883 2.365 1_556 S
O890 Eu888 2.370 1_655 S
O890 Eu893 2.365 1_656 S
O891 Eu884 2.365 1_556 S
O891 Eu888 2.370 . S
O891 Eu893 2.365 1_556 S
O892 Eu884 2.376 . S
O892 Eu887 2.370 . S
O892 Eu893 2.376 . S
Eu893 O889 2.376 1_455 S
Eu893 O890 2.365 1_454 S
Eu893 O891 2.365 1_554 S
Eu893 O892 2.376 . S
Eu893 O896 2.372 . S
Eu893 O897 2.354 1_554 S
Eu893 O906 2.363 . S
Eu893 O907 2.363 1_455 S
O894 C868 1.283 . S
O894 Eu880 2.372 . S
O895 C869 1.283 . S
O895 Eu880 2.354 1_556 S
O896 C870 1.283 . S
O896 Eu893 2.372 . S
O897 C871 1.283 . S
O897 Eu893 2.354 1_556 S
O898 C872 1.283 . S
O898 Eu883 2.363 . S
O899 C873 1.283 . S
O899 Eu883 2.363 . S
O900 C874 1.283 . S
O900 Eu884 2.363 . S
O901 C875 1.283 . S
O901 Eu884 2.363 . S
O902 C876 1.283 . S
O902 Eu888 2.363 . S
O903 C877 1.283 . S
O903 Eu888 2.363 1_655 S
O904 C878 1.283 . S
O904 Eu887 2.363 . S
O905 C879 1.283 . S
O905 Eu887 2.363 1_655 S
O906 C874 1.283 . S
O906 Eu893 2.363 . S
O907 C872 1.283 . S
O907 Eu893 2.363 1_655 S
O908 C875 1.283 . S
O908 Eu880 2.363 . S
O909 C873 1.283 . S
O909 Eu880 2.363 1_655 S
O910 C869 1.283 . S
O910 Eu888 2.363 . S
O911 C871 1.283 . S
O911 Eu888 2.363 . S
O912 C868 1.283 . S
O912 Eu887 2.363 . S
O913 C870 1.283 . S
O913 Eu887 2.363 . S
O914 C879 1.283 . S
O914 Eu883 2.372 . S
O915 C877 1.283 . S
O915 Eu883 2.354 1_556 S
O916 C878 1.283 . S
O916 Eu884 2.372 . S
O917 C876 1.283 . S
O917 Eu884 2.353 1_556 S
C918 O944 1.283 . S
C918 O962 1.283 . S
C919 O945 1.283 . S
C919 O960 1.283 . S
C920 O946 1.283 . S
C920 O963 1.283 . S
C921 O947 1.283 . S
C921 O961 1.283 . S
C922 O948 1.283 . S
C922 O957 1.283 . S
C923 O949 1.283 . S
C923 O959 1.283 . S
C924 O950 1.283 . S
C924 O956 1.283 . S
C925 O951 1.283 . S
C925 O958 1.283 . S
C926 O952 1.283 . S
C926 O967 1.283 . S
C927 O953 1.283 . S
C927 O965 1.283 . S
C928 O954 1.283 . S
C928 O966 1.283 . S
C929 O955 1.283 . S
C929 O964 1.283 . S
Eu930 O931 2.370 . S
Eu930 O932 2.370 . S
Eu930 O935 2.370 . S
Eu930 O936 2.370 . S
Eu930 O944 2.363 . S
Eu930 O945 2.363 . S
Eu930 O958 2.363 . S
Eu930 O959 2.363 . S
O931 Eu930 2.370 . S
O931 Eu933 2.378 . S
O931 Eu938 2.377 . S
O932 Eu930 2.370 . S
O932 Eu934 2.377 . S
O932 Eu937 2.377 . S
Eu933 O931 2.378 . S
Eu933 O935 2.378 . S
Eu933 O939 2.363 1_554 S
Eu933 O940 2.363 1_554 S
Eu933 O948 2.350 1_554 S
Eu933 O949 2.376 . S
Eu933 O964 2.363 . S
Eu933 O965 2.363 . S
Eu934 O932 2.377 . S
Eu934 O936 2.377 . S
Eu934 O941 2.363 1_554 S
Eu934 O942 2.363 1_554 S
Eu934 O950 2.351 1_554 S
Eu934 O951 2.375 . S
Eu934 O966 2.363 . S
Eu934 O967 2.363 . S
O935 Eu930 2.370 . S
O935 Eu933 2.378 . S
O935 Eu937 2.377 . S
O936 Eu930 2.370 . S
O936 Eu934 2.377 . S
O936 Eu938 2.377 . S
Eu937 O932 2.377 . S
Eu937 O935 2.377 . S
Eu937 O939 2.363 1_554 S
Eu937 O942 2.363 1_554 S
Eu937 O954 2.363 . S
Eu937 O955 2.363 . S
Eu937 O962 2.375 . S
Eu937 O963 2.351 1_554 S
Eu938 O931 2.377 . S
Eu938 O936 2.377 . S
Eu938 O940 2.363 1_554 S
Eu938 O941 2.363 1_554 S
Eu938 O952 2.363 . S
Eu938 O953 2.363 . S
Eu938 O960 2.375 . S
Eu938 O961 2.351 1_554 S
O939 Eu933 2.363 1_556 S
O939 Eu937 2.363 1_556 S
O939 Eu943 2.370 . S
O940 Eu933 2.363 1_556 S
O940 Eu938 2.363 1_556 S
O940 Eu943 2.370 . S
O941 Eu934 2.363 1_556 S
O941 Eu938 2.363 1_556 S
O941 Eu943 2.370 . S
O942 Eu934 2.363 1_556 S
O942 Eu937 2.363 1_556 S
O942 Eu943 2.370 . S
Eu943 O939 2.370 . S
Eu943 O940 2.370 . S
Eu943 O941 2.370 . S
Eu943 O942 2.370 . S
Eu943 O946 2.363 . S
Eu943 O947 2.363 . S
Eu943 O956 2.363 . S
Eu943 O957 2.363 . S
O944 C918 1.283 . S
O944 Eu930 2.363 . S
O945 C919 1.283 . S
O945 Eu930 2.363 . S
O946 C920 1.283 . S
O946 Eu943 2.363 . S
O947 C921 1.283 . S
O947 Eu943 2.363 . S
O948 C922 1.283 . S
O948 Eu933 2.350 1_556 S
O949 C923 1.283 . S
O949 Eu933 2.376 . S
O950 C924 1.283 . S
O950 Eu934 2.351 1_556 S
O951 C925 1.283 . S
O951 Eu934 2.375 . S
O952 C926 1.283 . S
O952 Eu938 2.363 . S
O953 C927 1.283 . S
O953 Eu938 2.363 . S
O954 C928 1.283 . S
O954 Eu937 2.363 . S
O955 C929 1.283 . S
O955 Eu937 2.363 . S
O956 C924 1.283 . S
O956 Eu943 2.363 . S
O957 C922 1.283 . S
O957 Eu943 2.363 . S
O958 C925 1.283 . S
O958 Eu930 2.363 . S
O959 C923 1.283 . S
O959 Eu930 2.363 . S
O960 C919 1.283 . S
O960 Eu938 2.375 . S
O961 C921 1.283 . S
O961 Eu938 2.351 1_556 S
O962 C918 1.283 . S
O962 Eu937 2.375 . S
O963 C920 1.283 . S
O963 Eu937 2.351 1_556 S
O964 C929 1.283 . S
O964 Eu933 2.363 . S
O965 C927 1.283 . S
O965 Eu933 2.363 . S
O966 C928 1.283 . S
O966 Eu934 2.363 . S
O967 C926 1.283 . S
O967 Eu934 2.363 . S
C968 O994 1.283 . S
C968 O1012 1.283 . S
C969 O995 1.283 . S
C969 O1010 1.283 . S
C970 O996 1.283 . S
C970 O1013 1.283 . S
C971 O997 1.283 . S
C971 O1011 1.283 . S
C972 O998 1.283 . S
C972 O1007 1.283 . S
C973 O999 1.283 . S
C973 O1009 1.283 . S
C974 O1000 1.283 . S
C974 O1006 1.283 . S
C975 O1001 1.283 . S
C975 O1008 1.283 . S
C976 O1002 1.283 . S
C976 O1017 1.283 . S
C977 O1003 1.283 . S
C977 O1015 1.283 . S
C978 O1004 1.283 . S
C978 O1016 1.283 . S
C979 O1005 1.283 . S
C979 O1014 1.283 . S
Eu980 O981 2.370 1_455 S
Eu980 O982 2.370 . S
Eu980 O985 2.370 1_455 S
Eu980 O986 2.370 . S
Eu980 O994 2.363 . S
Eu980 O995 2.363 . S
Eu980 O1008 2.363 . S
Eu980 O1009 2.363 1_455 S
O981 Eu980 2.370 1_655 S
O981 Eu983 2.370 . S
O981 Eu988 2.370 1_655 S
O982 Eu980 2.370 . S
O982 Eu984 2.370 . S
O982 Eu987 2.370 . S
Eu983 O981 2.370 . S
Eu983 O985 2.370 . S
Eu983 O989 2.370 . S
Eu983 O990 2.370 . S
Eu983 O998 2.363 . S
Eu983 O999 2.363 . S
Eu983 O1014 2.363 . S
Eu983 O1015 2.363 . S
Eu984 O982 2.370 . S
Eu984 O986 2.370 . S
Eu984 O991 2.370 . S
Eu984 O992 2.370 . S
Eu984 O1000 2.363 . S
Eu984 O1001 2.363 . S
Eu984 O1016 2.363 . S
Eu984 O1017 2.363 . S
O985 Eu980 2.370 1_655 S
O985 Eu983 2.370 . S
O985 Eu987 2.370 1_655 S
O986 Eu980 2.370 . S
O986 Eu984 2.370 . S
O986 Eu988 2.370 . S
Eu987 O982 2.370 . S
Eu987 O985 2.370 1_455 S
Eu987 O989 2.370 1_455 S
Eu987 O992 2.370 . S
Eu987 O1004 2.363 . S
Eu987 O1005 2.363 1_455 S
Eu987 O1012 2.363 . S
Eu987 O1013 2.363 . S
Eu988 O981 2.370 1_455 S
Eu988 O986 2.370 . S
Eu988 O990 2.370 1_455 S
Eu988 O991 2.370 . S
Eu988 O1002 2.363 . S
Eu988 O1003 2.363 1_455 S
Eu988 O1010 2.363 . S
Eu988 O1011 2.363 . S
O989 Eu983 2.370 . S
O989 Eu987 2.370 1_655 S
O989 Eu993 2.370 1_655 S
O990 Eu983 2.370 . S
O990 Eu988 2.370 1_655 S
O990 Eu993 2.370 1_655 S
O991 Eu984 2.370 . S
O991 Eu988 2.370 . S
O991 Eu993 2.370 . S
O992 Eu984 2.370 . S
O992 Eu987 2.370 . S
O992 Eu993 2.370 . S
Eu993 O989 2.370 1_455 S
Eu993 O990 2.370 1_455 S
Eu993 O991 2.370 . S
Eu993 O992 2.370 . S
Eu993 O996 2.363 . S
Eu993 O997 2.363 . S
Eu993 O1006 2.363 . S
Eu993 O1007 2.363 1_455 S
O994 C968 1.283 . S
O994 Eu980 2.363 . S
O995 C969 1.283 . S
O995 Eu980 2.363 . S
O996 C970 1.283 . S
O996 Eu993 2.363 . S
O997 C971 1.283 . S
O997 Eu993 2.363 . S
O998 C972 1.283 . S
O998 Eu983 2.363 . S
O999 C973 1.283 . S
O999 Eu983 2.363 . S
O1000 C974 1.283 . S
O1000 Eu984 2.363 . S
O1001 C975 1.283 . S
O1001 Eu984 2.363 . S
O1002 C976 1.283 . S
O1002 Eu988 2.363 . S
O1003 C977 1.283 . S
O1003 Eu988 2.363 1_655 S
O1004 C978 1.283 . S
O1004 Eu987 2.363 . S
O1005 C979 1.283 . S
O1005 Eu987 2.363 1_655 S
O1006 C974 1.283 . S
O1006 Eu993 2.363 . S
O1007 C972 1.283 . S
O1007 Eu993 2.363 1_655 S
O1008 C975 1.283 . S
O1008 Eu980 2.363 . S
O1009 C973 1.283 . S
O1009 Eu980 2.363 1_655 S
O1010 C969 1.283 . S
O1010 Eu988 2.363 . S
O1011 C971 1.283 . S
O1011 Eu988 2.363 . S
O1012 C968 1.283 . S
O1012 Eu987 2.363 . S
O1013 C970 1.283 . S
O1013 Eu987 2.363 . S
O1014 C979 1.283 . S
O1014 Eu983 2.363 . S
O1015 C977 1.283 . S
O1015 Eu983 2.363 . S
O1016 C978 1.283 . S
O1016 Eu984 2.363 . S
O1017 C976 1.283 . S
O1017 Eu984 2.363 . S
C1018 O1044 1.283 . S
C1018 O1062 1.283 . S
C1019 O1045 1.283 . S
C1019 O1060 1.283 . S
C1020 O1046 1.283 . S
C1020 O1063 1.283 . S
C1021 O1047 1.283 . S
C1021 O1061 1.283 . S
C1022 O1048 1.283 . S
C1022 O1057 1.283 . S
C1023 O1049 1.283 . S
C1023 O1059 1.283 . S
C1024 O1050 1.283 . S
C1024 O1056 1.283 . S
C1025 O1051 1.283 . S
C1025 O1058 1.283 . S
C1026 O1052 1.283 . S
C1026 O1067 1.283 . S
C1027 O1053 1.283 . S
C1027 O1065 1.283 . S
C1028 O1054 1.283 . S
C1028 O1066 1.283 . S
C1029 O1055 1.283 . S
C1029 O1064 1.283 . S
Eu1030 O1031 2.370 . S
Eu1030 O1032 2.370 . S
Eu1030 O1035 2.370 . S
Eu1030 O1036 2.370 . S
Eu1030 O1044 2.363 . S
Eu1030 O1045 2.363 . S
Eu1030 O1058 2.363 . S
Eu1030 O1059 2.363 . S
O1031 Eu1030 2.370 . S
O1031 Eu1033 2.370 1_565 S
O1031 Eu1038 2.370 1_565 S
O1032 Eu1030 2.370 . S
O1032 Eu1034 2.370 1_565 S
O1032 Eu1037 2.370 1_565 S
Eu1033 O1031 2.370 1_545 S
Eu1033 O1035 2.370 1_545 S
Eu1033 O1039 2.370 . S
Eu1033 O1040 2.370 . S
Eu1033 O1048 2.363 . S
Eu1033 O1049 2.363 1_545 S
Eu1033 O1064 2.363 . S
Eu1033 O1065 2.363 . S
Eu1034 O1032 2.370 1_545 S
Eu1034 O1036 2.370 1_545 S
Eu1034 O1041 2.370 . S
Eu1034 O1042 2.370 . S
Eu1034 O1050 2.363 . S
Eu1034 O1051 2.363 1_545 S
Eu1034 O1066 2.363 . S
Eu1034 O1067 2.363 . S
O1035 Eu1030 2.370 . S
O1035 Eu1033 2.370 1_565 S
O1035 Eu1037 2.370 1_565 S
O1036 Eu1030 2.370 . S
O1036 Eu1034 2.370 1_565 S
O1036 Eu1038 2.370 1_565 S
Eu1037 O1032 2.370 1_545 S
Eu1037 O1035 2.370 1_545 S
Eu1037 O1039 2.370 . S
Eu1037 O1042 2.370 . S
Eu1037 O1054 2.363 . S
Eu1037 O1055 2.363 . S
Eu1037 O1062 2.363 1_545 S
Eu1037 O1063 2.363 . S
Eu1038 O1031 2.370 1_545 S
Eu1038 O1036 2.370 1_545 S
Eu1038 O1040 2.370 . S
Eu1038 O1041 2.370 . S
Eu1038 O1052 2.363 . S
Eu1038 O1053 2.363 . S
Eu1038 O1060 2.363 1_545 S
Eu1038 O1061 2.363 . S
O1039 Eu1033 2.370 . S
O1039 Eu1037 2.370 . S
O1039 Eu1043 2.370 . S
O1040 Eu1033 2.370 . S
O1040 Eu1038 2.370 . S
O1040 Eu1043 2.370 . S
O1041 Eu1034 2.370 . S
O1041 Eu1038 2.370 . S
O1041 Eu1043 2.370 . S
O1042 Eu1034 2.370 . S
O1042 Eu1037 2.370 . S
O1042 Eu1043 2.370 . S
Eu1043 O1039 2.370 . S
Eu1043 O1040 2.370 . S
Eu1043 O1041 2.370 . S
Eu1043 O1042 2.370 . S
Eu1043 O1046 2.363 . S
Eu1043 O1047 2.363 . S
Eu1043 O1056 2.363 . S
Eu1043 O1057 2.363 . S
O1044 C1018 1.283 . S
O1044 Eu1030 2.363 . S
O1045 C1019 1.283 . S
O1045 Eu1030 2.363 . S
O1046 C1020 1.283 . S
O1046 Eu1043 2.363 . S
O1047 C1021 1.283 . S
O1047 Eu1043 2.363 . S
O1048 C1022 1.283 . S
O1048 Eu1033 2.363 . S
O1049 C1023 1.283 . S
O1049 Eu1033 2.363 1_565 S
O1050 C1024 1.283 . S
O1050 Eu1034 2.363 . S
O1051 C1025 1.283 . S
O1051 Eu1034 2.363 1_565 S
O1052 C1026 1.283 . S
O1052 Eu1038 2.363 . S
O1053 C1027 1.283 . S
O1053 Eu1038 2.363 . S
O1054 C1028 1.283 . S
O1054 Eu1037 2.363 . S
O1055 C1029 1.283 . S
O1055 Eu1037 2.363 . S
O1056 C1024 1.283 . S
O1056 Eu1043 2.363 . S
O1057 C1022 1.283 . S
O1057 Eu1043 2.363 . S
O1058 C1025 1.283 . S
O1058 Eu1030 2.363 . S
O1059 C1023 1.283 . S
O1059 Eu1030 2.363 . S
O1060 C1019 1.283 . S
O1060 Eu1038 2.363 1_565 S
O1061 C1021 1.283 . S
O1061 Eu1038 2.363 . S
O1062 C1018 1.283 . S
O1062 Eu1037 2.363 1_565 S
O1063 C1020 1.283 . S
O1063 Eu1037 2.363 . S
O1064 C1029 1.283 . S
O1064 Eu1033 2.363 . S
O1065 C1027 1.283 . S
O1065 Eu1033 2.363 . S
O1066 C1028 1.283 . S
O1066 Eu1034 2.363 . S
O1067 C1026 1.283 . S
O1067 Eu1034 2.363 . S
C774 C765 1.117 . S
C701 C772 1.138 . S
C773 C669 1.125 . S
C733 C775 1.101 . S
C819 C541 1.116 . S
C879 C573 1.090 . S
C605 C818 1.126 . S
C878 C637 1.128 . S
C413 C820 1.113 . S
C876 C445 1.127 . S
C477 C821 1.105 . S
C509 C877 1.086 . S
C927 C381 1.109 . S
C317 C926 1.142 1_556 S
C285 C928 1.129 1_556 S
C929 C349 1.090 1_554 S
C157 C970 1.108 1_655 S
C189 C1029 1.089 1_565 S
C221 C968 1.120 . S
C253 C1028 1.111 . S
C969 C29 1.124 1_455 S
C1026 C61 1.128 1_545 S
C93 C971 1.111 . S
C1027 C125 1.103 1_545 S
C771 C23 2.555 1_455 S
C55 C777 2.551 1_565 S
C87 C769 2.558 . S
C113 C776 2.504 1_565 S
C151 C768 2.563 1_655 S
C778 C183 2.567 1_545 S
C215 C770 2.556 . S
C779 C247 2.553 . S
C825 C119 2.560 1_545 S
C17 C868 2.521 1_655 S
C823 C49 2.506 1_545 S
C870 C81 2.522 . S
C177 C824 2.511 1_565 S
C869 C209 2.526 . S
C822 C241 2.516 . S
C871 C145 2.519 1_455 S
C875 C279 2.567 1_554 S
C305 C874 2.511 1_556 S
C826 C273 2.513 1_554 S
C873 C337 2.529 1_554 S
C375 C829 2.558 . S
C369 C872 2.533 . S
C828 C311 2.561 1_554 S
C827 C343 2.568 1_554 S
C921 C407 2.556 . S
C924 C439 2.546 . S
C471 C920 2.558 . S
C922 C497 2.513 . S
C918 C535 2.562 . S
C561 C923 2.513 . S
C599 C919 2.553 . S
C925 C631 2.546 . S
C979 C503 2.567 . S
C401 C1018 2.525 . S
C978 C433 2.510 . S
C1020 C465 2.525 . S
C977 C567 2.565 . S
C593 C1019 2.521 . S
C976 C625 2.507 . S
C1021 C529 2.516 . S
C1025 C663 2.574 . S
C689 C1024 2.516 . S
C972 C657 2.517 . S
C721 C1023 2.527 . S
C975 C759 2.558 . S
C1022 C753 2.527 . S
C973 C695 2.565 . S
C727 C974 2.568 . S
