# Generated by pormake.
# Topology rtl, (3,6)-cn, num edge types: 1
# Building blocks:
#     Node 0, Type 0, BuildingBlock: BETDAH_clean_linker_0, # of connection points: 3
#     Node 1, Type 0, BuildingBlock: BETDAH_clean_linker_0, # of connection points: 3
#     Node 2, Type 0, BuildingBlock: BETDAH_clean_linker_0, # of connection points: 3
#     Node 3, Type 0, BuildingBlock: BETDAH_clean_linker_0, # of connection points: 3
#     Node 4, Type 1, BuildingBlock: KUMJIN_clean_sbu_1, # of connection points: 6
#     Node 5, Type 1, BuildingBlock: KUMJIN_clean_sbu_1, # of connection points: 6
#     Edge 6, Type (0, 1), BuildingBlock: AJUNOK_clean_linker_0, # of connection points: 2
#     Edge 7, Type (0, 1), BuildingBlock: AJUNOK_clean_linker_0, # of connection points: 2
#     Edge 8, Type (0, 1), BuildingBlock: AJUNOK_clean_linker_0, # of connection points: 2
#     Edge 9, Type (0, 1), BuildingBlock: AJUNOK_clean_linker_0, # of connection points: 2
#     Edge 10, Type (0, 1), BuildingBlock: AJUNOK_clean_linker_0, # of connection points: 2
#     Edge 11, Type (0, 1), BuildingBlock: AJUNOK_clean_linker_0, # of connection points: 2
#     Edge 12, Type (0, 1), BuildingBlock: AJUNOK_clean_linker_0, # of connection points: 2
#     Edge 13, Type (0, 1), BuildingBlock: AJUNOK_clean_linker_0, # of connection points: 2
#     Edge 14, Type (0, 1), BuildingBlock: AJUNOK_clean_linker_0, # of connection points: 2
#     Edge 15, Type (0, 1), BuildingBlock: AJUNOK_clean_linker_0, # of connection points: 2
#     Edge 16, Type (0, 1), BuildingBlock: AJUNOK_clean_linker_0, # of connection points: 2
#     Edge 17, Type (0, 1), BuildingBlock: AJUNOK_clean_linker_0, # of connection points: 2
# Relax obj value: 0.051
# Max RMSD: 0.239
# Mean RMSD: 0.168
data_MOF--net-rtl--node1-KUMJIN_clean_sbu_1--node2-BETDAH_clean_linker_0--edge1-AJUNOK_clean_linker_0
_symmetry_space_group_name_H-M    P1
_symmetry_Int_Tables_number       1
_symmetry_cell_setting            triclinic
loop_
_symmetry_equiv_pos_as_xyz
'x, y, z'
_cell_length_a     26.298438
_cell_length_b     26.584445
_cell_length_c     20.67683
_cell_angle_alpha  74.764554
_cell_angle_beta   100.43378
_cell_angle_gamma 91.495891
loop_
_atom_site_label
_atom_site_type_symbol
_atom_site_fract_x
_atom_site_fract_y
_atom_site_fract_z
_atom_type_partial_charge
H0 H 0.1127 0.88888 0.9942 0.0
H1 H 0.25229 0.81981 0.12956 0.0
H2 H 0.24488 0.85823 0.91309 0.0
C3 C 0.15162 0.87304 1.00233 0.0
C4 C 0.17512 0.8748 0.94586 0.0
C5 C 0.17927 0.85376 0.06917 0.0
C6 C 0.23023 0.83452 0.07858 0.0
C7 C 0.25345 0.83494 0.02245 0.0
C8 C 0.22602 0.85565 0.9563 0.0
N9 N 0.30678 0.82223 0.03276 0.0
C10 C 0.3254 0.77398 0.03175 0.0
H11 H 0.63209 0.62559 0.69421 0.0
H12 H 0.73182 0.7424 0.59971 0.0
H13 H 0.70433 0.73387 0.80176 0.0
C14 C 0.65739 0.65825 0.69628 0.0
C15 C 0.66568 0.67652 0.75475 0.0
C16 C 0.68008 0.68222 0.6397 0.0
C17 C 0.71405 0.72383 0.64307 0.0
C18 C 0.72275 0.74265 0.70187 0.0
C19 C 0.69787 0.71919 0.75679 0.0
N20 N 0.75391 0.78639 0.70764 0.0
C21 C 0.79043 0.80952 0.66836 0.0
H22 H 0.89748 0.11986 0.14858 0.0
H23 H 0.77657 0.19536 0.2063 0.0
H24 H 0.76183 0.18041 1.00112 0.0
C25 C 0.86043 0.14046 0.13527 0.0
C26 C 0.83286 0.14927 0.06878 0.0
C27 C 0.84105 0.1574 0.18497 0.0
C28 C 0.79246 0.18319 0.16785 0.0
C29 C 0.76383 0.1916 0.10122 0.0
C30 C 0.78415 0.17439 0.05213 0.0
N31 N 0.71301 0.21361 0.08321 0.0
C32 C 0.69761 0.25669 0.10192 0.0
H33 H 0.38571 0.43356 0.44471 0.0
H34 H 0.30314 0.30176 0.54358 0.0
H35 H 0.35873 0.30156 0.36038 0.0
C36 C 0.3691 0.39559 0.44635 0.0
C37 C 0.37459 0.37097 0.39541 0.0
C38 C 0.34404 0.37057 0.5007 0.0
C39 C 0.32272 0.32113 0.50227 0.0
C40 C 0.3276 0.29629 0.45137 0.0
C41 C 0.35453 0.32097 0.3992 0.0
N42 N 0.30773 0.24582 0.45212 0.0
C43 C 0.26623 0.22359 0.48239 0.0
Eu44 Eu 0.05264 0.98102 0.51271 0.0
C45 C 0.95893 0.18743 0.50091 0.0
N46 N 0.99943 0.16289 0.54845 0.0
C47 C 0.04766 0.24171 0.52847 0.0
C48 C 0.96247 0.2393 0.46226 0.0
C49 C 0.04196 0.19043 0.56593 0.0
C50 C 1.00828 0.26582 0.47515 0.0
C51 C 0.8679 0.18799 0.45148 0.0
C52 C 0.91226 0.16231 0.49552 0.0
C53 C 0.87212 0.23826 0.40937 0.0
C54 C 0.91939 0.26385 0.41466 0.0
Eu55 Eu 0.98755 0.0741 0.6044 0.0
N56 N 0.90958 0.11357 0.5363 0.0
C57 C 0.8204 0.16298 0.4528 0.0
C58 C 0.86301 0.09027 0.54118 0.0
C59 C 0.81779 0.11432 0.49883 0.0
H60 H 0.07184 0.17302 0.60874 0.0
H61 H 0.78109 0.0952 0.50134 0.0
H62 H 1.00966 0.86203 0.57517 0.0
H63 H 0.25339 0.04368 0.51815 0.0
H64 H 0.86136 0.05233 0.5763 0.0
H65 H 0.78539 0.18145 0.41982 0.0
H66 H 0.15989 0.04731 0.47283 0.0
H67 H 0.08226 0.2627 0.54109 0.0
H68 H 0.8387 0.25834 0.37429 0.0
H69 H 0.92162 0.3034 0.38377 0.0
H70 H 0.04279 0.7785 0.65665 0.0
H71 H 0.0126 0.30568 0.44657 0.0
H72 H 0.29154 0.96942 0.6133 0.0
N73 N 0.08189 0.89933 0.5869 0.0
C74 C 0.13293 0.89436 0.61493 0.0
C75 C 0.06847 0.81087 0.64564 0.0
C76 C 0.15338 0.84782 0.66227 0.0
C77 C 0.04984 0.85807 0.5996 0.0
C78 C 0.12028 0.80598 0.678 0.0
N79 N 0.14401 0.97885 0.54641 0.0
C80 C 0.17553 0.01588 0.51632 0.0
C81 C 0.21835 0.93111 0.62096 0.0
C82 C 0.16479 0.93567 0.5948 0.0
C83 C 0.25019 0.97142 0.59461 0.0
C84 C 0.22881 0.01342 0.541 0.0
H85 H 0.13452 0.76952 0.71406 0.0
H86 H 0.22256 0.80898 0.72828 0.0
H87 H 0.27957 0.88185 0.69186 0.0
O88 O 0.09073 0.96256 0.4356 0.0
O89 O 0.05313 0.95533 0.62751 0.0
O90 O 0.06305 0.03173 0.65955 0.0
O91 O 1.0095 0.94813 0.43306 0.0
O92 O 0.07635 0.06645 0.49601 0.0
O93 O 0.07339 0.08492 0.59798 0.0
O94 O 0.95054 0.04418 0.69258 0.0
O95 O 0.94823 0.05886 0.50433 0.0
O96 O 0.01664 0.05926 0.45177 0.0
O97 O 0.97878 0.12246 0.67285 0.0
O98 O 0.95751 0.9916 0.62075 0.0
O99 O 0.97118 0.95638 0.53277 0.0
C100 C 0.07033 0.98112 0.67296 0.0
C101 C 0.05635 0.89609 0.38458 0.0
C102 C 0.08522 0.85381 0.30498 0.0
C103 C 0.06745 0.80612 0.34084 0.0
C104 C 0.0392 0.84794 0.41966 0.0
C105 C 0.04483 0.80328 0.39784 0.0
C106 C 0.07946 0.89878 0.32734 0.0
C107 C 0.09381 0.09121 0.5428 0.0
C108 C 0.04956 0.94416 0.40555 0.0
C109 C 0.20619 0.84419 0.69119 0.0
C110 C 0.23862 0.88576 0.67057 0.0
C111 C 0.9682 0.07095 0.44894 0.0
C112 C 0.97396 0.07882 0.78675 0.0
C113 C 0.95478 0.08588 0.89501 0.0
C114 C 1.00262 0.06106 0.92814 0.0
C115 C 0.02163 0.05438 0.82025 0.0
C116 C 0.94073 0.09445 0.8241 0.0
C117 C 0.03583 0.04556 0.89083 0.0
C118 C 0.94818 0.9569 0.58469 0.0
C119 C 0.95676 0.08628 0.71344 0.0
H120 H 0.07152 0.77087 0.3251 0.0
H121 H 0.02111 0.84488 0.4635 0.0
H122 H 0.03145 0.76628 0.42511 0.0
H123 H 0.0921 0.93606 0.29955 0.0
H124 H 0.01445 0.05401 0.98279 0.0
H125 H 0.04744 0.0418 0.79197 0.0
H126 H 0.90342 0.11228 0.79806 0.0
H127 H 0.07256 0.02649 0.91671 0.0
Eu128 Eu 0.46779 0.48835 1.00337 0.0
C129 C 0.67601 0.57411 0.07143 0.0
N130 N 0.65524 0.5324 0.11101 0.0
C131 C 0.73123 0.4808 0.12084 0.0
C132 C 0.72387 0.56969 0.05142 0.0
C133 C 0.68409 0.4875 0.14017 0.0
C134 C 0.75058 0.52166 0.07481 0.0
C135 C 0.67356 0.66735 0.01894 0.0
C136 C 0.65133 0.62237 0.05525 0.0
C137 C 0.71954 0.66256 0.99533 0.0
C138 C 0.74456 0.61377 0.01135 0.0
Eu139 Eu 0.57192 0.5468 0.13365 0.0
N140 N 0.60599 0.62553 0.07665 0.0
C141 C 0.64935 0.71584 1.00867 0.0
C142 C 0.58341 0.67275 0.06982 0.0
C143 C 0.60458 0.71862 0.03533 0.0
H144 H 0.67119 0.45663 0.17876 0.0
H145 H 0.58606 0.75598 0.02859 0.0
H146 H 0.35418 0.54239 1.00069 0.0
H147 H 0.52201 0.28086 0.06972 0.0
H148 H 0.5484 0.67459 0.08975 0.0
H149 H 0.6653 0.75136 0.98122 0.0
H150 H 0.5269 0.37408 0.01177 0.0
H151 H 0.75294 0.44438 0.14224 0.0
H152 H 0.73672 0.69651 0.96615 0.0
H153 H 0.78087 0.61091 0.99462 0.0
H154 H 0.27361 0.51724 0.04623 0.0
H155 H 0.78738 0.51657 0.06051 0.0
H156 H 0.45105 0.25002 0.1333 0.0
N157 N 0.38852 0.46659 0.04064 0.0
C158 C 0.38266 0.41596 0.07344 0.0
C159 C 0.30409 0.48845 0.05451 0.0
C160 C 0.33783 0.39995 0.10095 0.0
C161 C 0.34959 0.50258 0.02884 0.0
C162 C 0.29849 0.43708 0.09164 0.0
N163 N 0.46322 0.39689 0.04897 0.0
C164 C 0.49732 0.36159 0.04215 0.0
C165 C 0.41611 0.32701 0.11059 0.0
C166 C 0.42156 0.38019 0.07863 0.0
C167 C 0.45379 0.29123 0.10936 0.0
C168 C 0.49397 0.30849 0.07369 0.0
H169 H 0.2634 0.42634 0.11198 0.0
H170 H 0.29955 0.33449 0.15809 0.0
H171 H 0.36796 0.27048 0.16618 0.0
O172 O 0.44492 0.45019 0.92102 0.0
O173 O 0.45012 0.48979 0.10739 0.0
O174 O 0.52879 0.47449 0.17916 0.0
O175 O 0.42904 0.53249 0.90209 0.0
O176 O 0.5517 0.45961 0.02958 0.0
O177 O 0.5791 0.45972 0.14159 0.0
O178 O 0.55435 0.58343 0.21027 0.0
O179 O 0.55119 0.58842 0.02037 0.0
O180 O 0.54388 0.5194 0.97465 0.0
O181 O 0.6306 0.55109 0.22157 0.0
O182 O 0.49077 0.58262 0.10883 0.0
O183 O 0.44987 0.57242 1.00287 0.0
C184 C 0.47821 0.47032 0.16805 0.0
C185 C 0.37694 0.48683 0.8296 0.0
C186 C 0.33529 0.4622 0.72667 0.0
C187 C 0.28757 0.47986 0.73492 0.0
C188 C 0.32887 0.50403 0.83697 0.0
C189 C 0.28446 0.50039 0.78986 0.0
C190 C 0.37983 0.4654 0.77476 0.0
C191 C 0.57919 0.43903 0.09033 0.0
C192 C 0.42492 0.49227 0.87666 0.0
C193 C 0.33344 0.34749 0.13587 0.0
C194 C 0.37249 0.31108 0.14065 0.0
C195 C 0.55724 0.56758 0.97144 0.0
C196 C 0.60182 0.55481 0.32172 0.0
C197 C 0.62065 0.57037 0.43442 0.0
C198 C 0.60259 0.52059 0.46208 0.0
C199 C 0.58403 0.50508 0.34987 0.0
C200 C 0.62039 0.58728 0.36414 0.0
C201 C 0.5846 0.48806 0.41995 0.0
C202 C 0.45457 0.59535 0.05339 0.0
C203 C 0.60001 0.57416 0.24811 0.0
H204 H 0.2526 0.4773 0.69919 0.0
H205 H 0.3257 0.52057 0.87869 0.0
H206 H 0.24746 0.51374 0.79578 0.0
H207 H 0.41694 0.45222 0.7687 0.0
H208 H 0.60201 0.50716 0.51615 0.0
H209 H 0.56943 0.47975 0.31766 0.0
H210 H 0.63353 0.62601 0.34239 0.0
H211 H 0.57058 0.44979 0.44156 0.0
C212 C 0.22501 0.15557 0.56348 0.0
C213 C 0.22103 0.19537 0.50242 0.0
C214 C 0.18278 0.12336 0.57803 0.0
C215 C 0.13594 0.12906 0.531 0.0
H216 H 0.26131 0.14831 0.59921 0.0
H217 H 0.18759 0.09226 0.62474 0.0
S218 S 0.10473 0.23126 0.36787 0.0
N219 N 0.16548 0.24171 0.39802 0.0
N220 N 0.08707 0.18044 0.42408 0.0
C221 C 0.13128 0.16989 0.47111 0.0
C222 C 0.17365 0.20324 0.45715 0.0
C223 C 0.36123 0.71235 0.97878 0.0
C224 C 0.35263 0.72592 0.03722 0.0
C225 C 0.39289 0.66894 0.98421 0.0
C226 C 0.41759 0.63831 0.04828 0.0
H227 H 0.34448 0.73612 0.9286 0.0
H228 H 0.39946 0.66049 0.93788 0.0
S229 S 0.40382 0.65655 0.21661 0.0
N230 N 0.36844 0.70446 0.16056 0.0
N231 N 0.4281 0.62352 0.17148 0.0
C232 C 0.40771 0.65103 0.10702 0.0
C233 C 0.3752 0.69474 0.10128 0.0
C234 C 0.84131 0.85605 0.57934 0.0
C235 C 0.83267 0.84238 0.64692 0.0
C236 C 0.87997 0.89184 0.55947 0.0
C237 C 0.91038 0.9157 0.60632 0.0
H238 H 0.81757 0.83984 0.54153 0.0
H239 H 0.88488 0.90216 0.50673 0.0
S240 S 0.90398 0.88959 0.79046 0.0
N241 N 0.85886 0.85283 0.76104 0.0
N242 N 0.93024 0.92 0.72452 0.0
C243 C 0.90246 0.90086 0.67441 0.0
C244 C 0.86389 0.86427 0.69443 0.0
C245 C 0.64814 0.30623 0.15788 0.0
C246 C 0.67469 0.30473 0.10514 0.0
C247 C 0.61922 0.351 0.15488 0.0
C248 C 0.61517 0.39483 0.09827 0.0
H249 H 0.64829 0.27215 0.20039 0.0
H250 H 0.59785 0.35033 0.19522 0.0
S251 S 0.68136 0.41117 0.95041 0.0
N252 N 0.69832 0.35164 0.99781 0.0
N253 N 0.64345 0.43488 0.9913 0.0
C254 C 0.64325 0.39405 0.04681 0.0
C255 C 0.67316 0.34913 0.05047 0.0
C256 C 0.10664 0.834 0.13555 0.0
C257 C 0.15553 0.8554 0.12894 0.0
C258 C 0.08412 0.83398 0.19227 0.0
C259 C 0.10922 0.8561 0.24415 0.0
H260 H 0.086 0.81632 0.09713 0.0
H261 H 0.04664 0.81659 0.19547 0.0
S262 S 0.23698 0.91895 0.24982 0.0
N263 N 0.22764 0.90072 0.17819 0.0
N264 N 0.18545 0.90053 0.28463 0.0
C265 C 0.1577 0.87844 0.23753 0.0
C266 C 0.18084 0.87804 0.18011 0.0
C267 C 0.64577 0.5963 0.84058 0.0
C268 C 0.63986 0.65056 0.81278 0.0
C269 C 0.61855 0.56987 0.89135 0.0
C270 C 0.58451 0.59657 0.91659 0.0
H271 H 0.67144 0.57402 0.82253 0.0
H272 H 0.62448 0.52823 0.91117 0.0
S273 S 0.55157 0.73797 0.85627 0.0
N274 N 0.59536 0.72976 0.81163 0.0
N275 N 0.54374 0.67986 0.90668 0.0
C276 C 0.57775 0.65074 0.88872 0.0
C277 C 0.60565 0.67779 0.83709 0.0
C278 C 0.85019 0.11341 0.30945 0.0
C279 C 0.87159 0.14425 0.25509 0.0
C280 C 0.88171 0.09028 0.37232 0.0
C281 C 0.93556 0.09739 0.38303 0.0
H282 H 0.80942 0.10466 0.30218 0.0
H283 H 0.86401 0.06494 0.41188 0.0
S284 S 1.00947 0.17783 0.25778 0.0
N285 N 0.94896 0.18386 0.21723 0.0
N286 N 1.00825 0.13924 0.33438 0.0
C287 C 0.95696 0.12961 0.32966 0.0
C288 C 0.9249 0.15361 0.26616 0.0
C289 C 0.36007 0.36727 0.62537 0.0
C290 C 0.34174 0.39507 0.5573 0.0
C291 C 0.35882 0.38958 0.67969 0.0
C292 C 0.33833 0.44019 0.66814 0.0
H293 H 0.37596 0.32809 0.63668 0.0
H294 H 0.37319 0.36672 0.73123 0.0
S295 S 0.28563 0.5294 0.49962 0.0
N296 N 0.30293 0.47611 0.48151 0.0
N297 N 0.29998 0.51773 0.58345 0.0
C298 C 0.31992 0.46838 0.60037 0.0
C299 C 0.32185 0.44596 0.54504 0.0
C300 C 0.70348 0.6398 0.5535 0.0
C301 C 0.66596 0.6631 0.57765 0.0
C302 C 0.68884 0.61144 0.50459 0.0
C303 C 0.63634 0.60566 0.47872 0.0
H304 H 0.74405 0.64103 0.57525 0.0
H305 H 0.7185 0.59209 0.48911 0.0
S306 S 0.52389 0.66394 0.51959 0.0
N307 N 0.57451 0.68242 0.56721 0.0
N308 N 0.54733 0.62872 0.4763 0.0
C309 C 0.59885 0.63109 0.49966 0.0
C310 C 0.61359 0.66002 0.54882 0.0
C311 C 0.87712 0.08108 0.03428 0.0
C312 C 0.85668 0.13221 0.01803 0.0
C313 C 0.90787 0.0662 0.99347 0.0
C314 C 0.91928 0.10184 0.93471 0.0
H315 H 0.87052 0.05275 0.08015 0.0
H316 H 0.92344 0.02666 1.00857 0.0
S317 S 0.87463 0.2402 0.86937 0.0
N318 N 0.84922 0.21823 0.93869 0.0
N319 N 0.90699 0.19033 0.8616 0.0
C320 C 0.89766 0.15262 0.91657 0.0
C321 C 0.86631 0.16776 0.95826 0.0
C322 C 0.44754 0.37645 0.32998 0.0
C323 C 0.40111 0.39738 0.33794 0.0
C324 C 0.47281 0.40074 0.27565 0.0
C325 C 0.45183 0.44606 0.22625 0.0
H326 H 0.46461 0.34122 0.36634 0.0
H327 H 0.5085 0.38336 0.27155 0.0
S328 S 0.33129 0.51639 0.22427 0.0
N329 N 0.33569 0.46645 0.29246 0.0
N330 N 0.38215 0.51118 0.18968 0.0
C331 C 0.40531 0.46713 0.23358 0.0
C332 C 0.38025 0.44307 0.28958 0.0
C333 C 0.16371 0.94994 0.842 0.0
C334 C 0.14814 0.90059 0.87604 0.0
C335 C 0.13821 0.97574 0.77627 0.0
C336 C 0.09693 0.9526 0.74184 0.0
H337 H 0.19547 0.96895 0.86675 0.0
H338 H 0.15118 0.01391 0.75201 0.0
S339 S 0.04144 0.82385 0.80952 0.0
N340 N 0.08883 0.82971 0.87137 0.0
N341 N 0.04143 0.87757 0.74729 0.0
C342 C 0.08139 0.90299 0.77526 0.0
C343 C 0.10682 0.87716 0.84259 0.0
loop_
_geom_bond_atom_site_label_1
_geom_bond_atom_site_label_2
_geom_bond_distance
_geom_bond_site_symmetry_2
_ccdc_geom_bond_type
H0 C3 0.929 . S
H1 C6 0.929 . S
H2 C8 0.930 . S
C3 H0 0.929 . S
C3 C4 1.398 1_554 S
C3 C5 1.396 . S
C4 C3 1.398 1_556 S
C4 C8 1.407 . S
C5 C3 1.396 . S
C5 C6 1.394 . S
C6 H1 0.929 . S
C6 C5 1.394 . S
C6 C7 1.382 . S
C7 C6 1.382 . S
C7 C8 1.392 1_554 S
C7 N9 1.420 . S
C8 H2 0.930 . S
C8 C4 1.407 . S
C8 C7 1.392 1_556 S
N9 C7 1.420 . S
N9 C10 1.244 . S
C10 N9 1.244 . S
H11 C14 0.929 . S
H12 C17 0.929 . S
H13 C19 0.930 . S
C14 H11 0.929 . S
C14 C15 1.398 . S
C14 C16 1.396 . S
C15 C14 1.398 . S
C15 C19 1.407 . S
C16 C14 1.396 . S
C16 C17 1.394 . S
C17 H12 0.929 . S
C17 C16 1.394 . S
C17 C18 1.382 . S
C18 C17 1.382 . S
C18 C19 1.392 . S
C18 N20 1.420 . S
C19 H13 0.930 . S
C19 C15 1.407 . S
C19 C18 1.392 . S
N20 C18 1.420 . S
N20 C21 1.244 . S
C21 N20 1.244 . S
H22 C25 0.929 . S
H23 C28 0.929 . S
H24 C30 0.930 1_556 S
C25 H22 0.929 . S
C25 C26 1.398 . S
C25 C27 1.396 . S
C26 C25 1.398 . S
C26 C30 1.407 . S
C27 C25 1.396 . S
C27 C28 1.394 . S
C28 H23 0.929 . S
C28 C27 1.394 . S
C28 C29 1.382 . S
C29 C28 1.382 . S
C29 C30 1.392 . S
C29 N31 1.420 . S
C30 H24 0.930 1_554 S
C30 C26 1.407 . S
C30 C29 1.392 . S
N31 C29 1.420 . S
N31 C32 1.244 . S
C32 N31 1.244 . S
H33 C36 0.929 . S
H34 C39 0.929 . S
H35 C41 0.930 . S
C36 H33 0.929 . S
C36 C37 1.398 . S
C36 C38 1.396 . S
C37 C36 1.398 . S
C37 C41 1.407 . S
C38 C36 1.396 . S
C38 C39 1.394 . S
C39 H34 0.929 . S
C39 C38 1.394 . S
C39 C40 1.382 . S
C40 C39 1.382 . S
C40 C41 1.392 . S
C40 N42 1.420 . S
C41 H35 0.930 . S
C41 C37 1.407 . S
C41 C40 1.392 . S
N42 C40 1.420 . S
N42 C43 1.244 . S
C43 N42 1.244 . S
Eu44 N73 2.600 . S
Eu44 N79 2.562 . S
Eu44 O88 2.462 . S
Eu44 O89 2.373 . S
Eu44 O91 2.432 . S
Eu44 O92 2.291 1_565 S
Eu44 O96 2.335 1_465 S
Eu44 O99 2.372 1_455 S
Eu44 C108 2.787 . S
C45 N46 1.365 . S
C45 C48 1.405 . S
C45 C52 1.448 . S
N46 C45 1.365 . S
N46 C49 1.319 1_655 S
N46 Eu55 2.600 . S
C47 C49 1.397 . S
C47 C50 1.367 1_455 S
C47 H67 0.931 . S
C48 C45 1.405 . S
C48 C50 1.403 . S
C48 C54 1.439 . S
C49 N46 1.319 1_455 S
C49 C47 1.397 . S
C49 H60 0.930 . S
C50 C47 1.367 1_655 S
C50 C48 1.403 . S
C50 H71 0.929 . S
C51 C52 1.430 . S
C51 C53 1.387 . S
C51 C57 1.404 . S
C52 C45 1.448 . S
C52 C51 1.430 . S
C52 N56 1.351 . S
C53 C51 1.387 . S
C53 C54 1.374 . S
C53 H68 0.931 . S
C54 C48 1.439 . S
C54 C53 1.374 . S
C54 H69 0.931 . S
Eu55 N46 2.600 . S
Eu55 N56 2.562 . S
Eu55 O90 2.335 1_655 S
Eu55 O93 2.372 1_655 S
Eu55 O94 2.462 . S
Eu55 O95 2.373 . S
Eu55 O97 2.432 . S
Eu55 O98 2.291 1_545 S
Eu55 C119 2.787 . S
N56 C52 1.351 . S
N56 Eu55 2.562 . S
N56 C58 1.325 . S
C57 C51 1.404 . S
C57 C59 1.366 . S
C57 H65 0.930 . S
C58 N56 1.325 . S
C58 C59 1.416 . S
C58 H64 0.929 . S
C59 C57 1.366 . S
C59 C58 1.416 . S
C59 H61 0.930 . S
H60 C49 0.930 . S
H61 C59 0.930 . S
H62 C77 0.930 1_655 S
H63 C84 0.930 . S
H64 C58 0.929 . S
H65 C57 0.930 . S
H66 C80 0.929 . S
H67 C47 0.931 . S
H68 C53 0.931 . S
H69 C54 0.931 . S
H70 C75 0.931 1_655 S
H71 C50 0.929 . S
H72 C83 0.930 . S
N73 Eu44 2.600 . S
N73 C74 1.365 . S
N73 C77 1.319 . S
C74 N73 1.365 . S
C74 C76 1.405 . S
C74 C82 1.448 . S
C75 H70 0.931 1_455 S
C75 C77 1.397 . S
C75 C78 1.367 . S
C76 C74 1.405 . S
C76 C78 1.403 . S
C76 C109 1.439 . S
C77 H62 0.930 1_455 S
C77 N73 1.319 . S
C77 C75 1.397 . S
C78 C75 1.367 . S
C78 C76 1.403 . S
C78 H85 0.929 . S
N79 Eu44 2.562 . S
N79 C80 1.325 . S
N79 C82 1.351 . S
C80 H66 0.929 . S
C80 N79 1.325 . S
C80 C84 1.416 . S
C81 C82 1.430 . S
C81 C83 1.404 . S
C81 C110 1.387 . S
C82 C74 1.448 . S
C82 N79 1.351 . S
C82 C81 1.430 . S
C83 H72 0.930 . S
C83 C81 1.404 . S
C83 C84 1.366 . S
C84 H63 0.930 . S
C84 C80 1.416 . S
C84 C83 1.366 . S
H85 C78 0.929 . S
H86 C109 0.931 . S
H87 C110 0.931 . S
O88 Eu44 2.462 . S
O88 C108 1.252 . S
O89 Eu44 2.373 . S
O89 C100 1.249 . S
O90 Eu55 2.335 1_455 S
O90 C100 1.264 1_545 S
O91 Eu44 2.432 . S
O91 C108 1.268 . S
O92 Eu44 2.291 1_545 S
O92 C107 1.255 . S
O93 Eu55 2.372 1_455 S
O93 C107 1.257 . S
O94 Eu55 2.462 . S
O94 C119 1.252 . S
O95 Eu55 2.373 . S
O95 C111 1.249 . S
O96 Eu44 2.335 1_645 S
O96 C111 1.264 . S
O97 Eu55 2.432 . S
O97 C119 1.268 . S
O98 Eu55 2.291 1_565 S
O98 C118 1.255 . S
O99 Eu44 2.372 1_655 S
O99 C118 1.257 . S
C100 O89 1.249 . S
C100 O90 1.264 1_565 S
C101 C104 1.382 . S
C101 C106 1.390 . S
C101 C108 1.506 . S
C102 C103 1.398 . S
C102 C106 1.392 . S
C103 C102 1.398 . S
C103 C105 1.372 . S
C103 H120 0.931 . S
C104 C101 1.382 . S
C104 C105 1.390 . S
C104 H121 0.931 . S
C105 C103 1.372 . S
C105 C104 1.390 . S
C105 H122 0.929 . S
C106 C101 1.390 . S
C106 C102 1.392 . S
C106 H123 0.930 . S
C107 O92 1.255 . S
C107 O93 1.257 . S
C108 Eu44 2.787 . S
C108 O88 1.252 . S
C108 O91 1.268 . S
C108 C101 1.506 . S
C109 C76 1.439 . S
C109 H86 0.931 . S
C109 C110 1.374 . S
C110 C81 1.387 . S
C110 H87 0.931 . S
C110 C109 1.374 . S
C111 O95 1.249 . S
C111 O96 1.264 . S
C112 C115 1.382 . S
C112 C116 1.390 . S
C112 C119 1.506 . S
C113 C114 1.398 . S
C113 C116 1.392 . S
C114 C113 1.398 . S
C114 C117 1.372 . S
C114 H124 0.931 . S
C115 C112 1.382 . S
C115 C117 1.390 . S
C115 H125 0.931 . S
C116 C112 1.390 . S
C116 C113 1.392 . S
C116 H126 0.930 . S
C117 C114 1.372 . S
C117 C115 1.390 . S
C117 H127 0.929 . S
C118 O98 1.255 . S
C118 O99 1.257 . S
C119 Eu55 2.787 . S
C119 O94 1.252 . S
C119 O97 1.268 . S
C119 C112 1.506 . S
H120 C103 0.931 . S
H121 C104 0.931 . S
H122 C105 0.929 . S
H123 C106 0.930 . S
H124 C114 0.931 . S
H125 C115 0.931 . S
H126 C116 0.930 . S
H127 C117 0.929 . S
Eu128 N157 2.600 . S
Eu128 N163 2.562 . S
Eu128 O172 2.462 1_554 S
Eu128 O173 2.373 . S
Eu128 O175 2.432 1_554 S
Eu128 O176 2.291 . S
Eu128 O180 2.335 1_554 S
Eu128 O183 2.372 . S
Eu128 C192 2.787 1_554 S
C129 N130 1.365 . S
C129 C132 1.405 . S
C129 C136 1.448 . S
N130 C129 1.365 . S
N130 C133 1.319 . S
N130 Eu139 2.600 . S
C131 C133 1.397 . S
C131 C134 1.367 . S
C131 H151 0.931 . S
C132 C129 1.405 . S
C132 C134 1.403 . S
C132 C138 1.439 . S
C133 N130 1.319 . S
C133 C131 1.397 . S
C133 H144 0.930 . S
C134 C131 1.367 . S
C134 C132 1.403 . S
C134 H155 0.929 . S
C135 C136 1.430 . S
C135 C137 1.387 . S
C135 C141 1.404 . S
C136 C129 1.448 . S
C136 C135 1.430 . S
C136 N140 1.351 . S
C137 C135 1.387 . S
C137 C138 1.374 . S
C137 H152 0.931 . S
C138 C132 1.439 . S
C138 C137 1.374 . S
C138 H153 0.931 . S
Eu139 N130 2.600 . S
Eu139 N140 2.562 . S
Eu139 O174 2.335 . S
Eu139 O177 2.372 . S
Eu139 O178 2.462 . S
Eu139 O179 2.373 . S
Eu139 O181 2.432 . S
Eu139 O182 2.291 . S
Eu139 C203 2.787 . S
N140 C136 1.351 . S
N140 Eu139 2.562 . S
N140 C142 1.325 . S
C141 C135 1.404 . S
C141 C143 1.366 . S
C141 H149 0.930 . S
C142 N140 1.325 . S
C142 C143 1.416 . S
C142 H148 0.929 . S
C143 C141 1.366 . S
C143 C142 1.416 . S
C143 H145 0.930 . S
H144 C133 0.930 . S
H145 C143 0.930 . S
H146 C161 0.930 . S
H147 C168 0.930 . S
H148 C142 0.929 . S
H149 C141 0.930 . S
H150 C164 0.929 . S
H151 C131 0.931 . S
H152 C137 0.931 . S
H153 C138 0.931 . S
H154 C159 0.931 . S
H155 C134 0.929 . S
H156 C167 0.930 . S
N157 Eu128 2.600 . S
N157 C158 1.365 . S
N157 C161 1.319 1_554 S
C158 N157 1.365 . S
C158 C160 1.405 . S
C158 C166 1.448 . S
C159 H154 0.931 . S
C159 C161 1.397 . S
C159 C162 1.367 1_556 S
C160 C158 1.405 . S
C160 C162 1.403 . S
C160 C193 1.439 . S
C161 H146 0.930 . S
C161 N157 1.319 1_556 S
C161 C159 1.397 . S
C162 C159 1.367 1_554 S
C162 C160 1.403 . S
C162 H169 0.929 . S
N163 Eu128 2.562 . S
N163 C164 1.325 . S
N163 C166 1.351 . S
C164 H150 0.929 . S
C164 N163 1.325 . S
C164 C168 1.416 . S
C165 C166 1.430 . S
C165 C167 1.404 . S
C165 C194 1.387 . S
C166 C158 1.448 . S
C166 N163 1.351 . S
C166 C165 1.430 . S
C167 H156 0.930 . S
C167 C165 1.404 . S
C167 C168 1.366 . S
C168 H147 0.930 . S
C168 C164 1.416 . S
C168 C167 1.366 . S
H169 C162 0.929 . S
H170 C193 0.931 . S
H171 C194 0.931 . S
O172 Eu128 2.462 1_556 S
O172 C192 1.252 . S
O173 Eu128 2.373 . S
O173 C184 1.249 . S
O174 Eu139 2.335 . S
O174 C184 1.264 . S
O175 Eu128 2.432 1_556 S
O175 C192 1.268 . S
O176 Eu128 2.291 . S
O176 C191 1.255 . S
O177 Eu139 2.372 . S
O177 C191 1.257 . S
O178 Eu139 2.462 . S
O178 C203 1.252 . S
O179 Eu139 2.373 . S
O179 C195 1.249 1_554 S
O180 Eu128 2.335 1_556 S
O180 C195 1.264 . S
O181 Eu139 2.432 . S
O181 C203 1.268 . S
O182 Eu139 2.291 . S
O182 C202 1.255 . S
O183 Eu128 2.372 . S
O183 C202 1.257 . S
C184 O173 1.249 . S
C184 O174 1.264 . S
C185 C188 1.382 . S
C185 C190 1.390 . S
C185 C192 1.506 . S
C186 C187 1.398 . S
C186 C190 1.392 . S
C187 C186 1.398 . S
C187 C189 1.372 . S
C187 H204 0.931 . S
C188 C185 1.382 . S
C188 C189 1.390 . S
C188 H205 0.931 . S
C189 C187 1.372 . S
C189 C188 1.390 . S
C189 H206 0.929 . S
C190 C185 1.390 . S
C190 C186 1.392 . S
C190 H207 0.930 . S
C191 O176 1.255 . S
C191 O177 1.257 . S
C192 Eu128 2.787 1_556 S
C192 O172 1.252 . S
C192 O175 1.268 . S
C192 C185 1.506 . S
C193 C160 1.439 . S
C193 H170 0.931 . S
C193 C194 1.374 . S
C194 C165 1.387 . S
C194 H171 0.931 . S
C194 C193 1.374 . S
C195 O179 1.249 1_556 S
C195 O180 1.264 . S
C196 C199 1.382 . S
C196 C200 1.390 . S
C196 C203 1.506 . S
C197 C198 1.398 . S
C197 C200 1.392 . S
C198 C197 1.398 . S
C198 C201 1.372 . S
C198 H208 0.931 . S
C199 C196 1.382 . S
C199 C201 1.390 . S
C199 H209 0.931 . S
C200 C196 1.390 . S
C200 C197 1.392 . S
C200 H210 0.930 . S
C201 C198 1.372 . S
C201 C199 1.390 . S
C201 H211 0.929 . S
C202 O182 1.255 . S
C202 O183 1.257 . S
C203 Eu139 2.787 . S
C203 O178 1.252 . S
C203 O181 1.268 . S
C203 C196 1.506 . S
H204 C187 0.931 . S
H205 C188 0.931 . S
H206 C189 0.929 . S
H207 C190 0.930 . S
H208 C198 0.931 . S
H209 C199 0.931 . S
H210 C200 0.930 . S
H211 C201 0.929 . S
C212 C213 1.369 . S
C212 C214 1.419 . S
C212 H216 0.930 . S
C213 C212 1.369 . S
C213 C222 1.429 . S
C214 C212 1.419 . S
C214 C215 1.363 . S
C214 H217 0.929 . S
C215 C214 1.363 . S
C215 C221 1.428 . S
H216 C212 0.930 . S
H217 C214 0.929 . S
S218 N219 1.613 . S
S218 N220 1.610 . S
N219 S218 1.613 . S
N219 C222 1.350 . S
N220 S218 1.610 . S
N220 C221 1.351 . S
C221 C215 1.428 . S
C221 N220 1.351 . S
C221 C222 1.434 . S
C222 C213 1.429 . S
C222 N219 1.350 . S
C222 C221 1.434 . S
C223 C224 1.369 . S
C223 C225 1.419 . S
C223 H227 0.930 1_554 S
C224 C223 1.369 . S
C224 C233 1.429 . S
C225 C223 1.419 . S
C225 C226 1.363 . S
C225 H228 0.929 1_554 S
C226 C225 1.363 . S
C226 C232 1.428 . S
H227 C223 0.930 1_556 S
H228 C225 0.929 1_556 S
S229 N230 1.613 . S
S229 N231 1.610 . S
N230 S229 1.613 . S
N230 C233 1.350 . S
N231 S229 1.610 . S
N231 C232 1.351 . S
C232 C226 1.428 . S
C232 N231 1.351 . S
C232 C233 1.434 . S
C233 C224 1.429 . S
C233 N230 1.350 . S
C233 C232 1.434 . S
C234 C235 1.369 . S
C234 C236 1.419 . S
C234 H238 0.930 . S
C235 C234 1.369 . S
C235 C244 1.429 . S
C236 C234 1.419 . S
C236 C237 1.363 . S
C236 H239 0.929 . S
C237 C236 1.363 . S
C237 C243 1.428 . S
H238 C234 0.930 . S
H239 C236 0.929 . S
S240 N241 1.613 . S
S240 N242 1.610 . S
N241 S240 1.613 . S
N241 C244 1.350 . S
N242 S240 1.610 . S
N242 C243 1.351 . S
C243 C237 1.428 . S
C243 N242 1.351 . S
C243 C244 1.434 . S
C244 C235 1.429 . S
C244 N241 1.350 . S
C244 C243 1.434 . S
C245 C246 1.369 . S
C245 C247 1.419 . S
C245 H249 0.930 . S
C246 C245 1.369 . S
C246 C255 1.429 . S
C247 C245 1.419 . S
C247 C248 1.363 . S
C247 H250 0.929 . S
C248 C247 1.363 . S
C248 C254 1.428 . S
H249 C245 0.930 . S
H250 C247 0.929 . S
S251 N252 1.613 . S
S251 N253 1.610 . S
N252 S251 1.613 . S
N252 C255 1.350 . S
N253 S251 1.610 . S
N253 C254 1.351 . S
C254 C248 1.428 . S
C254 N253 1.351 . S
C254 C255 1.434 . S
C255 C246 1.429 . S
C255 N252 1.350 . S
C255 C254 1.434 . S
C256 C257 1.369 . S
C256 C258 1.419 . S
C256 H260 0.930 . S
C257 C256 1.369 . S
C257 C266 1.429 . S
C258 C256 1.419 . S
C258 C259 1.363 . S
C258 H261 0.929 . S
C259 C258 1.363 . S
C259 C265 1.428 . S
H260 C256 0.930 . S
H261 C258 0.929 . S
S262 N263 1.613 . S
S262 N264 1.610 . S
N263 S262 1.613 . S
N263 C266 1.350 . S
N264 S262 1.610 . S
N264 C265 1.351 . S
C265 C259 1.428 . S
C265 N264 1.351 . S
C265 C266 1.434 . S
C266 C257 1.429 . S
C266 N263 1.350 . S
C266 C265 1.434 . S
C267 C268 1.369 . S
C267 C269 1.419 . S
C267 H271 0.930 . S
C268 C267 1.369 . S
C268 C277 1.429 . S
C269 C267 1.419 . S
C269 C270 1.363 . S
C269 H272 0.929 . S
C270 C269 1.363 . S
C270 C276 1.428 . S
H271 C267 0.930 . S
H272 C269 0.929 . S
S273 N274 1.613 . S
S273 N275 1.610 . S
N274 S273 1.613 . S
N274 C277 1.350 . S
N275 S273 1.610 . S
N275 C276 1.351 . S
C276 C270 1.428 . S
C276 N275 1.351 . S
C276 C277 1.434 . S
C277 C268 1.429 . S
C277 N274 1.350 . S
C277 C276 1.434 . S
C278 C279 1.369 . S
C278 C280 1.419 . S
C278 H282 0.930 . S
C279 C278 1.369 . S
C279 C288 1.429 . S
C280 C278 1.419 . S
C280 C281 1.363 . S
C280 H283 0.929 . S
C281 C280 1.363 . S
C281 C287 1.428 . S
H282 C278 0.930 . S
H283 C280 0.929 . S
S284 N285 1.613 . S
S284 N286 1.610 . S
N285 S284 1.613 . S
N285 C288 1.350 . S
N286 S284 1.610 . S
N286 C287 1.351 . S
C287 C281 1.428 . S
C287 N286 1.351 . S
C287 C288 1.434 . S
C288 C279 1.429 . S
C288 N285 1.350 . S
C288 C287 1.434 . S
C289 C290 1.369 . S
C289 C291 1.419 . S
C289 H293 0.930 . S
C290 C289 1.369 . S
C290 C299 1.429 . S
C291 C289 1.419 . S
C291 C292 1.363 . S
C291 H294 0.929 . S
C292 C291 1.363 . S
C292 C298 1.428 . S
H293 C289 0.930 . S
H294 C291 0.929 . S
S295 N296 1.613 . S
S295 N297 1.610 . S
N296 S295 1.613 . S
N296 C299 1.350 . S
N297 S295 1.610 . S
N297 C298 1.351 . S
C298 C292 1.428 . S
C298 N297 1.351 . S
C298 C299 1.434 . S
C299 C290 1.429 . S
C299 N296 1.350 . S
C299 C298 1.434 . S
C300 C301 1.369 . S
C300 C302 1.419 . S
C300 H304 0.930 . S
C301 C300 1.369 . S
C301 C310 1.429 . S
C302 C300 1.419 . S
C302 C303 1.363 . S
C302 H305 0.929 . S
C303 C302 1.363 . S
C303 C309 1.428 . S
H304 C300 0.930 . S
H305 C302 0.929 . S
S306 N307 1.613 . S
S306 N308 1.610 . S
N307 S306 1.613 . S
N307 C310 1.350 . S
N308 S306 1.610 . S
N308 C309 1.351 . S
C309 C303 1.428 . S
C309 N308 1.351 . S
C309 C310 1.434 . S
C310 C301 1.429 . S
C310 N307 1.350 . S
C310 C309 1.434 . S
C311 C312 1.369 . S
C311 C313 1.419 . S
C311 H315 0.930 1_556 S
C312 C311 1.369 . S
C312 C321 1.429 . S
C313 C311 1.419 . S
C313 C314 1.363 . S
C313 H316 0.929 . S
C314 C313 1.363 . S
C314 C320 1.428 . S
H315 C311 0.930 1_554 S
H316 C313 0.929 . S
S317 N318 1.613 . S
S317 N319 1.610 . S
N318 S317 1.613 . S
N318 C321 1.350 . S
N319 S317 1.610 . S
N319 C320 1.351 . S
C320 C314 1.428 . S
C320 N319 1.351 . S
C320 C321 1.434 . S
C321 C312 1.429 . S
C321 N318 1.350 . S
C321 C320 1.434 . S
C322 C323 1.369 . S
C322 C324 1.419 . S
C322 H326 0.930 . S
C323 C322 1.369 . S
C323 C332 1.429 . S
C324 C322 1.419 . S
C324 C325 1.363 . S
C324 H327 0.929 . S
C325 C324 1.363 . S
C325 C331 1.428 . S
H326 C322 0.930 . S
H327 C324 0.929 . S
S328 N329 1.613 . S
S328 N330 1.610 . S
N329 S328 1.613 . S
N329 C332 1.350 . S
N330 S328 1.610 . S
N330 C331 1.351 . S
C331 C325 1.428 . S
C331 N330 1.351 . S
C331 C332 1.434 . S
C332 C323 1.429 . S
C332 N329 1.350 . S
C332 C331 1.434 . S
C333 C334 1.369 . S
C333 C335 1.419 . S
C333 H337 0.930 . S
C334 C333 1.369 . S
C334 C343 1.429 . S
C335 C333 1.419 . S
C335 C336 1.363 . S
C335 H338 0.929 . S
C336 C335 1.363 . S
C336 C342 1.428 . S
H337 C333 0.930 . S
H338 C335 0.929 . S
S339 N340 1.613 . S
S339 N341 1.610 . S
N340 S339 1.613 . S
N340 C343 1.350 . S
N341 S339 1.610 . S
N341 C342 1.351 . S
C342 C336 1.428 . S
C342 N341 1.351 . S
C342 C343 1.434 . S
C343 C334 1.429 . S
C343 N340 1.350 . S
C343 C342 1.434 . S
C215 C107 1.630 . S
C213 C43 1.639 . S
C224 C10 1.642 . S
C226 C202 1.638 . S
C235 C21 1.640 . S
C237 C118 1.653 . S
C246 C32 1.607 . S
C248 C191 1.608 . S
C259 C102 1.414 . S
C257 C5 1.589 . S
C270 C195 1.688 . S
C268 C15 1.684 . S
C279 C27 1.621 . S
C281 C111 1.651 . S
C290 C38 1.586 . S
C292 C186 1.428 . S
C303 C197 1.394 . S
C301 C16 1.552 . S
C314 C113 1.354 . S
C312 C26 1.543 1_556 S
C325 C184 1.617 . S
C323 C37 1.603 . S
C334 C4 1.566 . S
C336 C100 1.592 . S
