# Generated by pormake.
# Topology tsx, (6,3)-cn, num edge types: 1
# Building blocks:
#     Node 0, Type 0, BuildingBlock: LEVNOQ01_clean_sbu_1, # of connection points: 6
#     Node 1, Type 0, BuildingBlock: LEVNOQ01_clean_sbu_1, # of connection points: 6
#     Node 2, Type 1, BuildingBlock: VETTIZ_charged_linker_0, # of connection points: 3
#     Node 3, Type 1, BuildingBlock: VETTIZ_charged_linker_0, # of connection points: 3
#     Node 4, Type 1, BuildingBlock: VETTIZ_charged_linker_0, # of connection points: 3
#     Node 5, Type 1, BuildingBlock: VETTIZ_charged_linker_0, # of connection points: 3
#     Edge 6, Type (0, 1), BuildingBlock: MIFKUJ_clean_linker_0, # of connection points: 2
#     Edge 7, Type (0, 1), BuildingBlock: MIFKUJ_clean_linker_0, # of connection points: 2
#     Edge 8, Type (0, 1), BuildingBlock: MIFKUJ_clean_linker_0, # of connection points: 2
#     Edge 9, Type (0, 1), BuildingBlock: MIFKUJ_clean_linker_0, # of connection points: 2
#     Edge 10, Type (0, 1), BuildingBlock: MIFKUJ_clean_linker_0, # of connection points: 2
#     Edge 11, Type (0, 1), BuildingBlock: MIFKUJ_clean_linker_0, # of connection points: 2
#     Edge 12, Type (0, 1), BuildingBlock: MIFKUJ_clean_linker_0, # of connection points: 2
#     Edge 13, Type (0, 1), BuildingBlock: MIFKUJ_clean_linker_0, # of connection points: 2
#     Edge 14, Type (0, 1), BuildingBlock: MIFKUJ_clean_linker_0, # of connection points: 2
#     Edge 15, Type (0, 1), BuildingBlock: MIFKUJ_clean_linker_0, # of connection points: 2
#     Edge 16, Type (0, 1), BuildingBlock: MIFKUJ_clean_linker_0, # of connection points: 2
#     Edge 17, Type (0, 1), BuildingBlock: MIFKUJ_clean_linker_0, # of connection points: 2
# Relax obj value: 0.135
# Max RMSD: 0.160
# Mean RMSD: 0.124
data_MOF--net-tsx--node1-LEVNOQ01_clean_sbu_1--node2-VETTIZ_charged_linker_0--edge1-MIFKUJ_clean_linker_0
_symmetry_space_group_name_H-M    P1
_symmetry_Int_Tables_number       1
_symmetry_cell_setting            triclinic
loop_
_symmetry_equiv_pos_as_xyz
'x, y, z'
_cell_length_a     27.733913
_cell_length_b     33.521233
_cell_length_c     56.111813
_cell_angle_alpha  97.380108
_cell_angle_beta   90.129604
_cell_angle_gamma 90.705593
loop_
_atom_site_label
_atom_site_type_symbol
_atom_site_fract_x
_atom_site_fract_y
_atom_site_fract_z
_atom_type_partial_charge
O0 O 0.14172 0.03851 0.05652 0.0
Mg1 Mg 0.16281 0.04047 0.02042 0.0
O2 O 0.06462 0.03451 0.04638 0.0
Mg3 Mg 0.05874 0.03424 0.00502 0.0
O4 O 0.12338 0.0795 0.00308 0.0
O5 O 0.20171 0.08854 0.01269 0.0
O6 O 0.05142 0.03366 0.96378 0.0
O7 O 0.01751 0.09754 0.01173 0.0
Mg8 Mg 0.96375 0.0364 -0.00198 0.0
O9 O 0.99514 0.98612 0.0075 0.0
O10 O 0.97477 0.04948 0.96246 0.0
O11 O 0.94707 0.08258 0.02536 0.0
O12 O 0.9163 0.9909 -0.00157 0.0
C13 C 0.14606 0.96157 -0.00541 0.0
C14 C 0.09775 0.03566 0.06228 0.0
C15 C 0.16293 0.10097 0.00341 0.0
C16 C 0.0149 0.04318 0.95199 0.0
C17 C 0.97791 0.10899 0.02185 0.0
C18 C 0.95173 0.97064 0.00534 0.0
O19 O 0.18023 0.98639 -0.00017 0.0
O20 O 0.10225 0.97281 -0.00274 0.0
O21 O 0.61321 0.55094 0.56388 0.0
Mg22 Mg 0.65718 0.55496 0.53375 0.0
O23 O 0.54941 0.52655 0.54248 0.0
Mg24 Mg 0.56287 0.53454 0.50191 0.0
O25 O 0.62108 0.58438 0.50975 0.0
O26 O 0.68773 0.60935 0.52869 0.0
O27 O 0.58268 0.54833 0.46214 0.0
O28 O 0.50685 0.58575 0.50519 0.0
Mg29 Mg 0.5117 0.51067 0.46764 0.0
O30 O 0.50075 0.48209 0.49693 0.0
O31 O 0.56596 0.48971 0.44287 0.0
O32 O 0.48177 0.5694 0.46808 0.0
O33 O 0.45679 0.47127 0.46295 0.0
C34 C 0.66161 0.47454 0.50354 0.0
C35 C 0.57099 0.53586 0.56264 0.0
C36 C 0.65319 0.61296 0.51372 0.0
C37 C 0.58621 0.5235 0.44309 0.0
C38 C 0.48184 0.59372 0.48736 0.0
C39 C 0.46592 0.46308 0.4843 0.0
O40 O 0.68643 0.50074 0.51673 0.0
O41 O 0.61828 0.48169 0.49765 0.0
C42 C 0.12401 0.92534 0.46029 0.0
C43 C 0.15846 0.89924 0.4485 0.0
C44 C 0.15963 0.89369 0.42319 0.0
C45 C 0.09376 0.93991 0.42164 0.0
C46 C 0.09221 0.94557 0.44649 0.0
C47 C 0.05453 0.97587 0.45573 0.0
H48 H 0.87409 0.09958 0.42961 0.0
C49 C 0.05642 0.96501 0.41245 0.0
C50 C 0.03293 0.98615 0.43229 0.0
H51 H 0.93186 0.08764 0.49964 0.0
H52 H 0.98771 0.03672 0.4818 0.0
H53 H 0.97106 0.10618 0.40661 0.0
H54 H 0.87594 0.00429 0.40701 0.0
H55 H 0.89822 0.00264 0.37761 0.0
H56 H 0.86397 0.04548 0.39044 0.0
H57 H 0.92007 0.09827 0.38681 0.0
H58 H 0.97841 0.07772 0.37847 0.0
C59 C 0.08052 0.01253 0.47005 0.0
C60 C 0.01734 0.95497 0.47063 0.0
C61 C 0.03732 0.96578 0.3222 0.0
C62 C 0.00635 0.9867 0.30836 0.0
C63 C 0.97035 0.01115 0.32013 0.0
C64 C 0.96585 0.01536 0.34515 0.0
C65 C 0.99786 -0.00481 0.35876 0.0
C66 C 0.03248 0.97054 0.34727 0.0
C67 C 0.0634 0.95169 0.36477 0.0
C68 C 0.04226 0.96991 0.38865 0.0
C69 C 0.00398 -0.00473 0.38493 0.0
C70 C 0.11629 0.9657 0.36174 0.0
C71 C 0.05527 0.90549 0.36016 0.0
C72 C 0.89789 0.0852 0.44117 0.0
C73 C 0.89818 0.09673 0.46605 0.0
C74 C 0.93104 0.07869 0.48044 0.0
C75 C 0.96336 0.04942 0.47003 0.0
C76 C 0.9633 0.0388 0.44493 0.0
C77 C 0.93091 0.05687 0.43104 0.0
C78 C 0.93825 0.04514 0.40465 0.0
C79 C 0.97991 0.01645 0.40482 0.0
C80 C 0.99439 0.01233 0.42841 0.0
C81 C 0.95236 0.08361 0.39335 0.0
C82 C 0.89173 0.02346 0.39416 0.0
H83 H 0.13052 0.90799 0.3906 0.0
H84 H 0.12246 0.93037 0.47973 0.0
H85 H 0.00689 0.92493 0.46111 0.0
H86 H 0.98354 0.97184 0.47355 0.0
H87 H 0.03256 0.9505 0.48842 0.0
H88 H 0.11613 0.01824 0.46194 0.0
H89 H 0.087 0.00741 0.48896 0.0
H90 H 0.06065 0.04082 0.46988 0.0
H91 H 0.06501 0.94635 0.31376 0.0
H92 H 0.94643 0.02811 0.31006 0.0
H93 H 0.93805 0.03479 0.35292 0.0
H94 H 0.11775 -0.00276 0.35752 0.0
H95 H 0.13432 0.94652 0.34684 0.0
H96 H 0.13806 0.96619 0.37827 0.0
H97 H 0.01763 0.89788 0.35414 0.0
H98 H 0.05973 0.89074 0.37653 0.0
H99 H 0.0798 0.89136 0.34599 0.0
H100 H 0.18518 0.87329 0.41368 0.0
C101 C 0.12756 0.9137 0.40977 0.0
C102 C 0.10766 0.14894 0.55477 0.0
C103 C 0.13931 0.17592 0.56876 0.0
C104 C 0.13564 0.17968 0.59401 0.0
C105 C 0.0732 0.12844 0.59114 0.0
C106 C 0.07469 0.12566 0.56638 0.0
C107 C 0.03765 0.09575 0.55476 0.0
H108 H 0.85938 0.95955 0.56954 0.0
C109 C 0.03638 0.09998 0.59788 0.0
C110 C 0.01461 0.08096 0.57674 0.0
H111 H 0.91131 -0.00555 0.50254 0.0
H112 H 0.96879 0.04088 0.52455 0.0
H113 H 0.96235 0.95397 0.59299 0.0
H114 H 0.85711 0.04795 0.5987 0.0
H115 H 0.8811 0.04692 0.62761 0.0
H116 H 0.84934 0.00325 0.61285 0.0
H117 H 0.90726 0.95112 0.60943 0.0
H118 H 0.96078 0.9749 0.62328 0.0
C119 C 0.06446 0.06178 0.53906 0.0
C120 C 0.00128 0.11848 0.54066 0.0
C121 C 0.02007 0.07963 0.68555 0.0
C122 C 0.98951 0.05541 0.69767 0.0
C123 C 0.95345 0.03186 0.68468 0.0
C124 C 0.9488 0.03161 0.65977 0.0
C125 C 0.98034 0.05542 0.64775 0.0
C126 C 0.01461 0.07939 0.66075 0.0
C127 C 0.04371 0.10393 0.64527 0.0
C128 C 0.02261 0.0895 0.62062 0.0
C129 C 0.98572 0.06105 0.62217 0.0
C130 C 0.0973 0.09209 0.64723 0.0
C131 C 0.0334 0.1491 0.65336 0.0
C132 C 0.88233 0.97769 0.55948 0.0
C133 C 0.88018 0.97366 0.53426 0.0
C134 C 0.91215 -0.00305 0.52197 0.0
C135 C 0.94534 0.0239 0.53471 0.0
C136 C 0.9468 0.02748 0.55995 0.0
C137 C 0.91554 0.00447 0.57183 0.0
C138 C 0.92255 0.01106 0.59858 0.0
C139 C 0.96269 0.04235 0.60096 0.0
C140 C 0.97703 0.05201 0.57831 0.0
C141 C 0.93877 0.97079 0.60672 0.0
C142 C 0.87513 0.02791 0.61024 0.0
H143 H 0.10296 0.16033 0.6244 0.0
H144 H 0.10897 0.14555 0.53533 0.0
H145 H 0.9952 0.14937 0.54994 0.0
H146 H 0.96526 0.10396 0.5394 0.0
H147 H 0.01456 0.12128 0.52227 0.0
H148 H 0.09695 0.05273 0.54861 0.0
H149 H 0.07655 0.07187 0.52192 0.0
H150 H 0.04247 0.03411 0.53491 0.0
H151 H 0.04746 0.09861 0.69523 0.0
H152 H 0.92951 0.013 0.69375 0.0
H153 H 0.92108 0.01266 0.65081 0.0
H154 H 0.10055 0.05894 0.64673 0.0
H155 H 0.11352 0.10645 0.66438 0.0
H156 H 0.11968 0.09989 0.63224 0.0
H157 H 0.99854 0.15335 0.66309 0.0
H158 H 0.02958 0.16645 0.63794 0.0
H159 H 0.06207 0.16327 0.6656 0.0
H160 H 0.15788 0.20118 0.60533 0.0
C161 C 0.10315 0.15613 0.60517 0.0
C162 C 0.6352 0.42662 0.959 0.0
C163 C 0.66816 0.39897 0.94722 0.0
C164 C 0.66521 0.38982 0.92201 0.0
C165 C 0.59971 0.43654 0.92052 0.0
C166 C 0.60138 0.4451 0.94529 0.0
C167 C 0.56411 0.47583 0.95452 0.0
H168 H 0.3955 0.60958 0.92745 0.0
C169 C 0.56187 0.46124 0.91132 0.0
C170 C 0.54053 0.48444 0.93116 0.0
H171 H 0.44167 0.58998 -0.00174 0.0
H172 H 0.49356 0.5354 0.98102 0.0
H173 H 0.49622 0.60335 0.90305 0.0
H174 H 0.38111 0.51831 0.90793 0.0
H175 H 0.40578 0.50502 0.87931 0.0
H176 H 0.37972 0.55417 0.88684 0.0
H177 H 0.44073 0.6039 0.88661 0.0
H178 H 0.49161 0.57517 0.87457 0.0
C179 C 0.59065 0.51323 0.96759 0.0
C180 C 0.52827 0.45602 0.97065 0.0
C181 C 0.53828 0.4585 0.82075 0.0
C182 C 0.50814 0.48062 0.80719 0.0
C183 C 0.47396 0.5066 0.81918 0.0
C184 C 0.47093 0.51179 0.84422 0.0
C185 C 0.50261 0.49102 0.85766 0.0
C186 C 0.53498 0.46433 0.84597 0.0
C187 C 0.5658 0.44524 0.86347 0.0
C188 C 0.54679 0.46531 0.88749 0.0
C189 C 0.51013 0.4922 0.88382 0.0
C190 C 0.61907 0.45707 0.85938 0.0
C191 C 0.55531 0.39933 0.85982 0.0
C192 C 0.41686 0.59353 0.93925 0.0
C193 C 0.41551 0.60425 0.96416 0.0
C194 C 0.44282 0.58219 0.979 0.0
C195 C 0.4729 0.55081 0.9689 0.0
C196 C 0.47515 0.54139 0.94369 0.0
C197 C 0.44639 0.56227 0.9295 0.0
C198 C 0.45152 0.54831 0.90325 0.0
C199 C 0.48889 0.51595 0.90366 0.0
C200 C 0.50334 0.51198 0.9273 0.0
C201 C 0.47068 0.58437 0.89102 0.0
C202 C 0.40209 0.53075 0.89362 0.0
H203 H 0.63136 0.39995 0.88961 0.0
H204 H 0.6363 0.43425 0.97834 0.0
H205 H 0.51989 0.42448 0.96284 0.0
H206 H 0.49319 0.47129 0.97229 0.0
H207 H 0.54357 0.45533 0.98891 0.0
H208 H 0.62233 0.52128 0.95697 0.0
H209 H 0.60387 0.50741 0.98552 0.0
H210 H 0.56799 0.54021 0.97001 0.0
H211 H 0.56502 0.43841 0.81201 0.0
H212 H 0.4499 0.52347 0.80911 0.0
H213 H 0.44466 0.5326 0.85211 0.0
H214 H 0.62187 0.4886 0.85524 0.0
H215 H 0.63489 0.43729 0.84406 0.0
H216 H 0.64208 0.45642 0.87538 0.0
H217 H 0.51719 0.39278 0.85425 0.0
H218 H 0.55953 0.38545 0.87652 0.0
H219 H 0.57873 0.38363 0.84565 0.0
H220 H 0.68902 0.36793 0.91248 0.0
C221 C 0.63134 0.40829 0.9087 0.0
C222 C 0.59835 0.64902 0.05132 0.0
C223 C 0.63409 0.67385 0.06373 0.0
C224 C 0.6391 0.67424 0.08873 0.0
C225 C 0.57279 0.62694 0.08899 0.0
C226 C 0.56776 0.62606 0.06441 0.0
C227 C 0.52663 0.59869 0.05468 0.0
H228 H 0.34519 0.47026 0.07678 0.0
C229 C 0.53541 0.60059 0.09747 0.0
C230 C 0.50796 0.58383 0.07757 0.0
H231 H 0.39278 0.5003 0.00787 0.0
H232 H 0.45313 0.54593 0.02771 0.0
H233 H 0.45017 0.46177 0.09775 0.0
H234 H 0.35226 0.56153 0.10573 0.0
H235 H 0.37958 0.55916 0.1338 0.0
H236 H 0.34241 0.51761 0.1204 0.0
H237 H 0.39522 0.46127 0.11458 0.0
H238 H 0.45011 0.4827 0.12813 0.0
C239 C 0.54739 0.56421 0.03671 0.0
C240 C 0.48876 0.62446 0.04363 0.0
C241 C 0.53095 0.58386 0.18588 0.0
C242 C 0.49993 0.56309 0.19975 0.0
C243 C 0.45944 0.54245 0.18888 0.0
C244 C 0.45083 0.54157 0.16412 0.0
C245 C 0.48293 0.56183 0.15024 0.0
C246 C 0.52156 0.58317 0.16135 0.0
C247 C 0.55069 0.60451 0.14428 0.0
C248 C 0.52434 0.59137 0.12082 0.0
C249 C 0.48493 0.56617 0.1243 0.0
C250 C 0.60277 0.58807 0.14398 0.0
C251 C 0.54669 0.6505 0.15222 0.0
C252 C 0.36772 0.48742 0.06595 0.0
C253 C 0.36377 0.48194 0.04074 0.0
C254 C 0.39501 0.50395 0.02731 0.0
C255 C 0.42999 0.53043 0.03882 0.0
C256 C 0.43407 0.53486 0.06399 0.0
C257 C 0.40306 0.51362 0.07712 0.0
C258 C 0.41405 0.52041 0.1036 0.0
C259 C 0.45689 0.54909 0.10424 0.0
C260 C 0.46842 0.55768 0.08099 0.0
C261 C 0.42787 0.47953 0.11166 0.0
C262 C 0.36984 0.54047 0.11676 0.0
H263 H 0.61485 0.65285 0.12032 0.0
H264 H 0.59378 0.64811 0.03209 0.0
H265 H 0.4828 0.65308 0.0556 0.0
H266 H 0.45307 0.60953 0.04141 0.0
H267 H 0.50098 0.63224 0.02594 0.0
H268 H 0.58495 0.55718 0.04161 0.0
H269 H 0.54811 0.57243 0.01815 0.0
H270 H 0.52725 0.53555 0.03669 0.0
H271 H 0.56195 0.60037 0.194 0.0
H272 H 0.43511 0.52639 0.19948 0.0
H273 H 0.41984 0.52488 0.1567 0.0
H274 H 0.60243 0.55524 0.14532 0.0
H275 H 0.62426 0.60322 0.15934 0.0
H276 H 0.62215 0.59102 0.12711 0.0
H277 H 0.51266 0.65803 0.16218 0.0
H278 H 0.54516 0.66802 0.13682 0.0
H279 H 0.57707 0.66197 0.16421 0.0
H280 H 0.66694 0.69248 0.09858 0.0
C281 C 0.60882 0.65103 0.10136 0.0
H282 H 0.10214 0.16408 0.01506 0.0
H283 H 0.12328 0.23505 0.01325 0.0
H284 H 0.25049 0.19854 0.97239 0.0
H285 H 0.23023 0.12818 0.97485 0.0
H286 H 0.27297 0.24336 0.01349 0.0
H287 H 0.15889 0.25163 0.94922 0.0
H288 H 0.07825 0.24395 0.93047 0.0
H289 H 0.02079 0.32767 0.98738 0.0
H290 H 0.10098 0.33553 0.00659 0.0
H291 H 0.38241 0.42585 0.00223 0.0
H292 H 0.33372 0.36642 0.9877 0.0
H293 H 0.22164 0.4063 0.03798 0.0
H294 H 0.27005 0.46625 0.05251 0.0
H295 H 0.1867 0.36255 0.9919 0.0
H296 H 0.29411 0.35039 0.0577 0.0
H297 H 0.37208 0.35797 0.07909 0.0
H298 H 0.43822 0.27971 0.02217 0.0
H299 H 0.36074 0.27236 0.00018 0.0
C300 C 0.13339 0.17134 0.00481 0.0
C301 C 0.16475 0.1409 -0.00483 0.0
C302 C 0.14559 0.21187 0.00385 0.0
C303 C 0.18885 0.22216 0.99291 0.0
C304 C 0.21721 0.19138 0.98109 0.0
C305 C 0.20547 0.15118 0.98236 0.0
C306 C 0.20899 0.26381 -0.00294 0.0
C307 C 0.25433 0.2692 0.00829 0.0
C308 C 0.18387 0.29788 0.99133 0.0
C309 C 0.1359 0.29393 0.97945 0.0
C310 C 0.12901 0.26825 0.9578 0.0
C311 C 0.08337 0.2639 0.94707 0.0
C312 C 0.04436 0.28525 0.95775 0.0
C313 C 0.05099 0.31116 0.97911 0.0
C314 C 0.09656 0.31563 0.9899 0.0
C315 C 0.34673 0.42276 0.00965 0.0
C316 C 0.33034 0.45052 0.02874 0.0
C317 C 0.31894 0.38873 0.00133 0.0
C318 C 0.27424 0.38183 0.0119 0.0
C319 C 0.25595 0.41112 0.02954 0.0
C320 C 0.28389 0.4451 0.03799 0.0
C321 C 0.25112 0.34139 0.00746 0.0
C322 C 0.20529 0.33641 -0.00333 0.0
C323 C 0.2753 0.30742 0.01385 0.0
C324 C 0.32179 0.31122 0.02717 0.0
C325 C 0.32539 0.3351 0.04964 0.0
C326 C 0.36946 0.33932 0.06189 0.0
C327 C 0.41011 0.31941 0.05197 0.0
C328 C 0.40671 0.29517 0.02981 0.0
C329 C 0.36273 0.29097 0.01744 0.0
H330 H 0.44421 0.32269 0.06148 0.0
H331 H 0.00903 0.28177 0.94946 0.0
H332 H 0.10205 0.89425 0.00816 0.0
H333 H 0.13595 0.82615 0.00436 0.0
H334 H 0.25378 0.8656 0.96273 0.0
H335 H 0.22066 0.93322 0.96677 0.0
H336 H 0.22141 0.78873 0.94538 0.0
H337 H 0.26684 0.86703 0.02144 0.0
H338 H 0.24938 0.90573 0.06081 0.0
H339 H 0.17526 0.80333 0.08271 0.0
H340 H 0.19172 0.7642 0.04329 0.0
H341 H 0.4273 0.68042 0.95435 0.0
H342 H 0.3705 0.73562 0.96213 0.0
H343 H 0.28002 0.66259 0.00211 0.0
H344 H 0.33778 0.60701 -0.00546 0.0
H345 H 0.28315 0.74661 0.02133 0.0
H346 H 0.25108 0.66475 0.94695 0.0
H347 H 0.27327 0.62662 0.90809 0.0
H348 H 0.32283 0.73556 0.88289 0.0
H349 H 0.30188 0.77426 0.9218 0.0
C350 C 0.13437 0.88793 -0.00239 0.0
C351 C 0.15879 0.91893 0.98775 0.0
C352 C 0.15392 0.84919 -0.00437 0.0
C353 C 0.19772 0.84093 0.98348 0.0
C354 C 0.22003 0.87122 0.97219 0.0
C355 C 0.20105 0.90986 0.97449 0.0
C356 C 0.22303 0.80216 0.98392 0.0
C357 C 0.23468 0.77942 0.96198 0.0
C358 C 0.23958 0.78948 0.00563 0.0
C359 C 0.22991 0.8129 0.02933 0.0
C360 C 0.24645 0.85289 0.03458 0.0
C361 C 0.2368 0.87488 0.05691 0.0
C362 C 0.21106 0.85705 0.07422 0.0
C363 C 0.19507 0.81714 0.06926 0.0
C364 C 0.20454 0.79504 0.04693 0.0
C365 C 0.39592 0.67653 0.96534 0.0
C366 C 0.38664 0.63953 0.97375 0.0
C367 C 0.36339 0.70796 0.96968 0.0
C368 C 0.3205 0.7029 0.98223 0.0
C369 C 0.31278 0.66701 0.99226 0.0
C370 C 0.34575 0.6354 0.98802 0.0
C371 C 0.28254 0.73395 0.98274 0.0
C372 C 0.2687 0.75523 0.00478 0.0
C373 C 0.26384 0.74533 0.96111 0.0
C374 C 0.27509 0.72239 0.93736 0.0
C375 C 0.26691 0.68057 0.93316 0.0
C376 C 0.2793 0.65884 0.91113 0.0
C377 C 0.29949 0.67865 0.89304 0.0
C378 C 0.30718 0.72026 0.89692 0.0
C379 C 0.29501 0.74212 0.91896 0.0
H380 H 0.30912 0.66177 0.876 0.0
H381 H 0.20364 0.87411 0.09151 0.0
H382 H 0.96503 0.89805 0.97846 0.0
H383 H 0.9237 0.83482 0.98462 0.0
H384 H 0.86768 0.89212 0.05202 0.0
H385 H 0.90938 0.95458 0.04597 0.0
H386 H 0.88513 0.81569 0.05529 0.0
H387 H 0.80603 0.89139 -0.00168 0.0
H388 H 0.80101 0.92273 0.96095 0.0
H389 H 0.82491 0.80811 0.91922 0.0
H390 H 0.83071 0.77621 0.9564 0.0
H391 H 0.65384 0.75303 0.0766 0.0
H392 H 0.71907 0.7927 0.0619 0.0
H393 H 0.75445 0.69318 0.00851 0.0
H394 H 0.68887 0.65282 0.02343 0.0
H395 H 0.7594 0.77589 0.99336 0.0
H396 H 0.82014 0.69984 0.05358 0.0
H397 H 0.81713 0.67311 0.09249 0.0
H398 H 0.82178 0.7933 0.12971 0.0
H399 H 0.82393 0.82079 0.09101 0.0
C400 C 0.94554 0.89635 -0.00499 0.0
C401 C 0.94067 0.93067 0.01194 0.0
C402 C 0.92151 0.86049 -0.0016 0.0
C403 C 0.89189 0.85893 0.01859 0.0
C404 C 0.89031 0.8925 0.03633 0.0
C405 C 0.91425 0.92814 0.03294 0.0
C406 C 0.85824 0.8246 0.02036 0.0
C407 C 0.85792 0.80679 0.04166 0.0
C408 C 0.82303 0.81244 0.00242 0.0
C409 C 0.81948 0.83155 0.98011 0.0
C410 C 0.81058 0.87296 0.98117 0.0
C411 C 0.80755 0.8908 0.96004 0.0
C412 C 0.81281 0.86745 0.93773 0.0
C413 C 0.82098 0.82618 0.93651 0.0
C414 C 0.82417 0.8082 0.9576 0.0
C415 C 0.67502 0.73976 0.06149 0.0
C416 C 0.66685 0.69969 0.05137 0.0
C417 C 0.71223 0.76243 0.05312 0.0
C418 C 0.74206 0.74554 0.03446 0.0
C419 C 0.73187 0.70657 0.02303 0.0
C420 C 0.69441 0.68367 0.03148 0.0
C421 C 0.78571 0.7681 0.02853 0.0
C422 C 0.78769 0.78376 0.00657 0.0
C423 C 0.82205 0.77881 0.04601 0.0
C424 C 0.82202 0.76236 0.06936 0.0
C425 C 0.82027 0.72058 0.07005 0.0
C426 C 0.81871 0.70529 0.09208 0.0
C427 C 0.81922 0.73149 0.11356 0.0
C428 C 0.82142 0.77304 0.11306 0.0
C429 C 0.82287 0.78849 0.09108 0.0
H430 H 0.81797 0.7196 0.13059 0.0
H431 H 0.81042 0.88131 0.92138 0.0
H432 H 0.91084 0.14624 0.05188 0.0
H433 H 0.86577 0.20619 0.04567 0.0
H434 H 0.95947 0.2254 0.98684 0.0
H435 H 0.0057 0.16592 0.99348 0.0
H436 H 0.9269 0.29652 0.00908 0.0
H437 H 0.85674 0.16949 0.97674 0.0
H438 H 0.8265 0.10036 0.9782 0.0
H439 H 0.71972 0.14483 0.02989 0.0
H440 H 0.74988 0.21422 0.02902 0.0
H441 H 0.76233 0.3851 0.93476 0.0
H442 H 0.82077 0.3452 0.95354 0.0
H443 H 0.71837 0.3284 0.00926 0.0
H444 H 0.65875 0.36725 0.9899 0.0
H445 H 0.75565 0.25885 0.99151 0.0
H446 H 0.82357 0.3886 0.02012 0.0
H447 H 0.85554 0.45665 0.01683 0.0
H448 H 0.96696 0.40633 0.96957 0.0
H449 H 0.93509 0.33803 0.97222 0.0
C450 C 0.92292 0.16405 0.03817 0.0
C451 C 0.96142 0.15107 0.02298 0.0
C452 C 0.89688 0.19817 0.03451 0.0
C453 C 0.90814 0.21953 0.01525 0.0
C454 C 0.9497 0.20914 0.00164 0.0
C455 C 0.97628 0.17519 0.00553 0.0
C456 C 0.87349 0.24918 0.00764 0.0
C457 C 0.88952 0.28828 0.00512 0.0
C458 C 0.82448 0.23861 0.00265 0.0
C459 C 0.8059 0.19698 0.003 0.0
C460 C 0.82702 0.16449 0.98853 0.0
C461 C 0.80988 0.12527 0.98925 0.0
C462 C 0.77129 0.1182 0.00418 0.0
C463 C 0.74967 0.15036 0.01837 0.0
C464 C 0.76676 0.18963 0.01777 0.0
C465 C 0.75218 0.37307 0.95108 0.0
C466 C 0.70554 0.37907 0.96066 0.0
C467 C 0.78598 0.35062 0.962 0.0
C468 C 0.77436 0.33397 0.983 0.0
C469 C 0.72835 0.34101 0.9931 0.0
C470 C 0.69436 0.36347 0.98212 0.0
C471 C 0.80875 0.30657 0.99315 0.0
C472 C 0.79276 0.26753 -0.00411 0.0
C473 C 0.85781 0.31714 -0.00197 0.0
C474 C 0.87682 0.35821 -0.0037 0.0
C475 C 0.85467 0.39207 0.00888 0.0
C476 C 0.87279 0.43069 0.00715 0.0
C477 C 0.91322 0.43582 0.99298 0.0
C478 C 0.93564 0.40233 0.98054 0.0
C479 C 0.9176 0.36366 0.98217 0.0
H480 H 0.92721 0.46574 0.99168 0.0
H481 H 0.75807 0.08781 0.00471 0.0
H482 H 0.60952 0.6831 0.52908 0.0
H483 H 0.63606 0.74899 0.51939 0.0
H484 H 0.72712 0.69105 0.46337 0.0
H485 H 0.70084 0.62516 0.47337 0.0
H486 H 0.778 0.7368 0.49678 0.0
H487 H 0.63784 0.75579 0.45068 0.0
H488 H 0.55067 0.75599 0.44208 0.0
H489 H 0.53008 0.84681 0.50233 0.0
H490 H 0.61709 0.84672 0.51158 0.0
H491 H 0.89668 0.92103 0.49344 0.0
H492 H 0.84584 0.86377 0.47701 0.0
H493 H 0.73708 0.89989 0.52999 0.0
H494 H 0.78664 0.95798 0.54577 0.0
H495 H 0.69475 0.86486 0.48966 0.0
H496 H 0.82528 0.83466 0.54114 0.0
H497 H 0.9103 0.83294 0.55392 0.0
H498 H 0.94562 0.76141 0.48734 0.0
H499 H 0.86084 0.76322 0.47402 0.0
C500 C 0.63309 0.68456 0.51384 0.0
C501 C 0.65264 0.64929 0.50169 0.0
C502 C 0.64848 0.72223 0.50834 0.0
C503 C 0.68377 0.72508 0.49066 0.0
C504 C 0.69984 0.68964 0.47704 0.0
C505 C 0.68447 0.65201 0.48256 0.0
C506 C 0.71016 0.76378 0.48972 0.0
C507 C 0.75993 0.76457 0.49445 0.0
C508 C 0.68638 0.80032 0.48762 0.0
C509 C 0.63408 0.80107 0.48191 0.0
C510 C 0.61473 0.77565 0.46221 0.0
C511 C 0.56533 0.77576 0.45721 0.0
C512 C 0.53486 0.80134 0.47168 0.0
C513 C 0.55376 0.827 0.49114 0.0
C514 C 0.60316 0.82698 0.49625 0.0
C515 C 0.8613 0.91752 0.5011 0.0
C516 C 0.84619 0.94359 0.52127 0.0
C517 C 0.83236 0.8846 0.49178 0.0
C518 C 0.78806 0.87694 0.50262 0.0
C519 C 0.77118 0.9049 0.5214 0.0
C520 C 0.79987 0.93789 0.53059 0.0
C521 C 0.76237 0.8376 0.49676 0.0
C522 C 0.71287 0.83678 0.49114 0.0
C523 C 0.78603 0.80087 0.49846 0.0
C524 C 0.83692 0.79953 0.50646 0.0
C525 C 0.85127 0.81882 0.52916 0.0
C526 C 0.89938 0.8178 0.53651 0.0
C527 C 0.93337 0.79719 0.52142 0.0
C528 C 0.91927 0.77745 0.49898 0.0
C529 C 0.87121 0.77847 0.49152 0.0
H530 H 0.97061 0.79642 0.52714 0.0
H531 H 0.49663 0.8013 0.46779 0.0
H532 H 0.61447 0.40344 0.48771 0.0
H533 H 0.6493 0.33597 0.48145 0.0
H534 H 0.79067 0.38725 0.49808 0.0
H535 H 0.75641 0.4544 0.50429 0.0
H536 H 0.79319 0.32789 0.46023 0.0
H537 H 0.72737 0.348 0.54027 0.0
H538 H 0.66327 0.36341 0.5703 0.0
H539 H 0.57997 0.26206 0.53756 0.0
H540 H 0.64334 0.24639 0.50709 0.0
H541 H 0.92716 0.1669 0.49212 0.0
H542 H 0.88031 0.22879 0.49983 0.0
H543 H 0.75388 0.16523 0.46948 0.0
H544 H 0.80092 0.10345 0.46125 0.0
H545 H 0.73885 0.22766 0.5127 0.0
H546 H 0.8064 0.20683 0.43317 0.0
H547 H 0.87228 0.19066 0.40426 0.0
H548 H 0.95291 0.29384 0.43664 0.0
H549 H 0.8879 0.31007 0.46614 0.0
C550 C 0.65306 0.40036 0.48965 0.0
C551 C 0.68262 0.43427 0.49665 0.0
C552 C 0.67285 0.36179 0.48623 0.0
C553 C 0.7225 0.35657 0.48962 0.0
C554 C 0.75227 0.39054 0.49545 0.0
C555 C 0.73256 0.42893 0.49905 0.0
C556 C 0.74364 0.31582 0.48803 0.0
C557 C 0.78142 0.30613 0.47181 0.0
C558 C 0.72781 0.2871 0.50286 0.0
C559 C 0.68981 0.29632 0.52123 0.0
C560 C 0.6952 0.3292 0.53935 0.0
C561 C 0.65904 0.33795 0.55647 0.0
C562 C 0.6175 0.31381 0.55579 0.0
C563 C 0.61212 0.28079 0.53803 0.0
C564 C 0.64815 0.27194 0.52083 0.0
C565 C 0.88902 0.16588 0.48784 0.0
C566 C 0.86755 0.13059 0.47607 0.0
C567 C 0.86238 0.2012 0.49214 0.0
C568 C 0.8138 0.20152 0.48504 0.0
C569 C 0.79128 0.16549 0.47512 0.0
C570 C 0.81812 0.13034 0.47042 0.0
C571 C 0.78858 0.24022 0.48516 0.0
C572 C 0.75018 0.24941 0.50104 0.0
C573 C 0.80377 0.26857 0.47004 0.0
C574 C 0.84253 0.25939 0.45204 0.0
C575 C 0.83838 0.22585 0.43428 0.0
C576 C 0.87553 0.21669 0.41777 0.0
C577 C 0.91681 0.24115 0.41865 0.0
C578 C 0.92095 0.27488 0.43601 0.0
C579 C 0.88396 0.28406 0.45264 0.0
H580 H 0.94554 0.23404 0.40584 0.0
H581 H 0.58954 0.32063 0.56907 0.0
H582 H 0.38893 0.42289 0.46241 0.0
H583 H 0.33694 0.37323 0.47754 0.0
H584 H 0.42038 0.38285 0.54301 0.0
H585 H 0.47352 0.43329 0.52786 0.0
H586 H 0.3973 0.30178 0.52183 0.0
H587 H 0.3162 0.42684 0.54537 0.0
H588 H 0.28287 0.49211 0.53814 0.0
H589 H 0.18571 0.43198 0.48521 0.0
H590 H 0.21895 0.36637 0.49187 0.0
H591 H 0.23085 0.19492 0.58489 0.0
H592 H 0.28728 0.24232 0.57072 0.0
H593 H 0.1906 0.25833 0.51241 0.0
H594 H 0.13168 0.21305 0.52781 0.0
H595 H 0.22206 0.32765 0.53084 0.0
H596 H 0.30129 0.2039 0.50524 0.0
H597 H 0.33572 0.13758 0.50918 0.0
H598 H 0.43665 0.19274 0.56191 0.0
H599 H 0.40239 0.25934 0.55853 0.0
C600 C 0.39659 0.41464 0.48005 0.0
C601 C 0.43545 0.43229 0.49397 0.0
C602 C 0.36658 0.38621 0.48868 0.0
C603 C 0.37446 0.37471 0.51147 0.0
C604 C 0.41368 0.39152 0.52537 0.0
C605 C 0.44387 0.42034 0.51673 0.0
C606 C 0.34119 0.34512 0.52043 0.0
C607 C 0.3591 0.30756 0.52427 0.0
C608 C 0.29113 0.35231 0.52264 0.0
C609 C 0.27031 0.3917 0.51901 0.0
C610 C 0.28791 0.42755 0.5321 0.0
C611 C 0.26901 0.46461 0.52811 0.0
C612 C 0.23227 0.4662 0.51119 0.0
C613 C 0.21419 0.43071 0.4983 0.0
C614 C 0.233 0.39357 0.5022 0.0
C615 C 0.2212 0.20866 0.56913 0.0
C616 C 0.17617 0.20056 0.55775 0.0
C617 C 0.25407 0.23537 0.56078 0.0
C618 C 0.2437 0.25369 0.54028 0.0
C619 C 0.19953 0.2446 0.52828 0.0
C620 C 0.16604 0.21832 0.53694 0.0
C621 C 0.27794 0.28383 0.53226 0.0
C622 C 0.26022 0.32163 0.52853 0.0
C623 C 0.32811 0.27659 0.52979 0.0
C624 C 0.34897 0.23658 0.53177 0.0
C625 C 0.3306 0.20185 0.51779 0.0
C626 C 0.35012 0.16421 0.51991 0.0
C627 C 0.38827 0.16093 0.53583 0.0
C628 C 0.40707 0.19531 0.54961 0.0
C629 C 0.38765 0.23302 0.54758 0.0
H630 H 0.40332 0.13176 0.53745 0.0
H631 H 0.21775 0.49493 0.5081 0.0
H632 H 0.46555 0.65021 0.52665 0.0
H633 H 0.40993 0.70713 0.52914 0.0
H634 H 0.37412 0.67606 0.45417 0.0
H635 H 0.42873 0.61946 0.45156 0.0
H636 H 0.4039 0.77408 0.50522 0.0
H637 H 0.2561 0.68571 0.44597 0.0
H638 H 0.22554 0.61595 0.4372 0.0
H639 H 0.2754 0.5906 0.50611 0.0
H640 H 0.30564 0.66036 0.51545 0.0
H641 H 0.25524 0.89226 0.4415 0.0
H642 H 0.30973 0.84637 0.45818 0.0
H643 H 0.19469 0.80918 0.50238 0.0
H644 H 0.13951 0.85486 0.48527 0.0
H645 H 0.23504 0.74596 0.47806 0.0
H646 H 0.29439 0.86059 0.52774 0.0
H647 H 0.32516 0.92983 0.5387 0.0
H648 H 0.44933 0.90323 0.49418 0.0
H649 H 0.41884 0.83408 0.48256 0.0
C650 C 0.44596 0.65567 0.5107 0.0
C651 C 0.45121 0.62997 0.48898 0.0
C652 C 0.41428 0.68821 0.51214 0.0
C653 C 0.38721 0.69536 0.49195 0.0
C654 C 0.39386 0.67063 0.47011 0.0
C655 C 0.4253 0.63829 0.46865 0.0
C656 C 0.35126 0.72808 0.49339 0.0
C657 C 0.36685 0.76806 0.49948 0.0
C658 C 0.30257 0.72005 0.48658 0.0
C659 C 0.28335 0.67827 0.48135 0.0
C660 C 0.26023 0.66536 0.45933 0.0
C661 C 0.24304 0.62578 0.45424 0.0
C662 C 0.24861 0.59884 0.47107 0.0
C663 C 0.27122 0.61147 0.49306 0.0
C664 C 0.28843 0.65102 0.49826 0.0
C665 C 0.24174 0.87479 0.45508 0.0
C666 C 0.19301 0.87688 0.46194 0.0
C667 C 0.27307 0.84879 0.46477 0.0
C668 C 0.2565 0.82437 0.48166 0.0
C669 C 0.20835 0.82779 0.48942 0.0
C670 C 0.17693 0.85404 0.47976 0.0
C671 C 0.28807 0.79232 0.48888 0.0
C672 C 0.27173 0.75225 0.4843 0.0
C673 C 0.33582 0.80037 0.49742 0.0
C674 C 0.35416 0.84212 0.50418 0.0
C675 C 0.32804 0.86958 0.52011 0.0
C676 C 0.34546 0.90883 0.52646 0.0
C677 C 0.38913 0.92094 0.51712 0.0
C678 C 0.41549 0.89382 0.5014 0.0
C679 C 0.39818 0.85457 0.49495 0.0
H680 H 0.40257 0.95133 0.52208 0.0
H681 H 0.23535 0.5682 0.46707 0.0
H682 H 0.00772 0.02985 0.08182 0.0
H683 H 0.98802 0.01798 0.12285 0.0
H684 H 0.13949 0.01839 0.14047 0.0
H685 H 0.15959 0.03004 0.09962 0.0
H686 H 0.0912 0.9549 0.15586 0.0
H687 H 0.07235 0.09832 0.1595 0.0
H688 H 0.03965 0.16032 0.14675 0.0
H689 H 0.89591 0.1214 0.16145 0.0
H690 H 0.92774 0.05885 0.17399 0.0
H691 H 0.09103 0.98639 0.28335 0.0
H692 H 0.10155 0.98933 0.24043 0.0
H693 H 0.94722 0.98761 0.23068 0.0
H694 H 0.93627 0.98375 0.27356 0.0
H695 H 0.99081 0.04812 0.2102 0.0
H696 H 0.00999 0.90695 0.20951 0.0
H697 H 0.04249 0.84487 0.2222 0.0
H698 H 0.1849 0.8788 0.20188 0.0
H699 H 0.15337 0.94144 0.1894 0.0
C700 C 0.03684 0.0277 0.09447 0.0
C701 C 0.08524 0.03103 0.08744 0.0
C702 C 0.0255 0.02092 0.1179 0.0
C703 C 0.06232 0.01739 0.13469 0.0
C704 C 0.11056 0.02089 0.12776 0.0
C705 C 0.12194 0.0278 0.10442 0.0
C706 C 0.05085 0.00983 0.15951 0.0
C707 C 0.06964 0.97546 0.16785 0.0
C708 C 0.02155 0.03606 0.17484 0.0
C709 C 0.00238 0.07371 0.16742 0.0
C710 C 0.03373 0.10282 0.15982 0.0
C711 C 0.01537 0.13809 0.15267 0.0
C712 C 0.96572 0.14474 0.15321 0.0
C713 C 0.93435 0.11617 0.16099 0.0
C714 C 0.95253 0.08082 0.16814 0.0
C715 C 0.05928 0.9857 0.27203 0.0
C716 C 0.01278 0.98493 0.28195 0.0
C717 C 0.06537 0.98754 0.2475 0.0
C718 C 0.02515 0.98858 0.23237 0.0
C719 C 0.97872 0.987 0.24207 0.0
C720 C 0.97257 0.98495 0.26659 0.0
C721 C 0.03173 0.99345 0.2067 0.0
C722 C 0.01203 0.02733 0.19818 0.0
C723 C 0.06017 0.96673 0.1912 0.0
C724 C 0.07935 0.92911 0.19872 0.0
C725 C 0.04831 0.90138 0.20794 0.0
C726 C 0.06655 0.86604 0.21506 0.0
C727 C 0.11575 0.85794 0.2129 0.0
C728 C 0.1468 0.88514 0.20357 0.0
C729 C 0.12875 0.92055 0.19645 0.0
H730 H 0.1298 0.83055 0.21841 0.0
H731 H 0.95157 0.17207 0.14767 0.0
H732 H 0.09225 0.02643 0.92186 0.0
H733 H 0.09433 0.02804 0.87826 0.0
H734 H 0.94699 0.06803 0.87994 0.0
H735 H 0.94438 0.06625 0.92309 0.0
H736 H 0.96133 0.00505 0.84533 0.0
H737 H 0.03974 0.13253 0.87391 0.0
H738 H 0.10258 0.175 0.89608 0.0
H739 H 0.21213 0.11236 0.8527 0.0
H740 H 0.14995 0.06915 0.83049 0.0
H741 H 0.92084 0.06651 0.7324 0.0
H742 H 0.93115 0.06464 0.77556 0.0
H743 H 0.08226 0.03896 0.76462 0.0
H744 H 0.07229 0.04254 0.72154 0.0
H745 H 0.07291 0.08934 0.80345 0.0
H746 H 0.99662 0.96418 0.77348 0.0
H747 H 0.93548 0.91976 0.75139 0.0
H748 H 0.8246 0.97433 0.79744 0.0
H749 H 0.88498 0.01948 0.8196 0.0
C750 C 0.06045 0.03579 0.91293 0.0
C751 C 0.01808 0.04599 0.92594 0.0
C752 C 0.06173 0.03679 0.88806 0.0
C753 C 0.02078 0.04816 0.87592 0.0
C754 C 0.97888 0.05896 0.88896 0.0
C755 C 0.97754 0.05798 0.91367 0.0
C756 C 0.02034 0.04774 0.84951 0.0
C757 C 0.98545 0.02373 0.83617 0.0
C758 C 0.05295 0.07103 0.83753 0.0
C759 C 0.09024 0.09733 0.85072 0.0
C760 C 0.07725 0.12762 0.86922 0.0
C761 C 0.11275 0.15186 0.88177 0.0
C762 C 0.16132 0.1463 0.87585 0.0
C763 C 0.1745 0.11659 0.8573 0.0
C764 C 0.13915 0.09224 0.84471 0.0
C765 C 0.95616 0.06042 0.73927 0.0
C766 C 0.9957 0.05438 0.72374 0.0
C767 C 0.96206 0.05922 0.76388 0.0
C768 C 0.00731 0.0508 0.7733 0.0
C769 C 0.04701 0.0454 0.75779 0.0
C770 C 0.04129 0.04735 0.73323 0.0
C771 C 0.01297 0.04737 0.79928 0.0
C772 C 0.04897 0.07042 0.81253 0.0
C773 C 0.98165 0.02285 0.81122 0.0
C774 C 0.9453 -0.00459 0.79809 0.0
C775 C 0.95916 0.96686 0.77881 0.0
C776 C 0.92464 0.94154 0.76629 0.0
C777 C 0.87618 0.94427 0.77298 0.0
C778 C 0.86215 0.97226 0.79226 0.0
C779 C 0.89651 -0.00231 0.80483 0.0
H780 H 0.84951 0.92466 0.76325 0.0
H781 H 0.18875 0.16508 0.8856 0.0
H782 H 0.53137 0.4648 0.57245 0.0
H783 H 0.51575 0.44609 0.61269 0.0
H784 H 0.54676 0.56837 0.64375 0.0
H785 H 0.56458 0.58631 0.60389 0.0
H786 H 0.59923 0.51979 0.66445 0.0
H787 H 0.4298 0.52126 0.64196 0.0
H788 H 0.35975 0.4997 0.6161 0.0
H789 H 0.38056 0.37726 0.62839 0.0
H790 H 0.45111 0.39806 0.65412 0.0
H791 H 0.51569 0.54413 0.782 0.0
H792 H 0.52245 0.54338 0.73863 0.0
H793 H 0.52017 0.41364 0.7291 0.0
H794 H 0.51329 0.41421 0.77297 0.0
H795 H 0.45775 0.45177 0.69609 0.0
H796 H 0.62166 0.4523 0.72224 0.0
H797 H 0.69161 0.47428 0.74803 0.0
H798 H 0.6811 0.5935 0.72836 0.0
H799 H 0.6106 0.57241 0.70274 0.0
C800 C 0.53331 0.48779 0.58788 0.0
C801 C 0.54903 0.52697 0.58523 0.0
C802 C 0.52454 0.47711 0.61086 0.0
C803 C 0.53035 0.50577 0.63134 0.0
C804 C 0.54255 0.5456 0.62831 0.0
C805 C 0.55231 0.55597 0.60553 0.0
C806 C 0.52851 0.49427 0.65607 0.0
C807 C 0.568 0.50524 0.67134 0.0
C808 C 0.48889 0.47349 0.66486 0.0
C809 C 0.44601 0.46115 0.64975 0.0
C810 C 0.4196 0.48971 0.63903 0.0
C811 C 0.37979 0.47764 0.62442 0.0
C812 C 0.36581 0.43712 0.62054 0.0
C813 C 0.39147 0.40863 0.63138 0.0
C814 C 0.43134 0.42054 0.64599 0.0
C815 C 0.5164 0.51539 0.7707 0.0
C816 C 0.51377 0.47921 0.78082 0.0
C817 C 0.52039 0.51501 0.74594 0.0
C818 C 0.52181 0.47848 0.73069 0.0
C819 C 0.51898 0.44213 0.74062 0.0
C820 C 0.51547 0.44249 0.76559 0.0
C821 C 0.52739 0.4792 0.70449 0.0
C822 C 0.48902 0.46593 0.68898 0.0
C823 C 0.568 0.49799 0.69536 0.0
C824 C 0.61061 0.5108 0.71067 0.0
C825 C 0.63402 0.48328 0.72355 0.0
C826 C 0.67382 0.49557 0.73812 0.0
C827 C 0.69074 0.53527 0.73986 0.0
C828 C 0.66795 0.56276 0.727 0.0
C829 C 0.6281 0.55063 0.71242 0.0
H830 H 0.72156 0.54473 0.75115 0.0
H831 H 0.33504 0.42782 0.60918 0.0
H832 H 0.62144 0.47908 0.40307 0.0
H833 H 0.61756 0.49651 0.36201 0.0
H834 H 0.56836 0.61506 0.38924 0.0
H835 H 0.57387 0.59842 0.43041 0.0
H836 H 0.50494 0.54668 0.35431 0.0
H837 H 0.64824 0.63107 0.36507 0.0
H838 H 0.7335 0.64508 0.37596 0.0
H839 H 0.7772 0.5498 0.32209 0.0
H840 H 0.69206 0.53478 0.31116 0.0
H841 H 0.45132 0.59947 0.23851 0.0
H842 H 0.47392 0.60183 0.281 0.0
H843 H 0.59609 0.52642 0.2606 0.0
H844 H 0.57479 0.52608 0.21819 0.0
H845 H 0.62377 0.58062 0.29391 0.0
H846 H 0.48625 0.49129 0.28446 0.0
H847 H 0.40259 0.47032 0.27375 0.0
H848 H 0.34927 0.5657 0.32495 0.0
H849 H 0.43266 0.58757 0.33574 0.0
C850 C 0.61185 0.50941 0.40035 0.0
C851 C 0.59796 0.53738 0.41987 0.0
C852 C 0.60953 0.51928 0.37694 0.0
C853 C 0.59262 0.55699 0.37272 0.0
C854 C 0.58191 0.58594 0.39225 0.0
C855 C 0.58534 0.57643 0.41573 0.0
C856 C 0.57857 0.56327 0.34811 0.0
C857 C 0.53057 0.55493 0.34114 0.0
C858 C 0.61257 0.57259 0.33095 0.0
C859 C 0.66374 0.58148 0.33752 0.0
C860 C 0.67598 0.61277 0.35576 0.0
C861 C 0.7243 0.62098 0.36188 0.0
C862 C 0.76074 0.59826 0.34978 0.0
C863 C 0.74893 0.56733 0.33148 0.0
C864 C 0.70065 0.55898 0.3253 0.0
C865 C 0.48275 0.58329 0.24328 0.0
C866 C 0.51114 0.56225 0.22535 0.0
C867 C 0.49566 0.58454 0.26748 0.0
C868 C 0.53641 0.56382 0.27412 0.0
C869 C 0.56462 0.54273 0.25603 0.0
C870 C 0.55228 0.54222 0.23185 0.0
C871 C 0.54976 0.56381 0.29983 0.0
C872 C 0.59771 0.57297 0.30703 0.0
C873 C 0.51583 0.55441 0.31718 0.0
C874 C 0.46567 0.54135 0.3107 0.0
C875 C 0.45667 0.50798 0.29329 0.0
C876 C 0.40931 0.49591 0.28723 0.0
C877 C 0.37064 0.51675 0.29861 0.0
C878 C 0.37926 0.54964 0.31612 0.0
C879 C 0.42656 0.56188 0.32222 0.0
H880 H 0.334 0.50734 0.2939 0.0
H881 H 0.79813 0.60468 0.35453 0.0
loop_
_geom_bond_atom_site_label_1
_geom_bond_atom_site_label_2
_geom_bond_distance
_geom_bond_site_symmetry_2
_ccdc_geom_bond_type
O0 Mg1 1.990 . S
O0 C14 1.253 . S
Mg1 O0 1.990 . S
Mg1 O4 2.180 . S
Mg1 O5 2.117 . S
Mg1 O19 2.030 1_545 S
O2 Mg3 2.072 . S
O2 C14 1.260 . S
Mg3 O2 2.072 . S
Mg3 O4 2.099 . S
Mg3 O6 2.079 1_554 S
Mg3 O7 2.072 . S
Mg3 O9 2.099 1_444 S
Mg3 O20 2.078 1_544 S
O4 Mg1 2.180 . S
O4 Mg3 2.099 . S
O4 C15 1.279 . S
O5 Mg1 2.117 . S
O5 C15 1.250 . S
O6 Mg3 2.079 1_556 S
O6 C16 1.264 . S
O7 Mg3 2.072 . S
O7 C17 1.260 1_455 S
Mg8 O9 2.180 1_545 S
Mg8 O10 2.030 . S
Mg8 O11 1.990 . S
Mg8 O12 2.142 1_545 S
O9 Mg3 2.099 1_666 S
O9 Mg8 2.180 1_565 S
O9 C18 1.279 1_556 S
O10 Mg8 2.030 . S
O10 C16 1.248 1_655 S
O11 Mg8 1.990 . S
O11 C17 1.253 1_556 S
O12 Mg8 2.142 1_565 S
O12 C18 1.242 1_556 S
C13 O19 1.248 . S
C13 O20 1.251 1_554 S
C14 O0 1.253 . S
C14 O2 1.260 . S
C15 O4 1.279 . S
C15 O5 1.250 . S
C16 O6 1.264 . S
C16 O10 1.248 1_455 S
C17 O7 1.260 1_655 S
C17 O11 1.253 1_554 S
C18 O9 1.279 1_554 S
C18 O12 1.242 1_554 S
O19 Mg1 2.030 1_565 S
O19 C13 1.248 . S
O20 Mg3 2.078 1_566 S
O20 C13 1.251 1_556 S
O21 Mg22 1.990 . S
O21 C35 1.253 . S
Mg22 O21 1.990 . S
Mg22 O25 2.180 . S
Mg22 O26 2.117 . S
Mg22 O40 2.030 . S
O23 Mg24 2.072 . S
O23 C35 1.260 . S
Mg24 O23 2.072 . S
Mg24 O25 2.099 . S
Mg24 O27 2.079 . S
Mg24 O28 2.072 . S
Mg24 O30 2.099 . S
Mg24 O41 2.079 . S
O25 Mg22 2.180 . S
O25 Mg24 2.099 . S
O25 C36 1.279 . S
O26 Mg22 2.117 . S
O26 C36 1.250 . S
O27 Mg24 2.079 . S
O27 C37 1.264 . S
O28 Mg24 2.072 . S
O28 C38 1.260 . S
Mg29 O30 2.180 . S
Mg29 O31 2.030 . S
Mg29 O32 1.990 . S
Mg29 O33 2.117 . S
O30 Mg24 2.099 . S
O30 Mg29 2.180 . S
O30 C39 1.279 . S
O31 Mg29 2.030 . S
O31 C37 1.248 . S
O32 Mg29 1.990 . S
O32 C38 1.253 . S
O33 Mg29 2.117 . S
O33 C39 1.250 . S
C34 O40 1.248 . S
C34 O41 1.264 . S
C35 O21 1.253 . S
C35 O23 1.260 . S
C36 O25 1.279 . S
C36 O26 1.250 . S
C37 O27 1.264 . S
C37 O31 1.248 . S
C38 O28 1.260 . S
C38 O32 1.253 . S
C39 O30 1.279 . S
C39 O33 1.250 . S
O40 Mg22 2.030 . S
O40 C34 1.248 . S
O41 Mg24 2.079 . S
O41 C34 1.264 . S
C42 C43 1.391 . S
C42 C46 1.391 . S
C42 H84 0.948 . S
C43 C42 1.391 . S
C43 C44 1.391 . S
C44 C43 1.391 . S
C44 H100 0.947 . S
C44 C101 1.392 . S
C45 C46 1.391 . S
C45 C49 1.397 . S
C45 C101 1.419 . S
C46 C42 1.391 . S
C46 C45 1.391 . S
C46 C47 1.399 . S
C47 C46 1.399 . S
C47 C50 1.396 . S
C47 C59 1.453 1_565 S
C47 C60 1.684 . S
H48 C72 0.948 . S
C49 C45 1.397 . S
C49 C50 1.394 . S
C49 C68 1.723 . S
C50 C47 1.396 . S
C50 C49 1.394 . S
C50 C80 1.723 1_565 S
H51 C74 0.947 . S
H52 C75 0.948 . S
H53 C81 0.982 1_455 S
H54 C82 0.979 . S
H55 C82 0.980 . S
H56 C82 0.983 . S
H57 C81 0.979 . S
H58 C81 0.977 . S
C59 C47 1.453 1_545 S
C59 H88 0.982 . S
C59 H89 0.979 1_545 S
C59 H90 0.977 . S
C60 C47 1.684 . S
C60 H85 0.986 . S
C60 H86 0.980 . S
C60 H87 0.983 . S
C61 C62 1.403 . S
C61 C66 1.391 . S
C61 H91 0.948 . S
C62 C61 1.403 . S
C62 C63 1.380 1_565 S
C63 C62 1.380 1_545 S
C63 C64 1.392 . S
C63 H92 0.947 1_455 S
C64 C63 1.392 . S
C64 C65 1.419 . S
C64 H93 0.948 1_455 S
C65 C64 1.419 . S
C65 C66 1.391 1_545 S
C65 C69 1.397 . S
C66 C61 1.391 . S
C66 C65 1.391 1_565 S
C66 C67 1.399 . S
C67 C66 1.399 . S
C67 C68 1.396 . S
C67 C70 1.453 . S
C67 C71 1.684 . S
C68 C49 1.723 . S
C68 C67 1.396 . S
C68 C69 1.394 1_565 S
C69 C65 1.397 . S
C69 C68 1.394 1_545 S
C69 C79 1.723 . S
C70 C67 1.453 . S
C70 H94 0.982 . S
C70 H95 0.979 . S
C70 H96 0.977 . S
C71 C67 1.684 . S
C71 H97 0.979 . S
C71 H98 0.980 . S
C71 H99 0.983 . S
C72 H48 0.948 . S
C72 C73 1.391 . S
C72 C77 1.391 . S
C73 C72 1.391 . S
C73 C74 1.391 . S
C74 H51 0.947 . S
C74 C73 1.391 . S
C74 C75 1.392 . S
C75 H52 0.948 . S
C75 C74 1.392 . S
C75 C76 1.419 . S
C76 C75 1.419 . S
C76 C77 1.391 . S
C76 C80 1.397 1_655 S
C77 C72 1.391 . S
C77 C76 1.391 . S
C77 C78 1.399 . S
C78 C77 1.399 . S
C78 C79 1.396 1_655 S
C78 C81 1.453 . S
C78 C82 1.684 . S
C79 C69 1.723 . S
C79 C78 1.396 1_455 S
C79 C80 1.394 . S
C80 C50 1.723 1_545 S
C80 C76 1.397 1_455 S
C80 C79 1.394 . S
C81 H53 0.982 1_655 S
C81 H57 0.979 . S
C81 H58 0.977 . S
C81 C78 1.453 . S
C82 H54 0.979 . S
C82 H55 0.980 . S
C82 H56 0.983 . S
C82 C78 1.684 . S
H83 C101 0.948 . S
H84 C42 0.948 . S
H85 C60 0.986 . S
H86 C60 0.980 . S
H87 C60 0.983 . S
H88 C59 0.982 . S
H89 C59 0.979 1_565 S
H90 C59 0.977 . S
H91 C61 0.948 . S
H92 C63 0.947 1_655 S
H93 C64 0.948 1_655 S
H94 C70 0.982 . S
H95 C70 0.979 . S
H96 C70 0.977 . S
H97 C71 0.979 . S
H98 C71 0.980 . S
H99 C71 0.983 . S
H100 C44 0.947 . S
C101 C44 1.392 . S
C101 C45 1.419 . S
C101 H83 0.948 . S
C102 C103 1.391 . S
C102 C106 1.391 . S
C102 H144 0.948 . S
C103 C102 1.391 . S
C103 C104 1.391 . S
C104 C103 1.391 . S
C104 H160 0.947 . S
C104 C161 1.392 . S
C105 C106 1.391 . S
C105 C109 1.397 . S
C105 C161 1.419 . S
C106 C102 1.391 . S
C106 C105 1.391 . S
C106 C107 1.399 . S
C107 C106 1.399 . S
C107 C110 1.396 . S
C107 C119 1.453 . S
C107 C120 1.684 1_455 S
H108 C132 0.948 . S
C109 C105 1.397 . S
C109 C110 1.394 . S
C109 C128 1.723 . S
C110 C107 1.396 . S
C110 C109 1.394 . S
C110 C140 1.723 1_455 S
H111 C134 0.947 . S
H112 C135 0.948 . S
H113 C141 0.982 . S
H114 C142 0.979 . S
H115 C142 0.980 . S
H116 C142 0.983 1_565 S
H117 C141 0.979 . S
H118 C141 0.977 . S
C119 C107 1.453 . S
C119 H148 0.982 . S
C119 H149 0.979 . S
C119 H150 0.977 . S
C120 C107 1.684 1_655 S
C120 H145 0.979 . S
C120 H146 0.980 . S
C120 H147 0.983 . S
C121 C122 1.391 1_455 S
C121 C126 1.391 . S
C121 H151 0.948 . S
C122 C121 1.391 1_655 S
C122 C123 1.391 . S
C123 C122 1.391 . S
C123 C124 1.392 . S
C123 H152 0.947 . S
C124 C123 1.392 . S
C124 C125 1.419 . S
C124 H153 0.948 . S
C125 C124 1.419 . S
C125 C126 1.391 1_655 S
C125 C129 1.397 . S
C126 C121 1.391 . S
C126 C125 1.391 1_455 S
C126 C127 1.399 . S
C127 C126 1.399 . S
C127 C128 1.396 . S
C127 C130 1.453 . S
C127 C131 1.684 . S
C128 C109 1.723 . S
C128 C127 1.396 . S
C128 C129 1.394 1_455 S
C129 C125 1.397 . S
C129 C128 1.394 1_655 S
C129 C139 1.723 . S
C130 C127 1.453 . S
C130 H154 0.982 . S
C130 H155 0.979 . S
C130 H156 0.977 . S
C131 C127 1.684 . S
C131 H157 0.979 . S
C131 H158 0.980 . S
C131 H159 0.983 . S
C132 H108 0.948 . S
C132 C133 1.391 . S
C132 C137 1.391 1_565 S
C133 C132 1.391 . S
C133 C134 1.391 . S
C134 H111 0.947 . S
C134 C133 1.391 . S
C134 C135 1.392 1_565 S
C135 H112 0.948 . S
C135 C134 1.392 1_545 S
C135 C136 1.419 . S
C136 C135 1.419 . S
C136 C137 1.391 . S
C136 C140 1.397 . S
C137 C132 1.391 1_545 S
C137 C136 1.391 . S
C137 C138 1.399 . S
C138 C137 1.399 . S
C138 C139 1.396 . S
C138 C141 1.453 1_545 S
C138 C142 1.684 . S
C139 C129 1.723 . S
C139 C138 1.396 . S
C139 C140 1.394 . S
C140 C110 1.723 1_655 S
C140 C136 1.397 . S
C140 C139 1.394 . S
C141 H113 0.982 . S
C141 H117 0.979 . S
C141 H118 0.977 . S
C141 C138 1.453 1_565 S
C142 H114 0.979 . S
C142 H115 0.980 . S
C142 H116 0.983 1_545 S
C142 C138 1.684 . S
H143 C161 0.948 . S
H144 C102 0.948 . S
H145 C120 0.979 . S
H146 C120 0.980 . S
H147 C120 0.983 . S
H148 C119 0.982 . S
H149 C119 0.979 . S
H150 C119 0.977 . S
H151 C121 0.948 . S
H152 C123 0.947 . S
H153 C124 0.948 . S
H154 C130 0.982 . S
H155 C130 0.979 . S
H156 C130 0.977 . S
H157 C131 0.979 . S
H158 C131 0.980 . S
H159 C131 0.983 . S
H160 C104 0.947 . S
C161 C104 1.392 . S
C161 C105 1.419 . S
C161 H143 0.948 . S
C162 C163 1.391 . S
C162 C166 1.391 . S
C162 H204 0.948 . S
C163 C162 1.391 . S
C163 C164 1.391 . S
C164 C163 1.391 . S
C164 H220 0.947 . S
C164 C221 1.392 . S
C165 C166 1.391 . S
C165 C169 1.397 . S
C165 C221 1.419 . S
C166 C162 1.391 . S
C166 C165 1.391 . S
C166 C167 1.399 . S
C167 C166 1.399 . S
C167 C170 1.396 . S
C167 C179 1.453 . S
C167 C180 1.684 . S
H168 C192 0.948 . S
C169 C165 1.397 . S
C169 C170 1.394 . S
C169 C188 1.723 . S
C170 C167 1.396 . S
C170 C169 1.394 . S
C170 C200 1.723 . S
H171 C194 0.947 1_554 S
H172 C195 0.948 . S
H173 C201 0.982 . S
H174 C202 0.979 . S
H175 C202 0.980 . S
H176 C202 0.983 . S
H177 C201 0.979 . S
H178 C201 0.977 . S
C179 C167 1.453 . S
C179 H208 0.982 . S
C179 H209 0.979 . S
C179 H210 0.977 . S
C180 C167 1.684 . S
C180 H205 0.979 . S
C180 H206 0.980 . S
C180 H207 0.983 1_556 S
C181 C182 1.391 . S
C181 C186 1.391 . S
C181 H211 0.948 . S
C182 C181 1.391 . S
C182 C183 1.391 . S
C183 C182 1.391 . S
C183 C184 1.392 . S
C183 H212 0.947 . S
C184 C183 1.392 . S
C184 C185 1.419 . S
C184 H213 0.948 . S
C185 C184 1.419 . S
C185 C186 1.391 . S
C185 C189 1.397 . S
C186 C181 1.391 . S
C186 C185 1.391 . S
C186 C187 1.399 . S
C187 C186 1.399 . S
C187 C188 1.396 . S
C187 C190 1.453 . S
C187 C191 1.684 . S
C188 C169 1.723 . S
C188 C187 1.396 . S
C188 C189 1.394 . S
C189 C185 1.397 . S
C189 C188 1.394 . S
C189 C199 1.723 . S
C190 C187 1.453 . S
C190 H214 0.982 . S
C190 H215 0.979 . S
C190 H216 0.977 . S
C191 C187 1.684 . S
C191 H217 0.979 . S
C191 H218 0.980 . S
C191 H219 0.983 . S
C192 H168 0.948 . S
C192 C193 1.391 . S
C192 C197 1.391 . S
C193 C192 1.391 . S
C193 C194 1.391 . S
C194 H171 0.947 1_556 S
C194 C193 1.391 . S
C194 C195 1.392 . S
C195 H172 0.948 . S
C195 C194 1.392 . S
C195 C196 1.419 . S
C196 C195 1.419 . S
C196 C197 1.391 . S
C196 C200 1.397 . S
C197 C192 1.391 . S
C197 C196 1.391 . S
C197 C198 1.399 . S
C198 C197 1.399 . S
C198 C199 1.396 . S
C198 C201 1.453 . S
C198 C202 1.684 . S
C199 C189 1.723 . S
C199 C198 1.396 . S
C199 C200 1.394 . S
C200 C170 1.723 . S
C200 C196 1.397 . S
C200 C199 1.394 . S
C201 H173 0.982 . S
C201 H177 0.979 . S
C201 H178 0.977 . S
C201 C198 1.453 . S
C202 H174 0.979 . S
C202 H175 0.980 . S
C202 H176 0.983 . S
C202 C198 1.684 . S
H203 C221 0.948 . S
H204 C162 0.948 . S
H205 C180 0.979 . S
H206 C180 0.980 . S
H207 C180 0.983 1_554 S
H208 C179 0.982 . S
H209 C179 0.979 . S
H210 C179 0.977 . S
H211 C181 0.948 . S
H212 C183 0.947 . S
H213 C184 0.948 . S
H214 C190 0.982 . S
H215 C190 0.979 . S
H216 C190 0.977 . S
H217 C191 0.979 . S
H218 C191 0.980 . S
H219 C191 0.983 . S
H220 C164 0.947 . S
C221 C164 1.392 . S
C221 C165 1.419 . S
C221 H203 0.948 . S
C222 C223 1.391 . S
C222 C226 1.391 . S
C222 H264 0.948 . S
C223 C222 1.391 . S
C223 C224 1.391 . S
C224 C223 1.391 . S
C224 H280 0.947 . S
C224 C281 1.392 . S
C225 C226 1.391 . S
C225 C229 1.397 . S
C225 C281 1.419 . S
C226 C222 1.391 . S
C226 C225 1.391 . S
C226 C227 1.399 . S
C227 C226 1.399 . S
C227 C230 1.396 . S
C227 C239 1.453 . S
C227 C240 1.684 . S
H228 C252 0.948 . S
C229 C225 1.397 . S
C229 C230 1.394 . S
C229 C248 1.723 . S
C230 C227 1.396 . S
C230 C229 1.394 . S
C230 C260 1.723 . S
H231 C254 0.947 . S
H232 C255 0.948 . S
H233 C261 0.982 . S
H234 C262 0.979 . S
H235 C262 0.980 . S
H236 C262 0.983 . S
H237 C261 0.979 . S
H238 C261 0.977 . S
C239 C227 1.453 . S
C239 H268 0.982 . S
C239 H269 0.979 . S
C239 H270 0.977 . S
C240 C227 1.684 . S
C240 H265 0.979 . S
C240 H266 0.980 . S
C240 H267 0.983 . S
C241 C242 1.391 . S
C241 C246 1.391 . S
C241 H271 0.948 . S
C242 C241 1.391 . S
C242 C243 1.391 . S
C243 C242 1.391 . S
C243 C244 1.392 . S
C243 H272 0.947 . S
C244 C243 1.392 . S
C244 C245 1.419 . S
C244 H273 0.948 . S
C245 C244 1.419 . S
C245 C246 1.391 . S
C245 C249 1.397 . S
C246 C241 1.391 . S
C246 C245 1.391 . S
C246 C247 1.399 . S
C247 C246 1.399 . S
C247 C248 1.396 . S
C247 C250 1.453 . S
C247 C251 1.684 . S
C248 C229 1.723 . S
C248 C247 1.396 . S
C248 C249 1.394 . S
C249 C245 1.397 . S
C249 C248 1.394 . S
C249 C259 1.723 . S
C250 C247 1.453 . S
C250 H274 0.982 . S
C250 H275 0.979 . S
C250 H276 0.977 . S
C251 C247 1.684 . S
C251 H277 0.979 . S
C251 H278 0.980 . S
C251 H279 0.983 . S
C252 H228 0.948 . S
C252 C253 1.391 . S
C252 C257 1.391 . S
C253 C252 1.391 . S
C253 C254 1.391 . S
C254 H231 0.947 . S
C254 C253 1.391 . S
C254 C255 1.392 . S
C255 H232 0.948 . S
C255 C254 1.392 . S
C255 C256 1.419 . S
C256 C255 1.419 . S
C256 C257 1.391 . S
C256 C260 1.397 . S
C257 C252 1.391 . S
C257 C256 1.391 . S
C257 C258 1.399 . S
C258 C257 1.399 . S
C258 C259 1.396 . S
C258 C261 1.453 . S
C258 C262 1.684 . S
C259 C249 1.723 . S
C259 C258 1.396 . S
C259 C260 1.394 . S
C260 C230 1.723 . S
C260 C256 1.397 . S
C260 C259 1.394 . S
C261 H233 0.982 . S
C261 H237 0.979 . S
C261 H238 0.977 . S
C261 C258 1.453 . S
C262 H234 0.979 . S
C262 H235 0.980 . S
C262 H236 0.983 . S
C262 C258 1.684 . S
H263 C281 0.948 . S
H264 C222 0.948 . S
H265 C240 0.979 . S
H266 C240 0.980 . S
H267 C240 0.983 . S
H268 C239 0.982 . S
H269 C239 0.979 . S
H270 C239 0.977 . S
H271 C241 0.948 . S
H272 C243 0.947 . S
H273 C244 0.948 . S
H274 C250 0.982 . S
H275 C250 0.979 . S
H276 C250 0.977 . S
H277 C251 0.979 . S
H278 C251 0.980 . S
H279 C251 0.983 . S
H280 C224 0.947 . S
C281 C224 1.392 . S
C281 C225 1.419 . S
C281 H263 0.948 . S
H282 C300 0.951 . S
H283 C302 0.951 . S
H284 C304 0.950 . S
H285 C305 0.950 . S
H286 C307 0.950 . S
H287 C310 0.950 . S
H288 C311 0.950 . S
H289 C313 0.950 . S
H290 C314 0.950 . S
H291 C315 0.951 . S
H292 C317 0.951 . S
H293 C319 0.950 . S
H294 C320 0.950 . S
H295 C322 0.950 . S
H296 C325 0.950 . S
H297 C326 0.950 . S
H298 C328 0.950 . S
H299 C329 0.950 . S
C300 H282 0.951 . S
C300 C301 1.366 . S
C300 C302 1.388 . S
C301 C300 1.366 . S
C301 C305 1.385 . S
C302 H283 0.951 . S
C302 C300 1.388 . S
C302 C303 1.366 . S
C303 C302 1.366 . S
C303 C304 1.414 . S
C303 C306 1.499 . S
C304 H284 0.950 . S
C304 C303 1.414 . S
C304 C305 1.374 . S
C305 H285 0.950 . S
C305 C301 1.385 . S
C305 C304 1.374 . S
C306 C303 1.499 . S
C306 C307 1.373 . S
C306 C308 1.389 . S
C307 H286 0.950 . S
C307 C306 1.373 . S
C307 C323 1.377 . S
C308 C306 1.389 . S
C308 C309 1.524 1_554 S
C308 C322 1.377 . S
C309 C308 1.524 1_556 S
C309 C310 1.397 . S
C309 C314 1.363 . S
C310 H287 0.950 . S
C310 C309 1.397 . S
C310 C311 1.334 . S
C311 H288 0.950 . S
C311 C310 1.334 . S
C311 C312 1.287 . S
C312 C311 1.287 . S
C312 C313 1.524 . S
C312 H331 0.913 . S
C313 H289 0.950 . S
C313 C312 1.524 . S
C313 C314 1.415 . S
C314 H290 0.950 . S
C314 C309 1.363 . S
C314 C313 1.415 . S
C315 H291 0.951 . S
C315 C316 1.366 . S
C315 C317 1.388 . S
C316 C315 1.366 . S
C316 C320 1.385 . S
C317 H292 0.951 . S
C317 C315 1.388 . S
C317 C318 1.366 . S
C318 C317 1.366 . S
C318 C319 1.414 . S
C318 C321 1.499 . S
C319 H293 0.950 . S
C319 C318 1.414 . S
C319 C320 1.374 . S
C320 H294 0.950 . S
C320 C316 1.385 . S
C320 C319 1.374 . S
C321 C318 1.499 . S
C321 C322 1.373 . S
C321 C323 1.389 . S
C322 H295 0.950 . S
C322 C308 1.377 . S
C322 C321 1.373 . S
C323 C307 1.377 . S
C323 C321 1.389 . S
C323 C324 1.524 . S
C324 C323 1.524 . S
C324 C325 1.397 . S
C324 C329 1.363 . S
C325 H296 0.950 . S
C325 C324 1.397 . S
C325 C326 1.334 . S
C326 H297 0.950 . S
C326 C325 1.334 . S
C326 C327 1.287 . S
C327 C326 1.287 . S
C327 C328 1.524 . S
C327 H330 0.999 . S
C328 H298 0.950 . S
C328 C327 1.524 . S
C328 C329 1.415 . S
C329 H299 0.950 . S
C329 C324 1.363 . S
C329 C328 1.415 . S
H330 C327 0.999 . S
H331 C312 0.913 . S
H332 C350 0.951 . S
H333 C352 0.951 . S
H334 C354 0.950 . S
H335 C355 0.950 . S
H336 C357 0.950 . S
H337 C360 0.950 . S
H338 C361 0.950 . S
H339 C363 0.950 . S
H340 C364 0.950 . S
H341 C365 0.951 . S
H342 C367 0.951 . S
H343 C369 0.952 . S
H344 C370 0.950 1_554 S
H345 C372 0.950 . S
H346 C375 0.950 . S
H347 C376 0.950 . S
H348 C378 0.950 . S
H349 C379 0.950 . S
C350 H332 0.951 . S
C350 C351 1.366 . S
C350 C352 1.388 . S
C351 C350 1.366 . S
C351 C355 1.385 1_554 S
C352 H333 0.951 . S
C352 C350 1.388 . S
C352 C353 1.372 . S
C353 C352 1.372 . S
C353 C354 1.407 1_554 S
C353 C356 1.498 1_554 S
C354 H334 0.950 . S
C354 C353 1.407 1_556 S
C354 C355 1.374 . S
C355 H335 0.950 . S
C355 C351 1.385 1_556 S
C355 C354 1.374 . S
C356 C353 1.498 1_556 S
C356 C357 1.373 . S
C356 C358 1.389 1_556 S
C357 H336 0.950 . S
C357 C356 1.373 . S
C357 C373 1.377 . S
C358 C356 1.389 1_554 S
C358 C359 1.524 . S
C358 C372 1.377 . S
C359 C358 1.524 . S
C359 C360 1.397 . S
C359 C364 1.363 . S
C360 H337 0.950 . S
C360 C359 1.397 . S
C360 C361 1.334 . S
C361 H338 0.950 . S
C361 C360 1.334 . S
C361 C362 1.287 . S
C362 C361 1.287 . S
C362 C363 1.524 . S
C362 H381 0.913 . S
C363 H339 0.950 . S
C363 C362 1.524 . S
C363 C364 1.415 . S
C364 H340 0.950 . S
C364 C359 1.363 . S
C364 C363 1.415 . S
C365 H341 0.951 . S
C365 C366 1.366 . S
C365 C367 1.388 . S
C366 C365 1.366 . S
C366 C370 1.385 . S
C367 H342 0.951 . S
C367 C365 1.388 . S
C367 C368 1.366 . S
C368 C367 1.366 . S
C368 C369 1.413 1_556 S
C368 C371 1.499 . S
C369 H343 0.952 . S
C369 C368 1.413 1_554 S
C369 C370 1.374 1_554 S
C370 H344 0.950 1_556 S
C370 C366 1.385 . S
C370 C369 1.374 1_556 S
C371 C368 1.499 . S
C371 C372 1.373 1_556 S
C371 C373 1.389 . S
C372 H345 0.950 . S
C372 C358 1.377 . S
C372 C371 1.373 1_554 S
C373 C357 1.377 . S
C373 C371 1.389 . S
C373 C374 1.524 . S
C374 C373 1.524 . S
C374 C375 1.397 . S
C374 C379 1.363 . S
C375 H346 0.950 . S
C375 C374 1.397 . S
C375 C376 1.334 . S
C376 H347 0.950 . S
C376 C375 1.334 . S
C376 C377 1.287 . S
C377 C376 1.287 . S
C377 C378 1.524 . S
C377 H380 0.999 . S
C378 H348 0.950 . S
C378 C377 1.524 . S
C378 C379 1.415 . S
C379 H349 0.950 . S
C379 C374 1.363 . S
C379 C378 1.415 . S
H380 C377 0.999 . S
H381 C362 0.913 . S
H382 C400 0.962 . S
H383 C402 0.951 1_556 S
H384 C404 0.950 . S
H385 C405 0.950 . S
H386 C407 0.950 . S
H387 C410 0.950 . S
H388 C411 0.950 . S
H389 C413 0.950 . S
H390 C414 0.950 . S
H391 C415 0.951 . S
H392 C417 0.951 . S
H393 C419 0.950 . S
H394 C420 0.950 . S
H395 C422 0.950 1_556 S
H396 C425 0.950 . S
H397 C426 0.950 . S
H398 C428 0.950 . S
H399 C429 0.950 . S
C400 H382 0.962 . S
C400 C401 1.358 1_556 S
C400 C402 1.384 1_556 S
C401 C400 1.358 1_554 S
C401 C405 1.385 . S
C402 H383 0.951 1_554 S
C402 C400 1.384 1_554 S
C402 C403 1.366 . S
C403 C402 1.366 . S
C403 C404 1.414 . S
C403 C406 1.499 . S
C404 H384 0.950 . S
C404 C403 1.414 . S
C404 C405 1.374 . S
C405 H385 0.950 . S
C405 C401 1.385 . S
C405 C404 1.374 . S
C406 C403 1.499 . S
C406 C407 1.373 . S
C406 C408 1.389 . S
C407 H386 0.950 . S
C407 C406 1.373 . S
C407 C423 1.377 . S
C408 C406 1.389 . S
C408 C409 1.524 1_554 S
C408 C422 1.377 . S
C409 C408 1.524 1_556 S
C409 C410 1.397 . S
C409 C414 1.363 . S
C410 H387 0.950 . S
C410 C409 1.397 . S
C410 C411 1.334 . S
C411 H388 0.950 . S
C411 C410 1.334 . S
C411 C412 1.287 . S
C412 C411 1.287 . S
C412 C413 1.524 . S
C412 H431 0.913 . S
C413 H389 0.950 . S
C413 C412 1.524 . S
C413 C414 1.415 . S
C414 H390 0.950 . S
C414 C409 1.363 . S
C414 C413 1.415 . S
C415 H391 0.951 . S
C415 C416 1.366 . S
C415 C417 1.388 . S
C416 C415 1.366 . S
C416 C420 1.385 . S
C417 H392 0.951 . S
C417 C415 1.388 . S
C417 C418 1.366 . S
C418 C417 1.366 . S
C418 C419 1.414 . S
C418 C421 1.499 . S
C419 H393 0.950 . S
C419 C418 1.414 . S
C419 C420 1.374 . S
C420 H394 0.950 . S
C420 C416 1.385 . S
C420 C419 1.374 . S
C421 C418 1.499 . S
C421 C422 1.373 . S
C421 C423 1.389 . S
C422 H395 0.950 1_554 S
C422 C408 1.377 . S
C422 C421 1.373 . S
C423 C407 1.377 . S
C423 C421 1.389 . S
C423 C424 1.524 . S
C424 C423 1.524 . S
C424 C425 1.397 . S
C424 C429 1.363 . S
C425 H396 0.950 . S
C425 C424 1.397 . S
C425 C426 1.334 . S
C426 H397 0.950 . S
C426 C425 1.334 . S
C426 C427 1.287 . S
C427 C426 1.287 . S
C427 C428 1.524 . S
C427 H430 0.999 . S
C428 H398 0.950 . S
C428 C427 1.524 . S
C428 C429 1.415 . S
C429 H399 0.950 . S
C429 C424 1.363 . S
C429 C428 1.415 . S
H430 C427 0.999 . S
H431 C412 0.913 . S
H432 C450 0.951 . S
H433 C452 0.951 . S
H434 C454 0.950 . S
H435 C455 0.950 . S
H436 C457 0.950 . S
H437 C460 0.950 . S
H438 C461 0.950 . S
H439 C463 0.950 . S
H440 C464 0.950 . S
H441 C465 0.951 . S
H442 C467 0.951 . S
H443 C469 0.950 1_554 S
H444 C470 0.950 1_554 S
H445 C472 0.950 . S
H446 C475 0.917 1_554 S
H447 C476 0.950 . S
H448 C478 0.950 . S
H449 C479 0.950 . S
C450 H432 0.951 . S
C450 C451 1.366 . S
C450 C452 1.388 . S
C451 C450 1.366 . S
C451 C455 1.385 1_554 S
C452 H433 0.951 . S
C452 C450 1.388 . S
C452 C453 1.366 1_554 S
C453 C452 1.366 1_556 S
C453 C454 1.414 . S
C453 C456 1.499 . S
C454 H434 0.950 . S
C454 C453 1.414 . S
C454 C455 1.374 . S
C455 H435 0.950 . S
C455 C451 1.385 1_556 S
C455 C454 1.374 . S
C456 C453 1.499 . S
C456 C457 1.373 . S
C456 C458 1.389 . S
C457 H436 0.950 . S
C457 C456 1.373 . S
C457 C473 1.377 . S
C458 C456 1.389 . S
C458 C459 1.524 1_556 S
C458 C472 1.377 . S
C459 C458 1.524 1_554 S
C459 C460 1.397 1_554 S
C459 C464 1.363 . S
C460 H437 0.950 . S
C460 C459 1.397 1_556 S
C460 C461 1.334 . S
C461 H438 0.950 . S
C461 C460 1.334 . S
C461 C462 1.287 1_556 S
C462 C461 1.287 1_554 S
C462 C463 1.524 . S
C462 H481 0.913 . S
C463 H439 0.950 . S
C463 C462 1.524 . S
C463 C464 1.415 . S
C464 H440 0.950 . S
C464 C459 1.363 . S
C464 C463 1.415 . S
C465 H441 0.951 . S
C465 C466 1.366 . S
C465 C467 1.388 . S
C466 C465 1.366 . S
C466 C470 1.385 . S
C467 H442 0.951 . S
C467 C465 1.388 . S
C467 C468 1.366 . S
C468 C467 1.366 . S
C468 C469 1.414 . S
C468 C471 1.499 . S
C469 H443 0.950 1_556 S
C469 C468 1.414 . S
C469 C470 1.374 . S
C470 H444 0.950 1_556 S
C470 C466 1.385 . S
C470 C469 1.374 . S
C471 C468 1.499 . S
C471 C472 1.373 . S
C471 C473 1.389 . S
C472 H445 0.950 . S
C472 C458 1.377 . S
C472 C471 1.373 . S
C473 C457 1.377 . S
C473 C471 1.389 . S
C473 C474 1.524 . S
C474 C473 1.524 . S
C474 C475 1.397 . S
C474 C479 1.363 . S
C475 H446 0.917 1_556 S
C475 C474 1.397 . S
C475 C476 1.334 . S
C476 H447 0.950 . S
C476 C475 1.334 . S
C476 C477 1.287 . S
C477 C476 1.287 . S
C477 C478 1.524 . S
C477 H480 0.999 . S
C478 H448 0.950 . S
C478 C477 1.524 . S
C478 C479 1.415 . S
C479 H449 0.950 . S
C479 C474 1.363 . S
C479 C478 1.415 . S
H480 C477 0.999 . S
H481 C462 0.913 . S
H482 C500 0.951 . S
H483 C502 0.951 . S
H484 C504 0.950 . S
H485 C505 0.950 . S
H486 C507 0.950 . S
H487 C510 0.950 . S
H488 C511 0.950 . S
H489 C513 0.950 . S
H490 C514 0.950 . S
H491 C515 0.951 . S
H492 C517 0.951 . S
H493 C519 0.950 . S
H494 C520 0.950 . S
H495 C522 0.950 . S
H496 C525 0.950 . S
H497 C526 0.950 . S
H498 C528 0.950 . S
H499 C529 0.950 . S
C500 H482 0.951 . S
C500 C501 1.366 . S
C500 C502 1.388 . S
C501 C500 1.366 . S
C501 C505 1.385 . S
C502 H483 0.951 . S
C502 C500 1.388 . S
C502 C503 1.366 . S
C503 C502 1.366 . S
C503 C504 1.414 . S
C503 C506 1.499 . S
C504 H484 0.950 . S
C504 C503 1.414 . S
C504 C505 1.374 . S
C505 H485 0.950 . S
C505 C501 1.385 . S
C505 C504 1.374 . S
C506 C503 1.499 . S
C506 C507 1.373 . S
C506 C508 1.389 . S
C507 H486 0.950 . S
C507 C506 1.373 . S
C507 C523 1.377 . S
C508 C506 1.389 . S
C508 C509 1.524 . S
C508 C522 1.377 . S
C509 C508 1.524 . S
C509 C510 1.397 . S
C509 C514 1.363 . S
C510 H487 0.950 . S
C510 C509 1.397 . S
C510 C511 1.334 . S
C511 H488 0.950 . S
C511 C510 1.334 . S
C511 C512 1.287 . S
C512 C511 1.287 . S
C512 C513 1.524 . S
C512 H531 0.913 . S
C513 H489 0.950 . S
C513 C512 1.524 . S
C513 C514 1.415 . S
C514 H490 0.950 . S
C514 C509 1.363 . S
C514 C513 1.415 . S
C515 H491 0.951 . S
C515 C516 1.366 . S
C515 C517 1.388 . S
C516 C515 1.366 . S
C516 C520 1.385 . S
C517 H492 0.951 . S
C517 C515 1.388 . S
C517 C518 1.366 . S
C518 C517 1.366 . S
C518 C519 1.414 . S
C518 C521 1.499 . S
C519 H493 0.950 . S
C519 C518 1.414 . S
C519 C520 1.374 . S
C520 H494 0.950 . S
C520 C516 1.385 . S
C520 C519 1.374 . S
C521 C518 1.499 . S
C521 C522 1.373 . S
C521 C523 1.389 . S
C522 H495 0.950 . S
C522 C508 1.377 . S
C522 C521 1.373 . S
C523 C507 1.377 . S
C523 C521 1.389 . S
C523 C524 1.524 . S
C524 C523 1.524 . S
C524 C525 1.397 . S
C524 C529 1.363 . S
C525 H496 0.950 . S
C525 C524 1.397 . S
C525 C526 1.334 . S
C526 H497 0.950 . S
C526 C525 1.334 . S
C526 C527 1.287 . S
C527 C526 1.287 . S
C527 C528 1.524 . S
C527 H530 0.999 . S
C528 H498 0.950 . S
C528 C527 1.524 . S
C528 C529 1.415 . S
C529 H499 0.950 . S
C529 C524 1.363 . S
C529 C528 1.415 . S
H530 C527 0.999 . S
H531 C512 0.913 . S
H532 C550 0.951 . S
H533 C552 0.951 . S
H534 C554 0.950 . S
H535 C555 0.950 . S
H536 C557 0.950 . S
H537 C560 0.950 . S
H538 C561 0.950 . S
H539 C563 0.950 . S
H540 C564 0.950 . S
H541 C565 0.951 . S
H542 C567 0.951 . S
H543 C569 0.950 . S
H544 C570 0.950 . S
H545 C572 0.950 . S
H546 C575 0.950 . S
H547 C576 0.950 . S
H548 C578 0.950 . S
H549 C579 0.950 . S
C550 H532 0.951 . S
C550 C551 1.366 . S
C550 C552 1.388 . S
C551 C550 1.366 . S
C551 C555 1.385 . S
C552 H533 0.951 . S
C552 C550 1.388 . S
C552 C553 1.366 . S
C553 C552 1.366 . S
C553 C554 1.414 . S
C553 C556 1.499 . S
C554 H534 0.950 . S
C554 C553 1.414 . S
C554 C555 1.374 . S
C555 H535 0.950 . S
C555 C551 1.385 . S
C555 C554 1.374 . S
C556 C553 1.499 . S
C556 C557 1.373 . S
C556 C558 1.389 . S
C557 H536 0.950 . S
C557 C556 1.373 . S
C557 C573 1.377 . S
C558 C556 1.389 . S
C558 C559 1.524 . S
C558 C572 1.377 . S
C559 C558 1.524 . S
C559 C560 1.397 . S
C559 C564 1.363 . S
C560 H537 0.950 . S
C560 C559 1.397 . S
C560 C561 1.334 . S
C561 H538 0.950 . S
C561 C560 1.334 . S
C561 C562 1.287 . S
C562 C561 1.287 . S
C562 C563 1.524 . S
C562 H581 0.913 . S
C563 H539 0.950 . S
C563 C562 1.524 . S
C563 C564 1.415 . S
C564 H540 0.950 . S
C564 C559 1.363 . S
C564 C563 1.415 . S
C565 H541 0.951 . S
C565 C566 1.366 . S
C565 C567 1.388 . S
C566 C565 1.366 . S
C566 C570 1.385 . S
C567 H542 0.951 . S
C567 C565 1.388 . S
C567 C568 1.366 . S
C568 C567 1.366 . S
C568 C569 1.414 . S
C568 C571 1.499 . S
C569 H543 0.950 . S
C569 C568 1.414 . S
C569 C570 1.374 . S
C570 H544 0.950 . S
C570 C566 1.385 . S
C570 C569 1.374 . S
C571 C568 1.499 . S
C571 C572 1.373 . S
C571 C573 1.389 . S
C572 H545 0.950 . S
C572 C558 1.377 . S
C572 C571 1.373 . S
C573 C557 1.377 . S
C573 C571 1.389 . S
C573 C574 1.524 . S
C574 C573 1.524 . S
C574 C575 1.397 . S
C574 C579 1.363 . S
C575 H546 0.950 . S
C575 C574 1.397 . S
C575 C576 1.334 . S
C576 H547 0.950 . S
C576 C575 1.334 . S
C576 C577 1.287 . S
C577 C576 1.287 . S
C577 C578 1.524 . S
C577 H580 0.999 . S
C578 H548 0.950 . S
C578 C577 1.524 . S
C578 C579 1.415 . S
C579 H549 0.950 . S
C579 C574 1.363 . S
C579 C578 1.415 . S
H580 C577 0.999 . S
H581 C562 0.913 . S
H582 C600 0.951 . S
H583 C602 0.951 . S
H584 C604 0.950 . S
H585 C605 0.950 . S
H586 C607 0.950 . S
H587 C610 0.950 . S
H588 C611 0.950 . S
H589 C613 0.950 . S
H590 C614 0.950 . S
H591 C615 0.951 . S
H592 C617 0.951 . S
H593 C619 0.950 . S
H594 C620 0.950 . S
H595 C622 0.950 . S
H596 C625 0.950 . S
H597 C626 0.950 . S
H598 C628 0.950 . S
H599 C629 0.950 . S
C600 H582 0.951 . S
C600 C601 1.366 . S
C600 C602 1.388 . S
C601 C600 1.366 . S
C601 C605 1.385 . S
C602 H583 0.951 . S
C602 C600 1.388 . S
C602 C603 1.366 . S
C603 C602 1.366 . S
C603 C604 1.414 . S
C603 C606 1.499 . S
C604 H584 0.950 . S
C604 C603 1.414 . S
C604 C605 1.374 . S
C605 H585 0.950 . S
C605 C601 1.385 . S
C605 C604 1.374 . S
C606 C603 1.499 . S
C606 C607 1.373 . S
C606 C608 1.389 . S
C607 H586 0.950 . S
C607 C606 1.373 . S
C607 C623 1.377 . S
C608 C606 1.389 . S
C608 C609 1.524 . S
C608 C622 1.377 . S
C609 C608 1.524 . S
C609 C610 1.397 . S
C609 C614 1.363 . S
C610 H587 0.950 . S
C610 C609 1.397 . S
C610 C611 1.334 . S
C611 H588 0.950 . S
C611 C610 1.334 . S
C611 C612 1.287 . S
C612 C611 1.287 . S
C612 C613 1.524 . S
C612 H631 0.913 . S
C613 H589 0.950 . S
C613 C612 1.524 . S
C613 C614 1.415 . S
C614 H590 0.950 . S
C614 C609 1.363 . S
C614 C613 1.415 . S
C615 H591 0.951 . S
C615 C616 1.366 . S
C615 C617 1.388 . S
C616 C615 1.366 . S
C616 C620 1.385 . S
C617 H592 0.951 . S
C617 C615 1.388 . S
C617 C618 1.366 . S
C618 C617 1.366 . S
C618 C619 1.414 . S
C618 C621 1.499 . S
C619 H593 0.950 . S
C619 C618 1.414 . S
C619 C620 1.374 . S
C620 H594 0.950 . S
C620 C616 1.385 . S
C620 C619 1.374 . S
C621 C618 1.499 . S
C621 C622 1.373 . S
C621 C623 1.389 . S
C622 H595 0.950 . S
C622 C608 1.377 . S
C622 C621 1.373 . S
C623 C607 1.377 . S
C623 C621 1.389 . S
C623 C624 1.524 . S
C624 C623 1.524 . S
C624 C625 1.397 . S
C624 C629 1.363 . S
C625 H596 0.950 . S
C625 C624 1.397 . S
C625 C626 1.334 . S
C626 H597 0.950 . S
C626 C625 1.334 . S
C626 C627 1.287 . S
C627 C626 1.287 . S
C627 C628 1.524 . S
C627 H630 0.999 . S
C628 H598 0.950 . S
C628 C627 1.524 . S
C628 C629 1.415 . S
C629 H599 0.950 . S
C629 C624 1.363 . S
C629 C628 1.415 . S
H630 C627 0.999 . S
H631 C612 0.913 . S
H632 C650 0.951 . S
H633 C652 0.951 . S
H634 C654 0.950 . S
H635 C655 0.950 . S
H636 C657 0.950 . S
H637 C660 0.950 . S
H638 C661 0.950 . S
H639 C663 0.950 . S
H640 C664 0.950 . S
H641 C665 0.951 . S
H642 C667 0.951 . S
H643 C669 0.950 . S
H644 C670 0.950 . S
H645 C672 0.950 . S
H646 C675 0.950 . S
H647 C676 0.950 . S
H648 C678 0.950 . S
H649 C679 0.950 . S
C650 H632 0.951 . S
C650 C651 1.366 . S
C650 C652 1.388 . S
C651 C650 1.366 . S
C651 C655 1.385 . S
C652 H633 0.951 . S
C652 C650 1.388 . S
C652 C653 1.366 . S
C653 C652 1.366 . S
C653 C654 1.414 . S
C653 C656 1.499 . S
C654 H634 0.950 . S
C654 C653 1.414 . S
C654 C655 1.374 . S
C655 H635 0.950 . S
C655 C651 1.385 . S
C655 C654 1.374 . S
C656 C653 1.499 . S
C656 C657 1.373 . S
C656 C658 1.389 . S
C657 H636 0.950 . S
C657 C656 1.373 . S
C657 C673 1.377 . S
C658 C656 1.389 . S
C658 C659 1.524 . S
C658 C672 1.377 . S
C659 C658 1.524 . S
C659 C660 1.397 . S
C659 C664 1.363 . S
C660 H637 0.950 . S
C660 C659 1.397 . S
C660 C661 1.334 . S
C661 H638 0.950 . S
C661 C660 1.334 . S
C661 C662 1.287 . S
C662 C661 1.287 . S
C662 C663 1.524 . S
C662 H681 0.913 . S
C663 H639 0.950 . S
C663 C662 1.524 . S
C663 C664 1.415 . S
C664 H640 0.950 . S
C664 C659 1.363 . S
C664 C663 1.415 . S
C665 H641 0.951 . S
C665 C666 1.366 . S
C665 C667 1.388 . S
C666 C665 1.366 . S
C666 C670 1.385 . S
C667 H642 0.951 . S
C667 C665 1.388 . S
C667 C668 1.366 . S
C668 C667 1.366 . S
C668 C669 1.414 . S
C668 C671 1.499 . S
C669 H643 0.950 . S
C669 C668 1.414 . S
C669 C670 1.374 . S
C670 H644 0.950 . S
C670 C666 1.385 . S
C670 C669 1.374 . S
C671 C668 1.499 . S
C671 C672 1.373 . S
C671 C673 1.389 . S
C672 H645 0.950 . S
C672 C658 1.377 . S
C672 C671 1.373 . S
C673 C657 1.377 . S
C673 C671 1.389 . S
C673 C674 1.524 . S
C674 C673 1.524 . S
C674 C675 1.397 . S
C674 C679 1.363 . S
C675 H646 0.950 . S
C675 C674 1.397 . S
C675 C676 1.334 . S
C676 H647 0.950 . S
C676 C675 1.334 . S
C676 C677 1.287 . S
C677 C676 1.287 . S
C677 C678 1.524 . S
C677 H680 0.999 . S
C678 H648 0.950 . S
C678 C677 1.524 . S
C678 C679 1.415 . S
C679 H649 0.950 . S
C679 C674 1.363 . S
C679 C678 1.415 . S
H680 C677 0.999 . S
H681 C662 0.913 . S
H682 C700 0.951 1_655 S
H683 C702 0.951 1_655 S
H684 C704 0.950 . S
H685 C705 0.950 . S
H686 C707 0.950 . S
H687 C710 0.950 . S
H688 C711 0.950 . S
H689 C713 0.950 . S
H690 C714 0.950 . S
H691 C715 0.951 . S
H692 C717 0.951 . S
H693 C719 0.950 1_655 S
H694 C720 0.950 1_655 S
H695 C722 0.950 . S
H696 C725 0.950 . S
H697 C726 0.950 . S
H698 C728 0.950 . S
H699 C729 0.950 . S
C700 H682 0.951 1_455 S
C700 C701 1.366 . S
C700 C702 1.388 . S
C701 C700 1.366 . S
C701 C705 1.385 . S
C702 H683 0.951 1_455 S
C702 C700 1.388 . S
C702 C703 1.366 . S
C703 C702 1.366 . S
C703 C704 1.414 . S
C703 C706 1.499 . S
C704 H684 0.950 . S
C704 C703 1.414 . S
C704 C705 1.374 . S
C705 H685 0.950 . S
C705 C701 1.385 . S
C705 C704 1.374 . S
C706 C703 1.499 . S
C706 C707 1.373 1_545 S
C706 C708 1.389 . S
C707 H686 0.950 . S
C707 C706 1.373 1_565 S
C707 C723 1.377 . S
C708 C706 1.389 . S
C708 C709 1.524 . S
C708 C722 1.377 . S
C709 C708 1.524 . S
C709 C710 1.397 . S
C709 C714 1.363 1_455 S
C710 H687 0.950 . S
C710 C709 1.397 . S
C710 C711 1.334 . S
C711 H688 0.950 . S
C711 C710 1.334 . S
C711 C712 1.287 1_455 S
C712 C711 1.287 1_655 S
C712 C713 1.524 . S
C712 H731 0.913 . S
C713 H689 0.950 . S
C713 C712 1.524 . S
C713 C714 1.415 . S
C714 H690 0.950 . S
C714 C709 1.363 1_655 S
C714 C713 1.415 . S
C715 H691 0.951 . S
C715 C716 1.366 . S
C715 C717 1.388 . S
C716 C715 1.366 . S
C716 C720 1.385 1_565 S
C717 H692 0.951 . S
C717 C715 1.388 . S
C717 C718 1.366 1_565 S
C718 C717 1.366 1_545 S
C718 C719 1.414 . S
C718 C721 1.499 . S
C719 H693 0.950 1_455 S
C719 C718 1.414 . S
C719 C720 1.374 . S
C720 H694 0.950 1_455 S
C720 C716 1.385 1_545 S
C720 C719 1.374 . S
C721 C718 1.499 . S
C721 C722 1.373 . S
C721 C723 1.389 1_545 S
C722 H695 0.950 . S
C722 C708 1.377 . S
C722 C721 1.373 . S
C723 C707 1.377 . S
C723 C721 1.389 1_565 S
C723 C724 1.524 . S
C724 C723 1.524 . S
C724 C725 1.397 . S
C724 C729 1.363 . S
C725 H696 0.950 . S
C725 C724 1.397 . S
C725 C726 1.334 . S
C726 H697 0.950 . S
C726 C725 1.334 . S
C726 C727 1.287 . S
C727 C726 1.287 . S
C727 C728 1.524 . S
C727 H730 0.999 . S
C728 H698 0.950 . S
C728 C727 1.524 . S
C728 C729 1.415 . S
C729 H699 0.950 . S
C729 C724 1.363 . S
C729 C728 1.415 . S
H730 C727 0.999 . S
H731 C712 0.913 . S
H732 C750 0.951 . S
H733 C752 0.951 . S
H734 C754 0.950 . S
H735 C755 0.950 1_655 S
H736 C757 0.950 . S
H737 C760 0.950 . S
H738 C761 0.950 . S
H739 C763 0.950 . S
H740 C764 0.950 . S
H741 C765 0.951 . S
H742 C767 0.951 . S
H743 C769 0.950 . S
H744 C770 0.950 . S
H745 C772 0.950 . S
H746 C775 0.950 1_565 S
H747 C776 0.950 . S
H748 C778 0.950 . S
H749 C779 0.950 . S
C750 H732 0.951 . S
C750 C751 1.366 . S
C750 C752 1.388 . S
C751 C750 1.366 . S
C751 C755 1.385 . S
C752 H733 0.951 . S
C752 C750 1.388 . S
C752 C753 1.366 . S
C753 C752 1.366 . S
C753 C754 1.414 1_455 S
C753 C756 1.499 . S
C754 H734 0.950 . S
C754 C753 1.414 1_655 S
C754 C755 1.374 1_655 S
C755 H735 0.950 1_455 S
C755 C751 1.385 . S
C755 C754 1.374 1_455 S
C756 C753 1.499 . S
C756 C757 1.373 1_455 S
C756 C758 1.389 . S
C757 H736 0.950 . S
C757 C756 1.373 1_655 S
C757 C773 1.377 . S
C758 C756 1.389 . S
C758 C759 1.524 . S
C758 C772 1.377 . S
C759 C758 1.524 . S
C759 C760 1.397 . S
C759 C764 1.363 . S
C760 H737 0.950 . S
C760 C759 1.397 . S
C760 C761 1.334 . S
C761 H738 0.950 . S
C761 C760 1.334 . S
C761 C762 1.287 . S
C762 C761 1.287 . S
C762 C763 1.524 . S
C762 H781 0.913 . S
C763 H739 0.950 . S
C763 C762 1.524 . S
C763 C764 1.415 . S
C764 H740 0.950 . S
C764 C759 1.363 . S
C764 C763 1.415 . S
C765 H741 0.951 . S
C765 C766 1.366 1_655 S
C765 C767 1.388 . S
C766 C765 1.366 1_455 S
C766 C770 1.385 . S
C767 H742 0.951 . S
C767 C765 1.388 . S
C767 C768 1.366 1_655 S
C768 C767 1.366 1_455 S
C768 C769 1.414 . S
C768 C771 1.499 . S
C769 H743 0.950 . S
C769 C768 1.414 . S
C769 C770 1.374 . S
C770 H744 0.950 . S
C770 C766 1.385 . S
C770 C769 1.374 . S
C771 C768 1.499 . S
C771 C772 1.373 . S
C771 C773 1.389 1_455 S
C772 H745 0.950 . S
C772 C758 1.377 . S
C772 C771 1.373 . S
C773 C757 1.377 . S
C773 C771 1.389 1_655 S
C773 C774 1.524 . S
C774 C773 1.524 . S
C774 C775 1.397 . S
C774 C779 1.363 . S
C775 H746 0.950 1_545 S
C775 C774 1.397 . S
C775 C776 1.334 1_545 S
C776 H747 0.950 . S
C776 C775 1.334 1_565 S
C776 C777 1.287 . S
C777 C776 1.287 . S
C777 C778 1.524 1_565 S
C777 H780 0.999 . S
C778 H748 0.950 . S
C778 C777 1.524 1_545 S
C778 C779 1.415 . S
C779 H749 0.950 . S
C779 C774 1.363 . S
C779 C778 1.415 . S
H780 C777 0.999 . S
H781 C762 0.913 . S
H782 C800 0.951 . S
H783 C802 0.951 . S
H784 C804 0.950 . S
H785 C805 0.950 . S
H786 C807 0.950 . S
H787 C810 0.950 . S
H788 C811 0.950 . S
H789 C813 0.950 . S
H790 C814 0.950 . S
H791 C815 0.951 . S
H792 C817 0.951 . S
H793 C819 0.950 . S
H794 C820 0.950 . S
H795 C822 0.950 . S
H796 C825 0.950 . S
H797 C826 0.950 . S
H798 C828 0.950 . S
H799 C829 0.950 . S
C800 H782 0.951 . S
C800 C801 1.366 . S
C800 C802 1.388 . S
C801 C800 1.366 . S
C801 C805 1.385 . S
C802 H783 0.951 . S
C802 C800 1.388 . S
C802 C803 1.366 . S
C803 C802 1.366 . S
C803 C804 1.414 . S
C803 C806 1.499 . S
C804 H784 0.950 . S
C804 C803 1.414 . S
C804 C805 1.374 . S
C805 H785 0.950 . S
C805 C801 1.385 . S
C805 C804 1.374 . S
C806 C803 1.499 . S
C806 C807 1.373 . S
C806 C808 1.389 . S
C807 H786 0.950 . S
C807 C806 1.373 . S
C807 C823 1.377 . S
C808 C806 1.389 . S
C808 C809 1.524 . S
C808 C822 1.377 . S
C809 C808 1.524 . S
C809 C810 1.397 . S
C809 C814 1.363 . S
C810 H787 0.950 . S
C810 C809 1.397 . S
C810 C811 1.334 . S
C811 H788 0.950 . S
C811 C810 1.334 . S
C811 C812 1.287 . S
C812 C811 1.287 . S
C812 C813 1.524 . S
C812 H831 0.913 . S
C813 H789 0.950 . S
C813 C812 1.524 . S
C813 C814 1.415 . S
C814 H790 0.950 . S
C814 C809 1.363 . S
C814 C813 1.415 . S
C815 H791 0.951 . S
C815 C816 1.366 . S
C815 C817 1.388 . S
C816 C815 1.366 . S
C816 C820 1.385 . S
C817 H792 0.951 . S
C817 C815 1.388 . S
C817 C818 1.366 . S
C818 C817 1.366 . S
C818 C819 1.414 . S
C818 C821 1.499 . S
C819 H793 0.950 . S
C819 C818 1.414 . S
C819 C820 1.374 . S
C820 H794 0.950 . S
C820 C816 1.385 . S
C820 C819 1.374 . S
C821 C818 1.499 . S
C821 C822 1.373 . S
C821 C823 1.389 . S
C822 H795 0.950 . S
C822 C808 1.377 . S
C822 C821 1.373 . S
C823 C807 1.377 . S
C823 C821 1.389 . S
C823 C824 1.524 . S
C824 C823 1.524 . S
C824 C825 1.397 . S
C824 C829 1.363 . S
C825 H796 0.950 . S
C825 C824 1.397 . S
C825 C826 1.334 . S
C826 H797 0.950 . S
C826 C825 1.334 . S
C826 C827 1.287 . S
C827 C826 1.287 . S
C827 C828 1.524 . S
C827 H830 0.999 . S
C828 H798 0.950 . S
C828 C827 1.524 . S
C828 C829 1.415 . S
C829 H799 0.950 . S
C829 C824 1.363 . S
C829 C828 1.415 . S
H830 C827 0.999 . S
H831 C812 0.913 . S
H832 C850 0.951 . S
H833 C852 0.951 . S
H834 C854 0.950 . S
H835 C855 0.950 . S
H836 C857 0.950 . S
H837 C860 0.950 . S
H838 C861 0.950 . S
H839 C863 0.950 . S
H840 C864 0.950 . S
H841 C865 0.951 . S
H842 C867 0.951 . S
H843 C869 0.950 . S
H844 C870 0.950 . S
H845 C872 0.950 . S
H846 C875 0.950 . S
H847 C876 0.950 . S
H848 C878 0.950 . S
H849 C879 0.950 . S
C850 H832 0.951 . S
C850 C851 1.366 . S
C850 C852 1.388 . S
C851 C850 1.366 . S
C851 C855 1.385 . S
C852 H833 0.951 . S
C852 C850 1.388 . S
C852 C853 1.366 . S
C853 C852 1.366 . S
C853 C854 1.414 . S
C853 C856 1.499 . S
C854 H834 0.950 . S
C854 C853 1.414 . S
C854 C855 1.374 . S
C855 H835 0.950 . S
C855 C851 1.385 . S
C855 C854 1.374 . S
C856 C853 1.499 . S
C856 C857 1.373 . S
C856 C858 1.389 . S
C857 H836 0.950 . S
C857 C856 1.373 . S
C857 C873 1.377 . S
C858 C856 1.389 . S
C858 C859 1.524 . S
C858 C872 1.377 . S
C859 C858 1.524 . S
C859 C860 1.397 . S
C859 C864 1.363 . S
C860 H837 0.950 . S
C860 C859 1.397 . S
C860 C861 1.334 . S
C861 H838 0.950 . S
C861 C860 1.334 . S
C861 C862 1.287 . S
C862 C861 1.287 . S
C862 C863 1.524 . S
C862 H881 0.913 . S
C863 H839 0.950 . S
C863 C862 1.524 . S
C863 C864 1.415 . S
C864 H840 0.950 . S
C864 C859 1.363 . S
C864 C863 1.415 . S
C865 H841 0.951 . S
C865 C866 1.366 . S
C865 C867 1.388 . S
C866 C865 1.366 . S
C866 C870 1.385 . S
C867 H842 0.951 . S
C867 C865 1.388 . S
C867 C868 1.366 . S
C868 C867 1.366 . S
C868 C869 1.414 . S
C868 C871 1.499 . S
C869 H843 0.950 . S
C869 C868 1.414 . S
C869 C870 1.374 . S
C870 H844 0.950 . S
C870 C866 1.385 . S
C870 C869 1.374 . S
C871 C868 1.499 . S
C871 C872 1.373 . S
C871 C873 1.389 . S
C872 H845 0.950 . S
C872 C858 1.377 . S
C872 C871 1.373 . S
C873 C857 1.377 . S
C873 C871 1.389 . S
C873 C874 1.524 . S
C874 C873 1.524 . S
C874 C875 1.397 . S
C874 C879 1.363 . S
C875 H846 0.950 . S
C875 C874 1.397 . S
C875 C876 1.334 . S
C876 H847 0.950 . S
C876 C875 1.334 . S
C876 C877 1.287 . S
C877 C876 1.287 . S
C877 C878 1.524 . S
C877 H880 0.999 . S
C878 H848 0.950 . S
C878 C877 1.524 . S
C878 C879 1.415 . S
C879 H849 0.950 . S
C879 C874 1.363 . S
C879 C878 1.415 . S
H880 C877 0.999 . S
H881 C862 0.913 . S
C316 C253 1.427 . S
C301 C15 1.244 . S
C351 C13 1.463 . S
C366 C193 1.483 . S
C401 C18 1.268 . S
C416 C223 1.389 . S
C451 C17 1.272 . S
C466 C163 1.266 . S
C501 C36 1.244 . S
C516 C133 1.429 . S
C551 C34 1.463 . S
C566 C73 1.483 . S
C616 C103 1.388 . S
C601 C39 1.267 . S
C666 C43 1.266 . S
C651 C38 1.272 . S
C701 C14 1.515 . S
C716 C62 1.530 . S
C751 C16 1.364 . S
C766 C122 1.391 1_455 S
C816 C182 1.531 . S
C801 C35 1.514 . S
C851 C37 1.364 . S
C866 C242 1.391 . S
