# Generated by pormake.
# Topology bwt, (3,3)-cn, num edge types: 1
# Building blocks:
#     Node 0, Type 0, BuildingBlock: OLANEW_clean_sbu_2, # of connection points: 3
#     Node 1, Type 0, BuildingBlock: OLANEW_clean_sbu_2, # of connection points: 3
#     Node 2, Type 0, BuildingBlock: OLANEW_clean_sbu_2, # of connection points: 3
#     Node 3, Type 0, BuildingBlock: OLANEW_clean_sbu_2, # of connection points: 3
#     Node 4, Type 0, BuildingBlock: OLANEW_clean_sbu_2, # of connection points: 3
#     Node 5, Type 0, BuildingBlock: OLANEW_clean_sbu_2, # of connection points: 3
#     Node 6, Type 0, BuildingBlock: OLANEW_clean_sbu_2, # of connection points: 3
#     Node 7, Type 0, BuildingBlock: OLANEW_clean_sbu_2, # of connection points: 3
#     Node 8, Type 0, BuildingBlock: OLANEW_clean_sbu_2, # of connection points: 3
#     Node 9, Type 0, BuildingBlock: OLANEW_clean_sbu_2, # of connection points: 3
#     Node 10, Type 0, BuildingBlock: OLANEW_clean_sbu_2, # of connection points: 3
#     Node 11, Type 0, BuildingBlock: OLANEW_clean_sbu_2, # of connection points: 3
#     Node 12, Type 0, BuildingBlock: OLANEW_clean_sbu_2, # of connection points: 3
#     Node 13, Type 0, BuildingBlock: OLANEW_clean_sbu_2, # of connection points: 3
#     Node 14, Type 0, BuildingBlock: OLANEW_clean_sbu_2, # of connection points: 3
#     Node 15, Type 0, BuildingBlock: OLANEW_clean_sbu_2, # of connection points: 3
#     Node 16, Type 0, BuildingBlock: OLANEW_clean_sbu_2, # of connection points: 3
#     Node 17, Type 0, BuildingBlock: OLANEW_clean_sbu_2, # of connection points: 3
#     Node 18, Type 0, BuildingBlock: OLANEW_clean_sbu_2, # of connection points: 3
#     Node 19, Type 0, BuildingBlock: OLANEW_clean_sbu_2, # of connection points: 3
#     Node 20, Type 0, BuildingBlock: OLANEW_clean_sbu_2, # of connection points: 3
#     Node 21, Type 0, BuildingBlock: OLANEW_clean_sbu_2, # of connection points: 3
#     Node 22, Type 0, BuildingBlock: OLANEW_clean_sbu_2, # of connection points: 3
#     Node 23, Type 0, BuildingBlock: OLANEW_clean_sbu_2, # of connection points: 3
#     Node 24, Type 1, BuildingBlock: PAMTOO_clean_linker_0, # of connection points: 3
#     Node 25, Type 1, BuildingBlock: PAMTOO_clean_linker_0, # of connection points: 3
#     Node 26, Type 1, BuildingBlock: PAMTOO_clean_linker_0, # of connection points: 3
#     Node 27, Type 1, BuildingBlock: PAMTOO_clean_linker_0, # of connection points: 3
#     Node 28, Type 1, BuildingBlock: PAMTOO_clean_linker_0, # of connection points: 3
#     Node 29, Type 1, BuildingBlock: PAMTOO_clean_linker_0, # of connection points: 3
#     Node 30, Type 1, BuildingBlock: PAMTOO_clean_linker_0, # of connection points: 3
#     Node 31, Type 1, BuildingBlock: PAMTOO_clean_linker_0, # of connection points: 3
#     Node 32, Type 1, BuildingBlock: PAMTOO_clean_linker_0, # of connection points: 3
#     Node 33, Type 1, BuildingBlock: PAMTOO_clean_linker_0, # of connection points: 3
#     Node 34, Type 1, BuildingBlock: PAMTOO_clean_linker_0, # of connection points: 3
#     Node 35, Type 1, BuildingBlock: PAMTOO_clean_linker_0, # of connection points: 3
#     Node 36, Type 1, BuildingBlock: PAMTOO_clean_linker_0, # of connection points: 3
#     Node 37, Type 1, BuildingBlock: PAMTOO_clean_linker_0, # of connection points: 3
#     Node 38, Type 1, BuildingBlock: PAMTOO_clean_linker_0, # of connection points: 3
#     Node 39, Type 1, BuildingBlock: PAMTOO_clean_linker_0, # of connection points: 3
#     Node 40, Type 1, BuildingBlock: PAMTOO_clean_linker_0, # of connection points: 3
#     Node 41, Type 1, BuildingBlock: PAMTOO_clean_linker_0, # of connection points: 3
#     Node 42, Type 1, BuildingBlock: PAMTOO_clean_linker_0, # of connection points: 3
#     Node 43, Type 1, BuildingBlock: PAMTOO_clean_linker_0, # of connection points: 3
#     Node 44, Type 1, BuildingBlock: PAMTOO_clean_linker_0, # of connection points: 3
#     Node 45, Type 1, BuildingBlock: PAMTOO_clean_linker_0, # of connection points: 3
#     Node 46, Type 1, BuildingBlock: PAMTOO_clean_linker_0, # of connection points: 3
#     Node 47, Type 1, BuildingBlock: PAMTOO_clean_linker_0, # of connection points: 3
#     Edge 48, Type (0, 1), BuildingBlock: XIVTED_clean_linker_0, # of connection points: 2
#     Edge 49, Type (0, 1), BuildingBlock: XIVTED_clean_linker_0, # of connection points: 2
#     Edge 50, Type (0, 1), BuildingBlock: XIVTED_clean_linker_0, # of connection points: 2
#     Edge 51, Type (0, 1), BuildingBlock: XIVTED_clean_linker_0, # of connection points: 2
#     Edge 52, Type (0, 1), BuildingBlock: XIVTED_clean_linker_0, # of connection points: 2
#     Edge 53, Type (0, 1), BuildingBlock: XIVTED_clean_linker_0, # of connection points: 2
#     Edge 54, Type (0, 1), BuildingBlock: XIVTED_clean_linker_0, # of connection points: 2
#     Edge 55, Type (0, 1), BuildingBlock: XIVTED_clean_linker_0, # of connection points: 2
#     Edge 56, Type (0, 1), BuildingBlock: XIVTED_clean_linker_0, # of connection points: 2
#     Edge 57, Type (0, 1), BuildingBlock: XIVTED_clean_linker_0, # of connection points: 2
#     Edge 58, Type (0, 1), BuildingBlock: XIVTED_clean_linker_0, # of connection points: 2
#     Edge 59, Type (0, 1), BuildingBlock: XIVTED_clean_linker_0, # of connection points: 2
#     Edge 60, Type (0, 1), BuildingBlock: XIVTED_clean_linker_0, # of connection points: 2
#     Edge 61, Type (0, 1), BuildingBlock: XIVTED_clean_linker_0, # of connection points: 2
#     Edge 62, Type (0, 1), BuildingBlock: XIVTED_clean_linker_0, # of connection points: 2
#     Edge 63, Type (0, 1), BuildingBlock: XIVTED_clean_linker_0, # of connection points: 2
#     Edge 64, Type (0, 1), BuildingBlock: XIVTED_clean_linker_0, # of connection points: 2
#     Edge 65, Type (0, 1), BuildingBlock: XIVTED_clean_linker_0, # of connection points: 2
#     Edge 66, Type (0, 1), BuildingBlock: XIVTED_clean_linker_0, # of connection points: 2
#     Edge 67, Type (0, 1), BuildingBlock: XIVTED_clean_linker_0, # of connection points: 2
#     Edge 68, Type (0, 1), BuildingBlock: XIVTED_clean_linker_0, # of connection points: 2
#     Edge 69, Type (0, 1), BuildingBlock: XIVTED_clean_linker_0, # of connection points: 2
#     Edge 70, Type (0, 1), BuildingBlock: XIVTED_clean_linker_0, # of connection points: 2
#     Edge 71, Type (0, 1), BuildingBlock: XIVTED_clean_linker_0, # of connection points: 2
#     Edge 72, Type (0, 1), BuildingBlock: XIVTED_clean_linker_0, # of connection points: 2
#     Edge 73, Type (0, 1), BuildingBlock: XIVTED_clean_linker_0, # of connection points: 2
#     Edge 74, Type (0, 1), BuildingBlock: XIVTED_clean_linker_0, # of connection points: 2
#     Edge 75, Type (0, 1), BuildingBlock: XIVTED_clean_linker_0, # of connection points: 2
#     Edge 76, Type (0, 1), BuildingBlock: XIVTED_clean_linker_0, # of connection points: 2
#     Edge 77, Type (0, 1), BuildingBlock: XIVTED_clean_linker_0, # of connection points: 2
#     Edge 78, Type (0, 1), BuildingBlock: XIVTED_clean_linker_0, # of connection points: 2
#     Edge 79, Type (0, 1), BuildingBlock: XIVTED_clean_linker_0, # of connection points: 2
#     Edge 80, Type (0, 1), BuildingBlock: XIVTED_clean_linker_0, # of connection points: 2
#     Edge 81, Type (0, 1), BuildingBlock: XIVTED_clean_linker_0, # of connection points: 2
#     Edge 82, Type (0, 1), BuildingBlock: XIVTED_clean_linker_0, # of connection points: 2
#     Edge 83, Type (0, 1), BuildingBlock: XIVTED_clean_linker_0, # of connection points: 2
#     Edge 84, Type (0, 1), BuildingBlock: XIVTED_clean_linker_0, # of connection points: 2
#     Edge 85, Type (0, 1), BuildingBlock: XIVTED_clean_linker_0, # of connection points: 2
#     Edge 86, Type (0, 1), BuildingBlock: XIVTED_clean_linker_0, # of connection points: 2
#     Edge 87, Type (0, 1), BuildingBlock: XIVTED_clean_linker_0, # of connection points: 2
#     Edge 88, Type (0, 1), BuildingBlock: XIVTED_clean_linker_0, # of connection points: 2
#     Edge 89, Type (0, 1), BuildingBlock: XIVTED_clean_linker_0, # of connection points: 2
#     Edge 90, Type (0, 1), BuildingBlock: XIVTED_clean_linker_0, # of connection points: 2
#     Edge 91, Type (0, 1), BuildingBlock: XIVTED_clean_linker_0, # of connection points: 2
#     Edge 92, Type (0, 1), BuildingBlock: XIVTED_clean_linker_0, # of connection points: 2
#     Edge 93, Type (0, 1), BuildingBlock: XIVTED_clean_linker_0, # of connection points: 2
#     Edge 94, Type (0, 1), BuildingBlock: XIVTED_clean_linker_0, # of connection points: 2
#     Edge 95, Type (0, 1), BuildingBlock: XIVTED_clean_linker_0, # of connection points: 2
#     Edge 96, Type (0, 1), BuildingBlock: XIVTED_clean_linker_0, # of connection points: 2
#     Edge 97, Type (0, 1), BuildingBlock: XIVTED_clean_linker_0, # of connection points: 2
#     Edge 98, Type (0, 1), BuildingBlock: XIVTED_clean_linker_0, # of connection points: 2
#     Edge 99, Type (0, 1), BuildingBlock: XIVTED_clean_linker_0, # of connection points: 2
#     Edge 100, Type (0, 1), BuildingBlock: XIVTED_clean_linker_0, # of connection points: 2
#     Edge 101, Type (0, 1), BuildingBlock: XIVTED_clean_linker_0, # of connection points: 2
#     Edge 102, Type (0, 1), BuildingBlock: XIVTED_clean_linker_0, # of connection points: 2
#     Edge 103, Type (0, 1), BuildingBlock: XIVTED_clean_linker_0, # of connection points: 2
#     Edge 104, Type (0, 1), BuildingBlock: XIVTED_clean_linker_0, # of connection points: 2
#     Edge 105, Type (0, 1), BuildingBlock: XIVTED_clean_linker_0, # of connection points: 2
#     Edge 106, Type (0, 1), BuildingBlock: XIVTED_clean_linker_0, # of connection points: 2
#     Edge 107, Type (0, 1), BuildingBlock: XIVTED_clean_linker_0, # of connection points: 2
#     Edge 108, Type (0, 1), BuildingBlock: XIVTED_clean_linker_0, # of connection points: 2
#     Edge 109, Type (0, 1), BuildingBlock: XIVTED_clean_linker_0, # of connection points: 2
#     Edge 110, Type (0, 1), BuildingBlock: XIVTED_clean_linker_0, # of connection points: 2
#     Edge 111, Type (0, 1), BuildingBlock: XIVTED_clean_linker_0, # of connection points: 2
#     Edge 112, Type (0, 1), BuildingBlock: XIVTED_clean_linker_0, # of connection points: 2
#     Edge 113, Type (0, 1), BuildingBlock: XIVTED_clean_linker_0, # of connection points: 2
#     Edge 114, Type (0, 1), BuildingBlock: XIVTED_clean_linker_0, # of connection points: 2
#     Edge 115, Type (0, 1), BuildingBlock: XIVTED_clean_linker_0, # of connection points: 2
#     Edge 116, Type (0, 1), BuildingBlock: XIVTED_clean_linker_0, # of connection points: 2
#     Edge 117, Type (0, 1), BuildingBlock: XIVTED_clean_linker_0, # of connection points: 2
#     Edge 118, Type (0, 1), BuildingBlock: XIVTED_clean_linker_0, # of connection points: 2
#     Edge 119, Type (0, 1), BuildingBlock: XIVTED_clean_linker_0, # of connection points: 2
# Relax obj value: 0.061
# Max RMSD: 0.118
# Mean RMSD: 0.060
data_MOF--net-bwt--node1-OLANEW_clean_sbu_2--node2-PAMTOO_clean_linker_0--edge1-XIVTED_clean_linker_0
_symmetry_space_group_name_H-M    P1
_symmetry_Int_Tables_number       1
_symmetry_cell_setting            triclinic
loop_
_symmetry_equiv_pos_as_xyz
'x, y, z'
_cell_length_a     61.707782
_cell_length_b     61.552581
_cell_length_c     61.528131
_cell_angle_alpha  94.594507
_cell_angle_beta   94.651809
_cell_angle_gamma 94.78944
loop_
_atom_site_label
_atom_site_type_symbol
_atom_site_fract_x
_atom_site_fract_y
_atom_site_fract_z
_atom_type_partial_charge
O0 O 0.28752 0.54123 0.38663 0.0
Cd1 Cd 0.29303 0.54482 0.34814 0.0
O2 O 0.32207 0.5462 0.39962 0.0
Cd3 Cd 0.33549 0.55008 0.36824 0.0
O4 O 0.36012 0.55388 0.34487 0.0
C5 C 0.37974 0.5519 0.35192 0.0
O6 O 0.38389 0.54771 0.37238 0.0
C7 C 0.30201 0.5426 0.40271 0.0
C8 C 0.25214 0.54056 0.32434 0.0
O9 O 0.26242 0.52379 0.32804 0.0
O10 O 0.26143 0.55949 0.33144 0.0
O11 O 0.21173 0.45728 0.7266 0.0
Cd12 Cd 0.19572 0.44769 0.68904 0.0
O13 O 0.21263 0.42254 0.73232 0.0
Cd14 Cd 0.18838 0.4119 0.70481 0.0
O15 O 0.156 0.40285 0.68772 0.0
C16 C 0.13986 0.40925 0.69729 0.0
O17 O 0.14365 0.42105 0.7162 0.0
C18 C 0.21795 0.44263 0.73852 0.0
C19 C 0.2301 0.44005 0.66342 0.0
O20 O 0.22315 0.45906 0.66591 0.0
O21 O 0.22031 0.42443 0.67246 0.0
O22 O 0.71544 0.00885 0.55581 0.0
Cd23 Cd 0.72573 0.02444 0.5933 0.0
O24 O 0.72891 0.97773 0.56214 0.0
Cd25 Cd 0.74693 -0.01057 0.59355 0.0
O26 O 0.77482 -0.00792 0.6183 0.0
C27 C 0.79169 0.00466 0.61584 0.0
O28 O 0.79139 0.01674 0.59916 0.0
C29 C 0.71824 -0.0108 0.54949 0.0
C30 C 0.68774 0.03219 0.61328 0.0
O31 O 0.69794 0.04715 0.60369 0.0
O32 O 0.69573 0.01366 0.6138 0.0
O33 O 0.705 0.96256 0.23721 0.0
Cd34 Cd 0.70888 0.95099 0.27429 0.0
O35 O 0.69521 -0.00466 0.24676 0.0
Cd36 Cd 0.68323 0.98581 0.27745 0.0
O37 O 0.65213 0.98008 0.29189 0.0
C38 C 0.63984 0.96296 0.28476 0.0
O39 O 0.64717 0.94873 0.27071 0.0
C40 C 0.7012 0.98165 0.23237 0.0
C41 C 0.75251 0.94286 0.28351 0.0
O42 O 0.73843 0.928 0.27384 0.0
O43 O 0.7459 0.96146 0.28937 0.0
O44 O 0.36568 0.30801 0.56259 0.0
Cd45 Cd 0.32605 0.30263 0.55536 0.0
O46 O 0.3641 0.32394 0.59564 0.0
Cd47 Cd 0.32992 0.33007 0.58959 0.0
O48 O 0.30413 0.35199 0.58544 0.0
C49 C 0.30869 0.3689 0.57551 0.0
O50 O 0.32788 0.37153 0.56776 0.0
C51 C 0.37519 0.31582 0.58099 0.0
C52 C 0.31329 0.25927 0.56201 0.0
O53 O 0.3186 0.26463 0.54332 0.0
O54 O 0.3134 0.27454 0.57748 0.0
O55 O 0.24759 0.73971 0.94775 0.0
Cd56 Cd 0.28666 0.74256 0.94298 0.0
O57 O 0.25328 0.7426 0.98365 0.0
Cd58 Cd 0.28629 0.73277 0.98131 0.0
O59 O 0.30268 0.70359 0.97244 0.0
C60 C 0.30843 0.69123 0.98705 0.0
O61 O 0.30651 0.69752 0.00767 0.0
C62 C 0.24024 0.74197 0.96645 0.0
C63 C 0.29976 0.78503 0.9335 0.0
O64 O 0.29434 0.76972 0.91818 0.0
O65 O 0.29935 0.7802 0.95335 0.0
O66 O 0.71903 0.17685 0.39262 0.0
Cd67 Cd 0.68314 0.15933 0.3787 0.0
O68 O 0.72577 0.15596 0.41932 0.0
Cd69 Cd 0.69871 0.1316 0.40737 0.0
O70 O 0.67958 0.10065 0.39601 0.0
C71 C 0.68989 0.08514 0.38835 0.0
O72 O 0.71108 0.08864 0.38737 0.0
C73 C 0.73098 0.17264 0.4093 0.0
C74 C 0.65552 0.19273 0.38301 0.0
O75 O 0.65815 0.17962 0.39798 0.0
O76 O 0.66504 0.1893 0.36546 0.0
O77 O 0.58332 0.73282 0.00796 0.0
Cd78 Cd 0.62058 0.74298 0.02406 0.0
O79 O 0.57473 0.76478 -0.00241 0.0
Cd80 Cd 0.60439 0.7854 0.01036 0.0
O81 O 0.62201 0.81805 0.01702 0.0
C82 C 0.62692 0.8285 0.00082 0.0
O83 O 0.62247 0.81881 0.98096 0.0
C84 C 0.56977 0.74445 -0.0012 0.0
C85 C 0.6384 0.70528 0.0373 0.0
O86 O 0.62859 0.71746 0.05047 0.0
O87 O 0.64015 0.71111 0.01794 0.0
O88 O 0.54491 0.36511 0.32006 0.0
Cd89 Cd 0.55107 0.32652 0.32117 0.0
O90 O 0.54605 0.37717 0.355 0.0
Cd91 Cd 0.55077 0.3473 0.37099 0.0
O92 O 0.5562 0.33628 0.40377 0.0
C93 C 0.5536 0.35059 0.41922 0.0
O94 O 0.54763 0.3697 0.41418 0.0
C95 C 0.544 0.38058 0.33486 0.0
C96 C 0.55226 0.30921 0.2778 0.0
O97 O 0.53456 0.30757 0.28736 0.0
O98 O 0.56951 0.31843 0.28892 0.0
O99 O 0.94496 0.2124 0.72338 0.0
Cd100 Cd 0.94225 0.25182 0.72724 0.0
O101 O 0.97662 0.21614 0.70942 0.0
Cd102 Cd 0.97433 0.25061 0.70432 0.0
O103 O 0.9679 0.27385 0.68013 0.0
C104 C 0.94824 0.27656 0.6739 0.0
O105 O 0.93248 0.26704 0.68389 0.0
C106 C 0.9615 0.20398 0.71644 0.0
C107 C 0.94243 0.26577 0.77143 0.0
O108 O 0.92446 0.26057 0.75948 0.0
O109 O 0.96034 0.26472 0.76237 0.0
O110 O 0.38235 0.7507 0.16853 0.0
Cd111 Cd 0.37173 0.71527 0.14816 0.0
O112 O 0.39981 0.76829 0.14444 0.0
Cd113 Cd 0.39126 0.74267 0.11757 0.0
O114 O 0.38505 0.72589 0.08458 0.0
C115 C 0.38171 0.70522 0.08079 0.0
O116 O 0.38172 0.69297 0.09732 0.0
C117 C 0.39349 0.7676 0.16356 0.0
C118 C 0.37983 0.68481 0.17839 0.0
O119 O 0.39398 0.69026 0.1652 0.0
O120 O 0.3614 0.69296 0.17658 0.0
O121 O -0.00831 0.5896 0.69888 0.0
Cd122 Cd -0.00827 0.6287 0.70993 0.0
O123 O -0.01072 0.58063 0.73258 0.0
Cd124 Cd -0.00639 0.61375 0.74896 0.0
O125 O 0.00074 0.6374 0.77766 0.0
C126 C -0.01448 0.64182 0.78957 0.0
O127 O 0.96556 0.63313 0.78347 0.0
C128 C -0.01026 0.57502 0.71229 0.0
C129 C 0.00735 0.65532 0.67892 0.0
O130 O 0.01979 0.65122 0.69552 0.0
O131 O -0.01244 0.64674 0.67687 0.0
O132 O 0.70148 0.36086 0.61653 0.0
Cd133 Cd 0.71861 0.34939 0.65048 0.0
O134 O 0.66997 0.36448 0.62989 0.0
Cd135 Cd 0.6357 0.37153 0.63074 0.0
O136 O 0.60076 0.37488 0.62452 0.0
C137 C 0.58834 0.37567 0.64 0.0
O138 O 0.59675 0.37465 0.66017 0.0
C139 C 0.68174 0.36529 0.61381 0.0
C140 C 0.76409 0.35575 0.65198 0.0
O141 O 0.7537 0.33829 0.6423 0.0
O142 O 0.75302 0.37013 0.66101 0.0
O143 O 0.77566 0.62099 0.2698 0.0
Cd144 Cd 0.76965 0.63503 0.30694 0.0
O145 O 0.80521 0.60433 0.27738 0.0
Cd146 Cd 0.83316 0.5869 0.26827 0.0
O147 O 0.86623 0.57708 0.26543 0.0
C148 C 0.88079 0.59112 0.26023 0.0
O149 O 0.87526 0.61063 0.25607 0.0
C150 C 0.79055 0.6095 0.2635 0.0
C151 C 0.725 0.62811 0.31163 0.0
O152 O 0.7329 0.64527 0.3035 0.0
O153 O 0.73828 0.61455 0.31813 0.0
O154 O 0.23188 0.98287 0.40565 0.0
Cd155 Cd 0.22618 0.96942 0.36704 0.0
O156 O 0.19863 0.97753 0.41627 0.0
Cd157 Cd 0.18023 0.96649 0.38486 0.0
O158 O 0.14812 0.96221 0.36612 0.0
C159 C 0.13474 0.97579 0.37179 0.0
O160 O 0.14129 -0.00867 0.38741 0.0
C161 C 0.21883 0.98365 0.42061 0.0
C162 C 0.26659 0.95985 0.35283 0.0
O163 O 0.26001 0.97896 0.35166 0.0
O164 O 0.2539 0.9452 0.36027 0.0
O165 O 0.22001 0.96996 0.71732 0.0
Cd166 Cd 0.19629 0.97382 0.68438 0.0
O167 O 0.24455 -0.00647 0.70631 0.0
Cd168 Cd 0.27752 0.0101 0.70841 0.0
O169 O 0.31159 0.02062 0.70448 0.0
C170 C 0.32274 0.00727 0.69438 0.0
O171 O 0.31346 -0.01221 0.68705 0.0
C172 C 0.23852 0.98095 0.72051 0.0
C173 C 0.15361 0.97981 0.69384 0.0
O174 O 0.15916 0.96067 0.68827 0.0
O175 O 0.16823 -0.00398 0.69494 0.0
O176 O 0.64224 0.66353 0.33726 0.0
Cd177 Cd 0.67922 0.68139 0.33908 0.0
O178 O 0.65029 0.63857 0.3595 0.0
Cd179 Cd 0.64234 0.60874 0.37551 0.0
O180 O 0.63695 0.57553 0.38547 0.0
C181 C 0.61839 0.56467 0.38175 0.0
O182 O 0.60198 0.57398 0.37261 0.0
C183 C 0.63623 0.64731 0.34759 0.0
C184 C 0.67688 0.72637 0.34723 0.0
O185 O 0.67572 0.71743 0.32758 0.0
O186 O 0.67968 0.71412 0.36293 0.0
O187 O 0.76224 0.26361 0.01911 0.0
Cd188 Cd 0.72481 0.25874 0.02939 0.0
O189 O 0.77532 0.2901 0.04423 0.0
Cd190 Cd 0.74403 0.29976 0.05411 0.0
O191 O 0.7275 0.32958 0.06002 0.0
C192 C 0.73906 0.34559 0.07076 0.0
O193 O 0.75903 0.34268 0.07837 0.0
C194 C 0.77824 0.27612 0.02863 0.0
C195 C 0.71401 0.21442 0.03442 0.0
O196 O 0.71209 0.22183 0.01555 0.0
O197 O 0.72069 0.22798 0.05097 0.0
O198 O 0.2549 0.77476 0.63615 0.0
Cd199 Cd 0.28367 0.76306 0.66095 0.0
O200 O 0.26093 0.81026 0.64452 0.0
Cd201 Cd 0.25574 0.84456 0.64067 0.0
O202 O 0.25869 0.87969 0.63681 0.0
C203 C 0.25832 0.89357 0.65319 0.0
O204 O 0.25546 0.88653 0.67246 0.0
C205 C 0.2499 0.79405 0.63356 0.0
C206 C 0.28199 0.71766 0.65328 0.0
O207 O 0.27027 0.72658 0.66713 0.0
O208 O 0.29507 0.73019 0.64366 0.0
O209 O 0.35914 0.27764 0.02189 0.0
Cd210 Cd 0.32079 0.28468 0.01688 0.0
O211 O 0.35298 0.24253 0.01161 0.0
Cd212 Cd 0.36154 0.20932 0.00261 0.0
O213 O 0.36061 0.17582 0.98727 0.0
C214 C 0.36325 0.15957 -0.00158 0.0
O215 O 0.36737 0.16301 0.01977 0.0
C216 C 0.3663 0.259 0.01851 0.0
C217 C 0.31626 0.32391 -0.00207 0.0
O218 O 0.32078 0.32375 0.01861 0.0
O219 O 0.31377 0.30554 0.98623 0.0
O220 O 0.44786 0.61618 0.6577 0.0
Cd221 Cd 0.44735 0.65309 0.67551 0.0
O222 O 0.44797 0.62724 0.62461 0.0
Cd223 Cd 0.44881 0.6227 0.58887 0.0
O224 O 0.44821 0.62006 0.55305 0.0
C225 C 0.4349 0.60613 0.54133 0.0
O226 O 0.42158 0.59301 0.551 0.0
C227 C 0.44778 0.61176 0.63714 0.0
C228 C 0.4399 0.65202 0.71969 0.0
O229 O 0.42395 0.65189 0.70496 0.0
O230 O 0.45928 0.65271 0.71352 0.0
O231 O -0.01282 0.7435 0.22343 0.0
Cd232 Cd 0.0033 0.71153 0.20778 0.0
O233 O 0.0053 0.74053 0.25495 0.0
Cd234 Cd 0.01865 0.74884 0.28903 0.0
O235 O 0.0297 0.75229 0.32391 0.0
C236 C 0.01594 0.74878 0.33781 0.0
O237 O -0.00468 0.74361 0.33082 0.0
C238 C -0.00793 0.75061 0.24334 0.0
C239 C 0.01209 0.7159 0.16447 0.0
O240 O -0.00601 0.70624 0.16898 0.0
O241 O 0.02602 0.72345 0.18044 0.0
O242 O 0.58912 0.22512 0.8209 0.0
Cd243 Cd 0.60062 0.26331 0.8332 0.0
O244 O 0.55473 0.22746 0.82703 0.0
Cd245 Cd 0.56367 0.25502 0.85171 0.0
O246 O 0.57152 0.26828 0.88581 0.0
C247 C 0.55624 0.27278 0.89763 0.0
O248 O 0.53603 0.27067 0.88867 0.0
C249 C 0.56934 0.21704 0.81855 0.0
C250 C 0.59976 0.28508 0.795 0.0
O251 O 0.61675 0.2761 0.80178 0.0
O252 O 0.58354 0.2846 0.80677 0.0
O253 O 0.01621 0.33644 0.27065 0.0
Cd254 Cd 0.00988 0.2984 0.27847 0.0
O255 O 0.01239 0.32722 0.23533 0.0
Cd256 Cd 0.00895 0.33302 0.20071 0.0
O257 O 0.00302 0.33145 0.16516 0.0
C258 C 0.01353 0.34438 0.15386 0.0
O259 O 0.0282 0.35936 0.16385 0.0
C260 C 0.0158 0.34199 0.25119 0.0
C261 C -0.01373 0.29676 0.31504 0.0
O262 O 0.00718 0.29797 0.31704 0.0
O263 O 0.97658 0.29589 0.29572 0.0
H264 H 0.2694 0.5725 0.56023 0.0
H265 H 0.23587 0.50783 0.55275 0.0
H266 H 0.23219 0.54941 0.61142 0.0
H267 H 0.21319 0.49347 0.61632 0.0
C268 C 0.22704 0.49809 0.60665 0.0
O269 O 0.2197 0.51108 0.59079 0.0
H270 H 0.23974 0.50743 0.61849 0.0
C271 C 0.25959 0.55961 0.56686 0.0
C272 C 0.25197 0.56341 0.58762 0.0
C273 C 0.25386 0.5397 0.55406 0.0
C274 C 0.2404 0.52334 0.56231 0.0
C275 C 0.23274 0.52688 0.58299 0.0
C276 C 0.23824 0.54696 0.59544 0.0
H277 H 0.29231 0.44347 0.89186 0.0
H278 H 0.29881 0.51357 0.89079 0.0
H279 H 0.31375 0.4849 0.95073 0.0
H280 H 0.29174 0.52331 0.95742 0.0
C281 C 0.29553 0.53178 0.94268 0.0
O282 O 0.31141 0.52148 0.93239 0.0
H283 H 0.28023 0.53081 0.93157 0.0
C284 C 0.29654 0.4596 0.90021 0.0
C285 C 0.3034 0.46166 0.92271 0.0
C286 C 0.29466 0.47812 0.88842 0.0
C287 C 0.30007 0.49901 0.89943 0.0
C288 C 0.30704 0.5013 0.92179 0.0
C289 C 0.30882 0.48273 0.93334 0.0
H290 H 0.67132 0.88845 0.40704 0.0
H291 H 0.63274 0.94227 0.39557 0.0
H292 H 0.62433 0.88456 0.35089 0.0
H293 H 0.60026 0.93633 0.33183 0.0
C294 C 0.61606 0.93475 0.34131 0.0
O295 O 0.61194 0.92366 0.35938 0.0
H296 H 0.62582 0.9251 0.33025 0.0
C297 C 0.65883 0.89566 0.39733 0.0
C298 C 0.64845 0.88373 0.37836 0.0
C299 C 0.65319 0.91669 0.404 0.0
C300 C 0.63768 0.92625 0.3907 0.0
C301 C 0.62764 0.91476 0.37143 0.0
C302 C 0.63287 0.89352 0.36539 0.0
H303 H 0.69911 0.0594 0.0881 0.0
H304 H 0.69031 -0.00843 0.06284 0.0
H305 H 0.68504 0.04155 0.01891 0.0
H306 H 0.65708 -0.00239 -0.00119 0.0
C307 C 0.66125 -0.00849 0.01501 0.0
O308 O 0.68241 -0.00057 0.02236 0.0
H309 H 0.6493 -0.00232 0.02614 0.0
C310 C 0.69586 0.04701 0.07447 0.0
C311 C 0.69263 0.05348 0.05306 0.0
C312 C 0.69488 0.02473 0.07844 0.0
C313 C 0.69073 0.00884 0.06051 0.0
C314 C 0.6871 0.01499 0.03925 0.0
C315 C 0.68813 0.03718 0.03551 0.0
H316 H 0.53573 0.31761 0.6479 0.0
H317 H 0.54599 0.31952 0.57957 0.0
H318 H 0.60036 0.31658 0.62667 0.0
H319 H 0.61649 0.32966 0.5776 0.0
C320 C 0.59901 0.3328 0.57699 0.0
O321 O 0.58757 0.31538 0.58497 0.0
H322 H 0.59806 0.3483 0.58736 0.0
C323 C 0.54658 0.31857 0.63497 0.0
C324 C 0.56912 0.31803 0.64022 0.0
C325 C 0.5378 0.31919 0.61322 0.0
C326 C 0.55207 0.31891 0.5965 0.0
C327 C 0.57443 0.3176 0.6014 0.0
C328 C 0.58297 0.31735 0.62317 0.0
H329 H 0.08532 0.73283 0.02035 0.0
H330 H 0.06849 0.7252 0.95059 0.0
H331 H 0.01817 0.72003 -0.0058 0.0
H332 H 0.0054 0.68973 0.95596 0.0
C333 C 0.01987 0.69446 0.94714 0.0
O334 O 0.02693 0.71611 0.95341 0.0
H335 H 0.03267 0.68349 0.95173 0.0
C336 C 0.07315 0.73056 0.00646 0.0
C337 C 0.05096 0.72698 0.01009 0.0
C338 C 0.07985 0.73021 0.9851 0.0
C339 C 0.06394 0.72571 0.96724 0.0
C340 C 0.04188 0.72179 0.97065 0.0
C341 C 0.03537 0.72285 -0.00806 0.0
H342 H 0.87377 0.27035 0.42482 0.0
H343 H 0.86593 0.27323 0.49385 0.0
H344 H 0.9234 0.30477 0.4712 0.0
H345 H 0.93387 0.28358 0.5084 0.0
C346 C 0.91802 0.28212 0.51583 0.0
O347 O 0.90385 0.29506 0.50562 0.0
H348 H 0.91136 0.26462 0.51339 0.0
C349 C 0.87953 0.2764 0.44149 0.0
C350 C 0.89997 0.28852 0.44572 0.0
C351 C 0.86696 0.2709 0.45864 0.0
C352 C 0.87518 0.27752 0.48033 0.0
C353 C 0.8955 0.28968 0.48472 0.0
C354 C 0.90769 0.2954 0.46748 0.0
H355 H 0.44929 0.67547 0.88843 0.0
H356 H 0.41644 0.65504 0.94343 0.0
H357 H 0.39024 0.63198 0.87817 0.0
H358 H 0.35242 0.62535 0.92272 0.0
C359 C 0.36558 0.639 0.92464 0.0
O360 O 0.38493 0.63072 0.91983 0.0
H361 H 0.36076 0.65088 0.91278 0.0
C362 C 0.43581 0.66636 0.89487 0.0
C363 C 0.42001 0.65366 0.88037 0.0
C364 C 0.43474 0.66698 0.91762 0.0
C365 C 0.41745 0.65491 0.92592 0.0
C366 C 0.40125 0.64268 0.91165 0.0
C367 C 0.40252 0.64205 0.88896 0.0
H368 H 0.57782 0.54035 0.30875 0.0
H369 H 0.51439 0.53244 0.27323 0.0
H370 H 0.5557 0.59143 0.27063 0.0
H371 H 0.49807 0.59219 0.24684 0.0
C372 C 0.50473 0.58556 0.26202 0.0
O373 O 0.51838 0.56982 0.2562 0.0
H374 H 0.51422 0.59962 0.2719 0.0
C375 C 0.56524 0.5471 0.29871 0.0
C376 C 0.56933 0.56788 0.29104 0.0
C377 C 0.54553 0.53419 0.29245 0.0
C378 C 0.52966 0.54219 0.27834 0.0
C379 C 0.53347 0.56273 0.27049 0.0
C380 C 0.5532 0.57551 0.27679 0.0
H381 H 0.00994 0.04765 0.71133 0.0
H382 H 0.94051 0.03102 0.70837 0.0
H383 H 0.98416 0.98066 0.71305 0.0
H384 H 0.9334 0.95901 0.69485 0.0
C385 C 0.93502 0.97644 0.69123 0.0
O386 O 0.94331 -0.01093 0.71011 0.0
H387 H 0.94644 0.97743 0.67812 0.0
C388 C -0.00384 0.03552 0.71123 0.0
C389 C -0.00016 0.01336 0.71218 0.0
C390 C 0.97489 0.04221 0.71005 0.0
C391 C 0.95708 0.02634 0.70962 0.0
C392 C 0.96052 0.00424 0.7106 0.0
C393 C 0.98181 -0.00219 0.7121 0.0
H394 H 0.39225 0.89421 0.28082 0.0
H395 H 0.46149 0.9022 0.27527 0.0
H396 H 0.43232 0.94604 0.31978 0.0
H397 H 0.47288 0.96875 0.30259 0.0
C398 C 0.47779 0.95338 0.2944 0.0
O399 O 0.469 0.93584 0.30445 0.0
H400 H 0.47146 0.95243 0.27684 0.0
C401 C 0.40817 0.90275 0.28585 0.0
C402 C 0.40995 0.92079 0.30158 0.0
C403 C 0.42656 0.89588 0.27618 0.0
C404 C 0.44703 0.90743 0.28229 0.0
C405 C 0.44905 0.92549 0.29796 0.0
C406 C 0.43053 0.93224 0.30749 0.0
H407 H 0.92301 0.4214 0.66353 0.0
H408 H -0.01329 0.40932 0.64446 0.0
H409 H 0.93429 0.35836 0.63279 0.0
H410 H -0.01335 0.33892 0.62884 0.0
C411 C -0.0137 0.35413 0.63975 0.0
O412 O 0.97541 0.36893 0.62829 0.0
H413 H 0.97743 0.34929 0.65394 0.0
C414 C 0.93389 0.41025 0.6567 0.0
C415 C 0.92573 0.38885 0.6486 0.0
C416 C 0.95582 0.4178 0.65538 0.0
C417 C 0.96974 0.40378 0.64562 0.0
C418 C 0.9619 0.3824 0.6376 0.0
C419 C 0.93998 0.37501 0.63896 0.0
H420 H 0.63016 0.33524 0.46003 0.0
H421 H 0.61567 0.40157 0.45337 0.0
H422 H 0.60114 0.35326 0.39867 0.0
H423 H 0.60892 0.39576 0.38049 0.0
C424 C 0.61427 0.40363 0.39717 0.0
O425 O 0.60109 0.39465 0.41188 0.0
H426 H 0.63163 0.40029 0.40076 0.0
C427 C 0.62347 0.34728 0.4501 0.0
C428 C 0.61537 0.34125 0.42826 0.0
C429 C 0.62345 0.36885 0.45931 0.0
C430 C 0.61545 0.38477 0.44652 0.0
C431 C 0.60769 0.37909 0.42459 0.0
C432 C 0.60741 0.35738 0.41559 0.0
H433 H 0.72341 0.59355 0.11234 0.0
H434 H 0.73775 0.5261 0.10925 0.0
H435 H 0.69084 0.54704 0.06183 0.0
H436 H 0.67834 0.50031 0.07109 0.0
C437 C 0.69356 0.49916 0.08176 0.0
O438 O 0.70989 0.51348 0.0755 0.0
H439 H 0.6901 0.50354 0.09899 0.0
C440 C 0.72103 0.57704 0.10446 0.0
C441 C 0.70593 0.57246 0.08599 0.0
C442 C 0.7328 0.56058 0.11305 0.0
C443 C 0.72902 0.53914 0.10295 0.0
C444 C 0.71385 0.53431 0.08462 0.0
C445 C 0.70259 0.55099 0.07595 0.0
H446 H 0.27546 0.09196 0.54872 0.0
H447 H 0.26346 0.03848 0.58832 0.0
H448 H 0.28426 0.10264 0.6191 0.0
H449 H 0.29407 0.0632 0.65307 0.0
C450 C 0.29072 0.05404 0.63667 0.0
O451 O 0.27301 0.062 0.62574 0.0
H452 H 0.30581 0.05677 0.62806 0.0
C453 C 0.27548 0.08575 0.56471 0.0
C454 C 0.28086 0.10019 0.58363 0.0
C455 C 0.26928 0.06348 0.56616 0.0
C456 C 0.26826 0.05561 0.58687 0.0
C457 C 0.27379 0.06975 0.60585 0.0
C458 C 0.27996 0.09196 0.60424 0.0
H459 H 0.30779 0.92982 0.86316 0.0
H460 H 0.32466 -0.00073 0.8768 0.0
H461 H 0.33732 0.95615 0.92656 0.0
H462 H 0.32003 -0.00473 0.94425 0.0
C463 C 0.32327 0.00611 0.93102 0.0
O464 O 0.33772 -0.00301 0.91775 0.0
H465 H 0.30738 0.00747 0.92146 0.0
C466 C 0.31518 0.94366 0.87399 0.0
C467 C 0.32317 0.94015 0.89537 0.0
C468 C 0.31573 0.96483 0.86677 0.0
C469 C 0.32395 0.98273 0.88169 0.0
C470 C 0.33126 0.97953 0.90324 0.0
C471 C 0.33123 0.95832 0.90994 0.0
H472 H 0.47042 0.63397 0.30415 0.0
H473 H 0.46933 0.60717 0.36679 0.0
H474 H 0.40967 0.61101 0.32742 0.0
H475 H 0.39886 0.61383 0.37453 0.0
C476 C 0.41675 0.61634 0.37908 0.0
O477 O 0.42698 0.60226 0.3655 0.0
H478 H 0.42181 0.6338 0.37688 0.0
C479 C 0.46173 0.62606 0.31636 0.0
C480 C 0.43889 0.62231 0.31289 0.0
C481 C 0.47331 0.62014 0.33535 0.0
C482 C 0.46124 0.61196 0.3519 0.0
C483 C 0.43839 0.60933 0.34918 0.0
C484 C 0.4273 0.61394 0.32954 0.0
H485 H 0.91057 0.28426 0.93413 0.0
H486 H 0.93919 0.31674 -0.00419 0.0
H487 H 0.97432 0.31929 0.93887 0.0
H488 H 0.00847 0.32622 0.98287 0.0
C489 C -0.00661 0.31967 -0.01027 0.0
O490 O 0.97593 0.32968 0.98086 0.0
H491 H -0.00839 0.30166 0.98515 0.0
C492 C 0.92372 0.29433 0.94375 0.0
C493 C 0.94229 0.30146 0.93355 0.0
C494 C 0.92203 0.2999 0.96617 0.0
C495 C 0.93991 0.31189 0.97859 0.0
C496 C 0.95879 0.31836 0.96875 0.0
C497 C 0.95985 0.31347 0.9463 0.0
H498 H 0.09786 0.75748 0.59053 0.0
H499 H 0.10347 0.77537 0.52501 0.0
H500 H 0.04504 0.73936 0.54031 0.0
H501 H 0.06058 0.72311 0.49968 0.0
C502 C 0.06928 0.73835 0.49491 0.0
O503 O 0.06559 0.75584 0.50918 0.0
H504 H 0.08703 0.73605 0.49578 0.0
C505 C 0.09052 0.75809 0.57401 0.0
C506 C 0.06966 0.74733 0.56767 0.0
C507 C 0.10278 0.76844 0.55887 0.0
C508 C 0.09409 0.76787 0.53703 0.0
C509 C 0.07337 0.75726 0.53046 0.0
C510 C 0.06108 0.74736 0.54576 0.0
H511 H 0.50876 0.26632 0.11274 0.0
H512 H 0.5378 0.26393 0.05147 0.0
H513 H 0.57868 0.27693 0.11146 0.0
H514 H 0.60286 0.29644 0.06699 0.0
C515 C 0.58522 0.29293 0.06152 0.0
O516 O 0.5778 0.27323 0.06885 0.0
H517 H 0.57687 0.30679 0.06882 0.0
C518 C 0.52321 0.26697 0.10383 0.0
C519 C 0.54401 0.27166 0.11528 0.0
C520 C 0.52075 0.26423 0.08082 0.0
C521 C 0.53935 0.26611 0.06919 0.0
C522 C 0.56007 0.27096 0.08029 0.0
C523 C 0.56243 0.27353 0.10321 0.0
H524 H 0.37829 0.46602 0.60766 0.0
H525 H 0.4377 0.43642 0.59801 0.0
H526 H 0.37791 0.39575 0.59955 0.0
H527 H 0.42019 0.36713 0.60944 0.0
C528 C 0.42651 0.38449 0.61332 0.0
O529 O 0.41988 0.39608 0.59601 0.0
H530 H 0.41931 0.39026 0.62856 0.0
C531 C 0.38652 0.45139 0.60438 0.0
C532 C 0.37494 0.43065 0.60373 0.0
C533 C 0.40897 0.45368 0.60196 0.0
C534 C 0.42027 0.43493 0.59952 0.0
C535 C 0.40898 0.41412 0.59861 0.0
C536 C 0.38636 0.41198 0.6004 0.0
H537 H 0.90564 0.88394 0.29108 0.0
H538 H 0.97274 0.90563 0.31152 0.0
H539 H 0.92403 0.95094 0.31673 0.0
H540 H 0.97069 0.97492 0.31038 0.0
C541 C 0.97731 0.95866 0.31031 0.0
O542 O 0.96561 0.94576 0.32345 0.0
H543 H 0.97563 0.95144 0.29298 0.0
C544 C 0.91791 0.89698 0.29755 0.0
C545 C 0.91176 0.91801 0.3036 0.0
C546 C 0.93983 0.89236 0.30029 0.0
C547 C 0.95573 0.90886 0.30945 0.0
C548 C 0.94997 0.92989 0.31523 0.0
C549 C 0.9281 0.93446 0.31237 0.0
H550 H 0.56896 0.08863 0.70476 0.0
H551 H 0.50101 0.07629 0.71539 0.0
H552 H 0.52824 0.03814 0.66472 0.0
H553 H 0.48164 0.04445 0.65139 0.0
C554 C 0.47828 0.05204 0.66765 0.0
O555 O 0.49264 0.04532 0.6836 0.0
H556 H 0.48048 0.07015 0.66706 0.0
C557 C 0.5532 0.07945 0.70065 0.0
C558 C 0.55089 0.06275 0.68346 0.0
C559 C 0.53544 0.08447 0.71248 0.0
C560 C 0.515 0.07273 0.70661 0.0
C561 C 0.51248 0.05615 0.68939 0.0
C562 C 0.53043 0.05095 0.67806 0.0
H563 H 0.09506 0.48951 0.25421 0.0
H564 H 0.03261 0.51558 0.24684 0.0
H565 H 0.08982 0.55855 0.26845 0.0
H566 H 0.04818 0.57848 0.28478 0.0
C567 C 0.03902 0.56285 0.27773 0.0
O568 O 0.04766 0.55603 0.25858 0.0
H569 H 0.04092 0.55086 0.29026 0.0
C570 C 0.08539 0.50341 0.25493 0.0
C571 C 0.09552 0.52441 0.26203 0.0
C572 C 0.06272 0.49995 0.24965 0.0
C573 C 0.05014 0.51791 0.25072 0.0
C574 C 0.06004 0.53896 0.25714 0.0
C575 C 0.08262 0.54223 0.26274 0.0
H576 H 0.22558 0.50277 0.31403 0.0
H577 H 0.12599 0.55896 0.25752 0.0
H578 H 0.22777 0.5725 0.30924 0.0
H579 H 0.11915 0.49662 0.28509 0.0
H580 H 0.1646 0.56318 0.27147 0.0
H581 H 0.18792 0.49896 0.29768 0.0
C582 C 0.2182 0.51728 0.30939 0.0
C583 C 0.22982 0.53801 0.31311 0.0
C584 C 0.15458 0.54856 0.27433 0.0
C585 C 0.18666 0.53373 0.29435 0.0
C586 C 0.13251 0.54617 0.26648 0.0
C587 C 0.11918 0.52731 0.26993 0.0
C588 C 0.16344 0.5319 0.28553 0.0
C589 C 0.12874 0.51119 0.28146 0.0
C590 C 0.19666 0.51509 0.30015 0.0
C591 C 0.21937 0.55622 0.30676 0.0
N592 N 0.15023 0.51383 0.28874 0.0
N593 N 0.19836 0.55366 0.29767 0.0
H594 H 0.25007 0.40215 0.65664 0.0
H595 H 0.34357 0.45755 0.59136 0.0
H596 H 0.25482 0.47012 0.64338 0.0
H597 H 0.35229 0.40002 0.62585 0.0
H598 H 0.3075 0.45889 0.60436 0.0
H599 H 0.28401 0.39773 0.63926 0.0
C600 C 0.25813 0.41609 0.64994 0.0
C601 C 0.2496 0.43657 0.65151 0.0
C602 C 0.31724 0.44586 0.60893 0.0
C603 C 0.28833 0.43157 0.63169 0.0
C604 C 0.33794 0.44511 0.6016 0.0
C605 C 0.35142 0.42901 0.60802 0.0
C606 C 0.30949 0.42997 0.62218 0.0
C607 C 0.34263 0.41279 0.62048 0.0
C608 C 0.27753 0.41356 0.64013 0.0
C609 C 0.26076 0.45405 0.64256 0.0
N610 N 0.32224 0.41374 0.62724 0.0
N611 N 0.27954 0.45115 0.63307 0.0
H612 H 0.66013 0.00279 0.63135 0.0
H613 H 0.57975 0.09197 0.6672 0.0
H614 H 0.66835 0.07051 0.61753 0.0
H615 H 0.56548 0.02282 0.6721 0.0
H616 H 0.61266 0.08434 0.64954 0.0
H617 H 0.62595 0.00972 0.64715 0.0
C618 C 0.65478 0.01912 0.63167 0.0
C619 C 0.66716 0.03612 0.62315 0.0
C620 C 0.60231 0.07079 0.65436 0.0
C621 C 0.62805 0.04413 0.64118 0.0
C622 C 0.58356 0.07515 0.66451 0.0
C623 C 0.56996 0.05801 0.67125 0.0
C624 C 0.60765 0.04911 0.65102 0.0
C625 C 0.57549 0.0365 0.66707 0.0
C626 C 0.63522 0.02304 0.64061 0.0
C627 C 0.65937 0.05692 0.62392 0.0
N628 N 0.59401 0.03266 0.65737 0.0
N629 N 0.64037 0.06034 0.63283 0.0
H630 H 0.7729 0.90876 0.26578 0.0
H631 H 0.88941 0.94484 0.33016 0.0
H632 H 0.78528 0.9679 0.30924 0.0
H633 H 0.88045 0.90171 0.27056 0.0
H634 H 0.85078 0.95123 0.32555 0.0
H635 H 0.81166 0.90309 0.27066 0.0
C636 C 0.78374 0.9205 0.27645 0.0
C637 C 0.77582 0.93885 0.28711 0.0
C638 C 0.85735 0.9404 0.3135 0.0
C639 C 0.82025 0.93241 0.29279 0.0
C640 C 0.87945 0.93683 0.31602 0.0
C641 C 0.88836 0.92261 0.30079 0.0
C642 C 0.84391 0.9295 0.29577 0.0
C643 C 0.87437 0.91242 0.28303 0.0
C644 C 0.8059 0.91731 0.27913 0.0
C645 C 0.79069 0.95356 0.30067 0.0
N646 N 0.85289 0.91597 0.28109 0.0
N647 N 0.81219 0.94998 0.30319 0.0
H648 H 0.29715 0.24258 0.59812 0.0
H649 H 0.30614 0.11825 0.55389 0.0
H650 H 0.31765 0.22304 0.53457 0.0
H651 H 0.26968 0.13603 0.60862 0.0
H652 H 0.31381 0.15692 0.54886 0.0
H653 H 0.2899 0.20391 0.60431 0.0
C654 C 0.30007 0.23018 0.58545 0.0
C655 C 0.30798 0.23606 0.56577 0.0
C656 C 0.30413 0.15238 0.56198 0.0
C657 C 0.29996 0.19186 0.57287 0.0
C658 C 0.29967 0.13027 0.56484 0.0
C659 C 0.28701 0.12379 0.58156 0.0
C660 C 0.29605 0.16827 0.57604 0.0
C661 C 0.27962 0.14022 0.59559 0.0
C662 C 0.29592 0.20813 0.58901 0.0
C663 C 0.31148 0.21929 0.54995 0.0
N664 N 0.2842 0.1617 0.59248 0.0
N665 N 0.30755 0.19799 0.55389 0.0
H666 H 0.30764 0.79946 0.89373 0.0
H667 H 0.31298 0.92612 0.93503 0.0
H668 H 0.30507 0.82238 0.96156 0.0
H669 H 0.33141 0.90247 0.87177 0.0
H670 H 0.30952 0.88844 0.94516 0.0
H671 H 0.31549 0.83725 0.88524 0.0
C672 C 0.30882 0.81244 0.90687 0.0
C673 C 0.30564 0.80775 0.92838 0.0
C674 C 0.31445 0.89154 0.92911 0.0
C675 C 0.31447 0.85111 0.91873 0.0
C676 C 0.31655 0.91307 0.92335 0.0
C677 C 0.32234 0.91753 0.90243 0.0
C678 C 0.31801 0.87429 0.91381 0.0
C679 C 0.32646 0.89984 0.88791 0.0
C680 C 0.31335 0.83402 0.90201 0.0
C681 C 0.30742 0.82524 0.94474 0.0
N682 N 0.32406 0.87904 0.89381 0.0
N683 N 0.31155 0.84617 0.93955 0.0
H684 H 0.63263 0.20392 0.41785 0.0
H685 H 0.62538 0.32683 0.38705 0.0
H686 H 0.65189 0.22671 0.3571 0.0
H687 H 0.60735 0.30326 0.44791 0.0
H688 H 0.63023 0.28927 0.37344 0.0
H689 H 0.61826 0.23899 0.42664 0.0
C690 C 0.63357 0.21619 0.40621 0.0
C691 C 0.64371 0.21245 0.38682 0.0
C692 C 0.62496 0.29232 0.38968 0.0
C693 C 0.62751 0.25283 0.39693 0.0
C694 C 0.62205 0.31377 0.39743 0.0
C695 C 0.61611 0.31833 0.41877 0.0
C696 C 0.62192 0.2753 0.40337 0.0
C697 C 0.6123 0.30068 0.43152 0.0
C698 C 0.6254 0.23626 0.41126 0.0
C699 C 0.64433 0.22893 0.3723 0.0
N700 N 0.61543 0.28004 0.42369 0.0
N701 N 0.63661 0.24851 0.37777 0.0
H702 H 0.63862 0.68954 0.07765 0.0
H703 H 0.69863 0.58285 0.04355 0.0
H704 H 0.6581 0.67467 0.01269 0.0
H705 H 0.68532 0.6027 0.10962 0.0
H706 H 0.68093 0.61444 0.03099 0.0
H707 H 0.65318 0.6561 0.08883 0.0
C708 C 0.64596 0.67924 0.06571 0.0
C709 C 0.64722 0.685 0.04422 0.0
C710 C 0.68183 0.61181 0.04822 0.0
C711 C 0.66391 0.64653 0.05692 0.0
C712 C 0.69178 0.59372 0.05535 0.0
C713 C 0.69363 0.59028 0.07768 0.0
C714 C 0.67354 0.62645 0.06352 0.0
C715 C 0.68458 0.60494 0.09231 0.0
C716 C 0.65428 0.66011 0.07211 0.0
C717 C 0.65686 0.67094 0.02946 0.0
N718 N 0.67502 0.62238 0.08499 0.0
N719 N 0.66485 0.65236 0.03609 0.0
H720 H 0.58464 0.31746 0.25087 0.0
H721 H 0.52035 0.25071 0.14483 0.0
H722 H 0.52039 0.28394 0.25124 0.0
H723 H 0.57291 0.301 0.14162 0.0
H724 H 0.52309 0.25844 0.18457 0.0
H725 H 0.58369 0.30693 0.21157 0.0
C726 C 0.57041 0.30772 0.24274 0.0
C727 C 0.55252 0.30164 0.25436 0.0
C728 C 0.53405 0.26772 0.17513 0.0
C729 C 0.55138 0.28953 0.20939 0.0
C730 C 0.53244 0.26341 0.1524 0.0
C731 C 0.54632 0.27531 0.13967 0.0
C732 C 0.5498 0.28388 0.18536 0.0
C733 C 0.56202 0.29118 0.15063 0.0
C734 C 0.56985 0.30181 0.22029 0.0
C735 C 0.5345 0.28908 0.24292 0.0
N736 N 0.56331 0.295 0.1728 0.0
N737 N 0.53439 0.28343 0.22108 0.0
H738 H 0.9074 0.2733 0.79459 0.0
H739 H 0.97701 0.29003 0.91105 0.0
H740 H 0.97751 0.27273 0.80224 0.0
H741 H 0.9092 0.30239 0.90124 0.0
H742 H 0.97748 0.28242 0.87146 0.0
H743 H 0.90762 0.2826 0.83393 0.0
C744 C 0.92286 0.27519 0.80453 0.0
C745 C 0.94246 0.27222 0.79511 0.0
C746 C 0.96252 0.28683 0.878 0.0
C747 C 0.94282 0.28276 0.84022 0.0
C748 C 0.96226 0.29126 0.90059 0.0
C749 C 0.94301 0.29676 0.90955 0.0
C750 C 0.94338 0.28783 0.86424 0.0
C751 C 0.92431 0.29781 0.89517 0.0
C752 C 0.92297 0.28053 0.827 0.0
C753 C 0.96201 0.27491 0.80881 0.0
N754 N 0.92496 0.29333 0.87328 0.0
N755 N 0.96169 0.27993 0.8307 0.0
H756 H 0.35675 0.67655 0.21356 0.0
H757 H 0.4524 0.61604 0.27176 0.0
H758 H 0.41576 0.66207 0.18435 0.0
H759 H 0.39958 0.64014 0.3058 0.0
H760 H 0.43572 0.62728 0.2378 0.0
H761 H 0.36876 0.65777 0.24542 0.0
C762 C 0.37208 0.66915 0.21369 0.0
C763 C 0.38537 0.67104 0.19633 0.0
C764 C 0.42766 0.62999 0.25264 0.0
C765 C 0.39921 0.64964 0.23276 0.0
C766 C 0.4372 0.62358 0.27211 0.0
C767 C 0.42755 0.62733 0.29182 0.0
C768 C 0.40826 0.64035 0.25273 0.0
C769 C 0.40762 0.63687 0.29106 0.0
C770 C 0.37895 0.65852 0.23193 0.0
C771 C 0.40506 0.66116 0.19741 0.0
N772 N 0.39874 0.64326 0.27187 0.0
N773 N 0.41143 0.65102 0.21536 0.0
H774 H 0.04254 0.68585 0.68436 0.0
H775 H 0.04326 0.70856 0.55995 0.0
H776 H -0.00917 0.6574 0.63654 0.0
H777 H 0.06892 0.7575 0.61205 0.0
H778 H 0.02652 0.68713 0.58693 0.0
H779 H 0.05593 0.70946 0.6572 0.0
C780 C 0.03404 0.68455 0.66813 0.0
C781 C 0.01556 0.66966 0.66267 0.0
C782 C 0.03571 0.70265 0.59235 0.0
C783 C 0.03091 0.69642 0.63155 0.0
C784 C 0.04517 0.71503 0.57695 0.0
C785 C 0.05775 0.73493 0.58362 0.0
C786 C 0.03916 0.70995 0.61464 0.0
C787 C 0.0599 0.74206 0.60607 0.0
C788 C 0.0416 0.6981 0.65272 0.0
C789 C 0.0051 0.66872 0.64143 0.0
N790 N 0.05095 0.72947 0.62077 0.0
N791 N 0.01305 0.68178 0.62654 0.0
H792 H 0.7914 0.38648 0.67765 0.0
H793 H 0.89787 0.36215 0.6185 0.0
H794 H 0.79157 0.33326 0.62755 0.0
H795 H 0.89997 0.39842 0.68184 0.0
H796 H 0.85883 0.35241 0.62018 0.0
H797 H 0.83103 0.39278 0.67779 0.0
C798 C 0.79978 0.3761 0.66669 0.0
C799 C 0.78815 0.35934 0.65255 0.0
C800 C 0.86791 0.36241 0.63374 0.0
C801 C 0.83353 0.36655 0.65253 0.0
C802 C 0.89025 0.3679 0.63286 0.0
C803 C 0.9023 0.38138 0.64994 0.0
C804 C 0.85747 0.37063 0.65169 0.0
C805 C 0.89134 0.38849 0.668 0.0
C806 C 0.82242 0.37964 0.66685 0.0
C807 C 0.7999 0.34634 0.63875 0.0
N808 N 0.86956 0.3832 0.6683 0.0
N809 N 0.82194 0.35032 0.63896 0.0
H810 H 0.69226 0.64733 0.28982 0.0
H811 H 0.59576 0.56986 0.32954 0.0
H812 H 0.70344 0.59778 0.33426 0.0
H813 H 0.59245 0.59546 0.26612 0.0
H814 H 0.63299 0.58709 0.33703 0.0
H815 H 0.65306 0.63584 0.28715 0.0
C816 C 0.68646 0.63424 0.29925 0.0
C817 C 0.70116 0.62328 0.31207 0.0
C818 C 0.62396 0.58906 0.32159 0.0
C819 C 0.65646 0.61021 0.3091 0.0
C820 C 0.60274 0.57913 0.3172 0.0
C821 C 0.5909 0.58075 0.29696 0.0
C822 C 0.63333 0.60121 0.30588 0.0
C823 C 0.6007 0.59373 0.282 0.0
C824 C 0.66414 0.62765 0.2976 0.0
C825 C 0.69271 0.60649 0.32398 0.0
N826 N 0.62135 0.60338 0.28673 0.0
N827 N 0.67091 0.60041 0.32215 0.0
H828 H 0.29827 -0.01224 0.33826 0.0
H829 H 0.37875 0.89413 0.31777 0.0
H830 H 0.28452 0.92065 0.35227 0.0
H831 H 0.39591 0.96187 0.30828 0.0
H832 H 0.34445 0.90399 0.33117 0.0
H833 H 0.33415 0.97904 0.32757 0.0
C834 C 0.30277 0.97119 0.33907 0.0
C835 C 0.2883 0.95489 0.34611 0.0
C836 C 0.35571 0.91677 0.32628 0.0
C837 C 0.32938 0.94483 0.33395 0.0
C838 C 0.37529 0.91113 0.31858 0.0
C839 C 0.39012 0.92718 0.31172 0.0
C840 C 0.35074 0.93865 0.32705 0.0
C841 C 0.38495 0.949 0.31346 0.0
C842 C 0.32329 0.96625 0.33303 0.0
C843 C 0.29508 0.93374 0.34691 0.0
N844 N 0.36559 0.95409 0.32079 0.0
N845 N 0.31506 0.92933 0.34087 0.0
H846 H 0.11719 0.95066 0.68578 0.0
H847 H 0.03715 0.03421 0.73449 0.0
H848 H 0.13841 0.01667 0.7126 0.0
H849 H 0.01426 0.97721 0.69055 0.0
H850 H 0.0746 0.02502 0.73171 0.0
H851 H 0.07958 0.95731 0.69241 0.0
C852 C 0.11396 0.9665 0.69317 0.0
C853 C 0.13094 0.98319 0.69853 0.0
C854 C 0.06136 0.01448 0.72275 0.0
C855 C 0.08805 -0.00919 0.70627 0.0
C856 C 0.03997 0.01974 0.72426 0.0
C857 C 0.02248 0.00664 0.71248 0.0
C858 C 0.0654 -0.00414 0.70952 0.0
C859 C 0.02717 -0.01225 0.7 0.0
C860 C 0.0925 0.97029 0.6969 0.0
C861 C 0.12582 0.00339 0.70807 0.0
N862 N 0.04819 0.98299 0.69875 0.0
N863 N 0.10484 0.00663 0.71164 0.0
H864 H 0.67743 0.7496 0.38706 0.0
H865 H 0.65297 0.86269 0.33792 0.0
H866 H 0.67009 0.75683 0.31771 0.0
H867 H 0.65442 0.85213 0.40653 0.0
H868 H 0.66075 0.82459 0.32991 0.0
H869 H 0.67116 0.78798 0.39431 0.0
C870 C 0.6746 0.75928 0.37333 0.0
C871 C 0.67424 0.74994 0.35174 0.0
C872 C 0.65942 0.83068 0.34671 0.0
C873 C 0.66692 0.79401 0.35993 0.0
C874 C 0.65487 0.85238 0.35128 0.0
C875 C 0.65318 0.86071 0.37295 0.0
C876 C 0.66227 0.81721 0.36394 0.0
C877 C 0.656 0.84662 0.38962 0.0
C878 C 0.67096 0.78122 0.37749 0.0
C879 C 0.67049 0.76334 0.33462 0.0
N880 N 0.6604 0.82564 0.38477 0.0
N881 N 0.66692 0.7847 0.33908 0.0
H882 H 0.70724 0.19487 0.07202 0.0
H883 H 0.70906 0.0733 0.01849 0.0
H884 H 0.71006 0.18022 0.00259 0.0
H885 H 0.67963 0.08807 0.07869 0.0
H886 H 0.71261 0.11232 0.01325 0.0
H887 H 0.70058 0.15566 0.07597 0.0
C888 C 0.70641 0.18341 0.0576 0.0
C889 C 0.70921 0.19082 0.03694 0.0
C890 C 0.70531 0.10695 0.02755 0.0
C891 C 0.70184 0.14596 0.0414 0.0
C892 C 0.70314 0.08463 0.03052 0.0
C893 C 0.69413 0.07719 0.04916 0.0
C894 C 0.69872 0.12207 0.04344 0.0
C895 C 0.68717 0.0929 0.06434 0.0
C896 C 0.70254 0.16105 0.05986 0.0
C897 C 0.70792 0.17523 0.01881 0.0
N898 N 0.68977 0.11455 0.06123 0.0
N899 N 0.70453 0.15351 0.02149 0.0
H900 H 0.25043 0.68764 0.6645 0.0
H901 H 0.29156 0.58789 0.59216 0.0
H902 H 0.30752 0.69325 0.62846 0.0
H903 H 0.22637 0.58769 0.61296 0.0
H904 H 0.30036 0.62442 0.61088 0.0
H905 H 0.24432 0.64884 0.65138 0.0
C906 C 0.26184 0.68066 0.65405 0.0
C907 C 0.27943 0.69375 0.64743 0.0
C908 C 0.28417 0.61632 0.61144 0.0
C909 C 0.27251 0.6494 0.63238 0.0
C910 C 0.27908 0.5955 0.60066 0.0
C911 C 0.25807 0.58477 0.60068 0.0
C912 C 0.26822 0.62653 0.62247 0.0
C913 C 0.24279 0.59525 0.61254 0.0
C914 C 0.25827 0.65854 0.64649 0.0
C915 C 0.29366 0.68382 0.63385 0.0
N916 N 0.24813 0.6156 0.62284 0.0
N917 N 0.28984 0.66227 0.62671 0.0
H918 H 0.33118 0.36541 0.01507 0.0
H919 H 0.2755 0.42402 0.91725 0.0
H920 H 0.29628 0.32968 0.9578 0.0
H921 H 0.33319 0.45383 0.95648 0.0
H922 H 0.27849 0.3908 0.93587 0.0
H923 H 0.32765 0.39957 -0.00239 0.0
C924 C 0.3227 0.36477 -0.00113 0.0
C925 C 0.31404 0.34469 0.98782 0.0
C926 C 0.29049 0.40463 0.94037 0.0
C927 C 0.30977 0.3836 0.96799 0.0
C928 C 0.28891 0.42361 0.92965 0.0
C929 C 0.30436 0.44177 0.93497 0.0
C930 C 0.30737 0.40381 0.95686 0.0
C931 C 0.32084 0.44037 0.95185 0.0
C932 C 0.32079 0.38422 -0.01108 0.0
C933 C 0.30329 0.34478 0.96685 0.0
N934 N 0.32192 0.42171 0.9622 0.0
N935 N 0.30134 0.36395 0.95766 0.0
H936 H 0.40098 0.65192 0.73847 0.0
H937 H 0.45732 0.64894 0.86005 0.0
H938 H 0.47028 0.65073 0.75436 0.0
H939 H 0.38839 0.65437 0.84617 0.0
H940 H 0.46178 0.64795 0.82105 0.0
H941 H 0.39548 0.65127 0.77742 0.0
C942 C 0.41504 0.6515 0.75013 0.0
C943 C 0.43614 0.65143 0.74312 0.0
C944 C 0.44565 0.64936 0.82646 0.0
C945 C 0.42995 0.65063 0.78769 0.0
C946 C 0.4431 0.65004 0.84879 0.0
C947 C 0.42248 0.65202 0.85646 0.0
C948 C 0.42746 0.65061 0.81152 0.0
C949 C 0.40458 0.65278 0.84099 0.0
C950 C 0.41188 0.65112 0.77236 0.0
C951 C 0.45373 0.65085 0.75897 0.0
N952 N 0.40749 0.65218 0.81925 0.0
N953 N 0.45023 0.65049 0.78045 0.0
H954 H -0.01153 0.69729 0.12699 0.0
H955 H 0.06748 0.75362 0.04668 0.0
H956 H 0.04651 0.73971 0.14967 0.0
H957 H 0.01925 0.69958 0.02541 0.0
H958 H 0.05758 0.75154 0.08414 0.0
H959 H -0.00296 0.70082 0.08923 0.0
C960 C 0.00299 0.70739 0.12404 0.0
C961 C 0.01684 0.71816 0.14153 0.0
C962 C 0.04914 0.74017 0.07126 0.0
C963 C 0.02667 0.72234 0.09836 0.0
C964 C 0.05484 0.74128 0.04986 0.0
C965 C 0.04428 0.72669 0.0328 0.0
C966 C 0.03265 0.72444 0.0757 0.0
C967 C 0.02768 0.71136 0.03792 0.0
C968 C 0.00788 0.70936 0.10248 0.0
C969 C 0.03542 0.73103 0.13671 0.0
N970 N 0.02241 0.71062 0.05889 0.0
N971 N 0.03977 0.73279 0.11559 0.0
H972 H 0.56908 0.31056 0.77866 0.0
H973 H 0.60119 0.29368 0.65657 0.0
H974 H 0.62673 0.28004 0.76208 0.0
H975 H 0.55639 0.33997 0.67696 0.0
H976 H 0.6116 0.28913 0.69502 0.0
H977 H 0.56454 0.32196 0.74153 0.0
C978 C 0.58092 0.30646 0.76728 0.0
C979 C 0.59825 0.29423 0.77345 0.0
C980 C 0.59967 0.30046 0.69107 0.0
C981 C 0.59298 0.30698 0.73081 0.0
C982 C 0.59379 0.30317 0.66909 0.0
C983 C 0.57764 0.31701 0.66344 0.0
C984 C 0.58919 0.31151 0.70752 0.0
C985 C 0.5685 0.3287 0.68047 0.0
C986 C 0.57834 0.31299 0.74608 0.0
C987 C 0.61313 0.28943 0.75802 0.0
N988 N 0.57419 0.32548 0.70169 0.0
N989 N 0.61 0.29556 0.73732 0.0
H990 H 0.94226 0.29836 0.31642 0.0
H991 H 0.94411 0.28615 0.4448 0.0
H992 H 0.00158 0.2952 0.35792 0.0
H993 H 0.88695 0.29992 0.40481 0.0
H994 H 0.96561 0.28969 0.41343 0.0
H995 H 0.92171 0.29847 0.34868 0.0
C996 C 0.95097 0.29766 0.33232 0.0
C997 C 0.97367 0.29669 0.33447 0.0
C998 C 0.94839 0.29208 0.41156 0.0
C999 C 0.95022 0.29685 0.37151 0.0
C1000 C 0.93613 0.29023 0.42953 0.0
C1001 C 0.91364 0.29263 0.42743 0.0
C1002 C 0.93809 0.29625 0.39131 0.0
C1003 C 0.90415 0.29756 0.4071 0.0
C1004 C 0.93923 0.29782 0.35076 0.0
C1005 C 0.98409 0.29592 0.3555 0.0
N1006 N 0.91638 0.29906 0.38981 0.0
N1007 N 0.97227 0.29594 0.37321 0.0
H1008 H 0.32813 0.54791 0.4413 0.0
H1009 H 0.23001 0.52311 0.51596 0.0
H1010 H 0.26113 0.53156 0.41523 0.0
H1011 H 0.29481 0.5496 0.54158 0.0
H1012 H 0.24205 0.52165 0.47894 0.0
H1013 H 0.31699 0.5446 0.47814 0.0
C1014 C 0.31108 0.54356 0.44329 0.0
C1015 C 0.29553 0.54014 0.42511 0.0
C1016 C 0.25366 0.52766 0.49268 0.0
C1017 C 0.28267 0.53625 0.46733 0.0
C1018 C 0.24684 0.52833 0.51381 0.0
C1019 C 0.2614 0.53663 0.53183 0.0
C1020 C 0.27522 0.53522 0.48958 0.0
C1021 C 0.28298 0.54338 0.5281 0.0
C1022 C 0.30473 0.54168 0.46436 0.0
C1023 C 0.27367 0.53448 0.42875 0.0
N1024 N 0.28921 0.5426 0.5074 0.0
N1025 N 0.26789 0.53275 0.44944 0.0
H1026 H 0.24195 0.41656 0.76304 0.0
H1027 H 0.26639 0.50302 0.8667 0.0
H1028 H 0.22393 0.48277 0.76207 0.0
H1029 H 0.30301 0.44682 0.85653 0.0
H1030 H 0.24953 0.49577 0.82916 0.0
H1031 H 0.26275 0.42671 0.79839 0.0
C1032 C 0.24239 0.43325 0.77025 0.0
C1033 C 0.23112 0.44883 0.75961 0.0
C1034 C 0.26141 0.48516 0.83513 0.0
C1035 C 0.25482 0.46052 0.80016 0.0
C1036 C 0.27115 0.48936 0.85653 0.0
C1037 C 0.286 0.47537 0.86496 0.0
C1038 C 0.26634 0.46672 0.82215 0.0
C1039 C 0.29126 0.45774 0.851 0.0
C1040 C 0.25436 0.43906 0.79038 0.0
C1041 C 0.2324 0.47025 0.76969 0.0
N1042 N 0.28127 0.45379 0.8304 0.0
N1043 N 0.24386 0.47543 0.78952 0.0
H1044 H 0.7001 0.00985 0.51535 0.0
H1045 H 0.66187 0.89825 0.44239 0.0
H1046 H 0.71485 0.94615 0.53388 0.0
H1047 H 0.66559 0.96069 0.41482 0.0
H1048 H 0.67796 0.91621 0.47725 0.0
H1049 H 0.68418 -0.00722 0.47957 0.0
C1050 C 0.7 -0.00769 0.51191 0.0
C1051 C 0.70882 0.97941 0.52765 0.0
C1052 C 0.67536 0.926 0.46357 0.0
C1053 C 0.69052 0.95985 0.48693 0.0
C1054 C 0.66628 0.91573 0.44355 0.0
C1055 C 0.66264 0.92788 0.42543 0.0
C1056 C 0.68067 0.94872 0.46575 0.0
C1057 C 0.66801 0.95065 0.42832 0.0
C1058 C 0.69098 0.98261 0.49149 0.0
C1059 C 0.7083 0.95677 0.52228 0.0
N1060 N 0.67677 0.96035 0.44811 0.0
N1061 N 0.69922 0.94773 0.50244 0.0
H1062 H 0.69739 0.9541 0.19495 0.0
H1063 H 0.72127 0.04532 0.11389 0.0
H1064 H 0.70793 0.02253 0.21816 0.0
H1065 H 0.67501 -0.01116 0.09541 0.0
H1066 H 0.72402 0.0349 0.15144 0.0
H1067 H 0.69723 0.96425 0.15723 0.0
C1068 C 0.69991 0.97124 0.19212 0.0
C1069 C 0.70258 -0.01247 0.20968 0.0
C1070 C 0.71336 0.02483 0.13904 0.0
C1071 C 0.70265 -0.00088 0.16672 0.0
C1072 C 0.7116 0.03081 0.1176 0.0
C1073 C 0.69772 0.01808 0.10125 0.0
C1074 C 0.70158 0.00573 0.14413 0.0
C1075 C 0.68621 -0.00095 0.10718 0.0
C1076 C 0.69969 0.97698 0.17063 0.0
C1077 C 0.70566 0.00949 0.20506 0.0
N1078 N 0.68847 -0.00658 0.12809 0.0
N1079 N 0.70572 0.01467 0.18399 0.0
H1080 H 0.40476 0.30405 0.55221 0.0
H1081 H 0.50818 0.338 0.63837 0.0
H1082 H 0.40018 0.32739 0.61961 0.0
H1083 H 0.51206 0.30054 0.5765 0.0
H1084 H 0.46888 0.33672 0.63056 0.0
H1085 H 0.4444 0.30513 0.55964 0.0
C1086 C 0.41206 0.30934 0.56858 0.0
C1087 C 0.39912 0.31574 0.5853 0.0
C1088 C 0.47834 0.32877 0.6187 0.0
C1089 C 0.44445 0.31708 0.59385 0.0
C1090 C 0.50089 0.3294 0.62316 0.0
C1091 C 0.51375 0.31935 0.60812 0.0
C1092 C 0.46841 0.31818 0.59893 0.0
C1093 C 0.50309 0.30893 0.58848 0.0
C1094 C 0.43469 0.30996 0.57279 0.0
C1095 C 0.40949 0.3224 0.6062 0.0
N1096 N 0.48107 0.30865 0.58446 0.0
N1097 N 0.43154 0.32297 0.60985 0.0
H1098 H 0.20702 0.73049 0.93435 0.0
H1099 H 0.11165 0.75821 0.00925 0.0
H1100 H 0.21938 0.75458 0.00246 0.0
H1101 H 0.10217 0.71064 0.95295 0.0
H1102 H 0.1506 0.76257 0.0043 0.0
H1103 H 0.16778 0.72911 0.93811 0.0
C1104 C 0.2015 0.73568 0.95005 0.0
C1105 C 0.21651 0.74257 0.96816 0.0
C1106 C 0.13992 0.75124 -0.00697 0.0
C1107 C 0.17166 0.74109 0.97249 0.0
C1108 C 0.11768 0.74861 -0.00411 0.0
C1109 C 0.10347 0.73388 0.98161 0.0
C1110 C 0.14805 0.73931 0.97557 0.0
C1111 C 0.11231 0.72239 0.96423 0.0
C1112 C 0.17911 0.73478 0.95219 0.0
C1113 C 0.20839 0.74904 -0.01189 0.0
N1114 N 0.134 0.72537 0.96171 0.0
N1115 N 0.18649 0.74818 -0.01026 0.0
H1116 H 0.74594 0.21019 0.39233 0.0
H1117 H 0.85075 0.23569 0.47907 0.0
H1118 H 0.76065 0.16932 0.44448 0.0
H1119 H 0.83492 0.27559 0.42647 0.0
H1120 H 0.81697 0.21215 0.46813 0.0
H1121 H 0.77793 0.23492 0.40567 0.0
C1122 C 0.75591 0.20637 0.40659 0.0
C1123 C 0.7506 0.18757 0.41724 0.0
C1124 C 0.82086 0.22612 0.45906 0.0
C1125 C 0.78739 0.21599 0.43271 0.0
C1126 C 0.84004 0.23965 0.4654 0.0
C1127 C 0.84572 0.25754 0.45357 0.0
C1128 C 0.80727 0.23056 0.4408 0.0
C1129 C 0.83136 0.26177 0.43584 0.0
C1130 C 0.7742 0.22057 0.41424 0.0
C1131 C 0.76415 0.18358 0.43571 0.0
N1132 N 0.81288 0.24835 0.42996 0.0
N1133 N 0.78194 0.19766 0.44284 0.0
H1134 H 0.5388 0.76283 0.97355 0.0
H1135 H 0.45704 0.65364 0.95377 0.0
H1136 H 0.55164 0.70262 0.00166 0.0
H1137 H 0.45264 0.70875 0.91504 0.0
H1138 H 0.48858 0.67337 0.97576 0.0
H1139 H 0.50419 0.74507 0.95607 0.0
C1140 C 0.53431 0.74591 0.97616 0.0
C1141 C 0.54827 0.73417 -0.01102 0.0
C1142 C 0.48061 0.68119 0.96254 0.0
C1143 C 0.50858 0.71375 0.96902 0.0
C1144 C 0.46253 0.67001 0.95011 0.0
C1145 C 0.45235 0.67953 0.93248 0.0
C1146 C 0.48842 0.70209 0.95739 0.0
C1147 C 0.46022 0.70071 0.92831 0.0
C1148 C 0.51455 0.73577 0.96614 0.0
C1149 C 0.5415 0.71228 -0.00821 0.0
N1150 N 0.47783 0.71125 0.94062 0.0
N1151 N 0.52216 0.70277 0.98185 0.0
H1152 H 0.537 0.39397 0.29363 0.0
H1153 H 0.55363 0.52112 0.3336 0.0
H1154 H 0.54503 0.4184 0.36185 0.0
H1155 H 0.53044 0.4964 0.26748 0.0
H1156 H 0.55098 0.48361 0.34435 0.0
H1157 H 0.53492 0.4314 0.28368 0.0
C1158 C 0.53824 0.40717 0.30653 0.0
C1159 C 0.54139 0.40302 0.32862 0.0
C1160 C 0.54632 0.48641 0.32753 0.0
C1161 C 0.53914 0.44595 0.3173 0.0
C1162 C 0.54788 0.50778 0.32139 0.0
C1163 C 0.54228 0.51183 0.29962 0.0
C1164 C 0.53939 0.46894 0.31173 0.0
C1165 C 0.53475 0.494 0.28448 0.0
C1166 C 0.53701 0.42855 0.30083 0.0
C1167 C 0.54277 0.42081 0.34461 0.0
N1168 N 0.53372 0.47331 0.29077 0.0
N1169 N 0.54183 0.44151 0.33863 0.0
H1170 H 0.93403 0.17319 0.73291 0.0
H1171 H -0.0038 0.07247 0.68709 0.0
H1172 H -0.00801 0.18013 0.69826 0.0
H1173 H 0.94603 0.06575 0.73169 0.0
H1174 H -0.00735 0.11169 0.68859 0.0
H1175 H 0.9362 0.13356 0.73056 0.0
C1176 C 0.94723 0.16641 0.72485 0.0
C1177 C 0.96287 0.18004 0.71579 0.0
C1178 C 0.98238 0.10166 0.69805 0.0
C1179 C 0.96532 0.13471 0.7129 0.0
C1180 C 0.98445 0.07925 0.69725 0.0
C1181 C 0.97156 0.0658 0.70948 0.0
C1182 C 0.96723 0.11078 0.71109 0.0
C1183 C 0.95621 0.07546 0.7219 0.0
C1184 C 0.94844 0.14378 0.72351 0.0
C1185 C 0.9796 0.17031 0.70553 0.0
N1186 N 0.95453 0.09739 0.72246 0.0
N1187 N 0.98034 0.14827 0.70432 0.0
H1188 H 0.3821 0.77141 0.20559 0.0
H1189 H 0.4441 0.89087 0.23657 0.0
H1190 H 0.41831 0.80629 0.16 0.0
H1191 H 0.40329 0.85667 0.27889 0.0
H1192 H 0.43729 0.85931 0.2091 0.0
H1193 H 0.39176 0.80192 0.23324 0.0
C1194 C 0.39209 0.7855 0.20135 0.0
C1195 C 0.39932 0.78628 0.18035 0.0
C1196 C 0.4299 0.85872 0.22443 0.0
C1197 C 0.41055 0.82144 0.21215 0.0
C1198 C 0.43389 0.87665 0.24015 0.0
C1199 C 0.42408 0.87645 0.25995 0.0
C1200 C 0.41612 0.84046 0.22865 0.0
C1201 C 0.41088 0.85768 0.2637 0.0
C1202 C 0.39763 0.80296 0.2172 0.0
C1203 C 0.4123 0.80501 0.17593 0.0
N1204 N 0.40725 0.84051 0.24821 0.0
N1205 N 0.41749 0.82187 0.1917 0.0
H1206 H 0.98036 0.54019 0.73588 0.0
H1207 H 0.97973 0.44891 0.63551 0.0
H1208 H -0.00661 0.55607 0.67081 0.0
H1209 H 0.94993 0.4381 0.6952 0.0
H1210 H -0.00976 0.48715 0.64963 0.0
H1211 H 0.97453 0.50162 0.72257 0.0
C1212 C 0.98212 0.53558 0.7188 0.0
C1213 C -0.01276 0.55147 0.70441 0.0
C1214 C 0.98149 0.47635 0.65965 0.0
C1215 C 0.98058 0.50715 0.68906 0.0
C1216 C 0.97563 0.45454 0.65167 0.0
C1217 C 0.96383 0.44043 0.66417 0.0
C1218 C 0.97574 0.48392 0.68037 0.0
C1219 C 0.95879 0.44854 0.68494 0.0
C1220 C 0.97872 0.51352 0.7112 0.0
C1221 C -0.01067 0.54441 0.68245 0.0
N1222 N 0.96475 0.46973 0.69237 0.0
N1223 N -0.01404 0.52276 0.67542 0.0
H1224 H 0.70487 0.38018 0.58126 0.0
H1225 H 0.60202 0.38287 0.49425 0.0
H1226 H 0.63902 0.36135 0.59555 0.0
H1227 H 0.66511 0.3667 0.4762 0.0
H1228 H 0.61613 0.38567 0.53307 0.0
H1229 H 0.69107 0.3856 0.54387 0.0
C1230 C 0.68746 0.37759 0.57675 0.0
C1231 C 0.67303 0.3707 0.59188 0.0
C1232 C 0.62691 0.38181 0.52055 0.0
C1233 C 0.65719 0.37706 0.54915 0.0
C1234 C 0.61892 0.38031 0.49851 0.0
C1235 C 0.63244 0.37437 0.48222 0.0
C1236 C 0.64867 0.37787 0.52611 0.0
C1237 C 0.65423 0.37124 0.48841 0.0
C1238 C 0.67963 0.3807 0.55541 0.0
C1239 C 0.65066 0.36754 0.58497 0.0
N1240 N 0.6617 0.37301 0.5099 0.0
N1241 N 0.6434 0.37071 0.5641 0.0
H1242 H 0.79568 0.56841 0.24542 0.0
H1243 H 0.76076 0.59761 0.12409 0.0
H1244 H 0.78287 0.63311 0.22878 0.0
H1245 H 0.73988 0.53582 0.14793 0.0
H1246 H 0.78074 0.60887 0.15964 0.0
H1247 H 0.78699 0.55473 0.20669 0.0
C1248 C 0.79169 0.57981 0.2335 0.0
C1249 C 0.78992 0.60187 0.24015 0.0
C1250 C 0.77203 0.59273 0.15692 0.0
C1251 C 0.78016 0.58649 0.19625 0.0
C1252 C 0.76048 0.58631 0.1367 0.0
C1253 C 0.74808 0.56594 0.13314 0.0
C1254 C 0.77149 0.57858 0.17365 0.0
C1255 C 0.74909 0.55171 0.1499 0.0
C1256 C 0.78658 0.57199 0.21153 0.0
C1257 C 0.78433 0.61596 0.22423 0.0
N1258 N 0.76039 0.5584 0.16955 0.0
N1259 N 0.77959 0.60803 0.203 0.0
H1260 H 0.1967 0.98502 0.45757 0.0
H1261 H 0.29181 0.06024 0.52985 0.0
H1262 H 0.25975 0.00266 0.43502 0.0
H1263 H 0.2337 0.0335 0.5563 0.0
H1264 H 0.28057 0.03851 0.49519 0.0
H1265 H 0.21006 0.0019 0.49402 0.0
C1266 C 0.21339 -0.00767 0.46028 0.0
C1267 C 0.22707 -0.00746 0.44312 0.0
C1268 C 0.27034 0.03722 0.5086 0.0
C1269 C 0.24242 0.01198 0.48483 0.0
C1270 C 0.27671 0.04968 0.52835 0.0
C1271 C 0.26356 0.04877 0.54587 0.0
C1272 C 0.25054 0.02389 0.50624 0.0
C1273 C 0.24433 0.03461 0.54319 0.0
C1274 C 0.22101 0.00192 0.48113 0.0
C1275 C 0.24858 0.00216 0.44769 0.0
N1276 N 0.23826 0.02288 0.52365 0.0
N1277 N 0.25551 0.01163 0.46803 0.0
H1278 H 0.26229 0.01384 0.74658 0.0
H1279 H 0.3167 0.9375 0.82912 0.0
H1280 H 0.24632 0.94395 0.74025 0.0
H1281 H 0.29485 -0.0004 0.85197 0.0
H1282 H 0.29947 0.94157 0.79272 0.0
H1283 H 0.28334 0.0107 0.7817 0.0
C1284 C 0.26356 -0.00218 0.75243 0.0
C1285 C 0.25269 0.97909 0.74059 0.0
C1286 C 0.29863 0.9543 0.80577 0.0
C1287 C 0.27668 0.97543 0.78036 0.0
C1288 C 0.30829 0.95197 0.82664 0.0
C1289 C 0.30701 0.96805 0.84399 0.0
C1290 C 0.2881 0.97308 0.80195 0.0
C1291 C 0.29655 0.98682 0.83926 0.0
C1292 C 0.27538 -0.00392 0.77246 0.0
C1293 C 0.25447 0.95875 0.74899 0.0
N1294 N 0.28753 -0.01118 0.81869 0.0
N1295 N 0.26637 0.95741 0.76834 0.0
H1296 H 0.61211 0.63166 0.37944 0.0
H1297 H 0.50084 0.61857 0.30223 0.0
H1298 H 0.60724 0.64557 0.31172 0.0
H1299 H 0.50248 0.62605 0.37285 0.0
H1300 H 0.54021 0.62164 0.3051 0.0
H1301 H 0.57251 0.62218 0.37662 0.0
C1302 C 0.60279 0.63219 0.36385 0.0
C1303 C 0.61293 0.6392 0.34571 0.0
C1304 C 0.53195 0.62258 0.31998 0.0
C1305 C 0.56777 0.62889 0.34253 0.0
C1306 C 0.50926 0.62096 0.31842 0.0
C1307 C 0.4978 0.62202 0.33729 0.0
C1308 C 0.54363 0.62545 0.34061 0.0
C1309 C 0.51024 0.62471 0.35773 0.0
C1310 C 0.58019 0.62707 0.36234 0.0
C1311 C 0.60001 0.64031 0.3261 0.0
N1312 N 0.53246 0.62639 0.35883 0.0
N1313 N 0.5781 0.6352 0.32502 0.0
H1314 H 0.7881 0.26078 -0.01194 0.0
H1315 H 0.91657 0.28972 0.00856 0.0
H1316 H 0.81797 0.29092 0.05027 0.0
H1317 H 0.87991 0.29656 0.9469 0.0
H1318 H 0.88208 0.28158 0.02463 0.0
H1319 H 0.82377 0.26424 0.97328 0.0
C1320 C 0.80221 0.2678 -0.00129 0.0
C1321 C 0.80006 0.27574 0.02037 0.0
C1322 C 0.88178 0.28473 0.00754 0.0
C1323 C 0.8408 0.27957 0.0036 0.0
C1324 C 0.90142 0.28954 -0.00166 0.0
C1325 C 0.90137 0.29389 0.97622 0.0
C1326 C 0.86198 0.28379 -0.00555 0.0
C1327 C 0.88105 0.29286 0.96382 0.0
C1328 C 0.82249 0.26988 -0.00978 0.0
C1329 C 0.8189 0.28478 0.03341 0.0
N1330 N 0.86225 0.28784 0.97307 0.0
N1331 N 0.83853 0.28646 0.02482 0.0
H1332 H 0.21876 0.8228 0.63893 0.0
H1333 H 0.13993 0.76224 0.53868 0.0
H1334 H 0.23695 0.7709 0.59463 0.0
H1335 H 0.11682 0.79643 0.59501 0.0
H1336 H 0.17755 0.77395 0.55335 0.0
H1337 H 0.18351 0.8218 0.61712 0.0
C1338 C 0.21561 0.8117 0.62424 0.0
C1339 C 0.23071 0.7969 0.61852 0.0
C1340 C 0.16422 0.77917 0.56232 0.0
C1341 C 0.19052 0.79546 0.5938 0.0
C1342 C 0.14278 0.77261 0.5539 0.0
C1343 C 0.1253 0.77819 0.5658 0.0
C1344 C 0.16818 0.79151 0.58268 0.0
C1345 C 0.1299 0.79152 0.58551 0.0
C1346 C 0.19543 0.81097 0.61195 0.0
C1347 C 0.22564 0.78249 0.59962 0.0
N1348 N 0.15091 0.79759 0.59345 0.0
N1349 N 0.20592 0.78202 0.58801 0.0
H1350 H 0.39989 0.28865 0.01257 0.0
H1351 H 0.48655 0.23542 0.08873 0.0
H1352 H 0.38597 0.22529 0.03612 0.0
H1353 H 0.50476 0.2849 0.04609 0.0
H1354 H 0.44947 0.23154 0.07036 0.0
H1355 H 0.43838 0.28773 0.02506 0.0
C1356 C 0.40504 0.27438 0.02009 0.0
C1357 C 0.38981 0.25696 0.02321 0.0
C1358 C 0.46166 0.24306 0.06488 0.0
C1359 C 0.43371 0.25599 0.038 0.0
C1360 C 0.48274 0.24538 0.07544 0.0
C1361 C 0.49868 0.26057 0.06897 0.0
C1362 C 0.45642 0.2563 0.048 0.0
C1363 C 0.49299 0.27292 0.05151 0.0
C1364 C 0.427 0.27385 0.02719 0.0
C1365 C 0.39728 0.23889 0.03311 0.0
N1366 N 0.47226 0.27069 0.04181 0.0
N1367 N 0.4187 0.239 0.04046 0.0
H1368 H 0.42596 0.59266 0.59898 0.0
H1369 H 0.44527 0.47111 0.6282 0.0
H1370 H 0.46607 0.57816 0.65577 0.0
H1371 H 0.39768 0.48686 0.57801 0.0
H1372 H 0.4591 0.50992 0.63381 0.0
H1373 H 0.42149 0.55379 0.58649 0.0
C1374 C 0.4344 0.58138 0.60847 0.0
C1375 C 0.44671 0.58867 0.62823 0.0
C1376 C 0.44585 0.50481 0.62134 0.0
C1377 C 0.44098 0.54401 0.61451 0.0
C1378 C 0.4381 0.48269 0.61805 0.0
C1379 C 0.4202 0.47595 0.60281 0.0
C1380 C 0.43566 0.52014 0.60921 0.0
C1381 C 0.41135 0.49154 0.59013 0.0
C1382 C 0.43159 0.55912 0.6015 0.0
C1383 C 0.45643 0.57317 0.64041 0.0
N1384 N 0.41903 0.51293 0.59375 0.0
N1385 N 0.45326 0.55154 0.63342 0.0
H1386 H 0.9761 0.7825 0.22014 0.0
H1387 H 0.96538 0.86603 0.32298 0.0
H1388 H -0.01381 0.76431 0.28624 0.0
H1389 H 0.92903 0.86934 0.26062 0.0
H1390 H 0.97703 0.83058 0.30953 0.0
H1391 H 0.9621 0.8163 0.23429 0.0
C1392 C 0.97553 0.78563 0.23765 0.0
C1393 C 0.98309 0.7708 0.25207 0.0
C1394 C 0.96638 0.83902 0.29887 0.0
C1395 C 0.96717 0.80956 0.26834 0.0
C1396 C 0.95984 0.85923 0.30648 0.0
C1397 C 0.94623 0.87053 0.29286 0.0
C1398 C 0.95961 0.83033 0.27737 0.0
C1399 C 0.9394 0.86103 0.27167 0.0
C1400 C 0.96751 0.80493 0.24569 0.0
C1401 C 0.98172 0.77569 0.27458 0.0
N1402 N 0.94633 0.84157 0.26448 0.0
N1403 N 0.97412 0.79476 0.28206 0.0
H1404 H 0.59659 0.1866 0.80591 0.0
H1405 H 0.50764 0.11572 0.72284 0.0
H1406 H 0.52874 0.19948 0.80089 0.0
H1407 H 0.57008 0.09376 0.74351 0.0
H1408 H 0.51464 0.14663 0.75087 0.0
H1409 H 0.58711 0.15289 0.78226 0.0
C1410 C 0.57966 0.18229 0.7999 0.0
C1411 C 0.56344 0.19593 0.80531 0.0
C1412 C 0.5267 0.13492 0.74935 0.0
C1413 C 0.55249 0.15736 0.77804 0.0
C1414 C 0.52268 0.11721 0.73342 0.0
C1415 C 0.53842 0.10224 0.7306 0.0
C1416 C 0.54665 0.13775 0.76241 0.0
C1417 C 0.55771 0.10516 0.74469 0.0
C1418 C 0.57425 0.16298 0.78645 0.0
C1419 C 0.54176 0.18943 0.79713 0.0
N1420 N 0.56136 0.12266 0.75981 0.0
N1421 N 0.53692 0.17069 0.78371 0.0
H1422 H 0.00248 0.37614 0.27569 0.0
H1423 H 0.07502 0.46648 0.2225 0.0
H1424 H 0.03699 0.361 0.21898 0.0
H1425 H 0.02686 0.48183 0.26704 0.0
H1426 H 0.06057 0.42796 0.21969 0.0
H1427 H 0.01055 0.41508 0.27191 0.0
C1428 C 0.01156 0.38106 0.26228 0.0
C1429 C 0.01897 0.36538 0.24754 0.0
C1430 C 0.05295 0.43981 0.22981 0.0
C1431 C 0.02855 0.40991 0.24325 0.0
C1432 C 0.06123 0.46176 0.23146 0.0
C1433 C 0.0522 0.47731 0.24514 0.0
C1434 C 0.03575 0.43336 0.24217 0.0
C1435 C 0.03423 0.4704 0.25623 0.0
C1436 C 0.01609 0.40329 0.26006 0.0
C1437 C 0.03065 0.37258 0.23045 0.0
N1438 N 0.02679 0.44889 0.25474 0.0
N1439 N 0.03533 0.39438 0.22892 0.0
H1440 H 0.37745 0.56186 0.30912 0.0
H1441 H 0.50666 0.5745 0.30449 0.0
H1442 H 0.42311 0.54793 0.36205 0.0
H1443 H 0.46125 0.57626 0.24775 0.0
H1444 H 0.47623 0.56409 0.32568 0.0
H1445 H 0.40779 0.56708 0.28625 0.0
C1446 C 0.39382 0.55975 0.31589 0.0
C1447 C 0.39773 0.5545 0.33756 0.0
C1448 C 0.47289 0.56647 0.30852 0.0
C1449 C 0.43251 0.56037 0.31146 0.0
C1450 C 0.49027 0.57235 0.29642 0.0
C1451 C 0.4864 0.57647 0.27443 0.0
C1452 C 0.45145 0.56469 0.29855 0.0
C1453 C 0.46488 0.57342 0.26474 0.0
C1454 C 0.41112 0.56264 0.30279 0.0
C1455 C 0.4193 0.552 0.34546 0.0
N1456 N 0.44815 0.56796 0.27693 0.0
N1457 N 0.43586 0.55506 0.33246 0.0
H1458 H 0.10209 0.41882 0.71481 0.0
H1459 H 0.02339 0.35093 0.61835 0.0
H1460 H 0.12576 0.38487 0.65858 0.0
H1461 H 0.00086 0.37907 0.67788 0.0
H1462 H 0.06079 0.36561 0.63136 0.0
H1463 H 0.06473 0.40679 0.70013 0.0
C1464 C 0.09945 0.4089 0.69932 0.0
C1465 C 0.11714 0.40277 0.68797 0.0
C1466 C 0.04769 0.36858 0.6416 0.0
C1467 C 0.07426 0.38889 0.67104 0.0
C1468 C 0.02641 0.3602 0.63419 0.0
C1469 C 0.00923 0.36349 0.6473 0.0
C1470 C 0.05174 0.38052 0.66219 0.0
C1471 C 0.0138 0.37592 0.66749 0.0
C1472 C 0.07808 0.40201 0.69096 0.0
C1473 C 0.11265 0.38993 0.66794 0.0
N1474 N 0.03464 0.38391 0.67437 0.0
N1475 N 0.09166 0.38337 0.66014 0.0
H1476 H 0.83102 0.02836 0.61413 0.0
H1477 H 0.89436 0.96056 0.70089 0.0
H1478 H 0.79915 0.97907 0.64973 0.0
H1479 H 0.92636 0.00823 0.66379 0.0
H1480 H 0.85887 0.97002 0.68535 0.0
H1481 H 0.86552 0.02415 0.63508 0.0
C1482 C 0.83121 0.01679 0.62649 0.0
C1483 C 0.81216 0.0039 0.63001 0.0
C1484 C 0.87362 0.97851 0.68066 0.0
C1485 C 0.85172 -0.00109 0.65402 0.0
C1486 C 0.89382 0.9731 0.68951 0.0
C1487 C 0.91317 0.98331 0.68315 0.0
C1488 C 0.87281 -0.00567 0.66542 0.0
C1489 C 0.91172 -0.00027 0.66873 0.0
C1490 C 0.85096 0.01437 0.63844 0.0
C1491 C 0.81344 -0.01074 0.64635 0.0
N1492 N 0.89188 0.0046 0.66016 0.0
N1493 N 0.8329 0.98704 0.65761 0.0
H1494 H 0.61721 -0.00797 0.30816 0.0
H1495 H 0.50186 0.92216 0.27677 0.0
H1496 H 0.60966 0.92809 0.27265 0.0
H1497 H 0.50913 0.9848 0.3145 0.0
H1498 H 0.54167 0.9231 0.27706 0.0
H1499 H 0.57812 -0.01127 0.31294 0.0
C1500 C 0.60738 0.97723 0.30149 0.0
C1501 C 0.61673 0.96038 0.28982 0.0
C1502 C 0.53461 0.9366 0.28541 0.0
C1503 C 0.57189 0.9566 0.29504 0.0
C1504 C 0.51192 0.93603 0.28524 0.0
C1505 C 0.50229 0.95342 0.29559 0.0
C1506 C 0.54779 0.95479 0.2959 0.0
C1507 C 0.51596 0.97108 0.3063 0.0
C1508 C 0.58503 0.97538 0.3042 0.0
C1509 C 0.60317 0.94156 0.28163 0.0
N1510 N 0.53802 0.97137 0.30609 0.0
N1511 N 0.58146 0.94025 0.28426 0.0
H1512 H 0.31451 0.40763 0.55696 0.0
H1513 H 0.20905 0.45536 0.60324 0.0
H1514 H 0.26871 0.37016 0.59197 0.0
H1515 H 0.26571 0.49522 0.58805 0.0
H1516 H 0.22609 0.42251 0.59071 0.0
H1517 H 0.29163 0.4381 0.55919 0.0
C1518 C 0.2995 0.40568 0.56486 0.0
C1519 C 0.29368 0.38639 0.57456 0.0
C1520 C 0.23458 0.43848 0.58973 0.0
C1521 C 0.26751 0.4213 0.57726 0.0
C1522 C 0.22488 0.45718 0.59685 0.0
C1523 C 0.23604 0.47796 0.59666 0.0
C1524 C 0.25543 0.44066 0.58212 0.0
C1525 C 0.25653 0.47949 0.58831 0.0
C1526 C 0.28645 0.42309 0.56611 0.0
C1527 C 0.27396 0.3848 0.58447 0.0
N1528 N 0.2656 0.46108 0.58143 0.0
N1529 N 0.26168 0.40212 0.58576 0.0
H1530 H 0.31812 0.65925 0.01384 0.0
H1531 H 0.3015 0.56452 0.91559 0.0
H1532 H 0.3093 0.67128 0.94566 0.0
H1533 H 0.30666 0.55265 0.9838 0.0
H1534 H 0.31008 0.60382 0.92605 0.0
H1535 H 0.31984 0.62045 0.00295 0.0
C1536 C 0.31676 0.65379 -0.00343 0.0
C1537 C 0.31315 0.66851 0.98066 0.0
C1538 C 0.30952 0.59262 0.93874 0.0
C1539 C 0.31491 0.62402 0.96807 0.0
C1540 C 0.30466 0.57026 0.93275 0.0
C1541 C 0.30306 0.55551 0.94888 0.0
C1542 C 0.31271 0.60023 0.96103 0.0
C1543 C 0.30748 0.56358 0.9709 0.0
C1544 C 0.31769 0.63159 -0.00964 0.0
C1545 C 0.31181 0.6605 0.95852 0.0
N1546 N 0.31187 0.58544 0.97634 0.0
N1547 N 0.31243 0.63877 0.95289 0.0
H1548 H 0.64642 0.07157 0.38917 0.0
H1549 H 0.65908 0.94926 0.33939 0.0
H1550 H 0.70738 0.04889 0.37111 0.0
H1551 H 0.5984 0.97078 0.35908 0.0
H1552 H 0.67696 0.98594 0.35053 0.0
H1553 H 0.6283 0.03509 0.3777 0.0
C1554 C 0.65599 0.05895 0.38276 0.0
C1555 C 0.67847 0.06331 0.38113 0.0
C1556 C 0.65973 0.98271 0.35242 0.0
C1557 C 0.65783 0.02151 0.368 0.0
C1558 C 0.64957 0.96181 0.34605 0.0
C1559 C 0.62726 0.95721 0.34816 0.0
C1560 C 0.6475 -0.00091 0.36108 0.0
C1561 C 0.61563 0.97386 0.3571 0.0
C1562 C 0.64564 0.03811 0.37624 0.0
C1563 C 0.69003 0.0463 0.3727 0.0
N1564 N 0.62586 -0.00589 0.36318 0.0
N1565 N 0.67959 0.02618 0.36648 0.0
H1566 H 0.63371 0.85527 0.03917 0.0
H1567 H 0.66402 0.96308 0.97881 0.0
H1568 H 0.6394 0.85517 0.9697 0.0
H1569 H 0.65423 0.96428 0.04741 0.0
H1570 H 0.65858 0.92302 0.97591 0.0
H1571 H 0.64472 0.89462 0.04331 0.0
C1572 C 0.63746 0.86346 0.02481 0.0
C1573 C 0.63547 0.85189 0.00402 0.0
C1574 C 0.65766 0.93199 -0.00836 0.0
C1575 C 0.648 0.89698 0.00864 0.0
C1576 C 0.66075 0.95482 -0.00674 0.0
C1577 C 0.6591 0.96688 0.01327 0.0
C1578 C 0.65302 0.92114 0.01021 0.0
C1579 C 0.65526 0.95548 0.03163 0.0
C1580 C 0.6437 0.88595 0.02718 0.0
C1581 C 0.64057 0.8634 0.98602 0.0
N1582 N 0.65217 0.93324 0.02963 0.0
N1583 N 0.64648 0.88529 -0.01126 0.0
H1584 H 0.56711 0.31343 0.436 0.0
H1585 H 0.5755 0.36483 0.56065 0.0
H1586 H 0.55139 0.37878 0.45542 0.0
H1587 H 0.60363 0.30548 0.54062 0.0
H1588 H 0.56307 0.3684 0.52237 0.0
H1589 H 0.57716 0.30834 0.47451 0.0
C1590 C 0.56571 0.32667 0.44835 0.0
C1591 C 0.55857 0.34661 0.44244 0.0
C1592 C 0.57191 0.35455 0.52631 0.0
C1593 C 0.5698 0.34084 0.4865 0.0
C1594 C 0.57898 0.35253 0.54813 0.0
C1595 C 0.59072 0.33494 0.55364 0.0
C1596 C 0.57646 0.33874 0.50992 0.0
C1597 C 0.59471 0.31934 0.5369 0.0
C1598 C 0.57146 0.32377 0.47031 0.0
C1599 C 0.55687 0.36314 0.45916 0.0
N1600 N 0.58764 0.32162 0.51575 0.0
N1601 N 0.56242 0.35987 0.48038 0.0
H1602 H 0.97683 0.29518 0.64734 0.0
H1603 H 0.88732 0.28121 0.5455 0.0
H1604 H 0.90803 0.27939 0.65245 0.0
H1605 H 0.95596 0.29754 0.54083 0.0
H1606 H 0.89355 0.28712 0.58549 0.0
H1607 H 0.96854 0.3031 0.60949 0.0
C1608 C 0.95993 0.29376 0.64065 0.0
C1609 C 0.94314 0.28607 0.65293 0.0
C1610 C 0.90721 0.28974 0.57574 0.0
C1611 C 0.93357 0.29502 0.60953 0.0
C1612 C 0.90363 0.28639 0.55297 0.0
C1613 C 0.92119 0.28871 0.54 0.0
C1614 C 0.92856 0.29523 0.58555 0.0
C1615 C 0.94203 0.29543 0.55032 0.0
C1616 C 0.95521 0.29827 0.619 0.0
C1617 C 0.92154 0.28489 0.64348 0.0
N1618 N 0.94519 0.2982 0.57251 0.0
N1619 N 0.9174 0.28893 0.62223 0.0
H1620 H 0.37552 0.66157 0.06645 0.0
H1621 H 0.3673 0.68258 0.9392 0.0
H1622 H 0.3804 0.72587 0.04292 0.0
H1623 H 0.36883 0.61852 0.9625 0.0
H1624 H 0.3706 0.69874 0.97717 0.0
H1625 H 0.37119 0.64541 0.02854 0.0
C1626 C 0.37567 0.6723 0.05334 0.0
C1627 C 0.37844 0.69513 0.05792 0.0
C1628 C 0.37025 0.68115 0.97403 0.0
C1629 C 0.3736 0.67671 0.01445 0.0
C1630 C 0.36831 0.67196 0.95239 0.0
C1631 C 0.36758 0.64922 0.94786 0.0
C1632 C 0.37159 0.66748 -0.00876 0.0
C1633 C 0.36921 0.63614 0.96543 0.0
C1634 C 0.37325 0.66306 0.03168 0.0
C1635 C 0.37841 0.7082 0.04021 0.0
N1636 N 0.37109 0.64544 0.98638 0.0
N1637 N 0.37607 0.69881 0.0193 0.0
H1638 H 0.02557 0.6589 0.80905 0.0
H1639 H 0.97935 0.68981 0.92431 0.0
H1640 H 0.9571 0.65294 0.81967 0.0
H1641 H 0.0479 0.6919 0.91495 0.0
H1642 H 0.97073 0.68096 0.88486 0.0
H1643 H 0.03389 0.67562 0.8465 0.0
C1644 C 0.01225 0.66132 0.81916 0.0
C1645 C -0.00939 0.65428 0.81125 0.0
C1646 C -0.01233 0.68348 0.89137 0.0
C1647 C 6e-05 0.67332 0.85422 0.0
C1648 C -0.00744 0.68854 0.91385 0.0
C1649 C 0.01433 0.69115 0.92279 0.0
C1650 C 0.00471 0.68108 0.87776 0.0
C1651 C 0.03091 0.68968 0.9086 0.0
C1652 C 0.01703 0.67083 0.84058 0.0
C1653 C 0.97404 0.65794 0.8251 0.0
N1654 N 0.02576 0.68452 0.88678 0.0
N1655 N 0.97912 0.66703 0.84595 0.0
H1656 H 0.56451 0.37277 0.60008 0.0
H1657 H 0.45248 0.39544 0.6516 0.0
H1658 H 0.55836 0.38357 0.66939 0.0
H1659 H 0.45596 0.37557 0.58329 0.0
H1660 H 0.49204 0.39463 0.65778 0.0
H1661 H 0.5255 0.37675 0.59297 0.0
C1662 C 0.555 0.37613 0.6138 0.0
C1663 C 0.56475 0.37794 0.63537 0.0
C1664 C 0.48423 0.39066 0.64137 0.0
C1665 C 0.52014 0.38272 0.62733 0.0
C1666 C 0.46167 0.39118 0.63785 0.0
C1667 C 0.45105 0.38583 0.61686 0.0
C1668 C 0.4963 0.38467 0.62379 0.0
C1669 C 0.46365 0.38011 0.59965 0.0
C1670 C 0.53273 0.37841 0.60972 0.0
C1671 C 0.55157 0.38206 0.6525 0.0
N1672 N 0.48563 0.37969 0.60348 0.0
N1673 N 0.52998 0.38435 0.64811 0.0
H1674 H 0.91589 0.61806 0.25124 0.0
H1675 H 0.00363 0.53288 0.27848 0.0
H1676 H 0.89844 0.55295 0.26929 0.0
H1677 H 0.02072 0.59966 0.26567 0.0
H1678 H 0.96485 0.53876 0.27211 0.0
H1679 H 0.95416 0.6105 0.2534 0.0
C1680 C 0.92007 0.60212 0.25555 0.0
C1681 C 0.90389 0.58616 0.26021 0.0
C1682 C 0.97706 0.55214 0.27069 0.0
C1683 C 0.94782 0.5774 0.26278 0.0
C1684 C -0.00087 0.54879 0.27434 0.0
C1685 C 0.01523 0.56599 0.27308 0.0
C1686 C 0.97111 0.5728 0.26553 0.0
C1687 C 0.00871 0.58614 0.26719 0.0
C1688 C 0.94197 0.59782 0.25681 0.0
C1689 C 0.91035 0.56578 0.26564 0.0
N1690 N -0.01286 0.58904 0.26377 0.0
N1691 N 0.93181 0.56202 0.26686 0.0
H1692 H 0.10297 0.00294 0.37994 0.0
H1693 H 0.00898 0.93138 0.30118 0.0
H1694 H 0.11423 0.94398 0.3412 0.0
H1695 H -0.00094 -0.00897 0.33919 0.0
H1696 H 0.04757 0.93548 0.31545 0.0
H1697 H 0.06499 -0.00114 0.36478 0.0
C1698 C 0.09749 -0.01086 0.36818 0.0
C1699 C 0.11186 0.97375 0.36188 0.0
C1700 C 0.037 0.94774 0.3206 0.0
C1701 C 0.06816 0.96893 0.34445 0.0
C1702 C 0.01504 0.9454 0.31245 0.0
C1703 C 0.00105 0.96112 0.31875 0.0
C1704 C 0.04494 0.96583 0.33532 0.0
C1705 C 0.00947 0.97876 0.3337 0.0
C1706 C 0.07574 0.98681 0.35953 0.0
C1707 C 0.10375 0.95624 0.34654 0.0
N1708 N 0.03087 0.98068 0.34142 0.0
N1709 N 0.08243 0.95427 0.33839 0.0
H1710 H 0.35037 0.98314 0.67201 0.0
H1711 H 0.45177 0.07483 0.69294 0.0
H1712 H 0.34764 0.04564 0.70844 0.0
H1713 H 0.45303 0.01394 0.65353 0.0
H1714 H 0.41402 0.06393 0.70004 0.0
H1715 H 0.38831 -0.00633 0.66607 0.0
C1716 C 0.35775 -0.00092 0.6788 0.0
C1717 C 0.34578 0.01352 0.69076 0.0
C1718 C 0.42249 0.05296 0.68978 0.0
C1719 C 0.38931 0.0257 0.68401 0.0
C1720 C 0.44398 0.05919 0.68574 0.0
C1721 C 0.45522 0.04542 0.67228 0.0
C1722 C 0.41229 0.03269 0.68047 0.0
C1723 C 0.4447 0.02513 0.66369 0.0
C1724 C 0.37944 0.00509 0.67538 0.0
C1725 C 0.35622 0.03397 0.69911 0.0
N1726 N 0.42378 0.01941 0.66784 0.0
N1727 N 0.37738 0.03945 0.69558 0.0
H1728 H 0.58403 0.53417 0.36807 0.0
H1729 H 0.63975 0.43619 0.4226 0.0
H1730 H 0.64673 0.5421 0.40578 0.0
H1731 H 0.58542 0.42595 0.37325 0.0
H1732 H 0.63922 0.47585 0.42109 0.0
H1733 H 0.58113 0.49522 0.37408 0.0
C1734 C 0.5971 0.52778 0.37777 0.0
C1735 C 0.61571 0.54141 0.38636 0.0
C1736 C 0.62734 0.46495 0.41064 0.0
C1737 C 0.61246 0.49687 0.39326 0.0
C1738 C 0.62764 0.44239 0.41154 0.0
C1739 C 0.61287 0.42794 0.39771 0.0
C1740 C 0.612 0.47309 0.39596 0.0
C1741 C 0.59722 0.43666 0.38394 0.0
C1742 C 0.59546 0.50553 0.38111 0.0
C1743 C 0.63216 0.53219 0.39873 0.0
N1744 N 0.59727 0.4587 0.38328 0.0
N1745 N 0.63016 0.51051 0.40177 0.0
H1746 H 0.70088 0.35932 0.05258 0.0
H1747 H 0.72837 0.48354 0.10391 0.0
H1748 H 0.7591 0.38217 0.0946 0.0
H1749 H 0.67388 0.46276 0.05641 0.0
H1750 H 0.73889 0.44596 0.10207 0.0
H1751 H 0.68942 0.39652 0.05541 0.0
C1752 C 0.71118 0.3721 0.06252 0.0
C1753 C 0.73102 0.3676 0.07332 0.0
C1754 C 0.72466 0.44958 0.092 0.0
C1755 C 0.71804 0.41023 0.07656 0.0
C1756 C 0.71872 0.47101 0.09302 0.0
C1757 C 0.70037 0.4762 0.08019 0.0
C1758 C 0.71206 0.43317 0.07811 0.0
C1759 C 0.68822 0.45941 0.06649 0.0
C1760 C 0.70467 0.39336 0.06405 0.0
C1761 C 0.74372 0.38485 0.08592 0.0
N1762 N 0.69427 0.43863 0.06581 0.0
N1763 N 0.73704 0.40536 0.08716 0.0
H1764 H 0.2579 0.9277 0.68462 0.0
H1765 H 0.2968 0.01946 0.6076 0.0
H1766 H 0.26754 0.9136 0.61637 0.0
H1767 H 0.27281 0.03442 0.67041 0.0
H1768 H 0.28822 0.98035 0.61123 0.0
H1769 H 0.26558 0.96668 0.68056 0.0
C1770 C 0.26149 0.93278 0.66874 0.0
C1771 C 0.26206 0.91731 0.6508 0.0
C1772 C 0.28483 -0.00783 0.62423 0.0
C1773 C 0.27073 0.96199 0.64606 0.0
C1774 C 0.28979 0.01441 0.62218 0.0
C1775 C 0.28582 0.03002 0.6389 0.0
C1776 C 0.27579 0.98552 0.64314 0.0
C1777 C 0.27639 0.0228 0.65732 0.0
C1778 C 0.26578 0.95507 0.66644 0.0
C1779 C 0.26688 0.92491 0.63065 0.0
N1780 N 0.27179 0.00105 0.65901 0.0
N1781 N 0.27109 0.9467 0.62885 0.0
H1782 H 0.35284 0.14656 0.95488 0.0
H1783 H 0.34233 0.01864 0.97258 0.0
H1784 H 0.36673 0.12101 0.01735 0.0
H1785 H 0.32507 0.04431 0.91103 0.0
H1786 H 0.3546 0.05584 -0.01147 0.0
H1787 H 0.34572 0.10914 0.93783 0.0
C1788 C 0.35453 0.1331 0.96501 0.0
C1789 C 0.36027 0.13698 0.98763 0.0
C1790 C 0.34822 0.05337 0.97151 0.0
C1791 C 0.35208 0.09401 0.96817 0.0
C1792 C 0.34125 0.03217 0.96243 0.0
C1793 C 0.33238 0.02858 0.94061 0.0
C1794 C 0.34639 0.07109 0.95861 0.0
C1795 C 0.33158 0.04654 0.92802 0.0
C1796 C 0.35044 0.11171 0.95525 0.0
C1797 C 0.36225 0.11884 -0.00012 0.0
N1798 N 0.33833 0.06706 0.93724 0.0
N1799 N 0.35806 0.09817 -0.00998 0.0
H1800 H 0.4066 0.58021 0.51147 0.0
H1801 H 0.45134 0.63413 0.40749 0.0
H1802 H 0.46058 0.63018 0.51591 0.0
H1803 H 0.39372 0.58891 0.4038 0.0
H1804 H 0.45748 0.62981 0.44675 0.0
H1805 H 0.40388 0.58036 0.47164 0.0
C1806 C 0.41796 0.59115 0.50409 0.0
C1807 C 0.43376 0.60531 0.51711 0.0
C1808 C 0.44352 0.62076 0.43737 0.0
C1809 C 0.43073 0.60554 0.47142 0.0
C1810 C 0.44007 0.62321 0.41502 0.0
C1811 C 0.42176 0.61223 0.40265 0.0
C1812 C 0.42862 0.60708 0.44736 0.0
C1813 C 0.40782 0.59793 0.41294 0.0
C1814 C 0.41639 0.59123 0.48131 0.0
C1815 C 0.44807 0.61906 0.50656 0.0
N1816 N 0.41143 0.59591 0.43476 0.0
N1817 N 0.44616 0.61889 0.48437 0.0
H1818 H -0.00893 0.74007 0.37153 0.0
H1819 H 0.09268 0.75486 0.46289 0.0
H1820 H 0.05726 0.75892 0.35797 0.0
H1821 H 0.02755 0.73112 0.47526 0.0
H1822 H 0.07947 0.75943 0.42501 0.0
H1823 H 0.00357 0.73953 0.41016 0.0
C1824 C 0.00822 0.7442 0.37667 0.0
C1825 C 0.02315 0.74944 0.36143 0.0
C1826 C 0.06803 0.75324 0.43599 0.0
C1827 C 0.03759 0.74883 0.40571 0.0
C1828 C 0.07558 0.75064 0.45755 0.0
C1829 C 0.06122 0.74219 0.47195 0.0
C1830 C 0.04592 0.74751 0.42885 0.0
C1831 C 0.03915 0.73735 0.46447 0.0
C1832 C 0.01535 0.74387 0.39875 0.0
C1833 C 0.04518 0.7547 0.3691 0.0
N1834 N 0.03218 0.73993 0.44338 0.0
N1835 N 0.05173 0.75419 0.39068 0.0
H1836 H 0.5278 0.285 0.92733 0.0
H1837 H 0.61325 0.28023 0.03152 0.0
H1838 H 0.59519 0.27275 0.92253 0.0
H1839 H 0.54902 0.30188 0.036 0.0
H1840 H 0.60682 0.277 -0.00851 0.0
H1841 H 0.53513 0.29122 0.96707 0.0
C1842 C 0.54418 0.28375 0.9346 0.0
C1843 C 0.56088 0.27826 0.92154 0.0
C1844 C 0.59417 0.28261 0.00119 0.0
C1845 C 0.56935 0.28519 0.96711 0.0
C1846 C 0.59786 0.28445 0.02399 0.0
C1847 C 0.58174 0.29161 0.03694 0.0
C1848 C 0.57409 0.28767 -0.0087 0.0
C1849 C 0.56192 0.29652 0.0265 0.0
C1850 C 0.54835 0.2873 0.95732 0.0
C1851 C 0.5818 0.27693 0.93192 0.0
N1852 N 0.55862 0.29444 0.00428 0.0
N1853 N 0.5854 0.28022 0.95408 0.0
H1854 H 0.03367 0.36853 0.12442 0.0
H1855 H 0.97119 0.29781 0.0193 0.0
H1856 H -0.01516 0.31479 0.12816 0.0
H1857 H 0.01959 0.35166 0.01537 0.0
H1858 H 0.975 0.30462 0.0593 0.0
H1859 H 0.02794 0.36344 0.08449 0.0
C1860 C 0.02169 0.35571 0.11686 0.0
C1861 C 0.00977 0.34202 0.12968 0.0
C1862 C -0.01518 0.31496 0.04973 0.0
C1863 C 0.00315 0.33609 0.08396 0.0
C1864 C 0.98265 0.31104 0.02696 0.0
C1865 C -0.0046 0.32395 0.01422 0.0
C1866 C -0.00021 0.332 0.05977 0.0
C1867 C 0.00974 0.34115 0.02475 0.0
C1868 C 0.01843 0.35281 0.09405 0.0
C1869 C -0.00555 0.3257 0.11896 0.0
N1870 N 0.01166 0.34461 0.04694 0.0
N1871 N -0.00837 0.32315 0.09675 0.0
loop_
_geom_bond_atom_site_label_1
_geom_bond_atom_site_label_2
_geom_bond_distance
_geom_bond_site_symmetry_2
_ccdc_geom_bond_type
O0 Cd1 2.300 . S
O0 C7 1.275 . S
Cd1 O0 2.300 . S
Cd1 O9 2.381 . S
Cd1 O10 2.378 . S
O2 Cd3 2.385 . S
O2 C7 1.255 . S
Cd3 O2 2.385 . S
Cd3 O4 2.317 . S
O4 Cd3 2.317 . S
O4 C5 1.232 . S
C5 O4 1.232 . S
C5 O6 1.218 . S
O6 C5 1.218 . S
C7 O0 1.275 . S
C7 O2 1.255 . S
C8 O9 1.258 . S
C8 O10 1.256 . S
O9 Cd1 2.381 . S
O9 C8 1.258 . S
O10 Cd1 2.378 . S
O10 C8 1.256 . S
O11 Cd12 2.300 . S
O11 C18 1.275 . S
Cd12 O11 2.300 . S
Cd12 O20 2.381 . S
Cd12 O21 2.378 . S
O13 Cd14 2.385 . S
O13 C18 1.255 . S
Cd14 O13 2.385 . S
Cd14 O15 2.317 . S
O15 Cd14 2.317 . S
O15 C16 1.232 . S
C16 O15 1.232 . S
C16 O17 1.218 . S
O17 C16 1.218 . S
C18 O11 1.275 . S
C18 O13 1.255 . S
C19 O20 1.258 . S
C19 O21 1.256 . S
O20 Cd12 2.381 . S
O20 C19 1.258 . S
O21 Cd12 2.378 . S
O21 C19 1.256 . S
O22 Cd23 2.300 1_545 S
O22 C29 1.274 1_545 S
Cd23 O22 2.300 1_565 S
Cd23 O31 2.381 1_565 S
Cd23 O32 2.378 . S
O24 Cd25 2.385 . S
O24 C29 1.255 . S
Cd25 O24 2.385 . S
Cd25 O26 2.317 . S
O26 Cd25 2.317 . S
O26 C27 1.232 . S
C27 O26 1.232 . S
C27 O28 1.218 . S
O28 C27 1.218 . S
C29 O22 1.274 1_565 S
C29 O24 1.255 . S
C30 O31 1.258 . S
C30 O32 1.256 1_545 S
O31 Cd23 2.381 1_545 S
O31 C30 1.258 . S
O32 Cd23 2.378 . S
O32 C30 1.256 1_565 S
O33 Cd34 2.300 1_565 S
O33 C40 1.275 1_565 S
Cd34 O33 2.300 1_545 S
Cd34 O42 2.381 1_545 S
Cd34 O43 2.378 . S
O35 Cd36 2.385 . S
O35 C40 1.255 . S
Cd36 O35 2.385 . S
Cd36 O37 2.317 . S
O37 Cd36 2.317 . S
O37 C38 1.232 . S
C38 O37 1.232 . S
C38 O39 1.218 . S
O39 C38 1.218 . S
C40 O33 1.275 1_545 S
C40 O35 1.255 . S
C41 O42 1.258 1_545 S
C41 O43 1.256 . S
O42 Cd34 2.381 1_565 S
O42 C41 1.258 1_565 S
O43 Cd34 2.378 . S
O43 C41 1.256 . S
O44 Cd45 2.300 . S
O44 C51 1.275 . S
Cd45 O44 2.300 . S
Cd45 O53 2.381 . S
Cd45 O54 2.378 . S
O46 Cd47 2.385 . S
O46 C51 1.255 . S
Cd47 O46 2.385 . S
Cd47 O48 2.317 . S
O48 Cd47 2.317 . S
O48 C49 1.232 . S
C49 O48 1.232 . S
C49 O50 1.218 . S
O50 C49 1.218 . S
C51 O44 1.275 . S
C51 O46 1.255 . S
C52 O53 1.258 . S
C52 O54 1.256 . S
O53 Cd45 2.381 . S
O53 C52 1.258 . S
O54 Cd45 2.378 . S
O54 C52 1.256 . S
O55 Cd56 2.300 1_556 S
O55 C62 1.275 1_556 S
Cd56 O55 2.300 1_554 S
Cd56 O64 2.381 1_554 S
Cd56 O65 2.378 . S
O57 Cd58 2.385 . S
O57 C62 1.255 . S
Cd58 O57 2.385 . S
Cd58 O59 2.317 . S
O59 Cd58 2.317 . S
O59 C60 1.232 . S
C60 O59 1.232 . S
C60 O61 1.218 . S
O61 C60 1.218 . S
C62 O55 1.275 1_554 S
C62 O57 1.255 . S
C63 O64 1.258 1_554 S
C63 O65 1.256 . S
O64 Cd56 2.381 1_556 S
O64 C63 1.258 1_556 S
O65 Cd56 2.378 . S
O65 C63 1.256 . S
O66 Cd67 2.300 . S
O66 C73 1.275 . S
Cd67 O66 2.300 . S
Cd67 O75 2.381 . S
Cd67 O76 2.378 . S
O68 Cd69 2.385 . S
O68 C73 1.255 . S
Cd69 O68 2.385 . S
Cd69 O70 2.317 . S
O70 Cd69 2.317 . S
O70 C71 1.232 . S
C71 O70 1.232 . S
C71 O72 1.218 . S
O72 C71 1.218 . S
C73 O66 1.275 . S
C73 O68 1.255 . S
C74 O75 1.258 . S
C74 O76 1.256 . S
O75 Cd67 2.381 . S
O75 C74 1.258 . S
O76 Cd67 2.378 . S
O76 C74 1.256 . S
O77 Cd78 2.300 1_554 S
O77 C84 1.274 1_554 S
Cd78 O77 2.300 1_556 S
Cd78 O86 2.381 1_556 S
Cd78 O87 2.378 . S
O79 Cd80 2.385 . S
O79 C84 1.255 . S
Cd80 O79 2.385 . S
Cd80 O81 2.317 . S
O81 Cd80 2.317 . S
O81 C82 1.232 . S
C82 O81 1.232 . S
C82 O83 1.218 . S
O83 C82 1.218 . S
C84 O77 1.274 1_556 S
C84 O79 1.255 . S
C85 O86 1.258 . S
C85 O87 1.256 1_554 S
O86 Cd78 2.381 1_554 S
O86 C85 1.258 . S
O87 Cd78 2.378 . S
O87 C85 1.256 1_556 S
O88 Cd89 2.300 . S
O88 C95 1.275 . S
Cd89 O88 2.300 . S
Cd89 O97 2.381 . S
Cd89 O98 2.378 . S
O90 Cd91 2.385 . S
O90 C95 1.255 . S
Cd91 O90 2.385 . S
Cd91 O92 2.317 . S
O92 Cd91 2.317 . S
O92 C93 1.232 . S
C93 O92 1.232 . S
C93 O94 1.218 . S
O94 C93 1.218 . S
C95 O88 1.275 . S
C95 O90 1.255 . S
C96 O97 1.258 . S
C96 O98 1.256 . S
O97 Cd89 2.381 . S
O97 C96 1.258 . S
O98 Cd89 2.378 . S
O98 C96 1.256 . S
O99 Cd100 2.300 1_655 S
O99 C106 1.275 1_655 S
Cd100 O99 2.300 1_455 S
Cd100 O108 2.381 1_455 S
Cd100 O109 2.378 . S
O101 Cd102 2.385 . S
O101 C106 1.255 . S
Cd102 O101 2.385 . S
Cd102 O103 2.317 . S
O103 Cd102 2.317 . S
O103 C104 1.232 . S
C104 O103 1.232 . S
C104 O105 1.218 . S
O105 C104 1.218 . S
C106 O99 1.275 1_455 S
C106 O101 1.255 . S
C107 O108 1.258 1_455 S
C107 O109 1.256 . S
O108 Cd100 2.381 1_655 S
O108 C107 1.258 1_655 S
O109 Cd100 2.378 . S
O109 C107 1.256 . S
O110 Cd111 2.300 . S
O110 C117 1.275 . S
Cd111 O110 2.300 . S
Cd111 O119 2.381 . S
Cd111 O120 2.378 . S
O112 Cd113 2.385 . S
O112 C117 1.255 . S
Cd113 O112 2.385 . S
Cd113 O114 2.317 . S
O114 Cd113 2.317 . S
O114 C115 1.232 . S
C115 O114 1.232 . S
C115 O116 1.218 . S
O116 C115 1.218 . S
C117 O110 1.275 . S
C117 O112 1.255 . S
C118 O119 1.258 . S
C118 O120 1.256 . S
O119 Cd111 2.381 . S
O119 C118 1.258 . S
O120 Cd111 2.378 . S
O120 C118 1.256 . S
O121 Cd122 2.300 1_455 S
O121 C128 1.274 1_455 S
Cd122 O121 2.300 1_655 S
Cd122 O130 2.381 1_655 S
Cd122 O131 2.378 . S
O123 Cd124 2.385 . S
O123 C128 1.255 . S
Cd124 O123 2.385 . S
Cd124 O125 2.317 . S
O125 Cd124 2.317 . S
O125 C126 1.232 . S
C126 O125 1.232 . S
C126 O127 1.218 . S
O127 C126 1.218 . S
C128 O121 1.274 1_655 S
C128 O123 1.255 . S
C129 O130 1.258 . S
C129 O131 1.256 1_455 S
O130 Cd122 2.381 1_455 S
O130 C129 1.258 . S
O131 Cd122 2.378 . S
O131 C129 1.256 1_655 S
O132 Cd133 2.300 . S
O132 C139 1.275 . S
Cd133 O132 2.300 . S
Cd133 O141 2.381 . S
Cd133 O142 2.378 . S
O134 Cd135 2.385 . S
O134 C139 1.255 . S
Cd135 O134 2.385 . S
Cd135 O136 2.317 . S
O136 Cd135 2.317 . S
O136 C137 1.232 . S
C137 O136 1.232 . S
C137 O138 1.218 . S
O138 C137 1.218 . S
C139 O132 1.275 . S
C139 O134 1.255 . S
C140 O141 1.258 . S
C140 O142 1.256 . S
O141 Cd133 2.381 . S
O141 C140 1.258 . S
O142 Cd133 2.378 . S
O142 C140 1.256 . S
O143 Cd144 2.300 . S
O143 C150 1.275 . S
Cd144 O143 2.300 . S
Cd144 O152 2.381 . S
Cd144 O153 2.378 . S
O145 Cd146 2.385 . S
O145 C150 1.255 . S
Cd146 O145 2.385 . S
Cd146 O147 2.317 . S
O147 Cd146 2.317 . S
O147 C148 1.232 . S
C148 O147 1.232 . S
C148 O149 1.218 . S
O149 C148 1.218 . S
C150 O143 1.275 . S
C150 O145 1.255 . S
C151 O152 1.258 . S
C151 O153 1.256 . S
O152 Cd144 2.381 . S
O152 C151 1.258 . S
O153 Cd144 2.378 . S
O153 C151 1.256 . S
O154 Cd155 2.300 1_545 S
O154 C161 1.275 . S
Cd155 O154 2.300 1_565 S
Cd155 O163 2.381 1_565 S
Cd155 O164 2.378 . S
O156 Cd157 2.385 . S
O156 C161 1.255 1_565 S
Cd157 O156 2.385 . S
Cd157 O158 2.317 . S
O158 Cd157 2.317 . S
O158 C159 1.232 . S
C159 O158 1.232 . S
C159 O160 1.218 . S
O160 C159 1.218 . S
C161 O154 1.275 . S
C161 O156 1.255 1_545 S
C162 O163 1.258 1_565 S
C162 O164 1.256 . S
O163 Cd155 2.381 1_545 S
O163 C162 1.258 1_545 S
O164 Cd155 2.378 . S
O164 C162 1.256 . S
O165 Cd166 2.300 1_565 S
O165 C172 1.275 1_565 S
Cd166 O165 2.300 1_545 S
Cd166 O174 2.381 1_545 S
Cd166 O175 2.378 . S
O167 Cd168 2.385 . S
O167 C172 1.255 . S
Cd168 O167 2.385 . S
Cd168 O169 2.317 . S
O169 Cd168 2.317 . S
O169 C170 1.232 . S
C170 O169 1.232 . S
C170 O171 1.218 . S
O171 C170 1.218 . S
C172 O165 1.275 1_545 S
C172 O167 1.255 . S
C173 O174 1.258 1_545 S
C173 O175 1.256 . S
O174 Cd166 2.381 1_565 S
O174 C173 1.258 1_565 S
O175 Cd166 2.378 . S
O175 C173 1.256 . S
O176 Cd177 2.300 . S
O176 C183 1.275 . S
Cd177 O176 2.300 . S
Cd177 O185 2.381 . S
Cd177 O186 2.378 . S
O178 Cd179 2.385 . S
O178 C183 1.255 . S
Cd179 O178 2.385 . S
Cd179 O180 2.317 . S
O180 Cd179 2.317 . S
O180 C181 1.232 . S
C181 O180 1.232 . S
C181 O182 1.218 . S
O182 C181 1.218 . S
C183 O176 1.275 . S
C183 O178 1.255 . S
C184 O185 1.258 . S
C184 O186 1.256 . S
O185 Cd177 2.381 . S
O185 C184 1.258 . S
O186 Cd177 2.378 . S
O186 C184 1.256 . S
O187 Cd188 2.300 1_556 S
O187 C194 1.275 1_556 S
Cd188 O187 2.300 1_554 S
Cd188 O196 2.381 1_554 S
Cd188 O197 2.378 . S
O189 Cd190 2.385 . S
O189 C194 1.255 . S
Cd190 O189 2.385 . S
Cd190 O191 2.317 . S
O191 Cd190 2.317 . S
O191 C192 1.232 . S
C192 O191 1.232 . S
C192 O193 1.218 . S
O193 C192 1.218 . S
C194 O187 1.275 1_554 S
C194 O189 1.255 . S
C195 O196 1.258 1_554 S
C195 O197 1.256 . S
O196 Cd188 2.381 1_556 S
O196 C195 1.258 1_556 S
O197 Cd188 2.378 . S
O197 C195 1.256 . S
O198 Cd199 2.300 . S
O198 C205 1.275 . S
Cd199 O198 2.300 . S
Cd199 O207 2.381 . S
Cd199 O208 2.378 . S
O200 Cd201 2.385 . S
O200 C205 1.255 . S
Cd201 O200 2.385 . S
Cd201 O202 2.317 . S
O202 Cd201 2.317 . S
O202 C203 1.232 . S
C203 O202 1.232 . S
C203 O204 1.218 . S
O204 C203 1.218 . S
C205 O198 1.275 . S
C205 O200 1.255 . S
C206 O207 1.258 . S
C206 O208 1.256 . S
O207 Cd199 2.381 . S
O207 C206 1.258 . S
O208 Cd199 2.378 . S
O208 C206 1.256 . S
O209 Cd210 2.300 1_554 S
O209 C216 1.275 . S
Cd210 O209 2.300 1_556 S
Cd210 O218 2.381 1_556 S
Cd210 O219 2.378 . S
O211 Cd212 2.385 . S
O211 C216 1.255 1_556 S
Cd212 O211 2.385 . S
Cd212 O213 2.317 . S
O213 Cd212 2.317 . S
O213 C214 1.232 . S
C214 O213 1.232 . S
C214 O215 1.218 . S
O215 C214 1.218 . S
C216 O209 1.275 . S
C216 O211 1.255 1_554 S
C217 O218 1.258 1_556 S
C217 O219 1.256 . S
O218 Cd210 2.381 1_554 S
O218 C217 1.258 1_554 S
O219 Cd210 2.378 . S
O219 C217 1.256 . S
O220 Cd221 2.300 . S
O220 C227 1.275 . S
Cd221 O220 2.300 . S
Cd221 O229 2.381 . S
Cd221 O230 2.378 . S
O222 Cd223 2.385 . S
O222 C227 1.255 . S
Cd223 O222 2.385 . S
Cd223 O224 2.317 . S
O224 Cd223 2.317 . S
O224 C225 1.232 . S
C225 O224 1.232 . S
C225 O226 1.218 . S
O226 C225 1.218 . S
C227 O220 1.275 . S
C227 O222 1.255 . S
C228 O229 1.258 . S
C228 O230 1.256 . S
O229 Cd221 2.381 . S
O229 C228 1.258 . S
O230 Cd221 2.378 . S
O230 C228 1.256 . S
O231 Cd232 2.300 1_655 S
O231 C238 1.275 1_655 S
Cd232 O231 2.300 1_455 S
Cd232 O240 2.381 1_455 S
Cd232 O241 2.378 . S
O233 Cd234 2.385 . S
O233 C238 1.255 . S
Cd234 O233 2.385 . S
Cd234 O235 2.317 . S
O235 Cd234 2.317 . S
O235 C236 1.232 . S
C236 O235 1.232 . S
C236 O237 1.218 . S
O237 C236 1.218 . S
C238 O231 1.275 1_455 S
C238 O233 1.255 . S
C239 O240 1.258 1_455 S
C239 O241 1.256 . S
O240 Cd232 2.381 1_655 S
O240 C239 1.258 1_655 S
O241 Cd232 2.378 . S
O241 C239 1.256 . S
O242 Cd243 2.300 . S
O242 C249 1.275 . S
Cd243 O242 2.300 . S
Cd243 O251 2.381 . S
Cd243 O252 2.378 . S
O244 Cd245 2.385 . S
O244 C249 1.255 . S
Cd245 O244 2.385 . S
Cd245 O246 2.317 . S
O246 Cd245 2.317 . S
O246 C247 1.232 . S
C247 O246 1.232 . S
C247 O248 1.218 . S
O248 C247 1.218 . S
C249 O242 1.275 . S
C249 O244 1.255 . S
C250 O251 1.258 . S
C250 O252 1.256 . S
O251 Cd243 2.381 . S
O251 C250 1.258 . S
O252 Cd243 2.378 . S
O252 C250 1.256 . S
O253 Cd254 2.300 1_455 S
O253 C260 1.275 . S
Cd254 O253 2.300 1_655 S
Cd254 O262 2.381 1_655 S
Cd254 O263 2.378 . S
O255 Cd256 2.385 . S
O255 C260 1.255 1_655 S
Cd256 O255 2.385 . S
Cd256 O257 2.317 . S
O257 Cd256 2.317 . S
O257 C258 1.232 . S
C258 O257 1.232 . S
C258 O259 1.218 . S
O259 C258 1.218 . S
C260 O253 1.275 . S
C260 O255 1.255 1_455 S
C261 O262 1.258 1_655 S
C261 O263 1.256 . S
O262 Cd254 2.381 1_455 S
O262 C261 1.258 1_455 S
O263 Cd254 2.378 . S
O263 C261 1.256 . S
H264 C271 0.929 . S
H265 C274 0.930 . S
H266 C276 0.929 . S
H267 C268 0.969 . S
C268 H267 0.969 . S
C268 O269 1.550 . S
C268 H270 0.973 . S
O269 C268 1.550 . S
O269 C275 1.412 . S
H270 C268 0.973 . S
C271 H264 0.929 . S
C271 C272 1.400 . S
C271 C273 1.364 . S
C272 C271 1.400 . S
C272 C276 1.377 . S
C273 C271 1.364 . S
C273 C274 1.374 . S
C274 H265 0.930 . S
C274 C273 1.374 . S
C274 C275 1.383 . S
C275 O269 1.412 . S
C275 C274 1.383 . S
C275 C276 1.394 . S
C276 H266 0.929 . S
C276 C272 1.377 . S
C276 C275 1.394 . S
H277 C284 0.929 . S
H278 C287 0.930 . S
H279 C289 0.929 . S
H280 C281 0.969 . S
C281 H280 0.969 . S
C281 O282 1.550 . S
C281 H283 0.973 . S
O282 C281 1.550 . S
O282 C288 1.412 . S
H283 C281 0.973 . S
C284 H277 0.929 . S
C284 C285 1.400 . S
C284 C286 1.364 . S
C285 C284 1.400 . S
C285 C289 1.377 . S
C286 C284 1.364 . S
C286 C287 1.374 . S
C287 H278 0.930 . S
C287 C286 1.374 . S
C287 C288 1.383 . S
C288 O282 1.412 . S
C288 C287 1.383 . S
C288 C289 1.394 . S
C289 H279 0.929 . S
C289 C285 1.377 . S
C289 C288 1.394 . S
H290 C297 0.929 . S
H291 C300 0.930 . S
H292 C302 0.929 . S
H293 C294 0.969 . S
C294 H293 0.969 . S
C294 O295 1.550 . S
C294 H296 0.973 . S
O295 C294 1.550 . S
O295 C301 1.412 . S
H296 C294 0.973 . S
C297 H290 0.929 . S
C297 C298 1.400 . S
C297 C299 1.364 . S
C298 C297 1.400 . S
C298 C302 1.377 . S
C299 C297 1.364 . S
C299 C300 1.374 1_565 S
C300 H291 0.930 . S
C300 C299 1.374 1_545 S
C300 C301 1.383 . S
C301 O295 1.412 . S
C301 C300 1.383 . S
C301 C302 1.394 1_545 S
C302 H292 0.929 . S
C302 C298 1.377 . S
C302 C301 1.394 1_565 S
H303 C310 0.929 1_545 S
H304 C313 0.930 . S
H305 C315 0.929 . S
H306 C307 0.969 . S
C307 H306 0.969 . S
C307 O308 1.550 . S
C307 H309 0.973 . S
O308 C307 1.550 . S
O308 C314 1.412 . S
H309 C307 0.973 . S
C310 H303 0.929 1_565 S
C310 C311 1.400 . S
C310 C312 1.364 . S
C311 C310 1.400 . S
C311 C315 1.377 . S
C312 C310 1.364 . S
C312 C313 1.374 . S
C313 H304 0.930 . S
C313 C312 1.374 . S
C313 C314 1.383 . S
C314 O308 1.412 . S
C314 C313 1.383 . S
C314 C315 1.394 . S
C315 H305 0.929 . S
C315 C311 1.377 . S
C315 C314 1.394 . S
H316 C323 0.929 . S
H317 C326 0.930 . S
H318 C328 0.929 . S
H319 C320 0.969 . S
C320 H319 0.969 . S
C320 O321 1.550 . S
C320 H322 0.973 . S
O321 C320 1.550 . S
O321 C327 1.412 . S
H322 C320 0.973 . S
C323 H316 0.929 . S
C323 C324 1.400 . S
C323 C325 1.364 . S
C324 C323 1.400 . S
C324 C328 1.377 . S
C325 C323 1.364 . S
C325 C326 1.374 . S
C326 H317 0.930 . S
C326 C325 1.374 . S
C326 C327 1.383 . S
C327 O321 1.412 . S
C327 C326 1.383 . S
C327 C328 1.394 . S
C328 H318 0.929 . S
C328 C324 1.377 . S
C328 C327 1.394 . S
H329 C336 0.929 1_554 S
H330 C339 0.930 . S
H331 C341 0.929 . S
H332 C333 0.969 . S
C333 H332 0.969 . S
C333 O334 1.550 . S
C333 H335 0.973 . S
O334 C333 1.550 . S
O334 C340 1.412 . S
H335 C333 0.973 . S
C336 H329 0.929 1_556 S
C336 C337 1.400 . S
C336 C338 1.364 . S
C337 C336 1.400 . S
C337 C341 1.377 . S
C338 C336 1.364 . S
C338 C339 1.374 . S
C339 H330 0.930 . S
C339 C338 1.374 . S
C339 C340 1.383 . S
C340 O334 1.412 . S
C340 C339 1.383 . S
C340 C341 1.394 . S
C341 H331 0.929 . S
C341 C337 1.377 . S
C341 C340 1.394 . S
H342 C349 0.929 . S
H343 C352 0.930 . S
H344 C354 0.929 . S
H345 C346 0.969 . S
C346 H345 0.969 . S
C346 O347 1.550 . S
C346 H348 0.973 . S
O347 C346 1.550 . S
O347 C353 1.412 . S
H348 C346 0.973 . S
C349 H342 0.929 . S
C349 C350 1.400 . S
C349 C351 1.364 . S
C350 C349 1.400 . S
C350 C354 1.377 . S
C351 C349 1.364 . S
C351 C352 1.374 . S
C352 H343 0.930 . S
C352 C351 1.374 . S
C352 C353 1.383 . S
C353 O347 1.412 . S
C353 C352 1.383 . S
C353 C354 1.394 . S
C354 H344 0.929 . S
C354 C350 1.377 . S
C354 C353 1.394 . S
H355 C362 0.929 . S
H356 C365 0.930 . S
H357 C367 0.929 . S
H358 C359 0.969 . S
C359 H358 0.969 . S
C359 O360 1.550 . S
C359 H361 0.973 . S
O360 C359 1.550 . S
O360 C366 1.412 . S
H361 C359 0.973 . S
C362 H355 0.929 . S
C362 C363 1.400 . S
C362 C364 1.364 . S
C363 C362 1.400 . S
C363 C367 1.377 . S
C364 C362 1.364 . S
C364 C365 1.374 1_556 S
C365 H356 0.930 . S
C365 C364 1.374 1_554 S
C365 C366 1.383 . S
C366 O360 1.412 . S
C366 C365 1.383 . S
C366 C367 1.394 1_554 S
C367 H357 0.929 . S
C367 C363 1.377 . S
C367 C366 1.394 1_556 S
H368 C375 0.929 . S
H369 C378 0.930 . S
H370 C380 0.929 . S
H371 C372 0.969 . S
C372 H371 0.969 . S
C372 O373 1.550 . S
C372 H374 0.973 . S
O373 C372 1.550 . S
O373 C379 1.412 . S
H374 C372 0.973 . S
C375 H368 0.929 . S
C375 C376 1.400 . S
C375 C377 1.364 . S
C376 C375 1.400 . S
C376 C380 1.377 . S
C377 C375 1.364 . S
C377 C378 1.374 . S
C378 H369 0.930 . S
C378 C377 1.374 . S
C378 C379 1.383 . S
C379 O373 1.412 . S
C379 C378 1.383 . S
C379 C380 1.394 . S
C380 H370 0.929 . S
C380 C376 1.377 . S
C380 C379 1.394 . S
H381 C388 0.929 1_455 S
H382 C391 0.930 . S
H383 C393 0.929 . S
H384 C385 0.969 . S
C385 H384 0.969 . S
C385 O386 1.550 . S
C385 H387 0.973 . S
O386 C385 1.550 . S
O386 C392 1.412 . S
H387 C385 0.973 . S
C388 H381 0.929 1_655 S
C388 C389 1.400 . S
C388 C390 1.364 . S
C389 C388 1.400 . S
C389 C393 1.377 . S
C390 C388 1.364 . S
C390 C391 1.374 . S
C391 H382 0.930 . S
C391 C390 1.374 . S
C391 C392 1.383 . S
C392 O386 1.412 . S
C392 C391 1.383 . S
C392 C393 1.394 . S
C393 H383 0.929 . S
C393 C389 1.377 . S
C393 C392 1.394 . S
H394 C401 0.929 . S
H395 C404 0.930 . S
H396 C406 0.929 . S
H397 C398 0.969 . S
C398 H397 0.969 . S
C398 O399 1.550 . S
C398 H400 0.973 . S
O399 C398 1.550 . S
O399 C405 1.412 . S
H400 C398 0.973 . S
C401 H394 0.929 . S
C401 C402 1.400 . S
C401 C403 1.364 . S
C402 C401 1.400 . S
C402 C406 1.377 . S
C403 C401 1.364 . S
C403 C404 1.374 . S
C404 H395 0.930 . S
C404 C403 1.374 . S
C404 C405 1.383 . S
C405 O399 1.412 . S
C405 C404 1.383 . S
C405 C406 1.394 . S
C406 H396 0.929 . S
C406 C402 1.377 . S
C406 C405 1.394 . S
H407 C414 0.929 . S
H408 C417 0.930 . S
H409 C419 0.929 . S
H410 C411 0.969 . S
C411 H410 0.969 . S
C411 O412 1.550 . S
C411 H413 0.973 . S
O412 C411 1.550 . S
O412 C418 1.412 . S
H413 C411 0.973 . S
C414 H407 0.929 . S
C414 C415 1.400 . S
C414 C416 1.364 . S
C415 C414 1.400 . S
C415 C419 1.377 . S
C416 C414 1.364 . S
C416 C417 1.374 1_655 S
C417 H408 0.930 . S
C417 C416 1.374 1_455 S
C417 C418 1.383 . S
C418 O412 1.412 . S
C418 C417 1.383 . S
C418 C419 1.394 1_455 S
C419 H409 0.929 . S
C419 C415 1.377 . S
C419 C418 1.394 1_655 S
H420 C427 0.929 . S
H421 C430 0.930 . S
H422 C432 0.929 . S
H423 C424 0.969 . S
C424 H423 0.969 . S
C424 O425 1.550 . S
C424 H426 0.973 . S
O425 C424 1.550 . S
O425 C431 1.412 . S
H426 C424 0.973 . S
C427 H420 0.929 . S
C427 C428 1.400 . S
C427 C429 1.364 . S
C428 C427 1.400 . S
C428 C432 1.377 . S
C429 C427 1.364 . S
C429 C430 1.374 . S
C430 H421 0.930 . S
C430 C429 1.374 . S
C430 C431 1.383 . S
C431 O425 1.412 . S
C431 C430 1.383 . S
C431 C432 1.394 . S
C432 H422 0.929 . S
C432 C428 1.377 . S
C432 C431 1.394 . S
H433 C440 0.929 . S
H434 C443 0.930 . S
H435 C445 0.929 . S
H436 C437 0.969 . S
C437 H436 0.969 . S
C437 O438 1.550 . S
C437 H439 0.973 . S
O438 C437 1.550 . S
O438 C444 1.412 . S
H439 C437 0.973 . S
C440 H433 0.929 . S
C440 C441 1.400 . S
C440 C442 1.364 . S
C441 C440 1.400 . S
C441 C445 1.377 . S
C442 C440 1.364 . S
C442 C443 1.374 . S
C443 H434 0.930 . S
C443 C442 1.374 . S
C443 C444 1.383 . S
C444 O438 1.412 . S
C444 C443 1.383 . S
C444 C445 1.394 . S
C445 H435 0.929 . S
C445 C441 1.377 . S
C445 C444 1.394 . S
H446 C453 0.929 . S
H447 C456 0.930 . S
H448 C458 0.929 . S
H449 C450 0.969 . S
C450 H449 0.969 . S
C450 O451 1.550 . S
C450 H452 0.973 . S
O451 C450 1.550 . S
O451 C457 1.412 . S
H452 C450 0.973 . S
C453 H446 0.929 . S
C453 C454 1.400 . S
C453 C455 1.364 . S
C454 C453 1.400 . S
C454 C458 1.377 . S
C455 C453 1.364 . S
C455 C456 1.374 1_545 S
C456 H447 0.930 . S
C456 C455 1.374 1_565 S
C456 C457 1.383 . S
C457 O451 1.412 . S
C457 C456 1.383 . S
C457 C458 1.394 1_565 S
C458 H448 0.929 . S
C458 C454 1.377 . S
C458 C457 1.394 1_545 S
H459 C466 0.929 1_565 S
H460 C469 0.930 . S
H461 C471 0.929 . S
H462 C463 0.969 . S
C463 H462 0.969 . S
C463 O464 1.550 . S
C463 H465 0.973 . S
O464 C463 1.550 . S
O464 C470 1.412 . S
H465 C463 0.973 . S
C466 H459 0.929 1_545 S
C466 C467 1.400 . S
C466 C468 1.364 . S
C467 C466 1.400 . S
C467 C471 1.377 . S
C468 C466 1.364 . S
C468 C469 1.374 . S
C469 H460 0.930 . S
C469 C468 1.374 . S
C469 C470 1.383 . S
C470 O464 1.412 . S
C470 C469 1.383 . S
C470 C471 1.394 . S
C471 H461 0.929 . S
C471 C467 1.377 . S
C471 C470 1.394 . S
H472 C479 0.929 . S
H473 C482 0.930 . S
H474 C484 0.929 . S
H475 C476 0.969 . S
C476 H475 0.969 . S
C476 O477 1.550 . S
C476 H478 0.973 . S
O477 C476 1.550 . S
O477 C483 1.412 . S
H478 C476 0.973 . S
C479 H472 0.929 . S
C479 C480 1.400 . S
C479 C481 1.364 . S
C480 C479 1.400 . S
C480 C484 1.377 . S
C481 C479 1.364 . S
C481 C482 1.374 . S
C482 H473 0.930 . S
C482 C481 1.374 . S
C482 C483 1.383 . S
C483 O477 1.412 . S
C483 C482 1.383 . S
C483 C484 1.394 . S
C484 H474 0.929 . S
C484 C480 1.377 . S
C484 C483 1.394 . S
H485 C492 0.929 1_556 S
H486 C495 0.930 . S
H487 C497 0.929 . S
H488 C489 0.969 . S
C489 H488 0.969 . S
C489 O490 1.550 . S
C489 H491 0.973 . S
O490 C489 1.550 . S
O490 C496 1.412 . S
H491 C489 0.973 . S
C492 H485 0.929 1_554 S
C492 C493 1.400 . S
C492 C494 1.364 . S
C493 C492 1.400 . S
C493 C497 1.377 . S
C494 C492 1.364 . S
C494 C495 1.374 . S
C495 H486 0.930 . S
C495 C494 1.374 . S
C495 C496 1.383 . S
C496 O490 1.412 . S
C496 C495 1.383 . S
C496 C497 1.394 . S
C497 H487 0.929 . S
C497 C493 1.377 . S
C497 C496 1.394 . S
H498 C505 0.929 . S
H499 C508 0.930 . S
H500 C510 0.929 . S
H501 C502 0.969 . S
C502 H501 0.969 . S
C502 O503 1.550 . S
C502 H504 0.973 . S
O503 C502 1.550 . S
O503 C509 1.412 . S
H504 C502 0.973 . S
C505 H498 0.929 . S
C505 C506 1.400 . S
C505 C507 1.364 . S
C506 C505 1.400 . S
C506 C510 1.377 . S
C507 C505 1.364 . S
C507 C508 1.374 . S
C508 H499 0.930 . S
C508 C507 1.374 . S
C508 C509 1.383 . S
C509 O503 1.412 . S
C509 C508 1.383 . S
C509 C510 1.394 . S
C510 H500 0.929 . S
C510 C506 1.377 . S
C510 C509 1.394 . S
H511 C518 0.929 . S
H512 C521 0.930 . S
H513 C523 0.929 . S
H514 C515 0.969 . S
C515 H514 0.969 . S
C515 O516 1.550 . S
C515 H517 0.973 . S
O516 C515 1.550 . S
O516 C522 1.412 . S
H517 C515 0.973 . S
C518 H511 0.929 . S
C518 C519 1.400 . S
C518 C520 1.364 . S
C519 C518 1.400 . S
C519 C523 1.377 . S
C520 C518 1.364 . S
C520 C521 1.374 1_554 S
C521 H512 0.930 . S
C521 C520 1.374 1_556 S
C521 C522 1.383 . S
C522 O516 1.412 . S
C522 C521 1.383 . S
C522 C523 1.394 1_556 S
C523 H513 0.929 . S
C523 C519 1.377 . S
C523 C522 1.394 1_554 S
H524 C531 0.929 . S
H525 C534 0.930 . S
H526 C536 0.929 . S
H527 C528 0.969 . S
C528 H527 0.969 . S
C528 O529 1.550 . S
C528 H530 0.973 . S
O529 C528 1.550 . S
O529 C535 1.412 . S
H530 C528 0.973 . S
C531 H524 0.929 . S
C531 C532 1.400 . S
C531 C533 1.364 . S
C532 C531 1.400 . S
C532 C536 1.377 . S
C533 C531 1.364 . S
C533 C534 1.374 . S
C534 H525 0.930 . S
C534 C533 1.374 . S
C534 C535 1.383 . S
C535 O529 1.412 . S
C535 C534 1.383 . S
C535 C536 1.394 . S
C536 H526 0.929 . S
C536 C532 1.377 . S
C536 C535 1.394 . S
H537 C544 0.929 1_655 S
H538 C547 0.930 . S
H539 C549 0.929 . S
H540 C541 0.969 . S
C541 H540 0.969 . S
C541 O542 1.550 . S
C541 H543 0.973 . S
O542 C541 1.550 . S
O542 C548 1.412 . S
H543 C541 0.973 . S
C544 H537 0.929 1_455 S
C544 C545 1.400 . S
C544 C546 1.364 . S
C545 C544 1.400 . S
C545 C549 1.377 . S
C546 C544 1.364 . S
C546 C547 1.374 . S
C547 H538 0.930 . S
C547 C546 1.374 . S
C547 C548 1.383 . S
C548 O542 1.412 . S
C548 C547 1.383 . S
C548 C549 1.394 . S
C549 H539 0.929 . S
C549 C545 1.377 . S
C549 C548 1.394 . S
H550 C557 0.929 . S
H551 C560 0.930 . S
H552 C562 0.929 . S
H553 C554 0.969 . S
C554 H553 0.969 . S
C554 O555 1.550 . S
C554 H556 0.973 . S
O555 C554 1.550 . S
O555 C561 1.412 . S
H556 C554 0.973 . S
C557 H550 0.929 . S
C557 C558 1.400 . S
C557 C559 1.364 . S
C558 C557 1.400 . S
C558 C562 1.377 . S
C559 C557 1.364 . S
C559 C560 1.374 . S
C560 H551 0.930 . S
C560 C559 1.374 . S
C560 C561 1.383 . S
C561 O555 1.412 . S
C561 C560 1.383 . S
C561 C562 1.394 . S
C562 H552 0.929 . S
C562 C558 1.377 . S
C562 C561 1.394 . S
H563 C570 0.929 . S
H564 C573 0.930 . S
H565 C575 0.929 . S
H566 C567 0.969 . S
C567 H566 0.969 . S
C567 O568 1.550 . S
C567 H569 0.973 . S
O568 C567 1.550 . S
O568 C574 1.412 . S
H569 C567 0.973 . S
C570 H563 0.929 . S
C570 C571 1.400 . S
C570 C572 1.364 . S
C571 C570 1.400 . S
C571 C575 1.377 . S
C572 C570 1.364 . S
C572 C573 1.374 1_455 S
C573 H564 0.930 . S
C573 C572 1.374 1_655 S
C573 C574 1.383 . S
C574 O568 1.412 . S
C574 C573 1.383 . S
C574 C575 1.394 1_655 S
C575 H565 0.929 . S
C575 C571 1.377 . S
C575 C574 1.394 1_455 S
H576 C582 0.930 . S
H577 C586 0.930 . S
H578 C591 0.929 . S
H579 C589 0.929 . S
H580 C584 0.929 . S
H581 C590 0.929 . S
C582 H576 0.930 . S
C582 C583 1.367 . S
C582 C590 1.378 . S
C583 C582 1.367 . S
C583 C591 1.433 . S
C584 H580 0.929 . S
C584 C586 1.378 . S
C584 C588 1.350 . S
C585 C588 1.463 . S
C585 C590 1.350 . S
C585 N593 1.427 . S
C586 H577 0.930 . S
C586 C584 1.378 . S
C586 C587 1.367 . S
C587 C586 1.367 . S
C587 C589 1.433 . S
C588 C584 1.350 . S
C588 C585 1.463 . S
C588 N592 1.427 . S
C589 H579 0.929 . S
C589 C587 1.433 . S
C589 N592 1.384 . S
C590 H581 0.929 . S
C590 C582 1.378 . S
C590 C585 1.350 . S
C591 H578 0.929 . S
C591 C583 1.433 . S
C591 N593 1.384 . S
N592 C588 1.427 . S
N592 C589 1.384 . S
N593 C585 1.427 . S
N593 C591 1.384 . S
H594 C600 0.930 . S
H595 C604 0.930 . S
H596 C609 0.929 . S
H597 C607 0.929 . S
H598 C602 0.929 . S
H599 C608 0.929 . S
C600 H594 0.930 . S
C600 C601 1.367 . S
C600 C608 1.378 . S
C601 C600 1.367 . S
C601 C609 1.433 . S
C602 H598 0.929 . S
C602 C604 1.378 . S
C602 C606 1.350 . S
C603 C606 1.463 . S
C603 C608 1.350 . S
C603 N611 1.427 . S
C604 H595 0.930 . S
C604 C602 1.378 . S
C604 C605 1.367 . S
C605 C604 1.367 . S
C605 C607 1.433 . S
C606 C602 1.350 . S
C606 C603 1.463 . S
C606 N610 1.427 . S
C607 H597 0.929 . S
C607 C605 1.433 . S
C607 N610 1.384 . S
C608 H599 0.929 . S
C608 C600 1.378 . S
C608 C603 1.350 . S
C609 H596 0.929 . S
C609 C601 1.433 . S
C609 N611 1.384 . S
N610 C606 1.427 . S
N610 C607 1.384 . S
N611 C603 1.427 . S
N611 C609 1.384 . S
H612 C618 0.930 . S
H613 C622 0.930 . S
H614 C627 0.929 . S
H615 C625 0.929 1_565 S
H616 C620 0.929 . S
H617 C626 0.929 . S
C618 H612 0.930 . S
C618 C619 1.367 1_565 S
C618 C626 1.378 . S
C619 C618 1.367 1_545 S
C619 C627 1.433 . S
C620 H616 0.929 . S
C620 C622 1.378 . S
C620 C624 1.350 . S
C621 C624 1.463 . S
C621 C626 1.350 1_545 S
C621 N629 1.427 . S
C622 H613 0.930 . S
C622 C620 1.378 . S
C622 C623 1.367 . S
C623 C622 1.367 . S
C623 C625 1.433 . S
C624 C620 1.350 . S
C624 C621 1.463 . S
C624 N628 1.427 . S
C625 H615 0.929 1_545 S
C625 C623 1.433 . S
C625 N628 1.384 . S
C626 H617 0.929 . S
C626 C618 1.378 . S
C626 C621 1.350 1_565 S
C627 H614 0.929 . S
C627 C619 1.433 . S
C627 N629 1.384 . S
N628 C624 1.427 . S
N628 C625 1.384 . S
N629 C621 1.427 . S
N629 C627 1.384 . S
H630 C636 0.930 . S
H631 C640 0.930 1_545 S
H632 C645 0.929 . S
H633 C643 0.929 . S
H634 C638 0.972 . S
H635 C644 0.929 . S
C636 H630 0.930 . S
C636 C637 1.367 . S
C636 C644 1.378 . S
C637 C636 1.367 . S
C637 C645 1.433 1_565 S
C638 H634 0.972 . S
C638 C640 1.365 1_545 S
C638 C642 1.320 1_545 S
C639 C642 1.463 . S
C639 C644 1.350 . S
C639 N647 1.427 1_565 S
C640 H631 0.930 1_565 S
C640 C638 1.365 1_565 S
C640 C641 1.367 . S
C641 C640 1.367 . S
C641 C643 1.433 . S
C642 C638 1.320 1_565 S
C642 C639 1.463 . S
C642 N646 1.427 . S
C643 H633 0.929 . S
C643 C641 1.433 . S
C643 N646 1.384 . S
C644 H635 0.929 . S
C644 C636 1.378 . S
C644 C639 1.350 . S
C645 H632 0.929 . S
C645 C637 1.433 1_545 S
C645 N647 1.384 . S
N646 C642 1.427 . S
N646 C643 1.384 . S
N647 C639 1.427 1_545 S
N647 C645 1.384 . S
H648 C654 0.930 . S
H649 C658 0.930 . S
H650 C663 0.929 . S
H651 C661 0.929 . S
H652 C656 0.929 . S
H653 C662 0.929 . S
C654 H648 0.930 . S
C654 C655 1.367 . S
C654 C662 1.378 . S
C655 C654 1.367 . S
C655 C663 1.433 . S
C656 H652 0.929 . S
C656 C658 1.378 . S
C656 C660 1.350 . S
C657 C660 1.463 . S
C657 C662 1.350 . S
C657 N665 1.427 . S
C658 H649 0.930 . S
C658 C656 1.378 . S
C658 C659 1.367 . S
C659 C658 1.367 . S
C659 C661 1.433 . S
C660 C656 1.350 . S
C660 C657 1.463 . S
C660 N664 1.427 . S
C661 H651 0.929 . S
C661 C659 1.433 . S
C661 N664 1.384 . S
C662 H653 0.929 . S
C662 C654 1.378 . S
C662 C657 1.350 . S
C663 H650 0.929 . S
C663 C655 1.433 . S
C663 N665 1.384 . S
N664 C660 1.427 . S
N664 C661 1.384 . S
N665 C657 1.427 . S
N665 C663 1.384 . S
H666 C672 0.930 . S
H667 C676 0.930 . S
H668 C681 0.929 . S
H669 C679 0.929 . S
H670 C674 0.929 . S
H671 C680 0.929 . S
C672 H666 0.930 . S
C672 C673 1.367 . S
C672 C680 1.378 . S
C673 C672 1.367 . S
C673 C681 1.433 1_556 S
C674 H670 0.929 . S
C674 C676 1.378 . S
C674 C678 1.350 . S
C675 C678 1.463 . S
C675 C680 1.350 . S
C675 N683 1.427 . S
C676 H667 0.930 . S
C676 C674 1.378 . S
C676 C677 1.367 . S
C677 C676 1.367 . S
C677 C679 1.433 . S
C678 C674 1.350 . S
C678 C675 1.463 . S
C678 N682 1.427 . S
C679 H669 0.929 . S
C679 C677 1.433 . S
C679 N682 1.384 . S
C680 H671 0.929 . S
C680 C672 1.378 . S
C680 C675 1.350 . S
C681 H668 0.929 . S
C681 C673 1.433 1_554 S
C681 N683 1.384 1_554 S
N682 C678 1.427 . S
N682 C679 1.384 . S
N683 C675 1.427 . S
N683 C681 1.384 1_556 S
H684 C690 0.930 . S
H685 C694 0.930 . S
H686 C699 0.929 . S
H687 C697 0.929 . S
H688 C692 0.929 . S
H689 C698 0.929 . S
C690 H684 0.930 . S
C690 C691 1.367 . S
C690 C698 1.378 . S
C691 C690 1.367 . S
C691 C699 1.433 . S
C692 H688 0.929 . S
C692 C694 1.378 . S
C692 C696 1.350 . S
C693 C696 1.463 . S
C693 C698 1.350 . S
C693 N701 1.427 . S
C694 H685 0.930 . S
C694 C692 1.378 . S
C694 C695 1.367 . S
C695 C694 1.367 . S
C695 C697 1.433 . S
C696 C692 1.350 . S
C696 C693 1.463 . S
C696 N700 1.427 . S
C697 H687 0.929 . S
C697 C695 1.433 . S
C697 N700 1.384 . S
C698 H689 0.929 . S
C698 C690 1.378 . S
C698 C693 1.350 . S
C699 H686 0.929 . S
C699 C691 1.433 . S
C699 N701 1.384 . S
N700 C696 1.427 . S
N700 C697 1.384 . S
N701 C693 1.427 . S
N701 C699 1.384 . S
H702 C708 0.930 . S
H703 C712 0.930 1_556 S
H704 C717 0.929 . S
H705 C715 0.929 . S
H706 C710 0.929 1_556 S
H707 C716 0.929 . S
C708 H702 0.930 . S
C708 C709 1.367 . S
C708 C716 1.378 . S
C709 C708 1.367 . S
C709 C717 1.433 1_554 S
C710 H706 0.929 1_554 S
C710 C712 1.378 . S
C710 C714 1.350 . S
C711 C714 1.463 . S
C711 C716 1.350 . S
C711 N719 1.427 1_554 S
C712 H703 0.930 1_554 S
C712 C710 1.378 . S
C712 C713 1.367 . S
C713 C712 1.367 . S
C713 C715 1.433 . S
C714 C710 1.350 . S
C714 C711 1.463 . S
C714 N718 1.427 . S
C715 H705 0.929 . S
C715 C713 1.433 . S
C715 N718 1.384 . S
C716 H707 0.929 . S
C716 C708 1.378 . S
C716 C711 1.350 . S
C717 H704 0.929 . S
C717 C709 1.433 1_556 S
C717 N719 1.384 . S
N718 C714 1.427 . S
N718 C715 1.384 . S
N719 C711 1.427 1_556 S
N719 C717 1.384 . S
H720 C726 0.930 . S
H721 C730 0.930 . S
H722 C735 0.929 . S
H723 C733 0.929 . S
H724 C728 0.929 . S
H725 C734 0.929 . S
C726 H720 0.930 . S
C726 C727 1.367 . S
C726 C734 1.378 . S
C727 C726 1.367 . S
C727 C735 1.433 . S
C728 H724 0.929 . S
C728 C730 1.378 . S
C728 C732 1.350 . S
C729 C732 1.463 . S
C729 C734 1.350 . S
C729 N737 1.427 . S
C730 H721 0.930 . S
C730 C728 1.378 . S
C730 C731 1.367 . S
C731 C730 1.367 . S
C731 C733 1.433 . S
C732 C728 1.350 . S
C732 C729 1.463 . S
C732 N736 1.427 . S
C733 H723 0.929 . S
C733 C731 1.433 . S
C733 N736 1.384 . S
C734 H725 0.929 . S
C734 C726 1.378 . S
C734 C729 1.350 . S
C735 H722 0.929 . S
C735 C727 1.433 . S
C735 N737 1.384 . S
N736 C732 1.427 . S
N736 C733 1.384 . S
N737 C729 1.427 . S
N737 C735 1.384 . S
H738 C744 0.930 . S
H739 C748 0.930 1_455 S
H740 C753 0.929 . S
H741 C751 0.929 . S
H742 C746 0.932 . S
H743 C752 0.929 . S
C744 H738 0.930 . S
C744 C745 1.367 . S
C744 C752 1.378 . S
C745 C744 1.367 . S
C745 C753 1.433 1_655 S
C746 H742 0.932 . S
C746 C748 1.377 1_455 S
C746 C750 1.347 1_455 S
C747 C750 1.463 . S
C747 C752 1.350 . S
C747 N755 1.427 1_655 S
C748 H739 0.930 1_655 S
C748 C746 1.377 1_655 S
C748 C749 1.367 . S
C749 C748 1.367 . S
C749 C751 1.433 . S
C750 C746 1.347 1_655 S
C750 C747 1.463 . S
C750 N754 1.427 . S
C751 H741 0.929 . S
C751 C749 1.433 . S
C751 N754 1.384 . S
C752 H743 0.929 . S
C752 C744 1.378 . S
C752 C747 1.350 . S
C753 H740 0.929 . S
C753 C745 1.433 1_455 S
C753 N755 1.384 . S
N754 C750 1.427 . S
N754 C751 1.384 . S
N755 C747 1.427 1_455 S
N755 C753 1.384 . S
H756 C762 0.930 . S
H757 C766 0.930 . S
H758 C771 0.929 . S
H759 C769 0.929 . S
H760 C764 0.929 . S
H761 C770 0.929 . S
C762 H756 0.930 . S
C762 C763 1.367 . S
C762 C770 1.378 . S
C763 C762 1.367 . S
C763 C771 1.433 . S
C764 H760 0.929 . S
C764 C766 1.378 . S
C764 C768 1.350 . S
C765 C768 1.463 . S
C765 C770 1.350 . S
C765 N773 1.427 . S
C766 H757 0.930 . S
C766 C764 1.378 . S
C766 C767 1.367 . S
C767 C766 1.367 . S
C767 C769 1.433 . S
C768 C764 1.350 . S
C768 C765 1.463 . S
C768 N772 1.427 . S
C769 H759 0.929 . S
C769 C767 1.433 . S
C769 N772 1.384 . S
C770 H761 0.929 . S
C770 C762 1.378 . S
C770 C765 1.350 . S
C771 H758 0.929 . S
C771 C763 1.433 . S
C771 N773 1.384 . S
N772 C768 1.427 . S
N772 C769 1.384 . S
N773 C765 1.427 . S
N773 C771 1.384 . S
H774 C780 0.930 . S
H775 C784 0.930 . S
H776 C789 0.929 . S
H777 C787 0.929 . S
H778 C782 0.929 1_655 S
H779 C788 0.929 . S
C780 H774 0.930 . S
C780 C781 1.367 . S
C780 C788 1.378 . S
C781 C780 1.367 . S
C781 C789 1.433 1_455 S
C782 H778 0.929 1_455 S
C782 C784 1.378 . S
C782 C786 1.350 . S
C783 C786 1.463 . S
C783 C788 1.350 . S
C783 N791 1.415 1_455 S
C784 H775 0.930 . S
C784 C782 1.378 . S
C784 C785 1.367 . S
C785 C784 1.367 . S
C785 C787 1.433 . S
C786 C782 1.350 . S
C786 C783 1.463 . S
C786 N790 1.427 . S
C787 H777 0.929 . S
C787 C785 1.433 . S
C787 N790 1.384 . S
C788 H779 0.929 . S
C788 C780 1.378 . S
C788 C783 1.350 . S
C789 H776 0.929 . S
C789 C781 1.433 1_655 S
C789 N791 1.388 . S
N790 C786 1.427 . S
N790 C787 1.384 . S
N791 C783 1.415 1_655 S
N791 C789 1.388 . S
H792 C798 0.930 . S
H793 C802 0.930 . S
H794 C807 0.929 . S
H795 C805 0.929 . S
H796 C800 0.929 . S
H797 C806 0.929 . S
C798 H792 0.930 . S
C798 C799 1.367 . S
C798 C806 1.378 . S
C799 C798 1.367 . S
C799 C807 1.433 . S
C800 H796 0.929 . S
C800 C802 1.378 . S
C800 C804 1.350 . S
C801 C804 1.463 . S
C801 C806 1.350 . S
C801 N809 1.427 . S
C802 H793 0.930 . S
C802 C800 1.378 . S
C802 C803 1.367 . S
C803 C802 1.367 . S
C803 C805 1.433 . S
C804 C800 1.350 . S
C804 C801 1.463 . S
C804 N808 1.427 . S
C805 H795 0.929 . S
C805 C803 1.433 . S
C805 N808 1.384 . S
C806 H797 0.929 . S
C806 C798 1.378 . S
C806 C801 1.350 . S
C807 H794 0.929 . S
C807 C799 1.433 . S
C807 N809 1.384 . S
N808 C804 1.427 . S
N808 C805 1.384 . S
N809 C801 1.427 . S
N809 C807 1.384 . S
H810 C816 0.930 . S
H811 C820 0.930 . S
H812 C825 0.929 . S
H813 C823 0.929 . S
H814 C818 0.929 . S
H815 C824 0.929 . S
C816 H810 0.930 . S
C816 C817 1.367 . S
C816 C824 1.378 . S
C817 C816 1.367 . S
C817 C825 1.433 . S
C818 H814 0.929 . S
C818 C820 1.378 . S
C818 C822 1.350 . S
C819 C822 1.463 . S
C819 C824 1.350 . S
C819 N827 1.427 . S
C820 H811 0.930 . S
C820 C818 1.378 . S
C820 C821 1.367 . S
C821 C820 1.367 . S
C821 C823 1.433 . S
C822 C818 1.350 . S
C822 C819 1.463 . S
C822 N826 1.427 . S
C823 H813 0.929 . S
C823 C821 1.433 . S
C823 N826 1.384 . S
C824 H815 0.929 . S
C824 C816 1.378 . S
C824 C819 1.350 . S
C825 H812 0.929 . S
C825 C817 1.433 . S
C825 N827 1.384 . S
N826 C822 1.427 . S
N826 C823 1.384 . S
N827 C819 1.427 . S
N827 C825 1.384 . S
H828 C834 0.930 . S
H829 C838 0.930 . S
H830 C843 0.929 . S
H831 C841 0.897 1_545 S
H832 C836 0.929 . S
H833 C842 0.929 . S
C834 H828 0.930 . S
C834 C835 1.367 1_545 S
C834 C842 1.378 . S
C835 C834 1.367 1_565 S
C835 C843 1.433 . S
C836 H832 0.929 . S
C836 C838 1.378 . S
C836 C840 1.350 . S
C837 C840 1.463 . S
C837 C842 1.350 1_565 S
C837 N845 1.427 . S
C838 H829 0.930 . S
C838 C836 1.378 . S
C838 C839 1.367 . S
C839 C838 1.367 . S
C839 C841 1.433 . S
C840 C836 1.350 . S
C840 C837 1.463 . S
C840 N844 1.427 . S
C841 H831 0.897 1_565 S
C841 C839 1.433 . S
C841 N844 1.384 . S
C842 H833 0.929 . S
C842 C834 1.378 . S
C842 C837 1.350 1_545 S
C843 H830 0.929 . S
C843 C835 1.433 . S
C843 N845 1.384 . S
N844 C840 1.427 . S
N844 C841 1.384 . S
N845 C837 1.427 . S
N845 C843 1.384 . S
H846 C852 0.930 . S
H847 C856 0.930 . S
H848 C861 0.929 . S
H849 C859 0.926 1_565 S
H850 C854 0.929 . S
H851 C860 0.929 . S
C852 H846 0.930 . S
C852 C853 1.367 1_565 S
C852 C860 1.378 . S
C853 C852 1.367 1_545 S
C853 C861 1.433 . S
C854 H850 0.929 . S
C854 C856 1.378 . S
C854 C858 1.350 . S
C855 C858 1.463 . S
C855 C860 1.350 1_545 S
C855 N863 1.427 . S
C856 H847 0.930 . S
C856 C854 1.378 . S
C856 C857 1.367 . S
C857 C856 1.367 . S
C857 C859 1.433 . S
C858 C854 1.350 . S
C858 C855 1.463 . S
C858 N862 1.427 . S
C859 H849 0.926 1_545 S
C859 C857 1.433 . S
C859 N862 1.384 . S
C860 H851 0.929 . S
C860 C852 1.378 . S
C860 C855 1.350 1_565 S
C861 H848 0.929 . S
C861 C853 1.433 . S
C861 N863 1.384 . S
N862 C858 1.427 . S
N862 C859 1.384 . S
N863 C855 1.427 . S
N863 C861 1.384 . S
H864 C870 0.930 . S
H865 C874 0.930 . S
H866 C879 0.929 . S
H867 C877 0.929 . S
H868 C872 0.929 . S
H869 C878 0.929 . S
C870 H864 0.930 . S
C870 C871 1.367 . S
C870 C878 1.378 . S
C871 C870 1.367 . S
C871 C879 1.433 . S
C872 H868 0.929 . S
C872 C874 1.378 . S
C872 C876 1.350 . S
C873 C876 1.463 . S
C873 C878 1.350 . S
C873 N881 1.427 . S
C874 H865 0.930 . S
C874 C872 1.378 . S
C874 C875 1.367 . S
C875 C874 1.367 . S
C875 C877 1.433 . S
C876 C872 1.350 . S
C876 C873 1.463 . S
C876 N880 1.427 . S
C877 H867 0.929 . S
C877 C875 1.433 . S
C877 N880 1.384 . S
C878 H869 0.929 . S
C878 C870 1.378 . S
C878 C873 1.350 . S
C879 H866 0.929 . S
C879 C871 1.433 . S
C879 N881 1.384 . S
N880 C876 1.427 . S
N880 C877 1.384 . S
N881 C873 1.427 . S
N881 C879 1.384 . S
H882 C888 0.930 . S
H883 C892 0.930 . S
H884 C897 0.929 . S
H885 C895 0.929 . S
H886 C890 0.929 . S
H887 C896 0.929 . S
C888 H882 0.930 . S
C888 C889 1.367 . S
C888 C896 1.378 . S
C889 C888 1.367 . S
C889 C897 1.433 1_554 S
C890 H886 0.929 . S
C890 C892 1.378 . S
C890 C894 1.350 . S
C891 C894 1.463 . S
C891 C896 1.350 . S
C891 N899 1.432 . S
C892 H883 0.930 . S
C892 C890 1.378 . S
C892 C893 1.367 . S
C893 C892 1.367 . S
C893 C895 1.433 . S
C894 C890 1.350 . S
C894 C891 1.463 . S
C894 N898 1.427 . S
C895 H885 0.929 . S
C895 C893 1.433 . S
C895 N898 1.384 . S
C896 H887 0.929 . S
C896 C888 1.378 . S
C896 C891 1.350 . S
C897 H884 0.929 . S
C897 C889 1.433 1_556 S
C897 N899 1.381 1_556 S
N898 C894 1.427 . S
N898 C895 1.384 . S
N899 C891 1.432 . S
N899 C897 1.381 1_554 S
H900 C906 0.930 . S
H901 C910 0.930 . S
H902 C915 0.929 . S
H903 C913 0.929 . S
H904 C908 0.929 . S
H905 C914 0.929 . S
C906 H900 0.930 . S
C906 C907 1.367 . S
C906 C914 1.378 . S
C907 C906 1.367 . S
C907 C915 1.433 . S
C908 H904 0.929 . S
C908 C910 1.378 . S
C908 C912 1.350 . S
C909 C912 1.463 . S
C909 C914 1.350 . S
C909 N917 1.427 . S
C910 H901 0.930 . S
C910 C908 1.378 . S
C910 C911 1.367 . S
C911 C910 1.367 . S
C911 C913 1.433 . S
C912 C908 1.350 . S
C912 C909 1.463 . S
C912 N916 1.427 . S
C913 H903 0.929 . S
C913 C911 1.433 . S
C913 N916 1.384 . S
C914 H905 0.929 . S
C914 C906 1.378 . S
C914 C909 1.350 . S
C915 H902 0.929 . S
C915 C907 1.433 . S
C915 N917 1.384 . S
N916 C912 1.427 . S
N916 C913 1.384 . S
N917 C909 1.427 . S
N917 C915 1.384 . S
H918 C924 0.930 . S
H919 C928 0.930 . S
H920 C933 0.929 . S
H921 C931 0.929 . S
H922 C926 0.929 . S
H923 C932 0.929 . S
C924 H918 0.930 . S
C924 C925 1.367 1_554 S
C924 C932 1.378 . S
C925 C924 1.367 1_556 S
C925 C933 1.433 . S
C926 H922 0.929 . S
C926 C928 1.378 . S
C926 C930 1.350 . S
C927 C930 1.463 . S
C927 C932 1.350 1_556 S
C927 N935 1.427 . S
C928 H919 0.930 . S
C928 C926 1.378 . S
C928 C929 1.367 . S
C929 C928 1.367 . S
C929 C931 1.433 . S
C930 C926 1.350 . S
C930 C927 1.463 . S
C930 N934 1.427 . S
C931 H921 0.929 . S
C931 C929 1.433 . S
C931 N934 1.384 . S
C932 H923 0.929 . S
C932 C924 1.378 . S
C932 C927 1.350 1_554 S
C933 H920 0.929 . S
C933 C925 1.433 . S
C933 N935 1.384 . S
N934 C930 1.427 . S
N934 C931 1.384 . S
N935 C927 1.427 . S
N935 C933 1.384 . S
H936 C942 0.930 . S
H937 C946 0.930 . S
H938 C951 0.929 . S
H939 C949 0.929 . S
H940 C944 0.929 . S
H941 C950 0.929 . S
C942 H936 0.930 . S
C942 C943 1.367 . S
C942 C950 1.378 . S
C943 C942 1.367 . S
C943 C951 1.433 . S
C944 H940 0.929 . S
C944 C946 1.378 . S
C944 C948 1.350 . S
C945 C948 1.463 . S
C945 C950 1.350 . S
C945 N953 1.427 . S
C946 H937 0.930 . S
C946 C944 1.378 . S
C946 C947 1.367 . S
C947 C946 1.367 . S
C947 C949 1.433 . S
C948 C944 1.350 . S
C948 C945 1.463 . S
C948 N952 1.427 . S
C949 H939 0.929 . S
C949 C947 1.433 . S
C949 N952 1.384 . S
C950 H941 0.929 . S
C950 C942 1.378 . S
C950 C945 1.350 . S
C951 H938 0.929 . S
C951 C943 1.433 . S
C951 N953 1.384 . S
N952 C948 1.427 . S
N952 C949 1.384 . S
N953 C945 1.427 . S
N953 C951 1.384 . S
H954 C960 0.930 . S
H955 C964 0.930 . S
H956 C969 0.929 . S
H957 C967 0.929 . S
H958 C962 0.929 . S
H959 C968 0.929 . S
C960 H954 0.930 . S
C960 C961 1.367 1_655 S
C960 C968 1.378 . S
C961 C960 1.367 1_455 S
C961 C969 1.433 . S
C962 H958 0.929 . S
C962 C964 1.378 . S
C962 C966 1.350 . S
C963 C966 1.463 . S
C963 C968 1.350 1_455 S
C963 N971 1.427 . S
C964 H955 0.930 . S
C964 C962 1.378 . S
C964 C965 1.367 . S
C965 C964 1.367 . S
C965 C967 1.433 . S
C966 C962 1.350 . S
C966 C963 1.463 . S
C966 N970 1.427 . S
C967 H957 0.929 . S
C967 C965 1.433 . S
C967 N970 1.384 . S
C968 H959 0.929 . S
C968 C960 1.378 . S
C968 C963 1.350 1_655 S
C969 H956 0.929 . S
C969 C961 1.433 . S
C969 N971 1.384 . S
N970 C966 1.427 . S
N970 C967 1.384 . S
N971 C963 1.427 . S
N971 C969 1.384 . S
H972 C978 0.930 . S
H973 C982 0.930 . S
H974 C987 0.929 . S
H975 C985 0.929 . S
H976 C980 0.929 . S
H977 C986 0.929 . S
C978 H972 0.930 . S
C978 C979 1.367 . S
C978 C986 1.378 . S
C979 C978 1.367 . S
C979 C987 1.433 . S
C980 H976 0.929 . S
C980 C982 1.378 . S
C980 C984 1.350 . S
C981 C984 1.463 . S
C981 C986 1.350 . S
C981 N989 1.427 . S
C982 H973 0.930 . S
C982 C980 1.378 . S
C982 C983 1.367 . S
C983 C982 1.367 . S
C983 C985 1.433 . S
C984 C980 1.350 . S
C984 C981 1.463 . S
C984 N988 1.427 . S
C985 H975 0.929 . S
C985 C983 1.433 . S
C985 N988 1.384 . S
C986 H977 0.929 . S
C986 C978 1.378 . S
C986 C981 1.350 . S
C987 H974 0.929 . S
C987 C979 1.433 . S
C987 N989 1.384 . S
N988 C984 1.427 . S
N988 C985 1.384 . S
N989 C981 1.427 . S
N989 C987 1.384 . S
H990 C996 0.930 . S
H991 C1000 0.930 . S
H992 C1005 0.942 . S
H993 C1003 0.929 . S
H994 C998 0.929 . S
H995 C1004 0.929 . S
C996 H990 0.930 . S
C996 C997 1.367 . S
C996 C1004 1.378 . S
C997 C996 1.367 . S
C997 C1005 1.425 1_655 S
C998 H994 0.929 . S
C998 C1000 1.378 . S
C998 C1002 1.350 . S
C999 C1002 1.463 . S
C999 C1004 1.350 . S
C999 N1007 1.427 . S
C1000 H991 0.930 . S
C1000 C998 1.378 . S
C1000 C1001 1.367 . S
C1001 C1000 1.367 . S
C1001 C1003 1.433 . S
C1002 C998 1.350 . S
C1002 C999 1.463 . S
C1002 N1006 1.427 . S
C1003 H993 0.929 . S
C1003 C1001 1.433 . S
C1003 N1006 1.384 . S
C1004 H995 0.929 . S
C1004 C996 1.378 . S
C1004 C999 1.350 . S
C1005 H992 0.942 . S
C1005 C997 1.425 1_455 S
C1005 N1007 1.378 1_455 S
N1006 C1002 1.427 . S
N1006 C1003 1.384 . S
N1007 C999 1.427 . S
N1007 C1005 1.378 1_655 S
H1008 C1014 0.930 . S
H1009 C1018 0.930 . S
H1010 C1023 0.929 . S
H1011 C1021 0.929 . S
H1012 C1016 0.929 . S
H1013 C1022 0.929 . S
C1014 H1008 0.930 . S
C1014 C1015 1.367 . S
C1014 C1022 1.378 . S
C1015 C1014 1.367 . S
C1015 C1023 1.433 . S
C1016 H1012 0.929 . S
C1016 C1018 1.378 . S
C1016 C1020 1.350 . S
C1017 C1020 1.463 . S
C1017 C1022 1.350 . S
C1017 N1025 1.427 . S
C1018 H1009 0.930 . S
C1018 C1016 1.378 . S
C1018 C1019 1.367 . S
C1019 C1018 1.367 . S
C1019 C1021 1.433 . S
C1020 C1016 1.350 . S
C1020 C1017 1.463 . S
C1020 N1024 1.427 . S
C1021 H1011 0.929 . S
C1021 C1019 1.433 . S
C1021 N1024 1.384 . S
C1022 H1013 0.929 . S
C1022 C1014 1.378 . S
C1022 C1017 1.350 . S
C1023 H1010 0.929 . S
C1023 C1015 1.433 . S
C1023 N1025 1.384 . S
N1024 C1020 1.427 . S
N1024 C1021 1.384 . S
N1025 C1017 1.427 . S
N1025 C1023 1.384 . S
H1026 C1032 0.930 . S
H1027 C1036 0.930 . S
H1028 C1041 0.929 . S
H1029 C1039 0.929 . S
H1030 C1034 0.929 . S
H1031 C1040 0.929 . S
C1032 H1026 0.930 . S
C1032 C1033 1.367 . S
C1032 C1040 1.378 . S
C1033 C1032 1.367 . S
C1033 C1041 1.433 . S
C1034 H1030 0.929 . S
C1034 C1036 1.378 . S
C1034 C1038 1.350 . S
C1035 C1038 1.463 . S
C1035 C1040 1.350 . S
C1035 N1043 1.427 . S
C1036 H1027 0.930 . S
C1036 C1034 1.378 . S
C1036 C1037 1.367 . S
C1037 C1036 1.367 . S
C1037 C1039 1.433 . S
C1038 C1034 1.350 . S
C1038 C1035 1.463 . S
C1038 N1042 1.427 . S
C1039 H1029 0.929 . S
C1039 C1037 1.433 . S
C1039 N1042 1.384 . S
C1040 H1031 0.929 . S
C1040 C1032 1.378 . S
C1040 C1035 1.350 . S
C1041 H1028 0.929 . S
C1041 C1033 1.433 . S
C1041 N1043 1.384 . S
N1042 C1038 1.427 . S
N1042 C1039 1.384 . S
N1043 C1035 1.427 . S
N1043 C1041 1.384 . S
H1044 C1050 0.930 . S
H1045 C1054 0.930 . S
H1046 C1059 0.929 . S
H1047 C1057 0.929 . S
H1048 C1052 0.929 . S
H1049 C1058 0.929 . S
C1050 H1044 0.930 . S
C1050 C1051 1.367 1_545 S
C1050 C1058 1.378 . S
C1051 C1050 1.367 1_565 S
C1051 C1059 1.433 . S
C1052 H1048 0.929 . S
C1052 C1054 1.378 . S
C1052 C1056 1.350 . S
C1053 C1056 1.463 . S
C1053 C1058 1.350 1_565 S
C1053 N1061 1.427 . S
C1054 H1045 0.930 . S
C1054 C1052 1.378 . S
C1054 C1055 1.367 . S
C1055 C1054 1.367 . S
C1055 C1057 1.433 1_565 S
C1056 C1052 1.350 . S
C1056 C1053 1.463 . S
C1056 N1060 1.427 1_565 S
C1057 H1047 0.929 . S
C1057 C1055 1.433 1_545 S
C1057 N1060 1.384 . S
C1058 H1049 0.929 . S
C1058 C1050 1.378 . S
C1058 C1053 1.350 1_545 S
C1059 H1046 0.929 . S
C1059 C1051 1.433 . S
C1059 N1061 1.384 . S
N1060 C1056 1.427 1_545 S
N1060 C1057 1.384 . S
N1061 C1053 1.427 . S
N1061 C1059 1.384 . S
H1062 C1068 0.930 . S
H1063 C1072 0.930 1_545 S
H1064 C1077 0.929 . S
H1065 C1075 0.929 . S
H1066 C1070 0.929 1_545 S
H1067 C1076 0.929 . S
C1068 H1062 0.930 . S
C1068 C1069 1.385 . S
C1068 C1076 1.378 . S
C1069 C1068 1.385 . S
C1069 C1077 1.417 1_565 S
C1070 H1066 0.929 1_565 S
C1070 C1072 1.378 . S
C1070 C1074 1.350 . S
C1071 C1074 1.463 . S
C1071 C1076 1.350 . S
C1071 N1079 1.427 1_565 S
C1072 H1063 0.930 1_565 S
C1072 C1070 1.378 . S
C1072 C1073 1.367 . S
C1073 C1072 1.367 . S
C1073 C1075 1.433 . S
C1074 C1070 1.350 . S
C1074 C1071 1.463 . S
C1074 N1078 1.427 . S
C1075 H1065 0.929 . S
C1075 C1073 1.433 . S
C1075 N1078 1.384 . S
C1076 H1067 0.929 . S
C1076 C1068 1.378 . S
C1076 C1071 1.350 . S
C1077 H1064 0.929 . S
C1077 C1069 1.417 1_545 S
C1077 N1079 1.384 . S
N1078 C1074 1.427 . S
N1078 C1075 1.384 . S
N1079 C1071 1.427 1_545 S
N1079 C1077 1.384 . S
H1080 C1086 0.930 . S
H1081 C1090 0.930 . S
H1082 C1095 0.929 . S
H1083 C1093 0.929 . S
H1084 C1088 0.929 . S
H1085 C1094 0.929 . S
C1086 H1080 0.930 . S
C1086 C1087 1.367 . S
C1086 C1094 1.378 . S
C1087 C1086 1.367 . S
C1087 C1095 1.433 . S
C1088 H1084 0.929 . S
C1088 C1090 1.378 . S
C1088 C1092 1.350 . S
C1089 C1092 1.463 . S
C1089 C1094 1.350 . S
C1089 N1097 1.427 . S
C1090 H1081 0.930 . S
C1090 C1088 1.378 . S
C1090 C1091 1.367 . S
C1091 C1090 1.367 . S
C1091 C1093 1.433 . S
C1092 C1088 1.350 . S
C1092 C1089 1.463 . S
C1092 N1096 1.427 . S
C1093 H1083 0.929 . S
C1093 C1091 1.433 . S
C1093 N1096 1.384 . S
C1094 H1085 0.929 . S
C1094 C1086 1.378 . S
C1094 C1089 1.350 . S
C1095 H1082 0.929 . S
C1095 C1087 1.433 . S
C1095 N1097 1.384 . S
N1096 C1092 1.427 . S
N1096 C1093 1.384 . S
N1097 C1089 1.427 . S
N1097 C1095 1.384 . S
H1098 C1104 0.930 . S
H1099 C1108 0.930 1_554 S
H1100 C1113 0.929 . S
H1101 C1111 0.929 . S
H1102 C1106 0.929 1_554 S
H1103 C1112 0.929 . S
C1104 H1098 0.930 . S
C1104 C1105 1.384 . S
C1104 C1112 1.378 . S
C1105 C1104 1.384 . S
C1105 C1113 1.418 1_556 S
C1106 H1102 0.929 1_556 S
C1106 C1108 1.378 . S
C1106 C1110 1.350 . S
C1107 C1110 1.463 . S
C1107 C1112 1.350 . S
C1107 N1115 1.427 1_556 S
C1108 H1099 0.930 1_556 S
C1108 C1106 1.378 . S
C1108 C1109 1.367 . S
C1109 C1108 1.367 . S
C1109 C1111 1.433 . S
C1110 C1106 1.350 . S
C1110 C1107 1.463 . S
C1110 N1114 1.427 . S
C1111 H1101 0.929 . S
C1111 C1109 1.433 . S
C1111 N1114 1.384 . S
C1112 H1103 0.929 . S
C1112 C1104 1.378 . S
C1112 C1107 1.350 . S
C1113 H1100 0.929 . S
C1113 C1105 1.418 1_554 S
C1113 N1115 1.384 . S
N1114 C1110 1.427 . S
N1114 C1111 1.384 . S
N1115 C1107 1.427 1_554 S
N1115 C1113 1.384 . S
H1116 C1122 0.930 . S
H1117 C1126 0.930 . S
H1118 C1131 0.929 . S
H1119 C1129 0.929 . S
H1120 C1124 0.929 . S
H1121 C1130 0.929 . S
C1122 H1116 0.930 . S
C1122 C1123 1.367 . S
C1122 C1130 1.378 . S
C1123 C1122 1.367 . S
C1123 C1131 1.433 . S
C1124 H1120 0.929 . S
C1124 C1126 1.378 . S
C1124 C1128 1.350 . S
C1125 C1128 1.463 . S
C1125 C1130 1.350 . S
C1125 N1133 1.427 . S
C1126 H1117 0.930 . S
C1126 C1124 1.378 . S
C1126 C1127 1.367 . S
C1127 C1126 1.367 . S
C1127 C1129 1.433 . S
C1128 C1124 1.350 . S
C1128 C1125 1.463 . S
C1128 N1132 1.427 . S
C1129 H1119 0.929 . S
C1129 C1127 1.433 . S
C1129 N1132 1.384 . S
C1130 H1121 0.929 . S
C1130 C1122 1.378 . S
C1130 C1125 1.350 . S
C1131 H1118 0.929 . S
C1131 C1123 1.433 . S
C1131 N1133 1.384 . S
N1132 C1128 1.427 . S
N1132 C1129 1.384 . S
N1133 C1125 1.427 . S
N1133 C1131 1.384 . S
H1134 C1140 0.930 . S
H1135 C1144 0.930 . S
H1136 C1149 0.929 . S
H1137 C1147 0.929 . S
H1138 C1142 0.929 . S
H1139 C1148 0.929 . S
C1140 H1134 0.930 . S
C1140 C1141 1.367 . S
C1140 C1148 1.378 . S
C1141 C1140 1.367 . S
C1141 C1149 1.433 1_556 S
C1142 H1138 0.929 . S
C1142 C1144 1.378 . S
C1142 C1146 1.350 1_554 S
C1143 C1146 1.463 . S
C1143 C1148 1.350 . S
C1143 N1151 1.427 1_556 S
C1144 H1135 0.930 . S
C1144 C1142 1.378 . S
C1144 C1145 1.367 1_554 S
C1145 C1144 1.367 1_556 S
C1145 C1147 1.433 . S
C1146 C1142 1.350 1_556 S
C1146 C1143 1.463 . S
C1146 N1150 1.427 . S
C1147 H1137 0.929 . S
C1147 C1145 1.433 . S
C1147 N1150 1.384 . S
C1148 H1139 0.929 . S
C1148 C1140 1.378 . S
C1148 C1143 1.350 . S
C1149 H1136 0.929 . S
C1149 C1141 1.433 1_554 S
C1149 N1151 1.384 . S
N1150 C1146 1.427 . S
N1150 C1147 1.384 . S
N1151 C1143 1.427 1_554 S
N1151 C1149 1.384 . S
H1152 C1158 0.930 . S
H1153 C1162 0.930 . S
H1154 C1167 0.929 . S
H1155 C1165 0.929 . S
H1156 C1160 0.929 . S
H1157 C1166 0.929 . S
C1158 H1152 0.930 . S
C1158 C1159 1.367 . S
C1158 C1166 1.378 . S
C1159 C1158 1.367 . S
C1159 C1167 1.433 . S
C1160 H1156 0.929 . S
C1160 C1162 1.378 . S
C1160 C1164 1.350 . S
C1161 C1164 1.463 . S
C1161 C1166 1.350 . S
C1161 N1169 1.427 . S
C1162 H1153 0.930 . S
C1162 C1160 1.378 . S
C1162 C1163 1.367 . S
C1163 C1162 1.367 . S
C1163 C1165 1.433 . S
C1164 C1160 1.350 . S
C1164 C1161 1.463 . S
C1164 N1168 1.427 . S
C1165 H1155 0.929 . S
C1165 C1163 1.433 . S
C1165 N1168 1.384 . S
C1166 H1157 0.929 . S
C1166 C1158 1.378 . S
C1166 C1161 1.350 . S
C1167 H1154 0.929 . S
C1167 C1159 1.433 . S
C1167 N1169 1.384 . S
N1168 C1164 1.427 . S
N1168 C1165 1.384 . S
N1169 C1161 1.427 . S
N1169 C1167 1.384 . S
H1170 C1176 0.930 . S
H1171 C1180 0.930 . S
H1172 C1185 0.929 . S
H1173 C1183 0.929 . S
H1174 C1178 0.929 . S
H1175 C1184 0.929 . S
C1176 H1170 0.930 . S
C1176 C1177 1.375 . S
C1176 C1184 1.378 . S
C1177 C1176 1.375 . S
C1177 C1185 1.427 1_655 S
C1178 H1174 0.929 . S
C1178 C1180 1.378 . S
C1178 C1182 1.350 . S
C1179 C1182 1.463 . S
C1179 C1184 1.350 . S
C1179 N1187 1.427 1_655 S
C1180 H1171 0.930 . S
C1180 C1178 1.378 . S
C1180 C1181 1.367 . S
C1181 C1180 1.367 . S
C1181 C1183 1.433 . S
C1182 C1178 1.350 . S
C1182 C1179 1.463 . S
C1182 N1186 1.427 . S
C1183 H1173 0.929 . S
C1183 C1181 1.433 . S
C1183 N1186 1.384 . S
C1184 H1175 0.929 . S
C1184 C1176 1.378 . S
C1184 C1179 1.350 . S
C1185 H1172 0.929 . S
C1185 C1177 1.427 1_455 S
C1185 N1187 1.384 . S
N1186 C1182 1.427 . S
N1186 C1183 1.384 . S
N1187 C1179 1.427 1_455 S
N1187 C1185 1.384 . S
H1188 C1194 0.930 . S
H1189 C1198 0.930 . S
H1190 C1203 0.929 . S
H1191 C1201 0.929 . S
H1192 C1196 0.929 . S
H1193 C1202 0.929 . S
C1194 H1188 0.930 . S
C1194 C1195 1.367 . S
C1194 C1202 1.378 . S
C1195 C1194 1.367 . S
C1195 C1203 1.433 . S
C1196 H1192 0.929 . S
C1196 C1198 1.378 . S
C1196 C1200 1.350 . S
C1197 C1200 1.463 . S
C1197 C1202 1.350 . S
C1197 N1205 1.427 . S
C1198 H1189 0.930 . S
C1198 C1196 1.378 . S
C1198 C1199 1.367 . S
C1199 C1198 1.367 . S
C1199 C1201 1.433 . S
C1200 C1196 1.350 . S
C1200 C1197 1.463 . S
C1200 N1204 1.427 . S
C1201 H1191 0.929 . S
C1201 C1199 1.433 . S
C1201 N1204 1.384 . S
C1202 H1193 0.929 . S
C1202 C1194 1.378 . S
C1202 C1197 1.350 . S
C1203 H1190 0.929 . S
C1203 C1195 1.433 . S
C1203 N1205 1.384 . S
N1204 C1200 1.427 . S
N1204 C1201 1.384 . S
N1205 C1197 1.427 . S
N1205 C1203 1.384 . S
H1206 C1212 0.930 . S
H1207 C1216 0.930 . S
H1208 C1221 0.929 . S
H1209 C1219 0.929 . S
H1210 C1214 0.929 . S
H1211 C1220 0.929 . S
C1212 H1206 0.930 . S
C1212 C1213 1.367 . S
C1212 C1220 1.378 . S
C1213 C1212 1.367 . S
C1213 C1221 1.433 1_655 S
C1214 H1210 0.929 . S
C1214 C1216 1.378 . S
C1214 C1218 1.350 1_455 S
C1215 C1218 1.463 . S
C1215 C1220 1.350 . S
C1215 N1223 1.427 1_655 S
C1216 H1207 0.930 . S
C1216 C1214 1.378 . S
C1216 C1217 1.367 1_455 S
C1217 C1216 1.367 1_655 S
C1217 C1219 1.433 . S
C1218 C1214 1.350 1_655 S
C1218 C1215 1.463 . S
C1218 N1222 1.427 . S
C1219 H1209 0.929 . S
C1219 C1217 1.433 . S
C1219 N1222 1.384 . S
C1220 H1211 0.929 . S
C1220 C1212 1.378 . S
C1220 C1215 1.350 . S
C1221 H1208 0.929 . S
C1221 C1213 1.433 1_455 S
C1221 N1223 1.384 . S
N1222 C1218 1.427 . S
N1222 C1219 1.384 . S
N1223 C1215 1.427 1_455 S
N1223 C1221 1.384 . S
H1224 C1230 0.930 . S
H1225 C1234 0.930 . S
H1226 C1239 0.929 . S
H1227 C1237 0.929 . S
H1228 C1232 0.929 . S
H1229 C1238 0.929 . S
C1230 H1224 0.930 . S
C1230 C1231 1.367 . S
C1230 C1238 1.378 . S
C1231 C1230 1.367 . S
C1231 C1239 1.433 . S
C1232 H1228 0.929 . S
C1232 C1234 1.378 . S
C1232 C1236 1.350 . S
C1233 C1236 1.463 . S
C1233 C1238 1.350 . S
C1233 N1241 1.427 . S
C1234 H1225 0.930 . S
C1234 C1232 1.378 . S
C1234 C1235 1.367 . S
C1235 C1234 1.367 . S
C1235 C1237 1.433 . S
C1236 C1232 1.350 . S
C1236 C1233 1.463 . S
C1236 N1240 1.427 . S
C1237 H1227 0.929 . S
C1237 C1235 1.433 . S
C1237 N1240 1.384 . S
C1238 H1229 0.929 . S
C1238 C1230 1.378 . S
C1238 C1233 1.350 . S
C1239 H1226 0.929 . S
C1239 C1231 1.433 . S
C1239 N1241 1.384 . S
N1240 C1236 1.427 . S
N1240 C1237 1.384 . S
N1241 C1233 1.427 . S
N1241 C1239 1.384 . S
H1242 C1248 0.930 . S
H1243 C1252 0.930 . S
H1244 C1257 0.929 . S
H1245 C1255 0.929 . S
H1246 C1250 0.929 . S
H1247 C1256 0.929 . S
C1248 H1242 0.930 . S
C1248 C1249 1.367 . S
C1248 C1256 1.378 . S
C1249 C1248 1.367 . S
C1249 C1257 1.433 . S
C1250 H1246 0.929 . S
C1250 C1252 1.378 . S
C1250 C1254 1.350 . S
C1251 C1254 1.463 . S
C1251 C1256 1.350 . S
C1251 N1259 1.427 . S
C1252 H1243 0.930 . S
C1252 C1250 1.378 . S
C1252 C1253 1.367 . S
C1253 C1252 1.367 . S
C1253 C1255 1.433 . S
C1254 C1250 1.350 . S
C1254 C1251 1.463 . S
C1254 N1258 1.427 . S
C1255 H1245 0.929 . S
C1255 C1253 1.433 . S
C1255 N1258 1.384 . S
C1256 H1247 0.929 . S
C1256 C1248 1.378 . S
C1256 C1251 1.350 . S
C1257 H1244 0.929 . S
C1257 C1249 1.433 . S
C1257 N1259 1.384 . S
N1258 C1254 1.427 . S
N1258 C1255 1.384 . S
N1259 C1251 1.427 . S
N1259 C1257 1.384 . S
H1260 C1266 0.930 . S
H1261 C1270 0.936 . S
H1262 C1275 0.929 . S
H1263 C1273 0.929 . S
H1264 C1268 0.929 . S
H1265 C1274 0.929 . S
C1266 H1260 0.930 . S
C1266 C1267 1.367 . S
C1266 C1274 1.378 . S
C1267 C1266 1.367 . S
C1267 C1275 1.433 . S
C1268 H1264 0.929 . S
C1268 C1270 1.378 . S
C1268 C1272 1.350 . S
C1269 C1272 1.463 . S
C1269 C1274 1.350 . S
C1269 N1277 1.427 . S
C1270 H1261 0.936 . S
C1270 C1268 1.378 . S
C1270 C1271 1.367 . S
C1271 C1270 1.367 . S
C1271 C1273 1.433 . S
C1272 C1268 1.350 . S
C1272 C1269 1.463 . S
C1272 N1276 1.427 . S
C1273 H1263 0.929 . S
C1273 C1271 1.433 . S
C1273 N1276 1.384 . S
C1274 H1265 0.929 . S
C1274 C1266 1.378 . S
C1274 C1269 1.350 . S
C1275 H1262 0.929 . S
C1275 C1267 1.433 . S
C1275 N1277 1.384 . S
N1276 C1272 1.427 . S
N1276 C1273 1.384 . S
N1277 C1269 1.427 . S
N1277 C1275 1.384 . S
H1278 C1284 0.930 . S
H1279 C1288 0.930 1_565 S
H1280 C1293 0.929 . S
H1281 C1291 0.929 . S
H1282 C1286 0.929 1_565 S
H1283 C1292 0.929 . S
C1284 H1278 0.930 . S
C1284 C1285 1.389 . S
C1284 C1292 1.378 . S
C1285 C1284 1.389 . S
C1285 C1293 1.414 1_545 S
C1286 H1282 0.929 1_545 S
C1286 C1288 1.378 . S
C1286 C1290 1.350 . S
C1287 C1290 1.463 . S
C1287 C1292 1.350 . S
C1287 N1295 1.427 1_545 S
C1288 H1279 0.930 1_545 S
C1288 C1286 1.378 . S
C1288 C1289 1.367 . S
C1289 C1288 1.367 . S
C1289 C1291 1.433 . S
C1290 C1286 1.350 . S
C1290 C1287 1.463 . S
C1290 N1294 1.427 . S
C1291 H1281 0.929 . S
C1291 C1289 1.433 . S
C1291 N1294 1.384 . S
C1292 H1283 0.929 . S
C1292 C1284 1.378 . S
C1292 C1287 1.350 . S
C1293 H1280 0.929 . S
C1293 C1285 1.414 1_565 S
C1293 N1295 1.384 . S
N1294 C1290 1.427 . S
N1294 C1291 1.384 . S
N1295 C1287 1.427 1_565 S
N1295 C1293 1.384 . S
H1296 C1302 0.930 . S
H1297 C1306 0.930 . S
H1298 C1311 0.929 . S
H1299 C1309 0.929 . S
H1300 C1304 0.929 . S
H1301 C1310 0.929 . S
C1302 H1296 0.930 . S
C1302 C1303 1.367 . S
C1302 C1310 1.378 . S
C1303 C1302 1.367 . S
C1303 C1311 1.433 . S
C1304 H1300 0.929 . S
C1304 C1306 1.378 . S
C1304 C1308 1.350 . S
C1305 C1308 1.463 . S
C1305 C1310 1.350 . S
C1305 N1313 1.427 . S
C1306 H1297 0.930 . S
C1306 C1304 1.378 . S
C1306 C1307 1.367 . S
C1307 C1306 1.367 . S
C1307 C1309 1.433 . S
C1308 C1304 1.350 . S
C1308 C1305 1.463 . S
C1308 N1312 1.427 . S
C1309 H1299 0.929 . S
C1309 C1307 1.433 . S
C1309 N1312 1.384 . S
C1310 H1301 0.929 . S
C1310 C1302 1.378 . S
C1310 C1305 1.350 . S
C1311 H1298 0.929 . S
C1311 C1303 1.433 . S
C1311 N1313 1.384 . S
N1312 C1308 1.427 . S
N1312 C1309 1.384 . S
N1313 C1305 1.427 . S
N1313 C1311 1.384 . S
H1314 C1320 0.930 . S
H1315 C1324 0.930 . S
H1316 C1329 0.929 . S
H1317 C1327 0.929 1_556 S
H1318 C1322 0.929 . S
H1319 C1328 0.929 . S
C1320 H1314 0.930 . S
C1320 C1321 1.380 . S
C1320 C1328 1.378 . S
C1321 C1320 1.380 . S
C1321 C1329 1.418 1_556 S
C1322 H1318 0.929 . S
C1322 C1324 1.378 . S
C1322 C1326 1.350 . S
C1323 C1326 1.463 . S
C1323 C1328 1.350 1_554 S
C1323 N1331 1.427 . S
C1324 H1315 0.930 . S
C1324 C1322 1.378 . S
C1324 C1325 1.367 . S
C1325 C1324 1.367 . S
C1325 C1327 1.433 . S
C1326 C1322 1.350 . S
C1326 C1323 1.463 . S
C1326 N1330 1.427 1_554 S
C1327 H1317 0.929 1_554 S
C1327 C1325 1.433 . S
C1327 N1330 1.384 1_554 S
C1328 H1319 0.929 . S
C1328 C1320 1.378 . S
C1328 C1323 1.350 1_556 S
C1329 H1316 0.929 . S
C1329 C1321 1.418 1_554 S
C1329 N1331 1.384 . S
N1330 C1326 1.427 1_556 S
N1330 C1327 1.384 1_556 S
N1331 C1323 1.427 . S
N1331 C1329 1.384 . S
H1332 C1338 0.930 . S
H1333 C1342 0.930 . S
H1334 C1347 0.929 . S
H1335 C1345 0.929 . S
H1336 C1340 0.929 . S
H1337 C1346 0.929 . S
C1338 H1332 0.930 . S
C1338 C1339 1.367 . S
C1338 C1346 1.378 . S
C1339 C1338 1.367 . S
C1339 C1347 1.433 . S
C1340 H1336 0.929 . S
C1340 C1342 1.378 . S
C1340 C1344 1.350 . S
C1341 C1344 1.463 . S
C1341 C1346 1.350 . S
C1341 N1349 1.427 . S
C1342 H1333 0.930 . S
C1342 C1340 1.378 . S
C1342 C1343 1.367 . S
C1343 C1342 1.367 . S
C1343 C1345 1.433 . S
C1344 C1340 1.350 . S
C1344 C1341 1.463 . S
C1344 N1348 1.427 . S
C1345 H1335 0.929 . S
C1345 C1343 1.433 . S
C1345 N1348 1.384 . S
C1346 H1337 0.929 . S
C1346 C1338 1.378 . S
C1346 C1341 1.350 . S
C1347 H1334 0.929 . S
C1347 C1339 1.433 . S
C1347 N1349 1.384 . S
N1348 C1344 1.427 . S
N1348 C1345 1.384 . S
N1349 C1341 1.427 . S
N1349 C1347 1.384 . S
H1350 C1356 0.925 1_556 S
H1351 C1360 0.930 . S
H1352 C1365 0.929 . S
H1353 C1363 0.929 . S
H1354 C1358 0.929 . S
H1355 C1364 0.936 . S
C1356 H1350 0.925 1_554 S
C1356 C1357 1.375 . S
C1356 C1364 1.374 1_554 S
C1357 C1356 1.375 . S
C1357 C1365 1.433 . S
C1358 H1354 0.929 . S
C1358 C1360 1.378 . S
C1358 C1362 1.350 . S
C1359 C1362 1.463 . S
C1359 C1364 1.345 1_554 S
C1359 N1367 1.427 . S
C1360 H1351 0.930 . S
C1360 C1358 1.378 . S
C1360 C1361 1.367 . S
C1361 C1360 1.367 . S
C1361 C1363 1.433 1_554 S
C1362 C1358 1.350 . S
C1362 C1359 1.463 . S
C1362 N1366 1.427 1_554 S
C1363 H1353 0.929 . S
C1363 C1361 1.433 1_556 S
C1363 N1366 1.384 . S
C1364 H1355 0.936 . S
C1364 C1356 1.374 1_556 S
C1364 C1359 1.345 1_556 S
C1365 H1352 0.929 . S
C1365 C1357 1.433 . S
C1365 N1367 1.384 . S
N1366 C1362 1.427 1_556 S
N1366 C1363 1.384 . S
N1367 C1359 1.427 . S
N1367 C1365 1.384 . S
H1368 C1374 0.930 . S
H1369 C1378 0.930 . S
H1370 C1383 0.929 . S
H1371 C1381 0.929 . S
H1372 C1376 0.929 . S
H1373 C1382 0.929 . S
C1374 H1368 0.930 . S
C1374 C1375 1.367 . S
C1374 C1382 1.378 . S
C1375 C1374 1.367 . S
C1375 C1383 1.433 . S
C1376 H1372 0.929 . S
C1376 C1378 1.378 . S
C1376 C1380 1.350 . S
C1377 C1380 1.463 . S
C1377 C1382 1.350 . S
C1377 N1385 1.427 . S
C1378 H1369 0.930 . S
C1378 C1376 1.378 . S
C1378 C1379 1.367 . S
C1379 C1378 1.367 . S
C1379 C1381 1.433 . S
C1380 C1376 1.350 . S
C1380 C1377 1.463 . S
C1380 N1384 1.427 . S
C1381 H1371 0.929 . S
C1381 C1379 1.433 . S
C1381 N1384 1.384 . S
C1382 H1373 0.929 . S
C1382 C1374 1.378 . S
C1382 C1377 1.350 . S
C1383 H1370 0.929 . S
C1383 C1375 1.433 . S
C1383 N1385 1.384 . S
N1384 C1380 1.427 . S
N1384 C1381 1.384 . S
N1385 C1377 1.427 . S
N1385 C1383 1.384 . S
H1386 C1392 0.930 . S
H1387 C1396 0.930 . S
H1388 C1401 0.929 . S
H1389 C1399 0.929 . S
H1390 C1394 0.929 . S
H1391 C1400 0.929 . S
C1392 H1386 0.930 . S
C1392 C1393 1.367 . S
C1392 C1400 1.378 . S
C1393 C1392 1.367 . S
C1393 C1401 1.433 1_655 S
C1394 H1390 0.929 . S
C1394 C1396 1.378 . S
C1394 C1398 1.350 . S
C1395 C1398 1.463 . S
C1395 C1400 1.350 1_455 S
C1395 N1403 1.427 . S
C1396 H1387 0.930 . S
C1396 C1394 1.378 . S
C1396 C1397 1.367 . S
C1397 C1396 1.367 . S
C1397 C1399 1.433 . S
C1398 C1394 1.350 . S
C1398 C1395 1.463 . S
C1398 N1402 1.427 . S
C1399 H1389 0.929 . S
C1399 C1397 1.433 . S
C1399 N1402 1.384 . S
C1400 H1391 0.929 . S
C1400 C1392 1.378 . S
C1400 C1395 1.350 1_655 S
C1401 H1388 0.929 . S
C1401 C1393 1.433 1_455 S
C1401 N1403 1.384 . S
N1402 C1398 1.427 . S
N1402 C1399 1.384 . S
N1403 C1395 1.427 . S
N1403 C1401 1.384 . S
H1404 C1410 0.930 . S
H1405 C1414 0.930 . S
H1406 C1419 0.929 . S
H1407 C1417 0.929 . S
H1408 C1412 0.929 . S
H1409 C1418 0.929 . S
C1410 H1404 0.930 . S
C1410 C1411 1.367 . S
C1410 C1418 1.378 . S
C1411 C1410 1.367 . S
C1411 C1419 1.433 . S
C1412 H1408 0.929 . S
C1412 C1414 1.378 . S
C1412 C1416 1.350 . S
C1413 C1416 1.463 . S
C1413 C1418 1.350 . S
C1413 N1421 1.427 . S
C1414 H1405 0.930 . S
C1414 C1412 1.378 . S
C1414 C1415 1.367 . S
C1415 C1414 1.367 . S
C1415 C1417 1.433 . S
C1416 C1412 1.350 . S
C1416 C1413 1.463 . S
C1416 N1420 1.427 . S
C1417 H1407 0.929 . S
C1417 C1415 1.433 . S
C1417 N1420 1.384 . S
C1418 H1409 0.929 . S
C1418 C1410 1.378 . S
C1418 C1413 1.350 . S
C1419 H1406 0.929 . S
C1419 C1411 1.433 . S
C1419 N1421 1.384 . S
N1420 C1416 1.427 . S
N1420 C1417 1.384 . S
N1421 C1413 1.427 . S
N1421 C1419 1.384 . S
H1422 C1428 0.930 . S
H1423 C1432 0.930 . S
H1424 C1437 0.929 . S
H1425 C1435 0.929 . S
H1426 C1430 0.929 . S
H1427 C1436 0.929 . S
C1428 H1422 0.930 . S
C1428 C1429 1.367 . S
C1428 C1436 1.378 . S
C1429 C1428 1.367 . S
C1429 C1437 1.433 1_455 S
C1430 H1426 0.929 . S
C1430 C1432 1.378 . S
C1430 C1434 1.350 1_655 S
C1431 C1434 1.463 . S
C1431 C1436 1.350 . S
C1431 N1439 1.427 1_455 S
C1432 H1423 0.930 . S
C1432 C1430 1.378 . S
C1432 C1433 1.367 1_655 S
C1433 C1432 1.367 1_455 S
C1433 C1435 1.433 . S
C1434 C1430 1.350 1_455 S
C1434 C1431 1.463 . S
C1434 N1438 1.427 . S
C1435 H1425 0.929 . S
C1435 C1433 1.433 . S
C1435 N1438 1.384 . S
C1436 H1427 0.929 . S
C1436 C1428 1.378 . S
C1436 C1431 1.350 . S
C1437 H1424 0.929 . S
C1437 C1429 1.433 1_655 S
C1437 N1439 1.384 . S
N1438 C1434 1.427 . S
N1438 C1435 1.384 . S
N1439 C1431 1.427 1_655 S
N1439 C1437 1.384 . S
H1440 C1446 0.930 . S
H1441 C1450 0.930 . S
H1442 C1455 0.929 . S
H1443 C1453 0.929 . S
H1444 C1448 0.929 . S
H1445 C1454 0.929 . S
C1446 H1440 0.930 . S
C1446 C1447 1.367 . S
C1446 C1454 1.378 . S
C1447 C1446 1.367 . S
C1447 C1455 1.433 . S
C1448 H1444 0.929 . S
C1448 C1450 1.378 . S
C1448 C1452 1.350 . S
C1449 C1452 1.463 . S
C1449 C1454 1.350 . S
C1449 N1457 1.427 . S
C1450 H1441 0.930 . S
C1450 C1448 1.378 . S
C1450 C1451 1.367 . S
C1451 C1450 1.367 . S
C1451 C1453 1.433 . S
C1452 C1448 1.350 . S
C1452 C1449 1.463 . S
C1452 N1456 1.427 . S
C1453 H1443 0.929 . S
C1453 C1451 1.433 . S
C1453 N1456 1.384 . S
C1454 H1445 0.929 . S
C1454 C1446 1.378 . S
C1454 C1449 1.350 . S
C1455 H1442 0.929 . S
C1455 C1447 1.433 . S
C1455 N1457 1.384 . S
N1456 C1452 1.427 . S
N1456 C1453 1.384 . S
N1457 C1449 1.427 . S
N1457 C1455 1.384 . S
H1458 C1464 0.930 . S
H1459 C1468 0.930 . S
H1460 C1473 0.929 . S
H1461 C1471 0.929 . S
H1462 C1466 0.929 . S
H1463 C1472 0.929 . S
C1464 H1458 0.930 . S
C1464 C1465 1.367 . S
C1464 C1472 1.378 . S
C1465 C1464 1.367 . S
C1465 C1473 1.433 . S
C1466 H1462 0.929 . S
C1466 C1468 1.378 . S
C1466 C1470 1.350 . S
C1467 C1470 1.463 . S
C1467 C1472 1.350 . S
C1467 N1475 1.427 . S
C1468 H1459 0.930 . S
C1468 C1466 1.378 . S
C1468 C1469 1.367 . S
C1469 C1468 1.367 . S
C1469 C1471 1.433 . S
C1470 C1466 1.350 . S
C1470 C1467 1.463 . S
C1470 N1474 1.427 . S
C1471 H1461 0.929 . S
C1471 C1469 1.433 . S
C1471 N1474 1.384 . S
C1472 H1463 0.929 . S
C1472 C1464 1.378 . S
C1472 C1467 1.350 . S
C1473 H1460 0.929 . S
C1473 C1465 1.433 . S
C1473 N1475 1.384 . S
N1474 C1470 1.427 . S
N1474 C1471 1.384 . S
N1475 C1467 1.427 . S
N1475 C1473 1.384 . S
H1476 C1482 0.930 . S
H1477 C1486 0.930 . S
H1478 C1491 0.929 . S
H1479 C1489 0.929 . S
H1480 C1484 0.929 . S
H1481 C1490 0.929 . S
C1482 H1476 0.930 . S
C1482 C1483 1.367 . S
C1482 C1490 1.378 . S
C1483 C1482 1.367 . S
C1483 C1491 1.433 1_545 S
C1484 H1480 0.929 . S
C1484 C1486 1.378 . S
C1484 C1488 1.350 1_565 S
C1485 C1488 1.463 . S
C1485 C1490 1.350 . S
C1485 N1493 1.427 1_545 S
C1486 H1477 0.930 . S
C1486 C1484 1.378 . S
C1486 C1487 1.367 1_565 S
C1487 C1486 1.367 1_545 S
C1487 C1489 1.433 . S
C1488 C1484 1.350 1_545 S
C1488 C1485 1.463 . S
C1488 N1492 1.427 . S
C1489 H1479 0.929 . S
C1489 C1487 1.433 . S
C1489 N1492 1.384 . S
C1490 H1481 0.929 . S
C1490 C1482 1.378 . S
C1490 C1485 1.350 . S
C1491 H1478 0.929 . S
C1491 C1483 1.433 1_565 S
C1491 N1493 1.384 . S
N1492 C1488 1.427 . S
N1492 C1489 1.384 . S
N1493 C1485 1.427 1_565 S
N1493 C1491 1.384 . S
H1494 C1500 0.930 . S
H1495 C1504 0.930 . S
H1496 C1509 0.929 . S
H1497 C1507 0.929 . S
H1498 C1502 0.929 . S
H1499 C1508 0.929 . S
C1500 H1494 0.930 . S
C1500 C1501 1.367 . S
C1500 C1508 1.378 . S
C1501 C1500 1.367 . S
C1501 C1509 1.433 . S
C1502 H1498 0.929 . S
C1502 C1504 1.378 . S
C1502 C1506 1.350 . S
C1503 C1506 1.463 . S
C1503 C1508 1.350 . S
C1503 N1511 1.427 . S
C1504 H1495 0.930 . S
C1504 C1502 1.378 . S
C1504 C1505 1.367 . S
C1505 C1504 1.367 . S
C1505 C1507 1.433 . S
C1506 C1502 1.350 . S
C1506 C1503 1.463 . S
C1506 N1510 1.427 . S
C1507 H1497 0.929 . S
C1507 C1505 1.433 . S
C1507 N1510 1.384 . S
C1508 H1499 0.929 . S
C1508 C1500 1.378 . S
C1508 C1503 1.350 . S
C1509 H1496 0.929 . S
C1509 C1501 1.433 . S
C1509 N1511 1.384 . S
N1510 C1506 1.427 . S
N1510 C1507 1.384 . S
N1511 C1503 1.427 . S
N1511 C1509 1.384 . S
H1512 C1518 0.930 . S
H1513 C1522 0.930 . S
H1514 C1527 0.929 . S
H1515 C1525 0.929 . S
H1516 C1520 0.929 . S
H1517 C1526 0.929 . S
C1518 H1512 0.930 . S
C1518 C1519 1.367 . S
C1518 C1526 1.378 . S
C1519 C1518 1.367 . S
C1519 C1527 1.433 . S
C1520 H1516 0.929 . S
C1520 C1522 1.378 . S
C1520 C1524 1.350 . S
C1521 C1524 1.463 . S
C1521 C1526 1.350 . S
C1521 N1529 1.427 . S
C1522 H1513 0.930 . S
C1522 C1520 1.378 . S
C1522 C1523 1.367 . S
C1523 C1522 1.367 . S
C1523 C1525 1.433 . S
C1524 C1520 1.350 . S
C1524 C1521 1.463 . S
C1524 N1528 1.427 . S
C1525 H1515 0.929 . S
C1525 C1523 1.433 . S
C1525 N1528 1.384 . S
C1526 H1517 0.929 . S
C1526 C1518 1.378 . S
C1526 C1521 1.350 . S
C1527 H1514 0.929 . S
C1527 C1519 1.433 . S
C1527 N1529 1.384 . S
N1528 C1524 1.427 . S
N1528 C1525 1.384 . S
N1529 C1521 1.427 . S
N1529 C1527 1.384 . S
H1530 C1536 0.930 1_554 S
H1531 C1540 0.930 . S
H1532 C1545 0.929 . S
H1533 C1543 0.929 . S
H1534 C1538 0.929 . S
H1535 C1544 0.929 . S
C1536 H1530 0.930 1_556 S
C1536 C1537 1.367 . S
C1536 C1544 1.378 . S
C1537 C1536 1.367 . S
C1537 C1545 1.433 . S
C1538 H1534 0.929 . S
C1538 C1540 1.378 . S
C1538 C1542 1.350 . S
C1539 C1542 1.463 . S
C1539 C1544 1.350 . S
C1539 N1547 1.427 . S
C1540 H1531 0.930 . S
C1540 C1538 1.378 . S
C1540 C1541 1.367 . S
C1541 C1540 1.367 . S
C1541 C1543 1.433 . S
C1542 C1538 1.350 . S
C1542 C1539 1.463 . S
C1542 N1546 1.427 . S
C1543 H1533 0.929 . S
C1543 C1541 1.433 . S
C1543 N1546 1.384 . S
C1544 H1535 0.929 . S
C1544 C1536 1.378 . S
C1544 C1539 1.350 . S
C1545 H1532 0.929 . S
C1545 C1537 1.433 . S
C1545 N1547 1.384 . S
N1546 C1542 1.427 . S
N1546 C1543 1.384 . S
N1547 C1539 1.427 . S
N1547 C1545 1.384 . S
H1548 C1554 0.930 . S
H1549 C1558 0.930 . S
H1550 C1563 0.929 . S
H1551 C1561 0.929 . S
H1552 C1556 0.929 . S
H1553 C1562 0.929 . S
C1554 H1548 0.930 . S
C1554 C1555 1.367 . S
C1554 C1562 1.378 . S
C1555 C1554 1.367 . S
C1555 C1563 1.433 . S
C1556 H1552 0.929 . S
C1556 C1558 1.378 . S
C1556 C1560 1.350 . S
C1557 C1560 1.463 . S
C1557 C1562 1.350 . S
C1557 N1565 1.427 . S
C1558 H1549 0.930 . S
C1558 C1556 1.378 . S
C1558 C1559 1.367 . S
C1559 C1558 1.367 . S
C1559 C1561 1.433 . S
C1560 C1556 1.350 . S
C1560 C1557 1.463 . S
C1560 N1564 1.427 . S
C1561 H1551 0.929 . S
C1561 C1559 1.433 . S
C1561 N1564 1.384 . S
C1562 H1553 0.929 . S
C1562 C1554 1.378 . S
C1562 C1557 1.350 . S
C1563 H1550 0.929 . S
C1563 C1555 1.433 . S
C1563 N1565 1.384 . S
N1564 C1560 1.427 . S
N1564 C1561 1.384 . S
N1565 C1557 1.427 . S
N1565 C1563 1.384 . S
H1566 C1572 0.930 . S
H1567 C1576 0.930 . S
H1568 C1581 0.929 . S
H1569 C1579 0.929 . S
H1570 C1574 0.929 . S
H1571 C1580 0.929 . S
C1572 H1566 0.930 . S
C1572 C1573 1.367 . S
C1572 C1580 1.378 . S
C1573 C1572 1.367 . S
C1573 C1581 1.433 1_554 S
C1574 H1570 0.929 . S
C1574 C1576 1.378 . S
C1574 C1578 1.350 1_556 S
C1575 C1578 1.463 . S
C1575 C1580 1.350 . S
C1575 N1583 1.427 1_554 S
C1576 H1567 0.930 . S
C1576 C1574 1.378 . S
C1576 C1577 1.367 1_556 S
C1577 C1576 1.367 1_554 S
C1577 C1579 1.433 . S
C1578 C1574 1.350 1_554 S
C1578 C1575 1.463 . S
C1578 N1582 1.427 . S
C1579 H1569 0.929 . S
C1579 C1577 1.433 . S
C1579 N1582 1.384 . S
C1580 H1571 0.929 . S
C1580 C1572 1.378 . S
C1580 C1575 1.350 . S
C1581 H1568 0.929 . S
C1581 C1573 1.433 1_556 S
C1581 N1583 1.384 . S
N1582 C1578 1.427 . S
N1582 C1579 1.384 . S
N1583 C1575 1.427 1_556 S
N1583 C1581 1.384 . S
H1584 C1590 0.930 . S
H1585 C1594 0.930 . S
H1586 C1599 0.929 . S
H1587 C1597 0.929 . S
H1588 C1592 0.929 . S
H1589 C1598 0.929 . S
C1590 H1584 0.930 . S
C1590 C1591 1.367 . S
C1590 C1598 1.378 . S
C1591 C1590 1.367 . S
C1591 C1599 1.433 . S
C1592 H1588 0.929 . S
C1592 C1594 1.378 . S
C1592 C1596 1.350 . S
C1593 C1596 1.463 . S
C1593 C1598 1.350 . S
C1593 N1601 1.427 . S
C1594 H1585 0.930 . S
C1594 C1592 1.378 . S
C1594 C1595 1.367 . S
C1595 C1594 1.367 . S
C1595 C1597 1.433 . S
C1596 C1592 1.350 . S
C1596 C1593 1.463 . S
C1596 N1600 1.427 . S
C1597 H1587 0.929 . S
C1597 C1595 1.433 . S
C1597 N1600 1.384 . S
C1598 H1589 0.929 . S
C1598 C1590 1.378 . S
C1598 C1593 1.350 . S
C1599 H1586 0.929 . S
C1599 C1591 1.433 . S
C1599 N1601 1.384 . S
N1600 C1596 1.427 . S
N1600 C1597 1.384 . S
N1601 C1593 1.427 . S
N1601 C1599 1.384 . S
H1602 C1608 0.930 . S
H1603 C1612 0.930 . S
H1604 C1617 0.929 . S
H1605 C1615 0.929 1_455 S
H1606 C1610 0.929 . S
H1607 C1616 0.929 . S
C1608 H1602 0.930 . S
C1608 C1609 1.367 1_455 S
C1608 C1616 1.378 . S
C1609 C1608 1.367 1_655 S
C1609 C1617 1.433 . S
C1610 H1606 0.929 . S
C1610 C1612 1.378 . S
C1610 C1614 1.350 . S
C1611 C1614 1.463 . S
C1611 C1616 1.350 1_655 S
C1611 N1619 1.427 . S
C1612 H1603 0.930 . S
C1612 C1610 1.378 . S
C1612 C1613 1.367 . S
C1613 C1612 1.367 . S
C1613 C1615 1.433 . S
C1614 C1610 1.350 . S
C1614 C1611 1.463 . S
C1614 N1618 1.427 . S
C1615 H1605 0.929 1_655 S
C1615 C1613 1.433 . S
C1615 N1618 1.384 . S
C1616 H1607 0.929 . S
C1616 C1608 1.378 . S
C1616 C1611 1.350 1_455 S
C1617 H1604 0.929 . S
C1617 C1609 1.433 . S
C1617 N1619 1.384 . S
N1618 C1614 1.427 . S
N1618 C1615 1.384 . S
N1619 C1611 1.427 . S
N1619 C1617 1.384 . S
H1620 C1626 0.930 . S
H1621 C1630 0.930 . S
H1622 C1635 0.929 . S
H1623 C1633 0.929 . S
H1624 C1628 0.929 . S
H1625 C1634 0.929 . S
C1626 H1620 0.930 . S
C1626 C1627 1.367 . S
C1626 C1634 1.378 . S
C1627 C1626 1.367 . S
C1627 C1635 1.433 . S
C1628 H1624 0.929 . S
C1628 C1630 1.378 . S
C1628 C1632 1.350 . S
C1629 C1632 1.463 . S
C1629 C1634 1.350 . S
C1629 N1637 1.427 . S
C1630 H1621 0.930 . S
C1630 C1628 1.378 . S
C1630 C1631 1.367 . S
C1631 C1630 1.367 . S
C1631 C1633 1.433 . S
C1632 C1628 1.350 . S
C1632 C1629 1.463 . S
C1632 N1636 1.427 . S
C1633 H1623 0.929 . S
C1633 C1631 1.433 . S
C1633 N1636 1.384 . S
C1634 H1625 0.929 . S
C1634 C1626 1.378 . S
C1634 C1629 1.350 . S
C1635 H1622 0.929 . S
C1635 C1627 1.433 . S
C1635 N1637 1.384 . S
N1636 C1632 1.427 . S
N1636 C1633 1.384 . S
N1637 C1629 1.427 . S
N1637 C1635 1.384 . S
H1638 C1644 0.930 . S
H1639 C1648 0.930 1_655 S
H1640 C1653 0.929 . S
H1641 C1651 0.929 . S
H1642 C1646 0.929 1_655 S
H1643 C1652 0.929 . S
C1644 H1638 0.930 . S
C1644 C1645 1.367 . S
C1644 C1652 1.378 . S
C1645 C1644 1.367 . S
C1645 C1653 1.433 1_455 S
C1646 H1642 0.929 1_455 S
C1646 C1648 1.378 . S
C1646 C1650 1.350 . S
C1647 C1650 1.463 . S
C1647 C1652 1.350 . S
C1647 N1655 1.427 1_455 S
C1648 H1639 0.930 1_455 S
C1648 C1646 1.378 . S
C1648 C1649 1.367 . S
C1649 C1648 1.367 . S
C1649 C1651 1.433 . S
C1650 C1646 1.350 . S
C1650 C1647 1.463 . S
C1650 N1654 1.427 . S
C1651 H1641 0.929 . S
C1651 C1649 1.433 . S
C1651 N1654 1.384 . S
C1652 H1643 0.929 . S
C1652 C1644 1.378 . S
C1652 C1647 1.350 . S
C1653 H1640 0.929 . S
C1653 C1645 1.433 1_655 S
C1653 N1655 1.384 . S
N1654 C1650 1.427 . S
N1654 C1651 1.384 . S
N1655 C1647 1.427 1_655 S
N1655 C1653 1.384 . S
H1656 C1662 0.930 . S
H1657 C1666 0.930 . S
H1658 C1671 0.929 . S
H1659 C1669 0.929 . S
H1660 C1664 0.929 . S
H1661 C1670 0.929 . S
C1662 H1656 0.930 . S
C1662 C1663 1.367 . S
C1662 C1670 1.378 . S
C1663 C1662 1.367 . S
C1663 C1671 1.433 . S
C1664 H1660 0.929 . S
C1664 C1666 1.378 . S
C1664 C1668 1.350 . S
C1665 C1668 1.463 . S
C1665 C1670 1.350 . S
C1665 N1673 1.427 . S
C1666 H1657 0.930 . S
C1666 C1664 1.378 . S
C1666 C1667 1.367 . S
C1667 C1666 1.367 . S
C1667 C1669 1.433 . S
C1668 C1664 1.350 . S
C1668 C1665 1.463 . S
C1668 N1672 1.427 . S
C1669 H1659 0.929 . S
C1669 C1667 1.433 . S
C1669 N1672 1.384 . S
C1670 H1661 0.929 . S
C1670 C1662 1.378 . S
C1670 C1665 1.350 . S
C1671 H1658 0.929 . S
C1671 C1663 1.433 . S
C1671 N1673 1.384 . S
N1672 C1668 1.427 . S
N1672 C1669 1.384 . S
N1673 C1665 1.427 . S
N1673 C1671 1.384 . S
H1674 C1680 0.930 . S
H1675 C1684 0.930 . S
H1676 C1689 0.929 . S
H1677 C1687 0.929 . S
H1678 C1682 0.929 . S
H1679 C1688 0.929 . S
C1680 H1674 0.930 . S
C1680 C1681 1.367 . S
C1680 C1688 1.378 . S
C1681 C1680 1.367 . S
C1681 C1689 1.433 . S
C1682 H1678 0.929 . S
C1682 C1684 1.378 . S
C1682 C1686 1.350 . S
C1683 C1686 1.463 . S
C1683 C1688 1.350 . S
C1683 N1691 1.427 . S
C1684 H1675 0.930 . S
C1684 C1682 1.378 . S
C1684 C1685 1.367 . S
C1685 C1684 1.367 . S
C1685 C1687 1.433 . S
C1686 C1682 1.350 . S
C1686 C1683 1.463 . S
C1686 N1690 1.427 . S
C1687 H1677 0.929 . S
C1687 C1685 1.433 . S
C1687 N1690 1.384 . S
C1688 H1679 0.929 . S
C1688 C1680 1.378 . S
C1688 C1683 1.350 . S
C1689 H1676 0.929 . S
C1689 C1681 1.433 . S
C1689 N1691 1.384 . S
N1690 C1686 1.427 . S
N1690 C1687 1.384 . S
N1691 C1683 1.427 . S
N1691 C1689 1.384 . S
H1692 C1698 0.930 . S
H1693 C1702 0.930 . S
H1694 C1707 0.929 . S
H1695 C1705 0.926 1_545 S
H1696 C1700 0.929 . S
H1697 C1706 0.929 . S
C1698 H1692 0.930 . S
C1698 C1699 1.367 1_545 S
C1698 C1706 1.378 . S
C1699 C1698 1.367 1_565 S
C1699 C1707 1.433 . S
C1700 H1696 0.929 . S
C1700 C1702 1.378 . S
C1700 C1704 1.350 . S
C1701 C1704 1.463 . S
C1701 C1706 1.350 1_565 S
C1701 N1709 1.427 . S
C1702 H1693 0.930 . S
C1702 C1700 1.378 . S
C1702 C1703 1.367 . S
C1703 C1702 1.367 . S
C1703 C1705 1.433 . S
C1704 C1700 1.350 . S
C1704 C1701 1.463 . S
C1704 N1708 1.427 . S
C1705 H1695 0.926 1_565 S
C1705 C1703 1.433 . S
C1705 N1708 1.384 . S
C1706 H1697 0.929 . S
C1706 C1698 1.378 . S
C1706 C1701 1.350 1_545 S
C1707 H1694 0.929 . S
C1707 C1699 1.433 . S
C1707 N1709 1.384 . S
N1708 C1704 1.427 . S
N1708 C1705 1.384 . S
N1709 C1701 1.427 . S
N1709 C1707 1.384 . S
H1710 C1716 0.930 . S
H1711 C1720 0.930 . S
H1712 C1725 0.929 . S
H1713 C1723 0.929 . S
H1714 C1718 0.929 . S
H1715 C1724 0.929 1_565 S
C1716 H1710 0.930 . S
C1716 C1717 1.367 1_565 S
C1716 C1724 1.378 1_565 S
C1717 C1716 1.367 1_545 S
C1717 C1725 1.433 . S
C1718 H1714 0.929 . S
C1718 C1720 1.378 . S
C1718 C1722 1.350 . S
C1719 C1722 1.463 . S
C1719 C1724 1.350 . S
C1719 N1727 1.427 . S
C1720 H1711 0.930 . S
C1720 C1718 1.378 . S
C1720 C1721 1.367 . S
C1721 C1720 1.367 . S
C1721 C1723 1.433 . S
C1722 C1718 1.350 . S
C1722 C1719 1.463 . S
C1722 N1726 1.427 . S
C1723 H1713 0.929 . S
C1723 C1721 1.433 . S
C1723 N1726 1.384 . S
C1724 H1715 0.929 1_545 S
C1724 C1716 1.378 1_545 S
C1724 C1719 1.350 . S
C1725 H1712 0.929 . S
C1725 C1717 1.433 . S
C1725 N1727 1.384 . S
N1726 C1722 1.427 . S
N1726 C1723 1.384 . S
N1727 C1719 1.427 . S
N1727 C1725 1.384 . S
H1728 C1734 0.930 . S
H1729 C1738 0.930 . S
H1730 C1743 0.929 . S
H1731 C1741 0.929 . S
H1732 C1736 0.929 . S
H1733 C1742 0.929 . S
C1734 H1728 0.930 . S
C1734 C1735 1.367 . S
C1734 C1742 1.378 . S
C1735 C1734 1.367 . S
C1735 C1743 1.433 . S
C1736 H1732 0.929 . S
C1736 C1738 1.378 . S
C1736 C1740 1.350 . S
C1737 C1740 1.463 . S
C1737 C1742 1.350 . S
C1737 N1745 1.427 . S
C1738 H1729 0.930 . S
C1738 C1736 1.378 . S
C1738 C1739 1.367 . S
C1739 C1738 1.367 . S
C1739 C1741 1.433 . S
C1740 C1736 1.350 . S
C1740 C1737 1.463 . S
C1740 N1744 1.427 . S
C1741 H1731 0.929 . S
C1741 C1739 1.433 . S
C1741 N1744 1.384 . S
C1742 H1733 0.929 . S
C1742 C1734 1.378 . S
C1742 C1737 1.350 . S
C1743 H1730 0.929 . S
C1743 C1735 1.433 . S
C1743 N1745 1.384 . S
N1744 C1740 1.427 . S
N1744 C1741 1.384 . S
N1745 C1737 1.427 . S
N1745 C1743 1.384 . S
H1746 C1752 0.930 1_556 S
H1747 C1756 0.930 . S
H1748 C1761 0.929 . S
H1749 C1759 0.929 . S
H1750 C1754 0.929 . S
H1751 C1760 0.929 . S
C1752 H1746 0.930 1_554 S
C1752 C1753 1.367 . S
C1752 C1760 1.378 . S
C1753 C1752 1.367 . S
C1753 C1761 1.433 . S
C1754 H1750 0.929 . S
C1754 C1756 1.378 . S
C1754 C1758 1.350 . S
C1755 C1758 1.463 . S
C1755 C1760 1.350 . S
C1755 N1763 1.427 . S
C1756 H1747 0.930 . S
C1756 C1754 1.378 . S
C1756 C1757 1.367 . S
C1757 C1756 1.367 . S
C1757 C1759 1.433 . S
C1758 C1754 1.350 . S
C1758 C1755 1.463 . S
C1758 N1762 1.427 . S
C1759 H1749 0.929 . S
C1759 C1757 1.433 . S
C1759 N1762 1.384 . S
C1760 H1751 0.929 . S
C1760 C1752 1.378 . S
C1760 C1755 1.350 . S
C1761 H1748 0.929 . S
C1761 C1753 1.433 . S
C1761 N1763 1.384 . S
N1762 C1758 1.427 . S
N1762 C1759 1.384 . S
N1763 C1755 1.427 . S
N1763 C1761 1.384 . S
H1764 C1770 0.930 . S
H1765 C1774 0.930 . S
H1766 C1779 0.929 . S
H1767 C1777 0.929 . S
H1768 C1772 0.929 . S
H1769 C1778 0.929 . S
C1770 H1764 0.930 . S
C1770 C1771 1.367 . S
C1770 C1778 1.378 . S
C1771 C1770 1.367 . S
C1771 C1779 1.433 . S
C1772 H1768 0.929 . S
C1772 C1774 1.378 . S
C1772 C1776 1.350 . S
C1773 C1776 1.463 . S
C1773 C1778 1.350 . S
C1773 N1781 1.427 . S
C1774 H1765 0.930 . S
C1774 C1772 1.378 . S
C1774 C1775 1.367 . S
C1775 C1774 1.367 . S
C1775 C1777 1.433 . S
C1776 C1772 1.350 . S
C1776 C1773 1.463 . S
C1776 N1780 1.427 . S
C1777 H1767 0.929 . S
C1777 C1775 1.433 . S
C1777 N1780 1.384 . S
C1778 H1769 0.929 . S
C1778 C1770 1.378 . S
C1778 C1773 1.350 . S
C1779 H1766 0.929 . S
C1779 C1771 1.433 . S
C1779 N1781 1.384 . S
N1780 C1776 1.427 . S
N1780 C1777 1.384 . S
N1781 C1773 1.427 . S
N1781 C1779 1.384 . S
H1782 C1788 0.930 . S
H1783 C1792 0.930 . S
H1784 C1797 0.929 . S
H1785 C1795 0.929 . S
H1786 C1790 0.929 . S
H1787 C1796 0.929 . S
C1788 H1782 0.930 . S
C1788 C1789 1.367 . S
C1788 C1796 1.378 . S
C1789 C1788 1.367 . S
C1789 C1797 1.433 1_556 S
C1790 H1786 0.929 . S
C1790 C1792 1.378 . S
C1790 C1794 1.350 1_554 S
C1791 C1794 1.463 . S
C1791 C1796 1.350 . S
C1791 N1799 1.427 1_556 S
C1792 H1783 0.930 . S
C1792 C1790 1.378 . S
C1792 C1793 1.367 1_554 S
C1793 C1792 1.367 1_556 S
C1793 C1795 1.433 . S
C1794 C1790 1.350 1_556 S
C1794 C1791 1.463 . S
C1794 N1798 1.427 . S
C1795 H1785 0.929 . S
C1795 C1793 1.433 . S
C1795 N1798 1.384 . S
C1796 H1787 0.929 . S
C1796 C1788 1.378 . S
C1796 C1791 1.350 . S
C1797 H1784 0.929 . S
C1797 C1789 1.433 1_554 S
C1797 N1799 1.384 . S
N1798 C1794 1.427 . S
N1798 C1795 1.384 . S
N1799 C1791 1.427 1_554 S
N1799 C1797 1.384 . S
H1800 C1806 0.930 . S
H1801 C1810 0.930 . S
H1802 C1815 0.929 . S
H1803 C1813 0.929 . S
H1804 C1808 0.929 . S
H1805 C1814 0.929 . S
C1806 H1800 0.930 . S
C1806 C1807 1.367 . S
C1806 C1814 1.378 . S
C1807 C1806 1.367 . S
C1807 C1815 1.433 . S
C1808 H1804 0.929 . S
C1808 C1810 1.378 . S
C1808 C1812 1.350 . S
C1809 C1812 1.463 . S
C1809 C1814 1.350 . S
C1809 N1817 1.427 . S
C1810 H1801 0.930 . S
C1810 C1808 1.378 . S
C1810 C1811 1.367 . S
C1811 C1810 1.367 . S
C1811 C1813 1.433 . S
C1812 C1808 1.350 . S
C1812 C1809 1.463 . S
C1812 N1816 1.427 . S
C1813 H1803 0.929 . S
C1813 C1811 1.433 . S
C1813 N1816 1.384 . S
C1814 H1805 0.929 . S
C1814 C1806 1.378 . S
C1814 C1809 1.350 . S
C1815 H1802 0.929 . S
C1815 C1807 1.433 . S
C1815 N1817 1.384 . S
N1816 C1812 1.427 . S
N1816 C1813 1.384 . S
N1817 C1809 1.427 . S
N1817 C1815 1.384 . S
H1818 C1824 0.930 . S
H1819 C1828 0.930 . S
H1820 C1833 0.929 . S
H1821 C1831 0.929 . S
H1822 C1826 0.929 . S
H1823 C1832 0.929 1_655 S
C1824 H1818 0.930 . S
C1824 C1825 1.367 1_655 S
C1824 C1832 1.378 1_655 S
C1825 C1824 1.367 1_455 S
C1825 C1833 1.433 . S
C1826 H1822 0.929 . S
C1826 C1828 1.378 . S
C1826 C1830 1.350 . S
C1827 C1830 1.463 . S
C1827 C1832 1.350 . S
C1827 N1835 1.427 . S
C1828 H1819 0.930 . S
C1828 C1826 1.378 . S
C1828 C1829 1.367 . S
C1829 C1828 1.367 . S
C1829 C1831 1.433 . S
C1830 C1826 1.350 . S
C1830 C1827 1.463 . S
C1830 N1834 1.427 . S
C1831 H1821 0.929 . S
C1831 C1829 1.433 . S
C1831 N1834 1.384 . S
C1832 H1823 0.929 1_455 S
C1832 C1824 1.378 1_455 S
C1832 C1827 1.350 . S
C1833 H1820 0.929 . S
C1833 C1825 1.433 . S
C1833 N1835 1.384 . S
N1834 C1830 1.427 . S
N1834 C1831 1.384 . S
N1835 C1827 1.427 . S
N1835 C1833 1.384 . S
H1836 C1842 0.930 . S
H1837 C1846 0.930 . S
H1838 C1851 0.929 . S
H1839 C1849 0.929 . S
H1840 C1844 0.929 . S
H1841 C1850 0.929 . S
C1842 H1836 0.930 . S
C1842 C1843 1.367 . S
C1842 C1850 1.378 . S
C1843 C1842 1.367 . S
C1843 C1851 1.433 . S
C1844 H1840 0.929 . S
C1844 C1846 1.378 . S
C1844 C1848 1.350 . S
C1845 C1848 1.463 . S
C1845 C1850 1.350 . S
C1845 N1853 1.427 . S
C1846 H1837 0.930 . S
C1846 C1844 1.378 . S
C1846 C1847 1.367 . S
C1847 C1846 1.367 . S
C1847 C1849 1.433 . S
C1848 C1844 1.350 . S
C1848 C1845 1.463 . S
C1848 N1852 1.427 . S
C1849 H1839 0.929 . S
C1849 C1847 1.433 . S
C1849 N1852 1.384 . S
C1850 H1841 0.929 . S
C1850 C1842 1.378 . S
C1850 C1845 1.350 . S
C1851 H1838 0.929 . S
C1851 C1843 1.433 . S
C1851 N1853 1.384 . S
N1852 C1848 1.427 . S
N1852 C1849 1.384 . S
N1853 C1845 1.427 . S
N1853 C1851 1.384 . S
H1854 C1860 0.930 . S
H1855 C1864 0.930 . S
H1856 C1869 0.929 . S
H1857 C1867 0.929 1_455 S
H1858 C1862 0.929 . S
H1859 C1868 0.929 . S
C1860 H1854 0.930 . S
C1860 C1861 1.367 1_455 S
C1860 C1868 1.378 . S
C1861 C1860 1.367 1_655 S
C1861 C1869 1.433 . S
C1862 H1858 0.929 . S
C1862 C1864 1.378 . S
C1862 C1866 1.350 . S
C1863 C1866 1.463 . S
C1863 C1868 1.350 1_655 S
C1863 N1871 1.427 . S
C1864 H1855 0.930 . S
C1864 C1862 1.378 . S
C1864 C1865 1.367 . S
C1865 C1864 1.367 . S
C1865 C1867 1.433 . S
C1866 C1862 1.350 . S
C1866 C1863 1.463 . S
C1866 N1870 1.427 . S
C1867 H1857 0.929 1_655 S
C1867 C1865 1.433 . S
C1867 N1870 1.384 . S
C1868 H1859 0.929 . S
C1868 C1860 1.378 . S
C1868 C1863 1.350 1_455 S
C1869 H1856 0.929 . S
C1869 C1861 1.433 . S
C1869 N1871 1.384 . S
N1870 C1866 1.427 . S
N1870 C1867 1.384 . S
N1871 C1863 1.427 . S
N1871 C1869 1.384 . S
C587 C571 1.578 . S
C583 C8 1.583 . S
C605 C532 1.473 . S
C601 C19 1.468 . S
C623 C558 1.229 . S
C619 C30 1.253 . S
C641 C545 1.593 1_655 S
C637 C41 1.571 1_565 S
C659 C454 1.571 . S
C655 C52 1.587 . S
C673 C63 1.579 1_556 S
C677 C467 1.588 1_565 S
C695 C428 1.480 . S
C691 C74 1.467 . S
C709 C85 1.255 . S
C713 C441 1.238 . S
C731 C519 1.573 . S
C727 C96 1.581 . S
C745 C107 1.576 1_655 S
C749 C493 1.590 1_556 S
C763 C118 1.467 . S
C767 C480 1.473 . S
C785 C506 1.240 . S
C781 C129 1.256 . S
C803 C415 1.579 . S
C799 C140 1.550 . S
C817 C151 1.417 . S
C821 C376 1.473 . S
C839 C402 1.230 . S
C835 C162 1.243 . S
C853 C173 1.544 . S
C857 C389 1.583 1_455 S
C875 C298 1.579 . S
C871 C184 1.550 . S
C893 C311 1.590 1_545 S
C889 C195 1.538 . S
C907 C206 1.422 . S
C911 C272 1.471 . S
C925 C217 1.238 . S
C929 C285 1.227 . S
C943 C228 1.561 . S
C947 C363 1.572 . S
C961 C239 1.544 . S
C965 C337 1.584 1_554 S
C983 C324 1.474 . S
C979 C250 1.421 . S
C997 C261 1.230 . S
C1001 C350 1.235 . S
C1019 C273 1.428 . S
C1015 C7 1.438 . S
C1037 C286 1.377 . S
C1033 C18 1.408 . S
C1051 C29 1.300 . S
C1055 C299 1.298 . S
C1069 C40 1.166 1_565 S
C1073 C312 1.167 . S
C1091 C325 1.423 . S
C1087 C51 1.437 . S
C1105 C62 1.166 1_556 S
C1109 C338 1.167 . S
C1127 C351 1.373 . S
C1123 C73 1.405 . S
C1145 C364 1.304 . S
C1141 C84 1.296 . S
C1163 C377 1.421 . S
C1159 C95 1.438 . S
C1177 C106 1.160 1_655 S
C1181 C390 1.169 . S
C1195 C117 1.405 . S
C1199 C403 1.366 . S
C1213 C128 1.299 . S
C1217 C416 1.302 . S
C1231 C139 1.382 . S
C1235 C429 1.425 . S
C1249 C150 1.288 . S
C1253 C442 1.363 . S
C1267 C161 1.260 . S
C1271 C455 1.299 . S
C1285 C172 1.117 . S
C1289 C468 1.168 . S
C1303 C183 1.376 . S
C1307 C481 1.417 . S
C1325 C494 1.174 . S
C1321 C194 1.129 1_556 S
C1343 C507 1.365 . S
C1339 C205 1.308 . S
C1361 C520 1.302 . S
C1357 C216 1.249 . S
C1379 C533 1.416 . S
C1375 C227 1.387 . S
C1393 C238 1.123 1_655 S
C1397 C546 1.174 . S
C1411 C249 1.313 . S
C1415 C559 1.371 . S
C1429 C260 1.257 . S
C1433 C572 1.306 . S
C1447 C5 1.331 . S
C1451 C372 1.449 . S
C1469 C411 1.478 . S
C1465 C16 1.431 . S
C1483 C27 1.267 1_545 S
C1487 C385 1.317 . S
C1505 C398 1.559 . S
C1501 C38 1.402 1_565 S
C1519 C49 1.357 . S
C1523 C268 1.459 . S
C1537 C60 1.388 1_556 S
C1541 C281 1.561 . S
C1555 C71 1.408 . S
C1559 C294 1.470 . S
C1573 C82 1.266 1_554 S
C1577 C307 1.315 . S
C1595 C320 1.446 . S
C1591 C93 1.344 . S
C1613 C346 1.556 . S
C1609 C104 1.382 1_655 S
C1627 C115 1.420 . S
C1631 C359 1.483 . S
C1645 C126 1.263 1_455 S
C1649 C333 1.311 . S
C1667 C528 1.435 . S
C1663 C137 1.234 . S
C1685 C567 1.436 . S
C1681 C148 1.218 . S
C1699 C159 1.184 . S
C1703 C541 1.282 . S
C1721 C554 1.508 . S
C1717 C170 1.233 . S
C1735 C181 1.265 . S
C1739 C424 1.419 . S
C1753 C192 1.243 . S
C1757 C437 1.516 . S
C1771 C203 1.227 . S
C1775 C450 1.433 . S
C1793 C463 1.300 . S
C1789 C214 1.172 . S
C1811 C476 1.418 . S
C1807 C225 1.259 . S
C1829 C502 1.508 . S
C1825 C236 1.234 . S
C1843 C247 1.207 . S
C1847 C515 1.441 . S
C1865 C489 1.284 . S
C1861 C258 1.188 . S
