# Generated by pormake.
# Topology pyr, (3,6)-cn, num edge types: 1
# Building blocks:
#     Node 0, Type 0, BuildingBlock: VETTIZ_charged_linker_0, # of connection points: 3
#     Node 1, Type 0, BuildingBlock: VETTIZ_charged_linker_0, # of connection points: 3
#     Node 2, Type 0, BuildingBlock: VETTIZ_charged_linker_0, # of connection points: 3
#     Node 3, Type 0, BuildingBlock: VETTIZ_charged_linker_0, # of connection points: 3
#     Node 4, Type 0, BuildingBlock: VETTIZ_charged_linker_0, # of connection points: 3
#     Node 5, Type 0, BuildingBlock: VETTIZ_charged_linker_0, # of connection points: 3
#     Node 6, Type 0, BuildingBlock: VETTIZ_charged_linker_0, # of connection points: 3
#     Node 7, Type 0, BuildingBlock: VETTIZ_charged_linker_0, # of connection points: 3
#     Node 8, Type 1, BuildingBlock: PAMTUU_clean_sbu_0, # of connection points: 6
#     Node 9, Type 1, BuildingBlock: PAMTUU_clean_sbu_0, # of connection points: 6
#     Node 10, Type 1, BuildingBlock: PAMTUU_clean_sbu_0, # of connection points: 6
#     Node 11, Type 1, BuildingBlock: PAMTUU_clean_sbu_0, # of connection points: 6
#     Edge 12, Type (0, 1), BuildingBlock: XIVTED_clean_linker_0, # of connection points: 2
#     Edge 13, Type (0, 1), BuildingBlock: XIVTED_clean_linker_0, # of connection points: 2
#     Edge 14, Type (0, 1), BuildingBlock: XIVTED_clean_linker_0, # of connection points: 2
#     Edge 15, Type (0, 1), BuildingBlock: XIVTED_clean_linker_0, # of connection points: 2
#     Edge 16, Type (0, 1), BuildingBlock: XIVTED_clean_linker_0, # of connection points: 2
#     Edge 17, Type (0, 1), BuildingBlock: XIVTED_clean_linker_0, # of connection points: 2
#     Edge 18, Type (0, 1), BuildingBlock: XIVTED_clean_linker_0, # of connection points: 2
#     Edge 19, Type (0, 1), BuildingBlock: XIVTED_clean_linker_0, # of connection points: 2
#     Edge 20, Type (0, 1), BuildingBlock: XIVTED_clean_linker_0, # of connection points: 2
#     Edge 21, Type (0, 1), BuildingBlock: XIVTED_clean_linker_0, # of connection points: 2
#     Edge 22, Type (0, 1), BuildingBlock: XIVTED_clean_linker_0, # of connection points: 2
#     Edge 23, Type (0, 1), BuildingBlock: XIVTED_clean_linker_0, # of connection points: 2
#     Edge 24, Type (0, 1), BuildingBlock: XIVTED_clean_linker_0, # of connection points: 2
#     Edge 25, Type (0, 1), BuildingBlock: XIVTED_clean_linker_0, # of connection points: 2
#     Edge 26, Type (0, 1), BuildingBlock: XIVTED_clean_linker_0, # of connection points: 2
#     Edge 27, Type (0, 1), BuildingBlock: XIVTED_clean_linker_0, # of connection points: 2
#     Edge 28, Type (0, 1), BuildingBlock: XIVTED_clean_linker_0, # of connection points: 2
#     Edge 29, Type (0, 1), BuildingBlock: XIVTED_clean_linker_0, # of connection points: 2
#     Edge 30, Type (0, 1), BuildingBlock: XIVTED_clean_linker_0, # of connection points: 2
#     Edge 31, Type (0, 1), BuildingBlock: XIVTED_clean_linker_0, # of connection points: 2
#     Edge 32, Type (0, 1), BuildingBlock: XIVTED_clean_linker_0, # of connection points: 2
#     Edge 33, Type (0, 1), BuildingBlock: XIVTED_clean_linker_0, # of connection points: 2
#     Edge 34, Type (0, 1), BuildingBlock: XIVTED_clean_linker_0, # of connection points: 2
#     Edge 35, Type (0, 1), BuildingBlock: XIVTED_clean_linker_0, # of connection points: 2
# Relax obj value: 0.087
# Max RMSD: 0.125
# Mean RMSD: 0.052
data_MOF--net-pyr--node1-PAMTUU_clean_sbu_0--node2-VETTIZ_charged_linker_0--edge1-XIVTED_clean_linker_0
_symmetry_space_group_name_H-M    P1
_symmetry_Int_Tables_number       1
_symmetry_cell_setting            triclinic
loop_
_symmetry_equiv_pos_as_xyz
'x, y, z'
_cell_length_a     46.517792
_cell_length_b     47.506622
_cell_length_c     45.702233
_cell_angle_alpha  90.108624
_cell_angle_beta   89.428796
_cell_angle_gamma 99.963468
loop_
_atom_site_label
_atom_site_type_symbol
_atom_site_fract_x
_atom_site_fract_y
_atom_site_fract_z
_atom_type_partial_charge
C0 C 0.31562 0.24061 0.33209 0.0
C1 C 0.28948 0.24447 0.34613 0.0
C2 C 0.27219 0.26242 0.33279 0.0
C3 C 0.30391 0.2675 0.2901 0.0
C4 C 0.32204 0.25172 0.30396 0.0
C5 C 0.34576 0.24486 0.28395 0.0
H6 H 0.39412 0.2334 0.14603 0.0
C7 C 0.31404 0.27198 0.25946 0.0
C8 C 0.33859 0.25883 0.25569 0.0
H9 H 0.4228 0.19773 0.22545 0.0
H10 H 0.39385 0.22498 0.2542 0.0
H11 H 0.39384 0.29849 0.17233 0.0
H12 H 0.32762 0.22342 0.16326 0.0
H13 H 0.31386 0.25328 0.15031 0.0
H14 H 0.3451 0.24323 0.13259 0.0
H15 H 0.37734 0.28822 0.13772 0.0
H16 H 0.36114 0.31009 0.16335 0.0
C17 C 0.37547 0.25957 0.29624 0.0
C18 C 0.34226 0.21179 0.28125 0.0
C19 C 0.2516 0.31482 0.18752 0.0
C20 C 0.25361 0.31964 0.15722 0.0
C21 C 0.2787 0.31468 0.14191 0.0
C22 C 0.30077 0.30362 0.15644 0.0
C23 C 0.2976 0.29738 0.18651 0.0
C24 C 0.27377 0.30391 0.20166 0.0
C25 C 0.27415 0.29654 0.23355 0.0
C26 C 0.30202 0.28416 0.23511 0.0
C27 C 0.31538 0.28415 0.20741 0.0
C28 C 0.27631 0.32455 0.25146 0.0
C29 C 0.24661 0.27387 0.24032 0.0
C30 C 0.39427 0.23154 0.16963 0.0
C31 C 0.41039 0.21286 0.18334 0.0
C32 C 0.41069 0.21187 0.21418 0.0
C33 C 0.39352 0.22747 0.2309 0.0
C34 C 0.37541 0.24381 0.21671 0.0
C35 C 0.37673 0.2465 0.18663 0.0
C36 C 0.35529 0.26415 0.1753 0.0
C37 C 0.34004 0.27053 0.20348 0.0
C38 C 0.35183 0.25837 0.22761 0.0
C39 C 0.3726 0.29164 0.16121 0.0
C40 C 0.33434 0.24529 0.15411 0.0
H41 H 0.26474 0.28664 0.29569 0.0
H42 H 0.32984 0.22749 0.34179 0.0
H43 H 0.31938 0.20117 0.28567 0.0
H44 H 0.34687 0.20459 0.25897 0.0
H45 H 0.35642 0.20298 0.29701 0.0
H46 H 0.37407 0.28134 0.3045 0.0
H47 H 0.38229 0.24716 0.31473 0.0
H48 H 0.39299 0.26279 0.27945 0.0
H49 H 0.23286 0.31907 0.19996 0.0
H50 H 0.28076 0.31848 0.11855 0.0
H51 H 0.31907 0.29961 0.14359 0.0
H52 H 0.2899 0.34271 0.23971 0.0
H53 H 0.25441 0.33028 0.25524 0.0
H54 H 0.28719 0.32348 0.27271 0.0
H55 H 0.24061 0.25962 0.22117 0.0
H56 H 0.2498 0.25917 0.25819 0.0
H57 H 0.22753 0.28417 0.24573 0.0
H58 H 0.25186 0.26586 0.34269 0.0
C59 C 0.27947 0.27419 0.30508 0.0
C60 C 0.13724 0.82368 0.67151 0.0
C61 C 0.12262 0.84386 0.68519 0.0
C62 C 0.12444 0.84706 0.71585 0.0
C63 C 0.15682 0.81228 0.71816 0.0
C64 C 0.1542 0.80828 0.68831 0.0
C65 C 0.17274 0.78754 0.67692 0.0
H66 H 0.28191 0.71388 0.70208 0.0
C67 C 0.17731 0.79425 0.72897 0.0
C68 C 0.18639 0.77927 0.70501 0.0
H69 H 0.24191 0.72645 0.61945 0.0
H70 H 0.20522 0.74858 0.64442 0.0
H71 H 0.27869 0.77687 0.72965 0.0
H72 H 0.22535 0.69382 0.73741 0.0
H73 H 0.21817 0.71213 0.76945 0.0
H74 H 0.25459 0.70516 0.76228 0.0
H75 H 0.29022 0.74529 0.74361 0.0
H76 H 0.27266 0.7673 0.76688 0.0
C77 C 0.19571 0.80398 0.65551 0.0
C78 C 0.15249 0.76178 0.66309 0.0
C79 C 0.21751 0.80848 0.83185 0.0
C80 C 0.23789 0.79547 0.84719 0.0
C81 C 0.24544 0.77002 0.83589 0.0
C82 C 0.2358 0.75979 0.80834 0.0
C83 C 0.21851 0.77515 0.79184 0.0
C84 C 0.20787 0.79773 0.80441 0.0
C85 C 0.18726 0.80948 0.78443 0.0
C86 C 0.18927 0.79157 0.75707 0.0
C87 C 0.20845 0.77223 0.76134 0.0
C88 C 0.1994 0.84154 0.77902 0.0
C89 C 0.15629 0.80359 0.79844 0.0
C90 C 0.26518 0.72142 0.68944 0.0
C91 C 0.26506 0.71915 0.65885 0.0
C92 C 0.2425 0.72827 0.64307 0.0
C93 C 0.22146 0.74132 0.65759 0.0
C94 C 0.2232 0.74537 0.68811 0.0
C95 C 0.24423 0.73455 0.70357 0.0
C96 C 0.24289 0.7404 0.73581 0.0
C97 C 0.21826 0.75761 0.73711 0.0
C98 C 0.20706 0.76082 0.70908 0.0
C99 C 0.27261 0.75835 0.74468 0.0
C100 C 0.23501 0.71149 0.75223 0.0
H101 H 0.14231 0.83515 0.75547 0.0
H102 H 0.13598 0.82028 0.64809 0.0
H103 H 0.13181 0.7563 0.6759 0.0
H104 H 0.16215 0.74211 0.66308 0.0
H105 H 0.14673 0.76661 0.64034 0.0
H106 H 0.20364 0.82606 0.66353 0.0
H107 H 0.18626 0.80568 0.63349 0.0
H108 H 0.21553 0.79437 0.65323 0.0
H109 H 0.21063 0.82769 0.83998 0.0
H110 H 0.25989 0.75865 0.84777 0.0
H111 H 0.24324 0.74107 0.80033 0.0
H112 H 0.22324 0.84475 0.77422 0.0
H113 H 0.19603 0.85454 0.79858 0.0
H114 H 0.18949 0.85044 0.76012 0.0
H115 H 0.15383 0.78554 0.81428 0.0
H116 H 0.13907 0.79695 0.78204 0.0
H117 H 0.15145 0.82259 0.81046 0.0
H118 H 0.11374 0.86257 0.72702 0.0
C119 C 0.14128 0.83127 0.73237 0.0
C120 C 0.63198 0.26952 0.89944 0.0
C121 C 0.60571 0.25275 0.89 0.0
C122 C 0.59181 0.26261 0.86554 0.0
C123 C 0.62964 0.30517 0.86149 0.0
C124 C 0.64325 0.29534 0.88522 0.0
C125 C 0.67044 0.31545 0.8937 0.0
H126 H 0.7646 0.43993 0.87767 0.0
C127 C 0.64721 0.33331 0.85229 0.0
C128 C 0.67104 0.33923 0.87144 0.0
H129 H 0.76692 0.37141 0.93948 0.0
H130 H 0.72367 0.3447 0.91882 0.0
H131 H 0.69429 0.43794 0.88007 0.0
H132 H 0.74694 0.39659 0.82115 0.0
H133 H 0.72093 0.41068 0.80066 0.0
H134 H 0.74796 0.43455 0.82091 0.0
H135 H 0.71831 0.45754 0.85334 0.0
H136 H 0.6817 0.4408 0.84422 0.0
C137 C 0.66602 0.32591 0.92536 0.0
C138 C 0.69673 0.29961 0.88961 0.0
C139 C 0.61721 0.38932 0.76472 0.0
C140 C 0.62867 0.41631 0.75238 0.0
C141 C 0.65387 0.43229 0.76519 0.0
C142 C 0.66731 0.42193 0.78942 0.0
C143 C 0.65558 0.39516 0.80156 0.0
C144 C 0.6308 0.37934 0.78932 0.0
C145 C 0.62088 0.35177 0.80597 0.0
C146 C 0.64407 0.35335 0.82962 0.0
C147 C 0.66451 0.37896 0.82689 0.0
C148 C 0.59031 0.3526 0.8192 0.0
C149 C 0.62169 0.32647 0.78488 0.0
C150 C 0.75586 0.41911 0.88667 0.0
C151 C 0.76931 0.40829 0.91092 0.0
C152 C 0.75691 0.38096 0.9216 0.0
C153 C 0.7317 0.36518 0.90929 0.0
C154 C 0.71825 0.37639 0.88565 0.0
C155 C 0.73042 0.40281 0.87443 0.0
C156 C 0.71306 0.41072 0.84873 0.0
C157 C 0.68849 0.38483 0.8467 0.0
C158 C 0.69174 0.36493 0.86859 0.0
C159 C 0.70128 0.4383 0.8567 0.0
C160 C 0.73314 0.41353 0.82132 0.0
H161 H 0.59186 0.29478 0.83297 0.0
H162 H 0.64391 0.26272 0.91757 0.0
H163 H 0.69288 0.28383 0.87143 0.0
H164 H 0.71708 0.31407 0.88327 0.0
H165 H 0.70062 0.2878 0.90973 0.0
H166 H 0.64287 0.3281 0.92937 0.0
H167 H 0.67175 0.31062 0.94176 0.0
H168 H 0.67857 0.34738 0.92987 0.0
H169 H 0.59772 0.37653 0.75582 0.0
H170 H 0.66351 0.45289 0.75622 0.0
H171 H 0.68639 0.43529 0.79786 0.0
H172 H 0.58905 0.37431 0.82772 0.0
H173 H 0.57308 0.34715 0.80246 0.0
H174 H 0.58507 0.33814 0.83808 0.0
H175 H 0.64221 0.33005 0.77166 0.0
H176 H 0.62134 0.30605 0.79641 0.0
H177 H 0.60305 0.32399 0.76952 0.0
H178 H 0.57147 0.25057 0.85765 0.0
C179 C 0.60359 0.28855 0.8513 0.0
C180 C 0.91658 0.77548 0.37687 0.0
C181 C 0.90732 0.78848 0.4024 0.0
C182 C 0.8813 0.77527 0.41637 0.0
C183 C 0.87506 0.73653 0.38116 0.0
C184 C 0.90014 0.74945 0.36673 0.0
C185 C 0.90652 0.73208 0.34032 0.0
H186 H 0.86983 0.61143 0.25707 0.0
C187 C 0.8631 0.70961 0.36579 0.0
C188 C 0.88132 0.70669 0.34165 0.0
H189 H 0.94213 0.68074 0.24343 0.0
H190 H 0.92706 0.70535 0.28577 0.0
H191 H 0.87422 0.60915 0.32918 0.0
H192 H 0.82287 0.65171 0.2712 0.0
H193 H 0.80062 0.63826 0.30104 0.0
H194 H 0.81497 0.61378 0.27698 0.0
H195 H 0.84621 0.59012 0.30626 0.0
H196 H 0.83769 0.60339 0.34164 0.0
C197 C 0.93637 0.72272 0.34487 0.0
C198 C 0.90516 0.75044 0.31263 0.0
C199 C 0.77144 0.64779 0.40703 0.0
C200 C 0.7539 0.62203 0.39815 0.0
C201 C 0.7624 0.60855 0.37261 0.0
C202 C 0.7876 0.62036 0.35651 0.0
C203 C 0.80469 0.64618 0.36573 0.0
C204 C 0.79628 0.65944 0.39055 0.0
C205 C 0.81633 0.68707 0.39689 0.0
C206 C 0.83831 0.6883 0.3719 0.0
C207 C 0.83164 0.66423 0.35372 0.0
C208 C 0.83061 0.68406 0.427 0.0
C209 C 0.79828 0.71161 0.39506 0.0
C210 C 0.8826 0.63178 0.26332 0.0
C211 C 0.90736 0.64396 0.24672 0.0
C212 C 0.92287 0.67085 0.2555 0.0
C213 C 0.91416 0.68511 0.28026 0.0
C214 C 0.88943 0.67262 0.2966 0.0
C215 C 0.87399 0.64644 0.28785 0.0
C216 C 0.84769 0.63675 0.30718 0.0
C217 C 0.85009 0.66106 0.32923 0.0
C218 C 0.87474 0.68214 0.32309 0.0
C219 C 0.85135 0.60825 0.32182 0.0
C220 C 0.81996 0.63475 0.28827 0.0
H221 H 0.84596 0.74091 0.41808 0.0
H222 H 0.93638 0.78498 0.36544 0.0
H223 H 0.88707 0.76292 0.31449 0.0
H224 H 0.90055 0.73748 0.29262 0.0
H225 H 0.92582 0.76584 0.30942 0.0
H226 H 0.93832 0.71546 0.36778 0.0
H227 H 0.95459 0.74072 0.3406 0.0
H228 H 0.93948 0.70446 0.33098 0.0
H229 H 0.76622 0.65877 0.42663 0.0
H230 H 0.74933 0.589 0.36466 0.0
H231 H 0.79272 0.609 0.33737 0.0
H232 H 0.83509 0.662 0.4301 0.0
H233 H 0.81608 0.68854 0.44522 0.0
H234 H 0.85208 0.69798 0.42929 0.0
H235 H 0.77984 0.7063 0.37955 0.0
H236 H 0.81111 0.7317 0.38641 0.0
H237 H 0.78886 0.71583 0.41673 0.0
H238 H 0.873 0.78494 0.43545 0.0
C239 C 0.86534 0.7496 0.40605 0.0
C240 C 0.74414 0.71995 0.89859 0.0
C241 C 0.76336 0.70505 0.88352 0.0
C242 C 0.76383 0.70524 0.85269 0.0
C243 C 0.72873 0.73723 0.85242 0.0
C244 C 0.7267 0.73553 0.88255 0.0
C245 C 0.70488 0.7526 0.89469 0.0
H246 H 0.615 0.84792 0.87071 0.0
C247 C 0.70951 0.7567 0.84232 0.0
C248 C 0.69465 0.7651 0.86683 0.0
H249 H 0.63571 0.81266 0.95339 0.0
H250 H 0.66447 0.78207 0.92826 0.0
H251 H 0.60833 0.78575 0.83167 0.0
H252 H 0.67081 0.86079 0.84763 0.0
H253 H 0.68399 0.84783 0.81517 0.0
H254 H 0.64848 0.85818 0.81582 0.0
H255 H 0.60661 0.82123 0.81913 0.0
H256 H 0.62503 0.7975 0.79795 0.0
C257 C 0.68 0.73174 0.90993 0.0
C258 C 0.72132 0.77601 0.91503 0.0
C259 C 0.72633 0.80183 0.74211 0.0
C260 C 0.71476 0.82401 0.7287 0.0
C261 C 0.68874 0.83134 0.74013 0.0
C262 C 0.67651 0.81923 0.76629 0.0
C263 C 0.69039 0.79961 0.78116 0.0
C264 C 0.71384 0.78996 0.76829 0.0
C265 C 0.72531 0.7685 0.78714 0.0
C266 C 0.70653 0.76906 0.81453 0.0
C267 C 0.68644 0.78761 0.81096 0.0
C268 C 0.71937 0.73902 0.77158 0.0
C269 C 0.75803 0.77974 0.79312 0.0
C270 C 0.62514 0.83309 0.88334 0.0
C271 C 0.62303 0.83255 0.914 0.0
C272 C 0.63721 0.81352 0.92973 0.0
C273 C 0.65388 0.79583 0.91509 0.0
C274 C 0.65684 0.79756 0.88446 0.0
C275 C 0.64231 0.81577 0.86912 0.0
C276 C 0.64932 0.8163 0.83695 0.0
C277 C 0.67047 0.79533 0.83545 0.0
C278 C 0.67466 0.78428 0.86328 0.0
C279 C 0.62087 0.80477 0.82033 0.0
C280 C 0.66375 0.84725 0.82824 0.0
H281 H 0.74825 0.72101 0.81371 0.0
H282 H 0.74296 0.7197 0.92228 0.0
H283 H 0.74329 0.78479 0.90588 0.0
H284 H 0.71033 0.79469 0.91745 0.0
H285 H 0.72442 0.76725 0.93707 0.0
H286 H 0.67535 0.71106 0.89795 0.0
H287 H 0.68593 0.72708 0.93268 0.0
H288 H 0.65906 0.73972 0.91027 0.0
H289 H 0.74608 0.79542 0.73381 0.0
H290 H 0.67869 0.84758 0.72969 0.0
H291 H 0.65756 0.82665 0.77468 0.0
H292 H 0.7031 0.73836 0.7538 0.0
H293 H 0.73961 0.73371 0.76155 0.0
H294 H 0.70989 0.7216 0.78676 0.0
H295 H 0.76127 0.80243 0.80037 0.0
H296 H 0.76709 0.76789 0.81043 0.0
H297 H 0.77146 0.77854 0.77307 0.0
H298 H 0.77847 0.69394 0.84063 0.0
C299 C 0.7465 0.72113 0.83709 0.0
C300 C 0.89335 0.22392 0.39538 0.0
C301 C 0.91164 0.2057 0.3841 0.0
C302 C 0.91404 0.20266 0.35354 0.0
C303 C 0.87753 0.23256 0.34629 0.0
C304 C 0.87666 0.23723 0.3761 0.0
C305 C 0.85523 0.2564 0.38431 0.0
H306 H 0.74331 0.32137 0.34423 0.0
C307 C 0.85534 0.24685 0.33256 0.0
C308 C 0.84253 0.26136 0.35462 0.0
H309 H 0.78269 0.32169 0.42961 0.0
H310 H 0.81852 0.29514 0.41027 0.0
H311 H 0.74464 0.25854 0.33001 0.0
H312 H 0.80468 0.33481 0.30735 0.0
H313 H 0.80093 0.31284 0.27613 0.0
H314 H 0.76936 0.32536 0.2911 0.0
H315 H 0.73737 0.28188 0.30125 0.0
H316 H 0.75707 0.25294 0.29456 0.0
C317 C 0.83206 0.23966 0.40528 0.0
C318 C 0.87241 0.28436 0.3974 0.0
C319 C 0.82509 0.22158 0.22811 0.0
C320 C 0.80126 0.22677 0.21146 0.0
C321 C 0.78499 0.2474 0.22151 0.0
C322 C 0.79091 0.26089 0.24859 0.0
C323 C 0.81304 0.25342 0.26614 0.0
C324 C 0.83032 0.23477 0.25543 0.0
C325 C 0.85201 0.2284 0.2776 0.0
C326 C 0.84427 0.24566 0.30365 0.0
C327 C 0.82132 0.2601 0.29683 0.0
C328 C 0.8457 0.19578 0.28371 0.0
C329 C 0.88316 0.23979 0.2657 0.0
C330 C 0.75994 0.31626 0.35874 0.0
C331 C 0.76005 0.32368 0.38854 0.0
C332 C 0.78181 0.31593 0.40666 0.0
C333 C 0.8027 0.30063 0.39536 0.0
C334 C 0.80177 0.2928 0.36565 0.0
C335 C 0.7809 0.30104 0.34783 0.0
C336 C 0.78289 0.29072 0.31692 0.0
C337 C 0.8087 0.27524 0.31894 0.0
C338 C 0.81946 0.27617 0.34761 0.0
C339 C 0.75405 0.2701 0.31001 0.0
C340 C 0.78961 0.31716 0.29659 0.0
H341 H 0.89941 0.21232 0.31162 0.0
H342 H 0.89154 0.22717 0.41874 0.0
H343 H 0.8947 0.28961 0.38762 0.0
H344 H 0.86219 0.30318 0.39265 0.0
H345 H 0.87487 0.28248 0.42143 0.0
H346 H 0.8252 0.21734 0.39744 0.0
H347 H 0.84094 0.23866 0.42766 0.0
H348 H 0.81185 0.24874 0.40677 0.0
H349 H 0.83841 0.20629 0.22084 0.0
H350 H 0.76639 0.25183 0.2094 0.0
H351 H 0.77701 0.27553 0.25544 0.0
H352 H 0.82178 0.1879 0.28534 0.0
H353 H 0.85449 0.18377 0.26582 0.0
H354 H 0.85456 0.18973 0.30457 0.0
H355 H 0.88331 0.25822 0.25067 0.0
H356 H 0.89852 0.24819 0.28326 0.0
H357 H 0.89204 0.223 0.25334 0.0
H358 H 0.9279 0.18875 0.34426 0.0
C359 C 0.89722 0.21611 0.3346 0.0
C360 C 0.40669 0.65031 0.29601 0.0
C361 C 0.39554 0.6234 0.30879 0.0
C362 C 0.36974 0.60757 0.29689 0.0
C363 C 0.36728 0.64431 0.26033 0.0
C364 C 0.39233 0.66024 0.2719 0.0
C365 C 0.40125 0.68815 0.25552 0.0
H366 H 0.3754 0.77612 0.14387 0.0
C367 C 0.35773 0.66027 0.23516 0.0
C368 C 0.37771 0.68614 0.23216 0.0
H369 H 0.44477 0.79255 0.20715 0.0
H370 H 0.42733 0.74664 0.22988 0.0
H371 H 0.32571 0.75238 0.18979 0.0
H372 H 0.37958 0.71196 0.1322 0.0
H373 H 0.34511 0.69009 0.13196 0.0
H374 H 0.34894 0.72658 0.1194 0.0
H375 H 0.32001 0.74975 0.15105 0.0
H376 H 0.30303 0.72212 0.17581 0.0
C377 C 0.39982 0.71299 0.27707 0.0
C378 C 0.43183 0.68848 0.24188 0.0
C379 C 0.26538 0.61887 0.17761 0.0
C380 C 0.25151 0.62926 0.15344 0.0
C381 C 0.26494 0.65528 0.14057 0.0
C382 C 0.29075 0.67101 0.15172 0.0
C383 C 0.30388 0.66091 0.17621 0.0
C384 C 0.29147 0.63509 0.18862 0.0
C385 C 0.30912 0.62786 0.21437 0.0
C386 C 0.33375 0.65375 0.21545 0.0
C387 C 0.33037 0.673 0.19299 0.0
C388 C 0.28944 0.62586 0.24206 0.0
C389 C 0.3207 0.60002 0.20698 0.0
C390 C 0.3868 0.77024 0.16284 0.0
C391 C 0.41158 0.78854 0.17355 0.0
C392 C 0.42583 0.77909 0.19799 0.0
C393 C 0.41552 0.75238 0.21139 0.0
C394 C 0.39055 0.73456 0.20043 0.0
C395 C 0.37676 0.74381 0.17649 0.0
C396 C 0.35047 0.72265 0.16756 0.0
C397 C 0.35046 0.69911 0.19 0.0
C398 C 0.37401 0.70589 0.20938 0.0
C399 C 0.32328 0.73732 0.17094 0.0
C400 C 0.35599 0.7123 0.13609 0.0
H401 H 0.33626 0.60447 0.26526 0.0
H402 H 0.42644 0.6632 0.30423 0.0
H403 H 0.43329 0.66736 0.23196 0.0
H404 H 0.43691 0.70416 0.22401 0.0
H405 H 0.44906 0.6931 0.25873 0.0
H406 H 0.38001 0.70815 0.29127 0.0
H407 H 0.41919 0.71657 0.29149 0.0
H408 H 0.39814 0.73319 0.2659 0.0
H409 H 0.25587 0.59897 0.1881 0.0
H410 H 0.25549 0.66359 0.12156 0.0
H411 H 0.29938 0.69063 0.14078 0.0
H412 H 0.27558 0.64274 0.24183 0.0
H413 H 0.27471 0.60483 0.2433 0.0
H414 H 0.30198 0.62942 0.2625 0.0
H415 H 0.32698 0.59955 0.18345 0.0
H416 H 0.3407 0.59798 0.21899 0.0
H417 H 0.3038 0.5809 0.21138 0.0
H418 H 0.35997 0.58723 0.30633 0.0
C419 C 0.35573 0.61775 0.27297 0.0
C420 C 0.11516 0.26809 0.68443 0.0
C421 C 0.12611 0.25421 0.66034 0.0
C422 C 0.15097 0.26864 0.64535 0.0
C423 C 0.15444 0.30897 0.67853 0.0
C424 C 0.12978 0.29542 0.69319 0.0
C425 C 0.12198 0.3134 0.71856 0.0
H426 H 0.15509 0.43547 0.80034 0.0
C427 C 0.165 0.33671 0.69305 0.0
C428 C 0.14614 0.33967 0.71665 0.0
H429 H 0.08206 0.3664 0.81209 0.0
H430 H 0.09829 0.34173 0.77051 0.0
H431 H 0.15062 0.438 0.72901 0.0
H432 H 0.20302 0.39551 0.78593 0.0
H433 H 0.22524 0.4113 0.75696 0.0
H434 H 0.20905 0.43368 0.78187 0.0
H435 H 0.17968 0.45729 0.75048 0.0
H436 H 0.1865 0.44305 0.71499 0.0
C437 C 0.09157 0.32106 0.71274 0.0
C438 C 0.12364 0.29645 0.74716 0.0
C439 C 0.25733 0.39864 0.65369 0.0
C440 C 0.2739 0.42501 0.66214 0.0
C441 C 0.26384 0.43953 0.68617 0.0
C442 C 0.23818 0.42779 0.70161 0.0
C443 C 0.22217 0.40117 0.69305 0.0
C444 C 0.2319 0.38723 0.66933 0.0
C445 C 0.21254 0.35918 0.66314 0.0
C446 C 0.18954 0.35834 0.68709 0.0
C447 C 0.19512 0.38295 0.70464 0.0
C448 C 0.19942 0.36096 0.63225 0.0
C449 C 0.23098 0.33515 0.66687 0.0
C450 C 0.14234 0.41519 0.79389 0.0
C451 C 0.11719 0.40304 0.80998 0.0
C452 C 0.10174 0.37626 0.80069 0.0
C453 C 0.1111 0.36194 0.77629 0.0
C454 C 0.13632 0.3743 0.76066 0.0
C455 C 0.15143 0.40058 0.76954 0.0
C456 C 0.1778 0.41058 0.75042 0.0
C457 C 0.17604 0.38616 0.72858 0.0
C458 C 0.15165 0.36474 0.73461 0.0
C459 C 0.17375 0.43882 0.73547 0.0
C460 C 0.20535 0.41316 0.76964 0.0
H461 H 0.18384 0.3051 0.6417 0.0
H462 H 0.0961 0.25774 0.69647 0.0
H463 H 0.14308 0.28571 0.74677 0.0
H464 H 0.12615 0.31018 0.76677 0.0
H465 H 0.10397 0.27969 0.75001 0.0
H466 H 0.08939 0.32637 0.68926 0.0
H467 H 0.07396 0.30284 0.71823 0.0
H468 H 0.08768 0.34013 0.72493 0.0
H469 H 0.26389 0.38701 0.63509 0.0
H470 H 0.27613 0.45974 0.69345 0.0
H471 H 0.2319 0.4398 0.7198 0.0
H472 H 0.19603 0.38308 0.62733 0.0
H473 H 0.2141 0.35473 0.615 0.0
H474 H 0.17753 0.34773 0.63009 0.0
H475 H 0.24771 0.34074 0.68414 0.0
H476 H 0.21793 0.3147 0.67429 0.0
H477 H 0.24263 0.33152 0.64625 0.0
H478 H 0.15955 0.25907 0.62637 0.0
C479 C 0.16505 0.29567 0.65422 0.0
Tb480 Tb 0.04461 0.02522 0.512 0.0
Tb481 Tb 0.98452 1.01868 0.55121 0.0
C482 C 0.99168 0.97459 0.5015 0.0
C483 C 0.11485 0.05491 0.47558 0.0
C484 C 0.16034 0.10027 0.46167 0.0
C485 C 0.15765 0.07403 0.44668 0.0
C486 C 0.13514 0.05156 0.45364 0.0
C487 C 0.11727 0.08097 0.49065 0.0
C488 C 0.13988 0.10349 0.48377 0.0
C489 C 0.09139 0.03105 0.48256 0.0
O490 O 0.02477 0.06163 0.5005 0.0
O491 O 0.97798 0.0403 0.51056 0.0
O492 O 1.00886 0.06069 0.56225 0.0
O493 O 0.05496 0.05357 0.54979 0.0
O494 O 0.939 1.01503 0.5505 0.0
O495 O 0.96217 1.01848 0.59144 0.0
O496 O 0.01397 0.99697 0.57622 0.0
O497 O 0.04356 0.98737 0.53836 0.0
O498 O 1.0121 0.99383 0.48925 0.0
O499 O 0.98175 0.97826 0.52804 0.0
C500 C 0.99663 0.06064 0.49802 0.0
O501 O 0.08923 0.02336 0.50996 0.0
O502 O 0.06599 0.03234 0.4713 0.0
C503 C 0.03735 0.06822 0.56359 0.0
C504 C 0.91345 0.9934 0.59128 0.0
C505 C 0.86721 0.95346 0.61467 0.0
C506 C 0.86245 0.98029 0.60487 0.0
C507 C 0.88537 1.00006 0.59338 0.0
C508 C 0.9184 0.96646 0.60034 0.0
C509 C 0.89539 0.9466 0.61204 0.0
C510 C 0.93674 1.01491 0.57889 0.0
C511 C 0.0338 0.98317 0.56527 0.0
H512 H 0.17261 0.071 0.4291 0.0
H513 H 0.13345 0.03159 0.44174 0.0
H514 H 0.10169 0.08386 0.50771 0.0
H515 H 0.14142 0.12333 0.49584 0.0
H516 H 0.84093 0.98605 0.60602 0.0
H517 H 0.88115 1.02065 0.5861 0.0
H518 H 0.93998 0.96089 0.59857 0.0
H519 H 0.8998 0.92618 0.61957 0.0
Tb520 Tb 0.53691 0.02901 0.05634 0.0
Tb521 Tb 0.47801 1.01831 1.01615 0.0
C522 C 0.53054 0.98809 1.00307 0.0
C523 C 0.61108 0.05822 0.08595 0.0
C524 C 0.66513 0.09495 0.09306 0.0
C525 C 0.66389 0.06529 0.08987 0.0
C526 C 0.6371 0.04712 0.08654 0.0
C527 C 0.61239 0.08798 0.08721 0.0
C528 C 0.63913 0.10613 0.09083 0.0
C529 C 0.5829 0.03843 0.08636 0.0
O530 O 0.54077 0.06736 1.02928 0.0
O531 O 0.50889 0.05081 0.99233 0.0
O532 O 0.47774 0.0565 0.04174 0.0
O533 O 0.50193 0.04335 0.08104 0.0
O534 O 0.45763 1.00958 0.9756 0.0
O535 O 0.43288 1.01748 1.01418 0.0
O536 O 0.46811 0.98837 0.05305 0.0
O537 O 0.51433 0.98689 0.06992 0.0
O538 O 0.54722 1.01008 1.01507 0.0
O539 O 0.5021 0.98452 1.00565 0.0
C540 C 0.52993 0.0702 1.00313 0.0
O541 O 0.55966 0.04939 0.09197 0.0
O542 O 0.57848 1.01947 0.06556 0.0
C543 C 0.48443 0.059 0.06943 0.0
C544 C 0.40965 0.98448 0.98011 0.0
C545 C 0.36763 0.93654 0.96576 0.0
C546 C 0.36464 0.96399 0.95613 0.0
C547 C 0.38551 0.98776 0.96326 0.0
C548 C 0.41254 0.95729 0.99032 0.0
C549 C 0.39168 0.93347 0.98316 0.0
C550 C 0.4317 1.00952 0.98683 0.0
C551 C 0.48627 0.9763 0.06887 0.0
H552 H 0.68352 0.05599 0.0909 0.0
H553 H 0.63663 0.02426 0.0854 0.0
H554 H 0.59269 0.09722 0.0866 0.0
H555 H 0.63911 0.12878 0.0935 0.0
H556 H 0.34664 0.96703 0.94232 0.0
H557 H 0.38301 1.00865 0.95528 0.0
H558 H 0.43104 0.9545 1.00357 0.0
H559 H 0.39446 0.91265 0.99111 0.0
Tb560 Tb 0.51349 0.49188 0.51289 0.0
Tb561 Tb 0.51504 0.55212 0.54819 0.0
C562 C 0.48707 0.54263 0.48502 0.0
C563 C 0.53959 0.43122 0.4779 0.0
C564 C 0.58814 0.40662 0.46093 0.0
C565 C 0.56356 0.40433 0.44284 0.0
C566 C 0.53945 0.4165 0.4513 0.0
C567 C 0.56398 0.43332 0.49616 0.0
C568 C 0.58797 0.42097 0.48784 0.0
C569 C 0.51524 0.44605 0.48542 0.0
O570 O 0.55202 0.52038 0.49654 0.0
O571 O 0.55994 0.55447 0.53277 0.0
O572 O 0.5291 0.52273 0.57988 0.0
O573 O 0.54349 0.48946 0.54909 0.0
O574 O 0.52333 0.59703 0.54949 0.0
O575 O 0.50624 0.57243 0.58727 0.0
O576 O 0.46972 0.53045 0.54957 0.0
O577 O 0.47705 0.48438 0.54382 0.0
O578 O 0.48399 0.51474 0.48869 0.0
O579 O 0.5024 0.56037 0.50346 0.0
C580 C 0.56855 0.54215 0.5092 0.0
O581 O 0.50861 0.4471 0.51311 0.0
O582 O 0.51605 0.4707 0.47276 0.0
C583 C 0.54239 0.50074 0.57533 0.0
C584 C 0.48793 0.61432 0.57834 0.0
C585 C 0.43981 0.64231 0.58733 0.0
C586 C 0.46381 0.64701 0.60638 0.0
C587 C 0.48763 0.63313 0.60189 0.0
C588 C 0.46432 0.60982 0.55899 0.0
C589 C 0.44052 0.62377 0.56338 0.0
C590 C 0.51165 0.59772 0.57545 0.0
C591 C 0.46087 0.50284 0.55276 0.0
H592 H 0.563 0.39319 0.42209 0.0
H593 H 0.52092 0.41485 0.43684 0.0
H594 H 0.56475 0.44498 0.51662 0.0
H595 H 0.60673 0.42338 0.50206 0.0
H596 H 0.46382 0.66071 0.62534 0.0
H597 H 0.50551 0.63653 0.61724 0.0
H598 H 0.46408 0.59513 0.54079 0.0
H599 H 0.42262 0.6199 0.54811 0.0
Tb600 Tb 1.01219 0.5481 1.012 0.0
Tb601 Tb 1.00975 0.48974 0.04975 0.0
C602 C 0.03989 0.49735 0.98689 0.0
C603 C 0.98351 0.60479 0.97551 0.0
C604 C 0.93319 0.6269 0.96096 0.0
C605 C 0.96111 0.64326 0.95631 0.0
C606 C 0.98615 0.63222 0.9635 0.0
C607 C 0.9557 0.58863 0.9806 0.0
C608 C 0.93077 0.59953 0.9733 0.0
C609 C 1.0094 0.59287 0.9834 0.0
O610 O 0.97585 0.51751 0.99481 0.0
O611 O 0.96492 0.48867 0.03483 0.0
O612 O 0.9962 0.52033 0.08035 0.0
O613 O 0.98094 0.55095 0.04761 0.0
O614 O 0.99903 0.44497 0.05185 0.0
O615 O 0.01783 0.46941 0.08882 0.0
O616 O 0.05517 0.51164 0.05253 0.0
O617 O 0.04829 0.55724 0.04251 0.0
O618 O 0.0431 0.52533 0.98951 0.0
O619 O 0.02376 0.48036 1.00562 0.0
C620 C 0.95775 0.49803 1.00927 0.0
O621 O 0.01469 0.59269 1.0113 0.0
O622 O 1.01126 0.56839 0.97133 0.0
C623 C 0.98241 0.54154 0.07453 0.0
C624 C 0.03367 0.42625 0.07945 0.0
C625 C 0.08034 0.39629 0.08668 0.0
C626 C 0.05666 0.39253 0.10657 0.0
C627 C 0.03352 0.40742 0.10296 0.0
C628 C 0.05686 0.42963 0.05916 0.0
C629 C 0.07994 0.4147 0.06267 0.0
C630 C 1.01097 0.44405 0.07741 0.0
C631 C 0.06405 0.53948 0.05357 0.0
H632 H 0.96358 0.66435 0.94663 0.0
H633 H 1.00749 0.64499 0.95961 0.0
H634 H 0.95327 0.56752 0.99024 0.0
H635 H 0.90957 0.5866 0.97751 0.0
H636 H 0.05647 0.37888 0.12554 0.0
H637 H 0.01593 0.40483 0.11898 0.0
H638 H 0.0574 0.44429 0.04094 0.0
H639 H 0.09763 0.41783 0.04678 0.0
H640 H 0.29677 0.18954 0.35816 0.0
H641 H 0.1569 0.15728 0.45715 0.0
H642 H 0.25471 0.25728 0.39217 0.0
H643 H 0.2172 0.09826 0.44686 0.0
H644 H 0.19384 0.19527 0.4369 0.0
H645 H 0.27049 0.15721 0.3939 0.0
C646 C 0.28266 0.19801 0.37358 0.0
C647 C 0.27784 0.22637 0.37166 0.0
C648 C 0.19914 0.1741 0.43954 0.0
C649 C 0.24648 0.18859 0.41219 0.0
C650 C 0.17807 0.15239 0.45117 0.0
C651 C 0.18374 0.12436 0.45321 0.0
C652 C 0.22592 0.16767 0.42958 0.0
C653 C 0.21154 0.11933 0.4449 0.0
C654 C 0.26734 0.17927 0.39393 0.0
C655 C 0.25858 0.23547 0.39212 0.0
N656 N 0.23141 0.14065 0.43306 0.0
N657 N 0.24316 0.21649 0.41114 0.0
H658 H 0.21818 0.82871 0.89036 0.0
H659 H 0.37987 0.88516 0.94702 0.0
H660 H 0.29525 0.79695 0.86111 0.0
H661 H 0.30793 0.93011 0.96174 0.0
H662 H 0.34624 0.84588 0.92514 0.0
H663 H 0.24821 0.85946 0.9255 0.0
C664 C 0.24125 0.82787 0.89148 0.0
C665 C 0.25412 0.81032 0.87235 0.0
C666 C 0.33773 0.86419 0.93344 0.0
C667 C 0.28846 0.8452 0.9128 0.0
C668 C 0.3569 0.88656 0.94614 0.0
C669 C 0.34676 0.91113 0.95591 0.0
C670 C 0.30818 0.86637 0.9304 0.0
C671 C 0.31677 0.91181 0.95392 0.0
C672 C 0.25834 0.84536 0.91164 0.0
C673 C 0.28407 0.80975 0.87543 0.0
N674 N 0.29855 0.88988 0.94113 0.0
N675 N 0.30018 0.8271 0.895 0.0
H676 H 0.61871 0.47122 0.74417 0.0
H677 H 0.56203 0.44903 0.57864 0.0
H678 H 0.6067 0.38913 0.7014 0.0
H679 H 0.55313 0.52282 0.63082 0.0
H680 H 0.58197 0.42793 0.62138 0.0
H681 H 0.59826 0.49133 0.70145 0.0
C682 C 0.61184 0.45735 0.72578 0.0
C683 C 0.61466 0.42832 0.72661 0.0
C684 C 0.57567 0.44874 0.62347 0.0
C685 C 0.59106 0.45155 0.67698 0.0
C686 C 0.56439 0.46094 0.59896 0.0
C687 C 0.55579 0.48792 0.60086 0.0
C688 C 0.57885 0.46366 0.65022 0.0
C689 C 0.55933 0.50204 0.62807 0.0
C690 C 0.6 0.46889 0.70134 0.0
C691 C 0.60487 0.41153 0.70202 0.0
N692 N 0.57062 0.48988 0.65143 0.0
N693 N 0.59379 0.42338 0.67824 0.0
H694 H 0.92666 0.66643 0.19296 0.0
H695 H 0.97076 0.52177 0.13066 0.0
H696 H 0.91037 0.58678 0.24037 0.0
H697 H 0.96376 0.59369 0.07535 0.0
H698 H 0.95145 0.54611 0.17176 0.0
H699 H 0.94328 0.64136 0.15074 0.0
C700 C 0.92664 0.64368 0.19458 0.0
C701 C 0.91707 0.62879 0.22046 0.0
C702 C 0.95398 0.55654 0.15062 0.0
C703 C 0.93625 0.59982 0.1719 0.0
C704 C 0.96507 0.54264 0.12705 0.0
C705 C 0.96894 0.55558 0.09929 0.0
C706 C 0.94701 0.58393 0.14677 0.0
C707 C 0.96107 0.58273 0.0962 0.0
C708 C 0.93598 0.62934 0.17034 0.0
C709 C 0.91727 0.5992 0.22092 0.0
N710 N 0.95075 0.59604 0.11962 0.0
N711 N 0.92687 0.58581 0.19721 0.0
H712 H 0.46185 0.19281 0.19299 0.0
H713 H 0.44094 0.08787 0.05504 0.0
H714 H 0.38891 0.18458 0.13395 0.0
H715 H 0.50292 0.08086 0.1232 0.0
H716 H 0.42445 0.12629 0.08209 0.0
H717 H 0.48025 0.15492 0.16593 0.0
C718 C 0.44977 0.1832 0.17431 0.0
C719 C 0.4238 0.19207 0.16574 0.0
C720 C 0.44159 0.11634 0.09126 0.0
C721 C 0.44483 0.14886 0.13468 0.0
C722 C 0.45104 0.09435 0.0758 0.0
C723 C 0.47333 0.08108 0.0869 0.0
C724 C 0.45461 0.1254 0.11801 0.0
C725 C 0.48555 0.0904 0.11395 0.0
C726 C 0.46031 0.16159 0.1589 0.0
C727 C 0.4093 0.17901 0.14112 0.0
N728 N 0.4761 0.11212 0.12857 0.0
N729 N 0.41999 0.15811 0.12656 0.0
H730 H 0.07145 0.86357 0.69807 0.0
H731 H 0.07708 0.95386 0.55005 0.0
H732 H 0.13909 0.868 0.63197 0.0
H733 H 0.01726 0.96333 0.62084 0.0
H734 H 0.09693 0.91906 0.57877 0.0
H735 H 0.04857 0.89702 0.66929 0.0
C736 C 0.0815 0.87151 0.67755 0.0
C737 C 0.10726 0.86282 0.66745 0.0
C738 C 0.07947 0.92869 0.58814 0.0
C739 C 0.08101 0.90086 0.63435 0.0
C740 C 0.06801 0.94863 0.57168 0.0
C741 C 0.04545 0.96171 0.58304 0.0
C742 C 0.06836 0.92153 0.6163 0.0
C743 C 0.03472 0.95389 0.61125 0.0
C744 C 0.06836 0.89053 0.66111 0.0
C745 C 0.11901 0.87356 0.64048 0.0
N746 N 0.04629 0.93426 0.62696 0.0
N747 N 0.10583 0.89197 0.62497 0.0
H748 H 0.8168 0.44376 0.88566 0.0
H749 H 0.91147 0.46026 0.03289 0.0
H750 H 0.78351 0.4104 0.96945 0.0
H751 H 0.93822 0.5084 0.95436 0.0
H752 H 0.86521 0.44041 1.00936 0.0
H753 H 0.86173 0.46685 0.90972 0.0
C754 C 0.81869 0.44142 0.90909 0.0
C755 C 0.79617 0.42463 0.9253 0.0
C756 C 0.88117 0.45539 0.9973 0.0
C757 C 0.84809 0.45079 0.95306 0.0
C758 C 0.90768 0.46673 1.01075 0.0
C759 C 0.92901 0.48607 0.99571 0.0
C760 C 0.87584 0.46317 0.96838 0.0
C761 C 0.9226 0.49358 0.96696 0.0
C762 C 0.84452 0.45451 0.92282 0.0
C763 C 0.80034 0.42238 0.95569 0.0
N764 N 0.8968 0.48205 0.95426 0.0
N765 N 0.82569 0.43504 0.96842 0.0
H766 H 0.72965 0.56511 0.40663 0.0
H767 H 0.60267 0.59523 0.51613 0.0
H768 H 0.71607 0.6502 0.4293 0.0
H769 H 0.60002 0.5154 0.4702 0.0
H770 H 0.64817 0.6145 0.48997 0.0
H771 H 0.68565 0.54552 0.43451 0.0
C772 C 0.71748 0.57979 0.41723 0.0
C773 C 0.72695 0.60953 0.41533 0.0
C774 C 0.63765 0.59273 0.48573 0.0
C775 C 0.67657 0.58691 0.44818 0.0
C776 C 0.61176 0.58165 0.5008 0.0
C777 C 0.59734 0.55365 0.49535 0.0
C778 C 0.64953 0.5756 0.46532 0.0
C779 C 0.61018 0.53715 0.47503 0.0
C780 C 0.69238 0.56849 0.43338 0.0
C781 C 0.71026 0.62717 0.43036 0.0
N782 N 0.63547 0.54832 0.46086 0.0
N783 N 0.68607 0.61563 0.44613 0.0
H784 H 0.25518 0.36305 0.11732 0.0
H785 H 0.08095 0.34195 0.10665 0.0
H786 H 0.19599 0.29681 0.1622 0.0
H787 H 0.13836 0.4188 0.07889 0.0
H788 H 0.12356 0.32117 0.11968 0.0
H789 H 0.21312 0.37975 0.09543 0.0
C790 C 0.23335 0.35188 0.12228 0.0
C791 C 0.22894 0.3288 0.14185 0.0
C792 C 0.12682 0.34251 0.11055 0.0
C793 C 0.18098 0.3476 0.11701 0.0
C794 C 0.1025 0.35444 0.10322 0.0
C795 C 0.10602 0.3823 0.09196 0.0
C796 C 0.15494 0.35851 0.10658 0.0
C797 C 0.13455 0.39719 0.08733 0.0
C798 C 0.20941 0.36145 0.10993 0.0
C799 C 0.20027 0.31503 0.14762 0.0
N800 N 0.15791 0.38519 0.09486 0.0
N801 N 0.17739 0.3247 0.13536 0.0
H802 H 0.57428 0.2021 0.86787 0.0
H803 H 0.56796 0.11792 1.02082 0.0
H804 H 0.60787 0.24059 0.94901 0.0
H805 H 0.51783 0.08357 0.94598 0.0
H806 H 0.58539 0.16162 0.9933 0.0
H807 H 0.55544 0.15786 0.89456 0.0
C808 C 0.57763 0.20148 0.89124 0.0
C809 C 0.59308 0.22546 0.90592 0.0
C810 C 0.57058 0.14457 0.98281 0.0
C811 C 0.57179 0.17424 0.93671 0.0
C812 C 0.56063 0.11942 0.99854 0.0
C813 C 0.54126 0.09674 0.98586 0.0
C814 C 0.56144 0.14735 0.95388 0.0
C815 C 0.53266 0.10035 0.95681 0.0
C816 C 0.56695 0.17603 0.90647 0.0
C817 C 0.59684 0.22278 0.93632 0.0
N818 N 0.54282 0.12504 0.94185 0.0
N819 N 0.58646 0.19781 0.9505 0.0
H820 H 0.93555 0.83761 0.37427 0.0
H821 H 0.95798 0.92642 0.52389 0.0
H822 H 0.91747 0.8011 0.46025 0.0
H823 H 0.99972 0.96003 0.4435 0.0
H824 H 0.94028 0.88147 0.49915 0.0
H825 H 0.95772 0.88309 0.39732 0.0
C826 C 0.93648 0.83898 0.39791 0.0
C827 C 0.92408 0.81545 0.41526 0.0
C828 C 0.95334 0.89859 0.48681 0.0
C829 C 0.949 0.86759 0.44175 0.0
C830 C 0.96339 0.92446 0.50095 0.0
C831 C 0.98043 0.94728 0.48586 0.0
C832 C 0.95997 0.89522 0.45707 0.0
C833 C 0.9867 0.9431 0.45609 0.0
C834 C 0.949 0.86502 0.41105 0.0
C835 C 0.92595 0.8187 0.44584 0.0
N836 N 0.97638 0.91766 0.44264 0.0
N837 N 0.9378 0.84416 0.45796 0.0
H838 H 0.26392 0.67708 0.61717 0.0
H839 H 0.43833 0.69649 0.60751 0.0
H840 H 0.32261 0.73941 0.66643 0.0
H841 H 0.3818 0.61906 0.58066 0.0
H842 H 0.3954 0.71677 0.62125 0.0
H843 H 0.30638 0.65974 0.5956 0.0
C844 C 0.28573 0.68723 0.62318 0.0
C845 C 0.28989 0.70942 0.64379 0.0
C846 C 0.39239 0.69539 0.6122 0.0
C847 C 0.3382 0.69007 0.61926 0.0
C848 C 0.41691 0.68373 0.60447 0.0
C849 C 0.41378 0.65585 0.59324 0.0
C850 C 0.36441 0.67918 0.6086 0.0
C851 C 0.38534 0.64068 0.58907 0.0
C852 C 0.30987 0.67731 0.61102 0.0
C853 C 0.31852 0.72194 0.65092 0.0
N854 N 0.36175 0.65247 0.59691 0.0
N855 N 0.34155 0.71208 0.63872 0.0
H856 H 0.72128 0.88199 0.7232 0.0
H857 H 0.85345 0.89497 0.6083 0.0
H858 H 0.74913 0.80831 0.68381 0.0
H859 H 0.82565 0.96611 0.65269 0.0
H860 H 0.81315 0.86266 0.63204 0.0
H861 H 0.75571 0.91283 0.69227 0.0
C862 C 0.73412 0.87216 0.70756 0.0
C863 C 0.73222 0.84236 0.70627 0.0
C864 C 0.81582 0.88538 0.63638 0.0
C865 C 0.77283 0.87796 0.6713 0.0
C866 C 0.83893 0.90379 0.62303 0.0
C867 C 0.84291 0.93332 0.62845 0.0
C868 C 0.79667 0.89661 0.6553 0.0
C869 C 0.8232 0.9436 0.64744 0.0
C870 C 0.75417 0.88991 0.69011 0.0
C871 C 0.75013 0.83115 0.68593 0.0
N872 N 0.80106 0.9253 0.66017 0.0
N873 N 0.76992 0.84898 0.66943 0.0
H874 H 0.80116 0.16935 0.20613 0.0
H875 H 0.6862 0.15077 0.07693 0.0
H876 H 0.77607 0.24052 0.16008 0.0
H877 H 0.70661 0.08219 0.13052 0.0
H878 H 0.72656 0.18322 0.09944 0.0
H879 H 0.77544 0.13699 0.17025 0.0
C880 C 0.7909 0.17837 0.18807 0.0
C881 C 0.79054 0.20784 0.18647 0.0
C882 C 0.72246 0.16094 0.10585 0.0
C883 C 0.75997 0.17043 0.14563 0.0
C884 C 0.69934 0.14241 0.09312 0.0
C885 C 0.6926 0.11373 0.10213 0.0
C886 C 0.73896 0.15071 0.12773 0.0
C887 C 0.71089 0.10401 0.12268 0.0
C888 C 0.77587 0.15971 0.16768 0.0
C889 C 0.77635 0.21793 0.16265 0.0
N890 N 0.73293 0.12252 0.13501 0.0
N891 N 0.76122 0.19922 0.14342 0.0
H892 H 0.40041 0.56724 0.32022 0.0
H893 H 0.48569 0.59912 0.47235 0.0
H894 H 0.42467 0.65204 0.35601 0.0
H895 H 0.45705 0.5142 0.43848 0.0
H896 H 0.46443 0.61884 0.42985 0.0
H897 H 0.42183 0.54785 0.36262 0.0
C898 C 0.41005 0.58192 0.337 0.0
C899 C 0.41025 0.61152 0.33427 0.0
C900 C 0.46274 0.59589 0.43167 0.0
C901 C 0.43556 0.58904 0.3834 0.0
C902 C 0.47493 0.58451 0.45604 0.0
C903 C 0.47332 0.55478 0.45929 0.0
C904 C 0.44874 0.57757 0.40997 0.0
C905 C 0.45891 0.53719 0.43718 0.0
C906 C 0.4225 0.57071 0.36128 0.0
C907 C 0.42399 0.62917 0.35673 0.0
N908 N 0.44731 0.54881 0.41361 0.0
N909 N 0.43591 0.61771 0.38022 0.0
H910 H 0.11882 0.46102 0.81915 0.0
H911 H 0.04183 0.44063 0.97781 0.0
H912 H 0.09256 0.37939 0.86151 0.0
H913 H 0.06882 0.52339 0.938 0.0
H914 H 0.06136 0.41844 0.93563 0.0
H915 H 0.10193 0.48452 0.86227 0.0
C916 C 0.1097 0.44796 0.83749 0.0
C917 C 0.10714 0.41798 0.83634 0.0
C918 C 0.06314 0.44147 0.93604 0.0
C919 C 0.08737 0.44501 0.88605 0.0
C920 C 0.05195 0.45426 0.96026 0.0
C921 C 0.0535 0.48408 0.96166 0.0
C922 C 0.07607 0.45842 0.91266 0.0
C923 C 0.06709 0.50038 0.93805 0.0
C924 C 0.09989 0.46146 0.86213 0.0
C925 C 0.09465 0.40242 0.86089 0.0
N926 N 0.07771 0.48737 0.91455 0.0
N927 N 0.08531 0.41605 0.88453 0.0
H928 H 0.64293 0.86683 0.9601 0.0
H929 H 0.50405 0.94471 0.96805 0.0
H930 H 0.56967 0.84644 0.90209 0.0
H931 H 0.58734 0.98007 1.00559 0.0
H932 H 0.52572 0.90563 0.9474 0.0
H933 H 0.6203 0.9049 0.98178 0.0
C934 C 0.62186 0.87011 0.95225 0.0
C935 C 0.6081 0.8535 0.92931 0.0
C936 C 0.53927 0.92203 0.96003 0.0
C937 C 0.58232 0.89715 0.95367 0.0
C938 C 0.52694 0.94436 0.9718 0.0
C939 C 0.54395 0.96572 0.9885 0.0
C940 C 0.56871 0.92086 0.96532 0.0
C941 C 0.57348 0.96416 0.99269 0.0
C942 C 0.60913 0.89201 0.96439 0.0
C943 C 0.58105 0.85892 0.91963 0.0
N944 N 0.58488 0.94199 0.98133 0.0
N945 N 0.56902 0.88029 0.93187 0.0
H946 H 0.88823 0.17603 0.43224 0.0
H947 H 0.02718 0.10214 0.46244 0.0
H948 H 0.96743 0.194 0.38056 0.0
H949 H 0.94072 0.07103 0.49679 0.0
H950 H 1.00795 0.13995 0.43659 0.0
H951 H 0.90994 0.14226 0.46133 0.0
C952 C 0.91039 0.17323 0.42732 0.0
C953 C 0.92603 0.18781 0.40389 0.0
C954 C 0.99325 0.12481 0.44978 0.0
C955 C 0.95084 0.14877 0.43681 0.0
C956 C 1.00418 0.10323 0.46453 0.0
C957 C 0.98549 0.08327 0.48167 0.0
C958 C 0.96352 0.12661 0.45249 0.0
C959 C 0.95591 0.08577 0.48365 0.0
C960 C 0.92266 0.15371 0.44374 0.0
C961 C 0.95451 0.18296 0.39824 0.0
N962 N 0.94588 0.10706 0.46931 0.0
N963 N 0.966 0.16378 0.41453 0.0
H964 H 0.23244 0.57101 0.14488 0.0
H965 H 0.08737 0.59587 0.06176 0.0
H966 H 0.20511 0.65264 0.13452 0.0
H967 H 0.10488 0.51129 0.07951 0.0
H968 H 0.13176 0.61619 0.08723 0.0
H969 H 0.187 0.54795 0.12118 0.0
C970 C 0.21689 0.58409 0.1379 0.0
C971 C 0.22302 0.61397 0.14144 0.0
C972 C 0.12604 0.59316 0.08563 0.0
C973 C 0.17103 0.58769 0.11396 0.0
C974 C 0.10057 0.58145 0.0709 0.0
C975 C 0.09211 0.55168 0.0683 0.0
C976 C 0.14368 0.57519 0.09803 0.0
C977 C 0.11042 0.53434 0.08086 0.0
C978 C 0.191 0.5709 0.12419 0.0
C979 C 0.20191 0.62969 0.13175 0.0
N980 N 0.1353 0.54631 0.09512 0.0
N981 N 0.17719 0.61646 0.11844 0.0
H982 H 0.31536 0.3958 0.63996 0.0
H983 H 0.42096 0.53393 0.57558 0.0
H984 H 0.2962 0.48121 0.64785 0.0
H985 H 0.4358 0.44731 0.56448 0.0
H986 H 0.37551 0.51561 0.60212 0.0
H987 H 0.35969 0.4148 0.61266 0.0
C988 C 0.3203 0.41857 0.63582 0.0
C989 C 0.30166 0.43682 0.64616 0.0
C990 C 0.38868 0.50063 0.59379 0.0
C991 C 0.35313 0.45896 0.61495 0.0
C992 C 0.41465 0.51107 0.57855 0.0
C993 C 0.43239 0.49218 0.56767 0.0
C994 C 0.38031 0.47106 0.59832 0.0
C995 C 0.42298 0.46277 0.57236 0.0
C996 C 0.34583 0.42945 0.62029 0.0
C997 C 0.30989 0.46627 0.64059 0.0
N998 N 0.39774 0.4532 0.58732 0.0
N999 N 0.33492 0.47638 0.62535 0.0
H1000 H 0.77566 0.65149 0.87476 0.0
H1001 H 0.92012 0.68033 0.97036 0.0
H1002 H 0.79945 0.72694 0.92781 0.0
H1003 H 0.88573 0.59843 0.93215 0.0
H1004 H 0.87614 0.69801 0.95513 0.0
H1005 H 0.81546 0.63131 0.89637 0.0
C1006 C 0.78912 0.66363 0.89122 0.0
C1007 C 0.78443 0.69093 0.89945 0.0
C1008 C 0.87815 0.67611 0.95027 0.0
C1009 C 0.83018 0.66825 0.92397 0.0
C1010 C 0.90332 0.66611 0.95874 0.0
C1011 C 0.90658 0.63792 0.95242 0.0
C1012 C 0.85627 0.65788 0.93509 0.0
C1013 C 0.884 0.62025 0.93767 0.0
C1014 C 0.8118 0.65214 0.90357 0.0
C1015 C 0.80229 0.70575 0.92101 0.0
N1016 N 0.8599 0.63058 0.92933 0.0
N1017 N 0.82465 0.69436 0.93229 0.0
H1018 H 0.37926 0.82556 0.14799 0.0
H1019 H 0.5175 0.94365 0.10157 0.0
H1020 H 0.46837 0.81748 0.16605 0.0
H1021 H 0.42962 0.94669 0.07407 0.0
H1022 H 0.49956 0.89899 0.12741 0.0
H1023 H 0.39691 0.87078 0.12309 0.0
C1024 C 0.40257 0.83306 0.14666 0.0
C1025 C 0.42224 0.81713 0.15918 0.0
C1026 C 0.48414 0.9094 0.1158 0.0
C1027 C 0.44271 0.86985 0.13075 0.0
C1028 C 0.49437 0.93508 0.10099 0.0
C1029 C 0.47512 0.94929 0.08548 0.0
C1030 C 0.45429 0.89754 0.11538 0.0
C1031 C 0.44538 0.93673 0.08568 0.0
C1032 C 0.41263 0.85914 0.13249 0.0
C1033 C 0.45218 0.82882 0.15715 0.0
N1034 N 0.43595 0.91172 0.10033 0.0
N1035 N 0.46141 0.85427 0.14325 0.0
H1036 H 0.15354 0.21032 0.64278 0.0
H1037 H 1.00799 0.10589 0.59224 0.0
H1038 H 0.06749 0.23102 0.65458 0.0
H1039 H 0.09518 0.0912 0.57285 0.0
H1040 H 0.02872 0.14971 0.61822 0.0
H1041 H 0.13194 0.16481 0.62091 0.0
C1042 C 0.13003 0.20531 0.64082 0.0
C1043 C 0.1124 0.22492 0.65025 0.0
C1044 C 0.04332 0.13687 0.60837 0.0
C1045 C 0.08729 0.1722 0.62514 0.0
C1046 C 0.0315 0.11174 0.5935 0.0
C1047 C 0.0498 0.09461 0.5802 0.0
C1048 C 0.07375 0.14509 0.61018 0.0
C1049 C 0.08011 0.10355 0.58267 0.0
C1050 C 0.11768 0.17918 0.62833 0.0
C1051 C 0.08199 0.21669 0.64771 0.0
N1052 N 0.09105 0.12806 0.59728 0.0
N1053 N 0.07044 0.1911 0.63523 0.0
H1054 H 0.73583 0.36627 0.3632 0.0
H1055 H 0.62128 0.37576 0.49313 0.0
H1056 H 0.73115 0.31473 0.44139 0.0
H1057 H 0.61467 0.41118 0.40709 0.0
H1058 H 0.66479 0.35728 0.47683 0.0
H1059 H 0.69475 0.38718 0.38138 0.0
C1060 C 0.72618 0.35933 0.3842 0.0
C1061 C 0.73685 0.33846 0.40063 0.0
C1062 C 0.65379 0.36908 0.46153 0.0
C1063 C 0.6899 0.36263 0.42174 0.0
C1064 C 0.62904 0.3797 0.47084 0.0
C1065 C 0.61428 0.3949 0.45138 0.0
C1066 C 0.664 0.37394 0.43265 0.0
C1067 C 0.62515 0.39923 0.42269 0.0
C1068 C 0.70276 0.37135 0.3946 0.0
C1069 C 0.72386 0.33087 0.42804 0.0
N1070 N 0.64938 0.38887 0.41422 0.0
N1071 N 0.70099 0.34286 0.43768 0.0
loop_
_geom_bond_atom_site_label_1
_geom_bond_atom_site_label_2
_geom_bond_distance
_geom_bond_site_symmetry_2
_ccdc_geom_bond_type
C0 C1 1.391 . S
C0 C4 1.391 . S
C0 H42 0.948 . S
C1 C0 1.391 . S
C1 C2 1.391 . S
C2 C1 1.391 . S
C2 H58 0.947 . S
C2 C59 1.392 . S
C3 C4 1.391 . S
C3 C7 1.397 . S
C3 C59 1.419 . S
C4 C0 1.391 . S
C4 C3 1.391 . S
C4 C5 1.399 . S
C5 C4 1.399 . S
C5 C8 1.396 . S
C5 C17 1.453 . S
C5 C18 1.684 . S
H6 C30 0.948 . S
C7 C3 1.397 . S
C7 C8 1.394 . S
C7 C26 1.723 . S
C8 C5 1.396 . S
C8 C7 1.394 . S
C8 C38 1.723 . S
H9 C32 0.947 . S
H10 C33 0.948 . S
H11 C39 0.982 . S
H12 C40 0.979 . S
H13 C40 0.980 . S
H14 C40 0.983 . S
H15 C39 0.979 . S
H16 C39 0.977 . S
C17 C5 1.453 . S
C17 H46 0.982 . S
C17 H47 0.979 . S
C17 H48 0.977 . S
C18 C5 1.684 . S
C18 H43 0.979 . S
C18 H44 0.980 . S
C18 H45 0.983 . S
C19 C20 1.391 . S
C19 C24 1.391 . S
C19 H49 0.948 . S
C20 C19 1.391 . S
C20 C21 1.391 . S
C21 C20 1.391 . S
C21 C22 1.392 . S
C21 H50 0.947 . S
C22 C21 1.392 . S
C22 C23 1.419 . S
C22 H51 0.948 . S
C23 C22 1.419 . S
C23 C24 1.391 . S
C23 C27 1.397 . S
C24 C19 1.391 . S
C24 C23 1.391 . S
C24 C25 1.399 . S
C25 C24 1.399 . S
C25 C26 1.396 . S
C25 C28 1.453 . S
C25 C29 1.684 . S
C26 C7 1.723 . S
C26 C25 1.396 . S
C26 C27 1.394 . S
C27 C23 1.397 . S
C27 C26 1.394 . S
C27 C37 1.723 . S
C28 C25 1.453 . S
C28 H52 0.982 . S
C28 H53 0.979 . S
C28 H54 0.977 . S
C29 C25 1.684 . S
C29 H55 0.979 . S
C29 H56 0.980 . S
C29 H57 0.983 . S
C30 H6 0.948 . S
C30 C31 1.391 . S
C30 C35 1.391 . S
C31 C30 1.391 . S
C31 C32 1.391 . S
C32 H9 0.947 . S
C32 C31 1.391 . S
C32 C33 1.392 . S
C33 H10 0.948 . S
C33 C32 1.392 . S
C33 C34 1.419 . S
C34 C33 1.419 . S
C34 C35 1.391 . S
C34 C38 1.397 . S
C35 C30 1.391 . S
C35 C34 1.391 . S
C35 C36 1.399 . S
C36 C35 1.399 . S
C36 C37 1.396 . S
C36 C39 1.453 . S
C36 C40 1.684 . S
C37 C27 1.723 . S
C37 C36 1.396 . S
C37 C38 1.394 . S
C38 C8 1.723 . S
C38 C34 1.397 . S
C38 C37 1.394 . S
C39 H11 0.982 . S
C39 H15 0.979 . S
C39 H16 0.977 . S
C39 C36 1.453 . S
C40 H12 0.979 . S
C40 H13 0.980 . S
C40 H14 0.983 . S
C40 C36 1.684 . S
H41 C59 0.948 . S
H42 C0 0.948 . S
H43 C18 0.979 . S
H44 C18 0.980 . S
H45 C18 0.983 . S
H46 C17 0.982 . S
H47 C17 0.979 . S
H48 C17 0.977 . S
H49 C19 0.948 . S
H50 C21 0.947 . S
H51 C22 0.948 . S
H52 C28 0.982 . S
H53 C28 0.979 . S
H54 C28 0.977 . S
H55 C29 0.979 . S
H56 C29 0.980 . S
H57 C29 0.983 . S
H58 C2 0.947 . S
C59 C2 1.392 . S
C59 C3 1.419 . S
C59 H41 0.948 . S
C60 C61 1.391 . S
C60 C64 1.391 . S
C60 H102 0.948 . S
C61 C60 1.391 . S
C61 C62 1.391 . S
C62 C61 1.391 . S
C62 H118 0.947 . S
C62 C119 1.392 . S
C63 C64 1.391 . S
C63 C67 1.397 . S
C63 C119 1.419 . S
C64 C60 1.391 . S
C64 C63 1.391 . S
C64 C65 1.399 . S
C65 C64 1.399 . S
C65 C68 1.396 . S
C65 C77 1.453 . S
C65 C78 1.684 . S
H66 C90 0.948 . S
C67 C63 1.397 . S
C67 C68 1.394 . S
C67 C86 1.723 . S
C68 C65 1.396 . S
C68 C67 1.394 . S
C68 C98 1.723 . S
H69 C92 0.947 . S
H70 C93 0.948 . S
H71 C99 0.982 . S
H72 C100 0.979 . S
H73 C100 0.980 . S
H74 C100 0.983 . S
H75 C99 0.979 . S
H76 C99 0.977 . S
C77 C65 1.453 . S
C77 H106 0.982 . S
C77 H107 0.979 . S
C77 H108 0.977 . S
C78 C65 1.684 . S
C78 H103 0.979 . S
C78 H104 0.980 . S
C78 H105 0.983 . S
C79 C80 1.391 . S
C79 C84 1.391 . S
C79 H109 0.948 . S
C80 C79 1.391 . S
C80 C81 1.391 . S
C81 C80 1.391 . S
C81 C82 1.392 . S
C81 H110 0.947 . S
C82 C81 1.392 . S
C82 C83 1.419 . S
C82 H111 0.948 . S
C83 C82 1.419 . S
C83 C84 1.391 . S
C83 C87 1.397 . S
C84 C79 1.391 . S
C84 C83 1.391 . S
C84 C85 1.399 . S
C85 C84 1.399 . S
C85 C86 1.396 . S
C85 C88 1.453 . S
C85 C89 1.684 . S
C86 C67 1.723 . S
C86 C85 1.396 . S
C86 C87 1.394 . S
C87 C83 1.397 . S
C87 C86 1.394 . S
C87 C97 1.723 . S
C88 C85 1.453 . S
C88 H112 0.982 . S
C88 H113 0.979 . S
C88 H114 0.977 . S
C89 C85 1.684 . S
C89 H115 0.979 . S
C89 H116 0.980 . S
C89 H117 0.983 . S
C90 H66 0.948 . S
C90 C91 1.391 . S
C90 C95 1.391 . S
C91 C90 1.391 . S
C91 C92 1.391 . S
C92 H69 0.947 . S
C92 C91 1.391 . S
C92 C93 1.392 . S
C93 H70 0.948 . S
C93 C92 1.392 . S
C93 C94 1.419 . S
C94 C93 1.419 . S
C94 C95 1.391 . S
C94 C98 1.397 . S
C95 C90 1.391 . S
C95 C94 1.391 . S
C95 C96 1.399 . S
C96 C95 1.399 . S
C96 C97 1.396 . S
C96 C99 1.453 . S
C96 C100 1.684 . S
C97 C87 1.723 . S
C97 C96 1.396 . S
C97 C98 1.394 . S
C98 C68 1.723 . S
C98 C94 1.397 . S
C98 C97 1.394 . S
C99 H71 0.982 . S
C99 H75 0.979 . S
C99 H76 0.977 . S
C99 C96 1.453 . S
C100 H72 0.979 . S
C100 H73 0.980 . S
C100 H74 0.983 . S
C100 C96 1.684 . S
H101 C119 0.948 . S
H102 C60 0.948 . S
H103 C78 0.979 . S
H104 C78 0.980 . S
H105 C78 0.983 . S
H106 C77 0.982 . S
H107 C77 0.979 . S
H108 C77 0.977 . S
H109 C79 0.948 . S
H110 C81 0.947 . S
H111 C82 0.948 . S
H112 C88 0.982 . S
H113 C88 0.979 . S
H114 C88 0.977 . S
H115 C89 0.979 . S
H116 C89 0.980 . S
H117 C89 0.983 . S
H118 C62 0.947 . S
C119 C62 1.392 . S
C119 C63 1.419 . S
C119 H101 0.948 . S
C120 C121 1.391 . S
C120 C124 1.391 . S
C120 H162 0.948 . S
C121 C120 1.391 . S
C121 C122 1.391 . S
C122 C121 1.391 . S
C122 H178 0.947 . S
C122 C179 1.392 . S
C123 C124 1.391 . S
C123 C127 1.397 . S
C123 C179 1.419 . S
C124 C120 1.391 . S
C124 C123 1.391 . S
C124 C125 1.399 . S
C125 C124 1.399 . S
C125 C128 1.396 . S
C125 C137 1.453 . S
C125 C138 1.684 . S
H126 C150 0.948 . S
C127 C123 1.397 . S
C127 C128 1.394 . S
C127 C146 1.723 . S
C128 C125 1.396 . S
C128 C127 1.394 . S
C128 C158 1.723 . S
H129 C152 0.947 . S
H130 C153 0.948 . S
H131 C159 0.982 . S
H132 C160 0.979 . S
H133 C160 0.980 . S
H134 C160 0.983 . S
H135 C159 0.979 . S
H136 C159 0.977 . S
C137 C125 1.453 . S
C137 H166 0.982 . S
C137 H167 0.979 . S
C137 H168 0.977 . S
C138 C125 1.684 . S
C138 H163 0.979 . S
C138 H164 0.980 . S
C138 H165 0.983 . S
C139 C140 1.391 . S
C139 C144 1.391 . S
C139 H169 0.948 . S
C140 C139 1.391 . S
C140 C141 1.391 . S
C141 C140 1.391 . S
C141 C142 1.392 . S
C141 H170 0.947 . S
C142 C141 1.392 . S
C142 C143 1.419 . S
C142 H171 0.948 . S
C143 C142 1.419 . S
C143 C144 1.391 . S
C143 C147 1.397 . S
C144 C139 1.391 . S
C144 C143 1.391 . S
C144 C145 1.399 . S
C145 C144 1.399 . S
C145 C146 1.396 . S
C145 C148 1.453 . S
C145 C149 1.684 . S
C146 C127 1.723 . S
C146 C145 1.396 . S
C146 C147 1.394 . S
C147 C143 1.397 . S
C147 C146 1.394 . S
C147 C157 1.723 . S
C148 C145 1.453 . S
C148 H172 0.982 . S
C148 H173 0.979 . S
C148 H174 0.977 . S
C149 C145 1.684 . S
C149 H175 0.979 . S
C149 H176 0.980 . S
C149 H177 0.983 . S
C150 H126 0.948 . S
C150 C151 1.391 . S
C150 C155 1.391 . S
C151 C150 1.391 . S
C151 C152 1.391 . S
C152 H129 0.947 . S
C152 C151 1.391 . S
C152 C153 1.392 . S
C153 H130 0.948 . S
C153 C152 1.392 . S
C153 C154 1.419 . S
C154 C153 1.419 . S
C154 C155 1.391 . S
C154 C158 1.397 . S
C155 C150 1.391 . S
C155 C154 1.391 . S
C155 C156 1.399 . S
C156 C155 1.399 . S
C156 C157 1.396 . S
C156 C159 1.453 . S
C156 C160 1.684 . S
C157 C147 1.723 . S
C157 C156 1.396 . S
C157 C158 1.394 . S
C158 C128 1.723 . S
C158 C154 1.397 . S
C158 C157 1.394 . S
C159 H131 0.982 . S
C159 H135 0.979 . S
C159 H136 0.977 . S
C159 C156 1.453 . S
C160 H132 0.979 . S
C160 H133 0.980 . S
C160 H134 0.983 . S
C160 C156 1.684 . S
H161 C179 0.948 . S
H162 C120 0.948 . S
H163 C138 0.979 . S
H164 C138 0.980 . S
H165 C138 0.983 . S
H166 C137 0.982 . S
H167 C137 0.979 . S
H168 C137 0.977 . S
H169 C139 0.948 . S
H170 C141 0.947 . S
H171 C142 0.948 . S
H172 C148 0.982 . S
H173 C148 0.979 . S
H174 C148 0.977 . S
H175 C149 0.979 . S
H176 C149 0.980 . S
H177 C149 0.983 . S
H178 C122 0.947 . S
C179 C122 1.392 . S
C179 C123 1.419 . S
C179 H161 0.948 . S
C180 C181 1.391 . S
C180 C184 1.391 . S
C180 H222 0.948 . S
C181 C180 1.391 . S
C181 C182 1.391 . S
C182 C181 1.391 . S
C182 H238 0.947 . S
C182 C239 1.392 . S
C183 C184 1.391 . S
C183 C187 1.397 . S
C183 C239 1.419 . S
C184 C180 1.391 . S
C184 C183 1.391 . S
C184 C185 1.399 . S
C185 C184 1.399 . S
C185 C188 1.396 . S
C185 C197 1.453 . S
C185 C198 1.684 . S
H186 C210 0.948 . S
C187 C183 1.397 . S
C187 C188 1.394 . S
C187 C206 1.723 . S
C188 C185 1.396 . S
C188 C187 1.394 . S
C188 C218 1.723 . S
H189 C212 0.947 . S
H190 C213 0.948 . S
H191 C219 0.982 . S
H192 C220 0.979 . S
H193 C220 0.980 . S
H194 C220 0.983 . S
H195 C219 0.979 . S
H196 C219 0.977 . S
C197 C185 1.453 . S
C197 H226 0.982 . S
C197 H227 0.979 . S
C197 H228 0.977 . S
C198 C185 1.684 . S
C198 H223 0.979 . S
C198 H224 0.980 . S
C198 H225 0.983 . S
C199 C200 1.391 . S
C199 C204 1.391 . S
C199 H229 0.948 . S
C200 C199 1.391 . S
C200 C201 1.391 . S
C201 C200 1.391 . S
C201 C202 1.392 . S
C201 H230 0.947 . S
C202 C201 1.392 . S
C202 C203 1.419 . S
C202 H231 0.948 . S
C203 C202 1.419 . S
C203 C204 1.391 . S
C203 C207 1.397 . S
C204 C199 1.391 . S
C204 C203 1.391 . S
C204 C205 1.399 . S
C205 C204 1.399 . S
C205 C206 1.396 . S
C205 C208 1.453 . S
C205 C209 1.684 . S
C206 C187 1.723 . S
C206 C205 1.396 . S
C206 C207 1.394 . S
C207 C203 1.397 . S
C207 C206 1.394 . S
C207 C217 1.723 . S
C208 C205 1.453 . S
C208 H232 0.982 . S
C208 H233 0.979 . S
C208 H234 0.977 . S
C209 C205 1.684 . S
C209 H235 0.979 . S
C209 H236 0.980 . S
C209 H237 0.983 . S
C210 H186 0.948 . S
C210 C211 1.391 . S
C210 C215 1.391 . S
C211 C210 1.391 . S
C211 C212 1.391 . S
C212 H189 0.947 . S
C212 C211 1.391 . S
C212 C213 1.392 . S
C213 H190 0.948 . S
C213 C212 1.392 . S
C213 C214 1.419 . S
C214 C213 1.419 . S
C214 C215 1.391 . S
C214 C218 1.397 . S
C215 C210 1.391 . S
C215 C214 1.391 . S
C215 C216 1.399 . S
C216 C215 1.399 . S
C216 C217 1.396 . S
C216 C219 1.453 . S
C216 C220 1.684 . S
C217 C207 1.723 . S
C217 C216 1.396 . S
C217 C218 1.394 . S
C218 C188 1.723 . S
C218 C214 1.397 . S
C218 C217 1.394 . S
C219 H191 0.982 . S
C219 H195 0.979 . S
C219 H196 0.977 . S
C219 C216 1.453 . S
C220 H192 0.979 . S
C220 H193 0.980 . S
C220 H194 0.983 . S
C220 C216 1.684 . S
H221 C239 0.948 . S
H222 C180 0.948 . S
H223 C198 0.979 . S
H224 C198 0.980 . S
H225 C198 0.983 . S
H226 C197 0.982 . S
H227 C197 0.979 . S
H228 C197 0.977 . S
H229 C199 0.948 . S
H230 C201 0.947 . S
H231 C202 0.948 . S
H232 C208 0.982 . S
H233 C208 0.979 . S
H234 C208 0.977 . S
H235 C209 0.979 . S
H236 C209 0.980 . S
H237 C209 0.983 . S
H238 C182 0.947 . S
C239 C182 1.392 . S
C239 C183 1.419 . S
C239 H221 0.948 . S
C240 C241 1.391 . S
C240 C244 1.391 . S
C240 H282 0.948 . S
C241 C240 1.391 . S
C241 C242 1.391 . S
C242 C241 1.391 . S
C242 H298 0.947 . S
C242 C299 1.392 . S
C243 C244 1.391 . S
C243 C247 1.397 . S
C243 C299 1.419 . S
C244 C240 1.391 . S
C244 C243 1.391 . S
C244 C245 1.399 . S
C245 C244 1.399 . S
C245 C248 1.396 . S
C245 C257 1.453 . S
C245 C258 1.684 . S
H246 C270 0.948 . S
C247 C243 1.397 . S
C247 C248 1.394 . S
C247 C266 1.723 . S
C248 C245 1.396 . S
C248 C247 1.394 . S
C248 C278 1.723 . S
H249 C272 0.947 . S
H250 C273 0.948 . S
H251 C279 0.982 . S
H252 C280 0.979 . S
H253 C280 0.980 . S
H254 C280 0.983 . S
H255 C279 0.979 . S
H256 C279 0.977 . S
C257 C245 1.453 . S
C257 H286 0.982 . S
C257 H287 0.979 . S
C257 H288 0.977 . S
C258 C245 1.684 . S
C258 H283 0.979 . S
C258 H284 0.980 . S
C258 H285 0.983 . S
C259 C260 1.391 . S
C259 C264 1.391 . S
C259 H289 0.948 . S
C260 C259 1.391 . S
C260 C261 1.391 . S
C261 C260 1.391 . S
C261 C262 1.392 . S
C261 H290 0.947 . S
C262 C261 1.392 . S
C262 C263 1.419 . S
C262 H291 0.948 . S
C263 C262 1.419 . S
C263 C264 1.391 . S
C263 C267 1.397 . S
C264 C259 1.391 . S
C264 C263 1.391 . S
C264 C265 1.399 . S
C265 C264 1.399 . S
C265 C266 1.396 . S
C265 C268 1.453 . S
C265 C269 1.684 . S
C266 C247 1.723 . S
C266 C265 1.396 . S
C266 C267 1.394 . S
C267 C263 1.397 . S
C267 C266 1.394 . S
C267 C277 1.723 . S
C268 C265 1.453 . S
C268 H292 0.982 . S
C268 H293 0.979 . S
C268 H294 0.977 . S
C269 C265 1.684 . S
C269 H295 0.979 . S
C269 H296 0.980 . S
C269 H297 0.983 . S
C270 H246 0.948 . S
C270 C271 1.391 . S
C270 C275 1.391 . S
C271 C270 1.391 . S
C271 C272 1.391 . S
C272 H249 0.947 . S
C272 C271 1.391 . S
C272 C273 1.392 . S
C273 H250 0.948 . S
C273 C272 1.392 . S
C273 C274 1.419 . S
C274 C273 1.419 . S
C274 C275 1.391 . S
C274 C278 1.397 . S
C275 C270 1.391 . S
C275 C274 1.391 . S
C275 C276 1.399 . S
C276 C275 1.399 . S
C276 C277 1.396 . S
C276 C279 1.453 . S
C276 C280 1.684 . S
C277 C267 1.723 . S
C277 C276 1.396 . S
C277 C278 1.394 . S
C278 C248 1.723 . S
C278 C274 1.397 . S
C278 C277 1.394 . S
C279 H251 0.982 . S
C279 H255 0.979 . S
C279 H256 0.977 . S
C279 C276 1.453 . S
C280 H252 0.979 . S
C280 H253 0.980 . S
C280 H254 0.983 . S
C280 C276 1.684 . S
H281 C299 0.948 . S
H282 C240 0.948 . S
H283 C258 0.979 . S
H284 C258 0.980 . S
H285 C258 0.983 . S
H286 C257 0.982 . S
H287 C257 0.979 . S
H288 C257 0.977 . S
H289 C259 0.948 . S
H290 C261 0.947 . S
H291 C262 0.948 . S
H292 C268 0.982 . S
H293 C268 0.979 . S
H294 C268 0.977 . S
H295 C269 0.979 . S
H296 C269 0.980 . S
H297 C269 0.983 . S
H298 C242 0.947 . S
C299 C242 1.392 . S
C299 C243 1.419 . S
C299 H281 0.948 . S
C300 C301 1.391 . S
C300 C304 1.391 . S
C300 H342 0.948 . S
C301 C300 1.391 . S
C301 C302 1.391 . S
C302 C301 1.391 . S
C302 H358 0.947 . S
C302 C359 1.392 . S
C303 C304 1.391 . S
C303 C307 1.397 . S
C303 C359 1.419 . S
C304 C300 1.391 . S
C304 C303 1.391 . S
C304 C305 1.399 . S
C305 C304 1.399 . S
C305 C308 1.396 . S
C305 C317 1.453 . S
C305 C318 1.684 . S
H306 C330 0.948 . S
C307 C303 1.397 . S
C307 C308 1.394 . S
C307 C326 1.723 . S
C308 C305 1.396 . S
C308 C307 1.394 . S
C308 C338 1.723 . S
H309 C332 0.947 . S
H310 C333 0.948 . S
H311 C339 0.982 . S
H312 C340 0.979 . S
H313 C340 0.980 . S
H314 C340 0.983 . S
H315 C339 0.979 . S
H316 C339 0.977 . S
C317 C305 1.453 . S
C317 H346 0.982 . S
C317 H347 0.979 . S
C317 H348 0.977 . S
C318 C305 1.684 . S
C318 H343 0.979 . S
C318 H344 0.980 . S
C318 H345 0.983 . S
C319 C320 1.391 . S
C319 C324 1.391 . S
C319 H349 0.948 . S
C320 C319 1.391 . S
C320 C321 1.391 . S
C321 C320 1.391 . S
C321 C322 1.392 . S
C321 H350 0.947 . S
C322 C321 1.392 . S
C322 C323 1.419 . S
C322 H351 0.948 . S
C323 C322 1.419 . S
C323 C324 1.391 . S
C323 C327 1.397 . S
C324 C319 1.391 . S
C324 C323 1.391 . S
C324 C325 1.399 . S
C325 C324 1.399 . S
C325 C326 1.396 . S
C325 C328 1.453 . S
C325 C329 1.684 . S
C326 C307 1.723 . S
C326 C325 1.396 . S
C326 C327 1.394 . S
C327 C323 1.397 . S
C327 C326 1.394 . S
C327 C337 1.723 . S
C328 C325 1.453 . S
C328 H352 0.982 . S
C328 H353 0.979 . S
C328 H354 0.977 . S
C329 C325 1.684 . S
C329 H355 0.979 . S
C329 H356 0.980 . S
C329 H357 0.983 . S
C330 H306 0.948 . S
C330 C331 1.391 . S
C330 C335 1.391 . S
C331 C330 1.391 . S
C331 C332 1.391 . S
C332 H309 0.947 . S
C332 C331 1.391 . S
C332 C333 1.392 . S
C333 H310 0.948 . S
C333 C332 1.392 . S
C333 C334 1.419 . S
C334 C333 1.419 . S
C334 C335 1.391 . S
C334 C338 1.397 . S
C335 C330 1.391 . S
C335 C334 1.391 . S
C335 C336 1.399 . S
C336 C335 1.399 . S
C336 C337 1.396 . S
C336 C339 1.453 . S
C336 C340 1.684 . S
C337 C327 1.723 . S
C337 C336 1.396 . S
C337 C338 1.394 . S
C338 C308 1.723 . S
C338 C334 1.397 . S
C338 C337 1.394 . S
C339 H311 0.982 . S
C339 H315 0.979 . S
C339 H316 0.977 . S
C339 C336 1.453 . S
C340 H312 0.979 . S
C340 H313 0.980 . S
C340 H314 0.983 . S
C340 C336 1.684 . S
H341 C359 0.948 . S
H342 C300 0.948 . S
H343 C318 0.979 . S
H344 C318 0.980 . S
H345 C318 0.983 . S
H346 C317 0.982 . S
H347 C317 0.979 . S
H348 C317 0.977 . S
H349 C319 0.948 . S
H350 C321 0.947 . S
H351 C322 0.948 . S
H352 C328 0.982 . S
H353 C328 0.979 . S
H354 C328 0.977 . S
H355 C329 0.979 . S
H356 C329 0.980 . S
H357 C329 0.983 . S
H358 C302 0.947 . S
C359 C302 1.392 . S
C359 C303 1.419 . S
C359 H341 0.948 . S
C360 C361 1.391 . S
C360 C364 1.391 . S
C360 H402 0.948 . S
C361 C360 1.391 . S
C361 C362 1.391 . S
C362 C361 1.391 . S
C362 H418 0.947 . S
C362 C419 1.392 . S
C363 C364 1.391 . S
C363 C367 1.397 . S
C363 C419 1.419 . S
C364 C360 1.391 . S
C364 C363 1.391 . S
C364 C365 1.399 . S
C365 C364 1.399 . S
C365 C368 1.396 . S
C365 C377 1.453 . S
C365 C378 1.684 . S
H366 C390 0.948 . S
C367 C363 1.397 . S
C367 C368 1.394 . S
C367 C386 1.723 . S
C368 C365 1.396 . S
C368 C367 1.394 . S
C368 C398 1.723 . S
H369 C392 0.947 . S
H370 C393 0.948 . S
H371 C399 0.982 . S
H372 C400 0.979 . S
H373 C400 0.980 . S
H374 C400 0.983 . S
H375 C399 0.979 . S
H376 C399 0.977 . S
C377 C365 1.453 . S
C377 H406 0.982 . S
C377 H407 0.979 . S
C377 H408 0.977 . S
C378 C365 1.684 . S
C378 H403 0.979 . S
C378 H404 0.980 . S
C378 H405 0.983 . S
C379 C380 1.391 . S
C379 C384 1.391 . S
C379 H409 0.948 . S
C380 C379 1.391 . S
C380 C381 1.391 . S
C381 C380 1.391 . S
C381 C382 1.392 . S
C381 H410 0.947 . S
C382 C381 1.392 . S
C382 C383 1.419 . S
C382 H411 0.948 . S
C383 C382 1.419 . S
C383 C384 1.391 . S
C383 C387 1.397 . S
C384 C379 1.391 . S
C384 C383 1.391 . S
C384 C385 1.399 . S
C385 C384 1.399 . S
C385 C386 1.396 . S
C385 C388 1.453 . S
C385 C389 1.684 . S
C386 C367 1.723 . S
C386 C385 1.396 . S
C386 C387 1.394 . S
C387 C383 1.397 . S
C387 C386 1.394 . S
C387 C397 1.723 . S
C388 C385 1.453 . S
C388 H412 0.982 . S
C388 H413 0.979 . S
C388 H414 0.977 . S
C389 C385 1.684 . S
C389 H415 0.979 . S
C389 H416 0.980 . S
C389 H417 0.983 . S
C390 H366 0.948 . S
C390 C391 1.391 . S
C390 C395 1.391 . S
C391 C390 1.391 . S
C391 C392 1.391 . S
C392 H369 0.947 . S
C392 C391 1.391 . S
C392 C393 1.392 . S
C393 H370 0.948 . S
C393 C392 1.392 . S
C393 C394 1.419 . S
C394 C393 1.419 . S
C394 C395 1.391 . S
C394 C398 1.397 . S
C395 C390 1.391 . S
C395 C394 1.391 . S
C395 C396 1.399 . S
C396 C395 1.399 . S
C396 C397 1.396 . S
C396 C399 1.453 . S
C396 C400 1.684 . S
C397 C387 1.723 . S
C397 C396 1.396 . S
C397 C398 1.394 . S
C398 C368 1.723 . S
C398 C394 1.397 . S
C398 C397 1.394 . S
C399 H371 0.982 . S
C399 H375 0.979 . S
C399 H376 0.977 . S
C399 C396 1.453 . S
C400 H372 0.979 . S
C400 H373 0.980 . S
C400 H374 0.983 . S
C400 C396 1.684 . S
H401 C419 0.948 . S
H402 C360 0.948 . S
H403 C378 0.979 . S
H404 C378 0.980 . S
H405 C378 0.983 . S
H406 C377 0.982 . S
H407 C377 0.979 . S
H408 C377 0.977 . S
H409 C379 0.948 . S
H410 C381 0.947 . S
H411 C382 0.948 . S
H412 C388 0.982 . S
H413 C388 0.979 . S
H414 C388 0.977 . S
H415 C389 0.979 . S
H416 C389 0.980 . S
H417 C389 0.983 . S
H418 C362 0.947 . S
C419 C362 1.392 . S
C419 C363 1.419 . S
C419 H401 0.948 . S
C420 C421 1.391 . S
C420 C424 1.391 . S
C420 H462 0.948 . S
C421 C420 1.391 . S
C421 C422 1.391 . S
C422 C421 1.391 . S
C422 H478 0.947 . S
C422 C479 1.392 . S
C423 C424 1.391 . S
C423 C427 1.397 . S
C423 C479 1.419 . S
C424 C420 1.391 . S
C424 C423 1.391 . S
C424 C425 1.399 . S
C425 C424 1.399 . S
C425 C428 1.396 . S
C425 C437 1.453 . S
C425 C438 1.684 . S
H426 C450 0.948 . S
C427 C423 1.397 . S
C427 C428 1.394 . S
C427 C446 1.723 . S
C428 C425 1.396 . S
C428 C427 1.394 . S
C428 C458 1.723 . S
H429 C452 0.947 . S
H430 C453 0.948 . S
H431 C459 0.982 . S
H432 C460 0.979 . S
H433 C460 0.980 . S
H434 C460 0.983 . S
H435 C459 0.979 . S
H436 C459 0.977 . S
C437 C425 1.453 . S
C437 H466 0.982 . S
C437 H467 0.979 . S
C437 H468 0.977 . S
C438 C425 1.684 . S
C438 H463 0.979 . S
C438 H464 0.980 . S
C438 H465 0.983 . S
C439 C440 1.391 . S
C439 C444 1.391 . S
C439 H469 0.948 . S
C440 C439 1.391 . S
C440 C441 1.391 . S
C441 C440 1.391 . S
C441 C442 1.392 . S
C441 H470 0.947 . S
C442 C441 1.392 . S
C442 C443 1.419 . S
C442 H471 0.948 . S
C443 C442 1.419 . S
C443 C444 1.391 . S
C443 C447 1.397 . S
C444 C439 1.391 . S
C444 C443 1.391 . S
C444 C445 1.399 . S
C445 C444 1.399 . S
C445 C446 1.396 . S
C445 C448 1.453 . S
C445 C449 1.684 . S
C446 C427 1.723 . S
C446 C445 1.396 . S
C446 C447 1.394 . S
C447 C443 1.397 . S
C447 C446 1.394 . S
C447 C457 1.723 . S
C448 C445 1.453 . S
C448 H472 0.982 . S
C448 H473 0.979 . S
C448 H474 0.977 . S
C449 C445 1.684 . S
C449 H475 0.979 . S
C449 H476 0.980 . S
C449 H477 0.983 . S
C450 H426 0.948 . S
C450 C451 1.391 . S
C450 C455 1.391 . S
C451 C450 1.391 . S
C451 C452 1.391 . S
C452 H429 0.947 . S
C452 C451 1.391 . S
C452 C453 1.392 . S
C453 H430 0.948 . S
C453 C452 1.392 . S
C453 C454 1.419 . S
C454 C453 1.419 . S
C454 C455 1.391 . S
C454 C458 1.397 . S
C455 C450 1.391 . S
C455 C454 1.391 . S
C455 C456 1.399 . S
C456 C455 1.399 . S
C456 C457 1.396 . S
C456 C459 1.453 . S
C456 C460 1.684 . S
C457 C447 1.723 . S
C457 C456 1.396 . S
C457 C458 1.394 . S
C458 C428 1.723 . S
C458 C454 1.397 . S
C458 C457 1.394 . S
C459 H431 0.982 . S
C459 H435 0.979 . S
C459 H436 0.977 . S
C459 C456 1.453 . S
C460 H432 0.979 . S
C460 H433 0.980 . S
C460 H434 0.983 . S
C460 C456 1.684 . S
H461 C479 0.948 . S
H462 C420 0.948 . S
H463 C438 0.979 . S
H464 C438 0.980 . S
H465 C438 0.983 . S
H466 C437 0.982 . S
H467 C437 0.979 . S
H468 C437 0.977 . S
H469 C439 0.948 . S
H470 C441 0.947 . S
H471 C442 0.948 . S
H472 C448 0.982 . S
H473 C448 0.979 . S
H474 C448 0.977 . S
H475 C449 0.979 . S
H476 C449 0.980 . S
H477 C449 0.983 . S
H478 C422 0.947 . S
C479 C422 1.392 . S
C479 C423 1.419 . S
C479 H461 0.948 . S
Tb480 C489 2.764 . S
Tb480 O490 2.325 1_455 S
Tb480 O493 2.303 . S
Tb480 O497 2.322 1_545 S
Tb480 O498 2.349 1_545 S
Tb480 O501 2.415 . S
Tb480 O502 2.399 . S
Tb481 O491 2.322 1_565 S
Tb481 O492 2.349 1_565 S
Tb481 O494 2.415 . S
Tb481 O495 2.399 . S
Tb481 O496 2.325 1_655 S
Tb481 O499 2.303 . S
Tb481 C510 2.764 . S
C482 O498 1.261 1_655 S
C482 O499 1.257 . S
C483 C486 1.358 . S
C483 C487 1.332 . S
C483 C489 1.504 . S
C484 C485 1.373 . S
C484 C488 1.308 . S
C485 C484 1.373 . S
C485 C486 1.429 . S
C485 H512 0.932 . S
C486 C483 1.358 . S
C486 C485 1.429 . S
C486 H513 0.930 . S
C487 C483 1.332 . S
C487 C488 1.394 . S
C487 H514 0.932 . S
C488 C484 1.308 . S
C488 C487 1.394 . S
C488 H515 0.929 . S
C489 Tb480 2.764 . S
C489 C483 1.504 . S
C489 O501 1.239 . S
C489 O502 1.263 . S
O490 Tb480 2.325 1_655 S
O490 C500 1.236 . S
O491 Tb481 2.322 1_545 S
O491 C500 1.257 . S
O492 Tb481 2.349 1_545 S
O492 C503 1.261 1_655 S
O493 Tb480 2.303 . S
O493 C503 1.257 . S
O494 Tb481 2.415 . S
O494 C510 1.239 . S
O495 Tb481 2.399 . S
O495 C510 1.263 . S
O496 Tb481 2.325 1_455 S
O496 C511 1.236 . S
O497 Tb480 2.322 1_565 S
O497 C511 1.257 . S
O498 Tb480 2.349 1_565 S
O498 C482 1.261 1_455 S
O499 Tb481 2.303 . S
O499 C482 1.257 . S
C500 O490 1.236 . S
C500 O491 1.257 . S
O501 Tb480 2.415 . S
O501 C489 1.239 . S
O502 Tb480 2.399 . S
O502 C489 1.263 . S
C503 O492 1.261 1_455 S
C503 O493 1.257 . S
C504 C507 1.358 . S
C504 C508 1.332 . S
C504 C510 1.504 . S
C505 C506 1.373 . S
C505 C509 1.308 . S
C506 C505 1.373 . S
C506 C507 1.429 . S
C506 H516 0.932 . S
C507 C504 1.358 . S
C507 C506 1.429 . S
C507 H517 0.930 . S
C508 C504 1.332 . S
C508 C509 1.394 . S
C508 H518 0.932 . S
C509 C505 1.308 . S
C509 C508 1.394 . S
C509 H519 0.929 . S
C510 Tb481 2.764 . S
C510 O494 1.239 . S
C510 O495 1.263 . S
C510 C504 1.504 . S
C511 O496 1.236 . S
C511 O497 1.257 . S
H512 C485 0.932 . S
H513 C486 0.930 . S
H514 C487 0.932 . S
H515 C488 0.929 . S
H516 C506 0.932 . S
H517 C507 0.930 . S
H518 C508 0.932 . S
H519 C509 0.929 . S
Tb520 C529 2.764 . S
Tb520 O530 2.325 1_554 S
Tb520 O533 2.303 . S
Tb520 O537 2.322 1_545 S
Tb520 O538 2.349 1_544 S
Tb520 O541 2.415 . S
Tb520 O542 2.399 . S
Tb521 O531 2.322 1_565 S
Tb521 O532 2.349 1_566 S
Tb521 O534 2.415 . S
Tb521 O535 2.399 . S
Tb521 O536 2.325 1_556 S
Tb521 O539 2.303 . S
Tb521 C550 2.764 . S
C522 O538 1.261 . S
C522 O539 1.257 . S
C523 C526 1.358 . S
C523 C527 1.332 . S
C523 C529 1.504 . S
C524 C525 1.373 . S
C524 C528 1.308 . S
C525 C524 1.373 . S
C525 C526 1.429 . S
C525 H552 0.932 . S
C526 C523 1.358 . S
C526 C525 1.429 . S
C526 H553 0.930 . S
C527 C523 1.332 . S
C527 C528 1.394 . S
C527 H554 0.932 . S
C528 C524 1.308 . S
C528 C527 1.394 . S
C528 H555 0.929 . S
C529 Tb520 2.764 . S
C529 C523 1.504 . S
C529 O541 1.239 . S
C529 O542 1.263 . S
O530 Tb520 2.325 1_556 S
O530 C540 1.236 . S
O531 Tb521 2.322 1_545 S
O531 C540 1.257 . S
O532 Tb521 2.349 1_544 S
O532 C543 1.261 . S
O533 Tb520 2.303 . S
O533 C543 1.257 . S
O534 Tb521 2.415 . S
O534 C550 1.239 . S
O535 Tb521 2.399 . S
O535 C550 1.263 . S
O536 Tb521 2.325 1_554 S
O536 C551 1.236 . S
O537 Tb520 2.322 1_565 S
O537 C551 1.257 . S
O538 Tb520 2.349 1_566 S
O538 C522 1.261 . S
O539 Tb521 2.303 . S
O539 C522 1.257 . S
C540 O530 1.236 . S
C540 O531 1.257 . S
O541 Tb520 2.415 . S
O541 C529 1.239 . S
O542 Tb520 2.399 . S
O542 C529 1.263 . S
C543 O532 1.261 . S
C543 O533 1.257 . S
C544 C547 1.358 . S
C544 C548 1.332 . S
C544 C550 1.504 . S
C545 C546 1.373 . S
C545 C549 1.308 . S
C546 C545 1.373 . S
C546 C547 1.429 . S
C546 H556 0.932 . S
C547 C544 1.358 . S
C547 C546 1.429 . S
C547 H557 0.930 . S
C548 C544 1.332 . S
C548 C549 1.394 . S
C548 H558 0.932 . S
C549 C545 1.308 . S
C549 C548 1.394 . S
C549 H559 0.929 . S
C550 Tb521 2.764 . S
C550 O534 1.239 . S
C550 O535 1.263 . S
C550 C544 1.504 . S
C551 O536 1.236 . S
C551 O537 1.257 . S
H552 C525 0.932 . S
H553 C526 0.930 . S
H554 C527 0.932 . S
H555 C528 0.929 . S
H556 C546 0.932 . S
H557 C547 0.930 . S
H558 C548 0.932 . S
H559 C549 0.929 . S
Tb560 C569 2.764 . S
Tb560 O570 2.325 . S
Tb560 O573 2.303 . S
Tb560 O577 2.322 . S
Tb560 O578 2.349 . S
Tb560 O581 2.415 . S
Tb560 O582 2.399 . S
Tb561 O571 2.322 . S
Tb561 O572 2.349 . S
Tb561 O574 2.415 . S
Tb561 O575 2.399 . S
Tb561 O576 2.325 . S
Tb561 O579 2.303 . S
Tb561 C590 2.764 . S
C562 O578 1.261 . S
C562 O579 1.257 . S
C563 C566 1.358 . S
C563 C567 1.332 . S
C563 C569 1.504 . S
C564 C565 1.373 . S
C564 C568 1.308 . S
C565 C564 1.373 . S
C565 C566 1.429 . S
C565 H592 0.932 . S
C566 C563 1.358 . S
C566 C565 1.429 . S
C566 H593 0.930 . S
C567 C563 1.332 . S
C567 C568 1.394 . S
C567 H594 0.932 . S
C568 C564 1.308 . S
C568 C567 1.394 . S
C568 H595 0.929 . S
C569 Tb560 2.764 . S
C569 C563 1.504 . S
C569 O581 1.239 . S
C569 O582 1.263 . S
O570 Tb560 2.325 . S
O570 C580 1.236 . S
O571 Tb561 2.322 . S
O571 C580 1.257 . S
O572 Tb561 2.349 . S
O572 C583 1.261 . S
O573 Tb560 2.303 . S
O573 C583 1.257 . S
O574 Tb561 2.415 . S
O574 C590 1.239 . S
O575 Tb561 2.399 . S
O575 C590 1.263 . S
O576 Tb561 2.325 . S
O576 C591 1.236 . S
O577 Tb560 2.322 . S
O577 C591 1.257 . S
O578 Tb560 2.349 . S
O578 C562 1.261 . S
O579 Tb561 2.303 . S
O579 C562 1.257 . S
C580 O570 1.236 . S
C580 O571 1.257 . S
O581 Tb560 2.415 . S
O581 C569 1.239 . S
O582 Tb560 2.399 . S
O582 C569 1.263 . S
C583 O572 1.261 . S
C583 O573 1.257 . S
C584 C587 1.358 . S
C584 C588 1.332 . S
C584 C590 1.504 . S
C585 C586 1.373 . S
C585 C589 1.308 . S
C586 C585 1.373 . S
C586 C587 1.429 . S
C586 H596 0.932 . S
C587 C584 1.358 . S
C587 C586 1.429 . S
C587 H597 0.930 . S
C588 C584 1.332 . S
C588 C589 1.394 . S
C588 H598 0.932 . S
C589 C585 1.308 . S
C589 C588 1.394 . S
C589 H599 0.929 . S
C590 Tb561 2.764 . S
C590 O574 1.239 . S
C590 O575 1.263 . S
C590 C584 1.504 . S
C591 O576 1.236 . S
C591 O577 1.257 . S
H592 C565 0.932 . S
H593 C566 0.930 . S
H594 C567 0.932 . S
H595 C568 0.929 . S
H596 C586 0.932 . S
H597 C587 0.930 . S
H598 C588 0.932 . S
H599 C589 0.929 . S
Tb600 C609 2.764 . S
Tb600 O610 2.325 . S
Tb600 O613 2.303 1_556 S
Tb600 O617 2.334 1_655 S
Tb600 O618 2.349 1_655 S
Tb600 O621 2.415 . S
Tb600 O622 2.399 . S
Tb601 O611 2.338 1_455 S
Tb601 O612 2.349 1_455 S
Tb601 O614 2.415 . S
Tb601 O615 2.399 . S
Tb601 O616 2.325 . S
Tb601 O619 2.303 1_554 S
Tb601 C630 2.764 . S
C602 O618 1.261 . S
C602 O619 1.257 . S
C603 C606 1.358 . S
C603 C607 1.332 . S
C603 C609 1.504 . S
C604 C605 1.373 . S
C604 C608 1.308 . S
C605 C604 1.373 . S
C605 C606 1.429 . S
C605 H632 0.932 . S
C606 C603 1.358 . S
C606 C605 1.429 . S
C606 H633 0.930 . S
C607 C603 1.332 . S
C607 C608 1.394 . S
C607 H634 0.932 . S
C608 C604 1.308 . S
C608 C607 1.394 . S
C608 H635 0.929 . S
C609 Tb600 2.764 . S
C609 C603 1.504 . S
C609 O621 1.239 . S
C609 O622 1.263 . S
O610 Tb600 2.325 . S
O610 C620 1.236 . S
O611 Tb601 2.338 1_655 S
O611 C620 1.233 1_554 S
O612 Tb601 2.349 1_655 S
O612 C623 1.261 . S
O613 Tb600 2.303 1_554 S
O613 C623 1.257 . S
O614 Tb601 2.415 . S
O614 C630 1.239 . S
O615 Tb601 2.399 . S
O615 C630 1.263 . S
O616 Tb601 2.325 . S
O616 C631 1.236 . S
O617 Tb600 2.334 1_455 S
O617 C631 1.239 1_556 S
O618 Tb600 2.349 1_455 S
O618 C602 1.261 . S
O619 Tb601 2.303 1_556 S
O619 C602 1.257 . S
C620 O610 1.236 . S
C620 O611 1.233 1_556 S
O621 Tb600 2.415 . S
O621 C609 1.239 . S
O622 Tb600 2.399 . S
O622 C609 1.263 . S
C623 O612 1.261 . S
C623 O613 1.257 . S
C624 C627 1.358 . S
C624 C628 1.332 . S
C624 C630 1.504 . S
C625 C626 1.373 . S
C625 C629 1.308 . S
C626 C625 1.373 . S
C626 C627 1.429 . S
C626 H636 0.932 . S
C627 C624 1.358 . S
C627 C626 1.429 . S
C627 H637 0.930 . S
C628 C624 1.332 . S
C628 C629 1.394 . S
C628 H638 0.932 . S
C629 C625 1.308 . S
C629 C628 1.394 . S
C629 H639 0.929 . S
C630 Tb601 2.764 . S
C630 O614 1.239 . S
C630 O615 1.263 . S
C630 C624 1.504 . S
C631 O616 1.236 . S
C631 O617 1.239 1_554 S
H632 C605 0.932 . S
H633 C606 0.930 . S
H634 C607 0.932 . S
H635 C608 0.929 . S
H636 C626 0.932 . S
H637 C627 0.930 . S
H638 C628 0.932 . S
H639 C629 0.929 . S
H640 C646 0.930 . S
H641 C650 0.930 . S
H642 C655 0.929 . S
H643 C653 0.929 . S
H644 C648 0.929 . S
H645 C654 0.929 . S
C646 H640 0.930 . S
C646 C647 1.367 . S
C646 C654 1.378 . S
C647 C646 1.367 . S
C647 C655 1.433 . S
C648 H644 0.929 . S
C648 C650 1.378 . S
C648 C652 1.350 . S
C649 C652 1.463 . S
C649 C654 1.350 . S
C649 N657 1.427 . S
C650 H641 0.930 . S
C650 C648 1.378 . S
C650 C651 1.367 . S
C651 C650 1.367 . S
C651 C653 1.433 . S
C652 C648 1.350 . S
C652 C649 1.463 . S
C652 N656 1.427 . S
C653 H643 0.929 . S
C653 C651 1.433 . S
C653 N656 1.384 . S
C654 H645 0.929 . S
C654 C646 1.378 . S
C654 C649 1.350 . S
C655 H642 0.929 . S
C655 C647 1.433 . S
C655 N657 1.384 . S
N656 C652 1.427 . S
N656 C653 1.384 . S
N657 C649 1.427 . S
N657 C655 1.384 . S
H658 C664 0.930 . S
H659 C668 0.930 . S
H660 C673 0.929 . S
H661 C671 0.929 . S
H662 C666 0.929 . S
H663 C672 0.929 . S
C664 H658 0.930 . S
C664 C665 1.367 . S
C664 C672 1.378 . S
C665 C664 1.367 . S
C665 C673 1.433 . S
C666 H662 0.929 . S
C666 C668 1.378 . S
C666 C670 1.350 . S
C667 C670 1.463 . S
C667 C672 1.350 . S
C667 N675 1.427 . S
C668 H659 0.930 . S
C668 C666 1.378 . S
C668 C669 1.367 . S
C669 C668 1.367 . S
C669 C671 1.433 . S
C670 C666 1.350 . S
C670 C667 1.463 . S
C670 N674 1.427 . S
C671 H661 0.929 . S
C671 C669 1.433 . S
C671 N674 1.384 . S
C672 H663 0.929 . S
C672 C664 1.378 . S
C672 C667 1.350 . S
C673 H660 0.929 . S
C673 C665 1.433 . S
C673 N675 1.384 . S
N674 C670 1.427 . S
N674 C671 1.384 . S
N675 C667 1.427 . S
N675 C673 1.384 . S
H676 C682 0.930 . S
H677 C686 0.930 . S
H678 C691 0.929 . S
H679 C689 0.929 . S
H680 C684 0.929 . S
H681 C690 0.929 . S
C682 H676 0.930 . S
C682 C683 1.367 . S
C682 C690 1.378 . S
C683 C682 1.367 . S
C683 C691 1.433 . S
C684 H680 0.929 . S
C684 C686 1.378 . S
C684 C688 1.350 . S
C685 C688 1.463 . S
C685 C690 1.350 . S
C685 N693 1.427 . S
C686 H677 0.930 . S
C686 C684 1.378 . S
C686 C687 1.367 . S
C687 C686 1.367 . S
C687 C689 1.433 . S
C688 C684 1.350 . S
C688 C685 1.463 . S
C688 N692 1.427 . S
C689 H679 0.929 . S
C689 C687 1.433 . S
C689 N692 1.384 . S
C690 H681 0.929 . S
C690 C682 1.378 . S
C690 C685 1.350 . S
C691 H678 0.929 . S
C691 C683 1.433 . S
C691 N693 1.384 . S
N692 C688 1.427 . S
N692 C689 1.384 . S
N693 C685 1.427 . S
N693 C691 1.384 . S
H694 C700 0.930 . S
H695 C704 0.930 . S
H696 C709 0.929 . S
H697 C707 0.929 . S
H698 C702 0.929 . S
H699 C708 0.929 . S
C700 H694 0.930 . S
C700 C701 1.367 . S
C700 C708 1.378 . S
C701 C700 1.367 . S
C701 C709 1.433 . S
C702 H698 0.929 . S
C702 C704 1.378 . S
C702 C706 1.350 . S
C703 C706 1.463 . S
C703 C708 1.350 . S
C703 N711 1.427 . S
C704 H695 0.930 . S
C704 C702 1.378 . S
C704 C705 1.367 . S
C705 C704 1.367 . S
C705 C707 1.433 . S
C706 C702 1.350 . S
C706 C703 1.463 . S
C706 N710 1.427 . S
C707 H697 0.929 . S
C707 C705 1.433 . S
C707 N710 1.384 . S
C708 H699 0.929 . S
C708 C700 1.378 . S
C708 C703 1.350 . S
C709 H696 0.929 . S
C709 C701 1.433 . S
C709 N711 1.384 . S
N710 C706 1.427 . S
N710 C707 1.384 . S
N711 C703 1.427 . S
N711 C709 1.384 . S
H712 C718 0.930 . S
H713 C722 0.930 . S
H714 C727 0.929 . S
H715 C725 0.929 . S
H716 C720 0.929 . S
H717 C726 0.929 . S
C718 H712 0.930 . S
C718 C719 1.367 . S
C718 C726 1.378 . S
C719 C718 1.367 . S
C719 C727 1.433 . S
C720 H716 0.929 . S
C720 C722 1.378 . S
C720 C724 1.350 . S
C721 C724 1.463 . S
C721 C726 1.350 . S
C721 N729 1.427 . S
C722 H713 0.930 . S
C722 C720 1.378 . S
C722 C723 1.367 . S
C723 C722 1.367 . S
C723 C725 1.433 . S
C724 C720 1.350 . S
C724 C721 1.463 . S
C724 N728 1.427 . S
C725 H715 0.929 . S
C725 C723 1.433 . S
C725 N728 1.384 . S
C726 H717 0.929 . S
C726 C718 1.378 . S
C726 C721 1.350 . S
C727 H714 0.929 . S
C727 C719 1.433 . S
C727 N729 1.384 . S
N728 C724 1.427 . S
N728 C725 1.384 . S
N729 C721 1.427 . S
N729 C727 1.384 . S
H730 C736 0.930 . S
H731 C740 0.930 . S
H732 C745 0.929 . S
H733 C743 0.929 1_655 S
H734 C738 0.929 . S
H735 C744 0.929 . S
C736 H730 0.930 . S
C736 C737 1.367 . S
C736 C744 1.378 . S
C737 C736 1.367 . S
C737 C745 1.433 . S
C738 H734 0.929 . S
C738 C740 1.378 . S
C738 C742 1.350 . S
C739 C742 1.463 . S
C739 C744 1.350 . S
C739 N747 1.427 . S
C740 H731 0.930 . S
C740 C738 1.378 . S
C740 C741 1.367 . S
C741 C740 1.367 . S
C741 C743 1.433 . S
C742 C738 1.350 . S
C742 C739 1.463 . S
C742 N746 1.427 . S
C743 H733 0.929 1_455 S
C743 C741 1.433 . S
C743 N746 1.384 . S
C744 H735 0.929 . S
C744 C736 1.378 . S
C744 C739 1.350 . S
C745 H732 0.929 . S
C745 C737 1.433 . S
C745 N747 1.384 . S
N746 C742 1.427 . S
N746 C743 1.384 . S
N747 C739 1.427 . S
N747 C745 1.384 . S
H748 C754 0.930 . S
H749 C758 0.930 1_554 S
H750 C763 0.929 . S
H751 C761 0.929 . S
H752 C756 0.929 . S
H753 C762 0.929 . S
C754 H748 0.930 . S
C754 C755 1.367 . S
C754 C762 1.378 . S
C755 C754 1.367 . S
C755 C763 1.433 . S
C756 H752 0.929 . S
C756 C758 1.378 . S
C756 C760 1.350 . S
C757 C760 1.463 . S
C757 C762 1.350 . S
C757 N765 1.427 . S
C758 H749 0.930 1_556 S
C758 C756 1.378 . S
C758 C759 1.367 . S
C759 C758 1.367 . S
C759 C761 1.433 . S
C760 C756 1.350 . S
C760 C757 1.463 . S
C760 N764 1.427 . S
C761 H751 0.929 . S
C761 C759 1.433 . S
C761 N764 1.384 . S
C762 H753 0.929 . S
C762 C754 1.378 . S
C762 C757 1.350 . S
C763 H750 0.929 . S
C763 C755 1.433 . S
C763 N765 1.384 . S
N764 C760 1.427 . S
N764 C761 1.384 . S
N765 C757 1.427 . S
N765 C763 1.384 . S
H766 C772 0.930 . S
H767 C776 0.930 . S
H768 C781 0.929 . S
H769 C779 0.929 . S
H770 C774 0.929 . S
H771 C780 0.929 . S
C772 H766 0.930 . S
C772 C773 1.367 . S
C772 C780 1.378 . S
C773 C772 1.367 . S
C773 C781 1.433 . S
C774 H770 0.929 . S
C774 C776 1.378 . S
C774 C778 1.350 . S
C775 C778 1.463 . S
C775 C780 1.350 . S
C775 N783 1.427 . S
C776 H767 0.930 . S
C776 C774 1.378 . S
C776 C777 1.367 . S
C777 C776 1.367 . S
C777 C779 1.433 . S
C778 C774 1.350 . S
C778 C775 1.463 . S
C778 N782 1.427 . S
C779 H769 0.929 . S
C779 C777 1.433 . S
C779 N782 1.384 . S
C780 H771 0.929 . S
C780 C772 1.378 . S
C780 C775 1.350 . S
C781 H768 0.929 . S
C781 C773 1.433 . S
C781 N783 1.384 . S
N782 C778 1.427 . S
N782 C779 1.384 . S
N783 C775 1.427 . S
N783 C781 1.384 . S
H784 C790 0.930 . S
H785 C794 0.930 . S
H786 C799 0.929 . S
H787 C797 0.929 . S
H788 C792 0.929 . S
H789 C798 0.929 . S
C790 H784 0.930 . S
C790 C791 1.367 . S
C790 C798 1.378 . S
C791 C790 1.367 . S
C791 C799 1.433 . S
C792 H788 0.929 . S
C792 C794 1.378 . S
C792 C796 1.350 . S
C793 C796 1.463 . S
C793 C798 1.350 . S
C793 N801 1.427 . S
C794 H785 0.930 . S
C794 C792 1.378 . S
C794 C795 1.367 . S
C795 C794 1.367 . S
C795 C797 1.433 . S
C796 C792 1.350 . S
C796 C793 1.463 . S
C796 N800 1.427 . S
C797 H787 0.929 . S
C797 C795 1.433 . S
C797 N800 1.384 . S
C798 H789 0.929 . S
C798 C790 1.378 . S
C798 C793 1.350 . S
C799 H786 0.929 . S
C799 C791 1.433 . S
C799 N801 1.384 . S
N800 C796 1.427 . S
N800 C797 1.384 . S
N801 C793 1.427 . S
N801 C799 1.384 . S
H802 C808 0.930 . S
H803 C812 0.930 . S
H804 C817 0.929 . S
H805 C815 0.929 . S
H806 C810 0.929 . S
H807 C816 0.929 . S
C808 H802 0.930 . S
C808 C809 1.367 . S
C808 C816 1.378 . S
C809 C808 1.367 . S
C809 C817 1.433 . S
C810 H806 0.929 . S
C810 C812 1.378 . S
C810 C814 1.350 . S
C811 C814 1.463 . S
C811 C816 1.350 . S
C811 N819 1.427 . S
C812 H803 0.930 . S
C812 C810 1.378 . S
C812 C813 1.367 . S
C813 C812 1.367 . S
C813 C815 1.433 . S
C814 C810 1.350 . S
C814 C811 1.463 . S
C814 N818 1.427 . S
C815 H805 0.929 . S
C815 C813 1.433 . S
C815 N818 1.384 . S
C816 H807 0.929 . S
C816 C808 1.378 . S
C816 C811 1.350 . S
C817 H804 0.929 . S
C817 C809 1.433 . S
C817 N819 1.384 . S
N818 C814 1.427 . S
N818 C815 1.384 . S
N819 C811 1.427 . S
N819 C817 1.384 . S
H820 C826 0.930 . S
H821 C830 0.930 . S
H822 C835 0.929 . S
H823 C833 0.929 . S
H824 C828 0.929 . S
H825 C834 0.929 . S
C826 H820 0.930 . S
C826 C827 1.367 . S
C826 C834 1.378 . S
C827 C826 1.367 . S
C827 C835 1.433 . S
C828 H824 0.929 . S
C828 C830 1.378 . S
C828 C832 1.350 . S
C829 C832 1.463 . S
C829 C834 1.350 . S
C829 N837 1.427 . S
C830 H821 0.930 . S
C830 C828 1.378 . S
C830 C831 1.367 . S
C831 C830 1.367 . S
C831 C833 1.433 . S
C832 C828 1.350 . S
C832 C829 1.463 . S
C832 N836 1.427 . S
C833 H823 0.929 . S
C833 C831 1.433 . S
C833 N836 1.384 . S
C834 H825 0.929 . S
C834 C826 1.378 . S
C834 C829 1.350 . S
C835 H822 0.929 . S
C835 C827 1.433 . S
C835 N837 1.384 . S
N836 C832 1.427 . S
N836 C833 1.384 . S
N837 C829 1.427 . S
N837 C835 1.384 . S
H838 C844 0.930 . S
H839 C848 0.930 . S
H840 C853 0.929 . S
H841 C851 0.929 . S
H842 C846 0.929 . S
H843 C852 0.929 . S
C844 H838 0.930 . S
C844 C845 1.367 . S
C844 C852 1.378 . S
C845 C844 1.367 . S
C845 C853 1.433 . S
C846 H842 0.929 . S
C846 C848 1.378 . S
C846 C850 1.350 . S
C847 C850 1.463 . S
C847 C852 1.350 . S
C847 N855 1.427 . S
C848 H839 0.930 . S
C848 C846 1.378 . S
C848 C849 1.367 . S
C849 C848 1.367 . S
C849 C851 1.433 . S
C850 C846 1.350 . S
C850 C847 1.463 . S
C850 N854 1.427 . S
C851 H841 0.929 . S
C851 C849 1.433 . S
C851 N854 1.384 . S
C852 H843 0.929 . S
C852 C844 1.378 . S
C852 C847 1.350 . S
C853 H840 0.929 . S
C853 C845 1.433 . S
C853 N855 1.384 . S
N854 C850 1.427 . S
N854 C851 1.384 . S
N855 C847 1.427 . S
N855 C853 1.384 . S
H856 C862 0.930 . S
H857 C866 0.930 . S
H858 C871 0.929 . S
H859 C869 0.929 . S
H860 C864 0.929 . S
H861 C870 0.929 . S
C862 H856 0.930 . S
C862 C863 1.367 . S
C862 C870 1.378 . S
C863 C862 1.367 . S
C863 C871 1.433 . S
C864 H860 0.929 . S
C864 C866 1.378 . S
C864 C868 1.350 . S
C865 C868 1.463 . S
C865 C870 1.350 . S
C865 N873 1.427 . S
C866 H857 0.930 . S
C866 C864 1.378 . S
C866 C867 1.367 . S
C867 C866 1.367 . S
C867 C869 1.433 . S
C868 C864 1.350 . S
C868 C865 1.463 . S
C868 N872 1.427 . S
C869 H859 0.929 . S
C869 C867 1.433 . S
C869 N872 1.384 . S
C870 H861 0.929 . S
C870 C862 1.378 . S
C870 C865 1.350 . S
C871 H858 0.929 . S
C871 C863 1.433 . S
C871 N873 1.384 . S
N872 C868 1.427 . S
N872 C869 1.384 . S
N873 C865 1.427 . S
N873 C871 1.384 . S
H874 C880 0.930 . S
H875 C884 0.930 . S
H876 C889 0.929 . S
H877 C887 0.929 . S
H878 C882 0.929 . S
H879 C888 0.929 . S
C880 H874 0.930 . S
C880 C881 1.367 . S
C880 C888 1.378 . S
C881 C880 1.367 . S
C881 C889 1.433 . S
C882 H878 0.929 . S
C882 C884 1.378 . S
C882 C886 1.350 . S
C883 C886 1.463 . S
C883 C888 1.350 . S
C883 N891 1.427 . S
C884 H875 0.930 . S
C884 C882 1.378 . S
C884 C885 1.367 . S
C885 C884 1.367 . S
C885 C887 1.433 . S
C886 C882 1.350 . S
C886 C883 1.463 . S
C886 N890 1.427 . S
C887 H877 0.929 . S
C887 C885 1.433 . S
C887 N890 1.384 . S
C888 H879 0.929 . S
C888 C880 1.378 . S
C888 C883 1.350 . S
C889 H876 0.929 . S
C889 C881 1.433 . S
C889 N891 1.384 . S
N890 C886 1.427 . S
N890 C887 1.384 . S
N891 C883 1.427 . S
N891 C889 1.384 . S
H892 C898 0.930 . S
H893 C902 0.930 . S
H894 C907 0.929 . S
H895 C905 0.929 . S
H896 C900 0.929 . S
H897 C906 0.929 . S
C898 H892 0.930 . S
C898 C899 1.367 . S
C898 C906 1.378 . S
C899 C898 1.367 . S
C899 C907 1.433 . S
C900 H896 0.929 . S
C900 C902 1.378 . S
C900 C904 1.350 . S
C901 C904 1.463 . S
C901 C906 1.350 . S
C901 N909 1.427 . S
C902 H893 0.930 . S
C902 C900 1.378 . S
C902 C903 1.367 . S
C903 C902 1.367 . S
C903 C905 1.433 . S
C904 C900 1.350 . S
C904 C901 1.463 . S
C904 N908 1.427 . S
C905 H895 0.929 . S
C905 C903 1.433 . S
C905 N908 1.384 . S
C906 H897 0.929 . S
C906 C898 1.378 . S
C906 C901 1.350 . S
C907 H894 0.929 . S
C907 C899 1.433 . S
C907 N909 1.384 . S
N908 C904 1.427 . S
N908 C905 1.384 . S
N909 C901 1.427 . S
N909 C907 1.384 . S
H910 C916 0.930 . S
H911 C920 0.930 . S
H912 C925 0.929 . S
H913 C923 0.929 . S
H914 C918 0.929 . S
H915 C924 0.929 . S
C916 H910 0.930 . S
C916 C917 1.367 . S
C916 C924 1.378 . S
C917 C916 1.367 . S
C917 C925 1.433 . S
C918 H914 0.929 . S
C918 C920 1.378 . S
C918 C922 1.350 . S
C919 C922 1.463 . S
C919 C924 1.350 . S
C919 N927 1.427 . S
C920 H911 0.930 . S
C920 C918 1.378 . S
C920 C921 1.367 . S
C921 C920 1.367 . S
C921 C923 1.433 . S
C922 C918 1.350 . S
C922 C919 1.463 . S
C922 N926 1.427 . S
C923 H913 0.929 . S
C923 C921 1.433 . S
C923 N926 1.384 . S
C924 H915 0.929 . S
C924 C916 1.378 . S
C924 C919 1.350 . S
C925 H912 0.929 . S
C925 C917 1.433 . S
C925 N927 1.384 . S
N926 C922 1.427 . S
N926 C923 1.384 . S
N927 C919 1.427 . S
N927 C925 1.384 . S
H928 C934 0.930 . S
H929 C938 0.930 . S
H930 C943 0.929 . S
H931 C941 0.929 . S
H932 C936 0.929 . S
H933 C942 0.929 . S
C934 H928 0.930 . S
C934 C935 1.367 . S
C934 C942 1.378 . S
C935 C934 1.367 . S
C935 C943 1.433 . S
C936 H932 0.929 . S
C936 C938 1.378 . S
C936 C940 1.350 . S
C937 C940 1.463 . S
C937 C942 1.350 . S
C937 N945 1.427 . S
C938 H929 0.930 . S
C938 C936 1.378 . S
C938 C939 1.367 . S
C939 C938 1.367 . S
C939 C941 1.433 . S
C940 C936 1.350 . S
C940 C937 1.463 . S
C940 N944 1.427 . S
C941 H931 0.929 . S
C941 C939 1.433 . S
C941 N944 1.384 . S
C942 H933 0.929 . S
C942 C934 1.378 . S
C942 C937 1.350 . S
C943 H930 0.929 . S
C943 C935 1.433 . S
C943 N945 1.384 . S
N944 C940 1.427 . S
N944 C941 1.384 . S
N945 C937 1.427 . S
N945 C943 1.384 . S
H946 C952 0.930 . S
H947 C956 0.930 . S
H948 C961 0.929 . S
H949 C959 0.929 . S
H950 C954 0.929 . S
H951 C960 0.929 . S
C952 H946 0.930 . S
C952 C953 1.367 . S
C952 C960 1.378 . S
C953 C952 1.367 . S
C953 C961 1.433 . S
C954 H950 0.929 . S
C954 C956 1.378 . S
C954 C958 1.350 . S
C955 C958 1.463 . S
C955 C960 1.350 . S
C955 N963 1.427 . S
C956 H947 0.930 . S
C956 C954 1.378 . S
C956 C957 1.367 . S
C957 C956 1.367 . S
C957 C959 1.433 . S
C958 C954 1.350 . S
C958 C955 1.463 . S
C958 N962 1.427 . S
C959 H949 0.929 . S
C959 C957 1.433 . S
C959 N962 1.384 . S
C960 H951 0.929 . S
C960 C952 1.378 . S
C960 C955 1.350 . S
C961 H948 0.929 . S
C961 C953 1.433 . S
C961 N963 1.384 . S
N962 C958 1.427 . S
N962 C959 1.384 . S
N963 C955 1.427 . S
N963 C961 1.384 . S
H964 C970 0.930 . S
H965 C974 0.930 . S
H966 C979 0.929 . S
H967 C977 0.929 . S
H968 C972 0.929 . S
H969 C978 0.929 . S
C970 H964 0.930 . S
C970 C971 1.367 . S
C970 C978 1.378 . S
C971 C970 1.367 . S
C971 C979 1.433 . S
C972 H968 0.929 . S
C972 C974 1.378 . S
C972 C976 1.350 . S
C973 C976 1.463 . S
C973 C978 1.350 . S
C973 N981 1.427 . S
C974 H965 0.930 . S
C974 C972 1.378 . S
C974 C975 1.367 . S
C975 C974 1.367 . S
C975 C977 1.433 . S
C976 C972 1.350 . S
C976 C973 1.463 . S
C976 N980 1.427 . S
C977 H967 0.929 . S
C977 C975 1.433 . S
C977 N980 1.384 . S
C978 H969 0.929 . S
C978 C970 1.378 . S
C978 C973 1.350 . S
C979 H966 0.929 . S
C979 C971 1.433 . S
C979 N981 1.384 . S
N980 C976 1.427 . S
N980 C977 1.384 . S
N981 C973 1.427 . S
N981 C979 1.384 . S
H982 C988 0.930 . S
H983 C992 0.930 . S
H984 C997 0.929 . S
H985 C995 0.929 . S
H986 C990 0.929 . S
H987 C996 0.929 . S
C988 H982 0.930 . S
C988 C989 1.367 . S
C988 C996 1.378 . S
C989 C988 1.367 . S
C989 C997 1.433 . S
C990 H986 0.929 . S
C990 C992 1.378 . S
C990 C994 1.350 . S
C991 C994 1.463 . S
C991 C996 1.350 . S
C991 N999 1.427 . S
C992 H983 0.930 . S
C992 C990 1.378 . S
C992 C993 1.367 . S
C993 C992 1.367 . S
C993 C995 1.433 . S
C994 C990 1.350 . S
C994 C991 1.463 . S
C994 N998 1.427 . S
C995 H985 0.929 . S
C995 C993 1.433 . S
C995 N998 1.384 . S
C996 H987 0.929 . S
C996 C988 1.378 . S
C996 C991 1.350 . S
C997 H984 0.929 . S
C997 C989 1.433 . S
C997 N999 1.384 . S
N998 C994 1.427 . S
N998 C995 1.384 . S
N999 C991 1.427 . S
N999 C997 1.384 . S
H1000 C1006 0.930 . S
H1001 C1010 0.930 . S
H1002 C1015 0.929 . S
H1003 C1013 0.929 . S
H1004 C1008 0.929 . S
H1005 C1014 0.929 . S
C1006 H1000 0.930 . S
C1006 C1007 1.367 . S
C1006 C1014 1.378 . S
C1007 C1006 1.367 . S
C1007 C1015 1.433 . S
C1008 H1004 0.929 . S
C1008 C1010 1.378 . S
C1008 C1012 1.350 . S
C1009 C1012 1.463 . S
C1009 C1014 1.350 . S
C1009 N1017 1.427 . S
C1010 H1001 0.930 . S
C1010 C1008 1.378 . S
C1010 C1011 1.367 . S
C1011 C1010 1.367 . S
C1011 C1013 1.433 . S
C1012 C1008 1.350 . S
C1012 C1009 1.463 . S
C1012 N1016 1.427 . S
C1013 H1003 0.929 . S
C1013 C1011 1.433 . S
C1013 N1016 1.384 . S
C1014 H1005 0.929 . S
C1014 C1006 1.378 . S
C1014 C1009 1.350 . S
C1015 H1002 0.929 . S
C1015 C1007 1.433 . S
C1015 N1017 1.384 . S
N1016 C1012 1.427 . S
N1016 C1013 1.384 . S
N1017 C1009 1.427 . S
N1017 C1015 1.384 . S
H1018 C1024 0.930 . S
H1019 C1028 0.930 . S
H1020 C1033 0.929 . S
H1021 C1031 0.929 . S
H1022 C1026 0.929 . S
H1023 C1032 0.929 . S
C1024 H1018 0.930 . S
C1024 C1025 1.367 . S
C1024 C1032 1.378 . S
C1025 C1024 1.367 . S
C1025 C1033 1.433 . S
C1026 H1022 0.929 . S
C1026 C1028 1.378 . S
C1026 C1030 1.350 . S
C1027 C1030 1.463 . S
C1027 C1032 1.350 . S
C1027 N1035 1.427 . S
C1028 H1019 0.930 . S
C1028 C1026 1.378 . S
C1028 C1029 1.367 . S
C1029 C1028 1.367 . S
C1029 C1031 1.433 . S
C1030 C1026 1.350 . S
C1030 C1027 1.463 . S
C1030 N1034 1.427 . S
C1031 H1021 0.929 . S
C1031 C1029 1.433 . S
C1031 N1034 1.384 . S
C1032 H1023 0.929 . S
C1032 C1024 1.378 . S
C1032 C1027 1.350 . S
C1033 H1020 0.929 . S
C1033 C1025 1.433 . S
C1033 N1035 1.384 . S
N1034 C1030 1.427 . S
N1034 C1031 1.384 . S
N1035 C1027 1.427 . S
N1035 C1033 1.384 . S
H1036 C1042 0.930 . S
H1037 C1046 0.930 1_655 S
H1038 C1051 0.929 . S
H1039 C1049 0.929 . S
H1040 C1044 0.929 . S
H1041 C1050 0.929 . S
C1042 H1036 0.930 . S
C1042 C1043 1.367 . S
C1042 C1050 1.378 . S
C1043 C1042 1.367 . S
C1043 C1051 1.433 . S
C1044 H1040 0.929 . S
C1044 C1046 1.378 . S
C1044 C1048 1.350 . S
C1045 C1048 1.463 . S
C1045 C1050 1.350 . S
C1045 N1053 1.427 . S
C1046 H1037 0.930 1_455 S
C1046 C1044 1.378 . S
C1046 C1047 1.367 . S
C1047 C1046 1.367 . S
C1047 C1049 1.433 . S
C1048 C1044 1.350 . S
C1048 C1045 1.463 . S
C1048 N1052 1.427 . S
C1049 H1039 0.929 . S
C1049 C1047 1.433 . S
C1049 N1052 1.384 . S
C1050 H1041 0.929 . S
C1050 C1042 1.378 . S
C1050 C1045 1.350 . S
C1051 H1038 0.929 . S
C1051 C1043 1.433 . S
C1051 N1053 1.384 . S
N1052 C1048 1.427 . S
N1052 C1049 1.384 . S
N1053 C1045 1.427 . S
N1053 C1051 1.384 . S
H1054 C1060 0.930 . S
H1055 C1064 0.930 . S
H1056 C1069 0.929 . S
H1057 C1067 0.929 . S
H1058 C1062 0.929 . S
H1059 C1068 0.929 . S
C1060 H1054 0.930 . S
C1060 C1061 1.367 . S
C1060 C1068 1.378 . S
C1061 C1060 1.367 . S
C1061 C1069 1.433 . S
C1062 H1058 0.929 . S
C1062 C1064 1.378 . S
C1062 C1066 1.350 . S
C1063 C1066 1.463 . S
C1063 C1068 1.350 . S
C1063 N1071 1.427 . S
C1064 H1055 0.930 . S
C1064 C1062 1.378 . S
C1064 C1065 1.367 . S
C1065 C1064 1.367 . S
C1065 C1067 1.433 . S
C1066 C1062 1.350 . S
C1066 C1063 1.463 . S
C1066 N1070 1.427 . S
C1067 H1057 0.929 . S
C1067 C1065 1.433 . S
C1067 N1070 1.384 . S
C1068 H1059 0.929 . S
C1068 C1060 1.378 . S
C1068 C1063 1.350 . S
C1069 H1056 0.929 . S
C1069 C1061 1.433 . S
C1069 N1071 1.384 . S
N1070 C1066 1.427 . S
N1070 C1067 1.384 . S
N1071 C1063 1.427 . S
N1071 C1069 1.384 . S
C647 C1 0.904 . S
C651 C484 0.938 . S
C665 C80 1.193 . S
C669 C545 1.241 . S
C687 C583 2.509 . S
C683 C140 2.527 . S
C701 C211 2.317 . S
C705 C623 2.296 . S
C723 C543 1.286 . S
C719 C31 1.202 . S
C741 C511 2.142 . S
C737 C61 2.055 . S
C759 C620 1.740 . S
C755 C151 1.700 . S
C777 C580 1.855 . S
C773 C200 1.850 . S
C791 C20 1.110 . S
C795 C625 1.125 . S
C813 C540 2.394 . S
C809 C121 2.362 . S
C827 C181 2.135 . S
C831 C482 2.155 . S
C845 C91 1.589 . S
C849 C585 1.588 . S
C867 C505 0.929 . S
C863 C260 0.903 . S
C881 C320 1.182 . S
C885 C524 1.235 . S
C899 C361 2.554 . S
C903 C562 2.512 . S
C917 C451 2.323 . S
C921 C602 2.305 . S
C935 C271 1.223 . S
C939 C522 1.293 . S
C957 C500 2.140 . S
C953 C301 2.053 . S
C975 C631 1.739 . S
C971 C380 1.710 . S
C993 C591 1.851 . S
C989 C440 1.855 . S
C1007 C241 1.050 . S
C1011 C604 1.129 . S
C1029 C551 2.392 . S
C1025 C391 2.388 . S
C1047 C503 2.150 . S
C1043 C421 2.130 . S
C1061 C331 1.589 . S
C1065 C564 1.585 . S
