# Generated by pormake.
# Topology eea, (3,6)-cn, num edge types: 1
# Building blocks:
#     Node 0, Type 0, BuildingBlock: MIDCAF_clean_linker_0, # of connection points: 3
#     Node 1, Type 0, BuildingBlock: MIDCAF_clean_linker_0, # of connection points: 3
#     Node 2, Type 0, BuildingBlock: MIDCAF_clean_linker_0, # of connection points: 3
#     Node 3, Type 0, BuildingBlock: MIDCAF_clean_linker_0, # of connection points: 3
#     Node 4, Type 0, BuildingBlock: MIDCAF_clean_linker_0, # of connection points: 3
#     Node 5, Type 0, BuildingBlock: MIDCAF_clean_linker_0, # of connection points: 3
#     Node 6, Type 0, BuildingBlock: MIDCAF_clean_linker_0, # of connection points: 3
#     Node 7, Type 0, BuildingBlock: MIDCAF_clean_linker_0, # of connection points: 3
#     Node 8, Type 0, BuildingBlock: MIDCAF_clean_linker_0, # of connection points: 3
#     Node 9, Type 0, BuildingBlock: MIDCAF_clean_linker_0, # of connection points: 3
#     Node 10, Type 0, BuildingBlock: MIDCAF_clean_linker_0, # of connection points: 3
#     Node 11, Type 0, BuildingBlock: MIDCAF_clean_linker_0, # of connection points: 3
#     Node 12, Type 0, BuildingBlock: MIDCAF_clean_linker_0, # of connection points: 3
#     Node 13, Type 0, BuildingBlock: MIDCAF_clean_linker_0, # of connection points: 3
#     Node 14, Type 0, BuildingBlock: MIDCAF_clean_linker_0, # of connection points: 3
#     Node 15, Type 0, BuildingBlock: MIDCAF_clean_linker_0, # of connection points: 3
#     Node 16, Type 0, BuildingBlock: MIDCAF_clean_linker_0, # of connection points: 3
#     Node 17, Type 0, BuildingBlock: MIDCAF_clean_linker_0, # of connection points: 3
#     Node 18, Type 1, BuildingBlock: KUMJIN_clean_sbu_0, # of connection points: 6
#     Node 19, Type 1, BuildingBlock: KUMJIN_clean_sbu_0, # of connection points: 6
#     Node 20, Type 1, BuildingBlock: KUMJIN_clean_sbu_0, # of connection points: 6
#     Node 21, Type 1, BuildingBlock: KUMJIN_clean_sbu_0, # of connection points: 6
#     Node 22, Type 1, BuildingBlock: KUMJIN_clean_sbu_0, # of connection points: 6
#     Node 23, Type 1, BuildingBlock: KUMJIN_clean_sbu_0, # of connection points: 6
#     Node 24, Type 1, BuildingBlock: KUMJIN_clean_sbu_0, # of connection points: 6
#     Node 25, Type 1, BuildingBlock: KUMJIN_clean_sbu_0, # of connection points: 6
#     Node 26, Type 1, BuildingBlock: KUMJIN_clean_sbu_0, # of connection points: 6
#     Edge 27, Type (0, 1), BuildingBlock: CIFDUS_clean_linker_0, # of connection points: 2
#     Edge 28, Type (0, 1), BuildingBlock: CIFDUS_clean_linker_0, # of connection points: 2
#     Edge 29, Type (0, 1), BuildingBlock: CIFDUS_clean_linker_0, # of connection points: 2
#     Edge 30, Type (0, 1), BuildingBlock: CIFDUS_clean_linker_0, # of connection points: 2
#     Edge 31, Type (0, 1), BuildingBlock: CIFDUS_clean_linker_0, # of connection points: 2
#     Edge 32, Type (0, 1), BuildingBlock: CIFDUS_clean_linker_0, # of connection points: 2
#     Edge 33, Type (0, 1), BuildingBlock: CIFDUS_clean_linker_0, # of connection points: 2
#     Edge 34, Type (0, 1), BuildingBlock: CIFDUS_clean_linker_0, # of connection points: 2
#     Edge 35, Type (0, 1), BuildingBlock: CIFDUS_clean_linker_0, # of connection points: 2
#     Edge 36, Type (0, 1), BuildingBlock: CIFDUS_clean_linker_0, # of connection points: 2
#     Edge 37, Type (0, 1), BuildingBlock: CIFDUS_clean_linker_0, # of connection points: 2
#     Edge 38, Type (0, 1), BuildingBlock: CIFDUS_clean_linker_0, # of connection points: 2
#     Edge 39, Type (0, 1), BuildingBlock: CIFDUS_clean_linker_0, # of connection points: 2
#     Edge 40, Type (0, 1), BuildingBlock: CIFDUS_clean_linker_0, # of connection points: 2
#     Edge 41, Type (0, 1), BuildingBlock: CIFDUS_clean_linker_0, # of connection points: 2
#     Edge 42, Type (0, 1), BuildingBlock: CIFDUS_clean_linker_0, # of connection points: 2
#     Edge 43, Type (0, 1), BuildingBlock: CIFDUS_clean_linker_0, # of connection points: 2
#     Edge 44, Type (0, 1), BuildingBlock: CIFDUS_clean_linker_0, # of connection points: 2
#     Edge 45, Type (0, 1), BuildingBlock: CIFDUS_clean_linker_0, # of connection points: 2
#     Edge 46, Type (0, 1), BuildingBlock: CIFDUS_clean_linker_0, # of connection points: 2
#     Edge 47, Type (0, 1), BuildingBlock: CIFDUS_clean_linker_0, # of connection points: 2
#     Edge 48, Type (0, 1), BuildingBlock: CIFDUS_clean_linker_0, # of connection points: 2
#     Edge 49, Type (0, 1), BuildingBlock: CIFDUS_clean_linker_0, # of connection points: 2
#     Edge 50, Type (0, 1), BuildingBlock: CIFDUS_clean_linker_0, # of connection points: 2
#     Edge 51, Type (0, 1), BuildingBlock: CIFDUS_clean_linker_0, # of connection points: 2
#     Edge 52, Type (0, 1), BuildingBlock: CIFDUS_clean_linker_0, # of connection points: 2
#     Edge 53, Type (0, 1), BuildingBlock: CIFDUS_clean_linker_0, # of connection points: 2
#     Edge 54, Type (0, 1), BuildingBlock: CIFDUS_clean_linker_0, # of connection points: 2
#     Edge 55, Type (0, 1), BuildingBlock: CIFDUS_clean_linker_0, # of connection points: 2
#     Edge 56, Type (0, 1), BuildingBlock: CIFDUS_clean_linker_0, # of connection points: 2
#     Edge 57, Type (0, 1), BuildingBlock: CIFDUS_clean_linker_0, # of connection points: 2
#     Edge 58, Type (0, 1), BuildingBlock: CIFDUS_clean_linker_0, # of connection points: 2
#     Edge 59, Type (0, 1), BuildingBlock: CIFDUS_clean_linker_0, # of connection points: 2
#     Edge 60, Type (0, 1), BuildingBlock: CIFDUS_clean_linker_0, # of connection points: 2
#     Edge 61, Type (0, 1), BuildingBlock: CIFDUS_clean_linker_0, # of connection points: 2
#     Edge 62, Type (0, 1), BuildingBlock: CIFDUS_clean_linker_0, # of connection points: 2
#     Edge 63, Type (0, 1), BuildingBlock: CIFDUS_clean_linker_0, # of connection points: 2
#     Edge 64, Type (0, 1), BuildingBlock: CIFDUS_clean_linker_0, # of connection points: 2
#     Edge 65, Type (0, 1), BuildingBlock: CIFDUS_clean_linker_0, # of connection points: 2
#     Edge 66, Type (0, 1), BuildingBlock: CIFDUS_clean_linker_0, # of connection points: 2
#     Edge 67, Type (0, 1), BuildingBlock: CIFDUS_clean_linker_0, # of connection points: 2
#     Edge 68, Type (0, 1), BuildingBlock: CIFDUS_clean_linker_0, # of connection points: 2
#     Edge 69, Type (0, 1), BuildingBlock: CIFDUS_clean_linker_0, # of connection points: 2
#     Edge 70, Type (0, 1), BuildingBlock: CIFDUS_clean_linker_0, # of connection points: 2
#     Edge 71, Type (0, 1), BuildingBlock: CIFDUS_clean_linker_0, # of connection points: 2
#     Edge 72, Type (0, 1), BuildingBlock: CIFDUS_clean_linker_0, # of connection points: 2
#     Edge 73, Type (0, 1), BuildingBlock: CIFDUS_clean_linker_0, # of connection points: 2
#     Edge 74, Type (0, 1), BuildingBlock: CIFDUS_clean_linker_0, # of connection points: 2
#     Edge 75, Type (0, 1), BuildingBlock: CIFDUS_clean_linker_0, # of connection points: 2
#     Edge 76, Type (0, 1), BuildingBlock: CIFDUS_clean_linker_0, # of connection points: 2
#     Edge 77, Type (0, 1), BuildingBlock: CIFDUS_clean_linker_0, # of connection points: 2
#     Edge 78, Type (0, 1), BuildingBlock: CIFDUS_clean_linker_0, # of connection points: 2
#     Edge 79, Type (0, 1), BuildingBlock: CIFDUS_clean_linker_0, # of connection points: 2
#     Edge 80, Type (0, 1), BuildingBlock: CIFDUS_clean_linker_0, # of connection points: 2
# Relax obj value: 0.009
# Max RMSD: 0.093
# Mean RMSD: 0.066
data_MOF--net-eea--node1-KUMJIN_clean_sbu_0--node2-MIDCAF_clean_linker_0--edge1-CIFDUS_clean_linker_0
_symmetry_space_group_name_H-M    P1
_symmetry_Int_Tables_number       1
_symmetry_cell_setting            triclinic
loop_
_symmetry_equiv_pos_as_xyz
'x, y, z'
_cell_length_a     55.711665
_cell_length_b     56.938463
_cell_length_c     80.144552
_cell_angle_alpha  90.050082
_cell_angle_beta   90.067867
_cell_angle_gamma 119.92381
loop_
_atom_site_label
_atom_site_type_symbol
_atom_site_fract_x
_atom_site_fract_y
_atom_site_fract_z
_atom_type_partial_charge
C0 C 0.24897 0.03781 0.42015 0.0
C1 C 0.23829 0.03089 0.40385 0.0
C2 C 0.23242 0.04886 0.39511 0.0
C3 C 0.23734 0.07323 0.40243 0.0
H4 H 0.23291 0.14339 0.39332 0.0
H5 H 0.22277 0.17536 0.37902 0.0
H6 H 0.24597 0.22517 0.42336 0.0
H7 H 0.25668 0.19387 0.43746 0.0
H8 H 0.29794 0.18871 0.46241 0.0
H9 H 0.32444 0.20392 0.48821 0.0
H10 H 0.30956 0.12303 0.49721 0.0
H11 H 0.28294 0.10757 0.47125 0.0
H12 H 0.26221 0.06668 0.44001 0.0
H13 H 0.25329 0.02427 0.42737 0.0
H14 H 0.22446 0.04435 0.38248 0.0
H15 H 0.2328 0.08665 0.39525 0.0
N16 N 0.24731 0.12329 0.41833 0.0
N17 N 0.26613 0.15458 0.44029 0.0
N18 N 0.26715 0.11399 0.44148 0.0
C19 C 0.2531 0.14739 0.42526 0.0
C20 C 0.27324 0.13808 0.4485 0.0
C21 C 0.25422 0.10641 0.42639 0.0
C22 C 0.24584 0.16607 0.41654 0.0
C23 C 0.23581 0.16115 0.40003 0.0
C24 C 0.22988 0.17942 0.39183 0.0
C25 C 0.23379 0.203 0.39997 0.0
C26 C 0.24329 0.20757 0.41656 0.0
C27 C 0.24929 0.18944 0.4247 0.0
C28 C 0.28836 0.14689 0.46465 0.0
C29 C 0.30011 0.17403 0.46988 0.0
C30 C 0.31544 0.18283 0.48465 0.0
C31 C 0.31919 0.1647 0.49469 0.0
C32 C 0.30689 0.13741 0.48975 0.0
C33 C 0.29178 0.12863 0.47483 0.0
C34 C 0.2483 0.08026 0.41868 0.0
C35 C 0.25394 0.06214 0.42745 0.0
C36 C 0.9767 0.19744 0.40718 0.0
C37 C 0.98342 0.18695 0.39318 0.0
C38 C 0.96544 0.15993 0.3885 0.0
C39 C 0.94142 0.14369 0.39767 0.0
H40 H 0.87026 0.06988 0.39567 0.0
H41 H 0.8362 0.02531 0.3851 0.0
H42 H 0.78263 0.01503 0.42673 0.0
H43 H 0.81676 0.05912 0.43751 0.0
H44 H 0.83911 0.09677 0.46697 0.0
H45 H 0.83005 0.10822 0.4944 0.0
H46 H 0.90472 0.18619 0.49162 0.0
H47 H 0.91431 0.17452 0.46391 0.0
H48 H 0.94839 0.18973 0.42731 0.0
H49 H 0.99032 0.21812 0.4112 0.0
H50 H 0.96995 0.15132 0.37772 0.0
H51 H 0.9282 0.12292 0.39369 0.0
N52 N 0.89043 0.11167 0.41551 0.0
N53 N 0.86356 0.1029 0.43955 0.0
N54 N 0.90547 0.1439 0.43715 0.0
C55 C 0.8673 0.09494 0.42429 0.0
C56 C 0.8824 0.1272 0.44614 0.0
C57 C 0.9096 0.1362 0.42177 0.0
C58 C 0.84639 0.06814 0.4175 0.0
C59 C 0.85121 0.05815 0.40257 0.0
C60 C 0.8316 0.03263 0.39645 0.0
C61 C 0.8067 0.01652 0.4051 0.0
C62 C 0.80178 0.02667 0.41991 0.0
C63 C 0.82137 0.05209 0.42604 0.0
C64 C 0.87743 0.13478 0.46306 0.0
C65 C 0.85374 0.11644 0.47207 0.0
C66 C 0.84838 0.12305 0.48786 0.0
C67 C 0.86646 0.14824 0.49518 0.0
C68 C 0.89042 0.16655 0.48635 0.0
C69 C 0.89583 0.15991 0.47044 0.0
C70 C 0.93488 0.15395 0.41189 0.0
C71 C 0.95277 0.18109 0.41649 0.0
C72 C 0.80696 0.77846 0.41323 0.0
C73 C 0.81575 0.79685 0.39983 0.0
C74 C 0.84304 0.80764 0.39404 0.0
C75 C 0.86113 0.80034 0.40146 0.0
H76 H 0.9366 0.80766 0.39473 0.0
H77 H 0.98011 0.82076 0.38054 0.0
H78 H 0.99578 0.77089 0.41427 0.0
H79 H 0.95211 0.75767 0.42861 0.0
H80 H 0.91059 0.73138 0.46073 0.0
H81 H 0.9014 0.71055 0.48821 0.0
H82 H 0.83799 0.73197 0.49616 0.0
H83 H 0.84644 0.75179 0.46839 0.0
H84 H 0.81782 0.75736 0.4312 0.0
H85 H 0.78613 0.76997 0.41808 0.0
H86 H 0.85041 0.8217 0.38368 0.0
H87 H 0.882 0.80918 0.39662 0.0
N88 N 0.89612 0.78084 0.41501 0.0
N89 N 0.90867 0.76199 0.43702 0.0
N90 N 0.8668 0.76262 0.43815 0.0
C91 C 0.91445 0.77442 0.42186 0.0
C92 C 0.88494 0.75611 0.44532 0.0
C93 C 0.87221 0.77493 0.42295 0.0
C94 C 0.94074 0.78164 0.41293 0.0
C95 C 0.94915 0.7993 0.39914 0.0
C96 C 0.97421 0.80693 0.39099 0.0
C97 C 0.99146 0.7969 0.39626 0.0
C98 C 0.98285 0.77879 0.4098 0.0
C99 C 0.95789 0.77137 0.4181 0.0
C100 C 0.87924 0.74328 0.46221 0.0
C101 C 0.89464 0.73163 0.46831 0.0
C102 C 0.88947 0.71981 0.48421 0.0
C103 C 0.86894 0.7195 0.49463 0.0
C104 C 0.85364 0.73128 0.48852 0.0
C105 C 0.8586 0.74284 0.47254 0.0
C106 C 0.85258 0.78227 0.41505 0.0
C107 C 0.82521 0.7714 0.42083 0.0
C108 C 0.02718 0.22177 0.61415 0.0
C109 C 0.01863 0.2036 0.62765 0.0
C110 C 0.03604 0.19384 0.63302 0.0
C111 C 0.06123 0.2018 0.62503 0.0
H112 H 0.12906 0.19302 0.6285 0.0
H113 H 0.16081 0.18027 0.6411 0.0
H114 H 0.22467 0.23243 0.60657 0.0
H115 H 0.19307 0.24533 0.59395 0.0
H116 H 0.17626 0.26777 0.56309 0.0
H117 H 0.18893 0.29171 0.53667 0.0
H118 H 0.10895 0.28633 0.53387 0.0
H119 H 0.09592 0.26188 0.56041 0.0
H120 H 0.05816 0.24339 0.59555 0.0
H121 H 0.01409 0.22946 0.60962 0.0
H122 H 0.03018 0.18 0.64347 0.0
H123 H 0.07393 0.19366 0.62954 0.0
N124 N 0.11444 0.22084 0.60975 0.0
N125 N 0.14535 0.24142 0.58764 0.0
N126 N 0.10307 0.2412 0.588 0.0
C127 C 0.13897 0.22774 0.60233 0.0
C128 C 0.12757 0.24818 0.58031 0.0
C129 C 0.09639 0.22752 0.60278 0.0
C130 C 0.15843 0.22021 0.61016 0.0
C131 C 0.14989 0.20189 0.6236 0.0
C132 C 0.16804 0.19445 0.63079 0.0
C133 C 0.19526 0.20536 0.62485 0.0
C134 C 0.20392 0.2239 0.61155 0.0
C135 C 0.1857 0.23114 0.60424 0.0
C136 C 0.13503 0.26288 0.56405 0.0
C137 C 0.16123 0.27158 0.55693 0.0
C138 C 0.16862 0.2855 0.54175 0.0
C139 C 0.15006 0.29114 0.53315 0.0
C140 C 0.1237 0.28217 0.5401 0.0
C141 C 0.1163 0.2683 0.55539 0.0
C142 C 0.06967 0.21961 0.61132 0.0
C143 C 0.05234 0.22958 0.60601 0.0
C144 C 0.75025 0.78802 0.61273 0.0
C145 C 0.76198 0.79304 0.62878 0.0
C146 C 0.76838 0.81747 0.63681 0.0
C147 C 0.76292 0.83632 0.629 0.0
H148 H 0.76598 0.91022 0.63583 0.0
H149 H 0.77509 0.95222 0.64945 0.0
H150 H 0.74749 0.97523 0.60521 0.0
H151 H 0.73783 0.9332 0.59173 0.0
H152 H 0.7106 0.89219 0.56218 0.0
H153 H 0.68666 0.87976 0.5354 0.0
H154 H 0.68576 0.80348 0.53665 0.0
H155 H 0.71014 0.81602 0.56321 0.0
H156 H 0.73578 0.80208 0.59256 0.0
H157 H 0.74554 0.76965 0.60607 0.0
H158 H 0.77726 0.82186 0.64923 0.0
H159 H 0.76794 0.85483 0.63558 0.0
N160 N 0.7508 0.87456 0.61209 0.0
N161 N 0.73249 0.88597 0.58911 0.0
N162 N 0.7325 0.84487 0.58933 0.0
C163 C 0.74476 0.89231 0.60441 0.0
C164 C 0.72628 0.86228 0.58148 0.0
C165 C 0.74475 0.85078 0.6046 0.0
C166 C 0.75103 0.91815 0.61267 0.0
C167 C 0.76184 0.92422 0.62898 0.0
C168 C 0.7672 0.94838 0.63679 0.0
C169 C 0.76188 0.96705 0.62847 0.0
C170 C 0.75135 0.9611 0.61211 0.0
C171 C 0.74596 0.93698 0.60433 0.0
C172 C 0.71229 0.85511 0.56495 0.0
C173 C 0.70541 0.8728 0.55675 0.0
C174 C 0.69152 0.8656 0.54142 0.0
C175 C 0.68418 0.84057 0.5339 0.0
C176 C 0.69136 0.82304 0.54199 0.0
C177 C 0.70524 0.83021 0.55731 0.0
C178 C 0.751 0.83116 0.61297 0.0
C179 C 0.74482 0.80679 0.60494 0.0
C180 C 0.2076 0.96995 0.61546 0.0
C181 C 0.2008 0.977 0.63085 0.0
C182 C 0.17484 0.95942 0.63794 0.0
C183 C 0.15602 0.93553 0.62975 0.0
H184 H 0.07774 0.87321 0.63276 0.0
H185 H 0.03349 0.84393 0.64612 0.0
H186 H 0.01494 0.78229 0.60892 0.0
H187 H 0.05944 0.81158 0.59542 0.0
H188 H 0.10187 0.82829 0.56295 0.0
H189 H 0.1129 0.82038 0.53465 0.0
H190 H 0.18239 0.90194 0.53333 0.0
H191 H 0.17155 0.90996 0.56135 0.0
H192 H 0.19473 0.94142 0.59538 0.0
H193 H 0.22759 0.98282 0.60976 0.0
H194 H 0.1688 0.96438 0.64968 0.0
H195 H 0.13612 0.92265 0.63554 0.0
N196 N 0.11794 0.88608 0.61267 0.0
N197 N 0.10497 0.85763 0.58919 0.0
N198 N 0.14795 0.89789 0.58989 0.0
C199 C 0.0991 0.86312 0.60473 0.0
C200 C 0.12941 0.87504 0.58166 0.0
C201 C 0.14244 0.90353 0.60541 0.0
C202 C 0.07223 0.84482 0.61294 0.0
C203 C 0.06438 0.85339 0.6274 0.0
C204 C 0.03893 0.83667 0.63505 0.0
C205 C 0.02076 0.81085 0.62857 0.0
C206 C 0.02867 0.80203 0.61428 0.0
C207 C 0.05408 0.81888 0.60649 0.0
C208 C 0.13579 0.86977 0.5645 0.0
C209 C 0.11948 0.84455 0.55662 0.0
C210 C 0.12585 0.83995 0.54044 0.0
C211 C 0.14843 0.86059 0.53173 0.0
C212 C 0.16464 0.88575 0.5396 0.0
C213 C 0.15849 0.89025 0.55577 0.0
C214 C 0.16268 0.92864 0.61425 0.0
C215 C 0.18876 0.9461 0.60724 0.0
C216 C 0.91883 0.36977 0.74285 0.0
C217 C 0.90033 0.35961 0.72934 0.0
C218 C 0.89092 0.37608 0.72213 0.0
C219 C 0.89929 0.4019 0.72863 0.0
H220 H 0.89154 0.47099 0.72335 0.0
H221 H 0.87821 0.50202 0.71107 0.0
H222 H 0.93235 0.56444 0.74563 0.0
H223 H 0.94499 0.53334 0.75821 0.0
H224 H 0.95937 0.51216 0.79371 0.0
H225 H 0.98298 0.52128 0.82078 0.0
H226 H 0.98831 0.44854 0.81557 0.0
H227 H 0.96534 0.43958 0.78877 0.0
H228 H 0.94122 0.40232 0.75987 0.0
H229 H 0.92695 0.35786 0.74847 0.0
H230 H 0.87654 0.36875 0.71174 0.0
H231 H 0.89128 0.4139 0.72302 0.0
N232 N 0.91884 0.45602 0.74276 0.0
N233 N 0.93971 0.4866 0.76503 0.0
N234 N 0.93872 0.44504 0.76498 0.0
C235 C 0.92616 0.48028 0.75008 0.0
C236 C 0.94603 0.46897 0.77257 0.0
C237 C 0.9252 0.43833 0.75015 0.0
C238 C 0.9191 0.49951 0.74195 0.0
C239 C 0.90068 0.49137 0.72831 0.0
C240 C 0.89316 0.50923 0.72116 0.0
C241 C 0.90396 0.53567 0.72745 0.0
C242 C 0.9231 0.54403 0.7407 0.0
C243 C 0.93045 0.52618 0.74791 0.0
C244 C 0.96049 0.47519 0.78896 0.0
C245 C 0.96569 0.49819 0.79833 0.0
C246 C 0.97905 0.50334 0.81387 0.0
C247 C 0.98769 0.48573 0.82025 0.0
C248 C 0.98236 0.46276 0.8109 0.0
C249 C 0.96898 0.45756 0.79551 0.0
C250 C 0.91722 0.4117 0.74247 0.0
C251 C 0.92711 0.3954 0.74935 0.0
C252 C 0.63384 0.55358 0.73318 0.0
C253 C 0.64492 0.54396 0.721 0.0
C254 C 0.63283 0.51589 0.71854 0.0
C255 C 0.61003 0.49776 0.7281 0.0
H256 H 0.54364 0.41832 0.72934 0.0
H257 H 0.51085 0.37391 0.71827 0.0
H258 H 0.45091 0.36595 0.75532 0.0
H259 H 0.48421 0.40998 0.76683 0.0
H260 H 0.51936 0.4473 0.80265 0.0
H261 H 0.51713 0.46214 0.83096 0.0
H262 H 0.57251 0.54519 0.81658 0.0
H263 H 0.57544 0.53041 0.78866 0.0
H264 H 0.6036 0.54358 0.75237 0.0
H265 H 0.64296 0.57513 0.73543 0.0
H266 H 0.64103 0.50799 0.70922 0.0
H267 H 0.60121 0.47622 0.72597 0.0
N268 N 0.55809 0.46276 0.74576 0.0
N269 N 0.53302 0.45334 0.77079 0.0
N270 N 0.57207 0.49614 0.76647 0.0
C271 C 0.53647 0.44523 0.75542 0.0
C272 C 0.55085 0.47879 0.77643 0.0
C273 C 0.57589 0.48828 0.75117 0.0
C274 C 0.5166 0.41778 0.74899 0.0
C275 C 0.52349 0.40709 0.73517 0.0
C276 C 0.50455 0.38163 0.72872 0.0
C277 C 0.47804 0.36627 0.73578 0.0
C278 C 0.47122 0.37694 0.74967 0.0
C279 C 0.49031 0.4023 0.75626 0.0
C280 C 0.54779 0.48761 0.79338 0.0
C281 C 0.53097 0.46874 0.80554 0.0
C282 C 0.52961 0.47726 0.82177 0.0
C283 C 0.5449 0.50486 0.82617 0.0
C284 C 0.56101 0.52371 0.81382 0.0
C285 C 0.56255 0.51521 0.79771 0.0
C286 C 0.59931 0.50738 0.74055 0.0
C287 C 0.61144 0.53549 0.74295 0.0
C288 C 0.46097 0.09121 0.7362 0.0
C289 C 0.46951 0.11226 0.72453 0.0
C290 C 0.49792 0.12948 0.72175 0.0
C291 C 0.5175 0.12549 0.73034 0.0
H292 H 0.59625 0.13635 0.72522 0.0
H293 H 0.64048 0.14999 0.71184 0.0
H294 H 0.65723 0.10365 0.74784 0.0
H295 H 0.61277 0.08987 0.76138 0.0
H296 H 0.5722 0.06871 0.7951 0.0
H297 H 0.56154 0.05111 0.82363 0.0
H298 H 0.48865 0.0594 0.82329 0.0
H299 H 0.49915 0.07696 0.79502 0.0
H300 H 0.47335 0.0713 0.75408 0.0
H301 H 0.43914 0.07778 0.7386 0.0
H302 H 0.50495 0.14584 0.7128 0.0
H303 H 0.53928 0.13899 0.72787 0.0
N304 N 0.5547 0.10789 0.74438 0.0
N305 N 0.56777 0.09267 0.76809 0.0
N306 N 0.52404 0.08934 0.76685 0.0
C307 C 0.57378 0.1039 0.75255 0.0
C308 C 0.54294 0.0855 0.77538 0.0
C309 C 0.52975 0.1005 0.75137 0.0
C310 C 0.60086 0.11202 0.74446 0.0
C311 C 0.60922 0.12893 0.73032 0.0
C312 C 0.63466 0.13687 0.72265 0.0
C313 C 0.65234 0.1279 0.72877 0.0
C314 C 0.64392 0.11069 0.74275 0.0
C315 C 0.61854 0.10298 0.75058 0.0
C316 C 0.53658 0.07432 0.79266 0.0
C317 C 0.5539 0.06678 0.8011 0.0
C318 C 0.54774 0.05659 0.81744 0.0
C319 C 0.52433 0.05399 0.82579 0.0
C320 C 0.50706 0.06149 0.81734 0.0
C321 C 0.51303 0.0714 0.80102 0.0
C322 C 0.50902 0.10462 0.74219 0.0
C323 C 0.48054 0.08763 0.7451 0.0
C324 C 0.68777 0.54414 0.94216 0.0
C325 C 0.67786 0.52552 0.95542 0.0
C326 C 0.69414 0.51466 0.96113 0.0
C327 C 0.71975 0.52224 0.95376 0.0
H328 H 0.7891 0.51639 0.9604 0.0
H329 H 0.82083 0.50576 0.97508 0.0
H330 H 0.88689 0.55861 0.94199 0.0
H331 H 0.85513 0.56929 0.92715 0.0
H332 H 0.83359 0.5794 0.89045 0.0
H333 H 0.84361 0.59807 0.86233 0.0
H334 H 0.76743 0.60065 0.86223 0.0
H335 H 0.75706 0.58143 0.89016 0.0
H336 H 0.72015 0.56568 0.92435 0.0
H337 H 0.67556 0.55266 0.9374 0.0
H338 H 0.68713 0.5004 0.97139 0.0
H339 H 0.73168 0.51341 0.95851 0.0
N340 N 0.775 0.54302 0.9404 0.0
N341 N 0.8061 0.56149 0.91808 0.0
N342 N 0.76324 0.56007 0.9171 0.0
C343 C 0.79981 0.54968 0.93343 0.0
C344 C 0.78788 0.56668 0.90977 0.0
C345 C 0.75664 0.54822 0.93241 0.0
C346 C 0.81947 0.54367 0.9425 0.0
C347 C 0.8104 0.5259 0.95624 0.0
C348 C 0.82856 0.5197 0.96466 0.0
C349 C 0.85636 0.53137 0.95972 0.0
C350 C 0.86564 0.54951 0.9462 0.0
C351 C 0.84736 0.55545 0.93761 0.0
C352 C 0.79446 0.5788 0.8927 0.0
C353 C 0.81894 0.58395 0.88448 0.0
C354 C 0.82478 0.59482 0.86832 0.0
C355 C 0.80634 0.60089 0.85989 0.0
C356 C 0.78194 0.59585 0.86815 0.0
C357 C 0.77608 0.58497 0.88429 0.0
C358 C 0.72956 0.54059 0.94033 0.0
C359 C 0.71323 0.55144 0.93461 0.0
C360 C 0.42777 0.12071 0.93947 0.0
C361 C 0.43427 0.12306 0.95657 0.0
C362 C 0.43794 0.14604 0.96528 0.0
C363 C 0.43584 0.16651 0.95702 0.0
H364 H 0.44914 0.24247 0.96441 0.0
H365 H 0.46254 0.28458 0.97923 0.0
H366 H 0.45987 0.32209 0.93296 0.0
H367 H 0.44574 0.27985 0.91818 0.0
H368 H 0.41744 0.24275 0.88693 0.0
H369 H 0.39963 0.23711 0.85863 0.0
H370 H 0.38129 0.15393 0.85858 0.0
H371 H 0.39872 0.15932 0.88707 0.0
H372 H 0.42098 0.13892 0.91796 0.0
H373 H 0.42512 0.1034 0.93234 0.0
H374 H 0.44249 0.14826 0.97852 0.0
H375 H 0.43904 0.18401 0.96416 0.0
N376 N 0.43728 0.21078 0.93901 0.0
N377 N 0.4282 0.22858 0.91506 0.0
N378 N 0.42012 0.184 0.91494 0.0
C379 C 0.43705 0.23174 0.93114 0.0
C380 C 0.41963 0.20477 0.90686 0.0
C381 C 0.42893 0.18688 0.93103 0.0
C382 C 0.44614 0.25765 0.94008 0.0
C383 C 0.45146 0.25969 0.95735 0.0
C384 C 0.45932 0.28391 0.96587 0.0
C385 C 0.46214 0.30667 0.95731 0.0
C386 C 0.45737 0.30478 0.93999 0.0
C387 C 0.44937 0.28056 0.93149 0.0
C388 C 0.40949 0.20147 0.88938 0.0
C389 C 0.40969 0.22323 0.88094 0.0
C390 C 0.39961 0.22007 0.86463 0.0
C391 C 0.38904 0.19508 0.85633 0.0
C392 C 0.389 0.17336 0.86469 0.0
C393 C 0.39915 0.17652 0.88101 0.0
C394 C 0.42989 0.16447 0.93984 0.0
C395 C 0.42555 0.14117 0.93119 0.0
C396 C 0.86577 0.30487 0.94507 0.0
C397 C 0.85911 0.31038 0.96099 0.0
C398 C 0.83458 0.29074 0.96864 0.0
C399 C 0.81697 0.26636 0.96054 0.0
H400 H 0.74041 0.20326 0.96396 0.0
H401 H 0.6972 0.17319 0.97807 0.0
H402 H 0.68048 0.11011 0.94232 0.0
H403 H 0.724 0.14032 0.92797 0.0
H404 H 0.76027 0.16111 0.89275 0.0
H405 H 0.77064 0.15219 0.86468 0.0
H406 H 0.84659 0.22931 0.86488 0.0
H407 H 0.83661 0.23806 0.89299 0.0
H408 H 0.85371 0.27696 0.9246 0.0
H409 H 0.88441 0.31968 0.93876 0.0
H410 H 0.82903 0.29413 0.98099 0.0
H411 H 0.79823 0.25185 0.96689 0.0
N412 N 0.7802 0.2169 0.94353 0.0
N413 N 0.76767 0.18786 0.92041 0.0
N414 N 0.80949 0.22947 0.92033 0.0
C415 C 0.76192 0.19329 0.93599 0.0
C416 C 0.79146 0.20592 0.91246 0.0
C417 C 0.80401 0.23508 0.9359 0.0
C418 C 0.73575 0.17431 0.94472 0.0
C419 C 0.72772 0.18296 0.95906 0.0
C420 C 0.70286 0.16576 0.96718 0.0
C421 C 0.68545 0.13933 0.9613 0.0
C422 C 0.69363 0.13034 0.9472 0.0
C423 C 0.71845 0.14771 0.93892 0.0
C424 C 0.7976 0.2003 0.89527 0.0
C425 C 0.77922 0.17619 0.88685 0.0
C426 C 0.78508 0.17113 0.87067 0.0
C427 C 0.8095 0.19 0.86246 0.0
C428 C 0.8278 0.21411 0.87086 0.0
C429 C 0.82195 0.21919 0.88702 0.0
C430 C 0.82335 0.26089 0.94452 0.0
C431 C 0.84808 0.28042 0.93691 0.0
C432 C 0.56896 0.69562 0.07433 0.0
C433 C 0.55567 0.69011 0.05873 0.0
C434 C 0.55191 0.71019 0.05104 0.0
C435 C 0.56122 0.73525 0.05877 0.0
H436 H 0.57295 0.81093 0.0499 0.0
H437 H 0.56637 0.84534 0.03602 0.0
H438 H 0.5923 0.89404 0.08087 0.0
H439 H 0.59958 0.86008 0.09463 0.0
H440 H 0.62871 0.84475 0.12257 0.0
H441 H 0.64844 0.85394 0.15042 0.0
H442 H 0.62789 0.77043 0.15532 0.0
H443 H 0.60771 0.76094 0.12731 0.0
H444 H 0.58824 0.72416 0.09416 0.0
H445 H 0.57188 0.6804 0.08064 0.0
H446 H 0.54203 0.70665 0.03893 0.0
H447 H 0.55797 0.75023 0.05243 0.0
N448 N 0.5815 0.78706 0.07468 0.0
N449 N 0.60142 0.81604 0.09755 0.0
N450 N 0.59547 0.77229 0.09815 0.0
C451 C 0.5901 0.81145 0.08205 0.0
C452 C 0.60422 0.79663 0.10569 0.0
C453 C 0.5841 0.76737 0.08262 0.0
C454 C 0.58673 0.83265 0.07342 0.0
C455 C 0.57737 0.82901 0.0568 0.0
C456 C 0.57348 0.8487 0.04885 0.0
C457 C 0.57877 0.87242 0.05734 0.0
C458 C 0.58844 0.8762 0.07388 0.0
C459 C 0.59243 0.85659 0.08181 0.0
C460 C 0.61659 0.80208 0.12263 0.0
C461 C 0.62837 0.82826 0.12949 0.0
C462 C 0.6399 0.83362 0.14544 0.0
C463 C 0.63991 0.81295 0.155 0.0
C464 C 0.62808 0.78672 0.14824 0.0
C465 C 0.61664 0.78136 0.13217 0.0
C466 C 0.57443 0.74079 0.07442 0.0
C467 C 0.57819 0.72066 0.08211 0.0
C468 C 0.31292 0.86712 0.07541 0.0
C469 C 0.31952 0.85654 0.0614 0.0
C470 C 0.30125 0.82966 0.0566 0.0
C471 C 0.27702 0.81364 0.06563 0.0
H472 H 0.20787 0.73573 0.06744 0.0
H473 H 0.17266 0.69306 0.05547 0.0
H474 H 0.10992 0.69795 0.08457 0.0
H475 H 0.14555 0.73979 0.09726 0.0
H476 H 0.17397 0.76675 0.1345 0.0
H477 H 0.1664 0.77711 0.16264 0.0
H478 H 0.24241 0.85405 0.16033 0.0
H479 H 0.25049 0.84339 0.13203 0.0
H480 H 0.28442 0.85964 0.0954 0.0
H481 H 0.32677 0.8877 0.0795 0.0
H482 H 0.3057 0.82099 0.04582 0.0
H483 H 0.26354 0.79297 0.06154 0.0
N484 N 0.22489 0.78293 0.08256 0.0
N485 N 0.19743 0.77406 0.10638 0.0
N486 N 0.24086 0.81369 0.10497 0.0
C487 C 0.20111 0.76669 0.09092 0.0
C488 C 0.21719 0.79737 0.11359 0.0
C489 C 0.2448 0.80655 0.08939 0.0
C490 C 0.1795 0.74109 0.08332 0.0
C491 C 0.18653 0.72766 0.07126 0.0
C492 C 0.16622 0.70323 0.06429 0.0
C493 C 0.13822 0.69189 0.06893 0.0
C494 C 0.13123 0.70563 0.08088 0.0
C495 C 0.15166 0.72977 0.0881 0.0
C496 C 0.21283 0.80428 0.13084 0.0
C497 C 0.18917 0.78595 0.13988 0.0
C498 C 0.18469 0.79195 0.15607 0.0
C499 C 0.20364 0.81652 0.16376 0.0
C500 C 0.22748 0.83483 0.15484 0.0
C501 C 0.23203 0.82878 0.13857 0.0
C502 C 0.27054 0.82398 0.07983 0.0
C503 C 0.28878 0.85096 0.0846 0.0
C504 C 0.14183 0.44873 0.07468 0.0
C505 C 0.15246 0.46781 0.06169 0.0
C506 C 0.18019 0.47832 0.05689 0.0
C507 C 0.19694 0.46989 0.06487 0.0
H508 H 0.27735 0.41733 0.0963 0.0
H509 H 0.31738 0.42075 0.08195 0.0
H510 H 0.30803 0.46774 0.04289 0.0
H511 H 0.26783 0.46452 0.0573 0.0
H512 H 0.24268 0.40487 0.12878 0.0
H513 H 0.23161 0.38509 0.1565 0.0
H514 H 0.15943 0.3946 0.15782 0.0
H515 H 0.17016 0.414 0.12984 0.0
H516 H 0.14994 0.42603 0.0929 0.0
H517 H 0.12059 0.44049 0.07873 0.0
H518 H 0.18888 0.49301 0.04689 0.0
H519 H 0.21823 0.47842 0.06084 0.0
N520 N 0.22773 0.44576 0.079 0.0
N521 N 0.23734 0.42646 0.10203 0.0
N522 N 0.1978 0.43109 0.10208 0.0
C523 C 0.24424 0.43771 0.08658 0.0
C524 C 0.21426 0.42316 0.10993 0.0
C525 C 0.20444 0.44246 0.08661 0.0
C526 C 0.26918 0.44054 0.07796 0.0
C527 C 0.28375 0.42847 0.08468 0.0
C528 C 0.30664 0.43027 0.07639 0.0
C529 C 0.31572 0.44431 0.0612 0.0
C530 C 0.30157 0.45685 0.05459 0.0
C531 C 0.27845 0.45487 0.06284 0.0
C532 C 0.20733 0.41109 0.12696 0.0
C533 C 0.22441 0.4028 0.13491 0.0
C534 C 0.21817 0.39158 0.15092 0.0
C535 C 0.19467 0.38831 0.15948 0.0
C536 C 0.17753 0.39654 0.15154 0.0
C537 C 0.18379 0.40781 0.1355 0.0
C538 C 0.18648 0.4511 0.07804 0.0
C539 C 0.15871 0.44063 0.08286 0.0
C540 C 0.36958 0.90062 0.27892 0.0
C541 C 0.36138 0.88802 0.29459 0.0
C542 C 0.37651 0.8768 0.30169 0.0
C543 C 0.3998 0.87887 0.29349 0.0
H544 H 0.47074 0.86683 0.29858 0.0
H545 H 0.50695 0.86189 0.31297 0.0
H546 H 0.56543 0.90975 0.27474 0.0
H547 H 0.52967 0.91452 0.26036 0.0
H548 H 0.50542 0.91721 0.22497 0.0
H549 H 0.5148 0.93421 0.1965 0.0
H550 H 0.43975 0.93884 0.19649 0.0
H551 H 0.42999 0.92127 0.22488 0.0
H552 H 0.39815 0.91249 0.25868 0.0
H553 H 0.35818 0.90917 0.273 0.0
H554 H 0.37073 0.86702 0.31377 0.0
H555 H 0.41127 0.87041 0.29942 0.0
N556 N 0.45218 0.89046 0.27727 0.0
N557 N 0.48012 0.90345 0.25329 0.0
N558 N 0.43829 0.9038 0.25304 0.0
C559 C 0.47572 0.89473 0.26939 0.0
C560 C 0.46152 0.90792 0.24496 0.0
C561 C 0.43336 0.89506 0.26916 0.0
C562 C 0.4972 0.89111 0.27829 0.0
C563 C 0.49132 0.87627 0.29325 0.0
C564 C 0.51199 0.87332 0.30145 0.0
C565 C 0.53908 0.88558 0.29504 0.0
C566 C 0.54486 0.90031 0.28011 0.0
C567 C 0.52422 0.90289 0.2718 0.0
C568 C 0.46694 0.91787 0.22737 0.0
C569 C 0.49081 0.92176 0.21894 0.0
C570 C 0.49631 0.93169 0.20258 0.0
C571 C 0.47814 0.93807 0.19413 0.0
C572 C 0.45409 0.93388 0.20248 0.0
C573 C 0.44857 0.92393 0.21886 0.0
C574 C 0.4082 0.89185 0.27788 0.0
C575 C 0.39251 0.90238 0.27066 0.0
C576 C 0.09311 0.46358 0.28349 0.0
C577 C 0.10129 0.46837 0.30035 0.0
C578 C 0.10233 0.49076 0.30842 0.0
C579 C 0.09592 0.50826 0.29976 0.0
H580 H 0.10047 0.58164 0.30472 0.0
H581 H 0.11056 0.62427 0.31779 0.0
H582 H 0.09039 0.64987 0.2717 0.0
H583 H 0.07964 0.6071 0.25875 0.0
H584 H 0.04908 0.56445 0.23108 0.0
H585 H 0.02744 0.55418 0.20375 0.0
H586 H 0.03283 0.48121 0.20149 0.0
H587 H 0.05486 0.49153 0.22906 0.0
H588 H 0.08053 0.47676 0.26184 0.0
H589 H 0.09176 0.4463 0.27696 0.0
H590 H 0.10875 0.49515 0.32135 0.0
H591 H 0.0973 0.52548 0.30639 0.0
N592 N 0.08777 0.54674 0.28083 0.0
N593 N 0.07198 0.55868 0.25701 0.0
N594 N 0.07139 0.5172 0.25782 0.0
C595 C 0.08281 0.56476 0.27264 0.0
C596 C 0.06615 0.535 0.24947 0.0
C597 C 0.08219 0.52295 0.27356 0.0
C598 C 0.08915 0.5908 0.28065 0.0
C599 C 0.09814 0.59632 0.29735 0.0
C600 C 0.10408 0.62086 0.30485 0.0
C601 C 0.10125 0.64053 0.29583 0.0
C602 C 0.09236 0.63503 0.27913 0.0
C603 C 0.08634 0.61049 0.27165 0.0
C604 C 0.05365 0.52875 0.23244 0.0
C605 C 0.04581 0.5462 0.22485 0.0
C606 C 0.03322 0.54026 0.20915 0.0
C607 C 0.02817 0.51676 0.20049 0.0
C608 C 0.03654 0.49955 0.20782 0.0
C609 C 0.04903 0.50541 0.22367 0.0
C610 C 0.08811 0.50373 0.28281 0.0
C611 C 0.08652 0.48099 0.27484 0.0
C612 C 0.52636 0.63159 0.28024 0.0
C613 C 0.51805 0.63627 0.29587 0.0
C614 C 0.49236 0.61655 0.30234 0.0
C615 C 0.47548 0.59269 0.29345 0.0
H616 H 0.39971 0.52221 0.29515 0.0
H617 H 0.35894 0.48581 0.30878 0.0
H618 H 0.35362 0.4299 0.2706 0.0
H619 H 0.39435 0.46612 0.25693 0.0
H620 H 0.42754 0.49498 0.22155 0.0
H621 H 0.44294 0.48751 0.19452 0.0
H622 H 0.52325 0.55811 0.20241 0.0
H623 H 0.50807 0.56568 0.22936 0.0
H624 H 0.51661 0.60498 0.25932 0.0
H625 H 0.54583 0.64652 0.27478 0.0
H626 H 0.48544 0.61938 0.31441 0.0
H627 H 0.45592 0.57794 0.2989 0.0
N628 N 0.44214 0.54263 0.27528 0.0
N629 N 0.43392 0.51542 0.25157 0.0
N630 N 0.47363 0.55846 0.25306 0.0
C631 C 0.42599 0.51903 0.26698 0.0
C632 C 0.45769 0.53507 0.24448 0.0
C633 C 0.46601 0.56246 0.26844 0.0
C634 C 0.40048 0.49715 0.27493 0.0
C635 C 0.38986 0.50218 0.2896 0.0
C636 C 0.36639 0.48136 0.2974 0.0
C637 C 0.35316 0.45495 0.29083 0.0
C638 C 0.36357 0.44997 0.27609 0.0
C639 C 0.38684 0.47081 0.26819 0.0
C640 C 0.46657 0.53087 0.22775 0.0
C641 C 0.44847 0.50898 0.21753 0.0
C642 C 0.45721 0.50478 0.20197 0.0
C643 C 0.48434 0.52215 0.19635 0.0
C644 C 0.50231 0.54419 0.20646 0.0
C645 C 0.49351 0.54858 0.22191 0.0
C646 C 0.48381 0.58797 0.27782 0.0
C647 C 0.50946 0.60779 0.27132 0.0
Eu648 Eu 0.48703 0.97969 0.98985 0.0
C649 C 0.54045 0.07572 0.03736 0.0
C650 C 0.59003 0.09901 0.03267 0.0
C651 C 0.56772 0.12451 0.04114 0.0
C652 C 0.56407 0.07501 0.03274 0.0
C653 C 0.54212 0.10037 0.04199 0.0
C654 C 0.59162 0.12384 0.03646 0.0
C655 C 0.49351 0.07511 0.04926 0.0
N656 N 0.51599 0.05202 0.03804 0.0
C657 C 0.4929 0.05114 0.0446 0.0
C658 C 0.51814 0.09987 0.04775 0.0
Eu659 Eu 0.51698 0.01257 0.02995 0.0
N660 N 0.56196 0.05063 0.02953 0.0
C661 C 0.58509 0.04847 0.02758 0.0
C662 C 0.61374 0.09717 0.02945 0.0
C663 C 0.61129 0.07173 0.02718 0.0
H664 H 0.47389 0.03193 0.04568 0.0
H665 H 0.62956 0.07002 0.02512 0.0
H666 H 0.61135 0.14253 0.03631 0.0
H667 H 0.47503 0.07448 0.05402 0.0
H668 H 0.58328 0.02881 0.02592 0.0
H669 H 0.37438 0.92377 0.9946 0.0
H670 H 0.63407 0.11514 0.02921 0.0
H671 H 0.52942 0.95934 0.97416 0.0
H672 H 0.42095 0.96453 0.99376 0.0
H673 H 0.52744 0.91637 0.96592 0.0
H674 H 0.56939 0.14372 0.04448 0.0
H675 H 0.36913 0.87834 0.99062 0.0
H676 H 0.39114 0.8503 0.98365 0.0
H677 H 0.51856 0.1184 0.05142 0.0
H678 H 0.4327 0.8483 0.97558 0.0
N679 N 0.44174 0.94217 0.99027 0.0
C680 C 0.41884 0.94475 0.99217 0.0
C681 C 0.3896 0.89612 0.99038 0.0
C682 C 0.41307 0.89385 0.98721 0.0
C683 C 0.39246 0.92173 0.99259 0.0
C684 C 0.43924 0.9176 0.98714 0.0
H685 H 0.4835 0.87287 0.96866 0.0
N686 N 0.48739 0.93986 0.98194 0.0
C687 C 0.50915 0.9161 0.9707 0.0
C688 C 0.46267 0.91643 0.98261 0.0
C689 C 0.51022 0.9403 0.97531 0.0
C690 C 0.4843 0.89157 0.97229 0.0
C691 C 0.46054 0.89156 0.97803 0.0
O692 O 0.50453 0.98938 0.96477 0.0
O693 O 0.52682 0.00657 1.00394 0.0
O694 O 0.50386 0.03825 0.01446 0.0
O695 O 0.46873 0.00557 0.99802 0.0
O696 O 0.5232 0.01866 0.98041 0.0
O697 O 0.46292 0.9823 0.9691 0.0
O698 O 0.50097 0.00362 0.05543 0.0
O699 O 0.47726 0.98579 0.01584 0.0
O700 O 0.50011 0.95403 1.00526 0.0
O701 O 0.5354 0.98686 0.0215 0.0
O702 O 0.48025 0.97416 0.03956 0.0
O703 O 0.54139 0.00853 0.04996 0.0
C704 C 0.53866 0.02513 0.99331 0.0
C705 C 0.47342 0.97209 0.94214 0.0
C706 C 0.47833 0.9713 0.91179 0.0
C707 C 0.48518 0.98563 0.92704 0.0
C708 C 0.45936 0.94328 0.91193 0.0
C709 C 0.45444 0.94419 0.9419 0.0
C710 C 0.44748 0.92992 0.92686 0.0
C711 C 0.48302 0.03069 1.0038 0.0
C712 C 0.48213 0.98714 0.95804 0.0
C713 C 0.43471 0.86767 0.97888 0.0
C714 C 0.41105 0.8688 0.98349 0.0
C715 C 0.46509 0.96741 0.02653 0.0
C716 C 0.53366 0.01924 0.07741 0.0
C717 C 0.52623 0.00505 0.09269 0.0
C718 C 0.5364 0.019 0.10795 0.0
C719 C 0.55357 0.04736 0.10762 0.0
C720 C 0.55095 0.04744 0.07748 0.0
C721 C 0.56071 0.0614 0.09251 0.0
C722 C 0.52121 0.96174 0.0157 0.0
C723 C 0.52314 0.00446 0.06153 0.0
H724 H 0.50006 0.00715 0.92722 0.0
H725 H 0.45343 0.93173 0.90042 0.0
H726 H 0.44506 0.93343 0.95331 0.0
H727 H 0.43283 0.90838 0.92678 0.0
H728 H 0.51305 0.98321 0.09265 0.0
H729 H 0.56139 0.05877 0.11909 0.0
H730 H 0.55697 0.05869 0.06595 0.0
H731 H 0.57396 0.0832 0.09245 0.0
Eu732 Eu 0.02682 0.50737 0.99007 0.0
C733 C 0.92076 0.46232 0.0294 0.0
C734 C 0.90348 0.49366 0.02612 0.0
C735 C 0.87113 0.44534 0.02839 0.0
C736 C 0.92583 0.48867 0.02734 0.0
C737 C 0.89333 0.44056 0.03057 0.0
C738 C 0.87619 0.47182 0.02613 0.0
C739 C 0.91164 0.41141 0.0381 0.0
N740 N 0.94258 0.45816 0.0315 0.0
C741 C 0.93845 0.43358 0.0369 0.0
C742 C 0.88899 0.41479 0.03458 0.0
Eu743 Eu 0.98696 0.49712 0.02865 0.0
N744 N 0.95243 0.50954 0.02748 0.0
C745 C 0.95801 0.53577 0.02779 0.0
C746 C 0.90916 0.52051 0.02541 0.0
C747 C 0.9365 0.54164 0.02657 0.0
H748 H 0.95602 0.43092 0.03946 0.0
H749 H 0.94106 0.56247 0.02641 0.0
H750 H 0.85882 0.47527 0.02496 0.0
H751 H 0.90846 0.39175 0.04171 0.0
H752 H 0.979 0.55234 0.02868 0.0
H753 H 0.10568 0.4783 0.9983 0.0
H754 H 0.89257 0.52515 0.02442 0.0
H755 H 0.03204 0.56313 0.97372 0.0
H756 H 0.05813 0.47134 0.99694 0.0
H757 H 0.06843 0.60747 0.96268 0.0
H758 H 0.84993 0.42881 0.02899 0.0
H759 H 0.14578 0.52334 0.99178 0.0
H760 H 0.16328 0.57091 0.98144 0.0
H761 H 0.86822 0.39758 0.03557 0.0
H762 H 0.15306 0.60568 0.97103 0.0
N763 N 0.07159 0.51255 0.99169 0.0
C764 C 0.07569 0.49129 0.99483 0.0
C765 C 0.12506 0.52052 0.99162 0.0
C766 C 0.12046 0.54164 0.98693 0.0
C767 C 0.10249 0.49507 0.99531 0.0
C768 C 0.09309 0.5369 0.98701 0.0
H769 H 0.11765 0.61926 0.96359 0.0
N770 N 0.06066 0.55073 0.98094 0.0
C771 C 0.07404 0.59334 0.9679 0.0
C772 C 0.08739 0.55641 0.98108 0.0
C773 C 0.05355 0.56838 0.97417 0.0
C774 C 0.10182 0.59992 0.96843 0.0
C775 C 0.10879 0.5813 0.97502 0.0
O776 O 0.01318 0.50492 0.96426 0.0
O777 O 0.99609 0.51527 1.00345 0.0
O778 O 0.96478 0.46132 0.01051 0.0
O779 O 1.00253 0.46313 0.99762 0.0
O780 O 0.99086 0.50923 0.97818 0.0
O781 O 0.03163 0.48102 0.97214 0.0
O782 O 0.98987 0.47942 0.05218 0.0
O783 O 0.01818 0.48899 0.01555 0.0
O784 O 0.04985 0.54525 1.00646 0.0
O785 O 0.01559 0.54232 0.02473 0.0
O786 O 0.02775 0.50468 0.03931 0.0
O787 O 0.98601 0.51571 0.05228 0.0
C788 C 0.98007 0.5122 0.99151 0.0
C789 C 0.04013 0.4982 0.94437 0.0
C790 C 0.04388 0.50683 0.91429 0.0
C791 C 0.02773 0.49712 0.92888 0.0
C792 C 0.07275 0.51789 0.91556 0.0
C793 C 0.06889 0.50885 0.94521 0.0
C794 C 0.08506 0.51875 0.93089 0.0
C795 C 0.97564 0.45038 1.00069 0.0
C796 C 0.02292 0.48937 0.95956 0.0
C797 C 0.13626 0.58659 0.97551 0.0
C798 C 0.14209 0.56681 0.9815 0.0
C799 C 0.03626 0.49681 0.02688 0.0
C800 C 0.97112 0.48783 0.07646 0.0
C801 C 0.98436 0.49169 0.092 0.0
C802 C 0.96883 0.48267 0.10685 0.0
C803 C 0.93974 0.46946 0.10579 0.0
C804 C 0.94217 0.47479 0.07572 0.0
C805 C 0.92659 0.46558 0.09033 0.0
C806 C 0.0409 0.55549 0.01825 0.0
C807 C 0.98807 0.49757 0.06126 0.0
H808 H 0.00546 0.48849 0.92822 0.0
H809 H 0.08591 0.52609 0.90471 0.0
H810 H 0.07894 0.50967 0.9569 0.0
H811 H 0.10727 0.52722 0.93169 0.0
H812 H 0.00679 0.50215 0.09252 0.0
H813 H 0.9271 0.46189 0.11689 0.0
H814 H 0.93163 0.47177 0.0639 0.0
H815 H 0.90421 0.4554 0.08969 0.0
Eu816 Eu 0.51546 0.4893 0.02661 0.0
C817 C 0.43377 0.51577 0.98871 0.0
C818 C 0.39112 0.4726 0.98792 0.0
C819 C 0.3893 0.51423 0.98693 0.0
C820 C 0.42045 0.48768 0.98848 0.0
C821 C 0.41826 0.52927 0.98783 0.0
C822 C 0.37577 0.48599 0.98701 0.0
C823 C 0.46106 0.57189 0.9885 0.0
N824 N 0.46176 0.53002 0.99003 0.0
C825 C 0.47552 0.55777 0.98934 0.0
C826 C 0.43227 0.55759 0.98785 0.0
Eu827 Eu 0.48566 0.50525 0.9901 0.0
N828 N 0.43583 0.47513 0.98971 0.0
C829 C 0.42227 0.4474 0.99152 0.0
C830 C 0.3778 0.44442 0.98876 0.0
C831 C 0.39344 0.43184 0.99076 0.0
H832 H 0.49787 0.56931 0.98956 0.0
H833 H 0.38326 0.41005 0.9922 0.0
H834 H 0.35334 0.47464 0.98655 0.0
H835 H 0.47218 0.59382 0.98826 0.0
H836 H 0.43267 0.43646 0.99459 0.0
H837 H 0.62758 0.54443 0.01747 0.0
H838 H 0.3554 0.43225 0.98844 0.0
H839 H 0.47581 0.42528 0.04084 0.0
H840 H 0.58142 0.53918 0.02186 0.0
H841 H 0.4786 0.38376 0.0442 0.0
H842 H 0.37715 0.52428 0.98627 0.0
H843 H 0.63327 0.50405 0.01681 0.0
H844 H 0.612 0.45372 0.02039 0.0
H845 H 0.42107 0.56859 0.98719 0.0
H846 H 0.57143 0.40995 0.02781 0.0
N847 N 0.56079 0.49613 0.02317 0.0
C848 C 0.5835 0.52135 0.02161 0.0
C849 C 0.6129 0.50161 0.01876 0.0
C850 C 0.58985 0.47598 0.02146 0.0
C851 C 0.60979 0.52444 0.01916 0.0
C852 C 0.56378 0.47393 0.02386 0.0
H853 H 0.52178 0.38379 0.03702 0.0
N854 N 0.5167 0.44861 0.03114 0.0
C855 C 0.49626 0.40203 0.03952 0.0
C856 C 0.54105 0.4494 0.02806 0.0
C857 C 0.49476 0.42566 0.03754 0.0
C858 C 0.52066 0.40212 0.03545 0.0
C859 C 0.54362 0.42611 0.02993 0.0
O860 O 0.4978 0.48914 0.05112 0.0
O861 O 0.48154 0.49578 0.01693 0.0
O862 O 0.49976 0.53781 0.01029 0.0
O863 O 0.53574 0.53469 0.02216 0.0
O864 O 0.46965 0.46234 0.032 0.0
O865 O 0.54185 0.50974 0.04821 0.0
O866 O 0.51466 0.54122 0.97607 0.0
O867 O 0.52444 0.50959 1.00175 0.0
O868 O 0.50007 0.45353 1.0085 0.0
O869 O 0.47688 0.46218 0.98674 0.0
O870 O 0.51559 0.49511 0.97738 0.0
O871 O 0.4788 0.50766 0.96332 0.0
C872 C 0.46102 0.47602 0.02364 0.0
C873 C 0.52378 0.49092 0.07473 0.0
C874 C 0.51668 0.48714 0.10497 0.0
C875 C 0.51458 0.49753 0.08941 0.0
C876 C 0.52797 0.46988 0.10554 0.0
C877 C 0.53479 0.47353 0.07559 0.0
C878 C 0.53686 0.46311 0.09094 0.0
C879 C 0.52258 0.54822 0.0194 0.0
C880 C 0.52148 0.50214 0.05863 0.0
C881 C 0.56915 0.4277 0.02665 0.0
C882 C 0.59223 0.4526 0.02242 0.0
C883 C 0.53324 0.50221 0.98941 0.0
C884 C 0.51004 0.54675 0.94639 0.0
C885 C 0.50833 0.53353 0.93119 0.0
C886 C 0.51951 0.54868 0.9165 0.0
C887 C 0.53142 0.57702 0.91711 0.0
C888 C 0.52216 0.57504 0.9467 0.0
C889 C 0.53254 0.59004 0.93209 0.0
C890 C 0.48469 0.44654 0.99469 0.0
C891 C 0.50112 0.53147 0.96212 0.0
H892 H 0.50614 0.51103 0.08873 0.0
H893 H 0.52956 0.46127 0.11725 0.0
H894 H 0.54179 0.46804 0.06442 0.0
H895 H 0.54535 0.44967 0.09153 0.0
H896 H 0.49952 0.51172 0.93096 0.0
H897 H 0.53989 0.58913 0.90596 0.0
H898 H 0.52371 0.58557 0.95828 0.0
H899 H 0.5418 0.61186 0.93242 0.0
Eu900 Eu 0.15383 0.31144 0.32271 0.0
C901 C 0.21586 0.41255 0.36384 0.0
C902 C 0.26355 0.42308 0.36106 0.0
C903 C 0.25307 0.45958 0.36266 0.0
C904 C 0.23499 0.40388 0.36216 0.0
C905 C 0.22492 0.44055 0.36477 0.0
C906 C 0.27235 0.45085 0.36077 0.0
C907 C 0.17845 0.42912 0.37232 0.0
N908 N 0.18878 0.39376 0.36603 0.0
C909 C 0.17054 0.4017 0.37145 0.0
C910 C 0.20563 0.44865 0.36859 0.0
Eu911 Eu 0.177 0.3475 0.36288 0.0
N912 N 0.22595 0.37685 0.3625 0.0
C913 C 0.24469 0.368 0.36336 0.0
C914 C 0.28256 0.41386 0.36072 0.0
C915 C 0.27311 0.38624 0.36222 0.0
H916 H 0.1494 0.38676 0.37446 0.0
H917 H 0.2877 0.37894 0.36243 0.0
H918 H 0.29413 0.46579 0.35967 0.0
H919 H 0.16359 0.43515 0.37593 0.0
H920 H 0.23819 0.3469 0.36458 0.0
H921 H 0.05103 0.3009 0.32419 0.0
H922 H 0.30461 0.42794 0.35981 0.0
H923 H 0.17122 0.26474 0.3124 0.0
H924 H 0.1021 0.32536 0.32348 0.0
H925 H 0.14872 0.2149 0.30923 0.0
H926 H 0.26029 0.48111 0.36307 0.0
H927 H 0.02496 0.25075 0.32413 0.0
H928 H 0.02569 0.207 0.32262 0.0
H929 H 0.21179 0.46993 0.36941 0.0
H930 H 0.05235 0.18355 0.31887 0.0
N931 N 0.10496 0.28953 0.32316 0.0
C932 C 0.09099 0.30353 0.32338 0.0
C933 C 0.04738 0.26141 0.32374 0.0
C934 C 0.06185 0.24721 0.32284 0.0
C935 C 0.06202 0.28971 0.32375 0.0
C936 C 0.09104 0.26207 0.32237 0.0
H937 H 0.09819 0.18633 0.31358 0.0
N938 N 0.13397 0.26399 0.31921 0.0
C939 C 0.13649 0.22416 0.31255 0.0
C940 C 0.10603 0.24888 0.32049 0.0
C941 C 0.14914 0.25229 0.31434 0.0
C942 C 0.10798 0.20811 0.31506 0.0
C943 C 0.09227 0.22045 0.31871 0.0
O944 O 0.17087 0.30948 0.29847 0.0
O945 O 0.18807 0.34655 0.33609 0.0
O946 O 0.15348 0.36448 0.34848 0.0
O947 O 0.15567 0.35188 0.32119 0.0
O948 O 0.19921 0.32395 0.32103 0.0
O949 O 0.14131 0.32336 0.29983 0.0
O950 O 0.15484 0.34742 0.38542 0.0
O951 O 0.13982 0.31825 0.34751 0.0
O952 O 0.16289 0.28556 0.34039 0.0
O953 O 0.19156 0.31665 0.36054 0.0
O954 O 0.14336 0.30659 0.37141 0.0
O955 O 0.19175 0.34375 0.38742 0.0
C956 C 0.20853 0.34547 0.33017 0.0
C957 C 0.14318 0.30306 0.27458 0.0
C958 C 0.13666 0.30388 0.2444 0.0
C959 C 0.14946 0.31732 0.2594 0.0
C960 C 0.11763 0.27586 0.24491 0.0
C961 C 0.12403 0.27522 0.27477 0.0
C962 C 0.11141 0.26172 0.25999 0.0
C963 C 0.15237 0.36732 0.33215 0.0
C964 C 0.15638 0.31767 0.29009 0.0
C965 C 0.06327 0.20543 0.31997 0.0
C966 C 0.04809 0.21879 0.32206 0.0
C967 C 0.12826 0.29968 0.35828 0.0
C968 C 0.17902 0.35959 0.41134 0.0
C969 C 0.16971 0.34498 0.42635 0.0
C970 C 0.17666 0.35844 0.4419 0.0
C971 C 0.19295 0.38691 0.44206 0.0
C972 C 0.1954 0.38787 0.41182 0.0
C973 C 0.2022 0.40143 0.42713 0.0
C974 C 0.18042 0.29268 0.35307 0.0
C975 C 0.17182 0.34468 0.39542 0.0
H976 H 0.16395 0.33893 0.25934 0.0
H977 H 0.10773 0.26477 0.23362 0.0
H978 H 0.11881 0.26395 0.28631 0.0
H979 H 0.09673 0.24019 0.26021 0.0
H980 H 0.15749 0.32305 0.4259 0.0
H981 H 0.19837 0.39803 0.45371 0.0
H982 H 0.203 0.39942 0.40042 0.0
H983 H 0.21476 0.4233 0.42745 0.0
Eu984 Eu 0.68729 0.83239 0.32862 0.0
C985 C 0.58092 0.80353 0.36451 0.0
C986 C 0.57807 0.84462 0.36277 0.0
C987 C 0.53608 0.80085 0.36138 0.0
C988 C 0.59409 0.8317 0.36434 0.0
C989 C 0.55169 0.78795 0.3636 0.0
C990 C 0.54923 0.82908 0.36091 0.0
C991 C 0.55481 0.74787 0.36886 0.0
N992 N 0.59634 0.79129 0.36644 0.0
C993 C 0.58358 0.76399 0.36964 0.0
C994 C 0.53881 0.75983 0.36547 0.0
Eu995 Eu 0.6453 0.82034 0.36656 0.0
N996 N 0.6222 0.84648 0.36605 0.0
C997 C 0.63483 0.87416 0.36764 0.0
C998 C 0.59136 0.87284 0.36333 0.0
C999 C 0.61975 0.8876 0.36605 0.0
H1000 H 0.5957 0.75435 0.37223 0.0
H1001 H 0.63012 0.90947 0.36698 0.0
H1002 H 0.53682 0.83876 0.35948 0.0
H1003 H 0.54502 0.72622 0.37082 0.0
H1004 H 0.65652 0.88673 0.37017 0.0
H1005 H 0.73195 0.76575 0.33601 0.0
H1006 H 0.57978 0.88341 0.36207 0.0
H1007 H 0.72053 0.89631 0.31331 0.0
H1008 H 0.69501 0.77606 0.33131 0.0
H1009 H 0.7682 0.93412 0.3101 0.0
H1010 H 0.51371 0.78916 0.36041 0.0
H1011 H 0.78049 0.80267 0.33837 0.0
H1012 H 0.81489 0.85212 0.33626 0.0
H1013 H 0.51647 0.74728 0.36486 0.0
H1014 H 0.82486 0.89808 0.32909 0.0
N1015 N 0.72155 0.8191 0.33161 0.0
C1016 C 0.71576 0.79276 0.33236 0.0
C1017 C 0.76421 0.8075 0.3363 0.0
C1018 C 0.77036 0.83429 0.33421 0.0
C1019 C 0.73686 0.78663 0.33495 0.0
C1020 C 0.74837 0.83953 0.3316 0.0
H1021 H 0.80769 0.92862 0.31883 0.0
N1022 N 0.73259 0.86951 0.32394 0.0
C1023 C 0.76454 0.91498 0.31514 0.0
C1024 C 0.75404 0.86547 0.32763 0.0
C1025 C 0.7375 0.89335 0.31681 0.0
C1026 C 0.78674 0.91184 0.32016 0.0
C1027 C 0.78173 0.8867 0.32613 0.0
O1028 O 0.65778 0.81691 0.3078 0.0
O1029 O 0.64941 0.83025 0.33961 0.0
O1030 O 0.62467 0.78409 0.3487 0.0
O1031 O 0.66088 0.78726 0.3329 0.0
O1032 O 0.67318 0.86326 0.3247 0.0
O1033 O 0.70028 0.82955 0.30322 0.0
O1034 O 0.63853 0.79089 0.38627 0.0
O1035 O 0.67791 0.81354 0.354 0.0
O1036 O 0.70931 0.87038 0.34459 0.0
O1037 O 0.67948 0.86422 0.3669 0.0
O1038 O 0.68658 0.82997 0.37769 0.0
O1039 O 0.64297 0.83025 0.3924 0.0
C1040 C 0.65054 0.85093 0.33316 0.0
C1041 C 0.67586 0.83708 0.28181 0.0
C1042 C 0.67002 0.84009 0.25185 0.0
C1043 C 0.67011 0.82518 0.26586 0.0
C1044 C 0.67546 0.86682 0.25405 0.0
C1045 C 0.68106 0.86373 0.28364 0.0
C1046 C 0.6809 0.87849 0.26986 0.0
C1047 C 0.63488 0.77382 0.3379 0.0
C1048 C 0.67626 0.82172 0.2965 0.0
C1049 C 0.80351 0.88191 0.32991 0.0
C1050 C 0.79783 0.85575 0.33397 0.0
C1051 C 0.69564 0.82182 0.3656 0.0
C1052 C 0.62124 0.79599 0.41266 0.0
C1053 C 0.63373 0.7989 0.42831 0.0
C1054 C 0.61789 0.79172 0.44301 0.0
C1055 C 0.58905 0.78064 0.44176 0.0
C1056 C 0.59256 0.78553 0.41167 0.0
C1057 C 0.57651 0.77747 0.42616 0.0
C1058 C 0.70226 0.87891 0.3581 0.0
C1059 C 0.63937 0.80721 0.39807 0.0
H1060 H 0.66598 0.80457 0.26433 0.0
H1061 H 0.67505 0.87859 0.24355 0.0
H1062 H 0.68514 0.87323 0.29568 0.0
H1063 H 0.68486 0.899 0.27145 0.0
H1064 H 0.65608 0.80811 0.42908 0.0
H1065 H 0.57627 0.77471 0.45285 0.0
H1066 H 0.58263 0.78424 0.39987 0.0
H1067 H 0.55436 0.76933 0.42534 0.0
Eu1068 Eu 0.19204 0.83325 0.36855 0.0
C1069 C 0.12799 0.87483 0.32617 0.0
C1070 C 0.07939 0.84182 0.32941 0.0
C1071 C 0.0937 0.88934 0.32542 0.0
C1072 C 0.10737 0.84842 0.32879 0.0
C1073 C 0.12138 0.89552 0.324 0.0
C1074 C 0.07273 0.86252 0.32815 0.0
C1075 C 0.16956 0.92626 0.31767 0.0
N1076 N 0.15447 0.88002 0.32479 0.0
C1077 C 0.17505 0.90503 0.31987 0.0
C1078 C 0.14267 0.92159 0.31998 0.0
Eu1079 Eu 0.16238 0.8432 0.32915 0.0
N1080 N 0.11453 0.82893 0.32977 0.0
C1081 C 0.09461 0.8022 0.33018 0.0
C1082 C 0.05893 0.81454 0.33077 0.0
C1083 C 0.06656 0.79462 0.33088 0.0
H1084 H 0.19588 0.90875 0.31812 0.0
H1085 H 0.05089 0.77343 0.33163 0.0
H1086 H 0.05139 0.8579 0.3288 0.0
H1087 H 0.18605 0.94621 0.3142 0.0
H1088 H 0.10029 0.78666 0.33043 0.0
H1089 H 0.30182 0.91065 0.36354 0.0
H1090 H 0.0372 0.80862 0.33135 0.0
H1091 H 0.16484 0.7686 0.3821 0.0
H1092 H 0.25215 0.89407 0.36605 0.0
H1093 H 0.18005 0.73505 0.3865 0.0
H1094 H 0.08821 0.905 0.32398 0.0
H1095 H 0.31935 0.87845 0.36371 0.0
H1096 H 0.30968 0.83085 0.36689 0.0
H1097 H 0.13845 0.93805 0.31821 0.0
H1098 H 0.27659 0.78308 0.37293 0.0
N1099 N 0.24076 0.85231 0.36713 0.0
C1100 C 0.2591 0.87952 0.36615 0.0
C1101 C 0.29731 0.8709 0.36482 0.0
C1102 C 0.27867 0.84323 0.36684 0.0
C1103 C 0.2875 0.88914 0.36474 0.0
C1104 C 0.2501 0.83435 0.3681 0.0
H1105 H 0.22848 0.74739 0.38058 0.0
N1106 N 0.20411 0.79928 0.37319 0.0
C1107 C 0.1946 0.75515 0.38203 0.0
C1108 C 0.2313 0.80716 0.37115 0.0
C1109 C 0.18612 0.77421 0.37959 0.0
C1110 C 0.22193 0.76218 0.37862 0.0
C1111 C 0.24081 0.78858 0.3735 0.0
O1112 O 0.17276 0.81515 0.39231 0.0
O1113 O 0.15338 0.82426 0.3543 0.0
O1114 O 0.16919 0.87584 0.34793 0.0
O1115 O 0.20442 0.87748 0.36456 0.0
O1116 O 0.1537 0.83162 0.37936 0.0
O1117 O 0.21006 0.85512 0.39175 0.0
O1118 O 0.18152 0.85373 0.30441 0.0
O1119 O 0.19784 0.84196 0.34131 0.0
O1120 O 0.17683 0.79494 0.35294 0.0
O1121 O 0.14946 0.79854 0.33197 0.0
O1122 O 0.20812 0.87231 0.32421 0.0
O1123 O 0.14242 0.81711 0.30752 0.0
C1124 C 0.13968 0.8269 0.36594 0.0
C1125 C 0.20085 0.82882 0.41648 0.0
C1126 C 0.19709 0.82291 0.44677 0.0
C1127 C 0.18916 0.83002 0.43176 0.0
C1128 C 0.21687 0.81442 0.44618 0.0
C1129 C 0.22074 0.82061 0.41618 0.0
C1130 C 0.2286 0.81336 0.43098 0.0
C1131 C 0.1893 0.88795 0.35908 0.0
C1132 C 0.19137 0.83559 0.40105 0.0
C1133 C 0.26901 0.79717 0.37142 0.0
C1134 C 0.28787 0.8244 0.36804 0.0
C1135 C 0.21801 0.86117 0.33391 0.0
C1136 C 0.15082 0.83943 0.28157 0.0
C1137 C 0.158 0.83376 0.26584 0.0
C1138 C 0.14793 0.83941 0.25111 0.0
C1139 C 0.13107 0.85126 0.25241 0.0
C1140 C 0.13385 0.85109 0.28252 0.0
C1141 C 0.12415 0.85706 0.26801 0.0
C1142 C 0.15959 0.78503 0.34007 0.0
C1143 C 0.16108 0.83323 0.29694 0.0
H1144 H 0.17362 0.83618 0.43192 0.0
H1145 H 0.22366 0.80909 0.4575 0.0
H1146 H 0.23015 0.8198 0.40458 0.0
H1147 H 0.24395 0.807 0.43069 0.0
H1148 H 0.17089 0.8245 0.26509 0.0
H1149 H 0.12331 0.85618 0.24134 0.0
H1150 H 0.12804 0.8555 0.29445 0.0
H1151 H 0.11114 0.86614 0.26885 0.0
Eu1152 Eu 0.82372 0.65012 0.65461 0.0
C1153 C 0.88782 0.74731 0.70043 0.0
C1154 C 0.93555 0.75948 0.69567 0.0
C1155 C 0.92415 0.79452 0.70204 0.0
C1156 C 0.9072 0.73982 0.69653 0.0
C1157 C 0.89614 0.77464 0.70375 0.0
C1158 C 0.94383 0.78696 0.69797 0.0
C1159 C 0.84909 0.76017 0.71208 0.0
N1160 N 0.86103 0.72755 0.70213 0.0
C1161 C 0.84193 0.73334 0.70874 0.0
C1162 C 0.87622 0.78099 0.7093 0.0
Eu1163 Eu 0.8502 0.6827 0.69553 0.0
N1164 N 0.8985 0.71312 0.69451 0.0
C1165 C 0.91719 0.70444 0.6927 0.0
C1166 C 0.95475 0.75084 0.69298 0.0
C1167 C 0.94556 0.72316 0.69178 0.0
H1168 H 0.82093 0.71723 0.71084 0.0
H1169 H 0.96026 0.71622 0.68998 0.0
H1170 H 0.96547 0.8024 0.69713 0.0
H1171 H 0.83371 0.76478 0.7168 0.0
H1172 H 0.91029 0.68313 0.69154 0.0
H1173 H 0.77015 0.68501 0.61304 0.0
H1174 H 0.97671 0.7653 0.69219 0.0
H1175 H 0.79987 0.58653 0.66906 0.0
H1176 H 0.81054 0.6859 0.62663 0.0
H1177 H 0.75552 0.54442 0.67256 0.0
H1178 H 0.93092 0.81569 0.70432 0.0
H1179 H 0.72279 0.64782 0.61928 0.0
H1180 H 0.69231 0.603 0.6332 0.0
H1181 H 0.88177 0.80175 0.71198 0.0
H1182 H 0.68839 0.56446 0.64931 0.0
N1183 N 0.78605 0.65037 0.64094 0.0
C1184 C 0.78987 0.6696 0.62936 0.0
C1185 C 0.74041 0.6482 0.62529 0.0
C1186 C 0.73689 0.62722 0.63592 0.0
C1187 C 0.7671 0.66916 0.62168 0.0
C1188 C 0.76052 0.62869 0.64342 0.0
H1189 H 0.71192 0.54207 0.66351 0.0
N1190 N 0.78195 0.60835 0.65813 0.0
C1191 C 0.756 0.56191 0.6669 0.0
C1192 C 0.75841 0.60696 0.65228 0.0
C1193 C 0.78122 0.58597 0.66488 0.0
C1194 C 0.73143 0.56069 0.66183 0.0
C1195 C 0.73245 0.58321 0.65415 0.0
O1196 O 0.82599 0.6205 0.63823 0.0
O1197 O 0.86173 0.67788 0.66951 0.0
O1198 O 0.83984 0.70955 0.67967 0.0
O1199 O 0.80758 0.67896 0.6606 0.0
O1200 O 0.85615 0.69194 0.64666 0.0
O1201 O 0.84221 0.66144 0.62969 0.0
O1202 O 0.83021 0.67302 0.7201 0.0
O1203 O 0.81631 0.64683 0.68212 0.0
O1204 O 0.84318 0.62735 0.667 0.0
O1205 O 0.86049 0.6494 0.69249 0.0
O1206 O 0.80459 0.6673 0.69884 0.0
O1207 O 0.86909 0.67428 0.71699 0.0
C1208 C 0.87242 0.69734 0.65925 0.0
C1209 C 0.81975 0.62697 0.60937 0.0
C1210 C 0.81253 0.63478 0.58003 0.0
C1211 C 0.82792 0.6438 0.59504 0.0
C1212 C 0.78937 0.60847 0.57951 0.0
C1213 C 0.79635 0.60092 0.60835 0.0
C1214 C 0.78143 0.59179 0.59352 0.0
C1215 C 0.8199 0.70262 0.66848 0.0
C1216 C 0.83504 0.63679 0.62543 0.0
C1217 C 0.70855 0.58237 0.64777 0.0
C1218 C 0.71077 0.60433 0.63863 0.0
C1219 C 0.7958 0.64694 0.68883 0.0
C1220 C 0.85956 0.68529 0.74368 0.0
C1221 C 0.85263 0.67044 0.75872 0.0
C1222 C 0.86251 0.68387 0.77416 0.0
C1223 C 0.87884 0.71232 0.77426 0.0
C1224 C 0.87604 0.71358 0.74418 0.0
C1225 C 0.88548 0.72699 0.7594 0.0
C1226 C 0.85572 0.63018 0.68156 0.0
C1227 C 0.84998 0.67121 0.72751 0.0
H1228 H 0.84572 0.66404 0.5957 0.0
H1229 H 0.77737 0.60064 0.56816 0.0
H1230 H 0.78938 0.58753 0.61905 0.0
H1231 H 0.7635 0.57166 0.59289 0.0
H1232 H 0.84016 0.64853 0.75835 0.0
H1233 H 0.88642 0.72331 0.7859 0.0
H1234 H 0.88176 0.72532 0.73282 0.0
H1235 H 0.89811 0.74886 0.75968 0.0
Eu1236 Eu 0.3684 0.18485 0.65467 0.0
C1237 C 0.25857 0.14305 0.69189 0.0
C1238 C 0.24812 0.17913 0.68784 0.0
C1239 C 0.21064 0.13259 0.69042 0.0
C1240 C 0.26748 0.17016 0.68945 0.0
C1241 C 0.23006 0.12403 0.69293 0.0
C1242 C 0.21967 0.16011 0.68787 0.0
C1243 C 0.24216 0.09034 0.70098 0.0
N1244 N 0.27788 0.1356 0.69451 0.0
C1245 C 0.27018 0.11006 0.69998 0.0
C1246 C 0.22198 0.09724 0.69715 0.0
Eu1247 Eu 0.32498 0.16978 0.69209 0.0
N1248 N 0.29509 0.18794 0.68949 0.0
C1249 C 0.30479 0.21519 0.68905 0.0
C1250 C 0.25796 0.20698 0.68666 0.0
C1251 C 0.28641 0.22511 0.68754 0.0
H1252 H 0.28581 0.10479 0.70304 0.0
H1253 H 0.29423 0.24671 0.68688 0.0
H1254 H 0.20449 0.16656 0.68639 0.0
H1255 H 0.23615 0.06989 0.70475 0.0
H1256 H 0.32673 0.22938 0.68949 0.0
H1257 H 0.34811 0.11116 0.60527 0.0
H1258 H 0.24379 0.2147 0.68538 0.0
H1259 H 0.42755 0.21981 0.6766 0.0
H1260 H 0.34371 0.14687 0.62035 0.0
H1261 H 0.46873 0.2166 0.68392 0.0
H1262 H 0.18863 0.11823 0.69095 0.0
H1263 H 0.3819 0.09795 0.61506 0.0
H1264 H 0.42157 0.10723 0.63419 0.0
H1265 H 0.20028 0.082 0.69806 0.0
H1266 H 0.455 0.13656 0.65552 0.0
N1267 N 0.37258 0.1516 0.63921 0.0
C1268 C 0.35791 0.14058 0.62486 0.0
C1269 C 0.37962 0.11319 0.62184 0.0
C1270 C 0.3968 0.12686 0.63543 0.0
C1271 C 0.36055 0.1206 0.61626 0.0
C1272 C 0.393 0.14657 0.64379 0.0
H1273 H 0.47342 0.17813 0.67359 0.0
N1274 N 0.40885 0.18349 0.66223 0.0
C1275 C 0.45281 0.20133 0.67602 0.0
C1276 C 0.41188 0.16318 0.65563 0.0
C1277 C 0.42935 0.20306 0.67183 0.0
C1278 C 0.45534 0.17953 0.67022 0.0
C1279 C 0.43499 0.16038 0.65963 0.0
O1280 O 0.40489 0.21773 0.6425 0.0
O1281 O 0.33565 0.19049 0.66731 0.0
O1282 O 0.3021 0.13521 0.67355 0.0
O1283 O 0.33649 0.13981 0.6547 0.0
O1284 O 0.3284 0.17645 0.64264 0.0
O1285 O 0.3649 0.20202 0.63104 0.0
O1286 O 0.32974 0.15497 0.71638 0.0
O1287 O 0.36472 0.17491 0.68184 0.0
O1288 O 0.38697 0.2234 0.67013 0.0
O1289 O 0.35978 0.21328 0.69408 0.0
O1290 O 0.33924 0.13928 0.69472 0.0
O1291 O 0.32721 0.19143 0.71509 0.0
C1292 C 0.31877 0.18335 0.65517 0.0
C1293 C 0.40282 0.21447 0.61285 0.0
C1294 C 0.39634 0.20167 0.58327 0.0
C1295 C 0.3856 0.20408 0.59867 0.0
C1296 C 0.42459 0.20971 0.58221 0.0
C1297 C 0.43102 0.22247 0.6114 0.0
C1298 C 0.44174 0.21999 0.59618 0.0
C1299 C 0.31135 0.12618 0.6613 0.0
C1300 C 0.39145 0.21702 0.62904 0.0
C1301 C 0.43765 0.13933 0.65237 0.0
C1302 C 0.41858 0.12259 0.64026 0.0
C1303 C 0.36277 0.15315 0.68735 0.0
C1304 C 0.31077 0.16521 0.7396 0.0
C1305 C 0.32255 0.16684 0.75535 0.0
C1306 C 0.30597 0.1586 0.76978 0.0
C1307 C 0.2773 0.1485 0.76814 0.0
C1308 C 0.28221 0.15524 0.73822 0.0
C1309 C 0.26558 0.14686 0.75245 0.0
C1310 C 0.38111 0.22996 0.68479 0.0
C1311 C 0.32867 0.17391 0.7248 0.0
H1312 H 0.3639 0.19821 0.59951 0.0
H1313 H 0.43339 0.20785 0.57057 0.0
H1314 H 0.44482 0.2306 0.62202 0.0
H1315 H 0.46345 0.22609 0.59522 0.0
H1316 H 0.34461 0.17431 0.75631 0.0
H1317 H 0.264 0.14229 0.779 0.0
H1318 H 0.2728 0.15403 0.72622 0.0
H1319 H 0.24354 0.13922 0.75133 0.0
Eu1320 Eu 0.85122 0.16303 0.69788 0.0
C1321 C 0.7881 0.20104 0.65505 0.0
C1322 C 0.73964 0.17112 0.66152 0.0
C1323 C 0.75594 0.21823 0.65461 0.0
C1324 C 0.76686 0.17572 0.65976 0.0
C1325 C 0.78254 0.22218 0.65165 0.0
C1326 C 0.73454 0.19276 0.6596 0.0
C1327 C 0.82847 0.24785 0.63996 0.0
N1328 N 0.81352 0.20415 0.65206 0.0
C1329 C 0.83299 0.22632 0.64352 0.0
C1330 C 0.80341 0.24607 0.64446 0.0
Eu1331 Eu 0.81923 0.16659 0.65857 0.0
N1332 N 0.77226 0.15501 0.66107 0.0
C1333 C 0.75108 0.12892 0.66264 0.0
C1334 C 0.71813 0.14467 0.66438 0.0
C1335 C 0.72381 0.12341 0.66456 0.0
H1336 H 0.85252 0.22782 0.64021 0.0
H1337 H 0.70721 0.10278 0.66628 0.0
H1338 H 0.71385 0.18969 0.66118 0.0
H1339 H 0.84435 0.26582 0.63381 0.0
H1340 H 0.75511 0.11227 0.66281 0.0
H1341 H 0.96365 0.22257 0.69132 0.0
H1342 H 0.69697 0.14032 0.66585 0.0
H1343 H 0.81275 0.10014 0.7135 0.0
H1344 H 0.91627 0.21525 0.6937 0.0
H1345 H 0.81807 0.06041 0.72001 0.0
H1346 H 0.75141 0.23438 0.65236 0.0
H1347 H 0.97167 0.18367 0.69321 0.0
H1348 H 0.95247 0.13408 0.69869 0.0
H1349 H 0.79991 0.26272 0.64161 0.0
H1350 H 0.91293 0.09002 0.70668 0.0
N1351 N 0.89749 0.17248 0.69619 0.0
C1352 C 0.91945 0.19808 0.69448 0.0
C1353 C 0.95079 0.1803 0.69419 0.0
C1354 C 0.92836 0.15435 0.69714 0.0
C1355 C 0.94636 0.20232 0.69317 0.0
C1356 C 0.90157 0.15103 0.69822 0.0
H1357 H 0.86293 0.06254 0.71501 0.0
N1358 N 0.8539 0.12384 0.70443 0.0
C1359 C 0.83535 0.07867 0.71502 0.0
C1360 C 0.87922 0.12606 0.70262 0.0
C1361 C 0.83242 0.10113 0.7114 0.0
C1362 C 0.8607 0.07994 0.71214 0.0
C1363 C 0.88318 0.10398 0.70618 0.0
O1364 O 0.83434 0.15238 0.72311 0.0
O1365 O 0.81061 0.15093 0.68467 0.0
O1366 O 0.83606 0.20691 0.67283 0.0
O1367 O 0.86883 0.2072 0.69117 0.0
O1368 O 0.81632 0.16818 0.70791 0.0
O1369 O 0.87454 0.18825 0.71909 0.0
O1370 O 0.83626 0.17691 0.63337 0.0
O1371 O 0.85967 0.17866 0.67185 0.0
O1372 O 0.83773 0.12466 0.68221 0.0
O1373 O 0.80247 0.12263 0.66574 0.0
O1374 O 0.8546 0.1621 0.64844 0.0
O1375 O 0.79594 0.14137 0.63735 0.0
C1376 C 0.79975 0.15871 0.69555 0.0
C1377 C 0.86621 0.16681 0.74555 0.0
C1378 C 0.86859 0.16751 0.7761 0.0
C1379 C 0.85861 0.17261 0.76113 0.0
C1380 C 0.8858 0.15598 0.77516 0.0
C1381 C 0.88359 0.15561 0.74499 0.0
C1382 C 0.89317 0.15009 0.75972 0.0
C1383 C 0.85617 0.21904 0.68404 0.0
C1384 C 0.85598 0.17271 0.73005 0.0
C1385 C 0.90956 0.10686 0.70422 0.0
C1386 C 0.93208 0.13197 0.69967 0.0
C1387 C 0.87095 0.17143 0.66095 0.0
C1388 C 0.80411 0.16378 0.61127 0.0
C1389 C 0.81316 0.16064 0.59547 0.0
C1390 C 0.8034 0.16689 0.58084 0.0
C1391 C 0.78497 0.17693 0.58235 0.0
C1392 C 0.78544 0.17345 0.61242 0.0
C1393 C 0.77612 0.18018 0.59803 0.0
C1394 C 0.81679 0.11167 0.67167 0.0
C1395 C 0.8144 0.15699 0.62639 0.0
H1396 H 0.84547 0.18162 0.76157 0.0
H1397 H 0.89349 0.1514 0.78639 0.0
H1398 H 0.88988 0.15125 0.7332 0.0
H1399 H 0.90648 0.14131 0.75918 0.0
H1400 H 0.82725 0.15275 0.59457 0.0
H1401 H 0.77738 0.18228 0.57138 0.0
H1402 H 0.77796 0.17569 0.6244 0.0
H1403 H 0.76182 0.18779 0.59902 0.0
H1404 H 0.34184 0.90864 0.05034 0.0
H1405 H 0.35661 0.84118 0.05199 0.0
H1406 H 0.40185 0.86878 0.03901 0.0
H1407 H 0.43926 0.91347 0.02997 0.0
H1408 H 0.42509 0.98115 0.02843 0.0
H1409 H 0.37754 0.95221 0.03841 0.0
C1410 C 0.35495 0.90001 0.04777 0.0
C1411 C 0.34601 0.873 0.0523 0.0
C1412 C 0.381 0.91603 0.04028 0.0
C1413 C 0.36298 0.86189 0.04862 0.0
C1414 C 0.3889 0.87769 0.04125 0.0
C1415 C 0.42538 0.92156 0.03138 0.0
C1416 C 0.43519 0.94907 0.02818 0.0
C1417 C 0.39836 0.90492 0.03736 0.0
C1418 C 0.41753 0.95977 0.03044 0.0
C1419 C 0.39053 0.94331 0.03631 0.0
H1420 H 0.10063 0.43739 0.04874 0.0
H1421 H 0.16526 0.52002 0.05662 0.0
H1422 H 0.13558 0.53644 0.04523 0.0
H1423 H 0.08994 0.52718 0.03498 0.0
H1424 H 0.02557 0.44479 0.02645 0.0
H1425 H 0.05632 0.42825 0.03607 0.0
C1426 C 0.10817 0.45897 0.04788 0.0
C1427 C 0.13496 0.47748 0.05365 0.0
C1428 C 0.09104 0.46825 0.0412 0.0
C1429 C 0.14472 0.50541 0.05224 0.0
C1430 C 0.12774 0.5148 0.04579 0.0
C1431 C 0.08297 0.50566 0.03495 0.0
C1432 C 0.05591 0.48717 0.02976 0.0
C1433 C 0.10073 0.49641 0.04049 0.0
C1434 C 0.04663 0.4593 0.03005 0.0
C1435 C 0.06412 0.44989 0.03566 0.0
H1436 H 0.58275 0.66167 0.05581 0.0
H1437 H 0.50603 0.65887 0.0432 0.0
H1438 H 0.48934 0.61502 0.02959 0.0
H1439 H 0.49606 0.57712 0.02195 0.0
H1440 H 0.57276 0.57973 0.03442 0.0
H1441 H 0.58972 0.62383 0.04774 0.0
C1442 C 0.5623 0.65135 0.05018 0.0
C1443 C 0.54565 0.66348 0.05052 0.0
C1444 C 0.55281 0.62613 0.04242 0.0
C1445 C 0.51936 0.65008 0.04296 0.0
C1446 C 0.50975 0.62496 0.03525 0.0
C1447 C 0.51665 0.58748 0.02733 0.0
C1448 C 0.53321 0.57526 0.02701 0.0
C1449 C 0.52629 0.61281 0.03493 0.0
C1450 C 0.55959 0.5887 0.03445 0.0
C1451 C 0.56932 0.61393 0.04207 0.0
H1452 H 0.91557 0.3378 0.963 0.0
H1453 H 0.84354 0.34198 0.97829 0.0
H1454 H 0.87307 0.38486 0.99255 0.0
H1455 H 0.91932 0.42192 0.99991 0.0
H1456 H 0.99152 0.41816 0.98442 0.0
H1457 H 0.96196 0.37463 0.97083 0.0
C1458 C 0.90635 0.3482 0.96934 0.0
C1459 C 0.87735 0.33663 0.96955 0.0
C1460 C 0.92347 0.37297 0.97747 0.0
C1461 C 0.86575 0.35021 0.97807 0.0
C1462 C 0.88263 0.37483 0.98617 0.0
C1463 C 0.92861 0.41142 0.99378 0.0
C1464 C 0.95761 0.42323 0.99333 0.0
C1465 C 0.91151 0.38643 0.98592 0.0
C1466 C 0.96926 0.40954 0.98502 0.0
C1467 C 0.95237 0.38463 0.97721 0.0
H1468 H 0.65721 0.55753 0.96579 0.0
H1469 H 0.63674 0.474 0.96215 0.0
H1470 H 0.59057 0.45931 0.97337 0.0
H1471 H 0.55489 0.47013 0.98265 0.0
H1472 H 0.57572 0.55357 0.98703 0.0
H1473 H 0.62273 0.56847 0.97698 0.0
C1474 C 0.6426 0.53613 0.96744 0.0
C1475 C 0.6503 0.51688 0.96299 0.0
C1476 C 0.61614 0.52783 0.97399 0.0
C1477 C 0.63134 0.48922 0.9655 0.0
C1478 C 0.6049 0.48079 0.97184 0.0
C1479 C 0.56999 0.49155 0.98164 0.0
C1480 C 0.56231 0.51082 0.98584 0.0
C1481 C 0.59694 0.49989 0.97594 0.0
C1482 C 0.5816 0.53851 0.98419 0.0
C1483 C 0.60833 0.54698 0.97835 0.0
H1484 H 0.47411 0.13107 0.97917 0.0
H1485 H 0.4033 0.0679 0.95323 0.0
H1486 H 0.41126 0.03364 0.96631 0.0
H1487 H 0.43934 0.02182 0.98423 0.0
H1488 H 0.51053 0.08522 1.00983 0.0
H1489 H 0.50081 0.11909 0.99817 0.0
C1490 C 0.46012 0.10978 0.97658 0.0
C1491 C 0.43818 0.1021 0.96518 0.0
C1492 C 0.46478 0.09021 0.98415 0.0
C1493 C 0.42057 0.07442 0.96176 0.0
C1494 C 0.42501 0.0548 0.96931 0.0
C1495 C 0.45262 0.04302 0.9874 0.0
C1496 C 0.47557 0.05089 0.99799 0.0
C1497 C 0.44723 0.06249 0.98038 0.0
C1498 C 0.49253 0.07848 1.00191 0.0
C1499 C 0.48712 0.09794 0.99512 0.0
H1500 H 0.66297 0.08649 0.97094 0.0
H1501 H 0.64688 0.15313 0.96988 0.0
H1502 H 0.60095 0.12428 0.98172 0.0
H1503 H 0.56373 0.07904 0.99 0.0
H1504 H 0.57929 0.01222 0.99121 0.0
H1505 H 0.62705 0.04207 0.98184 0.0
C1506 C 0.64939 0.09464 0.97336 0.0
C1507 C 0.65821 0.12183 0.96939 0.0
C1508 C 0.62297 0.07792 0.98024 0.0
C1509 C 0.6406 0.13229 0.97285 0.0
C1510 C 0.6143 0.11579 0.97957 0.0
C1511 C 0.57792 0.07131 0.9886 0.0
C1512 C 0.56848 0.04381 0.99158 0.0
C1513 C 0.60509 0.08849 0.98304 0.0
C1514 C 0.58655 0.03359 0.98936 0.0
C1515 C 0.61368 0.05056 0.98385 0.0
H1516 H 0.90909 0.56475 0.97086 0.0
H1517 H 0.84595 0.48054 0.96754 0.0
H1518 H 0.87785 0.46715 0.97928 0.0
H1519 H 0.92525 0.47917 0.9877 0.0
H1520 H 0.98837 0.56313 0.99116 0.0
H1521 H 0.95512 0.57693 0.98218 0.0
C1522 C 0.90233 0.54349 0.97278 0.0
C1523 C 0.87528 0.52367 0.96815 0.0
C1524 C 0.9208 0.53592 0.97956 0.0
C1525 C 0.86663 0.49621 0.971 0.0
C1526 C 0.8849 0.48851 0.97764 0.0
C1527 C 0.93135 0.50047 0.98697 0.0
C1528 C 0.95881 0.52019 0.99056 0.0
C1529 C 0.91219 0.50815 0.98164 0.0
C1530 C 0.967 0.54772 0.98898 0.0
C1531 C 0.9481 0.55555 0.98367 0.0
H1532 H 0.44014 0.33921 0.9526 0.0
H1533 H 0.49988 0.33109 0.98268 0.0
H1534 H 0.51136 0.37305 0.99746 0.0
H1535 H 0.50543 0.41284 1.00106 0.0
H1536 H 0.44676 0.4211 0.96989 0.0
H1537 H 0.43433 0.37857 0.95614 0.0
C1538 C 0.45592 0.34673 0.96225 0.0
C1539 C 0.46923 0.33209 0.96643 0.0
C1540 C 0.46266 0.37095 0.97051 0.0
C1541 C 0.48914 0.34184 0.97928 0.0
C1542 C 0.49583 0.36591 0.98768 0.0
C1543 C 0.48968 0.40519 0.99144 0.0
C1544 C 0.47684 0.42012 0.98678 0.0
C1545 C 0.48278 0.3807 0.98334 0.0
C1546 C 0.4569 0.41009 0.97394 0.0
C1547 C 0.44976 0.38571 0.96598 0.0
H1548 H 0.13594 0.67314 0.03717 0.0
H1549 H 0.09139 0.65136 0.08389 0.0
H1550 H 0.05629 0.6086 0.07182 0.0
H1551 H 0.03926 0.57626 0.04847 0.0
H1552 H 0.08671 0.59612 1.00305 0.0
H1553 H 0.11983 0.6404 0.01423 0.0
C1554 C 0.11882 0.65899 0.04486 0.0
C1555 C 0.11653 0.66576 0.06147 0.0
C1556 C 0.09914 0.63393 0.03806 0.0
C1557 C 0.09364 0.64717 0.07099 0.0
C1558 C 0.07358 0.62249 0.06414 0.0
C1559 C 0.05668 0.5904 0.04094 0.0
C1560 C 0.06025 0.58294 0.02477 0.0
C1561 C 0.07622 0.61558 0.04772 0.0
C1562 C 0.08327 0.60131 0.01538 0.0
C1563 C 0.10231 0.62668 0.02183 0.0
H1564 H 0.35971 0.48838 0.04695 0.0
H1565 H 0.32568 0.40279 0.05563 0.0
H1566 H 0.36682 0.40486 0.04349 0.0
H1567 H 0.41381 0.43144 0.03233 0.0
H1568 H 0.44912 0.51728 0.02466 0.0
H1569 H 0.40605 0.51465 0.03405 0.0
C1570 C 0.36117 0.47014 0.04594 0.0
C1571 C 0.3398 0.44553 0.05239 0.0
C1572 C 0.38511 0.47152 0.0391 0.0
C1573 C 0.34205 0.42207 0.05107 0.0
C1574 C 0.36552 0.42321 0.04407 0.0
C1575 C 0.41189 0.44949 0.03256 0.0
C1576 C 0.43432 0.47439 0.02752 0.0
C1577 C 0.38739 0.4479 0.03838 0.0
C1578 C 0.43185 0.49774 0.02806 0.0
C1579 C 0.40731 0.49628 0.03359 0.0
H1580 H 0.53512 0.86297 0.03754 0.0
H1581 H 0.61021 0.9277 0.05901 0.0
H1582 H 0.59958 0.9611 0.04741 0.0
H1583 H 0.56804 0.9718 0.03221 0.0
H1584 H 0.49293 0.90698 0.01078 0.0
H1585 H 0.50495 0.87382 0.02092 0.0
C1586 C 0.54943 0.8844 0.03944 0.0
C1587 C 0.57334 0.89278 0.04923 0.0
C1588 C 0.54324 0.9035 0.0327 0.0
C1589 C 0.59142 0.92065 0.05177 0.0
C1590 C 0.58544 0.93978 0.04507 0.0
C1591 C 0.55437 0.95044 0.02965 0.0
C1592 C 0.52964 0.94193 0.02071 0.0
C1593 C 0.56123 0.93141 0.03571 0.0
C1594 C 0.51223 0.91416 0.01747 0.0
C1595 C 0.519 0.89513 0.02337 0.0
H1596 H 0.00512 0.23909 0.3824 0.0
H1597 H 0.02085 0.17221 0.38327 0.0
H1598 H 0.06598 0.20045 0.37027 0.0
H1599 H 0.10309 0.24558 0.36151 0.0
H1600 H 0.08786 0.31261 0.36097 0.0
H1601 H 0.04047 0.28305 0.37087 0.0
C1602 C 0.0184 0.23071 0.37966 0.0
C1603 C 0.00976 0.20368 0.38397 0.0
C1604 C 0.0444 0.2471 0.37221 0.0
C1605 C 0.02698 0.19293 0.38006 0.0
C1606 C 0.05285 0.20909 0.37269 0.0
C1607 C 0.089 0.25338 0.36311 0.0
C1608 C 0.09843 0.28089 0.36007 0.0
C1609 C 0.06203 0.23635 0.36906 0.0
C1610 C 0.08055 0.29122 0.36271 0.0
C1611 C 0.05363 0.27441 0.36855 0.0
H1612 H 0.76179 0.76509 0.39004 0.0
H1613 H 0.8276 0.84831 0.3925 0.0
H1614 H 0.79684 0.8633 0.38102 0.0
H1615 H 0.75029 0.85303 0.37178 0.0
H1616 H 0.68472 0.77001 0.36862 0.0
H1617 H 0.71604 0.75461 0.37895 0.0
C1618 C 0.76935 0.78649 0.38808 0.0
C1619 C 0.79693 0.80555 0.39226 0.0
C1620 C 0.75154 0.795 0.38135 0.0
C1621 C 0.80653 0.8332 0.38936 0.0
C1622 C 0.78891 0.84182 0.38285 0.0
C1623 C 0.74314 0.83157 0.37307 0.0
C1624 C 0.71558 0.81258 0.36906 0.0
C1625 C 0.7613 0.82295 0.37897 0.0
C1626 C 0.70614 0.78486 0.37121 0.0
C1627 C 0.72397 0.77612 0.37724 0.0
H1628 H 0.19466 0.99575 0.38439 0.0
H1629 H 0.27126 0.00796 0.40571 0.0
H1630 H 0.26299 0.96514 0.39376 0.0
H1631 H 0.23389 0.92395 0.3775 0.0
H1632 H 0.15732 0.91177 0.35611 0.0
H1633 H 0.16608 0.95503 0.36751 0.0
C1634 C 0.20973 0.98923 0.38627 0.0
C1635 C 0.23348 0.00509 0.39604 0.0
C1636 C 0.20494 0.96458 0.37927 0.0
C1637 C 0.25255 0.99603 0.3985 0.0
C1638 C 0.24794 0.97158 0.39158 0.0
C1639 C 0.21911 0.93074 0.37527 0.0
C1640 C 0.1951 0.91462 0.36578 0.0
C1641 C 0.22413 0.95561 0.38202 0.0
C1642 C 0.17621 0.92385 0.36311 0.0
C1643 C 0.18111 0.94857 0.36973 0.0
H1644 H 0.574 0.66143 0.30013 0.0
H1645 H 0.50251 0.66825 0.31291 0.0
H1646 H 0.53209 0.71054 0.32782 0.0
H1647 H 0.57855 0.74682 0.33593 0.0
H1648 H 0.64998 0.74001 0.32295 0.0
H1649 H 0.62021 0.69684 0.30914 0.0
C1650 C 0.56489 0.67223 0.3061 0.0
C1651 C 0.53606 0.66168 0.30532 0.0
C1652 C 0.58204 0.69663 0.31457 0.0
C1653 C 0.52458 0.67574 0.31341 0.0
C1654 C 0.54151 0.70002 0.32187 0.0
C1655 C 0.58757 0.7356 0.33046 0.0
C1656 C 0.61648 0.74657 0.33071 0.0
C1657 C 0.57029 0.71075 0.32244 0.0
C1658 C 0.62783 0.73211 0.32301 0.0
C1659 C 0.6108 0.70737 0.31508 0.0
H1660 H 0.31703 0.84495 0.3097 0.0
H1661 H 0.35229 0.9302 0.29936 0.0
H1662 H 0.312 0.92969 0.31167 0.0
H1663 H 0.26542 0.90463 0.32379 0.0
H1664 H 0.22863 0.81905 0.33306 0.0
H1665 H 0.27067 0.82003 0.32301 0.0
C1666 C 0.31599 0.86344 0.31035 0.0
C1667 C 0.33758 0.88754 0.30346 0.0
C1668 C 0.29241 0.86293 0.31725 0.0
C1669 C 0.33582 0.91131 0.30432 0.0
C1670 C 0.3128 0.91106 0.3114 0.0
C1671 C 0.26681 0.88629 0.32379 0.0
C1672 C 0.24427 0.86197 0.32953 0.0
C1673 C 0.29077 0.88693 0.31764 0.0
C1674 C 0.24601 0.83818 0.32912 0.0
C1675 C 0.26997 0.83871 0.32324 0.0
H1676 H 0.13373 0.44896 0.28879 0.0
H1677 H 0.08765 0.44805 0.33219 0.0
H1678 H 0.10081 0.41817 0.34657 0.0
H1679 H 0.12383 0.39034 0.3462 0.0
H1680 H 0.1691 0.39162 0.30219 0.0
H1681 H 0.15777 0.42308 0.28874 0.0
C1682 C 0.12636 0.44207 0.30135 0.0
C1683 C 0.10949 0.45052 0.30931 0.0
C1684 C 0.13389 0.42488 0.30948 0.0
C1685 C 0.10072 0.44191 0.32576 0.0
C1686 C 0.10817 0.42474 0.33398 0.0
C1687 C 0.13146 0.39781 0.33377 0.0
C1688 C 0.14708 0.38842 0.32519 0.0
C1689 C 0.1246 0.41588 0.32591 0.0
C1690 C 0.15671 0.39818 0.30902 0.0
C1691 C 0.15028 0.41624 0.30128 0.0
H1692 H 0.30782 0.45536 0.30342 0.0
H1693 H 0.34382 0.40411 0.2974 0.0
H1694 H 0.30311 0.36637 0.31024 0.0
H1695 H 0.25626 0.34718 0.32196 0.0
H1696 H 0.21906 0.3975 0.32654 0.0
H1697 H 0.26128 0.4364 0.31585 0.0
C1698 C 0.30686 0.43601 0.30509 0.0
C1699 C 0.32877 0.43252 0.29935 0.0
C1700 C 0.28319 0.41425 0.31232 0.0
C1701 C 0.32708 0.40723 0.30148 0.0
C1702 C 0.30386 0.38567 0.30889 0.0
C1703 C 0.25763 0.3668 0.32079 0.0
C1704 C 0.23494 0.36969 0.32545 0.0
C1705 C 0.28166 0.38883 0.31416 0.0
C1706 C 0.23659 0.39498 0.3235 0.0
C1707 C 0.26063 0.41716 0.31723 0.0
H1708 H 0.53817 0.84011 0.30702 0.0
H1709 H 0.59079 0.92664 0.30256 0.0
H1710 H 0.62938 0.92374 0.31484 0.0
H1711 H 0.64909 0.8964 0.32549 0.0
H1712 H 0.5975 0.80968 0.32861 0.0
H1713 H 0.55773 0.81275 0.31837 0.0
C1714 C 0.558 0.85833 0.30895 0.0
C1715 C 0.56161 0.88355 0.3038 0.0
C1716 C 0.58035 0.85645 0.31575 0.0
C1717 C 0.58753 0.90696 0.30624 0.0
C1718 C 0.60962 0.90532 0.31328 0.0
C1719 C 0.62902 0.87825 0.32409 0.0
C1720 C 0.626 0.85296 0.32824 0.0
C1721 C 0.60641 0.88016 0.31785 0.0
C1722 C 0.60012 0.82948 0.32595 0.0
C1723 C 0.57743 0.83121 0.31997 0.0
H1724 H 0.14389 0.67209 0.31697 0.0
H1725 H 0.07286 0.66798 0.29244 0.0
H1726 H 0.08426 0.71185 0.30424 0.0
H1727 H 0.11487 0.75185 0.32098 0.0
H1728 H 0.18596 0.75612 0.34549 0.0
H1729 H 0.17358 0.71142 0.33464 0.0
C1730 C 0.13066 0.68058 0.31438 0.0
C1731 C 0.10764 0.66674 0.30371 0.0
C1732 C 0.13723 0.70581 0.3213 0.0
C1733 C 0.09099 0.67834 0.30035 0.0
C1734 C 0.09738 0.70338 0.30718 0.0
C1735 C 0.12761 0.74298 0.32403 0.0
C1736 C 0.15115 0.75726 0.33422 0.0
C1737 C 0.12058 0.7174 0.31755 0.0
C1738 C 0.16738 0.74538 0.33801 0.0
C1739 C 0.16047 0.71989 0.33166 0.0
H1740 H 0.7904 0.00103 0.3729 0.0
H1741 H 0.77643 0.97031 0.42329 0.0
H1742 H 0.74208 0.92544 0.41327 0.0
H1743 H 0.71658 0.89454 0.39012 0.0
H1744 H 0.73088 0.92501 0.3398 0.0
H1745 H 0.7649 0.97015 0.34977 0.0
C1746 C 0.78006 0.98447 0.38168 0.0
C1747 C 0.786 0.98913 0.39884 0.0
C1748 C 0.7605 0.9586 0.37582 0.0
C1749 C 0.77201 0.96747 0.41005 0.0
C1750 C 0.75245 0.94172 0.40433 0.0
C1751 C 0.72709 0.91115 0.38138 0.0
C1752 C 0.72173 0.90642 0.36422 0.0
C1753 C 0.74654 0.93705 0.38725 0.0
C1754 C 0.73541 0.928 0.35299 0.0
C1755 C 0.75463 0.95387 0.35872 0.0
H1756 H 0.01439 0.7665 0.38614 0.0
H1757 H 0.03028 0.84874 0.38817 0.0
H1758 H 0.07664 0.86517 0.37681 0.0
H1759 H 0.11446 0.85662 0.36896 0.0
H1760 H 0.09881 0.77463 0.36683 0.0
H1761 H 0.05073 0.7576 0.37552 0.0
C1762 C 0.02799 0.788 0.38403 0.0
C1763 C 0.01892 0.80636 0.38817 0.0
C1764 C 0.0547 0.79735 0.37746 0.0
C1765 C 0.03665 0.83413 0.38508 0.0
C1766 C 0.06324 0.84358 0.37865 0.0
C1767 C 0.10017 0.835 0.36991 0.0
C1768 C 0.10973 0.81679 0.36677 0.0
C1769 C 0.07269 0.82545 0.37509 0.0
C1770 C 0.0915 0.78888 0.36866 0.0
C1771 C 0.06415 0.7792 0.37381 0.0
H1772 H 0.19105 0.19318 0.37881 0.0
H1773 H 0.26457 0.2582 0.40154 0.0
H1774 H 0.25471 0.29141 0.38897 0.0
H1775 H 0.22474 0.30211 0.37223 0.0
H1776 H 0.15151 0.23759 0.34903 0.0
H1777 H 0.16206 0.2042 0.36079 0.0
C1778 C 0.20511 0.21462 0.38084 0.0
C1779 C 0.22835 0.22307 0.39131 0.0
C1780 C 0.19943 0.23376 0.37345 0.0
C1781 C 0.2462 0.251 0.39387 0.0
C1782 C 0.24069 0.27008 0.38659 0.0
C1783 C 0.21112 0.2808 0.36964 0.0
C1784 C 0.18749 0.2725 0.35962 0.0
C1785 C 0.21722 0.26169 0.37652 0.0
C1786 C 0.17012 0.24468 0.35645 0.0
C1787 C 0.17602 0.2255 0.36329 0.0
H1788 H 0.69286 0.54316 0.71751 0.0
H1789 H 0.65285 0.58839 0.7036 0.0
H1790 H 0.69561 0.62299 0.69041 0.0
H1791 H 0.74564 0.64245 0.68522 0.0
H1792 H 0.78639 0.59904 0.70133 0.0
H1793 H 0.74225 0.56158 0.71121 0.0
C1794 C 0.69344 0.56038 0.71133 0.0
C1795 C 0.66985 0.56331 0.71151 0.0
C1796 C 0.71829 0.58053 0.70423 0.0
C1797 C 0.67088 0.58586 0.70368 0.0
C1798 C 0.69528 0.60561 0.69615 0.0
C1799 C 0.74455 0.62443 0.69055 0.0
C1800 C 0.76879 0.62284 0.69201 0.0
C1801 C 0.71928 0.60346 0.69668 0.0
C1802 C 0.76765 0.60007 0.69954 0.0
C1803 C 0.74251 0.57884 0.70533 0.0
H1804 H 0.46397 0.15685 0.725 0.0
H1805 H 0.42848 0.07669 0.70399 0.0
H1806 H 0.39328 0.08296 0.68948 0.0
H1807 H 0.37147 0.11079 0.68372 0.0
H1808 H 0.40479 0.18934 0.70669 0.0
H1809 H 0.44176 0.18424 0.71966 0.0
C1810 C 0.44859 0.14089 0.71715 0.0
C1811 C 0.44875 0.11642 0.71546 0.0
C1812 C 0.42803 0.14438 0.70926 0.0
C1813 C 0.4286 0.09567 0.70545 0.0
C1814 C 0.40854 0.09926 0.69718 0.0
C1815 C 0.38716 0.12686 0.69136 0.0
C1816 C 0.38633 0.15089 0.6937 0.0
C1817 C 0.4079 0.12345 0.69909 0.0
C1818 C 0.40584 0.17115 0.70423 0.0
C1819 C 0.42679 0.16814 0.71173 0.0
H1820 H 0.89385 0.34204 0.69702 0.0
H1821 H 0.88476 0.31428 0.74796 0.0
H1822 H 0.87091 0.26867 0.73831 0.0
H1823 H 0.86169 0.23661 0.71549 0.0
H1824 H 0.87048 0.26368 0.66459 0.0
H1825 H 0.88356 0.30943 0.67402 0.0
C1826 C 0.88854 0.32593 0.70598 0.0
C1827 C 0.8906 0.33166 0.72319 0.0
C1828 C 0.88039 0.2996 0.70035 0.0
C1829 C 0.88387 0.31058 0.73465 0.0
C1830 C 0.8758 0.28444 0.72916 0.0
C1831 C 0.86652 0.25261 0.70649 0.0
C1832 C 0.86462 0.24682 0.68938 0.0
C1833 C 0.87419 0.27877 0.71206 0.0
C1834 C 0.87084 0.26751 0.67779 0.0
C1835 C 0.87866 0.29373 0.68322 0.0
H1836 H 0.23264 0.02624 0.6165 0.0
H1837 H 0.21301 0.98595 0.66424 0.0
H1838 H 0.24504 0.02865 0.67803 0.0
H1839 H 0.27955 0.0775 0.67638 0.0
H1840 H 0.29853 0.11722 0.6286 0.0
H1841 H 0.26657 0.07459 0.61487 0.0
C1842 C 0.2356 0.02668 0.6299 0.0
C1843 C 0.22049 0.00287 0.63929 0.0
C1844 C 0.25419 0.05119 0.63771 0.0
C1845 C 0.22416 0.00401 0.65671 0.0
C1846 C 0.24259 0.02839 0.6646 0.0
C1847 C 0.27646 0.07674 0.663 0.0
C1848 C 0.29168 0.10024 0.65343 0.0
C1849 C 0.25775 0.05212 0.65523 0.0
C1850 C 0.28773 0.09912 0.6361 0.0
C1851 C 0.26921 0.07483 0.62828 0.0
H1852 H 0.99506 0.2335 0.63759 0.0
H1853 H 0.98048 0.15166 0.63582 0.0
H1854 H 0.93445 0.13479 0.64773 0.0
H1855 H 0.89678 0.14277 0.65654 0.0
H1856 H 0.91082 0.22423 0.65834 0.0
H1857 H 0.95851 0.24185 0.64856 0.0
C1858 C 0.98179 0.21199 0.63983 0.0
C1859 C 0.99116 0.19387 0.63569 0.0
C1860 C 0.95524 0.20238 0.6467 0.0
C1861 C 0.97387 0.16608 0.63894 0.0
C1862 C 0.94748 0.15638 0.64569 0.0
C1863 C 0.91061 0.16442 0.65514 0.0
C1864 C 0.90078 0.18231 0.65849 0.0
C1865 C 0.93779 0.17426 0.64938 0.0
C1866 C 0.91838 0.21025 0.65623 0.0
C1867 C 0.94549 0.22024 0.6505 0.0
H1868 H 0.8078 0.80255 0.64653 0.0
H1869 H 0.7288 0.738 0.62926 0.0
H1870 H 0.7392 0.70441 0.64079 0.0
H1871 H 0.77121 0.69329 0.655 0.0
H1872 H 0.8507 0.75761 0.67171 0.0
H1873 H 0.83913 0.79135 0.66183 0.0
C1874 C 0.79269 0.78115 0.64552 0.0
C1875 C 0.76766 0.77284 0.63692 0.0
C1876 C 0.7988 0.76189 0.65217 0.0
C1877 C 0.74843 0.74498 0.63556 0.0
C1878 C 0.75427 0.72573 0.64223 0.0
C1879 C 0.78609 0.71469 0.65636 0.0
C1880 C 0.81192 0.72291 0.66383 0.0
C1881 C 0.77953 0.73395 0.65036 0.0
C1882 C 0.83062 0.75072 0.66601 0.0
C1883 C 0.8241 0.77004 0.66026 0.0
H1884 H 0.99639 0.75724 0.63621 0.0
H1885 H 0.98357 0.82588 0.63857 0.0
H1886 H 0.93721 0.79716 0.64996 0.0
H1887 H 0.8988 0.75169 0.65705 0.0
H1888 H 0.91147 0.68311 0.65464 0.0
H1889 H 0.95931 0.71247 0.64541 0.0
C1890 C 0.98342 0.76587 0.63923 0.0
C1891 C 0.99327 0.79356 0.63639 0.0
C1892 C 0.95677 0.74923 0.64575 0.0
C1893 C 0.97647 0.80462 0.64067 0.0
C1894 C 0.94992 0.7882 0.64711 0.0
C1895 C 0.91237 0.74344 0.65484 0.0
C1896 C 0.90217 0.7156 0.65688 0.0
C1897 C 0.93969 0.76041 0.64944 0.0
C1898 C 0.91938 0.70471 0.65356 0.0
C1899 C 0.94656 0.72143 0.64815 0.0
H1900 H 0.24932 0.23769 0.63362 0.0
H1901 H 0.18407 0.15413 0.6326 0.0
H1902 H 0.21615 0.13991 0.64298 0.0
H1903 H 0.26375 0.15106 0.65053 0.0
H1904 H 0.32867 0.23453 0.65185 0.0
H1905 H 0.29599 0.24903 0.6429 0.0
C1906 C 0.24215 0.21637 0.63566 0.0
C1907 C 0.21441 0.19699 0.63218 0.0
C1908 C 0.26071 0.20834 0.64159 0.0
C1909 C 0.20529 0.16947 0.63522 0.0
C1910 C 0.22366 0.1613 0.64105 0.0
C1911 C 0.27045 0.17241 0.64915 0.0
C1912 C 0.29819 0.19185 0.65231 0.0
C1913 C 0.25151 0.18052 0.64405 0.0
C1914 C 0.30712 0.2194 0.64996 0.0
C1915 C 0.28851 0.22763 0.64474 0.0
H1916 H 0.80598 0.00095 0.64801 0.0
H1917 H 0.72971 0.99082 0.62748 0.0
H1918 H 0.73943 0.03402 0.63956 0.0
H1919 H 0.77022 0.07538 0.6551 0.0
H1920 H 0.84668 0.08582 0.67552 0.0
H1921 H 0.83584 0.04152 0.66476 0.0
C1922 C 0.79128 0.00799 0.64638 0.0
C1923 C 0.76726 0.9927 0.63671 0.0
C1924 C 0.79695 0.03288 0.65341 0.0
C1925 C 0.74862 0.00236 0.63458 0.0
C1926 C 0.75407 0.02701 0.64157 0.0
C1927 C 0.78446 0.06793 0.65731 0.0
C1928 C 0.80916 0.08391 0.66623 0.0
C1929 C 0.77831 0.04258 0.65085 0.0
C1930 C 0.82732 0.07384 0.66895 0.0
C1931 C 0.82124 0.04855 0.66266 0.0
H1932 H 0.46948 0.35086 0.70296 0.0
H1933 H 0.44064 0.32064 0.75263 0.0
H1934 H 0.40727 0.27658 0.74114 0.0
H1935 H 0.38712 0.24614 0.71716 0.0
H1936 H 0.41798 0.27525 0.66764 0.0
H1937 H 0.45006 0.32008 0.67899 0.0
C1938 C 0.45617 0.3346 0.71133 0.0
C1939 C 0.45768 0.33929 0.72869 0.0
C1940 C 0.4374 0.30903 0.70468 0.0
C1941 C 0.43974 0.31794 0.73923 0.0
C1942 C 0.42074 0.2926 0.73268 0.0
C1943 C 0.40071 0.26233 0.70881 0.0
C1944 C 0.40003 0.25736 0.69155 0.0
C1945 C 0.41944 0.2879 0.71544 0.0
C1946 C 0.41808 0.27849 0.68097 0.0
C1947 C 0.43643 0.30415 0.68745 0.0
H1948 H 0.67607 0.0977 0.71995 0.0
H1949 H 0.69043 0.17948 0.71993 0.0
H1950 H 0.73651 0.19591 0.70817 0.0
H1951 H 0.7741 0.18755 0.69974 0.0
H1952 H 0.76004 0.10605 0.69934 0.0
H1953 H 0.71259 0.0889 0.70946 0.0
C1954 C 0.68932 0.1191 0.71736 0.0
C1955 C 0.67989 0.13736 0.72094 0.0
C1956 C 0.71583 0.12843 0.71052 0.0
C1957 C 0.69712 0.16499 0.71725 0.0
C1958 C 0.72353 0.17443 0.71059 0.0
C1959 C 0.76032 0.16599 0.70153 0.0
C1960 C 0.77003 0.14793 0.6984 0.0
C1961 C 0.73324 0.15641 0.70738 0.0
C1962 C 0.75253 0.12012 0.70122 0.0
C1963 C 0.72556 0.11041 0.70714 0.0
H1964 H 0.89324 0.54329 0.69491 0.0
H1965 H 0.89231 0.56918 0.74549 0.0
H1966 H 0.87783 0.60046 0.73555 0.0
H1967 H 0.86559 0.62054 0.71296 0.0
H1968 H 0.86415 0.59472 0.66215 0.0
H1969 H 0.87892 0.56289 0.67179 0.0
C1970 C 0.88967 0.55564 0.70375 0.0
C1971 C 0.89437 0.55412 0.72094 0.0
C1972 C 0.88089 0.57352 0.69794 0.0
C1973 C 0.88965 0.57036 0.73219 0.0
C1974 C 0.88113 0.58814 0.72653 0.0
C1975 C 0.86866 0.60816 0.70387 0.0
C1976 C 0.86414 0.61034 0.6868 0.0
C1977 C 0.87687 0.58999 0.70948 0.0
C1978 C 0.86762 0.59356 0.67535 0.0
C1979 C 0.87609 0.5754 0.68087 0.0
H1980 H 0.52839 0.97531 0.18145 0.0
H1981 H 0.44224 0.92681 0.16782 0.0
H1982 H 0.45255 0.9466 0.13987 0.0
H1983 H 0.48608 0.97876 0.11936 0.0
H1984 H 0.57215 0.02665 0.1333 0.0
H1985 H 0.56187 0.00576 0.16085 0.0
C1986 C 0.51187 0.96873 0.17233 0.0
C1987 C 0.48454 0.94955 0.17685 0.0
C1988 C 0.51795 0.98015 0.15624 0.0
C1989 C 0.46341 0.94177 0.16485 0.0
C1990 C 0.46932 0.95298 0.14879 0.0
C1991 C 0.50261 0.98436 0.12837 0.0
C1992 C 0.52984 0.00443 0.12426 0.0
C1993 C 0.49651 0.97233 0.14435 0.0
C1994 C 0.55095 0.01159 0.13617 0.0
C1995 C 0.54511 0.99958 0.15194 0.0
H1996 H 0.04099 0.49903 0.17184 0.0
H1997 H 0.98228 0.51969 0.19231 0.0
H1998 H 0.95891 0.51095 0.16538 0.0
H1999 H 0.95557 0.49846 0.13587 0.0
H2000 H 0.01378 0.47741 0.1151 0.0
H2001 H 0.03694 0.48546 0.14216 0.0
C2002 C 0.02293 0.50137 0.17042 0.0
C2003 C 0.01353 0.51016 0.18409 0.0
C2004 C 0.00957 0.49642 0.1548 0.0
C2005 C 0.99023 0.51333 0.18197 0.0
C2006 C 0.97676 0.50824 0.16658 0.0
C2007 C 0.97313 0.49532 0.13728 0.0
C2008 C 0.98284 0.4873 0.12341 0.0
C2009 C 0.98633 0.49993 0.15288 0.0
C2010 C 0.006 0.48386 0.12547 0.0
C2011 C 0.01918 0.48831 0.14099 0.0
H2012 H 0.45823 0.50935 0.16601 0.0
H2013 H 0.53296 0.52299 0.19071 0.0
H2014 H 0.54968 0.51389 0.16471 0.0
H2015 H 0.54298 0.50155 0.13503 0.0
H2016 H 0.46861 0.48821 0.11003 0.0
H2017 H 0.45197 0.49788 0.13595 0.0
C2018 C 0.47812 0.51022 0.16569 0.0
C2019 C 0.49431 0.51684 0.18031 0.0
C2020 C 0.48772 0.5051 0.15062 0.0
C2021 C 0.5202 0.51822 0.17962 0.0
C2022 C 0.52974 0.5129 0.16477 0.0
C2023 C 0.52307 0.50063 0.13527 0.0
C2024 C 0.50702 0.49403 0.1206 0.0
C2025 C 0.51366 0.50625 0.1502 0.0
C2026 C 0.48149 0.49343 0.12108 0.0
C2027 C 0.47188 0.49881 0.13594 0.0
H2028 H 0.97514 0.5014 0.84974 0.0
H2029 H 0.03328 0.48169 0.8273 0.0
H2030 H 0.05555 0.48644 0.85426 0.0
H2031 H 0.05748 0.4943 0.88429 0.0
H2032 H 1.00062 0.51548 0.90703 0.0
H2033 H 0.97872 0.51171 0.87994 0.0
C2034 C 0.99291 0.49851 0.85074 0.0
C2035 C 1.00236 0.49097 0.83654 0.0
C2036 C 0.00567 0.50122 0.86636 0.0
C2037 C 0.02529 0.48707 0.83807 0.0
C2038 C 0.03811 0.48986 0.85348 0.0
C2039 C 0.04058 0.49853 0.88334 0.0
C2040 C 0.03076 0.50514 0.89776 0.0
C2041 C 0.02829 0.49662 0.86773 0.0
C2042 C 0.0084 0.50995 0.89623 0.0
C2043 C 0.99597 0.50799 0.8807 0.0
H2044 H 0.50113 0.48651 0.84797 0.0
H2045 H 0.58855 0.54411 0.84375 0.0
H2046 H 0.58835 0.56213 0.87125 0.0
H2047 H 0.5633 0.56286 0.89613 0.0
H2048 H 0.47648 0.50464 0.9013 0.0
H2049 H 0.47664 0.4851 0.87402 0.0
C2050 C 0.52022 0.50275 0.85314 0.0
C2051 C 0.5447 0.51422 0.84356 0.0
C2052 C 0.52009 0.51292 0.86917 0.0
C2053 C 0.5692 0.53534 0.85055 0.0
C2054 C 0.56919 0.54557 0.86637 0.0
C2055 C 0.54441 0.54588 0.89127 0.0
C2056 C 0.51984 0.5354 0.90059 0.0
C2057 C 0.54471 0.5348 0.87567 0.0
C2058 C 0.49565 0.51304 0.89433 0.0
C2059 C 0.49573 0.50197 0.87872 0.0
H2060 H 0.52534 0.01024 0.83896 0.0
H2061 H 0.5079 0.0738 0.85175 0.0
H2062 H 0.49368 0.05488 0.87972 0.0
H2063 H 0.48387 0.01886 0.90019 0.0
H2064 H 0.5004 0.95479 0.88715 0.0
H2065 H 0.51745 0.97536 0.85982 0.0
C2066 C 0.51878 0.02015 0.84794 0.0
C2067 C 0.51757 0.04334 0.84319 0.0
C2068 C 0.51032 0.00897 0.86399 0.0
C2069 C 0.5087 0.05573 0.85497 0.0
C2070 C 0.50064 0.04497 0.87101 0.0
C2071 C 0.49155 0.00962 0.89144 0.0
C2072 C 0.4907 0.98523 0.8957 0.0
C2073 C 0.501 0.02139 0.87561 0.0
C2074 C 0.50049 0.97338 0.88413 0.0
C2075 C 0.51031 0.98517 0.8685 0.0
H2076 H 0.11987 0.28172 0.50433 0.0
H2077 H 0.19971 0.33596 0.52607 0.0
H2078 H 0.21489 0.36113 0.49998 0.0
H2079 H 0.20594 0.36764 0.47087 0.0
H2080 H 0.12602 0.31416 0.44899 0.0
H2081 H 0.11062 0.28882 0.47512 0.0
C2082 C 0.1405 0.29919 0.5034 0.0
C2083 C 0.15862 0.30678 0.5172 0.0
C2084 C 0.1492 0.31368 0.48827 0.0
C2085 C 0.18541 0.32934 0.51564 0.0
C2086 C 0.19411 0.34387 0.50072 0.0
C2087 C 0.18503 0.35063 0.47183 0.0
C2088 C 0.16722 0.34294 0.4579 0.0
C2089 C 0.17624 0.3362 0.48693 0.0
C2090 C 0.14036 0.32043 0.45939 0.0
C2091 C 0.13145 0.30599 0.47439 0.0
H2092 H 0.69236 0.81541 0.50732 0.0
H2093 H 0.64112 0.84769 0.52435 0.0
H2094 H 0.61566 0.83473 0.49801 0.0
H2095 H 0.60831 0.8148 0.46998 0.0
H2096 H 0.65917 0.78213 0.453 0.0
H2097 H 0.6842 0.79439 0.47955 0.0
C2098 C 0.67544 0.81936 0.50535 0.0
C2099 C 0.66874 0.83258 0.51781 0.0
C2100 C 0.66076 0.81173 0.49019 0.0
C2101 C 0.64702 0.83792 0.5149 0.0
C2102 C 0.6323 0.83034 0.49988 0.0
C2103 C 0.62459 0.80999 0.47219 0.0
C2104 C 0.6318 0.79748 0.45955 0.0
C2105 C 0.63901 0.81727 0.48743 0.0
C2106 C 0.65333 0.79189 0.46249 0.0
C2107 C 0.66762 0.79886 0.47767 0.0
H2108 H 0.15129 0.81709 0.51987 0.0
H2109 H 0.16152 0.89433 0.50496 0.0
H2110 H 0.17637 0.88903 0.47725 0.0
H2111 H 0.18865 0.86354 0.45765 0.0
H2112 H 0.17897 0.78649 0.4725 0.0
H2113 H 0.16174 0.7906 0.49976 0.0
C2114 C 0.15642 0.83257 0.51047 0.0
C2115 C 0.15543 0.85614 0.51452 0.0
C2116 C 0.16526 0.82952 0.49457 0.0
C2117 C 0.16245 0.87616 0.50225 0.0
C2118 C 0.17087 0.87311 0.48637 0.0
C2119 C 0.18242 0.84747 0.46676 0.0
C2120 C 0.18522 0.82479 0.46303 0.0
C2121 C 0.1727 0.85005 0.48246 0.0
C2122 C 0.1774 0.80434 0.47511 0.0
C2123 C 0.16742 0.80662 0.49068 0.0
H2124 H 0.61784 0.78339 0.18331 0.0
H2125 H 0.68865 0.85624 0.16499 0.0
H2126 H 0.70568 0.86963 0.19343 0.0
H2127 H 0.69833 0.86275 0.22351 0.0
H2128 H 0.62721 0.79073 0.24222 0.0
H2129 H 0.61282 0.77442 0.21363 0.0
C2130 C 0.63726 0.80191 0.18554 0.0
C2131 C 0.65177 0.819 0.17209 0.0
C2132 C 0.64683 0.80963 0.20198 0.0
C2133 C 0.67684 0.84302 0.17517 0.0
C2134 C 0.68664 0.85065 0.19141 0.0
C2135 C 0.6798 0.84336 0.2213 0.0
C2136 C 0.66365 0.8281 0.23489 0.0
C2137 C 0.67144 0.83447 0.20491 0.0
C2138 C 0.63999 0.80279 0.23194 0.0
C2139 C 0.63166 0.79359 0.2156 0.0
H2140 H 0.15438 0.80688 0.1766 0.0
H2141 H 0.24057 0.84061 0.18957 0.0
H2142 H 0.23105 0.85018 0.21782 0.0
H2143 H 0.19796 0.84891 0.23894 0.0
H2144 H 0.11181 0.81438 0.22558 0.0
H2145 H 0.12154 0.80478 0.19753 0.0
C2146 C 0.17109 0.81605 0.18563 0.0
C2147 C 0.19814 0.82289 0.18092 0.0
C2148 C 0.16544 0.82129 0.20186 0.0
C2149 C 0.21959 0.83536 0.19276 0.0
C2150 C 0.21412 0.84066 0.20897 0.0
C2151 C 0.18132 0.83906 0.22992 0.0
C2152 C 0.15421 0.83251 0.23435 0.0
C2153 C 0.18709 0.83368 0.21368 0.0
C2154 C 0.13291 0.81997 0.22245 0.0
C2155 C 0.13843 0.8144 0.20641 0.0
H2156 H 0.14399 0.35188 0.17213 0.0
H2157 H 0.23062 0.39731 0.18526 0.0
H2158 H 0.22039 0.37582 0.21267 0.0
H2159 H 0.18702 0.343 0.23268 0.0
H2160 H 0.10029 0.29834 0.21969 0.0
H2161 H 0.1104 0.32074 0.19259 0.0
C2162 C 0.16061 0.35738 0.18105 0.0
C2163 C 0.18807 0.37612 0.17652 0.0
C2164 C 0.15459 0.34496 0.19685 0.0
C2165 C 0.20935 0.38265 0.18824 0.0
C2166 C 0.2035 0.37046 0.20399 0.0
C2167 C 0.17028 0.33841 0.22402 0.0
C2168 C 0.14295 0.31881 0.22824 0.0
C2169 C 0.17623 0.35141 0.20839 0.0
C2170 C 0.12159 0.31296 0.21671 0.0
C2171 C 0.12732 0.32587 0.20121 0.0
H2172 H 0.85636 0.63888 0.84714 0.0
H2173 H 0.77025 0.58925 0.83368 0.0
H2174 H 0.77997 0.60945 0.80587 0.0
H2175 H 0.81285 0.64243 0.78546 0.0
H2176 H 0.89888 0.6915 0.79915 0.0
H2177 H 0.88933 0.67002 0.82651 0.0
C2178 C 0.83973 0.63215 0.83808 0.0
C2179 C 0.81256 0.61258 0.84265 0.0
C2180 C 0.84546 0.6438 0.82205 0.0
C2181 C 0.7913 0.60456 0.8307 0.0
C2182 C 0.79687 0.61599 0.81471 0.0
C2183 C 0.82953 0.64814 0.79437 0.0
C2184 C 0.85652 0.66873 0.79025 0.0
C2185 C 0.82385 0.6358 0.81025 0.0
C2186 C 0.87785 0.67602 0.80203 0.0
C2187 C 0.87243 0.66369 0.8177 0.0
H2188 H 0.34199 0.15234 0.8438 0.0
H2189 H 0.41069 0.23034 0.83018 0.0
H2190 H 0.39125 0.22582 0.80225 0.0
H2191 H 0.3542 0.20026 0.78191 0.0
H2192 H 0.28589 0.1219 0.79533 0.0
H2193 H 0.30574 0.12604 0.8231 0.0
C2194 C 0.35289 0.1682 0.83466 0.0
C2195 C 0.37773 0.19168 0.83912 0.0
C2196 C 0.3416 0.16548 0.8186 0.0
C2197 C 0.39135 0.21222 0.82717 0.0
C2198 C 0.38032 0.2096 0.81116 0.0
C2199 C 0.34382 0.18392 0.79083 0.0
C2200 C 0.31855 0.16083 0.78652 0.0
C2201 C 0.35538 0.1864 0.80678 0.0
C2202 C 0.30517 0.14006 0.79837 0.0
C2203 C 0.31658 0.14235 0.81423 0.0
H2204 H 0.85958 0.20043 0.85028 0.0
H2205 H 0.77401 0.16715 0.83591 0.0
H2206 H 0.78463 0.15781 0.80792 0.0
H2207 H 0.8183 0.15857 0.78749 0.0
H2208 H 0.90384 0.19246 0.80212 0.0
H2209 H 0.89319 0.20232 0.82986 0.0
C2210 C 0.84327 0.19142 0.84099 0.0
C2211 C 0.81601 0.18453 0.84529 0.0
C2212 C 0.84952 0.18618 0.82489 0.0
C2213 C 0.79511 0.17238 0.83309 0.0
C2214 C 0.8012 0.16718 0.81701 0.0
C2215 C 0.83463 0.16836 0.7967 0.0
C2216 C 0.86181 0.17459 0.7927 0.0
C2217 C 0.82834 0.17393 0.81276 0.0
C2218 C 0.88267 0.18705 0.80489 0.0
C2219 C 0.87663 0.19281 0.82076 0.0
H2220 H 0.3076 0.1426 0.52593 0.0
H2221 H 0.37032 0.20925 0.4975 0.0
H2222 H 0.39958 0.22644 0.52229 0.0
H2223 H 0.40739 0.2228 0.55205 0.0
H2224 H 0.34472 0.15684 0.58089 0.0
H2225 H 0.31535 0.13921 0.55604 0.0
C2226 C 0.32775 0.16079 0.52519 0.0
C2227 C 0.33677 0.17465 0.50991 0.0
C2228 C 0.34441 0.17075 0.53957 0.0
C2229 C 0.36279 0.19837 0.50915 0.0
C2230 C 0.37957 0.20817 0.5233 0.0
C2231 C 0.38737 0.20446 0.55286 0.0
C2232 C 0.3783 0.1911 0.56826 0.0
C2233 C 0.3706 0.19456 0.53857 0.0
C2234 C 0.35209 0.16761 0.56919 0.0
C2235 C 0.33536 0.15746 0.55497 0.0
H2236 H 0.81636 0.13856 0.50637 0.0
H2237 H 0.90171 0.17338 0.52157 0.0
H2238 H 0.88996 0.18233 0.54942 0.0
H2239 H 0.85494 0.17925 0.5697 0.0
H2240 H 0.76961 0.14345 0.5541 0.0
H2241 H 0.78182 0.13565 0.52628 0.0
C2242 C 0.83241 0.14794 0.5158 0.0
C2243 C 0.85985 0.15509 0.51189 0.0
C2244 C 0.82547 0.15278 0.53177 0.0
C2245 C 0.88045 0.16782 0.52417 0.0
C2246 C 0.8737 0.17277 0.54015 0.0
C2247 C 0.83903 0.16961 0.56022 0.0
C2248 C 0.81139 0.16205 0.564 0.0
C2249 C 0.84621 0.16514 0.54413 0.0
C2250 C 0.79108 0.14982 0.5515 0.0
C2251 C 0.79802 0.14523 0.53559 0.0
H2252 H 0.81919 0.69146 0.51098 0.0
H2253 H 0.90622 0.7187 0.51701 0.0
H2254 H 0.89697 0.6962 0.54405 0.0
H2255 H 0.86375 0.66712 0.56581 0.0
H2256 H 0.7772 0.64185 0.55991 0.0
H2257 H 0.78688 0.66573 0.53339 0.0
C2258 C 0.83632 0.69298 0.51826 0.0
C2259 C 0.86339 0.70673 0.51167 0.0
C2260 C 0.83094 0.68026 0.53399 0.0
C2261 C 0.88505 0.70785 0.5214 0.0
C2262 C 0.87982 0.69513 0.53702 0.0
C2263 C 0.8471 0.66719 0.55884 0.0
C2264 C 0.8197 0.65231 0.56483 0.0
C2265 C 0.85279 0.68103 0.54341 0.0
C2266 C 0.7984 0.65263 0.55552 0.0
C2267 C 0.80392 0.66636 0.54032 0.0
loop_
_geom_bond_atom_site_label_1
_geom_bond_atom_site_label_2
_geom_bond_distance
_geom_bond_site_symmetry_2
_ccdc_geom_bond_type
C0 C1 1.384 . S
C0 H13 0.947 . S
C0 C35 1.382 . S
C1 C0 1.384 . S
C1 C2 1.378 . S
C2 C1 1.378 . S
C2 C3 1.378 . S
C2 H14 0.952 . S
C3 C2 1.378 . S
C3 H15 0.950 . S
C3 C34 1.383 . S
H4 C23 0.947 . S
H5 C24 0.946 . S
H6 C26 0.953 . S
H7 C27 0.945 . S
H8 C29 0.952 . S
H9 C30 0.949 . S
H10 C32 0.950 . S
H11 C33 0.948 . S
H12 C35 0.951 . S
H13 C0 0.947 . S
H14 C2 0.952 . S
H15 C3 0.950 . S
N16 C19 1.382 . S
N16 C21 1.363 . S
N17 C19 1.371 . S
N17 C20 1.372 . S
N18 C20 1.361 . S
N18 C21 1.377 . S
C19 N16 1.382 . S
C19 N17 1.371 . S
C19 C22 1.480 . S
C20 N17 1.372 . S
C20 N18 1.361 . S
C20 C28 1.457 . S
C21 N16 1.363 . S
C21 N18 1.377 . S
C21 C34 1.479 . S
C22 C19 1.480 . S
C22 C23 1.383 . S
C22 C27 1.385 . S
C23 H4 0.947 . S
C23 C22 1.383 . S
C23 C24 1.388 . S
C24 H5 0.946 . S
C24 C23 1.388 . S
C24 C25 1.384 . S
C25 C24 1.384 . S
C25 C26 1.377 . S
C26 H6 0.953 . S
C26 C25 1.377 . S
C26 C27 1.369 . S
C27 H7 0.945 . S
C27 C22 1.385 . S
C27 C26 1.369 . S
C28 C20 1.457 . S
C28 C29 1.372 . S
C28 C33 1.364 . S
C29 H8 0.952 . S
C29 C28 1.372 . S
C29 C30 1.389 . S
C30 H9 0.949 . S
C30 C29 1.389 . S
C30 C31 1.387 . S
C31 C30 1.387 . S
C31 C32 1.372 . S
C32 H10 0.950 . S
C32 C31 1.372 . S
C32 C33 1.379 . S
C33 H11 0.948 . S
C33 C28 1.364 . S
C33 C32 1.379 . S
C34 C3 1.383 . S
C34 C21 1.479 . S
C34 C35 1.398 . S
C35 C0 1.382 . S
C35 H12 0.951 . S
C35 C34 1.398 . S
C36 C37 1.384 . S
C36 H49 0.947 . S
C36 C71 1.382 . S
C37 C36 1.384 . S
C37 C38 1.378 . S
C38 C37 1.378 . S
C38 C39 1.378 . S
C38 H50 0.952 . S
C39 C38 1.378 . S
C39 H51 0.950 . S
C39 C70 1.383 . S
H40 C59 0.947 . S
H41 C60 0.946 . S
H42 C62 0.953 . S
H43 C63 0.945 . S
H44 C65 0.952 . S
H45 C66 0.949 . S
H46 C68 0.950 . S
H47 C69 0.948 . S
H48 C71 0.951 . S
H49 C36 0.947 . S
H50 C38 0.952 . S
H51 C39 0.950 . S
N52 C55 1.382 . S
N52 C57 1.363 . S
N53 C55 1.371 . S
N53 C56 1.372 . S
N54 C56 1.361 . S
N54 C57 1.377 . S
C55 N52 1.382 . S
C55 N53 1.371 . S
C55 C58 1.480 . S
C56 N53 1.372 . S
C56 N54 1.361 . S
C56 C64 1.457 . S
C57 N52 1.363 . S
C57 N54 1.377 . S
C57 C70 1.479 . S
C58 C55 1.480 . S
C58 C59 1.383 . S
C58 C63 1.385 . S
C59 H40 0.947 . S
C59 C58 1.383 . S
C59 C60 1.388 . S
C60 H41 0.946 . S
C60 C59 1.388 . S
C60 C61 1.384 . S
C61 C60 1.384 . S
C61 C62 1.377 . S
C62 H42 0.953 . S
C62 C61 1.377 . S
C62 C63 1.369 . S
C63 H43 0.945 . S
C63 C58 1.385 . S
C63 C62 1.369 . S
C64 C56 1.457 . S
C64 C65 1.372 . S
C64 C69 1.364 . S
C65 H44 0.952 . S
C65 C64 1.372 . S
C65 C66 1.389 . S
C66 H45 0.949 . S
C66 C65 1.389 . S
C66 C67 1.387 . S
C67 C66 1.387 . S
C67 C68 1.372 . S
C68 H46 0.950 . S
C68 C67 1.372 . S
C68 C69 1.379 . S
C69 H47 0.948 . S
C69 C64 1.364 . S
C69 C68 1.379 . S
C70 C39 1.383 . S
C70 C57 1.479 . S
C70 C71 1.398 . S
C71 C36 1.382 . S
C71 H48 0.951 . S
C71 C70 1.398 . S
C72 C73 1.384 . S
C72 H85 0.947 . S
C72 C107 1.382 . S
C73 C72 1.384 . S
C73 C74 1.378 . S
C74 C73 1.378 . S
C74 C75 1.378 . S
C74 H86 0.952 . S
C75 C74 1.378 . S
C75 H87 0.950 . S
C75 C106 1.383 . S
H76 C95 0.947 . S
H77 C96 0.946 . S
H78 C98 0.953 . S
H79 C99 0.945 . S
H80 C101 0.952 . S
H81 C102 0.949 . S
H82 C104 0.950 . S
H83 C105 0.948 . S
H84 C107 0.951 . S
H85 C72 0.947 . S
H86 C74 0.952 . S
H87 C75 0.950 . S
N88 C91 1.382 . S
N88 C93 1.363 . S
N89 C91 1.371 . S
N89 C92 1.372 . S
N90 C92 1.361 . S
N90 C93 1.377 . S
C91 N88 1.382 . S
C91 N89 1.371 . S
C91 C94 1.480 . S
C92 N89 1.372 . S
C92 N90 1.361 . S
C92 C100 1.457 . S
C93 N88 1.363 . S
C93 N90 1.377 . S
C93 C106 1.479 . S
C94 C91 1.480 . S
C94 C95 1.383 . S
C94 C99 1.385 . S
C95 H76 0.947 . S
C95 C94 1.383 . S
C95 C96 1.388 . S
C96 H77 0.946 . S
C96 C95 1.388 . S
C96 C97 1.384 . S
C97 C96 1.384 . S
C97 C98 1.377 . S
C98 H78 0.953 . S
C98 C97 1.377 . S
C98 C99 1.369 . S
C99 H79 0.945 . S
C99 C94 1.385 . S
C99 C98 1.369 . S
C100 C92 1.457 . S
C100 C101 1.372 . S
C100 C105 1.364 . S
C101 H80 0.952 . S
C101 C100 1.372 . S
C101 C102 1.389 . S
C102 H81 0.949 . S
C102 C101 1.389 . S
C102 C103 1.387 . S
C103 C102 1.387 . S
C103 C104 1.372 . S
C104 H82 0.950 . S
C104 C103 1.372 . S
C104 C105 1.379 . S
C105 H83 0.948 . S
C105 C100 1.364 . S
C105 C104 1.379 . S
C106 C75 1.383 . S
C106 C93 1.479 . S
C106 C107 1.398 . S
C107 C72 1.382 . S
C107 H84 0.951 . S
C107 C106 1.398 . S
C108 C109 1.384 . S
C108 H121 0.947 . S
C108 C143 1.382 . S
C109 C108 1.384 . S
C109 C110 1.378 . S
C110 C109 1.378 . S
C110 C111 1.378 . S
C110 H122 0.952 . S
C111 C110 1.378 . S
C111 H123 0.950 . S
C111 C142 1.383 . S
H112 C131 0.947 . S
H113 C132 0.946 . S
H114 C134 0.953 . S
H115 C135 0.945 . S
H116 C137 0.952 . S
H117 C138 0.949 . S
H118 C140 0.950 . S
H119 C141 0.948 . S
H120 C143 0.951 . S
H121 C108 0.947 . S
H122 C110 0.952 . S
H123 C111 0.950 . S
N124 C127 1.382 . S
N124 C129 1.363 . S
N125 C127 1.371 . S
N125 C128 1.372 . S
N126 C128 1.361 . S
N126 C129 1.377 . S
C127 N124 1.382 . S
C127 N125 1.371 . S
C127 C130 1.480 . S
C128 N125 1.372 . S
C128 N126 1.361 . S
C128 C136 1.457 . S
C129 N124 1.363 . S
C129 N126 1.377 . S
C129 C142 1.479 . S
C130 C127 1.480 . S
C130 C131 1.383 . S
C130 C135 1.385 . S
C131 H112 0.947 . S
C131 C130 1.383 . S
C131 C132 1.388 . S
C132 H113 0.946 . S
C132 C131 1.388 . S
C132 C133 1.384 . S
C133 C132 1.384 . S
C133 C134 1.377 . S
C134 H114 0.953 . S
C134 C133 1.377 . S
C134 C135 1.369 . S
C135 H115 0.945 . S
C135 C130 1.385 . S
C135 C134 1.369 . S
C136 C128 1.457 . S
C136 C137 1.372 . S
C136 C141 1.364 . S
C137 H116 0.952 . S
C137 C136 1.372 . S
C137 C138 1.389 . S
C138 H117 0.949 . S
C138 C137 1.389 . S
C138 C139 1.387 . S
C139 C138 1.387 . S
C139 C140 1.372 . S
C140 H118 0.950 . S
C140 C139 1.372 . S
C140 C141 1.379 . S
C141 H119 0.948 . S
C141 C136 1.364 . S
C141 C140 1.379 . S
C142 C111 1.383 . S
C142 C129 1.479 . S
C142 C143 1.398 . S
C143 C108 1.382 . S
C143 H120 0.951 . S
C143 C142 1.398 . S
C144 C145 1.384 . S
C144 H157 0.947 . S
C144 C179 1.382 . S
C145 C144 1.384 . S
C145 C146 1.378 . S
C146 C145 1.378 . S
C146 C147 1.378 . S
C146 H158 0.952 . S
C147 C146 1.378 . S
C147 H159 0.950 . S
C147 C178 1.383 . S
H148 C167 0.947 . S
H149 C168 0.946 . S
H150 C170 0.953 . S
H151 C171 0.945 . S
H152 C173 0.952 . S
H153 C174 0.949 . S
H154 C176 0.950 . S
H155 C177 0.948 . S
H156 C179 0.951 . S
H157 C144 0.947 . S
H158 C146 0.952 . S
H159 C147 0.950 . S
N160 C163 1.382 . S
N160 C165 1.363 . S
N161 C163 1.371 . S
N161 C164 1.372 . S
N162 C164 1.361 . S
N162 C165 1.377 . S
C163 N160 1.382 . S
C163 N161 1.371 . S
C163 C166 1.480 . S
C164 N161 1.372 . S
C164 N162 1.361 . S
C164 C172 1.457 . S
C165 N160 1.363 . S
C165 N162 1.377 . S
C165 C178 1.479 . S
C166 C163 1.480 . S
C166 C167 1.383 . S
C166 C171 1.385 . S
C167 H148 0.947 . S
C167 C166 1.383 . S
C167 C168 1.388 . S
C168 H149 0.946 . S
C168 C167 1.388 . S
C168 C169 1.384 . S
C169 C168 1.384 . S
C169 C170 1.377 . S
C170 H150 0.953 . S
C170 C169 1.377 . S
C170 C171 1.369 . S
C171 H151 0.945 . S
C171 C166 1.385 . S
C171 C170 1.369 . S
C172 C164 1.457 . S
C172 C173 1.372 . S
C172 C177 1.364 . S
C173 H152 0.952 . S
C173 C172 1.372 . S
C173 C174 1.389 . S
C174 H153 0.949 . S
C174 C173 1.389 . S
C174 C175 1.387 . S
C175 C174 1.387 . S
C175 C176 1.372 . S
C176 H154 0.950 . S
C176 C175 1.372 . S
C176 C177 1.379 . S
C177 H155 0.948 . S
C177 C172 1.364 . S
C177 C176 1.379 . S
C178 C147 1.383 . S
C178 C165 1.479 . S
C178 C179 1.398 . S
C179 C144 1.382 . S
C179 H156 0.951 . S
C179 C178 1.398 . S
C180 C181 1.384 . S
C180 H193 0.947 . S
C180 C215 1.382 . S
C181 C180 1.384 . S
C181 C182 1.378 . S
C182 C181 1.378 . S
C182 C183 1.378 . S
C182 H194 0.952 . S
C183 C182 1.378 . S
C183 H195 0.950 . S
C183 C214 1.383 . S
H184 C203 0.947 . S
H185 C204 0.946 . S
H186 C206 0.953 . S
H187 C207 0.945 . S
H188 C209 0.952 . S
H189 C210 0.949 . S
H190 C212 0.950 . S
H191 C213 0.948 . S
H192 C215 0.951 . S
H193 C180 0.947 . S
H194 C182 0.952 . S
H195 C183 0.950 . S
N196 C199 1.382 . S
N196 C201 1.363 . S
N197 C199 1.371 . S
N197 C200 1.372 . S
N198 C200 1.361 . S
N198 C201 1.377 . S
C199 N196 1.382 . S
C199 N197 1.371 . S
C199 C202 1.480 . S
C200 N197 1.372 . S
C200 N198 1.361 . S
C200 C208 1.457 . S
C201 N196 1.363 . S
C201 N198 1.377 . S
C201 C214 1.479 . S
C202 C199 1.480 . S
C202 C203 1.383 . S
C202 C207 1.385 . S
C203 H184 0.947 . S
C203 C202 1.383 . S
C203 C204 1.388 . S
C204 H185 0.946 . S
C204 C203 1.388 . S
C204 C205 1.384 . S
C205 C204 1.384 . S
C205 C206 1.377 . S
C206 H186 0.953 . S
C206 C205 1.377 . S
C206 C207 1.369 . S
C207 H187 0.945 . S
C207 C202 1.385 . S
C207 C206 1.369 . S
C208 C200 1.457 . S
C208 C209 1.372 . S
C208 C213 1.364 . S
C209 H188 0.952 . S
C209 C208 1.372 . S
C209 C210 1.389 . S
C210 H189 0.949 . S
C210 C209 1.389 . S
C210 C211 1.387 . S
C211 C210 1.387 . S
C211 C212 1.372 . S
C212 H190 0.950 . S
C212 C211 1.372 . S
C212 C213 1.379 . S
C213 H191 0.948 . S
C213 C208 1.364 . S
C213 C212 1.379 . S
C214 C183 1.383 . S
C214 C201 1.479 . S
C214 C215 1.398 . S
C215 C180 1.382 . S
C215 H192 0.951 . S
C215 C214 1.398 . S
C216 C217 1.384 . S
C216 H229 0.947 . S
C216 C251 1.382 . S
C217 C216 1.384 . S
C217 C218 1.378 . S
C218 C217 1.378 . S
C218 C219 1.378 . S
C218 H230 0.952 . S
C219 C218 1.378 . S
C219 H231 0.950 . S
C219 C250 1.383 . S
H220 C239 0.947 . S
H221 C240 0.946 . S
H222 C242 0.953 . S
H223 C243 0.945 . S
H224 C245 0.952 . S
H225 C246 0.949 . S
H226 C248 0.950 . S
H227 C249 0.948 . S
H228 C251 0.951 . S
H229 C216 0.947 . S
H230 C218 0.952 . S
H231 C219 0.950 . S
N232 C235 1.382 . S
N232 C237 1.363 . S
N233 C235 1.371 . S
N233 C236 1.372 . S
N234 C236 1.361 . S
N234 C237 1.377 . S
C235 N232 1.382 . S
C235 N233 1.371 . S
C235 C238 1.480 . S
C236 N233 1.372 . S
C236 N234 1.361 . S
C236 C244 1.457 . S
C237 N232 1.363 . S
C237 N234 1.377 . S
C237 C250 1.479 . S
C238 C235 1.480 . S
C238 C239 1.383 . S
C238 C243 1.385 . S
C239 H220 0.947 . S
C239 C238 1.383 . S
C239 C240 1.388 . S
C240 H221 0.946 . S
C240 C239 1.388 . S
C240 C241 1.384 . S
C241 C240 1.384 . S
C241 C242 1.377 . S
C242 H222 0.953 . S
C242 C241 1.377 . S
C242 C243 1.369 . S
C243 H223 0.945 . S
C243 C238 1.385 . S
C243 C242 1.369 . S
C244 C236 1.457 . S
C244 C245 1.372 . S
C244 C249 1.364 . S
C245 H224 0.952 . S
C245 C244 1.372 . S
C245 C246 1.389 . S
C246 H225 0.949 . S
C246 C245 1.389 . S
C246 C247 1.387 . S
C247 C246 1.387 . S
C247 C248 1.372 . S
C248 H226 0.950 . S
C248 C247 1.372 . S
C248 C249 1.379 . S
C249 H227 0.948 . S
C249 C244 1.364 . S
C249 C248 1.379 . S
C250 C219 1.383 . S
C250 C237 1.479 . S
C250 C251 1.398 . S
C251 C216 1.382 . S
C251 H228 0.951 . S
C251 C250 1.398 . S
C252 C253 1.384 . S
C252 H265 0.947 . S
C252 C287 1.382 . S
C253 C252 1.384 . S
C253 C254 1.378 . S
C254 C253 1.378 . S
C254 C255 1.378 . S
C254 H266 0.952 . S
C255 C254 1.378 . S
C255 H267 0.950 . S
C255 C286 1.383 . S
H256 C275 0.947 . S
H257 C276 0.946 . S
H258 C278 0.953 . S
H259 C279 0.945 . S
H260 C281 0.952 . S
H261 C282 0.949 . S
H262 C284 0.950 . S
H263 C285 0.948 . S
H264 C287 0.951 . S
H265 C252 0.947 . S
H266 C254 0.952 . S
H267 C255 0.950 . S
N268 C271 1.382 . S
N268 C273 1.363 . S
N269 C271 1.371 . S
N269 C272 1.372 . S
N270 C272 1.361 . S
N270 C273 1.377 . S
C271 N268 1.382 . S
C271 N269 1.371 . S
C271 C274 1.480 . S
C272 N269 1.372 . S
C272 N270 1.361 . S
C272 C280 1.457 . S
C273 N268 1.363 . S
C273 N270 1.377 . S
C273 C286 1.479 . S
C274 C271 1.480 . S
C274 C275 1.383 . S
C274 C279 1.385 . S
C275 H256 0.947 . S
C275 C274 1.383 . S
C275 C276 1.388 . S
C276 H257 0.946 . S
C276 C275 1.388 . S
C276 C277 1.384 . S
C277 C276 1.384 . S
C277 C278 1.377 . S
C278 H258 0.953 . S
C278 C277 1.377 . S
C278 C279 1.369 . S
C279 H259 0.945 . S
C279 C274 1.385 . S
C279 C278 1.369 . S
C280 C272 1.457 . S
C280 C281 1.372 . S
C280 C285 1.364 . S
C281 H260 0.952 . S
C281 C280 1.372 . S
C281 C282 1.389 . S
C282 H261 0.949 . S
C282 C281 1.389 . S
C282 C283 1.387 . S
C283 C282 1.387 . S
C283 C284 1.372 . S
C284 H262 0.950 . S
C284 C283 1.372 . S
C284 C285 1.379 . S
C285 H263 0.948 . S
C285 C280 1.364 . S
C285 C284 1.379 . S
C286 C255 1.383 . S
C286 C273 1.479 . S
C286 C287 1.398 . S
C287 C252 1.382 . S
C287 H264 0.951 . S
C287 C286 1.398 . S
C288 C289 1.384 . S
C288 H301 0.947 . S
C288 C323 1.382 . S
C289 C288 1.384 . S
C289 C290 1.378 . S
C290 C289 1.378 . S
C290 C291 1.378 . S
C290 H302 0.952 . S
C291 C290 1.378 . S
C291 H303 0.950 . S
C291 C322 1.383 . S
H292 C311 0.947 . S
H293 C312 0.946 . S
H294 C314 0.953 . S
H295 C315 0.945 . S
H296 C317 0.952 . S
H297 C318 0.949 . S
H298 C320 0.950 . S
H299 C321 0.948 . S
H300 C323 0.951 . S
H301 C288 0.947 . S
H302 C290 0.952 . S
H303 C291 0.950 . S
N304 C307 1.382 . S
N304 C309 1.363 . S
N305 C307 1.371 . S
N305 C308 1.372 . S
N306 C308 1.361 . S
N306 C309 1.377 . S
C307 N304 1.382 . S
C307 N305 1.371 . S
C307 C310 1.480 . S
C308 N305 1.372 . S
C308 N306 1.361 . S
C308 C316 1.457 . S
C309 N304 1.363 . S
C309 N306 1.377 . S
C309 C322 1.479 . S
C310 C307 1.480 . S
C310 C311 1.383 . S
C310 C315 1.385 . S
C311 H292 0.947 . S
C311 C310 1.383 . S
C311 C312 1.388 . S
C312 H293 0.946 . S
C312 C311 1.388 . S
C312 C313 1.384 . S
C313 C312 1.384 . S
C313 C314 1.377 . S
C314 H294 0.953 . S
C314 C313 1.377 . S
C314 C315 1.369 . S
C315 H295 0.945 . S
C315 C310 1.385 . S
C315 C314 1.369 . S
C316 C308 1.457 . S
C316 C317 1.372 . S
C316 C321 1.364 . S
C317 H296 0.952 . S
C317 C316 1.372 . S
C317 C318 1.389 . S
C318 H297 0.949 . S
C318 C317 1.389 . S
C318 C319 1.387 . S
C319 C318 1.387 . S
C319 C320 1.372 . S
C320 H298 0.950 . S
C320 C319 1.372 . S
C320 C321 1.379 . S
C321 H299 0.948 . S
C321 C316 1.364 . S
C321 C320 1.379 . S
C322 C291 1.383 . S
C322 C309 1.479 . S
C322 C323 1.398 . S
C323 C288 1.382 . S
C323 H300 0.951 . S
C323 C322 1.398 . S
C324 C325 1.384 . S
C324 H337 0.947 . S
C324 C359 1.382 . S
C325 C324 1.384 . S
C325 C326 1.378 . S
C326 C325 1.378 . S
C326 C327 1.378 . S
C326 H338 0.952 . S
C327 C326 1.378 . S
C327 H339 0.950 . S
C327 C358 1.383 . S
H328 C347 0.947 . S
H329 C348 0.946 . S
H330 C350 0.953 . S
H331 C351 0.945 . S
H332 C353 0.952 . S
H333 C354 0.949 . S
H334 C356 0.950 . S
H335 C357 0.948 . S
H336 C359 0.951 . S
H337 C324 0.947 . S
H338 C326 0.952 . S
H339 C327 0.950 . S
N340 C343 1.382 . S
N340 C345 1.363 . S
N341 C343 1.371 . S
N341 C344 1.372 . S
N342 C344 1.361 . S
N342 C345 1.377 . S
C343 N340 1.382 . S
C343 N341 1.371 . S
C343 C346 1.480 . S
C344 N341 1.372 . S
C344 N342 1.361 . S
C344 C352 1.457 . S
C345 N340 1.363 . S
C345 N342 1.377 . S
C345 C358 1.479 . S
C346 C343 1.480 . S
C346 C347 1.383 . S
C346 C351 1.385 . S
C347 H328 0.947 . S
C347 C346 1.383 . S
C347 C348 1.388 . S
C348 H329 0.946 . S
C348 C347 1.388 . S
C348 C349 1.384 . S
C349 C348 1.384 . S
C349 C350 1.377 . S
C350 H330 0.953 . S
C350 C349 1.377 . S
C350 C351 1.369 . S
C351 H331 0.945 . S
C351 C346 1.385 . S
C351 C350 1.369 . S
C352 C344 1.457 . S
C352 C353 1.372 . S
C352 C357 1.364 . S
C353 H332 0.952 . S
C353 C352 1.372 . S
C353 C354 1.389 . S
C354 H333 0.949 . S
C354 C353 1.389 . S
C354 C355 1.387 . S
C355 C354 1.387 . S
C355 C356 1.372 . S
C356 H334 0.950 . S
C356 C355 1.372 . S
C356 C357 1.379 . S
C357 H335 0.948 . S
C357 C352 1.364 . S
C357 C356 1.379 . S
C358 C327 1.383 . S
C358 C345 1.479 . S
C358 C359 1.398 . S
C359 C324 1.382 . S
C359 H336 0.951 . S
C359 C358 1.398 . S
C360 C361 1.384 . S
C360 H373 0.947 . S
C360 C395 1.382 . S
C361 C360 1.384 . S
C361 C362 1.378 . S
C362 C361 1.378 . S
C362 C363 1.378 . S
C362 H374 0.952 . S
C363 C362 1.378 . S
C363 H375 0.950 . S
C363 C394 1.383 . S
H364 C383 0.947 . S
H365 C384 0.946 . S
H366 C386 0.953 . S
H367 C387 0.945 . S
H368 C389 0.952 . S
H369 C390 0.949 . S
H370 C392 0.950 . S
H371 C393 0.948 . S
H372 C395 0.951 . S
H373 C360 0.947 . S
H374 C362 0.952 . S
H375 C363 0.950 . S
N376 C379 1.382 . S
N376 C381 1.363 . S
N377 C379 1.371 . S
N377 C380 1.372 . S
N378 C380 1.361 . S
N378 C381 1.377 . S
C379 N376 1.382 . S
C379 N377 1.371 . S
C379 C382 1.480 . S
C380 N377 1.372 . S
C380 N378 1.361 . S
C380 C388 1.457 . S
C381 N376 1.363 . S
C381 N378 1.377 . S
C381 C394 1.479 . S
C382 C379 1.480 . S
C382 C383 1.383 . S
C382 C387 1.385 . S
C383 H364 0.947 . S
C383 C382 1.383 . S
C383 C384 1.388 . S
C384 H365 0.946 . S
C384 C383 1.388 . S
C384 C385 1.384 . S
C385 C384 1.384 . S
C385 C386 1.377 . S
C386 H366 0.953 . S
C386 C385 1.377 . S
C386 C387 1.369 . S
C387 H367 0.945 . S
C387 C382 1.385 . S
C387 C386 1.369 . S
C388 C380 1.457 . S
C388 C389 1.372 . S
C388 C393 1.364 . S
C389 H368 0.952 . S
C389 C388 1.372 . S
C389 C390 1.389 . S
C390 H369 0.949 . S
C390 C389 1.389 . S
C390 C391 1.387 . S
C391 C390 1.387 . S
C391 C392 1.372 . S
C392 H370 0.950 . S
C392 C391 1.372 . S
C392 C393 1.379 . S
C393 H371 0.948 . S
C393 C388 1.364 . S
C393 C392 1.379 . S
C394 C363 1.383 . S
C394 C381 1.479 . S
C394 C395 1.398 . S
C395 C360 1.382 . S
C395 H372 0.951 . S
C395 C394 1.398 . S
C396 C397 1.384 . S
C396 H409 0.947 . S
C396 C431 1.382 . S
C397 C396 1.384 . S
C397 C398 1.378 . S
C398 C397 1.378 . S
C398 C399 1.378 . S
C398 H410 0.952 . S
C399 C398 1.378 . S
C399 H411 0.950 . S
C399 C430 1.383 . S
H400 C419 0.947 . S
H401 C420 0.946 . S
H402 C422 0.953 . S
H403 C423 0.945 . S
H404 C425 0.952 . S
H405 C426 0.949 . S
H406 C428 0.950 . S
H407 C429 0.948 . S
H408 C431 0.951 . S
H409 C396 0.947 . S
H410 C398 0.952 . S
H411 C399 0.950 . S
N412 C415 1.382 . S
N412 C417 1.363 . S
N413 C415 1.371 . S
N413 C416 1.372 . S
N414 C416 1.361 . S
N414 C417 1.377 . S
C415 N412 1.382 . S
C415 N413 1.371 . S
C415 C418 1.480 . S
C416 N413 1.372 . S
C416 N414 1.361 . S
C416 C424 1.457 . S
C417 N412 1.363 . S
C417 N414 1.377 . S
C417 C430 1.479 . S
C418 C415 1.480 . S
C418 C419 1.383 . S
C418 C423 1.385 . S
C419 H400 0.947 . S
C419 C418 1.383 . S
C419 C420 1.388 . S
C420 H401 0.946 . S
C420 C419 1.388 . S
C420 C421 1.384 . S
C421 C420 1.384 . S
C421 C422 1.377 . S
C422 H402 0.953 . S
C422 C421 1.377 . S
C422 C423 1.369 . S
C423 H403 0.945 . S
C423 C418 1.385 . S
C423 C422 1.369 . S
C424 C416 1.457 . S
C424 C425 1.372 . S
C424 C429 1.364 . S
C425 H404 0.952 . S
C425 C424 1.372 . S
C425 C426 1.389 . S
C426 H405 0.949 . S
C426 C425 1.389 . S
C426 C427 1.387 . S
C427 C426 1.387 . S
C427 C428 1.372 . S
C428 H406 0.950 . S
C428 C427 1.372 . S
C428 C429 1.379 . S
C429 H407 0.948 . S
C429 C424 1.364 . S
C429 C428 1.379 . S
C430 C399 1.383 . S
C430 C417 1.479 . S
C430 C431 1.398 . S
C431 C396 1.382 . S
C431 H408 0.951 . S
C431 C430 1.398 . S
C432 C433 1.384 . S
C432 H445 0.947 . S
C432 C467 1.382 . S
C433 C432 1.384 . S
C433 C434 1.378 . S
C434 C433 1.378 . S
C434 C435 1.378 . S
C434 H446 0.952 . S
C435 C434 1.378 . S
C435 H447 0.950 . S
C435 C466 1.383 . S
H436 C455 0.947 . S
H437 C456 0.946 . S
H438 C458 0.953 . S
H439 C459 0.945 . S
H440 C461 0.952 . S
H441 C462 0.949 . S
H442 C464 0.950 . S
H443 C465 0.948 . S
H444 C467 0.951 . S
H445 C432 0.947 . S
H446 C434 0.952 . S
H447 C435 0.950 . S
N448 C451 1.382 . S
N448 C453 1.363 . S
N449 C451 1.371 . S
N449 C452 1.372 . S
N450 C452 1.361 . S
N450 C453 1.377 . S
C451 N448 1.382 . S
C451 N449 1.371 . S
C451 C454 1.480 . S
C452 N449 1.372 . S
C452 N450 1.361 . S
C452 C460 1.457 . S
C453 N448 1.363 . S
C453 N450 1.377 . S
C453 C466 1.479 . S
C454 C451 1.480 . S
C454 C455 1.383 . S
C454 C459 1.385 . S
C455 H436 0.947 . S
C455 C454 1.383 . S
C455 C456 1.388 . S
C456 H437 0.946 . S
C456 C455 1.388 . S
C456 C457 1.384 . S
C457 C456 1.384 . S
C457 C458 1.377 . S
C458 H438 0.953 . S
C458 C457 1.377 . S
C458 C459 1.369 . S
C459 H439 0.945 . S
C459 C454 1.385 . S
C459 C458 1.369 . S
C460 C452 1.457 . S
C460 C461 1.372 . S
C460 C465 1.364 . S
C461 H440 0.952 . S
C461 C460 1.372 . S
C461 C462 1.389 . S
C462 H441 0.949 . S
C462 C461 1.389 . S
C462 C463 1.387 . S
C463 C462 1.387 . S
C463 C464 1.372 . S
C464 H442 0.950 . S
C464 C463 1.372 . S
C464 C465 1.379 . S
C465 H443 0.948 . S
C465 C460 1.364 . S
C465 C464 1.379 . S
C466 C435 1.383 . S
C466 C453 1.479 . S
C466 C467 1.398 . S
C467 C432 1.382 . S
C467 H444 0.951 . S
C467 C466 1.398 . S
C468 C469 1.384 . S
C468 H481 0.947 . S
C468 C503 1.382 . S
C469 C468 1.384 . S
C469 C470 1.378 . S
C470 C469 1.378 . S
C470 C471 1.378 . S
C470 H482 0.952 . S
C471 C470 1.378 . S
C471 H483 0.950 . S
C471 C502 1.383 . S
H472 C491 0.947 . S
H473 C492 0.946 . S
H474 C494 0.953 . S
H475 C495 0.945 . S
H476 C497 0.952 . S
H477 C498 0.949 . S
H478 C500 0.950 . S
H479 C501 0.948 . S
H480 C503 0.951 . S
H481 C468 0.947 . S
H482 C470 0.952 . S
H483 C471 0.950 . S
N484 C487 1.382 . S
N484 C489 1.363 . S
N485 C487 1.371 . S
N485 C488 1.372 . S
N486 C488 1.361 . S
N486 C489 1.377 . S
C487 N484 1.382 . S
C487 N485 1.371 . S
C487 C490 1.480 . S
C488 N485 1.372 . S
C488 N486 1.361 . S
C488 C496 1.457 . S
C489 N484 1.363 . S
C489 N486 1.377 . S
C489 C502 1.479 . S
C490 C487 1.480 . S
C490 C491 1.383 . S
C490 C495 1.385 . S
C491 H472 0.947 . S
C491 C490 1.383 . S
C491 C492 1.388 . S
C492 H473 0.946 . S
C492 C491 1.388 . S
C492 C493 1.384 . S
C493 C492 1.384 . S
C493 C494 1.377 . S
C494 H474 0.953 . S
C494 C493 1.377 . S
C494 C495 1.369 . S
C495 H475 0.945 . S
C495 C490 1.385 . S
C495 C494 1.369 . S
C496 C488 1.457 . S
C496 C497 1.372 . S
C496 C501 1.364 . S
C497 H476 0.952 . S
C497 C496 1.372 . S
C497 C498 1.389 . S
C498 H477 0.949 . S
C498 C497 1.389 . S
C498 C499 1.387 . S
C499 C498 1.387 . S
C499 C500 1.372 . S
C500 H478 0.950 . S
C500 C499 1.372 . S
C500 C501 1.379 . S
C501 H479 0.948 . S
C501 C496 1.364 . S
C501 C500 1.379 . S
C502 C471 1.383 . S
C502 C489 1.479 . S
C502 C503 1.398 . S
C503 C468 1.382 . S
C503 H480 0.951 . S
C503 C502 1.398 . S
C504 C505 1.384 . S
C504 H517 0.947 . S
C504 C539 1.382 . S
C505 C504 1.384 . S
C505 C506 1.378 . S
C506 C505 1.378 . S
C506 C507 1.378 . S
C506 H518 0.952 . S
C507 C506 1.378 . S
C507 H519 0.950 . S
C507 C538 1.383 . S
H508 C527 0.947 . S
H509 C528 0.946 . S
H510 C530 0.953 . S
H511 C531 0.945 . S
H512 C533 0.952 . S
H513 C534 0.949 . S
H514 C536 0.950 . S
H515 C537 0.948 . S
H516 C539 0.951 . S
H517 C504 0.947 . S
H518 C506 0.952 . S
H519 C507 0.950 . S
N520 C523 1.382 . S
N520 C525 1.363 . S
N521 C523 1.371 . S
N521 C524 1.372 . S
N522 C524 1.361 . S
N522 C525 1.377 . S
C523 N520 1.382 . S
C523 N521 1.371 . S
C523 C526 1.480 . S
C524 N521 1.372 . S
C524 N522 1.361 . S
C524 C532 1.457 . S
C525 N520 1.363 . S
C525 N522 1.377 . S
C525 C538 1.479 . S
C526 C523 1.480 . S
C526 C527 1.383 . S
C526 C531 1.385 . S
C527 H508 0.947 . S
C527 C526 1.383 . S
C527 C528 1.388 . S
C528 H509 0.946 . S
C528 C527 1.388 . S
C528 C529 1.384 . S
C529 C528 1.384 . S
C529 C530 1.377 . S
C530 H510 0.953 . S
C530 C529 1.377 . S
C530 C531 1.369 . S
C531 H511 0.945 . S
C531 C526 1.385 . S
C531 C530 1.369 . S
C532 C524 1.457 . S
C532 C533 1.372 . S
C532 C537 1.364 . S
C533 H512 0.952 . S
C533 C532 1.372 . S
C533 C534 1.389 . S
C534 H513 0.949 . S
C534 C533 1.389 . S
C534 C535 1.387 . S
C535 C534 1.387 . S
C535 C536 1.372 . S
C536 H514 0.950 . S
C536 C535 1.372 . S
C536 C537 1.379 . S
C537 H515 0.948 . S
C537 C532 1.364 . S
C537 C536 1.379 . S
C538 C507 1.383 . S
C538 C525 1.479 . S
C538 C539 1.398 . S
C539 C504 1.382 . S
C539 H516 0.951 . S
C539 C538 1.398 . S
C540 C541 1.384 . S
C540 H553 0.947 . S
C540 C575 1.382 . S
C541 C540 1.384 . S
C541 C542 1.378 . S
C542 C541 1.378 . S
C542 C543 1.378 . S
C542 H554 0.952 . S
C543 C542 1.378 . S
C543 H555 0.950 . S
C543 C574 1.383 . S
H544 C563 0.947 . S
H545 C564 0.946 . S
H546 C566 0.953 . S
H547 C567 0.945 . S
H548 C569 0.952 . S
H549 C570 0.949 . S
H550 C572 0.950 . S
H551 C573 0.948 . S
H552 C575 0.951 . S
H553 C540 0.947 . S
H554 C542 0.952 . S
H555 C543 0.950 . S
N556 C559 1.382 . S
N556 C561 1.363 . S
N557 C559 1.371 . S
N557 C560 1.372 . S
N558 C560 1.361 . S
N558 C561 1.377 . S
C559 N556 1.382 . S
C559 N557 1.371 . S
C559 C562 1.480 . S
C560 N557 1.372 . S
C560 N558 1.361 . S
C560 C568 1.457 . S
C561 N556 1.363 . S
C561 N558 1.377 . S
C561 C574 1.479 . S
C562 C559 1.480 . S
C562 C563 1.383 . S
C562 C567 1.385 . S
C563 H544 0.947 . S
C563 C562 1.383 . S
C563 C564 1.388 . S
C564 H545 0.946 . S
C564 C563 1.388 . S
C564 C565 1.384 . S
C565 C564 1.384 . S
C565 C566 1.377 . S
C566 H546 0.953 . S
C566 C565 1.377 . S
C566 C567 1.369 . S
C567 H547 0.945 . S
C567 C562 1.385 . S
C567 C566 1.369 . S
C568 C560 1.457 . S
C568 C569 1.372 . S
C568 C573 1.364 . S
C569 H548 0.952 . S
C569 C568 1.372 . S
C569 C570 1.389 . S
C570 H549 0.949 . S
C570 C569 1.389 . S
C570 C571 1.387 . S
C571 C570 1.387 . S
C571 C572 1.372 . S
C572 H550 0.950 . S
C572 C571 1.372 . S
C572 C573 1.379 . S
C573 H551 0.948 . S
C573 C568 1.364 . S
C573 C572 1.379 . S
C574 C543 1.383 . S
C574 C561 1.479 . S
C574 C575 1.398 . S
C575 C540 1.382 . S
C575 H552 0.951 . S
C575 C574 1.398 . S
C576 C577 1.384 . S
C576 H589 0.947 . S
C576 C611 1.382 . S
C577 C576 1.384 . S
C577 C578 1.378 . S
C578 C577 1.378 . S
C578 C579 1.378 . S
C578 H590 0.952 . S
C579 C578 1.378 . S
C579 H591 0.950 . S
C579 C610 1.383 . S
H580 C599 0.947 . S
H581 C600 0.946 . S
H582 C602 0.953 . S
H583 C603 0.945 . S
H584 C605 0.952 . S
H585 C606 0.949 . S
H586 C608 0.950 . S
H587 C609 0.948 . S
H588 C611 0.951 . S
H589 C576 0.947 . S
H590 C578 0.952 . S
H591 C579 0.950 . S
N592 C595 1.382 . S
N592 C597 1.363 . S
N593 C595 1.371 . S
N593 C596 1.372 . S
N594 C596 1.361 . S
N594 C597 1.377 . S
C595 N592 1.382 . S
C595 N593 1.371 . S
C595 C598 1.480 . S
C596 N593 1.372 . S
C596 N594 1.361 . S
C596 C604 1.457 . S
C597 N592 1.363 . S
C597 N594 1.377 . S
C597 C610 1.479 . S
C598 C595 1.480 . S
C598 C599 1.383 . S
C598 C603 1.385 . S
C599 H580 0.947 . S
C599 C598 1.383 . S
C599 C600 1.388 . S
C600 H581 0.946 . S
C600 C599 1.388 . S
C600 C601 1.384 . S
C601 C600 1.384 . S
C601 C602 1.377 . S
C602 H582 0.953 . S
C602 C601 1.377 . S
C602 C603 1.369 . S
C603 H583 0.945 . S
C603 C598 1.385 . S
C603 C602 1.369 . S
C604 C596 1.457 . S
C604 C605 1.372 . S
C604 C609 1.364 . S
C605 H584 0.952 . S
C605 C604 1.372 . S
C605 C606 1.389 . S
C606 H585 0.949 . S
C606 C605 1.389 . S
C606 C607 1.387 . S
C607 C606 1.387 . S
C607 C608 1.372 . S
C608 H586 0.950 . S
C608 C607 1.372 . S
C608 C609 1.379 . S
C609 H587 0.948 . S
C609 C604 1.364 . S
C609 C608 1.379 . S
C610 C579 1.383 . S
C610 C597 1.479 . S
C610 C611 1.398 . S
C611 C576 1.382 . S
C611 H588 0.951 . S
C611 C610 1.398 . S
C612 C613 1.384 . S
C612 H625 0.947 . S
C612 C647 1.382 . S
C613 C612 1.384 . S
C613 C614 1.378 . S
C614 C613 1.378 . S
C614 C615 1.378 . S
C614 H626 0.952 . S
C615 C614 1.378 . S
C615 H627 0.950 . S
C615 C646 1.383 . S
H616 C635 0.947 . S
H617 C636 0.946 . S
H618 C638 0.953 . S
H619 C639 0.945 . S
H620 C641 0.952 . S
H621 C642 0.949 . S
H622 C644 0.950 . S
H623 C645 0.948 . S
H624 C647 0.951 . S
H625 C612 0.947 . S
H626 C614 0.952 . S
H627 C615 0.950 . S
N628 C631 1.382 . S
N628 C633 1.363 . S
N629 C631 1.371 . S
N629 C632 1.372 . S
N630 C632 1.361 . S
N630 C633 1.377 . S
C631 N628 1.382 . S
C631 N629 1.371 . S
C631 C634 1.480 . S
C632 N629 1.372 . S
C632 N630 1.361 . S
C632 C640 1.457 . S
C633 N628 1.363 . S
C633 N630 1.377 . S
C633 C646 1.479 . S
C634 C631 1.480 . S
C634 C635 1.383 . S
C634 C639 1.385 . S
C635 H616 0.947 . S
C635 C634 1.383 . S
C635 C636 1.388 . S
C636 H617 0.946 . S
C636 C635 1.388 . S
C636 C637 1.384 . S
C637 C636 1.384 . S
C637 C638 1.377 . S
C638 H618 0.953 . S
C638 C637 1.377 . S
C638 C639 1.369 . S
C639 H619 0.945 . S
C639 C634 1.385 . S
C639 C638 1.369 . S
C640 C632 1.457 . S
C640 C641 1.372 . S
C640 C645 1.364 . S
C641 H620 0.952 . S
C641 C640 1.372 . S
C641 C642 1.389 . S
C642 H621 0.949 . S
C642 C641 1.389 . S
C642 C643 1.387 . S
C643 C642 1.387 . S
C643 C644 1.372 . S
C644 H622 0.950 . S
C644 C643 1.372 . S
C644 C645 1.379 . S
C645 H623 0.948 . S
C645 C640 1.364 . S
C645 C644 1.379 . S
C646 C615 1.383 . S
C646 C633 1.479 . S
C646 C647 1.398 . S
C647 C612 1.382 . S
C647 H624 0.951 . S
C647 C646 1.398 . S
Eu648 N679 2.657 . S
Eu648 N686 2.609 . S
Eu648 O692 2.558 . S
Eu648 O693 2.612 1_565 S
Eu648 O695 2.339 1_565 S
Eu648 O696 2.563 1_565 S
Eu648 O697 2.419 . S
Eu648 O699 2.380 1_556 S
Eu648 O700 2.432 . S
Eu648 C712 2.848 . S
C649 C652 1.429 . S
C649 C653 1.411 . S
C649 N656 1.377 . S
C650 C652 1.420 . S
C650 C654 1.423 . S
C650 C662 1.392 . S
C651 C653 1.420 . S
C651 C654 1.351 . S
C651 H674 0.931 . S
C652 C649 1.429 . S
C652 C650 1.420 . S
C652 N660 1.362 . S
C653 C649 1.411 . S
C653 C651 1.420 . S
C653 C658 1.395 . S
C654 C650 1.423 . S
C654 C651 1.351 . S
C654 H666 0.930 . S
C655 C657 1.400 . S
C655 C658 1.386 . S
C655 H667 0.930 . S
N656 C649 1.377 . S
N656 C657 1.321 . S
N656 Eu659 2.609 . S
C657 C655 1.400 . S
C657 N656 1.321 . S
C657 H664 0.930 . S
C658 C653 1.395 . S
C658 C655 1.386 . S
C658 H677 0.930 . S
Eu659 N656 2.609 . S
Eu659 N660 2.657 . S
Eu659 O693 2.380 1_554 S
Eu659 O694 2.432 . S
Eu659 O698 2.558 . S
Eu659 O699 2.612 1_545 S
Eu659 O701 2.339 1_545 S
Eu659 O702 2.563 1_545 S
Eu659 O703 2.419 . S
Eu659 C723 2.848 . S
N660 C652 1.362 . S
N660 Eu659 2.657 . S
N660 C661 1.334 . S
C661 N660 1.334 . S
C661 C663 1.413 . S
C661 H668 0.929 . S
C662 C650 1.392 . S
C662 C663 1.367 . S
C662 H670 0.930 . S
C663 C661 1.413 . S
C663 C662 1.367 . S
C663 H665 0.930 . S
H664 C657 0.930 . S
H665 C663 0.930 . S
H666 C654 0.930 . S
H667 C655 0.930 . S
H668 C661 0.929 . S
H669 C683 0.930 . S
H670 C662 0.930 . S
H671 C689 0.930 . S
H672 C680 0.929 . S
H673 C687 0.930 . S
H674 C651 0.931 . S
H675 C681 0.930 . S
H676 C714 0.930 . S
H677 C658 0.930 . S
H678 C713 0.931 . S
N679 Eu648 2.657 . S
N679 C680 1.334 . S
N679 C684 1.362 . S
C680 H672 0.929 . S
C680 N679 1.334 . S
C680 C683 1.413 . S
C681 H675 0.930 . S
C681 C682 1.392 . S
C681 C683 1.367 . S
C682 C681 1.392 . S
C682 C684 1.420 . S
C682 C714 1.423 . S
C683 H669 0.930 . S
C683 C680 1.413 . S
C683 C681 1.367 . S
C684 N679 1.362 . S
C684 C682 1.420 . S
C684 C688 1.429 . S
H685 C690 0.930 . S
N686 Eu648 2.609 . S
N686 C688 1.377 . S
N686 C689 1.321 . S
C687 H673 0.930 . S
C687 C689 1.400 . S
C687 C690 1.386 . S
C688 C684 1.429 . S
C688 N686 1.377 . S
C688 C691 1.411 . S
C689 H671 0.930 . S
C689 N686 1.321 . S
C689 C687 1.400 . S
C690 H685 0.930 . S
C690 C687 1.386 . S
C690 C691 1.395 . S
C691 C688 1.411 . S
C691 C690 1.395 . S
C691 C713 1.420 . S
O692 Eu648 2.558 . S
O692 C712 1.257 . S
O693 Eu648 2.612 1_545 S
O693 Eu659 2.380 1_556 S
O693 C704 1.276 . S
O694 Eu659 2.432 . S
O694 C711 1.264 1_554 S
O695 Eu648 2.339 1_545 S
O695 C711 1.254 . S
O696 Eu648 2.563 1_545 S
O696 C704 1.235 . S
O697 Eu648 2.419 . S
O697 C712 1.249 . S
O698 Eu659 2.558 . S
O698 C723 1.257 . S
O699 Eu648 2.380 1_554 S
O699 Eu659 2.612 1_565 S
O699 C715 1.276 . S
O700 Eu648 2.432 . S
O700 C722 1.264 1_556 S
O701 Eu659 2.339 1_565 S
O701 C722 1.254 . S
O702 Eu659 2.563 1_565 S
O702 C715 1.235 . S
O703 Eu659 2.419 . S
O703 C723 1.249 . S
C704 O693 1.276 . S
C704 O696 1.235 . S
C705 C707 1.393 1_565 S
C705 C709 1.395 . S
C705 C712 1.492 . S
C706 C707 1.392 . S
C706 C708 1.386 1_545 S
C707 C705 1.393 1_545 S
C707 C706 1.392 . S
C707 H724 0.930 . S
C708 C706 1.386 1_565 S
C708 C710 1.395 . S
C708 H725 0.930 . S
C709 C705 1.395 . S
C709 C710 1.379 . S
C709 H726 0.930 . S
C710 C708 1.395 . S
C710 C709 1.379 . S
C710 H727 0.930 . S
C711 O694 1.264 1_556 S
C711 O695 1.254 . S
C712 Eu648 2.848 . S
C712 O692 1.257 . S
C712 O697 1.249 . S
C712 C705 1.492 . S
C713 H678 0.931 . S
C713 C691 1.420 . S
C713 C714 1.351 . S
C714 H676 0.930 . S
C714 C682 1.423 . S
C714 C713 1.351 . S
C715 O699 1.276 . S
C715 O702 1.235 . S
C716 C717 1.393 1_545 S
C716 C720 1.395 . S
C716 C723 1.492 . S
C717 C716 1.393 1_565 S
C717 C718 1.392 . S
C717 H728 0.930 . S
C718 C717 1.392 . S
C718 C719 1.386 1_565 S
C719 C718 1.386 1_545 S
C719 C721 1.395 . S
C719 H729 0.930 . S
C720 C716 1.395 . S
C720 C721 1.379 . S
C720 H730 0.930 . S
C721 C719 1.395 . S
C721 C720 1.379 . S
C721 H731 0.930 . S
C722 O700 1.264 1_554 S
C722 O701 1.254 . S
C723 Eu659 2.848 . S
C723 O698 1.257 . S
C723 O703 1.249 . S
C723 C716 1.492 . S
H724 C707 0.930 . S
H725 C708 0.930 . S
H726 C709 0.930 . S
H727 C710 0.930 . S
H728 C717 0.930 . S
H729 C719 0.930 . S
H730 C720 0.930 . S
H731 C721 0.930 . S
Eu732 N763 2.657 . S
Eu732 N770 2.609 . S
Eu732 O776 2.558 . S
Eu732 O777 2.612 1_455 S
Eu732 O779 2.339 1_455 S
Eu732 O780 2.563 1_455 S
Eu732 O781 2.419 . S
Eu732 O783 2.380 1_556 S
Eu732 O784 2.432 . S
Eu732 C796 2.848 . S
C733 C736 1.429 . S
C733 C737 1.411 . S
C733 N740 1.377 . S
C734 C736 1.420 . S
C734 C738 1.423 . S
C734 C746 1.392 . S
C735 C737 1.420 . S
C735 C738 1.351 . S
C735 H758 0.931 . S
C736 C733 1.429 . S
C736 C734 1.420 . S
C736 N744 1.362 . S
C737 C733 1.411 . S
C737 C735 1.420 . S
C737 C742 1.395 . S
C738 C734 1.423 . S
C738 C735 1.351 . S
C738 H750 0.930 . S
C739 C741 1.400 . S
C739 C742 1.386 . S
C739 H751 0.930 . S
N740 C733 1.377 . S
N740 C741 1.321 . S
N740 Eu743 2.609 . S
C741 C739 1.400 . S
C741 N740 1.321 . S
C741 H748 0.930 . S
C742 C737 1.395 . S
C742 C739 1.386 . S
C742 H761 0.930 . S
Eu743 N740 2.609 . S
Eu743 N744 2.657 . S
Eu743 O777 2.380 1_554 S
Eu743 O778 2.432 . S
Eu743 O782 2.558 . S
Eu743 O783 2.612 1_655 S
Eu743 O785 2.339 1_655 S
Eu743 O786 2.563 1_655 S
Eu743 O787 2.419 . S
Eu743 C807 2.848 . S
N744 C736 1.362 . S
N744 Eu743 2.657 . S
N744 C745 1.334 . S
C745 N744 1.334 . S
C745 C747 1.413 . S
C745 H752 0.929 . S
C746 C734 1.392 . S
C746 C747 1.367 . S
C746 H754 0.930 . S
C747 C745 1.413 . S
C747 C746 1.367 . S
C747 H749 0.930 . S
H748 C741 0.930 . S
H749 C747 0.930 . S
H750 C738 0.930 . S
H751 C739 0.930 . S
H752 C745 0.929 . S
H753 C767 0.930 . S
H754 C746 0.930 . S
H755 C773 0.930 . S
H756 C764 0.929 . S
H757 C771 0.930 . S
H758 C735 0.931 . S
H759 C765 0.930 . S
H760 C798 0.930 . S
H761 C742 0.930 . S
H762 C797 0.931 . S
N763 Eu732 2.657 . S
N763 C764 1.334 . S
N763 C768 1.362 . S
C764 H756 0.929 . S
C764 N763 1.334 . S
C764 C767 1.413 . S
C765 H759 0.930 . S
C765 C766 1.392 . S
C765 C767 1.367 . S
C766 C765 1.392 . S
C766 C768 1.420 . S
C766 C798 1.423 . S
C767 H753 0.930 . S
C767 C764 1.413 . S
C767 C765 1.367 . S
C768 N763 1.362 . S
C768 C766 1.420 . S
C768 C772 1.429 . S
H769 C774 0.930 . S
N770 Eu732 2.609 . S
N770 C772 1.377 . S
N770 C773 1.321 . S
C771 H757 0.930 . S
C771 C773 1.400 . S
C771 C774 1.386 . S
C772 C768 1.429 . S
C772 N770 1.377 . S
C772 C775 1.411 . S
C773 H755 0.930 . S
C773 N770 1.321 . S
C773 C771 1.400 . S
C774 H769 0.930 . S
C774 C771 1.386 . S
C774 C775 1.395 . S
C775 C772 1.411 . S
C775 C774 1.395 . S
C775 C797 1.420 . S
O776 Eu732 2.558 . S
O776 C796 1.257 . S
O777 Eu732 2.612 1_655 S
O777 Eu743 2.380 1_556 S
O777 C788 1.276 . S
O778 Eu743 2.432 . S
O778 C795 1.264 1_554 S
O779 Eu732 2.339 1_655 S
O779 C795 1.254 . S
O780 Eu732 2.563 1_655 S
O780 C788 1.235 . S
O781 Eu732 2.419 . S
O781 C796 1.249 . S
O782 Eu743 2.558 . S
O782 C807 1.257 . S
O783 Eu732 2.380 1_554 S
O783 Eu743 2.612 1_455 S
O783 C799 1.276 . S
O784 Eu732 2.432 . S
O784 C806 1.264 1_556 S
O785 Eu743 2.339 1_455 S
O785 C806 1.254 . S
O786 Eu743 2.563 1_455 S
O786 C799 1.235 . S
O787 Eu743 2.419 . S
O787 C807 1.249 . S
C788 O777 1.276 . S
C788 O780 1.235 . S
C789 C791 1.393 1_455 S
C789 C793 1.395 . S
C789 C796 1.492 . S
C790 C791 1.392 . S
C790 C792 1.386 1_655 S
C791 C789 1.393 1_655 S
C791 C790 1.392 . S
C791 H808 0.930 . S
C792 C790 1.386 1_455 S
C792 C794 1.395 . S
C792 H809 0.930 . S
C793 C789 1.395 . S
C793 C794 1.379 . S
C793 H810 0.930 . S
C794 C792 1.395 . S
C794 C793 1.379 . S
C794 H811 0.930 . S
C795 O778 1.264 1_556 S
C795 O779 1.254 . S
C796 Eu732 2.848 . S
C796 O776 1.257 . S
C796 O781 1.249 . S
C796 C789 1.492 . S
C797 H762 0.931 . S
C797 C775 1.420 . S
C797 C798 1.351 . S
C798 H760 0.930 . S
C798 C766 1.423 . S
C798 C797 1.351 . S
C799 O783 1.276 . S
C799 O786 1.235 . S
C800 C801 1.393 1_655 S
C800 C804 1.395 . S
C800 C807 1.492 . S
C801 C800 1.393 1_455 S
C801 C802 1.392 . S
C801 H812 0.930 . S
C802 C801 1.392 . S
C802 C803 1.386 1_455 S
C803 C802 1.386 1_655 S
C803 C805 1.395 . S
C803 H813 0.930 . S
C804 C800 1.395 . S
C804 C805 1.379 . S
C804 H814 0.930 . S
C805 C803 1.395 . S
C805 C804 1.379 . S
C805 H815 0.930 . S
C806 O784 1.264 1_554 S
C806 O785 1.254 . S
C807 Eu743 2.848 . S
C807 O782 1.257 . S
C807 O787 1.249 . S
C807 C800 1.492 . S
H808 C791 0.930 . S
H809 C792 0.930 . S
H810 C793 0.930 . S
H811 C794 0.930 . S
H812 C801 0.930 . S
H813 C803 0.930 . S
H814 C804 0.930 . S
H815 C805 0.930 . S
Eu816 N847 2.657 . S
Eu816 N854 2.609 . S
Eu816 O860 2.558 . S
Eu816 O861 2.612 . S
Eu816 O863 2.339 . S
Eu816 O864 2.563 . S
Eu816 O865 2.419 . S
Eu816 O867 2.380 1_554 S
Eu816 O868 2.432 . S
Eu816 C880 2.848 . S
C817 C820 1.429 . S
C817 C821 1.411 . S
C817 N824 1.377 . S
C818 C820 1.420 . S
C818 C822 1.423 . S
C818 C830 1.392 . S
C819 C821 1.420 . S
C819 C822 1.351 . S
C819 H842 0.931 . S
C820 C817 1.429 . S
C820 C818 1.420 . S
C820 N828 1.362 . S
C821 C817 1.411 . S
C821 C819 1.420 . S
C821 C826 1.395 . S
C822 C818 1.423 . S
C822 C819 1.351 . S
C822 H834 0.930 . S
C823 C825 1.400 . S
C823 C826 1.386 . S
C823 H835 0.930 . S
N824 C817 1.377 . S
N824 C825 1.321 . S
N824 Eu827 2.609 . S
C825 C823 1.400 . S
C825 N824 1.321 . S
C825 H832 0.930 . S
C826 C821 1.395 . S
C826 C823 1.386 . S
C826 H845 0.930 . S
Eu827 N824 2.609 . S
Eu827 N828 2.657 . S
Eu827 O861 2.380 1_556 S
Eu827 O862 2.432 . S
Eu827 O866 2.558 . S
Eu827 O867 2.612 . S
Eu827 O869 2.339 . S
Eu827 O870 2.563 . S
Eu827 O871 2.419 . S
Eu827 C891 2.848 . S
N828 C820 1.362 . S
N828 Eu827 2.657 . S
N828 C829 1.334 . S
C829 N828 1.334 . S
C829 C831 1.413 . S
C829 H836 0.929 . S
C830 C818 1.392 . S
C830 C831 1.367 . S
C830 H838 0.930 . S
C831 C829 1.413 . S
C831 C830 1.367 . S
C831 H833 0.930 . S
H832 C825 0.930 . S
H833 C831 0.930 . S
H834 C822 0.930 . S
H835 C823 0.930 . S
H836 C829 0.929 . S
H837 C851 0.930 . S
H838 C830 0.930 . S
H839 C857 0.930 . S
H840 C848 0.929 . S
H841 C855 0.930 . S
H842 C819 0.931 . S
H843 C849 0.930 . S
H844 C882 0.930 . S
H845 C826 0.930 . S
H846 C881 0.931 . S
N847 Eu816 2.657 . S
N847 C848 1.334 . S
N847 C852 1.362 . S
C848 H840 0.929 . S
C848 N847 1.334 . S
C848 C851 1.413 . S
C849 H843 0.930 . S
C849 C850 1.392 . S
C849 C851 1.367 . S
C850 C849 1.392 . S
C850 C852 1.420 . S
C850 C882 1.423 . S
C851 H837 0.930 . S
C851 C848 1.413 . S
C851 C849 1.367 . S
C852 N847 1.362 . S
C852 C850 1.420 . S
C852 C856 1.429 . S
H853 C858 0.930 . S
N854 Eu816 2.609 . S
N854 C856 1.377 . S
N854 C857 1.321 . S
C855 H841 0.930 . S
C855 C857 1.400 . S
C855 C858 1.386 . S
C856 C852 1.429 . S
C856 N854 1.377 . S
C856 C859 1.411 . S
C857 H839 0.930 . S
C857 N854 1.321 . S
C857 C855 1.400 . S
C858 H853 0.930 . S
C858 C855 1.386 . S
C858 C859 1.395 . S
C859 C856 1.411 . S
C859 C858 1.395 . S
C859 C881 1.420 . S
O860 Eu816 2.558 . S
O860 C880 1.257 . S
O861 Eu816 2.612 . S
O861 Eu827 2.380 1_554 S
O861 C872 1.276 . S
O862 Eu827 2.432 . S
O862 C879 1.264 1_556 S
O863 Eu816 2.339 . S
O863 C879 1.254 . S
O864 Eu816 2.563 . S
O864 C872 1.235 . S
O865 Eu816 2.419 . S
O865 C880 1.249 . S
O866 Eu827 2.558 . S
O866 C891 1.257 . S
O867 Eu816 2.380 1_556 S
O867 Eu827 2.612 . S
O867 C883 1.276 . S
O868 Eu816 2.432 . S
O868 C890 1.264 1_554 S
O869 Eu827 2.339 . S
O869 C890 1.254 . S
O870 Eu827 2.563 . S
O870 C883 1.235 . S
O871 Eu827 2.419 . S
O871 C891 1.249 . S
C872 O861 1.276 . S
C872 O864 1.235 . S
C873 C875 1.393 . S
C873 C877 1.395 . S
C873 C880 1.492 . S
C874 C875 1.392 . S
C874 C876 1.386 . S
C875 C873 1.393 . S
C875 C874 1.392 . S
C875 H892 0.930 . S
C876 C874 1.386 . S
C876 C878 1.395 . S
C876 H893 0.930 . S
C877 C873 1.395 . S
C877 C878 1.379 . S
C877 H894 0.930 . S
C878 C876 1.395 . S
C878 C877 1.379 . S
C878 H895 0.930 . S
C879 O862 1.264 1_554 S
C879 O863 1.254 . S
C880 Eu816 2.848 . S
C880 O860 1.257 . S
C880 O865 1.249 . S
C880 C873 1.492 . S
C881 H846 0.931 . S
C881 C859 1.420 . S
C881 C882 1.351 . S
C882 H844 0.930 . S
C882 C850 1.423 . S
C882 C881 1.351 . S
C883 O867 1.276 . S
C883 O870 1.235 . S
C884 C885 1.393 . S
C884 C888 1.395 . S
C884 C891 1.492 . S
C885 C884 1.393 . S
C885 C886 1.392 . S
C885 H896 0.930 . S
C886 C885 1.392 . S
C886 C887 1.386 . S
C887 C886 1.386 . S
C887 C889 1.395 . S
C887 H897 0.930 . S
C888 C884 1.395 . S
C888 C889 1.379 . S
C888 H898 0.930 . S
C889 C887 1.395 . S
C889 C888 1.379 . S
C889 H899 0.930 . S
C890 O868 1.264 1_556 S
C890 O869 1.254 . S
C891 Eu827 2.848 . S
C891 O866 1.257 . S
C891 O871 1.249 . S
C891 C884 1.492 . S
H892 C875 0.930 . S
H893 C876 0.930 . S
H894 C877 0.930 . S
H895 C878 0.930 . S
H896 C885 0.930 . S
H897 C887 0.930 . S
H898 C888 0.930 . S
H899 C889 0.930 . S
Eu900 N931 2.657 . S
Eu900 N938 2.609 . S
Eu900 O944 2.558 . S
Eu900 O945 2.612 . S
Eu900 O947 2.339 . S
Eu900 O948 2.563 . S
Eu900 O949 2.419 . S
Eu900 O951 2.380 . S
Eu900 O952 2.432 . S
Eu900 C964 2.848 . S
C901 C904 1.429 . S
C901 C905 1.411 . S
C901 N908 1.377 . S
C902 C904 1.420 . S
C902 C906 1.423 . S
C902 C914 1.392 . S
C903 C905 1.420 . S
C903 C906 1.351 . S
C903 H926 0.931 . S
C904 C901 1.429 . S
C904 C902 1.420 . S
C904 N912 1.362 . S
C905 C901 1.411 . S
C905 C903 1.420 . S
C905 C910 1.395 . S
C906 C902 1.423 . S
C906 C903 1.351 . S
C906 H918 0.930 . S
C907 C909 1.400 . S
C907 C910 1.386 . S
C907 H919 0.930 . S
N908 C901 1.377 . S
N908 C909 1.321 . S
N908 Eu911 2.609 . S
C909 C907 1.400 . S
C909 N908 1.321 . S
C909 H916 0.930 . S
C910 C905 1.395 . S
C910 C907 1.386 . S
C910 H929 0.930 . S
Eu911 N908 2.609 . S
Eu911 N912 2.657 . S
Eu911 O945 2.380 . S
Eu911 O946 2.432 . S
Eu911 O950 2.558 . S
Eu911 O951 2.612 . S
Eu911 O953 2.339 . S
Eu911 O954 2.563 . S
Eu911 O955 2.419 . S
Eu911 C975 2.848 . S
N912 C904 1.362 . S
N912 Eu911 2.657 . S
N912 C913 1.334 . S
C913 N912 1.334 . S
C913 C915 1.413 . S
C913 H920 0.929 . S
C914 C902 1.392 . S
C914 C915 1.367 . S
C914 H922 0.930 . S
C915 C913 1.413 . S
C915 C914 1.367 . S
C915 H917 0.930 . S
H916 C909 0.930 . S
H917 C915 0.930 . S
H918 C906 0.930 . S
H919 C907 0.930 . S
H920 C913 0.929 . S
H921 C935 0.930 . S
H922 C914 0.930 . S
H923 C941 0.930 . S
H924 C932 0.929 . S
H925 C939 0.930 . S
H926 C903 0.931 . S
H927 C933 0.930 . S
H928 C966 0.930 . S
H929 C910 0.930 . S
H930 C965 0.931 . S
N931 Eu900 2.657 . S
N931 C932 1.334 . S
N931 C936 1.362 . S
C932 H924 0.929 . S
C932 N931 1.334 . S
C932 C935 1.413 . S
C933 H927 0.930 . S
C933 C934 1.392 . S
C933 C935 1.367 . S
C934 C933 1.392 . S
C934 C936 1.420 . S
C934 C966 1.423 . S
C935 H921 0.930 . S
C935 C932 1.413 . S
C935 C933 1.367 . S
C936 N931 1.362 . S
C936 C934 1.420 . S
C936 C940 1.429 . S
H937 C942 0.930 . S
N938 Eu900 2.609 . S
N938 C940 1.377 . S
N938 C941 1.321 . S
C939 H925 0.930 . S
C939 C941 1.400 . S
C939 C942 1.386 . S
C940 C936 1.429 . S
C940 N938 1.377 . S
C940 C943 1.411 . S
C941 H923 0.930 . S
C941 N938 1.321 . S
C941 C939 1.400 . S
C942 H937 0.930 . S
C942 C939 1.386 . S
C942 C943 1.395 . S
C943 C940 1.411 . S
C943 C942 1.395 . S
C943 C965 1.420 . S
O944 Eu900 2.558 . S
O944 C964 1.257 . S
O945 Eu900 2.612 . S
O945 Eu911 2.380 . S
O945 C956 1.276 . S
O946 Eu911 2.432 . S
O946 C963 1.264 . S
O947 Eu900 2.339 . S
O947 C963 1.254 . S
O948 Eu900 2.563 . S
O948 C956 1.235 . S
O949 Eu900 2.419 . S
O949 C964 1.249 . S
O950 Eu911 2.558 . S
O950 C975 1.257 . S
O951 Eu900 2.380 . S
O951 Eu911 2.612 . S
O951 C967 1.276 . S
O952 Eu900 2.432 . S
O952 C974 1.264 . S
O953 Eu911 2.339 . S
O953 C974 1.254 . S
O954 Eu911 2.563 . S
O954 C967 1.235 . S
O955 Eu911 2.419 . S
O955 C975 1.249 . S
C956 O945 1.276 . S
C956 O948 1.235 . S
C957 C959 1.393 . S
C957 C961 1.395 . S
C957 C964 1.492 . S
C958 C959 1.392 . S
C958 C960 1.386 . S
C959 C957 1.393 . S
C959 C958 1.392 . S
C959 H976 0.930 . S
C960 C958 1.386 . S
C960 C962 1.395 . S
C960 H977 0.930 . S
C961 C957 1.395 . S
C961 C962 1.379 . S
C961 H978 0.930 . S
C962 C960 1.395 . S
C962 C961 1.379 . S
C962 H979 0.930 . S
C963 O946 1.264 . S
C963 O947 1.254 . S
C964 Eu900 2.848 . S
C964 O944 1.257 . S
C964 O949 1.249 . S
C964 C957 1.492 . S
C965 H930 0.931 . S
C965 C943 1.420 . S
C965 C966 1.351 . S
C966 H928 0.930 . S
C966 C934 1.423 . S
C966 C965 1.351 . S
C967 O951 1.276 . S
C967 O954 1.235 . S
C968 C969 1.393 . S
C968 C972 1.395 . S
C968 C975 1.492 . S
C969 C968 1.393 . S
C969 C970 1.392 . S
C969 H980 0.930 . S
C970 C969 1.392 . S
C970 C971 1.386 . S
C971 C970 1.386 . S
C971 C973 1.395 . S
C971 H981 0.930 . S
C972 C968 1.395 . S
C972 C973 1.379 . S
C972 H982 0.930 . S
C973 C971 1.395 . S
C973 C972 1.379 . S
C973 H983 0.930 . S
C974 O952 1.264 . S
C974 O953 1.254 . S
C975 Eu911 2.848 . S
C975 O950 1.257 . S
C975 O955 1.249 . S
C975 C968 1.492 . S
H976 C959 0.930 . S
H977 C960 0.930 . S
H978 C961 0.930 . S
H979 C962 0.930 . S
H980 C969 0.930 . S
H981 C971 0.930 . S
H982 C972 0.930 . S
H983 C973 0.930 . S
Eu984 N1015 2.657 . S
Eu984 N1022 2.609 . S
Eu984 O1028 2.558 . S
Eu984 O1029 2.612 . S
Eu984 O1031 2.339 . S
Eu984 O1032 2.563 . S
Eu984 O1033 2.419 . S
Eu984 O1035 2.380 . S
Eu984 O1036 2.432 . S
Eu984 C1048 2.848 . S
C985 C988 1.429 . S
C985 C989 1.411 . S
C985 N992 1.377 . S
C986 C988 1.420 . S
C986 C990 1.423 . S
C986 C998 1.392 . S
C987 C989 1.420 . S
C987 C990 1.351 . S
C987 H1010 0.931 . S
C988 C985 1.429 . S
C988 C986 1.420 . S
C988 N996 1.362 . S
C989 C985 1.411 . S
C989 C987 1.420 . S
C989 C994 1.395 . S
C990 C986 1.423 . S
C990 C987 1.351 . S
C990 H1002 0.930 . S
C991 C993 1.400 . S
C991 C994 1.386 . S
C991 H1003 0.930 . S
N992 C985 1.377 . S
N992 C993 1.321 . S
N992 Eu995 2.609 . S
C993 C991 1.400 . S
C993 N992 1.321 . S
C993 H1000 0.930 . S
C994 C989 1.395 . S
C994 C991 1.386 . S
C994 H1013 0.930 . S
Eu995 N992 2.609 . S
Eu995 N996 2.657 . S
Eu995 O1029 2.380 . S
Eu995 O1030 2.432 . S
Eu995 O1034 2.558 . S
Eu995 O1035 2.612 . S
Eu995 O1037 2.339 . S
Eu995 O1038 2.563 . S
Eu995 O1039 2.419 . S
Eu995 C1059 2.848 . S
N996 C988 1.362 . S
N996 Eu995 2.657 . S
N996 C997 1.334 . S
C997 N996 1.334 . S
C997 C999 1.413 . S
C997 H1004 0.929 . S
C998 C986 1.392 . S
C998 C999 1.367 . S
C998 H1006 0.930 . S
C999 C997 1.413 . S
C999 C998 1.367 . S
C999 H1001 0.930 . S
H1000 C993 0.930 . S
H1001 C999 0.930 . S
H1002 C990 0.930 . S
H1003 C991 0.930 . S
H1004 C997 0.929 . S
H1005 C1019 0.930 . S
H1006 C998 0.930 . S
H1007 C1025 0.930 . S
H1008 C1016 0.929 . S
H1009 C1023 0.930 . S
H1010 C987 0.931 . S
H1011 C1017 0.930 . S
H1012 C1050 0.930 . S
H1013 C994 0.930 . S
H1014 C1049 0.931 . S
N1015 Eu984 2.657 . S
N1015 C1016 1.334 . S
N1015 C1020 1.362 . S
C1016 H1008 0.929 . S
C1016 N1015 1.334 . S
C1016 C1019 1.413 . S
C1017 H1011 0.930 . S
C1017 C1018 1.392 . S
C1017 C1019 1.367 . S
C1018 C1017 1.392 . S
C1018 C1020 1.420 . S
C1018 C1050 1.423 . S
C1019 H1005 0.930 . S
C1019 C1016 1.413 . S
C1019 C1017 1.367 . S
C1020 N1015 1.362 . S
C1020 C1018 1.420 . S
C1020 C1024 1.429 . S
H1021 C1026 0.930 . S
N1022 Eu984 2.609 . S
N1022 C1024 1.377 . S
N1022 C1025 1.321 . S
C1023 H1009 0.930 . S
C1023 C1025 1.400 . S
C1023 C1026 1.386 . S
C1024 C1020 1.429 . S
C1024 N1022 1.377 . S
C1024 C1027 1.411 . S
C1025 H1007 0.930 . S
C1025 N1022 1.321 . S
C1025 C1023 1.400 . S
C1026 H1021 0.930 . S
C1026 C1023 1.386 . S
C1026 C1027 1.395 . S
C1027 C1024 1.411 . S
C1027 C1026 1.395 . S
C1027 C1049 1.420 . S
O1028 Eu984 2.558 . S
O1028 C1048 1.257 . S
O1029 Eu984 2.612 . S
O1029 Eu995 2.380 . S
O1029 C1040 1.276 . S
O1030 Eu995 2.432 . S
O1030 C1047 1.264 . S
O1031 Eu984 2.339 . S
O1031 C1047 1.254 . S
O1032 Eu984 2.563 . S
O1032 C1040 1.235 . S
O1033 Eu984 2.419 . S
O1033 C1048 1.249 . S
O1034 Eu995 2.558 . S
O1034 C1059 1.257 . S
O1035 Eu984 2.380 . S
O1035 Eu995 2.612 . S
O1035 C1051 1.276 . S
O1036 Eu984 2.432 . S
O1036 C1058 1.264 . S
O1037 Eu995 2.339 . S
O1037 C1058 1.254 . S
O1038 Eu995 2.563 . S
O1038 C1051 1.235 . S
O1039 Eu995 2.419 . S
O1039 C1059 1.249 . S
C1040 O1029 1.276 . S
C1040 O1032 1.235 . S
C1041 C1043 1.393 . S
C1041 C1045 1.395 . S
C1041 C1048 1.492 . S
C1042 C1043 1.392 . S
C1042 C1044 1.386 . S
C1043 C1041 1.393 . S
C1043 C1042 1.392 . S
C1043 H1060 0.930 . S
C1044 C1042 1.386 . S
C1044 C1046 1.395 . S
C1044 H1061 0.930 . S
C1045 C1041 1.395 . S
C1045 C1046 1.379 . S
C1045 H1062 0.930 . S
C1046 C1044 1.395 . S
C1046 C1045 1.379 . S
C1046 H1063 0.930 . S
C1047 O1030 1.264 . S
C1047 O1031 1.254 . S
C1048 Eu984 2.848 . S
C1048 O1028 1.257 . S
C1048 O1033 1.249 . S
C1048 C1041 1.492 . S
C1049 H1014 0.931 . S
C1049 C1027 1.420 . S
C1049 C1050 1.351 . S
C1050 H1012 0.930 . S
C1050 C1018 1.423 . S
C1050 C1049 1.351 . S
C1051 O1035 1.276 . S
C1051 O1038 1.235 . S
C1052 C1053 1.393 . S
C1052 C1056 1.395 . S
C1052 C1059 1.492 . S
C1053 C1052 1.393 . S
C1053 C1054 1.392 . S
C1053 H1064 0.930 . S
C1054 C1053 1.392 . S
C1054 C1055 1.386 . S
C1055 C1054 1.386 . S
C1055 C1057 1.395 . S
C1055 H1065 0.930 . S
C1056 C1052 1.395 . S
C1056 C1057 1.379 . S
C1056 H1066 0.930 . S
C1057 C1055 1.395 . S
C1057 C1056 1.379 . S
C1057 H1067 0.930 . S
C1058 O1036 1.264 . S
C1058 O1037 1.254 . S
C1059 Eu995 2.848 . S
C1059 O1034 1.257 . S
C1059 O1039 1.249 . S
C1059 C1052 1.492 . S
H1060 C1043 0.930 . S
H1061 C1044 0.930 . S
H1062 C1045 0.930 . S
H1063 C1046 0.930 . S
H1064 C1053 0.930 . S
H1065 C1055 0.930 . S
H1066 C1056 0.930 . S
H1067 C1057 0.930 . S
Eu1068 N1099 2.657 . S
Eu1068 N1106 2.609 . S
Eu1068 O1112 2.558 . S
Eu1068 O1113 2.612 . S
Eu1068 O1115 2.339 . S
Eu1068 O1116 2.563 . S
Eu1068 O1117 2.419 . S
Eu1068 O1119 2.380 . S
Eu1068 O1120 2.432 . S
Eu1068 C1132 2.848 . S
C1069 C1072 1.429 . S
C1069 C1073 1.411 . S
C1069 N1076 1.377 . S
C1070 C1072 1.420 . S
C1070 C1074 1.423 . S
C1070 C1082 1.392 . S
C1071 C1073 1.420 . S
C1071 C1074 1.351 . S
C1071 H1094 0.931 . S
C1072 C1069 1.429 . S
C1072 C1070 1.420 . S
C1072 N1080 1.362 . S
C1073 C1069 1.411 . S
C1073 C1071 1.420 . S
C1073 C1078 1.395 . S
C1074 C1070 1.423 . S
C1074 C1071 1.351 . S
C1074 H1086 0.930 . S
C1075 C1077 1.400 . S
C1075 C1078 1.386 . S
C1075 H1087 0.930 . S
N1076 C1069 1.377 . S
N1076 C1077 1.321 . S
N1076 Eu1079 2.609 . S
C1077 C1075 1.400 . S
C1077 N1076 1.321 . S
C1077 H1084 0.930 . S
C1078 C1073 1.395 . S
C1078 C1075 1.386 . S
C1078 H1097 0.930 . S
Eu1079 N1076 2.609 . S
Eu1079 N1080 2.657 . S
Eu1079 O1113 2.380 . S
Eu1079 O1114 2.432 . S
Eu1079 O1118 2.558 . S
Eu1079 O1119 2.612 . S
Eu1079 O1121 2.339 . S
Eu1079 O1122 2.563 . S
Eu1079 O1123 2.419 . S
Eu1079 C1143 2.848 . S
N1080 C1072 1.362 . S
N1080 Eu1079 2.657 . S
N1080 C1081 1.334 . S
C1081 N1080 1.334 . S
C1081 C1083 1.413 . S
C1081 H1088 0.929 . S
C1082 C1070 1.392 . S
C1082 C1083 1.367 . S
C1082 H1090 0.930 . S
C1083 C1081 1.413 . S
C1083 C1082 1.367 . S
C1083 H1085 0.930 . S
H1084 C1077 0.930 . S
H1085 C1083 0.930 . S
H1086 C1074 0.930 . S
H1087 C1075 0.930 . S
H1088 C1081 0.929 . S
H1089 C1103 0.930 . S
H1090 C1082 0.930 . S
H1091 C1109 0.930 . S
H1092 C1100 0.929 . S
H1093 C1107 0.930 . S
H1094 C1071 0.931 . S
H1095 C1101 0.930 . S
H1096 C1134 0.930 . S
H1097 C1078 0.930 . S
H1098 C1133 0.931 . S
N1099 Eu1068 2.657 . S
N1099 C1100 1.334 . S
N1099 C1104 1.362 . S
C1100 H1092 0.929 . S
C1100 N1099 1.334 . S
C1100 C1103 1.413 . S
C1101 H1095 0.930 . S
C1101 C1102 1.392 . S
C1101 C1103 1.367 . S
C1102 C1101 1.392 . S
C1102 C1104 1.420 . S
C1102 C1134 1.423 . S
C1103 H1089 0.930 . S
C1103 C1100 1.413 . S
C1103 C1101 1.367 . S
C1104 N1099 1.362 . S
C1104 C1102 1.420 . S
C1104 C1108 1.429 . S
H1105 C1110 0.930 . S
N1106 Eu1068 2.609 . S
N1106 C1108 1.377 . S
N1106 C1109 1.321 . S
C1107 H1093 0.930 . S
C1107 C1109 1.400 . S
C1107 C1110 1.386 . S
C1108 C1104 1.429 . S
C1108 N1106 1.377 . S
C1108 C1111 1.411 . S
C1109 H1091 0.930 . S
C1109 N1106 1.321 . S
C1109 C1107 1.400 . S
C1110 H1105 0.930 . S
C1110 C1107 1.386 . S
C1110 C1111 1.395 . S
C1111 C1108 1.411 . S
C1111 C1110 1.395 . S
C1111 C1133 1.420 . S
O1112 Eu1068 2.558 . S
O1112 C1132 1.257 . S
O1113 Eu1068 2.612 . S
O1113 Eu1079 2.380 . S
O1113 C1124 1.276 . S
O1114 Eu1079 2.432 . S
O1114 C1131 1.264 . S
O1115 Eu1068 2.339 . S
O1115 C1131 1.254 . S
O1116 Eu1068 2.563 . S
O1116 C1124 1.235 . S
O1117 Eu1068 2.419 . S
O1117 C1132 1.249 . S
O1118 Eu1079 2.558 . S
O1118 C1143 1.257 . S
O1119 Eu1068 2.380 . S
O1119 Eu1079 2.612 . S
O1119 C1135 1.276 . S
O1120 Eu1068 2.432 . S
O1120 C1142 1.264 . S
O1121 Eu1079 2.339 . S
O1121 C1142 1.254 . S
O1122 Eu1079 2.563 . S
O1122 C1135 1.235 . S
O1123 Eu1079 2.419 . S
O1123 C1143 1.249 . S
C1124 O1113 1.276 . S
C1124 O1116 1.235 . S
C1125 C1127 1.393 . S
C1125 C1129 1.395 . S
C1125 C1132 1.492 . S
C1126 C1127 1.392 . S
C1126 C1128 1.386 . S
C1127 C1125 1.393 . S
C1127 C1126 1.392 . S
C1127 H1144 0.930 . S
C1128 C1126 1.386 . S
C1128 C1130 1.395 . S
C1128 H1145 0.930 . S
C1129 C1125 1.395 . S
C1129 C1130 1.379 . S
C1129 H1146 0.930 . S
C1130 C1128 1.395 . S
C1130 C1129 1.379 . S
C1130 H1147 0.930 . S
C1131 O1114 1.264 . S
C1131 O1115 1.254 . S
C1132 Eu1068 2.848 . S
C1132 O1112 1.257 . S
C1132 O1117 1.249 . S
C1132 C1125 1.492 . S
C1133 H1098 0.931 . S
C1133 C1111 1.420 . S
C1133 C1134 1.351 . S
C1134 H1096 0.930 . S
C1134 C1102 1.423 . S
C1134 C1133 1.351 . S
C1135 O1119 1.276 . S
C1135 O1122 1.235 . S
C1136 C1137 1.393 . S
C1136 C1140 1.395 . S
C1136 C1143 1.492 . S
C1137 C1136 1.393 . S
C1137 C1138 1.392 . S
C1137 H1148 0.930 . S
C1138 C1137 1.392 . S
C1138 C1139 1.386 . S
C1139 C1138 1.386 . S
C1139 C1141 1.395 . S
C1139 H1149 0.930 . S
C1140 C1136 1.395 . S
C1140 C1141 1.379 . S
C1140 H1150 0.930 . S
C1141 C1139 1.395 . S
C1141 C1140 1.379 . S
C1141 H1151 0.930 . S
C1142 O1120 1.264 . S
C1142 O1121 1.254 . S
C1143 Eu1079 2.848 . S
C1143 O1118 1.257 . S
C1143 O1123 1.249 . S
C1143 C1136 1.492 . S
H1144 C1127 0.930 . S
H1145 C1128 0.930 . S
H1146 C1129 0.930 . S
H1147 C1130 0.930 . S
H1148 C1137 0.930 . S
H1149 C1139 0.930 . S
H1150 C1140 0.930 . S
H1151 C1141 0.930 . S
Eu1152 N1183 2.657 . S
Eu1152 N1190 2.609 . S
Eu1152 O1196 2.558 . S
Eu1152 O1197 2.612 . S
Eu1152 O1199 2.339 . S
Eu1152 O1200 2.563 . S
Eu1152 O1201 2.419 . S
Eu1152 O1203 2.380 . S
Eu1152 O1204 2.432 . S
Eu1152 C1216 2.848 . S
C1153 C1156 1.429 . S
C1153 C1157 1.411 . S
C1153 N1160 1.377 . S
C1154 C1156 1.420 . S
C1154 C1158 1.423 . S
C1154 C1166 1.392 . S
C1155 C1157 1.420 . S
C1155 C1158 1.351 . S
C1155 H1178 0.931 . S
C1156 C1153 1.429 . S
C1156 C1154 1.420 . S
C1156 N1164 1.362 . S
C1157 C1153 1.411 . S
C1157 C1155 1.420 . S
C1157 C1162 1.395 . S
C1158 C1154 1.423 . S
C1158 C1155 1.351 . S
C1158 H1170 0.930 . S
C1159 C1161 1.400 . S
C1159 C1162 1.386 . S
C1159 H1171 0.930 . S
N1160 C1153 1.377 . S
N1160 C1161 1.321 . S
N1160 Eu1163 2.609 . S
C1161 C1159 1.400 . S
C1161 N1160 1.321 . S
C1161 H1168 0.930 . S
C1162 C1157 1.395 . S
C1162 C1159 1.386 . S
C1162 H1181 0.930 . S
Eu1163 N1160 2.609 . S
Eu1163 N1164 2.657 . S
Eu1163 O1197 2.380 . S
Eu1163 O1198 2.432 . S
Eu1163 O1202 2.558 . S
Eu1163 O1203 2.612 . S
Eu1163 O1205 2.339 . S
Eu1163 O1206 2.563 . S
Eu1163 O1207 2.419 . S
Eu1163 C1227 2.848 . S
N1164 C1156 1.362 . S
N1164 Eu1163 2.657 . S
N1164 C1165 1.334 . S
C1165 N1164 1.334 . S
C1165 C1167 1.413 . S
C1165 H1172 0.929 . S
C1166 C1154 1.392 . S
C1166 C1167 1.367 . S
C1166 H1174 0.930 . S
C1167 C1165 1.413 . S
C1167 C1166 1.367 . S
C1167 H1169 0.930 . S
H1168 C1161 0.930 . S
H1169 C1167 0.930 . S
H1170 C1158 0.930 . S
H1171 C1159 0.930 . S
H1172 C1165 0.929 . S
H1173 C1187 0.930 . S
H1174 C1166 0.930 . S
H1175 C1193 0.930 . S
H1176 C1184 0.929 . S
H1177 C1191 0.930 . S
H1178 C1155 0.931 . S
H1179 C1185 0.930 . S
H1180 C1218 0.930 . S
H1181 C1162 0.930 . S
H1182 C1217 0.931 . S
N1183 Eu1152 2.657 . S
N1183 C1184 1.334 . S
N1183 C1188 1.362 . S
C1184 H1176 0.929 . S
C1184 N1183 1.334 . S
C1184 C1187 1.413 . S
C1185 H1179 0.930 . S
C1185 C1186 1.392 . S
C1185 C1187 1.367 . S
C1186 C1185 1.392 . S
C1186 C1188 1.420 . S
C1186 C1218 1.423 . S
C1187 H1173 0.930 . S
C1187 C1184 1.413 . S
C1187 C1185 1.367 . S
C1188 N1183 1.362 . S
C1188 C1186 1.420 . S
C1188 C1192 1.429 . S
H1189 C1194 0.930 . S
N1190 Eu1152 2.609 . S
N1190 C1192 1.377 . S
N1190 C1193 1.321 . S
C1191 H1177 0.930 . S
C1191 C1193 1.400 . S
C1191 C1194 1.386 . S
C1192 C1188 1.429 . S
C1192 N1190 1.377 . S
C1192 C1195 1.411 . S
C1193 H1175 0.930 . S
C1193 N1190 1.321 . S
C1193 C1191 1.400 . S
C1194 H1189 0.930 . S
C1194 C1191 1.386 . S
C1194 C1195 1.395 . S
C1195 C1192 1.411 . S
C1195 C1194 1.395 . S
C1195 C1217 1.420 . S
O1196 Eu1152 2.558 . S
O1196 C1216 1.257 . S
O1197 Eu1152 2.612 . S
O1197 Eu1163 2.380 . S
O1197 C1208 1.276 . S
O1198 Eu1163 2.432 . S
O1198 C1215 1.264 . S
O1199 Eu1152 2.339 . S
O1199 C1215 1.254 . S
O1200 Eu1152 2.563 . S
O1200 C1208 1.235 . S
O1201 Eu1152 2.419 . S
O1201 C1216 1.249 . S
O1202 Eu1163 2.558 . S
O1202 C1227 1.257 . S
O1203 Eu1152 2.380 . S
O1203 Eu1163 2.612 . S
O1203 C1219 1.276 . S
O1204 Eu1152 2.432 . S
O1204 C1226 1.264 . S
O1205 Eu1163 2.339 . S
O1205 C1226 1.254 . S
O1206 Eu1163 2.563 . S
O1206 C1219 1.235 . S
O1207 Eu1163 2.419 . S
O1207 C1227 1.249 . S
C1208 O1197 1.276 . S
C1208 O1200 1.235 . S
C1209 C1211 1.393 . S
C1209 C1213 1.395 . S
C1209 C1216 1.492 . S
C1210 C1211 1.392 . S
C1210 C1212 1.386 . S
C1211 C1209 1.393 . S
C1211 C1210 1.392 . S
C1211 H1228 0.930 . S
C1212 C1210 1.386 . S
C1212 C1214 1.395 . S
C1212 H1229 0.930 . S
C1213 C1209 1.395 . S
C1213 C1214 1.379 . S
C1213 H1230 0.930 . S
C1214 C1212 1.395 . S
C1214 C1213 1.379 . S
C1214 H1231 0.930 . S
C1215 O1198 1.264 . S
C1215 O1199 1.254 . S
C1216 Eu1152 2.848 . S
C1216 O1196 1.257 . S
C1216 O1201 1.249 . S
C1216 C1209 1.492 . S
C1217 H1182 0.931 . S
C1217 C1195 1.420 . S
C1217 C1218 1.351 . S
C1218 H1180 0.930 . S
C1218 C1186 1.423 . S
C1218 C1217 1.351 . S
C1219 O1203 1.276 . S
C1219 O1206 1.235 . S
C1220 C1221 1.393 . S
C1220 C1224 1.395 . S
C1220 C1227 1.492 . S
C1221 C1220 1.393 . S
C1221 C1222 1.392 . S
C1221 H1232 0.930 . S
C1222 C1221 1.392 . S
C1222 C1223 1.386 . S
C1223 C1222 1.386 . S
C1223 C1225 1.395 . S
C1223 H1233 0.930 . S
C1224 C1220 1.395 . S
C1224 C1225 1.379 . S
C1224 H1234 0.930 . S
C1225 C1223 1.395 . S
C1225 C1224 1.379 . S
C1225 H1235 0.930 . S
C1226 O1204 1.264 . S
C1226 O1205 1.254 . S
C1227 Eu1163 2.848 . S
C1227 O1202 1.257 . S
C1227 O1207 1.249 . S
C1227 C1220 1.492 . S
H1228 C1211 0.930 . S
H1229 C1212 0.930 . S
H1230 C1213 0.930 . S
H1231 C1214 0.930 . S
H1232 C1221 0.930 . S
H1233 C1223 0.930 . S
H1234 C1224 0.930 . S
H1235 C1225 0.930 . S
Eu1236 N1267 2.657 . S
Eu1236 N1274 2.609 . S
Eu1236 O1280 2.558 . S
Eu1236 O1281 2.612 . S
Eu1236 O1283 2.339 . S
Eu1236 O1284 2.563 . S
Eu1236 O1285 2.419 . S
Eu1236 O1287 2.380 . S
Eu1236 O1288 2.432 . S
Eu1236 C1300 2.848 . S
C1237 C1240 1.429 . S
C1237 C1241 1.411 . S
C1237 N1244 1.377 . S
C1238 C1240 1.420 . S
C1238 C1242 1.423 . S
C1238 C1250 1.392 . S
C1239 C1241 1.420 . S
C1239 C1242 1.351 . S
C1239 H1262 0.931 . S
C1240 C1237 1.429 . S
C1240 C1238 1.420 . S
C1240 N1248 1.362 . S
C1241 C1237 1.411 . S
C1241 C1239 1.420 . S
C1241 C1246 1.395 . S
C1242 C1238 1.423 . S
C1242 C1239 1.351 . S
C1242 H1254 0.930 . S
C1243 C1245 1.400 . S
C1243 C1246 1.386 . S
C1243 H1255 0.930 . S
N1244 C1237 1.377 . S
N1244 C1245 1.321 . S
N1244 Eu1247 2.609 . S
C1245 C1243 1.400 . S
C1245 N1244 1.321 . S
C1245 H1252 0.930 . S
C1246 C1241 1.395 . S
C1246 C1243 1.386 . S
C1246 H1265 0.930 . S
Eu1247 N1244 2.609 . S
Eu1247 N1248 2.657 . S
Eu1247 O1281 2.380 . S
Eu1247 O1282 2.432 . S
Eu1247 O1286 2.558 . S
Eu1247 O1287 2.612 . S
Eu1247 O1289 2.339 . S
Eu1247 O1290 2.563 . S
Eu1247 O1291 2.419 . S
Eu1247 C1311 2.848 . S
N1248 C1240 1.362 . S
N1248 Eu1247 2.657 . S
N1248 C1249 1.334 . S
C1249 N1248 1.334 . S
C1249 C1251 1.413 . S
C1249 H1256 0.929 . S
C1250 C1238 1.392 . S
C1250 C1251 1.367 . S
C1250 H1258 0.930 . S
C1251 C1249 1.413 . S
C1251 C1250 1.367 . S
C1251 H1253 0.930 . S
H1252 C1245 0.930 . S
H1253 C1251 0.930 . S
H1254 C1242 0.930 . S
H1255 C1243 0.930 . S
H1256 C1249 0.929 . S
H1257 C1271 0.930 . S
H1258 C1250 0.930 . S
H1259 C1277 0.930 . S
H1260 C1268 0.929 . S
H1261 C1275 0.930 . S
H1262 C1239 0.931 . S
H1263 C1269 0.930 . S
H1264 C1302 0.930 . S
H1265 C1246 0.930 . S
H1266 C1301 0.931 . S
N1267 Eu1236 2.657 . S
N1267 C1268 1.334 . S
N1267 C1272 1.362 . S
C1268 H1260 0.929 . S
C1268 N1267 1.334 . S
C1268 C1271 1.413 . S
C1269 H1263 0.930 . S
C1269 C1270 1.392 . S
C1269 C1271 1.367 . S
C1270 C1269 1.392 . S
C1270 C1272 1.420 . S
C1270 C1302 1.423 . S
C1271 H1257 0.930 . S
C1271 C1268 1.413 . S
C1271 C1269 1.367 . S
C1272 N1267 1.362 . S
C1272 C1270 1.420 . S
C1272 C1276 1.429 . S
H1273 C1278 0.930 . S
N1274 Eu1236 2.609 . S
N1274 C1276 1.377 . S
N1274 C1277 1.321 . S
C1275 H1261 0.930 . S
C1275 C1277 1.400 . S
C1275 C1278 1.386 . S
C1276 C1272 1.429 . S
C1276 N1274 1.377 . S
C1276 C1279 1.411 . S
C1277 H1259 0.930 . S
C1277 N1274 1.321 . S
C1277 C1275 1.400 . S
C1278 H1273 0.930 . S
C1278 C1275 1.386 . S
C1278 C1279 1.395 . S
C1279 C1276 1.411 . S
C1279 C1278 1.395 . S
C1279 C1301 1.420 . S
O1280 Eu1236 2.558 . S
O1280 C1300 1.257 . S
O1281 Eu1236 2.612 . S
O1281 Eu1247 2.380 . S
O1281 C1292 1.276 . S
O1282 Eu1247 2.432 . S
O1282 C1299 1.264 . S
O1283 Eu1236 2.339 . S
O1283 C1299 1.254 . S
O1284 Eu1236 2.563 . S
O1284 C1292 1.235 . S
O1285 Eu1236 2.419 . S
O1285 C1300 1.249 . S
O1286 Eu1247 2.558 . S
O1286 C1311 1.257 . S
O1287 Eu1236 2.380 . S
O1287 Eu1247 2.612 . S
O1287 C1303 1.276 . S
O1288 Eu1236 2.432 . S
O1288 C1310 1.264 . S
O1289 Eu1247 2.339 . S
O1289 C1310 1.254 . S
O1290 Eu1247 2.563 . S
O1290 C1303 1.235 . S
O1291 Eu1247 2.419 . S
O1291 C1311 1.249 . S
C1292 O1281 1.276 . S
C1292 O1284 1.235 . S
C1293 C1295 1.393 . S
C1293 C1297 1.395 . S
C1293 C1300 1.492 . S
C1294 C1295 1.392 . S
C1294 C1296 1.386 . S
C1295 C1293 1.393 . S
C1295 C1294 1.392 . S
C1295 H1312 0.930 . S
C1296 C1294 1.386 . S
C1296 C1298 1.395 . S
C1296 H1313 0.930 . S
C1297 C1293 1.395 . S
C1297 C1298 1.379 . S
C1297 H1314 0.930 . S
C1298 C1296 1.395 . S
C1298 C1297 1.379 . S
C1298 H1315 0.930 . S
C1299 O1282 1.264 . S
C1299 O1283 1.254 . S
C1300 Eu1236 2.848 . S
C1300 O1280 1.257 . S
C1300 O1285 1.249 . S
C1300 C1293 1.492 . S
C1301 H1266 0.931 . S
C1301 C1279 1.420 . S
C1301 C1302 1.351 . S
C1302 H1264 0.930 . S
C1302 C1270 1.423 . S
C1302 C1301 1.351 . S
C1303 O1287 1.276 . S
C1303 O1290 1.235 . S
C1304 C1305 1.393 . S
C1304 C1308 1.395 . S
C1304 C1311 1.492 . S
C1305 C1304 1.393 . S
C1305 C1306 1.392 . S
C1305 H1316 0.930 . S
C1306 C1305 1.392 . S
C1306 C1307 1.386 . S
C1307 C1306 1.386 . S
C1307 C1309 1.395 . S
C1307 H1317 0.930 . S
C1308 C1304 1.395 . S
C1308 C1309 1.379 . S
C1308 H1318 0.930 . S
C1309 C1307 1.395 . S
C1309 C1308 1.379 . S
C1309 H1319 0.930 . S
C1310 O1288 1.264 . S
C1310 O1289 1.254 . S
C1311 Eu1247 2.848 . S
C1311 O1286 1.257 . S
C1311 O1291 1.249 . S
C1311 C1304 1.492 . S
H1312 C1295 0.930 . S
H1313 C1296 0.930 . S
H1314 C1297 0.930 . S
H1315 C1298 0.930 . S
H1316 C1305 0.930 . S
H1317 C1307 0.930 . S
H1318 C1308 0.930 . S
H1319 C1309 0.930 . S
Eu1320 N1351 2.657 . S
Eu1320 N1358 2.609 . S
Eu1320 O1364 2.558 . S
Eu1320 O1365 2.612 . S
Eu1320 O1367 2.339 . S
Eu1320 O1368 2.563 . S
Eu1320 O1369 2.419 . S
Eu1320 O1371 2.380 . S
Eu1320 O1372 2.432 . S
Eu1320 C1384 2.848 . S
C1321 C1324 1.429 . S
C1321 C1325 1.411 . S
C1321 N1328 1.377 . S
C1322 C1324 1.420 . S
C1322 C1326 1.423 . S
C1322 C1334 1.392 . S
C1323 C1325 1.420 . S
C1323 C1326 1.351 . S
C1323 H1346 0.931 . S
C1324 C1321 1.429 . S
C1324 C1322 1.420 . S
C1324 N1332 1.362 . S
C1325 C1321 1.411 . S
C1325 C1323 1.420 . S
C1325 C1330 1.395 . S
C1326 C1322 1.423 . S
C1326 C1323 1.351 . S
C1326 H1338 0.930 . S
C1327 C1329 1.400 . S
C1327 C1330 1.386 . S
C1327 H1339 0.930 . S
N1328 C1321 1.377 . S
N1328 C1329 1.321 . S
N1328 Eu1331 2.609 . S
C1329 C1327 1.400 . S
C1329 N1328 1.321 . S
C1329 H1336 0.930 . S
C1330 C1325 1.395 . S
C1330 C1327 1.386 . S
C1330 H1349 0.930 . S
Eu1331 N1328 2.609 . S
Eu1331 N1332 2.657 . S
Eu1331 O1365 2.380 . S
Eu1331 O1366 2.432 . S
Eu1331 O1370 2.558 . S
Eu1331 O1371 2.612 . S
Eu1331 O1373 2.339 . S
Eu1331 O1374 2.563 . S
Eu1331 O1375 2.419 . S
Eu1331 C1395 2.848 . S
N1332 C1324 1.362 . S
N1332 Eu1331 2.657 . S
N1332 C1333 1.334 . S
C1333 N1332 1.334 . S
C1333 C1335 1.413 . S
C1333 H1340 0.929 . S
C1334 C1322 1.392 . S
C1334 C1335 1.367 . S
C1334 H1342 0.930 . S
C1335 C1333 1.413 . S
C1335 C1334 1.367 . S
C1335 H1337 0.930 . S
H1336 C1329 0.930 . S
H1337 C1335 0.930 . S
H1338 C1326 0.930 . S
H1339 C1327 0.930 . S
H1340 C1333 0.929 . S
H1341 C1355 0.930 . S
H1342 C1334 0.930 . S
H1343 C1361 0.930 . S
H1344 C1352 0.929 . S
H1345 C1359 0.930 . S
H1346 C1323 0.931 . S
H1347 C1353 0.930 . S
H1348 C1386 0.930 . S
H1349 C1330 0.930 . S
H1350 C1385 0.931 . S
N1351 Eu1320 2.657 . S
N1351 C1352 1.334 . S
N1351 C1356 1.362 . S
C1352 H1344 0.929 . S
C1352 N1351 1.334 . S
C1352 C1355 1.413 . S
C1353 H1347 0.930 . S
C1353 C1354 1.392 . S
C1353 C1355 1.367 . S
C1354 C1353 1.392 . S
C1354 C1356 1.420 . S
C1354 C1386 1.423 . S
C1355 H1341 0.930 . S
C1355 C1352 1.413 . S
C1355 C1353 1.367 . S
C1356 N1351 1.362 . S
C1356 C1354 1.420 . S
C1356 C1360 1.429 . S
H1357 C1362 0.930 . S
N1358 Eu1320 2.609 . S
N1358 C1360 1.377 . S
N1358 C1361 1.321 . S
C1359 H1345 0.930 . S
C1359 C1361 1.400 . S
C1359 C1362 1.386 . S
C1360 C1356 1.429 . S
C1360 N1358 1.377 . S
C1360 C1363 1.411 . S
C1361 H1343 0.930 . S
C1361 N1358 1.321 . S
C1361 C1359 1.400 . S
C1362 H1357 0.930 . S
C1362 C1359 1.386 . S
C1362 C1363 1.395 . S
C1363 C1360 1.411 . S
C1363 C1362 1.395 . S
C1363 C1385 1.420 . S
O1364 Eu1320 2.558 . S
O1364 C1384 1.257 . S
O1365 Eu1320 2.612 . S
O1365 Eu1331 2.380 . S
O1365 C1376 1.276 . S
O1366 Eu1331 2.432 . S
O1366 C1383 1.264 . S
O1367 Eu1320 2.339 . S
O1367 C1383 1.254 . S
O1368 Eu1320 2.563 . S
O1368 C1376 1.235 . S
O1369 Eu1320 2.419 . S
O1369 C1384 1.249 . S
O1370 Eu1331 2.558 . S
O1370 C1395 1.257 . S
O1371 Eu1320 2.380 . S
O1371 Eu1331 2.612 . S
O1371 C1387 1.276 . S
O1372 Eu1320 2.432 . S
O1372 C1394 1.264 . S
O1373 Eu1331 2.339 . S
O1373 C1394 1.254 . S
O1374 Eu1331 2.563 . S
O1374 C1387 1.235 . S
O1375 Eu1331 2.419 . S
O1375 C1395 1.249 . S
C1376 O1365 1.276 . S
C1376 O1368 1.235 . S
C1377 C1379 1.393 . S
C1377 C1381 1.395 . S
C1377 C1384 1.492 . S
C1378 C1379 1.392 . S
C1378 C1380 1.386 . S
C1379 C1377 1.393 . S
C1379 C1378 1.392 . S
C1379 H1396 0.930 . S
C1380 C1378 1.386 . S
C1380 C1382 1.395 . S
C1380 H1397 0.930 . S
C1381 C1377 1.395 . S
C1381 C1382 1.379 . S
C1381 H1398 0.930 . S
C1382 C1380 1.395 . S
C1382 C1381 1.379 . S
C1382 H1399 0.930 . S
C1383 O1366 1.264 . S
C1383 O1367 1.254 . S
C1384 Eu1320 2.848 . S
C1384 O1364 1.257 . S
C1384 O1369 1.249 . S
C1384 C1377 1.492 . S
C1385 H1350 0.931 . S
C1385 C1363 1.420 . S
C1385 C1386 1.351 . S
C1386 H1348 0.930 . S
C1386 C1354 1.423 . S
C1386 C1385 1.351 . S
C1387 O1371 1.276 . S
C1387 O1374 1.235 . S
C1388 C1389 1.393 . S
C1388 C1392 1.395 . S
C1388 C1395 1.492 . S
C1389 C1388 1.393 . S
C1389 C1390 1.392 . S
C1389 H1400 0.930 . S
C1390 C1389 1.392 . S
C1390 C1391 1.386 . S
C1391 C1390 1.386 . S
C1391 C1393 1.395 . S
C1391 H1401 0.930 . S
C1392 C1388 1.395 . S
C1392 C1393 1.379 . S
C1392 H1402 0.930 . S
C1393 C1391 1.395 . S
C1393 C1392 1.379 . S
C1393 H1403 0.930 . S
C1394 O1372 1.264 . S
C1394 O1373 1.254 . S
C1395 Eu1331 2.848 . S
C1395 O1370 1.257 . S
C1395 O1375 1.249 . S
C1395 C1388 1.492 . S
H1396 C1379 0.930 . S
H1397 C1380 0.930 . S
H1398 C1381 0.930 . S
H1399 C1382 0.930 . S
H1400 C1389 0.930 . S
H1401 C1391 0.930 . S
H1402 C1392 0.930 . S
H1403 C1393 0.930 . S
H1404 C1410 0.930 . S
H1405 C1413 0.930 . S
H1406 C1414 0.930 . S
H1407 C1415 0.930 . S
H1408 C1418 0.930 . S
H1409 C1419 0.930 . S
C1410 H1404 0.930 . S
C1410 C1411 1.355 . S
C1410 C1412 1.415 . S
C1411 C1410 1.355 . S
C1411 C1413 1.419 . S
C1412 C1410 1.415 . S
C1412 C1417 1.425 . S
C1412 C1419 1.409 . S
C1413 H1405 0.930 . S
C1413 C1411 1.419 . S
C1413 C1414 1.362 . S
C1414 H1406 0.930 . S
C1414 C1413 1.362 . S
C1414 C1417 1.409 . S
C1415 H1407 0.930 . S
C1415 C1416 1.355 . S
C1415 C1417 1.415 . S
C1416 C1415 1.355 . S
C1416 C1418 1.419 . S
C1417 C1412 1.425 . S
C1417 C1414 1.409 . S
C1417 C1415 1.415 . S
C1418 H1408 0.930 . S
C1418 C1416 1.419 . S
C1418 C1419 1.362 . S
C1419 H1409 0.930 . S
C1419 C1412 1.409 . S
C1419 C1418 1.362 . S
H1420 C1426 0.930 . S
H1421 C1429 0.930 . S
H1422 C1430 0.930 . S
H1423 C1431 0.930 . S
H1424 C1434 0.930 . S
H1425 C1435 0.930 . S
C1426 H1420 0.930 . S
C1426 C1427 1.355 . S
C1426 C1428 1.415 . S
C1427 C1426 1.355 . S
C1427 C1429 1.419 . S
C1428 C1426 1.415 . S
C1428 C1433 1.425 . S
C1428 C1435 1.409 . S
C1429 H1421 0.930 . S
C1429 C1427 1.419 . S
C1429 C1430 1.362 . S
C1430 H1422 0.930 . S
C1430 C1429 1.362 . S
C1430 C1433 1.409 . S
C1431 H1423 0.930 . S
C1431 C1432 1.355 . S
C1431 C1433 1.415 . S
C1432 C1431 1.355 . S
C1432 C1434 1.419 . S
C1433 C1428 1.425 . S
C1433 C1430 1.409 . S
C1433 C1431 1.415 . S
C1434 H1424 0.930 . S
C1434 C1432 1.419 . S
C1434 C1435 1.362 . S
C1435 H1425 0.930 . S
C1435 C1428 1.409 . S
C1435 C1434 1.362 . S
H1436 C1442 0.930 . S
H1437 C1445 0.930 . S
H1438 C1446 0.930 . S
H1439 C1447 0.930 . S
H1440 C1450 0.930 . S
H1441 C1451 0.930 . S
C1442 H1436 0.930 . S
C1442 C1443 1.355 . S
C1442 C1444 1.415 . S
C1443 C1442 1.355 . S
C1443 C1445 1.419 . S
C1444 C1442 1.415 . S
C1444 C1449 1.425 . S
C1444 C1451 1.409 . S
C1445 H1437 0.930 . S
C1445 C1443 1.419 . S
C1445 C1446 1.362 . S
C1446 H1438 0.930 . S
C1446 C1445 1.362 . S
C1446 C1449 1.409 . S
C1447 H1439 0.930 . S
C1447 C1448 1.355 . S
C1447 C1449 1.415 . S
C1448 C1447 1.355 . S
C1448 C1450 1.419 . S
C1449 C1444 1.425 . S
C1449 C1446 1.409 . S
C1449 C1447 1.415 . S
C1450 H1440 0.930 . S
C1450 C1448 1.419 . S
C1450 C1451 1.362 . S
C1451 H1441 0.930 . S
C1451 C1444 1.409 . S
C1451 C1450 1.362 . S
H1452 C1458 0.930 . S
H1453 C1461 0.930 . S
H1454 C1462 0.930 . S
H1455 C1463 0.930 . S
H1456 C1466 0.930 . S
H1457 C1467 0.930 . S
C1458 H1452 0.930 . S
C1458 C1459 1.355 . S
C1458 C1460 1.415 . S
C1459 C1458 1.355 . S
C1459 C1461 1.419 . S
C1460 C1458 1.415 . S
C1460 C1465 1.425 . S
C1460 C1467 1.409 . S
C1461 H1453 0.930 . S
C1461 C1459 1.419 . S
C1461 C1462 1.362 . S
C1462 H1454 0.930 . S
C1462 C1461 1.362 . S
C1462 C1465 1.409 . S
C1463 H1455 0.930 . S
C1463 C1464 1.355 . S
C1463 C1465 1.415 . S
C1464 C1463 1.355 . S
C1464 C1466 1.419 . S
C1465 C1460 1.425 . S
C1465 C1462 1.409 . S
C1465 C1463 1.415 . S
C1466 H1456 0.930 . S
C1466 C1464 1.419 . S
C1466 C1467 1.362 . S
C1467 H1457 0.930 . S
C1467 C1460 1.409 . S
C1467 C1466 1.362 . S
H1468 C1474 0.930 . S
H1469 C1477 0.930 . S
H1470 C1478 0.930 . S
H1471 C1479 0.930 . S
H1472 C1482 0.930 . S
H1473 C1483 0.930 . S
C1474 H1468 0.930 . S
C1474 C1475 1.355 . S
C1474 C1476 1.415 . S
C1475 C1474 1.355 . S
C1475 C1477 1.419 . S
C1476 C1474 1.415 . S
C1476 C1481 1.425 . S
C1476 C1483 1.409 . S
C1477 H1469 0.930 . S
C1477 C1475 1.419 . S
C1477 C1478 1.362 . S
C1478 H1470 0.930 . S
C1478 C1477 1.362 . S
C1478 C1481 1.409 . S
C1479 H1471 0.930 . S
C1479 C1480 1.355 . S
C1479 C1481 1.415 . S
C1480 C1479 1.355 . S
C1480 C1482 1.419 . S
C1481 C1476 1.425 . S
C1481 C1478 1.409 . S
C1481 C1479 1.415 . S
C1482 H1472 0.930 . S
C1482 C1480 1.419 . S
C1482 C1483 1.362 . S
C1483 H1473 0.930 . S
C1483 C1476 1.409 . S
C1483 C1482 1.362 . S
H1484 C1490 0.930 . S
H1485 C1493 0.930 . S
H1486 C1494 0.930 . S
H1487 C1495 0.930 . S
H1488 C1498 0.930 . S
H1489 C1499 0.930 . S
C1490 H1484 0.930 . S
C1490 C1491 1.355 . S
C1490 C1492 1.415 . S
C1491 C1490 1.355 . S
C1491 C1493 1.419 . S
C1492 C1490 1.415 . S
C1492 C1497 1.425 . S
C1492 C1499 1.409 . S
C1493 H1485 0.930 . S
C1493 C1491 1.419 . S
C1493 C1494 1.362 . S
C1494 H1486 0.930 . S
C1494 C1493 1.362 . S
C1494 C1497 1.409 . S
C1495 H1487 0.930 . S
C1495 C1496 1.355 . S
C1495 C1497 1.415 . S
C1496 C1495 1.355 . S
C1496 C1498 1.419 . S
C1497 C1492 1.425 . S
C1497 C1494 1.409 . S
C1497 C1495 1.415 . S
C1498 H1488 0.930 . S
C1498 C1496 1.419 . S
C1498 C1499 1.362 . S
C1499 H1489 0.930 . S
C1499 C1492 1.409 . S
C1499 C1498 1.362 . S
H1500 C1506 0.930 . S
H1501 C1509 0.930 . S
H1502 C1510 0.930 . S
H1503 C1511 0.930 . S
H1504 C1514 0.930 . S
H1505 C1515 0.930 . S
C1506 H1500 0.930 . S
C1506 C1507 1.355 . S
C1506 C1508 1.415 . S
C1507 C1506 1.355 . S
C1507 C1509 1.419 . S
C1508 C1506 1.415 . S
C1508 C1513 1.425 . S
C1508 C1515 1.409 . S
C1509 H1501 0.930 . S
C1509 C1507 1.419 . S
C1509 C1510 1.362 . S
C1510 H1502 0.930 . S
C1510 C1509 1.362 . S
C1510 C1513 1.409 . S
C1511 H1503 0.930 . S
C1511 C1512 1.355 . S
C1511 C1513 1.415 . S
C1512 C1511 1.355 . S
C1512 C1514 1.419 . S
C1513 C1508 1.425 . S
C1513 C1510 1.409 . S
C1513 C1511 1.415 . S
C1514 H1504 0.930 . S
C1514 C1512 1.419 . S
C1514 C1515 1.362 . S
C1515 H1505 0.930 . S
C1515 C1508 1.409 . S
C1515 C1514 1.362 . S
H1516 C1522 0.930 . S
H1517 C1525 0.930 . S
H1518 C1526 0.930 . S
H1519 C1527 0.930 . S
H1520 C1530 0.930 . S
H1521 C1531 0.930 . S
C1522 H1516 0.930 . S
C1522 C1523 1.355 . S
C1522 C1524 1.415 . S
C1523 C1522 1.355 . S
C1523 C1525 1.419 . S
C1524 C1522 1.415 . S
C1524 C1529 1.425 . S
C1524 C1531 1.409 . S
C1525 H1517 0.930 . S
C1525 C1523 1.419 . S
C1525 C1526 1.362 . S
C1526 H1518 0.930 . S
C1526 C1525 1.362 . S
C1526 C1529 1.409 . S
C1527 H1519 0.930 . S
C1527 C1528 1.355 . S
C1527 C1529 1.415 . S
C1528 C1527 1.355 . S
C1528 C1530 1.419 . S
C1529 C1524 1.425 . S
C1529 C1526 1.409 . S
C1529 C1527 1.415 . S
C1530 H1520 0.930 . S
C1530 C1528 1.419 . S
C1530 C1531 1.362 . S
C1531 H1521 0.930 . S
C1531 C1524 1.409 . S
C1531 C1530 1.362 . S
H1532 C1538 0.930 . S
H1533 C1541 0.930 . S
H1534 C1542 0.930 . S
H1535 C1543 0.930 . S
H1536 C1546 0.930 . S
H1537 C1547 0.930 . S
C1538 H1532 0.930 . S
C1538 C1539 1.355 . S
C1538 C1540 1.415 . S
C1539 C1538 1.355 . S
C1539 C1541 1.419 . S
C1540 C1538 1.415 . S
C1540 C1545 1.425 . S
C1540 C1547 1.409 . S
C1541 H1533 0.930 . S
C1541 C1539 1.419 . S
C1541 C1542 1.362 . S
C1542 H1534 0.930 . S
C1542 C1541 1.362 . S
C1542 C1545 1.409 . S
C1543 H1535 0.930 . S
C1543 C1544 1.355 . S
C1543 C1545 1.415 . S
C1544 C1543 1.355 . S
C1544 C1546 1.419 . S
C1545 C1540 1.425 . S
C1545 C1542 1.409 . S
C1545 C1543 1.415 . S
C1546 H1536 0.930 . S
C1546 C1544 1.419 . S
C1546 C1547 1.362 . S
C1547 H1537 0.930 . S
C1547 C1540 1.409 . S
C1547 C1546 1.362 . S
H1548 C1554 0.930 . S
H1549 C1557 0.930 . S
H1550 C1558 0.930 . S
H1551 C1559 0.930 . S
H1552 C1562 0.930 . S
H1553 C1563 0.930 . S
C1554 H1548 0.930 . S
C1554 C1555 1.355 . S
C1554 C1556 1.415 . S
C1555 C1554 1.355 . S
C1555 C1557 1.419 . S
C1556 C1554 1.415 . S
C1556 C1561 1.425 . S
C1556 C1563 1.409 . S
C1557 H1549 0.930 . S
C1557 C1555 1.419 . S
C1557 C1558 1.362 . S
C1558 H1550 0.930 . S
C1558 C1557 1.362 . S
C1558 C1561 1.409 . S
C1559 H1551 0.930 . S
C1559 C1560 1.355 . S
C1559 C1561 1.415 . S
C1560 C1559 1.355 . S
C1560 C1562 1.419 . S
C1561 C1556 1.425 . S
C1561 C1558 1.409 . S
C1561 C1559 1.415 . S
C1562 H1552 0.930 . S
C1562 C1560 1.419 . S
C1562 C1563 1.362 . S
C1563 H1553 0.930 . S
C1563 C1556 1.409 . S
C1563 C1562 1.362 . S
H1564 C1570 0.930 . S
H1565 C1573 0.930 . S
H1566 C1574 0.930 . S
H1567 C1575 0.930 . S
H1568 C1578 0.930 1_556 S
H1569 C1579 0.930 . S
C1570 H1564 0.930 . S
C1570 C1571 1.355 . S
C1570 C1572 1.415 . S
C1571 C1570 1.355 . S
C1571 C1573 1.419 . S
C1572 C1570 1.415 . S
C1572 C1577 1.425 . S
C1572 C1579 1.409 . S
C1573 H1565 0.930 . S
C1573 C1571 1.419 . S
C1573 C1574 1.362 . S
C1574 H1566 0.930 . S
C1574 C1573 1.362 . S
C1574 C1577 1.409 . S
C1575 H1567 0.930 . S
C1575 C1576 1.355 . S
C1575 C1577 1.415 . S
C1576 C1575 1.355 . S
C1576 C1578 1.419 . S
C1577 C1572 1.425 . S
C1577 C1574 1.409 . S
C1577 C1575 1.415 . S
C1578 H1568 0.930 1_554 S
C1578 C1576 1.419 . S
C1578 C1579 1.362 . S
C1579 H1569 0.930 . S
C1579 C1572 1.409 . S
C1579 C1578 1.362 . S
H1580 C1586 0.930 . S
H1581 C1589 0.930 . S
H1582 C1590 0.924 . S
H1583 C1591 0.932 1_556 S
H1584 C1594 0.930 . S
H1585 C1595 0.930 . S
C1586 H1580 0.930 . S
C1586 C1587 1.355 . S
C1586 C1588 1.415 . S
C1587 C1586 1.355 . S
C1587 C1589 1.419 . S
C1588 C1586 1.415 . S
C1588 C1593 1.425 . S
C1588 C1595 1.409 . S
C1589 H1581 0.930 . S
C1589 C1587 1.419 . S
C1589 C1590 1.362 . S
C1590 H1582 0.924 . S
C1590 C1589 1.362 . S
C1590 C1593 1.409 . S
C1591 H1583 0.932 1_554 S
C1591 C1592 1.355 . S
C1591 C1593 1.415 . S
C1592 C1591 1.355 . S
C1592 C1594 1.419 . S
C1593 C1588 1.425 . S
C1593 C1590 1.409 . S
C1593 C1591 1.415 . S
C1594 H1584 0.930 . S
C1594 C1592 1.419 . S
C1594 C1595 1.362 . S
C1595 H1585 0.930 . S
C1595 C1588 1.409 . S
C1595 C1594 1.362 . S
H1596 C1602 0.930 . S
H1597 C1605 0.930 . S
H1598 C1606 0.930 . S
H1599 C1607 0.930 . S
H1600 C1610 0.930 . S
H1601 C1611 0.930 . S
C1602 H1596 0.930 . S
C1602 C1603 1.355 . S
C1602 C1604 1.415 . S
C1603 C1602 1.355 . S
C1603 C1605 1.419 . S
C1604 C1602 1.415 . S
C1604 C1609 1.425 . S
C1604 C1611 1.409 . S
C1605 H1597 0.930 . S
C1605 C1603 1.419 . S
C1605 C1606 1.362 . S
C1606 H1598 0.930 . S
C1606 C1605 1.362 . S
C1606 C1609 1.409 . S
C1607 H1599 0.930 . S
C1607 C1608 1.355 . S
C1607 C1609 1.415 . S
C1608 C1607 1.355 . S
C1608 C1610 1.419 . S
C1609 C1604 1.425 . S
C1609 C1606 1.409 . S
C1609 C1607 1.415 . S
C1610 H1600 0.930 . S
C1610 C1608 1.419 . S
C1610 C1611 1.362 . S
C1611 H1601 0.930 . S
C1611 C1604 1.409 . S
C1611 C1610 1.362 . S
H1612 C1618 0.930 . S
H1613 C1621 0.930 . S
H1614 C1622 0.930 . S
H1615 C1623 0.930 . S
H1616 C1626 0.930 . S
H1617 C1627 0.930 . S
C1618 H1612 0.930 . S
C1618 C1619 1.355 . S
C1618 C1620 1.415 . S
C1619 C1618 1.355 . S
C1619 C1621 1.419 . S
C1620 C1618 1.415 . S
C1620 C1625 1.425 . S
C1620 C1627 1.409 . S
C1621 H1613 0.930 . S
C1621 C1619 1.419 . S
C1621 C1622 1.362 . S
C1622 H1614 0.930 . S
C1622 C1621 1.362 . S
C1622 C1625 1.409 . S
C1623 H1615 0.930 . S
C1623 C1624 1.355 . S
C1623 C1625 1.415 . S
C1624 C1623 1.355 . S
C1624 C1626 1.419 . S
C1625 C1620 1.425 . S
C1625 C1622 1.409 . S
C1625 C1623 1.415 . S
C1626 H1616 0.930 . S
C1626 C1624 1.419 . S
C1626 C1627 1.362 . S
C1627 H1617 0.930 . S
C1627 C1620 1.409 . S
C1627 C1626 1.362 . S
H1628 C1634 0.930 . S
H1629 C1637 0.930 1_545 S
H1630 C1638 0.930 . S
H1631 C1639 0.930 . S
H1632 C1642 0.930 . S
H1633 C1643 0.930 . S
C1634 H1628 0.930 . S
C1634 C1635 1.355 1_565 S
C1634 C1636 1.415 . S
C1635 C1634 1.355 1_545 S
C1635 C1637 1.419 1_545 S
C1636 C1634 1.415 . S
C1636 C1641 1.425 . S
C1636 C1643 1.409 . S
C1637 H1629 0.930 1_565 S
C1637 C1635 1.419 1_565 S
C1637 C1638 1.362 . S
C1638 H1630 0.930 . S
C1638 C1637 1.362 . S
C1638 C1641 1.409 . S
C1639 H1631 0.930 . S
C1639 C1640 1.355 . S
C1639 C1641 1.415 . S
C1640 C1639 1.355 . S
C1640 C1642 1.419 . S
C1641 C1636 1.425 . S
C1641 C1638 1.409 . S
C1641 C1639 1.415 . S
C1642 H1632 0.930 . S
C1642 C1640 1.419 . S
C1642 C1643 1.362 . S
C1643 H1633 0.930 . S
C1643 C1636 1.409 . S
C1643 C1642 1.362 . S
H1644 C1650 0.930 . S
H1645 C1653 0.930 . S
H1646 C1654 0.930 . S
H1647 C1655 0.930 . S
H1648 C1658 0.930 . S
H1649 C1659 0.930 . S
C1650 H1644 0.930 . S
C1650 C1651 1.355 . S
C1650 C1652 1.415 . S
C1651 C1650 1.355 . S
C1651 C1653 1.419 . S
C1652 C1650 1.415 . S
C1652 C1657 1.425 . S
C1652 C1659 1.409 . S
C1653 H1645 0.930 . S
C1653 C1651 1.419 . S
C1653 C1654 1.362 . S
C1654 H1646 0.930 . S
C1654 C1653 1.362 . S
C1654 C1657 1.409 . S
C1655 H1647 0.930 . S
C1655 C1656 1.355 . S
C1655 C1657 1.415 . S
C1656 C1655 1.355 . S
C1656 C1658 1.419 . S
C1657 C1652 1.425 . S
C1657 C1654 1.409 . S
C1657 C1655 1.415 . S
C1658 H1648 0.930 . S
C1658 C1656 1.419 . S
C1658 C1659 1.362 . S
C1659 H1649 0.930 . S
C1659 C1652 1.409 . S
C1659 C1658 1.362 . S
H1660 C1666 0.930 . S
H1661 C1669 0.930 . S
H1662 C1670 0.930 . S
H1663 C1671 0.930 . S
H1664 C1674 0.930 . S
H1665 C1675 0.930 . S
C1666 H1660 0.930 . S
C1666 C1667 1.355 . S
C1666 C1668 1.415 . S
C1667 C1666 1.355 . S
C1667 C1669 1.419 . S
C1668 C1666 1.415 . S
C1668 C1673 1.425 . S
C1668 C1675 1.409 . S
C1669 H1661 0.930 . S
C1669 C1667 1.419 . S
C1669 C1670 1.362 . S
C1670 H1662 0.930 . S
C1670 C1669 1.362 . S
C1670 C1673 1.409 . S
C1671 H1663 0.930 . S
C1671 C1672 1.355 . S
C1671 C1673 1.415 . S
C1672 C1671 1.355 . S
C1672 C1674 1.419 . S
C1673 C1668 1.425 . S
C1673 C1670 1.409 . S
C1673 C1671 1.415 . S
C1674 H1664 0.930 . S
C1674 C1672 1.419 . S
C1674 C1675 1.362 . S
C1675 H1665 0.930 . S
C1675 C1668 1.409 . S
C1675 C1674 1.362 . S
H1676 C1682 0.930 . S
H1677 C1685 0.930 . S
H1678 C1686 0.930 . S
H1679 C1687 0.930 . S
H1680 C1690 0.930 . S
H1681 C1691 0.930 . S
C1682 H1676 0.930 . S
C1682 C1683 1.355 . S
C1682 C1684 1.415 . S
C1683 C1682 1.355 . S
C1683 C1685 1.419 . S
C1684 C1682 1.415 . S
C1684 C1689 1.425 . S
C1684 C1691 1.409 . S
C1685 H1677 0.930 . S
C1685 C1683 1.419 . S
C1685 C1686 1.362 . S
C1686 H1678 0.930 . S
C1686 C1685 1.362 . S
C1686 C1689 1.409 . S
C1687 H1679 0.930 . S
C1687 C1688 1.355 . S
C1687 C1689 1.415 . S
C1688 C1687 1.355 . S
C1688 C1690 1.419 . S
C1689 C1684 1.425 . S
C1689 C1686 1.409 . S
C1689 C1687 1.415 . S
C1690 H1680 0.930 . S
C1690 C1688 1.419 . S
C1690 C1691 1.362 . S
C1691 H1681 0.930 . S
C1691 C1684 1.409 . S
C1691 C1690 1.362 . S
H1692 C1698 0.930 . S
H1693 C1701 0.930 . S
H1694 C1702 0.930 . S
H1695 C1703 0.930 . S
H1696 C1706 0.930 . S
H1697 C1707 0.930 . S
C1698 H1692 0.930 . S
C1698 C1699 1.355 . S
C1698 C1700 1.415 . S
C1699 C1698 1.355 . S
C1699 C1701 1.419 . S
C1700 C1698 1.415 . S
C1700 C1705 1.425 . S
C1700 C1707 1.409 . S
C1701 H1693 0.930 . S
C1701 C1699 1.419 . S
C1701 C1702 1.362 . S
C1702 H1694 0.930 . S
C1702 C1701 1.362 . S
C1702 C1705 1.409 . S
C1703 H1695 0.930 . S
C1703 C1704 1.355 . S
C1703 C1705 1.415 . S
C1704 C1703 1.355 . S
C1704 C1706 1.419 . S
C1705 C1700 1.425 . S
C1705 C1702 1.409 . S
C1705 C1703 1.415 . S
C1706 H1696 0.930 . S
C1706 C1704 1.419 . S
C1706 C1707 1.362 . S
C1707 H1697 0.930 . S
C1707 C1700 1.409 . S
C1707 C1706 1.362 . S
H1708 C1714 0.930 . S
H1709 C1717 0.930 . S
H1710 C1718 0.930 . S
H1711 C1719 0.930 . S
H1712 C1722 0.930 . S
H1713 C1723 0.930 . S
C1714 H1708 0.930 . S
C1714 C1715 1.355 . S
C1714 C1716 1.415 . S
C1715 C1714 1.355 . S
C1715 C1717 1.419 . S
C1716 C1714 1.415 . S
C1716 C1721 1.425 . S
C1716 C1723 1.409 . S
C1717 H1709 0.930 . S
C1717 C1715 1.419 . S
C1717 C1718 1.362 . S
C1718 H1710 0.930 . S
C1718 C1717 1.362 . S
C1718 C1721 1.409 . S
C1719 H1711 0.930 . S
C1719 C1720 1.355 . S
C1719 C1721 1.415 . S
C1720 C1719 1.355 . S
C1720 C1722 1.419 . S
C1721 C1716 1.425 . S
C1721 C1718 1.409 . S
C1721 C1719 1.415 . S
C1722 H1712 0.930 . S
C1722 C1720 1.419 . S
C1722 C1723 1.362 . S
C1723 H1713 0.930 . S
C1723 C1716 1.409 . S
C1723 C1722 1.362 . S
H1724 C1730 0.930 . S
H1725 C1733 0.930 . S
H1726 C1734 0.930 . S
H1727 C1735 0.930 . S
H1728 C1738 0.930 . S
H1729 C1739 0.930 . S
C1730 H1724 0.930 . S
C1730 C1731 1.355 . S
C1730 C1732 1.415 . S
C1731 C1730 1.355 . S
C1731 C1733 1.419 . S
C1732 C1730 1.415 . S
C1732 C1737 1.425 . S
C1732 C1739 1.409 . S
C1733 H1725 0.930 . S
C1733 C1731 1.419 . S
C1733 C1734 1.362 . S
C1734 H1726 0.930 . S
C1734 C1733 1.362 . S
C1734 C1737 1.409 . S
C1735 H1727 0.930 . S
C1735 C1736 1.355 . S
C1735 C1737 1.415 . S
C1736 C1735 1.355 . S
C1736 C1738 1.419 . S
C1737 C1732 1.425 . S
C1737 C1734 1.409 . S
C1737 C1735 1.415 . S
C1738 H1728 0.930 . S
C1738 C1736 1.419 . S
C1738 C1739 1.362 . S
C1739 H1729 0.930 . S
C1739 C1732 1.409 . S
C1739 C1738 1.362 . S
H1740 C1746 0.930 1_545 S
H1741 C1749 0.930 . S
H1742 C1750 0.930 . S
H1743 C1751 0.930 . S
H1744 C1754 0.930 . S
H1745 C1755 0.930 . S
C1746 H1740 0.930 1_565 S
C1746 C1747 1.355 1_565 S
C1746 C1748 1.415 . S
C1747 C1746 1.355 1_545 S
C1747 C1749 1.419 1_545 S
C1748 C1746 1.415 . S
C1748 C1753 1.425 . S
C1748 C1755 1.409 . S
C1749 H1741 0.930 . S
C1749 C1747 1.419 1_565 S
C1749 C1750 1.362 . S
C1750 H1742 0.930 . S
C1750 C1749 1.362 . S
C1750 C1753 1.409 . S
C1751 H1743 0.930 . S
C1751 C1752 1.355 . S
C1751 C1753 1.415 . S
C1752 C1751 1.355 . S
C1752 C1754 1.419 . S
C1753 C1748 1.425 . S
C1753 C1750 1.409 . S
C1753 C1751 1.415 . S
C1754 H1744 0.930 . S
C1754 C1752 1.419 . S
C1754 C1755 1.362 . S
C1755 H1745 0.930 . S
C1755 C1748 1.409 . S
C1755 C1754 1.362 . S
H1756 C1762 0.930 . S
H1757 C1765 0.930 . S
H1758 C1766 0.930 . S
H1759 C1767 0.930 . S
H1760 C1770 0.930 . S
H1761 C1771 0.930 . S
C1762 H1756 0.930 . S
C1762 C1763 1.355 . S
C1762 C1764 1.415 . S
C1763 C1762 1.355 . S
C1763 C1765 1.419 . S
C1764 C1762 1.415 . S
C1764 C1769 1.425 . S
C1764 C1771 1.409 . S
C1765 H1757 0.930 . S
C1765 C1763 1.419 . S
C1765 C1766 1.362 . S
C1766 H1758 0.930 . S
C1766 C1765 1.362 . S
C1766 C1769 1.409 . S
C1767 H1759 0.930 . S
C1767 C1768 1.355 . S
C1767 C1769 1.415 . S
C1768 C1767 1.355 . S
C1768 C1770 1.419 . S
C1769 C1764 1.425 . S
C1769 C1766 1.409 . S
C1769 C1767 1.415 . S
C1770 H1760 0.930 . S
C1770 C1768 1.419 . S
C1770 C1771 1.362 . S
C1771 H1761 0.930 . S
C1771 C1764 1.409 . S
C1771 C1770 1.362 . S
H1772 C1778 0.930 . S
H1773 C1781 0.930 . S
H1774 C1782 0.930 . S
H1775 C1783 0.930 . S
H1776 C1786 0.930 . S
H1777 C1787 0.930 . S
C1778 H1772 0.930 . S
C1778 C1779 1.355 . S
C1778 C1780 1.415 . S
C1779 C1778 1.355 . S
C1779 C1781 1.419 . S
C1780 C1778 1.415 . S
C1780 C1785 1.425 . S
C1780 C1787 1.409 . S
C1781 H1773 0.930 . S
C1781 C1779 1.419 . S
C1781 C1782 1.362 . S
C1782 H1774 0.930 . S
C1782 C1781 1.362 . S
C1782 C1785 1.409 . S
C1783 H1775 0.930 . S
C1783 C1784 1.355 . S
C1783 C1785 1.415 . S
C1784 C1783 1.355 . S
C1784 C1786 1.419 . S
C1785 C1780 1.425 . S
C1785 C1782 1.409 . S
C1785 C1783 1.415 . S
C1786 H1776 0.930 . S
C1786 C1784 1.419 . S
C1786 C1787 1.362 . S
C1787 H1777 0.930 . S
C1787 C1780 1.409 . S
C1787 C1786 1.362 . S
H1788 C1794 0.930 . S
H1789 C1797 0.930 . S
H1790 C1798 0.930 . S
H1791 C1799 0.930 . S
H1792 C1802 0.930 . S
H1793 C1803 0.930 . S
C1794 H1788 0.930 . S
C1794 C1795 1.355 . S
C1794 C1796 1.415 . S
C1795 C1794 1.355 . S
C1795 C1797 1.419 . S
C1796 C1794 1.415 . S
C1796 C1801 1.425 . S
C1796 C1803 1.409 . S
C1797 H1789 0.930 . S
C1797 C1795 1.419 . S
C1797 C1798 1.362 . S
C1798 H1790 0.930 . S
C1798 C1797 1.362 . S
C1798 C1801 1.409 . S
C1799 H1791 0.930 . S
C1799 C1800 1.355 . S
C1799 C1801 1.415 . S
C1800 C1799 1.355 . S
C1800 C1802 1.419 . S
C1801 C1796 1.425 . S
C1801 C1798 1.409 . S
C1801 C1799 1.415 . S
C1802 H1792 0.930 . S
C1802 C1800 1.419 . S
C1802 C1803 1.362 . S
C1803 H1793 0.930 . S
C1803 C1796 1.409 . S
C1803 C1802 1.362 . S
H1804 C1810 0.930 . S
H1805 C1813 0.930 . S
H1806 C1814 0.930 . S
H1807 C1815 0.930 . S
H1808 C1818 0.930 . S
H1809 C1819 0.930 . S
C1810 H1804 0.930 . S
C1810 C1811 1.355 . S
C1810 C1812 1.415 . S
C1811 C1810 1.355 . S
C1811 C1813 1.419 . S
C1812 C1810 1.415 . S
C1812 C1817 1.425 . S
C1812 C1819 1.409 . S
C1813 H1805 0.930 . S
C1813 C1811 1.419 . S
C1813 C1814 1.362 . S
C1814 H1806 0.930 . S
C1814 C1813 1.362 . S
C1814 C1817 1.409 . S
C1815 H1807 0.930 . S
C1815 C1816 1.355 . S
C1815 C1817 1.415 . S
C1816 C1815 1.355 . S
C1816 C1818 1.419 . S
C1817 C1812 1.425 . S
C1817 C1814 1.409 . S
C1817 C1815 1.415 . S
C1818 H1808 0.930 . S
C1818 C1816 1.419 . S
C1818 C1819 1.362 . S
C1819 H1809 0.930 . S
C1819 C1812 1.409 . S
C1819 C1818 1.362 . S
H1820 C1826 0.930 . S
H1821 C1829 0.930 . S
H1822 C1830 0.930 . S
H1823 C1831 0.930 . S
H1824 C1834 0.930 . S
H1825 C1835 0.930 . S
C1826 H1820 0.930 . S
C1826 C1827 1.355 . S
C1826 C1828 1.415 . S
C1827 C1826 1.355 . S
C1827 C1829 1.419 . S
C1828 C1826 1.415 . S
C1828 C1833 1.425 . S
C1828 C1835 1.409 . S
C1829 H1821 0.930 . S
C1829 C1827 1.419 . S
C1829 C1830 1.362 . S
C1830 H1822 0.930 . S
C1830 C1829 1.362 . S
C1830 C1833 1.409 . S
C1831 H1823 0.930 . S
C1831 C1832 1.355 . S
C1831 C1833 1.415 . S
C1832 C1831 1.355 . S
C1832 C1834 1.419 . S
C1833 C1828 1.425 . S
C1833 C1830 1.409 . S
C1833 C1831 1.415 . S
C1834 H1824 0.930 . S
C1834 C1832 1.419 . S
C1834 C1835 1.362 . S
C1835 H1825 0.930 . S
C1835 C1828 1.409 . S
C1835 C1834 1.362 . S
H1836 C1842 0.930 . S
H1837 C1845 0.930 . S
H1838 C1846 0.930 . S
H1839 C1847 0.930 . S
H1840 C1850 0.930 . S
H1841 C1851 0.930 . S
C1842 H1836 0.930 . S
C1842 C1843 1.355 1_545 S
C1842 C1844 1.415 . S
C1843 C1842 1.355 1_565 S
C1843 C1845 1.419 . S
C1844 C1842 1.415 . S
C1844 C1849 1.425 . S
C1844 C1851 1.409 . S
C1845 H1837 0.930 . S
C1845 C1843 1.419 . S
C1845 C1846 1.362 1_565 S
C1846 H1838 0.930 . S
C1846 C1845 1.362 1_545 S
C1846 C1849 1.409 . S
C1847 H1839 0.930 . S
C1847 C1848 1.355 . S
C1847 C1849 1.415 . S
C1848 C1847 1.355 . S
C1848 C1850 1.419 . S
C1849 C1844 1.425 . S
C1849 C1846 1.409 . S
C1849 C1847 1.415 . S
C1850 H1840 0.930 . S
C1850 C1848 1.419 . S
C1850 C1851 1.362 . S
C1851 H1841 0.930 . S
C1851 C1844 1.409 . S
C1851 C1850 1.362 . S
H1852 C1858 0.930 . S
H1853 C1861 0.930 1_455 S
H1854 C1862 0.930 . S
H1855 C1863 0.930 . S
H1856 C1866 0.930 . S
H1857 C1867 0.930 . S
C1858 H1852 0.930 . S
C1858 C1859 1.355 . S
C1858 C1860 1.415 . S
C1859 C1858 1.355 . S
C1859 C1861 1.419 . S
C1860 C1858 1.415 . S
C1860 C1865 1.425 . S
C1860 C1867 1.409 . S
C1861 H1853 0.930 1_655 S
C1861 C1859 1.419 . S
C1861 C1862 1.362 . S
C1862 H1854 0.930 . S
C1862 C1861 1.362 . S
C1862 C1865 1.409 . S
C1863 H1855 0.930 . S
C1863 C1864 1.355 . S
C1863 C1865 1.415 . S
C1864 C1863 1.355 . S
C1864 C1866 1.419 . S
C1865 C1860 1.425 . S
C1865 C1862 1.409 . S
C1865 C1863 1.415 . S
C1866 H1856 0.930 . S
C1866 C1864 1.419 . S
C1866 C1867 1.362 . S
C1867 H1857 0.930 . S
C1867 C1860 1.409 . S
C1867 C1866 1.362 . S
H1868 C1874 0.930 . S
H1869 C1877 0.930 . S
H1870 C1878 0.930 . S
H1871 C1879 0.930 . S
H1872 C1882 0.930 . S
H1873 C1883 0.930 . S
C1874 H1868 0.930 . S
C1874 C1875 1.355 . S
C1874 C1876 1.415 . S
C1875 C1874 1.355 . S
C1875 C1877 1.419 . S
C1876 C1874 1.415 . S
C1876 C1881 1.425 . S
C1876 C1883 1.409 . S
C1877 H1869 0.930 . S
C1877 C1875 1.419 . S
C1877 C1878 1.362 . S
C1878 H1870 0.930 . S
C1878 C1877 1.362 . S
C1878 C1881 1.409 . S
C1879 H1871 0.930 . S
C1879 C1880 1.355 . S
C1879 C1881 1.415 . S
C1880 C1879 1.355 . S
C1880 C1882 1.419 . S
C1881 C1876 1.425 . S
C1881 C1878 1.409 . S
C1881 C1879 1.415 . S
C1882 H1872 0.930 . S
C1882 C1880 1.419 . S
C1882 C1883 1.362 . S
C1883 H1873 0.930 . S
C1883 C1876 1.409 . S
C1883 C1882 1.362 . S
H1884 C1890 0.930 . S
H1885 C1893 0.930 . S
H1886 C1894 0.930 . S
H1887 C1895 0.930 . S
H1888 C1898 0.930 . S
H1889 C1899 0.930 . S
C1890 H1884 0.930 . S
C1890 C1891 1.355 . S
C1890 C1892 1.415 . S
C1891 C1890 1.355 . S
C1891 C1893 1.419 . S
C1892 C1890 1.415 . S
C1892 C1897 1.425 . S
C1892 C1899 1.409 . S
C1893 H1885 0.930 . S
C1893 C1891 1.419 . S
C1893 C1894 1.362 . S
C1894 H1886 0.930 . S
C1894 C1893 1.362 . S
C1894 C1897 1.409 . S
C1895 H1887 0.930 . S
C1895 C1896 1.355 . S
C1895 C1897 1.415 . S
C1896 C1895 1.355 . S
C1896 C1898 1.419 . S
C1897 C1892 1.425 . S
C1897 C1894 1.409 . S
C1897 C1895 1.415 . S
C1898 H1888 0.930 . S
C1898 C1896 1.419 . S
C1898 C1899 1.362 . S
C1899 H1889 0.930 . S
C1899 C1892 1.409 . S
C1899 C1898 1.362 . S
H1900 C1906 0.930 . S
H1901 C1909 0.930 . S
H1902 C1910 0.930 . S
H1903 C1911 0.930 . S
H1904 C1914 0.930 . S
H1905 C1915 0.930 . S
C1906 H1900 0.930 . S
C1906 C1907 1.355 . S
C1906 C1908 1.415 . S
C1907 C1906 1.355 . S
C1907 C1909 1.419 . S
C1908 C1906 1.415 . S
C1908 C1913 1.425 . S
C1908 C1915 1.409 . S
C1909 H1901 0.930 . S
C1909 C1907 1.419 . S
C1909 C1910 1.362 . S
C1910 H1902 0.930 . S
C1910 C1909 1.362 . S
C1910 C1913 1.409 . S
C1911 H1903 0.930 . S
C1911 C1912 1.355 . S
C1911 C1913 1.415 . S
C1912 C1911 1.355 . S
C1912 C1914 1.419 . S
C1913 C1908 1.425 . S
C1913 C1910 1.409 . S
C1913 C1911 1.415 . S
C1914 H1904 0.930 . S
C1914 C1912 1.419 . S
C1914 C1915 1.362 . S
C1915 H1905 0.930 . S
C1915 C1908 1.409 . S
C1915 C1914 1.362 . S
H1916 C1922 0.922 1_565 S
H1917 C1925 0.929 1_565 S
H1918 C1926 0.930 . S
H1919 C1927 0.930 . S
H1920 C1930 0.930 . S
H1921 C1931 0.930 . S
C1922 H1916 0.922 1_545 S
C1922 C1923 1.355 1_545 S
C1922 C1924 1.415 . S
C1923 C1922 1.355 1_565 S
C1923 C1925 1.419 1_565 S
C1924 C1922 1.415 . S
C1924 C1929 1.425 . S
C1924 C1931 1.409 . S
C1925 H1917 0.929 1_545 S
C1925 C1923 1.419 1_545 S
C1925 C1926 1.362 . S
C1926 H1918 0.930 . S
C1926 C1925 1.362 . S
C1926 C1929 1.409 . S
C1927 H1919 0.930 . S
C1927 C1928 1.355 . S
C1927 C1929 1.415 . S
C1928 C1927 1.355 . S
C1928 C1930 1.419 . S
C1929 C1924 1.425 . S
C1929 C1926 1.409 . S
C1929 C1927 1.415 . S
C1930 H1920 0.930 . S
C1930 C1928 1.419 . S
C1930 C1931 1.362 . S
C1931 H1921 0.930 . S
C1931 C1924 1.409 . S
C1931 C1930 1.362 . S
H1932 C1938 0.930 . S
H1933 C1941 0.930 . S
H1934 C1942 0.930 . S
H1935 C1943 0.930 . S
H1936 C1946 0.930 . S
H1937 C1947 0.930 . S
C1938 H1932 0.930 . S
C1938 C1939 1.355 . S
C1938 C1940 1.415 . S
C1939 C1938 1.355 . S
C1939 C1941 1.419 . S
C1940 C1938 1.415 . S
C1940 C1945 1.425 . S
C1940 C1947 1.409 . S
C1941 H1933 0.930 . S
C1941 C1939 1.419 . S
C1941 C1942 1.362 . S
C1942 H1934 0.930 . S
C1942 C1941 1.362 . S
C1942 C1945 1.409 . S
C1943 H1935 0.930 . S
C1943 C1944 1.355 . S
C1943 C1945 1.415 . S
C1944 C1943 1.355 . S
C1944 C1946 1.419 . S
C1945 C1940 1.425 . S
C1945 C1942 1.409 . S
C1945 C1943 1.415 . S
C1946 H1936 0.930 . S
C1946 C1944 1.419 . S
C1946 C1947 1.362 . S
C1947 H1937 0.930 . S
C1947 C1940 1.409 . S
C1947 C1946 1.362 . S
H1948 C1954 0.930 . S
H1949 C1957 0.930 . S
H1950 C1958 0.930 . S
H1951 C1959 0.930 . S
H1952 C1962 0.930 . S
H1953 C1963 0.930 . S
C1954 H1948 0.930 . S
C1954 C1955 1.355 . S
C1954 C1956 1.415 . S
C1955 C1954 1.355 . S
C1955 C1957 1.419 . S
C1956 C1954 1.415 . S
C1956 C1961 1.425 . S
C1956 C1963 1.409 . S
C1957 H1949 0.930 . S
C1957 C1955 1.419 . S
C1957 C1958 1.362 . S
C1958 H1950 0.930 . S
C1958 C1957 1.362 . S
C1958 C1961 1.409 . S
C1959 H1951 0.930 . S
C1959 C1960 1.355 . S
C1959 C1961 1.415 . S
C1960 C1959 1.355 . S
C1960 C1962 1.419 . S
C1961 C1956 1.425 . S
C1961 C1958 1.409 . S
C1961 C1959 1.415 . S
C1962 H1952 0.930 . S
C1962 C1960 1.419 . S
C1962 C1963 1.362 . S
C1963 H1953 0.930 . S
C1963 C1956 1.409 . S
C1963 C1962 1.362 . S
H1964 C1970 0.930 . S
H1965 C1973 0.930 . S
H1966 C1974 0.930 . S
H1967 C1975 0.930 . S
H1968 C1978 0.930 . S
H1969 C1979 0.930 . S
C1970 H1964 0.930 . S
C1970 C1971 1.355 . S
C1970 C1972 1.415 . S
C1971 C1970 1.355 . S
C1971 C1973 1.419 . S
C1972 C1970 1.415 . S
C1972 C1977 1.425 . S
C1972 C1979 1.409 . S
C1973 H1965 0.930 . S
C1973 C1971 1.419 . S
C1973 C1974 1.362 . S
C1974 H1966 0.930 . S
C1974 C1973 1.362 . S
C1974 C1977 1.409 . S
C1975 H1967 0.930 . S
C1975 C1976 1.355 . S
C1975 C1977 1.415 . S
C1976 C1975 1.355 . S
C1976 C1978 1.419 . S
C1977 C1972 1.425 . S
C1977 C1974 1.409 . S
C1977 C1975 1.415 . S
C1978 H1968 0.930 . S
C1978 C1976 1.419 . S
C1978 C1979 1.362 . S
C1979 H1969 0.930 . S
C1979 C1972 1.409 . S
C1979 C1978 1.362 . S
H1980 C1986 0.930 . S
H1981 C1989 0.930 . S
H1982 C1990 0.930 . S
H1983 C1991 0.930 . S
H1984 C1994 0.930 . S
H1985 C1995 0.930 . S
C1986 H1980 0.930 . S
C1986 C1987 1.355 . S
C1986 C1988 1.415 . S
C1987 C1986 1.355 . S
C1987 C1989 1.419 . S
C1988 C1986 1.415 . S
C1988 C1993 1.425 . S
C1988 C1995 1.409 . S
C1989 H1981 0.930 . S
C1989 C1987 1.419 . S
C1989 C1990 1.362 . S
C1990 H1982 0.930 . S
C1990 C1989 1.362 . S
C1990 C1993 1.409 . S
C1991 H1983 0.930 . S
C1991 C1992 1.355 . S
C1991 C1993 1.415 . S
C1992 C1991 1.355 . S
C1992 C1994 1.419 . S
C1993 C1988 1.425 . S
C1993 C1990 1.409 . S
C1993 C1991 1.415 . S
C1994 H1984 0.930 . S
C1994 C1992 1.419 . S
C1994 C1995 1.362 . S
C1995 H1985 0.930 . S
C1995 C1988 1.409 . S
C1995 C1994 1.362 . S
H1996 C2002 0.930 . S
H1997 C2005 0.930 . S
H1998 C2006 0.930 1_655 S
H1999 C2007 0.930 1_655 S
H2000 C2010 0.930 . S
H2001 C2011 0.930 . S
C2002 H1996 0.930 . S
C2002 C2003 1.355 . S
C2002 C2004 1.415 . S
C2003 C2002 1.355 . S
C2003 C2005 1.419 . S
C2004 C2002 1.415 . S
C2004 C2009 1.425 . S
C2004 C2011 1.409 . S
C2005 H1997 0.930 . S
C2005 C2003 1.419 . S
C2005 C2006 1.362 . S
C2006 H1998 0.930 1_455 S
C2006 C2005 1.362 . S
C2006 C2009 1.409 . S
C2007 H1999 0.930 1_455 S
C2007 C2008 1.355 . S
C2007 C2009 1.415 . S
C2008 C2007 1.355 . S
C2008 C2010 1.419 . S
C2009 C2004 1.425 . S
C2009 C2006 1.409 . S
C2009 C2007 1.415 . S
C2010 H2000 0.930 . S
C2010 C2008 1.419 . S
C2010 C2011 1.362 . S
C2011 H2001 0.930 . S
C2011 C2004 1.409 . S
C2011 C2010 1.362 . S
H2012 C2018 0.930 . S
H2013 C2021 0.930 . S
H2014 C2022 0.930 . S
H2015 C2023 0.930 . S
H2016 C2026 0.930 . S
H2017 C2027 0.930 . S
C2018 H2012 0.930 . S
C2018 C2019 1.355 . S
C2018 C2020 1.415 . S
C2019 C2018 1.355 . S
C2019 C2021 1.419 . S
C2020 C2018 1.415 . S
C2020 C2025 1.425 . S
C2020 C2027 1.409 . S
C2021 H2013 0.930 . S
C2021 C2019 1.419 . S
C2021 C2022 1.362 . S
C2022 H2014 0.930 . S
C2022 C2021 1.362 . S
C2022 C2025 1.409 . S
C2023 H2015 0.930 . S
C2023 C2024 1.355 . S
C2023 C2025 1.415 . S
C2024 C2023 1.355 . S
C2024 C2026 1.419 . S
C2025 C2020 1.425 . S
C2025 C2022 1.409 . S
C2025 C2023 1.415 . S
C2026 H2016 0.930 . S
C2026 C2024 1.419 . S
C2026 C2027 1.362 . S
C2027 H2017 0.930 . S
C2027 C2020 1.409 . S
C2027 C2026 1.362 . S
H2028 C2034 0.930 . S
H2029 C2037 0.930 . S
H2030 C2038 0.930 1_455 S
H2031 C2039 0.930 1_455 S
H2032 C2042 0.930 . S
H2033 C2043 0.930 . S
C2034 H2028 0.930 . S
C2034 C2035 1.355 . S
C2034 C2036 1.415 . S
C2035 C2034 1.355 . S
C2035 C2037 1.419 . S
C2036 C2034 1.415 . S
C2036 C2041 1.425 . S
C2036 C2043 1.409 . S
C2037 H2029 0.930 . S
C2037 C2035 1.419 . S
C2037 C2038 1.362 . S
C2038 H2030 0.930 1_655 S
C2038 C2037 1.362 . S
C2038 C2041 1.409 . S
C2039 H2031 0.930 1_655 S
C2039 C2040 1.355 . S
C2039 C2041 1.415 . S
C2040 C2039 1.355 . S
C2040 C2042 1.419 . S
C2041 C2036 1.425 . S
C2041 C2038 1.409 . S
C2041 C2039 1.415 . S
C2042 H2032 0.930 . S
C2042 C2040 1.419 . S
C2042 C2043 1.362 . S
C2043 H2033 0.930 . S
C2043 C2036 1.409 . S
C2043 C2042 1.362 . S
H2044 C2050 0.930 . S
H2045 C2053 0.930 . S
H2046 C2054 0.930 . S
H2047 C2055 0.930 . S
H2048 C2058 0.930 . S
H2049 C2059 0.930 . S
C2050 H2044 0.930 . S
C2050 C2051 1.355 . S
C2050 C2052 1.415 . S
C2051 C2050 1.355 . S
C2051 C2053 1.419 . S
C2052 C2050 1.415 . S
C2052 C2057 1.425 . S
C2052 C2059 1.409 . S
C2053 H2045 0.930 . S
C2053 C2051 1.419 . S
C2053 C2054 1.362 . S
C2054 H2046 0.930 . S
C2054 C2053 1.362 . S
C2054 C2057 1.409 . S
C2055 H2047 0.930 . S
C2055 C2056 1.355 . S
C2055 C2057 1.415 . S
C2056 C2055 1.355 . S
C2056 C2058 1.419 . S
C2057 C2052 1.425 . S
C2057 C2054 1.409 . S
C2057 C2055 1.415 . S
C2058 H2048 0.930 . S
C2058 C2056 1.419 . S
C2058 C2059 1.362 . S
C2059 H2049 0.930 . S
C2059 C2052 1.409 . S
C2059 C2058 1.362 . S
H2060 C2066 0.930 . S
H2061 C2069 0.930 . S
H2062 C2070 0.930 . S
H2063 C2071 0.930 . S
H2064 C2074 0.930 1_565 S
H2065 C2075 0.930 . S
C2066 H2060 0.930 . S
C2066 C2067 1.355 . S
C2066 C2068 1.415 . S
C2067 C2066 1.355 . S
C2067 C2069 1.419 . S
C2068 C2066 1.415 . S
C2068 C2073 1.425 . S
C2068 C2075 1.409 . S
C2069 H2061 0.930 . S
C2069 C2067 1.419 . S
C2069 C2070 1.362 . S
C2070 H2062 0.930 . S
C2070 C2069 1.362 . S
C2070 C2073 1.409 . S
C2071 H2063 0.930 . S
C2071 C2072 1.355 . S
C2071 C2073 1.415 . S
C2072 C2071 1.355 . S
C2072 C2074 1.419 . S
C2073 C2068 1.425 . S
C2073 C2070 1.409 . S
C2073 C2071 1.415 . S
C2074 H2064 0.930 1_545 S
C2074 C2072 1.419 . S
C2074 C2075 1.362 . S
C2075 H2065 0.930 . S
C2075 C2068 1.409 . S
C2075 C2074 1.362 . S
H2076 C2082 0.930 . S
H2077 C2085 0.930 . S
H2078 C2086 0.930 . S
H2079 C2087 0.930 . S
H2080 C2090 0.930 . S
H2081 C2091 0.930 . S
C2082 H2076 0.930 . S
C2082 C2083 1.355 . S
C2082 C2084 1.415 . S
C2083 C2082 1.355 . S
C2083 C2085 1.419 . S
C2084 C2082 1.415 . S
C2084 C2089 1.425 . S
C2084 C2091 1.409 . S
C2085 H2077 0.930 . S
C2085 C2083 1.419 . S
C2085 C2086 1.362 . S
C2086 H2078 0.930 . S
C2086 C2085 1.362 . S
C2086 C2089 1.409 . S
C2087 H2079 0.930 . S
C2087 C2088 1.355 . S
C2087 C2089 1.415 . S
C2088 C2087 1.355 . S
C2088 C2090 1.419 . S
C2089 C2084 1.425 . S
C2089 C2086 1.409 . S
C2089 C2087 1.415 . S
C2090 H2080 0.930 . S
C2090 C2088 1.419 . S
C2090 C2091 1.362 . S
C2091 H2081 0.930 . S
C2091 C2084 1.409 . S
C2091 C2090 1.362 . S
H2092 C2098 0.930 . S
H2093 C2101 0.930 . S
H2094 C2102 0.930 . S
H2095 C2103 0.930 . S
H2096 C2106 0.930 . S
H2097 C2107 0.930 . S
C2098 H2092 0.930 . S
C2098 C2099 1.355 . S
C2098 C2100 1.415 . S
C2099 C2098 1.355 . S
C2099 C2101 1.419 . S
C2100 C2098 1.415 . S
C2100 C2105 1.425 . S
C2100 C2107 1.409 . S
C2101 H2093 0.930 . S
C2101 C2099 1.419 . S
C2101 C2102 1.362 . S
C2102 H2094 0.930 . S
C2102 C2101 1.362 . S
C2102 C2105 1.409 . S
C2103 H2095 0.930 . S
C2103 C2104 1.355 . S
C2103 C2105 1.415 . S
C2104 C2103 1.355 . S
C2104 C2106 1.419 . S
C2105 C2100 1.425 . S
C2105 C2102 1.409 . S
C2105 C2103 1.415 . S
C2106 H2096 0.930 . S
C2106 C2104 1.419 . S
C2106 C2107 1.362 . S
C2107 H2097 0.930 . S
C2107 C2100 1.409 . S
C2107 C2106 1.362 . S
H2108 C2114 0.930 . S
H2109 C2117 0.930 . S
H2110 C2118 0.930 . S
H2111 C2119 0.930 . S
H2112 C2122 0.930 . S
H2113 C2123 0.930 . S
C2114 H2108 0.930 . S
C2114 C2115 1.355 . S
C2114 C2116 1.415 . S
C2115 C2114 1.355 . S
C2115 C2117 1.419 . S
C2116 C2114 1.415 . S
C2116 C2121 1.425 . S
C2116 C2123 1.409 . S
C2117 H2109 0.930 . S
C2117 C2115 1.419 . S
C2117 C2118 1.362 . S
C2118 H2110 0.930 . S
C2118 C2117 1.362 . S
C2118 C2121 1.409 . S
C2119 H2111 0.930 . S
C2119 C2120 1.355 . S
C2119 C2121 1.415 . S
C2120 C2119 1.355 . S
C2120 C2122 1.419 . S
C2121 C2116 1.425 . S
C2121 C2118 1.409 . S
C2121 C2119 1.415 . S
C2122 H2112 0.930 . S
C2122 C2120 1.419 . S
C2122 C2123 1.362 . S
C2123 H2113 0.930 . S
C2123 C2116 1.409 . S
C2123 C2122 1.362 . S
H2124 C2130 0.930 . S
H2125 C2133 0.930 . S
H2126 C2134 0.930 . S
H2127 C2135 0.930 . S
H2128 C2138 0.930 . S
H2129 C2139 0.930 . S
C2130 H2124 0.930 . S
C2130 C2131 1.355 . S
C2130 C2132 1.415 . S
C2131 C2130 1.355 . S
C2131 C2133 1.419 . S
C2132 C2130 1.415 . S
C2132 C2137 1.425 . S
C2132 C2139 1.409 . S
C2133 H2125 0.930 . S
C2133 C2131 1.419 . S
C2133 C2134 1.362 . S
C2134 H2126 0.930 . S
C2134 C2133 1.362 . S
C2134 C2137 1.409 . S
C2135 H2127 0.930 . S
C2135 C2136 1.355 . S
C2135 C2137 1.415 . S
C2136 C2135 1.355 . S
C2136 C2138 1.419 . S
C2137 C2132 1.425 . S
C2137 C2134 1.409 . S
C2137 C2135 1.415 . S
C2138 H2128 0.930 . S
C2138 C2136 1.419 . S
C2138 C2139 1.362 . S
C2139 H2129 0.930 . S
C2139 C2132 1.409 . S
C2139 C2138 1.362 . S
H2140 C2146 0.930 . S
H2141 C2149 0.930 . S
H2142 C2150 0.930 . S
H2143 C2151 0.930 . S
H2144 C2154 0.930 . S
H2145 C2155 0.930 . S
C2146 H2140 0.930 . S
C2146 C2147 1.355 . S
C2146 C2148 1.415 . S
C2147 C2146 1.355 . S
C2147 C2149 1.419 . S
C2148 C2146 1.415 . S
C2148 C2153 1.425 . S
C2148 C2155 1.409 . S
C2149 H2141 0.930 . S
C2149 C2147 1.419 . S
C2149 C2150 1.362 . S
C2150 H2142 0.930 . S
C2150 C2149 1.362 . S
C2150 C2153 1.409 . S
C2151 H2143 0.930 . S
C2151 C2152 1.355 . S
C2151 C2153 1.415 . S
C2152 C2151 1.355 . S
C2152 C2154 1.419 . S
C2153 C2148 1.425 . S
C2153 C2150 1.409 . S
C2153 C2151 1.415 . S
C2154 H2144 0.930 . S
C2154 C2152 1.419 . S
C2154 C2155 1.362 . S
C2155 H2145 0.930 . S
C2155 C2148 1.409 . S
C2155 C2154 1.362 . S
H2156 C2162 0.930 . S
H2157 C2165 0.930 . S
H2158 C2166 0.930 . S
H2159 C2167 0.930 . S
H2160 C2170 0.930 . S
H2161 C2171 0.930 . S
C2162 H2156 0.930 . S
C2162 C2163 1.355 . S
C2162 C2164 1.415 . S
C2163 C2162 1.355 . S
C2163 C2165 1.419 . S
C2164 C2162 1.415 . S
C2164 C2169 1.425 . S
C2164 C2171 1.409 . S
C2165 H2157 0.930 . S
C2165 C2163 1.419 . S
C2165 C2166 1.362 . S
C2166 H2158 0.930 . S
C2166 C2165 1.362 . S
C2166 C2169 1.409 . S
C2167 H2159 0.930 . S
C2167 C2168 1.355 . S
C2167 C2169 1.415 . S
C2168 C2167 1.355 . S
C2168 C2170 1.419 . S
C2169 C2164 1.425 . S
C2169 C2166 1.409 . S
C2169 C2167 1.415 . S
C2170 H2160 0.930 . S
C2170 C2168 1.419 . S
C2170 C2171 1.362 . S
C2171 H2161 0.930 . S
C2171 C2164 1.409 . S
C2171 C2170 1.362 . S
H2172 C2178 0.930 . S
H2173 C2181 0.930 . S
H2174 C2182 0.930 . S
H2175 C2183 0.930 . S
H2176 C2186 0.930 . S
H2177 C2187 0.930 . S
C2178 H2172 0.930 . S
C2178 C2179 1.355 . S
C2178 C2180 1.415 . S
C2179 C2178 1.355 . S
C2179 C2181 1.419 . S
C2180 C2178 1.415 . S
C2180 C2185 1.425 . S
C2180 C2187 1.409 . S
C2181 H2173 0.930 . S
C2181 C2179 1.419 . S
C2181 C2182 1.362 . S
C2182 H2174 0.930 . S
C2182 C2181 1.362 . S
C2182 C2185 1.409 . S
C2183 H2175 0.930 . S
C2183 C2184 1.355 . S
C2183 C2185 1.415 . S
C2184 C2183 1.355 . S
C2184 C2186 1.419 . S
C2185 C2180 1.425 . S
C2185 C2182 1.409 . S
C2185 C2183 1.415 . S
C2186 H2176 0.930 . S
C2186 C2184 1.419 . S
C2186 C2187 1.362 . S
C2187 H2177 0.930 . S
C2187 C2180 1.409 . S
C2187 C2186 1.362 . S
H2188 C2194 0.930 . S
H2189 C2197 0.930 . S
H2190 C2198 0.930 . S
H2191 C2199 0.930 . S
H2192 C2202 0.930 . S
H2193 C2203 0.930 . S
C2194 H2188 0.930 . S
C2194 C2195 1.355 . S
C2194 C2196 1.415 . S
C2195 C2194 1.355 . S
C2195 C2197 1.419 . S
C2196 C2194 1.415 . S
C2196 C2201 1.425 . S
C2196 C2203 1.409 . S
C2197 H2189 0.930 . S
C2197 C2195 1.419 . S
C2197 C2198 1.362 . S
C2198 H2190 0.930 . S
C2198 C2197 1.362 . S
C2198 C2201 1.409 . S
C2199 H2191 0.930 . S
C2199 C2200 1.355 . S
C2199 C2201 1.415 . S
C2200 C2199 1.355 . S
C2200 C2202 1.419 . S
C2201 C2196 1.425 . S
C2201 C2198 1.409 . S
C2201 C2199 1.415 . S
C2202 H2192 0.930 . S
C2202 C2200 1.419 . S
C2202 C2203 1.362 . S
C2203 H2193 0.930 . S
C2203 C2196 1.409 . S
C2203 C2202 1.362 . S
H2204 C2210 0.930 . S
H2205 C2213 0.930 . S
H2206 C2214 0.930 . S
H2207 C2215 0.930 . S
H2208 C2218 0.930 . S
H2209 C2219 0.930 . S
C2210 H2204 0.930 . S
C2210 C2211 1.355 . S
C2210 C2212 1.415 . S
C2211 C2210 1.355 . S
C2211 C2213 1.419 . S
C2212 C2210 1.415 . S
C2212 C2217 1.425 . S
C2212 C2219 1.409 . S
C2213 H2205 0.930 . S
C2213 C2211 1.419 . S
C2213 C2214 1.362 . S
C2214 H2206 0.930 . S
C2214 C2213 1.362 . S
C2214 C2217 1.409 . S
C2215 H2207 0.930 . S
C2215 C2216 1.355 . S
C2215 C2217 1.415 . S
C2216 C2215 1.355 . S
C2216 C2218 1.419 . S
C2217 C2212 1.425 . S
C2217 C2214 1.409 . S
C2217 C2215 1.415 . S
C2218 H2208 0.930 . S
C2218 C2216 1.419 . S
C2218 C2219 1.362 . S
C2219 H2209 0.930 . S
C2219 C2212 1.409 . S
C2219 C2218 1.362 . S
H2220 C2226 0.930 . S
H2221 C2229 0.930 . S
H2222 C2230 0.930 . S
H2223 C2231 0.930 . S
H2224 C2234 0.930 . S
H2225 C2235 0.930 . S
C2226 H2220 0.930 . S
C2226 C2227 1.355 . S
C2226 C2228 1.415 . S
C2227 C2226 1.355 . S
C2227 C2229 1.419 . S
C2228 C2226 1.415 . S
C2228 C2233 1.425 . S
C2228 C2235 1.409 . S
C2229 H2221 0.930 . S
C2229 C2227 1.419 . S
C2229 C2230 1.362 . S
C2230 H2222 0.930 . S
C2230 C2229 1.362 . S
C2230 C2233 1.409 . S
C2231 H2223 0.930 . S
C2231 C2232 1.355 . S
C2231 C2233 1.415 . S
C2232 C2231 1.355 . S
C2232 C2234 1.419 . S
C2233 C2228 1.425 . S
C2233 C2230 1.409 . S
C2233 C2231 1.415 . S
C2234 H2224 0.930 . S
C2234 C2232 1.419 . S
C2234 C2235 1.362 . S
C2235 H2225 0.930 . S
C2235 C2228 1.409 . S
C2235 C2234 1.362 . S
H2236 C2242 0.930 . S
H2237 C2245 0.930 . S
H2238 C2246 0.930 . S
H2239 C2247 0.930 . S
H2240 C2250 0.930 . S
H2241 C2251 0.930 . S
C2242 H2236 0.930 . S
C2242 C2243 1.355 . S
C2242 C2244 1.415 . S
C2243 C2242 1.355 . S
C2243 C2245 1.419 . S
C2244 C2242 1.415 . S
C2244 C2249 1.425 . S
C2244 C2251 1.409 . S
C2245 H2237 0.930 . S
C2245 C2243 1.419 . S
C2245 C2246 1.362 . S
C2246 H2238 0.930 . S
C2246 C2245 1.362 . S
C2246 C2249 1.409 . S
C2247 H2239 0.930 . S
C2247 C2248 1.355 . S
C2247 C2249 1.415 . S
C2248 C2247 1.355 . S
C2248 C2250 1.419 . S
C2249 C2244 1.425 . S
C2249 C2246 1.409 . S
C2249 C2247 1.415 . S
C2250 H2240 0.930 . S
C2250 C2248 1.419 . S
C2250 C2251 1.362 . S
C2251 H2241 0.930 . S
C2251 C2244 1.409 . S
C2251 C2250 1.362 . S
H2252 C2258 0.930 . S
H2253 C2261 0.930 . S
H2254 C2262 0.930 . S
H2255 C2263 0.930 . S
H2256 C2266 0.930 . S
H2257 C2267 0.930 . S
C2258 H2252 0.930 . S
C2258 C2259 1.355 . S
C2258 C2260 1.415 . S
C2259 C2258 1.355 . S
C2259 C2261 1.419 . S
C2260 C2258 1.415 . S
C2260 C2265 1.425 . S
C2260 C2267 1.409 . S
C2261 H2253 0.930 . S
C2261 C2259 1.419 . S
C2261 C2262 1.362 . S
C2262 H2254 0.930 . S
C2262 C2261 1.362 . S
C2262 C2265 1.409 . S
C2263 H2255 0.930 . S
C2263 C2264 1.355 . S
C2263 C2265 1.415 . S
C2264 C2263 1.355 . S
C2264 C2266 1.419 . S
C2265 C2260 1.425 . S
C2265 C2262 1.409 . S
C2265 C2263 1.415 . S
C2266 H2256 0.930 . S
C2266 C2264 1.419 . S
C2266 C2267 1.362 . S
C2267 H2257 0.930 . S
C2267 C2260 1.409 . S
C2267 C2266 1.362 . S
C1411 C469 1.450 . S
C1416 C715 1.345 . S
C1427 C505 1.472 . S
C1432 C799 1.360 . S
C1443 C433 1.490 . S
C1448 C879 1.424 . S
C1459 C397 1.447 . S
C1464 C795 1.397 . S
C1480 C883 1.293 . S
C1475 C325 1.412 . S
C1491 C361 1.449 . S
C1496 C711 1.422 . S
C1512 C704 1.349 . S
C1507 C421 1.455 . S
C1528 C788 1.375 . S
C1523 C349 1.475 . S
C1539 C385 1.495 . S
C1544 C890 1.415 . S
C1555 C493 1.436 . S
C1560 C806 1.369 . S
C1571 C529 1.408 . S
C1576 C872 1.386 . S
C1592 C722 1.386 . S
C1587 C457 1.448 . S
C1608 C967 1.337 . S
C1603 C37 1.451 1_455 S
C1619 C73 1.472 . S
C1624 C1051 1.359 . S
C1635 C1 1.499 . S
C1640 C1131 1.457 . S
C1651 C613 1.443 . S
C1656 C1047 1.380 . S
C1667 C541 1.420 . S
C1672 C1135 1.367 . S
C1683 C577 1.441 . S
C1688 C963 1.399 . S
C1699 C637 1.465 . S
C1704 C956 1.336 . S
C1715 C565 1.479 . S
C1720 C1040 1.387 . S
C1736 C1142 1.475 . S
C1731 C601 1.504 . S
C1747 C61 1.435 . S
C1752 C1058 1.379 . S
C1768 C1124 1.304 . S
C1763 C97 1.418 1_455 S
C1779 C25 1.449 . S
C1784 C974 1.422 . S
C1800 C1219 1.423 . S
C1795 C253 1.460 . S
C1811 C289 1.476 . S
C1816 C1303 1.444 . S
C1832 C1383 1.401 . S
C1827 C217 1.483 . S
C1848 C1299 1.419 . S
C1843 C181 1.451 . S
C1864 C1387 1.293 . S
C1859 C109 1.412 1_655 S
C1875 C145 1.448 . S
C1880 C1215 1.420 . S
C1891 C205 1.449 1_655 S
C1896 C1208 1.381 . S
C1907 C133 1.478 . S
C1912 C1292 1.365 . S
C1928 C1394 1.458 . S
C1923 C169 1.488 . S
C1939 C277 1.439 . S
C1944 C1310 1.413 . S
C1955 C313 1.418 . S
C1960 C1376 1.304 . S
C1971 C241 1.429 . S
C1976 C1226 1.344 . S
C1987 C571 1.453 . S
C1992 C718 1.355 . S
C2008 C802 1.416 . S
C2003 C607 1.505 . S
C2019 C643 1.469 . S
C2024 C874 1.375 . S
C2035 C247 1.505 . S
C2040 C790 1.414 . S
C2051 C283 1.485 . S
C2056 C886 1.293 . S
C2072 C706 1.308 . S
C2067 C319 1.458 . S
C2083 C139 1.456 . S
C2088 C970 1.337 . S
C2099 C175 1.513 . S
C2104 C1054 1.338 . S
C2115 C211 1.473 . S
C2120 C1126 1.331 . S
C2131 C463 1.507 . S
C2136 C1042 1.418 . S
C2152 C1138 1.336 . S
C2147 C499 1.480 . S
C2163 C535 1.462 . S
C2168 C958 1.296 . S
C2179 C355 1.446 . S
C2184 C1222 1.385 . S
C2195 C391 1.514 . S
C2200 C1306 1.313 . S
C2216 C1378 1.293 . S
C2211 C427 1.480 . S
C2227 C31 1.509 . S
C2232 C1294 1.411 . S
C2243 C67 1.482 . S
C2248 C1390 1.322 . S
C2259 C103 1.466 . S
C2264 C1210 1.302 . S
