# Generated by pormake.
# Topology anh, (6,3)-cn, num edge types: 1
# Building blocks:
#     Node 0, Type 0, BuildingBlock: BETDIP_clean_sbu_0, # of connection points: 6
#     Node 1, Type 0, BuildingBlock: BETDIP_clean_sbu_0, # of connection points: 6
#     Node 2, Type 0, BuildingBlock: BETDIP_clean_sbu_0, # of connection points: 6
#     Node 3, Type 1, BuildingBlock: BETDAH_clean_linker_0, # of connection points: 3
#     Node 4, Type 1, BuildingBlock: BETDAH_clean_linker_0, # of connection points: 3
#     Node 5, Type 1, BuildingBlock: BETDAH_clean_linker_0, # of connection points: 3
#     Node 6, Type 1, BuildingBlock: BETDAH_clean_linker_0, # of connection points: 3
#     Node 7, Type 1, BuildingBlock: BETDAH_clean_linker_0, # of connection points: 3
#     Node 8, Type 1, BuildingBlock: BETDAH_clean_linker_0, # of connection points: 3
#     Edge 9, Type (0, 1), BuildingBlock: OJICUG_clean_linker_0, # of connection points: 2
#     Edge 10, Type (0, 1), BuildingBlock: OJICUG_clean_linker_0, # of connection points: 2
#     Edge 11, Type (0, 1), BuildingBlock: OJICUG_clean_linker_0, # of connection points: 2
#     Edge 12, Type (0, 1), BuildingBlock: OJICUG_clean_linker_0, # of connection points: 2
#     Edge 13, Type (0, 1), BuildingBlock: OJICUG_clean_linker_0, # of connection points: 2
#     Edge 14, Type (0, 1), BuildingBlock: OJICUG_clean_linker_0, # of connection points: 2
#     Edge 15, Type (0, 1), BuildingBlock: OJICUG_clean_linker_0, # of connection points: 2
#     Edge 16, Type (0, 1), BuildingBlock: OJICUG_clean_linker_0, # of connection points: 2
#     Edge 17, Type (0, 1), BuildingBlock: OJICUG_clean_linker_0, # of connection points: 2
#     Edge 18, Type (0, 1), BuildingBlock: OJICUG_clean_linker_0, # of connection points: 2
#     Edge 19, Type (0, 1), BuildingBlock: OJICUG_clean_linker_0, # of connection points: 2
#     Edge 20, Type (0, 1), BuildingBlock: OJICUG_clean_linker_0, # of connection points: 2
#     Edge 21, Type (0, 1), BuildingBlock: OJICUG_clean_linker_0, # of connection points: 2
#     Edge 22, Type (0, 1), BuildingBlock: OJICUG_clean_linker_0, # of connection points: 2
#     Edge 23, Type (0, 1), BuildingBlock: OJICUG_clean_linker_0, # of connection points: 2
#     Edge 24, Type (0, 1), BuildingBlock: OJICUG_clean_linker_0, # of connection points: 2
#     Edge 25, Type (0, 1), BuildingBlock: OJICUG_clean_linker_0, # of connection points: 2
#     Edge 26, Type (0, 1), BuildingBlock: OJICUG_clean_linker_0, # of connection points: 2
# Relax obj value: 0.383
# Max RMSD: 0.160
# Mean RMSD: 0.123
data_MOF--net-anh--node1-BETDIP_clean_sbu_0--node2-BETDAH_clean_linker_0--edge1-OJICUG_clean_linker_0
_symmetry_space_group_name_H-M    P1
_symmetry_Int_Tables_number       1
_symmetry_cell_setting            triclinic
loop_
_symmetry_equiv_pos_as_xyz
'x, y, z'
_cell_length_a     23.473031
_cell_length_b     23.436673
_cell_length_c     36.05007
_cell_angle_alpha  92.402024
_cell_angle_beta   91.978471
_cell_angle_gamma 119.8016
loop_
_atom_site_label
_atom_site_type_symbol
_atom_site_fract_x
_atom_site_fract_y
_atom_site_fract_z
_atom_type_partial_charge
Tb0 Tb 0.16753 0.73404 0.14641 0.0
Tb1 Tb 1.10767 0.59664 0.1371 0.0
C2 C 0.23465 0.8561 0.16198 0.0
C3 C 0.29843 0.90397 0.14942 0.0
C4 C 0.33008 0.88241 0.12523 0.0
C5 C 0.39523 0.9242 0.118 0.0
C6 C 0.43039 0.98897 0.13492 0.0
C7 C 0.39388 1.01312 0.15377 0.0
C8 C 0.32881 0.97038 0.16177 0.0
C9 C 0.1384 0.68469 0.07622 0.0
C10 C 0.26646 0.67025 0.13466 0.0
C11 C 1.03992 0.47932 0.11019 0.0
C12 C 1.00527 0.41349 0.12324 0.0
C13 C 0.98075 0.3592 0.09737 0.0
C14 C 0.95199 0.29571 0.10956 0.0
C15 C 0.9477 0.28611 0.14779 0.0
C16 C 0.97126 0.34098 0.17356 0.0
C17 C 0.99996 0.40439 0.16133 0.0
C18 C 0.13613 0.63476 0.20981 0.0
C19 C 1.01173 0.66328 0.13454 0.0
O20 O 0.23507 0.81237 0.18334 0.0
O21 O 0.18821 0.82909 0.13549 0.0
O22 O 0.16365 0.67014 0.10227 0.0
O23 O 1.12851 0.73105 0.08888 0.0
O24 O 0.26112 0.72351 0.14504 0.0
O25 O 0.20967 0.61409 0.12711 0.0
O26 O 1.01555 0.51731 0.11806 0.0
O27 O 1.10352 0.50989 0.1164 0.0
O28 O 1.11585 0.66049 0.18595 0.0
O29 O 0.13262 0.58286 0.19353 0.0
O30 O 1.02138 0.61398 0.12225 0.0
O31 O 1.06403 0.71506 0.15207 0.0
H32 H 0.30565 0.83195 0.11357 0.0
H33 H 0.41819 0.90241 0.10181 0.0
H34 H 0.41608 1.06359 0.16488 0.0
H35 H 0.3034 0.98849 0.17894 0.0
H36 H 0.9848 0.36602 0.06782 0.0
H37 H 0.93322 0.25422 0.08914 0.0
H38 H 0.96902 0.33502 0.2032 0.0
H39 H 1.0192 0.44629 0.18152 0.0
Tb40 Tb 0.66734 0.09781 0.49859 0.0
Tb41 Tb 0.59748 0.15087 0.46304 0.0
C42 C 0.70841 1.05236 0.54819 0.0
C43 C 0.72169 0.99846 0.5527 0.0
C44 C 0.73789 0.98805 0.5885 0.0
C45 C 0.76991 0.952 0.5932 0.0
C46 C 0.78665 0.92656 0.56206 0.0
C47 C 0.76503 0.93227 0.52626 0.0
C48 C 0.73253 0.96791 0.52161 0.0
C49 C 0.67129 1.08515 0.42692 0.0
C50 C 0.5073 0.9952 0.47064 0.0
C51 C 0.55718 0.20944 0.42227 0.0
C52 C 0.58155 0.28058 0.42066 0.0
C53 C 0.64194 0.32156 0.4054 0.0
C54 C 0.67679 0.3888 0.41596 0.0
C55 C 0.65186 0.41555 0.44202 0.0
C56 C 0.58691 0.37645 0.45225 0.0
C57 C 0.55179 0.30948 0.44136 0.0
C58 C 0.60422 0.16279 0.53834 0.0
C59 C 0.75807 0.24893 0.47381 0.0
O60 O 0.64723 1.03861 0.54438 0.0
O61 O 0.74546 0.0947 0.52511 0.0
O62 O 0.62197 1.07835 0.44359 0.0
O63 O 0.71666 0.09122 0.45076 0.0
O64 O 0.56139 1.00481 0.49125 0.0
O65 O 0.51333 1.04739 0.45399 0.0
O66 O 0.59693 0.18881 0.41147 0.0
O67 O 0.53113 0.18457 0.4533 0.0
O68 O 0.64892 0.17237 0.51716 0.0
O69 O 0.55261 0.14843 0.51713 0.0
O70 O 0.70092 0.23734 0.45739 0.0
O71 O 0.75507 0.20178 0.49497 0.0
H72 H 0.72992 1.01158 0.61272 0.0
H73 H 0.78427 0.94668 0.62115 0.0
H74 H 0.77709 0.91315 0.50174 0.0
H75 H 0.72059 0.97599 0.49372 0.0
H76 H 0.66534 0.30102 0.38833 0.0
H77 H 0.72587 0.41841 0.40663 0.0
H78 H 0.56577 0.39543 0.47208 0.0
H79 H 0.50448 0.27923 0.45266 0.0
Tb80 Tb 0.58555 0.62094 0.81045 0.0
Tb81 Tb 0.72399 0.69602 0.80381 0.0
C82 C 0.47313 0.57151 0.83332 0.0
C83 C 0.40674 0.5423 0.84669 0.0
C84 C 0.39793 0.53883 0.88497 0.0
C85 C 0.33497 0.50303 0.89765 0.0
C86 C 0.27982 0.47027 0.87223 0.0
C87 C 0.28867 0.47606 0.83394 0.0
C88 C 0.35164 0.51168 0.82128 0.0
C89 C 0.62031 0.62848 0.7419 0.0
C90 C 0.65204 0.78321 0.80054 0.0
C91 C 0.83894 0.73913 0.78352 0.0
C92 C 0.87662 0.70548 0.77664 0.0
C93 C 0.84897 0.64593 0.75441 0.0
C94 C 0.87473 0.60387 0.7577 0.0
C95 C 0.92773 0.62056 0.78349 0.0
C96 C 0.96049 0.68408 0.80168 0.0
C97 C 0.93513 0.72625 0.79817 0.0
C98 C 0.69108 0.6873 0.87463 0.0
C99 C 0.65348 0.53168 0.79898 0.0
O100 O 0.52619 0.60658 0.85535 0.0
O101 O 0.48358 0.56656 0.79826 0.0
O102 O 0.64321 0.67402 0.76726 0.0
O103 O 0.5735 0.57541 0.75434 0.0
O104 O 0.59904 0.72571 0.80836 0.0
O105 O 0.70782 0.78216 0.79583 0.0
O106 O 0.7881 0.72233 0.76059 0.0
O107 O 0.82528 0.74216 0.81813 0.0
O108 O 0.66622 0.64115 0.84897 0.0
O109 O 0.73625 0.73948 0.86053 0.0
O110 O 0.70558 0.59037 0.79247 0.0
O111 O 0.60064 0.53271 0.81094 0.0
H112 H 0.43978 0.56167 0.90511 0.0
H113 H 0.32971 0.49924 0.92731 0.0
H114 H 0.24696 0.45265 0.81374 0.0
H115 H 0.35723 0.51382 0.79158 0.0
H116 H 0.8043 0.62913 0.73695 0.0
H117 H 0.84969 0.55593 0.74264 0.0
H118 H 1.0014 0.6987 0.82186 0.0
H119 H 0.95749 0.77223 0.81523 0.0
H120 H 0.60441 1.03201 0.25626 0.0
H121 H 0.74588 0.97248 0.28364 0.0
H122 H 0.70563 0.99378 0.16991 0.0
C123 C 0.63865 1.01673 0.24737 0.0
C124 C 0.64949 1.01368 0.2094 0.0
C125 C 0.67348 1.00281 0.27441 0.0
C126 C 0.717 0.98156 0.26311 0.0
C127 C 0.72821 0.97797 0.22548 0.0
C128 C 0.69416 0.99373 0.19875 0.0
N129 N 0.78369 0.97351 0.21554 0.0
C130 C 0.832 1.02753 0.19928 0.0
H131 H 0.70409 0.56328 0.5874 0.0
H132 H 0.86955 0.72159 0.65115 0.0
H133 H 0.8937 0.66224 0.54141 0.0
C134 C 0.75619 0.59923 0.5905 0.0
C135 C 0.79614 0.60689 0.56092 0.0
C136 C 0.78232 0.63975 0.62336 0.0
C137 C 0.84938 0.68752 0.6267 0.0
C138 C 0.88987 0.69498 0.5974 0.0
C139 C 0.86331 0.65375 0.56483 0.0
N140 N 0.95003 0.75442 0.59631 0.0
C141 C 0.94396 0.80788 0.58706 0.0
H142 H 1.00113 0.56434 0.91694 0.0
H143 H 0.99229 0.40996 0.98136 0.0
H144 H 0.92662 0.36949 0.86573 0.0
C145 C 0.98689 0.51304 0.91942 0.0
C146 C 0.9608 0.46884 0.88786 0.0
C147 C 0.99777 0.49246 0.95352 0.0
C148 C 0.98132 0.42628 0.95577 0.0
C149 C 0.95518 0.38176 0.92426 0.0
C150 C 0.94383 0.40296 0.89047 0.0
N151 N 0.95714 0.32254 0.92404 0.0
C152 C 1.01731 0.3284 0.91698 0.0
H153 H 0.25798 0.75863 0.37386 0.0
H154 H 1.07761 0.57584 0.38451 0.0
H155 H 0.20324 0.68542 0.48272 0.0
C156 C 0.22418 0.72296 0.39188 0.0
C157 C 0.24122 0.73307 0.43086 0.0
C158 C 0.16659 0.66706 0.37482 0.0
C159 C 1.12159 0.61786 0.39751 0.0
C160 C 1.13207 0.62221 0.43666 0.0
C161 C 0.19344 0.68053 0.45286 0.0
N162 N 1.08363 0.57061 0.46004 0.0
C163 C 1.01995 0.50878 0.45396 0.0
H164 H 0.6362 0.28704 0.70225 0.0
H165 H 0.63594 0.10373 0.71159 0.0
H166 H 0.65248 0.22349 0.81098 0.0
C167 C 0.6387 0.25204 0.71999 0.0
C168 C 0.6457 0.26627 0.75907 0.0
C169 C 0.63466 0.19422 0.70273 0.0
C170 C 0.63868 0.1473 0.72504 0.0
C171 C 0.64458 0.15521 0.76438 0.0
C172 C 0.64757 0.21559 0.78098 0.0
N173 N 0.6475 0.10522 0.78767 0.0
C174 C 0.64604 1.04207 0.78116 0.0
H175 H 0.77784 0.66332 0.03773 0.0
H176 H 0.59702 0.66802 0.0458 0.0
H177 H 0.70538 0.66741 0.1458 0.0
C178 C 0.74151 0.66402 0.05522 0.0
C179 C 0.75128 0.66404 0.09424 0.0
C180 C 0.68724 0.6659 0.03763 0.0
C181 C 0.638 0.66654 0.05953 0.0
C182 C 0.64231 0.66757 0.09889 0.0
C183 C 0.70044 0.66683 0.11582 0.0
N184 N 0.59133 0.66983 0.12188 0.0
C185 C 0.52958 0.67112 0.11539 0.0
C186 C 0.33878 0.61499 0.11756 0.0
C187 C 0.33525 0.67227 0.12931 0.0
H188 H 0.39698 0.56868 0.10399 0.0
C189 C 0.3989 0.72986 0.13532 0.0
H190 H 0.29328 0.56868 0.11225 0.0
C191 C 0.4602 0.72978 0.13025 0.0
C192 C 0.46338 0.67231 0.11851 0.0
H193 H 0.4018 0.77596 0.14425 0.0
H194 H 0.50592 0.77576 0.13599 0.0
C195 C 0.39988 0.61495 0.1125 0.0
C196 C 0.83023 0.3669 0.44609 0.0
C197 C 0.82581 0.31584 0.46842 0.0
H198 H 0.88907 0.46333 0.42399 0.0
C199 C 0.88839 0.33084 0.48499 0.0
H200 H 0.78561 0.36022 0.43215 0.0
C201 C 0.94944 0.39126 0.47987 0.0
C202 C 0.95374 0.44229 0.45764 0.0
H203 H 0.8906 0.29538 0.50239 0.0
H204 H 0.99412 0.39805 0.4939 0.0
C205 C 0.89127 0.42749 0.44108 0.0
C206 C 0.70506 0.90953 0.78589 0.0
C207 C 0.64928 0.84939 0.79518 0.0
H208 H 0.74882 1.01303 0.77423 0.0
C209 C 0.59177 0.85505 0.79869 0.0
H210 H 0.75114 0.91039 0.78261 0.0
C211 C 0.59042 0.91557 0.79355 0.0
C212 C 0.6463 0.97557 0.78424 0.0
H213 H 0.54686 0.81216 0.80568 0.0
H214 H 0.54469 0.91522 0.79728 0.0
C215 C 0.70369 0.96991 0.78076 0.0
C216 C 0.9267 0.70752 0.14392 0.0
C217 C 0.94318 0.66168 0.12678 0.0
H218 H 0.85786 0.74435 0.14941 0.0
C219 C 0.89237 0.61484 0.10091 0.0
H220 H 0.96224 0.7453 0.16394 0.0
C221 C 0.83166 0.61481 0.09216 0.0
C222 C 0.81487 0.6605 0.10903 0.0
H223 H 0.90005 0.57815 0.08629 0.0
H224 H 0.79728 0.57822 0.07122 0.0
C225 C 0.86502 0.70667 0.13564 0.0
C226 C 0.42044 0.86615 0.48087 0.0
C227 C 0.43928 0.92639 0.46329 0.0
H228 H 0.34806 0.76217 0.48657 0.0
C229 C 0.38929 0.92031 0.43707 0.0
H230 H 0.45478 0.86542 0.50139 0.0
C231 C 0.32741 0.86037 0.42842 0.0
C232 C 0.30807 0.79975 0.4453 0.0
H233 H 0.3981 0.96291 0.42226 0.0
H234 H 0.29388 0.86203 0.4077 0.0
C235 C 0.35731 0.80547 0.47238 0.0
C236 C 0.69713 0.45731 0.76719 0.0
C237 C 0.65355 0.46378 0.79133 0.0
H238 H 0.72971 0.39589 0.73892 0.0
C239 C 0.6091 0.40291 0.8067 0.0
H240 H 0.7319 0.50027 0.75369 0.0
C241 C 0.60854 0.34118 0.79857 0.0
C242 C 0.65159 0.33476 0.77379 0.0
H243 H 0.57367 0.40255 0.82526 0.0
H244 H 0.57214 0.2975 0.81094 0.0
C245 C 0.69571 0.3957 0.75852 0.0
C246 C 0.8848 0.92846 0.59308 0.0
C247 C 0.83048 0.89855 0.56682 0.0
H248 H 0.96507 0.92313 0.61982 0.0
C249 C 0.81908 0.84246 0.54493 0.0
H250 H 0.89561 0.97254 0.60983 0.0
C251 C 0.85987 0.81565 0.55007 0.0
C252 C 0.91256 0.84453 0.57702 0.0
H253 H 0.77744 0.81804 0.52473 0.0
H254 H 0.84843 0.77057 0.5341 0.0
C255 C 0.92533 0.90125 0.59834 0.0
C256 C 0.88403 0.51001 0.80858 0.0
C257 C 0.93862 0.56871 0.79856 0.0
H258 H 0.84881 0.43137 0.84528 0.0
C259 C 1.00199 0.58401 0.81167 0.0
H260 H 0.83445 0.49682 0.79915 0.0
C261 C 1.00981 0.5471 0.83862 0.0
C262 C 0.95446 0.49375 0.85213 0.0
H263 H 1.04496 0.62816 0.80388 0.0
H264 H 1.05859 0.56338 0.85109 0.0
C265 C 0.892 0.47264 0.83524 0.0
C266 C 0.53593 1.06952 0.17157 0.0
C267 C 0.5039 1.02216 0.14144 0.0
H268 H 0.60996 0.10626 0.21609 0.0
C269 C 0.53867 0.99312 0.12589 0.0
H270 H 0.51596 0.09853 0.18318 0.0
C271 C 0.59074 0.99442 0.1465 0.0
C272 C 0.61229 1.02953 0.18139 0.0
H273 H 0.52156 0.96274 0.10012 0.0
H274 H 0.60914 0.9628 0.13657 0.0
C275 C 0.59005 1.07345 0.19117 0.0
C276 C 0.75806 0.48633 0.47891 0.0
C277 C 0.69686 0.47669 0.46499 0.0
H278 H 0.83746 0.53536 0.52059 0.0
C279 C 0.67414 0.51789 0.47928 0.0
H280 H 0.77673 0.45496 0.46895 0.0
C281 C 0.70847 0.56298 0.5094 0.0
C282 C 0.76637 0.56805 0.52537 0.0
H283 H 0.62777 0.51235 0.46872 0.0
H284 H 0.68826 0.59184 0.52127 0.0
C285 C 0.79267 0.53189 0.5088 0.0
C286 C 0.16793 0.369 0.86696 0.0
C287 C 0.21328 0.42997 0.88559 0.0
H288 H 1.06878 0.2875 0.8629 0.0
C289 C 0.19419 0.45291 0.9167 0.0
H290 H 0.1816 0.34972 0.84318 0.0
C291 C 1.13057 0.41661 0.92829 0.0
C292 C 1.08513 0.35702 0.90901 0.0
H293 H 0.22758 0.50007 0.93127 0.0
H294 H 1.11604 0.43659 0.95136 0.0
C295 C 1.10394 0.33289 0.87849 0.0
C296 C 0.87651 0.20129 0.19001 0.0
C297 C 0.91915 0.21919 0.16095 0.0
H298 H 0.81664 0.12573 0.22518 0.0
C299 C 0.93467 0.17309 0.145 0.0
H300 H 0.86271 0.23529 0.20233 0.0
C301 C 0.90768 0.10995 0.15795 0.0
C302 C 0.86558 0.09299 0.18707 0.0
H303 H 0.9679 0.18597 0.12274 0.0
H304 H 0.9191 1.07452 0.1451 0.0
C305 C 0.85018 0.13874 0.20302 0.0
C306 C 1.12012 0.5899 0.03435 0.0
C307 C 1.10429 0.63904 0.04337 0.0
H308 H 1.09894 0.50525 -0.0008 0.0
C309 C 1.05285 0.63984 0.02291 0.0
H310 H 0.15969 0.58823 0.04973 0.0
C311 C 1.0174 0.59161 -0.006 0.0
C312 C 1.03284 0.54188 0.98525 0.0
H313 H 1.03917 0.6767 0.02972 0.0
H314 H 0.97743 0.59274 0.97877 0.0
C315 C 1.08479 0.54184 0.00568 0.0
C316 C 0.72934 1.07739 0.37277 0.0
C317 C 0.66999 1.06423 0.38779 0.0
H318 H 0.77685 1.06856 0.32528 0.0
C319 C 0.61087 1.02865 0.36583 0.0
H320 H 0.77566 0.10509 0.38915 0.0
C321 C 0.61136 1.00633 0.32928 0.0
C322 C 0.67103 1.01979 0.31417 0.0
H323 H 0.56442 1.0174 0.37701 0.0
H324 H 0.56516 0.97874 0.31281 0.0
C325 C 0.72992 1.05564 0.33636 0.0
C326 C 0.65244 0.57196 0.69383 0.0
C327 C 0.65584 0.62983 0.70891 0.0
H328 H 0.69116 0.53004 0.65513 0.0
C329 C 0.6985 0.69032 0.69455 0.0
H330 H 0.62013 0.52477 0.70467 0.0
C331 C 0.73963 0.69347 0.66674 0.0
C332 C 0.73817 0.63601 0.65256 0.0
H333 H 0.70148 0.73547 0.70568 0.0
H334 H 0.77267 0.74086 0.65634 0.0
C335 C 0.69332 0.57503 0.66579 0.0
C336 C 0.5649 0.17553 0.60165 0.0
C337 C 0.61116 0.16941 0.58046 0.0
H338 H 0.53645 0.18908 0.65612 0.0
C339 C 0.66464 0.17005 0.6001 0.0
H340 H 0.52319 0.17545 0.58778 0.0
C341 C 0.67122 0.1759 0.63947 0.0
C342 C 0.62565 0.18341 0.66062 0.0
H343 H 0.70159 0.16585 0.58498 0.0
H344 H 0.71303 0.17622 0.65338 0.0
C345 C 0.57253 0.18335 0.64096 0.0
C346 C 0.63408 0.62771 0.93233 0.0
C347 C 0.68767 0.67987 0.91621 0.0
H348 H 0.59061 0.58307 0.98293 0.0
C349 C 0.73962 0.72713 0.94064 0.0
H350 H 0.59314 0.5902 0.9147 0.0
C351 C 0.73882 0.72224 0.97947 0.0
C352 C 0.68524 0.67084 -0.00422 0.0
H353 H 0.78194 0.76799 0.92969 0.0
H354 H 0.78043 0.75932 -0.00306 0.0
C355 C 0.63249 0.62377 0.97156 0.0
C356 C 1.12819 0.59096 0.27371 0.0
C357 C 0.13931 0.64397 0.25197 0.0
H358 H 1.12683 0.55593 0.32805 0.0
C359 C 0.15744 0.70476 0.27128 0.0
H360 H 1.11441 0.54326 0.26029 0.0
C361 C 0.16578 0.71236 0.31079 0.0
C362 C 0.15494 0.6591 0.33246 0.0
H363 H 0.16702 0.74698 0.25585 0.0
H364 H 0.18082 0.76021 0.32442 0.0
C365 C 0.13511 0.59812 0.31296 0.0
loop_
_geom_bond_atom_site_label_1
_geom_bond_atom_site_label_2
_geom_bond_distance
_geom_bond_site_symmetry_2
_ccdc_geom_bond_type
Tb0 C2 2.809 . S
Tb0 O20 2.484 . S
Tb0 O21 2.440 . S
Tb0 O22 2.658 1_455 S
Tb0 O23 2.409 . S
Tb0 O24 2.378 . S
Tb0 O28 2.325 . S
Tb0 O31 2.341 1_455 S
Tb1 C11 2.809 . S
Tb1 O22 2.325 . S
Tb1 O25 2.341 1_655 S
Tb1 O26 2.484 . S
Tb1 O27 2.440 . S
Tb1 O28 2.658 1_655 S
Tb1 O29 2.409 . S
Tb1 O30 2.378 . S
C2 Tb0 2.809 . S
C2 C3 1.514 . S
C2 O20 1.248 . S
C2 O21 1.266 . S
C3 C2 1.514 . S
C3 C4 1.359 . S
C3 C8 1.348 . S
C4 C3 1.359 . S
C4 C5 1.380 . S
C4 H32 0.929 . S
C5 C4 1.380 . S
C5 C6 1.347 . S
C5 H33 0.931 . S
C6 C5 1.347 . S
C6 C7 1.369 . S
C7 C6 1.369 . S
C7 C8 1.408 . S
C7 H34 0.930 . S
C8 C3 1.348 . S
C8 C7 1.408 . S
C8 H35 0.930 . S
C9 O22 1.281 1_455 S
C9 O23 1.254 . S
C10 O24 1.236 . S
C10 O25 1.266 . S
C11 Tb1 2.809 . S
C11 C12 1.514 . S
C11 O26 1.248 . S
C11 O27 1.266 . S
C12 C11 1.514 . S
C12 C13 1.359 . S
C12 C17 1.348 . S
C13 C12 1.359 . S
C13 C14 1.380 . S
C13 H36 0.929 . S
C14 C13 1.380 . S
C14 C15 1.347 . S
C14 H37 0.931 . S
C15 C14 1.347 . S
C15 C16 1.369 . S
C16 C15 1.369 . S
C16 C17 1.408 . S
C16 H38 0.930 . S
C17 C12 1.348 . S
C17 C16 1.408 . S
C17 H39 0.930 . S
C18 O28 1.281 . S
C18 O29 1.254 1_455 S
C19 O30 1.236 . S
C19 O31 1.266 . S
O20 Tb0 2.484 . S
O20 C2 1.248 . S
O21 Tb0 2.440 . S
O21 C2 1.266 . S
O22 Tb0 2.658 1_655 S
O22 Tb1 2.325 . S
O22 C9 1.281 1_655 S
O23 Tb0 2.409 . S
O23 C9 1.254 . S
O24 Tb0 2.378 . S
O24 C10 1.236 . S
O25 Tb1 2.341 1_455 S
O25 C10 1.266 . S
O26 Tb1 2.484 . S
O26 C11 1.248 . S
O27 Tb1 2.440 . S
O27 C11 1.266 . S
O28 Tb0 2.325 . S
O28 Tb1 2.658 1_455 S
O28 C18 1.281 . S
O29 Tb1 2.409 . S
O29 C18 1.254 1_655 S
O30 Tb1 2.378 . S
O30 C19 1.236 . S
O31 Tb0 2.341 1_655 S
O31 C19 1.266 . S
H32 C4 0.929 . S
H33 C5 0.931 . S
H34 C7 0.930 . S
H35 C8 0.930 . S
H36 C13 0.929 . S
H37 C14 0.931 . S
H38 C16 0.930 . S
H39 C17 0.930 . S
Tb40 C42 2.809 . S
Tb40 O60 2.484 . S
Tb40 O61 2.440 . S
Tb40 O62 2.658 1_565 S
Tb40 O63 2.409 1_565 S
Tb40 O64 2.378 . S
Tb40 O68 2.325 1_565 S
Tb40 O71 2.341 1_565 S
Tb41 C51 2.809 . S
Tb41 O62 2.325 . S
Tb41 O65 2.341 1_545 S
Tb41 O66 2.484 . S
Tb41 O67 2.440 . S
Tb41 O68 2.658 . S
Tb41 O69 2.409 . S
Tb41 O70 2.378 . S
C42 Tb40 2.809 . S
C42 C43 1.514 . S
C42 O60 1.248 . S
C42 O61 1.266 . S
C43 C42 1.514 . S
C43 C44 1.359 . S
C43 C48 1.348 . S
C44 C43 1.359 . S
C44 C45 1.380 . S
C44 H72 0.929 . S
C45 C44 1.380 . S
C45 C46 1.347 . S
C45 H73 0.931 . S
C46 C45 1.347 . S
C46 C47 1.369 . S
C47 C46 1.369 . S
C47 C48 1.408 . S
C47 H74 0.930 . S
C48 C43 1.348 . S
C48 C47 1.408 . S
C48 H75 0.930 . S
C49 O62 1.281 . S
C49 O63 1.254 . S
C50 O64 1.236 . S
C50 O65 1.266 . S
C51 Tb41 2.809 . S
C51 C52 1.514 . S
C51 O66 1.248 . S
C51 O67 1.266 . S
C52 C51 1.514 . S
C52 C53 1.359 . S
C52 C57 1.348 . S
C53 C52 1.359 . S
C53 C54 1.380 . S
C53 H76 0.929 . S
C54 C53 1.380 . S
C54 C55 1.347 . S
C54 H77 0.931 . S
C55 C54 1.347 . S
C55 C56 1.369 . S
C56 C55 1.369 . S
C56 C57 1.408 . S
C56 H78 0.930 . S
C57 C52 1.348 . S
C57 C56 1.408 . S
C57 H79 0.930 . S
C58 O68 1.281 . S
C58 O69 1.254 . S
C59 O70 1.236 . S
C59 O71 1.266 . S
O60 Tb40 2.484 . S
O60 C42 1.248 . S
O61 Tb40 2.440 . S
O61 C42 1.266 . S
O62 Tb40 2.658 1_545 S
O62 Tb41 2.325 . S
O62 C49 1.281 . S
O63 Tb40 2.409 1_545 S
O63 C49 1.254 . S
O64 Tb40 2.378 . S
O64 C50 1.236 . S
O65 Tb41 2.341 1_565 S
O65 C50 1.266 . S
O66 Tb41 2.484 . S
O66 C51 1.248 . S
O67 Tb41 2.440 . S
O67 C51 1.266 . S
O68 Tb40 2.325 1_545 S
O68 Tb41 2.658 . S
O68 C58 1.281 . S
O69 Tb41 2.409 . S
O69 C58 1.254 . S
O70 Tb41 2.378 . S
O70 C59 1.236 . S
O71 Tb40 2.341 1_545 S
O71 C59 1.266 . S
H72 C44 0.929 . S
H73 C45 0.931 . S
H74 C47 0.930 . S
H75 C48 0.930 . S
H76 C53 0.929 . S
H77 C54 0.931 . S
H78 C56 0.930 . S
H79 C57 0.930 . S
Tb80 C82 2.809 . S
Tb80 O100 2.484 . S
Tb80 O101 2.440 . S
Tb80 O102 2.658 . S
Tb80 O103 2.409 . S
Tb80 O104 2.378 . S
Tb80 O108 2.325 . S
Tb80 O111 2.341 . S
Tb81 C91 2.809 . S
Tb81 O102 2.325 . S
Tb81 O105 2.341 . S
Tb81 O106 2.484 . S
Tb81 O107 2.440 . S
Tb81 O108 2.658 . S
Tb81 O109 2.409 . S
Tb81 O110 2.378 . S
C82 Tb80 2.809 . S
C82 C83 1.514 . S
C82 O100 1.248 . S
C82 O101 1.266 . S
C83 C82 1.514 . S
C83 C84 1.359 . S
C83 C88 1.348 . S
C84 C83 1.359 . S
C84 C85 1.380 . S
C84 H112 0.929 . S
C85 C84 1.380 . S
C85 C86 1.347 . S
C85 H113 0.931 . S
C86 C85 1.347 . S
C86 C87 1.369 . S
C87 C86 1.369 . S
C87 C88 1.408 . S
C87 H114 0.930 . S
C88 C83 1.348 . S
C88 C87 1.408 . S
C88 H115 0.930 . S
C89 O102 1.281 . S
C89 O103 1.254 . S
C90 O104 1.236 . S
C90 O105 1.266 . S
C91 Tb81 2.809 . S
C91 C92 1.514 . S
C91 O106 1.248 . S
C91 O107 1.266 . S
C92 C91 1.514 . S
C92 C93 1.359 . S
C92 C97 1.348 . S
C93 C92 1.359 . S
C93 C94 1.380 . S
C93 H116 0.929 . S
C94 C93 1.380 . S
C94 C95 1.347 . S
C94 H117 0.931 . S
C95 C94 1.347 . S
C95 C96 1.369 . S
C96 C95 1.369 . S
C96 C97 1.408 . S
C96 H118 0.930 . S
C97 C92 1.348 . S
C97 C96 1.408 . S
C97 H119 0.930 . S
C98 O108 1.281 . S
C98 O109 1.254 . S
C99 O110 1.236 . S
C99 O111 1.266 . S
O100 Tb80 2.484 . S
O100 C82 1.248 . S
O101 Tb80 2.440 . S
O101 C82 1.266 . S
O102 Tb80 2.658 . S
O102 Tb81 2.325 . S
O102 C89 1.281 . S
O103 Tb80 2.409 . S
O103 C89 1.254 . S
O104 Tb80 2.378 . S
O104 C90 1.236 . S
O105 Tb81 2.341 . S
O105 C90 1.266 . S
O106 Tb81 2.484 . S
O106 C91 1.248 . S
O107 Tb81 2.440 . S
O107 C91 1.266 . S
O108 Tb80 2.325 . S
O108 Tb81 2.658 . S
O108 C98 1.281 . S
O109 Tb81 2.409 . S
O109 C98 1.254 . S
O110 Tb81 2.378 . S
O110 C99 1.236 . S
O111 Tb80 2.341 . S
O111 C99 1.266 . S
H112 C84 0.929 . S
H113 C85 0.931 . S
H114 C87 0.930 . S
H115 C88 0.930 . S
H116 C93 0.929 . S
H117 C94 0.931 . S
H118 C96 0.930 . S
H119 C97 0.930 . S
H120 C123 0.929 . S
H121 C126 0.929 . S
H122 C128 0.930 . S
C123 H120 0.929 . S
C123 C124 1.398 . S
C123 C125 1.396 1_565 S
C124 C123 1.398 . S
C124 C128 1.407 1_565 S
C125 C123 1.396 1_545 S
C125 C126 1.394 . S
C126 H121 0.929 . S
C126 C125 1.394 . S
C126 C127 1.382 . S
C127 C126 1.382 . S
C127 C128 1.392 . S
C127 N129 1.420 . S
C128 H122 0.930 . S
C128 C124 1.407 1_545 S
C128 C127 1.392 . S
N129 C127 1.420 . S
N129 C130 1.244 . S
C130 N129 1.244 . S
H131 C134 0.929 . S
H132 C137 0.929 . S
H133 C139 0.930 . S
C134 H131 0.929 . S
C134 C135 1.398 . S
C134 C136 1.396 . S
C135 C134 1.398 . S
C135 C139 1.407 . S
C136 C134 1.396 . S
C136 C137 1.394 . S
C137 H132 0.929 . S
C137 C136 1.394 . S
C137 C138 1.382 . S
C138 C137 1.382 . S
C138 C139 1.392 . S
C138 N140 1.420 . S
C139 H133 0.930 . S
C139 C135 1.407 . S
C139 C138 1.392 . S
N140 C138 1.420 . S
N140 C141 1.244 . S
C141 N140 1.244 . S
H142 C145 0.929 . S
H143 C148 0.929 . S
H144 C150 0.930 . S
C145 H142 0.929 . S
C145 C146 1.398 . S
C145 C147 1.396 . S
C146 C145 1.398 . S
C146 C150 1.407 . S
C147 C145 1.396 . S
C147 C148 1.394 1_655 S
C148 H143 0.929 . S
C148 C147 1.394 1_455 S
C148 C149 1.382 . S
C149 C148 1.382 . S
C149 C150 1.392 1_455 S
C149 N151 1.420 . S
C150 H144 0.930 . S
C150 C146 1.407 . S
C150 C149 1.392 1_655 S
N151 C149 1.420 . S
N151 C152 1.244 . S
C152 N151 1.244 . S
H153 C156 0.929 . S
H154 C159 0.929 1_655 S
H155 C161 0.930 . S
C156 H153 0.929 . S
C156 C157 1.398 . S
C156 C158 1.396 . S
C157 C156 1.398 . S
C157 C161 1.407 . S
C158 C156 1.396 . S
C158 C159 1.394 . S
C159 H154 0.929 1_455 S
C159 C158 1.394 . S
C159 C160 1.382 . S
C160 C159 1.382 . S
C160 C161 1.392 . S
C160 N162 1.420 1_455 S
C161 H155 0.930 . S
C161 C157 1.407 . S
C161 C160 1.392 . S
N162 C160 1.420 1_655 S
N162 C163 1.244 . S
C163 N162 1.244 . S
H164 C167 0.929 . S
H165 C170 0.929 . S
H166 C172 0.930 . S
C167 H164 0.929 . S
C167 C168 1.398 . S
C167 C169 1.396 . S
C168 C167 1.398 . S
C168 C172 1.407 . S
C169 C167 1.396 . S
C169 C170 1.394 1_545 S
C170 H165 0.929 . S
C170 C169 1.394 1_565 S
C170 C171 1.382 1_565 S
C171 C170 1.382 1_545 S
C171 C172 1.392 . S
C171 N173 1.420 1_545 S
C172 H166 0.930 . S
C172 C168 1.407 . S
C172 C171 1.392 . S
N173 C171 1.420 1_565 S
N173 C174 1.244 . S
C174 N173 1.244 . S
H175 C178 0.929 . S
H176 C181 0.929 . S
H177 C183 0.930 . S
C178 H175 0.929 . S
C178 C179 1.398 . S
C178 C180 1.396 . S
C179 C178 1.398 . S
C179 C183 1.407 . S
C180 C178 1.396 . S
C180 C181 1.394 . S
C181 H176 0.929 . S
C181 C180 1.394 . S
C181 C182 1.382 . S
C182 C181 1.382 . S
C182 C183 1.392 . S
C182 N184 1.420 . S
C183 H177 0.930 . S
C183 C179 1.407 . S
C183 C182 1.392 . S
N184 C182 1.420 . S
N184 C185 1.244 . S
C185 N184 1.244 . S
C186 C187 1.387 . S
C186 H190 0.950 . S
C186 C195 1.390 . S
C187 C186 1.387 . S
C187 C189 1.387 . S
H188 C195 0.950 . S
C189 C187 1.387 . S
C189 C191 1.390 . S
C189 H193 0.950 . S
H190 C186 0.950 . S
C191 C189 1.390 . S
C191 C192 1.387 . S
C191 H194 0.950 . S
C192 C191 1.387 . S
C192 C195 1.387 . S
H193 C189 0.950 . S
H194 C191 0.950 . S
C195 C186 1.390 . S
C195 H188 0.950 . S
C195 C192 1.387 . S
C196 C197 1.387 . S
C196 H200 0.950 . S
C196 C205 1.390 . S
C197 C196 1.387 . S
C197 C199 1.387 . S
H198 C205 0.950 . S
C199 C197 1.387 . S
C199 C201 1.390 . S
C199 H203 0.950 . S
H200 C196 0.950 . S
C201 C199 1.390 . S
C201 C202 1.387 . S
C201 H204 0.950 . S
C202 C201 1.387 . S
C202 C205 1.387 . S
H203 C199 0.950 . S
H204 C201 0.950 . S
C205 C196 1.390 . S
C205 H198 0.950 . S
C205 C202 1.387 . S
C206 C207 1.387 . S
C206 H210 0.950 . S
C206 C215 1.390 . S
C207 C206 1.387 . S
C207 C209 1.387 . S
H208 C215 0.950 . S
C209 C207 1.387 . S
C209 C211 1.390 . S
C209 H213 0.950 . S
H210 C206 0.950 . S
C211 C209 1.390 . S
C211 C212 1.387 . S
C211 H214 0.950 . S
C212 C211 1.387 . S
C212 C215 1.387 . S
H213 C209 0.950 . S
H214 C211 0.950 . S
C215 C206 1.390 . S
C215 H208 0.950 . S
C215 C212 1.387 . S
C216 C217 1.387 . S
C216 H220 0.950 . S
C216 C225 1.390 . S
C217 C216 1.387 . S
C217 C219 1.387 . S
H218 C225 0.950 . S
C219 C217 1.387 . S
C219 C221 1.390 . S
C219 H223 0.950 . S
H220 C216 0.950 . S
C221 C219 1.390 . S
C221 C222 1.387 . S
C221 H224 0.950 . S
C222 C221 1.387 . S
C222 C225 1.387 . S
H223 C219 0.950 . S
H224 C221 0.950 . S
C225 C216 1.390 . S
C225 H218 0.950 . S
C225 C222 1.387 . S
C226 C227 1.387 . S
C226 H230 0.950 . S
C226 C235 1.390 . S
C227 C226 1.387 . S
C227 C229 1.387 . S
H228 C235 0.950 . S
C229 C227 1.387 . S
C229 C231 1.390 . S
C229 H233 0.950 . S
H230 C226 0.950 . S
C231 C229 1.390 . S
C231 C232 1.387 . S
C231 H234 0.950 . S
C232 C231 1.387 . S
C232 C235 1.387 . S
H233 C229 0.950 . S
H234 C231 0.950 . S
C235 C226 1.390 . S
C235 H228 0.950 . S
C235 C232 1.387 . S
C236 C237 1.387 . S
C236 H240 0.950 . S
C236 C245 1.390 . S
C237 C236 1.387 . S
C237 C239 1.387 . S
H238 C245 0.950 . S
C239 C237 1.387 . S
C239 C241 1.390 . S
C239 H243 0.950 . S
H240 C236 0.950 . S
C241 C239 1.390 . S
C241 C242 1.387 . S
C241 H244 0.950 . S
C242 C241 1.387 . S
C242 C245 1.387 . S
H243 C239 0.950 . S
H244 C241 0.950 . S
C245 C236 1.390 . S
C245 H238 0.950 . S
C245 C242 1.387 . S
C246 C247 1.387 . S
C246 H250 0.950 . S
C246 C255 1.390 . S
C247 C246 1.387 . S
C247 C249 1.387 . S
H248 C255 0.950 . S
C249 C247 1.387 . S
C249 C251 1.390 . S
C249 H253 0.950 . S
H250 C246 0.950 . S
C251 C249 1.390 . S
C251 C252 1.387 . S
C251 H254 0.950 . S
C252 C251 1.387 . S
C252 C255 1.387 . S
H253 C249 0.950 . S
H254 C251 0.950 . S
C255 C246 1.390 . S
C255 H248 0.950 . S
C255 C252 1.387 . S
C256 C257 1.387 . S
C256 H260 0.950 . S
C256 C265 1.390 . S
C257 C256 1.387 . S
C257 C259 1.387 . S
H258 C265 0.950 . S
C259 C257 1.387 . S
C259 C261 1.390 . S
C259 H263 0.950 . S
H260 C256 0.950 . S
C261 C259 1.390 . S
C261 C262 1.387 . S
C261 H264 0.950 . S
C262 C261 1.387 . S
C262 C265 1.387 . S
H263 C259 0.950 . S
H264 C261 0.950 . S
C265 C256 1.390 . S
C265 H258 0.950 . S
C265 C262 1.387 . S
C266 C267 1.387 . S
C266 H270 0.950 . S
C266 C275 1.390 . S
C267 C266 1.387 . S
C267 C269 1.387 . S
H268 C275 0.950 . S
C269 C267 1.387 . S
C269 C271 1.390 . S
C269 H273 0.950 . S
H270 C266 0.950 . S
C271 C269 1.390 . S
C271 C272 1.387 . S
C271 H274 0.950 . S
C272 C271 1.387 . S
C272 C275 1.387 . S
H273 C269 0.950 . S
H274 C271 0.950 . S
C275 C266 1.390 . S
C275 H268 0.950 . S
C275 C272 1.387 . S
C276 C277 1.387 . S
C276 H280 0.950 . S
C276 C285 1.390 . S
C277 C276 1.387 . S
C277 C279 1.387 . S
H278 C285 0.950 . S
C279 C277 1.387 . S
C279 C281 1.390 . S
C279 H283 0.950 . S
H280 C276 0.950 . S
C281 C279 1.390 . S
C281 C282 1.387 . S
C281 H284 0.950 . S
C282 C281 1.387 . S
C282 C285 1.387 . S
H283 C279 0.950 . S
H284 C281 0.950 . S
C285 C276 1.390 . S
C285 H278 0.950 . S
C285 C282 1.387 . S
C286 C287 1.387 . S
C286 H290 0.950 . S
C286 C295 1.390 . S
C287 C286 1.387 . S
C287 C289 1.387 . S
H288 C295 0.950 . S
C289 C287 1.387 . S
C289 C291 1.390 . S
C289 H293 0.950 . S
H290 C286 0.950 . S
C291 C289 1.390 . S
C291 C292 1.387 . S
C291 H294 0.950 . S
C292 C291 1.387 . S
C292 C295 1.387 . S
H293 C289 0.950 . S
H294 C291 0.950 . S
C295 C286 1.390 . S
C295 H288 0.950 . S
C295 C292 1.387 . S
C296 C297 1.387 . S
C296 H300 0.950 . S
C296 C305 1.390 . S
C297 C296 1.387 . S
C297 C299 1.387 . S
H298 C305 0.950 . S
C299 C297 1.387 . S
C299 C301 1.390 . S
C299 H303 0.950 . S
H300 C296 0.950 . S
C301 C299 1.390 . S
C301 C302 1.387 . S
C301 H304 0.950 . S
C302 C301 1.387 . S
C302 C305 1.387 . S
H303 C299 0.950 . S
H304 C301 0.950 . S
C305 C296 1.390 . S
C305 H298 0.950 . S
C305 C302 1.387 . S
C306 C307 1.387 1_655 S
C306 H310 0.950 . S
C306 C315 1.390 . S
C307 C306 1.387 1_455 S
C307 C309 1.387 . S
H308 C315 0.950 . S
C309 C307 1.387 . S
C309 C311 1.390 1_554 S
C309 H313 0.950 . S
H310 C306 0.950 . S
C311 C309 1.390 1_556 S
C311 C312 1.387 1_455 S
C311 H314 0.950 . S
C312 C311 1.387 1_655 S
C312 C315 1.387 1_556 S
H313 C309 0.950 . S
H314 C311 0.950 . S
C315 C306 1.390 . S
C315 H308 0.950 . S
C315 C312 1.387 1_554 S
C316 C317 1.387 . S
C316 H320 0.950 . S
C316 C325 1.390 . S
C317 C316 1.387 . S
C317 C319 1.387 . S
H318 C325 0.950 . S
C319 C317 1.387 . S
C319 C321 1.390 . S
C319 H323 0.950 . S
H320 C316 0.950 . S
C321 C319 1.390 . S
C321 C322 1.387 . S
C321 H324 0.950 . S
C322 C321 1.387 . S
C322 C325 1.387 . S
H323 C319 0.950 . S
H324 C321 0.950 . S
C325 C316 1.390 . S
C325 H318 0.950 . S
C325 C322 1.387 . S
C326 C327 1.387 . S
C326 H330 0.950 . S
C326 C335 1.390 . S
C327 C326 1.387 . S
C327 C329 1.387 . S
H328 C335 0.950 . S
C329 C327 1.387 . S
C329 C331 1.390 . S
C329 H333 0.950 . S
H330 C326 0.950 . S
C331 C329 1.390 . S
C331 C332 1.387 . S
C331 H334 0.950 . S
C332 C331 1.387 . S
C332 C335 1.387 . S
H333 C329 0.950 . S
H334 C331 0.950 . S
C335 C326 1.390 . S
C335 H328 0.950 . S
C335 C332 1.387 . S
C336 C337 1.387 1_565 S
C336 H340 0.950 . S
C336 C345 1.390 . S
C337 C336 1.387 1_545 S
C337 C339 1.387 . S
H338 C345 0.950 . S
C339 C337 1.387 . S
C339 C341 1.390 . S
C339 H343 0.950 . S
H340 C336 0.950 . S
C341 C339 1.390 . S
C341 C342 1.387 . S
C341 H344 0.950 . S
C342 C341 1.387 . S
C342 C345 1.387 1_545 S
H343 C339 0.950 . S
H344 C341 0.950 . S
C345 C336 1.390 . S
C345 H338 0.950 . S
C345 C342 1.387 1_565 S
C346 C347 1.387 . S
C346 H350 0.950 . S
C346 C355 1.390 . S
C347 C346 1.387 . S
C347 C349 1.387 . S
H348 C355 0.950 1_554 S
C349 C347 1.387 . S
C349 C351 1.390 . S
C349 H353 0.950 . S
H350 C346 0.950 . S
C351 C349 1.390 . S
C351 C352 1.387 1_556 S
C351 H354 0.950 1_556 S
C352 C351 1.387 1_554 S
C352 C355 1.387 1_554 S
H353 C349 0.950 . S
H354 C351 0.950 1_554 S
C355 C346 1.390 . S
C355 H348 0.950 1_556 S
C355 C352 1.387 1_556 S
C356 C357 1.387 . S
C356 H360 0.950 . S
C356 C365 1.390 . S
C357 C356 1.387 . S
C357 C359 1.387 . S
H358 C365 0.950 . S
C359 C357 1.387 . S
C359 C361 1.390 . S
C359 H363 0.950 . S
H360 C356 0.950 . S
C361 C359 1.390 . S
C361 C362 1.387 . S
C361 H364 0.950 . S
C362 C361 1.387 . S
C362 C365 1.387 . S
H363 C359 0.950 . S
H364 C361 0.950 . S
C365 C356 1.390 . S
C365 H358 0.950 . S
C365 C362 1.387 . S
C187 C10 3.099 . S
C192 C185 3.044 . S
C197 C59 3.162 . S
C202 C163 3.088 . S
C207 C90 3.089 . S
C212 C174 3.029 . S
C217 C19 3.054 . S
C222 C179 3.011 . S
C232 C157 2.974 . S
C227 C50 3.008 . S
C242 C168 3.022 . S
C237 C99 3.063 . S
C247 C46 0.839 . S
C252 C141 0.868 . S
C257 C95 0.665 . S
C262 C146 0.599 . S
C267 C6 0.551 . S
C272 C124 0.457 . S
C282 C135 0.627 . S
C277 C55 0.676 . S
C292 C152 0.764 . S
C287 C86 0.763 . S
C297 C15 0.749 . S
C302 C130 0.756 . S
C312 C147 1.176 . S
C307 C9 1.184 . S
C317 C49 1.063 . S
C322 C125 1.102 . S
C327 C89 1.141 . S
C332 C136 1.146 . S
C342 C169 1.772 . S
C337 C58 1.725 . S
C352 C180 1.795 . S
C347 C98 1.722 . S
C357 C18 1.708 . S
C362 C158 1.833 . S
