# Generated by pormake.
# Topology ssb, (4,4)-cn, num edge types: 1
# Building blocks:
#     Node 0, Type 0, BuildingBlock: AZAVOO_clean_linker_0, # of connection points: 4
#     Node 1, Type 0, BuildingBlock: AZAVOO_clean_linker_0, # of connection points: 4
#     Node 2, Type 0, BuildingBlock: AZAVOO_clean_linker_0, # of connection points: 4
#     Node 3, Type 0, BuildingBlock: AZAVOO_clean_linker_0, # of connection points: 4
#     Node 4, Type 0, BuildingBlock: AZAVOO_clean_linker_0, # of connection points: 4
#     Node 5, Type 0, BuildingBlock: AZAVOO_clean_linker_0, # of connection points: 4
#     Node 6, Type 0, BuildingBlock: AZAVOO_clean_linker_0, # of connection points: 4
#     Node 7, Type 0, BuildingBlock: AZAVOO_clean_linker_0, # of connection points: 4
#     Node 8, Type 1, BuildingBlock: KOZSID_clean_sbu_0, # of connection points: 4
#     Node 9, Type 1, BuildingBlock: KOZSID_clean_sbu_0, # of connection points: 4
#     Node 10, Type 1, BuildingBlock: KOZSID_clean_sbu_0, # of connection points: 4
#     Node 11, Type 1, BuildingBlock: KOZSID_clean_sbu_0, # of connection points: 4
#     Node 12, Type 1, BuildingBlock: KOZSID_clean_sbu_0, # of connection points: 4
#     Node 13, Type 1, BuildingBlock: KOZSID_clean_sbu_0, # of connection points: 4
#     Node 14, Type 1, BuildingBlock: KOZSID_clean_sbu_0, # of connection points: 4
#     Node 15, Type 1, BuildingBlock: KOZSID_clean_sbu_0, # of connection points: 4
#     Edge 16, Type (0, 1), BuildingBlock: KIFKEQ_clean_linker_1, # of connection points: 2
#     Edge 17, Type (0, 1), BuildingBlock: KIFKEQ_clean_linker_1, # of connection points: 2
#     Edge 18, Type (0, 1), BuildingBlock: KIFKEQ_clean_linker_1, # of connection points: 2
#     Edge 19, Type (0, 1), BuildingBlock: KIFKEQ_clean_linker_1, # of connection points: 2
#     Edge 20, Type (0, 1), BuildingBlock: KIFKEQ_clean_linker_1, # of connection points: 2
#     Edge 21, Type (0, 1), BuildingBlock: KIFKEQ_clean_linker_1, # of connection points: 2
#     Edge 22, Type (0, 1), BuildingBlock: KIFKEQ_clean_linker_1, # of connection points: 2
#     Edge 23, Type (0, 1), BuildingBlock: KIFKEQ_clean_linker_1, # of connection points: 2
#     Edge 24, Type (0, 1), BuildingBlock: KIFKEQ_clean_linker_1, # of connection points: 2
#     Edge 25, Type (0, 1), BuildingBlock: KIFKEQ_clean_linker_1, # of connection points: 2
#     Edge 26, Type (0, 1), BuildingBlock: KIFKEQ_clean_linker_1, # of connection points: 2
#     Edge 27, Type (0, 1), BuildingBlock: KIFKEQ_clean_linker_1, # of connection points: 2
#     Edge 28, Type (0, 1), BuildingBlock: KIFKEQ_clean_linker_1, # of connection points: 2
#     Edge 29, Type (0, 1), BuildingBlock: KIFKEQ_clean_linker_1, # of connection points: 2
#     Edge 30, Type (0, 1), BuildingBlock: KIFKEQ_clean_linker_1, # of connection points: 2
#     Edge 31, Type (0, 1), BuildingBlock: KIFKEQ_clean_linker_1, # of connection points: 2
#     Edge 32, Type (0, 1), BuildingBlock: KIFKEQ_clean_linker_1, # of connection points: 2
#     Edge 33, Type (0, 1), BuildingBlock: KIFKEQ_clean_linker_1, # of connection points: 2
#     Edge 34, Type (0, 1), BuildingBlock: KIFKEQ_clean_linker_1, # of connection points: 2
#     Edge 35, Type (0, 1), BuildingBlock: KIFKEQ_clean_linker_1, # of connection points: 2
#     Edge 36, Type (0, 1), BuildingBlock: KIFKEQ_clean_linker_1, # of connection points: 2
#     Edge 37, Type (0, 1), BuildingBlock: KIFKEQ_clean_linker_1, # of connection points: 2
#     Edge 38, Type (0, 1), BuildingBlock: KIFKEQ_clean_linker_1, # of connection points: 2
#     Edge 39, Type (0, 1), BuildingBlock: KIFKEQ_clean_linker_1, # of connection points: 2
#     Edge 40, Type (0, 1), BuildingBlock: KIFKEQ_clean_linker_1, # of connection points: 2
#     Edge 41, Type (0, 1), BuildingBlock: KIFKEQ_clean_linker_1, # of connection points: 2
#     Edge 42, Type (0, 1), BuildingBlock: KIFKEQ_clean_linker_1, # of connection points: 2
#     Edge 43, Type (0, 1), BuildingBlock: KIFKEQ_clean_linker_1, # of connection points: 2
#     Edge 44, Type (0, 1), BuildingBlock: KIFKEQ_clean_linker_1, # of connection points: 2
#     Edge 45, Type (0, 1), BuildingBlock: KIFKEQ_clean_linker_1, # of connection points: 2
#     Edge 46, Type (0, 1), BuildingBlock: KIFKEQ_clean_linker_1, # of connection points: 2
#     Edge 47, Type (0, 1), BuildingBlock: KIFKEQ_clean_linker_1, # of connection points: 2
# Relax obj value: 0.046
# Max RMSD: 0.292
# Mean RMSD: 0.109
data_MOF--net-ssb--node1-KOZSID_clean_sbu_0--node2-AZAVOO_clean_linker_0--edge1-KIFKEQ_clean_linker_1
_symmetry_space_group_name_H-M    P1
_symmetry_Int_Tables_number       1
_symmetry_cell_setting            triclinic
loop_
_symmetry_equiv_pos_as_xyz
'x, y, z'
_cell_length_a     61.145853
_cell_length_b     62.730799
_cell_length_c     44.984308
_cell_angle_alpha  94.772936
_cell_angle_beta   94.661809
_cell_angle_gamma 90.287955
loop_
_atom_site_label
_atom_site_type_symbol
_atom_site_fract_x
_atom_site_fract_y
_atom_site_fract_z
_atom_type_partial_charge
H0 H 0.15488 0.49004 0.28078 0.0
H1 H 0.34025 0.40092 0.09871 0.0
H2 H 0.23411 0.41018 0.3205 0.0
H3 H 0.20439 0.40797 0.35332 0.0
H4 H 0.17804 0.3523 0.29871 0.0
H5 H 0.20765 0.35501 0.2655 0.0
H6 H 0.23791 0.44437 0.27719 0.0
H7 H 0.2069 0.46848 0.28274 0.0
H8 H 0.16319 0.41953 0.23751 0.0
H9 H 0.19441 0.39567 0.23184 0.0
H10 H 0.27416 0.44531 0.24204 0.0
H11 H 0.27167 0.47637 0.21264 0.0
H12 H 0.22555 0.44163 0.14791 0.0
H13 H 0.22738 0.41113 0.17855 0.0
H14 H 0.31174 0.40822 0.23933 0.0
H15 H 0.33933 0.41285 0.2038 0.0
H16 H 0.2924 0.38984 0.13091 0.0
H17 H 0.26509 0.38504 0.16675 0.0
H18 H 0.31021 0.37372 0.27972 0.0
H19 H 0.34399 0.3557 0.26624 0.0
H20 H 0.30906 0.32599 0.18592 0.0
H21 H 0.27553 0.344 0.19958 0.0
H22 H 0.26578 0.3725 0.32638 0.0
H23 H 0.26992 0.34236 0.35746 0.0
H24 H 0.25849 0.29845 0.27833 0.0
H25 H 0.2534 0.32874 0.24772 0.0
O26 O 0.16693 0.48031 0.27812 0.0
O27 O 0.14515 0.4546 0.25478 0.0
O28 O 0.35319 0.4109 0.15154 0.0
O29 O 0.32963 0.39936 0.11324 0.0
C30 C 0.23929 0.38594 0.26891 0.0
C31 C 0.23715 0.40361 0.25117 0.0
C32 C 0.25268 0.40711 0.23053 0.0
C33 C 0.2701 0.39271 0.22727 0.0
C34 C 0.27204 0.37485 0.24462 0.0
C35 C 0.25677 0.37144 0.26574 0.0
C36 C 0.22294 0.38279 0.29068 0.0
C37 C 0.22204 0.39737 0.31587 0.0
C38 C 0.20512 0.39602 0.33462 0.0
C39 C 0.18883 0.38 0.3285 0.0
C40 C 0.19021 0.36497 0.30373 0.0
C41 C 0.20718 0.36635 0.28496 0.0
C42 C 0.21838 0.41835 0.25399 0.0
C43 C 0.22165 0.43897 0.26829 0.0
C44 C 0.20389 0.45267 0.27153 0.0
C45 C 0.18255 0.44593 0.26057 0.0
C46 C 0.1794 0.42522 0.24619 0.0
C47 C 0.19718 0.41157 0.24292 0.0
C48 C 0.25092 0.426 0.21248 0.0
C49 C 0.26343 0.44452 0.22158 0.0
C50 C 0.26211 0.46221 0.20451 0.0
C51 C 0.24848 0.46167 0.1776 0.0
C52 C 0.23596 0.44294 0.16864 0.0
C53 C 0.23708 0.42537 0.186 0.0
C54 C 0.28648 0.39631 0.20555 0.0
C55 C 0.30748 0.40423 0.21567 0.0
C56 C 0.32318 0.40685 0.19533 0.0
C57 C 0.31807 0.4017 0.16449 0.0
C58 C 0.29689 0.39395 0.15448 0.0
C59 C 0.28123 0.39127 0.17486 0.0
C60 C 0.29055 0.36013 0.24056 0.0
C61 C 0.30976 0.36274 0.25977 0.0
C62 C 0.329 0.35259 0.25194 0.0
C63 C 0.32915 0.3396 0.22494 0.0
C64 C 0.30939 0.33573 0.207 0.0
C65 C 0.29024 0.34601 0.21471 0.0
C66 C 0.25928 0.35293 0.28468 0.0
C67 C 0.26401 0.35637 0.31579 0.0
C68 C 0.2666 0.33905 0.33351 0.0
C69 C 0.26464 0.3178 0.32054 0.0
C70 C 0.25985 0.31448 0.2893 0.0
C71 C 0.25714 0.33182 0.27164 0.0
C72 C 0.16371 0.46047 0.26425 0.0
C73 C 0.33474 0.4043 0.14281 0.0
H74 H 0.62959 0.16811 0.28741 0.0
H75 H 0.80669 0.23393 0.53278 0.0
H76 H 0.71823 0.24299 0.28016 0.0
H77 H 0.69113 0.24691 0.23817 0.0
H78 H 0.66834 0.30508 0.28369 0.0
H79 H 0.69469 0.3002 0.32639 0.0
H80 H 0.71545 0.20797 0.32291 0.0
H81 H 0.68301 0.18607 0.30529 0.0
H82 H 0.64137 0.23816 0.33368 0.0
H83 H 0.67397 0.25979 0.35154 0.0
H84 H 0.7515 0.20593 0.37302 0.0
H85 H 0.74288 0.17425 0.39838 0.0
H86 H 0.68806 0.20721 0.43537 0.0
H87 H 0.69695 0.23895 0.41003 0.0
H88 H 0.79043 0.24116 0.38541 0.0
H89 H 0.81435 0.23229 0.42885 0.0
H90 H 0.76286 0.24973 0.48643 0.0
H91 H 0.73922 0.25877 0.44284 0.0
H92 H 0.79137 0.27819 0.3418 0.0
H93 H 0.82519 0.29735 0.36116 0.0
H94 H 0.79477 0.31884 0.44157 0.0
H95 H 0.76083 0.29985 0.42179 0.0
H96 H 0.76005 0.28134 0.29249 0.0
H97 H 0.76985 0.31355 0.26869 0.0
H98 H 0.74157 0.35295 0.33871 0.0
H99 H 0.73225 0.32073 0.3627 0.0
O100 O 0.64219 0.17701 0.29466 0.0
O101 O 0.62152 0.20432 0.30948 0.0
O102 O 0.82352 0.22857 0.48464 0.0
O103 O 0.79757 0.23728 0.51521 0.0
C104 C 0.72209 0.26658 0.33369 0.0
C105 C 0.71678 0.24875 0.34904 0.0
C106 C 0.73017 0.24366 0.37443 0.0
C107 C 0.74882 0.25635 0.38466 0.0
C108 C 0.7539 0.27444 0.36969 0.0
C109 C 0.74044 0.27958 0.34431 0.0
C110 C 0.70835 0.27126 0.30633 0.0
C111 C 0.70755 0.25672 0.28084 0.0
C112 C 0.6921 0.25907 0.25679 0.0
C113 C 0.67736 0.27622 0.25759 0.0
C114 C 0.6791 0.29143 0.28256 0.0
C115 C 0.69437 0.28888 0.30681 0.0
C116 C 0.69704 0.23542 0.33857 0.0
C117 C 0.69931 0.21455 0.32547 0.0
C118 C 0.68075 0.20211 0.31534 0.0
C119 C 0.65959 0.21036 0.31808 0.0
C120 C 0.65742 0.23131 0.33124 0.0
C121 C 0.676 0.24371 0.34143 0.0
C122 C 0.72489 0.22464 0.38989 0.0
C123 C 0.73765 0.20625 0.38661 0.0
C124 C 0.73258 0.18818 0.40084 0.0
C125 C 0.71473 0.18829 0.41867 0.0
C126 C 0.70195 0.20677 0.42185 0.0
C127 C 0.70696 0.22482 0.40743 0.0
C128 C 0.76312 0.2506 0.41102 0.0
C129 C 0.78438 0.24307 0.40744 0.0
C130 C 0.79798 0.238 0.43228 0.0
C131 C 0.79051 0.2403 0.46113 0.0
C132 C 0.76913 0.24776 0.46455 0.0
C133 C 0.75557 0.25288 0.4397 0.0
C134 C 0.77364 0.28768 0.38035 0.0
C135 C 0.79186 0.28741 0.3633 0.0
C136 C 0.81115 0.29834 0.3744 0.0
C137 C 0.81262 0.30953 0.40291 0.0
C138 C 0.79416 0.31017 0.41965 0.0
C139 C 0.77478 0.29943 0.40838 0.0
C140 C 0.74547 0.29883 0.32921 0.0
C141 C 0.75595 0.29694 0.30257 0.0
C142 C 0.76161 0.31526 0.28917 0.0
C143 C 0.75645 0.33561 0.30199 0.0
C144 C 0.74559 0.33739 0.32839 0.0
C145 C 0.74031 0.3191 0.34207 0.0
C146 C 0.63991 0.19713 0.30719 0.0
C147 C 0.80492 0.23501 0.48761 0.0
H148 H 0.66728 0.90588 0.32608 0.0
H149 H 0.68606 0.67814 0.18027 0.0
H150 H 0.7602 0.83763 0.33504 0.0
H151 H 0.76241 0.86733 0.37415 0.0
H152 H 0.7437 0.82432 0.43813 0.0
H153 H 0.74144 0.79473 0.39878 0.0
H154 H 0.72256 0.8348 0.287 0.0
H155 H 0.70117 0.86723 0.29591 0.0
H156 H 0.67703 0.84177 0.37366 0.0
H157 H 0.69828 0.80929 0.36424 0.0
H158 H 0.72435 0.7946 0.23904 0.0
H159 H 0.69593 0.80554 0.20221 0.0
H160 H 0.64699 0.79803 0.26484 0.0
H161 H 0.67561 0.78656 0.30139 0.0
H162 H 0.75434 0.75564 0.24257 0.0
H163 H 0.74479 0.72774 0.20224 0.0
H164 H 0.68593 0.71299 0.24407 0.0
H165 H 0.69587 0.74073 0.28453 0.0
H166 H 0.79141 0.75727 0.29011 0.0
H167 H 0.80701 0.72296 0.2724 0.0
H168 H 0.75271 0.68954 0.3039 0.0
H169 H 0.73756 0.72371 0.32237 0.0
H170 H 0.79408 0.79923 0.3217 0.0
H171 H 0.83019 0.80016 0.34903 0.0
H172 H 0.80588 0.75946 0.4124 0.0
H173 H 0.76975 0.75803 0.38389 0.0
O174 O 0.67541 0.89281 0.32277 0.0
O175 O 0.66356 0.87904 0.36261 0.0
O176 O 0.7208 0.69736 0.17549 0.0
O177 O 0.69016 0.68935 0.19585 0.0
C178 C 0.74442 0.79748 0.33926 0.0
C179 C 0.7254 0.80029 0.32002 0.0
C180 C 0.71977 0.78509 0.29566 0.0
C181 C 0.73225 0.76635 0.29176 0.0
C182 C 0.75101 0.76324 0.3115 0.0
C183 C 0.75757 0.77927 0.33445 0.0
C184 C 0.75054 0.81409 0.36408 0.0
C185 C 0.75708 0.83455 0.35767 0.0
C186 C 0.75814 0.8515 0.37994 0.0
C187 C 0.75291 0.8482 0.40909 0.0
C188 C 0.74789 0.82734 0.41592 0.0
C189 C 0.74666 0.81041 0.39353 0.0
C190 C 0.71184 0.81967 0.32487 0.0
C191 C 0.71247 0.83618 0.30576 0.0
C192 C 0.70031 0.85472 0.31099 0.0
C193 C 0.6874 0.85711 0.33551 0.0
C194 C 0.68679 0.84045 0.35457 0.0
C195 C 0.6989 0.82189 0.34924 0.0
C196 C 0.702 0.78977 0.2728 0.0
C197 C 0.70744 0.79501 0.24461 0.0
C198 C 0.69124 0.80148 0.22377 0.0
C199 C 0.66927 0.80287 0.23077 0.0
C200 C 0.66376 0.79701 0.25877 0.0
C201 C 0.68004 0.79052 0.27966 0.0
C202 C 0.72587 0.75009 0.26655 0.0
C203 C 0.73942 0.74632 0.243 0.0
C204 C 0.7339 0.73041 0.21998 0.0
C205 C 0.71461 0.71808 0.21998 0.0
C206 C 0.70091 0.72216 0.24341 0.0
C207 C 0.7065 0.73803 0.26648 0.0
C208 C 0.76338 0.74299 0.30764 0.0
C209 C 0.78341 0.74252 0.29439 0.0
C210 C 0.79222 0.72296 0.28411 0.0
C211 C 0.7809 0.70372 0.2866 0.0
C212 C 0.76165 0.7042 0.30163 0.0
C213 C 0.75308 0.72366 0.31231 0.0
C214 C 0.77943 0.77856 0.35087 0.0
C215 C 0.79663 0.79039 0.34137 0.0
C216 C 0.81718 0.79105 0.3572 0.0
C217 C 0.82087 0.78013 0.38319 0.0
C218 C 0.80361 0.76794 0.39239 0.0
C219 C 0.783 0.76714 0.37626 0.0
C220 C 0.67471 0.87693 0.34121 0.0
C221 C 0.70879 0.70101 0.19572 0.0
H222 H 0.35405 0.97241 0.29641 0.0
H223 H 0.24789 0.80359 0.05258 0.0
H224 H 0.26883 0.8981 0.30814 0.0
H225 H 0.26892 0.92919 0.34487 0.0
H226 H 0.21279 0.95423 0.29498 0.0
H227 H 0.21286 0.92311 0.25835 0.0
H228 H 0.30437 0.8929 0.26302 0.0
H229 H 0.33018 0.92226 0.27957 0.0
H230 H 0.28194 0.96763 0.24947 0.0
H231 H 0.25643 0.93808 0.23262 0.0
H232 H 0.29926 0.85329 0.21435 0.0
H233 H 0.33331 0.8546 0.18961 0.0
H234 H 0.31217 0.91295 0.1518 0.0
H235 H 0.27781 0.91122 0.17632 0.0
H236 H 0.26231 0.82332 0.20101 0.0
H237 H 0.26324 0.7983 0.1564 0.0
H238 H 0.24404 0.84916 0.10078 0.0
H239 H 0.2429 0.87394 0.14566 0.0
H240 H 0.22819 0.82339 0.2409 0.0
H241 H 0.21109 0.79197 0.21232 0.0
H242 H 0.18157 0.83252 0.14743 0.0
H243 H 0.19912 0.86379 0.17591 0.0
H244 H 0.23523 0.85823 0.29887 0.0
H245 H 0.2076 0.84849 0.33164 0.0
H246 H 0.15703 0.87424 0.27229 0.0
H247 H 0.18496 0.88317 0.23898 0.0
O248 O 0.34371 0.96102 0.28931 0.0
O249 O 0.31824 0.98368 0.27378 0.0
O250 O 0.25807 0.78771 0.10015 0.0
O251 O 0.24817 0.81327 0.07054 0.0
C252 C 0.24435 0.89303 0.2547 0.0
C253 C 0.2626 0.89562 0.23775 0.0
C254 C 0.26571 0.88115 0.21276 0.0
C255 C 0.24988 0.865 0.20369 0.0
C256 C 0.23149 0.86269 0.2204 0.0
C257 C 0.22914 0.87618 0.2465 0.0
C258 C 0.24101 0.90857 0.28048 0.0
C259 C 0.25619 0.91002 0.30566 0.0
C260 C 0.25629 0.92779 0.32646 0.0
C261 C 0.24107 0.94424 0.32245 0.0
C262 C 0.22464 0.94176 0.29866 0.0
C263 C 0.22465 0.92401 0.27776 0.0
C264 C 0.27859 0.91338 0.24654 0.0
C265 C 0.29952 0.90918 0.25974 0.0
C266 C 0.31418 0.92599 0.2693 0.0
C267 C 0.30811 0.9473 0.2659 0.0
C268 C 0.28714 0.95141 0.25244 0.0
C269 C 0.27255 0.93458 0.24278 0.0
C270 C 0.28608 0.88212 0.19706 0.0
C271 C 0.30195 0.86629 0.2006 0.0
C272 C 0.32146 0.86719 0.18668 0.0
C273 C 0.32551 0.88397 0.1689 0.0
C274 C 0.30947 0.89975 0.16519 0.0
C275 C 0.28991 0.89885 0.17924 0.0
C276 C 0.25245 0.85038 0.17651 0.0
C277 C 0.25842 0.82903 0.17915 0.0
C278 C 0.25892 0.81478 0.15364 0.0
C279 C 0.25362 0.82171 0.12501 0.0
C280 C 0.24816 0.84329 0.12247 0.0
C281 C 0.2476 0.8575 0.14803 0.0
C282 C 0.21509 0.84571 0.21016 0.0
C283 C 0.21717 0.82556 0.2213 0.0
C284 C 0.20737 0.80764 0.20492 0.0
C285 C 0.19539 0.80979 0.1773 0.0
C286 C 0.19103 0.8304 0.16837 0.0
C287 C 0.20088 0.84827 0.1847 0.0
C288 C 0.21207 0.87144 0.26667 0.0
C289 C 0.21818 0.86185 0.29306 0.0
C290 C 0.20233 0.85641 0.31184 0.0
C291 C 0.18001 0.86067 0.30478 0.0
C292 C 0.174 0.87048 0.27829 0.0
C293 C 0.18991 0.87575 0.25933 0.0
C294 C 0.32359 0.96515 0.27651 0.0
C295 C 0.25349 0.80649 0.0979 0.0
H296 H 0.40068 0.98474 0.74632 0.0
H297 H 0.16981 0.9397 0.59998 0.0
H298 H 0.33449 0.88675 0.74033 0.0
H299 H 0.36696 0.88146 0.77414 0.0
H300 H 0.33027 0.90062 0.84992 0.0
H301 H 0.29766 0.90569 0.8157 0.0
H302 H 0.33085 0.9229 0.70374 0.0
H303 H 0.36282 0.94681 0.71383 0.0
H304 H 0.33685 0.97284 0.79564 0.0
H305 H 0.30486 0.94896 0.78509 0.0
H306 H 0.29729 0.92515 0.66222 0.0
H307 H 0.30032 0.95621 0.63279 0.0
H308 H 0.26781 0.99513 0.69915 0.0
H309 H 0.2655 0.9642 0.72894 0.0
H310 H 0.25494 0.88589 0.65724 0.0
H311 H 0.22711 0.89059 0.6161 0.0
H312 H 0.20204 0.9453 0.66712 0.0
H313 H 0.22978 0.94023 0.7082 0.0
H314 H 0.25848 0.84981 0.70797 0.0
H315 H 0.22626 0.82703 0.69326 0.0
H316 H 0.18435 0.87982 0.71831 0.0
H317 H 0.21666 0.90176 0.73507 0.0
H318 H 0.30183 0.85227 0.75206 0.0
H319 H 0.29805 0.82173 0.7819 0.0
H320 H 0.2418 0.8512 0.81981 0.0
H321 H 0.2459 0.88185 0.79025 0.0
O322 O 0.38781 0.97555 0.74264 0.0
O323 O 0.37373 0.98843 0.78443 0.0
O324 O 0.19441 0.90917 0.59067 0.0
O325 O 0.18098 0.93748 0.6159 0.0
C326 C 0.29497 0.90155 0.75455 0.0
C327 C 0.29635 0.91957 0.73774 0.0
C328 C 0.2795 0.92363 0.7157 0.0
C329 C 0.26119 0.90962 0.71053 0.0
C330 C 0.25933 0.89203 0.72815 0.0
C331 C 0.27624 0.88795 0.75035 0.0
C332 C 0.31382 0.89667 0.77561 0.0
C333 C 0.33345 0.88966 0.76425 0.0
C334 C 0.35199 0.8868 0.78357 0.0
C335 C 0.35124 0.89087 0.81467 0.0
C336 C 0.33131 0.89726 0.82607 0.0
C337 C 0.31271 0.90018 0.80664 0.0
C338 C 0.31549 0.93438 0.74355 0.0
C339 C 0.33201 0.93394 0.72366 0.0
C340 C 0.35029 0.94754 0.72956 0.0
C341 C 0.35238 0.96176 0.75553 0.0
C342 C 0.33574 0.96211 0.77542 0.0
C343 C 0.31746 0.94852 0.76945 0.0
C344 C 0.28119 0.94242 0.69773 0.0
C345 C 0.29094 0.94042 0.67046 0.0
C346 C 0.2927 0.95814 0.65374 0.0
C347 C 0.28427 0.97807 0.66367 0.0
C348 C 0.27433 0.97995 0.69088 0.0
C349 C 0.27303 0.96234 0.70791 0.0
C350 C 0.24443 0.9128 0.68557 0.0
C351 C 0.24342 0.89888 0.65944 0.0
C352 C 0.22752 0.90161 0.636 0.0
C353 C 0.21237 0.91836 0.6383 0.0
C354 C 0.21348 0.93228 0.66457 0.0
C355 C 0.22936 0.92949 0.68802 0.0
C356 C 0.23991 0.87751 0.72232 0.0
C357 C 0.24232 0.85622 0.71099 0.0
C358 C 0.22384 0.84331 0.70227 0.0
C359 C 0.20258 0.8516 0.70414 0.0
C360 C 0.20035 0.87269 0.71682 0.0
C361 C 0.21883 0.88542 0.72608 0.0
C362 C 0.27425 0.86947 0.76904 0.0
C363 C 0.28886 0.85229 0.76709 0.0
C364 C 0.28665 0.83481 0.78415 0.0
C365 C 0.2696 0.83397 0.80328 0.0
C366 C 0.25496 0.85119 0.8051 0.0
C367 C 0.25734 0.86877 0.78829 0.0
C368 C 0.3719 0.97608 0.76184 0.0
C369 C 0.19542 0.92132 0.61347 0.0
H370 H 0.20984 0.5175 0.81858 0.0
H371 H 0.20752 0.29761 0.64157 0.0
H372 H 0.30289 0.43818 0.8021 0.0
H373 H 0.31035 0.46959 0.83727 0.0
H374 H 0.28188 0.43712 0.90618 0.0
H375 H 0.27448 0.40559 0.87056 0.0
H376 H 0.25573 0.44403 0.76534 0.0
H377 H 0.23787 0.47767 0.78012 0.0
H378 H 0.21686 0.45016 0.85828 0.0
H379 H 0.23459 0.41656 0.84301 0.0
H380 H 0.23945 0.40715 0.71543 0.0
H381 H 0.20276 0.41016 0.6898 0.0
H382 H 0.1738 0.39129 0.76824 0.0
H383 H 0.21053 0.38814 0.79352 0.0
H384 H 0.27827 0.37185 0.70718 0.0
H385 H 0.26535 0.34825 0.66314 0.0
H386 H 0.21377 0.32434 0.71225 0.0
H387 H 0.22707 0.34783 0.75625 0.0
H388 H 0.32072 0.37144 0.7526 0.0
H389 H 0.33914 0.34081 0.72848 0.0
H390 H 0.28956 0.2985 0.755 0.0
H391 H 0.27159 0.3291 0.77944 0.0
H392 H 0.33115 0.40273 0.81125 0.0
H393 H 0.36262 0.39048 0.8424 0.0
H394 H 0.32289 0.33846 0.86686 0.0
H395 H 0.29147 0.35144 0.83699 0.0
O396 O 0.21649 0.50394 0.81289 0.0
O397 O 0.20618 0.48908 0.8528 0.0
O398 O 0.23987 0.31981 0.63448 0.0
O399 O 0.21297 0.30709 0.65864 0.0
C400 C 0.27859 0.40366 0.81052 0.0
C401 C 0.25832 0.40802 0.79489 0.0
C402 C 0.24964 0.39375 0.77096 0.0
C403 C 0.26177 0.37569 0.76161 0.0
C404 C 0.28184 0.37116 0.77763 0.0
C405 C 0.28988 0.38475 0.80275 0.0
C406 C 0.28817 0.41972 0.83388 0.0
C407 C 0.29905 0.43757 0.82512 0.0
C408 C 0.30331 0.45547 0.84526 0.0
C409 C 0.29654 0.45585 0.87441 0.0
C410 C 0.28711 0.43729 0.88377 0.0
C411 C 0.28304 0.41926 0.86361 0.0
C412 C 0.24647 0.42795 0.80316 0.0
C413 C 0.2471 0.44528 0.78551 0.0
C414 C 0.23696 0.46448 0.79407 0.0
C415 C 0.22601 0.46664 0.82045 0.0
C416 C 0.22519 0.44906 0.83787 0.0
C417 C 0.23529 0.42986 0.82922 0.0
C418 C 0.22757 0.39738 0.75624 0.0
C419 C 0.22514 0.40389 0.72711 0.0
C420 C 0.20422 0.40569 0.71261 0.0
C421 C 0.18543 0.40089 0.72702 0.0
C422 C 0.18798 0.39488 0.7565 0.0
C423 C 0.20888 0.3932 0.77101 0.0
C424 C 0.25357 0.36156 0.73484 0.0
C425 C 0.2642 0.36148 0.70836 0.0
C426 C 0.25677 0.348 0.68325 0.0
C427 C 0.2385 0.33441 0.68417 0.0
C428 C 0.22787 0.33461 0.71077 0.0
C429 C 0.23537 0.34805 0.7359 0.0
C430 C 0.29473 0.35243 0.7674 0.0
C431 C 0.3142 0.35547 0.75379 0.0
C432 C 0.32462 0.33802 0.73997 0.0
C433 C 0.31572 0.31729 0.73971 0.0
C434 C 0.29698 0.31422 0.75511 0.0
C435 C 0.28657 0.33167 0.76885 0.0
C436 C 0.309 0.37809 0.82211 0.0
C437 C 0.32923 0.38891 0.82375 0.0
C438 C 0.34724 0.38171 0.84126 0.0
C439 C 0.34531 0.36348 0.85722 0.0
C440 C 0.32492 0.35276 0.85539 0.0
C441 C 0.30697 0.36006 0.83815 0.0
C442 C 0.21559 0.48718 0.82977 0.0
C443 C 0.23056 0.32004 0.65755 0.0
H444 H 0.89125 0.38939 0.8846 0.0
H445 H 0.81979 0.20935 0.65009 0.0
H446 H 0.81673 0.29952 0.90232 0.0
H447 H 0.81457 0.32749 0.94312 0.0
H448 H 0.75657 0.35217 0.89692 0.0
H449 H 0.75922 0.32435 0.85582 0.0
H450 H 0.85222 0.30427 0.85387 0.0
H451 H 0.87415 0.33669 0.86902 0.0
H452 H 0.8182 0.37532 0.84454 0.0
H453 H 0.79656 0.34278 0.82911 0.0
H454 H 0.85467 0.27306 0.79718 0.0
H455 H 0.88073 0.28585 0.76378 0.0
H456 H 0.83382 0.33308 0.73577 0.0
H457 H 0.80829 0.32053 0.76967 0.0
H458 H 0.82119 0.23039 0.79819 0.0
H459 H 0.82946 0.20629 0.75502 0.0
H460 H 0.80278 0.25222 0.69567 0.0
H461 H 0.79436 0.27603 0.73903 0.0
H462 H 0.78418 0.2284 0.84582 0.0
H463 H 0.76855 0.19314 0.82828 0.0
H464 H 0.74187 0.2185 0.74667 0.0
H465 H 0.75689 0.2538 0.76492 0.0
H466 H 0.77466 0.26258 0.8945 0.0
H467 H 0.74046 0.2592 0.91879 0.0
H468 H 0.70439 0.28286 0.8417 0.0
H469 H 0.73835 0.28511 0.81738 0.0
O470 O 0.88231 0.37678 0.87832 0.0
O471 O 0.85302 0.39591 0.86555 0.0
O472 O 0.8302 0.19548 0.69903 0.0
O473 O 0.81675 0.21859 0.66756 0.0
C474 C 0.79237 0.29589 0.84904 0.0
C475 C 0.80951 0.30145 0.8318 0.0
C476 C 0.81378 0.28848 0.80585 0.0
C477 C 0.80182 0.26926 0.798 0.0
C478 C 0.78445 0.26381 0.81497 0.0
C479 C 0.77932 0.2775 0.83993 0.0
C480 C 0.78811 0.30988 0.87618 0.0
C481 C 0.80323 0.31064 0.90141 0.0
C482 C 0.80196 0.32664 0.92471 0.0
C483 C 0.7855 0.34219 0.92316 0.0
C484 C 0.76962 0.34062 0.89858 0.0
C485 C 0.77092 0.32458 0.87527 0.0
C486 C 0.8228 0.3212 0.84058 0.0
C487 C 0.84478 0.31976 0.85172 0.0
C488 C 0.85724 0.3383 0.8604 0.0
C489 C 0.84791 0.35861 0.85807 0.0
C490 C 0.82588 0.35995 0.8467 0.0
C491 C 0.81346 0.3414 0.83795 0.0
C492 C 0.82969 0.29593 0.78578 0.0
C493 C 0.85014 0.28618 0.78382 0.0
C494 C 0.86491 0.29346 0.76467 0.0
C495 C 0.85937 0.31054 0.74717 0.0
C496 C 0.83879 0.32018 0.74931 0.0
C497 C 0.82412 0.31296 0.76849 0.0
C498 C 0.80729 0.25497 0.77171 0.0
C499 C 0.81718 0.23521 0.77583 0.0
C500 C 0.82188 0.22149 0.75115 0.0
C501 C 0.8168 0.22734 0.72187 0.0
C502 C 0.80694 0.24722 0.71788 0.0
C503 C 0.80219 0.2609 0.74259 0.0
C504 C 0.77183 0.24359 0.80653 0.0
C505 C 0.77448 0.22643 0.8245 0.0
C506 C 0.76573 0.20626 0.81429 0.0
C507 C 0.75421 0.2029 0.78587 0.0
C508 C 0.7505 0.2205 0.76873 0.0
C509 C 0.75917 0.24068 0.77903 0.0
C510 C 0.75885 0.27401 0.85423 0.0
C511 C 0.75926 0.2667 0.88285 0.0
C512 C 0.73974 0.26495 0.89671 0.0
C513 C 0.71959 0.27077 0.88225 0.0
C514 C 0.71942 0.27779 0.85332 0.0
C515 C 0.73884 0.27925 0.83941 0.0
C516 C 0.86116 0.37826 0.8675 0.0
C517 C 0.82169 0.2128 0.69556 0.0
H518 H 0.94436 0.69177 0.83992 0.0
H519 H 0.7169 0.69044 0.95076 0.0
H520 H 0.8662 0.77763 0.83022 0.0
H521 H 0.89098 0.78521 0.79222 0.0
H522 H 0.843 0.75839 0.72304 0.0
H523 H 0.81815 0.75166 0.76118 0.0
H524 H 0.86826 0.74025 0.87685 0.0
H525 H 0.90297 0.72202 0.86966 0.0
H526 H 0.87698 0.69654 0.78149 0.0
H527 H 0.84229 0.71467 0.78911 0.0
H528 H 0.82623 0.73378 0.91895 0.0
H529 H 0.83109 0.7032 0.9486 0.0
H530 H 0.82914 0.661 0.86718 0.0
H531 H 0.82235 0.6917 0.83786 0.0
H532 H 0.78821 0.76366 0.91648 0.0
H533 H 0.76277 0.75136 0.95087 0.0
H534 H 0.74803 0.69483 0.89061 0.0
H535 H 0.77331 0.70747 0.85623 0.0
H536 H 0.78676 0.79999 0.87908 0.0
H537 H 0.75212 0.81606 0.8925 0.0
H538 H 0.71644 0.76517 0.83805 0.0
H539 H 0.75117 0.74893 0.82575 0.0
H540 H 0.82698 0.80743 0.83685 0.0
H541 H 0.81776 0.84033 0.8133 0.0
H542 H 0.76542 0.80666 0.75772 0.0
H543 H 0.77461 0.77388 0.78186 0.0
O544 O 0.93047 0.69877 0.84235 0.0
O545 O 0.91636 0.68613 0.79715 0.0
O546 O 0.73505 0.72512 0.96762 0.0
O547 O 0.72701 0.69571 0.93753 0.0
C548 C 0.82616 0.75776 0.82145 0.0
C549 C 0.83187 0.74008 0.83787 0.0
C550 C 0.81778 0.73335 0.85874 0.0
C551 C 0.79783 0.7441 0.86285 0.0
C552 C 0.79232 0.76198 0.84682 0.0
C553 C 0.80659 0.76891 0.82637 0.0
C554 C 0.84041 0.76413 0.79841 0.0
C555 C 0.861 0.77368 0.8068 0.0
C556 C 0.87519 0.7778 0.78505 0.0
C557 C 0.86911 0.77227 0.75448 0.0
C558 C 0.84817 0.76315 0.74624 0.0
C559 C 0.83394 0.75921 0.768 0.0
C560 C 0.85281 0.7288 0.83349 0.0
C561 C 0.87009 0.73066 0.85605 0.0
C562 C 0.8899 0.72026 0.85185 0.0
C563 C 0.89276 0.70785 0.82497 0.0
C564 C 0.87534 0.706 0.80243 0.0
C565 C 0.85553 0.71636 0.8067 0.0
C566 C 0.82369 0.71493 0.8763 0.0
C567 C 0.82689 0.71791 0.90756 0.0
C568 C 0.82995 0.70037 0.92446 0.0
C569 C 0.83043 0.67949 0.91037 0.0
C570 C 0.82839 0.67674 0.87887 0.0
C571 C 0.82481 0.69429 0.86201 0.0
C572 C 0.78251 0.7365 0.88383 0.0
C573 C 0.77936 0.74869 0.91068 0.0
C574 C 0.76488 0.74159 0.93032 0.0
C575 C 0.75334 0.7221 0.92347 0.0
C576 C 0.75663 0.7099 0.89656 0.0
C577 C 0.77108 0.71706 0.8769 0.0
C578 C 0.77143 0.77327 0.85157 0.0
C579 C 0.77142 0.79254 0.86976 0.0
C580 C 0.75159 0.8017 0.87731 0.0
C581 C 0.73141 0.79181 0.86663 0.0
C582 C 0.73161 0.77299 0.84724 0.0
C583 C 0.75142 0.76378 0.83992 0.0
C584 C 0.80145 0.78839 0.81098 0.0
C585 C 0.81362 0.80719 0.81945 0.0
C586 C 0.80837 0.8259 0.80593 0.0
C587 C 0.79086 0.82607 0.78367 0.0
C588 C 0.77881 0.80708 0.77508 0.0
C589 C 0.78409 0.78836 0.78866 0.0
C590 C 0.91386 0.6969 0.82054 0.0
C591 C 0.73795 0.71448 0.94427 0.0
C592 C 0.03311 0.40449 0.58131 0.0
C593 C 0.03599 0.42581 0.59212 0.0
C594 C 0.02465 0.43772 0.57194 0.0
C595 C 0.01542 0.42311 0.55005 0.0
N596 N 0.01999 0.40272 0.55547 0.0
Co597 Co 0.0102 0.37687 0.52933 0.0
N598 N 0.98713 0.393 0.50778 0.0
C599 C 0.98627 0.41433 0.50675 0.0
C600 C 0.96786 0.42067 0.4903 0.0
C601 C 0.95651 0.40211 0.48049 0.0
C602 C 0.96869 0.38552 0.49166 0.0
N603 N 0.00033 0.35116 0.50298 0.0
C604 C 0.98074 0.34721 0.48726 0.0
C605 C 0.98013 0.32686 0.47248 0.0
C606 C 0.00026 0.31799 0.47906 0.0
C607 C 0.01192 0.3333 0.49756 0.0
N608 N 0.03333 0.36056 0.55069 0.0
C609 C 0.0414 0.34159 0.5406 0.0
C610 C 0.05776 0.33435 0.55978 0.0
C611 C 0.06036 0.34986 0.58314 0.0
C612 C 0.04538 0.36582 0.57688 0.0
N613 N 0.9896 0.36982 0.55794 0.0
C614 C 0.95991 0.35899 0.59833 0.0
C615 C 0.97325 0.34344 0.5852 0.0
C616 C 0.98801 0.34919 0.56523 0.0
C617 C 0.9618 0.38014 0.59097 0.0
C618 C 0.97668 0.38521 0.57057 0.0
N619 N 0.03099 0.38366 0.50071 0.0
C620 C 0.04115 0.38184 0.45003 0.0
C621 C 0.06309 0.3861 0.46043 0.0
C622 C 0.06826 0.39073 0.49114 0.0
C623 C 0.05203 0.38946 0.51084 0.0
C624 C 0.0253 0.38077 0.4706 0.0
H625 H 0.05682 0.39224 0.53438 0.0
H626 H 0.00865 0.37662 0.46222 0.0
H627 H 0.99815 0.33688 0.55564 0.0
H628 H 0.97769 0.40153 0.56492 0.0
C629 C 0.00023 0.42768 0.52644 0.0
C630 C 0.04526 0.38679 0.59408 0.0
C631 C 0.96301 0.36281 0.48553 0.0
C632 C 0.03133 0.3299 0.51519 0.0
H633 H 0.04572 0.43211 0.61213 0.0
H634 H 0.02301 0.45494 0.57339 0.0
H635 H 0.96268 0.43686 0.48716 0.0
H636 H 0.94104 0.4009 0.46692 0.0
H637 H 0.96659 0.31908 0.45875 0.0
H638 H 0.00525 0.30186 0.47258 0.0
H639 H 0.0665 0.31943 0.55736 0.0
H640 H 0.07236 0.34971 0.60218 0.0
H641 H 0.97251 0.32696 0.59063 0.0
H642 H 0.95166 0.3926 0.60056 0.0
H643 H 0.03645 0.37831 0.42639 0.0
H644 H 0.08493 0.39466 0.50004 0.0
C645 C 0.71318 0.04553 0.66424 0.0
C646 C 0.69314 0.04945 0.67594 0.0
C647 C 0.67875 0.03438 0.66204 0.0
C648 C 0.69079 0.02216 0.64279 0.0
N649 N 0.71207 0.02837 0.6437 0.0
Co650 Co 0.73526 0.01541 0.61887 0.0
N651 N 0.71367 0.99437 0.59663 0.0
C652 C 0.69201 0.99262 0.60041 0.0
C653 C 0.68135 0.97683 0.58176 0.0
C654 C 0.69712 0.96785 0.56512 0.0
C655 C 0.71662 0.97866 0.57475 0.0
N656 N 0.75853 0.00237 0.59424 0.0
C657 C 0.7573 0.98571 0.5729 0.0
C658 C 0.77764 0.98127 0.56227 0.0
C659 C 0.79219 0.9957 0.57721 0.0
C660 C 0.78005 0.00799 0.59617 0.0
N661 N 0.75683 0.03659 0.64088 0.0
C662 C 0.77848 0.03844 0.63705 0.0
C663 C 0.78891 0.05489 0.65465 0.0
C664 C 0.77297 0.06432 0.6705 0.0
C665 C 0.75365 0.05295 0.66165 0.0
N666 N 0.74227 0.99464 0.64906 0.0
C667 C 0.75275 0.96093 0.68489 0.0
C668 C 0.76916 0.97409 0.67633 0.0
C669 C 0.76359 0.9908 0.65873 0.0
C670 C 0.73092 0.96579 0.67697 0.0
C671 C 0.72609 0.98268 0.65929 0.0
N672 N 0.72825 0.03598 0.58855 0.0
C673 C 0.74021 0.06082 0.55487 0.0
C674 C 0.71852 0.06547 0.54575 0.0
C675 C 0.70174 0.05509 0.55835 0.0
C676 C 0.70694 0.04048 0.57953 0.0
C677 C 0.74466 0.04615 0.57609 0.0
H678 H 0.69345 0.03308 0.58831 0.0
H679 H 0.76152 0.04343 0.58219 0.0
H680 H 0.7769 1.0 0.65269 0.0
H681 H 0.70917 0.98531 0.65351 0.0
C682 C 0.68228 0.00569 0.6222 0.0
C683 C 0.73261 0.05885 0.67285 0.0
C684 C 0.73748 0.97333 0.56248 0.0
C685 C 0.78843 0.02481 0.61617 0.0
H686 H 0.68928 0.06211 0.69247 0.0
H687 H 0.66145 0.03285 0.66508 0.0
H688 H 0.66417 0.97228 0.58056 0.0
H689 H 0.69456 0.95475 0.54792 0.0
H690 H 0.78166 0.96875 0.54565 0.0
H691 H 0.80961 0.99695 0.57474 0.0
H692 H 0.80599 0.05969 0.65547 0.0
H693 H 0.77526 0.07821 0.68644 0.0
H694 H 0.78631 0.97129 0.68273 0.0
H695 H 0.71762 0.9561 0.6833 0.0
H696 H 0.75379 0.06876 0.54612 0.0
H697 H 0.68467 0.05809 0.55179 0.0
C698 C 0.05422 0.82421 0.57258 0.0
C699 C 0.06086 0.84472 0.58399 0.0
C700 C 0.05057 0.85863 0.56568 0.0
C701 C 0.03819 0.84596 0.54428 0.0
N702 N 0.0398 0.82495 0.54824 0.0
Co703 Co 0.02476 0.80131 0.52231 0.0
N704 N 0.00344 0.82119 0.50436 0.0
C705 C 0.00577 0.84255 0.50467 0.0
C706 C 0.98777 0.85203 0.49128 0.0
C707 C 0.97331 0.83557 0.48195 0.0
C708 C 0.98343 0.81688 0.48999 0.0
N709 N 0.00973 0.7778 0.49626 0.0
C710 C 0.98925 0.77714 0.48243 0.0
C711 C 0.98497 0.75757 0.46618 0.0
C712 C 0.00354 0.74559 0.47024 0.0
C713 C 0.01806 0.75851 0.48859 0.0
N714 N 0.0461 0.78129 0.54005 0.0
C715 C 0.05044 0.76144 0.52831 0.0
C716 C 0.06639 0.75145 0.54515 0.0
C717 C 0.07269 0.76603 0.56873 0.0
C718 C 0.0602 0.78419 0.5649 0.0
N719 N 0.0051 0.79693 0.55344 0.0
C720 C 0.97571 0.79093 0.59683 0.0
C721 C 0.98554 0.7734 0.58189 0.0
C722 C 0.00023 0.77675 0.56043 0.0
C723 C 0.98121 0.81152 0.5897 0.0
C724 C 0.99578 0.81415 0.56794 0.0
N725 N 0.04443 0.80585 0.49112 0.0
C726 C 0.08049 0.81404 0.47718 0.0
C727 C 0.07245 0.81471 0.44719 0.0
C728 C 0.05004 0.81046 0.43964 0.0
C729 C 0.03634 0.80612 0.4619 0.0
C730 C 0.06632 0.80948 0.49863 0.0
H731 H 0.01913 0.80319 0.45549 0.0
H732 H 0.0731 0.80927 0.52143 0.0
H733 H 0.00747 0.76299 0.54924 0.0
H734 H 0.99941 0.83017 0.56277 0.0
C735 C 0.02263 0.85325 0.52299 0.0
C736 C 0.06424 0.80462 0.58298 0.0
C737 C 0.97422 0.79523 0.48282 0.0
C738 C 0.03741 0.75185 0.50369 0.0
H739 H 0.07238 0.84913 0.60309 0.0
H740 H 0.05163 0.87593 0.56813 0.0
H741 H 0.98495 0.86896 0.49 0.0
H742 H 0.95712 0.83728 0.47087 0.0
H743 H 0.97003 0.75251 0.45287 0.0
H744 H 0.00576 0.72911 0.46198 0.0
H745 H 0.07246 0.73538 0.54109 0.0
H746 H 0.08543 0.76376 0.5863 0.0
H747 H 0.98167 0.75716 0.58631 0.0
H748 H 0.97445 0.82561 0.60096 0.0
H749 H 0.09756 0.81753 0.48435 0.0
H750 H 0.04308 0.81046 0.41673 0.0
C751 C 0.30991 0.11388 0.52894 0.0
C752 C 0.32955 0.10283 0.53033 0.0
C753 C 0.34322 0.11272 0.51316 0.0
C754 C 0.3312 0.12904 0.50199 0.0
N755 N 0.31069 0.13037 0.51121 0.0
Co756 Co 0.2871 0.1505 0.49769 0.0
N757 N 0.30687 0.1642 0.47095 0.0
C758 C 0.32817 0.15955 0.46764 0.0
C759 C 0.33779 0.17203 0.44863 0.0
C760 C 0.32176 0.18561 0.43937 0.0
C761 C 0.30316 0.18057 0.45324 0.0
N762 N 0.2633 0.17017 0.48358 0.0
C763 C 0.26354 0.18567 0.46423 0.0
C764 C 0.24322 0.1953 0.4604 0.0
C765 C 0.22973 0.18574 0.47814 0.0
C766 C 0.24245 0.17081 0.49164 0.0
N767 N 0.26746 0.13722 0.52495 0.0
C768 C 0.24669 0.14298 0.52993 0.0
C769 C 0.23749 0.13151 0.55042 0.0
C770 C 0.25321 0.11738 0.55885 0.0
C771 C 0.27111 0.12087 0.54265 0.0
N772 N 0.29715 0.17198 0.5309 0.0
C773 C 0.3112 0.20026 0.5807 0.0
C774 C 0.28892 0.19724 0.57183 0.0
C775 C 0.28232 0.18324 0.54701 0.0
C776 C 0.3264 0.18943 0.5637 0.0
C777 C 0.31906 0.17546 0.53908 0.0
N778 N 0.27718 0.12871 0.46493 0.0
C779 C 0.24998 0.1024 0.44397 0.0
C780 C 0.26584 0.09109 0.42876 0.0
C781 C 0.28681 0.10006 0.42944 0.0
C782 C 0.29202 0.1189 0.44728 0.0
C783 C 0.25595 0.1212 0.46169 0.0
H784 H 0.30841 0.12467 0.4474 0.0
H785 H 0.24338 0.12884 0.47361 0.0
H786 H 0.26513 0.18175 0.54145 0.0
H787 H 0.33144 0.16751 0.52725 0.0
C788 C 0.33849 0.14303 0.48217 0.0
C789 C 0.29081 0.10771 0.54411 0.0
C790 C 0.28255 0.19208 0.44926 0.0
C791 C 0.23576 0.1582 0.51349 0.0
H792 H 0.33356 0.08883 0.54207 0.0
H793 H 0.35981 0.10825 0.50881 0.0
H794 H 0.35449 0.17134 0.44229 0.0
H795 H 0.32357 0.19793 0.42425 0.0
H796 H 0.2387 0.2081 0.44646 0.0
H797 H 0.21277 0.18952 0.48128 0.0
H798 H 0.22113 0.13293 0.55787 0.0
H799 H 0.2515 0.10558 0.57476 0.0
H800 H 0.27655 0.20576 0.58387 0.0
H801 H 0.34386 0.19138 0.5697 0.0
H802 H 0.23338 0.0962 0.44358 0.0
H803 H 0.2994 0.09219 0.41705 0.0
C804 C 0.55722 0.86898 0.06051 0.0
C805 C 0.56813 0.88646 0.0761 0.0
C806 C 0.56324 0.90371 0.06033 0.0
C807 C 0.54962 0.89583 0.03618 0.0
N808 N 0.54541 0.87459 0.03562 0.0
Co809 Co 0.52642 0.85663 0.00463 0.0
N810 N 0.519 0.88208 0.98171 0.0
C811 C 0.5268 0.90232 0.98788 0.0
C812 C 0.51784 0.91647 0.96881 0.0
C813 C 0.50313 0.90466 0.94964 0.0
C814 C 0.504 0.88393 0.95825 0.0
N815 N 0.50733 0.83869 0.97368 0.0
C816 C 0.49359 0.84477 0.95087 0.0
C817 C 0.48242 0.82743 0.93533 0.0
C818 C 0.48909 0.80975 0.94915 0.0
C819 C 0.50384 0.8173 0.97223 0.0
N820 N 0.53371 0.83113 0.02758 0.0
C821 C 0.52684 0.81066 0.0203 0.0
C822 C 0.53479 0.79663 0.04017 0.0
C823 C 0.54757 0.80879 0.0614 0.0
C824 C 0.54662 0.82968 0.05326 0.0
N825 N 0.50066 0.8624 0.02804 0.0
C826 C 0.46368 0.87035 0.0607 0.0
C827 C 0.46842 0.84968 0.04914 0.0
C828 C 0.48678 0.84611 0.03302 0.0
C829 C 0.47775 0.88702 0.05549 0.0
C830 C 0.49605 0.88272 0.0393 0.0
N831 N 0.55237 0.8508 0.98114 0.0
C832 C 0.57534 0.82565 0.95465 0.0
C833 C 0.59028 0.84182 0.95042 0.0
C834 C 0.58572 0.86266 0.96148 0.0
C835 C 0.56684 0.86676 0.97657 0.0
C836 C 0.55671 0.83045 0.96977 0.0
H837 H 0.56445 0.88295 0.98448 0.0
H838 H 0.54627 0.81729 0.97226 0.0
H839 H 0.48934 0.83002 0.02465 0.0
H840 H 0.50625 0.89604 0.03614 0.0
C841 C 0.54074 0.90792 0.01351 0.0
C842 C 0.55886 0.84738 0.07008 0.0
C843 C 0.48946 0.86683 0.94454 0.0
C844 C 0.51309 0.80505 0.99446 0.0
H845 H 0.57864 0.88669 0.09669 0.0
H846 H 0.56901 0.92002 0.06573 0.0
H847 H 0.52094 0.93352 0.96955 0.0
H848 H 0.49248 0.91069 0.9319 0.0
H849 H 0.47018 0.82761 0.91658 0.0
H850 H 0.4832 0.79348 0.94378 0.0
H851 H 0.5318 0.77955 0.03918 0.0
H852 H 0.55676 0.80287 0.08053 0.0
H853 H 0.45782 0.83627 0.05215 0.0
H854 H 0.47487 0.9033 0.0642 0.0
H855 H 0.57819 0.80915 0.94696 0.0
H856 H 0.59662 0.87584 0.95846 0.0
C857 C 0.20954 0.66926 0.01875 0.0
C858 C 0.18675 0.66942 0.01621 0.0
C859 C 0.18006 0.6563 0.99139 0.0
C860 C 0.19904 0.64872 0.98042 0.0
N861 N 0.21748 0.65619 0.99675 0.0
Co862 Co 0.24847 0.64816 0.98989 0.0
N863 N 0.23847 0.62819 0.95441 0.0
C864 C 0.21795 0.62575 0.94092 0.0
C865 C 0.21622 0.61003 0.9177 0.0
C866 C 0.23677 0.60166 0.91683 0.0
C867 C 0.24979 0.61281 0.93966 0.0
N868 N 0.27937 0.63925 0.98375 0.0
C869 C 0.2865 0.62226 0.9668 0.0
C870 C 0.30907 0.62007 0.97091 0.0
C871 C 0.31647 0.63608 0.99181 0.0
C872 C 0.29801 0.64693 0.99927 0.0
N873 N 0.25861 0.66856 0.02493 0.0
C874 C 0.27964 0.67374 0.0347 0.0
C875 C 0.28155 0.68916 0.05818 0.0
C876 C 0.26052 0.69423 0.06367 0.0
C877 C 0.24686 0.68138 0.04329 0.0
N878 N 0.24632 0.62463 0.01651 0.0
C879 C 0.24481 0.5897 0.05237 0.0
C880 C 0.26212 0.60466 0.05658 0.0
C881 C 0.26244 0.6219 0.03879 0.0
C882 C 0.2281 0.59286 0.02997 0.0
C883 C 0.22921 0.61021 0.0124 0.0
N884 N 0.25073 0.67194 0.96295 0.0
C885 C 0.27209 0.69967 0.94357 0.0
C886 C 0.25384 0.70642 0.92626 0.0
C887 C 0.23399 0.6955 0.92749 0.0
C888 C 0.23284 0.67842 0.94559 0.0
C889 C 0.27018 0.68271 0.96157 0.0
H890 H 0.21723 0.67082 0.94509 0.0
H891 H 0.28477 0.67884 0.97427 0.0
H892 H 0.27609 0.63271 0.04312 0.0
H893 H 0.21614 0.61161 0.9954 0.0
C894 C 0.20017 0.63521 0.95427 0.0
C895 C 0.22289 0.68236 0.04175 0.0
C896 C 0.27219 0.60698 0.94851 0.0
C897 C 0.29726 0.66314 0.02238 0.0
H898 H 0.17606 0.67831 0.03061 0.0
H899 H 0.16337 0.65284 0.98229 0.0
H900 H 0.20147 0.60427 0.90449 0.0
H901 H 0.24143 0.58818 0.90214 0.0
H902 H 0.319 0.60773 0.96066 0.0
H903 H 0.33314 0.63882 0.00147 0.0
H904 H 0.29647 0.69588 0.06997 0.0
H905 H 0.25589 0.70618 0.08067 0.0
H906 H 0.27571 0.60295 0.07316 0.0
H907 H 0.21409 0.58209 0.02599 0.0
H908 H 0.28782 0.70772 0.94374 0.0
H909 H 0.21938 0.69992 0.91424 0.0
C910 C 0.48991 0.32776 0.99644 0.0
C911 C 0.48803 0.34893 0.98973 0.0
C912 C 0.50254 0.36053 0.00936 0.0
C913 C 0.51247 0.34585 0.02673 0.0
N914 N 0.50551 0.32547 0.01906 0.0
Co915 Co 0.51523 0.29917 0.03875 0.0
N916 N 0.53558 0.31647 0.06883 0.0
C917 C 0.53903 0.33789 0.07081 0.0
C918 C 0.55396 0.34521 0.09376 0.0
C919 C 0.56075 0.32738 0.10703 0.0
C920 C 0.54961 0.31011 0.09116 0.0
N921 N 0.52464 0.27293 0.05891 0.0
C922 C 0.5398 0.2707 0.08215 0.0
C923 C 0.54172 0.2495 0.08864 0.0
C924 C 0.52727 0.23792 0.06882 0.0
C925 C 0.51744 0.2526 0.05135 0.0
N926 N 0.49515 0.28189 0.00822 0.0
C927 C 0.49239 0.26038 0.00543 0.0
C928 C 0.47696 0.25321 0.98296 0.0
C929 C 0.46923 0.2712 0.97085 0.0
C930 C 0.48048 0.28839 0.98664 0.0
N931 N 0.53955 0.2952 0.01222 0.0
C932 C 0.57724 0.28886 0.98051 0.0
C933 C 0.564 0.27162 0.9859 0.0
C934 C 0.54529 0.27514 0.00129 0.0
C935 C 0.57063 0.30944 0.99006 0.0
C936 C 0.55197 0.31221 0.00582 0.0
N937 N 0.49111 0.30301 0.06552 0.0
C938 C 0.46065 0.28841 0.0886 0.0
C939 C 0.45768 0.30793 0.1049 0.0
C940 C 0.47154 0.32504 0.10094 0.0
C941 C 0.48793 0.32229 0.08114 0.0
C942 C 0.47734 0.28631 0.06924 0.0
H943 H 0.49778 0.33599 0.0788 0.0
H944 H 0.4788 0.27099 0.05762 0.0
H945 H 0.53606 0.26129 0.00466 0.0
H946 H 0.54819 0.32824 0.01304 0.0
C947 C 0.52798 0.35076 0.05082 0.0
C948 C 0.4758 0.31064 0.98159 0.0
C949 C 0.55345 0.28798 0.09766 0.0
C950 C 0.50279 0.24761 0.0262 0.0
H951 H 0.47699 0.35536 0.97276 0.0
H952 H 0.50524 0.37767 0.01113 0.0
H953 H 0.55937 0.36155 0.09999 0.0
H954 H 0.57272 0.32712 0.12608 0.0
H955 H 0.55278 0.24295 0.10546 0.0
H956 H 0.52474 0.22075 0.06678 0.0
H957 H 0.47137 0.2369 0.97692 0.0
H958 H 0.45631 0.27162 0.953 0.0
H959 H 0.56832 0.25531 0.97916 0.0
H960 H 0.5799 0.32344 0.98569 0.0
H961 H 0.45033 0.27468 0.09105 0.0
H962 H 0.46956 0.3406 0.11272 0.0
C963 C 0.7865 0.55363 0.16476 0.0
C964 C 0.76695 0.56312 0.17212 0.0
C965 C 0.75051 0.55217 0.15494 0.0
C966 C 0.76088 0.53656 0.13841 0.0
N967 N 0.78294 0.53666 0.14426 0.0
Co968 Co 0.80429 0.51625 0.1261 0.0
N969 N 0.78032 0.50147 0.09873 0.0
C970 C 0.75889 0.50685 0.09608 0.0
C971 C 0.74644 0.49416 0.07483 0.0
C972 C 0.76072 0.47973 0.06323 0.0
C973 C 0.78113 0.48439 0.07831 0.0
N974 N 0.8255 0.49531 0.10861 0.0
C975 C 0.82192 0.47836 0.08798 0.0
C976 C 0.84112 0.4673 0.08328 0.0
C977 C 0.85743 0.47764 0.10153 0.0
C978 C 0.8473 0.49426 0.11641 0.0
N979 N 0.82832 0.53158 0.15283 0.0
C980 C 0.84996 0.52698 0.15431 0.0
C981 C 0.86272 0.5412 0.17307 0.0
C982 C 0.84846 0.556 0.18391 0.0
C983 C 0.8277 0.54983 0.17124 0.0
N984 N 0.79947 0.49641 0.1571 0.0
C985 C 0.79269 0.4649 0.19636 0.0
C986 C 0.81384 0.4717 0.19205 0.0
C987 C 0.81683 0.48759 0.17278 0.0
C988 C 0.77495 0.47471 0.18182 0.0
C989 C 0.77868 0.49024 0.16232 0.0
N990 N 0.80914 0.53596 0.09501 0.0
C991 C 0.83324 0.55186 0.06278 0.0
C992 C 0.81623 0.56434 0.05124 0.0
C993 C 0.79556 0.56225 0.06201 0.0
C994 C 0.79236 0.54794 0.08343 0.0
C995 C 0.82943 0.5381 0.08466 0.0
H996 H 0.77618 0.54698 0.0904 0.0
H997 H 0.84321 0.5294 0.09285 0.0
H998 H 0.83334 0.49214 0.17053 0.0
H999 H 0.76449 0.4966 0.15119 0.0
C1000 C 0.75063 0.52289 0.11531 0.0
C1001 C 0.80802 0.56222 0.17638 0.0
C1002 C 0.80065 0.47188 0.07274 0.0
C1003 C 0.85784 0.50948 0.13726 0.0
H1004 H 0.76484 0.57694 0.18766 0.0
H1005 H 0.73315 0.55563 0.1539 0.0
H1006 H 0.72897 0.49503 0.06889 0.0
H1007 H 0.75652 0.46705 0.04586 0.0
H1008 H 0.84313 0.45314 0.06834 0.0
H1009 H 0.87462 0.4735 0.10374 0.0
H1010 H 0.88036 0.54109 0.17779 0.0
H1011 H 0.85292 0.56996 0.199 0.0
H1012 H 0.82803 0.46466 0.20332 0.0
H1013 H 0.75825 0.46983 0.18455 0.0
H1014 H 0.84949 0.55251 0.05494 0.0
H1015 H 0.78186 0.5718 0.05435 0.0
H1016 H 0.18991 0.38593 0.3894 0.0
H1017 H 0.14542 0.37335 0.31015 0.0
H1018 H 0.15897 0.3873 0.42028 0.0
H1019 H 0.11445 0.37386 0.34121 0.0
H1020 H 0.06406 0.40173 0.40536 0.0
H1021 H 0.09424 0.3994 0.37267 0.0
H1022 H 0.13192 0.36353 0.43653 0.0
H1023 H 0.10203 0.36603 0.46907 0.0
C1024 C 0.17351 0.38336 0.3786 0.0
C1025 C 0.1701 0.37954 0.34736 0.0
C1026 C 0.1558 0.38394 0.3963 0.0
C1027 C 0.13426 0.38065 0.38317 0.0
C1028 C 0.13083 0.37665 0.35194 0.0
C1029 C 0.14858 0.37608 0.33421 0.0
C1030 C 0.07877 0.39327 0.41222 0.0
C1031 C 0.08084 0.38434 0.43991 0.0
C1032 C 0.096 0.39188 0.39353 0.0
C1033 C 0.11553 0.38144 0.40218 0.0
C1034 C 0.1173 0.37208 0.42954 0.0
C1035 C 0.10018 0.37353 0.44818 0.0
H1036 H 0.70637 0.18774 0.47712 0.0
H1037 H 0.71304 0.1464 0.39676 0.0
H1038 H 0.70328 0.15656 0.50541 0.0
H1039 H 0.7096 0.11509 0.42494 0.0
H1040 H 0.73855 0.07045 0.49475 0.0
H1041 H 0.73369 0.09931 0.46205 0.0
H1042 H 0.68198 0.12522 0.51386 0.0
H1043 H 0.68755 0.09676 0.54745 0.0
C1044 C 0.70665 0.17195 0.4654 0.0
C1045 C 0.71016 0.16943 0.43487 0.0
C1046 C 0.70482 0.15408 0.48156 0.0
C1047 C 0.70635 0.13335 0.46744 0.0
C1048 C 0.70875 0.13087 0.43654 0.0
C1049 C 0.7107 0.14874 0.42042 0.0
C1050 C 0.72611 0.08228 0.49912 0.0
C1051 C 0.71363 0.08151 0.52387 0.0
C1052 C 0.72311 0.09867 0.48014 0.0
C1053 C 0.70749 0.1146 0.48544 0.0
C1054 C 0.69432 0.1133 0.50943 0.0
C1055 C 0.69736 0.09689 0.52847 0.0
H1056 H 0.84697 0.81571 0.39529 0.0
H1057 H 0.84399 0.74868 0.4107 0.0
H1058 H 0.88391 0.81828 0.41992 0.0
H1059 H 0.88095 0.75155 0.43629 0.0
H1060 H 0.94 0.77641 0.50594 0.0
H1061 H 0.90209 0.77174 0.48326 0.0
H1062 H 0.92029 0.80175 0.4057 0.0
H1063 H 0.95802 0.80602 0.42818 0.0
C1064 C 0.8542 0.80149 0.40386 0.0
C1065 C 0.84264 0.78188 0.40055 0.0
C1066 C 0.87532 0.80302 0.41807 0.0
C1067 C 0.88532 0.78506 0.42966 0.0
C1068 C 0.87354 0.76564 0.42757 0.0
C1069 C 0.85239 0.76403 0.41301 0.0
C1070 C 0.93573 0.78193 0.48405 0.0
C1071 C 0.95153 0.79206 0.469 0.0
C1072 C 0.9142 0.7792 0.47107 0.0
C1073 C 0.90827 0.78667 0.44296 0.0
C1074 C 0.92435 0.79623 0.42764 0.0
C1075 C 0.94585 0.7987 0.44043 0.0
H1076 H 0.20977 0.96881 0.3487 0.0
H1077 H 0.27899 0.96678 0.3359 0.0
H1078 H 0.21491 0.00421 0.3758 0.0
H1079 H 0.2841 0.00204 0.36227 0.0
H1080 H 0.2909 0.05597 0.43451 0.0
H1081 H 0.284 0.01997 0.41112 0.0
H1082 H 0.22342 0.04093 0.36693 0.0
H1083 H 0.23019 0.07705 0.39112 0.0
C1084 C 0.22606 0.97592 0.35181 0.0
C1085 C 0.24403 0.96496 0.34062 0.0
C1086 C 0.229 0.9962 0.36713 0.0
C1087 C 0.24993 0.00591 0.3713 0.0
C1088 C 0.26784 0.99485 0.36007 0.0
C1089 C 0.26493 0.97461 0.345 0.0
C1090 C 0.27618 0.05291 0.41963 0.0
C1091 C 0.26123 0.06933 0.41423 0.0
C1092 C 0.27221 0.03229 0.40624 0.0
C1093 C 0.25327 0.02761 0.38691 0.0
C1094 C 0.23806 0.04397 0.38193 0.0
C1095 C 0.24197 0.06464 0.3956 0.0
H1096 H 0.16088 0.85113 0.72318 0.0
H1097 H 0.19955 0.82408 0.65332 0.0
H1098 H 0.12774 0.83635 0.69527 0.0
H1099 H 0.16676 0.80789 0.62684 0.0
H1100 H 0.10391 0.81504 0.56638 0.0
H1101 H 0.13769 0.82245 0.59799 0.0
H1102 H 0.10497 0.80661 0.67518 0.0
H1103 H 0.07072 0.8 0.64305 0.0
C1104 C 0.16241 0.84174 0.70216 0.0
C1105 C 0.18294 0.83923 0.69031 0.0
C1106 C 0.14339 0.83296 0.68635 0.0
C1107 C 0.1445 0.82122 0.6585 0.0
C1108 C 0.16522 0.8173 0.64785 0.0
C1109 C 0.18415 0.82634 0.66338 0.0
C1110 C 0.10411 0.81298 0.59008 0.0
C1111 C 0.08493 0.8071 0.60251 0.0
C1112 C 0.12347 0.81701 0.60822 0.0
C1113 C 0.12416 0.81502 0.63921 0.0
C1114 C 0.10496 0.8085 0.65148 0.0
C1115 C 0.08544 0.8046 0.63321 0.0
H1116 H 0.32683 0.31833 0.68251 0.0
H1117 H 0.32241 0.27576 0.75254 0.0
H1118 H 0.33212 0.28797 0.64686 0.0
H1119 H 0.32788 0.24518 0.71671 0.0
H1120 H 0.29419 0.20304 0.63488 0.0
H1121 H 0.30218 0.23001 0.67637 0.0
H1122 H 0.3528 0.25709 0.62875 0.0
H1123 H 0.34422 0.23034 0.58662 0.0
C1124 C 0.3278 0.30253 0.69055 0.0
C1125 C 0.32392 0.29939 0.72024 0.0
C1126 C 0.33086 0.28508 0.67006 0.0
C1127 C 0.33011 0.26413 0.67887 0.0
C1128 C 0.32811 0.26112 0.70916 0.0
C1129 C 0.325 0.2786 0.72966 0.0
C1130 C 0.30713 0.21466 0.63337 0.0
C1131 C 0.3183 0.21485 0.60734 0.0
C1132 C 0.31197 0.22993 0.65734 0.0
C1133 C 0.3281 0.24575 0.65581 0.0
C1134 C 0.34015 0.24521 0.63044 0.0
C1135 C 0.33533 0.22985 0.60642 0.0
H1136 H 0.86814 0.35182 0.73598 0.0
H1137 H 0.8853 0.28637 0.71107 0.0
H1138 H 0.89161 0.36408 0.69949 0.0
H1139 H 0.9097 0.29871 0.67579 0.0
H1140 H 0.93154 0.32505 0.59211 0.0
H1141 H 0.90733 0.31379 0.62843 0.0
H1142 H 0.92941 0.36782 0.68966 0.0
H1143 H 0.9533 0.37929 0.65289 0.0
C1144 C 0.87698 0.34005 0.72278 0.0
C1145 C 0.87474 0.3181 0.72631 0.0
C1146 C 0.89064 0.3471 0.70211 0.0
C1147 C 0.90247 0.33238 0.68461 0.0
C1148 C 0.90055 0.31046 0.68856 0.0
C1149 C 0.8868 0.3034 0.70911 0.0
C1150 C 0.93118 0.3345 0.61335 0.0
C1151 C 0.94434 0.35297 0.61979 0.0
C1152 C 0.91741 0.32801 0.63421 0.0
C1153 C 0.91659 0.33978 0.66208 0.0
C1154 C 0.92947 0.35851 0.66828 0.0
C1155 C 0.94315 0.36509 0.64728 0.0
H1156 H 0.81892 0.85543 0.76555 0.0
H1157 H 0.74997 0.84183 0.77011 0.0
H1158 H 0.80971 0.88862 0.74327 0.0
H1159 H 0.74071 0.87462 0.74654 0.0
H1160 H 0.73378 0.94595 0.73232 0.0
H1161 H 0.74295 0.91345 0.75687 0.0
H1162 H 0.79338 0.89965 0.6963 0.0
H1163 H 0.78436 0.93208 0.67207 0.0
C1164 C 0.8018 0.85955 0.76182 0.0
C1165 C 0.78517 0.84604 0.76959 0.0
C1166 C 0.79651 0.87845 0.74876 0.0
C1167 C 0.77448 0.8842 0.74309 0.0
C1168 C 0.75784 0.87072 0.75092 0.0
C1169 C 0.76313 0.85182 0.76405 0.0
C1170 C 0.7468 0.93592 0.7243 0.0
C1171 C 0.75847 0.94161 0.70046 0.0
C1172 C 0.75201 0.91732 0.73827 0.0
C1173 C 0.76894 0.90404 0.72856 0.0
C1174 C 0.78055 0.90975 0.70467 0.0
C1175 C 0.77539 0.92834 0.69081 0.0
H1176 H 0.85998 0.78465 0.69767 0.0
H1177 H 0.91371 0.76675 0.75871 0.0
H1178 H 0.88526 0.78811 0.6593 0.0
H1179 H 0.9392 0.77165 0.72105 0.0
H1180 H 0.97659 0.76098 0.63817 0.0
H1181 H 0.95058 0.7561 0.67525 0.0
H1182 H 0.91353 0.81 0.64555 0.0
H1183 H 0.93864 0.81392 0.60718 0.0
C1184 C 0.87719 0.78151 0.70299 0.0
C1185 C 0.88473 0.77538 0.73138 0.0
C1186 C 0.89178 0.78378 0.68105 0.0
C1187 C 0.91435 0.7802 0.68697 0.0
C1188 C 0.92192 0.77426 0.71546 0.0
C1189 C 0.9073 0.77179 0.7373 0.0
C1190 C 0.96271 0.77159 0.63921 0.0
C1191 C 0.95981 0.78788 0.61961 0.0
C1192 C 0.94793 0.76899 0.66083 0.0
C1193 C 0.92994 0.78272 0.66361 0.0
C1194 C 0.92701 0.79895 0.64393 0.0
C1195 C 0.94166 0.80141 0.62215 0.0
H1196 H 0.25113 0.00422 0.64542 0.0
H1197 H 0.3206 0.9942 0.64125 0.0
H1198 H 0.25335 0.03504 0.61563 0.0
H1199 H 0.32291 0.02533 0.61192 0.0
H1200 H 0.31723 0.09889 0.59372 0.0
H1201 H 0.31636 0.06702 0.62188 0.0
H1202 H 0.26304 0.04079 0.56083 0.0
H1203 H 0.26449 0.07229 0.5321 0.0
C1204 C 0.26688 0.00868 0.63823 0.0
C1205 C 0.28569 0.99681 0.64563 0.0
C1206 C 0.26813 0.02623 0.62106 0.0
C1207 C 0.2883 0.03258 0.61145 0.0
C1208 C 0.30717 0.02085 0.61912 0.0
C1209 C 0.30583 0.003 0.63574 0.0
C1210 C 0.30559 0.08612 0.58611 0.0
C1211 C 0.29103 0.08794 0.56064 0.0
C1212 C 0.30506 0.06794 0.60221 0.0
C1213 C 0.28959 0.05145 0.59359 0.0
C1214 C 0.27503 0.0533 0.5681 0.0
C1215 C 0.27589 0.07125 0.55165 0.0
H1216 H 0.15285 0.37085 0.72515 0.0
H1217 H 0.16824 0.43138 0.69211 0.0
H1218 H 0.11761 0.36974 0.6956 0.0
H1219 H 0.13277 0.43052 0.66288 0.0
H1220 H 0.08373 0.40519 0.58442 0.0
H1221 H 0.1165 0.41051 0.61897 0.0
H1222 H 0.08176 0.38517 0.68857 0.0
H1223 H 0.04907 0.37938 0.65326 0.0
C1224 C 0.14849 0.38413 0.712 0.0
C1225 C 0.16333 0.40115 0.71081 0.0
C1226 C 0.12825 0.38353 0.69512 0.0
C1227 C 0.12236 0.40001 0.67676 0.0
C1228 C 0.13694 0.41739 0.67637 0.0
C1229 C 0.15725 0.41791 0.69311 0.0
C1230 C 0.08311 0.40112 0.60729 0.0
C1231 C 0.06403 0.39209 0.61648 0.0
C1232 C 0.10179 0.40423 0.62714 0.0
C1233 C 0.10178 0.39832 0.65662 0.0
C1234 C 0.08239 0.3897 0.66594 0.0
C1235 C 0.06366 0.38653 0.64595 0.0
H1236 H 0.71629 0.18972 0.7521 0.0
H1237 H 0.77788 0.16631 0.78993 0.0
H1238 H 0.70772 0.15421 0.72714 0.0
H1239 H 0.76932 0.13101 0.76523 0.0
H1240 H 0.7191 0.0974 0.6557 0.0
H1241 H 0.72151 0.13185 0.68574 0.0
H1242 H 0.7454 0.09983 0.76326 0.0
H1243 H 0.74329 0.06551 0.73276 0.0
C1244 C 0.72794 0.177 0.75524 0.0
C1245 C 0.74778 0.1809 0.77304 0.0
C1246 C 0.72303 0.15665 0.74095 0.0
C1247 C 0.73783 0.13975 0.74417 0.0
C1248 C 0.75735 0.14353 0.76268 0.0
C1249 C 0.76226 0.16383 0.7769 0.0
C1250 C 0.72445 0.09784 0.6793 0.0
C1251 C 0.73104 0.07905 0.6921 0.0
C1252 C 0.72578 0.11747 0.69655 0.0
C1253 C 0.73379 0.11862 0.72689 0.0
C1254 C 0.73946 0.09954 0.73988 0.0
C1255 C 0.73812 0.07992 0.7226 0.0
H1256 H 0.83245 0.30702 0.459 0.0
H1257 H 0.84051 0.33433 0.37554 0.0
H1258 H 0.8683 0.3212 0.47905 0.0
H1259 H 0.87623 0.34897 0.39573 0.0
H1260 H 0.9493 0.34832 0.42824 0.0
H1261 H 0.91232 0.33672 0.40866 0.0
H1262 H 0.88897 0.353 0.49583 0.0
H1263 H 0.92632 0.3637 0.51543 0.0
C1264 C 0.84174 0.31641 0.44514 0.0
C1265 C 0.83371 0.31954 0.41569 0.0
C1266 C 0.86229 0.32458 0.45663 0.0
C1267 C 0.87523 0.33619 0.43899 0.0
C1268 C 0.86691 0.33976 0.40975 0.0
C1269 C 0.84642 0.33145 0.3982 0.0
C1270 C 0.9362 0.34918 0.44313 0.0
C1271 C 0.94053 0.35633 0.47339 0.0
C1272 C 0.91499 0.34283 0.43191 0.0
C1273 C 0.89763 0.34383 0.45069 0.0
C1274 C 0.902 0.35163 0.48087 0.0
C1275 C 0.92327 0.35785 0.49209 0.0
H1276 H 0.73286 0.88616 0.40073 0.0
H1277 H 0.76824 0.85177 0.4683 0.0
H1278 H 0.72842 0.91615 0.43762 0.0
H1279 H 0.76417 0.88199 0.50529 0.0
H1280 H 0.73383 0.93096 0.5704 0.0
H1281 H 0.73728 0.90056 0.5333 0.0
H1282 H 0.74852 0.94438 0.46665 0.0
H1283 H 0.74424 0.97458 0.50366 0.0
C1284 C 0.74 0.88517 0.42342 0.0
C1285 C 0.75106 0.86668 0.43158 0.0
C1286 C 0.73744 0.90237 0.4446 0.0
C1287 C 0.74597 0.90156 0.47447 0.0
C1288 C 0.7571 0.88305 0.4826 0.0
C1289 C 0.75953 0.86577 0.46141 0.0
C1290 C 0.73684 0.93393 0.54769 0.0
C1291 C 0.73875 0.95494 0.53967 0.0
C1292 C 0.73904 0.9166 0.52653 0.0
C1293 C 0.74328 0.91998 0.49696 0.0
C1294 C 0.74497 0.94114 0.48905 0.0
C1295 C 0.74265 0.95844 0.51018 0.0
H1296 H 0.18357 0.8629 0.3661 0.0
H1297 H 0.13828 0.84466 0.28919 0.0
H1298 H 0.15712 0.85092 0.39895 0.0
H1299 H 0.11152 0.83336 0.32241 0.0
H1300 H 0.06335 0.8388 0.3994 0.0
H1301 H 0.08856 0.84971 0.36389 0.0
H1302 H 0.14065 0.81495 0.40812 0.0
H1303 H 0.11545 0.80341 0.44298 0.0
C1304 C 0.16804 0.85627 0.35612 0.0
C1305 C 0.16321 0.85458 0.32488 0.0
C1306 C 0.15286 0.84947 0.37501 0.0
C1307 C 0.13235 0.84106 0.36321 0.0
C1308 C 0.12718 0.83989 0.33211 0.0
C1309 C 0.14249 0.84647 0.31312 0.0
C1310 C 0.08005 0.83312 0.40125 0.0
C1311 C 0.08735 0.82034 0.4243 0.0
C1312 C 0.0945 0.83946 0.38096 0.0
C1313 C 0.1166 0.83336 0.38346 0.0
C1314 C 0.12379 0.82021 0.406 0.0
C1315 C 0.10933 0.81367 0.42604 0.0
H1316 H 0.29373 0.3141 0.36989 0.0
H1317 H 0.24234 0.2792 0.31428 0.0
H1318 H 0.29843 0.28399 0.40069 0.0
H1319 H 0.24733 0.24901 0.34484 0.0
H1320 H 0.27754 0.19083 0.3883 0.0
H1321 H 0.27362 0.22105 0.35704 0.0
H1322 H 0.27941 0.26495 0.43662 0.0
H1323 H 0.28349 0.23461 0.46759 0.0
C1324 C 0.28328 0.30012 0.3643 0.0
C1325 C 0.26762 0.29924 0.33945 0.0
C1326 C 0.28603 0.28278 0.38199 0.0
C1327 C 0.27329 0.26399 0.3753 0.0
C1328 C 0.25769 0.26306 0.35043 0.0
C1329 C 0.25485 0.28043 0.33283 0.0
C1330 C 0.27805 0.20699 0.39893 0.0
C1331 C 0.28087 0.2105 0.43023 0.0
C1332 C 0.27567 0.22429 0.38113 0.0
C1333 C 0.27616 0.24551 0.39425 0.0
C1334 C 0.2792 0.2489 0.42569 0.0
C1335 C 0.28145 0.23158 0.44346 0.0
H1336 H 0.71922 0.83386 0.87661 0.0
H1337 H 0.69589 0.76907 0.88054 0.0
H1338 H 0.68499 0.84742 0.89517 0.0
H1339 H 0.66171 0.78263 0.89828 0.0
H1340 H 0.595 0.81334 0.90185 0.0
H1341 H 0.6288 0.8024 0.88008 0.0
H1342 H 0.66557 0.84781 0.94251 0.0
H1343 H 0.63177 0.85857 0.96475 0.0
C1344 C 0.70685 0.8225 0.88141 0.0
C1345 C 0.71033 0.80034 0.87687 0.0
C1346 C 0.68724 0.83029 0.89198 0.0
C1347 C 0.67061 0.8161 0.898 0.0
C1348 C 0.67403 0.79399 0.89331 0.0
C1349 C 0.69365 0.78622 0.88302 0.0
C1350 C 0.61028 0.82097 0.91105 0.0
C1351 C 0.61065 0.83667 0.93532 0.0
C1352 C 0.62964 0.81472 0.8985 0.0
C1353 C 0.64987 0.8241 0.90975 0.0
C1354 C 0.6502 0.8404 0.9332 0.0
C1355 C 0.63081 0.84659 0.94591 0.0
H1356 H 0.23173 0.8126 0.81222 0.0
H1357 H 0.30168 0.81277 0.83482 0.0
H1358 H 0.22759 0.78171 0.8409 0.0
H1359 H 0.2976 0.78223 0.86411 0.0
H1360 H 0.28658 0.71495 0.89066 0.0
H1361 H 0.29005 0.74522 0.86074 0.0
H1362 H 0.22876 0.77009 0.88963 0.0
H1363 H 0.22512 0.73946 0.91899 0.0
C1364 C 0.24622 0.80617 0.82359 0.0
C1365 C 0.26705 0.81518 0.82114 0.0
C1366 C 0.24385 0.78844 0.84015 0.0
C1367 C 0.26224 0.77929 0.85496 0.0
C1368 C 0.28306 0.78845 0.85261 0.0
C1369 C 0.28543 0.80606 0.83585 0.0
C1370 C 0.27387 0.72692 0.8907 0.0
C1371 C 0.25559 0.72475 0.90733 0.0
C1372 C 0.27589 0.74438 0.87358 0.0
C1373 C 0.25977 0.76034 0.87274 0.0
C1374 C 0.24138 0.75805 0.88924 0.0
C1375 C 0.23928 0.74047 0.90618 0.0
H1376 H 0.34547 0.34687 0.91162 0.0
H1377 H 0.38841 0.36178 0.8443 0.0
H1378 H 0.37625 0.33226 0.94062 0.0
H1379 H 0.41952 0.34837 0.87429 0.0
H1380 H 0.46743 0.30418 0.92096 0.0
H1381 H 0.43549 0.31615 0.89052 0.0
H1382 H 0.40841 0.34347 0.97087 0.0
H1383 H 0.43988 0.33064 0.00098 0.0
C1384 C 0.36149 0.34706 0.90298 0.0
C1385 C 0.36441 0.35545 0.87552 0.0
C1386 C 0.37922 0.33891 0.91984 0.0
C1387 C 0.40042 0.33913 0.90986 0.0
C1388 C 0.40339 0.34766 0.88249 0.0
C1389 C 0.38559 0.35567 0.86549 0.0
C1390 C 0.45437 0.31243 0.93192 0.0
C1391 C 0.4558 0.31633 0.96315 0.0
C1392 C 0.43624 0.31952 0.91458 0.0
C1393 C 0.41936 0.33084 0.92821 0.0
C1394 C 0.42087 0.33451 0.95961 0.0
C1395 C 0.43888 0.32727 0.97688 0.0
H1396 H 0.79411 0.34262 0.98405 0.0
H1397 H 0.77864 0.38414 0.91352 0.0
H1398 H 0.79808 0.37376 0.02052 0.0
H1399 H 0.78179 0.41514 0.95005 0.0
H1400 H 0.81481 0.46673 0.01687 0.0
H1401 H 0.81058 0.43506 0.98108 0.0
H1402 H 0.77709 0.40204 0.04512 0.0
H1403 H 0.78185 0.43368 0.08095 0.0
C1404 C 0.79139 0.35837 0.97637 0.0
C1405 C 0.78604 0.36088 0.94587 0.0
C1406 C 0.79349 0.37621 0.9973 0.0
C1407 C 0.79036 0.39696 0.98819 0.0
C1408 C 0.78461 0.39941 0.95777 0.0
C1409 C 0.78248 0.3816 0.93688 0.0
C1410 C 0.80669 0.45259 0.02317 0.0
C1411 C 0.7987 0.45243 0.05147 0.0
C1412 C 0.80408 0.43455 0.0027 0.0
C1413 C 0.79339 0.41603 0.01018 0.0
C1414 C 0.78559 0.41593 0.03875 0.0
C1415 C 0.7882 0.43399 0.05919 0.0
H1416 H 0.67907 0.26616 0.19719 0.0
H1417 H 0.63498 0.28885 0.26299 0.0
H1418 H 0.64915 0.26625 0.15811 0.0
H1419 H 0.60556 0.29047 0.2237 0.0
H1420 H 0.551 0.27334 0.15262 0.0
H1421 H 0.5812 0.26888 0.19061 0.0
H1422 H 0.62719 0.28959 0.13037 0.0
H1423 H 0.59697 0.29282 0.09211 0.0
C1424 C 0.66304 0.27126 0.20335 0.0
C1425 C 0.6595 0.27752 0.23331 0.0
C1426 C 0.64591 0.27155 0.18084 0.0
C1427 C 0.62487 0.27832 0.18768 0.0
C1428 C 0.62141 0.28479 0.2176 0.0
C1429 C 0.63846 0.28427 0.24013 0.0
C1430 C 0.56766 0.27647 0.14751 0.0
C1431 C 0.57184 0.28328 0.11962 0.0
C1432 C 0.58493 0.27422 0.1693 0.0
C1433 C 0.60667 0.27908 0.16372 0.0
C1434 C 0.61076 0.28542 0.13538 0.0
C1435 C 0.59351 0.28739 0.11351 0.0
H1436 H 0.756 0.67872 0.24507 0.0
H1437 H 0.82063 0.6836 0.29155 0.0
H1438 H 0.76614 0.64544 0.21777 0.0
H1439 H 0.83078 0.64983 0.26437 0.0
H1440 H 0.81997 0.57382 0.23548 0.0
H1441 H 0.81633 0.6093 0.26214 0.0
H1442 H 0.79422 0.63477 0.17879 0.0
H1443 H 0.79829 0.59949 0.15224 0.0
C1444 C 0.77236 0.67254 0.2495 0.0
C1445 C 0.78751 0.68355 0.27052 0.0
C1446 C 0.77822 0.65363 0.23373 0.0
C1447 C 0.79926 0.64514 0.2389 0.0
C1448 C 0.81445 0.65607 0.26005 0.0
C1449 C 0.80869 0.67531 0.27548 0.0
C1450 C 0.81497 0.58721 0.22289 0.0
C1451 C 0.80947 0.58411 0.19191 0.0
C1452 C 0.81285 0.60743 0.23806 0.0
C1453 C 0.80485 0.62468 0.2225 0.0
C1454 C 0.80028 0.62169 0.19131 0.0
C1455 C 0.80268 0.60161 0.17614 0.0
H1456 H 0.36689 0.87635 0.19305 0.0
H1457 H 0.33137 0.89336 0.11162 0.0
H1458 H 0.40084 0.87499 0.16814 0.0
H1459 H 0.36539 0.89192 0.08659 0.0
H1460 H 0.43429 0.90315 0.05746 0.0
H1461 H 0.40158 0.90869 0.08491 0.0
H1462 H 0.41609 0.85151 0.12974 0.0
H1463 H 0.44901 0.84641 0.10316 0.0
C1464 C 0.36633 0.87976 0.16979 0.0
C1465 C 0.34639 0.88474 0.15423 0.0
C1466 C 0.38579 0.87898 0.15552 0.0
C1467 C 0.3858 0.88315 0.12529 0.0
C1468 C 0.36599 0.88883 0.10997 0.0
C1469 C 0.34649 0.88963 0.1243 0.0
C1470 C 0.43062 0.89195 0.07349 0.0
C1471 C 0.44421 0.87429 0.07805 0.0
C1472 C 0.41177 0.895 0.08898 0.0
C1473 C 0.4062 0.88054 0.1095 0.0
C1474 C 0.42001 0.8631 0.11436 0.0
C1475 C 0.43876 0.86002 0.09885 0.0
H1476 H 0.21306 0.47635 0.14328 0.0
H1477 H 0.28172 0.48984 0.1692 0.0
H1478 H 0.21178 0.5068 0.11278 0.0
H1479 H 0.28 0.52073 0.13977 0.0
H1480 H 0.25993 0.58772 0.11151 0.0
H1481 H 0.26077 0.55687 0.14103 0.0
H1482 H 0.22882 0.51828 0.06598 0.0
H1483 H 0.22877 0.54884 0.03576 0.0
C1484 C 0.22793 0.48563 0.14244 0.0
C1485 C 0.2475 0.48046 0.15896 0.0
C1486 C 0.22713 0.50318 0.12501 0.0
C1487 C 0.24575 0.51624 0.12396 0.0
C1488 C 0.26527 0.51117 0.14044 0.0
C1489 C 0.26619 0.49346 0.15749 0.0
C1490 C 0.25334 0.57265 0.10099 0.0
C1491 C 0.24441 0.57094 0.07098 0.0
C1492 C 0.25374 0.55496 0.11806 0.0
C1493 C 0.24491 0.53512 0.10584 0.0
C1494 C 0.23557 0.53341 0.07612 0.0
C1495 C 0.23546 0.55103 0.05885 0.0
H1496 H 0.33898 0.3001 0.19918 0.0
H1497 H 0.36619 0.36339 0.22349 0.0
H1498 H 0.37158 0.29037 0.1733 0.0
H1499 H 0.39846 0.35393 0.1973 0.0
H1500 H 0.46038 0.3276 0.16159 0.0
H1501 H 0.43095 0.33285 0.19493 0.0
H1502 H 0.3857 0.29961 0.12766 0.0
H1503 H 0.4152 0.29406 0.09471 0.0
C1504 C 0.35207 0.31181 0.19928 0.0
C1505 C 0.3501 0.33247 0.21336 0.0
C1506 C 0.37066 0.30632 0.18435 0.0
C1507 C 0.38755 0.32143 0.183 0.0
C1508 C 0.38595 0.34179 0.19824 0.0
C1509 C 0.36744 0.34722 0.21331 0.0
C1510 C 0.44413 0.32142 0.15402 0.0
C1511 C 0.44004 0.31051 0.12554 0.0
C1512 C 0.42728 0.32439 0.17309 0.0
C1513 C 0.40595 0.31666 0.16398 0.0
C1514 C 0.402 0.30542 0.13565 0.0
C1515 C 0.41888 0.30233 0.11668 0.0
H1516 H 0.79668 0.34669 0.28621 0.0
H1517 H 0.72974 0.36803 0.2864 0.0
H1518 H 0.8068 0.3789 0.26338 0.0
H1519 H 0.73939 0.39975 0.26224 0.0
H1520 H 0.76567 0.4634 0.24144 0.0
H1521 H 0.75802 0.43274 0.26916 0.0
H1522 H 0.80299 0.39473 0.21797 0.0
H1523 H 0.81128 0.42572 0.19151 0.0
C1524 C 0.78413 0.35825 0.28104 0.0
C1525 C 0.76247 0.35499 0.28794 0.0
C1526 C 0.78985 0.37665 0.26787 0.0
C1527 C 0.77392 0.39198 0.26088 0.0
C1528 C 0.75221 0.38857 0.26783 0.0
C1529 C 0.7466 0.37035 0.28146 0.0
C1530 C 0.77401 0.44849 0.23645 0.0
C1531 C 0.78907 0.44685 0.21449 0.0
C1532 C 0.76954 0.43088 0.25211 0.0
C1533 C 0.77975 0.41115 0.2457 0.0
C1534 C 0.79509 0.40971 0.22394 0.0
C1535 C 0.79981 0.42743 0.20867 0.0
H1536 H 0.62778 0.78692 0.21526 0.0
H1537 H 0.67252 0.83691 0.19738 0.0
H1538 H 0.60064 0.79923 0.17781 0.0
H1539 H 0.64543 0.84925 0.16007 0.0
H1540 H 0.60308 0.84588 0.07011 0.0
H1541 H 0.62947 0.83618 0.11046 0.0
H1542 H 0.5764 0.82916 0.16697 0.0
H1543 H 0.55008 0.83859 0.12615 0.0
C1544 C 0.6317 0.80068 0.20358 0.0
C1545 C 0.65235 0.81082 0.20904 0.0
C1546 C 0.61616 0.80776 0.18218 0.0
C1547 C 0.62095 0.82514 0.16587 0.0
C1548 C 0.64141 0.83557 0.17187 0.0
C1549 C 0.65692 0.82849 0.19321 0.0
C1550 C 0.59723 0.84242 0.09132 0.0
C1551 C 0.57476 0.8429 0.09532 0.0
C1552 C 0.61224 0.83697 0.11442 0.0
C1553 C 0.605 0.83189 0.14191 0.0
C1554 C 0.58244 0.83275 0.14595 0.0
C1555 C 0.56743 0.83825 0.1228 0.0
H1556 H 0.20403 0.80677 0.11907 0.0
H1557 H 0.17964 0.76993 0.18657 0.0
H1558 H 0.20531 0.77478 0.08554 0.0
H1559 H 0.18033 0.73752 0.15235 0.0
H1560 H 0.22129 0.6851 0.1023 0.0
H1561 H 0.20874 0.71535 0.13405 0.0
H1562 H 0.18709 0.74682 0.055 0.0
H1563 H 0.20089 0.71705 0.02365 0.0
C1564 C 0.19811 0.79191 0.12634 0.0
C1565 C 0.19165 0.79088 0.15545 0.0
C1566 C 0.19884 0.77347 0.10702 0.0
C1567 C 0.19295 0.75349 0.11619 0.0
C1568 C 0.18528 0.75261 0.14474 0.0
C1569 C 0.18475 0.77114 0.16427 0.0
C1570 C 0.21359 0.69845 0.09192 0.0
C1571 C 0.21229 0.69907 0.06076 0.0
C1572 C 0.2062 0.71567 0.10999 0.0
C1573 C 0.19711 0.73367 0.0971 0.0
C1574 C 0.19444 0.73345 0.0657 0.0
C1575 C 0.20216 0.71639 0.04772 0.0
H1576 H 0.39263 0.90456 0.8069 0.0
H1577 H 0.35534 0.87274 0.86814 0.0
H1578 H 0.42613 0.90003 0.83883 0.0
H1579 H 0.38893 0.86818 0.90017 0.0
H1580 H 0.45091 0.88115 0.96369 0.0
H1581 H 0.41716 0.8884 0.93305 0.0
H1582 H 0.44975 0.87067 0.85299 0.0
H1583 H 0.48346 0.86386 0.88386 0.0
C1584 C 0.39162 0.89648 0.82712 0.0
C1585 C 0.37138 0.88883 0.83489 0.0
C1586 C 0.41081 0.8939 0.84541 0.0
C1587 C 0.4102 0.88364 0.87192 0.0
C1588 C 0.3899 0.87637 0.88004 0.0
C1589 C 0.37067 0.87896 0.86171 0.0
C1590 C 0.45072 0.879 0.93951 0.0
C1591 C 0.46949 0.87199 0.92588 0.0
C1592 C 0.43147 0.88297 0.92202 0.0
C1593 C 0.43078 0.88005 0.89061 0.0
C1594 C 0.44983 0.87332 0.8771 0.0
C1595 C 0.46904 0.86933 0.89463 0.0
H1596 H 0.26303 0.47235 0.90483 0.0
H1597 H 0.32925 0.4862 0.88473 0.0
H1598 H 0.25979 0.5087 0.92719 0.0
H1599 H 0.32609 0.52272 0.90742 0.0
H1600 H 0.29672 0.59105 0.90429 0.0
H1601 H 0.30544 0.5535 0.89167 0.0
H1602 H 0.27183 0.53559 0.967 0.0
H1603 H 0.2628 0.57319 0.97894 0.0
C1604 C 0.27717 0.48297 0.90611 0.0
C1605 C 0.2964 0.47645 0.89302 0.0
C1606 C 0.2753 0.50385 0.91887 0.0
C1607 C 0.29262 0.51866 0.91885 0.0
C1608 C 0.31232 0.51178 0.90731 0.0
C1609 C 0.31418 0.49087 0.89446 0.0
C1610 C 0.29152 0.579 0.91821 0.0
C1611 C 0.27917 0.58468 0.94244 0.0
C1612 C 0.29659 0.55758 0.91122 0.0
C1613 C 0.28934 0.54156 0.92838 0.0
C1614 C 0.27746 0.54752 0.9532 0.0
C1615 C 0.27237 0.56893 0.96012 0.0
H1616 H 0.71428 0.28108 0.94168 0.0
H1617 H 0.67801 0.2603 0.85765 0.0
H1618 H 0.68024 0.28343 0.96595 0.0
H1619 H 0.64387 0.26446 0.8813 0.0
H1620 H 0.58604 0.25815 0.93594 0.0
H1621 H 0.62067 0.25134 0.9143 0.0
H1622 H 0.64992 0.30577 0.96879 0.0
H1623 H 0.61592 0.31141 0.99232 0.0
C1624 C 0.69909 0.27686 0.92837 0.0
C1625 C 0.69896 0.27064 0.8976 0.0
C1626 C 0.67947 0.27859 0.94221 0.0
C1627 C 0.65919 0.27446 0.92556 0.0
C1628 C 0.65912 0.26763 0.89498 0.0
C1629 C 0.67875 0.26556 0.88126 0.0
C1630 C 0.59994 0.26847 0.94371 0.0
C1631 C 0.59808 0.28534 0.96598 0.0
C1632 C 0.61978 0.26473 0.93094 0.0
C1633 C 0.6382 0.27798 0.93974 0.0
C1634 C 0.63626 0.29497 0.96178 0.0
C1635 C 0.61654 0.29849 0.97489 0.0
H1636 H 0.81017 0.64032 0.89711 0.0
H1637 H 0.853 0.67595 0.9651 0.0
H1638 H 0.80945 0.6108 0.92843 0.0
H1639 H 0.85041 0.64734 0.99766 0.0
H1640 H 0.85349 0.58793 0.04574 0.0
H1641 H 0.85948 0.61305 0.00902 0.0
H1642 H 0.79288 0.60212 0.97024 0.0
H1643 H 0.78766 0.57544 0.00493 0.0
C1644 C 0.81961 0.64186 0.91861 0.0
C1645 C 0.83152 0.66071 0.92856 0.0
C1646 C 0.81883 0.62502 0.9369 0.0
C1647 C 0.82953 0.62673 0.9659 0.0
C1648 C 0.84206 0.64527 0.97544 0.0
C1649 C 0.84324 0.66192 0.95689 0.0
C1650 C 0.84028 0.59044 0.02893 0.0
C1651 C 0.82004 0.57959 0.0285 0.0
C1652 C 0.84361 0.60519 0.0081 0.0
C1653 C 0.82665 0.60983 0.98665 0.0
C1654 C 0.8065 0.59881 0.98604 0.0
C1655 C 0.80333 0.58374 0.00645 0.0
loop_
_geom_bond_atom_site_label_1
_geom_bond_atom_site_label_2
_geom_bond_distance
_geom_bond_site_symmetry_2
_ccdc_geom_bond_type
H0 O26 0.856 . S
H1 O29 0.854 . S
H2 C37 0.930 . S
H3 C38 0.930 . S
H4 C40 0.930 . S
H5 C41 0.930 . S
H6 C43 0.931 . S
H7 C44 0.930 . S
H8 C46 0.930 . S
H9 C47 0.929 . S
H10 C49 0.930 . S
H11 C50 0.931 . S
H12 C52 0.930 . S
H13 C53 0.929 . S
H14 C55 0.931 . S
H15 C56 0.930 . S
H16 C58 0.930 . S
H17 C59 0.932 . S
H18 C61 0.930 . S
H19 C62 0.929 . S
H20 C64 0.931 . S
H21 C65 0.930 . S
H22 C67 0.929 . S
H23 C68 0.931 . S
H24 C70 0.930 . S
H25 C71 0.929 . S
O26 H0 0.856 . S
O26 C72 1.300 . S
O27 C72 1.209 . S
O28 C73 1.199 . S
O29 H1 0.854 . S
O29 C73 1.297 . S
C30 C31 1.404 . S
C30 C35 1.397 . S
C30 C36 1.492 . S
C31 C30 1.404 . S
C31 C32 1.396 . S
C31 C42 1.492 . S
C32 C31 1.396 . S
C32 C33 1.397 . S
C32 C48 1.509 . S
C33 C32 1.397 . S
C33 C34 1.412 . S
C33 C54 1.485 . S
C34 C33 1.412 . S
C34 C35 1.388 . S
C34 C60 1.490 . S
C35 C30 1.397 . S
C35 C34 1.388 . S
C35 C66 1.519 . S
C36 C30 1.492 . S
C36 C37 1.363 . S
C36 C41 1.390 . S
C37 H2 0.930 . S
C37 C36 1.363 . S
C37 C38 1.372 . S
C38 H3 0.930 . S
C38 C37 1.372 . S
C38 C39 1.383 . S
C39 C38 1.383 . S
C39 C40 1.395 . S
C40 H4 0.930 . S
C40 C39 1.395 . S
C40 C41 1.362 . S
C41 H5 0.930 . S
C41 C36 1.390 . S
C41 C40 1.362 . S
C42 C31 1.492 . S
C42 C43 1.377 . S
C42 C47 1.397 . S
C43 H6 0.931 . S
C43 C42 1.377 . S
C43 C44 1.376 . S
C44 H7 0.930 . S
C44 C43 1.376 . S
C44 C45 1.376 . S
C45 C44 1.376 . S
C45 C46 1.378 . S
C45 C72 1.486 . S
C46 H8 0.930 . S
C46 C45 1.378 . S
C46 C47 1.376 . S
C47 H9 0.929 . S
C47 C42 1.397 . S
C47 C46 1.376 . S
C48 C32 1.509 . S
C48 C49 1.391 . S
C48 C53 1.386 . S
C49 H10 0.930 . S
C49 C48 1.391 . S
C49 C50 1.375 . S
C50 H11 0.931 . S
C50 C49 1.375 . S
C50 C51 1.375 . S
C51 C50 1.375 . S
C51 C52 1.361 . S
C52 H12 0.930 . S
C52 C51 1.361 . S
C52 C53 1.399 . S
C53 H13 0.929 . S
C53 C48 1.386 . S
C53 C52 1.399 . S
C54 C33 1.485 . S
C54 C55 1.394 . S
C54 C59 1.360 . S
C55 H14 0.931 . S
C55 C54 1.394 . S
C55 C56 1.372 . S
C56 H15 0.930 . S
C56 C55 1.372 . S
C56 C57 1.397 . S
C57 C56 1.397 . S
C57 C58 1.390 . S
C57 C73 1.476 . S
C58 H16 0.930 . S
C58 C57 1.390 . S
C58 C59 1.366 . S
C59 H17 0.932 . S
C59 C54 1.360 . S
C59 C58 1.366 . S
C60 C34 1.490 . S
C60 C61 1.380 . S
C60 C65 1.386 . S
C61 H18 0.930 . S
C61 C60 1.380 . S
C61 C62 1.381 . S
C62 H19 0.929 . S
C62 C61 1.381 . S
C62 C63 1.371 . S
C63 C62 1.371 . S
C63 C64 1.380 . S
C64 H20 0.931 . S
C64 C63 1.380 . S
C64 C65 1.387 . S
C65 H21 0.930 . S
C65 C60 1.386 . S
C65 C64 1.387 . S
C66 C35 1.519 . S
C66 C67 1.377 . S
C66 C71 1.361 . S
C67 H22 0.929 . S
C67 C66 1.377 . S
C67 C68 1.386 . S
C68 H23 0.931 . S
C68 C67 1.386 . S
C68 C69 1.363 . S
C69 C68 1.363 . S
C69 C70 1.385 . S
C70 H24 0.930 . S
C70 C69 1.385 . S
C70 C71 1.396 . S
C71 H25 0.929 . S
C71 C66 1.361 . S
C71 C70 1.396 . S
C72 O26 1.300 . S
C72 O27 1.209 . S
C72 C45 1.486 . S
C73 O28 1.199 . S
C73 O29 1.297 . S
C73 C57 1.476 . S
H74 O100 0.856 . S
H75 O103 0.854 . S
H76 C111 0.930 . S
H77 C112 0.930 . S
H78 C114 0.930 . S
H79 C115 0.930 . S
H80 C117 0.931 . S
H81 C118 0.930 . S
H82 C120 0.930 . S
H83 C121 0.929 . S
H84 C123 0.930 . S
H85 C124 0.931 . S
H86 C126 0.930 . S
H87 C127 0.929 . S
H88 C129 0.931 . S
H89 C130 0.930 . S
H90 C132 0.930 . S
H91 C133 0.932 . S
H92 C135 0.930 . S
H93 C136 0.929 . S
H94 C138 0.931 . S
H95 C139 0.930 . S
H96 C141 0.929 . S
H97 C142 0.931 . S
H98 C144 0.930 . S
H99 C145 0.929 . S
O100 H74 0.856 . S
O100 C146 1.300 . S
O101 C146 1.209 . S
O102 C147 1.199 . S
O103 H75 0.854 . S
O103 C147 1.297 . S
C104 C105 1.404 . S
C104 C109 1.397 . S
C104 C110 1.492 . S
C105 C104 1.404 . S
C105 C106 1.396 . S
C105 C116 1.492 . S
C106 C105 1.396 . S
C106 C107 1.397 . S
C106 C122 1.509 . S
C107 C106 1.397 . S
C107 C108 1.412 . S
C107 C128 1.485 . S
C108 C107 1.412 . S
C108 C109 1.388 . S
C108 C134 1.490 . S
C109 C104 1.397 . S
C109 C108 1.388 . S
C109 C140 1.519 . S
C110 C104 1.492 . S
C110 C111 1.363 . S
C110 C115 1.390 . S
C111 H76 0.930 . S
C111 C110 1.363 . S
C111 C112 1.372 . S
C112 H77 0.930 . S
C112 C111 1.372 . S
C112 C113 1.383 . S
C113 C112 1.383 . S
C113 C114 1.395 . S
C114 H78 0.930 . S
C114 C113 1.395 . S
C114 C115 1.362 . S
C115 H79 0.930 . S
C115 C110 1.390 . S
C115 C114 1.362 . S
C116 C105 1.492 . S
C116 C117 1.377 . S
C116 C121 1.397 . S
C117 H80 0.931 . S
C117 C116 1.377 . S
C117 C118 1.376 . S
C118 H81 0.930 . S
C118 C117 1.376 . S
C118 C119 1.376 . S
C119 C118 1.376 . S
C119 C120 1.378 . S
C119 C146 1.486 . S
C120 H82 0.930 . S
C120 C119 1.378 . S
C120 C121 1.376 . S
C121 H83 0.929 . S
C121 C116 1.397 . S
C121 C120 1.376 . S
C122 C106 1.509 . S
C122 C123 1.391 . S
C122 C127 1.386 . S
C123 H84 0.930 . S
C123 C122 1.391 . S
C123 C124 1.375 . S
C124 H85 0.931 . S
C124 C123 1.375 . S
C124 C125 1.375 . S
C125 C124 1.375 . S
C125 C126 1.361 . S
C126 H86 0.930 . S
C126 C125 1.361 . S
C126 C127 1.399 . S
C127 H87 0.929 . S
C127 C122 1.386 . S
C127 C126 1.399 . S
C128 C107 1.485 . S
C128 C129 1.394 . S
C128 C133 1.360 . S
C129 H88 0.931 . S
C129 C128 1.394 . S
C129 C130 1.372 . S
C130 H89 0.930 . S
C130 C129 1.372 . S
C130 C131 1.397 . S
C131 C130 1.397 . S
C131 C132 1.390 . S
C131 C147 1.476 . S
C132 H90 0.930 . S
C132 C131 1.390 . S
C132 C133 1.366 . S
C133 H91 0.932 . S
C133 C128 1.360 . S
C133 C132 1.366 . S
C134 C108 1.490 . S
C134 C135 1.380 . S
C134 C139 1.386 . S
C135 H92 0.930 . S
C135 C134 1.380 . S
C135 C136 1.381 . S
C136 H93 0.929 . S
C136 C135 1.381 . S
C136 C137 1.371 . S
C137 C136 1.371 . S
C137 C138 1.380 . S
C138 H94 0.931 . S
C138 C137 1.380 . S
C138 C139 1.387 . S
C139 H95 0.930 . S
C139 C134 1.386 . S
C139 C138 1.387 . S
C140 C109 1.519 . S
C140 C141 1.377 . S
C140 C145 1.361 . S
C141 H96 0.929 . S
C141 C140 1.377 . S
C141 C142 1.386 . S
C142 H97 0.931 . S
C142 C141 1.386 . S
C142 C143 1.363 . S
C143 C142 1.363 . S
C143 C144 1.385 . S
C144 H98 0.930 . S
C144 C143 1.385 . S
C144 C145 1.396 . S
C145 H99 0.929 . S
C145 C140 1.361 . S
C145 C144 1.396 . S
C146 O100 1.300 . S
C146 O101 1.209 . S
C146 C119 1.486 . S
C147 O102 1.199 . S
C147 O103 1.297 . S
C147 C131 1.476 . S
H148 O174 0.856 . S
H149 O177 0.854 . S
H150 C185 0.930 . S
H151 C186 0.930 . S
H152 C188 0.930 . S
H153 C189 0.930 . S
H154 C191 0.931 . S
H155 C192 0.930 . S
H156 C194 0.930 . S
H157 C195 0.929 . S
H158 C197 0.930 . S
H159 C198 0.931 . S
H160 C200 0.930 . S
H161 C201 0.929 . S
H162 C203 0.931 . S
H163 C204 0.930 . S
H164 C206 0.930 . S
H165 C207 0.932 . S
H166 C209 0.930 . S
H167 C210 0.929 . S
H168 C212 0.931 . S
H169 C213 0.930 . S
H170 C215 0.929 . S
H171 C216 0.931 . S
H172 C218 0.930 . S
H173 C219 0.929 . S
O174 H148 0.856 . S
O174 C220 1.300 . S
O175 C220 1.209 . S
O176 C221 1.199 . S
O177 H149 0.854 . S
O177 C221 1.297 . S
C178 C179 1.404 . S
C178 C183 1.397 . S
C178 C184 1.492 . S
C179 C178 1.404 . S
C179 C180 1.396 . S
C179 C190 1.492 . S
C180 C179 1.396 . S
C180 C181 1.397 . S
C180 C196 1.509 . S
C181 C180 1.397 . S
C181 C182 1.412 . S
C181 C202 1.485 . S
C182 C181 1.412 . S
C182 C183 1.388 . S
C182 C208 1.490 . S
C183 C178 1.397 . S
C183 C182 1.388 . S
C183 C214 1.519 . S
C184 C178 1.492 . S
C184 C185 1.363 . S
C184 C189 1.390 . S
C185 H150 0.930 . S
C185 C184 1.363 . S
C185 C186 1.372 . S
C186 H151 0.930 . S
C186 C185 1.372 . S
C186 C187 1.383 . S
C187 C186 1.383 . S
C187 C188 1.395 . S
C188 H152 0.930 . S
C188 C187 1.395 . S
C188 C189 1.362 . S
C189 H153 0.930 . S
C189 C184 1.390 . S
C189 C188 1.362 . S
C190 C179 1.492 . S
C190 C191 1.377 . S
C190 C195 1.397 . S
C191 H154 0.931 . S
C191 C190 1.377 . S
C191 C192 1.376 . S
C192 H155 0.930 . S
C192 C191 1.376 . S
C192 C193 1.376 . S
C193 C192 1.376 . S
C193 C194 1.378 . S
C193 C220 1.486 . S
C194 H156 0.930 . S
C194 C193 1.378 . S
C194 C195 1.376 . S
C195 H157 0.929 . S
C195 C190 1.397 . S
C195 C194 1.376 . S
C196 C180 1.509 . S
C196 C197 1.391 . S
C196 C201 1.386 . S
C197 H158 0.930 . S
C197 C196 1.391 . S
C197 C198 1.375 . S
C198 H159 0.931 . S
C198 C197 1.375 . S
C198 C199 1.375 . S
C199 C198 1.375 . S
C199 C200 1.361 . S
C200 H160 0.930 . S
C200 C199 1.361 . S
C200 C201 1.399 . S
C201 H161 0.929 . S
C201 C196 1.386 . S
C201 C200 1.399 . S
C202 C181 1.485 . S
C202 C203 1.394 . S
C202 C207 1.360 . S
C203 H162 0.931 . S
C203 C202 1.394 . S
C203 C204 1.372 . S
C204 H163 0.930 . S
C204 C203 1.372 . S
C204 C205 1.397 . S
C205 C204 1.397 . S
C205 C206 1.390 . S
C205 C221 1.476 . S
C206 H164 0.930 . S
C206 C205 1.390 . S
C206 C207 1.366 . S
C207 H165 0.932 . S
C207 C202 1.360 . S
C207 C206 1.366 . S
C208 C182 1.490 . S
C208 C209 1.380 . S
C208 C213 1.386 . S
C209 H166 0.930 . S
C209 C208 1.380 . S
C209 C210 1.381 . S
C210 H167 0.929 . S
C210 C209 1.381 . S
C210 C211 1.371 . S
C211 C210 1.371 . S
C211 C212 1.380 . S
C212 H168 0.931 . S
C212 C211 1.380 . S
C212 C213 1.387 . S
C213 H169 0.930 . S
C213 C208 1.386 . S
C213 C212 1.387 . S
C214 C183 1.519 . S
C214 C215 1.377 . S
C214 C219 1.361 . S
C215 H170 0.929 . S
C215 C214 1.377 . S
C215 C216 1.386 . S
C216 H171 0.931 . S
C216 C215 1.386 . S
C216 C217 1.363 . S
C217 C216 1.363 . S
C217 C218 1.385 . S
C218 H172 0.930 . S
C218 C217 1.385 . S
C218 C219 1.396 . S
C219 H173 0.929 . S
C219 C214 1.361 . S
C219 C218 1.396 . S
C220 O174 1.300 . S
C220 O175 1.209 . S
C220 C193 1.486 . S
C221 O176 1.199 . S
C221 O177 1.297 . S
C221 C205 1.476 . S
H222 O248 0.856 1_545 S
H223 O251 0.854 . S
H224 C259 0.930 . S
H225 C260 0.930 . S
H226 C262 0.930 . S
H227 C263 0.930 . S
H228 C265 0.931 . S
H229 C266 0.930 . S
H230 C268 0.930 . S
H231 C269 0.929 . S
H232 C271 0.930 . S
H233 C272 0.931 . S
H234 C274 0.930 . S
H235 C275 0.929 . S
H236 C277 0.931 . S
H237 C278 0.930 . S
H238 C280 0.930 . S
H239 C281 0.932 . S
H240 C283 0.930 . S
H241 C284 0.929 . S
H242 C286 0.931 . S
H243 C287 0.930 . S
H244 C289 0.929 . S
H245 C290 0.931 . S
H246 C292 0.930 . S
H247 C293 0.929 . S
O248 H222 0.856 1_565 S
O248 C294 1.300 . S
O249 C294 1.209 1_545 S
O250 C295 1.199 . S
O251 H223 0.854 . S
O251 C295 1.297 . S
C252 C253 1.404 . S
C252 C257 1.397 . S
C252 C258 1.492 . S
C253 C252 1.404 . S
C253 C254 1.396 . S
C253 C264 1.492 . S
C254 C253 1.396 . S
C254 C255 1.397 . S
C254 C270 1.509 . S
C255 C254 1.397 . S
C255 C256 1.412 . S
C255 C276 1.485 . S
C256 C255 1.412 . S
C256 C257 1.388 . S
C256 C282 1.490 . S
C257 C252 1.397 . S
C257 C256 1.388 . S
C257 C288 1.519 . S
C258 C252 1.492 . S
C258 C259 1.363 . S
C258 C263 1.390 . S
C259 H224 0.930 . S
C259 C258 1.363 . S
C259 C260 1.372 . S
C260 H225 0.930 . S
C260 C259 1.372 . S
C260 C261 1.383 . S
C261 C260 1.383 . S
C261 C262 1.395 . S
C262 H226 0.930 . S
C262 C261 1.395 . S
C262 C263 1.362 . S
C263 H227 0.930 . S
C263 C258 1.390 . S
C263 C262 1.362 . S
C264 C253 1.492 . S
C264 C265 1.377 . S
C264 C269 1.397 . S
C265 H228 0.931 . S
C265 C264 1.377 . S
C265 C266 1.376 . S
C266 H229 0.930 . S
C266 C265 1.376 . S
C266 C267 1.376 . S
C267 C266 1.376 . S
C267 C268 1.378 . S
C267 C294 1.486 . S
C268 H230 0.930 . S
C268 C267 1.378 . S
C268 C269 1.376 . S
C269 H231 0.929 . S
C269 C264 1.397 . S
C269 C268 1.376 . S
C270 C254 1.509 . S
C270 C271 1.391 . S
C270 C275 1.386 . S
C271 H232 0.930 . S
C271 C270 1.391 . S
C271 C272 1.375 . S
C272 H233 0.931 . S
C272 C271 1.375 . S
C272 C273 1.375 . S
C273 C272 1.375 . S
C273 C274 1.361 . S
C274 H234 0.930 . S
C274 C273 1.361 . S
C274 C275 1.399 . S
C275 H235 0.929 . S
C275 C270 1.386 . S
C275 C274 1.399 . S
C276 C255 1.485 . S
C276 C277 1.394 . S
C276 C281 1.360 . S
C277 H236 0.931 . S
C277 C276 1.394 . S
C277 C278 1.372 . S
C278 H237 0.930 . S
C278 C277 1.372 . S
C278 C279 1.397 . S
C279 C278 1.397 . S
C279 C280 1.390 . S
C279 C295 1.476 . S
C280 H238 0.930 . S
C280 C279 1.390 . S
C280 C281 1.366 . S
C281 H239 0.932 . S
C281 C276 1.360 . S
C281 C280 1.366 . S
C282 C256 1.490 . S
C282 C283 1.380 . S
C282 C287 1.386 . S
C283 H240 0.930 . S
C283 C282 1.380 . S
C283 C284 1.381 . S
C284 H241 0.929 . S
C284 C283 1.381 . S
C284 C285 1.371 . S
C285 C284 1.371 . S
C285 C286 1.380 . S
C286 H242 0.931 . S
C286 C285 1.380 . S
C286 C287 1.387 . S
C287 H243 0.930 . S
C287 C282 1.386 . S
C287 C286 1.387 . S
C288 C257 1.519 . S
C288 C289 1.377 . S
C288 C293 1.361 . S
C289 H244 0.929 . S
C289 C288 1.377 . S
C289 C290 1.386 . S
C290 H245 0.931 . S
C290 C289 1.386 . S
C290 C291 1.363 . S
C291 C290 1.363 . S
C291 C292 1.385 . S
C292 H246 0.930 . S
C292 C291 1.385 . S
C292 C293 1.396 . S
C293 H247 0.929 . S
C293 C288 1.361 . S
C293 C292 1.396 . S
C294 O248 1.300 . S
C294 O249 1.209 1_565 S
C294 C267 1.486 . S
C295 O250 1.199 . S
C295 O251 1.297 . S
C295 C279 1.476 . S
H296 O322 0.856 . S
H297 O325 0.854 . S
H298 C333 0.930 . S
H299 C334 0.930 . S
H300 C336 0.930 . S
H301 C337 0.930 . S
H302 C339 0.931 . S
H303 C340 0.930 . S
H304 C342 0.930 . S
H305 C343 0.929 . S
H306 C345 0.930 . S
H307 C346 0.931 . S
H308 C348 0.930 . S
H309 C349 0.929 . S
H310 C351 0.931 . S
H311 C352 0.930 . S
H312 C354 0.930 . S
H313 C355 0.932 . S
H314 C357 0.930 . S
H315 C358 0.929 . S
H316 C360 0.931 . S
H317 C361 0.930 . S
H318 C363 0.929 . S
H319 C364 0.931 . S
H320 C366 0.930 . S
H321 C367 0.929 . S
O322 H296 0.856 . S
O322 C368 1.300 . S
O323 C368 1.209 . S
O324 C369 1.199 . S
O325 H297 0.854 . S
O325 C369 1.297 . S
C326 C327 1.404 . S
C326 C331 1.397 . S
C326 C332 1.492 . S
C327 C326 1.404 . S
C327 C328 1.396 . S
C327 C338 1.492 . S
C328 C327 1.396 . S
C328 C329 1.397 . S
C328 C344 1.509 . S
C329 C328 1.397 . S
C329 C330 1.412 . S
C329 C350 1.485 . S
C330 C329 1.412 . S
C330 C331 1.388 . S
C330 C356 1.490 . S
C331 C326 1.397 . S
C331 C330 1.388 . S
C331 C362 1.519 . S
C332 C326 1.492 . S
C332 C333 1.363 . S
C332 C337 1.390 . S
C333 H298 0.930 . S
C333 C332 1.363 . S
C333 C334 1.372 . S
C334 H299 0.930 . S
C334 C333 1.372 . S
C334 C335 1.383 . S
C335 C334 1.383 . S
C335 C336 1.395 . S
C336 H300 0.930 . S
C336 C335 1.395 . S
C336 C337 1.362 . S
C337 H301 0.930 . S
C337 C332 1.390 . S
C337 C336 1.362 . S
C338 C327 1.492 . S
C338 C339 1.377 . S
C338 C343 1.397 . S
C339 H302 0.931 . S
C339 C338 1.377 . S
C339 C340 1.376 . S
C340 H303 0.930 . S
C340 C339 1.376 . S
C340 C341 1.376 . S
C341 C340 1.376 . S
C341 C342 1.378 . S
C341 C368 1.486 . S
C342 H304 0.930 . S
C342 C341 1.378 . S
C342 C343 1.376 . S
C343 H305 0.929 . S
C343 C338 1.397 . S
C343 C342 1.376 . S
C344 C328 1.509 . S
C344 C345 1.391 . S
C344 C349 1.386 . S
C345 H306 0.930 . S
C345 C344 1.391 . S
C345 C346 1.375 . S
C346 H307 0.931 . S
C346 C345 1.375 . S
C346 C347 1.375 . S
C347 C346 1.375 . S
C347 C348 1.361 . S
C348 H308 0.930 . S
C348 C347 1.361 . S
C348 C349 1.399 . S
C349 H309 0.929 . S
C349 C344 1.386 . S
C349 C348 1.399 . S
C350 C329 1.485 . S
C350 C351 1.394 . S
C350 C355 1.360 . S
C351 H310 0.931 . S
C351 C350 1.394 . S
C351 C352 1.372 . S
C352 H311 0.930 . S
C352 C351 1.372 . S
C352 C353 1.397 . S
C353 C352 1.397 . S
C353 C354 1.390 . S
C353 C369 1.476 . S
C354 H312 0.930 . S
C354 C353 1.390 . S
C354 C355 1.366 . S
C355 H313 0.932 . S
C355 C350 1.360 . S
C355 C354 1.366 . S
C356 C330 1.490 . S
C356 C357 1.380 . S
C356 C361 1.386 . S
C357 H314 0.930 . S
C357 C356 1.380 . S
C357 C358 1.381 . S
C358 H315 0.929 . S
C358 C357 1.381 . S
C358 C359 1.371 . S
C359 C358 1.371 . S
C359 C360 1.380 . S
C360 H316 0.931 . S
C360 C359 1.380 . S
C360 C361 1.387 . S
C361 H317 0.930 . S
C361 C356 1.386 . S
C361 C360 1.387 . S
C362 C331 1.519 . S
C362 C363 1.377 . S
C362 C367 1.361 . S
C363 H318 0.929 . S
C363 C362 1.377 . S
C363 C364 1.386 . S
C364 H319 0.931 . S
C364 C363 1.386 . S
C364 C365 1.363 . S
C365 C364 1.363 . S
C365 C366 1.385 . S
C366 H320 0.930 . S
C366 C365 1.385 . S
C366 C367 1.396 . S
C367 H321 0.929 . S
C367 C362 1.361 . S
C367 C366 1.396 . S
C368 O322 1.300 . S
C368 O323 1.209 . S
C368 C341 1.486 . S
C369 O324 1.199 . S
C369 O325 1.297 . S
C369 C353 1.476 . S
H370 O396 0.856 . S
H371 O399 0.854 . S
H372 C407 0.930 . S
H373 C408 0.930 . S
H374 C410 0.930 . S
H375 C411 0.930 . S
H376 C413 0.931 . S
H377 C414 0.930 . S
H378 C416 0.930 . S
H379 C417 0.929 . S
H380 C419 0.930 . S
H381 C420 0.931 . S
H382 C422 0.930 . S
H383 C423 0.929 . S
H384 C425 0.931 . S
H385 C426 0.930 . S
H386 C428 0.930 . S
H387 C429 0.932 . S
H388 C431 0.930 . S
H389 C432 0.929 . S
H390 C434 0.931 . S
H391 C435 0.930 . S
H392 C437 0.929 . S
H393 C438 0.931 . S
H394 C440 0.930 . S
H395 C441 0.929 . S
O396 H370 0.856 . S
O396 C442 1.300 . S
O397 C442 1.209 . S
O398 C443 1.199 . S
O399 H371 0.854 . S
O399 C443 1.297 . S
C400 C401 1.404 . S
C400 C405 1.397 . S
C400 C406 1.492 . S
C401 C400 1.404 . S
C401 C402 1.396 . S
C401 C412 1.492 . S
C402 C401 1.396 . S
C402 C403 1.397 . S
C402 C418 1.509 . S
C403 C402 1.397 . S
C403 C404 1.412 . S
C403 C424 1.485 . S
C404 C403 1.412 . S
C404 C405 1.388 . S
C404 C430 1.490 . S
C405 C400 1.397 . S
C405 C404 1.388 . S
C405 C436 1.519 . S
C406 C400 1.492 . S
C406 C407 1.363 . S
C406 C411 1.390 . S
C407 H372 0.930 . S
C407 C406 1.363 . S
C407 C408 1.372 . S
C408 H373 0.930 . S
C408 C407 1.372 . S
C408 C409 1.383 . S
C409 C408 1.383 . S
C409 C410 1.395 . S
C410 H374 0.930 . S
C410 C409 1.395 . S
C410 C411 1.362 . S
C411 H375 0.930 . S
C411 C406 1.390 . S
C411 C410 1.362 . S
C412 C401 1.492 . S
C412 C413 1.377 . S
C412 C417 1.397 . S
C413 H376 0.931 . S
C413 C412 1.377 . S
C413 C414 1.376 . S
C414 H377 0.930 . S
C414 C413 1.376 . S
C414 C415 1.376 . S
C415 C414 1.376 . S
C415 C416 1.378 . S
C415 C442 1.486 . S
C416 H378 0.930 . S
C416 C415 1.378 . S
C416 C417 1.376 . S
C417 H379 0.929 . S
C417 C412 1.397 . S
C417 C416 1.376 . S
C418 C402 1.509 . S
C418 C419 1.391 . S
C418 C423 1.386 . S
C419 H380 0.930 . S
C419 C418 1.391 . S
C419 C420 1.375 . S
C420 H381 0.931 . S
C420 C419 1.375 . S
C420 C421 1.375 . S
C421 C420 1.375 . S
C421 C422 1.361 . S
C422 H382 0.930 . S
C422 C421 1.361 . S
C422 C423 1.399 . S
C423 H383 0.929 . S
C423 C418 1.386 . S
C423 C422 1.399 . S
C424 C403 1.485 . S
C424 C425 1.394 . S
C424 C429 1.360 . S
C425 H384 0.931 . S
C425 C424 1.394 . S
C425 C426 1.372 . S
C426 H385 0.930 . S
C426 C425 1.372 . S
C426 C427 1.397 . S
C427 C426 1.397 . S
C427 C428 1.390 . S
C427 C443 1.476 . S
C428 H386 0.930 . S
C428 C427 1.390 . S
C428 C429 1.366 . S
C429 H387 0.932 . S
C429 C424 1.360 . S
C429 C428 1.366 . S
C430 C404 1.490 . S
C430 C431 1.380 . S
C430 C435 1.386 . S
C431 H388 0.930 . S
C431 C430 1.380 . S
C431 C432 1.381 . S
C432 H389 0.929 . S
C432 C431 1.381 . S
C432 C433 1.371 . S
C433 C432 1.371 . S
C433 C434 1.380 . S
C434 H390 0.931 . S
C434 C433 1.380 . S
C434 C435 1.387 . S
C435 H391 0.930 . S
C435 C430 1.386 . S
C435 C434 1.387 . S
C436 C405 1.519 . S
C436 C437 1.377 . S
C436 C441 1.361 . S
C437 H392 0.929 . S
C437 C436 1.377 . S
C437 C438 1.386 . S
C438 H393 0.931 . S
C438 C437 1.386 . S
C438 C439 1.363 . S
C439 C438 1.363 . S
C439 C440 1.385 . S
C440 H394 0.930 . S
C440 C439 1.385 . S
C440 C441 1.396 . S
C441 H395 0.929 . S
C441 C436 1.361 . S
C441 C440 1.396 . S
C442 O396 1.300 . S
C442 O397 1.209 . S
C442 C415 1.486 . S
C443 O398 1.199 . S
C443 O399 1.297 . S
C443 C427 1.476 . S
H444 O470 0.856 . S
H445 O473 0.854 . S
H446 C481 0.930 . S
H447 C482 0.930 . S
H448 C484 0.930 . S
H449 C485 0.930 . S
H450 C487 0.931 . S
H451 C488 0.930 . S
H452 C490 0.930 . S
H453 C491 0.929 . S
H454 C493 0.930 . S
H455 C494 0.931 . S
H456 C496 0.930 . S
H457 C497 0.929 . S
H458 C499 0.931 . S
H459 C500 0.930 . S
H460 C502 0.930 . S
H461 C503 0.932 . S
H462 C505 0.930 . S
H463 C506 0.929 . S
H464 C508 0.931 . S
H465 C509 0.930 . S
H466 C511 0.929 . S
H467 C512 0.931 . S
H468 C514 0.930 . S
H469 C515 0.929 . S
O470 H444 0.856 . S
O470 C516 1.300 . S
O471 C516 1.209 . S
O472 C517 1.199 . S
O473 H445 0.854 . S
O473 C517 1.297 . S
C474 C475 1.404 . S
C474 C479 1.397 . S
C474 C480 1.492 . S
C475 C474 1.404 . S
C475 C476 1.396 . S
C475 C486 1.492 . S
C476 C475 1.396 . S
C476 C477 1.397 . S
C476 C492 1.509 . S
C477 C476 1.397 . S
C477 C478 1.412 . S
C477 C498 1.485 . S
C478 C477 1.412 . S
C478 C479 1.388 . S
C478 C504 1.490 . S
C479 C474 1.397 . S
C479 C478 1.388 . S
C479 C510 1.519 . S
C480 C474 1.492 . S
C480 C481 1.363 . S
C480 C485 1.390 . S
C481 H446 0.930 . S
C481 C480 1.363 . S
C481 C482 1.372 . S
C482 H447 0.930 . S
C482 C481 1.372 . S
C482 C483 1.383 . S
C483 C482 1.383 . S
C483 C484 1.395 . S
C484 H448 0.930 . S
C484 C483 1.395 . S
C484 C485 1.362 . S
C485 H449 0.930 . S
C485 C480 1.390 . S
C485 C484 1.362 . S
C486 C475 1.492 . S
C486 C487 1.377 . S
C486 C491 1.397 . S
C487 H450 0.931 . S
C487 C486 1.377 . S
C487 C488 1.376 . S
C488 H451 0.930 . S
C488 C487 1.376 . S
C488 C489 1.376 . S
C489 C488 1.376 . S
C489 C490 1.378 . S
C489 C516 1.486 . S
C490 H452 0.930 . S
C490 C489 1.378 . S
C490 C491 1.376 . S
C491 H453 0.929 . S
C491 C486 1.397 . S
C491 C490 1.376 . S
C492 C476 1.509 . S
C492 C493 1.391 . S
C492 C497 1.386 . S
C493 H454 0.930 . S
C493 C492 1.391 . S
C493 C494 1.375 . S
C494 H455 0.931 . S
C494 C493 1.375 . S
C494 C495 1.375 . S
C495 C494 1.375 . S
C495 C496 1.361 . S
C496 H456 0.930 . S
C496 C495 1.361 . S
C496 C497 1.399 . S
C497 H457 0.929 . S
C497 C492 1.386 . S
C497 C496 1.399 . S
C498 C477 1.485 . S
C498 C499 1.394 . S
C498 C503 1.360 . S
C499 H458 0.931 . S
C499 C498 1.394 . S
C499 C500 1.372 . S
C500 H459 0.930 . S
C500 C499 1.372 . S
C500 C501 1.397 . S
C501 C500 1.397 . S
C501 C502 1.390 . S
C501 C517 1.476 . S
C502 H460 0.930 . S
C502 C501 1.390 . S
C502 C503 1.366 . S
C503 H461 0.932 . S
C503 C498 1.360 . S
C503 C502 1.366 . S
C504 C478 1.490 . S
C504 C505 1.380 . S
C504 C509 1.386 . S
C505 H462 0.930 . S
C505 C504 1.380 . S
C505 C506 1.381 . S
C506 H463 0.929 . S
C506 C505 1.381 . S
C506 C507 1.371 . S
C507 C506 1.371 . S
C507 C508 1.380 . S
C508 H464 0.931 . S
C508 C507 1.380 . S
C508 C509 1.387 . S
C509 H465 0.930 . S
C509 C504 1.386 . S
C509 C508 1.387 . S
C510 C479 1.519 . S
C510 C511 1.377 . S
C510 C515 1.361 . S
C511 H466 0.929 . S
C511 C510 1.377 . S
C511 C512 1.386 . S
C512 H467 0.931 . S
C512 C511 1.386 . S
C512 C513 1.363 . S
C513 C512 1.363 . S
C513 C514 1.385 . S
C514 H468 0.930 . S
C514 C513 1.385 . S
C514 C515 1.396 . S
C515 H469 0.929 . S
C515 C510 1.361 . S
C515 C514 1.396 . S
C516 O470 1.300 . S
C516 O471 1.209 . S
C516 C489 1.486 . S
C517 O472 1.199 . S
C517 O473 1.297 . S
C517 C501 1.476 . S
H518 O544 0.856 . S
H519 O547 0.854 . S
H520 C555 0.930 . S
H521 C556 0.930 . S
H522 C558 0.930 . S
H523 C559 0.930 . S
H524 C561 0.931 . S
H525 C562 0.930 . S
H526 C564 0.930 . S
H527 C565 0.929 . S
H528 C567 0.930 . S
H529 C568 0.931 . S
H530 C570 0.930 . S
H531 C571 0.929 . S
H532 C573 0.931 . S
H533 C574 0.930 . S
H534 C576 0.930 . S
H535 C577 0.932 . S
H536 C579 0.930 . S
H537 C580 0.929 . S
H538 C582 0.931 . S
H539 C583 0.930 . S
H540 C585 0.929 . S
H541 C586 0.931 . S
H542 C588 0.930 . S
H543 C589 0.929 . S
O544 H518 0.856 . S
O544 C590 1.300 . S
O545 C590 1.209 . S
O546 C591 1.199 . S
O547 H519 0.854 . S
O547 C591 1.297 . S
C548 C549 1.404 . S
C548 C553 1.397 . S
C548 C554 1.492 . S
C549 C548 1.404 . S
C549 C550 1.396 . S
C549 C560 1.492 . S
C550 C549 1.396 . S
C550 C551 1.397 . S
C550 C566 1.509 . S
C551 C550 1.397 . S
C551 C552 1.412 . S
C551 C572 1.485 . S
C552 C551 1.412 . S
C552 C553 1.388 . S
C552 C578 1.490 . S
C553 C548 1.397 . S
C553 C552 1.388 . S
C553 C584 1.519 . S
C554 C548 1.492 . S
C554 C555 1.363 . S
C554 C559 1.390 . S
C555 H520 0.930 . S
C555 C554 1.363 . S
C555 C556 1.372 . S
C556 H521 0.930 . S
C556 C555 1.372 . S
C556 C557 1.383 . S
C557 C556 1.383 . S
C557 C558 1.395 . S
C558 H522 0.930 . S
C558 C557 1.395 . S
C558 C559 1.362 . S
C559 H523 0.930 . S
C559 C554 1.390 . S
C559 C558 1.362 . S
C560 C549 1.492 . S
C560 C561 1.377 . S
C560 C565 1.397 . S
C561 H524 0.931 . S
C561 C560 1.377 . S
C561 C562 1.376 . S
C562 H525 0.930 . S
C562 C561 1.376 . S
C562 C563 1.376 . S
C563 C562 1.376 . S
C563 C564 1.378 . S
C563 C590 1.486 . S
C564 H526 0.930 . S
C564 C563 1.378 . S
C564 C565 1.376 . S
C565 H527 0.929 . S
C565 C560 1.397 . S
C565 C564 1.376 . S
C566 C550 1.509 . S
C566 C567 1.391 . S
C566 C571 1.386 . S
C567 H528 0.930 . S
C567 C566 1.391 . S
C567 C568 1.375 . S
C568 H529 0.931 . S
C568 C567 1.375 . S
C568 C569 1.375 . S
C569 C568 1.375 . S
C569 C570 1.361 . S
C570 H530 0.930 . S
C570 C569 1.361 . S
C570 C571 1.399 . S
C571 H531 0.929 . S
C571 C566 1.386 . S
C571 C570 1.399 . S
C572 C551 1.485 . S
C572 C573 1.394 . S
C572 C577 1.360 . S
C573 H532 0.931 . S
C573 C572 1.394 . S
C573 C574 1.372 . S
C574 H533 0.930 . S
C574 C573 1.372 . S
C574 C575 1.397 . S
C575 C574 1.397 . S
C575 C576 1.390 . S
C575 C591 1.476 . S
C576 H534 0.930 . S
C576 C575 1.390 . S
C576 C577 1.366 . S
C577 H535 0.932 . S
C577 C572 1.360 . S
C577 C576 1.366 . S
C578 C552 1.490 . S
C578 C579 1.380 . S
C578 C583 1.386 . S
C579 H536 0.930 . S
C579 C578 1.380 . S
C579 C580 1.381 . S
C580 H537 0.929 . S
C580 C579 1.381 . S
C580 C581 1.371 . S
C581 C580 1.371 . S
C581 C582 1.380 . S
C582 H538 0.931 . S
C582 C581 1.380 . S
C582 C583 1.387 . S
C583 H539 0.930 . S
C583 C578 1.386 . S
C583 C582 1.387 . S
C584 C553 1.519 . S
C584 C585 1.377 . S
C584 C589 1.361 . S
C585 H540 0.929 . S
C585 C584 1.377 . S
C585 C586 1.386 . S
C586 H541 0.931 . S
C586 C585 1.386 . S
C586 C587 1.363 . S
C587 C586 1.363 . S
C587 C588 1.385 . S
C588 H542 0.930 . S
C588 C587 1.385 . S
C588 C589 1.396 . S
C589 H543 0.929 . S
C589 C584 1.361 . S
C589 C588 1.396 . S
C590 O544 1.300 . S
C590 O545 1.209 . S
C590 C563 1.486 . S
C591 O546 1.199 . S
C591 O547 1.297 . S
C591 C575 1.476 . S
C592 C593 1.443 . S
C592 N596 1.376 . S
C592 C630 1.389 . S
C593 C592 1.443 . S
C593 C594 1.340 . S
C593 H633 0.951 . S
C594 C593 1.340 . S
C594 C595 1.439 . S
C594 H634 0.950 . S
C595 C594 1.439 . S
C595 N596 1.374 . S
C595 C629 1.395 1_455 S
N596 C592 1.376 . S
N596 C595 1.374 . S
N596 Co597 2.030 . S
Co597 N596 2.030 . S
Co597 N598 1.960 1_455 S
Co597 N603 1.987 1_455 S
Co597 N608 2.030 . S
Co597 N613 2.248 1_455 S
Co597 N619 2.317 . S
N598 Co597 1.960 1_655 S
N598 C599 1.376 . S
N598 C602 1.383 . S
C599 N598 1.376 . S
C599 C600 1.446 . S
C599 C629 1.391 . S
C600 C599 1.446 . S
C600 C601 1.339 . S
C600 H635 0.949 . S
C601 C600 1.339 . S
C601 C602 1.439 . S
C601 H636 0.950 . S
C602 N598 1.383 . S
C602 C601 1.439 . S
C602 C631 1.392 . S
N603 Co597 1.987 1_655 S
N603 C604 1.376 . S
N603 C607 1.374 . S
C604 N603 1.376 . S
C604 C605 1.443 . S
C604 C631 1.389 . S
C605 C604 1.443 . S
C605 C606 1.340 . S
C605 H637 0.951 . S
C606 C605 1.340 . S
C606 C607 1.439 . S
C606 H638 0.950 . S
C607 N603 1.374 . S
C607 C606 1.439 . S
C607 C632 1.395 1_655 S
N608 Co597 2.030 . S
N608 C609 1.376 . S
N608 C612 1.383 . S
C609 N608 1.376 . S
C609 C610 1.446 . S
C609 C632 1.391 . S
C610 C609 1.446 . S
C610 C611 1.339 . S
C610 H639 0.949 . S
C611 C610 1.339 . S
C611 C612 1.439 . S
C611 H640 0.950 . S
C612 N608 1.383 . S
C612 C611 1.439 . S
C612 C630 1.392 . S
N613 Co597 2.248 1_655 S
N613 C616 1.332 . S
N613 C618 1.332 . S
C614 C615 1.386 . S
C614 C617 1.388 . S
C615 C614 1.386 . S
C615 C616 1.382 . S
C615 H641 0.950 . S
C616 N613 1.332 . S
C616 C615 1.382 . S
C616 H627 0.952 . S
C617 C614 1.388 . S
C617 C618 1.382 . S
C617 H642 0.950 . S
C618 N613 1.332 . S
C618 C617 1.382 . S
C618 H628 0.948 . S
N619 Co597 2.317 . S
N619 C623 1.332 . S
N619 C624 1.332 . S
C620 C621 1.388 . S
C620 C624 1.382 . S
C620 H643 0.950 . S
C621 C620 1.388 . S
C621 C622 1.386 . S
C622 C621 1.386 . S
C622 C623 1.382 . S
C622 H644 0.950 . S
C623 N619 1.332 . S
C623 C622 1.382 . S
C623 H625 0.952 . S
C624 N619 1.332 . S
C624 C620 1.382 . S
C624 H626 0.948 . S
H625 C623 0.952 . S
H626 C624 0.948 . S
H627 C616 0.952 . S
H628 C618 0.948 . S
C629 C595 1.395 1_655 S
C629 C599 1.391 . S
C630 C592 1.389 . S
C630 C612 1.392 . S
C631 C602 1.392 . S
C631 C604 1.389 . S
C632 C607 1.395 1_455 S
C632 C609 1.391 . S
H633 C593 0.951 . S
H634 C594 0.950 . S
H635 C600 0.949 . S
H636 C601 0.950 . S
H637 C605 0.951 . S
H638 C606 0.950 . S
H639 C610 0.949 . S
H640 C611 0.950 . S
H641 C615 0.950 . S
H642 C617 0.950 . S
H643 C620 0.950 . S
H644 C622 0.950 . S
C645 C646 1.443 . S
C645 N649 1.376 . S
C645 C683 1.389 . S
C646 C645 1.443 . S
C646 C647 1.340 . S
C646 H686 0.951 . S
C647 C646 1.340 . S
C647 C648 1.439 . S
C647 H687 0.950 . S
C648 C647 1.439 . S
C648 N649 1.374 . S
C648 C682 1.395 . S
N649 C645 1.376 . S
N649 C648 1.374 . S
N649 Co650 2.008 . S
Co650 N649 2.008 . S
Co650 N651 1.995 1_545 S
Co650 N656 2.008 1_545 S
Co650 N661 1.995 . S
Co650 N666 2.282 1_545 S
Co650 N672 2.282 . S
N651 Co650 1.995 1_565 S
N651 C652 1.376 . S
N651 C655 1.383 . S
C652 N651 1.376 . S
C652 C653 1.446 . S
C652 C682 1.391 1_565 S
C653 C652 1.446 . S
C653 C654 1.339 . S
C653 H688 0.949 . S
C654 C653 1.339 . S
C654 C655 1.439 . S
C654 H689 0.950 . S
C655 N651 1.383 . S
C655 C654 1.439 . S
C655 C684 1.392 . S
N656 Co650 2.008 1_565 S
N656 C657 1.376 . S
N656 C660 1.374 . S
C657 N656 1.376 . S
C657 C658 1.443 . S
C657 C684 1.389 . S
C658 C657 1.443 . S
C658 C659 1.340 . S
C658 H690 0.951 . S
C659 C658 1.340 . S
C659 C660 1.439 . S
C659 H691 0.950 . S
C660 N656 1.374 . S
C660 C659 1.439 . S
C660 C685 1.395 1_565 S
N661 Co650 1.995 . S
N661 C662 1.376 . S
N661 C665 1.383 . S
C662 N661 1.376 . S
C662 C663 1.446 . S
C662 C685 1.391 . S
C663 C662 1.446 . S
C663 C664 1.339 . S
C663 H692 0.949 . S
C664 C663 1.339 . S
C664 C665 1.439 . S
C664 H693 0.950 . S
C665 N661 1.383 . S
C665 C664 1.439 . S
C665 C683 1.392 . S
N666 Co650 2.282 1_565 S
N666 C669 1.332 . S
N666 C671 1.332 . S
C667 C668 1.386 . S
C667 C670 1.388 . S
C668 C667 1.386 . S
C668 C669 1.382 . S
C668 H694 0.950 . S
C669 N666 1.332 . S
C669 C668 1.382 . S
C669 H680 0.952 . S
C670 C667 1.388 . S
C670 C671 1.382 . S
C670 H695 0.950 . S
C671 N666 1.332 . S
C671 C670 1.382 . S
C671 H681 0.948 . S
N672 Co650 2.282 . S
N672 C676 1.332 . S
N672 C677 1.332 . S
C673 C674 1.388 . S
C673 C677 1.382 . S
C673 H696 0.950 . S
C674 C673 1.388 . S
C674 C675 1.386 . S
C675 C674 1.386 . S
C675 C676 1.382 . S
C675 H697 0.950 . S
C676 N672 1.332 . S
C676 C675 1.382 . S
C676 H678 0.952 . S
C677 N672 1.332 . S
C677 C673 1.382 . S
C677 H679 0.948 . S
H678 C676 0.952 . S
H679 C677 0.948 . S
H680 C669 0.952 . S
H681 C671 0.948 . S
C682 C648 1.395 . S
C682 C652 1.391 1_545 S
C683 C645 1.389 . S
C683 C665 1.392 . S
C684 C655 1.392 . S
C684 C657 1.389 . S
C685 C660 1.395 1_545 S
C685 C662 1.391 . S
H686 C646 0.951 . S
H687 C647 0.950 . S
H688 C653 0.949 . S
H689 C654 0.950 . S
H690 C658 0.951 . S
H691 C659 0.950 . S
H692 C663 0.949 . S
H693 C664 0.950 . S
H694 C668 0.950 . S
H695 C670 0.950 . S
H696 C673 0.950 . S
H697 C675 0.950 . S
C698 C699 1.443 . S
C698 N702 1.376 . S
C698 C736 1.389 . S
C699 C698 1.443 . S
C699 C700 1.340 . S
C699 H739 0.951 . S
C700 C699 1.340 . S
C700 C701 1.439 . S
C700 H740 0.950 . S
C701 C700 1.439 . S
C701 N702 1.374 . S
C701 C735 1.395 . S
N702 C698 1.376 . S
N702 C701 1.374 . S
N702 Co703 2.008 . S
Co703 N702 2.008 . S
Co703 N704 1.995 . S
Co703 N709 2.008 . S
Co703 N714 1.995 . S
Co703 N719 2.282 . S
Co703 N725 2.282 . S
N704 Co703 1.995 . S
N704 C705 1.376 . S
N704 C708 1.383 1_455 S
C705 N704 1.376 . S
C705 C706 1.446 1_455 S
C705 C735 1.391 . S
C706 C705 1.446 1_655 S
C706 C707 1.339 . S
C706 H741 0.949 . S
C707 C706 1.339 . S
C707 C708 1.439 . S
C707 H742 0.950 . S
C708 N704 1.383 1_655 S
C708 C707 1.439 . S
C708 C737 1.392 . S
N709 Co703 2.008 . S
N709 C710 1.376 1_455 S
N709 C713 1.374 . S
C710 N709 1.376 1_655 S
C710 C711 1.443 . S
C710 C737 1.389 . S
C711 C710 1.443 . S
C711 C712 1.340 1_655 S
C711 H743 0.951 . S
C712 C711 1.340 1_455 S
C712 C713 1.439 . S
C712 H744 0.950 . S
C713 N709 1.374 . S
C713 C712 1.439 . S
C713 C738 1.395 . S
N714 Co703 1.995 . S
N714 C715 1.376 . S
N714 C718 1.383 . S
C715 N714 1.376 . S
C715 C716 1.446 . S
C715 C738 1.391 . S
C716 C715 1.446 . S
C716 C717 1.339 . S
C716 H745 0.949 . S
C717 C716 1.339 . S
C717 C718 1.439 . S
C717 H746 0.950 . S
C718 N714 1.383 . S
C718 C717 1.439 . S
C718 C736 1.392 . S
N719 Co703 2.282 . S
N719 C722 1.332 . S
N719 C724 1.332 1_455 S
C720 C721 1.386 . S
C720 C723 1.388 . S
C721 C720 1.386 . S
C721 C722 1.382 1_655 S
C721 H747 0.950 . S
C722 N719 1.332 . S
C722 C721 1.382 1_455 S
C722 H733 0.952 . S
C723 C720 1.388 . S
C723 C724 1.382 . S
C723 H748 0.950 . S
C724 N719 1.332 1_655 S
C724 C723 1.382 . S
C724 H734 0.948 . S
N725 Co703 2.282 . S
N725 C729 1.332 . S
N725 C730 1.332 . S
C726 C727 1.388 . S
C726 C730 1.382 . S
C726 H749 0.950 . S
C727 C726 1.388 . S
C727 C728 1.386 . S
C728 C727 1.386 . S
C728 C729 1.382 . S
C728 H750 0.950 . S
C729 N725 1.332 . S
C729 C728 1.382 . S
C729 H731 0.952 . S
C730 N725 1.332 . S
C730 C726 1.382 . S
C730 H732 0.948 . S
H731 C729 0.952 . S
H732 C730 0.948 . S
H733 C722 0.952 . S
H734 C724 0.948 . S
C735 C701 1.395 . S
C735 C705 1.391 . S
C736 C698 1.389 . S
C736 C718 1.392 . S
C737 C708 1.392 . S
C737 C710 1.389 . S
C738 C713 1.395 . S
C738 C715 1.391 . S
H739 C699 0.951 . S
H740 C700 0.950 . S
H741 C706 0.949 . S
H742 C707 0.950 . S
H743 C711 0.951 . S
H744 C712 0.950 . S
H745 C716 0.949 . S
H746 C717 0.950 . S
H747 C721 0.950 . S
H748 C723 0.950 . S
H749 C726 0.950 . S
H750 C728 0.950 . S
C751 C752 1.443 . S
C751 N755 1.376 . S
C751 C789 1.389 . S
C752 C751 1.443 . S
C752 C753 1.340 . S
C752 H792 0.951 . S
C753 C752 1.340 . S
C753 C754 1.439 . S
C753 H793 0.950 . S
C754 C753 1.439 . S
C754 N755 1.374 . S
C754 C788 1.395 . S
N755 C751 1.376 . S
N755 C754 1.374 . S
N755 Co756 2.008 . S
Co756 N755 2.008 . S
Co756 N757 1.995 . S
Co756 N762 2.008 . S
Co756 N767 1.995 . S
Co756 N772 2.282 . S
Co756 N778 2.282 . S
N757 Co756 1.995 . S
N757 C758 1.376 . S
N757 C761 1.383 . S
C758 N757 1.376 . S
C758 C759 1.446 . S
C758 C788 1.391 . S
C759 C758 1.446 . S
C759 C760 1.339 . S
C759 H794 0.949 . S
C760 C759 1.339 . S
C760 C761 1.439 . S
C760 H795 0.950 . S
C761 N757 1.383 . S
C761 C760 1.439 . S
C761 C790 1.392 . S
N762 Co756 2.008 . S
N762 C763 1.376 . S
N762 C766 1.374 . S
C763 N762 1.376 . S
C763 C764 1.443 . S
C763 C790 1.389 . S
C764 C763 1.443 . S
C764 C765 1.340 . S
C764 H796 0.951 . S
C765 C764 1.340 . S
C765 C766 1.439 . S
C765 H797 0.950 . S
C766 N762 1.374 . S
C766 C765 1.439 . S
C766 C791 1.395 . S
N767 Co756 1.995 . S
N767 C768 1.376 . S
N767 C771 1.383 . S
C768 N767 1.376 . S
C768 C769 1.446 . S
C768 C791 1.391 . S
C769 C768 1.446 . S
C769 C770 1.339 . S
C769 H798 0.949 . S
C770 C769 1.339 . S
C770 C771 1.439 . S
C770 H799 0.950 . S
C771 N767 1.383 . S
C771 C770 1.439 . S
C771 C789 1.392 . S
N772 Co756 2.282 . S
N772 C775 1.332 . S
N772 C777 1.332 . S
C773 C774 1.386 . S
C773 C776 1.388 . S
C774 C773 1.386 . S
C774 C775 1.382 . S
C774 H800 0.950 . S
C775 N772 1.332 . S
C775 C774 1.382 . S
C775 H786 0.952 . S
C776 C773 1.388 . S
C776 C777 1.382 . S
C776 H801 0.950 . S
C777 N772 1.332 . S
C777 C776 1.382 . S
C777 H787 0.948 . S
N778 Co756 2.282 . S
N778 C782 1.332 . S
N778 C783 1.332 . S
C779 C780 1.388 . S
C779 C783 1.382 . S
C779 H802 0.950 . S
C780 C779 1.388 . S
C780 C781 1.386 . S
C781 C780 1.386 . S
C781 C782 1.382 . S
C781 H803 0.950 . S
C782 N778 1.332 . S
C782 C781 1.382 . S
C782 H784 0.952 . S
C783 N778 1.332 . S
C783 C779 1.382 . S
C783 H785 0.948 . S
H784 C782 0.952 . S
H785 C783 0.948 . S
H786 C775 0.952 . S
H787 C777 0.948 . S
C788 C754 1.395 . S
C788 C758 1.391 . S
C789 C751 1.389 . S
C789 C771 1.392 . S
C790 C761 1.392 . S
C790 C763 1.389 . S
C791 C766 1.395 . S
C791 C768 1.391 . S
H792 C752 0.951 . S
H793 C753 0.950 . S
H794 C759 0.949 . S
H795 C760 0.950 . S
H796 C764 0.951 . S
H797 C765 0.950 . S
H798 C769 0.949 . S
H799 C770 0.950 . S
H800 C774 0.950 . S
H801 C776 0.950 . S
H802 C779 0.950 . S
H803 C781 0.950 . S
C804 C805 1.443 . S
C804 N808 1.376 . S
C804 C842 1.389 . S
C805 C804 1.443 . S
C805 C806 1.340 . S
C805 H845 0.951 . S
C806 C805 1.340 . S
C806 C807 1.439 . S
C806 H846 0.950 . S
C807 C806 1.439 . S
C807 N808 1.374 . S
C807 C841 1.395 . S
N808 C804 1.376 . S
N808 C807 1.374 . S
N808 Co809 2.008 . S
Co809 N808 2.008 . S
Co809 N810 1.995 1_554 S
Co809 N815 2.008 1_554 S
Co809 N820 1.995 . S
Co809 N825 2.282 . S
Co809 N831 2.282 1_554 S
N810 Co809 1.995 1_556 S
N810 C811 1.376 . S
N810 C814 1.383 . S
C811 N810 1.376 . S
C811 C812 1.446 . S
C811 C841 1.391 1_556 S
C812 C811 1.446 . S
C812 C813 1.339 . S
C812 H847 0.949 . S
C813 C812 1.339 . S
C813 C814 1.439 . S
C813 H848 0.950 . S
C814 N810 1.383 . S
C814 C813 1.439 . S
C814 C843 1.392 . S
N815 Co809 2.008 1_556 S
N815 C816 1.376 . S
N815 C819 1.374 . S
C816 N815 1.376 . S
C816 C817 1.443 . S
C816 C843 1.389 . S
C817 C816 1.443 . S
C817 C818 1.340 . S
C817 H849 0.951 . S
C818 C817 1.340 . S
C818 C819 1.439 . S
C818 H850 0.950 . S
C819 N815 1.374 . S
C819 C818 1.439 . S
C819 C844 1.395 1_556 S
N820 Co809 1.995 . S
N820 C821 1.376 . S
N820 C824 1.383 . S
C821 N820 1.376 . S
C821 C822 1.446 . S
C821 C844 1.391 . S
C822 C821 1.446 . S
C822 C823 1.339 . S
C822 H851 0.949 . S
C823 C822 1.339 . S
C823 C824 1.439 . S
C823 H852 0.950 . S
C824 N820 1.383 . S
C824 C823 1.439 . S
C824 C842 1.392 . S
N825 Co809 2.282 . S
N825 C828 1.332 . S
N825 C830 1.332 . S
C826 C827 1.386 . S
C826 C829 1.388 . S
C827 C826 1.386 . S
C827 C828 1.382 . S
C827 H853 0.950 . S
C828 N825 1.332 . S
C828 C827 1.382 . S
C828 H839 0.952 . S
C829 C826 1.388 . S
C829 C830 1.382 . S
C829 H854 0.950 . S
C830 N825 1.332 . S
C830 C829 1.382 . S
C830 H840 0.948 . S
N831 Co809 2.282 1_556 S
N831 C835 1.332 . S
N831 C836 1.332 . S
C832 C833 1.388 . S
C832 C836 1.382 . S
C832 H855 0.950 . S
C833 C832 1.388 . S
C833 C834 1.386 . S
C834 C833 1.386 . S
C834 C835 1.382 . S
C834 H856 0.950 . S
C835 N831 1.332 . S
C835 C834 1.382 . S
C835 H837 0.952 . S
C836 N831 1.332 . S
C836 C832 1.382 . S
C836 H838 0.948 . S
H837 C835 0.952 . S
H838 C836 0.948 . S
H839 C828 0.952 . S
H840 C830 0.948 . S
C841 C807 1.395 . S
C841 C811 1.391 1_554 S
C842 C804 1.389 . S
C842 C824 1.392 . S
C843 C814 1.392 . S
C843 C816 1.389 . S
C844 C819 1.395 1_554 S
C844 C821 1.391 . S
H845 C805 0.951 . S
H846 C806 0.950 . S
H847 C812 0.949 . S
H848 C813 0.950 . S
H849 C817 0.951 . S
H850 C818 0.950 . S
H851 C822 0.949 . S
H852 C823 0.950 . S
H853 C827 0.950 . S
H854 C829 0.950 . S
H855 C832 0.950 . S
H856 C834 0.950 . S
C857 C858 1.443 . S
C857 N861 1.376 . S
C857 C895 1.389 . S
C858 C857 1.443 . S
C858 C859 1.340 . S
C858 H898 0.951 . S
C859 C858 1.340 . S
C859 C860 1.439 . S
C859 H899 0.950 . S
C860 C859 1.439 . S
C860 N861 1.374 . S
C860 C894 1.395 1_554 S
N861 C857 1.376 . S
N861 C860 1.374 . S
N861 Co862 2.008 . S
Co862 N861 2.008 . S
Co862 N863 1.995 1_554 S
Co862 N868 2.008 1_554 S
Co862 N873 1.995 . S
Co862 N878 2.282 . S
Co862 N884 2.282 1_554 S
N863 Co862 1.995 1_556 S
N863 C864 1.376 . S
N863 C867 1.383 . S
C864 N863 1.376 . S
C864 C865 1.446 . S
C864 C894 1.391 . S
C865 C864 1.446 . S
C865 C866 1.339 . S
C865 H900 0.949 . S
C866 C865 1.339 . S
C866 C867 1.439 . S
C866 H901 0.950 . S
C867 N863 1.383 . S
C867 C866 1.439 . S
C867 C896 1.392 . S
N868 Co862 2.008 1_556 S
N868 C869 1.376 . S
N868 C872 1.374 1_556 S
C869 N868 1.376 . S
C869 C870 1.443 . S
C869 C896 1.389 . S
C870 C869 1.443 . S
C870 C871 1.340 . S
C870 H902 0.951 . S
C871 C870 1.340 . S
C871 C872 1.439 1_556 S
C871 H903 0.950 1_556 S
C872 N868 1.374 1_554 S
C872 C871 1.439 1_554 S
C872 C897 1.395 . S
N873 Co862 1.995 . S
N873 C874 1.376 . S
N873 C877 1.383 . S
C874 N873 1.376 . S
C874 C875 1.446 . S
C874 C897 1.391 . S
C875 C874 1.446 . S
C875 C876 1.339 . S
C875 H904 0.949 . S
C876 C875 1.339 . S
C876 C877 1.439 . S
C876 H905 0.950 . S
C877 N873 1.383 . S
C877 C876 1.439 . S
C877 C895 1.392 . S
N878 Co862 2.282 . S
N878 C881 1.332 . S
N878 C883 1.332 . S
C879 C880 1.386 . S
C879 C882 1.388 . S
C880 C879 1.386 . S
C880 C881 1.382 . S
C880 H906 0.950 . S
C881 N878 1.332 . S
C881 C880 1.382 . S
C881 H892 0.952 . S
C882 C879 1.388 . S
C882 C883 1.382 . S
C882 H907 0.950 . S
C883 N878 1.332 . S
C883 C882 1.382 . S
C883 H893 0.948 . S
N884 Co862 2.282 1_556 S
N884 C888 1.332 . S
N884 C889 1.332 . S
C885 C886 1.388 . S
C885 C889 1.382 . S
C885 H908 0.950 . S
C886 C885 1.388 . S
C886 C887 1.386 . S
C887 C886 1.386 . S
C887 C888 1.382 . S
C887 H909 0.950 . S
C888 N884 1.332 . S
C888 C887 1.382 . S
C888 H890 0.952 . S
C889 N884 1.332 . S
C889 C885 1.382 . S
C889 H891 0.948 . S
H890 C888 0.952 . S
H891 C889 0.948 . S
H892 C881 0.952 . S
H893 C883 0.948 . S
C894 C860 1.395 1_556 S
C894 C864 1.391 . S
C895 C857 1.389 . S
C895 C877 1.392 . S
C896 C867 1.392 . S
C896 C869 1.389 . S
C897 C872 1.395 . S
C897 C874 1.391 . S
H898 C858 0.951 . S
H899 C859 0.950 . S
H900 C865 0.949 . S
H901 C866 0.950 . S
H902 C870 0.951 . S
H903 C871 0.950 1_554 S
H904 C875 0.949 . S
H905 C876 0.950 . S
H906 C880 0.950 . S
H907 C882 0.950 . S
H908 C885 0.950 . S
H909 C887 0.950 . S
C910 C911 1.443 . S
C910 N914 1.376 . S
C910 C948 1.389 1_554 S
C911 C910 1.443 . S
C911 C912 1.340 . S
C911 H951 0.951 1_554 S
C912 C911 1.340 . S
C912 C913 1.439 . S
C912 H952 0.950 . S
C913 C912 1.439 . S
C913 N914 1.374 . S
C913 C947 1.395 . S
N914 C910 1.376 . S
N914 C913 1.374 . S
N914 Co915 2.008 . S
Co915 N914 2.008 . S
Co915 N916 1.995 . S
Co915 N921 2.008 . S
Co915 N926 1.995 . S
Co915 N931 2.282 . S
Co915 N937 2.282 . S
N916 Co915 1.995 . S
N916 C917 1.376 . S
N916 C920 1.383 . S
C917 N916 1.376 . S
C917 C918 1.446 . S
C917 C947 1.391 . S
C918 C917 1.446 . S
C918 C919 1.339 . S
C918 H953 0.949 . S
C919 C918 1.339 . S
C919 C920 1.439 . S
C919 H954 0.950 . S
C920 N916 1.383 . S
C920 C919 1.439 . S
C920 C949 1.392 . S
N921 Co915 2.008 . S
N921 C922 1.376 . S
N921 C925 1.374 . S
C922 N921 1.376 . S
C922 C923 1.443 . S
C922 C949 1.389 . S
C923 C922 1.443 . S
C923 C924 1.340 . S
C923 H955 0.951 . S
C924 C923 1.340 . S
C924 C925 1.439 . S
C924 H956 0.950 . S
C925 N921 1.374 . S
C925 C924 1.439 . S
C925 C950 1.395 . S
N926 Co915 1.995 . S
N926 C927 1.376 . S
N926 C930 1.383 1_554 S
C927 N926 1.376 . S
C927 C928 1.446 1_554 S
C927 C950 1.391 . S
C928 C927 1.446 1_556 S
C928 C929 1.339 . S
C928 H957 0.949 . S
C929 C928 1.339 . S
C929 C930 1.439 . S
C929 H958 0.950 . S
C930 N926 1.383 1_556 S
C930 C929 1.439 . S
C930 C948 1.392 . S
N931 Co915 2.282 . S
N931 C934 1.332 . S
N931 C936 1.332 . S
C932 C933 1.386 . S
C932 C935 1.388 1_556 S
C933 C932 1.386 . S
C933 C934 1.382 1_556 S
C933 H959 0.950 . S
C934 N931 1.332 . S
C934 C933 1.382 1_554 S
C934 H945 0.952 1_554 S
C935 C932 1.388 1_554 S
C935 C936 1.382 . S
C935 H960 0.950 . S
C936 N931 1.332 . S
C936 C935 1.382 . S
C936 H946 0.948 . S
N937 Co915 2.282 . S
N937 C941 1.332 . S
N937 C942 1.332 . S
C938 C939 1.388 . S
C938 C942 1.382 . S
C938 H961 0.950 . S
C939 C938 1.388 . S
C939 C940 1.386 . S
C940 C939 1.386 . S
C940 C941 1.382 . S
C940 H962 0.950 . S
C941 N937 1.332 . S
C941 C940 1.382 . S
C941 H943 0.952 . S
C942 N937 1.332 . S
C942 C938 1.382 . S
C942 H944 0.948 . S
H943 C941 0.952 . S
H944 C942 0.948 . S
H945 C934 0.952 1_556 S
H946 C936 0.948 . S
C947 C913 1.395 . S
C947 C917 1.391 . S
C948 C910 1.389 1_556 S
C948 C930 1.392 . S
C949 C920 1.392 . S
C949 C922 1.389 . S
C950 C925 1.395 . S
C950 C927 1.391 . S
H951 C911 0.951 1_556 S
H952 C912 0.950 . S
H953 C918 0.949 . S
H954 C919 0.950 . S
H955 C923 0.951 . S
H956 C924 0.950 . S
H957 C928 0.949 . S
H958 C929 0.950 . S
H959 C933 0.950 . S
H960 C935 0.950 . S
H961 C938 0.950 . S
H962 C940 0.950 . S
C963 C964 1.443 . S
C963 N967 1.376 . S
C963 C1001 1.389 . S
C964 C963 1.443 . S
C964 C965 1.340 . S
C964 H1004 0.951 . S
C965 C964 1.340 . S
C965 C966 1.439 . S
C965 H1005 0.950 . S
C966 C965 1.439 . S
C966 N967 1.374 . S
C966 C1000 1.395 . S
N967 C963 1.376 . S
N967 C966 1.374 . S
N967 Co968 2.008 . S
Co968 N967 2.008 . S
Co968 N969 1.995 . S
Co968 N974 2.008 . S
Co968 N979 1.995 . S
Co968 N984 2.282 . S
Co968 N990 2.282 . S
N969 Co968 1.995 . S
N969 C970 1.376 . S
N969 C973 1.383 . S
C970 N969 1.376 . S
C970 C971 1.446 . S
C970 C1000 1.391 . S
C971 C970 1.446 . S
C971 C972 1.339 . S
C971 H1006 0.949 . S
C972 C971 1.339 . S
C972 C973 1.439 . S
C972 H1007 0.950 . S
C973 N969 1.383 . S
C973 C972 1.439 . S
C973 C1002 1.392 . S
N974 Co968 2.008 . S
N974 C975 1.376 . S
N974 C978 1.374 . S
C975 N974 1.376 . S
C975 C976 1.443 . S
C975 C1002 1.389 . S
C976 C975 1.443 . S
C976 C977 1.340 . S
C976 H1008 0.951 . S
C977 C976 1.340 . S
C977 C978 1.439 . S
C977 H1009 0.950 . S
C978 N974 1.374 . S
C978 C977 1.439 . S
C978 C1003 1.395 . S
N979 Co968 1.995 . S
N979 C980 1.376 . S
N979 C983 1.383 . S
C980 N979 1.376 . S
C980 C981 1.446 . S
C980 C1003 1.391 . S
C981 C980 1.446 . S
C981 C982 1.339 . S
C981 H1010 0.949 . S
C982 C981 1.339 . S
C982 C983 1.439 . S
C982 H1011 0.950 . S
C983 N979 1.383 . S
C983 C982 1.439 . S
C983 C1001 1.392 . S
N984 Co968 2.282 . S
N984 C987 1.332 . S
N984 C989 1.332 . S
C985 C986 1.386 . S
C985 C988 1.388 . S
C986 C985 1.386 . S
C986 C987 1.382 . S
C986 H1012 0.950 . S
C987 N984 1.332 . S
C987 C986 1.382 . S
C987 H998 0.952 . S
C988 C985 1.388 . S
C988 C989 1.382 . S
C988 H1013 0.950 . S
C989 N984 1.332 . S
C989 C988 1.382 . S
C989 H999 0.948 . S
N990 Co968 2.282 . S
N990 C994 1.332 . S
N990 C995 1.332 . S
C991 C992 1.388 . S
C991 C995 1.382 . S
C991 H1014 0.950 . S
C992 C991 1.388 . S
C992 C993 1.386 . S
C993 C992 1.386 . S
C993 C994 1.382 . S
C993 H1015 0.950 . S
C994 N990 1.332 . S
C994 C993 1.382 . S
C994 H996 0.952 . S
C995 N990 1.332 . S
C995 C991 1.382 . S
C995 H997 0.948 . S
H996 C994 0.952 . S
H997 C995 0.948 . S
H998 C987 0.952 . S
H999 C989 0.948 . S
C1000 C966 1.395 . S
C1000 C970 1.391 . S
C1001 C963 1.389 . S
C1001 C983 1.392 . S
C1002 C973 1.392 . S
C1002 C975 1.389 . S
C1003 C978 1.395 . S
C1003 C980 1.391 . S
H1004 C964 0.951 . S
H1005 C965 0.950 . S
H1006 C971 0.949 . S
H1007 C972 0.950 . S
H1008 C976 0.951 . S
H1009 C977 0.950 . S
H1010 C981 0.949 . S
H1011 C982 0.950 . S
H1012 C986 0.950 . S
H1013 C988 0.950 . S
H1014 C991 0.950 . S
H1015 C993 0.950 . S
H1016 C1024 0.950 . S
H1017 C1029 0.950 . S
H1018 C1026 0.950 . S
H1019 C1028 0.950 . S
H1020 C1030 0.950 . S
H1021 C1032 0.950 . S
H1022 C1034 0.950 . S
H1023 C1035 0.950 . S
C1024 H1016 0.950 . S
C1024 C1025 1.386 . S
C1024 C1026 1.391 . S
C1025 C1024 1.386 . S
C1025 C1029 1.393 . S
C1026 H1018 0.950 . S
C1026 C1024 1.391 . S
C1026 C1027 1.400 . S
C1027 C1026 1.400 . S
C1027 C1028 1.398 . S
C1027 C1033 1.491 . S
C1028 H1019 0.950 . S
C1028 C1027 1.398 . S
C1028 C1029 1.391 . S
C1029 H1017 0.950 . S
C1029 C1025 1.393 . S
C1029 C1028 1.391 . S
C1030 H1020 0.950 . S
C1030 C1031 1.386 . S
C1030 C1032 1.391 . S
C1031 C1030 1.386 . S
C1031 C1035 1.393 . S
C1032 H1021 0.950 . S
C1032 C1030 1.391 . S
C1032 C1033 1.400 . S
C1033 C1027 1.491 . S
C1033 C1032 1.400 . S
C1033 C1034 1.398 . S
C1034 H1022 0.950 . S
C1034 C1033 1.398 . S
C1034 C1035 1.391 . S
C1035 H1023 0.950 . S
C1035 C1031 1.393 . S
C1035 C1034 1.391 . S
H1036 C1044 0.950 . S
H1037 C1049 0.950 . S
H1038 C1046 0.950 . S
H1039 C1048 0.950 . S
H1040 C1050 0.950 . S
H1041 C1052 0.950 . S
H1042 C1054 0.950 . S
H1043 C1055 0.950 . S
C1044 H1036 0.950 . S
C1044 C1045 1.386 . S
C1044 C1046 1.391 . S
C1045 C1044 1.386 . S
C1045 C1049 1.393 . S
C1046 H1038 0.950 . S
C1046 C1044 1.391 . S
C1046 C1047 1.400 . S
C1047 C1046 1.400 . S
C1047 C1048 1.398 . S
C1047 C1053 1.491 . S
C1048 H1039 0.950 . S
C1048 C1047 1.398 . S
C1048 C1049 1.391 . S
C1049 H1037 0.950 . S
C1049 C1045 1.393 . S
C1049 C1048 1.391 . S
C1050 H1040 0.950 . S
C1050 C1051 1.386 . S
C1050 C1052 1.391 . S
C1051 C1050 1.386 . S
C1051 C1055 1.393 . S
C1052 H1041 0.950 . S
C1052 C1050 1.391 . S
C1052 C1053 1.400 . S
C1053 C1047 1.491 . S
C1053 C1052 1.400 . S
C1053 C1054 1.398 . S
C1054 H1042 0.950 . S
C1054 C1053 1.398 . S
C1054 C1055 1.391 . S
C1055 H1043 0.950 . S
C1055 C1051 1.393 . S
C1055 C1054 1.391 . S
H1056 C1064 0.950 . S
H1057 C1069 0.950 . S
H1058 C1066 0.950 . S
H1059 C1068 0.950 . S
H1060 C1070 0.950 . S
H1061 C1072 0.950 . S
H1062 C1074 0.950 . S
H1063 C1075 0.950 . S
C1064 H1056 0.950 . S
C1064 C1065 1.386 . S
C1064 C1066 1.391 . S
C1065 C1064 1.386 . S
C1065 C1069 1.393 . S
C1066 H1058 0.950 . S
C1066 C1064 1.391 . S
C1066 C1067 1.400 . S
C1067 C1066 1.400 . S
C1067 C1068 1.398 . S
C1067 C1073 1.491 . S
C1068 H1059 0.950 . S
C1068 C1067 1.398 . S
C1068 C1069 1.391 . S
C1069 H1057 0.950 . S
C1069 C1065 1.393 . S
C1069 C1068 1.391 . S
C1070 H1060 0.950 . S
C1070 C1071 1.386 . S
C1070 C1072 1.391 . S
C1071 C1070 1.386 . S
C1071 C1075 1.393 . S
C1072 H1061 0.950 . S
C1072 C1070 1.391 . S
C1072 C1073 1.400 . S
C1073 C1067 1.491 . S
C1073 C1072 1.400 . S
C1073 C1074 1.398 . S
C1074 H1062 0.950 . S
C1074 C1073 1.398 . S
C1074 C1075 1.391 . S
C1075 H1063 0.950 . S
C1075 C1071 1.393 . S
C1075 C1074 1.391 . S
H1076 C1084 0.950 . S
H1077 C1089 0.950 . S
H1078 C1086 0.950 . S
H1079 C1088 0.950 . S
H1080 C1090 0.950 . S
H1081 C1092 0.950 . S
H1082 C1094 0.950 . S
H1083 C1095 0.950 . S
C1084 H1076 0.950 . S
C1084 C1085 1.386 . S
C1084 C1086 1.391 1_565 S
C1085 C1084 1.386 . S
C1085 C1089 1.393 . S
C1086 H1078 0.950 . S
C1086 C1084 1.391 1_545 S
C1086 C1087 1.403 . S
C1087 C1086 1.403 . S
C1087 C1088 1.380 1_545 S
C1087 C1093 1.506 . S
C1088 H1079 0.950 . S
C1088 C1087 1.380 1_565 S
C1088 C1089 1.391 . S
C1089 H1077 0.950 . S
C1089 C1085 1.393 . S
C1089 C1088 1.391 . S
C1090 H1080 0.950 . S
C1090 C1091 1.386 . S
C1090 C1092 1.391 . S
C1091 C1090 1.386 . S
C1091 C1095 1.393 . S
C1092 H1081 0.950 . S
C1092 C1090 1.391 . S
C1092 C1093 1.400 . S
C1093 C1087 1.506 . S
C1093 C1092 1.400 . S
C1093 C1094 1.398 . S
C1094 H1082 0.950 . S
C1094 C1093 1.398 . S
C1094 C1095 1.391 . S
C1095 H1083 0.950 . S
C1095 C1091 1.393 . S
C1095 C1094 1.391 . S
H1096 C1104 0.950 . S
H1097 C1109 0.950 . S
H1098 C1106 0.950 . S
H1099 C1108 0.950 . S
H1100 C1110 0.950 . S
H1101 C1112 0.950 . S
H1102 C1114 0.950 . S
H1103 C1115 0.950 . S
C1104 H1096 0.950 . S
C1104 C1105 1.386 . S
C1104 C1106 1.391 . S
C1105 C1104 1.386 . S
C1105 C1109 1.393 . S
C1106 H1098 0.950 . S
C1106 C1104 1.391 . S
C1106 C1107 1.400 . S
C1107 C1106 1.400 . S
C1107 C1108 1.398 . S
C1107 C1113 1.491 . S
C1108 H1099 0.950 . S
C1108 C1107 1.398 . S
C1108 C1109 1.391 . S
C1109 H1097 0.950 . S
C1109 C1105 1.393 . S
C1109 C1108 1.391 . S
C1110 H1100 0.950 . S
C1110 C1111 1.386 . S
C1110 C1112 1.391 . S
C1111 C1110 1.386 . S
C1111 C1115 1.393 . S
C1112 H1101 0.950 . S
C1112 C1110 1.391 . S
C1112 C1113 1.400 . S
C1113 C1107 1.491 . S
C1113 C1112 1.400 . S
C1113 C1114 1.398 . S
C1114 H1102 0.950 . S
C1114 C1113 1.398 . S
C1114 C1115 1.391 . S
C1115 H1103 0.950 . S
C1115 C1111 1.393 . S
C1115 C1114 1.391 . S
H1116 C1124 0.950 . S
H1117 C1129 0.950 . S
H1118 C1126 0.950 . S
H1119 C1128 0.950 . S
H1120 C1130 0.950 . S
H1121 C1132 0.950 . S
H1122 C1134 0.950 . S
H1123 C1135 0.950 . S
C1124 H1116 0.950 . S
C1124 C1125 1.386 . S
C1124 C1126 1.391 . S
C1125 C1124 1.386 . S
C1125 C1129 1.393 . S
C1126 H1118 0.950 . S
C1126 C1124 1.391 . S
C1126 C1127 1.400 . S
C1127 C1126 1.400 . S
C1127 C1128 1.398 . S
C1127 C1133 1.491 . S
C1128 H1119 0.950 . S
C1128 C1127 1.398 . S
C1128 C1129 1.391 . S
C1129 H1117 0.950 . S
C1129 C1125 1.393 . S
C1129 C1128 1.391 . S
C1130 H1120 0.950 . S
C1130 C1131 1.386 . S
C1130 C1132 1.391 . S
C1131 C1130 1.386 . S
C1131 C1135 1.393 . S
C1132 H1121 0.950 . S
C1132 C1130 1.391 . S
C1132 C1133 1.400 . S
C1133 C1127 1.491 . S
C1133 C1132 1.400 . S
C1133 C1134 1.398 . S
C1134 H1122 0.950 . S
C1134 C1133 1.398 . S
C1134 C1135 1.391 . S
C1135 H1123 0.950 . S
C1135 C1131 1.393 . S
C1135 C1134 1.391 . S
H1136 C1144 0.950 . S
H1137 C1149 0.950 . S
H1138 C1146 0.950 . S
H1139 C1148 0.950 . S
H1140 C1150 0.950 . S
H1141 C1152 0.950 . S
H1142 C1154 0.950 . S
H1143 C1155 0.950 . S
C1144 H1136 0.950 . S
C1144 C1145 1.386 . S
C1144 C1146 1.391 . S
C1145 C1144 1.386 . S
C1145 C1149 1.393 . S
C1146 H1138 0.950 . S
C1146 C1144 1.391 . S
C1146 C1147 1.400 . S
C1147 C1146 1.400 . S
C1147 C1148 1.398 . S
C1147 C1153 1.491 . S
C1148 H1139 0.950 . S
C1148 C1147 1.398 . S
C1148 C1149 1.391 . S
C1149 H1137 0.950 . S
C1149 C1145 1.393 . S
C1149 C1148 1.391 . S
C1150 H1140 0.950 . S
C1150 C1151 1.386 . S
C1150 C1152 1.391 . S
C1151 C1150 1.386 . S
C1151 C1155 1.393 . S
C1152 H1141 0.950 . S
C1152 C1150 1.391 . S
C1152 C1153 1.400 . S
C1153 C1147 1.491 . S
C1153 C1152 1.400 . S
C1153 C1154 1.398 . S
C1154 H1142 0.950 . S
C1154 C1153 1.398 . S
C1154 C1155 1.391 . S
C1155 H1143 0.950 . S
C1155 C1151 1.393 . S
C1155 C1154 1.391 . S
H1156 C1164 0.950 . S
H1157 C1169 0.950 . S
H1158 C1166 0.950 . S
H1159 C1168 0.950 . S
H1160 C1170 0.950 . S
H1161 C1172 0.950 . S
H1162 C1174 0.950 . S
H1163 C1175 0.950 . S
C1164 H1156 0.950 . S
C1164 C1165 1.386 . S
C1164 C1166 1.391 . S
C1165 C1164 1.386 . S
C1165 C1169 1.393 . S
C1166 H1158 0.950 . S
C1166 C1164 1.391 . S
C1166 C1167 1.400 . S
C1167 C1166 1.400 . S
C1167 C1168 1.398 . S
C1167 C1173 1.491 . S
C1168 H1159 0.950 . S
C1168 C1167 1.398 . S
C1168 C1169 1.391 . S
C1169 H1157 0.950 . S
C1169 C1165 1.393 . S
C1169 C1168 1.391 . S
C1170 H1160 0.950 . S
C1170 C1171 1.386 . S
C1170 C1172 1.391 . S
C1171 C1170 1.386 . S
C1171 C1175 1.393 . S
C1172 H1161 0.950 . S
C1172 C1170 1.391 . S
C1172 C1173 1.400 . S
C1173 C1167 1.491 . S
C1173 C1172 1.400 . S
C1173 C1174 1.398 . S
C1174 H1162 0.950 . S
C1174 C1173 1.398 . S
C1174 C1175 1.391 . S
C1175 H1163 0.950 . S
C1175 C1171 1.393 . S
C1175 C1174 1.391 . S
H1176 C1184 0.950 . S
H1177 C1189 0.950 . S
H1178 C1186 0.950 . S
H1179 C1188 0.950 . S
H1180 C1190 0.950 . S
H1181 C1192 0.950 . S
H1182 C1194 0.950 . S
H1183 C1195 0.950 . S
C1184 H1176 0.950 . S
C1184 C1185 1.386 . S
C1184 C1186 1.391 . S
C1185 C1184 1.386 . S
C1185 C1189 1.393 . S
C1186 H1178 0.950 . S
C1186 C1184 1.391 . S
C1186 C1187 1.400 . S
C1187 C1186 1.400 . S
C1187 C1188 1.398 . S
C1187 C1193 1.491 . S
C1188 H1179 0.950 . S
C1188 C1187 1.398 . S
C1188 C1189 1.391 . S
C1189 H1177 0.950 . S
C1189 C1185 1.393 . S
C1189 C1188 1.391 . S
C1190 H1180 0.950 . S
C1190 C1191 1.386 . S
C1190 C1192 1.391 . S
C1191 C1190 1.386 . S
C1191 C1195 1.393 . S
C1192 H1181 0.950 . S
C1192 C1190 1.391 . S
C1192 C1193 1.400 . S
C1193 C1187 1.491 . S
C1193 C1192 1.400 . S
C1193 C1194 1.398 . S
C1194 H1182 0.950 . S
C1194 C1193 1.398 . S
C1194 C1195 1.391 . S
C1195 H1183 0.950 . S
C1195 C1191 1.393 . S
C1195 C1194 1.391 . S
H1196 C1204 0.950 . S
H1197 C1209 0.950 . S
H1198 C1206 0.950 . S
H1199 C1208 0.950 . S
H1200 C1210 0.950 . S
H1201 C1212 0.950 . S
H1202 C1214 0.950 . S
H1203 C1215 0.950 . S
C1204 H1196 0.950 . S
C1204 C1205 1.386 1_545 S
C1204 C1206 1.391 . S
C1205 C1204 1.386 1_565 S
C1205 C1209 1.393 . S
C1206 H1198 0.950 . S
C1206 C1204 1.391 . S
C1206 C1207 1.400 . S
C1207 C1206 1.400 . S
C1207 C1208 1.398 . S
C1207 C1213 1.491 . S
C1208 H1199 0.950 . S
C1208 C1207 1.398 . S
C1208 C1209 1.391 1_545 S
C1209 H1197 0.950 . S
C1209 C1205 1.393 . S
C1209 C1208 1.391 1_565 S
C1210 H1200 0.950 . S
C1210 C1211 1.386 . S
C1210 C1212 1.391 . S
C1211 C1210 1.386 . S
C1211 C1215 1.393 . S
C1212 H1201 0.950 . S
C1212 C1210 1.391 . S
C1212 C1213 1.400 . S
C1213 C1207 1.491 . S
C1213 C1212 1.400 . S
C1213 C1214 1.398 . S
C1214 H1202 0.950 . S
C1214 C1213 1.398 . S
C1214 C1215 1.391 . S
C1215 H1203 0.950 . S
C1215 C1211 1.393 . S
C1215 C1214 1.391 . S
H1216 C1224 0.950 . S
H1217 C1229 0.950 . S
H1218 C1226 0.950 . S
H1219 C1228 0.950 . S
H1220 C1230 0.950 . S
H1221 C1232 0.950 . S
H1222 C1234 0.950 . S
H1223 C1235 0.950 . S
C1224 H1216 0.950 . S
C1224 C1225 1.386 . S
C1224 C1226 1.391 . S
C1225 C1224 1.386 . S
C1225 C1229 1.393 . S
C1226 H1218 0.950 . S
C1226 C1224 1.391 . S
C1226 C1227 1.400 . S
C1227 C1226 1.400 . S
C1227 C1228 1.398 . S
C1227 C1233 1.491 . S
C1228 H1219 0.950 . S
C1228 C1227 1.398 . S
C1228 C1229 1.391 . S
C1229 H1217 0.950 . S
C1229 C1225 1.393 . S
C1229 C1228 1.391 . S
C1230 H1220 0.950 . S
C1230 C1231 1.386 . S
C1230 C1232 1.391 . S
C1231 C1230 1.386 . S
C1231 C1235 1.393 . S
C1232 H1221 0.950 . S
C1232 C1230 1.391 . S
C1232 C1233 1.400 . S
C1233 C1227 1.491 . S
C1233 C1232 1.400 . S
C1233 C1234 1.398 . S
C1234 H1222 0.950 . S
C1234 C1233 1.398 . S
C1234 C1235 1.391 . S
C1235 H1223 0.950 . S
C1235 C1231 1.393 . S
C1235 C1234 1.391 . S
H1236 C1244 0.950 . S
H1237 C1249 0.950 . S
H1238 C1246 0.950 . S
H1239 C1248 0.950 . S
H1240 C1250 0.950 . S
H1241 C1252 0.950 . S
H1242 C1254 0.950 . S
H1243 C1255 0.950 . S
C1244 H1236 0.950 . S
C1244 C1245 1.386 . S
C1244 C1246 1.391 . S
C1245 C1244 1.386 . S
C1245 C1249 1.393 . S
C1246 H1238 0.950 . S
C1246 C1244 1.391 . S
C1246 C1247 1.400 . S
C1247 C1246 1.400 . S
C1247 C1248 1.398 . S
C1247 C1253 1.491 . S
C1248 H1239 0.950 . S
C1248 C1247 1.398 . S
C1248 C1249 1.391 . S
C1249 H1237 0.950 . S
C1249 C1245 1.393 . S
C1249 C1248 1.391 . S
C1250 H1240 0.950 . S
C1250 C1251 1.386 . S
C1250 C1252 1.391 . S
C1251 C1250 1.386 . S
C1251 C1255 1.393 . S
C1252 H1241 0.950 . S
C1252 C1250 1.391 . S
C1252 C1253 1.400 . S
C1253 C1247 1.491 . S
C1253 C1252 1.400 . S
C1253 C1254 1.398 . S
C1254 H1242 0.950 . S
C1254 C1253 1.398 . S
C1254 C1255 1.391 . S
C1255 H1243 0.950 . S
C1255 C1251 1.393 . S
C1255 C1254 1.391 . S
H1256 C1264 0.950 . S
H1257 C1269 0.950 . S
H1258 C1266 0.950 . S
H1259 C1268 0.950 . S
H1260 C1270 0.950 . S
H1261 C1272 0.950 . S
H1262 C1274 0.950 . S
H1263 C1275 0.950 . S
C1264 H1256 0.950 . S
C1264 C1265 1.386 . S
C1264 C1266 1.391 . S
C1265 C1264 1.386 . S
C1265 C1269 1.393 . S
C1266 H1258 0.950 . S
C1266 C1264 1.391 . S
C1266 C1267 1.400 . S
C1267 C1266 1.400 . S
C1267 C1268 1.398 . S
C1267 C1273 1.491 . S
C1268 H1259 0.950 . S
C1268 C1267 1.398 . S
C1268 C1269 1.391 . S
C1269 H1257 0.950 . S
C1269 C1265 1.393 . S
C1269 C1268 1.391 . S
C1270 H1260 0.950 . S
C1270 C1271 1.386 . S
C1270 C1272 1.391 . S
C1271 C1270 1.386 . S
C1271 C1275 1.393 . S
C1272 H1261 0.950 . S
C1272 C1270 1.391 . S
C1272 C1273 1.400 . S
C1273 C1267 1.491 . S
C1273 C1272 1.400 . S
C1273 C1274 1.398 . S
C1274 H1262 0.950 . S
C1274 C1273 1.398 . S
C1274 C1275 1.391 . S
C1275 H1263 0.950 . S
C1275 C1271 1.393 . S
C1275 C1274 1.391 . S
H1276 C1284 0.950 . S
H1277 C1289 0.950 . S
H1278 C1286 0.950 . S
H1279 C1288 0.950 . S
H1280 C1290 0.950 . S
H1281 C1292 0.950 . S
H1282 C1294 0.950 . S
H1283 C1295 0.950 . S
C1284 H1276 0.950 . S
C1284 C1285 1.386 . S
C1284 C1286 1.391 . S
C1285 C1284 1.386 . S
C1285 C1289 1.393 . S
C1286 H1278 0.950 . S
C1286 C1284 1.391 . S
C1286 C1287 1.400 . S
C1287 C1286 1.400 . S
C1287 C1288 1.398 . S
C1287 C1293 1.491 . S
C1288 H1279 0.950 . S
C1288 C1287 1.398 . S
C1288 C1289 1.391 . S
C1289 H1277 0.950 . S
C1289 C1285 1.393 . S
C1289 C1288 1.391 . S
C1290 H1280 0.950 . S
C1290 C1291 1.386 . S
C1290 C1292 1.391 . S
C1291 C1290 1.386 . S
C1291 C1295 1.393 . S
C1292 H1281 0.950 . S
C1292 C1290 1.391 . S
C1292 C1293 1.400 . S
C1293 C1287 1.491 . S
C1293 C1292 1.400 . S
C1293 C1294 1.398 . S
C1294 H1282 0.950 . S
C1294 C1293 1.398 . S
C1294 C1295 1.391 . S
C1295 H1283 0.950 . S
C1295 C1291 1.393 . S
C1295 C1294 1.391 . S
H1296 C1304 0.950 . S
H1297 C1309 0.950 . S
H1298 C1306 0.950 . S
H1299 C1308 0.950 . S
H1300 C1310 0.950 . S
H1301 C1312 0.950 . S
H1302 C1314 0.950 . S
H1303 C1315 0.950 . S
C1304 H1296 0.950 . S
C1304 C1305 1.386 . S
C1304 C1306 1.391 . S
C1305 C1304 1.386 . S
C1305 C1309 1.393 . S
C1306 H1298 0.950 . S
C1306 C1304 1.391 . S
C1306 C1307 1.400 . S
C1307 C1306 1.400 . S
C1307 C1308 1.398 . S
C1307 C1313 1.491 . S
C1308 H1299 0.950 . S
C1308 C1307 1.398 . S
C1308 C1309 1.391 . S
C1309 H1297 0.950 . S
C1309 C1305 1.393 . S
C1309 C1308 1.391 . S
C1310 H1300 0.950 . S
C1310 C1311 1.386 . S
C1310 C1312 1.391 . S
C1311 C1310 1.386 . S
C1311 C1315 1.393 . S
C1312 H1301 0.950 . S
C1312 C1310 1.391 . S
C1312 C1313 1.400 . S
C1313 C1307 1.491 . S
C1313 C1312 1.400 . S
C1313 C1314 1.398 . S
C1314 H1302 0.950 . S
C1314 C1313 1.398 . S
C1314 C1315 1.391 . S
C1315 H1303 0.950 . S
C1315 C1311 1.393 . S
C1315 C1314 1.391 . S
H1316 C1324 0.950 . S
H1317 C1329 0.950 . S
H1318 C1326 0.950 . S
H1319 C1328 0.950 . S
H1320 C1330 0.950 . S
H1321 C1332 0.950 . S
H1322 C1334 0.950 . S
H1323 C1335 0.950 . S
C1324 H1316 0.950 . S
C1324 C1325 1.386 . S
C1324 C1326 1.391 . S
C1325 C1324 1.386 . S
C1325 C1329 1.393 . S
C1326 H1318 0.950 . S
C1326 C1324 1.391 . S
C1326 C1327 1.400 . S
C1327 C1326 1.400 . S
C1327 C1328 1.398 . S
C1327 C1333 1.491 . S
C1328 H1319 0.950 . S
C1328 C1327 1.398 . S
C1328 C1329 1.391 . S
C1329 H1317 0.950 . S
C1329 C1325 1.393 . S
C1329 C1328 1.391 . S
C1330 H1320 0.950 . S
C1330 C1331 1.386 . S
C1330 C1332 1.391 . S
C1331 C1330 1.386 . S
C1331 C1335 1.393 . S
C1332 H1321 0.950 . S
C1332 C1330 1.391 . S
C1332 C1333 1.400 . S
C1333 C1327 1.491 . S
C1333 C1332 1.400 . S
C1333 C1334 1.398 . S
C1334 H1322 0.950 . S
C1334 C1333 1.398 . S
C1334 C1335 1.391 . S
C1335 H1323 0.950 . S
C1335 C1331 1.393 . S
C1335 C1334 1.391 . S
H1336 C1344 0.950 . S
H1337 C1349 0.950 . S
H1338 C1346 0.950 . S
H1339 C1348 0.950 . S
H1340 C1350 0.950 . S
H1341 C1352 0.950 . S
H1342 C1354 0.950 . S
H1343 C1355 0.950 . S
C1344 H1336 0.950 . S
C1344 C1345 1.386 . S
C1344 C1346 1.391 . S
C1345 C1344 1.386 . S
C1345 C1349 1.393 . S
C1346 H1338 0.950 . S
C1346 C1344 1.391 . S
C1346 C1347 1.400 . S
C1347 C1346 1.400 . S
C1347 C1348 1.398 . S
C1347 C1353 1.491 . S
C1348 H1339 0.950 . S
C1348 C1347 1.398 . S
C1348 C1349 1.391 . S
C1349 H1337 0.950 . S
C1349 C1345 1.393 . S
C1349 C1348 1.391 . S
C1350 H1340 0.950 . S
C1350 C1351 1.386 . S
C1350 C1352 1.391 . S
C1351 C1350 1.386 . S
C1351 C1355 1.393 . S
C1352 H1341 0.950 . S
C1352 C1350 1.391 . S
C1352 C1353 1.400 . S
C1353 C1347 1.491 . S
C1353 C1352 1.400 . S
C1353 C1354 1.398 . S
C1354 H1342 0.950 . S
C1354 C1353 1.398 . S
C1354 C1355 1.391 . S
C1355 H1343 0.950 . S
C1355 C1351 1.393 . S
C1355 C1354 1.391 . S
H1356 C1364 0.950 . S
H1357 C1369 0.950 . S
H1358 C1366 0.950 . S
H1359 C1368 0.950 . S
H1360 C1370 0.950 . S
H1361 C1372 0.950 . S
H1362 C1374 0.950 . S
H1363 C1375 0.950 . S
C1364 H1356 0.950 . S
C1364 C1365 1.386 . S
C1364 C1366 1.391 . S
C1365 C1364 1.386 . S
C1365 C1369 1.393 . S
C1366 H1358 0.950 . S
C1366 C1364 1.391 . S
C1366 C1367 1.400 . S
C1367 C1366 1.400 . S
C1367 C1368 1.398 . S
C1367 C1373 1.491 . S
C1368 H1359 0.950 . S
C1368 C1367 1.398 . S
C1368 C1369 1.391 . S
C1369 H1357 0.950 . S
C1369 C1365 1.393 . S
C1369 C1368 1.391 . S
C1370 H1360 0.950 . S
C1370 C1371 1.386 . S
C1370 C1372 1.391 . S
C1371 C1370 1.386 . S
C1371 C1375 1.393 . S
C1372 H1361 0.950 . S
C1372 C1370 1.391 . S
C1372 C1373 1.400 . S
C1373 C1367 1.491 . S
C1373 C1372 1.400 . S
C1373 C1374 1.398 . S
C1374 H1362 0.950 . S
C1374 C1373 1.398 . S
C1374 C1375 1.391 . S
C1375 H1363 0.950 . S
C1375 C1371 1.393 . S
C1375 C1374 1.391 . S
H1376 C1384 0.950 . S
H1377 C1389 0.950 . S
H1378 C1386 0.950 . S
H1379 C1388 0.950 . S
H1380 C1390 0.950 . S
H1381 C1392 0.950 . S
H1382 C1394 0.950 . S
H1383 C1395 0.950 . S
C1384 H1376 0.950 . S
C1384 C1385 1.386 . S
C1384 C1386 1.391 . S
C1385 C1384 1.386 . S
C1385 C1389 1.393 . S
C1386 H1378 0.950 . S
C1386 C1384 1.391 . S
C1386 C1387 1.400 . S
C1387 C1386 1.400 . S
C1387 C1388 1.398 . S
C1387 C1393 1.491 . S
C1388 H1379 0.950 . S
C1388 C1387 1.398 . S
C1388 C1389 1.391 . S
C1389 H1377 0.950 . S
C1389 C1385 1.393 . S
C1389 C1388 1.391 . S
C1390 H1380 0.950 . S
C1390 C1391 1.386 . S
C1390 C1392 1.391 . S
C1391 C1390 1.386 . S
C1391 C1395 1.393 . S
C1392 H1381 0.950 . S
C1392 C1390 1.391 . S
C1392 C1393 1.400 . S
C1393 C1387 1.491 . S
C1393 C1392 1.400 . S
C1393 C1394 1.398 . S
C1394 H1382 0.950 . S
C1394 C1393 1.398 . S
C1394 C1395 1.391 . S
C1395 H1383 0.950 . S
C1395 C1391 1.393 . S
C1395 C1394 1.391 . S
H1396 C1404 0.950 1_554 S
H1397 C1409 0.950 . S
H1398 C1406 0.950 . S
H1399 C1408 0.950 . S
H1400 C1410 0.950 . S
H1401 C1412 0.950 1_556 S
H1402 C1414 0.950 . S
H1403 C1415 0.950 . S
C1404 H1396 0.950 1_556 S
C1404 C1405 1.386 . S
C1404 C1406 1.391 1_556 S
C1405 C1404 1.386 . S
C1405 C1409 1.393 . S
C1406 H1398 0.950 . S
C1406 C1404 1.391 1_554 S
C1406 C1407 1.400 . S
C1407 C1406 1.400 . S
C1407 C1408 1.398 1_554 S
C1407 C1413 1.491 . S
C1408 H1399 0.950 . S
C1408 C1407 1.398 1_556 S
C1408 C1409 1.391 . S
C1409 H1397 0.950 . S
C1409 C1405 1.393 . S
C1409 C1408 1.391 . S
C1410 H1400 0.950 . S
C1410 C1411 1.386 . S
C1410 C1412 1.391 . S
C1411 C1410 1.386 . S
C1411 C1415 1.393 . S
C1412 H1401 0.950 1_554 S
C1412 C1410 1.391 . S
C1412 C1413 1.400 . S
C1413 C1407 1.491 . S
C1413 C1412 1.400 . S
C1413 C1414 1.398 . S
C1414 H1402 0.950 . S
C1414 C1413 1.398 . S
C1414 C1415 1.391 . S
C1415 H1403 0.950 . S
C1415 C1411 1.393 . S
C1415 C1414 1.391 . S
H1416 C1424 0.950 . S
H1417 C1429 0.950 . S
H1418 C1426 0.950 . S
H1419 C1428 0.950 . S
H1420 C1430 0.950 . S
H1421 C1432 0.950 . S
H1422 C1434 0.950 . S
H1423 C1435 0.950 . S
C1424 H1416 0.950 . S
C1424 C1425 1.386 . S
C1424 C1426 1.391 . S
C1425 C1424 1.386 . S
C1425 C1429 1.393 . S
C1426 H1418 0.950 . S
C1426 C1424 1.391 . S
C1426 C1427 1.400 . S
C1427 C1426 1.400 . S
C1427 C1428 1.398 . S
C1427 C1433 1.491 . S
C1428 H1419 0.950 . S
C1428 C1427 1.398 . S
C1428 C1429 1.391 . S
C1429 H1417 0.950 . S
C1429 C1425 1.393 . S
C1429 C1428 1.391 . S
C1430 H1420 0.950 . S
C1430 C1431 1.386 . S
C1430 C1432 1.391 . S
C1431 C1430 1.386 . S
C1431 C1435 1.393 . S
C1432 H1421 0.950 . S
C1432 C1430 1.391 . S
C1432 C1433 1.400 . S
C1433 C1427 1.491 . S
C1433 C1432 1.400 . S
C1433 C1434 1.398 . S
C1434 H1422 0.950 . S
C1434 C1433 1.398 . S
C1434 C1435 1.391 . S
C1435 H1423 0.950 . S
C1435 C1431 1.393 . S
C1435 C1434 1.391 . S
H1436 C1444 0.950 . S
H1437 C1449 0.950 . S
H1438 C1446 0.950 . S
H1439 C1448 0.950 . S
H1440 C1450 0.950 . S
H1441 C1452 0.950 . S
H1442 C1454 0.950 . S
H1443 C1455 0.950 . S
C1444 H1436 0.950 . S
C1444 C1445 1.386 . S
C1444 C1446 1.391 . S
C1445 C1444 1.386 . S
C1445 C1449 1.393 . S
C1446 H1438 0.950 . S
C1446 C1444 1.391 . S
C1446 C1447 1.400 . S
C1447 C1446 1.400 . S
C1447 C1448 1.398 . S
C1447 C1453 1.491 . S
C1448 H1439 0.950 . S
C1448 C1447 1.398 . S
C1448 C1449 1.391 . S
C1449 H1437 0.950 . S
C1449 C1445 1.393 . S
C1449 C1448 1.391 . S
C1450 H1440 0.950 . S
C1450 C1451 1.386 . S
C1450 C1452 1.391 . S
C1451 C1450 1.386 . S
C1451 C1455 1.393 . S
C1452 H1441 0.950 . S
C1452 C1450 1.391 . S
C1452 C1453 1.400 . S
C1453 C1447 1.491 . S
C1453 C1452 1.400 . S
C1453 C1454 1.398 . S
C1454 H1442 0.950 . S
C1454 C1453 1.398 . S
C1454 C1455 1.391 . S
C1455 H1443 0.950 . S
C1455 C1451 1.393 . S
C1455 C1454 1.391 . S
H1456 C1464 0.950 . S
H1457 C1469 0.950 . S
H1458 C1466 0.950 . S
H1459 C1468 0.950 . S
H1460 C1470 0.950 . S
H1461 C1472 0.950 . S
H1462 C1474 0.950 . S
H1463 C1475 0.950 . S
C1464 H1456 0.950 . S
C1464 C1465 1.386 . S
C1464 C1466 1.391 . S
C1465 C1464 1.386 . S
C1465 C1469 1.393 . S
C1466 H1458 0.950 . S
C1466 C1464 1.391 . S
C1466 C1467 1.400 . S
C1467 C1466 1.400 . S
C1467 C1468 1.398 . S
C1467 C1473 1.491 . S
C1468 H1459 0.950 . S
C1468 C1467 1.398 . S
C1468 C1469 1.391 . S
C1469 H1457 0.950 . S
C1469 C1465 1.393 . S
C1469 C1468 1.391 . S
C1470 H1460 0.950 . S
C1470 C1471 1.386 . S
C1470 C1472 1.391 . S
C1471 C1470 1.386 . S
C1471 C1475 1.393 . S
C1472 H1461 0.950 . S
C1472 C1470 1.391 . S
C1472 C1473 1.400 . S
C1473 C1467 1.491 . S
C1473 C1472 1.400 . S
C1473 C1474 1.398 . S
C1474 H1462 0.950 . S
C1474 C1473 1.398 . S
C1474 C1475 1.391 . S
C1475 H1463 0.950 . S
C1475 C1471 1.393 . S
C1475 C1474 1.391 . S
H1476 C1484 0.950 . S
H1477 C1489 0.950 . S
H1478 C1486 0.950 . S
H1479 C1488 0.950 . S
H1480 C1490 0.950 . S
H1481 C1492 0.950 . S
H1482 C1494 0.950 . S
H1483 C1495 0.950 . S
C1484 H1476 0.950 . S
C1484 C1485 1.386 . S
C1484 C1486 1.391 . S
C1485 C1484 1.386 . S
C1485 C1489 1.393 . S
C1486 H1478 0.950 . S
C1486 C1484 1.391 . S
C1486 C1487 1.400 . S
C1487 C1486 1.400 . S
C1487 C1488 1.398 . S
C1487 C1493 1.491 . S
C1488 H1479 0.950 . S
C1488 C1487 1.398 . S
C1488 C1489 1.391 . S
C1489 H1477 0.950 . S
C1489 C1485 1.393 . S
C1489 C1488 1.391 . S
C1490 H1480 0.950 . S
C1490 C1491 1.386 . S
C1490 C1492 1.391 . S
C1491 C1490 1.386 . S
C1491 C1495 1.393 . S
C1492 H1481 0.950 . S
C1492 C1490 1.391 . S
C1492 C1493 1.400 . S
C1493 C1487 1.491 . S
C1493 C1492 1.400 . S
C1493 C1494 1.398 . S
C1494 H1482 0.950 . S
C1494 C1493 1.398 . S
C1494 C1495 1.391 . S
C1495 H1483 0.950 . S
C1495 C1491 1.393 . S
C1495 C1494 1.391 . S
H1496 C1504 0.950 . S
H1497 C1509 0.950 . S
H1498 C1506 0.950 . S
H1499 C1508 0.950 . S
H1500 C1510 0.950 . S
H1501 C1512 0.950 . S
H1502 C1514 0.950 . S
H1503 C1515 0.950 . S
C1504 H1496 0.950 . S
C1504 C1505 1.386 . S
C1504 C1506 1.391 . S
C1505 C1504 1.386 . S
C1505 C1509 1.393 . S
C1506 H1498 0.950 . S
C1506 C1504 1.391 . S
C1506 C1507 1.400 . S
C1507 C1506 1.400 . S
C1507 C1508 1.398 . S
C1507 C1513 1.491 . S
C1508 H1499 0.950 . S
C1508 C1507 1.398 . S
C1508 C1509 1.391 . S
C1509 H1497 0.950 . S
C1509 C1505 1.393 . S
C1509 C1508 1.391 . S
C1510 H1500 0.950 . S
C1510 C1511 1.386 . S
C1510 C1512 1.391 . S
C1511 C1510 1.386 . S
C1511 C1515 1.393 . S
C1512 H1501 0.950 . S
C1512 C1510 1.391 . S
C1512 C1513 1.400 . S
C1513 C1507 1.491 . S
C1513 C1512 1.400 . S
C1513 C1514 1.398 . S
C1514 H1502 0.950 . S
C1514 C1513 1.398 . S
C1514 C1515 1.391 . S
C1515 H1503 0.950 . S
C1515 C1511 1.393 . S
C1515 C1514 1.391 . S
H1516 C1524 0.950 . S
H1517 C1529 0.950 . S
H1518 C1526 0.950 . S
H1519 C1528 0.950 . S
H1520 C1530 0.950 . S
H1521 C1532 0.950 . S
H1522 C1534 0.950 . S
H1523 C1535 0.950 . S
C1524 H1516 0.950 . S
C1524 C1525 1.386 . S
C1524 C1526 1.391 . S
C1525 C1524 1.386 . S
C1525 C1529 1.393 . S
C1526 H1518 0.950 . S
C1526 C1524 1.391 . S
C1526 C1527 1.400 . S
C1527 C1526 1.400 . S
C1527 C1528 1.398 . S
C1527 C1533 1.491 . S
C1528 H1519 0.950 . S
C1528 C1527 1.398 . S
C1528 C1529 1.391 . S
C1529 H1517 0.950 . S
C1529 C1525 1.393 . S
C1529 C1528 1.391 . S
C1530 H1520 0.950 . S
C1530 C1531 1.386 . S
C1530 C1532 1.391 . S
C1531 C1530 1.386 . S
C1531 C1535 1.393 . S
C1532 H1521 0.950 . S
C1532 C1530 1.391 . S
C1532 C1533 1.400 . S
C1533 C1527 1.491 . S
C1533 C1532 1.400 . S
C1533 C1534 1.398 . S
C1534 H1522 0.950 . S
C1534 C1533 1.398 . S
C1534 C1535 1.391 . S
C1535 H1523 0.950 . S
C1535 C1531 1.393 . S
C1535 C1534 1.391 . S
H1536 C1544 0.950 . S
H1537 C1549 0.950 . S
H1538 C1546 0.950 . S
H1539 C1548 0.950 . S
H1540 C1550 0.950 . S
H1541 C1552 0.950 . S
H1542 C1554 0.950 . S
H1543 C1555 0.950 . S
C1544 H1536 0.950 . S
C1544 C1545 1.386 . S
C1544 C1546 1.391 . S
C1545 C1544 1.386 . S
C1545 C1549 1.393 . S
C1546 H1538 0.950 . S
C1546 C1544 1.391 . S
C1546 C1547 1.400 . S
C1547 C1546 1.400 . S
C1547 C1548 1.398 . S
C1547 C1553 1.491 . S
C1548 H1539 0.950 . S
C1548 C1547 1.398 . S
C1548 C1549 1.391 . S
C1549 H1537 0.950 . S
C1549 C1545 1.393 . S
C1549 C1548 1.391 . S
C1550 H1540 0.950 . S
C1550 C1551 1.386 . S
C1550 C1552 1.391 . S
C1551 C1550 1.386 . S
C1551 C1555 1.393 . S
C1552 H1541 0.950 . S
C1552 C1550 1.391 . S
C1552 C1553 1.400 . S
C1553 C1547 1.491 . S
C1553 C1552 1.400 . S
C1553 C1554 1.398 . S
C1554 H1542 0.950 . S
C1554 C1553 1.398 . S
C1554 C1555 1.391 . S
C1555 H1543 0.950 . S
C1555 C1551 1.393 . S
C1555 C1554 1.391 . S
H1556 C1564 0.950 . S
H1557 C1569 0.950 . S
H1558 C1566 0.950 . S
H1559 C1568 0.950 . S
H1560 C1570 0.950 . S
H1561 C1572 0.950 . S
H1562 C1574 0.950 . S
H1563 C1575 0.950 . S
C1564 H1556 0.950 . S
C1564 C1565 1.386 . S
C1564 C1566 1.391 . S
C1565 C1564 1.386 . S
C1565 C1569 1.393 . S
C1566 H1558 0.950 . S
C1566 C1564 1.391 . S
C1566 C1567 1.400 . S
C1567 C1566 1.400 . S
C1567 C1568 1.398 . S
C1567 C1573 1.491 . S
C1568 H1559 0.950 . S
C1568 C1567 1.398 . S
C1568 C1569 1.391 . S
C1569 H1557 0.950 . S
C1569 C1565 1.393 . S
C1569 C1568 1.391 . S
C1570 H1560 0.950 . S
C1570 C1571 1.386 . S
C1570 C1572 1.391 . S
C1571 C1570 1.386 . S
C1571 C1575 1.393 . S
C1572 H1561 0.950 . S
C1572 C1570 1.391 . S
C1572 C1573 1.400 . S
C1573 C1567 1.491 . S
C1573 C1572 1.400 . S
C1573 C1574 1.398 . S
C1574 H1562 0.950 . S
C1574 C1573 1.398 . S
C1574 C1575 1.391 . S
C1575 H1563 0.950 . S
C1575 C1571 1.393 . S
C1575 C1574 1.391 . S
H1576 C1584 0.950 . S
H1577 C1589 0.950 . S
H1578 C1586 0.950 . S
H1579 C1588 0.950 . S
H1580 C1590 0.950 . S
H1581 C1592 0.950 . S
H1582 C1594 0.950 . S
H1583 C1595 0.950 . S
C1584 H1576 0.950 . S
C1584 C1585 1.386 . S
C1584 C1586 1.391 . S
C1585 C1584 1.386 . S
C1585 C1589 1.393 . S
C1586 H1578 0.950 . S
C1586 C1584 1.391 . S
C1586 C1587 1.400 . S
C1587 C1586 1.400 . S
C1587 C1588 1.398 . S
C1587 C1593 1.491 . S
C1588 H1579 0.950 . S
C1588 C1587 1.398 . S
C1588 C1589 1.391 . S
C1589 H1577 0.950 . S
C1589 C1585 1.393 . S
C1589 C1588 1.391 . S
C1590 H1580 0.950 . S
C1590 C1591 1.386 . S
C1590 C1592 1.391 . S
C1591 C1590 1.386 . S
C1591 C1595 1.393 . S
C1592 H1581 0.950 . S
C1592 C1590 1.391 . S
C1592 C1593 1.400 . S
C1593 C1587 1.491 . S
C1593 C1592 1.400 . S
C1593 C1594 1.398 . S
C1594 H1582 0.950 . S
C1594 C1593 1.398 . S
C1594 C1595 1.391 . S
C1595 H1583 0.950 . S
C1595 C1591 1.393 . S
C1595 C1594 1.391 . S
H1596 C1604 0.950 . S
H1597 C1609 0.950 . S
H1598 C1606 0.950 . S
H1599 C1608 0.950 . S
H1600 C1610 0.950 . S
H1601 C1612 0.950 . S
H1602 C1614 0.950 . S
H1603 C1615 0.950 . S
C1604 H1596 0.950 . S
C1604 C1605 1.386 . S
C1604 C1606 1.391 . S
C1605 C1604 1.386 . S
C1605 C1609 1.393 . S
C1606 H1598 0.950 . S
C1606 C1604 1.391 . S
C1606 C1607 1.400 . S
C1607 C1606 1.400 . S
C1607 C1608 1.398 . S
C1607 C1613 1.491 . S
C1608 H1599 0.950 . S
C1608 C1607 1.398 . S
C1608 C1609 1.391 . S
C1609 H1597 0.950 . S
C1609 C1605 1.393 . S
C1609 C1608 1.391 . S
C1610 H1600 0.950 . S
C1610 C1611 1.386 . S
C1610 C1612 1.391 . S
C1611 C1610 1.386 . S
C1611 C1615 1.393 . S
C1612 H1601 0.950 . S
C1612 C1610 1.391 . S
C1612 C1613 1.400 . S
C1613 C1607 1.491 . S
C1613 C1612 1.400 . S
C1613 C1614 1.398 . S
C1614 H1602 0.950 . S
C1614 C1613 1.398 . S
C1614 C1615 1.391 . S
C1615 H1603 0.950 . S
C1615 C1611 1.393 . S
C1615 C1614 1.391 . S
H1616 C1624 0.950 . S
H1617 C1629 0.950 . S
H1618 C1626 0.950 . S
H1619 C1628 0.950 . S
H1620 C1630 0.950 . S
H1621 C1632 0.950 . S
H1622 C1634 0.950 . S
H1623 C1635 0.950 . S
C1624 H1616 0.950 . S
C1624 C1625 1.386 . S
C1624 C1626 1.391 . S
C1625 C1624 1.386 . S
C1625 C1629 1.393 . S
C1626 H1618 0.950 . S
C1626 C1624 1.391 . S
C1626 C1627 1.400 . S
C1627 C1626 1.400 . S
C1627 C1628 1.398 . S
C1627 C1633 1.491 . S
C1628 H1619 0.950 . S
C1628 C1627 1.398 . S
C1628 C1629 1.391 . S
C1629 H1617 0.950 . S
C1629 C1625 1.393 . S
C1629 C1628 1.391 . S
C1630 H1620 0.950 . S
C1630 C1631 1.386 . S
C1630 C1632 1.391 . S
C1631 C1630 1.386 . S
C1631 C1635 1.393 . S
C1632 H1621 0.950 . S
C1632 C1630 1.391 . S
C1632 C1633 1.400 . S
C1633 C1627 1.491 . S
C1633 C1632 1.400 . S
C1633 C1634 1.398 . S
C1634 H1622 0.950 . S
C1634 C1633 1.398 . S
C1634 C1635 1.391 . S
C1635 H1623 0.950 . S
C1635 C1631 1.393 . S
C1635 C1634 1.391 . S
H1636 C1644 0.950 . S
H1637 C1649 0.950 . S
H1638 C1646 0.950 . S
H1639 C1648 0.950 . S
H1640 C1650 0.950 . S
H1641 C1652 0.950 . S
H1642 C1654 0.950 1_556 S
H1643 C1655 0.950 . S
C1644 H1636 0.950 . S
C1644 C1645 1.386 . S
C1644 C1646 1.391 . S
C1645 C1644 1.386 . S
C1645 C1649 1.393 . S
C1646 H1638 0.950 . S
C1646 C1644 1.391 . S
C1646 C1647 1.400 . S
C1647 C1646 1.400 . S
C1647 C1648 1.398 . S
C1647 C1653 1.486 1_556 S
C1648 H1639 0.950 . S
C1648 C1647 1.398 . S
C1648 C1649 1.391 . S
C1649 H1637 0.950 . S
C1649 C1645 1.393 . S
C1649 C1648 1.391 . S
C1650 H1640 0.950 . S
C1650 C1651 1.386 . S
C1650 C1652 1.391 . S
C1651 C1650 1.386 . S
C1651 C1655 1.393 . S
C1652 H1641 0.950 . S
C1652 C1650 1.391 . S
C1652 C1653 1.404 . S
C1653 C1647 1.486 1_554 S
C1653 C1652 1.404 . S
C1653 C1654 1.400 . S
C1654 H1642 0.950 1_554 S
C1654 C1653 1.400 . S
C1654 C1655 1.391 . S
C1655 H1643 0.950 . S
C1655 C1651 1.393 . S
C1655 C1654 1.391 . S
C1031 C621 1.653 . S
C1025 C39 1.609 . S
C1051 C674 1.434 . S
C1045 C125 1.441 . S
C1071 C737 2.257 . S
C1065 C217 2.177 . S
C1091 C780 1.749 . S
C1085 C261 1.672 . S
C1105 C359 1.453 . S
C1111 C736 1.476 . S
C1131 C773 1.237 . S
C1125 C433 1.184 . S
C1151 C614 1.505 . S
C1145 C495 1.523 . S
C1171 C667 1.458 . S
C1165 C587 1.465 . S
C1191 C720 1.758 . S
C1185 C557 1.745 . S
C1211 C789 1.380 . S
C1205 C347 1.387 . S
C1231 C630 1.118 . S
C1225 C421 1.115 . S
C1251 C683 1.834 . S
C1245 C507 1.781 . S
C1271 C631 1.486 . S
C1265 C137 1.488 . S
C1291 C684 1.931 . S
C1285 C187 1.876 . S
C1311 C727 2.570 . S
C1305 C291 2.514 . S
C1331 C790 2.265 . S
C1325 C69 2.267 . S
C1351 C833 1.366 . S
C1345 C581 1.378 . S
C1365 C365 2.211 . S
C1371 C886 2.193 . S
C1385 C439 2.608 . S
C1391 C948 2.605 . S
C1405 C483 1.646 . S
C1411 C1002 1.690 . S
C1425 C113 1.753 . S
C1431 C949 1.777 . S
C1445 C211 1.867 . S
C1451 C1001 1.901 . S
C1465 C273 1.295 . S
C1471 C826 1.346 . S
C1491 C879 1.231 . S
C1485 C51 1.233 . S
C1511 C939 1.446 . S
C1505 C63 1.389 . S
C1525 C143 1.572 . S
C1531 C985 1.576 . S
C1545 C199 1.899 . S
C1551 C842 1.926 . S
C1565 C285 1.115 . S
C1571 C895 1.189 . S
C1591 C843 1.614 . S
C1585 C335 1.593 . S
C1611 C896 2.033 . S
C1605 C409 1.897 . S
C1625 C513 1.977 . S
C1631 C932 1.981 . S
C1651 C992 1.414 . S
C1645 C569 1.415 . S
