# Generated by pormake.
# Topology pyr, (3,6)-cn, num edge types: 1
# Building blocks:
#     Node 0, Type 0, BuildingBlock: BETDIP_clean_linker_0, # of connection points: 3
#     Node 1, Type 0, BuildingBlock: BETDIP_clean_linker_0, # of connection points: 3
#     Node 2, Type 0, BuildingBlock: BETDIP_clean_linker_0, # of connection points: 3
#     Node 3, Type 0, BuildingBlock: BETDIP_clean_linker_0, # of connection points: 3
#     Node 4, Type 0, BuildingBlock: BETDIP_clean_linker_0, # of connection points: 3
#     Node 5, Type 0, BuildingBlock: BETDIP_clean_linker_0, # of connection points: 3
#     Node 6, Type 0, BuildingBlock: BETDIP_clean_linker_0, # of connection points: 3
#     Node 7, Type 0, BuildingBlock: BETDIP_clean_linker_0, # of connection points: 3
#     Node 8, Type 1, BuildingBlock: FUNLAD_clean_sbu_0, # of connection points: 6
#     Node 9, Type 1, BuildingBlock: FUNLAD_clean_sbu_0, # of connection points: 6
#     Node 10, Type 1, BuildingBlock: FUNLAD_clean_sbu_0, # of connection points: 6
#     Node 11, Type 1, BuildingBlock: FUNLAD_clean_sbu_0, # of connection points: 6
#     Edge 12, Type (0, 1), BuildingBlock: ZUJKAS_clean_linker_0, # of connection points: 2
#     Edge 13, Type (0, 1), BuildingBlock: ZUJKAS_clean_linker_0, # of connection points: 2
#     Edge 14, Type (0, 1), BuildingBlock: ZUJKAS_clean_linker_0, # of connection points: 2
#     Edge 15, Type (0, 1), BuildingBlock: ZUJKAS_clean_linker_0, # of connection points: 2
#     Edge 16, Type (0, 1), BuildingBlock: ZUJKAS_clean_linker_0, # of connection points: 2
#     Edge 17, Type (0, 1), BuildingBlock: ZUJKAS_clean_linker_0, # of connection points: 2
#     Edge 18, Type (0, 1), BuildingBlock: ZUJKAS_clean_linker_0, # of connection points: 2
#     Edge 19, Type (0, 1), BuildingBlock: ZUJKAS_clean_linker_0, # of connection points: 2
#     Edge 20, Type (0, 1), BuildingBlock: ZUJKAS_clean_linker_0, # of connection points: 2
#     Edge 21, Type (0, 1), BuildingBlock: ZUJKAS_clean_linker_0, # of connection points: 2
#     Edge 22, Type (0, 1), BuildingBlock: ZUJKAS_clean_linker_0, # of connection points: 2
#     Edge 23, Type (0, 1), BuildingBlock: ZUJKAS_clean_linker_0, # of connection points: 2
#     Edge 24, Type (0, 1), BuildingBlock: ZUJKAS_clean_linker_0, # of connection points: 2
#     Edge 25, Type (0, 1), BuildingBlock: ZUJKAS_clean_linker_0, # of connection points: 2
#     Edge 26, Type (0, 1), BuildingBlock: ZUJKAS_clean_linker_0, # of connection points: 2
#     Edge 27, Type (0, 1), BuildingBlock: ZUJKAS_clean_linker_0, # of connection points: 2
#     Edge 28, Type (0, 1), BuildingBlock: ZUJKAS_clean_linker_0, # of connection points: 2
#     Edge 29, Type (0, 1), BuildingBlock: ZUJKAS_clean_linker_0, # of connection points: 2
#     Edge 30, Type (0, 1), BuildingBlock: ZUJKAS_clean_linker_0, # of connection points: 2
#     Edge 31, Type (0, 1), BuildingBlock: ZUJKAS_clean_linker_0, # of connection points: 2
#     Edge 32, Type (0, 1), BuildingBlock: ZUJKAS_clean_linker_0, # of connection points: 2
#     Edge 33, Type (0, 1), BuildingBlock: ZUJKAS_clean_linker_0, # of connection points: 2
#     Edge 34, Type (0, 1), BuildingBlock: ZUJKAS_clean_linker_0, # of connection points: 2
#     Edge 35, Type (0, 1), BuildingBlock: ZUJKAS_clean_linker_0, # of connection points: 2
# Relax obj value: 0.156
# Max RMSD: 0.194
# Mean RMSD: 0.132
data_MOF--net-pry--node1-FUNLAD_clean_sbu_0--node2-BETDIP_clean_linker_0--edge1-ZUJKAS_clean_linker_0
_symmetry_space_group_name_H-M    P1
_symmetry_Int_Tables_number       1
_symmetry_cell_setting            triclinic
loop_
_symmetry_equiv_pos_as_xyz
'x, y, z'
_cell_length_a     45.557306
_cell_length_b     47.198551
_cell_length_c     49.629171
_cell_angle_alpha  93.381336
_cell_angle_beta   86.298344
_cell_angle_gamma 89.732602
loop_
_atom_site_label
_atom_site_type_symbol
_atom_site_fract_x
_atom_site_fract_y
_atom_site_fract_z
_atom_type_partial_charge
H0 H 0.11957 0.19119 0.2357 0.0
H1 H 0.18495 0.19035 0.16925 0.0
H2 H 0.18902 0.12835 0.22889 0.0
H3 H 0.14685 0.20749 0.14783 0.0
C4 C 0.13676 0.22279 0.16288 0.0
C5 C 0.13922 0.18191 0.22518 0.0
C6 C 0.15301 0.15838 0.23545 0.0
C7 C 0.14993 0.19299 0.20082 0.0
C8 C 0.17554 0.18103 0.18721 0.0
C9 C 0.18983 0.15766 0.1971 0.0
C10 C 0.17827 0.14643 0.22117 0.0
N11 N 0.13491 0.21636 0.19067 0.0
H12 H 0.34845 0.90571 0.73494 0.0
H13 H 0.35334 0.84012 0.67107 0.0
H14 H 0.41531 0.84052 0.73282 0.0
H15 H 0.30645 0.85091 0.6679 0.0
C16 C 0.30434 0.8736 0.67258 0.0
C17 C 0.35907 0.88676 0.7254 0.0
C18 C 0.38326 0.87466 0.73699 0.0
C19 C 0.34772 0.87426 0.70198 0.0
C20 C 0.36143 0.84965 0.68945 0.0
C21 C 0.38578 0.83714 0.70042 0.0
C22 C 0.39632 0.84968 0.72441 0.0
N23 N 0.32295 0.8873 0.69128 0.0
H24 H 0.64935 0.5068 0.95735 0.0
H25 H 0.57743 0.44939 0.94735 0.0
H26 H 0.65775 0.41963 0.97702 0.0
H27 H 0.5502 0.49281 0.94522 0.0
C28 C 0.56733 0.50039 0.93124 0.0
C29 C 0.64014 0.48581 0.95912 0.0
C30 C 0.65695 0.46393 0.96868 0.0
C31 C 0.61153 0.48082 0.95141 0.0
C32 C 0.59945 0.4536 0.95344 0.0
C33 C 0.61587 0.43148 0.96298 0.0
C34 C 0.64457 0.43687 0.97062 0.0
N35 N 0.59641 0.50294 0.9397 0.0
H36 H 0.88447 0.54027 0.45673 0.0
H37 H 0.95526 0.59754 0.4396 0.0
H38 H 0.86658 0.62945 0.45213 0.0
H39 H 0.98763 0.53148 0.43759 0.0
C40 C 0.96858 0.54122 0.42973 0.0
C41 C 0.89199 0.56162 0.45348 0.0
C42 C 0.87175 0.58429 0.45483 0.0
C43 C 0.92191 0.56616 0.44719 0.0
C44 C 0.93192 0.5938 0.44315 0.0
C45 C 0.91212 0.61682 0.44519 0.0
C46 C 0.88201 0.61179 0.4506 0.0
N47 N 0.94182 0.54281 0.44617 0.0
H48 H 0.83531 0.86495 0.89697 0.0
H49 H 0.90005 0.85847 0.82993 0.0
H50 H 0.8312 0.92143 0.83234 0.0
H51 H 0.91125 0.81675 0.84598 0.0
C52 C 0.90355 0.81655 0.86712 0.0
C53 C 0.84408 0.87246 0.87788 0.0
C54 C 0.82999 0.89485 0.86626 0.0
C55 C 0.86905 0.85896 0.86501 0.0
C56 C 0.88056 0.86835 0.84002 0.0
C57 C 0.86676 0.89075 0.82787 0.0
C58 C 0.84146 0.90374 0.84117 0.0
N59 N 0.88186 0.83643 0.87833 0.0
H60 H 0.6721 0.14467 0.32904 0.0
H61 H 0.66637 0.206 0.39636 0.0
H62 H 0.60507 0.20987 0.33404 0.0
H63 H 0.681 0.16409 0.41746 0.0
C64 C 0.69919 0.15794 0.40301 0.0
C65 C 0.6612 0.16299 0.33953 0.0
C66 C 0.63717 0.17586 0.32839 0.0
C67 C 0.67128 0.17326 0.36429 0.0
C68 C 0.65774 0.19738 0.37781 0.0
C69 C 0.63396 0.21108 0.36702 0.0
C70 C 0.62385 0.20008 0.34222 0.0
N71 N 0.69551 0.15937 0.37485 0.0
H72 H 0.37793 0.55404 0.11118 0.0
H73 H 0.44984 0.61094 0.12323 0.0
H74 H 0.37482 0.63873 0.0836 0.0
H75 H 0.47558 0.56866 0.12854 0.0
C76 C 0.45797 0.56004 0.14136 0.0
C77 C 0.3882 0.57435 0.10804 0.0
C78 C 0.3729 0.59575 0.09609 0.0
C79 C 0.41612 0.5794 0.11743 0.0
C80 C 0.42895 0.60625 0.11484 0.0
C81 C 0.41401 0.62784 0.10292 0.0
C82 C 0.38622 0.62226 0.09324 0.0
N83 N 0.42922 0.55819 0.13201 0.0
H84 H 0.05849 0.45032 0.60677 0.0
H85 H 0.12973 0.50912 0.61043 0.0
H86 H 0.14795 0.41942 0.60165 0.0
H87 H 0.06741 0.54828 0.62732 0.0
C88 C 0.07196 0.52665 0.63221 0.0
C89 C 0.08195 0.45408 0.60622 0.0
C90 C 0.10197 0.4312 0.60467 0.0
C91 C 0.09192 0.48202 0.60878 0.0
C92 C 0.12216 0.48739 0.6087 0.0
C93 C 0.14257 0.46486 0.60593 0.0
C94 C 0.13227 0.43685 0.60421 0.0
N95 N 0.07126 0.50472 0.6114 0.0
C96 C 0.03887 0.03999 0.48321 0.0
N97 N 0.02018 0.08162 0.55938 0.0
C98 C 0.04729 0.09345 0.5567 0.0
C99 C 0.05169 0.12131 0.5665 0.0
C100 C 0.02788 0.13719 0.57894 0.0
C101 C 1.00035 0.12417 0.58221 0.0
C102 C 0.997 0.09615 0.57232 0.0
Zn103 Zn 0.01368 0.04261 0.54106 0.0
C104 C 0.95762 0.04148 0.51223 0.0
N105 N 0.99978 0.96186 0.50127 0.0
C106 C 0.02231 0.94731 0.48729 0.0
C107 C 0.9727 0.95017 0.50492 0.0
C108 C 0.96769 0.92245 0.49512 0.0
C109 C 0.9908 0.90649 0.48152 0.0
C110 C 0.01826 0.91944 0.47713 0.0
Zn111 Zn 1.00658 1.00091 0.51956 0.0
O112 O 0.03599 0.05588 0.50484 0.0
C113 C 0.0626 1.00207 0.54856 0.0
O114 O 0.02882 0.01486 0.4833 0.0
H115 H 0.95509 0.96211 0.51607 0.0
H116 H 0.06534 0.08159 0.54616 0.0
H117 H 0.04368 0.95703 0.48468 0.0
O118 O 0.05391 0.02737 0.55492 0.0
O119 O 0.04724 0.98627 0.53338 0.0
H120 H 0.97565 0.08627 0.57428 0.0
O121 O 0.98453 0.98757 0.55607 0.0
O122 O 0.99125 0.02891 0.57715 0.0
O123 O 0.96589 0.016 0.5062 0.0
O124 O 0.97341 0.05741 0.52684 0.0
C125 C 0.98145 1.00372 0.57752 0.0
H126 H 0.07318 0.13071 0.56328 0.0
H127 H 0.98153 0.13568 0.59189 0.0
H128 H 0.94604 0.91345 0.49857 0.0
H129 H 0.03672 0.90781 0.46693 0.0
C130 C 0.5654 1.01036 1.00825 0.0
N131 N 0.52068 0.08799 1.0058 0.0
C132 C 0.54769 0.09949 1.00866 0.0
C133 C 0.55344 0.127 1.00133 0.0
C134 C 0.53116 0.14306 0.99109 0.0
C135 C 0.50378 0.13036 0.9873 0.0
C136 C 0.49895 0.10258 0.99491 0.0
Zn137 Zn 0.51359 0.04944 1.02142 0.0
C138 C 0.48591 1.00756 0.98411 0.0
N139 N 0.50182 0.97009 0.05674 0.0
C140 C 0.52419 0.95774 0.06879 0.0
C141 C 0.47569 0.95674 0.05408 0.0
C142 C 0.47152 0.92958 0.06319 0.0
C143 C 0.49447 0.916 0.07512 0.0
C144 C 0.52098 0.93054 0.07815 0.0
Zn145 Zn 0.50803 1.00842 0.04064 0.0
O146 O 0.55552 0.03483 1.00408 0.0
C147 C 0.53566 0.05029 0.07798 0.0
O148 O 0.55009 0.99452 0.02341 0.0
H149 H 0.45827 0.96693 0.04432 0.0
H150 H 0.56465 0.08761 1.01742 0.0
H151 H 0.54476 0.96879 0.07071 0.0
O152 O 0.53285 0.06516 0.05773 0.0
O153 O 0.52725 0.02462 0.07661 0.0
H154 H 0.47761 0.09302 0.99291 0.0
O155 O 0.46592 0.02277 0.05772 0.0
O156 O 0.4716 0.06338 0.0388 0.0
O157 O 0.48894 0.99262 1.00431 0.0
O158 O 0.49411 0.03334 0.98549 0.0
C159 C 0.45614 0.04736 0.0537 0.0
H160 H 0.57503 0.1358 1.00411 0.0
H161 H 0.48599 0.14209 0.97954 0.0
H162 H 0.45086 0.91899 0.06009 0.0
H163 H 0.53911 0.92093 0.08748 0.0
C164 C 0.52363 0.46867 0.51273 0.0
N165 N 0.52527 0.50203 0.59326 0.0
C166 C 0.5145 0.47772 0.60338 0.0
C167 C 0.51936 0.47142 0.62991 0.0
C168 C 0.53555 0.49028 0.64602 0.0
C169 C 0.54718 0.51471 0.63468 0.0
C170 C 0.5417 0.52022 0.6082 0.0
Zn171 Zn 0.51452 0.51393 0.55632 0.0
C172 C 0.56579 0.53889 0.52586 0.0
N173 N 0.49186 0.54206 0.48044 0.0
C174 C 0.47556 0.52375 0.4655 0.0
C175 C 0.50277 0.56625 0.47019 0.0
C176 C 0.49831 0.57224 0.44351 0.0
C177 C 0.48239 0.55317 0.42735 0.0
C178 C 0.4705 0.52893 0.43885 0.0
Zn179 Zn 0.50255 0.53024 0.51743 0.0
O180 O 0.52589 0.47278 0.53809 0.0
C181 C 0.45121 0.50545 0.54796 0.0
O182 O 0.51424 0.48885 0.49962 0.0
H183 H 0.51569 0.58049 0.48245 0.0
H184 H 0.50148 0.46358 0.59113 0.0
H185 H 0.46733 0.5045 0.47394 0.0
O186 O 0.47058 0.50095 0.56455 0.0
O187 O 0.45867 0.51724 0.52622 0.0
H188 H 0.54982 0.53955 0.59986 0.0
O189 O 0.49123 0.57139 0.53562 0.0
O190 O 0.50289 0.55534 0.57411 0.0
O191 O 0.54643 0.54325 0.50923 0.0
O192 O 0.5584 0.52702 0.54756 0.0
C193 C 0.49357 0.57553 0.56096 0.0
H194 H 0.51022 0.45223 0.63784 0.0
H195 H 0.55938 0.53006 0.64649 0.0
H196 H 0.50761 0.59131 0.43547 0.0
H197 H 0.45849 0.51343 0.42703 0.0
C198 C 1.00157 0.57989 1.0105 0.0
N199 N 0.99582 0.55174 0.08973 0.0
C200 C 1.0063 0.57669 0.10024 0.0
C201 C 1.0011 0.58447 0.12775 0.0
C202 C 0.98482 0.56646 0.1445 0.0
C203 C 0.97312 0.54152 0.13281 0.0
C204 C 0.979 0.53449 0.1053 0.0
Zn205 Zn 0.00865 0.53751 0.05108 0.0
C206 C 0.95935 0.51012 1.02276 0.0
N207 N 0.03659 0.5053 0.97138 0.0
C208 C 0.0547 0.52306 0.95761 0.0
C209 C 0.02634 0.48114 0.95904 0.0
C210 C 0.03353 0.47464 0.93149 0.0
C211 C 0.05159 0.4931 0.91672 0.0
C212 C 0.06259 0.5173 0.93029 0.0
Zn213 Zn 0.02306 0.51872 1.01017 0.0
O214 O 0.99747 0.57747 0.03588 0.0
C215 C 0.07232 0.54601 0.03865 0.0
O216 O 0.01218 0.55889 0.99574 0.0
H217 H 0.01188 0.46737 0.97033 0.0
H218 H 0.01961 0.5901 0.08749 0.0
H219 H 0.06222 0.54242 0.96757 0.0
O220 O 0.05197 0.55154 0.05693 0.0
O221 O 0.06621 0.53255 1.01686 0.0
H222 H 0.97112 0.51462 0.09661 0.0
O223 O 0.03375 0.47872 0.02515 0.0
O224 O 0.02004 0.49729 0.0656 0.0
O225 O 0.97956 0.50499 1.00419 0.0
O226 O 0.96561 0.52323 0.04473 0.0
C227 C 0.03025 0.47627 0.05057 0.0
H228 H 0.0103 0.60401 0.13595 0.0
H229 H 0.9608 0.52683 0.14504 0.0
H230 H 0.02465 0.45571 0.92176 0.0
H231 H 0.07604 0.53243 0.91962 0.0
H232 H 0.13316 0.18642 0.2833 0.0
H233 H 0.11489 0.16579 0.32531 0.0
H234 H 0.1268 0.08179 0.28695 0.0
H235 H 0.14543 0.10223 0.24513 0.0
H236 H 0.0682 0.13299 0.33694 0.0
H237 H 0.16951 0.07324 0.35436 0.0
H238 H 0.1687 0.09949 0.32943 0.0
H239 H 0.1557 0.06411 0.32198 0.0
C240 C 0.13182 0.16355 0.28381 0.0
C241 C 0.14104 0.14599 0.26089 0.0
C242 C 0.12146 0.15176 0.30788 0.0
C243 C 0.12005 0.12216 0.3096 0.0
C244 C 0.12853 0.10463 0.28652 0.0
H245 H 0.05154 1.01157 0.43379 0.0
H246 H 0.07134 0.03138 0.3918 0.0
C247 C 0.13909 0.11638 0.26253 0.0
C248 C 0.10907 0.10967 0.3353 0.0
H249 H 0.12671 0.06299 0.38213 0.0
C250 C 0.08111 0.11782 0.34687 0.0
C251 C 0.12585 0.08983 0.3484 0.0
C252 C 0.15672 0.08135 0.33807 0.0
C253 C 0.06933 0.10641 0.37077 0.0
C254 C 0.08598 0.08641 0.38365 0.0
C255 C 0.1139 0.0782 0.37215 0.0
C256 C 0.07491 0.07418 0.40933 0.0
C257 C 0.0389 0.11547 0.38188 0.0
C258 C 0.0709 0.09151 0.43326 0.0
C259 C 0.05981 0.08025 0.4573 0.0
C260 C 0.05238 0.05135 0.45796 0.0
C261 C 0.05695 0.0339 0.43403 0.0
C262 C 0.06826 0.04518 0.41001 0.0
H263 H 0.02657 0.12622 0.36674 0.0
H264 H 0.02608 0.09691 0.38858 0.0
H265 H 0.04073 0.13053 0.39971 0.0
H266 H 0.07627 0.11385 0.43332 0.0
H267 H 0.05666 0.09435 0.47529 0.0
H268 H 0.39172 0.93132 0.74967 0.0
H269 H 0.4094 0.95361 0.79128 0.0
H270 H 0.41785 0.87126 0.8234 0.0
H271 H 0.40049 0.84882 0.78168 0.0
H272 H 0.38681 0.95421 0.84269 0.0
H273 H 0.49728 0.9038 0.83699 0.0
H274 H 0.47405 0.90195 0.80886 0.0
H275 H 0.46807 0.87849 0.83596 0.0
C276 C 0.39734 0.91792 0.76557 0.0
C277 C 0.39476 0.88821 0.76221 0.0
C278 C 0.40755 0.93071 0.78938 0.0
C279 C 0.41548 0.91418 0.81045 0.0
C280 C 0.41269 0.88452 0.80724 0.0
H281 H 0.47124 0.952 0.97324 0.0
H282 H 0.45358 0.93016 0.93144 0.0
C283 C 0.40267 0.87168 0.78335 0.0
C284 C 0.42579 0.92809 0.83598 0.0
H285 H 0.48218 0.9293 0.8784 0.0
C286 C 0.40776 0.94885 0.85037 0.0
C287 C 0.45315 0.92122 0.84614 0.0
C288 C 0.4744 0.90036 0.83107 0.0
C289 C 0.41603 0.96245 0.87473 0.0
C290 C 0.44323 0.95538 0.88497 0.0
C291 C 0.46128 0.93467 0.87062 0.0
C292 C 0.45333 0.9691 0.91058 0.0
C293 C 0.39527 0.98386 0.88966 0.0
C294 C 0.45923 0.99832 0.91284 0.0
C295 C 0.46946 1.01093 0.93676 0.0
C296 C 0.474 0.99458 0.95898 0.0
C297 C 0.46792 0.96533 0.95665 0.0
C298 C 0.45786 0.95274 0.9327 0.0
H299 H 0.37267 0.98219 0.88256 0.0
H300 H 0.39426 0.98107 0.91176 0.0
H301 H 0.40338 1.00556 0.88621 0.0
H302 H 0.45635 1.01134 0.89593 0.0
H303 H 0.47403 0.03345 0.93774 0.0
H304 H 0.60577 0.51445 0.88943 0.0
H305 H 0.59781 0.51029 0.84114 0.0
H306 H 0.50941 0.48136 0.85902 0.0
H307 H 0.51716 0.4857 0.90756 0.0
H308 H 0.58299 0.45969 0.81164 0.0
H309 H 0.49888 0.5447 0.80661 0.0
H310 H 0.52158 0.54257 0.83494 0.0
H311 H 0.49083 0.51925 0.83156 0.0
C312 C 0.58451 0.50751 0.88314 0.0
C313 C 0.56199 0.50041 0.90221 0.0
C314 C 0.58004 0.50508 0.85554 0.0
C315 C 0.55299 0.4957 0.84657 0.0
C316 C 0.5303 0.48905 0.86558 0.0
H317 H 0.49363 0.47284 0.68322 0.0
H318 H 0.49761 0.47035 0.73198 0.0
C319 C 0.53475 0.49148 0.89323 0.0
C320 C 0.54908 0.49184 0.81724 0.0
H321 H 0.51069 0.51641 0.76652 0.0
C322 C 0.56716 0.47205 0.80174 0.0
C323 C 0.52828 0.50787 0.80451 0.0
C324 C 0.5089 0.52997 0.82015 0.0
C325 C 0.56509 0.46792 0.77371 0.0
C326 C 0.54473 0.48439 0.76088 0.0
C327 C 0.52624 0.50378 0.77647 0.0
C328 C 0.54323 0.48297 0.73114 0.0
C329 C 0.58456 0.44587 0.75812 0.0
C330 C 0.56767 0.4906 0.71455 0.0
C331 C 0.56553 0.49186 0.68672 0.0
C332 C 0.53883 0.48571 0.67499 0.0
C333 C 0.51461 0.47732 0.69159 0.0
C334 C 0.51677 0.47609 0.71945 0.0
H335 H 0.59227 0.42967 0.77148 0.0
H336 H 0.57289 0.43499 0.74154 0.0
H337 H 0.60424 0.45639 0.74904 0.0
H338 H 0.58815 0.49648 0.72323 0.0
H339 H 0.58463 0.4982 0.67443 0.0
H340 H 0.92412 0.54263 0.39488 0.0
H341 H 0.92831 0.55348 0.3473 0.0
H342 H 0.02124 0.56812 0.35243 0.0
H343 H 0.0172 0.55686 0.40017 0.0
H344 H 0.94681 0.60069 0.32103 0.0
H345 H 0.01976 0.50805 0.29074 0.0
H346 H 1.00063 0.51247 0.32369 0.0
H347 H 0.03374 0.53192 0.31625 0.0
C348 C 0.94537 0.54862 0.38604 0.0
C349 C 0.97036 0.54919 0.40125 0.0
C350 C 0.94774 0.55469 0.35879 0.0
C351 C 0.97514 0.56126 0.34623 0.0
C352 C 0.99999 0.56256 0.36158 0.0
H353 H 0.02786 0.58406 0.17727 0.0
H354 H 0.02541 0.58729 0.22674 0.0
C355 C 0.99766 0.55626 0.38881 0.0
C356 C 0.9777 0.56575 0.31687 0.0
H357 H 0.01014 0.53906 0.25672 0.0
C358 C 0.96071 0.58728 0.30696 0.0
C359 C 0.99576 0.54813 0.29855 0.0
C360 C 0.01331 0.52367 0.30774 0.0
C361 C 0.96134 0.59165 0.27918 0.0
C362 C 0.97927 0.57393 0.26093 0.0
C363 C 0.99658 0.55273 0.27086 0.0
C364 C 0.9795 0.57593 0.23129 0.0
C365 C 0.94292 0.6152 0.26952 0.0
C366 C 0.95435 0.56884 0.21752 0.0
C367 C 0.95567 0.56697 0.18926 0.0
C368 C 0.98218 0.57215 0.1743 0.0
C369 C 1.00701 0.58033 0.1882 0.0
C370 C 1.00571 0.58204 0.21645 0.0
H371 H 0.93611 0.63104 0.28622 0.0
H372 H 0.95513 0.62621 0.25315 0.0
H373 H 0.92275 0.60603 0.26125 0.0
H374 H 0.93403 0.56362 0.22862 0.0
H375 H 0.93615 0.56077 0.1791 0.0
H376 H 0.24022 0.13878 0.21819 0.0
H377 H 0.28467 0.11901 0.19359 0.0
H378 H 0.2456 0.12918 0.11788 0.0
H379 H 0.2007 0.14804 0.14231 0.0
H380 H 0.27325 0.0772 0.11947 0.0
H381 H 0.34686 0.16423 0.15211 0.0
H382 H 0.32759 0.14753 0.17953 0.0
H383 H 0.30731 0.16698 0.15668 0.0
C384 C 0.24094 0.13657 0.19631 0.0
C385 C 0.21687 0.14518 0.18226 0.0
C386 C 0.26654 0.12557 0.18226 0.0
C387 C 0.26871 0.12307 0.15385 0.0
C388 C 0.24454 0.13112 0.13978 0.0
H389 H 0.42914 0.09884 0.0498 0.0
H390 H 0.38315 0.11638 0.07328 0.0
C391 C 0.21895 0.1421 0.1538 0.0
C392 C 0.29604 0.11191 0.13873 0.0
H393 H 0.36965 0.12415 0.12812 0.0
C394 C 0.29433 0.08748 0.12133 0.0
C395 C 0.32348 0.12555 0.14086 0.0
C396 C 0.3265 0.15267 0.15809 0.0
C397 C 0.31934 0.07611 0.10631 0.0
C398 C 0.34693 0.08928 0.10905 0.0
C399 C 0.34856 0.11392 0.12618 0.0
C400 C 0.37436 0.07805 0.09415 0.0
C401 C 0.31586 0.05042 0.08724 0.0
C402 C 0.38484 0.05066 0.0981 0.0
C403 C 0.4111 0.04051 0.08463 0.0
C404 C 0.42759 0.05763 0.06705 0.0
C405 C 0.417 0.08504 0.06311 0.0
C406 C 0.39072 0.09514 0.07658 0.0
H407 H 0.29265 0.04762 0.08204 0.0
H408 H 0.32988 0.05204 0.06825 0.0
H409 H 0.32268 0.03116 0.09708 0.0
H410 H 0.37295 0.03728 0.11198 0.0
H411 H 0.41867 0.01938 0.0883 0.0
H412 H 0.26644 0.85162 0.63742 0.0
H413 H 0.22682 0.87578 0.61659 0.0
H414 H 0.24822 0.95434 0.65948 0.0
H415 H 0.28829 0.93027 0.6801 0.0
H416 H 0.17794 0.90317 0.64116 0.0
H417 H 0.24572 0.97819 0.58198 0.0
H418 H 0.26147 0.94814 0.59692 0.0
H419 H 0.25132 0.97969 0.61753 0.0
C420 C 0.26278 0.87409 0.64232 0.0
C421 C 0.28053 0.88904 0.66032 0.0
C422 C 0.24011 0.88787 0.63042 0.0
C423 C 0.23472 0.91698 0.63614 0.0
C424 C 0.25231 0.932 0.65429 0.0
H425 H 0.09974 0.02967 0.58254 0.0
H426 H 0.14148 1.00962 0.60393 0.0
C427 C 0.2751 0.91818 0.66621 0.0
C428 C 0.21009 0.93113 0.62361 0.0
H429 H 0.19401 0.98322 0.58162 0.0
C430 C 0.18149 0.92065 0.62812 0.0
C431 C 0.21465 0.95404 0.60666 0.0
C432 C 0.24496 0.96559 0.60023 0.0
C433 C 0.15739 0.93243 0.61626 0.0
C434 C 0.162 0.95503 0.59898 0.0
C435 C 0.1905 0.96584 0.59478 0.0
C436 C 0.13749 0.9675 0.58495 0.0
C437 C 0.1271 0.9208 0.62267 0.0
C438 C 0.12178 0.95069 0.56662 0.0
C439 C 0.09792 0.96207 0.55433 0.0
C440 C 0.0893 0.99059 0.56 0.0
C441 C 0.10567 1.00761 0.57774 0.0
C442 C 0.12957 0.99619 0.59001 0.0
H443 H 0.12615 0.90908 0.64147 0.0
H444 H 0.11035 0.93809 0.62502 0.0
H445 H 0.12124 0.90583 0.60582 0.0
H446 H 0.12785 0.92865 0.56195 0.0
H447 H 0.08596 0.94837 0.54068 0.0
H448 H 0.68464 0.44497 1.01163 0.0
H449 H 0.73609 0.45171 1.02185 0.0
H450 H 0.75053 0.50051 0.95151 0.0
H451 H 0.69927 0.49362 0.94093 0.0
H452 H 0.78735 0.43588 0.98843 0.0
H453 H 0.78088 0.55206 1.01371 0.0
H454 H 0.74863 0.53007 1.01227 0.0
H455 H 0.76728 0.54095 0.98162 0.0
C456 C 0.69879 0.45709 0.9983 0.0
C457 C 0.68783 0.46889 0.97554 0.0
C458 C 0.72812 0.46097 1.00421 0.0
C459 C 0.74695 0.47687 0.9876 0.0
C460 C 0.73616 0.48863 0.96486 0.0
H461 H 0.93754 0.4842 0.9775 0.0
H462 H 0.88598 0.47445 0.9696 0.0
C463 C 0.70685 0.48474 0.9589 0.0
C464 C 0.77806 0.4807 0.99378 0.0
H465 H 0.82852 0.5311 1.00978 0.0
C466 C 0.79639 0.45666 0.9932 0.0
C467 C 0.7896 0.50783 1.00024 0.0
C468 C 0.77057 0.53422 1.00226 0.0
C469 C 0.8262 0.45909 0.99848 0.0
C470 C 0.83793 0.48631 1.0042 0.0
C471 C 0.81947 0.51028 1.0052 0.0
C472 C 0.86926 0.4905 1.00942 0.0
C473 C 0.84481 0.43255 0.99825 0.0
C474 C 0.87687 0.50292 0.03435 0.0
C475 C 0.90624 0.50863 0.03889 0.0
C476 C 0.92855 0.50218 1.01849 0.0
C477 C 0.9209 0.48932 0.99366 0.0
C478 C 0.89147 0.4836 0.98915 0.0
H479 H 0.83111 0.41326 1.00009 0.0
H480 H 0.8584 0.43013 0.97887 0.0
H481 H 0.85988 0.43386 1.01499 0.0
H482 H 0.86001 0.50847 0.05021 0.0
H483 H 0.91136 0.51854 0.05825 0.0
H484 H 0.84659 0.55274 0.49445 0.0
H485 H 0.794 0.54621 0.50596 0.0
H486 H 0.77276 0.59904 0.44184 0.0
H487 H 0.82526 0.60541 0.43 0.0
H488 H 0.75087 0.5926 0.52001 0.0
H489 H 0.72502 0.52398 0.42968 0.0
H490 H 0.76199 0.52812 0.44039 0.0
H491 H 0.74519 0.55585 0.42336 0.0
C492 C 0.8307 0.56266 0.4826 0.0
C493 C 0.83999 0.57952 0.46129 0.0
C494 C 0.80074 0.55906 0.48929 0.0
C495 C 0.77963 0.57198 0.4746 0.0
C496 C 0.78879 0.58869 0.45323 0.0
H497 H 0.58857 0.56695 0.48267 0.0
H498 H 0.6403 0.57708 0.47103 0.0
C499 C 0.81873 0.59245 0.44662 0.0
C500 C 0.74798 0.56856 0.48208 0.0
H501 H 0.68511 0.53885 0.45998 0.0
C502 C 0.73643 0.58082 0.50696 0.0
C503 C 0.72932 0.55338 0.46484 0.0
C504 C 0.74091 0.53936 0.43813 0.0
C505 C 0.70649 0.57849 0.51503 0.0
C506 C 0.68786 0.56288 0.498 0.0
C507 C 0.69944 0.55081 0.47299 0.0
C508 C 0.65643 0.55817 0.50596 0.0
C509 C 0.69502 0.59322 0.54146 0.0
C510 C 0.64837 0.54416 0.52945 0.0
C511 C 0.61884 0.5385 0.53625 0.0
C512 C 0.59684 0.54643 0.51949 0.0
C513 C 0.60497 0.56059 0.49603 0.0
C514 C 0.63451 0.56637 0.48932 0.0
H515 H 0.70955 0.61089 0.54782 0.0
H516 H 0.67248 0.60182 0.54001 0.0
H517 H 0.69421 0.57776 0.55748 0.0
H518 H 0.66497 0.53703 0.54223 0.0
H519 H 0.61335 0.52738 0.55436 0.0
H520 H 0.10845 0.26759 0.19263 0.0
H521 H 0.08776 0.31052 0.17507 0.0
H522 H 0.11591 0.28015 0.09381 0.0
H523 H 0.13624 0.23732 0.11115 0.0
H524 H 0.11617 0.3519 0.14447 0.0
H525 H 0.02936 0.29918 0.08692 0.0
H526 H 0.04833 0.28168 0.11221 0.0
H527 H 0.06533 0.2842 0.0787 0.0
C528 C 0.11004 0.27002 0.17103 0.0
C529 C 0.12377 0.24899 0.15321 0.0
C530 C 0.09825 0.29457 0.16101 0.0
C531 C 0.09978 0.29836 0.13305 0.0
C532 C 0.1138 0.27746 0.11538 0.0
H533 H 0.05521 0.42786 0.02517 0.0
H534 H 0.07149 0.38523 0.04609 0.0
C535 C 0.12557 0.25305 0.12533 0.0
C536 C 0.0876 0.32443 0.1222 0.0
H537 H 0.03979 0.34719 0.07749 0.0
C538 C 0.09925 0.35092 0.13004 0.0
C539 C 0.06558 0.32317 0.10328 0.0
C540 C 0.0512 0.29557 0.09495 0.0
C541 C 0.09018 0.37601 0.11887 0.0
C542 C 0.06845 0.37468 0.09966 0.0
C543 C 0.05652 0.34823 0.0921 0.0
C544 C 0.05797 0.40044 0.08701 0.0
C545 C 0.10467 0.4036 0.12708 0.0
C546 C 0.0444 0.42298 0.10295 0.0
C547 C 0.03508 0.44737 0.09106 0.0
C548 C 0.03894 0.44973 0.06289 0.0
C549 C 0.05193 0.42683 0.0469 0.0
C550 C 0.06126 0.40243 0.05884 0.0
H551 H 0.12583 0.40001 0.13635 0.0
H552 H 0.10887 0.41675 0.10943 0.0
H553 H 0.08987 0.41577 0.14225 0.0
H554 H 0.04098 0.42173 0.12464 0.0
H555 H 0.02501 0.46447 0.10403 0.0
H556 H 0.58443 0.4026 0.92508 0.0
H557 H 0.56622 0.35391 0.92607 0.0
H558 H 0.60198 0.34588 1.00363 0.0
H559 H 0.61988 0.39462 1.00304 0.0
H560 H 0.61821 0.30164 0.96242 0.0
H561 H 0.49733 0.32165 0.97455 0.0
H562 H 0.51769 0.33922 0.94818 0.0
H563 H 0.52378 0.34864 0.98291 0.0
C564 C 0.58794 0.39065 0.94258 0.0
C565 C 0.60358 0.40246 0.96402 0.0
C566 C 0.57755 0.36285 0.94307 0.0
C567 C 0.58257 0.34649 0.96502 0.0
C568 C 0.59789 0.35827 0.98653 0.0
H569 H 0.55818 0.18246 1.02288 0.0
H570 H 0.56966 0.23144 1.01348 0.0
C571 C 0.60822 0.38603 0.9861 0.0
C572 C 0.57332 0.31654 0.96509 0.0
H573 H 0.51326 0.27386 0.97146 0.0
C574 C 0.59527 0.29553 0.96423 0.0
C575 C 0.54338 0.30872 0.96712 0.0
C576 C 0.51907 0.33066 0.96841 0.0
C577 C 0.58808 0.26686 0.96601 0.0
C578 C 0.55818 0.25913 0.96924 0.0
C579 C 0.53615 0.27997 0.96905 0.0
C580 C 0.54968 0.22984 0.97505 0.0
C581 C 0.61258 0.24508 0.96471 0.0
C582 C 0.53373 0.21306 0.95694 0.0
C583 C 0.52714 0.18489 0.96224 0.0
C584 C 0.53641 0.17325 0.98575 0.0
C585 C 0.55142 0.19057 1.00425 0.0
C586 C 0.55793 0.21857 0.99896 0.0
H587 H 0.63313 0.2531 0.95463 0.0
H588 H 0.61734 0.24009 0.98557 0.0
H589 H 0.60624 0.22511 0.95368 0.0
H590 H 0.527 0.22155 0.93846 0.0
H591 H 0.51553 0.17203 0.94765 0.0
H592 H 0.89579 0.66282 0.47851 0.0
H593 H 0.91509 0.71096 0.47757 0.0
H594 H 0.97311 0.68567 0.40819 0.0
H595 H 0.95358 0.63719 0.40873 0.0
H596 H 0.98318 0.72215 0.47739 0.0
H597 H 0.92357 0.76238 0.39246 0.0
H598 H 0.90796 0.73488 0.41267 0.0
H599 H 0.93939 0.7271 0.38982 0.0
C600 C 0.91229 0.66755 0.46275 0.0
C601 C 0.92306 0.64627 0.4436 0.0
C602 C 0.9234 0.695 0.46236 0.0
C603 C 0.94535 0.70174 0.44276 0.0
C604 C 0.95603 0.68076 0.42337 0.0
H605 H 0.01035 0.87705 0.43425 0.0
H606 H 1.00379 0.82634 0.42208 0.0
C607 C 0.94498 0.65315 0.4238 0.0
C608 C 0.95767 0.7306 0.4437 0.0
H609 H 0.9498 0.79572 0.41852 0.0
C610 C 0.97632 0.73818 0.46426 0.0
C611 C 0.94882 0.75123 0.42635 0.0
C612 C 0.92881 0.74374 0.40401 0.0
C613 C 0.98538 0.7663 0.4687 0.0
C614 C 0.97493 0.78738 0.45252 0.0
C615 C 0.95763 0.7795 0.43095 0.0
C616 C 0.97928 0.8179 0.4595 0.0
C617 C 1.00547 0.77334 0.49112 0.0
C618 C 0.96728 0.82988 0.48433 0.0
C619 C 0.97099 0.85861 0.49132 0.0
C620 C 0.98661 0.87606 0.47351 0.0
C621 C 0.99843 0.86407 0.44848 0.0
C622 C 0.99461 0.83521 0.44145 0.0
H623 H 0.01857 0.7545 0.4957 0.0
H624 H 0.02077 0.79069 0.4858 0.0
H625 H 0.99201 0.7804 0.50977 0.0
H626 H 0.95495 0.81697 0.49835 0.0
H627 H 0.96193 0.86706 0.51088 0.0
H628 H 0.40641 0.78984 0.72339 0.0
H629 H 0.42767 0.74641 0.70032 0.0
H630 H 0.41725 0.78128 0.62312 0.0
H631 H 0.39719 0.82502 0.64593 0.0
H632 H 0.40233 0.70868 0.6653 0.0
H633 H 0.50131 0.75352 0.61348 0.0
H634 H 0.4797 0.77312 0.64016 0.0
H635 H 0.46798 0.77104 0.60616 0.0
C636 C 0.40916 0.78849 0.70151 0.0
C637 C 0.40001 0.81104 0.68659 0.0
C638 C 0.42113 0.76354 0.68832 0.0
C639 C 0.42448 0.76061 0.65993 0.0
C640 C 0.41551 0.78313 0.64501 0.0
H641 H 0.47357 0.62387 0.53947 0.0
H642 H 0.45718 0.66847 0.56381 0.0
C643 C 0.40363 0.80806 0.65815 0.0
C644 C 0.43603 0.73361 0.64583 0.0
H645 H 0.48849 0.70639 0.59874 0.0
C646 C 0.42133 0.70817 0.65094 0.0
C647 C 0.4608 0.73284 0.62697 0.0
C648 C 0.47855 0.75904 0.62154 0.0
C649 C 0.43024 0.68224 0.63731 0.0
C650 C 0.45478 0.68156 0.61826 0.0
C651 C 0.4696 0.70692 0.61324 0.0
C652 C 0.46545 0.65468 0.60345 0.0
C653 C 0.41281 0.65588 0.64292 0.0
C654 C 0.47608 0.63224 0.61753 0.0
C655 C 0.48554 0.60677 0.60369 0.0
C656 C 0.48465 0.60313 0.57537 0.0
C657 C 0.4745 0.62586 0.56125 0.0
C658 C 0.46513 0.6514 0.57514 0.0
H659 H 0.39076 0.66108 0.6529 0.0
H660 H 0.40996 0.64282 0.62393 0.0
H661 H 0.42487 0.64288 0.65657 0.0
H662 H 0.47707 0.63442 0.6393 0.0
H663 H 0.49333 0.58983 0.61526 0.0
H664 H 0.92439 0.90086 0.81161 0.0
H665 H 0.94353 0.92023 0.76927 0.0
H666 H 0.85564 0.92301 0.74203 0.0
H667 H 0.83637 0.904 0.78436 0.0
H668 H 0.9427 0.90139 0.71696 0.0
H669 H 0.88159 1.00339 0.73185 0.0
H670 H 0.88385 0.97918 0.75845 0.0
H671 H 0.85789 0.97319 0.73291 0.0
C672 C 0.90916 0.90543 0.79653 0.0
C673 C 0.8788 0.9011 0.80152 0.0
C674 C 0.92012 0.91662 0.77235 0.0
C675 C 0.90099 0.92373 0.75262 0.0
C676 C 0.87079 0.91856 0.75721 0.0
H677 H 0.95445 0.9526 0.58424 0.0
H678 H 0.93484 0.93349 0.6264 0.0
C679 C 0.8598 0.90757 0.78142 0.0
C680 C 0.91264 0.93627 0.72717 0.0
H681 H 0.90542 0.99304 0.68824 0.0
C682 C 0.9346 0.92148 0.71075 0.0
C683 C 0.9025 0.96275 0.71917 0.0
C684 C 0.88039 0.98071 0.73664 0.0
C685 C 0.94627 0.93211 0.68642 0.0
C686 C 0.93523 0.958 0.67786 0.0
C687 C 0.91366 0.97304 0.69453 0.0
C688 C 0.9461 0.97007 0.65194 0.0
C689 C 0.9708 0.91575 0.67047 0.0
C690 C 0.95786 0.99755 0.65193 0.0
C691 C 0.96872 1.00875 0.62774 0.0
C692 C 0.96806 0.99271 0.60297 0.0
C693 C 0.95557 0.96548 0.60294 0.0
C694 C 0.94455 0.95439 0.62711 0.0
H695 H 0.98241 0.90145 0.68335 0.0
H696 H 0.96143 0.90239 0.65404 0.0
H697 H 0.98712 0.93027 0.66119 0.0
H698 H 0.95914 1.0102 0.67076 0.0
H699 H 0.97816 0.02978 0.62856 0.0
H700 H 0.62001 0.20384 0.2848 0.0
H701 H 0.60241 0.18306 0.24231 0.0
H702 H 0.61164 0.09926 0.271 0.0
H703 H 0.62878 0.11979 0.31352 0.0
H704 H 0.63273 0.14217 0.20435 0.0
H705 H 0.52654 0.10089 0.24639 0.0
H706 H 0.54722 0.1276 0.26439 0.0
H707 H 0.55824 0.09094 0.26353 0.0
C708 C 0.61799 0.18101 0.28218 0.0
C709 C 0.62584 0.16352 0.30264 0.0
C710 C 0.60808 0.16915 0.25782 0.0
C711 C 0.60541 0.1396 0.25354 0.0
C712 C 0.61314 0.12212 0.27393 0.0
H713 H 0.54753 0.02416 0.12416 0.0
H714 H 0.5655 0.04595 0.16594 0.0
C715 C 0.62322 0.13391 0.29817 0.0
C716 C 0.5952 0.12689 0.22757 0.0
H717 H 0.5408 0.08655 0.20086 0.0
C718 C 0.61254 0.13016 0.20353 0.0
C719 C 0.56897 0.11104 0.22652 0.0
C720 C 0.54897 0.10753 0.25151 0.0
C721 C 0.60472 0.1175 0.17861 0.0
C722 C 0.57838 0.10169 0.17751 0.0
C723 C 0.561 0.09856 0.20159 0.0
C724 C 0.56832 0.08836 0.15164 0.0
C725 C 0.62526 0.1205 0.15387 0.0
C726 C 0.56369 0.10485 0.12961 0.0
C727 C 0.55363 0.0924 0.1056 0.0
C728 C 0.54756 0.06317 0.10313 0.0
C729 C 0.55205 0.04669 0.12527 0.0
C730 C 0.56228 0.05916 0.14923 0.0
H731 H 0.648 0.12548 0.1594 0.0
H732 H 0.62594 0.10082 0.14043 0.0
H733 H 0.61746 0.1382 0.14235 0.0
H734 H 0.56738 0.12752 0.13109 0.0
H735 H 0.55017 0.10584 0.08912 0.0
H736 H 0.41847 0.54179 0.18052 0.0
H737 H 0.425 0.5412 0.22896 0.0
H738 H 0.51427 0.56983 0.21581 0.0
H739 H 0.50774 0.57088 0.16717 0.0
H740 H 0.4661 0.51208 0.25729 0.0
H741 H 0.47708 0.62917 0.27217 0.0
H742 H 0.46348 0.61227 0.24191 0.0
H743 H 0.50223 0.61231 0.24671 0.0
C744 C 0.43956 0.5478 0.18788 0.0
C745 C 0.46259 0.55662 0.17016 0.0
C746 C 0.44324 0.54745 0.21556 0.0
C747 C 0.46991 0.55598 0.22596 0.0
C748 C 0.49332 0.56373 0.20819 0.0
H749 H 0.52498 0.57052 0.39069 0.0
H750 H 0.52218 0.57212 0.34172 0.0
C751 C 0.48966 0.5641 0.18046 0.0
C752 C 0.47292 0.55705 0.25549 0.0
H753 H 0.48295 0.60238 0.31028 0.0
C754 C 0.46979 0.5318 0.2689 0.0
C755 C 0.47772 0.58285 0.2705 0.0
C756 C 0.48009 0.61077 0.2572 0.0
C757 C 0.4715 0.53161 0.29699 0.0
C758 C 0.47597 0.55745 0.31203 0.0
C759 C 0.47947 0.58265 0.29861 0.0
C760 C 0.47687 0.55865 0.34179 0.0
C761 C 0.46886 0.50373 0.31033 0.0
C762 C 0.45199 0.55148 0.35802 0.0
C763 C 0.45344 0.55072 0.38598 0.0
C764 C 0.47978 0.55724 0.39819 0.0
C765 C 0.50429 0.56564 0.38194 0.0
C766 C 0.50281 0.56639 0.35396 0.0
H767 H 0.4727 0.48533 0.29547 0.0
H768 H 0.48475 0.50248 0.32628 0.0
H769 H 0.44634 0.50196 0.31999 0.0
H770 H 0.43158 0.54604 0.349 0.0
H771 H 0.43404 0.54465 0.398 0.0
H772 H 0.08884 0.56266 0.67275 0.0
H773 H 0.09022 0.55374 0.72091 0.0
H774 H 0.06011 0.46834 0.70451 0.0
H775 H 0.05842 0.47716 0.65681 0.0
H776 H 0.04283 0.53928 0.75443 0.0
H777 H 0.12935 0.45586 0.75105 0.0
H778 H 0.12455 0.47811 0.72325 0.0
H779 H 0.10097 0.44818 0.72827 0.0
C780 C 0.08297 0.54188 0.67945 0.0
C781 C 0.07435 0.52041 0.6609 0.0
C782 C 0.08377 0.5368 0.70687 0.0
C783 C 0.07591 0.51016 0.71616 0.0
C784 C 0.0672 0.48873 0.69766 0.0
H785 H 0.01205 0.47757 0.87952 0.0
H786 H 0.01896 0.47892 0.8303 0.0
C787 C 0.06639 0.4938 0.67029 0.0
C788 C 0.07446 0.50545 0.74546 0.0
H789 H 0.09963 0.46276 0.79239 0.0
C790 C 0.05538 0.52266 0.76275 0.0
C791 C 0.091 0.48386 0.75626 0.0
C792 C 0.11284 0.4656 0.73881 0.0
C793 C 0.05195 0.51856 0.79051 0.0
C794 C 0.06767 0.49632 0.80117 0.0
C795 C 0.08726 0.47947 0.78402 0.0
C796 C 0.06468 0.49112 0.83032 0.0
C797 C 0.03182 0.53831 0.80829 0.0
C798 C 0.08853 0.49604 0.8464 0.0
C799 C 0.08474 0.49502 0.87448 0.0
C800 C 0.05702 0.48897 0.88693 0.0
C801 C 0.03369 0.48216 0.87057 0.0
C802 C 0.03751 0.4832 0.84247 0.0
H803 H 0.02674 0.55797 0.79817 0.0
H804 H 0.01078 0.52738 0.8131 0.0
H805 H 0.04178 0.54433 0.82763 0.0
H806 H 0.10973 0.50196 0.83735 0.0
H807 H 0.10324 0.49995 0.88654 0.0
H808 H 0.77964 0.91241 0.84426 0.0
H809 H 0.73568 0.93441 0.86788 0.0
H810 H 0.77544 0.92975 0.94402 0.0
H811 H 0.81981 0.9088 0.92054 0.0
H812 H 0.69822 0.9127 0.90663 0.0
H813 H 0.7478 1.01181 0.94766 0.0
H814 H 0.76646 0.98881 0.92159 0.0
H815 H 0.76634 0.98037 0.95648 0.0
C816 C 0.77926 0.91651 0.86598 0.0
C817 C 0.80337 0.90886 0.88045 0.0
C818 C 0.754 0.92891 0.87948 0.0
C819 C 0.75236 0.93411 0.90771 0.0
C820 C 0.77636 0.92649 0.9222 0.0
H821 H 0.59299 0.95934 1.01304 0.0
H822 H 0.63828 0.94128 0.9887 0.0
C823 C 0.80161 0.91414 0.90874 0.0
C824 C 0.72517 0.94649 0.92211 0.0
H825 H 0.69951 1.00126 0.96556 0.0
C826 C 0.69848 0.93214 0.91941 0.0
C827 C 0.7254 0.97206 0.93852 0.0
C828 C 0.75297 0.98933 0.94107 0.0
C829 C 0.67219 0.94231 0.93309 0.0
C830 C 0.67266 0.96726 0.95037 0.0
C831 C 0.69921 0.98195 0.9526 0.0
C832 C 0.64574 0.97864 0.966 0.0
C833 C 0.64408 0.92647 0.92854 0.0
C834 C 0.63539 1.00608 0.96212 0.0
C835 C 0.60962 0.01659 0.97621 0.0
C836 C 0.5937 0.9999 0.99457 0.0
C837 C 0.60456 0.9727 0.99893 0.0
C838 C 0.63036 0.96224 0.98488 0.0
H839 H 0.64591 0.91279 0.90949 0.0
H840 H 0.63921 0.91258 0.94552 0.0
H841 H 0.62526 0.94136 0.92773 0.0
H842 H 0.64698 0.0192 0.9478 0.0
H843 H 0.60196 0.03765 0.97239 0.0
H844 H 0.75403 0.14963 0.37691 0.0
H845 H 0.79775 0.12948 0.39513 0.0
H846 H 0.74741 0.11556 0.4698 0.0
H847 H 0.70425 0.13714 0.45215 0.0
H848 H 0.79711 0.13561 0.48142 0.0
H849 H 0.82022 0.04949 0.40237 0.0
H850 H 0.82058 0.08361 0.38835 0.0
H851 H 0.78697 0.07053 0.40412 0.0
C852 C 0.75231 0.14208 0.39714 0.0
C853 C 0.72569 0.14475 0.41308 0.0
C854 C 0.77728 0.13033 0.40749 0.0
C855 C 0.77591 0.12029 0.43371 0.0
C856 C 0.74919 0.12298 0.44952 0.0
H857 H 0.91124 1.01178 0.49256 0.0
H858 H 0.86685 0.03087 0.47466 0.0
C859 C 0.72447 0.13525 0.4394 0.0
C860 C 0.80241 0.10806 0.44522 0.0
H861 H 0.85787 0.059 0.43283 0.0
C862 C 0.81023 0.11871 0.47081 0.0
C863 C 0.81945 0.08564 0.43174 0.0
C864 C 0.8112 0.07145 0.40528 0.0
C865 C 0.83449 0.10786 0.48315 0.0
C866 C 0.85243 0.08649 0.46906 0.0
C867 C 0.84446 0.07561 0.44359 0.0
C868 C 0.87933 0.07494 0.48042 0.0
C869 C 0.83998 0.11896 0.51152 0.0
C870 C 0.90142 0.09318 0.48948 0.0
C871 C 0.92648 0.08232 0.50029 0.0
C872 C 0.93051 0.05288 0.50158 0.0
C873 C 0.90877 0.03456 0.49193 0.0
C874 C 0.8834 0.04548 0.48161 0.0
H875 H 0.81944 0.1274 0.52247 0.0
H876 H 0.84912 0.10218 0.5234 0.0
H877 H 0.85589 0.13666 0.51056 0.0
H878 H 0.89949 0.11588 0.48795 0.0
H879 H 0.94303 0.097 0.50712 0.0
H880 H 0.35027 0.54833 0.07061 0.0
H881 H 0.29937 0.54064 0.05883 0.0
H882 H 0.27575 0.62479 0.0919 0.0
H883 H 0.32625 0.63251 0.10415 0.0
H884 H 0.24797 0.54412 0.09534 0.0
H885 H 0.24449 0.62115 1.01514 0.0
H886 H 0.27854 0.60805 0.02667 0.0
H887 H 0.25778 0.63525 0.04646 0.0
C888 C 0.33422 0.56517 0.07541 0.0
C889 C 0.34236 0.5911 0.08812 0.0
C890 C 0.30523 0.56079 0.06856 0.0
C891 C 0.28401 0.58233 0.07414 0.0
C892 C 0.292 0.60816 0.08689 0.0
H893 H 0.0941 0.56947 0.0849 0.0
H894 H 0.14565 0.57883 0.09315 0.0
C895 C 0.32089 0.61253 0.09381 0.0
C896 C 0.25318 0.57746 0.06766 0.0
H897 H 0.19886 0.6014 0.03031 0.0
C898 C 0.23723 0.55653 0.08104 0.0
C899 C 0.23941 0.5936 0.04887 0.0
C900 C 0.25595 0.61562 0.03324 0.0
C901 C 0.20757 0.55165 0.07648 0.0
C902 C 0.19357 0.56835 0.05826 0.0
C903 C 0.20967 0.58889 0.04447 0.0
C904 C 0.16233 0.56429 0.05288 0.0
C905 C 0.1915 0.52851 0.09095 0.0
C906 C 0.15471 0.55385 0.02727 0.0
C907 C 0.12534 0.54851 1.02246 0.0
C908 C 0.10308 0.55373 0.04317 0.0
C909 C 0.11073 0.56513 0.06857 0.0
C910 C 0.14015 0.57035 0.07337 0.0
H911 H 0.20689 0.51378 0.09971 0.0
H912 H 0.17678 0.53825 0.10769 0.0
H913 H 0.17768 0.51607 0.07698 0.0
H914 H 0.17158 0.54921 1.01119 0.0
H915 H 0.12015 0.53987 1.00264 0.0
H916 H 0.18596 0.43866 0.6312 0.0
H917 H 0.23917 0.44559 0.62475 0.0
H918 H 0.22465 0.5096 0.56838 0.0
H919 H 0.17155 0.50302 0.57498 0.0
H920 H 0.27362 0.43707 0.57847 0.0
H921 H 0.28157 0.54923 0.61658 0.0
H922 H 0.2489 0.52846 0.62266 0.0
H923 H 0.25575 0.54463 0.59092 0.0
C924 C 0.19416 0.45437 0.61761 0.0
C925 C 0.17463 0.4704 0.60367 0.0
C926 C 0.22451 0.45834 0.61399 0.0
C927 C 0.23586 0.47841 0.5964 0.0
C928 C 0.21638 0.49455 0.58261 0.0
H929 H 0.40364 0.51891 0.52032 0.0
H930 H 0.35175 0.51074 0.5331 0.0
C931 C 0.18604 0.49074 0.58636 0.0
C932 C 0.26809 0.48133 0.59121 0.0
H933 H 0.32351 0.5298 0.59001 0.0
C934 C 0.28459 0.45727 0.58131 0.0
C935 C 0.28239 0.50769 0.59501 0.0
C936 C 0.26629 0.53389 0.60714 0.0
C937 C 0.31483 0.4591 0.57426 0.0
C938 C 0.3288 0.48562 0.57722 0.0
C939 C 0.31253 0.50954 0.5876 0.0
C940 C 0.36024 0.48913 0.56904 0.0
C941 C 0.3316 0.43294 0.563 0.0
C942 C 0.38205 0.47948 0.58504 0.0
C943 C 0.41174 0.48422 0.5779 0.0
C944 C 0.42002 0.49861 0.55459 0.0
C945 C 0.39803 0.5077 0.53835 0.0
C946 C 0.36838 0.50313 0.54562 0.0
H947 H 0.31691 0.41457 0.55937 0.0
H948 H 0.34396 0.43735 0.5437 0.0
H949 H 0.34787 0.42704 0.57746 0.0
H950 H 0.37606 0.46876 0.60328 0.0
H951 H 0.42815 0.47697 0.59084 0.0
H952 H 0.94034 0.77266 0.85017 0.0
H953 H 0.95713 0.73397 0.87646 0.0
H954 H 0.90802 0.77037 0.94743 0.0
H955 H 0.89075 0.80869 0.92118 0.0
H956 H 0.98928 0.73515 0.92126 0.0
H957 H 0.87952 0.68917 0.94547 0.0
H958 H 0.88554 0.71499 0.92033 0.0
H959 H 0.88213 0.72614 0.95568 0.0
C960 C 0.93307 0.77232 0.87137 0.0
C961 C 0.91406 0.79359 0.8835 0.0
C962 C 0.94269 0.75024 0.88638 0.0
C963 C 0.93345 0.74891 0.91385 0.0
C964 C 0.91489 0.77048 0.92614 0.0
H965 H 0.97149 0.62669 0.03402 0.0
H966 H 0.95593 0.6689 1.01181 0.0
C967 C 0.90517 0.79252 0.91111 0.0
C968 C 0.94364 0.72522 0.92964 0.0
H969 H 0.91956 0.67023 0.96701 0.0
C970 C 0.97401 0.72095 0.93122 0.0
C971 C 0.92375 0.70667 0.94274 0.0
C972 C 0.89093 0.70923 0.94082 0.0
C973 C 0.985 0.69881 0.94558 0.0
C974 C 0.96513 0.68016 0.95848 0.0
C975 C 0.93477 0.68462 0.95723 0.0
C976 C 0.97543 0.65512 0.97228 0.0
C977 C 0.01783 0.69572 0.94703 0.0
C978 C 0.99141 0.63328 0.95744 0.0
C979 C 1.00024 0.60918 0.97001 0.0
C980 C 0.99326 0.60628 0.99777 0.0
C981 C 0.97739 0.62828 1.01267 0.0
C982 C 0.96841 0.65238 1.0 0.0
H983 H 0.02945 0.71572 0.94259 0.0
H984 H 0.02339 0.68942 0.96732 0.0
H985 H 0.02617 0.67893 0.93183 0.0
H986 H 0.99664 0.63464 0.93596 0.0
H987 H 0.01232 0.59266 0.95783 0.0
H988 H 0.38543 0.67825 0.11533 0.0
H989 H 0.40558 0.72602 0.11346 0.0
H990 H 0.4911 0.69073 0.08806 0.0
H991 H 0.47089 0.64269 0.08918 0.0
H992 H 0.45327 0.75031 0.14155 0.0
H993 H 0.47391 0.7465 0.02954 0.0
H994 H 0.45042 0.72139 0.04634 0.0
H995 H 0.48967 0.71818 0.04672 0.0
C996 C 0.40846 0.68064 0.10903 0.0
C997 C 0.42651 0.65674 0.10205 0.0
C998 C 0.41997 0.70791 0.10823 0.0
C999 C 0.44971 0.71182 0.10037 0.0
C1000 C 0.46798 0.68808 0.09385 0.0
H1001 H 0.5347 0.87269 0.06699 0.0
H1002 H 0.52758 0.8228 0.07641 0.0
C1003 C 0.45647 0.66071 0.09466 0.0
C1004 C 0.4612 0.74092 0.09869 0.0
H1005 H 0.48568 0.78877 0.0537 0.0
C1006 C 0.4606 0.75872 0.1224 0.0
C1007 C 0.47082 0.75167 0.07368 0.0
C1008 C 0.47112 0.7336 0.04753 0.0
C1009 C 0.46892 0.78725 0.12167 0.0
C1010 C 0.47753 0.79827 0.09651 0.0
C1011 C 0.47907 0.78021 0.07296 0.0
C1012 C 0.48304 0.82884 0.09376 0.0
C1013 C 0.46829 0.80535 0.14779 0.0
C1014 C 0.46041 0.84874 0.10058 0.0
C1015 C 0.46445 0.87724 0.09537 0.0
C1016 C 0.49114 0.88632 0.08304 0.0
C1017 C 0.51403 0.86644 0.07684 0.0
C1018 C 0.50996 0.83791 0.08205 0.0
H1019 H 0.47029 0.7922 0.16544 0.0
H1020 H 0.48629 0.82114 0.14745 0.0
H1021 H 0.447 0.81699 0.1507 0.0
H1022 H 0.43926 0.84208 0.10913 0.0
H1023 H 0.44649 0.8921 0.10058 0.0
H1024 H 0.12368 0.38655 0.63019 0.0
H1025 H 0.10761 0.33727 0.62756 0.0
H1026 H 0.03906 0.35943 0.57639 0.0
H1027 H 0.056 0.40851 0.57766 0.0
H1028 H 0.05545 0.31335 0.64269 0.0
H1029 H 0.07997 0.29461 0.532 0.0
H1030 H 0.09251 0.32565 0.55072 0.0
H1031 H 0.0552 0.32381 0.54093 0.0
C1032 C 0.10547 0.3809 0.61801 0.0
C1033 C 0.0914 0.40144 0.60382 0.0
C1034 C 0.09612 0.35277 0.61677 0.0
C1035 C 0.07247 0.34461 0.60141 0.0
C1036 C 0.05778 0.36516 0.58788 0.0
H1037 H 0.99168 0.18083 0.56863 0.0
H1038 H 1.00015 0.23173 0.57666 0.0
C1039 C 0.06727 0.39329 0.5889 0.0
C1040 C 0.06343 0.3145 0.59949 0.0
H1041 H 0.05549 0.25783 0.55463 0.0
C1042 C 0.05546 0.3012 0.62344 0.0
C1043 C 0.06361 0.29868 0.57434 0.0
C1044 C 0.07355 0.3113 0.54805 0.0
C1045 C 0.04752 0.27248 0.62288 0.0
C1046 C 0.04763 0.25682 0.59777 0.0
C1047 C 0.05527 0.27011 0.57382 0.0
C1048 C 0.04094 0.22624 0.5958 0.0
C1049 C 0.03896 0.25905 0.64905 0.0
C1050 C 0.06101 0.20647 0.60416 0.0
C1051 C 0.05631 0.17741 0.59952 0.0
C1052 C 0.0314 0.16774 0.58654 0.0
C1053 C 0.01086 0.18766 0.57899 0.0
C1054 C 0.01572 0.21669 0.58343 0.0
H1055 H 0.03479 0.27516 0.66612 0.0
H1056 H 0.01895 0.24596 0.64696 0.0
H1057 H 0.05703 0.24483 0.65408 0.0
H1058 H 0.08078 0.21353 0.61346 0.0
H1059 H 0.07241 0.16251 0.60564 0.0
H1060 H 0.6227 0.22127 0.42183 0.0
H1061 H 0.60247 0.26429 0.44608 0.0
H1062 H 0.5929 0.3024 0.3703 0.0
H1063 H 0.61366 0.25959 0.34579 0.0
H1064 H 0.62508 0.32005 0.44422 0.0
H1065 H 0.51125 0.31464 0.41048 0.0
H1066 H 0.53603 0.28447 0.40717 0.0
H1067 H 0.53991 0.31205 0.38379 0.0
C1068 C 0.61644 0.2388 0.41023 0.0
C1069 C 0.61998 0.23685 0.38175 0.0
C1070 C 0.6047 0.26337 0.42418 0.0
C1071 C 0.59588 0.28653 0.41006 0.0
C1072 C 0.59904 0.28463 0.38166 0.0
H1073 H 0.5251 0.45487 0.45828 0.0
H1074 H 0.54266 0.41081 0.43408 0.0
C1075 C 0.6109 0.26007 0.36765 0.0
C1076 C 0.58443 0.31296 0.42519 0.0
H1077 H 0.52397 0.3564 0.43577 0.0
C1078 C 0.60293 0.32794 0.44247 0.0
C1079 C 0.55557 0.32335 0.42282 0.0
C1080 C 0.53438 0.30773 0.40525 0.0
C1081 C 0.59359 0.35322 0.45705 0.0
C1082 C 0.56462 0.36353 0.45488 0.0
C1083 C 0.54613 0.34853 0.43755 0.0
C1084 C 0.55328 0.39008 0.47 0.0
C1085 C 0.61521 0.36907 0.47401 0.0
C1086 C 0.5528 0.39309 0.49839 0.0
C1087 C 0.54289 0.41841 0.51235 0.0
C1088 C 0.53291 0.44122 0.49824 0.0
C1089 C 0.53267 0.43784 0.46986 0.0
C1090 C 0.5427 0.41259 0.45594 0.0
H1091 H 0.63831 0.36296 0.46758 0.0
H1092 H 0.61274 0.39237 0.47284 0.0
H1093 H 0.61113 0.36389 0.49544 0.0
H1094 H 0.56012 0.37583 0.50981 0.0
H1095 H 0.54319 0.42015 0.53418 0.0
loop_
_geom_bond_atom_site_label_1
_geom_bond_atom_site_label_2
_geom_bond_distance
_geom_bond_site_symmetry_2
_ccdc_geom_bond_type
H0 C5 0.930 . S
H1 C8 0.930 . S
H2 C10 0.930 . S
H3 C4 1.016 . S
C4 H3 1.016 . S
C4 N11 1.286 . S
C5 H0 0.930 . S
C5 C6 1.397 . S
C5 C7 1.361 . S
C6 C5 1.397 . S
C6 C10 1.390 . S
C7 C5 1.361 . S
C7 C8 1.393 . S
C7 N11 1.413 . S
C8 H1 0.930 . S
C8 C7 1.393 . S
C8 C9 1.399 . S
C9 C8 1.399 . S
C9 C10 1.381 . S
C10 H2 0.930 . S
C10 C6 1.390 . S
C10 C9 1.381 . S
N11 C4 1.286 . S
N11 C7 1.413 . S
H12 C17 0.930 . S
H13 C20 0.930 . S
H14 C22 0.930 . S
H15 C16 1.016 . S
C16 H15 1.016 . S
C16 N23 1.286 . S
C17 H12 0.930 . S
C17 C18 1.397 . S
C17 C19 1.361 . S
C18 C17 1.397 . S
C18 C22 1.390 . S
C19 C17 1.361 . S
C19 C20 1.393 . S
C19 N23 1.413 . S
C20 H13 0.930 . S
C20 C19 1.393 . S
C20 C21 1.399 . S
C21 C20 1.399 . S
C21 C22 1.381 . S
C22 H14 0.930 . S
C22 C18 1.390 . S
C22 C21 1.381 . S
N23 C16 1.286 . S
N23 C19 1.413 . S
H24 C29 0.930 . S
H25 C32 0.930 . S
H26 C34 0.930 . S
H27 C28 1.016 . S
C28 H27 1.016 . S
C28 N35 1.286 . S
C29 H24 0.930 . S
C29 C30 1.397 . S
C29 C31 1.361 . S
C30 C29 1.397 . S
C30 C34 1.390 . S
C31 C29 1.361 . S
C31 C32 1.393 . S
C31 N35 1.413 . S
C32 H25 0.930 . S
C32 C31 1.393 . S
C32 C33 1.399 . S
C33 C32 1.399 . S
C33 C34 1.381 . S
C34 H26 0.930 . S
C34 C30 1.390 . S
C34 C33 1.381 . S
N35 C28 1.286 . S
N35 C31 1.413 . S
H36 C41 0.930 . S
H37 C44 0.930 . S
H38 C46 0.930 . S
H39 C40 1.016 . S
C40 H39 1.016 . S
C40 N47 1.286 . S
C41 H36 0.930 . S
C41 C42 1.397 . S
C41 C43 1.361 . S
C42 C41 1.397 . S
C42 C46 1.390 . S
C43 C41 1.361 . S
C43 C44 1.393 . S
C43 N47 1.413 . S
C44 H37 0.930 . S
C44 C43 1.393 . S
C44 C45 1.399 . S
C45 C44 1.399 . S
C45 C46 1.381 . S
C46 H38 0.930 . S
C46 C42 1.390 . S
C46 C45 1.381 . S
N47 C40 1.286 . S
N47 C43 1.413 . S
H48 C53 0.930 . S
H49 C56 0.930 . S
H50 C58 0.930 . S
H51 C52 1.016 . S
C52 H51 1.016 . S
C52 N59 1.286 . S
C53 H48 0.930 . S
C53 C54 1.397 . S
C53 C55 1.361 . S
C54 C53 1.397 . S
C54 C58 1.390 . S
C55 C53 1.361 . S
C55 C56 1.393 . S
C55 N59 1.413 . S
C56 H49 0.930 . S
C56 C55 1.393 . S
C56 C57 1.399 . S
C57 C56 1.399 . S
C57 C58 1.381 . S
C58 H50 0.930 . S
C58 C54 1.390 . S
C58 C57 1.381 . S
N59 C52 1.286 . S
N59 C55 1.413 . S
H60 C65 0.930 . S
H61 C68 0.930 . S
H62 C70 0.930 . S
H63 C64 1.016 . S
C64 H63 1.016 . S
C64 N71 1.286 . S
C65 H60 0.930 . S
C65 C66 1.397 . S
C65 C67 1.361 . S
C66 C65 1.397 . S
C66 C70 1.390 . S
C67 C65 1.361 . S
C67 C68 1.393 . S
C67 N71 1.413 . S
C68 H61 0.930 . S
C68 C67 1.393 . S
C68 C69 1.399 . S
C69 C68 1.399 . S
C69 C70 1.381 . S
C70 H62 0.930 . S
C70 C66 1.390 . S
C70 C69 1.381 . S
N71 C64 1.286 . S
N71 C67 1.413 . S
H72 C77 0.930 . S
H73 C80 0.930 . S
H74 C82 0.930 . S
H75 C76 1.016 . S
C76 H75 1.016 . S
C76 N83 1.286 . S
C77 H72 0.930 . S
C77 C78 1.397 . S
C77 C79 1.361 . S
C78 C77 1.397 . S
C78 C82 1.390 . S
C79 C77 1.361 . S
C79 C80 1.393 . S
C79 N83 1.413 . S
C80 H73 0.930 . S
C80 C79 1.393 . S
C80 C81 1.399 . S
C81 C80 1.399 . S
C81 C82 1.381 . S
C82 H74 0.930 . S
C82 C78 1.390 . S
C82 C81 1.381 . S
N83 C76 1.286 . S
N83 C79 1.413 . S
H84 C89 0.930 . S
H85 C92 0.930 . S
H86 C94 0.930 . S
H87 C88 1.016 . S
C88 H87 1.016 . S
C88 N95 1.286 . S
C89 H84 0.930 . S
C89 C90 1.397 . S
C89 C91 1.361 . S
C90 C89 1.397 . S
C90 C94 1.390 . S
C91 C89 1.361 . S
C91 C92 1.393 . S
C91 N95 1.413 . S
C92 H85 0.930 . S
C92 C91 1.393 . S
C92 C93 1.399 . S
C93 C92 1.399 . S
C93 C94 1.381 . S
C94 H86 0.930 . S
C94 C90 1.390 . S
C94 C93 1.381 . S
N95 C88 1.286 . S
N95 C91 1.413 . S
C96 O112 1.251 . S
C96 O114 1.254 1_545 S
N97 C98 1.333 . S
N97 C102 1.307 . S
N97 Zn103 2.020 . S
C98 N97 1.333 . S
C98 C99 1.379 . S
C98 H116 0.952 . S
C99 C98 1.379 . S
C99 C100 1.390 . S
C99 H126 0.949 . S
C100 C99 1.390 . S
C100 C101 1.357 . S
C101 C100 1.357 . S
C101 C102 1.370 . S
C101 H127 0.950 . S
C102 N97 1.307 . S
C102 C101 1.370 . S
C102 H120 0.948 1_455 S
Zn103 N97 2.020 . S
Zn103 O112 2.039 . S
Zn103 O118 2.034 . S
Zn103 O122 2.025 1_455 S
Zn103 O124 2.024 1_455 S
C104 O123 1.246 1_545 S
C104 O124 1.249 . S
N105 C106 1.307 . S
N105 C107 1.333 . S
N105 Zn111 2.020 . S
C106 N105 1.307 . S
C106 C110 1.370 . S
C106 H117 0.948 1_655 S
C107 N105 1.333 . S
C107 C108 1.379 . S
C107 H115 0.952 . S
C108 C107 1.379 . S
C108 C109 1.390 . S
C108 H128 0.949 . S
C109 C108 1.390 . S
C109 C110 1.357 . S
C110 C106 1.370 . S
C110 C109 1.357 . S
C110 H129 0.950 . S
Zn111 N105 2.020 . S
Zn111 O114 2.025 1_655 S
Zn111 O119 2.024 1_655 S
Zn111 O121 2.039 . S
Zn111 O123 2.034 . S
O112 C96 1.251 . S
O112 Zn103 2.039 . S
C113 O118 1.246 1_565 S
C113 O119 1.249 . S
O114 C96 1.254 1_565 S
O114 Zn111 2.025 1_455 S
H115 C107 0.952 . S
H116 C98 0.952 . S
H117 C106 0.948 1_455 S
O118 Zn103 2.034 . S
O118 C113 1.246 1_545 S
O119 Zn111 2.024 1_455 S
O119 C113 1.249 . S
H120 C102 0.948 1_655 S
O121 Zn111 2.039 . S
O121 C125 1.251 . S
O122 Zn103 2.025 1_655 S
O122 C125 1.254 1_545 S
O123 C104 1.246 1_565 S
O123 Zn111 2.034 . S
O124 Zn103 2.024 1_655 S
O124 C104 1.249 . S
C125 O121 1.251 . S
C125 O122 1.254 1_565 S
H126 C99 0.949 . S
H127 C101 0.950 . S
H128 C108 0.949 . S
H129 C110 0.950 . S
C130 O146 1.251 1_565 S
C130 O148 1.254 1_556 S
N131 C132 1.333 . S
N131 C136 1.307 . S
N131 Zn137 2.024 . S
C132 N131 1.333 . S
C132 C133 1.379 . S
C132 H150 0.952 . S
C133 C132 1.379 . S
C133 C134 1.390 . S
C133 H160 0.949 . S
C134 C133 1.390 . S
C134 C135 1.357 . S
C135 C134 1.357 . S
C135 C136 1.370 . S
C135 H161 0.950 . S
C136 N131 1.307 . S
C136 C135 1.370 . S
C136 H154 0.948 . S
Zn137 N131 2.024 . S
Zn137 O146 2.042 . S
Zn137 O152 2.019 1_556 S
Zn137 O156 2.021 1_556 S
Zn137 O158 2.038 . S
C138 O157 1.238 1_545 S
C138 O158 1.260 . S
N139 C140 1.307 . S
N139 C141 1.333 . S
N139 Zn145 2.020 . S
C140 N139 1.307 . S
C140 C144 1.370 . S
C140 H151 0.948 . S
C141 N139 1.333 . S
C141 C142 1.379 . S
C141 H149 0.952 . S
C142 C141 1.379 . S
C142 C143 1.390 . S
C142 H162 0.949 . S
C143 C142 1.390 . S
C143 C144 1.357 . S
C144 C140 1.370 . S
C144 C143 1.357 . S
C144 H163 0.950 . S
Zn145 N139 2.020 . S
Zn145 O148 2.025 . S
Zn145 O153 2.024 1_565 S
Zn145 O155 2.039 1_565 S
Zn145 O157 2.034 1_554 S
O146 C130 1.251 1_545 S
O146 Zn137 2.042 . S
C147 O152 1.246 . S
C147 O153 1.249 . S
O148 C130 1.254 1_554 S
O148 Zn145 2.025 . S
H149 C141 0.952 . S
H150 C132 0.952 . S
H151 C140 0.948 . S
O152 Zn137 2.019 1_554 S
O152 C147 1.246 . S
O153 Zn145 2.024 1_545 S
O153 C147 1.249 . S
H154 C136 0.948 . S
O155 Zn145 2.039 1_545 S
O155 C159 1.251 . S
O156 Zn137 2.021 1_554 S
O156 C159 1.254 . S
O157 C138 1.238 1_565 S
O157 Zn145 2.034 1_556 S
O158 Zn137 2.038 . S
O158 C138 1.260 . S
C159 O155 1.251 . S
C159 O156 1.254 . S
H160 C133 0.949 . S
H161 C135 0.950 . S
H162 C142 0.949 . S
H163 C144 0.950 . S
C164 O180 1.251 . S
C164 O182 1.254 . S
N165 C166 1.333 . S
N165 C170 1.307 . S
N165 Zn171 2.020 . S
C166 N165 1.333 . S
C166 C167 1.379 . S
C166 H184 0.952 . S
C167 C166 1.379 . S
C167 C168 1.390 . S
C167 H194 0.949 . S
C168 C167 1.390 . S
C168 C169 1.357 . S
C169 C168 1.357 . S
C169 C170 1.370 . S
C169 H195 0.950 . S
C170 N165 1.307 . S
C170 C169 1.370 . S
C170 H188 0.948 . S
Zn171 N165 2.020 . S
Zn171 O180 2.039 . S
Zn171 O186 2.034 . S
Zn171 O190 2.025 . S
Zn171 O192 2.024 . S
C172 O191 1.246 . S
C172 O192 1.249 . S
N173 C174 1.307 . S
N173 C175 1.333 . S
N173 Zn179 2.020 . S
C174 N173 1.307 . S
C174 C178 1.370 . S
C174 H185 0.948 . S
C175 N173 1.333 . S
C175 C176 1.379 . S
C175 H183 0.952 . S
C176 C175 1.379 . S
C176 C177 1.390 . S
C176 H196 0.949 . S
C177 C176 1.390 . S
C177 C178 1.357 . S
C178 C174 1.370 . S
C178 C177 1.357 . S
C178 H197 0.950 . S
Zn179 N173 2.020 . S
Zn179 O182 2.025 . S
Zn179 O187 2.024 . S
Zn179 O189 2.039 . S
Zn179 O191 2.034 . S
O180 C164 1.251 . S
O180 Zn171 2.039 . S
C181 O186 1.246 . S
C181 O187 1.249 . S
O182 C164 1.254 . S
O182 Zn179 2.025 . S
H183 C175 0.952 . S
H184 C166 0.952 . S
H185 C174 0.948 . S
O186 Zn171 2.034 . S
O186 C181 1.246 . S
O187 Zn179 2.024 . S
O187 C181 1.249 . S
H188 C170 0.948 . S
O189 Zn179 2.039 . S
O189 C193 1.251 . S
O190 Zn171 2.025 . S
O190 C193 1.254 . S
O191 C172 1.246 . S
O191 Zn179 2.034 . S
O192 Zn171 2.024 . S
O192 C172 1.249 . S
C193 O189 1.251 . S
C193 O190 1.254 . S
H194 C167 0.949 . S
H195 C169 0.950 . S
H196 C176 0.949 . S
H197 C178 0.950 . S
C198 O214 1.254 1_556 S
C198 O216 1.246 1_655 S
N199 C200 1.333 . S
N199 C204 1.307 . S
N199 Zn205 2.020 . S
C200 N199 1.333 . S
C200 C201 1.379 . S
C200 H218 0.952 . S
C201 C200 1.379 . S
C201 C202 1.390 . S
C201 H228 0.949 . S
C202 C201 1.390 . S
C202 C203 1.357 . S
C203 C202 1.357 . S
C203 C204 1.370 . S
C203 H229 0.950 . S
C204 N199 1.307 . S
C204 C203 1.370 . S
C204 H222 0.948 . S
Zn205 N199 2.020 . S
Zn205 O214 2.039 . S
Zn205 O220 2.034 1_655 S
Zn205 O224 2.025 1_655 S
Zn205 O226 2.024 . S
C206 O225 1.246 . S
C206 O226 1.249 1_556 S
N207 C208 1.307 . S
N207 C209 1.333 . S
N207 Zn213 2.020 . S
C208 N207 1.307 . S
C208 C212 1.370 . S
C208 H219 0.948 . S
C209 N207 1.333 . S
C209 C210 1.379 . S
C209 H217 0.952 . S
C210 C209 1.379 . S
C210 C211 1.390 . S
C210 H230 0.949 . S
C211 C210 1.390 . S
C211 C212 1.357 . S
C212 C208 1.370 . S
C212 C211 1.357 . S
C212 H231 0.950 . S
Zn213 N207 2.020 . S
Zn213 O216 2.025 . S
Zn213 O221 2.024 . S
Zn213 O223 2.039 . S
Zn213 O225 2.034 1_455 S
O214 C198 1.254 1_554 S
O214 Zn205 2.039 . S
C215 O220 1.246 . S
C215 O221 1.249 1_554 S
O216 C198 1.246 1_455 S
O216 Zn213 2.025 . S
H217 C209 0.952 . S
H218 C200 0.952 . S
H219 C208 0.948 . S
O220 Zn205 2.034 1_455 S
O220 C215 1.246 . S
O221 Zn213 2.024 . S
O221 C215 1.249 1_556 S
H222 C204 0.948 . S
O223 Zn213 2.039 . S
O223 C227 1.251 1_556 S
O224 Zn205 2.025 1_455 S
O224 C227 1.254 . S
O225 C206 1.246 . S
O225 Zn213 2.034 1_655 S
O226 Zn205 2.024 . S
O226 C206 1.249 1_554 S
C227 O223 1.251 1_554 S
C227 O224 1.254 . S
H228 C201 0.949 . S
H229 C203 0.950 . S
H230 C210 0.949 . S
H231 C212 0.950 . S
H232 C240 0.929 . S
H233 C242 0.930 . S
H234 C244 0.930 . S
H235 C247 0.929 . S
H236 C250 0.930 . S
H237 C252 0.960 . S
H238 C252 0.960 . S
H239 C252 0.960 . S
C240 H232 0.929 . S
C240 C241 1.377 . S
C240 C242 1.384 . S
C241 C240 1.377 . S
C241 C247 1.390 . S
C242 H233 0.930 . S
C242 C240 1.384 . S
C242 C243 1.372 . S
C243 C242 1.372 . S
C243 C244 1.400 . S
C243 C248 1.490 . S
C244 H234 0.930 . S
C244 C243 1.400 . S
C244 C247 1.386 . S
H245 C261 0.930 . S
H246 C262 0.931 . S
C247 H235 0.929 . S
C247 C241 1.390 . S
C247 C244 1.386 . S
C248 C243 1.490 . S
C248 C250 1.395 . S
C248 C251 1.403 . S
H249 C255 0.930 . S
C250 H236 0.930 . S
C250 C248 1.395 . S
C250 C253 1.403 . S
C251 C248 1.403 . S
C251 C252 1.524 . S
C251 C255 1.400 . S
C252 H237 0.960 . S
C252 H238 0.960 . S
C252 H239 0.960 . S
C252 C251 1.524 . S
C253 C250 1.403 . S
C253 C254 1.392 . S
C253 C257 1.495 . S
C254 C253 1.392 . S
C254 C255 1.385 . S
C254 C256 1.478 . S
C255 H249 0.930 . S
C255 C251 1.400 . S
C255 C254 1.385 . S
C256 C254 1.478 . S
C256 C258 1.381 . S
C256 C262 1.383 . S
C257 C253 1.495 . S
C257 H263 0.959 1_455 S
C257 H264 0.961 . S
C257 H265 0.960 1_455 S
C258 C256 1.381 . S
C258 C259 1.394 . S
C258 H266 0.930 . S
C259 C258 1.394 . S
C259 C260 1.383 . S
C259 H267 0.929 . S
C260 C259 1.383 . S
C260 C261 1.377 . S
C261 H245 0.930 . S
C261 C260 1.377 . S
C261 C262 1.379 . S
C262 H246 0.931 . S
C262 C256 1.383 . S
C262 C261 1.379 . S
H263 C257 0.959 1_655 S
H264 C257 0.961 . S
H265 C257 0.960 1_655 S
H266 C258 0.930 . S
H267 C259 0.929 . S
H268 C276 0.929 . S
H269 C278 0.930 . S
H270 C280 0.930 . S
H271 C283 0.929 . S
H272 C286 0.930 . S
H273 C288 0.960 . S
H274 C288 0.960 . S
H275 C288 0.960 . S
C276 H268 0.929 . S
C276 C277 1.377 . S
C276 C278 1.384 . S
C277 C276 1.377 . S
C277 C283 1.390 . S
C278 H269 0.930 . S
C278 C276 1.384 . S
C278 C279 1.372 . S
C279 C278 1.372 . S
C279 C280 1.400 . S
C279 C284 1.490 . S
C280 H270 0.930 . S
C280 C279 1.400 . S
C280 C283 1.386 . S
H281 C297 0.930 . S
H282 C298 0.931 . S
C283 H271 0.929 . S
C283 C277 1.390 . S
C283 C280 1.386 . S
C284 C279 1.490 . S
C284 C286 1.395 . S
C284 C287 1.403 . S
H285 C291 0.930 . S
C286 H272 0.930 . S
C286 C284 1.395 . S
C286 C289 1.403 . S
C287 C284 1.403 . S
C287 C288 1.524 . S
C287 C291 1.400 . S
C288 H273 0.960 . S
C288 H274 0.960 . S
C288 H275 0.960 . S
C288 C287 1.524 . S
C289 C286 1.403 . S
C289 C290 1.392 . S
C289 C293 1.495 . S
C290 C289 1.392 . S
C290 C291 1.385 . S
C290 C292 1.478 . S
C291 H285 0.930 . S
C291 C287 1.400 . S
C291 C290 1.385 . S
C292 C290 1.478 . S
C292 C294 1.381 . S
C292 C298 1.383 . S
C293 C289 1.495 . S
C293 H299 0.959 . S
C293 H300 0.961 . S
C293 H301 0.960 1_565 S
C294 C292 1.381 . S
C294 C295 1.394 1_565 S
C294 H302 0.930 1_565 S
C295 C294 1.394 1_545 S
C295 C296 1.383 1_545 S
C295 H303 0.929 . S
C296 C295 1.383 1_565 S
C296 C297 1.377 . S
C297 H281 0.930 . S
C297 C296 1.377 . S
C297 C298 1.379 . S
C298 H282 0.931 . S
C298 C292 1.383 . S
C298 C297 1.379 . S
H299 C293 0.959 . S
H300 C293 0.961 . S
H301 C293 0.960 1_545 S
H302 C294 0.930 1_545 S
H303 C295 0.929 . S
H304 C312 0.929 . S
H305 C314 0.930 . S
H306 C316 0.930 . S
H307 C319 0.929 . S
H308 C322 0.930 . S
H309 C324 0.960 . S
H310 C324 0.960 . S
H311 C324 0.960 . S
C312 H304 0.929 . S
C312 C313 1.377 . S
C312 C314 1.384 . S
C313 C312 1.377 . S
C313 C319 1.390 . S
C314 H305 0.930 . S
C314 C312 1.384 . S
C314 C315 1.372 . S
C315 C314 1.372 . S
C315 C316 1.400 . S
C315 C320 1.490 . S
C316 H306 0.930 . S
C316 C315 1.400 . S
C316 C319 1.386 . S
H317 C333 0.930 . S
H318 C334 0.931 . S
C319 H307 0.929 . S
C319 C313 1.390 . S
C319 C316 1.386 . S
C320 C315 1.490 . S
C320 C322 1.395 . S
C320 C323 1.403 . S
H321 C327 0.930 . S
C322 H308 0.930 . S
C322 C320 1.395 . S
C322 C325 1.403 . S
C323 C320 1.403 . S
C323 C324 1.524 . S
C323 C327 1.400 . S
C324 H309 0.960 . S
C324 H310 0.960 . S
C324 H311 0.960 . S
C324 C323 1.524 . S
C325 C322 1.403 . S
C325 C326 1.392 . S
C325 C329 1.495 . S
C326 C325 1.392 . S
C326 C327 1.385 . S
C326 C328 1.478 . S
C327 H321 0.930 . S
C327 C323 1.400 . S
C327 C326 1.385 . S
C328 C326 1.478 . S
C328 C330 1.381 . S
C328 C334 1.383 . S
C329 C325 1.495 . S
C329 H335 0.959 . S
C329 H336 0.961 . S
C329 H337 0.960 . S
C330 C328 1.381 . S
C330 C331 1.394 . S
C330 H338 0.930 . S
C331 C330 1.394 . S
C331 C332 1.383 . S
C331 H339 0.929 . S
C332 C331 1.383 . S
C332 C333 1.377 . S
C333 H317 0.930 . S
C333 C332 1.377 . S
C333 C334 1.379 . S
C334 H318 0.931 . S
C334 C328 1.383 . S
C334 C333 1.379 . S
H335 C329 0.959 . S
H336 C329 0.961 . S
H337 C329 0.960 . S
H338 C330 0.930 . S
H339 C331 0.929 . S
H340 C348 0.929 . S
H341 C350 0.930 . S
H342 C352 0.930 . S
H343 C355 0.929 . S
H344 C358 0.930 . S
H345 C360 0.960 . S
H346 C360 0.960 . S
H347 C360 0.960 . S
C348 H340 0.929 . S
C348 C349 1.377 . S
C348 C350 1.384 . S
C349 C348 1.377 . S
C349 C355 1.390 . S
C350 H341 0.930 . S
C350 C348 1.384 . S
C350 C351 1.372 . S
C351 C350 1.372 . S
C351 C352 1.400 . S
C351 C356 1.490 . S
C352 H342 0.930 . S
C352 C351 1.400 . S
C352 C355 1.386 . S
H353 C369 0.930 . S
H354 C370 0.931 . S
C355 H343 0.929 . S
C355 C349 1.390 . S
C355 C352 1.386 . S
C356 C351 1.490 . S
C356 C358 1.395 . S
C356 C359 1.403 . S
H357 C363 0.930 . S
C358 H344 0.930 . S
C358 C356 1.395 . S
C358 C361 1.403 . S
C359 C356 1.403 . S
C359 C360 1.524 . S
C359 C363 1.400 . S
C360 H345 0.960 . S
C360 H346 0.960 . S
C360 H347 0.960 . S
C360 C359 1.524 . S
C361 C358 1.403 . S
C361 C362 1.392 . S
C361 C365 1.495 . S
C362 C361 1.392 . S
C362 C363 1.385 . S
C362 C364 1.478 . S
C363 H357 0.930 . S
C363 C359 1.400 . S
C363 C362 1.385 . S
C364 C362 1.478 . S
C364 C366 1.381 . S
C364 C370 1.383 . S
C365 C361 1.495 . S
C365 H371 0.959 . S
C365 H372 0.961 . S
C365 H373 0.960 . S
C366 C364 1.381 . S
C366 C367 1.394 . S
C366 H374 0.930 . S
C367 C366 1.394 . S
C367 C368 1.383 . S
C367 H375 0.929 . S
C368 C367 1.383 . S
C368 C369 1.377 . S
C369 H353 0.930 . S
C369 C368 1.377 . S
C369 C370 1.379 . S
C370 H354 0.931 . S
C370 C364 1.383 . S
C370 C369 1.379 . S
H371 C365 0.959 . S
H372 C365 0.961 . S
H373 C365 0.960 . S
H374 C366 0.930 . S
H375 C367 0.929 . S
H376 C384 0.929 . S
H377 C386 0.930 . S
H378 C388 0.930 . S
H379 C391 0.929 . S
H380 C394 0.930 . S
H381 C396 0.960 . S
H382 C396 0.960 . S
H383 C396 0.960 . S
C384 H376 0.929 . S
C384 C385 1.377 . S
C384 C386 1.384 . S
C385 C384 1.377 . S
C385 C391 1.390 . S
C386 H377 0.930 . S
C386 C384 1.384 . S
C386 C387 1.372 . S
C387 C386 1.372 . S
C387 C388 1.400 . S
C387 C392 1.490 . S
C388 H378 0.930 . S
C388 C387 1.400 . S
C388 C391 1.386 . S
H389 C405 0.930 . S
H390 C406 0.931 . S
C391 H379 0.929 . S
C391 C385 1.390 . S
C391 C388 1.386 . S
C392 C387 1.490 . S
C392 C394 1.395 . S
C392 C395 1.403 . S
H393 C399 0.930 . S
C394 H380 0.930 . S
C394 C392 1.395 . S
C394 C397 1.403 . S
C395 C392 1.403 . S
C395 C396 1.524 . S
C395 C399 1.400 . S
C396 H381 0.960 . S
C396 H382 0.960 . S
C396 H383 0.960 . S
C396 C395 1.524 . S
C397 C394 1.403 . S
C397 C398 1.392 . S
C397 C401 1.495 . S
C398 C397 1.392 . S
C398 C399 1.385 . S
C398 C400 1.478 . S
C399 H393 0.930 . S
C399 C395 1.400 . S
C399 C398 1.385 . S
C400 C398 1.478 . S
C400 C402 1.381 . S
C400 C406 1.383 . S
C401 C397 1.495 . S
C401 H407 0.959 . S
C401 H408 0.961 . S
C401 H409 0.960 . S
C402 C400 1.381 . S
C402 C403 1.394 . S
C402 H410 0.930 . S
C403 C402 1.394 . S
C403 C404 1.383 . S
C403 H411 0.929 . S
C404 C403 1.383 . S
C404 C405 1.377 . S
C405 H389 0.930 . S
C405 C404 1.377 . S
C405 C406 1.379 . S
C406 H390 0.931 . S
C406 C400 1.383 . S
C406 C405 1.379 . S
H407 C401 0.959 . S
H408 C401 0.961 . S
H409 C401 0.960 . S
H410 C402 0.930 . S
H411 C403 0.929 . S
H412 C420 0.929 . S
H413 C422 0.930 . S
H414 C424 0.930 . S
H415 C427 0.929 . S
H416 C430 0.930 . S
H417 C432 0.960 . S
H418 C432 0.960 . S
H419 C432 0.960 . S
C420 H412 0.929 . S
C420 C421 1.377 . S
C420 C422 1.384 . S
C421 C420 1.377 . S
C421 C427 1.390 . S
C422 H413 0.930 . S
C422 C420 1.384 . S
C422 C423 1.372 . S
C423 C422 1.372 . S
C423 C424 1.400 . S
C423 C428 1.490 . S
C424 H414 0.930 . S
C424 C423 1.400 . S
C424 C427 1.386 . S
H425 C441 0.930 1_545 S
H426 C442 0.931 1_545 S
C427 H415 0.929 . S
C427 C421 1.390 . S
C427 C424 1.386 . S
C428 C423 1.490 . S
C428 C430 1.395 . S
C428 C431 1.403 . S
H429 C435 0.930 . S
C430 H416 0.930 . S
C430 C428 1.395 . S
C430 C433 1.403 . S
C431 C428 1.403 . S
C431 C432 1.524 . S
C431 C435 1.400 . S
C432 H417 0.960 . S
C432 H418 0.960 . S
C432 H419 0.960 . S
C432 C431 1.524 . S
C433 C430 1.403 . S
C433 C434 1.392 . S
C433 C437 1.495 . S
C434 C433 1.392 . S
C434 C435 1.385 . S
C434 C436 1.478 . S
C435 H429 0.930 . S
C435 C431 1.400 . S
C435 C434 1.385 . S
C436 C434 1.478 . S
C436 C438 1.381 . S
C436 C442 1.383 . S
C437 C433 1.495 . S
C437 H443 0.959 . S
C437 H444 0.961 . S
C437 H445 0.960 . S
C438 C436 1.381 . S
C438 C439 1.394 . S
C438 H446 0.930 . S
C439 C438 1.394 . S
C439 C440 1.383 . S
C439 H447 0.929 . S
C440 C439 1.383 . S
C440 C441 1.377 . S
C441 H425 0.930 1_565 S
C441 C440 1.377 . S
C441 C442 1.379 . S
C442 H426 0.931 1_565 S
C442 C436 1.383 . S
C442 C441 1.379 . S
H443 C437 0.959 . S
H444 C437 0.961 . S
H445 C437 0.960 . S
H446 C438 0.930 . S
H447 C439 0.929 . S
H448 C456 0.929 . S
H449 C458 0.930 . S
H450 C460 0.930 . S
H451 C463 0.929 . S
H452 C466 0.930 . S
H453 C468 0.960 . S
H454 C468 0.960 . S
H455 C468 0.960 . S
C456 H448 0.929 . S
C456 C457 1.377 . S
C456 C458 1.384 . S
C457 C456 1.377 . S
C457 C463 1.390 . S
C458 H449 0.930 . S
C458 C456 1.384 . S
C458 C459 1.372 . S
C459 C458 1.372 . S
C459 C460 1.400 . S
C459 C464 1.490 . S
C460 H450 0.930 . S
C460 C459 1.400 . S
C460 C463 1.386 . S
H461 C477 0.930 . S
H462 C478 0.931 . S
C463 H451 0.929 . S
C463 C457 1.390 . S
C463 C460 1.386 . S
C464 C459 1.490 . S
C464 C466 1.395 . S
C464 C467 1.403 . S
H465 C471 0.930 . S
C466 H452 0.930 . S
C466 C464 1.395 . S
C466 C469 1.403 . S
C467 C464 1.403 . S
C467 C468 1.524 . S
C467 C471 1.400 . S
C468 H453 0.960 . S
C468 H454 0.960 . S
C468 H455 0.960 . S
C468 C467 1.524 . S
C469 C466 1.403 . S
C469 C470 1.392 . S
C469 C473 1.476 1_556 S
C470 C469 1.392 . S
C470 C471 1.385 . S
C470 C472 1.478 . S
C471 H465 0.930 . S
C471 C467 1.400 . S
C471 C470 1.385 . S
C472 C470 1.478 . S
C472 C474 1.381 . S
C472 C478 1.383 . S
C473 C469 1.476 1_554 S
C473 H479 0.967 . S
C473 H480 0.955 1_554 S
C473 H481 0.979 . S
C474 C472 1.381 . S
C474 C475 1.394 1_556 S
C474 H482 0.930 1_556 S
C475 C474 1.394 1_554 S
C475 C476 1.383 1_554 S
C475 H483 0.929 . S
C476 C475 1.383 1_556 S
C476 C477 1.377 . S
C477 H461 0.930 . S
C477 C476 1.377 . S
C477 C478 1.379 . S
C478 H462 0.931 . S
C478 C472 1.383 . S
C478 C477 1.379 . S
H479 C473 0.967 . S
H480 C473 0.955 1_556 S
H481 C473 0.979 . S
H482 C474 0.930 1_554 S
H483 C475 0.929 . S
H484 C492 0.929 . S
H485 C494 0.930 . S
H486 C496 0.930 . S
H487 C499 0.929 . S
H488 C502 0.930 . S
H489 C504 0.960 . S
H490 C504 0.960 . S
H491 C504 0.960 . S
C492 H484 0.929 . S
C492 C493 1.377 . S
C492 C494 1.384 . S
C493 C492 1.377 . S
C493 C499 1.390 . S
C494 H485 0.930 . S
C494 C492 1.384 . S
C494 C495 1.372 . S
C495 C494 1.372 . S
C495 C496 1.400 . S
C495 C500 1.490 . S
C496 H486 0.930 . S
C496 C495 1.400 . S
C496 C499 1.386 . S
H497 C513 0.930 . S
H498 C514 0.931 . S
C499 H487 0.929 . S
C499 C493 1.390 . S
C499 C496 1.386 . S
C500 C495 1.490 . S
C500 C502 1.395 . S
C500 C503 1.403 . S
H501 C507 0.930 . S
C502 H488 0.930 . S
C502 C500 1.395 . S
C502 C505 1.403 . S
C503 C500 1.403 . S
C503 C504 1.524 . S
C503 C507 1.400 . S
C504 H489 0.960 . S
C504 H490 0.960 . S
C504 H491 0.960 . S
C504 C503 1.524 . S
C505 C502 1.403 . S
C505 C506 1.392 . S
C505 C509 1.495 . S
C506 C505 1.392 . S
C506 C507 1.385 . S
C506 C508 1.478 . S
C507 H501 0.930 . S
C507 C503 1.400 . S
C507 C506 1.385 . S
C508 C506 1.478 . S
C508 C510 1.381 . S
C508 C514 1.383 . S
C509 C505 1.495 . S
C509 H515 0.959 . S
C509 H516 0.961 . S
C509 H517 0.960 . S
C510 C508 1.381 . S
C510 C511 1.394 . S
C510 H518 0.930 . S
C511 C510 1.394 . S
C511 C512 1.383 . S
C511 H519 0.929 . S
C512 C511 1.383 . S
C512 C513 1.377 . S
C513 H497 0.930 . S
C513 C512 1.377 . S
C513 C514 1.379 . S
C514 H498 0.931 . S
C514 C508 1.383 . S
C514 C513 1.379 . S
H515 C509 0.959 . S
H516 C509 0.961 . S
H517 C509 0.960 . S
H518 C510 0.930 . S
H519 C511 0.929 . S
H520 C528 0.929 . S
H521 C530 0.930 . S
H522 C532 0.930 . S
H523 C535 0.929 . S
H524 C538 0.930 . S
H525 C540 0.960 . S
H526 C540 0.960 . S
H527 C540 0.960 . S
C528 H520 0.929 . S
C528 C529 1.377 . S
C528 C530 1.384 . S
C529 C528 1.377 . S
C529 C535 1.390 . S
C530 H521 0.930 . S
C530 C528 1.384 . S
C530 C531 1.372 . S
C531 C530 1.372 . S
C531 C532 1.400 . S
C531 C536 1.490 . S
C532 H522 0.930 . S
C532 C531 1.400 . S
C532 C535 1.386 . S
H533 C549 0.894 1_556 S
H534 C550 0.931 . S
C535 H523 0.929 . S
C535 C529 1.390 . S
C535 C532 1.386 . S
C536 C531 1.490 . S
C536 C538 1.395 . S
C536 C539 1.403 . S
H537 C543 0.930 . S
C538 H524 0.930 . S
C538 C536 1.395 . S
C538 C541 1.403 . S
C539 C536 1.403 . S
C539 C540 1.524 . S
C539 C543 1.400 . S
C540 H525 0.960 . S
C540 H526 0.960 . S
C540 H527 0.960 . S
C540 C539 1.524 . S
C541 C538 1.403 . S
C541 C542 1.392 . S
C541 C545 1.495 . S
C542 C541 1.392 . S
C542 C543 1.385 . S
C542 C544 1.478 . S
C543 H537 0.930 . S
C543 C539 1.400 . S
C543 C542 1.385 . S
C544 C542 1.478 . S
C544 C546 1.381 . S
C544 C550 1.383 . S
C545 C541 1.495 . S
C545 H551 0.959 . S
C545 H552 0.961 . S
C545 H553 0.960 . S
C546 C544 1.381 . S
C546 C547 1.394 . S
C546 H554 0.930 . S
C547 C546 1.394 . S
C547 C548 1.383 . S
C547 H555 0.929 . S
C548 C547 1.383 . S
C548 C549 1.377 . S
C549 H533 0.894 1_554 S
C549 C548 1.377 . S
C549 C550 1.379 . S
C550 H534 0.931 . S
C550 C544 1.383 . S
C550 C549 1.379 . S
H551 C545 0.959 . S
H552 C545 0.961 . S
H553 C545 0.960 . S
H554 C546 0.930 . S
H555 C547 0.929 . S
H556 C564 0.929 . S
H557 C566 0.930 . S
H558 C568 0.930 . S
H559 C571 0.929 . S
H560 C574 0.930 . S
H561 C576 0.960 . S
H562 C576 0.960 . S
H563 C576 0.960 . S
C564 H556 0.929 . S
C564 C565 1.377 . S
C564 C566 1.384 . S
C565 C564 1.377 . S
C565 C571 1.390 . S
C566 H557 0.930 . S
C566 C564 1.384 . S
C566 C567 1.372 . S
C567 C566 1.372 . S
C567 C568 1.400 . S
C567 C572 1.490 . S
C568 H558 0.930 . S
C568 C567 1.400 . S
C568 C571 1.386 . S
H569 C585 0.930 1_554 S
H570 C586 0.931 . S
C571 H559 0.929 . S
C571 C565 1.390 . S
C571 C568 1.386 . S
C572 C567 1.490 . S
C572 C574 1.395 . S
C572 C575 1.403 . S
H573 C579 0.930 . S
C574 H560 0.930 . S
C574 C572 1.395 . S
C574 C577 1.403 . S
C575 C572 1.403 . S
C575 C576 1.524 . S
C575 C579 1.400 . S
C576 H561 0.960 . S
C576 H562 0.960 . S
C576 H563 0.960 . S
C576 C575 1.524 . S
C577 C574 1.403 . S
C577 C578 1.392 . S
C577 C581 1.495 . S
C578 C577 1.392 . S
C578 C579 1.385 . S
C578 C580 1.478 . S
C579 H573 0.930 . S
C579 C575 1.400 . S
C579 C578 1.385 . S
C580 C578 1.478 . S
C580 C582 1.381 . S
C580 C586 1.383 . S
C581 C577 1.495 . S
C581 H587 0.959 . S
C581 H588 0.961 . S
C581 H589 0.960 . S
C582 C580 1.381 . S
C582 C583 1.394 . S
C582 H590 0.930 . S
C583 C582 1.394 . S
C583 C584 1.383 . S
C583 H591 0.929 . S
C584 C583 1.383 . S
C584 C585 1.377 . S
C585 H569 0.930 1_556 S
C585 C584 1.377 . S
C585 C586 1.379 . S
C586 H570 0.931 . S
C586 C580 1.383 . S
C586 C585 1.379 . S
H587 C581 0.959 . S
H588 C581 0.961 . S
H589 C581 0.960 . S
H590 C582 0.930 . S
H591 C583 0.929 . S
H592 C600 0.929 . S
H593 C602 0.930 . S
H594 C604 0.930 . S
H595 C607 0.929 . S
H596 C610 0.930 . S
H597 C612 0.960 . S
H598 C612 0.960 . S
H599 C612 0.960 . S
C600 H592 0.929 . S
C600 C601 1.377 . S
C600 C602 1.384 . S
C601 C600 1.377 . S
C601 C607 1.390 . S
C602 H593 0.930 . S
C602 C600 1.384 . S
C602 C603 1.372 . S
C603 C602 1.372 . S
C603 C604 1.400 . S
C603 C608 1.490 . S
C604 H594 0.930 . S
C604 C603 1.400 . S
C604 C607 1.386 . S
H605 C621 0.930 . S
H606 C622 0.931 . S
C607 H595 0.929 . S
C607 C601 1.390 . S
C607 C604 1.386 . S
C608 C603 1.490 . S
C608 C610 1.395 . S
C608 C611 1.403 . S
H609 C615 0.930 . S
C610 H596 0.930 . S
C610 C608 1.395 . S
C610 C613 1.403 . S
C611 C608 1.403 . S
C611 C612 1.524 . S
C611 C615 1.400 . S
C612 H597 0.960 . S
C612 H598 0.960 . S
C612 H599 0.960 . S
C612 C611 1.524 . S
C613 C610 1.403 . S
C613 C614 1.392 . S
C613 C617 1.495 . S
C614 C613 1.392 . S
C614 C615 1.385 . S
C614 C616 1.478 . S
C615 H609 0.930 . S
C615 C611 1.400 . S
C615 C614 1.385 . S
C616 C614 1.478 . S
C616 C618 1.381 . S
C616 C622 1.383 . S
C617 C613 1.495 . S
C617 H623 0.959 . S
C617 H624 0.961 . S
C617 H625 0.960 . S
C618 C616 1.381 . S
C618 C619 1.394 . S
C618 H626 0.930 . S
C619 C618 1.394 . S
C619 C620 1.383 . S
C619 H627 0.929 . S
C620 C619 1.383 . S
C620 C621 1.377 . S
C621 H605 0.930 . S
C621 C620 1.377 . S
C621 C622 1.379 . S
C622 H606 0.931 . S
C622 C616 1.383 . S
C622 C621 1.379 . S
H623 C617 0.959 . S
H624 C617 0.961 . S
H625 C617 0.960 . S
H626 C618 0.930 . S
H627 C619 0.929 . S
H628 C636 0.929 . S
H629 C638 0.930 . S
H630 C640 0.930 . S
H631 C643 0.929 . S
H632 C646 0.930 . S
H633 C648 0.960 . S
H634 C648 0.960 . S
H635 C648 0.960 . S
C636 H628 0.929 . S
C636 C637 1.377 . S
C636 C638 1.384 . S
C637 C636 1.377 . S
C637 C643 1.390 . S
C638 H629 0.930 . S
C638 C636 1.384 . S
C638 C639 1.372 . S
C639 C638 1.372 . S
C639 C640 1.400 . S
C639 C644 1.490 . S
C640 H630 0.930 . S
C640 C639 1.400 . S
C640 C643 1.386 . S
H641 C657 0.930 . S
H642 C658 0.931 . S
C643 H631 0.929 . S
C643 C637 1.390 . S
C643 C640 1.386 . S
C644 C639 1.490 . S
C644 C646 1.395 . S
C644 C647 1.403 . S
H645 C651 0.930 . S
C646 H632 0.930 . S
C646 C644 1.395 . S
C646 C649 1.403 . S
C647 C644 1.403 . S
C647 C648 1.524 . S
C647 C651 1.400 . S
C648 H633 0.960 . S
C648 H634 0.960 . S
C648 H635 0.960 . S
C648 C647 1.524 . S
C649 C646 1.403 . S
C649 C650 1.392 . S
C649 C653 1.495 . S
C650 C649 1.392 . S
C650 C651 1.385 . S
C650 C652 1.478 . S
C651 H645 0.930 . S
C651 C647 1.400 . S
C651 C650 1.385 . S
C652 C650 1.478 . S
C652 C654 1.381 . S
C652 C658 1.383 . S
C653 C649 1.495 . S
C653 H659 0.959 . S
C653 H660 0.961 . S
C653 H661 0.960 . S
C654 C652 1.381 . S
C654 C655 1.394 . S
C654 H662 0.930 . S
C655 C654 1.394 . S
C655 C656 1.383 . S
C655 H663 0.929 . S
C656 C655 1.383 . S
C656 C657 1.377 . S
C657 H641 0.930 . S
C657 C656 1.377 . S
C657 C658 1.379 . S
C658 H642 0.931 . S
C658 C652 1.383 . S
C658 C657 1.379 . S
H659 C653 0.959 . S
H660 C653 0.961 . S
H661 C653 0.960 . S
H662 C654 0.930 . S
H663 C655 0.929 . S
H664 C672 0.929 . S
H665 C674 0.930 . S
H666 C676 0.930 . S
H667 C679 0.929 . S
H668 C682 0.930 . S
H669 C684 0.960 . S
H670 C684 0.960 . S
H671 C684 0.960 . S
C672 H664 0.929 . S
C672 C673 1.377 . S
C672 C674 1.384 . S
C673 C672 1.377 . S
C673 C679 1.390 . S
C674 H665 0.930 . S
C674 C672 1.384 . S
C674 C675 1.372 . S
C675 C674 1.372 . S
C675 C676 1.400 . S
C675 C680 1.490 . S
C676 H666 0.930 . S
C676 C675 1.400 . S
C676 C679 1.386 . S
H677 C693 0.930 . S
H678 C694 0.931 . S
C679 H667 0.929 . S
C679 C673 1.390 . S
C679 C676 1.386 . S
C680 C675 1.490 . S
C680 C682 1.395 . S
C680 C683 1.403 . S
H681 C687 0.930 . S
C682 H668 0.930 . S
C682 C680 1.395 . S
C682 C685 1.403 . S
C683 C680 1.403 . S
C683 C684 1.524 . S
C683 C687 1.400 . S
C684 H669 0.960 . S
C684 H670 0.960 . S
C684 H671 0.960 . S
C684 C683 1.524 . S
C685 C682 1.403 . S
C685 C686 1.392 . S
C685 C689 1.495 . S
C686 C685 1.392 . S
C686 C687 1.385 . S
C686 C688 1.478 . S
C687 H681 0.930 . S
C687 C683 1.400 . S
C687 C686 1.385 . S
C688 C686 1.478 . S
C688 C690 1.381 . S
C688 C694 1.383 . S
C689 C685 1.495 . S
C689 H695 0.959 1_655 S
C689 H696 0.961 . S
C689 H697 0.960 1_655 S
C690 C688 1.381 . S
C690 C691 1.394 . S
C690 H698 0.930 . S
C691 C690 1.394 . S
C691 C692 1.383 . S
C691 H699 0.929 1_665 S
C692 C691 1.383 . S
C692 C693 1.377 . S
C693 H677 0.930 . S
C693 C692 1.377 . S
C693 C694 1.379 . S
C694 H678 0.931 . S
C694 C688 1.383 . S
C694 C693 1.379 . S
H695 C689 0.959 1_455 S
H696 C689 0.961 . S
H697 C689 0.960 1_455 S
H698 C690 0.930 . S
H699 C691 0.929 1_445 S
H700 C708 0.929 . S
H701 C710 0.930 . S
H702 C712 0.930 . S
H703 C715 0.929 . S
H704 C718 0.930 . S
H705 C720 0.960 . S
H706 C720 0.960 . S
H707 C720 0.960 . S
C708 H700 0.929 . S
C708 C709 1.377 . S
C708 C710 1.384 . S
C709 C708 1.377 . S
C709 C715 1.390 . S
C710 H701 0.930 . S
C710 C708 1.384 . S
C710 C711 1.372 . S
C711 C710 1.372 . S
C711 C712 1.400 . S
C711 C716 1.490 . S
C712 H702 0.930 . S
C712 C711 1.400 . S
C712 C715 1.386 . S
H713 C729 0.930 . S
H714 C730 0.931 . S
C715 H703 0.929 . S
C715 C709 1.390 . S
C715 C712 1.386 . S
C716 C711 1.490 . S
C716 C718 1.395 . S
C716 C719 1.403 . S
H717 C723 0.930 . S
C718 H704 0.930 . S
C718 C716 1.395 . S
C718 C721 1.403 . S
C719 C716 1.403 . S
C719 C720 1.524 . S
C719 C723 1.400 . S
C720 H705 0.960 . S
C720 H706 0.960 . S
C720 H707 0.960 . S
C720 C719 1.524 . S
C721 C718 1.403 . S
C721 C722 1.392 . S
C721 C725 1.495 . S
C722 C721 1.392 . S
C722 C723 1.385 . S
C722 C724 1.478 . S
C723 H717 0.930 . S
C723 C719 1.400 . S
C723 C722 1.385 . S
C724 C722 1.478 . S
C724 C726 1.381 . S
C724 C730 1.383 . S
C725 C721 1.495 . S
C725 H731 0.959 . S
C725 H732 0.961 . S
C725 H733 0.960 . S
C726 C724 1.381 . S
C726 C727 1.394 . S
C726 H734 0.930 . S
C727 C726 1.394 . S
C727 C728 1.383 . S
C727 H735 0.929 . S
C728 C727 1.383 . S
C728 C729 1.377 . S
C729 H713 0.930 . S
C729 C728 1.377 . S
C729 C730 1.379 . S
C730 H714 0.931 . S
C730 C724 1.383 . S
C730 C729 1.379 . S
H731 C725 0.959 . S
H732 C725 0.961 . S
H733 C725 0.960 . S
H734 C726 0.930 . S
H735 C727 0.929 . S
H736 C744 0.929 . S
H737 C746 0.930 . S
H738 C748 0.930 . S
H739 C751 0.929 . S
H740 C754 0.930 . S
H741 C756 0.960 . S
H742 C756 0.960 . S
H743 C756 0.960 . S
C744 H736 0.929 . S
C744 C745 1.377 . S
C744 C746 1.384 . S
C745 C744 1.377 . S
C745 C751 1.390 . S
C746 H737 0.930 . S
C746 C744 1.384 . S
C746 C747 1.372 . S
C747 C746 1.372 . S
C747 C748 1.400 . S
C747 C752 1.490 . S
C748 H738 0.930 . S
C748 C747 1.400 . S
C748 C751 1.386 . S
H749 C765 0.930 . S
H750 C766 0.931 . S
C751 H739 0.929 . S
C751 C745 1.390 . S
C751 C748 1.386 . S
C752 C747 1.490 . S
C752 C754 1.395 . S
C752 C755 1.403 . S
H753 C759 0.930 . S
C754 H740 0.930 . S
C754 C752 1.395 . S
C754 C757 1.403 . S
C755 C752 1.403 . S
C755 C756 1.524 . S
C755 C759 1.400 . S
C756 H741 0.960 . S
C756 H742 0.960 . S
C756 H743 0.960 . S
C756 C755 1.524 . S
C757 C754 1.403 . S
C757 C758 1.392 . S
C757 C761 1.495 . S
C758 C757 1.392 . S
C758 C759 1.385 . S
C758 C760 1.478 . S
C759 H753 0.930 . S
C759 C755 1.400 . S
C759 C758 1.385 . S
C760 C758 1.478 . S
C760 C762 1.381 . S
C760 C766 1.383 . S
C761 C757 1.495 . S
C761 H767 0.959 . S
C761 H768 0.961 . S
C761 H769 0.960 . S
C762 C760 1.381 . S
C762 C763 1.394 . S
C762 H770 0.930 . S
C763 C762 1.394 . S
C763 C764 1.383 . S
C763 H771 0.929 . S
C764 C763 1.383 . S
C764 C765 1.377 . S
C765 H749 0.930 . S
C765 C764 1.377 . S
C765 C766 1.379 . S
C766 H750 0.931 . S
C766 C760 1.383 . S
C766 C765 1.379 . S
H767 C761 0.959 . S
H768 C761 0.961 . S
H769 C761 0.960 . S
H770 C762 0.930 . S
H771 C763 0.929 . S
H772 C780 0.929 . S
H773 C782 0.930 . S
H774 C784 0.930 . S
H775 C787 0.929 . S
H776 C790 0.930 . S
H777 C792 0.960 . S
H778 C792 0.960 . S
H779 C792 0.960 . S
C780 H772 0.929 . S
C780 C781 1.377 . S
C780 C782 1.384 . S
C781 C780 1.377 . S
C781 C787 1.390 . S
C782 H773 0.930 . S
C782 C780 1.384 . S
C782 C783 1.372 . S
C783 C782 1.372 . S
C783 C784 1.400 . S
C783 C788 1.490 . S
C784 H774 0.930 . S
C784 C783 1.400 . S
C784 C787 1.386 . S
H785 C801 0.930 . S
H786 C802 0.931 . S
C787 H775 0.929 . S
C787 C781 1.390 . S
C787 C784 1.386 . S
C788 C783 1.490 . S
C788 C790 1.395 . S
C788 C791 1.403 . S
H789 C795 0.930 . S
C790 H776 0.930 . S
C790 C788 1.395 . S
C790 C793 1.403 . S
C791 C788 1.403 . S
C791 C792 1.524 . S
C791 C795 1.400 . S
C792 H777 0.960 . S
C792 H778 0.960 . S
C792 H779 0.960 . S
C792 C791 1.524 . S
C793 C790 1.403 . S
C793 C794 1.392 . S
C793 C797 1.495 . S
C794 C793 1.392 . S
C794 C795 1.385 . S
C794 C796 1.478 . S
C795 H789 0.930 . S
C795 C791 1.400 . S
C795 C794 1.385 . S
C796 C794 1.478 . S
C796 C798 1.381 . S
C796 C802 1.383 . S
C797 C793 1.495 . S
C797 H803 0.959 . S
C797 H804 0.961 . S
C797 H805 0.960 . S
C798 C796 1.381 . S
C798 C799 1.394 . S
C798 H806 0.930 . S
C799 C798 1.394 . S
C799 C800 1.383 . S
C799 H807 0.929 . S
C800 C799 1.383 . S
C800 C801 1.377 . S
C801 H785 0.930 . S
C801 C800 1.377 . S
C801 C802 1.379 . S
C802 H786 0.931 . S
C802 C796 1.383 . S
C802 C801 1.379 . S
H803 C797 0.959 . S
H804 C797 0.961 . S
H805 C797 0.960 . S
H806 C798 0.930 . S
H807 C799 0.929 . S
H808 C816 0.929 . S
H809 C818 0.930 . S
H810 C820 0.930 . S
H811 C823 0.929 . S
H812 C826 0.930 . S
H813 C828 0.960 . S
H814 C828 0.960 . S
H815 C828 0.960 . S
C816 H808 0.929 . S
C816 C817 1.377 . S
C816 C818 1.384 . S
C817 C816 1.377 . S
C817 C823 1.390 . S
C818 H809 0.930 . S
C818 C816 1.384 . S
C818 C819 1.372 . S
C819 C818 1.372 . S
C819 C820 1.400 . S
C819 C824 1.490 . S
C820 H810 0.930 . S
C820 C819 1.400 . S
C820 C823 1.386 . S
H821 C837 0.930 1_554 S
H822 C838 0.931 . S
C823 H811 0.929 . S
C823 C817 1.390 . S
C823 C820 1.386 . S
C824 C819 1.490 . S
C824 C826 1.395 . S
C824 C827 1.403 . S
H825 C831 0.930 . S
C826 H812 0.930 . S
C826 C824 1.395 . S
C826 C829 1.403 . S
C827 C824 1.403 . S
C827 C828 1.524 . S
C827 C831 1.400 . S
C828 H813 0.960 . S
C828 H814 0.960 . S
C828 H815 0.960 . S
C828 C827 1.524 . S
C829 C826 1.403 . S
C829 C830 1.392 . S
C829 C833 1.495 . S
C830 C829 1.392 . S
C830 C831 1.385 . S
C830 C832 1.478 . S
C831 H825 0.930 . S
C831 C827 1.400 . S
C831 C830 1.385 . S
C832 C830 1.478 . S
C832 C834 1.381 . S
C832 C838 1.383 . S
C833 C829 1.495 . S
C833 H839 0.959 . S
C833 H840 0.961 . S
C833 H841 0.960 . S
C834 C832 1.381 . S
C834 C835 1.394 . S
C834 H842 0.930 . S
C835 C834 1.394 . S
C835 C836 1.383 . S
C835 H843 0.929 1_565 S
C836 C835 1.383 . S
C836 C837 1.377 . S
C837 H821 0.930 1_556 S
C837 C836 1.377 . S
C837 C838 1.379 . S
C838 H822 0.931 . S
C838 C832 1.383 . S
C838 C837 1.379 . S
H839 C833 0.959 . S
H840 C833 0.961 . S
H841 C833 0.960 . S
H842 C834 0.930 . S
H843 C835 0.929 1_545 S
H844 C852 0.929 . S
H845 C854 0.930 . S
H846 C856 0.930 . S
H847 C859 0.929 . S
H848 C862 0.930 . S
H849 C864 0.960 . S
H850 C864 0.960 . S
H851 C864 0.960 . S
C852 H844 0.929 . S
C852 C853 1.377 . S
C852 C854 1.384 . S
C853 C852 1.377 . S
C853 C859 1.390 . S
C854 H845 0.930 . S
C854 C852 1.384 . S
C854 C855 1.372 . S
C855 C854 1.372 . S
C855 C856 1.400 . S
C855 C860 1.490 . S
C856 H846 0.930 . S
C856 C855 1.400 . S
C856 C859 1.386 . S
H857 C873 0.930 . S
H858 C874 0.931 . S
C859 H847 0.929 . S
C859 C853 1.390 . S
C859 C856 1.386 . S
C860 C855 1.490 . S
C860 C862 1.395 . S
C860 C863 1.403 . S
H861 C867 0.930 . S
C862 H848 0.930 . S
C862 C860 1.395 . S
C862 C865 1.403 . S
C863 C860 1.403 . S
C863 C864 1.524 . S
C863 C867 1.400 . S
C864 H849 0.960 . S
C864 H850 0.960 . S
C864 H851 0.960 . S
C864 C863 1.524 . S
C865 C862 1.403 . S
C865 C866 1.392 . S
C865 C869 1.495 . S
C866 C865 1.392 . S
C866 C867 1.385 . S
C866 C868 1.478 . S
C867 H861 0.930 . S
C867 C863 1.400 . S
C867 C866 1.385 . S
C868 C866 1.478 . S
C868 C870 1.381 . S
C868 C874 1.383 . S
C869 C865 1.495 . S
C869 H875 0.959 . S
C869 H876 0.961 . S
C869 H877 0.960 . S
C870 C868 1.381 . S
C870 C871 1.394 . S
C870 H878 0.930 . S
C871 C870 1.394 . S
C871 C872 1.383 . S
C871 H879 0.929 . S
C872 C871 1.383 . S
C872 C873 1.377 . S
C873 H857 0.930 . S
C873 C872 1.377 . S
C873 C874 1.379 . S
C874 H858 0.931 . S
C874 C868 1.383 . S
C874 C873 1.379 . S
H875 C869 0.959 . S
H876 C869 0.961 . S
H877 C869 0.960 . S
H878 C870 0.930 . S
H879 C871 0.929 . S
H880 C888 0.929 . S
H881 C890 0.930 . S
H882 C892 0.930 . S
H883 C895 0.929 . S
H884 C898 0.930 . S
H885 C900 0.960 . S
H886 C900 0.960 . S
H887 C900 0.960 . S
C888 H880 0.929 . S
C888 C889 1.377 . S
C888 C890 1.384 . S
C889 C888 1.377 . S
C889 C895 1.390 . S
C890 H881 0.930 . S
C890 C888 1.384 . S
C890 C891 1.372 . S
C891 C890 1.372 . S
C891 C892 1.400 . S
C891 C896 1.490 . S
C892 H882 0.930 . S
C892 C891 1.400 . S
C892 C895 1.386 . S
H893 C909 0.930 . S
H894 C910 0.931 . S
C895 H883 0.929 . S
C895 C889 1.390 . S
C895 C892 1.386 . S
C896 C891 1.490 . S
C896 C898 1.395 . S
C896 C899 1.403 . S
H897 C903 0.930 . S
C898 H884 0.930 . S
C898 C896 1.395 . S
C898 C901 1.403 . S
C899 C896 1.403 . S
C899 C900 1.524 . S
C899 C903 1.400 . S
C900 H885 0.960 . S
C900 H886 0.960 . S
C900 H887 0.960 . S
C900 C899 1.524 . S
C901 C898 1.403 . S
C901 C902 1.392 . S
C901 C905 1.495 . S
C902 C901 1.392 . S
C902 C903 1.385 . S
C902 C904 1.478 . S
C903 H897 0.930 . S
C903 C899 1.400 . S
C903 C902 1.385 . S
C904 C902 1.478 . S
C904 C906 1.381 . S
C904 C910 1.383 . S
C905 C901 1.495 . S
C905 H911 0.959 . S
C905 H912 0.961 . S
C905 H913 0.960 . S
C906 C904 1.381 . S
C906 C907 1.394 . S
C906 H914 0.930 . S
C907 C906 1.394 . S
C907 C908 1.383 . S
C907 H915 0.929 . S
C908 C907 1.383 . S
C908 C909 1.377 . S
C909 H893 0.930 . S
C909 C908 1.377 . S
C909 C910 1.379 . S
C910 H894 0.931 . S
C910 C904 1.383 . S
C910 C909 1.379 . S
H911 C905 0.959 . S
H912 C905 0.961 . S
H913 C905 0.960 . S
H914 C906 0.930 . S
H915 C907 0.929 . S
H916 C924 0.929 . S
H917 C926 0.930 . S
H918 C928 0.930 . S
H919 C931 0.929 . S
H920 C934 0.930 . S
H921 C936 0.960 . S
H922 C936 0.960 . S
H923 C936 0.960 . S
C924 H916 0.929 . S
C924 C925 1.377 . S
C924 C926 1.384 . S
C925 C924 1.377 . S
C925 C931 1.390 . S
C926 H917 0.930 . S
C926 C924 1.384 . S
C926 C927 1.372 . S
C927 C926 1.372 . S
C927 C928 1.400 . S
C927 C932 1.490 . S
C928 H918 0.930 . S
C928 C927 1.400 . S
C928 C931 1.386 . S
H929 C945 0.930 . S
H930 C946 0.931 . S
C931 H919 0.929 . S
C931 C925 1.390 . S
C931 C928 1.386 . S
C932 C927 1.490 . S
C932 C934 1.395 . S
C932 C935 1.403 . S
H933 C939 0.930 . S
C934 H920 0.930 . S
C934 C932 1.395 . S
C934 C937 1.403 . S
C935 C932 1.403 . S
C935 C936 1.524 . S
C935 C939 1.400 . S
C936 H921 0.960 . S
C936 H922 0.960 . S
C936 H923 0.960 . S
C936 C935 1.524 . S
C937 C934 1.403 . S
C937 C938 1.392 . S
C937 C941 1.495 . S
C938 C937 1.392 . S
C938 C939 1.385 . S
C938 C940 1.478 . S
C939 H933 0.930 . S
C939 C935 1.400 . S
C939 C938 1.385 . S
C940 C938 1.478 . S
C940 C942 1.381 . S
C940 C946 1.383 . S
C941 C937 1.495 . S
C941 H947 0.959 . S
C941 H948 0.961 . S
C941 H949 0.960 . S
C942 C940 1.381 . S
C942 C943 1.394 . S
C942 H950 0.930 . S
C943 C942 1.394 . S
C943 C944 1.383 . S
C943 H951 0.929 . S
C944 C943 1.383 . S
C944 C945 1.377 . S
C945 H929 0.930 . S
C945 C944 1.377 . S
C945 C946 1.379 . S
C946 H930 0.931 . S
C946 C940 1.383 . S
C946 C945 1.379 . S
H947 C941 0.959 . S
H948 C941 0.961 . S
H949 C941 0.960 . S
H950 C942 0.930 . S
H951 C943 0.929 . S
H952 C960 0.929 . S
H953 C962 0.930 . S
H954 C964 0.930 . S
H955 C967 0.929 . S
H956 C970 0.930 . S
H957 C972 0.960 . S
H958 C972 0.960 . S
H959 C972 0.960 . S
C960 H952 0.929 . S
C960 C961 1.377 . S
C960 C962 1.384 . S
C961 C960 1.377 . S
C961 C967 1.390 . S
C962 H953 0.930 . S
C962 C960 1.384 . S
C962 C963 1.372 . S
C963 C962 1.372 . S
C963 C964 1.400 . S
C963 C968 1.490 . S
C964 H954 0.930 . S
C964 C963 1.400 . S
C964 C967 1.386 . S
H965 C981 0.930 1_554 S
H966 C982 0.947 . S
C967 H955 0.929 . S
C967 C961 1.390 . S
C967 C964 1.386 . S
C968 C963 1.490 . S
C968 C970 1.395 . S
C968 C971 1.403 . S
H969 C975 0.930 . S
C970 H956 0.930 . S
C970 C968 1.395 . S
C970 C973 1.403 . S
C971 C968 1.403 . S
C971 C972 1.524 . S
C971 C975 1.400 . S
C972 H957 0.960 . S
C972 H958 0.960 . S
C972 H959 0.960 . S
C972 C971 1.524 . S
C973 C970 1.403 . S
C973 C974 1.392 . S
C973 C977 1.495 1_655 S
C974 C973 1.392 . S
C974 C975 1.385 . S
C974 C976 1.478 . S
C975 H969 0.930 . S
C975 C971 1.400 . S
C975 C974 1.385 . S
C976 C974 1.478 . S
C976 C978 1.381 . S
C976 C982 1.383 . S
C977 C973 1.495 1_455 S
C977 H983 0.959 . S
C977 H984 0.961 . S
C977 H985 0.960 . S
C978 C976 1.381 . S
C978 C979 1.394 1_655 S
C978 H986 0.930 1_655 S
C979 C978 1.394 1_455 S
C979 C980 1.383 1_455 S
C979 H987 0.929 . S
C980 C979 1.383 1_655 S
C980 C981 1.377 . S
C981 H965 0.930 1_556 S
C981 C980 1.377 . S
C981 C982 1.379 . S
C982 H966 0.947 . S
C982 C976 1.383 . S
C982 C981 1.379 . S
H983 C977 0.959 . S
H984 C977 0.961 . S
H985 C977 0.960 . S
H986 C978 0.930 1_455 S
H987 C979 0.929 . S
H988 C996 0.929 . S
H989 C998 0.930 . S
H990 C1000 0.930 . S
H991 C1003 0.929 . S
H992 C1006 0.930 . S
H993 C1008 0.960 . S
H994 C1008 0.960 . S
H995 C1008 0.960 . S
C996 H988 0.929 . S
C996 C997 1.377 . S
C996 C998 1.384 . S
C997 C996 1.377 . S
C997 C1003 1.390 . S
C998 H989 0.930 . S
C998 C996 1.384 . S
C998 C999 1.372 . S
C999 C998 1.372 . S
C999 C1000 1.400 . S
C999 C1004 1.490 . S
C1000 H990 0.930 . S
C1000 C999 1.400 . S
C1000 C1003 1.386 . S
H1001 C1017 0.930 . S
H1002 C1018 0.931 . S
C1003 H991 0.929 . S
C1003 C997 1.390 . S
C1003 C1000 1.386 . S
C1004 C999 1.490 . S
C1004 C1006 1.395 . S
C1004 C1007 1.403 . S
H1005 C1011 0.930 . S
C1006 H992 0.930 . S
C1006 C1004 1.395 . S
C1006 C1009 1.403 . S
C1007 C1004 1.403 . S
C1007 C1008 1.524 . S
C1007 C1011 1.400 . S
C1008 H993 0.960 . S
C1008 H994 0.960 . S
C1008 H995 0.960 . S
C1008 C1007 1.524 . S
C1009 C1006 1.403 . S
C1009 C1010 1.392 . S
C1009 C1013 1.495 . S
C1010 C1009 1.392 . S
C1010 C1011 1.385 . S
C1010 C1012 1.478 . S
C1011 H1005 0.930 . S
C1011 C1007 1.400 . S
C1011 C1010 1.385 . S
C1012 C1010 1.478 . S
C1012 C1014 1.381 . S
C1012 C1018 1.383 . S
C1013 C1009 1.495 . S
C1013 H1019 0.959 . S
C1013 H1020 0.961 . S
C1013 H1021 0.960 . S
C1014 C1012 1.381 . S
C1014 C1015 1.394 . S
C1014 H1022 0.930 . S
C1015 C1014 1.394 . S
C1015 C1016 1.383 . S
C1015 H1023 0.929 . S
C1016 C1015 1.383 . S
C1016 C1017 1.377 . S
C1017 H1001 0.930 . S
C1017 C1016 1.377 . S
C1017 C1018 1.379 . S
C1018 H1002 0.931 . S
C1018 C1012 1.383 . S
C1018 C1017 1.379 . S
H1019 C1013 0.959 . S
H1020 C1013 0.961 . S
H1021 C1013 0.960 . S
H1022 C1014 0.930 . S
H1023 C1015 0.929 . S
H1024 C1032 0.929 . S
H1025 C1034 0.930 . S
H1026 C1036 0.930 . S
H1027 C1039 0.929 . S
H1028 C1042 0.930 . S
H1029 C1044 0.960 . S
H1030 C1044 0.960 . S
H1031 C1044 0.960 . S
C1032 H1024 0.929 . S
C1032 C1033 1.377 . S
C1032 C1034 1.384 . S
C1033 C1032 1.377 . S
C1033 C1039 1.390 . S
C1034 H1025 0.930 . S
C1034 C1032 1.384 . S
C1034 C1035 1.372 . S
C1035 C1034 1.372 . S
C1035 C1036 1.400 . S
C1035 C1040 1.490 . S
C1036 H1026 0.930 . S
C1036 C1035 1.400 . S
C1036 C1039 1.386 . S
H1037 C1053 0.930 . S
H1038 C1054 0.931 . S
C1039 H1027 0.929 . S
C1039 C1033 1.390 . S
C1039 C1036 1.386 . S
C1040 C1035 1.490 . S
C1040 C1042 1.395 . S
C1040 C1043 1.403 . S
H1041 C1047 0.930 . S
C1042 H1028 0.930 . S
C1042 C1040 1.395 . S
C1042 C1045 1.403 . S
C1043 C1040 1.403 . S
C1043 C1044 1.524 . S
C1043 C1047 1.400 . S
C1044 H1029 0.960 . S
C1044 H1030 0.960 . S
C1044 H1031 0.960 . S
C1044 C1043 1.524 . S
C1045 C1042 1.403 . S
C1045 C1046 1.392 . S
C1045 C1049 1.495 . S
C1046 C1045 1.392 . S
C1046 C1047 1.385 . S
C1046 C1048 1.478 . S
C1047 H1041 0.930 . S
C1047 C1043 1.400 . S
C1047 C1046 1.385 . S
C1048 C1046 1.478 . S
C1048 C1050 1.381 . S
C1048 C1054 1.383 . S
C1049 C1045 1.495 . S
C1049 H1055 0.959 . S
C1049 H1056 0.961 . S
C1049 H1057 0.960 . S
C1050 C1048 1.381 . S
C1050 C1051 1.394 . S
C1050 H1058 0.930 . S
C1051 C1050 1.394 . S
C1051 C1052 1.383 . S
C1051 H1059 0.929 . S
C1052 C1051 1.383 . S
C1052 C1053 1.377 . S
C1053 H1037 0.930 . S
C1053 C1052 1.377 . S
C1053 C1054 1.379 . S
C1054 H1038 0.931 . S
C1054 C1048 1.383 . S
C1054 C1053 1.379 . S
H1055 C1049 0.959 . S
H1056 C1049 0.961 . S
H1057 C1049 0.960 . S
H1058 C1050 0.930 . S
H1059 C1051 0.929 . S
H1060 C1068 0.929 . S
H1061 C1070 0.930 . S
H1062 C1072 0.930 . S
H1063 C1075 0.929 . S
H1064 C1078 0.930 . S
H1065 C1080 0.960 . S
H1066 C1080 0.960 . S
H1067 C1080 0.960 . S
C1068 H1060 0.929 . S
C1068 C1069 1.377 . S
C1068 C1070 1.384 . S
C1069 C1068 1.377 . S
C1069 C1075 1.390 . S
C1070 H1061 0.930 . S
C1070 C1068 1.384 . S
C1070 C1071 1.372 . S
C1071 C1070 1.372 . S
C1071 C1072 1.400 . S
C1071 C1076 1.490 . S
C1072 H1062 0.930 . S
C1072 C1071 1.400 . S
C1072 C1075 1.386 . S
H1073 C1089 0.930 . S
H1074 C1090 0.931 . S
C1075 H1063 0.929 . S
C1075 C1069 1.390 . S
C1075 C1072 1.386 . S
C1076 C1071 1.490 . S
C1076 C1078 1.395 . S
C1076 C1079 1.403 . S
H1077 C1083 0.930 . S
C1078 H1064 0.930 . S
C1078 C1076 1.395 . S
C1078 C1081 1.403 . S
C1079 C1076 1.403 . S
C1079 C1080 1.524 . S
C1079 C1083 1.400 . S
C1080 H1065 0.960 . S
C1080 H1066 0.960 . S
C1080 H1067 0.960 . S
C1080 C1079 1.524 . S
C1081 C1078 1.403 . S
C1081 C1082 1.392 . S
C1081 C1085 1.495 . S
C1082 C1081 1.392 . S
C1082 C1083 1.385 . S
C1082 C1084 1.478 . S
C1083 H1077 0.930 . S
C1083 C1079 1.400 . S
C1083 C1082 1.385 . S
C1084 C1082 1.478 . S
C1084 C1086 1.381 . S
C1084 C1090 1.383 . S
C1085 C1081 1.495 . S
C1085 H1091 0.959 . S
C1085 H1092 0.961 . S
C1085 H1093 0.960 . S
C1086 C1084 1.381 . S
C1086 C1087 1.394 . S
C1086 H1094 0.930 . S
C1087 C1086 1.394 . S
C1087 C1088 1.383 . S
C1087 H1095 0.929 . S
C1088 C1087 1.383 . S
C1088 C1089 1.377 . S
C1089 H1073 0.930 . S
C1089 C1088 1.377 . S
C1089 C1090 1.379 . S
C1090 H1074 0.931 . S
C1090 C1084 1.383 . S
C1090 C1089 1.379 . S
H1091 C1085 0.959 . S
H1092 C1085 0.961 . S
H1093 C1085 0.960 . S
H1094 C1086 0.930 . S
H1095 C1087 0.929 . S
C241 C6 2.519 . S
C260 C96 2.517 . S
C277 C18 2.611 . S
C296 C138 2.623 1_565 S
C332 C168 0.932 . S
C313 C28 0.916 . S
C349 C40 0.532 . S
C368 C202 0.534 . S
C404 C159 2.170 . S
C385 C9 2.165 . S
C440 C113 1.871 . S
C421 C16 1.859 . S
C476 C206 1.266 . S
C457 C30 1.270 . S
C512 C172 0.916 . S
C493 C42 0.920 . S
C529 C4 2.141 . S
C548 C227 2.157 . S
C584 C134 1.139 . S
C565 C33 1.131 . S
C601 C45 0.866 . S
C620 C109 0.872 . S
C637 C21 2.440 . S
C656 C193 2.451 . S
C692 C125 2.579 . S
C673 C57 2.575 . S
C709 C66 2.606 . S
C728 C147 2.606 . S
C745 C76 0.948 . S
C764 C177 0.940 . S
C781 C88 0.447 . S
C800 C211 0.440 . S
C817 C54 2.137 . S
C836 C130 2.138 . S
C872 C104 1.909 . S
C853 C64 1.893 . S
C908 C215 1.127 . S
C889 C78 1.113 . S
C944 C181 0.942 . S
C925 C93 0.943 . S
C961 C52 2.091 . S
C980 C198 2.111 . S
C1016 C143 1.138 . S
C997 C81 1.121 . S
C1052 C100 0.866 . S
C1033 C90 0.863 . S
C1069 C69 2.481 . S
C1088 C164 2.484 . S
