# Generated by pormake.
# Topology nom, (4,4)-cn, num edge types: 1
# Building blocks:
#     Node 0, Type 0, BuildingBlock: NAHDIM_clean_linker_0, # of connection points: 4
#     Node 1, Type 0, BuildingBlock: NAHDIM_clean_linker_0, # of connection points: 4
#     Node 2, Type 0, BuildingBlock: NAHDIM_clean_linker_0, # of connection points: 4
#     Node 3, Type 0, BuildingBlock: NAHDIM_clean_linker_0, # of connection points: 4
#     Node 4, Type 0, BuildingBlock: NAHDIM_clean_linker_0, # of connection points: 4
#     Node 5, Type 0, BuildingBlock: NAHDIM_clean_linker_0, # of connection points: 4
#     Node 6, Type 1, BuildingBlock: KUFVIS_clean_sbu_0, # of connection points: 4
#     Node 7, Type 1, BuildingBlock: KUFVIS_clean_sbu_0, # of connection points: 4
#     Node 8, Type 1, BuildingBlock: KUFVIS_clean_sbu_0, # of connection points: 4
#     Node 9, Type 1, BuildingBlock: KUFVIS_clean_sbu_0, # of connection points: 4
#     Node 10, Type 1, BuildingBlock: KUFVIS_clean_sbu_0, # of connection points: 4
#     Node 11, Type 1, BuildingBlock: KUFVIS_clean_sbu_0, # of connection points: 4
#     Edge 12, Type (0, 1), None
#     Edge 13, Type (0, 1), None
#     Edge 14, Type (0, 1), None
#     Edge 15, Type (0, 1), None
#     Edge 16, Type (0, 1), None
#     Edge 17, Type (0, 1), None
#     Edge 18, Type (0, 1), None
#     Edge 19, Type (0, 1), None
#     Edge 20, Type (0, 1), None
#     Edge 21, Type (0, 1), None
#     Edge 22, Type (0, 1), None
#     Edge 23, Type (0, 1), None
#     Edge 24, Type (0, 1), None
#     Edge 25, Type (0, 1), None
#     Edge 26, Type (0, 1), None
#     Edge 27, Type (0, 1), None
#     Edge 28, Type (0, 1), None
#     Edge 29, Type (0, 1), None
#     Edge 30, Type (0, 1), None
#     Edge 31, Type (0, 1), None
#     Edge 32, Type (0, 1), None
#     Edge 33, Type (0, 1), None
#     Edge 34, Type (0, 1), None
#     Edge 35, Type (0, 1), None
# Relax obj value: 0.046
# Max RMSD: 0.132
# Mean RMSD: 0.095
data_MOF--net-nom--node1-KUFVIS_clean_sbu_0--node2-NAHDIM_clean_linker_0--edge1-none
_symmetry_space_group_name_H-M    P1
_symmetry_Int_Tables_number       1
_symmetry_cell_setting            triclinic
loop_
_symmetry_equiv_pos_as_xyz
'x, y, z'
_cell_length_a     34.582033
_cell_length_b     35.124184
_cell_length_c     42.201079
_cell_angle_alpha  91.049919
_cell_angle_beta   91.265271
_cell_angle_gamma 120.01252
loop_
_atom_site_label
_atom_site_type_symbol
_atom_site_fract_x
_atom_site_fract_y
_atom_site_fract_z
_atom_type_partial_charge
C0 C 0.27985 0.74446 0.30964 0.0
C1 C 0.2762 0.72534 0.27597 0.0
C2 C 0.21272 0.64998 0.2783 0.0
C3 C 0.20011 0.60545 0.27849 0.0
C4 C 0.15528 0.57278 0.28158 0.0
C5 C 0.12249 0.58523 0.2848 0.0
C6 C 0.13489 0.63018 0.28428 0.0
C7 C 0.17974 0.66202 0.28075 0.0
C8 C 0.14302 0.52513 0.28208 0.0
C9 C 0.10083 0.64473 0.28806 0.0
C10 C 0.9193 0.5142 0.119 0.0
C11 C 0.8781 0.47807 0.13552 0.0
C12 C 0.91399 0.46695 0.18217 0.0
C13 C 0.93522 0.51112 0.19336 0.0
C14 C 0.96315 0.5252 0.22071 0.0
C15 C 0.97077 0.49477 0.23721 0.0
C16 C 0.94863 0.45011 0.22665 0.0
C17 C 0.91945 0.43672 0.19989 0.0
C18 C 0.9848 0.57288 0.23165 0.0
C19 C 0.9556 0.41644 0.24359 0.0
C20 C 0.79245 0.4339 0.37223 0.0
C21 C 0.81964 0.47765 0.38345 0.0
C22 C 0.86404 0.49299 0.3936 0.0
C23 C 0.88105 0.46381 0.39301 0.0
C24 C 0.85154 0.41836 0.38692 0.0
C25 C 0.8076 0.40405 0.3761 0.0
C26 C 0.89389 0.54123 0.40207 0.0
C27 C 0.86782 0.38581 0.38803 0.0
C28 C 0.20297 0.5999 0.48005 0.0
C29 C 0.17677 0.58335 0.51048 0.0
C30 C 0.10396 0.56837 0.48879 0.0
C31 C 0.08033 0.58977 0.48109 0.0
C32 C 0.04622 0.57245 0.45737 0.0
C33 C 0.03476 0.53203 0.44166 0.0
C34 C 0.05604 0.50841 0.45122 0.0
C35 C 0.09071 0.52699 0.47444 0.0
C36 C 0.02388 0.59831 0.44814 0.0
C37 C 0.04372 0.46448 0.43581 0.0
C38 C 0.07527 0.55183 0.28977 0.0
C39 C 0.04628 0.53429 0.26315 0.0
C40 C 1.00006 0.5094 0.26637 0.0
C41 C 0.98226 0.50204 0.29694 0.0
C42 C 0.93598 0.48084 0.30096 0.0
C43 C 0.91879 0.47461 0.33101 0.0
C44 C 0.94707 0.48842 0.35844 0.0
C45 C 0.92967 0.48211 0.3892 0.0
C46 C 0.95866 0.49591 0.41595 0.0
C47 C 0.00504 0.51732 0.41271 0.0
C48 C 0.023 0.5254 0.38208 0.0
C49 C 0.06944 0.54917 0.37792 0.0
C50 C 0.08668 0.55765 0.34775 0.0
C51 C 0.05822 0.54215 0.32053 0.0
C52 C 0.01147 0.51758 0.32412 0.0
C53 C 0.99383 0.51007 0.35493 0.0
C54 C 0.70554 0.42506 0.31712 0.0
C55 C 0.73239 0.44366 0.34838 0.0
O56 O 0.25688 0.68001 0.27626 0.0
O57 O 0.13998 0.58927 0.50928 0.0
O58 O 0.75281 0.41956 0.35617 0.0
O59 O 0.88892 0.45266 0.15442 0.0
H60 H 0.25638 0.73478 0.26021 0.0
H61 H 0.29887 0.73466 0.32587 0.0
H62 H 0.29701 0.78095 0.30941 0.0
H63 H 0.24627 0.73247 0.31929 0.0
H64 H 0.22568 0.59638 0.27648 0.0
H65 H 0.18857 0.69618 0.28037 0.0
H66 H 0.11726 0.50602 0.26315 0.0
H67 H 0.17231 0.52072 0.27861 0.0
H68 H 0.12829 0.51128 0.30512 0.0
H69 H 0.1157 0.68089 0.28634 0.0
H70 H 0.07381 0.62822 0.26956 0.0
H71 H 0.08534 0.6349 0.31147 0.0
H72 H 0.86525 0.49482 0.15123 0.0
H73 H 0.92671 0.54723 0.12783 0.0
H74 H 0.94947 0.51158 0.12398 0.0
H75 H 0.91395 0.5138 0.09295 0.0
H76 H 0.93028 0.53514 0.18115 0.0
H77 H 0.90066 0.40239 0.19277 0.0
H78 H 0.98334 0.57592 0.25778 0.0
H79 H 0.02046 0.58994 0.22538 0.0
H80 H 0.96875 0.59 0.22023 0.0
H81 H 0.94211 0.38515 0.2294 0.0
H82 H 0.99174 0.42944 0.24891 0.0
H83 H 0.93848 0.40922 0.26647 0.0
H84 H 0.75725 0.47867 0.34446 0.0
H85 H 0.80756 0.50066 0.38279 0.0
H86 H 0.78581 0.36991 0.3687 0.0
H87 H 0.91886 0.55694 0.3835 0.0
H88 H 0.87477 0.55879 0.4043 0.0
H89 H 0.9124 0.54521 0.42483 0.0
H90 H 0.8398 0.35183 0.3911 0.0
H91 H 0.88383 0.38633 0.3654 0.0
H92 H 0.89309 0.39467 0.40766 0.0
H93 H 0.16535 0.54844 0.51271 0.0
H94 H 0.23508 0.60007 0.48176 0.0
H95 H 0.18327 0.57831 0.45939 0.0
H96 H 0.21034 0.63395 0.47563 0.0
H97 H 0.09026 0.6213 0.49266 0.0
H98 H 0.10765 0.50926 0.48072 0.0
H99 H 0.0273 0.60476 0.42239 0.0
H100 H 0.98767 0.57871 0.45264 0.0
H101 H 0.03816 0.63023 0.4616 0.0
H102 H 0.0579 0.46971 0.41189 0.0
H103 H 0.05689 0.44666 0.4498 0.0
H104 H 0.00686 0.44351 0.43285 0.0
H105 H 0.0597 0.5419 0.23963 0.0
H106 H 0.91239 0.46938 0.28092 0.0
H107 H 0.88287 0.4588 0.33218 0.0
H108 H 0.94509 0.49072 0.43942 0.0
H109 H 0.09311 0.5621 0.39791 0.0
H110 H 0.12264 0.57641 0.34604 0.0
H111 H 0.68023 0.38966 0.31897 0.0
H112 H 0.68829 0.44347 0.31057 0.0
H113 H 0.72837 0.42834 0.29791 0.0
C114 C 0.27071 0.78995 0.55702 0.0
C115 C 0.30891 0.78089 0.56426 0.0
C116 C 0.37308 0.83614 0.53782 0.0
C117 C 0.41614 0.84625 0.54765 0.0
C118 C 0.45275 0.88879 0.54438 0.0
C119 C 0.44576 0.92164 0.53103 0.0
C120 C 0.40198 0.91138 0.52137 0.0
C121 C 0.36627 0.86845 0.52437 0.0
C122 C 0.49893 0.89845 0.5546 0.0
C123 C 0.39288 0.94555 0.50744 0.0
C124 C 0.51266 0.13406 0.68345 0.0
C125 C 0.55605 0.1719 0.67029 0.0
C126 C 0.56923 0.13178 0.62777 0.0
C127 C 0.52721 0.11552 0.61213 0.0
C128 C 0.51454 0.08643 0.58572 0.0
C129 C 0.54417 0.07275 0.57478 0.0
C130 C 0.58712 0.0904 0.58956 0.0
C131 C 0.5995 0.12099 0.615 0.0
C132 C 0.46928 0.07018 0.56962 0.0
C133 C 0.61993 0.07689 0.57867 0.0
C134 C 0.65932 0.23803 0.41381 0.0
C135 C 0.61288 0.2159 0.41619 0.0
C136 C 0.58842 0.16991 0.41687 0.0
C137 C 0.61132 0.1459 0.4162 0.0
C138 C 0.65803 0.16815 0.41212 0.0
C139 C 0.68147 0.21419 0.41053 0.0
C140 C 0.53836 0.14725 0.41972 0.0
C141 C 0.68335 0.14354 0.41101 0.0
C142 C 0.46944 0.82704 0.3315 0.0
C143 C 0.48077 0.85505 0.30191 0.0
C144 C 0.49399 0.92407 0.3281 0.0
C145 C 0.47276 0.94789 0.33531 0.0
C146 C 0.49043 0.98145 0.35887 0.0
C147 C 0.53068 0.99158 0.37532 0.0
C148 C 0.5538 0.96938 0.36686 0.0
C149 C 0.53525 0.93579 0.34322 0.0
C150 C 0.46523 0.00491 0.36702 0.0
C151 C 0.59727 0.98014 0.38356 0.0
C152 C 0.48402 0.9664 0.52602 0.0
C153 C 0.4997 0.99707 0.55148 0.0
C154 C 0.53077 0.04142 0.54711 0.0
C155 C 0.54627 0.05579 0.51645 0.0
C156 C 0.57505 0.10053 0.51076 0.0
C157 C 0.58922 0.11445 0.48042 0.0
C158 C 0.5748 0.08427 0.45445 0.0
C159 C 0.587 0.09845 0.42321 0.0
C160 C 0.57321 0.06757 0.39803 0.0
C161 C 0.54636 0.02264 0.40311 0.0
C162 C 0.53231 0.00795 0.434 0.0
C163 C 0.50354 0.96316 0.43967 0.0
C164 C 0.48816 0.94937 0.46985 0.0
C165 C 0.50136 0.97975 0.49561 0.0
C166 C 0.53186 0.02474 0.4907 0.0
C167 C 0.5467 0.03894 0.45975 0.0
C168 C 0.73326 0.33178 0.4563 0.0
C169 C 0.68503 0.30643 0.443 0.0
O170 O 0.33853 0.79454 0.5398 0.0
O171 O 0.47284 0.88962 0.30696 0.0
O172 O 0.68335 0.28246 0.41604 0.0
O173 O 0.58125 0.15669 0.65537 0.0
H174 H 0.32612 0.79856 0.58698 0.0
H175 H 0.25482 0.77566 0.53333 0.0
H176 H 0.24495 0.7756 0.57527 0.0
H177 H 0.28349 0.8259 0.55746 0.0
H178 H 0.42098 0.82065 0.55761 0.0
H179 H 0.33303 0.85993 0.51592 0.0
H180 H 0.51245 0.92414 0.57394 0.0
H181 H 0.49908 0.86879 0.56315 0.0
H182 H 0.52165 0.91157 0.53447 0.0
H183 H 0.35657 0.93416 0.50562 0.0
H184 H 0.40989 0.97654 0.52212 0.0
H185 H 0.40636 0.95312 0.48332 0.0
H186 H 0.54626 0.18861 0.65225 0.0
H187 H 0.48308 0.13188 0.67081 0.0
H188 H 0.51083 0.10183 0.68004 0.0
H189 H 0.5087 0.13917 0.70893 0.0
H190 H 0.5039 0.12522 0.62016 0.0
H191 H 0.63298 0.13649 0.62518 0.0
H192 H 0.47238 0.07303 0.54352 0.0
H193 H 0.4472 0.0349 0.57456 0.0
H194 H 0.45294 0.08866 0.57804 0.0
H195 H 0.64845 0.08758 0.59596 0.0
H196 H 0.60309 0.04061 0.57502 0.0
H197 H 0.63341 0.09194 0.55568 0.0
H198 H 0.66395 0.2842 0.46171 0.0
H199 H 0.59595 0.2347 0.41812 0.0
H200 H 0.71742 0.23189 0.40839 0.0
H201 H 0.5298 0.13754 0.4446 0.0
H202 H 0.52495 0.16906 0.41322 0.0
H203 H 0.52154 0.11692 0.40433 0.0
H204 H 0.71971 0.16578 0.40808 0.0
H205 H 0.67856 0.12541 0.4332 0.0
H206 H 0.66997 0.11889 0.39099 0.0
H207 H 0.51597 0.86859 0.29639 0.0
H208 H 0.47166 0.79702 0.32684 0.0
H209 H 0.49309 0.84574 0.35157 0.0
H210 H 0.43499 0.81686 0.33878 0.0
H211 H 0.4413 0.93897 0.32313 0.0
H212 H 0.55271 0.91845 0.33715 0.0
H213 H 0.45472 0.99871 0.39196 0.0
H214 H 0.48739 0.04095 0.36506 0.0
H215 H 0.43508 0.99404 0.35131 0.0
H216 H 0.61301 0.96254 0.37247 0.0
H217 H 0.62102 0.01611 0.38336 0.0
H218 H 0.59112 0.97086 0.40873 0.0
H219 H 0.48636 0.98659 0.57477 0.0
H220 H 0.58662 0.12547 0.52962 0.0
H221 H 0.61136 0.14932 0.47759 0.0
H222 H 0.58241 0.07868 0.3741 0.0
H223 H 0.49196 0.93827 0.42076 0.0
H224 H 0.46564 0.91458 0.47274 0.0
H225 H 0.73531 0.34976 0.47879 0.0
H226 H 0.74525 0.30842 0.46139 0.0
H227 H 0.75554 0.35561 0.4389 0.0
C228 C 0.69298 0.39994 0.7651 0.0
C229 C 0.64687 0.37816 0.74839 0.0
C230 C 0.60086 0.41232 0.75402 0.0
C231 C 0.62759 0.45434 0.74231 0.0
C232 C 0.60865 0.47972 0.73261 0.0
C233 C 0.56165 0.46172 0.73332 0.0
C234 C 0.53472 0.41909 0.74513 0.0
C235 C 0.55494 0.39546 0.75607 0.0
C236 C 0.63909 0.52576 0.72174 0.0
C237 C 0.48456 0.39812 0.74603 0.0
C238 C 0.36241 0.62691 0.79993 0.0
C239 C 0.4007 0.61806 0.80704 0.0
C240 C 0.41941 0.56523 0.78245 0.0
C241 C 0.40095 0.52335 0.76817 0.0
C242 C 0.42803 0.50859 0.75482 0.0
C243 C 0.47494 0.5368 0.7555 0.0
C244 C 0.49418 0.57781 0.77224 0.0
C245 C 0.46622 0.59175 0.78557 0.0
C246 C 0.40624 0.46403 0.73799 0.0
C247 C 0.5441 0.60804 0.77414 0.0
C248 C 0.42956 0.63313 0.58182 0.0
C249 C 0.40393 0.5885 0.58858 0.0
C250 C 0.42413 0.56283 0.59284 0.0
C251 C 0.47119 0.58277 0.59147 0.0
C252 C 0.49677 0.6272 0.58284 0.0
C253 C 0.47536 0.65167 0.57757 0.0
C254 C 0.39533 0.51493 0.6003 0.0
C255 C 0.54687 0.64937 0.58073 0.0
C256 C 0.64495 0.42693 0.52207 0.0
C257 C 0.62899 0.44384 0.49423 0.0
C258 C 0.57372 0.45667 0.52063 0.0
C259 C 0.52813 0.43889 0.52526 0.0
C260 C 0.51273 0.45764 0.54771 0.0
C261 C 0.54389 0.49587 0.56539 0.0
C262 C 0.59006 0.51513 0.55995 0.0
C263 C 0.60458 0.49493 0.53803 0.0
C264 C 0.46322 0.43619 0.55284 0.0
C265 C 0.62411 0.55699 0.57739 0.0
C266 C 0.54065 0.48706 0.72128 0.0
C267 C 0.52214 0.50349 0.74316 0.0
C268 C 0.50179 0.52723 0.73312 0.0
C269 C 0.50228 0.53737 0.70083 0.0
C270 C 0.4851 0.564 0.69045 0.0
C271 C 0.48348 0.57205 0.65854 0.0
C272 C 0.4979 0.55289 0.63556 0.0
C273 C 0.49374 0.55874 0.60284 0.0
C274 C 0.50941 0.5402 0.58062 0.0
C275 C 0.52832 0.51496 0.59021 0.0
C276 C 0.53149 0.50763 0.62281 0.0
C277 C 0.54859 0.48092 0.63323 0.0
C278 C 0.55169 0.47414 0.66538 0.0
C279 C 0.53768 0.49366 0.68844 0.0
C280 C 0.51925 0.51968 0.67833 0.0
C281 C 0.51648 0.52696 0.64556 0.0
C282 C 0.40667 0.71016 0.61529 0.0
C283 C 0.38463 0.66226 0.603 0.0
O284 O 0.6188 0.38827 0.76496 0.0
O285 O 0.58621 0.43588 0.49918 0.0
O286 O 0.41096 0.65909 0.57994 0.0
O287 O 0.39066 0.57856 0.79208 0.0
H288 H 0.65099 0.39016 0.72376 0.0
H289 H 0.69037 0.38832 0.78969 0.0
H290 H 0.71591 0.3924 0.75186 0.0
H291 H 0.70756 0.43619 0.76623 0.0
H292 H 0.66336 0.46768 0.74151 0.0
H293 H 0.53477 0.36312 0.76559 0.0
H294 H 0.62806 0.5487 0.73047 0.0
H295 H 0.67428 0.53847 0.73001 0.0
H296 H 0.63816 0.52564 0.69544 0.0
H297 H 0.46811 0.36224 0.74999 0.0
H298 H 0.47595 0.41367 0.76568 0.0
H299 H 0.47071 0.40322 0.72355 0.0
H300 H 0.43142 0.64588 0.79763 0.0
H301 H 0.36976 0.6589 0.811 0.0
H302 H 0.35809 0.62837 0.7739 0.0
H303 H 0.33059 0.6003 0.80908 0.0
H304 H 0.36489 0.50273 0.76647 0.0
H305 H 0.48124 0.62363 0.79764 0.0
H306 H 0.40793 0.46835 0.71196 0.0
H307 H 0.42427 0.44632 0.74425 0.0
H308 H 0.37059 0.44341 0.74395 0.0
H309 H 0.55426 0.63609 0.79129 0.0
H310 H 0.56097 0.5895 0.78123 0.0
H311 H 0.55582 0.62125 0.75037 0.0
H312 H 0.38248 0.64194 0.62359 0.0
H313 H 0.36823 0.57385 0.59098 0.0
H314 H 0.49465 0.68604 0.57179 0.0
H315 H 0.39748 0.511 0.6262 0.0
H316 H 0.3597 0.50224 0.59329 0.0
H317 H 0.40711 0.49457 0.588 0.0
H318 H 0.562 0.68439 0.57434 0.0
H319 H 0.56191 0.64772 0.60383 0.0
H320 H 0.55552 0.63177 0.56264 0.0
H321 H 0.65277 0.47916 0.49229 0.0
H322 H 0.67808 0.43054 0.51725 0.0
H323 H 0.64864 0.44609 0.54424 0.0
H324 H 0.62071 0.39175 0.52605 0.0
H325 H 0.50459 0.4096 0.51157 0.0
H326 H 0.64001 0.50961 0.5345 0.0
H327 H 0.45659 0.43037 0.57844 0.0
H328 H 0.451 0.45852 0.54521 0.0
H329 H 0.44382 0.40436 0.53932 0.0
H330 H 0.658 0.57054 0.56778 0.0
H331 H 0.61385 0.58225 0.57591 0.0
H332 H 0.62601 0.55043 0.60283 0.0
H333 H 0.52243 0.4967 0.7681 0.0
H334 H 0.47276 0.57914 0.70685 0.0
H335 H 0.47018 0.59308 0.65217 0.0
H336 H 0.50631 0.54495 0.55556 0.0
H337 H 0.55967 0.46481 0.61664 0.0
H338 H 0.56483 0.45302 0.67188 0.0
H339 H 0.40878 0.73201 0.59587 0.0
H340 H 0.38738 0.7134 0.63484 0.0
H341 H 0.44104 0.72107 0.62469 0.0
C342 C 0.28102 0.60054 0.94704 0.0
C343 C 0.28763 0.59234 0.91236 0.0
C344 C 0.21231 0.53832 0.89035 0.0
C345 C 0.19557 0.56738 0.88783 0.0
C346 C 0.15173 0.5524 0.87606 0.0
C347 C 0.12396 0.50748 0.86697 0.0
C348 C 0.14076 0.47824 0.86955 0.0
C349 C 0.18477 0.49417 0.88101 0.0
C350 C 0.13488 0.58445 0.87358 0.0
C351 C 0.11199 0.42995 0.86068 0.0
C352 C 0.7984 0.41858 0.95188 0.0
C353 C 0.84244 0.43448 0.97076 0.0
C354 C 0.89785 0.42649 0.93975 0.0
C355 C 0.91777 0.40064 0.93582 0.0
C356 C 0.95223 0.412 0.9146 0.0
C357 C 0.96744 0.45062 0.89715 0.0
C358 C 0.94851 0.47781 0.90175 0.0
C359 C 0.91329 0.46505 0.92251 0.0
C360 C 0.97133 0.38201 0.91004 0.0
C361 C 0.96436 0.51962 0.88386 0.0
C362 C 0.79807 0.34519 0.73215 0.0
C363 C 0.82333 0.32397 0.73217 0.0
C364 C 0.87022 0.34831 0.73294 0.0
C365 C 0.89228 0.39483 0.73353 0.0
C366 C 0.8668 0.4161 0.73063 0.0
C367 C 0.81985 0.39089 0.7298 0.0
C368 C 0.89623 0.32441 0.73512 0.0
C369 C 0.88918 0.46557 0.73063 0.0
C370 C 0.23046 0.55009 0.67004 0.0
C371 C 0.19971 0.55931 0.64891 0.0
C372 C 0.12308 0.50489 0.66025 0.0
C373 C 0.10093 0.46052 0.66776 0.0
C374 C 0.06506 0.44364 0.6883 0.0
C375 C 0.05062 0.47182 0.70098 0.0
C376 C 0.07077 0.51594 0.69147 0.0
C377 C 0.10684 0.53205 0.67117 0.0
C378 C 0.04394 0.39629 0.69762 0.0
C379 C 0.05526 0.54651 0.70375 0.0
C380 C 0.07662 0.49035 0.85632 0.0
C381 C 0.04502 0.47983 0.87966 0.0
C382 C 0.99947 0.46006 0.87159 0.0
C383 C 0.98464 0.44961 0.83948 0.0
C384 C 0.93885 0.42729 0.83081 0.0
C385 C 0.92447 0.41767 0.79921 0.0
C386 C 0.95528 0.43022 0.77488 0.0
C387 C 0.94078 0.42072 0.7426 0.0
C388 C 0.97238 0.43449 0.71895 0.0
C389 C 0.01827 0.45686 0.72683 0.0
C390 C 0.03322 0.46533 0.75908 0.0
C391 C 0.07904 0.48634 0.76789 0.0
C392 C 0.09338 0.4945 0.79967 0.0
C393 C 0.06254 0.48239 0.8239 0.0
C394 C 0.0163 0.46158 0.81551 0.0
C395 C 0.0016 0.45243 0.78312 0.0
C396 C 0.73805 0.3193 0.79126 0.0
C397 C 0.73326 0.29357 0.76033 0.0
O398 O 0.25422 0.5508 0.90189 0.0
O399 O 0.15986 0.52048 0.64244 0.0
O400 O 0.75314 0.32257 0.73605 0.0
O401 O 0.86348 0.41226 0.95983 0.0
H402 H 0.28754 0.61837 0.89782 0.0
H403 H 0.24797 0.5981 0.94954 0.0
H404 H 0.28253 0.57583 0.9623 0.0
H405 H 0.30722 0.63403 0.95546 0.0
H406 H 0.21614 0.6016 0.8952 0.0
H407 H 0.19786 0.47196 0.8831 0.0
H408 H 0.10792 0.57585 0.89061 0.0
H409 H 0.16171 0.61897 0.87875 0.0
H410 H 0.12034 0.58211 0.8494 0.0
H411 H 0.12924 0.41111 0.86575 0.0
H412 H 0.0806 0.41559 0.87391 0.0
H413 H 0.10263 0.42591 0.835 0.0
H414 H 0.86364 0.47056 0.96849 0.0
H415 H 0.78215 0.43757 0.9593 0.0
H416 H 0.805 0.42348 0.92621 0.0
H417 H 0.77526 0.38302 0.95547 0.0
H418 H 0.90557 0.37092 0.94913 0.0
H419 H 0.89764 0.48496 0.92439 0.0
H420 H 0.9674 0.37108 0.88473 0.0
H421 H 0.00764 0.40024 0.91635 0.0
H422 H 0.9549 0.35251 0.92479 0.0
H423 H 0.95248 0.54103 0.8943 0.0
H424 H 0.00144 0.53844 0.88364 0.0
H425 H 0.95152 0.51119 0.85889 0.0
H426 H 0.7498 0.2738 0.76448 0.0
H427 H 0.80648 0.28841 0.73242 0.0
H428 H 0.80006 0.40698 0.72922 0.0
H429 H 0.91281 0.33075 0.75901 0.0
H430 H 0.87453 0.28831 0.73111 0.0
H431 H 0.9228 0.33698 0.71743 0.0
H432 H 0.86533 0.4769 0.72424 0.0
H433 H 0.90409 0.4793 0.75461 0.0
H434 H 0.91672 0.47891 0.71368 0.0
H435 H 0.19416 0.58394 0.66184 0.0
H436 H 0.26297 0.58076 0.67481 0.0
H437 H 0.21469 0.53764 0.69308 0.0
H438 H 0.23657 0.52491 0.6586 0.0
H439 H 0.11312 0.4396 0.65858 0.0
H440 H 0.12237 0.56585 0.66402 0.0
H441 H 0.04932 0.39493 0.72352 0.0
H442 H 0.00732 0.37932 0.6926 0.0
H443 H 0.05792 0.37822 0.68483 0.0
H444 H 0.07051 0.57803 0.69119 0.0
H445 H 0.01831 0.53045 0.70111 0.0
H446 H 0.0644 0.5539 0.72941 0.0
H447 H 0.05595 0.48665 0.90445 0.0
H448 H 0.91343 0.41674 0.84836 0.0
H449 H 0.88878 0.40043 0.79419 0.0
H450 H 0.96117 0.42755 0.69423 0.0
H451 H 0.10442 0.49654 0.75034 0.0
H452 H 0.12897 0.5107 0.80504 0.0
H453 H 0.72191 0.33957 0.78864 0.0
H454 H 0.72237 0.29635 0.81087 0.0
H455 H 0.77396 0.34137 0.79783 0.0
C456 C 0.36295 0.74203 0.89527 0.0
C457 C 0.40584 0.75465 0.91468 0.0
C458 C 0.45853 0.83453 0.91519 0.0
C459 C 0.43339 0.84893 0.93205 0.0
C460 C 0.45263 0.89307 0.94282 0.0
C461 C 0.49837 0.92289 0.93768 0.0
C462 C 0.52365 0.90816 0.92078 0.0
C463 C 0.50307 0.86444 0.90924 0.0
C464 C 0.42396 0.90778 0.95954 0.0
C465 C 0.57243 0.93851 0.91468 0.0
C466 C 0.58961 0.24463 0.85519 0.0
C467 C 0.57886 0.2015 0.83798 0.0
C468 C 0.58882 0.15033 0.87189 0.0
C469 C 0.61572 0.13155 0.87646 0.0
C470 C 0.60371 0.09685 0.8971 0.0
C471 C 0.56358 0.08048 0.9136 0.0
C472 C 0.53589 0.09907 0.90895 0.0
C473 C 0.54899 0.13415 0.88839 0.0
C474 C 0.63447 0.0784 0.90189 0.0
C475 C 0.49318 0.08274 0.92651 0.0
C476 C 0.6911 0.23386 0.08436 0.0
C477 C 0.71121 0.20916 0.07613 0.0
C478 C 0.68572 0.16321 0.07253 0.0
C479 C 0.63914 0.14178 0.07708 0.0
C480 C 0.61946 0.16644 0.08776 0.0
C481 C 0.64592 0.21239 0.0915 0.0
C482 C 0.70804 0.13785 0.062 0.0
C483 C 0.57005 0.14454 0.0932 0.0
C484 C 0.46693 0.80812 0.13274 0.0
C485 C 0.46942 0.83921 0.15961 0.0
C486 C 0.52701 0.91214 0.14409 0.0
C487 C 0.57089 0.93197 0.13399 0.0
C488 C 0.58741 0.96764 0.11375 0.0
C489 C 0.55942 0.98421 0.10402 0.0
C490 C 0.516 0.96619 0.11591 0.0
C491 C 0.50022 0.93031 0.13586 0.0
C492 C 0.63406 0.98653 0.10179 0.0
C493 C 0.48584 0.98412 0.10685 0.0
C494 C 0.52014 0.96934 0.94999 0.0
C495 C 0.52944 0.00235 0.92831 0.0
C496 C 0.55281 0.04684 0.93788 0.0
C497 C 0.56706 0.05906 0.96996 0.0
C498 C 0.5913 0.10355 0.9802 0.0
C499 C 0.60557 0.11538 0.01171 0.0
C500 C 0.59597 0.08321 0.03435 0.0
C501 C 0.61052 0.09499 0.06649 0.0
C502 C 0.59875 0.0622 0.08866 0.0
C503 C 0.57375 0.01768 0.07933 0.0
C504 C 0.56098 0.00531 0.04702 0.0
C505 C 0.53816 0.96086 0.0366 0.0
C506 C 0.52541 0.94902 0.00482 0.0
C507 C 0.53384 0.98105 0.9823 0.0
C508 C 0.55722 0.02608 0.99227 0.0
C509 C 0.57138 0.0382 0.02457 0.0
C510 C 0.69248 0.29948 0.03493 0.0
C511 C 0.73016 0.29916 0.05459 0.0
O512 O 0.44101 0.79272 0.90326 0.0
O513 O 0.51189 0.8759 0.16187 0.0
O514 O 0.71393 0.27832 0.08283 0.0
O515 O 0.60335 0.18456 0.85208 0.0
H516 H 0.40093 0.75913 0.94016 0.0
H517 H 0.36682 0.73578 0.86994 0.0
H518 H 0.33438 0.71196 0.9046 0.0
H519 H 0.35507 0.76898 0.89672 0.0
H520 H 0.39859 0.82617 0.93625 0.0
H521 H 0.52202 0.85309 0.8959 0.0
H522 H 0.42997 0.93977 0.95057 0.0
H523 H 0.38779 0.88328 0.95641 0.0
H524 H 0.43283 0.91248 0.98529 0.0
H525 H 0.58911 0.92019 0.90663 0.0
H526 H 0.57527 0.96137 0.89589 0.0
H527 H 0.59049 0.95851 0.93636 0.0
H528 H 0.54241 0.17799 0.83884 0.0
H529 H 0.56901 0.2578 0.84486 0.0
H530 H 0.58194 0.23871 0.88065 0.0
H531 H 0.62558 0.26948 0.85339 0.0
H532 H 0.64655 0.1445 0.86386 0.0
H533 H 0.52852 0.14928 0.88604 0.0
H534 H 0.64544 0.0823 0.92726 0.0
H535 H 0.61623 0.04269 0.89562 0.0
H536 H 0.66452 0.09481 0.88729 0.0
H537 H 0.47331 0.09781 0.91822 0.0
H538 H 0.47238 0.04642 0.92349 0.0
H539 H 0.50126 0.09064 0.95225 0.0
H540 H 0.7427 0.28102 0.04008 0.0
H541 H 0.74653 0.22608 0.07137 0.0
H542 H 0.63088 0.23192 0.09808 0.0
H543 H 0.69755 0.12595 0.03702 0.0
H544 H 0.74506 0.15831 0.06356 0.0
H545 H 0.69745 0.10857 0.0767 0.0
H546 H 0.56037 0.16782 0.10345 0.0
H547 H 0.55115 0.13063 0.07032 0.0
H548 H 0.56009 0.11686 0.10942 0.0
H549 H 0.44353 0.84836 0.15457 0.0
H550 H 0.4333 0.77812 0.13119 0.0
H551 H 0.47291 0.82481 0.10978 0.0
H552 H 0.49259 0.79829 0.13665 0.0
H553 H 0.59164 0.9183 0.14108 0.0
H554 H 0.4671 0.9169 0.14498 0.0
H555 H 0.63248 0.98228 0.07557 0.0
H556 H 0.65355 0.02239 0.10763 0.0
H557 H 0.652 0.97059 0.11215 0.0
H558 H 0.45506 0.96978 0.12077 0.0
H559 H 0.50394 0.02045 0.11047 0.0
H560 H 0.47596 0.97662 0.08129 0.0
H561 H 0.51915 0.99333 0.90356 0.0
H562 H 0.5997 0.12986 0.96396 0.0
H563 H 0.62405 0.15015 0.01807 0.0
H564 H 0.60907 0.07141 0.11339 0.0
H565 H 0.53025 0.93465 0.05285 0.0
H566 H 0.50851 0.91434 0.99822 0.0
H567 H 0.67553 0.31334 0.0492 0.0
H568 H 0.70583 0.31912 0.01343 0.0
H569 H 0.66721 0.26533 0.02716 0.0
C570 C 0.65359 0.39344 0.02502 0.0
C571 C 0.67111 0.40574 0.05953 0.0
C572 C 0.63235 0.44323 0.08109 0.0
C573 C 0.58847 0.40727 0.07939 0.0
C574 C 0.55247 0.41236 0.08887 0.0
C575 C 0.56086 0.45374 0.10099 0.0
C576 C 0.60536 0.48918 0.10426 0.0
C577 C 0.64031 0.48348 0.09388 0.0
C578 C 0.50551 0.37383 0.08574 0.0
C579 C 0.61616 0.53332 0.11851 0.0
C580 C 0.49373 0.58847 0.95112 0.0
C581 C 0.46246 0.6002 0.96914 0.0
C582 C 0.44501 0.55166 0.01403 0.0
C583 C 0.48945 0.5713 0.02605 0.0
C584 C 0.50093 0.5542 0.05204 0.0
C585 C 0.4678 0.51535 0.06576 0.0
C586 C 0.42292 0.4959 0.05423 0.0
C587 C 0.41204 0.51557 0.02951 0.0
C588 C 0.54882 0.57782 0.06454 0.0
C589 C 0.38628 0.45423 0.06771 0.0
C590 C 0.39391 0.60096 0.2295 0.0
C591 C 0.44034 0.61989 0.22765 0.0
C592 C 0.46026 0.59364 0.22813 0.0
C593 C 0.43294 0.54746 0.22979 0.0
C594 C 0.38664 0.52876 0.23446 0.0
C595 C 0.36772 0.55602 0.23465 0.0
C596 C 0.51009 0.61498 0.22459 0.0
C597 C 0.35681 0.47976 0.23695 0.0
C598 C 0.52883 0.34491 0.34416 0.0
C599 C 0.54725 0.39284 0.35563 0.0
C600 C 0.54507 0.43501 0.31007 0.0
C601 C 0.5724 0.47213 0.29295 0.0
C602 C 0.55432 0.4882 0.27038 0.0
C603 C 0.50766 0.46505 0.26362 0.0
C604 C 0.47957 0.42788 0.28136 0.0
C605 C 0.49853 0.4136 0.30479 0.0
C606 C 0.58541 0.52946 0.25343 0.0
C607 C 0.42965 0.40264 0.27503 0.0
C608 C 0.52365 0.46143 0.10901 0.0
C609 C 0.50645 0.47637 0.08505 0.0
C610 C 0.48047 0.49557 0.09212 0.0
C611 C 0.47122 0.49973 0.12411 0.0
C612 C 0.44845 0.52196 0.13253 0.0
C613 C 0.44094 0.52725 0.16408 0.0
C614 C 0.45646 0.5111 0.1886 0.0
C615 C 0.45146 0.5189 0.22086 0.0
C616 C 0.46731 0.50257 0.24471 0.0
C617 C 0.48869 0.47882 0.2372 0.0
C618 C 0.49458 0.47128 0.20501 0.0
C619 C 0.51681 0.44844 0.1965 0.0
C620 C 0.526 0.44476 0.16502 0.0
C621 C 0.51181 0.46228 0.14071 0.0
C622 C 0.48648 0.48251 0.14842 0.0
C623 C 0.47867 0.48781 0.18068 0.0
C624 C 0.34184 0.64262 0.18116 0.0
C625 C 0.38395 0.65542 0.20167 0.0
O626 O 0.66811 0.44163 0.0701 0.0
O627 O 0.56536 0.42038 0.33042 0.0
O628 O 0.37347 0.62495 0.22511 0.0
O629 O 0.43308 0.5659 0.98751 0.0
H630 H 0.65236 0.37709 0.07481 0.0
H631 H 0.67204 0.42198 0.00962 0.0
H632 H 0.65765 0.36572 0.01611 0.0
H633 H 0.61759 0.38296 0.02297 0.0
H634 H 0.58196 0.37557 0.07023 0.0
H635 H 0.67438 0.51075 0.09552 0.0
H636 H 0.48567 0.38138 0.06856 0.0
H637 H 0.5046 0.34315 0.07754 0.0
H638 H 0.48923 0.36824 0.10892 0.0
H639 H 0.65238 0.55792 0.11817 0.0
H640 H 0.59739 0.54633 0.10541 0.0
H641 H 0.60568 0.52946 0.14347 0.0
H642 H 0.48389 0.62869 0.98557 0.0
H643 H 0.48464 0.55377 0.95449 0.0
H644 H 0.49427 0.59446 0.9254 0.0
H645 H 0.52867 0.60934 0.96041 0.0
H646 H 0.51575 0.60019 0.01554 0.0
H647 H 0.37758 0.50237 0.02204 0.0
H648 H 0.55034 0.57927 0.09088 0.0
H649 H 0.56552 0.55966 0.05628 0.0
H650 H 0.56788 0.61193 0.05604 0.0
H651 H 0.35616 0.4381 0.05157 0.0
H652 H 0.39797 0.43051 0.0722 0.0
H653 H 0.37637 0.46215 0.09062 0.0
H654 H 0.40878 0.65517 0.18537 0.0
H655 H 0.4609 0.65498 0.22484 0.0
H656 H 0.33198 0.54192 0.23674 0.0
H657 H 0.51696 0.60924 0.19992 0.0
H658 H 0.52735 0.65105 0.22964 0.0
H659 H 0.52437 0.60021 0.24077 0.0
H660 H 0.32225 0.47071 0.24315 0.0
H661 H 0.35542 0.4632 0.21393 0.0
H662 H 0.37084 0.46717 0.25518 0.0
H663 H 0.5201 0.39674 0.36605 0.0
H664 H 0.51266 0.32228 0.36384 0.0
H665 H 0.50339 0.33588 0.32467 0.0
H666 H 0.55614 0.34014 0.33517 0.0
H667 H 0.60826 0.48867 0.29742 0.0
H668 H 0.47696 0.38507 0.31814 0.0
H669 H 0.59165 0.52039 0.22954 0.0
H670 H 0.57035 0.55069 0.25034 0.0
H671 H 0.61814 0.5488 0.26645 0.0
H672 H 0.41284 0.37239 0.289 0.0
H673 H 0.41545 0.42391 0.28117 0.0
H674 H 0.422 0.39326 0.24942 0.0
H675 H 0.51582 0.47566 0.06076 0.0
H676 H 0.43671 0.53617 0.1149 0.0
H677 H 0.42326 0.54476 0.16894 0.0
H678 H 0.46414 0.50952 0.26936 0.0
H679 H 0.52841 0.43413 0.21417 0.0
H680 H 0.54441 0.42803 0.15988 0.0
H681 H 0.31468 0.64064 0.19589 0.0
H682 H 0.34923 0.66706 0.16251 0.0
H683 H 0.32993 0.60991 0.16936 0.0
Mn684 Mn 0.63967 0.38304 0.42316 0.0
Mn685 Mn 0.6638 0.48723 0.41242 0.0
C686 C 0.6282 0.42008 0.46413 0.0
C687 C 0.66698 0.33637 0.43534 0.0
C688 C 0.584 0.40679 0.38077 0.0
O689 O 0.67678 0.40141 0.38433 0.0
O690 O 0.70239 0.47443 0.38488 0.0
C691 C 0.75622 0.53563 0.43959 0.0
N692 N 0.71349 0.52787 0.43893 0.0
C693 C 0.73172 0.58437 0.47909 0.0
C694 C 0.77608 0.59328 0.48003 0.0
C695 C 0.78832 0.56867 0.46028 0.0
C696 C 0.70126 0.5511 0.45797 0.0
H697 H 0.76563 0.5167 0.42446 0.0
C698 C 0.70191 0.43976 0.37427 0.0
O699 O 0.63075 0.32269 0.41787 0.0
O700 O 0.68654 0.37669 0.44632 0.0
N701 N 0.62921 0.50441 0.43743 0.0
C702 C 0.58444 0.48927 0.43544 0.0
C703 C 0.56641 0.50962 0.4542 0.0
C704 C 0.59461 0.54545 0.47463 0.0
C705 C 0.64059 0.56043 0.47628 0.0
C706 C 0.65669 0.53914 0.4568 0.0
H707 H 0.56266 0.46198 0.4196 0.0
O708 O 0.60866 0.37739 0.46342 0.0
O709 O 0.65395 0.43959 0.44068 0.0
O710 O 0.5868 0.37765 0.39671 0.0
O711 O 0.61167 0.44803 0.38432 0.0
C712 C 0.67089 0.59488 0.49709 0.0
C713 C 0.71638 0.60669 0.49862 0.0
H714 H 0.8009 0.61866 0.49601 0.0
H715 H 0.82241 0.57517 0.46099 0.0
H716 H 0.53085 0.49767 0.45297 0.0
H717 H 0.58049 0.5607 0.48936 0.0
H718 H 0.6594 0.61192 0.51249 0.0
H719 H 0.73918 0.63267 0.51514 0.0
Mn720 Mn 0.25965 0.65754 0.57564 0.0
Mn721 Mn 0.25819 0.56232 0.55808 0.0
C722 C 0.20674 0.6085 0.53877 0.0
C723 C 0.29002 0.73254 0.56863 0.0
C724 C 0.2215 0.57852 0.61833 0.0
O725 O 0.3192 0.66815 0.59348 0.0
O726 O 0.3181 0.60674 0.57617 0.0
C727 C 0.3225 0.59401 0.50644 0.0
N728 N 0.28125 0.56517 0.51692 0.0
C729 C 0.25829 0.52708 0.46604 0.0
C730 C 0.30061 0.55621 0.45474 0.0
C731 C 0.33282 0.58985 0.47503 0.0
C732 C 0.25001 0.53272 0.49761 0.0
H733 H 0.34728 0.62005 0.5219 0.0
C734 C 0.33773 0.64497 0.58975 0.0
O735 O 0.27166 0.71465 0.59489 0.0
O736 O 0.29059 0.7069 0.5463 0.0
N737 N 0.20313 0.51557 0.54024 0.0
C738 C 0.16363 0.49076 0.55464 0.0
C739 C 0.12765 0.45607 0.53742 0.0
C740 C 0.13278 0.44685 0.50576 0.0
C741 C 0.17397 0.47229 0.49163 0.0
C742 C 0.20879 0.50617 0.51005 0.0
H743 H 0.15948 0.49759 0.57896 0.0
O744 O 0.20184 0.63903 0.55267 0.0
O745 O 0.24337 0.60809 0.54652 0.0
O746 O 0.2277 0.6164 0.61164 0.0
O747 O 0.23282 0.55606 0.60058 0.0
C748 C 0.18167 0.46569 0.45989 0.0
C749 C 0.22379 0.4931 0.44709 0.0
H750 H 0.30864 0.55323 0.43049 0.0
H751 H 0.3655 0.61258 0.46645 0.0
H752 H 0.096 0.43651 0.54851 0.0
H753 H 0.10482 0.4203 0.49248 0.0
H754 H 0.15533 0.43984 0.44504 0.0
H755 H 0.22919 0.48795 0.42258 0.0
Mn756 Mn 0.58889 0.24751 0.7423 0.0
Mn757 Mn 0.61389 0.1659 0.74889 0.0
C758 C 0.58274 0.20632 0.69607 0.0
C759 C 0.6261 0.32891 0.74617 0.0
C760 C 0.58905 0.20681 0.80334 0.0
O761 O 0.65928 0.27745 0.74304 0.0
O762 O 0.67005 0.22164 0.75824 0.0
C763 C 0.67998 0.17651 0.70155 0.0
N764 N 0.6379 0.15291 0.71257 0.0
C765 C 0.62385 0.08895 0.68124 0.0
C766 C 0.66736 0.11235 0.67015 0.0
C767 C 0.69527 0.15653 0.67997 0.0
C768 C 0.61064 0.11046 0.70301 0.0
H769 H 0.70236 0.2099 0.70994 0.0
C770 C 0.68456 0.26211 0.75246 0.0
O771 O 0.58549 0.30329 0.75159 0.0
O772 O 0.64689 0.30846 0.73893 0.0
N773 N 0.56146 0.1104 0.73974 0.0
C774 C 0.52217 0.09114 0.75503 0.0
C775 C 0.48932 0.04778 0.74643 0.0
C776 C 0.49775 0.02433 0.72287 0.0
C777 C 0.53885 0.04459 0.70795 0.0
C778 C 0.56976 0.0883 0.71687 0.0
H779 H 0.51599 0.10882 0.77359 0.0
O780 O 0.58272 0.24318 0.69478 0.0
O781 O 0.59026 0.1972 0.72449 0.0
O782 O 0.59469 0.24123 0.78969 0.0
O783 O 0.58937 0.17471 0.78874 0.0
C784 C 0.5506 0.02298 0.6849 0.0
C785 C 0.5933 0.04497 0.67186 0.0
H786 H 0.67938 0.09697 0.65366 0.0
H787 H 0.72878 0.17491 0.67133 0.0
H788 H 0.45784 0.03225 0.75824 0.0
H789 H 0.4726 0.99066 0.71664 0.0
H790 H 0.52738 0.98919 0.67749 0.0
H791 H 0.60234 0.02774 0.65467 0.0
Mn792 Mn 0.43697 0.65984 0.90618 0.0
Mn793 Mn 0.38199 0.54786 0.89477 0.0
C794 C 0.43893 0.61675 0.94736 0.0
C795 C 0.41714 0.71858 0.91198 0.0
C796 C 0.40621 0.61561 0.84225 0.0
O797 O 0.36787 0.63458 0.9128 0.0
O798 O 0.33386 0.56112 0.90179 0.0
C799 C 0.33348 0.50173 0.95109 0.0
N800 N 0.36821 0.51312 0.93157 0.0
C801 C 0.38176 0.45734 0.9525 0.0
C802 C 0.34608 0.44499 0.97271 0.0
C803 C 0.32174 0.4672 0.97192 0.0
C804 C 0.39097 0.49105 0.93154 0.0
H805 H 0.31391 0.51789 0.95005 0.0
C806 C 0.33269 0.59599 0.90902 0.0
O807 O 0.45428 0.7249 0.90274 0.0
O808 O 0.39019 0.67827 0.91783 0.0
N809 N 0.42671 0.53221 0.88803 0.0
C810 C 0.45783 0.54596 0.86532 0.0
C811 C 0.48552 0.52748 0.86303 0.0
C812 C 0.48068 0.49489 0.88404 0.0
C813 C 0.44849 0.48146 0.90734 0.0
C814 C 0.42238 0.50161 0.90874 0.0
H815 H 0.46152 0.57095 0.84924 0.0
O816 O 0.44899 0.65731 0.95233 0.0
O817 O 0.42566 0.60213 0.91822 0.0
O818 O 0.42148 0.65093 0.85909 0.0
O819 O 0.39314 0.57773 0.85367 0.0
C820 C 0.44117 0.44883 0.92917 0.0
C821 C 0.4075 0.43645 0.95153 0.0
H822 H 0.33708 0.41855 0.98896 0.0
H823 H 0.29399 0.4577 0.98735 0.0
H824 H 0.51031 0.53811 0.845 0.0
H825 H 0.50184 0.48043 0.88206 0.0
H826 H 0.46078 0.43257 0.92867 0.0
H827 H 0.40141 0.41056 0.96768 0.0
Mn828 Mn 0.80051 0.44458 0.06447 0.0
Mn829 Mn 0.86919 0.40149 0.06403 0.0
C830 C 0.84051 0.45062 0.11166 0.0
C831 C 0.71967 0.4193 0.06111 0.0
C832 C 0.83588 0.42769 0.0057 0.0
O833 O 0.76046 0.37597 0.06876 0.0
O834 O 0.80794 0.35151 0.05642 0.0
C835 C 0.84629 0.3413 0.11739 0.0
N836 N 0.87617 0.37891 0.10329 0.0
C837 C 0.93603 0.38698 0.13817 0.0
C838 C 0.90601 0.34796 0.15269 0.0
C839 C 0.86083 0.32539 0.14254 0.0
C840 C 0.91964 0.40114 0.11313 0.0
H841 H 0.81186 0.32287 0.10899 0.0
C842 C 0.76872 0.34504 0.06096 0.0
O843 O 0.74974 0.45642 0.05238 0.0
O844 O 0.73507 0.39514 0.07118 0.0
N845 N 0.92967 0.44724 0.07141 0.0
C846 C 0.95501 0.48229 0.05325 0.0
C847 C 0.00055 0.50978 0.06136 0.0
C848 C 0.01977 0.50023 0.0875 0.0
C849 C 0.99319 0.46334 0.10537 0.0
C850 C 0.94779 0.43777 0.09661 0.0
H851 H 0.9405 0.48923 0.0328 0.0
O852 O 0.80693 0.45742 0.11135 0.0
O853 O 0.84637 0.43649 0.08449 0.0
O854 O 0.80388 0.43008 0.0182 0.0
O855 O 0.86548 0.42371 0.02175 0.0
C856 C 0.01007 0.45065 0.13129 0.0
C857 C 0.9816 0.41224 0.14748 0.0
H858 H 0.91713 0.33548 0.17201 0.0
H859 H 0.8374 0.2954 0.15375 0.0
H860 H 0.02091 0.53795 0.04728 0.0
H861 H 0.05502 0.52119 0.09344 0.0
H862 H 0.04503 0.46981 0.13867 0.0
H863 H 0.99507 0.40242 0.16707 0.0
Mn864 Mn 0.39263 0.77405 0.24304 0.0
Mn865 Mn 0.49306 0.77984 0.24166 0.0
C866 C 0.45089 0.82696 0.27446 0.0
C867 C 0.3217 0.74399 0.26278 0.0
C868 C 0.45936 0.81632 0.19052 0.0
O869 O 0.37777 0.71591 0.22222 0.0
O870 O 0.44552 0.72165 0.22376 0.0
C871 C 0.47466 0.71239 0.28916 0.0
N872 N 0.50035 0.7542 0.27923 0.0
C873 C 0.54903 0.77431 0.32566 0.0
C874 C 0.52349 0.73127 0.33616 0.0
C875 C 0.48608 0.70022 0.31785 0.0
C876 C 0.53622 0.7844 0.29675 0.0
H877 H 0.44552 0.68861 0.27541 0.0
C878 C 0.40362 0.70083 0.21657 0.0
O879 O 0.33032 0.76106 0.23499 0.0
O880 O 0.35389 0.74338 0.27871 0.0
N881 N 0.54271 0.83357 0.25815 0.0
C882 C 0.56323 0.87389 0.24497 0.0
C883 C 0.60067 0.90898 0.26073 0.0
C884 C 0.61691 0.90215 0.28961 0.0
C885 C 0.59583 0.86015 0.30235 0.0
C886 C 0.55889 0.82634 0.28545 0.0
H887 H 0.55088 0.87934 0.22281 0.0
O888 O 0.4164 0.83069 0.26686 0.0
O889 O 0.44995 0.79138 0.26357 0.0
O890 O 0.42207 0.80585 0.20278 0.0
O891 O 0.48831 0.80785 0.20269 0.0
C892 C 0.60964 0.85064 0.33134 0.0
C893 C 0.58624 0.80775 0.343 0.0
H894 H 0.53202 0.72184 0.35838 0.0
H895 H 0.46597 0.66704 0.32591 0.0
H896 H 0.61689 0.94125 0.25068 0.0
H897 H 0.64555 0.92939 0.30182 0.0
H898 H 0.63801 0.87615 0.34498 0.0
H899 H 0.59693 0.80094 0.36545 0.0
loop_
_geom_bond_atom_site_label_1
_geom_bond_atom_site_label_2
_geom_bond_distance
_geom_bond_site_symmetry_2
_ccdc_geom_bond_type
C0 C1 1.560 . S
C0 H61 0.959 . S
C0 H62 0.959 . S
C0 H63 0.960 . S
C1 C0 1.560 . S
C1 O56 1.426 . S
C1 H60 0.980 . S
C2 C3 1.407 . S
C2 C7 1.418 . S
C2 O56 1.334 . S
C3 C2 1.407 . S
C3 C4 1.360 . S
C3 H64 0.929 . S
C4 C3 1.360 . S
C4 C5 1.401 . S
C4 C8 1.527 . S
C5 C4 1.401 . S
C5 C6 1.405 . S
C5 C38 1.587 . S
C6 C5 1.405 . S
C6 C7 1.332 . S
C6 C9 1.496 . S
C7 C2 1.418 . S
C7 C6 1.332 . S
C7 H65 0.929 . S
C8 C4 1.527 . S
C8 H66 0.959 . S
C8 H67 0.961 . S
C8 H68 0.961 . S
C9 C6 1.496 . S
C9 H69 0.960 . S
C9 H70 0.960 . S
C9 H71 0.961 . S
C10 C11 1.517 . S
C10 H73 0.961 . S
C10 H74 0.960 . S
C10 H75 0.959 . S
C11 C10 1.517 . S
C11 O59 1.468 . S
C11 H72 0.980 . S
C12 C13 1.349 . S
C12 C17 1.367 . S
C12 O59 1.408 . S
C13 C12 1.349 . S
C13 C14 1.407 . S
C13 H76 0.930 . S
C14 C13 1.407 . S
C14 C15 1.449 . S
C14 C18 1.535 . S
C15 C14 1.449 . S
C15 C16 1.384 . S
C15 C40 1.553 1_655 S
C16 C15 1.384 . S
C16 C17 1.364 . S
C16 C19 1.450 . S
C17 C12 1.367 . S
C17 C16 1.364 . S
C17 H77 0.931 . S
C18 C14 1.535 . S
C18 H78 0.959 1_655 S
C18 H79 0.961 . S
C18 H80 0.959 . S
C19 C16 1.450 . S
C19 H81 0.960 . S
C19 H82 0.960 1_655 S
C19 H83 0.960 . S
C20 C21 1.309 . S
C20 C25 1.304 . S
C20 O58 1.435 . S
C21 C20 1.309 . S
C21 C22 1.476 . S
C21 H85 0.930 . S
C22 C21 1.476 . S
C22 C23 1.400 . S
C22 C26 1.567 . S
C23 C22 1.400 . S
C23 C24 1.373 . S
C23 C45 1.432 . S
C24 C23 1.373 . S
C24 C25 1.339 . S
C24 C27 1.530 . S
C25 C20 1.304 . S
C25 C24 1.339 . S
C25 H86 0.930 . S
C26 C22 1.567 . S
C26 H87 0.961 . S
C26 H88 0.960 . S
C26 H89 0.958 . S
C27 C24 1.530 . S
C27 H90 0.961 . S
C27 H91 0.960 . S
C27 H92 0.960 . S
C28 C29 1.530 . S
C28 H94 0.961 . S
C28 H95 0.961 . S
C28 H96 0.959 . S
C29 C28 1.530 . S
C29 O57 1.412 . S
C29 H93 0.980 . S
C30 C31 1.288 . S
C30 C35 1.377 . S
C30 O57 1.393 . S
C31 C30 1.288 . S
C31 C32 1.369 . S
C31 H97 0.932 . S
C32 C31 1.369 . S
C32 C33 1.398 . S
C32 C36 1.527 . S
C33 C32 1.398 . S
C33 C34 1.380 . S
C33 C47 1.497 . S
C34 C33 1.380 . S
C34 C35 1.383 . S
C34 C37 1.603 . S
C35 C30 1.377 . S
C35 C34 1.383 . S
C35 H98 0.929 . S
C36 C32 1.527 . S
C36 H99 0.961 . S
C36 H100 0.959 1_455 S
C36 H101 0.959 . S
C37 C34 1.603 . S
C37 H102 0.960 . S
C37 H103 0.962 . S
C37 H104 0.961 . S
C38 C5 1.587 . S
C38 C39 1.360 . S
C38 C51 1.412 . S
C39 C38 1.360 . S
C39 C40 1.365 . S
C39 H105 0.929 . S
C40 C15 1.553 1_455 S
C40 C39 1.365 . S
C40 C41 1.404 1_455 S
C41 C40 1.404 1_655 S
C41 C42 1.395 . S
C41 C52 1.451 1_655 S
C42 C41 1.395 . S
C42 C43 1.322 . S
C42 H106 0.930 . S
C43 C42 1.322 . S
C43 C44 1.459 . S
C43 H107 0.929 . S
C44 C43 1.459 . S
C44 C45 1.445 . S
C44 C53 1.395 1_655 S
C45 C23 1.432 . S
C45 C44 1.445 . S
C45 C46 1.370 . S
C46 C45 1.370 . S
C46 C47 1.438 1_655 S
C46 H108 0.930 . S
C47 C33 1.497 . S
C47 C46 1.438 1_455 S
C47 C48 1.360 . S
C48 C47 1.360 . S
C48 C49 1.401 . S
C48 C53 1.446 . S
C49 C48 1.401 . S
C49 C50 1.347 . S
C49 H109 0.929 . S
C50 C49 1.347 . S
C50 C51 1.455 . S
C50 H110 0.930 . S
C51 C38 1.412 . S
C51 C50 1.455 . S
C51 C52 1.331 . S
C52 C41 1.451 1_455 S
C52 C51 1.331 . S
C52 C53 1.497 . S
C53 C44 1.395 1_455 S
C53 C48 1.446 . S
C53 C52 1.497 . S
C54 C55 1.582 . S
C54 H111 0.962 . S
C54 H112 0.959 . S
C54 H113 0.958 . S
C55 C54 1.582 . S
C55 O58 1.458 . S
C55 H84 0.980 . S
O56 C1 1.426 . S
O56 C2 1.334 . S
O57 C29 1.412 . S
O57 C30 1.393 . S
O58 C20 1.435 . S
O58 C55 1.458 . S
O59 C11 1.468 . S
O59 C12 1.408 . S
H60 C1 0.980 . S
H61 C0 0.959 . S
H62 C0 0.959 . S
H63 C0 0.960 . S
H64 C3 0.929 . S
H65 C7 0.929 . S
H66 C8 0.959 . S
H67 C8 0.961 . S
H68 C8 0.961 . S
H69 C9 0.960 . S
H70 C9 0.960 . S
H71 C9 0.961 . S
H72 C11 0.980 . S
H73 C10 0.961 . S
H74 C10 0.960 . S
H75 C10 0.959 . S
H76 C13 0.930 . S
H77 C17 0.931 . S
H78 C18 0.959 1_455 S
H79 C18 0.961 . S
H80 C18 0.959 . S
H81 C19 0.960 . S
H82 C19 0.960 1_455 S
H83 C19 0.960 . S
H84 C55 0.980 . S
H85 C21 0.930 . S
H86 C25 0.930 . S
H87 C26 0.961 . S
H88 C26 0.960 . S
H89 C26 0.958 . S
H90 C27 0.961 . S
H91 C27 0.960 . S
H92 C27 0.960 . S
H93 C29 0.980 . S
H94 C28 0.961 . S
H95 C28 0.961 . S
H96 C28 0.959 . S
H97 C31 0.932 . S
H98 C35 0.929 . S
H99 C36 0.961 . S
H100 C36 0.959 1_655 S
H101 C36 0.959 . S
H102 C37 0.960 . S
H103 C37 0.962 . S
H104 C37 0.961 . S
H105 C39 0.929 . S
H106 C42 0.930 . S
H107 C43 0.929 . S
H108 C46 0.930 . S
H109 C49 0.929 . S
H110 C50 0.930 . S
H111 C54 0.962 . S
H112 C54 0.959 . S
H113 C54 0.958 . S
C114 C115 1.560 . S
C114 H175 0.959 . S
C114 H176 0.959 . S
C114 H177 0.960 . S
C115 C114 1.560 . S
C115 O170 1.426 . S
C115 H174 0.980 . S
C116 C117 1.407 . S
C116 C121 1.418 . S
C116 O170 1.334 . S
C117 C116 1.407 . S
C117 C118 1.360 . S
C117 H178 0.929 . S
C118 C117 1.360 . S
C118 C119 1.401 . S
C118 C122 1.527 . S
C119 C118 1.401 . S
C119 C120 1.405 . S
C119 C152 1.587 . S
C120 C119 1.405 . S
C120 C121 1.332 . S
C120 C123 1.496 . S
C121 C116 1.418 . S
C121 C120 1.332 . S
C121 H179 0.929 . S
C122 C118 1.527 . S
C122 H180 0.959 . S
C122 H181 0.961 . S
C122 H182 0.961 . S
C123 C120 1.496 . S
C123 H183 0.960 . S
C123 H184 0.960 . S
C123 H185 0.961 . S
C124 C125 1.517 . S
C124 H187 0.961 . S
C124 H188 0.960 . S
C124 H189 0.959 . S
C125 C124 1.517 . S
C125 O173 1.468 . S
C125 H186 0.980 . S
C126 C127 1.349 . S
C126 C131 1.367 . S
C126 O173 1.408 . S
C127 C126 1.349 . S
C127 C128 1.407 . S
C127 H190 0.930 . S
C128 C127 1.407 . S
C128 C129 1.449 . S
C128 C132 1.535 . S
C129 C128 1.449 . S
C129 C130 1.384 . S
C129 C154 1.553 . S
C130 C129 1.384 . S
C130 C131 1.364 . S
C130 C133 1.450 . S
C131 C126 1.367 . S
C131 C130 1.364 . S
C131 H191 0.931 . S
C132 C128 1.535 . S
C132 H192 0.959 . S
C132 H193 0.961 . S
C132 H194 0.959 . S
C133 C130 1.450 . S
C133 H195 0.960 . S
C133 H196 0.960 . S
C133 H197 0.960 . S
C134 C135 1.309 . S
C134 C139 1.304 . S
C134 O172 1.435 . S
C135 C134 1.309 . S
C135 C136 1.476 . S
C135 H199 0.930 . S
C136 C135 1.476 . S
C136 C137 1.400 . S
C136 C140 1.567 . S
C137 C136 1.400 . S
C137 C138 1.373 . S
C137 C159 1.432 . S
C138 C137 1.373 . S
C138 C139 1.339 . S
C138 C141 1.530 . S
C139 C134 1.304 . S
C139 C138 1.339 . S
C139 H200 0.930 . S
C140 C136 1.567 . S
C140 H201 0.961 . S
C140 H202 0.960 . S
C140 H203 0.958 . S
C141 C138 1.530 . S
C141 H204 0.961 . S
C141 H205 0.960 . S
C141 H206 0.960 . S
C142 C143 1.530 . S
C142 H208 0.961 . S
C142 H209 0.961 . S
C142 H210 0.959 . S
C143 C142 1.530 . S
C143 O171 1.412 . S
C143 H207 0.980 . S
C144 C145 1.288 . S
C144 C149 1.377 . S
C144 O171 1.393 . S
C145 C144 1.288 . S
C145 C146 1.369 . S
C145 H211 0.932 . S
C146 C145 1.369 . S
C146 C147 1.398 . S
C146 C150 1.534 . S
C147 C146 1.398 . S
C147 C148 1.380 . S
C147 C161 1.497 1_565 S
C148 C147 1.380 . S
C148 C149 1.383 . S
C148 C151 1.603 . S
C149 C144 1.377 . S
C149 C148 1.383 . S
C149 H212 0.929 . S
C150 C146 1.534 . S
C150 H213 0.962 . S
C150 H214 0.951 1_565 S
C150 H215 0.958 . S
C151 C148 1.603 . S
C151 H216 0.960 . S
C151 H217 0.962 . S
C151 H218 0.961 . S
C152 C119 1.587 . S
C152 C153 1.360 . S
C152 C165 1.412 . S
C153 C152 1.360 . S
C153 C154 1.365 1_565 S
C153 H219 0.929 . S
C154 C129 1.553 . S
C154 C153 1.365 1_545 S
C154 C155 1.404 . S
C155 C154 1.404 . S
C155 C156 1.395 . S
C155 C166 1.458 . S
C156 C155 1.395 . S
C156 C157 1.322 . S
C156 H220 0.930 . S
C157 C156 1.322 . S
C157 C158 1.459 . S
C157 H221 0.929 . S
C158 C157 1.459 . S
C158 C159 1.445 . S
C158 C167 1.395 . S
C159 C137 1.432 . S
C159 C158 1.445 . S
C159 C160 1.370 . S
C160 C159 1.370 . S
C160 C161 1.438 . S
C160 H222 0.930 . S
C161 C147 1.497 1_545 S
C161 C160 1.438 . S
C161 C162 1.360 1_545 S
C162 C161 1.360 1_565 S
C162 C163 1.401 . S
C162 C167 1.446 1_565 S
C163 C162 1.401 . S
C163 C164 1.347 . S
C163 H223 0.929 . S
C164 C163 1.347 . S
C164 C165 1.455 . S
C164 H224 0.930 . S
C165 C152 1.412 . S
C165 C164 1.455 . S
C165 C166 1.319 1_565 S
C166 C155 1.458 . S
C166 C165 1.319 1_545 S
C166 C167 1.502 . S
C167 C158 1.395 . S
C167 C162 1.446 1_545 S
C167 C166 1.502 . S
C168 C169 1.582 . S
C168 H225 0.962 . S
C168 H226 0.959 . S
C168 H227 0.958 . S
C169 C168 1.582 . S
C169 O172 1.458 . S
C169 H198 0.980 . S
O170 C115 1.426 . S
O170 C116 1.334 . S
O171 C143 1.412 . S
O171 C144 1.393 . S
O172 C134 1.435 . S
O172 C169 1.458 . S
O173 C125 1.468 . S
O173 C126 1.408 . S
H174 C115 0.980 . S
H175 C114 0.959 . S
H176 C114 0.959 . S
H177 C114 0.960 . S
H178 C117 0.929 . S
H179 C121 0.929 . S
H180 C122 0.959 . S
H181 C122 0.961 . S
H182 C122 0.961 . S
H183 C123 0.960 . S
H184 C123 0.960 . S
H185 C123 0.961 . S
H186 C125 0.980 . S
H187 C124 0.961 . S
H188 C124 0.960 . S
H189 C124 0.959 . S
H190 C127 0.930 . S
H191 C131 0.931 . S
H192 C132 0.959 . S
H193 C132 0.961 . S
H194 C132 0.959 . S
H195 C133 0.960 . S
H196 C133 0.960 . S
H197 C133 0.960 . S
H198 C169 0.980 . S
H199 C135 0.930 . S
H200 C139 0.930 . S
H201 C140 0.961 . S
H202 C140 0.960 . S
H203 C140 0.958 . S
H204 C141 0.961 . S
H205 C141 0.960 . S
H206 C141 0.960 . S
H207 C143 0.980 . S
H208 C142 0.961 . S
H209 C142 0.961 . S
H210 C142 0.959 . S
H211 C145 0.932 . S
H212 C149 0.929 . S
H213 C150 0.962 . S
H214 C150 0.951 1_545 S
H215 C150 0.958 . S
H216 C151 0.960 . S
H217 C151 0.962 . S
H218 C151 0.961 . S
H219 C153 0.929 . S
H220 C156 0.930 . S
H221 C157 0.929 . S
H222 C160 0.930 . S
H223 C163 0.929 . S
H224 C164 0.930 . S
H225 C168 0.962 . S
H226 C168 0.959 . S
H227 C168 0.958 . S
C228 C229 1.560 . S
C228 H289 0.959 . S
C228 H290 0.959 . S
C228 H291 0.960 . S
C229 C228 1.560 . S
C229 O284 1.426 . S
C229 H288 0.980 . S
C230 C231 1.407 . S
C230 C235 1.418 . S
C230 O284 1.334 . S
C231 C230 1.407 . S
C231 C232 1.360 . S
C231 H292 0.929 . S
C232 C231 1.360 . S
C232 C233 1.401 . S
C232 C236 1.527 . S
C233 C232 1.401 . S
C233 C234 1.405 . S
C233 C266 1.587 . S
C234 C233 1.405 . S
C234 C235 1.332 . S
C234 C237 1.496 . S
C235 C230 1.418 . S
C235 C234 1.332 . S
C235 H293 0.929 . S
C236 C232 1.527 . S
C236 H294 0.959 . S
C236 H295 0.961 . S
C236 H296 0.961 . S
C237 C234 1.496 . S
C237 H297 0.960 . S
C237 H298 0.960 . S
C237 H299 0.961 . S
C238 C239 1.517 . S
C238 H301 0.961 . S
C238 H302 0.960 . S
C238 H303 0.959 . S
C239 C238 1.517 . S
C239 O287 1.468 . S
C239 H300 0.980 . S
C240 C241 1.349 . S
C240 C245 1.367 . S
C240 O287 1.408 . S
C241 C240 1.349 . S
C241 C242 1.407 . S
C241 H304 0.930 . S
C242 C241 1.407 . S
C242 C243 1.449 . S
C242 C246 1.535 . S
C243 C242 1.449 . S
C243 C244 1.384 . S
C243 C268 1.553 . S
C244 C243 1.384 . S
C244 C245 1.364 . S
C244 C247 1.450 . S
C245 C240 1.367 . S
C245 C244 1.364 . S
C245 H305 0.931 . S
C246 C242 1.535 . S
C246 H306 0.959 . S
C246 H307 0.961 . S
C246 H308 0.959 . S
C247 C244 1.450 . S
C247 H309 0.960 . S
C247 H310 0.960 . S
C247 H311 0.960 . S
C248 C249 1.309 . S
C248 C253 1.304 . S
C248 O286 1.435 . S
C249 C248 1.309 . S
C249 C250 1.476 . S
C249 H313 0.930 . S
C250 C249 1.476 . S
C250 C251 1.400 . S
C250 C254 1.567 . S
C251 C250 1.400 . S
C251 C252 1.373 . S
C251 C273 1.432 . S
C252 C251 1.373 . S
C252 C253 1.339 . S
C252 C255 1.530 . S
C253 C248 1.304 . S
C253 C252 1.339 . S
C253 H314 0.930 . S
C254 C250 1.567 . S
C254 H315 0.961 . S
C254 H316 0.960 . S
C254 H317 0.958 . S
C255 C252 1.530 . S
C255 H318 0.961 . S
C255 H319 0.960 . S
C255 H320 0.960 . S
C256 C257 1.530 . S
C256 H322 0.961 . S
C256 H323 0.961 . S
C256 H324 0.959 . S
C257 C256 1.530 . S
C257 O285 1.412 . S
C257 H321 0.980 . S
C258 C259 1.288 . S
C258 C263 1.377 . S
C258 O285 1.393 . S
C259 C258 1.288 . S
C259 C260 1.369 . S
C259 H325 0.932 . S
C260 C259 1.369 . S
C260 C261 1.398 . S
C260 C264 1.527 . S
C261 C260 1.398 . S
C261 C262 1.380 . S
C261 C275 1.497 . S
C262 C261 1.380 . S
C262 C263 1.383 . S
C262 C265 1.603 . S
C263 C258 1.377 . S
C263 C262 1.383 . S
C263 H326 0.929 . S
C264 C260 1.527 . S
C264 H327 0.961 . S
C264 H328 0.959 . S
C264 H329 0.959 . S
C265 C262 1.603 . S
C265 H330 0.960 . S
C265 H331 0.962 . S
C265 H332 0.961 . S
C266 C233 1.587 . S
C266 C267 1.360 . S
C266 C279 1.412 . S
C267 C266 1.360 . S
C267 C268 1.365 . S
C267 H333 0.929 . S
C268 C243 1.553 . S
C268 C267 1.365 . S
C268 C269 1.404 . S
C269 C268 1.404 . S
C269 C270 1.395 . S
C269 C280 1.451 . S
C270 C269 1.395 . S
C270 C271 1.322 . S
C270 H334 0.930 . S
C271 C270 1.322 . S
C271 C272 1.459 . S
C271 H335 0.929 . S
C272 C271 1.459 . S
C272 C273 1.445 . S
C272 C281 1.395 . S
C273 C251 1.432 . S
C273 C272 1.445 . S
C273 C274 1.370 . S
C274 C273 1.370 . S
C274 C275 1.438 . S
C274 H336 0.930 . S
C275 C261 1.497 . S
C275 C274 1.438 . S
C275 C276 1.360 . S
C276 C275 1.360 . S
C276 C277 1.401 . S
C276 C281 1.446 . S
C277 C276 1.401 . S
C277 C278 1.347 . S
C277 H337 0.929 . S
C278 C277 1.347 . S
C278 C279 1.455 . S
C278 H338 0.930 . S
C279 C266 1.412 . S
C279 C278 1.455 . S
C279 C280 1.331 . S
C280 C269 1.451 . S
C280 C279 1.331 . S
C280 C281 1.497 . S
C281 C272 1.395 . S
C281 C276 1.446 . S
C281 C280 1.497 . S
C282 C283 1.582 . S
C282 H339 0.962 . S
C282 H340 0.959 . S
C282 H341 0.958 . S
C283 C282 1.582 . S
C283 O286 1.458 . S
C283 H312 0.980 . S
O284 C229 1.426 . S
O284 C230 1.334 . S
O285 C257 1.412 . S
O285 C258 1.393 . S
O286 C248 1.435 . S
O286 C283 1.458 . S
O287 C239 1.468 . S
O287 C240 1.408 . S
H288 C229 0.980 . S
H289 C228 0.959 . S
H290 C228 0.959 . S
H291 C228 0.960 . S
H292 C231 0.929 . S
H293 C235 0.929 . S
H294 C236 0.959 . S
H295 C236 0.961 . S
H296 C236 0.961 . S
H297 C237 0.960 . S
H298 C237 0.960 . S
H299 C237 0.961 . S
H300 C239 0.980 . S
H301 C238 0.961 . S
H302 C238 0.960 . S
H303 C238 0.959 . S
H304 C241 0.930 . S
H305 C245 0.931 . S
H306 C246 0.959 . S
H307 C246 0.961 . S
H308 C246 0.959 . S
H309 C247 0.960 . S
H310 C247 0.960 . S
H311 C247 0.960 . S
H312 C283 0.980 . S
H313 C249 0.930 . S
H314 C253 0.930 . S
H315 C254 0.961 . S
H316 C254 0.960 . S
H317 C254 0.958 . S
H318 C255 0.961 . S
H319 C255 0.960 . S
H320 C255 0.960 . S
H321 C257 0.980 . S
H322 C256 0.961 . S
H323 C256 0.961 . S
H324 C256 0.959 . S
H325 C259 0.932 . S
H326 C263 0.929 . S
H327 C264 0.961 . S
H328 C264 0.959 . S
H329 C264 0.959 . S
H330 C265 0.960 . S
H331 C265 0.962 . S
H332 C265 0.961 . S
H333 C267 0.929 . S
H334 C270 0.930 . S
H335 C271 0.929 . S
H336 C274 0.930 . S
H337 C277 0.929 . S
H338 C278 0.930 . S
H339 C282 0.962 . S
H340 C282 0.959 . S
H341 C282 0.958 . S
C342 C343 1.560 . S
C342 H403 0.959 . S
C342 H404 0.959 . S
C342 H405 0.960 . S
C343 C342 1.560 . S
C343 O398 1.426 . S
C343 H402 0.980 . S
C344 C345 1.407 . S
C344 C349 1.418 . S
C344 O398 1.334 . S
C345 C344 1.407 . S
C345 C346 1.360 . S
C345 H406 0.929 . S
C346 C345 1.360 . S
C346 C347 1.401 . S
C346 C350 1.527 . S
C347 C346 1.401 . S
C347 C348 1.405 . S
C347 C380 1.587 . S
C348 C347 1.405 . S
C348 C349 1.332 . S
C348 C351 1.496 . S
C349 C344 1.418 . S
C349 C348 1.332 . S
C349 H407 0.929 . S
C350 C346 1.527 . S
C350 H408 0.959 . S
C350 H409 0.961 . S
C350 H410 0.961 . S
C351 C348 1.496 . S
C351 H411 0.960 . S
C351 H412 0.960 . S
C351 H413 0.961 . S
C352 C353 1.517 . S
C352 H415 0.961 . S
C352 H416 0.960 . S
C352 H417 0.959 . S
C353 C352 1.517 . S
C353 O401 1.468 . S
C353 H414 0.980 . S
C354 C355 1.349 . S
C354 C359 1.367 . S
C354 O401 1.408 1_556 S
C355 C354 1.349 . S
C355 C356 1.407 . S
C355 H418 0.930 . S
C356 C355 1.407 . S
C356 C357 1.449 . S
C356 C360 1.535 . S
C357 C356 1.449 . S
C357 C358 1.384 . S
C357 C382 1.553 1_655 S
C358 C357 1.384 . S
C358 C359 1.364 . S
C358 C361 1.450 . S
C359 C354 1.367 . S
C359 C358 1.364 . S
C359 H419 0.931 . S
C360 C356 1.535 . S
C360 H420 0.959 1_655 S
C360 H421 0.961 1_655 S
C360 H422 0.959 . S
C361 C358 1.450 . S
C361 H423 0.960 . S
C361 H424 0.960 1_655 S
C361 H425 0.960 . S
C362 C363 1.309 . S
C362 C367 1.304 . S
C362 O400 1.435 . S
C363 C362 1.309 . S
C363 C364 1.476 . S
C363 H427 0.930 . S
C364 C363 1.476 . S
C364 C365 1.400 . S
C364 C368 1.567 . S
C365 C364 1.400 . S
C365 C366 1.373 . S
C365 C387 1.432 . S
C366 C365 1.373 . S
C366 C367 1.339 . S
C366 C369 1.530 . S
C367 C362 1.304 . S
C367 C366 1.339 . S
C367 H428 0.930 . S
C368 C364 1.567 . S
C368 H429 0.961 . S
C368 H430 0.960 . S
C368 H431 0.958 . S
C369 C366 1.530 . S
C369 H432 0.961 . S
C369 H433 0.960 . S
C369 H434 0.960 . S
C370 C371 1.530 . S
C370 H436 0.961 . S
C370 H437 0.961 . S
C370 H438 0.959 . S
C371 C370 1.530 . S
C371 O399 1.412 . S
C371 H435 0.980 . S
C372 C373 1.288 . S
C372 C377 1.377 . S
C372 O399 1.393 . S
C373 C372 1.288 . S
C373 C374 1.369 . S
C373 H439 0.932 . S
C374 C373 1.369 . S
C374 C375 1.398 . S
C374 C378 1.527 . S
C375 C374 1.398 . S
C375 C376 1.380 . S
C375 C389 1.497 . S
C376 C375 1.380 . S
C376 C377 1.383 . S
C376 C379 1.603 . S
C377 C372 1.377 . S
C377 C376 1.383 . S
C377 H440 0.929 . S
C378 C374 1.527 . S
C378 H441 0.961 . S
C378 H442 0.959 1_455 S
C378 H443 0.959 . S
C379 C376 1.603 . S
C379 H444 0.960 . S
C379 H445 0.962 . S
C379 H446 0.961 . S
C380 C347 1.587 . S
C380 C381 1.360 . S
C380 C393 1.412 . S
C381 C380 1.360 . S
C381 C382 1.365 . S
C381 H447 0.929 . S
C382 C357 1.553 1_455 S
C382 C381 1.365 . S
C382 C383 1.404 . S
C383 C382 1.404 . S
C383 C384 1.395 1_455 S
C383 C394 1.451 . S
C384 C383 1.395 1_655 S
C384 C385 1.322 . S
C384 H448 0.930 . S
C385 C384 1.322 . S
C385 C386 1.459 . S
C385 H449 0.929 . S
C386 C385 1.459 . S
C386 C387 1.445 . S
C386 C395 1.395 1_655 S
C387 C365 1.432 . S
C387 C386 1.445 . S
C387 C388 1.370 . S
C388 C387 1.370 . S
C388 C389 1.438 1_655 S
C388 H450 0.930 . S
C389 C375 1.497 . S
C389 C388 1.438 1_455 S
C389 C390 1.360 . S
C390 C389 1.360 . S
C390 C391 1.401 . S
C390 C395 1.446 . S
C391 C390 1.401 . S
C391 C392 1.347 . S
C391 H451 0.929 . S
C392 C391 1.347 . S
C392 C393 1.455 . S
C392 H452 0.930 . S
C393 C380 1.412 . S
C393 C392 1.455 . S
C393 C394 1.331 . S
C394 C383 1.451 . S
C394 C393 1.331 . S
C394 C395 1.497 . S
C395 C386 1.395 1_455 S
C395 C390 1.446 . S
C395 C394 1.497 . S
C396 C397 1.582 . S
C396 H453 0.962 . S
C396 H454 0.959 . S
C396 H455 0.958 . S
C397 C396 1.582 . S
C397 O400 1.458 . S
C397 H426 0.980 . S
O398 C343 1.426 . S
O398 C344 1.334 . S
O399 C371 1.412 . S
O399 C372 1.393 . S
O400 C362 1.435 . S
O400 C397 1.458 . S
O401 C353 1.468 . S
O401 C354 1.408 1_554 S
H402 C343 0.980 . S
H403 C342 0.959 . S
H404 C342 0.959 . S
H405 C342 0.960 . S
H406 C345 0.929 . S
H407 C349 0.929 . S
H408 C350 0.959 . S
H409 C350 0.961 . S
H410 C350 0.961 . S
H411 C351 0.960 . S
H412 C351 0.960 . S
H413 C351 0.961 . S
H414 C353 0.980 . S
H415 C352 0.961 . S
H416 C352 0.960 . S
H417 C352 0.959 . S
H418 C355 0.930 . S
H419 C359 0.931 . S
H420 C360 0.959 1_455 S
H421 C360 0.961 1_455 S
H422 C360 0.959 . S
H423 C361 0.960 . S
H424 C361 0.960 1_455 S
H425 C361 0.960 . S
H426 C397 0.980 . S
H427 C363 0.930 . S
H428 C367 0.930 . S
H429 C368 0.961 . S
H430 C368 0.960 . S
H431 C368 0.958 . S
H432 C369 0.961 . S
H433 C369 0.960 . S
H434 C369 0.960 . S
H435 C371 0.980 . S
H436 C370 0.961 . S
H437 C370 0.961 . S
H438 C370 0.959 . S
H439 C373 0.932 . S
H440 C377 0.929 . S
H441 C378 0.961 . S
H442 C378 0.959 1_655 S
H443 C378 0.959 . S
H444 C379 0.960 . S
H445 C379 0.962 . S
H446 C379 0.961 . S
H447 C381 0.929 . S
H448 C384 0.930 . S
H449 C385 0.929 . S
H450 C388 0.930 . S
H451 C391 0.929 . S
H452 C392 0.930 . S
H453 C396 0.962 . S
H454 C396 0.959 . S
H455 C396 0.958 . S
C456 C457 1.560 . S
C456 H517 0.959 . S
C456 H518 0.959 . S
C456 H519 0.960 . S
C457 C456 1.560 . S
C457 O512 1.426 . S
C457 H516 0.980 . S
C458 C459 1.407 . S
C458 C463 1.418 . S
C458 O512 1.334 . S
C459 C458 1.407 . S
C459 C460 1.360 . S
C459 H520 0.929 . S
C460 C459 1.360 . S
C460 C461 1.401 . S
C460 C464 1.527 . S
C461 C460 1.401 . S
C461 C462 1.405 . S
C461 C494 1.587 . S
C462 C461 1.405 . S
C462 C463 1.332 . S
C462 C465 1.496 . S
C463 C458 1.418 . S
C463 C462 1.332 . S
C463 H521 0.929 . S
C464 C460 1.527 . S
C464 H522 0.959 . S
C464 H523 0.961 . S
C464 H524 0.961 . S
C465 C462 1.496 . S
C465 H525 0.960 . S
C465 H526 0.960 . S
C465 H527 0.961 . S
C466 C467 1.517 . S
C466 H529 0.961 . S
C466 H530 0.960 . S
C466 H531 0.959 . S
C467 C466 1.517 . S
C467 O515 1.468 . S
C467 H528 0.980 . S
C468 C469 1.349 . S
C468 C473 1.367 . S
C468 O515 1.408 . S
C469 C468 1.349 . S
C469 C470 1.407 . S
C469 H532 0.930 . S
C470 C469 1.407 . S
C470 C471 1.449 . S
C470 C474 1.535 . S
C471 C470 1.449 . S
C471 C472 1.384 . S
C471 C496 1.553 . S
C472 C471 1.384 . S
C472 C473 1.364 . S
C472 C475 1.450 . S
C473 C468 1.367 . S
C473 C472 1.364 . S
C473 H533 0.931 . S
C474 C470 1.535 . S
C474 H534 0.959 . S
C474 H535 0.961 . S
C474 H536 0.959 . S
C475 C472 1.450 . S
C475 H537 0.960 . S
C475 H538 0.960 . S
C475 H539 0.960 . S
C476 C477 1.309 . S
C476 C481 1.304 . S
C476 O514 1.435 . S
C477 C476 1.309 . S
C477 C478 1.476 . S
C477 H541 0.930 . S
C478 C477 1.476 . S
C478 C479 1.400 . S
C478 C482 1.567 . S
C479 C478 1.400 . S
C479 C480 1.373 . S
C479 C501 1.432 . S
C480 C479 1.373 . S
C480 C481 1.339 . S
C480 C483 1.530 . S
C481 C476 1.304 . S
C481 C480 1.339 . S
C481 H542 0.930 . S
C482 C478 1.567 . S
C482 H543 0.961 . S
C482 H544 0.960 . S
C482 H545 0.958 . S
C483 C480 1.530 . S
C483 H546 0.961 . S
C483 H547 0.960 . S
C483 H548 0.960 . S
C484 C485 1.530 . S
C484 H550 0.961 . S
C484 H551 0.961 . S
C484 H552 0.959 . S
C485 C484 1.530 . S
C485 O513 1.412 . S
C485 H549 0.980 . S
C486 C487 1.288 . S
C486 C491 1.377 . S
C486 O513 1.393 . S
C487 C486 1.288 . S
C487 C488 1.369 . S
C487 H553 0.932 . S
C488 C487 1.369 . S
C488 C489 1.398 . S
C488 C492 1.527 1_565 S
C489 C488 1.398 . S
C489 C490 1.380 . S
C489 C503 1.497 1_565 S
C490 C489 1.380 . S
C490 C491 1.383 . S
C490 C493 1.603 . S
C491 C486 1.377 . S
C491 C490 1.383 . S
C491 H554 0.929 . S
C492 C488 1.527 1_545 S
C492 H555 0.961 . S
C492 H556 0.959 . S
C492 H557 0.969 . S
C493 C490 1.603 . S
C493 H558 0.960 . S
C493 H559 0.962 . S
C493 H560 0.961 . S
C494 C461 1.587 . S
C494 C495 1.360 . S
C494 C507 1.412 . S
C495 C494 1.360 . S
C495 C496 1.365 1_565 S
C495 H561 0.929 . S
C496 C471 1.553 . S
C496 C495 1.365 1_545 S
C496 C497 1.404 . S
C497 C496 1.404 . S
C497 C498 1.395 . S
C497 C508 1.451 . S
C498 C497 1.395 . S
C498 C499 1.322 . S
C498 H562 0.930 . S
C499 C498 1.322 . S
C499 C500 1.459 1_556 S
C499 H563 0.929 . S
C500 C499 1.459 1_554 S
C500 C501 1.445 . S
C500 C509 1.395 . S
C501 C479 1.432 . S
C501 C500 1.445 . S
C501 C502 1.370 . S
C502 C501 1.370 . S
C502 C503 1.438 . S
C502 H564 0.930 . S
C503 C489 1.497 1_545 S
C503 C502 1.438 . S
C503 C504 1.360 1_545 S
C504 C503 1.360 1_565 S
C504 C505 1.401 . S
C504 C509 1.446 1_565 S
C505 C504 1.401 . S
C505 C506 1.347 1_554 S
C505 H565 0.929 . S
C506 C505 1.347 1_556 S
C506 C507 1.455 . S
C506 H566 0.930 . S
C507 C494 1.412 . S
C507 C506 1.455 . S
C507 C508 1.331 1_565 S
C508 C497 1.451 . S
C508 C507 1.331 1_545 S
C508 C509 1.497 1_556 S
C509 C500 1.395 . S
C509 C504 1.446 1_545 S
C509 C508 1.497 1_554 S
C510 C511 1.582 . S
C510 H567 0.962 . S
C510 H568 0.959 . S
C510 H569 0.958 . S
C511 C510 1.582 . S
C511 O514 1.458 . S
C511 H540 0.980 . S
O512 C457 1.426 . S
O512 C458 1.334 . S
O513 C485 1.412 . S
O513 C486 1.393 . S
O514 C476 1.435 . S
O514 C511 1.458 . S
O515 C467 1.468 . S
O515 C468 1.408 . S
H516 C457 0.980 . S
H517 C456 0.959 . S
H518 C456 0.959 . S
H519 C456 0.960 . S
H520 C459 0.929 . S
H521 C463 0.929 . S
H522 C464 0.959 . S
H523 C464 0.961 . S
H524 C464 0.961 . S
H525 C465 0.960 . S
H526 C465 0.960 . S
H527 C465 0.961 . S
H528 C467 0.980 . S
H529 C466 0.961 . S
H530 C466 0.960 . S
H531 C466 0.959 . S
H532 C469 0.930 . S
H533 C473 0.931 . S
H534 C474 0.959 . S
H535 C474 0.961 . S
H536 C474 0.959 . S
H537 C475 0.960 . S
H538 C475 0.960 . S
H539 C475 0.960 . S
H540 C511 0.980 . S
H541 C477 0.930 . S
H542 C481 0.930 . S
H543 C482 0.961 . S
H544 C482 0.960 . S
H545 C482 0.958 . S
H546 C483 0.961 . S
H547 C483 0.960 . S
H548 C483 0.960 . S
H549 C485 0.980 . S
H550 C484 0.961 . S
H551 C484 0.961 . S
H552 C484 0.959 . S
H553 C487 0.932 . S
H554 C491 0.929 . S
H555 C492 0.961 . S
H556 C492 0.959 . S
H557 C492 0.969 . S
H558 C493 0.960 . S
H559 C493 0.962 . S
H560 C493 0.961 . S
H561 C495 0.929 . S
H562 C498 0.930 . S
H563 C499 0.929 . S
H564 C502 0.930 . S
H565 C505 0.929 . S
H566 C506 0.930 . S
H567 C510 0.962 . S
H568 C510 0.959 . S
H569 C510 0.958 . S
C570 C571 1.560 . S
C570 H631 0.959 . S
C570 H632 0.959 . S
C570 H633 0.960 . S
C571 C570 1.560 . S
C571 O626 1.426 . S
C571 H630 0.980 . S
C572 C573 1.407 . S
C572 C577 1.418 . S
C572 O626 1.334 . S
C573 C572 1.407 . S
C573 C574 1.360 . S
C573 H634 0.929 . S
C574 C573 1.360 . S
C574 C575 1.401 . S
C574 C578 1.527 . S
C575 C574 1.401 . S
C575 C576 1.405 . S
C575 C608 1.587 . S
C576 C575 1.405 . S
C576 C577 1.332 . S
C576 C579 1.496 . S
C577 C572 1.418 . S
C577 C576 1.332 . S
C577 H635 0.929 . S
C578 C574 1.527 . S
C578 H636 0.959 . S
C578 H637 0.961 . S
C578 H638 0.961 . S
C579 C576 1.496 . S
C579 H639 0.960 . S
C579 H640 0.960 . S
C579 H641 0.961 . S
C580 C581 1.517 . S
C580 H643 0.961 . S
C580 H644 0.960 . S
C580 H645 0.959 . S
C581 C580 1.517 . S
C581 O629 1.468 . S
C581 H642 0.980 . S
C582 C583 1.349 1_556 S
C582 C587 1.367 1_556 S
C582 O629 1.408 . S
C583 C582 1.349 1_554 S
C583 C584 1.407 . S
C583 H646 0.930 1_554 S
C584 C583 1.407 . S
C584 C585 1.449 . S
C584 C588 1.535 . S
C585 C584 1.449 . S
C585 C586 1.384 . S
C585 C610 1.553 . S
C586 C585 1.384 . S
C586 C587 1.364 . S
C586 C589 1.450 . S
C587 C582 1.367 1_554 S
C587 C586 1.364 . S
C587 H647 0.931 . S
C588 C584 1.535 . S
C588 H648 0.959 . S
C588 H649 0.961 . S
C588 H650 0.959 . S
C589 C586 1.450 . S
C589 H651 0.960 . S
C589 H652 0.960 . S
C589 H653 0.960 . S
C590 C591 1.309 . S
C590 C595 1.304 . S
C590 O628 1.435 . S
C591 C590 1.309 . S
C591 C592 1.476 . S
C591 H655 0.930 . S
C592 C591 1.476 . S
C592 C593 1.400 . S
C592 C596 1.567 . S
C593 C592 1.400 . S
C593 C594 1.373 . S
C593 C615 1.432 . S
C594 C593 1.373 . S
C594 C595 1.339 . S
C594 C597 1.530 . S
C595 C590 1.304 . S
C595 C594 1.339 . S
C595 H656 0.930 . S
C596 C592 1.567 . S
C596 H657 0.961 . S
C596 H658 0.960 . S
C596 H659 0.958 . S
C597 C594 1.530 . S
C597 H660 0.961 . S
C597 H661 0.960 . S
C597 H662 0.960 . S
C598 C599 1.530 . S
C598 H664 0.961 . S
C598 H665 0.961 . S
C598 H666 0.959 . S
C599 C598 1.530 . S
C599 O627 1.412 . S
C599 H663 0.980 . S
C600 C601 1.288 . S
C600 C605 1.377 . S
C600 O627 1.393 . S
C601 C600 1.288 . S
C601 C602 1.369 . S
C601 H667 0.932 . S
C602 C601 1.369 . S
C602 C603 1.398 . S
C602 C606 1.527 . S
C603 C602 1.398 . S
C603 C604 1.380 . S
C603 C617 1.497 . S
C604 C603 1.380 . S
C604 C605 1.383 . S
C604 C607 1.603 . S
C605 C600 1.377 . S
C605 C604 1.383 . S
C605 H668 0.929 . S
C606 C602 1.527 . S
C606 H669 0.961 . S
C606 H670 0.959 . S
C606 H671 0.959 . S
C607 C604 1.603 . S
C607 H672 0.960 . S
C607 H673 0.962 . S
C607 H674 0.961 . S
C608 C575 1.587 . S
C608 C609 1.360 . S
C608 C621 1.412 . S
C609 C608 1.360 . S
C609 C610 1.365 . S
C609 H675 0.929 . S
C610 C585 1.553 . S
C610 C609 1.365 . S
C610 C611 1.404 . S
C611 C610 1.404 . S
C611 C612 1.395 . S
C611 C622 1.451 . S
C612 C611 1.395 . S
C612 C613 1.322 . S
C612 H676 0.930 . S
C613 C612 1.322 . S
C613 C614 1.459 . S
C613 H677 0.929 . S
C614 C613 1.459 . S
C614 C615 1.445 . S
C614 C623 1.395 . S
C615 C593 1.432 . S
C615 C614 1.445 . S
C615 C616 1.370 . S
C616 C615 1.370 . S
C616 C617 1.438 . S
C616 H678 0.930 . S
C617 C603 1.497 . S
C617 C616 1.438 . S
C617 C618 1.360 . S
C618 C617 1.360 . S
C618 C619 1.401 . S
C618 C623 1.446 . S
C619 C618 1.401 . S
C619 C620 1.347 . S
C619 H679 0.929 . S
C620 C619 1.347 . S
C620 C621 1.455 . S
C620 H680 0.930 . S
C621 C608 1.412 . S
C621 C620 1.455 . S
C621 C622 1.331 . S
C622 C611 1.451 . S
C622 C621 1.331 . S
C622 C623 1.497 . S
C623 C614 1.395 . S
C623 C618 1.446 . S
C623 C622 1.497 . S
C624 C625 1.582 . S
C624 H681 0.962 . S
C624 H682 0.959 . S
C624 H683 0.958 . S
C625 C624 1.582 . S
C625 O628 1.458 . S
C625 H654 0.980 . S
O626 C571 1.426 . S
O626 C572 1.334 . S
O627 C599 1.412 . S
O627 C600 1.393 . S
O628 C590 1.435 . S
O628 C625 1.458 . S
O629 C581 1.468 . S
O629 C582 1.408 . S
H630 C571 0.980 . S
H631 C570 0.959 . S
H632 C570 0.959 . S
H633 C570 0.960 . S
H634 C573 0.929 . S
H635 C577 0.929 . S
H636 C578 0.959 . S
H637 C578 0.961 . S
H638 C578 0.961 . S
H639 C579 0.960 . S
H640 C579 0.960 . S
H641 C579 0.961 . S
H642 C581 0.980 . S
H643 C580 0.961 . S
H644 C580 0.960 . S
H645 C580 0.959 . S
H646 C583 0.930 1_556 S
H647 C587 0.931 . S
H648 C588 0.959 . S
H649 C588 0.961 . S
H650 C588 0.959 . S
H651 C589 0.960 . S
H652 C589 0.960 . S
H653 C589 0.960 . S
H654 C625 0.980 . S
H655 C591 0.930 . S
H656 C595 0.930 . S
H657 C596 0.961 . S
H658 C596 0.960 . S
H659 C596 0.958 . S
H660 C597 0.961 . S
H661 C597 0.960 . S
H662 C597 0.960 . S
H663 C599 0.980 . S
H664 C598 0.961 . S
H665 C598 0.961 . S
H666 C598 0.959 . S
H667 C601 0.932 . S
H668 C605 0.929 . S
H669 C606 0.961 . S
H670 C606 0.959 . S
H671 C606 0.959 . S
H672 C607 0.960 . S
H673 C607 0.962 . S
H674 C607 0.961 . S
H675 C609 0.929 . S
H676 C612 0.930 . S
H677 C613 0.929 . S
H678 C616 0.930 . S
H679 C619 0.929 . S
H680 C620 0.930 . S
H681 C624 0.962 . S
H682 C624 0.959 . S
H683 C624 0.958 . S
Mn684 O689 2.095 . S
Mn684 O699 2.162 . S
Mn684 O700 2.297 . S
Mn684 O708 2.385 . S
Mn684 O709 2.209 . S
Mn684 O710 2.094 . S
Mn685 O690 2.121 . S
Mn685 N692 2.257 . S
Mn685 N701 2.282 . S
Mn685 O709 2.215 . S
Mn685 O711 2.117 . S
C686 O708 1.234 . S
C686 O709 1.283 . S
C687 O699 1.281 . S
C687 O700 1.236 . S
C688 O710 1.240 . S
C688 O711 1.264 . S
O689 Mn684 2.095 . S
O689 C698 1.250 . S
O690 Mn685 2.121 . S
O690 C698 1.258 . S
C691 N692 1.326 . S
C691 C695 1.460 . S
C691 H697 0.929 . S
N692 Mn685 2.257 . S
N692 C691 1.326 . S
N692 C696 1.362 . S
C693 C694 1.258 . S
C693 C696 1.431 . S
C693 C713 1.449 . S
C694 C693 1.258 . S
C694 C695 1.477 . S
C694 H714 0.931 . S
C695 C691 1.460 . S
C695 C694 1.477 . S
C695 H715 0.930 . S
C696 N692 1.362 . S
C696 C693 1.431 . S
C696 C706 1.476 . S
H697 C691 0.929 . S
C698 O689 1.250 . S
C698 O690 1.258 . S
O699 Mn684 2.162 . S
O699 C687 1.281 . S
O700 Mn684 2.297 . S
O700 C687 1.236 . S
N701 Mn685 2.282 . S
N701 C702 1.328 . S
N701 C706 1.318 . S
C702 N701 1.328 . S
C702 C703 1.457 . S
C702 H707 0.929 . S
C703 C702 1.457 . S
C703 C704 1.291 . S
C703 H716 0.931 . S
C704 C703 1.291 . S
C704 C705 1.373 . S
C704 H717 0.929 . S
C705 C704 1.373 . S
C705 C706 1.396 . S
C705 C712 1.403 . S
C706 C696 1.476 . S
C706 N701 1.318 . S
C706 C705 1.396 . S
H707 C702 0.929 . S
O708 Mn684 2.385 . S
O708 C686 1.234 . S
O709 Mn684 2.209 . S
O709 Mn685 2.215 . S
O709 C686 1.283 . S
O710 Mn684 2.094 . S
O710 C688 1.240 . S
O711 Mn685 2.117 . S
O711 C688 1.264 . S
C712 C705 1.403 . S
C712 C713 1.399 . S
C712 H718 0.929 . S
C713 C693 1.449 . S
C713 C712 1.399 . S
C713 H719 0.930 . S
H714 C694 0.931 . S
H715 C695 0.930 . S
H716 C703 0.931 . S
H717 C704 0.929 . S
H718 C712 0.929 . S
H719 C713 0.930 . S
Mn720 O725 2.095 . S
Mn720 O735 2.162 . S
Mn720 O736 2.297 . S
Mn720 O744 2.385 . S
Mn720 O745 2.209 . S
Mn720 O746 2.094 . S
Mn721 O726 2.121 . S
Mn721 N728 2.257 . S
Mn721 N737 2.282 . S
Mn721 O745 2.215 . S
Mn721 O747 2.117 . S
C722 O744 1.234 . S
C722 O745 1.283 . S
C723 O735 1.281 . S
C723 O736 1.236 . S
C724 O746 1.240 . S
C724 O747 1.264 . S
O725 Mn720 2.095 . S
O725 C734 1.250 . S
O726 Mn721 2.121 . S
O726 C734 1.258 . S
C727 N728 1.326 . S
C727 C731 1.460 . S
C727 H733 0.929 . S
N728 Mn721 2.257 . S
N728 C727 1.326 . S
N728 C732 1.362 . S
C729 C730 1.258 . S
C729 C732 1.431 . S
C729 C749 1.449 . S
C730 C729 1.258 . S
C730 C731 1.477 . S
C730 H750 0.931 . S
C731 C727 1.460 . S
C731 C730 1.477 . S
C731 H751 0.930 . S
C732 N728 1.362 . S
C732 C729 1.431 . S
C732 C742 1.476 . S
H733 C727 0.929 . S
C734 O725 1.250 . S
C734 O726 1.258 . S
O735 Mn720 2.162 . S
O735 C723 1.281 . S
O736 Mn720 2.297 . S
O736 C723 1.236 . S
N737 Mn721 2.282 . S
N737 C738 1.328 . S
N737 C742 1.318 . S
C738 N737 1.328 . S
C738 C739 1.457 . S
C738 H743 0.929 . S
C739 C738 1.457 . S
C739 C740 1.291 . S
C739 H752 0.931 . S
C740 C739 1.291 . S
C740 C741 1.373 . S
C740 H753 0.929 1_455 S
C741 C740 1.373 . S
C741 C742 1.396 . S
C741 C748 1.403 . S
C742 C732 1.476 . S
C742 N737 1.318 . S
C742 C741 1.396 . S
H743 C738 0.929 . S
O744 Mn720 2.385 . S
O744 C722 1.234 . S
O745 Mn720 2.209 . S
O745 Mn721 2.215 . S
O745 C722 1.283 . S
O746 Mn720 2.094 . S
O746 C724 1.240 . S
O747 Mn721 2.117 . S
O747 C724 1.264 . S
C748 C741 1.403 . S
C748 C749 1.399 . S
C748 H754 0.929 . S
C749 C729 1.449 . S
C749 C748 1.399 . S
C749 H755 0.930 . S
H750 C730 0.931 . S
H751 C731 0.930 . S
H752 C739 0.931 . S
H753 C740 0.929 1_655 S
H754 C748 0.929 . S
H755 C749 0.930 . S
Mn756 O761 2.095 . S
Mn756 O771 2.162 . S
Mn756 O772 2.297 . S
Mn756 O780 2.385 . S
Mn756 O781 2.209 . S
Mn756 O782 2.094 . S
Mn757 O762 2.121 . S
Mn757 N764 2.257 . S
Mn757 N773 2.282 . S
Mn757 O781 2.215 . S
Mn757 O783 2.117 . S
C758 O780 1.234 . S
C758 O781 1.283 . S
C759 O771 1.281 . S
C759 O772 1.236 . S
C760 O782 1.240 . S
C760 O783 1.264 . S
O761 Mn756 2.095 . S
O761 C770 1.250 . S
O762 Mn757 2.121 . S
O762 C770 1.258 . S
C763 N764 1.326 . S
C763 C767 1.460 . S
C763 H769 0.929 . S
N764 Mn757 2.257 . S
N764 C763 1.326 . S
N764 C768 1.362 . S
C765 C766 1.258 . S
C765 C768 1.431 . S
C765 C785 1.449 . S
C766 C765 1.258 . S
C766 C767 1.477 . S
C766 H786 0.931 . S
C767 C763 1.460 . S
C767 C766 1.477 . S
C767 H787 0.930 . S
C768 N764 1.362 . S
C768 C765 1.431 . S
C768 C778 1.476 . S
H769 C763 0.929 . S
C770 O761 1.250 . S
C770 O762 1.258 . S
O771 Mn756 2.162 . S
O771 C759 1.281 . S
O772 Mn756 2.297 . S
O772 C759 1.236 . S
N773 Mn757 2.282 . S
N773 C774 1.328 . S
N773 C778 1.318 . S
C774 N773 1.328 . S
C774 C775 1.457 . S
C774 H779 0.929 . S
C775 C774 1.457 . S
C775 C776 1.291 . S
C775 H788 0.931 . S
C776 C775 1.291 . S
C776 C777 1.373 . S
C776 H789 0.929 1_545 S
C777 C776 1.373 . S
C777 C778 1.396 . S
C777 C784 1.403 . S
C778 C768 1.476 . S
C778 N773 1.318 . S
C778 C777 1.396 . S
H779 C774 0.929 . S
O780 Mn756 2.385 . S
O780 C758 1.234 . S
O781 Mn756 2.209 . S
O781 Mn757 2.215 . S
O781 C758 1.283 . S
O782 Mn756 2.094 . S
O782 C760 1.240 . S
O783 Mn757 2.117 . S
O783 C760 1.264 . S
C784 C777 1.403 . S
C784 C785 1.399 . S
C784 H790 0.929 . S
C785 C765 1.449 . S
C785 C784 1.399 . S
C785 H791 0.930 . S
H786 C766 0.931 . S
H787 C767 0.930 . S
H788 C775 0.931 . S
H789 C776 0.929 1_565 S
H790 C784 0.929 . S
H791 C785 0.930 . S
Mn792 O797 2.095 . S
Mn792 O807 2.162 . S
Mn792 O808 2.297 . S
Mn792 O816 2.385 . S
Mn792 O817 2.209 . S
Mn792 O818 2.094 . S
Mn793 O798 2.121 . S
Mn793 N800 2.257 . S
Mn793 N809 2.282 . S
Mn793 O817 2.215 . S
Mn793 O819 2.117 . S
C794 O816 1.234 . S
C794 O817 1.283 . S
C795 O807 1.281 . S
C795 O808 1.236 . S
C796 O818 1.240 . S
C796 O819 1.264 . S
O797 Mn792 2.095 . S
O797 C806 1.250 . S
O798 Mn793 2.121 . S
O798 C806 1.258 . S
C799 N800 1.326 . S
C799 C803 1.460 . S
C799 H805 0.929 . S
N800 Mn793 2.257 . S
N800 C799 1.326 . S
N800 C804 1.362 . S
C801 C802 1.258 . S
C801 C804 1.431 . S
C801 C821 1.439 1_556 S
C802 C801 1.258 . S
C802 C803 1.477 . S
C802 H822 0.931 1_556 S
C803 C799 1.460 . S
C803 C802 1.477 . S
C803 H823 0.930 . S
C804 N800 1.362 . S
C804 C801 1.431 . S
C804 C814 1.476 . S
H805 C799 0.929 . S
C806 O797 1.250 . S
C806 O798 1.258 . S
O807 Mn792 2.162 . S
O807 C795 1.281 . S
O808 Mn792 2.297 . S
O808 C795 1.236 . S
N809 Mn793 2.282 . S
N809 C810 1.328 . S
N809 C814 1.318 . S
C810 N809 1.328 . S
C810 C811 1.457 . S
C810 H815 0.929 . S
C811 C810 1.457 . S
C811 C812 1.291 . S
C811 H824 0.931 . S
C812 C811 1.291 . S
C812 C813 1.373 . S
C812 H825 0.929 . S
C813 C812 1.373 . S
C813 C814 1.396 . S
C813 C820 1.403 . S
C814 C804 1.476 . S
C814 N809 1.318 . S
C814 C813 1.396 . S
H815 C810 0.929 . S
O816 Mn792 2.385 . S
O816 C794 1.234 . S
O817 Mn792 2.209 . S
O817 Mn793 2.215 . S
O817 C794 1.283 . S
O818 Mn792 2.094 . S
O818 C796 1.240 . S
O819 Mn793 2.117 . S
O819 C796 1.264 . S
C820 C813 1.403 . S
C820 C821 1.391 1_556 S
C820 H826 0.919 1_556 S
C821 C801 1.439 1_554 S
C821 C820 1.391 1_554 S
C821 H827 0.949 . S
H822 C802 0.931 1_554 S
H823 C803 0.930 . S
H824 C811 0.931 . S
H825 C812 0.929 . S
H826 C820 0.919 1_554 S
H827 C821 0.949 . S
Mn828 O833 2.095 . S
Mn828 O843 2.162 . S
Mn828 O844 2.297 . S
Mn828 O852 2.385 . S
Mn828 O853 2.209 . S
Mn828 O854 2.094 . S
Mn829 O834 2.121 . S
Mn829 N836 2.257 . S
Mn829 N845 2.282 . S
Mn829 O853 2.215 . S
Mn829 O855 2.117 . S
C830 O852 1.234 . S
C830 O853 1.283 . S
C831 O843 1.281 . S
C831 O844 1.236 . S
C832 O854 1.240 . S
C832 O855 1.264 . S
O833 Mn828 2.095 . S
O833 C842 1.250 . S
O834 Mn829 2.121 . S
O834 C842 1.258 . S
C835 N836 1.326 . S
C835 C839 1.460 . S
C835 H841 0.929 . S
N836 Mn829 2.257 . S
N836 C835 1.326 . S
N836 C840 1.362 . S
C837 C838 1.258 . S
C837 C840 1.431 . S
C837 C857 1.449 . S
C838 C837 1.258 . S
C838 C839 1.477 . S
C838 H858 0.931 . S
C839 C835 1.460 . S
C839 C838 1.477 . S
C839 H859 0.930 . S
C840 N836 1.362 . S
C840 C837 1.431 . S
C840 C850 1.476 . S
H841 C835 0.929 . S
C842 O833 1.250 . S
C842 O834 1.258 . S
O843 Mn828 2.162 . S
O843 C831 1.281 . S
O844 Mn828 2.297 . S
O844 C831 1.236 . S
N845 Mn829 2.282 . S
N845 C846 1.328 . S
N845 C850 1.318 . S
C846 N845 1.328 . S
C846 C847 1.457 . S
C846 H851 0.929 . S
C847 C846 1.457 . S
C847 C848 1.291 1_655 S
C847 H860 0.931 1_655 S
C848 C847 1.291 1_455 S
C848 C849 1.373 1_455 S
C848 H861 0.929 . S
C849 C848 1.373 1_655 S
C849 C850 1.396 . S
C849 C856 1.403 . S
C850 C840 1.476 . S
C850 N845 1.318 . S
C850 C849 1.396 . S
H851 C846 0.929 . S
O852 Mn828 2.385 . S
O852 C830 1.234 . S
O853 Mn828 2.209 . S
O853 Mn829 2.215 . S
O853 C830 1.283 . S
O854 Mn828 2.094 . S
O854 C832 1.240 . S
O855 Mn829 2.117 . S
O855 C832 1.264 . S
C856 C849 1.403 . S
C856 C857 1.399 . S
C856 H862 0.929 1_655 S
C857 C837 1.449 . S
C857 C856 1.399 . S
C857 H863 0.930 . S
H858 C838 0.931 . S
H859 C839 0.930 . S
H860 C847 0.931 1_455 S
H861 C848 0.929 . S
H862 C856 0.929 1_455 S
H863 C857 0.930 . S
Mn864 O869 2.095 . S
Mn864 O879 2.162 . S
Mn864 O880 2.297 . S
Mn864 O888 2.385 . S
Mn864 O889 2.209 . S
Mn864 O890 2.094 . S
Mn865 O870 2.121 . S
Mn865 N872 2.257 . S
Mn865 N881 2.282 . S
Mn865 O889 2.215 . S
Mn865 O891 2.117 . S
C866 O888 1.234 . S
C866 O889 1.283 . S
C867 O879 1.281 . S
C867 O880 1.236 . S
C868 O890 1.240 . S
C868 O891 1.264 . S
O869 Mn864 2.095 . S
O869 C878 1.250 . S
O870 Mn865 2.121 . S
O870 C878 1.258 . S
C871 N872 1.326 . S
C871 C875 1.460 . S
C871 H877 0.929 . S
N872 Mn865 2.257 . S
N872 C871 1.326 . S
N872 C876 1.362 . S
C873 C874 1.258 . S
C873 C876 1.431 . S
C873 C893 1.449 . S
C874 C873 1.258 . S
C874 C875 1.477 . S
C874 H894 0.931 . S
C875 C871 1.460 . S
C875 C874 1.477 . S
C875 H895 0.930 . S
C876 N872 1.362 . S
C876 C873 1.431 . S
C876 C886 1.476 . S
H877 C871 0.929 . S
C878 O869 1.250 . S
C878 O870 1.258 . S
O879 Mn864 2.162 . S
O879 C867 1.281 . S
O880 Mn864 2.297 . S
O880 C867 1.236 . S
N881 Mn865 2.282 . S
N881 C882 1.328 . S
N881 C886 1.318 . S
C882 N881 1.328 . S
C882 C883 1.440 1_565 S
C882 H887 0.929 . S
C883 C882 1.440 1_545 S
C883 C884 1.289 . S
C883 H896 0.950 . S
C884 C883 1.289 . S
C884 C885 1.373 1_545 S
C884 H897 0.929 . S
C885 C884 1.373 1_565 S
C885 C886 1.396 . S
C885 C892 1.403 . S
C886 C876 1.476 . S
C886 N881 1.318 . S
C886 C885 1.396 . S
H887 C882 0.929 . S
O888 Mn864 2.385 . S
O888 C866 1.234 . S
O889 Mn864 2.209 . S
O889 Mn865 2.215 . S
O889 C866 1.283 . S
O890 Mn864 2.094 . S
O890 C868 1.240 . S
O891 Mn865 2.117 . S
O891 C868 1.264 . S
C892 C885 1.403 . S
C892 C893 1.399 . S
C892 H898 0.929 1_565 S
C893 C873 1.449 . S
C893 C892 1.399 . S
C893 H899 0.930 . S
H894 C874 0.931 . S
H895 C875 0.930 . S
H896 C883 0.950 . S
H897 C884 0.929 . S
H898 C892 0.929 1_545 S
H899 C893 0.930 . S
C867 C1 2.272 . S
C169 C687 2.936 . S
C283 C734 3.257 . S
C397 C770 2.789 . S
C795 C457 2.219 . S
C571 C831 2.147 . S
C115 C723 2.349 . S
C229 C759 2.112 . S
C343 C806 2.387 . S
C842 C511 3.086 . S
C878 C625 3.142 . S
C698 C55 3.305 . S
C29 C722 1.042 . S
C125 C758 0.909 . S
C796 C239 0.819 . S
C353 C832 0.804 . S
C868 C485 0.896 . S
C688 C599 1.097 . S
C866 C143 0.980 . S
C257 C686 1.014 . S
C724 C371 1.056 . S
C467 C760 0.893 . S
C581 C794 0.762 . S
C11 C830 0.821 . S
