# Generated by pormake.
# Topology eea, (3,6)-cn, num edge types: 1
# Building blocks:
#     Node 0, Type 0, BuildingBlock: BELTOD_clean_linker_0, # of connection points: 3
#     Node 1, Type 0, BuildingBlock: BELTOD_clean_linker_0, # of connection points: 3
#     Node 2, Type 0, BuildingBlock: BELTOD_clean_linker_0, # of connection points: 3
#     Node 3, Type 0, BuildingBlock: BELTOD_clean_linker_0, # of connection points: 3
#     Node 4, Type 0, BuildingBlock: BELTOD_clean_linker_0, # of connection points: 3
#     Node 5, Type 0, BuildingBlock: BELTOD_clean_linker_0, # of connection points: 3
#     Node 6, Type 0, BuildingBlock: BELTOD_clean_linker_0, # of connection points: 3
#     Node 7, Type 0, BuildingBlock: BELTOD_clean_linker_0, # of connection points: 3
#     Node 8, Type 0, BuildingBlock: BELTOD_clean_linker_0, # of connection points: 3
#     Node 9, Type 0, BuildingBlock: BELTOD_clean_linker_0, # of connection points: 3
#     Node 10, Type 0, BuildingBlock: BELTOD_clean_linker_0, # of connection points: 3
#     Node 11, Type 0, BuildingBlock: BELTOD_clean_linker_0, # of connection points: 3
#     Node 12, Type 0, BuildingBlock: BELTOD_clean_linker_0, # of connection points: 3
#     Node 13, Type 0, BuildingBlock: BELTOD_clean_linker_0, # of connection points: 3
#     Node 14, Type 0, BuildingBlock: BELTOD_clean_linker_0, # of connection points: 3
#     Node 15, Type 0, BuildingBlock: BELTOD_clean_linker_0, # of connection points: 3
#     Node 16, Type 0, BuildingBlock: BELTOD_clean_linker_0, # of connection points: 3
#     Node 17, Type 0, BuildingBlock: BELTOD_clean_linker_0, # of connection points: 3
#     Node 18, Type 1, BuildingBlock: KUMBOL_clean_sbu_0, # of connection points: 6
#     Node 19, Type 1, BuildingBlock: KUMBOL_clean_sbu_0, # of connection points: 6
#     Node 20, Type 1, BuildingBlock: KUMBOL_clean_sbu_0, # of connection points: 6
#     Node 21, Type 1, BuildingBlock: KUMBOL_clean_sbu_0, # of connection points: 6
#     Node 22, Type 1, BuildingBlock: KUMBOL_clean_sbu_0, # of connection points: 6
#     Node 23, Type 1, BuildingBlock: KUMBOL_clean_sbu_0, # of connection points: 6
#     Node 24, Type 1, BuildingBlock: KUMBOL_clean_sbu_0, # of connection points: 6
#     Node 25, Type 1, BuildingBlock: KUMBOL_clean_sbu_0, # of connection points: 6
#     Node 26, Type 1, BuildingBlock: KUMBOL_clean_sbu_0, # of connection points: 6
#     Edge 27, Type (0, 1), BuildingBlock: KIFKEQ_clean_linker_1, # of connection points: 2
#     Edge 28, Type (0, 1), BuildingBlock: KIFKEQ_clean_linker_1, # of connection points: 2
#     Edge 29, Type (0, 1), BuildingBlock: KIFKEQ_clean_linker_1, # of connection points: 2
#     Edge 30, Type (0, 1), BuildingBlock: KIFKEQ_clean_linker_1, # of connection points: 2
#     Edge 31, Type (0, 1), BuildingBlock: KIFKEQ_clean_linker_1, # of connection points: 2
#     Edge 32, Type (0, 1), BuildingBlock: KIFKEQ_clean_linker_1, # of connection points: 2
#     Edge 33, Type (0, 1), BuildingBlock: KIFKEQ_clean_linker_1, # of connection points: 2
#     Edge 34, Type (0, 1), BuildingBlock: KIFKEQ_clean_linker_1, # of connection points: 2
#     Edge 35, Type (0, 1), BuildingBlock: KIFKEQ_clean_linker_1, # of connection points: 2
#     Edge 36, Type (0, 1), BuildingBlock: KIFKEQ_clean_linker_1, # of connection points: 2
#     Edge 37, Type (0, 1), BuildingBlock: KIFKEQ_clean_linker_1, # of connection points: 2
#     Edge 38, Type (0, 1), BuildingBlock: KIFKEQ_clean_linker_1, # of connection points: 2
#     Edge 39, Type (0, 1), BuildingBlock: KIFKEQ_clean_linker_1, # of connection points: 2
#     Edge 40, Type (0, 1), BuildingBlock: KIFKEQ_clean_linker_1, # of connection points: 2
#     Edge 41, Type (0, 1), BuildingBlock: KIFKEQ_clean_linker_1, # of connection points: 2
#     Edge 42, Type (0, 1), BuildingBlock: KIFKEQ_clean_linker_1, # of connection points: 2
#     Edge 43, Type (0, 1), BuildingBlock: KIFKEQ_clean_linker_1, # of connection points: 2
#     Edge 44, Type (0, 1), BuildingBlock: KIFKEQ_clean_linker_1, # of connection points: 2
#     Edge 45, Type (0, 1), BuildingBlock: KIFKEQ_clean_linker_1, # of connection points: 2
#     Edge 46, Type (0, 1), BuildingBlock: KIFKEQ_clean_linker_1, # of connection points: 2
#     Edge 47, Type (0, 1), BuildingBlock: KIFKEQ_clean_linker_1, # of connection points: 2
#     Edge 48, Type (0, 1), BuildingBlock: KIFKEQ_clean_linker_1, # of connection points: 2
#     Edge 49, Type (0, 1), BuildingBlock: KIFKEQ_clean_linker_1, # of connection points: 2
#     Edge 50, Type (0, 1), BuildingBlock: KIFKEQ_clean_linker_1, # of connection points: 2
#     Edge 51, Type (0, 1), BuildingBlock: KIFKEQ_clean_linker_1, # of connection points: 2
#     Edge 52, Type (0, 1), BuildingBlock: KIFKEQ_clean_linker_1, # of connection points: 2
#     Edge 53, Type (0, 1), BuildingBlock: KIFKEQ_clean_linker_1, # of connection points: 2
#     Edge 54, Type (0, 1), BuildingBlock: KIFKEQ_clean_linker_1, # of connection points: 2
#     Edge 55, Type (0, 1), BuildingBlock: KIFKEQ_clean_linker_1, # of connection points: 2
#     Edge 56, Type (0, 1), BuildingBlock: KIFKEQ_clean_linker_1, # of connection points: 2
#     Edge 57, Type (0, 1), BuildingBlock: KIFKEQ_clean_linker_1, # of connection points: 2
#     Edge 58, Type (0, 1), BuildingBlock: KIFKEQ_clean_linker_1, # of connection points: 2
#     Edge 59, Type (0, 1), BuildingBlock: KIFKEQ_clean_linker_1, # of connection points: 2
#     Edge 60, Type (0, 1), BuildingBlock: KIFKEQ_clean_linker_1, # of connection points: 2
#     Edge 61, Type (0, 1), BuildingBlock: KIFKEQ_clean_linker_1, # of connection points: 2
#     Edge 62, Type (0, 1), BuildingBlock: KIFKEQ_clean_linker_1, # of connection points: 2
#     Edge 63, Type (0, 1), BuildingBlock: KIFKEQ_clean_linker_1, # of connection points: 2
#     Edge 64, Type (0, 1), BuildingBlock: KIFKEQ_clean_linker_1, # of connection points: 2
#     Edge 65, Type (0, 1), BuildingBlock: KIFKEQ_clean_linker_1, # of connection points: 2
#     Edge 66, Type (0, 1), BuildingBlock: KIFKEQ_clean_linker_1, # of connection points: 2
#     Edge 67, Type (0, 1), BuildingBlock: KIFKEQ_clean_linker_1, # of connection points: 2
#     Edge 68, Type (0, 1), BuildingBlock: KIFKEQ_clean_linker_1, # of connection points: 2
#     Edge 69, Type (0, 1), BuildingBlock: KIFKEQ_clean_linker_1, # of connection points: 2
#     Edge 70, Type (0, 1), BuildingBlock: KIFKEQ_clean_linker_1, # of connection points: 2
#     Edge 71, Type (0, 1), BuildingBlock: KIFKEQ_clean_linker_1, # of connection points: 2
#     Edge 72, Type (0, 1), BuildingBlock: KIFKEQ_clean_linker_1, # of connection points: 2
#     Edge 73, Type (0, 1), BuildingBlock: KIFKEQ_clean_linker_1, # of connection points: 2
#     Edge 74, Type (0, 1), BuildingBlock: KIFKEQ_clean_linker_1, # of connection points: 2
#     Edge 75, Type (0, 1), BuildingBlock: KIFKEQ_clean_linker_1, # of connection points: 2
#     Edge 76, Type (0, 1), BuildingBlock: KIFKEQ_clean_linker_1, # of connection points: 2
#     Edge 77, Type (0, 1), BuildingBlock: KIFKEQ_clean_linker_1, # of connection points: 2
#     Edge 78, Type (0, 1), BuildingBlock: KIFKEQ_clean_linker_1, # of connection points: 2
#     Edge 79, Type (0, 1), BuildingBlock: KIFKEQ_clean_linker_1, # of connection points: 2
#     Edge 80, Type (0, 1), BuildingBlock: KIFKEQ_clean_linker_1, # of connection points: 2
# Relax obj value: 0.008
# Max RMSD: 0.086
# Mean RMSD: 0.067
data_MOF--net-eea--node1-KUMBOL_clean_sbu_0--node2-BELTOD_clean_linker_0--edge1-KIFKEQ_clean_linker_1
_symmetry_space_group_name_H-M    P1
_symmetry_Int_Tables_number       1
_symmetry_cell_setting            triclinic
loop_
_symmetry_equiv_pos_as_xyz
'x, y, z'
_cell_length_a     59.36455
_cell_length_b     60.514025
_cell_length_c     82.605049
_cell_angle_alpha  90.363836
_cell_angle_beta   90.202122
_cell_angle_gamma 119.98979
loop_
_atom_site_label
_atom_site_type_symbol
_atom_site_fract_x
_atom_site_fract_y
_atom_site_fract_z
_atom_type_partial_charge
P0 P 0.29611 0.14471 0.41077 0.0
H1 H 0.29785 0.12297 0.37957 0.0
H2 H 0.2751 0.07951 0.3686 0.0
H3 H 0.23148 0.05291 0.41293 0.0
H4 H 0.25403 0.0966 0.42369 0.0
H5 H 0.3171 0.19805 0.40219 0.0
H6 H 0.29692 0.22231 0.39278 0.0
H7 H 0.22103 0.15506 0.39706 0.0
H8 H 0.24142 0.13105 0.40679 0.0
H9 H 0.31356 0.1169 0.43071 0.0
H10 H 0.28831 0.17173 0.43822 0.0
O11 O 0.32585 0.15862 0.40282 0.0
H12 H 0.32268 0.11786 0.45962 0.0
H13 H 0.29786 0.17317 0.4672 0.0
C14 C 0.27811 0.11282 0.40259 0.0
C15 C 0.28337 0.10778 0.38691 0.0
C16 C 0.27038 0.08292 0.38067 0.0
C17 C 0.25172 0.06269 0.38997 0.0
C18 C 0.24568 0.06806 0.40544 0.0
C19 C 0.25873 0.09297 0.41167 0.0
C20 C 0.28078 0.16265 0.40486 0.0
C21 C 0.29612 0.18853 0.40111 0.0
C22 C 0.28456 0.20235 0.39564 0.0
C23 C 0.25737 0.19053 0.39393 0.0
C24 C 0.242 0.16475 0.39827 0.0
C25 C 0.25364 0.15095 0.40374 0.0
C26 C 0.30004 0.14402 0.43235 0.0
C27 C 0.30975 0.12898 0.43863 0.0
C28 C 0.31517 0.12971 0.45514 0.0
C29 C 0.31117 0.14573 0.46572 0.0
C30 C 0.30091 0.16045 0.45941 0.0
C31 C 0.29551 0.1597 0.44282 0.0
P32 P 0.91362 0.09704 0.44088 0.0
H33 H 0.88904 0.04189 0.44336 0.0
H34 H 0.85291 0.00664 0.42907 0.0
H35 H 0.84146 0.06042 0.40105 0.0
H36 H 0.8771 0.09569 0.41609 0.0
H37 H 0.9518 0.15021 0.44796 0.0
H38 H 0.98433 0.18442 0.43146 0.0
H39 H 0.95392 0.13613 0.38892 0.0
H40 H 0.92239 0.10163 0.4057 0.0
H41 H 0.90071 0.0762 0.47325 0.0
H42 H 0.89844 0.13603 0.44657 0.0
O43 O 0.93263 0.08595 0.44756 0.0
H44 H 0.88383 0.08684 0.49707 0.0
H45 H 0.8823 0.14752 0.47062 0.0
C46 C 0.88633 0.0714 0.43037 0.0
C47 C 0.87882 0.04612 0.43411 0.0
C48 C 0.85817 0.02594 0.42585 0.0
C49 C 0.84455 0.0306 0.4136 0.0
C50 C 0.85147 0.05605 0.41037 0.0
C51 C 0.87202 0.07627 0.41883 0.0
C52 C 0.93394 0.12362 0.42803 0.0
C53 C 0.9517 0.1472 0.43502 0.0
C54 C 0.97035 0.16682 0.42551 0.0
C55 C 0.97178 0.16324 0.40875 0.0
C56 C 0.95363 0.13962 0.40176 0.0
C57 C 0.93517 0.11993 0.41134 0.0
C58 C 0.90152 0.10579 0.4583 0.0
C59 C 0.89692 0.09192 0.47261 0.0
C60 C 0.88735 0.09813 0.48627 0.0
C61 C 0.88205 0.11834 0.48591 0.0
C62 C 0.88609 0.13182 0.47136 0.0
C63 C 0.89556 0.12545 0.45763 0.0
P64 P 0.86852 0.73666 0.41909 0.0
H65 H 0.8225 0.7138 0.39806 0.0
H66 H 0.7938 0.72852 0.38787 0.0
H67 H 0.84261 0.80224 0.41004 0.0
H68 H 0.87118 0.78704 0.42093 0.0
H69 H 0.89912 0.71287 0.41085 0.0
H70 H 0.94161 0.72816 0.39885 0.0
H71 H 0.95257 0.8042 0.3966 0.0
H72 H 0.90955 0.7886 0.40881 0.0
H73 H 0.83037 0.73265 0.44292 0.0
H74 H 0.9067 0.74069 0.44351 0.0
O75 O 0.85281 0.70549 0.41474 0.0
H76 H 0.82634 0.72403 0.47188 0.0
H77 H 0.90312 0.73264 0.47258 0.0
C78 C 0.84919 0.74929 0.41029 0.0
C79 C 0.82731 0.7332 0.40077 0.0
C80 C 0.81079 0.7416 0.39491 0.0
C81 C 0.81593 0.76649 0.39816 0.0
C82 C 0.83829 0.783 0.40727 0.0
C83 C 0.85465 0.77435 0.41345 0.0
C84 C 0.90069 0.74939 0.41042 0.0
C85 C 0.91042 0.73281 0.40767 0.0
C86 C 0.93484 0.7416 0.40073 0.0
C87 C 0.95044 0.76735 0.39645 0.0
C88 C 0.94105 0.78422 0.39968 0.0
C89 C 0.91637 0.7753 0.40661 0.0
C90 C 0.86908 0.73794 0.44101 0.0
C91 C 0.8467 0.73351 0.44938 0.0
C92 C 0.8444 0.72849 0.46602 0.0
C93 C 0.86435 0.72747 0.47469 0.0
C94 C 0.88719 0.73291 0.46634 0.0
C95 C 0.88944 0.73791 0.44968 0.0
P96 P 0.13263 0.26597 0.60293 0.0
H97 H 0.10998 0.24142 0.6338 0.0
H98 H 0.06661 0.22525 0.64536 0.0
H99 H 0.03914 0.23747 0.5997 0.0
H100 H 0.08228 0.25331 0.58819 0.0
H101 H 0.18854 0.28859 0.60375 0.0
H102 H 0.21783 0.27368 0.61243 0.0
H103 H 0.15186 0.19927 0.62202 0.0
H104 H 0.12246 0.21467 0.61342 0.0
H105 H 0.13125 0.30664 0.58502 0.0
H106 H 0.13785 0.24056 0.5736 0.0
O107 O 0.14545 0.29397 0.61267 0.0
H108 H 0.1365 0.31837 0.55657 0.0
H109 H 0.14243 0.25175 0.54482 0.0
C110 C 0.0994 0.24808 0.60999 0.0
C111 C 0.09441 0.2398 0.6261 0.0
C112 C 0.06961 0.23067 0.63274 0.0
C113 C 0.04942 0.23021 0.62349 0.0
C114 C 0.0543 0.2378 0.60721 0.0
C115 C 0.079 0.24665 0.60055 0.0
C116 C 0.1533 0.25291 0.60813 0.0
C117 C 0.18032 0.26901 0.60764 0.0
C118 C 0.19711 0.26035 0.61254 0.0
C119 C 0.18733 0.2352 0.61798 0.0
C120 C 0.16011 0.21885 0.61813 0.0
C121 C 0.14325 0.22759 0.61315 0.0
C122 C 0.13461 0.27297 0.5815 0.0
C123 C 0.13367 0.29452 0.57634 0.0
C124 C 0.13643 0.30108 0.55996 0.0
C125 C 0.13999 0.2861 0.54825 0.0
C126 C 0.14017 0.26402 0.55346 0.0
C127 C 0.13741 0.25748 0.56992 0.0
P128 P 0.79948 0.90443 0.58318 0.0
H129 H 0.83429 0.93648 0.60867 0.0
H130 H 0.83547 0.9701 0.62577 0.0
H131 H 0.76501 0.959 0.60271 0.0
H132 H 0.76361 0.92484 0.58597 0.0
H133 H 0.80556 0.86091 0.57547 0.0
H134 H 0.80099 0.82507 0.59142 0.0
H135 H 0.77326 0.8504 0.63181 0.0
H136 H 0.77818 0.88639 0.6158 0.0
H137 H 0.80611 0.92746 0.55151 0.0
H138 H 0.74512 0.86442 0.57739 0.0
O139 O 0.82964 0.91659 0.57609 0.0
H140 H 0.77796 0.91626 0.52766 0.0
H141 H 0.71678 0.85284 0.55343 0.0
C142 C 0.79913 0.92848 0.59591 0.0
C143 C 0.81908 0.94128 0.60733 0.0
C144 C 0.81979 0.96058 0.61704 0.0
C145 C 0.80051 0.96749 0.61549 0.0
C146 C 0.78009 0.95408 0.60429 0.0
C147 C 0.77937 0.93466 0.5946 0.0
C148 C 0.79263 0.87649 0.59452 0.0
C149 C 0.79825 0.85858 0.58771 0.0
C150 C 0.79547 0.83801 0.59682 0.0
C151 C 0.78692 0.83495 0.61295 0.0
C152 C 0.78029 0.85245 0.61952 0.0
C153 C 0.78303 0.873 0.61035 0.0
C154 C 0.77788 0.89641 0.56605 0.0
C155 C 0.78666 0.91112 0.55202 0.0
C156 C 0.77057 0.90464 0.53838 0.0
C157 C 0.74525 0.88344 0.53857 0.0
C158 C 0.73616 0.86928 0.5529 0.0
C159 C 0.75238 0.87576 0.56656 0.0
P160 P 0.13547 0.86129 0.60625 0.0
H161 H 0.15772 0.88171 0.63802 0.0
H162 H 0.18115 0.92501 0.64921 0.0
H163 H 0.16933 0.95417 0.60429 0.0
H164 H 0.14541 0.91063 0.5933 0.0
H165 H 0.10195 0.80711 0.61212 0.0
H166 H 0.05741 0.78175 0.62166 0.0
H167 H 0.05001 0.84928 0.62244 0.0
H168 H 0.09503 0.8747 0.6132 0.0
H169 H 0.18157 0.88691 0.58646 0.0
H170 H 0.09944 0.83662 0.57854 0.0
O171 O 0.15112 0.84725 0.614 0.0
H172 H 0.18946 0.88529 0.55764 0.0
H173 H 0.10705 0.83526 0.54954 0.0
C174 C 0.15044 0.89308 0.61471 0.0
C175 C 0.16006 0.89742 0.63061 0.0
C176 C 0.17353 0.9222 0.63697 0.0
C177 C 0.17748 0.94312 0.62756 0.0
C178 C 0.16661 0.9385 0.61187 0.0
C179 C 0.15311 0.91365 0.60552 0.0
C180 C 0.10191 0.84282 0.61221 0.0
C181 C 0.09075 0.81647 0.61434 0.0
C182 C 0.06517 0.80195 0.61969 0.0
C183 C 0.05007 0.81346 0.6229 0.0
C184 C 0.06119 0.83987 0.62036 0.0
C185 C 0.08688 0.85441 0.61499 0.0
C186 C 0.13994 0.86208 0.58464 0.0
C187 C 0.16516 0.87587 0.57844 0.0
C188 C 0.16962 0.875 0.56192 0.0
C189 C 0.14889 0.86018 0.5512 0.0
C190 C 0.1235 0.84666 0.55745 0.0
C191 C 0.11908 0.84757 0.57404 0.0
P192 P 0.96532 0.48736 0.7402 0.0
H193 H 0.96947 0.46429 0.71001 0.0
H194 H 0.94798 0.42016 0.70005 0.0
H195 H 0.90099 0.39568 0.74317 0.0
H196 H 0.92256 0.43984 0.75303 0.0
H197 H 0.97938 0.52711 0.71605 0.0
H198 H 0.9572 0.54875 0.70547 0.0
H199 H 0.89255 0.50476 0.73728 0.0
H200 H 0.91509 0.48315 0.74794 0.0
H201 H 0.98073 0.45902 0.76119 0.0
H202 H 0.95817 0.51614 0.76698 0.0
O203 O 0.99548 0.5016 0.73288 0.0
H204 H 0.98787 0.4596 0.79027 0.0
H205 H 0.96448 0.51631 0.7963 0.0
C206 C 0.9481 0.45517 0.73245 0.0
C207 C 0.9545 0.44941 0.71729 0.0
C208 C 0.94209 0.42422 0.71156 0.0
C209 C 0.92302 0.40441 0.72092 0.0
C210 C 0.91595 0.41047 0.73583 0.0
C211 C 0.92824 0.43569 0.74147 0.0
C212 C 0.9491 0.50389 0.73302 0.0
C213 C 0.96051 0.52218 0.72085 0.0
C214 C 0.94767 0.53438 0.71467 0.0
C215 C 0.92308 0.52847 0.72051 0.0
C216 C 0.91159 0.50993 0.73265 0.0
C217 C 0.92442 0.49759 0.73876 0.0
C218 C 0.96832 0.48705 0.76193 0.0
C219 C 0.97682 0.47135 0.76879 0.0
C220 C 0.98078 0.47163 0.78547 0.0
C221 C 0.97647 0.48779 0.79573 0.0
C222 C 0.96808 0.50368 0.78878 0.0
C223 C 0.96419 0.50342 0.77201 0.0
P224 P 0.5784 0.44047 0.77219 0.0
H225 H 0.58015 0.40936 0.74596 0.0
H226 H 0.54649 0.37519 0.72932 0.0
H227 H 0.48816 0.38726 0.75229 0.0
H228 H 0.52204 0.42187 0.76857 0.0
H229 H 0.63492 0.46402 0.77076 0.0
H230 H 0.66788 0.49756 0.75405 0.0
H231 H 0.60883 0.50927 0.73173 0.0
H232 H 0.57557 0.47517 0.7485 0.0
H233 H 0.5474 0.4119 0.79943 0.0
H234 H 0.57883 0.48828 0.78128 0.0
O235 O 0.59254 0.42531 0.78044 0.0
H236 H 0.52917 0.42263 0.82253 0.0
H237 H 0.56006 0.49913 0.80427 0.0
C238 C 0.55358 0.41789 0.75865 0.0
C239 C 0.56014 0.40484 0.74726 0.0
C240 C 0.54084 0.38519 0.73785 0.0
C241 C 0.51455 0.3782 0.73965 0.0
C242 C 0.5082 0.39218 0.75056 0.0
C243 C 0.52758 0.4119 0.75997 0.0
C244 C 0.60274 0.467 0.76082 0.0
C245 C 0.62895 0.47376 0.76232 0.0
C246 C 0.64781 0.49287 0.75268 0.0
C247 C 0.64091 0.50585 0.74144 0.0
C248 C 0.61471 0.4996 0.74029 0.0
C249 C 0.59573 0.48017 0.74985 0.0
C250 C 0.56461 0.4493 0.78871 0.0
C251 C 0.55025 0.43099 0.8004 0.0
C252 C 0.53964 0.43712 0.81355 0.0
C253 C 0.54305 0.46175 0.81528 0.0
C254 C 0.5573 0.48006 0.80341 0.0
C255 C 0.56794 0.47386 0.7902 0.0
P256 P 0.5392 0.08232 0.75233 0.0
H257 H 0.53059 0.09524 0.71983 0.0
H258 H 0.50261 0.11089 0.70928 0.0
H259 H 0.48492 0.12252 0.7582 0.0
H260 H 0.51277 0.10675 0.76863 0.0
H261 H 0.57342 0.06117 0.75117 0.0
H262 H 0.61771 0.07724 0.7418 0.0
H263 H 0.62418 0.15024 0.73181 0.0
H264 H 0.57923 0.13353 0.74086 0.0
H265 H 0.49314 0.05011 0.7711 0.0
H266 H 0.5747 0.1005 0.78087 0.0
O267 O 0.52354 0.05385 0.74315 0.0
H268 H 0.48591 0.0385 0.79961 0.0
H269 H 0.5676 0.08919 0.8096 0.0
C270 C 0.52371 0.09965 0.74501 0.0
C271 C 0.52115 0.10171 0.72828 0.0
C272 C 0.50512 0.1107 0.72226 0.0
C273 C 0.49118 0.11767 0.73288 0.0
C274 C 0.49495 0.11686 0.74966 0.0
C275 C 0.51106 0.10797 0.75566 0.0
C276 C 0.57293 0.09604 0.7466 0.0
C277 C 0.5844 0.08068 0.74702 0.0
C278 C 0.60989 0.09001 0.74174 0.0
C279 C 0.62474 0.11513 0.73601 0.0
C280 C 0.61329 0.1307 0.73591 0.0
C281 C 0.58762 0.12125 0.74119 0.0
C282 C 0.53445 0.07602 0.77381 0.0
C283 C 0.50948 0.05887 0.77944 0.0
C284 C 0.50536 0.05236 0.79581 0.0
C285 C 0.52616 0.06287 0.80699 0.0
C286 C 0.55118 0.08048 0.80133 0.0
C287 C 0.55526 0.08708 0.78489 0.0
P288 P 0.79564 0.59129 0.93708 0.0
H289 H 0.77359 0.57448 0.96914 0.0
H290 H 0.72963 0.55801 0.97967 0.0
H291 H 0.70061 0.55212 0.93087 0.0
H292 H 0.74458 0.56887 0.92049 0.0
H293 H 0.8515 0.61386 0.93779 0.0
H294 H 0.88073 0.59885 0.9464 0.0
H295 H 0.81461 0.5248 0.95665 0.0
H296 H 0.7853 0.54041 0.94829 0.0
H297 H 0.78576 0.62651 0.91886 0.0
H298 H 0.80994 0.57169 0.90821 0.0
O299 O 0.80811 0.61929 0.94678 0.0
H300 H 0.79192 0.6396 0.89058 0.0
H301 H 0.81665 0.58503 0.87981 0.0
C302 C 0.76246 0.57293 0.94404 0.0
C303 C 0.75764 0.56902 0.96068 0.0
C304 C 0.73244 0.55958 0.9667 0.0
C305 C 0.71155 0.55402 0.95615 0.0
C306 C 0.71629 0.55665 0.93938 0.0
C307 C 0.74148 0.56605 0.93339 0.0
C308 C 0.81625 0.57837 0.94251 0.0
C309 C 0.84326 0.59435 0.94184 0.0
C310 C 0.85999 0.58563 0.94668 0.0
C311 C 0.85014 0.56051 0.95221 0.0
C312 C 0.82292 0.54433 0.95265 0.0
C313 C 0.80611 0.55317 0.94778 0.0
C314 C 0.79778 0.59844 0.91572 0.0
C315 C 0.79236 0.61724 0.9104 0.0
C316 C 0.79605 0.62482 0.89422 0.0
C317 C 0.80521 0.61369 0.88292 0.0
C318 C 0.80955 0.594 0.88815 0.0
C319 C 0.80585 0.58643 0.90442 0.0
P320 P 0.46365 0.22557 0.91715 0.0
H321 H 0.50427 0.26796 0.93559 0.0
H322 H 0.5056 0.30361 0.95047 0.0
H323 H 0.42586 0.27729 0.9366 0.0
H324 H 0.42459 0.24144 0.92177 0.0
H325 H 0.44513 0.17126 0.91213 0.0
H326 H 0.44081 0.13781 0.93051 0.0
H327 H 0.46069 0.18998 0.97098 0.0
H328 H 0.46489 0.22319 0.95265 0.0
H329 H 0.47371 0.24417 0.88419 0.0
H330 H 0.40788 0.18912 0.91143 0.0
O331 O 0.49369 0.23458 0.91085 0.0
H332 H 0.44642 0.23403 0.86007 0.0
H333 H 0.38029 0.17843 0.88713 0.0
C334 C 0.4645 0.25234 0.92734 0.0
C335 C 0.48713 0.26996 0.93563 0.0
C336 C 0.4878 0.29018 0.94425 0.0
C337 C 0.46583 0.2932 0.94469 0.0
C338 C 0.44314 0.27553 0.93633 0.0
C339 C 0.44241 0.25508 0.92785 0.0
C340 C 0.45487 0.19963 0.93099 0.0
C341 C 0.4478 0.17527 0.92501 0.0
C342 C 0.44537 0.15617 0.93553 0.0
C343 C 0.45047 0.1613 0.9522 0.0
C344 C 0.45681 0.18551 0.95819 0.0
C345 C 0.45903 0.2045 0.94769 0.0
C346 C 0.44297 0.21693 0.89947 0.0
C347 C 0.4534 0.22961 0.88491 0.0
C348 C 0.43776 0.22373 0.8711 0.0
C349 C 0.41122 0.20516 0.87159 0.0
C350 C 0.40065 0.19284 0.88634 0.0
C351 C 0.41641 0.19875 0.9002 0.0
P352 P 0.80346 0.1835 0.93781 0.0
H353 H 0.84044 0.20837 0.96427 0.0
H354 H 0.86419 0.25213 0.97426 0.0
H355 H 0.82594 0.27397 0.93837 0.0
H356 H 0.80125 0.22955 0.9289 0.0
H357 H 0.7823 0.14726 0.96436 0.0
H358 H 0.73936 0.12389 0.97641 0.0
H359 H 0.71124 0.15978 0.9432 0.0
H360 H 0.75442 0.1826 0.93082 0.0
H361 H 0.83321 0.22017 0.91208 0.0
H362 H 0.77418 0.14097 0.91553 0.0
O363 O 0.82032 0.16979 0.94403 0.0
H364 H 0.83635 0.2151 0.88315 0.0
H365 H 0.77861 0.13506 0.88675 0.0
C366 C 0.81975 0.21587 0.94546 0.0
C367 C 0.83713 0.22253 0.95852 0.0
C368 C 0.85085 0.24769 0.96419 0.0
C369 C 0.84752 0.26685 0.9569 0.0
C370 C 0.82907 0.25981 0.94429 0.0
C371 C 0.8151 0.23446 0.93874 0.0
C372 C 0.77143 0.16633 0.94649 0.0
C373 C 0.76689 0.15001 0.95957 0.0
C374 C 0.7423 0.13683 0.96661 0.0
C375 C 0.7217 0.13989 0.96083 0.0
C376 C 0.72649 0.15663 0.94783 0.0
C377 C 0.75117 0.16977 0.94075 0.0
C378 C 0.80277 0.18116 0.91596 0.0
C379 C 0.82045 0.20176 0.90658 0.0
C380 C 0.82264 0.19865 0.88996 0.0
C381 C 0.80791 0.17458 0.88239 0.0
C382 C 0.78996 0.15404 0.89189 0.0
C383 C 0.78741 0.15735 0.90845 0.0
P384 P 0.62954 0.81072 0.07832 0.0
H385 H 0.63078 0.78857 0.04715 0.0
H386 H 0.60797 0.74492 0.03647 0.0
H387 H 0.5654 0.7189 0.0812 0.0
H388 H 0.58803 0.76275 0.09168 0.0
H389 H 0.64926 0.8652 0.07569 0.0
H390 H 0.62953 0.89019 0.06683 0.0
H391 H 0.55574 0.82075 0.06044 0.0
H392 H 0.57569 0.79587 0.06919 0.0
H393 H 0.651 0.78572 0.09752 0.0
H394 H 0.61878 0.83462 0.10641 0.0
O395 O 0.65899 0.82486 0.06997 0.0
H396 H 0.66032 0.78626 0.12637 0.0
H397 H 0.62862 0.83577 0.1353 0.0
C398 C 0.61157 0.77871 0.07034 0.0
C399 C 0.61653 0.77346 0.05465 0.0
C400 C 0.6035 0.74851 0.04857 0.0
C401 C 0.58511 0.72839 0.05807 0.0
C402 C 0.57939 0.73396 0.07357 0.0
C403 C 0.59248 0.75897 0.07963 0.0
C404 C 0.61406 0.82871 0.07285 0.0
C405 C 0.62882 0.85538 0.07241 0.0
C406 C 0.61748 0.86963 0.06743 0.0
C407 C 0.5911 0.85743 0.06282 0.0
C408 C 0.57621 0.83067 0.06365 0.0
C409 C 0.58757 0.81643 0.06872 0.0
C410 C 0.6342 0.81008 0.09982 0.0
C411 C 0.64585 0.7965 0.10572 0.0
C412 C 0.65134 0.79699 0.1222 0.0
C413 C 0.64543 0.81125 0.13314 0.0
C414 C 0.63323 0.82444 0.12722 0.0
C415 C 0.62771 0.8239 0.11067 0.0
P416 P 0.24076 0.7677 0.10266 0.0
H417 H 0.23965 0.73073 0.07962 0.0
H418 H 0.20484 0.69623 0.06382 0.0
H419 H 0.15014 0.71711 0.08264 0.0
H420 H 0.18516 0.75163 0.09849 0.0
H421 H 0.2846 0.81666 0.11228 0.0
H422 H 0.31877 0.85172 0.09701 0.0
H423 H 0.28025 0.81427 0.05227 0.0
H424 H 0.2463 0.77914 0.06764 0.0
H425 H 0.22479 0.74489 0.13444 0.0
H426 H 0.22746 0.80791 0.10874 0.0
O427 O 0.25832 0.75519 0.10965 0.0
H428 H 0.2079 0.75564 0.15828 0.0
H429 H 0.21081 0.8191 0.13272 0.0
C430 C 0.21494 0.7435 0.09038 0.0
C431 C 0.22018 0.72794 0.0803 0.0
C432 C 0.20029 0.70833 0.07119 0.0
C433 C 0.17468 0.70386 0.07201 0.0
C434 C 0.16959 0.71987 0.0819 0.0
C435 C 0.18962 0.73966 0.09094 0.0
C436 C 0.26276 0.79537 0.09116 0.0
C437 C 0.28322 0.81626 0.09919 0.0
C438 C 0.30275 0.83633 0.09042 0.0
C439 C 0.30233 0.83582 0.07337 0.0
C440 C 0.28135 0.81514 0.06536 0.0
C441 C 0.26177 0.79508 0.07418 0.0
C442 C 0.22794 0.77596 0.11997 0.0
C443 C 0.22193 0.7612 0.13398 0.0
C444 C 0.21234 0.76743 0.14763 0.0
C445 C 0.20832 0.78845 0.1475 0.0
C446 C 0.21366 0.80278 0.13322 0.0
C447 C 0.22334 0.79654 0.11955 0.0
P448 P 0.20094 0.40443 0.08322 0.0
H449 H 0.19263 0.41362 0.04985 0.0
H450 H 0.16658 0.43004 0.03738 0.0
H451 H 0.14963 0.44828 0.08482 0.0
H452 H 0.17624 0.43238 0.09715 0.0
H453 H 0.23456 0.38257 0.08364 0.0
H454 H 0.27875 0.39743 0.07457 0.0
H455 H 0.28664 0.47033 0.06234 0.0
H456 H 0.24173 0.45481 0.0711 0.0
H457 H 0.15346 0.37729 0.10173 0.0
H458 H 0.23572 0.41964 0.1121 0.0
O459 O 0.18531 0.37541 0.07475 0.0
H460 H 0.14464 0.36531 0.13013 0.0
H461 H 0.22709 0.40722 0.14059 0.0
C462 C 0.18624 0.42156 0.07442 0.0
C463 C 0.18373 0.42163 0.05755 0.0
C464 C 0.1686 0.43081 0.05044 0.0
C465 C 0.15561 0.44014 0.06009 0.0
C466 C 0.15939 0.44135 0.07699 0.0
C467 C 0.17456 0.43212 0.08409 0.0
C468 C 0.23476 0.41747 0.07795 0.0
C469 C 0.24583 0.40182 0.0791 0.0
C470 C 0.27128 0.41047 0.07398 0.0
C471 C 0.28649 0.43518 0.0677 0.0
C472 C 0.27547 0.45109 0.06689 0.0
C473 C 0.24983 0.44232 0.07201 0.0
C474 C 0.19521 0.39928 0.10474 0.0
C475 C 0.16964 0.38422 0.11017 0.0
C476 C 0.16464 0.37718 0.12642 0.0
C477 C 0.18516 0.38495 0.13767 0.0
C478 C 0.2108 0.40095 0.13231 0.0
C479 C 0.21578 0.40801 0.11597 0.0
P480 P 0.46366 0.92542 0.26948 0.0
H481 H 0.44106 0.90775 0.3014 0.0
H482 H 0.39709 0.89156 0.31185 0.0
H483 H 0.36877 0.88799 0.26311 0.0
H484 H 0.41276 0.90451 0.25283 0.0
H485 H 0.5194 0.94687 0.26846 0.0
H486 H 0.54873 0.93224 0.27751 0.0
H487 H 0.48274 0.85986 0.2909 0.0
H488 H 0.45338 0.87518 0.28215 0.0
H489 H 0.46022 0.96537 0.25206 0.0
H490 H 0.47168 0.90238 0.23988 0.0
O491 O 0.47635 0.95315 0.27952 0.0
H492 H 0.46619 0.97844 0.22385 0.0
H493 H 0.47692 0.91484 0.21133 0.0
C494 C 0.43031 0.90726 0.27632 0.0
C495 C 0.42525 0.90285 0.29292 0.0
C496 C 0.40003 0.89358 0.2989 0.0
C497 C 0.37929 0.8887 0.28837 0.0
C498 C 0.38428 0.89195 0.27163 0.0
C499 C 0.40949 0.90119 0.26568 0.0
C500 C 0.4842 0.91222 0.27467 0.0
C501 C 0.51119 0.92775 0.27323 0.0
C502 C 0.528 0.91923 0.27835 0.0
C503 C 0.51827 0.89474 0.28496 0.0
C504 C 0.49104 0.87894 0.28609 0.0
C505 C 0.47416 0.8876 0.28097 0.0
C506 C 0.46597 0.93318 0.24816 0.0
C507 C 0.46383 0.9542 0.24325 0.0
C508 C 0.46702 0.96152 0.22701 0.0
C509 C 0.47217 0.94782 0.21515 0.0
C510 C 0.47346 0.92618 0.22008 0.0
C511 C 0.47032 0.9189 0.23642 0.0
P512 P 0.12981 0.55923 0.24967 0.0
H513 H 0.16989 0.60116 0.26867 0.0
H514 H 0.17099 0.63671 0.28354 0.0
H515 H 0.09176 0.61098 0.26872 0.0
H516 H 0.09073 0.57521 0.25389 0.0
H517 H 0.11179 0.50507 0.24436 0.0
H518 H 0.10729 0.47137 0.26257 0.0
H519 H 0.12641 0.52288 0.30334 0.0
H520 H 0.13072 0.55633 0.28519 0.0
H521 H 0.13997 0.57872 0.21691 0.0
H522 H 0.07443 0.52177 0.24346 0.0
O523 O 0.15997 0.56853 0.2435 0.0
H524 H 0.11322 0.56795 0.19249 0.0
H525 H 0.04745 0.51037 0.21886 0.0
C526 C 0.1304 0.58583 0.25996 0.0
C527 C 0.15281 0.60325 0.26852 0.0
C528 C 0.15333 0.62342 0.27713 0.0
C529 C 0.13145 0.6266 0.27729 0.0
C530 C 0.10898 0.60911 0.26867 0.0
C531 C 0.10838 0.5887 0.2602 0.0
C532 C 0.12109 0.53312 0.26338 0.0
C533 C 0.11425 0.50888 0.25727 0.0
C534 C 0.11172 0.48965 0.26769 0.0
C535 C 0.11653 0.4945 0.2844 0.0
C536 C 0.12274 0.51861 0.29052 0.0
C537 C 0.12502 0.53774 0.28011 0.0
C538 C 0.10937 0.55058 0.23187 0.0
C539 C 0.11984 0.56365 0.21743 0.0
C540 C 0.10451 0.55739 0.20344 0.0
C541 C 0.07825 0.53801 0.20362 0.0
C542 C 0.06759 0.5254 0.21829 0.0
C543 C 0.08302 0.53173 0.23232 0.0
P544 P 0.47028 0.52028 0.27548 0.0
H545 H 0.49174 0.5448 0.30659 0.0
H546 H 0.51328 0.5893 0.3157 0.0
H547 H 0.49729 0.61124 0.26928 0.0
H548 H 0.47574 0.56663 0.26025 0.0
H549 H 0.4469 0.47445 0.29532 0.0
H550 H 0.40373 0.44834 0.30648 0.0
H551 H 0.37804 0.4955 0.28281 0.0
H552 H 0.42199 0.52225 0.27203 0.0
H553 H 0.51465 0.54736 0.25463 0.0
H554 H 0.43356 0.49113 0.2487 0.0
O555 O 0.48926 0.50995 0.28333 0.0
H556 H 0.52142 0.54536 0.22573 0.0
H557 H 0.43999 0.48942 0.21952 0.0
C558 C 0.48276 0.55254 0.28263 0.0
C559 C 0.49265 0.55917 0.29843 0.0
C560 C 0.50482 0.5846 0.30365 0.0
C561 C 0.50727 0.60386 0.29314 0.0
C562 C 0.49612 0.59691 0.27755 0.0
C563 C 0.48377 0.57141 0.27239 0.0
C564 C 0.43766 0.50028 0.28279 0.0
C565 C 0.43203 0.47921 0.29245 0.0
C566 C 0.40718 0.46413 0.29879 0.0
C567 C 0.38724 0.46966 0.29552 0.0
C568 C 0.39296 0.49082 0.28574 0.0
C569 C 0.41798 0.50602 0.27945 0.0
C570 C 0.47358 0.51966 0.2538 0.0
C571 C 0.49818 0.53486 0.24702 0.0
C572 C 0.50198 0.53379 0.23044 0.0
C573 C 0.48122 0.51736 0.2202 0.0
C574 C 0.45645 0.50217 0.22704 0.0
C575 C 0.45268 0.50327 0.24373 0.0
Gd576 Gd 0.51529 0.01822 0.03376 0.0
Gd577 Gd 0.49229 0.98475 0.99458 0.0
C578 C 0.41104 0.91413 0.99436 0.0
C579 C 0.4204 0.88006 0.98877 0.0
C580 C 0.45548 0.92415 0.99033 0.0
C581 C 0.43787 0.93201 0.99372 0.0
C582 C 0.44692 0.89818 0.98727 0.0
C583 C 0.40247 0.88803 0.99233 0.0
C584 C 0.39363 0.92309 0.99657 0.0
C585 C 0.40311 0.94933 0.99762 0.0
N586 N 0.4469 0.95734 0.99555 0.0
C587 C 0.42994 0.96628 0.99702 0.0
H588 H 0.43694 0.98644 0.99809 0.0
C589 C 0.4982 0.93598 0.98247 0.0
N590 N 0.4808 0.94222 0.98874 0.0
C591 C 0.4908 0.91046 0.97945 0.0
C592 C 0.46512 0.8914 0.98215 0.0
H593 H 0.51803 0.95076 0.98028 0.0
H594 H 0.38197 0.87396 0.99301 0.0
H595 H 0.53122 0.99273 0.06408 0.0
H596 H 0.37287 0.91 0.99714 0.0
H597 H 0.3898 0.95651 0.99908 0.0
H598 H 0.41346 0.85997 0.98668 0.0
H599 H 0.53302 0.07283 0.01366 0.0
H600 H 0.61377 0.03546 0.07135 0.0
H601 H 0.5707 0.9991 0.07851 0.0
H602 H 0.63981 0.10748 0.03684 0.0
H603 H 0.50487 0.90553 0.97499 0.0
H604 H 0.45936 0.87165 0.97967 0.0
H605 H 0.63949 0.07586 0.05558 0.0
H606 H 0.57256 0.11359 0.0084 0.0
N607 N 0.55212 0.02342 0.04793 0.0
C608 C 0.59657 0.03239 0.06481 0.0
C609 C 0.57232 0.01184 0.06888 0.0
C610 C 0.59809 0.04958 0.05301 0.0
C611 C 0.57509 0.04472 0.0449 0.0
C612 C 0.55009 0.00809 0.06059 0.0
N613 N 0.55225 0.05792 0.02791 0.0
C614 C 0.57514 0.06265 0.03465 0.0
C615 C 0.57359 0.09941 0.01579 0.0
C616 C 0.59742 0.10411 0.02212 0.0
C617 C 0.55108 0.07614 0.01885 0.0
C618 C 0.59839 0.08576 0.03183 0.0
H619 H 0.61484 0.12208 0.01964 0.0
O620 O 0.51379 0.04736 0.04858 0.0
O621 O 0.48072 0.98959 0.0194 0.0
O622 O 0.48339 0.0167 0.99569 0.0
O623 O 0.49338 0.0353 0.02146 0.0
O624 O 0.48674 0.97912 0.0424 0.0
O625 O 0.49651 0.0089 0.05729 0.0
O626 O 0.51158 0.99208 0.97119 0.0
O627 O 0.52368 0.01909 0.00743 0.0
O628 O 0.52994 0.9902 0.0312 0.0
O629 O 0.50471 0.96185 0.01025 0.0
O630 O 0.5348 0.99845 0.99237 0.0
O631 O 0.47591 0.99279 0.97334 0.0
C632 C 0.47175 0.97198 0.02985 0.0
C633 C 0.62171 0.09 0.03904 0.0
C634 C 0.62155 0.07196 0.04965 0.0
C635 C 0.50419 0.03247 0.06105 0.0
C636 C 0.51805 0.04156 0.07684 0.0
C637 C 0.5412 0.06519 0.07801 0.0
C638 C 0.50876 0.0261 0.09077 0.0
C639 C 0.52259 0.03403 0.10562 0.0
C640 C 0.55472 0.07328 0.09266 0.0
C641 C 0.54556 0.05794 0.10633 0.0
C642 C 0.48398 0.033 1.0066 0.0
C643 C 0.54302 0.01804 1.0018 0.0
C644 C 0.49383 0.99457 0.96357 0.0
C645 C 0.4849 0.98124 0.94785 0.0
C646 C 0.46859 0.95471 0.94718 0.0
C647 C 0.49234 0.99524 0.93335 0.0
C648 C 0.48333 0.98278 0.91823 0.0
C649 C 0.45989 0.94222 0.93229 0.0
C650 C 0.46714 0.95607 0.91793 0.0
C651 C 0.52107 0.96862 0.02276 0.0
H652 H 0.54903 0.07742 0.06758 0.0
H653 H 0.49115 0.00767 0.08991 0.0
H654 H 0.57248 0.09155 0.09342 0.0
H655 H 0.55643 0.06499 0.11755 0.0
H656 H 0.46248 0.94366 0.95815 0.0
H657 H 0.50466 0.01581 0.93389 0.0
H658 H 0.44738 0.9217 0.93187 0.0
H659 H 0.46019 0.94581 0.90655 0.0
Gd660 Gd 0.98054 0.49136 0.02305 0.0
Gd661 Gd 0.02171 0.50254 0.9869 0.0
C662 C 0.09424 0.4945 0.98837 0.0
C663 C 0.12891 0.53846 0.98548 0.0
C664 C 0.0837 0.52806 0.98523 0.0
C665 C 0.07575 0.50262 0.9875 0.0
C666 C 0.11034 0.54623 0.98384 0.0
C667 C 0.12087 0.51263 0.98775 0.0
C668 C 0.08537 0.46835 0.98938 0.0
C669 C 0.05869 0.45103 0.98892 0.0
N670 N 0.04986 0.48564 0.98792 0.0
C671 C 0.04113 0.46003 0.98798 0.0
H672 H 0.0206 0.44639 0.98775 0.0
C673 C 0.07195 0.55917 0.97934 0.0
N674 N 0.06524 0.53483 0.98354 0.0
C675 C 0.09813 0.57793 0.97794 0.0
C676 C 0.11744 0.57151 0.98041 0.0
H677 H 0.05708 0.56425 0.97754 0.0
H678 H 0.13536 0.50678 0.98858 0.0
H679 H 0.98162 0.54747 0.02146 0.0
H680 H 0.09892 0.46133 0.99014 0.0
H681 H 0.05162 0.43074 0.9894 0.0
H682 H 0.14949 0.55216 0.98461 0.0
H683 H 0.94584 0.43043 0.03404 0.0
H684 H 0.90327 0.53262 0.02075 0.0
H685 H 0.95058 0.56312 0.02016 0.0
H686 H 0.85308 0.44226 0.0287 0.0
H687 H 0.10339 0.59732 0.975 0.0
H688 H 0.1377 0.58605 0.97927 0.0
H689 H 0.86694 0.48735 0.02371 0.0
H690 H 0.89982 0.39771 0.03823 0.0
N691 N 0.95233 0.50825 0.02229 0.0
C692 C 0.91684 0.52559 0.02133 0.0
C693 C 0.94352 0.54286 0.02103 0.0
C694 C 0.90802 0.49952 0.02288 0.0
C695 C 0.92651 0.49139 0.02348 0.0
C696 C 0.96109 0.53385 0.02178 0.0
N697 N 0.93725 0.45942 0.02762 0.0
C698 C 0.91871 0.46612 0.02623 0.0
C699 C 0.90485 0.41685 0.03479 0.0
C700 C 0.88538 0.42313 0.03259 0.0
C701 C 0.93087 0.43543 0.03244 0.0
C702 C 0.89221 0.44813 0.02851 0.0
H703 H 0.86523 0.40874 0.03445 0.0
O704 O 0.98402 0.47928 0.04719 0.0
O705 O 0.01503 0.49162 0.01268 0.0
O706 O 0.98949 0.46108 0.98897 0.0
O707 O 0.95652 0.46026 1.00482 0.0
O708 O 0.99333 0.46256 0.02846 0.0
O709 O 0.99166 0.51781 0.04335 0.0
O710 O 0.02015 0.51586 0.96276 0.0
O711 O 0.98679 0.50186 0.99708 0.0
O712 O 0.01274 0.53293 0.02066 0.0
O713 O 0.04562 0.53201 1.00586 0.0
O714 O 0.00909 0.53144 0.98169 0.0
O715 O 0.01148 0.47693 0.96621 0.0
C716 C 0.01389 0.47264 0.01966 0.0
C717 C 0.87356 0.45585 0.02716 0.0
C718 C 0.88146 0.48151 0.02432 0.0
C719 C 0.98966 0.50099 0.05391 0.0
C720 C 0.97603 0.49966 0.069 0.0
C721 C 0.95036 0.49484 0.06879 0.0
C722 C 0.98903 0.50328 0.08387 0.0
C723 C 0.97658 0.50222 0.09857 0.0
C724 C 0.93784 0.49373 0.0833 0.0
C725 C 0.95081 0.49742 0.0981 0.0
C726 C 0.96504 0.44982 0.99406 0.0
C727 C 0.98822 0.52105 0.9902 0.0
C728 C 0.01491 0.49443 0.95578 0.0
C729 C 0.03035 0.49646 0.94139 0.0
C730 C 0.05543 0.4999 0.94302 0.0
C731 C 0.01987 0.4948 0.92584 0.0
C732 C 0.03424 0.49623 0.91194 0.0
C733 C 0.06984 0.50155 0.92933 0.0
C734 C 0.05936 0.49967 0.91389 0.0
C735 C 0.03746 0.54307 0.01633 0.0
H736 H 0.94005 0.49198 0.05745 0.0
H737 H 0.00899 0.5073 0.08393 0.0
H738 H 0.91799 0.48996 0.08308 0.0
H739 H 0.94055 0.4962 0.10917 0.0
H740 H 0.06382 0.50123 0.95485 0.0
H741 H 1.0004 0.49194 0.92458 0.0
H742 H 0.08921 0.50425 0.93069 0.0
H743 H 0.07101 0.50116 0.90345 0.0
Gd744 Gd 0.48532 0.50306 0.99441 0.0
Gd745 Gd 0.51539 0.49248 0.03081 0.0
C746 C 0.59585 0.49985 0.03021 0.0
C747 C 0.58539 0.45588 0.03368 0.0
C748 C 0.55102 0.46662 0.03341 0.0
C749 C 0.56914 0.49194 0.03097 0.0
C750 C 0.55894 0.44833 0.03511 0.0
C751 C 0.60382 0.48161 0.03122 0.0
C752 C 0.61376 0.5259 0.02884 0.0
C753 C 0.60491 0.54337 0.02879 0.0
N754 N 0.56072 0.50903 0.03009 0.0
C755 C 0.57822 0.53458 0.02964 0.0
H756 H 0.57174 0.54831 0.02944 0.0
C757 C 0.5074 0.43577 0.03895 0.0
N758 N 0.52569 0.46005 0.03481 0.0
C759 C 0.51425 0.4169 0.04066 0.0
C760 C 0.5401 0.42313 0.03855 0.0
H761 H 0.48735 0.43079 0.04047 0.0
H762 H 0.62423 0.48727 0.03049 0.0
H763 H 0.42927 0.44701 0.99617 0.0
H764 H 0.63444 0.53275 0.02814 0.0
H765 H 0.61862 0.5636 0.028 0.0
H766 H 0.59185 0.44208 0.0348 0.0
H767 H 0.51276 0.56407 0.98341 0.0
H768 H 0.3661 0.46195 0.99672 0.0
H769 H 0.3823 0.43142 0.9975 0.0
H770 H 0.40799 0.55227 0.98856 0.0
H771 H 0.4996 0.39757 0.04358 0.0
H772 H 0.54538 0.4085 0.03993 0.0
H773 H 0.37592 0.5072 0.99358 0.0
H774 H 0.5001 0.59683 0.97926 0.0
N775 N 0.43995 0.48621 0.9951 0.0
C776 C 0.38682 0.46894 0.99611 0.0
C777 C 0.39588 0.45166 0.99653 0.0
C778 C 0.40456 0.49499 0.99445 0.0
C779 C 0.43133 0.50309 0.99383 0.0
C780 C 0.42261 0.46063 0.99576 0.0
N781 N 0.47465 0.53505 0.98974 0.0
C782 C 0.44929 0.52836 0.99108 0.0
C783 C 0.48562 0.57767 0.98265 0.0
C784 C 0.45976 0.57139 0.98478 0.0
C785 C 0.49271 0.55907 0.98497 0.0
C786 C 0.44113 0.54637 0.98879 0.0
H787 H 0.4543 0.5858 0.98293 0.0
O788 O 0.50189 0.51476 0.97048 0.0
O789 O 0.51972 0.50297 1.00492 0.0
O790 O 0.52567 0.53389 0.02811 0.0
O791 O 0.49284 0.5341 0.01253 0.0
O792 O 0.52736 0.532 0.9891 0.0
O793 O 0.46866 0.47704 0.97391 0.0
O794 O 0.50022 0.48002 0.055 0.0
O795 O 0.48099 0.49278 0.02041 0.0
O796 O 0.4754 0.46163 0.99707 0.0
O797 O 0.50943 0.46295 0.01204 0.0
O798 O 0.47339 0.46348 0.03599 0.0
O799 O 0.53129 0.51881 0.05118 0.0
C800 C 0.53781 0.522 0.99792 0.0
C801 C 0.41463 0.53867 0.99011 0.0
C802 C 0.39637 0.51302 0.99296 0.0
C803 C 0.48468 0.49354 0.96355 0.0
C804 C 0.47347 0.49612 0.94828 0.0
C805 C 0.45388 0.5026 0.9482 0.0
C806 C 0.48303 0.49258 0.93354 0.0
C807 C 0.4732 0.49556 0.91866 0.0
C808 C 0.44398 0.50557 0.93353 0.0
C809 C 0.45354 0.50212 0.91886 0.0
C810 C 0.51247 0.54494 0.02298 0.0
C811 C 0.46294 0.47362 0.02733 0.0
C812 C 0.51671 0.50174 0.06176 0.0
C813 C 0.52978 0.50036 0.07655 0.0
C814 C 0.55133 0.49678 0.07565 0.0
C815 C 0.52068 0.50281 0.09177 0.0
C816 C 0.53325 0.50204 0.10609 0.0
C817 C 0.56377 0.49584 0.08978 0.0
C818 C 0.55489 0.49852 0.1049 0.0
C819 C 0.48996 0.4517 1.00154 0.0
H820 H 0.44633 0.50545 0.95944 0.0
H821 H 0.49797 0.48726 0.93372 0.0
H822 H 0.42892 0.51069 0.93353 0.0
H823 H 0.44577 0.50494 0.90768 0.0
H824 H 0.55857 0.49481 0.06407 0.0
H825 H 0.50414 0.50576 0.09244 0.0
H826 H 0.58038 0.49306 0.089 0.0
H827 H 0.5648 0.49756 0.11567 0.0
Gd828 Gd 0.17959 0.34999 0.36561 0.0
Gd829 Gd 0.15505 0.31561 0.32674 0.0
C830 C 0.07302 0.24617 0.32795 0.0
C831 C 0.08119 0.21121 0.32283 0.0
C832 C 0.11699 0.25501 0.32355 0.0
C833 C 0.09994 0.26355 0.32693 0.0
C834 C 0.10777 0.22881 0.3209 0.0
C835 C 0.06382 0.21989 0.32636 0.0
C836 C 0.05614 0.25579 0.33004 0.0
C837 C 0.06622 0.28215 0.33068 0.0
N838 N 0.10958 0.28905 0.32837 0.0
C839 C 0.09312 0.29859 0.32979 0.0
H840 H 0.10059 0.31886 0.33053 0.0
C841 C 0.15911 0.26557 0.31512 0.0
N842 N 0.14237 0.27259 0.3215 0.0
C843 C 0.15107 0.2398 0.31252 0.0
C844 C 0.12536 0.22127 0.31572 0.0
H845 H 0.17894 0.27994 0.31251 0.0
H846 H 0.04325 0.2062 0.32734 0.0
H847 H 0.19638 0.32487 0.39571 0.0
H848 H 0.03533 0.2431 0.33085 0.0
H849 H 0.05332 0.28983 0.33206 0.0
H850 H 0.07375 0.19096 0.32108 0.0
H851 H 0.19667 0.40431 0.3453 0.0
H852 H 0.27904 0.36808 0.40236 0.0
H853 H 0.23624 0.33161 0.40983 0.0
H854 H 0.30397 0.43978 0.36775 0.0
H855 H 0.16464 0.23428 0.30798 0.0
H856 H 0.11908 0.20133 0.31355 0.0
H857 H 0.30425 0.40841 0.38645 0.0
H858 H 0.23591 0.44519 0.33985 0.0
N859 N 0.21681 0.3555 0.37944 0.0
C860 C 0.26168 0.36486 0.39596 0.0
C861 C 0.23758 0.34425 0.4002 0.0
C862 C 0.26285 0.3819 0.38417 0.0
C863 C 0.23965 0.37684 0.37623 0.0
C864 C 0.21514 0.34029 0.39209 0.0
N865 N 0.21632 0.38966 0.35939 0.0
C866 C 0.23938 0.39461 0.36598 0.0
C867 C 0.23719 0.43111 0.3472 0.0
C868 C 0.26118 0.43603 0.35337 0.0
C869 C 0.21485 0.40776 0.35036 0.0
C870 C 0.26249 0.41779 0.36302 0.0
H871 H 0.27848 0.45405 0.3508 0.0
O872 O 0.17834 0.37937 0.38031 0.0
O873 O 0.14453 0.3209 0.35178 0.0
O874 O 0.14716 0.34821 0.32768 0.0
O875 O 0.15729 0.36678 0.35346 0.0
O876 O 0.15163 0.3111 0.37476 0.0
O877 O 0.16146 0.34112 0.38935 0.0
O878 O 0.17288 0.32085 0.30299 0.0
O879 O 0.18697 0.35006 0.33918 0.0
O880 O 0.19435 0.32206 0.36289 0.0
O881 O 0.16849 0.29336 0.34226 0.0
O882 O 0.1974 0.3292 0.32372 0.0
O883 O 0.13874 0.3242 0.3057 0.0
C884 C 0.13617 0.3036 0.36244 0.0
C885 C 0.28598 0.42225 0.37006 0.0
C886 C 0.28616 0.40434 0.38065 0.0
C887 C 0.16917 0.36475 0.39293 0.0
C888 C 0.18352 0.37421 0.40853 0.0
C889 C 0.20709 0.39749 0.40927 0.0
C890 C 0.17431 0.35932 0.42269 0.0
C891 C 0.18863 0.36748 0.43736 0.0
C892 C 0.22112 0.40582 0.42374 0.0
C893 C 0.21203 0.39104 0.43765 0.0
C894 C 0.14787 0.36456 0.3386 0.0
C895 C 0.20596 0.34878 0.33318 0.0
C896 C 0.15554 0.3243 0.29562 0.0
C897 C 0.14503 0.31032 0.28025 0.0
C898 C 0.12731 0.28403 0.28026 0.0
C899 C 0.15234 0.32342 0.26542 0.0
C900 C 0.14175 0.31033 0.25066 0.0
C901 C 0.11703 0.27091 0.26572 0.0
C902 C 0.12412 0.28389 0.25104 0.0
C903 C 0.18532 0.3004 0.35453 0.0
H904 H 0.21489 0.40926 0.39864 0.0
H905 H 0.15638 0.34113 0.42215 0.0
H906 H 0.23921 0.42383 0.42418 0.0
H907 H 0.2233 0.39825 0.44872 0.0
H908 H 0.1213 0.27369 0.2915 0.0
H909 H 0.16579 0.34381 0.26543 0.0
H910 H 0.10343 0.25059 0.26583 0.0
H911 H 0.11594 0.27314 0.23994 0.0
Gd912 Gd 0.64652 0.82672 0.35965 0.0
Gd913 Gd 0.68779 0.83502 0.32412 0.0
C914 C 0.75906 0.82511 0.32766 0.0
C915 C 0.79452 0.86852 0.32404 0.0
C916 C 0.74965 0.85916 0.32307 0.0
C917 C 0.74107 0.83377 0.3261 0.0
C918 C 0.77644 0.87674 0.3216 0.0
C919 C 0.78583 0.84274 0.32708 0.0
C920 C 0.74956 0.79892 0.32918 0.0
C921 C 0.72279 0.78204 0.32846 0.0
N922 N 0.71506 0.81725 0.32636 0.0
C923 C 0.70574 0.79156 0.32683 0.0
H924 H 0.68512 0.77828 0.32641 0.0
C925 C 0.73896 0.89046 0.31555 0.0
N926 N 0.73164 0.86634 0.32061 0.0
C927 C 0.76532 0.90864 0.31399 0.0
C928 C 0.78417 0.90185 0.31724 0.0
H929 H 0.72446 0.89585 0.31316 0.0
H930 H 0.79995 0.8365 0.32847 0.0
H931 H 0.6499 0.88373 0.35645 0.0
H932 H 0.76272 0.79149 0.33047 0.0
H933 H 0.71525 0.76169 0.32927 0.0
H934 H 0.8152 0.8818 0.32314 0.0
H935 H 0.60978 0.76622 0.37117 0.0
H936 H 0.57253 0.87154 0.35454 0.0
H937 H 0.62013 0.90078 0.35407 0.0
H938 H 0.51955 0.78172 0.36365 0.0
H939 H 0.77107 0.92788 0.31033 0.0
H940 H 0.80456 0.91595 0.31598 0.0
H941 H 0.53507 0.82694 0.35789 0.0
H942 H 0.56326 0.73478 0.37506 0.0
N943 N 0.61961 0.84496 0.3578 0.0
C944 C 0.58554 0.8639 0.3556 0.0
C945 C 0.61238 0.88046 0.35537 0.0
C946 C 0.57582 0.83776 0.35768 0.0
C947 C 0.5936 0.8288 0.35889 0.0
C948 C 0.62923 0.87066 0.35672 0.0
N949 N 0.60273 0.79593 0.36399 0.0
C950 C 0.58487 0.80343 0.36207 0.0
C951 C 0.56906 0.754 0.37134 0.0
C952 C 0.55031 0.7611 0.36862 0.0
C953 C 0.59537 0.77185 0.36916 0.0
C954 C 0.55813 0.78619 0.36418 0.0
H955 H 0.52994 0.74726 0.37036 0.0
O956 O 0.64893 0.8152 0.38413 0.0
O957 O 0.68066 0.82529 0.3501 0.0
O958 O 0.65458 0.79405 0.32673 0.0
O959 O 0.62202 0.79565 0.34161 0.0
O960 O 0.65771 0.79703 0.36605 0.0
O961 O 0.6573 0.85382 0.37954 0.0
O962 O 0.68719 0.84703 0.29946 0.0
O963 O 0.65337 0.83611 0.33357 0.0
O964 O 0.67991 0.86767 0.35702 0.0
O965 O 0.71221 0.86498 0.3427 0.0
O966 O 0.67632 0.86447 0.31769 0.0
O967 O 0.67719 0.808 0.3042 0.0
C968 C 0.67853 0.80619 0.3575 0.0
C969 C 0.54021 0.79473 0.36225 0.0
C970 C 0.54904 0.82047 0.35898 0.0
C971 C 0.65464 0.8372 0.39044 0.0
C972 C 0.64061 0.83647 0.4052 0.0
C973 C 0.61482 0.83129 0.40458 0.0
C974 C 0.65334 0.84087 0.4202 0.0
C975 C 0.64048 0.84004 0.43467 0.0
C976 C 0.60191 0.83051 0.41886 0.0
C977 C 0.6146 0.83484 0.43382 0.0
C978 C 0.63002 0.78404 0.33142 0.0
C979 C 0.65538 0.85512 0.32612 0.0
C980 C 0.68151 0.82501 0.29319 0.0
C981 C 0.69726 0.8257 0.2793 0.0
C982 C 0.7222 0.8291 0.28166 0.0
C983 C 0.68726 0.8229 0.26351 0.0
C984 C 0.70205 0.82335 0.25008 0.0
C985 C 0.73702 0.82971 0.26843 0.0
C986 C 0.72708 0.82686 0.25274 0.0
C987 C 0.7046 0.8768 0.35296 0.0
H988 H 0.60472 0.82787 0.39311 0.0
H989 H 0.67341 0.84523 0.42054 0.0
H990 H 0.58197 0.82643 0.41833 0.0
H991 H 0.60404 0.8338 0.44472 0.0
H992 H 0.7302 0.83123 0.29367 0.0
H993 H 0.66787 0.82002 0.26173 0.0
H994 H 0.7563 0.83244 0.27035 0.0
H995 H 0.73912 0.8277 0.24268 0.0
Gd996 Gd 0.1523 0.83741 0.32579 0.0
Gd997 Gd 0.18141 0.82687 0.36262 0.0
C998 C 0.26118 0.83269 0.36276 0.0
C999 C 0.24987 0.78854 0.36661 0.0
C1000 C 0.21608 0.80006 0.36585 0.0
C1001 C 0.23457 0.82524 0.36331 0.0
C1002 C 0.22351 0.78146 0.36783 0.0
C1003 C 0.26868 0.81412 0.36406 0.0
C1004 C 0.27947 0.85863 0.36132 0.0
C1005 C 0.27108 0.87644 0.36102 0.0
N1006 N 0.22662 0.84266 0.36218 0.0
C1007 C 0.24447 0.86811 0.36168 0.0
H1008 H 0.23833 0.8821 0.36129 0.0
C1009 C 0.17219 0.76986 0.37128 0.0
N1010 N 0.19086 0.79396 0.36706 0.0
C1011 C 0.17856 0.75069 0.37326 0.0
C1012 C 0.2043 0.75644 0.37136 0.0
H1013 H 0.15222 0.76525 0.37264 0.0
H1014 H 0.289 0.81943 0.36349 0.0
H1015 H 0.09585 0.78166 0.32694 0.0
H1016 H 0.30009 0.86513 0.36078 0.0
H1017 H 0.28508 0.8966 0.36018 0.0
H1018 H 0.25596 0.77449 0.36795 0.0
H1019 H 0.18061 0.89851 0.31484 0.0
H1020 H 0.03317 0.7973 0.32624 0.0
H1021 H 0.04892 0.76645 0.32748 0.0
H1022 H 0.07612 0.88772 0.31831 0.0
H1023 H 0.16362 0.7315 0.37623 0.0
H1024 H 0.2092 0.74158 0.37295 0.0
H1025 H 0.04354 0.84271 0.32304 0.0
H1026 H 0.16853 0.9316 0.3103 0.0
N1027 N 0.10695 0.82097 0.32588 0.0
C1028 C 0.05388 0.80413 0.32599 0.0
C1029 C 0.06269 0.78666 0.32665 0.0
C1030 C 0.07187 0.83015 0.32452 0.0
C1031 C 0.09861 0.83803 0.32435 0.0
C1032 C 0.08941 0.79542 0.32635 0.0
N1033 N 0.14216 0.86969 0.32071 0.0
C1034 C 0.11683 0.86324 0.3217 0.0
C1035 C 0.1538 0.91247 0.31356 0.0
C1036 C 0.12795 0.90642 0.31531 0.0
C1037 C 0.16056 0.89368 0.3161 0.0
C1038 C 0.109 0.88145 0.31916 0.0
H1039 H 0.12273 0.92098 0.31327 0.0
O1040 O 0.16874 0.84893 0.3018 0.0
O1041 O 0.18645 0.83715 0.33664 0.0
O1042 O 0.19232 0.86838 0.35952 0.0
O1043 O 0.15963 0.86855 0.34381 0.0
O1044 O 0.19449 0.86604 0.32063 0.0
O1045 O 0.13641 0.81077 0.30556 0.0
O1046 O 0.16621 0.81514 0.38687 0.0
O1047 O 0.14737 0.82742 0.35182 0.0
O1048 O 0.14174 0.79587 0.32888 0.0
O1049 O 0.17547 0.79704 0.34407 0.0
O1050 O 0.13914 0.79847 0.36783 0.0
O1051 O 0.19756 0.85369 0.38272 0.0
C1052 C 0.20474 0.85604 0.32964 0.0
C1053 C 0.08251 0.87398 0.32008 0.0
C1054 C 0.06397 0.84836 0.32276 0.0
C1055 C 0.15211 0.82726 0.29508 0.0
C1056 C 0.1406 0.82874 0.27964 0.0
C1057 C 0.12049 0.83449 0.27917 0.0
C1058 C 0.15021 0.8246 0.26512 0.0
C1059 C 0.13989 0.82617 0.25006 0.0
C1060 C 0.11008 0.83605 0.26432 0.0
C1061 C 0.11966 0.83193 0.24985 0.0
C1062 C 0.17925 0.87947 0.35428 0.0
C1063 C 0.12904 0.80858 0.35882 0.0
C1064 C 0.18286 0.83698 0.39344 0.0
C1065 C 0.19584 0.83586 0.40835 0.0
C1066 C 0.21661 0.83107 0.40768 0.0
C1067 C 0.18742 0.83975 0.42343 0.0
C1068 C 0.19983 0.83911 0.43786 0.0
C1069 C 0.22893 0.83029 0.42191 0.0
C1070 C 0.22067 0.83431 0.4369 0.0
C1071 C 0.15607 0.78579 0.33352 0.0
H1072 H 0.1129 0.83779 0.29025 0.0
H1073 H 0.16556 0.81986 0.2656 0.0
H1074 H 0.0946 0.84056 0.26401 0.0
H1075 H 0.11147 0.83362 0.2385 0.0
H1076 H 0.22333 0.828 0.39621 0.0
H1077 H 0.17149 0.84366 0.42389 0.0
H1078 H 0.24492 0.82654 0.42132 0.0
H1079 H 0.23042 0.83336 0.44776 0.0
Gd1080 Gd 0.84591 0.68814 0.69488 0.0
Gd1081 Gd 0.82042 0.65601 0.65565 0.0
C1082 C 0.74334 0.63985 0.63288 0.0
C1083 C 0.71312 0.59801 0.64354 0.0
C1084 C 0.75905 0.61882 0.65073 0.0
C1085 C 0.76368 0.63976 0.64168 0.0
C1086 C 0.7338 0.59742 0.65146 0.0
C1087 C 0.7179 0.61918 0.63422 0.0
C1088 C 0.74939 0.6602 0.62245 0.0
C1089 C 0.77532 0.67918 0.6205 0.0
N1090 N 0.78849 0.65928 0.64057 0.0
C1091 C 0.7948 0.67814 0.62946 0.0
H1092 H 0.81485 0.6928 0.62789 0.0
C1093 C 0.77648 0.59708 0.66505 0.0
N1094 N 0.77958 0.61871 0.6579 0.0
C1095 C 0.75177 0.57543 0.66622 0.0
C1096 C 0.73026 0.57573 0.65962 0.0
H1097 H 0.79287 0.59654 0.67025 0.0
H1098 H 0.70194 0.61902 0.62771 0.0
H1099 H 0.90641 0.69775 0.69157 0.0
H1100 H 0.73433 0.66097 0.61545 0.0
H1101 H 0.78031 0.69459 0.61211 0.0
H1102 H 0.69354 0.58186 0.6441 0.0
H1103 H 0.81086 0.71275 0.71025 0.0
H1104 H 0.96009 0.77804 0.69266 0.0
H1105 H 0.95137 0.73367 0.69026 0.0
H1106 H 0.90593 0.81372 0.70509 0.0
H1107 H 0.74935 0.55857 0.67227 0.0
H1108 H 0.71116 0.55893 0.66051 0.0
H1109 H 0.94286 0.80787 0.69791 0.0
H1110 H 0.81612 0.75505 0.71649 0.0
N1111 N 0.88956 0.72141 0.69429 0.0
C1112 C 0.94027 0.76232 0.69326 0.0
C1113 C 0.93543 0.73731 0.69195 0.0
C1114 C 0.91955 0.76668 0.69589 0.0
C1115 C 0.89412 0.74552 0.6965 0.0
C1116 C 0.90985 0.71696 0.69269 0.0
N1117 N 0.84968 0.72775 0.70195 0.0
C1118 C 0.87348 0.74882 0.70051 0.0
C1119 C 0.83238 0.75359 0.71188 0.0
C1120 C 0.85639 0.77558 0.70948 0.0
C1121 C 0.82947 0.72966 0.70835 0.0
C1122 C 0.87747 0.77335 0.70405 0.0
H1123 H 0.85863 0.79409 0.71232 0.0
O1124 O 0.82733 0.67426 0.71826 0.0
O1125 O 0.81482 0.65328 0.68227 0.0
O1126 O 0.80354 0.68147 0.66152 0.0
O1127 O 0.83433 0.71171 0.67938 0.0
O1128 O 0.80299 0.67108 0.69891 0.0
O1129 O 0.86708 0.68397 0.71508 0.0
O1130 O 0.81994 0.62582 0.64092 0.0
O1131 O 0.85592 0.68325 0.66973 0.0
O1132 O 0.86207 0.66209 0.68968 0.0
O1133 O 0.83571 0.63372 0.66952 0.0
O1134 O 0.85037 0.69514 0.64737 0.0
O1135 O 0.84133 0.66462 0.6328 0.0
C1136 C 0.79516 0.65201 0.6891 0.0
C1137 C 0.9025 0.79467 0.7026 0.0
C1138 C 0.92352 0.79134 0.69851 0.0
C1139 C 0.84822 0.67718 0.72531 0.0
C1140 C 0.85492 0.69073 0.74104 0.0
C1141 C 0.87015 0.71742 0.74163 0.0
C1142 C 0.84561 0.67706 0.75557 0.0
C1143 C 0.85126 0.69008 0.7706 0.0
C1144 C 0.87594 0.73036 0.75643 0.0
C1145 C 0.86657 0.71688 0.7708 0.0
C1146 C 0.81498 0.70414 0.66878 0.0
C1147 C 0.86571 0.70127 0.65968 0.0
C1148 C 0.83128 0.64079 0.6287 0.0
C1149 C 0.81754 0.63335 0.61279 0.0
C1150 C 0.79291 0.61128 0.61142 0.0
C1151 C 0.82812 0.6491 0.59908 0.0
C1152 C 0.81398 0.64311 0.58434 0.0
C1153 C 0.7791 0.60511 0.59685 0.0
C1154 C 0.78944 0.62085 0.58345 0.0
C1155 C 0.85311 0.6405 0.68138 0.0
H1156 H 0.8776 0.72826 0.73065 0.0
H1157 H 0.83366 0.65645 0.75514 0.0
H1158 H 0.88775 0.75096 0.75677 0.0
H1159 H 0.87159 0.72745 0.78213 0.0
H1160 H 0.78405 0.59886 0.62166 0.0
H1161 H 0.84692 0.66635 0.60002 0.0
H1162 H 0.76015 0.58808 0.59596 0.0
H1163 H 0.77825 0.61545 0.57229 0.0
Gd1164 Gd 0.31648 0.16836 0.69207 0.0
Gd1165 Gd 0.35708 0.17531 0.65636 0.0
C1166 C 0.42889 0.16622 0.65972 0.0
C1167 C 0.46396 0.20948 0.65505 0.0
C1168 C 0.41896 0.19975 0.65451 0.0
C1169 C 0.4107 0.17459 0.65805 0.0
C1170 C 0.44564 0.21741 0.65262 0.0
C1171 C 0.45559 0.18392 0.65861 0.0
C1172 C 0.41967 0.1402 0.66201 0.0
C1173 C 0.39292 0.12319 0.66201 0.0
N1174 N 0.38475 0.158 0.65891 0.0
C1175 C 0.37565 0.13242 0.66021 0.0
H1176 H 0.35506 0.11903 0.66035 0.0
C1177 C 0.40771 0.23055 0.64673 0.0
N1178 N 0.40073 0.20667 0.65211 0.0
C1179 C 0.43395 0.2488 0.64477 0.0
C1180 C 0.45304 0.24229 0.64791 0.0
H1181 H 0.39304 0.23573 0.6444 0.0
H1182 H 0.46988 0.1779 0.66007 0.0
H1183 H 0.31964 0.22521 0.68828 0.0
H1184 H 0.433 0.133 0.66343 0.0
H1185 H 0.38556 0.10296 0.66347 0.0
H1186 H 0.48458 0.22281 0.65382 0.0
H1187 H 0.28005 0.10811 0.70414 0.0
H1188 H 0.24217 0.21278 0.6867 0.0
H1189 H 0.28973 0.24208 0.68582 0.0
H1190 H 0.18955 0.12319 0.6967 0.0
H1191 H 0.43943 0.26786 0.64086 0.0
H1192 H 0.47335 0.25644 0.64634 0.0
H1193 H 0.20486 0.16825 0.69054 0.0
H1194 H 0.23361 0.07664 0.7083 0.0
N1195 N 0.28946 0.18646 0.69011 0.0
C1196 C 0.25524 0.20522 0.68781 0.0
C1197 C 0.28206 0.22182 0.68734 0.0
C1198 C 0.24563 0.17915 0.69016 0.0
C1199 C 0.26349 0.17029 0.69142 0.0
C1200 C 0.29899 0.21212 0.68874 0.0
N1201 N 0.2728 0.1376 0.69677 0.0
C1202 C 0.25488 0.14502 0.69484 0.0
C1203 C 0.23931 0.09578 0.70444 0.0
C1204 C 0.22048 0.10277 0.70173 0.0
C1205 C 0.26557 0.11364 0.70212 0.0
C1206 C 0.22818 0.12777 0.69712 0.0
H1207 H 0.20015 0.08893 0.70359 0.0
O1208 O 0.31969 0.15747 0.7166 0.0
O1209 O 0.35062 0.16696 0.68254 0.0
O1210 O 0.32438 0.13441 0.65995 0.0
O1211 O 0.29182 0.1365 0.67449 0.0
O1212 O 0.32817 0.13923 0.69894 0.0
O1213 O 0.32721 0.19577 0.7118 0.0
O1214 O 0.35567 0.18592 0.63144 0.0
O1215 O 0.32285 0.17667 0.66585 0.0
O1216 O 0.34969 0.20931 0.68876 0.0
O1217 O 0.38173 0.20631 0.67428 0.0
O1218 O 0.34518 0.20422 0.64935 0.0
O1219 O 0.34577 0.14717 0.63707 0.0
C1220 C 0.34891 0.14834 0.69033 0.0
C1221 C 0.21017 0.1362 0.69516 0.0
C1222 C 0.21889 0.16185 0.69166 0.0
C1223 C 0.32513 0.17946 0.72278 0.0
C1224 C 0.31138 0.17866 0.7377 0.0
C1225 C 0.28661 0.17618 0.73725 0.0
C1226 C 0.3233 0.18018 0.75269 0.0
C1227 C 0.31071 0.17932 0.76729 0.0
C1228 C 0.27398 0.17535 0.75166 0.0
C1229 C 0.2859 0.17694 0.76659 0.0
C1230 C 0.29989 0.12444 0.66473 0.0
C1231 C 0.32457 0.19529 0.65805 0.0
C1232 C 0.34975 0.16354 0.62568 0.0
C1233 C 0.36499 0.16335 0.61174 0.0
C1234 C 0.38962 0.16594 0.61399 0.0
C1235 C 0.35478 0.16042 0.59599 0.0
C1236 C 0.369 0.15984 0.58253 0.0
C1237 C 0.40389 0.16557 0.60073 0.0
C1238 C 0.39369 0.16251 0.5851 0.0
C1239 C 0.37425 0.21851 0.68432 0.0
H1240 H 0.2771 0.17491 0.7258 0.0
H1241 H 0.34257 0.18236 0.75294 0.0
H1242 H 0.25484 0.1734 0.75126 0.0
H1243 H 0.27558 0.17598 0.77759 0.0
H1244 H 0.3978 0.16817 0.62597 0.0
H1245 H 0.33563 0.15818 0.59427 0.0
H1246 H 0.42292 0.16765 0.60258 0.0
H1247 H 0.40528 0.16252 0.575 0.0
Gd1248 Gd 0.82196 0.17262 0.66211 0.0
Gd1249 Gd 0.85317 0.16998 0.70044 0.0
C1250 C 0.9289 0.23587 0.72133 0.0
C1251 C 0.96151 0.22732 0.70996 0.0
C1252 C 0.91553 0.19844 0.70453 0.0
C1253 C 0.9093 0.21378 0.7135 0.0
C1254 C 0.94168 0.20451 0.70309 0.0
C1255 C 0.95512 0.24301 0.71908 0.0
C1256 C 0.92148 0.24946 0.73168 0.0
C1257 C 0.8951 0.24016 0.73462 0.0
N1258 N 0.88379 0.20597 0.71556 0.0
C1259 C 0.87643 0.21794 0.72671 0.0
H1260 H 0.8561 0.21084 0.72908 0.0
C1261 C 0.90079 0.15865 0.69167 0.0
N1262 N 0.8958 0.17652 0.69828 0.0
C1263 C 0.92638 0.16367 0.69002 0.0
C1264 C 0.94698 0.18698 0.6954 0.0
H1265 H 0.88521 0.14062 0.68732 0.0
H1266 H 0.97051 0.2601 0.7248 0.0
H1267 H 0.76242 0.12316 0.66903 0.0
H1268 H 0.93592 0.26657 0.7379 0.0
H1269 H 0.88913 0.25007 0.74298 0.0
H1270 H 0.98174 0.23252 0.70879 0.0
H1271 H 0.85454 0.22953 0.64376 0.0
H1272 H 0.70741 0.1491 0.66712 0.0
H1273 H 0.71738 0.11444 0.67132 0.0
H1274 H 0.75868 0.23565 0.64966 0.0
H1275 H 0.93019 0.14965 0.68442 0.0
H1276 H 0.96678 0.19088 0.69404 0.0
H1277 H 0.72311 0.19457 0.65929 0.0
H1278 H 0.8477 0.26495 0.63601 0.0
N1279 N 0.77821 0.16264 0.66398 0.0
C1280 C 0.72728 0.15306 0.66609 0.0
C1281 C 0.73282 0.13345 0.66842 0.0
C1282 C 0.74734 0.17735 0.66192 0.0
C1283 C 0.77287 0.18149 0.6608 0.0
C1284 C 0.75847 0.13853 0.66714 0.0
N1285 N 0.8166 0.20695 0.65355 0.0
C1286 C 0.79275 0.20445 0.65539 0.0
C1287 C 0.83211 0.24811 0.64157 0.0
C1288 C 0.80808 0.24638 0.64426 0.0
C1289 C 0.83591 0.22794 0.64601 0.0
C1290 C 0.78785 0.22414 0.65096 0.0
H1291 H 0.80513 0.26195 0.6407 0.0
O1292 O 0.83813 0.17202 0.63854 0.0
O1293 O 0.856 0.17243 0.67374 0.0
O1294 O 0.86601 0.21121 0.69465 0.0
O1295 O 0.83468 0.20931 0.67618 0.0
O1296 O 0.86397 0.19848 0.65547 0.0
O1297 O 0.79846 0.14438 0.64379 0.0
O1298 O 0.85297 0.13772 0.71201 0.0
O1299 O 0.816 0.161 0.68786 0.0
O1300 O 0.80697 0.13217 0.6706 0.0
O1301 O 0.84307 0.13625 0.68374 0.0
O1302 O 0.82268 0.17789 0.71056 0.0
O1303 O 0.83322 0.15523 0.72333 0.0
C1304 C 0.87413 0.19019 0.66582 0.0
C1305 C 0.76278 0.22066 0.65284 0.0
C1306 C 0.74253 0.19728 0.65833 0.0
C1307 C 0.81634 0.15378 0.6328 0.0
C1308 C 0.80848 0.1581 0.61674 0.0
C1309 C 0.79114 0.16738 0.61521 0.0
C1310 C 0.81858 0.153 0.60275 0.0
C1311 C 0.81124 0.15687 0.58724 0.0
C1312 C 0.78379 0.17126 0.5999 0.0
C1313 C 0.79368 0.166 0.58599 0.0
C1314 C 0.854 0.22148 0.68676 0.0
C1315 C 0.80677 0.16935 0.6985 0.0
C1316 C 0.84087 0.13868 0.72483 0.0
C1317 C 0.85117 0.13683 0.74086 0.0
C1318 C 0.86816 0.127 0.74199 0.0
C1319 C 0.84251 0.14287 0.75525 0.0
C1320 C 0.85036 0.13865 0.77048 0.0
C1321 C 0.87617 0.1231 0.75708 0.0
C1322 C 0.8672 0.12868 0.77124 0.0
C1323 C 0.82159 0.12254 0.67514 0.0
H1324 H 0.78325 0.17156 0.62583 0.0
H1325 H 0.83189 0.14572 0.60395 0.0
H1326 H 0.77041 0.17843 0.5988 0.0
H1327 H 0.78787 0.16943 0.57426 0.0
H1328 H 0.87498 0.12193 0.73122 0.0
H1329 H 0.82911 0.1501 0.75465 0.0
H1330 H 0.88916 0.11543 0.7578 0.0
H1331 H 0.87351 0.12533 0.78283 0.0
H1332 H 0.32605 0.83012 0.0465 0.0
H1333 H 0.32903 0.88732 0.07939 0.0
H1334 H 0.36467 0.86278 0.0328 0.0
H1335 H 0.36813 0.91971 0.06614 0.0
H1336 H 0.42943 0.97714 0.03374 0.0
H1337 H 0.38587 0.94398 0.04173 0.0
H1338 H 0.41083 0.88805 0.03957 0.0
H1339 H 0.45416 0.92133 0.03132 0.0
C1340 C 0.33471 0.8497 0.05068 0.0
C1341 C 0.32447 0.85606 0.06412 0.0
C1342 C 0.35703 0.86837 0.04293 0.0
C1343 C 0.36962 0.89386 0.04841 0.0
C1344 C 0.35883 0.90034 0.06147 0.0
C1345 C 0.33656 0.88169 0.06922 0.0
C1346 C 0.4252 0.95756 0.0345 0.0
C1347 C 0.44466 0.95146 0.03138 0.0
C1348 C 0.40043 0.93864 0.03927 0.0
C1349 C 0.39481 0.91332 0.04132 0.0
C1350 C 0.41429 0.90722 0.03785 0.0
C1351 C 0.43909 0.92621 0.03314 0.0
H1352 H 0.12044 0.41502 0.03567 0.0
H1353 H 0.14792 0.48026 0.06772 0.0
H1354 H 0.08804 0.42423 0.02445 0.0
H1355 H 0.11489 0.48905 0.05675 0.0
H1356 H 0.06534 0.50908 0.02341 0.0
H1357 H 0.10114 0.50255 0.03195 0.0
H1358 H 0.04773 0.42142 0.03452 0.0
H1359 H 0.01218 0.42805 0.0258 0.0
C1360 C 0.11981 0.43152 0.04021 0.0
C1361 C 0.13686 0.44688 0.05264 0.0
C1362 C 0.10099 0.43663 0.03389 0.0
C1363 C 0.09871 0.45726 0.03977 0.0
C1364 C 0.1162 0.47308 0.05187 0.0
C1365 C 0.13497 0.46789 0.05828 0.0
C1366 C 0.06141 0.48985 0.02551 0.0
C1367 C 0.03614 0.46896 0.02352 0.0
C1368 C 0.08184 0.48612 0.03059 0.0
C1369 C 0.07736 0.46144 0.03384 0.0
C1370 C 0.05199 0.44063 0.03185 0.0
C1371 C 0.0316 0.44439 0.02692 0.0
H1372 H 0.53415 0.69021 0.06047 0.0
H1373 H 0.60891 0.70593 0.04244 0.0
H1374 H 0.51531 0.64552 0.052 0.0
H1375 H 0.59002 0.66169 0.03365 0.0
H1376 H 0.55702 0.57667 0.03966 0.0
H1377 H 0.57317 0.62068 0.04772 0.0
H1378 H 0.5048 0.61777 0.02707 0.0
H1379 H 0.48818 0.57319 0.01918 0.0
C1380 C 0.54651 0.68416 0.05464 0.0
C1381 C 0.57303 0.70159 0.05215 0.0
C1382 C 0.53568 0.65866 0.04967 0.0
C1383 C 0.55123 0.65009 0.04225 0.0
C1384 C 0.5776 0.66765 0.03951 0.0
C1385 C 0.58837 0.69307 0.04439 0.0
C1386 C 0.54531 0.58525 0.03681 0.0
C1387 C 0.52146 0.57143 0.0285 0.0
C1388 C 0.55469 0.6106 0.04137 0.0
C1389 C 0.54044 0.6228 0.03783 0.0
C1390 C 0.51622 0.60885 0.02995 0.0
C1391 C 0.50683 0.5834 0.02531 0.0
H1392 H 0.83373 0.30402 0.95976 0.0
H1393 H 0.89888 0.29157 0.9658 0.0
H1394 H 0.86137 0.34862 0.96787 0.0
H1395 H 0.92585 0.33539 0.97478 0.0
H1396 H 0.97611 0.42042 0.97402 0.0
H1397 H 0.94717 0.37726 0.96453 0.0
H1398 H 0.88362 0.37614 0.99059 0.0
H1399 H 0.91243 0.42009 0.99944 0.0
C1400 C 0.85389 0.31072 0.96283 0.0
C1401 C 0.86397 0.29405 0.96214 0.0
C1402 C 0.86968 0.33625 0.96768 0.0
C1403 C 0.89593 0.34574 0.97196 0.0
C1404 C 0.90588 0.32898 0.97134 0.0
C1405 C 0.89022 0.30362 0.96642 0.0
C1406 C 0.95597 0.41112 0.97774 0.0
C1407 C 0.94682 0.42368 0.98784 0.0
C1408 C 0.93935 0.38617 0.97236 0.0
C1409 C 0.91308 0.37292 0.977 0.0
C1410 C 0.9037 0.38571 0.98674 0.0
C1411 C 0.92034 0.41084 0.99202 0.0
H1412 H 0.68477 0.52266 0.98166 0.0
H1413 H 0.67949 0.57131 0.94562 0.0
H1414 H 0.64331 0.51462 0.99308 0.0
H1415 H 0.63803 0.56278 0.9567 0.0
H1416 H 0.58051 0.56661 0.99063 0.0
H1417 H 0.62255 0.57365 0.98127 0.0
H1418 H 0.59565 0.49324 0.98624 0.0
H1419 H 0.55347 0.48629 0.99556 0.0
C1420 C 0.67476 0.53154 0.97612 0.0
C1421 C 0.68551 0.54759 0.96266 0.0
C1422 C 0.65091 0.52679 0.9826 0.0
C1423 C 0.63742 0.53819 0.97588 0.0
C1424 C 0.64805 0.55396 0.96233 0.0
C1425 C 0.67171 0.55857 0.95582 0.0
C1426 C 0.58373 0.55051 0.98989 0.0
C1427 C 0.56393 0.52602 0.99413 0.0
C1428 C 0.60773 0.55449 0.98444 0.0
C1429 C 0.61245 0.53399 0.98289 0.0
C1430 C 0.59275 0.50948 0.98741 0.0
C1431 C 0.56862 0.5055 0.99282 0.0
H1432 H 0.48762 0.1693 0.97471 0.0
H1433 H 0.41553 0.11012 0.95393 0.0
H1434 H 0.492 0.1375 0.99013 0.0
H1435 H 0.41948 0.07822 0.96969 0.0
H1436 H 0.48904 0.07587 0.02197 0.0
H1437 H 0.47705 0.10623 0.01124 0.0
H1438 H 0.44629 0.05967 0.96805 0.0
H1439 H 0.45731 0.02929 0.97886 0.0
C1440 C 0.47236 0.14953 0.97375 0.0
C1441 C 0.45132 0.14218 0.963 0.0
C1442 C 0.47483 0.13126 0.98265 0.0
C1443 C 0.45622 0.10521 0.98108 0.0
C1444 C 0.43448 0.09805 0.97094 0.0
C1445 C 0.43215 0.1163 0.96193 0.0
C1446 C 0.4793 0.07194 0.01032 0.0
C1447 C 0.47439 0.05023 1.00125 0.0
C1448 C 0.47259 0.08943 1.00411 0.0
C1449 C 0.46078 0.08551 0.98872 0.0
C1450 C 0.45499 0.06324 0.98002 0.0
C1451 C 0.46161 0.04586 0.9862 0.0
H1452 H 0.67426 0.11769 0.94539 0.0
H1453 H 0.70914 0.12847 0.9929 0.0
H1454 H 0.63138 0.0913 0.95705 0.0
H1455 H 0.66614 0.10168 1.0045 0.0
H1456 H 0.58892 0.02343 0.01202 0.0
H1457 H 0.63251 0.05562 1.00324 0.0
H1458 H 0.59901 0.09225 0.97521 0.0
H1459 H 0.55555 0.05991 0.98401 0.0
C1460 C 0.67281 0.1148 0.95835 0.0
C1461 C 0.69529 0.12516 0.96815 0.0
C1462 C 0.64817 0.09962 0.96505 0.0
C1463 C 0.64533 0.09431 0.98171 0.0
C1464 C 0.6677 0.10511 0.99159 0.0
C1465 C 0.69235 0.12041 0.98491 0.0
C1466 C 0.5911 0.03883 1.00434 0.0
C1467 C 0.56916 0.03988 0.99914 0.0
C1468 C 0.61598 0.05723 0.9993 0.0
C1469 C 0.61925 0.07654 0.98852 0.0
C1470 C 0.59716 0.07759 0.98344 0.0
C1471 C 0.57235 0.05933 0.98863 0.0
H1472 H 0.84534 0.52958 0.97796 0.0
H1473 H 0.89661 0.57147 0.93869 0.0
H1474 H 0.87741 0.51848 0.98785 0.0
H1475 H 0.92857 0.5609 0.94877 0.0
H1476 H 0.99171 0.56582 0.98251 0.0
H1477 H 0.95708 0.57359 0.97354 0.0
H1478 H 0.90085 0.49377 0.97954 0.0
H1479 H 0.93584 0.48597 0.98833 0.0
C1480 C 0.86324 0.53617 0.97131 0.0
C1481 C 0.86846 0.55175 0.95762 0.0
C1482 C 0.88163 0.52987 0.97702 0.0
C1483 C 0.90568 0.53914 0.96923 0.0
C1484 C 0.91047 0.55393 0.95526 0.0
C1485 C 0.89211 0.56004 0.9495 0.0
C1486 C 0.97191 0.54998 0.98204 0.0
C1487 C 0.96639 0.52542 0.98641 0.0
C1488 C 0.9521 0.55439 0.97683 0.0
C1489 C 0.92623 0.53428 0.97575 0.0
C1490 C 0.92057 0.50968 0.98035 0.0
C1491 C 0.94054 0.50522 0.98544 0.0
H1492 H 0.48428 0.30919 0.97532 0.0
H1493 H 0.44959 0.32595 0.93467 0.0
H1494 H 0.48806 0.34602 0.98994 0.0
H1495 H 0.454 0.36329 0.94905 0.0
H1496 H 0.4471 0.41778 0.98397 0.0
H1497 H 0.43919 0.3781 0.97116 0.0
H1498 H 0.51338 0.39114 0.98915 0.0
H1499 H 0.5209 0.43026 1.00228 0.0
C1500 C 0.47756 0.32086 0.9695 0.0
C1501 C 0.46678 0.31482 0.95384 0.0
C1502 C 0.4798 0.34202 0.97784 0.0
C1503 C 0.47155 0.35782 0.97064 0.0
C1504 C 0.46025 0.3514 0.95507 0.0
C1505 C 0.45778 0.33006 0.94679 0.0
C1506 C 0.46163 0.41207 0.98527 0.0
C1507 C 0.48458 0.42715 0.99421 0.0
C1508 C 0.45717 0.38938 0.97784 0.0
C1509 C 0.47563 0.38136 0.97909 0.0
C1510 C 0.49848 0.39641 0.98816 0.0
C1511 C 0.50286 0.41896 0.99566 0.0
H1512 H 0.12603 0.66964 0.08282 0.0
H1513 H 0.17524 0.68855 0.04085 0.0
H1514 H 0.09238 0.63184 0.06879 0.0
H1515 H 0.14151 0.65095 0.02671 0.0
H1516 H 0.09042 0.56573 0.01518 0.0
H1517 H 0.12254 0.6055 0.02789 0.0
H1518 H 0.06103 0.61637 0.04696 0.0
H1519 H 0.02874 0.57624 0.03439 0.0
C1520 C 0.12948 0.66596 0.07049 0.0
C1521 C 0.15337 0.68202 0.06299 0.0
C1522 C 0.11017 0.64428 0.06242 0.0
C1523 C 0.11426 0.63821 0.04664 0.0
C1524 C 0.13788 0.65473 0.03897 0.0
C1525 C 0.15721 0.67633 0.04706 0.0
C1526 C 0.08367 0.5767 0.02191 0.0
C1527 C 0.05695 0.56781 0.02366 0.0
C1528 C 0.10216 0.5996 0.02919 0.0
C1529 C 0.09443 0.61425 0.03843 0.0
C1530 C 0.06769 0.60545 0.04009 0.0
C1531 C 0.04916 0.58247 0.03281 0.0
H1532 H 0.31148 0.46478 0.04114 0.0
H1533 H 0.32288 0.42518 0.08087 0.0
H1534 H 0.35427 0.4756 0.03051 0.0
H1535 H 0.36498 0.43537 0.07002 0.0
H1536 H 0.42105 0.42901 0.03545 0.0
H1537 H 0.37888 0.42145 0.04489 0.0
H1538 H 0.40362 0.50105 0.03815 0.0
H1539 H 0.44623 0.50868 0.02893 0.0
C1540 C 0.32314 0.45862 0.04773 0.0
C1541 C 0.31343 0.44377 0.06179 0.0
C1542 C 0.34762 0.46477 0.04159 0.0
C1543 C 0.36282 0.45602 0.0493 0.0
C1544 C 0.3535 0.44193 0.0636 0.0
C1545 C 0.32927 0.43602 0.0698 0.0
C1546 C 0.41738 0.44484 0.03583 0.0
C1547 C 0.43671 0.4693 0.03117 0.0
C1548 C 0.3933 0.44056 0.04131 0.0
C1549 C 0.38795 0.46068 0.04236 0.0
C1550 C 0.40711 0.48514 0.03738 0.0
C1551 C 0.43143 0.48949 0.03204 0.0
H1552 H 0.55823 0.84716 0.03696 0.0
H1553 H 0.59761 0.90214 0.07541 0.0
H1554 H 0.53971 0.87272 0.02706 0.0
H1555 H 0.57977 0.92798 0.06527 0.0
H1556 H 0.52175 0.95372 0.05347 0.0
H1557 H 0.53777 0.92614 0.06315 0.0
H1558 H 0.55403 0.9143 0.01391 0.0
H1559 H 0.53838 0.94249 1.00434 0.0
C1560 C 0.56281 0.86462 0.04334 0.0
C1561 C 0.57936 0.87262 0.05698 0.0
C1562 C 0.55245 0.87939 0.03756 0.0
C1563 C 0.55827 0.90236 0.04538 0.0
C1564 C 0.57467 0.91024 0.05907 0.0
C1565 C 0.58511 0.89556 0.06479 0.0
C1566 C 0.52915 0.94557 0.04477 0.0
C1567 C 0.5293 0.9506 0.02821 0.0
C1568 C 0.53816 0.92963 0.05028 0.0
C1569 C 0.54744 0.91823 0.03932 0.0
C1570 C 0.54683 0.92264 0.02265 0.0
C1571 C 0.53783 0.93871 0.01715 0.0
H1572 H 0.99871 0.15733 0.38363 0.0
H1573 H 0.99343 0.21524 0.41151 0.0
H1574 H 0.03538 0.19036 0.3689 0.0
H1575 H 0.03122 0.24812 0.39766 0.0
H1576 H 0.0919 0.30557 0.36563 0.0
H1577 H 0.04937 0.27091 0.37386 0.0
H1578 H 0.07988 0.21925 0.37384 0.0
H1579 H 0.12188 0.25384 0.3649 0.0
C1580 C 0.00514 0.17708 0.38654 0.0
C1581 C 0.99306 0.1835 0.39889 0.0
C1582 C 0.02649 0.19607 0.37822 0.0
C1583 C 0.03656 0.22201 0.38213 0.0
C1584 C 0.02395 0.22843 0.39412 0.0
C1585 C 1.00245 0.20947 0.4023 0.0
C1586 C 0.08904 0.28651 0.36681 0.0
C1587 C 0.10966 0.28198 0.36403 0.0
C1588 C 0.06486 0.26674 0.37181 0.0
C1589 C 0.06106 0.24218 0.37463 0.0
C1590 C 0.08177 0.23768 0.37151 0.0
C1591 C 0.10587 0.25746 0.36642 0.0
H1592 H 0.76451 0.74369 0.405 0.0
H1593 H 0.8247 0.80671 0.37872 0.0
H1594 H 0.73251 0.75433 0.39511 0.0
H1595 H 0.79238 0.81675 0.36785 0.0
H1596 H 0.73034 0.84108 0.36232 0.0
H1597 H 0.76422 0.83279 0.37232 0.0
H1598 H 0.70838 0.75193 0.37275 0.0
H1599 H 0.67461 0.76063 0.36358 0.0
C1600 C 0.77082 0.75981 0.39698 0.0
C1601 C 0.79707 0.77434 0.39262 0.0
C1602 C 0.7524 0.76581 0.39112 0.0
C1603 C 0.75952 0.78623 0.38037 0.0
C1604 C 0.78602 0.80106 0.3762 0.0
C1605 C 0.80459 0.7953 0.38237 0.0
C1606 C 0.7255 0.82155 0.36441 0.0
C1607 C 0.69995 0.80142 0.36192 0.0
C1608 C 0.74494 0.81673 0.37016 0.0
C1609 C 0.73925 0.79164 0.37356 0.0
C1610 C 0.71362 0.77158 0.37075 0.0
C1611 C 0.6942 0.77647 0.36529 0.0
H1612 H 0.20068 0.0245 0.39198 0.0
H1613 H 0.27571 0.04038 0.37436 0.0
H1614 H 0.18193 0.97994 0.38325 0.0
H1615 H 0.2569 0.99629 0.3653 0.0
H1616 H 0.22377 0.91117 0.37096 0.0
H1617 H 0.23987 0.95513 0.37911 0.0
H1618 H 0.17171 0.95241 0.35825 0.0
H1619 H 0.15512 0.90785 0.35028 0.0
C1620 C 0.21312 0.01851 0.38619 0.0
C1621 C 0.2397 0.03597 0.38389 0.0
C1622 C 0.20233 0.99309 0.38106 0.0
C1623 C 0.21798 0.98459 0.37368 0.0
C1624 C 0.24441 0.00218 0.37113 0.0
C1625 C 0.25513 0.02753 0.37617 0.0
C1626 C 0.21209 0.91978 0.36808 0.0
C1627 C 0.18829 0.90601 0.35972 0.0
C1628 C 0.22145 0.94511 0.37269 0.0
C1629 C 0.20724 0.95735 0.36914 0.0
C1630 C 0.1831 0.94347 0.36115 0.0
C1631 C 0.17372 0.91803 0.35646 0.0
H1632 H 0.50697 0.62577 0.32226 0.0
H1633 H 0.54321 0.6436 0.27527 0.0
H1634 H 0.53566 0.66991 0.33107 0.0
H1635 H 0.57147 0.68773 0.28396 0.0
H1636 H 0.63942 0.7518 0.31302 0.0
H1637 H 0.60831 0.70914 0.30336 0.0
H1638 H 0.54593 0.71484 0.32597 0.0
H1639 H 0.57703 0.75782 0.33552 0.0
C1640 C 0.52091 0.63916 0.31378 0.0
C1641 C 0.52286 0.63116 0.29808 0.0
C1642 C 0.53719 0.66447 0.31878 0.0
C1643 C 0.55593 0.68226 0.30824 0.0
C1644 C 0.55742 0.6744 0.29242 0.0
C1645 C 0.54103 0.64918 0.28739 0.0
C1646 C 0.61909 0.7441 0.31593 0.0
C1647 C 0.61084 0.75822 0.32528 0.0
C1648 C 0.60122 0.71963 0.3103 0.0
C1649 C 0.57466 0.70859 0.31391 0.0
C1650 C 0.56632 0.72272 0.32315 0.0
C1651 C 0.58418 0.74733 0.32867 0.0
H1652 H 0.34732 0.90633 0.27808 0.0
H1653 H 0.35214 0.85682 0.31366 0.0
H1654 H 0.30575 0.89755 0.28907 0.0
H1655 H 0.31057 0.84858 0.32502 0.0
H1656 H 0.22066 0.82041 0.32764 0.0
H1657 H 0.26299 0.82747 0.31846 0.0
H1658 H 0.2897 0.90782 0.3134 0.0
H1659 H 0.24754 0.90065 0.32255 0.0
C1660 C 0.33944 0.89336 0.28817 0.0
C1661 C 0.35318 0.88222 0.29489 0.0
C1662 C 0.31568 0.8886 0.29464 0.0
C1663 C 0.30484 0.87252 0.30804 0.0
C1664 C 0.31828 0.86098 0.31465 0.0
C1665 C 0.34222 0.86588 0.30821 0.0
C1666 C 0.23581 0.83962 0.3249 0.0
C1667 C 0.23099 0.86009 0.32609 0.0
C1668 C 0.26004 0.84368 0.31958 0.0
C1669 C 0.27975 0.8682 0.31503 0.0
C1670 C 0.27491 0.88864 0.31654 0.0
C1671 C 0.25082 0.88459 0.32189 0.0
H1672 H 0.08135 0.44337 0.28581 0.0
H1673 H 0.1533 0.50198 0.30707 0.0
H1674 H 0.08481 0.41112 0.30147 0.0
H1675 H 0.15723 0.4698 0.32239 0.0
H1676 H 0.15327 0.40752 0.35406 0.0
H1677 H 0.14188 0.4383 0.34332 0.0
H1678 H 0.1112 0.39218 0.29996 0.0
H1679 H 0.12161 0.36137 0.31077 0.0
C1680 C 0.09785 0.44934 0.29389 0.0
C1681 C 0.11712 0.47517 0.29512 0.0
C1682 C 0.09989 0.43089 0.30285 0.0
C1683 C 0.12146 0.43777 0.3131 0.0
C1684 C 0.14018 0.46377 0.31482 0.0
C1685 C 0.13798 0.48225 0.30598 0.0
C1686 C 0.14367 0.40377 0.34237 0.0
C1687 C 0.13861 0.38205 0.33325 0.0
C1688 C 0.13732 0.42151 0.33615 0.0
C1689 C 0.1257 0.41784 0.32072 0.0
C1690 C 0.11975 0.39557 0.31196 0.0
C1691 C 0.12602 0.37793 0.31815 0.0
H1692 H 0.36073 0.41769 0.29871 0.0
H1693 H 0.35346 0.48429 0.30767 0.0
H1694 H 0.31793 0.39077 0.3102 0.0
H1695 H 0.31021 0.45707 0.31898 0.0
H1696 H 0.24991 0.35047 0.34385 0.0
H1697 H 0.29466 0.38142 0.33625 0.0
H1698 H 0.26646 0.42346 0.30895 0.0
H1699 H 0.22187 0.39253 0.31672 0.0
C1700 C 0.35016 0.42668 0.30329 0.0
C1701 C 0.36071 0.45325 0.30229 0.0
C1702 C 0.32558 0.41119 0.30991 0.0
C1703 C 0.31074 0.42179 0.31563 0.0
C1704 C 0.32112 0.44832 0.31458 0.0
C1705 C 0.34585 0.46389 0.30803 0.0
C1706 C 0.25351 0.36677 0.33661 0.0
C1707 C 0.23276 0.36983 0.33137 0.0
C1708 C 0.27901 0.38432 0.33212 0.0
C1709 C 0.28412 0.40491 0.32199 0.0
C1710 C 0.26325 0.40808 0.31697 0.0
C1711 C 0.23778 0.3905 0.32147 0.0
H1712 H 0.56479 0.90476 0.2717 0.0
H1713 H 0.51381 0.86541 0.31164 0.0
H1714 H 0.59664 0.89449 0.28241 0.0
H1715 H 0.54569 0.85452 0.3221 0.0
H1716 H 0.65981 0.89972 0.31666 0.0
H1717 H 0.62571 0.90778 0.30688 0.0
H1718 H 0.5683 0.82886 0.31481 0.0
H1719 H 0.60272 0.82075 0.32436 0.0
C1720 C 0.56031 0.89398 0.2828 0.0
C1721 C 0.5367 0.88629 0.29087 0.0
C1722 C 0.57863 0.88803 0.28892 0.0
C1723 C 0.57387 0.87393 0.30321 0.0
C1724 C 0.54991 0.86533 0.31102 0.0
C1725 C 0.53159 0.87152 0.30497 0.0
C1726 C 0.63988 0.88414 0.31642 0.0
C1727 C 0.63388 0.85977 0.32162 0.0
C1728 C 0.62035 0.88871 0.31075 0.0
C1729 C 0.59426 0.86896 0.31002 0.0
C1730 C 0.58816 0.84454 0.31535 0.0
C1731 C 0.60784 0.83991 0.32089 0.0
H1732 H 0.11573 0.65963 0.267 0.0
H1733 H 0.14925 0.64241 0.30807 0.0
H1734 H 0.1202 0.69709 0.28124 0.0
H1735 H 0.15311 0.67938 0.32255 0.0
H1736 H 0.18648 0.76377 0.33479 0.0
H1737 H 0.17877 0.72446 0.32184 0.0
H1738 H 0.10527 0.71223 0.30309 0.0
H1739 H 0.11338 0.75209 0.31573 0.0
C1740 C 0.12366 0.66365 0.27918 0.0
C1741 C 0.13233 0.64824 0.28638 0.0
C1742 C 0.12617 0.68507 0.28739 0.0
C1743 C 0.13718 0.69141 0.30304 0.0
C1744 C 0.14507 0.67545 0.31039 0.0
C1745 C 0.14279 0.6542 0.30213 0.0
C1746 C 0.16854 0.75261 0.32805 0.0
C1747 C 0.15053 0.76109 0.32633 0.0
C1748 C 0.16405 0.72994 0.32065 0.0
C1749 C 0.14135 0.71506 0.31141 0.0
C1750 C 0.12314 0.72337 0.30991 0.0
C1751 C 0.12772 0.74617 0.31724 0.0
H1752 H 0.8438 0.98718 0.4033 0.0
H1753 H 0.79822 0.02482 0.40212 0.0
H1754 H 0.80973 0.95112 0.3886 0.0
H1755 H 0.76466 0.98924 0.38636 0.0
H1756 H 0.69776 0.90794 0.37431 0.0
H1757 H 0.73127 0.94561 0.38847 0.0
H1758 H 0.79062 0.93829 0.36285 0.0
H1759 H 0.75735 0.89998 0.34953 0.0
C1760 C 0.82649 0.98781 0.39991 0.0
C1761 C 0.82376 0.00892 0.40406 0.0
C1762 C 0.80706 0.96722 0.3912 0.0
C1763 C 0.78441 0.96723 0.38615 0.0
C1764 C 0.7817 0.98843 0.39017 0.0
C1765 C 0.80113 0.00901 0.39904 0.0
C1766 C 0.71796 0.91441 0.37165 0.0
C1767 C 0.72478 0.90089 0.36068 0.0
C1768 C 0.73722 0.93618 0.37971 0.0
C1769 C 0.76375 0.94502 0.3769 0.0
C1770 C 0.77045 0.93185 0.36558 0.0
C1771 C 0.75127 0.90999 0.35771 0.0
H1772 H 0.9624 0.74328 0.3727 0.0
H1773 H 0.99715 0.81128 0.40259 0.0
H1774 H 0.00499 0.75483 0.36195 0.0
H1775 H 0.04003 0.82285 0.39184 0.0
H1776 H 0.11249 0.84374 0.36058 0.0
H1777 H 0.069 0.83569 0.36801 0.0
H1778 H 0.04321 0.75547 0.37282 0.0
H1779 H 0.08628 0.76357 0.36517 0.0
C1780 C 0.97915 0.76073 0.377 0.0
C1781 C 0.97631 0.77612 0.38873 0.0
C1782 C 1.00363 0.76736 0.37082 0.0
C1783 C 0.0261 0.78958 0.37619 0.0
C1784 C 0.02317 0.80566 0.38735 0.0
C1785 C 0.99857 0.79901 0.39354 0.0
C1786 C 0.09731 0.82437 0.36295 0.0
C1787 C 0.10253 0.80415 0.36191 0.0
C1788 C 0.0725 0.81977 0.36739 0.0
C1789 C 0.05244 0.79487 0.37092 0.0
C1790 C 0.0579 0.77479 0.36988 0.0
C1791 C 0.08263 0.77941 0.36556 0.0
H1792 H 0.21324 0.18977 0.40443 0.0
H1793 H 0.27402 0.2241 0.36878 0.0
H1794 H 0.19393 0.21429 0.3941 0.0
H1795 H 0.25528 0.24929 0.35886 0.0
H1796 H 0.20215 0.27451 0.33556 0.0
H1797 H 0.21765 0.24589 0.34446 0.0
H1798 H 0.20432 0.25851 0.39421 0.0
H1799 H 0.1877 0.2859 0.38514 0.0
C1800 C 0.22241 0.20246 0.39434 0.0
C1801 C 0.24525 0.20507 0.38749 0.0
C1802 C 0.21149 0.21669 0.38852 0.0
C1803 C 0.22312 0.23383 0.37569 0.0
C1804 C 0.24569 0.2361 0.36866 0.0
C1805 C 0.25663 0.2219 0.37449 0.0
C1806 C 0.20219 0.27078 0.34834 0.0
C1807 C 0.19403 0.28261 0.35969 0.0
C1808 C 0.21134 0.25467 0.35347 0.0
C1809 C 0.21235 0.25 0.37006 0.0
C1810 C 0.20365 0.26152 0.38134 0.0
C1811 C 0.19457 0.2776 0.37619 0.0
H1812 H 0.64933 0.55378 0.7351 0.0
H1813 H 0.67833 0.5027 0.72421 0.0
H1814 H 0.68531 0.58763 0.72011 0.0
H1815 H 0.71383 0.53615 0.70883 0.0
H1816 H 0.79188 0.61097 0.70397 0.0
H1817 H 0.75298 0.57449 0.71479 0.0
H1818 H 0.70584 0.6038 0.69465 0.0
H1819 H 0.74526 0.64084 0.68437 0.0
C1820 C 0.66314 0.54967 0.72924 0.0
C1821 C 0.66121 0.52571 0.731 0.0
C1822 C 0.68374 0.56903 0.72058 0.0
C1823 C 0.70272 0.56477 0.71335 0.0
C1824 C 0.69999 0.54036 0.71453 0.0
C1825 C 0.6796 0.52115 0.72331 0.0
C1826 C 0.77308 0.60921 0.7016 0.0
C1827 C 0.77131 0.6282 0.69302 0.0
C1828 C 0.75075 0.58832 0.70775 0.0
C1829 C 0.72612 0.58605 0.70557 0.0
C1830 C 0.72444 0.60501 0.69672 0.0
C1831 C 0.74689 0.62605 0.69068 0.0
H1832 H 0.44259 0.102 0.74469 0.0
H1833 H 0.49456 0.14686 0.70649 0.0
H1834 H 0.40926 0.11017 0.7339 0.0
H1835 H 0.46077 0.15461 0.69544 0.0
H1836 H 0.34579 0.10428 0.69985 0.0
H1837 H 0.38074 0.09759 0.70979 0.0
H1838 H 0.43614 0.1773 0.70239 0.0
H1839 H 0.401 0.18393 0.69257 0.0
C1840 C 0.44704 0.11384 0.73407 0.0
C1841 C 0.47138 0.12385 0.72653 0.0
C1842 C 0.42776 0.11825 0.72775 0.0
C1843 C 0.43226 0.13291 0.71374 0.0
C1844 C 0.45673 0.14334 0.7063 0.0
C1845 C 0.47601 0.13874 0.71257 0.0
C1846 C 0.36549 0.1203 0.70024 0.0
C1847 C 0.37077 0.14445 0.69506 0.0
C1848 C 0.38549 0.11653 0.70601 0.0
C1849 C 0.41127 0.13692 0.70691 0.0
C1850 C 0.41657 0.16114 0.70168 0.0
C1851 C 0.39646 0.16493 0.69599 0.0
H1852 H 0.90499 0.38435 0.69063 0.0
H1853 H 0.91508 0.36358 0.7389 0.0
H1854 H 0.88666 0.34 0.68176 0.0
H1855 H 0.89736 0.31952 0.73006 0.0
H1856 H 0.84278 0.23857 0.714 0.0
H1857 H 0.85792 0.28278 0.72188 0.0
H1858 H 0.89862 0.3081 0.67644 0.0
H1859 H 0.88277 0.26356 0.66856 0.0
C1860 C 0.90339 0.37031 0.69932 0.0
C1861 C 0.91133 0.37742 0.71548 0.0
C1862 C 0.89296 0.34492 0.69424 0.0
C1863 C 0.89042 0.32611 0.7052 0.0
C1864 C 0.89846 0.33333 0.72135 0.0
C1865 C 0.90868 0.35862 0.72644 0.0
C1866 C 0.85494 0.2537 0.70575 0.0
C1867 C 0.86189 0.24798 0.6908 0.0
C1868 C 0.8637 0.279 0.71025 0.0
C1869 C 0.87975 0.2991 0.69988 0.0
C1870 C 0.88611 0.29314 0.68466 0.0
C1871 C 0.87717 0.26773 0.68015 0.0
H1872 H 0.22333 0.96235 0.64421 0.0
H1873 H 0.16952 0.984 0.62482 0.0
H1874 H 0.2516 0.0059 0.65369 0.0
H1875 H 0.19835 0.02799 0.63397 0.0
H1876 H 0.24659 0.09868 0.66742 0.0
H1877 H 0.21605 0.05474 0.65906 0.0
H1878 H 0.27995 0.04704 0.64093 0.0
H1879 H 0.31037 0.09045 0.64949 0.0
C1880 C 0.2174 0.97636 0.64209 0.0
C1881 C 0.19411 0.96965 0.63377 0.0
C1882 C 0.23378 0.00142 0.64737 0.0
C1883 C 0.22732 0.02046 0.64449 0.0
C1884 C 0.2038 0.01372 0.63645 0.0
C1885 C 0.18741 0.98859 0.63108 0.0
C1886 C 0.25413 0.08754 0.66176 0.0
C1887 C 0.28102 0.09806 0.65934 0.0
C1888 C 0.2366 0.06244 0.65684 0.0
C1889 C 0.2456 0.04733 0.64944 0.0
C1890 C 0.27241 0.058 0.64684 0.0
C1891 C 0.28987 0.08302 0.65168 0.0
H1892 H 0.02238 0.25557 0.62064 0.0
H1893 H 0.01907 0.19012 0.64358 0.0
H1894 H 0.98095 0.2453 0.6329 0.0
H1895 H 0.97737 0.17981 0.65591 0.0
H1896 H 0.88762 0.15626 0.65436 0.0
H1897 H 0.93086 0.16552 0.6454 0.0
H1898 H 0.96281 0.24386 0.66096 0.0
H1899 H 0.91957 0.2344 0.66996 0.0
C1900 C 0.01273 0.23889 0.62824 0.0
C1901 C 0.02397 0.22356 0.63102 0.0
C1902 C 0.98912 0.23317 0.63541 0.0
C1903 C 0.9759 0.21179 0.64542 0.0
C1904 C 0.98705 0.19636 0.64821 0.0
C1905 C 0.01095 0.20232 0.64121 0.0
C1906 C 0.90411 0.17523 0.65628 0.0
C1907 C 0.90058 0.19444 0.66336 0.0
C1908 C 0.92879 0.18057 0.6511 0.0
C1909 C 0.95028 0.20542 0.65248 0.0
C1910 C 0.94666 0.22455 0.6597 0.0
C1911 C 0.92203 0.21913 0.66498 0.0
H1912 H 0.77035 0.78536 0.60426 0.0
H1913 H 0.80279 0.83832 0.64446 0.0
H1914 H 0.77442 0.7534 0.61976 0.0
H1915 H 0.80592 0.806 0.66022 0.0
H1916 H 0.8434 0.75604 0.67117 0.0
H1917 H 0.83325 0.78681 0.65939 0.0
H1918 H 0.75888 0.72523 0.6429 0.0
H1919 H 0.76908 0.6944 0.65475 0.0
C1920 C 0.77807 0.79008 0.61648 0.0
C1921 C 0.78644 0.81447 0.62306 0.0
C1922 C 0.78013 0.77165 0.62545 0.0
C1923 C 0.7906 0.77717 0.64123 0.0
C1924 C 0.79805 0.80124 0.64804 0.0
C1925 C 0.79598 0.81967 0.63906 0.0
C1926 C 0.82467 0.74907 0.66531 0.0
C1927 C 0.80722 0.72277 0.66365 0.0
C1928 C 0.81881 0.76674 0.65857 0.0
C1929 C 0.79535 0.75849 0.65004 0.0
C1930 C 0.77734 0.7322 0.64911 0.0
C1931 C 0.78318 0.71454 0.65589 0.0
H1932 H 0.01319 0.76527 0.61338 0.0
H1933 H 0.02552 0.82625 0.64622 0.0
H1934 H 0.96959 0.73894 0.624 0.0
H1935 H 0.98158 0.79983 0.65677 0.0
H1936 H 0.89006 0.75255 0.65594 0.0
H1937 H 0.93533 0.78067 0.64782 0.0
H1938 H 0.94853 0.71664 0.64907 0.0
H1939 H 0.90331 0.68874 0.65706 0.0
C1940 C 0.00669 0.77302 0.62295 0.0
C1941 C 0.02299 0.79786 0.62899 0.0
C1942 C 0.98167 0.75789 0.62906 0.0
C1943 C 0.97219 0.7672 0.64134 0.0
C1944 C 0.98826 0.79217 0.64723 0.0
C1945 C 0.0134 0.80733 0.64114 0.0
C1946 C 0.90293 0.74477 0.65477 0.0
C1947 C 0.89363 0.71878 0.65747 0.0
C1948 C 0.92877 0.76078 0.65014 0.0
C1949 C 0.94549 0.75086 0.64772 0.0
C1950 C 0.93608 0.72481 0.65066 0.0
C1951 C 0.91036 0.7089 0.6554 0.0
H1952 H 0.23418 0.24638 0.6049 0.0
H1953 H 0.18229 0.20444 0.64389 0.0
H1954 H 0.26601 0.23584 0.61528 0.0
H1955 H 0.21429 0.19356 0.65419 0.0
H1956 H 0.27191 0.16099 0.65672 0.0
H1957 H 0.23742 0.16906 0.6473 0.0
H1958 H 0.2948 0.24797 0.63922 0.0
H1959 H 0.32897 0.23987 0.6487 0.0
C1960 C 0.22953 0.23495 0.61573 0.0
C1961 C 0.20569 0.22659 0.62364 0.0
C1962 C 0.24784 0.22889 0.62168 0.0
C1963 C 0.24289 0.21413 0.6357 0.0
C1964 C 0.21869 0.20489 0.64332 0.0
C1965 C 0.20032 0.21108 0.63738 0.0
C1966 C 0.27699 0.18012 0.65321 0.0
C1967 C 0.30305 0.19996 0.65378 0.0
C1968 C 0.25728 0.18474 0.64776 0.0
C1969 C 0.26333 0.20914 0.64241 0.0
C1970 C 0.28944 0.22889 0.64305 0.0
C1971 C 0.30902 0.22431 0.64857 0.0
H1972 H 0.844 0.013 0.62263 0.0
H1973 H 0.76095 0.97104 0.63022 0.0
H1974 H 0.84727 0.04845 0.63852 0.0
H1975 H 0.76425 0.00686 0.64604 0.0
H1976 H 0.7812 0.0904 0.65522 0.0
H1977 H 0.7749 0.05171 0.64175 0.0
H1978 H 0.84237 0.05897 0.66669 0.0
H1979 H 0.84886 0.09771 0.68006 0.0
C1980 C 0.82646 0.01119 0.62786 0.0
C1981 C 0.80223 0.98907 0.62522 0.0
C1982 C 0.82835 0.03155 0.63697 0.0
C1983 C 0.80605 0.03039 0.64365 0.0
C1984 C 0.78176 0.00838 0.64096 0.0
C1985 C 0.77987 0.9879 0.63186 0.0
C1986 C 0.79452 0.0836 0.658 0.0
C1987 C 0.81574 0.09736 0.66859 0.0
C1988 C 0.79083 0.06135 0.65031 0.0
C1989 C 0.80831 0.05245 0.65302 0.0
C1990 C 0.82884 0.06561 0.66414 0.0
C1991 C 0.83248 0.08777 0.67186 0.0
H1992 H 0.47031 0.37271 0.725 0.0
H1993 H 0.51164 0.33224 0.73456 0.0
H1994 H 0.43621 0.33506 0.71091 0.0
H1995 H 0.47775 0.29482 0.72059 0.0
H1996 H 0.42698 0.2405 0.68155 0.0
H1997 H 0.46045 0.27994 0.69382 0.0
H1998 H 0.40133 0.29147 0.71609 0.0
H1999 H 0.36761 0.25228 0.70327 0.0
C2000 C 0.47208 0.35578 0.72415 0.0
C2001 C 0.49383 0.35559 0.7308 0.0
C2002 C 0.45253 0.3342 0.71609 0.0
C2003 C 0.4543 0.31195 0.71452 0.0
C2004 C 0.476 0.31178 0.72125 0.0
C2005 C 0.49549 0.33329 0.72926 0.0
C2006 C 0.421 0.25158 0.68882 0.0
C2007 C 0.39452 0.24321 0.69131 0.0
C2008 C 0.44027 0.27412 0.69604 0.0
C2009 C 0.43362 0.28882 0.70605 0.0
C2010 C 0.40714 0.28074 0.70832 0.0
C2011 C 0.3878 0.25816 0.70105 0.0
H2012 H 0.66176 0.1052 0.74829 0.0
H2013 H 0.6494 0.14662 0.71014 0.0
H2014 H 0.70469 0.11805 0.73765 0.0
H2015 H 0.69287 0.15996 0.6997 0.0
H2016 H 0.78478 0.19938 0.69925 0.0
H2017 H 0.74038 0.187 0.70769 0.0
H2018 H 0.72338 0.10923 0.71325 0.0
H2019 H 0.76763 0.12175 0.70472 0.0
C2020 C 0.66807 0.11693 0.73757 0.0
C2021 C 0.65182 0.12459 0.73002 0.0
C2022 C 0.69278 0.12433 0.73147 0.0
C2023 C 0.70213 0.13981 0.71772 0.0
C2024 C 0.68628 0.14811 0.71037 0.0
C2025 C 0.66139 0.14053 0.71641 0.0
C2026 C 0.77124 0.17957 0.70193 0.0
C2027 C 0.77918 0.16132 0.70088 0.0
C2028 C 0.7459 0.17247 0.70679 0.0
C2029 C 0.72835 0.14713 0.7112 0.0
C2030 C 0.73645 0.12892 0.71006 0.0
C2031 C 0.76163 0.13597 0.70501 0.0
H2032 H 0.9188 0.53991 0.689 0.0
H2033 H 0.89788 0.54819 0.73777 0.0
H2034 H 0.90061 0.5657 0.67897 0.0
H2035 H 0.8793 0.57352 0.7277 0.0
H2036 H 0.88434 0.64584 0.70714 0.0
H2037 H 0.89895 0.61697 0.71604 0.0
H2038 H 0.8585 0.56641 0.67582 0.0
H2039 H 0.84364 0.59554 0.66673 0.0
C2040 C 0.91017 0.5471 0.69756 0.0
C2041 C 0.90997 0.54218 0.7142 0.0
C2042 C 0.89954 0.56166 0.69178 0.0
C2043 C 0.8887 0.57179 0.70255 0.0
C2044 C 0.8878 0.56621 0.71913 0.0
C2045 C 0.89823 0.55151 0.72488 0.0
C2046 C 0.87852 0.62865 0.70008 0.0
C2047 C 0.86276 0.62307 0.68617 0.0
C2048 C 0.88677 0.61197 0.70531 0.0
C2049 C 0.87968 0.58929 0.69674 0.0
C2050 C 0.86431 0.5838 0.68266 0.0
C2051 C 0.85578 0.60046 0.67747 0.0
H2052 H 0.50705 0.94692 0.19364 0.0
H2053 H 0.44855 0.9692 0.19744 0.0
H2054 H 0.51701 0.96394 0.16636 0.0
H2055 H 0.45956 0.98754 0.17053 0.0
H2056 H 0.4725 0.00454 0.11686 0.0
H2057 H 0.45856 0.98058 0.14208 0.0
H2058 H 0.5385 0.00387 0.15353 0.0
H2059 H 0.55213 0.02655 0.1281 0.0
C2060 C 0.49612 0.95524 0.18866 0.0
C2061 C 0.47708 0.95675 0.19794 0.0
C2062 C 0.50211 0.96538 0.17302 0.0
C2063 C 0.48935 0.97747 0.16616 0.0
C2064 C 0.46974 0.97827 0.17525 0.0
C2065 C 0.46366 0.96802 0.19086 0.0
C2066 C 0.48703 0.00415 0.12463 0.0
C2067 C 0.51351 0.01776 0.12044 0.0
C2068 C 0.47907 0.99065 0.13922 0.0
C2069 C 0.49736 0.99033 0.15003 0.0
C2070 C 0.52372 0.00334 0.14556 0.0
C2071 C 0.53163 0.01673 0.131 0.0
H2072 H 0.02753 0.5267 0.20003 0.0
H2073 H 0.09282 0.5337 0.17291 0.0
H2074 H 1.00199 0.51651 0.17505 0.0
H2075 H 0.06776 0.52459 0.14794 0.0
H2076 H 0.00821 0.48359 0.10789 0.0
H2077 H 0.0316 0.49077 0.13345 0.0
H2078 H 0.99988 0.53716 0.15049 0.0
H2079 H 0.97637 0.52986 0.12494 0.0
C2080 C 0.0364 0.52596 0.18877 0.0
C2081 C 0.06228 0.53112 0.1885 0.0
C2082 C 0.02186 0.52041 0.17441 0.0
C2083 C 0.03281 0.5198 0.15944 0.0
C2084 C 0.05857 0.52462 0.15923 0.0
C2085 C 0.07308 0.53017 0.17356 0.0
C2086 C 0.00634 0.49544 0.11705 0.0
C2087 C 0.99047 0.50622 0.11432 0.0
C2088 C 0.01975 0.49956 0.13173 0.0
C2089 C 0.01771 0.51461 0.14405 0.0
C2090 C 1.00161 0.52516 0.14138 0.0
C2091 C 0.98815 0.521 0.12671 0.0
H2092 H 0.51224 0.55625 0.19977 0.0
H2093 H 0.46093 0.47457 0.20071 0.0
H2094 H 0.52339 0.55308 0.17182 0.0
H2095 H 0.47184 0.47151 0.17262 0.0
H2096 H 0.48316 0.47952 0.11724 0.0
H2097 H 0.46855 0.48376 0.14419 0.0
H2098 H 0.54821 0.53545 0.15839 0.0
H2099 H 0.5627 0.53152 0.13149 0.0
C2100 C 0.50329 0.5376 0.19403 0.0
C2101 C 0.48589 0.51564 0.20261 0.0
C2102 C 0.50967 0.53581 0.17799 0.0
C2103 C 0.49869 0.51202 0.17004 0.0
C2104 C 0.48049 0.49015 0.17835 0.0
C2105 C 0.4742 0.49193 0.19447 0.0
C2106 C 0.49749 0.49197 0.12609 0.0
C2107 C 0.52409 0.50513 0.12225 0.0
C2108 C 0.48915 0.49424 0.14155 0.0
C2109 C 0.50721 0.50996 0.15343 0.0
C2110 C 0.53376 0.52339 0.14948 0.0
C2111 C 0.54209 0.52094 0.13411 0.0
H2112 H 0.99872 0.52947 0.81619 0.0
H2113 H 0.96591 0.44763 0.81556 0.0
H2114 H 0.01019 0.53074 0.84474 0.0
H2115 H 0.97779 0.44904 0.84396 0.0
H2116 H 0.03543 0.46789 0.88649 0.0
H2117 H 0.01933 0.46557 0.85899 0.0
H2118 H 0.99162 0.51687 0.87245 0.0
H2119 H 0.00818 0.5195 0.90003 0.0
C2120 C 0.99358 0.5117 0.82217 0.0
C2121 C 0.98159 0.48847 0.81348 0.0
C2122 C 1.0002 0.51245 0.83854 0.0
C2123 C 0.99512 0.49002 0.84657 0.0
C2124 C 0.98241 0.46672 0.83804 0.0
C2125 C 0.97565 0.46594 0.82173 0.0
C2126 C 0.02594 0.47871 0.88359 0.0
C2127 C 0.02319 0.49397 0.89542 0.0
C2128 C 0.01648 0.47718 0.86787 0.0
C2129 C 0.00416 0.49101 0.86353 0.0
C2130 C 1.00118 0.50612 0.87539 0.0
C2131 C 0.01045 0.50746 0.89121 0.0
H2132 H 0.56549 0.50589 0.83349 0.0
H2133 H 0.49581 0.4321 0.82961 0.0
H2134 H 0.54835 0.51532 0.85774 0.0
H2135 H 0.47926 0.441 0.85421 0.0
H2136 H 0.44583 0.47253 0.89085 0.0
H2137 H 0.46237 0.46629 0.86532 0.0
H2138 H 0.54002 0.50274 0.88565 0.0
H2139 H 0.52367 0.51012 0.91092 0.0
C2140 C 0.54645 0.49174 0.83773 0.0
C2141 C 0.5321 0.46818 0.8296 0.0
C2142 C 0.53676 0.49701 0.85178 0.0
C2143 C 0.51246 0.47888 0.85804 0.0
C2144 C 0.49791 0.45555 0.8497 0.0
C2145 C 0.50757 0.4503 0.83567 0.0
C2146 C 0.4665 0.47955 0.88982 0.0
C2147 C 0.48338 0.4918 0.903 0.0
C2148 C 0.47595 0.47569 0.87521 0.0
C2149 C 0.50255 0.48391 0.87339 0.0
C2150 C 0.51947 0.49639 0.88652 0.0
C2151 C 0.51002 0.5003 0.90112 0.0
H2152 H 0.48511 0.05451 0.82624 0.0
H2153 H 0.5569 0.05269 0.82704 0.0
H2154 H 0.47572 0.03768 0.85362 0.0
H2155 H 0.5475 0.03584 0.8545 0.0
H2156 H 0.53095 0.02237 0.90894 0.0
H2157 H 0.54245 0.04443 0.88293 0.0
H2158 H 0.46311 0.9974 0.86638 0.0
H2159 H 0.45157 0.97601 0.89238 0.0
C2160 C 0.49891 0.05051 0.83224 0.0
C2161 C 0.52166 0.05476 0.8243 0.0
C2162 C 0.49351 0.04084 0.84797 0.0
C2163 C 0.5107 0.03512 0.85627 0.0
C2164 C 0.53392 0.04023 0.84857 0.0
C2165 C 0.53932 0.04991 0.83279 0.0
C2166 C 0.51592 0.017 0.89981 0.0
C2167 C 0.49036 0.9973 0.90275 0.0
C2168 C 0.52256 0.02947 0.88483 0.0
C2169 C 0.50374 0.02271 0.87249 0.0
C2170 C 0.47809 0.00336 0.87561 0.0
C2171 C 0.47152 0.99086 0.89049 0.0
H2172 H 0.17298 0.28251 0.52642 0.0
H2173 H 0.11712 0.30814 0.53051 0.0
H2174 H 0.18237 0.29831 0.49882 0.0
H2175 H 0.12755 0.32518 0.50325 0.0
H2176 H 0.1388 0.3397 0.44928 0.0
H2177 H 0.12507 0.31674 0.47486 0.0
H2178 H 0.20472 0.33787 0.48543 0.0
H2179 H 0.2181 0.35959 0.45967 0.0
C2180 C 0.16249 0.2913 0.52143 0.0
C2181 C 0.1444 0.29415 0.53087 0.0
C2182 C 0.16816 0.30072 0.5056 0.0
C2183 C 0.15598 0.31336 0.49873 0.0
C2184 C 0.13725 0.31545 0.50799 0.0
C2185 C 0.13151 0.30595 0.52378 0.0
C2186 C 0.15329 0.33905 0.45694 0.0
C2187 C 0.17963 0.35178 0.45241 0.0
C2188 C 0.14547 0.32611 0.47173 0.0
C2189 C 0.16376 0.3255 0.48239 0.0
C2190 C 0.18995 0.3376 0.47758 0.0
C2191 C 0.19772 0.35044 0.46283 0.0
H2192 H 0.75991 0.88136 0.50761 0.0
H2193 H 0.69342 0.86836 0.53592 0.0
H2194 H 0.73355 0.87 0.48302 0.0
H2195 H 0.66675 0.85632 0.51126 0.0
H2196 H 0.63879 0.86756 0.46072 0.0
H2197 H 0.66287 0.87671 0.48622 0.0
H2198 H 0.69737 0.8324 0.46999 0.0
H2199 H 0.67318 0.82304 0.44459 0.0
C2200 C 0.73964 0.8761 0.50857 0.0
C2201 C 0.72879 0.87589 0.52371 0.0
C2202 C 0.72446 0.86931 0.4945 0.0
C2203 C 0.69803 0.86219 0.49519 0.0
C2204 C 0.6871 0.8619 0.51032 0.0
C2205 C 0.7023 0.86857 0.52445 0.0
C2206 C 0.65123 0.85947 0.46268 0.0
C2207 C 0.65419 0.84472 0.45054 0.0
C2208 C 0.66504 0.86473 0.4773 0.0
C2209 C 0.68217 0.85542 0.48008 0.0
C2210 C 0.68469 0.84024 0.46809 0.0
C2211 C 0.67085 0.83491 0.45352 0.0
H2212 H 0.18338 0.89797 0.53125 0.0
H2213 H 0.12634 0.81758 0.53161 0.0
H2214 H 0.19455 0.89377 0.50346 0.0
H2215 H 0.13738 0.81348 0.50376 0.0
H2216 H 0.14996 0.81987 0.44885 0.0
H2217 H 0.13611 0.826 0.47555 0.0
H2218 H 0.2165 0.87375 0.48989 0.0
H2219 H 0.23026 0.86814 0.46316 0.0
C2220 C 0.1732 0.87939 0.52542 0.0
C2221 C 0.15408 0.85808 0.53376 0.0
C2222 C 0.17961 0.877 0.50947 0.0
C2223 C 0.167 0.85326 0.50141 0.0
C2224 C 0.14728 0.83211 0.50955 0.0
C2225 C 0.14092 0.83448 0.52553 0.0
C2226 C 0.16464 0.83192 0.45765 0.0
C2227 C 0.19122 0.84345 0.45389 0.0
C2228 C 0.15672 0.83524 0.473 0.0
C2229 C 0.17519 0.85035 0.48487 0.0
C2230 C 0.20174 0.86221 0.48099 0.0
C2231 C 0.20964 0.85876 0.46571 0.0
H2232 H 0.69054 0.81683 0.14582 0.0
H2233 H 0.61718 0.80973 0.15984 0.0
H2234 H 0.70271 0.81894 0.17415 0.0
H2235 H 0.62944 0.81188 0.18835 0.0
H2236 H 0.67507 0.84473 0.23673 0.0
H2237 H 0.66031 0.8414 0.2087 0.0
H2238 H 0.69068 0.79144 0.19756 0.0
H2239 H 0.70542 0.79481 0.22547 0.0
C2240 C 0.67686 0.81544 0.15496 0.0
C2241 C 0.65278 0.81289 0.15054 0.0
C2242 C 0.68385 0.81666 0.17123 0.0
C2243 C 0.66696 0.81536 0.18354 0.0
C2244 C 0.64299 0.81314 0.17916 0.0
C2245 C 0.63597 0.81191 0.16283 0.0
C2246 C 0.6783 0.8328 0.22833 0.0
C2247 C 0.69164 0.82023 0.2333 0.0
C2248 C 0.66984 0.83089 0.21227 0.0
C2249 C 0.67454 0.81635 0.20084 0.0
C2250 C 0.68725 0.80324 0.20595 0.0
C2251 C 0.69569 0.80517 0.22196 0.0
H2252 H 0.17166 0.80336 0.14965 0.0
H2253 H 0.22351 0.78919 0.17887 0.0
H2254 H 0.15566 0.81381 0.17409 0.0
H2255 H 0.207 0.79882 0.20326 0.0
H2256 H 0.19065 0.84236 0.24232 0.0
H2257 H 0.20745 0.83442 0.21741 0.0
H2258 H 0.12939 0.79236 0.1979 0.0
H2259 H 0.11254 0.80018 0.22286 0.0
C2260 C 0.17972 0.80258 0.16127 0.0
C2261 C 0.19881 0.79536 0.16229 0.0
C2262 C 0.17036 0.80831 0.17529 0.0
C2263 C 0.18 0.80711 0.19066 0.0
C2264 C 0.19931 0.80019 0.19163 0.0
C2265 C 0.20857 0.79437 0.17765 0.0
C2266 C 0.17702 0.83125 0.23278 0.0
C2267 C 0.1502 0.82182 0.23466 0.0
C2268 C 0.18667 0.82673 0.21847 0.0
C2269 C 0.16978 0.81269 0.20565 0.0
C2270 C 0.143 0.80354 0.20744 0.0
C2271 C 0.13333 0.80802 0.22177 0.0
H2272 H 0.20776 0.41097 0.16612 0.0
H2273 H 0.15044 0.33681 0.14771 0.0
H2274 H 0.19785 0.39474 0.1938 0.0
H2275 H 0.1407 0.32065 0.17513 0.0
H2276 H 0.10901 0.30468 0.22566 0.0
H2277 H 0.12001 0.32395 0.19902 0.0
H2278 H 0.20116 0.3659 0.21288 0.0
H2279 H 0.18997 0.34668 0.23977 0.0
C2280 C 0.19317 0.39119 0.16795 0.0
C2281 C 0.17969 0.37532 0.15465 0.0
C2282 C 0.18749 0.38186 0.18383 0.0
C2283 C 0.16823 0.35642 0.18679 0.0
C2284 C 0.15515 0.34051 0.17343 0.0
C2285 C 0.16077 0.34981 0.15764 0.0
C2286 C 0.12922 0.31798 0.22304 0.0
C2287 C 0.14863 0.32386 0.23482 0.0
C2288 C 0.13557 0.32902 0.20771 0.0
C2289 C 0.16155 0.34623 0.20362 0.0
C2290 C 0.18092 0.35284 0.21558 0.0
C2291 C 0.17453 0.34182 0.23101 0.0
H2292 H 0.82903 0.66329 0.87313 0.0
H2293 H 0.79529 0.5864 0.85434 0.0
H2294 H 0.83839 0.67979 0.84578 0.0
H2295 H 0.80451 0.60298 0.82673 0.0
H2296 H 0.8512 0.64687 0.78089 0.0
H2297 H 0.83921 0.62715 0.80761 0.0
H2298 H 0.81681 0.68217 0.82205 0.0
H2299 H 0.82913 0.70195 0.79559 0.0
C2300 C 0.8233 0.64983 0.86313 0.0
C2301 C 0.81113 0.62346 0.86599 0.0
C2302 C 0.82865 0.65932 0.84738 0.0
C2303 C 0.82194 0.64275 0.83394 0.0
C2304 C 0.81012 0.61635 0.83676 0.0
C2305 C 0.80481 0.60682 0.8526 0.0
C2306 C 0.84339 0.6545 0.78973 0.0
C2307 C 0.84145 0.67619 0.78617 0.0
C2308 C 0.83651 0.6432 0.80506 0.0
C2309 C 0.82741 0.65327 0.81715 0.0
C2310 C 0.82441 0.67428 0.81326 0.0
C2311 C 0.83139 0.68559 0.79803 0.0
H2312 H 0.42395 0.19951 0.84067 0.0
H2313 H 0.36145 0.19686 0.86877 0.0
H2314 H 0.39856 0.19217 0.81601 0.0
H2315 H 0.33553 0.18851 0.84407 0.0
H2316 H 0.31242 0.20667 0.79431 0.0
H2317 H 0.33513 0.21099 0.81984 0.0
H2318 H 0.36071 0.16012 0.80166 0.0
H2319 H 0.33811 0.15591 0.77615 0.0
C2320 C 0.40473 0.19727 0.8416 0.0
C2321 C 0.39483 0.19897 0.85671 0.0
C2322 C 0.39002 0.19274 0.82745 0.0
C2323 C 0.36497 0.18975 0.82803 0.0
C2324 C 0.35486 0.191 0.84317 0.0
C2325 C 0.36959 0.1955 0.85735 0.0
C2326 C 0.32263 0.19616 0.79584 0.0
C2327 C 0.32358 0.18108 0.78314 0.0
C2328 C 0.33563 0.19861 0.81049 0.0
C2329 C 0.34987 0.186 0.8128 0.0
C2330 C 0.35034 0.17048 0.80021 0.0
C2331 C 0.33738 0.16807 0.78556 0.0
H2332 H 0.85358 0.19876 0.86515 0.0
H2333 H 0.77246 0.14101 0.85992 0.0
H2334 H 0.86118 0.19111 0.8373 0.0
H2335 H 0.78078 0.13248 0.8323 0.0
H2336 H 0.8229 0.10532 0.79432 0.0
H2337 H 0.81055 0.11483 0.82063 0.0
H2338 H 0.84532 0.19413 0.80761 0.0
H2339 H 0.85709 0.18442 0.78106 0.0
C2340 C 0.83721 0.18472 0.8581 0.0
C2341 C 0.81231 0.17059 0.865 0.0
C2342 C 0.8417 0.18025 0.8421 0.0
C2343 C 0.82159 0.16122 0.83266 0.0
C2344 C 0.79668 0.14718 0.83938 0.0
C2345 C 0.79202 0.15198 0.85528 0.0
C2346 C 0.82752 0.12469 0.79702 0.0
C2347 C 0.84088 0.14415 0.78572 0.0
C2348 C 0.82041 0.13012 0.81202 0.0
C2349 C 0.82703 0.15522 0.81615 0.0
C2350 C 0.84005 0.17464 0.80473 0.0
C2351 C 0.84666 0.16909 0.78956 0.0
H2352 H 0.28454 0.14773 0.49232 0.0
H2353 H 0.35499 0.14849 0.47842 0.0
H2354 H 0.29699 0.15031 0.52083 0.0
H2355 H 0.36744 0.15119 0.50673 0.0
H2356 H 0.36997 0.12919 0.55849 0.0
H2357 H 0.35481 0.12527 0.53064 0.0
H2358 H 0.32879 0.17902 0.54079 0.0
H2359 H 0.34381 0.18275 0.56879 0.0
C2360 C 0.30274 0.14861 0.49534 0.0
C2361 C 0.31865 0.14766 0.4831 0.0
C2362 C 0.30988 0.15011 0.51167 0.0
C2363 C 0.33311 0.15073 0.51609 0.0
C2364 C 0.34913 0.15014 0.50381 0.0
C2365 C 0.34199 0.1486 0.48754 0.0
C2366 C 0.36107 0.14023 0.55477 0.0
C2367 C 0.35831 0.15646 0.56582 0.0
C2368 C 0.35241 0.13801 0.53879 0.0
C2369 C 0.34083 0.15204 0.5334 0.0
C2370 C 0.33742 0.16778 0.54456 0.0
C2371 C 0.34604 0.16994 0.56061 0.0
H2372 H 0.84526 0.13318 0.48793 0.0
H2373 H 0.89676 0.11889 0.51748 0.0
H2374 H 0.82902 0.14354 0.51218 0.0
H2375 H 0.87952 0.12783 0.54173 0.0
H2376 H 0.86158 0.16937 0.58131 0.0
H2377 H 0.87914 0.16123 0.55679 0.0
H2378 H 0.80234 0.12367 0.53514 0.0
H2379 H 0.78497 0.13229 0.55955 0.0
C2380 C 0.85319 0.1323 0.49957 0.0
C2381 C 0.8723 0.12511 0.50069 0.0
C2382 C 0.84361 0.13791 0.51353 0.0
C2383 C 0.85282 0.13642 0.52898 0.0
C2384 C 0.87212 0.12946 0.53007 0.0
C2385 C 0.88177 0.12398 0.51613 0.0
C2386 C 0.84844 0.15924 0.57134 0.0
C2387 C 0.82189 0.15149 0.57239 0.0
C2388 C 0.85849 0.15453 0.55727 0.0
C2389 C 0.8422 0.14178 0.54391 0.0
C2390 C 0.81559 0.13395 0.54502 0.0
C2391 C 0.80559 0.13881 0.55905 0.0
H2392 H 0.84013 0.73888 0.49907 0.0
H2393 H 0.87946 0.69641 0.4896 0.0
H2394 H 0.83053 0.72192 0.52646 0.0
H2395 H 0.86998 0.6796 0.51697 0.0
H2396 H 0.8631 0.66524 0.57133 0.0
H2397 H 0.87797 0.68881 0.54592 0.0
H2398 H 0.80233 0.68134 0.5389 0.0
H2399 H 0.78784 0.6585 0.56432 0.0
C2400 C 0.8468 0.72598 0.5028 0.0
C2401 C 0.8605 0.719 0.49198 0.0
C2402 C 0.84129 0.71623 0.51856 0.0
C2403 C 0.84933 0.69923 0.52398 0.0
C2404 C 0.86376 0.6929 0.51335 0.0
C2405 C 0.86923 0.7026 0.49759 0.0
C2406 C 0.84984 0.66905 0.56448 0.0
C2407 C 0.82421 0.65978 0.56981 0.0
C2408 C 0.85826 0.68234 0.54982 0.0
C2409 C 0.84133 0.6869 0.54023 0.0
C2410 C 0.81604 0.67845 0.54595 0.0
C2411 C 0.80762 0.66509 0.56048 0.0
loop_
_geom_bond_atom_site_label_1
_geom_bond_atom_site_label_2
_geom_bond_distance
_geom_bond_site_symmetry_2
_ccdc_geom_bond_type
P0 O11 1.490 . S
P0 C14 1.812 . S
P0 C20 1.803 . S
P0 C26 1.819 . S
H1 C15 0.941 . S
H2 C16 0.939 . S
H3 C18 0.940 . S
H4 C19 0.940 . S
H5 C21 0.939 . S
H6 C22 0.942 . S
H7 C24 0.940 . S
H8 C25 0.939 . S
H9 C27 0.941 . S
H10 C31 0.939 . S
O11 P0 1.490 . S
H12 C28 0.939 . S
H13 C30 0.940 . S
C14 P0 1.812 . S
C14 C15 1.389 . S
C14 C19 1.391 . S
C15 H1 0.941 . S
C15 C14 1.389 . S
C15 C16 1.397 . S
C16 H2 0.939 . S
C16 C15 1.397 . S
C16 C17 1.378 . S
C17 C16 1.378 . S
C17 C18 1.378 . S
C18 H3 0.940 . S
C18 C17 1.378 . S
C18 C19 1.396 . S
C19 H4 0.940 . S
C19 C14 1.391 . S
C19 C18 1.396 . S
C20 P0 1.803 . S
C20 C21 1.378 . S
C20 C25 1.400 . S
C21 H5 0.939 . S
C21 C20 1.378 . S
C21 C22 1.361 . S
C22 H6 0.942 . S
C22 C21 1.361 . S
C22 C23 1.369 . S
C23 C22 1.369 . S
C23 C24 1.404 . S
C24 H7 0.940 . S
C24 C23 1.404 . S
C24 C25 1.389 . S
C25 H8 0.939 . S
C25 C20 1.400 . S
C25 C24 1.389 . S
C26 P0 1.819 . S
C26 C27 1.391 . S
C26 C31 1.391 . S
C27 H9 0.941 . S
C27 C26 1.391 . S
C27 C28 1.396 . S
C28 H12 0.939 . S
C28 C27 1.396 . S
C28 C29 1.397 . S
C29 C28 1.397 . S
C29 C30 1.385 . S
C30 H13 0.940 . S
C30 C29 1.385 . S
C30 C31 1.388 . S
C31 H10 0.939 . S
C31 C26 1.391 . S
C31 C30 1.388 . S
P32 O43 1.490 . S
P32 C46 1.812 . S
P32 C52 1.803 . S
P32 C58 1.819 . S
H33 C47 0.941 . S
H34 C48 0.939 . S
H35 C50 0.940 . S
H36 C51 0.940 . S
H37 C53 0.939 . S
H38 C54 0.942 . S
H39 C56 0.940 . S
H40 C57 0.939 . S
H41 C59 0.941 . S
H42 C63 0.939 . S
O43 P32 1.490 . S
H44 C60 0.939 . S
H45 C62 0.940 . S
C46 P32 1.812 . S
C46 C47 1.389 . S
C46 C51 1.391 . S
C47 H33 0.941 . S
C47 C46 1.389 . S
C47 C48 1.397 . S
C48 H34 0.939 . S
C48 C47 1.397 . S
C48 C49 1.378 . S
C49 C48 1.378 . S
C49 C50 1.378 . S
C50 H35 0.940 . S
C50 C49 1.378 . S
C50 C51 1.396 . S
C51 H36 0.940 . S
C51 C46 1.391 . S
C51 C50 1.396 . S
C52 P32 1.803 . S
C52 C53 1.378 . S
C52 C57 1.400 . S
C53 H37 0.939 . S
C53 C52 1.378 . S
C53 C54 1.361 . S
C54 H38 0.942 . S
C54 C53 1.361 . S
C54 C55 1.369 . S
C55 C54 1.369 . S
C55 C56 1.404 . S
C56 H39 0.940 . S
C56 C55 1.404 . S
C56 C57 1.389 . S
C57 H40 0.939 . S
C57 C52 1.400 . S
C57 C56 1.389 . S
C58 P32 1.819 . S
C58 C59 1.391 . S
C58 C63 1.391 . S
C59 H41 0.941 . S
C59 C58 1.391 . S
C59 C60 1.396 . S
C60 H44 0.939 . S
C60 C59 1.396 . S
C60 C61 1.397 . S
C61 C60 1.397 . S
C61 C62 1.385 . S
C62 H45 0.940 . S
C62 C61 1.385 . S
C62 C63 1.388 . S
C63 H42 0.939 . S
C63 C58 1.391 . S
C63 C62 1.388 . S
P64 O75 1.490 . S
P64 C78 1.812 . S
P64 C84 1.803 . S
P64 C90 1.819 . S
H65 C79 0.941 . S
H66 C80 0.939 . S
H67 C82 0.940 . S
H68 C83 0.940 . S
H69 C85 0.939 . S
H70 C86 0.942 . S
H71 C88 0.940 . S
H72 C89 0.939 . S
H73 C91 0.941 . S
H74 C95 0.939 . S
O75 P64 1.490 . S
H76 C92 0.939 . S
H77 C94 0.940 . S
C78 P64 1.812 . S
C78 C79 1.389 . S
C78 C83 1.391 . S
C79 H65 0.941 . S
C79 C78 1.389 . S
C79 C80 1.397 . S
C80 H66 0.939 . S
C80 C79 1.397 . S
C80 C81 1.378 . S
C81 C80 1.378 . S
C81 C82 1.378 . S
C82 H67 0.940 . S
C82 C81 1.378 . S
C82 C83 1.396 . S
C83 H68 0.940 . S
C83 C78 1.391 . S
C83 C82 1.396 . S
C84 P64 1.803 . S
C84 C85 1.378 . S
C84 C89 1.400 . S
C85 H69 0.939 . S
C85 C84 1.378 . S
C85 C86 1.361 . S
C86 H70 0.942 . S
C86 C85 1.361 . S
C86 C87 1.369 . S
C87 C86 1.369 . S
C87 C88 1.404 . S
C88 H71 0.940 . S
C88 C87 1.404 . S
C88 C89 1.389 . S
C89 H72 0.939 . S
C89 C84 1.400 . S
C89 C88 1.389 . S
C90 P64 1.819 . S
C90 C91 1.391 . S
C90 C95 1.391 . S
C91 H73 0.941 . S
C91 C90 1.391 . S
C91 C92 1.396 . S
C92 H76 0.939 . S
C92 C91 1.396 . S
C92 C93 1.397 . S
C93 C92 1.397 . S
C93 C94 1.385 . S
C94 H77 0.940 . S
C94 C93 1.385 . S
C94 C95 1.388 . S
C95 H74 0.939 . S
C95 C90 1.391 . S
C95 C94 1.388 . S
P96 O107 1.490 . S
P96 C110 1.812 . S
P96 C116 1.803 . S
P96 C122 1.819 . S
H97 C111 0.941 . S
H98 C112 0.939 . S
H99 C114 0.940 . S
H100 C115 0.940 . S
H101 C117 0.939 . S
H102 C118 0.942 . S
H103 C120 0.940 . S
H104 C121 0.939 . S
H105 C123 0.941 . S
H106 C127 0.939 . S
O107 P96 1.490 . S
H108 C124 0.939 . S
H109 C126 0.940 . S
C110 P96 1.812 . S
C110 C111 1.389 . S
C110 C115 1.391 . S
C111 H97 0.941 . S
C111 C110 1.389 . S
C111 C112 1.397 . S
C112 H98 0.939 . S
C112 C111 1.397 . S
C112 C113 1.378 . S
C113 C112 1.378 . S
C113 C114 1.378 . S
C114 H99 0.940 . S
C114 C113 1.378 . S
C114 C115 1.396 . S
C115 H100 0.940 . S
C115 C110 1.391 . S
C115 C114 1.396 . S
C116 P96 1.803 . S
C116 C117 1.378 . S
C116 C121 1.400 . S
C117 H101 0.939 . S
C117 C116 1.378 . S
C117 C118 1.361 . S
C118 H102 0.942 . S
C118 C117 1.361 . S
C118 C119 1.369 . S
C119 C118 1.369 . S
C119 C120 1.404 . S
C120 H103 0.940 . S
C120 C119 1.404 . S
C120 C121 1.389 . S
C121 H104 0.939 . S
C121 C116 1.400 . S
C121 C120 1.389 . S
C122 P96 1.819 . S
C122 C123 1.391 . S
C122 C127 1.391 . S
C123 H105 0.941 . S
C123 C122 1.391 . S
C123 C124 1.396 . S
C124 H108 0.939 . S
C124 C123 1.396 . S
C124 C125 1.397 . S
C125 C124 1.397 . S
C125 C126 1.385 . S
C126 H109 0.940 . S
C126 C125 1.385 . S
C126 C127 1.388 . S
C127 H106 0.939 . S
C127 C122 1.391 . S
C127 C126 1.388 . S
P128 O139 1.490 . S
P128 C142 1.812 . S
P128 C148 1.803 . S
P128 C154 1.819 . S
H129 C143 0.941 . S
H130 C144 0.939 . S
H131 C146 0.940 . S
H132 C147 0.940 . S
H133 C149 0.939 . S
H134 C150 0.942 . S
H135 C152 0.940 . S
H136 C153 0.939 . S
H137 C155 0.941 . S
H138 C159 0.939 . S
O139 P128 1.490 . S
H140 C156 0.939 . S
H141 C158 0.940 . S
C142 P128 1.812 . S
C142 C143 1.389 . S
C142 C147 1.391 . S
C143 H129 0.941 . S
C143 C142 1.389 . S
C143 C144 1.397 . S
C144 H130 0.939 . S
C144 C143 1.397 . S
C144 C145 1.378 . S
C145 C144 1.378 . S
C145 C146 1.378 . S
C146 H131 0.940 . S
C146 C145 1.378 . S
C146 C147 1.396 . S
C147 H132 0.940 . S
C147 C142 1.391 . S
C147 C146 1.396 . S
C148 P128 1.803 . S
C148 C149 1.378 . S
C148 C153 1.400 . S
C149 H133 0.939 . S
C149 C148 1.378 . S
C149 C150 1.361 . S
C150 H134 0.942 . S
C150 C149 1.361 . S
C150 C151 1.369 . S
C151 C150 1.369 . S
C151 C152 1.404 . S
C152 H135 0.940 . S
C152 C151 1.404 . S
C152 C153 1.389 . S
C153 H136 0.939 . S
C153 C148 1.400 . S
C153 C152 1.389 . S
C154 P128 1.819 . S
C154 C155 1.391 . S
C154 C159 1.391 . S
C155 H137 0.941 . S
C155 C154 1.391 . S
C155 C156 1.396 . S
C156 H140 0.939 . S
C156 C155 1.396 . S
C156 C157 1.397 . S
C157 C156 1.397 . S
C157 C158 1.385 . S
C158 H141 0.940 . S
C158 C157 1.385 . S
C158 C159 1.388 . S
C159 H138 0.939 . S
C159 C154 1.391 . S
C159 C158 1.388 . S
P160 O171 1.490 . S
P160 C174 1.812 . S
P160 C180 1.803 . S
P160 C186 1.819 . S
H161 C175 0.941 . S
H162 C176 0.939 . S
H163 C178 0.940 . S
H164 C179 0.940 . S
H165 C181 0.939 . S
H166 C182 0.942 . S
H167 C184 0.940 . S
H168 C185 0.939 . S
H169 C187 0.941 . S
H170 C191 0.939 . S
O171 P160 1.490 . S
H172 C188 0.939 . S
H173 C190 0.940 . S
C174 P160 1.812 . S
C174 C175 1.389 . S
C174 C179 1.391 . S
C175 H161 0.941 . S
C175 C174 1.389 . S
C175 C176 1.397 . S
C176 H162 0.939 . S
C176 C175 1.397 . S
C176 C177 1.378 . S
C177 C176 1.378 . S
C177 C178 1.378 . S
C178 H163 0.940 . S
C178 C177 1.378 . S
C178 C179 1.396 . S
C179 H164 0.940 . S
C179 C174 1.391 . S
C179 C178 1.396 . S
C180 P160 1.803 . S
C180 C181 1.378 . S
C180 C185 1.400 . S
C181 H165 0.939 . S
C181 C180 1.378 . S
C181 C182 1.361 . S
C182 H166 0.942 . S
C182 C181 1.361 . S
C182 C183 1.369 . S
C183 C182 1.369 . S
C183 C184 1.404 . S
C184 H167 0.940 . S
C184 C183 1.404 . S
C184 C185 1.389 . S
C185 H168 0.939 . S
C185 C180 1.400 . S
C185 C184 1.389 . S
C186 P160 1.819 . S
C186 C187 1.391 . S
C186 C191 1.391 . S
C187 H169 0.941 . S
C187 C186 1.391 . S
C187 C188 1.396 . S
C188 H172 0.939 . S
C188 C187 1.396 . S
C188 C189 1.397 . S
C189 C188 1.397 . S
C189 C190 1.385 . S
C190 H173 0.940 . S
C190 C189 1.385 . S
C190 C191 1.388 . S
C191 H170 0.939 . S
C191 C186 1.391 . S
C191 C190 1.388 . S
P192 O203 1.490 . S
P192 C206 1.812 . S
P192 C212 1.803 . S
P192 C218 1.819 . S
H193 C207 0.941 . S
H194 C208 0.939 . S
H195 C210 0.940 . S
H196 C211 0.940 . S
H197 C213 0.939 . S
H198 C214 0.942 . S
H199 C216 0.940 . S
H200 C217 0.939 . S
H201 C219 0.941 . S
H202 C223 0.939 . S
O203 P192 1.490 . S
H204 C220 0.939 . S
H205 C222 0.940 . S
C206 P192 1.812 . S
C206 C207 1.389 . S
C206 C211 1.391 . S
C207 H193 0.941 . S
C207 C206 1.389 . S
C207 C208 1.397 . S
C208 H194 0.939 . S
C208 C207 1.397 . S
C208 C209 1.378 . S
C209 C208 1.378 . S
C209 C210 1.378 . S
C210 H195 0.940 . S
C210 C209 1.378 . S
C210 C211 1.396 . S
C211 H196 0.940 . S
C211 C206 1.391 . S
C211 C210 1.396 . S
C212 P192 1.803 . S
C212 C213 1.378 . S
C212 C217 1.400 . S
C213 H197 0.939 . S
C213 C212 1.378 . S
C213 C214 1.361 . S
C214 H198 0.942 . S
C214 C213 1.361 . S
C214 C215 1.369 . S
C215 C214 1.369 . S
C215 C216 1.404 . S
C216 H199 0.940 . S
C216 C215 1.404 . S
C216 C217 1.389 . S
C217 H200 0.939 . S
C217 C212 1.400 . S
C217 C216 1.389 . S
C218 P192 1.819 . S
C218 C219 1.391 . S
C218 C223 1.391 . S
C219 H201 0.941 . S
C219 C218 1.391 . S
C219 C220 1.396 . S
C220 H204 0.939 . S
C220 C219 1.396 . S
C220 C221 1.397 . S
C221 C220 1.397 . S
C221 C222 1.385 . S
C222 H205 0.940 . S
C222 C221 1.385 . S
C222 C223 1.388 . S
C223 H202 0.939 . S
C223 C218 1.391 . S
C223 C222 1.388 . S
P224 O235 1.490 . S
P224 C238 1.812 . S
P224 C244 1.803 . S
P224 C250 1.819 . S
H225 C239 0.941 . S
H226 C240 0.939 . S
H227 C242 0.940 . S
H228 C243 0.940 . S
H229 C245 0.939 . S
H230 C246 0.942 . S
H231 C248 0.940 . S
H232 C249 0.939 . S
H233 C251 0.941 . S
H234 C255 0.939 . S
O235 P224 1.490 . S
H236 C252 0.939 . S
H237 C254 0.940 . S
C238 P224 1.812 . S
C238 C239 1.389 . S
C238 C243 1.391 . S
C239 H225 0.941 . S
C239 C238 1.389 . S
C239 C240 1.397 . S
C240 H226 0.939 . S
C240 C239 1.397 . S
C240 C241 1.378 . S
C241 C240 1.378 . S
C241 C242 1.378 . S
C242 H227 0.940 . S
C242 C241 1.378 . S
C242 C243 1.396 . S
C243 H228 0.940 . S
C243 C238 1.391 . S
C243 C242 1.396 . S
C244 P224 1.803 . S
C244 C245 1.378 . S
C244 C249 1.400 . S
C245 H229 0.939 . S
C245 C244 1.378 . S
C245 C246 1.361 . S
C246 H230 0.942 . S
C246 C245 1.361 . S
C246 C247 1.369 . S
C247 C246 1.369 . S
C247 C248 1.404 . S
C248 H231 0.940 . S
C248 C247 1.404 . S
C248 C249 1.389 . S
C249 H232 0.939 . S
C249 C244 1.400 . S
C249 C248 1.389 . S
C250 P224 1.819 . S
C250 C251 1.391 . S
C250 C255 1.391 . S
C251 H233 0.941 . S
C251 C250 1.391 . S
C251 C252 1.396 . S
C252 H236 0.939 . S
C252 C251 1.396 . S
C252 C253 1.397 . S
C253 C252 1.397 . S
C253 C254 1.385 . S
C254 H237 0.940 . S
C254 C253 1.385 . S
C254 C255 1.388 . S
C255 H234 0.939 . S
C255 C250 1.391 . S
C255 C254 1.388 . S
P256 O267 1.490 . S
P256 C270 1.812 . S
P256 C276 1.803 . S
P256 C282 1.819 . S
H257 C271 0.941 . S
H258 C272 0.939 . S
H259 C274 0.940 . S
H260 C275 0.940 . S
H261 C277 0.939 . S
H262 C278 0.942 . S
H263 C280 0.940 . S
H264 C281 0.939 . S
H265 C283 0.941 . S
H266 C287 0.939 . S
O267 P256 1.490 . S
H268 C284 0.939 . S
H269 C286 0.940 . S
C270 P256 1.812 . S
C270 C271 1.389 . S
C270 C275 1.391 . S
C271 H257 0.941 . S
C271 C270 1.389 . S
C271 C272 1.397 . S
C272 H258 0.939 . S
C272 C271 1.397 . S
C272 C273 1.378 . S
C273 C272 1.378 . S
C273 C274 1.378 . S
C274 H259 0.940 . S
C274 C273 1.378 . S
C274 C275 1.396 . S
C275 H260 0.940 . S
C275 C270 1.391 . S
C275 C274 1.396 . S
C276 P256 1.803 . S
C276 C277 1.378 . S
C276 C281 1.400 . S
C277 H261 0.939 . S
C277 C276 1.378 . S
C277 C278 1.361 . S
C278 H262 0.942 . S
C278 C277 1.361 . S
C278 C279 1.369 . S
C279 C278 1.369 . S
C279 C280 1.404 . S
C280 H263 0.940 . S
C280 C279 1.404 . S
C280 C281 1.389 . S
C281 H264 0.939 . S
C281 C276 1.400 . S
C281 C280 1.389 . S
C282 P256 1.819 . S
C282 C283 1.391 . S
C282 C287 1.391 . S
C283 H265 0.941 . S
C283 C282 1.391 . S
C283 C284 1.396 . S
C284 H268 0.939 . S
C284 C283 1.396 . S
C284 C285 1.397 . S
C285 C284 1.397 . S
C285 C286 1.385 . S
C286 H269 0.940 . S
C286 C285 1.385 . S
C286 C287 1.388 . S
C287 H266 0.939 . S
C287 C282 1.391 . S
C287 C286 1.388 . S
P288 O299 1.490 . S
P288 C302 1.812 . S
P288 C308 1.803 . S
P288 C314 1.819 . S
H289 C303 0.941 . S
H290 C304 0.939 . S
H291 C306 0.940 . S
H292 C307 0.940 . S
H293 C309 0.939 . S
H294 C310 0.942 . S
H295 C312 0.940 . S
H296 C313 0.939 . S
H297 C315 0.941 . S
H298 C319 0.939 . S
O299 P288 1.490 . S
H300 C316 0.939 . S
H301 C318 0.940 . S
C302 P288 1.812 . S
C302 C303 1.389 . S
C302 C307 1.391 . S
C303 H289 0.941 . S
C303 C302 1.389 . S
C303 C304 1.397 . S
C304 H290 0.939 . S
C304 C303 1.397 . S
C304 C305 1.378 . S
C305 C304 1.378 . S
C305 C306 1.378 . S
C306 H291 0.940 . S
C306 C305 1.378 . S
C306 C307 1.396 . S
C307 H292 0.940 . S
C307 C302 1.391 . S
C307 C306 1.396 . S
C308 P288 1.803 . S
C308 C309 1.378 . S
C308 C313 1.400 . S
C309 H293 0.939 . S
C309 C308 1.378 . S
C309 C310 1.361 . S
C310 H294 0.942 . S
C310 C309 1.361 . S
C310 C311 1.369 . S
C311 C310 1.369 . S
C311 C312 1.404 . S
C312 H295 0.940 . S
C312 C311 1.404 . S
C312 C313 1.389 . S
C313 H296 0.939 . S
C313 C308 1.400 . S
C313 C312 1.389 . S
C314 P288 1.819 . S
C314 C315 1.391 . S
C314 C319 1.391 . S
C315 H297 0.941 . S
C315 C314 1.391 . S
C315 C316 1.396 . S
C316 H300 0.939 . S
C316 C315 1.396 . S
C316 C317 1.397 . S
C317 C316 1.397 . S
C317 C318 1.385 . S
C318 H301 0.940 . S
C318 C317 1.385 . S
C318 C319 1.388 . S
C319 H298 0.939 . S
C319 C314 1.391 . S
C319 C318 1.388 . S
P320 O331 1.490 . S
P320 C334 1.812 . S
P320 C340 1.803 . S
P320 C346 1.819 . S
H321 C335 0.941 . S
H322 C336 0.939 . S
H323 C338 0.940 . S
H324 C339 0.940 . S
H325 C341 0.939 . S
H326 C342 0.942 . S
H327 C344 0.940 . S
H328 C345 0.939 . S
H329 C347 0.941 . S
H330 C351 0.939 . S
O331 P320 1.490 . S
H332 C348 0.939 . S
H333 C350 0.940 . S
C334 P320 1.812 . S
C334 C335 1.389 . S
C334 C339 1.391 . S
C335 H321 0.941 . S
C335 C334 1.389 . S
C335 C336 1.397 . S
C336 H322 0.939 . S
C336 C335 1.397 . S
C336 C337 1.378 . S
C337 C336 1.378 . S
C337 C338 1.378 . S
C338 H323 0.940 . S
C338 C337 1.378 . S
C338 C339 1.396 . S
C339 H324 0.940 . S
C339 C334 1.391 . S
C339 C338 1.396 . S
C340 P320 1.803 . S
C340 C341 1.378 . S
C340 C345 1.400 . S
C341 H325 0.939 . S
C341 C340 1.378 . S
C341 C342 1.361 . S
C342 H326 0.942 . S
C342 C341 1.361 . S
C342 C343 1.369 . S
C343 C342 1.369 . S
C343 C344 1.404 . S
C344 H327 0.940 . S
C344 C343 1.404 . S
C344 C345 1.389 . S
C345 H328 0.939 . S
C345 C340 1.400 . S
C345 C344 1.389 . S
C346 P320 1.819 . S
C346 C347 1.391 . S
C346 C351 1.391 . S
C347 H329 0.941 . S
C347 C346 1.391 . S
C347 C348 1.396 . S
C348 H332 0.939 . S
C348 C347 1.396 . S
C348 C349 1.397 . S
C349 C348 1.397 . S
C349 C350 1.385 . S
C350 H333 0.940 . S
C350 C349 1.385 . S
C350 C351 1.388 . S
C351 H330 0.939 . S
C351 C346 1.391 . S
C351 C350 1.388 . S
P352 O363 1.490 . S
P352 C366 1.812 . S
P352 C372 1.803 . S
P352 C378 1.819 . S
H353 C367 0.941 . S
H354 C368 0.939 . S
H355 C370 0.940 . S
H356 C371 0.940 . S
H357 C373 0.939 . S
H358 C374 0.942 . S
H359 C376 0.940 . S
H360 C377 0.939 . S
H361 C379 0.941 . S
H362 C383 0.939 . S
O363 P352 1.490 . S
H364 C380 0.939 . S
H365 C382 0.940 . S
C366 P352 1.812 . S
C366 C367 1.389 . S
C366 C371 1.391 . S
C367 H353 0.941 . S
C367 C366 1.389 . S
C367 C368 1.397 . S
C368 H354 0.939 . S
C368 C367 1.397 . S
C368 C369 1.378 . S
C369 C368 1.378 . S
C369 C370 1.378 . S
C370 H355 0.940 . S
C370 C369 1.378 . S
C370 C371 1.396 . S
C371 H356 0.940 . S
C371 C366 1.391 . S
C371 C370 1.396 . S
C372 P352 1.803 . S
C372 C373 1.378 . S
C372 C377 1.400 . S
C373 H357 0.939 . S
C373 C372 1.378 . S
C373 C374 1.361 . S
C374 H358 0.942 . S
C374 C373 1.361 . S
C374 C375 1.369 . S
C375 C374 1.369 . S
C375 C376 1.404 . S
C376 H359 0.940 . S
C376 C375 1.404 . S
C376 C377 1.389 . S
C377 H360 0.939 . S
C377 C372 1.400 . S
C377 C376 1.389 . S
C378 P352 1.819 . S
C378 C379 1.391 . S
C378 C383 1.391 . S
C379 H361 0.941 . S
C379 C378 1.391 . S
C379 C380 1.396 . S
C380 H364 0.939 . S
C380 C379 1.396 . S
C380 C381 1.397 . S
C381 C380 1.397 . S
C381 C382 1.385 . S
C382 H365 0.940 . S
C382 C381 1.385 . S
C382 C383 1.388 . S
C383 H362 0.939 . S
C383 C378 1.391 . S
C383 C382 1.388 . S
P384 O395 1.490 . S
P384 C398 1.812 . S
P384 C404 1.803 . S
P384 C410 1.819 . S
H385 C399 0.941 . S
H386 C400 0.939 . S
H387 C402 0.940 . S
H388 C403 0.940 . S
H389 C405 0.939 . S
H390 C406 0.942 . S
H391 C408 0.940 . S
H392 C409 0.939 . S
H393 C411 0.941 . S
H394 C415 0.939 . S
O395 P384 1.490 . S
H396 C412 0.939 . S
H397 C414 0.940 . S
C398 P384 1.812 . S
C398 C399 1.389 . S
C398 C403 1.391 . S
C399 H385 0.941 . S
C399 C398 1.389 . S
C399 C400 1.397 . S
C400 H386 0.939 . S
C400 C399 1.397 . S
C400 C401 1.378 . S
C401 C400 1.378 . S
C401 C402 1.378 . S
C402 H387 0.940 . S
C402 C401 1.378 . S
C402 C403 1.396 . S
C403 H388 0.940 . S
C403 C398 1.391 . S
C403 C402 1.396 . S
C404 P384 1.803 . S
C404 C405 1.378 . S
C404 C409 1.400 . S
C405 H389 0.939 . S
C405 C404 1.378 . S
C405 C406 1.361 . S
C406 H390 0.942 . S
C406 C405 1.361 . S
C406 C407 1.369 . S
C407 C406 1.369 . S
C407 C408 1.404 . S
C408 H391 0.940 . S
C408 C407 1.404 . S
C408 C409 1.389 . S
C409 H392 0.939 . S
C409 C404 1.400 . S
C409 C408 1.389 . S
C410 P384 1.819 . S
C410 C411 1.391 . S
C410 C415 1.391 . S
C411 H393 0.941 . S
C411 C410 1.391 . S
C411 C412 1.396 . S
C412 H396 0.939 . S
C412 C411 1.396 . S
C412 C413 1.397 . S
C413 C412 1.397 . S
C413 C414 1.385 . S
C414 H397 0.940 . S
C414 C413 1.385 . S
C414 C415 1.388 . S
C415 H394 0.939 . S
C415 C410 1.391 . S
C415 C414 1.388 . S
P416 O427 1.490 . S
P416 C430 1.812 . S
P416 C436 1.803 . S
P416 C442 1.819 . S
H417 C431 0.941 . S
H418 C432 0.939 . S
H419 C434 0.940 . S
H420 C435 0.940 . S
H421 C437 0.939 . S
H422 C438 0.942 . S
H423 C440 0.940 . S
H424 C441 0.939 . S
H425 C443 0.941 . S
H426 C447 0.939 . S
O427 P416 1.490 . S
H428 C444 0.939 . S
H429 C446 0.940 . S
C430 P416 1.812 . S
C430 C431 1.389 . S
C430 C435 1.391 . S
C431 H417 0.941 . S
C431 C430 1.389 . S
C431 C432 1.397 . S
C432 H418 0.939 . S
C432 C431 1.397 . S
C432 C433 1.378 . S
C433 C432 1.378 . S
C433 C434 1.378 . S
C434 H419 0.940 . S
C434 C433 1.378 . S
C434 C435 1.396 . S
C435 H420 0.940 . S
C435 C430 1.391 . S
C435 C434 1.396 . S
C436 P416 1.803 . S
C436 C437 1.378 . S
C436 C441 1.400 . S
C437 H421 0.939 . S
C437 C436 1.378 . S
C437 C438 1.361 . S
C438 H422 0.942 . S
C438 C437 1.361 . S
C438 C439 1.369 . S
C439 C438 1.369 . S
C439 C440 1.404 . S
C440 H423 0.940 . S
C440 C439 1.404 . S
C440 C441 1.389 . S
C441 H424 0.939 . S
C441 C436 1.400 . S
C441 C440 1.389 . S
C442 P416 1.819 . S
C442 C443 1.391 . S
C442 C447 1.391 . S
C443 H425 0.941 . S
C443 C442 1.391 . S
C443 C444 1.396 . S
C444 H428 0.939 . S
C444 C443 1.396 . S
C444 C445 1.397 . S
C445 C444 1.397 . S
C445 C446 1.385 . S
C446 H429 0.940 . S
C446 C445 1.385 . S
C446 C447 1.388 . S
C447 H426 0.939 . S
C447 C442 1.391 . S
C447 C446 1.388 . S
P448 O459 1.490 . S
P448 C462 1.812 . S
P448 C468 1.803 . S
P448 C474 1.819 . S
H449 C463 0.941 . S
H450 C464 0.939 . S
H451 C466 0.940 . S
H452 C467 0.940 . S
H453 C469 0.939 . S
H454 C470 0.942 . S
H455 C472 0.940 . S
H456 C473 0.939 . S
H457 C475 0.941 . S
H458 C479 0.939 . S
O459 P448 1.490 . S
H460 C476 0.939 . S
H461 C478 0.940 . S
C462 P448 1.812 . S
C462 C463 1.389 . S
C462 C467 1.391 . S
C463 H449 0.941 . S
C463 C462 1.389 . S
C463 C464 1.397 . S
C464 H450 0.939 . S
C464 C463 1.397 . S
C464 C465 1.378 . S
C465 C464 1.378 . S
C465 C466 1.378 . S
C466 H451 0.940 . S
C466 C465 1.378 . S
C466 C467 1.396 . S
C467 H452 0.940 . S
C467 C462 1.391 . S
C467 C466 1.396 . S
C468 P448 1.803 . S
C468 C469 1.378 . S
C468 C473 1.400 . S
C469 H453 0.939 . S
C469 C468 1.378 . S
C469 C470 1.361 . S
C470 H454 0.942 . S
C470 C469 1.361 . S
C470 C471 1.369 . S
C471 C470 1.369 . S
C471 C472 1.404 . S
C472 H455 0.940 . S
C472 C471 1.404 . S
C472 C473 1.389 . S
C473 H456 0.939 . S
C473 C468 1.400 . S
C473 C472 1.389 . S
C474 P448 1.819 . S
C474 C475 1.391 . S
C474 C479 1.391 . S
C475 H457 0.941 . S
C475 C474 1.391 . S
C475 C476 1.396 . S
C476 H460 0.939 . S
C476 C475 1.396 . S
C476 C477 1.397 . S
C477 C476 1.397 . S
C477 C478 1.385 . S
C478 H461 0.940 . S
C478 C477 1.385 . S
C478 C479 1.388 . S
C479 H458 0.939 . S
C479 C474 1.391 . S
C479 C478 1.388 . S
P480 O491 1.490 . S
P480 C494 1.812 . S
P480 C500 1.803 . S
P480 C506 1.819 . S
H481 C495 0.941 . S
H482 C496 0.939 . S
H483 C498 0.940 . S
H484 C499 0.940 . S
H485 C501 0.939 . S
H486 C502 0.942 . S
H487 C504 0.940 . S
H488 C505 0.939 . S
H489 C507 0.941 . S
H490 C511 0.939 . S
O491 P480 1.490 . S
H492 C508 0.939 . S
H493 C510 0.940 . S
C494 P480 1.812 . S
C494 C495 1.389 . S
C494 C499 1.391 . S
C495 H481 0.941 . S
C495 C494 1.389 . S
C495 C496 1.397 . S
C496 H482 0.939 . S
C496 C495 1.397 . S
C496 C497 1.378 . S
C497 C496 1.378 . S
C497 C498 1.378 . S
C498 H483 0.940 . S
C498 C497 1.378 . S
C498 C499 1.396 . S
C499 H484 0.940 . S
C499 C494 1.391 . S
C499 C498 1.396 . S
C500 P480 1.803 . S
C500 C501 1.378 . S
C500 C505 1.400 . S
C501 H485 0.939 . S
C501 C500 1.378 . S
C501 C502 1.361 . S
C502 H486 0.942 . S
C502 C501 1.361 . S
C502 C503 1.369 . S
C503 C502 1.369 . S
C503 C504 1.404 . S
C504 H487 0.940 . S
C504 C503 1.404 . S
C504 C505 1.389 . S
C505 H488 0.939 . S
C505 C500 1.400 . S
C505 C504 1.389 . S
C506 P480 1.819 . S
C506 C507 1.391 . S
C506 C511 1.391 . S
C507 H489 0.941 . S
C507 C506 1.391 . S
C507 C508 1.396 . S
C508 H492 0.939 . S
C508 C507 1.396 . S
C508 C509 1.397 . S
C509 C508 1.397 . S
C509 C510 1.385 . S
C510 H493 0.940 . S
C510 C509 1.385 . S
C510 C511 1.388 . S
C511 H490 0.939 . S
C511 C506 1.391 . S
C511 C510 1.388 . S
P512 O523 1.490 . S
P512 C526 1.812 . S
P512 C532 1.803 . S
P512 C538 1.819 . S
H513 C527 0.941 . S
H514 C528 0.939 . S
H515 C530 0.940 . S
H516 C531 0.940 . S
H517 C533 0.939 . S
H518 C534 0.942 . S
H519 C536 0.940 . S
H520 C537 0.939 . S
H521 C539 0.941 . S
H522 C543 0.939 . S
O523 P512 1.490 . S
H524 C540 0.939 . S
H525 C542 0.940 . S
C526 P512 1.812 . S
C526 C527 1.389 . S
C526 C531 1.391 . S
C527 H513 0.941 . S
C527 C526 1.389 . S
C527 C528 1.397 . S
C528 H514 0.939 . S
C528 C527 1.397 . S
C528 C529 1.378 . S
C529 C528 1.378 . S
C529 C530 1.378 . S
C530 H515 0.940 . S
C530 C529 1.378 . S
C530 C531 1.396 . S
C531 H516 0.940 . S
C531 C526 1.391 . S
C531 C530 1.396 . S
C532 P512 1.803 . S
C532 C533 1.378 . S
C532 C537 1.400 . S
C533 H517 0.939 . S
C533 C532 1.378 . S
C533 C534 1.361 . S
C534 H518 0.942 . S
C534 C533 1.361 . S
C534 C535 1.369 . S
C535 C534 1.369 . S
C535 C536 1.404 . S
C536 H519 0.940 . S
C536 C535 1.404 . S
C536 C537 1.389 . S
C537 H520 0.939 . S
C537 C532 1.400 . S
C537 C536 1.389 . S
C538 P512 1.819 . S
C538 C539 1.391 . S
C538 C543 1.391 . S
C539 H521 0.941 . S
C539 C538 1.391 . S
C539 C540 1.396 . S
C540 H524 0.939 . S
C540 C539 1.396 . S
C540 C541 1.397 . S
C541 C540 1.397 . S
C541 C542 1.385 . S
C542 H525 0.940 . S
C542 C541 1.385 . S
C542 C543 1.388 . S
C543 H522 0.939 . S
C543 C538 1.391 . S
C543 C542 1.388 . S
P544 O555 1.490 . S
P544 C558 1.812 . S
P544 C564 1.803 . S
P544 C570 1.819 . S
H545 C559 0.941 . S
H546 C560 0.939 . S
H547 C562 0.940 . S
H548 C563 0.940 . S
H549 C565 0.939 . S
H550 C566 0.942 . S
H551 C568 0.940 . S
H552 C569 0.939 . S
H553 C571 0.941 . S
H554 C575 0.939 . S
O555 P544 1.490 . S
H556 C572 0.939 . S
H557 C574 0.940 . S
C558 P544 1.812 . S
C558 C559 1.389 . S
C558 C563 1.391 . S
C559 H545 0.941 . S
C559 C558 1.389 . S
C559 C560 1.397 . S
C560 H546 0.939 . S
C560 C559 1.397 . S
C560 C561 1.378 . S
C561 C560 1.378 . S
C561 C562 1.378 . S
C562 H547 0.940 . S
C562 C561 1.378 . S
C562 C563 1.396 . S
C563 H548 0.940 . S
C563 C558 1.391 . S
C563 C562 1.396 . S
C564 P544 1.803 . S
C564 C565 1.378 . S
C564 C569 1.400 . S
C565 H549 0.939 . S
C565 C564 1.378 . S
C565 C566 1.361 . S
C566 H550 0.942 . S
C566 C565 1.361 . S
C566 C567 1.369 . S
C567 C566 1.369 . S
C567 C568 1.404 . S
C568 H551 0.940 . S
C568 C567 1.404 . S
C568 C569 1.389 . S
C569 H552 0.939 . S
C569 C564 1.400 . S
C569 C568 1.389 . S
C570 P544 1.819 . S
C570 C571 1.391 . S
C570 C575 1.391 . S
C571 H553 0.941 . S
C571 C570 1.391 . S
C571 C572 1.396 . S
C572 H556 0.939 . S
C572 C571 1.396 . S
C572 C573 1.397 . S
C573 C572 1.397 . S
C573 C574 1.385 . S
C574 H557 0.940 . S
C574 C573 1.385 . S
C574 C575 1.388 . S
C575 H554 0.939 . S
C575 C570 1.391 . S
C575 C574 1.388 . S
Gd576 N607 2.661 . S
Gd576 N613 2.601 . S
Gd576 O620 2.545 . S
Gd576 O621 2.606 1_545 S
Gd576 O623 2.429 . S
Gd576 O624 2.545 1_545 S
Gd576 O625 2.412 . S
Gd576 O627 2.299 1_554 S
Gd576 O628 2.324 1_545 S
Gd576 C635 2.828 . S
Gd577 N586 2.661 . S
Gd577 N590 2.601 . S
Gd577 O621 2.362 1_556 S
Gd577 O622 2.324 1_565 S
Gd577 O626 2.545 . S
Gd577 O627 2.645 1_565 S
Gd577 O629 2.429 . S
Gd577 O630 2.545 1_565 S
Gd577 O631 2.412 . S
Gd577 C644 2.828 . S
C578 C581 1.417 . S
C578 C583 1.431 . S
C578 C584 1.412 . S
C579 C582 1.437 . S
C579 C583 1.317 . S
C579 H598 0.929 . S
C580 C581 1.426 . S
C580 C582 1.413 . S
C580 N590 1.359 . S
C581 C578 1.417 . S
C581 C580 1.426 . S
C581 N586 1.350 . S
C582 C579 1.437 . S
C582 C580 1.413 . S
C582 C592 1.391 . S
C583 C578 1.431 . S
C583 C579 1.317 . S
C583 H594 0.930 . S
C584 C578 1.412 . S
C584 C585 1.355 . S
C584 H596 0.930 . S
C585 C584 1.355 . S
C585 C587 1.402 . S
C585 H597 0.930 . S
N586 Gd577 2.661 . S
N586 C581 1.350 . S
N586 C587 1.307 . S
C587 C585 1.402 . S
C587 N586 1.307 . S
C587 H588 0.930 . S
H588 C587 0.930 . S
C589 N590 1.334 . S
C589 C591 1.394 . S
C589 H593 0.930 . S
N590 Gd577 2.601 . S
N590 C580 1.359 . S
N590 C589 1.334 . S
C591 C589 1.394 . S
C591 C592 1.359 . S
C591 H603 0.930 . S
C592 C582 1.391 . S
C592 C591 1.359 . S
C592 H604 0.929 . S
H593 C589 0.930 . S
H594 C583 0.930 . S
H595 C612 0.930 . S
H596 C584 0.930 . S
H597 C585 0.930 . S
H598 C579 0.929 . S
H599 C617 0.930 . S
H600 C608 0.930 . S
H601 C609 0.930 . S
H602 C633 0.929 . S
H603 C591 0.930 . S
H604 C592 0.929 . S
H605 C634 0.930 . S
H606 C615 0.930 . S
N607 Gd576 2.661 . S
N607 C611 1.350 . S
N607 C612 1.307 . S
C608 H600 0.930 . S
C608 C609 1.355 . S
C608 C610 1.412 . S
C609 H601 0.930 . S
C609 C608 1.355 . S
C609 C612 1.402 . S
C610 C608 1.412 . S
C610 C611 1.417 . S
C610 C634 1.431 . S
C611 N607 1.350 . S
C611 C610 1.417 . S
C611 C614 1.426 . S
C612 H595 0.930 . S
C612 N607 1.307 . S
C612 C609 1.402 . S
N613 Gd576 2.601 . S
N613 C614 1.359 . S
N613 C617 1.334 . S
C614 C611 1.426 . S
C614 N613 1.359 . S
C614 C618 1.413 . S
C615 H606 0.930 . S
C615 C616 1.359 . S
C615 C617 1.394 . S
C616 C615 1.359 . S
C616 C618 1.391 . S
C616 H619 0.929 . S
C617 H599 0.930 . S
C617 N613 1.334 . S
C617 C615 1.394 . S
C618 C614 1.413 . S
C618 C616 1.391 . S
C618 C633 1.437 . S
H619 C616 0.929 . S
O620 Gd576 2.545 . S
O620 C635 1.258 . S
O621 Gd576 2.606 1_565 S
O621 Gd577 2.362 1_554 S
O621 C632 1.284 . S
O622 Gd577 2.324 1_545 S
O622 C642 1.254 . S
O623 Gd576 2.429 . S
O623 C642 1.268 1_554 S
O624 Gd576 2.545 1_565 S
O624 C632 1.250 . S
O625 Gd576 2.412 . S
O625 C635 1.252 . S
O626 Gd577 2.545 . S
O626 C644 1.258 . S
O627 Gd576 2.299 1_556 S
O627 Gd577 2.645 1_545 S
O627 C643 1.336 . S
O628 Gd576 2.324 1_565 S
O628 C651 1.254 . S
O629 Gd577 2.429 . S
O629 C651 1.268 1_556 S
O630 Gd577 2.545 1_545 S
O630 C643 1.250 . S
O631 Gd577 2.412 . S
O631 C644 1.252 . S
C632 O621 1.284 . S
C632 O624 1.250 . S
C633 H602 0.929 . S
C633 C618 1.437 . S
C633 C634 1.317 . S
C634 H605 0.930 . S
C634 C610 1.431 . S
C634 C633 1.317 . S
C635 Gd576 2.828 . S
C635 O620 1.258 . S
C635 O625 1.252 . S
C635 C636 1.497 . S
C636 C635 1.497 . S
C636 C637 1.395 . S
C636 C638 1.380 1_545 S
C637 C636 1.395 . S
C637 C640 1.398 . S
C637 H652 0.930 . S
C638 C636 1.380 1_565 S
C638 C639 1.391 . S
C638 H653 0.930 . S
C639 C638 1.391 . S
C639 C641 1.387 1_565 S
C640 C637 1.398 . S
C640 C641 1.380 . S
C640 H654 0.930 . S
C641 C639 1.387 1_545 S
C641 C640 1.380 . S
C641 H655 0.930 . S
C642 O622 1.254 . S
C642 O623 1.268 1_556 S
C643 O627 1.336 . S
C643 O630 1.250 . S
C644 Gd577 2.828 . S
C644 O626 1.258 . S
C644 O631 1.252 . S
C644 C645 1.497 . S
C645 C644 1.497 . S
C645 C646 1.395 . S
C645 C647 1.380 1_565 S
C646 C645 1.395 . S
C646 C649 1.398 . S
C646 H656 0.930 . S
C647 C645 1.380 1_545 S
C647 C648 1.391 . S
C647 H657 0.930 . S
C648 C647 1.391 . S
C648 C650 1.387 1_545 S
C649 C646 1.398 . S
C649 C650 1.380 . S
C649 H658 0.930 . S
C650 C648 1.387 1_565 S
C650 C649 1.380 . S
C650 H659 0.930 . S
C651 O628 1.254 . S
C651 O629 1.268 1_554 S
H652 C637 0.930 . S
H653 C638 0.930 . S
H654 C640 0.930 . S
H655 C641 0.930 . S
H656 C646 0.930 . S
H657 C647 0.930 . S
H658 C649 0.930 . S
H659 C650 0.930 . S
Gd660 N691 2.661 . S
Gd660 N697 2.601 . S
Gd660 O704 2.545 . S
Gd660 O705 2.606 1_655 S
Gd660 O707 2.429 . S
Gd660 O708 2.545 1_655 S
Gd660 O709 2.412 . S
Gd660 O711 2.298 1_554 S
Gd660 O712 2.324 1_655 S
Gd660 C719 2.828 . S
Gd661 N670 2.661 . S
Gd661 N674 2.601 . S
Gd661 O705 2.362 1_556 S
Gd661 O706 2.324 1_455 S
Gd661 O710 2.545 . S
Gd661 O711 2.645 1_455 S
Gd661 O713 2.429 . S
Gd661 O714 2.545 1_455 S
Gd661 O715 2.412 . S
Gd661 C728 2.828 . S
C662 C665 1.417 . S
C662 C667 1.431 . S
C662 C668 1.412 . S
C663 C666 1.437 . S
C663 C667 1.317 . S
C663 H682 0.929 . S
C664 C665 1.426 . S
C664 C666 1.413 . S
C664 N674 1.359 . S
C665 C662 1.417 . S
C665 C664 1.426 . S
C665 N670 1.350 . S
C666 C663 1.437 . S
C666 C664 1.413 . S
C666 C676 1.391 . S
C667 C662 1.431 . S
C667 C663 1.317 . S
C667 H678 0.930 . S
C668 C662 1.412 . S
C668 C669 1.355 . S
C668 H680 0.930 . S
C669 C668 1.355 . S
C669 C671 1.402 . S
C669 H681 0.930 . S
N670 Gd661 2.661 . S
N670 C665 1.350 . S
N670 C671 1.307 . S
C671 C669 1.402 . S
C671 N670 1.307 . S
C671 H672 0.930 . S
H672 C671 0.930 . S
C673 N674 1.334 . S
C673 C675 1.394 . S
C673 H677 0.930 . S
N674 Gd661 2.601 . S
N674 C664 1.359 . S
N674 C673 1.334 . S
C675 C673 1.394 . S
C675 C676 1.359 . S
C675 H687 0.930 . S
C676 C666 1.391 . S
C676 C675 1.359 . S
C676 H688 0.929 . S
H677 C673 0.930 . S
H678 C667 0.930 . S
H679 C696 0.930 . S
H680 C668 0.930 . S
H681 C669 0.930 . S
H682 C663 0.929 . S
H683 C701 0.930 . S
H684 C692 0.930 . S
H685 C693 0.930 . S
H686 C717 0.929 . S
H687 C675 0.930 . S
H688 C676 0.929 . S
H689 C718 0.930 . S
H690 C699 0.930 . S
N691 Gd660 2.661 . S
N691 C695 1.350 . S
N691 C696 1.307 . S
C692 H684 0.930 . S
C692 C693 1.355 . S
C692 C694 1.412 . S
C693 H685 0.930 . S
C693 C692 1.355 . S
C693 C696 1.402 . S
C694 C692 1.412 . S
C694 C695 1.417 . S
C694 C718 1.431 . S
C695 N691 1.350 . S
C695 C694 1.417 . S
C695 C698 1.426 . S
C696 H679 0.930 . S
C696 N691 1.307 . S
C696 C693 1.402 . S
N697 Gd660 2.601 . S
N697 C698 1.359 . S
N697 C701 1.334 . S
C698 C695 1.426 . S
C698 N697 1.359 . S
C698 C702 1.413 . S
C699 H690 0.930 . S
C699 C700 1.359 . S
C699 C701 1.394 . S
C700 C699 1.359 . S
C700 C702 1.391 . S
C700 H703 0.929 . S
C701 H683 0.930 . S
C701 N697 1.334 . S
C701 C699 1.394 . S
C702 C698 1.413 . S
C702 C700 1.391 . S
C702 C717 1.437 . S
H703 C700 0.929 . S
O704 Gd660 2.545 . S
O704 C719 1.258 . S
O705 Gd660 2.606 1_455 S
O705 Gd661 2.362 1_554 S
O705 C716 1.284 . S
O706 Gd661 2.324 1_655 S
O706 C726 1.254 . S
O707 Gd660 2.429 . S
O707 C726 1.268 1_554 S
O708 Gd660 2.545 1_455 S
O708 C716 1.250 . S
O709 Gd660 2.412 . S
O709 C719 1.252 . S
O710 Gd661 2.545 . S
O710 C728 1.258 . S
O711 Gd660 2.298 1_556 S
O711 Gd661 2.645 1_655 S
O711 C727 1.337 . S
O712 Gd660 2.324 1_455 S
O712 C735 1.254 . S
O713 Gd661 2.429 . S
O713 C735 1.268 1_556 S
O714 Gd661 2.545 1_655 S
O714 C727 1.250 . S
O715 Gd661 2.412 . S
O715 C728 1.252 . S
C716 O705 1.284 . S
C716 O708 1.250 . S
C717 H686 0.929 . S
C717 C702 1.437 . S
C717 C718 1.317 . S
C718 H689 0.930 . S
C718 C694 1.431 . S
C718 C717 1.317 . S
C719 Gd660 2.828 . S
C719 O704 1.258 . S
C719 O709 1.252 . S
C719 C720 1.497 . S
C720 C719 1.497 . S
C720 C721 1.395 . S
C720 C722 1.380 1_655 S
C721 C720 1.395 . S
C721 C724 1.398 . S
C721 H736 0.930 . S
C722 C720 1.380 1_455 S
C722 C723 1.391 . S
C722 H737 0.930 . S
C723 C722 1.391 . S
C723 C725 1.387 1_455 S
C724 C721 1.398 . S
C724 C725 1.380 . S
C724 H738 0.930 . S
C725 C723 1.387 1_655 S
C725 C724 1.380 . S
C725 H739 0.930 . S
C726 O706 1.254 . S
C726 O707 1.268 1_556 S
C727 O711 1.337 . S
C727 O714 1.250 . S
C728 Gd661 2.828 . S
C728 O710 1.258 . S
C728 O715 1.252 . S
C728 C729 1.497 . S
C729 C728 1.497 . S
C729 C730 1.395 . S
C729 C731 1.380 1_455 S
C730 C729 1.395 . S
C730 C733 1.398 . S
C730 H740 0.930 . S
C731 C729 1.380 1_655 S
C731 C732 1.391 . S
C731 H741 0.930 . S
C732 C731 1.391 . S
C732 C734 1.387 1_655 S
C733 C730 1.398 . S
C733 C734 1.380 . S
C733 H742 0.930 . S
C734 C732 1.387 1_455 S
C734 C733 1.380 . S
C734 H743 0.930 . S
C735 O712 1.254 . S
C735 O713 1.268 1_554 S
H736 C721 0.930 . S
H737 C722 0.930 . S
H738 C724 0.930 . S
H739 C725 0.930 . S
H740 C730 0.930 . S
H741 C731 0.930 . S
H742 C733 0.930 . S
H743 C734 0.930 . S
Gd744 N775 2.661 . S
Gd744 N781 2.601 . S
Gd744 O788 2.545 . S
Gd744 O789 2.606 . S
Gd744 O791 2.429 . S
Gd744 O792 2.545 . S
Gd744 O793 2.412 . S
Gd744 O795 2.362 1_556 S
Gd744 O796 2.324 . S
Gd744 C803 2.828 . S
Gd745 N754 2.661 . S
Gd745 N758 2.601 . S
Gd745 O789 2.362 1_554 S
Gd745 O790 2.324 . S
Gd745 O794 2.545 . S
Gd745 O795 2.606 . S
Gd745 O797 2.429 . S
Gd745 O798 2.545 . S
Gd745 O799 2.412 . S
Gd745 C812 2.828 . S
C746 C749 1.417 . S
C746 C751 1.431 . S
C746 C752 1.412 . S
C747 C750 1.437 . S
C747 C751 1.317 . S
C747 H766 0.929 . S
C748 C749 1.426 . S
C748 C750 1.413 . S
C748 N758 1.359 . S
C749 C746 1.417 . S
C749 C748 1.426 . S
C749 N754 1.350 . S
C750 C747 1.437 . S
C750 C748 1.413 . S
C750 C760 1.391 . S
C751 C746 1.431 . S
C751 C747 1.317 . S
C751 H762 0.930 . S
C752 C746 1.412 . S
C752 C753 1.355 . S
C752 H764 0.930 . S
C753 C752 1.355 . S
C753 C755 1.402 . S
C753 H765 0.930 . S
N754 Gd745 2.661 . S
N754 C749 1.350 . S
N754 C755 1.307 . S
C755 C753 1.402 . S
C755 N754 1.307 . S
C755 H756 0.930 . S
H756 C755 0.930 . S
C757 N758 1.334 . S
C757 C759 1.394 . S
C757 H761 0.930 . S
N758 Gd745 2.601 . S
N758 C748 1.359 . S
N758 C757 1.334 . S
C759 C757 1.394 . S
C759 C760 1.359 . S
C759 H771 0.930 . S
C760 C750 1.391 . S
C760 C759 1.359 . S
C760 H772 0.929 . S
H761 C757 0.930 . S
H762 C751 0.930 . S
H763 C780 0.930 . S
H764 C752 0.930 . S
H765 C753 0.930 . S
H766 C747 0.929 . S
H767 C785 0.930 . S
H768 C776 0.930 . S
H769 C777 0.930 . S
H770 C801 0.929 . S
H771 C759 0.930 . S
H772 C760 0.929 . S
H773 C802 0.930 . S
H774 C783 0.930 . S
N775 Gd744 2.661 . S
N775 C779 1.350 . S
N775 C780 1.307 . S
C776 H768 0.930 . S
C776 C777 1.355 . S
C776 C778 1.412 . S
C777 H769 0.930 . S
C777 C776 1.355 . S
C777 C780 1.402 . S
C778 C776 1.412 . S
C778 C779 1.417 . S
C778 C802 1.431 . S
C779 N775 1.350 . S
C779 C778 1.417 . S
C779 C782 1.426 . S
C780 H763 0.930 . S
C780 N775 1.307 . S
C780 C777 1.402 . S
N781 Gd744 2.601 . S
N781 C782 1.359 . S
N781 C785 1.334 . S
C782 C779 1.426 . S
C782 N781 1.359 . S
C782 C786 1.413 . S
C783 H774 0.930 . S
C783 C784 1.359 . S
C783 C785 1.394 . S
C784 C783 1.359 . S
C784 C786 1.391 . S
C784 H787 0.929 . S
C785 H767 0.930 . S
C785 N781 1.334 . S
C785 C783 1.394 . S
C786 C782 1.413 . S
C786 C784 1.391 . S
C786 C801 1.437 . S
H787 C784 0.929 . S
O788 Gd744 2.545 . S
O788 C803 1.258 . S
O789 Gd744 2.606 . S
O789 Gd745 2.362 1_556 S
O789 C800 1.284 . S
O790 Gd745 2.324 . S
O790 C810 1.254 . S
O791 Gd744 2.429 . S
O791 C810 1.268 1_556 S
O792 Gd744 2.545 . S
O792 C800 1.250 . S
O793 Gd744 2.412 . S
O793 C803 1.252 . S
O794 Gd745 2.545 . S
O794 C812 1.258 . S
O795 Gd744 2.362 1_554 S
O795 Gd745 2.606 . S
O795 C811 1.284 . S
O796 Gd744 2.324 . S
O796 C819 1.254 . S
O797 Gd745 2.429 . S
O797 C819 1.268 1_554 S
O798 Gd745 2.545 . S
O798 C811 1.250 . S
O799 Gd745 2.412 . S
O799 C812 1.252 . S
C800 O789 1.284 . S
C800 O792 1.250 . S
C801 H770 0.929 . S
C801 C786 1.437 . S
C801 C802 1.317 . S
C802 H773 0.930 . S
C802 C778 1.431 . S
C802 C801 1.317 . S
C803 Gd744 2.828 . S
C803 O788 1.258 . S
C803 O793 1.252 . S
C803 C804 1.497 . S
C804 C803 1.497 . S
C804 C805 1.395 . S
C804 C806 1.380 . S
C805 C804 1.395 . S
C805 C808 1.398 . S
C805 H820 0.930 . S
C806 C804 1.380 . S
C806 C807 1.391 . S
C806 H821 0.930 . S
C807 C806 1.391 . S
C807 C809 1.387 . S
C808 C805 1.398 . S
C808 C809 1.380 . S
C808 H822 0.930 . S
C809 C807 1.387 . S
C809 C808 1.380 . S
C809 H823 0.930 . S
C810 O790 1.254 . S
C810 O791 1.268 1_554 S
C811 O795 1.284 . S
C811 O798 1.250 . S
C812 Gd745 2.828 . S
C812 O794 1.258 . S
C812 O799 1.252 . S
C812 C813 1.497 . S
C813 C812 1.497 . S
C813 C814 1.395 . S
C813 C815 1.380 . S
C814 C813 1.395 . S
C814 C817 1.398 . S
C814 H824 0.930 . S
C815 C813 1.380 . S
C815 C816 1.391 . S
C815 H825 0.930 . S
C816 C815 1.391 . S
C816 C818 1.387 . S
C817 C814 1.398 . S
C817 C818 1.380 . S
C817 H826 0.930 . S
C818 C816 1.387 . S
C818 C817 1.380 . S
C818 H827 0.930 . S
C819 O796 1.254 . S
C819 O797 1.268 1_556 S
H820 C805 0.930 . S
H821 C806 0.930 . S
H822 C808 0.930 . S
H823 C809 0.930 . S
H824 C814 0.930 . S
H825 C815 0.930 . S
H826 C817 0.930 . S
H827 C818 0.930 . S
Gd828 N859 2.661 . S
Gd828 N865 2.601 . S
Gd828 O872 2.545 . S
Gd828 O873 2.606 . S
Gd828 O875 2.429 . S
Gd828 O876 2.545 . S
Gd828 O877 2.412 . S
Gd828 O879 2.362 . S
Gd828 O880 2.324 . S
Gd828 C887 2.828 . S
Gd829 N838 2.661 . S
Gd829 N842 2.601 . S
Gd829 O873 2.362 . S
Gd829 O874 2.324 . S
Gd829 O878 2.545 . S
Gd829 O879 2.606 . S
Gd829 O881 2.429 . S
Gd829 O882 2.545 . S
Gd829 O883 2.412 . S
Gd829 C896 2.828 . S
C830 C833 1.417 . S
C830 C835 1.431 . S
C830 C836 1.412 . S
C831 C834 1.437 . S
C831 C835 1.317 . S
C831 H850 0.929 . S
C832 C833 1.426 . S
C832 C834 1.413 . S
C832 N842 1.359 . S
C833 C830 1.417 . S
C833 C832 1.426 . S
C833 N838 1.350 . S
C834 C831 1.437 . S
C834 C832 1.413 . S
C834 C844 1.391 . S
C835 C830 1.431 . S
C835 C831 1.317 . S
C835 H846 0.930 . S
C836 C830 1.412 . S
C836 C837 1.355 . S
C836 H848 0.930 . S
C837 C836 1.355 . S
C837 C839 1.402 . S
C837 H849 0.930 . S
N838 Gd829 2.661 . S
N838 C833 1.350 . S
N838 C839 1.307 . S
C839 C837 1.402 . S
C839 N838 1.307 . S
C839 H840 0.930 . S
H840 C839 0.930 . S
C841 N842 1.334 . S
C841 C843 1.394 . S
C841 H845 0.930 . S
N842 Gd829 2.601 . S
N842 C832 1.359 . S
N842 C841 1.334 . S
C843 C841 1.394 . S
C843 C844 1.359 . S
C843 H855 0.930 . S
C844 C834 1.391 . S
C844 C843 1.359 . S
C844 H856 0.929 . S
H845 C841 0.930 . S
H846 C835 0.930 . S
H847 C864 0.930 . S
H848 C836 0.930 . S
H849 C837 0.930 . S
H850 C831 0.929 . S
H851 C869 0.930 . S
H852 C860 0.930 . S
H853 C861 0.930 . S
H854 C885 0.929 . S
H855 C843 0.930 . S
H856 C844 0.929 . S
H857 C886 0.930 . S
H858 C867 0.930 . S
N859 Gd828 2.661 . S
N859 C863 1.350 . S
N859 C864 1.307 . S
C860 H852 0.930 . S
C860 C861 1.355 . S
C860 C862 1.412 . S
C861 H853 0.930 . S
C861 C860 1.355 . S
C861 C864 1.402 . S
C862 C860 1.412 . S
C862 C863 1.417 . S
C862 C886 1.431 . S
C863 N859 1.350 . S
C863 C862 1.417 . S
C863 C866 1.426 . S
C864 H847 0.930 . S
C864 N859 1.307 . S
C864 C861 1.402 . S
N865 Gd828 2.601 . S
N865 C866 1.359 . S
N865 C869 1.334 . S
C866 C863 1.426 . S
C866 N865 1.359 . S
C866 C870 1.413 . S
C867 H858 0.930 . S
C867 C868 1.359 . S
C867 C869 1.394 . S
C868 C867 1.359 . S
C868 C870 1.391 . S
C868 H871 0.929 . S
C869 H851 0.930 . S
C869 N865 1.334 . S
C869 C867 1.394 . S
C870 C866 1.413 . S
C870 C868 1.391 . S
C870 C885 1.437 . S
H871 C868 0.929 . S
O872 Gd828 2.545 . S
O872 C887 1.258 . S
O873 Gd828 2.606 . S
O873 Gd829 2.362 . S
O873 C884 1.284 . S
O874 Gd829 2.324 . S
O874 C894 1.254 . S
O875 Gd828 2.429 . S
O875 C894 1.268 . S
O876 Gd828 2.545 . S
O876 C884 1.250 . S
O877 Gd828 2.412 . S
O877 C887 1.252 . S
O878 Gd829 2.545 . S
O878 C896 1.258 . S
O879 Gd828 2.362 . S
O879 Gd829 2.606 . S
O879 C895 1.284 . S
O880 Gd828 2.324 . S
O880 C903 1.254 . S
O881 Gd829 2.429 . S
O881 C903 1.268 . S
O882 Gd829 2.545 . S
O882 C895 1.250 . S
O883 Gd829 2.412 . S
O883 C896 1.252 . S
C884 O873 1.284 . S
C884 O876 1.250 . S
C885 H854 0.929 . S
C885 C870 1.437 . S
C885 C886 1.317 . S
C886 H857 0.930 . S
C886 C862 1.431 . S
C886 C885 1.317 . S
C887 Gd828 2.828 . S
C887 O872 1.258 . S
C887 O877 1.252 . S
C887 C888 1.497 . S
C888 C887 1.497 . S
C888 C889 1.395 . S
C888 C890 1.380 . S
C889 C888 1.395 . S
C889 C892 1.398 . S
C889 H904 0.930 . S
C890 C888 1.380 . S
C890 C891 1.391 . S
C890 H905 0.930 . S
C891 C890 1.391 . S
C891 C893 1.387 . S
C892 C889 1.398 . S
C892 C893 1.380 . S
C892 H906 0.930 . S
C893 C891 1.387 . S
C893 C892 1.380 . S
C893 H907 0.930 . S
C894 O874 1.254 . S
C894 O875 1.268 . S
C895 O879 1.284 . S
C895 O882 1.250 . S
C896 Gd829 2.828 . S
C896 O878 1.258 . S
C896 O883 1.252 . S
C896 C897 1.497 . S
C897 C896 1.497 . S
C897 C898 1.395 . S
C897 C899 1.380 . S
C898 C897 1.395 . S
C898 C901 1.398 . S
C898 H908 0.930 . S
C899 C897 1.380 . S
C899 C900 1.391 . S
C899 H909 0.930 . S
C900 C899 1.391 . S
C900 C902 1.387 . S
C901 C898 1.398 . S
C901 C902 1.380 . S
C901 H910 0.930 . S
C902 C900 1.387 . S
C902 C901 1.380 . S
C902 H911 0.930 . S
C903 O880 1.254 . S
C903 O881 1.268 . S
H904 C889 0.930 . S
H905 C890 0.930 . S
H906 C892 0.930 . S
H907 C893 0.930 . S
H908 C898 0.930 . S
H909 C899 0.930 . S
H910 C901 0.930 . S
H911 C902 0.930 . S
Gd912 N943 2.661 . S
Gd912 N949 2.601 . S
Gd912 O956 2.545 . S
Gd912 O957 2.606 . S
Gd912 O959 2.429 . S
Gd912 O960 2.545 . S
Gd912 O961 2.412 . S
Gd912 O963 2.362 . S
Gd912 O964 2.324 . S
Gd912 C971 2.828 . S
Gd913 N922 2.661 . S
Gd913 N926 2.601 . S
Gd913 O957 2.362 . S
Gd913 O958 2.324 . S
Gd913 O962 2.545 . S
Gd913 O963 2.606 . S
Gd913 O965 2.429 . S
Gd913 O966 2.545 . S
Gd913 O967 2.412 . S
Gd913 C980 2.828 . S
C914 C917 1.417 . S
C914 C919 1.431 . S
C914 C920 1.412 . S
C915 C918 1.437 . S
C915 C919 1.317 . S
C915 H934 0.929 . S
C916 C917 1.426 . S
C916 C918 1.413 . S
C916 N926 1.359 . S
C917 C914 1.417 . S
C917 C916 1.426 . S
C917 N922 1.350 . S
C918 C915 1.437 . S
C918 C916 1.413 . S
C918 C928 1.391 . S
C919 C914 1.431 . S
C919 C915 1.317 . S
C919 H930 0.930 . S
C920 C914 1.412 . S
C920 C921 1.355 . S
C920 H932 0.930 . S
C921 C920 1.355 . S
C921 C923 1.402 . S
C921 H933 0.930 . S
N922 Gd913 2.661 . S
N922 C917 1.350 . S
N922 C923 1.307 . S
C923 C921 1.402 . S
C923 N922 1.307 . S
C923 H924 0.930 . S
H924 C923 0.930 . S
C925 N926 1.334 . S
C925 C927 1.394 . S
C925 H929 0.930 . S
N926 Gd913 2.601 . S
N926 C916 1.359 . S
N926 C925 1.334 . S
C927 C925 1.394 . S
C927 C928 1.359 . S
C927 H939 0.930 . S
C928 C918 1.391 . S
C928 C927 1.359 . S
C928 H940 0.929 . S
H929 C925 0.930 . S
H930 C919 0.930 . S
H931 C948 0.930 . S
H932 C920 0.930 . S
H933 C921 0.930 . S
H934 C915 0.929 . S
H935 C953 0.930 . S
H936 C944 0.930 . S
H937 C945 0.930 . S
H938 C969 0.929 . S
H939 C927 0.930 . S
H940 C928 0.929 . S
H941 C970 0.930 . S
H942 C951 0.930 . S
N943 Gd912 2.661 . S
N943 C947 1.350 . S
N943 C948 1.307 . S
C944 H936 0.930 . S
C944 C945 1.355 . S
C944 C946 1.412 . S
C945 H937 0.930 . S
C945 C944 1.355 . S
C945 C948 1.402 . S
C946 C944 1.412 . S
C946 C947 1.417 . S
C946 C970 1.431 . S
C947 N943 1.350 . S
C947 C946 1.417 . S
C947 C950 1.426 . S
C948 H931 0.930 . S
C948 N943 1.307 . S
C948 C945 1.402 . S
N949 Gd912 2.601 . S
N949 C950 1.359 . S
N949 C953 1.334 . S
C950 C947 1.426 . S
C950 N949 1.359 . S
C950 C954 1.413 . S
C951 H942 0.930 . S
C951 C952 1.359 . S
C951 C953 1.394 . S
C952 C951 1.359 . S
C952 C954 1.391 . S
C952 H955 0.929 . S
C953 H935 0.930 . S
C953 N949 1.334 . S
C953 C951 1.394 . S
C954 C950 1.413 . S
C954 C952 1.391 . S
C954 C969 1.437 . S
H955 C952 0.929 . S
O956 Gd912 2.545 . S
O956 C971 1.258 . S
O957 Gd912 2.606 . S
O957 Gd913 2.362 . S
O957 C968 1.284 . S
O958 Gd913 2.324 . S
O958 C978 1.254 . S
O959 Gd912 2.429 . S
O959 C978 1.268 . S
O960 Gd912 2.545 . S
O960 C968 1.250 . S
O961 Gd912 2.412 . S
O961 C971 1.252 . S
O962 Gd913 2.545 . S
O962 C980 1.258 . S
O963 Gd912 2.362 . S
O963 Gd913 2.606 . S
O963 C979 1.284 . S
O964 Gd912 2.324 . S
O964 C987 1.254 . S
O965 Gd913 2.429 . S
O965 C987 1.268 . S
O966 Gd913 2.545 . S
O966 C979 1.250 . S
O967 Gd913 2.412 . S
O967 C980 1.252 . S
C968 O957 1.284 . S
C968 O960 1.250 . S
C969 H938 0.929 . S
C969 C954 1.437 . S
C969 C970 1.317 . S
C970 H941 0.930 . S
C970 C946 1.431 . S
C970 C969 1.317 . S
C971 Gd912 2.828 . S
C971 O956 1.258 . S
C971 O961 1.252 . S
C971 C972 1.497 . S
C972 C971 1.497 . S
C972 C973 1.395 . S
C972 C974 1.380 . S
C973 C972 1.395 . S
C973 C976 1.398 . S
C973 H988 0.930 . S
C974 C972 1.380 . S
C974 C975 1.391 . S
C974 H989 0.930 . S
C975 C974 1.391 . S
C975 C977 1.387 . S
C976 C973 1.398 . S
C976 C977 1.380 . S
C976 H990 0.930 . S
C977 C975 1.387 . S
C977 C976 1.380 . S
C977 H991 0.930 . S
C978 O958 1.254 . S
C978 O959 1.268 . S
C979 O963 1.284 . S
C979 O966 1.250 . S
C980 Gd913 2.828 . S
C980 O962 1.258 . S
C980 O967 1.252 . S
C980 C981 1.497 . S
C981 C980 1.497 . S
C981 C982 1.395 . S
C981 C983 1.380 . S
C982 C981 1.395 . S
C982 C985 1.398 . S
C982 H992 0.930 . S
C983 C981 1.380 . S
C983 C984 1.391 . S
C983 H993 0.930 . S
C984 C983 1.391 . S
C984 C986 1.387 . S
C985 C982 1.398 . S
C985 C986 1.380 . S
C985 H994 0.930 . S
C986 C984 1.387 . S
C986 C985 1.380 . S
C986 H995 0.930 . S
C987 O964 1.254 . S
C987 O965 1.268 . S
H988 C973 0.930 . S
H989 C974 0.930 . S
H990 C976 0.930 . S
H991 C977 0.930 . S
H992 C982 0.930 . S
H993 C983 0.930 . S
H994 C985 0.930 . S
H995 C986 0.930 . S
Gd996 N1027 2.661 . S
Gd996 N1033 2.601 . S
Gd996 O1040 2.545 . S
Gd996 O1041 2.606 . S
Gd996 O1043 2.429 . S
Gd996 O1044 2.545 . S
Gd996 O1045 2.412 . S
Gd996 O1047 2.362 . S
Gd996 O1048 2.324 . S
Gd996 C1055 2.828 . S
Gd997 N1006 2.661 . S
Gd997 N1010 2.601 . S
Gd997 O1041 2.362 . S
Gd997 O1042 2.324 . S
Gd997 O1046 2.545 . S
Gd997 O1047 2.606 . S
Gd997 O1049 2.429 . S
Gd997 O1050 2.545 . S
Gd997 O1051 2.412 . S
Gd997 C1064 2.828 . S
C998 C1001 1.417 . S
C998 C1003 1.431 . S
C998 C1004 1.412 . S
C999 C1002 1.437 . S
C999 C1003 1.317 . S
C999 H1018 0.929 . S
C1000 C1001 1.426 . S
C1000 C1002 1.413 . S
C1000 N1010 1.359 . S
C1001 C998 1.417 . S
C1001 C1000 1.426 . S
C1001 N1006 1.350 . S
C1002 C999 1.437 . S
C1002 C1000 1.413 . S
C1002 C1012 1.391 . S
C1003 C998 1.431 . S
C1003 C999 1.317 . S
C1003 H1014 0.930 . S
C1004 C998 1.412 . S
C1004 C1005 1.355 . S
C1004 H1016 0.930 . S
C1005 C1004 1.355 . S
C1005 C1007 1.402 . S
C1005 H1017 0.930 . S
N1006 Gd997 2.661 . S
N1006 C1001 1.350 . S
N1006 C1007 1.307 . S
C1007 C1005 1.402 . S
C1007 N1006 1.307 . S
C1007 H1008 0.930 . S
H1008 C1007 0.930 . S
C1009 N1010 1.334 . S
C1009 C1011 1.394 . S
C1009 H1013 0.930 . S
N1010 Gd997 2.601 . S
N1010 C1000 1.359 . S
N1010 C1009 1.334 . S
C1011 C1009 1.394 . S
C1011 C1012 1.359 . S
C1011 H1023 0.930 . S
C1012 C1002 1.391 . S
C1012 C1011 1.359 . S
C1012 H1024 0.929 . S
H1013 C1009 0.930 . S
H1014 C1003 0.930 . S
H1015 C1032 0.930 . S
H1016 C1004 0.930 . S
H1017 C1005 0.930 . S
H1018 C999 0.929 . S
H1019 C1037 0.930 . S
H1020 C1028 0.930 . S
H1021 C1029 0.930 . S
H1022 C1053 0.929 . S
H1023 C1011 0.930 . S
H1024 C1012 0.929 . S
H1025 C1054 0.930 . S
H1026 C1035 0.930 . S
N1027 Gd996 2.661 . S
N1027 C1031 1.350 . S
N1027 C1032 1.307 . S
C1028 H1020 0.930 . S
C1028 C1029 1.355 . S
C1028 C1030 1.412 . S
C1029 H1021 0.930 . S
C1029 C1028 1.355 . S
C1029 C1032 1.402 . S
C1030 C1028 1.412 . S
C1030 C1031 1.417 . S
C1030 C1054 1.431 . S
C1031 N1027 1.350 . S
C1031 C1030 1.417 . S
C1031 C1034 1.426 . S
C1032 H1015 0.930 . S
C1032 N1027 1.307 . S
C1032 C1029 1.402 . S
N1033 Gd996 2.601 . S
N1033 C1034 1.359 . S
N1033 C1037 1.334 . S
C1034 C1031 1.426 . S
C1034 N1033 1.359 . S
C1034 C1038 1.413 . S
C1035 H1026 0.930 . S
C1035 C1036 1.359 . S
C1035 C1037 1.394 . S
C1036 C1035 1.359 . S
C1036 C1038 1.391 . S
C1036 H1039 0.929 . S
C1037 H1019 0.930 . S
C1037 N1033 1.334 . S
C1037 C1035 1.394 . S
C1038 C1034 1.413 . S
C1038 C1036 1.391 . S
C1038 C1053 1.437 . S
H1039 C1036 0.929 . S
O1040 Gd996 2.545 . S
O1040 C1055 1.258 . S
O1041 Gd996 2.606 . S
O1041 Gd997 2.362 . S
O1041 C1052 1.284 . S
O1042 Gd997 2.324 . S
O1042 C1062 1.254 . S
O1043 Gd996 2.429 . S
O1043 C1062 1.268 . S
O1044 Gd996 2.545 . S
O1044 C1052 1.250 . S
O1045 Gd996 2.412 . S
O1045 C1055 1.252 . S
O1046 Gd997 2.545 . S
O1046 C1064 1.258 . S
O1047 Gd996 2.362 . S
O1047 Gd997 2.606 . S
O1047 C1063 1.284 . S
O1048 Gd996 2.324 . S
O1048 C1071 1.254 . S
O1049 Gd997 2.429 . S
O1049 C1071 1.268 . S
O1050 Gd997 2.545 . S
O1050 C1063 1.250 . S
O1051 Gd997 2.412 . S
O1051 C1064 1.252 . S
C1052 O1041 1.284 . S
C1052 O1044 1.250 . S
C1053 H1022 0.929 . S
C1053 C1038 1.437 . S
C1053 C1054 1.317 . S
C1054 H1025 0.930 . S
C1054 C1030 1.431 . S
C1054 C1053 1.317 . S
C1055 Gd996 2.828 . S
C1055 O1040 1.258 . S
C1055 O1045 1.252 . S
C1055 C1056 1.497 . S
C1056 C1055 1.497 . S
C1056 C1057 1.395 . S
C1056 C1058 1.380 . S
C1057 C1056 1.395 . S
C1057 C1060 1.398 . S
C1057 H1072 0.930 . S
C1058 C1056 1.380 . S
C1058 C1059 1.391 . S
C1058 H1073 0.930 . S
C1059 C1058 1.391 . S
C1059 C1061 1.387 . S
C1060 C1057 1.398 . S
C1060 C1061 1.380 . S
C1060 H1074 0.930 . S
C1061 C1059 1.387 . S
C1061 C1060 1.380 . S
C1061 H1075 0.930 . S
C1062 O1042 1.254 . S
C1062 O1043 1.268 . S
C1063 O1047 1.284 . S
C1063 O1050 1.250 . S
C1064 Gd997 2.828 . S
C1064 O1046 1.258 . S
C1064 O1051 1.252 . S
C1064 C1065 1.497 . S
C1065 C1064 1.497 . S
C1065 C1066 1.395 . S
C1065 C1067 1.380 . S
C1066 C1065 1.395 . S
C1066 C1069 1.398 . S
C1066 H1076 0.930 . S
C1067 C1065 1.380 . S
C1067 C1068 1.391 . S
C1067 H1077 0.930 . S
C1068 C1067 1.391 . S
C1068 C1070 1.387 . S
C1069 C1066 1.398 . S
C1069 C1070 1.380 . S
C1069 H1078 0.930 . S
C1070 C1068 1.387 . S
C1070 C1069 1.380 . S
C1070 H1079 0.930 . S
C1071 O1048 1.254 . S
C1071 O1049 1.268 . S
H1072 C1057 0.930 . S
H1073 C1058 0.930 . S
H1074 C1060 0.930 . S
H1075 C1061 0.930 . S
H1076 C1066 0.930 . S
H1077 C1067 0.930 . S
H1078 C1069 0.930 . S
H1079 C1070 0.930 . S
Gd1080 N1111 2.661 . S
Gd1080 N1117 2.601 . S
Gd1080 O1124 2.545 . S
Gd1080 O1125 2.606 . S
Gd1080 O1127 2.429 . S
Gd1080 O1128 2.545 . S
Gd1080 O1129 2.412 . S
Gd1080 O1131 2.362 . S
Gd1080 O1132 2.324 . S
Gd1080 C1139 2.828 . S
Gd1081 N1090 2.661 . S
Gd1081 N1094 2.601 . S
Gd1081 O1125 2.362 . S
Gd1081 O1126 2.324 . S
Gd1081 O1130 2.545 . S
Gd1081 O1131 2.606 . S
Gd1081 O1133 2.429 . S
Gd1081 O1134 2.545 . S
Gd1081 O1135 2.412 . S
Gd1081 C1148 2.828 . S
C1082 C1085 1.417 . S
C1082 C1087 1.431 . S
C1082 C1088 1.412 . S
C1083 C1086 1.437 . S
C1083 C1087 1.317 . S
C1083 H1102 0.929 . S
C1084 C1085 1.426 . S
C1084 C1086 1.413 . S
C1084 N1094 1.359 . S
C1085 C1082 1.417 . S
C1085 C1084 1.426 . S
C1085 N1090 1.350 . S
C1086 C1083 1.437 . S
C1086 C1084 1.413 . S
C1086 C1096 1.391 . S
C1087 C1082 1.431 . S
C1087 C1083 1.317 . S
C1087 H1098 0.930 . S
C1088 C1082 1.412 . S
C1088 C1089 1.355 . S
C1088 H1100 0.930 . S
C1089 C1088 1.355 . S
C1089 C1091 1.402 . S
C1089 H1101 0.930 . S
N1090 Gd1081 2.661 . S
N1090 C1085 1.350 . S
N1090 C1091 1.307 . S
C1091 C1089 1.402 . S
C1091 N1090 1.307 . S
C1091 H1092 0.930 . S
H1092 C1091 0.930 . S
C1093 N1094 1.334 . S
C1093 C1095 1.394 . S
C1093 H1097 0.930 . S
N1094 Gd1081 2.601 . S
N1094 C1084 1.359 . S
N1094 C1093 1.334 . S
C1095 C1093 1.394 . S
C1095 C1096 1.359 . S
C1095 H1107 0.930 . S
C1096 C1086 1.391 . S
C1096 C1095 1.359 . S
C1096 H1108 0.929 . S
H1097 C1093 0.930 . S
H1098 C1087 0.930 . S
H1099 C1116 0.930 . S
H1100 C1088 0.930 . S
H1101 C1089 0.930 . S
H1102 C1083 0.929 . S
H1103 C1121 0.930 . S
H1104 C1112 0.930 . S
H1105 C1113 0.930 . S
H1106 C1137 0.929 . S
H1107 C1095 0.930 . S
H1108 C1096 0.929 . S
H1109 C1138 0.930 . S
H1110 C1119 0.930 . S
N1111 Gd1080 2.661 . S
N1111 C1115 1.350 . S
N1111 C1116 1.307 . S
C1112 H1104 0.930 . S
C1112 C1113 1.355 . S
C1112 C1114 1.412 . S
C1113 H1105 0.930 . S
C1113 C1112 1.355 . S
C1113 C1116 1.402 . S
C1114 C1112 1.412 . S
C1114 C1115 1.417 . S
C1114 C1138 1.431 . S
C1115 N1111 1.350 . S
C1115 C1114 1.417 . S
C1115 C1118 1.426 . S
C1116 H1099 0.930 . S
C1116 N1111 1.307 . S
C1116 C1113 1.402 . S
N1117 Gd1080 2.601 . S
N1117 C1118 1.359 . S
N1117 C1121 1.334 . S
C1118 C1115 1.426 . S
C1118 N1117 1.359 . S
C1118 C1122 1.413 . S
C1119 H1110 0.930 . S
C1119 C1120 1.359 . S
C1119 C1121 1.394 . S
C1120 C1119 1.359 . S
C1120 C1122 1.391 . S
C1120 H1123 0.929 . S
C1121 H1103 0.930 . S
C1121 N1117 1.334 . S
C1121 C1119 1.394 . S
C1122 C1118 1.413 . S
C1122 C1120 1.391 . S
C1122 C1137 1.437 . S
H1123 C1120 0.929 . S
O1124 Gd1080 2.545 . S
O1124 C1139 1.258 . S
O1125 Gd1080 2.606 . S
O1125 Gd1081 2.362 . S
O1125 C1136 1.284 . S
O1126 Gd1081 2.324 . S
O1126 C1146 1.254 . S
O1127 Gd1080 2.429 . S
O1127 C1146 1.268 . S
O1128 Gd1080 2.545 . S
O1128 C1136 1.250 . S
O1129 Gd1080 2.412 . S
O1129 C1139 1.252 . S
O1130 Gd1081 2.545 . S
O1130 C1148 1.258 . S
O1131 Gd1080 2.362 . S
O1131 Gd1081 2.606 . S
O1131 C1147 1.284 . S
O1132 Gd1080 2.324 . S
O1132 C1155 1.254 . S
O1133 Gd1081 2.429 . S
O1133 C1155 1.268 . S
O1134 Gd1081 2.545 . S
O1134 C1147 1.250 . S
O1135 Gd1081 2.412 . S
O1135 C1148 1.252 . S
C1136 O1125 1.284 . S
C1136 O1128 1.250 . S
C1137 H1106 0.929 . S
C1137 C1122 1.437 . S
C1137 C1138 1.317 . S
C1138 H1109 0.930 . S
C1138 C1114 1.431 . S
C1138 C1137 1.317 . S
C1139 Gd1080 2.828 . S
C1139 O1124 1.258 . S
C1139 O1129 1.252 . S
C1139 C1140 1.497 . S
C1140 C1139 1.497 . S
C1140 C1141 1.395 . S
C1140 C1142 1.380 . S
C1141 C1140 1.395 . S
C1141 C1144 1.398 . S
C1141 H1156 0.930 . S
C1142 C1140 1.380 . S
C1142 C1143 1.391 . S
C1142 H1157 0.930 . S
C1143 C1142 1.391 . S
C1143 C1145 1.387 . S
C1144 C1141 1.398 . S
C1144 C1145 1.380 . S
C1144 H1158 0.930 . S
C1145 C1143 1.387 . S
C1145 C1144 1.380 . S
C1145 H1159 0.930 . S
C1146 O1126 1.254 . S
C1146 O1127 1.268 . S
C1147 O1131 1.284 . S
C1147 O1134 1.250 . S
C1148 Gd1081 2.828 . S
C1148 O1130 1.258 . S
C1148 O1135 1.252 . S
C1148 C1149 1.497 . S
C1149 C1148 1.497 . S
C1149 C1150 1.395 . S
C1149 C1151 1.380 . S
C1150 C1149 1.395 . S
C1150 C1153 1.398 . S
C1150 H1160 0.930 . S
C1151 C1149 1.380 . S
C1151 C1152 1.391 . S
C1151 H1161 0.930 . S
C1152 C1151 1.391 . S
C1152 C1154 1.387 . S
C1153 C1150 1.398 . S
C1153 C1154 1.380 . S
C1153 H1162 0.930 . S
C1154 C1152 1.387 . S
C1154 C1153 1.380 . S
C1154 H1163 0.930 . S
C1155 O1132 1.254 . S
C1155 O1133 1.268 . S
H1156 C1141 0.930 . S
H1157 C1142 0.930 . S
H1158 C1144 0.930 . S
H1159 C1145 0.930 . S
H1160 C1150 0.930 . S
H1161 C1151 0.930 . S
H1162 C1153 0.930 . S
H1163 C1154 0.930 . S
Gd1164 N1195 2.661 . S
Gd1164 N1201 2.601 . S
Gd1164 O1208 2.545 . S
Gd1164 O1209 2.606 . S
Gd1164 O1211 2.429 . S
Gd1164 O1212 2.545 . S
Gd1164 O1213 2.412 . S
Gd1164 O1215 2.362 . S
Gd1164 O1216 2.324 . S
Gd1164 C1223 2.828 . S
Gd1165 N1174 2.661 . S
Gd1165 N1178 2.601 . S
Gd1165 O1209 2.362 . S
Gd1165 O1210 2.324 . S
Gd1165 O1214 2.545 . S
Gd1165 O1215 2.606 . S
Gd1165 O1217 2.429 . S
Gd1165 O1218 2.545 . S
Gd1165 O1219 2.412 . S
Gd1165 C1232 2.828 . S
C1166 C1169 1.417 . S
C1166 C1171 1.431 . S
C1166 C1172 1.412 . S
C1167 C1170 1.437 . S
C1167 C1171 1.317 . S
C1167 H1186 0.929 . S
C1168 C1169 1.426 . S
C1168 C1170 1.413 . S
C1168 N1178 1.359 . S
C1169 C1166 1.417 . S
C1169 C1168 1.426 . S
C1169 N1174 1.350 . S
C1170 C1167 1.437 . S
C1170 C1168 1.413 . S
C1170 C1180 1.391 . S
C1171 C1166 1.431 . S
C1171 C1167 1.317 . S
C1171 H1182 0.930 . S
C1172 C1166 1.412 . S
C1172 C1173 1.355 . S
C1172 H1184 0.930 . S
C1173 C1172 1.355 . S
C1173 C1175 1.402 . S
C1173 H1185 0.930 . S
N1174 Gd1165 2.661 . S
N1174 C1169 1.350 . S
N1174 C1175 1.307 . S
C1175 C1173 1.402 . S
C1175 N1174 1.307 . S
C1175 H1176 0.930 . S
H1176 C1175 0.930 . S
C1177 N1178 1.334 . S
C1177 C1179 1.394 . S
C1177 H1181 0.930 . S
N1178 Gd1165 2.601 . S
N1178 C1168 1.359 . S
N1178 C1177 1.334 . S
C1179 C1177 1.394 . S
C1179 C1180 1.359 . S
C1179 H1191 0.930 . S
C1180 C1170 1.391 . S
C1180 C1179 1.359 . S
C1180 H1192 0.929 . S
H1181 C1177 0.930 . S
H1182 C1171 0.930 . S
H1183 C1200 0.930 . S
H1184 C1172 0.930 . S
H1185 C1173 0.930 . S
H1186 C1167 0.929 . S
H1187 C1205 0.930 . S
H1188 C1196 0.930 . S
H1189 C1197 0.930 . S
H1190 C1221 0.929 . S
H1191 C1179 0.930 . S
H1192 C1180 0.929 . S
H1193 C1222 0.930 . S
H1194 C1203 0.930 . S
N1195 Gd1164 2.661 . S
N1195 C1199 1.350 . S
N1195 C1200 1.307 . S
C1196 H1188 0.930 . S
C1196 C1197 1.355 . S
C1196 C1198 1.412 . S
C1197 H1189 0.930 . S
C1197 C1196 1.355 . S
C1197 C1200 1.402 . S
C1198 C1196 1.412 . S
C1198 C1199 1.417 . S
C1198 C1222 1.431 . S
C1199 N1195 1.350 . S
C1199 C1198 1.417 . S
C1199 C1202 1.426 . S
C1200 H1183 0.930 . S
C1200 N1195 1.307 . S
C1200 C1197 1.402 . S
N1201 Gd1164 2.601 . S
N1201 C1202 1.359 . S
N1201 C1205 1.334 . S
C1202 C1199 1.426 . S
C1202 N1201 1.359 . S
C1202 C1206 1.413 . S
C1203 H1194 0.930 . S
C1203 C1204 1.359 . S
C1203 C1205 1.394 . S
C1204 C1203 1.359 . S
C1204 C1206 1.391 . S
C1204 H1207 0.929 . S
C1205 H1187 0.930 . S
C1205 N1201 1.334 . S
C1205 C1203 1.394 . S
C1206 C1202 1.413 . S
C1206 C1204 1.391 . S
C1206 C1221 1.437 . S
H1207 C1204 0.929 . S
O1208 Gd1164 2.545 . S
O1208 C1223 1.258 . S
O1209 Gd1164 2.606 . S
O1209 Gd1165 2.362 . S
O1209 C1220 1.284 . S
O1210 Gd1165 2.324 . S
O1210 C1230 1.254 . S
O1211 Gd1164 2.429 . S
O1211 C1230 1.268 . S
O1212 Gd1164 2.545 . S
O1212 C1220 1.250 . S
O1213 Gd1164 2.412 . S
O1213 C1223 1.252 . S
O1214 Gd1165 2.545 . S
O1214 C1232 1.258 . S
O1215 Gd1164 2.362 . S
O1215 Gd1165 2.606 . S
O1215 C1231 1.284 . S
O1216 Gd1164 2.324 . S
O1216 C1239 1.254 . S
O1217 Gd1165 2.429 . S
O1217 C1239 1.268 . S
O1218 Gd1165 2.545 . S
O1218 C1231 1.250 . S
O1219 Gd1165 2.412 . S
O1219 C1232 1.252 . S
C1220 O1209 1.284 . S
C1220 O1212 1.250 . S
C1221 H1190 0.929 . S
C1221 C1206 1.437 . S
C1221 C1222 1.317 . S
C1222 H1193 0.930 . S
C1222 C1198 1.431 . S
C1222 C1221 1.317 . S
C1223 Gd1164 2.828 . S
C1223 O1208 1.258 . S
C1223 O1213 1.252 . S
C1223 C1224 1.497 . S
C1224 C1223 1.497 . S
C1224 C1225 1.395 . S
C1224 C1226 1.380 . S
C1225 C1224 1.395 . S
C1225 C1228 1.398 . S
C1225 H1240 0.930 . S
C1226 C1224 1.380 . S
C1226 C1227 1.391 . S
C1226 H1241 0.930 . S
C1227 C1226 1.391 . S
C1227 C1229 1.387 . S
C1228 C1225 1.398 . S
C1228 C1229 1.380 . S
C1228 H1242 0.930 . S
C1229 C1227 1.387 . S
C1229 C1228 1.380 . S
C1229 H1243 0.930 . S
C1230 O1210 1.254 . S
C1230 O1211 1.268 . S
C1231 O1215 1.284 . S
C1231 O1218 1.250 . S
C1232 Gd1165 2.828 . S
C1232 O1214 1.258 . S
C1232 O1219 1.252 . S
C1232 C1233 1.497 . S
C1233 C1232 1.497 . S
C1233 C1234 1.395 . S
C1233 C1235 1.380 . S
C1234 C1233 1.395 . S
C1234 C1237 1.398 . S
C1234 H1244 0.930 . S
C1235 C1233 1.380 . S
C1235 C1236 1.391 . S
C1235 H1245 0.930 . S
C1236 C1235 1.391 . S
C1236 C1238 1.387 . S
C1237 C1234 1.398 . S
C1237 C1238 1.380 . S
C1237 H1246 0.930 . S
C1238 C1236 1.387 . S
C1238 C1237 1.380 . S
C1238 H1247 0.930 . S
C1239 O1216 1.254 . S
C1239 O1217 1.268 . S
H1240 C1225 0.930 . S
H1241 C1226 0.930 . S
H1242 C1228 0.930 . S
H1243 C1229 0.930 . S
H1244 C1234 0.930 . S
H1245 C1235 0.930 . S
H1246 C1237 0.930 . S
H1247 C1238 0.930 . S
Gd1248 N1279 2.661 . S
Gd1248 N1285 2.601 . S
Gd1248 O1292 2.545 . S
Gd1248 O1293 2.606 . S
Gd1248 O1295 2.429 . S
Gd1248 O1296 2.545 . S
Gd1248 O1297 2.412 . S
Gd1248 O1299 2.362 . S
Gd1248 O1300 2.324 . S
Gd1248 C1307 2.828 . S
Gd1249 N1258 2.661 . S
Gd1249 N1262 2.601 . S
Gd1249 O1293 2.362 . S
Gd1249 O1294 2.324 . S
Gd1249 O1298 2.545 . S
Gd1249 O1299 2.606 . S
Gd1249 O1301 2.429 . S
Gd1249 O1302 2.545 . S
Gd1249 O1303 2.412 . S
Gd1249 C1316 2.828 . S
C1250 C1253 1.417 . S
C1250 C1255 1.431 . S
C1250 C1256 1.412 . S
C1251 C1254 1.437 . S
C1251 C1255 1.317 . S
C1251 H1270 0.929 . S
C1252 C1253 1.426 . S
C1252 C1254 1.413 . S
C1252 N1262 1.359 . S
C1253 C1250 1.417 . S
C1253 C1252 1.426 . S
C1253 N1258 1.350 . S
C1254 C1251 1.437 . S
C1254 C1252 1.413 . S
C1254 C1264 1.391 . S
C1255 C1250 1.431 . S
C1255 C1251 1.317 . S
C1255 H1266 0.930 . S
C1256 C1250 1.412 . S
C1256 C1257 1.355 . S
C1256 H1268 0.930 . S
C1257 C1256 1.355 . S
C1257 C1259 1.402 . S
C1257 H1269 0.930 . S
N1258 Gd1249 2.661 . S
N1258 C1253 1.350 . S
N1258 C1259 1.307 . S
C1259 C1257 1.402 . S
C1259 N1258 1.307 . S
C1259 H1260 0.930 . S
H1260 C1259 0.930 . S
C1261 N1262 1.334 . S
C1261 C1263 1.394 . S
C1261 H1265 0.930 . S
N1262 Gd1249 2.601 . S
N1262 C1252 1.359 . S
N1262 C1261 1.334 . S
C1263 C1261 1.394 . S
C1263 C1264 1.359 . S
C1263 H1275 0.930 . S
C1264 C1254 1.391 . S
C1264 C1263 1.359 . S
C1264 H1276 0.929 . S
H1265 C1261 0.930 . S
H1266 C1255 0.930 . S
H1267 C1284 0.930 . S
H1268 C1256 0.930 . S
H1269 C1257 0.930 . S
H1270 C1251 0.929 . S
H1271 C1289 0.930 . S
H1272 C1280 0.930 . S
H1273 C1281 0.930 . S
H1274 C1305 0.929 . S
H1275 C1263 0.930 . S
H1276 C1264 0.929 . S
H1277 C1306 0.930 . S
H1278 C1287 0.930 . S
N1279 Gd1248 2.661 . S
N1279 C1283 1.350 . S
N1279 C1284 1.307 . S
C1280 H1272 0.930 . S
C1280 C1281 1.355 . S
C1280 C1282 1.412 . S
C1281 H1273 0.930 . S
C1281 C1280 1.355 . S
C1281 C1284 1.402 . S
C1282 C1280 1.412 . S
C1282 C1283 1.417 . S
C1282 C1306 1.431 . S
C1283 N1279 1.350 . S
C1283 C1282 1.417 . S
C1283 C1286 1.426 . S
C1284 H1267 0.930 . S
C1284 N1279 1.307 . S
C1284 C1281 1.402 . S
N1285 Gd1248 2.601 . S
N1285 C1286 1.359 . S
N1285 C1289 1.334 . S
C1286 C1283 1.426 . S
C1286 N1285 1.359 . S
C1286 C1290 1.413 . S
C1287 H1278 0.930 . S
C1287 C1288 1.359 . S
C1287 C1289 1.394 . S
C1288 C1287 1.359 . S
C1288 C1290 1.391 . S
C1288 H1291 0.929 . S
C1289 H1271 0.930 . S
C1289 N1285 1.334 . S
C1289 C1287 1.394 . S
C1290 C1286 1.413 . S
C1290 C1288 1.391 . S
C1290 C1305 1.437 . S
H1291 C1288 0.929 . S
O1292 Gd1248 2.545 . S
O1292 C1307 1.258 . S
O1293 Gd1248 2.606 . S
O1293 Gd1249 2.362 . S
O1293 C1304 1.284 . S
O1294 Gd1249 2.324 . S
O1294 C1314 1.254 . S
O1295 Gd1248 2.429 . S
O1295 C1314 1.268 . S
O1296 Gd1248 2.545 . S
O1296 C1304 1.250 . S
O1297 Gd1248 2.412 . S
O1297 C1307 1.252 . S
O1298 Gd1249 2.545 . S
O1298 C1316 1.258 . S
O1299 Gd1248 2.362 . S
O1299 Gd1249 2.606 . S
O1299 C1315 1.284 . S
O1300 Gd1248 2.324 . S
O1300 C1323 1.254 . S
O1301 Gd1249 2.429 . S
O1301 C1323 1.268 . S
O1302 Gd1249 2.545 . S
O1302 C1315 1.250 . S
O1303 Gd1249 2.412 . S
O1303 C1316 1.252 . S
C1304 O1293 1.284 . S
C1304 O1296 1.250 . S
C1305 H1274 0.929 . S
C1305 C1290 1.437 . S
C1305 C1306 1.317 . S
C1306 H1277 0.930 . S
C1306 C1282 1.431 . S
C1306 C1305 1.317 . S
C1307 Gd1248 2.828 . S
C1307 O1292 1.258 . S
C1307 O1297 1.252 . S
C1307 C1308 1.497 . S
C1308 C1307 1.497 . S
C1308 C1309 1.395 . S
C1308 C1310 1.380 . S
C1309 C1308 1.395 . S
C1309 C1312 1.398 . S
C1309 H1324 0.930 . S
C1310 C1308 1.380 . S
C1310 C1311 1.391 . S
C1310 H1325 0.930 . S
C1311 C1310 1.391 . S
C1311 C1313 1.387 . S
C1312 C1309 1.398 . S
C1312 C1313 1.380 . S
C1312 H1326 0.930 . S
C1313 C1311 1.387 . S
C1313 C1312 1.380 . S
C1313 H1327 0.930 . S
C1314 O1294 1.254 . S
C1314 O1295 1.268 . S
C1315 O1299 1.284 . S
C1315 O1302 1.250 . S
C1316 Gd1249 2.828 . S
C1316 O1298 1.258 . S
C1316 O1303 1.252 . S
C1316 C1317 1.497 . S
C1317 C1316 1.497 . S
C1317 C1318 1.395 . S
C1317 C1319 1.380 . S
C1318 C1317 1.395 . S
C1318 C1321 1.398 . S
C1318 H1328 0.930 . S
C1319 C1317 1.380 . S
C1319 C1320 1.391 . S
C1319 H1329 0.930 . S
C1320 C1319 1.391 . S
C1320 C1322 1.387 . S
C1321 C1318 1.398 . S
C1321 C1322 1.380 . S
C1321 H1330 0.930 . S
C1322 C1320 1.387 . S
C1322 C1321 1.380 . S
C1322 H1331 0.930 . S
C1323 O1300 1.254 . S
C1323 O1301 1.268 . S
H1324 C1309 0.930 . S
H1325 C1310 0.930 . S
H1326 C1312 0.930 . S
H1327 C1313 0.930 . S
H1328 C1318 0.930 . S
H1329 C1319 0.930 . S
H1330 C1321 0.930 . S
H1331 C1322 0.930 . S
H1332 C1340 0.950 . S
H1333 C1345 0.950 . S
H1334 C1342 0.950 . S
H1335 C1344 0.950 . S
H1336 C1346 0.950 . S
H1337 C1348 0.950 . S
H1338 C1350 0.950 . S
H1339 C1351 0.950 . S
C1340 H1332 0.950 . S
C1340 C1341 1.386 . S
C1340 C1342 1.391 . S
C1341 C1340 1.386 . S
C1341 C1345 1.393 . S
C1342 H1334 0.950 . S
C1342 C1340 1.391 . S
C1342 C1343 1.400 . S
C1343 C1342 1.400 . S
C1343 C1344 1.398 . S
C1343 C1349 1.491 . S
C1344 H1335 0.950 . S
C1344 C1343 1.398 . S
C1344 C1345 1.391 . S
C1345 H1333 0.950 . S
C1345 C1341 1.393 . S
C1345 C1344 1.391 . S
C1346 H1336 0.950 . S
C1346 C1347 1.386 . S
C1346 C1348 1.391 . S
C1347 C1346 1.386 . S
C1347 C1351 1.393 . S
C1348 H1337 0.950 . S
C1348 C1346 1.391 . S
C1348 C1349 1.400 . S
C1349 C1343 1.491 . S
C1349 C1348 1.400 . S
C1349 C1350 1.398 . S
C1350 H1338 0.950 . S
C1350 C1349 1.398 . S
C1350 C1351 1.391 . S
C1351 H1339 0.950 . S
C1351 C1347 1.393 . S
C1351 C1350 1.391 . S
H1352 C1360 0.950 . S
H1353 C1365 0.950 . S
H1354 C1362 0.950 . S
H1355 C1364 0.950 . S
H1356 C1366 0.950 . S
H1357 C1368 0.950 . S
H1358 C1370 0.950 . S
H1359 C1371 0.950 . S
C1360 H1352 0.950 . S
C1360 C1361 1.386 . S
C1360 C1362 1.391 . S
C1361 C1360 1.386 . S
C1361 C1365 1.393 . S
C1362 H1354 0.950 . S
C1362 C1360 1.391 . S
C1362 C1363 1.400 . S
C1363 C1362 1.400 . S
C1363 C1364 1.398 . S
C1363 C1369 1.491 . S
C1364 H1355 0.950 . S
C1364 C1363 1.398 . S
C1364 C1365 1.391 . S
C1365 H1353 0.950 . S
C1365 C1361 1.393 . S
C1365 C1364 1.391 . S
C1366 H1356 0.950 . S
C1366 C1367 1.386 . S
C1366 C1368 1.391 . S
C1367 C1366 1.386 . S
C1367 C1371 1.393 . S
C1368 H1357 0.950 . S
C1368 C1366 1.391 . S
C1368 C1369 1.400 . S
C1369 C1363 1.491 . S
C1369 C1368 1.400 . S
C1369 C1370 1.398 . S
C1370 H1358 0.950 . S
C1370 C1369 1.398 . S
C1370 C1371 1.391 . S
C1371 H1359 0.950 . S
C1371 C1367 1.393 . S
C1371 C1370 1.391 . S
H1372 C1380 0.950 . S
H1373 C1385 0.950 . S
H1374 C1382 0.950 . S
H1375 C1384 0.950 . S
H1376 C1386 0.950 . S
H1377 C1388 0.950 . S
H1378 C1390 0.950 . S
H1379 C1391 0.950 . S
C1380 H1372 0.950 . S
C1380 C1381 1.386 . S
C1380 C1382 1.391 . S
C1381 C1380 1.386 . S
C1381 C1385 1.393 . S
C1382 H1374 0.950 . S
C1382 C1380 1.391 . S
C1382 C1383 1.400 . S
C1383 C1382 1.400 . S
C1383 C1384 1.398 . S
C1383 C1389 1.491 . S
C1384 H1375 0.950 . S
C1384 C1383 1.398 . S
C1384 C1385 1.391 . S
C1385 H1373 0.950 . S
C1385 C1381 1.393 . S
C1385 C1384 1.391 . S
C1386 H1376 0.950 . S
C1386 C1387 1.386 . S
C1386 C1388 1.391 . S
C1387 C1386 1.386 . S
C1387 C1391 1.393 . S
C1388 H1377 0.950 . S
C1388 C1386 1.391 . S
C1388 C1389 1.400 . S
C1389 C1383 1.491 . S
C1389 C1388 1.400 . S
C1389 C1390 1.398 . S
C1390 H1378 0.950 . S
C1390 C1389 1.398 . S
C1390 C1391 1.391 . S
C1391 H1379 0.950 . S
C1391 C1387 1.393 . S
C1391 C1390 1.391 . S
H1392 C1400 0.950 . S
H1393 C1405 0.950 . S
H1394 C1402 0.950 . S
H1395 C1404 0.950 . S
H1396 C1406 0.950 . S
H1397 C1408 0.950 . S
H1398 C1410 0.950 . S
H1399 C1411 0.950 . S
C1400 H1392 0.950 . S
C1400 C1401 1.386 . S
C1400 C1402 1.391 . S
C1401 C1400 1.386 . S
C1401 C1405 1.393 . S
C1402 H1394 0.950 . S
C1402 C1400 1.391 . S
C1402 C1403 1.400 . S
C1403 C1402 1.400 . S
C1403 C1404 1.398 . S
C1403 C1409 1.491 . S
C1404 H1395 0.950 . S
C1404 C1403 1.398 . S
C1404 C1405 1.391 . S
C1405 H1393 0.950 . S
C1405 C1401 1.393 . S
C1405 C1404 1.391 . S
C1406 H1396 0.950 . S
C1406 C1407 1.386 . S
C1406 C1408 1.391 . S
C1407 C1406 1.386 . S
C1407 C1411 1.393 . S
C1408 H1397 0.950 . S
C1408 C1406 1.391 . S
C1408 C1409 1.400 . S
C1409 C1403 1.491 . S
C1409 C1408 1.400 . S
C1409 C1410 1.398 . S
C1410 H1398 0.950 . S
C1410 C1409 1.398 . S
C1410 C1411 1.391 . S
C1411 H1399 0.950 . S
C1411 C1407 1.393 . S
C1411 C1410 1.391 . S
H1412 C1420 0.950 . S
H1413 C1425 0.950 . S
H1414 C1422 0.950 . S
H1415 C1424 0.950 . S
H1416 C1426 0.950 . S
H1417 C1428 0.950 . S
H1418 C1430 0.950 . S
H1419 C1431 0.950 1_554 S
C1420 H1412 0.950 . S
C1420 C1421 1.386 . S
C1420 C1422 1.391 . S
C1421 C1420 1.386 . S
C1421 C1425 1.393 . S
C1422 H1414 0.950 . S
C1422 C1420 1.391 . S
C1422 C1423 1.400 . S
C1423 C1422 1.400 . S
C1423 C1424 1.398 . S
C1423 C1429 1.491 . S
C1424 H1415 0.950 . S
C1424 C1423 1.398 . S
C1424 C1425 1.391 . S
C1425 H1413 0.950 . S
C1425 C1421 1.393 . S
C1425 C1424 1.391 . S
C1426 H1416 0.950 . S
C1426 C1427 1.386 . S
C1426 C1428 1.391 . S
C1427 C1426 1.386 . S
C1427 C1431 1.393 . S
C1428 H1417 0.950 . S
C1428 C1426 1.391 . S
C1428 C1429 1.400 . S
C1429 C1423 1.491 . S
C1429 C1428 1.400 . S
C1429 C1430 1.398 . S
C1430 H1418 0.950 . S
C1430 C1429 1.398 . S
C1430 C1431 1.391 . S
C1431 H1419 0.950 1_556 S
C1431 C1427 1.393 . S
C1431 C1430 1.391 . S
H1432 C1440 0.950 . S
H1433 C1445 0.950 . S
H1434 C1442 0.950 . S
H1435 C1444 0.950 . S
H1436 C1446 0.950 . S
H1437 C1448 0.950 . S
H1438 C1450 0.950 . S
H1439 C1451 0.950 . S
C1440 H1432 0.950 . S
C1440 C1441 1.386 . S
C1440 C1442 1.391 . S
C1441 C1440 1.386 . S
C1441 C1445 1.393 . S
C1442 H1434 0.950 . S
C1442 C1440 1.391 . S
C1442 C1443 1.400 . S
C1443 C1442 1.400 . S
C1443 C1444 1.398 . S
C1443 C1449 1.491 . S
C1444 H1435 0.950 . S
C1444 C1443 1.398 . S
C1444 C1445 1.391 . S
C1445 H1433 0.950 . S
C1445 C1441 1.393 . S
C1445 C1444 1.391 . S
C1446 H1436 0.950 . S
C1446 C1447 1.386 . S
C1446 C1448 1.391 . S
C1447 C1446 1.386 . S
C1447 C1451 1.393 . S
C1448 H1437 0.950 . S
C1448 C1446 1.391 . S
C1448 C1449 1.400 . S
C1449 C1443 1.491 . S
C1449 C1448 1.400 . S
C1449 C1450 1.398 . S
C1450 H1438 0.950 . S
C1450 C1449 1.398 . S
C1450 C1451 1.391 . S
C1451 H1439 0.950 . S
C1451 C1447 1.393 . S
C1451 C1450 1.391 . S
H1452 C1460 0.950 . S
H1453 C1465 0.950 . S
H1454 C1462 0.950 . S
H1455 C1464 0.950 . S
H1456 C1466 0.950 1_554 S
H1457 C1468 0.950 . S
H1458 C1470 0.950 . S
H1459 C1471 0.950 . S
C1460 H1452 0.950 . S
C1460 C1461 1.386 . S
C1460 C1462 1.391 . S
C1461 C1460 1.386 . S
C1461 C1465 1.393 . S
C1462 H1454 0.950 . S
C1462 C1460 1.391 . S
C1462 C1463 1.400 . S
C1463 C1462 1.400 . S
C1463 C1464 1.398 . S
C1463 C1469 1.491 . S
C1464 H1455 0.950 . S
C1464 C1463 1.398 . S
C1464 C1465 1.391 . S
C1465 H1453 0.950 . S
C1465 C1461 1.393 . S
C1465 C1464 1.391 . S
C1466 H1456 0.950 1_556 S
C1466 C1467 1.386 . S
C1466 C1468 1.391 . S
C1467 C1466 1.386 . S
C1467 C1471 1.393 . S
C1468 H1457 0.950 . S
C1468 C1466 1.391 . S
C1468 C1469 1.400 . S
C1469 C1463 1.491 . S
C1469 C1468 1.400 . S
C1469 C1470 1.398 . S
C1470 H1458 0.950 . S
C1470 C1469 1.398 . S
C1470 C1471 1.391 . S
C1471 H1459 0.950 . S
C1471 C1467 1.393 . S
C1471 C1470 1.391 . S
H1472 C1480 0.950 . S
H1473 C1485 0.950 . S
H1474 C1482 0.950 . S
H1475 C1484 0.950 . S
H1476 C1486 0.950 . S
H1477 C1488 0.950 . S
H1478 C1490 0.950 . S
H1479 C1491 0.950 1_554 S
C1480 H1472 0.950 . S
C1480 C1481 1.386 . S
C1480 C1482 1.391 . S
C1481 C1480 1.386 . S
C1481 C1485 1.393 . S
C1482 H1474 0.950 . S
C1482 C1480 1.391 . S
C1482 C1483 1.400 . S
C1483 C1482 1.400 . S
C1483 C1484 1.398 . S
C1483 C1489 1.491 . S
C1484 H1475 0.950 . S
C1484 C1483 1.398 . S
C1484 C1485 1.391 . S
C1485 H1473 0.950 . S
C1485 C1481 1.393 . S
C1485 C1484 1.391 . S
C1486 H1476 0.950 . S
C1486 C1487 1.386 . S
C1486 C1488 1.391 . S
C1487 C1486 1.386 . S
C1487 C1491 1.393 . S
C1488 H1477 0.950 . S
C1488 C1486 1.391 . S
C1488 C1489 1.400 . S
C1489 C1483 1.491 . S
C1489 C1488 1.400 . S
C1489 C1490 1.398 . S
C1490 H1478 0.950 . S
C1490 C1489 1.398 . S
C1490 C1491 1.391 . S
C1491 H1479 0.950 1_556 S
C1491 C1487 1.393 . S
C1491 C1490 1.391 . S
H1492 C1500 0.950 . S
H1493 C1505 0.950 . S
H1494 C1502 0.950 . S
H1495 C1504 0.950 . S
H1496 C1506 0.950 . S
H1497 C1508 0.950 . S
H1498 C1510 0.950 . S
H1499 C1511 0.950 . S
C1500 H1492 0.950 . S
C1500 C1501 1.386 . S
C1500 C1502 1.391 . S
C1501 C1500 1.386 . S
C1501 C1505 1.393 . S
C1502 H1494 0.950 . S
C1502 C1500 1.391 . S
C1502 C1503 1.400 . S
C1503 C1502 1.400 . S
C1503 C1504 1.398 . S
C1503 C1509 1.491 . S
C1504 H1495 0.950 . S
C1504 C1503 1.398 . S
C1504 C1505 1.391 . S
C1505 H1493 0.950 . S
C1505 C1501 1.393 . S
C1505 C1504 1.391 . S
C1506 H1496 0.950 . S
C1506 C1507 1.386 . S
C1506 C1508 1.391 . S
C1507 C1506 1.386 . S
C1507 C1511 1.393 . S
C1508 H1497 0.950 . S
C1508 C1506 1.391 . S
C1508 C1509 1.400 . S
C1509 C1503 1.491 . S
C1509 C1508 1.400 . S
C1509 C1510 1.398 . S
C1510 H1498 0.950 . S
C1510 C1509 1.398 . S
C1510 C1511 1.391 . S
C1511 H1499 0.950 . S
C1511 C1507 1.393 . S
C1511 C1510 1.391 . S
H1512 C1520 0.950 . S
H1513 C1525 0.950 . S
H1514 C1522 0.950 . S
H1515 C1524 0.950 . S
H1516 C1526 0.950 . S
H1517 C1528 0.950 . S
H1518 C1530 0.950 . S
H1519 C1531 0.950 . S
C1520 H1512 0.950 . S
C1520 C1521 1.386 . S
C1520 C1522 1.391 . S
C1521 C1520 1.386 . S
C1521 C1525 1.393 . S
C1522 H1514 0.950 . S
C1522 C1520 1.391 . S
C1522 C1523 1.400 . S
C1523 C1522 1.400 . S
C1523 C1524 1.398 . S
C1523 C1529 1.491 . S
C1524 H1515 0.950 . S
C1524 C1523 1.398 . S
C1524 C1525 1.391 . S
C1525 H1513 0.950 . S
C1525 C1521 1.393 . S
C1525 C1524 1.391 . S
C1526 H1516 0.950 . S
C1526 C1527 1.386 . S
C1526 C1528 1.391 . S
C1527 C1526 1.386 . S
C1527 C1531 1.393 . S
C1528 H1517 0.950 . S
C1528 C1526 1.391 . S
C1528 C1529 1.400 . S
C1529 C1523 1.491 . S
C1529 C1528 1.400 . S
C1529 C1530 1.398 . S
C1530 H1518 0.950 . S
C1530 C1529 1.398 . S
C1530 C1531 1.391 . S
C1531 H1519 0.950 . S
C1531 C1527 1.393 . S
C1531 C1530 1.391 . S
H1532 C1540 0.950 . S
H1533 C1545 0.950 . S
H1534 C1542 0.950 . S
H1535 C1544 0.950 . S
H1536 C1546 0.950 . S
H1537 C1548 0.950 . S
H1538 C1550 0.950 . S
H1539 C1551 0.950 . S
C1540 H1532 0.950 . S
C1540 C1541 1.386 . S
C1540 C1542 1.391 . S
C1541 C1540 1.386 . S
C1541 C1545 1.393 . S
C1542 H1534 0.950 . S
C1542 C1540 1.391 . S
C1542 C1543 1.400 . S
C1543 C1542 1.400 . S
C1543 C1544 1.398 . S
C1543 C1549 1.491 . S
C1544 H1535 0.950 . S
C1544 C1543 1.398 . S
C1544 C1545 1.391 . S
C1545 H1533 0.950 . S
C1545 C1541 1.393 . S
C1545 C1544 1.391 . S
C1546 H1536 0.950 . S
C1546 C1547 1.386 . S
C1546 C1548 1.391 . S
C1547 C1546 1.386 . S
C1547 C1551 1.393 . S
C1548 H1537 0.950 . S
C1548 C1546 1.391 . S
C1548 C1549 1.400 . S
C1549 C1543 1.491 . S
C1549 C1548 1.400 . S
C1549 C1550 1.398 . S
C1550 H1538 0.950 . S
C1550 C1549 1.398 . S
C1550 C1551 1.391 . S
C1551 H1539 0.950 . S
C1551 C1547 1.393 . S
C1551 C1550 1.391 . S
H1552 C1560 0.950 . S
H1553 C1565 0.950 . S
H1554 C1562 0.950 . S
H1555 C1564 0.950 . S
H1556 C1566 0.950 . S
H1557 C1568 0.950 . S
H1558 C1570 0.950 . S
H1559 C1571 0.950 . S
C1560 H1552 0.950 . S
C1560 C1561 1.386 . S
C1560 C1562 1.391 . S
C1561 C1560 1.386 . S
C1561 C1565 1.393 . S
C1562 H1554 0.950 . S
C1562 C1560 1.391 . S
C1562 C1563 1.400 . S
C1563 C1562 1.400 . S
C1563 C1564 1.398 . S
C1563 C1569 1.491 . S
C1564 H1555 0.950 . S
C1564 C1563 1.398 . S
C1564 C1565 1.391 . S
C1565 H1553 0.950 . S
C1565 C1561 1.393 . S
C1565 C1564 1.391 . S
C1566 H1556 0.950 . S
C1566 C1567 1.386 . S
C1566 C1568 1.391 . S
C1567 C1566 1.386 . S
C1567 C1571 1.393 . S
C1568 H1557 0.950 . S
C1568 C1566 1.391 . S
C1568 C1569 1.400 . S
C1569 C1563 1.491 . S
C1569 C1568 1.400 . S
C1569 C1570 1.398 . S
C1570 H1558 0.950 . S
C1570 C1569 1.398 . S
C1570 C1571 1.391 . S
C1571 H1559 0.950 . S
C1571 C1567 1.393 . S
C1571 C1570 1.391 . S
H1572 C1580 0.950 . S
H1573 C1585 0.950 . S
H1574 C1582 0.950 . S
H1575 C1584 0.950 . S
H1576 C1586 0.950 . S
H1577 C1588 0.950 . S
H1578 C1590 0.950 . S
H1579 C1591 0.950 . S
C1580 H1572 0.950 . S
C1580 C1581 1.386 . S
C1580 C1582 1.391 1_655 S
C1581 C1580 1.386 . S
C1581 C1585 1.393 . S
C1582 H1574 0.950 . S
C1582 C1580 1.391 1_455 S
C1582 C1583 1.400 . S
C1583 C1582 1.400 . S
C1583 C1584 1.398 . S
C1583 C1589 1.491 . S
C1584 H1575 0.950 . S
C1584 C1583 1.398 . S
C1584 C1585 1.391 1_455 S
C1585 H1573 0.950 . S
C1585 C1581 1.393 . S
C1585 C1584 1.391 1_655 S
C1586 H1576 0.950 . S
C1586 C1587 1.386 . S
C1586 C1588 1.391 . S
C1587 C1586 1.386 . S
C1587 C1591 1.393 . S
C1588 H1577 0.950 . S
C1588 C1586 1.391 . S
C1588 C1589 1.400 . S
C1589 C1583 1.491 . S
C1589 C1588 1.400 . S
C1589 C1590 1.398 . S
C1590 H1578 0.950 . S
C1590 C1589 1.398 . S
C1590 C1591 1.391 . S
C1591 H1579 0.950 . S
C1591 C1587 1.393 . S
C1591 C1590 1.391 . S
H1592 C1600 0.950 . S
H1593 C1605 0.950 . S
H1594 C1602 0.950 . S
H1595 C1604 0.950 . S
H1596 C1606 0.950 . S
H1597 C1608 0.950 . S
H1598 C1610 0.950 . S
H1599 C1611 0.950 . S
C1600 H1592 0.950 . S
C1600 C1601 1.386 . S
C1600 C1602 1.391 . S
C1601 C1600 1.386 . S
C1601 C1605 1.393 . S
C1602 H1594 0.950 . S
C1602 C1600 1.391 . S
C1602 C1603 1.400 . S
C1603 C1602 1.400 . S
C1603 C1604 1.398 . S
C1603 C1609 1.491 . S
C1604 H1595 0.950 . S
C1604 C1603 1.398 . S
C1604 C1605 1.391 . S
C1605 H1593 0.950 . S
C1605 C1601 1.393 . S
C1605 C1604 1.391 . S
C1606 H1596 0.950 . S
C1606 C1607 1.386 . S
C1606 C1608 1.391 . S
C1607 C1606 1.386 . S
C1607 C1611 1.393 . S
C1608 H1597 0.950 . S
C1608 C1606 1.391 . S
C1608 C1609 1.400 . S
C1609 C1603 1.491 . S
C1609 C1608 1.400 . S
C1609 C1610 1.398 . S
C1610 H1598 0.950 . S
C1610 C1609 1.398 . S
C1610 C1611 1.391 . S
C1611 H1599 0.950 . S
C1611 C1607 1.393 . S
C1611 C1610 1.391 . S
H1612 C1620 0.950 . S
H1613 C1625 0.950 . S
H1614 C1622 0.950 . S
H1615 C1624 0.950 . S
H1616 C1626 0.950 . S
H1617 C1628 0.950 . S
H1618 C1630 0.950 . S
H1619 C1631 0.950 . S
C1620 H1612 0.950 . S
C1620 C1621 1.386 . S
C1620 C1622 1.391 1_545 S
C1621 C1620 1.386 . S
C1621 C1625 1.393 . S
C1622 H1614 0.950 . S
C1622 C1620 1.391 1_565 S
C1622 C1623 1.400 . S
C1623 C1622 1.400 . S
C1623 C1624 1.398 . S
C1623 C1629 1.491 . S
C1624 H1615 0.950 . S
C1624 C1623 1.398 . S
C1624 C1625 1.391 1_565 S
C1625 H1613 0.950 . S
C1625 C1621 1.393 . S
C1625 C1624 1.391 1_545 S
C1626 H1616 0.950 . S
C1626 C1627 1.386 . S
C1626 C1628 1.391 . S
C1627 C1626 1.386 . S
C1627 C1631 1.393 . S
C1628 H1617 0.950 . S
C1628 C1626 1.391 . S
C1628 C1629 1.400 . S
C1629 C1623 1.491 . S
C1629 C1628 1.400 . S
C1629 C1630 1.398 . S
C1630 H1618 0.950 . S
C1630 C1629 1.398 . S
C1630 C1631 1.391 . S
C1631 H1619 0.950 . S
C1631 C1627 1.393 . S
C1631 C1630 1.391 . S
H1632 C1640 0.950 . S
H1633 C1645 0.950 . S
H1634 C1642 0.950 . S
H1635 C1644 0.950 . S
H1636 C1646 0.950 . S
H1637 C1648 0.950 . S
H1638 C1650 0.950 . S
H1639 C1651 0.950 . S
C1640 H1632 0.950 . S
C1640 C1641 1.386 . S
C1640 C1642 1.391 . S
C1641 C1640 1.386 . S
C1641 C1645 1.393 . S
C1642 H1634 0.950 . S
C1642 C1640 1.391 . S
C1642 C1643 1.400 . S
C1643 C1642 1.400 . S
C1643 C1644 1.398 . S
C1643 C1649 1.491 . S
C1644 H1635 0.950 . S
C1644 C1643 1.398 . S
C1644 C1645 1.391 . S
C1645 H1633 0.950 . S
C1645 C1641 1.393 . S
C1645 C1644 1.391 . S
C1646 H1636 0.950 . S
C1646 C1647 1.386 . S
C1646 C1648 1.391 . S
C1647 C1646 1.386 . S
C1647 C1651 1.393 . S
C1648 H1637 0.950 . S
C1648 C1646 1.391 . S
C1648 C1649 1.400 . S
C1649 C1643 1.491 . S
C1649 C1648 1.400 . S
C1649 C1650 1.398 . S
C1650 H1638 0.950 . S
C1650 C1649 1.398 . S
C1650 C1651 1.391 . S
C1651 H1639 0.950 . S
C1651 C1647 1.393 . S
C1651 C1650 1.391 . S
H1652 C1660 0.950 . S
H1653 C1665 0.950 . S
H1654 C1662 0.950 . S
H1655 C1664 0.950 . S
H1656 C1666 0.950 . S
H1657 C1668 0.950 . S
H1658 C1670 0.950 . S
H1659 C1671 0.950 . S
C1660 H1652 0.950 . S
C1660 C1661 1.386 . S
C1660 C1662 1.391 . S
C1661 C1660 1.386 . S
C1661 C1665 1.393 . S
C1662 H1654 0.950 . S
C1662 C1660 1.391 . S
C1662 C1663 1.400 . S
C1663 C1662 1.400 . S
C1663 C1664 1.398 . S
C1663 C1669 1.491 . S
C1664 H1655 0.950 . S
C1664 C1663 1.398 . S
C1664 C1665 1.391 . S
C1665 H1653 0.950 . S
C1665 C1661 1.393 . S
C1665 C1664 1.391 . S
C1666 H1656 0.950 . S
C1666 C1667 1.386 . S
C1666 C1668 1.391 . S
C1667 C1666 1.386 . S
C1667 C1671 1.393 . S
C1668 H1657 0.950 . S
C1668 C1666 1.391 . S
C1668 C1669 1.400 . S
C1669 C1663 1.491 . S
C1669 C1668 1.400 . S
C1669 C1670 1.398 . S
C1670 H1658 0.950 . S
C1670 C1669 1.398 . S
C1670 C1671 1.391 . S
C1671 H1659 0.950 . S
C1671 C1667 1.393 . S
C1671 C1670 1.391 . S
H1672 C1680 0.950 . S
H1673 C1685 0.950 . S
H1674 C1682 0.950 . S
H1675 C1684 0.950 . S
H1676 C1686 0.950 . S
H1677 C1688 0.950 . S
H1678 C1690 0.950 . S
H1679 C1691 0.950 . S
C1680 H1672 0.950 . S
C1680 C1681 1.386 . S
C1680 C1682 1.391 . S
C1681 C1680 1.386 . S
C1681 C1685 1.393 . S
C1682 H1674 0.950 . S
C1682 C1680 1.391 . S
C1682 C1683 1.400 . S
C1683 C1682 1.400 . S
C1683 C1684 1.398 . S
C1683 C1689 1.491 . S
C1684 H1675 0.950 . S
C1684 C1683 1.398 . S
C1684 C1685 1.391 . S
C1685 H1673 0.950 . S
C1685 C1681 1.393 . S
C1685 C1684 1.391 . S
C1686 H1676 0.950 . S
C1686 C1687 1.386 . S
C1686 C1688 1.391 . S
C1687 C1686 1.386 . S
C1687 C1691 1.393 . S
C1688 H1677 0.950 . S
C1688 C1686 1.391 . S
C1688 C1689 1.400 . S
C1689 C1683 1.491 . S
C1689 C1688 1.400 . S
C1689 C1690 1.398 . S
C1690 H1678 0.950 . S
C1690 C1689 1.398 . S
C1690 C1691 1.391 . S
C1691 H1679 0.950 . S
C1691 C1687 1.393 . S
C1691 C1690 1.391 . S
H1692 C1700 0.950 . S
H1693 C1705 0.950 . S
H1694 C1702 0.950 . S
H1695 C1704 0.950 . S
H1696 C1706 0.950 . S
H1697 C1708 0.950 . S
H1698 C1710 0.950 . S
H1699 C1711 0.950 . S
C1700 H1692 0.950 . S
C1700 C1701 1.386 . S
C1700 C1702 1.391 . S
C1701 C1700 1.386 . S
C1701 C1705 1.393 . S
C1702 H1694 0.950 . S
C1702 C1700 1.391 . S
C1702 C1703 1.400 . S
C1703 C1702 1.400 . S
C1703 C1704 1.398 . S
C1703 C1709 1.491 . S
C1704 H1695 0.950 . S
C1704 C1703 1.398 . S
C1704 C1705 1.391 . S
C1705 H1693 0.950 . S
C1705 C1701 1.393 . S
C1705 C1704 1.391 . S
C1706 H1696 0.950 . S
C1706 C1707 1.386 . S
C1706 C1708 1.391 . S
C1707 C1706 1.386 . S
C1707 C1711 1.393 . S
C1708 H1697 0.950 . S
C1708 C1706 1.391 . S
C1708 C1709 1.400 . S
C1709 C1703 1.491 . S
C1709 C1708 1.400 . S
C1709 C1710 1.398 . S
C1710 H1698 0.950 . S
C1710 C1709 1.398 . S
C1710 C1711 1.391 . S
C1711 H1699 0.950 . S
C1711 C1707 1.393 . S
C1711 C1710 1.391 . S
H1712 C1720 0.950 . S
H1713 C1725 0.950 . S
H1714 C1722 0.950 . S
H1715 C1724 0.950 . S
H1716 C1726 0.950 . S
H1717 C1728 0.950 . S
H1718 C1730 0.950 . S
H1719 C1731 0.950 . S
C1720 H1712 0.950 . S
C1720 C1721 1.386 . S
C1720 C1722 1.391 . S
C1721 C1720 1.386 . S
C1721 C1725 1.393 . S
C1722 H1714 0.950 . S
C1722 C1720 1.391 . S
C1722 C1723 1.400 . S
C1723 C1722 1.400 . S
C1723 C1724 1.398 . S
C1723 C1729 1.491 . S
C1724 H1715 0.950 . S
C1724 C1723 1.398 . S
C1724 C1725 1.391 . S
C1725 H1713 0.950 . S
C1725 C1721 1.393 . S
C1725 C1724 1.391 . S
C1726 H1716 0.950 . S
C1726 C1727 1.386 . S
C1726 C1728 1.391 . S
C1727 C1726 1.386 . S
C1727 C1731 1.393 . S
C1728 H1717 0.950 . S
C1728 C1726 1.391 . S
C1728 C1729 1.400 . S
C1729 C1723 1.491 . S
C1729 C1728 1.400 . S
C1729 C1730 1.398 . S
C1730 H1718 0.950 . S
C1730 C1729 1.398 . S
C1730 C1731 1.391 . S
C1731 H1719 0.950 . S
C1731 C1727 1.393 . S
C1731 C1730 1.391 . S
H1732 C1740 0.950 . S
H1733 C1745 0.950 . S
H1734 C1742 0.950 . S
H1735 C1744 0.950 . S
H1736 C1746 0.950 . S
H1737 C1748 0.950 . S
H1738 C1750 0.950 . S
H1739 C1751 0.950 . S
C1740 H1732 0.950 . S
C1740 C1741 1.386 . S
C1740 C1742 1.391 . S
C1741 C1740 1.386 . S
C1741 C1745 1.393 . S
C1742 H1734 0.950 . S
C1742 C1740 1.391 . S
C1742 C1743 1.400 . S
C1743 C1742 1.400 . S
C1743 C1744 1.398 . S
C1743 C1749 1.491 . S
C1744 H1735 0.950 . S
C1744 C1743 1.398 . S
C1744 C1745 1.391 . S
C1745 H1733 0.950 . S
C1745 C1741 1.393 . S
C1745 C1744 1.391 . S
C1746 H1736 0.950 . S
C1746 C1747 1.386 . S
C1746 C1748 1.391 . S
C1747 C1746 1.386 . S
C1747 C1751 1.393 . S
C1748 H1737 0.950 . S
C1748 C1746 1.391 . S
C1748 C1749 1.400 . S
C1749 C1743 1.491 . S
C1749 C1748 1.400 . S
C1749 C1750 1.398 . S
C1750 H1738 0.950 . S
C1750 C1749 1.398 . S
C1750 C1751 1.391 . S
C1751 H1739 0.950 . S
C1751 C1747 1.393 . S
C1751 C1750 1.391 . S
H1752 C1760 0.950 . S
H1753 C1765 0.950 . S
H1754 C1762 0.951 1_565 S
H1755 C1764 0.950 . S
H1756 C1766 0.950 . S
H1757 C1768 0.950 . S
H1758 C1770 0.950 . S
H1759 C1771 0.950 . S
C1760 H1752 0.950 . S
C1760 C1761 1.386 . S
C1760 C1762 1.396 . S
C1761 C1760 1.386 . S
C1761 C1765 1.393 . S
C1762 H1754 0.951 1_545 S
C1762 C1760 1.396 . S
C1762 C1763 1.394 1_545 S
C1763 C1762 1.394 1_565 S
C1763 C1764 1.398 . S
C1763 C1769 1.491 . S
C1764 H1755 0.950 . S
C1764 C1763 1.398 . S
C1764 C1765 1.391 1_565 S
C1765 H1753 0.950 . S
C1765 C1761 1.393 . S
C1765 C1764 1.391 1_545 S
C1766 H1756 0.950 . S
C1766 C1767 1.386 . S
C1766 C1768 1.391 . S
C1767 C1766 1.386 . S
C1767 C1771 1.393 . S
C1768 H1757 0.950 . S
C1768 C1766 1.391 . S
C1768 C1769 1.400 . S
C1769 C1763 1.491 . S
C1769 C1768 1.400 . S
C1769 C1770 1.398 . S
C1770 H1758 0.950 . S
C1770 C1769 1.398 . S
C1770 C1771 1.391 . S
C1771 H1759 0.950 . S
C1771 C1767 1.393 . S
C1771 C1770 1.391 . S
H1772 C1780 0.950 . S
H1773 C1785 0.950 . S
H1774 C1782 0.950 . S
H1775 C1784 0.950 . S
H1776 C1786 0.950 . S
H1777 C1788 0.950 . S
H1778 C1790 0.950 . S
H1779 C1791 0.950 . S
C1780 H1772 0.950 . S
C1780 C1781 1.386 . S
C1780 C1782 1.391 1_655 S
C1781 C1780 1.386 . S
C1781 C1785 1.393 1_655 S
C1782 H1774 0.950 . S
C1782 C1780 1.391 1_455 S
C1782 C1783 1.400 . S
C1783 C1782 1.400 . S
C1783 C1784 1.398 . S
C1783 C1789 1.491 . S
C1784 H1775 0.950 . S
C1784 C1783 1.398 . S
C1784 C1785 1.391 . S
C1785 H1773 0.950 . S
C1785 C1781 1.393 1_455 S
C1785 C1784 1.391 . S
C1786 H1776 0.950 . S
C1786 C1787 1.386 . S
C1786 C1788 1.391 . S
C1787 C1786 1.386 . S
C1787 C1791 1.393 . S
C1788 H1777 0.950 . S
C1788 C1786 1.391 . S
C1788 C1789 1.400 . S
C1789 C1783 1.491 . S
C1789 C1788 1.400 . S
C1789 C1790 1.398 . S
C1790 H1778 0.950 . S
C1790 C1789 1.398 . S
C1790 C1791 1.391 . S
C1791 H1779 0.950 . S
C1791 C1787 1.393 . S
C1791 C1790 1.391 . S
H1792 C1800 0.950 . S
H1793 C1805 0.950 . S
H1794 C1802 0.950 . S
H1795 C1804 0.950 . S
H1796 C1806 0.950 . S
H1797 C1808 0.950 . S
H1798 C1810 0.950 . S
H1799 C1811 0.950 . S
C1800 H1792 0.950 . S
C1800 C1801 1.386 . S
C1800 C1802 1.391 . S
C1801 C1800 1.386 . S
C1801 C1805 1.393 . S
C1802 H1794 0.950 . S
C1802 C1800 1.391 . S
C1802 C1803 1.400 . S
C1803 C1802 1.400 . S
C1803 C1804 1.398 . S
C1803 C1809 1.491 . S
C1804 H1795 0.950 . S
C1804 C1803 1.398 . S
C1804 C1805 1.391 . S
C1805 H1793 0.950 . S
C1805 C1801 1.393 . S
C1805 C1804 1.391 . S
C1806 H1796 0.950 . S
C1806 C1807 1.386 . S
C1806 C1808 1.391 . S
C1807 C1806 1.386 . S
C1807 C1811 1.393 . S
C1808 H1797 0.950 . S
C1808 C1806 1.391 . S
C1808 C1809 1.400 . S
C1809 C1803 1.491 . S
C1809 C1808 1.400 . S
C1809 C1810 1.398 . S
C1810 H1798 0.950 . S
C1810 C1809 1.398 . S
C1810 C1811 1.391 . S
C1811 H1799 0.950 . S
C1811 C1807 1.393 . S
C1811 C1810 1.391 . S
H1812 C1820 0.950 . S
H1813 C1825 0.950 . S
H1814 C1822 0.950 . S
H1815 C1824 0.950 . S
H1816 C1826 0.950 . S
H1817 C1828 0.950 . S
H1818 C1830 0.950 . S
H1819 C1831 0.950 . S
C1820 H1812 0.950 . S
C1820 C1821 1.386 . S
C1820 C1822 1.391 . S
C1821 C1820 1.386 . S
C1821 C1825 1.393 . S
C1822 H1814 0.950 . S
C1822 C1820 1.391 . S
C1822 C1823 1.400 . S
C1823 C1822 1.400 . S
C1823 C1824 1.398 . S
C1823 C1829 1.491 . S
C1824 H1815 0.950 . S
C1824 C1823 1.398 . S
C1824 C1825 1.391 . S
C1825 H1813 0.950 . S
C1825 C1821 1.393 . S
C1825 C1824 1.391 . S
C1826 H1816 0.950 . S
C1826 C1827 1.386 . S
C1826 C1828 1.391 . S
C1827 C1826 1.386 . S
C1827 C1831 1.393 . S
C1828 H1817 0.950 . S
C1828 C1826 1.391 . S
C1828 C1829 1.400 . S
C1829 C1823 1.491 . S
C1829 C1828 1.400 . S
C1829 C1830 1.398 . S
C1830 H1818 0.950 . S
C1830 C1829 1.398 . S
C1830 C1831 1.391 . S
C1831 H1819 0.950 . S
C1831 C1827 1.393 . S
C1831 C1830 1.391 . S
H1832 C1840 0.950 . S
H1833 C1845 0.950 . S
H1834 C1842 0.950 . S
H1835 C1844 0.950 . S
H1836 C1846 0.950 . S
H1837 C1848 0.950 . S
H1838 C1850 0.950 . S
H1839 C1851 0.950 . S
C1840 H1832 0.950 . S
C1840 C1841 1.386 . S
C1840 C1842 1.391 . S
C1841 C1840 1.386 . S
C1841 C1845 1.393 . S
C1842 H1834 0.950 . S
C1842 C1840 1.391 . S
C1842 C1843 1.400 . S
C1843 C1842 1.400 . S
C1843 C1844 1.398 . S
C1843 C1849 1.491 . S
C1844 H1835 0.950 . S
C1844 C1843 1.398 . S
C1844 C1845 1.391 . S
C1845 H1833 0.950 . S
C1845 C1841 1.393 . S
C1845 C1844 1.391 . S
C1846 H1836 0.950 . S
C1846 C1847 1.386 . S
C1846 C1848 1.391 . S
C1847 C1846 1.386 . S
C1847 C1851 1.393 . S
C1848 H1837 0.950 . S
C1848 C1846 1.391 . S
C1848 C1849 1.400 . S
C1849 C1843 1.491 . S
C1849 C1848 1.400 . S
C1849 C1850 1.398 . S
C1850 H1838 0.950 . S
C1850 C1849 1.398 . S
C1850 C1851 1.391 . S
C1851 H1839 0.950 . S
C1851 C1847 1.393 . S
C1851 C1850 1.391 . S
H1852 C1860 0.950 . S
H1853 C1865 0.950 . S
H1854 C1862 0.950 . S
H1855 C1864 0.950 . S
H1856 C1866 0.950 . S
H1857 C1868 0.950 . S
H1858 C1870 0.950 . S
H1859 C1871 0.950 . S
C1860 H1852 0.950 . S
C1860 C1861 1.386 . S
C1860 C1862 1.391 . S
C1861 C1860 1.386 . S
C1861 C1865 1.393 . S
C1862 H1854 0.950 . S
C1862 C1860 1.391 . S
C1862 C1863 1.400 . S
C1863 C1862 1.400 . S
C1863 C1864 1.398 . S
C1863 C1869 1.491 . S
C1864 H1855 0.950 . S
C1864 C1863 1.398 . S
C1864 C1865 1.391 . S
C1865 H1853 0.950 . S
C1865 C1861 1.393 . S
C1865 C1864 1.391 . S
C1866 H1856 0.950 . S
C1866 C1867 1.386 . S
C1866 C1868 1.391 . S
C1867 C1866 1.386 . S
C1867 C1871 1.393 . S
C1868 H1857 0.950 . S
C1868 C1866 1.391 . S
C1868 C1869 1.400 . S
C1869 C1863 1.491 . S
C1869 C1868 1.400 . S
C1869 C1870 1.398 . S
C1870 H1858 0.950 . S
C1870 C1869 1.398 . S
C1870 C1871 1.391 . S
C1871 H1859 0.950 . S
C1871 C1867 1.393 . S
C1871 C1870 1.391 . S
H1872 C1880 0.950 . S
H1873 C1885 0.950 . S
H1874 C1882 0.950 . S
H1875 C1884 0.950 . S
H1876 C1886 0.950 . S
H1877 C1888 0.950 . S
H1878 C1890 0.950 . S
H1879 C1891 0.950 . S
C1880 H1872 0.950 . S
C1880 C1881 1.386 . S
C1880 C1882 1.391 1_565 S
C1881 C1880 1.386 . S
C1881 C1885 1.393 . S
C1882 H1874 0.950 . S
C1882 C1880 1.391 1_545 S
C1882 C1883 1.400 . S
C1883 C1882 1.400 . S
C1883 C1884 1.398 . S
C1883 C1889 1.491 . S
C1884 H1875 0.950 . S
C1884 C1883 1.398 . S
C1884 C1885 1.391 1_545 S
C1885 H1873 0.950 . S
C1885 C1881 1.393 . S
C1885 C1884 1.391 1_565 S
C1886 H1876 0.950 . S
C1886 C1887 1.386 . S
C1886 C1888 1.391 . S
C1887 C1886 1.386 . S
C1887 C1891 1.393 . S
C1888 H1877 0.950 . S
C1888 C1886 1.391 . S
C1888 C1889 1.400 . S
C1889 C1883 1.491 . S
C1889 C1888 1.400 . S
C1889 C1890 1.398 . S
C1890 H1878 0.950 . S
C1890 C1889 1.398 . S
C1890 C1891 1.391 . S
C1891 H1879 0.950 . S
C1891 C1887 1.393 . S
C1891 C1890 1.391 . S
H1892 C1900 0.950 . S
H1893 C1905 0.950 . S
H1894 C1902 0.950 . S
H1895 C1904 0.950 . S
H1896 C1906 0.950 . S
H1897 C1908 0.950 . S
H1898 C1910 0.950 . S
H1899 C1911 0.950 . S
C1900 H1892 0.950 . S
C1900 C1901 1.386 . S
C1900 C1902 1.391 1_455 S
C1901 C1900 1.386 . S
C1901 C1905 1.393 . S
C1902 H1894 0.950 . S
C1902 C1900 1.391 1_655 S
C1902 C1903 1.400 . S
C1903 C1902 1.400 . S
C1903 C1904 1.398 . S
C1903 C1909 1.491 . S
C1904 H1895 0.950 . S
C1904 C1903 1.398 . S
C1904 C1905 1.391 1_655 S
C1905 H1893 0.950 . S
C1905 C1901 1.393 . S
C1905 C1904 1.391 1_455 S
C1906 H1896 0.950 . S
C1906 C1907 1.386 . S
C1906 C1908 1.391 . S
C1907 C1906 1.386 . S
C1907 C1911 1.393 . S
C1908 H1897 0.950 . S
C1908 C1906 1.391 . S
C1908 C1909 1.400 . S
C1909 C1903 1.491 . S
C1909 C1908 1.400 . S
C1909 C1910 1.398 . S
C1910 H1898 0.950 . S
C1910 C1909 1.398 . S
C1910 C1911 1.391 . S
C1911 H1899 0.950 . S
C1911 C1907 1.393 . S
C1911 C1910 1.391 . S
H1912 C1920 0.950 . S
H1913 C1925 0.950 . S
H1914 C1922 0.950 . S
H1915 C1924 0.950 . S
H1916 C1926 0.950 . S
H1917 C1928 0.950 . S
H1918 C1930 0.950 . S
H1919 C1931 0.950 . S
C1920 H1912 0.950 . S
C1920 C1921 1.386 . S
C1920 C1922 1.391 . S
C1921 C1920 1.386 . S
C1921 C1925 1.393 . S
C1922 H1914 0.950 . S
C1922 C1920 1.391 . S
C1922 C1923 1.400 . S
C1923 C1922 1.400 . S
C1923 C1924 1.398 . S
C1923 C1929 1.491 . S
C1924 H1915 0.950 . S
C1924 C1923 1.398 . S
C1924 C1925 1.391 . S
C1925 H1913 0.950 . S
C1925 C1921 1.393 . S
C1925 C1924 1.391 . S
C1926 H1916 0.950 . S
C1926 C1927 1.386 . S
C1926 C1928 1.391 . S
C1927 C1926 1.386 . S
C1927 C1931 1.393 . S
C1928 H1917 0.950 . S
C1928 C1926 1.391 . S
C1928 C1929 1.400 . S
C1929 C1923 1.491 . S
C1929 C1928 1.400 . S
C1929 C1930 1.398 . S
C1930 H1918 0.950 . S
C1930 C1929 1.398 . S
C1930 C1931 1.391 . S
C1931 H1919 0.950 . S
C1931 C1927 1.393 . S
C1931 C1930 1.391 . S
H1932 C1940 0.950 . S
H1933 C1945 0.950 . S
H1934 C1942 0.950 . S
H1935 C1944 0.950 . S
H1936 C1946 0.950 . S
H1937 C1948 0.950 . S
H1938 C1950 0.950 . S
H1939 C1951 0.950 . S
C1940 H1932 0.950 . S
C1940 C1941 1.386 . S
C1940 C1942 1.391 1_455 S
C1941 C1940 1.386 . S
C1941 C1945 1.393 . S
C1942 H1934 0.950 . S
C1942 C1940 1.391 1_655 S
C1942 C1943 1.400 . S
C1943 C1942 1.400 . S
C1943 C1944 1.398 . S
C1943 C1949 1.491 . S
C1944 H1935 0.950 . S
C1944 C1943 1.398 . S
C1944 C1945 1.391 1_655 S
C1945 H1933 0.950 . S
C1945 C1941 1.393 . S
C1945 C1944 1.391 1_455 S
C1946 H1936 0.950 . S
C1946 C1947 1.386 . S
C1946 C1948 1.391 . S
C1947 C1946 1.386 . S
C1947 C1951 1.393 . S
C1948 H1937 0.950 . S
C1948 C1946 1.391 . S
C1948 C1949 1.400 . S
C1949 C1943 1.491 . S
C1949 C1948 1.400 . S
C1949 C1950 1.398 . S
C1950 H1938 0.950 . S
C1950 C1949 1.398 . S
C1950 C1951 1.391 . S
C1951 H1939 0.950 . S
C1951 C1947 1.393 . S
C1951 C1950 1.391 . S
H1952 C1960 0.950 . S
H1953 C1965 0.950 . S
H1954 C1962 0.950 . S
H1955 C1964 0.950 . S
H1956 C1966 0.950 . S
H1957 C1968 0.950 . S
H1958 C1970 0.950 . S
H1959 C1971 0.950 . S
C1960 H1952 0.950 . S
C1960 C1961 1.386 . S
C1960 C1962 1.391 . S
C1961 C1960 1.386 . S
C1961 C1965 1.393 . S
C1962 H1954 0.950 . S
C1962 C1960 1.391 . S
C1962 C1963 1.400 . S
C1963 C1962 1.400 . S
C1963 C1964 1.398 . S
C1963 C1969 1.491 . S
C1964 H1955 0.950 . S
C1964 C1963 1.398 . S
C1964 C1965 1.391 . S
C1965 H1953 0.950 . S
C1965 C1961 1.393 . S
C1965 C1964 1.391 . S
C1966 H1956 0.950 . S
C1966 C1967 1.386 . S
C1966 C1968 1.391 . S
C1967 C1966 1.386 . S
C1967 C1971 1.393 . S
C1968 H1957 0.950 . S
C1968 C1966 1.391 . S
C1968 C1969 1.400 . S
C1969 C1963 1.491 . S
C1969 C1968 1.400 . S
C1969 C1970 1.398 . S
C1970 H1958 0.950 . S
C1970 C1969 1.398 . S
C1970 C1971 1.391 . S
C1971 H1959 0.950 . S
C1971 C1967 1.393 . S
C1971 C1970 1.391 . S
H1972 C1980 0.950 . S
H1973 C1985 0.950 . S
H1974 C1982 0.950 . S
H1975 C1984 0.950 . S
H1976 C1986 0.950 . S
H1977 C1988 0.950 . S
H1978 C1990 0.950 . S
H1979 C1991 0.950 . S
C1980 H1972 0.950 . S
C1980 C1981 1.386 . S
C1980 C1982 1.391 1_565 S
C1981 C1980 1.386 . S
C1981 C1985 1.393 . S
C1982 H1974 0.950 . S
C1982 C1980 1.391 1_545 S
C1982 C1983 1.400 . S
C1983 C1982 1.400 . S
C1983 C1984 1.398 . S
C1983 C1989 1.491 . S
C1984 H1975 0.950 . S
C1984 C1983 1.398 . S
C1984 C1985 1.391 1_545 S
C1985 H1973 0.950 . S
C1985 C1981 1.393 . S
C1985 C1984 1.391 1_565 S
C1986 H1976 0.950 . S
C1986 C1987 1.386 . S
C1986 C1988 1.391 . S
C1987 C1986 1.386 . S
C1987 C1991 1.393 . S
C1988 H1977 0.950 . S
C1988 C1986 1.391 . S
C1988 C1989 1.400 . S
C1989 C1983 1.491 . S
C1989 C1988 1.400 . S
C1989 C1990 1.398 . S
C1990 H1978 0.950 . S
C1990 C1989 1.398 . S
C1990 C1991 1.391 . S
C1991 H1979 0.950 . S
C1991 C1987 1.393 . S
C1991 C1990 1.391 . S
H1992 C2000 0.950 . S
H1993 C2005 0.950 . S
H1994 C2002 0.950 . S
H1995 C2004 0.950 . S
H1996 C2006 0.950 . S
H1997 C2008 0.950 . S
H1998 C2010 0.950 . S
H1999 C2011 0.950 . S
C2000 H1992 0.950 . S
C2000 C2001 1.386 . S
C2000 C2002 1.391 . S
C2001 C2000 1.386 . S
C2001 C2005 1.393 . S
C2002 H1994 0.950 . S
C2002 C2000 1.391 . S
C2002 C2003 1.400 . S
C2003 C2002 1.400 . S
C2003 C2004 1.398 . S
C2003 C2009 1.491 . S
C2004 H1995 0.950 . S
C2004 C2003 1.398 . S
C2004 C2005 1.391 . S
C2005 H1993 0.950 . S
C2005 C2001 1.393 . S
C2005 C2004 1.391 . S
C2006 H1996 0.950 . S
C2006 C2007 1.386 . S
C2006 C2008 1.391 . S
C2007 C2006 1.386 . S
C2007 C2011 1.393 . S
C2008 H1997 0.950 . S
C2008 C2006 1.391 . S
C2008 C2009 1.400 . S
C2009 C2003 1.491 . S
C2009 C2008 1.400 . S
C2009 C2010 1.398 . S
C2010 H1998 0.950 . S
C2010 C2009 1.398 . S
C2010 C2011 1.391 . S
C2011 H1999 0.950 . S
C2011 C2007 1.393 . S
C2011 C2010 1.391 . S
H2012 C2020 0.950 . S
H2013 C2025 0.950 . S
H2014 C2022 0.950 . S
H2015 C2024 0.950 . S
H2016 C2026 0.950 . S
H2017 C2028 0.950 . S
H2018 C2030 0.950 . S
H2019 C2031 0.950 . S
C2020 H2012 0.950 . S
C2020 C2021 1.386 . S
C2020 C2022 1.391 . S
C2021 C2020 1.386 . S
C2021 C2025 1.393 . S
C2022 H2014 0.950 . S
C2022 C2020 1.391 . S
C2022 C2023 1.400 . S
C2023 C2022 1.400 . S
C2023 C2024 1.398 . S
C2023 C2029 1.491 . S
C2024 H2015 0.950 . S
C2024 C2023 1.398 . S
C2024 C2025 1.391 . S
C2025 H2013 0.950 . S
C2025 C2021 1.393 . S
C2025 C2024 1.391 . S
C2026 H2016 0.950 . S
C2026 C2027 1.386 . S
C2026 C2028 1.391 . S
C2027 C2026 1.386 . S
C2027 C2031 1.393 . S
C2028 H2017 0.950 . S
C2028 C2026 1.391 . S
C2028 C2029 1.400 . S
C2029 C2023 1.491 . S
C2029 C2028 1.400 . S
C2029 C2030 1.398 . S
C2030 H2018 0.950 . S
C2030 C2029 1.398 . S
C2030 C2031 1.391 . S
C2031 H2019 0.950 . S
C2031 C2027 1.393 . S
C2031 C2030 1.391 . S
H2032 C2040 0.950 . S
H2033 C2045 0.950 . S
H2034 C2042 0.950 . S
H2035 C2044 0.950 . S
H2036 C2046 0.950 . S
H2037 C2048 0.950 . S
H2038 C2050 0.950 . S
H2039 C2051 0.950 . S
C2040 H2032 0.950 . S
C2040 C2041 1.386 . S
C2040 C2042 1.391 . S
C2041 C2040 1.386 . S
C2041 C2045 1.393 . S
C2042 H2034 0.950 . S
C2042 C2040 1.391 . S
C2042 C2043 1.400 . S
C2043 C2042 1.400 . S
C2043 C2044 1.398 . S
C2043 C2049 1.491 . S
C2044 H2035 0.950 . S
C2044 C2043 1.398 . S
C2044 C2045 1.391 . S
C2045 H2033 0.950 . S
C2045 C2041 1.393 . S
C2045 C2044 1.391 . S
C2046 H2036 0.950 . S
C2046 C2047 1.386 . S
C2046 C2048 1.391 . S
C2047 C2046 1.386 . S
C2047 C2051 1.393 . S
C2048 H2037 0.950 . S
C2048 C2046 1.391 . S
C2048 C2049 1.400 . S
C2049 C2043 1.491 . S
C2049 C2048 1.400 . S
C2049 C2050 1.398 . S
C2050 H2038 0.950 . S
C2050 C2049 1.398 . S
C2050 C2051 1.391 . S
C2051 H2039 0.950 . S
C2051 C2047 1.393 . S
C2051 C2050 1.391 . S
H2052 C2060 0.950 . S
H2053 C2065 0.950 . S
H2054 C2062 0.950 . S
H2055 C2064 0.950 . S
H2056 C2066 0.950 . S
H2057 C2068 0.950 . S
H2058 C2070 0.950 . S
H2059 C2071 0.950 . S
C2060 H2052 0.950 . S
C2060 C2061 1.386 . S
C2060 C2062 1.391 . S
C2061 C2060 1.386 . S
C2061 C2065 1.393 . S
C2062 H2054 0.950 . S
C2062 C2060 1.391 . S
C2062 C2063 1.400 . S
C2063 C2062 1.400 . S
C2063 C2064 1.398 . S
C2063 C2069 1.491 . S
C2064 H2055 0.950 . S
C2064 C2063 1.398 . S
C2064 C2065 1.391 . S
C2065 H2053 0.950 . S
C2065 C2061 1.393 . S
C2065 C2064 1.391 . S
C2066 H2056 0.950 . S
C2066 C2067 1.386 . S
C2066 C2068 1.391 . S
C2067 C2066 1.386 . S
C2067 C2071 1.393 . S
C2068 H2057 0.950 . S
C2068 C2066 1.391 . S
C2068 C2069 1.400 . S
C2069 C2063 1.491 . S
C2069 C2068 1.400 . S
C2069 C2070 1.398 . S
C2070 H2058 0.950 . S
C2070 C2069 1.398 . S
C2070 C2071 1.391 . S
C2071 H2059 0.950 . S
C2071 C2067 1.393 . S
C2071 C2070 1.391 . S
H2072 C2080 0.950 . S
H2073 C2085 0.950 . S
H2074 C2082 0.950 . S
H2075 C2084 0.950 . S
H2076 C2086 0.950 . S
H2077 C2088 0.950 . S
H2078 C2090 0.950 . S
H2079 C2091 0.950 1_655 S
C2080 H2072 0.950 . S
C2080 C2081 1.386 . S
C2080 C2082 1.391 . S
C2081 C2080 1.386 . S
C2081 C2085 1.393 . S
C2082 H2074 0.950 . S
C2082 C2080 1.391 . S
C2082 C2083 1.400 . S
C2083 C2082 1.400 . S
C2083 C2084 1.398 . S
C2083 C2089 1.491 . S
C2084 H2075 0.950 . S
C2084 C2083 1.398 . S
C2084 C2085 1.391 . S
C2085 H2073 0.950 . S
C2085 C2081 1.393 . S
C2085 C2084 1.391 . S
C2086 H2076 0.950 . S
C2086 C2087 1.386 . S
C2086 C2088 1.391 . S
C2087 C2086 1.386 . S
C2087 C2091 1.393 . S
C2088 H2077 0.950 . S
C2088 C2086 1.391 . S
C2088 C2089 1.400 . S
C2089 C2083 1.491 . S
C2089 C2088 1.400 . S
C2089 C2090 1.398 . S
C2090 H2078 0.950 . S
C2090 C2089 1.398 . S
C2090 C2091 1.391 . S
C2091 H2079 0.950 1_455 S
C2091 C2087 1.393 . S
C2091 C2090 1.391 . S
H2092 C2100 0.950 . S
H2093 C2105 0.950 . S
H2094 C2102 0.950 . S
H2095 C2104 0.950 . S
H2096 C2106 0.950 . S
H2097 C2108 0.950 . S
H2098 C2110 0.950 . S
H2099 C2111 0.950 . S
C2100 H2092 0.950 . S
C2100 C2101 1.386 . S
C2100 C2102 1.391 . S
C2101 C2100 1.386 . S
C2101 C2105 1.393 . S
C2102 H2094 0.950 . S
C2102 C2100 1.391 . S
C2102 C2103 1.400 . S
C2103 C2102 1.400 . S
C2103 C2104 1.398 . S
C2103 C2109 1.491 . S
C2104 H2095 0.950 . S
C2104 C2103 1.398 . S
C2104 C2105 1.391 . S
C2105 H2093 0.950 . S
C2105 C2101 1.393 . S
C2105 C2104 1.391 . S
C2106 H2096 0.950 . S
C2106 C2107 1.386 . S
C2106 C2108 1.391 . S
C2107 C2106 1.386 . S
C2107 C2111 1.393 . S
C2108 H2097 0.950 . S
C2108 C2106 1.391 . S
C2108 C2109 1.400 . S
C2109 C2103 1.491 . S
C2109 C2108 1.400 . S
C2109 C2110 1.398 . S
C2110 H2098 0.950 . S
C2110 C2109 1.398 . S
C2110 C2111 1.391 . S
C2111 H2099 0.950 . S
C2111 C2107 1.393 . S
C2111 C2110 1.391 . S
H2112 C2120 0.950 . S
H2113 C2125 0.950 . S
H2114 C2122 0.950 . S
H2115 C2124 0.950 . S
H2116 C2126 0.950 . S
H2117 C2128 0.950 . S
H2118 C2130 0.950 . S
H2119 C2131 0.950 . S
C2120 H2112 0.950 . S
C2120 C2121 1.386 . S
C2120 C2122 1.391 . S
C2121 C2120 1.386 . S
C2121 C2125 1.393 . S
C2122 H2114 0.950 . S
C2122 C2120 1.391 . S
C2122 C2123 1.400 . S
C2123 C2122 1.400 . S
C2123 C2124 1.398 . S
C2123 C2129 1.491 . S
C2124 H2115 0.950 . S
C2124 C2123 1.398 . S
C2124 C2125 1.391 . S
C2125 H2113 0.950 . S
C2125 C2121 1.393 . S
C2125 C2124 1.391 . S
C2126 H2116 0.950 . S
C2126 C2127 1.386 . S
C2126 C2128 1.391 . S
C2127 C2126 1.386 . S
C2127 C2131 1.393 . S
C2128 H2117 0.950 . S
C2128 C2126 1.391 . S
C2128 C2129 1.400 . S
C2129 C2123 1.491 . S
C2129 C2128 1.400 . S
C2129 C2130 1.398 . S
C2130 H2118 0.950 . S
C2130 C2129 1.398 . S
C2130 C2131 1.391 . S
C2131 H2119 0.950 . S
C2131 C2127 1.393 . S
C2131 C2130 1.391 . S
H2132 C2140 0.950 . S
H2133 C2145 0.950 . S
H2134 C2142 0.950 . S
H2135 C2144 0.950 . S
H2136 C2146 0.950 . S
H2137 C2148 0.950 . S
H2138 C2150 0.950 . S
H2139 C2151 0.950 . S
C2140 H2132 0.950 . S
C2140 C2141 1.386 . S
C2140 C2142 1.391 . S
C2141 C2140 1.386 . S
C2141 C2145 1.393 . S
C2142 H2134 0.950 . S
C2142 C2140 1.391 . S
C2142 C2143 1.400 . S
C2143 C2142 1.400 . S
C2143 C2144 1.398 . S
C2143 C2149 1.491 . S
C2144 H2135 0.950 . S
C2144 C2143 1.398 . S
C2144 C2145 1.391 . S
C2145 H2133 0.950 . S
C2145 C2141 1.393 . S
C2145 C2144 1.391 . S
C2146 H2136 0.950 . S
C2146 C2147 1.386 . S
C2146 C2148 1.391 . S
C2147 C2146 1.386 . S
C2147 C2151 1.393 . S
C2148 H2137 0.950 . S
C2148 C2146 1.391 . S
C2148 C2149 1.400 . S
C2149 C2143 1.491 . S
C2149 C2148 1.400 . S
C2149 C2150 1.398 . S
C2150 H2138 0.950 . S
C2150 C2149 1.398 . S
C2150 C2151 1.391 . S
C2151 H2139 0.950 . S
C2151 C2147 1.393 . S
C2151 C2150 1.391 . S
H2152 C2160 0.950 . S
H2153 C2165 0.950 . S
H2154 C2162 0.950 . S
H2155 C2164 0.950 . S
H2156 C2166 0.950 . S
H2157 C2168 0.950 . S
H2158 C2170 0.950 . S
H2159 C2171 0.950 . S
C2160 H2152 0.950 . S
C2160 C2161 1.386 . S
C2160 C2162 1.391 . S
C2161 C2160 1.386 . S
C2161 C2165 1.393 . S
C2162 H2154 0.950 . S
C2162 C2160 1.391 . S
C2162 C2163 1.400 . S
C2163 C2162 1.400 . S
C2163 C2164 1.398 . S
C2163 C2169 1.491 . S
C2164 H2155 0.950 . S
C2164 C2163 1.398 . S
C2164 C2165 1.391 . S
C2165 H2153 0.950 . S
C2165 C2161 1.393 . S
C2165 C2164 1.391 . S
C2166 H2156 0.950 . S
C2166 C2167 1.386 . S
C2166 C2168 1.391 . S
C2167 C2166 1.386 . S
C2167 C2171 1.393 . S
C2168 H2157 0.950 . S
C2168 C2166 1.391 . S
C2168 C2169 1.400 . S
C2169 C2163 1.491 . S
C2169 C2168 1.400 . S
C2169 C2170 1.398 . S
C2170 H2158 0.950 . S
C2170 C2169 1.398 . S
C2170 C2171 1.391 . S
C2171 H2159 0.950 . S
C2171 C2167 1.393 . S
C2171 C2170 1.391 . S
H2172 C2180 0.950 . S
H2173 C2185 0.950 . S
H2174 C2182 0.950 . S
H2175 C2184 0.950 . S
H2176 C2186 0.950 . S
H2177 C2188 0.950 . S
H2178 C2190 0.950 . S
H2179 C2191 0.950 . S
C2180 H2172 0.950 . S
C2180 C2181 1.386 . S
C2180 C2182 1.391 . S
C2181 C2180 1.386 . S
C2181 C2185 1.393 . S
C2182 H2174 0.950 . S
C2182 C2180 1.391 . S
C2182 C2183 1.400 . S
C2183 C2182 1.400 . S
C2183 C2184 1.398 . S
C2183 C2189 1.491 . S
C2184 H2175 0.950 . S
C2184 C2183 1.398 . S
C2184 C2185 1.391 . S
C2185 H2173 0.950 . S
C2185 C2181 1.393 . S
C2185 C2184 1.391 . S
C2186 H2176 0.950 . S
C2186 C2187 1.386 . S
C2186 C2188 1.391 . S
C2187 C2186 1.386 . S
C2187 C2191 1.393 . S
C2188 H2177 0.950 . S
C2188 C2186 1.391 . S
C2188 C2189 1.400 . S
C2189 C2183 1.491 . S
C2189 C2188 1.400 . S
C2189 C2190 1.398 . S
C2190 H2178 0.950 . S
C2190 C2189 1.398 . S
C2190 C2191 1.391 . S
C2191 H2179 0.950 . S
C2191 C2187 1.393 . S
C2191 C2190 1.391 . S
H2192 C2200 0.950 . S
H2193 C2205 0.950 . S
H2194 C2202 0.950 . S
H2195 C2204 0.950 . S
H2196 C2206 0.950 . S
H2197 C2208 0.950 . S
H2198 C2210 0.950 . S
H2199 C2211 0.950 . S
C2200 H2192 0.950 . S
C2200 C2201 1.386 . S
C2200 C2202 1.391 . S
C2201 C2200 1.386 . S
C2201 C2205 1.393 . S
C2202 H2194 0.950 . S
C2202 C2200 1.391 . S
C2202 C2203 1.400 . S
C2203 C2202 1.400 . S
C2203 C2204 1.398 . S
C2203 C2209 1.491 . S
C2204 H2195 0.950 . S
C2204 C2203 1.398 . S
C2204 C2205 1.391 . S
C2205 H2193 0.950 . S
C2205 C2201 1.393 . S
C2205 C2204 1.391 . S
C2206 H2196 0.950 . S
C2206 C2207 1.386 . S
C2206 C2208 1.391 . S
C2207 C2206 1.386 . S
C2207 C2211 1.393 . S
C2208 H2197 0.950 . S
C2208 C2206 1.391 . S
C2208 C2209 1.400 . S
C2209 C2203 1.491 . S
C2209 C2208 1.400 . S
C2209 C2210 1.398 . S
C2210 H2198 0.950 . S
C2210 C2209 1.398 . S
C2210 C2211 1.391 . S
C2211 H2199 0.950 . S
C2211 C2207 1.393 . S
C2211 C2210 1.391 . S
H2212 C2220 0.950 . S
H2213 C2225 0.950 . S
H2214 C2222 0.950 . S
H2215 C2224 0.950 . S
H2216 C2226 0.950 . S
H2217 C2228 0.950 . S
H2218 C2230 0.950 . S
H2219 C2231 0.950 . S
C2220 H2212 0.950 . S
C2220 C2221 1.386 . S
C2220 C2222 1.391 . S
C2221 C2220 1.386 . S
C2221 C2225 1.393 . S
C2222 H2214 0.950 . S
C2222 C2220 1.391 . S
C2222 C2223 1.400 . S
C2223 C2222 1.400 . S
C2223 C2224 1.398 . S
C2223 C2229 1.491 . S
C2224 H2215 0.950 . S
C2224 C2223 1.398 . S
C2224 C2225 1.391 . S
C2225 H2213 0.950 . S
C2225 C2221 1.393 . S
C2225 C2224 1.391 . S
C2226 H2216 0.950 . S
C2226 C2227 1.386 . S
C2226 C2228 1.391 . S
C2227 C2226 1.386 . S
C2227 C2231 1.393 . S
C2228 H2217 0.950 . S
C2228 C2226 1.391 . S
C2228 C2229 1.400 . S
C2229 C2223 1.491 . S
C2229 C2228 1.400 . S
C2229 C2230 1.398 . S
C2230 H2218 0.950 . S
C2230 C2229 1.398 . S
C2230 C2231 1.391 . S
C2231 H2219 0.950 . S
C2231 C2227 1.393 . S
C2231 C2230 1.391 . S
H2232 C2240 0.950 . S
H2233 C2245 0.950 . S
H2234 C2242 0.950 . S
H2235 C2244 0.950 . S
H2236 C2246 0.950 . S
H2237 C2248 0.950 . S
H2238 C2250 0.950 . S
H2239 C2251 0.950 . S
C2240 H2232 0.950 . S
C2240 C2241 1.386 . S
C2240 C2242 1.391 . S
C2241 C2240 1.386 . S
C2241 C2245 1.393 . S
C2242 H2234 0.950 . S
C2242 C2240 1.391 . S
C2242 C2243 1.400 . S
C2243 C2242 1.400 . S
C2243 C2244 1.398 . S
C2243 C2249 1.491 . S
C2244 H2235 0.950 . S
C2244 C2243 1.398 . S
C2244 C2245 1.391 . S
C2245 H2233 0.950 . S
C2245 C2241 1.393 . S
C2245 C2244 1.391 . S
C2246 H2236 0.950 . S
C2246 C2247 1.386 . S
C2246 C2248 1.391 . S
C2247 C2246 1.386 . S
C2247 C2251 1.393 . S
C2248 H2237 0.950 . S
C2248 C2246 1.391 . S
C2248 C2249 1.400 . S
C2249 C2243 1.491 . S
C2249 C2248 1.400 . S
C2249 C2250 1.398 . S
C2250 H2238 0.950 . S
C2250 C2249 1.398 . S
C2250 C2251 1.391 . S
C2251 H2239 0.950 . S
C2251 C2247 1.393 . S
C2251 C2250 1.391 . S
H2252 C2260 0.950 . S
H2253 C2265 0.950 . S
H2254 C2262 0.950 . S
H2255 C2264 0.950 . S
H2256 C2266 0.950 . S
H2257 C2268 0.950 . S
H2258 C2270 0.950 . S
H2259 C2271 0.950 . S
C2260 H2252 0.950 . S
C2260 C2261 1.386 . S
C2260 C2262 1.391 . S
C2261 C2260 1.386 . S
C2261 C2265 1.393 . S
C2262 H2254 0.950 . S
C2262 C2260 1.391 . S
C2262 C2263 1.400 . S
C2263 C2262 1.400 . S
C2263 C2264 1.398 . S
C2263 C2269 1.491 . S
C2264 H2255 0.950 . S
C2264 C2263 1.398 . S
C2264 C2265 1.391 . S
C2265 H2253 0.950 . S
C2265 C2261 1.393 . S
C2265 C2264 1.391 . S
C2266 H2256 0.950 . S
C2266 C2267 1.386 . S
C2266 C2268 1.391 . S
C2267 C2266 1.386 . S
C2267 C2271 1.393 . S
C2268 H2257 0.950 . S
C2268 C2266 1.391 . S
C2268 C2269 1.400 . S
C2269 C2263 1.491 . S
C2269 C2268 1.400 . S
C2269 C2270 1.398 . S
C2270 H2258 0.950 . S
C2270 C2269 1.398 . S
C2270 C2271 1.391 . S
C2271 H2259 0.950 . S
C2271 C2267 1.393 . S
C2271 C2270 1.391 . S
H2272 C2280 0.950 . S
H2273 C2285 0.950 . S
H2274 C2282 0.950 . S
H2275 C2284 0.950 . S
H2276 C2286 0.950 . S
H2277 C2288 0.950 . S
H2278 C2290 0.950 . S
H2279 C2291 0.950 . S
C2280 H2272 0.950 . S
C2280 C2281 1.386 . S
C2280 C2282 1.391 . S
C2281 C2280 1.386 . S
C2281 C2285 1.393 . S
C2282 H2274 0.950 . S
C2282 C2280 1.391 . S
C2282 C2283 1.400 . S
C2283 C2282 1.400 . S
C2283 C2284 1.398 . S
C2283 C2289 1.491 . S
C2284 H2275 0.950 . S
C2284 C2283 1.398 . S
C2284 C2285 1.391 . S
C2285 H2273 0.950 . S
C2285 C2281 1.393 . S
C2285 C2284 1.391 . S
C2286 H2276 0.950 . S
C2286 C2287 1.386 . S
C2286 C2288 1.391 . S
C2287 C2286 1.386 . S
C2287 C2291 1.393 . S
C2288 H2277 0.950 . S
C2288 C2286 1.391 . S
C2288 C2289 1.400 . S
C2289 C2283 1.491 . S
C2289 C2288 1.400 . S
C2289 C2290 1.398 . S
C2290 H2278 0.950 . S
C2290 C2289 1.398 . S
C2290 C2291 1.391 . S
C2291 H2279 0.950 . S
C2291 C2287 1.393 . S
C2291 C2290 1.391 . S
H2292 C2300 0.950 . S
H2293 C2305 0.950 . S
H2294 C2302 0.950 . S
H2295 C2304 0.950 . S
H2296 C2306 0.950 . S
H2297 C2308 0.950 . S
H2298 C2310 0.950 . S
H2299 C2311 0.950 . S
C2300 H2292 0.950 . S
C2300 C2301 1.386 . S
C2300 C2302 1.391 . S
C2301 C2300 1.386 . S
C2301 C2305 1.393 . S
C2302 H2294 0.950 . S
C2302 C2300 1.391 . S
C2302 C2303 1.400 . S
C2303 C2302 1.400 . S
C2303 C2304 1.398 . S
C2303 C2309 1.491 . S
C2304 H2295 0.950 . S
C2304 C2303 1.398 . S
C2304 C2305 1.391 . S
C2305 H2293 0.950 . S
C2305 C2301 1.393 . S
C2305 C2304 1.391 . S
C2306 H2296 0.950 . S
C2306 C2307 1.386 . S
C2306 C2308 1.391 . S
C2307 C2306 1.386 . S
C2307 C2311 1.393 . S
C2308 H2297 0.950 . S
C2308 C2306 1.391 . S
C2308 C2309 1.400 . S
C2309 C2303 1.491 . S
C2309 C2308 1.400 . S
C2309 C2310 1.398 . S
C2310 H2298 0.950 . S
C2310 C2309 1.398 . S
C2310 C2311 1.391 . S
C2311 H2299 0.950 . S
C2311 C2307 1.393 . S
C2311 C2310 1.391 . S
H2312 C2320 0.950 . S
H2313 C2325 0.950 . S
H2314 C2322 0.950 . S
H2315 C2324 0.950 . S
H2316 C2326 0.950 . S
H2317 C2328 0.950 . S
H2318 C2330 0.950 . S
H2319 C2331 0.950 . S
C2320 H2312 0.950 . S
C2320 C2321 1.386 . S
C2320 C2322 1.391 . S
C2321 C2320 1.386 . S
C2321 C2325 1.393 . S
C2322 H2314 0.950 . S
C2322 C2320 1.391 . S
C2322 C2323 1.400 . S
C2323 C2322 1.400 . S
C2323 C2324 1.398 . S
C2323 C2329 1.491 . S
C2324 H2315 0.950 . S
C2324 C2323 1.398 . S
C2324 C2325 1.391 . S
C2325 H2313 0.950 . S
C2325 C2321 1.393 . S
C2325 C2324 1.391 . S
C2326 H2316 0.950 . S
C2326 C2327 1.386 . S
C2326 C2328 1.391 . S
C2327 C2326 1.386 . S
C2327 C2331 1.393 . S
C2328 H2317 0.950 . S
C2328 C2326 1.391 . S
C2328 C2329 1.400 . S
C2329 C2323 1.491 . S
C2329 C2328 1.400 . S
C2329 C2330 1.398 . S
C2330 H2318 0.950 . S
C2330 C2329 1.398 . S
C2330 C2331 1.391 . S
C2331 H2319 0.950 . S
C2331 C2327 1.393 . S
C2331 C2330 1.391 . S
H2332 C2340 0.950 . S
H2333 C2345 0.950 . S
H2334 C2342 0.950 . S
H2335 C2344 0.950 . S
H2336 C2346 0.950 . S
H2337 C2348 0.950 . S
H2338 C2350 0.950 . S
H2339 C2351 0.950 . S
C2340 H2332 0.950 . S
C2340 C2341 1.386 . S
C2340 C2342 1.391 . S
C2341 C2340 1.386 . S
C2341 C2345 1.393 . S
C2342 H2334 0.950 . S
C2342 C2340 1.391 . S
C2342 C2343 1.400 . S
C2343 C2342 1.400 . S
C2343 C2344 1.398 . S
C2343 C2349 1.491 . S
C2344 H2335 0.950 . S
C2344 C2343 1.398 . S
C2344 C2345 1.391 . S
C2345 H2333 0.950 . S
C2345 C2341 1.393 . S
C2345 C2344 1.391 . S
C2346 H2336 0.950 . S
C2346 C2347 1.386 . S
C2346 C2348 1.391 . S
C2347 C2346 1.386 . S
C2347 C2351 1.393 . S
C2348 H2337 0.950 . S
C2348 C2346 1.391 . S
C2348 C2349 1.400 . S
C2349 C2343 1.491 . S
C2349 C2348 1.400 . S
C2349 C2350 1.398 . S
C2350 H2338 0.950 . S
C2350 C2349 1.398 . S
C2350 C2351 1.391 . S
C2351 H2339 0.950 . S
C2351 C2347 1.393 . S
C2351 C2350 1.391 . S
H2352 C2360 0.950 . S
H2353 C2365 0.950 . S
H2354 C2362 0.950 . S
H2355 C2364 0.950 . S
H2356 C2366 0.950 . S
H2357 C2368 0.950 . S
H2358 C2370 0.950 . S
H2359 C2371 0.950 . S
C2360 H2352 0.950 . S
C2360 C2361 1.386 . S
C2360 C2362 1.391 . S
C2361 C2360 1.386 . S
C2361 C2365 1.393 . S
C2362 H2354 0.950 . S
C2362 C2360 1.391 . S
C2362 C2363 1.400 . S
C2363 C2362 1.400 . S
C2363 C2364 1.398 . S
C2363 C2369 1.491 . S
C2364 H2355 0.950 . S
C2364 C2363 1.398 . S
C2364 C2365 1.391 . S
C2365 H2353 0.950 . S
C2365 C2361 1.393 . S
C2365 C2364 1.391 . S
C2366 H2356 0.950 . S
C2366 C2367 1.386 . S
C2366 C2368 1.391 . S
C2367 C2366 1.386 . S
C2367 C2371 1.393 . S
C2368 H2357 0.950 . S
C2368 C2366 1.391 . S
C2368 C2369 1.400 . S
C2369 C2363 1.491 . S
C2369 C2368 1.400 . S
C2369 C2370 1.398 . S
C2370 H2358 0.950 . S
C2370 C2369 1.398 . S
C2370 C2371 1.391 . S
C2371 H2359 0.950 . S
C2371 C2367 1.393 . S
C2371 C2370 1.391 . S
H2372 C2380 0.950 . S
H2373 C2385 0.950 . S
H2374 C2382 0.950 . S
H2375 C2384 0.950 . S
H2376 C2386 0.950 . S
H2377 C2388 0.950 . S
H2378 C2390 0.950 . S
H2379 C2391 0.950 . S
C2380 H2372 0.950 . S
C2380 C2381 1.386 . S
C2380 C2382 1.391 . S
C2381 C2380 1.386 . S
C2381 C2385 1.393 . S
C2382 H2374 0.950 . S
C2382 C2380 1.391 . S
C2382 C2383 1.400 . S
C2383 C2382 1.400 . S
C2383 C2384 1.398 . S
C2383 C2389 1.491 . S
C2384 H2375 0.950 . S
C2384 C2383 1.398 . S
C2384 C2385 1.391 . S
C2385 H2373 0.950 . S
C2385 C2381 1.393 . S
C2385 C2384 1.391 . S
C2386 H2376 0.950 . S
C2386 C2387 1.386 . S
C2386 C2388 1.391 . S
C2387 C2386 1.386 . S
C2387 C2391 1.393 . S
C2388 H2377 0.950 . S
C2388 C2386 1.391 . S
C2388 C2389 1.400 . S
C2389 C2383 1.491 . S
C2389 C2388 1.400 . S
C2389 C2390 1.398 . S
C2390 H2378 0.950 . S
C2390 C2389 1.398 . S
C2390 C2391 1.391 . S
C2391 H2379 0.950 . S
C2391 C2387 1.393 . S
C2391 C2390 1.391 . S
H2392 C2400 0.950 . S
H2393 C2405 0.950 . S
H2394 C2402 0.950 . S
H2395 C2404 0.950 . S
H2396 C2406 0.950 . S
H2397 C2408 0.950 . S
H2398 C2410 0.950 . S
H2399 C2411 0.950 . S
C2400 H2392 0.950 . S
C2400 C2401 1.386 . S
C2400 C2402 1.391 . S
C2401 C2400 1.386 . S
C2401 C2405 1.393 . S
C2402 H2394 0.950 . S
C2402 C2400 1.391 . S
C2402 C2403 1.400 . S
C2403 C2402 1.400 . S
C2403 C2404 1.398 . S
C2403 C2409 1.491 . S
C2404 H2395 0.950 . S
C2404 C2403 1.398 . S
C2404 C2405 1.391 . S
C2405 H2393 0.950 . S
C2405 C2401 1.393 . S
C2405 C2404 1.391 . S
C2406 H2396 0.950 . S
C2406 C2407 1.386 . S
C2406 C2408 1.391 . S
C2407 C2406 1.386 . S
C2407 C2411 1.393 . S
C2408 H2397 0.950 . S
C2408 C2406 1.391 . S
C2408 C2409 1.400 . S
C2409 C2403 1.491 . S
C2409 C2408 1.400 . S
C2409 C2410 1.398 . S
C2410 H2398 0.950 . S
C2410 C2409 1.398 . S
C2410 C2411 1.391 . S
C2411 H2399 0.950 . S
C2411 C2407 1.393 . S
C2411 C2410 1.391 . S
C1341 C439 1.367 . S
C1347 C632 1.324 . S
C1361 C465 1.506 . S
C1367 C716 1.455 . S
C1381 C401 1.465 . S
C1387 C810 1.435 . S
C1401 C369 1.422 . S
C1407 C726 1.402 . S
C1427 C800 1.391 . S
C1421 C305 1.446 . S
C1441 C343 1.331 . S
C1447 C642 1.341 . S
C1467 C643 1.377 . S
C1461 C375 1.430 . S
C1487 C727 1.405 . S
C1481 C311 1.480 . S
C1501 C337 1.410 . S
C1507 C819 1.415 . S
C1521 C433 1.399 . S
C1527 C735 1.402 . S
C1541 C471 1.422 . S
C1547 C811 1.360 . S
C1567 C651 1.358 . S
C1561 C407 1.414 . S
C1587 C884 1.323 . S
C1581 C55 1.367 . S
C1601 C81 1.508 . S
C1607 C968 1.454 . S
C1621 C17 1.465 . S
C1627 C1062 1.435 . S
C1641 C561 1.421 . S
C1647 C978 1.404 . S
C1661 C497 1.456 . S
C1667 C1052 1.382 . S
C1681 C535 1.313 . S
C1687 C894 1.325 . S
C1701 C567 1.428 . S
C1707 C895 1.371 . S
C1721 C503 1.468 . S
C1727 C979 1.416 . S
C1747 C1071 1.433 . S
C1741 C529 1.427 . S
C1761 C49 1.381 . S
C1767 C987 1.384 . S
C1787 C1063 1.334 . S
C1781 C87 1.420 . S
C1801 C23 1.406 . S
C1807 C903 1.382 . S
C1827 C1136 1.337 . S
C1821 C247 1.346 . S
C1841 C273 1.509 . S
C1847 C1220 1.427 . S
C1867 C1314 1.435 . S
C1861 C209 1.466 . S
C1887 C1230 1.380 . S
C1881 C177 1.431 . S
C1907 C1304 1.384 . S
C1901 C113 1.456 . S
C1921 C151 1.314 . S
C1927 C1146 1.326 . S
C1941 C183 1.430 . S
C1947 C1147 1.351 . S
C1961 C119 1.468 . S
C1967 C1231 1.409 . S
C1987 C1323 1.425 . S
C1981 C145 1.421 . S
C2001 C241 1.387 . S
C2007 C1239 1.390 . S
C2021 C279 1.413 . S
C2027 C1315 1.338 . S
C2041 C215 1.414 . S
C2047 C1155 1.358 . S
C2061 C509 1.456 . S
C2067 C639 1.341 . S
C2087 C723 1.327 . S
C2081 C541 1.439 . S
C2101 C573 1.447 . S
C2107 C816 1.362 . S
C2121 C221 1.498 . S
C2127 C732 1.344 . S
C2141 C253 1.432 . S
C2147 C807 1.347 . S
C2167 C648 1.380 . S
C2161 C285 1.436 . S
C2181 C125 1.458 . S
C2187 C891 1.348 . S
C2201 C157 1.439 . S
C2207 C975 1.348 . S
C2221 C189 1.446 . S
C2227 C1068 1.368 . S
C2241 C413 1.482 . S
C2247 C984 1.383 . S
C2267 C1059 1.317 . S
C2261 C445 1.424 . S
C2281 C477 1.447 . S
C2287 C900 1.356 . S
C2301 C317 1.441 . S
C2307 C1143 1.362 . S
C2321 C349 1.447 . S
C2327 C1227 1.360 . S
C2347 C1320 1.365 . S
C2341 C381 1.449 . S
C2361 C29 1.495 . S
C2367 C1236 1.350 . S
C2381 C61 1.418 . S
C2387 C1311 1.309 . S
C2401 C93 1.437 . S
C2407 C1152 1.376 . S
