# Generated by pormake.
# Topology cml, (3,6)-cn, num edge types: 1
# Building blocks:
#     Node 0, Type 0, BuildingBlock: BELTOD_clean_linker_0, # of connection points: 3
#     Node 1, Type 0, BuildingBlock: BELTOD_clean_linker_0, # of connection points: 3
#     Node 2, Type 0, BuildingBlock: BELTOD_clean_linker_0, # of connection points: 3
#     Node 3, Type 0, BuildingBlock: BELTOD_clean_linker_0, # of connection points: 3
#     Node 4, Type 0, BuildingBlock: BELTOD_clean_linker_0, # of connection points: 3
#     Node 5, Type 0, BuildingBlock: BELTOD_clean_linker_0, # of connection points: 3
#     Node 6, Type 0, BuildingBlock: BELTOD_clean_linker_0, # of connection points: 3
#     Node 7, Type 0, BuildingBlock: BELTOD_clean_linker_0, # of connection points: 3
#     Node 8, Type 1, BuildingBlock: OJICUG_clean_sbu_0, # of connection points: 6
#     Node 9, Type 1, BuildingBlock: OJICUG_clean_sbu_0, # of connection points: 6
#     Node 10, Type 1, BuildingBlock: OJICUG_clean_sbu_0, # of connection points: 6
#     Node 11, Type 1, BuildingBlock: OJICUG_clean_sbu_0, # of connection points: 6
#     Edge 12, Type (0, 1), BuildingBlock: OJICUG_clean_linker_0, # of connection points: 2
#     Edge 13, Type (0, 1), BuildingBlock: OJICUG_clean_linker_0, # of connection points: 2
#     Edge 14, Type (0, 1), BuildingBlock: OJICUG_clean_linker_0, # of connection points: 2
#     Edge 15, Type (0, 1), BuildingBlock: OJICUG_clean_linker_0, # of connection points: 2
#     Edge 16, Type (0, 1), BuildingBlock: OJICUG_clean_linker_0, # of connection points: 2
#     Edge 17, Type (0, 1), BuildingBlock: OJICUG_clean_linker_0, # of connection points: 2
#     Edge 18, Type (0, 1), BuildingBlock: OJICUG_clean_linker_0, # of connection points: 2
#     Edge 19, Type (0, 1), BuildingBlock: OJICUG_clean_linker_0, # of connection points: 2
#     Edge 20, Type (0, 1), BuildingBlock: OJICUG_clean_linker_0, # of connection points: 2
#     Edge 21, Type (0, 1), BuildingBlock: OJICUG_clean_linker_0, # of connection points: 2
#     Edge 22, Type (0, 1), BuildingBlock: OJICUG_clean_linker_0, # of connection points: 2
#     Edge 23, Type (0, 1), BuildingBlock: OJICUG_clean_linker_0, # of connection points: 2
#     Edge 24, Type (0, 1), BuildingBlock: OJICUG_clean_linker_0, # of connection points: 2
#     Edge 25, Type (0, 1), BuildingBlock: OJICUG_clean_linker_0, # of connection points: 2
#     Edge 26, Type (0, 1), BuildingBlock: OJICUG_clean_linker_0, # of connection points: 2
#     Edge 27, Type (0, 1), BuildingBlock: OJICUG_clean_linker_0, # of connection points: 2
#     Edge 28, Type (0, 1), BuildingBlock: OJICUG_clean_linker_0, # of connection points: 2
#     Edge 29, Type (0, 1), BuildingBlock: OJICUG_clean_linker_0, # of connection points: 2
#     Edge 30, Type (0, 1), BuildingBlock: OJICUG_clean_linker_0, # of connection points: 2
#     Edge 31, Type (0, 1), BuildingBlock: OJICUG_clean_linker_0, # of connection points: 2
#     Edge 32, Type (0, 1), BuildingBlock: OJICUG_clean_linker_0, # of connection points: 2
#     Edge 33, Type (0, 1), BuildingBlock: OJICUG_clean_linker_0, # of connection points: 2
#     Edge 34, Type (0, 1), BuildingBlock: OJICUG_clean_linker_0, # of connection points: 2
#     Edge 35, Type (0, 1), BuildingBlock: OJICUG_clean_linker_0, # of connection points: 2
# Relax obj value: 0.065
# Max RMSD: 0.078
# Mean RMSD: 0.074
data_MOF--net-cml--node1-OJICUG_clean_sbu_0--node2-BELTOD_clean_linker_0--edge1-OJICUG_clean_linker_0
_symmetry_space_group_name_H-M    P1
_symmetry_Int_Tables_number       1
_symmetry_cell_setting            triclinic
loop_
_symmetry_equiv_pos_as_xyz
'x, y, z'
_cell_length_a     34.120799
_cell_length_b     34.16101
_cell_length_c     31.966599
_cell_angle_alpha  89.592792
_cell_angle_beta   89.461796
_cell_angle_gamma 89.927839
loop_
_atom_site_label
_atom_site_type_symbol
_atom_site_fract_x
_atom_site_fract_y
_atom_site_fract_z
_atom_type_partial_charge
P0 P 0.33526 0.31835 0.9387 0.0
H1 H 0.34571 0.25024 0.99298 0.0
H2 H 0.361 0.24347 0.06734 0.0
H3 H 0.36651 0.36969 0.07719 0.0
H4 H 0.34856 0.37595 0.00455 0.0
H5 H 0.28911 0.2912 0.86877 0.0
H6 H 0.21872 0.28116 0.85995 0.0
H7 H 0.198 0.31908 0.98694 0.0
H8 H 0.26834 0.32921 0.99552 0.0
H9 H 0.40935 0.35931 0.93499 0.0
H10 H 0.2887 0.38422 0.90486 0.0
O11 O 0.36063 0.28559 0.91099 0.0
H12 H 0.42637 0.42773 0.92065 0.0
H13 H 0.30596 0.45235 0.88957 0.0
C14 C 0.34747 0.31348 0.99294 0.0
C15 C 0.35025 0.27632 0.01138 0.0
C16 C 0.35902 0.27256 0.05384 0.0
C17 C 0.36531 0.30602 0.07836 0.0
C18 C 0.36136 0.3432 0.05969 0.0
C19 C 0.35192 0.34686 0.01761 0.0
C20 C 0.28387 0.30979 0.93308 0.0
C21 C 0.2694 0.2971 0.89473 0.0
C22 C 0.22924 0.29185 0.88963 0.0
C23 C 0.20307 0.29938 0.92285 0.0
C24 C 0.21766 0.31273 0.96105 0.0
C25 C 0.25782 0.3183 0.96599 0.0
C26 C 0.34789 0.3667 0.92098 0.0
C27 C 0.38671 0.37932 0.92463 0.0
C28 C 0.39628 0.41836 0.91693 0.0
C29 C 0.36724 0.44511 0.9047 0.0
C30 C 0.32867 0.43213 0.89925 0.0
C31 C 0.31894 0.39317 0.90777 0.0
P32 P 0.73817 0.56099 0.52488 0.0
H33 H 0.72558 0.47686 0.51703 0.0
H34 H 0.6751 0.43862 0.48257 0.0
H35 H 0.62251 0.54523 0.43581 0.0
H36 H 0.67361 0.58346 0.47022 0.0
H37 H 0.7874 0.62588 0.54736 0.0
H38 H 0.8245 0.67389 0.50671 0.0
H39 H 0.78687 0.61932 0.39232 0.0
H40 H 0.74996 0.57073 0.43353 0.0
H41 H 0.71547 0.54035 0.61016 0.0
H42 H 0.70001 0.638 0.52572 0.0
O43 O 0.77036 0.53113 0.54779 0.0
H44 H 0.67715 0.57417 0.66348 0.0
H45 H 0.66296 0.67298 0.57957 0.0
C46 C 0.70346 0.53293 0.4958 0.0
C47 C 0.70351 0.49204 0.49897 0.0
C48 C 0.67445 0.47022 0.47952 0.0
C49 C 0.64472 0.48896 0.45671 0.0
C50 C 0.64523 0.52999 0.45288 0.0
C51 C 0.6743 0.55183 0.47255 0.0
C52 C 0.76522 0.59545 0.49344 0.0
C53 C 0.78685 0.62441 0.51353 0.0
C54 C 0.80783 0.65197 0.49024 0.0
C55 C 0.80793 0.65081 0.4463 0.0
C56 C 0.78706 0.62102 0.42614 0.0
C57 C 0.76583 0.59342 0.44963 0.0
C58 C 0.71135 0.58706 0.56448 0.0
C59 C 0.70444 0.56944 0.60344 0.0
C60 C 0.68276 0.58904 0.63402 0.0
C61 C 0.66754 0.62673 0.62616 0.0
C62 C 0.67425 0.64409 0.58673 0.0
C63 C 0.69568 0.62423 0.55602 0.0
P64 P 0.74597 0.43304 0.04836 0.0
H65 H 0.75826 0.41659 0.13719 0.0
H66 H 0.71944 0.38099 0.18952 0.0
H67 H 0.6384 0.34631 0.09356 0.0
H68 H 0.67808 0.3813 0.04116 0.0
H69 H 0.82663 0.40737 0.05612 0.0
H70 H 0.86771 0.36321 0.01478 0.0
H71 H 0.77262 0.34568 0.92886 0.0
H72 H 0.73098 0.38934 0.97109 0.0
H73 H 0.66916 0.46608 0.06849 0.0
H74 H 0.74967 0.46662 0.96361 0.0
O75 O 0.77463 0.46419 0.07389 0.0
H76 H 0.62384 0.50726 0.02913 0.0
H77 H 0.70432 0.50785 0.92399 0.0
C78 C 0.72033 0.40247 0.0856 0.0
C79 C 0.7324 0.40096 0.12732 0.0
C80 C 0.71019 0.38056 0.15721 0.0
C81 C 0.67549 0.36129 0.14584 0.0
C82 C 0.66504 0.36064 0.10336 0.0
C83 C 0.68744 0.38095 0.07344 0.0
C84 C 0.77617 0.40233 0.01604 0.0
C85 C 0.81469 0.39443 0.02816 0.0
C86 C 0.83808 0.36922 0.00461 0.0
C87 C 0.8233 0.35156 0.96852 0.0
C88 C 0.78473 0.35956 0.95621 0.0
C89 C 0.76105 0.38438 0.98028 0.0
C90 C 0.71206 0.46194 0.01837 0.0
C91 C 0.67685 0.47454 0.03676 0.0
C92 C 0.65115 0.49843 0.0144 0.0
C93 C 0.66044 0.51048 0.97337 0.0
C94 C 0.69609 0.49838 0.95527 0.0
C95 C 0.72194 0.47472 0.97784 0.0
P96 P 0.29846 0.64165 0.45391 0.0
H97 H 0.27392 0.59851 0.3806 0.0
H98 H 0.28434 0.53087 0.35855 0.0
H99 H 0.3414 0.50608 0.47616 0.0
H100 H 0.32878 0.57238 0.49863 0.0
H101 H 0.26545 0.71967 0.45448 0.0
H102 H 0.19829 0.74404 0.44898 0.0
H103 H 0.15521 0.62515 0.45049 0.0
H104 H 0.2224 0.60093 0.45656 0.0
H105 H 0.37992 0.64816 0.4774 0.0
H106 H 0.26696 0.65161 0.5391 0.0
O107 O 0.32288 0.66682 0.41715 0.0
H108 H 0.41221 0.65286 0.54519 0.0
H109 H 0.29919 0.65687 0.607 0.0
C110 C 0.30123 0.59066 0.44082 0.0
C111 C 0.28794 0.57812 0.40185 0.0
C112 C 0.29403 0.5395 0.38929 0.0
C113 C 0.31423 0.51303 0.41528 0.0
C114 C 0.32535 0.52531 0.45539 0.0
C115 C 0.31869 0.5637 0.46811 0.0
C116 C 0.24881 0.65863 0.45464 0.0
C117 C 0.24148 0.69892 0.45411 0.0
C118 C 0.20315 0.71276 0.45139 0.0
C119 C 0.17171 0.68638 0.44906 0.0
C120 C 0.17906 0.64599 0.45181 0.0
C121 C 0.21742 0.63219 0.45501 0.0
C122 C 0.32118 0.65028 0.5033 0.0
C123 C 0.36212 0.65066 0.50549 0.0
C124 C 0.38048 0.653 0.54414 0.0
C125 C 0.35808 0.65515 0.58113 0.0
C126 C 0.31701 0.65558 0.57881 0.0
C127 C 0.29864 0.65268 0.54009 0.0
P128 P 0.80705 0.84356 0.95688 0.0
H129 H 0.84812 0.78042 0.00084 0.0
H130 H 0.87213 0.77537 0.07236 0.0
H131 H 0.8107 0.8821 0.10394 0.0
H132 H 0.788 0.88763 0.03199 0.0
H133 H 0.77032 0.82001 0.87976 0.0
H134 H 0.70285 0.80444 0.86181 0.0
H135 H 0.66568 0.83254 0.98774 0.0
H136 H 0.73336 0.8474 0.00566 0.0
H137 H 0.87474 0.88872 0.98023 0.0
H138 H 0.76868 0.90808 0.91043 0.0
O139 O 0.83602 0.81508 0.92773 0.0
H140 H 0.8943 0.9563 0.9675 0.0
H141 H 0.78854 0.97604 0.89711 0.0
C142 C 0.81665 0.83456 0.01118 0.0
C143 C 0.83921 0.80228 0.02337 0.0
C144 C 0.85273 0.79934 0.06436 0.0
C145 C 0.84366 0.82863 0.09363 0.0
C146 C 0.81872 0.85947 0.08188 0.0
C147 C 0.80544 0.86245 0.04091 0.0
C148 C 0.75696 0.83386 0.94425 0.0
C149 C 0.74764 0.8228 0.9035 0.0
C150 C 0.709 0.8144 0.89316 0.0
C151 C 0.67899 0.81723 0.92344 0.0
C152 C 0.68829 0.82967 0.96394 0.0
C153 C 0.72702 0.83814 0.97421 0.0
C154 C 0.82013 0.89355 0.94668 0.0
C155 C 0.85547 0.90767 0.96251 0.0
C156 C 0.86644 0.94639 0.95556 0.0
C157 C 0.84256 0.97152 0.93196 0.0
C158 C 0.80724 0.95726 0.91572 0.0
C159 C 0.79599 0.91846 0.9232 0.0
P160 P 0.24185 0.06264 0.54574 0.0
H161 H 0.24192 0.9821 0.51576 0.0
H162 H 0.19356 0.94356 0.47789 0.0
H163 H 0.116 0.04354 0.47471 0.0
H164 H 0.16426 0.08183 0.51316 0.0
H165 H 0.32598 0.06941 0.5295 0.0
H166 H 0.36436 0.10888 0.48015 0.0
H167 H 0.25782 0.15923 0.43149 0.0
H168 H 0.21933 0.11912 0.48058 0.0
H169 H 0.20667 0.03962 0.62429 0.0
H170 H 0.22026 0.14689 0.55367 0.0
O171 O 0.27202 0.03173 0.57022 0.0
H172 H 0.16872 0.07427 0.67714 0.0
H173 H 0.1821 0.182 0.60681 0.0
C174 C 0.2064 0.03461 0.51767 0.0
C175 C 0.21445 0.99568 0.50711 0.0
C176 C 0.18684 0.9737 0.4855 0.0
C177 C 0.15106 0.9906 0.47352 0.0
C178 C 0.14347 0.02993 0.48335 0.0
C179 C 0.17092 0.05173 0.50543 0.0
C180 C 0.2698 0.09163 0.50903 0.0
C181 C 0.31076 0.08867 0.50807 0.0
C182 C 0.33269 0.11096 0.47959 0.0
C183 C 0.31399 0.13689 0.45192 0.0
C184 C 0.27289 0.13944 0.45255 0.0
C185 C 0.25094 0.11666 0.48065 0.0
C186 C 0.21675 0.09063 0.58531 0.0
C187 C 0.202 0.07082 0.62048 0.0
C188 C 0.18042 0.09077 0.6508 0.0
C189 C 0.17285 0.13108 0.64649 0.0
C190 C 0.18752 0.15099 0.61102 0.0
C191 C 0.20944 0.13089 0.58066 0.0
P192 P 0.24867 0.9188 0.03909 0.0
H193 H 0.26471 0.89562 0.12553 0.0
H194 H 0.22396 0.86535 0.18021 0.0
H195 H 0.12989 0.85257 0.09187 0.0
H196 H 0.17067 0.88269 0.03746 0.0
H197 H 0.31969 0.92727 0.9892 0.0
H198 H 0.35426 0.88354 0.9414 0.0
H199 H 0.26283 0.79717 0.95837 0.0
H200 H 0.22907 0.8407 0.00708 0.0
H201 H 0.22985 0.00121 0.05153 0.0
H202 H 0.19746 0.90931 0.96684 0.0
O203 O 0.28308 0.94457 0.06343 0.0
H204 H 0.18505 0.04605 0.01636 0.0
H205 H 0.15118 0.95331 0.93268 0.0
C206 C 0.2204 0.89223 0.07769 0.0
C207 C 0.23546 0.88598 0.11782 0.0
C208 C 0.21221 0.8686 0.14901 0.0
C209 C 0.17368 0.85679 0.14035 0.0
C210 C 0.15957 0.86104 0.09941 0.0
C211 C 0.18273 0.87869 0.06837 0.0
C212 C 0.27252 0.88672 0.00262 0.0
C213 C 0.30716 0.89887 0.98266 0.0
C214 C 0.32659 0.87404 0.95487 0.0
C215 C 0.3114 0.83674 0.94622 0.0
C216 C 0.27564 0.82544 0.96493 0.0
C217 C 0.25633 0.85028 0.99286 0.0
C218 C 0.21732 0.95215 0.01143 0.0
C219 C 0.21319 0.99074 0.02521 0.0
C220 C 0.18722 0.01623 0.00531 0.0
C221 C 0.16434 0.00332 0.97169 0.0
C222 C 0.16877 0.96451 0.95794 0.0
C223 C 0.1951 0.9392 0.9776 0.0
P224 P 0.8108 0.16436 0.46598 0.0
H225 H 0.79034 0.12208 0.39076 0.0
H226 H 0.80279 0.05512 0.36767 0.0
H227 H 0.85922 0.02994 0.48552 0.0
H228 H 0.84458 0.09559 0.50904 0.0
H229 H 0.77188 0.23956 0.45825 0.0
H230 H 0.703 0.25798 0.45068 0.0
H231 H 0.66942 0.13656 0.46379 0.0
H232 H 0.73831 0.11836 0.47181 0.0
H233 H 0.89026 0.17101 0.49579 0.0
H234 H 0.77345 0.17397 0.54877 0.0
O235 O 0.83551 0.19219 0.43173 0.0
H236 H 0.91777 0.17378 0.56617 0.0
H237 H 0.80105 0.17781 0.61916 0.0
C238 C 0.81713 0.11406 0.45122 0.0
C239 C 0.80488 0.10183 0.41175 0.0
C240 C 0.81213 0.06358 0.39859 0.0
C241 C 0.83242 0.03712 0.42451 0.0
C242 C 0.84309 0.04918 0.46483 0.0
C243 C 0.83528 0.0872 0.47814 0.0
C244 C 0.76007 0.17759 0.46409 0.0
C245 C 0.74962 0.217 0.45979 0.0
C246 C 0.71033 0.22749 0.45595 0.0
C247 C 0.68106 0.19858 0.45639 0.0
C248 C 0.69155 0.15927 0.4629 0.0
C249 C 0.73086 0.14888 0.46717 0.0
C250 C 0.82995 0.17271 0.51714 0.0
C251 C 0.8706 0.17316 0.52249 0.0
C252 C 0.88624 0.17451 0.56254 0.0
C253 C 0.86135 0.17595 0.59769 0.0
C254 C 0.82063 0.17696 0.59231 0.0
C255 C 0.80496 0.17485 0.55217 0.0
Sc256 Sc 0.98517 0.77797 0.30692 0.0
Sc257 Sc 0.98681 0.88106 0.30647 0.0
Sc258 Sc 0.97093 0.83026 0.40073 0.0
O259 O 0.98091 0.82972 0.33803 0.0
C260 C 0.91616 0.76046 0.37304 0.0
C261 C 0.93567 0.82926 0.2439 0.0
C262 C 0.91844 0.90248 0.37009 0.0
C263 C 0.05162 0.82945 0.26142 0.0
C264 C 0.0317 0.75949 0.38989 0.0
C265 C 0.03346 0.89848 0.39062 0.0
O266 O 0.93676 0.75181 0.34104 0.0
O267 O 0.94997 0.86156 0.2562 0.0
O268 O 0.92832 0.87709 0.39734 0.0
O269 O 0.03445 0.79695 0.26829 0.0
O270 O 0.01292 0.78422 0.41189 0.0
O271 O 0.02436 0.90653 0.35303 0.0
O272 O 0.02609 0.7549 0.35101 0.0
O273 O 0.03869 0.86182 0.27497 0.0
O274 O 0.01749 0.87094 0.41146 0.0
O275 O 0.94439 0.79647 0.26032 0.0
O276 O 0.92371 0.78937 0.39636 0.0
O277 O 0.93589 0.90608 0.33506 0.0
Sc278 Sc 0.99141 0.22672 0.81378 0.0
Sc279 Sc -0.00355 0.1241 0.81595 0.0
Sc280 Sc 0.98905 0.17504 0.91007 0.0
O281 O 0.99208 0.1754 0.84668 0.0
C282 C 0.04823 0.24515 0.88937 0.0
C283 C 0.05688 0.17584 0.7657 0.0
C284 C 0.04799 0.10469 0.89653 0.0
C285 C 0.94126 0.17436 0.75482 0.0
C286 C 0.93082 0.24487 0.88841 0.0
C287 C 0.93167 0.10524 0.88445 0.0
O288 O 0.0364 0.25047 0.85217 0.0
O289 O 0.04723 0.14369 0.78295 0.0
O290 O 0.03518 0.13323 0.91771 0.0
O291 O 0.94667 0.20718 0.77218 0.0
O292 O 0.94292 0.21696 0.91119 0.0
O293 O 0.94598 0.10131 0.84784 0.0
O294 O 0.94573 0.25273 0.85264 0.0
O295 O 0.95899 0.14333 0.76603 0.0
O296 O 0.9452 0.12923 0.91107 0.0
O297 O 0.03751 0.20752 0.77041 0.0
O298 O 0.03312 0.22004 0.91433 0.0
O299 O 0.03551 0.09697 0.86025 0.0
Sc300 Sc 0.48981 0.2645 0.30714 0.0
Sc301 Sc 0.4793 0.36723 0.30114 0.0
Sc302 Sc 0.46777 0.31963 0.3978 0.0
O303 O 0.47887 0.31701 0.3353 0.0
C304 C 0.42055 0.24361 0.37194 0.0
C305 C 0.43662 0.3075 0.24005 0.0
C306 C 0.40833 0.3842 0.36339 0.0
C307 C 0.55102 0.32089 0.26033 0.0
C308 C 0.53532 0.25491 0.39272 0.0
C309 C 0.52366 0.3932 0.38405 0.0
O310 O 0.4419 0.23569 0.34019 0.0
O311 O 0.44409 0.34184 0.25285 0.0
O312 O 0.41989 0.36049 0.3915 0.0
O313 O 0.53931 0.28674 0.27064 0.0
O314 O 0.51463 0.27974 0.41246 0.0
O315 O 0.5151 0.39784 0.34568 0.0
O316 O 0.53022 0.2469 0.35445 0.0
O317 O 0.5324 0.35178 0.26968 0.0
O318 O 0.50897 0.36614 0.40667 0.0
O319 O 0.45081 0.27673 0.25651 0.0
O320 O 0.42584 0.27337 0.39476 0.0
O321 O 0.42647 0.38894 0.32894 0.0
Sc322 Sc 0.48659 0.71877 0.79494 0.0
Sc323 Sc 0.49915 0.61783 0.80011 0.0
Sc324 Sc 0.48255 0.66961 0.89166 0.0
O325 O 0.48923 0.66883 0.82906 0.0
C326 C 0.53633 0.74458 0.87207 0.0
C327 C 0.55651 0.67137 0.75077 0.0
C328 C 0.54794 0.60571 0.88439 0.0
C329 C 0.44282 0.6629 0.73577 0.0
C330 C 0.42069 0.73293 0.86552 0.0
C331 C 0.43501 0.59288 0.86483 0.0
O332 O 0.53044 0.74496 0.83286 0.0
O333 O 0.5513 0.64046 0.77225 0.0
O334 O 0.53463 0.63613 0.90208 0.0
O335 O 0.44257 0.69524 0.75509 0.0
O336 O 0.42991 0.70319 0.88732 0.0
O337 O 0.44761 0.5927 0.82732 0.0
O338 O 0.44045 0.74398 0.83356 0.0
O339 O 0.46496 0.63444 0.74606 0.0
O340 O 0.44737 0.61665 0.89234 0.0
O341 O 0.53264 0.70014 0.75133 0.0
O342 O 0.5182 0.72174 0.89734 0.0
O343 O 0.53519 0.59378 0.84947 0.0
C344 C 0.1417 0.30333 0.88134 0.0
C345 C 0.1609 0.29148 0.91789 0.0
H346 H 0.09046 0.29884 0.84408 0.0
C347 C 0.14054 0.26907 0.94796 0.0
H348 H 0.15661 0.32126 0.85808 0.0
C349 C 0.10257 0.25612 0.94006 0.0
C350 C 0.08438 0.26549 0.90198 0.0
H351 H 0.15479 0.25957 0.97643 0.0
H352 H 0.08844 0.23702 0.96277 0.0
C353 C 0.10374 0.29061 0.87351 0.0
C354 C 0.83078 0.71944 0.43476 0.0
C355 C 0.83101 0.6801 0.42231 0.0
H356 H 0.85714 0.77582 0.42854 0.0
C357 C 0.85602 0.66857 0.38946 0.0
H358 H 0.81115 0.72933 0.45935 0.0
C359 C 0.8823 0.69535 0.37148 0.0
C360 C 0.88404 0.734 0.38621 0.0
H361 H 0.85684 0.63841 0.37928 0.0
H362 H 0.90265 0.68517 0.34772 0.0
C363 C 0.85705 0.74608 0.417 0.0
C364 C 0.85742 0.32777 0.90346 0.0
C365 C 0.84761 0.32274 0.94594 0.0
H366 H 0.89193 0.3071 0.85154 0.0
C367 C 0.86285 0.29077 0.96804 0.0
H368 H 0.84585 0.35236 0.8859 0.0
C369 C 0.88852 0.26487 0.94861 0.0
C370 C 0.9001 0.27056 0.90659 0.0
H371 H 0.85534 0.28616 0.00073 0.0
H372 H 0.90019 0.241 0.96719 0.0
C373 C 0.88377 0.30197 0.88393 0.0
C374 C 0.11198 0.68507 0.40513 0.0
C375 C 0.13223 0.70106 0.43897 0.0
H376 H 0.06403 0.6911 0.36305 0.0
C377 C 0.11666 0.7338 0.45959 0.0
H378 H 0.12357 0.66 0.3885 0.0
C379 C 0.08245 0.75155 0.44515 0.0
C380 C 0.06368 0.73713 0.40949 0.0
H381 H 0.13173 0.74647 0.48592 0.0
H382 H 0.07199 0.77777 0.46053 0.0
C383 C 0.0781 0.70306 0.39038 0.0
C384 C 0.61806 0.77979 0.94102 0.0
C385 C 0.63884 0.80439 0.91329 0.0
H386 H 0.56898 0.74177 0.94992 0.0
C387 C 0.62268 0.81332 0.87414 0.0
H388 H 0.6299 0.77222 0.97134 0.0
C389 C 0.58791 0.7957 0.86171 0.0
C390 C 0.56858 0.76881 0.88823 0.0
H391 H 0.6377 0.83284 0.85249 0.0
H392 H 0.57714 0.8019 0.83058 0.0
C393 C 0.58319 0.76222 0.92865 0.0
C394 C 0.33064 0.20397 0.42652 0.0
C395 C 0.33767 0.16352 0.42526 0.0
H396 H 0.35157 0.26111 0.41031 0.0
C397 C 0.36965 0.14935 0.40179 0.0
H398 H 0.30633 0.21564 0.44458 0.0
C399 C 0.39532 0.1754 0.38163 0.0
C400 C 0.38975 0.21595 0.38545 0.0
H401 H 0.37548 0.11821 0.40021 0.0
H402 H 0.42076 0.16389 0.3653 0.0
C403 C 0.35661 0.22995 0.40708 0.0
C404 C 0.33803 0.76954 0.93415 0.0
C405 C 0.33461 0.80865 0.92086 0.0
H406 H 0.36735 0.71484 0.9267 0.0
C407 C 0.35633 0.82128 0.88566 0.0
H408 H 0.322 0.75888 0.96131 0.0
C409 C 0.38275 0.79597 0.86585 0.0
C410 C 0.38802 0.75761 0.88099 0.0
H411 H 0.3538 0.85109 0.87424 0.0
H412 H 0.40033 0.80709 0.84001 0.0
C413 C 0.36435 0.74432 0.91442 0.0
C414 C 0.62242 0.24213 0.46325 0.0
C415 C 0.6405 0.20917 0.44551 0.0
H416 H 0.57425 0.28219 0.46081 0.0
C417 C 0.6214 0.18877 0.41369 0.0
H418 H 0.63656 0.25814 0.48803 0.0
C419 C 0.58604 0.2026 0.3979 0.0
C420 C 0.56899 0.23685 0.41397 0.0
H421 H 0.6349 0.16343 0.39929 0.0
H422 H 0.57283 0.18729 0.37204 0.0
C423 C 0.58674 0.25571 0.44781 0.0
C424 C 0.39793 0.50731 0.92778 0.0
C425 C 0.37778 0.48633 0.89714 0.0
H426 H 0.43096 0.55863 0.94184 0.0
C427 C 0.37109 0.50363 0.85797 0.0
H428 H 0.40301 0.49449 0.95836 0.0
C429 C 0.38732 0.5401 0.84834 0.0
C430 C 0.4099 0.55995 0.87801 0.0
H431 H 0.35553 0.48788 0.83398 0.0
H432 H 0.38396 0.55181 0.81698 0.0
C433 C 0.41355 0.54408 0.91843 0.0
C434 C 0.59974 0.47313 0.39737 0.0
C435 C 0.61269 0.46566 0.43826 0.0
H436 H 0.56152 0.4561 0.34799 0.0
C437 C 0.5951 0.43534 0.46158 0.0
H438 H 0.61293 0.49623 0.37862 0.0
C439 C 0.56573 0.41245 0.44421 0.0
C440 C 0.55324 0.41923 0.40298 0.0
H441 H 0.60401 0.42932 0.49343 0.0
H442 H 0.5532 0.38908 0.46308 0.0
C443 C 0.57039 0.45006 0.37983 0.0
C444 C 0.61531 0.56814 0.96924 0.0
C445 C 0.63304 0.53584 0.94979 0.0
H446 H 0.57497 0.6157 0.96385 0.0
C447 C 0.6238 0.52751 0.90805 0.0
H448 H 0.6223 0.57555 0.00121 0.0
C449 C 0.59658 0.55048 0.88653 0.0
C450 C 0.57829 0.58245 0.90623 0.0
H451 H 0.6369 0.50264 0.89238 0.0
H452 H 0.58959 0.54291 0.85461 0.0
C453 C 0.58836 0.59127 0.94768 0.0
C454 C 0.33434 0.44269 0.42543 0.0
C455 C 0.32909 0.4752 0.39877 0.0
H456 H 0.36345 0.38789 0.43511 0.0
C457 C 0.34389 0.47341 0.35764 0.0
H458 H 0.32235 0.44259 0.45691 0.0
C459 C 0.36677 0.44181 0.34492 0.0
C460 C 0.37587 0.4115 0.37319 0.0
H461 H 0.34067 0.4978 0.33614 0.0
H462 H 0.37974 0.44278 0.31387 0.0
C463 C 0.3577 0.41118 0.41283 0.0
C464 C 0.87452 0.0344 0.95181 0.0
C465 C 0.85696 0.01108 0.9212 0.0
H466 H 0.91159 0.08332 0.9642 0.0
C467 C 0.85849 0.02318 0.8792 0.0
H468 H 0.87328 0.02584 0.9845 0.0
C469 C 0.88049 0.05591 0.86753 0.0
C470 C 0.9011 0.07718 0.89772 0.0
H471 H 0.84524 0.00569 0.855 0.0
H472 H 0.88323 0.06313 0.83458 0.0
C473 C 0.89627 0.06737 0.94019 0.0
C474 C 0.11122 0.9297 0.46707 0.0
C475 C 0.12139 0.96695 0.45171 0.0
H476 H 0.07536 0.879 0.45997 0.0
C477 C 0.10278 0.98151 0.4158 0.0
H478 H 0.12493 0.91795 0.4949 0.0
C479 C 0.07454 0.95911 0.39552 0.0
C480 C 0.06398 0.92201 0.41121 0.0
H481 H 0.11032 0.01008 0.40321 0.0
H482 H 0.06063 0.97108 0.36792 0.0
C483 C 0.08266 0.90756 0.44719 0.0
C484 C 0.12831 0.02874 0.90869 0.0
C485 C 0.13511 0.02982 0.95201 0.0
H486 H 0.0955 0.05145 0.85713 0.0
C487 C 0.11322 0.056 0.97667 0.0
H488 H 0.14504 0.00936 0.88864 0.0
C489 C 0.08531 0.0805 0.95853 0.0
C490 C 0.07822 0.07914 0.91533 0.0
H491 H 0.11705 0.05712 0.01023 0.0
H492 H 0.06881 0.10008 0.97859 0.0
C493 C 0.10003 0.05299 0.89057 0.0
C494 C 0.86106 -0.00329 0.36686 0.0
C495 C 0.8467 -0.00098 0.40811 0.0
H496 H 0.89407 0.96413 0.32222 0.0
C497 C 0.8507 0.96621 0.43463 0.0
H498 H 0.85887 0.02136 0.34552 0.0
C499 C 0.87178 0.93335 0.42142 0.0
C500 C 0.88897 0.93257 0.3813 0.0
H501 H 0.83909 0.9666 0.46626 0.0
H502 H 0.8763 0.90953 0.4434 0.0
C503 C 0.88168 0.96381 0.35354 0.0
C504 C 0.40496 0.27302 0.13411 0.0
C505 C 0.37849 0.30262 0.12237 0.0
H506 H 0.44367 0.25112 0.181 0.0
C507 C 0.36772 0.33107 0.152 0.0
H508 H 0.41432 0.25086 0.11211 0.0
C509 C 0.38547 0.33183 0.1911 0.0
C510 C 0.41348 0.3035 0.20175 0.0
H511 H 0.34651 0.35361 0.14455 0.0
H512 H 0.37801 0.35512 0.21259 0.0
C513 C 0.42199 0.27325 0.17358 0.0
C514 C 0.6086 0.66673 0.64716 0.0
C515 C 0.64292 0.6464 0.65839 0.0
H516 H 0.55427 0.69172 0.66838 0.0
C517 C 0.65151 0.64164 0.70105 0.0
H518 H 0.60096 0.6708 0.61462 0.0
C519 C 0.62454 0.65312 0.7316 0.0
C520 C 0.58887 0.6704 0.72017 0.0
H521 H 0.67821 0.62722 0.71085 0.0
H522 H 0.63057 0.64646 0.76411 0.0
C523 C 0.58186 0.67887 0.6779 0.0
C524 C 0.62648 0.31169 0.17335 0.0
C525 C 0.64789 0.34654 0.17857 0.0
H526 H 0.57921 0.27546 0.19604 0.0
C527 C 0.64002 0.36974 0.21378 0.0
H528 H 0.63209 0.29308 0.14666 0.0
C529 C 0.61 0.35977 0.24163 0.0
C530 C 0.58721 0.32618 0.23528 0.0
H531 H 0.65552 0.39697 0.21859 0.0
H532 H 0.60352 0.37933 0.26734 0.0
C533 C 0.59652 0.3014 0.20174 0.0
C534 C 0.40712 0.62829 0.63093 0.0
C535 C 0.37777 0.6558 0.62199 0.0
H536 H 0.45028 0.60858 0.67417 0.0
C537 C 0.36816 0.68434 0.65174 0.0
H538 H 0.41468 0.60572 0.6086 0.0
C539 C 0.38869 0.68621 0.68928 0.0
C540 C 0.41875 0.65919 0.69786 0.0
H541 H 0.3456 0.70587 0.64542 0.0
H542 H 0.38137 0.70911 0.71129 0.0
C543 C 0.42726 0.62979 0.6686 0.0
C544 C 0.8696 0.79443 0.1573 0.0
C545 C 0.86346 0.8292 0.13462 0.0
H546 H 0.89696 0.76715 0.2098 0.0
C547 C 0.8791 0.86438 0.14969 0.0
H548 H 0.85752 0.76697 0.14668 0.0
C549 C 0.90154 0.8646 0.18589 0.0
C550 C 0.909 0.8296 0.20774 0.0
H551 H 0.8754 0.89159 0.13258 0.0
H552 H 0.914 0.89208 0.19595 0.0
C553 C 0.89213 0.79461 0.19351 0.0
C554 C 0.11682 0.17561 0.66628 0.0
C555 C 0.14801 0.15105 0.67827 0.0
H556 H 0.06314 0.20364 0.68539 0.0
C557 C 0.15242 0.14166 0.72082 0.0
H558 H 0.11263 0.1833 0.6337 0.0
C559 C 0.12412 0.15296 0.75002 0.0
C560 C 0.09115 0.17446 0.73747 0.0
H561 H 0.17663 0.12361 0.7312 0.0
H562 H 0.1268 0.14286 0.78209 0.0
C563 C 0.08857 0.18737 0.6958 0.0
C564 C 0.14436 0.86729 0.21109 0.0
C565 C 0.14669 0.84465 0.17466 0.0
H566 H 0.11243 0.8799 0.26723 0.0
C567 C 0.12028 0.81347 0.16964 0.0
H568 H 0.16403 0.89171 0.2157 0.0
C569 C 0.09077 0.80645 0.19952 0.0
C570 C 0.08687 0.83099 0.23438 0.0
H571 H 0.12163 0.79543 0.14194 0.0
H572 H 0.06964 0.78345 0.19403 0.0
C573 C 0.11464 0.86067 0.24048 0.0
C574 C 0.87179 0.20423 0.66857 0.0
C575 C 0.87821 0.17405 0.63979 0.0
H576 H 0.88699 0.22814 0.72805 0.0
C577 C 0.90247 0.14251 0.65053 0.0
H578 H 0.85304 0.22877 0.66072 0.0
C579 C 0.92126 0.14171 0.68897 0.0
C580 C 0.91667 0.17285 0.71713 0.0
H581 H 0.90743 0.11878 0.62877 0.0
H582 H 0.94071 0.11745 0.69576 0.0
C583 C 0.8912 0.20382 0.70691 0.0
loop_
_geom_bond_atom_site_label_1
_geom_bond_atom_site_label_2
_geom_bond_distance
_geom_bond_site_symmetry_2
_ccdc_geom_bond_type
P0 O11 1.490 . S
P0 C14 1.812 1_556 S
P0 C20 1.803 . S
P0 C26 1.819 . S
H1 C15 0.941 . S
H2 C16 0.939 . S
H3 C18 0.940 . S
H4 C19 0.940 . S
H5 C21 0.939 . S
H6 C22 0.942 . S
H7 C24 0.940 1_554 S
H8 C25 0.939 1_554 S
H9 C27 0.941 . S
H10 C31 0.939 . S
O11 P0 1.490 . S
H12 C28 0.939 . S
H13 C30 0.940 . S
C14 P0 1.812 1_554 S
C14 C15 1.389 . S
C14 C19 1.391 . S
C15 H1 0.941 . S
C15 C14 1.389 . S
C15 C16 1.397 . S
C16 H2 0.939 . S
C16 C15 1.397 . S
C16 C17 1.378 . S
C17 C16 1.378 . S
C17 C18 1.378 . S
C18 H3 0.940 . S
C18 C17 1.378 . S
C18 C19 1.396 . S
C19 H4 0.940 . S
C19 C14 1.391 . S
C19 C18 1.396 . S
C20 P0 1.803 . S
C20 C21 1.378 . S
C20 C25 1.400 . S
C21 H5 0.939 . S
C21 C20 1.378 . S
C21 C22 1.361 . S
C22 H6 0.942 . S
C22 C21 1.361 . S
C22 C23 1.369 . S
C23 C22 1.369 . S
C23 C24 1.404 . S
C24 H7 0.940 1_556 S
C24 C23 1.404 . S
C24 C25 1.389 . S
C25 H8 0.939 1_556 S
C25 C20 1.400 . S
C25 C24 1.389 . S
C26 P0 1.819 . S
C26 C27 1.391 . S
C26 C31 1.391 . S
C27 H9 0.941 . S
C27 C26 1.391 . S
C27 C28 1.396 . S
C28 H12 0.939 . S
C28 C27 1.396 . S
C28 C29 1.397 . S
C29 C28 1.397 . S
C29 C30 1.385 . S
C30 H13 0.940 . S
C30 C29 1.385 . S
C30 C31 1.388 . S
C31 H10 0.939 . S
C31 C26 1.391 . S
C31 C30 1.388 . S
P32 O43 1.490 . S
P32 C46 1.812 . S
P32 C52 1.803 . S
P32 C58 1.819 . S
H33 C47 0.941 . S
H34 C48 0.939 . S
H35 C50 0.940 . S
H36 C51 0.940 . S
H37 C53 0.939 . S
H38 C54 0.942 . S
H39 C56 0.940 . S
H40 C57 0.939 . S
H41 C59 0.941 . S
H42 C63 0.939 . S
O43 P32 1.490 . S
H44 C60 0.939 . S
H45 C62 0.940 . S
C46 P32 1.812 . S
C46 C47 1.389 . S
C46 C51 1.391 . S
C47 H33 0.941 . S
C47 C46 1.389 . S
C47 C48 1.397 . S
C48 H34 0.939 . S
C48 C47 1.397 . S
C48 C49 1.378 . S
C49 C48 1.378 . S
C49 C50 1.378 . S
C50 H35 0.940 . S
C50 C49 1.378 . S
C50 C51 1.396 . S
C51 H36 0.940 . S
C51 C46 1.391 . S
C51 C50 1.396 . S
C52 P32 1.803 . S
C52 C53 1.378 . S
C52 C57 1.400 . S
C53 H37 0.939 . S
C53 C52 1.378 . S
C53 C54 1.361 . S
C54 H38 0.942 . S
C54 C53 1.361 . S
C54 C55 1.369 . S
C55 C54 1.369 . S
C55 C56 1.404 . S
C56 H39 0.940 . S
C56 C55 1.404 . S
C56 C57 1.389 . S
C57 H40 0.939 . S
C57 C52 1.400 . S
C57 C56 1.389 . S
C58 P32 1.819 . S
C58 C59 1.391 . S
C58 C63 1.391 . S
C59 H41 0.941 . S
C59 C58 1.391 . S
C59 C60 1.396 . S
C60 H44 0.939 . S
C60 C59 1.396 . S
C60 C61 1.397 . S
C61 C60 1.397 . S
C61 C62 1.385 . S
C62 H45 0.940 . S
C62 C61 1.385 . S
C62 C63 1.388 . S
C63 H42 0.939 . S
C63 C58 1.391 . S
C63 C62 1.388 . S
P64 O75 1.490 . S
P64 C78 1.812 . S
P64 C84 1.803 . S
P64 C90 1.819 1_554 S
H65 C79 0.941 . S
H66 C80 0.939 . S
H67 C82 0.940 . S
H68 C83 0.940 . S
H69 C85 0.939 . S
H70 C86 0.942 . S
H71 C88 0.940 . S
H72 C89 0.939 1_554 S
H73 C91 0.941 . S
H74 C95 0.939 . S
O75 P64 1.490 . S
H76 C92 0.939 . S
H77 C94 0.940 . S
C78 P64 1.812 . S
C78 C79 1.389 . S
C78 C83 1.391 . S
C79 H65 0.941 . S
C79 C78 1.389 . S
C79 C80 1.397 . S
C80 H66 0.939 . S
C80 C79 1.397 . S
C80 C81 1.378 . S
C81 C80 1.378 . S
C81 C82 1.378 . S
C82 H67 0.940 . S
C82 C81 1.378 . S
C82 C83 1.396 . S
C83 H68 0.940 . S
C83 C78 1.391 . S
C83 C82 1.396 . S
C84 P64 1.803 . S
C84 C85 1.378 1_554 S
C84 C89 1.400 1_554 S
C85 H69 0.939 . S
C85 C84 1.378 1_556 S
C85 C86 1.361 . S
C86 H70 0.942 . S
C86 C85 1.361 . S
C86 C87 1.369 . S
C87 C86 1.369 . S
C87 C88 1.404 . S
C88 H71 0.940 . S
C88 C87 1.404 . S
C88 C89 1.389 . S
C89 H72 0.939 1_556 S
C89 C84 1.400 1_556 S
C89 C88 1.389 . S
C90 P64 1.819 1_556 S
C90 C91 1.391 1_556 S
C90 C95 1.391 . S
C91 H73 0.941 . S
C91 C90 1.391 1_554 S
C91 C92 1.396 1_554 S
C92 H76 0.939 . S
C92 C91 1.396 1_556 S
C92 C93 1.397 . S
C93 C92 1.397 . S
C93 C94 1.385 . S
C94 H77 0.940 . S
C94 C93 1.385 . S
C94 C95 1.388 . S
C95 H74 0.939 . S
C95 C90 1.391 . S
C95 C94 1.388 . S
P96 O107 1.490 . S
P96 C110 1.812 . S
P96 C116 1.803 . S
P96 C122 1.819 . S
H97 C111 0.941 . S
H98 C112 0.939 . S
H99 C114 0.940 . S
H100 C115 0.940 . S
H101 C117 0.939 . S
H102 C118 0.942 . S
H103 C120 0.940 . S
H104 C121 0.939 . S
H105 C123 0.941 . S
H106 C127 0.939 . S
O107 P96 1.490 . S
H108 C124 0.939 . S
H109 C126 0.940 . S
C110 P96 1.812 . S
C110 C111 1.389 . S
C110 C115 1.391 . S
C111 H97 0.941 . S
C111 C110 1.389 . S
C111 C112 1.397 . S
C112 H98 0.939 . S
C112 C111 1.397 . S
C112 C113 1.378 . S
C113 C112 1.378 . S
C113 C114 1.378 . S
C114 H99 0.940 . S
C114 C113 1.378 . S
C114 C115 1.396 . S
C115 H100 0.940 . S
C115 C110 1.391 . S
C115 C114 1.396 . S
C116 P96 1.803 . S
C116 C117 1.378 . S
C116 C121 1.400 . S
C117 H101 0.939 . S
C117 C116 1.378 . S
C117 C118 1.361 . S
C118 H102 0.942 . S
C118 C117 1.361 . S
C118 C119 1.369 . S
C119 C118 1.369 . S
C119 C120 1.404 . S
C120 H103 0.940 . S
C120 C119 1.404 . S
C120 C121 1.389 . S
C121 H104 0.939 . S
C121 C116 1.400 . S
C121 C120 1.389 . S
C122 P96 1.819 . S
C122 C123 1.391 . S
C122 C127 1.391 . S
C123 H105 0.941 . S
C123 C122 1.391 . S
C123 C124 1.396 . S
C124 H108 0.939 . S
C124 C123 1.396 . S
C124 C125 1.397 . S
C125 C124 1.397 . S
C125 C126 1.385 . S
C126 H109 0.940 . S
C126 C125 1.385 . S
C126 C127 1.388 . S
C127 H106 0.939 . S
C127 C122 1.391 . S
C127 C126 1.388 . S
P128 O139 1.490 . S
P128 C142 1.812 1_556 S
P128 C148 1.803 . S
P128 C154 1.819 . S
H129 C143 0.941 . S
H130 C144 0.939 . S
H131 C146 0.940 . S
H132 C147 0.940 . S
H133 C149 0.939 . S
H134 C150 0.942 . S
H135 C152 0.940 1_554 S
H136 C153 0.939 1_554 S
H137 C155 0.941 . S
H138 C159 0.939 . S
O139 P128 1.490 . S
H140 C156 0.939 . S
H141 C158 0.940 . S
C142 P128 1.812 1_554 S
C142 C143 1.389 . S
C142 C147 1.391 . S
C143 H129 0.941 . S
C143 C142 1.389 . S
C143 C144 1.397 . S
C144 H130 0.939 . S
C144 C143 1.397 . S
C144 C145 1.378 . S
C145 C144 1.378 . S
C145 C146 1.378 . S
C146 H131 0.940 . S
C146 C145 1.378 . S
C146 C147 1.396 . S
C147 H132 0.940 . S
C147 C142 1.391 . S
C147 C146 1.396 . S
C148 P128 1.803 . S
C148 C149 1.378 . S
C148 C153 1.400 . S
C149 H133 0.939 . S
C149 C148 1.378 . S
C149 C150 1.361 . S
C150 H134 0.942 . S
C150 C149 1.361 . S
C150 C151 1.369 . S
C151 C150 1.369 . S
C151 C152 1.404 . S
C152 H135 0.940 1_556 S
C152 C151 1.404 . S
C152 C153 1.389 . S
C153 H136 0.939 1_556 S
C153 C148 1.400 . S
C153 C152 1.389 . S
C154 P128 1.819 . S
C154 C155 1.391 . S
C154 C159 1.391 . S
C155 H137 0.941 . S
C155 C154 1.391 . S
C155 C156 1.396 . S
C156 H140 0.939 . S
C156 C155 1.396 . S
C156 C157 1.397 . S
C157 C156 1.397 . S
C157 C158 1.385 . S
C158 H141 0.940 . S
C158 C157 1.385 . S
C158 C159 1.388 . S
C159 H138 0.939 . S
C159 C154 1.391 . S
C159 C158 1.388 . S
P160 O171 1.490 . S
P160 C174 1.812 . S
P160 C180 1.803 . S
P160 C186 1.819 . S
H161 C175 0.941 . S
H162 C176 0.939 . S
H163 C178 0.940 . S
H164 C179 0.940 . S
H165 C181 0.939 . S
H166 C182 0.942 . S
H167 C184 0.940 . S
H168 C185 0.939 . S
H169 C187 0.941 . S
H170 C191 0.939 . S
O171 P160 1.490 . S
H172 C188 0.939 . S
H173 C190 0.940 . S
C174 P160 1.812 . S
C174 C175 1.389 1_545 S
C174 C179 1.391 . S
C175 H161 0.941 . S
C175 C174 1.389 1_565 S
C175 C176 1.397 . S
C176 H162 0.939 . S
C176 C175 1.397 . S
C176 C177 1.378 . S
C177 C176 1.378 . S
C177 C178 1.378 1_565 S
C178 H163 0.940 . S
C178 C177 1.378 1_545 S
C178 C179 1.396 . S
C179 H164 0.940 . S
C179 C174 1.391 . S
C179 C178 1.396 . S
C180 P160 1.803 . S
C180 C181 1.378 . S
C180 C185 1.400 . S
C181 H165 0.939 . S
C181 C180 1.378 . S
C181 C182 1.361 . S
C182 H166 0.942 . S
C182 C181 1.361 . S
C182 C183 1.369 . S
C183 C182 1.369 . S
C183 C184 1.404 . S
C184 H167 0.940 . S
C184 C183 1.404 . S
C184 C185 1.389 . S
C185 H168 0.939 . S
C185 C180 1.400 . S
C185 C184 1.389 . S
C186 P160 1.819 . S
C186 C187 1.391 . S
C186 C191 1.391 . S
C187 H169 0.941 . S
C187 C186 1.391 . S
C187 C188 1.396 . S
C188 H172 0.939 . S
C188 C187 1.396 . S
C188 C189 1.397 . S
C189 C188 1.397 . S
C189 C190 1.385 . S
C190 H173 0.940 . S
C190 C189 1.385 . S
C190 C191 1.388 . S
C191 H170 0.939 . S
C191 C186 1.391 . S
C191 C190 1.388 . S
P192 O203 1.490 . S
P192 C206 1.812 . S
P192 C212 1.803 . S
P192 C218 1.819 1_554 S
H193 C207 0.941 . S
H194 C208 0.939 . S
H195 C210 0.940 . S
H196 C211 0.940 . S
H197 C213 0.939 . S
H198 C214 0.942 . S
H199 C216 0.940 . S
H200 C217 0.939 1_554 S
H201 C219 0.941 1_545 S
H202 C223 0.939 . S
O203 P192 1.490 . S
H204 C220 0.939 . S
H205 C222 0.940 . S
C206 P192 1.812 . S
C206 C207 1.389 . S
C206 C211 1.391 . S
C207 H193 0.941 . S
C207 C206 1.389 . S
C207 C208 1.397 . S
C208 H194 0.939 . S
C208 C207 1.397 . S
C208 C209 1.378 . S
C209 C208 1.378 . S
C209 C210 1.378 . S
C210 H195 0.940 . S
C210 C209 1.378 . S
C210 C211 1.396 . S
C211 H196 0.940 . S
C211 C206 1.391 . S
C211 C210 1.396 . S
C212 P192 1.803 . S
C212 C213 1.378 1_554 S
C212 C217 1.400 1_554 S
C213 H197 0.939 . S
C213 C212 1.378 1_556 S
C213 C214 1.361 . S
C214 H198 0.942 . S
C214 C213 1.361 . S
C214 C215 1.369 . S
C215 C214 1.369 . S
C215 C216 1.404 . S
C216 H199 0.940 . S
C216 C215 1.404 . S
C216 C217 1.389 . S
C217 H200 0.939 1_556 S
C217 C212 1.400 1_556 S
C217 C216 1.389 . S
C218 P192 1.819 1_556 S
C218 C219 1.391 1_556 S
C218 C223 1.391 . S
C219 H201 0.941 1_565 S
C219 C218 1.391 1_554 S
C219 C220 1.396 1_564 S
C220 H204 0.939 . S
C220 C219 1.396 1_546 S
C220 C221 1.397 . S
C221 C220 1.397 . S
C221 C222 1.385 1_545 S
C222 H205 0.940 . S
C222 C221 1.385 1_565 S
C222 C223 1.388 . S
C223 H202 0.939 . S
C223 C218 1.391 . S
C223 C222 1.388 . S
P224 O235 1.490 . S
P224 C238 1.812 . S
P224 C244 1.803 . S
P224 C250 1.819 . S
H225 C239 0.941 . S
H226 C240 0.939 . S
H227 C242 0.940 1_565 S
H228 C243 0.940 . S
H229 C245 0.939 . S
H230 C246 0.942 . S
H231 C248 0.940 . S
H232 C249 0.939 . S
H233 C251 0.941 . S
H234 C255 0.939 . S
O235 P224 1.490 . S
H236 C252 0.939 . S
H237 C254 0.940 . S
C238 P224 1.812 . S
C238 C239 1.389 . S
C238 C243 1.391 . S
C239 H225 0.941 . S
C239 C238 1.389 . S
C239 C240 1.397 . S
C240 H226 0.939 . S
C240 C239 1.397 . S
C240 C241 1.378 . S
C241 C240 1.378 . S
C241 C242 1.378 . S
C242 H227 0.940 1_545 S
C242 C241 1.378 . S
C242 C243 1.396 . S
C243 H228 0.940 . S
C243 C238 1.391 . S
C243 C242 1.396 . S
C244 P224 1.803 . S
C244 C245 1.378 . S
C244 C249 1.400 . S
C245 H229 0.939 . S
C245 C244 1.378 . S
C245 C246 1.361 . S
C246 H230 0.942 . S
C246 C245 1.361 . S
C246 C247 1.369 . S
C247 C246 1.369 . S
C247 C248 1.404 . S
C248 H231 0.940 . S
C248 C247 1.404 . S
C248 C249 1.389 . S
C249 H232 0.939 . S
C249 C244 1.400 . S
C249 C248 1.389 . S
C250 P224 1.819 . S
C250 C251 1.391 . S
C250 C255 1.391 . S
C251 H233 0.941 . S
C251 C250 1.391 . S
C251 C252 1.396 . S
C252 H236 0.939 . S
C252 C251 1.396 . S
C252 C253 1.397 . S
C253 C252 1.397 . S
C253 C254 1.385 . S
C254 H237 0.940 . S
C254 C253 1.385 . S
C254 C255 1.388 . S
C255 H234 0.939 . S
C255 C250 1.391 . S
C255 C254 1.388 . S
Sc256 O259 2.025 . S
Sc256 O266 2.105 1_455 S
Sc256 O269 2.105 . S
Sc256 O272 2.105 . S
Sc256 O275 2.105 1_455 S
Sc257 O259 2.025 . S
Sc257 O267 2.105 1_455 S
Sc257 O271 2.105 . S
Sc257 O273 2.105 . S
Sc257 O277 2.105 1_455 S
Sc258 O259 2.025 . S
Sc258 O268 2.105 1_455 S
Sc258 O270 2.105 . S
Sc258 O274 2.105 . S
Sc258 O276 2.105 1_455 S
O259 Sc256 2.025 . S
O259 Sc257 2.025 . S
O259 Sc258 2.025 . S
C260 O266 1.268 . S
C260 O276 1.268 . S
C261 O267 1.268 . S
C261 O275 1.268 . S
C262 O268 1.268 . S
C262 O277 1.268 . S
C263 O269 1.268 . S
C263 O273 1.268 . S
C264 O270 1.268 . S
C264 O272 1.268 . S
C265 O271 1.268 . S
C265 O274 1.268 . S
O266 Sc256 2.105 1_655 S
O266 C260 1.268 . S
O267 Sc257 2.105 1_655 S
O267 C261 1.268 . S
O268 Sc258 2.105 1_655 S
O268 C262 1.268 . S
O269 Sc256 2.105 . S
O269 C263 1.268 . S
O270 Sc258 2.105 . S
O270 C264 1.268 . S
O271 Sc257 2.105 . S
O271 C265 1.268 . S
O272 Sc256 2.105 . S
O272 C264 1.268 . S
O273 Sc257 2.105 . S
O273 C263 1.268 . S
O274 Sc258 2.105 . S
O274 C265 1.268 . S
O275 Sc256 2.105 1_655 S
O275 C261 1.268 . S
O276 Sc258 2.105 1_655 S
O276 C260 1.268 . S
O277 Sc257 2.105 1_655 S
O277 C262 1.268 . S
Sc278 O281 2.025 . S
Sc278 O288 2.105 . S
Sc278 O291 2.105 1_455 S
Sc278 O294 2.105 1_455 S
Sc278 O297 2.105 . S
Sc279 O281 2.025 . S
Sc279 O289 2.105 . S
Sc279 O293 2.105 1_455 S
Sc279 O295 2.105 1_455 S
Sc279 O299 2.105 . S
Sc280 O281 2.025 . S
Sc280 O290 2.105 . S
Sc280 O292 2.105 1_455 S
Sc280 O296 2.105 1_455 S
Sc280 O298 2.105 . S
O281 Sc278 2.025 . S
O281 Sc279 2.025 . S
O281 Sc280 2.025 . S
C282 O288 1.268 . S
C282 O298 1.268 . S
C283 O289 1.268 . S
C283 O297 1.268 . S
C284 O290 1.268 . S
C284 O299 1.268 . S
C285 O291 1.268 . S
C285 O295 1.268 . S
C286 O292 1.268 . S
C286 O294 1.268 . S
C287 O293 1.268 . S
C287 O296 1.268 . S
O288 Sc278 2.105 . S
O288 C282 1.268 . S
O289 Sc279 2.105 . S
O289 C283 1.268 . S
O290 Sc280 2.105 . S
O290 C284 1.268 . S
O291 Sc278 2.105 1_655 S
O291 C285 1.268 . S
O292 Sc280 2.105 1_655 S
O292 C286 1.268 . S
O293 Sc279 2.105 1_655 S
O293 C287 1.268 . S
O294 Sc278 2.105 1_655 S
O294 C286 1.268 . S
O295 Sc279 2.105 1_655 S
O295 C285 1.268 . S
O296 Sc280 2.105 1_655 S
O296 C287 1.268 . S
O297 Sc278 2.105 . S
O297 C283 1.268 . S
O298 Sc280 2.105 . S
O298 C282 1.268 . S
O299 Sc279 2.105 . S
O299 C284 1.268 . S
Sc300 O303 2.025 . S
Sc300 O310 2.105 . S
Sc300 O313 2.105 . S
Sc300 O316 2.105 . S
Sc300 O319 2.105 . S
Sc301 O303 2.025 . S
Sc301 O311 2.105 . S
Sc301 O315 2.105 . S
Sc301 O317 2.105 . S
Sc301 O321 2.105 . S
Sc302 O303 2.025 . S
Sc302 O312 2.105 . S
Sc302 O314 2.105 . S
Sc302 O318 2.105 . S
Sc302 O320 2.105 . S
O303 Sc300 2.025 . S
O303 Sc301 2.025 . S
O303 Sc302 2.025 . S
C304 O310 1.268 . S
C304 O320 1.268 . S
C305 O311 1.268 . S
C305 O319 1.268 . S
C306 O312 1.268 . S
C306 O321 1.268 . S
C307 O313 1.268 . S
C307 O317 1.268 . S
C308 O314 1.268 . S
C308 O316 1.268 . S
C309 O315 1.268 . S
C309 O318 1.268 . S
O310 Sc300 2.105 . S
O310 C304 1.268 . S
O311 Sc301 2.105 . S
O311 C305 1.268 . S
O312 Sc302 2.105 . S
O312 C306 1.268 . S
O313 Sc300 2.105 . S
O313 C307 1.268 . S
O314 Sc302 2.105 . S
O314 C308 1.268 . S
O315 Sc301 2.105 . S
O315 C309 1.268 . S
O316 Sc300 2.105 . S
O316 C308 1.268 . S
O317 Sc301 2.105 . S
O317 C307 1.268 . S
O318 Sc302 2.105 . S
O318 C309 1.268 . S
O319 Sc300 2.105 . S
O319 C305 1.268 . S
O320 Sc302 2.105 . S
O320 C304 1.268 . S
O321 Sc301 2.105 . S
O321 C306 1.268 . S
Sc322 O325 2.025 . S
Sc322 O332 2.105 . S
Sc322 O335 2.105 . S
Sc322 O338 2.105 . S
Sc322 O341 2.105 . S
Sc323 O325 2.025 . S
Sc323 O333 2.105 . S
Sc323 O337 2.105 . S
Sc323 O339 2.105 . S
Sc323 O343 2.105 . S
Sc324 O325 2.025 . S
Sc324 O334 2.105 . S
Sc324 O336 2.105 . S
Sc324 O340 2.105 . S
Sc324 O342 2.105 . S
O325 Sc322 2.025 . S
O325 Sc323 2.025 . S
O325 Sc324 2.025 . S
C326 O332 1.268 . S
C326 O342 1.268 . S
C327 O333 1.268 . S
C327 O341 1.268 . S
C328 O334 1.268 . S
C328 O343 1.268 . S
C329 O335 1.268 . S
C329 O339 1.268 . S
C330 O336 1.268 . S
C330 O338 1.268 . S
C331 O337 1.268 . S
C331 O340 1.268 . S
O332 Sc322 2.105 . S
O332 C326 1.268 . S
O333 Sc323 2.105 . S
O333 C327 1.268 . S
O334 Sc324 2.105 . S
O334 C328 1.268 . S
O335 Sc322 2.105 . S
O335 C329 1.268 . S
O336 Sc324 2.105 . S
O336 C330 1.268 . S
O337 Sc323 2.105 . S
O337 C331 1.268 . S
O338 Sc322 2.105 . S
O338 C330 1.268 . S
O339 Sc323 2.105 . S
O339 C329 1.268 . S
O340 Sc324 2.105 . S
O340 C331 1.268 . S
O341 Sc322 2.105 . S
O341 C327 1.268 . S
O342 Sc324 2.105 . S
O342 C326 1.268 . S
O343 Sc323 2.105 . S
O343 C328 1.268 . S
C344 C345 1.387 . S
C344 H348 0.950 . S
C344 C353 1.390 . S
C345 C344 1.387 . S
C345 C347 1.387 . S
H346 C353 0.950 . S
C347 C345 1.387 . S
C347 C349 1.390 . S
C347 H351 0.950 . S
H348 C344 0.950 . S
C349 C347 1.390 . S
C349 C350 1.387 . S
C349 H352 0.950 . S
C350 C349 1.387 . S
C350 C353 1.387 . S
H351 C347 0.950 . S
H352 C349 0.950 . S
C353 C344 1.390 . S
C353 H346 0.950 . S
C353 C350 1.387 . S
C354 C355 1.387 . S
C354 H358 0.950 . S
C354 C363 1.390 . S
C355 C354 1.387 . S
C355 C357 1.387 . S
H356 C363 0.950 . S
C357 C355 1.387 . S
C357 C359 1.390 . S
C357 H361 0.950 . S
H358 C354 0.950 . S
C359 C357 1.390 . S
C359 C360 1.387 . S
C359 H362 0.950 . S
C360 C359 1.387 . S
C360 C363 1.387 . S
H361 C357 0.950 . S
H362 C359 0.950 . S
C363 C354 1.390 . S
C363 H356 0.950 . S
C363 C360 1.387 . S
C364 C365 1.387 . S
C364 H368 0.950 . S
C364 C373 1.390 . S
C365 C364 1.387 . S
C365 C367 1.387 . S
H366 C373 0.950 . S
C367 C365 1.387 . S
C367 C369 1.390 . S
C367 H371 0.950 . S
H368 C364 0.950 . S
C369 C367 1.390 . S
C369 C370 1.387 . S
C369 H372 0.950 . S
C370 C369 1.387 . S
C370 C373 1.387 . S
H371 C367 0.950 . S
H372 C369 0.950 . S
C373 C364 1.390 . S
C373 H366 0.950 . S
C373 C370 1.387 . S
C374 C375 1.387 . S
C374 H378 0.950 . S
C374 C383 1.390 . S
C375 C374 1.387 . S
C375 C377 1.387 . S
H376 C383 0.950 . S
C377 C375 1.387 . S
C377 C379 1.390 . S
C377 H381 0.950 . S
H378 C374 0.950 . S
C379 C377 1.390 . S
C379 C380 1.387 . S
C379 H382 0.950 . S
C380 C379 1.387 . S
C380 C383 1.387 . S
H381 C377 0.950 . S
H382 C379 0.950 . S
C383 C374 1.390 . S
C383 H376 0.950 . S
C383 C380 1.387 . S
C384 C385 1.387 . S
C384 H388 0.950 . S
C384 C393 1.390 . S
C385 C384 1.387 . S
C385 C387 1.387 . S
H386 C393 0.950 . S
C387 C385 1.387 . S
C387 C389 1.390 . S
C387 H391 0.950 . S
H388 C384 0.950 . S
C389 C387 1.390 . S
C389 C390 1.387 . S
C389 H392 0.950 . S
C390 C389 1.387 . S
C390 C393 1.387 . S
H391 C387 0.950 . S
H392 C389 0.950 . S
C393 C384 1.390 . S
C393 H386 0.950 . S
C393 C390 1.387 . S
C394 C395 1.387 . S
C394 H398 0.950 . S
C394 C403 1.390 . S
C395 C394 1.387 . S
C395 C397 1.387 . S
H396 C403 0.950 . S
C397 C395 1.387 . S
C397 C399 1.390 . S
C397 H401 0.950 . S
H398 C394 0.950 . S
C399 C397 1.390 . S
C399 C400 1.387 . S
C399 H402 0.950 . S
C400 C399 1.387 . S
C400 C403 1.387 . S
H401 C397 0.950 . S
H402 C399 0.950 . S
C403 C394 1.390 . S
C403 H396 0.950 . S
C403 C400 1.387 . S
C404 C405 1.387 . S
C404 H408 0.950 . S
C404 C413 1.390 . S
C405 C404 1.387 . S
C405 C407 1.387 . S
H406 C413 0.950 . S
C407 C405 1.387 . S
C407 C409 1.390 . S
C407 H411 0.950 . S
H408 C404 0.950 . S
C409 C407 1.390 . S
C409 C410 1.387 . S
C409 H412 0.950 . S
C410 C409 1.387 . S
C410 C413 1.387 . S
H411 C407 0.950 . S
H412 C409 0.950 . S
C413 C404 1.390 . S
C413 H406 0.950 . S
C413 C410 1.387 . S
C414 C415 1.387 . S
C414 H418 0.950 . S
C414 C423 1.390 . S
C415 C414 1.387 . S
C415 C417 1.387 . S
H416 C423 0.950 . S
C417 C415 1.387 . S
C417 C419 1.390 . S
C417 H421 0.950 . S
H418 C414 0.950 . S
C419 C417 1.390 . S
C419 C420 1.387 . S
C419 H422 0.950 . S
C420 C419 1.387 . S
C420 C423 1.387 . S
H421 C417 0.950 . S
H422 C419 0.950 . S
C423 C414 1.390 . S
C423 H416 0.950 . S
C423 C420 1.387 . S
C424 C425 1.387 . S
C424 H428 0.950 . S
C424 C433 1.390 . S
C425 C424 1.387 . S
C425 C427 1.387 . S
H426 C433 0.950 . S
C427 C425 1.387 . S
C427 C429 1.390 . S
C427 H431 0.950 . S
H428 C424 0.950 . S
C429 C427 1.390 . S
C429 C430 1.387 . S
C429 H432 0.950 . S
C430 C429 1.387 . S
C430 C433 1.387 . S
H431 C427 0.950 . S
H432 C429 0.950 . S
C433 C424 1.390 . S
C433 H426 0.950 . S
C433 C430 1.387 . S
C434 C435 1.387 . S
C434 H438 0.950 . S
C434 C443 1.390 . S
C435 C434 1.387 . S
C435 C437 1.387 . S
H436 C443 0.950 . S
C437 C435 1.387 . S
C437 C439 1.390 . S
C437 H441 0.950 . S
H438 C434 0.950 . S
C439 C437 1.390 . S
C439 C440 1.387 . S
C439 H442 0.950 . S
C440 C439 1.387 . S
C440 C443 1.387 . S
H441 C437 0.950 . S
H442 C439 0.950 . S
C443 C434 1.390 . S
C443 H436 0.950 . S
C443 C440 1.387 . S
C444 C445 1.387 . S
C444 H448 0.950 . S
C444 C453 1.390 . S
C445 C444 1.387 . S
C445 C447 1.387 . S
H446 C453 0.950 . S
C447 C445 1.387 . S
C447 C449 1.390 . S
C447 H451 0.950 . S
H448 C444 0.950 . S
C449 C447 1.390 . S
C449 C450 1.387 . S
C449 H452 0.950 . S
C450 C449 1.387 . S
C450 C453 1.387 . S
H451 C447 0.950 . S
H452 C449 0.950 . S
C453 C444 1.390 . S
C453 H446 0.950 . S
C453 C450 1.387 . S
C454 C455 1.387 . S
C454 H458 0.950 . S
C454 C463 1.390 . S
C455 C454 1.387 . S
C455 C457 1.387 . S
H456 C463 0.950 . S
C457 C455 1.387 . S
C457 C459 1.390 . S
C457 H461 0.950 . S
H458 C454 0.950 . S
C459 C457 1.390 . S
C459 C460 1.387 . S
C459 H462 0.950 . S
C460 C459 1.387 . S
C460 C463 1.387 . S
H461 C457 0.950 . S
H462 C459 0.950 . S
C463 C454 1.390 . S
C463 H456 0.950 . S
C463 C460 1.387 . S
C464 C465 1.387 . S
C464 H468 0.950 . S
C464 C473 1.390 . S
C465 C464 1.387 . S
C465 C467 1.387 . S
H466 C473 0.950 . S
C467 C465 1.387 . S
C467 C469 1.390 . S
C467 H471 0.950 . S
H468 C464 0.950 . S
C469 C467 1.390 . S
C469 C470 1.387 . S
C469 H472 0.950 . S
C470 C469 1.387 . S
C470 C473 1.387 . S
H471 C467 0.950 . S
H472 C469 0.950 . S
C473 C464 1.390 . S
C473 H466 0.950 . S
C473 C470 1.387 . S
C474 C475 1.387 . S
C474 H478 0.950 . S
C474 C483 1.390 . S
C475 C474 1.387 . S
C475 C477 1.387 . S
H476 C483 0.950 . S
C477 C475 1.387 . S
C477 C479 1.390 . S
C477 H481 0.950 . S
H478 C474 0.950 . S
C479 C477 1.390 . S
C479 C480 1.387 . S
C479 H482 0.950 . S
C480 C479 1.387 . S
C480 C483 1.387 . S
H481 C477 0.950 . S
H482 C479 0.950 . S
C483 C474 1.390 . S
C483 H476 0.950 . S
C483 C480 1.387 . S
C484 C485 1.387 . S
C484 H488 0.950 . S
C484 C493 1.390 . S
C485 C484 1.387 . S
C485 C487 1.387 . S
H486 C493 0.950 . S
C487 C485 1.387 . S
C487 C489 1.390 . S
C487 H491 0.950 . S
H488 C484 0.950 . S
C489 C487 1.390 . S
C489 C490 1.387 . S
C489 H492 0.950 . S
C490 C489 1.387 . S
C490 C493 1.387 . S
H491 C487 0.950 . S
H492 C489 0.950 . S
C493 C484 1.390 . S
C493 H486 0.950 . S
C493 C490 1.387 . S
C494 C495 1.387 . S
C494 H498 0.950 1_565 S
C494 C503 1.390 . S
C495 C494 1.387 . S
C495 C497 1.387 . S
H496 C503 0.950 . S
C497 C495 1.387 . S
C497 C499 1.390 . S
C497 H501 0.950 . S
H498 C494 0.950 1_545 S
C499 C497 1.390 . S
C499 C500 1.387 . S
C499 H502 0.950 . S
C500 C499 1.387 . S
C500 C503 1.387 . S
H501 C497 0.950 . S
H502 C499 0.950 . S
C503 C494 1.390 . S
C503 H496 0.950 . S
C503 C500 1.387 . S
C504 C505 1.387 . S
C504 H508 0.950 . S
C504 C513 1.390 . S
C505 C504 1.387 . S
C505 C507 1.387 . S
H506 C513 0.950 . S
C507 C505 1.387 . S
C507 C509 1.390 . S
C507 H511 0.950 . S
H508 C504 0.950 . S
C509 C507 1.390 . S
C509 C510 1.387 . S
C509 H512 0.950 . S
C510 C509 1.387 . S
C510 C513 1.387 . S
H511 C507 0.950 . S
H512 C509 0.950 . S
C513 C504 1.390 . S
C513 H506 0.950 . S
C513 C510 1.387 . S
C514 C515 1.387 . S
C514 H518 0.950 . S
C514 C523 1.390 . S
C515 C514 1.387 . S
C515 C517 1.387 . S
H516 C523 0.950 . S
C517 C515 1.387 . S
C517 C519 1.390 . S
C517 H521 0.950 . S
H518 C514 0.950 . S
C519 C517 1.390 . S
C519 C520 1.387 . S
C519 H522 0.950 . S
C520 C519 1.387 . S
C520 C523 1.387 . S
H521 C517 0.950 . S
H522 C519 0.950 . S
C523 C514 1.390 . S
C523 H516 0.950 . S
C523 C520 1.387 . S
C524 C525 1.387 . S
C524 H528 0.950 . S
C524 C533 1.390 . S
C525 C524 1.387 . S
C525 C527 1.387 . S
H526 C533 0.950 . S
C527 C525 1.387 . S
C527 C529 1.390 . S
C527 H531 0.950 . S
H528 C524 0.950 . S
C529 C527 1.390 . S
C529 C530 1.387 . S
C529 H532 0.950 . S
C530 C529 1.387 . S
C530 C533 1.387 . S
H531 C527 0.950 . S
H532 C529 0.950 . S
C533 C524 1.390 . S
C533 H526 0.950 . S
C533 C530 1.387 . S
C534 C535 1.387 . S
C534 H538 0.950 . S
C534 C543 1.390 . S
C535 C534 1.387 . S
C535 C537 1.387 . S
H536 C543 0.950 . S
C537 C535 1.387 . S
C537 C539 1.390 . S
C537 H541 0.950 . S
H538 C534 0.950 . S
C539 C537 1.390 . S
C539 C540 1.387 . S
C539 H542 0.950 . S
C540 C539 1.387 . S
C540 C543 1.387 . S
H541 C537 0.950 . S
H542 C539 0.950 . S
C543 C534 1.390 . S
C543 H536 0.950 . S
C543 C540 1.387 . S
C544 C545 1.387 . S
C544 H548 0.950 . S
C544 C553 1.390 . S
C545 C544 1.387 . S
C545 C547 1.387 . S
H546 C553 0.950 . S
C547 C545 1.387 . S
C547 C549 1.390 . S
C547 H551 0.950 . S
H548 C544 0.950 . S
C549 C547 1.390 . S
C549 C550 1.387 . S
C549 H552 0.950 . S
C550 C549 1.387 . S
C550 C553 1.387 . S
H551 C547 0.950 . S
H552 C549 0.950 . S
C553 C544 1.390 . S
C553 H546 0.950 . S
C553 C550 1.387 . S
C554 C555 1.387 . S
C554 H558 0.950 . S
C554 C563 1.390 . S
C555 C554 1.387 . S
C555 C557 1.387 . S
H556 C563 0.950 . S
C557 C555 1.387 . S
C557 C559 1.390 . S
C557 H561 0.950 . S
H558 C554 0.950 . S
C559 C557 1.390 . S
C559 C560 1.387 . S
C559 H562 0.950 . S
C560 C559 1.387 . S
C560 C563 1.387 . S
H561 C557 0.950 . S
H562 C559 0.950 . S
C563 C554 1.390 . S
C563 H556 0.950 . S
C563 C560 1.387 . S
C564 C565 1.387 . S
C564 H568 0.950 . S
C564 C573 1.390 . S
C565 C564 1.387 . S
C565 C567 1.387 . S
H566 C573 0.950 . S
C567 C565 1.387 . S
C567 C569 1.390 . S
C567 H571 0.950 . S
H568 C564 0.950 . S
C569 C567 1.390 . S
C569 C570 1.387 . S
C569 H572 0.950 . S
C570 C569 1.387 . S
C570 C573 1.387 . S
H571 C567 0.950 . S
H572 C569 0.950 . S
C573 C564 1.390 . S
C573 H566 0.950 . S
C573 C570 1.387 . S
C574 C575 1.387 . S
C574 H578 0.950 . S
C574 C583 1.390 . S
C575 C574 1.387 . S
C575 C577 1.387 . S
H576 C583 0.950 . S
C577 C575 1.387 . S
C577 C579 1.390 . S
C577 H581 0.950 . S
H578 C574 0.950 . S
C579 C577 1.390 . S
C579 C580 1.387 . S
C579 H582 0.950 . S
C580 C579 1.387 . S
C580 C583 1.387 . S
H581 C577 0.950 . S
H582 C579 0.950 . S
C583 C574 1.390 . S
C583 H576 0.950 . S
C583 C580 1.387 . S
C345 C23 1.500 . S
C350 C282 1.538 . S
C360 C260 1.500 . S
C355 C55 1.553 . S
C370 C286 1.538 . S
C365 C87 1.598 . S
C380 C264 1.500 . S
C375 C119 1.452 . S
C390 C326 1.537 . S
C385 C151 1.498 . S
C400 C304 1.500 . S
C395 C183 1.552 . S
C405 C215 1.597 . S
C410 C330 1.540 . S
C420 C308 1.503 . S
C415 C247 1.456 . S
C425 C29 1.503 . S
C430 C331 1.595 . S
C440 C309 1.530 . S
C435 C49 1.528 . S
C445 C93 1.589 . S
C450 C328 1.596 . S
C455 C113 1.453 . S
C460 C306 1.530 . S
C470 C287 1.595 . S
C465 C157 1.504 1_545 S
C475 C177 1.529 . S
C480 C265 1.527 . S
C490 C284 1.595 . S
C485 C221 1.588 . S
C500 C262 1.529 . S
C495 C241 1.456 1_565 S
C510 C305 1.546 . S
C505 C17 1.461 . S
C520 C327 1.555 . S
C515 C61 1.566 . S
C525 C81 1.558 . S
C530 C307 1.547 . S
C540 C329 1.555 . S
C535 C125 1.449 . S
C550 C261 1.546 . S
C545 C145 1.464 . S
C555 C189 1.566 . S
C560 C283 1.553 . S
C565 C209 1.559 . S
C570 C263 1.544 . S
C575 C253 1.446 . S
C580 C285 1.558 . S
