# Generated by pormake.
# Topology pyr, (3,6)-cn, num edge types: 1
# Building blocks:
#     Node 0, Type 0, BuildingBlock: BETDAH_clean_linker_0, # of connection points: 3
#     Node 1, Type 0, BuildingBlock: BETDAH_clean_linker_0, # of connection points: 3
#     Node 2, Type 0, BuildingBlock: BETDAH_clean_linker_0, # of connection points: 3
#     Node 3, Type 0, BuildingBlock: BETDAH_clean_linker_0, # of connection points: 3
#     Node 4, Type 0, BuildingBlock: BETDAH_clean_linker_0, # of connection points: 3
#     Node 5, Type 0, BuildingBlock: BETDAH_clean_linker_0, # of connection points: 3
#     Node 6, Type 0, BuildingBlock: BETDAH_clean_linker_0, # of connection points: 3
#     Node 7, Type 0, BuildingBlock: BETDAH_clean_linker_0, # of connection points: 3
#     Node 8, Type 1, BuildingBlock: MIFKUJ_clean_sbu_0, # of connection points: 6
#     Node 9, Type 1, BuildingBlock: MIFKUJ_clean_sbu_0, # of connection points: 6
#     Node 10, Type 1, BuildingBlock: MIFKUJ_clean_sbu_0, # of connection points: 6
#     Node 11, Type 1, BuildingBlock: MIFKUJ_clean_sbu_0, # of connection points: 6
#     Edge 12, Type (0, 1), BuildingBlock: CIFDUS_clean_linker_0, # of connection points: 2
#     Edge 13, Type (0, 1), BuildingBlock: CIFDUS_clean_linker_0, # of connection points: 2
#     Edge 14, Type (0, 1), BuildingBlock: CIFDUS_clean_linker_0, # of connection points: 2
#     Edge 15, Type (0, 1), BuildingBlock: CIFDUS_clean_linker_0, # of connection points: 2
#     Edge 16, Type (0, 1), BuildingBlock: CIFDUS_clean_linker_0, # of connection points: 2
#     Edge 17, Type (0, 1), BuildingBlock: CIFDUS_clean_linker_0, # of connection points: 2
#     Edge 18, Type (0, 1), BuildingBlock: CIFDUS_clean_linker_0, # of connection points: 2
#     Edge 19, Type (0, 1), BuildingBlock: CIFDUS_clean_linker_0, # of connection points: 2
#     Edge 20, Type (0, 1), BuildingBlock: CIFDUS_clean_linker_0, # of connection points: 2
#     Edge 21, Type (0, 1), BuildingBlock: CIFDUS_clean_linker_0, # of connection points: 2
#     Edge 22, Type (0, 1), BuildingBlock: CIFDUS_clean_linker_0, # of connection points: 2
#     Edge 23, Type (0, 1), BuildingBlock: CIFDUS_clean_linker_0, # of connection points: 2
#     Edge 24, Type (0, 1), BuildingBlock: CIFDUS_clean_linker_0, # of connection points: 2
#     Edge 25, Type (0, 1), BuildingBlock: CIFDUS_clean_linker_0, # of connection points: 2
#     Edge 26, Type (0, 1), BuildingBlock: CIFDUS_clean_linker_0, # of connection points: 2
#     Edge 27, Type (0, 1), BuildingBlock: CIFDUS_clean_linker_0, # of connection points: 2
#     Edge 28, Type (0, 1), BuildingBlock: CIFDUS_clean_linker_0, # of connection points: 2
#     Edge 29, Type (0, 1), BuildingBlock: CIFDUS_clean_linker_0, # of connection points: 2
#     Edge 30, Type (0, 1), BuildingBlock: CIFDUS_clean_linker_0, # of connection points: 2
#     Edge 31, Type (0, 1), BuildingBlock: CIFDUS_clean_linker_0, # of connection points: 2
#     Edge 32, Type (0, 1), BuildingBlock: CIFDUS_clean_linker_0, # of connection points: 2
#     Edge 33, Type (0, 1), BuildingBlock: CIFDUS_clean_linker_0, # of connection points: 2
#     Edge 34, Type (0, 1), BuildingBlock: CIFDUS_clean_linker_0, # of connection points: 2
#     Edge 35, Type (0, 1), BuildingBlock: CIFDUS_clean_linker_0, # of connection points: 2
# Relax obj value: 0.057
# Max RMSD: 0.192
# Mean RMSD: 0.126
data_MOF--net-pyr--node1-MIFKUJ_clean_sbu_0--node2-BETDAH_clean_linker_0--edge1-CIFDUS_clean_linker_0
_symmetry_space_group_name_H-M    P1
_symmetry_Int_Tables_number       1
_symmetry_cell_setting            triclinic
loop_
_symmetry_equiv_pos_as_xyz
'x, y, z'
_cell_length_a     33.701771
_cell_length_b     30.620859
_cell_length_c     33.71431
_cell_angle_alpha  85.707281
_cell_angle_beta   88.418057
_cell_angle_gamma 104.16307
loop_
_atom_site_label
_atom_site_type_symbol
_atom_site_fract_x
_atom_site_fract_y
_atom_site_fract_z
_atom_type_partial_charge
H0 H 0.23245 0.11915 0.24618 0.0
H1 H 0.27083 0.22759 0.15391 0.0
H2 H 0.16218 0.2185 0.2261 0.0
C3 C 0.22772 0.14909 0.22977 0.0
C4 C 0.19357 0.16571 0.24002 0.0
C5 C 0.25615 0.17119 0.19891 0.0
C6 C 0.24975 0.21015 0.17814 0.0
C7 C 0.2159 0.22684 0.18736 0.0
C8 C 0.18763 0.20456 0.21816 0.0
N9 N 0.21285 0.26751 0.16608 0.0
C10 C 0.17703 0.28153 0.16064 0.0
H11 H 0.42836 0.83052 0.77066 0.0
H12 H 0.3748 0.94105 0.79262 0.0
H13 H 0.3497 0.87407 0.68576 0.0
C14 C 0.40931 0.85294 0.76158 0.0
C15 C 0.38945 0.84777 0.7253 0.0
C16 C 0.40452 0.88662 0.78629 0.0
C17 C 0.37973 0.9154 0.77392 0.0
C18 C 0.3598 0.91089 0.73813 0.0
C19 C 0.36456 0.87701 0.71385 0.0
N20 N 0.33574 0.94169 0.72756 0.0
C21 C 0.30657 0.93611 0.6988 0.0
H22 H 0.68995 0.34657 0.93264 0.0
H23 H 0.70779 0.40917 0.81222 0.0
H24 H 0.6137 0.28795 0.84035 0.0
C25 C 0.68159 0.34742 0.90184 0.0
C26 C 0.64903 0.31331 0.89004 0.0
C27 C 0.70296 0.38271 0.87419 0.0
C28 C 0.69095 0.38349 0.83449 0.0
C29 C 0.65856 0.34973 0.8226 0.0
C30 C 0.63785 0.31473 0.85024 0.0
N31 N 0.64991 0.34781 0.78191 0.0
C32 C 0.62733 0.37484 0.76298 0.0
H33 H 0.78608 0.72516 0.37968 0.0
H34 H 0.86596 0.71509 0.28033 0.0
H35 H 0.74316 0.63148 0.29247 0.0
C36 C 0.79155 0.71008 0.35263 0.0
C37 C 0.75989 0.67691 0.33859 0.0
C38 C 0.8299 0.72453 0.33172 0.0
C39 C 0.83678 0.70402 0.29693 0.0
C40 C 0.80511 0.67053 0.28284 0.0
C41 C 0.7671 0.65756 0.30359 0.0
N42 N 0.80926 0.64974 0.2473 0.0
C43 C 0.8457 0.65117 0.22649 0.0
H44 H 0.9109 0.84474 0.77979 0.0
H45 H 0.86847 0.88298 0.89064 0.0
H46 H 0.87927 0.97242 0.78507 0.0
C47 C 0.89966 0.86862 0.79627 0.0
C48 C 0.89496 0.9091 0.77642 0.0
C49 C 0.89121 0.85929 0.83765 0.0
C50 C 0.87549 0.88974 0.85887 0.0
C51 C 0.8707 0.93011 0.83952 0.0
C52 C 0.88139 0.94005 0.7989 0.0
N53 N 0.85856 0.96318 0.86087 0.0
C54 C 0.82433 0.95383 0.88697 0.0
H55 H 0.72827 0.14597 0.31947 0.0
H56 H 0.74586 0.20043 0.43373 0.0
H57 H 0.64278 0.2148 0.3673 0.0
C58 C 0.71876 0.16407 0.3429 0.0
C59 C 0.68302 0.17987 0.33885 0.0
C60 C 0.74208 0.17123 0.37694 0.0
C61 C 0.72853 0.19397 0.4073 0.0
C62 C 0.6932 0.20994 0.40384 0.0
C63 C 0.67068 0.20335 0.36945 0.0
N64 N 0.68026 0.23041 0.43659 0.0
C65 C 0.65921 0.26422 0.4337 0.0
H66 H 0.28874 0.73259 0.15701 0.0
H67 H 0.25733 0.62172 0.2473 0.0
H68 H 0.37113 0.72171 0.251 0.0
C69 C 0.29633 0.7147 0.18357 0.0
C70 C 0.33344 0.73195 0.20181 0.0
C71 C 0.2684 0.67529 0.19996 0.0
C72 C 0.27835 0.65254 0.23441 0.0
C73 C 0.31506 0.6687 0.25284 0.0
C74 C 0.34297 0.70846 0.23644 0.0
N75 N 0.32146 0.64398 0.28834 0.0
C76 C 0.35547 0.65286 0.31153 0.0
H77 H 0.20837 0.32934 0.66115 0.0
H78 H 0.15948 0.42375 0.72327 0.0
H79 H 0.08092 0.29619 0.69919 0.0
C80 C 0.18276 0.33807 0.67591 0.0
C81 C 0.14417 0.3072 0.67852 0.0
C82 C 0.18872 0.38032 0.6916 0.0
C83 C 0.1555 0.39117 0.71132 0.0
C84 C 0.11653 0.36082 0.7137 0.0
C85 C 0.11101 0.3194 0.69685 0.0
N86 N 0.08196 0.37148 0.73175 0.0
C87 C 0.08404 0.39774 0.76386 0.0
Zn88 Zn 0.06907 0.0017 0.52686 0.0
Zn89 Zn 0.98238 0.01905 0.47637 0.0
C90 C 0.0973 0.08365 0.56226 0.0
O91 O 0.13202 0.0738 0.55292 0.0
C92 C 0.96495 0.93589 0.43256 0.0
O93 O 0.00441 0.93822 0.43138 0.0
O94 O 0.11287 0.97806 0.55535 0.0
O95 O 0.01721 0.95283 0.53547 0.0
O96 O 0.97838 1.00057 0.53601 0.0
C97 C 0.10923 0.97294 0.59318 0.0
O98 O 0.07786 0.98291 0.61106 0.0
O99 O 0.06387 0.05747 0.55327 0.0
C100 C 0.93413 0.07204 0.43437 0.0
O101 O 0.94941 0.05762 0.40304 0.0
O102 O 0.94604 0.06229 0.46866 0.0
O103 O 0.03667 0.04457 0.44415 0.0
O104 O 0.08855 0.02148 0.47054 0.0
O105 O 0.9514 0.96504 0.45003 0.0
C106 C 0.98868 0.9663 0.552 0.0
C107 C 0.0738 0.04169 0.44242 0.0
Zn108 Zn 0.56489 0.99853 0.04721 0.0
Zn109 Zn 0.50299 0.04488 0.09509 0.0
C110 C 0.51347 0.95327 0.98928 0.0
O111 O 0.52541 0.91903 0.0065 0.0
C112 C 0.55255 0.09441 0.15199 0.0
O113 O 0.53659 0.12611 0.13567 0.0
O114 O 0.61328 0.97909 0.02312 0.0
O115 O 0.58689 0.06527 0.05408 0.0
O116 O 0.52818 0.08281 0.04525 0.0
C117 C 0.62479 0.99914 0.98874 0.0
O118 O 0.60581 0.0292 0.97445 0.0
O119 O 0.52464 0.99173 1.00311 0.0
C120 C 0.42746 0.04419 0.13809 0.0
O121 O 0.43073 0.00388 0.15141 0.0
O122 O 0.45485 0.0684 0.1135 0.0
O123 O 0.48097 0.97819 0.09104 0.0
O124 O 0.53803 0.95523 0.09453 0.0
O125 O 0.54341 0.05544 0.13888 0.0
C126 C 0.56689 0.09259 0.0399 0.0
C127 C 0.4995 0.94792 0.10136 0.0
Zn128 Zn 0.50562 0.50763 0.53286 0.0
Zn129 Zn 0.48399 0.58511 0.57759 0.0
C130 C 0.56186 0.56482 0.47808 0.0
O131 O 0.53437 0.54241 0.45528 0.0
C132 C 0.41259 0.53408 0.62736 0.0
O133 O 0.42955 0.5585 0.65569 0.0
O134 O 0.51506 0.45181 0.50839 0.0
O135 O 0.50145 0.4927 0.59169 0.0
O136 O 0.53057 0.56255 0.60321 0.0
C137 C 0.55181 0.44782 0.50675 0.0
O138 O 0.58057 0.4783 0.52184 0.0
O139 O 0.55617 0.55727 0.51568 0.0
C140 C 0.44844 0.65648 0.60241 0.0
O141 O 0.41725 0.63472 0.58322 0.0
O142 O 0.48089 0.64222 0.60319 0.0
O143 O 0.48264 0.59753 0.51727 0.0
O144 O 0.45806 0.52548 0.5083 0.0
O145 O 0.43091 0.53919 0.59322 0.0
C146 C 0.52436 0.52029 0.61258 0.0
C147 C 0.46227 0.56698 0.49687 0.0
Zn148 Zn 0.98422 0.58348 0.98006 0.0
Zn149 Zn 0.02071 0.50828 0.03174 0.0
C150 C 0.91213 0.5378 0.9434 0.0
O151 O 0.925 0.57283 0.91727 0.0
C152 C 0.07516 0.56148 0.07966 0.0
O153 O 0.04754 0.53597 0.10539 0.0
O154 O 0.97252 0.64084 0.95415 0.0
O155 O 0.99 0.59222 0.03885 0.0
O156 O 0.97122 0.51996 0.05941 0.0
C157 C 0.97705 0.67785 0.97031 0.0
O158 O 0.99256 0.68129 0.00559 0.0
O159 O 0.93299 0.53386 0.97377 0.0
C160 C 0.06186 0.43936 0.04125 0.0
O161 O 0.0796 0.46261 0.00844 0.0
O162 O 0.03306 0.45187 0.05865 0.0
O163 O 0.01816 0.49852 0.97347 0.0
O164 O 0.02969 0.56884 0.94699 0.0
O165 O 0.0702 0.55765 0.04269 0.0
C166 C 0.97174 0.56077 0.06464 0.0
C167 C 0.03098 0.52796 0.9444 0.0
H168 H 0.21328 0.13036 0.31122 0.0
H169 H 0.10974 0.15113 0.24656 0.0
H170 H 0.0636 0.11532 0.30338 0.0
H171 H 0.05261 0.07741 0.37147 0.0
H172 H 0.15667 0.05447 0.43425 0.0
H173 H 0.20232 0.09087 0.37774 0.0
C174 C 0.18057 0.1265 0.30916 0.0
C175 C 0.16515 0.14338 0.27442 0.0
C176 C 0.15416 0.10527 0.34165 0.0
C177 C 0.12266 0.13897 0.27298 0.0
C178 C 0.09617 0.11821 0.30541 0.0
C179 C 0.08526 0.08032 0.37279 0.0
C180 C 0.10102 0.06311 0.40722 0.0
C181 C 0.11158 0.10121 0.33994 0.0
C182 C 0.14349 0.06713 0.40822 0.0
C183 C 0.16975 0.0881 0.37589 0.0
H184 H 0.4373 0.9646 0.82106 0.0
H185 H 0.41654 0.81952 0.84003 0.0
H186 H 0.44789 0.82739 0.90427 0.0
H187 H 0.48069 0.87529 0.95548 0.0
H188 H 0.49789 0.01995 0.93801 0.0
H189 H 0.46702 0.0121 0.87342 0.0
C190 C 0.43901 0.93453 0.83936 0.0
C191 C 0.4245 0.89149 0.82533 0.0
C192 C 0.45607 0.93916 0.87685 0.0
C193 C 0.42804 0.85317 0.84941 0.0
C194 C 0.44561 0.85758 0.88646 0.0
C195 C 0.47748 0.90512 0.93767 0.0
C196 C 0.49165 0.94816 0.95164 0.0
C197 C 0.45965 0.90039 0.90051 0.0
C198 C 0.48711 0.98639 0.92816 0.0
C199 C 0.46964 0.98196 0.89108 0.0
H200 H 0.64269 0.46384 0.7385 0.0
H201 H 0.55545 0.33539 0.73485 0.0
H202 H 0.51416 0.37001 0.6896 0.0
H203 H 0.50528 0.43529 0.64803 0.0
H204 H 0.59188 0.5646 0.65051 0.0
H205 H 0.63082 0.53151 0.69966 0.0
C206 C 0.61434 0.44384 0.72805 0.0
C207 C 0.6018 0.39733 0.73967 0.0
C208 C 0.59088 0.46404 0.70182 0.0
C209 C 0.56534 0.37133 0.72614 0.0
C210 C 0.54187 0.39106 0.70025 0.0
C211 C 0.53254 0.45641 0.65945 0.0
C212 C 0.54589 0.50225 0.6453 0.0
C213 C 0.55471 0.43717 0.6874 0.0
C214 C 0.58097 0.5292 0.66087 0.0
C215 C 0.60333 0.51024 0.68884 0.0
H216 H 0.86306 0.57262 0.21682 0.0
H217 H 0.89705 0.71391 0.17587 0.0
H218 H 0.94201 0.69869 0.12277 0.0
H219 H 0.96645 0.64387 0.0849 0.0
H220 H 0.92992 0.5019 0.12517 0.0
H221 H 0.89125 0.51862 0.18179 0.0
C222 C 0.88111 0.60008 0.19671 0.0
C223 C 0.87743 0.64424 0.20006 0.0
C224 C 0.90588 0.5908 0.16593 0.0
C225 C 0.9001 0.67973 0.17379 0.0
C226 C 0.92544 0.67093 0.14337 0.0
C227 C 0.95028 0.61659 0.10618 0.0
C228 C 0.95074 0.57161 0.10044 0.0
C229 C 0.92777 0.6264 0.13859 0.0
C230 C 0.92985 0.53678 0.12858 0.0
C231 C 0.90773 0.54628 0.16104 0.0
H232 H 0.26118 0.0833 0.19745 0.0
H233 H 0.3339 0.22088 0.17648 0.0
H234 H 0.39238 0.19396 0.15442 0.0
H235 H 0.42314 0.13145 0.14039 0.0
H236 H 0.35244 0.99391 0.16632 0.0
H237 H 0.29333 0.02073 0.18775 0.0
C238 C 0.28994 0.10747 0.18869 0.0
C239 C 0.29264 0.15416 0.18817 0.0
C240 C 0.32396 0.09177 0.17683 0.0
C241 C 0.33031 0.18479 0.17625 0.0
C242 C 0.36401 0.16944 0.16386 0.0
C243 C 0.39474 0.1074 0.15065 0.0
C244 C 0.39205 0.06081 0.15145 0.0
C245 C 0.36111 0.12304 0.16369 0.0
C246 C 0.35528 0.02999 0.16541 0.0
C247 C 0.32144 0.04529 0.17763 0.0
H248 H 0.2289 0.9278 0.72167 0.0
H249 H 0.31084 0.94637 0.61819 0.0
H250 H 0.25553 0.9565 0.5751 0.0
H251 H 0.1851 0.96569 0.56795 0.0
H252 H 0.1045 0.94927 0.67276 0.0
H253 H 0.15781 0.93246 0.71422 0.0
C254 C 0.23426 0.93331 0.68958 0.0
C255 C 0.27336 0.93612 0.67279 0.0
C256 C 0.20267 0.93989 0.66538 0.0
C257 C 0.2806 0.94378 0.63143 0.0
C258 C 0.2491 0.94978 0.60695 0.0
C259 C 0.17909 0.95796 0.59979 0.0
C260 C 0.14093 0.95912 0.61722 0.0
C261 C 0.21018 0.94877 0.62369 0.0
C262 C 0.13367 0.94904 0.65856 0.0
C263 C 0.16414 0.93936 0.68236 0.0
H264 H 0.76214 0.37164 0.92537 0.0
H265 H 0.72442 0.47295 0.84973 0.0
H266 H 0.78567 0.52931 0.86451 0.0
H267 H 0.85077 0.54956 0.89719 0.0
H268 H 0.8873 0.45016 0.97578 0.0
H269 H 0.82511 0.3935 0.9622 0.0
C270 C 0.76685 0.40619 0.91264 0.0
C271 C 0.73874 0.41773 0.88605 0.0
C272 C 0.80195 0.43879 0.92174 0.0
C273 C 0.74585 0.46271 0.86955 0.0
C274 C 0.7808 0.49512 0.87817 0.0
C275 C 0.84513 0.51549 0.9114 0.0
C276 C 0.87376 0.5039 0.93712 0.0
C277 C 0.80926 0.4834 0.9038 0.0
C278 C 0.86572 0.45986 0.95581 0.0
C279 C 0.83024 0.42747 0.94798 0.0
H280 H 0.74341 0.65952 0.4188 0.0
H281 H 0.68482 0.66162 0.30663 0.0
H282 H 0.618 0.63039 0.34063 0.0
H283 H 0.57686 0.5975 0.40117 0.0
H284 H 0.63441 0.59532 0.51379 0.0
H285 H 0.70093 0.63283 0.48077 0.0
C286 C 0.71596 0.65388 0.4019 0.0
C287 C 0.71919 0.66221 0.36014 0.0
C288 C 0.67749 0.63595 0.42168 0.0
C289 C 0.68329 0.65451 0.33867 0.0
C290 C 0.64504 0.6369 0.35809 0.0
C291 C 0.60388 0.60563 0.4186 0.0
C292 C 0.60083 0.59324 0.45975 0.0
C293 C 0.64189 0.62662 0.39942 0.0
C294 C 0.63599 0.60451 0.48202 0.0
C295 C 0.67405 0.6257 0.46312 0.0
H296 H 0.16021 0.2944 0.08524 0.0
H297 H 0.12646 0.31842 0.20418 0.0
H298 H 0.08282 0.36631 0.17747 0.0
H299 H 0.06067 0.40781 0.11949 0.0
H300 H 0.09945 0.38665 1.00091 0.0
H301 H 0.13433 0.33089 0.02799 0.0
C302 C 0.14248 0.30938 0.10521 0.0
C303 C 0.14593 0.30294 0.14638 0.0
C304 C 0.11874 0.33771 0.08958 0.0
C305 C 0.12365 0.32281 0.17228 0.0
C306 C 0.09902 0.35034 0.15698 0.0
C307 C 0.07611 0.39028 0.09968 0.0
C308 C 0.0777 0.40145 0.05828 0.0
C309 C 0.09719 0.359 0.11559 0.0
C310 C 0.09813 0.37889 0.03289 0.0
C311 C 0.11808 0.347 0.04833 0.0
H312 H 0.68323 0.26071 0.94013 0.0
H313 H 0.56671 0.28003 0.90349 0.0
H314 H 0.53095 0.21451 0.94787 0.0
H315 H 0.53288 0.15036 0.99526 0.0
H316 H 0.64949 0.12905 0.03 0.0
H317 H 0.68511 0.19681 0.9884 0.0
C318 C 0.65001 0.25082 0.94229 0.0
C319 C 0.62759 0.27514 0.91869 0.0
C320 C 0.6297 0.21268 0.96737 0.0
C321 C 0.58457 0.26162 0.92124 0.0
C322 C 0.56415 0.22425 0.94662 0.0
C323 C 0.56609 0.16066 0.99398 0.0
C324 C 0.58844 0.13463 0.01581 0.0
C325 C 0.5864 0.19928 0.96953 0.0
C326 C 0.63148 0.14838 0.01351 0.0
C327 C 0.65191 0.18716 0.98971 0.0
H328 H 0.81874 0.80182 0.35876 0.0
H329 H 0.91261 0.73178 0.3365 0.0
H330 H 0.96342 0.79184 0.36449 0.0
H331 H 0.98014 0.86271 0.39842 0.0
H332 H 0.88414 0.92969 0.42233 0.0
H333 H 0.83515 0.87185 0.39129 0.0
C334 C 0.85025 0.7994 0.36031 0.0
C335 C 0.86172 0.76205 0.34605 0.0
C336 C 0.87889 0.83337 0.37706 0.0
C337 C 0.90297 0.76023 0.34718 0.0
C338 C 0.93195 0.7944 0.36344 0.0
C339 C 0.94853 0.86465 0.39676 0.0
C340 C 0.93591 0.90043 0.41297 0.0
C341 C 0.92013 0.83089 0.37896 0.0
C342 C 0.89478 0.90245 0.41044 0.0
C343 C 0.86665 0.86941 0.39257 0.0
H344 H 0.45916 0.82064 0.70837 0.0
H345 H 0.33061 0.79319 0.68446 0.0
H346 H 0.33799 0.73338 0.64307 0.0
H347 H 0.3803 0.68724 0.61518 0.0
H348 H 0.50829 0.71263 0.64095 0.0
H349 H 0.50157 0.77442 0.6804 0.0
C350 C 0.43264 0.80135 0.69441 0.0
C351 C 0.39436 0.81158 0.69965 0.0
C352 C 0.43696 0.76649 0.67099 0.0
C353 C 0.36057 0.78662 0.68062 0.0
C354 C 0.36469 0.75214 0.6571 0.0
C355 C 0.40683 0.7064 0.62922 0.0
C356 C 0.44476 0.69522 0.62502 0.0
C357 C 0.40268 0.74165 0.6522 0.0
C358 C 0.47871 0.72039 0.64365 0.0
C359 C 0.47489 0.75576 0.66627 0.0
H360 H 0.95525 0.88686 0.73125 0.0
H361 H 0.85798 0.95607 0.72233 0.0
H362 H 0.87824 0.97968 0.65271 0.0
H363 H 0.9249 0.98297 0.59463 0.0
H364 H 0.01716 0.907 0.6016 0.0
H365 H 0.99662 0.88282 0.67128 0.0
C366 C 0.93775 0.90626 0.71411 0.0
C367 C 0.90545 0.92016 0.73276 0.0
C368 C 0.94869 0.91866 0.67351 0.0
C369 C 0.88379 0.94589 0.70954 0.0
C370 C 0.89508 0.95914 0.66943 0.0
C371 C 0.94038 0.96091 0.61131 0.0
C372 C 0.97323 0.94783 0.59306 0.0
C373 C 0.92782 0.94622 0.65123 0.0
C374 C 0.99227 0.91835 0.61496 0.0
C375 C 0.98052 0.90443 0.6549 0.0
H376 H 0.66303 0.10206 0.30119 0.0
H377 H 0.6472 0.23801 0.29591 0.0
H378 H 0.60602 0.22369 0.23759 0.0
H379 H 0.57429 0.17262 0.18829 0.0
H380 H 0.59048 0.03679 0.1931 0.0
H381 H 0.63236 0.05136 0.25097 0.0
C382 C 0.65099 0.12876 0.28703 0.0
C383 C 0.65828 0.1711 0.303 0.0
C384 C 0.62748 0.12037 0.25334 0.0
C385 C 0.64171 0.20497 0.28461 0.0
C386 C 0.61835 0.19689 0.25109 0.0
C387 C 0.58707 0.14618 0.20185 0.0
C388 C 0.57917 0.10363 0.18629 0.0
C389 C 0.61096 0.1547 0.23526 0.0
C390 C 0.59601 0.06984 0.20439 0.0
C391 C 0.61995 0.07813 0.23755 0.0
H392 H 0.37954 0.57912 0.33249 0.0
H393 H 0.39197 0.71665 0.36 0.0
H394 H 0.42913 0.70315 0.41972 0.0
H395 H 0.4525 0.64947 0.46702 0.0
H396 H 0.43547 0.51072 0.43949 0.0
H397 H 0.40574 0.52731 0.37706 0.0
C398 C 0.39131 0.60635 0.35116 0.0
C399 C 0.38384 0.64885 0.34198 0.0
C400 C 0.41118 0.59781 0.38579 0.0
C401 C 0.39818 0.68383 0.36648 0.0
C402 C 0.419 0.67594 0.40071 0.0
C403 C 0.44253 0.62303 0.44719 0.0
C404 C 0.44584 0.57879 0.45826 0.0
C405 C 0.42481 0.63266 0.4112 0.0
C406 C 0.43282 0.54491 0.43214 0.0
C407 C 0.41593 0.55436 0.39624 0.0
H408 H 0.07407 0.48175 0.7709 0.0
H409 H 0.08682 0.36068 0.83753 0.0
H410 H 0.07356 0.39161 0.90003 0.0
H411 H 0.05335 0.45021 0.93492 0.0
H412 H 0.04097 0.57242 0.86952 0.0
H413 H 0.05921 0.54412 0.80719 0.0
C414 C 0.07453 0.46269 0.79926 0.0
C415 C 0.08137 0.41921 0.80009 0.0
C416 C 0.06661 0.48066 0.83504 0.0
C417 C 0.08174 0.39435 0.83659 0.0
C418 C 0.07399 0.41191 0.87219 0.0
C419 C 0.05502 0.471 0.90716 0.0
C420 C 0.04553 0.51328 0.90692 0.0
C421 C 0.0656 0.45461 0.87168 0.0
C422 C 0.04811 0.53975 0.87058 0.0
C423 C 0.05842 0.52352 0.83492 0.0
H424 H 0.76279 0.98709 0.86292 0.0
H425 H 0.80466 0.91894 0.9636 0.0
H426 H 0.74469 0.92451 1.00446 0.0
H427 H 0.68212 0.95316 0.01198 0.0
H428 H 0.6431 0.02357 0.9103 0.0
H429 H 0.69982 0.01263 0.86947 0.0
C430 C 0.75836 0.973 0.89371 0.0
C431 C 0.78752 0.9525 0.91044 0.0
C432 C 0.72445 0.97708 0.91687 0.0
C433 C 0.78213 0.93463 0.95029 0.0
C434 C 0.74802 0.93801 0.97357 0.0
C435 C 0.68594 0.96577 0.98084 0.0
C436 C 0.6585 0.98949 0.96441 0.0
C437 C 0.71921 0.95981 0.95732 0.0
C438 C 0.6639 0.00563 0.92395 0.0
C439 C 0.69634 0.99933 0.90043 0.0
H440 H 0.77199 0.13899 0.44489 0.0
H441 H 0.79916 0.16703 0.31817 0.0
H442 H 0.86084 0.13949 0.32476 0.0
H443 H 0.90709 0.10685 0.36642 0.0
H444 H 0.88223 0.08458 0.49361 0.0
H445 H 0.8206 0.1123 0.4869 0.0
C446 C 0.79163 0.14005 0.41866 0.0
C447 C 0.78035 0.155 0.38102 0.0
C448 C 0.82788 0.12555 0.42276 0.0
C449 C 0.80617 0.15483 0.34747 0.0
C450 C 0.84185 0.13952 0.35123 0.0
C451 C 0.88838 0.10841 0.39271 0.0
C452 C 0.89927 0.09345 0.43043 0.0
C453 C 0.85295 0.12466 0.38871 0.0
C454 C 0.87475 0.09598 0.4642 0.0
C455 C 0.8393 0.1116 0.46039 0.0
H456 H 0.25264 0.66728 0.12124 0.0
H457 H 0.1938 0.64515 0.2389 0.0
H458 H 0.12845 0.61084 0.21149 0.0
H459 H 0.08895 0.58293 0.15514 0.0
H460 H 0.14648 0.60427 0.037 0.0
H461 H 0.21118 0.64404 0.06343 0.0
C462 C 0.22538 0.65552 0.14075 0.0
C463 C 0.22826 0.65813 0.18215 0.0
C464 C 0.18769 0.63569 0.12474 0.0
C465 C 0.19264 0.64262 0.20706 0.0
C466 C 0.15519 0.62321 0.1914 0.0
C467 C 0.11552 0.59655 0.13503 0.0
C468 C 0.11298 0.59024 0.09422 0.0
C469 C 0.15254 0.61882 0.15044 0.0
C470 C 0.14762 0.60859 0.06857 0.0
C471 C 0.18467 0.63115 0.0837 0.0
H472 H 0.23863 0.39922 0.62489 0.0
H473 H 0.23044 0.43521 0.74561 0.0
H474 H 0.29911 0.48612 0.73655 0.0
H475 H 0.36217 0.51884 0.69454 0.0
H476 H 0.36982 0.47997 0.57452 0.0
H477 H 0.301 0.43082 0.58359 0.0
C478 C 0.25197 0.41778 0.64945 0.0
C479 C 0.22954 0.41302 0.68601 0.0
C480 C 0.29153 0.44619 0.64426 0.0
C481 C 0.24691 0.43841 0.71708 0.0
C482 C 0.28629 0.46725 0.712 0.0
C483 C 0.34884 0.49948 0.67043 0.0
C484 C 0.37127 0.50309 0.63393 0.0
C485 C 0.30902 0.47114 0.67578 0.0
C486 C 0.3534 0.47786 0.60296 0.0
C487 C 0.31395 0.44977 0.60805 0.0
H488 H 0.92991 0.85718 0.90713 0.0
H489 H 0.87739 0.7726 0.81561 0.0
H490 H 0.89983 0.70929 0.84819 0.0
H491 H 0.93539 0.67838 0.9021 0.0
H492 H 0.98713 0.76309 0.99395 0.0
H493 H 0.96365 0.82576 0.96192 0.0
C494 C 0.92275 0.82469 0.89464 0.0
C495 C 0.90191 0.81967 0.859 0.0
C496 C 0.93584 0.78851 0.91345 0.0
C497 C 0.89366 0.77753 0.84282 0.0
C498 C 0.90643 0.74128 0.86147 0.0
C499 C 0.94165 0.71057 0.91509 0.0
C500 C 0.96323 0.716 0.95032 0.0
C501 C 0.92787 0.74651 0.89662 0.0
C502 C 0.97073 0.75791 0.96683 0.0
C503 C 0.95725 0.79381 0.94856 0.0
H504 H 0.41677 0.75365 0.18694 0.0
H505 H 0.31073 0.80889 0.17992 0.0
H506 H 0.35269 0.87962 0.14795 0.0
H507 H 0.41814 0.9247 0.12003 0.0
H508 H 0.526 0.87279 0.1277 0.0
H509 H 0.48458 0.8016 0.16101 0.0
C510 C 0.40308 0.78141 0.17874 0.0
C511 C 0.36058 0.7758 0.18533 0.0
C512 C 0.42753 0.82232 0.16018 0.0
C513 C 0.34318 0.81201 0.1745 0.0
C514 C 0.36716 0.85253 0.1563 0.0
C515 C 0.43293 0.89814 0.1292 0.0
C516 C 0.47526 0.90433 0.12142 0.0
C517 C 0.40917 0.85783 0.14859 0.0
C518 C 0.49349 0.86904 0.13327 0.0
C519 C 0.46981 0.82834 0.1524 0.0
H520 H 0.08003 0.26132 0.63754 0.0
H521 H 0.1968 0.25213 0.68242 0.0
H522 H 0.19237 0.18264 0.65034 0.0
H523 H 0.15689 0.1259 0.60779 0.0
H524 H 0.03835 0.13125 0.56572 0.0
H525 H 0.04156 0.20039 0.59915 0.0
C526 C 0.10421 0.24378 0.64084 0.0
C527 C 0.13908 0.26258 0.6618 0.0
C528 C 0.10122 0.2032 0.62277 0.0
C529 C 0.17015 0.23928 0.66557 0.0
C530 C 0.16755 0.1993 0.64745 0.0
C531 C 0.13172 0.14219 0.60592 0.0
C532 C 0.0977 0.12393 0.58392 0.0
C533 C 0.13357 0.18136 0.62552 0.0
C534 C 0.06496 0.14484 0.5824 0.0
C535 C 0.06683 0.18437 0.60143 0.0
H536 H 0.58075 0.2643 0.4526 0.0
H537 H 0.70159 0.35042 0.42535 0.0
H538 H 0.67809 0.41614 0.44346 0.0
H539 H 0.62505 0.44756 0.47281 0.0
H540 H 0.50345 0.3628 0.49959 0.0
H541 H 0.52502 0.29806 0.47562 0.0
C542 C 0.60149 0.29772 0.44986 0.0
C543 C 0.64269 0.303 0.4376 0.0
C544 C 0.58775 0.3353 0.46069 0.0
C545 C 0.66966 0.34601 0.43446 0.0
C546 C 0.65631 0.38343 0.44505 0.0
C547 C 0.60317 0.41497 0.47315 0.0
C548 C 0.56291 0.40971 0.48849 0.0
C549 C 0.61574 0.37825 0.45917 0.0
C550 C 0.53467 0.36758 0.48804 0.0
C551 C 0.54704 0.33058 0.47446 0.0
loop_
_geom_bond_atom_site_label_1
_geom_bond_atom_site_label_2
_geom_bond_distance
_geom_bond_site_symmetry_2
_ccdc_geom_bond_type
H0 C3 0.929 . S
H1 C6 0.929 . S
H2 C8 0.930 . S
C3 H0 0.929 . S
C3 C4 1.398 . S
C3 C5 1.396 . S
C4 C3 1.398 . S
C4 C8 1.407 . S
C5 C3 1.396 . S
C5 C6 1.394 . S
C6 H1 0.929 . S
C6 C5 1.394 . S
C6 C7 1.382 . S
C7 C6 1.382 . S
C7 C8 1.392 . S
C7 N9 1.420 . S
C8 H2 0.930 . S
C8 C4 1.407 . S
C8 C7 1.392 . S
N9 C7 1.420 . S
N9 C10 1.244 . S
C10 N9 1.244 . S
H11 C14 0.929 . S
H12 C17 0.929 . S
H13 C19 0.930 . S
C14 H11 0.929 . S
C14 C15 1.398 . S
C14 C16 1.396 . S
C15 C14 1.398 . S
C15 C19 1.407 . S
C16 C14 1.396 . S
C16 C17 1.394 . S
C17 H12 0.929 . S
C17 C16 1.394 . S
C17 C18 1.382 . S
C18 C17 1.382 . S
C18 C19 1.392 . S
C18 N20 1.420 . S
C19 H13 0.930 . S
C19 C15 1.407 . S
C19 C18 1.392 . S
N20 C18 1.420 . S
N20 C21 1.244 . S
C21 N20 1.244 . S
H22 C25 0.929 . S
H23 C28 0.929 . S
H24 C30 0.930 . S
C25 H22 0.929 . S
C25 C26 1.398 . S
C25 C27 1.396 . S
C26 C25 1.398 . S
C26 C30 1.407 . S
C27 C25 1.396 . S
C27 C28 1.394 . S
C28 H23 0.929 . S
C28 C27 1.394 . S
C28 C29 1.382 . S
C29 C28 1.382 . S
C29 C30 1.392 . S
C29 N31 1.420 . S
C30 H24 0.930 . S
C30 C26 1.407 . S
C30 C29 1.392 . S
N31 C29 1.420 . S
N31 C32 1.244 . S
C32 N31 1.244 . S
H33 C36 0.929 . S
H34 C39 0.929 . S
H35 C41 0.930 . S
C36 H33 0.929 . S
C36 C37 1.398 . S
C36 C38 1.396 . S
C37 C36 1.398 . S
C37 C41 1.407 . S
C38 C36 1.396 . S
C38 C39 1.394 . S
C39 H34 0.929 . S
C39 C38 1.394 . S
C39 C40 1.382 . S
C40 C39 1.382 . S
C40 C41 1.392 . S
C40 N42 1.420 . S
C41 H35 0.930 . S
C41 C37 1.407 . S
C41 C40 1.392 . S
N42 C40 1.420 . S
N42 C43 1.244 . S
C43 N42 1.244 . S
H44 C47 0.929 . S
H45 C50 0.929 . S
H46 C52 0.930 . S
C47 H44 0.929 . S
C47 C48 1.398 . S
C47 C49 1.396 . S
C48 C47 1.398 . S
C48 C52 1.407 . S
C49 C47 1.396 . S
C49 C50 1.394 . S
C50 H45 0.929 . S
C50 C49 1.394 . S
C50 C51 1.382 . S
C51 C50 1.382 . S
C51 C52 1.392 . S
C51 N53 1.420 . S
C52 H46 0.930 . S
C52 C48 1.407 . S
C52 C51 1.392 . S
N53 C51 1.420 . S
N53 C54 1.244 . S
C54 N53 1.244 . S
H55 C58 0.929 . S
H56 C61 0.929 . S
H57 C63 0.930 . S
C58 H55 0.929 . S
C58 C59 1.398 . S
C58 C60 1.396 . S
C59 C58 1.398 . S
C59 C63 1.407 . S
C60 C58 1.396 . S
C60 C61 1.394 . S
C61 H56 0.929 . S
C61 C60 1.394 . S
C61 C62 1.382 . S
C62 C61 1.382 . S
C62 C63 1.392 . S
C62 N64 1.420 . S
C63 H57 0.930 . S
C63 C59 1.407 . S
C63 C62 1.392 . S
N64 C62 1.420 . S
N64 C65 1.244 . S
C65 N64 1.244 . S
H66 C69 0.929 . S
H67 C72 0.929 . S
H68 C74 0.930 . S
C69 H66 0.929 . S
C69 C70 1.398 . S
C69 C71 1.396 . S
C70 C69 1.398 . S
C70 C74 1.407 . S
C71 C69 1.396 . S
C71 C72 1.394 . S
C72 H67 0.929 . S
C72 C71 1.394 . S
C72 C73 1.382 . S
C73 C72 1.382 . S
C73 C74 1.392 . S
C73 N75 1.420 . S
C74 H68 0.930 . S
C74 C70 1.407 . S
C74 C73 1.392 . S
N75 C73 1.420 . S
N75 C76 1.244 . S
C76 N75 1.244 . S
H77 C80 0.929 . S
H78 C83 0.929 . S
H79 C85 0.930 . S
C80 H77 0.929 . S
C80 C81 1.398 . S
C80 C82 1.396 . S
C81 C80 1.398 . S
C81 C85 1.407 . S
C82 C80 1.396 . S
C82 C83 1.394 . S
C83 H78 0.929 . S
C83 C82 1.394 . S
C83 C84 1.382 . S
C84 C83 1.382 . S
C84 C85 1.392 . S
C84 N86 1.420 . S
C85 H79 0.930 . S
C85 C81 1.407 . S
C85 C84 1.392 . S
N86 C84 1.420 . S
N86 C87 1.244 . S
C87 N86 1.244 . S
Zn88 O94 1.968 1_545 S
Zn88 O95 1.965 1_545 S
Zn88 O99 2.024 . S
Zn88 O104 1.969 . S
Zn89 O96 1.969 1_545 S
Zn89 O102 1.969 . S
Zn89 O103 1.965 1_655 S
Zn89 O105 2.024 1_545 S
C90 O91 1.229 . S
C90 O99 1.058 . S
O91 C90 1.229 . S
C92 O93 1.229 . S
C92 O105 1.058 . S
O93 C92 1.229 . S
O94 Zn88 1.968 1_565 S
O94 C97 1.268 . S
O95 Zn88 1.965 1_565 S
O95 C106 1.260 1_455 S
O96 Zn89 1.969 1_565 S
O96 C106 1.258 . S
C97 O94 1.268 . S
C97 O98 1.228 . S
O98 C97 1.228 . S
O99 Zn88 2.024 . S
O99 C90 1.058 . S
C100 O101 1.228 . S
C100 O102 1.267 . S
O101 C100 1.228 . S
O102 Zn89 1.969 . S
O102 C100 1.267 . S
O103 Zn89 1.965 1_455 S
O103 C107 1.260 . S
O104 Zn88 1.969 . S
O104 C107 1.258 . S
O105 Zn89 2.024 1_565 S
O105 C92 1.058 . S
C106 O95 1.260 1_655 S
C106 O96 1.258 . S
C107 O103 1.260 . S
C107 O104 1.258 . S
Zn108 O114 1.969 . S
Zn108 O115 1.965 1_566 S
Zn108 O119 2.024 . S
Zn108 O124 1.969 1_556 S
Zn109 O116 1.969 . S
Zn109 O122 1.969 . S
Zn109 O123 1.965 1_545 S
Zn109 O125 2.024 . S
C110 O111 1.229 . S
C110 O119 1.058 . S
O111 C110 1.229 . S
C112 O113 1.229 . S
C112 O125 1.058 . S
O113 C112 1.229 . S
O114 Zn108 1.969 . S
O114 C117 1.267 . S
O115 Zn108 1.965 1_544 S
O115 C126 1.260 . S
O116 Zn109 1.969 . S
O116 C126 1.258 . S
C117 O114 1.267 . S
C117 O118 1.228 . S
O118 C117 1.228 . S
O119 Zn108 2.024 . S
O119 C110 1.058 . S
C120 O121 1.228 . S
C120 O122 1.267 . S
O121 C120 1.228 . S
O122 Zn109 1.969 . S
O122 C120 1.267 . S
O123 Zn109 1.965 1_565 S
O123 C127 1.260 . S
O124 Zn108 1.969 1_554 S
O124 C127 1.258 . S
O125 Zn109 2.024 . S
O125 C112 1.058 . S
C126 O115 1.260 . S
C126 O116 1.258 . S
C127 O123 1.260 . S
C127 O124 1.258 . S
Zn128 O134 1.969 . S
Zn128 O135 1.965 . S
Zn128 O139 2.024 . S
Zn128 O144 1.969 . S
Zn129 O136 1.969 . S
Zn129 O142 1.969 . S
Zn129 O143 1.965 . S
Zn129 O145 2.024 . S
C130 O131 1.229 . S
C130 O139 1.058 . S
O131 C130 1.229 . S
C132 O133 1.229 . S
C132 O145 1.058 . S
O133 C132 1.229 . S
O134 Zn128 1.969 . S
O134 C137 1.267 . S
O135 Zn128 1.965 . S
O135 C146 1.260 . S
O136 Zn129 1.969 . S
O136 C146 1.258 . S
C137 O134 1.267 . S
C137 O138 1.228 . S
O138 C137 1.228 . S
O139 Zn128 2.024 . S
O139 C130 1.058 . S
C140 O141 1.228 . S
C140 O142 1.267 . S
O141 C140 1.228 . S
O142 Zn129 1.969 . S
O142 C140 1.267 . S
O143 Zn129 1.965 . S
O143 C147 1.260 . S
O144 Zn128 1.969 . S
O144 C147 1.258 . S
O145 Zn129 2.024 . S
O145 C132 1.058 . S
C146 O135 1.260 . S
C146 O136 1.258 . S
C147 O143 1.260 . S
C147 O144 1.258 . S
Zn148 O154 1.969 . S
Zn148 O155 1.965 1_556 S
Zn148 O159 2.024 . S
Zn148 O164 1.969 1_655 S
Zn149 O156 1.969 . S
Zn149 O162 1.969 . S
Zn149 O163 1.965 1_554 S
Zn149 O165 2.024 . S
C150 O151 1.229 . S
C150 O159 1.058 . S
O151 C150 1.229 . S
C152 O153 1.229 . S
C152 O165 1.058 . S
O153 C152 1.229 . S
O154 Zn148 1.969 . S
O154 C157 1.267 . S
O155 Zn148 1.965 1_554 S
O155 C166 1.260 . S
O156 Zn149 1.969 . S
O156 C166 1.258 1_455 S
C157 O154 1.267 . S
C157 O158 1.228 . S
O158 C157 1.228 . S
O159 Zn148 2.024 . S
O159 C150 1.058 . S
C160 O161 1.228 . S
C160 O162 1.267 . S
O161 C160 1.228 . S
O162 Zn149 1.969 . S
O162 C160 1.267 . S
O163 Zn149 1.965 1_556 S
O163 C167 1.260 . S
O164 Zn148 1.969 1_455 S
O164 C167 1.258 . S
O165 Zn149 2.024 . S
O165 C152 1.058 . S
C166 O155 1.260 . S
C166 O156 1.258 1_655 S
C167 O163 1.260 . S
C167 O164 1.258 . S
H168 C174 0.930 . S
H169 C177 0.930 . S
H170 C178 0.930 . S
H171 C179 0.930 . S
H172 C182 0.930 . S
H173 C183 0.930 . S
C174 H168 0.930 . S
C174 C175 1.355 . S
C174 C176 1.415 . S
C175 C174 1.355 . S
C175 C177 1.419 . S
C176 C174 1.415 . S
C176 C181 1.425 . S
C176 C183 1.409 . S
C177 H169 0.930 . S
C177 C175 1.419 . S
C177 C178 1.362 . S
C178 H170 0.930 . S
C178 C177 1.362 . S
C178 C181 1.409 . S
C179 H171 0.930 . S
C179 C180 1.355 . S
C179 C181 1.415 . S
C180 C179 1.355 . S
C180 C182 1.419 . S
C181 C176 1.425 . S
C181 C178 1.409 . S
C181 C179 1.415 . S
C182 H172 0.930 . S
C182 C180 1.419 . S
C182 C183 1.362 . S
C183 H173 0.930 . S
C183 C176 1.409 . S
C183 C182 1.362 . S
H184 C190 0.930 . S
H185 C193 0.930 . S
H186 C194 0.930 . S
H187 C195 0.930 . S
H188 C198 0.930 1_545 S
H189 C199 0.912 1_545 S
C190 H184 0.930 . S
C190 C191 1.355 . S
C190 C192 1.415 . S
C191 C190 1.355 . S
C191 C193 1.419 . S
C192 C190 1.415 . S
C192 C197 1.425 . S
C192 C199 1.409 . S
C193 H185 0.930 . S
C193 C191 1.419 . S
C193 C194 1.362 . S
C194 H186 0.930 . S
C194 C193 1.362 . S
C194 C197 1.409 . S
C195 H187 0.930 . S
C195 C196 1.355 . S
C195 C197 1.415 . S
C196 C195 1.355 . S
C196 C198 1.419 . S
C197 C192 1.425 . S
C197 C194 1.409 . S
C197 C195 1.415 . S
C198 H188 0.930 1_565 S
C198 C196 1.419 . S
C198 C199 1.362 . S
C199 H189 0.912 1_565 S
C199 C192 1.409 . S
C199 C198 1.362 . S
H200 C206 0.930 . S
H201 C209 0.930 . S
H202 C210 0.930 . S
H203 C211 0.930 . S
H204 C214 0.930 . S
H205 C215 0.930 . S
C206 H200 0.930 . S
C206 C207 1.355 . S
C206 C208 1.415 . S
C207 C206 1.355 . S
C207 C209 1.419 . S
C208 C206 1.415 . S
C208 C213 1.425 . S
C208 C215 1.409 . S
C209 H201 0.930 . S
C209 C207 1.419 . S
C209 C210 1.362 . S
C210 H202 0.930 . S
C210 C209 1.362 . S
C210 C213 1.409 . S
C211 H203 0.930 . S
C211 C212 1.355 . S
C211 C213 1.415 . S
C212 C211 1.355 . S
C212 C214 1.419 . S
C213 C208 1.425 . S
C213 C210 1.409 . S
C213 C211 1.415 . S
C214 H204 0.930 . S
C214 C212 1.419 . S
C214 C215 1.362 . S
C215 H205 0.930 . S
C215 C208 1.409 . S
C215 C214 1.362 . S
H216 C222 0.930 . S
H217 C225 0.930 . S
H218 C226 0.930 . S
H219 C227 0.930 . S
H220 C230 0.930 . S
H221 C231 0.930 . S
C222 H216 0.930 . S
C222 C223 1.355 . S
C222 C224 1.415 . S
C223 C222 1.355 . S
C223 C225 1.419 . S
C224 C222 1.415 . S
C224 C229 1.425 . S
C224 C231 1.409 . S
C225 H217 0.930 . S
C225 C223 1.419 . S
C225 C226 1.362 . S
C226 H218 0.930 . S
C226 C225 1.362 . S
C226 C229 1.409 . S
C227 H219 0.930 . S
C227 C228 1.355 . S
C227 C229 1.415 . S
C228 C227 1.355 . S
C228 C230 1.419 . S
C229 C224 1.425 . S
C229 C226 1.409 . S
C229 C227 1.415 . S
C230 H220 0.930 . S
C230 C228 1.419 . S
C230 C231 1.362 . S
C231 H221 0.930 . S
C231 C224 1.409 . S
C231 C230 1.362 . S
H232 C238 0.930 . S
H233 C241 0.930 . S
H234 C242 0.930 . S
H235 C243 0.930 . S
H236 C246 0.930 . S
H237 C247 0.930 . S
C238 H232 0.930 . S
C238 C239 1.355 . S
C238 C240 1.415 . S
C239 C238 1.355 . S
C239 C241 1.419 . S
C240 C238 1.415 . S
C240 C245 1.425 . S
C240 C247 1.409 . S
C241 H233 0.930 . S
C241 C239 1.419 . S
C241 C242 1.362 . S
C242 H234 0.930 . S
C242 C241 1.362 . S
C242 C245 1.409 . S
C243 H235 0.930 . S
C243 C244 1.355 . S
C243 C245 1.415 . S
C244 C243 1.355 . S
C244 C246 1.419 . S
C245 C240 1.425 . S
C245 C242 1.409 . S
C245 C243 1.415 . S
C246 H236 0.930 . S
C246 C244 1.419 . S
C246 C247 1.362 . S
C247 H237 0.930 . S
C247 C240 1.409 . S
C247 C246 1.362 . S
H248 C254 0.930 . S
H249 C257 0.930 . S
H250 C258 0.930 . S
H251 C259 0.930 . S
H252 C262 0.927 1_545 S
H253 C263 0.930 . S
C254 H248 0.930 . S
C254 C255 1.355 . S
C254 C256 1.415 . S
C255 C254 1.355 . S
C255 C257 1.419 . S
C256 C254 1.415 . S
C256 C261 1.425 . S
C256 C263 1.409 . S
C257 H249 0.930 . S
C257 C255 1.419 . S
C257 C258 1.362 . S
C258 H250 0.930 . S
C258 C257 1.362 . S
C258 C261 1.409 . S
C259 H251 0.930 . S
C259 C260 1.355 . S
C259 C261 1.415 . S
C260 C259 1.355 . S
C260 C262 1.419 . S
C261 C256 1.425 . S
C261 C258 1.409 . S
C261 C259 1.415 . S
C262 H252 0.927 1_565 S
C262 C260 1.419 . S
C262 C263 1.362 . S
C263 H253 0.930 . S
C263 C256 1.409 . S
C263 C262 1.362 . S
H264 C270 0.930 . S
H265 C273 0.930 . S
H266 C274 0.930 . S
H267 C275 0.930 . S
H268 C278 0.930 . S
H269 C279 0.930 . S
C270 H264 0.930 . S
C270 C271 1.355 . S
C270 C272 1.415 . S
C271 C270 1.355 . S
C271 C273 1.419 . S
C272 C270 1.415 . S
C272 C277 1.425 . S
C272 C279 1.409 . S
C273 H265 0.930 . S
C273 C271 1.419 . S
C273 C274 1.362 . S
C274 H266 0.930 . S
C274 C273 1.362 . S
C274 C277 1.409 . S
C275 H267 0.930 . S
C275 C276 1.355 . S
C275 C277 1.415 . S
C276 C275 1.355 . S
C276 C278 1.419 . S
C277 C272 1.425 . S
C277 C274 1.409 . S
C277 C275 1.415 . S
C278 H268 0.930 . S
C278 C276 1.419 . S
C278 C279 1.362 . S
C279 H269 0.930 . S
C279 C272 1.409 . S
C279 C278 1.362 . S
H280 C286 0.930 . S
H281 C289 0.930 . S
H282 C290 0.930 . S
H283 C291 0.930 . S
H284 C294 0.930 . S
H285 C295 0.930 . S
C286 H280 0.930 . S
C286 C287 1.355 . S
C286 C288 1.415 . S
C287 C286 1.355 . S
C287 C289 1.419 . S
C288 C286 1.415 . S
C288 C293 1.425 . S
C288 C295 1.409 . S
C289 H281 0.930 . S
C289 C287 1.419 . S
C289 C290 1.362 . S
C290 H282 0.930 . S
C290 C289 1.362 . S
C290 C293 1.409 . S
C291 H283 0.930 . S
C291 C292 1.355 . S
C291 C293 1.415 . S
C292 C291 1.355 . S
C292 C294 1.419 . S
C293 C288 1.425 . S
C293 C290 1.409 . S
C293 C291 1.415 . S
C294 H284 0.930 . S
C294 C292 1.419 . S
C294 C295 1.362 . S
C295 H285 0.930 . S
C295 C288 1.409 . S
C295 C294 1.362 . S
H296 C302 0.930 . S
H297 C305 0.930 . S
H298 C306 0.930 . S
H299 C307 0.930 . S
H300 C310 0.930 . S
H301 C311 0.930 . S
C302 H296 0.930 . S
C302 C303 1.355 . S
C302 C304 1.415 . S
C303 C302 1.355 . S
C303 C305 1.419 . S
C304 C302 1.415 . S
C304 C309 1.425 . S
C304 C311 1.409 . S
C305 H297 0.930 . S
C305 C303 1.419 . S
C305 C306 1.362 . S
C306 H298 0.930 . S
C306 C305 1.362 . S
C306 C309 1.409 . S
C307 H299 0.930 . S
C307 C308 1.355 . S
C307 C309 1.415 . S
C308 C307 1.355 . S
C308 C310 1.419 . S
C309 C304 1.425 . S
C309 C306 1.409 . S
C309 C307 1.415 . S
C310 H300 0.930 . S
C310 C308 1.419 . S
C310 C311 1.362 . S
C311 H301 0.930 . S
C311 C304 1.409 . S
C311 C310 1.362 . S
H312 C318 0.930 . S
H313 C321 0.930 . S
H314 C322 0.930 . S
H315 C323 0.930 . S
H316 C326 0.930 . S
H317 C327 0.930 . S
C318 H312 0.930 . S
C318 C319 1.355 . S
C318 C320 1.415 . S
C319 C318 1.355 . S
C319 C321 1.419 . S
C320 C318 1.415 . S
C320 C325 1.425 . S
C320 C327 1.409 . S
C321 H313 0.930 . S
C321 C319 1.419 . S
C321 C322 1.362 . S
C322 H314 0.930 . S
C322 C321 1.362 . S
C322 C325 1.409 . S
C323 H315 0.930 . S
C323 C324 1.355 . S
C323 C325 1.415 . S
C324 C323 1.355 . S
C324 C326 1.419 . S
C325 C320 1.425 . S
C325 C322 1.409 . S
C325 C323 1.415 . S
C326 H316 0.930 . S
C326 C324 1.419 . S
C326 C327 1.362 . S
C327 H317 0.930 . S
C327 C320 1.409 . S
C327 C326 1.362 . S
H328 C334 0.930 . S
H329 C337 0.930 . S
H330 C338 0.930 . S
H331 C339 0.930 . S
H332 C342 0.930 . S
H333 C343 0.930 . S
C334 H328 0.930 . S
C334 C335 1.355 . S
C334 C336 1.415 . S
C335 C334 1.355 . S
C335 C337 1.419 . S
C336 C334 1.415 . S
C336 C341 1.425 . S
C336 C343 1.409 . S
C337 H329 0.930 . S
C337 C335 1.419 . S
C337 C338 1.362 . S
C338 H330 0.930 . S
C338 C337 1.362 . S
C338 C341 1.409 . S
C339 H331 0.930 . S
C339 C340 1.355 . S
C339 C341 1.415 . S
C340 C339 1.355 . S
C340 C342 1.419 . S
C341 C336 1.425 . S
C341 C338 1.409 . S
C341 C339 1.415 . S
C342 H332 0.930 . S
C342 C340 1.419 . S
C342 C343 1.362 . S
C343 H333 0.930 . S
C343 C336 1.409 . S
C343 C342 1.362 . S
H344 C350 0.930 . S
H345 C353 0.930 . S
H346 C354 0.930 . S
H347 C355 0.930 . S
H348 C358 0.930 . S
H349 C359 0.930 . S
C350 H344 0.930 . S
C350 C351 1.355 . S
C350 C352 1.415 . S
C351 C350 1.355 . S
C351 C353 1.419 . S
C352 C350 1.415 . S
C352 C357 1.425 . S
C352 C359 1.409 . S
C353 H345 0.930 . S
C353 C351 1.419 . S
C353 C354 1.362 . S
C354 H346 0.930 . S
C354 C353 1.362 . S
C354 C357 1.409 . S
C355 H347 0.930 . S
C355 C356 1.355 . S
C355 C357 1.415 . S
C356 C355 1.355 . S
C356 C358 1.419 . S
C357 C352 1.425 . S
C357 C354 1.409 . S
C357 C355 1.415 . S
C358 H348 0.930 . S
C358 C356 1.419 . S
C358 C359 1.362 . S
C359 H349 0.930 . S
C359 C352 1.409 . S
C359 C358 1.362 . S
H360 C366 0.930 . S
H361 C369 0.930 . S
H362 C370 0.930 . S
H363 C371 0.930 . S
H364 C374 0.930 . S
H365 C375 0.930 . S
C366 H360 0.930 . S
C366 C367 1.355 . S
C366 C368 1.415 . S
C367 C366 1.355 . S
C367 C369 1.419 . S
C368 C366 1.415 . S
C368 C373 1.425 . S
C368 C375 1.409 . S
C369 H361 0.930 . S
C369 C367 1.419 . S
C369 C370 1.362 . S
C370 H362 0.930 . S
C370 C369 1.362 . S
C370 C373 1.409 . S
C371 H363 0.930 . S
C371 C372 1.355 . S
C371 C373 1.415 . S
C372 C371 1.355 . S
C372 C374 1.419 . S
C373 C368 1.425 . S
C373 C370 1.409 . S
C373 C371 1.415 . S
C374 H364 0.930 . S
C374 C372 1.419 . S
C374 C375 1.362 . S
C375 H365 0.930 . S
C375 C368 1.409 . S
C375 C374 1.362 . S
H376 C382 0.930 . S
H377 C385 0.930 . S
H378 C386 0.930 . S
H379 C387 0.930 . S
H380 C390 0.930 . S
H381 C391 0.930 . S
C382 H376 0.930 . S
C382 C383 1.355 . S
C382 C384 1.415 . S
C383 C382 1.355 . S
C383 C385 1.419 . S
C384 C382 1.415 . S
C384 C389 1.425 . S
C384 C391 1.409 . S
C385 H377 0.930 . S
C385 C383 1.419 . S
C385 C386 1.362 . S
C386 H378 0.930 . S
C386 C385 1.362 . S
C386 C389 1.409 . S
C387 H379 0.930 . S
C387 C388 1.355 . S
C387 C389 1.415 . S
C388 C387 1.355 . S
C388 C390 1.419 . S
C389 C384 1.425 . S
C389 C386 1.409 . S
C389 C387 1.415 . S
C390 H380 0.930 . S
C390 C388 1.419 . S
C390 C391 1.362 . S
C391 H381 0.930 . S
C391 C384 1.409 . S
C391 C390 1.362 . S
H392 C398 0.930 . S
H393 C401 0.930 . S
H394 C402 0.930 . S
H395 C403 0.930 . S
H396 C406 0.930 . S
H397 C407 0.930 . S
C398 H392 0.930 . S
C398 C399 1.355 . S
C398 C400 1.415 . S
C399 C398 1.355 . S
C399 C401 1.419 . S
C400 C398 1.415 . S
C400 C405 1.425 . S
C400 C407 1.409 . S
C401 H393 0.930 . S
C401 C399 1.419 . S
C401 C402 1.362 . S
C402 H394 0.930 . S
C402 C401 1.362 . S
C402 C405 1.409 . S
C403 H395 0.930 . S
C403 C404 1.355 . S
C403 C405 1.415 . S
C404 C403 1.355 . S
C404 C406 1.419 . S
C405 C400 1.425 . S
C405 C402 1.409 . S
C405 C403 1.415 . S
C406 H396 0.930 . S
C406 C404 1.419 . S
C406 C407 1.362 . S
C407 H397 0.930 . S
C407 C400 1.409 . S
C407 C406 1.362 . S
H408 C414 0.930 . S
H409 C417 0.930 . S
H410 C418 0.930 . S
H411 C419 0.930 . S
H412 C422 0.930 . S
H413 C423 0.930 . S
C414 H408 0.930 . S
C414 C415 1.355 . S
C414 C416 1.415 . S
C415 C414 1.355 . S
C415 C417 1.419 . S
C416 C414 1.415 . S
C416 C421 1.425 . S
C416 C423 1.409 . S
C417 H409 0.930 . S
C417 C415 1.419 . S
C417 C418 1.362 . S
C418 H410 0.930 . S
C418 C417 1.362 . S
C418 C421 1.409 . S
C419 H411 0.930 . S
C419 C420 1.355 . S
C419 C421 1.415 . S
C420 C419 1.355 . S
C420 C422 1.419 . S
C421 C416 1.425 . S
C421 C418 1.409 . S
C421 C419 1.415 . S
C422 H412 0.930 . S
C422 C420 1.419 . S
C422 C423 1.362 . S
C423 H413 0.930 . S
C423 C416 1.409 . S
C423 C422 1.362 . S
H424 C430 0.930 . S
H425 C433 0.930 . S
H426 C434 0.930 . S
H427 C435 0.930 . S
H428 C438 0.930 . S
H429 C439 0.930 . S
C430 H424 0.930 . S
C430 C431 1.355 . S
C430 C432 1.415 . S
C431 C430 1.355 . S
C431 C433 1.419 . S
C432 C430 1.415 . S
C432 C437 1.425 . S
C432 C439 1.409 . S
C433 H425 0.930 . S
C433 C431 1.419 . S
C433 C434 1.362 . S
C434 H426 0.930 . S
C434 C433 1.362 . S
C434 C437 1.409 . S
C435 H427 0.930 . S
C435 C436 1.355 . S
C435 C437 1.415 . S
C436 C435 1.355 . S
C436 C438 1.419 . S
C437 C432 1.425 . S
C437 C434 1.409 . S
C437 C435 1.415 . S
C438 H428 0.930 . S
C438 C436 1.419 . S
C438 C439 1.362 . S
C439 H429 0.930 . S
C439 C432 1.409 . S
C439 C438 1.362 . S
H440 C446 0.930 . S
H441 C449 0.930 . S
H442 C450 0.930 . S
H443 C451 0.930 . S
H444 C454 0.930 . S
H445 C455 0.930 . S
C446 H440 0.930 . S
C446 C447 1.355 . S
C446 C448 1.415 . S
C447 C446 1.355 . S
C447 C449 1.419 . S
C448 C446 1.415 . S
C448 C453 1.425 . S
C448 C455 1.409 . S
C449 H441 0.930 . S
C449 C447 1.419 . S
C449 C450 1.362 . S
C450 H442 0.930 . S
C450 C449 1.362 . S
C450 C453 1.409 . S
C451 H443 0.930 . S
C451 C452 1.355 . S
C451 C453 1.415 . S
C452 C451 1.355 . S
C452 C454 1.419 . S
C453 C448 1.425 . S
C453 C450 1.409 . S
C453 C451 1.415 . S
C454 H444 0.930 . S
C454 C452 1.419 . S
C454 C455 1.362 . S
C455 H445 0.930 . S
C455 C448 1.409 . S
C455 C454 1.362 . S
H456 C462 0.930 . S
H457 C465 0.930 . S
H458 C466 0.930 . S
H459 C467 0.930 . S
H460 C470 0.930 . S
H461 C471 0.930 . S
C462 H456 0.930 . S
C462 C463 1.355 . S
C462 C464 1.415 . S
C463 C462 1.355 . S
C463 C465 1.419 . S
C464 C462 1.415 . S
C464 C469 1.425 . S
C464 C471 1.409 . S
C465 H457 0.930 . S
C465 C463 1.419 . S
C465 C466 1.362 . S
C466 H458 0.930 . S
C466 C465 1.362 . S
C466 C469 1.409 . S
C467 H459 0.930 . S
C467 C468 1.355 . S
C467 C469 1.415 . S
C468 C467 1.355 . S
C468 C470 1.419 . S
C469 C464 1.425 . S
C469 C466 1.409 . S
C469 C467 1.415 . S
C470 H460 0.930 . S
C470 C468 1.419 . S
C470 C471 1.362 . S
C471 H461 0.930 . S
C471 C464 1.409 . S
C471 C470 1.362 . S
H472 C478 0.930 . S
H473 C481 0.930 . S
H474 C482 0.930 . S
H475 C483 0.930 . S
H476 C486 0.930 . S
H477 C487 0.930 . S
C478 H472 0.930 . S
C478 C479 1.355 . S
C478 C480 1.415 . S
C479 C478 1.355 . S
C479 C481 1.419 . S
C480 C478 1.415 . S
C480 C485 1.425 . S
C480 C487 1.409 . S
C481 H473 0.930 . S
C481 C479 1.419 . S
C481 C482 1.362 . S
C482 H474 0.930 . S
C482 C481 1.362 . S
C482 C485 1.409 . S
C483 H475 0.930 . S
C483 C484 1.355 . S
C483 C485 1.415 . S
C484 C483 1.355 . S
C484 C486 1.419 . S
C485 C480 1.425 . S
C485 C482 1.409 . S
C485 C483 1.415 . S
C486 H476 0.930 . S
C486 C484 1.419 . S
C486 C487 1.362 . S
C487 H477 0.930 . S
C487 C480 1.409 . S
C487 C486 1.362 . S
H488 C494 0.930 . S
H489 C497 0.930 . S
H490 C498 0.930 . S
H491 C499 0.930 . S
H492 C502 0.930 . S
H493 C503 0.930 . S
C494 H488 0.930 . S
C494 C495 1.355 . S
C494 C496 1.415 . S
C495 C494 1.355 . S
C495 C497 1.419 . S
C496 C494 1.415 . S
C496 C501 1.425 . S
C496 C503 1.409 . S
C497 H489 0.930 . S
C497 C495 1.419 . S
C497 C498 1.362 . S
C498 H490 0.930 . S
C498 C497 1.362 . S
C498 C501 1.409 . S
C499 H491 0.930 . S
C499 C500 1.355 . S
C499 C501 1.415 . S
C500 C499 1.355 . S
C500 C502 1.419 . S
C501 C496 1.425 . S
C501 C498 1.409 . S
C501 C499 1.415 . S
C502 H492 0.930 . S
C502 C500 1.419 . S
C502 C503 1.362 . S
C503 H493 0.930 . S
C503 C496 1.409 . S
C503 C502 1.362 . S
H504 C510 0.930 . S
H505 C513 0.930 . S
H506 C514 0.930 . S
H507 C515 0.930 . S
H508 C518 0.930 . S
H509 C519 0.930 . S
C510 H504 0.930 . S
C510 C511 1.355 . S
C510 C512 1.415 . S
C511 C510 1.355 . S
C511 C513 1.419 . S
C512 C510 1.415 . S
C512 C517 1.425 . S
C512 C519 1.409 . S
C513 H505 0.930 . S
C513 C511 1.419 . S
C513 C514 1.362 . S
C514 H506 0.930 . S
C514 C513 1.362 . S
C514 C517 1.409 . S
C515 H507 0.930 . S
C515 C516 1.355 . S
C515 C517 1.415 . S
C516 C515 1.355 . S
C516 C518 1.419 . S
C517 C512 1.425 . S
C517 C514 1.409 . S
C517 C515 1.415 . S
C518 H508 0.930 . S
C518 C516 1.419 . S
C518 C519 1.362 . S
C519 H509 0.930 . S
C519 C512 1.409 . S
C519 C518 1.362 . S
H520 C526 0.930 . S
H521 C529 0.930 . S
H522 C530 0.930 . S
H523 C531 0.930 . S
H524 C534 0.930 . S
H525 C535 0.930 . S
C526 H520 0.930 . S
C526 C527 1.355 . S
C526 C528 1.415 . S
C527 C526 1.355 . S
C527 C529 1.419 . S
C528 C526 1.415 . S
C528 C533 1.425 . S
C528 C535 1.409 . S
C529 H521 0.930 . S
C529 C527 1.419 . S
C529 C530 1.362 . S
C530 H522 0.930 . S
C530 C529 1.362 . S
C530 C533 1.409 . S
C531 H523 0.930 . S
C531 C532 1.355 . S
C531 C533 1.415 . S
C532 C531 1.355 . S
C532 C534 1.419 . S
C533 C528 1.425 . S
C533 C530 1.409 . S
C533 C531 1.415 . S
C534 H524 0.930 . S
C534 C532 1.419 . S
C534 C535 1.362 . S
C535 H525 0.930 . S
C535 C528 1.409 . S
C535 C534 1.362 . S
H536 C542 0.930 . S
H537 C545 0.930 . S
H538 C546 0.930 . S
H539 C547 0.930 . S
H540 C550 0.930 . S
H541 C551 0.930 . S
C542 H536 0.930 . S
C542 C543 1.355 . S
C542 C544 1.415 . S
C543 C542 1.355 . S
C543 C545 1.419 . S
C544 C542 1.415 . S
C544 C549 1.425 . S
C544 C551 1.409 . S
C545 H537 0.930 . S
C545 C543 1.419 . S
C545 C546 1.362 . S
C546 H538 0.930 . S
C546 C545 1.362 . S
C546 C549 1.409 . S
C547 H539 0.930 . S
C547 C548 1.355 . S
C547 C549 1.415 . S
C548 C547 1.355 . S
C548 C550 1.419 . S
C549 C544 1.425 . S
C549 C546 1.409 . S
C549 C547 1.415 . S
C550 H540 0.930 . S
C550 C548 1.419 . S
C550 C551 1.362 . S
C551 H541 0.930 . S
C551 C544 1.409 . S
C551 C550 1.362 . S
C175 C4 1.585 . S
C180 C107 1.567 . S
C191 C16 1.481 . S
C196 C110 1.463 . S
C212 C146 1.429 . S
C207 C32 1.435 . S
C223 C43 1.558 . S
C228 C166 1.551 . S
C244 C120 2.018 . S
C239 C5 2.038 . S
C260 C97 1.236 . S
C255 C21 1.306 . S
C276 C150 1.464 . S
C271 C27 1.515 . S
C292 C130 1.330 . S
C287 C37 1.414 . S
C303 C10 1.382 . S
C308 C160 1.294 . S
C324 C126 1.752 1_556 S
C319 C26 1.787 . S
C335 C38 1.449 . S
C340 C92 1.376 . S
C351 C15 1.472 . S
C356 C140 1.442 . S
C372 C106 1.650 . S
C367 C48 1.657 . S
C383 C59 1.323 . S
C388 C112 1.299 . S
C399 C76 1.712 . S
C404 C147 1.671 . S
C415 C87 1.441 . S
C420 C167 1.431 . S
C431 C54 1.500 . S
C436 C117 1.447 . S
C452 C100 1.884 . S
C447 C60 1.868 . S
C468 C152 1.432 . S
C463 C71 1.580 . S
C484 C132 1.264 . S
C479 C82 1.328 . S
C495 C49 1.594 . S
C500 C157 1.504 . S
C516 C127 1.429 . S
C511 C70 1.435 . S
C532 C90 1.713 . S
C527 C81 1.733 . S
C543 C65 1.322 . S
C548 C137 1.295 . S
