# Generated by pormake.
# Topology dag, (6,3)-cn, num edge types: 1
# Building blocks:
#     Node 0, Type 0, BuildingBlock: OJICUG_clean_sbu_0, # of connection points: 6
#     Node 1, Type 0, BuildingBlock: OJICUG_clean_sbu_0, # of connection points: 6
#     Node 2, Type 0, BuildingBlock: OJICUG_clean_sbu_0, # of connection points: 6
#     Node 3, Type 0, BuildingBlock: OJICUG_clean_sbu_0, # of connection points: 6
#     Node 4, Type 1, BuildingBlock: PAMTOO_clean_linker_0, # of connection points: 3
#     Node 5, Type 1, BuildingBlock: PAMTOO_clean_linker_0, # of connection points: 3
#     Node 6, Type 1, BuildingBlock: PAMTOO_clean_linker_0, # of connection points: 3
#     Node 7, Type 1, BuildingBlock: PAMTOO_clean_linker_0, # of connection points: 3
#     Node 8, Type 1, BuildingBlock: PAMTOO_clean_linker_0, # of connection points: 3
#     Node 9, Type 1, BuildingBlock: PAMTOO_clean_linker_0, # of connection points: 3
#     Node 10, Type 1, BuildingBlock: PAMTOO_clean_linker_0, # of connection points: 3
#     Node 11, Type 1, BuildingBlock: PAMTOO_clean_linker_0, # of connection points: 3
#     Edge 12, Type (0, 1), BuildingBlock: ZUJKAS_clean_linker_0, # of connection points: 2
#     Edge 13, Type (0, 1), BuildingBlock: ZUJKAS_clean_linker_0, # of connection points: 2
#     Edge 14, Type (0, 1), BuildingBlock: ZUJKAS_clean_linker_0, # of connection points: 2
#     Edge 15, Type (0, 1), BuildingBlock: ZUJKAS_clean_linker_0, # of connection points: 2
#     Edge 16, Type (0, 1), BuildingBlock: ZUJKAS_clean_linker_0, # of connection points: 2
#     Edge 17, Type (0, 1), BuildingBlock: ZUJKAS_clean_linker_0, # of connection points: 2
#     Edge 18, Type (0, 1), BuildingBlock: ZUJKAS_clean_linker_0, # of connection points: 2
#     Edge 19, Type (0, 1), BuildingBlock: ZUJKAS_clean_linker_0, # of connection points: 2
#     Edge 20, Type (0, 1), BuildingBlock: ZUJKAS_clean_linker_0, # of connection points: 2
#     Edge 21, Type (0, 1), BuildingBlock: ZUJKAS_clean_linker_0, # of connection points: 2
#     Edge 22, Type (0, 1), BuildingBlock: ZUJKAS_clean_linker_0, # of connection points: 2
#     Edge 23, Type (0, 1), BuildingBlock: ZUJKAS_clean_linker_0, # of connection points: 2
#     Edge 24, Type (0, 1), BuildingBlock: ZUJKAS_clean_linker_0, # of connection points: 2
#     Edge 25, Type (0, 1), BuildingBlock: ZUJKAS_clean_linker_0, # of connection points: 2
#     Edge 26, Type (0, 1), BuildingBlock: ZUJKAS_clean_linker_0, # of connection points: 2
#     Edge 27, Type (0, 1), BuildingBlock: ZUJKAS_clean_linker_0, # of connection points: 2
#     Edge 28, Type (0, 1), BuildingBlock: ZUJKAS_clean_linker_0, # of connection points: 2
#     Edge 29, Type (0, 1), BuildingBlock: ZUJKAS_clean_linker_0, # of connection points: 2
#     Edge 30, Type (0, 1), BuildingBlock: ZUJKAS_clean_linker_0, # of connection points: 2
#     Edge 31, Type (0, 1), BuildingBlock: ZUJKAS_clean_linker_0, # of connection points: 2
#     Edge 32, Type (0, 1), BuildingBlock: ZUJKAS_clean_linker_0, # of connection points: 2
#     Edge 33, Type (0, 1), BuildingBlock: ZUJKAS_clean_linker_0, # of connection points: 2
#     Edge 34, Type (0, 1), BuildingBlock: ZUJKAS_clean_linker_0, # of connection points: 2
#     Edge 35, Type (0, 1), BuildingBlock: ZUJKAS_clean_linker_0, # of connection points: 2
# Relax obj value: 0.097
# Max RMSD: 0.113
# Mean RMSD: 0.089
data_MOF--net-dag--node1-OJICUG_clean_sbu_0--node2-PAMTOO_clean_linker_0--edge1-ZUJKAS_clean_linker_0
_symmetry_space_group_name_H-M    P1
_symmetry_Int_Tables_number       1
_symmetry_cell_setting            triclinic
loop_
_symmetry_equiv_pos_as_xyz
'x, y, z'
_cell_length_a     48.299216
_cell_length_b     49.663819
_cell_length_c     50.587711
_cell_angle_alpha  89.967607
_cell_angle_beta   94.362408
_cell_angle_gamma 90.02105
loop_
_atom_site_label
_atom_site_type_symbol
_atom_site_fract_x
_atom_site_fract_y
_atom_site_fract_z
_atom_type_partial_charge
Sc0 Sc 0.13008 0.86699 0.00766 0.0
Sc1 Sc 0.14419 0.80162 0.98564 0.0
Sc2 Sc 0.19945 0.84563 0.006 0.0
O3 O 0.15794 0.83806 -0.00024 0.0
C4 C 0.17701 0.90171 0.98214 0.0
C5 C 0.10197 0.84182 0.95401 0.0
C6 C 0.19631 0.8124 0.9518 0.0
C7 C 0.10067 0.8142 0.02833 0.0
C8 C 0.1757 0.87383 0.05632 0.0
C9 C 0.19523 0.78483 0.02622 0.0
O10 O 0.15231 0.89798 0.98842 0.0
O11 O 0.11447 0.81932 0.95664 0.0
O12 O 0.20821 0.82892 0.96818 0.0
O13 O 0.10479 0.83946 0.02804 0.0
O14 O 0.19547 0.86338 0.0446 0.0
O15 O 0.17237 0.77986 0.01296 0.0
O16 O 0.15126 0.87625 0.04539 0.0
O17 O 0.11323 0.79789 0.01402 0.0
O18 O 0.20737 0.80754 0.0256 0.0
O19 O 0.10562 0.86078 0.97079 0.0
O20 O 0.19628 0.88457 0.98702 0.0
O21 O 0.17337 0.80106 0.95564 0.0
Sc22 Sc 0.69396 0.65687 0.49419 0.0
Sc23 Sc 0.63896 0.70187 0.47545 0.0
Sc24 Sc 0.62445 0.63614 0.49616 0.0
O25 O 0.65249 0.66498 0.4886 0.0
C26 C 0.67085 0.60122 0.47004 0.0
C27 C 0.6902 0.69086 0.44045 0.0
C28 C 0.59644 0.66241 0.44308 0.0
C29 C 0.69054 0.71723 0.51594 0.0
C30 C 0.67024 0.62861 0.54455 0.0
C31 C 0.59531 0.68871 0.51774 0.0
O32 O 0.69036 0.61807 0.47502 0.0
O33 O 0.6678 0.7027 0.4452 0.0
O34 O 0.60033 0.64301 0.45934 0.0
O35 O 0.70255 0.69458 0.51422 0.0
O36 O 0.64569 0.62649 0.53378 0.0
O37 O 0.60829 0.70529 0.50407 0.0
O38 O 0.69009 0.63884 0.53273 0.0
O39 O 0.6675 0.72273 0.50322 0.0
O40 O 0.59913 0.66343 0.51676 0.0
O41 O 0.70215 0.67375 0.4562 0.0
O42 O 0.64627 0.60521 0.47649 0.0
O43 O 0.60872 0.685 0.44629 0.0
Sc44 Sc 0.85936 0.20162 0.05493 0.0
Sc45 Sc 0.80373 0.15764 0.03535 0.0
Sc46 Sc 0.87288 0.1354 0.03502 0.0
O47 O 0.84528 0.1649 0.04181 0.0
C48 C 0.90266 0.1872 0.01264 0.0
C49 C 0.8089 0.21755 0.01317 0.0
C50 C 0.82767 0.12736 0.98625 0.0
C51 C 0.80683 0.19257 0.08858 0.0
C52 C 0.90101 0.16195 0.08798 0.0
C53 C 0.82533 0.10216 0.06127 0.0
O54 O 0.89023 0.20415 0.02637 0.0
O55 O 0.79664 0.19495 0.01421 0.0
O56 O 0.85199 0.12507 0.99746 0.0
O57 O 0.83018 0.2032 0.08492 0.0
O58 O 0.89701 0.14246 0.07187 0.0
O59 O 0.80622 0.11934 0.05571 0.0
O60 O 0.88902 0.18461 0.08448 0.0
O61 O 0.79468 0.17607 0.07234 0.0
O62 O 0.85012 0.10544 0.05505 0.0
O63 O 0.83143 0.22285 0.02686 0.0
O64 O 0.8985 0.16199 0.01392 0.0
O65 O 0.80789 0.13842 0.99747 0.0
Sc66 Sc 0.36844 0.36352 0.53562 0.0
Sc67 Sc 0.2992 0.34297 0.54005 0.0
Sc68 Sc 0.35472 0.29951 0.56125 0.0
O69 O 0.34077 0.33531 0.54561 0.0
C70 C 0.39768 0.30975 0.51748 0.0
C71 C 0.32154 0.3678 0.48759 0.0
C72 C 0.30278 0.28102 0.52283 0.0
C73 C 0.32248 0.40021 0.55998 0.0
C74 C 0.3976 0.34091 0.59006 0.0
C75 C 0.30393 0.31327 0.59607 0.0
O76 O 0.39288 0.33487 0.51577 0.0
O77 O 0.30215 0.35758 0.50005 0.0
O78 O 0.3264 0.27661 0.53494 0.0
O79 O 0.34723 0.39554 0.55437 0.0
O80 O 0.38459 0.3186 0.58922 0.0
O81 O 0.29196 0.32964 0.57957 0.0
O82 O 0.39399 0.3587 0.57204 0.0
O83 O 0.30287 0.38336 0.55556 0.0
O84 O 0.32589 0.30057 0.59149 0.0
O85 O 0.34604 0.37126 0.49809 0.0
O86 O 0.38582 0.29438 0.53324 0.0
O87 O 0.29045 0.3036 0.52362 0.0
H88 H 0.12423 0.05404 0.23684 0.0
H89 H 0.13265 0.11324 0.29907 0.0
H90 H 0.18875 0.04618 0.29993 0.0
H91 H 0.17522 0.06205 0.35384 0.0
C92 C 0.16842 0.08307 0.34938 0.0
O93 O 0.17548 0.09016 0.32442 0.0
H94 H 0.14548 0.08399 0.35043 0.0
C95 C 0.13469 0.06139 0.25515 0.0
C96 C 0.15738 0.04699 0.26704 0.0
C97 C 0.12558 0.08536 0.26638 0.0
C98 C 0.13918 0.09469 0.29013 0.0
C99 C 0.16188 0.08051 0.30213 0.0
C100 C 0.17108 0.05686 0.29052 0.0
H101 H 0.34459 0.66757 0.62009 0.0
H102 H 0.29028 0.67341 0.6834 0.0
H103 H 0.35427 0.73243 0.67645 0.0
H104 H 0.34961 0.71418 0.72897 0.0
C105 C 0.32711 0.70914 0.72852 0.0
O106 O 0.31406 0.71657 0.70443 0.0
H107 H 0.32528 0.68699 0.73139 0.0
C108 C 0.33749 0.67842 0.63691 0.0
C109 C 0.35198 0.70139 0.64641 0.0
C110 C 0.31517 0.66821 0.65002 0.0
C111 C 0.3069 0.68153 0.67255 0.0
C112 C 0.32077 0.7049 0.68172 0.0
C113 C 0.34298 0.71502 0.66847 0.0
H114 H 0.85392 0.83924 0.12982 0.0
H115 H 0.78302 0.82459 0.17459 0.0
H116 H 0.84802 0.76581 0.17416 0.0
H117 H 0.79253 0.74216 0.1749 0.0
C118 C 0.78222 0.75827 0.18585 0.0
O119 O 0.80103 0.77823 0.19324 0.0
H120 H 0.76487 0.76667 0.1726 0.0
C121 C 0.84246 0.82628 0.14235 0.0
C122 C 0.85393 0.8014 0.15058 0.0
C123 C 0.81686 0.83498 0.15075 0.0
C124 C 0.80261 0.81824 0.16752 0.0
C125 C 0.8138 0.79328 0.17563 0.0
C126 C 0.83929 0.78483 0.16711 0.0
H127 H 0.61725 0.45732 0.73844 0.0
H128 H 0.63416 0.39421 0.7957 0.0
H129 H 0.69239 0.45874 0.79005 0.0
H130 H 0.72039 0.4083 0.79896 0.0
C131 C 0.70316 0.39624 0.80637 0.0
O132 O 0.68245 0.41329 0.81346 0.0
H133 H 0.6952 0.38259 0.79003 0.0
C134 C 0.63012 0.44898 0.75493 0.0
C135 C 0.65548 0.46147 0.76307 0.0
C136 C 0.62206 0.42479 0.76656 0.0
C137 C 0.63974 0.41305 0.78668 0.0
C138 C 0.66499 0.42536 0.79501 0.0
C139 C 0.6727 0.4496 0.78346 0.0
H140 H 0.64871 0.32828 0.42047 0.0
H141 H 0.65303 0.25642 0.37357 0.0
H142 H 0.69986 0.32629 0.35443 0.0
H143 H 0.66016 0.29692 0.31337 0.0
C144 C 0.66923 0.27655 0.31732 0.0
O145 O 0.68625 0.27702 0.34053 0.0
H146 H 0.65199 0.26205 0.31941 0.0
C147 C 0.65758 0.31724 0.40467 0.0
C148 C 0.67581 0.3304 0.38859 0.0
C149 C 0.64913 0.29062 0.39939 0.0
C150 C 0.65992 0.27673 0.37836 0.0
C151 C 0.67829 0.28959 0.36234 0.0
C152 C 0.68645 0.31626 0.36758 0.0
H153 H 0.13706 0.15609 0.89193 0.0
H154 H 0.1483 0.2329 0.85465 0.0
H155 H 0.21091 0.17186 0.85202 0.0
H156 H 0.23191 0.22955 0.85937 0.0
C157 C 0.21458 0.23955 0.84736 0.0
O158 O 0.19602 0.22054 0.83705 0.0
H159 H 0.20408 0.2537 0.86042 0.0
C160 C 0.14923 0.16951 0.88049 0.0
C161 C 0.17492 0.1607 0.87252 0.0
C162 C 0.13941 0.19557 0.87438 0.0
C163 C 0.15571 0.21292 0.86013 0.0
C164 C 0.18146 0.20436 0.85227 0.0
C165 C 0.19118 0.17841 0.85863 0.0
H166 H 0.36922 0.55172 0.30613 0.0
H167 H 0.35741 0.60884 0.24225 0.0
H168 H 0.30307 0.54075 0.24503 0.0
H169 H 0.31266 0.55701 0.18883 0.0
C170 C 0.3211 0.57736 0.19389 0.0
O171 O 0.31438 0.58434 0.21898 0.0
H172 H 0.34405 0.57661 0.1929 0.0
C173 C 0.35801 0.5583 0.28789 0.0
C174 C 0.33528 0.54314 0.27715 0.0
C175 C 0.36628 0.58202 0.27555 0.0
C176 C 0.35162 0.59046 0.25198 0.0
C177 C 0.32893 0.57553 0.24112 0.0
C178 C 0.32071 0.55203 0.25368 0.0
H179 H 0.88142 0.94497 0.80313 0.0
H180 H 0.8685 0.88538 0.74167 0.0
H181 H 0.80579 0.94479 0.75232 0.0
H182 H 0.78196 0.89348 0.7398 0.0
C183 C 0.79957 0.8835 0.73076 0.0
O184 O 0.81901 0.90258 0.72506 0.0
H185 H 0.80881 0.86865 0.74541 0.0
C186 C 0.86882 0.93663 0.78646 0.0
C187 C 0.84256 0.94774 0.77938 0.0
C188 C 0.87851 0.9142 0.77301 0.0
C189 C 0.86166 0.90298 0.752 0.0
C190 C 0.83563 0.91423 0.74446 0.0
C191 C 0.82627 0.93677 0.75788 0.0
H192 H 0.13762 0.8888 0.09062 0.0
H193 H 0.1461 0.9108 0.13346 0.0
H194 H 0.23442 0.90548 0.12702 0.0
H195 H 0.22619 0.88344 0.08371 0.0
H196 H 0.17902 0.89485 0.18185 0.0
H197 H 0.2174 0.98756 0.13408 0.0
H198 H 0.19837 0.96187 0.11513 0.0
H199 H 0.23366 0.95594 0.12741 0.0
C200 C 0.15891 0.89208 0.09829 0.0
C201 C 0.18123 0.88466 0.08351 0.0
C202 C 0.1637 0.90453 0.12289 0.0
C203 C 0.19085 0.90998 0.13324 0.0
C204 C 0.2133 0.90164 0.11919 0.0
H205 H 0.21059 0.0331 0.2575 0.0
H206 H 0.22513 0.99562 0.23016 0.0
C207 C 0.20853 0.889 0.09451 0.0
C208 C 0.195 0.92616 0.15777 0.0
H209 H 0.20782 0.99059 0.17852 0.0
C210 C 0.18589 0.91564 0.18135 0.0
C211 C 0.20416 0.95318 0.15707 0.0
C212 C 0.21388 0.96552 0.13211 0.0
C213 C 0.18425 0.93189 0.20386 0.0
C214 C 0.19132 0.95947 0.20249 0.0
C215 C 0.20234 0.96946 0.17953 0.0
C216 C 0.18378 0.97913 0.2228 0.0
C217 C 0.17415 0.91954 0.22862 0.0
C218 C 0.15582 0.98204 0.22806 0.0
C219 C 0.14753 0.00329 0.24364 0.0
C220 C 0.16699 0.02226 0.25408 0.0
C221 C 0.19519 0.01866 0.24987 0.0
C222 C 0.20349 0.99733 0.2342 0.0
H223 H 0.17983 0.89789 0.23017 0.0
H224 H 0.18285 0.9301 0.24674 0.0
H225 H 0.15116 0.92087 0.22775 0.0
H226 H 0.14011 0.96869 0.219 0.0
H227 H 0.1257 0.00544 0.24674 0.0
H228 H 0.56632 0.66006 0.55249 0.0
H229 H 0.52822 0.67561 0.57735 0.0
H230 H 0.53748 0.75593 0.54684 0.0
H231 H 0.57567 0.74048 0.52139 0.0
H232 H 0.52552 0.71732 0.61586 0.0
H233 H 0.45574 0.73583 0.52461 0.0
H234 H 0.48731 0.71653 0.52379 0.0
H235 H 0.48895 0.75242 0.52757 0.0
C236 C 0.56047 0.68109 0.55109 0.0
C237 C 0.5739 0.69894 0.53466 0.0
C238 C 0.53872 0.68996 0.56542 0.0
C239 C 0.52986 0.71682 0.56366 0.0
C240 C 0.5438 0.73503 0.54814 0.0
H241 H 0.36936 0.75139 0.63118 0.0
H242 H 0.41393 0.76263 0.61304 0.0
C243 C 0.56568 0.72616 0.53373 0.0
C244 C 0.50509 0.72483 0.57723 0.0
H245 H 0.43549 0.73575 0.56521 0.0
C246 C 0.50595 0.72203 0.60488 0.0
C247 C 0.47964 0.73112 0.56282 0.0
C248 C 0.47759 0.73408 0.53304 0.0
C249 C 0.48166 0.72346 0.61829 0.0
C250 C 0.45595 0.72755 0.60361 0.0
C251 C 0.45533 0.7326 0.57631 0.0
C252 C 0.42951 0.7218 0.6153 0.0
C253 C 0.48342 0.71907 0.64787 0.0
C254 C 0.42361 0.69518 0.62212 0.0
C255 C 0.39837 0.68874 0.63208 0.0
C256 C 0.37846 0.70881 0.63541 0.0
C257 C 0.38441 0.73559 0.62877 0.0
C258 C 0.40973 0.74201 0.61847 0.0
H259 H 0.50441 0.72407 0.65709 0.0
H260 H 0.46775 0.73143 0.65732 0.0
H261 H 0.47925 0.69756 0.652 0.0
H262 H 0.4385 0.67927 0.61949 0.0
H263 H 0.39451 0.66802 0.63742 0.0
H264 H 0.85974 0.0596 0.07342 0.0
H265 H 0.84821 0.0167 0.09297 0.0
H266 H 0.76421 0.04371 0.09979 0.0
H267 H 0.77538 0.08687 0.07958 0.0
H268 H 0.8291 0.00486 0.14142 0.0
H269 H 0.75319 0.97296 0.05903 0.0
H270 H 0.77621 0.00123 0.05604 0.0
H271 H 0.7463 0.00441 0.07482 0.0
C272 C 0.83878 0.0566 0.07908 0.0
C273 C 0.81844 0.07671 0.07469 0.0
C274 C 0.83225 0.032 0.09033 0.0
C275 C 0.80527 0.02688 0.09752 0.0
C276 C 0.78502 0.04708 0.09391 0.0
H277 H 0.79362 0.87246 0.18222 0.0
H278 H 0.78356 0.91972 0.17141 0.0
C279 C 0.79151 0.07178 0.08249 0.0
C280 C 0.79881 5e-05 0.10834 0.0
H281 H 0.7641 0.94156 0.09289 0.0
C282 C 0.81457 0.9911 0.13109 0.0
C283 C 0.77991 0.98219 0.09468 0.0
C284 C 0.76302 0.99048 0.06968 0.0
C285 C 0.81312 0.96435 0.13978 0.0
C286 C 0.79479 0.94623 0.12569 0.0
C287 C 0.77796 0.95556 0.10373 0.0
C288 C 0.79571 0.9169 0.1312 0.0
C289 C 0.83259 0.95535 0.16287 0.0
C290 C 0.80412 0.8993 0.11167 0.0
C291 C 0.80935 0.87226 0.1176 0.0
C292 C 0.80644 0.86229 0.14326 0.0
C293 C 0.7961 0.87951 0.16227 0.0
C294 C 0.79064 0.90659 0.15623 0.0
H295 H 0.84898 0.97053 0.16819 0.0
H296 H 0.82061 0.95215 0.18047 0.0
H297 H 0.84281 0.93606 0.1583 0.0
H298 H 0.80793 0.90675 0.09214 0.0
H299 H 0.81668 0.85938 0.10234 0.0
H300 H 0.43296 0.38381 0.59621 0.0
H301 H 0.46913 0.3916 0.63163 0.0
H302 H 0.44639 0.31834 0.67023 0.0
H303 H 0.40991 0.31014 0.63469 0.0
H304 H 0.45582 0.36818 0.70418 0.0
H305 H 0.54146 0.3433 0.64109 0.0
H306 H 0.51593 0.36626 0.62639 0.0
H307 H 0.50613 0.33224 0.63335 0.0
C308 C 0.43544 0.36932 0.61222 0.0
C309 C 0.41858 0.34621 0.61243 0.0
C310 C 0.45621 0.37381 0.63242 0.0
C311 C 0.46056 0.35539 0.6533 0.0
C312 C 0.44336 0.3327 0.65414 0.0
H313 H 0.6148 0.37145 0.75437 0.0
H314 H 0.57396 0.35036 0.73127 0.0
C315 C 0.42259 0.32806 0.6338 0.0
C316 C 0.48354 0.35988 0.67383 0.0
H317 H 0.55397 0.36634 0.68151 0.0
C318 C 0.47733 0.36741 0.69943 0.0
C319 C 0.51153 0.35847 0.66761 0.0
C320 C 0.5193 0.3494 0.64069 0.0
C321 C 0.49845 0.37499 0.71863 0.0
C322 C 0.52634 0.37523 0.71185 0.0
C323 C 0.53257 0.36628 0.68667 0.0
C324 C 0.5492 0.38671 0.72955 0.0
C325 C 0.49071 0.38306 0.74584 0.0
C326 C 0.54865 0.41402 0.73659 0.0
C327 C 0.57188 0.42607 0.7498 0.0
C328 C 0.59619 0.41109 0.75609 0.0
C329 C 0.59629 0.38345 0.75004 0.0
C330 C 0.57303 0.37141 0.73675 0.0
H331 H 0.47071 0.3738 0.75051 0.0
H332 H 0.50708 0.37712 0.76136 0.0
H333 H 0.48823 0.40525 0.74653 0.0
H334 H 0.53072 0.42635 0.73078 0.0
H335 H 0.57114 0.44736 0.75436 0.0
H336 H 0.63398 0.56208 0.45292 0.0
H337 H 0.64398 0.51854 0.4337 0.0
H338 H 0.73119 0.53799 0.43761 0.0
H339 H 0.72149 0.5818 0.45723 0.0
H340 H 0.67118 0.50622 0.38668 0.0
H341 H 0.72734 0.46574 0.47861 0.0
H342 H 0.70571 0.49535 0.47899 0.0
H343 H 0.73911 0.49721 0.46584 0.0
C344 C 0.65533 0.55726 0.44969 0.0
C345 C 0.67696 0.57543 0.45687 0.0
C346 C 0.66098 0.53235 0.4386 0.0
C347 C 0.68833 0.52496 0.43452 0.0
C348 C 0.70997 0.54321 0.44096 0.0
H349 H 0.72578 0.35707 0.39059 0.0
H350 H 0.73379 0.40557 0.39809 0.0
C351 C 0.70435 0.56826 0.45206 0.0
C352 C 0.69375 0.49777 0.42412 0.0
H353 H 0.71769 0.43558 0.44347 0.0
C354 C 0.68178 0.49087 0.3989 0.0
C355 C 0.70777 0.47786 0.44005 0.0
C356 C 0.72065 0.48419 0.46745 0.0
C357 C 0.68225 0.46426 0.38969 0.0
C358 C 0.69463 0.44403 0.40632 0.0
C359 C 0.70819 0.45119 0.43082 0.0
C360 C 0.69032 0.41512 0.4003 0.0
C361 C 0.66866 0.45784 0.36259 0.0
C362 C 0.66334 0.40457 0.3993 0.0
C363 C 0.65879 0.37714 0.39524 0.0
C364 C 0.68115 0.35961 0.39219 0.0
C365 C 0.7082 0.3702 0.39283 0.0
C366 C 0.71279 0.39778 0.39713 0.0
H367 H 0.66818 0.47576 0.3494 0.0
H368 H 0.67966 0.44123 0.35309 0.0
H369 H 0.6469 0.45143 0.36458 0.0
H370 H 0.64578 0.41753 0.40214 0.0
H371 H 0.63769 0.36962 0.39449 0.0
H372 H 0.92789 0.23675 0.01214 0.0
H373 H 0.96432 0.2512 0.98397 0.0
H374 H 0.96021 0.17421 0.94451 0.0
H375 H 0.92404 0.15963 0.97233 0.0
H376 H 0.01581 0.22383 0.98246 0.0
H377 H 0.96041 0.22848 0.88281 0.0
H378 H 0.94265 0.22991 0.91297 0.0
H379 H 0.95327 0.19804 0.90019 0.0
C380 C 0.93447 0.22306 0.99719 0.0
C381 C 0.92318 0.19698 0.99458 0.0
C382 C 0.95523 0.23137 0.98112 0.0
C383 C 0.96458 0.21392 0.96191 0.0
C384 C 0.95285 0.18819 0.95884 0.0
H385 H 0.09115 0.16694 0.87198 0.0
H386 H 0.04817 0.17861 0.8916 0.0
C387 C 0.93237 0.17979 0.97498 0.0
C388 C 0.98861 0.22105 0.94688 0.0
H389 H 0.00999 0.22078 0.88417 0.0
C390 C 0.01458 0.22394 0.96096 0.0
C391 C 0.98677 0.22121 0.91887 0.0
C392 C 0.95921 0.21951 0.90281 0.0
C393 C 0.0391 0.2246 0.94778 0.0
C394 C 0.03739 0.22288 0.91976 0.0
C395 C 0.01123 0.222 0.90564 0.0
C396 C 0.06233 0.21793 0.90521 0.0
C397 C 0.06665 0.22498 0.96403 0.0
C398 C 0.08424 0.23654 0.90566 0.0
C399 C 0.10907 0.22975 0.89472 0.0
C400 C 0.11221 0.2043 0.88311 0.0
C401 C 0.08957 0.18645 0.88133 0.0
C402 C 0.06491 0.19319 0.8923 0.0
H403 H 0.06427 0.22202 0.98551 0.0
H404 H 0.08054 0.20901 0.95725 0.0
H405 H 0.07692 0.24469 0.96148 0.0
H406 H 0.08246 0.25593 0.91516 0.0
H407 H 0.12615 0.24393 0.89635 0.0
H408 H 0.27081 0.38033 0.4623 0.0
H409 H 0.26215 0.40203 0.41885 0.0
H410 H 0.34975 0.39923 0.40776 0.0
H411 H 0.35856 0.37762 0.45077 0.0
H412 H 0.2855 0.45182 0.40777 0.0
H413 H 0.315 0.37608 0.33511 0.0
H414 H 0.30654 0.36719 0.36821 0.0
H415 H 0.34074 0.37922 0.36243 0.0
C416 C 0.28812 0.38378 0.45031 0.0
C417 C 0.3154 0.37743 0.46006 0.0
C418 C 0.28313 0.39617 0.42552 0.0
C419 C 0.30525 0.4019 0.40994 0.0
C420 C 0.33229 0.39448 0.41917 0.0
H421 H 0.36839 0.50349 0.29961 0.0
H422 H 0.35493 0.46698 0.32827 0.0
C423 C 0.33732 0.38237 0.44393 0.0
C424 C 0.30111 0.41876 0.38581 0.0
H425 H 0.31905 0.42286 0.32199 0.0
C426 C 0.29207 0.44536 0.38875 0.0
C427 C 0.30973 0.41022 0.36109 0.0
C428 C 0.31828 0.38151 0.35642 0.0
C429 C 0.29366 0.46428 0.36831 0.0
C430 C 0.304 0.45615 0.34411 0.0
C431 C 0.31122 0.42908 0.34057 0.0
C432 C 0.31101 0.47609 0.32387 0.0
C433 C 0.28625 0.49323 0.37354 0.0
C434 C 0.29066 0.49279 0.31116 0.0
C435 C 0.29836 0.51398 0.29498 0.0
C436 C 0.32653 0.51865 0.29119 0.0
C437 C 0.34659 0.50078 0.30261 0.0
C438 C 0.33891 0.47975 0.3188 0.0
H439 H 0.28314 0.49692 0.39478 0.0
H440 H 0.30278 0.50699 0.3675 0.0
H441 H 0.26668 0.49844 0.36175 0.0
H442 H 0.26895 0.49 0.31444 0.0
H443 H 0.28242 0.5274 0.28646 0.0
H444 H 0.06618 0.88404 0.94492 0.0
H445 H 0.03095 0.88981 0.90817 0.0
H446 H 0.05596 0.81513 0.87381 0.0
H447 H 0.0914 0.80893 0.91068 0.0
H448 H 0.04674 0.86605 0.8379 0.0
H449 H 0.96004 0.83701 0.89839 0.0
H450 H 0.98491 0.86037 0.91358 0.0
H451 H 0.99552 0.82663 0.90664 0.0
C452 C 0.0644 0.86884 0.92954 0.0
C453 C 0.08158 0.84591 0.9309 0.0
C454 C 0.0442 0.87219 0.90858 0.0
C455 C 0.04082 0.8528 0.88849 0.0
C456 C 0.0583 0.83025 0.88924 0.0
H457 H 0.88893 0.86095 0.78312 0.0
H458 H 0.9306 0.84159 0.80649 0.0
C459 C 0.07846 0.82675 0.91036 0.0
C460 C 0.01836 0.85601 0.86721 0.0
H461 H 0.94782 0.85827 0.8571 0.0
C462 C 0.02509 0.86398 0.84188 0.0
C463 C 0.99024 0.85294 0.87247 0.0
C464 C 0.98209 0.84357 0.89917 0.0
C465 C 0.00421 0.87034 0.82198 0.0
C466 C 0.97605 0.86884 0.82777 0.0
C467 C 0.96942 0.85946 0.85269 0.0
C468 C 0.95316 0.87926 0.80941 0.0
C469 C 0.01246 0.87904 0.79512 0.0
C470 C 0.95228 0.90671 0.80284 0.0
C471 C 0.92857 0.91777 0.78954 0.0
C472 C 0.90524 0.90161 0.78265 0.0
C473 C 0.9067 0.87383 0.78795 0.0
C474 C 0.93042 0.86278 0.80139 0.0
H475 H 0.03323 0.87104 0.79117 0.0
H476 H 0.99705 0.87223 0.7791 0.0
H477 H 0.01356 0.90135 0.79449 0.0
H478 H 0.96933 0.91991 0.80927 0.0
H479 H 0.92804 0.93922 0.78558 0.0
H480 H 0.86554 0.10606 0.95481 0.0
H481 H 0.85683 0.08348 0.91246 0.0
H482 H 0.7692 0.09964 0.91363 0.0
H483 H 0.77766 0.12208 0.95667 0.0
H484 H 0.77913 0.04743 0.90356 0.0
H485 H 0.8389 0.10925 0.83766 0.0
H486 H 0.86017 0.10084 0.86707 0.0
H487 H 0.8296 0.12127 0.86951 0.0
C488 C 0.84439 0.10519 0.94603 0.0
C489 C 0.82228 0.11581 0.9593 0.0
C490 C 0.83949 0.0925 0.92157 0.0
C491 C 0.81244 0.09033 0.90957 0.0
C492 C 0.79029 0.10137 0.92241 0.0
H493 H 0.81663 0.99474 0.76282 0.0
H494 H 0.80146 0.03156 0.79089 0.0
C495 C 0.79518 0.11415 0.94701 0.0
C496 C 0.80747 0.07387 0.88523 0.0
H497 H 0.8349 0.06132 0.82628 0.0
C498 C 0.79072 0.05086 0.88632 0.0
C499 C 0.82201 0.07857 0.86241 0.0
C500 C 0.83841 0.10402 0.85898 0.0
C501 C 0.79033 0.03117 0.86643 0.0
C502 C 0.80756 0.03438 0.84525 0.0
C503 C 0.82209 0.05861 0.84279 0.0
C504 C 0.81395 0.01153 0.8279 0.0
C505 C 0.7724 0.00656 0.8689 0.0
C506 C 0.82606 0.98824 0.83941 0.0
C507 C 0.83471 0.96742 0.82356 0.0
C508 C 0.83171 0.9695 0.79579 0.0
C509 C 0.81908 0.99259 0.78418 0.0
C510 C 0.81047 0.01359 0.80015 0.0
H511 H 0.75364 0.01141 0.8794 0.0
H512 H 0.76577 0.99793 0.84918 0.0
H513 H 0.78434 0.99105 0.88073 0.0
H514 H 0.82957 0.98645 0.86074 0.0
H515 H 0.84405 0.94973 0.83309 0.0
H516 H 0.41639 0.32984 0.47201 0.0
H517 H 0.45812 0.31642 0.45109 0.0
H518 H 0.47201 0.25236 0.50819 0.0
H519 H 0.42973 0.26519 0.52878 0.0
H520 H 0.50804 0.31981 0.4777 0.0
H521 H 0.49158 0.2155 0.44045 0.0
H522 H 0.46337 0.23677 0.44922 0.0
H523 H 0.48494 0.21996 0.47463 0.0
C524 C 0.42795 0.31248 0.47973 0.0
C525 C 0.41991 0.29869 0.50216 0.0
C526 C 0.45177 0.30482 0.46774 0.0
C527 C 0.46816 0.28336 0.47804 0.0
C528 C 0.45943 0.26864 0.49959 0.0
H529 H 0.64424 0.28778 0.45275 0.0
H530 H 0.60129 0.28006 0.47453 0.0
C531 C 0.43531 0.27609 0.51141 0.0
C532 C 0.496 0.27896 0.46837 0.0
H533 H 0.53754 0.23294 0.4405 0.0
C534 C 0.51446 0.3008 0.46954 0.0
C535 C 0.5043 0.25414 0.45777 0.0
C536 C 0.48495 0.23029 0.45518 0.0
C537 C 0.54081 0.29877 0.46001 0.0
C538 C 0.54938 0.27385 0.4498 0.0
C539 C 0.53105 0.25186 0.44876 0.0
C540 C 0.57644 0.27134 0.43812 0.0
C541 C 0.55878 0.3237 0.46008 0.0
C542 C 0.57707 0.2669 0.41079 0.0
C543 C 0.60164 0.27083 0.39843 0.0
C544 C 0.62583 0.27941 0.41324 0.0
C545 C 0.62575 0.28141 0.44092 0.0
C546 C 0.60127 0.2771 0.45332 0.0
H547 H 0.54661 0.34235 0.46275 0.0
H548 H 0.57509 0.32245 0.4767 0.0
H549 H 0.56913 0.32547 0.44129 0.0
H550 H 0.55814 0.26237 0.39873 0.0
H551 H 0.60111 0.26932 0.37703 0.0
H552 H 0.22449 0.91531 0.95845 0.0
H553 H 0.23509 0.95846 0.93778 0.0
H554 H 0.15531 0.9893 0.95589 0.0
H555 H 0.14441 0.94654 0.97637 0.0
H556 H 0.20052 0.98631 0.8941 0.0
H557 H 0.21524 0.04502 0.98739 0.0
H558 H 0.21829 0.00876 0.98644 0.0
H559 H 0.18462 0.02431 0.98488 0.0
C560 C 0.20921 0.93129 0.95806 0.0
C561 C 0.18361 0.92746 0.96916 0.0
C562 C 0.21532 0.95588 0.94624 0.0
C563 C 0.19611 0.97706 0.94567 0.0
C564 C 0.17053 0.97324 0.95648 0.0
H565 H 0.14536 0.11479 0.86312 0.0
H566 H 0.15757 0.06934 0.87829 0.0
C567 C 0.1643 0.94871 0.96806 0.0
C568 C 0.20213 0.0032 0.93338 0.0
H569 H 0.20599 0.07031 0.94734 0.0
C570 C 0.20232 0.00467 0.90571 0.0
C571 C 0.20488 0.02699 0.94865 0.0
C572 C 0.20602 0.02629 0.97852 0.0
C573 C 0.20315 0.02964 0.89277 0.0
C574 C 0.20359 0.05357 0.90795 0.0
C575 C 0.2055 0.05194 0.93572 0.0
C576 C 0.19839 0.08029 0.8956 0.0
C577 C 0.20261 0.03026 0.86294 0.0
C578 C 0.21732 0.10154 0.90028 0.0
C579 C 0.21033 0.12763 0.8916 0.0
C580 C 0.18412 0.13281 0.87862 0.0
C581 C 0.16564 0.11132 0.87322 0.0
C582 C 0.17271 0.08532 0.88164 0.0
H583 H 0.21134 0.01145 0.85509 0.0
H584 H 0.18078 0.03205 0.85455 0.0
H585 H 0.21447 0.04772 0.85599 0.0
H586 H 0.23712 0.09808 0.91128 0.0
H587 H 0.22484 0.14392 0.89613 0.0
H588 H 0.56893 0.61621 0.42797 0.0
H589 H 0.53331 0.61019 0.39186 0.0
H590 H 0.54178 0.69333 0.36921 0.0
H591 H 0.57747 0.69979 0.40578 0.0
H592 H 0.48747 0.67854 0.3734 0.0
H593 H 0.53869 0.60411 0.31242 0.0
H594 H 0.53981 0.59369 0.34643 0.0
H595 H 0.55764 0.62391 0.3377 0.0
C596 C 0.56352 0.63324 0.41523 0.0
C597 C 0.57611 0.65853 0.41988 0.0
C598 C 0.54327 0.62966 0.39439 0.0
C599 C 0.53524 0.65117 0.37754 0.0
C600 C 0.54789 0.6764 0.38185 0.0
H601 H 0.40939 0.60437 0.25085 0.0
H602 H 0.45057 0.62706 0.27181 0.0
C603 C 0.56828 0.68003 0.40276 0.0
C604 C 0.51208 0.64746 0.35691 0.0
H605 H 0.48833 0.6044 0.30779 0.0
C606 C 0.48783 0.66272 0.35866 0.0
C607 C 0.5127 0.62722 0.33731 0.0
C608 C 0.53874 0.61151 0.33315 0.0
C609 C 0.46354 0.65685 0.34268 0.0
C610 C 0.46343 0.63486 0.3249 0.0
C611 C 0.48828 0.62101 0.3217 0.0
C612 C 0.43734 0.62406 0.31163 0.0
C613 C 0.43804 0.6738 0.34553 0.0
C614 C 0.41626 0.61495 0.32704 0.0
C615 C 0.39282 0.60212 0.31517 0.0
C616 C 0.39007 0.59784 0.28763 0.0
C617 C 0.41085 0.60757 0.27209 0.0
C618 C 0.4344 0.62043 0.28403 0.0
H619 H 0.44376 0.69456 0.35206 0.0
H620 H 0.42483 0.67495 0.32661 0.0
H621 H 0.42564 0.66475 0.36085 0.0
H622 H 0.41833 0.61696 0.34842 0.0
H623 H 0.37703 0.59512 0.32764 0.0
H624 H 0.27148 0.42394 0.5626 0.0
H625 H 0.26179 0.46973 0.57732 0.0
H626 H 0.34915 0.48224 0.59782 0.0
H627 H 0.35912 0.43693 0.58258 0.0
H628 H 0.27114 0.49674 0.62435 0.0
H629 H 0.33045 0.54386 0.54724 0.0
H630 H 0.32164 0.50855 0.54677 0.0
H631 H 0.35131 0.52054 0.56714 0.0
C632 C 0.28862 0.43639 0.57038 0.0
C633 C 0.31613 0.42691 0.57106 0.0
C634 C 0.28303 0.46254 0.57877 0.0
C635 C 0.30482 0.47958 0.58805 0.0
C636 C 0.33211 0.46968 0.59 0.0
H637 H 0.31323 0.6231 0.68007 0.0
H638 H 0.30428 0.57724 0.66419 0.0
C639 C 0.33775 0.44372 0.58138 0.0
C640 C 0.29933 0.50791 0.59519 0.0
H641 H 0.31993 0.57214 0.5834 0.0
C642 C 0.2815 0.51331 0.61521 0.0
C643 C 0.31223 0.52957 0.58273 0.0
C644 C 0.32972 0.52538 0.55958 0.0
C645 C 0.2774 0.53974 0.62405 0.0
C646 C 0.29207 0.56117 0.613 0.0
C647 C 0.30881 0.55579 0.5921 0.0
C648 C 0.29213 0.58902 0.6237 0.0
C649 C 0.25739 0.54435 0.64508 0.0
C650 C 0.28815 0.61105 0.60636 0.0
C651 C 0.29391 0.6372 0.61533 0.0
C652 C 0.30335 0.6418 0.64186 0.0
C653 C 0.30551 0.62005 0.65962 0.0
C654 C 0.30025 0.59383 0.65055 0.0
H655 H 0.24075 0.52886 0.64398 0.0
H656 H 0.26874 0.54274 0.66493 0.0
H657 H 0.24763 0.56457 0.64321 0.0
H658 H 0.28196 0.60788 0.58556 0.0
H659 H 0.29222 0.65371 0.60129 0.0
H660 H 0.07675 0.84068 0.06794 0.0
H661 H 0.03887 0.82528 0.09321 0.0
H662 H 0.03844 0.74874 0.05298 0.0
H663 H 0.07649 0.76408 0.02724 0.0
H664 H 0.98678 0.77378 0.05124 0.0
H665 H 0.03402 0.77194 0.15411 0.0
H666 H 0.04146 0.80282 0.13767 0.0
H667 H 0.05453 0.77151 0.12568 0.0
C668 C 0.06892 0.82042 0.06463 0.0
C669 C 0.07957 0.80367 0.04543 0.0
C670 C 0.04743 0.81154 0.07934 0.0
C671 C 0.03617 0.78572 0.07528 0.0
C672 C 0.0471 0.76864 0.05659 0.0
H673 H 0.87035 0.75258 0.1318 0.0
H674 H 0.91566 0.74137 0.11558 0.0
C675 C 0.06881 0.77746 0.04192 0.0
C676 C 0.011 0.77816 0.0885 0.0
H677 H 0.98414 0.77944 0.14891 0.0
C678 C 0.98622 0.7742 0.07263 0.0
C679 C 0.01044 0.77861 0.11639 0.0
C680 C 0.03662 0.78117 0.13444 0.0
C681 C 0.96054 0.77316 0.08383 0.0
C682 C 0.95981 0.77574 0.11161 0.0
C683 C 0.98478 0.7776 0.1276 0.0
C684 C 0.93347 0.78073 0.12388 0.0
C685 C 0.93427 0.77143 0.06573 0.0
C686 C 0.92894 0.80619 0.13468 0.0
C687 C 0.90334 0.81256 0.14397 0.0
C688 C 0.88172 0.79356 0.14268 0.0
C689 C 0.88665 0.76761 0.13295 0.0
C690 C 0.91239 0.76124 0.12356 0.0
H691 H 0.93839 0.77287 0.04446 0.0
H692 H 0.92383 0.75191 0.0689 0.0
H693 H 0.9197 0.78776 0.07033 0.0
H694 H 0.945 0.82148 0.13518 0.0
H695 H 0.90032 0.83253 0.15187 0.0
H696 H 0.72064 0.61713 0.57121 0.0
H697 H 0.72864 0.59543 0.61476 0.0
H698 H 0.64044 0.59422 0.62279 0.0
H699 H 0.63218 0.61578 0.57964 0.0
H700 H 0.67677 0.61011 0.67072 0.0
H701 H 0.70574 0.51394 0.62299 0.0
H702 H 0.7233 0.54438 0.61455 0.0
H703 H 0.68716 0.54021 0.60446 0.0
C704 C 0.70298 0.61254 0.58241 0.0
C705 C 0.67575 0.61788 0.57179 0.0
C706 C 0.70761 0.60013 0.60722 0.0
C707 C 0.68509 0.59309 0.6218 0.0
C708 C 0.65806 0.59951 0.6118 0.0
H709 H 0.62433 0.50485 0.74556 0.0
H710 H 0.63724 0.53987 0.71505 0.0
C711 C 0.6534 0.61169 0.58704 0.0
C712 C 0.68903 0.5772 0.64651 0.0
H713 H 0.69882 0.51266 0.66816 0.0
C714 C 0.68211 0.5889 0.67036 0.0
C715 C 0.69615 0.54963 0.64593 0.0
C716 C 0.70343 0.53609 0.62067 0.0
C717 C 0.681 0.57342 0.6935 0.0
C718 C 0.68624 0.54541 0.69246 0.0
C719 C 0.69476 0.53411 0.66896 0.0
C720 C 0.67996 0.52686 0.71422 0.0
C721 C 0.67373 0.58715 0.71863 0.0
C722 C 0.69962 0.50776 0.72394 0.0
C723 C 0.69209 0.4873 0.74099 0.0
C724 C 0.66471 0.4855 0.74856 0.0
C725 C 0.6455 0.50549 0.73988 0.0
C726 C 0.65299 0.52581 0.72273 0.0
H727 H 0.68083 0.60844 0.71912 0.0
H728 H 0.65083 0.58724 0.71941 0.0
H729 H 0.68312 0.57665 0.73652 0.0
H730 H 0.72049 0.50804 0.71746 0.0
H731 H 0.70732 0.47207 0.74705 0.0
H732 H 0.92907 0.116 0.10317 0.0
H733 H 0.96369 0.11001 0.14022 0.0
H734 H 0.95331 0.19273 0.16333 0.0
H735 H 0.91866 0.19915 0.1259 0.0
H736 H 0.00816 0.17856 0.16103 0.0
H737 H 0.95471 0.10302 0.21918 0.0
H738 H 0.95543 0.09308 0.18516 0.0
H739 H 0.9367 0.1229 0.19337 0.0
C740 C 0.93386 0.13294 0.11619 0.0
C741 C 0.921 0.15809 0.11146 0.0
C742 C 0.95355 0.12938 0.13755 0.0
C743 C 0.96071 0.15077 0.15483 0.0
C744 C 0.94787 0.17588 0.15036 0.0
H745 H 0.08051 0.1075 0.28815 0.0
H746 H 0.03998 0.12894 0.26452 0.0
C747 C 0.92808 0.17949 0.12895 0.0
C748 C 0.98306 0.14712 0.17629 0.0
H749 H 0.00476 0.1046 0.22668 0.0
C750 C 0.00723 0.16274 0.17574 0.0
C751 C 0.98166 0.12686 0.19582 0.0
C752 C 0.95559 0.11071 0.19863 0.0
C753 C 0.03074 0.15734 0.19297 0.0
C754 C 0.03016 0.13548 0.21086 0.0
C755 C 0.00533 0.12114 0.21272 0.0
C756 C 0.05569 0.12534 0.22573 0.0
C757 C 0.0562 0.17469 0.19138 0.0
C758 C 0.07793 0.11633 0.21179 0.0
C759 C 0.10095 0.10419 0.22516 0.0
C760 C 0.10216 0.10055 0.25278 0.0
C761 C 0.08022 0.11021 0.26688 0.0
C762 C 0.05705 0.12235 0.25342 0.0
H763 H 0.05055 0.19524 0.18415 0.0
H764 H 0.06813 0.17636 0.21097 0.0
H765 H 0.06985 0.16559 0.17713 0.0
H766 H 0.0771 0.11789 0.19038 0.0
H767 H 0.11766 0.0972 0.21379 0.0
H768 H 0.24496 0.78648 0.05618 0.0
H769 H 0.26674 0.75055 0.08342 0.0
H770 H 0.19716 0.69847 0.06213 0.0
H771 H 0.17531 0.73406 0.03453 0.0
H772 H 0.24632 0.72421 0.12657 0.0
H773 H 0.26379 0.65229 0.0455 0.0
H774 H 0.25538 0.68727 0.0394 0.0
H775 H 0.22855 0.66367 0.04606 0.0
C776 C 0.23428 0.76737 0.05717 0.0
C777 C 0.20841 0.76316 0.043 0.0
C778 C 0.24678 0.74686 0.07277 0.0
C779 C 0.23377 0.72173 0.07443 0.0
C780 C 0.20783 0.71753 0.06063 0.0
H781 H 0.27169 0.57533 0.1635 0.0
H782 H 0.25069 0.61059 0.13441 0.0
C783 C 0.19531 0.73799 0.04499 0.0
C784 C 0.24701 0.70018 0.09121 0.0
H785 H 0.27227 0.63604 0.08954 0.0
C786 C 0.25214 0.70498 0.11848 0.0
C787 C 0.25451 0.67512 0.08056 0.0
C788 C 0.25053 0.66927 0.05124 0.0
C789 C 0.26416 0.68519 0.1355 0.0
C790 C 0.27162 0.66012 0.12485 0.0
C791 C 0.26649 0.6553 0.0976 0.0
C792 C 0.28472 0.63862 0.14174 0.0
C793 C 0.26824 0.69104 0.16481 0.0
C794 C 0.31094 0.64263 0.1551 0.0
C795 C 0.32293 0.62254 0.17157 0.0
C796 C 0.30906 0.59802 0.17462 0.0
C797 C 0.28293 0.59393 0.16108 0.0
C798 C 0.27094 0.61403 0.14458 0.0
H799 H 0.25546 0.70838 0.17053 0.0
H800 H 0.26287 0.67319 0.17663 0.0
H801 H 0.29037 0.69603 0.17004 0.0
H802 H 0.32204 0.66136 0.1529 0.0
H803 H 0.34293 0.6262 0.18215 0.0
H804 H 0.6704 0.76712 0.52775 0.0
H805 H 0.6902 0.7992 0.56062 0.0
H806 H 0.75898 0.74549 0.57954 0.0
H807 H 0.73966 0.71343 0.54661 0.0
H808 H 0.70004 0.78883 0.61456 0.0
H809 H 0.79759 0.81791 0.57088 0.0
H810 H 0.76923 0.80151 0.5519 0.0
H811 H 0.79293 0.78217 0.57349 0.0
C812 C 0.68994 0.76224 0.53862 0.0
C813 C 0.70341 0.73763 0.53447 0.0
C814 C 0.7012 0.78062 0.55741 0.0
C815 C 0.72623 0.77488 0.57225 0.0
C816 C 0.73995 0.75058 0.5679 0.0
H817 H 0.82071 0.83803 0.70946 0.0
H818 H 0.80262 0.81335 0.66979 0.0
C819 C 0.72873 0.73218 0.54915 0.0
C820 C 0.73696 0.79331 0.59366 0.0
H821 H 0.79392 0.82968 0.61627 0.0
C822 C 0.72043 0.79805 0.61481 0.0
C823 C 0.76361 0.80517 0.59394 0.0
C824 C 0.7818 0.80167 0.57122 0.0
C825 C 0.73018 0.81363 0.6367 0.0
C826 C 0.757 0.82516 0.63718 0.0
C827 C 0.77338 0.82079 0.61583 0.0
C828 C 0.76873 0.84102 0.66015 0.0
C829 C 0.71208 0.81679 0.65955 0.0
C830 C 0.75608 0.86508 0.66742 0.0
C831 C 0.7663 0.87905 0.69009 0.0
C832 C 0.78926 0.86912 0.70581 0.0
C833 C 0.80265 0.84573 0.69786 0.0
C834 C 0.79242 0.83174 0.67522 0.0
H835 H 0.69502 0.80173 0.65878 0.0
H836 H 0.72454 0.81472 0.67882 0.0
H837 H 0.7026 0.83715 0.65876 0.0
H838 H 0.73817 0.8729 0.6557 0.0
H839 H 0.75604 0.89738 0.69559 0.0
H840 H 0.75286 0.18357 0.09933 0.0
H841 H 0.73007 0.19757 0.13861 0.0
H842 H 0.80713 0.2315 0.17209 0.0
H843 H 0.82993 0.21824 0.13269 0.0
H844 H 0.74015 0.18472 0.19064 0.0
H845 H 0.75451 0.29438 0.17624 0.0
H846 H 0.76067 0.27002 0.15092 0.0
H847 H 0.7865 0.27589 0.17784 0.0
C848 C 0.76497 0.19403 0.11503 0.0
C849 C 0.79315 0.20005 0.11273 0.0
C850 C 0.75191 0.202 0.13747 0.0
C851 C 0.76678 0.21604 0.15801 0.0
C852 C 0.79509 0.22134 0.15614 0.0
H853 H 0.71182 0.23956 0.3166 0.0
H854 H 0.73587 0.22464 0.27828 0.0
C855 C 0.80811 0.21362 0.13364 0.0
C856 C 0.75269 0.22505 0.18144 0.0
H857 H 0.73818 0.28076 0.21732 0.0
C858 C 0.73962 0.20572 0.19646 0.0
C859 C 0.75171 0.25251 0.18873 0.0
C860 C 0.76385 0.27444 0.17245 0.0
C861 C 0.72582 0.21308 0.21879 0.0
C862 C 0.72572 0.24042 0.22663 0.0
C863 C 0.73856 0.25977 0.21144 0.0
C864 C 0.71168 0.24962 0.25003 0.0
C865 C 0.71094 0.19158 0.23336 0.0
C866 C 0.6907 0.26916 0.24698 0.0
C867 C 0.67741 0.27811 0.26889 0.0
C868 C 0.68505 0.2679 0.29428 0.0
C869 C 0.70592 0.24818 0.29732 0.0
C870 C 0.7194 0.23939 0.2754 0.0
H871 H 0.7064 0.17357 0.22073 0.0
H872 H 0.72432 0.18508 0.25101 0.0
H873 H 0.69112 0.19929 0.24016 0.0
H874 H 0.68438 0.27727 0.22757 0.0
H875 H 0.66097 0.29289 0.26596 0.0
H876 H 0.25856 0.3377 0.61552 0.0
H877 H 0.24214 0.33277 0.65996 0.0
H878 H 0.30755 0.27567 0.68026 0.0
H879 H 0.32421 0.28047 0.63633 0.0
H880 H 0.22483 0.28521 0.68496 0.0
H881 H 0.31609 0.33086 0.74085 0.0
H882 H 0.3089 0.33539 0.70556 0.0
H883 H 0.32534 0.30506 0.71831 0.0
C884 C 0.26944 0.32408 0.62944 0.0
C885 C 0.2928 0.30958 0.62234 0.0
C886 C 0.26007 0.32136 0.65481 0.0
C887 C 0.27404 0.30432 0.6735 0.0
C888 C 0.29692 0.28945 0.66631 0.0
H889 H 0.2606 0.22823 0.82124 0.0
H890 H 0.27416 0.24837 0.77988 0.0
C891 C 0.30627 0.29208 0.64106 0.0
C892 C 0.2643 0.30103 0.70031 0.0
H893 H 0.28661 0.30335 0.76593 0.0
C894 C 0.23805 0.28963 0.70273 0.0
C895 C 0.28166 0.30692 0.72337 0.0
C896 C 0.30946 0.32049 0.72197 0.0
C897 C 0.22935 0.28242 0.7276 0.0
C898 C 0.24727 0.28718 0.75058 0.0
C899 C 0.27301 0.29966 0.74824 0.0
C900 C 0.24057 0.27731 0.7769 0.0
C901 C 0.20172 0.26849 0.72901 0.0
C902 C 0.21767 0.28745 0.78917 0.0
C903 C 0.21 0.27604 0.81279 0.0
C904 C 0.22538 0.25462 0.8246 0.0
C905 C 0.2488 0.24508 0.81273 0.0
C906 C 0.25646 0.25649 0.78914 0.0
H907 H 0.19267 0.2621 0.70915 0.0
H908 H 0.20392 0.25049 0.74204 0.0
H909 H 0.1869 0.28248 0.73758 0.0
H910 H 0.20532 0.30367 0.7801 0.0
H911 H 0.19158 0.28335 0.82142 0.0
H912 H 0.67235 0.72811 0.40322 0.0
H913 H 0.69027 0.73635 0.36023 0.0
H914 H 0.75295 0.67552 0.37645 0.0
H915 H 0.73498 0.66679 0.41965 0.0
H916 H 0.7447 0.7521 0.3494 0.0
H917 H 0.71433 0.65345 0.30368 0.0
H918 H 0.70014 0.66558 0.33347 0.0
H919 H 0.73474 0.65219 0.33491 0.0
C920 C 0.68997 0.71642 0.39778 0.0
C921 C 0.70215 0.69668 0.41492 0.0
C922 C 0.70017 0.7212 0.37316 0.0
C923 C 0.72264 0.70629 0.36507 0.0
C924 C 0.73525 0.68691 0.38221 0.0
H925 H 0.80384 0.71718 0.21692 0.0
H926 H 0.78998 0.7032 0.26061 0.0
C927 C 0.72508 0.6821 0.40694 0.0
C928 C 0.73287 0.71151 0.33875 0.0
H929 H 0.73759 0.68408 0.27737 0.0
C930 C 0.74325 0.73721 0.33367 0.0
C931 C 0.73099 0.69197 0.31836 0.0
C932 C 0.71928 0.66428 0.32267 0.0
C933 C 0.75164 0.74403 0.30861 0.0
C934 C 0.74906 0.72475 0.28801 0.0
C935 C 0.73934 0.69881 0.29323 0.0
C936 C 0.75592 0.73147 0.26081 0.0
C937 C 0.76329 0.77178 0.30441 0.0
C938 C 0.74085 0.75143 0.2463 0.0
C939 C 0.74865 0.7593 0.22143 0.0
C940 C 0.77135 0.74703 0.21056 0.0
C941 C 0.78593 0.72652 0.22477 0.0
C942 C 0.77813 0.71864 0.24966 0.0
H943 H 0.77049 0.7815 0.32348 0.0
H944 H 0.78092 0.77093 0.29157 0.0
H945 H 0.74686 0.78466 0.29447 0.0
H946 H 0.72345 0.76133 0.25449 0.0
H947 H 0.73743 0.77547 0.21099 0.0
H948 H 0.8293 0.26789 0.00355 0.0
H949 H 0.8103 0.30107 0.97138 0.0
H950 H 0.74269 0.24732 0.94812 0.0
H951 H 0.76122 0.21413 0.98034 0.0
H952 H 0.80187 0.29353 0.91674 0.0
H953 H 0.70291 0.31856 0.95995 0.0
H954 H 0.73115 0.30159 0.97856 0.0
H955 H 0.70818 0.28311 0.95554 0.0
C956 C 0.81022 0.26319 0.99182 0.0
C957 C 0.79678 0.2383 0.99462 0.0
C958 C 0.79942 0.2822 0.97344 0.0
C959 C 0.7749 0.2768 0.95766 0.0
C960 C 0.76132 0.25212 0.96051 0.0
H961 H 0.68242 0.3486 0.82329 0.0
H962 H 0.70021 0.32082 0.86102 0.0
C963 C 0.77208 0.23309 0.97886 0.0
C964 C 0.7644 0.29623 0.93708 0.0
H965 H 0.7076 0.33339 0.91565 0.0
C966 C 0.78138 0.30249 0.91662 0.0
C967 C 0.73764 0.30778 0.93699 0.0
C968 C 0.71898 0.30265 0.95906 0.0
C969 C 0.77198 0.31937 0.89558 0.0
C970 C 0.74506 0.33064 0.8953 0.0
C971 C 0.72821 0.32468 0.91594 0.0
C972 C 0.73376 0.34804 0.8733 0.0
C973 C 0.79057 0.32429 0.8734 0.0
C974 C 0.74637 0.37277 0.86815 0.0
C975 C 0.73632 0.38852 0.84661 0.0
C976 C 0.71359 0.3797 0.8299 0.0
C977 C 0.70032 0.35548 0.83568 0.0
C978 C 0.71037 0.33973 0.8572 0.0
H979 H 0.80773 0.30938 0.87354 0.0
H980 H 0.77853 0.32346 0.85382 0.0
H981 H 0.79993 0.34464 0.87571 0.0
H982 H 0.76404 0.37982 0.88073 0.0
H983 H 0.74647 0.40744 0.84281 0.0
H984 H 0.25211 0.28235 0.49465 0.0
H985 H 0.23022 0.24701 0.46688 0.0
H986 H 0.30048 0.19508 0.4857 0.0
H987 H 0.32256 0.23021 0.51388 0.0
H988 H 0.25143 0.2233 0.42252 0.0
H989 H 0.23391 0.14713 0.50006 0.0
H990 H 0.24179 0.18191 0.50784 0.0
H991 H 0.26894 0.15928 0.49988 0.0
C992 C 0.26291 0.26337 0.49312 0.0
C993 C 0.28913 0.25916 0.50662 0.0
C994 C 0.25033 0.2432 0.47718 0.0
C995 C 0.26357 0.21835 0.47448 0.0
C996 C 0.28968 0.21395 0.48793 0.0
H997 H 0.21834 0.07713 0.37838 0.0
H998 H 0.24205 0.10978 0.40877 0.0
C999 C 0.30232 0.23414 0.50392 0.0
C1000 C 0.25044 0.19755 0.45669 0.0
H1001 H 0.22349 0.13393 0.45542 0.0
C1002 C 0.24527 0.20377 0.42971 0.0
C1003 C 0.24257 0.17207 0.46614 0.0
C1004 C 0.24684 0.16466 0.49509 0.0
C1005 C 0.23252 0.18515 0.41184 0.0
C1006 C 0.2243 0.15981 0.42134 0.0
C1007 C 0.22979 0.15342 0.44826 0.0
C1008 C 0.20965 0.13983 0.40363 0.0
C1009 C 0.2283 0.19261 0.38289 0.0
C1010 C 0.18348 0.14583 0.39103 0.0
C1011 C 0.16996 0.12725 0.37381 0.0
C1012 C 0.18223 0.10223 0.36922 0.0
C1013 C 0.20833 0.09616 0.38196 0.0
C1014 C 0.22185 0.11475 0.39922 0.0
H1015 H 0.24201 0.20952 0.37781 0.0
H1016 H 0.23237 0.17513 0.37007 0.0
H1017 H 0.20646 0.19903 0.37832 0.0
H1018 H 0.17357 0.16495 0.39445 0.0
H1019 H 0.15 0.13244 0.3639 0.0
H1020 H 0.24508 0.83248 0.93524 0.0
H1021 H 0.26763 0.82029 0.89522 0.0
H1022 H 0.20114 0.76479 0.87328 0.0
H1023 H 0.17824 0.77702 0.91281 0.0
H1024 H 0.28601 0.7698 0.88194 0.0
H1025 H 0.20752 0.80686 0.80496 0.0
H1026 H 0.2078 0.81697 0.83927 0.0
H1027 H 0.19297 0.78515 0.82866 0.0
C1028 C 0.23511 0.81785 0.9218 0.0
C1029 C 0.2098 0.80576 0.92728 0.0
C1030 C 0.24803 0.81094 0.89894 0.0
C1031 C 0.2358 0.792 0.8811 0.0
C1032 C 0.21058 0.77995 0.88646 0.0
H1033 H 0.27809 0.69705 0.74908 0.0
H1034 H 0.2567 0.71953 0.78566 0.0
C1035 C 0.19763 0.78684 0.90923 0.0
C1036 C 0.25016 0.78343 0.8577 0.0
H1037 H 0.24113 0.77564 0.79056 0.0
C1038 C 0.27642 0.77142 0.86191 0.0
C1039 C 0.23754 0.78561 0.83163 0.0
C1040 C 0.21002 0.79959 0.82578 0.0
C1041 C 0.28989 0.76044 0.84081 0.0
C1042 C 0.27686 0.76186 0.81486 0.0
C1043 C 0.25095 0.77451 0.81054 0.0
C1044 C 0.28929 0.74926 0.79213 0.0
C1045 C 0.31745 0.74647 0.84654 0.0
C1046 C 0.31433 0.75893 0.78344 0.0
C1047 C 0.32652 0.74612 0.76265 0.0
C1048 C 0.31386 0.72341 0.75042 0.0
C1049 C 0.28835 0.7143 0.75857 0.0
C1050 C 0.27615 0.72713 0.7793 0.0
H1051 H 0.32211 0.74268 0.86806 0.0
H1052 H 0.31776 0.72697 0.83584 0.0
H1053 H 0.33423 0.7593 0.83953 0.0
H1054 H 0.32449 0.77629 0.79282 0.0
H1055 H 0.34596 0.75376 0.75632 0.0
loop_
_geom_bond_atom_site_label_1
_geom_bond_atom_site_label_2
_geom_bond_distance
_geom_bond_site_symmetry_2
_ccdc_geom_bond_type
Sc0 O3 2.025 . S
Sc0 O10 2.105 1_554 S
Sc0 O13 2.105 . S
Sc0 O16 2.105 . S
Sc0 O19 2.105 1_554 S
Sc1 O3 2.025 1_556 S
Sc1 O11 2.105 . S
Sc1 O15 2.105 1_556 S
Sc1 O17 2.105 1_556 S
Sc1 O21 2.105 . S
Sc2 O3 2.025 . S
Sc2 O12 2.105 1_554 S
Sc2 O14 2.105 . S
Sc2 O18 2.105 . S
Sc2 O20 2.105 1_554 S
O3 Sc0 2.025 . S
O3 Sc1 2.025 1_554 S
O3 Sc2 2.025 . S
C4 O10 1.268 . S
C4 O20 1.268 . S
C5 O11 1.268 . S
C5 O19 1.268 . S
C6 O12 1.268 . S
C6 O21 1.268 . S
C7 O13 1.268 . S
C7 O17 1.268 . S
C8 O14 1.268 . S
C8 O16 1.268 . S
C9 O15 1.268 . S
C9 O18 1.268 . S
O10 Sc0 2.105 1_556 S
O10 C4 1.268 . S
O11 Sc1 2.105 . S
O11 C5 1.268 . S
O12 Sc2 2.105 1_556 S
O12 C6 1.268 . S
O13 Sc0 2.105 . S
O13 C7 1.268 . S
O14 Sc2 2.105 . S
O14 C8 1.268 . S
O15 Sc1 2.105 1_554 S
O15 C9 1.268 . S
O16 Sc0 2.105 . S
O16 C8 1.268 . S
O17 Sc1 2.105 1_554 S
O17 C7 1.268 . S
O18 Sc2 2.105 . S
O18 C9 1.268 . S
O19 Sc0 2.105 1_556 S
O19 C5 1.268 . S
O20 Sc2 2.105 1_556 S
O20 C4 1.268 . S
O21 Sc1 2.105 . S
O21 C6 1.268 . S
Sc22 O25 2.025 . S
Sc22 O32 2.105 . S
Sc22 O35 2.105 . S
Sc22 O38 2.105 . S
Sc22 O41 2.105 . S
Sc23 O25 2.025 . S
Sc23 O33 2.105 . S
Sc23 O37 2.105 . S
Sc23 O39 2.105 . S
Sc23 O43 2.105 . S
Sc24 O25 2.025 . S
Sc24 O34 2.105 . S
Sc24 O36 2.105 . S
Sc24 O40 2.105 . S
Sc24 O42 2.105 . S
O25 Sc22 2.025 . S
O25 Sc23 2.025 . S
O25 Sc24 2.025 . S
C26 O32 1.268 . S
C26 O42 1.268 . S
C27 O33 1.268 . S
C27 O41 1.268 . S
C28 O34 1.268 . S
C28 O43 1.268 . S
C29 O35 1.268 . S
C29 O39 1.268 . S
C30 O36 1.268 . S
C30 O38 1.268 . S
C31 O37 1.268 . S
C31 O40 1.268 . S
O32 Sc22 2.105 . S
O32 C26 1.268 . S
O33 Sc23 2.105 . S
O33 C27 1.268 . S
O34 Sc24 2.105 . S
O34 C28 1.268 . S
O35 Sc22 2.105 . S
O35 C29 1.268 . S
O36 Sc24 2.105 . S
O36 C30 1.268 . S
O37 Sc23 2.105 . S
O37 C31 1.268 . S
O38 Sc22 2.105 . S
O38 C30 1.268 . S
O39 Sc23 2.105 . S
O39 C29 1.268 . S
O40 Sc24 2.105 . S
O40 C31 1.268 . S
O41 Sc22 2.105 . S
O41 C27 1.268 . S
O42 Sc24 2.105 . S
O42 C26 1.268 . S
O43 Sc23 2.105 . S
O43 C28 1.268 . S
Sc44 O47 2.025 . S
Sc44 O54 2.105 . S
Sc44 O57 2.105 . S
Sc44 O60 2.105 . S
Sc44 O63 2.105 . S
Sc45 O47 2.025 . S
Sc45 O55 2.105 . S
Sc45 O59 2.105 . S
Sc45 O61 2.105 . S
Sc45 O65 2.105 1_554 S
Sc46 O47 2.025 . S
Sc46 O56 2.075 1_554 S
Sc46 O58 2.105 . S
Sc46 O62 2.105 . S
Sc46 O64 2.105 . S
O47 Sc44 2.025 . S
O47 Sc45 2.025 . S
O47 Sc46 2.025 . S
C48 O54 1.268 . S
C48 O64 1.268 . S
C49 O55 1.268 . S
C49 O63 1.268 . S
C50 O56 1.283 . S
C50 O65 1.268 . S
C51 O57 1.268 . S
C51 O61 1.268 . S
C52 O58 1.268 . S
C52 O60 1.268 . S
C53 O59 1.268 . S
C53 O62 1.268 . S
O54 Sc44 2.105 . S
O54 C48 1.268 . S
O55 Sc45 2.105 . S
O55 C49 1.268 . S
O56 Sc46 2.075 1_556 S
O56 C50 1.283 . S
O57 Sc44 2.105 . S
O57 C51 1.268 . S
O58 Sc46 2.105 . S
O58 C52 1.268 . S
O59 Sc45 2.105 . S
O59 C53 1.268 . S
O60 Sc44 2.105 . S
O60 C52 1.268 . S
O61 Sc45 2.105 . S
O61 C51 1.268 . S
O62 Sc46 2.105 . S
O62 C53 1.268 . S
O63 Sc44 2.105 . S
O63 C49 1.268 . S
O64 Sc46 2.105 . S
O64 C48 1.268 . S
O65 Sc45 2.105 1_556 S
O65 C50 1.268 . S
Sc66 O69 2.025 . S
Sc66 O76 2.105 . S
Sc66 O79 2.105 . S
Sc66 O82 2.105 . S
Sc66 O85 2.105 . S
Sc67 O69 2.025 . S
Sc67 O77 2.105 . S
Sc67 O81 2.105 . S
Sc67 O83 2.105 . S
Sc67 O87 2.105 . S
Sc68 O69 2.025 . S
Sc68 O78 2.105 . S
Sc68 O80 2.105 . S
Sc68 O84 2.105 . S
Sc68 O86 2.105 . S
O69 Sc66 2.025 . S
O69 Sc67 2.025 . S
O69 Sc68 2.025 . S
C70 O76 1.268 . S
C70 O86 1.268 . S
C71 O77 1.268 . S
C71 O85 1.268 . S
C72 O78 1.268 . S
C72 O87 1.268 . S
C73 O79 1.268 . S
C73 O83 1.268 . S
C74 O80 1.268 . S
C74 O82 1.268 . S
C75 O81 1.268 . S
C75 O84 1.268 . S
O76 Sc66 2.105 . S
O76 C70 1.268 . S
O77 Sc67 2.105 . S
O77 C71 1.268 . S
O78 Sc68 2.105 . S
O78 C72 1.268 . S
O79 Sc66 2.105 . S
O79 C73 1.268 . S
O80 Sc68 2.105 . S
O80 C74 1.268 . S
O81 Sc67 2.105 . S
O81 C75 1.268 . S
O82 Sc66 2.105 . S
O82 C74 1.268 . S
O83 Sc67 2.105 . S
O83 C73 1.268 . S
O84 Sc68 2.105 . S
O84 C75 1.268 . S
O85 Sc66 2.105 . S
O85 C71 1.268 . S
O86 Sc68 2.105 . S
O86 C70 1.268 . S
O87 Sc67 2.105 . S
O87 C72 1.268 . S
H88 C95 0.929 . S
H89 C98 0.930 . S
H90 C100 0.929 . S
H91 C92 0.969 . S
C92 H91 0.969 . S
C92 O93 1.550 . S
C92 H94 0.973 . S
O93 C92 1.550 . S
O93 C99 1.412 . S
H94 C92 0.973 . S
C95 H88 0.929 . S
C95 C96 1.400 . S
C95 C97 1.364 . S
C96 C95 1.400 . S
C96 C100 1.377 . S
C97 C95 1.364 . S
C97 C98 1.374 . S
C98 H89 0.930 . S
C98 C97 1.374 . S
C98 C99 1.383 . S
C99 O93 1.412 . S
C99 C98 1.383 . S
C99 C100 1.394 . S
C100 H90 0.929 . S
C100 C96 1.377 . S
C100 C99 1.394 . S
H101 C108 0.929 . S
H102 C111 0.930 . S
H103 C113 0.929 . S
H104 C105 0.969 . S
C105 H104 0.969 . S
C105 O106 1.550 . S
C105 H107 0.973 . S
O106 C105 1.550 . S
O106 C112 1.412 . S
H107 C105 0.973 . S
C108 H101 0.929 . S
C108 C109 1.400 . S
C108 C110 1.364 . S
C109 C108 1.400 . S
C109 C113 1.377 . S
C110 C108 1.364 . S
C110 C111 1.374 . S
C111 H102 0.930 . S
C111 C110 1.374 . S
C111 C112 1.383 . S
C112 O106 1.412 . S
C112 C111 1.383 . S
C112 C113 1.394 . S
C113 H103 0.929 . S
C113 C109 1.377 . S
C113 C112 1.394 . S
H114 C121 0.929 . S
H115 C124 0.930 . S
H116 C126 0.929 . S
H117 C118 0.969 . S
C118 H117 0.969 . S
C118 O119 1.550 . S
C118 H120 0.973 . S
O119 C118 1.550 . S
O119 C125 1.412 . S
H120 C118 0.973 . S
C121 H114 0.929 . S
C121 C122 1.400 . S
C121 C123 1.364 . S
C122 C121 1.400 . S
C122 C126 1.377 . S
C123 C121 1.364 . S
C123 C124 1.374 . S
C124 H115 0.930 . S
C124 C123 1.374 . S
C124 C125 1.383 . S
C125 O119 1.412 . S
C125 C124 1.383 . S
C125 C126 1.394 . S
C126 H116 0.929 . S
C126 C122 1.377 . S
C126 C125 1.394 . S
H127 C134 0.929 . S
H128 C137 0.930 . S
H129 C139 0.929 . S
H130 C131 0.969 . S
C131 H130 0.969 . S
C131 O132 1.550 . S
C131 H133 0.973 . S
O132 C131 1.550 . S
O132 C138 1.412 . S
H133 C131 0.973 . S
C134 H127 0.929 . S
C134 C135 1.400 . S
C134 C136 1.364 . S
C135 C134 1.400 . S
C135 C139 1.377 . S
C136 C134 1.364 . S
C136 C137 1.374 . S
C137 H128 0.930 . S
C137 C136 1.374 . S
C137 C138 1.383 . S
C138 O132 1.412 . S
C138 C137 1.383 . S
C138 C139 1.394 . S
C139 H129 0.929 . S
C139 C135 1.377 . S
C139 C138 1.394 . S
H140 C147 0.929 . S
H141 C150 0.930 . S
H142 C152 0.929 . S
H143 C144 0.969 . S
C144 H143 0.969 . S
C144 O145 1.550 . S
C144 H146 0.973 . S
O145 C144 1.550 . S
O145 C151 1.412 . S
H146 C144 0.973 . S
C147 H140 0.929 . S
C147 C148 1.400 . S
C147 C149 1.364 . S
C148 C147 1.400 . S
C148 C152 1.377 . S
C149 C147 1.364 . S
C149 C150 1.374 . S
C150 H141 0.930 . S
C150 C149 1.374 . S
C150 C151 1.383 . S
C151 O145 1.412 . S
C151 C150 1.383 . S
C151 C152 1.394 . S
C152 H142 0.929 . S
C152 C148 1.377 . S
C152 C151 1.394 . S
H153 C160 0.929 . S
H154 C163 0.930 . S
H155 C165 0.929 . S
H156 C157 0.969 . S
C157 H156 0.969 . S
C157 O158 1.550 . S
C157 H159 0.973 . S
O158 C157 1.550 . S
O158 C164 1.412 . S
H159 C157 0.973 . S
C160 H153 0.929 . S
C160 C161 1.400 . S
C160 C162 1.364 . S
C161 C160 1.400 . S
C161 C165 1.377 . S
C162 C160 1.364 . S
C162 C163 1.374 . S
C163 H154 0.930 . S
C163 C162 1.374 . S
C163 C164 1.383 . S
C164 O158 1.412 . S
C164 C163 1.383 . S
C164 C165 1.394 . S
C165 H155 0.929 . S
C165 C161 1.377 . S
C165 C164 1.394 . S
H166 C173 0.929 . S
H167 C176 0.930 . S
H168 C178 0.929 . S
H169 C170 0.969 . S
C170 H169 0.969 . S
C170 O171 1.550 . S
C170 H172 0.973 . S
O171 C170 1.550 . S
O171 C177 1.412 . S
H172 C170 0.973 . S
C173 H166 0.929 . S
C173 C174 1.400 . S
C173 C175 1.364 . S
C174 C173 1.400 . S
C174 C178 1.377 . S
C175 C173 1.364 . S
C175 C176 1.374 . S
C176 H167 0.930 . S
C176 C175 1.374 . S
C176 C177 1.383 . S
C177 O171 1.412 . S
C177 C176 1.383 . S
C177 C178 1.394 . S
C178 H168 0.929 . S
C178 C174 1.377 . S
C178 C177 1.394 . S
H179 C186 0.929 . S
H180 C189 0.930 . S
H181 C191 0.929 . S
H182 C183 0.969 . S
C183 H182 0.969 . S
C183 O184 1.550 . S
C183 H185 0.973 . S
O184 C183 1.550 . S
O184 C190 1.412 . S
H185 C183 0.973 . S
C186 H179 0.929 . S
C186 C187 1.400 . S
C186 C188 1.364 . S
C187 C186 1.400 . S
C187 C191 1.377 . S
C188 C186 1.364 . S
C188 C189 1.374 . S
C189 H180 0.930 . S
C189 C188 1.374 . S
C189 C190 1.383 . S
C190 O184 1.412 . S
C190 C189 1.383 . S
C190 C191 1.394 . S
C191 H181 0.929 . S
C191 C187 1.377 . S
C191 C190 1.394 . S
H192 C200 0.929 . S
H193 C202 0.930 . S
H194 C204 0.930 . S
H195 C207 0.929 . S
H196 C210 0.930 . S
H197 C212 0.960 1_545 S
H198 C212 0.960 . S
H199 C212 0.960 . S
C200 H192 0.929 . S
C200 C201 1.377 . S
C200 C202 1.384 . S
C201 C200 1.377 . S
C201 C207 1.390 . S
C202 H193 0.930 . S
C202 C200 1.384 . S
C202 C203 1.372 . S
C203 C202 1.372 . S
C203 C204 1.400 . S
C203 C208 1.490 . S
C204 H194 0.930 . S
C204 C203 1.400 . S
C204 C207 1.386 . S
H205 C221 0.930 . S
H206 C222 0.931 1_565 S
C207 H195 0.929 . S
C207 C201 1.390 . S
C207 C204 1.386 . S
C208 C203 1.490 . S
C208 C210 1.395 . S
C208 C211 1.403 . S
H209 C215 0.930 1_545 S
C210 H196 0.930 . S
C210 C208 1.395 . S
C210 C213 1.403 . S
C211 C208 1.403 . S
C211 C212 1.524 . S
C211 C215 1.400 . S
C212 H197 0.960 1_565 S
C212 H198 0.960 . S
C212 H199 0.960 . S
C212 C211 1.524 . S
C213 C210 1.403 . S
C213 C214 1.392 . S
C213 C217 1.495 . S
C214 C213 1.392 . S
C214 C215 1.385 . S
C214 C216 1.478 1_565 S
C215 H209 0.930 1_565 S
C215 C211 1.400 . S
C215 C214 1.385 . S
C216 C214 1.478 1_545 S
C216 C218 1.381 . S
C216 C222 1.383 . S
C217 C213 1.495 . S
C217 H223 0.959 . S
C217 H224 0.961 . S
C217 H225 0.960 . S
C218 C216 1.381 . S
C218 C219 1.394 . S
C218 H226 0.930 . S
C219 C218 1.394 . S
C219 C220 1.383 . S
C219 H227 0.929 . S
C220 C219 1.383 . S
C220 C221 1.377 . S
C221 H205 0.930 . S
C221 C220 1.377 . S
C221 C222 1.379 . S
C222 H206 0.931 1_545 S
C222 C216 1.383 . S
C222 C221 1.379 . S
H223 C217 0.959 . S
H224 C217 0.961 . S
H225 C217 0.960 . S
H226 C218 0.930 . S
H227 C219 0.929 . S
H228 C236 0.929 . S
H229 C238 0.930 . S
H230 C240 0.930 . S
H231 C243 0.929 . S
H232 C246 0.930 . S
H233 C248 0.960 . S
H234 C248 0.960 . S
H235 C248 0.960 . S
C236 H228 0.929 . S
C236 C237 1.377 . S
C236 C238 1.384 . S
C237 C236 1.377 . S
C237 C243 1.390 . S
C238 H229 0.930 . S
C238 C236 1.384 . S
C238 C239 1.372 . S
C239 C238 1.372 . S
C239 C240 1.400 . S
C239 C244 1.490 . S
C240 H230 0.930 . S
C240 C239 1.400 . S
C240 C243 1.386 . S
H241 C257 0.930 . S
H242 C258 0.931 . S
C243 H231 0.929 . S
C243 C237 1.390 . S
C243 C240 1.386 . S
C244 C239 1.490 . S
C244 C246 1.395 . S
C244 C247 1.403 . S
H245 C251 0.930 . S
C246 H232 0.930 . S
C246 C244 1.395 . S
C246 C249 1.403 . S
C247 C244 1.403 . S
C247 C248 1.524 . S
C247 C251 1.400 . S
C248 H233 0.960 . S
C248 H234 0.960 . S
C248 H235 0.960 . S
C248 C247 1.524 . S
C249 C246 1.403 . S
C249 C250 1.392 . S
C249 C253 1.495 . S
C250 C249 1.392 . S
C250 C251 1.385 . S
C250 C252 1.478 . S
C251 H245 0.930 . S
C251 C247 1.400 . S
C251 C250 1.385 . S
C252 C250 1.478 . S
C252 C254 1.381 . S
C252 C258 1.383 . S
C253 C249 1.495 . S
C253 H259 0.959 . S
C253 H260 0.961 . S
C253 H261 0.960 . S
C254 C252 1.381 . S
C254 C255 1.394 . S
C254 H262 0.930 . S
C255 C254 1.394 . S
C255 C256 1.383 . S
C255 H263 0.929 . S
C256 C255 1.383 . S
C256 C257 1.377 . S
C257 H241 0.930 . S
C257 C256 1.377 . S
C257 C258 1.379 . S
C258 H242 0.931 . S
C258 C252 1.383 . S
C258 C257 1.379 . S
H259 C253 0.959 . S
H260 C253 0.961 . S
H261 C253 0.960 . S
H262 C254 0.930 . S
H263 C255 0.929 . S
H264 C272 0.929 . S
H265 C274 0.920 1_565 S
H266 C276 0.930 . S
H267 C279 0.929 . S
H268 C282 0.930 . S
H269 C284 0.960 . S
H270 C284 0.960 . S
H271 C284 0.960 . S
C272 H264 0.929 . S
C272 C273 1.377 . S
C272 C274 1.384 . S
C273 C272 1.377 . S
C273 C279 1.390 . S
C274 H265 0.920 1_545 S
C274 C272 1.384 . S
C274 C275 1.372 . S
C275 C274 1.372 . S
C275 C276 1.400 . S
C275 C280 1.490 1_545 S
C276 H266 0.930 . S
C276 C275 1.400 . S
C276 C279 1.386 . S
H277 C293 0.930 . S
H278 C294 0.931 . S
C279 H267 0.929 . S
C279 C273 1.390 . S
C279 C276 1.386 . S
C280 C275 1.490 1_565 S
C280 C282 1.395 . S
C280 C283 1.403 . S
H281 C287 0.930 . S
C282 H268 0.930 . S
C282 C280 1.395 . S
C282 C285 1.403 . S
C283 C280 1.403 . S
C283 C284 1.524 . S
C283 C287 1.400 . S
C284 H269 0.960 . S
C284 H270 0.960 . S
C284 H271 0.960 . S
C284 C283 1.524 . S
C285 C282 1.403 . S
C285 C286 1.392 . S
C285 C289 1.495 . S
C286 C285 1.392 . S
C286 C287 1.385 . S
C286 C288 1.478 . S
C287 H281 0.930 . S
C287 C283 1.400 . S
C287 C286 1.385 . S
C288 C286 1.478 . S
C288 C290 1.381 . S
C288 C294 1.383 . S
C289 C285 1.495 . S
C289 H295 0.959 . S
C289 H296 0.961 . S
C289 H297 0.960 . S
C290 C288 1.381 . S
C290 C291 1.394 . S
C290 H298 0.930 . S
C291 C290 1.394 . S
C291 C292 1.383 . S
C291 H299 0.929 . S
C292 C291 1.383 . S
C292 C293 1.377 . S
C293 H277 0.930 . S
C293 C292 1.377 . S
C293 C294 1.379 . S
C294 H278 0.931 . S
C294 C288 1.383 . S
C294 C293 1.379 . S
H295 C289 0.959 . S
H296 C289 0.961 . S
H297 C289 0.960 . S
H298 C290 0.930 . S
H299 C291 0.929 . S
H300 C308 0.929 . S
H301 C310 0.930 . S
H302 C312 0.930 . S
H303 C315 0.929 . S
H304 C318 0.930 . S
H305 C320 0.960 . S
H306 C320 0.960 . S
H307 C320 0.960 . S
C308 H300 0.929 . S
C308 C309 1.377 . S
C308 C310 1.384 . S
C309 C308 1.377 . S
C309 C315 1.390 . S
C310 H301 0.930 . S
C310 C308 1.384 . S
C310 C311 1.372 . S
C311 C310 1.372 . S
C311 C312 1.400 . S
C311 C316 1.490 . S
C312 H302 0.930 . S
C312 C311 1.400 . S
C312 C315 1.386 . S
H313 C329 0.930 . S
H314 C330 0.931 . S
C315 H303 0.929 . S
C315 C309 1.390 . S
C315 C312 1.386 . S
C316 C311 1.490 . S
C316 C318 1.395 . S
C316 C319 1.403 . S
H317 C323 0.930 . S
C318 H304 0.930 . S
C318 C316 1.395 . S
C318 C321 1.403 . S
C319 C316 1.403 . S
C319 C320 1.524 . S
C319 C323 1.400 . S
C320 H305 0.960 . S
C320 H306 0.960 . S
C320 H307 0.960 . S
C320 C319 1.524 . S
C321 C318 1.403 . S
C321 C322 1.392 . S
C321 C325 1.495 . S
C322 C321 1.392 . S
C322 C323 1.385 . S
C322 C324 1.478 . S
C323 H317 0.930 . S
C323 C319 1.400 . S
C323 C322 1.385 . S
C324 C322 1.478 . S
C324 C326 1.381 . S
C324 C330 1.383 . S
C325 C321 1.495 . S
C325 H331 0.959 . S
C325 H332 0.961 . S
C325 H333 0.960 . S
C326 C324 1.381 . S
C326 C327 1.394 . S
C326 H334 0.930 . S
C327 C326 1.394 . S
C327 C328 1.383 . S
C327 H335 0.929 . S
C328 C327 1.383 . S
C328 C329 1.377 . S
C329 H313 0.930 . S
C329 C328 1.377 . S
C329 C330 1.379 . S
C330 H314 0.931 . S
C330 C324 1.383 . S
C330 C329 1.379 . S
H331 C325 0.959 . S
H332 C325 0.961 . S
H333 C325 0.960 . S
H334 C326 0.930 . S
H335 C327 0.929 . S
H336 C344 0.929 . S
H337 C346 0.930 . S
H338 C348 0.930 . S
H339 C351 0.929 . S
H340 C354 0.930 . S
H341 C356 0.960 . S
H342 C356 0.960 . S
H343 C356 0.960 . S
C344 H336 0.929 . S
C344 C345 1.377 . S
C344 C346 1.384 . S
C345 C344 1.377 . S
C345 C351 1.390 . S
C346 H337 0.930 . S
C346 C344 1.384 . S
C346 C347 1.372 . S
C347 C346 1.372 . S
C347 C348 1.400 . S
C347 C352 1.490 . S
C348 H338 0.930 . S
C348 C347 1.400 . S
C348 C351 1.386 . S
H349 C365 0.930 . S
H350 C366 0.931 . S
C351 H339 0.929 . S
C351 C345 1.390 . S
C351 C348 1.386 . S
C352 C347 1.490 . S
C352 C354 1.395 . S
C352 C355 1.403 . S
H353 C359 0.930 . S
C354 H340 0.930 . S
C354 C352 1.395 . S
C354 C357 1.403 . S
C355 C352 1.403 . S
C355 C356 1.524 . S
C355 C359 1.400 . S
C356 H341 0.960 . S
C356 H342 0.960 . S
C356 H343 0.960 . S
C356 C355 1.524 . S
C357 C354 1.403 . S
C357 C358 1.392 . S
C357 C361 1.495 . S
C358 C357 1.392 . S
C358 C359 1.385 . S
C358 C360 1.478 . S
C359 H353 0.930 . S
C359 C355 1.400 . S
C359 C358 1.385 . S
C360 C358 1.478 . S
C360 C362 1.381 . S
C360 C366 1.383 . S
C361 C357 1.495 . S
C361 H367 0.959 . S
C361 H368 0.961 . S
C361 H369 0.960 . S
C362 C360 1.381 . S
C362 C363 1.394 . S
C362 H370 0.930 . S
C363 C362 1.394 . S
C363 C364 1.383 . S
C363 H371 0.929 . S
C364 C363 1.383 . S
C364 C365 1.377 . S
C365 H349 0.930 . S
C365 C364 1.377 . S
C365 C366 1.379 . S
C366 H350 0.931 . S
C366 C360 1.383 . S
C366 C365 1.379 . S
H367 C361 0.959 . S
H368 C361 0.961 . S
H369 C361 0.960 . S
H370 C362 0.930 . S
H371 C363 0.929 . S
H372 C380 0.929 . S
H373 C382 0.930 . S
H374 C384 0.930 . S
H375 C387 0.929 . S
H376 C390 0.930 . S
H377 C392 0.960 1_455 S
H378 C392 0.960 . S
H379 C392 0.960 . S
C380 H372 0.929 . S
C380 C381 1.377 . S
C380 C382 1.384 . S
C381 C380 1.377 . S
C381 C387 1.390 . S
C382 H373 0.930 . S
C382 C380 1.384 . S
C382 C383 1.372 . S
C383 C382 1.372 . S
C383 C384 1.400 . S
C383 C388 1.490 1_655 S
C384 H374 0.930 . S
C384 C383 1.400 . S
C384 C387 1.386 . S
H385 C401 0.930 . S
H386 C402 0.931 . S
C387 H375 0.929 . S
C387 C381 1.390 . S
C387 C384 1.386 . S
C388 C383 1.490 1_455 S
C388 C390 1.395 . S
C388 C391 1.403 . S
H389 C395 0.930 . S
C390 H376 0.930 . S
C390 C388 1.395 . S
C390 C393 1.403 . S
C391 C388 1.403 . S
C391 C392 1.524 1_455 S
C391 C395 1.400 . S
C392 H377 0.960 1_655 S
C392 H378 0.960 . S
C392 H379 0.960 . S
C392 C391 1.524 1_655 S
C393 C390 1.403 . S
C393 C394 1.392 . S
C393 C397 1.495 . S
C394 C393 1.392 . S
C394 C395 1.385 . S
C394 C396 1.478 . S
C395 H389 0.930 . S
C395 C391 1.400 . S
C395 C394 1.385 . S
C396 C394 1.478 . S
C396 C398 1.381 . S
C396 C402 1.383 . S
C397 C393 1.495 . S
C397 H403 0.959 . S
C397 H404 0.961 . S
C397 H405 0.960 . S
C398 C396 1.381 . S
C398 C399 1.394 . S
C398 H406 0.930 . S
C399 C398 1.394 . S
C399 C400 1.383 . S
C399 H407 0.929 . S
C400 C399 1.383 . S
C400 C401 1.377 . S
C401 H385 0.930 . S
C401 C400 1.377 . S
C401 C402 1.379 . S
C402 H386 0.931 . S
C402 C396 1.383 . S
C402 C401 1.379 . S
H403 C397 0.959 . S
H404 C397 0.961 . S
H405 C397 0.960 . S
H406 C398 0.930 . S
H407 C399 0.929 . S
H408 C416 0.929 . S
H409 C418 0.930 . S
H410 C420 0.930 . S
H411 C423 0.929 . S
H412 C426 0.930 . S
H413 C428 0.960 . S
H414 C428 0.960 . S
H415 C428 0.960 . S
C416 H408 0.929 . S
C416 C417 1.377 . S
C416 C418 1.384 . S
C417 C416 1.377 . S
C417 C423 1.390 . S
C418 H409 0.930 . S
C418 C416 1.384 . S
C418 C419 1.372 . S
C419 C418 1.372 . S
C419 C420 1.400 . S
C419 C424 1.490 . S
C420 H410 0.930 . S
C420 C419 1.400 . S
C420 C423 1.386 . S
H421 C437 0.930 . S
H422 C438 0.931 . S
C423 H411 0.929 . S
C423 C417 1.390 . S
C423 C420 1.386 . S
C424 C419 1.490 . S
C424 C426 1.395 . S
C424 C427 1.403 . S
H425 C431 0.930 . S
C426 H412 0.930 . S
C426 C424 1.395 . S
C426 C429 1.403 . S
C427 C424 1.403 . S
C427 C428 1.524 . S
C427 C431 1.400 . S
C428 H413 0.960 . S
C428 H414 0.960 . S
C428 H415 0.960 . S
C428 C427 1.524 . S
C429 C426 1.403 . S
C429 C430 1.392 . S
C429 C433 1.495 . S
C430 C429 1.392 . S
C430 C431 1.385 . S
C430 C432 1.478 . S
C431 H425 0.930 . S
C431 C427 1.400 . S
C431 C430 1.385 . S
C432 C430 1.478 . S
C432 C434 1.381 . S
C432 C438 1.383 . S
C433 C429 1.495 . S
C433 H439 0.959 . S
C433 H440 0.961 . S
C433 H441 0.960 . S
C434 C432 1.381 . S
C434 C435 1.394 . S
C434 H442 0.930 . S
C435 C434 1.394 . S
C435 C436 1.383 . S
C435 H443 0.929 . S
C436 C435 1.383 . S
C436 C437 1.377 . S
C437 H421 0.930 . S
C437 C436 1.377 . S
C437 C438 1.379 . S
C438 H422 0.931 . S
C438 C432 1.383 . S
C438 C437 1.379 . S
H439 C433 0.959 . S
H440 C433 0.961 . S
H441 C433 0.960 . S
H442 C434 0.930 . S
H443 C435 0.929 . S
H444 C452 0.929 . S
H445 C454 0.930 . S
H446 C456 0.930 . S
H447 C459 0.929 . S
H448 C462 0.930 . S
H449 C464 0.960 . S
H450 C464 0.960 . S
H451 C464 0.960 . S
C452 H444 0.929 . S
C452 C453 1.377 . S
C452 C454 1.384 . S
C453 C452 1.377 . S
C453 C459 1.390 . S
C454 H445 0.930 . S
C454 C452 1.384 . S
C454 C455 1.372 . S
C455 C454 1.372 . S
C455 C456 1.400 . S
C455 C460 1.490 1_455 S
C456 H446 0.930 . S
C456 C455 1.400 . S
C456 C459 1.386 . S
H457 C473 0.930 . S
H458 C474 0.931 . S
C459 H447 0.929 . S
C459 C453 1.390 . S
C459 C456 1.386 . S
C460 C455 1.490 1_655 S
C460 C462 1.395 1_655 S
C460 C463 1.403 . S
H461 C467 0.930 . S
C462 H448 0.930 . S
C462 C460 1.395 1_455 S
C462 C465 1.403 1_455 S
C463 C460 1.403 . S
C463 C464 1.524 . S
C463 C467 1.400 . S
C464 H449 0.960 . S
C464 H450 0.960 . S
C464 H451 0.960 . S
C464 C463 1.524 . S
C465 C462 1.403 1_655 S
C465 C466 1.392 . S
C465 C469 1.495 . S
C466 C465 1.392 . S
C466 C467 1.385 . S
C466 C468 1.478 . S
C467 H461 0.930 . S
C467 C463 1.400 . S
C467 C466 1.385 . S
C468 C466 1.478 . S
C468 C470 1.381 . S
C468 C474 1.383 . S
C469 C465 1.495 . S
C469 H475 0.959 1_655 S
C469 H476 0.961 . S
C469 H477 0.960 . S
C470 C468 1.381 . S
C470 C471 1.394 . S
C470 H478 0.930 . S
C471 C470 1.394 . S
C471 C472 1.383 . S
C471 H479 0.929 . S
C472 C471 1.383 . S
C472 C473 1.377 . S
C473 H457 0.930 . S
C473 C472 1.377 . S
C473 C474 1.379 . S
C474 H458 0.931 . S
C474 C468 1.383 . S
C474 C473 1.379 . S
H475 C469 0.959 1_455 S
H476 C469 0.961 . S
H477 C469 0.960 . S
H478 C470 0.930 . S
H479 C471 0.929 . S
H480 C488 0.929 . S
H481 C490 0.930 . S
H482 C492 0.930 . S
H483 C495 0.929 . S
H484 C498 0.930 . S
H485 C500 0.960 . S
H486 C500 0.960 . S
H487 C500 0.960 . S
C488 H480 0.929 . S
C488 C489 1.377 . S
C488 C490 1.384 . S
C489 C488 1.377 . S
C489 C495 1.390 . S
C490 H481 0.930 . S
C490 C488 1.384 . S
C490 C491 1.372 . S
C491 C490 1.372 . S
C491 C492 1.400 . S
C491 C496 1.490 . S
C492 H482 0.930 . S
C492 C491 1.400 . S
C492 C495 1.386 . S
H493 C509 0.930 . S
H494 C510 0.931 1_545 S
C495 H483 0.929 . S
C495 C489 1.390 . S
C495 C492 1.386 . S
C496 C491 1.490 . S
C496 C498 1.395 . S
C496 C499 1.403 . S
H497 C503 0.930 . S
C498 H484 0.930 . S
C498 C496 1.395 . S
C498 C501 1.403 1_545 S
C499 C496 1.403 . S
C499 C500 1.524 . S
C499 C503 1.400 . S
C500 H485 0.960 . S
C500 H486 0.960 . S
C500 H487 0.960 . S
C500 C499 1.524 . S
C501 C498 1.403 1_565 S
C501 C502 1.392 1_565 S
C501 C505 1.495 . S
C502 C501 1.392 1_545 S
C502 C503 1.385 . S
C502 C504 1.478 1_545 S
C503 H497 0.930 . S
C503 C499 1.400 . S
C503 C502 1.385 . S
C504 C502 1.478 1_565 S
C504 C506 1.381 . S
C504 C510 1.383 . S
C505 C501 1.495 . S
C505 H511 0.959 . S
C505 H512 0.961 . S
C505 H513 0.960 . S
C506 C504 1.381 . S
C506 C507 1.394 . S
C506 H514 0.930 . S
C507 C506 1.394 . S
C507 C508 1.383 . S
C507 H515 0.929 . S
C508 C507 1.383 . S
C508 C509 1.377 . S
C509 H493 0.930 . S
C509 C508 1.377 . S
C509 C510 1.379 . S
C510 H494 0.931 1_565 S
C510 C504 1.383 . S
C510 C509 1.379 . S
H511 C505 0.959 . S
H512 C505 0.961 . S
H513 C505 0.960 . S
H514 C506 0.930 . S
H515 C507 0.929 . S
H516 C524 0.929 . S
H517 C526 0.930 . S
H518 C528 0.930 . S
H519 C531 0.929 . S
H520 C534 0.930 . S
H521 C536 0.960 . S
H522 C536 0.960 . S
H523 C536 0.960 . S
C524 H516 0.929 . S
C524 C525 1.377 . S
C524 C526 1.384 . S
C525 C524 1.377 . S
C525 C531 1.390 . S
C526 H517 0.930 . S
C526 C524 1.384 . S
C526 C527 1.372 . S
C527 C526 1.372 . S
C527 C528 1.400 . S
C527 C532 1.490 . S
C528 H518 0.930 . S
C528 C527 1.400 . S
C528 C531 1.386 . S
H529 C545 0.930 . S
H530 C546 0.931 . S
C531 H519 0.929 . S
C531 C525 1.390 . S
C531 C528 1.386 . S
C532 C527 1.490 . S
C532 C534 1.395 . S
C532 C535 1.403 . S
H533 C539 0.930 . S
C534 H520 0.930 . S
C534 C532 1.395 . S
C534 C537 1.403 . S
C535 C532 1.403 . S
C535 C536 1.524 . S
C535 C539 1.400 . S
C536 H521 0.960 . S
C536 H522 0.960 . S
C536 H523 0.960 . S
C536 C535 1.524 . S
C537 C534 1.403 . S
C537 C538 1.392 . S
C537 C541 1.495 . S
C538 C537 1.392 . S
C538 C539 1.385 . S
C538 C540 1.478 . S
C539 H533 0.930 . S
C539 C535 1.400 . S
C539 C538 1.385 . S
C540 C538 1.478 . S
C540 C542 1.381 . S
C540 C546 1.383 . S
C541 C537 1.495 . S
C541 H547 0.959 . S
C541 H548 0.961 . S
C541 H549 0.960 . S
C542 C540 1.381 . S
C542 C543 1.394 . S
C542 H550 0.930 . S
C543 C542 1.394 . S
C543 C544 1.383 . S
C543 H551 0.929 . S
C544 C543 1.383 . S
C544 C545 1.377 . S
C545 H529 0.930 . S
C545 C544 1.377 . S
C545 C546 1.379 . S
C546 H530 0.931 . S
C546 C540 1.383 . S
C546 C545 1.379 . S
H547 C541 0.959 . S
H548 C541 0.961 . S
H549 C541 0.960 . S
H550 C542 0.930 . S
H551 C543 0.929 . S
H552 C560 0.929 . S
H553 C562 0.930 . S
H554 C564 0.930 . S
H555 C567 0.929 . S
H556 C570 0.930 1_565 S
H557 C572 0.960 . S
H558 C572 0.960 . S
H559 C572 0.960 . S
C560 H552 0.929 . S
C560 C561 1.377 . S
C560 C562 1.384 . S
C561 C560 1.377 . S
C561 C567 1.390 . S
C562 H553 0.930 . S
C562 C560 1.384 . S
C562 C563 1.372 . S
C563 C562 1.372 . S
C563 C564 1.400 . S
C563 C568 1.490 1_565 S
C564 H554 0.930 . S
C564 C563 1.400 . S
C564 C567 1.386 . S
H565 C581 0.930 . S
H566 C582 0.931 . S
C567 H555 0.929 . S
C567 C561 1.390 . S
C567 C564 1.386 . S
C568 C563 1.490 1_545 S
C568 C570 1.395 . S
C568 C571 1.403 . S
H569 C575 0.930 . S
C570 H556 0.930 1_545 S
C570 C568 1.395 . S
C570 C573 1.403 . S
C571 C568 1.403 . S
C571 C572 1.524 . S
C571 C575 1.400 . S
C572 H557 0.960 . S
C572 H558 0.960 . S
C572 H559 0.960 . S
C572 C571 1.524 . S
C573 C570 1.403 . S
C573 C574 1.392 . S
C573 C577 1.495 . S
C574 C573 1.392 . S
C574 C575 1.385 . S
C574 C576 1.478 . S
C575 H569 0.930 . S
C575 C571 1.400 . S
C575 C574 1.385 . S
C576 C574 1.478 . S
C576 C578 1.381 . S
C576 C582 1.383 . S
C577 C573 1.495 . S
C577 H583 0.959 . S
C577 H584 0.961 . S
C577 H585 0.960 . S
C578 C576 1.381 . S
C578 C579 1.394 . S
C578 H586 0.930 . S
C579 C578 1.394 . S
C579 C580 1.383 . S
C579 H587 0.929 . S
C580 C579 1.383 . S
C580 C581 1.377 . S
C581 H565 0.930 . S
C581 C580 1.377 . S
C581 C582 1.379 . S
C582 H566 0.931 . S
C582 C576 1.383 . S
C582 C581 1.379 . S
H583 C577 0.959 . S
H584 C577 0.961 . S
H585 C577 0.960 . S
H586 C578 0.930 . S
H587 C579 0.929 . S
H588 C596 0.929 . S
H589 C598 0.930 . S
H590 C600 0.930 . S
H591 C603 0.929 . S
H592 C606 0.930 . S
H593 C608 0.960 . S
H594 C608 0.960 . S
H595 C608 0.960 . S
C596 H588 0.929 . S
C596 C597 1.377 . S
C596 C598 1.384 . S
C597 C596 1.377 . S
C597 C603 1.390 . S
C598 H589 0.930 . S
C598 C596 1.384 . S
C598 C599 1.372 . S
C599 C598 1.372 . S
C599 C600 1.400 . S
C599 C604 1.490 . S
C600 H590 0.930 . S
C600 C599 1.400 . S
C600 C603 1.386 . S
H601 C617 0.930 . S
H602 C618 0.931 . S
C603 H591 0.929 . S
C603 C597 1.390 . S
C603 C600 1.386 . S
C604 C599 1.490 . S
C604 C606 1.395 . S
C604 C607 1.403 . S
H605 C611 0.930 . S
C606 H592 0.930 . S
C606 C604 1.395 . S
C606 C609 1.403 . S
C607 C604 1.403 . S
C607 C608 1.524 . S
C607 C611 1.400 . S
C608 H593 0.960 . S
C608 H594 0.960 . S
C608 H595 0.960 . S
C608 C607 1.524 . S
C609 C606 1.403 . S
C609 C610 1.392 . S
C609 C613 1.495 . S
C610 C609 1.392 . S
C610 C611 1.385 . S
C610 C612 1.478 . S
C611 H605 0.930 . S
C611 C607 1.400 . S
C611 C610 1.385 . S
C612 C610 1.478 . S
C612 C614 1.381 . S
C612 C618 1.383 . S
C613 C609 1.495 . S
C613 H619 0.959 . S
C613 H620 0.961 . S
C613 H621 0.960 . S
C614 C612 1.381 . S
C614 C615 1.394 . S
C614 H622 0.930 . S
C615 C614 1.394 . S
C615 C616 1.383 . S
C615 H623 0.929 . S
C616 C615 1.383 . S
C616 C617 1.377 . S
C617 H601 0.930 . S
C617 C616 1.377 . S
C617 C618 1.379 . S
C618 H602 0.931 . S
C618 C612 1.383 . S
C618 C617 1.379 . S
H619 C613 0.959 . S
H620 C613 0.961 . S
H621 C613 0.960 . S
H622 C614 0.930 . S
H623 C615 0.929 . S
H624 C632 0.929 . S
H625 C634 0.930 . S
H626 C636 0.930 . S
H627 C639 0.929 . S
H628 C642 0.930 . S
H629 C644 0.960 . S
H630 C644 0.960 . S
H631 C644 0.960 . S
C632 H624 0.929 . S
C632 C633 1.377 . S
C632 C634 1.384 . S
C633 C632 1.377 . S
C633 C639 1.390 . S
C634 H625 0.930 . S
C634 C632 1.384 . S
C634 C635 1.372 . S
C635 C634 1.372 . S
C635 C636 1.400 . S
C635 C640 1.490 . S
C636 H626 0.930 . S
C636 C635 1.400 . S
C636 C639 1.386 . S
H637 C653 0.930 . S
H638 C654 0.931 . S
C639 H627 0.929 . S
C639 C633 1.390 . S
C639 C636 1.386 . S
C640 C635 1.490 . S
C640 C642 1.395 . S
C640 C643 1.403 . S
H641 C647 0.930 . S
C642 H628 0.930 . S
C642 C640 1.395 . S
C642 C645 1.403 . S
C643 C640 1.403 . S
C643 C644 1.524 . S
C643 C647 1.400 . S
C644 H629 0.960 . S
C644 H630 0.960 . S
C644 H631 0.960 . S
C644 C643 1.524 . S
C645 C642 1.403 . S
C645 C646 1.392 . S
C645 C649 1.495 . S
C646 C645 1.392 . S
C646 C647 1.385 . S
C646 C648 1.478 . S
C647 H641 0.930 . S
C647 C643 1.400 . S
C647 C646 1.385 . S
C648 C646 1.478 . S
C648 C650 1.381 . S
C648 C654 1.383 . S
C649 C645 1.495 . S
C649 H655 0.959 . S
C649 H656 0.961 . S
C649 H657 0.960 . S
C650 C648 1.381 . S
C650 C651 1.394 . S
C650 H658 0.930 . S
C651 C650 1.394 . S
C651 C652 1.383 . S
C651 H659 0.929 . S
C652 C651 1.383 . S
C652 C653 1.377 . S
C653 H637 0.930 . S
C653 C652 1.377 . S
C653 C654 1.379 . S
C654 H638 0.931 . S
C654 C648 1.383 . S
C654 C653 1.379 . S
H655 C649 0.959 . S
H656 C649 0.961 . S
H657 C649 0.960 . S
H658 C650 0.930 . S
H659 C651 0.929 . S
H660 C668 0.929 . S
H661 C670 0.930 . S
H662 C672 0.930 . S
H663 C675 0.929 . S
H664 C678 0.930 . S
H665 C680 0.960 . S
H666 C680 0.960 . S
H667 C680 0.960 . S
C668 H660 0.929 . S
C668 C669 1.377 . S
C668 C670 1.384 . S
C669 C668 1.377 . S
C669 C675 1.390 . S
C670 H661 0.930 . S
C670 C668 1.384 . S
C670 C671 1.372 . S
C671 C670 1.372 . S
C671 C672 1.400 . S
C671 C676 1.490 1_455 S
C672 H662 0.930 . S
C672 C671 1.400 . S
C672 C675 1.386 . S
H673 C689 0.930 . S
H674 C690 0.931 . S
C675 H663 0.929 . S
C675 C669 1.390 . S
C675 C672 1.386 . S
C676 C671 1.490 1_655 S
C676 C678 1.395 . S
C676 C679 1.403 . S
H677 C683 0.930 . S
C678 H664 0.930 . S
C678 C676 1.395 . S
C678 C681 1.403 . S
C679 C676 1.403 . S
C679 C680 1.524 1_655 S
C679 C683 1.400 . S
C680 H665 0.960 . S
C680 H666 0.960 . S
C680 H667 0.960 . S
C680 C679 1.524 1_455 S
C681 C678 1.403 . S
C681 C682 1.392 . S
C681 C685 1.495 . S
C682 C681 1.392 . S
C682 C683 1.385 . S
C682 C684 1.478 . S
C683 H677 0.930 . S
C683 C679 1.400 . S
C683 C682 1.385 . S
C684 C682 1.478 . S
C684 C686 1.381 . S
C684 C690 1.383 . S
C685 C681 1.495 . S
C685 H691 0.959 . S
C685 H692 0.961 . S
C685 H693 0.960 . S
C686 C684 1.381 . S
C686 C687 1.394 . S
C686 H694 0.930 . S
C687 C686 1.394 . S
C687 C688 1.383 . S
C687 H695 0.929 . S
C688 C687 1.383 . S
C688 C689 1.377 . S
C689 H673 0.930 . S
C689 C688 1.377 . S
C689 C690 1.379 . S
C690 H674 0.931 . S
C690 C684 1.383 . S
C690 C689 1.379 . S
H691 C685 0.959 . S
H692 C685 0.961 . S
H693 C685 0.960 . S
H694 C686 0.930 . S
H695 C687 0.929 . S
H696 C704 0.929 . S
H697 C706 0.930 . S
H698 C708 0.930 . S
H699 C711 0.929 . S
H700 C714 0.930 . S
H701 C716 0.960 . S
H702 C716 0.960 . S
H703 C716 0.960 . S
C704 H696 0.929 . S
C704 C705 1.377 . S
C704 C706 1.384 . S
C705 C704 1.377 . S
C705 C711 1.390 . S
C706 H697 0.930 . S
C706 C704 1.384 . S
C706 C707 1.372 . S
C707 C706 1.372 . S
C707 C708 1.400 . S
C707 C712 1.490 . S
C708 H698 0.930 . S
C708 C707 1.400 . S
C708 C711 1.386 . S
H709 C725 0.930 . S
H710 C726 0.931 . S
C711 H699 0.929 . S
C711 C705 1.390 . S
C711 C708 1.386 . S
C712 C707 1.490 . S
C712 C714 1.395 . S
C712 C715 1.403 . S
H713 C719 0.930 . S
C714 H700 0.930 . S
C714 C712 1.395 . S
C714 C717 1.403 . S
C715 C712 1.403 . S
C715 C716 1.524 . S
C715 C719 1.400 . S
C716 H701 0.960 . S
C716 H702 0.960 . S
C716 H703 0.960 . S
C716 C715 1.524 . S
C717 C714 1.403 . S
C717 C718 1.392 . S
C717 C721 1.495 . S
C718 C717 1.392 . S
C718 C719 1.385 . S
C718 C720 1.478 . S
C719 H713 0.930 . S
C719 C715 1.400 . S
C719 C718 1.385 . S
C720 C718 1.478 . S
C720 C722 1.381 . S
C720 C726 1.383 . S
C721 C717 1.495 . S
C721 H727 0.959 . S
C721 H728 0.961 . S
C721 H729 0.960 . S
C722 C720 1.381 . S
C722 C723 1.394 . S
C722 H730 0.930 . S
C723 C722 1.394 . S
C723 C724 1.383 . S
C723 H731 0.929 . S
C724 C723 1.383 . S
C724 C725 1.377 . S
C725 H709 0.930 . S
C725 C724 1.377 . S
C725 C726 1.379 . S
C726 H710 0.931 . S
C726 C720 1.383 . S
C726 C725 1.379 . S
H727 C721 0.959 . S
H728 C721 0.961 . S
H729 C721 0.960 . S
H730 C722 0.930 . S
H731 C723 0.929 . S
H732 C740 0.929 . S
H733 C742 0.959 . S
H734 C744 0.930 . S
H735 C747 0.929 . S
H736 C750 0.930 . S
H737 C752 0.960 . S
H738 C752 0.960 . S
H739 C752 0.960 . S
C740 H732 0.929 . S
C740 C741 1.377 . S
C740 C742 1.384 . S
C741 C740 1.377 . S
C741 C747 1.390 . S
C742 H733 0.959 . S
C742 C740 1.384 . S
C742 C743 1.372 . S
C743 C742 1.372 . S
C743 C744 1.400 . S
C743 C748 1.490 1_655 S
C744 H734 0.930 . S
C744 C743 1.400 . S
C744 C747 1.386 . S
H745 C761 0.930 . S
H746 C762 0.931 . S
C747 H735 0.929 . S
C747 C741 1.390 . S
C747 C744 1.386 . S
C748 C743 1.490 1_455 S
C748 C750 1.395 . S
C748 C751 1.403 . S
H749 C755 0.930 . S
C750 H736 0.930 . S
C750 C748 1.395 . S
C750 C753 1.403 . S
C751 C748 1.403 . S
C751 C752 1.524 1_455 S
C751 C755 1.400 . S
C752 H737 0.960 . S
C752 H738 0.960 . S
C752 H739 0.960 . S
C752 C751 1.524 1_655 S
C753 C750 1.403 . S
C753 C754 1.392 . S
C753 C757 1.495 . S
C754 C753 1.392 . S
C754 C755 1.385 . S
C754 C756 1.478 . S
C755 H749 0.930 . S
C755 C751 1.400 . S
C755 C754 1.385 . S
C756 C754 1.478 . S
C756 C758 1.381 . S
C756 C762 1.383 . S
C757 C753 1.495 . S
C757 H763 0.959 . S
C757 H764 0.961 . S
C757 H765 0.960 . S
C758 C756 1.381 . S
C758 C759 1.394 . S
C758 H766 0.930 . S
C759 C758 1.394 . S
C759 C760 1.383 . S
C759 H767 0.929 . S
C760 C759 1.383 . S
C760 C761 1.377 . S
C761 H745 0.930 . S
C761 C760 1.377 . S
C761 C762 1.379 . S
C762 H746 0.931 . S
C762 C756 1.383 . S
C762 C761 1.379 . S
H763 C757 0.959 . S
H764 C757 0.961 . S
H765 C757 0.960 . S
H766 C758 0.930 . S
H767 C759 0.929 . S
H768 C776 0.929 . S
H769 C778 0.930 . S
H770 C780 0.930 . S
H771 C783 0.929 . S
H772 C786 0.930 . S
H773 C788 0.960 . S
H774 C788 0.960 . S
H775 C788 0.960 . S
C776 H768 0.929 . S
C776 C777 1.377 . S
C776 C778 1.384 . S
C777 C776 1.377 . S
C777 C783 1.390 . S
C778 H769 0.930 . S
C778 C776 1.384 . S
C778 C779 1.372 . S
C779 C778 1.372 . S
C779 C780 1.400 . S
C779 C784 1.490 . S
C780 H770 0.930 . S
C780 C779 1.400 . S
C780 C783 1.386 . S
H781 C797 0.930 . S
H782 C798 0.931 . S
C783 H771 0.929 . S
C783 C777 1.390 . S
C783 C780 1.386 . S
C784 C779 1.490 . S
C784 C786 1.395 . S
C784 C787 1.403 . S
H785 C791 0.930 . S
C786 H772 0.930 . S
C786 C784 1.395 . S
C786 C789 1.403 . S
C787 C784 1.403 . S
C787 C788 1.524 . S
C787 C791 1.400 . S
C788 H773 0.960 . S
C788 H774 0.960 . S
C788 H775 0.960 . S
C788 C787 1.524 . S
C789 C786 1.403 . S
C789 C790 1.392 . S
C789 C793 1.495 . S
C790 C789 1.392 . S
C790 C791 1.385 . S
C790 C792 1.478 . S
C791 H785 0.930 . S
C791 C787 1.400 . S
C791 C790 1.385 . S
C792 C790 1.478 . S
C792 C794 1.381 . S
C792 C798 1.383 . S
C793 C789 1.495 . S
C793 H799 0.959 . S
C793 H800 0.961 . S
C793 H801 0.960 . S
C794 C792 1.381 . S
C794 C795 1.394 . S
C794 H802 0.930 . S
C795 C794 1.394 . S
C795 C796 1.383 . S
C795 H803 0.929 . S
C796 C795 1.383 . S
C796 C797 1.377 . S
C797 H781 0.930 . S
C797 C796 1.377 . S
C797 C798 1.379 . S
C798 H782 0.931 . S
C798 C792 1.383 . S
C798 C797 1.379 . S
H799 C793 0.959 . S
H800 C793 0.961 . S
H801 C793 0.960 . S
H802 C794 0.930 . S
H803 C795 0.929 . S
H804 C812 0.929 . S
H805 C814 0.930 . S
H806 C816 0.930 . S
H807 C819 0.929 . S
H808 C822 0.930 . S
H809 C824 0.960 . S
H810 C824 0.960 . S
H811 C824 0.960 . S
C812 H804 0.929 . S
C812 C813 1.377 . S
C812 C814 1.384 . S
C813 C812 1.377 . S
C813 C819 1.390 . S
C814 H805 0.930 . S
C814 C812 1.384 . S
C814 C815 1.372 . S
C815 C814 1.372 . S
C815 C816 1.400 . S
C815 C820 1.490 . S
C816 H806 0.930 . S
C816 C815 1.400 . S
C816 C819 1.386 . S
H817 C833 0.930 . S
H818 C834 0.931 . S
C819 H807 0.929 . S
C819 C813 1.390 . S
C819 C816 1.386 . S
C820 C815 1.490 . S
C820 C822 1.395 . S
C820 C823 1.403 . S
H821 C827 0.930 . S
C822 H808 0.930 . S
C822 C820 1.395 . S
C822 C825 1.403 . S
C823 C820 1.403 . S
C823 C824 1.524 . S
C823 C827 1.400 . S
C824 H809 0.960 . S
C824 H810 0.960 . S
C824 H811 0.960 . S
C824 C823 1.524 . S
C825 C822 1.403 . S
C825 C826 1.392 . S
C825 C829 1.495 . S
C826 C825 1.392 . S
C826 C827 1.385 . S
C826 C828 1.478 . S
C827 H821 0.930 . S
C827 C823 1.400 . S
C827 C826 1.385 . S
C828 C826 1.478 . S
C828 C830 1.381 . S
C828 C834 1.383 . S
C829 C825 1.495 . S
C829 H835 0.959 . S
C829 H836 0.961 . S
C829 H837 0.960 . S
C830 C828 1.381 . S
C830 C831 1.394 . S
C830 H838 0.930 . S
C831 C830 1.394 . S
C831 C832 1.383 . S
C831 H839 0.929 . S
C832 C831 1.383 . S
C832 C833 1.377 . S
C833 H817 0.930 . S
C833 C832 1.377 . S
C833 C834 1.379 . S
C834 H818 0.931 . S
C834 C828 1.383 . S
C834 C833 1.379 . S
H835 C829 0.959 . S
H836 C829 0.961 . S
H837 C829 0.960 . S
H838 C830 0.930 . S
H839 C831 0.929 . S
H840 C848 0.929 . S
H841 C850 0.930 . S
H842 C852 0.930 . S
H843 C855 0.929 . S
H844 C858 0.930 . S
H845 C860 0.960 . S
H846 C860 0.960 . S
H847 C860 0.960 . S
C848 H840 0.929 . S
C848 C849 1.377 . S
C848 C850 1.384 . S
C849 C848 1.377 . S
C849 C855 1.390 . S
C850 H841 0.930 . S
C850 C848 1.384 . S
C850 C851 1.372 . S
C851 C850 1.372 . S
C851 C852 1.400 . S
C851 C856 1.490 . S
C852 H842 0.930 . S
C852 C851 1.400 . S
C852 C855 1.386 . S
H853 C869 0.930 . S
H854 C870 0.931 . S
C855 H843 0.929 . S
C855 C849 1.390 . S
C855 C852 1.386 . S
C856 C851 1.490 . S
C856 C858 1.395 . S
C856 C859 1.403 . S
H857 C863 0.930 . S
C858 H844 0.930 . S
C858 C856 1.395 . S
C858 C861 1.403 . S
C859 C856 1.403 . S
C859 C860 1.524 . S
C859 C863 1.400 . S
C860 H845 0.960 . S
C860 H846 0.960 . S
C860 H847 0.960 . S
C860 C859 1.524 . S
C861 C858 1.403 . S
C861 C862 1.392 . S
C861 C865 1.495 . S
C862 C861 1.392 . S
C862 C863 1.385 . S
C862 C864 1.478 . S
C863 H857 0.930 . S
C863 C859 1.400 . S
C863 C862 1.385 . S
C864 C862 1.478 . S
C864 C866 1.381 . S
C864 C870 1.383 . S
C865 C861 1.495 . S
C865 H871 0.959 . S
C865 H872 0.961 . S
C865 H873 0.960 . S
C866 C864 1.381 . S
C866 C867 1.394 . S
C866 H874 0.930 . S
C867 C866 1.394 . S
C867 C868 1.383 . S
C867 H875 0.929 . S
C868 C867 1.383 . S
C868 C869 1.377 . S
C869 H853 0.930 . S
C869 C868 1.377 . S
C869 C870 1.379 . S
C870 H854 0.931 . S
C870 C864 1.383 . S
C870 C869 1.379 . S
H871 C865 0.959 . S
H872 C865 0.961 . S
H873 C865 0.960 . S
H874 C866 0.930 . S
H875 C867 0.929 . S
H876 C884 0.929 . S
H877 C886 0.930 . S
H878 C888 0.930 . S
H879 C891 0.929 . S
H880 C894 0.930 . S
H881 C896 0.960 . S
H882 C896 0.960 . S
H883 C896 0.960 . S
C884 H876 0.929 . S
C884 C885 1.377 . S
C884 C886 1.384 . S
C885 C884 1.377 . S
C885 C891 1.390 . S
C886 H877 0.930 . S
C886 C884 1.384 . S
C886 C887 1.372 . S
C887 C886 1.372 . S
C887 C888 1.400 . S
C887 C892 1.490 . S
C888 H878 0.930 . S
C888 C887 1.400 . S
C888 C891 1.386 . S
H889 C905 0.930 . S
H890 C906 0.931 . S
C891 H879 0.929 . S
C891 C885 1.390 . S
C891 C888 1.386 . S
C892 C887 1.490 . S
C892 C894 1.395 . S
C892 C895 1.403 . S
H893 C899 0.930 . S
C894 H880 0.930 . S
C894 C892 1.395 . S
C894 C897 1.403 . S
C895 C892 1.403 . S
C895 C896 1.524 . S
C895 C899 1.400 . S
C896 H881 0.960 . S
C896 H882 0.960 . S
C896 H883 0.960 . S
C896 C895 1.524 . S
C897 C894 1.403 . S
C897 C898 1.392 . S
C897 C901 1.495 . S
C898 C897 1.392 . S
C898 C899 1.385 . S
C898 C900 1.478 . S
C899 H893 0.930 . S
C899 C895 1.400 . S
C899 C898 1.385 . S
C900 C898 1.478 . S
C900 C902 1.381 . S
C900 C906 1.383 . S
C901 C897 1.495 . S
C901 H907 0.959 . S
C901 H908 0.961 . S
C901 H909 0.960 . S
C902 C900 1.381 . S
C902 C903 1.394 . S
C902 H910 0.930 . S
C903 C902 1.394 . S
C903 C904 1.383 . S
C903 H911 0.929 . S
C904 C903 1.383 . S
C904 C905 1.377 . S
C905 H889 0.930 . S
C905 C904 1.377 . S
C905 C906 1.379 . S
C906 H890 0.931 . S
C906 C900 1.383 . S
C906 C905 1.379 . S
H907 C901 0.959 . S
H908 C901 0.961 . S
H909 C901 0.960 . S
H910 C902 0.930 . S
H911 C903 0.929 . S
H912 C920 0.929 . S
H913 C922 0.930 . S
H914 C924 0.930 . S
H915 C927 0.929 . S
H916 C930 0.930 . S
H917 C932 0.960 . S
H918 C932 0.960 . S
H919 C932 0.960 . S
C920 H912 0.929 . S
C920 C921 1.377 . S
C920 C922 1.384 . S
C921 C920 1.377 . S
C921 C927 1.390 . S
C922 H913 0.930 . S
C922 C920 1.384 . S
C922 C923 1.372 . S
C923 C922 1.372 . S
C923 C924 1.400 . S
C923 C928 1.490 . S
C924 H914 0.930 . S
C924 C923 1.400 . S
C924 C927 1.386 . S
H925 C941 0.930 . S
H926 C942 0.931 . S
C927 H915 0.929 . S
C927 C921 1.390 . S
C927 C924 1.386 . S
C928 C923 1.490 . S
C928 C930 1.395 . S
C928 C931 1.403 . S
H929 C935 0.930 . S
C930 H916 0.930 . S
C930 C928 1.395 . S
C930 C933 1.403 . S
C931 C928 1.403 . S
C931 C932 1.524 . S
C931 C935 1.400 . S
C932 H917 0.960 . S
C932 H918 0.960 . S
C932 H919 0.960 . S
C932 C931 1.524 . S
C933 C930 1.403 . S
C933 C934 1.392 . S
C933 C937 1.495 . S
C934 C933 1.392 . S
C934 C935 1.385 . S
C934 C936 1.478 . S
C935 H929 0.930 . S
C935 C931 1.400 . S
C935 C934 1.385 . S
C936 C934 1.478 . S
C936 C938 1.381 . S
C936 C942 1.383 . S
C937 C933 1.495 . S
C937 H943 0.959 . S
C937 H944 0.961 . S
C937 H945 0.960 . S
C938 C936 1.381 . S
C938 C939 1.394 . S
C938 H946 0.930 . S
C939 C938 1.394 . S
C939 C940 1.383 . S
C939 H947 0.929 . S
C940 C939 1.383 . S
C940 C941 1.377 . S
C941 H925 0.930 . S
C941 C940 1.377 . S
C941 C942 1.379 . S
C942 H926 0.931 . S
C942 C936 1.383 . S
C942 C941 1.379 . S
H943 C937 0.959 . S
H944 C937 0.961 . S
H945 C937 0.960 . S
H946 C938 0.930 . S
H947 C939 0.929 . S
H948 C956 0.929 1_554 S
H949 C958 0.930 . S
H950 C960 0.930 . S
H951 C963 0.929 . S
H952 C966 0.930 . S
H953 C968 0.960 . S
H954 C968 0.960 . S
H955 C968 0.960 . S
C956 H948 0.929 1_556 S
C956 C957 1.377 . S
C956 C958 1.384 . S
C957 C956 1.377 . S
C957 C963 1.390 . S
C958 H949 0.930 . S
C958 C956 1.384 . S
C958 C959 1.372 . S
C959 C958 1.372 . S
C959 C960 1.400 . S
C959 C964 1.490 . S
C960 H950 0.930 . S
C960 C959 1.400 . S
C960 C963 1.386 . S
H961 C977 0.930 . S
H962 C978 0.931 . S
C963 H951 0.929 . S
C963 C957 1.390 . S
C963 C960 1.386 . S
C964 C959 1.490 . S
C964 C966 1.395 . S
C964 C967 1.403 . S
H965 C971 0.930 . S
C966 H952 0.930 . S
C966 C964 1.395 . S
C966 C969 1.403 . S
C967 C964 1.403 . S
C967 C968 1.524 . S
C967 C971 1.400 . S
C968 H953 0.960 . S
C968 H954 0.960 . S
C968 H955 0.960 . S
C968 C967 1.524 . S
C969 C966 1.403 . S
C969 C970 1.392 . S
C969 C973 1.495 . S
C970 C969 1.392 . S
C970 C971 1.385 . S
C970 C972 1.478 . S
C971 H965 0.930 . S
C971 C967 1.400 . S
C971 C970 1.385 . S
C972 C970 1.478 . S
C972 C974 1.381 . S
C972 C978 1.383 . S
C973 C969 1.495 . S
C973 H979 0.959 . S
C973 H980 0.961 . S
C973 H981 0.960 . S
C974 C972 1.381 . S
C974 C975 1.394 . S
C974 H982 0.930 . S
C975 C974 1.394 . S
C975 C976 1.383 . S
C975 H983 0.929 . S
C976 C975 1.383 . S
C976 C977 1.377 . S
C977 H961 0.930 . S
C977 C976 1.377 . S
C977 C978 1.379 . S
C978 H962 0.931 . S
C978 C972 1.383 . S
C978 C977 1.379 . S
H979 C973 0.959 . S
H980 C973 0.961 . S
H981 C973 0.960 . S
H982 C974 0.930 . S
H983 C975 0.929 . S
H984 C992 0.929 . S
H985 C994 0.930 . S
H986 C996 0.930 . S
H987 C999 0.929 . S
H988 C1002 0.930 . S
H989 C1004 0.960 . S
H990 C1004 0.960 . S
H991 C1004 0.960 . S
C992 H984 0.929 . S
C992 C993 1.377 . S
C992 C994 1.384 . S
C993 C992 1.377 . S
C993 C999 1.390 . S
C994 H985 0.930 . S
C994 C992 1.384 . S
C994 C995 1.372 . S
C995 C994 1.372 . S
C995 C996 1.400 . S
C995 C1000 1.490 . S
C996 H986 0.930 . S
C996 C995 1.400 . S
C996 C999 1.386 . S
H997 C1013 0.930 . S
H998 C1014 0.931 . S
C999 H987 0.929 . S
C999 C993 1.390 . S
C999 C996 1.386 . S
C1000 C995 1.490 . S
C1000 C1002 1.395 . S
C1000 C1003 1.403 . S
H1001 C1007 0.930 . S
C1002 H988 0.930 . S
C1002 C1000 1.395 . S
C1002 C1005 1.403 . S
C1003 C1000 1.403 . S
C1003 C1004 1.524 . S
C1003 C1007 1.400 . S
C1004 H989 0.960 . S
C1004 H990 0.960 . S
C1004 H991 0.960 . S
C1004 C1003 1.524 . S
C1005 C1002 1.403 . S
C1005 C1006 1.392 . S
C1005 C1009 1.495 . S
C1006 C1005 1.392 . S
C1006 C1007 1.385 . S
C1006 C1008 1.478 . S
C1007 H1001 0.930 . S
C1007 C1003 1.400 . S
C1007 C1006 1.385 . S
C1008 C1006 1.478 . S
C1008 C1010 1.381 . S
C1008 C1014 1.383 . S
C1009 C1005 1.495 . S
C1009 H1015 0.959 . S
C1009 H1016 0.961 . S
C1009 H1017 0.960 . S
C1010 C1008 1.381 . S
C1010 C1011 1.394 . S
C1010 H1018 0.930 . S
C1011 C1010 1.394 . S
C1011 C1012 1.383 . S
C1011 H1019 0.929 . S
C1012 C1011 1.383 . S
C1012 C1013 1.377 . S
C1013 H997 0.930 . S
C1013 C1012 1.377 . S
C1013 C1014 1.379 . S
C1014 H998 0.931 . S
C1014 C1008 1.383 . S
C1014 C1013 1.379 . S
H1015 C1009 0.959 . S
H1016 C1009 0.961 . S
H1017 C1009 0.960 . S
H1018 C1010 0.930 . S
H1019 C1011 0.929 . S
H1020 C1028 0.929 . S
H1021 C1030 0.930 . S
H1022 C1032 0.930 . S
H1023 C1035 0.929 . S
H1024 C1038 0.930 . S
H1025 C1040 0.960 . S
H1026 C1040 0.960 . S
H1027 C1040 0.960 . S
C1028 H1020 0.929 . S
C1028 C1029 1.377 . S
C1028 C1030 1.384 . S
C1029 C1028 1.377 . S
C1029 C1035 1.390 . S
C1030 H1021 0.930 . S
C1030 C1028 1.384 . S
C1030 C1031 1.372 . S
C1031 C1030 1.372 . S
C1031 C1032 1.400 . S
C1031 C1036 1.490 . S
C1032 H1022 0.930 . S
C1032 C1031 1.400 . S
C1032 C1035 1.386 . S
H1033 C1049 0.930 . S
H1034 C1050 0.931 . S
C1035 H1023 0.929 . S
C1035 C1029 1.390 . S
C1035 C1032 1.386 . S
C1036 C1031 1.490 . S
C1036 C1038 1.395 . S
C1036 C1039 1.403 . S
H1037 C1043 0.930 . S
C1038 H1024 0.930 . S
C1038 C1036 1.395 . S
C1038 C1041 1.403 . S
C1039 C1036 1.403 . S
C1039 C1040 1.524 . S
C1039 C1043 1.400 . S
C1040 H1025 0.960 . S
C1040 H1026 0.960 . S
C1040 H1027 0.960 . S
C1040 C1039 1.524 . S
C1041 C1038 1.403 . S
C1041 C1042 1.392 . S
C1041 C1045 1.495 . S
C1042 C1041 1.392 . S
C1042 C1043 1.385 . S
C1042 C1044 1.478 . S
C1043 H1037 0.930 . S
C1043 C1039 1.400 . S
C1043 C1042 1.385 . S
C1044 C1042 1.478 . S
C1044 C1046 1.381 . S
C1044 C1050 1.383 . S
C1045 C1041 1.495 . S
C1045 H1051 0.959 . S
C1045 H1052 0.961 . S
C1045 H1053 0.960 . S
C1046 C1044 1.381 . S
C1046 C1047 1.394 . S
C1046 H1054 0.930 . S
C1047 C1046 1.394 . S
C1047 C1048 1.383 . S
C1047 H1055 0.929 . S
C1048 C1047 1.383 . S
C1048 C1049 1.377 . S
C1049 H1033 0.930 . S
C1049 C1048 1.377 . S
C1049 C1050 1.379 . S
C1050 H1034 0.931 . S
C1050 C1044 1.383 . S
C1050 C1049 1.379 . S
H1051 C1045 0.959 . S
H1052 C1045 0.961 . S
H1053 C1045 0.960 . S
H1054 C1046 0.930 . S
H1055 C1047 0.929 . S
C201 C8 1.230 . S
C220 C96 1.214 . S
C237 C31 1.134 . S
C256 C109 1.122 . S
C273 C53 1.366 . S
C292 C123 1.325 . S
C328 C136 1.311 . S
C309 C74 1.311 . S
C364 C148 1.192 . S
C345 C26 1.198 . S
C381 C48 1.364 1_556 S
C400 C162 1.324 . S
C417 C71 1.181 . S
C436 C174 1.121 . S
C453 C5 1.310 . S
C472 C188 1.302 . S
C489 C50 1.181 . S
C508 C187 1.132 . S
C544 C149 1.279 . S
C525 C70 1.363 . S
C580 C161 1.227 . S
C561 C4 1.199 . S
C597 C28 1.314 . S
C616 C175 1.278 . S
C652 C110 1.376 . S
C633 C73 1.365 . S
C669 C7 1.142 . S
C688 C122 1.112 . S
C724 C135 1.230 . S
C705 C30 1.233 . S
C760 C97 1.288 . S
C741 C52 1.312 . S
C796 C170 1.231 . S
C777 C9 1.303 . S
C832 C183 1.215 . S
C813 C29 1.303 . S
C849 C51 1.361 . S
C868 C144 1.285 . S
C904 C157 1.341 . S
C885 C75 1.365 . S
C940 C118 1.233 . S
C921 C27 1.300 . S
C957 C49 1.358 1_556 S
C976 C131 1.306 . S
C1012 C92 1.321 . S
C993 C72 1.359 . S
C1048 C105 1.228 . S
C1029 C6 1.300 . S
