# Generated by pormake.
# Topology rtl, (3,6)-cn, num edge types: 1
# Building blocks:
#     Node 0, Type 0, BuildingBlock: MIDCAF_clean_linker_0, # of connection points: 3
#     Node 1, Type 0, BuildingBlock: MIDCAF_clean_linker_0, # of connection points: 3
#     Node 2, Type 0, BuildingBlock: MIDCAF_clean_linker_0, # of connection points: 3
#     Node 3, Type 0, BuildingBlock: MIDCAF_clean_linker_0, # of connection points: 3
#     Node 4, Type 1, BuildingBlock: VOLQOD_clean_sbu_1, # of connection points: 6
#     Node 5, Type 1, BuildingBlock: VOLQOD_clean_sbu_1, # of connection points: 6
#     Edge 6, Type (0, 1), BuildingBlock: MIFKUJ_clean_linker_0, # of connection points: 2
#     Edge 7, Type (0, 1), BuildingBlock: MIFKUJ_clean_linker_0, # of connection points: 2
#     Edge 8, Type (0, 1), BuildingBlock: MIFKUJ_clean_linker_0, # of connection points: 2
#     Edge 9, Type (0, 1), BuildingBlock: MIFKUJ_clean_linker_0, # of connection points: 2
#     Edge 10, Type (0, 1), BuildingBlock: MIFKUJ_clean_linker_0, # of connection points: 2
#     Edge 11, Type (0, 1), BuildingBlock: MIFKUJ_clean_linker_0, # of connection points: 2
#     Edge 12, Type (0, 1), BuildingBlock: MIFKUJ_clean_linker_0, # of connection points: 2
#     Edge 13, Type (0, 1), BuildingBlock: MIFKUJ_clean_linker_0, # of connection points: 2
#     Edge 14, Type (0, 1), BuildingBlock: MIFKUJ_clean_linker_0, # of connection points: 2
#     Edge 15, Type (0, 1), BuildingBlock: MIFKUJ_clean_linker_0, # of connection points: 2
#     Edge 16, Type (0, 1), BuildingBlock: MIFKUJ_clean_linker_0, # of connection points: 2
#     Edge 17, Type (0, 1), BuildingBlock: MIFKUJ_clean_linker_0, # of connection points: 2
# Relax obj value: 0.080
# Max RMSD: 0.156
# Mean RMSD: 0.089
data_MOF--net-rtl--node1-VOLQOD_clean_sbu_1--node2-MIDCAF_clean_linker_0--edge1-MIFKUJ_clean_linker_0
_symmetry_space_group_name_H-M    P1
_symmetry_Int_Tables_number       1
_symmetry_cell_setting            triclinic
loop_
_symmetry_equiv_pos_as_xyz
'x, y, z'
_cell_length_a     55.04108
_cell_length_b     47.684559
_cell_length_c     35.893405
_cell_angle_alpha  89.784957
_cell_angle_beta   90.377893
_cell_angle_gamma 89.997696
loop_
_atom_site_label
_atom_site_type_symbol
_atom_site_fract_x
_atom_site_fract_y
_atom_site_fract_z
_atom_type_partial_charge
C0 C 0.07769 0.77731 0.10151 0.0
C1 C 0.08232 0.76602 0.13707 0.0
C2 C 0.09479 0.74029 0.13982 0.0
C3 C 0.10255 0.72637 0.10769 0.0
H4 H 0.15399 0.6685 0.06837 0.0
H5 H 0.19042 0.63957 0.07044 0.0
H6 H 0.19473 0.64307 0.95037 0.0
H7 H 0.15804 0.67131 0.9481 0.0
H8 H 0.11361 0.70099 0.90161 0.0
H9 H 0.09968 0.7212 0.84255 0.0
H10 H 0.06499 0.78857 0.90241 0.0
H11 H 0.07797 0.76808 0.96084 0.0
H12 H 0.08137 0.77298 0.04281 0.0
H13 H 0.06874 0.7974 0.09816 0.0
H14 H 0.09847 0.73083 0.16673 0.0
H15 H 0.11218 0.70668 0.11067 0.0
N16 N 0.12382 0.70385 0.03898 0.0
N17 N 0.12346 0.70161 0.97355 0.0
N18 N 0.09755 0.73258 0.00434 0.0
C19 C 0.13251 0.69258 0.00689 0.0
C20 C 0.10588 0.72157 0.97212 0.0
C21 C 0.10628 0.72388 0.03783 0.0
C22 C 0.15314 0.67255 0.00809 0.0
C23 C 0.16251 0.66285 0.04234 0.0
C24 C 0.18349 0.64636 0.04357 0.0
C25 C 0.19565 0.63921 0.0106 0.0
C26 C 0.18571 0.64791 0.97629 0.0
C27 C 0.16469 0.66431 0.97503 0.0
C28 C 0.0969 0.73284 0.93603 0.0
C29 C 0.10283 0.71999 0.90208 0.0
C30 C 0.09494 0.73165 0.86823 0.0
C31 C 0.08111 0.75648 0.86764 0.0
C32 C 0.07511 0.76911 0.90167 0.0
C33 C 0.08276 0.75738 0.93534 0.0
C34 C 0.09778 0.73777 0.07222 0.0
C35 C 0.08513 0.76332 0.06959 0.0
C36 C 0.56879 0.74087 0.40759 0.0
C37 C 0.58024 0.74643 0.37352 0.0
C38 C 0.59828 0.76724 0.37205 0.0
C39 C 0.6055 0.78131 0.40442 0.0
H40 H 0.66162 0.82804 0.44624 0.0
H41 H 0.69926 0.85464 0.446 0.0
H42 H 0.69315 0.86766 0.56463 0.0
H43 H 0.65577 0.84038 0.56517 0.0
H44 H 0.62683 0.78486 0.60698 0.0
H45 H 0.61221 0.76135 0.66282 0.0
H46 H 0.5427 0.74761 0.60905 0.0
H47 H 0.55777 0.76994 0.55272 0.0
H48 H 0.56697 0.74963 0.46573 0.0
H49 H 0.55455 0.72525 0.40942 0.0
H50 H 0.60748 0.77187 0.34616 0.0
H51 H 0.61999 0.7966 0.40254 0.0
N52 N 0.62375 0.80453 0.47379 0.0
N53 N 0.62336 0.80632 0.53913 0.0
N54 N 0.59401 0.78005 0.50703 0.0
C55 C 0.63346 0.81422 0.50623 0.0
C56 C 0.60352 0.78938 0.53968 0.0
C57 C 0.60398 0.78747 0.47396 0.0
C58 C 0.65565 0.83187 0.50577 0.0
C59 C 0.66817 0.83666 0.4723 0.0
C60 C 0.68975 0.8521 0.4721 0.0
C61 C 0.69929 0.86325 0.50531 0.0
C62 C 0.68652 0.85898 0.53865 0.0
C63 C 0.66498 0.84343 0.5389 0.0
C64 C 0.59356 0.77893 0.5753 0.0
C65 C 0.60832 0.77715 0.60729 0.0
C66 C 0.59987 0.76373 0.63941 0.0
C67 C 0.57633 0.75218 0.64039 0.0
C68 C 0.56114 0.75552 0.60902 0.0
C69 C 0.56972 0.76851 0.57677 0.0
C70 C 0.59471 0.77493 0.43887 0.0
C71 C 0.57587 0.75499 0.43985 0.0
C72 C 0.94428 0.24784 0.90749 0.0
C73 C 0.92966 0.24554 0.87536 0.0
C74 C 0.90653 0.2581 0.87528 0.0
C75 C 0.89794 0.27178 0.90693 0.0
H76 H 0.83853 0.31282 0.94848 0.0
H77 H 0.79987 0.3378 0.94717 0.0
H78 H 0.81416 0.36977 0.05747 0.0
H79 H 0.85286 0.3445 0.0592 0.0
H80 H 0.88449 0.29627 0.11021 0.0
H81 H 0.8987 0.27534 0.16851 0.0
H82 H 0.95715 0.23475 0.10975 0.0
H83 H 0.94345 0.25603 0.05189 0.0
H84 H 0.94717 0.26209 0.96375 0.0
H85 H 0.9624 0.23898 0.90829 0.0
H86 H 0.89462 0.25647 0.85125 0.0
H87 H 0.87977 0.2805 0.9062 0.0
N88 N 0.88165 0.30069 0.97335 0.0
N89 N 0.88214 0.30355 0.03862 0.0
N90 N 0.9124 0.27831 0.00765 0.0
C91 C 0.87167 0.31034 0.00536 0.0
C92 C 0.90254 0.28748 0.03998 0.0
C93 C 0.90215 0.28486 0.97425 0.0
C94 C 0.84877 0.32661 0.00402 0.0
C95 C 0.83357 0.3253 0.97242 0.0
C96 C 0.81137 0.33946 0.97168 0.0
C97 C 0.80408 0.3556 0.00224 0.0
C98 C 0.81947 0.35754 0.03349 0.0
C99 C 0.84153 0.34297 0.03452 0.0
C100 C 0.91265 0.27765 0.07617 0.0
C101 C 0.90059 0.28323 0.10979 0.0
C102 C 0.90864 0.27108 0.1432 0.0
C103 C 0.92895 0.25318 0.14377 0.0
C104 C 0.9416 0.24864 0.11045 0.0
C105 C 0.93359 0.26074 0.07712 0.0
C106 C 0.91217 0.27297 0.93954 0.0
C107 C 0.9356 0.26124 0.93926 0.0
C108 C 0.44074 0.26518 0.6092 0.0
C109 C 0.43379 0.25451 0.64409 0.0
C110 C 0.41804 0.23125 0.6452 0.0
C111 C 0.40881 0.21965 0.6122 0.0
H112 H 0.35425 0.16675 0.57022 0.0
H113 H 0.31609 0.14064 0.57202 0.0
H114 H 0.30544 0.15599 0.45445 0.0
H115 H 0.34333 0.18209 0.45239 0.0
H116 H 0.3837 0.21394 0.40581 0.0
H117 H 0.39298 0.24027 0.34903 0.0
H118 H 0.44118 0.29399 0.41171 0.0
H119 H 0.4321 0.268 0.46824 0.0
H120 H 0.43716 0.26289 0.55021 0.0
H121 H 0.4524 0.28339 0.60705 0.0
H122 H 0.41256 0.22221 0.67156 0.0
H123 H 0.3963 0.20218 0.61404 0.0
N124 N 0.38511 0.20241 0.54278 0.0
N125 N 0.38121 0.2064 0.47776 0.0
N126 N 0.41118 0.23187 0.5093 0.0
C127 C 0.37368 0.19502 0.51052 0.0
C128 C 0.40003 0.22477 0.47691 0.0
C129 C 0.40399 0.22081 0.54231 0.0
C130 C 0.35182 0.17681 0.51124 0.0
C131 C 0.34391 0.16437 0.54465 0.0
C132 C 0.3221 0.1493 0.5457 0.0
C133 C 0.3077 0.14656 0.51345 0.0
C134 C 0.316 0.15814 0.47985 0.0
C135 C 0.33782 0.17299 0.4787 0.0
C136 C 0.40699 0.23894 0.44173 0.0
C137 C 0.39642 0.23123 0.40746 0.0
C138 C 0.40176 0.24621 0.37492 0.0
C139 C 0.41756 0.26933 0.37615 0.0
C140 C 0.42863 0.27652 0.41012 0.0
C141 C 0.42349 0.26147 0.44248 0.0
C142 C 0.41527 0.23097 0.57741 0.0
C143 C 0.43175 0.25349 0.57639 0.0
O144 O 0.94436 0.00558 0.50616 0.0
Zn145 Zn 0.97524 0.02832 0.5067 0.0
O146 O 0.00389 0.004 0.50682 0.0
Zn147 Zn 0.02258 0.00958 0.55287 0.0
Zn148 Zn 0.99372 0.9648 0.5041 0.0
Zn149 Zn 0.02393 0.0132 0.46356 0.0
O150 O 0.05657 0.0226 0.54144 0.0
O151 O 0.0577 0.0244 0.47965 0.0
O152 O 0.97502 0.05307 0.55206 0.0
O153 O 0.00705 0.03896 0.58511 0.0
O154 O 0.02546 0.97378 0.5828 0.0
O155 O 0.0058 0.94268 0.54806 0.0
O156 O 0.00733 0.94599 0.45889 0.0
O157 O 0.97464 0.05385 0.46186 0.0
O158 O 0.02682 0.98011 0.42897 0.0
O159 O 0.00972 0.04528 0.43396 0.0
C160 C 0.94001 0.97939 0.50409 0.0
C161 C 0.06797 0.02736 0.5113 0.0
C162 C 0.01807 0.94884 0.57705 0.0
C163 C 0.98856 0.05473 0.58088 0.0
C164 C 0.0197 0.95478 0.43143 0.0
C165 C 0.98983 0.05881 0.43606 0.0
O166 O 0.9572 0.96154 0.50263 0.0
O167 O 0.56215 0.50507 0.0037 0.0
Zn168 Zn 0.5317 0.52873 0.00432 0.0
O169 O 0.50246 0.50539 0.00539 0.0
Zn170 Zn 0.4828 0.51202 0.96039 0.0
Zn171 Zn 0.51174 0.46591 0.00736 0.0
Zn172 Zn 0.48371 0.51457 0.0498 0.0
O173 O 0.44876 0.52412 0.97393 0.0
O174 O 0.45052 0.52852 0.03552 0.0
O175 O 0.53148 0.55396 0.95929 0.0
O176 O 0.49766 0.54257 0.92878 0.0
O177 O 0.48027 0.47717 0.92872 0.0
O178 O 0.49942 0.44503 0.96276 0.0
O179 O 0.49815 0.44663 0.05242 0.0
O180 O 0.53364 0.55393 0.04908 0.0
O181 O 0.47896 0.48055 0.08249 0.0
O182 O 0.5 0.54457 0.08044 0.0
C183 C 0.56569 0.4787 0.00579 0.0
C184 C 0.43891 0.53048 0.00482 0.0
C185 C 0.48754 0.45206 0.93368 0.0
C186 C 0.5169 0.55725 0.93192 0.0
C187 C 0.48553 0.45503 0.07978 0.0
C188 C 0.51975 0.55816 0.07672 0.0
O189 O 0.548 0.46159 0.00794 0.0
H190 H 0.29566 0.09667 0.54679 0.0
H191 H 0.25545 0.07442 0.54876 0.0
H192 H 0.22525 0.14348 0.48581 0.0
H193 H 0.26518 0.16582 0.48397 0.0
H194 H 0.19696 0.12885 0.54583 0.0
H195 H 0.2369 0.0843 0.44257 0.0
H196 H 0.26972 0.0578 0.41223 0.0
H197 H 0.2575 0.98824 0.48609 0.0
H198 H 0.22481 0.01451 0.51722 0.0
H199 H 0.09891 0.03688 0.4532 0.0
H200 H 0.1404 0.05496 0.4561 0.0
H201 H 0.13659 0.05773 0.576 0.0
H202 H 0.095 0.03983 0.57346 0.0
H203 H 0.18224 0.03562 0.48897 0.0
H204 H 0.16674 0.11724 0.60425 0.0
H205 H 0.13336 0.14524 0.6307 0.0
H206 H 0.09573 0.14342 0.52555 0.0
H207 H 0.12902 0.11574 0.49837 0.0
C208 C 0.28039 0.10711 0.53355 0.0
C209 C 0.28355 0.13286 0.51501 0.0
C210 C 0.25751 0.09435 0.53454 0.0
C211 C 0.23744 0.10728 0.51727 0.0
C212 C 0.24051 0.13318 0.49929 0.0
C213 C 0.26336 0.14578 0.49799 0.0
C214 C 0.21318 0.09386 0.5175 0.0
C215 C 0.19377 0.10838 0.53364 0.0
C216 C 0.20901 0.06731 0.50121 0.0
C217 C 0.22861 0.05149 0.48249 0.0
C218 C 0.24136 0.06345 0.45256 0.0
C219 C 0.25991 0.04846 0.43518 0.0
C220 C 0.26574 0.02139 0.4473 0.0
C221 C 0.25299 0.00923 0.47677 0.0
C222 C 0.23445 0.02415 0.49428 0.0
C223 C 0.10689 0.04121 0.48023 0.0
C224 C 0.09353 0.03708 0.51309 0.0
C225 C 0.13066 0.05142 0.48182 0.0
C226 C 0.14147 0.05788 0.51622 0.0
C227 C 0.12846 0.05314 0.54913 0.0
C228 C 0.1047 0.04286 0.5476 0.0
C229 C 0.16604 0.07057 0.51744 0.0
C230 C 0.1855 0.05592 0.5016 0.0
C231 C 0.17021 0.09718 0.53358 0.0
C232 C 0.15024 0.11416 0.54944 0.0
C233 C 0.15137 0.1229 0.58676 0.0
C234 C 0.13247 0.1387 0.60188 0.0
C235 C 0.1124 0.14602 0.57986 0.0
C236 C 0.11124 0.13764 0.54262 0.0
C237 C 0.13011 0.12187 0.52736 0.0
H238 H 0.09777 0.15822 0.59163 0.0
H239 H 0.2801 0.0098 0.43379 0.0
H240 H 0.23299 0.64751 0.05993 0.0
H241 H 0.27329 0.62632 0.05935 0.0
H242 H 0.25325 0.57755 0.96298 0.0
H243 H 0.2124 0.59787 0.96423 0.0
H244 H 0.28058 0.54694 0.0113 0.0
H245 H 0.28562 0.63689 0.95254 0.0
H246 H 0.27997 0.68801 0.94663 0.0
H247 H 0.32511 0.7011 0.04303 0.0
H248 H 0.33075 0.64999 0.04985 0.0
H249 H 0.40359 0.52231 0.9519 0.0
H250 H 0.36128 0.53839 0.95362 0.0
H251 H 0.37462 0.57735 0.06001 0.0
H252 H 0.41672 0.56098 0.05893 0.0
H253 H 0.35071 0.61218 0.00445 0.0
H254 H 0.34491 0.52141 0.06294 0.0
H255 H 0.35082 0.47024 0.06721 0.0
H256 H 0.30755 0.45884 0.96844 0.0
H257 H 0.30167 0.51002 0.96329 0.0
C258 C 0.23691 0.63183 0.03907 0.0
C259 C 0.21946 0.62449 0.012 0.0
C260 C 0.26008 0.61996 0.03854 0.0
C261 C 0.2664 0.60075 0.01071 0.0
C262 C 0.24878 0.59248 0.98455 0.0
C263 C 0.22553 0.60429 0.98513 0.0
C264 C 0.29169 0.59022 0.00816 0.0
C265 C 0.29588 0.56119 0.0093 0.0
C266 C 0.31169 0.60884 0.00598 0.0
C267 C 0.30841 0.6396 0.00191 0.0
C268 C 0.29419 0.65066 0.97266 0.0
C269 C 0.29101 0.67963 0.96912 0.0
C270 C 0.30212 0.69779 0.9945 0.0
C271 C 0.31649 0.687 0.02342 0.0
C272 C 0.3197 0.65804 0.02712 0.0
C273 C 0.3975 0.53431 0.97564 0.0
C274 C 0.41346 0.54037 0.00529 0.0
C275 C 0.37335 0.54335 0.97664 0.0
C276 C 0.36491 0.55893 0.00701 0.0
C277 C 0.38085 0.5653 0.03639 0.0
C278 C 0.40484 0.55587 0.03574 0.0
C279 C 0.33953 0.56902 0.00796 0.0
C280 C 0.33536 0.59798 0.00639 0.0
C281 C 0.31961 0.55034 0.00945 0.0
C282 C 0.3231 0.51957 0.01248 0.0
C283 C 0.33686 0.50802 0.04191 0.0
C284 C 0.34016 0.47901 0.04455 0.0
C285 C 0.32964 0.4613 0.01804 0.0
C286 C 0.31573 0.47258 0.98891 0.0
C287 C 0.31239 0.50159 0.98614 0.0
H288 H 0.3322 0.43885 0.02013 0.0
H289 H 0.29964 0.72022 0.9917 0.0
H290 H 0.73605 0.86006 0.55695 0.0
H291 H 0.77533 0.88382 0.55574 0.0
H292 H 0.75564 0.92408 0.45207 0.0
H293 H 0.71606 0.90079 0.45337 0.0
H294 H 0.80069 0.90128 0.44923 0.0
H295 H 0.75673 0.96169 0.53039 0.0
H296 H 0.73104 0.97373 0.58403 0.0
H297 H 0.78533 0.94132 0.65908 0.0
H298 H 0.81121 0.9287 0.60585 0.0
H299 H 0.89854 0.0109 0.50927 0.0
H300 H 0.85648 0.99442 0.50776 0.0
H301 H 0.88153 0.90919 0.49648 0.0
H302 H 0.92359 0.92541 0.49759 0.0
H303 H 0.83204 0.95939 0.55339 0.0
H304 H 0.84223 0.87377 0.44044 0.0
H305 H 0.867 0.86439 0.38482 0.0
H306 H 0.8782 0.95276 0.36922 0.0
H307 H 0.85322 0.96269 0.42441 0.0
C308 C 0.73986 0.87433 0.5342 0.0
C309 C 0.72285 0.87854 0.50528 0.0
C310 C 0.76238 0.88782 0.53349 0.0
C311 C 0.76833 0.90583 0.50393 0.0
C312 C 0.75141 0.9102 0.47509 0.0
C313 C 0.72884 0.89678 0.47583 0.0
C314 C 0.79255 0.9194 0.5026 0.0
C315 C 0.80752 0.91404 0.47195 0.0
C316 C 0.8013 0.93641 0.53198 0.0
C317 C 0.78582 0.94404 0.56409 0.0
C318 C 0.76311 0.95692 0.55832 0.0
C319 C 0.74853 0.96389 0.58865 0.0
C320 C 0.75653 0.95823 0.62494 0.0
C321 C 0.77915 0.94566 0.63096 0.0
C322 C 0.7938 0.93863 0.60071 0.0
C323 C 0.89513 0.98864 0.50639 0.0
C324 C 0.91448 0.9695 0.5034 0.0
C325 C 0.87108 0.97927 0.50565 0.0
C326 C 0.86589 0.95064 0.50165 0.0
C327 C 0.88513 0.93144 0.49905 0.0
C328 C 0.90918 0.94076 0.49982 0.0
C329 C 0.84036 0.94074 0.50042 0.0
C330 C 0.82516 0.94673 0.5306 0.0
C331 C 0.83127 0.92466 0.47035 0.0
C332 C 0.84603 0.91894 0.43677 0.0
C333 C 0.84989 0.8912 0.42504 0.0
C334 C 0.86398 0.88579 0.3936 0.0
C335 C 0.87423 0.90796 0.37357 0.0
C336 C 0.87033 0.9356 0.38485 0.0
C337 C 0.85623 0.94113 0.41623 0.0
H338 H 0.88515 0.90373 0.34927 0.0
H339 H 0.74521 0.96365 0.64839 0.0
H340 H 0.79416 0.41044 0.01755 0.0
H341 H 0.75442 0.43359 0.01654 0.0
H342 H 0.72038 0.35523 0.98638 0.0
H343 H 0.76018 0.33244 0.98588 0.0
H344 H 0.70064 0.39431 0.94782 0.0
H345 H 0.71939 0.38343 0.0777 0.0
H346 H 0.74383 0.38812 0.13517 0.0
H347 H 0.7409 0.47784 0.1254 0.0
H348 H 0.7167 0.47367 0.06756 0.0
H349 H 0.57979 0.42391 0.00084 0.0
H350 H 0.62108 0.4054 -0.00085 0.0
H351 H 0.64984 0.48926 0.00775 0.0
H352 H 0.60846 0.50813 0.00954 0.0
H353 H 0.67259 0.45017 0.05568 0.0
H354 H 0.65064 0.45851 0.92566 0.0
H355 H 0.6237 0.45092 0.87145 0.0
H356 H 0.63029 0.36178 0.88554 0.0
H357 H 0.65707 0.36884 0.94011 0.0
C358 C 0.77814 0.39825 0.01076 0.0
C359 C 0.78014 0.3697 0.00185 0.0
C360 C 0.75544 0.41142 0.01031 0.0
C361 C 0.73429 0.39608 0.00194 0.0
C362 C 0.73639 0.36756 0.99285 0.0
C363 C 0.7591 0.35453 0.99262 0.0
C364 C 0.70996 0.4096 0.00258 0.0
C365 C 0.69448 0.40627 0.97161 0.0
C366 C 0.70194 0.42565 0.0333 0.0
C367 C 0.71647 0.42823 0.06809 0.0
C368 C 0.72412 0.40415 0.08765 0.0
C369 C 0.7379 0.40672 0.12032 0.0
C370 C 0.74398 0.43326 0.13387 0.0
C371 C 0.73622 0.45729 0.11483 0.0
C372 C 0.72246 0.45484 0.08212 0.0
C373 C 0.59484 0.4385 0.00243 0.0
C374 C 0.5908 0.46755 0.00522 0.0
C375 C 0.61844 0.42785 0.00132 0.0
C376 C 0.63846 0.446 0.00296 0.0
C377 C 0.63457 0.47495 0.00635 0.0
C378 C 0.61093 0.48567 0.00725 0.0
C379 C 0.66343 0.4346 0.00118 0.0
C380 C 0.67895 0.43835 0.03188 0.0
C381 C 0.67131 0.41849 0.97055 0.0
C382 C 0.65573 0.41422 0.93713 0.0
C383 C 0.64627 0.43729 0.9173 0.0
C384 C 0.63103 0.43308 0.88649 0.0
C385 C 0.62524 0.40589 0.87511 0.0
C386 C 0.63479 0.38284 0.89439 0.0
C387 C 0.65003 0.38693 0.92522 0.0
H388 H 0.61339 0.40267 0.85132 0.0
H389 H 0.75464 0.4352 0.15917 0.0
H390 H 0.10653 0.77102 0.20408 0.0
H391 H 0.09546 0.80059 0.25699 0.0
H392 H 0.03077 0.82736 0.19873 0.0
H393 H 0.04079 0.79682 0.14668 0.0
H394 H 0.06677 0.87153 0.22749 0.0
H395 H 0.01939 0.78919 0.26237 0.0
H396 H 0.01483 0.73898 0.2775 0.0
H397 H 0.06615 0.74736 0.36739 0.0
H398 H 0.07128 0.79756 0.35241 0.0
H399 H 0.00813 0.95738 0.35796 0.0
H400 H 0.01834 0.9232 0.30982 0.0
H401 H 0.05822 0.87431 0.39139 0.0
H402 H 0.04608 0.90733 0.43996 0.0
H403 H 0.03711 0.84023 0.35103 0.0
H404 H 0.08571 0.91998 0.32091 0.0
H405 H 0.0945 0.96967 0.30725 0.0
H406 H 0.048 0.96636 0.21084 0.0
H407 H 0.0387 0.91673 0.22417 0.0
C408 C 0.08963 0.78262 0.20283 0.0
C409 C 0.07471 0.78174 0.17081 0.0
C410 C 0.08346 0.79965 0.23298 0.0
C411 C 0.06244 0.81623 0.23143 0.0
C412 C 0.04718 0.81484 0.20016 0.0
C413 C 0.05307 0.7975 0.17036 0.0
C414 C 0.0569 0.83618 0.26152 0.0
C415 C 0.06007 0.86485 0.25447 0.0
C416 C 0.0491 0.82716 0.29695 0.0
C417 C 0.04593 0.79703 0.30599 0.0
C418 C 0.02989 0.78026 0.2851 0.0
C419 C 0.02716 0.75182 0.29371 0.0
C420 C 0.04025 0.73996 0.32331 0.0
C421 C 0.05605 0.75655 0.34443 0.0
C422 C 0.05886 0.785 0.33591 0.0
C423 C 0.01906 0.93927 0.36537 0.0
C424 C 0.02649 0.93485 0.40231 0.0
C425 C 0.0251 0.91986 0.33788 0.0
C426 C 0.03964 0.89641 0.34661 0.0
C427 C 0.04703 0.89215 0.38378 0.0
C428 C 0.04023 0.91103 0.41148 0.0
C429 C 0.04675 0.87608 0.31723 0.0
C430 C 0.04396 0.84722 0.32429 0.0
C431 C 0.05561 0.88492 0.28206 0.0
C432 C 0.06135 0.9147 0.27373 0.0
C433 C 0.07726 0.92989 0.29691 0.0
C434 C 0.08234 0.95804 0.28921 0.0
C435 C 0.07177 0.97118 0.25825 0.0
C436 C 0.05616 0.95616 0.23483 0.0
C437 C 0.051 0.92801 0.24241 0.0
H438 H 0.0757 0.99299 0.25236 0.0
H439 H 0.03811 0.71794 0.32994 0.0
H440 H 0.54846 0.7046 0.63968 0.0
H441 H 0.53676 0.67531 0.6923 0.0
H442 H 0.57516 0.73034 0.7673 0.0
H443 H 0.58623 0.76064 0.71486 0.0
H444 H 0.58672 0.67243 0.77551 0.0
H445 H 0.51645 0.73191 0.76964 0.0
H446 H 0.48194 0.75567 0.7388 0.0
H447 H 0.45142 0.67593 0.70892 0.0
H448 H 0.48595 0.65168 0.73912 0.0
H449 H 0.54776 0.60185 0.93825 0.0
H450 H 0.55658 0.63765 0.8915 0.0
H451 H 0.5078 0.59693 0.81414 0.0
H452 H 0.49816 0.56166 0.86137 0.0
H453 H 0.50154 0.65058 0.80948 0.0
H454 H 0.5716 0.59072 0.80943 0.0
H455 H 0.60637 0.56515 0.83681 0.0
H456 H 0.63765 0.64285 0.87355 0.0
H457 H 0.60289 0.66886 0.84679 0.0
C458 C 0.55397 0.71099 0.66738 0.0
C459 C 0.56823 0.73517 0.67291 0.0
C460 C 0.54737 0.69406 0.69743 0.0
C461 C 0.55501 0.70076 0.73363 0.0
C462 C 0.56913 0.72484 0.73948 0.0
C463 C 0.57553 0.74203 0.70944 0.0
C464 C 0.54905 0.68181 0.76501 0.0
C465 C 0.56813 0.66799 0.7835 0.0
C466 C 0.52476 0.67546 0.77443 0.0
C467 C 0.5039 0.68999 0.75639 0.0
C468 C 0.50249 0.71944 0.75623 0.0
C469 C 0.4829 0.73299 0.73892 0.0
C470 C 0.46453 0.71732 0.72184 0.0
C471 C 0.46568 0.68804 0.72213 0.0
C472 C 0.48524 0.67439 0.73939 0.0
C473 C 0.53894 0.60048 0.91126 0.0
C474 C 0.52237 0.57881 0.90343 0.0
C475 C 0.54407 0.62092 0.88449 0.0
C476 C 0.53319 0.61976 0.84902 0.0
C477 C 0.51644 0.59829 0.84128 0.0
C478 C 0.511 0.57808 0.86826 0.0
C479 C 0.53923 0.64087 0.81997 0.0
C480 C 0.52017 0.6551 0.80182 0.0
C481 C 0.56356 0.64728 0.81042 0.0
C482 C 0.58451 0.6317 0.82645 0.0
C483 C 0.5858 0.60233 0.82359 0.0
C484 C 0.60552 0.58776 0.83896 0.0
C485 C 0.62417 0.60236 0.85701 0.0
C486 C 0.62317 0.63157 0.85962 0.0
C487 C 0.60348 0.64624 0.84433 0.0
H488 H 0.63943 0.59104 0.86889 0.0
H489 H 0.44938 0.72785 0.70845 0.0
H490 H 0.89903 0.22823 0.19464 0.0
H491 H 0.91065 0.19872 0.24757 0.0
H492 H 0.98633 0.21257 0.22313 0.0
H493 H 0.97487 0.2425 0.17037 0.0
H494 H 0.9756 0.15709 0.23134 0.0
H495 H 0.96103 0.24221 0.29887 0.0
H496 H 0.93738 0.28355 0.31811 0.0
H497 H 0.88143 0.22988 0.36099 0.0
H498 H 0.9046 0.18819 0.34155 0.0
H499 H 0.02148 0.08535 0.38936 0.0
H500 H 0.01221 0.1213 0.34279 0.0
H501 H 0.9363 0.11712 0.37172 0.0
H502 H 0.94561 0.08194 0.41941 0.0
H503 H 0.94834 0.16917 0.36176 0.0
H504 H 0.96031 0.08462 0.29203 0.0
H505 H 0.98225 0.04231 0.27173 0.0
H506 H 0.04073 0.09343 0.23137 0.0
H507 H 0.01927 0.13605 0.25188 0.0
C508 C 0.91816 0.22558 0.20101 0.0
C509 C 0.93603 0.23771 0.1782 0.0
C510 C 0.92476 0.2086 0.23123 0.0
C511 C 0.94935 0.20353 0.23935 0.0
C512 C 0.96725 0.21616 0.21725 0.0
C513 C 0.96066 0.23318 0.18707 0.0
C514 C 0.95635 0.1837 0.26947 0.0
C515 C 0.97001 0.15995 0.26001 0.0
C516 C 0.94837 0.18703 0.30657 0.0
C517 C 0.93447 0.21208 0.31846 0.0
C518 C 0.9436 0.23922 0.31215 0.0
C519 C 0.9303 0.26272 0.32314 0.0
C520 C 0.90789 0.25935 0.34069 0.0
C521 C 0.89878 0.23246 0.34737 0.0
C522 C 0.912 0.20889 0.33641 0.0
C523 C 0.00281 0.09208 0.38581 0.0
C524 C 0.98425 0.08067 0.40792 0.0
C525 C 0.99751 0.11258 0.35906 0.0
C526 C 0.97348 0.12159 0.35324 0.0
C527 C 0.95498 0.11049 0.37565 0.0
C528 C 0.96032 0.09032 0.40283 0.0
C529 C 0.96758 0.14244 0.32366 0.0
C530 C 0.95407 0.16635 0.33316 0.0
C531 C 0.97543 0.13909 0.28643 0.0
C532 C 0.98829 0.1135 0.27383 0.0
C533 C 0.97792 0.08683 0.27905 0.0
C534 C 0.99026 0.06279 0.26748 0.0
C535 C 0.0129 0.06517 0.25037 0.0
C536 C 0.02321 0.09161 0.24468 0.0
C537 C 0.01096 0.11571 0.25625 0.0
H538 H 0.02243 0.04653 0.24145 0.0
H539 H 0.89762 0.27756 0.34917 0.0
H540 H 0.40752 0.26317 0.70786 0.0
H541 H 0.41837 0.29282 0.76057 0.0
H542 H 0.48776 0.3105 0.71045 0.0
H543 H 0.47786 0.27917 0.65911 0.0
H544 H 0.4938 0.30965 0.78104 0.0
H545 H 0.43716 0.35469 0.69891 0.0
H546 H 0.39922 0.35976 0.66258 0.0
H547 H 0.35764 0.35585 0.76328 0.0
H548 H 0.39535 0.35037 0.80018 0.0
H549 H 0.47244 0.46026 0.86165 0.0
H550 H 0.46511 0.42458 0.81416 0.0
H551 H 0.48268 0.35964 0.89399 0.0
H552 H 0.49083 0.39518 0.94115 0.0
H553 H 0.43405 0.38481 0.80741 0.0
H554 H 0.50818 0.30398 0.85179 0.0
H555 H 0.54903 0.3038 0.88054 0.0
H556 H 0.56095 0.3881 0.84238 0.0
H557 H 0.52032 0.38865 0.81299 0.0
C558 C 0.4254 0.27262 0.70851 0.0
C559 C 0.44163 0.26913 0.67875 0.0
C560 C 0.43145 0.28993 0.7385 0.0
C561 C 0.45358 0.30462 0.73894 0.0
C562 C 0.47045 0.29969 0.71058 0.0
C563 C 0.46462 0.282 0.68095 0.0
C564 C 0.4585 0.32649 0.76739 0.0
C565 C 0.48069 0.326 0.78693 0.0
C566 C 0.44175 0.34841 0.77432 0.0
C567 C 0.41905 0.35184 0.75226 0.0
C568 C 0.41991 0.35473 0.71328 0.0
C569 C 0.39846 0.3577 0.69258 0.0
C570 C 0.37603 0.35805 0.7106 0.0
C571 C 0.37503 0.35552 0.74936 0.0
C572 C 0.39643 0.3525 0.77018 0.0
C573 C 0.47476 0.43838 0.86907 0.0
C574 C 0.48235 0.43057 0.9051 0.0
C575 C 0.47054 0.418 0.84191 0.0
C576 C 0.47365 0.38942 0.85033 0.0
C577 C 0.48069 0.38156 0.88655 0.0
C578 C 0.48523 0.40193 0.91355 0.0
C579 C 0.46924 0.36783 0.82135 0.0
C580 C 0.44712 0.36838 0.80171 0.0
C581 C 0.48649 0.34669 0.81327 0.0
C582 C 0.51108 0.34644 0.83054 0.0
C583 C 0.51955 0.32244 0.84943 0.0
C584 C 0.54267 0.32228 0.86585 0.0
C585 C 0.55754 0.34596 0.8634 0.0
C586 C 0.54937 0.36981 0.84439 0.0
C587 C 0.52629 0.37007 0.82789 0.0
H588 H 0.57542 0.3458 0.87615 0.0
H589 H 0.35944 0.36036 0.69453 0.0
H590 H 0.57514 0.68974 0.36997 0.0
H591 H 0.566 0.66122 0.31528 0.0
H592 H 0.56317 0.73577 0.24697 0.0
H593 H 0.57212 0.76463 0.30193 0.0
H594 H 0.52486 0.6989 0.23297 0.0
H595 H 0.61135 0.69654 0.24093 0.0
H596 H 0.6512 0.69039 0.27167 0.0
H597 H 0.63412 0.60432 0.29538 0.0
H598 H 0.594 0.61006 0.26526 0.0
H599 H 0.56022 0.59156 0.07776 0.0
H600 H 0.57119 0.6271 0.12374 0.0
H601 H 0.50607 0.60853 0.18532 0.0
H602 H 0.49476 0.57321 0.13929 0.0
H603 H 0.5809 0.62241 0.19631 0.0
H604 H 0.48523 0.66812 0.22564 0.0
H605 H 0.44649 0.67608 0.19232 0.0
H606 H 0.48428 0.6794 0.08812 0.0
H607 H 0.52327 0.67186 0.12085 0.0
C608 C 0.57235 0.70011 0.34338 0.0
C609 C 0.57427 0.72942 0.34021 0.0
C610 C 0.56732 0.68377 0.31213 0.0
C611 C 0.56411 0.69639 0.27709 0.0
C612 C 0.56565 0.72568 0.27381 0.0
C613 C 0.57089 0.74207 0.3051 0.0
C614 C 0.55918 0.67876 0.24404 0.0
C615 C 0.53712 0.68224 0.2248 0.0
C616 C 0.57543 0.6574 0.23305 0.0
C617 C 0.59958 0.6538 0.25108 0.0
C618 C 0.61601 0.67636 0.25295 0.0
C619 C 0.63866 0.67294 0.27022 0.0
C620 C 0.64517 0.647 0.28553 0.0
C621 C 0.62905 0.62441 0.28353 0.0
C622 C 0.60636 0.62773 0.26632 0.0
C623 C 0.54818 0.59504 0.10102 0.0
C624 C 0.52657 0.57953 0.10477 0.0
C625 C 0.55451 0.61536 0.1273 0.0
C626 C 0.53933 0.62067 0.15771 0.0
C627 C 0.51786 0.6051 0.16171 0.0
C628 C 0.51149 0.5848 0.13545 0.0
C629 C 0.54624 0.64199 0.18581 0.0
C630 C 0.56868 0.63918 0.20422 0.0
C631 C 0.53048 0.66421 0.19562 0.0
C632 C 0.50715 0.66918 0.17571 0.0
C633 C 0.48529 0.67068 0.19564 0.0
C634 C 0.46328 0.6751 0.17685 0.0
C635 C 0.46291 0.67816 0.13812 0.0
C636 C 0.48457 0.67693 0.11811 0.0
C637 C 0.50663 0.67255 0.13676 0.0
H638 H 0.44585 0.68155 0.12362 0.0
H639 H 0.66272 0.64439 0.29888 0.0
H640 H 0.95536 0.19638 0.87631 0.0
H641 H 0.96713 0.16759 0.82345 0.0
H642 H 0.93354 0.2268 0.74807 0.0
H643 H 0.92232 0.25639 0.80081 0.0
H644 H 0.9195 0.17098 0.73599 0.0
H645 H 0.99298 0.22396 0.75071 0.0
H646 H 0.02774 0.24378 0.78534 0.0
H647 H 0.05215 0.16083 0.81367 0.0
H648 H 0.01732 0.1405 0.77964 0.0
H649 H 0.96038 0.10164 0.57368 0.0
H650 H 0.95175 0.13678 0.62109 0.0
H651 H 0.99473 0.09011 0.70099 0.0
H652 H 0.00426 0.05551 0.65323 0.0
H653 H 0.00423 0.14279 0.70827 0.0
H654 H 0.93036 0.08938 0.69925 0.0
H655 H 0.89511 0.06803 0.66743 0.0
H656 H 0.87086 0.14949 0.63186 0.0
H657 H 0.90615 0.17129 0.66309 0.0
C658 C 0.95092 0.20371 0.8485 0.0
C659 C 0.93792 0.22882 0.8429 0.0
C660 C 0.95757 0.1871 0.81831 0.0
C661 C 0.9513 0.19516 0.7819 0.0
C662 C 0.9385 0.22024 0.77603 0.0
C663 C 0.93201 0.23703 0.80622 0.0
C664 C 0.95723 0.17666 0.75022 0.0
C665 C 0.93804 0.16516 0.72942 0.0
C666 C 0.98137 0.16855 0.74251 0.0
C667 C 0.00241 0.18072 0.76286 0.0
C668 C 0.00564 0.20995 0.76457 0.0
C669 C 0.02539 0.22127 0.78405 0.0
C670 C 0.04212 0.20358 0.80176 0.0
C671 C 0.03917 0.17451 0.79996 0.0
C672 C 0.01944 0.16307 0.78054 0.0
C673 C 0.96794 0.09882 0.60138 0.0
C674 C 0.9829 0.07572 0.60978 0.0
C675 C 0.96292 0.11889 0.62852 0.0
C676 C 0.97225 0.1159 0.66484 0.0
C677 C 0.98731 0.0929 0.67318 0.0
C678 C 0.99268 0.07309 0.64589 0.0
C679 C 0.96646 0.13672 0.69416 0.0
C680 C 0.98567 0.14869 0.71457 0.0
C681 C 0.94229 0.14499 0.70187 0.0
C682 C 0.92103 0.13193 0.68317 0.0
C683 C 0.9176 0.10271 0.68441 0.0
C684 C 0.8976 0.09054 0.66652 0.0
C685 C 0.8808 0.10738 0.64754 0.0
C686 C 0.88392 0.13646 0.64651 0.0
C687 C 0.9039 0.14874 0.66433 0.0
H688 H 0.86533 0.09792 0.6337 0.0
H689 H 0.05739 0.21239 0.81683 0.0
H690 H 0.42905 0.25144 0.30603 0.0
H691 H 0.43846 0.28067 0.25151 0.0
H692 H 0.42556 0.35517 0.31627 0.0
H693 H 0.41607 0.32616 0.37058 0.0
H694 H 0.40495 0.35757 0.24476 0.0
H695 H 0.48176 0.33413 0.30427 0.0
H696 H 0.51275 0.30148 0.32883 0.0
H697 H 0.51971 0.26423 0.22069 0.0
H698 H 0.48848 0.29644 0.1956 0.0
H699 H 0.4639 0.4657 0.14669 0.0
H700 H 0.45057 0.43171 0.19327 0.0
H701 H 0.47566 0.364 0.12398 0.0
H702 H 0.48964 0.39788 0.07767 0.0
H703 H 0.48836 0.35461 0.19327 0.0
H704 H 0.41462 0.37969 0.13154 0.0
H705 H 0.38345 0.41151 0.10561 0.0
H706 H 0.36968 0.44397 0.21487 0.0
H707 H 0.40103 0.41263 0.24141 0.0
C708 C 0.42801 0.27404 0.30842 0.0
C709 C 0.42207 0.28659 0.34253 0.0
C710 C 0.43345 0.29068 0.2774 0.0
C711 C 0.43285 0.32005 0.28004 0.0
C712 C 0.42614 0.33254 0.31372 0.0
C713 C 0.42093 0.31598 0.34475 0.0
C714 C 0.44013 0.33798 0.2483 0.0
C715 C 0.42321 0.3571 0.23358 0.0
C716 C 0.46375 0.33671 0.23314 0.0
C717 C 0.48259 0.31746 0.24818 0.0
C718 C 0.48975 0.31882 0.28581 0.0
C719 C 0.50738 0.30042 0.29981 0.0
C720 C 0.51814 0.28074 0.27636 0.0
C721 C 0.51133 0.27946 0.23883 0.0
C722 C 0.49367 0.29778 0.22471 0.0
C723 C 0.46659 0.44358 0.14133 0.0
C724 C 0.47779 0.43452 0.1084 0.0
C725 C 0.45883 0.42415 0.1679 0.0
C726 C 0.46173 0.39527 0.16182 0.0
C727 C 0.47316 0.38617 0.1292 0.0
C728 C 0.48113 0.40559 0.10275 0.0
C729 C 0.45328 0.37462 0.1899 0.0
C730 C 0.46998 0.35495 0.20401 0.0
C731 C 0.42937 0.3752 0.20421 0.0
C732 C 0.41033 0.39395 0.18842 0.0
C733 C 0.40507 0.39375 0.15001 0.0
C734 C 0.38735 0.41168 0.1352 0.0
C735 C 0.37463 0.42979 0.15856 0.0
C736 C 0.37956 0.42995 0.1968 0.0
C737 C 0.39729 0.41207 0.21175 0.0
H738 H 0.36093 0.44367 0.14703 0.0
H739 H 0.5318 0.26652 0.28725 0.0
H740 H 0.03829 0.78338 0.85168 0.0
H741 H 0.02837 0.81111 0.79669 0.0
H742 H 0.09624 0.78692 0.74654 0.0
H743 H 0.10712 0.76069 0.80281 0.0
H744 H 0.09108 0.83951 0.73812 0.0
H745 H 0.03918 0.76228 0.71431 0.0
H746 H 0.00846 0.72603 0.72755 0.0
H747 H 0.95513 0.78988 0.74738 0.0
H748 H 0.98561 0.82654 0.73476 0.0
H749 H 0.01331 0.89225 0.56767 0.0
H750 H 0.02507 0.85505 0.61105 0.0
H751 H 0.04816 0.91712 0.69097 0.0
H752 H 0.03715 0.95446 0.64727 0.0
H753 H 0.01027 0.84012 0.67614 0.0
H754 H 0.09528 0.89408 0.74177 0.0
H755 H 0.12779 0.92668 0.72285 0.0
H756 H 0.11836 0.90209 0.60871 0.0
H757 H 0.08605 0.86907 0.62699 0.0
C758 C 0.05119 0.78397 0.82903 0.0
C759 C 0.07366 0.77003 0.83195 0.0
C760 C 0.04529 0.79952 0.79726 0.0
C761 C 0.06143 0.80093 0.76719 0.0
C762 C 0.08347 0.78615 0.76936 0.0
C763 C 0.08956 0.77089 0.80144 0.0
C764 C 0.056 0.81952 0.73488 0.0
C765 C 0.07347 0.83946 0.7244 0.0
C766 C 0.03322 0.81915 0.7163 0.0
C767 C 0.01475 0.79717 0.72379 0.0
C768 C 0.02095 0.7686 0.72173 0.0
C769 C 0.00356 0.74798 0.72909 0.0
C770 C 0.97987 0.75565 0.73836 0.0
C771 C 0.97349 0.78397 0.7402 0.0
C772 C 0.99081 0.80468 0.73288 0.0
C773 C 0.0209 0.89802 0.59448 0.0
C774 C 0.02441 0.92635 0.60394 0.0
C775 C 0.02759 0.8767 0.61927 0.0
C776 C 0.03782 0.88324 0.65407 0.0
C777 C 0.04082 0.91153 0.66393 0.0
C778 C 0.03439 0.93287 0.639 0.0
C779 C 0.0451 0.86053 0.68026 0.0
C780 C 0.02797 0.8399 0.6896 0.0
C781 C 0.06846 0.85968 0.69694 0.0
C782 C 0.08809 0.87927 0.68575 0.0
C783 C 0.10022 0.89553 0.71266 0.0
C784 C 0.1186 0.9141 0.70204 0.0
C785 C 0.12508 0.91651 0.66459 0.0
C786 C 0.11326 0.90028 0.63769 0.0
C787 C 0.0949 0.88166 0.64816 0.0
H788 H 0.1393 0.93092 0.65643 0.0
H789 H 0.96643 0.73964 0.74406 0.0
loop_
_geom_bond_atom_site_label_1
_geom_bond_atom_site_label_2
_geom_bond_distance
_geom_bond_site_symmetry_2
_ccdc_geom_bond_type
C0 C1 1.384 . S
C0 H13 0.947 . S
C0 C35 1.382 . S
C1 C0 1.384 . S
C1 C2 1.378 . S
C2 C1 1.378 . S
C2 C3 1.378 . S
C2 H14 0.952 . S
C3 C2 1.378 . S
C3 H15 0.950 . S
C3 C34 1.383 . S
H4 C23 0.947 . S
H5 C24 0.946 . S
H6 C26 0.953 . S
H7 C27 0.945 . S
H8 C29 0.952 . S
H9 C30 0.949 . S
H10 C32 0.950 . S
H11 C33 0.948 . S
H12 C35 0.951 . S
H13 C0 0.947 . S
H14 C2 0.952 . S
H15 C3 0.950 . S
N16 C19 1.382 . S
N16 C21 1.363 . S
N17 C19 1.371 1_556 S
N17 C20 1.372 . S
N18 C20 1.361 1_554 S
N18 C21 1.377 . S
C19 N16 1.382 . S
C19 N17 1.371 1_554 S
C19 C22 1.480 . S
C20 N17 1.372 . S
C20 N18 1.361 1_556 S
C20 C28 1.457 . S
C21 N16 1.363 . S
C21 N18 1.377 . S
C21 C34 1.479 . S
C22 C19 1.480 . S
C22 C23 1.383 . S
C22 C27 1.385 1_554 S
C23 H4 0.947 . S
C23 C22 1.383 . S
C23 C24 1.388 . S
C24 H5 0.946 . S
C24 C23 1.388 . S
C24 C25 1.384 . S
C25 C24 1.384 . S
C25 C26 1.377 1_554 S
C26 H6 0.953 . S
C26 C25 1.377 1_556 S
C26 C27 1.369 . S
C27 H7 0.945 . S
C27 C22 1.385 1_556 S
C27 C26 1.369 . S
C28 C20 1.457 . S
C28 C29 1.372 . S
C28 C33 1.364 . S
C29 H8 0.952 . S
C29 C28 1.372 . S
C29 C30 1.389 . S
C30 H9 0.949 . S
C30 C29 1.389 . S
C30 C31 1.387 . S
C31 C30 1.387 . S
C31 C32 1.372 . S
C32 H10 0.950 . S
C32 C31 1.372 . S
C32 C33 1.379 . S
C33 H11 0.948 . S
C33 C28 1.364 . S
C33 C32 1.379 . S
C34 C3 1.383 . S
C34 C21 1.479 . S
C34 C35 1.398 . S
C35 C0 1.382 . S
C35 H12 0.951 . S
C35 C34 1.398 . S
C36 C37 1.384 . S
C36 H49 0.947 . S
C36 C71 1.382 . S
C37 C36 1.384 . S
C37 C38 1.378 . S
C38 C37 1.378 . S
C38 C39 1.378 . S
C38 H50 0.952 . S
C39 C38 1.378 . S
C39 H51 0.950 . S
C39 C70 1.383 . S
H40 C59 0.947 . S
H41 C60 0.946 . S
H42 C62 0.953 . S
H43 C63 0.945 . S
H44 C65 0.952 . S
H45 C66 0.949 . S
H46 C68 0.950 . S
H47 C69 0.948 . S
H48 C71 0.951 . S
H49 C36 0.947 . S
H50 C38 0.952 . S
H51 C39 0.950 . S
N52 C55 1.382 . S
N52 C57 1.363 . S
N53 C55 1.371 . S
N53 C56 1.372 . S
N54 C56 1.361 . S
N54 C57 1.377 . S
C55 N52 1.382 . S
C55 N53 1.371 . S
C55 C58 1.480 . S
C56 N53 1.372 . S
C56 N54 1.361 . S
C56 C64 1.457 . S
C57 N52 1.363 . S
C57 N54 1.377 . S
C57 C70 1.479 . S
C58 C55 1.480 . S
C58 C59 1.383 . S
C58 C63 1.385 . S
C59 H40 0.947 . S
C59 C58 1.383 . S
C59 C60 1.388 . S
C60 H41 0.946 . S
C60 C59 1.388 . S
C60 C61 1.384 . S
C61 C60 1.384 . S
C61 C62 1.377 . S
C62 H42 0.953 . S
C62 C61 1.377 . S
C62 C63 1.369 . S
C63 H43 0.945 . S
C63 C58 1.385 . S
C63 C62 1.369 . S
C64 C56 1.457 . S
C64 C65 1.372 . S
C64 C69 1.364 . S
C65 H44 0.952 . S
C65 C64 1.372 . S
C65 C66 1.389 . S
C66 H45 0.949 . S
C66 C65 1.389 . S
C66 C67 1.387 . S
C67 C66 1.387 . S
C67 C68 1.372 . S
C68 H46 0.950 . S
C68 C67 1.372 . S
C68 C69 1.379 . S
C69 H47 0.948 . S
C69 C64 1.364 . S
C69 C68 1.379 . S
C70 C39 1.383 . S
C70 C57 1.479 . S
C70 C71 1.398 . S
C71 C36 1.382 . S
C71 H48 0.951 . S
C71 C70 1.398 . S
C72 C73 1.384 . S
C72 H85 0.947 . S
C72 C107 1.382 . S
C73 C72 1.384 . S
C73 C74 1.378 . S
C74 C73 1.378 . S
C74 C75 1.378 . S
C74 H86 0.952 . S
C75 C74 1.378 . S
C75 H87 0.950 . S
C75 C106 1.383 . S
H76 C95 0.947 . S
H77 C96 0.946 . S
H78 C98 0.953 . S
H79 C99 0.945 . S
H80 C101 0.952 . S
H81 C102 0.949 . S
H82 C104 0.950 . S
H83 C105 0.948 . S
H84 C107 0.951 . S
H85 C72 0.947 . S
H86 C74 0.952 . S
H87 C75 0.950 . S
N88 C91 1.382 1_556 S
N88 C93 1.363 . S
N89 C91 1.371 . S
N89 C92 1.372 . S
N90 C92 1.361 . S
N90 C93 1.377 1_554 S
C91 N88 1.382 1_554 S
C91 N89 1.371 . S
C91 C94 1.480 . S
C92 N89 1.372 . S
C92 N90 1.361 . S
C92 C100 1.457 . S
C93 N88 1.363 . S
C93 N90 1.377 1_556 S
C93 C106 1.479 . S
C94 C91 1.480 . S
C94 C95 1.383 1_554 S
C94 C99 1.385 . S
C95 H76 0.947 . S
C95 C94 1.383 1_556 S
C95 C96 1.388 . S
C96 H77 0.946 . S
C96 C95 1.388 . S
C96 C97 1.384 1_556 S
C97 C96 1.384 1_554 S
C97 C98 1.377 . S
C98 H78 0.953 . S
C98 C97 1.377 . S
C98 C99 1.369 . S
C99 H79 0.945 . S
C99 C94 1.385 . S
C99 C98 1.369 . S
C100 C92 1.457 . S
C100 C101 1.372 . S
C100 C105 1.364 . S
C101 H80 0.952 . S
C101 C100 1.372 . S
C101 C102 1.389 . S
C102 H81 0.949 . S
C102 C101 1.389 . S
C102 C103 1.387 . S
C103 C102 1.387 . S
C103 C104 1.372 . S
C104 H82 0.950 . S
C104 C103 1.372 . S
C104 C105 1.379 . S
C105 H83 0.948 . S
C105 C100 1.364 . S
C105 C104 1.379 . S
C106 C75 1.383 . S
C106 C93 1.479 . S
C106 C107 1.398 . S
C107 C72 1.382 . S
C107 H84 0.951 . S
C107 C106 1.398 . S
C108 C109 1.384 . S
C108 H121 0.947 . S
C108 C143 1.382 . S
C109 C108 1.384 . S
C109 C110 1.378 . S
C110 C109 1.378 . S
C110 C111 1.378 . S
C110 H122 0.952 . S
C111 C110 1.378 . S
C111 H123 0.950 . S
C111 C142 1.383 . S
H112 C131 0.947 . S
H113 C132 0.946 . S
H114 C134 0.953 . S
H115 C135 0.945 . S
H116 C137 0.952 . S
H117 C138 0.949 . S
H118 C140 0.950 . S
H119 C141 0.948 . S
H120 C143 0.951 . S
H121 C108 0.947 . S
H122 C110 0.952 . S
H123 C111 0.950 . S
N124 C127 1.382 . S
N124 C129 1.363 . S
N125 C127 1.371 . S
N125 C128 1.372 . S
N126 C128 1.361 . S
N126 C129 1.377 . S
C127 N124 1.382 . S
C127 N125 1.371 . S
C127 C130 1.480 . S
C128 N125 1.372 . S
C128 N126 1.361 . S
C128 C136 1.457 . S
C129 N124 1.363 . S
C129 N126 1.377 . S
C129 C142 1.479 . S
C130 C127 1.480 . S
C130 C131 1.383 . S
C130 C135 1.385 . S
C131 H112 0.947 . S
C131 C130 1.383 . S
C131 C132 1.388 . S
C132 H113 0.946 . S
C132 C131 1.388 . S
C132 C133 1.384 . S
C133 C132 1.384 . S
C133 C134 1.377 . S
C134 H114 0.953 . S
C134 C133 1.377 . S
C134 C135 1.369 . S
C135 H115 0.945 . S
C135 C130 1.385 . S
C135 C134 1.369 . S
C136 C128 1.457 . S
C136 C137 1.372 . S
C136 C141 1.364 . S
C137 H116 0.952 . S
C137 C136 1.372 . S
C137 C138 1.389 . S
C138 H117 0.949 . S
C138 C137 1.389 . S
C138 C139 1.387 . S
C139 C138 1.387 . S
C139 C140 1.372 . S
C140 H118 0.950 . S
C140 C139 1.372 . S
C140 C141 1.379 . S
C141 H119 0.948 . S
C141 C136 1.364 . S
C141 C140 1.379 . S
C142 C111 1.383 . S
C142 C129 1.479 . S
C142 C143 1.398 . S
C143 C108 1.382 . S
C143 H120 0.951 . S
C143 C142 1.398 . S
O144 Zn145 1.953 1_565 S
O144 C160 1.225 . S
Zn145 O144 1.953 1_545 S
Zn145 O146 1.949 1_655 S
Zn145 O152 1.919 . S
Zn145 O157 1.924 . S
O146 Zn145 1.949 1_455 S
O146 Zn147 1.923 . S
O146 Zn148 1.950 1_445 S
O146 Zn149 1.945 . S
Zn147 O146 1.923 . S
Zn147 O150 1.933 . S
Zn147 O153 1.941 . S
Zn147 O154 1.965 1_545 S
Zn148 O146 1.950 1_665 S
Zn148 O155 1.938 1_655 S
Zn148 O156 1.906 1_655 S
Zn148 O166 1.953 . S
Zn149 O146 1.945 . S
Zn149 O151 1.932 . S
Zn149 O158 1.977 1_545 S
Zn149 O159 1.910 1_455 S
O150 Zn147 1.933 . S
O150 C161 1.226 . S
O151 Zn149 1.932 . S
O151 C161 1.307 . S
O152 Zn145 1.919 . S
O152 C163 1.253 . S
O153 Zn147 1.941 . S
O153 C163 1.283 1_455 S
O154 Zn147 1.965 1_565 S
O154 C162 1.303 . S
O155 Zn148 1.938 1_455 S
O155 C162 1.247 . S
O156 Zn148 1.906 1_455 S
O156 C164 1.304 . S
O157 Zn145 1.924 . S
O157 C165 1.311 . S
O158 Zn149 1.977 1_565 S
O158 C164 1.272 . S
O159 Zn149 1.910 1_655 S
O159 C165 1.231 . S
C160 O144 1.225 . S
C160 O166 1.298 . S
C161 O150 1.226 . S
C161 O151 1.307 . S
C162 O154 1.303 . S
C162 O155 1.247 . S
C163 O152 1.253 . S
C163 O153 1.283 1_655 S
C164 O156 1.304 . S
C164 O158 1.272 . S
C165 O157 1.311 . S
C165 O159 1.231 . S
O166 Zn148 1.953 . S
O166 C160 1.298 . S
O167 Zn168 1.955 . S
O167 C183 1.225 1_556 S
Zn168 O167 1.955 . S
Zn168 O169 1.945 1_556 S
Zn168 O175 1.934 . S
Zn168 O180 1.909 1_556 S
O169 Zn168 1.945 1_554 S
O169 Zn170 1.923 1_554 S
O169 Zn171 1.950 . S
O169 Zn172 1.945 . S
Zn170 O169 1.923 1_556 S
Zn170 O173 1.933 . S
Zn170 O176 1.941 . S
Zn170 O177 1.965 . S
Zn171 O169 1.950 . S
Zn171 O178 1.938 1_554 S
Zn171 O179 1.906 . S
Zn171 O189 1.953 . S
Zn172 O169 1.945 . S
Zn172 O174 1.932 . S
Zn172 O181 1.977 . S
Zn172 O182 1.910 . S
O173 Zn170 1.933 . S
O173 C184 1.226 1_556 S
O174 Zn172 1.932 . S
O174 C184 1.307 . S
O175 Zn168 1.934 . S
O175 C186 1.253 . S
O176 Zn170 1.941 . S
O176 C186 1.283 . S
O177 Zn170 1.965 . S
O177 C185 1.303 . S
O178 Zn171 1.938 1_556 S
O178 C185 1.247 . S
O179 Zn171 1.906 . S
O179 C187 1.304 . S
O180 Zn168 1.909 1_554 S
O180 C188 1.311 . S
O181 Zn172 1.977 . S
O181 C187 1.272 . S
O182 Zn172 1.910 . S
O182 C188 1.231 . S
C183 O167 1.225 1_554 S
C183 O189 1.298 . S
C184 O173 1.226 1_554 S
C184 O174 1.307 . S
C185 O177 1.303 . S
C185 O178 1.247 . S
C186 O175 1.253 . S
C186 O176 1.283 . S
C187 O179 1.304 . S
C187 O181 1.272 . S
C188 O180 1.311 . S
C188 O182 1.231 . S
O189 Zn171 1.953 . S
O189 C183 1.298 . S
H190 C208 0.951 . S
H191 C210 0.951 . S
H192 C212 0.950 . S
H193 C213 0.950 . S
H194 C215 0.950 . S
H195 C218 0.950 . S
H196 C219 0.950 . S
H197 C221 0.950 . S
H198 C222 0.950 . S
H199 C223 0.951 . S
H200 C225 0.951 . S
H201 C227 0.950 . S
H202 C228 0.950 . S
H203 C230 0.950 . S
H204 C233 0.950 . S
H205 C234 0.950 . S
H206 C236 0.950 . S
H207 C237 0.950 . S
C208 H190 0.951 . S
C208 C209 1.366 . S
C208 C210 1.388 . S
C209 C208 1.366 . S
C209 C213 1.385 . S
C210 H191 0.951 . S
C210 C208 1.388 . S
C210 C211 1.366 . S
C211 C210 1.366 . S
C211 C212 1.414 . S
C211 C214 1.499 . S
C212 H192 0.950 . S
C212 C211 1.414 . S
C212 C213 1.374 . S
C213 H193 0.950 . S
C213 C209 1.385 . S
C213 C212 1.374 . S
C214 C211 1.499 . S
C214 C215 1.373 . S
C214 C216 1.389 . S
C215 H194 0.950 . S
C215 C214 1.373 . S
C215 C231 1.377 . S
C216 C214 1.389 . S
C216 C217 1.524 . S
C216 C230 1.377 . S
C217 C216 1.524 . S
C217 C218 1.397 . S
C217 C222 1.363 . S
C218 H195 0.950 . S
C218 C217 1.397 . S
C218 C219 1.334 . S
C219 H196 0.950 . S
C219 C218 1.334 . S
C219 C220 1.287 . S
C220 C219 1.287 . S
C220 C221 1.524 . S
C220 H239 0.913 . S
C221 H197 0.950 . S
C221 C220 1.524 . S
C221 C222 1.415 . S
C222 H198 0.950 . S
C222 C217 1.363 . S
C222 C221 1.415 . S
C223 H199 0.951 . S
C223 C224 1.366 . S
C223 C225 1.388 . S
C224 C223 1.366 . S
C224 C228 1.385 . S
C225 H200 0.951 . S
C225 C223 1.388 . S
C225 C226 1.366 . S
C226 C225 1.366 . S
C226 C227 1.414 . S
C226 C229 1.499 . S
C227 H201 0.950 . S
C227 C226 1.414 . S
C227 C228 1.374 . S
C228 H202 0.950 . S
C228 C224 1.385 . S
C228 C227 1.374 . S
C229 C226 1.499 . S
C229 C230 1.373 . S
C229 C231 1.389 . S
C230 H203 0.950 . S
C230 C216 1.377 . S
C230 C229 1.373 . S
C231 C215 1.377 . S
C231 C229 1.389 . S
C231 C232 1.524 . S
C232 C231 1.524 . S
C232 C233 1.397 . S
C232 C237 1.363 . S
C233 H204 0.950 . S
C233 C232 1.397 . S
C233 C234 1.334 . S
C234 H205 0.950 . S
C234 C233 1.334 . S
C234 C235 1.287 . S
C235 C234 1.287 . S
C235 C236 1.524 . S
C235 H238 0.999 . S
C236 H206 0.950 . S
C236 C235 1.524 . S
C236 C237 1.415 . S
C237 H207 0.950 . S
C237 C232 1.363 . S
C237 C236 1.415 . S
H238 C235 0.999 . S
H239 C220 0.913 . S
H240 C258 0.951 . S
H241 C260 0.951 . S
H242 C262 0.950 . S
H243 C263 0.950 . S
H244 C265 0.950 . S
H245 C268 0.950 . S
H246 C269 0.950 . S
H247 C271 0.950 . S
H248 C272 0.950 1_554 S
H249 C273 0.951 . S
H250 C275 0.951 . S
H251 C277 0.950 . S
H252 C278 0.950 . S
H253 C280 0.950 . S
H254 C283 0.950 . S
H255 C284 0.950 . S
H256 C286 0.950 . S
H257 C287 0.950 . S
C258 H240 0.951 . S
C258 C259 1.366 . S
C258 C260 1.388 . S
C259 C258 1.366 . S
C259 C263 1.385 1_554 S
C260 H241 0.951 . S
C260 C258 1.388 . S
C260 C261 1.366 . S
C261 C260 1.366 . S
C261 C262 1.414 1_554 S
C261 C264 1.499 . S
C262 H242 0.950 . S
C262 C261 1.414 1_556 S
C262 C263 1.374 . S
C263 H243 0.950 . S
C263 C259 1.385 1_556 S
C263 C262 1.374 . S
C264 C261 1.499 . S
C264 C265 1.373 . S
C264 C266 1.389 1_554 S
C265 H244 0.950 . S
C265 C264 1.373 . S
C265 C281 1.377 . S
C266 C264 1.389 1_556 S
C266 C267 1.524 . S
C266 C280 1.377 . S
C267 C266 1.524 . S
C267 C268 1.397 . S
C267 C272 1.363 . S
C268 H245 0.950 . S
C268 C267 1.397 . S
C268 C269 1.334 . S
C269 H246 0.950 . S
C269 C268 1.334 . S
C269 C270 1.287 . S
C270 C269 1.287 . S
C270 C271 1.524 . S
C270 H289 0.913 . S
C271 H247 0.950 . S
C271 C270 1.524 . S
C271 C272 1.415 . S
C272 H248 0.950 1_556 S
C272 C267 1.363 . S
C272 C271 1.415 . S
C273 H249 0.951 . S
C273 C274 1.366 1_556 S
C273 C275 1.388 . S
C274 C273 1.366 1_554 S
C274 C278 1.385 . S
C275 H250 0.951 . S
C275 C273 1.388 . S
C275 C276 1.366 1_556 S
C276 C275 1.366 1_554 S
C276 C277 1.414 . S
C276 C279 1.499 . S
C277 H251 0.950 . S
C277 C276 1.414 . S
C277 C278 1.374 . S
C278 H252 0.950 . S
C278 C274 1.385 . S
C278 C277 1.374 . S
C279 C276 1.499 . S
C279 C280 1.373 1_554 S
C279 C281 1.389 . S
C280 H253 0.950 . S
C280 C266 1.377 . S
C280 C279 1.373 1_556 S
C281 C265 1.377 . S
C281 C279 1.389 . S
C281 C282 1.524 . S
C282 C281 1.524 . S
C282 C283 1.397 . S
C282 C287 1.363 . S
C283 H254 0.950 . S
C283 C282 1.397 . S
C283 C284 1.334 . S
C284 H255 0.950 . S
C284 C283 1.334 . S
C284 C285 1.287 . S
C285 C284 1.287 . S
C285 C286 1.524 . S
C285 H288 0.999 . S
C286 H256 0.950 . S
C286 C285 1.524 . S
C286 C287 1.415 . S
C287 H257 0.950 . S
C287 C282 1.363 . S
C287 C286 1.415 . S
H288 C285 0.999 . S
H289 C270 0.913 . S
H290 C308 0.951 . S
H291 C310 0.951 . S
H292 C312 0.950 . S
H293 C313 0.950 . S
H294 C315 0.950 . S
H295 C318 0.950 . S
H296 C319 0.950 . S
H297 C321 0.950 . S
H298 C322 0.950 . S
H299 C323 0.951 . S
H300 C325 0.951 . S
H301 C327 0.950 . S
H302 C328 0.950 . S
H303 C330 0.950 . S
H304 C333 0.950 . S
H305 C334 0.950 . S
H306 C336 0.950 . S
H307 C337 0.950 . S
C308 H290 0.951 . S
C308 C309 1.366 . S
C308 C310 1.388 . S
C309 C308 1.366 . S
C309 C313 1.385 . S
C310 H291 0.951 . S
C310 C308 1.388 . S
C310 C311 1.366 . S
C311 C310 1.366 . S
C311 C312 1.414 . S
C311 C314 1.499 . S
C312 H292 0.950 . S
C312 C311 1.414 . S
C312 C313 1.374 . S
C313 H293 0.950 . S
C313 C309 1.385 . S
C313 C312 1.374 . S
C314 C311 1.499 . S
C314 C315 1.373 . S
C314 C316 1.389 . S
C315 H294 0.950 . S
C315 C314 1.373 . S
C315 C331 1.377 . S
C316 C314 1.389 . S
C316 C317 1.524 . S
C316 C330 1.377 . S
C317 C316 1.524 . S
C317 C318 1.397 . S
C317 C322 1.363 . S
C318 H295 0.950 . S
C318 C317 1.397 . S
C318 C319 1.334 . S
C319 H296 0.950 . S
C319 C318 1.334 . S
C319 C320 1.287 . S
C320 C319 1.287 . S
C320 C321 1.524 . S
C320 H339 0.913 . S
C321 H297 0.950 . S
C321 C320 1.524 . S
C321 C322 1.415 . S
C322 H298 0.950 . S
C322 C317 1.363 . S
C322 C321 1.415 . S
C323 H299 0.951 . S
C323 C324 1.366 . S
C323 C325 1.388 . S
C324 C323 1.366 . S
C324 C328 1.385 . S
C325 H300 0.951 . S
C325 C323 1.388 . S
C325 C326 1.366 . S
C326 C325 1.366 . S
C326 C327 1.414 . S
C326 C329 1.499 . S
C327 H301 0.950 . S
C327 C326 1.414 . S
C327 C328 1.374 . S
C328 H302 0.950 . S
C328 C324 1.385 . S
C328 C327 1.374 . S
C329 C326 1.499 . S
C329 C330 1.373 . S
C329 C331 1.389 . S
C330 H303 0.950 . S
C330 C316 1.377 . S
C330 C329 1.373 . S
C331 C315 1.377 . S
C331 C329 1.389 . S
C331 C332 1.524 . S
C332 C331 1.524 . S
C332 C333 1.397 . S
C332 C337 1.363 . S
C333 H304 0.950 . S
C333 C332 1.397 . S
C333 C334 1.334 . S
C334 H305 0.950 . S
C334 C333 1.334 . S
C334 C335 1.287 . S
C335 C334 1.287 . S
C335 C336 1.524 . S
C335 H338 0.999 . S
C336 H306 0.950 . S
C336 C335 1.524 . S
C336 C337 1.415 . S
C337 H307 0.950 . S
C337 C332 1.363 . S
C337 C336 1.415 . S
H338 C335 0.999 . S
H339 C320 0.913 . S
H340 C358 0.951 . S
H341 C360 0.951 . S
H342 C362 0.950 . S
H343 C363 0.950 . S
H344 C365 0.950 . S
H345 C368 0.950 . S
H346 C369 0.950 . S
H347 C371 0.950 . S
H348 C372 0.950 . S
H349 C373 0.951 . S
H350 C375 0.951 . S
H351 C377 0.950 . S
H352 C378 0.950 . S
H353 C380 0.950 . S
H354 C383 0.950 . S
H355 C384 0.950 . S
H356 C386 0.950 . S
H357 C387 0.950 . S
C358 H340 0.951 . S
C358 C359 1.366 . S
C358 C360 1.388 . S
C359 C358 1.366 . S
C359 C363 1.385 1_554 S
C360 H341 0.951 . S
C360 C358 1.388 . S
C360 C361 1.366 . S
C361 C360 1.366 . S
C361 C362 1.414 1_554 S
C361 C364 1.499 . S
C362 H342 0.950 . S
C362 C361 1.414 1_556 S
C362 C363 1.374 . S
C363 H343 0.950 . S
C363 C359 1.385 1_556 S
C363 C362 1.374 . S
C364 C361 1.499 . S
C364 C365 1.373 1_554 S
C364 C366 1.389 . S
C365 H344 0.950 . S
C365 C364 1.373 1_556 S
C365 C381 1.377 . S
C366 C364 1.389 . S
C366 C367 1.524 . S
C366 C380 1.377 . S
C367 C366 1.524 . S
C367 C368 1.397 . S
C367 C372 1.363 . S
C368 H345 0.950 . S
C368 C367 1.397 . S
C368 C369 1.334 . S
C369 H346 0.950 . S
C369 C368 1.334 . S
C369 C370 1.287 . S
C370 C369 1.287 . S
C370 C371 1.524 . S
C370 H389 0.913 . S
C371 H347 0.950 . S
C371 C370 1.524 . S
C371 C372 1.415 . S
C372 H348 0.950 . S
C372 C367 1.363 . S
C372 C371 1.415 . S
C373 H349 0.951 . S
C373 C374 1.366 1_556 S
C373 C375 1.388 . S
C374 C373 1.366 1_554 S
C374 C378 1.385 . S
C375 H350 0.951 . S
C375 C373 1.388 . S
C375 C376 1.366 1_556 S
C376 C375 1.366 1_554 S
C376 C377 1.414 . S
C376 C379 1.499 . S
C377 H351 0.950 . S
C377 C376 1.414 . S
C377 C378 1.374 . S
C378 H352 0.950 . S
C378 C374 1.385 . S
C378 C377 1.374 . S
C379 C376 1.499 . S
C379 C380 1.373 . S
C379 C381 1.389 1_554 S
C380 H353 0.950 . S
C380 C366 1.377 . S
C380 C379 1.373 . S
C381 C365 1.377 . S
C381 C379 1.389 1_556 S
C381 C382 1.524 . S
C382 C381 1.524 . S
C382 C383 1.397 . S
C382 C387 1.363 . S
C383 H354 0.950 . S
C383 C382 1.397 . S
C383 C384 1.334 . S
C384 H355 0.950 . S
C384 C383 1.334 . S
C384 C385 1.287 . S
C385 C384 1.287 . S
C385 C386 1.524 . S
C385 H388 0.999 . S
C386 H356 0.950 . S
C386 C385 1.524 . S
C386 C387 1.415 . S
C387 H357 0.950 . S
C387 C382 1.363 . S
C387 C386 1.415 . S
H388 C385 0.999 . S
H389 C370 0.913 . S
H390 C408 0.951 . S
H391 C410 0.951 . S
H392 C412 0.950 . S
H393 C413 0.950 . S
H394 C415 0.950 . S
H395 C418 0.950 . S
H396 C419 0.950 . S
H397 C421 0.950 . S
H398 C422 0.950 . S
H399 C423 0.951 . S
H400 C425 0.951 . S
H401 C427 0.950 . S
H402 C428 0.950 . S
H403 C430 0.950 . S
H404 C433 0.950 . S
H405 C434 0.950 . S
H406 C436 0.950 . S
H407 C437 0.950 . S
C408 H390 0.951 . S
C408 C409 1.366 . S
C408 C410 1.388 . S
C409 C408 1.366 . S
C409 C413 1.385 . S
C410 H391 0.951 . S
C410 C408 1.388 . S
C410 C411 1.366 . S
C411 C410 1.366 . S
C411 C412 1.414 . S
C411 C414 1.499 . S
C412 H392 0.950 . S
C412 C411 1.414 . S
C412 C413 1.374 . S
C413 H393 0.950 . S
C413 C409 1.385 . S
C413 C412 1.374 . S
C414 C411 1.499 . S
C414 C415 1.373 . S
C414 C416 1.389 . S
C415 H394 0.950 . S
C415 C414 1.373 . S
C415 C431 1.377 . S
C416 C414 1.389 . S
C416 C417 1.524 . S
C416 C430 1.377 . S
C417 C416 1.524 . S
C417 C418 1.397 . S
C417 C422 1.363 . S
C418 H395 0.950 . S
C418 C417 1.397 . S
C418 C419 1.334 . S
C419 H396 0.950 . S
C419 C418 1.334 . S
C419 C420 1.287 . S
C420 C419 1.287 . S
C420 C421 1.524 . S
C420 H439 0.913 . S
C421 H397 0.950 . S
C421 C420 1.524 . S
C421 C422 1.415 . S
C422 H398 0.950 . S
C422 C417 1.363 . S
C422 C421 1.415 . S
C423 H399 0.951 . S
C423 C424 1.366 . S
C423 C425 1.388 . S
C424 C423 1.366 . S
C424 C428 1.385 . S
C425 H400 0.951 . S
C425 C423 1.388 . S
C425 C426 1.366 . S
C426 C425 1.366 . S
C426 C427 1.414 . S
C426 C429 1.499 . S
C427 H401 0.950 . S
C427 C426 1.414 . S
C427 C428 1.374 . S
C428 H402 0.950 . S
C428 C424 1.385 . S
C428 C427 1.374 . S
C429 C426 1.499 . S
C429 C430 1.373 . S
C429 C431 1.389 . S
C430 H403 0.950 . S
C430 C416 1.377 . S
C430 C429 1.373 . S
C431 C415 1.377 . S
C431 C429 1.389 . S
C431 C432 1.524 . S
C432 C431 1.524 . S
C432 C433 1.397 . S
C432 C437 1.363 . S
C433 H404 0.950 . S
C433 C432 1.397 . S
C433 C434 1.334 . S
C434 H405 0.950 . S
C434 C433 1.334 . S
C434 C435 1.287 . S
C435 C434 1.287 . S
C435 C436 1.524 . S
C435 H438 0.999 . S
C436 H406 0.950 . S
C436 C435 1.524 . S
C436 C437 1.415 . S
C437 H407 0.950 . S
C437 C432 1.363 . S
C437 C436 1.415 . S
H438 C435 0.999 . S
H439 C420 0.913 . S
H440 C458 0.951 . S
H441 C460 0.951 . S
H442 C462 0.950 . S
H443 C463 0.950 . S
H444 C465 0.950 . S
H445 C468 0.950 . S
H446 C469 0.950 . S
H447 C471 0.950 . S
H448 C472 0.950 . S
H449 C473 0.951 . S
H450 C475 0.951 . S
H451 C477 0.950 . S
H452 C478 0.950 . S
H453 C480 0.950 . S
H454 C483 0.950 . S
H455 C484 0.950 . S
H456 C486 0.950 . S
H457 C487 0.950 . S
C458 H440 0.951 . S
C458 C459 1.366 . S
C458 C460 1.388 . S
C459 C458 1.366 . S
C459 C463 1.385 . S
C460 H441 0.951 . S
C460 C458 1.388 . S
C460 C461 1.366 . S
C461 C460 1.366 . S
C461 C462 1.414 . S
C461 C464 1.499 . S
C462 H442 0.950 . S
C462 C461 1.414 . S
C462 C463 1.374 . S
C463 H443 0.950 . S
C463 C459 1.385 . S
C463 C462 1.374 . S
C464 C461 1.499 . S
C464 C465 1.373 . S
C464 C466 1.389 . S
C465 H444 0.950 . S
C465 C464 1.373 . S
C465 C481 1.377 . S
C466 C464 1.389 . S
C466 C467 1.524 . S
C466 C480 1.377 . S
C467 C466 1.524 . S
C467 C468 1.397 . S
C467 C472 1.363 . S
C468 H445 0.950 . S
C468 C467 1.397 . S
C468 C469 1.334 . S
C469 H446 0.950 . S
C469 C468 1.334 . S
C469 C470 1.287 . S
C470 C469 1.287 . S
C470 C471 1.524 . S
C470 H489 0.913 . S
C471 H447 0.950 . S
C471 C470 1.524 . S
C471 C472 1.415 . S
C472 H448 0.950 . S
C472 C467 1.363 . S
C472 C471 1.415 . S
C473 H449 0.951 . S
C473 C474 1.366 . S
C473 C475 1.388 . S
C474 C473 1.366 . S
C474 C478 1.385 . S
C475 H450 0.951 . S
C475 C473 1.388 . S
C475 C476 1.366 . S
C476 C475 1.366 . S
C476 C477 1.414 . S
C476 C479 1.499 . S
C477 H451 0.950 . S
C477 C476 1.414 . S
C477 C478 1.374 . S
C478 H452 0.950 . S
C478 C474 1.385 . S
C478 C477 1.374 . S
C479 C476 1.499 . S
C479 C480 1.373 . S
C479 C481 1.389 . S
C480 H453 0.950 . S
C480 C466 1.377 . S
C480 C479 1.373 . S
C481 C465 1.377 . S
C481 C479 1.389 . S
C481 C482 1.524 . S
C482 C481 1.524 . S
C482 C483 1.397 . S
C482 C487 1.363 . S
C483 H454 0.950 . S
C483 C482 1.397 . S
C483 C484 1.334 . S
C484 H455 0.950 . S
C484 C483 1.334 . S
C484 C485 1.287 . S
C485 C484 1.287 . S
C485 C486 1.524 . S
C485 H488 0.999 . S
C486 H456 0.950 . S
C486 C485 1.524 . S
C486 C487 1.415 . S
C487 H457 0.950 . S
C487 C482 1.363 . S
C487 C486 1.415 . S
H488 C485 0.999 . S
H489 C470 0.913 . S
H490 C508 0.951 . S
H491 C510 0.951 . S
H492 C512 0.950 . S
H493 C513 0.950 . S
H494 C515 0.950 . S
H495 C518 0.950 . S
H496 C519 0.950 . S
H497 C521 0.950 . S
H498 C522 0.950 . S
H499 C523 0.951 . S
H500 C525 0.951 . S
H501 C527 0.950 . S
H502 C528 0.950 . S
H503 C530 0.950 . S
H504 C533 0.950 1_655 S
H505 C534 0.950 . S
H506 C536 0.950 . S
H507 C537 0.950 . S
C508 H490 0.951 . S
C508 C509 1.366 . S
C508 C510 1.388 . S
C509 C508 1.366 . S
C509 C513 1.385 . S
C510 H491 0.951 . S
C510 C508 1.388 . S
C510 C511 1.366 . S
C511 C510 1.366 . S
C511 C512 1.414 . S
C511 C514 1.499 . S
C512 H492 0.950 . S
C512 C511 1.414 . S
C512 C513 1.374 . S
C513 H493 0.950 . S
C513 C509 1.385 . S
C513 C512 1.374 . S
C514 C511 1.499 . S
C514 C515 1.373 . S
C514 C516 1.389 . S
C515 H494 0.950 . S
C515 C514 1.373 . S
C515 C531 1.377 . S
C516 C514 1.389 . S
C516 C517 1.524 . S
C516 C530 1.377 . S
C517 C516 1.524 . S
C517 C518 1.397 . S
C517 C522 1.363 . S
C518 H495 0.950 . S
C518 C517 1.397 . S
C518 C519 1.334 . S
C519 H496 0.950 . S
C519 C518 1.334 . S
C519 C520 1.287 . S
C520 C519 1.287 . S
C520 C521 1.524 . S
C520 H539 0.913 . S
C521 H497 0.950 . S
C521 C520 1.524 . S
C521 C522 1.415 . S
C522 H498 0.950 . S
C522 C517 1.363 . S
C522 C521 1.415 . S
C523 H499 0.951 . S
C523 C524 1.366 . S
C523 C525 1.388 . S
C524 C523 1.366 . S
C524 C528 1.385 . S
C525 H500 0.951 . S
C525 C523 1.388 . S
C525 C526 1.366 . S
C526 C525 1.366 . S
C526 C527 1.414 . S
C526 C529 1.499 . S
C527 H501 0.950 . S
C527 C526 1.414 . S
C527 C528 1.374 . S
C528 H502 0.950 . S
C528 C524 1.385 . S
C528 C527 1.374 . S
C529 C526 1.499 . S
C529 C530 1.373 . S
C529 C531 1.389 . S
C530 H503 0.950 . S
C530 C516 1.377 . S
C530 C529 1.373 . S
C531 C515 1.377 . S
C531 C529 1.389 . S
C531 C532 1.524 . S
C532 C531 1.524 . S
C532 C533 1.397 1_655 S
C532 C537 1.363 1_655 S
C533 H504 0.950 1_455 S
C533 C532 1.397 1_455 S
C533 C534 1.334 . S
C534 H505 0.950 . S
C534 C533 1.334 . S
C534 C535 1.287 . S
C535 C534 1.287 . S
C535 C536 1.524 . S
C535 H538 0.999 . S
C536 H506 0.950 . S
C536 C535 1.524 . S
C536 C537 1.415 . S
C537 H507 0.950 . S
C537 C532 1.363 1_455 S
C537 C536 1.415 . S
H538 C535 0.999 . S
H539 C520 0.913 . S
H540 C558 0.951 . S
H541 C560 0.951 . S
H542 C562 0.950 . S
H543 C563 0.950 . S
H544 C565 0.950 . S
H545 C568 0.950 . S
H546 C569 0.950 . S
H547 C571 0.950 . S
H548 C572 0.950 . S
H549 C573 0.951 . S
H550 C575 0.951 . S
H551 C577 0.950 . S
H552 C578 0.950 . S
H553 C580 0.950 . S
H554 C583 0.950 . S
H555 C584 0.950 . S
H556 C586 0.950 . S
H557 C587 0.950 . S
C558 H540 0.951 . S
C558 C559 1.366 . S
C558 C560 1.388 . S
C559 C558 1.366 . S
C559 C563 1.385 . S
C560 H541 0.951 . S
C560 C558 1.388 . S
C560 C561 1.366 . S
C561 C560 1.366 . S
C561 C562 1.414 . S
C561 C564 1.499 . S
C562 H542 0.950 . S
C562 C561 1.414 . S
C562 C563 1.374 . S
C563 H543 0.950 . S
C563 C559 1.385 . S
C563 C562 1.374 . S
C564 C561 1.499 . S
C564 C565 1.373 . S
C564 C566 1.389 . S
C565 H544 0.950 . S
C565 C564 1.373 . S
C565 C581 1.377 . S
C566 C564 1.389 . S
C566 C567 1.524 . S
C566 C580 1.377 . S
C567 C566 1.524 . S
C567 C568 1.397 . S
C567 C572 1.363 . S
C568 H545 0.950 . S
C568 C567 1.397 . S
C568 C569 1.334 . S
C569 H546 0.950 . S
C569 C568 1.334 . S
C569 C570 1.287 . S
C570 C569 1.287 . S
C570 C571 1.524 . S
C570 H589 0.913 . S
C571 H547 0.950 . S
C571 C570 1.524 . S
C571 C572 1.415 . S
C572 H548 0.950 . S
C572 C567 1.363 . S
C572 C571 1.415 . S
C573 H549 0.951 . S
C573 C574 1.366 . S
C573 C575 1.388 . S
C574 C573 1.366 . S
C574 C578 1.385 . S
C575 H550 0.951 . S
C575 C573 1.388 . S
C575 C576 1.366 . S
C576 C575 1.366 . S
C576 C577 1.414 . S
C576 C579 1.499 . S
C577 H551 0.950 . S
C577 C576 1.414 . S
C577 C578 1.374 . S
C578 H552 0.950 . S
C578 C574 1.385 . S
C578 C577 1.374 . S
C579 C576 1.499 . S
C579 C580 1.373 . S
C579 C581 1.389 . S
C580 H553 0.950 . S
C580 C566 1.377 . S
C580 C579 1.373 . S
C581 C565 1.377 . S
C581 C579 1.389 . S
C581 C582 1.524 . S
C582 C581 1.524 . S
C582 C583 1.397 . S
C582 C587 1.363 . S
C583 H554 0.950 . S
C583 C582 1.397 . S
C583 C584 1.334 . S
C584 H555 0.950 . S
C584 C583 1.334 . S
C584 C585 1.287 . S
C585 C584 1.287 . S
C585 C586 1.524 . S
C585 H588 0.999 . S
C586 H556 0.950 . S
C586 C585 1.524 . S
C586 C587 1.415 . S
C587 H557 0.950 . S
C587 C582 1.363 . S
C587 C586 1.415 . S
H588 C585 0.999 . S
H589 C570 0.913 . S
H590 C608 0.951 . S
H591 C610 0.951 . S
H592 C612 0.950 . S
H593 C613 0.950 . S
H594 C615 0.950 . S
H595 C618 0.950 . S
H596 C619 0.950 . S
H597 C621 0.950 . S
H598 C622 0.950 . S
H599 C623 0.951 . S
H600 C625 0.951 . S
H601 C627 0.950 . S
H602 C628 0.950 . S
H603 C630 0.950 . S
H604 C633 0.950 . S
H605 C634 0.950 . S
H606 C636 0.950 . S
H607 C637 0.950 . S
C608 H590 0.951 . S
C608 C609 1.366 . S
C608 C610 1.388 . S
C609 C608 1.366 . S
C609 C613 1.385 . S
C610 H591 0.951 . S
C610 C608 1.388 . S
C610 C611 1.366 . S
C611 C610 1.366 . S
C611 C612 1.414 . S
C611 C614 1.499 . S
C612 H592 0.950 . S
C612 C611 1.414 . S
C612 C613 1.374 . S
C613 H593 0.950 . S
C613 C609 1.385 . S
C613 C612 1.374 . S
C614 C611 1.499 . S
C614 C615 1.373 . S
C614 C616 1.389 . S
C615 H594 0.950 . S
C615 C614 1.373 . S
C615 C631 1.377 . S
C616 C614 1.389 . S
C616 C617 1.524 . S
C616 C630 1.377 . S
C617 C616 1.524 . S
C617 C618 1.397 . S
C617 C622 1.363 . S
C618 H595 0.950 . S
C618 C617 1.397 . S
C618 C619 1.334 . S
C619 H596 0.950 . S
C619 C618 1.334 . S
C619 C620 1.287 . S
C620 C619 1.287 . S
C620 C621 1.524 . S
C620 H639 0.913 . S
C621 H597 0.950 . S
C621 C620 1.524 . S
C621 C622 1.415 . S
C622 H598 0.950 . S
C622 C617 1.363 . S
C622 C621 1.415 . S
C623 H599 0.951 . S
C623 C624 1.366 . S
C623 C625 1.388 . S
C624 C623 1.366 . S
C624 C628 1.385 . S
C625 H600 0.951 . S
C625 C623 1.388 . S
C625 C626 1.366 . S
C626 C625 1.366 . S
C626 C627 1.414 . S
C626 C629 1.499 . S
C627 H601 0.950 . S
C627 C626 1.414 . S
C627 C628 1.374 . S
C628 H602 0.950 . S
C628 C624 1.385 . S
C628 C627 1.374 . S
C629 C626 1.499 . S
C629 C630 1.373 . S
C629 C631 1.389 . S
C630 H603 0.950 . S
C630 C616 1.377 . S
C630 C629 1.373 . S
C631 C615 1.377 . S
C631 C629 1.389 . S
C631 C632 1.524 . S
C632 C631 1.524 . S
C632 C633 1.397 . S
C632 C637 1.363 . S
C633 H604 0.950 . S
C633 C632 1.397 . S
C633 C634 1.334 . S
C634 H605 0.950 . S
C634 C633 1.334 . S
C634 C635 1.287 . S
C635 C634 1.287 . S
C635 C636 1.524 . S
C635 H638 0.999 . S
C636 H606 0.950 . S
C636 C635 1.524 . S
C636 C637 1.415 . S
C637 H607 0.950 . S
C637 C632 1.363 . S
C637 C636 1.415 . S
H638 C635 0.999 . S
H639 C620 0.913 . S
H640 C658 0.951 . S
H641 C660 0.951 . S
H642 C662 0.950 . S
H643 C663 0.950 . S
H644 C665 0.950 . S
H645 C668 0.950 1_655 S
H646 C669 0.950 . S
H647 C671 0.950 . S
H648 C672 0.950 . S
H649 C673 0.951 . S
H650 C675 0.951 . S
H651 C677 0.950 . S
H652 C678 0.950 . S
H653 C680 0.950 . S
H654 C683 0.950 . S
H655 C684 0.950 . S
H656 C686 0.950 . S
H657 C687 0.950 . S
C658 H640 0.951 . S
C658 C659 1.366 . S
C658 C660 1.388 . S
C659 C658 1.366 . S
C659 C663 1.385 . S
C660 H641 0.951 . S
C660 C658 1.388 . S
C660 C661 1.366 . S
C661 C660 1.366 . S
C661 C662 1.414 . S
C661 C664 1.499 . S
C662 H642 0.950 . S
C662 C661 1.414 . S
C662 C663 1.374 . S
C663 H643 0.950 . S
C663 C659 1.385 . S
C663 C662 1.374 . S
C664 C661 1.499 . S
C664 C665 1.373 . S
C664 C666 1.389 . S
C665 H644 0.950 . S
C665 C664 1.373 . S
C665 C681 1.377 . S
C666 C664 1.389 . S
C666 C667 1.524 . S
C666 C680 1.377 . S
C667 C666 1.524 . S
C667 C668 1.397 1_655 S
C667 C672 1.363 . S
C668 H645 0.950 1_455 S
C668 C667 1.397 1_455 S
C668 C669 1.334 . S
C669 H646 0.950 . S
C669 C668 1.334 . S
C669 C670 1.287 . S
C670 C669 1.287 . S
C670 C671 1.524 . S
C670 H689 0.913 . S
C671 H647 0.950 . S
C671 C670 1.524 . S
C671 C672 1.415 1_455 S
C672 H648 0.950 . S
C672 C667 1.363 . S
C672 C671 1.415 1_655 S
C673 H649 0.951 . S
C673 C674 1.366 . S
C673 C675 1.388 . S
C674 C673 1.366 . S
C674 C678 1.385 . S
C675 H650 0.951 . S
C675 C673 1.388 . S
C675 C676 1.366 . S
C676 C675 1.366 . S
C676 C677 1.414 . S
C676 C679 1.499 . S
C677 H651 0.950 . S
C677 C676 1.414 . S
C677 C678 1.374 . S
C678 H652 0.950 . S
C678 C674 1.385 . S
C678 C677 1.374 . S
C679 C676 1.499 . S
C679 C680 1.373 . S
C679 C681 1.389 . S
C680 H653 0.950 . S
C680 C666 1.377 . S
C680 C679 1.373 . S
C681 C665 1.377 . S
C681 C679 1.389 . S
C681 C682 1.524 . S
C682 C681 1.524 . S
C682 C683 1.397 . S
C682 C687 1.363 . S
C683 H654 0.950 . S
C683 C682 1.397 . S
C683 C684 1.334 . S
C684 H655 0.950 . S
C684 C683 1.334 . S
C684 C685 1.287 . S
C685 C684 1.287 . S
C685 C686 1.524 . S
C685 H688 0.999 . S
C686 H656 0.950 . S
C686 C685 1.524 . S
C686 C687 1.415 . S
C687 H657 0.950 . S
C687 C682 1.363 . S
C687 C686 1.415 . S
H688 C685 0.999 . S
H689 C670 0.913 . S
H690 C708 0.951 . S
H691 C710 0.951 . S
H692 C712 0.950 . S
H693 C713 0.950 . S
H694 C715 0.950 . S
H695 C718 0.950 . S
H696 C719 0.950 . S
H697 C721 0.950 . S
H698 C722 0.950 . S
H699 C723 0.951 . S
H700 C725 0.951 . S
H701 C727 0.950 . S
H702 C728 0.950 . S
H703 C730 0.950 . S
H704 C733 0.950 . S
H705 C734 0.950 . S
H706 C736 0.950 . S
H707 C737 0.950 . S
C708 H690 0.951 . S
C708 C709 1.366 . S
C708 C710 1.388 . S
C709 C708 1.366 . S
C709 C713 1.385 . S
C710 H691 0.951 . S
C710 C708 1.388 . S
C710 C711 1.366 . S
C711 C710 1.366 . S
C711 C712 1.414 . S
C711 C714 1.499 . S
C712 H692 0.950 . S
C712 C711 1.414 . S
C712 C713 1.374 . S
C713 H693 0.950 . S
C713 C709 1.385 . S
C713 C712 1.374 . S
C714 C711 1.499 . S
C714 C715 1.373 . S
C714 C716 1.389 . S
C715 H694 0.950 . S
C715 C714 1.373 . S
C715 C731 1.377 . S
C716 C714 1.389 . S
C716 C717 1.524 . S
C716 C730 1.377 . S
C717 C716 1.524 . S
C717 C718 1.397 . S
C717 C722 1.363 . S
C718 H695 0.950 . S
C718 C717 1.397 . S
C718 C719 1.334 . S
C719 H696 0.950 . S
C719 C718 1.334 . S
C719 C720 1.287 . S
C720 C719 1.287 . S
C720 C721 1.524 . S
C720 H739 0.913 . S
C721 H697 0.950 . S
C721 C720 1.524 . S
C721 C722 1.415 . S
C722 H698 0.950 . S
C722 C717 1.363 . S
C722 C721 1.415 . S
C723 H699 0.951 . S
C723 C724 1.366 . S
C723 C725 1.388 . S
C724 C723 1.366 . S
C724 C728 1.385 . S
C725 H700 0.951 . S
C725 C723 1.388 . S
C725 C726 1.366 . S
C726 C725 1.366 . S
C726 C727 1.414 . S
C726 C729 1.499 . S
C727 H701 0.950 . S
C727 C726 1.414 . S
C727 C728 1.374 . S
C728 H702 0.950 . S
C728 C724 1.385 . S
C728 C727 1.374 . S
C729 C726 1.499 . S
C729 C730 1.373 . S
C729 C731 1.389 . S
C730 H703 0.950 . S
C730 C716 1.377 . S
C730 C729 1.373 . S
C731 C715 1.377 . S
C731 C729 1.389 . S
C731 C732 1.524 . S
C732 C731 1.524 . S
C732 C733 1.397 . S
C732 C737 1.363 . S
C733 H704 0.950 . S
C733 C732 1.397 . S
C733 C734 1.334 . S
C734 H705 0.950 . S
C734 C733 1.334 . S
C734 C735 1.287 . S
C735 C734 1.287 . S
C735 C736 1.524 . S
C735 H738 0.999 . S
C736 H706 0.950 . S
C736 C735 1.524 . S
C736 C737 1.415 . S
C737 H707 0.950 . S
C737 C732 1.363 . S
C737 C736 1.415 . S
H738 C735 0.999 . S
H739 C720 0.913 . S
H740 C758 0.951 . S
H741 C760 0.951 . S
H742 C762 0.950 . S
H743 C763 0.950 . S
H744 C765 0.950 . S
H745 C768 0.950 . S
H746 C769 0.950 . S
H747 C771 0.950 . S
H748 C772 0.950 . S
H749 C773 0.951 . S
H750 C775 0.951 . S
H751 C777 0.950 . S
H752 C778 0.944 1_655 S
H753 C780 0.950 . S
H754 C783 0.950 . S
H755 C784 0.950 . S
H756 C786 0.950 . S
H757 C787 0.950 . S
C758 H740 0.951 . S
C758 C759 1.366 . S
C758 C760 1.388 . S
C759 C758 1.366 . S
C759 C763 1.385 . S
C760 H741 0.951 . S
C760 C758 1.388 . S
C760 C761 1.366 . S
C761 C760 1.366 . S
C761 C762 1.414 . S
C761 C764 1.499 . S
C762 H742 0.950 . S
C762 C761 1.414 . S
C762 C763 1.374 . S
C763 H743 0.950 . S
C763 C759 1.385 . S
C763 C762 1.374 . S
C764 C761 1.499 . S
C764 C765 1.373 . S
C764 C766 1.389 . S
C765 H744 0.950 . S
C765 C764 1.373 . S
C765 C781 1.377 . S
C766 C764 1.389 . S
C766 C767 1.524 . S
C766 C780 1.377 . S
C767 C766 1.524 . S
C767 C768 1.397 . S
C767 C772 1.363 1_455 S
C768 H745 0.950 . S
C768 C767 1.397 . S
C768 C769 1.334 1_455 S
C769 H746 0.950 . S
C769 C768 1.334 1_655 S
C769 C770 1.287 . S
C770 C769 1.287 . S
C770 C771 1.524 . S
C770 H789 0.913 . S
C771 H747 0.950 . S
C771 C770 1.524 . S
C771 C772 1.415 . S
C772 H748 0.950 . S
C772 C767 1.363 1_655 S
C772 C771 1.415 . S
C773 H749 0.951 . S
C773 C774 1.366 . S
C773 C775 1.388 . S
C774 C773 1.366 . S
C774 C778 1.385 . S
C775 H750 0.951 . S
C775 C773 1.388 . S
C775 C776 1.366 . S
C776 C775 1.366 . S
C776 C777 1.414 . S
C776 C779 1.499 . S
C777 H751 0.950 . S
C777 C776 1.414 . S
C777 C778 1.374 . S
C778 H752 0.944 1_455 S
C778 C774 1.385 . S
C778 C777 1.374 . S
C779 C776 1.499 . S
C779 C780 1.373 . S
C779 C781 1.389 . S
C780 H753 0.950 . S
C780 C766 1.377 . S
C780 C779 1.373 . S
C781 C765 1.377 . S
C781 C779 1.389 . S
C781 C782 1.524 . S
C782 C781 1.524 . S
C782 C783 1.397 . S
C782 C787 1.363 . S
C783 H754 0.950 . S
C783 C782 1.397 . S
C783 C784 1.334 . S
C784 H755 0.950 . S
C784 C783 1.334 . S
C784 C785 1.287 . S
C785 C784 1.287 . S
C785 C786 1.524 . S
C785 H788 0.999 . S
C786 H756 0.950 . S
C786 C785 1.524 . S
C786 C787 1.415 . S
C787 H757 0.950 . S
C787 C782 1.363 . S
C787 C786 1.415 . S
H788 C785 0.999 . S
H789 C770 0.913 . S
C224 C161 1.627 . S
C209 C133 1.623 . S
C259 C25 1.580 . S
C274 C184 1.626 . S
C309 C61 1.601 . S
C324 C160 1.650 . S
C359 C97 1.644 . S
C374 C183 1.651 . S
C424 C164 1.582 . S
C409 C1 1.590 . S
C474 C186 1.611 . S
C459 C67 1.600 . S
C509 C103 1.637 . S
C524 C165 1.589 . S
C559 C109 1.616 . S
C574 C185 1.586 . S
C624 C188 1.589 . S
C609 C37 1.604 . S
C674 C163 1.611 . S
C659 C73 1.639 . S
C724 C187 1.582 . S
C709 C139 1.623 . S
C759 C31 1.577 . S
C774 C162 1.587 . S
