# Generated by pormake.
# Topology zzz, (3,6)-cn, num edge types: 1
# Building blocks:
#     Node 0, Type 0, BuildingBlock: MIDCAF_clean_linker_0, # of connection points: 3
#     Node 1, Type 0, BuildingBlock: MIDCAF_clean_linker_0, # of connection points: 3
#     Node 2, Type 0, BuildingBlock: MIDCAF_clean_linker_0, # of connection points: 3
#     Node 3, Type 0, BuildingBlock: MIDCAF_clean_linker_0, # of connection points: 3
#     Node 4, Type 0, BuildingBlock: MIDCAF_clean_linker_0, # of connection points: 3
#     Node 5, Type 0, BuildingBlock: MIDCAF_clean_linker_0, # of connection points: 3
#     Node 6, Type 0, BuildingBlock: MIDCAF_clean_linker_0, # of connection points: 3
#     Node 7, Type 0, BuildingBlock: MIDCAF_clean_linker_0, # of connection points: 3
#     Node 8, Type 1, BuildingBlock: KUMJIN_clean_sbu_1, # of connection points: 6
#     Node 9, Type 1, BuildingBlock: KUMJIN_clean_sbu_1, # of connection points: 6
#     Node 10, Type 1, BuildingBlock: KUMJIN_clean_sbu_1, # of connection points: 6
#     Node 11, Type 1, BuildingBlock: KUMJIN_clean_sbu_1, # of connection points: 6
#     Edge 12, Type (0, 1), BuildingBlock: OJICUG_clean_linker_0, # of connection points: 2
#     Edge 13, Type (0, 1), BuildingBlock: OJICUG_clean_linker_0, # of connection points: 2
#     Edge 14, Type (0, 1), BuildingBlock: OJICUG_clean_linker_0, # of connection points: 2
#     Edge 15, Type (0, 1), BuildingBlock: OJICUG_clean_linker_0, # of connection points: 2
#     Edge 16, Type (0, 1), BuildingBlock: OJICUG_clean_linker_0, # of connection points: 2
#     Edge 17, Type (0, 1), BuildingBlock: OJICUG_clean_linker_0, # of connection points: 2
#     Edge 18, Type (0, 1), BuildingBlock: OJICUG_clean_linker_0, # of connection points: 2
#     Edge 19, Type (0, 1), BuildingBlock: OJICUG_clean_linker_0, # of connection points: 2
#     Edge 20, Type (0, 1), BuildingBlock: OJICUG_clean_linker_0, # of connection points: 2
#     Edge 21, Type (0, 1), BuildingBlock: OJICUG_clean_linker_0, # of connection points: 2
#     Edge 22, Type (0, 1), BuildingBlock: OJICUG_clean_linker_0, # of connection points: 2
#     Edge 23, Type (0, 1), BuildingBlock: OJICUG_clean_linker_0, # of connection points: 2
#     Edge 24, Type (0, 1), BuildingBlock: OJICUG_clean_linker_0, # of connection points: 2
#     Edge 25, Type (0, 1), BuildingBlock: OJICUG_clean_linker_0, # of connection points: 2
#     Edge 26, Type (0, 1), BuildingBlock: OJICUG_clean_linker_0, # of connection points: 2
#     Edge 27, Type (0, 1), BuildingBlock: OJICUG_clean_linker_0, # of connection points: 2
#     Edge 28, Type (0, 1), BuildingBlock: OJICUG_clean_linker_0, # of connection points: 2
#     Edge 29, Type (0, 1), BuildingBlock: OJICUG_clean_linker_0, # of connection points: 2
#     Edge 30, Type (0, 1), BuildingBlock: OJICUG_clean_linker_0, # of connection points: 2
#     Edge 31, Type (0, 1), BuildingBlock: OJICUG_clean_linker_0, # of connection points: 2
#     Edge 32, Type (0, 1), BuildingBlock: OJICUG_clean_linker_0, # of connection points: 2
#     Edge 33, Type (0, 1), BuildingBlock: OJICUG_clean_linker_0, # of connection points: 2
#     Edge 34, Type (0, 1), BuildingBlock: OJICUG_clean_linker_0, # of connection points: 2
#     Edge 35, Type (0, 1), BuildingBlock: OJICUG_clean_linker_0, # of connection points: 2
# Relax obj value: 0.357
# Max RMSD: 0.206
# Mean RMSD: 0.185
data_MOF--net-zzz--node1-KUMJIN_clean_sbu_1--node2-MIDCAF_clean_linker_0--edge1-OJICUG_clean_linker_0
_symmetry_space_group_name_H-M    P1
_symmetry_Int_Tables_number       1
_symmetry_cell_setting            triclinic
loop_
_symmetry_equiv_pos_as_xyz
'x, y, z'
_cell_length_a     43.399743
_cell_length_b     43.617103
_cell_length_c     16.263288
_cell_angle_alpha  89.871129
_cell_angle_beta   89.996759
_cell_angle_gamma 90.228882
loop_
_atom_site_label
_atom_site_type_symbol
_atom_site_fract_x
_atom_site_fract_y
_atom_site_fract_z
_atom_type_partial_charge
C0 C 0.83819 0.58691 0.45618 0.0
C1 C 0.85044 0.55709 0.46203 0.0
C2 C 0.83478 0.53343 0.41956 0.0
C3 C 0.80918 0.53984 0.3687 0.0
H4 H 0.7074 0.52306 0.18897 0.0
H5 H 0.66175 0.5112 0.10589 0.0
H6 H 0.64266 0.60798 0.08345 0.0
H7 H 0.68749 0.61935 0.16782 0.0
H8 H 0.75941 0.60525 0.99717 0.0
H9 H 0.79215 0.59426 0.88202 0.0
H10 H 0.87252 0.61426 0.02997 0.0
H11 H 0.8394 0.62296 0.14831 0.0
H12 H 0.80563 0.61687 0.39795 0.0
H13 H 0.84881 0.60576 0.48897 0.0
H14 H 0.8434 0.51018 0.42147 0.0
H15 H 0.79928 0.52155 0.33219 0.0
N16 N 0.74887 0.57074 0.27624 0.0
N17 N 0.74889 0.59635 0.14853 0.0
N18 N 0.79392 0.59498 0.22638 0.0
C19 C 0.73342 0.58036 0.20694 0.0
C20 C 0.77904 0.60351 0.15686 0.0
C21 C 0.77931 0.57898 0.28667 0.0
C22 C 0.7009 0.57213 0.18638 0.0
C23 C 0.69253 0.54162 0.16971 0.0
C24 C 0.66665 0.53495 0.12019 0.0
C25 C 0.64852 0.55861 0.08558 0.0
C26 C 0.65559 0.58896 0.10851 0.0
C27 C 0.68136 0.59555 0.1577 0.0
C28 C 0.79694 0.61279 0.08336 0.0
C29 C 0.78401 0.60835 1.00497 0.0
C30 C 0.80301 0.60227 0.93793 0.0
C31 C 0.83516 0.60122 0.94819 0.0
C32 C 0.84778 0.61298 0.02152 0.0
C33 C 0.82879 0.61818 0.0894 0.0
C34 C 0.79841 0.57003 0.35921 0.0
C35 C 0.81288 0.59327 0.40511 0.0
C36 C 0.97094 0.82675 0.46619 0.0
C37 C 0.99416 0.84876 0.44984 0.0
C38 C 1.01214 0.84454 0.37845 0.0
C39 C 1.00603 0.82041 0.32341 0.0
H40 H 0.0169 0.70264 0.19293 0.0
H41 H 0.02788 0.65599 0.11422 0.0
H42 H 0.93283 0.65285 0.03472 0.0
H43 H 0.92203 0.6977 0.11612 0.0
H44 H 0.91968 0.76416 0.99274 0.0
H45 H 0.92345 0.79291 0.86495 0.0
H46 H 0.94443 0.87491 1.00366 0.0
H47 H 0.93981 0.84659 0.12993 0.0
H48 H 0.94552 0.7874 0.42275 0.0
H49 H 0.95672 0.82872 0.5206 0.0
H50 H 0.02987 0.86098 0.36208 0.0
H51 H 0.01889 0.8194 0.26638 0.0
N52 N 0.97479 0.75069 0.25452 0.0
N53 N 0.94677 0.7537 0.13075 0.0
N54 N 0.95355 0.79765 0.20989 0.0
C55 C 0.96281 0.73666 0.18567 0.0
C56 C 0.94211 0.78401 0.14158 0.0
C57 C 0.96935 0.78144 0.26731 0.0
C58 C 0.96855 0.70403 0.16137 0.0
C59 C 0.99819 0.69112 0.16141 0.0
C60 C 1.00455 0.66463 0.11436 0.0
C61 C 0.9815 0.65044 0.06543 0.0
C62 C 0.95144 0.66233 0.071 0.0
C63 C 0.94514 0.68841 0.11817 0.0
C64 C 0.93132 0.80276 0.07125 0.0
C65 C 0.92393 0.78861 0.99599 0.0
C66 C 0.92615 0.8051 0.92244 0.0
C67 C 0.93606 0.83582 0.92321 0.0
C68 C 0.93746 0.85111 0.99951 0.0
C69 C 0.93506 0.8347 0.07288 0.0
C70 C 0.98202 0.79932 0.33801 0.0
C71 C 0.96488 0.80252 0.41091 0.0
C72 C 0.71834 0.99127 0.50593 0.0
C73 C 0.6979 0.0143 0.47953 0.0
C74 C 0.70588 0.03091 0.4079 0.0
C75 C 0.73172 0.0228 0.36027 0.0
H76 H 0.83667 0.02441 0.20105 0.0
H77 H 0.88154 0.03462 0.11263 0.0
H78 H 0.87752 0.94155 0.02341 0.0
H79 H 0.83368 0.93138 0.11144 0.0
H80 H 0.75075 0.9248 0.05786 0.0
H81 H 0.70051 0.92085 0.99264 0.0
H82 H 0.65831 0.91032 0.23226 0.0
H83 H 0.70829 0.91112 0.29501 0.0
H84 H 0.75714 0.96304 0.4757 0.0
H85 H 0.71312 0.97772 0.56006 0.0
H86 H 0.69113 0.04913 0.38591 0.0
H87 H 0.73518 0.03404 0.30148 0.0
N88 N 0.79211 0.98771 0.27635 0.0
N89 N 0.78358 0.94718 0.18264 0.0
N90 N 0.74853 0.95587 0.28842 0.0
C91 C 0.80186 0.97053 0.2102 0.0
C92 C 0.75698 0.93966 0.22166 0.0
C93 C 0.76535 0.97971 0.31646 0.0
C94 C 0.83114 0.97713 0.16354 0.0
C95 C 0.84565 1.00606 0.1634 0.0
C96 C 0.87129 1.01195 0.11193 0.0
C97 C 0.8834 0.98897 0.05993 0.0
C98 C 0.86941 0.95985 0.06263 0.0
C99 C 0.84384 0.95409 0.11313 0.0
C100 C 0.73308 0.92048 0.182 0.0
C101 C 0.73087 0.91979 0.09595 0.0
C102 C 0.70182 0.91818 0.05873 0.0
C103 C 0.6749 0.91845 0.10751 0.0
C104 C 0.67804 0.91167 0.19181 0.0
C105 C 0.70704 0.91222 0.2285 0.0
C106 C 0.75038 0.99786 0.38268 0.0
C107 C 0.74401 0.98307 0.45795 0.0
C108 C 0.59872 0.68649 0.95383 0.0
C109 C 0.60221 0.70469 0.88272 0.0
C110 C 0.61329 0.73475 0.89108 0.0
C111 C 0.61522 0.74803 0.96888 0.0
H112 H 0.61329 0.83507 0.1011 0.0
H113 H 0.60293 0.87994 1.01795 0.0
H114 H 0.50635 0.87338 0.07861 0.0
H115 H 0.51676 0.82668 0.15973 0.0
H116 H 0.52067 0.70569 0.23051 0.0
H117 H 0.51044 0.66459 0.32907 0.0
H118 H 0.57698 0.70416 0.49563 0.0
H119 H 0.5872 0.74533 0.39564 0.0
H120 H 0.59373 0.68616 0.08447 0.0
H121 H 0.5905 0.66305 0.94966 0.0
H122 H 0.61683 0.74906 0.83732 0.0
H123 H 0.6206 0.77226 0.97269 0.0
N124 N 0.58872 0.77858 0.10386 0.0
N125 N 0.56026 0.77912 0.22689 0.0
N126 N 0.58239 0.73319 0.1776 0.0
C127 C 0.57209 0.79438 0.15971 0.0
C128 C 0.56618 0.74827 0.23648 0.0
C129 C 0.59394 0.74826 0.11139 0.0
C130 C 0.56593 0.82715 0.13788 0.0
C131 C 0.58987 0.84357 0.09897 0.0
C132 C 0.58385 0.86927 0.05013 0.0
C133 C 0.55373 0.88036 0.04017 0.0
C134 C 0.52991 0.86563 0.08483 0.0
C135 C 0.53589 0.83908 0.13252 0.0
C136 C 0.55404 0.72939 0.3061 0.0
C137 C 0.53222 0.70628 0.28956 0.0
C138 C 0.52654 0.6825 0.34616 0.0
C139 C 0.54295 0.68065 0.42083 0.0
C140 C 0.56406 0.70446 0.43867 0.0
C141 C 0.56953 0.72848 0.38205 0.0
C142 C 0.60569 0.73145 0.03897 0.0
C143 C 0.60038 0.69983 0.03162 0.0
C144 C 0.18331 0.5063 0.04587 0.0
C145 C 0.18281 0.49457 0.96522 0.0
C146 C 0.20859 0.47744 0.93904 0.0
C147 C 0.23333 0.47121 0.99305 0.0
H148 H 0.3312 0.51825 0.21051 0.0
H149 H 0.3785 0.53026 0.28646 0.0
H150 H 0.38828 0.43411 0.34711 0.0
H151 H 0.34323 0.42253 0.26702 0.0
H152 H 0.28078 0.4101 0.39463 0.0
H153 H 0.25761 0.41041 0.5307 0.0
H154 H 0.17005 0.43469 0.42281 0.0
H155 H 0.19299 0.43437 0.28755 0.0
H156 H 0.20625 0.50769 0.16271 0.0
H157 H 0.16393 0.51918 0.06929 0.0
H158 H 0.20934 0.46824 0.87729 0.0
H159 H 0.25185 0.45653 0.97249 0.0
N160 N 0.28412 0.47499 0.14743 0.0
N161 N 0.28563 0.44362 0.26528 0.0
N162 N 0.23915 0.45017 0.19621 0.0
C163 C 0.3005 0.46206 0.21112 0.0
C164 C 0.25521 0.43759 0.25913 0.0
C165 C 0.2532 0.46824 0.13915 0.0
C166 C 0.33333 0.46939 0.23202 0.0
C167 C 0.34441 0.49966 0.23694 0.0
C168 C 0.37128 0.50655 0.28275 0.0
C169 C 0.38758 0.48341 0.32598 0.0
C170 C 0.37737 0.45295 0.31532 0.0
C171 C 0.35108 0.44614 0.26882 0.0
C172 C 0.23909 0.42401 0.33083 0.0
C173 C 0.25626 0.41426 0.39952 0.0
C174 C 0.243 0.41429 0.47771 0.0
C175 C 0.21243 0.42394 0.48794 0.0
C176 C 0.19387 0.42763 0.41755 0.0
C177 C 0.20713 0.42769 0.33941 0.0
C178 C 0.23293 0.48192 0.07461 0.0
C179 C 0.20778 0.49988 0.09963 0.0
C180 C 0.02404 0.19314 1.00334 0.0
C181 C 0.04115 0.18965 0.93016 0.0
C182 C 0.0634 0.21244 0.91189 0.0
C183 C 0.06931 0.23684 0.96678 0.0
H184 H 0.01498 0.33289 0.19963 0.0
H185 H 1.00406 0.37937 0.27927 0.0
H186 H 0.10151 0.39143 0.32338 0.0
H187 H 0.11205 0.34597 0.24256 0.0
H188 H 0.11487 0.27754 0.38495 0.0
H189 H 0.11233 0.24862 0.51265 0.0
H190 H 0.0945 0.16594 0.37356 0.0
H191 H 0.09825 0.19441 0.24761 0.0
H192 H 0.01785 0.21796 0.11612 0.0
H193 H 1.00712 0.17609 0.02122 0.0
H194 H 0.07692 0.21102 0.85611 0.0
H195 H 0.08792 0.25268 0.95322 0.0
N196 N 0.05937 0.2886 0.12259 0.0
N197 N 0.08793 0.28705 0.24579 0.0
N198 N 0.08211 0.24254 0.1682 0.0
C199 C 0.07121 0.30331 0.19058 0.0
C200 C 0.09339 0.2568 0.2358 0.0
C201 C 0.06565 0.25798 0.11066 0.0
C202 C 0.06443 0.3358 0.21358 0.0
C203 C 0.03406 0.3463 0.22333 0.0
C204 C 0.02783 0.37269 0.27076 0.0
C205 C 0.0518 0.3893 0.30982 0.0
C206 C 0.08226 0.37984 0.29455 0.0
C207 C 0.08839 0.3536 0.24759 0.0
C208 C 0.10484 0.23855 0.30636 0.0
C209 C 0.11158 0.25294 0.38167 0.0
C210 C 0.11001 0.23634 0.45519 0.0
C211 C 0.1012 0.20527 0.45439 0.0
C212 C 0.10052 0.18998 0.37801 0.0
C213 C 0.10241 0.20648 0.30471 0.0
C214 C 0.053 0.23939 0.04123 0.0
C215 C 0.03001 0.21743 0.05795 0.0
C216 C 0.33343 1.00867 0.97884 0.0
C217 C 0.34085 0.02484 0.9061 0.0
C218 C 0.31965 0.04692 0.87815 0.0
C219 C 0.29368 0.0547 0.92557 0.0
H220 H 0.20111 0.01314 0.18249 0.0
H221 H 0.156 1.0028 0.26996 0.0
H222 H 0.15724 0.09687 0.35188 0.0
H223 H 0.2013 0.10715 0.26472 0.0
H224 H 0.28451 0.11417 0.32456 0.0
H225 H 0.33441 0.11888 0.3912 0.0
H226 H 0.37736 0.13014 0.15274 0.0
H227 H 0.32766 0.12855 0.08863 0.0
H228 H 0.30419 1.00552 0.08535 0.0
H229 H 0.34881 0.99119 1.0021 0.0
H230 H 0.32443 0.0601 0.82309 0.0
H231 H 0.27988 0.0741 0.90649 0.0
N232 N 0.24516 0.05038 0.10576 0.0
N233 N 0.25251 0.09141 0.19862 0.0
N234 N 0.2884 0.08274 0.09488 0.0
C235 C 0.23474 0.06771 0.17089 0.0
C236 C 0.27926 0.09912 0.1607 0.0
C237 C 0.2721 0.05858 0.06673 0.0
C238 C 0.20525 0.06094 0.21642 0.0
C239 C 0.19145 0.03167 0.21826 0.0
C240 C 0.16567 0.02572 0.2692 0.0
C241 C 0.15273 0.04894 0.31895 0.0
C242 C 0.166 0.07836 0.31441 0.0
C243 C 0.1917 0.0842 0.26443 0.0
C244 C 0.3026 0.11879 0.20094 0.0
C245 C 0.30446 0.1195 0.28705 0.0
C246 C 0.33332 0.12154 0.32508 0.0
C247 C 0.36044 0.12167 0.27705 0.0
C248 C 0.35752 0.12846 0.19268 0.0
C249 C 0.32868 0.12747 0.15517 0.0
C250 C 0.28776 0.04038 1.00173 0.0
C251 C 0.30728 0.01632 0.02584 0.0
C252 C 0.42268 0.35823 0.36746 0.0
C253 C 0.43069 0.34514 0.44392 0.0
C254 C 0.42393 0.31384 0.45613 0.0
C255 C 0.41762 0.29511 0.38897 0.0
H256 H 0.42043 0.20299 0.28576 0.0
H257 H 0.43299 0.15989 0.37255 0.0
H258 H 0.52828 0.1667 0.29868 0.0
H259 H 0.51563 0.21178 0.21303 0.0
H260 H 0.4281 0.3073 0.99555 0.0
H261 H 0.44108 0.34968 0.90392 0.0
H262 H 0.53412 0.34973 0.99798 0.0
H263 H 0.5206 0.3073 0.09094 0.0
H264 H 0.41684 0.34964 0.23892 0.0
H265 H 0.42465 0.38268 0.35714 0.0
H266 H 0.4279 0.30259 0.5144 0.0
H267 H 0.41673 0.27057 0.39919 0.0
N268 N 0.4398 0.25892 0.25993 0.0
N269 N 0.4711 0.2564 0.14205 0.0
N270 N 0.4429 0.30121 0.1731 0.0
C271 C 0.45905 0.24265 0.21134 0.0
C272 C 0.46209 0.28579 0.12199 0.0
C273 C 0.43179 0.28807 0.24247 0.0
C274 C 0.46697 0.21118 0.24206 0.0
C275 C 0.44411 0.19518 0.2865 0.0
C276 C 0.4514 0.17042 0.33737 0.0
C277 C 0.48177 0.15974 0.34429 0.0
C278 C 0.50455 0.17414 0.29506 0.0
C279 C 0.49729 0.1998 0.24501 0.0
C280 C 0.47351 0.30323 0.04904 0.0
C281 C 0.4517 0.31548 0.99412 0.0
C282 C 0.45916 0.34009 0.9418 0.0
C283 C 0.48866 0.35366 0.94336 0.0
C284 C 0.51102 0.34031 0.99542 0.0
C285 C 0.50353 0.31545 0.04759 0.0
C286 C 0.41904 0.30733 0.30902 0.0
C287 C 0.41765 0.3393 0.2995 0.0
Eu288 Eu 0.98323 0.03363 0.62156 0.0
C289 C 0.10195 0.0531 0.8296 0.0
N290 N 0.09803 0.0351 0.7622 0.0
C291 C 0.14657 0.05201 0.70801 0.0
C292 C 0.12827 0.07195 0.83764 0.0
C293 C 0.12004 0.03385 0.7025 0.0
C294 C 0.15064 0.07127 0.77566 0.0
C295 C 0.08226 0.07241 0.95917 0.0
C296 C 0.07907 0.05339 0.88952 0.0
C297 C 0.10836 0.0913 0.96708 0.0
C298 C 0.1313 0.09106 0.90656 0.0
Eu299 Eu 0.05256 1.00533 0.75762 0.0
N300 N 0.05365 0.03533 0.87943 0.0
C301 C 0.05919 0.07175 1.0192 0.0
C302 C 0.03221 0.03317 0.9406 0.0
C303 C 0.03429 0.05172 1.01037 0.0
H304 H 0.11743 0.01847 0.65121 0.0
H305 H 0.01693 0.05018 0.05799 0.0
H306 H 0.91802 0.02435 0.72954 0.0
H307 H 0.01659 0.98394 0.32504 0.0
H308 H 0.01398 0.01655 0.93786 0.0
H309 H 0.06078 0.08603 0.07349 0.0
H310 H 0.02154 0.01815 0.44357 0.0
H311 H 0.16391 0.05105 0.66026 0.0
H312 H 0.11107 0.10613 1.01998 0.0
H313 H 0.1513 0.10577 0.91359 0.0
H314 H 0.87009 0.99385 0.72303 0.0
H315 H 0.17118 0.0854 0.77961 0.0
H316 H 0.97065 0.95069 0.31095 0.0
N317 N 0.93638 1.00597 0.61928 0.0
C318 C 0.93147 0.98762 0.55303 0.0
C319 C 0.88725 0.99171 0.67511 0.0
C320 C 0.90427 0.96998 0.54636 0.0
C321 C 0.9146 1.00867 0.67923 0.0
C322 C 0.88211 0.97217 0.60859 0.0
N323 N 0.98047 1.00262 0.50182 0.0
C324 C 1.00217 1.00286 0.44109 0.0
C325 C 0.94992 0.96644 0.42428 0.0
C326 C 0.95414 0.98583 0.49277 0.0
C327 C 0.973 0.96533 0.36435 0.0
C328 C 0.99906 0.9839 0.37238 0.0
H329 H 0.86091 0.959 0.60567 0.0
H330 H 0.87943 0.93681 0.47242 0.0
H331 H 0.91937 0.93372 0.36558 0.0
O332 O 0.97866 0.06653 0.52162 0.0
O333 O 0.98581 0.98172 0.64436 0.0
O334 O 0.03766 0.97364 0.65292 0.0
O335 O 0.94402 0.06506 0.61665 0.0
O336 O 0.03231 0.04485 0.57435 0.0
O337 O 0.06194 1.00479 0.62077 0.0
O338 O 0.05925 0.9727 0.85743 0.0
O339 O 0.04979 0.05714 0.73256 0.0
O340 O 0.99791 0.06474 0.72743 0.0
O341 O 0.09257 0.97483 0.75935 0.0
O342 O 1.00347 0.99333 0.80335 0.0
O343 O 0.97422 0.03388 0.75872 0.0
C344 C 1.00986 0.96393 0.63382 0.0
C345 C 0.96076 0.11341 0.57178 0.0
C346 C 0.99745 0.15517 0.59721 0.0
C347 C 0.97267 0.17602 0.59029 0.0
C348 C 0.9367 0.13442 0.56512 0.0
C349 C 0.9426 0.1656 0.57605 0.0
C350 C 0.99046 0.12371 0.59227 0.0
C351 C 0.05715 0.02742 0.56898 0.0
C352 C 0.95562 0.08068 0.55596 0.0
C353 C 0.90014 0.95058 0.47843 0.0
C354 C 0.9229 0.9488 0.41762 0.0
C355 C 0.02572 0.07474 0.74497 0.0
C356 C 0.07723 0.92621 0.80548 0.0
C357 C 0.04057 0.88439 0.78035 0.0
C358 C 0.06536 0.86356 0.78781 0.0
C359 C 0.1013 0.90525 0.81274 0.0
C360 C 0.04759 0.91584 0.78484 0.0
C361 C 0.09542 0.87403 0.80221 0.0
C362 C 0.97873 1.01085 0.80944 0.0
C363 C 0.08211 0.959 0.82107 0.0
H364 H 0.97621 0.20053 0.59179 0.0
H365 H 0.91354 0.12676 0.55073 0.0
H366 H 0.92401 0.18193 0.57014 0.0
H367 H 1.00822 0.1068 0.60074 0.0
H368 H 0.06185 0.83905 0.78659 0.0
H369 H 0.12442 0.91296 0.82732 0.0
H370 H 0.02988 0.93275 0.77609 0.0
H371 H 0.11401 0.85773 0.80855 0.0
Eu372 Eu 0.52998 0.05285 0.77167 0.0
C373 C 0.53189 0.9195 0.64708 0.0
N374 N 0.54207 0.94534 0.60857 0.0
C375 C 0.58849 0.91983 0.56849 0.0
C376 C 0.55021 0.89287 0.6493 0.0
C377 C 0.56968 0.94576 0.56849 0.0
C378 C 0.5788 0.89331 0.60941 0.0
C379 C 0.49271 0.89376 0.72863 0.0
C380 C 0.50349 0.9201 0.68682 0.0
C381 C 0.51104 0.86732 0.73163 0.0
C382 C 0.53968 0.86686 0.69202 0.0
Eu383 Eu 0.5091 0.98821 0.61274 0.0
N384 N 0.4864 0.94625 0.68428 0.0
C385 C 0.46358 0.8946 0.7653 0.0
C386 C 0.45703 0.94621 0.71439 0.0
C387 C 0.44547 0.92075 0.7569 0.0
H388 H 0.57702 0.96595 0.53535 0.0
H389 H 0.42236 0.92115 0.7819 0.0
H390 H 0.46141 0.07743 0.83853 0.0
H391 H 0.62188 0.11654 0.61281 0.0
H392 H 0.44185 0.96519 0.70378 0.0
H393 H 0.45449 0.87486 0.79796 0.0
H394 H 0.59975 0.07375 0.69095 0.0
H395 H 0.61042 0.92029 0.53679 0.0
H396 H 0.50317 0.84699 0.76393 0.0
H397 H 0.55352 0.84626 0.69479 0.0
H398 H 0.42947 0.1241 0.83094 0.0
H399 H 0.59352 0.8733 0.60969 0.0
H400 H 0.59117 0.16328 0.5883 0.0
N401 N 0.49819 0.09658 0.76895 0.0
C402 C 0.50976 0.12181 0.73033 0.0
C403 C 0.45192 0.1237 0.80202 0.0
C404 C 0.4923 0.14894 0.7245 0.0
C405 C 0.46994 0.09723 0.80567 0.0
C406 C 0.46308 0.14962 0.76095 0.0
N407 N 0.55513 0.09358 0.70079 0.0
C408 C 0.58519 0.09283 0.67602 0.0
C409 C 0.55107 0.14582 0.65258 0.0
C410 C 0.53876 0.12009 0.69413 0.0
C411 C 0.58091 0.14402 0.62057 0.0
C412 C 0.59823 0.11761 0.63374 0.0
H413 H 0.44897 0.17003 0.75779 0.0
H414 H 0.4911 0.19523 0.67602 0.0
H415 H 0.54259 0.19258 0.61348 0.0
O416 O 0.56911 0.06148 0.85262 0.0
O417 O 0.4998 0.06579 0.6609 0.0
O418 O 0.51854 0.03558 0.55861 0.0
O419 O 0.52326 0.07224 0.89428 0.0
O420 O 0.57075 0.02762 0.71009 0.0
O421 O 0.55188 0.01586 0.58192 0.0
O422 O 0.46892 0.98051 0.53482 0.0
O423 O 0.53873 0.97481 0.72407 0.0
O424 O 0.52068 1.00554 0.82631 0.0
O425 O 0.51408 0.96878 0.48965 0.0
O426 O 0.46807 0.01255 0.67573 0.0
O427 O 0.48692 0.02576 0.80317 0.0
C428 C 0.50635 0.06149 0.58288 0.0
C429 C 0.55643 0.04973 0.99067 0.0
C430 C 0.57716 1.00422 0.05879 0.0
C431 C 0.56428 0.01432 0.13338 0.0
C432 C 0.54398 0.05949 0.06567 0.0
C433 C 0.54767 0.04169 0.13646 0.0
C434 C 0.57225 0.0217 0.98733 0.0
C435 C 0.5752 0.02144 0.63131 0.0
C436 C 0.55176 0.0681 0.91554 0.0
C437 C 0.50428 0.17428 0.68163 0.0
C438 C 0.53355 0.17271 0.6457 0.0
C439 C 0.53232 0.97939 0.80204 0.0
C440 C 0.48038 0.99189 0.3956 0.0
C441 C 0.45906 0.03715 0.32762 0.0
C442 C 0.47204 0.02723 0.25298 0.0
C443 C 0.4929 0.9823 0.32049 0.0
C444 C 0.46415 0.01969 0.39905 0.0
C445 C 0.48895 1.00006 0.24977 0.0
C446 C 0.46368 0.01938 0.75418 0.0
C447 C 0.48545 0.97353 0.4706 0.0
H448 H 0.56795 1.00174 0.18999 0.0
H449 H 0.53132 0.08081 0.06936 0.0
H450 H 0.53814 0.04943 0.19428 0.0
H451 H 0.58116 0.01362 0.92907 0.0
H452 H 0.46822 0.03978 0.19641 0.0
H453 H 0.50583 0.96115 0.31668 0.0
H454 H 0.45513 0.02763 0.45731 0.0
H455 H 0.49855 0.99245 0.1919 0.0
Eu456 Eu 0.55344 0.50066 0.63689 0.0
C457 C 0.4367 0.48732 0.8284 0.0
N458 N 0.44149 0.50619 0.76298 0.0
C459 C 0.39567 0.48659 0.69872 0.0
C460 C 0.41212 0.46606 0.8294 0.0
C461 C 0.42026 0.50741 0.70111 0.0
C462 C 0.39196 0.46535 0.76233 0.0
C463 C 0.45065 0.47227 0.9671 0.0
C464 C 0.45543 0.49049 0.89653 0.0
C465 C 0.42715 0.45004 0.96698 0.0
C466 C 0.4079 0.44695 0.89823 0.0
Eu467 Eu 0.48611 0.53812 0.76825 0.0
N468 N 0.47834 0.5117 0.89387 0.0
C469 C 0.46948 0.47717 0.0358 0.0
C470 C 0.49595 0.51753 0.96168 0.0
C471 C 0.49199 0.50018 0.03339 0.0
H472 H 0.42176 0.52478 0.65414 0.0
H473 H 0.50639 0.50442 0.08653 0.0
H474 H 0.61531 0.53888 0.70461 0.0
H475 H 0.52118 0.47582 0.31806 0.0
H476 H 0.51356 0.53508 0.95946 0.0
H477 H 0.46656 0.46364 0.09124 0.0
H478 H 0.52373 0.46642 0.46739 0.0
H479 H 0.37937 0.48724 0.64839 0.0
H480 H 0.42331 0.43554 1.02022 0.0
H481 H 0.38938 0.43022 0.89969 0.0
H482 H 0.65452 0.57515 0.65088 0.0
H483 H 0.37277 0.4494 0.76067 0.0
H484 H 0.55212 0.51766 0.25603 0.0
N485 N 0.59208 0.53474 0.59017 0.0
C486 C 0.59209 0.54155 0.50867 0.0
C487 C 0.63696 0.56605 0.61038 0.0
C488 C 0.61395 0.56211 0.47528 0.0
C489 C 0.61476 0.54559 0.64066 0.0
C490 C 0.63629 0.57469 0.52757 0.0
N491 N 0.55236 0.505 0.49145 0.0
C492 C 0.53585 0.48582 0.44181 0.0
C493 C 0.5717 0.53196 0.37237 0.0
C494 C 0.57125 0.5266 0.458 0.0
C495 C 0.55249 0.51425 0.32204 0.0
C496 C 0.53496 0.49065 0.35681 0.0
H497 H 0.65351 0.59053 0.50427 0.0
H498 H 0.62973 0.58474 0.36407 0.0
H499 H 0.59269 0.55836 0.27389 0.0
O500 O 0.58337 0.46736 0.57686 0.0
O501 O 0.55182 0.55325 0.64601 0.0
O502 O 0.50025 0.56244 0.64994 0.0
O503 O 0.58161 0.46908 0.70915 0.0
O504 O 0.50439 0.48954 0.59222 0.0
O505 O 0.47598 0.53163 0.63072 0.0
O506 O 0.48692 0.57792 0.84845 0.0
O507 O 0.51019 0.49408 0.80769 0.0
O508 O 0.51442 0.47044 0.68534 0.0
O509 O 0.44597 0.56843 0.77876 0.0
O510 O 0.53461 0.55258 0.80997 0.0
O511 O 0.5664 0.51297 0.76846 0.0
C512 C 0.5281 0.57052 0.62696 0.0
C513 C 0.57962 0.42088 0.64844 0.0
C514 C 0.53906 0.3834 0.62117 0.0
C515 C 0.55598 0.36125 0.66477 0.0
C516 C 0.59636 0.3987 0.6916 0.0
C517 C 0.58451 0.36893 0.69963 0.0
C518 C 0.55105 0.41311 0.6143 0.0
C519 C 0.48081 0.50815 0.58132 0.0
C520 C 0.5895 0.45304 0.64528 0.0
C521 C 0.61336 0.56873 0.39074 0.0
C522 C 0.59222 0.55375 0.3394 0.0
C523 C 0.50938 0.46883 0.7646 0.0
C524 C 0.46591 0.61898 0.77344 0.0
C525 C 0.50211 0.65767 0.72189 0.0
C526 C 0.47916 0.66911 0.6695 0.0
C527 C 0.44323 0.6305 0.72017 0.0
C528 C 0.49484 0.63342 0.77521 0.0
C529 C 0.44981 0.65561 0.66909 0.0
C530 C 0.55984 0.53588 0.81821 0.0
C531 C 0.46191 0.58934 0.81694 0.0
H532 H 0.54747 0.33798 0.67074 0.0
H533 H 0.6182 0.4045 0.71991 0.0
H534 H 0.59742 0.35178 0.73305 0.0
H535 H 0.53772 0.43061 0.58336 0.0
H536 H 0.48398 0.68816 0.6286 0.0
H537 H 0.4208 0.61962 0.71646 0.0
H538 H 0.51222 0.62538 0.81785 0.0
H539 H 0.43228 0.66427 0.6279 0.0
Eu540 Eu 0.04288 0.55355 0.62541 0.0
C541 C 0.04778 0.44581 0.86061 0.0
N542 N 0.03769 0.44752 0.78157 0.0
C543 C 0.06699 0.40305 0.74607 0.0
C544 C 0.06913 0.42319 0.88452 0.0
C545 C 0.04594 0.42596 0.7251 0.0
C546 C 0.0789 0.40185 0.82587 0.0
C547 C 0.04653 0.46522 1.00025 0.0
C548 C 0.03656 0.46668 0.9177 0.0
C549 C 0.06869 0.44347 0.02355 0.0
C550 C 0.07989 0.42247 0.96591 0.0
Eu551 Eu 1.00214 0.48668 0.75167 0.0
N552 N 0.0148 0.48726 0.89369 0.0
C553 C 0.03321 0.48502 0.05761 0.0
C554 C 0.99997 0.50471 0.95092 0.0
C555 C 1.00944 0.50444 0.03307 0.0
H556 H 0.0365 0.42673 0.66373 0.0
H557 H 0.99799 0.51882 0.07773 0.0
H558 H 0.04436 0.61818 0.73902 0.0
H559 H 1.00987 0.53992 0.30397 0.0
H560 H 0.98025 0.51829 0.93433 0.0
H561 H 0.04024 0.48461 0.12154 0.0
H562 H 0.03349 0.52515 0.43646 0.0
H563 H 0.074 0.38633 0.70077 0.0
H564 H 0.07676 0.44222 0.08653 0.0
H565 H 0.09656 0.40547 0.9852 0.0
H566 H 0.02285 0.67032 0.735 0.0
H567 H 0.09529 0.38413 0.84185 0.0
H568 H 0.98518 0.5907 0.28905 0.0
N569 N 0.02523 0.60499 0.62405 0.0
C570 C 1.0108 0.61468 0.5547 0.0
C571 C 0.0189 0.65477 0.68425 0.0
C572 C 0.99896 0.64468 0.54834 0.0
C573 C 0.03053 0.62493 0.68711 0.0
C574 C 1.00268 0.66459 0.61497 0.0
N575 N 0.02124 0.56654 0.49648 0.0
C576 C 0.02252 0.54718 0.43069 0.0
C577 C 0.99547 0.60451 0.41396 0.0
C578 C 1.00908 0.59497 0.48847 0.0
C579 C 0.99538 0.58423 0.34736 0.0
C580 C 1.00927 0.55554 0.35555 0.0
H581 H 0.99394 0.68781 0.61257 0.0
H582 H 0.97517 0.67695 0.46931 0.0
H583 H 0.97213 0.64174 0.35149 0.0
O584 O 0.08408 0.54165 0.55733 0.0
O585 O 0.99404 0.54072 0.58416 0.0
O586 O 0.97015 0.52391 0.70246 0.0
O587 O 0.08143 0.58609 0.61447 0.0
O588 O 0.05053 0.50431 0.57926 0.0
O589 O 1.00661 0.47786 0.61489 0.0
O590 O 0.97032 0.45978 0.82697 0.0
O591 O 0.05492 0.48896 0.73771 0.0
O592 O 0.06205 0.53989 0.74963 0.0
O593 O 0.9704 0.45372 0.69561 0.0
O594 O 0.98973 0.53497 0.79757 0.0
O595 O 0.0317 0.5647 0.76017 0.0
C596 C 0.96892 0.53473 0.62682 0.0
C597 C 0.12798 0.55795 0.62982 0.0
C598 C 0.16538 0.51899 0.67103 0.0
C599 C 0.17749 0.53925 0.72977 0.0
C600 C 0.14021 0.5779 0.68931 0.0
C601 C 0.16496 0.56859 0.73854 0.0
C602 C 0.14123 0.52889 0.62028 0.0
C603 C 0.03056 0.48189 0.56669 0.0
C604 C 0.09954 0.56534 0.58351 0.0
C605 C 0.98453 0.65406 0.47516 0.0
C606 C 0.98283 0.63403 0.40804 0.0
C607 C 0.07142 0.51207 0.76508 0.0
C608 C 0.92263 0.45759 0.76005 0.0
C609 C 0.88363 0.49702 0.77921 0.0
C610 C 0.86217 0.47849 0.73753 0.0
C611 C 0.90108 0.4392 0.71893 0.0
C612 C 0.91374 0.48637 0.78965 0.0
C613 C 0.87091 0.44968 0.70782 0.0
C614 C 1.00735 0.55952 0.80712 0.0
C615 C 0.9553 0.44926 0.76369 0.0
H616 H 0.19639 0.53235 0.76906 0.0
H617 H 0.13037 0.60039 0.69879 0.0
H618 H 0.17418 0.58401 0.7845 0.0
H619 H 0.13258 0.51372 0.57281 0.0
H620 H 0.83862 0.486 0.72921 0.0
H621 H 0.90774 0.41718 0.69406 0.0
H622 H 0.93065 0.50105 0.81908 0.0
H623 H 0.85429 0.43552 0.67579 0.0
C624 C 0.10376 0.06478 0.39463 0.0
C625 C 0.12663 0.0426 0.37837 0.0
H626 H 0.06404 0.0775 0.46586 0.0
C627 C 0.12528 0.01495 0.42313 0.0
H628 H 0.10353 0.08622 0.36095 0.0
C629 C 0.10254 1.01 0.48338 0.0
C630 C 0.08026 0.0325 0.50124 0.0
H631 H 0.14244 0.99736 0.4136 0.0
H632 H 0.10274 0.98853 0.51693 0.0
C633 C 0.0809 0.05976 0.4548 0.0
C634 C 0.51002 0.11098 0.38752 0.0
C635 C 0.48907 0.13466 0.40543 0.0
H636 H 0.53161 0.06927 0.42833 0.0
C637 C 0.47402 0.13374 0.48237 0.0
H638 H 0.52179 0.11052 0.32884 0.0
C639 C 0.47938 0.10999 0.53885 0.0
C640 C 0.50029 0.0864 0.52123 0.0
H641 H 0.45801 0.15159 0.49954 0.0
H642 H 0.4668 0.10998 0.5963 0.0
C643 C 0.51542 0.08711 0.44443 0.0
C644 C 0.43545 0.46843 0.4091 0.0
C645 C 0.41337 0.49072 0.38637 0.0
H646 H 0.47237 0.45558 0.48957 0.0
C647 C 0.41502 0.51932 0.42677 0.0
H648 H 0.43609 0.44631 0.37931 0.0
C649 C 0.43729 0.52512 0.4878 0.0
C650 C 0.45836 0.50237 0.51247 0.0
H651 H 0.39856 0.53719 0.41347 0.0
H652 H 0.43753 0.54741 0.51701 0.0
C653 C 0.45707 0.47396 0.47186 0.0
C654 C 0.01948 0.41292 0.4237 0.0
C655 C 0.04533 0.41454 0.37136 0.0
H656 H 0.99464 0.43226 0.5248 0.0
C657 C 0.0659 0.43941 0.3827 0.0
H658 H 1.00328 0.39408 0.41885 0.0
C659 C 0.06114 0.46132 0.44505 0.0
C660 C 0.03555 0.45927 0.49808 0.0
H661 H 0.0859 0.44199 0.34348 0.0
H662 H 0.0777 0.47977 0.45197 0.0
C663 C 0.01466 0.43486 0.48561 0.0
C664 C 0.93169 0.97277 0.98183 0.0
C665 C 0.90941 0.9953 1.00026 0.0
H666 H 0.97091 0.95989 0.9089 0.0
C667 C 0.91129 0.02337 0.95754 0.0
H668 H 0.93151 0.95099 1.01392 0.0
C669 C 0.93396 0.0284 0.89716 0.0
C670 C 0.95563 1.00558 0.87711 0.0
H671 H 0.8946 0.04126 0.96885 0.0
H672 H 0.93423 0.05024 0.86533 0.0
C673 C 0.95449 0.97788 0.92155 0.0
C674 C 0.52689 0.9298 0.99675 0.0
C675 C 0.54761 0.90587 0.97953 0.0
H676 H 0.50618 0.97186 0.95544 0.0
C677 C 0.56323 0.90667 0.90343 0.0
H678 H 0.51469 0.93028 0.05479 0.0
C679 C 0.55846 0.9305 0.84676 0.0
C680 C 0.53779 0.95437 0.86375 0.0
H681 H 0.57911 0.8886 0.88698 0.0
H682 H 0.57125 0.93031 0.78964 0.0
C683 C 0.52222 0.95382 0.93992 0.0
C684 C 0.6293 0.52872 0.96197 0.0
C685 C 0.62459 0.55216 1.02002 0.0
H686 H 0.61336 0.50549 0.85436 0.0
C687 C 0.59793 0.57041 1.01084 0.0
H688 H 0.64967 0.51452 0.96484 0.0
C689 C 0.57698 0.56546 0.94573 0.0
C690 C 0.58196 0.54207 0.88765 0.0
H691 H 0.59312 0.58858 0.05416 0.0
H692 H 0.55688 0.57999 0.94103 0.0
C693 C 0.60844 0.52376 0.89733 0.0
C694 C 0.96619 0.60373 0.97881 0.0
C695 C 0.9888 0.62522 1.00417 0.0
H696 H 0.95378 0.56703 0.89694 0.0
C697 C 0.0179 0.6236 0.96577 0.0
H698 H 0.94366 0.6033 1.00723 0.0
C699 C 0.02391 0.602 0.90375 0.0
C700 C 1.00095 0.58148 0.87632 0.0
H701 H 0.03604 0.6396 0.98166 0.0
H702 H 0.04673 0.60157 0.87692 0.0
C703 C 0.97208 0.58247 0.91564 0.0
C704 C 0.0642 0.20989 0.57207 0.0
C705 C 0.08433 0.19151 0.5256 0.0
H706 H 0.02191 0.21245 0.6379 0.0
C707 C 0.081 0.15957 0.53157 0.0
H708 H 0.06645 0.23459 0.57289 0.0
C709 C 0.05406 0.14695 0.56415 0.0
C710 C 0.03042 0.16605 0.59473 0.0
H711 H 0.09719 0.14443 0.50156 0.0
H712 H 0.0511 0.12259 0.55635 0.0
C713 C 0.0378 0.19713 0.60768 0.0
C714 C 0.41752 0.11011 0.26673 0.0
C715 C 0.38907 0.10629 0.30754 0.0
H716 H 0.46232 0.09178 0.24217 0.0
C717 C 0.38657 0.08245 0.36587 0.0
H718 H 0.42105 0.12862 0.22335 0.0
C719 C 0.41024 0.06136 0.37632 0.0
C720 C 0.43728 0.06341 0.3292 0.0
H721 H 0.3653 0.07792 0.39837 0.0
H722 H 0.40605 0.04197 0.41655 0.0
C723 C 0.44131 0.08891 0.27735 0.0
C724 C 0.47553 0.3809 0.46237 0.0
C725 C 0.45404 0.36046 0.49784 0.0
H726 H 0.5191 0.40312 0.47157 0.0
C727 C 0.45972 0.34988 0.57849 0.0
H728 H 0.47298 0.38944 0.40031 0.0
C729 C 0.48742 0.35689 0.61834 0.0
C730 C 0.50931 0.37604 0.58067 0.0
H731 H 0.44358 0.33492 0.6097 0.0
H732 H 0.49188 0.34694 0.67809 0.0
C733 C 0.50262 0.38856 0.50316 0.0
C734 C 0.22283 0.46129 0.59992 0.0
C735 C 0.20289 0.43926 0.56518 0.0
H736 H 0.22629 0.50436 0.66174 0.0
C737 C 0.1718 0.43911 0.58892 0.0
H738 H 0.247 0.46208 0.58343 0.0
C739 C 0.15993 0.46359 0.63374 0.0
C740 C 0.17904 0.48844 0.65566 0.0
H741 H 0.15603 0.42206 0.56471 0.0
H742 H 0.13526 0.46468 0.64309 0.0
C743 C 0.21094 0.48578 0.64481 0.0
C744 C 0.9568 0.88078 0.84445 0.0
C745 C 0.95328 0.84893 0.85193 0.0
H746 H 0.98677 0.91743 0.81777 0.0
C747 C 0.97351 0.83008 0.80721 0.0
H748 H 0.94062 0.89619 0.87357 0.0
C749 C 1.00012 0.84241 0.77166 0.0
C750 C 1.00756 0.87359 0.78279 0.0
H751 H 0.9711 0.80537 0.80793 0.0
H752 H 0.01605 0.82676 0.74287 0.0
C753 C 0.98385 0.89302 0.81155 0.0
C754 C 0.64907 0.95812 1.01962 0.0
C755 C 0.64638 0.93424 0.07775 0.0
H756 H 0.63001 0.99888 0.96955 0.0
C757 C 0.61798 0.93073 0.11902 0.0
H758 H 0.67033 0.96241 0.98685 0.0
C759 C 0.59444 0.95225 0.10895 0.0
C760 C 0.59867 0.97774 0.05715 0.0
H761 H 0.61433 0.91221 0.16232 0.0
H762 H 0.57347 0.94961 0.14441 0.0
C763 C 0.62565 0.97951 1.0097 0.0
C764 C 0.56197 0.71542 0.77834 0.0
C765 C 0.58513 0.69565 0.8077 0.0
H766 H 0.51674 0.71855 0.72691 0.0
C767 C 0.58478 0.6649 0.78284 0.0
H768 H 0.56163 0.73935 0.79597 0.0
C769 C 0.55894 0.65303 0.74304 0.0
C770 C 0.53317 0.67175 0.72787 0.0
H771 H 0.60258 0.6493 0.80329 0.0
H772 H 0.55764 0.62849 0.73365 0.0
C773 C 0.53603 0.70349 0.73878 0.0
C774 C 0.84526 0.57401 0.81377 0.0
C775 C 0.85344 0.5799 0.89616 0.0
H776 H 0.84816 0.54288 0.7119 0.0
C777 C 0.87468 0.56025 0.93473 0.0
H778 H 0.82949 0.58895 0.78139 0.0
C779 C 0.8851 0.53407 0.89527 0.0
C780 C 0.87482 0.52677 0.81587 0.0
H781 H 0.88137 0.56337 0.99827 0.0
H782 H 0.89981 0.51856 0.92931 0.0
C783 C 0.85569 0.54753 0.77415 0.0
C784 C 0.06209 0.14748 0.83675 0.0
C785 C 0.0369 0.1615 0.8766 0.0
H786 H 0.07839 0.10998 0.76316 0.0
C787 C 1.00777 0.14735 0.86796 0.0
H788 H 0.08499 0.15723 0.84175 0.0
C789 C 1.00416 0.11982 0.8239 0.0
C790 C 0.02952 0.10528 0.78685 0.0
H791 H 0.98757 0.15746 0.89575 0.0
H792 H 0.98142 0.10958 0.82043 0.0
C793 C 0.05842 0.11995 0.79241 0.0
C794 C 0.37556 0.02269 0.77892 0.0
C795 C 0.37193 0.02128 0.8652 0.0
H796 H 0.40692 0.02279 0.67599 0.0
C797 C 0.39877 0.01837 0.91326 0.0
H798 H 0.35557 0.02484 0.73955 0.0
C799 C 0.4281 0.01745 0.8769 0.0
C800 C 0.43184 0.01917 0.79092 0.0
H801 H 0.39728 0.01777 0.97971 0.0
H802 H 0.44801 0.01562 0.91677 0.0
C803 C 0.40506 0.02141 0.74231 0.0
C804 C 0.48217 0.38767 0.81674 0.0
C805 C 0.49524 0.38264 0.8951 0.0
H806 H 0.47705 0.41816 0.71316 0.0
C807 C 0.5134 0.40636 0.92883 0.0
H808 H 0.46753 0.37041 0.78922 0.0
C809 C 0.51809 0.43405 0.88609 0.0
C810 C 0.50542 0.43872 0.80742 0.0
H811 H 0.52325 0.40398 0.98964 0.0
H812 H 0.53165 0.45196 0.91489 0.0
C813 C 0.48761 0.41507 0.77294 0.0
C814 C 0.13854 0.52706 0.91213 0.0
C815 C 0.15489 0.49919 0.91105 0.0
H816 H 0.10003 0.55293 0.86746 0.0
C817 C 0.14345 0.47551 0.86036 0.0
H818 H 0.14661 0.54606 0.94915 0.0
C819 C 0.11643 0.4795 0.81342 0.0
C820 C 0.10012 0.50731 0.81504 0.0
H821 H 0.15502 0.45359 0.85806 0.0
H822 H 0.10846 0.46083 0.7752 0.0
C823 C 0.11176 0.53108 0.86471 0.0
C824 C 0.97309 0.89178 0.54003 0.0
C825 C 0.99845 0.87695 0.50325 0.0
H826 H 0.95669 0.92995 0.61078 0.0
C827 C 0.02781 0.89035 0.5147 0.0
H828 H 0.95002 0.88265 0.53273 0.0
C829 C 0.0315 0.91794 0.55852 0.0
C830 C 1.006 0.93328 0.59248 0.0
H831 H 0.04812 0.87961 0.48927 0.0
H832 H 0.05443 0.92759 0.56423 0.0
C833 C 0.97683 0.91934 0.58411 0.0
C834 C 0.64027 0.023 0.47287 0.0
C835 C 0.66694 0.01845 0.52068 0.0
H836 H 0.59116 0.02744 0.46949 0.0
C837 C 0.66316 0.0159 0.60674 0.0
H838 H 0.64183 0.02452 0.40654 0.0
C839 C 0.63369 0.01757 0.64334 0.0
C840 C 0.60707 0.0214 0.59487 0.0
H841 H 0.68302 1.01249 0.64597 0.0
H842 H 0.6317 0.0152 0.70943 0.0
C843 C 0.61095 0.02436 0.50918 0.0
C844 C 0.56459 0.63967 0.51661 0.0
C845 C 0.53909 0.65318 0.47692 0.0
H846 H 0.58122 0.60365 0.59508 0.0
C847 C 0.51001 0.63932 0.48859 0.0
H848 H 0.58744 0.64931 0.50904 0.0
C849 C 0.50659 0.61283 0.53736 0.0
C850 C 0.53213 0.59905 0.57587 0.0
H851 H 0.48968 0.64906 0.46036 0.0
H852 H 0.48376 0.60304 0.54439 0.0
C853 C 0.56115 0.61302 0.56498 0.0
C854 C 0.90421 0.57362 0.50664 0.0
C855 C 0.88043 0.5514 0.50726 0.0
H856 H 0.94986 0.58613 0.54479 0.0
C857 C 0.88621 0.52365 0.54933 0.0
H858 H 0.90132 0.59507 0.47401 0.0
C859 C 0.91467 0.51842 0.58882 0.0
C860 C 0.93821 0.54069 0.58786 0.0
H861 H 0.86875 0.50589 0.5519 0.0
H862 H 0.91861 0.49653 0.61802 0.0
C863 C 0.93251 0.56834 0.54624 0.0
loop_
_geom_bond_atom_site_label_1
_geom_bond_atom_site_label_2
_geom_bond_distance
_geom_bond_site_symmetry_2
_ccdc_geom_bond_type
C0 C1 1.384 . S
C0 H13 0.947 . S
C0 C35 1.382 . S
C1 C0 1.384 . S
C1 C2 1.378 . S
C2 C1 1.378 . S
C2 C3 1.378 . S
C2 H14 0.952 . S
C3 C2 1.378 . S
C3 H15 0.950 . S
C3 C34 1.383 . S
H4 C23 0.947 . S
H5 C24 0.946 . S
H6 C26 0.953 . S
H7 C27 0.945 . S
H8 C29 0.952 . S
H9 C30 0.949 1_556 S
H10 C32 0.950 . S
H11 C33 0.948 . S
H12 C35 0.951 . S
H13 C0 0.947 . S
H14 C2 0.952 . S
H15 C3 0.950 . S
N16 C19 1.382 . S
N16 C21 1.363 . S
N17 C19 1.371 . S
N17 C20 1.372 . S
N18 C20 1.361 . S
N18 C21 1.377 . S
C19 N16 1.382 . S
C19 N17 1.371 . S
C19 C22 1.480 . S
C20 N17 1.372 . S
C20 N18 1.361 . S
C20 C28 1.457 . S
C21 N16 1.363 . S
C21 N18 1.377 . S
C21 C34 1.479 . S
C22 C19 1.480 . S
C22 C23 1.383 . S
C22 C27 1.385 . S
C23 H4 0.947 . S
C23 C22 1.383 . S
C23 C24 1.388 . S
C24 H5 0.946 . S
C24 C23 1.388 . S
C24 C25 1.384 . S
C25 C24 1.384 . S
C25 C26 1.377 . S
C26 H6 0.953 . S
C26 C25 1.377 . S
C26 C27 1.369 . S
C27 H7 0.945 . S
C27 C22 1.385 . S
C27 C26 1.369 . S
C28 C20 1.457 . S
C28 C29 1.372 . S
C28 C33 1.364 . S
C29 H8 0.952 . S
C29 C28 1.372 . S
C29 C30 1.389 . S
C30 H9 0.949 1_554 S
C30 C29 1.389 . S
C30 C31 1.387 . S
C31 C30 1.387 . S
C31 C32 1.372 . S
C32 H10 0.950 . S
C32 C31 1.372 . S
C32 C33 1.379 . S
C33 H11 0.948 . S
C33 C28 1.364 . S
C33 C32 1.379 . S
C34 C3 1.383 . S
C34 C21 1.479 . S
C34 C35 1.398 . S
C35 C0 1.382 . S
C35 H12 0.951 . S
C35 C34 1.398 . S
C36 C37 1.384 . S
C36 H49 0.947 . S
C36 C71 1.382 . S
C37 C36 1.384 . S
C37 C38 1.378 . S
C38 C37 1.378 . S
C38 C39 1.378 . S
C38 H50 0.952 . S
C39 C38 1.378 . S
C39 H51 0.950 . S
C39 C70 1.383 . S
H40 C59 0.947 . S
H41 C60 0.946 . S
H42 C62 0.953 . S
H43 C63 0.945 . S
H44 C65 0.952 . S
H45 C66 0.949 1_556 S
H46 C68 0.950 . S
H47 C69 0.948 . S
H48 C71 0.951 . S
H49 C36 0.947 . S
H50 C38 0.952 . S
H51 C39 0.950 . S
N52 C55 1.382 . S
N52 C57 1.363 . S
N53 C55 1.371 . S
N53 C56 1.372 . S
N54 C56 1.361 . S
N54 C57 1.377 . S
C55 N52 1.382 . S
C55 N53 1.371 . S
C55 C58 1.480 . S
C56 N53 1.372 . S
C56 N54 1.361 . S
C56 C64 1.457 . S
C57 N52 1.363 . S
C57 N54 1.377 . S
C57 C70 1.479 . S
C58 C55 1.480 . S
C58 C59 1.383 . S
C58 C63 1.385 . S
C59 H40 0.947 . S
C59 C58 1.383 . S
C59 C60 1.388 . S
C60 H41 0.946 . S
C60 C59 1.388 . S
C60 C61 1.384 . S
C61 C60 1.384 . S
C61 C62 1.377 . S
C62 H42 0.953 . S
C62 C61 1.377 . S
C62 C63 1.369 . S
C63 H43 0.945 . S
C63 C58 1.385 . S
C63 C62 1.369 . S
C64 C56 1.457 . S
C64 C65 1.372 . S
C64 C69 1.364 . S
C65 H44 0.952 . S
C65 C64 1.372 . S
C65 C66 1.389 . S
C66 H45 0.949 1_554 S
C66 C65 1.389 . S
C66 C67 1.387 . S
C67 C66 1.387 . S
C67 C68 1.372 . S
C68 H46 0.950 . S
C68 C67 1.372 . S
C68 C69 1.379 . S
C69 H47 0.948 . S
C69 C64 1.364 . S
C69 C68 1.379 . S
C70 C39 1.383 . S
C70 C57 1.479 . S
C70 C71 1.398 . S
C71 C36 1.382 . S
C71 H48 0.951 . S
C71 C70 1.398 . S
C72 C73 1.384 . S
C72 H85 0.947 . S
C72 C107 1.382 . S
C73 C72 1.384 . S
C73 C74 1.378 . S
C74 C73 1.378 . S
C74 C75 1.378 . S
C74 H86 0.952 . S
C75 C74 1.378 . S
C75 H87 0.950 . S
C75 C106 1.383 . S
H76 C95 0.947 . S
H77 C96 0.946 . S
H78 C98 0.953 . S
H79 C99 0.945 . S
H80 C101 0.952 . S
H81 C102 0.949 1_556 S
H82 C104 0.950 . S
H83 C105 0.948 . S
H84 C107 0.951 . S
H85 C72 0.947 . S
H86 C74 0.952 . S
H87 C75 0.950 . S
N88 C91 1.382 . S
N88 C93 1.363 . S
N89 C91 1.371 . S
N89 C92 1.372 . S
N90 C92 1.361 . S
N90 C93 1.377 . S
C91 N88 1.382 . S
C91 N89 1.371 . S
C91 C94 1.480 . S
C92 N89 1.372 . S
C92 N90 1.361 . S
C92 C100 1.457 . S
C93 N88 1.363 . S
C93 N90 1.377 . S
C93 C106 1.479 . S
C94 C91 1.480 . S
C94 C95 1.383 . S
C94 C99 1.385 . S
C95 H76 0.947 . S
C95 C94 1.383 . S
C95 C96 1.388 . S
C96 H77 0.946 . S
C96 C95 1.388 . S
C96 C97 1.384 . S
C97 C96 1.384 . S
C97 C98 1.377 . S
C98 H78 0.953 . S
C98 C97 1.377 . S
C98 C99 1.369 . S
C99 H79 0.945 . S
C99 C94 1.385 . S
C99 C98 1.369 . S
C100 C92 1.457 . S
C100 C101 1.372 . S
C100 C105 1.364 . S
C101 H80 0.952 . S
C101 C100 1.372 . S
C101 C102 1.389 . S
C102 H81 0.949 1_554 S
C102 C101 1.389 . S
C102 C103 1.387 . S
C103 C102 1.387 . S
C103 C104 1.372 . S
C104 H82 0.950 . S
C104 C103 1.372 . S
C104 C105 1.379 . S
C105 H83 0.948 . S
C105 C100 1.364 . S
C105 C104 1.379 . S
C106 C75 1.383 . S
C106 C93 1.479 . S
C106 C107 1.398 . S
C107 C72 1.382 . S
C107 H84 0.951 . S
C107 C106 1.398 . S
C108 C109 1.384 . S
C108 H121 0.947 . S
C108 C143 1.382 . S
C109 C108 1.384 . S
C109 C110 1.378 . S
C110 C109 1.378 . S
C110 C111 1.378 . S
C110 H122 0.952 1_554 S
C111 C110 1.378 . S
C111 H123 0.950 . S
C111 C142 1.383 . S
H112 C131 0.947 . S
H113 C132 0.946 . S
H114 C134 0.953 . S
H115 C135 0.945 . S
H116 C137 0.952 . S
H117 C138 0.949 . S
H118 C140 0.950 . S
H119 C141 0.948 . S
H120 C143 0.951 . S
H121 C108 0.947 . S
H122 C110 0.952 1_556 S
H123 C111 0.950 . S
N124 C127 1.382 . S
N124 C129 1.363 . S
N125 C127 1.371 . S
N125 C128 1.372 . S
N126 C128 1.361 . S
N126 C129 1.377 . S
C127 N124 1.382 . S
C127 N125 1.371 . S
C127 C130 1.480 . S
C128 N125 1.372 . S
C128 N126 1.361 . S
C128 C136 1.457 . S
C129 N124 1.363 . S
C129 N126 1.377 . S
C129 C142 1.479 . S
C130 C127 1.480 . S
C130 C131 1.383 . S
C130 C135 1.385 . S
C131 H112 0.947 . S
C131 C130 1.383 . S
C131 C132 1.388 . S
C132 H113 0.946 . S
C132 C131 1.388 . S
C132 C133 1.384 . S
C133 C132 1.384 . S
C133 C134 1.377 . S
C134 H114 0.953 . S
C134 C133 1.377 . S
C134 C135 1.369 . S
C135 H115 0.945 . S
C135 C130 1.385 . S
C135 C134 1.369 . S
C136 C128 1.457 . S
C136 C137 1.372 . S
C136 C141 1.364 . S
C137 H116 0.952 . S
C137 C136 1.372 . S
C137 C138 1.389 . S
C138 H117 0.949 . S
C138 C137 1.389 . S
C138 C139 1.387 . S
C139 C138 1.387 . S
C139 C140 1.372 . S
C140 H118 0.950 . S
C140 C139 1.372 . S
C140 C141 1.379 . S
C141 H119 0.948 . S
C141 C136 1.364 . S
C141 C140 1.379 . S
C142 C111 1.383 . S
C142 C129 1.479 . S
C142 C143 1.398 . S
C143 C108 1.382 . S
C143 H120 0.951 . S
C143 C142 1.398 . S
C144 C145 1.384 . S
C144 H157 0.947 . S
C144 C179 1.382 . S
C145 C144 1.384 . S
C145 C146 1.378 . S
C146 C145 1.378 . S
C146 C147 1.378 . S
C146 H158 0.952 . S
C147 C146 1.378 . S
C147 H159 0.950 . S
C147 C178 1.383 . S
H148 C167 0.947 1_556 S
H149 C168 0.946 . S
H150 C170 0.953 . S
H151 C171 0.945 . S
H152 C173 0.952 . S
H153 C174 0.949 . S
H154 C176 0.950 . S
H155 C177 0.948 . S
H156 C179 0.951 . S
H157 C144 0.947 . S
H158 C146 0.952 . S
H159 C147 0.950 . S
N160 C163 1.382 1_556 S
N160 C165 1.363 . S
N161 C163 1.371 . S
N161 C164 1.372 . S
N162 C164 1.361 . S
N162 C165 1.377 1_554 S
C163 N160 1.382 1_554 S
C163 N161 1.371 . S
C163 C166 1.480 . S
C164 N161 1.372 . S
C164 N162 1.361 . S
C164 C172 1.457 . S
C165 N160 1.363 . S
C165 N162 1.377 1_556 S
C165 C178 1.479 . S
C166 C163 1.480 . S
C166 C167 1.383 . S
C166 C171 1.385 . S
C167 H148 0.947 1_554 S
C167 C166 1.383 . S
C167 C168 1.388 . S
C168 H149 0.946 . S
C168 C167 1.388 . S
C168 C169 1.384 . S
C169 C168 1.384 . S
C169 C170 1.377 . S
C170 H150 0.953 . S
C170 C169 1.377 . S
C170 C171 1.369 . S
C171 H151 0.945 . S
C171 C166 1.385 . S
C171 C170 1.369 . S
C172 C164 1.457 . S
C172 C173 1.372 . S
C172 C177 1.364 . S
C173 H152 0.952 . S
C173 C172 1.372 . S
C173 C174 1.389 . S
C174 H153 0.949 . S
C174 C173 1.389 . S
C174 C175 1.387 . S
C175 C174 1.387 . S
C175 C176 1.372 . S
C176 H154 0.950 . S
C176 C175 1.372 . S
C176 C177 1.379 . S
C177 H155 0.948 . S
C177 C172 1.364 . S
C177 C176 1.379 . S
C178 C147 1.383 . S
C178 C165 1.479 . S
C178 C179 1.398 . S
C179 C144 1.382 . S
C179 H156 0.951 . S
C179 C178 1.398 . S
C180 C181 1.384 . S
C180 H193 0.947 . S
C180 C215 1.382 . S
C181 C180 1.384 . S
C181 C182 1.378 . S
C182 C181 1.378 . S
C182 C183 1.378 . S
C182 H194 0.952 . S
C183 C182 1.378 . S
C183 H195 0.950 . S
C183 C214 1.383 . S
H184 C203 0.947 1_556 S
H185 C204 0.946 . S
H186 C206 0.953 . S
H187 C207 0.945 . S
H188 C209 0.952 . S
H189 C210 0.949 . S
H190 C212 0.950 . S
H191 C213 0.948 . S
H192 C215 0.951 . S
H193 C180 0.947 . S
H194 C182 0.952 . S
H195 C183 0.950 . S
N196 C199 1.382 1_556 S
N196 C201 1.363 . S
N197 C199 1.371 . S
N197 C200 1.372 . S
N198 C200 1.361 . S
N198 C201 1.377 1_554 S
C199 N196 1.382 1_554 S
C199 N197 1.371 . S
C199 C202 1.480 . S
C200 N197 1.372 . S
C200 N198 1.361 . S
C200 C208 1.457 . S
C201 N196 1.363 . S
C201 N198 1.377 1_556 S
C201 C214 1.479 . S
C202 C199 1.480 . S
C202 C203 1.383 . S
C202 C207 1.385 . S
C203 H184 0.947 1_554 S
C203 C202 1.383 . S
C203 C204 1.388 . S
C204 H185 0.946 . S
C204 C203 1.388 . S
C204 C205 1.384 . S
C205 C204 1.384 . S
C205 C206 1.377 . S
C206 H186 0.953 . S
C206 C205 1.377 . S
C206 C207 1.369 . S
C207 H187 0.945 . S
C207 C202 1.385 . S
C207 C206 1.369 . S
C208 C200 1.457 . S
C208 C209 1.372 . S
C208 C213 1.364 . S
C209 H188 0.952 . S
C209 C208 1.372 . S
C209 C210 1.389 . S
C210 H189 0.949 . S
C210 C209 1.389 . S
C210 C211 1.387 . S
C211 C210 1.387 . S
C211 C212 1.372 . S
C212 H190 0.950 . S
C212 C211 1.372 . S
C212 C213 1.379 . S
C213 H191 0.948 . S
C213 C208 1.364 . S
C213 C212 1.379 . S
C214 C183 1.383 . S
C214 C201 1.479 . S
C214 C215 1.398 . S
C215 C180 1.382 . S
C215 H192 0.951 . S
C215 C214 1.398 . S
C216 C217 1.384 . S
C216 H229 0.947 . S
C216 C251 1.382 . S
C217 C216 1.384 . S
C217 C218 1.378 . S
C218 C217 1.378 . S
C218 C219 1.378 . S
C218 H230 0.952 . S
C219 C218 1.378 . S
C219 H231 0.950 . S
C219 C250 1.383 . S
H220 C239 0.947 1_556 S
H221 C240 0.946 . S
H222 C242 0.953 . S
H223 C243 0.945 . S
H224 C245 0.952 . S
H225 C246 0.949 . S
H226 C248 0.950 . S
H227 C249 0.948 . S
H228 C251 0.951 . S
H229 C216 0.947 . S
H230 C218 0.952 . S
H231 C219 0.950 . S
N232 C235 1.382 1_556 S
N232 C237 1.363 . S
N233 C235 1.371 . S
N233 C236 1.372 . S
N234 C236 1.361 . S
N234 C237 1.377 1_554 S
C235 N232 1.382 1_554 S
C235 N233 1.371 . S
C235 C238 1.480 . S
C236 N233 1.372 . S
C236 N234 1.361 . S
C236 C244 1.457 . S
C237 N232 1.363 . S
C237 N234 1.377 1_556 S
C237 C250 1.479 . S
C238 C235 1.480 . S
C238 C239 1.383 . S
C238 C243 1.385 . S
C239 H220 0.947 1_554 S
C239 C238 1.383 . S
C239 C240 1.388 . S
C240 H221 0.946 . S
C240 C239 1.388 . S
C240 C241 1.384 . S
C241 C240 1.384 . S
C241 C242 1.377 . S
C242 H222 0.953 . S
C242 C241 1.377 . S
C242 C243 1.369 . S
C243 H223 0.945 . S
C243 C238 1.385 . S
C243 C242 1.369 . S
C244 C236 1.457 . S
C244 C245 1.372 . S
C244 C249 1.364 . S
C245 H224 0.952 . S
C245 C244 1.372 . S
C245 C246 1.389 . S
C246 H225 0.949 . S
C246 C245 1.389 . S
C246 C247 1.387 . S
C247 C246 1.387 . S
C247 C248 1.372 . S
C248 H226 0.950 . S
C248 C247 1.372 . S
C248 C249 1.379 . S
C249 H227 0.948 . S
C249 C244 1.364 . S
C249 C248 1.379 . S
C250 C219 1.383 . S
C250 C237 1.479 . S
C250 C251 1.398 . S
C251 C216 1.382 . S
C251 H228 0.951 . S
C251 C250 1.398 . S
C252 C253 1.384 . S
C252 H265 0.947 . S
C252 C287 1.382 . S
C253 C252 1.384 . S
C253 C254 1.378 . S
C254 C253 1.378 . S
C254 C255 1.378 . S
C254 H266 0.952 . S
C255 C254 1.378 . S
C255 H267 0.950 . S
C255 C286 1.383 . S
H256 C275 0.947 . S
H257 C276 0.946 . S
H258 C278 0.953 1_556 S
H259 C279 0.945 1_556 S
H260 C281 0.952 . S
H261 C282 0.949 . S
H262 C284 0.950 . S
H263 C285 0.948 . S
H264 C287 0.951 . S
H265 C252 0.947 . S
H266 C254 0.952 . S
H267 C255 0.950 . S
N268 C271 1.382 . S
N268 C273 1.363 . S
N269 C271 1.371 1_556 S
N269 C272 1.372 . S
N270 C272 1.361 1_554 S
N270 C273 1.377 . S
C271 N268 1.382 . S
C271 N269 1.371 1_554 S
C271 C274 1.480 . S
C272 N269 1.372 . S
C272 N270 1.361 1_556 S
C272 C280 1.457 . S
C273 N268 1.363 . S
C273 N270 1.377 . S
C273 C286 1.479 . S
C274 C271 1.480 . S
C274 C275 1.383 . S
C274 C279 1.385 . S
C275 H256 0.947 . S
C275 C274 1.383 . S
C275 C276 1.388 . S
C276 H257 0.946 . S
C276 C275 1.388 . S
C276 C277 1.384 . S
C277 C276 1.384 . S
C277 C278 1.377 . S
C278 H258 0.953 1_554 S
C278 C277 1.377 . S
C278 C279 1.369 . S
C279 H259 0.945 1_554 S
C279 C274 1.385 . S
C279 C278 1.369 . S
C280 C272 1.457 . S
C280 C281 1.372 . S
C280 C285 1.364 . S
C281 H260 0.952 . S
C281 C280 1.372 . S
C281 C282 1.389 . S
C282 H261 0.949 . S
C282 C281 1.389 . S
C282 C283 1.387 . S
C283 C282 1.387 . S
C283 C284 1.372 . S
C284 H262 0.950 . S
C284 C283 1.372 . S
C284 C285 1.379 . S
C285 H263 0.948 . S
C285 C280 1.364 . S
C285 C284 1.379 . S
C286 C255 1.383 . S
C286 C273 1.479 . S
C286 C287 1.398 . S
C287 C252 1.382 . S
C287 H264 0.951 . S
C287 C286 1.398 . S
Eu288 N317 2.600 . S
Eu288 N323 2.562 . S
Eu288 O332 2.462 . S
Eu288 O333 2.373 1_545 S
Eu288 O335 2.432 . S
Eu288 O336 2.291 1_655 S
Eu288 O340 2.335 1_655 S
Eu288 O343 2.372 . S
Eu288 C352 2.787 . S
C289 N290 1.382 . S
C289 C292 1.405 . S
C289 C296 1.448 . S
N290 C289 1.382 . S
N290 C293 1.315 1_545 S
N290 Eu299 2.592 1_545 S
C291 C293 1.397 1_545 S
C291 C294 1.367 . S
C291 H311 0.931 . S
C292 C289 1.405 . S
C292 C294 1.403 . S
C292 C298 1.439 . S
C293 N290 1.315 1_565 S
C293 C291 1.397 1_565 S
C293 H304 0.930 . S
C294 C291 1.367 . S
C294 C292 1.403 . S
C294 H315 0.929 . S
C295 C296 1.430 . S
C295 C297 1.387 1_556 S
C295 C301 1.404 1_556 S
C296 C289 1.448 . S
C296 C295 1.430 . S
C296 N300 1.351 . S
C297 C295 1.387 1_554 S
C297 C298 1.374 1_554 S
C297 H312 0.931 . S
C298 C292 1.439 . S
C298 C297 1.374 1_556 S
C298 H313 0.931 . S
Eu299 N290 2.592 1_565 S
Eu299 N300 2.562 1_565 S
Eu299 O334 2.335 . S
Eu299 O337 2.372 . S
Eu299 O338 2.462 . S
Eu299 O339 2.373 1_565 S
Eu299 O341 2.432 . S
Eu299 O342 2.290 1_465 S
Eu299 C363 2.787 . S
N300 C296 1.351 . S
N300 Eu299 2.562 1_545 S
N300 C302 1.325 . S
C301 C295 1.404 1_554 S
C301 C303 1.366 . S
C301 H309 0.930 . S
C302 N300 1.325 . S
C302 C303 1.416 1_556 S
C302 H308 0.929 . S
C303 C301 1.366 . S
C303 C302 1.416 1_554 S
C303 H305 0.930 . S
H304 C293 0.930 . S
H305 C303 0.930 . S
H306 C321 0.930 . S
H307 C328 0.930 1_455 S
H308 C302 0.929 . S
H309 C301 0.930 . S
H310 C324 0.929 1_455 S
H311 C291 0.931 . S
H312 C297 0.931 . S
H313 C298 0.931 . S
H314 C319 0.931 . S
H315 C294 0.929 . S
H316 C327 0.930 . S
N317 Eu288 2.600 . S
N317 C318 1.354 1_545 S
N317 C321 1.319 . S
C318 N317 1.354 1_565 S
C318 C320 1.414 . S
C318 C326 1.450 . S
C319 H314 0.931 . S
C319 C321 1.397 . S
C319 C322 1.367 1_545 S
C320 C318 1.414 . S
C320 C322 1.403 . S
C320 C353 1.439 . S
C321 H306 0.930 . S
C321 N317 1.319 . S
C321 C319 1.397 . S
C322 C319 1.367 1_565 S
C322 C320 1.403 . S
C322 H329 0.929 . S
N323 Eu288 2.562 . S
N323 C324 1.325 . S
N323 C326 1.351 1_545 S
C324 H310 0.929 1_655 S
C324 N323 1.325 . S
C324 C328 1.416 1_545 S
C325 C326 1.430 . S
C325 C327 1.404 . S
C325 C354 1.387 . S
C326 C318 1.450 . S
C326 N323 1.351 1_565 S
C326 C325 1.430 . S
C327 H316 0.930 . S
C327 C325 1.404 . S
C327 C328 1.366 . S
C328 H307 0.930 1_655 S
C328 C324 1.416 1_565 S
C328 C327 1.366 . S
H329 C322 0.929 . S
H330 C353 0.931 . S
H331 C354 0.931 . S
O332 Eu288 2.462 . S
O332 C352 1.252 . S
O333 Eu288 2.373 1_565 S
O333 C344 1.249 . S
O334 Eu299 2.335 . S
O334 C344 1.264 1_455 S
O335 Eu288 2.432 . S
O335 C352 1.268 . S
O336 Eu288 2.291 1_455 S
O336 C351 1.255 . S
O337 Eu299 2.372 . S
O337 C351 1.257 1_565 S
O338 Eu299 2.462 . S
O338 C363 1.252 . S
O339 Eu299 2.373 1_545 S
O339 C355 1.249 . S
O340 Eu288 2.335 1_455 S
O340 C355 1.264 . S
O341 Eu299 2.432 . S
O341 C363 1.268 . S
O342 Eu299 2.290 1_645 S
O342 C362 1.256 . S
O343 Eu288 2.372 . S
O343 C362 1.257 . S
C344 O333 1.249 . S
C344 O334 1.264 1_655 S
C345 C348 1.382 . S
C345 C350 1.390 . S
C345 C352 1.506 . S
C346 C347 1.398 . S
C346 C350 1.392 . S
C347 C346 1.398 . S
C347 C349 1.372 . S
C347 H364 0.931 . S
C348 C345 1.382 . S
C348 C349 1.390 . S
C348 H365 0.931 . S
C349 C347 1.372 . S
C349 C348 1.390 . S
C349 H366 0.929 . S
C350 C345 1.390 . S
C350 C346 1.392 . S
C350 H367 0.930 1_655 S
C351 O336 1.255 . S
C351 O337 1.257 1_545 S
C352 Eu288 2.787 . S
C352 O332 1.252 . S
C352 O335 1.268 . S
C352 C345 1.506 . S
C353 C320 1.439 . S
C353 H330 0.931 . S
C353 C354 1.374 . S
C354 C325 1.387 . S
C354 H331 0.931 . S
C354 C353 1.374 . S
C355 O339 1.249 . S
C355 O340 1.264 . S
C356 C359 1.382 . S
C356 C360 1.390 . S
C356 C363 1.506 . S
C357 C358 1.398 . S
C357 C360 1.392 . S
C358 C357 1.398 . S
C358 C361 1.372 . S
C358 H368 0.931 . S
C359 C356 1.382 . S
C359 C361 1.390 . S
C359 H369 0.931 . S
C360 C356 1.390 . S
C360 C357 1.392 . S
C360 H370 0.930 . S
C361 C358 1.372 . S
C361 C359 1.390 . S
C361 H371 0.929 . S
C362 O342 1.256 . S
C362 O343 1.257 . S
C363 Eu299 2.787 . S
C363 O338 1.252 . S
C363 O341 1.268 . S
C363 C356 1.506 . S
H364 C347 0.931 . S
H365 C348 0.931 . S
H366 C349 0.929 . S
H367 C350 0.930 1_455 S
H368 C358 0.931 . S
H369 C359 0.931 . S
H370 C360 0.930 . S
H371 C361 0.929 . S
Eu372 N401 2.600 . S
Eu372 N407 2.562 . S
Eu372 O416 2.462 . S
Eu372 O417 2.373 . S
Eu372 O419 2.432 . S
Eu372 O420 2.291 . S
Eu372 O424 2.335 1_545 S
Eu372 O427 2.372 . S
Eu372 C436 2.787 . S
C373 N374 1.365 . S
C373 C376 1.405 . S
C373 C380 1.448 . S
N374 C373 1.365 . S
N374 C377 1.319 . S
N374 Eu383 2.600 . S
C375 C377 1.397 . S
C375 C378 1.367 . S
C375 H395 0.931 . S
C376 C373 1.405 . S
C376 C378 1.403 . S
C376 C382 1.439 . S
C377 N374 1.319 . S
C377 C375 1.397 . S
C377 H388 0.930 . S
C378 C375 1.367 . S
C378 C376 1.403 . S
C378 H399 0.929 . S
C379 C380 1.430 . S
C379 C381 1.387 . S
C379 C385 1.404 . S
C380 C373 1.448 . S
C380 C379 1.430 . S
C380 N384 1.351 . S
C381 C379 1.387 . S
C381 C382 1.374 . S
C381 H396 0.931 . S
C382 C376 1.439 . S
C382 C381 1.374 . S
C382 H397 0.931 . S
Eu383 N374 2.600 . S
Eu383 N384 2.562 . S
Eu383 O418 2.335 1_565 S
Eu383 O421 2.372 . S
Eu383 O422 2.462 . S
Eu383 O423 2.373 . S
Eu383 O425 2.432 . S
Eu383 O426 2.275 1_565 S
Eu383 C447 2.787 . S
N384 C380 1.351 . S
N384 Eu383 2.562 . S
N384 C386 1.325 . S
C385 C379 1.404 . S
C385 C387 1.366 . S
C385 H393 0.930 . S
C386 N384 1.325 . S
C386 C387 1.416 . S
C386 H392 0.929 . S
C387 C385 1.366 . S
C387 C386 1.416 . S
C387 H389 0.930 . S
H388 C377 0.930 . S
H389 C387 0.930 . S
H390 C405 0.930 . S
H391 C412 0.930 . S
H392 C386 0.929 . S
H393 C385 0.930 . S
H394 C408 0.929 . S
H395 C375 0.931 . S
H396 C381 0.931 . S
H397 C382 0.931 . S
H398 C403 0.931 . S
H399 C378 0.929 . S
H400 C411 0.930 . S
N401 Eu372 2.600 . S
N401 C402 1.365 . S
N401 C405 1.319 . S
C402 N401 1.365 . S
C402 C404 1.405 . S
C402 C410 1.448 . S
C403 H398 0.931 . S
C403 C405 1.397 . S
C403 C406 1.367 . S
C404 C402 1.405 . S
C404 C406 1.403 . S
C404 C437 1.439 . S
C405 H390 0.930 . S
C405 N401 1.319 . S
C405 C403 1.397 . S
C406 C403 1.367 . S
C406 C404 1.403 . S
C406 H413 0.929 . S
N407 Eu372 2.562 . S
N407 C408 1.325 . S
N407 C410 1.351 . S
C408 H394 0.929 . S
C408 N407 1.325 . S
C408 C412 1.416 . S
C409 C410 1.430 . S
C409 C411 1.404 . S
C409 C438 1.387 . S
C410 C402 1.448 . S
C410 N407 1.351 . S
C410 C409 1.430 . S
C411 H400 0.930 . S
C411 C409 1.404 . S
C411 C412 1.366 . S
C412 H391 0.930 . S
C412 C408 1.416 . S
C412 C411 1.366 . S
H413 C406 0.929 . S
H414 C437 0.931 . S
H415 C438 0.931 . S
O416 Eu372 2.462 . S
O416 C436 1.252 . S
O417 Eu372 2.373 . S
O417 C428 1.249 . S
O418 Eu383 2.335 1_545 S
O418 C428 1.264 . S
O419 Eu372 2.432 . S
O419 C436 1.268 . S
O420 Eu372 2.291 . S
O420 C435 1.255 1_545 S
O421 Eu383 2.372 . S
O421 C435 1.257 . S
O422 Eu383 2.462 . S
O422 C447 1.252 . S
O423 Eu383 2.373 . S
O423 C439 1.249 . S
O424 Eu372 2.335 1_565 S
O424 C439 1.264 . S
O425 Eu383 2.432 . S
O425 C447 1.268 . S
O426 Eu383 2.275 1_545 S
O426 C446 1.279 . S
O427 Eu372 2.372 . S
O427 C446 1.257 . S
C428 O417 1.249 . S
C428 O418 1.264 . S
C429 C432 1.382 1_556 S
C429 C434 1.390 . S
C429 C436 1.506 . S
C430 C431 1.398 1_556 S
C430 C434 1.392 . S
C431 C430 1.398 1_554 S
C431 C433 1.372 . S
C431 H448 0.931 . S
C432 C429 1.382 1_554 S
C432 C433 1.390 . S
C432 H449 0.931 . S
C433 C431 1.372 . S
C433 C432 1.390 . S
C433 H450 0.929 . S
C434 C429 1.390 . S
C434 C430 1.392 . S
C434 H451 0.930 . S
C435 O420 1.255 1_565 S
C435 O421 1.257 . S
C436 Eu372 2.787 . S
C436 O416 1.252 . S
C436 O419 1.268 . S
C436 C429 1.506 . S
C437 C404 1.439 . S
C437 H414 0.931 . S
C437 C438 1.374 . S
C438 C409 1.387 . S
C438 H415 0.931 . S
C438 C437 1.374 . S
C439 O423 1.249 . S
C439 O424 1.264 . S
C440 C443 1.382 . S
C440 C444 1.390 . S
C440 C447 1.506 . S
C441 C442 1.398 . S
C441 C444 1.392 . S
C442 C441 1.398 . S
C442 C445 1.372 . S
C442 H452 0.931 . S
C443 C440 1.382 . S
C443 C445 1.390 . S
C443 H453 0.931 . S
C444 C440 1.390 . S
C444 C441 1.392 . S
C444 H454 0.942 . S
C445 C442 1.372 . S
C445 C443 1.390 . S
C445 H455 0.929 . S
C446 O426 1.279 . S
C446 O427 1.257 . S
C447 Eu383 2.787 . S
C447 O422 1.252 . S
C447 O425 1.268 . S
C447 C440 1.506 . S
H448 C431 0.931 . S
H449 C432 0.931 . S
H450 C433 0.929 . S
H451 C434 0.930 . S
H452 C442 0.931 . S
H453 C443 0.931 . S
H454 C444 0.942 . S
H455 C445 0.929 . S
Eu456 N485 2.600 . S
Eu456 N491 2.562 . S
Eu456 O500 2.462 . S
Eu456 O501 2.373 . S
Eu456 O503 2.432 . S
Eu456 O504 2.291 . S
Eu456 O508 2.335 . S
Eu456 O511 2.372 . S
Eu456 C520 2.787 . S
C457 N458 1.365 . S
C457 C460 1.405 . S
C457 C464 1.448 . S
N458 C457 1.365 . S
N458 C461 1.319 . S
N458 Eu467 2.600 . S
C459 C461 1.397 . S
C459 C462 1.367 . S
C459 H479 0.931 . S
C460 C457 1.405 . S
C460 C462 1.403 . S
C460 C466 1.439 . S
C461 N458 1.319 . S
C461 C459 1.397 . S
C461 H472 0.930 . S
C462 C459 1.367 . S
C462 C460 1.403 . S
C462 H483 0.929 . S
C463 C464 1.430 . S
C463 C465 1.387 1_556 S
C463 C469 1.404 1_556 S
C464 C457 1.448 . S
C464 C463 1.430 . S
C464 N468 1.351 . S
C465 C463 1.387 1_554 S
C465 C466 1.374 1_554 S
C465 H480 0.931 . S
C466 C460 1.439 . S
C466 C465 1.374 1_556 S
C466 H481 0.931 . S
Eu467 N458 2.600 . S
Eu467 N468 2.562 . S
Eu467 O502 2.335 . S
Eu467 O505 2.372 . S
Eu467 O506 2.462 . S
Eu467 O507 2.373 . S
Eu467 O509 2.432 . S
Eu467 O510 2.291 . S
Eu467 C531 2.787 . S
N468 C464 1.351 . S
N468 Eu467 2.562 . S
N468 C470 1.325 . S
C469 C463 1.404 1_554 S
C469 C471 1.366 . S
C469 H477 0.930 . S
C470 N468 1.325 . S
C470 C471 1.416 1_556 S
C470 H476 0.929 . S
C471 C469 1.366 . S
C471 C470 1.416 1_554 S
C471 H473 0.930 . S
H472 C461 0.930 . S
H473 C471 0.930 . S
H474 C489 0.930 . S
H475 C496 0.930 . S
H476 C470 0.929 . S
H477 C469 0.930 . S
H478 C492 0.929 . S
H479 C459 0.931 . S
H480 C465 0.931 . S
H481 C466 0.931 . S
H482 C487 0.931 . S
H483 C462 0.929 . S
H484 C495 0.930 . S
N485 Eu456 2.600 . S
N485 C486 1.365 . S
N485 C489 1.319 . S
C486 N485 1.365 . S
C486 C488 1.405 . S
C486 C494 1.448 . S
C487 H482 0.931 . S
C487 C489 1.397 . S
C487 C490 1.367 . S
C488 C486 1.405 . S
C488 C490 1.403 . S
C488 C521 1.439 . S
C489 H474 0.930 . S
C489 N485 1.319 . S
C489 C487 1.397 . S
C490 C487 1.367 . S
C490 C488 1.403 . S
C490 H497 0.929 . S
N491 Eu456 2.562 . S
N491 C492 1.325 . S
N491 C494 1.351 . S
C492 H478 0.929 . S
C492 N491 1.325 . S
C492 C496 1.416 . S
C493 C494 1.430 . S
C493 C495 1.404 . S
C493 C522 1.387 . S
C494 C486 1.448 . S
C494 N491 1.351 . S
C494 C493 1.430 . S
C495 H484 0.930 . S
C495 C493 1.404 . S
C495 C496 1.366 . S
C496 H475 0.930 . S
C496 C492 1.416 . S
C496 C495 1.366 . S
H497 C490 0.929 . S
H498 C521 0.931 . S
H499 C522 0.931 . S
O500 Eu456 2.462 . S
O500 C520 1.252 . S
O501 Eu456 2.373 . S
O501 C512 1.249 . S
O502 Eu467 2.335 . S
O502 C512 1.264 . S
O503 Eu456 2.432 . S
O503 C520 1.268 . S
O504 Eu456 2.291 . S
O504 C519 1.255 . S
O505 Eu467 2.372 . S
O505 C519 1.257 . S
O506 Eu467 2.462 . S
O506 C531 1.252 . S
O507 Eu467 2.373 . S
O507 C523 1.249 . S
O508 Eu456 2.335 . S
O508 C523 1.264 . S
O509 Eu467 2.432 . S
O509 C531 1.268 . S
O510 Eu467 2.291 . S
O510 C530 1.255 . S
O511 Eu456 2.372 . S
O511 C530 1.257 . S
C512 O501 1.249 . S
C512 O502 1.264 . S
C513 C516 1.382 . S
C513 C518 1.390 . S
C513 C520 1.506 . S
C514 C515 1.398 . S
C514 C518 1.392 . S
C515 C514 1.398 . S
C515 C517 1.372 . S
C515 H532 0.931 . S
C516 C513 1.382 . S
C516 C517 1.390 . S
C516 H533 0.931 . S
C517 C515 1.372 . S
C517 C516 1.390 . S
C517 H534 0.929 . S
C518 C513 1.390 . S
C518 C514 1.392 . S
C518 H535 0.930 . S
C519 O504 1.255 . S
C519 O505 1.257 . S
C520 Eu456 2.787 . S
C520 O500 1.252 . S
C520 O503 1.268 . S
C520 C513 1.506 . S
C521 C488 1.439 . S
C521 H498 0.931 . S
C521 C522 1.374 . S
C522 C493 1.387 . S
C522 H499 0.931 . S
C522 C521 1.374 . S
C523 O507 1.249 . S
C523 O508 1.264 . S
C524 C527 1.382 . S
C524 C528 1.390 . S
C524 C531 1.506 . S
C525 C526 1.398 . S
C525 C528 1.392 . S
C526 C525 1.398 . S
C526 C529 1.372 . S
C526 H536 0.931 . S
C527 C524 1.382 . S
C527 C529 1.390 . S
C527 H537 0.931 . S
C528 C524 1.390 . S
C528 C525 1.392 . S
C528 H538 0.930 . S
C529 C526 1.372 . S
C529 C527 1.390 . S
C529 H539 0.929 . S
C530 O510 1.255 . S
C530 O511 1.257 . S
C531 Eu467 2.787 . S
C531 O506 1.252 . S
C531 O509 1.268 . S
C531 C524 1.506 . S
H532 C515 0.931 . S
H533 C516 0.931 . S
H534 C517 0.929 . S
H535 C518 0.930 . S
H536 C526 0.931 . S
H537 C527 0.931 . S
H538 C528 0.930 . S
H539 C529 0.929 . S
Eu540 N569 2.600 . S
Eu540 N575 2.562 . S
Eu540 O584 2.462 . S
Eu540 O585 2.373 1_455 S
Eu540 O587 2.432 . S
Eu540 O588 2.291 . S
Eu540 O592 2.335 . S
Eu540 O595 2.372 . S
Eu540 C604 2.787 . S
C541 N542 1.365 1_455 S
C541 C544 1.405 . S
C541 C548 1.448 . S
N542 C541 1.365 1_655 S
N542 C545 1.319 . S
N542 Eu551 2.600 . S
C543 C545 1.397 1_455 S
C543 C546 1.367 . S
C543 H563 0.931 . S
C544 C541 1.405 . S
C544 C546 1.403 . S
C544 C550 1.439 . S
C545 N542 1.319 . S
C545 C543 1.397 1_655 S
C545 H556 0.930 . S
C546 C543 1.367 . S
C546 C544 1.403 . S
C546 H567 0.929 . S
C547 C548 1.430 . S
C547 C549 1.387 1_556 S
C547 C553 1.404 1_556 S
C548 C541 1.448 . S
C548 C547 1.430 . S
C548 N552 1.351 . S
C549 C547 1.387 1_554 S
C549 C550 1.374 1_554 S
C549 H564 0.931 . S
C550 C544 1.439 . S
C550 C549 1.374 1_556 S
C550 H565 0.931 . S
Eu551 N542 2.600 . S
Eu551 N552 2.562 1_655 S
Eu551 O586 2.335 . S
Eu551 O589 2.372 . S
Eu551 O590 2.462 . S
Eu551 O591 2.373 1_655 S
Eu551 O593 2.432 . S
Eu551 O594 2.291 . S
Eu551 C615 2.787 . S
N552 C548 1.351 . S
N552 Eu551 2.562 1_455 S
N552 C554 1.325 . S
C553 C547 1.404 1_554 S
C553 C555 1.366 . S
C553 H561 0.930 . S
C554 N552 1.325 . S
C554 C555 1.416 1_556 S
C554 H560 0.929 1_455 S
C555 C553 1.366 . S
C555 C554 1.416 1_554 S
C555 H557 0.930 . S
H556 C545 0.930 . S
H557 C555 0.930 . S
H558 C573 0.930 . S
H559 C580 0.930 . S
H560 C554 0.929 1_655 S
H561 C553 0.930 . S
H562 C576 0.929 . S
H563 C543 0.931 . S
H564 C549 0.931 . S
H565 C550 0.931 . S
H566 C571 0.931 . S
H567 C546 0.929 . S
H568 C579 0.930 . S
N569 Eu540 2.600 . S
N569 C570 1.365 1_455 S
N569 C573 1.319 . S
C570 N569 1.365 1_655 S
C570 C572 1.405 . S
C570 C578 1.448 . S
C571 H566 0.931 . S
C571 C573 1.397 . S
C571 C574 1.367 1_455 S
C572 C570 1.405 . S
C572 C574 1.403 . S
C572 C605 1.439 . S
C573 H558 0.930 . S
C573 N569 1.319 . S
C573 C571 1.397 . S
C574 C571 1.367 1_655 S
C574 C572 1.403 . S
C574 H581 0.929 . S
N575 Eu540 2.562 . S
N575 C576 1.325 . S
N575 C578 1.351 1_455 S
C576 H562 0.929 . S
C576 N575 1.325 . S
C576 C580 1.416 1_455 S
C577 C578 1.430 . S
C577 C579 1.404 . S
C577 C606 1.387 . S
C578 C570 1.448 . S
C578 N575 1.351 1_655 S
C578 C577 1.430 . S
C579 H568 0.930 . S
C579 C577 1.404 . S
C579 C580 1.366 . S
C580 H559 0.930 . S
C580 C576 1.416 1_655 S
C580 C579 1.366 . S
H581 C574 0.929 . S
H582 C605 0.931 . S
H583 C606 0.931 . S
O584 Eu540 2.462 . S
O584 C604 1.252 . S
O585 Eu540 2.373 1_655 S
O585 C596 1.249 . S
O586 Eu551 2.335 . S
O586 C596 1.264 . S
O587 Eu540 2.432 . S
O587 C604 1.268 . S
O588 Eu540 2.291 . S
O588 C603 1.255 . S
O589 Eu551 2.372 . S
O589 C603 1.257 1_655 S
O590 Eu551 2.462 . S
O590 C615 1.252 . S
O591 Eu551 2.373 1_455 S
O591 C607 1.249 . S
O592 Eu540 2.335 . S
O592 C607 1.264 . S
O593 Eu551 2.432 . S
O593 C615 1.268 . S
O594 Eu551 2.291 . S
O594 C614 1.255 1_655 S
O595 Eu540 2.372 . S
O595 C614 1.257 . S
C596 O585 1.249 . S
C596 O586 1.264 . S
C597 C600 1.382 . S
C597 C602 1.390 . S
C597 C604 1.506 . S
C598 C599 1.398 . S
C598 C602 1.392 . S
C599 C598 1.398 . S
C599 C601 1.372 . S
C599 H616 0.931 . S
C600 C597 1.382 . S
C600 C601 1.390 . S
C600 H617 0.931 . S
C601 C599 1.372 . S
C601 C600 1.390 . S
C601 H618 0.929 . S
C602 C597 1.390 . S
C602 C598 1.392 . S
C602 H619 0.930 . S
C603 O588 1.255 . S
C603 O589 1.257 1_455 S
C604 Eu540 2.787 . S
C604 O584 1.252 . S
C604 O587 1.268 . S
C604 C597 1.506 . S
C605 C572 1.439 . S
C605 H582 0.931 . S
C605 C606 1.374 . S
C606 C577 1.387 . S
C606 H583 0.931 . S
C606 C605 1.374 . S
C607 O591 1.249 . S
C607 O592 1.264 . S
C608 C611 1.382 . S
C608 C612 1.390 . S
C608 C615 1.506 . S
C609 C610 1.398 . S
C609 C612 1.392 . S
C610 C609 1.398 . S
C610 C613 1.372 . S
C610 H620 0.931 . S
C611 C608 1.382 . S
C611 C613 1.390 . S
C611 H621 0.931 . S
C612 C608 1.390 . S
C612 C609 1.392 . S
C612 H622 0.930 . S
C613 C610 1.372 . S
C613 C611 1.390 . S
C613 H623 0.929 . S
C614 O594 1.255 1_455 S
C614 O595 1.257 . S
C615 Eu551 2.787 . S
C615 O590 1.252 . S
C615 O593 1.268 . S
C615 C608 1.506 . S
H616 C599 0.931 . S
H617 C600 0.931 . S
H618 C601 0.929 . S
H619 C602 0.930 . S
H620 C610 0.931 . S
H621 C611 0.931 . S
H622 C612 0.930 . S
H623 C613 0.929 . S
C624 C625 1.387 . S
C624 H628 0.950 . S
C624 C633 1.390 . S
C625 C624 1.387 . S
C625 C627 1.387 . S
H626 C633 0.950 . S
C627 C625 1.387 . S
C627 C629 1.390 . S
C627 H631 0.950 . S
H628 C624 0.950 . S
C629 C627 1.390 . S
C629 C630 1.387 . S
C629 H632 0.950 . S
C630 C629 1.387 . S
C630 C633 1.387 . S
H631 C627 0.950 . S
H632 C629 0.950 . S
C633 C624 1.390 . S
C633 H626 0.950 . S
C633 C630 1.387 . S
C634 C635 1.387 . S
C634 H638 0.950 . S
C634 C643 1.390 . S
C635 C634 1.387 . S
C635 C637 1.387 . S
H636 C643 0.950 . S
C637 C635 1.387 . S
C637 C639 1.390 . S
C637 H641 0.950 . S
H638 C634 0.950 . S
C639 C637 1.390 . S
C639 C640 1.387 . S
C639 H642 0.950 . S
C640 C639 1.387 . S
C640 C643 1.387 . S
H641 C637 0.950 . S
H642 C639 0.950 . S
C643 C634 1.390 . S
C643 H636 0.950 . S
C643 C640 1.387 . S
C644 C645 1.387 . S
C644 H648 0.950 . S
C644 C653 1.390 . S
C645 C644 1.387 . S
C645 C647 1.387 . S
H646 C653 0.950 . S
C647 C645 1.387 . S
C647 C649 1.390 . S
C647 H651 0.950 . S
H648 C644 0.950 . S
C649 C647 1.390 . S
C649 C650 1.387 . S
C649 H652 0.950 . S
C650 C649 1.387 . S
C650 C653 1.387 . S
H651 C647 0.950 . S
H652 C649 0.950 . S
C653 C644 1.390 . S
C653 H646 0.950 . S
C653 C650 1.387 . S
C654 C655 1.387 . S
C654 H658 0.950 . S
C654 C663 1.390 . S
C655 C654 1.387 . S
C655 C657 1.387 . S
H656 C663 0.950 . S
C657 C655 1.387 . S
C657 C659 1.390 . S
C657 H661 0.950 . S
H658 C654 0.950 . S
C659 C657 1.390 . S
C659 C660 1.387 . S
C659 H662 0.950 . S
C660 C659 1.387 . S
C660 C663 1.387 . S
H661 C657 0.950 . S
H662 C659 0.950 . S
C663 C654 1.390 . S
C663 H656 0.950 . S
C663 C660 1.387 . S
C664 C665 1.387 . S
C664 H668 0.950 . S
C664 C673 1.390 1_554 S
C665 C664 1.387 . S
C665 C667 1.387 1_565 S
H666 C673 0.950 . S
C667 C665 1.387 1_545 S
C667 C669 1.390 1_554 S
C667 H671 0.950 . S
H668 C664 0.950 . S
C669 C667 1.390 1_556 S
C669 C670 1.387 1_545 S
C669 H672 0.950 . S
C670 C669 1.387 1_565 S
C670 C673 1.387 . S
H671 C667 0.950 . S
H672 C669 0.950 . S
C673 C664 1.390 1_556 S
C673 H666 0.950 . S
C673 C670 1.387 . S
C674 C675 1.387 . S
C674 H678 0.950 . S
C674 C683 1.390 1_554 S
C675 C674 1.387 . S
C675 C677 1.387 . S
H676 C683 0.950 . S
C677 C675 1.387 . S
C677 C679 1.390 1_554 S
C677 H681 0.950 . S
H678 C674 0.950 . S
C679 C677 1.390 1_556 S
C679 C680 1.387 . S
C679 H682 0.950 . S
C680 C679 1.387 . S
C680 C683 1.387 . S
H681 C677 0.950 . S
H682 C679 0.950 . S
C683 C674 1.390 1_556 S
C683 H676 0.950 . S
C683 C680 1.387 . S
C684 C685 1.387 . S
C684 H688 0.950 . S
C684 C693 1.390 1_554 S
C685 C684 1.387 . S
C685 C687 1.387 . S
H686 C693 0.950 . S
C687 C685 1.387 . S
C687 C689 1.390 1_554 S
C687 H691 0.950 . S
H688 C684 0.950 . S
C689 C687 1.390 1_556 S
C689 C690 1.387 . S
C689 H692 0.950 . S
C690 C689 1.387 . S
C690 C693 1.387 . S
H691 C687 0.950 . S
H692 C689 0.950 . S
C693 C684 1.390 1_556 S
C693 H686 0.950 . S
C693 C690 1.387 . S
C694 C695 1.387 . S
C694 H698 0.950 . S
C694 C703 1.390 1_554 S
C695 C694 1.387 . S
C695 C697 1.387 . S
H696 C703 0.950 . S
C697 C695 1.387 . S
C697 C699 1.390 1_554 S
C697 H701 0.957 . S
H698 C694 0.950 . S
C699 C697 1.390 1_556 S
C699 C700 1.387 . S
C699 H702 0.950 1_655 S
C700 C699 1.387 . S
C700 C703 1.387 . S
H701 C697 0.957 . S
H702 C699 0.950 1_455 S
C703 C694 1.390 1_556 S
C703 H696 0.950 . S
C703 C700 1.387 . S
C704 C705 1.387 . S
C704 H708 0.950 . S
C704 C713 1.390 1_455 S
C705 C704 1.387 . S
C705 C707 1.387 . S
H706 C713 0.950 . S
C707 C705 1.387 . S
C707 C709 1.390 . S
C707 H711 0.950 . S
H708 C704 0.950 . S
C709 C707 1.390 . S
C709 C710 1.387 1_455 S
C709 H712 0.950 . S
C710 C709 1.387 1_655 S
C710 C713 1.387 . S
H711 C707 0.950 . S
H712 C709 0.950 . S
C713 C704 1.390 1_655 S
C713 H706 0.950 . S
C713 C710 1.387 . S
C714 C715 1.387 . S
C714 H718 0.950 . S
C714 C723 1.390 . S
C715 C714 1.387 . S
C715 C717 1.387 . S
H716 C723 0.950 . S
C717 C715 1.387 . S
C717 C719 1.390 1_545 S
C717 H721 0.950 . S
H718 C714 0.950 . S
C719 C717 1.390 1_565 S
C719 C720 1.387 . S
C719 H722 0.950 . S
C720 C719 1.387 . S
C720 C723 1.387 1_565 S
H721 C717 0.950 . S
H722 C719 0.950 . S
C723 C714 1.390 . S
C723 H716 0.950 . S
C723 C720 1.387 1_545 S
C724 C725 1.387 . S
C724 H728 0.950 . S
C724 C733 1.390 . S
C725 C724 1.387 . S
C725 C727 1.387 . S
H726 C733 0.950 . S
C727 C725 1.387 . S
C727 C729 1.390 . S
C727 H731 0.950 . S
H728 C724 0.950 . S
C729 C727 1.390 . S
C729 C730 1.387 . S
C729 H732 0.950 . S
C730 C729 1.387 . S
C730 C733 1.387 . S
H731 C727 0.950 . S
H732 C729 0.950 . S
C733 C724 1.390 . S
C733 H726 0.950 . S
C733 C730 1.387 . S
C734 C735 1.387 . S
C734 H738 0.950 . S
C734 C743 1.390 . S
C735 C734 1.387 . S
C735 C737 1.387 . S
H736 C743 0.950 . S
C737 C735 1.387 . S
C737 C739 1.390 . S
C737 H741 0.950 . S
H738 C734 0.950 . S
C739 C737 1.390 . S
C739 C740 1.387 . S
C739 H742 0.950 . S
C740 C739 1.387 . S
C740 C743 1.387 . S
H741 C737 0.950 . S
H742 C739 0.950 . S
C743 C734 1.390 . S
C743 H736 0.950 . S
C743 C740 1.387 . S
C744 C745 1.387 . S
C744 H748 0.950 . S
C744 C753 1.390 1_655 S
C745 C744 1.387 . S
C745 C747 1.387 1_554 S
H746 C753 0.950 . S
C747 C745 1.387 1_556 S
C747 C749 1.390 1_655 S
C747 H751 0.950 . S
H748 C744 0.950 . S
C749 C747 1.390 1_455 S
C749 C750 1.387 . S
C749 H752 0.950 . S
C750 C749 1.387 . S
C750 C753 1.387 1_556 S
H751 C747 0.950 . S
H752 C749 0.950 . S
C753 C744 1.390 1_455 S
C753 H746 0.950 . S
C753 C750 1.387 1_554 S
C754 C755 1.387 1_545 S
C754 H758 0.950 . S
C754 C763 1.390 . S
C755 C754 1.387 1_565 S
C755 C757 1.387 1_554 S
H756 C763 0.950 . S
C757 C755 1.387 1_556 S
C757 C759 1.390 . S
C757 H761 0.950 . S
H758 C754 0.950 . S
C759 C757 1.390 . S
C759 C760 1.387 1_565 S
C759 H762 0.950 . S
C760 C759 1.387 1_545 S
C760 C763 1.387 1_556 S
H761 C757 0.950 . S
H762 C759 0.950 . S
C763 C754 1.390 . S
C763 H756 0.950 . S
C763 C760 1.387 1_554 S
C764 C765 1.387 . S
C764 H768 0.950 . S
C764 C773 1.390 . S
C765 C764 1.387 . S
C765 C767 1.387 1_554 S
H766 C773 0.950 . S
C767 C765 1.387 1_556 S
C767 C769 1.390 . S
C767 H771 0.950 . S
H768 C764 0.950 . S
C769 C767 1.390 . S
C769 C770 1.387 . S
C769 H772 0.950 . S
C770 C769 1.387 . S
C770 C773 1.387 1_556 S
H771 C767 0.950 . S
H772 C769 0.950 . S
C773 C764 1.390 . S
C773 H766 0.950 . S
C773 C770 1.387 1_554 S
C774 C775 1.387 1_556 S
C774 H778 0.950 . S
C774 C783 1.390 . S
C775 C774 1.387 1_554 S
C775 C777 1.387 . S
H776 C783 0.950 . S
C777 C775 1.387 . S
C777 C779 1.390 . S
C777 H781 0.950 . S
H778 C774 0.950 . S
C779 C777 1.390 . S
C779 C780 1.387 1_554 S
C779 H782 0.950 . S
C780 C779 1.387 1_556 S
C780 C783 1.387 . S
H781 C777 0.950 . S
H782 C779 0.950 . S
C783 C774 1.390 . S
C783 H776 0.950 . S
C783 C780 1.387 . S
C784 C785 1.387 . S
C784 H788 0.950 . S
C784 C793 1.390 . S
C785 C784 1.387 . S
C785 C787 1.387 . S
H786 C793 0.950 . S
C787 C785 1.387 . S
C787 C789 1.390 . S
C787 H791 0.950 . S
H788 C784 0.950 . S
C789 C787 1.390 . S
C789 C790 1.387 . S
C789 H792 0.950 . S
C790 C789 1.387 . S
C790 C793 1.387 . S
H791 C787 0.950 . S
H792 C789 0.950 . S
C793 C784 1.390 . S
C793 H786 0.950 . S
C793 C790 1.387 . S
C794 C795 1.387 . S
C794 H798 0.950 . S
C794 C803 1.390 . S
C795 C794 1.387 . S
C795 C797 1.387 . S
H796 C803 0.950 . S
C797 C795 1.387 . S
C797 C799 1.390 . S
C797 H801 0.950 . S
H798 C794 0.950 . S
C799 C797 1.390 . S
C799 C800 1.387 . S
C799 H802 0.950 . S
C800 C799 1.387 . S
C800 C803 1.387 . S
H801 C797 0.950 . S
H802 C799 0.950 . S
C803 C794 1.390 . S
C803 H796 0.950 . S
C803 C800 1.387 . S
C804 C805 1.387 . S
C804 H808 0.950 . S
C804 C813 1.390 . S
C805 C804 1.387 . S
C805 C807 1.387 . S
H806 C813 0.950 . S
C807 C805 1.387 . S
C807 C809 1.390 . S
C807 H811 0.950 . S
H808 C804 0.950 . S
C809 C807 1.390 . S
C809 C810 1.387 . S
C809 H812 0.950 . S
C810 C809 1.387 . S
C810 C813 1.387 . S
H811 C807 0.950 . S
H812 C809 0.950 . S
C813 C804 1.390 . S
C813 H806 0.950 . S
C813 C810 1.387 . S
C814 C815 1.387 . S
C814 H818 0.950 . S
C814 C823 1.390 . S
C815 C814 1.387 . S
C815 C817 1.387 . S
H816 C823 0.950 . S
C817 C815 1.387 . S
C817 C819 1.390 . S
C817 H821 0.950 . S
H818 C814 0.950 . S
C819 C817 1.390 . S
C819 C820 1.387 . S
C819 H822 0.950 . S
C820 C819 1.387 . S
C820 C823 1.387 . S
H821 C817 0.950 . S
H822 C819 0.950 . S
C823 C814 1.390 . S
C823 H816 0.950 . S
C823 C820 1.387 . S
C824 C825 1.387 . S
C824 H828 0.950 . S
C824 C833 1.390 . S
C825 C824 1.387 . S
C825 C827 1.387 1_655 S
H826 C833 0.950 . S
C827 C825 1.387 1_455 S
C827 C829 1.390 . S
C827 H831 0.950 . S
H828 C824 0.950 . S
C829 C827 1.390 . S
C829 C830 1.387 1_455 S
C829 H832 0.950 . S
C830 C829 1.387 1_655 S
C830 C833 1.387 . S
H831 C827 0.950 . S
H832 C829 0.950 . S
C833 C824 1.390 . S
C833 H826 0.950 . S
C833 C830 1.387 . S
C834 C835 1.387 . S
C834 H838 0.950 . S
C834 C843 1.390 . S
C835 C834 1.387 . S
C835 C837 1.387 . S
H836 C843 0.950 . S
C837 C835 1.387 . S
C837 C839 1.390 . S
C837 H841 0.950 . S
H838 C834 0.950 . S
C839 C837 1.390 . S
C839 C840 1.387 . S
C839 H842 0.950 . S
C840 C839 1.387 . S
C840 C843 1.387 . S
H841 C837 0.950 . S
H842 C839 0.950 . S
C843 C834 1.390 . S
C843 H836 0.950 . S
C843 C840 1.387 . S
C844 C845 1.387 . S
C844 H848 0.950 . S
C844 C853 1.390 . S
C845 C844 1.387 . S
C845 C847 1.387 . S
H846 C853 0.950 . S
C847 C845 1.387 . S
C847 C849 1.390 . S
C847 H851 0.950 . S
H848 C844 0.950 . S
C849 C847 1.390 . S
C849 C850 1.387 . S
C849 H852 0.950 . S
C850 C849 1.387 . S
C850 C853 1.387 . S
H851 C847 0.950 . S
H852 C849 0.950 . S
C853 C844 1.390 . S
C853 H846 0.950 . S
C853 C850 1.387 . S
C854 C855 1.387 . S
C854 H858 0.950 . S
C854 C863 1.390 . S
C855 C854 1.387 . S
C855 C857 1.387 . S
H856 C863 0.950 . S
C857 C855 1.387 . S
C857 C859 1.390 . S
C857 H861 0.950 . S
H858 C854 0.950 . S
C859 C857 1.390 . S
C859 C860 1.387 . S
C859 H862 0.950 . S
C860 C859 1.387 . S
C860 C863 1.387 . S
H861 C857 0.950 . S
H862 C859 0.950 . S
C863 C854 1.390 . S
C863 H856 0.950 . S
C863 C860 1.387 . S
C625 C241 2.530 . S
C630 C351 2.826 . S
C640 C428 2.845 . S
C635 C277 2.606 . S
C650 C519 2.832 . S
C645 C169 2.533 . S
C660 C603 2.819 . S
C655 C205 2.525 . S
C670 C362 2.828 1_565 S
C665 C97 2.503 . S
C675 C133 2.634 . S
C680 C439 2.845 . S
C685 C25 2.505 . S
C690 C530 2.832 . S
C695 C61 2.496 . S
C700 C614 2.819 1_655 S
C710 C346 0.778 . S
C705 C211 0.776 . S
C720 C441 0.773 . S
C715 C247 0.768 . S
C730 C514 0.787 . S
C725 C253 0.771 . S
C735 C175 0.768 . S
C740 C598 0.773 . S
C745 C67 0.771 . S
C750 C357 0.777 . S
C760 C430 0.773 . S
C755 C103 0.762 . S
C770 C525 0.784 . S
C765 C109 0.781 . S
C775 C31 0.760 . S
C780 C609 0.772 . S
C785 C181 2.931 . S
C790 C355 3.293 . S
C795 C217 2.931 . S
C800 C446 3.391 . S
C810 C523 3.312 . S
C805 C283 2.851 . S
C820 C607 3.304 . S
C815 C145 2.940 . S
C825 C37 2.917 . S
C830 C344 3.291 . S
C840 C435 3.391 . S
C835 C73 2.917 . S
C850 C512 3.312 . S
C845 C139 2.868 . S
C855 C1 2.930 . S
C860 C596 3.305 . S
