# Generated by pormake.
# Topology zzz, (3,6)-cn, num edge types: 1
# Building blocks:
#     Node 0, Type 0, BuildingBlock: BETDIP_clean_linker_0, # of connection points: 3
#     Node 1, Type 0, BuildingBlock: BETDIP_clean_linker_0, # of connection points: 3
#     Node 2, Type 0, BuildingBlock: BETDIP_clean_linker_0, # of connection points: 3
#     Node 3, Type 0, BuildingBlock: BETDIP_clean_linker_0, # of connection points: 3
#     Node 4, Type 0, BuildingBlock: BETDIP_clean_linker_0, # of connection points: 3
#     Node 5, Type 0, BuildingBlock: BETDIP_clean_linker_0, # of connection points: 3
#     Node 6, Type 0, BuildingBlock: BETDIP_clean_linker_0, # of connection points: 3
#     Node 7, Type 0, BuildingBlock: BETDIP_clean_linker_0, # of connection points: 3
#     Node 8, Type 1, BuildingBlock: VOLQOD_clean_sbu_1, # of connection points: 6
#     Node 9, Type 1, BuildingBlock: VOLQOD_clean_sbu_1, # of connection points: 6
#     Node 10, Type 1, BuildingBlock: VOLQOD_clean_sbu_1, # of connection points: 6
#     Node 11, Type 1, BuildingBlock: VOLQOD_clean_sbu_1, # of connection points: 6
#     Edge 12, Type (0, 1), BuildingBlock: UVAHIK_clean_linker_0, # of connection points: 2
#     Edge 13, Type (0, 1), BuildingBlock: UVAHIK_clean_linker_0, # of connection points: 2
#     Edge 14, Type (0, 1), BuildingBlock: UVAHIK_clean_linker_0, # of connection points: 2
#     Edge 15, Type (0, 1), BuildingBlock: UVAHIK_clean_linker_0, # of connection points: 2
#     Edge 16, Type (0, 1), BuildingBlock: UVAHIK_clean_linker_0, # of connection points: 2
#     Edge 17, Type (0, 1), BuildingBlock: UVAHIK_clean_linker_0, # of connection points: 2
#     Edge 18, Type (0, 1), BuildingBlock: UVAHIK_clean_linker_0, # of connection points: 2
#     Edge 19, Type (0, 1), BuildingBlock: UVAHIK_clean_linker_0, # of connection points: 2
#     Edge 20, Type (0, 1), BuildingBlock: UVAHIK_clean_linker_0, # of connection points: 2
#     Edge 21, Type (0, 1), BuildingBlock: UVAHIK_clean_linker_0, # of connection points: 2
#     Edge 22, Type (0, 1), BuildingBlock: UVAHIK_clean_linker_0, # of connection points: 2
#     Edge 23, Type (0, 1), BuildingBlock: UVAHIK_clean_linker_0, # of connection points: 2
#     Edge 24, Type (0, 1), BuildingBlock: UVAHIK_clean_linker_0, # of connection points: 2
#     Edge 25, Type (0, 1), BuildingBlock: UVAHIK_clean_linker_0, # of connection points: 2
#     Edge 26, Type (0, 1), BuildingBlock: UVAHIK_clean_linker_0, # of connection points: 2
#     Edge 27, Type (0, 1), BuildingBlock: UVAHIK_clean_linker_0, # of connection points: 2
#     Edge 28, Type (0, 1), BuildingBlock: UVAHIK_clean_linker_0, # of connection points: 2
#     Edge 29, Type (0, 1), BuildingBlock: UVAHIK_clean_linker_0, # of connection points: 2
#     Edge 30, Type (0, 1), BuildingBlock: UVAHIK_clean_linker_0, # of connection points: 2
#     Edge 31, Type (0, 1), BuildingBlock: UVAHIK_clean_linker_0, # of connection points: 2
#     Edge 32, Type (0, 1), BuildingBlock: UVAHIK_clean_linker_0, # of connection points: 2
#     Edge 33, Type (0, 1), BuildingBlock: UVAHIK_clean_linker_0, # of connection points: 2
#     Edge 34, Type (0, 1), BuildingBlock: UVAHIK_clean_linker_0, # of connection points: 2
#     Edge 35, Type (0, 1), BuildingBlock: UVAHIK_clean_linker_0, # of connection points: 2
# Relax obj value: 0.204
# Max RMSD: 0.239
# Mean RMSD: 0.111
data_MOF--net-zzz--node1-VOLQOD_clean_sbu_1--node2-BETDIP_clean_linker_0--edge1-UVAHIK_clean_linker_0
_symmetry_space_group_name_H-M    P1
_symmetry_Int_Tables_number       1
_symmetry_cell_setting            triclinic
loop_
_symmetry_equiv_pos_as_xyz
'x, y, z'
_cell_length_a     65.809801
_cell_length_b     65.430921
_cell_length_c     22.121831
_cell_angle_alpha  90.158663
_cell_angle_beta   89.763322
_cell_angle_gamma 90.780351
loop_
_atom_site_label
_atom_site_type_symbol
_atom_site_fract_x
_atom_site_fract_y
_atom_site_fract_z
_atom_type_partial_charge
H0 H 0.7623 0.53855 0.23137 0.0
H1 H 0.76527 0.51339 0.0511 0.0
H2 H 0.81321 0.50223 0.17707 0.0
H3 H 0.74814 0.54949 0.04135 0.0
C4 C 0.73662 0.54225 0.06978 0.0
C5 C 0.77006 0.52952 0.19748 0.0
C6 C 0.78874 0.52059 0.21087 0.0
C7 C 0.76151 0.52698 0.13988 0.0
C8 C 0.77181 0.51552 0.09557 0.0
C9 C 0.79026 0.50619 0.10931 0.0
C10 C 0.79854 0.50876 0.16699 0.0
N11 N 0.74211 0.53515 0.1279 0.0
H12 H 0.99106 0.75297 0.27006 0.0
H13 H 0.0277 0.7622 0.11065 0.0
H14 H 0.02716 0.8078 0.25074 0.0
H15 H 0.99556 0.74823 0.07263 0.0
C16 C 0.99659 0.73462 0.10052 0.0
C17 C 0.00204 0.76205 0.2448 0.0
C18 C 0.00905 0.78084 0.268 0.0
C19 C 0.00857 0.75539 0.18771 0.0
C20 C 0.02246 0.76746 0.15441 0.0
C21 C 0.02937 0.78641 0.17676 0.0
C22 C 0.02276 0.79279 0.23403 0.0
N23 N 0.00061 0.73685 0.16329 0.0
H24 H 0.74409 0.00998 0.24636 0.0
H25 H 0.73801 0.04231 0.07846 0.0
H26 H 0.68867 0.04107 0.20647 0.0
H27 H 0.75454 0.00689 0.0561 0.0
C28 C 0.76715 0.01174 0.08464 0.0
C29 C 0.73534 0.0197 0.21697 0.0
C30 C 0.71558 0.02533 0.23356 0.0
C31 C 0.74343 0.02578 0.16102 0.0
C32 C 0.73177 0.03774 0.12184 0.0
C33 C 0.71206 0.04366 0.13831 0.0
C34 C 0.70425 0.03756 0.19461 0.0
N35 N 0.76308 0.01925 0.14368 0.0
H36 H 0.51489 0.73634 0.22413 0.0
H37 H 0.47917 0.72625 0.06371 0.0
H38 H 0.47932 0.68122 0.20449 0.0
H39 H 0.50629 0.7449 0.02313 0.0
C40 C 0.50706 0.75716 0.05631 0.0
C41 C 0.5043 0.72698 0.19836 0.0
C42 C 0.49733 0.70824 0.22163 0.0
C43 C 0.49799 0.73351 0.1412 0.0
C44 C 0.48441 0.72121 0.10745 0.0
C45 C 0.47741 0.70236 0.13022 0.0
C46 C 0.48386 0.69615 0.18755 0.0
N47 N 0.50538 0.75254 0.11886 0.0
H48 H 0.23394 0.49221 0.1581 0.0
H49 H 0.23476 0.54299 0.28289 0.0
H50 H 0.17889 0.52409 0.19883 0.0
H51 H 0.26871 0.54583 0.23078 0.0
C52 C 0.27206 0.53018 0.24323 0.0
C53 C 0.22613 0.50446 0.18119 0.0
C54 C 0.20516 0.50677 0.17366 0.0
C55 C 0.237 0.51775 0.21952 0.0
C56 C 0.22669 0.53327 0.25108 0.0
C57 C 0.20574 0.53572 0.24318 0.0
C58 C 0.19519 0.52253 0.2041 0.0
N59 N 0.25795 0.5143 0.22921 0.0
H60 H 0.07108 0.23648 0.13923 0.0
H61 H 0.042 0.22649 0.31154 0.0
H62 H 0.06234 0.17543 0.20654 0.0
H63 H 0.02138 0.25289 0.25922 0.0
C64 C 0.03467 0.26292 0.25649 0.0
C65 C 0.06617 0.22616 0.17478 0.0
C66 C 0.06863 0.20497 0.16793 0.0
C67 C 0.05634 0.23394 0.22621 0.0
C68 C 0.04937 0.22047 0.27153 0.0
C69 C 0.05179 0.19932 0.26528 0.0
C70 C 0.06154 0.19181 0.21353 0.0
N71 N 0.05295 0.25525 0.23128 0.0
H72 H 0.26531 0.03451 0.13205 0.0
H73 H 0.26824 0.99589 0.2894 0.0
H74 H 0.32302 0.02097 0.21262 0.0
H75 H 0.23844 0.981 0.21602 0.0
C76 C 0.2321 0.99567 0.22857 0.0
C77 C 0.27411 0.0271 0.16679 0.0
C78 C 0.29539 0.02917 0.16709 0.0
C79 C 0.26421 0.01508 0.21081 0.0
C80 C 0.27572 0.00506 0.25496 0.0
C81 C 0.29685 0.00749 0.25601 0.0
C82 C 0.30657 0.01962 0.21247 0.0
N83 N 0.24268 0.01389 0.21215 0.0
H84 H 0.46357 0.25262 0.10042 0.0
H85 H 0.49521 0.26762 0.26517 0.0
H86 H 0.47503 0.31537 0.14765 0.0
H87 H 0.51317 0.23766 0.22702 0.0
C88 C 0.49918 0.22863 0.2261 0.0
C89 C 0.46964 0.26391 0.13163 0.0
C90 C 0.46769 0.2848 0.11931 0.0
C91 C 0.47995 0.25764 0.18369 0.0
C92 C 0.4879 0.27243 0.22393 0.0
C93 C 0.48599 0.29336 0.21187 0.0
C94 C 0.47594 0.2993 0.15916 0.0
N95 N 0.48198 0.23646 0.19574 0.0
O96 O 0.06147 0.99372 0.68897 0.0
Zn97 Zn 0.04027 0.99496 0.75571 0.0
O98 O 0.01266 0.99267 0.72082 0.0
Zn99 Zn 0.99757 0.01736 0.73882 0.0
Zn100 Zn 0.01426 0.98869 0.63322 0.0
Zn101 Zn 0.9978 0.9696 0.75518 0.0
O102 O 0.97258 0.01186 0.78969 0.0
O103 O 0.97278 0.97816 0.80104 0.0
O104 O 0.04473 0.02222 0.7986 0.0
O105 O 0.0153 0.03744 0.78244 0.0
O106 O 0.98973 0.03189 0.66293 0.0
O107 O 0.00291 0.01295 0.58964 0.0
O108 O -0.0 0.96277 0.60562 0.0
O109 O 0.04559 0.97122 0.81279 0.0
O110 O 0.98893 0.94946 0.69184 0.0
O111 O 0.01615 0.95414 0.80913 0.0
C112 C 0.06036 0.98977 0.6326 0.0
C113 C 0.96471 0.99545 0.81066 0.0
C114 C 0.99352 0.02881 0.60722 0.0
C115 C 0.0333 0.03773 0.8032 0.0
C116 C 0.99085 0.94858 0.63469 0.0
C117 C 0.03435 0.95601 0.82783 0.0
O118 O 0.04336 0.98679 0.60662 0.0
O119 O 0.50052 0.05146 0.65928 0.0
Zn120 Zn 0.50259 0.0315 0.72855 0.0
O121 O 0.50488 0.00338 0.69654 0.0
Zn122 Zn 0.4821 0.9868 0.72539 0.0
Zn123 Zn 0.50525 0.00333 0.60773 0.0
Zn124 Zn 0.52976 0.99113 0.72521 0.0
O125 O 0.49104 0.96305 0.77606 0.0
O126 O 0.52464 0.96599 0.77544 0.0
O127 O 0.47703 0.03474 0.7795 0.0
O128 O 0.46285 0.00381 0.77363 0.0
O129 O 0.46581 0.97575 0.65637 0.0
O130 O 0.48154 0.98702 0.57383 0.0
O131 O 0.53185 0.99275 0.57401 0.0
O132 O 0.52752 0.03977 0.77756 0.0
O133 O 0.5482 0.98371 0.65692 0.0
O134 O 0.54569 0.01143 0.77321 0.0
C135 C 0.50062 0.04948 0.60193 0.0
C136 C 0.50842 0.95667 0.79173 0.0
C137 C 0.46706 0.97708 0.59913 0.0
C138 C 0.46252 0.02229 0.79165 0.0
C139 C 0.54746 0.9855 0.59976 0.0
C140 C 0.54352 0.02988 0.79002 0.0
O141 O 0.50237 0.03202 0.57698 0.0
O142 O 0.45162 0.49577 0.64282 0.0
Zn143 Zn 0.47142 0.49426 0.71205 0.0
O144 O 0.49952 0.49857 0.68329 0.0
Zn145 Zn 0.51626 0.4752 0.70472 0.0
Zn146 Zn 0.49983 0.50253 0.59577 0.0
Zn147 Zn 0.51112 0.52282 0.72069 0.0
O148 O 0.54078 0.48326 0.7554 0.0
O149 O 0.53738 0.51691 0.761 0.0
O150 O 0.46808 0.46636 0.75076 0.0
O151 O 0.49941 0.45411 0.74843 0.0
O152 O 0.52606 0.46091 0.62977 0.0
O153 O 0.51386 0.47922 0.55413 0.0
O154 O 0.51283 0.52945 0.57178 0.0
O155 O 0.46345 0.51612 0.77278 0.0
O156 O 0.5171 0.54489 0.66022 0.0
O157 O 0.49217 0.53413 0.78242 0.0
C158 C 0.45383 0.49988 0.58691 0.0
C159 C 0.54721 0.5008 0.77241 0.0
C160 C 0.52362 0.46389 0.57344 0.0
C161 C 0.48066 0.45223 0.76207 0.0
C162 C 0.51795 0.54512 0.60278 0.0
C163 C 0.47377 0.53053 0.79714 0.0
O164 O 0.47131 0.50315 0.56381 0.0
O165 O 0.97399 0.52621 0.59474 0.0
Zn166 Zn 0.99961 0.52519 0.64596 0.0
O167 O 0.00371 0.49761 0.67909 0.0
Zn168 Zn 0.00275 0.49855 0.76745 0.0
Zn169 Zn 0.98262 0.47892 0.65039 0.0
Zn170 Zn 0.02978 0.48706 0.6525 0.0
O171 O 0.02789 0.48619 0.80347 0.0
O172 O 0.0477 0.48109 0.72339 0.0
O173 O 0.99705 0.54578 0.7133 0.0
O174 O 0.00113 0.52772 0.79709 0.0
O175 O 0.9777 0.48401 0.79937 0.0
O176 O 0.96443 0.46938 0.7178 0.0
O177 O 0.99369 0.45462 0.60565 0.0
O178 O 0.02382 0.53428 0.59504 0.0
O179 O 0.02683 0.46105 0.60428 0.0
O180 O 0.04406 0.50737 0.59961 0.0
C181 C 0.9619 0.51194 0.57773 0.0
C182 C 0.04473 0.48072 0.78029 0.0
C183 C 0.96398 0.47304 0.77428 0.0
C184 C 0.9984 0.54473 0.77064 0.0
C185 C 0.01164 0.44986 0.58987 0.0
C186 C 0.04023 0.52527 0.58088 0.0
O187 O 0.96431 0.49357 0.59459 0.0
C188 C 0.20956 0.01311 0.30385 0.0
C189 C 0.21378 0.99612 0.26729 0.0
C190 C 0.19327 0.01248 0.34468 0.0
C191 C 0.158 0.9753 0.42124 0.0
H192 H 0.12869 0.02441 0.46307 0.0
C193 C 0.07979 0.97733 0.54283 0.0
C194 C 0.07908 0.98935 0.59553 0.0
C195 C 0.09697 0.97777 0.50556 0.0
C196 C 0.13688 0.01063 0.452 0.0
H197 H 0.20411 0.96548 0.24296 0.0
H198 H 0.17498 0.96473 0.31121 0.0
H199 H 0.15632 0.02627 0.38935 0.0
H200 H 0.09576 0.01123 0.65065 0.0
H201 H 0.12566 0.01249 0.58396 0.0
H202 H 0.13768 0.95962 0.48202 0.0
C203 C 0.1846 0.97828 0.31063 0.0
C204 C 0.1528 0.01166 0.40998 0.0
C205 C 0.20114 0.97876 0.27087 0.0
C206 C 0.09596 0.00171 0.61051 0.0
C207 C 0.11297 0.00253 0.57234 0.0
C208 C 0.1418 0.97423 0.46219 0.0
C209 C 0.18062 0.99499 0.34901 0.0
C210 C 0.1636 0.99399 0.39389 0.0
C211 C 0.11355 0.9906 0.51953 0.0
C212 C 0.13114 0.99188 0.47792 0.0
H213 H 0.21926 0.02661 0.30259 0.0
H214 H 0.19101 0.02554 0.37397 0.0
H215 H 0.16619 0.96144 0.41151 0.0
H216 H 0.06701 0.96762 0.53028 0.0
H217 H 0.09709 0.96849 0.46491 0.0
C218 C 0.51572 0.20258 0.28981 0.0
C219 C 0.49821 0.20931 0.26039 0.0
C220 C 0.51502 0.18511 0.32583 0.0
C221 C 0.48512 0.13815 0.35742 0.0
H222 H 0.51473 0.13986 0.50865 0.0
C223 C 0.49632 0.0873 0.589 0.0
C224 C 0.49883 0.06783 0.56322 0.0
C225 C 0.495 0.10459 0.55232 0.0
C226 C 0.5062 0.13918 0.46692 0.0
H227 H 0.46625 0.20292 0.24461 0.0
H228 H 0.46495 0.1724 0.30812 0.0
H229 H 0.51462 0.16986 0.44392 0.0
H230 H 0.5017 0.0513 0.4784 0.0
H231 H 0.49969 0.08145 0.41474 0.0
H232 H 0.47647 0.10752 0.38101 0.0
C233 C 0.47929 0.18052 0.30285 0.0
C234 C 0.50636 0.1563 0.42939 0.0
C235 C 0.48001 0.19803 0.26663 0.0
C236 C 0.49975 0.06605 0.49988 0.0
C237 C 0.49845 0.08333 0.46326 0.0
C238 C 0.48496 0.121 0.39502 0.0
C239 C 0.49676 0.17401 0.33343 0.0
C240 C 0.49598 0.15594 0.37395 0.0
C241 C 0.49617 0.10282 0.48903 0.0
C242 C 0.49562 0.12127 0.45004 0.0
H243 H 0.52994 0.211 0.28552 0.0
H244 H 0.52884 0.18031 0.34778 0.0
H245 H 0.47707 0.13733 0.31488 0.0
H246 H 0.49544 0.08924 0.63756 0.0
H247 H 0.49298 0.11936 0.57359 0.0
C248 C 0.30759 0.53983 0.26994 0.0
C249 C 0.29149 0.52565 0.27295 0.0
C250 C 0.32578 0.53617 0.30012 0.0
C251 C 0.35435 0.49528 0.38043 0.0
H252 H 0.38331 0.54194 0.44824 0.0
C253 C 0.41738 0.49155 0.5639 0.0
C254 C 0.43569 0.50154 0.54819 0.0
C255 C 0.40016 0.49355 0.52768 0.0
C256 C 0.37539 0.52881 0.42923 0.0
H257 H 0.28153 0.49657 0.3101 0.0
H258 H 0.31278 0.49055 0.3652 0.0
H259 H 0.35242 0.54731 0.3906 0.0
H260 H 0.45032 0.52148 0.48247 0.0
H261 H 0.42 0.52547 0.42036 0.0
H262 H 0.37706 0.47684 0.42215 0.0
C263 C 0.31185 0.50418 0.3378 0.0
C264 C 0.35777 0.53184 0.39573 0.0
C265 C 0.29383 0.50767 0.30647 0.0
C266 C 0.43645 0.51353 0.49559 0.0
C267 C 0.41913 0.51589 0.46019 0.0
C268 C 0.37176 0.49225 0.4151 0.0
C269 C 0.32807 0.51844 0.33533 0.0
C270 C 0.34701 0.51513 0.37058 0.0
C271 C 0.40087 0.50594 0.47599 0.0
C272 C 0.38244 0.50901 0.4395 0.0
H273 H 0.30612 0.55377 0.24408 0.0
H274 H 0.33802 0.54729 0.29576 0.0
H275 H 0.34678 0.48204 0.36098 0.0
H276 H 0.41638 0.48214 0.60406 0.0
H277 H 0.38617 0.48582 0.54076 0.0
C278 C 0.01461 0.29045 0.30425 0.0
C279 C 0.03337 0.28371 0.28215 0.0
C280 C 0.01306 0.30949 0.33229 0.0
C281 C 0.04326 0.34758 0.41548 0.0
H282 H 0.9966 0.38191 0.38855 0.0
C283 C 0.03437 0.4264 0.53141 0.0
C284 C 0.01486 0.43124 0.5529 0.0
C285 C 0.03732 0.40911 0.49532 0.0
C286 C 0.00962 0.37241 0.39701 0.0
H287 H 0.06526 0.29166 0.27107 0.0
H288 H 0.06258 0.3251 0.32024 0.0
H289 H 0.00064 0.35081 0.32906 0.0
H290 H 0.9832 0.42152 0.55366 0.0
H291 H 0.98841 0.39126 0.49161 0.0
H292 H 0.05206 0.36898 0.48421 0.0
C293 C 0.04907 0.31557 0.31609 0.0
C294 C 0.01197 0.35463 0.36279 0.0
C295 C 0.05058 0.2965 0.28765 0.0
C296 C 0.99841 0.41831 0.53775 0.0
C297 C 0.00138 0.40102 0.50176 0.0
C298 C 0.04089 0.36536 0.44986 0.0
C299 C 0.0303 0.32219 0.33909 0.0
C300 C 0.02868 0.34188 0.37214 0.0
C301 C 0.02085 0.39625 0.47991 0.0
C302 C 0.02391 0.37786 0.44152 0.0
H303 H 0.00115 0.28081 0.30076 0.0
H304 H 0.99845 0.31401 0.35022 0.0
H305 H 0.05616 0.33795 0.42428 0.0
H306 H 0.04738 0.43605 0.54197 0.0
H307 H 0.05247 0.406 0.47873 0.0
C308 C 0.79174 0.99523 0.01516 0.0
C309 C 0.78812 0.00894 0.06261 0.0
C310 C 0.81132 0.99295 0.99177 0.0
C311 C 0.86604 0.00602 0.02151 0.0
H312 H 0.87112 0.99392 0.8504 0.0
C313 C 0.93977 0.01442 0.87498 0.0
C314 C 0.94539 0.9964 0.84486 0.0
C315 C 0.92113 0.01547 0.9054 0.0
C316 C 0.86987 0.99722 0.8983 0.0
H317 H 0.80195 0.03119 0.12286 0.0
H318 H 0.83599 0.0281 0.08019 0.0
H319 H 0.8375 0.99717 0.89531 0.0
H320 H 0.93595 0.96536 0.82304 0.0
H321 H 0.90305 0.96751 0.87449 0.0
H322 H 0.89868 0.00704 0.02283 0.0
C323 C 0.82396 0.01844 0.06223 0.0
C324 C 0.85061 0.99891 0.92436 0.0
C325 C 0.80441 0.02034 0.08659 0.0
C326 C 0.93208 0.97942 0.84607 0.0
C327 C 0.91326 0.98064 0.87525 0.0
C328 C 0.88533 0.00478 0.99499 0.0
C329 C 0.82769 0.00478 0.01417 0.0
C330 C 0.84836 0.00317 0.98651 0.0
C331 C 0.90764 0.99868 0.90497 0.0
C332 C 0.88735 0.00022 0.9333 0.0
H333 H 0.77939 0.98619 0.99622 0.0
H334 H 0.81354 0.98185 0.95605 0.0
H335 H 0.86505 0.00897 0.06959 0.0
H336 H 0.94977 0.02771 0.87498 0.0
H337 H 0.91702 0.02956 0.92789 0.0
C338 C 0.51214 0.78216 0.97308 0.0
C339 C 0.50997 0.77839 0.03515 0.0
C340 C 0.51395 0.80216 0.95165 0.0
C341 C 0.52759 0.84544 0.92118 0.0
H342 H 0.49028 0.88549 0.98544 0.0
C343 C 0.52887 0.92932 0.84116 0.0
C344 C 0.50984 0.93763 0.82748 0.0
C345 C 0.53016 0.91072 0.87172 0.0
C346 C 0.50078 0.87447 0.96702 0.0
H347 H 0.50835 0.79249 0.12389 0.0
H348 H 0.51157 0.82748 0.08645 0.0
H349 H 0.49056 0.85113 0.02801 0.0
H350 H 0.47723 0.93309 0.8367 0.0
H351 H 0.47952 0.90064 0.88963 0.0
H352 H 0.53737 0.86857 0.85896 0.0
C353 C 0.51171 0.81498 0.05427 0.0
C354 C 0.5011 0.85486 0.99182 0.0
C355 C 0.50997 0.79494 0.07571 0.0
C356 C 0.49214 0.92715 0.84643 0.0
C357 C 0.49345 0.9086 0.87714 0.0
C358 C 0.52733 0.86506 0.89653 0.0
C359 C 0.51357 0.8188 0.99195 0.0
C360 C 0.51431 0.84005 0.96861 0.0
C361 C 0.51246 0.90006 0.88951 0.0
C362 C 0.51373 0.87971 0.91864 0.0
H363 H 0.51213 0.76963 0.94094 0.0
H364 H 0.5151 0.8046 0.90334 0.0
H365 H 0.53809 0.83442 0.90276 0.0
H366 H 0.54282 0.93701 0.82744 0.0
H367 H 0.54504 0.90465 0.88126 0.0
C368 C 0.70351 0.52283 0.06973 0.0
C369 C 0.71633 0.53789 0.04445 0.0
C370 C 0.6852 0.51748 0.04163 0.0
C371 C 0.65913 0.52158 0.89306 0.0
H372 H 0.61126 0.50578 0.98557 0.0
C373 C 0.57794 0.52136 0.79932 0.0
C374 C 0.56683 0.50294 0.80405 0.0
C375 C 0.59647 0.52382 0.82881 0.0
C376 C 0.62463 0.50994 0.95935 0.0
H377 H 0.71991 0.55966 0.97172 0.0
H378 H 0.68753 0.5512 0.92425 0.0
H379 H 0.64274 0.51473 0.0383 0.0
H380 H 0.56628 0.47269 0.8438 0.0
H381 H 0.5987 0.47733 0.89747 0.0
H382 H 0.64056 0.51777 0.81439 0.0
C383 C 0.69183 0.54289 0.96436 0.0
C384 C 0.64267 0.51503 0.98938 0.0
C385 C 0.71028 0.54795 0.99186 0.0
C386 C 0.57458 0.48701 0.83927 0.0
C387 C 0.59301 0.48967 0.87004 0.0
C388 C 0.64102 0.51686 0.86327 0.0
C389 C 0.67921 0.5273 0.98817 0.0
C390 C 0.66011 0.52115 0.95661 0.0
C391 C 0.6041 0.50807 0.86462 0.0
C392 C 0.62361 0.51118 0.89618 0.0
H393 H 0.70793 0.51466 0.11001 0.0
H394 H 0.67606 0.50525 0.06095 0.0
H395 H 0.67233 0.52562 0.86607 0.0
H396 H 0.57241 0.53387 0.77223 0.0
H397 H 0.60475 0.53817 0.8243 0.0
C398 C 0.99743 0.69614 0.10316 0.0
C399 C 0.99478 0.7144 0.07103 0.0
C400 C 0.99693 0.67731 0.07287 0.0
C401 C 0.00461 0.65553 0.92076 0.0
H402 H 0.97753 0.60739 0.986 0.0
C403 C 0.99367 0.58259 0.77873 0.0
C404 C 0.99703 0.56373 0.80706 0.0
C405 C 0.99286 0.6006 0.81262 0.0
C406 C 0.98534 0.62065 0.96751 0.0
H407 H 0.98896 0.72736 0.98295 0.0
H408 H 0.98786 0.6946 0.93025 0.0
H409 H 0.97692 0.63951 0.04275 0.0
H410 H 0.00189 0.54905 0.89361 0.0
H411 H 0.00067 0.58058 0.9526 0.0
H412 H 0.01313 0.63681 0.84577 0.0
C413 C 0.99066 0.69475 0.97847 0.0
C414 C 0.98499 0.63903 0.0 0.0
C415 C 0.99115 0.71349 0.00866 0.0
C416 C 0.99928 0.56331 0.87026 0.0
C417 C 0.99847 0.58136 0.90419 0.0
C418 C 0.00499 0.6372 0.88841 0.0
C419 C 0.99383 0.67646 0.01 0.0
C420 C 0.99449 0.65672 0.9767 0.0
C421 C 0.99541 0.60024 0.87567 0.0
C422 C 0.99524 0.61957 0.91111 0.0
H423 H 0.00028 0.6964 0.15133 0.0
H424 H 0.99955 0.66349 0.09836 0.0
H425 H 0.01246 0.66875 0.90214 0.0
H426 H 0.99174 0.58351 0.73026 0.0
H427 H 0.99012 0.61484 0.78933 0.0
C428 C 0.05275 0.16651 0.32315 0.0
C429 C 0.04265 0.1847 0.3092 0.0
C430 C 0.04289 0.1511 0.35581 0.0
C431 C 0.00848 0.13655 0.46743 0.0
H432 H 0.99583 0.08838 0.37118 0.0
C433 C 0.97982 0.06329 0.58221 0.0
C434 C 0.99014 0.04562 0.56395 0.0
C435 C 0.98074 0.08099 0.54704 0.0
C436 C 0.99927 0.10166 0.39878 0.0
H437 H 0.01466 0.20141 0.32197 0.0
H438 H 0.99773 0.17454 0.38152 0.0
H439 H 0.00973 0.11899 0.32234 0.0
H440 H 0.00805 0.03217 0.49191 0.0
H441 H 0.01009 0.06295 0.43166 0.0
H442 H 0.99951 0.119 0.54453 0.0
C443 C 0.01317 0.17231 0.36591 0.0
C444 C 0.00708 0.11917 0.37072 0.0
C445 C 0.02293 0.18768 0.33234 0.0
C446 C -6e-05 0.0455 0.50744 0.0
C447 C 0.00104 0.06323 0.47263 0.0
C448 C 0.00095 0.11893 0.49576 0.0
C449 C 0.02292 0.15374 0.37619 0.0
C450 C 0.01213 0.13652 0.40506 0.0
C451 C 0.99214 0.08143 0.49313 0.0
C452 C 0.99676 0.10107 0.46194 0.0
H453 H 0.06807 0.16389 0.30709 0.0
H454 H 0.05069 0.1369 0.36406 0.0
H455 H 0.01243 0.14982 0.49455 0.0
H456 H 0.9719 0.06382 0.62521 0.0
H457 H 0.97327 0.09458 0.56342 0.0
C458 C 0.31846 0.00903 0.34742 0.0
C459 C 0.30924 0.99733 0.30181 0.0
C460 C 0.33297 0.00035 0.38485 0.0
C461 C 0.37232 0.96251 0.37903 0.0
H462 H 0.37792 0.97591 0.54901 0.0
C463 C 0.43312 0.95963 0.59066 0.0
C464 C 0.44981 0.96938 0.56239 0.0
C465 C 0.41501 0.95635 0.5593 0.0
C466 C 0.37646 0.97164 0.50187 0.0
H467 H 0.30727 0.96751 0.25968 0.0
H468 H 0.33301 0.9522 0.32511 0.0
H469 H 0.34617 0.98305 0.49742 0.0
H470 H 0.46114 0.98149 0.47729 0.0
H471 H 0.4295 0.97582 0.42271 0.0
H472 H 0.40298 0.95196 0.38291 0.0
C473 C 0.32887 0.968 0.33226 0.0
C474 C 0.35833 0.97589 0.47229 0.0
C475 C 0.31412 0.97665 0.29527 0.0
C476 C 0.44856 0.97406 0.50056 0.0
C477 C 0.43043 0.97073 0.46915 0.0
C478 C 0.39055 0.95839 0.40855 0.0
C479 C 0.33871 0.97991 0.3766 0.0
C480 C 0.35631 0.97194 0.41021 0.0
C481 C 0.41322 0.96264 0.49896 0.0
C482 C 0.39299 0.96345 0.46987 0.0
H483 H 0.31502 0.0251 0.35243 0.0
H484 H 0.34051 0.00997 0.41805 0.0
H485 H 0.37121 0.95944 0.33101 0.0
H486 H 0.43362 0.95556 0.63805 0.0
H487 H 0.40208 0.94976 0.5831 0.0
C488 C 0.5138 0.30645 0.28064 0.0
C489 C 0.49483 0.30921 0.25274 0.0
C490 C 0.52267 0.32219 0.315 0.0
C491 C 0.5271 0.37629 0.32425 0.0
H492 H 0.52854 0.37412 0.49921 0.0
C493 C 0.52217 0.44774 0.47104 0.0
C494 C 0.52969 0.44772 0.53035 0.0
C495 C 0.52418 0.43056 0.43415 0.0
C496 C 0.52887 0.3749 0.45034 0.0
H497 H 0.46987 0.3303 0.24221 0.0
H498 H 0.48579 0.35787 0.29989 0.0
H499 H 0.51987 0.34336 0.44166 0.0
H500 H 0.54701 0.43039 0.59534 0.0
H501 H 0.55106 0.40061 0.53018 0.0
H502 H 0.53578 0.40777 0.33218 0.0
C503 C 0.49375 0.34357 0.29471 0.0
C504 C 0.52379 0.35728 0.41758 0.0
C505 C 0.48473 0.32781 0.26151 0.0
C506 C 0.54079 0.4308 0.55011 0.0
C507 C 0.54299 0.41366 0.5129 0.0
C508 C 0.53252 0.39382 0.35681 0.0
C509 C 0.51284 0.34096 0.32104 0.0
C510 C 0.52217 0.3581 0.35456 0.0
C511 C 0.53399 0.41301 0.45537 0.0
C512 C 0.53263 0.39358 0.42041 0.0
H513 H 0.52209 0.29241 0.27447 0.0
H514 H 0.53741 0.31994 0.3354 0.0
H515 H 0.52601 0.37713 0.27546 0.0
H516 H 0.51355 0.46051 0.45427 0.0
H517 H 0.51683 0.43064 0.39046 0.0
C518 C 0.17981 0.56295 0.25234 0.0
C519 C 0.19386 0.55012 0.2803 0.0
C520 C 0.16379 0.57117 0.28561 0.0
C521 C 0.13969 0.57315 0.43917 0.0
H522 H 0.09241 0.5533 0.35155 0.0
C523 C 0.06692 0.5237 0.50157 0.0
C524 C 0.05538 0.5355 0.5417 0.0
C525 C 0.08229 0.53273 0.46699 0.0
C526 C 0.10537 0.55936 0.3762 0.0
H527 H 0.20367 0.53766 0.36565 0.0
H528 H 0.17557 0.55168 0.4238 0.0
H529 H 0.12432 0.55865 0.29801 0.0
H530 H 0.0507 0.566 0.57716 0.0
H531 H 0.07844 0.58181 0.51752 0.0
H532 H 0.12068 0.57232 0.51832 0.0
C533 C 0.17693 0.55569 0.37648 0.0
C534 C 0.12367 0.56258 0.34556 0.0
C535 C 0.19307 0.54761 0.34321 0.0
C536 C 0.05933 0.55663 0.54614 0.0
C537 C 0.07516 0.56563 0.51242 0.0
C538 C 0.12123 0.57009 0.46981 0.0
C539 C 0.16142 0.56643 0.34722 0.0
C540 C 0.14129 0.5686 0.37713 0.0
C541 C 0.08673 0.55367 0.47267 0.0
C542 C 0.10422 0.56227 0.43888 0.0
H543 H 0.18024 0.56518 0.20383 0.0
H544 H 0.15233 0.57976 0.26205 0.0
H545 H 0.15296 0.57793 0.46462 0.0
H546 H 0.06415 0.5074 0.49721 0.0
H547 H 0.09116 0.52318 0.43703 0.0
C548 C 0.05603 0.81405 0.16283 0.0
C549 C 0.04127 0.80077 0.13786 0.0
C550 C 0.06439 0.83003 0.12852 0.0
C551 C 0.06753 0.8511 0.97236 0.0
H552 H 0.05943 0.90337 0.05147 0.0
C553 C 0.0346 0.91924 0.85447 0.0
C554 C 0.04279 0.93897 0.86296 0.0
C555 C 0.04207 0.90275 0.88656 0.0
C556 C 0.06235 0.88895 0.02909 0.0
H557 H 0.02466 0.79325 0.056 0.0
H558 H 0.03932 0.82074 0.99642 0.0
H559 H 0.05941 0.87213 0.11151 0.0
H560 H 0.06541 0.9569 0.91134 0.0
H561 H 0.07807 0.92776 0.97008 0.0
H562 H 0.06884 0.86785 0.88941 0.0
C563 C 0.04462 0.81879 0.04231 0.0
C564 C 0.06234 0.87103 0.06341 0.0
C565 C 0.03618 0.80295 0.07661 0.0
C566 C 0.05883 0.94183 0.90407 0.0
C567 C 0.06606 0.92524 0.93746 0.0
C568 C 0.06743 0.86898 0.93812 0.0
C569 C 0.0583 0.83292 0.06838 0.0
C570 C 0.06388 0.85184 0.03494 0.0
C571 C 0.05774 0.90555 0.92866 0.0
C572 C 0.06381 0.88793 0.96586 0.0
H573 H 0.06056 0.81256 0.20961 0.0
H574 H 0.07508 0.84054 0.14962 0.0
H575 H 0.06917 0.83658 0.94932 0.0
H576 H 0.02239 0.91646 0.82267 0.0
H577 H 0.03513 0.88781 0.87963 0.0
C578 C 0.69726 0.04671 0.03482 0.0
C579 C 0.6985 0.05387 0.0946 0.0
C580 C 0.68164 0.05309 0.9971 0.0
C581 C 0.62898 0.06879 0.01169 0.0
H582 H 0.6322 0.06842 0.8367 0.0
C583 C 0.55815 0.05708 0.85881 0.0
C584 C 0.5608 0.04009 0.82069 0.0
C585 C 0.57489 0.06591 0.8887 0.0
C586 C 0.63107 0.06884 0.88556 0.0
H587 H 0.68556 0.07485 0.15981 0.0
H588 H 0.65823 0.08604 0.09374 0.0
H589 H 0.66326 0.07223 0.89593 0.0
H590 H 0.58308 0.01965 0.78178 0.0
H591 H 0.61197 0.03505 0.83298 0.0
H592 H 0.59688 0.06436 0.00111 0.0
C593 C 0.66912 0.0752 0.07647 0.0
C594 C 0.64883 0.07094 0.91945 0.0
C595 C 0.68477 0.0688 0.11424 0.0
C596 C 0.58047 0.03258 0.81138 0.0
C597 C 0.5971 0.04158 0.84011 0.0
C598 C 0.6112 0.0668 0.97773 0.0
C599 C 0.66692 0.06681 0.01828 0.0
C600 C 0.64808 0.06992 0.98287 0.0
C601 C 0.5945 0.05817 0.87954 0.0
C602 C 0.61221 0.0658 0.91443 0.0
H603 H 0.70744 0.03503 0.01848 0.0
H604 H 0.6803 0.0461 0.95284 0.0
H605 H 0.62783 0.0678 0.06044 0.0
H606 H 0.54316 0.06319 0.86664 0.0
H607 H 0.57251 0.07865 0.91917 0.0
C608 C 0.47067 0.68444 0.03195 0.0
C609 C 0.46519 0.68799 0.09249 0.0
C610 C 0.46231 0.66787 0.0003 0.0
C611 C 0.44563 0.61648 0.03502 0.0
H612 H 0.43867 0.61264 0.86137 0.0
C613 C 0.47571 0.552 0.88948 0.0
C614 C 0.46422 0.54442 0.84092 0.0
C615 C 0.46836 0.5678 0.92536 0.0
C616 C 0.44009 0.61346 0.91009 0.0
H617 H 0.44501 0.67835 0.16505 0.0
H618 H 0.4306 0.64923 0.10989 0.0
H619 H 0.43822 0.64615 0.91073 0.0
H620 H 0.43575 0.54674 0.79279 0.0
H621 H 0.42305 0.57511 0.85489 0.0
H622 H 0.44887 0.58396 0.03382 0.0
C623 C 0.44156 0.6591 0.08729 0.0
C624 C 0.44 0.63263 0.93823 0.0
C625 C 0.44985 0.67573 0.11885 0.0
C626 C 0.44478 0.55225 0.83044 0.0
C627 C 0.43759 0.56849 0.8656 0.0
C628 C 0.44591 0.59738 0.00684 0.0
C629 C 0.44834 0.65451 0.0286 0.0
C630 C 0.44357 0.63438 0.00064 0.0
C631 C 0.44953 0.57664 0.9126 0.0
C632 C 0.44396 0.59579 0.94386 0.0
H633 H 0.48254 0.69349 0.01043 0.0
H634 H 0.468 0.66464 0.95531 0.0
H635 H 0.44859 0.6173 0.0831 0.0
H636 H 0.49076 0.5462 0.89831 0.0
H637 H 0.47798 0.57395 0.96082 0.0
C638 C 0.80761 0.5042 0.00891 0.0
C639 C 0.80191 0.49477 0.06335 0.0
C640 C 0.82238 0.49541 0.97183 0.0
C641 C 0.86671 0.46266 0.98924 0.0
H642 H 0.87199 0.47139 0.81668 0.0
C643 C 0.94353 0.47303 0.87002 0.0
C644 C 0.94573 0.46683 0.80951 0.0
C645 C 0.92492 0.47059 0.89984 0.0
C646 C 0.87066 0.46843 0.86469 0.0
H647 H 0.80554 0.46794 0.11916 0.0
H648 H 0.83089 0.45224 0.05365 0.0
H649 H 0.83948 0.47735 0.86633 0.0
H650 H 0.93048 0.45172 0.73446 0.0
H651 H 0.89809 0.44729 0.78691 0.0
H652 H 0.89795 0.45403 0.9878 0.0
C653 C 0.82449 0.4667 0.04032 0.0
C654 C 0.85207 0.4721 0.89325 0.0
C655 C 0.80989 0.47559 0.0776 0.0
C656 C 0.92929 0.45684 0.78092 0.0
C657 C 0.91067 0.45441 0.8108 0.0
C658 C 0.88525 0.45894 0.96069 0.0
C659 C 0.83157 0.47694 0.98841 0.0
C660 C 0.85005 0.46984 0.95615 0.0
C661 C 0.90809 0.46185 0.86993 0.0
C662 C 0.88763 0.46239 0.89843 0.0
H663 H 0.80176 0.51907 0.99724 0.0
H664 H 0.82756 0.50382 0.93247 0.0
H665 H 0.86583 0.46094 0.03785 0.0
H666 H 0.95586 0.48074 0.8935 0.0
H667 H 0.92345 0.47666 0.94522 0.0
C668 C 0.08855 0.17896 0.11116 0.0
C669 C 0.07538 0.1957 0.11022 0.0
C670 C 0.089 0.16521 0.06278 0.0
C671 C 0.05125 0.14574 0.95877 0.0
H672 H 0.09367 0.10908 0.90633 0.0
C673 C 0.03156 0.07552 0.81552 0.0
C674 C 0.04118 0.05709 0.82947 0.0
C675 C 0.03856 0.09398 0.83965 0.0
C676 C 0.08165 0.11913 0.92092 0.0
H677 H 0.05456 0.21279 0.05491 0.0
H678 H 0.05573 0.18906 0.96966 0.0
H679 H 0.10268 0.14041 0.96153 0.0
H680 H 0.06606 0.04366 0.87865 0.0
H681 H 0.07787 0.07599 0.92319 0.0
H682 H 0.03013 0.12428 0.92152 0.0
C683 C 0.06531 0.18627 0.00838 0.0
C684 C 0.08683 0.13713 0.95206 0.0
C685 C 0.06483 0.20001 0.05686 0.0
C686 C 0.05828 0.05761 0.86733 0.0
C687 C 0.06514 0.07616 0.89237 0.0
C688 C 0.04609 0.12778 0.92823 0.0
C689 C 0.07632 0.16803 0.01265 0.0
C690 C 0.07164 0.15054 0.97184 0.0
C691 C 0.05517 0.09455 0.87935 0.0
C692 C 0.06116 0.11412 0.90932 0.0
H693 H 0.09695 0.17542 0.15173 0.0
H694 H 0.09771 0.15139 0.06751 0.0
H695 H 0.03909 0.15537 0.97484 0.0
H696 H 0.01862 0.07576 0.78545 0.0
H697 H 0.03082 0.10785 0.82727 0.0
C698 C 0.32113 0.05468 0.13087 0.0
C699 C 0.30668 0.03937 0.11757 0.0
C700 C 0.33595 0.06016 0.08828 0.0
C701 C 0.35395 0.04997 0.92968 0.0
H702 H 0.40695 0.05168 0.00582 0.0
C703 C 0.42596 0.01824 0.82012 0.0
C704 C 0.44428 0.02945 0.82446 0.0
C705 C 0.40853 0.02475 0.85016 0.0
C706 C 0.39227 0.05163 0.98378 0.0
H707 H 0.29537 0.01877 0.04853 0.0
H708 H 0.32145 0.0278 0.97463 0.0
H709 H 0.37654 0.05461 0.06771 0.0
H710 H 0.45861 0.05641 0.8635 0.0
H711 H 0.42807 0.0675 0.91791 0.0
H712 H 0.36994 0.04551 0.84614 0.0
C713 C 0.32124 0.03604 0.01711 0.0
C714 C 0.37476 0.05341 0.0192 0.0
C715 C 0.30623 0.03082 0.05944 0.0
C716 C 0.44474 0.04744 0.8594 0.0
C717 C 0.4273 0.05378 0.89045 0.0
C718 C 0.37148 0.04792 0.89439 0.0
C719 C 0.33687 0.0501 0.03202 0.0
C720 C 0.35531 0.05199 0.99288 0.0
C721 C 0.40903 0.04248 0.88597 0.0
C722 C 0.39078 0.04814 0.92138 0.0
H723 H 0.32172 0.06146 0.17558 0.0
H724 H 0.34736 0.07145 0.1008 0.0
H725 H 0.3393 0.04926 0.9076 0.0
H726 H 0.42501 0.0044 0.79322 0.0
H727 H 0.39476 0.01557 0.84662 0.0
C728 C 0.44074 0.3036 0.06577 0.0
C729 C 0.45872 0.29236 0.06294 0.0
C730 C 0.43602 0.3173 0.01974 0.0
C731 C 0.45456 0.33853 0.8715 0.0
H732 H 0.44242 0.39026 0.94883 0.0
C733 C 0.48587 0.41548 0.78763 0.0
C734 C 0.47333 0.43271 0.78873 0.0
C735 C 0.47908 0.39689 0.81152 0.0
C736 C 0.44541 0.37591 0.92612 0.0
H737 H 0.48502 0.28523 0.00852 0.0
H738 H 0.47714 0.30929 0.92859 0.0
H739 H 0.43811 0.35872 0.00513 0.0
H740 H 0.4437 0.44383 0.81546 0.0
H741 H 0.432 0.41128 0.85864 0.0
H742 H 0.46317 0.35614 0.79371 0.0
C743 C 0.46633 0.30738 0.96523 0.0
C744 C 0.44285 0.35773 0.95831 0.0
C745 C 0.47089 0.2935 0.01094 0.0
C746 C 0.45376 0.43087 0.81409 0.0
C747 C 0.44704 0.41226 0.83874 0.0
C748 C 0.45731 0.35677 0.83951 0.0
C749 C 0.44946 0.3203 0.9708 0.0
C750 C 0.44804 0.33884 0.93214 0.0
C751 C 0.45966 0.39509 0.83763 0.0
C752 C 0.4534 0.37568 0.86723 0.0
H753 H 0.43128 0.30306 0.10595 0.0
H754 H 0.42265 0.32662 0.02478 0.0
H755 H 0.45834 0.32426 0.84952 0.0
H756 H 0.50098 0.41629 0.76811 0.0
H757 H 0.48928 0.38404 0.81093 0.0
C758 C 0.19581 0.49265 0.0724 0.0
C759 C 0.19301 0.49283 0.13527 0.0
C760 C 0.18094 0.48389 0.03496 0.0
C761 C 0.12612 0.47813 0.03916 0.0
H762 H 0.13246 0.45182 0.88321 0.0
C763 C 0.05792 0.47001 0.88126 0.0
C764 C 0.06161 0.47493 0.82043 0.0
C765 C 0.07407 0.46639 0.9204 0.0
C766 C 0.13045 0.45924 0.92658 0.0
H767 H 0.17385 0.48239 0.20901 0.0
H768 H 0.14809 0.46674 0.14392 0.0
H769 H 0.16171 0.45515 0.9507 0.0
H770 H 0.08511 0.47911 0.75232 0.0
H771 H 0.11325 0.47364 0.82088 0.0
H772 H 0.09539 0.48338 0.01456 0.0
C773 C 0.16145 0.47367 0.12329 0.0
C774 C 0.14718 0.46105 0.96524 0.0
C775 C 0.1762 0.48249 0.1605 0.0
C776 C 0.08175 0.47534 0.79898 0.0
C777 C 0.09791 0.47203 0.83831 0.0
C778 C 0.10953 0.47652 0.0005 0.0
C779 C 0.16315 0.47521 0.06013 0.0
C780 C 0.14522 0.47079 0.02159 0.0
C781 C 0.09431 0.46797 0.89985 0.0
C782 C 0.11151 0.46736 0.94326 0.0
H783 H 0.20862 0.50067 0.05214 0.0
H784 H 0.18262 0.48537 0.98645 0.0
H785 H 0.12419 0.48612 0.08172 0.0
H786 H 0.04255 0.46927 0.89893 0.0
H787 H 0.07069 0.46282 0.96716 0.0
C788 C 0.97982 0.79444 0.32707 0.0
C789 C 0.00055 0.78971 0.32394 0.0
C790 C 0.97275 0.80794 0.37133 0.0
C791 C 0.98712 0.83634 0.51103 0.0
H792 H 0.96038 0.88182 0.43402 0.0
C793 C 0.97668 0.91281 0.63526 0.0
C794 C 0.9841 0.92979 0.60254 0.0
C795 C 0.97306 0.89411 0.60633 0.0
C796 C 0.96769 0.86919 0.45632 0.0
H797 H 0.02979 0.79382 0.36689 0.0
H798 H 0.01749 0.81708 0.4447 0.0
H799 H 0.9645 0.84981 0.37883 0.0
H800 H 0.99228 0.94069 0.51305 0.0
H801 H 0.98599 0.90808 0.4627 0.0
H802 H 0.99135 0.85611 0.58724 0.0
C803 C 0.00664 0.81047 0.41332 0.0
C804 C 0.96984 0.85076 0.42502 0.0
C805 C 0.01372 0.79718 0.36877 0.0
C806 C 0.98665 0.92794 0.53967 0.0
C807 C 0.98292 0.90925 0.51072 0.0
C808 C 0.98487 0.85473 0.54247 0.0
C809 C 0.98628 0.81671 0.41341 0.0
C810 C 0.98021 0.83438 0.45128 0.0
C811 C 0.97662 0.892 0.54401 0.0
C812 C 0.97575 0.87157 0.51466 0.0
H813 H 0.96944 0.789 0.29252 0.0
H814 H 0.95695 0.81236 0.37069 0.0
H815 H 0.99506 0.82394 0.53253 0.0
H816 H 0.97442 0.91369 0.68371 0.0
H817 H 0.96798 0.88114 0.63302 0.0
C818 C 0.69561 0.02948 0.32863 0.0
C819 C 0.70532 0.01656 0.28721 0.0
C820 C 0.68178 0.02147 0.37063 0.0
C821 C 0.64452 0.98061 0.38013 0.0
H822 H 0.63708 0.00025 0.54412 0.0
C823 C 0.58404 0.97564 0.59356 0.0
C824 C 0.5661 0.98142 0.56405 0.0
C825 C 0.60252 0.97523 0.56241 0.0
C826 C 0.63907 0.99435 0.49871 0.0
H827 H 0.70908 0.98515 0.25874 0.0
H828 H 0.68467 0.97107 0.33216 0.0
H829 H 0.66848 0.00852 0.48973 0.0
H830 H 0.55336 0.98985 0.47747 0.0
H831 H 0.58567 0.98901 0.42302 0.0
H832 H 0.61474 0.96715 0.38827 0.0
C833 C 0.68785 0.98736 0.33229 0.0
C834 C 0.65699 0.9992 0.46753 0.0
C835 C 0.70194 0.99536 0.29082 0.0
C836 C 0.56687 0.9854 0.50165 0.0
C837 C 0.58538 0.98485 0.47038 0.0
C838 C 0.62649 0.97595 0.4111 0.0
C839 C 0.67719 0.00043 0.37128 0.0
C840 C 0.65972 0.99272 0.40754 0.0
C841 C 0.60348 0.9804 0.50094 0.0
C842 C 0.62343 0.98311 0.4703 0.0
H843 H 0.69787 0.04589 0.32619 0.0
H844 H 0.67367 0.03193 0.39977 0.0
H845 H 0.64613 0.97559 0.33367 0.0
H846 H 0.58403 0.97231 0.64149 0.0
H847 H 0.61619 0.97146 0.58688 0.0
C848 C 0.49159 0.69214 0.32217 0.0
C849 C 0.50522 0.69993 0.27882 0.0
C850 C 0.49851 0.67986 0.36898 0.0
C851 C 0.53785 0.64257 0.39208 0.0
H852 H 0.5119 0.63739 0.54904 0.0
C853 C 0.52342 0.56553 0.50818 0.0
C854 C 0.52369 0.56438 0.57159 0.0
C855 C 0.52664 0.58422 0.47907 0.0
C856 C 0.51964 0.63876 0.50591 0.0
H857 H 0.53687 0.70231 0.25241 0.0
H858 H 0.5491 0.68075 0.33471 0.0
H859 H 0.50771 0.66858 0.49071 0.0
H860 H 0.52872 0.58182 0.65397 0.0
H861 H 0.53438 0.61439 0.60302 0.0
H862 H 0.54923 0.61247 0.4064 0.0
C863 C 0.53305 0.68409 0.3323 0.0
C864 C 0.5171 0.65658 0.47231 0.0
C865 C 0.52611 0.69655 0.28562 0.0
C866 C 0.52822 0.58217 0.60508 0.0
C867 C 0.53141 0.60087 0.57592 0.0
C868 C 0.54037 0.62473 0.42565 0.0
C869 C 0.51921 0.675 0.37309 0.0
C870 C 0.52555 0.65837 0.41412 0.0
C871 C 0.53021 0.60219 0.51268 0.0
C872 C 0.53069 0.62234 0.48197 0.0
H873 H 0.47541 0.69454 0.31768 0.0
H874 H 0.48741 0.67297 0.39921 0.0
H875 H 0.54446 0.64339 0.34722 0.0
H876 H 0.52003 0.55213 0.48094 0.0
H877 H 0.52536 0.58473 0.43031 0.0
C878 C 0.8079 0.54366 0.28064 0.0
C879 C 0.79937 0.52429 0.26844 0.0
C880 C 0.82381 0.5457 0.32222 0.0
C881 C 0.86628 0.51538 0.36036 0.0
H882 H 0.87773 0.55125 0.4962 0.0
C883 C 0.93208 0.50016 0.5175 0.0
C884 C 0.944 0.51646 0.53989 0.0
C885 C 0.9145 0.50382 0.48494 0.0
C886 C 0.87483 0.54142 0.45763 0.0
H887 H 0.799 0.49239 0.29385 0.0
H888 H 0.82654 0.49596 0.36688 0.0
H889 H 0.84469 0.55303 0.44473 0.0
H890 H 0.94677 0.54949 0.54511 0.0
H891 H 0.91581 0.55592 0.48688 0.0
H892 H 0.89615 0.50384 0.37191 0.0
C893 C 0.82115 0.50949 0.34417 0.0
C894 C 0.85594 0.54235 0.42865 0.0
C895 C 0.80534 0.50746 0.30284 0.0
C896 C 0.93796 0.53661 0.5282 0.0
C897 C 0.92019 0.54029 0.49536 0.0
C898 C 0.88508 0.51461 0.38861 0.0
C899 C 0.83126 0.52836 0.35159 0.0
C900 C 0.85137 0.52887 0.38095 0.0
C901 C 0.90831 0.52388 0.47336 0.0
C902 C 0.88938 0.52714 0.43871 0.0
H903 H 0.80365 0.55677 0.25394 0.0
H904 H 0.83143 0.56038 0.32723 0.0
H905 H 0.86331 0.50524 0.32251 0.0
H906 H 0.93616 0.48443 0.52568 0.0
H907 H 0.90552 0.49082 0.46968 0.0
loop_
_geom_bond_atom_site_label_1
_geom_bond_atom_site_label_2
_geom_bond_distance
_geom_bond_site_symmetry_2
_ccdc_geom_bond_type
H0 C5 0.930 . S
H1 C8 0.930 . S
H2 C10 0.930 . S
H3 C4 1.016 . S
C4 H3 1.016 . S
C4 N11 1.286 1_556 S
C5 H0 0.930 . S
C5 C6 1.397 . S
C5 C7 1.361 . S
C6 C5 1.397 . S
C6 C10 1.390 . S
C7 C5 1.361 . S
C7 C8 1.393 1_554 S
C7 N11 1.413 . S
C8 H1 0.930 . S
C8 C7 1.393 1_556 S
C8 C9 1.399 . S
C9 C8 1.399 . S
C9 C10 1.381 1_556 S
C10 H2 0.930 . S
C10 C6 1.390 . S
C10 C9 1.381 1_554 S
N11 C4 1.286 1_554 S
N11 C7 1.413 . S
H12 C17 0.930 . S
H13 C20 0.930 . S
H14 C22 0.942 . S
H15 C16 1.016 . S
C16 H15 1.016 . S
C16 N23 1.286 1_655 S
C17 H12 0.930 . S
C17 C18 1.397 . S
C17 C19 1.361 . S
C18 C17 1.397 . S
C18 C22 1.385 1_455 S
C19 C17 1.361 . S
C19 C20 1.393 . S
C19 N23 1.413 . S
C20 H13 0.930 . S
C20 C19 1.393 . S
C20 C21 1.399 . S
C21 C20 1.399 . S
C21 C22 1.377 1_455 S
C22 H14 0.942 . S
C22 C18 1.385 1_655 S
C22 C21 1.377 1_655 S
N23 C16 1.286 1_455 S
N23 C19 1.413 . S
H24 C29 0.930 . S
H25 C32 0.930 1_556 S
H26 C34 0.930 . S
H27 C28 1.008 1_556 S
C28 H27 1.008 1_554 S
C28 N35 1.286 1_565 S
C29 H24 0.930 . S
C29 C30 1.397 . S
C29 C31 1.361 . S
C30 C29 1.397 . S
C30 C34 1.390 1_545 S
C31 C29 1.361 . S
C31 C32 1.393 . S
C31 N35 1.413 . S
C32 H25 0.930 1_554 S
C32 C31 1.393 . S
C32 C33 1.404 . S
C33 C32 1.404 . S
C33 C34 1.378 1_545 S
C34 H26 0.930 . S
C34 C30 1.390 1_565 S
C34 C33 1.378 1_565 S
N35 C28 1.286 1_545 S
N35 C31 1.413 . S
H36 C41 0.930 . S
H37 C44 0.930 1_556 S
H38 C46 0.930 . S
H39 C40 1.016 1_556 S
C40 H39 1.016 1_554 S
C40 N47 1.286 . S
C41 H36 0.930 . S
C41 C42 1.397 . S
C41 C43 1.361 . S
C42 C41 1.397 . S
C42 C46 1.390 . S
C43 C41 1.361 . S
C43 C44 1.393 . S
C43 N47 1.413 . S
C44 H37 0.930 1_554 S
C44 C43 1.393 . S
C44 C45 1.399 . S
C45 C44 1.399 . S
C45 C46 1.381 . S
C46 H38 0.930 . S
C46 C42 1.390 . S
C46 C45 1.381 . S
N47 C40 1.286 . S
N47 C43 1.413 . S
H48 C53 0.930 . S
H49 C56 0.930 . S
H50 C58 0.930 . S
H51 C52 1.016 . S
C52 H51 1.016 . S
C52 N59 1.286 . S
C53 H48 0.930 . S
C53 C54 1.397 . S
C53 C55 1.361 . S
C54 C53 1.397 . S
C54 C58 1.390 . S
C55 C53 1.361 . S
C55 C56 1.393 . S
C55 N59 1.413 . S
C56 H49 0.930 . S
C56 C55 1.393 . S
C56 C57 1.399 . S
C57 C56 1.399 . S
C57 C58 1.381 . S
C58 H50 0.930 . S
C58 C54 1.390 . S
C58 C57 1.381 . S
N59 C52 1.286 . S
N59 C55 1.413 . S
H60 C65 0.930 . S
H61 C68 0.930 . S
H62 C70 0.930 . S
H63 C64 1.016 . S
C64 H63 1.016 . S
C64 N71 1.286 . S
C65 H60 0.930 . S
C65 C66 1.397 . S
C65 C67 1.361 . S
C66 C65 1.397 . S
C66 C70 1.390 . S
C67 C65 1.361 . S
C67 C68 1.393 . S
C67 N71 1.413 . S
C68 H61 0.930 . S
C68 C67 1.393 . S
C68 C69 1.399 . S
C69 C68 1.399 . S
C69 C70 1.381 . S
C70 H62 0.930 . S
C70 C66 1.390 . S
C70 C69 1.381 . S
N71 C64 1.286 . S
N71 C67 1.413 . S
H72 C77 0.930 . S
H73 C80 0.930 . S
H74 C82 0.930 . S
H75 C76 1.016 . S
C76 H75 1.016 . S
C76 N83 1.286 . S
C77 H72 0.930 . S
C77 C78 1.397 . S
C77 C79 1.361 . S
C78 C77 1.397 . S
C78 C82 1.390 . S
C79 C77 1.361 . S
C79 C80 1.393 . S
C79 N83 1.413 . S
C80 H73 0.930 . S
C80 C79 1.393 . S
C80 C81 1.399 . S
C81 C80 1.399 . S
C81 C82 1.381 . S
C82 H74 0.930 . S
C82 C78 1.390 . S
C82 C81 1.381 . S
N83 C76 1.286 . S
N83 C79 1.413 . S
H84 C89 0.930 . S
H85 C92 0.930 . S
H86 C94 0.930 . S
H87 C88 1.016 . S
C88 H87 1.016 . S
C88 N95 1.286 . S
C89 H84 0.930 . S
C89 C90 1.397 . S
C89 C91 1.361 . S
C90 C89 1.397 . S
C90 C94 1.390 . S
C91 C89 1.361 . S
C91 C92 1.393 . S
C91 N95 1.413 . S
C92 H85 0.930 . S
C92 C91 1.393 . S
C92 C93 1.399 . S
C93 C92 1.399 . S
C93 C94 1.381 . S
C94 H86 0.930 . S
C94 C90 1.390 . S
C94 C93 1.381 . S
N95 C88 1.286 . S
N95 C91 1.413 . S
O96 Zn97 1.956 . S
O96 C112 1.225 1_545 S
Zn97 O96 1.956 . S
Zn97 O98 1.948 1_545 S
Zn97 O104 1.952 . S
Zn97 O109 1.885 1_545 S
O98 Zn97 1.948 1_565 S
O98 Zn99 1.903 1_465 S
O98 Zn100 1.952 . S
O98 Zn101 1.963 1_455 S
Zn99 O98 1.903 1_645 S
Zn99 O102 1.933 . S
Zn99 O105 1.941 1_655 S
Zn99 O106 1.962 1_655 S
Zn100 O98 1.952 . S
Zn100 O107 1.938 1_565 S
Zn100 O108 1.906 . S
Zn100 O118 1.953 . S
Zn101 O98 1.963 1_655 S
Zn101 O103 1.932 . S
Zn101 O110 1.977 . S
Zn101 O111 1.910 1_655 S
O102 Zn99 1.933 . S
O102 C113 1.226 . S
O103 Zn101 1.932 . S
O103 C113 1.307 1_565 S
O104 Zn97 1.952 . S
O104 C115 1.253 . S
O105 Zn99 1.941 1_455 S
O105 C115 1.283 . S
O106 Zn99 1.962 1_455 S
O106 C114 1.330 . S
O107 Zn100 1.938 1_545 S
O107 C114 1.247 . S
O108 Zn100 1.906 . S
O108 C116 1.304 1_455 S
O109 Zn97 1.885 1_565 S
O109 C117 1.311 . S
O110 Zn101 1.977 . S
O110 C116 1.272 . S
O111 Zn101 1.910 1_455 S
O111 C117 1.231 . S
C112 O96 1.225 1_565 S
C112 O118 1.298 . S
C113 O102 1.226 . S
C113 O103 1.307 1_545 S
C114 O106 1.330 . S
C114 O107 1.247 . S
C115 O104 1.253 . S
C115 O105 1.283 . S
C116 O108 1.304 1_655 S
C116 O110 1.272 . S
C117 O109 1.311 . S
C117 O111 1.231 . S
O118 Zn100 1.953 . S
O118 C112 1.298 . S
O119 Zn120 1.953 . S
O119 C135 1.225 . S
Zn120 O119 1.953 . S
Zn120 O121 1.949 . S
Zn120 O127 1.919 . S
Zn120 O132 1.924 . S
O121 Zn120 1.949 . S
O121 Zn122 1.923 1_545 S
O121 Zn123 1.950 . S
O121 Zn124 1.945 1_545 S
Zn122 O121 1.923 1_565 S
Zn122 O125 1.933 . S
Zn122 O128 1.941 . S
Zn122 O129 1.965 . S
Zn123 O121 1.950 . S
Zn123 O130 1.938 . S
Zn123 O131 1.906 . S
Zn123 O141 1.953 . S
Zn124 O121 1.945 1_565 S
Zn124 O126 1.932 . S
Zn124 O133 1.977 . S
Zn124 O134 1.910 1_565 S
O125 Zn122 1.933 . S
O125 C136 1.226 . S
O126 Zn124 1.932 . S
O126 C136 1.307 . S
O127 Zn120 1.919 . S
O127 C138 1.253 . S
O128 Zn122 1.941 . S
O128 C138 1.283 1_565 S
O129 Zn122 1.965 . S
O129 C137 1.303 1_565 S
O130 Zn123 1.938 . S
O130 C137 1.247 . S
O131 Zn123 1.906 . S
O131 C139 1.304 1_545 S
O132 Zn120 1.924 . S
O132 C140 1.311 . S
O133 Zn124 1.977 . S
O133 C139 1.272 . S
O134 Zn124 1.910 1_545 S
O134 C140 1.231 . S
C135 O119 1.225 . S
C135 O141 1.298 . S
C136 O125 1.226 . S
C136 O126 1.307 . S
C137 O129 1.303 1_545 S
C137 O130 1.247 . S
C138 O127 1.253 . S
C138 O128 1.283 1_545 S
C139 O131 1.304 1_565 S
C139 O133 1.272 . S
C140 O132 1.311 . S
C140 O134 1.231 . S
O141 Zn123 1.953 . S
O141 C135 1.298 . S
O142 Zn143 1.953 . S
O142 C158 1.225 . S
Zn143 O142 1.953 . S
Zn143 O144 1.949 . S
Zn143 O150 1.919 . S
Zn143 O155 1.924 . S
O144 Zn143 1.949 . S
O144 Zn145 1.923 . S
O144 Zn146 1.950 . S
O144 Zn147 1.945 . S
Zn145 O144 1.923 . S
Zn145 O148 1.933 . S
Zn145 O151 1.941 . S
Zn145 O152 1.965 . S
Zn146 O144 1.950 . S
Zn146 O153 1.938 . S
Zn146 O154 1.906 . S
Zn146 O164 1.953 . S
Zn147 O144 1.945 . S
Zn147 O149 1.932 . S
Zn147 O156 1.977 . S
Zn147 O157 1.910 . S
O148 Zn145 1.933 . S
O148 C159 1.226 . S
O149 Zn147 1.932 . S
O149 C159 1.307 . S
O150 Zn143 1.919 . S
O150 C161 1.253 . S
O151 Zn145 1.941 . S
O151 C161 1.283 . S
O152 Zn145 1.965 . S
O152 C160 1.303 . S
O153 Zn146 1.938 . S
O153 C160 1.247 . S
O154 Zn146 1.906 . S
O154 C162 1.304 . S
O155 Zn143 1.924 . S
O155 C163 1.311 . S
O156 Zn147 1.977 . S
O156 C162 1.272 . S
O157 Zn147 1.910 . S
O157 C163 1.231 . S
C158 O142 1.225 . S
C158 O164 1.298 . S
C159 O148 1.226 . S
C159 O149 1.307 . S
C160 O152 1.303 . S
C160 O153 1.247 . S
C161 O150 1.253 . S
C161 O151 1.283 . S
C162 O154 1.304 . S
C162 O156 1.272 . S
C163 O155 1.311 . S
C163 O157 1.231 . S
O164 Zn146 1.953 . S
O164 C158 1.298 . S
O165 Zn166 1.926 1_655 S
O165 C181 1.225 . S
Zn166 O165 1.926 1_455 S
Zn166 O167 1.949 . S
Zn166 O173 1.919 . S
Zn166 O178 1.953 . S
O167 Zn166 1.949 . S
O167 Zn168 1.918 1_455 S
O167 Zn169 1.929 1_455 S
O167 Zn170 1.973 . S
Zn168 O167 1.918 1_655 S
Zn168 O171 1.933 1_655 S
Zn168 O174 1.941 . S
Zn168 O175 1.965 . S
Zn169 O167 1.929 1_655 S
Zn169 O176 1.938 . S
Zn169 O177 1.906 . S
Zn169 O187 1.953 . S
Zn170 O167 1.973 . S
Zn170 O172 1.932 . S
Zn170 O179 1.977 . S
Zn170 O180 1.910 . S
O171 Zn168 1.933 1_455 S
O171 C182 1.226 . S
O172 Zn170 1.932 . S
O172 C182 1.307 . S
O173 Zn166 1.919 . S
O173 C184 1.252 . S
O174 Zn168 1.941 . S
O174 C184 1.284 1_655 S
O175 Zn168 1.965 . S
O175 C183 1.303 . S
O176 Zn169 1.938 . S
O176 C183 1.247 . S
O177 Zn169 1.906 . S
O177 C185 1.304 1_655 S
O178 Zn166 1.953 . S
O178 C186 1.311 . S
O179 Zn170 1.977 . S
O179 C185 1.272 . S
O180 Zn170 1.910 . S
O180 C186 1.231 . S
C181 O165 1.225 . S
C181 O187 1.298 . S
C182 O171 1.226 . S
C182 O172 1.307 . S
C183 O175 1.303 . S
C183 O176 1.247 . S
C184 O173 1.252 . S
C184 O174 1.284 1_455 S
C185 O177 1.304 1_455 S
C185 O179 1.272 . S
C186 O178 1.311 . S
C186 O180 1.231 . S
O187 Zn169 1.953 . S
O187 C181 1.298 . S
C188 C189 1.349 . S
C188 C190 1.327 . S
C188 H213 0.950 . S
C189 C188 1.349 . S
C189 C205 1.349 1_545 S
C190 C188 1.327 . S
C190 C209 1.429 . S
C190 H214 0.950 . S
C191 C208 1.574 . S
C191 C210 1.368 1_565 S
C191 H215 0.949 . S
H192 C196 0.949 . S
C193 C194 1.349 . S
C193 C195 1.327 . S
C193 H216 0.950 . S
C194 C193 1.349 . S
C194 C206 1.349 1_565 S
C195 C193 1.327 . S
C195 C211 1.429 1_565 S
C195 H217 0.950 . S
C196 H192 0.949 . S
C196 C204 1.574 . S
C196 C212 1.368 . S
H197 C205 0.950 . S
H198 C203 0.950 . S
H199 C204 0.949 . S
H200 C206 0.950 . S
H201 C207 0.950 . S
H202 C208 0.949 . S
C203 H198 0.950 . S
C203 C205 1.327 . S
C203 C209 1.429 1_565 S
C204 C196 1.574 . S
C204 H199 0.949 . S
C204 C210 1.368 . S
C205 C189 1.349 1_565 S
C205 H197 0.950 . S
C205 C203 1.327 . S
C206 C194 1.349 1_545 S
C206 H200 0.950 . S
C206 C207 1.327 . S
C207 H201 0.950 . S
C207 C206 1.327 . S
C207 C211 1.429 . S
C208 C191 1.574 . S
C208 H202 0.949 . S
C208 C212 1.368 1_565 S
C209 C190 1.429 . S
C209 C203 1.429 1_545 S
C209 C210 1.523 . S
C210 C191 1.368 1_545 S
C210 C204 1.368 . S
C210 C209 1.523 . S
C211 C195 1.429 1_545 S
C211 C207 1.429 . S
C211 C212 1.523 . S
C212 C196 1.368 . S
C212 C208 1.368 1_545 S
C212 C211 1.523 . S
H213 C188 0.950 . S
H214 C190 0.950 . S
H215 C191 0.949 . S
H216 C193 0.950 . S
H217 C195 0.950 . S
C218 C219 1.349 . S
C218 C220 1.327 . S
C218 H243 0.950 . S
C219 C218 1.349 . S
C219 C235 1.349 . S
C220 C218 1.327 . S
C220 C239 1.429 . S
C220 H244 0.950 . S
C221 C238 1.574 . S
C221 C240 1.368 . S
C221 H245 0.949 . S
H222 C226 0.949 . S
C223 C224 1.349 . S
C223 C225 1.327 . S
C223 H246 0.950 . S
C224 C223 1.349 . S
C224 C236 1.349 . S
C225 C223 1.327 . S
C225 C241 1.429 . S
C225 H247 0.950 . S
C226 H222 0.949 . S
C226 C234 1.574 . S
C226 C242 1.368 . S
H227 C235 0.950 . S
H228 C233 0.950 . S
H229 C234 0.949 . S
H230 C236 0.950 . S
H231 C237 0.950 . S
H232 C238 0.949 . S
C233 H228 0.950 . S
C233 C235 1.327 . S
C233 C239 1.429 . S
C234 C226 1.574 . S
C234 H229 0.949 . S
C234 C240 1.368 . S
C235 C219 1.349 . S
C235 H227 0.950 . S
C235 C233 1.327 . S
C236 C224 1.349 . S
C236 H230 0.950 . S
C236 C237 1.327 . S
C237 H231 0.950 . S
C237 C236 1.327 . S
C237 C241 1.429 . S
C238 C221 1.574 . S
C238 H232 0.949 . S
C238 C242 1.368 . S
C239 C220 1.429 . S
C239 C233 1.429 . S
C239 C240 1.523 . S
C240 C221 1.368 . S
C240 C234 1.368 . S
C240 C239 1.523 . S
C241 C225 1.429 . S
C241 C237 1.429 . S
C241 C242 1.523 . S
C242 C226 1.368 . S
C242 C238 1.368 . S
C242 C241 1.523 . S
H243 C218 0.950 . S
H244 C220 0.950 . S
H245 C221 0.949 . S
H246 C223 0.950 . S
H247 C225 0.950 . S
C248 C249 1.349 . S
C248 C250 1.327 . S
C248 H273 0.950 . S
C249 C248 1.349 . S
C249 C265 1.349 . S
C250 C248 1.327 . S
C250 C269 1.429 . S
C250 H274 0.950 . S
C251 C268 1.574 . S
C251 C270 1.368 . S
C251 H275 0.949 . S
H252 C256 0.949 . S
C253 C254 1.349 . S
C253 C255 1.327 . S
C253 H276 0.950 . S
C254 C253 1.349 . S
C254 C266 1.349 . S
C255 C253 1.327 . S
C255 C271 1.429 . S
C255 H277 0.950 . S
C256 H252 0.949 . S
C256 C264 1.574 . S
C256 C272 1.368 . S
H257 C265 0.950 . S
H258 C263 0.950 . S
H259 C264 0.949 . S
H260 C266 0.950 . S
H261 C267 0.950 . S
H262 C268 0.949 . S
C263 H258 0.950 . S
C263 C265 1.327 . S
C263 C269 1.429 . S
C264 C256 1.574 . S
C264 H259 0.949 . S
C264 C270 1.368 . S
C265 C249 1.349 . S
C265 H257 0.950 . S
C265 C263 1.327 . S
C266 C254 1.349 . S
C266 H260 0.950 . S
C266 C267 1.327 . S
C267 H261 0.950 . S
C267 C266 1.327 . S
C267 C271 1.429 . S
C268 C251 1.574 . S
C268 H262 0.949 . S
C268 C272 1.368 . S
C269 C250 1.429 . S
C269 C263 1.429 . S
C269 C270 1.523 . S
C270 C251 1.368 . S
C270 C264 1.368 . S
C270 C269 1.523 . S
C271 C255 1.429 . S
C271 C267 1.429 . S
C271 C272 1.523 . S
C272 C256 1.368 . S
C272 C268 1.368 . S
C272 C271 1.523 . S
H273 C248 0.950 . S
H274 C250 0.950 . S
H275 C251 0.949 . S
H276 C253 0.950 . S
H277 C255 0.950 . S
C278 C279 1.349 . S
C278 C280 1.327 . S
C278 H303 0.950 . S
C279 C278 1.349 . S
C279 C295 1.349 . S
C280 C278 1.327 . S
C280 C299 1.429 . S
C280 H304 0.950 . S
C281 C298 1.574 . S
C281 C300 1.368 . S
C281 H305 0.949 . S
H282 C286 0.949 1_655 S
C283 C284 1.349 . S
C283 C285 1.327 . S
C283 H306 0.950 . S
C284 C283 1.349 . S
C284 C296 1.349 1_455 S
C285 C283 1.327 . S
C285 C301 1.429 . S
C285 H307 0.950 . S
C286 H282 0.949 1_455 S
C286 C294 1.574 . S
C286 C302 1.368 . S
H287 C295 0.950 . S
H288 C293 0.950 . S
H289 C294 0.949 . S
H290 C296 0.950 . S
H291 C297 0.939 1_655 S
H292 C298 0.949 . S
C293 H288 0.950 . S
C293 C295 1.327 . S
C293 C299 1.429 . S
C294 C286 1.574 . S
C294 H289 0.949 . S
C294 C300 1.368 . S
C295 C279 1.349 . S
C295 H287 0.950 . S
C295 C293 1.327 . S
C296 C284 1.349 1_655 S
C296 H290 0.950 . S
C296 C297 1.324 1_655 S
C297 H291 0.939 1_455 S
C297 C296 1.324 1_455 S
C297 C301 1.442 . S
C298 C281 1.574 . S
C298 H292 0.949 . S
C298 C302 1.368 . S
C299 C280 1.429 . S
C299 C293 1.429 . S
C299 C300 1.523 . S
C300 C281 1.368 . S
C300 C294 1.368 . S
C300 C299 1.523 . S
C301 C285 1.429 . S
C301 C297 1.442 . S
C301 C302 1.523 . S
C302 C286 1.368 . S
C302 C298 1.368 . S
C302 C301 1.523 . S
H303 C278 0.950 . S
H304 C280 0.950 . S
H305 C281 0.949 . S
H306 C283 0.950 . S
H307 C285 0.950 . S
C308 C309 1.361 1_556 S
C308 C310 1.327 . S
C308 H333 0.950 . S
C309 C308 1.361 1_554 S
C309 C325 1.337 1_565 S
C310 C308 1.327 . S
C310 C329 1.426 1_565 S
C310 H334 0.950 . S
C311 C328 1.574 . S
C311 C330 1.385 . S
C311 H335 0.949 . S
H312 C316 0.949 . S
C313 C314 1.349 . S
C313 C315 1.327 . S
C313 H336 0.950 . S
C314 C313 1.349 . S
C314 C326 1.349 1_545 S
C315 C313 1.327 . S
C315 C331 1.429 . S
C315 H337 0.950 . S
C316 H312 0.949 . S
C316 C324 1.574 . S
C316 C332 1.328 1_565 S
H317 C325 0.950 . S
H318 C323 0.950 . S
H319 C324 0.949 . S
H320 C326 0.950 . S
H321 C327 0.950 . S
H322 C328 0.949 . S
C323 H318 0.950 . S
C323 C325 1.327 . S
C323 C329 1.431 1_554 S
C324 C316 1.574 . S
C324 H319 0.949 . S
C324 C330 1.352 1_565 S
C325 C309 1.337 1_545 S
C325 H317 0.950 . S
C325 C323 1.327 . S
C326 C314 1.349 1_565 S
C326 H320 0.950 . S
C326 C327 1.327 . S
C327 H321 0.950 . S
C327 C326 1.327 . S
C327 C331 1.429 1_565 S
C328 C311 1.574 . S
C328 H322 0.949 . S
C328 C332 1.409 . S
C329 C310 1.426 1_545 S
C329 C323 1.431 1_556 S
C329 C330 1.523 . S
C330 C311 1.385 . S
C330 C324 1.352 1_545 S
C330 C329 1.523 . S
C331 C315 1.429 . S
C331 C327 1.429 1_545 S
C331 C332 1.524 . S
C332 C316 1.328 1_545 S
C332 C328 1.409 . S
C332 C331 1.524 . S
H333 C308 0.950 . S
H334 C310 0.950 . S
H335 C311 0.949 . S
H336 C313 0.950 . S
H337 C315 0.950 . S
C338 C339 1.349 . S
C338 C340 1.327 . S
C338 H363 0.950 . S
C339 C338 1.349 . S
C339 C355 1.349 1_556 S
C340 C338 1.327 . S
C340 C359 1.429 . S
C340 H364 0.950 . S
C341 C358 1.574 . S
C341 C360 1.368 . S
C341 H365 0.949 . S
H342 C346 0.949 . S
C343 C344 1.349 . S
C343 C345 1.327 . S
C343 H366 0.950 . S
C344 C343 1.349 . S
C344 C356 1.349 . S
C345 C343 1.327 . S
C345 C361 1.429 . S
C345 H367 0.950 . S
C346 H342 0.949 . S
C346 C354 1.574 . S
C346 C362 1.368 . S
H347 C355 0.950 . S
H348 C353 0.950 1_554 S
H349 C354 0.949 . S
H350 C356 0.950 . S
H351 C357 0.950 . S
H352 C358 0.949 . S
C353 H348 0.950 1_556 S
C353 C355 1.327 1_556 S
C353 C359 1.429 . S
C354 C346 1.574 . S
C354 H349 0.949 . S
C354 C360 1.368 . S
C355 C339 1.349 1_554 S
C355 H347 0.950 . S
C355 C353 1.327 1_554 S
C356 C344 1.349 . S
C356 H350 0.950 . S
C356 C357 1.327 . S
C357 H351 0.950 . S
C357 C356 1.327 . S
C357 C361 1.429 . S
C358 C341 1.574 . S
C358 H352 0.949 . S
C358 C362 1.368 . S
C359 C340 1.429 . S
C359 C353 1.429 . S
C359 C360 1.523 . S
C360 C341 1.368 . S
C360 C354 1.368 . S
C360 C359 1.523 . S
C361 C345 1.429 . S
C361 C357 1.429 . S
C361 C362 1.523 . S
C362 C346 1.368 . S
C362 C358 1.368 . S
C362 C361 1.523 . S
H363 C338 0.950 . S
H364 C340 0.950 . S
H365 C341 0.949 . S
H366 C343 0.950 . S
H367 C345 0.950 . S
C368 C369 1.349 . S
C368 C370 1.327 . S
C368 H393 0.950 1_556 S
C369 C368 1.349 . S
C369 C385 1.349 . S
C370 C368 1.327 . S
C370 C389 1.429 . S
C370 H394 0.950 . S
C371 C388 1.574 . S
C371 C390 1.368 . S
C371 H395 0.949 . S
H372 C376 0.949 . S
C373 C374 1.349 . S
C373 C375 1.327 . S
C373 H396 0.950 . S
C374 C373 1.349 . S
C374 C386 1.349 . S
C375 C373 1.327 . S
C375 C391 1.429 . S
C375 H397 0.950 . S
C376 H372 0.949 . S
C376 C384 1.574 . S
C376 C392 1.368 . S
H377 C385 0.950 . S
H378 C383 0.950 . S
H379 C384 0.949 . S
H380 C386 0.950 . S
H381 C387 0.950 . S
H382 C388 0.949 . S
C383 H378 0.950 . S
C383 C385 1.327 . S
C383 C389 1.429 . S
C384 C376 1.574 . S
C384 H379 0.949 . S
C384 C390 1.368 . S
C385 C369 1.349 . S
C385 H377 0.950 . S
C385 C383 1.327 . S
C386 C374 1.349 . S
C386 H380 0.950 . S
C386 C387 1.327 . S
C387 H381 0.950 . S
C387 C386 1.327 . S
C387 C391 1.429 . S
C388 C371 1.574 . S
C388 H382 0.949 . S
C388 C392 1.368 . S
C389 C370 1.429 . S
C389 C383 1.429 . S
C389 C390 1.523 . S
C390 C371 1.368 . S
C390 C384 1.368 . S
C390 C389 1.523 . S
C391 C375 1.429 . S
C391 C387 1.429 . S
C391 C392 1.523 . S
C392 C376 1.368 . S
C392 C388 1.368 . S
C392 C391 1.523 . S
H393 C368 0.950 1_554 S
H394 C370 0.950 . S
H395 C371 0.949 . S
H396 C373 0.950 . S
H397 C375 0.950 . S
C398 C399 1.349 . S
C398 C400 1.327 . S
C398 H423 0.950 . S
C399 C398 1.349 . S
C399 C415 1.349 1_655 S
C400 C398 1.327 . S
C400 C419 1.426 1_554 S
C400 H424 0.950 . S
C401 C418 1.574 . S
C401 C420 1.389 . S
C401 H425 0.949 . S
H402 C406 0.949 . S
C403 C404 1.349 . S
C403 C405 1.327 . S
C403 H426 0.950 . S
C404 C403 1.349 . S
C404 C416 1.349 1_455 S
C405 C403 1.327 . S
C405 C421 1.429 . S
C405 H427 0.950 . S
C406 H402 0.949 . S
C406 C414 1.574 . S
C406 C422 1.368 1_655 S
H407 C415 0.950 1_556 S
H408 C413 0.950 . S
H409 C414 0.949 1_554 S
H410 C416 0.950 . S
H411 C417 0.950 . S
H412 C418 0.949 . S
C413 H408 0.950 . S
C413 C415 1.327 1_556 S
C413 C419 1.431 1_455 S
C414 C406 1.574 . S
C414 H409 0.949 1_556 S
C414 C420 1.350 1_655 S
C415 C399 1.349 1_455 S
C415 H407 0.950 1_554 S
C415 C413 1.327 1_554 S
C416 C404 1.349 1_655 S
C416 H410 0.950 . S
C416 C417 1.327 . S
C417 H411 0.950 . S
C417 C416 1.327 . S
C417 C421 1.429 1_655 S
C418 C401 1.574 . S
C418 H412 0.949 . S
C418 C422 1.368 . S
C419 C400 1.426 1_556 S
C419 C413 1.431 1_655 S
C419 C420 1.522 1_655 S
C420 C401 1.389 . S
C420 C414 1.350 1_455 S
C420 C419 1.522 1_455 S
C421 C405 1.429 . S
C421 C417 1.429 1_455 S
C421 C422 1.523 . S
C422 C406 1.368 1_455 S
C422 C418 1.368 . S
C422 C421 1.523 . S
H423 C398 0.950 . S
H424 C400 0.950 . S
H425 C401 0.949 . S
H426 C403 0.950 . S
H427 C405 0.950 . S
C428 C429 1.349 . S
C428 C430 1.327 . S
C428 H453 0.950 . S
C429 C428 1.349 . S
C429 C445 1.349 . S
C430 C428 1.327 . S
C430 C449 1.429 . S
C430 H454 0.950 . S
C431 C448 1.574 . S
C431 C450 1.368 . S
C431 H455 0.949 . S
H432 C436 0.949 . S
C433 C434 1.349 . S
C433 C435 1.327 . S
C433 H456 0.950 1_455 S
C434 C433 1.349 . S
C434 C446 1.349 . S
C435 C433 1.327 . S
C435 C451 1.429 . S
C435 H457 0.950 1_455 S
C436 H432 0.949 . S
C436 C444 1.574 . S
C436 C452 1.368 . S
H437 C445 0.950 . S
H438 C443 0.950 . S
H439 C444 0.949 . S
H440 C446 0.950 . S
H441 C447 0.950 . S
H442 C448 0.949 . S
C443 H438 0.950 . S
C443 C445 1.327 . S
C443 C449 1.429 . S
C444 C436 1.574 . S
C444 H439 0.949 . S
C444 C450 1.368 . S
C445 C429 1.349 . S
C445 H437 0.950 . S
C445 C443 1.327 . S
C446 C434 1.349 . S
C446 H440 0.950 . S
C446 C447 1.327 . S
C447 H441 0.950 . S
C447 C446 1.327 . S
C447 C451 1.429 . S
C448 C431 1.574 . S
C448 H442 0.949 . S
C448 C452 1.368 . S
C449 C430 1.429 . S
C449 C443 1.429 . S
C449 C450 1.523 . S
C450 C431 1.368 . S
C450 C444 1.368 . S
C450 C449 1.523 . S
C451 C435 1.429 . S
C451 C447 1.429 . S
C451 C452 1.523 . S
C452 C436 1.368 . S
C452 C448 1.368 . S
C452 C451 1.523 . S
H453 C428 0.950 . S
H454 C430 0.950 . S
H455 C431 0.949 . S
H456 C433 0.950 1_655 S
H457 C435 0.950 1_655 S
C458 C459 1.349 . S
C458 C460 1.327 . S
C458 H483 0.950 . S
C459 C458 1.349 . S
C459 C475 1.349 1_545 S
C460 C458 1.327 . S
C460 C479 1.429 . S
C460 H484 0.950 . S
C461 C478 1.574 . S
C461 C480 1.368 1_565 S
C461 H485 0.949 . S
H462 C466 0.949 . S
C463 C464 1.349 1_565 S
C463 C465 1.327 . S
C463 H486 0.950 . S
C464 C463 1.349 1_545 S
C464 C476 1.349 . S
C465 C463 1.327 . S
C465 C481 1.429 1_565 S
C465 H487 0.950 . S
C466 H462 0.949 . S
C466 C474 1.574 . S
C466 C482 1.368 . S
H467 C475 0.950 . S
H468 C473 0.950 . S
H469 C474 0.949 . S
H470 C476 0.950 . S
H471 C477 0.950 . S
H472 C478 0.949 . S
C473 H468 0.950 . S
C473 C475 1.327 . S
C473 C479 1.429 1_565 S
C474 C466 1.574 . S
C474 H469 0.949 . S
C474 C480 1.368 . S
C475 C459 1.349 1_565 S
C475 H467 0.950 . S
C475 C473 1.327 . S
C476 C464 1.349 . S
C476 H470 0.950 . S
C476 C477 1.327 . S
C477 H471 0.950 . S
C477 C476 1.327 . S
C477 C481 1.429 . S
C478 C461 1.574 . S
C478 H472 0.949 . S
C478 C482 1.368 1_565 S
C479 C460 1.429 . S
C479 C473 1.429 1_545 S
C479 C480 1.523 . S
C480 C461 1.368 1_545 S
C480 C474 1.368 . S
C480 C479 1.523 . S
C481 C465 1.429 1_545 S
C481 C477 1.429 . S
C481 C482 1.523 . S
C482 C466 1.368 . S
C482 C478 1.368 1_545 S
C482 C481 1.523 . S
H483 C458 0.950 . S
H484 C460 0.950 . S
H485 C461 0.949 . S
H486 C463 0.950 . S
H487 C465 0.950 . S
C488 C489 1.349 . S
C488 C490 1.327 . S
C488 H513 0.950 . S
C489 C488 1.349 . S
C489 C505 1.349 . S
C490 C488 1.327 . S
C490 C509 1.429 . S
C490 H514 0.950 . S
C491 C508 1.574 . S
C491 C510 1.368 . S
C491 H515 0.949 . S
H492 C496 0.949 . S
C493 C494 1.349 . S
C493 C495 1.327 . S
C493 H516 0.950 . S
C494 C493 1.349 . S
C494 C506 1.349 . S
C495 C493 1.327 . S
C495 C511 1.429 . S
C495 H517 0.950 . S
C496 H492 0.949 . S
C496 C504 1.574 . S
C496 C512 1.368 . S
H497 C505 0.950 . S
H498 C503 0.950 . S
H499 C504 0.949 . S
H500 C506 0.950 . S
H501 C507 0.950 . S
H502 C508 0.949 . S
C503 H498 0.950 . S
C503 C505 1.327 . S
C503 C509 1.429 . S
C504 C496 1.574 . S
C504 H499 0.949 . S
C504 C510 1.368 . S
C505 C489 1.349 . S
C505 H497 0.950 . S
C505 C503 1.327 . S
C506 C494 1.349 . S
C506 H500 0.950 . S
C506 C507 1.327 . S
C507 H501 0.950 . S
C507 C506 1.327 . S
C507 C511 1.429 . S
C508 C491 1.574 . S
C508 H502 0.949 . S
C508 C512 1.368 . S
C509 C490 1.429 . S
C509 C503 1.429 . S
C509 C510 1.523 . S
C510 C491 1.368 . S
C510 C504 1.368 . S
C510 C509 1.523 . S
C511 C495 1.429 . S
C511 C507 1.429 . S
C511 C512 1.523 . S
C512 C496 1.368 . S
C512 C508 1.368 . S
C512 C511 1.523 . S
H513 C488 0.950 . S
H514 C490 0.950 . S
H515 C491 0.949 . S
H516 C493 0.950 . S
H517 C495 0.950 . S
C518 C519 1.349 . S
C518 C520 1.327 . S
C518 H543 0.950 . S
C519 C518 1.349 . S
C519 C535 1.349 . S
C520 C518 1.327 . S
C520 C539 1.429 . S
C520 H544 0.950 . S
C521 C538 1.574 . S
C521 C540 1.368 . S
C521 H545 0.949 . S
H522 C526 0.949 . S
C523 C524 1.349 . S
C523 C525 1.327 . S
C523 H546 0.950 . S
C524 C523 1.349 . S
C524 C536 1.349 . S
C525 C523 1.327 . S
C525 C541 1.429 . S
C525 H547 0.950 . S
C526 H522 0.949 . S
C526 C534 1.574 . S
C526 C542 1.368 . S
H527 C535 0.950 . S
H528 C533 0.950 . S
H529 C534 0.949 . S
H530 C536 0.950 . S
H531 C537 0.950 . S
H532 C538 0.949 . S
C533 H528 0.950 . S
C533 C535 1.327 . S
C533 C539 1.429 . S
C534 C526 1.574 . S
C534 H529 0.949 . S
C534 C540 1.368 . S
C535 C519 1.349 . S
C535 H527 0.950 . S
C535 C533 1.327 . S
C536 C524 1.349 . S
C536 H530 0.950 . S
C536 C537 1.327 . S
C537 H531 0.950 . S
C537 C536 1.327 . S
C537 C541 1.429 . S
C538 C521 1.574 . S
C538 H532 0.949 . S
C538 C542 1.368 . S
C539 C520 1.429 . S
C539 C533 1.429 . S
C539 C540 1.523 . S
C540 C521 1.368 . S
C540 C534 1.368 . S
C540 C539 1.523 . S
C541 C525 1.429 . S
C541 C537 1.429 . S
C541 C542 1.523 . S
C542 C526 1.368 . S
C542 C538 1.368 . S
C542 C541 1.523 . S
H543 C518 0.950 . S
H544 C520 0.950 . S
H545 C521 0.949 . S
H546 C523 0.950 . S
H547 C525 0.950 . S
C548 C549 1.331 1_455 S
C548 C550 1.327 . S
C548 H573 0.950 . S
C549 C548 1.331 1_655 S
C549 C565 1.364 . S
C550 C548 1.327 . S
C550 C569 1.429 . S
C550 H574 0.950 . S
C551 C568 1.579 . S
C551 C570 1.368 1_655 S
C551 H575 0.949 . S
H552 C556 0.949 . S
C553 C554 1.349 . S
C553 C555 1.327 . S
C553 H576 0.950 . S
C554 C553 1.349 . S
C554 C566 1.349 . S
C555 C553 1.327 . S
C555 C571 1.429 . S
C555 H577 0.950 1_455 S
C556 H552 0.949 . S
C556 C564 1.574 . S
C556 C572 1.368 . S
H557 C565 0.950 . S
H558 C563 0.950 . S
H559 C564 0.949 . S
H560 C566 0.950 . S
H561 C567 0.950 . S
H562 C568 0.971 . S
C563 H558 0.950 . S
C563 C565 1.327 . S
C563 C569 1.429 1_655 S
C564 C556 1.574 . S
C564 H559 0.949 . S
C564 C570 1.368 . S
C565 C549 1.364 . S
C565 H557 0.950 . S
C565 C563 1.327 . S
C566 C554 1.349 . S
C566 H560 0.950 . S
C566 C567 1.327 . S
C567 H561 0.950 . S
C567 C566 1.327 . S
C567 C571 1.429 . S
C568 C551 1.579 . S
C568 H562 0.971 . S
C568 C572 1.339 1_655 S
C569 C550 1.429 . S
C569 C563 1.429 1_455 S
C569 C570 1.523 1_554 S
C570 C551 1.368 1_455 S
C570 C564 1.368 . S
C570 C569 1.523 1_556 S
C571 C555 1.429 . S
C571 C567 1.429 . S
C571 C572 1.523 . S
C572 C556 1.368 . S
C572 C568 1.339 1_455 S
C572 C571 1.523 . S
H573 C548 0.950 . S
H574 C550 0.950 . S
H575 C551 0.949 . S
H576 C553 0.950 . S
H577 C555 0.950 1_655 S
C578 C579 1.384 . S
C578 C580 1.327 1_554 S
C578 H603 0.950 . S
C579 C578 1.384 . S
C579 C595 1.306 1_565 S
C580 C578 1.327 1_556 S
C580 C599 1.429 1_565 S
C580 H604 0.950 . S
C581 C598 1.574 . S
C581 C600 1.368 . S
C581 H605 0.949 . S
H582 C586 0.949 . S
C583 C584 1.349 . S
C583 C585 1.327 . S
C583 H606 0.950 . S
C584 C583 1.349 . S
C584 C596 1.349 . S
C585 C583 1.327 . S
C585 C601 1.429 . S
C585 H607 0.950 . S
C586 H582 0.949 . S
C586 C594 1.574 . S
C586 C602 1.368 1_565 S
H587 C595 0.950 . S
H588 C593 0.950 . S
H589 C594 0.949 . S
H590 C596 0.950 1_565 S
H591 C597 0.950 1_565 S
H592 C598 0.949 . S
C593 H588 0.950 . S
C593 C595 1.327 1_556 S
C593 C599 1.429 . S
C594 C586 1.574 . S
C594 H589 0.949 . S
C594 C600 1.368 1_565 S
C595 C579 1.306 1_545 S
C595 H587 0.950 . S
C595 C593 1.327 1_554 S
C596 C584 1.349 . S
C596 H590 0.950 1_545 S
C596 C597 1.327 . S
C597 H591 0.950 1_545 S
C597 C596 1.327 . S
C597 C601 1.429 . S
C598 C581 1.574 . S
C598 H592 0.949 . S
C598 C602 1.368 . S
C599 C580 1.429 1_545 S
C599 C593 1.429 . S
C599 C600 1.523 . S
C600 C581 1.368 . S
C600 C594 1.368 1_545 S
C600 C599 1.523 . S
C601 C585 1.429 . S
C601 C597 1.429 . S
C601 C602 1.523 . S
C602 C586 1.368 1_545 S
C602 C598 1.368 . S
C602 C601 1.523 . S
H603 C578 0.950 . S
H604 C580 0.950 . S
H605 C581 0.949 . S
H606 C583 0.950 . S
H607 C585 0.950 . S
C608 C609 1.349 1_556 S
C608 C610 1.327 . S
C608 H633 0.950 . S
C609 C608 1.349 1_554 S
C609 C625 1.349 . S
C610 C608 1.327 . S
C610 C629 1.429 . S
C610 H634 0.950 . S
C611 C628 1.574 . S
C611 C630 1.368 . S
C611 H635 0.949 . S
H612 C616 0.949 . S
C613 C614 1.349 . S
C613 C615 1.327 . S
C613 H636 0.950 . S
C614 C613 1.349 . S
C614 C626 1.349 . S
C615 C613 1.327 . S
C615 C631 1.429 . S
C615 H637 0.950 . S
C616 H612 0.949 . S
C616 C624 1.574 . S
C616 C632 1.368 . S
H617 C625 0.950 . S
H618 C623 0.950 . S
H619 C624 0.949 . S
H620 C626 0.950 . S
H621 C627 0.950 . S
H622 C628 0.949 . S
C623 H618 0.950 . S
C623 C625 1.327 . S
C623 C629 1.429 1_554 S
C624 C616 1.574 . S
C624 H619 0.949 . S
C624 C630 1.368 . S
C625 C609 1.349 . S
C625 H617 0.950 . S
C625 C623 1.327 . S
C626 C614 1.349 . S
C626 H620 0.950 . S
C626 C627 1.327 . S
C627 H621 0.950 . S
C627 C626 1.327 . S
C627 C631 1.429 . S
C628 C611 1.574 . S
C628 H622 0.949 . S
C628 C632 1.368 . S
C629 C610 1.429 . S
C629 C623 1.429 1_556 S
C629 C630 1.523 . S
C630 C611 1.368 . S
C630 C624 1.368 . S
C630 C629 1.523 . S
C631 C615 1.429 . S
C631 C627 1.429 . S
C631 C632 1.523 . S
C632 C616 1.368 . S
C632 C628 1.368 . S
C632 C631 1.523 . S
H633 C608 0.950 . S
H634 C610 0.950 . S
H635 C611 0.949 . S
H636 C613 0.950 . S
H637 C615 0.950 . S
C638 C639 1.349 . S
C638 C640 1.327 . S
C638 H663 0.950 . S
C639 C638 1.349 . S
C639 C655 1.349 . S
C640 C638 1.327 . S
C640 C659 1.429 . S
C640 H664 0.950 . S
C641 C658 1.574 . S
C641 C660 1.368 . S
C641 H665 0.949 . S
H642 C646 0.949 . S
C643 C644 1.349 . S
C643 C645 1.327 . S
C643 H666 0.950 . S
C644 C643 1.349 . S
C644 C656 1.349 . S
C645 C643 1.327 . S
C645 C661 1.429 . S
C645 H667 0.950 . S
C646 H642 0.949 . S
C646 C654 1.574 . S
C646 C662 1.368 . S
H647 C655 0.948 1_554 S
H648 C653 0.950 . S
H649 C654 0.949 . S
H650 C656 0.950 . S
H651 C657 0.950 . S
H652 C658 0.949 . S
C653 H648 0.950 . S
C653 C655 1.327 . S
C653 C659 1.429 . S
C654 C646 1.574 . S
C654 H649 0.949 . S
C654 C660 1.368 . S
C655 C639 1.349 . S
C655 H647 0.948 1_556 S
C655 C653 1.327 . S
C656 C644 1.349 . S
C656 H650 0.950 . S
C656 C657 1.327 . S
C657 H651 0.950 . S
C657 C656 1.327 . S
C657 C661 1.429 . S
C658 C641 1.574 . S
C658 H652 0.949 . S
C658 C662 1.368 . S
C659 C640 1.429 . S
C659 C653 1.429 . S
C659 C660 1.523 . S
C660 C641 1.368 . S
C660 C654 1.368 . S
C660 C659 1.523 . S
C661 C645 1.429 . S
C661 C657 1.429 . S
C661 C662 1.523 . S
C662 C646 1.368 . S
C662 C658 1.368 . S
C662 C661 1.523 . S
H663 C638 0.950 . S
H664 C640 0.950 . S
H665 C641 0.949 . S
H666 C643 0.950 . S
H667 C645 0.950 . S
C668 C669 1.349 . S
C668 C670 1.327 . S
C668 H693 0.950 . S
C669 C668 1.349 . S
C669 C685 1.349 . S
C670 C668 1.327 . S
C670 C689 1.429 . S
C670 H694 0.950 . S
C671 C688 1.574 . S
C671 C690 1.368 . S
C671 H695 0.949 . S
H672 C676 0.949 . S
C673 C674 1.349 . S
C673 C675 1.327 . S
C673 H696 0.950 1_455 S
C674 C673 1.349 . S
C674 C686 1.349 . S
C675 C673 1.327 . S
C675 C691 1.429 . S
C675 H697 0.950 1_455 S
C676 H672 0.949 . S
C676 C684 1.574 . S
C676 C692 1.368 . S
H677 C685 0.950 . S
H678 C683 0.950 . S
H679 C684 0.949 . S
H680 C686 0.950 . S
H681 C687 0.950 . S
H682 C688 0.949 1_655 S
C683 H678 0.950 . S
C683 C685 1.327 . S
C683 C689 1.429 . S
C684 C676 1.574 . S
C684 H679 0.949 . S
C684 C690 1.368 . S
C685 C669 1.349 . S
C685 H677 0.950 . S
C685 C683 1.327 . S
C686 C674 1.349 . S
C686 H680 0.950 . S
C686 C687 1.327 . S
C687 H681 0.950 . S
C687 C686 1.327 . S
C687 C691 1.429 . S
C688 C671 1.574 . S
C688 H682 0.949 1_455 S
C688 C692 1.368 . S
C689 C670 1.429 . S
C689 C683 1.429 . S
C689 C690 1.523 . S
C690 C671 1.368 . S
C690 C684 1.368 . S
C690 C689 1.523 . S
C691 C675 1.429 . S
C691 C687 1.429 . S
C691 C692 1.523 1_556 S
C692 C676 1.368 . S
C692 C688 1.368 . S
C692 C691 1.523 1_554 S
H693 C668 0.950 . S
H694 C670 0.950 . S
H695 C671 0.949 . S
H696 C673 0.950 1_655 S
H697 C675 0.950 1_655 S
C698 C699 1.349 . S
C698 C700 1.327 . S
C698 H723 0.950 . S
C699 C698 1.349 . S
C699 C715 1.349 1_545 S
C700 C698 1.327 . S
C700 C719 1.429 . S
C700 H724 0.950 . S
C701 C718 1.574 1_554 S
C701 C720 1.368 1_565 S
C701 H725 0.949 . S
H702 C706 0.949 . S
C703 C704 1.349 1_565 S
C703 C705 1.327 . S
C703 H726 0.950 . S
C704 C703 1.349 1_545 S
C704 C716 1.349 . S
C705 C703 1.327 . S
C705 C721 1.429 1_565 S
C705 H727 0.950 . S
C706 H702 0.949 . S
C706 C714 1.574 . S
C706 C722 1.368 1_554 S
H707 C715 0.950 . S
H708 C713 0.950 . S
H709 C714 0.949 . S
H710 C716 0.950 . S
H711 C717 0.950 . S
H712 C718 0.949 . S
C713 H708 0.950 . S
C713 C715 1.327 . S
C713 C719 1.429 1_565 S
C714 C706 1.574 . S
C714 H709 0.949 . S
C714 C720 1.368 . S
C715 C699 1.349 1_565 S
C715 H707 0.950 . S
C715 C713 1.327 . S
C716 C704 1.349 . S
C716 H710 0.950 . S
C716 C717 1.327 . S
C717 H711 0.950 . S
C717 C716 1.327 . S
C717 C721 1.429 . S
C718 C701 1.574 1_556 S
C718 H712 0.949 . S
C718 C722 1.368 1_565 S
C719 C700 1.429 . S
C719 C713 1.429 1_545 S
C719 C720 1.523 . S
C720 C701 1.368 1_545 S
C720 C714 1.368 . S
C720 C719 1.523 . S
C721 C705 1.429 1_545 S
C721 C717 1.429 . S
C721 C722 1.523 . S
C722 C706 1.368 1_556 S
C722 C718 1.368 1_545 S
C722 C721 1.523 . S
H723 C698 0.950 . S
H724 C700 0.950 . S
H725 C701 0.949 . S
H726 C703 0.950 . S
H727 C705 0.950 . S
C728 C729 1.349 . S
C728 C730 1.327 . S
C728 H753 0.950 . S
C729 C728 1.349 . S
C729 C745 1.349 . S
C730 C728 1.327 . S
C730 C749 1.429 . S
C730 H754 0.950 . S
C731 C748 1.574 . S
C731 C750 1.368 1_556 S
C731 H755 0.949 . S
H732 C736 0.949 . S
C733 C734 1.349 . S
C733 C735 1.327 . S
C733 H756 0.950 . S
C734 C733 1.349 . S
C734 C746 1.349 . S
C735 C733 1.327 . S
C735 C751 1.429 . S
C735 H757 0.950 . S
C736 H732 0.949 . S
C736 C744 1.574 . S
C736 C752 1.368 1_554 S
H737 C745 0.950 . S
H738 C743 0.950 . S
H739 C744 0.949 . S
H740 C746 0.950 . S
H741 C747 0.950 . S
H742 C748 0.949 . S
C743 H738 0.950 . S
C743 C745 1.327 . S
C743 C749 1.429 . S
C744 C736 1.574 . S
C744 H739 0.949 . S
C744 C750 1.368 . S
C745 C729 1.349 . S
C745 H737 0.950 . S
C745 C743 1.327 . S
C746 C734 1.349 . S
C746 H740 0.950 . S
C746 C747 1.327 . S
C747 H741 0.950 . S
C747 C746 1.327 . S
C747 C751 1.429 . S
C748 C731 1.574 . S
C748 H742 0.949 . S
C748 C752 1.368 . S
C749 C730 1.429 . S
C749 C743 1.429 . S
C749 C750 1.523 . S
C750 C731 1.368 1_554 S
C750 C744 1.368 . S
C750 C749 1.523 . S
C751 C735 1.429 . S
C751 C747 1.429 . S
C751 C752 1.523 . S
C752 C736 1.368 1_556 S
C752 C748 1.368 . S
C752 C751 1.523 . S
H753 C728 0.950 . S
H754 C730 0.950 . S
H755 C731 0.949 . S
H756 C733 0.950 . S
H757 C735 0.950 . S
C758 C759 1.349 . S
C758 C760 1.327 . S
C758 H783 0.950 . S
C759 C758 1.349 . S
C759 C775 1.349 . S
C760 C758 1.327 . S
C760 C779 1.429 . S
C760 H784 0.950 . S
C761 C778 1.574 . S
C761 C780 1.368 . S
C761 H785 0.949 . S
H762 C766 0.949 . S
C763 C764 1.349 . S
C763 C765 1.327 . S
C763 H786 0.950 . S
C764 C763 1.349 . S
C764 C776 1.349 . S
C765 C763 1.327 . S
C765 C781 1.429 . S
C765 H787 0.950 . S
C766 H762 0.949 . S
C766 C774 1.574 . S
C766 C782 1.368 . S
H767 C775 0.950 . S
H768 C773 0.950 . S
H769 C774 0.949 . S
H770 C776 0.950 . S
H771 C777 0.950 . S
H772 C778 0.949 . S
C773 H768 0.950 . S
C773 C775 1.327 . S
C773 C779 1.429 . S
C774 C766 1.574 . S
C774 H769 0.949 . S
C774 C780 1.368 1_556 S
C775 C759 1.349 . S
C775 H767 0.950 . S
C775 C773 1.327 . S
C776 C764 1.349 . S
C776 H770 0.950 . S
C776 C777 1.327 . S
C777 H771 0.950 . S
C777 C776 1.327 . S
C777 C781 1.429 . S
C778 C761 1.574 . S
C778 H772 0.949 . S
C778 C782 1.368 1_554 S
C779 C760 1.429 . S
C779 C773 1.429 . S
C779 C780 1.523 . S
C780 C761 1.368 . S
C780 C774 1.368 1_554 S
C780 C779 1.523 . S
C781 C765 1.429 . S
C781 C777 1.429 . S
C781 C782 1.523 . S
C782 C766 1.368 . S
C782 C778 1.368 1_556 S
C782 C781 1.523 . S
H783 C758 0.950 . S
H784 C760 0.950 . S
H785 C761 0.949 . S
H786 C763 0.950 . S
H787 C765 0.950 . S
C788 C789 1.353 . S
C788 C790 1.327 . S
C788 H813 0.950 . S
C789 C788 1.353 . S
C789 C805 1.345 1_655 S
C790 C788 1.327 . S
C790 C809 1.429 . S
C790 H814 0.950 . S
C791 C808 1.574 . S
C791 C810 1.368 1_455 S
C791 H815 0.949 . S
H792 C796 0.949 . S
C793 C794 1.349 1_455 S
C793 C795 1.327 . S
C793 H816 0.950 . S
C794 C793 1.349 1_655 S
C794 C806 1.349 . S
C795 C793 1.327 . S
C795 C811 1.429 1_455 S
C795 H817 0.950 . S
C796 H792 0.949 . S
C796 C804 1.574 . S
C796 C812 1.368 . S
H797 C805 0.950 . S
H798 C803 0.950 . S
H799 C804 0.949 . S
H800 C806 0.950 . S
H801 C807 0.950 . S
H802 C808 0.949 . S
C803 H798 0.950 . S
C803 C805 1.327 . S
C803 C809 1.429 1_455 S
C804 C796 1.574 . S
C804 H799 0.949 . S
C804 C810 1.368 . S
C805 C789 1.345 1_455 S
C805 H797 0.950 . S
C805 C803 1.327 . S
C806 C794 1.349 . S
C806 H800 0.950 . S
C806 C807 1.327 . S
C807 H801 0.950 . S
C807 C806 1.327 . S
C807 C811 1.429 . S
C808 C791 1.574 . S
C808 H802 0.949 . S
C808 C812 1.368 1_455 S
C809 C790 1.429 . S
C809 C803 1.429 1_655 S
C809 C810 1.523 . S
C810 C791 1.368 1_655 S
C810 C804 1.368 . S
C810 C809 1.523 . S
C811 C795 1.429 1_655 S
C811 C807 1.429 . S
C811 C812 1.523 . S
C812 C796 1.368 . S
C812 C808 1.368 1_655 S
C812 C811 1.523 . S
H813 C788 0.950 . S
H814 C790 0.950 . S
H815 C791 0.949 . S
H816 C793 0.950 . S
H817 C795 0.950 . S
C818 C819 1.317 1_545 S
C818 C820 1.327 . S
C818 H843 0.950 . S
C819 C818 1.317 1_565 S
C819 C835 1.384 . S
C820 C818 1.327 . S
C820 C839 1.429 1_545 S
C820 H844 0.950 . S
C821 C838 1.574 . S
C821 C840 1.368 . S
C821 H845 0.949 . S
H822 C826 0.949 . S
C823 C824 1.349 . S
C823 C825 1.327 . S
C823 H846 0.950 . S
C824 C823 1.349 . S
C824 C836 1.349 1_565 S
C825 C823 1.327 . S
C825 C841 1.429 . S
C825 H847 0.950 . S
C826 H822 0.949 . S
C826 C834 1.574 . S
C826 C842 1.368 1_545 S
H827 C835 0.950 . S
H828 C833 0.950 . S
H829 C834 0.949 . S
H830 C836 0.950 . S
H831 C837 0.950 . S
H832 C838 0.949 . S
C833 H828 0.950 . S
C833 C835 1.327 . S
C833 C839 1.429 . S
C834 C826 1.574 . S
C834 H829 0.949 . S
C834 C840 1.368 1_545 S
C835 C819 1.384 . S
C835 H827 0.950 . S
C835 C833 1.327 . S
C836 C824 1.349 1_545 S
C836 H830 0.950 . S
C836 C837 1.327 . S
C837 H831 0.950 . S
C837 C836 1.327 . S
C837 C841 1.429 1_545 S
C838 C821 1.574 . S
C838 H832 0.949 . S
C838 C842 1.368 . S
C839 C820 1.429 1_565 S
C839 C833 1.429 . S
C839 C840 1.523 . S
C840 C821 1.368 . S
C840 C834 1.368 1_565 S
C840 C839 1.523 . S
C841 C825 1.429 . S
C841 C837 1.429 1_565 S
C841 C842 1.523 . S
C842 C826 1.368 1_565 S
C842 C838 1.368 . S
C842 C841 1.523 . S
H843 C818 0.950 . S
H844 C820 0.950 . S
H845 C821 0.949 . S
H846 C823 0.950 . S
H847 C825 0.950 . S
C848 C849 1.349 . S
C848 C850 1.327 . S
C848 H873 0.950 . S
C849 C848 1.349 . S
C849 C865 1.349 . S
C850 C848 1.327 . S
C850 C869 1.429 . S
C850 H874 0.950 . S
C851 C868 1.574 . S
C851 C870 1.368 . S
C851 H875 0.949 . S
H852 C856 0.949 . S
C853 C854 1.349 . S
C853 C855 1.327 . S
C853 H876 0.950 . S
C854 C853 1.349 . S
C854 C866 1.349 . S
C855 C853 1.327 . S
C855 C871 1.429 . S
C855 H877 0.950 . S
C856 H852 0.949 . S
C856 C864 1.574 . S
C856 C872 1.368 . S
H857 C865 0.950 . S
H858 C863 0.950 . S
H859 C864 0.949 . S
H860 C866 0.950 . S
H861 C867 0.950 . S
H862 C868 0.949 . S
C863 H858 0.950 . S
C863 C865 1.327 . S
C863 C869 1.429 . S
C864 C856 1.574 . S
C864 H859 0.949 . S
C864 C870 1.368 . S
C865 C849 1.349 . S
C865 H857 0.950 . S
C865 C863 1.327 . S
C866 C854 1.349 . S
C866 H860 0.950 . S
C866 C867 1.327 . S
C867 H861 0.950 . S
C867 C866 1.327 . S
C867 C871 1.429 . S
C868 C851 1.574 . S
C868 H862 0.949 . S
C868 C872 1.368 . S
C869 C850 1.429 . S
C869 C863 1.429 . S
C869 C870 1.523 . S
C870 C851 1.368 . S
C870 C864 1.368 . S
C870 C869 1.523 . S
C871 C855 1.429 . S
C871 C867 1.429 . S
C871 C872 1.523 . S
C872 C856 1.368 . S
C872 C868 1.368 . S
C872 C871 1.523 . S
H873 C848 0.950 . S
H874 C850 0.950 . S
H875 C851 0.949 . S
H876 C853 0.950 . S
H877 C855 0.950 . S
C878 C879 1.349 . S
C878 C880 1.327 . S
C878 H903 0.950 . S
C879 C878 1.349 . S
C879 C895 1.349 . S
C880 C878 1.327 . S
C880 C899 1.429 . S
C880 H904 0.950 . S
C881 C898 1.574 . S
C881 C900 1.368 . S
C881 H905 0.949 . S
H882 C886 0.949 . S
C883 C884 1.349 . S
C883 C885 1.327 . S
C883 H906 0.950 . S
C884 C883 1.349 . S
C884 C896 1.349 . S
C885 C883 1.327 . S
C885 C901 1.429 . S
C885 H907 0.950 . S
C886 H882 0.949 . S
C886 C894 1.574 . S
C886 C902 1.368 . S
H887 C895 0.950 . S
H888 C893 0.950 . S
H889 C894 0.949 . S
H890 C896 0.950 . S
H891 C897 0.950 . S
H892 C898 0.949 . S
C893 H888 0.950 . S
C893 C895 1.327 . S
C893 C899 1.429 . S
C894 C886 1.574 . S
C894 H889 0.949 . S
C894 C900 1.368 . S
C895 C879 1.349 . S
C895 H887 0.950 . S
C895 C893 1.327 . S
C896 C884 1.349 . S
C896 H890 0.950 . S
C896 C897 1.327 . S
C897 H891 0.950 . S
C897 C896 1.327 . S
C897 C901 1.429 . S
C898 C881 1.574 . S
C898 H892 0.949 . S
C898 C902 1.368 . S
C899 C880 1.429 . S
C899 C893 1.429 . S
C899 C900 1.523 . S
C900 C881 1.368 . S
C900 C894 1.368 . S
C900 C899 1.523 . S
C901 C885 1.429 . S
C901 C897 1.429 . S
C901 C902 1.523 . S
C902 C886 1.368 . S
C902 C898 1.368 . S
C902 C901 1.523 . S
H903 C878 0.950 . S
H904 C880 0.950 . S
H905 C881 0.949 . S
H906 C883 0.950 . S
H907 C885 0.950 . S
C189 C76 1.538 . S
C194 C112 1.571 . S
C224 C135 1.618 . S
C219 C88 1.582 . S
C254 C158 1.646 . S
C249 C52 1.612 . S
C284 C185 1.501 . S
C279 C64 1.535 . S
C314 C113 1.569 . S
C309 C28 1.539 . S
C339 C40 1.458 1_556 S
C344 C136 1.489 . S
C369 C4 1.441 . S
C374 C159 1.469 . S
C399 C16 1.575 . S
C404 C184 1.593 . S
C434 C114 0.140 . S
C429 C69 0.370 . S
C464 C137 0.193 . S
C459 C81 0.311 . S
C494 C160 0.203 . S
C489 C93 0.313 . S
C519 C57 0.356 . S
C524 C186 0.471 . S
C549 C21 0.413 1_655 S
C554 C117 0.505 . S
C584 C140 0.512 . S
C579 C33 0.397 1_565 S
C614 C163 0.506 . S
C609 C45 0.383 . S
C639 C9 0.318 . S
C644 C183 0.158 . S
C669 C66 1.586 . S
C674 C115 1.566 . S
C699 C78 1.529 . S
C704 C138 1.530 . S
C734 C161 1.545 . S
C729 C90 1.546 . S
C764 C182 1.327 . S
C759 C54 1.289 . S
C789 C18 1.573 1_655 S
C794 C116 1.525 . S
C824 C139 1.473 . S
C819 C30 1.526 1_565 S
C854 C162 1.457 . S
C849 C42 1.507 . S
C879 C6 1.727 . S
C884 C181 1.771 . S
