# Generated by pormake.
# Topology ctn, (3,4)-cn, num edge types: 1
# Building blocks:
#     Node 0, Type 0, BuildingBlock: BELTOD_clean_linker_0, # of connection points: 3
#     Node 1, Type 0, BuildingBlock: BELTOD_clean_linker_0, # of connection points: 3
#     Node 2, Type 0, BuildingBlock: BELTOD_clean_linker_0, # of connection points: 3
#     Node 3, Type 0, BuildingBlock: BELTOD_clean_linker_0, # of connection points: 3
#     Node 4, Type 0, BuildingBlock: BELTOD_clean_linker_0, # of connection points: 3
#     Node 5, Type 0, BuildingBlock: BELTOD_clean_linker_0, # of connection points: 3
#     Node 6, Type 0, BuildingBlock: BELTOD_clean_linker_0, # of connection points: 3
#     Node 7, Type 0, BuildingBlock: BELTOD_clean_linker_0, # of connection points: 3
#     Node 8, Type 0, BuildingBlock: BELTOD_clean_linker_0, # of connection points: 3
#     Node 9, Type 0, BuildingBlock: BELTOD_clean_linker_0, # of connection points: 3
#     Node 10, Type 0, BuildingBlock: BELTOD_clean_linker_0, # of connection points: 3
#     Node 11, Type 0, BuildingBlock: BELTOD_clean_linker_0, # of connection points: 3
#     Node 12, Type 0, BuildingBlock: BELTOD_clean_linker_0, # of connection points: 3
#     Node 13, Type 0, BuildingBlock: BELTOD_clean_linker_0, # of connection points: 3
#     Node 14, Type 0, BuildingBlock: BELTOD_clean_linker_0, # of connection points: 3
#     Node 15, Type 0, BuildingBlock: BELTOD_clean_linker_0, # of connection points: 3
#     Node 16, Type 1, BuildingBlock: AZAVOO_clean_sbu_0, # of connection points: 4
#     Node 17, Type 1, BuildingBlock: AZAVOO_clean_sbu_0, # of connection points: 4
#     Node 18, Type 1, BuildingBlock: AZAVOO_clean_sbu_0, # of connection points: 4
#     Node 19, Type 1, BuildingBlock: AZAVOO_clean_sbu_0, # of connection points: 4
#     Node 20, Type 1, BuildingBlock: AZAVOO_clean_sbu_0, # of connection points: 4
#     Node 21, Type 1, BuildingBlock: AZAVOO_clean_sbu_0, # of connection points: 4
#     Node 22, Type 1, BuildingBlock: AZAVOO_clean_sbu_0, # of connection points: 4
#     Node 23, Type 1, BuildingBlock: AZAVOO_clean_sbu_0, # of connection points: 4
#     Node 24, Type 1, BuildingBlock: AZAVOO_clean_sbu_0, # of connection points: 4
#     Node 25, Type 1, BuildingBlock: AZAVOO_clean_sbu_0, # of connection points: 4
#     Node 26, Type 1, BuildingBlock: AZAVOO_clean_sbu_0, # of connection points: 4
#     Node 27, Type 1, BuildingBlock: AZAVOO_clean_sbu_0, # of connection points: 4
#     Edge 28, Type (0, 1), BuildingBlock: XUDNAN_clean_linker_2, # of connection points: 2
#     Edge 29, Type (0, 1), BuildingBlock: XUDNAN_clean_linker_2, # of connection points: 2
#     Edge 30, Type (0, 1), BuildingBlock: XUDNAN_clean_linker_2, # of connection points: 2
#     Edge 31, Type (0, 1), BuildingBlock: XUDNAN_clean_linker_2, # of connection points: 2
#     Edge 32, Type (0, 1), BuildingBlock: XUDNAN_clean_linker_2, # of connection points: 2
#     Edge 33, Type (0, 1), BuildingBlock: XUDNAN_clean_linker_2, # of connection points: 2
#     Edge 34, Type (0, 1), BuildingBlock: XUDNAN_clean_linker_2, # of connection points: 2
#     Edge 35, Type (0, 1), BuildingBlock: XUDNAN_clean_linker_2, # of connection points: 2
#     Edge 36, Type (0, 1), BuildingBlock: XUDNAN_clean_linker_2, # of connection points: 2
#     Edge 37, Type (0, 1), BuildingBlock: XUDNAN_clean_linker_2, # of connection points: 2
#     Edge 38, Type (0, 1), BuildingBlock: XUDNAN_clean_linker_2, # of connection points: 2
#     Edge 39, Type (0, 1), BuildingBlock: XUDNAN_clean_linker_2, # of connection points: 2
#     Edge 40, Type (0, 1), BuildingBlock: XUDNAN_clean_linker_2, # of connection points: 2
#     Edge 41, Type (0, 1), BuildingBlock: XUDNAN_clean_linker_2, # of connection points: 2
#     Edge 42, Type (0, 1), BuildingBlock: XUDNAN_clean_linker_2, # of connection points: 2
#     Edge 43, Type (0, 1), BuildingBlock: XUDNAN_clean_linker_2, # of connection points: 2
#     Edge 44, Type (0, 1), BuildingBlock: XUDNAN_clean_linker_2, # of connection points: 2
#     Edge 45, Type (0, 1), BuildingBlock: XUDNAN_clean_linker_2, # of connection points: 2
#     Edge 46, Type (0, 1), BuildingBlock: XUDNAN_clean_linker_2, # of connection points: 2
#     Edge 47, Type (0, 1), BuildingBlock: XUDNAN_clean_linker_2, # of connection points: 2
#     Edge 48, Type (0, 1), BuildingBlock: XUDNAN_clean_linker_2, # of connection points: 2
#     Edge 49, Type (0, 1), BuildingBlock: XUDNAN_clean_linker_2, # of connection points: 2
#     Edge 50, Type (0, 1), BuildingBlock: XUDNAN_clean_linker_2, # of connection points: 2
#     Edge 51, Type (0, 1), BuildingBlock: XUDNAN_clean_linker_2, # of connection points: 2
#     Edge 52, Type (0, 1), BuildingBlock: XUDNAN_clean_linker_2, # of connection points: 2
#     Edge 53, Type (0, 1), BuildingBlock: XUDNAN_clean_linker_2, # of connection points: 2
#     Edge 54, Type (0, 1), BuildingBlock: XUDNAN_clean_linker_2, # of connection points: 2
#     Edge 55, Type (0, 1), BuildingBlock: XUDNAN_clean_linker_2, # of connection points: 2
#     Edge 56, Type (0, 1), BuildingBlock: XUDNAN_clean_linker_2, # of connection points: 2
#     Edge 57, Type (0, 1), BuildingBlock: XUDNAN_clean_linker_2, # of connection points: 2
#     Edge 58, Type (0, 1), BuildingBlock: XUDNAN_clean_linker_2, # of connection points: 2
#     Edge 59, Type (0, 1), BuildingBlock: XUDNAN_clean_linker_2, # of connection points: 2
#     Edge 60, Type (0, 1), BuildingBlock: XUDNAN_clean_linker_2, # of connection points: 2
#     Edge 61, Type (0, 1), BuildingBlock: XUDNAN_clean_linker_2, # of connection points: 2
#     Edge 62, Type (0, 1), BuildingBlock: XUDNAN_clean_linker_2, # of connection points: 2
#     Edge 63, Type (0, 1), BuildingBlock: XUDNAN_clean_linker_2, # of connection points: 2
#     Edge 64, Type (0, 1), BuildingBlock: XUDNAN_clean_linker_2, # of connection points: 2
#     Edge 65, Type (0, 1), BuildingBlock: XUDNAN_clean_linker_2, # of connection points: 2
#     Edge 66, Type (0, 1), BuildingBlock: XUDNAN_clean_linker_2, # of connection points: 2
#     Edge 67, Type (0, 1), BuildingBlock: XUDNAN_clean_linker_2, # of connection points: 2
#     Edge 68, Type (0, 1), BuildingBlock: XUDNAN_clean_linker_2, # of connection points: 2
#     Edge 69, Type (0, 1), BuildingBlock: XUDNAN_clean_linker_2, # of connection points: 2
#     Edge 70, Type (0, 1), BuildingBlock: XUDNAN_clean_linker_2, # of connection points: 2
#     Edge 71, Type (0, 1), BuildingBlock: XUDNAN_clean_linker_2, # of connection points: 2
#     Edge 72, Type (0, 1), BuildingBlock: XUDNAN_clean_linker_2, # of connection points: 2
#     Edge 73, Type (0, 1), BuildingBlock: XUDNAN_clean_linker_2, # of connection points: 2
#     Edge 74, Type (0, 1), BuildingBlock: XUDNAN_clean_linker_2, # of connection points: 2
#     Edge 75, Type (0, 1), BuildingBlock: XUDNAN_clean_linker_2, # of connection points: 2
# Relax obj value: 0.002
# Max RMSD: 0.043
# Mean RMSD: 0.025
data_MOF--net-ctn--node1-AZAVOO_clean_sbu_0--node2-BELTOD_clean_linker_0--edge1-XUDNAN_clean_linker_2
_symmetry_space_group_name_H-M    P1
_symmetry_Int_Tables_number       1
_symmetry_cell_setting            triclinic
loop_
_symmetry_equiv_pos_as_xyz
'x, y, z'
_cell_length_a     61.407137
_cell_length_b     62.740304
_cell_length_c     62.200308
_cell_angle_alpha  89.408401
_cell_angle_beta   92.90722
_cell_angle_gamma 93.822437
loop_
_atom_site_label
_atom_site_type_symbol
_atom_site_fract_x
_atom_site_fract_y
_atom_site_fract_z
_atom_type_partial_charge
P0 P 0.072 0.04492 0.04159 0.0
H1 H 0.06756 0.0467 0.08805 0.0
H2 H 0.03653 0.04043 0.11055 0.0
H3 H 0.9957 0.02099 0.05453 0.0
H4 H 0.02695 0.02811 0.0319 0.0
H5 H 0.10733 0.04186 0.013 0.0
H6 H 0.12493 0.01173 0.99862 0.0
H7 H 0.07737 0.96814 0.02793 0.0
H8 H 0.0604 0.99841 0.04291 0.0
H9 H 0.06919 0.09082 0.04344 0.0
H10 H 0.05499 0.04097 0.99662 0.0
O11 O 0.09253 0.05659 0.05676 0.0
H12 H 0.05867 0.11748 0.01676 0.0
H13 H 0.04407 0.0676 0.96976 0.0
C14 C 0.04951 0.03794 0.05831 0.0
C15 C 0.052 0.04094 0.08059 0.0
C16 C 0.0342 0.03716 0.0935 0.0
C17 C 0.01354 0.03014 0.0844 0.0
C18 C 0.01128 0.02664 0.06205 0.0
C19 C 0.02913 0.03056 0.04911 0.0
C20 C 0.0826 0.02238 0.02899 0.0
C21 C 0.10057 0.0258 0.01611 0.0
C22 C 0.11051 0.00853 0.00776 0.0
C23 C 0.10261 0.98745 0.01212 0.0
C24 C 0.08407 0.98414 0.02449 0.0
C25 C 0.07422 0.00147 0.03295 0.0
C26 C 0.06339 0.06406 0.02181 0.0
C27 C 0.06375 0.08563 0.02739 0.0
C28 C 0.0575 0.10082 0.01216 0.0
C29 C 0.05056 0.09466 0.9911 0.0
C30 C 0.04962 0.07287 0.98576 0.0
C31 C 0.05585 0.05765 0.00107 0.0
P32 P 0.33738 0.69968 0.21255 0.0
H33 H 0.32435 0.70028 0.16712 0.0
H34 H 0.30849 0.72697 0.14359 0.0
H35 H 0.31066 0.7709 0.19697 0.0
H36 H 0.32525 0.7434 0.22069 0.0
H37 H 0.34679 0.68474 0.25679 0.0
H38 H 0.37429 0.69689 0.28463 0.0
H39 H 0.3948 0.74982 0.24372 0.0
H40 H 0.36791 0.73719 0.21585 0.0
H41 H 0.31583 0.66066 0.19487 0.0
H42 H 0.30696 0.70338 0.24707 0.0
O43 O 0.35281 0.68498 0.19802 0.0
H44 H 0.28271 0.63954 0.20354 0.0
H45 H 0.27397 0.68182 0.25645 0.0
C46 C 0.32671 0.72016 0.19542 0.0
C47 C 0.32159 0.71574 0.17369 0.0
C48 C 0.31262 0.73112 0.16022 0.0
C49 C 0.30869 0.75137 0.1682 0.0
C50 C 0.31342 0.75554 0.19021 0.0
C51 C 0.32206 0.73993 0.20376 0.0
C52 C 0.35479 0.71046 0.23451 0.0
C53 C 0.35685 0.69925 0.25405 0.0
C54 C 0.3726 0.70621 0.26996 0.0
C55 C 0.38677 0.72433 0.26642 0.0
C56 C 0.38433 0.73569 0.24692 0.0
C57 C 0.36871 0.72865 0.23105 0.0
C58 C 0.3142 0.68316 0.22077 0.0
C59 C 0.30699 0.66521 0.20855 0.0
C60 C 0.28801 0.65312 0.21355 0.0
C61 C 0.27575 0.65881 0.23086 0.0
C62 C 0.28294 0.67703 0.24295 0.0
C63 C 0.30193 0.68921 0.23781 0.0
P64 P 0.98678 0.5056 0.02984 0.0
H65 H 0.01761 0.48261 0.0061 0.0
H66 H 0.01808 0.44545 0.99496 0.0
H67 H 0.95571 0.43151 0.02324 0.0
H68 H 0.95625 0.46824 0.03551 0.0
H69 H 0.96687 0.53684 0.05619 0.0
H70 H 0.93001 0.54974 0.05574 0.0
H71 H 0.91017 0.50795 0.0026 0.0
H72 H 0.94711 0.49559 0.00266 0.0
H73 H 0.02802 0.52713 0.04633 0.0
H74 H 0.97537 0.48689 0.0713 0.0
O75 O 0.00076 0.52123 0.01278 0.0
H76 H 0.04687 0.52807 0.08183 0.0
H77 H 0.99441 0.48722 0.10685 0.0
C78 C 0.98659 0.47832 0.02106 0.0
C79 C 0.00403 0.47152 0.00981 0.0
C80 C 0.00418 0.45024 0.00332 0.0
C81 C 0.98682 0.43535 0.00795 0.0
C82 C 0.96951 0.44232 0.01954 0.0
C83 C 0.96961 0.46347 0.02633 0.0
C84 C 0.95952 0.51464 0.03 0.0
C85 C 0.95455 0.53033 0.04455 0.0
C86 C 0.93356 0.5378 0.0442 0.0
C87 C 0.91721 0.52961 0.02932 0.0
C88 C 0.92237 0.51422 0.01449 0.0
C89 C 0.94345 0.50708 0.0146 0.0
C90 C 1.00024 0.50704 0.05624 0.0
C91 C 0.02049 0.5185 0.05948 0.0
C92 C 0.03136 0.51887 0.07979 0.0
C93 C 0.02222 0.50765 0.09724 0.0
C94 C 0.00181 0.49626 0.09388 0.0
C95 C 0.99094 0.49595 0.07355 0.0
P96 P 0.69622 0.83996 0.19207 0.0
H97 H 0.71591 0.88107 0.17766 0.0
H98 H 0.751 0.90036 0.18639 0.0
H99 H 0.76839 0.84962 0.23021 0.0
H100 H 0.7332 0.83021 0.2211 0.0
H101 H 0.66609 0.80292 0.18341 0.0
H102 H 0.66887 0.77014 0.16322 0.0
H103 H 0.73561 0.79013 0.14996 0.0
H104 H 0.73287 0.82257 0.17071 0.0
H105 H 0.66914 0.86753 0.21488 0.0
H106 H 0.69193 0.8043 0.22304 0.0
O107 O 0.68154 0.85465 0.17499 0.0
H108 H 0.64759 0.8622 0.24662 0.0
H109 H 0.66957 0.79834 0.25419 0.0
C110 C 0.72201 0.85421 0.19874 0.0
C111 C 0.72723 0.87409 0.18918 0.0
C112 C 0.74726 0.88519 0.19429 0.0
C113 C 0.76247 0.87657 0.20904 0.0
C114 C 0.75711 0.85661 0.21864 0.0
C115 C 0.73701 0.84555 0.21354 0.0
C116 C 0.6994 0.81496 0.17899 0.0
C117 C 0.68146 0.80003 0.17653 0.0
C118 C 0.68302 0.78137 0.1648 0.0
C119 C 0.70248 0.77747 0.15496 0.0
C120 C 0.72052 0.79242 0.15765 0.0
C121 C 0.71895 0.81105 0.16948 0.0
C122 C 0.68152 0.83606 0.21623 0.0
C123 C 0.66935 0.85241 0.22344 0.0
C124 C 0.65694 0.84928 0.24154 0.0
C125 C 0.65645 0.82967 0.25276 0.0
C126 C 0.66955 0.81366 0.24601 0.0
C127 C 0.68215 0.81693 0.22802 0.0
P128 P 0.07524 0.96286 0.45943 0.0
H129 H 0.11485 0.96917 0.487 0.0
H130 H 0.13413 0.00092 0.50317 0.0
H131 H 0.08371 0.03964 0.47617 0.0
H132 H 0.06426 0.00786 0.46086 0.0
H133 H 0.05402 0.92081 0.45227 0.0
H134 H 0.04059 0.89248 0.47634 0.0
H135 H 0.06063 0.93217 0.53119 0.0
H136 H 0.0733 0.96071 0.50692 0.0
H137 H 0.07489 0.97456 0.41398 0.0
H138 H 0.0284 0.96787 0.46367 0.0
O139 O 0.09424 0.95185 0.44573 0.0
H140 H 0.04594 0.9841 0.38802 0.0
H141 H 0.99912 0.97715 0.43761 0.0
C142 C 0.08817 0.98613 0.4727 0.0
C143 C 0.10788 0.9845 0.4848 0.0
C144 C 0.11896 0.0027 0.49388 0.0
C145 C 0.11057 0.02292 0.4909 0.0
C146 C 0.09054 0.02434 0.47908 0.0
C147 C 0.07942 0.00612 0.47014 0.0
C148 C 0.06475 0.94279 0.47778 0.0
C149 C 0.05542 0.92342 0.46949 0.0
C150 C 0.04792 0.90717 0.4833 0.0
C151 C 0.04972 0.90992 0.50575 0.0
C152 C 0.05883 0.92955 0.514 0.0
C153 C 0.06624 0.94586 0.50011 0.0
C154 C 0.05366 0.97 0.44057 0.0
C155 C 0.05838 0.97496 0.41925 0.0
C156 C 0.04179 0.98036 0.40441 0.0
C157 C 0.02015 0.98108 0.41068 0.0
C158 C 0.01561 0.97674 0.43229 0.0
C159 C 0.03227 0.97127 0.44714 0.0
P160 P 0.21782 0.73104 0.75315 0.0
H161 H 0.23348 0.77 0.77643 0.0
H162 H 0.23306 0.77963 0.81439 0.0
H163 H 0.19347 0.7217 0.82674 0.0
H164 H 0.19413 0.71208 0.78875 0.0
H165 H 0.22023 0.69426 0.72454 0.0
H166 H 0.24124 0.66242 0.72718 0.0
H167 H 0.27108 0.68462 0.78793 0.0
H168 H 0.24996 0.71624 0.78536 0.0
H169 H 0.19193 0.75864 0.72557 0.0
H170 H 0.18567 0.6941 0.75011 0.0
O171 O 0.23284 0.7495 0.73992 0.0
H172 H 0.15764 0.75233 0.70407 0.0
H173 H 0.15152 0.68758 0.72832 0.0
C174 C 0.21384 0.74031 0.77983 0.0
C175 C 0.2243 0.75961 0.78719 0.0
C176 C 0.22398 0.76515 0.80889 0.0
C177 C 0.21336 0.75135 0.82355 0.0
C178 C 0.20197 0.73254 0.81584 0.0
C179 C 0.20221 0.72709 0.79414 0.0
C180 C 0.23287 0.70727 0.75513 0.0
C181 C 0.23097 0.6921 0.73863 0.0
C182 C 0.24301 0.67392 0.74013 0.0
C183 C 0.25762 0.67092 0.75789 0.0
C184 C 0.25993 0.68647 0.77408 0.0
C185 C 0.24771 0.70449 0.77269 0.0
C186 C 0.19169 0.72661 0.73883 0.0
C187 C 0.18315 0.74311 0.72635 0.0
C188 C 0.16348 0.73955 0.71421 0.0
C189 C 0.15207 0.71939 0.71435 0.0
C190 C 0.16017 0.70317 0.72767 0.0
C191 C 0.17969 0.70686 0.74006 0.0
P192 P 0.98626 0.49766 0.49669 0.0
H193 H 0.02774 0.48338 0.48333 0.0
H194 H 0.04379 0.48154 0.44839 0.0
H195 H 0.98912 0.51237 0.41856 0.0
H196 H 0.97258 0.51361 0.45362 0.0
H197 H 0.984 0.50958 0.54117 0.0
H198 H 0.97823 0.54293 0.55894 0.0
H199 H 0.97579 0.57525 0.49725 0.0
H200 H 0.98238 0.54177 0.47956 0.0
H201 H 0.97028 0.4537 0.50518 0.0
H202 H 0.94356 0.51165 0.4811 0.0
O203 O 0.00141 0.48341 0.5138 0.0
H204 H 0.93408 0.43535 0.50246 0.0
H205 H 0.90726 0.49312 0.47733 0.0
C206 C 0.99897 0.49873 0.47117 0.0
C207 C 0.01916 0.48987 0.46938 0.0
C208 C 0.02832 0.48873 0.44939 0.0
C209 C 0.01761 0.49671 0.43084 0.0
C210 C 0.9977 0.50618 0.43268 0.0
C211 C 0.98831 0.50695 0.4527 0.0
C212 C 0.98391 0.52318 0.50907 0.0
C213 C 0.98256 0.52389 0.53145 0.0
C214 C 0.97901 0.54296 0.54159 0.0
C215 C 0.97632 0.56176 0.52951 0.0
C216 C 0.97797 0.56111 0.50704 0.0
C217 C 0.98166 0.54192 0.49688 0.0
C218 C 0.95956 0.4841 0.49361 0.0
C219 C 0.95661 0.46245 0.49915 0.0
C220 C 0.93587 0.4519 0.49736 0.0
C221 C 0.91765 0.46271 0.48964 0.0
C222 C 0.92081 0.48437 0.48365 0.0
C223 C 0.94159 0.49496 0.48565 0.0
P224 P 0.81761 0.808 0.81508 0.0
H225 H 0.83745 0.83605 0.78281 0.0
H226 H 0.86322 0.83003 0.7549 0.0
H227 H 0.85922 0.76268 0.77011 0.0
H228 H 0.83303 0.76851 0.79725 0.0
H229 H 0.79208 0.83348 0.84158 0.0
H230 H 0.76138 0.85564 0.83373 0.0
H231 H 0.76248 0.84023 0.76629 0.0
H232 H 0.79319 0.81784 0.77432 0.0
H233 H 0.84022 0.77562 0.83959 0.0
H234 H 0.77363 0.78705 0.81999 0.0
O235 O 0.83454 0.82156 0.83264 0.0
H236 H 0.82761 0.74367 0.85919 0.0
H237 H 0.76071 0.75629 0.84088 0.0
C238 C 0.83327 0.80278 0.79217 0.0
C239 C 0.84173 0.81992 0.77978 0.0
C240 C 0.85646 0.8165 0.76391 0.0
C241 C 0.8633 0.79593 0.76059 0.0
C242 C 0.85434 0.77872 0.77257 0.0
C243 C 0.83932 0.78209 0.78811 0.0
C244 C 0.79521 0.82443 0.80849 0.0
C245 C 0.78577 0.83493 0.82509 0.0
C246 C 0.76809 0.84742 0.82061 0.0
C247 C 0.75952 0.84968 0.79939 0.0
C248 C 0.76889 0.83894 0.78276 0.0
C249 C 0.78647 0.8262 0.78733 0.0
C250 C 0.80791 0.78381 0.82845 0.0
C251 C 0.82285 0.77127 0.8396 0.0
C252 C 0.81555 0.75307 0.85098 0.0
C253 C 0.79305 0.74732 0.85193 0.0
C254 C 0.77816 0.75983 0.84033 0.0
C255 C 0.78554 0.77773 0.82853 0.0
P256 P 0.31103 0.30966 0.31257 0.0
H257 H 0.34701 0.33349 0.29245 0.0
H258 H 0.36924 0.32581 0.26245 0.0
H259 H 0.33119 0.26596 0.25213 0.0
H260 H 0.30933 0.27361 0.28269 0.0
H261 H 0.27844 0.32816 0.3374 0.0
H262 H 0.24695 0.34867 0.32755 0.0
H263 H 0.25877 0.34109 0.26024 0.0
H264 H 0.29039 0.3207 0.27025 0.0
H265 H 0.33864 0.28242 0.33826 0.0
H266 H 0.27001 0.2839 0.32019 0.0
O267 O 0.32634 0.32627 0.32882 0.0
H268 H 0.33069 0.25223 0.36242 0.0
H269 H 0.26193 0.25373 0.34436 0.0
C270 C 0.32683 0.30393 0.29001 0.0
C271 C 0.34351 0.31867 0.2838 0.0
C272 C 0.3561 0.31433 0.26649 0.0
C273 C 0.35206 0.29522 0.25488 0.0
C274 C 0.33498 0.28065 0.26095 0.0
C275 C 0.32242 0.28502 0.27833 0.0
C276 C 0.28676 0.32296 0.3046 0.0
C277 C 0.27409 0.33073 0.32052 0.0
C278 C 0.25601 0.34233 0.31485 0.0
C279 C 0.25032 0.3465 0.29309 0.0
C280 C 0.26284 0.33829 0.27714 0.0
C281 C 0.28089 0.32657 0.28285 0.0
C282 C 0.30491 0.28566 0.32781 0.0
C283 C 0.32189 0.27606 0.33931 0.0
C284 C 0.31733 0.25872 0.353 0.0
C285 C 0.29565 0.25071 0.35542 0.0
C286 C 0.27875 0.25976 0.34305 0.0
C287 C 0.28337 0.27703 0.32924 0.0
P288 P 0.49413 0.00959 0.53483 0.0
H289 H 0.52816 0.99517 0.50857 0.0
H290 H 0.53071 0.96352 0.48663 0.0
H291 H 0.46612 0.94029 0.50424 0.0
H292 H 0.46403 0.9718 0.52673 0.0
H293 H 0.46883 0.0314 0.5018 0.0
H294 H 0.43161 0.04317 0.49966 0.0
H295 H 0.42075 0.01585 0.56255 0.0
H296 H 0.45797 0.00377 0.56443 0.0
H297 H 0.52286 0.97843 0.55479 0.0
H298 H 0.49089 0.03376 0.57428 0.0
O299 O 0.50951 0.02938 0.52393 0.0
H300 H 0.54072 0.97603 0.59067 0.0
H301 H 0.5085 0.03122 0.61031 0.0
C302 C 0.49574 0.98602 0.5189 0.0
C303 C 0.51452 0.9833 0.50763 0.0
C304 C 0.51589 0.96523 0.495 0.0
C305 C 0.49849 0.94947 0.4934 0.0
C306 C 0.47985 0.95205 0.50515 0.0
C307 C 0.47855 0.97014 0.51789 0.0
C308 C 0.46636 0.01733 0.53354 0.0
C309 C 0.45843 0.02792 0.51512 0.0
C310 C 0.43711 0.03448 0.51384 0.0
C311 C 0.42333 0.03055 0.53101 0.0
C312 C 0.43113 0.01935 0.54921 0.0
C313 C 0.45241 0.01253 0.55034 0.0
C314 C 0.50503 0.00594 0.56199 0.0
C315 C 0.51931 0.98982 0.56686 0.0
C316 C 0.52966 0.98854 0.58735 0.0
C317 C 0.52591 0.00336 0.60332 0.0
C318 C 0.51143 0.01936 0.59844 0.0
C319 C 0.50131 0.02079 0.57787 0.0
P320 P 0.19527 0.3456 0.69833 0.0
H321 H 0.21342 0.38817 0.68605 0.0
H322 H 0.24844 0.40767 0.69476 0.0
H323 H 0.2671 0.35597 0.73679 0.0
H324 H 0.23214 0.33635 0.72758 0.0
H325 H 0.17256 0.30266 0.69722 0.0
H326 H 0.18062 0.26935 0.67992 0.0
H327 H 0.23893 0.30084 0.65519 0.0
H328 H 0.23101 0.33391 0.67269 0.0
H329 H 0.1605 0.36986 0.71398 0.0
H330 H 0.19492 0.31483 0.73427 0.0
O331 O 0.18148 0.35888 0.67929 0.0
H332 H 0.13785 0.36553 0.74517 0.0
H333 H 0.17218 0.3103 0.76546 0.0
C334 C 0.22026 0.36079 0.70612 0.0
C335 C 0.22498 0.38108 0.69724 0.0
C336 C 0.24498 0.39229 0.70235 0.0
C337 C 0.26062 0.38336 0.71644 0.0
C338 C 0.25555 0.36318 0.72567 0.0
C339 C 0.23553 0.35201 0.72055 0.0
C340 C 0.20158 0.3206 0.68687 0.0
C341 C 0.18732 0.30228 0.68848 0.0
C342 C 0.19189 0.28327 0.67854 0.0
C343 C 0.21045 0.2825 0.66631 0.0
C344 C 0.22449 0.30098 0.66448 0.0
C345 C 0.22006 0.31985 0.67463 0.0
C346 C 0.17892 0.34228 0.72148 0.0
C347 C 0.16311 0.35677 0.72509 0.0
C348 C 0.15029 0.35439 0.743 0.0
C349 C 0.15312 0.33746 0.75763 0.0
C350 C 0.1694 0.32328 0.75425 0.0
C351 C 0.18238 0.32584 0.73645 0.0
P352 P 0.83897 0.20042 0.70932 0.0
H353 H 0.84281 0.1973 0.66295 0.0
H354 H 0.83473 0.22124 0.63294 0.0
H355 H 0.8126 0.26693 0.67709 0.0
H356 H 0.82071 0.24268 0.70726 0.0
H357 H 0.84793 0.18776 0.75408 0.0
H358 H 0.87341 0.2024 0.7822 0.0
H359 H 0.88885 0.25719 0.74162 0.0
H360 H 0.86457 0.24166 0.71311 0.0
H361 H 0.8313 0.15835 0.72871 0.0
H362 H 0.79251 0.21038 0.70817 0.0
O363 O 0.85539 0.18266 0.70041 0.0
H364 H 0.79832 0.1375 0.73851 0.0
H365 H 0.75938 0.1893 0.71695 0.0
C366 C 0.83275 0.21839 0.68737 0.0
C367 C 0.83638 0.21251 0.66626 0.0
C368 C 0.8318 0.22625 0.64909 0.0
C369 C 0.8233 0.24609 0.65269 0.0
C370 C 0.81915 0.25175 0.67384 0.0
C371 C 0.82387 0.23798 0.69106 0.0
C372 C 0.85383 0.21379 0.73159 0.0
C373 C 0.85643 0.20313 0.75138 0.0
C374 C 0.87104 0.21162 0.76755 0.0
C375 C 0.88336 0.23102 0.76427 0.0
C376 C 0.87999 0.24205 0.74468 0.0
C377 C 0.8657 0.23334 0.7284 0.0
C378 C 0.81442 0.18584 0.71747 0.0
C379 C 0.81567 0.16528 0.72623 0.0
C380 C 0.79674 0.15328 0.73164 0.0
C381 C 0.77608 0.16156 0.72824 0.0
C382 C 0.77497 0.18243 0.71993 0.0
C383 C 0.79399 0.1945 0.71473 0.0
P384 P 0.57752 0.54717 0.55032 0.0
H385 H 0.57138 0.54865 0.59656 0.0
H386 H 0.53946 0.54191 0.61778 0.0
H387 H 0.50145 0.52075 0.56059 0.0
H388 H 0.53362 0.52827 0.53924 0.0
H389 H 0.61052 0.54616 0.51855 0.0
H390 H 0.62945 0.51704 0.5037 0.0
H391 H 0.58718 0.47126 0.53692 0.0
H392 H 0.56876 0.50046 0.55211 0.0
H393 H 0.56578 0.58949 0.56017 0.0
H394 H 0.56767 0.55109 0.50326 0.0
O395 O 0.598 0.55753 0.56642 0.0
H396 H 0.55099 0.6183 0.53849 0.0
H397 H 0.55316 0.58022 0.48129 0.0
C398 C 0.55488 0.53882 0.56636 0.0
C399 C 0.55631 0.54225 0.5886 0.0
C400 C 0.53798 0.53826 0.60077 0.0
C401 C 0.51783 0.53071 0.59093 0.0
C402 C 0.51664 0.52675 0.56865 0.0
C403 C 0.53502 0.53085 0.55646 0.0
C404 C 0.58802 0.52551 0.53614 0.0
C405 C 0.60502 0.52982 0.52221 0.0
C406 C 0.6158 0.51313 0.51371 0.0
C407 C 0.60988 0.49178 0.51916 0.0
C408 C 0.59231 0.48752 0.53259 0.0
C409 C 0.58158 0.50424 0.54111 0.0
C410 C 0.56819 0.56836 0.53328 0.0
C411 C 0.56322 0.58737 0.54294 0.0
C412 C 0.55461 0.60374 0.53058 0.0
C413 C 0.55087 0.60143 0.50824 0.0
C414 C 0.55603 0.58241 0.49847 0.0
C415 C 0.56439 0.56583 0.51099 0.0
P416 P 0.56842 0.44877 0.95876 0.0
H417 H 0.61543 0.45385 0.96974 0.0
H418 H 0.63882 0.48253 0.9869 0.0
H419 H 0.58216 0.51873 0.99399 0.0
H420 H 0.55901 0.48988 0.97773 0.0
H421 H 0.52401 0.42826 0.96243 0.0
H422 H 0.50904 0.40117 0.98691 0.0
H423 H 0.57205 0.39934 0.02062 0.0
H424 H 0.58693 0.42734 0.99655 0.0
H425 H 0.56381 0.45104 0.91182 0.0
H426 H 0.52794 0.4703 0.96538 0.0
O427 O 0.58441 0.43461 0.94428 0.0
H428 H 0.53633 0.46464 0.88688 0.0
H429 H 0.50106 0.48554 0.94046 0.0
C430 C 0.58544 0.4698 0.972 0.0
C431 C 0.60804 0.46797 0.97502 0.0
C432 C 0.62144 0.48444 0.98476 0.0
C433 C 0.61245 0.50304 0.99178 0.0
C434 C 0.5897 0.50457 0.98907 0.0
C435 C 0.57636 0.48806 0.97947 0.0
C436 C 0.55647 0.43047 0.97808 0.0
C437 C 0.53453 0.4227 0.97547 0.0
C438 C 0.52597 0.40704 0.98938 0.0
C439 C 0.53938 0.39832 0.0057 0.0
C440 C 0.56139 0.4059 0.00819 0.0
C441 C 0.56983 0.42196 0.99455 0.0
C442 C 0.5481 0.45975 0.94053 0.0
C443 C 0.55017 0.45849 0.91827 0.0
C444 C 0.53446 0.46655 0.90395 0.0
C445 C 0.51645 0.4765 0.91154 0.0
C446 C 0.51453 0.47787 0.93394 0.0
C447 C 0.53013 0.46946 0.94826 0.0
P448 P 0.71623 0.22034 0.24519 0.0
H449 H 0.72024 0.26615 0.25337 0.0
H450 H 0.7227 0.28717 0.28642 0.0
H451 H 0.71993 0.22891 0.32408 0.0
H452 H 0.7175 0.20802 0.29107 0.0
H453 H 0.75858 0.20848 0.23175 0.0
H454 H 0.77809 0.1759 0.23595 0.0
H455 H 0.72454 0.14603 0.27008 0.0
H456 H 0.70465 0.17865 0.26524 0.0
H457 H 0.67667 0.24103 0.25589 0.0
H458 H 0.69341 0.18994 0.21521 0.0
O459 O 0.72771 0.23505 0.22577 0.0
H460 H 0.6394 0.23818 0.24053 0.0
H461 H 0.65579 0.1866 0.20005 0.0
C462 C 0.7192 0.23551 0.26973 0.0
C463 C 0.7204 0.2579 0.26875 0.0
C464 C 0.7216 0.2699 0.28762 0.0
C465 C 0.72162 0.25968 0.30783 0.0
C466 C 0.72029 0.23723 0.30874 0.0
C467 C 0.71891 0.22525 0.28984 0.0
C468 C 0.73008 0.19592 0.24802 0.0
C469 C 0.75087 0.19489 0.23993 0.0
C470 C 0.76202 0.17626 0.24233 0.0
C471 C 0.75277 0.15845 0.25327 0.0
C472 C 0.73204 0.15957 0.26163 0.0
C473 C 0.72068 0.17814 0.25884 0.0
C474 C 0.6878 0.21544 0.23697 0.0
C475 C 0.67223 0.22879 0.24406 0.0
C476 C 0.6508 0.2271 0.23526 0.0
C477 C 0.64455 0.21216 0.21903 0.0
C478 C 0.6601 0.19843 0.21237 0.0
C479 C 0.68156 0.20016 0.22118 0.0
P480 P 0.48223 0.98722 0.98716 0.0
H481 H 0.51818 0.01433 0.97104 0.0
H482 H 0.53325 0.01869 0.93541 0.0
H483 H 0.48212 0.97454 0.90899 0.0
H484 H 0.46739 0.9699 0.94462 0.0
H485 H 0.49465 0.9973 0.03191 0.0
H486 H 0.49287 0.02942 0.05335 0.0
H487 H 0.46669 0.06242 0.99746 0.0
H488 H 0.46902 0.03019 0.97595 0.0
H489 H 0.46418 0.94967 0.00996 0.0
H490 H 0.44057 0.99682 0.96525 0.0
O491 O 0.49986 0.97131 0.99932 0.0
H492 H 0.42761 0.93217 0.0106 0.0
H493 H 0.40386 0.97893 0.96516 0.0
C494 C 0.49132 0.99227 0.9604 0.0
C495 C 0.51002 0.00584 0.95751 0.0
C496 C 0.51871 0.00819 0.93721 0.0
C497 C 0.50878 0.99701 0.91945 0.0
C498 C 0.4899 0.98359 0.92234 0.0
C499 C 0.48141 0.98101 0.94272 0.0
C500 C 0.48229 0.0115 0.00229 0.0
C501 C 0.48881 0.01153 0.02419 0.0
C502 C 0.48761 0.02987 0.03647 0.0
C503 C 0.47959 0.0485 0.02714 0.0
C504 C 0.47322 0.04845 0.00508 0.0
C505 C 0.47446 0.03003 0.99278 0.0
C506 C 0.45516 0.97428 0.98721 0.0
C507 C 0.45115 0.95612 6e-05 0.0
C508 C 0.43019 0.94605 0.00031 0.0
C509 C 0.41277 0.95394 0.9877 0.0
C510 C 0.41682 0.97246 0.97515 0.0
C511 C 0.43782 0.98262 0.97505 0.0
Mg512 Mg 0.23151 0.83736 0.00789 0.0
O513 O 0.26307 0.85795 0.0018 0.0
O514 O 0.29058 0.83643 0.00596 0.0
Mg515 Mg 0.27724 0.80312 0.01616 0.0
C516 C 0.2834 0.85471 0.00164 0.0
C517 C 0.19425 0.8662 0.00511 0.0
O518 O 0.19111 0.85403 0.02214 0.0
O519 O 0.23296 0.82079 0.97532 0.0
O520 O 0.25882 0.79812 0.98345 0.0
O521 O 0.23466 0.84511 0.04304 0.0
O522 O 0.249 0.81762 0.02868 0.0
C523 C 0.24415 0.80521 0.97049 0.0
C524 C 0.24646 0.82885 0.04547 0.0
O525 O 0.21047 0.8632 0.99386 0.0
Mg526 Mg 0.14383 0.51221 0.27504 0.0
O527 O 0.12274 0.51081 0.24345 0.0
O528 O 0.14541 0.51189 0.21643 0.0
Mg529 Mg 0.18071 0.51549 0.23057 0.0
C530 C 0.12613 0.51068 0.22336 0.0
C531 C 0.10292 0.51423 0.30303 0.0
O532 O 0.107 0.53475 0.2995 0.0
O533 O 0.15301 0.47792 0.27066 0.0
O534 O 0.17756 0.48161 0.24532 0.0
O535 O 0.14489 0.54802 0.27485 0.0
O536 O 0.16908 0.52912 0.25999 0.0
C537 C 0.16705 0.47017 0.25898 0.0
C538 C 0.16229 0.54755 0.26398 0.0
O539 O 0.11456 0.50097 0.2944 0.0
Mg540 Mg 0.7625 0.65191 0.02566 0.0
O541 O 0.73202 0.62797 0.0227 0.0
O542 O 0.70276 0.64728 0.01741 0.0
Mg543 Mg 0.71403 0.68241 0.01427 0.0
C544 C 0.71138 0.62943 0.02015 0.0
C545 C 0.78234 0.60585 0.02886 0.0
O546 O 0.76284 0.59939 0.03502 0.0
O547 O 0.76153 0.65688 0.98927 0.0
O548 O 0.73196 0.67564 0.98367 0.0
O549 O 0.75812 0.65652 0.06095 0.0
O550 O 0.7427 0.67543 0.03492 0.0
C551 C 0.74827 0.66661 0.97679 0.0
C552 C 0.74499 0.67106 0.05511 0.0
O553 O 0.78637 0.62539 0.02394 0.0
Mg554 Mg 0.90164 0.03004 0.24148 0.0
O555 O 0.88449 0.99662 0.23559 0.0
O556 O 0.91046 0.97491 0.22797 0.0
Mg557 Mg 0.94352 0.99381 0.22811 0.0
C558 C 0.89053 0.97817 0.23093 0.0
C559 C 0.85573 0.04731 0.24172 0.0
O560 O 0.85769 0.0431 0.2213 0.0
O561 O 0.91538 0.01907 0.27458 0.0
O562 O 0.94156 0.99878 0.26438 0.0
O563 O 0.89828 0.03791 0.20623 0.0
O564 O 0.92659 0.02292 0.2215 0.0
C565 C 0.93132 0.00737 0.27906 0.0
C566 C 0.91672 0.02952 0.20423 0.0
O567 O 0.87083 0.04238 0.25529 0.0
Mg568 Mg 0.26863 0.1551 0.5363 0.0
O569 O 0.23428 0.13851 0.53028 0.0
O570 O 0.21075 0.16424 0.52744 0.0
Mg571 Mg 0.22971 0.19679 0.53039 0.0
C572 C 0.21484 0.14454 0.52762 0.0
C573 C 0.29967 0.11889 0.54371 0.0
O574 O 0.30369 0.13055 0.56107 0.0
O575 O 0.26944 0.16469 0.50084 0.0
O576 O 0.24648 0.19091 0.49886 0.0
O577 O 0.26385 0.15564 0.5719 0.0
O578 O 0.25549 0.18148 0.54927 0.0
C579 C 0.25987 0.17922 0.49022 0.0
C580 C 0.25566 0.17394 0.56856 0.0
O581 O 0.2849 0.12423 0.53001 0.0
Mg582 Mg 0.40125 0.53556 0.74349 0.0
O583 O 0.38439 0.50205 0.73869 0.0
O584 O 0.41045 0.4799 0.73276 0.0
Mg585 Mg 0.44347 0.49913 0.73218 0.0
C586 C 0.39045 0.48337 0.73512 0.0
C587 C 0.37074 0.56784 0.75986 0.0
O588 O 0.38953 0.57906 0.759 0.0
O589 O 0.41442 0.52577 0.77724 0.0
O590 O 0.44187 0.50645 0.76802 0.0
O591 O 0.39812 0.54207 0.70795 0.0
O592 O 0.42642 0.52788 0.72428 0.0
C593 C 0.43116 0.51528 0.78218 0.0
C594 C 0.41673 0.53376 0.70662 0.0
O595 O 0.37005 0.548 0.75568 0.0
Mg596 Mg 0.73925 0.34023 0.49929 0.0
O597 O 0.77013 0.36227 0.49449 0.0
O598 O 0.79768 0.34138 0.49007 0.0
Mg599 Mg 0.78499 0.3064 0.49306 0.0
C600 C 0.7902 0.35984 0.49119 0.0
C601 C 0.70477 0.37283 0.50746 0.0
O602 O 0.7043 0.36144 0.5253 0.0
O603 O 0.73724 0.33182 0.46351 0.0
O604 O 0.76408 0.30964 0.46174 0.0
O605 O 0.74669 0.33984 0.53503 0.0
O606 O 0.75888 0.31711 0.51232 0.0
C607 C 0.7481 0.31913 0.45298 0.0
C608 C 0.75895 0.32436 0.5316 0.0
O609 O 0.71767 0.36815 0.49313 0.0
Mg610 Mg 0.64915 0.01411 0.77948 0.0
O611 O 0.62804 0.01008 0.74802 0.0
O612 O 0.65029 0.01036 0.7207 0.0
Mg613 Mg 0.68554 0.01561 0.73457 0.0
C614 C 0.63114 0.00894 0.72792 0.0
C615 C 0.60134 0.01151 0.79541 0.0
O616 O 0.59853 0.0238 0.77841 0.0
O617 O 0.65927 0.97983 0.77735 0.0
O618 O 0.68322 0.98266 0.7514 0.0
O619 O 0.64883 0.04959 0.77706 0.0
O620 O 0.67375 0.03084 0.76313 0.0
C621 C 0.6733 0.97177 0.76588 0.0
C622 C 0.66612 0.04916 0.76602 0.0
O623 O 0.61998 0.00434 0.79966 0.0
Mg624 Mg 0.03593 0.27099 0.91271 0.0
O625 O 0.00685 0.26526 0.88865 0.0
O626 O 0.97948 0.24752 0.90485 0.0
Mg627 Mg 0.99162 0.24127 0.93976 0.0
C628 C 0.98747 0.25654 0.88824 0.0
C629 C 0.05684 0.28617 0.87119 0.0
O630 O 0.05088 0.266 0.86748 0.0
O631 O 0.01861 0.29714 0.92912 0.0
O632 O 0.99374 0.27729 0.94699 0.0
O633 O 0.04825 0.2396 0.90439 0.0
O634 O 0.02574 0.24385 0.93031 0.0
C635 C 0.0033 0.29537 0.94235 0.0
C636 C 0.0363 0.23118 0.91919 0.0
O637 O 0.05226 0.29426 0.88895 0.0
Mg638 Mg 0.53932 0.77106 0.41284 0.0
O639 O 0.51031 0.76269 0.3896 0.0
O640 O 0.48033 0.75463 0.40759 0.0
Mg641 Mg 0.49122 0.75692 0.44352 0.0
C642 C 0.48996 0.75721 0.38995 0.0
C643 C 0.57616 0.7824 0.3796 0.0
O644 O 0.58741 0.76913 0.39146 0.0
O645 O 0.52555 0.80273 0.42001 0.0
O646 O 0.49778 0.7936 0.44087 0.0
O647 O 0.54748 0.73697 0.41418 0.0
O648 O 0.52535 0.7512 0.43617 0.0
C649 C 0.51017 0.80772 0.43165 0.0
C650 C 0.53424 0.7345 0.42972 0.0
O651 O 0.55701 0.78616 0.38467 0.0
Mg652 Mg 0.97493 0.74133 0.60655 0.0
O653 O 0.00847 0.73153 0.62029 0.0
O654 O 0.02586 0.71903 0.59274 0.0
Mg655 Mg 0.00473 0.72254 0.56179 0.0
C656 C 0.02492 0.72328 0.6127 0.0
C657 C 0.95182 0.7681 0.63895 0.0
O658 O 0.93975 0.77098 0.62124 0.0
O659 O 0.99111 0.77163 0.59282 0.0
O660 O 0.00794 0.75948 0.56486 0.0
O661 O 0.96057 0.70852 0.61139 0.0
O662 O 0.97585 0.71935 0.58143 0.0
C663 C 0.00268 0.77486 0.57648 0.0
C664 C 0.96703 0.70393 0.59261 0.0
O665 O 0.96867 0.75749 0.63804 0.0
Mg666 Mg 0.4642 0.2274 0.10228 0.0
O667 O 0.49597 0.22384 0.12295 0.0
O668 O 0.52097 0.21349 0.10104 0.0
Mg669 Mg 0.50542 0.21048 0.06693 0.0
C670 C 0.51526 0.2185 0.1197 0.0
C671 C 0.4412 0.2373 0.14496 0.0
O672 O 0.44131 0.21647 0.14725 0.0
O673 O 0.47859 0.25809 0.08772 0.0
O674 O 0.50299 0.24727 0.06547 0.0
O675 O 0.45408 0.1935 0.10865 0.0
O676 O 0.47322 0.20441 0.08096 0.0
C677 C 0.49294 0.26209 0.07386 0.0
C678 C 0.46474 0.18878 0.09209 0.0
O679 O 0.44987 0.24623 0.12876 0.0
H680 H 0.21027 0.78921 0.84516 0.0
H681 H 0.22366 0.72262 0.85483 0.0
H682 H 0.23151 0.72921 0.89349 0.0
H683 H 0.25222 0.81093 0.8813 0.0
H684 H 0.23655 0.83156 0.8915 0.0
H685 H 0.23057 0.82158 0.86466 0.0
H686 H 0.19031 0.81231 0.8737 0.0
H687 H 0.19613 0.82238 0.90056 0.0
H688 H 0.18442 0.7955 0.89665 0.0
H689 H 0.24104 0.7432 0.92989 0.0
H690 H 0.24902 0.76334 0.96339 0.0
H691 H 0.22819 0.82096 0.93147 0.0
C692 C 0.21464 0.77601 0.8555 0.0
C693 C 0.21618 0.75534 0.84703 0.0
C694 C 0.22198 0.73846 0.86102 0.0
C695 C 0.22661 0.74208 0.88298 0.0
C696 C 0.22519 0.76262 0.89077 0.0
C697 C 0.2191 0.77929 0.8776 0.0
C698 C 0.21922 0.7999 0.89022 0.0
C699 C 0.23562 0.817 0.88139 0.0
C700 C 0.19615 0.808 0.89029 0.0
C701 C 0.22674 0.79223 0.91242 0.0
C702 C 0.23016 0.77067 0.91223 0.0
C703 C 0.23819 0.76002 0.93035 0.0
C704 C 0.24279 0.77165 0.94926 0.0
C705 C 0.23916 0.79369 0.95004 0.0
C706 C 0.23088 0.80408 0.93138 0.0
H707 H 0.02746 0.52843 0.40163 0.0
H708 H 0.02986 0.46032 0.41288 0.0
H709 H 0.04846 0.45683 0.37888 0.0
H710 H 0.02027 0.52648 0.342 0.0
H711 H 0.03787 0.55029 0.33853 0.0
H712 H 0.02218 0.54701 0.3622 0.0
H713 H 0.05767 0.55282 0.38638 0.0
H714 H 0.07343 0.5561 0.36283 0.0
H715 H 0.08 0.53615 0.38276 0.0
H716 H 0.06927 0.46111 0.34546 0.0
H717 H 0.09252 0.47306 0.31588 0.0
H718 H 0.07757 0.53866 0.32671 0.0
C719 C 0.03147 0.51275 0.3966 0.0
C720 C 0.02712 0.49459 0.40966 0.0
C721 C 0.03307 0.47437 0.40298 0.0
C722 C 0.04351 0.47224 0.38368 0.0
C723 C 0.04793 0.49049 0.37129 0.0
C724 C 0.04215 0.51038 0.37748 0.0
C725 C 0.0506 0.52769 0.36228 0.0
C726 C 0.03159 0.5385 0.35056 0.0
C727 C 0.06636 0.54415 0.37428 0.0
C728 C 0.06248 0.5145 0.34693 0.0
C729 C 0.06042 0.49305 0.35221 0.0
C730 C 0.07082 0.47785 0.34102 0.0
C731 C 0.08402 0.4848 0.32424 0.0
C732 C 0.08688 0.5068 0.31893 0.0
C733 C 0.0756 0.52173 0.33023 0.0
H734 H 0.81148 0.73389 0.89063 0.0
H735 H 0.75619 0.71988 0.84545 0.0
H736 H 0.74065 0.69359 0.87109 0.0
H737 H 0.81468 0.67741 0.91086 0.0
H738 H 0.82266 0.6865 0.93769 0.0
H739 H 0.83058 0.7024 0.91471 0.0
H740 H 0.8126 0.73477 0.93018 0.0
H741 H 0.80456 0.71902 0.95307 0.0
H742 H 0.78425 0.73196 0.93663 0.0
H743 H 0.7281 0.67397 0.90414 0.0
H744 H 0.72118 0.66057 0.94096 0.0
H745 H 0.78652 0.68372 0.9626 0.0
C746 C 0.79653 0.7248 0.88562 0.0
C747 C 0.78506 0.72926 0.86594 0.0
C748 C 0.76515 0.71725 0.86056 0.0
C749 C 0.75629 0.70203 0.87493 0.0
C750 C 0.76778 0.69851 0.89439 0.0
C751 C 0.78771 0.70924 0.89953 0.0
C752 C 0.79617 0.70353 0.922 0.0
C753 C 0.81727 0.69175 0.92126 0.0
C754 C 0.79957 0.72351 0.9363 0.0
C755 C 0.77738 0.68873 0.92912 0.0
C756 C 0.76116 0.68594 0.91294 0.0
C757 C 0.74098 0.67537 0.91669 0.0
C758 C 0.73716 0.66782 0.93758 0.0
C759 C 0.75359 0.67056 0.95426 0.0
C760 C 0.77409 0.68064 0.94982 0.0
H761 H 0.01402 0.96595 0.36967 0.0
H762 H 0.98652 0.00743 0.41505 0.0
H763 H 0.95847 0.01683 0.38713 0.0
H764 H 0.00873 0.99961 0.32457 0.0
H765 H 0.00212 0.97818 0.30579 0.0
H766 H 0.01853 0.97353 0.32994 0.0
H767 H 0.99112 0.94233 0.34034 0.0
H768 H 0.97458 0.94693 0.3162 0.0
H769 H 0.96264 0.94708 0.34207 0.0
H770 H 0.93497 0.02354 0.35277 0.0
H771 H 0.91871 0.02693 0.31568 0.0
H772 H 0.96234 0.98089 0.2938 0.0
C773 C 0.00208 0.97698 0.3738 0.0
C774 C 0.0025 0.98602 0.39451 0.0
C775 C 0.98638 1.00017 0.39932 0.0
C776 C 0.97043 0.00563 0.38355 0.0
C777 C 0.97073 0.99665 0.36315 0.0
C778 C 0.98612 0.98254 0.35835 0.0
C779 C 0.98367 0.97571 0.33509 0.0
C780 C 0.00449 0.98216 0.32315 0.0
C781 C 0.97764 0.95158 0.33333 0.0
C782 C 0.96482 0.98856 0.32733 0.0
C783 C 0.95737 0.00043 0.34369 0.0
C784 C 0.94057 0.01415 0.3399 0.0
C785 C 0.93141 0.01596 0.31879 0.0
C786 C 0.9392 0.0042 0.30176 0.0
C787 C 0.95589 0.99012 0.30635 0.0
H788 H 0.22088 0.27893 0.62444 0.0
H789 H 0.21015 0.2416 0.68245 0.0
H790 H 0.21925 0.209 0.66353 0.0
H791 H 0.19814 0.23853 0.58679 0.0
H792 H 0.21788 0.24557 0.567 0.0
H793 H 0.20987 0.26558 0.58504 0.0
H794 H 0.25044 0.27402 0.5975 0.0
H795 H 0.25857 0.25407 0.57949 0.0
H796 H 0.26643 0.25272 0.60777 0.0
H797 H 0.23204 0.1809 0.63847 0.0
H798 H 0.2455 0.15967 0.60908 0.0
H799 H 0.24636 0.21575 0.56766 0.0
C800 C 0.22043 0.26388 0.63316 0.0
C801 C 0.21494 0.26274 0.65492 0.0
C802 C 0.21423 0.24274 0.66572 0.0
C803 C 0.21943 0.2242 0.65513 0.0
C804 C 0.22501 0.22593 0.63369 0.0
C805 C 0.22532 0.24527 0.6228 0.0
C806 C 0.23196 0.24302 0.59991 0.0
C807 C 0.21335 0.2485 0.58373 0.0
C808 C 0.2531 0.25677 0.59595 0.0
C809 C 0.2357 0.21946 0.59965 0.0
C810 C 0.23167 0.20981 0.61925 0.0
C811 C 0.23499 0.18826 0.62299 0.0
C812 C 0.24267 0.17634 0.60624 0.0
C813 C 0.24675 0.186 0.58604 0.0
C814 C 0.24305 0.2078 0.58279 0.0
H815 H 0.51487 0.51555 0.63232 0.0
H816 H 0.4761 0.54105 0.57896 0.0
H817 H 0.44436 0.54086 0.60179 0.0
H818 H 0.47047 0.48249 0.65682 0.0
H819 H 0.4809 0.4889 0.68375 0.0
H820 H 0.49941 0.48796 0.66226 0.0
H821 H 0.51455 0.52664 0.671 0.0
H822 H 0.4961 0.52771 0.69244 0.0
H823 H 0.49592 0.54765 0.67137 0.0
H824 H 0.41808 0.54172 0.6318 0.0
H825 H 0.39977 0.54342 0.66622 0.0
H826 H 0.45659 0.51882 0.69981 0.0
C827 C 0.49965 0.52086 0.62531 0.0
C828 C 0.49802 0.52824 0.60379 0.0
C829 C 0.47771 0.53495 0.59526 0.0
C830 C 0.45959 0.535 0.60816 0.0
C831 C 0.462 0.52821 0.6295 0.0
C832 C 0.48151 0.52116 0.63796 0.0
C833 C 0.48052 0.51637 0.66178 0.0
C834 C 0.48297 0.49251 0.66642 0.0
C835 C 0.49779 0.53043 0.67491 0.0
C836 C 0.45763 0.52246 0.66558 0.0
C837 C 0.44704 0.52896 0.64675 0.0
C838 C 0.42611 0.53638 0.64658 0.0
C839 C 0.41586 0.53733 0.66621 0.0
C840 C 0.42664 0.53106 0.68571 0.0
C841 C 0.44769 0.52335 0.68521 0.0
H842 H 0.78688 0.26867 0.64425 0.0
H843 H 0.84947 0.25603 0.61935 0.0
H844 H 0.84094 0.27757 0.587 0.0
H845 H 0.75655 0.26432 0.59543 0.0
H846 H 0.73906 0.28554 0.60029 0.0
H847 H 0.75091 0.27109 0.6226 0.0
H848 H 0.76799 0.30657 0.63892 0.0
H849 H 0.7561 0.32117 0.61667 0.0
H850 H 0.78513 0.32416 0.62288 0.0
H851 H 0.82446 0.2972 0.55608 0.0
H852 H 0.80113 0.31442 0.52853 0.0
H853 H 0.74936 0.31532 0.57331 0.0
C854 C 0.79899 0.27089 0.63222 0.0
C855 C 0.81883 0.26065 0.63428 0.0
C856 C 0.83408 0.26355 0.61799 0.0
C857 C 0.82946 0.27588 0.59964 0.0
C858 C 0.80958 0.28537 0.59788 0.0
C859 C 0.79463 0.28318 0.61377 0.0
C860 C 0.77391 0.29397 0.6072 0.0
C861 C 0.75394 0.27776 0.60632 0.0
C862 C 0.77059 0.31257 0.62232 0.0
C863 C 0.77933 0.302 0.5849 0.0
C864 C 0.80008 0.29698 0.57996 0.0
C865 C 0.80829 0.30143 0.55983 0.0
C866 C 0.79484 0.311 0.54421 0.0
C867 C 0.77347 0.31603 0.54881 0.0
C868 C 0.76579 0.31188 0.56955 0.0
H869 H 0.56963 0.99933 0.61181 0.0
H870 H 0.50898 0.00651 0.64298 0.0
H871 H 0.52905 0.00703 0.67852 0.0
H872 H 0.59456 0.96534 0.6528 0.0
H873 H 0.62154 0.97795 0.6501 0.0
H874 H 0.60215 0.97682 0.62734 0.0
H875 H 0.60698 0.01799 0.62319 0.0
H876 H 0.62633 0.01925 0.64595 0.0
H877 H 0.60257 0.03466 0.6458 0.0
H878 H 0.55598 0.00763 0.71055 0.0
H879 H 0.58775 0.00971 0.73653 0.0
H880 H 0.63091 0.00297 0.68416 0.0
C881 C 0.56053 0.00065 0.62615 0.0
C882 C 0.53773 0.00272 0.6247 0.0
C883 C 0.52646 0.00495 0.64377 0.0
C884 C 0.5377 0.00516 0.664 0.0
C885 C 0.56022 0.00323 0.66485 0.0
C886 C 0.57152 0.00108 0.64642 0.0
C887 C 0.59582 0.00036 0.65165 0.0
C888 C 0.60399 0.97884 0.64509 0.0
C889 C 0.60867 0.01919 0.64102 0.0
C890 C 0.59647 0.00262 0.67589 0.0
C891 C 0.57575 0.00405 0.68322 0.0
C892 C 0.57227 0.00648 0.70499 0.0
C893 C 0.59046 0.00764 0.71964 0.0
C894 C 0.61191 0.00657 0.71245 0.0
C895 C 0.6148 0.00386 0.69024 0.0
H896 H 0.88345 0.22794 0.80872 0.0
H897 H 0.92333 0.25114 0.75651 0.0
H898 H 0.95298 0.2624 0.78278 0.0
H899 H 0.90278 0.26835 0.84825 0.0
H900 H 0.90284 0.24957 0.87038 0.0
H901 H 0.88372 0.2452 0.84765 0.0
H902 H 0.89788 0.20772 0.84227 0.0
H903 H 0.91703 0.21198 0.86494 0.0
H904 H 0.92662 0.20527 0.83911 0.0
H905 H 0.97916 0.26943 0.81426 0.0
H906 H 1.00043 0.271 0.8489 0.0
H907 H 0.94449 0.2416 0.88075 0.0
C908 C 0.89836 0.23544 0.80275 0.0
C909 C 0.90078 0.23885 0.78043 0.0
C910 C 0.92066 0.24883 0.77347 0.0
C911 C 0.93774 0.25516 0.78828 0.0
C912 C 0.93486 0.25133 0.81005 0.0
C913 C 0.91571 0.24166 0.81731 0.0
C914 C 0.91734 0.23829 0.84149 0.0
C915 C 0.90068 0.25113 0.85259 0.0
C916 C 0.91456 0.2144 0.84728 0.0
C917 C 0.94052 0.24729 0.84662 0.0
C918 C 0.95023 0.25491 0.82826 0.0
C919 C 0.97171 0.2636 0.82878 0.0
C920 C 0.98366 0.26441 0.84858 0.0
C921 C 0.97419 0.25642 0.86763 0.0
C922 C 0.95225 0.24788 0.86654 0.0
H923 H 0.48469 0.90768 0.50187 0.0
H924 H 0.51562 0.94817 0.45359 0.0
H925 H 0.51993 0.91648 0.43147 0.0
H926 H 0.51793 0.86459 0.49822 0.0
H927 H 0.49631 0.84413 0.50158 0.0
H928 H 0.49449 0.87012 0.51306 0.0
H929 H 0.45709 0.87366 0.49254 0.0
H930 H 0.45878 0.84762 0.481 0.0
H931 H 0.45492 0.87045 0.46373 0.0
H932 H 0.52331 0.88025 0.41586 0.0
H933 H 0.52487 0.84199 0.40757 0.0
H934 H 0.49024 0.82522 0.46514 0.0
C935 C 0.49198 0.90997 0.48646 0.0
C936 C 0.49991 0.93046 0.47955 0.0
C937 C 0.50973 0.93263 0.45943 0.0
C938 C 0.51209 0.91474 0.44664 0.0
C939 C 0.50435 0.89478 0.45407 0.0
C940 C 0.49435 0.89229 0.47343 0.0
C941 C 0.48818 0.86898 0.47805 0.0
C942 C 0.49993 0.86152 0.49896 0.0
C943 C 0.46326 0.86494 0.47887 0.0
C944 C 0.49665 0.85871 0.45847 0.0
C945 C 0.50585 0.87389 0.4448 0.0
C946 C 0.51589 0.86822 0.42629 0.0
C947 C 0.51674 0.84645 0.42174 0.0
C948 C 0.50752 0.83061 0.4356 0.0
C949 C 0.49709 0.83693 0.45402 0.0
H950 H 0.13228 0.30017 0.77097 0.0
H951 H 0.14145 0.3677 0.78565 0.0
H952 H 0.1171 0.36235 0.81606 0.0
H953 H 0.07548 0.29405 0.78261 0.0
H954 H 0.07738 0.26769 0.79404 0.0
H955 H 0.09559 0.27694 0.77362 0.0
H956 H 0.12898 0.26923 0.79904 0.0
H957 H 0.11087 0.25986 0.81949 0.0
H958 H 0.13159 0.28098 0.82545 0.0
H959 H 0.09233 0.34912 0.84559 0.0
H960 H 0.06873 0.32926 0.87117 0.0
H961 H 0.07537 0.2708 0.83606 0.0
C962 C 0.1293 0.3138 0.7807 0.0
C963 C 0.1388 0.33433 0.77606 0.0
C964 C 0.13422 0.35185 0.7889 0.0
C965 C 0.12048 0.34895 0.80621 0.0
C966 C 0.11133 0.32847 0.81032 0.0
C967 C 0.1155 0.31123 0.79786 0.0
C968 C 0.10354 0.29091 0.80544 0.0
C969 C 0.08702 0.28187 0.78788 0.0
C970 C 0.11971 0.27427 0.8128 0.0
C971 C 0.0921 0.29934 0.82425 0.0
C972 C 0.09679 0.32102 0.82688 0.0
C973 C 0.08845 0.33215 0.84359 0.0
C974 C 0.07508 0.32076 0.85804 0.0
C975 C 0.07011 0.29852 0.85556 0.0
C976 C 0.07867 0.28783 0.83832 0.0
H977 H 0.56633 0.6201 0.47148 0.0
H978 H 0.51521 0.6229 0.51677 0.0
H979 H 0.50249 0.65522 0.49844 0.0
H980 H 0.5804 0.67414 0.4702 0.0
H981 H 0.58571 0.67594 0.44198 0.0
H982 H 0.58865 0.65117 0.45628 0.0
H983 H 0.56141 0.63164 0.42873 0.0
H984 H 0.55847 0.6564 0.41423 0.0
H985 H 0.53468 0.6414 0.42357 0.0
H986 H 0.49851 0.68944 0.47872 0.0
H987 H 0.50312 0.72321 0.45853 0.0
H988 H 0.55645 0.69843 0.42533 0.0
C989 C 0.55204 0.62717 0.47706 0.0
C990 C 0.54165 0.61902 0.49544 0.0
C991 C 0.52338 0.62898 0.50272 0.0
C992 C 0.51598 0.64724 0.49234 0.0
C993 C 0.52696 0.65529 0.47465 0.0
C994 C 0.54449 0.64552 0.46692 0.0
C995 C 0.55465 0.65857 0.44891 0.0
C996 C 0.57877 0.66536 0.4547 0.0
C997 C 0.55214 0.64627 0.42759 0.0
C998 C 0.5406 0.67756 0.4483 0.0
C999 C 0.52455 0.67518 0.46309 0.0
C1000 C 0.5107 0.69131 0.46676 0.0
C1001 C 0.51348 0.7105 0.4552 0.0
C1002 C 0.52996 0.71343 0.44013 0.0
C1003 C 0.54342 0.69654 0.43642 0.0
H1004 H 0.86411 0.80667 0.71777 0.0
H1005 H 0.9013 0.77709 0.76971 0.0
H1006 H 0.93007 0.77013 0.74476 0.0
H1007 H 0.87468 0.76935 0.67824 0.0
H1008 H 0.87638 0.78849 0.65647 0.0
H1009 H 0.85998 0.79326 0.67888 0.0
H1010 H 0.88148 0.82979 0.68534 0.0
H1011 H 0.89803 0.82507 0.66296 0.0
H1012 H 0.91083 0.83086 0.68916 0.0
H1013 H 0.9538 0.76486 0.71401 0.0
H1014 H 0.96949 0.75888 0.67903 0.0
H1015 H 0.91624 0.79069 0.6466 0.0
C1016 C 0.87851 0.79905 0.72387 0.0
C1017 C 0.88066 0.7925 0.74561 0.0
C1018 C 0.89943 0.78217 0.75305 0.0
C1019 C 0.91588 0.7783 0.73906 0.0
C1020 C 0.91323 0.78476 0.71765 0.0
C1021 C 0.89496 0.79478 0.71002 0.0
C1022 C 0.89528 0.79847 0.68592 0.0
C1023 C 0.87541 0.78668 0.67419 0.0
C1024 C 0.89648 0.82248 0.68053 0.0
C1025 C 0.91636 0.7886 0.68116 0.0
C1026 C 0.92664 0.78114 0.69974 0.0
C1027 C 0.94598 0.77075 0.69935 0.0
C1028 C 0.95478 0.76746 0.67939 0.0
C1029 C 0.94411 0.77429 0.66004 0.0
C1030 C 0.92487 0.78536 0.66108 0.0
H1031 H 0.05421 0.8669 0.50143 0.0
H1032 H 0.02809 0.91297 0.54315 0.0
H1033 H 0.01497 0.88356 0.56689 0.0
H1034 H 0.00992 0.82763 0.5045 0.0
H1035 H 0.0269 0.8053 0.50413 0.0
H1036 H 0.03542 0.83008 0.49126 0.0
H1037 H 0.0719 0.83152 0.51424 0.0
H1038 H 0.06347 0.80674 0.52723 0.0
H1039 H 0.07134 0.83009 0.54317 0.0
H1040 H 0.00337 0.84891 0.58527 0.0
H1041 H 0.99375 0.81182 0.59662 0.0
H1042 H 0.02679 0.78851 0.54226 0.0
C1043 C 0.04566 0.87086 0.51551 0.0
C1044 C 0.04222 0.89231 0.5204 0.0
C1045 C 0.03122 0.89673 0.53919 0.0
C1046 C 0.02361 0.88012 0.55273 0.0
C1047 C 0.02715 0.85917 0.5473 0.0
C1048 C 0.03791 0.85451 0.52913 0.0
C1049 C 0.03903 0.83065 0.52651 0.0
C1050 C 0.0271 0.82297 0.50535 0.0
C1051 C 0.06285 0.82439 0.52787 0.0
C1052 C 0.02693 0.82256 0.54589 0.0
C1053 C 0.02034 0.83926 0.55777 0.0
C1054 C 0.00853 0.83571 0.57615 0.0
C1055 C 0.00315 0.81455 0.58245 0.0
C1056 C 0.0095 0.79716 0.57036 0.0
C1057 C 0.02172 0.80136 0.55193 0.0
H1058 H 0.11651 0.7435 0.70749 0.0
H1059 H 0.14417 0.6855 0.68742 0.0
H1060 H 0.11357 0.67929 0.66041 0.0
H1061 H 0.05893 0.72305 0.70081 0.0
H1062 H 0.04987 0.74834 0.6912 0.0
H1063 H 0.07331 0.7476 0.70978 0.0
H1064 H 0.09661 0.77011 0.68313 0.0
H1065 H 0.0733 0.77084 0.66444 0.0
H1066 H 0.09831 0.76084 0.65596 0.0
H1067 H 0.08235 0.68134 0.6333 0.0
H1068 H 0.05049 0.6898 0.60967 0.0
H1069 H 0.04152 0.74531 0.64848 0.0
C1070 C 0.11595 0.72939 0.69754 0.0
C1071 C 0.13264 0.71492 0.69955 0.0
C1072 C 0.1314 0.69662 0.6863 0.0
C1073 C 0.11415 0.69302 0.67087 0.0
C1074 C 0.09811 0.70772 0.66909 0.0
C1075 C 0.09865 0.72538 0.68225 0.0
C1076 C 0.07949 0.73885 0.67675 0.0
C1077 C 0.06451 0.73949 0.69577 0.0
C1078 C 0.08741 0.76149 0.66965 0.0
C1079 C 0.0684 0.72626 0.65812 0.0
C1080 C 0.0795 0.70841 0.65393 0.0
C1081 C 0.0733 0.69505 0.63663 0.0
C1082 C 0.05527 0.70004 0.62325 0.0
C1083 C 0.04348 0.71807 0.62741 0.0
C1084 C 0.05003 0.73121 0.6452 0.0
H1085 H 0.99216 0.60327 0.52171 0.0
H1086 H 0.94855 0.56524 0.56206 0.0
H1087 H 0.94119 0.59753 0.58187 0.0
H1088 H 0.01512 0.63849 0.56249 0.0
H1089 H 0.0162 0.66196 0.54553 0.0
H1090 H 0.01777 0.63597 0.53391 0.0
H1091 H 0.98471 0.64275 0.50776 0.0
H1092 H 0.9831 0.66882 0.51924 0.0
H1093 H 0.95952 0.65007 0.51845 0.0
H1094 H 0.93981 0.63314 0.59848 0.0
H1095 H 0.94321 0.67065 0.61006 0.0
H1096 H 0.98634 0.68646 0.55818 0.0
C1097 C 0.98084 0.60179 0.53452 0.0
C1098 C 0.97113 0.58163 0.54047 0.0
C1099 C 0.95656 0.58039 0.55748 0.0
C1100 C 0.95214 0.59867 0.56874 0.0
C1101 C 0.96223 0.61817 0.56272 0.0
C1102 C 0.97613 0.61995 0.54592 0.0
C1103 C 0.98496 0.64292 0.54299 0.0
C1104 C 0.01 0.64494 0.54644 0.0
C1105 C 0.97763 0.65165 0.52079 0.0
C1106 C 0.97401 0.65365 0.56092 0.0
C1107 C 0.96101 0.63901 0.57208 0.0
C1108 C 0.9498 0.64481 0.58977 0.0
C1109 C 0.9519 0.66617 0.59626 0.0
C1110 C 0.96503 0.68156 0.58504 0.0
C1111 C 0.97611 0.67516 0.56704 0.0
H1112 H 0.7711 0.91958 0.21603 0.0
H1113 H 0.80256 0.85983 0.21281 0.0
H1114 H 0.83855 0.87923 0.21941 0.0
H1115 H 0.81108 0.9514 0.18842 0.0
H1116 H 0.80938 0.97472 0.20478 0.0
H1117 H 0.78599 0.95604 0.20094 0.0
H1118 H 0.78398 0.95153 0.24227 0.0
H1119 H 0.80737 0.97024 0.24623 0.0
H1120 H 0.8077 0.94388 0.25801 0.0
H1121 H 0.8711 0.90519 0.22437 0.0
H1122 H 0.89816 0.93583 0.22847 0.0
H1123 H 0.84562 0.97891 0.22859 0.0
C1124 C 0.78556 0.91057 0.21673 0.0
C1125 C 0.78401 0.88816 0.21395 0.0
C1126 C 0.80331 0.87694 0.21519 0.0
C1127 C 0.82383 0.88784 0.21881 0.0
C1128 C 0.82477 0.90993 0.22127 0.0
C1129 C 0.80616 0.92118 0.2204 0.0
C1130 C 0.81175 0.94493 0.22317 0.0
C1131 C 0.8041 0.95751 0.20313 0.0
C1132 C 0.80213 0.95312 0.24364 0.0
C1133 C 0.83644 0.9453 0.22545 0.0
C1134 C 0.84359 0.92493 0.22433 0.0
C1135 C 0.86571 0.9212 0.22541 0.0
C1136 C 0.88096 0.93876 0.22768 0.0
C1137 C 0.87406 0.95983 0.2289 0.0
C1138 C 0.85145 0.96303 0.22787 0.0
H1139 H 0.77132 0.13673 0.22198 0.0
H1140 H 0.76211 0.13654 0.29059 0.0
H1141 H 0.7856 0.10598 0.29528 0.0
H1142 H 0.7715 0.07834 0.21638 0.0
H1143 H 0.79187 0.08052 0.19646 0.0
H1144 H 0.77314 0.10123 0.19863 0.0
H1145 H 0.8058 0.12944 0.20345 0.0
H1146 H 0.8246 0.10886 0.20135 0.0
H1147 H 0.82642 0.12588 0.22463 0.0
H1148 H 0.81364 0.07795 0.29257 0.0
H1149 H 0.84154 0.05359 0.28239 0.0
H1150 H 0.83024 0.07129 0.21534 0.0
C1151 C 0.77405 0.13005 0.23795 0.0
C1152 C 0.765 0.13893 0.25595 0.0
C1153 C 0.76882 0.1298 0.2766 0.0
C1154 C 0.78216 0.11252 0.27939 0.0
C1155 C 0.79119 0.10435 0.26131 0.0
C1156 C 0.787 0.11266 0.24095 0.0
C1157 C 0.79905 0.10152 0.22418 0.0
C1158 C 0.78292 0.0897 0.20796 0.0
C1159 C 0.81491 0.11737 0.21274 0.0
C1160 C 0.81118 0.08601 0.23831 0.0
C1161 C 0.80651 0.08782 0.25969 0.0
C1162 C 0.8171 0.07613 0.27582 0.0
C1163 C 0.83295 0.06237 0.26992 0.0
C1164 C 0.83788 0.06033 0.24806 0.0
C1165 C 0.82656 0.07213 0.23215 0.0
H1166 H 0.40228 0.91071 0.9887 0.0
H1167 H 0.37296 0.97184 0.98694 0.0
H1168 H 0.33633 0.95311 0.9881 0.0
H1169 H 0.35986 0.88114 0.95671 0.0
H1170 H 0.3618 0.85716 0.97272 0.0
H1171 H 0.38549 0.8754 0.97026 0.0
H1172 H 0.3899 0.87834 0.01182 0.0
H1173 H 0.36628 0.8601 0.0144 0.0
H1174 H 0.36726 0.88607 0.02667 0.0
H1175 H 0.30285 0.92743 0.99106 0.0
H1176 H 0.27565 0.89721 0.99628 0.0
H1177 H 0.32748 0.85332 0.9972 0.0
C1178 C 0.38821 0.92024 0.98863 0.0
C1179 C 0.39058 0.94279 0.98771 0.0
C1180 C 0.37161 0.95454 0.98732 0.0
C1181 C 0.35072 0.94405 0.98807 0.0
C1182 C 0.34906 0.9218 0.9892 0.0
C1183 C 0.36732 0.91006 0.98948 0.0
C1184 C 0.36128 0.88638 0.99158 0.0
C1185 C 0.36747 0.87431 0.97162 0.0
C1186 C 0.3718 0.87719 0.01235 0.0
C1187 C 0.33675 0.88661 0.99273 0.0
C1188 C 0.32995 0.90714 0.99116 0.0
C1189 C 0.308 0.91128 0.99222 0.0
C1190 C 0.29266 0.89399 0.99517 0.0
C1191 C 0.29936 0.87283 0.99717 0.0
C1192 C 0.32173 0.86924 0.99573 0.0
H1193 H 0.25018 0.37882 0.26319 0.0
H1194 H 0.21006 0.34632 0.31046 0.0
H1195 H 0.18195 0.37235 0.30372 0.0
H1196 H 0.24049 0.43006 0.27735 0.0
H1197 H 0.23987 0.44097 0.25042 0.0
H1198 H 0.25528 0.41816 0.25676 0.0
H1199 H 0.23381 0.39677 0.22619 0.0
H1200 H 0.21833 0.4196 0.21969 0.0
H1201 H 0.20437 0.39422 0.22573 0.0
H1202 H 0.16032 0.40432 0.29485 0.0
H1203 H 0.14711 0.43956 0.28474 0.0
H1204 H 0.20117 0.45057 0.24273 0.0
C1205 C 0.23518 0.37675 0.27163 0.0
C1206 C 0.23227 0.36047 0.28728 0.0
C1207 C 0.21268 0.35874 0.29847 0.0
C1208 C 0.19656 0.37335 0.29464 0.0
C1209 C 0.20018 0.38952 0.27944 0.0
C1210 C 0.21896 0.39119 0.268 0.0
C1211 C 0.21978 0.41101 0.2539 0.0
C1212 C 0.24005 0.42592 0.25999 0.0
C1213 C 0.21902 0.40504 0.22996 0.0
C1214 C 0.19892 0.42062 0.25973 0.0
C1215 C 0.18768 0.40787 0.27428 0.0
C1216 C 0.16879 0.41425 0.28318 0.0
C1217 C 0.16143 0.43433 0.27736 0.0
C1218 C 0.173 0.44786 0.26283 0.0
C1219 C 0.19171 0.44056 0.25361 0.0
H1220 H 0.1551 0.03239 0.49248 0.0
H1221 H 0.09404 0.05803 0.50858 0.0
H1222 H 0.11421 0.09149 0.52045 0.0
H1223 H 0.18788 0.05603 0.53814 0.0
H1224 H 0.21175 0.06105 0.52267 0.0
H1225 H 0.19254 0.03885 0.51601 0.0
H1226 H 0.18819 0.05316 0.47691 0.0
H1227 H 0.20727 0.07546 0.48347 0.0
H1228 H 0.18032 0.08007 0.47229 0.0
H1229 H 0.14063 0.12289 0.5285 0.0
H1230 H 0.17177 0.14952 0.53395 0.0
H1231 H 0.21595 0.10289 0.51444 0.0
C1232 C 0.14596 0.04484 0.49888 0.0
C1233 C 0.1229 0.04253 0.49947 0.0
C1234 C 0.11163 0.05948 0.50761 0.0
C1235 C 0.12296 0.07852 0.51453 0.0
C1236 C 0.14561 0.08033 0.51345 0.0
C1237 C 0.15703 0.06389 0.50604 0.0
C1238 C 0.18133 0.07009 0.50622 0.0
C1239 C 0.19413 0.05564 0.52168 0.0
C1240 C 0.18976 0.06967 0.48336 0.0
C1241 C 0.18174 0.09269 0.51463 0.0
C1242 C 0.16095 0.09828 0.51865 0.0
C1243 C 0.15702 0.11863 0.52563 0.0
C1244 C 0.17482 0.13367 0.52859 0.0
C1245 C 0.19632 0.12828 0.52473 0.0
C1246 C 0.19976 0.10743 0.51779 0.0
H1247 H 0.76754 0.11844 0.72211 0.0
H1248 H 0.73883 0.17461 0.74561 0.0
H1249 H 0.70572 0.15236 0.75431 0.0
H1250 H 0.71737 0.09111 0.69976 0.0
H1251 H 0.72539 0.06513 0.70839 0.0
H1252 H 0.7459 0.0858 0.702 0.0
H1253 H 0.76498 0.08152 0.73981 0.0
H1254 H 0.74466 0.06077 0.74622 0.0
H1255 H 0.74941 0.08375 0.7634 0.0
H1256 H 0.67666 0.1235 0.7626 0.0
H1257 H 0.65496 0.09026 0.77143 0.0
H1258 H 0.70355 0.05309 0.74374 0.0
C1259 C 0.75435 0.12613 0.72911 0.0
C1260 C 0.75585 0.14835 0.7331 0.0
C1261 C 0.73799 0.15771 0.74204 0.0
C1262 C 0.71912 0.14519 0.74711 0.0
C1263 C 0.71831 0.12333 0.74312 0.0
C1264 C 0.7355 0.11388 0.73438 0.0
C1265 C 0.7312 0.0899 0.73293 0.0
C1266 C 0.72988 0.08256 0.70937 0.0
C1267 C 0.74859 0.07831 0.7464 0.0
C1268 C 0.7091 0.08723 0.74268 0.0
C1269 C 0.70178 0.10671 0.74817 0.0
C1270 C 0.68215 0.10817 0.7582 0.0
C1271 C 0.66992 0.0892 0.76313 0.0
C1272 C 0.67748 0.06906 0.75819 0.0
C1273 C 0.69715 0.0682 0.7475 0.0
H1274 H 0.40502 0.05271 0.56229 0.0
H1275 H 0.39241 0.02823 0.49761 0.0
H1276 H 0.35724 0.04541 0.49508 0.0
H1277 H 0.34766 0.04859 0.57859 0.0
H1278 H 0.35122 0.07319 0.59345 0.0
H1279 H 0.37399 0.05682 0.59105 0.0
H1280 H 0.39661 0.08911 0.57529 0.0
H1281 H 0.37394 0.10553 0.57757 0.0
H1282 H 0.38581 0.10284 0.5519 0.0
H1283 H 0.32494 0.06772 0.4986 0.0
H1284 H 0.29877 0.09421 0.5074 0.0
H1285 H 0.33293 0.10434 0.56966 0.0
C1286 C 0.39457 0.05049 0.54783 0.0
C1287 C 0.40131 0.03901 0.53021 0.0
C1288 C 0.38751 0.03698 0.51128 0.0
C1289 C 0.36748 0.04657 0.50976 0.0
C1290 C 0.36149 0.05813 0.52729 0.0
C1291 C 0.37463 0.06009 0.54599 0.0
C1292 C 0.36536 0.07479 0.56183 0.0
C1293 C 0.35919 0.06262 0.58245 0.0
C1294 C 0.38138 0.09422 0.56693 0.0
C1295 C 0.34524 0.08122 0.54894 0.0
C1296 C 0.3431 0.07123 0.52918 0.0
C1297 C 0.32632 0.07546 0.51412 0.0
C1298 C 0.31153 0.09054 0.51926 0.0
C1299 C 0.31375 0.10134 0.53923 0.0
C1300 C 0.33066 0.09628 0.55432 0.0
H1301 H 0.62278 0.4575 0.54309 0.0
H1302 H 0.62718 0.48662 0.47972 0.0
H1303 H 0.65127 0.45881 0.46934 0.0
H1304 H 0.67734 0.44385 0.54938 0.0
H1305 H 0.67113 0.41882 0.56295 0.0
H1306 H 0.65337 0.44033 0.56495 0.0
H1307 H 0.6204 0.41566 0.55059 0.0
H1308 H 0.63803 0.394 0.54869 0.0
H1309 H 0.62194 0.40211 0.52535 0.0
H1310 H 0.67637 0.4286 0.46661 0.0
H1311 H 0.69968 0.3981 0.47145 0.0
H1312 H 0.67796 0.38866 0.53642 0.0
C1313 C 0.62838 0.45781 0.52686 0.0
C1314 C 0.62299 0.47423 0.51219 0.0
C1315 C 0.63121 0.4743 0.49129 0.0
C1316 C 0.64482 0.45852 0.48522 0.0
C1317 C 0.65 0.44272 0.50019 0.0
C1318 C 0.64191 0.4422 0.52054 0.0
C1319 C 0.65041 0.42393 0.53387 0.0
C1320 C 0.66386 0.43224 0.55397 0.0
C1321 C 0.63157 0.40798 0.53997 0.0
C1322 C 0.66474 0.41435 0.51794 0.0
C1323 C 0.66428 0.42537 0.49859 0.0
C1324 C 0.67672 0.41977 0.48164 0.0
C1325 C 0.68995 0.40245 0.48457 0.0
C1326 C 0.69062 0.39093 0.50429 0.0
C1327 C 0.67774 0.39702 0.5211 0.0
H1328 H 0.74733 0.25329 0.34421 0.0
H1329 H 0.69914 0.29464 0.31678 0.0
H1330 H 0.70118 0.31527 0.35062 0.0
H1331 H 0.72815 0.25096 0.39739 0.0
H1332 H 0.75512 0.25113 0.41029 0.0
H1333 H 0.75011 0.24015 0.38374 0.0
H1334 H 0.78107 0.26585 0.36955 0.0
H1335 H 0.78614 0.27694 0.39606 0.0
H1336 H 0.78024 0.29421 0.37348 0.0
H1337 H 0.70761 0.33042 0.38836 0.0
H1338 H 0.71864 0.33933 0.42622 0.0
H1339 H 0.76295 0.28813 0.42801 0.0
C1340 C 0.73714 0.26664 0.34535 0.0
C1341 C 0.72304 0.27235 0.32792 0.0
C1342 C 0.7102 0.29011 0.32991 0.0
C1343 C 0.71119 0.30186 0.34908 0.0
C1344 C 0.72521 0.29571 0.36601 0.0
C1345 C 0.73804 0.27858 0.36424 0.0
C1346 C 0.75172 0.27515 0.38472 0.0
C1347 C 0.74592 0.25304 0.39462 0.0
C1348 C 0.77624 0.27823 0.3807 0.0
C1349 C 0.74445 0.29288 0.3984 0.0
C1350 C 0.72914 0.30459 0.3874 0.0
C1351 C 0.71969 0.32144 0.39708 0.0
C1352 C 0.72603 0.32636 0.41859 0.0
C1353 C 0.74174 0.31452 0.4301 0.0
C1354 C 0.75105 0.29766 0.41969 0.0
H1355 H 0.55157 0.99368 0.91054 0.0
H1356 H 0.48793 0.00417 0.88035 0.0
H1357 H 0.50436 0.00745 0.84482 0.0
H1358 H 0.58277 0.03039 0.87837 0.0
H1359 H 0.60553 0.0138 0.87715 0.0
H1360 H 0.58856 0.01187 0.89994 0.0
H1361 H 0.58117 0.97123 0.89346 0.0
H1362 H 0.59805 0.97305 0.87057 0.0
H1363 H 0.57023 0.96197 0.86752 0.0
H1364 H 0.52829 0.01167 0.81299 0.0
H1365 H 0.55759 0.01522 0.78708 0.0
H1366 H 0.6052 1.00026 0.83802 0.0
C1367 C 0.54113 0.99673 0.89644 0.0
C1368 C 0.51852 0.9988 0.89813 0.0
C1369 C 0.50528 0.00246 0.87933 0.0
C1370 C 0.51447 0.00437 0.85913 0.0
C1371 C 0.53685 0.0023 0.85802 0.0
C1372 C 0.54997 0.9984 0.87617 0.0
C1373 C 0.57354 0.99684 0.87066 0.0
C1374 C 0.58847 0.01427 0.88221 0.0
C1375 C 0.58119 0.97444 0.87586 0.0
C1376 C 0.57173 0.00083 0.84661 0.0
C1377 C 0.55045 0.00398 0.83963 0.0
C1378 C 0.54496 0.00899 0.81823 0.0
C1379 C 0.56171 0.011 0.80365 0.0
C1380 C 0.58361 0.00781 0.8105 0.0
C1381 C 0.58855 0.00242 0.83222 0.0
H1382 H 0.26369 0.2506 0.38436 0.0
H1383 H 0.31691 0.21428 0.3648 0.0
H1384 H 0.31104 0.18942 0.39543 0.0
H1385 H 0.27633 0.24838 0.43892 0.0
H1386 H 0.2485 0.24607 0.44704 0.0
H1387 H 0.25488 0.25908 0.42204 0.0
H1388 H 0.22678 0.23311 0.40144 0.0
H1389 H 0.22018 0.22005 0.42645 0.0
H1390 H 0.2288 0.20469 0.40446 0.0
H1391 H 0.30159 0.17072 0.43029 0.0
H1392 H 0.28985 0.16021 0.46653 0.0
H1393 H 0.24286 0.20905 0.46284 0.0
C1394 C 0.27366 0.23702 0.3861 0.0
C1395 C 0.29062 0.23425 0.3721 0.0
C1396 C 0.30382 0.2167 0.37537 0.0
C1397 C 0.30052 0.20244 0.39263 0.0
C1398 C 0.28393 0.20593 0.40642 0.0
C1399 C 0.27065 0.22275 0.40326 0.0
C1400 C 0.25522 0.22414 0.42132 0.0
C1401 C 0.25897 0.24569 0.43302 0.0
C1402 C 0.23133 0.22026 0.41291 0.0
C1403 C 0.2623 0.20586 0.43549 0.0
C1404 C 0.27866 0.19534 0.42653 0.0
C1405 C 0.28859 0.17867 0.43732 0.0
C1406 C 0.28181 0.17283 0.45793 0.0
C1407 C 0.2654 0.18376 0.4676 0.0
C1408 C 0.25534 0.20023 0.45594 0.0
H1409 H 0.52309 0.49528 0.87209 0.0
H1410 H 0.47181 0.47685 0.91552 0.0
H1411 H 0.44428 0.48905 0.88865 0.0
H1412 H 0.49838 0.54126 0.8468 0.0
H1413 H 0.50747 0.53503 0.82063 0.0
H1414 H 0.52324 0.52787 0.84453 0.0
H1415 H 0.52112 0.4884 0.83217 0.0
H1416 H 0.50546 0.49544 0.80825 0.0
H1417 H 0.49477 0.47483 0.82598 0.0
H1418 H 0.42191 0.50116 0.85535 0.0
H1419 H 0.40728 0.50921 0.81835 0.0
H1420 H 0.47339 0.5165 0.79679 0.0
C1421 C 0.50611 0.49377 0.8761 0.0
C1422 C 0.49977 0.48508 0.89606 0.0
C1423 C 0.47727 0.4838 0.90056 0.0
C1424 C 0.46145 0.49062 0.88534 0.0
C1425 C 0.46832 0.49866 0.86564 0.0
C1426 C 0.49016 0.50014 0.86103 0.0
C1427 C 0.49334 0.50742 0.83811 0.0
C1428 C 0.50638 0.52919 0.83749 0.0
C1429 C 0.50431 0.49051 0.82539 0.0
C1430 C 0.46984 0.50928 0.8303 0.0
C1431 C 0.45558 0.50466 0.84645 0.0
C1432 C 0.43296 0.50491 0.84263 0.0
C1433 C 0.42479 0.50955 0.82165 0.0
C1434 C 0.43924 0.51336 0.80482 0.0
C1435 C 0.46198 0.51356 0.80939 0.0
H1436 H 0.73661 0.75148 0.15137 0.0
H1437 H 0.67084 0.76128 0.12592 0.0
H1438 H 0.67311 0.73175 0.10056 0.0
H1439 H 0.75855 0.74244 0.10183 0.0
H1440 H 0.7763 0.7223 0.11152 0.0
H1441 H 0.76856 0.74236 0.12958 0.0
H1442 H 0.75367 0.71278 0.15538 0.0
H1443 H 0.76133 0.69258 0.13732 0.0
H1444 H 0.73352 0.69264 0.14529 0.0
H1445 H 0.68383 0.70437 0.0752 0.0
H1446 H 0.70239 0.68063 0.05169 0.0
H1447 H 0.76107 0.68794 0.09338 0.0
C1448 C 0.72259 0.74726 0.14063 0.0
C1449 C 0.70346 0.75862 0.14081 0.0
C1450 C 0.6855 0.75257 0.12645 0.0
C1451 C 0.68665 0.73584 0.1119 0.0
C1452 C 0.70582 0.72517 0.11197 0.0
C1453 C 0.72345 0.73053 0.12601 0.0
C1454 C 0.74266 0.71748 0.12173 0.0
C1455 C 0.76269 0.73202 0.11581 0.0
C1456 C 0.74811 0.70301 0.14108 0.0
C1457 C 0.73331 0.70447 0.10261 0.0
C1458 C 0.71196 0.70905 0.09739 0.0
C1459 C 0.70041 0.70039 0.07932 0.0
C1460 C 0.71111 0.68706 0.06598 0.0
C1461 C 0.73305 0.68246 0.07085 0.0
C1462 C 0.7441 0.69085 0.08965 0.0
H1463 H 0.01236 0.01423 0.12571 0.0
H1464 H 0.97149 0.04085 0.07455 0.0
H1465 H 0.94079 0.03999 0.09871 0.0
H1466 H 0.96923 0.98036 0.15096 0.0
H1467 H 0.98056 0.98607 0.17774 0.0
H1468 H 0.99828 0.98591 0.15552 0.0
H1469 H 0.01345 0.02442 0.16491 0.0
H1470 H 0.9958 0.02471 0.1871 0.0
H1471 H 0.99474 0.04523 0.16665 0.0
H1472 H 0.91574 0.03978 0.12965 0.0
H1473 H 0.89857 0.04023 0.16473 0.0
H1474 H 0.95649 0.01512 0.19572 0.0
C1475 C 0.99691 0.0197 0.11947 0.0
C1476 C 0.99439 0.02755 0.09816 0.0
C1477 C 0.97378 0.0344 0.09066 0.0
C1478 C 0.95625 0.03407 0.10431 0.0
C1479 C 0.95952 0.02677 0.12539 0.0
C1480 C 0.97933 0.01962 0.13289 0.0
C1481 C 0.97922 0.01414 0.15663 0.0
C1482 C 0.98198 0.99019 0.16043 0.0
C1483 C 0.99684 0.02795 0.16958 0.0
C1484 C 0.95647 0.01991 0.16149 0.0
C1485 C 0.94523 0.02689 0.14322 0.0
C1486 C 0.92429 0.03408 0.144 0.0
C1487 C 0.91469 0.03432 0.164 0.0
C1488 C 0.92611 0.02755 0.18295 0.0
C1489 C 0.94716 0.02006 0.18152 0.0
H1490 H 0.31684 0.75882 0.12567 0.0
H1491 H 0.27914 0.7809 0.17731 0.0
H1492 H 0.26231 0.80649 0.15222 0.0
H1493 H 0.3244 0.80962 0.09661 0.0
H1494 H 0.3208 0.79695 0.07069 0.0
H1495 H 0.33225 0.7827 0.09341 0.0
H1496 H 0.30228 0.75192 0.08749 0.0
H1497 H 0.29081 0.76601 0.06476 0.0
H1498 H 0.27392 0.75785 0.08664 0.0
H1499 H 0.24749 0.82785 0.12058 0.0
H1500 H 0.23437 0.84116 0.08496 0.0
H1501 H 0.27998 0.80285 0.05424 0.0
C1502 C 0.3051 0.76902 0.13183 0.0
C1503 C 0.29943 0.76779 0.15358 0.0
C1504 C 0.28414 0.78174 0.16087 0.0
C1505 C 0.27441 0.7963 0.1467 0.0
C1506 C 0.28008 0.79672 0.12528 0.0
C1507 C 0.29502 0.78336 0.11789 0.0
C1508 C 0.29691 0.78546 0.09381 0.0
C1509 C 0.31996 0.79421 0.08832 0.0
C1510 C 0.29059 0.76404 0.08252 0.0
C1511 C 0.28023 0.80166 0.08867 0.0
C1512 C 0.27101 0.80834 0.10704 0.0
C1513 C 0.25472 0.82283 0.10611 0.0
C1514 C 0.24741 0.83033 0.08583 0.0
C1515 C 0.25611 0.823 0.06679 0.0
C1516 C 0.27295 0.80876 0.06839 0.0
H1517 H 0.06633 0.50535 0.10628 0.0
H1518 H 0.00492 0.51021 0.13698 0.0
H1519 H 0.02459 0.51042 0.17262 0.0
H1520 H 0.09106 0.47125 0.14608 0.0
H1521 H 0.11799 0.48422 0.14424 0.0
H1522 H 0.09897 0.48381 0.12121 0.0
H1523 H 0.10336 0.52512 0.11872 0.0
H1524 H 0.12243 0.52566 0.14171 0.0
H1525 H 0.0985 0.5408 0.14192 0.0
H1526 H 0.0512 0.51069 0.205 0.0
H1527 H 0.08261 0.51152 0.23145 0.0
H1528 H 0.12658 0.50736 0.17932 0.0
C1529 C 0.05698 0.50662 0.12046 0.0
C1530 C 0.03402 0.50773 0.11877 0.0
C1531 C 0.02246 0.50903 0.13782 0.0
C1532 C 0.0335 0.50927 0.15815 0.0
C1533 C 0.05613 0.50821 0.1592 0.0
C1534 C 0.06773 0.50693 0.14085 0.0
C1535 C 0.092 0.50626 0.14633 0.0
C1536 C 0.1005 0.48512 0.13903 0.0
C1537 C 0.10482 0.52561 0.13659 0.0
C1538 C 0.09227 0.50755 0.17063 0.0
C1539 C 0.07142 0.50855 0.17776 0.0
C1540 C 0.0676 0.50989 0.19959 0.0
C1541 C 0.08557 0.51034 0.2145 0.0
C1542 C 0.10714 0.50953 0.20754 0.0
C1543 C 0.11037 0.50803 0.18526 0.0
H1544 H 0.3861 0.72492 0.3108 0.0
H1545 H 0.42876 0.73759 0.25789 0.0
H1546 H 0.4592 0.74799 0.28372 0.0
H1547 H 0.4085 0.7681 0.34482 0.0
H1548 H 0.40624 0.75289 0.36944 0.0
H1549 H 0.38745 0.74682 0.34682 0.0
H1550 H 0.39807 0.70754 0.34779 0.0
H1551 H 0.41688 0.71347 0.37043 0.0
H1552 H 0.4264 0.70195 0.34649 0.0
H1553 H 0.4851 0.75651 0.31482 0.0
H1554 H 0.50525 0.76257 0.34961 0.0
H1555 H 0.44634 0.7439 0.38294 0.0
C1556 C 0.40186 0.72981 0.30466 0.0
C1557 C 0.40494 0.73065 0.28226 0.0
C1558 C 0.42583 0.73726 0.27491 0.0
C1559 C 0.44329 0.74306 0.28947 0.0
C1560 C 0.43968 0.74213 0.31137 0.0
C1561 C 0.41954 0.73566 0.319 0.0
C1562 C 0.42025 0.73591 0.34341 0.0
C1563 C 0.40468 0.75189 0.3516 0.0
C1564 C 0.4151 0.71337 0.35256 0.0
C1565 C 0.44396 0.74345 0.34825 0.0
C1566 C 0.4548 0.74695 0.32948 0.0
C1567 C 0.47681 0.75385 0.32966 0.0
C1568 C 0.48812 0.75723 0.34956 0.0
C1569 C 0.47744 0.75372 0.36911 0.0
C1570 C 0.45501 0.74677 0.36834 0.0
H1571 H 0.00285 0.4195 0.97092 0.0
H1572 H 0.97126 0.39943 0.02947 0.0
H1573 H 0.97028 0.36207 0.01778 0.0
H1574 H 0.97522 0.38059 0.9353 0.0
H1575 H 0.99913 0.37618 0.92073 0.0
H1576 H 0.99637 0.40171 0.93294 0.0
H1577 H 0.03354 0.39885 0.95407 0.0
H1578 H 0.03648 0.37339 0.94182 0.0
H1579 H 0.03786 0.37567 0.97073 0.0
H1580 H 0.97238 0.32701 0.99998 0.0
H1581 H 0.98028 0.29591 0.97868 0.0
H1582 H 0.0131 0.338 0.93283 0.0
C1583 C 0.99588 0.4073 0.98143 0.0
C1584 C 0.98683 0.41265 0.00104 0.0
C1585 C 0.97773 0.39601 0.01411 0.0
C1586 C 0.97723 0.37464 0.00769 0.0
C1587 C 0.98613 0.37004 0.98827 0.0
C1588 C 0.99553 0.38582 0.97544 0.0
C1589 C 0.00479 0.37636 0.95577 0.0
C1590 C 0.99318 0.38418 0.93496 0.0
C1591 C 0.02964 0.38136 0.9556 0.0
C1592 C 0.99919 0.35278 0.95965 0.0
C1593 C 0.98818 0.34958 0.97836 0.0
C1594 C 0.98105 0.32929 0.98533 0.0
C1595 C 0.98557 0.31171 0.97302 0.0
C1596 C 0.99736 0.31445 0.95405 0.0
C1597 C 0.00413 0.33534 0.94726 0.0
H1598 H 0.66406 0.80715 0.29053 0.0
H1599 H 0.615 0.8427 0.25568 0.0
H1600 H 0.59001 0.8357 0.28501 0.0
H1601 H 0.62655 0.76595 0.30963 0.0
H1602 H 0.64099 0.76317 0.33536 0.0
H1603 H 0.65567 0.77202 0.31221 0.0
H1604 H 0.67088 0.80599 0.33272 0.0
H1605 H 0.65622 0.79727 0.35595 0.0
H1606 H 0.65216 0.82316 0.34416 0.0
H1607 H 0.56992 0.82423 0.3174 0.0
H1608 H 0.55563 0.80833 0.35064 0.0
H1609 H 0.61703 0.779 0.36411 0.0
C1610 C 0.64805 0.81343 0.28901 0.0
C1611 C 0.64165 0.82569 0.27081 0.0
C1612 C 0.62056 0.83371 0.26961 0.0
C1613 C 0.60615 0.82969 0.28614 0.0
C1614 C 0.61296 0.81754 0.30375 0.0
C1615 C 0.63337 0.80946 0.30531 0.0
C1616 C 0.63633 0.7963 0.3257 0.0
C1617 C 0.6401 0.77298 0.3204 0.0
C1618 C 0.65501 0.80628 0.34051 0.0
C1619 C 0.61433 0.79815 0.33526 0.0
C1620 C 0.60118 0.81058 0.32237 0.0
C1621 C 0.58007 0.81449 0.32766 0.0
C1622 C 0.57211 0.80538 0.3466 0.0
C1623 C 0.5852 0.7924 0.36002 0.0
C1624 C 0.60663 0.78885 0.35423 0.0
H1625 H 0.02769 0.13021 0.9961 0.0
H1626 H 0.06248 0.09676 0.94923 0.0
H1627 H 0.058 0.12648 0.92341 0.0
H1628 H 0.98961 0.15643 0.95691 0.0
H1629 H 0.99115 0.18062 0.97245 0.0
H1630 H 0.99383 0.15521 0.98578 0.0
H1631 H 0.031 0.1693 0.00362 0.0
H1632 H 0.02849 0.19466 0.99035 0.0
H1633 H 0.0523 0.17998 0.98688 0.0
H1634 H 0.05467 0.16192 0.90494 0.0
H1635 H 0.05205 0.19993 0.89504 0.0
H1636 H 0.01945 0.21024 0.95397 0.0
C1637 C 0.03403 0.12897 0.98026 0.0
C1638 C 0.04539 0.11114 0.97466 0.0
C1639 C 0.05342 0.11009 0.95377 0.0
C1640 C 0.051 0.12694 0.93901 0.0
C1641 C 0.0403 0.14458 0.9453 0.0
C1642 C 0.03174 0.1456 0.96537 0.0
C1643 C 0.02271 0.16708 0.96894 0.0
C1644 C 0.99784 0.16468 0.97115 0.0
C1645 C 0.03433 0.17841 0.9886 0.0
C1646 C 0.02839 0.17833 0.94814 0.0
C1647 C 0.03825 0.165 0.93457 0.0
C1648 C 0.04658 0.17238 0.91523 0.0
C1649 C 0.04508 0.19401 0.90977 0.0
C1650 C 0.0354 0.20798 0.92365 0.0
C1651 C 0.02657 0.19986 0.94283 0.0
H1652 H 0.36775 0.25675 0.24443 0.0
H1653 H 0.36739 0.32313 0.22403 0.0
H1654 H 0.39119 0.31579 0.19457 0.0
H1655 H 0.42337 0.2491 0.23315 0.0
H1656 H 0.41764 0.22224 0.22342 0.0
H1657 H 0.40079 0.23271 0.24316 0.0
H1658 H 0.36629 0.22418 0.21819 0.0
H1659 H 0.38301 0.21355 0.19845 0.0
H1660 H 0.36538 0.23456 0.19105 0.0
H1661 H 0.41501 0.30129 0.16733 0.0
H1662 H 0.43598 0.28032 0.14329 0.0
H1663 H 0.42012 0.22318 0.1809 0.0
C1664 C 0.37248 0.26971 0.23366 0.0
C1665 C 0.36576 0.29057 0.23666 0.0
C1666 C 0.3726 0.30711 0.22231 0.0
C1667 C 0.38604 0.30308 0.20546 0.0
C1668 C 0.39249 0.28241 0.20309 0.0
C1669 C 0.38585 0.26597 0.21671 0.0
C1670 C 0.39487 0.24513 0.21047 0.0
C1671 C 0.41007 0.23681 0.22863 0.0
C1672 C 0.37628 0.22837 0.20416 0.0
C1673 C 0.40754 0.25242 0.19115 0.0
C1674 C 0.40604 0.274 0.18724 0.0
C1675 C 0.4163 0.28437 0.17022 0.0
C1676 C 0.4282 0.27232 0.15667 0.0
C1677 C 0.4297 0.25009 0.16017 0.0
C1678 C 0.41933 0.24013 0.17778 0.0
H1679 H 0.55505 0.35885 0.01212 0.0
H1680 H 0.50322 0.39808 0.0294 0.0
H1681 H 0.48684 0.36797 0.05049 0.0
H1682 H 0.52125 0.31147 0.00392 0.0
H1683 H 0.54119 0.29376 0.01446 0.0
H1684 H 0.55002 0.31892 0.00252 0.0
H1685 H 0.57286 0.32924 0.03748 0.0
H1686 H 0.56418 0.30405 0.04951 0.0
H1687 H 0.55978 0.32868 0.0628 0.0
H1688 H 0.47558 0.33342 0.06864 0.0
H1689 H 0.46898 0.2963 0.08124 0.0
H1690 H 0.52725 0.27883 0.05068 0.0
C1691 C 0.54049 0.36116 0.02071 0.0
C1692 C 0.53047 0.38078 0.01943 0.0
C1693 C 0.51112 0.38315 0.03034 0.0
C1694 C 0.50178 0.36618 0.04236 0.0
C1695 C 0.51189 0.34693 0.04312 0.0
C1696 C 0.53076 0.34427 0.03251 0.0
C1697 C 0.53752 0.32152 0.03473 0.0
C1698 C 0.53748 0.31079 0.01259 0.0
C1699 C 0.55991 0.32084 0.04686 0.0
C1700 C 0.51938 0.31174 0.04806 0.0
C1701 C 0.50495 0.32675 0.05294 0.0
C1702 C 0.4868 0.32153 0.06495 0.0
C1703 C 0.48321 0.30037 0.07206 0.0
C1704 C 0.49755 0.28457 0.06693 0.0
C1705 C 0.51593 0.29047 0.05483 0.0
H1706 H 0.63366 0.20773 0.17592 0.0
H1707 H 0.60532 0.2166 0.23746 0.0
H1708 H 0.56899 0.21897 0.2189 0.0
H1709 H 0.60211 0.24368 0.1459 0.0
H1710 H 0.59928 0.2276 0.12195 0.0
H1711 H 0.62284 0.22581 0.14015 0.0
H1712 H 0.61441 0.18494 0.14386 0.0
H1713 H 0.59091 0.18657 0.12552 0.0
H1714 H 0.58783 0.17486 0.15187 0.0
H1715 H 0.53591 0.22177 0.19323 0.0
H1716 H 0.50864 0.22348 0.16273 0.0
H1717 H 0.5589 0.21194 0.11836 0.0
C1718 C 0.61977 0.20973 0.18559 0.0
C1719 C 0.62238 0.21194 0.20818 0.0
C1720 C 0.60379 0.21507 0.22012 0.0
C1721 C 0.58307 0.21634 0.20973 0.0
C1722 C 0.58118 0.21438 0.18741 0.0
C1723 C 0.59902 0.211 0.17551 0.0
C1724 C 0.59275 0.20982 0.15169 0.0
C1725 C 0.60497 0.2278 0.13919 0.0
C1726 C 0.5967 0.18773 0.14271 0.0
C1727 C 0.5686 0.2132 0.152 0.0
C1728 C 0.56221 0.21582 0.17273 0.0
C1729 C 0.54072 0.21961 0.17693 0.0
C1730 C 0.52536 0.22061 0.15949 0.0
C1731 C 0.53156 0.21779 0.1381 0.0
C1732 C 0.55352 0.21406 0.13447 0.0
H1733 H 0.48864 0.09102 0.01705 0.0
H1734 H 0.46444 0.04902 0.0677 0.0
H1735 H 0.45986 0.08027 0.0903 0.0
H1736 H 0.51816 0.13025 0.05208 0.0
H1737 H 0.51101 0.1527 0.03548 0.0
H1738 H 0.51329 0.12699 0.02344 0.0
H1739 H 0.47384 0.12793 0.00674 0.0
H1740 H 0.47147 0.15365 0.01866 0.0
H1741 H 0.45174 0.13191 0.02397 0.0
H1742 H 0.45647 0.11578 0.10688 0.0
H1743 H 0.4543 0.15356 0.11645 0.0
H1744 H 0.48058 0.17297 0.05521 0.0
C1745 C 0.48235 0.08841 0.03289 0.0
C1746 C 0.47706 0.06752 0.04066 0.0
C1747 C 0.46899 0.0648 0.06153 0.0
C1748 C 0.46623 0.08247 0.07446 0.0
C1749 C 0.47162 0.10279 0.06634 0.0
C1750 C 0.47952 0.1059 0.04607 0.0
C1751 C 0.48361 0.12951 0.0411 0.0
C1752 C 0.50797 0.13519 0.03784 0.0
C1753 C 0.46931 0.13613 0.02145 0.0
C1754 C 0.47649 0.13915 0.06165 0.0
C1755 C 0.46972 0.12341 0.076 0.0
C1756 C 0.46184 0.12826 0.09584 0.0
C1757 C 0.46065 0.14979 0.10111 0.0
C1758 C 0.46734 0.16623 0.08662 0.0
C1759 C 0.47555 0.16077 0.06671 0.0
H1760 H 0.27012 0.42632 0.72345 0.0
H1761 H 0.30049 0.3661 0.71883 0.0
H1762 H 0.33686 0.38496 0.7245 0.0
H1763 H 0.30965 0.4576 0.69469 0.0
H1764 H 0.30881 0.48094 0.7112 0.0
H1765 H 0.28508 0.46258 0.70798 0.0
H1766 H 0.28427 0.45805 0.7494 0.0
H1767 H 0.308 0.47643 0.75274 0.0
H1768 H 0.30829 0.45003 0.76443 0.0
H1769 H 0.36993 0.41049 0.72885 0.0
H1770 H 0.3975 0.44082 0.73235 0.0
H1771 H 0.34564 0.48456 0.73397 0.0
C1772 C 0.28441 0.41709 0.72364 0.0
C1773 C 0.28242 0.39469 0.72078 0.0
C1774 C 0.30155 0.3832 0.72133 0.0
C1775 C 0.3223 0.39379 0.72442 0.0
C1776 C 0.32366 0.41587 0.727 0.0
C1777 C 0.30525 0.42739 0.72673 0.0
C1778 C 0.31127 0.45107 0.72943 0.0
C1779 C 0.30323 0.46379 0.70964 0.0
C1780 C 0.30243 0.45938 0.75024 0.0
C1781 C 0.33597 0.45107 0.73098 0.0
C1782 C 0.34277 0.4306 0.72959 0.0
C1783 C 0.36482 0.42659 0.73008 0.0
C1784 C 0.38035 0.44396 0.73203 0.0
C1785 C 0.3738 0.46513 0.73348 0.0
C1786 C 0.35125 0.4686 0.73304 0.0
H1787 H 0.30145 0.66988 0.76805 0.0
H1788 H 0.24359 0.62911 0.75055 0.0
H1789 H 0.26578 0.59755 0.75218 0.0
H1790 H 0.33747 0.64361 0.73662 0.0
H1791 H 0.3605 0.647 0.75571 0.0
H1792 H 0.3397 0.66592 0.75483 0.0
H1793 H 0.33387 0.65922 0.79539 0.0
H1794 H 0.35463 0.64019 0.79638 0.0
H1795 H 0.32762 0.63238 0.80491 0.0
H1796 H 0.29474 0.57063 0.7545 0.0
H1797 H 0.32834 0.551 0.75475 0.0
H1798 H 0.36716 0.60972 0.77018 0.0
C1799 C 0.29339 0.65426 0.76491 0.0
C1800 C 0.27078 0.65189 0.75931 0.0
C1801 C 0.26091 0.63126 0.7548 0.0
C1802 C 0.27335 0.61325 0.75584 0.0
C1803 C 0.29563 0.61616 0.76136 0.0
C1804 C 0.30557 0.63618 0.76572 0.0
C1805 C 0.32999 0.63522 0.76991 0.0
C1806 C 0.34265 0.64873 0.75327 0.0
C1807 C 0.33693 0.64216 0.79302 0.0
C1808 C 0.33232 0.61159 0.76691 0.0
C1809 C 0.3123 0.60079 0.76228 0.0
C1810 C 0.31048 0.57891 0.75823 0.0
C1811 C 0.32967 0.56788 0.75847 0.0
C1812 C 0.35041 0.5788 0.76249 0.0
C1813 C 0.35158 0.60087 0.76714 0.0
H1814 H 0.90655 0.42103 0.47813 0.0
H1815 H 0.8785 0.47876 0.49865 0.0
H1816 H 0.84214 0.45944 0.49849 0.0
H1817 H 0.86008 0.40013 0.44415 0.0
H1818 H 0.86358 0.37288 0.45234 0.0
H1819 H 0.88692 0.39185 0.45194 0.0
H1820 H 0.89656 0.38337 0.49205 0.0
H1821 H 0.87329 0.3644 0.49257 0.0
H1822 H 0.87629 0.38592 0.51169 0.0
H1823 H 0.80912 0.43306 0.49826 0.0
H1824 H 0.78255 0.40173 0.4988 0.0
H1825 H 0.83288 0.36121 0.47995 0.0
C1826 C 0.8928 0.42969 0.48258 0.0
C1827 C 0.89547 0.45149 0.48834 0.0
C1828 C 0.8769 0.46219 0.49379 0.0
C1829 C 0.85616 0.45131 0.49386 0.0
C1830 C 0.85424 0.42975 0.48844 0.0
C1831 C 0.87208 0.41908 0.48291 0.0
C1832 C 0.86597 0.39564 0.47894 0.0
C1833 C 0.86933 0.38979 0.45544 0.0
C1834 C 0.87878 0.38151 0.49476 0.0
C1835 C 0.84196 0.39468 0.4835 0.0
C1836 C 0.83541 0.41454 0.48871 0.0
C1837 C 0.81405 0.41745 0.49408 0.0
C1838 C 0.79906 0.39954 0.49433 0.0
C1839 C 0.80558 0.37895 0.48944 0.0
C1840 C 0.8273 0.37668 0.48376 0.0
H1841 H 0.75629 0.87994 0.76754 0.0
H1842 H 0.72207 0.85163 0.82121 0.0
H1843 H 0.69365 0.87754 0.8158 0.0
H1844 H 0.7485 0.93255 0.77957 0.0
H1845 H 0.74489 0.94155 0.75209 0.0
H1846 H 0.7608 0.91904 0.75829 0.0
H1847 H 0.73613 0.89578 0.73141 0.0
H1848 H 0.72013 0.91829 0.72508 0.0
H1849 H 0.70699 0.89351 0.73419 0.0
H1850 H 0.67106 0.90876 0.80687 0.0
H1851 H 0.65662 0.94319 0.79566 0.0
H1852 H 0.70562 0.95094 0.74772 0.0
C1853 C 0.74249 0.87882 0.77775 0.0
C1854 C 0.74131 0.86372 0.79472 0.0
C1855 C 0.72331 0.86313 0.80815 0.0
C1856 C 0.70703 0.87768 0.80511 0.0
C1857 C 0.70891 0.89268 0.78851 0.0
C1858 C 0.72615 0.89329 0.775 0.0
C1859 C 0.7254 0.91209 0.75958 0.0
C1860 C 0.74612 0.92719 0.76258 0.0
C1861 C 0.72195 0.90446 0.73618 0.0
C1862 C 0.70543 0.92232 0.76696 0.0
C1863 C 0.69596 0.91074 0.78345 0.0
C1864 C 0.67815 0.91781 0.79375 0.0
C1865 C 0.67007 0.93742 0.78728 0.0
C1866 C 0.67989 0.94982 0.77075 0.0
C1867 C 0.69752 0.94182 0.76023 0.0
H1868 H 0.65344 0.51852 0.98025 0.0
H1869 H 0.60344 0.52843 0.02542 0.0
H1870 H 0.62491 0.56034 0.03928 0.0
H1871 H 0.70053 0.5363 0.01732 0.0
H1872 H 0.71553 0.54875 0.99584 0.0
H1873 H 0.69704 0.52567 0.99046 0.0
H1874 H 0.67653 0.54683 0.96071 0.0
H1875 H 0.69483 0.56998 0.96606 0.0
H1876 H 0.66576 0.57187 0.9673 0.0
H1877 H 0.64916 0.59324 0.04521 0.0
H1878 H 0.67633 0.62408 0.0446 0.0
H1879 H 0.71248 0.59188 0.998 0.0
C1880 C 0.64724 0.52705 0.99343 0.0
C1881 C 0.62657 0.52099 0.00157 0.0
C1882 C 0.61896 0.53293 0.01857 0.0
C1883 C 0.63114 0.55099 0.02672 0.0
C1884 C 0.65114 0.55678 0.018 0.0
C1885 C 0.65934 0.54503 0.00196 0.0
C1886 C 0.68092 0.5553 0.99485 0.0
C1887 C 0.69961 0.54063 0.99993 0.0
C1888 C 0.6794 0.56135 0.97081 0.0
C1889 C 0.68319 0.57498 0.00895 0.0
C1890 C 0.66579 0.57545 0.02218 0.0
C1891 C 0.66311 0.59285 0.0353 0.0
C1892 C 0.67854 0.61029 0.0348 0.0
C1893 C 0.69655 0.6101 0.02152 0.0
C1894 C 0.6991 0.5921 0.00868 0.0
H1895 H 0.26899 0.61518 0.22995 0.0
H1896 H 0.23682 0.67274 0.2436 0.0
H1897 H 0.20337 0.65071 0.25194 0.0
H1898 H 0.22171 0.58662 0.20397 0.0
H1899 H 0.22872 0.56115 0.21501 0.0
H1900 H 0.24995 0.58154 0.20993 0.0
H1901 H 0.26446 0.57928 0.24971 0.0
H1902 H 0.24338 0.55883 0.25487 0.0
H1903 H 0.24609 0.58269 0.27094 0.0
H1904 H 0.17366 0.62192 0.25979 0.0
H1905 H 0.15078 0.58893 0.26723 0.0
H1906 H 0.20241 0.55089 0.24685 0.0
C1907 C 0.25485 0.62324 0.2344 0.0
C1908 C 0.25557 0.64573 0.23607 0.0
C1909 C 0.23679 0.65553 0.24245 0.0
C1910 C 0.21764 0.64316 0.24703 0.0
C1911 C 0.2175 0.62104 0.24505 0.0
C1912 C 0.23564 0.61121 0.23887 0.0
C1913 C 0.23155 0.58718 0.23838 0.0
C1914 C 0.23307 0.57863 0.21545 0.0
C1915 C 0.2473 0.57637 0.25443 0.0
C1916 C 0.20833 0.58496 0.24549 0.0
C1917 C 0.20043 0.60463 0.24921 0.0
C1918 C 0.17963 0.60645 0.25675 0.0
C1919 C 0.16674 0.58764 0.26089 0.0
C1920 C 0.17472 0.56735 0.25744 0.0
C1921 C 0.19567 0.56613 0.24934 0.0
H1922 H 0.90514 0.5709 0.02843 0.0
H1923 H 0.87884 0.50505 0.02975 0.0
H1924 H 0.84133 0.51729 0.02953 0.0
H1925 H 0.86667 0.59258 0.06241 0.0
H1926 H 0.86493 0.61704 0.04715 0.0
H1927 H 0.88961 0.60302 0.04766 0.0
H1928 H 0.88729 0.60156 0.00597 0.0
H1929 H 0.86258 0.61553 0.00534 0.0
H1930 H 0.8628 0.59006 0.99223 0.0
H1931 H 0.80681 0.53683 0.03027 0.0
H1932 H 0.77766 0.56215 0.03025 0.0
H1933 H 0.82649 0.61523 0.02679 0.0
C1934 C 0.89146 0.5591 0.02879 0.0
C1935 C 0.8948 0.53705 0.02921 0.0
C1936 C 0.87654 0.52202 0.02935 0.0
C1937 C 0.85523 0.52882 0.02929 0.0
C1938 C 0.85247 0.5507 0.02883 0.0
C1939 C 0.87007 0.56561 0.02841 0.0
C1940 C 0.86262 0.58815 0.02746 0.0
C1941 C 0.87148 0.60095 0.04736 0.0
C1942 C 0.86921 0.59949 0.0065 0.0
C1943 C 0.83809 0.5836 0.02767 0.0
C1944 C 0.83257 0.56191 0.02855 0.0
C1945 C 0.81093 0.55385 0.02945 0.0
C1946 C 0.79449 0.56835 0.02946 0.0
C1947 C 0.79976 0.59066 0.0284 0.0
C1948 C 0.82189 0.59828 0.0274 0.0
H1949 H 0.11053 0.95086 0.03481 0.0
H1950 H 0.12252 0.98275 0.97387 0.0
H1951 H 0.1458 0.95401 0.96423 0.0
H1952 H 0.16276 0.9343 0.04535 0.0
H1953 H 0.15418 0.90885 0.05694 0.0
H1954 H 0.13707 0.93093 0.05819 0.0
H1955 H 0.10484 0.90827 0.03946 0.0
H1956 H 0.12182 0.886 0.0383 0.0
H1957 H 0.10859 0.89586 0.01401 0.0
H1958 H 0.17051 0.92323 0.96284 0.0
H1959 H 0.19321 0.8924 0.96933 0.0
H1960 H 0.16339 0.88042 0.03046 0.0
C1961 C 0.11749 0.95157 0.01916 0.0
C1962 C 0.11463 0.96911 0.00511 0.0
C1963 C 0.12464 0.96961 0.98503 0.0
C1964 C 0.13778 0.95329 0.97934 0.0
C1965 C 0.14058 0.93645 0.9938 0.0
C1966 C 0.1305 0.93539 0.01319 0.0
C1967 C 0.13685 0.91617 0.02634 0.0
C1968 C 0.1484 0.92298 0.04797 0.0
C1969 C 0.11683 0.90066 0.02972 0.0
C1970 C 0.15246 0.90682 0.01156 0.0
C1971 C 0.1544 0.91865 0.99282 0.0
C1972 C 0.16888 0.91367 0.97732 0.0
C1973 C 0.18174 0.89618 0.98116 0.0
C1974 C 0.17997 0.88391 0.00031 0.0
C1975 C 0.16495 0.88928 0.01552 0.0
loop_
_geom_bond_atom_site_label_1
_geom_bond_atom_site_label_2
_geom_bond_distance
_geom_bond_site_symmetry_2
_ccdc_geom_bond_type
P0 O11 1.490 . S
P0 C14 1.812 . S
P0 C20 1.803 . S
P0 C26 1.819 . S
H1 C15 0.941 . S
H2 C16 0.939 . S
H3 C18 0.940 . S
H4 C19 0.940 . S
H5 C21 0.939 . S
H6 C22 0.942 . S
H7 C24 0.940 . S
H8 C25 0.939 . S
H9 C27 0.941 . S
H10 C31 0.939 . S
O11 P0 1.490 . S
H12 C28 0.939 . S
H13 C30 0.940 . S
C14 P0 1.812 . S
C14 C15 1.389 . S
C14 C19 1.391 . S
C15 H1 0.941 . S
C15 C14 1.389 . S
C15 C16 1.397 . S
C16 H2 0.939 . S
C16 C15 1.397 . S
C16 C17 1.378 1_455 S
C17 C16 1.378 1_655 S
C17 C18 1.378 . S
C18 H3 0.940 . S
C18 C17 1.378 . S
C18 C19 1.396 1_655 S
C19 H4 0.940 . S
C19 C14 1.391 . S
C19 C18 1.396 1_455 S
C20 P0 1.803 . S
C20 C21 1.378 . S
C20 C25 1.400 . S
C21 H5 0.939 . S
C21 C20 1.378 . S
C21 C22 1.361 . S
C22 H6 0.942 . S
C22 C21 1.361 . S
C22 C23 1.369 1_545 S
C23 C22 1.369 1_565 S
C23 C24 1.404 . S
C24 H7 0.940 . S
C24 C23 1.404 . S
C24 C25 1.389 1_565 S
C25 H8 0.939 . S
C25 C20 1.400 . S
C25 C24 1.389 1_545 S
C26 P0 1.819 . S
C26 C27 1.391 . S
C26 C31 1.391 . S
C27 H9 0.941 . S
C27 C26 1.391 . S
C27 C28 1.396 . S
C28 H12 0.939 . S
C28 C27 1.396 . S
C28 C29 1.397 1_554 S
C29 C28 1.397 1_556 S
C29 C30 1.385 . S
C30 H13 0.940 . S
C30 C29 1.385 . S
C30 C31 1.388 1_556 S
C31 H10 0.939 . S
C31 C26 1.391 . S
C31 C30 1.388 1_554 S
P32 O43 1.490 . S
P32 C46 1.812 . S
P32 C52 1.803 . S
P32 C58 1.819 . S
H33 C47 0.941 . S
H34 C48 0.939 . S
H35 C50 0.940 . S
H36 C51 0.940 . S
H37 C53 0.939 . S
H38 C54 0.942 . S
H39 C56 0.940 . S
H40 C57 0.939 . S
H41 C59 0.941 . S
H42 C63 0.939 . S
O43 P32 1.490 . S
H44 C60 0.939 . S
H45 C62 0.940 . S
C46 P32 1.812 . S
C46 C47 1.389 . S
C46 C51 1.391 . S
C47 H33 0.941 . S
C47 C46 1.389 . S
C47 C48 1.397 . S
C48 H34 0.939 . S
C48 C47 1.397 . S
C48 C49 1.378 . S
C49 C48 1.378 . S
C49 C50 1.378 . S
C50 H35 0.940 . S
C50 C49 1.378 . S
C50 C51 1.396 . S
C51 H36 0.940 . S
C51 C46 1.391 . S
C51 C50 1.396 . S
C52 P32 1.803 . S
C52 C53 1.378 . S
C52 C57 1.400 . S
C53 H37 0.939 . S
C53 C52 1.378 . S
C53 C54 1.361 . S
C54 H38 0.942 . S
C54 C53 1.361 . S
C54 C55 1.369 . S
C55 C54 1.369 . S
C55 C56 1.404 . S
C56 H39 0.940 . S
C56 C55 1.404 . S
C56 C57 1.389 . S
C57 H40 0.939 . S
C57 C52 1.400 . S
C57 C56 1.389 . S
C58 P32 1.819 . S
C58 C59 1.391 . S
C58 C63 1.391 . S
C59 H41 0.941 . S
C59 C58 1.391 . S
C59 C60 1.396 . S
C60 H44 0.939 . S
C60 C59 1.396 . S
C60 C61 1.397 . S
C61 C60 1.397 . S
C61 C62 1.385 . S
C62 H45 0.940 . S
C62 C61 1.385 . S
C62 C63 1.388 . S
C63 H42 0.939 . S
C63 C58 1.391 . S
C63 C62 1.388 . S
P64 O75 1.490 1_655 S
P64 C78 1.812 . S
P64 C84 1.803 . S
P64 C90 1.819 1_655 S
H65 C79 0.935 1_455 S
H66 C80 0.935 1_455 S
H67 C82 0.940 . S
H68 C83 0.940 . S
H69 C85 0.939 . S
H70 C86 0.942 . S
H71 C88 0.940 . S
H72 C89 0.939 . S
H73 C91 0.941 . S
H74 C95 0.939 . S
O75 P64 1.490 1_455 S
H76 C92 0.939 . S
H77 C94 0.940 1_655 S
C78 P64 1.812 . S
C78 C79 1.396 1_554 S
C78 C83 1.391 . S
C79 H65 0.935 1_655 S
C79 C78 1.396 1_556 S
C79 C80 1.396 . S
C80 H66 0.935 1_655 S
C80 C79 1.396 . S
C80 C81 1.378 1_556 S
C81 C80 1.378 1_554 S
C81 C82 1.378 . S
C82 H67 0.940 . S
C82 C81 1.378 . S
C82 C83 1.396 . S
C83 H68 0.940 . S
C83 C78 1.391 . S
C83 C82 1.396 . S
C84 P64 1.803 . S
C84 C85 1.378 . S
C84 C89 1.400 . S
C85 H69 0.939 . S
C85 C84 1.378 . S
C85 C86 1.361 . S
C86 H70 0.942 . S
C86 C85 1.361 . S
C86 C87 1.369 . S
C87 C86 1.369 . S
C87 C88 1.404 . S
C88 H71 0.940 . S
C88 C87 1.404 . S
C88 C89 1.389 . S
C89 H72 0.939 . S
C89 C84 1.400 . S
C89 C88 1.389 . S
C90 P64 1.819 1_455 S
C90 C91 1.391 . S
C90 C95 1.391 1_455 S
C91 H73 0.941 . S
C91 C90 1.391 . S
C91 C92 1.396 . S
C92 H76 0.939 . S
C92 C91 1.396 . S
C92 C93 1.397 . S
C93 C92 1.397 . S
C93 C94 1.385 . S
C94 H77 0.940 1_455 S
C94 C93 1.385 . S
C94 C95 1.388 1_455 S
C95 H74 0.939 . S
C95 C90 1.391 1_655 S
C95 C94 1.388 1_655 S
P96 O107 1.490 . S
P96 C110 1.812 . S
P96 C116 1.803 . S
P96 C122 1.819 . S
H97 C111 0.941 . S
H98 C112 0.939 . S
H99 C114 0.940 . S
H100 C115 0.940 . S
H101 C117 0.939 . S
H102 C118 0.942 . S
H103 C120 0.940 . S
H104 C121 0.939 . S
H105 C123 0.941 . S
H106 C127 0.939 . S
O107 P96 1.490 . S
H108 C124 0.939 . S
H109 C126 0.940 . S
C110 P96 1.812 . S
C110 C111 1.389 . S
C110 C115 1.391 . S
C111 H97 0.941 . S
C111 C110 1.389 . S
C111 C112 1.397 . S
C112 H98 0.939 . S
C112 C111 1.397 . S
C112 C113 1.378 . S
C113 C112 1.378 . S
C113 C114 1.378 . S
C114 H99 0.940 . S
C114 C113 1.378 . S
C114 C115 1.396 . S
C115 H100 0.940 . S
C115 C110 1.391 . S
C115 C114 1.396 . S
C116 P96 1.803 . S
C116 C117 1.378 . S
C116 C121 1.400 . S
C117 H101 0.939 . S
C117 C116 1.378 . S
C117 C118 1.361 . S
C118 H102 0.942 . S
C118 C117 1.361 . S
C118 C119 1.369 . S
C119 C118 1.369 . S
C119 C120 1.404 . S
C120 H103 0.940 . S
C120 C119 1.404 . S
C120 C121 1.389 . S
C121 H104 0.939 . S
C121 C116 1.400 . S
C121 C120 1.389 . S
C122 P96 1.819 . S
C122 C123 1.391 . S
C122 C127 1.391 . S
C123 H105 0.941 . S
C123 C122 1.391 . S
C123 C124 1.396 . S
C124 H108 0.939 . S
C124 C123 1.396 . S
C124 C125 1.397 . S
C125 C124 1.397 . S
C125 C126 1.385 . S
C126 H109 0.940 . S
C126 C125 1.385 . S
C126 C127 1.388 . S
C127 H106 0.939 . S
C127 C122 1.391 . S
C127 C126 1.388 . S
P128 O139 1.490 . S
P128 C142 1.812 . S
P128 C148 1.803 . S
P128 C154 1.819 . S
H129 C143 0.941 . S
H130 C144 0.939 . S
H131 C146 0.940 . S
H132 C147 0.940 . S
H133 C149 0.939 . S
H134 C150 0.942 . S
H135 C152 0.940 . S
H136 C153 0.939 . S
H137 C155 0.941 . S
H138 C159 0.939 . S
O139 P128 1.490 . S
H140 C156 0.939 . S
H141 C158 0.940 1_655 S
C142 P128 1.812 . S
C142 C143 1.389 . S
C142 C147 1.391 . S
C143 H129 0.941 . S
C143 C142 1.389 . S
C143 C144 1.397 . S
C144 H130 0.939 . S
C144 C143 1.397 . S
C144 C145 1.378 1_565 S
C145 C144 1.378 1_545 S
C145 C146 1.378 . S
C146 H131 0.940 . S
C146 C145 1.378 . S
C146 C147 1.396 1_545 S
C147 H132 0.940 . S
C147 C142 1.391 . S
C147 C146 1.396 1_565 S
C148 P128 1.803 . S
C148 C149 1.378 . S
C148 C153 1.400 . S
C149 H133 0.939 . S
C149 C148 1.378 . S
C149 C150 1.361 . S
C150 H134 0.942 . S
C150 C149 1.361 . S
C150 C151 1.369 . S
C151 C150 1.369 . S
C151 C152 1.404 . S
C152 H135 0.940 . S
C152 C151 1.404 . S
C152 C153 1.389 . S
C153 H136 0.939 . S
C153 C148 1.400 . S
C153 C152 1.389 . S
C154 P128 1.819 . S
C154 C155 1.391 . S
C154 C159 1.391 . S
C155 H137 0.941 . S
C155 C154 1.391 . S
C155 C156 1.396 . S
C156 H140 0.939 . S
C156 C155 1.396 . S
C156 C157 1.397 . S
C157 C156 1.397 . S
C157 C158 1.385 . S
C158 H141 0.940 1_455 S
C158 C157 1.385 . S
C158 C159 1.388 . S
C159 H138 0.939 . S
C159 C154 1.391 . S
C159 C158 1.388 . S
P160 O171 1.490 . S
P160 C174 1.812 . S
P160 C180 1.803 . S
P160 C186 1.819 . S
H161 C175 0.941 . S
H162 C176 0.939 . S
H163 C178 0.940 . S
H164 C179 0.940 . S
H165 C181 0.939 . S
H166 C182 0.942 . S
H167 C184 0.940 . S
H168 C185 0.939 . S
H169 C187 0.941 . S
H170 C191 0.939 . S
O171 P160 1.490 . S
H172 C188 0.939 . S
H173 C190 0.940 . S
C174 P160 1.812 . S
C174 C175 1.389 . S
C174 C179 1.391 . S
C175 H161 0.941 . S
C175 C174 1.389 . S
C175 C176 1.397 . S
C176 H162 0.939 . S
C176 C175 1.397 . S
C176 C177 1.378 . S
C177 C176 1.378 . S
C177 C178 1.378 . S
C178 H163 0.940 . S
C178 C177 1.378 . S
C178 C179 1.396 . S
C179 H164 0.940 . S
C179 C174 1.391 . S
C179 C178 1.396 . S
C180 P160 1.803 . S
C180 C181 1.378 . S
C180 C185 1.400 . S
C181 H165 0.939 . S
C181 C180 1.378 . S
C181 C182 1.361 . S
C182 H166 0.942 . S
C182 C181 1.361 . S
C182 C183 1.369 . S
C183 C182 1.369 . S
C183 C184 1.404 . S
C184 H167 0.940 . S
C184 C183 1.404 . S
C184 C185 1.389 . S
C185 H168 0.939 . S
C185 C180 1.400 . S
C185 C184 1.389 . S
C186 P160 1.819 . S
C186 C187 1.391 . S
C186 C191 1.391 . S
C187 H169 0.941 . S
C187 C186 1.391 . S
C187 C188 1.396 . S
C188 H172 0.939 . S
C188 C187 1.396 . S
C188 C189 1.397 . S
C189 C188 1.397 . S
C189 C190 1.385 . S
C190 H173 0.940 . S
C190 C189 1.385 . S
C190 C191 1.388 . S
C191 H170 0.939 . S
C191 C186 1.391 . S
C191 C190 1.388 . S
P192 O203 1.494 . S
P192 C206 1.812 . S
P192 C212 1.803 . S
P192 C218 1.819 . S
H193 C207 0.941 . S
H194 C208 0.939 . S
H195 C210 0.940 . S
H196 C211 0.940 . S
H197 C213 0.939 . S
H198 C214 0.942 . S
H199 C216 0.940 . S
H200 C217 0.939 . S
H201 C219 0.941 . S
H202 C223 0.939 . S
O203 P192 1.494 . S
H204 C220 0.939 . S
H205 C222 0.940 . S
C206 P192 1.812 . S
C206 C207 1.389 1_655 S
C206 C211 1.391 . S
C207 H193 0.941 . S
C207 C206 1.389 1_455 S
C207 C208 1.397 . S
C208 H194 0.939 . S
C208 C207 1.397 . S
C208 C209 1.378 . S
C209 C208 1.378 . S
C209 C210 1.378 1_455 S
C210 H195 0.940 . S
C210 C209 1.378 1_655 S
C210 C211 1.396 . S
C211 H196 0.940 . S
C211 C206 1.391 . S
C211 C210 1.396 . S
C212 P192 1.803 . S
C212 C213 1.378 . S
C212 C217 1.400 . S
C213 H197 0.939 . S
C213 C212 1.378 . S
C213 C214 1.361 . S
C214 H198 0.942 . S
C214 C213 1.361 . S
C214 C215 1.369 . S
C215 C214 1.369 . S
C215 C216 1.404 . S
C216 H199 0.940 . S
C216 C215 1.404 . S
C216 C217 1.389 . S
C217 H200 0.939 . S
C217 C212 1.400 . S
C217 C216 1.389 . S
C218 P192 1.819 . S
C218 C219 1.391 . S
C218 C223 1.391 . S
C219 H201 0.941 . S
C219 C218 1.391 . S
C219 C220 1.396 . S
C220 H204 0.939 . S
C220 C219 1.396 . S
C220 C221 1.397 . S
C221 C220 1.397 . S
C221 C222 1.385 . S
C222 H205 0.940 . S
C222 C221 1.385 . S
C222 C223 1.388 . S
C223 H202 0.939 . S
C223 C218 1.391 . S
C223 C222 1.388 . S
P224 O235 1.490 . S
P224 C238 1.812 . S
P224 C244 1.803 . S
P224 C250 1.819 . S
H225 C239 0.941 . S
H226 C240 0.939 . S
H227 C242 0.940 . S
H228 C243 0.940 . S
H229 C245 0.939 . S
H230 C246 0.942 . S
H231 C248 0.940 . S
H232 C249 0.939 . S
H233 C251 0.941 . S
H234 C255 0.939 . S
O235 P224 1.490 . S
H236 C252 0.939 . S
H237 C254 0.940 . S
C238 P224 1.812 . S
C238 C239 1.389 . S
C238 C243 1.391 . S
C239 H225 0.941 . S
C239 C238 1.389 . S
C239 C240 1.397 . S
C240 H226 0.939 . S
C240 C239 1.397 . S
C240 C241 1.378 . S
C241 C240 1.378 . S
C241 C242 1.378 . S
C242 H227 0.940 . S
C242 C241 1.378 . S
C242 C243 1.396 . S
C243 H228 0.940 . S
C243 C238 1.391 . S
C243 C242 1.396 . S
C244 P224 1.803 . S
C244 C245 1.378 . S
C244 C249 1.400 . S
C245 H229 0.939 . S
C245 C244 1.378 . S
C245 C246 1.361 . S
C246 H230 0.942 . S
C246 C245 1.361 . S
C246 C247 1.369 . S
C247 C246 1.369 . S
C247 C248 1.404 . S
C248 H231 0.940 . S
C248 C247 1.404 . S
C248 C249 1.389 . S
C249 H232 0.939 . S
C249 C244 1.400 . S
C249 C248 1.389 . S
C250 P224 1.819 . S
C250 C251 1.391 . S
C250 C255 1.391 . S
C251 H233 0.941 . S
C251 C250 1.391 . S
C251 C252 1.396 . S
C252 H236 0.939 . S
C252 C251 1.396 . S
C252 C253 1.397 . S
C253 C252 1.397 . S
C253 C254 1.385 . S
C254 H237 0.940 . S
C254 C253 1.385 . S
C254 C255 1.388 . S
C255 H234 0.939 . S
C255 C250 1.391 . S
C255 C254 1.388 . S
P256 O267 1.490 . S
P256 C270 1.812 . S
P256 C276 1.803 . S
P256 C282 1.819 . S
H257 C271 0.941 . S
H258 C272 0.939 . S
H259 C274 0.940 . S
H260 C275 0.940 . S
H261 C277 0.939 . S
H262 C278 0.942 . S
H263 C280 0.940 . S
H264 C281 0.939 . S
H265 C283 0.941 . S
H266 C287 0.939 . S
O267 P256 1.490 . S
H268 C284 0.939 . S
H269 C286 0.940 . S
C270 P256 1.812 . S
C270 C271 1.389 . S
C270 C275 1.391 . S
C271 H257 0.941 . S
C271 C270 1.389 . S
C271 C272 1.397 . S
C272 H258 0.939 . S
C272 C271 1.397 . S
C272 C273 1.378 . S
C273 C272 1.378 . S
C273 C274 1.378 . S
C274 H259 0.940 . S
C274 C273 1.378 . S
C274 C275 1.396 . S
C275 H260 0.940 . S
C275 C270 1.391 . S
C275 C274 1.396 . S
C276 P256 1.803 . S
C276 C277 1.378 . S
C276 C281 1.400 . S
C277 H261 0.939 . S
C277 C276 1.378 . S
C277 C278 1.361 . S
C278 H262 0.942 . S
C278 C277 1.361 . S
C278 C279 1.369 . S
C279 C278 1.369 . S
C279 C280 1.404 . S
C280 H263 0.940 . S
C280 C279 1.404 . S
C280 C281 1.389 . S
C281 H264 0.939 . S
C281 C276 1.400 . S
C281 C280 1.389 . S
C282 P256 1.819 . S
C282 C283 1.391 . S
C282 C287 1.391 . S
C283 H265 0.941 . S
C283 C282 1.391 . S
C283 C284 1.396 . S
C284 H268 0.939 . S
C284 C283 1.396 . S
C284 C285 1.397 . S
C285 C284 1.397 . S
C285 C286 1.385 . S
C286 H269 0.940 . S
C286 C285 1.385 . S
C286 C287 1.388 . S
C287 H266 0.939 . S
C287 C282 1.391 . S
C287 C286 1.388 . S
P288 O299 1.490 1_565 S
P288 C302 1.812 . S
P288 C308 1.803 . S
P288 C314 1.819 . S
H289 C303 0.941 . S
H290 C304 0.939 . S
H291 C306 0.940 . S
H292 C307 0.940 . S
H293 C309 0.939 . S
H294 C310 0.942 . S
H295 C312 0.940 . S
H296 C313 0.939 . S
H297 C315 0.941 . S
H298 C319 0.939 . S
O299 P288 1.490 1_545 S
H300 C316 0.939 . S
H301 C318 0.940 . S
C302 P288 1.812 . S
C302 C303 1.389 . S
C302 C307 1.391 . S
C303 H289 0.941 . S
C303 C302 1.389 . S
C303 C304 1.397 . S
C304 H290 0.939 . S
C304 C303 1.397 . S
C304 C305 1.378 . S
C305 C304 1.378 . S
C305 C306 1.378 . S
C306 H291 0.940 . S
C306 C305 1.378 . S
C306 C307 1.396 . S
C307 H292 0.940 . S
C307 C302 1.391 . S
C307 C306 1.396 . S
C308 P288 1.803 . S
C308 C309 1.378 1_565 S
C308 C313 1.400 . S
C309 H293 0.939 . S
C309 C308 1.378 1_545 S
C309 C310 1.361 . S
C310 H294 0.942 . S
C310 C309 1.361 . S
C310 C311 1.369 . S
C311 C310 1.369 . S
C311 C312 1.404 1_545 S
C312 H295 0.940 . S
C312 C311 1.404 1_565 S
C312 C313 1.389 . S
C313 H296 0.939 . S
C313 C308 1.400 . S
C313 C312 1.389 . S
C314 P288 1.819 . S
C314 C315 1.391 . S
C314 C319 1.391 . S
C315 H297 0.941 . S
C315 C314 1.391 . S
C315 C316 1.396 . S
C316 H300 0.939 . S
C316 C315 1.396 . S
C316 C317 1.397 . S
C317 C316 1.397 . S
C317 C318 1.385 . S
C318 H301 0.940 . S
C318 C317 1.385 . S
C318 C319 1.388 . S
C319 H298 0.939 . S
C319 C314 1.391 . S
C319 C318 1.388 . S
P320 O331 1.490 . S
P320 C334 1.812 . S
P320 C340 1.803 . S
P320 C346 1.819 . S
H321 C335 0.941 . S
H322 C336 0.939 . S
H323 C338 0.940 . S
H324 C339 0.940 . S
H325 C341 0.939 . S
H326 C342 0.942 . S
H327 C344 0.940 . S
H328 C345 0.939 . S
H329 C347 0.941 . S
H330 C351 0.939 . S
O331 P320 1.490 . S
H332 C348 0.939 . S
H333 C350 0.940 . S
C334 P320 1.812 . S
C334 C335 1.389 . S
C334 C339 1.391 . S
C335 H321 0.941 . S
C335 C334 1.389 . S
C335 C336 1.397 . S
C336 H322 0.939 . S
C336 C335 1.397 . S
C336 C337 1.378 . S
C337 C336 1.378 . S
C337 C338 1.378 . S
C338 H323 0.940 . S
C338 C337 1.378 . S
C338 C339 1.396 . S
C339 H324 0.940 . S
C339 C334 1.391 . S
C339 C338 1.396 . S
C340 P320 1.803 . S
C340 C341 1.378 . S
C340 C345 1.400 . S
C341 H325 0.939 . S
C341 C340 1.378 . S
C341 C342 1.361 . S
C342 H326 0.942 . S
C342 C341 1.361 . S
C342 C343 1.369 . S
C343 C342 1.369 . S
C343 C344 1.404 . S
C344 H327 0.940 . S
C344 C343 1.404 . S
C344 C345 1.389 . S
C345 H328 0.939 . S
C345 C340 1.400 . S
C345 C344 1.389 . S
C346 P320 1.819 . S
C346 C347 1.391 . S
C346 C351 1.391 . S
C347 H329 0.941 . S
C347 C346 1.391 . S
C347 C348 1.396 . S
C348 H332 0.939 . S
C348 C347 1.396 . S
C348 C349 1.397 . S
C349 C348 1.397 . S
C349 C350 1.385 . S
C350 H333 0.940 . S
C350 C349 1.385 . S
C350 C351 1.388 . S
C351 H330 0.939 . S
C351 C346 1.391 . S
C351 C350 1.388 . S
P352 O363 1.490 . S
P352 C366 1.812 . S
P352 C372 1.803 . S
P352 C378 1.819 . S
H353 C367 0.941 . S
H354 C368 0.939 . S
H355 C370 0.940 . S
H356 C371 0.940 . S
H357 C373 0.939 . S
H358 C374 0.942 . S
H359 C376 0.940 . S
H360 C377 0.939 . S
H361 C379 0.941 . S
H362 C383 0.939 . S
O363 P352 1.490 . S
H364 C380 0.939 . S
H365 C382 0.940 . S
C366 P352 1.812 . S
C366 C367 1.389 . S
C366 C371 1.391 . S
C367 H353 0.941 . S
C367 C366 1.389 . S
C367 C368 1.397 . S
C368 H354 0.939 . S
C368 C367 1.397 . S
C368 C369 1.378 . S
C369 C368 1.378 . S
C369 C370 1.378 . S
C370 H355 0.940 . S
C370 C369 1.378 . S
C370 C371 1.396 . S
C371 H356 0.940 . S
C371 C366 1.391 . S
C371 C370 1.396 . S
C372 P352 1.803 . S
C372 C373 1.378 . S
C372 C377 1.400 . S
C373 H357 0.939 . S
C373 C372 1.378 . S
C373 C374 1.361 . S
C374 H358 0.942 . S
C374 C373 1.361 . S
C374 C375 1.369 . S
C375 C374 1.369 . S
C375 C376 1.404 . S
C376 H359 0.940 . S
C376 C375 1.404 . S
C376 C377 1.389 . S
C377 H360 0.939 . S
C377 C372 1.400 . S
C377 C376 1.389 . S
C378 P352 1.819 . S
C378 C379 1.391 . S
C378 C383 1.391 . S
C379 H361 0.941 . S
C379 C378 1.391 . S
C379 C380 1.396 . S
C380 H364 0.939 . S
C380 C379 1.396 . S
C380 C381 1.397 . S
C381 C380 1.397 . S
C381 C382 1.385 . S
C382 H365 0.940 . S
C382 C381 1.385 . S
C382 C383 1.388 . S
C383 H362 0.939 . S
C383 C378 1.391 . S
C383 C382 1.388 . S
P384 O395 1.490 . S
P384 C398 1.812 . S
P384 C404 1.803 . S
P384 C410 1.819 . S
H385 C399 0.941 . S
H386 C400 0.939 . S
H387 C402 0.940 . S
H388 C403 0.940 . S
H389 C405 0.939 . S
H390 C406 0.942 . S
H391 C408 0.940 . S
H392 C409 0.939 . S
H393 C411 0.941 . S
H394 C415 0.939 . S
O395 P384 1.490 . S
H396 C412 0.939 . S
H397 C414 0.940 . S
C398 P384 1.812 . S
C398 C399 1.389 . S
C398 C403 1.391 . S
C399 H385 0.941 . S
C399 C398 1.389 . S
C399 C400 1.397 . S
C400 H386 0.939 . S
C400 C399 1.397 . S
C400 C401 1.378 . S
C401 C400 1.378 . S
C401 C402 1.378 . S
C402 H387 0.940 . S
C402 C401 1.378 . S
C402 C403 1.396 . S
C403 H388 0.940 . S
C403 C398 1.391 . S
C403 C402 1.396 . S
C404 P384 1.803 . S
C404 C405 1.378 . S
C404 C409 1.400 . S
C405 H389 0.939 . S
C405 C404 1.378 . S
C405 C406 1.361 . S
C406 H390 0.942 . S
C406 C405 1.361 . S
C406 C407 1.369 . S
C407 C406 1.369 . S
C407 C408 1.404 . S
C408 H391 0.940 . S
C408 C407 1.404 . S
C408 C409 1.389 . S
C409 H392 0.939 . S
C409 C404 1.400 . S
C409 C408 1.389 . S
C410 P384 1.819 . S
C410 C411 1.391 . S
C410 C415 1.391 . S
C411 H393 0.941 . S
C411 C410 1.391 . S
C411 C412 1.396 . S
C412 H396 0.939 . S
C412 C411 1.396 . S
C412 C413 1.397 . S
C413 C412 1.397 . S
C413 C414 1.385 . S
C414 H397 0.940 . S
C414 C413 1.385 . S
C414 C415 1.388 . S
C415 H394 0.939 . S
C415 C410 1.391 . S
C415 C414 1.388 . S
P416 O427 1.490 . S
P416 C430 1.812 . S
P416 C436 1.803 . S
P416 C442 1.819 . S
H417 C431 0.941 . S
H418 C432 0.939 . S
H419 C434 0.940 . S
H420 C435 0.940 . S
H421 C437 0.939 . S
H422 C438 0.942 . S
H423 C440 0.940 . S
H424 C441 0.939 . S
H425 C443 0.941 . S
H426 C447 0.939 . S
O427 P416 1.490 . S
H428 C444 0.939 . S
H429 C446 0.940 . S
C430 P416 1.812 . S
C430 C431 1.389 . S
C430 C435 1.391 . S
C431 H417 0.941 . S
C431 C430 1.389 . S
C431 C432 1.397 . S
C432 H418 0.939 . S
C432 C431 1.397 . S
C432 C433 1.378 . S
C433 C432 1.378 . S
C433 C434 1.378 . S
C434 H419 0.940 . S
C434 C433 1.378 . S
C434 C435 1.396 . S
C435 H420 0.940 . S
C435 C430 1.391 . S
C435 C434 1.396 . S
C436 P416 1.803 . S
C436 C437 1.378 . S
C436 C441 1.400 . S
C437 H421 0.939 . S
C437 C436 1.378 . S
C437 C438 1.361 . S
C438 H422 0.942 . S
C438 C437 1.361 . S
C438 C439 1.369 1_556 S
C439 C438 1.369 1_554 S
C439 C440 1.404 . S
C440 H423 0.940 . S
C440 C439 1.404 . S
C440 C441 1.389 1_554 S
C441 H424 0.939 . S
C441 C436 1.400 . S
C441 C440 1.389 1_556 S
C442 P416 1.819 . S
C442 C443 1.391 . S
C442 C447 1.391 . S
C443 H425 0.941 . S
C443 C442 1.391 . S
C443 C444 1.396 . S
C444 H428 0.939 . S
C444 C443 1.396 . S
C444 C445 1.397 . S
C445 C444 1.397 . S
C445 C446 1.385 . S
C446 H429 0.940 . S
C446 C445 1.385 . S
C446 C447 1.388 . S
C447 H426 0.939 . S
C447 C442 1.391 . S
C447 C446 1.388 . S
P448 O459 1.490 . S
P448 C462 1.812 . S
P448 C468 1.803 . S
P448 C474 1.819 . S
H449 C463 0.941 . S
H450 C464 0.939 . S
H451 C466 0.940 . S
H452 C467 0.940 . S
H453 C469 0.939 . S
H454 C470 0.942 . S
H455 C472 0.940 . S
H456 C473 0.939 . S
H457 C475 0.941 . S
H458 C479 0.939 . S
O459 P448 1.490 . S
H460 C476 0.939 . S
H461 C478 0.940 . S
C462 P448 1.812 . S
C462 C463 1.389 . S
C462 C467 1.391 . S
C463 H449 0.941 . S
C463 C462 1.389 . S
C463 C464 1.397 . S
C464 H450 0.939 . S
C464 C463 1.397 . S
C464 C465 1.378 . S
C465 C464 1.378 . S
C465 C466 1.378 . S
C466 H451 0.940 . S
C466 C465 1.378 . S
C466 C467 1.396 . S
C467 H452 0.940 . S
C467 C462 1.391 . S
C467 C466 1.396 . S
C468 P448 1.803 . S
C468 C469 1.378 . S
C468 C473 1.400 . S
C469 H453 0.939 . S
C469 C468 1.378 . S
C469 C470 1.361 . S
C470 H454 0.942 . S
C470 C469 1.361 . S
C470 C471 1.369 . S
C471 C470 1.369 . S
C471 C472 1.404 . S
C472 H455 0.940 . S
C472 C471 1.404 . S
C472 C473 1.389 . S
C473 H456 0.939 . S
C473 C468 1.400 . S
C473 C472 1.389 . S
C474 P448 1.819 . S
C474 C475 1.391 . S
C474 C479 1.391 . S
C475 H457 0.941 . S
C475 C474 1.391 . S
C475 C476 1.396 . S
C476 H460 0.939 . S
C476 C475 1.396 . S
C476 C477 1.397 . S
C477 C476 1.397 . S
C477 C478 1.385 . S
C478 H461 0.940 . S
C478 C477 1.385 . S
C478 C479 1.388 . S
C479 H458 0.939 . S
C479 C474 1.391 . S
C479 C478 1.388 . S
P480 O491 1.490 1_556 S
P480 C494 1.812 . S
P480 C500 1.803 1_556 S
P480 C506 1.819 . S
H481 C495 0.941 . S
H482 C496 0.939 . S
H483 C498 0.940 . S
H484 C499 0.940 . S
H485 C501 0.939 . S
H486 C502 0.942 . S
H487 C504 0.940 . S
H488 C505 0.939 . S
H489 C507 0.941 . S
H490 C511 0.939 . S
O491 P480 1.490 1_554 S
H492 C508 0.939 . S
H493 C510 0.940 . S
C494 P480 1.812 . S
C494 C495 1.389 . S
C494 C499 1.391 . S
C495 H481 0.941 . S
C495 C494 1.389 . S
C495 C496 1.397 . S
C496 H482 0.939 . S
C496 C495 1.397 . S
C496 C497 1.378 . S
C497 C496 1.378 . S
C497 C498 1.378 . S
C498 H483 0.940 . S
C498 C497 1.378 . S
C498 C499 1.396 . S
C499 H484 0.940 . S
C499 C494 1.391 . S
C499 C498 1.396 . S
C500 P480 1.803 1_554 S
C500 C501 1.378 . S
C500 C505 1.400 1_554 S
C501 H485 0.939 . S
C501 C500 1.378 . S
C501 C502 1.361 . S
C502 H486 0.942 . S
C502 C501 1.361 . S
C502 C503 1.369 . S
C503 C502 1.369 . S
C503 C504 1.404 1_554 S
C504 H487 0.940 . S
C504 C503 1.404 1_556 S
C504 C505 1.389 . S
C505 H488 0.939 . S
C505 C500 1.400 1_556 S
C505 C504 1.389 . S
C506 P480 1.819 . S
C506 C507 1.391 1_545 S
C506 C511 1.391 . S
C507 H489 0.941 . S
C507 C506 1.391 1_565 S
C507 C508 1.396 . S
C508 H492 0.939 . S
C508 C507 1.396 . S
C508 C509 1.397 . S
C509 C508 1.397 . S
C509 C510 1.385 1_565 S
C510 H493 0.940 . S
C510 C509 1.385 1_545 S
C510 C511 1.388 . S
C511 H490 0.939 . S
C511 C506 1.391 . S
C511 C510 1.388 . S
Mg512 O513 2.028 . S
Mg512 O519 1.986 1_554 S
Mg512 O521 2.114 . S
Mg512 O522 2.251 . S
Mg512 O525 2.010 . S
O513 Mg512 2.028 . S
O513 C516 1.243 1_554 S
O514 Mg515 2.028 . S
O514 C516 1.253 . S
Mg515 O514 2.028 . S
Mg515 O520 2.032 . S
Mg515 O522 2.079 1_556 S
C516 O513 1.243 1_556 S
C516 O514 1.253 . S
C517 O518 1.264 . S
C517 O525 1.249 . S
O518 C517 1.264 . S
O519 Mg512 1.986 1_556 S
O519 C523 1.246 . S
O520 Mg515 2.032 . S
O520 C523 1.259 . S
O521 Mg512 2.114 . S
O521 C524 1.252 . S
O522 Mg512 2.251 . S
O522 Mg515 2.079 1_554 S
O522 C524 1.273 . S
C523 O519 1.246 . S
C523 O520 1.259 . S
C524 O521 1.252 . S
C524 O522 1.273 . S
O525 Mg512 2.010 . S
O525 C517 1.249 . S
Mg526 O527 2.028 . S
Mg526 O533 1.986 . S
Mg526 O535 2.114 . S
Mg526 O536 2.251 . S
Mg526 O539 2.010 . S
O527 Mg526 2.028 . S
O527 C530 1.250 . S
O528 Mg529 2.028 . S
O528 C530 1.248 . S
Mg529 O528 2.028 . S
Mg529 O534 2.032 . S
Mg529 O536 2.079 . S
C530 O527 1.250 . S
C530 O528 1.248 . S
C531 O532 1.264 . S
C531 O539 1.249 . S
O532 C531 1.264 . S
O533 Mg526 1.986 . S
O533 C537 1.246 . S
O534 Mg529 2.032 . S
O534 C537 1.259 . S
O535 Mg526 2.114 . S
O535 C538 1.252 . S
O536 Mg526 2.251 . S
O536 Mg529 2.079 . S
O536 C538 1.273 . S
C537 O533 1.246 . S
C537 O534 1.259 . S
C538 O535 1.252 . S
C538 O536 1.273 . S
O539 Mg526 2.010 . S
O539 C531 1.249 . S
Mg540 O541 2.028 . S
Mg540 O547 1.986 1_554 S
Mg540 O549 2.114 . S
Mg540 O550 2.251 . S
Mg540 O553 2.010 . S
O541 Mg540 2.028 . S
O541 C544 1.250 . S
O542 Mg543 2.028 1_554 S
O542 C544 1.248 . S
Mg543 O542 2.028 1_556 S
Mg543 O548 2.032 . S
Mg543 O550 2.079 1_556 S
C544 O541 1.250 . S
C544 O542 1.248 . S
C545 O546 1.264 . S
C545 O553 1.249 . S
O546 C545 1.264 . S
O547 Mg540 1.986 1_556 S
O547 C551 1.246 . S
O548 Mg543 2.032 . S
O548 C551 1.259 . S
O549 Mg540 2.114 . S
O549 C552 1.252 . S
O550 Mg540 2.251 . S
O550 Mg543 2.079 1_554 S
O550 C552 1.273 . S
C551 O547 1.246 . S
C551 O548 1.259 . S
C552 O549 1.252 . S
C552 O550 1.273 . S
O553 Mg540 2.010 . S
O553 C545 1.249 . S
Mg554 O555 2.028 . S
Mg554 O561 1.986 . S
Mg554 O563 2.114 . S
Mg554 O564 2.251 . S
Mg554 O567 2.010 . S
O555 Mg554 2.028 . S
O555 C558 1.250 1_545 S
O556 Mg557 2.028 . S
O556 C558 1.248 . S
Mg557 O556 2.028 . S
Mg557 O562 2.032 . S
Mg557 O564 2.079 1_565 S
C558 O555 1.250 1_565 S
C558 O556 1.248 . S
C559 O560 1.264 . S
C559 O567 1.249 . S
O560 C559 1.264 . S
O561 Mg554 1.986 . S
O561 C565 1.246 . S
O562 Mg557 2.032 . S
O562 C565 1.259 1_565 S
O563 Mg554 2.114 . S
O563 C566 1.252 . S
O564 Mg554 2.251 . S
O564 Mg557 2.079 1_545 S
O564 C566 1.273 . S
C565 O561 1.246 . S
C565 O562 1.259 1_545 S
C566 O563 1.252 . S
C566 O564 1.273 . S
O567 Mg554 2.010 . S
O567 C559 1.249 . S
Mg568 O569 2.028 . S
Mg568 O575 1.986 . S
Mg568 O577 2.114 . S
Mg568 O578 2.251 . S
Mg568 O581 2.010 . S
O569 Mg568 2.028 . S
O569 C572 1.250 . S
O570 Mg571 2.028 . S
O570 C572 1.248 . S
Mg571 O570 2.028 . S
Mg571 O576 2.032 . S
Mg571 O578 2.079 . S
C572 O569 1.250 . S
C572 O570 1.248 . S
C573 O574 1.264 . S
C573 O581 1.249 . S
O574 C573 1.264 . S
O575 Mg568 1.986 . S
O575 C579 1.246 . S
O576 Mg571 2.032 . S
O576 C579 1.259 . S
O577 Mg568 2.114 . S
O577 C580 1.252 . S
O578 Mg568 2.251 . S
O578 Mg571 2.079 . S
O578 C580 1.273 . S
C579 O575 1.246 . S
C579 O576 1.259 . S
C580 O577 1.252 . S
C580 O578 1.273 . S
O581 Mg568 2.010 . S
O581 C573 1.249 . S
Mg582 O583 2.028 . S
Mg582 O589 1.986 . S
Mg582 O591 2.114 . S
Mg582 O592 2.251 . S
Mg582 O595 2.010 . S
O583 Mg582 2.028 . S
O583 C586 1.250 . S
O584 Mg585 2.028 . S
O584 C586 1.248 . S
Mg585 O584 2.028 . S
Mg585 O590 2.032 . S
Mg585 O592 2.079 . S
C586 O583 1.250 . S
C586 O584 1.248 . S
C587 O588 1.264 . S
C587 O595 1.249 . S
O588 C587 1.264 . S
O589 Mg582 1.986 . S
O589 C593 1.246 . S
O590 Mg585 2.032 . S
O590 C593 1.259 . S
O591 Mg582 2.114 . S
O591 C594 1.252 . S
O592 Mg582 2.251 . S
O592 Mg585 2.079 . S
O592 C594 1.273 . S
C593 O589 1.246 . S
C593 O590 1.259 . S
C594 O591 1.252 . S
C594 O592 1.273 . S
O595 Mg582 2.010 . S
O595 C587 1.249 . S
Mg596 O597 2.028 . S
Mg596 O603 1.986 . S
Mg596 O605 2.114 . S
Mg596 O606 2.251 . S
Mg596 O609 2.010 . S
O597 Mg596 2.028 . S
O597 C600 1.250 . S
O598 Mg599 2.028 . S
O598 C600 1.248 . S
Mg599 O598 2.028 . S
Mg599 O604 2.032 . S
Mg599 O606 2.079 . S
C600 O597 1.250 . S
C600 O598 1.248 . S
C601 O602 1.264 . S
C601 O609 1.249 . S
O602 C601 1.264 . S
O603 Mg596 1.986 . S
O603 C607 1.246 . S
O604 Mg599 2.032 . S
O604 C607 1.259 . S
O605 Mg596 2.114 . S
O605 C608 1.252 . S
O606 Mg596 2.251 . S
O606 Mg599 2.079 . S
O606 C608 1.273 . S
C607 O603 1.246 . S
C607 O604 1.259 . S
C608 O605 1.252 . S
C608 O606 1.273 . S
O609 Mg596 2.010 . S
O609 C601 1.249 . S
Mg610 O611 2.028 1_545 S
Mg610 O617 1.986 1_545 S
Mg610 O619 2.114 . S
Mg610 O620 2.251 . S
Mg610 O623 2.010 . S
O611 Mg610 2.028 1_565 S
O611 C614 1.250 . S
O612 Mg613 2.028 . S
O612 C614 1.248 . S
Mg613 O612 2.028 . S
Mg613 O618 2.032 . S
Mg613 O620 2.079 1_565 S
C614 O611 1.250 . S
C614 O612 1.248 . S
C615 O616 1.264 . S
C615 O623 1.249 . S
O616 C615 1.264 . S
O617 Mg610 1.986 1_565 S
O617 C621 1.246 . S
O618 Mg613 2.032 . S
O618 C621 1.259 . S
O619 Mg610 2.114 . S
O619 C622 1.252 . S
O620 Mg610 2.251 . S
O620 Mg613 2.079 1_545 S
O620 C622 1.273 . S
C621 O617 1.246 . S
C621 O618 1.259 . S
C622 O619 1.252 . S
C622 O620 1.273 . S
O623 Mg610 2.010 . S
O623 C615 1.249 . S
Mg624 O625 2.028 . S
Mg624 O631 1.986 . S
Mg624 O633 2.114 . S
Mg624 O634 2.251 . S
Mg624 O637 2.010 . S
O625 Mg624 2.028 . S
O625 C628 1.250 1_455 S
O626 Mg627 2.028 . S
O626 C628 1.248 . S
Mg627 O626 2.028 . S
Mg627 O632 2.032 . S
Mg627 O634 2.079 1_655 S
C628 O625 1.250 1_655 S
C628 O626 1.248 . S
C629 O630 1.264 . S
C629 O637 1.249 . S
O630 C629 1.264 . S
O631 Mg624 1.986 . S
O631 C635 1.246 . S
O632 Mg627 2.032 . S
O632 C635 1.259 1_655 S
O633 Mg624 2.114 . S
O633 C636 1.252 . S
O634 Mg624 2.251 . S
O634 Mg627 2.079 1_455 S
O634 C636 1.273 . S
C635 O631 1.246 . S
C635 O632 1.259 1_455 S
C636 O633 1.252 . S
C636 O634 1.273 . S
O637 Mg624 2.010 . S
O637 C629 1.249 . S
Mg638 O639 2.028 . S
Mg638 O645 1.986 . S
Mg638 O647 2.114 . S
Mg638 O648 2.251 . S
Mg638 O651 2.010 . S
O639 Mg638 2.028 . S
O639 C642 1.250 . S
O640 Mg641 2.028 . S
O640 C642 1.248 . S
Mg641 O640 2.028 . S
Mg641 O646 2.032 . S
Mg641 O648 2.079 . S
C642 O639 1.250 . S
C642 O640 1.248 . S
C643 O644 1.264 . S
C643 O651 1.249 . S
O644 C643 1.264 . S
O645 Mg638 1.986 . S
O645 C649 1.246 . S
O646 Mg641 2.032 . S
O646 C649 1.259 . S
O647 Mg638 2.114 . S
O647 C650 1.252 . S
O648 Mg638 2.251 . S
O648 Mg641 2.079 . S
O648 C650 1.273 . S
C649 O645 1.246 . S
C649 O646 1.259 . S
C650 O647 1.252 . S
C650 O648 1.273 . S
O651 Mg638 2.010 . S
O651 C643 1.249 . S
Mg652 O653 2.028 1_655 S
Mg652 O659 1.995 . S
Mg652 O661 2.114 . S
Mg652 O662 2.251 1_655 S
Mg652 O665 2.010 . S
O653 Mg652 2.028 1_455 S
O653 C656 1.250 . S
O654 Mg655 2.028 . S
O654 C656 1.248 . S
Mg655 O654 2.028 . S
Mg655 O660 2.032 . S
Mg655 O662 2.079 . S
C656 O653 1.250 . S
C656 O654 1.248 . S
C657 O658 1.264 . S
C657 O665 1.249 . S
O658 C657 1.264 . S
O659 Mg652 1.995 . S
O659 C663 1.220 1_655 S
O660 Mg655 2.032 . S
O660 C663 1.259 . S
O661 Mg652 2.114 . S
O661 C664 1.252 . S
O662 Mg652 2.251 1_455 S
O662 Mg655 2.079 . S
O662 C664 1.273 1_455 S
C663 O659 1.220 1_455 S
C663 O660 1.259 . S
C664 O661 1.252 . S
C664 O662 1.273 1_655 S
O665 Mg652 2.010 . S
O665 C657 1.249 . S
Mg666 O667 2.028 . S
Mg666 O673 1.986 . S
Mg666 O675 2.114 . S
Mg666 O676 2.251 . S
Mg666 O679 2.010 . S
O667 Mg666 2.028 . S
O667 C670 1.250 . S
O668 Mg669 2.028 . S
O668 C670 1.248 . S
Mg669 O668 2.028 . S
Mg669 O674 2.032 . S
Mg669 O676 2.079 . S
C670 O667 1.250 . S
C670 O668 1.248 . S
C671 O672 1.264 . S
C671 O679 1.249 . S
O672 C671 1.264 . S
O673 Mg666 1.986 . S
O673 C677 1.246 . S
O674 Mg669 2.032 . S
O674 C677 1.259 . S
O675 Mg666 2.114 . S
O675 C678 1.252 . S
O676 Mg666 2.251 . S
O676 Mg669 2.079 . S
O676 C678 1.273 . S
C677 O673 1.246 . S
C677 O674 1.259 . S
C678 O675 1.252 . S
C678 O676 1.273 . S
O679 Mg666 2.010 . S
O679 C671 1.249 . S
H680 C692 0.930 . S
H681 C694 0.930 . S
H682 C695 0.930 . S
H683 C699 0.959 . S
H684 C699 0.959 . S
H685 C699 0.961 . S
H686 C700 0.960 . S
H687 C700 0.961 . S
H688 C700 0.959 . S
H689 C703 0.929 . S
H690 C704 0.931 . S
H691 C706 0.930 . S
C692 H680 0.930 . S
C692 C693 1.399 . S
C692 C697 1.399 . S
C693 C692 1.399 . S
C693 C694 1.376 . S
C694 H681 0.930 . S
C694 C693 1.376 . S
C694 C695 1.388 . S
C695 H682 0.930 . S
C695 C694 1.388 . S
C695 C696 1.390 . S
C696 C695 1.390 . S
C696 C697 1.394 . S
C696 C702 1.465 . S
C697 C692 1.399 . S
C697 C696 1.394 . S
C697 C698 1.516 . S
C698 C697 1.516 . S
C698 C699 1.502 . S
C698 C700 1.561 . S
C698 C701 1.526 . S
C699 H683 0.959 . S
C699 H684 0.959 . S
C699 H685 0.961 . S
C699 C698 1.502 . S
C700 H686 0.960 . S
C700 H687 0.961 . S
C700 H688 0.959 . S
C700 C698 1.561 . S
C701 C698 1.526 . S
C701 C702 1.396 . S
C701 C706 1.390 . S
C702 C696 1.465 . S
C702 C701 1.396 . S
C702 C703 1.399 . S
C703 H689 0.929 . S
C703 C702 1.399 . S
C703 C704 1.385 . S
C704 H690 0.931 . S
C704 C703 1.385 . S
C704 C705 1.389 . S
C705 C704 1.389 . S
C705 C706 1.387 . S
C706 H691 0.930 . S
C706 C701 1.390 . S
C706 C705 1.387 . S
H707 C719 0.930 . S
H708 C721 0.930 . S
H709 C722 0.930 . S
H710 C726 0.959 . S
H711 C726 0.959 . S
H712 C726 0.961 . S
H713 C727 0.960 . S
H714 C727 0.961 . S
H715 C727 0.959 . S
H716 C730 0.929 . S
H717 C731 0.931 . S
H718 C733 0.930 . S
C719 H707 0.930 . S
C719 C720 1.399 . S
C719 C724 1.399 . S
C720 C719 1.399 . S
C720 C721 1.376 . S
C721 H708 0.930 . S
C721 C720 1.376 . S
C721 C722 1.388 . S
C722 H709 0.930 . S
C722 C721 1.388 . S
C722 C723 1.390 . S
C723 C722 1.390 . S
C723 C724 1.394 . S
C723 C729 1.465 . S
C724 C719 1.399 . S
C724 C723 1.394 . S
C724 C725 1.516 . S
C725 C724 1.516 . S
C725 C726 1.502 . S
C725 C727 1.561 . S
C725 C728 1.526 . S
C726 H710 0.959 . S
C726 H711 0.959 . S
C726 H712 0.961 . S
C726 C725 1.502 . S
C727 H713 0.960 . S
C727 H714 0.961 . S
C727 H715 0.959 . S
C727 C725 1.561 . S
C728 C725 1.526 . S
C728 C729 1.396 . S
C728 C733 1.390 . S
C729 C723 1.465 . S
C729 C728 1.396 . S
C729 C730 1.399 . S
C730 H716 0.929 . S
C730 C729 1.399 . S
C730 C731 1.385 . S
C731 H717 0.931 . S
C731 C730 1.385 . S
C731 C732 1.389 . S
C732 C731 1.389 . S
C732 C733 1.387 . S
C733 H718 0.930 . S
C733 C728 1.390 . S
C733 C732 1.387 . S
H734 C746 0.930 . S
H735 C748 0.930 . S
H736 C749 0.930 . S
H737 C753 0.959 . S
H738 C753 0.959 . S
H739 C753 0.961 . S
H740 C754 0.960 . S
H741 C754 0.961 . S
H742 C754 0.959 . S
H743 C757 0.929 . S
H744 C758 0.931 . S
H745 C760 0.930 . S
C746 H734 0.930 . S
C746 C747 1.399 . S
C746 C751 1.399 . S
C747 C746 1.399 . S
C747 C748 1.376 . S
C748 H735 0.930 . S
C748 C747 1.376 . S
C748 C749 1.388 . S
C749 H736 0.930 . S
C749 C748 1.388 . S
C749 C750 1.390 . S
C750 C749 1.390 . S
C750 C751 1.394 . S
C750 C756 1.465 . S
C751 C746 1.399 . S
C751 C750 1.394 . S
C751 C752 1.516 . S
C752 C751 1.516 . S
C752 C753 1.502 . S
C752 C754 1.561 . S
C752 C755 1.526 . S
C753 H737 0.959 . S
C753 H738 0.959 . S
C753 H739 0.961 . S
C753 C752 1.502 . S
C754 H740 0.960 . S
C754 H741 0.961 . S
C754 H742 0.959 . S
C754 C752 1.561 . S
C755 C752 1.526 . S
C755 C756 1.396 . S
C755 C760 1.390 . S
C756 C750 1.465 . S
C756 C755 1.396 . S
C756 C757 1.399 . S
C757 H743 0.929 . S
C757 C756 1.399 . S
C757 C758 1.385 . S
C758 H744 0.931 . S
C758 C757 1.385 . S
C758 C759 1.389 . S
C759 C758 1.389 . S
C759 C760 1.387 . S
C760 H745 0.930 . S
C760 C755 1.390 . S
C760 C759 1.387 . S
H761 C773 0.930 1_455 S
H762 C775 0.930 . S
H763 C776 0.930 . S
H764 C780 0.959 . S
H765 C780 0.959 . S
H766 C780 0.961 1_455 S
H767 C781 0.960 . S
H768 C781 0.961 . S
H769 C781 0.959 . S
H770 C784 0.929 . S
H771 C785 0.931 . S
H772 C787 0.930 . S
C773 H761 0.930 1_655 S
C773 C774 1.399 . S
C773 C778 1.399 . S
C774 C773 1.399 . S
C774 C775 1.376 1_565 S
C775 H762 0.930 . S
C775 C774 1.376 1_545 S
C775 C776 1.388 . S
C776 H763 0.930 . S
C776 C775 1.388 . S
C776 C777 1.409 . S
C777 C776 1.409 . S
C777 C778 1.362 1_545 S
C777 C783 1.475 . S
C778 C773 1.399 . S
C778 C777 1.362 1_565 S
C778 C779 1.516 . S
C779 C778 1.516 . S
C779 C780 1.502 . S
C779 C781 1.561 . S
C779 C782 1.526 . S
C780 H764 0.959 . S
C780 H765 0.959 . S
C780 H766 0.961 1_655 S
C780 C779 1.502 . S
C781 H767 0.960 . S
C781 H768 0.961 . S
C781 H769 0.959 . S
C781 C779 1.561 . S
C782 C779 1.526 . S
C782 C783 1.396 1_565 S
C782 C787 1.390 . S
C783 C777 1.475 . S
C783 C782 1.396 1_545 S
C783 C784 1.399 . S
C784 H770 0.929 . S
C784 C783 1.399 . S
C784 C785 1.385 . S
C785 H771 0.931 . S
C785 C784 1.385 . S
C785 C786 1.389 . S
C786 C785 1.389 . S
C786 C787 1.387 1_545 S
C787 H772 0.930 . S
C787 C782 1.390 . S
C787 C786 1.387 1_565 S
H788 C800 0.930 . S
H789 C802 0.930 . S
H790 C803 0.930 . S
H791 C807 0.959 . S
H792 C807 0.959 . S
H793 C807 0.961 . S
H794 C808 0.960 . S
H795 C808 0.961 . S
H796 C808 0.959 . S
H797 C811 0.929 . S
H798 C812 0.931 . S
H799 C814 0.930 . S
C800 H788 0.930 . S
C800 C801 1.399 . S
C800 C805 1.399 . S
C801 C800 1.399 . S
C801 C802 1.376 . S
C802 H789 0.930 . S
C802 C801 1.376 . S
C802 C803 1.388 . S
C803 H790 0.930 . S
C803 C802 1.388 . S
C803 C804 1.390 . S
C804 C803 1.390 . S
C804 C805 1.394 . S
C804 C810 1.465 . S
C805 C800 1.399 . S
C805 C804 1.394 . S
C805 C806 1.516 . S
C806 C805 1.516 . S
C806 C807 1.502 . S
C806 C808 1.561 . S
C806 C809 1.526 . S
C807 H791 0.959 . S
C807 H792 0.959 . S
C807 H793 0.961 . S
C807 C806 1.502 . S
C808 H794 0.960 . S
C808 H795 0.961 . S
C808 H796 0.959 . S
C808 C806 1.561 . S
C809 C806 1.526 . S
C809 C810 1.396 . S
C809 C814 1.390 . S
C810 C804 1.465 . S
C810 C809 1.396 . S
C810 C811 1.399 . S
C811 H797 0.929 . S
C811 C810 1.399 . S
C811 C812 1.385 . S
C812 H798 0.931 . S
C812 C811 1.385 . S
C812 C813 1.389 . S
C813 C812 1.389 . S
C813 C814 1.387 . S
C814 H799 0.930 . S
C814 C809 1.390 . S
C814 C813 1.387 . S
H815 C827 0.930 . S
H816 C829 0.930 . S
H817 C830 0.930 . S
H818 C834 0.959 . S
H819 C834 0.959 . S
H820 C834 0.961 . S
H821 C835 0.960 . S
H822 C835 0.961 . S
H823 C835 0.959 . S
H824 C838 0.929 . S
H825 C839 0.931 . S
H826 C841 0.930 . S
C827 H815 0.930 . S
C827 C828 1.399 . S
C827 C832 1.399 . S
C828 C827 1.399 . S
C828 C829 1.376 . S
C829 H816 0.930 . S
C829 C828 1.376 . S
C829 C830 1.388 . S
C830 H817 0.930 . S
C830 C829 1.388 . S
C830 C831 1.390 . S
C831 C830 1.390 . S
C831 C832 1.394 . S
C831 C837 1.465 . S
C832 C827 1.399 . S
C832 C831 1.394 . S
C832 C833 1.516 . S
C833 C832 1.516 . S
C833 C834 1.502 . S
C833 C835 1.561 . S
C833 C836 1.526 . S
C834 H818 0.959 . S
C834 H819 0.959 . S
C834 H820 0.961 . S
C834 C833 1.502 . S
C835 H821 0.960 . S
C835 H822 0.961 . S
C835 H823 0.959 . S
C835 C833 1.561 . S
C836 C833 1.526 . S
C836 C837 1.396 . S
C836 C841 1.390 . S
C837 C831 1.465 . S
C837 C836 1.396 . S
C837 C838 1.399 . S
C838 H824 0.929 . S
C838 C837 1.399 . S
C838 C839 1.385 . S
C839 H825 0.931 . S
C839 C838 1.385 . S
C839 C840 1.389 . S
C840 C839 1.389 . S
C840 C841 1.387 . S
C841 H826 0.930 . S
C841 C836 1.390 . S
C841 C840 1.387 . S
H842 C854 0.930 . S
H843 C856 0.930 . S
H844 C857 0.930 . S
H845 C861 0.959 . S
H846 C861 0.959 . S
H847 C861 0.961 . S
H848 C862 0.960 . S
H849 C862 0.961 . S
H850 C862 0.959 . S
H851 C865 0.929 . S
H852 C866 0.931 . S
H853 C868 0.930 . S
C854 H842 0.930 . S
C854 C855 1.399 . S
C854 C859 1.399 . S
C855 C854 1.399 . S
C855 C856 1.376 . S
C856 H843 0.930 . S
C856 C855 1.376 . S
C856 C857 1.388 . S
C857 H844 0.930 . S
C857 C856 1.388 . S
C857 C858 1.390 . S
C858 C857 1.390 . S
C858 C859 1.394 . S
C858 C864 1.465 . S
C859 C854 1.399 . S
C859 C858 1.394 . S
C859 C860 1.516 . S
C860 C859 1.516 . S
C860 C861 1.502 . S
C860 C862 1.561 . S
C860 C863 1.526 . S
C861 H845 0.959 . S
C861 H846 0.959 . S
C861 H847 0.961 . S
C861 C860 1.502 . S
C862 H848 0.960 . S
C862 H849 0.961 . S
C862 H850 0.959 . S
C862 C860 1.561 . S
C863 C860 1.526 . S
C863 C864 1.396 . S
C863 C868 1.390 . S
C864 C858 1.465 . S
C864 C863 1.396 . S
C864 C865 1.399 . S
C865 H851 0.929 . S
C865 C864 1.399 . S
C865 C866 1.385 . S
C866 H852 0.931 . S
C866 C865 1.385 . S
C866 C867 1.389 . S
C867 C866 1.389 . S
C867 C868 1.387 . S
C868 H853 0.930 . S
C868 C863 1.390 . S
C868 C867 1.387 . S
H869 C881 0.930 1_545 S
H870 C883 0.930 . S
H871 C884 0.930 . S
H872 C888 0.959 1_565 S
H873 C888 0.959 . S
H874 C888 0.961 . S
H875 C889 0.960 . S
H876 C889 0.961 . S
H877 C889 0.959 . S
H878 C892 0.929 . S
H879 C893 0.931 . S
H880 C895 0.930 . S
C881 H869 0.930 1_565 S
C881 C882 1.399 . S
C881 C886 1.399 . S
C882 C881 1.399 . S
C882 C883 1.376 . S
C883 H870 0.930 . S
C883 C882 1.376 . S
C883 C884 1.388 . S
C884 H871 0.930 . S
C884 C883 1.388 . S
C884 C885 1.390 . S
C885 C884 1.390 . S
C885 C886 1.394 . S
C885 C891 1.465 . S
C886 C881 1.399 . S
C886 C885 1.394 . S
C886 C887 1.516 1_565 S
C887 C886 1.516 1_545 S
C887 C888 1.502 . S
C887 C889 1.561 . S
C887 C890 1.526 1_545 S
C888 H872 0.959 1_545 S
C888 H873 0.959 . S
C888 H874 0.961 . S
C888 C887 1.502 . S
C889 H875 0.960 . S
C889 H876 0.961 . S
C889 H877 0.959 . S
C889 C887 1.561 . S
C890 C887 1.526 1_565 S
C890 C891 1.396 . S
C890 C895 1.390 1_565 S
C891 C885 1.465 . S
C891 C890 1.396 . S
C891 C892 1.399 . S
C892 H878 0.929 . S
C892 C891 1.399 . S
C892 C893 1.385 . S
C893 H879 0.931 . S
C893 C892 1.385 . S
C893 C894 1.389 . S
C894 C893 1.389 . S
C894 C895 1.387 1_565 S
C895 H880 0.930 . S
C895 C890 1.390 1_545 S
C895 C894 1.387 1_545 S
H896 C908 0.930 . S
H897 C910 0.930 . S
H898 C911 0.930 . S
H899 C915 0.959 . S
H900 C915 0.959 . S
H901 C915 0.961 . S
H902 C916 0.960 . S
H903 C916 0.961 . S
H904 C916 0.959 . S
H905 C919 0.929 . S
H906 C920 0.931 . S
H907 C922 0.930 . S
C908 H896 0.930 . S
C908 C909 1.399 . S
C908 C913 1.399 . S
C909 C908 1.399 . S
C909 C910 1.376 . S
C910 H897 0.930 . S
C910 C909 1.376 . S
C910 C911 1.388 . S
C911 H898 0.930 . S
C911 C910 1.388 . S
C911 C912 1.390 . S
C912 C911 1.390 . S
C912 C913 1.394 . S
C912 C918 1.465 . S
C913 C908 1.399 . S
C913 C912 1.394 . S
C913 C914 1.516 . S
C914 C913 1.516 . S
C914 C915 1.502 . S
C914 C916 1.561 . S
C914 C917 1.526 . S
C915 H899 0.959 . S
C915 H900 0.959 . S
C915 H901 0.961 . S
C915 C914 1.502 . S
C916 H902 0.960 . S
C916 H903 0.961 . S
C916 H904 0.959 . S
C916 C914 1.561 . S
C917 C914 1.526 . S
C917 C918 1.396 . S
C917 C922 1.390 . S
C918 C912 1.465 . S
C918 C917 1.396 . S
C918 C919 1.399 . S
C919 H905 0.929 . S
C919 C918 1.399 . S
C919 C920 1.385 . S
C920 H906 0.931 . S
C920 C919 1.385 . S
C920 C921 1.389 . S
C921 C920 1.389 . S
C921 C922 1.387 . S
C922 H907 0.930 . S
C922 C917 1.390 . S
C922 C921 1.387 . S
H923 C935 0.930 . S
H924 C937 0.930 . S
H925 C938 0.930 . S
H926 C942 0.959 . S
H927 C942 0.959 . S
H928 C942 0.961 . S
H929 C943 0.960 . S
H930 C943 0.961 . S
H931 C943 0.959 . S
H932 C946 0.929 . S
H933 C947 0.931 . S
H934 C949 0.930 . S
C935 H923 0.930 . S
C935 C936 1.399 . S
C935 C940 1.399 . S
C936 C935 1.399 . S
C936 C937 1.376 . S
C937 H924 0.930 . S
C937 C936 1.376 . S
C937 C938 1.388 . S
C938 H925 0.930 . S
C938 C937 1.388 . S
C938 C939 1.390 . S
C939 C938 1.390 . S
C939 C940 1.394 . S
C939 C945 1.465 . S
C940 C935 1.399 . S
C940 C939 1.394 . S
C940 C941 1.516 . S
C941 C940 1.516 . S
C941 C942 1.502 . S
C941 C943 1.561 . S
C941 C944 1.526 . S
C942 H926 0.959 . S
C942 H927 0.959 . S
C942 H928 0.961 . S
C942 C941 1.502 . S
C943 H929 0.960 . S
C943 H930 0.961 . S
C943 H931 0.959 . S
C943 C941 1.561 . S
C944 C941 1.526 . S
C944 C945 1.396 . S
C944 C949 1.390 . S
C945 C939 1.465 . S
C945 C944 1.396 . S
C945 C946 1.399 . S
C946 H932 0.929 . S
C946 C945 1.399 . S
C946 C947 1.385 . S
C947 H933 0.931 . S
C947 C946 1.385 . S
C947 C948 1.389 . S
C948 C947 1.389 . S
C948 C949 1.387 . S
C949 H934 0.930 . S
C949 C944 1.390 . S
C949 C948 1.387 . S
H950 C962 0.930 . S
H951 C964 0.930 . S
H952 C965 0.930 . S
H953 C969 0.959 . S
H954 C969 0.959 . S
H955 C969 0.961 . S
H956 C970 0.960 . S
H957 C970 0.961 . S
H958 C970 0.959 . S
H959 C973 0.929 . S
H960 C974 0.931 . S
H961 C976 0.930 . S
C962 H950 0.930 . S
C962 C963 1.399 . S
C962 C967 1.399 . S
C963 C962 1.399 . S
C963 C964 1.376 . S
C964 H951 0.930 . S
C964 C963 1.376 . S
C964 C965 1.388 . S
C965 H952 0.930 . S
C965 C964 1.388 . S
C965 C966 1.390 . S
C966 C965 1.390 . S
C966 C967 1.394 . S
C966 C972 1.465 . S
C967 C962 1.399 . S
C967 C966 1.394 . S
C967 C968 1.516 . S
C968 C967 1.516 . S
C968 C969 1.502 . S
C968 C970 1.561 . S
C968 C971 1.526 . S
C969 H953 0.959 . S
C969 H954 0.959 . S
C969 H955 0.961 . S
C969 C968 1.502 . S
C970 H956 0.960 . S
C970 H957 0.961 . S
C970 H958 0.959 . S
C970 C968 1.561 . S
C971 C968 1.526 . S
C971 C972 1.396 . S
C971 C976 1.390 . S
C972 C966 1.465 . S
C972 C971 1.396 . S
C972 C973 1.399 . S
C973 H959 0.929 . S
C973 C972 1.399 . S
C973 C974 1.385 . S
C974 H960 0.931 . S
C974 C973 1.385 . S
C974 C975 1.389 . S
C975 C974 1.389 . S
C975 C976 1.387 . S
C976 H961 0.930 . S
C976 C971 1.390 . S
C976 C975 1.387 . S
H977 C989 0.930 . S
H978 C991 0.930 . S
H979 C992 0.930 . S
H980 C996 0.959 . S
H981 C996 0.959 . S
H982 C996 0.961 . S
H983 C997 0.960 . S
H984 C997 0.961 . S
H985 C997 0.959 . S
H986 C1000 0.929 . S
H987 C1001 0.931 . S
H988 C1003 0.930 . S
C989 H977 0.930 . S
C989 C990 1.399 . S
C989 C994 1.399 . S
C990 C989 1.399 . S
C990 C991 1.376 . S
C991 H978 0.930 . S
C991 C990 1.376 . S
C991 C992 1.388 . S
C992 H979 0.930 . S
C992 C991 1.388 . S
C992 C993 1.390 . S
C993 C992 1.390 . S
C993 C994 1.394 . S
C993 C999 1.465 . S
C994 C989 1.399 . S
C994 C993 1.394 . S
C994 C995 1.516 . S
C995 C994 1.516 . S
C995 C996 1.502 . S
C995 C997 1.561 . S
C995 C998 1.526 . S
C996 H980 0.959 . S
C996 H981 0.959 . S
C996 H982 0.961 . S
C996 C995 1.502 . S
C997 H983 0.960 . S
C997 H984 0.961 . S
C997 H985 0.959 . S
C997 C995 1.561 . S
C998 C995 1.526 . S
C998 C999 1.396 . S
C998 C1003 1.390 . S
C999 C993 1.465 . S
C999 C998 1.396 . S
C999 C1000 1.399 . S
C1000 H986 0.929 . S
C1000 C999 1.399 . S
C1000 C1001 1.385 . S
C1001 H987 0.931 . S
C1001 C1000 1.385 . S
C1001 C1002 1.389 . S
C1002 C1001 1.389 . S
C1002 C1003 1.387 . S
C1003 H988 0.930 . S
C1003 C998 1.390 . S
C1003 C1002 1.387 . S
H1004 C1016 0.930 . S
H1005 C1018 0.930 . S
H1006 C1019 0.930 . S
H1007 C1023 0.959 . S
H1008 C1023 0.959 . S
H1009 C1023 0.961 . S
H1010 C1024 0.960 . S
H1011 C1024 0.961 . S
H1012 C1024 0.959 . S
H1013 C1027 0.929 . S
H1014 C1028 0.931 . S
H1015 C1030 0.930 . S
C1016 H1004 0.930 . S
C1016 C1017 1.399 . S
C1016 C1021 1.399 . S
C1017 C1016 1.399 . S
C1017 C1018 1.376 . S
C1018 H1005 0.930 . S
C1018 C1017 1.376 . S
C1018 C1019 1.388 . S
C1019 H1006 0.930 . S
C1019 C1018 1.388 . S
C1019 C1020 1.390 . S
C1020 C1019 1.390 . S
C1020 C1021 1.394 . S
C1020 C1026 1.465 . S
C1021 C1016 1.399 . S
C1021 C1020 1.394 . S
C1021 C1022 1.516 . S
C1022 C1021 1.516 . S
C1022 C1023 1.502 . S
C1022 C1024 1.561 . S
C1022 C1025 1.526 . S
C1023 H1007 0.959 . S
C1023 H1008 0.959 . S
C1023 H1009 0.961 . S
C1023 C1022 1.502 . S
C1024 H1010 0.960 . S
C1024 H1011 0.961 . S
C1024 H1012 0.959 . S
C1024 C1022 1.561 . S
C1025 C1022 1.526 . S
C1025 C1026 1.396 . S
C1025 C1030 1.390 . S
C1026 C1020 1.465 . S
C1026 C1025 1.396 . S
C1026 C1027 1.399 . S
C1027 H1013 0.929 . S
C1027 C1026 1.399 . S
C1027 C1028 1.385 . S
C1028 H1014 0.931 . S
C1028 C1027 1.385 . S
C1028 C1029 1.389 . S
C1029 C1028 1.389 . S
C1029 C1030 1.387 . S
C1030 H1015 0.930 . S
C1030 C1025 1.390 . S
C1030 C1029 1.387 . S
H1031 C1043 0.930 . S
H1032 C1045 0.930 . S
H1033 C1046 0.930 . S
H1034 C1050 0.959 . S
H1035 C1050 0.959 . S
H1036 C1050 0.961 . S
H1037 C1051 0.960 . S
H1038 C1051 0.961 . S
H1039 C1051 0.959 1_655 S
H1040 C1054 0.929 . S
H1041 C1055 0.931 . S
H1042 C1057 0.930 . S
C1043 H1031 0.930 . S
C1043 C1044 1.399 . S
C1043 C1048 1.399 . S
C1044 C1043 1.399 . S
C1044 C1045 1.376 . S
C1045 H1032 0.930 . S
C1045 C1044 1.376 . S
C1045 C1046 1.388 . S
C1046 H1033 0.930 . S
C1046 C1045 1.388 . S
C1046 C1047 1.390 . S
C1047 C1046 1.390 . S
C1047 C1048 1.394 . S
C1047 C1053 1.465 . S
C1048 C1043 1.399 . S
C1048 C1047 1.394 . S
C1048 C1049 1.516 . S
C1049 C1048 1.516 . S
C1049 C1050 1.502 . S
C1049 C1051 1.561 . S
C1049 C1052 1.526 . S
C1050 H1034 0.959 . S
C1050 H1035 0.959 . S
C1050 H1036 0.961 . S
C1050 C1049 1.502 . S
C1051 H1037 0.960 . S
C1051 H1038 0.961 . S
C1051 H1039 0.959 1_455 S
C1051 C1049 1.561 . S
C1052 C1049 1.526 . S
C1052 C1053 1.396 . S
C1052 C1057 1.390 . S
C1053 C1047 1.465 . S
C1053 C1052 1.396 . S
C1053 C1054 1.399 . S
C1054 H1040 0.929 . S
C1054 C1053 1.399 . S
C1054 C1055 1.385 . S
C1055 H1041 0.931 . S
C1055 C1054 1.385 . S
C1055 C1056 1.389 . S
C1056 C1055 1.389 . S
C1056 C1057 1.387 . S
C1057 H1042 0.930 . S
C1057 C1052 1.390 . S
C1057 C1056 1.387 . S
H1058 C1070 0.930 . S
H1059 C1072 0.930 . S
H1060 C1073 0.930 . S
H1061 C1077 0.959 . S
H1062 C1077 0.959 . S
H1063 C1077 0.961 . S
H1064 C1078 0.960 . S
H1065 C1078 0.961 . S
H1066 C1078 0.959 . S
H1067 C1081 0.929 . S
H1068 C1082 0.931 . S
H1069 C1084 0.930 . S
C1070 H1058 0.930 . S
C1070 C1071 1.399 . S
C1070 C1075 1.399 . S
C1071 C1070 1.399 . S
C1071 C1072 1.376 . S
C1072 H1059 0.930 . S
C1072 C1071 1.376 . S
C1072 C1073 1.388 . S
C1073 H1060 0.930 . S
C1073 C1072 1.388 . S
C1073 C1074 1.390 . S
C1074 C1073 1.390 . S
C1074 C1075 1.394 . S
C1074 C1080 1.465 . S
C1075 C1070 1.399 . S
C1075 C1074 1.394 . S
C1075 C1076 1.516 . S
C1076 C1075 1.516 . S
C1076 C1077 1.502 . S
C1076 C1078 1.561 . S
C1076 C1079 1.526 . S
C1077 H1061 0.959 . S
C1077 H1062 0.959 . S
C1077 H1063 0.961 . S
C1077 C1076 1.502 . S
C1078 H1064 0.960 . S
C1078 H1065 0.961 . S
C1078 H1066 0.959 . S
C1078 C1076 1.561 . S
C1079 C1076 1.526 . S
C1079 C1080 1.396 . S
C1079 C1084 1.390 . S
C1080 C1074 1.465 . S
C1080 C1079 1.396 . S
C1080 C1081 1.399 . S
C1081 H1067 0.929 . S
C1081 C1080 1.399 . S
C1081 C1082 1.385 . S
C1082 H1068 0.931 . S
C1082 C1081 1.385 . S
C1082 C1083 1.389 . S
C1083 C1082 1.389 . S
C1083 C1084 1.387 . S
C1084 H1069 0.930 . S
C1084 C1079 1.390 . S
C1084 C1083 1.387 . S
H1085 C1097 0.930 . S
H1086 C1099 0.930 . S
H1087 C1100 0.930 . S
H1088 C1104 0.959 1_455 S
H1089 C1104 0.959 . S
H1090 C1104 0.961 . S
H1091 C1105 0.960 . S
H1092 C1105 0.961 . S
H1093 C1105 0.959 . S
H1094 C1108 0.929 . S
H1095 C1109 0.931 1_455 S
H1096 C1111 0.930 . S
C1097 H1085 0.930 . S
C1097 C1098 1.399 . S
C1097 C1102 1.399 . S
C1098 C1097 1.399 . S
C1098 C1099 1.376 . S
C1099 H1086 0.930 . S
C1099 C1098 1.376 . S
C1099 C1100 1.388 . S
C1100 H1087 0.930 . S
C1100 C1099 1.388 . S
C1100 C1101 1.390 . S
C1101 C1100 1.390 . S
C1101 C1102 1.394 . S
C1101 C1107 1.465 . S
C1102 C1097 1.399 . S
C1102 C1101 1.394 . S
C1102 C1103 1.516 . S
C1103 C1102 1.516 . S
C1103 C1104 1.502 . S
C1103 C1105 1.561 . S
C1103 C1106 1.526 . S
C1104 H1088 0.959 1_655 S
C1104 H1089 0.959 . S
C1104 H1090 0.961 . S
C1104 C1103 1.502 . S
C1105 H1091 0.960 . S
C1105 H1092 0.961 . S
C1105 H1093 0.959 . S
C1105 C1103 1.561 . S
C1106 C1103 1.526 . S
C1106 C1107 1.396 . S
C1106 C1111 1.390 . S
C1107 C1101 1.465 . S
C1107 C1106 1.396 . S
C1107 C1108 1.399 . S
C1108 H1094 0.929 . S
C1108 C1107 1.399 . S
C1108 C1109 1.385 . S
C1109 H1095 0.931 1_655 S
C1109 C1108 1.385 . S
C1109 C1110 1.389 . S
C1110 C1109 1.389 . S
C1110 C1111 1.387 . S
C1111 H1096 0.930 . S
C1111 C1106 1.390 . S
C1111 C1110 1.387 . S
H1112 C1124 0.930 . S
H1113 C1126 0.930 . S
H1114 C1127 0.930 . S
H1115 C1131 0.959 . S
H1116 C1131 0.959 . S
H1117 C1131 0.961 . S
H1118 C1132 0.960 . S
H1119 C1132 0.961 . S
H1120 C1132 0.959 . S
H1121 C1135 0.929 . S
H1122 C1136 0.931 . S
H1123 C1138 0.930 . S
C1124 H1112 0.930 . S
C1124 C1125 1.399 . S
C1124 C1129 1.399 . S
C1125 C1124 1.399 . S
C1125 C1126 1.376 . S
C1126 H1113 0.930 . S
C1126 C1125 1.376 . S
C1126 C1127 1.388 . S
C1127 H1114 0.930 . S
C1127 C1126 1.388 . S
C1127 C1128 1.390 . S
C1128 C1127 1.390 . S
C1128 C1129 1.394 . S
C1128 C1134 1.465 . S
C1129 C1124 1.399 . S
C1129 C1128 1.394 . S
C1129 C1130 1.516 . S
C1130 C1129 1.516 . S
C1130 C1131 1.502 . S
C1130 C1132 1.561 . S
C1130 C1133 1.526 . S
C1131 H1115 0.959 . S
C1131 H1116 0.959 . S
C1131 H1117 0.961 . S
C1131 C1130 1.502 . S
C1132 H1118 0.960 . S
C1132 H1119 0.961 . S
C1132 H1120 0.959 . S
C1132 C1130 1.561 . S
C1133 C1130 1.526 . S
C1133 C1134 1.396 . S
C1133 C1138 1.390 . S
C1134 C1128 1.465 . S
C1134 C1133 1.396 . S
C1134 C1135 1.399 . S
C1135 H1121 0.929 . S
C1135 C1134 1.399 . S
C1135 C1136 1.385 . S
C1136 H1122 0.931 . S
C1136 C1135 1.385 . S
C1136 C1137 1.389 . S
C1137 C1136 1.389 . S
C1137 C1138 1.387 . S
C1138 H1123 0.930 . S
C1138 C1133 1.390 . S
C1138 C1137 1.387 . S
H1139 C1151 0.930 . S
H1140 C1153 0.930 . S
H1141 C1154 0.930 . S
H1142 C1158 0.959 . S
H1143 C1158 0.959 . S
H1144 C1158 0.961 . S
H1145 C1159 0.960 . S
H1146 C1159 0.961 . S
H1147 C1159 0.959 . S
H1148 C1162 0.929 . S
H1149 C1163 0.931 . S
H1150 C1165 0.930 . S
C1151 H1139 0.930 . S
C1151 C1152 1.399 . S
C1151 C1156 1.399 . S
C1152 C1151 1.399 . S
C1152 C1153 1.376 . S
C1153 H1140 0.930 . S
C1153 C1152 1.376 . S
C1153 C1154 1.388 . S
C1154 H1141 0.930 . S
C1154 C1153 1.388 . S
C1154 C1155 1.390 . S
C1155 C1154 1.390 . S
C1155 C1156 1.394 . S
C1155 C1161 1.465 . S
C1156 C1151 1.399 . S
C1156 C1155 1.394 . S
C1156 C1157 1.516 . S
C1157 C1156 1.516 . S
C1157 C1158 1.502 . S
C1157 C1159 1.561 . S
C1157 C1160 1.526 . S
C1158 H1142 0.959 . S
C1158 H1143 0.959 . S
C1158 H1144 0.961 . S
C1158 C1157 1.502 . S
C1159 H1145 0.960 . S
C1159 H1146 0.961 . S
C1159 H1147 0.959 . S
C1159 C1157 1.561 . S
C1160 C1157 1.526 . S
C1160 C1161 1.396 . S
C1160 C1165 1.390 . S
C1161 C1155 1.465 . S
C1161 C1160 1.396 . S
C1161 C1162 1.399 . S
C1162 H1148 0.929 . S
C1162 C1161 1.399 . S
C1162 C1163 1.385 . S
C1163 H1149 0.931 . S
C1163 C1162 1.385 . S
C1163 C1164 1.389 . S
C1164 C1163 1.389 . S
C1164 C1165 1.387 . S
C1165 H1150 0.930 . S
C1165 C1160 1.390 . S
C1165 C1164 1.387 . S
H1166 C1178 0.930 . S
H1167 C1180 0.930 . S
H1168 C1181 0.930 . S
H1169 C1185 0.959 . S
H1170 C1185 0.959 . S
H1171 C1185 0.961 . S
H1172 C1186 0.960 . S
H1173 C1186 0.961 . S
H1174 C1186 0.959 . S
H1175 C1189 0.929 . S
H1176 C1190 0.931 . S
H1177 C1192 0.930 . S
C1178 H1166 0.930 . S
C1178 C1179 1.399 . S
C1178 C1183 1.399 . S
C1179 C1178 1.399 . S
C1179 C1180 1.376 1_556 S
C1180 H1167 0.930 . S
C1180 C1179 1.376 1_554 S
C1180 C1181 1.388 . S
C1181 H1168 0.930 . S
C1181 C1180 1.388 . S
C1181 C1182 1.391 . S
C1182 C1181 1.391 . S
C1182 C1183 1.393 1_554 S
C1182 C1188 1.465 . S
C1183 C1178 1.399 . S
C1183 C1182 1.393 1_556 S
C1183 C1184 1.516 . S
C1184 C1183 1.516 . S
C1184 C1185 1.502 . S
C1184 C1186 1.561 . S
C1184 C1187 1.526 . S
C1185 H1169 0.959 . S
C1185 H1170 0.959 . S
C1185 H1171 0.961 . S
C1185 C1184 1.502 . S
C1186 H1172 0.960 . S
C1186 H1173 0.961 . S
C1186 H1174 0.959 . S
C1186 C1184 1.561 . S
C1187 C1184 1.526 . S
C1187 C1188 1.396 1_556 S
C1187 C1192 1.390 . S
C1188 C1182 1.465 . S
C1188 C1187 1.396 1_554 S
C1188 C1189 1.399 . S
C1189 H1175 0.929 . S
C1189 C1188 1.399 . S
C1189 C1190 1.385 . S
C1190 H1176 0.931 . S
C1190 C1189 1.385 . S
C1190 C1191 1.352 1_554 S
C1191 C1190 1.352 1_556 S
C1191 C1192 1.423 . S
C1192 H1177 0.930 . S
C1192 C1187 1.390 . S
C1192 C1191 1.423 . S
H1193 C1205 0.930 . S
H1194 C1207 0.930 . S
H1195 C1208 0.930 . S
H1196 C1212 0.959 . S
H1197 C1212 0.959 . S
H1198 C1212 0.961 . S
H1199 C1213 0.960 . S
H1200 C1213 0.961 . S
H1201 C1213 0.959 . S
H1202 C1216 0.929 . S
H1203 C1217 0.931 . S
H1204 C1219 0.930 . S
C1205 H1193 0.930 . S
C1205 C1206 1.399 . S
C1205 C1210 1.399 . S
C1206 C1205 1.399 . S
C1206 C1207 1.376 . S
C1207 H1194 0.930 . S
C1207 C1206 1.376 . S
C1207 C1208 1.388 . S
C1208 H1195 0.930 . S
C1208 C1207 1.388 . S
C1208 C1209 1.390 . S
C1209 C1208 1.390 . S
C1209 C1210 1.394 . S
C1209 C1215 1.465 . S
C1210 C1205 1.399 . S
C1210 C1209 1.394 . S
C1210 C1211 1.516 . S
C1211 C1210 1.516 . S
C1211 C1212 1.502 . S
C1211 C1213 1.561 . S
C1211 C1214 1.526 . S
C1212 H1196 0.959 . S
C1212 H1197 0.959 . S
C1212 H1198 0.961 . S
C1212 C1211 1.502 . S
C1213 H1199 0.960 . S
C1213 H1200 0.961 . S
C1213 H1201 0.959 . S
C1213 C1211 1.561 . S
C1214 C1211 1.526 . S
C1214 C1215 1.396 . S
C1214 C1219 1.390 . S
C1215 C1209 1.465 . S
C1215 C1214 1.396 . S
C1215 C1216 1.399 . S
C1216 H1202 0.929 . S
C1216 C1215 1.399 . S
C1216 C1217 1.385 . S
C1217 H1203 0.931 . S
C1217 C1216 1.385 . S
C1217 C1218 1.389 . S
C1218 C1217 1.389 . S
C1218 C1219 1.387 . S
C1219 H1204 0.930 . S
C1219 C1214 1.390 . S
C1219 C1218 1.387 . S
H1220 C1232 0.930 . S
H1221 C1234 0.930 . S
H1222 C1235 0.930 . S
H1223 C1239 0.959 . S
H1224 C1239 0.959 . S
H1225 C1239 0.961 . S
H1226 C1240 0.960 . S
H1227 C1240 0.961 . S
H1228 C1240 0.959 . S
H1229 C1243 0.929 . S
H1230 C1244 0.931 . S
H1231 C1246 0.930 . S
C1232 H1220 0.930 . S
C1232 C1233 1.399 . S
C1232 C1237 1.399 . S
C1233 C1232 1.399 . S
C1233 C1234 1.376 . S
C1234 H1221 0.930 . S
C1234 C1233 1.376 . S
C1234 C1235 1.388 . S
C1235 H1222 0.930 . S
C1235 C1234 1.388 . S
C1235 C1236 1.390 . S
C1236 C1235 1.390 . S
C1236 C1237 1.394 . S
C1236 C1242 1.465 . S
C1237 C1232 1.399 . S
C1237 C1236 1.394 . S
C1237 C1238 1.516 . S
C1238 C1237 1.516 . S
C1238 C1239 1.502 . S
C1238 C1240 1.561 . S
C1238 C1241 1.526 . S
C1239 H1223 0.959 . S
C1239 H1224 0.959 . S
C1239 H1225 0.961 . S
C1239 C1238 1.502 . S
C1240 H1226 0.960 . S
C1240 H1227 0.961 . S
C1240 H1228 0.959 . S
C1240 C1238 1.561 . S
C1241 C1238 1.526 . S
C1241 C1242 1.396 . S
C1241 C1246 1.390 . S
C1242 C1236 1.465 . S
C1242 C1241 1.396 . S
C1242 C1243 1.399 . S
C1243 H1229 0.929 . S
C1243 C1242 1.399 . S
C1243 C1244 1.385 . S
C1244 H1230 0.931 . S
C1244 C1243 1.385 . S
C1244 C1245 1.389 . S
C1245 C1244 1.389 . S
C1245 C1246 1.387 . S
C1246 H1231 0.930 . S
C1246 C1241 1.390 . S
C1246 C1245 1.387 . S
H1247 C1259 0.930 . S
H1248 C1261 0.930 . S
H1249 C1262 0.930 . S
H1250 C1266 0.959 . S
H1251 C1266 0.959 . S
H1252 C1266 0.961 . S
H1253 C1267 0.960 . S
H1254 C1267 0.961 . S
H1255 C1267 0.959 . S
H1256 C1270 0.929 . S
H1257 C1271 0.931 . S
H1258 C1273 0.930 . S
C1259 H1247 0.930 . S
C1259 C1260 1.399 . S
C1259 C1264 1.399 . S
C1260 C1259 1.399 . S
C1260 C1261 1.376 . S
C1261 H1248 0.930 . S
C1261 C1260 1.376 . S
C1261 C1262 1.388 . S
C1262 H1249 0.930 . S
C1262 C1261 1.388 . S
C1262 C1263 1.390 . S
C1263 C1262 1.390 . S
C1263 C1264 1.394 . S
C1263 C1269 1.465 . S
C1264 C1259 1.399 . S
C1264 C1263 1.394 . S
C1264 C1265 1.516 . S
C1265 C1264 1.516 . S
C1265 C1266 1.502 . S
C1265 C1267 1.561 . S
C1265 C1268 1.526 . S
C1266 H1250 0.959 . S
C1266 H1251 0.959 . S
C1266 H1252 0.961 . S
C1266 C1265 1.502 . S
C1267 H1253 0.960 . S
C1267 H1254 0.961 . S
C1267 H1255 0.959 . S
C1267 C1265 1.561 . S
C1268 C1265 1.526 . S
C1268 C1269 1.396 . S
C1268 C1273 1.390 . S
C1269 C1263 1.465 . S
C1269 C1268 1.396 . S
C1269 C1270 1.399 . S
C1270 H1256 0.929 . S
C1270 C1269 1.399 . S
C1270 C1271 1.385 . S
C1271 H1257 0.931 . S
C1271 C1270 1.385 . S
C1271 C1272 1.389 . S
C1272 C1271 1.389 . S
C1272 C1273 1.387 . S
C1273 H1258 0.930 . S
C1273 C1268 1.390 . S
C1273 C1272 1.387 . S
H1274 C1286 0.930 . S
H1275 C1288 0.930 . S
H1276 C1289 0.930 . S
H1277 C1293 0.959 . S
H1278 C1293 0.959 . S
H1279 C1293 0.961 . S
H1280 C1294 0.960 . S
H1281 C1294 0.961 . S
H1282 C1294 0.959 . S
H1283 C1297 0.929 . S
H1284 C1298 0.931 . S
H1285 C1300 0.930 . S
C1286 H1274 0.930 . S
C1286 C1287 1.399 . S
C1286 C1291 1.399 . S
C1287 C1286 1.399 . S
C1287 C1288 1.376 . S
C1288 H1275 0.930 . S
C1288 C1287 1.376 . S
C1288 C1289 1.388 . S
C1289 H1276 0.930 . S
C1289 C1288 1.388 . S
C1289 C1290 1.390 . S
C1290 C1289 1.390 . S
C1290 C1291 1.394 . S
C1290 C1296 1.465 . S
C1291 C1286 1.399 . S
C1291 C1290 1.394 . S
C1291 C1292 1.516 . S
C1292 C1291 1.516 . S
C1292 C1293 1.502 . S
C1292 C1294 1.561 . S
C1292 C1295 1.526 . S
C1293 H1277 0.959 . S
C1293 H1278 0.959 . S
C1293 H1279 0.961 . S
C1293 C1292 1.502 . S
C1294 H1280 0.960 . S
C1294 H1281 0.961 . S
C1294 H1282 0.959 . S
C1294 C1292 1.561 . S
C1295 C1292 1.526 . S
C1295 C1296 1.396 . S
C1295 C1300 1.390 . S
C1296 C1290 1.465 . S
C1296 C1295 1.396 . S
C1296 C1297 1.399 . S
C1297 H1283 0.929 . S
C1297 C1296 1.399 . S
C1297 C1298 1.385 . S
C1298 H1284 0.931 . S
C1298 C1297 1.385 . S
C1298 C1299 1.389 . S
C1299 C1298 1.389 . S
C1299 C1300 1.387 . S
C1300 H1285 0.930 . S
C1300 C1295 1.390 . S
C1300 C1299 1.387 . S
H1301 C1313 0.930 . S
H1302 C1315 0.930 . S
H1303 C1316 0.930 . S
H1304 C1320 0.959 . S
H1305 C1320 0.959 . S
H1306 C1320 0.961 . S
H1307 C1321 0.960 . S
H1308 C1321 0.961 . S
H1309 C1321 0.959 . S
H1310 C1324 0.929 . S
H1311 C1325 0.931 . S
H1312 C1327 0.930 . S
C1313 H1301 0.930 . S
C1313 C1314 1.399 . S
C1313 C1318 1.399 . S
C1314 C1313 1.399 . S
C1314 C1315 1.376 . S
C1315 H1302 0.930 . S
C1315 C1314 1.376 . S
C1315 C1316 1.388 . S
C1316 H1303 0.930 . S
C1316 C1315 1.388 . S
C1316 C1317 1.390 . S
C1317 C1316 1.390 . S
C1317 C1318 1.394 . S
C1317 C1323 1.465 . S
C1318 C1313 1.399 . S
C1318 C1317 1.394 . S
C1318 C1319 1.516 . S
C1319 C1318 1.516 . S
C1319 C1320 1.502 . S
C1319 C1321 1.561 . S
C1319 C1322 1.526 . S
C1320 H1304 0.959 . S
C1320 H1305 0.959 . S
C1320 H1306 0.961 . S
C1320 C1319 1.502 . S
C1321 H1307 0.960 . S
C1321 H1308 0.961 . S
C1321 H1309 0.959 . S
C1321 C1319 1.561 . S
C1322 C1319 1.526 . S
C1322 C1323 1.396 . S
C1322 C1327 1.390 . S
C1323 C1317 1.465 . S
C1323 C1322 1.396 . S
C1323 C1324 1.399 . S
C1324 H1310 0.929 . S
C1324 C1323 1.399 . S
C1324 C1325 1.385 . S
C1325 H1311 0.931 . S
C1325 C1324 1.385 . S
C1325 C1326 1.389 . S
C1326 C1325 1.389 . S
C1326 C1327 1.387 . S
C1327 H1312 0.930 . S
C1327 C1322 1.390 . S
C1327 C1326 1.387 . S
H1328 C1340 0.930 . S
H1329 C1342 0.930 . S
H1330 C1343 0.930 . S
H1331 C1347 0.959 . S
H1332 C1347 0.959 . S
H1333 C1347 0.961 . S
H1334 C1348 0.960 . S
H1335 C1348 0.961 . S
H1336 C1348 0.959 . S
H1337 C1351 0.929 . S
H1338 C1352 0.931 . S
H1339 C1354 0.930 . S
C1340 H1328 0.930 . S
C1340 C1341 1.399 . S
C1340 C1345 1.399 . S
C1341 C1340 1.399 . S
C1341 C1342 1.376 . S
C1342 H1329 0.930 . S
C1342 C1341 1.376 . S
C1342 C1343 1.388 . S
C1343 H1330 0.930 . S
C1343 C1342 1.388 . S
C1343 C1344 1.390 . S
C1344 C1343 1.390 . S
C1344 C1345 1.394 . S
C1344 C1350 1.465 . S
C1345 C1340 1.399 . S
C1345 C1344 1.394 . S
C1345 C1346 1.516 . S
C1346 C1345 1.516 . S
C1346 C1347 1.502 . S
C1346 C1348 1.561 . S
C1346 C1349 1.526 . S
C1347 H1331 0.959 . S
C1347 H1332 0.959 . S
C1347 H1333 0.961 . S
C1347 C1346 1.502 . S
C1348 H1334 0.960 . S
C1348 H1335 0.961 . S
C1348 H1336 0.959 . S
C1348 C1346 1.561 . S
C1349 C1346 1.526 . S
C1349 C1350 1.396 . S
C1349 C1354 1.390 . S
C1350 C1344 1.465 . S
C1350 C1349 1.396 . S
C1350 C1351 1.399 . S
C1351 H1337 0.929 . S
C1351 C1350 1.399 . S
C1351 C1352 1.385 . S
C1352 H1338 0.931 . S
C1352 C1351 1.385 . S
C1352 C1353 1.389 . S
C1353 C1352 1.389 . S
C1353 C1354 1.387 . S
C1354 H1339 0.930 . S
C1354 C1349 1.390 . S
C1354 C1353 1.387 . S
H1355 C1367 0.930 1_565 S
H1356 C1369 0.930 . S
H1357 C1370 0.930 . S
H1358 C1374 0.974 . S
H1359 C1374 0.951 1_565 S
H1360 C1374 0.958 1_565 S
H1361 C1375 0.960 . S
H1362 C1375 0.961 . S
H1363 C1375 0.959 . S
H1364 C1378 0.929 . S
H1365 C1379 0.931 . S
H1366 C1381 0.932 1_565 S
C1367 H1355 0.930 1_545 S
C1367 C1368 1.399 . S
C1367 C1372 1.399 . S
C1368 C1367 1.399 . S
C1368 C1369 1.376 . S
C1369 H1356 0.930 . S
C1369 C1368 1.376 . S
C1369 C1370 1.388 . S
C1370 H1357 0.930 . S
C1370 C1369 1.388 . S
C1370 C1371 1.390 . S
C1371 C1370 1.390 . S
C1371 C1372 1.394 . S
C1371 C1377 1.465 . S
C1372 C1367 1.399 . S
C1372 C1371 1.394 . S
C1372 C1373 1.516 1_545 S
C1373 C1372 1.516 1_565 S
C1373 C1374 1.500 1_565 S
C1373 C1375 1.561 . S
C1373 C1376 1.526 1_565 S
C1374 H1358 0.974 . S
C1374 H1359 0.951 1_545 S
C1374 H1360 0.958 1_545 S
C1374 C1373 1.500 1_545 S
C1375 H1361 0.960 . S
C1375 H1362 0.961 . S
C1375 H1363 0.959 . S
C1375 C1373 1.561 . S
C1376 C1373 1.526 1_545 S
C1376 C1377 1.396 . S
C1376 C1381 1.389 . S
C1377 C1371 1.465 . S
C1377 C1376 1.396 . S
C1377 C1378 1.399 . S
C1378 H1364 0.929 . S
C1378 C1377 1.399 . S
C1378 C1379 1.385 . S
C1379 H1365 0.931 . S
C1379 C1378 1.385 . S
C1379 C1380 1.389 . S
C1380 C1379 1.389 . S
C1380 C1381 1.385 . S
C1381 H1366 0.932 1_545 S
C1381 C1376 1.389 . S
C1381 C1380 1.385 . S
H1382 C1394 0.930 . S
H1383 C1396 0.930 . S
H1384 C1397 0.930 . S
H1385 C1401 0.959 . S
H1386 C1401 0.959 . S
H1387 C1401 0.961 . S
H1388 C1402 0.960 . S
H1389 C1402 0.961 . S
H1390 C1402 0.959 . S
H1391 C1405 0.929 . S
H1392 C1406 0.931 . S
H1393 C1408 0.930 . S
C1394 H1382 0.930 . S
C1394 C1395 1.399 . S
C1394 C1399 1.399 . S
C1395 C1394 1.399 . S
C1395 C1396 1.376 . S
C1396 H1383 0.930 . S
C1396 C1395 1.376 . S
C1396 C1397 1.388 . S
C1397 H1384 0.930 . S
C1397 C1396 1.388 . S
C1397 C1398 1.390 . S
C1398 C1397 1.390 . S
C1398 C1399 1.394 . S
C1398 C1404 1.465 . S
C1399 C1394 1.399 . S
C1399 C1398 1.394 . S
C1399 C1400 1.516 . S
C1400 C1399 1.516 . S
C1400 C1401 1.502 . S
C1400 C1402 1.561 . S
C1400 C1403 1.526 . S
C1401 H1385 0.959 . S
C1401 H1386 0.959 . S
C1401 H1387 0.961 . S
C1401 C1400 1.502 . S
C1402 H1388 0.960 . S
C1402 H1389 0.961 . S
C1402 H1390 0.959 . S
C1402 C1400 1.561 . S
C1403 C1400 1.526 . S
C1403 C1404 1.396 . S
C1403 C1408 1.390 . S
C1404 C1398 1.465 . S
C1404 C1403 1.396 . S
C1404 C1405 1.399 . S
C1405 H1391 0.929 . S
C1405 C1404 1.399 . S
C1405 C1406 1.385 . S
C1406 H1392 0.931 . S
C1406 C1405 1.385 . S
C1406 C1407 1.389 . S
C1407 C1406 1.389 . S
C1407 C1408 1.387 . S
C1408 H1393 0.930 . S
C1408 C1403 1.390 . S
C1408 C1407 1.387 . S
H1409 C1421 0.930 . S
H1410 C1423 0.930 . S
H1411 C1424 0.930 . S
H1412 C1428 0.959 . S
H1413 C1428 0.959 . S
H1414 C1428 0.961 . S
H1415 C1429 0.960 . S
H1416 C1429 0.961 . S
H1417 C1429 0.959 . S
H1418 C1432 0.929 . S
H1419 C1433 0.931 . S
H1420 C1435 0.930 . S
C1421 H1409 0.930 . S
C1421 C1422 1.399 . S
C1421 C1426 1.399 . S
C1422 C1421 1.399 . S
C1422 C1423 1.376 . S
C1423 H1410 0.930 . S
C1423 C1422 1.376 . S
C1423 C1424 1.388 . S
C1424 H1411 0.930 . S
C1424 C1423 1.388 . S
C1424 C1425 1.390 . S
C1425 C1424 1.390 . S
C1425 C1426 1.394 . S
C1425 C1431 1.465 . S
C1426 C1421 1.399 . S
C1426 C1425 1.394 . S
C1426 C1427 1.516 . S
C1427 C1426 1.516 . S
C1427 C1428 1.502 . S
C1427 C1429 1.561 . S
C1427 C1430 1.526 . S
C1428 H1412 0.959 . S
C1428 H1413 0.959 . S
C1428 H1414 0.961 . S
C1428 C1427 1.502 . S
C1429 H1415 0.960 . S
C1429 H1416 0.961 . S
C1429 H1417 0.959 . S
C1429 C1427 1.561 . S
C1430 C1427 1.526 . S
C1430 C1431 1.396 . S
C1430 C1435 1.390 . S
C1431 C1425 1.465 . S
C1431 C1430 1.396 . S
C1431 C1432 1.399 . S
C1432 H1418 0.929 . S
C1432 C1431 1.399 . S
C1432 C1433 1.385 . S
C1433 H1419 0.931 . S
C1433 C1432 1.385 . S
C1433 C1434 1.389 . S
C1434 C1433 1.389 . S
C1434 C1435 1.387 . S
C1435 H1420 0.930 . S
C1435 C1430 1.390 . S
C1435 C1434 1.387 . S
H1436 C1448 0.930 . S
H1437 C1450 0.930 . S
H1438 C1451 0.930 . S
H1439 C1455 0.959 . S
H1440 C1455 0.959 . S
H1441 C1455 0.961 . S
H1442 C1456 0.960 . S
H1443 C1456 0.961 . S
H1444 C1456 0.959 . S
H1445 C1459 0.929 . S
H1446 C1460 0.931 . S
H1447 C1462 0.930 . S
C1448 H1436 0.930 . S
C1448 C1449 1.399 . S
C1448 C1453 1.399 . S
C1449 C1448 1.399 . S
C1449 C1450 1.376 . S
C1450 H1437 0.930 . S
C1450 C1449 1.376 . S
C1450 C1451 1.388 . S
C1451 H1438 0.930 . S
C1451 C1450 1.388 . S
C1451 C1452 1.390 . S
C1452 C1451 1.390 . S
C1452 C1453 1.394 . S
C1452 C1458 1.465 . S
C1453 C1448 1.399 . S
C1453 C1452 1.394 . S
C1453 C1454 1.516 . S
C1454 C1453 1.516 . S
C1454 C1455 1.502 . S
C1454 C1456 1.561 . S
C1454 C1457 1.526 . S
C1455 H1439 0.959 . S
C1455 H1440 0.959 . S
C1455 H1441 0.961 . S
C1455 C1454 1.502 . S
C1456 H1442 0.960 . S
C1456 H1443 0.961 . S
C1456 H1444 0.959 . S
C1456 C1454 1.561 . S
C1457 C1454 1.526 . S
C1457 C1458 1.396 . S
C1457 C1462 1.390 . S
C1458 C1452 1.465 . S
C1458 C1457 1.396 . S
C1458 C1459 1.399 . S
C1459 H1445 0.929 . S
C1459 C1458 1.399 . S
C1459 C1460 1.385 . S
C1460 H1446 0.931 . S
C1460 C1459 1.385 . S
C1460 C1461 1.389 . S
C1461 C1460 1.389 . S
C1461 C1462 1.387 . S
C1462 H1447 0.930 . S
C1462 C1457 1.390 . S
C1462 C1461 1.387 . S
H1463 C1475 0.922 1_565 S
H1464 C1477 0.930 . S
H1465 C1478 0.930 . S
H1466 C1482 0.959 . S
H1467 C1482 0.959 . S
H1468 C1482 0.961 . S
H1469 C1483 0.960 . S
H1470 C1483 0.961 . S
H1471 C1483 0.959 . S
H1472 C1486 0.929 . S
H1473 C1487 0.931 . S
H1474 C1489 0.930 1_565 S
C1475 H1463 0.922 1_545 S
C1475 C1476 1.399 . S
C1475 C1480 1.399 . S
C1476 C1475 1.399 . S
C1476 C1477 1.376 . S
C1477 H1464 0.930 . S
C1477 C1476 1.376 . S
C1477 C1478 1.388 . S
C1478 H1465 0.930 . S
C1478 C1477 1.388 . S
C1478 C1479 1.390 . S
C1479 C1478 1.390 . S
C1479 C1480 1.394 . S
C1479 C1485 1.465 . S
C1480 C1475 1.399 . S
C1480 C1479 1.394 . S
C1480 C1481 1.506 1_545 S
C1481 C1480 1.506 1_565 S
C1481 C1482 1.510 . S
C1481 C1483 1.572 . S
C1481 C1484 1.516 1_565 S
C1482 H1466 0.959 . S
C1482 H1467 0.959 . S
C1482 H1468 0.961 . S
C1482 C1481 1.510 . S
C1483 H1469 0.960 . S
C1483 H1470 0.961 . S
C1483 H1471 0.959 . S
C1483 C1481 1.572 . S
C1484 C1481 1.516 1_545 S
C1484 C1485 1.396 . S
C1484 C1489 1.390 . S
C1485 C1479 1.465 . S
C1485 C1484 1.396 . S
C1485 C1486 1.399 . S
C1486 H1472 0.929 . S
C1486 C1485 1.399 . S
C1486 C1487 1.385 . S
C1487 H1473 0.931 . S
C1487 C1486 1.385 . S
C1487 C1488 1.389 . S
C1488 C1487 1.389 . S
C1488 C1489 1.387 . S
C1489 H1474 0.930 1_545 S
C1489 C1484 1.390 . S
C1489 C1488 1.387 . S
H1490 C1502 0.930 . S
H1491 C1504 0.930 . S
H1492 C1505 0.930 . S
H1493 C1509 0.959 . S
H1494 C1509 0.959 . S
H1495 C1509 0.961 . S
H1496 C1510 0.960 . S
H1497 C1510 0.961 . S
H1498 C1510 0.959 . S
H1499 C1513 0.929 . S
H1500 C1514 0.931 . S
H1501 C1516 0.930 . S
C1502 H1490 0.930 . S
C1502 C1503 1.399 . S
C1502 C1507 1.399 . S
C1503 C1502 1.399 . S
C1503 C1504 1.376 . S
C1504 H1491 0.930 . S
C1504 C1503 1.376 . S
C1504 C1505 1.388 . S
C1505 H1492 0.930 . S
C1505 C1504 1.388 . S
C1505 C1506 1.390 . S
C1506 C1505 1.390 . S
C1506 C1507 1.394 . S
C1506 C1512 1.465 . S
C1507 C1502 1.399 . S
C1507 C1506 1.394 . S
C1507 C1508 1.516 . S
C1508 C1507 1.516 . S
C1508 C1509 1.502 . S
C1508 C1510 1.561 . S
C1508 C1511 1.526 . S
C1509 H1493 0.959 . S
C1509 H1494 0.959 . S
C1509 H1495 0.961 . S
C1509 C1508 1.502 . S
C1510 H1496 0.960 . S
C1510 H1497 0.961 . S
C1510 H1498 0.959 . S
C1510 C1508 1.561 . S
C1511 C1508 1.526 . S
C1511 C1512 1.396 . S
C1511 C1516 1.390 . S
C1512 C1506 1.465 . S
C1512 C1511 1.396 . S
C1512 C1513 1.399 . S
C1513 H1499 0.929 . S
C1513 C1512 1.399 . S
C1513 C1514 1.385 . S
C1514 H1500 0.931 . S
C1514 C1513 1.385 . S
C1514 C1515 1.389 . S
C1515 C1514 1.389 . S
C1515 C1516 1.387 . S
C1516 H1501 0.930 . S
C1516 C1511 1.390 . S
C1516 C1515 1.387 . S
H1517 C1529 0.930 . S
H1518 C1531 0.930 . S
H1519 C1532 0.930 . S
H1520 C1536 0.959 . S
H1521 C1536 0.959 . S
H1522 C1536 0.961 . S
H1523 C1537 0.960 . S
H1524 C1537 0.961 . S
H1525 C1537 0.959 . S
H1526 C1540 0.929 . S
H1527 C1541 0.931 . S
H1528 C1543 0.930 . S
C1529 H1517 0.930 . S
C1529 C1530 1.399 . S
C1529 C1534 1.399 . S
C1530 C1529 1.399 . S
C1530 C1531 1.376 . S
C1531 H1518 0.930 . S
C1531 C1530 1.376 . S
C1531 C1532 1.388 . S
C1532 H1519 0.930 . S
C1532 C1531 1.388 . S
C1532 C1533 1.390 . S
C1533 C1532 1.390 . S
C1533 C1534 1.394 . S
C1533 C1539 1.465 . S
C1534 C1529 1.399 . S
C1534 C1533 1.394 . S
C1534 C1535 1.516 . S
C1535 C1534 1.516 . S
C1535 C1536 1.502 . S
C1535 C1537 1.561 . S
C1535 C1538 1.526 . S
C1536 H1520 0.959 . S
C1536 H1521 0.959 . S
C1536 H1522 0.961 . S
C1536 C1535 1.502 . S
C1537 H1523 0.960 . S
C1537 H1524 0.961 . S
C1537 H1525 0.959 . S
C1537 C1535 1.561 . S
C1538 C1535 1.526 . S
C1538 C1539 1.396 . S
C1538 C1543 1.390 . S
C1539 C1533 1.465 . S
C1539 C1538 1.396 . S
C1539 C1540 1.399 . S
C1540 H1526 0.929 . S
C1540 C1539 1.399 . S
C1540 C1541 1.385 . S
C1541 H1527 0.931 . S
C1541 C1540 1.385 . S
C1541 C1542 1.389 . S
C1542 C1541 1.389 . S
C1542 C1543 1.387 . S
C1543 H1528 0.930 . S
C1543 C1538 1.390 . S
C1543 C1542 1.387 . S
H1544 C1556 0.930 . S
H1545 C1558 0.930 . S
H1546 C1559 0.930 . S
H1547 C1563 0.959 . S
H1548 C1563 0.959 . S
H1549 C1563 0.961 . S
H1550 C1564 0.960 . S
H1551 C1564 0.961 . S
H1552 C1564 0.959 . S
H1553 C1567 0.929 . S
H1554 C1568 0.931 . S
H1555 C1570 0.930 . S
C1556 H1544 0.930 . S
C1556 C1557 1.399 . S
C1556 C1561 1.399 . S
C1557 C1556 1.399 . S
C1557 C1558 1.376 . S
C1558 H1545 0.930 . S
C1558 C1557 1.376 . S
C1558 C1559 1.388 . S
C1559 H1546 0.930 . S
C1559 C1558 1.388 . S
C1559 C1560 1.390 . S
C1560 C1559 1.390 . S
C1560 C1561 1.394 . S
C1560 C1566 1.465 . S
C1561 C1556 1.399 . S
C1561 C1560 1.394 . S
C1561 C1562 1.516 . S
C1562 C1561 1.516 . S
C1562 C1563 1.502 . S
C1562 C1564 1.561 . S
C1562 C1565 1.526 . S
C1563 H1547 0.959 . S
C1563 H1548 0.959 . S
C1563 H1549 0.961 . S
C1563 C1562 1.502 . S
C1564 H1550 0.960 . S
C1564 H1551 0.961 . S
C1564 H1552 0.959 . S
C1564 C1562 1.561 . S
C1565 C1562 1.526 . S
C1565 C1566 1.396 . S
C1565 C1570 1.390 . S
C1566 C1560 1.465 . S
C1566 C1565 1.396 . S
C1566 C1567 1.399 . S
C1567 H1553 0.929 . S
C1567 C1566 1.399 . S
C1567 C1568 1.385 . S
C1568 H1554 0.931 . S
C1568 C1567 1.385 . S
C1568 C1569 1.389 . S
C1569 C1568 1.389 . S
C1569 C1570 1.387 . S
C1570 H1555 0.930 . S
C1570 C1565 1.390 . S
C1570 C1569 1.387 . S
H1571 C1583 0.930 . S
H1572 C1585 0.930 . S
H1573 C1586 0.930 1_554 S
H1574 C1590 0.959 . S
H1575 C1590 0.959 1_455 S
H1576 C1590 0.961 . S
H1577 C1591 0.960 . S
H1578 C1591 0.961 . S
H1579 C1591 0.959 . S
H1580 C1594 0.929 . S
H1581 C1595 0.931 . S
H1582 C1597 0.930 . S
C1583 H1571 0.930 . S
C1583 C1584 1.399 1_455 S
C1583 C1588 1.399 . S
C1584 C1583 1.399 1_655 S
C1584 C1585 1.376 1_556 S
C1585 H1572 0.930 . S
C1585 C1584 1.376 1_554 S
C1585 C1586 1.388 1_554 S
C1586 H1573 0.930 1_556 S
C1586 C1585 1.388 1_556 S
C1586 C1587 1.390 1_655 S
C1587 C1586 1.390 1_455 S
C1587 C1588 1.394 . S
C1587 C1593 1.465 . S
C1588 C1583 1.399 . S
C1588 C1587 1.394 . S
C1588 C1589 1.516 . S
C1589 C1588 1.516 . S
C1589 C1590 1.502 1_455 S
C1589 C1591 1.561 . S
C1589 C1592 1.526 . S
C1590 H1574 0.959 . S
C1590 H1575 0.959 1_655 S
C1590 H1576 0.961 . S
C1590 C1589 1.502 1_655 S
C1591 H1577 0.960 . S
C1591 H1578 0.961 . S
C1591 H1579 0.959 . S
C1591 C1589 1.561 . S
C1592 C1589 1.526 . S
C1592 C1593 1.396 . S
C1592 C1597 1.390 . S
C1593 C1587 1.465 . S
C1593 C1592 1.396 . S
C1593 C1594 1.399 . S
C1594 H1580 0.929 . S
C1594 C1593 1.399 . S
C1594 C1595 1.385 . S
C1595 H1581 0.931 . S
C1595 C1594 1.385 . S
C1595 C1596 1.389 . S
C1596 C1595 1.389 . S
C1596 C1597 1.387 . S
C1597 H1582 0.930 . S
C1597 C1592 1.390 . S
C1597 C1596 1.387 . S
H1598 C1610 0.930 . S
H1599 C1612 0.930 . S
H1600 C1613 0.930 . S
H1601 C1617 0.959 . S
H1602 C1617 0.959 . S
H1603 C1617 0.961 . S
H1604 C1618 0.960 . S
H1605 C1618 0.961 . S
H1606 C1618 0.959 . S
H1607 C1621 0.929 . S
H1608 C1622 0.931 . S
H1609 C1624 0.930 . S
C1610 H1598 0.930 . S
C1610 C1611 1.399 . S
C1610 C1615 1.399 . S
C1611 C1610 1.399 . S
C1611 C1612 1.376 . S
C1612 H1599 0.930 . S
C1612 C1611 1.376 . S
C1612 C1613 1.388 . S
C1613 H1600 0.930 . S
C1613 C1612 1.388 . S
C1613 C1614 1.390 . S
C1614 C1613 1.390 . S
C1614 C1615 1.394 . S
C1614 C1620 1.465 . S
C1615 C1610 1.399 . S
C1615 C1614 1.394 . S
C1615 C1616 1.516 . S
C1616 C1615 1.516 . S
C1616 C1617 1.502 . S
C1616 C1618 1.561 . S
C1616 C1619 1.526 . S
C1617 H1601 0.959 . S
C1617 H1602 0.959 . S
C1617 H1603 0.961 . S
C1617 C1616 1.502 . S
C1618 H1604 0.960 . S
C1618 H1605 0.961 . S
C1618 H1606 0.959 . S
C1618 C1616 1.561 . S
C1619 C1616 1.526 . S
C1619 C1620 1.396 . S
C1619 C1624 1.390 . S
C1620 C1614 1.465 . S
C1620 C1619 1.396 . S
C1620 C1621 1.399 . S
C1621 H1607 0.929 . S
C1621 C1620 1.399 . S
C1621 C1622 1.385 . S
C1622 H1608 0.931 . S
C1622 C1621 1.385 . S
C1622 C1623 1.389 . S
C1623 C1622 1.389 . S
C1623 C1624 1.387 . S
C1624 H1609 0.930 . S
C1624 C1619 1.390 . S
C1624 C1623 1.387 . S
H1625 C1637 0.930 . S
H1626 C1639 0.930 . S
H1627 C1640 0.930 . S
H1628 C1644 0.959 . S
H1629 C1644 0.959 . S
H1630 C1644 0.961 . S
H1631 C1645 0.960 1_554 S
H1632 C1645 0.961 . S
H1633 C1645 0.959 . S
H1634 C1648 0.929 . S
H1635 C1649 0.931 . S
H1636 C1651 0.930 . S
C1637 H1625 0.930 . S
C1637 C1638 1.399 . S
C1637 C1642 1.399 . S
C1638 C1637 1.399 . S
C1638 C1639 1.376 . S
C1639 H1626 0.930 . S
C1639 C1638 1.376 . S
C1639 C1640 1.388 . S
C1640 H1627 0.930 . S
C1640 C1639 1.388 . S
C1640 C1641 1.390 . S
C1641 C1640 1.390 . S
C1641 C1642 1.394 . S
C1641 C1647 1.465 . S
C1642 C1637 1.399 . S
C1642 C1641 1.394 . S
C1642 C1643 1.516 . S
C1643 C1642 1.516 . S
C1643 C1644 1.502 1_455 S
C1643 C1645 1.561 . S
C1643 C1646 1.526 . S
C1644 H1628 0.959 . S
C1644 H1629 0.959 . S
C1644 H1630 0.961 . S
C1644 C1643 1.502 1_655 S
C1645 H1631 0.960 1_556 S
C1645 H1632 0.961 . S
C1645 H1633 0.959 . S
C1645 C1643 1.561 . S
C1646 C1643 1.526 . S
C1646 C1647 1.396 . S
C1646 C1651 1.390 . S
C1647 C1641 1.465 . S
C1647 C1646 1.396 . S
C1647 C1648 1.399 . S
C1648 H1634 0.929 . S
C1648 C1647 1.399 . S
C1648 C1649 1.385 . S
C1649 H1635 0.931 . S
C1649 C1648 1.385 . S
C1649 C1650 1.389 . S
C1650 C1649 1.389 . S
C1650 C1651 1.387 . S
C1651 H1636 0.930 . S
C1651 C1646 1.390 . S
C1651 C1650 1.387 . S
H1652 C1664 0.930 . S
H1653 C1666 0.930 . S
H1654 C1667 0.930 . S
H1655 C1671 0.959 . S
H1656 C1671 0.959 . S
H1657 C1671 0.961 . S
H1658 C1672 0.960 . S
H1659 C1672 0.961 . S
H1660 C1672 0.959 . S
H1661 C1675 0.929 . S
H1662 C1676 0.931 . S
H1663 C1678 0.930 . S
C1664 H1652 0.930 . S
C1664 C1665 1.399 . S
C1664 C1669 1.399 . S
C1665 C1664 1.399 . S
C1665 C1666 1.376 . S
C1666 H1653 0.930 . S
C1666 C1665 1.376 . S
C1666 C1667 1.388 . S
C1667 H1654 0.930 . S
C1667 C1666 1.388 . S
C1667 C1668 1.390 . S
C1668 C1667 1.390 . S
C1668 C1669 1.394 . S
C1668 C1674 1.465 . S
C1669 C1664 1.399 . S
C1669 C1668 1.394 . S
C1669 C1670 1.516 . S
C1670 C1669 1.516 . S
C1670 C1671 1.502 . S
C1670 C1672 1.561 . S
C1670 C1673 1.526 . S
C1671 H1655 0.959 . S
C1671 H1656 0.959 . S
C1671 H1657 0.961 . S
C1671 C1670 1.502 . S
C1672 H1658 0.960 . S
C1672 H1659 0.961 . S
C1672 H1660 0.959 . S
C1672 C1670 1.561 . S
C1673 C1670 1.526 . S
C1673 C1674 1.396 . S
C1673 C1678 1.390 . S
C1674 C1668 1.465 . S
C1674 C1673 1.396 . S
C1674 C1675 1.399 . S
C1675 H1661 0.929 . S
C1675 C1674 1.399 . S
C1675 C1676 1.385 . S
C1676 H1662 0.931 . S
C1676 C1675 1.385 . S
C1676 C1677 1.389 . S
C1677 C1676 1.389 . S
C1677 C1678 1.387 . S
C1678 H1663 0.930 . S
C1678 C1673 1.390 . S
C1678 C1677 1.387 . S
H1679 C1691 0.930 . S
H1680 C1693 0.930 1_556 S
H1681 C1694 0.930 . S
H1682 C1698 0.959 . S
H1683 C1698 0.959 . S
H1684 C1698 0.961 . S
H1685 C1699 0.960 . S
H1686 C1699 0.961 . S
H1687 C1699 0.959 . S
H1688 C1702 0.929 . S
H1689 C1703 0.931 . S
H1690 C1705 0.930 . S
C1691 H1679 0.930 . S
C1691 C1692 1.399 . S
C1691 C1696 1.399 . S
C1692 C1691 1.399 . S
C1692 C1693 1.376 . S
C1693 H1680 0.930 1_554 S
C1693 C1692 1.376 . S
C1693 C1694 1.388 . S
C1694 H1681 0.930 . S
C1694 C1693 1.388 . S
C1694 C1695 1.390 . S
C1695 C1694 1.390 . S
C1695 C1696 1.394 . S
C1695 C1701 1.465 . S
C1696 C1691 1.399 . S
C1696 C1695 1.394 . S
C1696 C1697 1.516 . S
C1697 C1696 1.516 . S
C1697 C1698 1.502 . S
C1697 C1699 1.561 . S
C1697 C1700 1.526 . S
C1698 H1682 0.959 . S
C1698 H1683 0.959 . S
C1698 H1684 0.961 . S
C1698 C1697 1.502 . S
C1699 H1685 0.960 . S
C1699 H1686 0.961 . S
C1699 H1687 0.959 . S
C1699 C1697 1.561 . S
C1700 C1697 1.526 . S
C1700 C1701 1.396 . S
C1700 C1705 1.390 . S
C1701 C1695 1.465 . S
C1701 C1700 1.396 . S
C1701 C1702 1.399 . S
C1702 H1688 0.929 . S
C1702 C1701 1.399 . S
C1702 C1703 1.385 . S
C1703 H1689 0.931 . S
C1703 C1702 1.385 . S
C1703 C1704 1.389 . S
C1704 C1703 1.389 . S
C1704 C1705 1.387 . S
C1705 H1690 0.930 . S
C1705 C1700 1.390 . S
C1705 C1704 1.387 . S
H1706 C1718 0.930 . S
H1707 C1720 0.930 . S
H1708 C1721 0.930 . S
H1709 C1725 0.959 . S
H1710 C1725 0.959 . S
H1711 C1725 0.961 . S
H1712 C1726 0.960 . S
H1713 C1726 0.961 . S
H1714 C1726 0.959 . S
H1715 C1729 0.929 . S
H1716 C1730 0.931 . S
H1717 C1732 0.930 . S
C1718 H1706 0.930 . S
C1718 C1719 1.399 . S
C1718 C1723 1.399 . S
C1719 C1718 1.399 . S
C1719 C1720 1.376 . S
C1720 H1707 0.930 . S
C1720 C1719 1.376 . S
C1720 C1721 1.388 . S
C1721 H1708 0.930 . S
C1721 C1720 1.388 . S
C1721 C1722 1.390 . S
C1722 C1721 1.390 . S
C1722 C1723 1.394 . S
C1722 C1728 1.465 . S
C1723 C1718 1.399 . S
C1723 C1722 1.394 . S
C1723 C1724 1.516 . S
C1724 C1723 1.516 . S
C1724 C1725 1.502 . S
C1724 C1726 1.561 . S
C1724 C1727 1.526 . S
C1725 H1709 0.959 . S
C1725 H1710 0.959 . S
C1725 H1711 0.961 . S
C1725 C1724 1.502 . S
C1726 H1712 0.960 . S
C1726 H1713 0.961 . S
C1726 H1714 0.959 . S
C1726 C1724 1.561 . S
C1727 C1724 1.526 . S
C1727 C1728 1.396 . S
C1727 C1732 1.390 . S
C1728 C1722 1.465 . S
C1728 C1727 1.396 . S
C1728 C1729 1.399 . S
C1729 H1715 0.929 . S
C1729 C1728 1.399 . S
C1729 C1730 1.385 . S
C1730 H1716 0.931 . S
C1730 C1729 1.385 . S
C1730 C1731 1.389 . S
C1731 C1730 1.389 . S
C1731 C1732 1.387 . S
C1732 H1717 0.930 . S
C1732 C1727 1.390 . S
C1732 C1731 1.387 . S
H1733 C1745 0.930 . S
H1734 C1747 0.930 . S
H1735 C1748 0.930 . S
H1736 C1752 0.959 . S
H1737 C1752 0.959 . S
H1738 C1752 0.961 . S
H1739 C1753 0.960 . S
H1740 C1753 0.961 . S
H1741 C1753 0.959 . S
H1742 C1756 0.929 . S
H1743 C1757 0.931 . S
H1744 C1759 0.930 . S
C1745 H1733 0.930 . S
C1745 C1746 1.399 . S
C1745 C1750 1.399 . S
C1746 C1745 1.399 . S
C1746 C1747 1.376 . S
C1747 H1734 0.930 . S
C1747 C1746 1.376 . S
C1747 C1748 1.388 . S
C1748 H1735 0.930 . S
C1748 C1747 1.388 . S
C1748 C1749 1.390 . S
C1749 C1748 1.390 . S
C1749 C1750 1.394 . S
C1749 C1755 1.465 . S
C1750 C1745 1.399 . S
C1750 C1749 1.394 . S
C1750 C1751 1.516 . S
C1751 C1750 1.516 . S
C1751 C1752 1.502 . S
C1751 C1753 1.561 . S
C1751 C1754 1.526 . S
C1752 H1736 0.959 . S
C1752 H1737 0.959 . S
C1752 H1738 0.961 . S
C1752 C1751 1.502 . S
C1753 H1739 0.960 . S
C1753 H1740 0.961 . S
C1753 H1741 0.959 . S
C1753 C1751 1.561 . S
C1754 C1751 1.526 . S
C1754 C1755 1.396 . S
C1754 C1759 1.390 . S
C1755 C1749 1.465 . S
C1755 C1754 1.396 . S
C1755 C1756 1.399 . S
C1756 H1742 0.929 . S
C1756 C1755 1.399 . S
C1756 C1757 1.385 . S
C1757 H1743 0.931 . S
C1757 C1756 1.385 . S
C1757 C1758 1.389 . S
C1758 C1757 1.389 . S
C1758 C1759 1.387 . S
C1759 H1744 0.930 . S
C1759 C1754 1.390 . S
C1759 C1758 1.387 . S
H1760 C1772 0.930 . S
H1761 C1774 0.930 . S
H1762 C1775 0.930 . S
H1763 C1779 0.959 . S
H1764 C1779 0.959 . S
H1765 C1779 0.961 . S
H1766 C1780 0.960 . S
H1767 C1780 0.961 . S
H1768 C1780 0.959 . S
H1769 C1783 0.929 . S
H1770 C1784 0.931 . S
H1771 C1786 0.930 . S
C1772 H1760 0.930 . S
C1772 C1773 1.399 . S
C1772 C1777 1.399 . S
C1773 C1772 1.399 . S
C1773 C1774 1.376 . S
C1774 H1761 0.930 . S
C1774 C1773 1.376 . S
C1774 C1775 1.388 . S
C1775 H1762 0.930 . S
C1775 C1774 1.388 . S
C1775 C1776 1.390 . S
C1776 C1775 1.390 . S
C1776 C1777 1.394 . S
C1776 C1782 1.465 . S
C1777 C1772 1.399 . S
C1777 C1776 1.394 . S
C1777 C1778 1.516 . S
C1778 C1777 1.516 . S
C1778 C1779 1.502 . S
C1778 C1780 1.561 . S
C1778 C1781 1.526 . S
C1779 H1763 0.959 . S
C1779 H1764 0.959 . S
C1779 H1765 0.961 . S
C1779 C1778 1.502 . S
C1780 H1766 0.960 . S
C1780 H1767 0.961 . S
C1780 H1768 0.959 . S
C1780 C1778 1.561 . S
C1781 C1778 1.526 . S
C1781 C1782 1.396 . S
C1781 C1786 1.390 . S
C1782 C1776 1.465 . S
C1782 C1781 1.396 . S
C1782 C1783 1.399 . S
C1783 H1769 0.929 . S
C1783 C1782 1.399 . S
C1783 C1784 1.385 . S
C1784 H1770 0.931 . S
C1784 C1783 1.385 . S
C1784 C1785 1.389 . S
C1785 C1784 1.389 . S
C1785 C1786 1.387 . S
C1786 H1771 0.930 . S
C1786 C1781 1.390 . S
C1786 C1785 1.387 . S
H1787 C1799 0.930 . S
H1788 C1801 0.930 . S
H1789 C1802 0.930 . S
H1790 C1806 0.959 . S
H1791 C1806 0.959 . S
H1792 C1806 0.961 . S
H1793 C1807 0.960 . S
H1794 C1807 0.961 . S
H1795 C1807 0.959 . S
H1796 C1810 0.929 . S
H1797 C1811 0.931 . S
H1798 C1813 0.930 . S
C1799 H1787 0.930 . S
C1799 C1800 1.399 . S
C1799 C1804 1.399 . S
C1800 C1799 1.399 . S
C1800 C1801 1.376 . S
C1801 H1788 0.930 . S
C1801 C1800 1.376 . S
C1801 C1802 1.388 . S
C1802 H1789 0.930 . S
C1802 C1801 1.388 . S
C1802 C1803 1.390 . S
C1803 C1802 1.390 . S
C1803 C1804 1.394 . S
C1803 C1809 1.465 . S
C1804 C1799 1.399 . S
C1804 C1803 1.394 . S
C1804 C1805 1.516 . S
C1805 C1804 1.516 . S
C1805 C1806 1.502 . S
C1805 C1807 1.561 . S
C1805 C1808 1.526 . S
C1806 H1790 0.959 . S
C1806 H1791 0.959 . S
C1806 H1792 0.961 . S
C1806 C1805 1.502 . S
C1807 H1793 0.960 . S
C1807 H1794 0.961 . S
C1807 H1795 0.959 . S
C1807 C1805 1.561 . S
C1808 C1805 1.526 . S
C1808 C1809 1.396 . S
C1808 C1813 1.390 . S
C1809 C1803 1.465 . S
C1809 C1808 1.396 . S
C1809 C1810 1.399 . S
C1810 H1796 0.929 . S
C1810 C1809 1.399 . S
C1810 C1811 1.385 . S
C1811 H1797 0.931 . S
C1811 C1810 1.385 . S
C1811 C1812 1.389 . S
C1812 C1811 1.389 . S
C1812 C1813 1.387 . S
C1813 H1798 0.930 . S
C1813 C1808 1.390 . S
C1813 C1812 1.387 . S
H1814 C1826 0.930 . S
H1815 C1828 0.930 . S
H1816 C1829 0.930 . S
H1817 C1833 0.959 . S
H1818 C1833 0.959 . S
H1819 C1833 0.961 . S
H1820 C1834 0.960 . S
H1821 C1834 0.961 . S
H1822 C1834 0.959 . S
H1823 C1837 0.929 . S
H1824 C1838 0.931 . S
H1825 C1840 0.930 . S
C1826 H1814 0.930 . S
C1826 C1827 1.399 . S
C1826 C1831 1.399 . S
C1827 C1826 1.399 . S
C1827 C1828 1.376 . S
C1828 H1815 0.930 . S
C1828 C1827 1.376 . S
C1828 C1829 1.388 . S
C1829 H1816 0.930 . S
C1829 C1828 1.388 . S
C1829 C1830 1.390 . S
C1830 C1829 1.390 . S
C1830 C1831 1.394 . S
C1830 C1836 1.465 . S
C1831 C1826 1.399 . S
C1831 C1830 1.394 . S
C1831 C1832 1.516 . S
C1832 C1831 1.516 . S
C1832 C1833 1.502 . S
C1832 C1834 1.561 . S
C1832 C1835 1.526 . S
C1833 H1817 0.959 . S
C1833 H1818 0.959 . S
C1833 H1819 0.961 . S
C1833 C1832 1.502 . S
C1834 H1820 0.960 . S
C1834 H1821 0.961 . S
C1834 H1822 0.959 . S
C1834 C1832 1.561 . S
C1835 C1832 1.526 . S
C1835 C1836 1.396 . S
C1835 C1840 1.390 . S
C1836 C1830 1.465 . S
C1836 C1835 1.396 . S
C1836 C1837 1.399 . S
C1837 H1823 0.929 . S
C1837 C1836 1.399 . S
C1837 C1838 1.385 . S
C1838 H1824 0.931 . S
C1838 C1837 1.385 . S
C1838 C1839 1.389 . S
C1839 C1838 1.389 . S
C1839 C1840 1.387 . S
C1840 H1825 0.930 . S
C1840 C1835 1.390 . S
C1840 C1839 1.387 . S
H1841 C1853 0.930 . S
H1842 C1855 0.930 . S
H1843 C1856 0.930 . S
H1844 C1860 0.959 . S
H1845 C1860 0.959 . S
H1846 C1860 0.961 . S
H1847 C1861 0.960 . S
H1848 C1861 0.961 . S
H1849 C1861 0.959 . S
H1850 C1864 0.929 . S
H1851 C1865 0.931 . S
H1852 C1867 0.930 . S
C1853 H1841 0.930 . S
C1853 C1854 1.399 . S
C1853 C1858 1.399 . S
C1854 C1853 1.399 . S
C1854 C1855 1.376 . S
C1855 H1842 0.930 . S
C1855 C1854 1.376 . S
C1855 C1856 1.388 . S
C1856 H1843 0.930 . S
C1856 C1855 1.388 . S
C1856 C1857 1.390 . S
C1857 C1856 1.390 . S
C1857 C1858 1.394 . S
C1857 C1863 1.465 . S
C1858 C1853 1.399 . S
C1858 C1857 1.394 . S
C1858 C1859 1.516 . S
C1859 C1858 1.516 . S
C1859 C1860 1.502 . S
C1859 C1861 1.561 . S
C1859 C1862 1.526 . S
C1860 H1844 0.959 . S
C1860 H1845 0.959 . S
C1860 H1846 0.961 . S
C1860 C1859 1.502 . S
C1861 H1847 0.960 . S
C1861 H1848 0.961 . S
C1861 H1849 0.959 . S
C1861 C1859 1.561 . S
C1862 C1859 1.526 . S
C1862 C1863 1.396 . S
C1862 C1867 1.390 . S
C1863 C1857 1.465 . S
C1863 C1862 1.396 . S
C1863 C1864 1.399 . S
C1864 H1850 0.929 . S
C1864 C1863 1.399 . S
C1864 C1865 1.385 . S
C1865 H1851 0.931 . S
C1865 C1864 1.385 . S
C1865 C1866 1.389 . S
C1866 C1865 1.389 . S
C1866 C1867 1.387 . S
C1867 H1852 0.930 . S
C1867 C1862 1.390 . S
C1867 C1866 1.387 . S
H1868 C1880 0.930 . S
H1869 C1882 0.930 . S
H1870 C1883 0.930 . S
H1871 C1887 0.959 . S
H1872 C1887 0.959 . S
H1873 C1887 0.961 . S
H1874 C1888 0.960 . S
H1875 C1888 0.961 . S
H1876 C1888 0.959 . S
H1877 C1891 0.929 . S
H1878 C1892 0.931 . S
H1879 C1894 0.930 . S
C1880 H1868 0.930 . S
C1880 C1881 1.399 . S
C1880 C1885 1.399 . S
C1881 C1880 1.399 . S
C1881 C1882 1.376 1_556 S
C1882 H1869 0.930 . S
C1882 C1881 1.376 1_554 S
C1882 C1883 1.388 . S
C1883 H1870 0.930 . S
C1883 C1882 1.388 . S
C1883 C1884 1.390 1_554 S
C1884 C1883 1.390 1_556 S
C1884 C1885 1.394 . S
C1884 C1890 1.465 1_556 S
C1885 C1880 1.399 . S
C1885 C1884 1.394 . S
C1885 C1886 1.516 . S
C1886 C1885 1.516 . S
C1886 C1887 1.502 . S
C1886 C1888 1.561 . S
C1886 C1889 1.526 . S
C1887 H1871 0.959 . S
C1887 H1872 0.959 . S
C1887 H1873 0.961 . S
C1887 C1886 1.502 . S
C1888 H1874 0.960 . S
C1888 H1875 0.961 . S
C1888 H1876 0.959 . S
C1888 C1886 1.561 . S
C1889 C1886 1.526 . S
C1889 C1890 1.396 1_556 S
C1889 C1894 1.390 . S
C1890 C1884 1.465 1_554 S
C1890 C1889 1.396 1_554 S
C1890 C1891 1.399 . S
C1891 H1877 0.929 . S
C1891 C1890 1.399 . S
C1891 C1892 1.385 . S
C1892 H1878 0.931 . S
C1892 C1891 1.385 . S
C1892 C1893 1.389 . S
C1893 C1892 1.389 . S
C1893 C1894 1.387 1_554 S
C1894 H1879 0.930 . S
C1894 C1889 1.390 . S
C1894 C1893 1.387 1_556 S
H1895 C1907 0.930 . S
H1896 C1909 0.930 . S
H1897 C1910 0.930 . S
H1898 C1914 0.959 . S
H1899 C1914 0.959 . S
H1900 C1914 0.961 . S
H1901 C1915 0.960 . S
H1902 C1915 0.961 . S
H1903 C1915 0.959 . S
H1904 C1918 0.929 . S
H1905 C1919 0.931 . S
H1906 C1921 0.930 . S
C1907 H1895 0.930 . S
C1907 C1908 1.399 . S
C1907 C1912 1.399 . S
C1908 C1907 1.399 . S
C1908 C1909 1.376 . S
C1909 H1896 0.930 . S
C1909 C1908 1.376 . S
C1909 C1910 1.388 . S
C1910 H1897 0.930 . S
C1910 C1909 1.388 . S
C1910 C1911 1.390 . S
C1911 C1910 1.390 . S
C1911 C1912 1.394 . S
C1911 C1917 1.465 . S
C1912 C1907 1.399 . S
C1912 C1911 1.394 . S
C1912 C1913 1.516 . S
C1913 C1912 1.516 . S
C1913 C1914 1.502 . S
C1913 C1915 1.561 . S
C1913 C1916 1.526 . S
C1914 H1898 0.959 . S
C1914 H1899 0.959 . S
C1914 H1900 0.961 . S
C1914 C1913 1.502 . S
C1915 H1901 0.960 . S
C1915 H1902 0.961 . S
C1915 H1903 0.959 . S
C1915 C1913 1.561 . S
C1916 C1913 1.526 . S
C1916 C1917 1.396 . S
C1916 C1921 1.390 . S
C1917 C1911 1.465 . S
C1917 C1916 1.396 . S
C1917 C1918 1.399 . S
C1918 H1904 0.929 . S
C1918 C1917 1.399 . S
C1918 C1919 1.385 . S
C1919 H1905 0.931 . S
C1919 C1918 1.385 . S
C1919 C1920 1.389 . S
C1920 C1919 1.389 . S
C1920 C1921 1.387 . S
C1921 H1906 0.930 . S
C1921 C1916 1.390 . S
C1921 C1920 1.387 . S
H1922 C1934 0.930 . S
H1923 C1936 0.930 . S
H1924 C1937 0.930 . S
H1925 C1941 0.959 1_554 S
H1926 C1941 0.959 . S
H1927 C1941 0.961 . S
H1928 C1942 0.960 . S
H1929 C1942 0.961 . S
H1930 C1942 0.959 . S
H1931 C1945 0.929 . S
H1932 C1946 0.931 . S
H1933 C1948 0.930 1_556 S
C1934 H1922 0.930 . S
C1934 C1935 1.399 . S
C1934 C1939 1.399 . S
C1935 C1934 1.399 . S
C1935 C1936 1.376 . S
C1936 H1923 0.930 . S
C1936 C1935 1.376 . S
C1936 C1937 1.388 . S
C1937 H1924 0.930 . S
C1937 C1936 1.388 . S
C1937 C1938 1.390 . S
C1938 C1937 1.390 . S
C1938 C1939 1.394 . S
C1938 C1944 1.465 . S
C1939 C1934 1.399 . S
C1939 C1938 1.394 . S
C1939 C1940 1.521 . S
C1940 C1939 1.521 . S
C1940 C1941 1.499 1_554 S
C1940 C1942 1.556 1_554 S
C1940 C1943 1.530 . S
C1941 H1925 0.959 1_556 S
C1941 H1926 0.959 . S
C1941 H1927 0.961 . S
C1941 C1940 1.499 1_556 S
C1942 H1928 0.960 . S
C1942 H1929 0.961 . S
C1942 H1930 0.959 . S
C1942 C1940 1.556 1_556 S
C1943 C1940 1.530 . S
C1943 C1944 1.396 . S
C1943 C1948 1.390 . S
C1944 C1938 1.465 . S
C1944 C1943 1.396 . S
C1944 C1945 1.399 . S
C1945 H1931 0.929 . S
C1945 C1944 1.399 . S
C1945 C1946 1.385 . S
C1946 H1932 0.931 . S
C1946 C1945 1.385 . S
C1946 C1947 1.389 . S
C1947 C1946 1.389 . S
C1947 C1948 1.387 . S
C1948 H1933 0.930 1_554 S
C1948 C1943 1.390 . S
C1948 C1947 1.387 . S
H1949 C1961 0.930 . S
H1950 C1963 0.930 1_545 S
H1951 C1964 0.930 . S
H1952 C1968 0.959 . S
H1953 C1968 0.959 . S
H1954 C1968 0.961 . S
H1955 C1969 0.955 1_554 S
H1956 C1969 0.960 1_554 S
H1957 C1969 0.989 . S
H1958 C1972 0.929 . S
H1959 C1973 0.931 . S
H1960 C1975 0.930 . S
C1961 H1949 0.930 . S
C1961 C1962 1.399 . S
C1961 C1966 1.399 . S
C1962 C1961 1.399 . S
C1962 C1963 1.376 . S
C1963 H1950 0.930 1_565 S
C1963 C1962 1.376 . S
C1963 C1964 1.388 . S
C1964 H1951 0.930 . S
C1964 C1963 1.388 . S
C1964 C1965 1.390 . S
C1965 C1964 1.390 . S
C1965 C1966 1.394 . S
C1965 C1971 1.465 . S
C1966 C1961 1.399 . S
C1966 C1965 1.394 . S
C1966 C1967 1.516 . S
C1967 C1966 1.516 . S
C1967 C1968 1.502 . S
C1967 C1969 1.536 1_554 S
C1967 C1970 1.526 . S
C1968 H1952 0.959 . S
C1968 H1953 0.959 . S
C1968 H1954 0.961 . S
C1968 C1967 1.502 . S
C1969 H1955 0.955 1_556 S
C1969 H1956 0.960 1_556 S
C1969 H1957 0.989 . S
C1969 C1967 1.536 1_556 S
C1970 C1967 1.526 . S
C1970 C1971 1.396 . S
C1970 C1975 1.390 . S
C1971 C1965 1.465 . S
C1971 C1970 1.396 . S
C1971 C1972 1.399 . S
C1972 H1958 0.929 . S
C1972 C1971 1.399 . S
C1972 C1973 1.385 . S
C1973 H1959 0.931 . S
C1973 C1972 1.385 . S
C1973 C1974 1.389 . S
C1974 C1973 1.389 . S
C1974 C1975 1.387 . S
C1975 H1960 0.930 . S
C1975 C1970 1.390 . S
C1975 C1974 1.387 . S
C705 C523 1.413 . S
C693 C177 1.437 . S
C732 C531 1.253 . S
C720 C209 1.518 . S
C747 C253 1.383 . S
C759 C551 1.362 . S
C786 C565 1.530 . S
C774 C157 1.519 1_655 S
C813 C580 1.539 . S
C801 C343 1.514 . S
C840 C594 1.496 . S
C828 C401 1.421 . S
C855 C369 1.526 . S
C867 C608 1.575 . S
C894 C614 1.453 . S
C882 C317 1.470 . S
C909 C375 1.488 . S
C921 C628 1.507 . S
C948 C649 1.562 . S
C936 C305 1.545 . S
C963 C349 1.462 . S
C975 C629 1.238 . S
C1002 C650 1.532 . S
C990 C413 1.469 . S
C1017 C241 1.400 . S
C1029 C657 1.274 . S
C1044 C151 1.442 . S
C1056 C663 1.457 . S
C1071 C189 1.475 . S
C1083 C656 1.439 . S
C1098 C215 1.442 . S
C1110 C664 1.468 . S
C1125 C113 1.483 . S
C1137 C558 1.422 . S
C1152 C471 1.439 . S
C1164 C559 1.194 . S
C1191 C516 1.508 . S
C1179 C509 1.510 . S
C1218 C537 1.460 . S
C1206 C279 1.421 . S
C1233 C145 1.439 . S
C1245 C572 1.408 . S
C1272 C622 1.562 . S
C1260 C381 1.513 . S
C1299 C573 1.206 . S
C1287 C311 1.419 . S
C1326 C601 1.259 . S
C1314 C407 1.516 . S
C1353 C607 1.411 . S
C1341 C465 1.390 . S
C1368 C497 1.557 . S
C1380 C615 1.354 . S
C1395 C285 1.392 . S
C1407 C579 1.377 . S
C1434 C593 1.486 . S
C1422 C445 1.460 . S
C1449 C119 1.480 . S
C1461 C552 1.536 . S
C1488 C566 1.496 . S
C1476 C17 1.422 . S
C1515 C524 1.567 . S
C1503 C49 1.540 . S
C1542 C530 1.400 . S
C1530 C93 1.425 . S
C1557 C55 1.491 . S
C1569 C642 1.504 . S
C1584 C81 1.576 1_556 S
C1596 C635 1.538 . S
C1611 C125 1.433 . S
C1623 C643 1.310 . S
C1638 C29 1.462 . S
C1650 C636 1.528 . S
C1677 C671 1.132 . S
C1665 C273 1.430 . S
C1704 C677 1.456 . S
C1692 C439 1.440 . S
C1731 C670 1.491 . S
C1719 C477 1.498 . S
C1746 C503 1.457 . S
C1758 C678 1.467 . S
C1773 C337 1.480 . S
C1785 C586 1.408 . S
C1812 C587 1.272 . S
C1800 C183 1.465 . S
C1839 C600 1.505 . S
C1827 C221 1.510 . S
C1866 C621 1.457 . S
C1854 C247 1.438 . S
C1881 C433 1.445 . S
C1893 C544 1.393 . S
C1920 C538 1.562 . S
C1908 C61 1.536 . S
C1935 C87 1.467 . S
C1947 C545 1.257 . S
C1974 C517 1.344 . S
C1962 C23 1.477 . S
