# Generated by pormake.
# Topology anh, (6,3)-cn, num edge types: 1
# Building blocks:
#     Node 0, Type 0, BuildingBlock: MIFKUJ_clean_sbu_0, # of connection points: 6
#     Node 1, Type 0, BuildingBlock: MIFKUJ_clean_sbu_0, # of connection points: 6
#     Node 2, Type 0, BuildingBlock: MIFKUJ_clean_sbu_0, # of connection points: 6
#     Node 3, Type 1, BuildingBlock: CUQRIR_clean_linker_1, # of connection points: 3
#     Node 4, Type 1, BuildingBlock: CUQRIR_clean_linker_1, # of connection points: 3
#     Node 5, Type 1, BuildingBlock: CUQRIR_clean_linker_1, # of connection points: 3
#     Node 6, Type 1, BuildingBlock: CUQRIR_clean_linker_1, # of connection points: 3
#     Node 7, Type 1, BuildingBlock: CUQRIR_clean_linker_1, # of connection points: 3
#     Node 8, Type 1, BuildingBlock: CUQRIR_clean_linker_1, # of connection points: 3
#     Edge 9, Type (0, 1), BuildingBlock: AJUNOK_clean_linker_0, # of connection points: 2
#     Edge 10, Type (0, 1), BuildingBlock: AJUNOK_clean_linker_0, # of connection points: 2
#     Edge 11, Type (0, 1), BuildingBlock: AJUNOK_clean_linker_0, # of connection points: 2
#     Edge 12, Type (0, 1), BuildingBlock: AJUNOK_clean_linker_0, # of connection points: 2
#     Edge 13, Type (0, 1), BuildingBlock: AJUNOK_clean_linker_0, # of connection points: 2
#     Edge 14, Type (0, 1), BuildingBlock: AJUNOK_clean_linker_0, # of connection points: 2
#     Edge 15, Type (0, 1), BuildingBlock: AJUNOK_clean_linker_0, # of connection points: 2
#     Edge 16, Type (0, 1), BuildingBlock: AJUNOK_clean_linker_0, # of connection points: 2
#     Edge 17, Type (0, 1), BuildingBlock: AJUNOK_clean_linker_0, # of connection points: 2
#     Edge 18, Type (0, 1), BuildingBlock: AJUNOK_clean_linker_0, # of connection points: 2
#     Edge 19, Type (0, 1), BuildingBlock: AJUNOK_clean_linker_0, # of connection points: 2
#     Edge 20, Type (0, 1), BuildingBlock: AJUNOK_clean_linker_0, # of connection points: 2
#     Edge 21, Type (0, 1), BuildingBlock: AJUNOK_clean_linker_0, # of connection points: 2
#     Edge 22, Type (0, 1), BuildingBlock: AJUNOK_clean_linker_0, # of connection points: 2
#     Edge 23, Type (0, 1), BuildingBlock: AJUNOK_clean_linker_0, # of connection points: 2
#     Edge 24, Type (0, 1), BuildingBlock: AJUNOK_clean_linker_0, # of connection points: 2
#     Edge 25, Type (0, 1), BuildingBlock: AJUNOK_clean_linker_0, # of connection points: 2
#     Edge 26, Type (0, 1), BuildingBlock: AJUNOK_clean_linker_0, # of connection points: 2
# Relax obj value: 0.116
# Max RMSD: 0.218
# Mean RMSD: 0.155
data_MOF--net-anh--node1-MIFKUJ_clean_sbu_0--node2-CUQRIR_clean_linker_1--edge1-AJUNOK_clean_linker_0
_symmetry_space_group_name_H-M    P1
_symmetry_Int_Tables_number       1
_symmetry_cell_setting            triclinic
loop_
_symmetry_equiv_pos_as_xyz
'x, y, z'
_cell_length_a     21.606537
_cell_length_b     21.734266
_cell_length_c     30.670891
_cell_angle_alpha  87.807225
_cell_angle_beta   91.52952
_cell_angle_gamma 119.4141
loop_
_atom_site_label
_atom_site_type_symbol
_atom_site_fract_x
_atom_site_fract_y
_atom_site_fract_z
_atom_type_partial_charge
Zn0 Zn 0.06672 0.56738 0.16373 0.0
Zn1 Zn 0.86076 0.42946 0.16695 0.0
C2 C 0.14525 0.48787 0.16749 0.0
O3 O 0.11492 0.46222 0.20538 0.0
C4 C 0.73632 0.43177 0.13387 0.0
O5 O 0.7292 0.37452 0.11618 0.0
O6 O 0.13632 0.66983 0.16761 0.0
O7 O 0.98639 0.55245 0.12513 0.0
O8 O 0.91617 0.44207 0.11109 0.0
C9 C 0.18619 0.69717 0.14001 0.0
O10 O 0.18325 0.66044 0.10621 0.0
O11 O 0.12673 0.52572 0.14393 0.0
C12 C 0.75042 0.30408 0.20518 0.0
O13 O 0.73973 0.35079 0.22467 0.0
O14 O 0.79993 0.32503 0.17749 0.0
O15 O 0.91551 0.46024 0.22541 0.0
O16 O 0.03283 0.53363 0.22353 0.0
O17 O 0.79181 0.46874 0.15676 0.0
C18 C 0.96733 0.5019 0.09966 0.0
C19 C 0.97576 0.49545 0.24423 0.0
Zn20 Zn 0.72405 0.13387 0.49427 0.0
Zn21 Zn 0.62768 0.9193 0.49848 0.0
C22 C 0.85786 0.25084 0.50684 0.0
O23 O 0.82077 0.25542 0.53858 0.0
C24 C 0.501 0.81498 0.45965 0.0
O25 O 0.54801 0.80122 0.44281 0.0
O26 O 0.69097 0.20541 0.4971 0.0
O27 O 0.67271 0.07616 0.44294 0.0
O28 O 0.68203 0.97932 0.44581 0.0
C29 C 0.62724 0.19136 0.50237 0.0
O30 O 0.57681 0.12497 0.50449 0.0
O31 O 0.82957 0.19592 0.48384 0.0
C32 C 0.60565 0.79314 0.53873 0.0
O33 O 0.56039 0.80673 0.55813 0.0
O34 O 0.64844 0.83857 0.51121 0.0
O35 O 0.64106 0.9677 0.55569 0.0
O36 O 0.70065 0.08546 0.55319 0.0
O37 O 0.52265 0.8686 0.48341 0.0
C38 C 0.66175 0.01912 0.42625 0.0
C39 C 0.66942 0.02682 0.5743 0.0
Zn40 Zn 0.64418 0.5691 0.81689 0.0
Zn41 Zn 0.49276 0.63561 0.83336 0.0
C42 C 0.62877 0.43514 0.82383 0.0
O43 O 0.67637 0.47053 0.85392 0.0
C44 C 0.49065 0.76158 0.81168 0.0
O45 O 0.4279 0.71325 0.79788 0.0
O46 O 0.74891 0.61653 0.80484 0.0
O47 O 0.5918 0.61648 0.79427 0.0
O48 O 0.49066 0.60272 0.77165 0.0
C49 C 0.77075 0.58968 0.77706 0.0
O50 O 0.72472 0.54464 0.74949 0.0
O51 O 0.60174 0.4667 0.8014 0.0
C52 C 0.37256 0.61343 0.88617 0.0
O53 O 0.42204 0.66551 0.90854 0.0
O54 O 0.39083 0.59084 0.85398 0.0
O55 O 0.5505 0.60563 0.8759 0.0
O56 O 0.63048 0.56912 0.88124 0.0
O57 O 0.53229 0.74179 0.82922 0.0
C58 C 0.54468 0.59634 0.76476 0.0
C59 C 0.58883 0.58659 0.89895 0.0
C60 C 0.50087 0.97531 0.19037 0.0
N61 N 0.5519 0.00774 0.22092 0.0
N62 N 0.45686 0.90756 0.20282 0.0
C63 C 0.49031 0.01114 0.15025 0.0
C64 C 0.48288 0.8998 0.24202 0.0
N65 N 0.54125 0.96068 0.2529 0.0
C66 C 0.44663 0.83574 0.27188 0.0
H67 H 0.45502 0.03268 0.15832 0.0
H68 H 0.46464 0.97301 0.12376 0.0
H69 H 0.54175 0.05545 0.1387 0.0
H70 H 0.48648 0.82411 0.28797 0.0
H71 H 0.40738 0.78887 0.25388 0.0
H72 H 0.41881 0.84678 0.29778 0.0
C73 C 0.59723 0.48096 0.53726 0.0
N74 N 0.58899 0.52093 0.56687 0.0
N75 N 0.58409 0.41811 0.55571 0.0
C76 C 0.61586 0.50217 0.49021 0.0
C77 C 0.56849 0.42159 0.59766 0.0
N78 N 0.57067 0.4837 0.60427 0.0
C79 C 0.55648 0.36675 0.63283 0.0
H80 H 0.592 0.53452 0.47772 0.0
H81 H 0.59753 0.45506 0.46988 0.0
H82 H 0.67445 0.53466 0.4875 0.0
H83 H 0.58485 0.33748 0.62556 0.0
H84 H 0.49882 0.32837 0.63456 0.0
H85 H 0.57429 0.39125 0.66512 0.0
C86 C 0.0578 0.56555 0.85142 0.0
N87 N 0.08326 0.55381 0.88996 0.0
N88 N 0.99402 0.56143 0.85711 0.0
C89 C 0.09703 0.58571 0.80894 0.0
C90 C 0.98145 0.54694 0.90017 0.0
N91 N 0.03566 0.54267 0.92023 0.0
C92 C 0.91741 0.54015 0.92296 0.0
H93 H 0.07855 0.61522 0.78692 0.0
H94 H 0.08683 0.53692 0.79258 0.0
H95 H 0.15513 0.61816 0.81461 0.0
H96 H 0.90292 0.50272 0.95139 0.0
H97 H 0.87121 0.52204 0.90032 0.0
H98 H 0.9302 0.59265 0.93499 0.0
C99 C 0.16581 0.54454 0.46529 0.0
N100 N 0.10249 0.50557 0.4451 0.0
N101 N 0.20524 0.60629 0.44292 0.0
C102 C 0.1892 0.5222 0.50658 0.0
C103 C 0.16368 0.60322 0.40834 0.0
N104 N 0.10058 0.54254 0.41014 0.0
C105 C 0.1875 0.65611 0.37066 0.0
H106 H 0.14347 0.49204 0.52869 0.0
H107 H 0.23141 0.56863 0.52354 0.0
H108 H 0.21061 0.48705 0.49825 0.0
H109 H 0.24626 0.68625 0.36839 0.0
H110 H 0.16802 0.694 0.37555 0.0
H111 H 0.16516 0.62959 0.33937 0.0
C112 C 0.56667 0.10117 0.8008 0.0
N113 N 0.57635 0.05544 0.77683 0.0
N114 N 0.5906 0.16395 0.77898 0.0
C115 C 0.53457 0.08527 0.84548 0.0
C116 C 0.61632 0.15548 0.74136 0.0
N117 N 0.60803 0.08968 0.74011 0.0
C118 C 0.64945 0.21144 0.70573 0.0
H119 H 0.47884 0.07444 0.84253 0.0
H120 H 0.56372 0.13163 0.86645 0.0
H121 H 0.53508 0.03872 0.86124 0.0
H122 H 0.63522 0.25368 0.70825 0.0
H123 H 0.63282 0.18754 0.6732 0.0
H124 H 0.70811 0.23603 0.70831 0.0
C125 C 0.45505 0.48415 0.13858 0.0
N126 N 0.50913 0.49951 0.11088 0.0
N127 N 0.40692 0.4999 0.11942 0.0
C128 C 0.45112 0.45692 0.18473 0.0
C129 C 0.43346 0.52493 0.07921 0.0
N130 N 0.49603 0.52608 0.0743 0.0
C131 C 0.39386 0.54051 0.04308 0.0
H132 H 0.42477 0.3984 0.18494 0.0
H133 H 0.41985 0.47256 0.20521 0.0
H134 H 0.50527 0.47703 0.19881 0.0
H135 H 0.40789 0.59688 0.04377 0.0
H136 H 0.33559 0.50772 0.04742 0.0
H137 H 0.40778 0.53024 0.01061 0.0
C138 C 0.27082 0.55269 0.14334 0.0
C139 C 0.21214 0.4887 0.15732 0.0
C140 C 0.33556 0.55649 0.13379 0.0
C141 C 0.34383 0.49625 0.13684 0.0
H142 H 0.26689 0.60046 0.13999 0.0
H143 H 0.37921 0.60664 0.12267 0.0
S144 S 0.20685 0.31622 0.17224 0.0
N145 N 0.16706 0.36427 0.1755 0.0
N146 N 0.28822 0.37076 0.15494 0.0
C147 C 0.28617 0.43217 0.15154 0.0
C148 C 0.2204 0.42858 0.16235 0.0
C149 C 0.93052 0.38176 0.49926 0.0
C150 C 0.9236 0.31484 0.49252 0.0
C151 C 0.98912 0.44372 0.48347 0.0
C152 C 0.04349 0.44112 0.46126 0.0
H153 H 0.88935 0.38635 0.5158 0.0
H154 H 0.99216 0.49419 0.4885 0.0
S155 S 0.0538 0.28109 0.43684 0.0
N156 N 0.97744 0.25043 0.46247 0.0
N157 N 0.08938 0.36804 0.43451 0.0
C158 C 0.03867 0.37535 0.45515 0.0
C159 C 0.97813 0.31184 0.47031 0.0
C160 C 0.58467 0.88855 0.80074 0.0
C161 C 0.51244 0.8375 0.80533 0.0
C162 C 0.60545 0.95994 0.7916 0.0
C163 C 0.55487 0.98269 0.78771 0.0
H164 H 0.62522 0.87299 0.80306 0.0
H165 H 0.66126 -0.0023 0.78739 0.0
S166 S 0.35995 0.87153 0.79795 0.0
N167 N 0.39062 0.81574 0.80598 0.0
N168 N 0.43039 0.94985 0.78932 0.0
C169 C 0.48298 0.93279 0.79307 0.0
C170 C 0.46159 0.86019 0.80172 0.0
C171 C 0.69212 0.52003 0.12747 0.0
C172 C 0.67792 0.44935 0.1291 0.0
C173 C 0.63689 0.53649 0.12112 0.0
C174 C 0.56573 0.48282 0.11734 0.0
H175 H 0.74628 0.56282 0.13021 0.0
H176 H 0.6496 0.59131 0.11939 0.0
S177 S 0.49957 0.29015 0.12086 0.0
N178 N 0.58649 0.32558 0.12706 0.0
N179 N 0.48377 0.35713 0.11599 0.0
C180 C 0.5508 0.41239 0.11955 0.0
C181 C 0.60662 0.39551 0.12522 0.0
C182 C 0.40359 0.69152 0.44885 0.0
C183 C 0.42443 0.76279 0.4561 0.0
C184 C 0.33172 0.64014 0.44607 0.0
C185 C 0.27828 0.65832 0.45 0.0
H186 H 0.44307 0.67502 0.44558 0.0
H187 H 0.31764 0.58607 0.43986 0.0
S188 S 0.30338 0.83619 0.4694 0.0
N189 N 0.38499 0.8482 0.46777 0.0
N190 N 0.24969 0.75112 0.46177 0.0
C191 C 0.29789 0.72883 0.45751 0.0
C192 C 0.37106 0.78121 0.46084 0.0
C193 C 0.65532 0.33584 0.83377 0.0
C194 C 0.61315 0.36253 0.81413 0.0
C195 C 0.64581 0.26958 0.82335 0.0
C196 C 0.59354 0.22741 0.79329 0.0
H197 H 0.69755 0.36711 0.85649 0.0
H198 H 0.68084 0.25188 0.83783 0.0
S199 S 0.46658 0.26932 0.73436 0.0
N200 N 0.51505 0.33928 0.76407 0.0
N201 N 0.49736 0.21415 0.74511 0.0
C202 C 0.54963 0.25188 0.77434 0.0
C203 C 0.55941 0.31963 0.7846 0.0
C204 C 0.66034 0.71414 0.53856 0.0
C205 C 0.60118 0.72313 0.54579 0.0
C206 C 0.65627 0.64786 0.5454 0.0
C207 C 0.59282 0.58854 0.55923 0.0
H208 H 0.71028 0.75872 0.52813 0.0
H209 H 0.703 0.6429 0.54027 0.0
S210 S 0.42099 0.58145 0.57806 0.0
N211 N 0.47587 0.66514 0.56497 0.0
N212 N 0.46874 0.54119 0.57665 0.0
C213 C 0.53309 0.59628 0.56539 0.0
C214 C 0.53713 0.66343 0.55895 0.0
C215 C 0.89156 0.64524 0.81104 0.0
C216 C 0.83883 0.59056 0.78624 0.0
C217 C 0.94696 0.63826 0.83095 0.0
C218 C 0.95152 0.5766 0.82663 0.0
H219 H 0.88723 0.6916 0.81763 0.0
H220 H 0.98348 0.67886 0.85255 0.0
S221 S 0.83197 0.42087 0.7625 0.0
N222 N 0.79891 0.47486 0.75563 0.0
N223 N 0.90328 0.46258 0.79374 0.0
C224 C 0.90298 0.52412 0.79935 0.0
C225 C 0.84654 0.53098 0.77884 0.0
C226 C 0.31717 0.77278 0.13143 0.0
C227 C 0.25399 0.75974 0.15189 0.0
C228 C 0.38366 0.82272 0.14757 0.0
C229 C 0.38882 0.86121 0.18433 0.0
H230 H 0.31564 0.74187 0.10413 0.0
H231 H 0.4314 0.82979 0.13226 0.0
S232 S 0.24137 0.85468 0.24642 0.0
N233 N 0.20177 0.79504 0.20862 0.0
N234 N 0.32752 0.88911 0.23842 0.0
C235 C 0.32681 0.85209 0.20354 0.0
C236 C 0.25908 0.80132 0.18735 0.0
C237 C 0.66922 0.31991 0.51159 0.0
C238 C 0.61248 0.24972 0.51093 0.0
C239 C 0.65895 0.37543 0.52434 0.0
C240 C 0.59177 0.36281 0.53687 0.0
H241 H 0.72263 0.33201 0.50356 0.0
H242 H 0.70422 0.42811 0.52615 0.0
S243 S 0.4244 0.19197 0.53672 0.0
N244 N 0.48517 0.17265 0.52081 0.0
N245 N 0.4669 0.27782 0.5449 0.0
C246 C 0.53409 0.2942 0.53451 0.0
C247 C 0.54417 0.23745 0.52143 0.0
C248 C 0.27685 0.63198 0.91719 0.0
C249 C 0.29623 0.58965 0.89361 0.0
C250 C 0.20592 0.61725 0.91856 0.0
C251 C 0.15188 0.55924 0.89698 0.0
H252 H 0.31713 0.67922 0.93262 0.0
H253 H 0.19402 0.65388 0.93424 0.0
S254 S 0.17171 0.42634 0.83611 0.0
N255 N 0.2534 0.48285 0.85191 0.0
N256 N 0.12039 0.4555 0.8552 0.0
C257 C 0.16949 0.51388 0.87595 0.0
C258 C 0.24155 0.52892 0.87414 0.0
C259 C 0.62897 0.20411 0.21924 0.0
C260 C 0.70151 0.22809 0.21258 0.0
C261 C 0.58034 0.1318 0.22302 0.0
C262 C 0.60308 0.08155 0.22133 0.0
H263 H 0.60925 0.24128 0.21993 0.0
H264 H 0.52443 0.11473 0.22659 0.0
S265 S 0.78714 0.11663 0.20801 0.0
N266 N 0.79398 0.19585 0.20649 0.0
N267 N 0.7019 0.0596 0.2149 0.0
C268 C 0.67541 0.10462 0.21652 0.0
C269 C 0.72489 0.17812 0.21173 0.0
C270 C 0.98806 0.45696 0.03023 0.0
C271 C 1.00014 0.51433 0.0559 0.0
C272 C 0.00859 0.46734 0.98626 0.0
C273 C 0.04182 0.53524 0.9666 0.0
H274 H 0.95915 0.40339 0.04345 0.0
H275 H 0.99294 0.42171 0.96646 0.0
S276 S 0.0901 0.70324 0.01937 0.0
N277 N 0.05239 0.64232 0.05845 0.0
N278 N 0.08941 0.66041 0.97592 0.0
C279 C 0.05866 0.59311 0.99249 0.0
C280 C 0.03813 0.58301 0.03711 0.0
C281 C 0.64428 0.96207 0.3538 0.0
C282 C 0.63002 0.00326 0.38191 0.0
C283 C 0.61622 0.94932 0.31116 0.0
C284 C 0.57285 0.9769 0.29564 0.0
H285 H 0.67798 0.9404 0.36455 0.0
H286 H 0.62814 0.91764 0.29016 0.0
S287 S 0.51333 0.08129 0.35696 0.0
N288 N 0.5658 0.06784 0.39143 0.0
N289 N 0.51256 0.04209 0.31175 0.0
C290 C 0.55676 0.01637 0.32349 0.0
C291 C 0.58547 0.02996 0.36657 0.0
C292 C 0.61622 0.59193 0.70423 0.0
C293 C 0.55041 0.56287 0.7254 0.0
C294 C 0.62241 0.56595 0.66444 0.0
C295 C 0.56343 0.50915 0.64527 0.0
H296 H 0.66273 0.63647 0.71783 0.0
H297 H 0.67345 0.5902 0.64844 0.0
S298 S 0.38089 0.41151 0.68872 0.0
N299 N 0.42566 0.47292 0.72483 0.0
N300 N 0.43846 0.4224 0.65069 0.0
C301 C 0.49805 0.47804 0.66669 0.0
C302 C 0.49119 0.50549 0.70663 0.0
C303 C 0.7104 0.08038 0.64695 0.0
C304 C 0.65654 0.02907 0.621 0.0
C305 C 0.69522 0.09536 0.68804 0.0
C306 C 0.62546 0.061 0.70391 0.0
H307 H 0.76386 0.11151 0.63449 0.0
H308 H 0.7373 0.13731 0.70639 0.0
S309 S 0.46639 0.92001 0.64974 0.0
N310 N 0.53183 0.93999 0.61554 0.0
N311 N 0.50291 0.97143 0.69182 0.0
C312 C 0.572 0.00689 0.6795 0.0
C313 C 0.58768 0.99019 0.63814 0.0
C314 C 0.56624 0.51335 0.96728 0.0
C315 C 0.57915 0.57737 0.94645 0.0
C316 C 0.5447 0.49852 0.01098 0.0
C317 C 0.53746 0.54811 0.03515 0.0
H318 H 0.56788 0.47261 0.94888 0.0
H319 H 0.52874 0.44639 0.0249 0.0
S320 S 0.57784 0.72797 0.99789 0.0
N321 N 0.5909 0.69331 0.95442 0.0
N322 N 0.55469 0.66698 0.03734 0.0
C323 C 0.5572 0.61475 0.01586 0.0
C324 C 0.57671 0.62895 0.97117 0.0
C325 C 0.01234 0.44915 0.30854 0.0
C326 C 0.98289 0.49025 0.29172 0.0
C327 C 0.04476 0.46171 0.34988 0.0
C328 C 0.04896 0.51593 0.37536 0.0
H329 H 0.01598 0.41148 0.28811 0.0
H330 H 0.07263 0.43364 0.36011 0.0
S331 S 0.97292 0.63254 0.34816 0.0
N332 N 0.95424 0.58268 0.3051 0.0
N333 N 0.0148 0.60572 0.3832 0.0
C334 C 0.01438 0.55309 0.3605 0.0
C335 C 0.98144 0.54043 0.31843 0.0
loop_
_geom_bond_atom_site_label_1
_geom_bond_atom_site_label_2
_geom_bond_distance
_geom_bond_site_symmetry_2
_ccdc_geom_bond_type
Zn0 O6 1.969 . S
Zn0 O7 1.965 . S
Zn0 O11 2.024 . S
Zn0 O16 1.969 . S
Zn1 O8 1.969 . S
Zn1 O14 1.969 . S
Zn1 O15 1.965 . S
Zn1 O17 2.024 . S
C2 O3 1.229 . S
C2 O11 1.058 . S
O3 C2 1.229 . S
C4 O5 1.229 . S
C4 O17 1.058 . S
O5 C4 1.229 . S
O6 Zn0 1.969 . S
O6 C9 1.267 . S
O7 Zn0 1.965 . S
O7 C18 1.260 1_455 S
O8 Zn1 1.969 . S
O8 C18 1.258 . S
C9 O6 1.267 . S
C9 O10 1.228 . S
O10 C9 1.228 . S
O11 Zn0 2.024 . S
O11 C2 1.058 . S
C12 O13 1.228 . S
C12 O14 1.267 . S
O13 C12 1.228 . S
O14 Zn1 1.969 . S
O14 C12 1.267 . S
O15 Zn1 1.965 . S
O15 C19 1.260 1_655 S
O16 Zn0 1.969 . S
O16 C19 1.258 . S
O17 Zn1 2.024 . S
O17 C4 1.058 . S
C18 O7 1.260 1_655 S
C18 O8 1.258 . S
C19 O15 1.260 1_455 S
C19 O16 1.258 . S
Zn20 O26 1.969 . S
Zn20 O27 1.965 . S
Zn20 O31 2.024 . S
Zn20 O36 1.969 . S
Zn21 O28 1.969 . S
Zn21 O34 1.969 . S
Zn21 O35 1.965 . S
Zn21 O37 2.024 . S
C22 O23 1.229 . S
C22 O31 1.058 . S
O23 C22 1.229 . S
C24 O25 1.229 . S
C24 O37 1.058 . S
O25 C24 1.229 . S
O26 Zn20 1.969 . S
O26 C29 1.267 . S
O27 Zn20 1.965 . S
O27 C38 1.260 . S
O28 Zn21 1.969 . S
O28 C38 1.258 1_565 S
C29 O26 1.267 . S
C29 O30 1.228 . S
O30 C29 1.228 . S
O31 Zn20 2.024 . S
O31 C22 1.058 . S
C32 O33 1.228 . S
C32 O34 1.267 . S
O33 C32 1.228 . S
O34 Zn21 1.969 . S
O34 C32 1.267 . S
O35 Zn21 1.965 . S
O35 C39 1.260 1_565 S
O36 Zn20 1.969 . S
O36 C39 1.258 . S
O37 Zn21 2.024 . S
O37 C24 1.058 . S
C38 O27 1.260 . S
C38 O28 1.258 1_545 S
C39 O35 1.260 1_545 S
C39 O36 1.258 . S
Zn40 O46 1.969 . S
Zn40 O47 1.965 . S
Zn40 O51 2.024 . S
Zn40 O56 1.969 . S
Zn41 O48 1.969 . S
Zn41 O54 1.969 . S
Zn41 O55 1.965 . S
Zn41 O57 2.024 . S
C42 O43 1.229 . S
C42 O51 1.058 . S
O43 C42 1.229 . S
C44 O45 1.229 . S
C44 O57 1.058 . S
O45 C44 1.229 . S
O46 Zn40 1.969 . S
O46 C49 1.267 . S
O47 Zn40 1.965 . S
O47 C58 1.260 . S
O48 Zn41 1.969 . S
O48 C58 1.258 . S
C49 O46 1.267 . S
C49 O50 1.228 . S
O50 C49 1.228 . S
O51 Zn40 2.024 . S
O51 C42 1.058 . S
C52 O53 1.228 . S
C52 O54 1.267 . S
O53 C52 1.228 . S
O54 Zn41 1.969 . S
O54 C52 1.267 . S
O55 Zn41 1.965 . S
O55 C59 1.260 . S
O56 Zn40 1.969 . S
O56 C59 1.258 . S
O57 Zn41 2.024 . S
O57 C44 1.058 . S
C58 O47 1.260 . S
C58 O48 1.258 . S
C59 O55 1.260 . S
C59 O56 1.258 . S
C60 N61 1.317 . S
C60 N62 1.348 1_545 S
C60 C63 1.485 . S
N61 C60 1.317 . S
N61 N65 1.370 . S
N62 C60 1.348 1_565 S
N62 C64 1.346 . S
C63 C60 1.485 . S
C63 H67 0.960 . S
C63 H68 0.961 1_545 S
C63 H69 0.960 . S
C64 N62 1.346 . S
C64 N65 1.307 1_565 S
C64 C66 1.486 . S
N65 N61 1.370 . S
N65 C64 1.307 1_545 S
C66 C64 1.486 . S
C66 H70 0.960 . S
C66 H71 0.960 . S
C66 H72 0.959 . S
H67 C63 0.960 . S
H68 C63 0.961 1_565 S
H69 C63 0.960 . S
H70 C66 0.960 . S
H71 C66 0.960 . S
H72 C66 0.959 . S
C73 N74 1.317 . S
C73 N75 1.348 . S
C73 C76 1.485 . S
N74 C73 1.317 . S
N74 N78 1.370 . S
N75 C73 1.348 . S
N75 C77 1.346 . S
C76 C73 1.485 . S
C76 H80 0.960 . S
C76 H81 0.961 . S
C76 H82 0.960 . S
C77 N75 1.346 . S
C77 N78 1.307 . S
C77 C79 1.486 . S
N78 N74 1.370 . S
N78 C77 1.307 . S
C79 C77 1.486 . S
C79 H83 0.960 . S
C79 H84 0.960 . S
C79 H85 0.959 . S
H80 C76 0.960 . S
H81 C76 0.961 . S
H82 C76 0.960 . S
H83 C79 0.960 . S
H84 C79 0.960 . S
H85 C79 0.959 . S
C86 N87 1.317 . S
C86 N88 1.348 1_455 S
C86 C89 1.485 . S
N87 C86 1.317 . S
N87 N91 1.370 . S
N88 C86 1.348 1_655 S
N88 C90 1.346 . S
C89 C86 1.485 . S
C89 H93 0.960 . S
C89 H94 0.961 . S
C89 H95 0.960 . S
C90 N88 1.346 . S
C90 N91 1.307 1_655 S
C90 C92 1.486 . S
N91 N87 1.370 . S
N91 C90 1.307 1_455 S
C92 C90 1.486 . S
C92 H96 0.960 . S
C92 H97 0.960 . S
C92 H98 0.959 . S
H93 C89 0.960 . S
H94 C89 0.961 . S
H95 C89 0.960 . S
H96 C92 0.960 . S
H97 C92 0.960 . S
H98 C92 0.959 . S
C99 N100 1.317 . S
C99 N101 1.348 . S
C99 C102 1.485 . S
N100 C99 1.317 . S
N100 N104 1.370 . S
N101 C99 1.348 . S
N101 C103 1.346 . S
C102 C99 1.485 . S
C102 H106 0.960 . S
C102 H107 0.961 . S
C102 H108 0.960 . S
C103 N101 1.346 . S
C103 N104 1.307 . S
C103 C105 1.486 . S
N104 N100 1.370 . S
N104 C103 1.307 . S
C105 C103 1.486 . S
C105 H109 0.960 . S
C105 H110 0.960 . S
C105 H111 0.959 . S
H106 C102 0.960 . S
H107 C102 0.961 . S
H108 C102 0.960 . S
H109 C105 0.960 . S
H110 C105 0.960 . S
H111 C105 0.959 . S
C112 N113 1.317 . S
C112 N114 1.348 . S
C112 C115 1.485 . S
N113 C112 1.317 . S
N113 N117 1.370 . S
N114 C112 1.348 . S
N114 C116 1.346 . S
C115 C112 1.485 . S
C115 H119 0.960 . S
C115 H120 0.961 . S
C115 H121 0.960 . S
C116 N114 1.346 . S
C116 N117 1.307 . S
C116 C118 1.486 . S
N117 N113 1.370 . S
N117 C116 1.307 . S
C118 C116 1.486 . S
C118 H122 0.960 . S
C118 H123 0.960 . S
C118 H124 0.959 . S
H119 C115 0.960 . S
H120 C115 0.961 . S
H121 C115 0.960 . S
H122 C118 0.960 . S
H123 C118 0.960 . S
H124 C118 0.959 . S
C125 N126 1.317 . S
C125 N127 1.348 . S
C125 C128 1.485 . S
N126 C125 1.317 . S
N126 N130 1.370 . S
N127 C125 1.348 . S
N127 C129 1.346 . S
C128 C125 1.485 . S
C128 H132 0.960 . S
C128 H133 0.961 . S
C128 H134 0.960 . S
C129 N127 1.346 . S
C129 N130 1.307 . S
C129 C131 1.486 . S
N130 N126 1.370 . S
N130 C129 1.307 . S
C131 C129 1.486 . S
C131 H135 0.960 . S
C131 H136 0.960 . S
C131 H137 0.959 . S
H132 C128 0.960 . S
H133 C128 0.961 . S
H134 C128 0.960 . S
H135 C131 0.960 . S
H136 C131 0.960 . S
H137 C131 0.959 . S
C138 C139 1.369 . S
C138 C140 1.419 . S
C138 H142 0.930 . S
C139 C138 1.369 . S
C139 C148 1.429 . S
C140 C138 1.419 . S
C140 C141 1.363 . S
C140 H143 0.929 . S
C141 C140 1.363 . S
C141 C147 1.428 . S
H142 C138 0.930 . S
H143 C140 0.929 . S
S144 N145 1.613 . S
S144 N146 1.610 . S
N145 S144 1.613 . S
N145 C148 1.350 . S
N146 S144 1.610 . S
N146 C147 1.351 . S
C147 C141 1.428 . S
C147 N146 1.351 . S
C147 C148 1.434 . S
C148 C139 1.429 . S
C148 N145 1.350 . S
C148 C147 1.434 . S
C149 C150 1.369 . S
C149 C151 1.419 . S
C149 H153 0.930 . S
C150 C149 1.369 . S
C150 C159 1.429 . S
C151 C149 1.419 . S
C151 C152 1.363 . S
C151 H154 0.929 . S
C152 C151 1.363 . S
C152 C158 1.428 . S
H153 C149 0.930 . S
H154 C151 0.929 . S
S155 N156 1.613 1_455 S
S155 N157 1.610 . S
N156 S155 1.613 1_655 S
N156 C159 1.350 . S
N157 S155 1.610 . S
N157 C158 1.351 1_455 S
C158 C152 1.428 . S
C158 N157 1.351 1_655 S
C158 C159 1.434 . S
C159 C150 1.429 . S
C159 N156 1.350 . S
C159 C158 1.434 . S
C160 C161 1.369 . S
C160 C162 1.419 . S
C160 H164 0.930 . S
C161 C160 1.369 . S
C161 C170 1.429 . S
C162 C160 1.419 . S
C162 C163 1.363 . S
C162 H165 0.929 . S
C163 C162 1.363 . S
C163 C169 1.428 . S
H164 C160 0.930 . S
H165 C162 0.929 . S
S166 N167 1.613 . S
S166 N168 1.610 . S
N167 S166 1.613 . S
N167 C170 1.350 . S
N168 S166 1.610 . S
N168 C169 1.351 . S
C169 C163 1.428 . S
C169 N168 1.351 . S
C169 C170 1.434 . S
C170 C161 1.429 . S
C170 N167 1.350 . S
C170 C169 1.434 . S
C171 C172 1.369 . S
C171 C173 1.419 . S
C171 H175 0.930 . S
C172 C171 1.369 . S
C172 C181 1.429 . S
C173 C171 1.419 . S
C173 C174 1.363 . S
C173 H176 0.929 . S
C174 C173 1.363 . S
C174 C180 1.428 . S
H175 C171 0.930 . S
H176 C173 0.929 . S
S177 N178 1.613 . S
S177 N179 1.610 . S
N178 S177 1.613 . S
N178 C181 1.350 . S
N179 S177 1.610 . S
N179 C180 1.351 . S
C180 C174 1.428 . S
C180 N179 1.351 . S
C180 C181 1.434 . S
C181 C172 1.429 . S
C181 N178 1.350 . S
C181 C180 1.434 . S
C182 C183 1.369 . S
C182 C184 1.419 . S
C182 H186 0.930 . S
C183 C182 1.369 . S
C183 C192 1.429 . S
C184 C182 1.419 . S
C184 C185 1.363 . S
C184 H187 0.929 . S
C185 C184 1.363 . S
C185 C191 1.428 . S
H186 C182 0.930 . S
H187 C184 0.929 . S
S188 N189 1.613 . S
S188 N190 1.610 . S
N189 S188 1.613 . S
N189 C192 1.350 . S
N190 S188 1.610 . S
N190 C191 1.351 . S
C191 C185 1.428 . S
C191 N190 1.351 . S
C191 C192 1.434 . S
C192 C183 1.429 . S
C192 N189 1.350 . S
C192 C191 1.434 . S
C193 C194 1.369 . S
C193 C195 1.419 . S
C193 H197 0.930 . S
C194 C193 1.369 . S
C194 C203 1.429 . S
C195 C193 1.419 . S
C195 C196 1.363 . S
C195 H198 0.929 . S
C196 C195 1.363 . S
C196 C202 1.428 . S
H197 C193 0.930 . S
H198 C195 0.929 . S
S199 N200 1.613 . S
S199 N201 1.610 . S
N200 S199 1.613 . S
N200 C203 1.350 . S
N201 S199 1.610 . S
N201 C202 1.351 . S
C202 C196 1.428 . S
C202 N201 1.351 . S
C202 C203 1.434 . S
C203 C194 1.429 . S
C203 N200 1.350 . S
C203 C202 1.434 . S
C204 C205 1.369 . S
C204 C206 1.419 . S
C204 H208 0.930 . S
C205 C204 1.369 . S
C205 C214 1.429 . S
C206 C204 1.419 . S
C206 C207 1.363 . S
C206 H209 0.929 . S
C207 C206 1.363 . S
C207 C213 1.428 . S
H208 C204 0.930 . S
H209 C206 0.929 . S
S210 N211 1.613 . S
S210 N212 1.610 . S
N211 S210 1.613 . S
N211 C214 1.350 . S
N212 S210 1.610 . S
N212 C213 1.351 . S
C213 C207 1.428 . S
C213 N212 1.351 . S
C213 C214 1.434 . S
C214 C205 1.429 . S
C214 N211 1.350 . S
C214 C213 1.434 . S
C215 C216 1.369 . S
C215 C217 1.419 . S
C215 H219 0.930 . S
C216 C215 1.369 . S
C216 C225 1.429 . S
C217 C215 1.419 . S
C217 C218 1.363 . S
C217 H220 0.929 . S
C218 C217 1.363 . S
C218 C224 1.428 . S
H219 C215 0.930 . S
H220 C217 0.929 . S
S221 N222 1.613 . S
S221 N223 1.610 . S
N222 S221 1.613 . S
N222 C225 1.350 . S
N223 S221 1.610 . S
N223 C224 1.351 . S
C224 C218 1.428 . S
C224 N223 1.351 . S
C224 C225 1.434 . S
C225 C216 1.429 . S
C225 N222 1.350 . S
C225 C224 1.434 . S
C226 C227 1.369 . S
C226 C228 1.419 . S
C226 H230 0.930 . S
C227 C226 1.369 . S
C227 C236 1.429 . S
C228 C226 1.419 . S
C228 C229 1.363 . S
C228 H231 0.929 . S
C229 C228 1.363 . S
C229 C235 1.428 . S
H230 C226 0.930 . S
H231 C228 0.929 . S
S232 N233 1.613 . S
S232 N234 1.610 . S
N233 S232 1.613 . S
N233 C236 1.350 . S
N234 S232 1.610 . S
N234 C235 1.351 . S
C235 C229 1.428 . S
C235 N234 1.351 . S
C235 C236 1.434 . S
C236 C227 1.429 . S
C236 N233 1.350 . S
C236 C235 1.434 . S
C237 C238 1.369 . S
C237 C239 1.419 . S
C237 H241 0.930 . S
C238 C237 1.369 . S
C238 C247 1.429 . S
C239 C237 1.419 . S
C239 C240 1.363 . S
C239 H242 0.929 . S
C240 C239 1.363 . S
C240 C246 1.428 . S
H241 C237 0.930 . S
H242 C239 0.929 . S
S243 N244 1.613 . S
S243 N245 1.610 . S
N244 S243 1.613 . S
N244 C247 1.350 . S
N245 S243 1.610 . S
N245 C246 1.351 . S
C246 C240 1.428 . S
C246 N245 1.351 . S
C246 C247 1.434 . S
C247 C238 1.429 . S
C247 N244 1.350 . S
C247 C246 1.434 . S
C248 C249 1.369 . S
C248 C250 1.419 . S
C248 H252 0.930 . S
C249 C248 1.369 . S
C249 C258 1.429 . S
C250 C248 1.419 . S
C250 C251 1.363 . S
C250 H253 0.929 . S
C251 C250 1.363 . S
C251 C257 1.428 . S
H252 C248 0.930 . S
H253 C250 0.929 . S
S254 N255 1.613 . S
S254 N256 1.610 . S
N255 S254 1.613 . S
N255 C258 1.350 . S
N256 S254 1.610 . S
N256 C257 1.351 . S
C257 C251 1.428 . S
C257 N256 1.351 . S
C257 C258 1.434 . S
C258 C249 1.429 . S
C258 N255 1.350 . S
C258 C257 1.434 . S
C259 C260 1.369 . S
C259 C261 1.419 . S
C259 H263 0.930 . S
C260 C259 1.369 . S
C260 C269 1.429 . S
C261 C259 1.419 . S
C261 C262 1.363 . S
C261 H264 0.929 . S
C262 C261 1.363 . S
C262 C268 1.428 . S
H263 C259 0.930 . S
H264 C261 0.929 . S
S265 N266 1.613 . S
S265 N267 1.610 . S
N266 S265 1.613 . S
N266 C269 1.350 . S
N267 S265 1.610 . S
N267 C268 1.351 . S
C268 C262 1.428 . S
C268 N267 1.351 . S
C268 C269 1.434 . S
C269 C260 1.429 . S
C269 N266 1.350 . S
C269 C268 1.434 . S
C270 C271 1.369 . S
C270 C272 1.419 1_554 S
C270 H274 0.930 1_455 S
C271 C270 1.369 . S
C271 C280 1.429 . S
C272 C270 1.419 1_556 S
C272 C273 1.363 . S
C272 H275 0.929 . S
C273 C272 1.363 . S
C273 C279 1.428 . S
H274 C270 0.930 1_655 S
H275 C272 0.929 . S
S276 N277 1.613 . S
S276 N278 1.610 1_554 S
N277 S276 1.613 . S
N277 C280 1.350 . S
N278 S276 1.610 1_556 S
N278 C279 1.351 . S
C279 C273 1.428 . S
C279 N278 1.351 . S
C279 C280 1.434 1_556 S
C280 C271 1.429 . S
C280 N277 1.350 . S
C280 C279 1.434 1_554 S
C281 C282 1.369 1_565 S
C281 C283 1.419 . S
C281 H285 0.930 . S
C282 C281 1.369 1_545 S
C282 C291 1.429 . S
C283 C281 1.419 . S
C283 C284 1.363 1_565 S
C283 H286 0.929 . S
C284 C283 1.363 1_545 S
C284 C290 1.428 . S
H285 C281 0.930 . S
H286 C283 0.929 . S
S287 N288 1.613 . S
S287 N289 1.610 . S
N288 S287 1.613 . S
N288 C291 1.350 . S
N289 S287 1.610 . S
N289 C290 1.351 . S
C290 C284 1.428 . S
C290 N289 1.351 . S
C290 C291 1.434 . S
C291 C282 1.429 . S
C291 N288 1.350 . S
C291 C290 1.434 . S
C292 C293 1.369 . S
C292 C294 1.419 . S
C292 H296 0.930 . S
C293 C292 1.369 . S
C293 C302 1.429 . S
C294 C292 1.419 . S
C294 C295 1.363 . S
C294 H297 0.929 . S
C295 C294 1.363 . S
C295 C301 1.428 . S
H296 C292 0.930 . S
H297 C294 0.929 . S
S298 N299 1.613 . S
S298 N300 1.610 . S
N299 S298 1.613 . S
N299 C302 1.350 . S
N300 S298 1.610 . S
N300 C301 1.351 . S
C301 C295 1.428 . S
C301 N300 1.351 . S
C301 C302 1.434 . S
C302 C293 1.429 . S
C302 N299 1.350 . S
C302 C301 1.434 . S
C303 C304 1.369 1_565 S
C303 C305 1.419 . S
C303 H307 0.930 . S
C304 C303 1.369 1_545 S
C304 C313 1.429 . S
C305 C303 1.419 . S
C305 C306 1.363 1_565 S
C305 H308 0.929 . S
C306 C305 1.363 1_545 S
C306 C312 1.428 . S
H307 C303 0.930 . S
H308 C305 0.929 . S
S309 N310 1.613 . S
S309 N311 1.610 . S
N310 S309 1.613 . S
N310 C313 1.350 . S
N311 S309 1.610 . S
N311 C312 1.351 . S
C312 C306 1.428 . S
C312 N311 1.351 . S
C312 C313 1.434 . S
C313 C304 1.429 . S
C313 N310 1.350 . S
C313 C312 1.434 . S
C314 C315 1.369 . S
C314 C316 1.419 1_556 S
C314 H318 0.930 . S
C315 C314 1.369 . S
C315 C324 1.429 . S
C316 C314 1.419 1_554 S
C316 C317 1.363 . S
C316 H319 0.929 . S
C317 C316 1.363 . S
C317 C323 1.428 . S
H318 C314 0.930 . S
H319 C316 0.929 . S
S320 N321 1.613 . S
S320 N322 1.610 1_556 S
N321 S320 1.613 . S
N321 C324 1.350 . S
N322 S320 1.610 1_554 S
N322 C323 1.351 . S
C323 C317 1.428 . S
C323 N322 1.351 . S
C323 C324 1.434 1_554 S
C324 C315 1.429 . S
C324 N321 1.350 . S
C324 C323 1.434 1_556 S
C325 C326 1.369 1_655 S
C325 C327 1.419 1_655 S
C325 H329 0.930 . S
C326 C325 1.369 1_455 S
C326 C335 1.429 . S
C327 C325 1.419 1_455 S
C327 C328 1.363 . S
C327 H330 0.929 . S
C328 C327 1.363 . S
C328 C334 1.428 . S
H329 C325 0.930 . S
H330 C327 0.929 . S
S331 N332 1.613 . S
S331 N333 1.610 . S
N332 S331 1.613 . S
N332 C335 1.350 . S
N333 S331 1.610 . S
N333 C334 1.351 . S
C334 C328 1.428 . S
C334 N333 1.351 . S
C334 C335 1.434 . S
C335 C326 1.429 . S
C335 N332 1.350 . S
C335 C334 1.434 . S
C139 C2 1.256 . S
C141 N127 1.361 . S
C150 C22 1.362 . S
C152 N100 1.485 1_655 S
C161 C44 1.356 . S
C163 N113 1.482 1_565 S
C172 C4 1.698 . S
C174 N126 1.806 . S
C185 N101 1.656 . S
C183 C24 1.592 . S
C196 N114 1.637 . S
C194 C42 1.553 . S
C205 C32 1.224 . S
C207 N74 1.283 . S
C216 C49 1.118 . S
C218 N88 1.142 . S
C227 C9 1.373 . S
C229 N62 1.393 . S
C240 N75 1.387 . S
C238 C29 1.338 . S
C251 N87 1.498 . S
C249 C52 1.442 . S
C260 C12 1.218 . S
C262 N61 1.278 . S
C273 N91 1.475 . S
C271 C18 1.526 1_455 S
C282 C38 1.498 . S
C284 N65 1.522 . S
C293 C58 1.501 . S
C295 N78 1.487 . S
C306 N117 1.598 . S
C304 C39 1.580 . S
C317 N130 1.521 . S
C315 C59 1.509 . S
C326 C19 1.525 . S
C328 N104 1.553 . S
