# Generated by pormake.
# Topology pyr, (3,6)-cn, num edge types: 1
# Building blocks:
#     Node 0, Type 0, BuildingBlock: BETDAH_clean_linker_0, # of connection points: 3
#     Node 1, Type 0, BuildingBlock: BETDAH_clean_linker_0, # of connection points: 3
#     Node 2, Type 0, BuildingBlock: BETDAH_clean_linker_0, # of connection points: 3
#     Node 3, Type 0, BuildingBlock: BETDAH_clean_linker_0, # of connection points: 3
#     Node 4, Type 0, BuildingBlock: BETDAH_clean_linker_0, # of connection points: 3
#     Node 5, Type 0, BuildingBlock: BETDAH_clean_linker_0, # of connection points: 3
#     Node 6, Type 0, BuildingBlock: BETDAH_clean_linker_0, # of connection points: 3
#     Node 7, Type 0, BuildingBlock: BETDAH_clean_linker_0, # of connection points: 3
#     Node 8, Type 1, BuildingBlock: MIFKUJ_clean_sbu_0, # of connection points: 6
#     Node 9, Type 1, BuildingBlock: MIFKUJ_clean_sbu_0, # of connection points: 6
#     Node 10, Type 1, BuildingBlock: MIFKUJ_clean_sbu_0, # of connection points: 6
#     Node 11, Type 1, BuildingBlock: MIFKUJ_clean_sbu_0, # of connection points: 6
#     Edge 12, Type (0, 1), BuildingBlock: TEMPAE_clean_linker_10, # of connection points: 2
#     Edge 13, Type (0, 1), BuildingBlock: TEMPAE_clean_linker_10, # of connection points: 2
#     Edge 14, Type (0, 1), BuildingBlock: TEMPAE_clean_linker_10, # of connection points: 2
#     Edge 15, Type (0, 1), BuildingBlock: TEMPAE_clean_linker_10, # of connection points: 2
#     Edge 16, Type (0, 1), BuildingBlock: TEMPAE_clean_linker_10, # of connection points: 2
#     Edge 17, Type (0, 1), BuildingBlock: TEMPAE_clean_linker_10, # of connection points: 2
#     Edge 18, Type (0, 1), BuildingBlock: TEMPAE_clean_linker_10, # of connection points: 2
#     Edge 19, Type (0, 1), BuildingBlock: TEMPAE_clean_linker_10, # of connection points: 2
#     Edge 20, Type (0, 1), BuildingBlock: TEMPAE_clean_linker_10, # of connection points: 2
#     Edge 21, Type (0, 1), BuildingBlock: TEMPAE_clean_linker_10, # of connection points: 2
#     Edge 22, Type (0, 1), BuildingBlock: TEMPAE_clean_linker_10, # of connection points: 2
#     Edge 23, Type (0, 1), BuildingBlock: TEMPAE_clean_linker_10, # of connection points: 2
#     Edge 24, Type (0, 1), BuildingBlock: TEMPAE_clean_linker_10, # of connection points: 2
#     Edge 25, Type (0, 1), BuildingBlock: TEMPAE_clean_linker_10, # of connection points: 2
#     Edge 26, Type (0, 1), BuildingBlock: TEMPAE_clean_linker_10, # of connection points: 2
#     Edge 27, Type (0, 1), BuildingBlock: TEMPAE_clean_linker_10, # of connection points: 2
#     Edge 28, Type (0, 1), BuildingBlock: TEMPAE_clean_linker_10, # of connection points: 2
#     Edge 29, Type (0, 1), BuildingBlock: TEMPAE_clean_linker_10, # of connection points: 2
#     Edge 30, Type (0, 1), BuildingBlock: TEMPAE_clean_linker_10, # of connection points: 2
#     Edge 31, Type (0, 1), BuildingBlock: TEMPAE_clean_linker_10, # of connection points: 2
#     Edge 32, Type (0, 1), BuildingBlock: TEMPAE_clean_linker_10, # of connection points: 2
#     Edge 33, Type (0, 1), BuildingBlock: TEMPAE_clean_linker_10, # of connection points: 2
#     Edge 34, Type (0, 1), BuildingBlock: TEMPAE_clean_linker_10, # of connection points: 2
#     Edge 35, Type (0, 1), BuildingBlock: TEMPAE_clean_linker_10, # of connection points: 2
# Relax obj value: 0.055
# Max RMSD: 0.192
# Mean RMSD: 0.126
data_MOF--net-pyr--node1-MIFKUJ_clean_sbu_0--node2-BETDAH_clean_linker_0--edge1-TEMPAE_clean_linker_10
_symmetry_space_group_name_H-M    P1
_symmetry_Int_Tables_number       1
_symmetry_cell_setting            triclinic
loop_
_symmetry_equiv_pos_as_xyz
'x, y, z'
_cell_length_a     38.759994
_cell_length_b     35.16741
_cell_length_c     39.189276
_cell_angle_alpha  85.982757
_cell_angle_beta   88.713177
_cell_angle_gamma 103.94337
loop_
_atom_site_label
_atom_site_type_symbol
_atom_site_fract_x
_atom_site_fract_y
_atom_site_fract_z
_atom_type_partial_charge
H0 H 0.22292 0.13889 0.23605 0.0
H1 H 0.24403 0.20366 0.13763 0.0
H2 H 0.15405 0.21157 0.2007 0.0
C3 C 0.21607 0.15904 0.21662 0.0
C4 C 0.18625 0.17428 0.2221 0.0
C5 C 0.23703 0.1694 0.18625 0.0
C6 C 0.2281 0.19556 0.16131 0.0
C7 C 0.19832 0.21083 0.16615 0.0
C8 C 0.17716 0.19996 0.19661 0.0
N9 N 0.19067 0.2367 0.13955 0.0
C10 C 0.16305 0.25557 0.14028 0.0
H11 H 0.40453 0.84242 0.74262 0.0
H12 H 0.37769 0.95381 0.74526 0.0
H13 H 0.35398 0.88724 0.65719 0.0
C14 C 0.39245 0.8646 0.73084 0.0
C15 C 0.37941 0.86072 0.69776 0.0
C16 C 0.39198 0.89807 0.74808 0.0
C17 C 0.37805 0.92773 0.73218 0.0
C18 C 0.36347 0.92355 0.69994 0.0
C19 C 0.36431 0.89006 0.68259 0.0
N20 N 0.34908 0.95408 0.68534 0.0
C21 C 0.32121 0.94803 0.66312 0.0
H22 H 0.68772 0.34257 0.9161 0.0
H23 H 0.68896 0.40337 0.81671 0.0
H24 H 0.61207 0.29419 0.84219 0.0
C25 C 0.67645 0.34445 0.89115 0.0
C26 C 0.64759 0.31459 0.88242 0.0
C27 C 0.69168 0.37624 0.8675 0.0
C28 C 0.67704 0.3791 0.83519 0.0
C29 C 0.64779 0.34968 0.82642 0.0
C30 C 0.63376 0.31738 0.84978 0.0
N31 N 0.63326 0.35021 0.79359 0.0
C32 C 0.62908 0.38391 0.77515 0.0
H33 H 0.80289 0.71495 0.37908 0.0
H34 H 0.886 0.68416 0.32063 0.0
H35 H 0.79104 0.59612 0.35157 0.0
C36 C 0.81274 0.69313 0.36629 0.0
C37 C 0.792 0.65428 0.36715 0.0
C38 C 0.84693 0.704 0.35035 0.0
C39 C 0.85963 0.67617 0.33286 0.0
C40 C 0.83877 0.63749 0.33261 0.0
C41 C 0.80577 0.62658 0.35054 0.0
N42 N 0.85126 0.60799 0.31682 0.0
C43 C 0.86933 0.61369 0.28511 0.0
H44 H 0.90633 0.84753 0.79154 0.0
H45 H 0.84597 0.8792 0.87407 0.0
H46 H 0.8668 0.95161 0.77938 0.0
C47 C 0.89112 0.86673 0.80156 0.0
C48 C 0.8879 0.90007 0.7813 0.0
C49 C 0.87656 0.85925 0.83528 0.0
C50 C 0.85743 0.88484 0.8482 0.0
C51 C 0.85378 0.9181 0.82784 0.0
C52 C 0.86951 0.92576 0.79483 0.0
N53 N 0.83545 0.94526 0.83983 0.0
C54 C 0.8104 0.93737 0.86694 0.0
H55 H 0.72534 0.16217 0.34136 0.0
H56 H 0.74824 0.22291 0.43272 0.0
H57 H 0.65958 0.23696 0.37342 0.0
C58 C 0.71923 0.18207 0.3592 0.0
C59 C 0.69004 0.19866 0.35384 0.0
C60 C 0.74047 0.19067 0.38748 0.0
C61 C 0.73234 0.21631 0.41051 0.0
C62 C 0.70327 0.23292 0.40581 0.0
C63 C 0.68199 0.22401 0.37742 0.0
N64 N 0.69646 0.25823 0.43038 0.0
C65 C 0.66824 0.27618 0.43023 0.0
H66 H 0.29549 0.71163 0.15947 0.0
H67 H 0.24746 0.61538 0.23227 0.0
H68 H 0.3446 0.69606 0.25549 0.0
C69 C 0.29553 0.69577 0.18419 0.0
C70 C 0.32332 0.70845 0.20648 0.0
C71 C 0.26812 0.66221 0.19314 0.0
C72 C 0.26876 0.64102 0.22468 0.0
C73 C 0.29625 0.65267 0.24702 0.0
C74 C 0.32364 0.68646 0.23794 0.0
N75 N 0.29472 0.62979 0.27856 0.0
C76 C 0.32099 0.63469 0.30251 0.0
H77 H 0.17998 0.3395 0.64925 0.0
H78 H 0.15017 0.42006 0.7155 0.0
H79 H 0.07073 0.32312 0.68241 0.0
C80 C 0.15993 0.34834 0.66443 0.0
C81 C 0.12444 0.32686 0.66413 0.0
C82 C 0.16955 0.38215 0.68261 0.0
C83 C 0.14304 0.39408 0.70139 0.0
C84 C 0.1073 0.37254 0.70142 0.0
C85 C 0.09829 0.33946 0.68242 0.0
N86 N 0.07935 0.38338 0.7194 0.0
C87 C 0.08325 0.40988 0.74464 0.0
Zn88 Zn 0.05862 0.01206 0.50642 0.0
Zn89 Zn 0.98753 0.02647 0.47777 0.0
C90 C 0.08275 0.09407 0.52054 0.0
O91 O 0.10765 0.09401 0.49724 0.0
C92 C 0.95218 0.94905 0.46163 0.0
O93 O 0.93217 0.95266 0.48813 0.0
O94 O 0.1041 0.99897 0.52148 0.0
O95 O 0.01815 0.97078 0.52942 0.0
O96 O 0.9833 0.01182 0.52865 0.0
C97 C 0.10637 0.96461 0.53185 0.0
O98 O 0.07813 0.93517 0.53162 0.0
O99 O 0.05845 0.06288 0.52768 0.0
C100 C 0.94298 0.06338 0.43686 0.0
O101 O 0.96567 0.05979 0.41259 0.0
O102 O 0.94691 0.05088 0.46738 0.0
O103 O 0.03105 0.06527 0.45675 0.0
O104 O 0.06178 0.02059 0.4548 0.0
O105 O 0.97885 0.97709 0.45229 0.0
C106 C 0.99282 0.98254 0.54279 0.0
C107 C 0.05421 0.05153 0.44175 0.0
Zn108 Zn 0.53678 0.97872 0.03043 0.0
Zn109 Zn 0.50899 0.04133 0.11087 0.0
C110 C 0.50751 0.93304 0.97497 0.0
O111 O 0.52982 0.91205 0.98488 0.0
C112 C 0.54567 0.09722 0.15418 0.0
O113 O 0.53274 0.12004 0.13263 0.0
O114 O 0.58357 0.96526 0.01926 0.0
O115 O 0.54634 0.03752 0.02834 0.0
O116 O 0.53286 0.07329 0.06862 0.0
C117 C 0.59882 0.98167 0.99108 0.0
O118 O 0.5839 0.00584 0.97307 0.0
O119 O 0.50517 0.96241 0.99122 0.0
C120 C 0.44958 0.0566 0.14837 0.0
O121 O 0.46612 0.04522 0.17463 0.0
O122 O 0.46252 0.05648 0.11828 0.0
O123 O 0.498 0.98204 0.11318 0.0
O124 O 0.51233 0.94674 0.07263 0.0
O125 O 0.53944 0.06068 0.15001 0.0
C126 C 0.54607 0.07061 0.03923 0.0
C127 C 0.49843 0.94911 0.10188 0.0
Zn128 Zn 0.49606 0.51178 0.53011 0.0
Zn129 Zn 0.47561 0.57742 0.57055 0.0
C130 C 0.54909 0.56379 0.48522 0.0
O131 O 0.52378 0.55523 0.46327 0.0
C132 C 0.42024 0.53404 0.61696 0.0
O133 O 0.4415 0.55447 0.63833 0.0
O134 O 0.50349 0.46302 0.50994 0.0
O135 O 0.4925 0.49952 0.58118 0.0
O136 O 0.51677 0.56007 0.5927 0.0
C137 C 0.53031 0.45237 0.5217 0.0
O138 O 0.54769 0.4718 0.54602 0.0
O139 O 0.5428 0.55067 0.51639 0.0
C140 C 0.44125 0.63693 0.5828 0.0
O141 O 0.41962 0.61585 0.56208 0.0
O142 O 0.46963 0.62678 0.59064 0.0
O143 O 0.47629 0.5898 0.51932 0.0
O144 O 0.45561 0.5286 0.50718 0.0
O145 O 0.42986 0.53732 0.5854 0.0
C146 C 0.51256 0.52329 0.59947 0.0
C147 C 0.45812 0.56507 0.50048 0.0
Zn148 Zn 0.97867 0.57484 0.98504 0.0
Zn149 Zn 0.99842 0.50587 0.02885 0.0
C150 C 0.92361 0.5404 0.94271 0.0
O151 O 0.9435 0.56776 0.92127 0.0
C152 C 0.04609 0.54928 0.07202 0.0
O153 O 0.02138 0.52748 0.0934 0.0
O154 O 0.97329 0.62694 0.96348 0.0
O155 O 0.97847 0.58132 0.03607 0.0
O156 O 0.95611 0.51894 0.05198 0.0
C157 C 0.94449 0.63606 0.97157 0.0
O158 O 0.92212 0.61271 0.99411 0.0
O159 O 0.9336 0.53591 0.97314 0.0
C160 C 0.0349 0.4473 0.0415 0.0
O161 O 0.05362 0.46933 0.0158 0.0
O162 O 0.00684 0.45603 0.05239 0.0
O163 O 0.99793 0.49779 0.97839 0.0
O164 O 0.0197 0.55981 0.96057 0.0
O165 O 0.0423 0.54674 0.04002 0.0
C166 C 0.96022 0.55492 0.05754 0.0
C167 C 0.0158 0.52351 0.95619 0.0
C168 C 0.18132 0.16546 0.28584 0.0
C169 C 0.16468 0.16231 0.25443 0.0
C170 C 0.16232 0.15001 0.31658 0.0
C171 C 0.12591 0.13041 0.31579 0.0
C172 C 0.10865 0.12837 0.28423 0.0
C173 C 0.12824 0.14466 0.25387 0.0
C174 C 0.18154 0.15344 0.34975 0.0
C175 C 0.06996 0.1074 0.28234 0.0
C176 C 0.09105 0.05224 0.38839 0.0
C177 C 0.07228 0.07163 0.40943 0.0
C178 C 0.108 0.07082 0.35752 0.0
C179 C 0.10663 0.10996 0.34772 0.0
C180 C 0.08779 0.12973 0.36887 0.0
C181 C 0.0706 0.11021 0.39936 0.0
C182 C 0.1275 0.0486 0.33544 0.0
C183 C 0.08622 0.17166 0.35955 0.0
H184 H 0.20949 0.1794 0.28622 0.0
H185 H 0.11549 0.14198 0.22952 0.0
H186 H 0.16663 0.16567 0.36896 0.0
H187 H 0.18311 0.12386 0.36038 0.0
H188 H 0.20898 0.17244 0.3463 0.0
H189 H 0.05991 0.11068 0.25624 0.0
H190 H 0.06645 0.07562 0.28979 0.0
H191 H 0.05339 0.11879 0.30064 0.0
H192 H 0.09223 0.02234 0.39589 0.0
H193 H 0.05624 0.12543 0.41557 0.0
H194 H 0.15619 0.06369 0.33304 0.0
H195 H 0.11714 0.04809 0.30926 0.0
H196 H 0.12485 0.01784 0.34602 0.0
H197 H 0.11352 0.19104 0.35787 0.0
H198 H 0.06999 0.18266 0.37852 0.0
H199 H 0.07481 0.17407 0.33402 0.0
C200 C 0.43332 0.93602 0.78838 0.0
C201 C 0.40699 0.90247 0.78233 0.0
C202 C 0.44867 0.94005 0.8204 0.0
C203 C 0.43681 0.91013 0.84713 0.0
C204 C 0.40969 0.8765 0.8413 0.0
C205 C 0.39536 0.87288 0.80878 0.0
C206 C 0.478 0.97598 0.82545 0.0
C207 C 0.39588 0.8444 0.86936 0.0
C208 C 0.49986 0.90349 0.91875 0.0
C209 C 0.48782 0.92486 0.94339 0.0
C210 C 0.48323 0.8981 0.88743 0.0
C211 C 0.45342 0.91377 0.88093 0.0
C212 C 0.44039 0.93419 0.90621 0.0
C213 C 0.45801 0.93988 0.93703 0.0
C214 C 0.49826 0.87672 0.86087 0.0
C215 C 0.4082 0.95059 0.90047 0.0
H216 H 0.44247 0.95871 0.76775 0.0
H217 H 0.37477 0.84707 0.80405 0.0
H218 H 0.47027 0.99204 0.84657 0.0
H219 H 0.50251 0.96699 0.83288 0.0
H220 H 0.48425 0.99643 0.80199 0.0
H221 H 0.37371 0.82095 0.86102 0.0
H222 H 0.41765 0.83089 0.87779 0.0
H223 H 0.38641 0.85697 0.89194 0.0
H224 H 0.52305 0.89205 0.92345 0.0
H225 H 0.44849 0.9562 0.95612 0.0
H226 H 0.50719 0.89675 0.83752 0.0
H227 H 0.47742 0.8515 0.8533 0.0
H228 H 0.52116 0.86564 0.8702 0.0
H229 H 0.41405 0.9738 0.87902 0.0
H230 H 0.40003 0.96337 0.92356 0.0
H231 H 0.38549 0.92716 0.89314 0.0
C232 C 0.58823 0.42613 0.76289 0.0
C233 C 0.61857 0.41379 0.75361 0.0
C234 C 0.57316 0.44897 0.73951 0.0
C235 C 0.58887 0.45941 0.7061 0.0
C236 C 0.62088 0.44889 0.69746 0.0
C237 C 0.63529 0.42594 0.72137 0.0
C238 C 0.53904 0.45946 0.74977 0.0
C239 C 0.63856 0.45954 0.66222 0.0
C240 C 0.52648 0.46686 0.63407 0.0
C241 C 0.53176 0.50764 0.62742 0.0
C242 C 0.54491 0.45102 0.65955 0.0
C243 C 0.56937 0.47649 0.67904 0.0
C244 C 0.57481 0.5177 0.67266 0.0
C245 C 0.5559 0.53282 0.64692 0.0
C246 C 0.53823 0.40688 0.6655 0.0
C247 C 0.60073 0.54574 0.69287 0.0
H248 H 0.57522 0.41624 0.78784 0.0
H249 H 0.65864 0.41592 0.71427 0.0
H250 H 0.54068 0.49092 0.7425 0.0
H251 H 0.51672 0.44192 0.73597 0.0
H252 H 0.53273 0.45355 0.77772 0.0
H253 H 0.66552 0.45384 0.66103 0.0
H254 H 0.62205 0.44194 0.64339 0.0
H255 H 0.64079 0.49098 0.65432 0.0
H256 H 0.50795 0.44708 0.61918 0.0
H257 H 0.56023 0.56435 0.64192 0.0
H258 H 0.52873 0.39739 0.69238 0.0
H259 H 0.56338 0.39774 0.66138 0.0
H260 H 0.51821 0.39117 0.64823 0.0
H261 H 0.59317 0.54014 0.72057 0.0
H262 H 0.60181 0.57697 0.68495 0.0
H263 H 0.62778 0.54081 0.68952 0.0
C264 C 0.91918 0.60713 0.24766 0.0
C265 C 0.88476 0.61251 0.25141 0.0
C266 C 0.93257 0.60024 0.21562 0.0
C267 C 0.91077 0.59844 0.18689 0.0
C268 C 0.87632 0.60518 0.19056 0.0
C269 C 0.86369 0.61208 0.22288 0.0
C270 C 0.96948 0.59341 0.21278 0.0
C271 C 0.85226 0.60358 0.16065 0.0
C272 C 0.95342 0.60573 0.09739 0.0
C273 C 0.94685 0.56606 0.09032 0.0
C274 C 0.94189 0.61672 0.12866 0.0
C275 C 0.92323 0.5874 0.15351 0.0
C276 C 0.91632 0.54734 0.14647 0.0
C277 C 0.92821 0.53716 0.11502 0.0
C278 C 0.94983 0.65972 0.13517 0.0
C279 C 0.89642 0.51516 0.17225 0.0
H280 H 0.93521 0.60709 0.26999 0.0
H281 H 0.83688 0.61585 0.22609 0.0
H282 H 0.96774 0.56274 0.20653 0.0
H283 H 0.98529 0.61307 0.19167 0.0
H284 H 0.98391 0.5985 0.23686 0.0
H285 H 0.8272 0.61196 0.16722 0.0
H286 H 0.86614 0.62347 0.13873 0.0
H287 H 0.84542 0.57336 0.15205 0.0
H288 H 0.96782 0.62833 0.07853 0.0
H289 H 0.92302 0.50646 0.10988 0.0
H290 H 0.96592 0.66498 0.1582 0.0
H291 H 0.92468 0.66846 0.14039 0.0
H292 H 0.96451 0.67894 0.11318 0.0
H293 H 0.91086 0.5161 0.19642 0.0
H294 H 0.89305 0.48547 0.16283 0.0
H295 H 0.86973 0.51979 0.17843 0.0
C296 C 0.26411 0.11174 0.18541 0.0
C297 C 0.26794 0.15243 0.18042 0.0
C298 C 0.29306 0.09516 0.17985 0.0
C299 C 0.32672 0.11995 0.16954 0.0
C300 C 0.33076 0.16111 0.16463 0.0
C301 C 0.30121 0.17683 0.16987 0.0
C302 C 0.2876 0.05111 0.18487 0.0
C303 C 0.36635 0.18854 0.15416 0.0
C304 C 0.40869 0.08137 0.18651 0.0
C305 C 0.4175 0.07159 0.15389 0.0
C306 C 0.37926 0.09721 0.19194 0.0
C307 C 0.35782 0.10287 0.16418 0.0
C308 C 0.36622 0.09247 0.1313 0.0
C309 C 0.39613 0.07722 0.12649 0.0
C310 C 0.37141 0.1084 0.22728 0.0
C311 C 0.34367 0.09758 0.1012 0.0
H312 H 0.23828 0.09283 0.19323 0.0
H313 H 0.30422 0.20833 0.16629 0.0
H314 H 0.29525 0.03962 0.16091 0.0
H315 H 0.30498 0.04357 0.20504 0.0
H316 H 0.25957 0.03591 0.19228 0.0
H317 H 0.36506 0.21982 0.15168 0.0
H318 H 0.38622 0.1851 0.17335 0.0
H319 H 0.3761 0.18097 0.12931 0.0
H320 H 0.42521 0.07735 0.20776 0.0
H321 H 0.40271 0.06958 0.10124 0.0
H322 H 0.34429 0.09204 0.23656 0.0
H323 H 0.37204 0.14018 0.22633 0.0
H324 H 0.39076 0.10225 0.2461 0.0
H325 H 0.31567 0.08125 0.10713 0.0
H326 H 0.35323 0.08703 0.07753 0.0
H327 H 0.34378 0.12904 0.09617 0.0
C328 C 0.29094 0.93597 0.60876 0.0
C329 C 0.29036 0.94537 0.64279 0.0
C330 C 0.26153 0.93611 0.58842 0.0
C331 C 0.23122 0.94608 0.60266 0.0
C332 C 0.23051 0.95474 0.6374 0.0
C333 C 0.2602 0.95428 0.65706 0.0
C334 C 0.26318 0.92657 0.55156 0.0
C335 C 0.19878 0.96553 0.65358 0.0
C336 C 0.16958 0.99031 0.54731 0.0
C337 C 0.13962 0.95865 0.54688 0.0
C338 C 0.20015 0.98613 0.56418 0.0
C339 C 0.20081 0.94941 0.5811 0.0
C340 C 0.17123 0.91692 0.57962 0.0
C341 C 0.14098 0.92192 0.56251 0.0
C342 C 0.23118 0.02148 0.56509 0.0
C343 C 0.17097 0.8773 0.5973 0.0
H344 H 0.31455 0.92916 0.59794 0.0
H345 H 0.26009 0.96162 0.68349 0.0
H346 H 0.23968 0.90294 0.54626 0.0
H347 H 0.26241 0.95282 0.53443 0.0
H348 H 0.28769 0.91707 0.54501 0.0
H349 H 0.20192 0.9699 0.68124 0.0
H350 H 0.19489 0.99305 0.64035 0.0
H351 H 0.17429 0.94219 0.65065 0.0
H352 H 0.16889 0.01875 0.53514 0.0
H353 H 0.11801 0.89725 0.56223 0.0
H354 H 0.25617 0.01419 0.55667 0.0
H355 H 0.23446 0.03014 0.59174 0.0
H356 H 0.22755 0.04709 0.54855 0.0
H357 H 0.19537 0.86813 0.58989 0.0
H358 H 0.14737 0.85421 0.59113 0.0
H359 H 0.17086 0.87928 0.62543 0.0
C360 C 0.72479 0.42689 0.90416 0.0
C361 C 0.72464 0.40435 0.87609 0.0
C362 C 0.75671 0.45047 0.91487 0.0
C363 C 0.78925 0.45046 0.89766 0.0
C364 C 0.78909 0.42791 0.86906 0.0
C365 C 0.75666 0.40544 0.85837 0.0
C366 C 0.75567 0.4749 0.94488 0.0
C367 C 0.82325 0.42651 0.85045 0.0
C368 C 0.8711 0.53345 0.90615 0.0
C369 C 0.88912 0.51726 0.93181 0.0
C370 C 0.83825 0.51234 0.89529 0.0
C371 C 0.82352 0.47366 0.90979 0.0
C372 C 0.84173 0.45705 0.93561 0.0
C373 C 0.87413 0.47931 0.94668 0.0
C374 C 0.81925 0.53149 0.86839 0.0
C375 C 0.82725 0.41557 0.95114 0.0
H376 H 0.69991 0.42572 0.9179 0.0
H377 H 0.75643 0.3874 0.83699 0.0
H378 H 0.77007 0.46449 0.96635 0.0
H379 H 0.76936 0.50605 0.93765 0.0
H380 H 0.72804 0.47349 0.95409 0.0
H381 H 0.81851 0.40758 0.82866 0.0
H382 H 0.83787 0.45653 0.84059 0.0
H383 H 0.84071 0.41508 0.86848 0.0
H384 H 0.88245 0.56302 0.89488 0.0
H385 H 0.88813 0.46672 0.96642 0.0
H386 H 0.79207 0.53118 0.87815 0.0
H387 H 0.81631 0.51467 0.84529 0.0
H388 H 0.8336 0.56237 0.86074 0.0
H389 H 0.80064 0.41266 0.96354 0.0
H390 H 0.84494 0.40676 0.97049 0.0
H391 H 0.82384 0.39477 0.93074 0.0
C392 C 0.75054 0.66028 0.41605 0.0
C393 C 0.75664 0.64248 0.38617 0.0
C394 C 0.71727 0.65009 0.43371 0.0
C395 C 0.68967 0.62026 0.4221 0.0
C396 C 0.69572 0.60151 0.3925 0.0
C397 C 0.72882 0.6133 0.3746 0.0
C398 C 0.71161 0.67142 0.4647 0.0
C399 C 0.66722 0.56887 0.37974 0.0
C400 C 0.61391 0.56673 0.4842 0.0
C401 C 0.58578 0.58195 0.47229 0.0
C402 C 0.64804 0.57925 0.46836 0.0
C403 C 0.65434 0.60863 0.44075 0.0
C404 C 0.62636 0.62555 0.42989 0.0
C405 C 0.5922 0.6114 0.44536 0.0
C406 C 0.67679 0.55954 0.47998 0.0
C407 C 0.63226 0.65785 0.40135 0.0
H408 H 0.77184 0.68208 0.42599 0.0
H409 H 0.7327 0.59972 0.35132 0.0
H410 H 0.6884 0.68444 0.46125 0.0
H411 H 0.70556 0.65044 0.48775 0.0
H412 H 0.73524 0.69521 0.46947 0.0
H413 H 0.67681 0.55578 0.35749 0.0
H414 H 0.65778 0.54529 0.40055 0.0
H415 H 0.644 0.58025 0.37206 0.0
H416 H 0.60876 0.54341 0.50465 0.0
H417 H 0.57035 0.62309 0.43616 0.0
H418 H 0.70079 0.58179 0.48644 0.0
H419 H 0.68473 0.54363 0.45883 0.0
H420 H 0.66797 0.53829 0.50264 0.0
H421 H 0.6557 0.68174 0.40628 0.0
H422 H 0.60877 0.67052 0.39831 0.0
H423 H 0.63793 0.64616 0.37683 0.0
C424 C 0.14492 0.31741 0.14388 0.0
C425 C 0.13726 0.27861 0.13488 0.0
C426 C 0.12403 0.34296 0.13249 0.0
C427 C 0.09506 0.32918 0.11144 0.0
C428 C 0.08596 0.28912 0.10427 0.0
C429 C 0.10737 0.26427 0.11601 0.0
C430 C 0.1346 0.38537 0.14082 0.0
C431 C 0.05529 0.27322 0.08206 0.0
C432 C 0.03304 0.39604 0.0901 0.0
C433 C 0.04821 0.41504 0.05869 0.0
C434 C 0.04756 0.36749 0.10749 0.0
C435 C 0.07784 0.35775 0.09303 0.0
C436 C 0.09265 0.37619 0.06095 0.0
C437 C 0.0777 0.40454 0.04424 0.0
C438 C 0.03107 0.34843 0.14162 0.0
C439 C 0.12485 0.36658 0.0445 0.0
H440 H 0.16835 0.32837 0.15829 0.0
H441 H 0.1018 0.23419 0.10891 0.0
H442 H 0.1462 0.40414 0.11743 0.0
H443 H 0.11098 0.39526 0.14947 0.0
H444 H 0.15455 0.39014 0.16099 0.0
H445 H 0.04854 0.2406 0.08304 0.0
H446 H 0.03133 0.2829 0.09006 0.0
H447 H 0.06238 0.28491 0.05512 0.0
H448 H 0.01031 0.40407 0.10149 0.0
H449 H 0.08952 0.4189 0.01992 0.0
H450 H 0.05035 0.3565 0.16197 0.0
H451 H 0.02469 0.31597 0.14132 0.0
H452 H 0.0064 0.35748 0.14843 0.0
H453 H 0.14781 0.37411 0.06127 0.0
H454 H 0.1325 0.38275 0.01902 0.0
H455 H 0.11951 0.33461 0.04136 0.0
C456 C 0.5958 0.26427 0.91059 0.0
C457 C 0.63269 0.27984 0.90682 0.0
C458 C 0.58143 0.23071 0.93265 0.0
C459 C 0.6045 0.21237 0.95154 0.0
C460 C 0.64173 0.22822 0.94822 0.0
C461 C 0.65538 0.26169 0.92584 0.0
C462 C 0.54158 0.21465 0.93551 0.0
C463 C 0.66717 0.20947 0.96795 0.0
C464 C 0.56608 0.14403 0.02983 0.0
C465 C 0.56122 0.10694 0.01691 0.0
C466 C 0.58028 0.1786 0.0089 0.0
C467 C 0.58971 0.17605 0.97417 0.0
C468 C 0.58488 0.13877 0.96096 0.0
C469 C 0.57073 0.10471 0.98247 0.0
C470 C 0.58522 0.21784 0.02393 0.0
C471 C 0.59449 0.13485 0.92402 0.0
H472 H 0.57809 0.27844 0.89632 0.0
H473 H 0.68393 0.27318 0.9227 0.0
H474 H 0.53456 0.18415 0.92755 0.0
H475 H 0.53193 0.21345 0.96252 0.0
H476 H 0.52729 0.23267 0.91943 0.0
H477 H 0.6953 0.22621 0.9634 0.0
H478 H 0.66039 0.20734 0.99578 0.0
H479 H 0.66468 0.17911 0.96045 0.0
H480 H 0.55892 0.14611 0.05641 0.0
H481 H 0.5668 0.07629 0.97212 0.0
H482 H 0.56961 0.23595 0.00979 0.0
H483 H 0.61359 0.23412 0.02113 0.0
H484 H 0.57681 0.21476 0.05148 0.0
H485 H 0.57888 0.15017 0.9069 0.0
H486 H 0.58939 0.10369 0.91782 0.0
H487 H 0.62303 0.14909 0.91829 0.0
C488 C 0.85719 0.77691 0.35108 0.0
C489 C 0.87014 0.74307 0.35598 0.0
C490 C 0.87482 0.81231 0.36406 0.0
C491 C 0.90592 0.81375 0.38273 0.0
C492 C 0.92061 0.78051 0.3854 0.0
C493 C 0.90258 0.74555 0.37184 0.0
C494 C 0.85855 0.84721 0.36009 0.0
C495 C 0.95366 0.78073 0.4051 0.0
C496 C 0.95761 0.91319 0.40923 0.0
C497 C 0.9424 0.9137 0.44201 0.0
C498 C 0.94651 0.88065 0.38969 0.0
C499 C 0.91985 0.84777 0.40341 0.0
C500 C 0.90521 0.84774 0.43687 0.0
C501 C 0.91652 0.88072 0.45563 0.0
C502 C 0.96255 0.88188 0.35406 0.0
C503 C 0.877 0.81312 0.45267 0.0
H504 H 0.83219 0.77506 0.33864 0.0
H505 H 0.91249 0.71934 0.37594 0.0
H506 H 0.84641 0.85139 0.38503 0.0
H507 H 0.87925 0.87444 0.35235 0.0
H508 H 0.8376 0.84328 0.34086 0.0
H509 H 0.96466 0.75509 0.40039 0.0
H510 H 0.97451 0.80808 0.39822 0.0
H511 H 0.94713 0.77983 0.43291 0.0
H512 H 0.97756 0.93862 0.39847 0.0
H513 H 0.90481 0.88073 0.48101 0.0
H514 H 0.94173 0.88161 0.33505 0.0
H515 H 0.97286 0.85543 0.35113 0.0
H516 H 0.98455 0.90847 0.34794 0.0
H517 H 0.85279 0.80892 0.43741 0.0
H518 H 0.86951 0.81701 0.4795 0.0
H519 H 0.88658 0.78584 0.45237 0.0
C520 C 0.3993 0.83412 0.64521 0.0
C521 C 0.38408 0.82731 0.67855 0.0
C522 C 0.40787 0.80357 0.62821 0.0
C523 C 0.40078 0.76529 0.64489 0.0
C524 C 0.38422 0.75797 0.67806 0.0
C525 C 0.37619 0.78912 0.69454 0.0
C526 C 0.42562 0.81254 0.59289 0.0
C527 C 0.3758 0.71745 0.6965 0.0
C528 C 0.39821 0.67829 0.59201 0.0
C529 C 0.43157 0.6706 0.59786 0.0
C530 C 0.38792 0.70916 0.60696 0.0
C531 C 0.41164 0.73311 0.62811 0.0
C532 C 0.44555 0.72588 0.63376 0.0
C533 C 0.45508 0.69461 0.61865 0.0
C534 C 0.35147 0.71579 0.60051 0.0
C535 C 0.47166 0.75098 0.65601 0.0
H536 H 0.40584 0.86371 0.63294 0.0
H537 H 0.36415 0.78374 0.72022 0.0
H538 H 0.45274 0.80736 0.59361 0.0
H539 H 0.41052 0.79258 0.57477 0.0
H540 H 0.4278 0.84339 0.58284 0.0
H541 H 0.36129 0.71628 0.72147 0.0
H542 H 0.35945 0.69581 0.68042 0.0
H543 H 0.40082 0.7082 0.70114 0.0
H544 H 0.37982 0.65985 0.57604 0.0
H545 H 0.48091 0.68891 0.62325 0.0
H546 H 0.35388 0.74621 0.58929 0.0
H547 H 0.33586 0.71243 0.6251 0.0
H548 H 0.33639 0.69494 0.58297 0.0
H549 H 0.47703 0.78229 0.64618 0.0
H550 H 0.49731 0.74219 0.65707 0.0
H551 H 0.46009 0.74873 0.68244 0.0
C552 C 0.8978 0.88 0.7225 0.0
C553 C 0.90432 0.90869 0.74622 0.0
C554 C 0.91187 0.88858 0.6887 0.0
C555 C 0.93341 0.92652 0.6787 0.0
C556 C 0.94082 0.95521 0.70288 0.0
C557 C 0.92595 0.94603 0.73628 0.0
C558 C 0.90294 0.85744 0.6635 0.0
C559 C 0.9641 0.99582 0.69338 0.0
C560 C 0.99473 0.94493 0.59906 0.0
C561 C 0.97623 0.96449 0.57626 0.0
C562 C 0.98072 0.93142 0.63229 0.0
C563 C 0.94715 0.937 0.64265 0.0
C564 C 0.92765 0.95506 0.61914 0.0
C565 C 0.94258 0.96892 0.58634 0.0
C566 C 0.00251 0.91277 0.65677 0.0
C567 C 0.89148 0.96089 0.62897 0.0
H568 H 0.88087 0.85118 0.73016 0.0
H569 H 0.93132 0.96807 0.75475 0.0
H570 H 0.88779 0.86749 0.64245 0.0
H571 H 0.92767 0.85254 0.65178 0.0
H572 H 0.88686 0.829 0.67564 0.0
H573 H 0.9688 0.01401 0.71566 0.0
H574 H 0.99019 0.9937 0.68248 0.0
H575 H 0.95146 0.01117 0.67339 0.0
H576 H 0.02084 0.9416 0.59143 0.0
H577 H 0.92802 0.98369 0.56867 0.0
H578 H 0.98651 0.88398 0.66815 0.0
H579 H 0.01031 0.93179 0.67813 0.0
H580 H 0.02701 0.90829 0.64412 0.0
H581 H 0.87381 0.93273 0.63981 0.0
H582 H 0.8785 0.97232 0.60684 0.0
H583 H 0.89413 0.98198 0.64907 0.0
C584 C 0.68417 0.18776 0.29166 0.0
C585 C 0.66789 0.18856 0.32384 0.0
C586 C 0.66392 0.17469 0.26369 0.0
C587 C 0.62645 0.16218 0.26798 0.0
C588 C 0.60973 0.16422 0.30009 0.0
C589 C 0.63069 0.17744 0.32768 0.0
C590 C 0.68272 0.17324 0.2298 0.0
C591 C 0.56982 0.15122 0.30558 0.0
C592 C 0.57269 0.15409 0.18783 0.0
C593 C 0.56619 0.11376 0.18339 0.0
C594 C 0.59194 0.17023 0.21546 0.0
C595 C 0.60499 0.14545 0.2392 0.0
C596 C 0.59837 0.10469 0.23498 0.0
C597 C 0.57905 0.08933 0.20712 0.0
C598 C 0.59852 0.21384 0.21912 0.0
C599 C 0.61192 0.07734 0.25978 0.0
H600 H 0.71291 0.19693 0.28846 0.0
H601 H 0.61802 0.17774 0.35257 0.0
H602 H 0.67797 0.14234 0.22302 0.0
H603 H 0.67189 0.18971 0.2092 0.0
H604 H 0.71189 0.18572 0.2303 0.0
H605 H 0.56083 0.15688 0.33144 0.0
H606 H 0.55667 0.16668 0.2861 0.0
H607 H 0.56074 0.11929 0.3024 0.0
H608 H 0.5628 0.17319 0.16966 0.0
H609 H 0.57407 0.05813 0.20393 0.0
H610 H 0.62754 0.2274 0.21785 0.0
H611 H 0.58802 0.21909 0.24447 0.0
H612 H 0.58591 0.22894 0.19887 0.0
H613 H 0.64139 0.08638 0.25988 0.0
H614 H 0.60387 0.04627 0.25328 0.0
H615 H 0.6017 0.07914 0.28614 0.0
C616 C 0.37947 0.63119 0.324 0.0
C617 C 0.34438 0.63323 0.33035 0.0
C618 C 0.40063 0.62371 0.35114 0.0
C619 C 0.38597 0.61783 0.38513 0.0
C620 C 0.35085 0.62153 0.39154 0.0
C621 C 0.33044 0.62918 0.36395 0.0
C622 C 0.43802 0.62029 0.34332 0.0
C623 C 0.3342 0.61541 0.42733 0.0
C624 C 0.41982 0.55155 0.45001 0.0
C625 C 0.44076 0.57878 0.47026 0.0
C626 C 0.4024 0.56397 0.4219 0.0
C627 C 0.40608 0.60465 0.41369 0.0
C628 C 0.42766 0.63235 0.43363 0.0
C629 C 0.44468 0.6191 0.46174 0.0
C630 C 0.37948 0.53346 0.40135 0.0
C631 C 0.43233 0.67595 0.42558 0.0
H632 H 0.38994 0.63407 0.29779 0.0
H633 H 0.30306 0.63049 0.36856 0.0
H634 H 0.45699 0.63846 0.36001 0.0
H635 H 0.43952 0.58934 0.34872 0.0
H636 H 0.44663 0.62955 0.31615 0.0
H637 H 0.30768 0.62226 0.42822 0.0
H638 H 0.33103 0.58438 0.43727 0.0
H639 H 0.35173 0.63411 0.44479 0.0
H640 H 0.41665 0.52036 0.45633 0.0
H641 H 0.46087 0.6404 0.47717 0.0
H642 H 0.38844 0.53862 0.37397 0.0
H643 H 0.3515 0.53593 0.40294 0.0
H644 H 0.38019 0.50304 0.41049 0.0
H645 H 0.44196 0.68434 0.39859 0.0
H646 H 0.4514 0.69371 0.44252 0.0
H647 H 0.40632 0.68357 0.42853 0.0
C648 C 0.0474 0.44548 0.77603 0.0
C649 C 0.07916 0.4337 0.77235 0.0
C650 C 0.04005 0.46383 0.80508 0.0
C651 C 0.06519 0.47058 0.83104 0.0
C652 C 0.09813 0.46023 0.82659 0.0
C653 C 0.10465 0.44161 0.79726 0.0
C654 C 0.00455 0.47405 0.80879 0.0
C655 C 0.12573 0.46719 0.85349 0.0
C656 C 0.04886 0.53793 0.89873 0.0
C657 C 0.03053 0.51063 0.92481 0.0
C658 C 0.06139 0.52544 0.86847 0.0
C659 C 0.05531 0.48472 0.86409 0.0
C660 C 0.03757 0.45711 0.89067 0.0
C661 C 0.02552 0.47035 0.92061 0.0
C662 C 0.08043 0.55578 0.84085 0.0
C663 C 0.03036 0.41342 0.88711 0.0
H664 H 0.02765 0.43898 0.75672 0.0
H665 H 0.12914 0.43217 0.79434 0.0
H666 H 0.98854 0.45531 0.83031 0.0
H667 H 0.00835 0.50505 0.81497 0.0
H668 H 0.98914 0.46973 0.78521 0.0
H669 H 0.15138 0.46178 0.84448 0.0
H670 H 0.13055 0.49779 0.86105 0.0
H671 H 0.11585 0.44733 0.87674 0.0
H672 H 0.05302 0.56909 0.90174 0.0
H673 H 0.01162 0.44892 0.9406 0.0
H674 H 0.06425 0.55414 0.81776 0.0
H675 H 0.10621 0.54972 0.83326 0.0
H676 H 0.08546 0.58612 0.84916 0.0
H677 H 0.01264 0.40551 0.86553 0.0
H678 H 0.01759 0.39579 0.91069 0.0
H679 H 0.05553 0.40508 0.88115 0.0
C680 C 0.78727 0.96029 0.91845 0.0
C681 C 0.78204 0.93506 0.89202 0.0
C682 C 0.75833 0.96439 0.93888 0.0
C683 C 0.72351 0.94289 0.93237 0.0
C684 C 0.71861 0.91547 0.90698 0.0
C685 C 0.74806 0.912 0.88695 0.0
C686 C 0.76476 0.99383 0.9657 0.0
C687 C 0.682 0.89192 0.89926 0.0
C688 C 0.64575 0.94308 0.99372 0.0
C689 C 0.63152 0.97232 0.97733 0.0
C690 C 0.67588 0.93321 0.97962 0.0
C691 C 0.69209 0.9531 0.94849 0.0
C692 C 0.67805 0.98294 0.93214 0.0
C693 C 0.64803 0.99214 0.94673 0.0
C694 C 0.69011 0.90125 0.99775 0.0
C695 C 0.69452 0.00498 0.89893 0.0
H696 H 0.8137 0.97831 0.922 0.0
H697 H 0.74422 0.89274 0.86619 0.0
H698 H 0.75479 0.01975 0.95685 0.0
H699 H 0.74999 0.981 0.99002 0.0
H700 H 0.79346 0.00403 0.97083 0.0
H701 H 0.68316 0.86831 0.88217 0.0
H702 H 0.6669 0.87845 0.92325 0.0
H703 H 0.66697 0.9117 0.88655 0.0
H704 H 0.6331 0.92755 0.01734 0.0
H705 H 0.63733 0.01484 0.93388 0.0
H706 H 0.71857 0.91269 0.0031 0.0
H707 H 0.68855 0.87677 0.98101 0.0
H708 H 0.67516 0.88941 0.02225 0.0
H709 H 0.72288 0.01948 0.90226 0.0
H710 H 0.68065 0.02774 0.88975 0.0
H711 H 0.69371 0.98414 0.87881 0.0
C712 C 0.80357 0.19485 0.4029 0.0
C713 C 0.77073 0.1723 0.39335 0.0
C714 C 0.83214 0.17765 0.40926 0.0
C715 C 0.82768 0.13693 0.40605 0.0
C716 C 0.79469 0.11407 0.39612 0.0
C717 C 0.7666 0.13205 0.38987 0.0
C718 C 0.867 0.20299 0.41964 0.0
C719 C 0.78891 0.07052 0.39257 0.0
C720 C 0.90987 0.09731 0.39546 0.0
C721 C 0.91342 0.08205 0.42888 0.0
C722 C 0.88209 0.11531 0.38764 0.0
C723 C 0.85728 0.11803 0.41386 0.0
C724 C 0.86068 0.10262 0.44762 0.0
C725 C 0.88872 0.08484 0.45473 0.0
C726 C 0.8793 0.13147 0.35134 0.0
C727 C 0.83468 0.10493 0.47624 0.0
H728 H 0.80699 0.22607 0.4052 0.0
H729 H 0.74112 0.11441 0.38291 0.0
H730 H 0.87354 0.19218 0.44538 0.0
H731 H 0.88881 0.20105 0.40153 0.0
H732 H 0.86633 0.23434 0.42029 0.0
H733 H 0.76195 0.05716 0.38377 0.0
H734 H 0.80898 0.06512 0.37409 0.0
H735 H 0.79247 0.05534 0.41755 0.0
H736 H 0.92885 0.09531 0.37534 0.0
H737 H 0.89125 0.07311 0.48062 0.0
H738 H 0.88059 0.16337 0.35079 0.0
H739 H 0.85325 0.11698 0.34133 0.0
H740 H 0.9008 0.1271 0.33394 0.0
H741 H 0.8348 0.13607 0.47935 0.0
H742 H 0.84099 0.09142 0.50107 0.0
H743 H 0.80731 0.08978 0.46984 0.0
C744 C 0.22597 0.60962 0.16451 0.0
C745 C 0.23831 0.64948 0.17007 0.0
C746 C 0.19595 0.59656 0.14524 0.0
C747 C 0.17774 0.62403 0.1312 0.0
C748 C 0.19088 0.66453 0.13554 0.0
C749 C 0.22106 0.6768 0.15492 0.0
C750 C 0.18294 0.55314 0.14103 0.0
C751 C 0.17217 0.69467 0.121 0.0
C752 C 0.11021 0.58609 0.06499 0.0
C753 C 0.07895 0.57313 0.08561 0.0
C754 C 0.1425 0.60424 0.07916 0.0
C755 C 0.14334 0.6097 0.11464 0.0
C756 C 0.11144 0.59854 0.1351 0.0
C757 C 0.0797 0.58032 0.12036 0.0
C758 C 0.17596 0.61586 0.05653 0.0
C759 C 0.11108 0.60418 0.17296 0.0
H760 H 0.23958 0.5885 0.17569 0.0
H761 H 0.23037 0.70762 0.15931 0.0
H762 H 0.1566 0.5417 0.15452 0.0
H763 H 0.17941 0.54799 0.11358 0.0
H764 H 0.20152 0.53602 0.15141 0.0
H765 H 0.18774 0.72522 0.12358 0.0
H766 H 0.16715 0.69088 0.09354 0.0
H767 H 0.14594 0.69043 0.13458 0.0
H768 H 0.10978 0.58059 0.03811 0.0
H769 H 0.05553 0.5708 0.13636 0.0
H770 H 0.19381 0.59649 0.06374 0.0
H771 H 0.19058 0.64645 0.06021 0.0
H772 H 0.17028 0.61351 0.029 0.0
H773 H 0.12639 0.58513 0.18632 0.0
H774 H 0.08366 0.59685 0.18464 0.0
H775 H 0.12412 0.63503 0.17749 0.0
C776 C 0.23504 0.38669 0.68193 0.0
C777 C 0.20707 0.40564 0.67982 0.0
C778 C 0.27038 0.40735 0.67408 0.0
C779 C 0.278 0.44802 0.6639 0.0
C780 C 0.25012 0.46773 0.66337 0.0
C781 C 0.21495 0.44629 0.67139 0.0
C782 C 0.29934 0.3853 0.67532 0.0
C783 C 0.2572 0.51111 0.65279 0.0
C784 C 0.37374 0.50834 0.66384 0.0
C785 C 0.38443 0.51046 0.62913 0.0
C786 C 0.33926 0.48806 0.67556 0.0
C787 C 0.31482 0.4694 0.65205 0.0
C788 C 0.32556 0.471 0.61706 0.0
C789 C 0.36022 0.49147 0.60603 0.0
C790 C 0.32888 0.4869 0.71306 0.0
C791 C 0.30029 0.45137 0.59119 0.0
H792 H 0.22911 0.35533 0.68885 0.0
H793 H 0.19343 0.46101 0.66943 0.0
H794 H 0.3107 0.38516 0.6491 0.0
H795 H 0.32129 0.40018 0.69102 0.0
H796 H 0.28938 0.35439 0.68607 0.0
H797 H 0.23314 0.52262 0.65617 0.0
H798 H 0.27871 0.52792 0.66794 0.0
H799 H 0.26638 0.51657 0.62547 0.0
H800 H 0.39223 0.52292 0.68191 0.0
H801 H 0.36818 0.493 0.57918 0.0
H802 H 0.31995 0.45599 0.72396 0.0
H803 H 0.30618 0.50065 0.71614 0.0
H804 H 0.35116 0.50245 0.72814 0.0
H805 H 0.2909 0.41947 0.59877 0.0
H806 H 0.31279 0.45517 0.56499 0.0
H807 H 0.27652 0.46374 0.59053 0.0
C808 C 0.896 0.8319 0.89025 0.0
C809 C 0.88334 0.82595 0.85733 0.0
C810 C 0.9057 0.80167 0.9102 0.0
C811 C 0.90235 0.76455 0.89699 0.0
C812 C 0.88863 0.75807 0.86414 0.0
C813 C 0.87943 0.78891 0.84465 0.0
C814 C 0.92039 0.80975 0.94503 0.0
C815 C 0.88419 0.71874 0.84935 0.0
C816 C 0.95884 0.69685 0.93124 0.0
C817 C 0.93452 0.67019 0.95375 0.0
C818 C 0.9489 0.72813 0.91305 0.0
C819 C 0.91372 0.73261 0.91724 0.0
C820 C 0.88919 0.70605 0.94019 0.0
C821 C 0.89993 0.67529 0.95827 0.0
C822 C 0.97589 0.75611 0.88901 0.0
C823 C 0.85138 0.70963 0.94512 0.0
H824 H 0.89948 0.86064 0.89996 0.0
H825 H 0.86936 0.78415 0.81931 0.0
H826 H 0.90455 0.78815 0.96489 0.0
H827 H 0.9481 0.80631 0.94546 0.0
H828 H 0.92034 0.83982 0.95199 0.0
H829 H 0.87193 0.71809 0.82398 0.0
H830 H 0.91049 0.71176 0.84645 0.0
H831 H 0.86733 0.69521 0.86704 0.0
H832 H 0.98561 0.69314 0.92766 0.0
H833 H 0.88089 0.65475 0.9755 0.0
H834 H 0.97859 0.78676 0.89581 0.0
H835 H 0.9667 0.75451 0.86243 0.0
H836 H 0.00249 0.74949 0.88963 0.0
H837 H 0.8512 0.73917 0.95327 0.0
H838 H 0.83581 0.68709 0.96451 0.0
H839 H 0.8378 0.70648 0.92049 0.0
C840 C 0.34286 0.77728 0.17942 0.0
C841 C 0.35168 0.74468 0.1965 0.0
C842 C 0.36924 0.81037 0.16695 0.0
C843 C 0.40545 0.81138 0.17222 0.0
C844 C 0.41453 0.77947 0.19088 0.0
C845 C 0.38755 0.74635 0.20262 0.0
C846 C 0.35836 0.84371 0.1471 0.0
C847 C 0.45281 0.77979 0.19752 0.0
C848 C 0.46934 0.87714 0.10575 0.0
C849 C 0.47881 0.91247 0.12172 0.0
C850 C 0.44667 0.84348 0.1225 0.0
C851 C 0.43356 0.84493 0.15628 0.0
C852 C 0.44473 0.87975 0.17332 0.0
C853 C 0.46699 0.91322 0.15574 0.0
C854 C 0.43512 0.80706 0.10329 0.0
C855 C 0.4319 0.88221 0.20956 0.0
H856 H 0.31518 0.77673 0.17535 0.0
H857 H 0.39467 0.72129 0.21565 0.0
H858 H 0.36897 0.87171 0.1589 0.0
H859 H 0.36983 0.84726 0.12053 0.0
H860 H 0.32901 0.83878 0.146 0.0
H861 H 0.45517 0.75475 0.21548 0.0
H862 H 0.46713 0.77816 0.17305 0.0
H863 H 0.46633 0.80764 0.20826 0.0
H864 H 0.47827 0.87619 0.07948 0.0
H865 H 0.47442 0.94027 0.16842 0.0
H866 H 0.40622 0.8016 0.09881 0.0
H867 H 0.43938 0.781 0.11865 0.0
H868 H 0.44967 0.80974 0.07815 0.0
H869 H 0.4032 0.88185 0.20999 0.0
H870 H 0.44658 0.90941 0.22065 0.0
H871 H 0.43489 0.85639 0.22614 0.0
C872 C 0.13471 0.26322 0.64676 0.0
C873 C 0.11493 0.29174 0.64408 0.0
C874 C 0.12728 0.23077 0.62685 0.0
C875 C 0.09965 0.22698 0.60335 0.0
C876 C 0.07925 0.25543 0.60084 0.0
C877 C 0.087 0.28738 0.62141 0.0
C878 C 0.14933 0.20081 0.63068 0.0
C879 C 0.04985 0.25265 0.57583 0.0
C880 C 0.10822 0.165 0.5294 0.0
C881 C 0.08475 0.12896 0.54027 0.0
C882 C 0.11239 0.19752 0.54913 0.0
C883 C 0.09297 0.1938 0.58074 0.0
C884 C 0.06859 0.15778 0.59147 0.0
C885 C 0.06459 0.12587 0.57099 0.0
C886 C 0.13828 0.2356 0.53655 0.0
C887 C 0.04764 0.1525 0.62514 0.0
H888 H 0.15608 0.26631 0.66453 0.0
H889 H 0.07187 0.30958 0.61906 0.0
H890 H 0.13177 0.17101 0.63667 0.0
H891 H 0.1641 0.20029 0.60621 0.0
H892 H 0.16879 0.20712 0.65117 0.0
H893 H 0.03573 0.27646 0.57778 0.0
H894 H 0.06106 0.25436 0.54931 0.0
H895 H 0.03023 0.2239 0.58034 0.0
H896 H 0.1237 0.16772 0.50558 0.0
H897 H 0.04644 0.0981 0.57964 0.0
H898 H 0.16056 0.24221 0.5542 0.0
H899 H 0.12498 0.26023 0.53638 0.0
H900 H 0.14946 0.23452 0.51039 0.0
H901 H 0.06615 0.15561 0.64654 0.0
H902 H 0.02847 0.12331 0.62899 0.0
H903 H 0.03278 0.17567 0.62657 0.0
C904 C 0.61029 0.27959 0.45463 0.0
C905 C 0.64138 0.29749 0.43525 0.0
C906 C 0.58722 0.30196 0.46562 0.0
C907 C 0.5959 0.34308 0.45715 0.0
C908 C 0.62624 0.36067 0.43561 0.0
C909 C 0.64875 0.33755 0.42497 0.0
C910 C 0.55508 0.28207 0.48835 0.0
C911 C 0.63642 0.40437 0.42595 0.0
C912 C 0.53138 0.40606 0.47584 0.0
C913 C 0.5443 0.42148 0.50644 0.0
C914 C 0.54724 0.3796 0.45978 0.0
C915 C 0.57659 0.36843 0.47473 0.0
C916 C 0.58889 0.38292 0.50619 0.0
C917 C 0.5726 0.40918 0.52162 0.0
C918 C 0.53335 0.3646 0.42634 0.0
C919 C 0.62004 0.37165 0.52311 0.0
H920 H 0.60493 0.2485 0.46266 0.0
H921 H 0.67308 0.3512 0.41011 0.0
H922 H 0.56 0.28999 0.51503 0.0
H923 H 0.53136 0.29221 0.48017 0.0
H924 H 0.54908 0.24956 0.48823 0.0
H925 H 0.65802 0.4126 0.40572 0.0
H926 H 0.61308 0.4146 0.41681 0.0
H927 H 0.64569 0.42019 0.44885 0.0
H928 H 0.50954 0.41548 0.46394 0.0
H929 H 0.58262 0.42073 0.54537 0.0
H930 H 0.5281 0.33209 0.42762 0.0
H931 H 0.55375 0.37636 0.40547 0.0
H932 H 0.50852 0.37337 0.41958 0.0
H933 H 0.615 0.33921 0.52714 0.0
H934 H 0.62538 0.38428 0.54822 0.0
H935 H 0.64433 0.38209 0.50621 0.0
loop_
_geom_bond_atom_site_label_1
_geom_bond_atom_site_label_2
_geom_bond_distance
_geom_bond_site_symmetry_2
_ccdc_geom_bond_type
H0 C3 0.929 . S
H1 C6 0.929 . S
H2 C8 0.930 . S
C3 H0 0.929 . S
C3 C4 1.398 . S
C3 C5 1.396 . S
C4 C3 1.398 . S
C4 C8 1.407 . S
C5 C3 1.396 . S
C5 C6 1.394 . S
C6 H1 0.929 . S
C6 C5 1.394 . S
C6 C7 1.382 . S
C7 C6 1.382 . S
C7 C8 1.392 . S
C7 N9 1.420 . S
C8 H2 0.930 . S
C8 C4 1.407 . S
C8 C7 1.392 . S
N9 C7 1.420 . S
N9 C10 1.244 . S
C10 N9 1.244 . S
H11 C14 0.929 . S
H12 C17 0.929 . S
H13 C19 0.930 . S
C14 H11 0.929 . S
C14 C15 1.398 . S
C14 C16 1.396 . S
C15 C14 1.398 . S
C15 C19 1.407 . S
C16 C14 1.396 . S
C16 C17 1.394 . S
C17 H12 0.929 . S
C17 C16 1.394 . S
C17 C18 1.382 . S
C18 C17 1.382 . S
C18 C19 1.392 . S
C18 N20 1.420 . S
C19 H13 0.930 . S
C19 C15 1.407 . S
C19 C18 1.392 . S
N20 C18 1.420 . S
N20 C21 1.244 . S
C21 N20 1.244 . S
H22 C25 0.929 . S
H23 C28 0.929 . S
H24 C30 0.930 . S
C25 H22 0.929 . S
C25 C26 1.398 . S
C25 C27 1.396 . S
C26 C25 1.398 . S
C26 C30 1.407 . S
C27 C25 1.396 . S
C27 C28 1.394 . S
C28 H23 0.929 . S
C28 C27 1.394 . S
C28 C29 1.382 . S
C29 C28 1.382 . S
C29 C30 1.392 . S
C29 N31 1.420 . S
C30 H24 0.930 . S
C30 C26 1.407 . S
C30 C29 1.392 . S
N31 C29 1.420 . S
N31 C32 1.244 . S
C32 N31 1.244 . S
H33 C36 0.929 . S
H34 C39 0.929 . S
H35 C41 0.930 . S
C36 H33 0.929 . S
C36 C37 1.398 . S
C36 C38 1.396 . S
C37 C36 1.398 . S
C37 C41 1.407 . S
C38 C36 1.396 . S
C38 C39 1.394 . S
C39 H34 0.929 . S
C39 C38 1.394 . S
C39 C40 1.382 . S
C40 C39 1.382 . S
C40 C41 1.392 . S
C40 N42 1.420 . S
C41 H35 0.930 . S
C41 C37 1.407 . S
C41 C40 1.392 . S
N42 C40 1.420 . S
N42 C43 1.244 . S
C43 N42 1.244 . S
H44 C47 0.929 . S
H45 C50 0.929 . S
H46 C52 0.930 . S
C47 H44 0.929 . S
C47 C48 1.398 . S
C47 C49 1.396 . S
C48 C47 1.398 . S
C48 C52 1.407 . S
C49 C47 1.396 . S
C49 C50 1.394 . S
C50 H45 0.929 . S
C50 C49 1.394 . S
C50 C51 1.382 . S
C51 C50 1.382 . S
C51 C52 1.392 . S
C51 N53 1.420 . S
C52 H46 0.930 . S
C52 C48 1.407 . S
C52 C51 1.392 . S
N53 C51 1.420 . S
N53 C54 1.244 . S
C54 N53 1.244 . S
H55 C58 0.929 . S
H56 C61 0.929 . S
H57 C63 0.930 . S
C58 H55 0.929 . S
C58 C59 1.398 . S
C58 C60 1.396 . S
C59 C58 1.398 . S
C59 C63 1.407 . S
C60 C58 1.396 . S
C60 C61 1.394 . S
C61 H56 0.929 . S
C61 C60 1.394 . S
C61 C62 1.382 . S
C62 C61 1.382 . S
C62 C63 1.392 . S
C62 N64 1.420 . S
C63 H57 0.930 . S
C63 C59 1.407 . S
C63 C62 1.392 . S
N64 C62 1.420 . S
N64 C65 1.244 . S
C65 N64 1.244 . S
H66 C69 0.929 . S
H67 C72 0.929 . S
H68 C74 0.930 . S
C69 H66 0.929 . S
C69 C70 1.398 . S
C69 C71 1.396 . S
C70 C69 1.398 . S
C70 C74 1.407 . S
C71 C69 1.396 . S
C71 C72 1.394 . S
C72 H67 0.929 . S
C72 C71 1.394 . S
C72 C73 1.382 . S
C73 C72 1.382 . S
C73 C74 1.392 . S
C73 N75 1.420 . S
C74 H68 0.930 . S
C74 C70 1.407 . S
C74 C73 1.392 . S
N75 C73 1.420 . S
N75 C76 1.244 . S
C76 N75 1.244 . S
H77 C80 0.929 . S
H78 C83 0.929 . S
H79 C85 0.930 . S
C80 H77 0.929 . S
C80 C81 1.398 . S
C80 C82 1.396 . S
C81 C80 1.398 . S
C81 C85 1.407 . S
C82 C80 1.396 . S
C82 C83 1.394 . S
C83 H78 0.929 . S
C83 C82 1.394 . S
C83 C84 1.382 . S
C84 C83 1.382 . S
C84 C85 1.392 . S
C84 N86 1.420 . S
C85 H79 0.930 . S
C85 C81 1.407 . S
C85 C84 1.392 . S
N86 C84 1.420 . S
N86 C87 1.244 . S
C87 N86 1.244 . S
Zn88 O94 1.969 . S
Zn88 O95 1.965 1_545 S
Zn88 O99 2.024 . S
Zn88 O104 1.969 . S
Zn89 O96 1.969 1_545 S
Zn89 O102 1.969 . S
Zn89 O103 1.965 1_655 S
Zn89 O105 2.024 1_545 S
C90 O91 1.229 . S
C90 O99 1.058 . S
O91 C90 1.229 . S
C92 O93 1.229 . S
C92 O105 1.058 . S
O93 C92 1.229 . S
O94 Zn88 1.969 . S
O94 C97 1.267 1_545 S
O95 Zn88 1.965 1_565 S
O95 C106 1.260 1_455 S
O96 Zn89 1.969 1_565 S
O96 C106 1.258 . S
C97 O94 1.267 1_565 S
C97 O98 1.228 . S
O98 C97 1.228 . S
O99 Zn88 2.024 . S
O99 C90 1.058 . S
C100 O101 1.228 . S
C100 O102 1.267 . S
O101 C100 1.228 . S
O102 Zn89 1.969 . S
O102 C100 1.267 . S
O103 Zn89 1.965 1_455 S
O103 C107 1.260 . S
O104 Zn88 1.969 . S
O104 C107 1.258 . S
O105 Zn89 2.024 1_565 S
O105 C92 1.058 . S
C106 O95 1.260 1_655 S
C106 O96 1.258 . S
C107 O103 1.260 . S
C107 O104 1.258 . S
Zn108 O114 1.969 . S
Zn108 O115 1.964 1_565 S
Zn108 O119 2.025 1_554 S
Zn108 O124 1.967 . S
Zn109 O116 1.969 . S
Zn109 O122 1.969 . S
Zn109 O123 1.964 1_545 S
Zn109 O125 2.024 . S
C110 O111 1.229 . S
C110 O119 1.058 . S
O111 C110 1.229 . S
C112 O113 1.229 . S
C112 O125 1.058 . S
O113 C112 1.229 . S
O114 Zn108 1.969 . S
O114 C117 1.261 1_554 S
O115 Zn108 1.964 1_545 S
O115 C126 1.260 . S
O116 Zn109 1.969 . S
O116 C126 1.258 . S
C117 O114 1.261 1_556 S
C117 O118 1.228 . S
O118 C117 1.228 . S
O119 Zn108 2.025 1_556 S
O119 C110 1.058 . S
C120 O121 1.228 . S
C120 O122 1.267 . S
O121 C120 1.228 . S
O122 Zn109 1.969 . S
O122 C120 1.267 . S
O123 Zn109 1.964 1_565 S
O123 C127 1.261 . S
O124 Zn108 1.967 . S
O124 C127 1.258 . S
O125 Zn109 2.024 . S
O125 C112 1.058 . S
C126 O115 1.260 . S
C126 O116 1.258 . S
C127 O123 1.261 . S
C127 O124 1.258 . S
Zn128 O134 1.969 . S
Zn128 O135 1.965 . S
Zn128 O139 2.024 . S
Zn128 O144 1.969 . S
Zn129 O136 1.969 . S
Zn129 O142 1.969 . S
Zn129 O143 1.965 . S
Zn129 O145 2.024 . S
C130 O131 1.229 . S
C130 O139 1.058 . S
O131 C130 1.229 . S
C132 O133 1.229 . S
C132 O145 1.058 . S
O133 C132 1.229 . S
O134 Zn128 1.969 . S
O134 C137 1.267 . S
O135 Zn128 1.965 . S
O135 C146 1.260 . S
O136 Zn129 1.969 . S
O136 C146 1.258 . S
C137 O134 1.267 . S
C137 O138 1.228 . S
O138 C137 1.228 . S
O139 Zn128 2.024 . S
O139 C130 1.058 . S
C140 O141 1.228 . S
C140 O142 1.267 . S
O141 C140 1.228 . S
O142 Zn129 1.969 . S
O142 C140 1.267 . S
O143 Zn129 1.965 . S
O143 C147 1.260 . S
O144 Zn128 1.969 . S
O144 C147 1.258 . S
O145 Zn129 2.024 . S
O145 C132 1.058 . S
C146 O135 1.260 . S
C146 O136 1.258 . S
C147 O143 1.260 . S
C147 O144 1.258 . S
Zn148 O154 1.969 . S
Zn148 O155 1.965 1_556 S
Zn148 O159 2.024 . S
Zn148 O164 1.969 1_655 S
Zn149 O156 1.969 . S
Zn149 O162 1.969 . S
Zn149 O163 1.965 1_554 S
Zn149 O165 2.024 . S
C150 O151 1.229 . S
C150 O159 1.058 . S
O151 C150 1.229 . S
C152 O153 1.229 . S
C152 O165 1.058 . S
O153 C152 1.229 . S
O154 Zn148 1.969 . S
O154 C157 1.267 . S
O155 Zn148 1.965 1_554 S
O155 C166 1.260 . S
O156 Zn149 1.969 . S
O156 C166 1.258 1_455 S
C157 O154 1.267 . S
C157 O158 1.228 . S
O158 C157 1.228 . S
O159 Zn148 2.024 . S
O159 C150 1.058 . S
C160 O161 1.228 . S
C160 O162 1.267 . S
O161 C160 1.228 . S
O162 Zn149 1.969 . S
O162 C160 1.267 . S
O163 Zn149 1.965 1_556 S
O163 C167 1.260 . S
O164 Zn148 1.969 1_455 S
O164 C167 1.258 . S
O165 Zn149 2.024 . S
O165 C152 1.058 . S
C166 O155 1.260 . S
C166 O156 1.258 1_655 S
C167 O163 1.260 . S
C167 O164 1.258 . S
C168 C169 1.391 . S
C168 C170 1.394 . S
C168 H184 0.931 . S
C169 C168 1.391 . S
C169 C173 1.376 . S
C170 C168 1.394 . S
C170 C171 1.369 . S
C170 C174 1.531 . S
C171 C170 1.369 . S
C171 C172 1.410 . S
C171 C179 1.503 . S
C172 C171 1.410 . S
C172 C173 1.392 . S
C172 C175 1.511 . S
C173 C169 1.376 . S
C173 C172 1.392 . S
C173 H185 0.929 . S
C174 C170 1.531 . S
C174 H186 0.960 . S
C174 H187 0.962 . S
C174 H188 0.960 . S
C175 C172 1.511 . S
C175 H189 0.961 . S
C175 H190 0.961 . S
C175 H191 0.961 . S
C176 C177 1.370 . S
C176 C178 1.363 . S
C176 H192 0.931 . S
C177 C176 1.370 . S
C177 C181 1.408 . S
C178 C176 1.363 . S
C178 C179 1.370 . S
C178 C182 1.524 . S
C179 C171 1.503 . S
C179 C178 1.370 . S
C179 C180 1.403 . S
C180 C179 1.403 . S
C180 C181 1.404 . S
C180 C183 1.539 . S
C181 C177 1.408 . S
C181 C180 1.404 . S
C181 H193 0.930 . S
C182 C178 1.524 . S
C182 H194 0.956 . S
C182 H195 0.961 . S
C182 H196 0.961 . S
C183 C180 1.539 . S
C183 H197 0.958 . S
C183 H198 0.961 . S
C183 H199 0.960 . S
H184 C168 0.931 . S
H185 C173 0.929 . S
H186 C174 0.960 . S
H187 C174 0.962 . S
H188 C174 0.960 . S
H189 C175 0.961 . S
H190 C175 0.961 . S
H191 C175 0.961 . S
H192 C176 0.931 . S
H193 C181 0.930 . S
H194 C182 0.956 . S
H195 C182 0.961 . S
H196 C182 0.961 . S
H197 C183 0.958 . S
H198 C183 0.961 . S
H199 C183 0.960 . S
C200 C201 1.391 . S
C200 C202 1.394 . S
C200 H216 0.931 . S
C201 C200 1.391 . S
C201 C205 1.376 . S
C202 C200 1.394 . S
C202 C203 1.369 . S
C202 C206 1.531 . S
C203 C202 1.369 . S
C203 C204 1.410 . S
C203 C211 1.503 . S
C204 C203 1.410 . S
C204 C205 1.392 . S
C204 C207 1.511 . S
C205 C201 1.376 . S
C205 C204 1.392 . S
C205 H217 0.929 . S
C206 C202 1.531 . S
C206 H218 0.960 . S
C206 H219 0.962 . S
C206 H220 0.960 . S
C207 C204 1.511 . S
C207 H221 0.961 . S
C207 H222 0.961 . S
C207 H223 0.961 . S
C208 C209 1.370 . S
C208 C210 1.363 . S
C208 H224 0.931 . S
C209 C208 1.370 . S
C209 C213 1.408 . S
C210 C208 1.363 . S
C210 C211 1.370 . S
C210 C214 1.524 . S
C211 C203 1.503 . S
C211 C210 1.370 . S
C211 C212 1.403 . S
C212 C211 1.403 . S
C212 C213 1.404 . S
C212 C215 1.539 . S
C213 C209 1.408 . S
C213 C212 1.404 . S
C213 H225 0.930 . S
C214 C210 1.524 . S
C214 H226 0.956 . S
C214 H227 0.961 . S
C214 H228 0.961 . S
C215 C212 1.539 . S
C215 H229 0.958 . S
C215 H230 0.961 . S
C215 H231 0.960 . S
H216 C200 0.931 . S
H217 C205 0.929 . S
H218 C206 0.960 . S
H219 C206 0.962 . S
H220 C206 0.960 . S
H221 C207 0.961 . S
H222 C207 0.961 . S
H223 C207 0.961 . S
H224 C208 0.931 . S
H225 C213 0.930 . S
H226 C214 0.956 . S
H227 C214 0.961 . S
H228 C214 0.961 . S
H229 C215 0.958 . S
H230 C215 0.961 . S
H231 C215 0.960 . S
C232 C233 1.391 . S
C232 C234 1.394 . S
C232 H248 0.931 . S
C233 C232 1.391 . S
C233 C237 1.376 . S
C234 C232 1.394 . S
C234 C235 1.369 . S
C234 C238 1.531 . S
C235 C234 1.369 . S
C235 C236 1.410 . S
C235 C243 1.503 . S
C236 C235 1.410 . S
C236 C237 1.392 . S
C236 C239 1.511 . S
C237 C233 1.376 . S
C237 C236 1.392 . S
C237 H249 0.929 . S
C238 C234 1.531 . S
C238 H250 0.960 . S
C238 H251 0.962 . S
C238 H252 0.960 . S
C239 C236 1.511 . S
C239 H253 0.961 . S
C239 H254 0.961 . S
C239 H255 0.961 . S
C240 C241 1.370 . S
C240 C242 1.363 . S
C240 H256 0.931 . S
C241 C240 1.370 . S
C241 C245 1.408 . S
C242 C240 1.363 . S
C242 C243 1.370 . S
C242 C246 1.524 . S
C243 C235 1.503 . S
C243 C242 1.370 . S
C243 C244 1.403 . S
C244 C243 1.403 . S
C244 C245 1.404 . S
C244 C247 1.539 . S
C245 C241 1.408 . S
C245 C244 1.404 . S
C245 H257 0.930 . S
C246 C242 1.524 . S
C246 H258 0.956 . S
C246 H259 0.961 . S
C246 H260 0.961 . S
C247 C244 1.539 . S
C247 H261 0.958 . S
C247 H262 0.961 . S
C247 H263 0.960 . S
H248 C232 0.931 . S
H249 C237 0.929 . S
H250 C238 0.960 . S
H251 C238 0.962 . S
H252 C238 0.960 . S
H253 C239 0.961 . S
H254 C239 0.961 . S
H255 C239 0.961 . S
H256 C240 0.931 . S
H257 C245 0.930 . S
H258 C246 0.956 . S
H259 C246 0.961 . S
H260 C246 0.961 . S
H261 C247 0.958 . S
H262 C247 0.961 . S
H263 C247 0.960 . S
C264 C265 1.391 . S
C264 C266 1.394 . S
C264 H280 0.931 . S
C265 C264 1.391 . S
C265 C269 1.376 . S
C266 C264 1.394 . S
C266 C267 1.369 . S
C266 C270 1.531 . S
C267 C266 1.369 . S
C267 C268 1.410 . S
C267 C275 1.503 . S
C268 C267 1.410 . S
C268 C269 1.392 . S
C268 C271 1.511 . S
C269 C265 1.376 . S
C269 C268 1.392 . S
C269 H281 0.929 . S
C270 C266 1.531 . S
C270 H282 0.960 . S
C270 H283 0.962 . S
C270 H284 0.960 . S
C271 C268 1.511 . S
C271 H285 0.961 . S
C271 H286 0.961 . S
C271 H287 0.961 . S
C272 C273 1.370 . S
C272 C274 1.363 . S
C272 H288 0.931 1_655 S
C273 C272 1.370 . S
C273 C277 1.408 . S
C274 C272 1.363 . S
C274 C275 1.370 . S
C274 C278 1.524 . S
C275 C267 1.503 . S
C275 C274 1.370 . S
C275 C276 1.403 . S
C276 C275 1.403 . S
C276 C277 1.404 . S
C276 C279 1.539 . S
C277 C273 1.408 . S
C277 C276 1.404 . S
C277 H289 0.930 . S
C278 C274 1.524 . S
C278 H290 0.956 . S
C278 H291 0.961 . S
C278 H292 0.961 . S
C279 C276 1.539 . S
C279 H293 0.958 . S
C279 H294 0.961 . S
C279 H295 0.960 . S
H280 C264 0.931 . S
H281 C269 0.929 . S
H282 C270 0.960 . S
H283 C270 0.962 . S
H284 C270 0.960 . S
H285 C271 0.961 . S
H286 C271 0.961 . S
H287 C271 0.961 . S
H288 C272 0.931 1_455 S
H289 C277 0.930 . S
H290 C278 0.956 . S
H291 C278 0.961 . S
H292 C278 0.961 . S
H293 C279 0.958 . S
H294 C279 0.961 . S
H295 C279 0.960 . S
C296 C297 1.391 . S
C296 C298 1.394 . S
C296 H312 0.931 . S
C297 C296 1.391 . S
C297 C301 1.376 . S
C298 C296 1.394 . S
C298 C299 1.369 . S
C298 C302 1.531 . S
C299 C298 1.369 . S
C299 C300 1.410 . S
C299 C307 1.503 . S
C300 C299 1.410 . S
C300 C301 1.392 . S
C300 C303 1.511 . S
C301 C297 1.376 . S
C301 C300 1.392 . S
C301 H313 0.929 . S
C302 C298 1.531 . S
C302 H314 0.960 . S
C302 H315 0.962 . S
C302 H316 0.960 . S
C303 C300 1.511 . S
C303 H317 0.961 . S
C303 H318 0.961 . S
C303 H319 0.961 . S
C304 C305 1.370 . S
C304 C306 1.363 . S
C304 H320 0.931 . S
C305 C304 1.370 . S
C305 C309 1.408 . S
C306 C304 1.363 . S
C306 C307 1.370 . S
C306 C310 1.524 . S
C307 C299 1.503 . S
C307 C306 1.370 . S
C307 C308 1.403 . S
C308 C307 1.403 . S
C308 C309 1.404 . S
C308 C311 1.539 . S
C309 C305 1.408 . S
C309 C308 1.404 . S
C309 H321 0.930 . S
C310 C306 1.524 . S
C310 H322 0.956 . S
C310 H323 0.961 . S
C310 H324 0.961 . S
C311 C308 1.539 . S
C311 H325 0.958 . S
C311 H326 0.961 . S
C311 H327 0.960 . S
H312 C296 0.931 . S
H313 C301 0.929 . S
H314 C302 0.960 . S
H315 C302 0.962 . S
H316 C302 0.960 . S
H317 C303 0.961 . S
H318 C303 0.961 . S
H319 C303 0.961 . S
H320 C304 0.931 . S
H321 C309 0.930 . S
H322 C310 0.956 . S
H323 C310 0.961 . S
H324 C310 0.961 . S
H325 C311 0.958 . S
H326 C311 0.961 . S
H327 C311 0.960 . S
C328 C329 1.391 . S
C328 C330 1.394 . S
C328 H344 0.931 . S
C329 C328 1.391 . S
C329 C333 1.376 . S
C330 C328 1.394 . S
C330 C331 1.369 . S
C330 C334 1.531 . S
C331 C330 1.369 . S
C331 C332 1.410 . S
C331 C339 1.503 . S
C332 C331 1.410 . S
C332 C333 1.392 . S
C332 C335 1.511 . S
C333 C329 1.376 . S
C333 C332 1.392 . S
C333 H345 0.929 . S
C334 C330 1.531 . S
C334 H346 0.960 . S
C334 H347 0.962 . S
C334 H348 0.960 . S
C335 C332 1.511 . S
C335 H349 0.961 . S
C335 H350 0.961 . S
C335 H351 0.961 . S
C336 C337 1.370 . S
C336 C338 1.363 . S
C336 H352 0.931 1_565 S
C337 C336 1.370 . S
C337 C341 1.408 . S
C338 C336 1.363 . S
C338 C339 1.370 . S
C338 C342 1.524 . S
C339 C331 1.503 . S
C339 C338 1.370 . S
C339 C340 1.403 . S
C340 C339 1.403 . S
C340 C341 1.404 . S
C340 C343 1.539 . S
C341 C337 1.408 . S
C341 C340 1.404 . S
C341 H353 0.930 . S
C342 C338 1.524 . S
C342 H354 0.956 . S
C342 H355 0.961 . S
C342 H356 0.961 1_565 S
C343 C340 1.539 . S
C343 H357 0.958 . S
C343 H358 0.961 . S
C343 H359 0.960 . S
H344 C328 0.931 . S
H345 C333 0.929 . S
H346 C334 0.960 . S
H347 C334 0.962 . S
H348 C334 0.960 . S
H349 C335 0.961 . S
H350 C335 0.961 . S
H351 C335 0.961 . S
H352 C336 0.931 1_545 S
H353 C341 0.930 . S
H354 C342 0.956 . S
H355 C342 0.961 . S
H356 C342 0.961 1_545 S
H357 C343 0.958 . S
H358 C343 0.961 . S
H359 C343 0.960 . S
C360 C361 1.391 . S
C360 C362 1.394 . S
C360 H376 0.931 . S
C361 C360 1.391 . S
C361 C365 1.376 . S
C362 C360 1.394 . S
C362 C363 1.369 . S
C362 C366 1.531 . S
C363 C362 1.369 . S
C363 C364 1.410 . S
C363 C371 1.503 . S
C364 C363 1.410 . S
C364 C365 1.392 . S
C364 C367 1.511 . S
C365 C361 1.376 . S
C365 C364 1.392 . S
C365 H377 0.929 . S
C366 C362 1.531 . S
C366 H378 0.960 . S
C366 H379 0.962 . S
C366 H380 0.960 . S
C367 C364 1.511 . S
C367 H381 0.961 . S
C367 H382 0.961 . S
C367 H383 0.961 . S
C368 C369 1.370 . S
C368 C370 1.363 . S
C368 H384 0.931 . S
C369 C368 1.370 . S
C369 C373 1.408 . S
C370 C368 1.363 . S
C370 C371 1.370 . S
C370 C374 1.524 . S
C371 C363 1.503 . S
C371 C370 1.370 . S
C371 C372 1.403 . S
C372 C371 1.403 . S
C372 C373 1.404 . S
C372 C375 1.539 . S
C373 C369 1.408 . S
C373 C372 1.404 . S
C373 H385 0.930 . S
C374 C370 1.524 . S
C374 H386 0.956 . S
C374 H387 0.961 . S
C374 H388 0.961 . S
C375 C372 1.539 . S
C375 H389 0.958 . S
C375 H390 0.961 . S
C375 H391 0.960 . S
H376 C360 0.931 . S
H377 C365 0.929 . S
H378 C366 0.960 . S
H379 C366 0.962 . S
H380 C366 0.960 . S
H381 C367 0.961 . S
H382 C367 0.961 . S
H383 C367 0.961 . S
H384 C368 0.931 . S
H385 C373 0.930 . S
H386 C374 0.956 . S
H387 C374 0.961 . S
H388 C374 0.961 . S
H389 C375 0.958 . S
H390 C375 0.961 . S
H391 C375 0.960 . S
C392 C393 1.391 . S
C392 C394 1.394 . S
C392 H408 0.931 . S
C393 C392 1.391 . S
C393 C397 1.376 . S
C394 C392 1.394 . S
C394 C395 1.369 . S
C394 C398 1.531 . S
C395 C394 1.369 . S
C395 C396 1.410 . S
C395 C403 1.503 . S
C396 C395 1.410 . S
C396 C397 1.392 . S
C396 C399 1.511 . S
C397 C393 1.376 . S
C397 C396 1.392 . S
C397 H409 0.929 . S
C398 C394 1.531 . S
C398 H410 0.960 . S
C398 H411 0.962 . S
C398 H412 0.960 . S
C399 C396 1.511 . S
C399 H413 0.961 . S
C399 H414 0.961 . S
C399 H415 0.961 . S
C400 C401 1.370 . S
C400 C402 1.363 . S
C400 H416 0.931 . S
C401 C400 1.370 . S
C401 C405 1.408 . S
C402 C400 1.363 . S
C402 C403 1.370 . S
C402 C406 1.524 . S
C403 C395 1.503 . S
C403 C402 1.370 . S
C403 C404 1.403 . S
C404 C403 1.403 . S
C404 C405 1.404 . S
C404 C407 1.539 . S
C405 C401 1.408 . S
C405 C404 1.404 . S
C405 H417 0.930 . S
C406 C402 1.524 . S
C406 H418 0.956 . S
C406 H419 0.961 . S
C406 H420 0.961 . S
C407 C404 1.539 . S
C407 H421 0.958 . S
C407 H422 0.961 . S
C407 H423 0.960 . S
H408 C392 0.931 . S
H409 C397 0.929 . S
H410 C398 0.960 . S
H411 C398 0.962 . S
H412 C398 0.960 . S
H413 C399 0.961 . S
H414 C399 0.961 . S
H415 C399 0.961 . S
H416 C400 0.931 . S
H417 C405 0.930 . S
H418 C406 0.956 . S
H419 C406 0.961 . S
H420 C406 0.961 . S
H421 C407 0.958 . S
H422 C407 0.961 . S
H423 C407 0.960 . S
C424 C425 1.391 . S
C424 C426 1.394 . S
C424 H440 0.931 . S
C425 C424 1.391 . S
C425 C429 1.376 . S
C426 C424 1.394 . S
C426 C427 1.369 . S
C426 C430 1.531 . S
C427 C426 1.369 . S
C427 C428 1.410 . S
C427 C435 1.503 . S
C428 C427 1.410 . S
C428 C429 1.392 . S
C428 C431 1.511 . S
C429 C425 1.376 . S
C429 C428 1.392 . S
C429 H441 0.929 . S
C430 C426 1.531 . S
C430 H442 0.960 . S
C430 H443 0.962 . S
C430 H444 0.960 . S
C431 C428 1.511 . S
C431 H445 0.961 . S
C431 H446 0.961 . S
C431 H447 0.961 . S
C432 C433 1.370 . S
C432 C434 1.363 . S
C432 H448 0.931 . S
C433 C432 1.370 . S
C433 C437 1.408 . S
C434 C432 1.363 . S
C434 C435 1.370 . S
C434 C438 1.524 . S
C435 C427 1.503 . S
C435 C434 1.370 . S
C435 C436 1.403 . S
C436 C435 1.403 . S
C436 C437 1.404 . S
C436 C439 1.539 . S
C437 C433 1.408 . S
C437 C436 1.404 . S
C437 H449 0.930 . S
C438 C434 1.524 . S
C438 H450 0.956 . S
C438 H451 0.961 . S
C438 H452 0.961 . S
C439 C436 1.539 . S
C439 H453 0.958 . S
C439 H454 0.961 . S
C439 H455 0.960 . S
H440 C424 0.931 . S
H441 C429 0.929 . S
H442 C430 0.960 . S
H443 C430 0.962 . S
H444 C430 0.960 . S
H445 C431 0.961 . S
H446 C431 0.961 . S
H447 C431 0.961 . S
H448 C432 0.931 . S
H449 C437 0.930 . S
H450 C438 0.956 . S
H451 C438 0.961 . S
H452 C438 0.961 . S
H453 C439 0.958 . S
H454 C439 0.961 . S
H455 C439 0.960 . S
C456 C457 1.391 . S
C456 C458 1.394 . S
C456 H472 0.931 . S
C457 C456 1.391 . S
C457 C461 1.376 . S
C458 C456 1.394 . S
C458 C459 1.369 . S
C458 C462 1.531 . S
C459 C458 1.369 . S
C459 C460 1.410 . S
C459 C467 1.503 . S
C460 C459 1.410 . S
C460 C461 1.392 . S
C460 C463 1.511 . S
C461 C457 1.376 . S
C461 C460 1.392 . S
C461 H473 0.929 . S
C462 C458 1.531 . S
C462 H474 0.960 . S
C462 H475 0.962 . S
C462 H476 0.960 . S
C463 C460 1.511 . S
C463 H477 0.961 . S
C463 H478 0.961 . S
C463 H479 0.961 . S
C464 C465 1.370 . S
C464 C466 1.363 . S
C464 H480 0.931 1_556 S
C465 C464 1.370 . S
C465 C469 1.408 . S
C466 C464 1.363 . S
C466 C467 1.370 . S
C466 C470 1.524 . S
C467 C459 1.503 . S
C467 C466 1.370 . S
C467 C468 1.403 . S
C468 C467 1.403 . S
C468 C469 1.404 . S
C468 C471 1.539 . S
C469 C465 1.408 . S
C469 C468 1.404 . S
C469 H481 0.930 . S
C470 C466 1.524 . S
C470 H482 0.956 . S
C470 H483 0.961 . S
C470 H484 0.961 1_556 S
C471 C468 1.539 . S
C471 H485 0.958 . S
C471 H486 0.961 . S
C471 H487 0.960 . S
H472 C456 0.931 . S
H473 C461 0.929 . S
H474 C462 0.960 . S
H475 C462 0.962 . S
H476 C462 0.960 . S
H477 C463 0.961 . S
H478 C463 0.961 . S
H479 C463 0.961 . S
H480 C464 0.931 1_554 S
H481 C469 0.930 . S
H482 C470 0.956 . S
H483 C470 0.961 . S
H484 C470 0.961 1_554 S
H485 C471 0.958 . S
H486 C471 0.961 . S
H487 C471 0.960 . S
C488 C489 1.391 . S
C488 C490 1.394 . S
C488 H504 0.931 . S
C489 C488 1.391 . S
C489 C493 1.376 . S
C490 C488 1.394 . S
C490 C491 1.369 . S
C490 C494 1.531 . S
C491 C490 1.369 . S
C491 C492 1.410 . S
C491 C499 1.503 . S
C492 C491 1.410 . S
C492 C493 1.392 . S
C492 C495 1.511 . S
C493 C489 1.376 . S
C493 C492 1.392 . S
C493 H505 0.929 . S
C494 C490 1.531 . S
C494 H506 0.960 . S
C494 H507 0.962 . S
C494 H508 0.960 . S
C495 C492 1.511 . S
C495 H509 0.961 . S
C495 H510 0.961 . S
C495 H511 0.961 . S
C496 C497 1.370 . S
C496 C498 1.363 . S
C496 H512 0.931 . S
C497 C496 1.370 . S
C497 C501 1.408 . S
C498 C496 1.363 . S
C498 C499 1.370 . S
C498 C502 1.524 . S
C499 C491 1.503 . S
C499 C498 1.370 . S
C499 C500 1.403 . S
C500 C499 1.403 . S
C500 C501 1.404 . S
C500 C503 1.539 . S
C501 C497 1.408 . S
C501 C500 1.404 . S
C501 H513 0.930 . S
C502 C498 1.524 . S
C502 H514 0.956 . S
C502 H515 0.961 . S
C502 H516 0.961 . S
C503 C500 1.539 . S
C503 H517 0.958 . S
C503 H518 0.961 . S
C503 H519 0.960 . S
H504 C488 0.931 . S
H505 C493 0.929 . S
H506 C494 0.960 . S
H507 C494 0.962 . S
H508 C494 0.960 . S
H509 C495 0.961 . S
H510 C495 0.961 . S
H511 C495 0.961 . S
H512 C496 0.931 . S
H513 C501 0.930 . S
H514 C502 0.956 . S
H515 C502 0.961 . S
H516 C502 0.961 . S
H517 C503 0.958 . S
H518 C503 0.961 . S
H519 C503 0.960 . S
C520 C521 1.391 . S
C520 C522 1.394 . S
C520 H536 0.931 . S
C521 C520 1.391 . S
C521 C525 1.376 . S
C522 C520 1.394 . S
C522 C523 1.369 . S
C522 C526 1.531 . S
C523 C522 1.369 . S
C523 C524 1.410 . S
C523 C531 1.503 . S
C524 C523 1.410 . S
C524 C525 1.392 . S
C524 C527 1.511 . S
C525 C521 1.376 . S
C525 C524 1.392 . S
C525 H537 0.929 . S
C526 C522 1.531 . S
C526 H538 0.960 . S
C526 H539 0.962 . S
C526 H540 0.960 . S
C527 C524 1.511 . S
C527 H541 0.961 . S
C527 H542 0.961 . S
C527 H543 0.961 . S
C528 C529 1.370 . S
C528 C530 1.363 . S
C528 H544 0.931 . S
C529 C528 1.370 . S
C529 C533 1.408 . S
C530 C528 1.363 . S
C530 C531 1.370 . S
C530 C534 1.524 . S
C531 C523 1.503 . S
C531 C530 1.370 . S
C531 C532 1.403 . S
C532 C531 1.403 . S
C532 C533 1.404 . S
C532 C535 1.539 . S
C533 C529 1.408 . S
C533 C532 1.404 . S
C533 H545 0.930 . S
C534 C530 1.524 . S
C534 H546 0.956 . S
C534 H547 0.961 . S
C534 H548 0.961 . S
C535 C532 1.539 . S
C535 H549 0.958 . S
C535 H550 0.961 . S
C535 H551 0.960 . S
H536 C520 0.931 . S
H537 C525 0.929 . S
H538 C526 0.960 . S
H539 C526 0.962 . S
H540 C526 0.960 . S
H541 C527 0.961 . S
H542 C527 0.961 . S
H543 C527 0.961 . S
H544 C528 0.931 . S
H545 C533 0.930 . S
H546 C534 0.956 . S
H547 C534 0.961 . S
H548 C534 0.961 . S
H549 C535 0.958 . S
H550 C535 0.961 . S
H551 C535 0.960 . S
C552 C553 1.391 . S
C552 C554 1.394 . S
C552 H568 0.931 . S
C553 C552 1.391 . S
C553 C557 1.376 . S
C554 C552 1.394 . S
C554 C555 1.369 . S
C554 C558 1.531 . S
C555 C554 1.369 . S
C555 C556 1.410 . S
C555 C563 1.503 . S
C556 C555 1.410 . S
C556 C557 1.392 . S
C556 C559 1.511 . S
C557 C553 1.376 . S
C557 C556 1.392 . S
C557 H569 0.929 . S
C558 C554 1.531 . S
C558 H570 0.960 . S
C558 H571 0.962 . S
C558 H572 0.960 . S
C559 C556 1.511 . S
C559 H573 0.961 . S
C559 H574 0.961 . S
C559 H575 0.961 . S
C560 C561 1.370 . S
C560 C562 1.363 . S
C560 H576 0.931 . S
C561 C560 1.370 . S
C561 C565 1.408 . S
C562 C560 1.363 . S
C562 C563 1.370 . S
C562 C566 1.524 . S
C563 C555 1.503 . S
C563 C562 1.370 . S
C563 C564 1.403 . S
C564 C563 1.403 . S
C564 C565 1.404 . S
C564 C567 1.539 . S
C565 C561 1.408 . S
C565 C564 1.404 . S
C565 H577 0.930 . S
C566 C562 1.524 . S
C566 H578 0.956 . S
C566 H579 0.961 . S
C566 H580 0.961 . S
C567 C564 1.539 . S
C567 H581 0.958 . S
C567 H582 0.961 . S
C567 H583 0.960 . S
H568 C552 0.931 . S
H569 C557 0.929 . S
H570 C558 0.960 . S
H571 C558 0.962 . S
H572 C558 0.960 . S
H573 C559 0.961 . S
H574 C559 0.961 . S
H575 C559 0.961 . S
H576 C560 0.931 . S
H577 C565 0.930 . S
H578 C566 0.956 . S
H579 C566 0.961 . S
H580 C566 0.961 . S
H581 C567 0.958 . S
H582 C567 0.961 . S
H583 C567 0.960 . S
C584 C585 1.391 . S
C584 C586 1.394 . S
C584 H600 0.931 . S
C585 C584 1.391 . S
C585 C589 1.376 . S
C586 C584 1.394 . S
C586 C587 1.369 . S
C586 C590 1.531 . S
C587 C586 1.369 . S
C587 C588 1.410 . S
C587 C595 1.503 . S
C588 C587 1.410 . S
C588 C589 1.392 . S
C588 C591 1.511 . S
C589 C585 1.376 . S
C589 C588 1.392 . S
C589 H601 0.929 . S
C590 C586 1.531 . S
C590 H602 0.960 . S
C590 H603 0.962 . S
C590 H604 0.960 . S
C591 C588 1.511 . S
C591 H605 0.961 . S
C591 H606 0.961 . S
C591 H607 0.961 . S
C592 C593 1.370 . S
C592 C594 1.363 . S
C592 H608 0.931 . S
C593 C592 1.370 . S
C593 C597 1.408 . S
C594 C592 1.363 . S
C594 C595 1.370 . S
C594 C598 1.524 . S
C595 C587 1.503 . S
C595 C594 1.370 . S
C595 C596 1.403 . S
C596 C595 1.403 . S
C596 C597 1.404 . S
C596 C599 1.539 . S
C597 C593 1.408 . S
C597 C596 1.404 . S
C597 H609 0.930 . S
C598 C594 1.524 . S
C598 H610 0.956 . S
C598 H611 0.961 . S
C598 H612 0.961 . S
C599 C596 1.539 . S
C599 H613 0.958 . S
C599 H614 0.961 . S
C599 H615 0.960 . S
H600 C584 0.931 . S
H601 C589 0.929 . S
H602 C590 0.960 . S
H603 C590 0.962 . S
H604 C590 0.960 . S
H605 C591 0.961 . S
H606 C591 0.961 . S
H607 C591 0.961 . S
H608 C592 0.931 . S
H609 C597 0.930 . S
H610 C598 0.956 . S
H611 C598 0.961 . S
H612 C598 0.961 . S
H613 C599 0.958 . S
H614 C599 0.961 . S
H615 C599 0.960 . S
C616 C617 1.391 . S
C616 C618 1.394 . S
C616 H632 0.931 . S
C617 C616 1.391 . S
C617 C621 1.376 . S
C618 C616 1.394 . S
C618 C619 1.369 . S
C618 C622 1.531 . S
C619 C618 1.369 . S
C619 C620 1.410 . S
C619 C627 1.503 . S
C620 C619 1.410 . S
C620 C621 1.392 . S
C620 C623 1.511 . S
C621 C617 1.376 . S
C621 C620 1.392 . S
C621 H633 0.929 . S
C622 C618 1.531 . S
C622 H634 0.960 . S
C622 H635 0.962 . S
C622 H636 0.960 . S
C623 C620 1.511 . S
C623 H637 0.961 . S
C623 H638 0.961 . S
C623 H639 0.961 . S
C624 C625 1.370 . S
C624 C626 1.363 . S
C624 H640 0.931 . S
C625 C624 1.370 . S
C625 C629 1.408 . S
C626 C624 1.363 . S
C626 C627 1.370 . S
C626 C630 1.524 . S
C627 C619 1.503 . S
C627 C626 1.370 . S
C627 C628 1.403 . S
C628 C627 1.403 . S
C628 C629 1.404 . S
C628 C631 1.539 . S
C629 C625 1.408 . S
C629 C628 1.404 . S
C629 H641 0.930 . S
C630 C626 1.524 . S
C630 H642 0.956 . S
C630 H643 0.961 . S
C630 H644 0.961 . S
C631 C628 1.539 . S
C631 H645 0.958 . S
C631 H646 0.961 . S
C631 H647 0.960 . S
H632 C616 0.931 . S
H633 C621 0.929 . S
H634 C622 0.960 . S
H635 C622 0.962 . S
H636 C622 0.960 . S
H637 C623 0.961 . S
H638 C623 0.961 . S
H639 C623 0.961 . S
H640 C624 0.931 . S
H641 C629 0.930 . S
H642 C630 0.956 . S
H643 C630 0.961 . S
H644 C630 0.961 . S
H645 C631 0.958 . S
H646 C631 0.961 . S
H647 C631 0.960 . S
C648 C649 1.391 . S
C648 C650 1.394 . S
C648 H664 0.931 . S
C649 C648 1.391 . S
C649 C653 1.376 . S
C650 C648 1.394 . S
C650 C651 1.369 . S
C650 C654 1.531 . S
C651 C650 1.369 . S
C651 C652 1.410 . S
C651 C659 1.503 . S
C652 C651 1.410 . S
C652 C653 1.392 . S
C652 C655 1.511 . S
C653 C649 1.376 . S
C653 C652 1.392 . S
C653 H665 0.929 . S
C654 C650 1.531 . S
C654 H666 0.960 . S
C654 H667 0.962 . S
C654 H668 0.960 . S
C655 C652 1.511 . S
C655 H669 0.961 . S
C655 H670 0.961 . S
C655 H671 0.961 . S
C656 C657 1.370 . S
C656 C658 1.363 . S
C656 H672 0.931 . S
C657 C656 1.370 . S
C657 C661 1.408 . S
C658 C656 1.363 . S
C658 C659 1.370 . S
C658 C662 1.524 . S
C659 C651 1.503 . S
C659 C658 1.370 . S
C659 C660 1.403 . S
C660 C659 1.403 . S
C660 C661 1.404 . S
C660 C663 1.539 . S
C661 C657 1.408 . S
C661 C660 1.404 . S
C661 H673 0.930 . S
C662 C658 1.524 . S
C662 H674 0.956 . S
C662 H675 0.961 . S
C662 H676 0.961 . S
C663 C660 1.539 . S
C663 H677 0.958 . S
C663 H678 0.961 . S
C663 H679 0.960 . S
H664 C648 0.931 . S
H665 C653 0.929 . S
H666 C654 0.960 . S
H667 C654 0.962 . S
H668 C654 0.960 . S
H669 C655 0.961 . S
H670 C655 0.961 . S
H671 C655 0.961 . S
H672 C656 0.931 . S
H673 C661 0.930 . S
H674 C662 0.956 . S
H675 C662 0.961 . S
H676 C662 0.961 . S
H677 C663 0.958 . S
H678 C663 0.961 . S
H679 C663 0.960 . S
C680 C681 1.391 . S
C680 C682 1.394 . S
C680 H696 0.931 . S
C681 C680 1.391 . S
C681 C685 1.376 . S
C682 C680 1.394 . S
C682 C683 1.369 . S
C682 C686 1.531 . S
C683 C682 1.369 . S
C683 C684 1.410 . S
C683 C691 1.503 . S
C684 C683 1.410 . S
C684 C685 1.392 . S
C684 C687 1.511 . S
C685 C681 1.376 . S
C685 C684 1.392 . S
C685 H697 0.929 . S
C686 C682 1.531 . S
C686 H698 0.960 . S
C686 H699 0.962 . S
C686 H700 0.960 . S
C687 C684 1.511 . S
C687 H701 0.961 . S
C687 H702 0.961 . S
C687 H703 0.961 . S
C688 C689 1.370 . S
C688 C690 1.363 . S
C688 H704 0.931 . S
C689 C688 1.370 . S
C689 C693 1.408 . S
C690 C688 1.363 . S
C690 C691 1.370 . S
C690 C694 1.524 . S
C691 C683 1.503 . S
C691 C690 1.370 . S
C691 C692 1.403 . S
C692 C691 1.403 . S
C692 C693 1.404 . S
C692 C695 1.539 . S
C693 C689 1.408 . S
C693 C692 1.404 . S
C693 H705 0.930 . S
C694 C690 1.524 . S
C694 H706 0.956 . S
C694 H707 0.961 . S
C694 H708 0.961 . S
C695 C692 1.539 . S
C695 H709 0.958 . S
C695 H710 0.961 . S
C695 H711 0.960 . S
H696 C680 0.931 . S
H697 C685 0.929 . S
H698 C686 0.960 . S
H699 C686 0.962 . S
H700 C686 0.960 . S
H701 C687 0.961 . S
H702 C687 0.961 . S
H703 C687 0.961 . S
H704 C688 0.931 . S
H705 C693 0.930 . S
H706 C694 0.956 . S
H707 C694 0.961 . S
H708 C694 0.961 . S
H709 C695 0.958 . S
H710 C695 0.961 . S
H711 C695 0.960 . S
C712 C713 1.391 . S
C712 C714 1.394 . S
C712 H728 0.931 . S
C713 C712 1.391 . S
C713 C717 1.376 . S
C714 C712 1.394 . S
C714 C715 1.369 . S
C714 C718 1.531 . S
C715 C714 1.369 . S
C715 C716 1.410 . S
C715 C723 1.503 . S
C716 C715 1.410 . S
C716 C717 1.392 . S
C716 C719 1.511 . S
C717 C713 1.376 . S
C717 C716 1.392 . S
C717 H729 0.929 . S
C718 C714 1.531 . S
C718 H730 0.960 . S
C718 H731 0.962 . S
C718 H732 0.960 . S
C719 C716 1.511 . S
C719 H733 0.961 . S
C719 H734 0.961 . S
C719 H735 0.961 . S
C720 C721 1.370 . S
C720 C722 1.363 . S
C720 H736 0.931 . S
C721 C720 1.370 . S
C721 C725 1.408 . S
C722 C720 1.363 . S
C722 C723 1.370 . S
C722 C726 1.524 . S
C723 C715 1.503 . S
C723 C722 1.370 . S
C723 C724 1.403 . S
C724 C723 1.403 . S
C724 C725 1.404 . S
C724 C727 1.539 . S
C725 C721 1.408 . S
C725 C724 1.404 . S
C725 H737 0.930 . S
C726 C722 1.524 . S
C726 H738 0.956 . S
C726 H739 0.961 . S
C726 H740 0.961 . S
C727 C724 1.539 . S
C727 H741 0.958 . S
C727 H742 0.961 . S
C727 H743 0.960 . S
H728 C712 0.931 . S
H729 C717 0.929 . S
H730 C718 0.960 . S
H731 C718 0.962 . S
H732 C718 0.960 . S
H733 C719 0.961 . S
H734 C719 0.961 . S
H735 C719 0.961 . S
H736 C720 0.931 . S
H737 C725 0.930 . S
H738 C726 0.956 . S
H739 C726 0.961 . S
H740 C726 0.961 . S
H741 C727 0.958 . S
H742 C727 0.961 . S
H743 C727 0.960 . S
C744 C745 1.391 . S
C744 C746 1.394 . S
C744 H760 0.931 . S
C745 C744 1.391 . S
C745 C749 1.376 . S
C746 C744 1.394 . S
C746 C747 1.369 . S
C746 C750 1.531 . S
C747 C746 1.369 . S
C747 C748 1.410 . S
C747 C755 1.503 . S
C748 C747 1.410 . S
C748 C749 1.392 . S
C748 C751 1.511 . S
C749 C745 1.376 . S
C749 C748 1.392 . S
C749 H761 0.929 . S
C750 C746 1.531 . S
C750 H762 0.960 . S
C750 H763 0.962 . S
C750 H764 0.960 . S
C751 C748 1.511 . S
C751 H765 0.961 . S
C751 H766 0.961 . S
C751 H767 0.961 . S
C752 C753 1.370 . S
C752 C754 1.363 . S
C752 H768 0.931 . S
C753 C752 1.370 . S
C753 C757 1.408 . S
C754 C752 1.363 . S
C754 C755 1.370 . S
C754 C758 1.524 . S
C755 C747 1.503 . S
C755 C754 1.370 . S
C755 C756 1.403 . S
C756 C755 1.403 . S
C756 C757 1.404 . S
C756 C759 1.539 . S
C757 C753 1.408 . S
C757 C756 1.404 . S
C757 H769 0.930 . S
C758 C754 1.524 . S
C758 H770 0.956 . S
C758 H771 0.961 . S
C758 H772 0.961 . S
C759 C756 1.539 . S
C759 H773 0.958 . S
C759 H774 0.961 . S
C759 H775 0.960 . S
H760 C744 0.931 . S
H761 C749 0.929 . S
H762 C750 0.960 . S
H763 C750 0.962 . S
H764 C750 0.960 . S
H765 C751 0.961 . S
H766 C751 0.961 . S
H767 C751 0.961 . S
H768 C752 0.931 . S
H769 C757 0.930 . S
H770 C758 0.956 . S
H771 C758 0.961 . S
H772 C758 0.961 . S
H773 C759 0.958 . S
H774 C759 0.961 . S
H775 C759 0.960 . S
C776 C777 1.391 . S
C776 C778 1.394 . S
C776 H792 0.931 . S
C777 C776 1.391 . S
C777 C781 1.376 . S
C778 C776 1.394 . S
C778 C779 1.369 . S
C778 C782 1.531 . S
C779 C778 1.369 . S
C779 C780 1.410 . S
C779 C787 1.503 . S
C780 C779 1.410 . S
C780 C781 1.392 . S
C780 C783 1.511 . S
C781 C777 1.376 . S
C781 C780 1.392 . S
C781 H793 0.929 . S
C782 C778 1.531 . S
C782 H794 0.960 . S
C782 H795 0.962 . S
C782 H796 0.960 . S
C783 C780 1.511 . S
C783 H797 0.961 . S
C783 H798 0.961 . S
C783 H799 0.961 . S
C784 C785 1.370 . S
C784 C786 1.363 . S
C784 H800 0.931 . S
C785 C784 1.370 . S
C785 C789 1.408 . S
C786 C784 1.363 . S
C786 C787 1.370 . S
C786 C790 1.524 . S
C787 C779 1.503 . S
C787 C786 1.370 . S
C787 C788 1.403 . S
C788 C787 1.403 . S
C788 C789 1.404 . S
C788 C791 1.539 . S
C789 C785 1.408 . S
C789 C788 1.404 . S
C789 H801 0.930 . S
C790 C786 1.524 . S
C790 H802 0.956 . S
C790 H803 0.961 . S
C790 H804 0.961 . S
C791 C788 1.539 . S
C791 H805 0.958 . S
C791 H806 0.961 . S
C791 H807 0.960 . S
H792 C776 0.931 . S
H793 C781 0.929 . S
H794 C782 0.960 . S
H795 C782 0.962 . S
H796 C782 0.960 . S
H797 C783 0.961 . S
H798 C783 0.961 . S
H799 C783 0.961 . S
H800 C784 0.931 . S
H801 C789 0.930 . S
H802 C790 0.956 . S
H803 C790 0.961 . S
H804 C790 0.961 . S
H805 C791 0.958 . S
H806 C791 0.961 . S
H807 C791 0.960 . S
C808 C809 1.391 . S
C808 C810 1.394 . S
C808 H824 0.931 . S
C809 C808 1.391 . S
C809 C813 1.376 . S
C810 C808 1.394 . S
C810 C811 1.369 . S
C810 C814 1.531 . S
C811 C810 1.369 . S
C811 C812 1.410 . S
C811 C819 1.503 . S
C812 C811 1.410 . S
C812 C813 1.392 . S
C812 C815 1.511 . S
C813 C809 1.376 . S
C813 C812 1.392 . S
C813 H825 0.929 . S
C814 C810 1.531 . S
C814 H826 0.960 . S
C814 H827 0.962 . S
C814 H828 0.960 . S
C815 C812 1.511 . S
C815 H829 0.961 . S
C815 H830 0.961 . S
C815 H831 0.961 . S
C816 C817 1.370 . S
C816 C818 1.363 . S
C816 H832 0.931 . S
C817 C816 1.370 . S
C817 C821 1.408 . S
C818 C816 1.363 . S
C818 C819 1.370 . S
C818 C822 1.524 . S
C819 C811 1.503 . S
C819 C818 1.370 . S
C819 C820 1.403 . S
C820 C819 1.403 . S
C820 C821 1.404 . S
C820 C823 1.539 . S
C821 C817 1.408 . S
C821 C820 1.404 . S
C821 H833 0.930 . S
C822 C818 1.524 . S
C822 H834 0.956 . S
C822 H835 0.961 . S
C822 H836 0.961 . S
C823 C820 1.539 . S
C823 H837 0.958 . S
C823 H838 0.961 . S
C823 H839 0.960 . S
H824 C808 0.931 . S
H825 C813 0.929 . S
H826 C814 0.960 . S
H827 C814 0.962 . S
H828 C814 0.960 . S
H829 C815 0.961 . S
H830 C815 0.961 . S
H831 C815 0.961 . S
H832 C816 0.931 . S
H833 C821 0.930 . S
H834 C822 0.956 . S
H835 C822 0.961 . S
H836 C822 0.961 . S
H837 C823 0.958 . S
H838 C823 0.961 . S
H839 C823 0.960 . S
C840 C841 1.391 . S
C840 C842 1.394 . S
C840 H856 0.931 . S
C841 C840 1.391 . S
C841 C845 1.376 . S
C842 C840 1.394 . S
C842 C843 1.369 . S
C842 C846 1.531 . S
C843 C842 1.369 . S
C843 C844 1.410 . S
C843 C851 1.503 . S
C844 C843 1.410 . S
C844 C845 1.392 . S
C844 C847 1.511 . S
C845 C841 1.376 . S
C845 C844 1.392 . S
C845 H857 0.929 . S
C846 C842 1.531 . S
C846 H858 0.960 . S
C846 H859 0.962 . S
C846 H860 0.960 . S
C847 C844 1.511 . S
C847 H861 0.961 . S
C847 H862 0.961 . S
C847 H863 0.961 . S
C848 C849 1.370 . S
C848 C850 1.363 . S
C848 H864 0.931 . S
C849 C848 1.370 . S
C849 C853 1.408 . S
C850 C848 1.363 . S
C850 C851 1.370 . S
C850 C854 1.524 . S
C851 C843 1.503 . S
C851 C850 1.370 . S
C851 C852 1.403 . S
C852 C851 1.403 . S
C852 C853 1.404 . S
C852 C855 1.539 . S
C853 C849 1.408 . S
C853 C852 1.404 . S
C853 H865 0.930 . S
C854 C850 1.524 . S
C854 H866 0.956 . S
C854 H867 0.961 . S
C854 H868 0.961 . S
C855 C852 1.539 . S
C855 H869 0.958 . S
C855 H870 0.961 . S
C855 H871 0.960 . S
H856 C840 0.931 . S
H857 C845 0.929 . S
H858 C846 0.960 . S
H859 C846 0.962 . S
H860 C846 0.960 . S
H861 C847 0.961 . S
H862 C847 0.961 . S
H863 C847 0.961 . S
H864 C848 0.931 . S
H865 C853 0.930 . S
H866 C854 0.956 . S
H867 C854 0.961 . S
H868 C854 0.961 . S
H869 C855 0.958 . S
H870 C855 0.961 . S
H871 C855 0.960 . S
C872 C873 1.391 . S
C872 C874 1.394 . S
C872 H888 0.931 . S
C873 C872 1.391 . S
C873 C877 1.376 . S
C874 C872 1.394 . S
C874 C875 1.369 . S
C874 C878 1.531 . S
C875 C874 1.369 . S
C875 C876 1.410 . S
C875 C883 1.503 . S
C876 C875 1.410 . S
C876 C877 1.392 . S
C876 C879 1.511 . S
C877 C873 1.376 . S
C877 C876 1.392 . S
C877 H889 0.929 . S
C878 C874 1.531 . S
C878 H890 0.960 . S
C878 H891 0.962 . S
C878 H892 0.960 . S
C879 C876 1.511 . S
C879 H893 0.961 . S
C879 H894 0.961 . S
C879 H895 0.961 . S
C880 C881 1.370 . S
C880 C882 1.363 . S
C880 H896 0.931 . S
C881 C880 1.370 . S
C881 C885 1.408 . S
C882 C880 1.363 . S
C882 C883 1.370 . S
C882 C886 1.524 . S
C883 C875 1.503 . S
C883 C882 1.370 . S
C883 C884 1.403 . S
C884 C883 1.403 . S
C884 C885 1.404 . S
C884 C887 1.539 . S
C885 C881 1.408 . S
C885 C884 1.404 . S
C885 H897 0.930 . S
C886 C882 1.524 . S
C886 H898 0.956 . S
C886 H899 0.961 . S
C886 H900 0.961 . S
C887 C884 1.539 . S
C887 H901 0.958 . S
C887 H902 0.961 . S
C887 H903 0.960 . S
H888 C872 0.931 . S
H889 C877 0.929 . S
H890 C878 0.960 . S
H891 C878 0.962 . S
H892 C878 0.960 . S
H893 C879 0.961 . S
H894 C879 0.961 . S
H895 C879 0.961 . S
H896 C880 0.931 . S
H897 C885 0.930 . S
H898 C886 0.956 . S
H899 C886 0.961 . S
H900 C886 0.961 . S
H901 C887 0.958 . S
H902 C887 0.961 . S
H903 C887 0.960 . S
C904 C905 1.391 . S
C904 C906 1.394 . S
C904 H920 0.931 . S
C905 C904 1.391 . S
C905 C909 1.376 . S
C906 C904 1.394 . S
C906 C907 1.369 . S
C906 C910 1.531 . S
C907 C906 1.369 . S
C907 C908 1.410 . S
C907 C915 1.503 . S
C908 C907 1.410 . S
C908 C909 1.392 . S
C908 C911 1.511 . S
C909 C905 1.376 . S
C909 C908 1.392 . S
C909 H921 0.929 . S
C910 C906 1.531 . S
C910 H922 0.960 . S
C910 H923 0.962 . S
C910 H924 0.960 . S
C911 C908 1.511 . S
C911 H925 0.961 . S
C911 H926 0.961 . S
C911 H927 0.961 . S
C912 C913 1.370 . S
C912 C914 1.363 . S
C912 H928 0.931 . S
C913 C912 1.370 . S
C913 C917 1.408 . S
C914 C912 1.363 . S
C914 C915 1.370 . S
C914 C918 1.524 . S
C915 C907 1.503 . S
C915 C914 1.370 . S
C915 C916 1.403 . S
C916 C915 1.403 . S
C916 C917 1.404 . S
C916 C919 1.539 . S
C917 C913 1.408 . S
C917 C916 1.404 . S
C917 H929 0.930 . S
C918 C914 1.524 . S
C918 H930 0.956 . S
C918 H931 0.961 . S
C918 H932 0.961 . S
C919 C916 1.539 . S
C919 H933 0.958 . S
C919 H934 0.961 . S
C919 H935 0.960 . S
H920 C904 0.931 . S
H921 C909 0.929 . S
H922 C910 0.960 . S
H923 C910 0.962 . S
H924 C910 0.960 . S
H925 C911 0.961 . S
H926 C911 0.961 . S
H927 C911 0.961 . S
H928 C912 0.931 . S
H929 C917 0.930 . S
H930 C918 0.956 . S
H931 C918 0.961 . S
H932 C918 0.961 . S
H933 C919 0.958 . S
H934 C919 0.961 . S
H935 C919 0.960 . S
C169 C4 1.613 . S
C177 C107 1.605 . S
C201 C16 1.538 . S
C209 C110 1.488 . S
C241 C146 1.345 . S
C233 C32 1.361 . S
C265 C43 1.541 . S
C273 C166 1.533 . S
C305 C120 2.088 . S
C297 C5 2.103 . S
C337 C97 1.273 . S
C329 C21 1.306 . S
C369 C150 1.434 . S
C361 C27 1.473 . S
C401 C130 1.270 . S
C393 C37 1.365 . S
C425 C10 1.367 . S
C433 C160 1.317 . S
C465 C126 1.773 1_556 S
C457 C26 1.790 . S
C489 C38 1.416 . S
C497 C92 1.405 . S
C521 C15 1.482 . S
C529 C140 1.418 . S
C561 C106 1.686 . S
C553 C48 1.709 . S
C585 C59 1.333 . S
C593 C112 1.283 . S
C617 C76 1.674 . S
C625 C147 1.659 . S
C649 C87 1.387 . S
C657 C167 1.355 . S
C681 C54 1.538 . S
C689 C117 1.482 . S
C721 C100 1.945 . S
C713 C60 1.948 . S
C753 C152 1.391 . S
C745 C71 1.564 . S
C785 C132 1.271 . S
C777 C82 1.272 . S
C809 C49 1.621 . S
C817 C157 1.516 . S
C849 C127 1.391 . S
C841 C70 1.405 . S
C881 C90 1.703 . S
C873 C81 1.765 . S
C905 C65 1.317 . S
C913 C137 1.264 . S
