# Generated by pormake.
# Topology anh, (6,3)-cn, num edge types: 1
# Building blocks:
#     Node 0, Type 0, BuildingBlock: BETDIP_clean_sbu_0, # of connection points: 6
#     Node 1, Type 0, BuildingBlock: BETDIP_clean_sbu_0, # of connection points: 6
#     Node 2, Type 0, BuildingBlock: BETDIP_clean_sbu_0, # of connection points: 6
#     Node 3, Type 1, BuildingBlock: ESEHIV_clean_linker_0, # of connection points: 3
#     Node 4, Type 1, BuildingBlock: ESEHIV_clean_linker_0, # of connection points: 3
#     Node 5, Type 1, BuildingBlock: ESEHIV_clean_linker_0, # of connection points: 3
#     Node 6, Type 1, BuildingBlock: ESEHIV_clean_linker_0, # of connection points: 3
#     Node 7, Type 1, BuildingBlock: ESEHIV_clean_linker_0, # of connection points: 3
#     Node 8, Type 1, BuildingBlock: ESEHIV_clean_linker_0, # of connection points: 3
#     Edge 9, Type (0, 1), BuildingBlock: UVAHIK_clean_linker_0, # of connection points: 2
#     Edge 10, Type (0, 1), BuildingBlock: UVAHIK_clean_linker_0, # of connection points: 2
#     Edge 11, Type (0, 1), BuildingBlock: UVAHIK_clean_linker_0, # of connection points: 2
#     Edge 12, Type (0, 1), BuildingBlock: UVAHIK_clean_linker_0, # of connection points: 2
#     Edge 13, Type (0, 1), BuildingBlock: UVAHIK_clean_linker_0, # of connection points: 2
#     Edge 14, Type (0, 1), BuildingBlock: UVAHIK_clean_linker_0, # of connection points: 2
#     Edge 15, Type (0, 1), BuildingBlock: UVAHIK_clean_linker_0, # of connection points: 2
#     Edge 16, Type (0, 1), BuildingBlock: UVAHIK_clean_linker_0, # of connection points: 2
#     Edge 17, Type (0, 1), BuildingBlock: UVAHIK_clean_linker_0, # of connection points: 2
#     Edge 18, Type (0, 1), BuildingBlock: UVAHIK_clean_linker_0, # of connection points: 2
#     Edge 19, Type (0, 1), BuildingBlock: UVAHIK_clean_linker_0, # of connection points: 2
#     Edge 20, Type (0, 1), BuildingBlock: UVAHIK_clean_linker_0, # of connection points: 2
#     Edge 21, Type (0, 1), BuildingBlock: UVAHIK_clean_linker_0, # of connection points: 2
#     Edge 22, Type (0, 1), BuildingBlock: UVAHIK_clean_linker_0, # of connection points: 2
#     Edge 23, Type (0, 1), BuildingBlock: UVAHIK_clean_linker_0, # of connection points: 2
#     Edge 24, Type (0, 1), BuildingBlock: UVAHIK_clean_linker_0, # of connection points: 2
#     Edge 25, Type (0, 1), BuildingBlock: UVAHIK_clean_linker_0, # of connection points: 2
#     Edge 26, Type (0, 1), BuildingBlock: UVAHIK_clean_linker_0, # of connection points: 2
# Relax obj value: 0.242
# Max RMSD: 0.183
# Mean RMSD: 0.155
data_MOF--net-anh--node1-BETDIP_clean_sbu_0--node2-ESEHIV_clean_linker_0--edge1-UVAHIK_clean_linker_0
_symmetry_space_group_name_H-M    P1
_symmetry_Int_Tables_number       1
_symmetry_cell_setting            triclinic
loop_
_symmetry_equiv_pos_as_xyz
'x, y, z'
_cell_length_a     38.395007
_cell_length_b     38.455177
_cell_length_c     66.48715
_cell_angle_alpha  89.928571
_cell_angle_beta   89.981324
_cell_angle_gamma 119.65917
loop_
_atom_site_label
_atom_site_type_symbol
_atom_site_fract_x
_atom_site_fract_y
_atom_site_fract_z
_atom_type_partial_charge
Tb0 Tb 0.10151 0.58469 0.17785 0.0
Tb1 Tb 0.0605 0.49924 0.17052 0.0
C2 C 0.14848 0.65091 0.19318 0.0
C3 C 0.19221 0.6745 0.19179 0.0
C4 C 0.21431 0.70036 0.20738 0.0
C5 C 0.25601 0.72267 0.20606 0.0
C6 C 0.27617 0.71924 0.18912 0.0
C7 C 0.25387 0.6923 0.1738 0.0
C8 C 0.21222 0.67013 0.17512 0.0
C9 C 0.0873 0.56564 0.14003 0.0
C10 C 0.15637 0.5404 0.1699 0.0
C11 C 1.01493 0.43177 0.15555 0.0
C12 C 0.97228 0.41303 0.15017 0.0
C13 C 0.95929 0.39629 0.13097 0.0
C14 C 0.92006 0.38404 0.12469 0.0
C15 C 0.89384 0.38906 0.13749 0.0
C16 C 0.90643 0.40428 0.15691 0.0
C17 C 0.94529 0.41632 0.16318 0.0
C18 C 0.07425 0.51853 0.20919 0.0
C19 C 1.0072 0.54589 0.17181 0.0
O20 O 0.13474 0.61705 0.20295 0.0
O21 O 0.12921 0.64708 0.17636 0.0
O22 O 0.09855 0.54941 0.15294 0.0
O23 O 0.08658 0.59618 0.14778 0.0
O24 O 0.15462 0.5734 0.1749 0.0
O25 O 0.12185 0.50677 0.16658 0.0
O26 O 1.03838 0.4633 0.14483 0.0
O27 O 1.02353 0.43742 0.17474 0.0
O28 O 0.06277 0.53477 0.19615 0.0
O29 O 0.0766 0.48938 0.20071 0.0
O30 O 1.00978 0.51344 0.16677 0.0
O31 O 1.03999 0.57758 0.17904 0.0
H32 H 0.1993 0.70375 0.22042 0.0
H33 H 0.27229 0.74378 0.21794 0.0
H34 H 0.26856 0.68888 0.16065 0.0
H35 H 0.19562 0.64992 0.16298 0.0
H36 H 0.97984 0.39387 0.12065 0.0
H37 H 0.91054 0.37171 0.10976 0.0
H38 H 0.88624 0.40746 0.16717 0.0
H39 H 0.9545 0.42947 0.17798 0.0
Tb40 Tb 0.6002 0.0354 0.50601 0.0
Tb41 Tb 0.55519 0.0756 0.50314 0.0
C42 C 0.62006 0.98567 0.51704 0.0
C43 C 0.59881 0.94213 0.51368 0.0
C44 C 0.58603 0.91605 0.53022 0.0
C45 C 0.56268 0.87483 0.52732 0.0
C46 C 0.55202 0.85902 0.50781 0.0
C47 C 0.56472 0.88508 0.49126 0.0
C48 C 0.58766 0.92629 0.49417 0.0
C49 C 0.59198 0.05341 0.46908 0.0
C50 C 0.50086 0.98056 0.49984 0.0
C51 C 0.53569 0.12659 0.49381 0.0
C52 C 0.56261 0.17035 0.49344 0.0
C53 C 0.57195 0.19113 0.47507 0.0
C54 C 0.60329 0.23072 0.47389 0.0
C55 C 0.62585 0.25014 0.49109 0.0
C56 C 0.61543 0.22975 0.50958 0.0
C57 C 0.58428 0.19035 0.51075 0.0
C58 C 0.56391 0.05765 0.54071 0.0
C59 C 0.65474 0.12957 0.50247 0.0
O60 O 0.60159 0.99851 0.5289 0.0
O61 O 0.63503 1.00816 0.50105 0.0
O62 O 0.56547 0.04022 0.48253 0.0
O63 O 0.62417 0.05438 0.47568 0.0
O64 O 0.53603 0.98225 0.50388 0.0
O65 O 0.50136 1.01532 0.49751 0.0
O66 O 0.54413 0.10692 0.48047 0.0
O67 O 0.52814 0.10935 0.51149 0.0
O68 O 0.59092 0.07179 0.52728 0.0
O69 O 0.53104 0.05369 0.53318 0.0
O70 O 0.61922 0.12683 0.49855 0.0
O71 O 0.65446 0.09632 0.50848 0.0
H72 H 0.59381 0.92762 0.54539 0.0
H73 H 0.55381 0.85523 0.5403 0.0
H74 H 0.55688 0.87353 0.4761 0.0
H75 H 0.59631 0.94568 0.48111 0.0
H76 H 0.55612 0.17619 0.46146 0.0
H77 H 0.61061 0.2457 0.45944 0.0
H78 H 0.63154 0.24419 0.5232 0.0
H79 H 0.57826 0.1752 0.52513 0.0
Tb80 Tb 0.54916 0.53483 0.84168 0.0
Tb81 Tb 0.63372 0.57889 0.83521 0.0
C82 C 0.48085 0.51509 0.85472 0.0
C83 C 0.45492 0.53234 0.85012 0.0
C84 C 0.44725 0.55359 0.86497 0.0
C85 C 0.42484 0.57216 0.8604 0.0
C86 C 0.40944 0.56954 0.84093 0.0
C87 C 0.41728 0.54849 0.82606 0.0
C88 C 0.43989 0.53018 0.83057 0.0
C89 C 0.56907 0.53885 0.80389 0.0
C90 C 0.59223 0.63328 0.8335 0.0
C91 C 0.70304 0.60027 0.8225 0.0
C92 C 0.72205 0.57589 0.81845 0.0
C93 C 0.74715 0.58394 0.80169 0.0
C94 C 0.76207 0.55828 0.79685 0.0
C95 C 0.75133 0.52393 0.80853 0.0
C96 C 0.72652 0.5163 0.82537 0.0
C97 C 0.71217 0.54205 0.83033 0.0
C98 C 0.61298 0.57381 0.8738 0.0
C99 C 0.58871 0.47998 0.83644 0.0
O100 O 0.51364 0.53826 0.86477 0.0
O101 O 0.48724 0.49655 0.83992 0.0
O102 O 0.5847 0.56678 0.81649 0.0
O103 O 0.53896 0.50794 0.81189 0.0
O104 O 0.55937 0.59865 0.83849 0.0
O105 O 0.62612 0.63243 0.83033 0.0
O106 O 0.673 0.593 0.8107 0.0
O107 O 0.69496 0.60293 0.84135 0.0
O108 O 0.59791 0.5458 0.86099 0.0
O109 O 0.64102 0.60549 0.86509 0.0
O110 O 0.61994 0.51468 0.83043 0.0
O111 O 0.55761 0.48134 0.84457 0.0
H112 H 0.45869 0.55592 0.88009 0.0
H113 H 0.41859 0.5876 0.87225 0.0
H114 H 0.40576 0.54606 0.81095 0.0
H115 H 0.44564 0.51449 0.81866 0.0
H116 H 0.75477 0.6097 0.79224 0.0
H117 H 0.7815 0.56494 0.78391 0.0
H118 H 0.71855 0.49055 0.83491 0.0
H119 H 0.69286 0.53511 0.84334 0.0
H120 H 0.5218 0.07573 0.26508 0.0
H121 H 0.59753 0.20326 0.25883 0.0
H122 H 0.56453 0.12755 0.20678 0.0
C123 C 0.53833 0.10179 0.25558 0.0
C124 C 0.54039 0.0969 0.23478 0.0
C125 C 0.55889 0.13997 0.26439 0.0
C126 C 0.58088 0.17382 0.25212 0.0
C127 C 0.58253 0.16925 0.23125 0.0
C128 C 0.56214 0.13089 0.22282 0.0
H129 H 0.60312 0.58909 0.59045 0.0
H130 H 0.68809 0.54716 0.58849 0.0
H131 H 0.65154 0.58032 0.53387 0.0
C132 C 0.6224 0.58136 0.58194 0.0
C133 C 0.62358 0.58484 0.56094 0.0
C134 C 0.64582 0.56815 0.59206 0.0
C135 C 0.67153 0.55929 0.58086 0.0
C136 C 0.67389 0.56356 0.55978 0.0
C137 C 0.65023 0.57707 0.55007 0.0
H138 H 0.95941 0.4365 0.92737 0.0
H139 H 0.08544 0.52185 0.92904 0.0
H140 H 1.02813 0.47449 0.87249 0.0
C141 C 0.98777 0.45391 0.91967 0.0
C142 C 0.9896 0.45179 0.89857 0.0
C143 C 1.02219 0.47955 0.93076 0.0
C144 C 0.05868 0.50225 0.92059 0.0
C145 C 0.06107 0.50052 0.89964 0.0
C146 C 1.02645 0.47524 0.88874 0.0
H147 H 1.02293 0.4967 0.43161 0.0
H148 H 0.13542 0.60599 0.43049 0.0
H149 H 0.07878 0.55482 0.48776 0.0
C150 C 1.04719 0.52075 0.4399 0.0
C151 C 1.04504 0.52039 0.46113 0.0
C152 C 0.07923 0.55117 0.4289 0.0
C153 C 0.11111 0.58302 0.43928 0.0
C154 C 0.11298 0.586 0.46052 0.0
C155 C 0.07891 0.55385 0.4715 0.0
H156 H 0.59214 0.11403 0.76302 0.0
H157 H 0.58152 0.99746 0.76263 0.0
H158 H 0.58815 0.0556 0.81933 0.0
C159 C 0.58967 0.08861 0.77124 0.0
C160 C 0.58967 0.09011 0.79252 0.0
C161 C 0.58678 0.05577 0.76025 0.0
C162 C 0.58436 1.02284 0.77101 0.0
C163 C 0.58535 1.02124 0.79227 0.0
C164 C 0.58775 0.05564 0.80306 0.0
H165 H 0.52945 0.54712 0.09616 0.0
H166 H 0.64425 0.5538 0.09721 0.0
H167 H 0.58343 0.54648 0.15331 0.0
C168 C 0.55376 0.54806 0.10484 0.0
C169 C 0.55064 0.54647 0.1261 0.0
C170 C 0.58689 0.55046 0.09432 0.0
C171 C 0.61881 0.55155 0.1054 0.0
C172 C 0.61933 0.5502 0.12667 0.0
C173 C 0.58438 0.54762 0.13705 0.0
C174 C 0.19983 0.5067 0.16181 0.0
C175 C 0.19755 0.54143 0.16685 0.0
C176 C 0.23712 0.50719 0.15868 0.0
C177 C 0.35482 0.57527 0.16201 0.0
H178 H 0.3532 0.48405 0.13685 0.0
C179 C 0.50896 0.56931 0.14925 0.0
C180 C 0.51075 0.54276 0.13494 0.0
C181 C 0.47214 0.56927 0.15399 0.0
C182 C 0.35542 0.51047 0.14376 0.0
H183 H 0.23645 0.60465 0.17229 0.0
H184 H 0.3001 0.60589 0.16671 0.0
H185 H 0.29132 0.48457 0.14221 0.0
H186 H 0.47169 0.49476 0.11497 0.0
H187 H 0.41007 0.49465 0.12277 0.0
H188 H 0.41938 0.60142 0.16307 0.0
C189 C 0.27291 0.57739 0.16533 0.0
C190 C 0.3185 0.51054 0.1472 0.0
C191 C 0.23548 0.57681 0.16854 0.0
C192 C 0.47304 0.51581 0.12617 0.0
C193 C 0.43659 0.51572 0.13085 0.0
C194 C 0.3919 0.57524 0.1585 0.0
C195 C 0.27535 0.54256 0.16021 0.0
C196 C 0.31646 0.54289 0.15648 0.0
C197 C 0.43444 0.54267 0.14477 0.0
C198 C 0.39379 0.54284 0.14915 0.0
H199 H 0.17233 0.47842 0.16027 0.0
H200 H 0.23538 0.47896 0.15519 0.0
H201 H 0.3567 0.60123 0.16932 0.0
H202 H 0.53644 0.59138 0.15635 0.0
H203 H 0.47365 0.59074 0.16494 0.0
C204 C 0.69693 0.20424 0.48991 0.0
C205 C 0.69517 0.17033 0.49953 0.0
C206 C 0.73382 0.24121 0.48674 0.0
C207 C 0.85168 0.29284 0.4918 0.0
H208 H 0.84799 0.38855 0.47795 0.0
C209 C 1.00516 0.45295 0.48208 0.0
C210 C 1.00583 0.48433 0.4704 0.0
C211 C 0.96859 0.41602 0.48644 0.0
C212 C 0.85063 0.36255 0.48158 0.0
H213 H 0.73463 0.152 0.51325 0.0
H214 H 0.79726 0.21512 0.50849 0.0
H215 H 0.78621 0.32595 0.48323 0.0
H216 H 0.96514 0.49786 0.45419 0.0
H217 H 0.90347 0.43615 0.46177 0.0
H218 H 0.91632 0.32979 0.49022 0.0
C219 C 0.77008 0.21347 0.50287 0.0
C220 C 0.81395 0.32538 0.48472 0.0
C221 C 0.73319 0.17631 0.50581 0.0
C222 C 0.96725 0.47607 0.46367 0.0
C223 C 0.93092 0.43956 0.46808 0.0
C224 C 0.88843 0.3301 0.4887 0.0
C225 C 0.77205 0.24764 0.49321 0.0
C226 C 0.81276 0.28877 0.4899 0.0
C227 C 0.92992 0.40761 0.47942 0.0
C228 C 0.88952 0.36657 0.48335 0.0
H229 H 0.66943 0.20217 0.48442 0.0
H230 H 0.73193 0.26476 0.47882 0.0
H231 H 0.85429 0.26684 0.49548 0.0
H232 H 1.03331 0.45613 0.48726 0.0
H233 H 0.97105 0.39374 0.4953 0.0
C234 C 0.5551 0.67562 0.83241 0.0
C235 C 0.59079 0.67325 0.83053 0.0
C236 C 0.55408 0.71226 0.82945 0.0
C237 C 0.62243 0.82872 0.82242 0.0
H238 H 0.52238 0.82503 0.80995 0.0
C239 C 0.61374 0.98161 0.81301 0.0
C240 C 0.58298 0.98213 0.80131 0.0
C241 C 0.61458 0.94518 0.81741 0.0
C242 C 0.55112 0.8276 0.81327 0.0
H243 H 0.65379 0.71112 0.82376 0.0
H244 H 0.65221 0.77332 0.81869 0.0
H245 H 0.52408 0.76323 0.81502 0.0
H246 H 0.52888 0.94136 0.78534 0.0
H247 H 0.52981 0.8799 0.79297 0.0
H248 H 0.6495 0.8932 0.82042 0.0
C249 C 0.6244 0.74689 0.82267 0.0
C250 C 0.55202 0.79103 0.81649 0.0
C251 C 0.62535 0.71026 0.82554 0.0
C252 C 0.55297 0.94359 0.79471 0.0
C253 C 0.55361 0.9074 0.79918 0.0
C254 C 0.62149 0.86536 0.81929 0.0
C255 C 0.58873 0.7495 0.82446 0.0
C256 C 0.58773 0.78996 0.82113 0.0
C257 C 0.58468 0.90657 0.81047 0.0
C258 C 0.58581 0.86636 0.81448 0.0
H259 H 0.52738 0.64881 0.8362 0.0
H260 H 0.52557 0.71111 0.83139 0.0
H261 H 0.65102 0.83124 0.82609 0.0
H262 H 0.63836 1.00976 0.81818 0.0
H263 H 0.63933 0.94767 0.82627 0.0
C264 C 0.964 0.58205 0.17095 0.0
C265 C 0.96688 0.54673 0.16888 0.0
C266 C 0.92727 0.58281 0.16771 0.0
C267 C 0.81115 0.51386 0.15924 0.0
H268 H 0.81457 0.61382 0.14719 0.0
C269 C 0.65803 0.52157 0.14797 0.0
C270 C 0.658 0.55247 0.13621 0.0
C271 C 0.69437 0.52088 0.15286 0.0
C272 C 0.8121 0.58511 0.15037 0.0
H273 H 0.92984 0.48422 0.16159 0.0
H274 H 0.86704 0.48502 0.15677 0.0
H275 H 0.87644 0.61259 0.15305 0.0
H276 H 0.69941 0.60696 0.12066 0.0
H277 H 0.76073 0.60627 0.12913 0.0
H278 H 0.7467 0.48637 0.15627 0.0
C279 C 0.89338 0.51282 0.16066 0.0
C280 C 0.84869 0.58447 0.15407 0.0
C281 C 0.93022 0.51224 0.16355 0.0
C282 C 0.69684 0.58276 0.13006 0.0
C283 C 0.73293 0.58227 0.13501 0.0
C284 C 0.77449 0.51453 0.15563 0.0
C285 C 0.89037 0.54817 0.16238 0.0
C286 C 0.84985 0.54883 0.1586 0.0
C287 C 0.7333 0.55108 0.14638 0.0
C288 C 0.77344 0.55018 0.15094 0.0
H289 H 0.99057 0.60974 0.17497 0.0
H290 H 0.92809 0.6111 0.16971 0.0
H291 H 0.80866 0.48526 0.16276 0.0
H292 H 0.62963 0.49678 0.15281 0.0
H293 H 0.69158 0.49604 0.16173 0.0
C294 C 0.42321 0.9367 0.49296 0.0
C295 C 0.46086 0.93931 0.497 0.0
C296 C 0.38663 0.89924 0.49025 0.0
C297 C 0.34335 0.78339 0.48302 0.0
H298 H 0.24049 0.77793 0.48867 0.0
C299 C 0.19076 0.63193 0.46229 0.0
C300 C 0.1521 0.62306 0.46926 0.0
C301 C 0.22686 0.66871 0.46655 0.0
C302 C 0.26853 0.77796 0.48704 0.0
H303 H 0.48636 0.90063 0.50114 0.0
H304 H 0.42426 0.83686 0.4966 0.0
H305 H 0.3023 0.84116 0.49402 0.0
H306 H 0.12431 0.6504 0.48654 0.0
H307 H 0.18623 0.71338 0.49423 0.0
H308 H 0.30974 0.72021 0.47629 0.0
C309 C 0.4225 0.86397 0.4953 0.0
C310 C 0.30511 0.81543 0.48999 0.0
C311 C 0.45908 0.90148 0.4981 0.0
C312 C 0.15251 0.65412 0.48107 0.0
C313 C 0.18887 0.69136 0.48526 0.0
C314 C 0.30684 0.74604 0.47997 0.0
C315 C 0.38462 0.86119 0.49126 0.0
C316 C 0.34417 0.81982 0.4881 0.0
C317 C 0.22759 0.70035 0.47798 0.0
C318 C 0.26779 0.74163 0.48179 0.0
H319 H 0.4218 0.96406 0.49181 0.0
H320 H 0.35971 0.90056 0.48702 0.0
H321 H 0.37132 0.78342 0.48107 0.0
H322 H 0.19315 0.61031 0.45282 0.0
H323 H 0.25437 0.67253 0.46008 0.0
C324 C 0.61817 0.43655 0.82164 0.0
C325 C 0.58861 0.4393 0.83334 0.0
C326 C 0.61811 0.39955 0.8184 0.0
C327 C 0.55502 0.28284 0.82593 0.0
H328 H 0.65295 0.28644 0.80885 0.0
C329 C 0.56291 0.12983 0.81441 0.0
C330 C 0.59257 0.12923 0.80181 0.0
C331 C 0.56232 0.16626 0.81913 0.0
C332 C 0.62469 0.2838 0.81336 0.0
H333 H 0.53508 0.40149 0.85054 0.0
H334 H 0.53532 0.33843 0.8454 0.0
H335 H 0.65183 0.34812 0.81464 0.0
H336 H 0.64507 0.16991 0.78466 0.0
H337 H 0.64445 0.23122 0.79269 0.0
H338 H 0.52802 0.21829 0.8247 0.0
C339 C 0.5589 0.36504 0.83835 0.0
C340 C 0.62405 0.3204 0.81679 0.0
C341 C 0.55882 0.40211 0.84149 0.0
C342 C 0.6218 0.16771 0.79467 0.0
C343 C 0.62136 0.20386 0.7994 0.0
C344 C 0.55567 0.24612 0.82249 0.0
C345 C 0.58867 0.36222 0.82669 0.0
C346 C 0.58917 0.32158 0.82314 0.0
C347 C 0.59137 0.20479 0.81161 0.0
C348 C 0.59052 0.24504 0.81595 0.0
H349 H 0.64152 0.4633 0.81454 0.0
H350 H 0.64124 0.40042 0.80883 0.0
H351 H 0.5269 0.28042 0.83055 0.0
H352 H 0.53891 0.10173 0.82007 0.0
H353 H 0.53842 0.16381 0.8287 0.0
C354 C 0.54809 0.79878 0.4919 0.0
C355 C 0.53127 0.81531 0.5048 0.0
C356 C 0.53486 0.75792 0.49248 0.0
C357 C 0.49689 0.68242 0.53179 0.0
H358 H 0.52922 0.62937 0.49256 0.0
C359 C 0.55608 0.5795 0.55695 0.0
C360 C 0.59593 0.59524 0.55035 0.0
C361 C 0.53067 0.59097 0.54772 0.0
C362 C 0.51931 0.64331 0.5036 0.0
H363 H 0.48399 0.80193 0.52635 0.0
H364 H 0.45984 0.73 0.52701 0.0
H365 H 0.50988 0.6779 0.48129 0.0
H366 H 0.6397 0.63407 0.52832 0.0
H367 H 0.59529 0.65371 0.51213 0.0
H368 H 0.50819 0.64934 0.55413 0.0
C369 C 0.48423 0.74871 0.51696 0.0
C370 C 0.50841 0.67121 0.4972 0.0
C371 C 0.49796 0.78981 0.5166 0.0
C372 C 0.60914 0.6211 0.53368 0.0
C373 C 0.5836 0.63216 0.52431 0.0
C374 C 0.50712 0.6541 0.53813 0.0
C375 C 0.50426 0.7327 0.50588 0.0
C376 C 0.50012 0.69332 0.51137 0.0
C377 C 0.54445 0.61793 0.53153 0.0
C378 C 0.52107 0.63644 0.52422 0.0
H379 H 0.57383 0.81787 0.48265 0.0
H380 H 0.5514 0.74708 0.48381 0.0
H381 H 0.49074 0.69864 0.54324 0.0
H382 H 0.54465 0.55871 0.56945 0.0
H383 H 0.50061 0.57962 0.55355 0.0
C384 C 0.80938 0.51294 0.8031 0.0
C385 C 0.76783 0.49716 0.80442 0.0
C386 C 0.82572 0.48775 0.80495 0.0
C387 C 0.8564 0.43026 0.81105 0.0
H388 H 0.80811 0.3719 0.86026 0.0
C389 C 0.95347 0.4098 0.8685 0.0
C390 C 0.95271 0.42893 0.88641 0.0
C391 C 0.92215 0.39693 0.85464 0.0
C392 C 0.82165 0.38732 0.84632 0.0
H393 H 0.71055 0.44269 0.80583 0.0
H394 H 0.7389 0.39839 0.80879 0.0
H395 H 0.77015 0.3917 0.83858 0.0
H396 H 0.9166 0.4458 0.90466 0.0
H397 H 0.86217 0.4231 0.88081 0.0
H398 H 0.90943 0.42954 0.82001 0.0
C399 C 0.75899 0.4302 0.80687 0.0
C400 C 0.79976 0.39843 0.83373 0.0
C401 C 0.74272 0.45547 0.80518 0.0
C402 C 0.91814 0.431 0.89112 0.0
C403 C 0.88676 0.41785 0.87737 0.0
C404 C 0.87837 0.4193 0.82372 0.0
C405 C 0.80071 0.44633 0.80804 0.0
C406 C 0.81794 0.42252 0.81671 0.0
C407 C 0.88934 0.40254 0.85857 0.0
C408 C 0.8621 0.40024 0.84219 0.0
H409 H 0.82937 0.545 0.80254 0.0
H410 H 0.85801 0.50139 0.80591 0.0
H411 H 0.87086 0.44793 0.79778 0.0
H412 H 0.97932 0.40687 0.86468 0.0
H413 H 0.92468 0.38475 0.84038 0.0
C414 C 0.33366 0.76788 0.16814 0.0
C415 C 0.31951 0.74737 0.18647 0.0
C416 C 0.37115 0.8023 0.16718 0.0
C417 C 0.46094 0.87241 0.19666 0.0
H418 H 0.42523 0.94761 0.18268 0.0
C419 C 0.52269 1.02459 0.23562 0.0
C420 C 0.52229 0.05652 0.2255 0.0
C421 C 0.50702 0.98713 0.22651 0.0
C422 C 0.43666 0.92761 0.18617 0.0
H423 H 0.33573 0.74282 0.21719 0.0
H424 H 0.40075 0.80361 0.21568 0.0
H425 H 0.38605 0.87888 0.17241 0.0
H426 H 0.50502 0.07377 0.19773 0.0
H427 H 0.48056 1.00975 0.18143 0.0
H428 H 0.51122 0.92136 0.21091 0.0
C429 C 0.38305 0.79322 0.20206 0.0
C430 C 0.41403 0.88794 0.1802 0.0
C431 C 0.34557 0.75874 0.20302 0.0
C432 C 0.5064 0.05016 0.20594 0.0
C433 C 0.4918 1.0131 0.19664 0.0
C434 C 0.48413 0.9125 0.20235 0.0
C435 C 0.39484 0.81676 0.18454 0.0
C436 C 0.42501 0.85962 0.18609 0.0
C437 C 0.49129 0.98088 0.2069 0.0
C438 C 0.47129 0.9402 0.1979 0.0
H439 H 0.31438 0.75976 0.15507 0.0
H440 H 0.37988 0.81973 0.15342 0.0
H441 H 0.47006 0.8511 0.20131 0.0
H442 H 0.53542 1.02851 0.25053 0.0
H443 H 0.50651 0.96293 0.23508 0.0
C444 C 0.69443 0.30378 0.50146 0.0
C445 C 0.65937 0.29196 0.49017 0.0
C446 C 0.72286 0.34421 0.50349 0.0
C447 C 0.74437 0.44734 0.48894 0.0
H448 H 0.75 0.46179 0.54676 0.0
C449 C 0.6826 0.53074 0.52914 0.0
C450 C 0.69764 0.55005 0.54766 0.0
C451 C 0.70196 0.51396 0.51864 0.0
C452 C 0.75023 0.45901 0.53055 0.0
H453 H 0.62828 0.31299 0.47079 0.0
H454 H 0.6768 0.38328 0.47481 0.0
H455 H 0.74057 0.39969 0.5329 0.0
H456 H 0.74661 0.56891 0.56894 0.0
H457 H 0.77923 0.53716 0.55097 0.0
H458 H 0.74966 0.50535 0.48695 0.0
C459 C 0.68315 0.36155 0.48177 0.0
C460 C 0.74475 0.42317 0.52252 0.0
C461 C 0.65498 0.3211 0.47956 0.0
C462 C 0.73373 0.55363 0.55492 0.0
C463 C 0.75276 0.53599 0.54453 0.0
C464 C 0.74963 0.48314 0.497 0.0
C465 C 0.71644 0.37368 0.49455 0.0
C466 C 0.73841 0.41573 0.50174 0.0
C467 C 0.73644 0.51518 0.52652 0.0
C468 C 0.74927 0.48781 0.51795 0.0
H469 H 0.69903 0.28187 0.5095 0.0
H470 H 0.74855 0.35248 0.51311 0.0
H471 H 0.7409 0.44297 0.47282 0.0
H472 H 0.65444 0.52625 0.5232 0.0
H473 H 0.68795 0.4972 0.5051 0.0
C474 C 0.3449 0.56048 0.82764 0.0
C475 C 0.38196 0.58526 0.83682 0.0
C476 C 0.31519 0.57123 0.82757 0.0
C477 C 0.25229 0.59516 0.83035 0.0
H478 H 0.24744 0.62346 0.88579 0.0
C479 C 0.10203 0.54589 0.87131 0.0
C480 C 0.09985 0.52547 0.88927 0.0
C481 C 0.13888 0.56917 0.86167 0.0
C482 C 0.24844 0.61604 0.87016 0.0
H483 H 0.41909 0.64293 0.8508 0.0
H484 H 0.36728 0.66229 0.85035 0.0
H485 H 0.3112 0.63794 0.87155 0.0
H486 H 0.13441 0.51317 0.91105 0.0
H487 H 0.19824 0.55356 0.89441 0.0
H488 H 0.18848 0.56923 0.8299 0.0
C489 C 0.36069 0.63395 0.84374 0.0
C490 C 0.28519 0.62483 0.86183 0.0
C491 C 0.39032 0.62291 0.84404 0.0
C492 C 0.13516 0.52913 0.89747 0.0
C493 C 0.17181 0.55249 0.88797 0.0
C494 C 0.21536 0.58592 0.8388 0.0
C495 C 0.322 0.60717 0.83658 0.0
C496 C 0.28711 0.61184 0.8423 0.0
C497 C 0.17412 0.57268 0.86995 0.0
C498 C 0.21292 0.59382 0.85921 0.0
H499 H 0.33761 0.53123 0.82199 0.0
H500 H 0.28581 0.5495 0.82208 0.0
H501 H 0.25294 0.58593 0.81504 0.0
H502 H 0.07533 0.54403 0.86477 0.0
H503 H 0.13983 0.58431 0.84776 0.0
C504 C 0.8395 0.40548 0.13293 0.0
C505 C 0.85261 0.37738 0.13151 0.0
C506 C 0.79874 0.39276 0.13493 0.0
C507 C 0.69796 0.30127 0.13872 0.0
H508 H 0.70029 0.34053 0.19273 0.0
C509 C 0.63246 0.19929 0.20379 0.0
C510 C 0.60743 0.20336 0.21783 0.0
C511 C 0.65154 0.22784 0.18891 0.0
C512 C 0.69841 0.33 0.17745 0.0
H513 H 0.83406 0.31474 0.12803 0.0
H514 H 0.76291 0.29216 0.13127 0.0
H515 H 0.75474 0.38026 0.16954 0.0
H516 H 0.58458 0.24171 0.22813 0.0
H517 H 0.62019 0.29351 0.20221 0.0
H518 H 0.64366 0.24903 0.14752 0.0
C519 C 0.78367 0.32406 0.13095 0.0
C520 C 0.7296 0.35275 0.16407 0.0
C521 C 0.82447 0.33686 0.12912 0.0
C522 C 0.60375 0.23797 0.21743 0.0
C523 C 0.62357 0.26718 0.20254 0.0
C524 C 0.66685 0.27856 0.15208 0.0
C525 C 0.77069 0.3517 0.13535 0.0
C526 C 0.73121 0.33703 0.14518 0.0
C527 C 0.64665 0.26158 0.18784 0.0
C528 C 0.66858 0.29144 0.17202 0.0
H529 H 0.86109 0.43698 0.13427 0.0
H530 H 0.78958 0.41474 0.13798 0.0
H531 H 0.69808 0.28883 0.12412 0.0
H532 H 0.63659 0.17337 0.20405 0.0
H533 H 0.67044 0.22361 0.17821 0.0
C534 C 0.08825 0.52601 0.11068 0.0
C535 C 0.07586 0.55138 0.11931 0.0
C536 C 0.07782 0.51284 0.0909 0.0
C537 C 1.00669 0.49633 0.05055 0.0
H538 H 0.09546 0.52004 0.01466 0.0
C539 C 0.99873 0.45039 0.96537 0.0
C540 C 1.02059 0.48389 0.95288 0.0
C541 C 1.00088 0.45467 0.98633 0.0
C542 C 0.07042 0.51295 0.02459 0.0
H543 H 1.04206 0.58206 0.11452 0.0
H544 H 1.02339 0.55861 0.07985 0.0
H545 H 0.10795 0.53366 0.05063 0.0
H546 H 0.05923 0.54846 0.95259 0.0
H547 H 0.0641 0.55541 0.98901 0.0
H548 H 0.96928 0.47584 0.02427 0.0
C549 C 1.04119 0.54903 0.08839 0.0
C550 C 0.0775 0.52055 0.0451 0.0
C551 C 1.05216 0.56271 0.10808 0.0
C552 C 1.04302 0.52186 0.96175 0.0
C553 C 1.04564 0.52597 0.98257 0.0
C554 C 0.99949 0.488 0.03001 0.0
C555 C 0.05434 0.52438 0.07957 0.0
C556 C 1.04583 0.51295 0.0582 0.0
C557 C 1.02522 0.49237 0.99499 0.0
C558 C 1.03148 0.49701 0.01689 0.0
H559 H 0.10652 0.51686 0.11911 0.0
H560 H 0.08822 0.49379 0.0844 0.0
H561 H 0.98183 0.49012 0.06043 0.0
H562 H 0.98127 0.42075 0.95901 0.0
H563 H 0.98489 0.42841 0.99575 0.0
C564 C 0.62066 0.08797 0.43649 0.0
C565 C 0.58717 0.06638 0.44894 0.0
C566 C 0.61621 0.10083 0.41748 0.0
C567 C 0.54273 0.07647 0.3774 0.0
H568 H 0.6166 0.1831 0.35773 0.0
C569 C 0.52504 0.123 0.29794 0.0
C570 C 0.56039 0.14308 0.28658 0.0
C571 C 0.52677 0.11918 0.31875 0.0
C572 C 0.59587 0.15314 0.36294 0.0
H573 H 0.52289 0.0413 0.45149 0.0
H574 H 0.51499 0.0634 0.41813 0.0
H575 H 0.62301 0.16459 0.39214 0.0
H576 H 0.62518 0.17649 0.28805 0.0
H577 H 0.62844 0.16925 0.32433 0.0
H578 H 0.51643 0.06423 0.34817 0.0
C579 C 0.54465 0.0704 0.42305 0.0
C580 C 0.59954 0.14259 0.38265 0.0
C581 C 0.54917 0.05785 0.44212 0.0
C582 C 0.59748 0.16126 0.29652 0.0
C583 C 0.59927 0.15706 0.31732 0.0
C584 C 0.53926 0.08686 0.35768 0.0
C585 C 0.57813 0.09198 0.41053 0.0
C586 C 0.57319 0.10404 0.39001 0.0
C587 C 0.56395 0.13488 0.32861 0.0
C588 C 0.56597 0.12523 0.35012 0.0
H589 H 0.65031 0.09505 0.44147 0.0
H590 H 0.64247 0.11703 0.40807 0.0
H591 H 0.52233 0.04636 0.38257 0.0
H592 H 0.49606 0.10896 0.2906 0.0
H593 H 0.49895 0.10278 0.32701 0.0
C594 C 0.6061 0.57759 0.77343 0.0
C595 C 0.58271 0.54072 0.78307 0.0
C596 C 0.61712 0.57884 0.75328 0.0
C597 C 0.58634 0.51463 0.70777 0.0
H598 H 0.68343 0.60258 0.68556 0.0
C599 C 0.60368 0.54611 0.62325 0.0
C600 C 0.64161 0.56184 0.6142 0.0
C601 C 0.59943 0.54173 0.64404 0.0
C602 C 0.65647 0.57743 0.69153 0.0
H603 H 0.55448 0.4764 0.77991 0.0
H604 H 0.57509 0.47837 0.74513 0.0
H605 H 0.67254 0.59818 0.72177 0.0
H606 H 0.70478 0.58437 0.61999 0.0
H607 H 0.69712 0.57519 0.65641 0.0
H608 H 0.57082 0.49307 0.67772 0.0
C609 C 0.5836 0.5064 0.75265 0.0
C610 C 0.64991 0.57525 0.71231 0.0
C611 C 0.57192 0.5052 0.77262 0.0
C612 C 0.67511 0.57202 0.62647 0.0
C613 C 0.67078 0.56721 0.64737 0.0
C614 C 0.59317 0.51648 0.6871 0.0
C615 C 0.60557 0.5432 0.74254 0.0
C616 C 0.61439 0.54418 0.72066 0.0
C617 C 0.63286 0.55226 0.65641 0.0
C618 C 0.62786 0.54837 0.67864 0.0
H619 H 0.61482 0.60538 0.78128 0.0
H620 H 0.63358 0.60773 0.74599 0.0
H621 H 0.55836 0.49051 0.71349 0.0
H622 H 0.57706 0.53718 0.61426 0.0
H623 H 0.56984 0.53074 0.65041 0.0
C624 C 0.60729 0.08005 0.57219 0.0
C625 C 0.57002 0.05573 0.56288 0.0
C626 C 0.61116 0.08025 0.59334 0.0
C627 C 0.5671 1.01991 0.6393 0.0
H628 H 0.61133 0.12045 0.66815 0.0
C629 C 0.60188 0.03562 0.72594 0.0
C630 C 0.58631 0.05593 0.73732 0.0
C631 C 0.601 0.03542 0.70474 0.0
C632 C 0.59898 0.0921 0.66034 0.0
H633 H 0.50801 1.01176 0.56859 0.0
H634 H 0.51516 1.01077 0.60515 0.0
H635 H 0.60911 0.1201 0.63121 0.0
H636 H 0.557 0.0917 0.73418 0.0
H637 H 0.5577 0.09304 0.69754 0.0
H638 H 0.55762 0.99196 0.66838 0.0
C639 C 0.54127 1.03019 0.59622 0.0
C640 C 0.59795 0.09193 0.63913 0.0
C641 C 0.53716 1.03081 0.57522 0.0
C642 C 0.57031 0.07643 0.72642 0.0
C643 C 0.57036 0.07701 0.70522 0.0
C644 C 0.5691 1.02017 0.66047 0.0
C645 C 0.57815 0.0553 0.60567 0.0
C646 C 0.58158 0.05579 0.62828 0.0
C647 C 0.58546 0.05631 0.69403 0.0
C648 C 0.58465 0.05623 0.67135 0.0
H649 H 0.63316 0.09981 0.5632 0.0
H650 H 0.64006 0.09987 0.60006 0.0
H651 H 0.55435 0.99152 0.6315 0.0
H652 H 0.61543 1.02017 0.73333 0.0
H653 H 0.61324 1.01943 0.69668 0.0
C654 C 0.62992 0.60287 0.90874 0.0
C655 C 0.6073 0.56964 0.89623 0.0
C656 C 0.62614 0.59977 0.9298 0.0
C657 C 0.5891 0.52552 0.97244 0.0
H658 H 0.60261 0.61705 0.00306 0.0
C659 C 0.60398 0.53168 0.06031 0.0
C660 C 0.5881 0.55183 0.07148 0.0
C661 C 0.60505 0.53294 0.0391 0.0
C662 C 0.59834 0.5909 0.99489 0.0
H663 H 0.56243 0.50685 0.89642 0.0
H664 H 0.55533 0.50134 0.93318 0.0
H665 H 0.60499 0.62017 0.96654 0.0
H666 H 0.56119 0.58961 0.06837 0.0
H667 H 0.56213 0.59099 0.03175 0.0
H668 H 0.58159 0.49598 1.00086 0.0
C669 C 0.57661 0.52993 0.9267 0.0
C670 C 0.60028 0.5929 0.97373 0.0
C671 C 0.58043 0.53308 0.90552 0.0
C672 C 0.57328 0.57324 0.06055 0.0
C673 C 0.57433 0.57448 0.03935 0.0
C674 C 0.58715 0.52351 0.99365 0.0
C675 C 0.59945 0.56328 0.93927 0.0
C676 C 0.59594 0.56036 0.96204 0.0
C677 C 0.5903 0.55442 0.02816 0.0
C678 C 0.59188 0.55623 0.00533 0.0
H679 H 0.65104 0.63152 0.90223 0.0
H680 H 0.64491 0.6261 0.93866 0.0
H681 H 0.58591 0.49981 0.96424 0.0
H682 H 0.61531 0.51442 0.06794 0.0
H683 H 0.61805 0.51739 0.0313 0.0
C684 C 0.07305 0.55659 0.24031 0.0
C685 C 0.07508 0.52429 0.23156 0.0
C686 C 0.07382 0.56112 0.26142 0.0
C687 C 1.05188 0.50309 0.30909 0.0
H688 H 0.1205 0.60504 0.33465 0.0
C689 C 0.07053 0.51371 0.39619 0.0
C690 C 0.07934 0.54937 0.4062 0.0
C691 C 0.07026 0.5117 0.37504 0.0
C692 C 0.1005 0.57634 0.32793 0.0
H693 H 0.0794 0.47145 0.23842 0.0
H694 H 0.07972 0.47875 0.27489 0.0
H695 H 0.11855 0.60011 0.29801 0.0
H696 H 0.0944 0.61093 0.40143 0.0
H697 H 0.09254 0.6073 0.36477 0.0
H698 H 1.03268 0.47926 0.33865 0.0
C699 C 0.07772 0.50076 0.26553 0.0
C700 C 0.09957 0.57355 0.30675 0.0
C701 C 0.0777 0.49667 0.24452 0.0
C702 C 0.08786 0.58302 0.39432 0.0
C703 C 0.08696 0.58089 0.37313 0.0
C704 C 1.05227 0.50596 0.3302 0.0
C705 C 0.07579 0.53302 0.27438 0.0
C706 C 0.07557 0.53677 0.29698 0.0
C707 C 0.07811 0.54514 0.36299 0.0
C708 C 0.07694 0.54253 0.34015 0.0
H709 H 0.07091 0.57839 0.23085 0.0
H710 H 0.07208 0.58625 0.26762 0.0
H711 H 1.0325 0.47435 0.3022 0.0
H712 H 0.06438 0.48729 0.40475 0.0
H713 H 0.06435 0.48379 0.36822 0.0
loop_
_geom_bond_atom_site_label_1
_geom_bond_atom_site_label_2
_geom_bond_distance
_geom_bond_site_symmetry_2
_ccdc_geom_bond_type
Tb0 C2 2.809 . S
Tb0 O20 2.484 . S
Tb0 O21 2.440 . S
Tb0 O22 2.658 . S
Tb0 O23 2.409 . S
Tb0 O24 2.378 . S
Tb0 O28 2.325 . S
Tb0 O31 2.341 1_455 S
Tb1 C11 2.809 . S
Tb1 O22 2.325 1_655 S
Tb1 O25 2.341 1_655 S
Tb1 O26 2.484 . S
Tb1 O27 2.440 . S
Tb1 O28 2.658 1_655 S
Tb1 O29 2.409 1_655 S
Tb1 O30 2.378 . S
C2 Tb0 2.809 . S
C2 C3 1.514 . S
C2 O20 1.248 . S
C2 O21 1.266 . S
C3 C2 1.514 . S
C3 C4 1.359 . S
C3 C8 1.348 . S
C4 C3 1.359 . S
C4 C5 1.380 . S
C4 H32 0.929 . S
C5 C4 1.380 . S
C5 C6 1.347 . S
C5 H33 0.931 . S
C6 C5 1.347 . S
C6 C7 1.369 . S
C7 C6 1.369 . S
C7 C8 1.408 . S
C7 H34 0.930 . S
C8 C3 1.348 . S
C8 C7 1.408 . S
C8 H35 0.930 . S
C9 O22 1.281 . S
C9 O23 1.254 . S
C10 O24 1.236 . S
C10 O25 1.266 . S
C11 Tb1 2.809 . S
C11 C12 1.514 . S
C11 O26 1.248 . S
C11 O27 1.266 . S
C12 C11 1.514 . S
C12 C13 1.359 . S
C12 C17 1.348 . S
C13 C12 1.359 . S
C13 C14 1.380 . S
C13 H36 0.929 . S
C14 C13 1.380 . S
C14 C15 1.347 . S
C14 H37 0.931 . S
C15 C14 1.347 . S
C15 C16 1.369 . S
C16 C15 1.369 . S
C16 C17 1.408 . S
C16 H38 0.930 . S
C17 C12 1.348 . S
C17 C16 1.408 . S
C17 H39 0.930 . S
C18 O28 1.281 . S
C18 O29 1.254 . S
C19 O30 1.236 . S
C19 O31 1.266 . S
O20 Tb0 2.484 . S
O20 C2 1.248 . S
O21 Tb0 2.440 . S
O21 C2 1.266 . S
O22 Tb0 2.658 . S
O22 Tb1 2.325 1_455 S
O22 C9 1.281 . S
O23 Tb0 2.409 . S
O23 C9 1.254 . S
O24 Tb0 2.378 . S
O24 C10 1.236 . S
O25 Tb1 2.341 1_455 S
O25 C10 1.266 . S
O26 Tb1 2.484 . S
O26 C11 1.248 . S
O27 Tb1 2.440 . S
O27 C11 1.266 . S
O28 Tb0 2.325 . S
O28 Tb1 2.658 1_455 S
O28 C18 1.281 . S
O29 Tb1 2.409 1_455 S
O29 C18 1.254 . S
O30 Tb1 2.378 . S
O30 C19 1.236 . S
O31 Tb0 2.341 1_655 S
O31 C19 1.266 . S
H32 C4 0.929 . S
H33 C5 0.931 . S
H34 C7 0.930 . S
H35 C8 0.930 . S
H36 C13 0.929 . S
H37 C14 0.931 . S
H38 C16 0.930 . S
H39 C17 0.930 . S
Tb40 C42 2.804 1_545 S
Tb40 O60 2.481 1_545 S
Tb40 O61 2.436 1_545 S
Tb40 O62 2.662 . S
Tb40 O63 2.410 . S
Tb40 O64 2.377 1_545 S
Tb40 O68 2.327 . S
Tb40 O71 2.345 . S
Tb41 C51 2.809 . S
Tb41 O62 2.325 . S
Tb41 O65 2.341 1_545 S
Tb41 O66 2.484 . S
Tb41 O67 2.440 . S
Tb41 O68 2.658 . S
Tb41 O69 2.409 . S
Tb41 O70 2.378 . S
C42 Tb40 2.804 1_565 S
C42 C43 1.514 . S
C42 O60 1.248 . S
C42 O61 1.266 . S
C43 C42 1.514 . S
C43 C44 1.359 . S
C43 C48 1.348 . S
C44 C43 1.359 . S
C44 C45 1.380 . S
C44 H72 0.929 . S
C45 C44 1.380 . S
C45 C46 1.347 . S
C45 H73 0.931 . S
C46 C45 1.347 . S
C46 C47 1.369 . S
C47 C46 1.369 . S
C47 C48 1.408 . S
C47 H74 0.930 . S
C48 C43 1.348 . S
C48 C47 1.408 . S
C48 H75 0.930 . S
C49 O62 1.281 . S
C49 O63 1.254 . S
C50 O64 1.236 . S
C50 O65 1.266 . S
C51 Tb41 2.809 . S
C51 C52 1.514 . S
C51 O66 1.248 . S
C51 O67 1.266 . S
C52 C51 1.514 . S
C52 C53 1.359 . S
C52 C57 1.348 . S
C53 C52 1.359 . S
C53 C54 1.380 . S
C53 H76 0.929 . S
C54 C53 1.380 . S
C54 C55 1.347 . S
C54 H77 0.931 . S
C55 C54 1.347 . S
C55 C56 1.369 . S
C56 C55 1.369 . S
C56 C57 1.408 . S
C56 H78 0.930 . S
C57 C52 1.348 . S
C57 C56 1.408 . S
C57 H79 0.930 . S
C58 O68 1.281 . S
C58 O69 1.254 . S
C59 O70 1.236 . S
C59 O71 1.266 . S
O60 Tb40 2.481 1_565 S
O60 C42 1.248 . S
O61 Tb40 2.436 1_565 S
O61 C42 1.266 . S
O62 Tb40 2.662 . S
O62 Tb41 2.325 . S
O62 C49 1.281 . S
O63 Tb40 2.410 . S
O63 C49 1.254 . S
O64 Tb40 2.377 1_565 S
O64 C50 1.236 . S
O65 Tb41 2.341 1_565 S
O65 C50 1.266 . S
O66 Tb41 2.484 . S
O66 C51 1.248 . S
O67 Tb41 2.440 . S
O67 C51 1.266 . S
O68 Tb40 2.327 . S
O68 Tb41 2.658 . S
O68 C58 1.281 . S
O69 Tb41 2.409 . S
O69 C58 1.254 . S
O70 Tb41 2.378 . S
O70 C59 1.236 . S
O71 Tb40 2.345 . S
O71 C59 1.266 . S
H72 C44 0.929 . S
H73 C45 0.931 . S
H74 C47 0.930 . S
H75 C48 0.930 . S
H76 C53 0.929 . S
H77 C54 0.931 . S
H78 C56 0.930 . S
H79 C57 0.930 . S
Tb80 C82 2.809 . S
Tb80 O100 2.484 . S
Tb80 O101 2.440 . S
Tb80 O102 2.658 . S
Tb80 O103 2.409 . S
Tb80 O104 2.378 . S
Tb80 O108 2.325 . S
Tb80 O111 2.341 . S
Tb81 C91 2.809 . S
Tb81 O102 2.325 . S
Tb81 O105 2.341 . S
Tb81 O106 2.484 . S
Tb81 O107 2.440 . S
Tb81 O108 2.658 . S
Tb81 O109 2.409 . S
Tb81 O110 2.378 . S
C82 Tb80 2.809 . S
C82 C83 1.514 . S
C82 O100 1.248 . S
C82 O101 1.266 . S
C83 C82 1.514 . S
C83 C84 1.359 . S
C83 C88 1.348 . S
C84 C83 1.359 . S
C84 C85 1.380 . S
C84 H112 0.929 . S
C85 C84 1.380 . S
C85 C86 1.347 . S
C85 H113 0.931 . S
C86 C85 1.347 . S
C86 C87 1.369 . S
C87 C86 1.369 . S
C87 C88 1.408 . S
C87 H114 0.930 . S
C88 C83 1.348 . S
C88 C87 1.408 . S
C88 H115 0.930 . S
C89 O102 1.281 . S
C89 O103 1.254 . S
C90 O104 1.236 . S
C90 O105 1.266 . S
C91 Tb81 2.809 . S
C91 C92 1.514 . S
C91 O106 1.248 . S
C91 O107 1.266 . S
C92 C91 1.514 . S
C92 C93 1.359 . S
C92 C97 1.348 . S
C93 C92 1.359 . S
C93 C94 1.380 . S
C93 H116 0.929 . S
C94 C93 1.380 . S
C94 C95 1.347 . S
C94 H117 0.931 . S
C95 C94 1.347 . S
C95 C96 1.369 . S
C96 C95 1.369 . S
C96 C97 1.408 . S
C96 H118 0.930 . S
C97 C92 1.348 . S
C97 C96 1.408 . S
C97 H119 0.930 . S
C98 O108 1.281 . S
C98 O109 1.254 . S
C99 O110 1.236 . S
C99 O111 1.266 . S
O100 Tb80 2.484 . S
O100 C82 1.248 . S
O101 Tb80 2.440 . S
O101 C82 1.266 . S
O102 Tb80 2.658 . S
O102 Tb81 2.325 . S
O102 C89 1.281 . S
O103 Tb80 2.409 . S
O103 C89 1.254 . S
O104 Tb80 2.378 . S
O104 C90 1.236 . S
O105 Tb81 2.341 . S
O105 C90 1.266 . S
O106 Tb81 2.484 . S
O106 C91 1.248 . S
O107 Tb81 2.440 . S
O107 C91 1.266 . S
O108 Tb80 2.325 . S
O108 Tb81 2.658 . S
O108 C98 1.281 . S
O109 Tb81 2.409 . S
O109 C98 1.254 . S
O110 Tb81 2.378 . S
O110 C99 1.236 . S
O111 Tb80 2.341 . S
O111 C99 1.266 . S
H112 C84 0.929 . S
H113 C85 0.931 . S
H114 C87 0.930 . S
H115 C88 0.930 . S
H116 C93 0.929 . S
H117 C94 0.931 . S
H118 C96 0.930 . S
H119 C97 0.930 . S
H120 C123 0.931 1_565 S
H121 C126 0.928 . S
H122 C128 0.930 . S
C123 H120 0.931 1_545 S
C123 C124 1.413 . S
C123 C125 1.360 . S
C124 C123 1.413 . S
C124 C128 1.429 . S
C125 C123 1.360 . S
C125 C126 1.372 . S
C126 H121 0.928 . S
C126 C125 1.372 . S
C126 C127 1.404 . S
C127 C126 1.404 . S
C127 C128 1.391 . S
C128 H122 0.930 . S
C128 C124 1.429 . S
C128 C127 1.391 . S
H129 C132 0.931 . S
H130 C135 0.928 . S
H131 C137 0.930 . S
C132 H129 0.931 . S
C132 C133 1.413 . S
C132 C134 1.360 . S
C133 C132 1.413 . S
C133 C137 1.429 . S
C134 C132 1.360 . S
C134 C135 1.372 . S
C135 H130 0.928 . S
C135 C134 1.372 . S
C135 C136 1.404 . S
C136 C135 1.404 . S
C136 C137 1.391 . S
C137 H131 0.930 . S
C137 C133 1.429 . S
C137 C136 1.391 . S
H138 C141 0.931 . S
H139 C144 0.928 . S
H140 C146 0.930 . S
C141 H138 0.931 . S
C141 C142 1.413 . S
C141 C143 1.360 1_655 S
C142 C141 1.413 . S
C142 C146 1.429 1_655 S
C143 C141 1.360 1_455 S
C143 C144 1.372 . S
C144 H139 0.928 . S
C144 C143 1.372 . S
C144 C145 1.404 . S
C145 C144 1.404 . S
C145 C146 1.391 . S
C146 H140 0.930 . S
C146 C142 1.429 1_455 S
C146 C145 1.391 . S
H147 C150 0.931 1_655 S
H148 C153 0.928 . S
H149 C155 0.930 . S
C150 H147 0.931 1_455 S
C150 C151 1.413 . S
C150 C152 1.360 . S
C151 C150 1.413 . S
C151 C155 1.429 . S
C152 C150 1.360 . S
C152 C153 1.372 . S
C153 H148 0.928 . S
C153 C152 1.372 . S
C153 C154 1.404 . S
C154 C153 1.404 . S
C154 C155 1.391 . S
C155 H149 0.930 . S
C155 C151 1.429 . S
C155 C154 1.391 . S
H156 C159 0.931 . S
H157 C162 0.928 . S
H158 C164 0.931 . S
C159 H156 0.931 . S
C159 C160 1.413 . S
C159 C161 1.360 . S
C160 C159 1.413 . S
C160 C164 1.429 . S
C161 C159 1.360 . S
C161 C162 1.372 1_545 S
C162 H157 0.928 . S
C162 C161 1.372 1_565 S
C162 C163 1.404 . S
C163 C162 1.404 . S
C163 C164 1.391 1_565 S
C164 H158 0.931 . S
C164 C160 1.429 . S
C164 C163 1.391 1_545 S
H165 C168 0.931 . S
H166 C171 0.928 . S
H167 C173 0.930 . S
C168 H165 0.931 . S
C168 C169 1.413 . S
C168 C170 1.360 . S
C169 C168 1.413 . S
C169 C173 1.429 . S
C170 C168 1.360 . S
C170 C171 1.372 . S
C171 H166 0.928 . S
C171 C170 1.372 . S
C171 C172 1.404 . S
C172 C171 1.404 . S
C172 C173 1.391 . S
C173 H167 0.930 . S
C173 C169 1.429 . S
C173 C172 1.391 . S
C174 C175 1.349 . S
C174 C176 1.327 . S
C174 H199 0.950 . S
C175 C174 1.349 . S
C175 C191 1.349 . S
C176 C174 1.327 . S
C176 C195 1.429 . S
C176 H200 0.950 . S
C177 C194 1.574 . S
C177 C196 1.368 . S
C177 H201 0.949 . S
H178 C182 0.949 . S
C179 C180 1.349 . S
C179 C181 1.327 . S
C179 H202 0.950 . S
C180 C179 1.349 . S
C180 C192 1.349 . S
C181 C179 1.327 . S
C181 C197 1.429 . S
C181 H203 0.950 . S
C182 H178 0.949 . S
C182 C190 1.574 . S
C182 C198 1.368 . S
H183 C191 0.950 . S
H184 C189 0.950 . S
H185 C190 0.949 . S
H186 C192 0.950 . S
H187 C193 0.950 . S
H188 C194 0.949 . S
C189 H184 0.950 . S
C189 C191 1.327 . S
C189 C195 1.429 . S
C190 C182 1.574 . S
C190 H185 0.949 . S
C190 C196 1.368 . S
C191 C175 1.349 . S
C191 H183 0.950 . S
C191 C189 1.327 . S
C192 C180 1.349 . S
C192 H186 0.950 . S
C192 C193 1.327 . S
C193 H187 0.950 . S
C193 C192 1.327 . S
C193 C197 1.429 . S
C194 C177 1.574 . S
C194 H188 0.949 . S
C194 C198 1.368 . S
C195 C176 1.429 . S
C195 C189 1.429 . S
C195 C196 1.523 . S
C196 C177 1.368 . S
C196 C190 1.368 . S
C196 C195 1.523 . S
C197 C181 1.429 . S
C197 C193 1.429 . S
C197 C198 1.523 . S
C198 C182 1.368 . S
C198 C194 1.368 . S
C198 C197 1.523 . S
H199 C174 0.950 . S
H200 C176 0.950 . S
H201 C177 0.949 . S
H202 C179 0.950 . S
H203 C181 0.950 . S
C204 C205 1.349 . S
C204 C206 1.327 . S
C204 H229 0.950 . S
C205 C204 1.349 . S
C205 C221 1.349 . S
C206 C204 1.327 . S
C206 C225 1.429 . S
C206 H230 0.950 . S
C207 C224 1.574 . S
C207 C226 1.368 . S
C207 H231 0.949 . S
H208 C212 0.949 . S
C209 C210 1.349 . S
C209 C211 1.327 . S
C209 H232 0.950 . S
C210 C209 1.349 . S
C210 C222 1.349 . S
C211 C209 1.327 . S
C211 C227 1.429 . S
C211 H233 0.950 . S
C212 H208 0.949 . S
C212 C220 1.574 . S
C212 C228 1.368 . S
H213 C221 0.950 . S
H214 C219 0.950 . S
H215 C220 0.949 . S
H216 C222 0.950 . S
H217 C223 0.950 . S
H218 C224 0.949 . S
C219 H214 0.950 . S
C219 C221 1.327 . S
C219 C225 1.429 . S
C220 C212 1.574 . S
C220 H215 0.949 . S
C220 C226 1.368 . S
C221 C205 1.349 . S
C221 H213 0.950 . S
C221 C219 1.327 . S
C222 C210 1.349 . S
C222 H216 0.950 . S
C222 C223 1.327 . S
C223 H217 0.950 . S
C223 C222 1.327 . S
C223 C227 1.429 . S
C224 C207 1.574 . S
C224 H218 0.949 . S
C224 C228 1.368 . S
C225 C206 1.429 . S
C225 C219 1.429 . S
C225 C226 1.523 . S
C226 C207 1.368 . S
C226 C220 1.368 . S
C226 C225 1.523 . S
C227 C211 1.429 . S
C227 C223 1.429 . S
C227 C228 1.523 . S
C228 C212 1.368 . S
C228 C224 1.368 . S
C228 C227 1.523 . S
H229 C204 0.950 . S
H230 C206 0.950 . S
H231 C207 0.949 . S
H232 C209 0.950 . S
H233 C211 0.950 . S
C234 C235 1.349 . S
C234 C236 1.327 . S
C234 H259 0.950 . S
C235 C234 1.349 . S
C235 C251 1.349 . S
C236 C234 1.327 . S
C236 C255 1.429 . S
C236 H260 0.950 . S
C237 C254 1.574 . S
C237 C256 1.368 . S
C237 H261 0.949 . S
H238 C242 0.949 . S
C239 C240 1.349 . S
C239 C241 1.327 . S
C239 H262 0.950 . S
C240 C239 1.349 . S
C240 C252 1.349 . S
C241 C239 1.327 . S
C241 C257 1.429 . S
C241 H263 0.950 . S
C242 H238 0.949 . S
C242 C250 1.574 . S
C242 C258 1.368 . S
H243 C251 0.950 . S
H244 C249 0.950 . S
H245 C250 0.949 . S
H246 C252 0.950 . S
H247 C253 0.950 . S
H248 C254 0.949 . S
C249 H244 0.950 . S
C249 C251 1.327 . S
C249 C255 1.429 . S
C250 C242 1.574 . S
C250 H245 0.949 . S
C250 C256 1.368 . S
C251 C235 1.349 . S
C251 H243 0.950 . S
C251 C249 1.327 . S
C252 C240 1.349 . S
C252 H246 0.950 . S
C252 C253 1.327 . S
C253 H247 0.950 . S
C253 C252 1.327 . S
C253 C257 1.429 . S
C254 C237 1.574 . S
C254 H248 0.949 . S
C254 C258 1.368 . S
C255 C236 1.429 . S
C255 C249 1.429 . S
C255 C256 1.523 . S
C256 C237 1.368 . S
C256 C250 1.368 . S
C256 C255 1.523 . S
C257 C241 1.429 . S
C257 C253 1.429 . S
C257 C258 1.523 . S
C258 C242 1.368 . S
C258 C254 1.368 . S
C258 C257 1.523 . S
H259 C234 0.950 . S
H260 C236 0.950 . S
H261 C237 0.949 . S
H262 C239 0.950 . S
H263 C241 0.950 . S
C264 C265 1.349 . S
C264 C266 1.327 . S
C264 H289 0.950 . S
C265 C264 1.349 . S
C265 C281 1.349 . S
C266 C264 1.327 . S
C266 C285 1.429 . S
C266 H290 0.950 . S
C267 C284 1.574 . S
C267 C286 1.368 . S
C267 H291 0.949 . S
H268 C272 0.949 . S
C269 C270 1.349 . S
C269 C271 1.327 . S
C269 H292 0.950 . S
C270 C269 1.349 . S
C270 C282 1.349 . S
C271 C269 1.327 . S
C271 C287 1.429 . S
C271 H293 0.950 . S
C272 H268 0.949 . S
C272 C280 1.574 . S
C272 C288 1.368 . S
H273 C281 0.950 . S
H274 C279 0.950 . S
H275 C280 0.949 . S
H276 C282 0.950 . S
H277 C283 0.950 . S
H278 C284 0.949 . S
C279 H274 0.950 . S
C279 C281 1.327 . S
C279 C285 1.429 . S
C280 C272 1.574 . S
C280 H275 0.949 . S
C280 C286 1.368 . S
C281 C265 1.349 . S
C281 H273 0.950 . S
C281 C279 1.327 . S
C282 C270 1.349 . S
C282 H276 0.950 . S
C282 C283 1.327 . S
C283 H277 0.950 . S
C283 C282 1.327 . S
C283 C287 1.429 . S
C284 C267 1.574 . S
C284 H278 0.949 . S
C284 C288 1.368 . S
C285 C266 1.429 . S
C285 C279 1.429 . S
C285 C286 1.523 . S
C286 C267 1.368 . S
C286 C280 1.368 . S
C286 C285 1.523 . S
C287 C271 1.429 . S
C287 C283 1.429 . S
C287 C288 1.523 . S
C288 C272 1.368 . S
C288 C284 1.368 . S
C288 C287 1.523 . S
H289 C264 0.950 . S
H290 C266 0.950 . S
H291 C267 0.949 . S
H292 C269 0.950 . S
H293 C271 0.950 . S
C294 C295 1.349 . S
C294 C296 1.327 . S
C294 H319 0.950 . S
C295 C294 1.349 . S
C295 C311 1.349 . S
C296 C294 1.327 . S
C296 C315 1.429 . S
C296 H320 0.950 . S
C297 C314 1.574 . S
C297 C316 1.368 . S
C297 H321 0.949 . S
H298 C302 0.949 . S
C299 C300 1.349 . S
C299 C301 1.327 . S
C299 H322 0.950 . S
C300 C299 1.349 . S
C300 C312 1.349 . S
C301 C299 1.327 . S
C301 C317 1.429 . S
C301 H323 0.950 . S
C302 H298 0.949 . S
C302 C310 1.574 . S
C302 C318 1.368 . S
H303 C311 0.950 . S
H304 C309 0.950 . S
H305 C310 0.949 . S
H306 C312 0.950 . S
H307 C313 0.950 . S
H308 C314 0.949 . S
C309 H304 0.950 . S
C309 C311 1.327 . S
C309 C315 1.429 . S
C310 C302 1.574 . S
C310 H305 0.949 . S
C310 C316 1.368 . S
C311 C295 1.349 . S
C311 H303 0.950 . S
C311 C309 1.327 . S
C312 C300 1.349 . S
C312 H306 0.950 . S
C312 C313 1.327 . S
C313 H307 0.950 . S
C313 C312 1.327 . S
C313 C317 1.429 . S
C314 C297 1.574 . S
C314 H308 0.949 . S
C314 C318 1.368 . S
C315 C296 1.429 . S
C315 C309 1.429 . S
C315 C316 1.523 . S
C316 C297 1.368 . S
C316 C310 1.368 . S
C316 C315 1.523 . S
C317 C301 1.429 . S
C317 C313 1.429 . S
C317 C318 1.523 . S
C318 C302 1.368 . S
C318 C314 1.368 . S
C318 C317 1.523 . S
H319 C294 0.950 . S
H320 C296 0.950 . S
H321 C297 0.949 . S
H322 C299 0.950 . S
H323 C301 0.950 . S
C324 C325 1.349 . S
C324 C326 1.327 . S
C324 H349 0.950 . S
C325 C324 1.349 . S
C325 C341 1.349 . S
C326 C324 1.327 . S
C326 C345 1.429 . S
C326 H350 0.950 . S
C327 C344 1.574 . S
C327 C346 1.368 . S
C327 H351 0.949 . S
H328 C332 0.949 . S
C329 C330 1.349 . S
C329 C331 1.327 . S
C329 H352 0.950 . S
C330 C329 1.349 . S
C330 C342 1.349 . S
C331 C329 1.327 . S
C331 C347 1.429 . S
C331 H353 0.950 . S
C332 H328 0.949 . S
C332 C340 1.574 . S
C332 C348 1.368 . S
H333 C341 0.950 . S
H334 C339 0.950 . S
H335 C340 0.949 . S
H336 C342 0.950 . S
H337 C343 0.950 . S
H338 C344 0.949 . S
C339 H334 0.950 . S
C339 C341 1.327 . S
C339 C345 1.429 . S
C340 C332 1.574 . S
C340 H335 0.949 . S
C340 C346 1.368 . S
C341 C325 1.349 . S
C341 H333 0.950 . S
C341 C339 1.327 . S
C342 C330 1.349 . S
C342 H336 0.950 . S
C342 C343 1.327 . S
C343 H337 0.950 . S
C343 C342 1.327 . S
C343 C347 1.429 . S
C344 C327 1.574 . S
C344 H338 0.949 . S
C344 C348 1.368 . S
C345 C326 1.429 . S
C345 C339 1.429 . S
C345 C346 1.523 . S
C346 C327 1.368 . S
C346 C340 1.368 . S
C346 C345 1.523 . S
C347 C331 1.429 . S
C347 C343 1.429 . S
C347 C348 1.523 . S
C348 C332 1.368 . S
C348 C344 1.368 . S
C348 C347 1.523 . S
H349 C324 0.950 . S
H350 C326 0.950 . S
H351 C327 0.949 . S
H352 C329 0.950 . S
H353 C331 0.950 . S
C354 C355 1.349 . S
C354 C356 1.327 . S
C354 H379 0.950 . S
C355 C354 1.349 . S
C355 C371 1.349 . S
C356 C354 1.327 . S
C356 C375 1.429 . S
C356 H380 0.950 . S
C357 C374 1.574 . S
C357 C376 1.368 . S
C357 H381 0.949 . S
H358 C362 0.949 . S
C359 C360 1.349 . S
C359 C361 1.327 . S
C359 H382 0.950 . S
C360 C359 1.349 . S
C360 C372 1.349 . S
C361 C359 1.327 . S
C361 C377 1.429 . S
C361 H383 0.950 . S
C362 H358 0.949 . S
C362 C370 1.574 . S
C362 C378 1.368 . S
H363 C371 0.950 . S
H364 C369 0.950 . S
H365 C370 0.949 . S
H366 C372 0.950 . S
H367 C373 0.950 . S
H368 C374 0.949 . S
C369 H364 0.950 . S
C369 C371 1.327 . S
C369 C375 1.429 . S
C370 C362 1.574 . S
C370 H365 0.949 . S
C370 C376 1.368 . S
C371 C355 1.349 . S
C371 H363 0.950 . S
C371 C369 1.327 . S
C372 C360 1.349 . S
C372 H366 0.950 . S
C372 C373 1.327 . S
C373 H367 0.950 . S
C373 C372 1.327 . S
C373 C377 1.429 . S
C374 C357 1.574 . S
C374 H368 0.949 . S
C374 C378 1.368 . S
C375 C356 1.429 . S
C375 C369 1.429 . S
C375 C376 1.523 . S
C376 C357 1.368 . S
C376 C370 1.368 . S
C376 C375 1.523 . S
C377 C361 1.429 . S
C377 C373 1.429 . S
C377 C378 1.523 . S
C378 C362 1.368 . S
C378 C374 1.368 . S
C378 C377 1.523 . S
H379 C354 0.950 . S
H380 C356 0.950 . S
H381 C357 0.949 . S
H382 C359 0.950 . S
H383 C361 0.950 . S
C384 C385 1.349 . S
C384 C386 1.327 . S
C384 H409 0.950 . S
C385 C384 1.349 . S
C385 C401 1.349 . S
C386 C384 1.327 . S
C386 C405 1.429 . S
C386 H410 0.950 . S
C387 C404 1.574 . S
C387 C406 1.368 . S
C387 H411 0.949 . S
H388 C392 0.949 . S
C389 C390 1.349 . S
C389 C391 1.327 . S
C389 H412 0.950 . S
C390 C389 1.349 . S
C390 C402 1.349 . S
C391 C389 1.327 . S
C391 C407 1.429 . S
C391 H413 0.950 . S
C392 H388 0.949 . S
C392 C400 1.574 . S
C392 C408 1.368 . S
H393 C401 0.950 . S
H394 C399 0.950 . S
H395 C400 0.949 . S
H396 C402 0.950 . S
H397 C403 0.950 . S
H398 C404 0.949 . S
C399 H394 0.950 . S
C399 C401 1.327 . S
C399 C405 1.429 . S
C400 C392 1.574 . S
C400 H395 0.949 . S
C400 C406 1.368 . S
C401 C385 1.349 . S
C401 H393 0.950 . S
C401 C399 1.327 . S
C402 C390 1.349 . S
C402 H396 0.950 . S
C402 C403 1.327 . S
C403 H397 0.950 . S
C403 C402 1.327 . S
C403 C407 1.429 . S
C404 C387 1.574 . S
C404 H398 0.949 . S
C404 C408 1.368 . S
C405 C386 1.429 . S
C405 C399 1.429 . S
C405 C406 1.523 . S
C406 C387 1.368 . S
C406 C400 1.368 . S
C406 C405 1.523 . S
C407 C391 1.429 . S
C407 C403 1.429 . S
C407 C408 1.523 . S
C408 C392 1.368 . S
C408 C404 1.368 . S
C408 C407 1.523 . S
H409 C384 0.950 . S
H410 C386 0.950 . S
H411 C387 0.949 . S
H412 C389 0.950 . S
H413 C391 0.950 . S
C414 C415 1.349 . S
C414 C416 1.327 . S
C414 H439 0.950 . S
C415 C414 1.349 . S
C415 C431 1.349 . S
C416 C414 1.327 . S
C416 C435 1.429 . S
C416 H440 0.950 . S
C417 C434 1.574 . S
C417 C436 1.368 . S
C417 H441 0.949 . S
H418 C422 0.949 . S
C419 C420 1.349 1_565 S
C419 C421 1.327 . S
C419 H442 0.950 . S
C420 C419 1.349 1_545 S
C420 C432 1.349 . S
C421 C419 1.327 . S
C421 C437 1.429 . S
C421 H443 0.950 . S
C422 H418 0.949 . S
C422 C430 1.574 . S
C422 C438 1.368 . S
H423 C431 0.950 . S
H424 C429 0.950 . S
H425 C430 0.949 . S
H426 C432 0.950 . S
H427 C433 0.950 . S
H428 C434 0.949 . S
C429 H424 0.950 . S
C429 C431 1.327 . S
C429 C435 1.429 . S
C430 C422 1.574 . S
C430 H425 0.949 . S
C430 C436 1.368 . S
C431 C415 1.349 . S
C431 H423 0.950 . S
C431 C429 1.327 . S
C432 C420 1.349 . S
C432 H426 0.950 . S
C432 C433 1.327 1_545 S
C433 H427 0.950 . S
C433 C432 1.327 1_565 S
C433 C437 1.429 . S
C434 C417 1.574 . S
C434 H428 0.949 . S
C434 C438 1.368 . S
C435 C416 1.429 . S
C435 C429 1.429 . S
C435 C436 1.523 . S
C436 C417 1.368 . S
C436 C430 1.368 . S
C436 C435 1.523 . S
C437 C421 1.429 . S
C437 C433 1.429 . S
C437 C438 1.523 . S
C438 C422 1.368 . S
C438 C434 1.368 . S
C438 C437 1.523 . S
H439 C414 0.950 . S
H440 C416 0.950 . S
H441 C417 0.949 . S
H442 C419 0.950 . S
H443 C421 0.950 . S
C444 C445 1.349 . S
C444 C446 1.327 . S
C444 H469 0.950 . S
C445 C444 1.349 . S
C445 C461 1.349 . S
C446 C444 1.327 . S
C446 C465 1.429 . S
C446 H470 0.950 . S
C447 C464 1.574 . S
C447 C466 1.368 . S
C447 H471 0.949 . S
H448 C452 0.949 . S
C449 C450 1.349 . S
C449 C451 1.327 . S
C449 H472 0.950 . S
C450 C449 1.349 . S
C450 C462 1.349 . S
C451 C449 1.327 . S
C451 C467 1.429 . S
C451 H473 0.950 . S
C452 H448 0.949 . S
C452 C460 1.574 . S
C452 C468 1.368 . S
H453 C461 0.950 . S
H454 C459 0.950 . S
H455 C460 0.949 . S
H456 C462 0.950 . S
H457 C463 0.950 . S
H458 C464 0.949 . S
C459 H454 0.950 . S
C459 C461 1.327 . S
C459 C465 1.429 . S
C460 C452 1.574 . S
C460 H455 0.949 . S
C460 C466 1.368 . S
C461 C445 1.349 . S
C461 H453 0.950 . S
C461 C459 1.327 . S
C462 C450 1.349 . S
C462 H456 0.950 . S
C462 C463 1.327 . S
C463 H457 0.950 . S
C463 C462 1.327 . S
C463 C467 1.429 . S
C464 C447 1.574 . S
C464 H458 0.949 . S
C464 C468 1.368 . S
C465 C446 1.429 . S
C465 C459 1.429 . S
C465 C466 1.523 . S
C466 C447 1.368 . S
C466 C460 1.368 . S
C466 C465 1.523 . S
C467 C451 1.429 . S
C467 C463 1.429 . S
C467 C468 1.523 . S
C468 C452 1.368 . S
C468 C464 1.368 . S
C468 C467 1.523 . S
H469 C444 0.950 . S
H470 C446 0.950 . S
H471 C447 0.949 . S
H472 C449 0.950 . S
H473 C451 0.950 . S
C474 C475 1.349 . S
C474 C476 1.327 . S
C474 H499 0.950 . S
C475 C474 1.349 . S
C475 C491 1.349 . S
C476 C474 1.327 . S
C476 C495 1.429 . S
C476 H500 0.950 . S
C477 C494 1.574 . S
C477 C496 1.368 . S
C477 H501 0.949 . S
H478 C482 0.949 . S
C479 C480 1.349 . S
C479 C481 1.327 . S
C479 H502 0.950 . S
C480 C479 1.349 . S
C480 C492 1.349 . S
C481 C479 1.327 . S
C481 C497 1.429 . S
C481 H503 0.950 . S
C482 H478 0.949 . S
C482 C490 1.574 . S
C482 C498 1.368 . S
H483 C491 0.950 . S
H484 C489 0.950 . S
H485 C490 0.949 . S
H486 C492 0.950 . S
H487 C493 0.950 . S
H488 C494 0.949 . S
C489 H484 0.950 . S
C489 C491 1.327 . S
C489 C495 1.429 . S
C490 C482 1.574 . S
C490 H485 0.949 . S
C490 C496 1.368 . S
C491 C475 1.349 . S
C491 H483 0.950 . S
C491 C489 1.327 . S
C492 C480 1.349 . S
C492 H486 0.950 . S
C492 C493 1.327 . S
C493 H487 0.950 . S
C493 C492 1.327 . S
C493 C497 1.429 . S
C494 C477 1.574 . S
C494 H488 0.949 . S
C494 C498 1.368 . S
C495 C476 1.429 . S
C495 C489 1.429 . S
C495 C496 1.523 . S
C496 C477 1.368 . S
C496 C490 1.368 . S
C496 C495 1.523 . S
C497 C481 1.429 . S
C497 C493 1.429 . S
C497 C498 1.523 . S
C498 C482 1.368 . S
C498 C494 1.368 . S
C498 C497 1.523 . S
H499 C474 0.950 . S
H500 C476 0.950 . S
H501 C477 0.949 . S
H502 C479 0.950 . S
H503 C481 0.950 . S
C504 C505 1.349 . S
C504 C506 1.327 . S
C504 H529 0.950 . S
C505 C504 1.349 . S
C505 C521 1.349 . S
C506 C504 1.327 . S
C506 C525 1.429 . S
C506 H530 0.950 . S
C507 C524 1.574 . S
C507 C526 1.368 . S
C507 H531 0.949 . S
H508 C512 0.949 . S
C509 C510 1.349 . S
C509 C511 1.327 . S
C509 H532 0.950 . S
C510 C509 1.349 . S
C510 C522 1.349 . S
C511 C509 1.327 . S
C511 C527 1.429 . S
C511 H533 0.950 . S
C512 H508 0.949 . S
C512 C520 1.574 . S
C512 C528 1.368 . S
H513 C521 0.950 . S
H514 C519 0.950 . S
H515 C520 0.949 . S
H516 C522 0.950 . S
H517 C523 0.950 . S
H518 C524 0.949 . S
C519 H514 0.950 . S
C519 C521 1.327 . S
C519 C525 1.429 . S
C520 C512 1.574 . S
C520 H515 0.949 . S
C520 C526 1.368 . S
C521 C505 1.349 . S
C521 H513 0.950 . S
C521 C519 1.327 . S
C522 C510 1.349 . S
C522 H516 0.950 . S
C522 C523 1.327 . S
C523 H517 0.950 . S
C523 C522 1.327 . S
C523 C527 1.429 . S
C524 C507 1.574 . S
C524 H518 0.949 . S
C524 C528 1.368 . S
C525 C506 1.429 . S
C525 C519 1.429 . S
C525 C526 1.523 . S
C526 C507 1.368 . S
C526 C520 1.368 . S
C526 C525 1.523 . S
C527 C511 1.429 . S
C527 C523 1.429 . S
C527 C528 1.523 . S
C528 C512 1.368 . S
C528 C524 1.368 . S
C528 C527 1.523 . S
H529 C504 0.950 . S
H530 C506 0.950 . S
H531 C507 0.949 . S
H532 C509 0.950 . S
H533 C511 0.950 . S
C534 C535 1.349 . S
C534 C536 1.327 . S
C534 H559 0.950 . S
C535 C534 1.349 . S
C535 C551 1.349 1_455 S
C536 C534 1.327 . S
C536 C555 1.429 . S
C536 H560 0.950 . S
C537 C554 1.574 . S
C537 C556 1.368 1_655 S
C537 H561 0.949 . S
H538 C542 0.949 . S
C539 C540 1.349 1_655 S
C539 C541 1.327 . S
C539 H562 0.950 . S
C540 C539 1.349 1_455 S
C540 C552 1.349 . S
C541 C539 1.327 . S
C541 C557 1.429 1_655 S
C541 H563 0.950 . S
C542 H538 0.949 . S
C542 C550 1.574 . S
C542 C558 1.368 . S
H543 C551 0.950 . S
H544 C549 0.950 . S
H545 C550 0.949 . S
H546 C552 0.950 . S
H547 C553 0.950 . S
H548 C554 0.949 . S
C549 H544 0.950 . S
C549 C551 1.327 . S
C549 C555 1.429 1_655 S
C550 C542 1.574 . S
C550 H545 0.949 . S
C550 C556 1.368 . S
C551 C535 1.349 1_655 S
C551 H543 0.950 . S
C551 C549 1.327 . S
C552 C540 1.349 . S
C552 H546 0.950 . S
C552 C553 1.327 . S
C553 H547 0.950 . S
C553 C552 1.327 . S
C553 C557 1.429 . S
C554 C537 1.574 . S
C554 H548 0.949 . S
C554 C558 1.368 1_655 S
C555 C536 1.429 . S
C555 C549 1.429 1_455 S
C555 C556 1.523 . S
C556 C537 1.368 1_455 S
C556 C550 1.368 . S
C556 C555 1.523 . S
C557 C541 1.429 1_455 S
C557 C553 1.429 . S
C557 C558 1.523 1_556 S
C558 C542 1.368 . S
C558 C554 1.368 1_455 S
C558 C557 1.523 1_554 S
H559 C534 0.950 . S
H560 C536 0.950 . S
H561 C537 0.949 . S
H562 C539 0.950 . S
H563 C541 0.950 . S
C564 C565 1.349 . S
C564 C566 1.327 . S
C564 H589 0.950 . S
C565 C564 1.349 . S
C565 C581 1.349 . S
C566 C564 1.327 . S
C566 C585 1.429 . S
C566 H590 0.950 . S
C567 C584 1.574 . S
C567 C586 1.368 . S
C567 H591 0.949 1_545 S
H568 C572 0.949 . S
C569 C570 1.349 . S
C569 C571 1.327 . S
C569 H592 0.950 1_545 S
C570 C569 1.349 . S
C570 C582 1.349 . S
C571 C569 1.327 . S
C571 C587 1.429 . S
C571 H593 0.950 1_545 S
C572 H568 0.949 . S
C572 C580 1.574 . S
C572 C588 1.368 . S
H573 C581 0.950 1_565 S
H574 C579 0.950 1_565 S
H575 C580 0.949 . S
H576 C582 0.950 . S
H577 C583 0.950 . S
H578 C584 0.949 1_565 S
C579 H574 0.950 1_545 S
C579 C581 1.327 . S
C579 C585 1.429 . S
C580 C572 1.574 . S
C580 H575 0.949 . S
C580 C586 1.368 . S
C581 C565 1.349 . S
C581 H573 0.950 1_545 S
C581 C579 1.327 . S
C582 C570 1.349 . S
C582 H576 0.950 . S
C582 C583 1.327 . S
C583 H577 0.950 . S
C583 C582 1.327 . S
C583 C587 1.429 . S
C584 C567 1.574 . S
C584 H578 0.949 1_545 S
C584 C588 1.368 . S
C585 C566 1.429 . S
C585 C579 1.429 . S
C585 C586 1.523 . S
C586 C567 1.368 . S
C586 C580 1.368 . S
C586 C585 1.523 . S
C587 C571 1.429 . S
C587 C583 1.429 . S
C587 C588 1.523 . S
C588 C572 1.368 . S
C588 C584 1.368 . S
C588 C587 1.523 . S
H589 C564 0.950 . S
H590 C566 0.950 . S
H591 C567 0.949 1_565 S
H592 C569 0.950 1_565 S
H593 C571 0.950 1_565 S
C594 C595 1.349 . S
C594 C596 1.327 . S
C594 H619 0.950 . S
C595 C594 1.349 . S
C595 C611 1.349 . S
C596 C594 1.327 . S
C596 C615 1.429 . S
C596 H620 0.950 . S
C597 C614 1.574 . S
C597 C616 1.368 . S
C597 H621 0.949 . S
H598 C602 0.949 . S
C599 C600 1.349 . S
C599 C601 1.327 . S
C599 H622 0.950 . S
C600 C599 1.349 . S
C600 C612 1.349 . S
C601 C599 1.327 . S
C601 C617 1.429 . S
C601 H623 0.950 . S
C602 H598 0.949 . S
C602 C610 1.574 . S
C602 C618 1.368 . S
H603 C611 0.950 . S
H604 C609 0.950 . S
H605 C610 0.949 . S
H606 C612 0.950 . S
H607 C613 0.950 . S
H608 C614 0.949 . S
C609 H604 0.950 . S
C609 C611 1.327 . S
C609 C615 1.429 . S
C610 C602 1.574 . S
C610 H605 0.949 . S
C610 C616 1.368 . S
C611 C595 1.349 . S
C611 H603 0.950 . S
C611 C609 1.327 . S
C612 C600 1.349 . S
C612 H606 0.950 . S
C612 C613 1.327 . S
C613 H607 0.950 . S
C613 C612 1.327 . S
C613 C617 1.429 . S
C614 C597 1.574 . S
C614 H608 0.949 . S
C614 C618 1.368 . S
C615 C596 1.429 . S
C615 C609 1.429 . S
C615 C616 1.523 . S
C616 C597 1.368 . S
C616 C610 1.368 . S
C616 C615 1.523 . S
C617 C601 1.429 . S
C617 C613 1.429 . S
C617 C618 1.523 . S
C618 C602 1.368 . S
C618 C614 1.368 . S
C618 C617 1.523 . S
H619 C594 0.950 . S
H620 C596 0.950 . S
H621 C597 0.949 . S
H622 C599 0.950 . S
H623 C601 0.950 . S
C624 C625 1.349 . S
C624 C626 1.327 . S
C624 H649 0.950 . S
C625 C624 1.349 . S
C625 C641 1.349 1_545 S
C626 C624 1.327 . S
C626 C645 1.429 . S
C626 H650 0.950 . S
C627 C644 1.574 . S
C627 C646 1.368 1_565 S
C627 H651 0.949 . S
H628 C632 0.949 . S
C629 C630 1.349 1_565 S
C629 C631 1.327 . S
C629 H652 0.950 . S
C630 C629 1.349 1_545 S
C630 C642 1.349 . S
C631 C629 1.327 . S
C631 C647 1.429 1_565 S
C631 H653 0.950 . S
C632 H628 0.949 . S
C632 C640 1.574 . S
C632 C648 1.368 . S
H633 C641 0.950 . S
H634 C639 0.950 . S
H635 C640 0.949 . S
H636 C642 0.950 . S
H637 C643 0.950 . S
H638 C644 0.949 . S
C639 H634 0.950 . S
C639 C641 1.327 . S
C639 C645 1.429 1_565 S
C640 C632 1.574 . S
C640 H635 0.949 . S
C640 C646 1.368 . S
C641 C625 1.349 1_565 S
C641 H633 0.950 . S
C641 C639 1.327 . S
C642 C630 1.349 . S
C642 H636 0.950 . S
C642 C643 1.327 . S
C643 H637 0.950 . S
C643 C642 1.327 . S
C643 C647 1.429 . S
C644 C627 1.574 . S
C644 H638 0.949 . S
C644 C648 1.368 1_565 S
C645 C626 1.429 . S
C645 C639 1.429 1_545 S
C645 C646 1.523 . S
C646 C627 1.368 1_545 S
C646 C640 1.368 . S
C646 C645 1.523 . S
C647 C631 1.429 1_545 S
C647 C643 1.429 . S
C647 C648 1.523 . S
C648 C632 1.368 . S
C648 C644 1.368 1_545 S
C648 C647 1.523 . S
H649 C624 0.950 . S
H650 C626 0.950 . S
H651 C627 0.949 . S
H652 C629 0.950 . S
H653 C631 0.950 . S
C654 C655 1.349 . S
C654 C656 1.327 . S
C654 H679 0.950 . S
C655 C654 1.349 . S
C655 C671 1.349 . S
C656 C654 1.327 . S
C656 C675 1.429 . S
C656 H680 0.950 . S
C657 C674 1.574 . S
C657 C676 1.368 . S
C657 H681 0.949 . S
H658 C662 0.949 . S
C659 C660 1.349 . S
C659 C661 1.327 . S
C659 H682 0.950 . S
C660 C659 1.349 . S
C660 C672 1.349 . S
C661 C659 1.327 . S
C661 C677 1.429 . S
C661 H683 0.950 . S
C662 H658 0.949 . S
C662 C670 1.574 . S
C662 C678 1.368 . S
H663 C671 0.950 . S
H664 C669 0.950 . S
H665 C670 0.949 . S
H666 C672 0.950 . S
H667 C673 0.950 . S
H668 C674 0.969 . S
C669 H664 0.950 . S
C669 C671 1.327 . S
C669 C675 1.429 . S
C670 C662 1.574 . S
C670 H665 0.949 . S
C670 C676 1.368 . S
C671 C655 1.349 . S
C671 H663 0.950 . S
C671 C669 1.327 . S
C672 C660 1.349 . S
C672 H666 0.950 . S
C672 C673 1.327 . S
C673 H667 0.950 . S
C673 C672 1.327 . S
C673 C677 1.429 . S
C674 C657 1.574 . S
C674 H668 0.969 . S
C674 C678 1.368 . S
C675 C656 1.429 . S
C675 C669 1.429 . S
C675 C676 1.523 . S
C676 C657 1.368 . S
C676 C670 1.368 . S
C676 C675 1.523 . S
C677 C661 1.429 . S
C677 C673 1.429 . S
C677 C678 1.523 1_554 S
C678 C662 1.368 . S
C678 C674 1.368 . S
C678 C677 1.523 1_556 S
H679 C654 0.950 . S
H680 C656 0.950 . S
H681 C657 0.949 . S
H682 C659 0.950 . S
H683 C661 0.950 . S
C684 C685 1.349 . S
C684 C686 1.327 . S
C684 H709 0.950 . S
C685 C684 1.349 . S
C685 C701 1.349 . S
C686 C684 1.327 . S
C686 C705 1.429 . S
C686 H710 0.950 . S
C687 C704 1.574 . S
C687 C706 1.368 . S
C687 H711 0.949 . S
H688 C692 0.949 . S
C689 C690 1.349 . S
C689 C691 1.327 . S
C689 H712 0.950 . S
C690 C689 1.349 . S
C690 C702 1.349 . S
C691 C689 1.327 . S
C691 C707 1.429 . S
C691 H713 0.950 . S
C692 H688 0.949 . S
C692 C700 1.574 . S
C692 C708 1.368 . S
H693 C701 0.950 . S
H694 C699 0.950 . S
H695 C700 0.949 . S
H696 C702 0.950 . S
H697 C703 0.950 . S
H698 C704 0.949 . S
C699 H694 0.950 . S
C699 C701 1.327 . S
C699 C705 1.429 . S
C700 C692 1.574 . S
C700 H695 0.949 . S
C700 C706 1.368 . S
C701 C685 1.349 . S
C701 H693 0.950 . S
C701 C699 1.327 . S
C702 C690 1.349 . S
C702 H696 0.950 . S
C702 C703 1.327 . S
C703 H697 0.950 . S
C703 C702 1.327 . S
C703 C707 1.429 . S
C704 C687 1.574 . S
C704 H698 0.949 . S
C704 C708 1.368 . S
C705 C686 1.429 . S
C705 C699 1.429 . S
C705 C706 1.523 . S
C706 C687 1.368 . S
C706 C700 1.368 . S
C706 C705 1.523 . S
C707 C691 1.429 . S
C707 C703 1.429 . S
C707 C708 1.523 . S
C708 C692 1.368 . S
C708 C704 1.368 . S
C708 C707 1.523 . S
H709 C684 0.950 . S
H710 C686 0.950 . S
H711 C687 0.949 . S
H712 C689 0.950 . S
H713 C691 0.950 . S
C175 C10 2.837 . S
C180 C169 2.851 . S
C205 C59 2.939 . S
C210 C151 2.912 1_655 S
C235 C90 2.819 . S
C240 C163 2.824 . S
C265 C19 2.920 . S
C270 C172 2.885 . S
C300 C154 2.824 . S
C295 C50 2.819 . S
C330 C160 2.911 . S
C325 C99 2.938 . S
C355 C46 0.397 . S
C360 C133 0.340 . S
C385 C95 0.411 . S
C390 C142 0.294 . S
C415 C6 0.395 . S
C420 C124 0.338 . S
C450 C136 0.279 . S
C445 C55 0.401 . S
C480 C145 0.331 . S
C475 C86 0.383 . S
C505 C15 0.402 . S
C510 C127 0.280 . S
C540 C143 1.071 . S
C535 C9 1.048 . S
C565 C49 1.048 . S
C570 C125 1.072 . S
C595 C89 1.049 . S
C600 C134 1.073 . S
C630 C161 1.792 . S
C625 C58 1.710 . S
C660 C170 1.793 . S
C655 C98 1.711 . S
C685 C18 1.711 . S
C690 C152 1.793 . S
