# Generated by pormake.
# Topology cml, (3,6)-cn, num edge types: 1
# Building blocks:
#     Node 0, Type 0, BuildingBlock: ESEHIV_clean_linker_0, # of connection points: 3
#     Node 1, Type 0, BuildingBlock: ESEHIV_clean_linker_0, # of connection points: 3
#     Node 2, Type 0, BuildingBlock: ESEHIV_clean_linker_0, # of connection points: 3
#     Node 3, Type 0, BuildingBlock: ESEHIV_clean_linker_0, # of connection points: 3
#     Node 4, Type 0, BuildingBlock: ESEHIV_clean_linker_0, # of connection points: 3
#     Node 5, Type 0, BuildingBlock: ESEHIV_clean_linker_0, # of connection points: 3
#     Node 6, Type 0, BuildingBlock: ESEHIV_clean_linker_0, # of connection points: 3
#     Node 7, Type 0, BuildingBlock: ESEHIV_clean_linker_0, # of connection points: 3
#     Node 8, Type 1, BuildingBlock: OJICUG_clean_sbu_0, # of connection points: 6
#     Node 9, Type 1, BuildingBlock: OJICUG_clean_sbu_0, # of connection points: 6
#     Node 10, Type 1, BuildingBlock: OJICUG_clean_sbu_0, # of connection points: 6
#     Node 11, Type 1, BuildingBlock: OJICUG_clean_sbu_0, # of connection points: 6
#     Edge 12, Type (0, 1), BuildingBlock: XUDNAN_clean_linker_2, # of connection points: 2
#     Edge 13, Type (0, 1), BuildingBlock: XUDNAN_clean_linker_2, # of connection points: 2
#     Edge 14, Type (0, 1), BuildingBlock: XUDNAN_clean_linker_2, # of connection points: 2
#     Edge 15, Type (0, 1), BuildingBlock: XUDNAN_clean_linker_2, # of connection points: 2
#     Edge 16, Type (0, 1), BuildingBlock: XUDNAN_clean_linker_2, # of connection points: 2
#     Edge 17, Type (0, 1), BuildingBlock: XUDNAN_clean_linker_2, # of connection points: 2
#     Edge 18, Type (0, 1), BuildingBlock: XUDNAN_clean_linker_2, # of connection points: 2
#     Edge 19, Type (0, 1), BuildingBlock: XUDNAN_clean_linker_2, # of connection points: 2
#     Edge 20, Type (0, 1), BuildingBlock: XUDNAN_clean_linker_2, # of connection points: 2
#     Edge 21, Type (0, 1), BuildingBlock: XUDNAN_clean_linker_2, # of connection points: 2
#     Edge 22, Type (0, 1), BuildingBlock: XUDNAN_clean_linker_2, # of connection points: 2
#     Edge 23, Type (0, 1), BuildingBlock: XUDNAN_clean_linker_2, # of connection points: 2
#     Edge 24, Type (0, 1), BuildingBlock: XUDNAN_clean_linker_2, # of connection points: 2
#     Edge 25, Type (0, 1), BuildingBlock: XUDNAN_clean_linker_2, # of connection points: 2
#     Edge 26, Type (0, 1), BuildingBlock: XUDNAN_clean_linker_2, # of connection points: 2
#     Edge 27, Type (0, 1), BuildingBlock: XUDNAN_clean_linker_2, # of connection points: 2
#     Edge 28, Type (0, 1), BuildingBlock: XUDNAN_clean_linker_2, # of connection points: 2
#     Edge 29, Type (0, 1), BuildingBlock: XUDNAN_clean_linker_2, # of connection points: 2
#     Edge 30, Type (0, 1), BuildingBlock: XUDNAN_clean_linker_2, # of connection points: 2
#     Edge 31, Type (0, 1), BuildingBlock: XUDNAN_clean_linker_2, # of connection points: 2
#     Edge 32, Type (0, 1), BuildingBlock: XUDNAN_clean_linker_2, # of connection points: 2
#     Edge 33, Type (0, 1), BuildingBlock: XUDNAN_clean_linker_2, # of connection points: 2
#     Edge 34, Type (0, 1), BuildingBlock: XUDNAN_clean_linker_2, # of connection points: 2
#     Edge 35, Type (0, 1), BuildingBlock: XUDNAN_clean_linker_2, # of connection points: 2
# Relax obj value: 0.072
# Max RMSD: 0.084
# Mean RMSD: 0.079
data_MOF--net-cml--node1-OJICUG_clean_sbu_0--node2-ESEHIV_clean_linker_0--edge1-XUDNAN_clean_linker_2
_symmetry_space_group_name_H-M    P1
_symmetry_Int_Tables_number       1
_symmetry_cell_setting            triclinic
loop_
_symmetry_equiv_pos_as_xyz
'x, y, z'
_cell_length_a     36.876063
_cell_length_b     37.047803
_cell_length_c     34.967017
_cell_angle_alpha  90.011488
_cell_angle_beta   90.019526
_cell_angle_gamma 90.163907
loop_
_atom_site_label
_atom_site_type_symbol
_atom_site_fract_x
_atom_site_fract_y
_atom_site_fract_z
_atom_type_partial_charge
H0 H 0.31691 0.4229 0.04256 0.0
H1 H 0.23076 0.41696 0.95987 0.0
H2 H 0.23714 0.33842 0.0503 0.0
C3 C 0.29266 0.40964 0.03197 0.0
C4 C 0.27936 0.37864 0.05034 0.0
C5 C 0.2753 0.42346 -0.00057 0.0
C6 C 0.24444 0.40602 0.98473 0.0
C7 C 0.2303 0.37554 0.00345 0.0
C8 C 0.24807 0.36198 0.03593 0.0
H9 H 0.64638 0.59093 0.49631 0.0
H10 H 0.75126 0.60141 0.44526 0.0
H11 H 0.71564 0.67947 0.52894 0.0
C12 C 0.67154 0.60592 0.49341 0.0
C13 C 0.67772 0.63672 0.51586 0.0
C14 C 0.69786 0.59336 0.46799 0.0
C15 C 0.7309 0.61161 0.46481 0.0
C16 C 0.73755 0.64305 0.48632 0.0
C17 C 0.71098 0.65518 0.51236 0.0
H18 H 0.64854 0.40643 0.00015 0.0
H19 H 0.73638 0.33667 0.0308 0.0
H20 H 0.74513 0.40445 0.93116 0.0
C21 C 0.67574 0.39652 0.99499 0.0
C22 C 0.69523 0.40871 0.96297 0.0
C23 C 0.69045 0.37049 0.01944 0.0
C24 C 0.72514 0.35705 0.01203 0.0
C25 C 0.74519 0.36916 0.9804 0.0
C26 C 0.72992 0.39486 0.95567 0.0
H27 H 0.31599 0.56982 0.54795 0.0
H28 H 0.26798 0.58351 0.43628 0.0
H29 H 0.2576 0.66648 0.52173 0.0
C30 C 0.29975 0.58524 0.52795 0.0
C31 C 0.28673 0.6191 0.53902 0.0
C32 C 0.29352 0.57217 0.49075 0.0
C33 C 0.27319 0.59321 0.46502 0.0
C34 C 0.26038 0.62729 0.47606 0.0
C35 C 0.26739 0.64013 0.51305 0.0
H36 H 0.8274 0.90035 0.03187 0.0
H37 H 0.74973 0.88283 0.94159 0.0
H38 H 0.74906 0.81444 0.04012 0.0
C39 C 0.80381 0.88643 0.02071 0.0
C40 C 0.7892 0.85704 0.04117 0.0
C41 C 0.78985 0.8961 0.98461 0.0
C42 C 0.76065 0.87616 0.96947 0.0
C43 C 0.74699 0.84595 0.98869 0.0
C44 C 0.76046 0.83733 0.02498 0.0
H45 H 0.15696 0.09311 0.51562 0.0
H46 H 0.25263 0.09496 0.44538 0.0
H47 H 0.2444 0.16574 0.54249 0.0
C48 C 0.18384 0.10359 0.50963 0.0
C49 C 0.19861 0.13064 0.53315 0.0
C50 C 0.20304 0.09085 0.47769 0.0
C51 C 0.23737 0.10525 0.46951 0.0
C52 C 0.25252 0.13219 0.49283 0.0
C53 C 0.23293 0.14478 0.52451 0.0
H54 H 0.17192 0.92006 0.02993 0.0
H55 H 0.25392 0.8392 0.0477 0.0
H56 H 0.26203 0.91197 0.95282 0.0
C57 C 0.19698 0.90711 0.02172 0.0
C58 C 0.21463 0.91853 0.98818 0.0
C59 C 0.2109 0.87864 0.04396 0.0
C60 C 0.24348 0.86229 0.03231 0.0
C61 C 0.26221 0.87444 -0.00017 0.0
C62 C 0.24761 0.90251 0.97792 0.0
H63 H 0.82722 0.08444 0.55815 0.0
H64 H 0.77975 0.09071 0.4462 0.0
H65 H 0.7395 0.15747 0.53767 0.0
C66 C 0.80719 0.09556 0.53885 0.0
C67 C 0.784 0.12276 0.55205 0.0
C68 C 0.80616 0.08386 0.50069 0.0
C69 C 0.78007 0.09857 0.47603 0.0
C70 C 0.75553 0.1248 0.48911 0.0
C71 C 0.75789 0.13697 0.5272 0.0
Sc72 Sc -0.00118 0.77811 0.31494 0.0
Sc73 Sc -0.00447 0.87296 0.30738 0.0
Sc74 Sc 0.01323 0.83189 0.39585 0.0
O75 O 0.00217 0.82778 0.3394 0.0
C76 C 0.95665 0.76593 0.39245 0.0
C77 C 0.93733 0.82199 0.2693 0.0
C78 C 0.95582 0.89407 0.3857 0.0
C79 C 0.04397 0.82212 0.2539 0.0
C80 C 0.06494 0.7681 0.37236 0.0
C81 C 0.05949 0.89767 0.36211 0.0
O82 O 0.95956 0.76036 0.35664 0.0
O83 O 0.94701 0.85299 0.28098 0.0
O84 O 0.97021 0.86924 0.40553 0.0
O85 O 0.03817 0.7931 0.27236 0.0
O86 O 0.05868 0.79682 0.3908 0.0
O87 O 0.04361 0.89843 0.32987 0.0
O88 O 0.04347 0.75548 0.34727 0.0
O89 O 0.02833 0.8519 0.26132 0.0
O90 O 0.05048 0.87597 0.38859 0.0
O91 O 0.95445 0.79334 0.27788 0.0
O92 O 0.97642 0.78855 0.41035 0.0
O93 O 0.9627 0.89925 0.35044 0.0
Sc94 Sc 0.99426 0.20873 0.81798 0.0
Sc95 Sc 0.99316 0.11463 0.80408 0.0
Sc96 Sc 0.99423 0.14932 0.89742 0.0
O97 O 0.99397 0.15768 0.83989 0.0
C98 C 0.04732 0.21743 0.88901 0.0
C99 C 0.04509 0.16847 0.75823 0.0
C100 C 0.04992 0.08978 0.86728 0.0
C101 C 0.93642 0.16796 0.76516 0.0
C102 C 0.94172 0.21655 0.89017 0.0
C103 C 0.94151 0.08596 0.87076 0.0
O104 O 0.03713 0.22678 0.8557 0.0
O105 O 0.03212 0.13758 0.76588 0.0
O106 O 0.03684 0.10986 0.89337 0.0
O107 O 0.95061 0.19662 0.77866 0.0
O108 O 0.95268 0.18846 0.90745 0.0
O109 O 0.95393 0.08561 0.83698 0.0
O110 O 0.95401 0.22692 0.85804 0.0
O111 O 0.9488 0.13662 0.77204 0.0
O112 O 0.95295 0.10775 0.89611 0.0
O113 O 0.03474 0.19701 0.77513 0.0
O114 O 0.03437 0.19034 0.90668 0.0
O115 O 0.0373 0.08883 0.83343 0.0
Sc116 Sc 0.49771 0.27978 0.30808 0.0
Sc117 Sc 0.49834 0.37515 0.30704 0.0
Sc118 Sc 0.51697 0.32813 0.39222 0.0
O119 O 0.5043 0.32769 0.33572 0.0
C120 C 0.45968 0.26344 0.38745 0.0
C121 C 0.4369 0.32725 0.26739 0.0
C122 C 0.45774 0.39076 0.38572 0.0
C123 C 0.54283 0.32665 0.24805 0.0
C124 C 0.56474 0.26273 0.36317 0.0
C125 C 0.56451 0.39404 0.36225 0.0
O126 O 0.46217 0.25874 0.35153 0.0
O127 O 0.4509 0.35733 0.27672 0.0
O128 O 0.47533 0.36716 0.4045 0.0
O129 O 0.53257 0.29665 0.26217 0.0
O130 O 0.55925 0.28914 0.38553 0.0
O131 O 0.5451 0.40005 0.33298 0.0
O132 O 0.54417 0.25546 0.33504 0.0
O133 O 0.5328 0.35711 0.26115 0.0
O134 O 0.55784 0.36897 0.3859 0.0
O135 O 0.4506 0.2972 0.27702 0.0
O136 O 0.47838 0.28661 0.40562 0.0
O137 O 0.46313 0.39696 0.35038 0.0
Sc138 Sc 0.48861 0.70933 0.80307 0.0
Sc139 Sc 0.47126 0.61647 0.79821 0.0
Sc140 Sc 0.49501 0.65545 0.88446 0.0
O141 O 0.48506 0.66056 0.82848 0.0
C142 C 0.55618 0.70922 0.86061 0.0
C143 C 0.52052 0.66104 0.73876 0.0
C144 C 0.53245 0.5851 0.84923 0.0
C145 C 0.41806 0.6733 0.765 0.0
C146 C 0.4529 0.73065 0.88097 0.0
C147 C 0.42938 0.60305 0.87712 0.0
O148 O 0.53632 0.72529 0.8361 0.0
O149 O 0.4994 0.63498 0.74728 0.0
O150 O 0.52196 0.60442 0.87719 0.0
O151 O 0.44153 0.69865 0.76685 0.0
O152 O 0.46993 0.70607 0.89881 0.0
O153 O 0.44009 0.5922 0.84445 0.0
O154 O 0.45306 0.73333 0.84471 0.0
O155 O 0.42274 0.64242 0.77993 0.0
O156 O 0.44388 0.62969 0.89415 0.0
O157 O 0.52435 0.68884 0.75965 0.0
O158 O 0.54644 0.6807 0.87788 0.0
O159 O 0.51956 0.58849 0.81569 0.0
H160 H 0.21184 0.35378 0.93055 0.0
H161 H 0.17285 0.35673 0.04761 0.0
H162 H 0.12087 0.31855 0.02964 0.0
H163 H 0.11957 0.35438 0.88524 0.0
H164 H 0.13339 0.32432 0.84744 0.0
H165 H 0.16579 0.35499 0.86846 0.0
H166 H 0.20791 0.30106 0.88372 0.0
H167 H 0.17544 0.27017 0.86337 0.0
H168 H 0.19078 0.26397 0.91187 0.0
H169 H 0.07895 0.27425 0.00237 0.0
H170 H 0.04271 0.23149 0.9645 0.0
H171 H 0.10492 0.25885 0.86307 0.0
C172 C 0.19174 0.34717 0.95202 0.0
C173 C 0.19644 0.35783 0.99054 0.0
C174 C 0.16993 0.34836 0.01808 0.0
C175 C 0.14029 0.32682 0.00814 0.0
C176 C 0.13721 0.31544 0.9704 0.0
C177 C 0.16163 0.32577 0.94247 0.0
C178 C 0.15227 0.30843 0.90434 0.0
C179 C 0.14214 0.33725 0.87461 0.0
C180 C 0.18346 0.28449 0.89 0.0
C181 C 0.11953 0.28596 0.91568 0.0
C182 C 0.11159 0.29046 0.95401 0.0
C183 C 0.08439 0.27091 0.97216 0.0
C184 C 0.06424 0.24641 0.95048 0.0
C185 C 0.07109 0.24189 0.91091 0.0
C186 C 0.099 0.26206 0.89321 0.0
H187 H 0.7713 0.65772 0.41838 0.0
H188 H 0.78139 0.67435 0.5408 0.0
H189 H 0.83953 0.70644 0.53036 0.0
H190 H 0.86559 0.64038 0.40031 0.0
H191 H 0.86563 0.66338 0.35489 0.0
H192 H 0.8247 0.64232 0.37211 0.0
H193 H 0.79049 0.70304 0.36561 0.0
H194 H 0.83125 0.72424 0.34819 0.0
H195 H 0.80814 0.74267 0.38916 0.0
H196 H 0.8967 0.73647 0.50613 0.0
H197 H 0.94731 0.76392 0.47027 0.0
H198 H 0.89997 0.72582 0.36382 0.0
C199 C 0.78584 0.66779 0.4431 0.0
C200 C 0.7719 0.66334 0.48047 0.0
C201 C 0.79142 0.67769 0.51191 0.0
C202 C 0.82455 0.6957 0.50627 0.0
C203 C 0.83771 0.69912 0.46904 0.0
C204 C 0.81887 0.68565 0.43801 0.0
C205 C 0.83859 0.69308 0.40087 0.0
C206 C 0.84926 0.65768 0.38088 0.0
C207 C 0.81576 0.7172 0.37441 0.0
C208 C 0.87157 0.71293 0.41579 0.0
C209 C 0.87059 0.71612 0.45516 0.0
C210 C 0.89777 0.73406 0.47531 0.0
C211 C 0.92644 0.74955 0.45463 0.0
C212 C 0.92777 0.74699 0.41415 0.0
C213 C 0.90004 0.72803 0.3947 0.0
H214 H 0.77274 0.34755 0.91129 0.0
H215 H 0.79851 0.35399 0.0323 0.0
H216 H 0.85309 0.3172 0.02156 0.0
H217 H 0.79718 0.25956 0.89665 0.0
H218 H 0.81769 0.26568 0.8503 0.0
H219 H 0.78273 0.29599 0.86609 0.0
H220 H 0.82533 0.35085 0.85569 0.0
H221 H 0.86026 0.32077 0.83901 0.0
H222 H 0.86944 0.35136 0.87794 0.0
H223 H 0.89857 0.27255 -0.00012 0.0
H224 H 0.93897 0.22997 0.96636 0.0
H225 H 0.887 0.25628 0.85858 0.0
C226 C 0.7905 0.34228 0.9353 0.0
C227 C 0.78116 0.35319 0.9727 0.0
C228 C 0.80481 0.34524 0.00351 0.0
C229 C 0.83595 0.32456 0.9977 0.0
C230 C 0.84344 0.31279 0.96078 0.0
C231 C 0.82202 0.3221 0.92991 0.0
C232 C 0.83558 0.30481 0.8934 0.0
C233 C 0.80656 0.28004 0.87559 0.0
C234 C 0.84843 0.33367 0.86483 0.0
C235 C 0.86711 0.28329 0.90893 0.0
C236 C 0.87104 0.2882 0.9479 0.0
C237 C 0.89636 0.26904 0.96925 0.0
C238 C 0.91883 0.24467 0.95008 0.0
C239 C 0.91599 0.24012 0.91002 0.0
C240 C 0.88987 0.2597 0.88921 0.0
H241 H 0.19608 0.61184 0.44085 0.0
H242 H 0.27807 0.69497 0.4536 0.0
H243 H 0.23913 0.73801 0.41891 0.0
H244 H 0.15978 0.64347 0.34436 0.0
H245 H 0.11387 0.63262 0.35792 0.0
H246 H 0.15103 0.60622 0.37625 0.0
H247 H 0.12923 0.61886 0.44534 0.0
H248 H 0.09239 0.64562 0.42739 0.0
H249 H 0.12398 0.6649 0.46109 0.0
H250 H 0.18856 0.77421 0.39519 0.0
H251 H 0.12952 0.80157 0.3798 0.0
H252 H 0.07913 0.69566 0.38024 0.0
C253 C 0.20623 0.6387 0.4348 0.0
C254 C 0.24003 0.65026 0.44931 0.0
C255 C 0.25227 0.68582 0.44231 0.0
C256 C 0.23043 0.71031 0.42257 0.0
C257 C 0.19656 0.69866 0.40991 0.0
C258 C 0.18457 0.6636 0.41524 0.0
C259 C 0.14536 0.6594 0.40281 0.0
C260 C 0.14234 0.63392 0.36827 0.0
C261 C 0.12135 0.64645 0.43615 0.0
C262 C 0.13671 0.69795 0.39165 0.0
C263 C 0.16687 0.71995 0.39552 0.0
C264 C 0.16498 0.7572 0.39105 0.0
C265 C 0.13133 0.7725 0.38266 0.0
C266 C 0.1001 0.75058 0.37864 0.0
C267 C 0.1029 0.71278 0.38241 0.0
H268 H 0.68445 0.86095 0.94848 0.0
H269 H 0.75539 0.77348 0.98292 0.0
H270 H 0.71738 0.73027 0.9473 0.0
H271 H 0.60201 0.81155 0.95751 0.0
H272 H 0.58047 0.83204 0.91668 0.0
H273 H 0.61455 0.85655 0.94291 0.0
H274 H 0.65116 0.86551 0.88034 0.0
H275 H 0.61733 0.84059 0.854 0.0
H276 H 0.6641 0.82666 0.85252 0.0
H277 H 0.67145 0.69636 0.91117 0.0
H278 H 0.61636 0.67221 0.88056 0.0
H279 H 0.57428 0.78087 0.86827 0.0
C280 C 0.69196 0.83271 0.94826 0.0
C281 C 0.72266 0.82043 0.96861 0.0
C282 C 0.73163 0.7833 0.96801 0.0
C283 C 0.7105 0.75865 0.9475 0.0
C284 C 0.68054 0.77156 0.92764 0.0
C285 C 0.67098 0.80759 0.92802 0.0
C286 C 0.63604 0.81374 0.9061 0.0
C287 C 0.60653 0.82938 0.93237 0.0
C288 C 0.64257 0.83807 0.87116 0.0
C289 C 0.62718 0.77539 0.89408 0.0
C290 C 0.6536 0.75168 0.90642 0.0
C291 C 0.65071 0.7146 0.90099 0.0
C292 C 0.61937 0.70117 0.8836 0.0
C293 C 0.59134 0.72475 0.87188 0.0
C294 C 0.59572 0.76241 0.8762 0.0
H295 H 0.27845 0.15169 0.42246 0.0
H296 H 0.30743 0.14838 0.54277 0.0
H297 H 0.36539 0.17885 0.52815 0.0
H298 H 0.37066 0.13584 0.38544 0.0
H299 H 0.36416 0.16589 0.34551 0.0
H300 H 0.32609 0.1416 0.36518 0.0
H301 H 0.29208 0.202 0.37528 0.0
H302 H 0.33007 0.22647 0.3559 0.0
H303 H 0.31325 0.23736 0.40289 0.0
H304 H 0.41722 0.21389 0.50149 0.0
H305 H 0.46132 0.24935 0.46402 0.0
H306 H 0.39971 0.22764 0.3606 0.0
C307 C 0.29734 0.15662 0.44561 0.0
C308 C 0.28846 0.14779 0.48376 0.0
C309 C 0.31354 0.15537 0.5134 0.0
C310 C 0.34659 0.1724 0.50535 0.0
C311 C 0.35421 0.18129 0.46752 0.0
C312 C 0.3305 0.17339 0.43807 0.0
C313 C 0.34458 0.18715 0.40013 0.0
C314 C 0.35181 0.15574 0.37244 0.0
C315 C 0.31844 0.21489 0.38254 0.0
C316 C 0.37955 0.20475 0.41301 0.0
C317 C 0.38461 0.20095 0.45197 0.0
C318 C 0.41386 0.21666 0.47088 0.0
C319 C 0.43861 0.2369 0.44938 0.0
C320 C 0.43397 0.24109 0.4094 0.0
C321 C 0.40422 0.22447 0.39103 0.0
H322 H 0.28219 0.85344 0.92773 0.0
H323 H 0.31909 0.85521 0.04561 0.0
H324 H 0.37462 0.82265 0.02672 0.0
H325 H 0.31141 0.76617 0.90632 0.0
H326 H 0.32532 0.77608 0.85803 0.0
H327 H 0.29006 0.80225 0.88014 0.0
H328 H 0.32621 0.861 0.8667 0.0
H329 H 0.36161 0.83497 0.84442 0.0
H330 H 0.3723 0.865 0.88342 0.0
H331 H 0.42314 0.78603 0.99631 0.0
H332 H 0.46205 0.74748 0.95627 0.0
H333 H 0.39448 0.77078 0.85762 0.0
C334 C 0.30234 0.84768 0.94941 0.0
C335 C 0.29645 0.85687 0.98812 0.0
C336 C 0.32301 0.84812 0.01584 0.0
C337 C 0.3547 0.82991 0.00535 0.0
C338 C 0.35946 0.82089 0.96702 0.0
C339 C 0.33413 0.82959 0.93943 0.0
C340 C 0.34486 0.81496 0.90062 0.0
C341 C 0.31621 0.78828 0.88541 0.0
C342 C 0.35165 0.84583 0.87211 0.0
C343 C 0.37978 0.79594 0.91091 0.0
C344 C 0.3878 0.79994 0.9493 0.0
C345 C 0.41744 0.78305 0.96611 0.0
C346 C 0.43927 0.76111 0.94315 0.0
C347 C 0.43134 0.75628 0.90381 0.0
C348 C 0.40153 0.77444 0.88744 0.0
H349 H 0.73305 0.19524 0.48427 0.0
H350 H 0.71589 0.0892 0.43431 0.0
H351 H 0.6696 0.11472 0.39121 0.0
H352 H 0.64091 0.21877 0.48756 0.0
H353 H 0.64846 0.26583 0.47703 0.0
H354 H 0.6832 0.24004 0.5005 0.0
H355 H 0.7288 0.25775 0.44721 0.0
H356 H 0.69405 0.28346 0.42342 0.0
H357 H 0.71777 0.24844 0.39795 0.0
H358 H 0.62255 0.15098 0.35646 0.0
H359 H 0.57567 0.19423 0.33577 0.0
H360 H 0.62204 0.2755 0.41098 0.0
C361 C 0.7196 0.17729 0.46432 0.0
C362 C 0.72824 0.14022 0.46262 0.0
C363 C 0.71021 0.11783 0.43572 0.0
C364 C 0.68382 0.13204 0.41116 0.0
C365 C 0.67578 0.16864 0.41391 0.0
C366 C 0.69303 0.19091 0.43993 0.0
C367 C 0.67757 0.22864 0.43922 0.0
C368 C 0.66158 0.2389 0.47839 0.0
C369 C 0.70626 0.2562 0.42616 0.0
C370 C 0.64827 0.22388 0.40941 0.0
C371 C 0.64807 0.18929 0.39463 0.0
C372 C 0.62259 0.17823 0.36761 0.0
C373 C 0.59612 0.20301 0.356 0.0
C374 C 0.59513 0.23821 0.37185 0.0
C375 C 0.62203 0.2488 0.39835 0.0
H376 H 0.30775 0.43167 0.92969 0.0
H377 H 0.27603 0.4897 0.03183 0.0
H378 H 0.30676 0.54457 0.00773 0.0
H379 H 0.39485 0.46642 0.92528 0.0
H380 H 0.39751 0.4695 0.87391 0.0
H381 H 0.36805 0.43667 0.89573 0.0
H382 H 0.31327 0.46245 0.85832 0.0
H383 H 0.34267 0.49526 0.83608 0.0
H384 H 0.30295 0.50988 0.86174 0.0
H385 H 0.34622 0.59021 0.97675 0.0
H386 H 0.39226 0.62443 0.94085 0.0
H387 H 0.40003 0.53678 0.85869 0.0
C388 C 0.30639 0.45638 0.94619 0.0
C389 C 0.28917 0.45701 0.98218 0.0
C390 C 0.28879 0.48917 0.00393 0.0
C391 C 0.30609 0.52034 0.99046 0.0
C392 C 0.32368 0.51876 0.95525 0.0
C393 C 0.32389 0.4877 0.93327 0.0
C394 C 0.34784 0.49225 0.89835 0.0
C395 C 0.3789 0.46457 0.89835 0.0
C396 C 0.32533 0.48982 0.86144 0.0
C397 C 0.36189 0.53025 0.90482 0.0
C398 C 0.34719 0.54515 0.93753 0.0
C399 C 0.35757 0.57907 0.95078 0.0
C400 C 0.38391 0.59822 0.93025 0.0
C401 C 0.3998 0.58336 0.89687 0.0
C402 C 0.38815 0.54909 0.88381 0.0
H403 H 0.6435 0.5844 0.41673 0.0
H404 H 0.73394 0.52928 0.46958 0.0
H405 H 0.71412 0.4718 0.43972 0.0
H406 H 0.58003 0.51991 0.43161 0.0
H407 H 0.55625 0.52493 0.38689 0.0
H408 H 0.58112 0.56238 0.40645 0.0
H409 H 0.6184 0.56774 0.34387 0.0
H410 H 0.59335 0.53037 0.32387 0.0
H411 H 0.64217 0.52886 0.32579 0.0
H412 H 0.67754 0.41954 0.41543 0.0
H413 H 0.63004 0.37697 0.39355 0.0
H414 H 0.56577 0.46676 0.35257 0.0
C415 C 0.65969 0.56036 0.42085 0.0
C416 C 0.69022 0.5609 0.44506 0.0
C417 C 0.7107 0.52916 0.45062 0.0
C418 C 0.69962 0.49654 0.43383 0.0
C419 C 0.66856 0.49657 0.41101 0.0
C420 C 0.64934 0.52786 0.40383 0.0
C421 C 0.6153 0.52028 0.38102 0.0
C422 C 0.58119 0.53259 0.40281 0.0
C423 C 0.61745 0.53785 0.34127 0.0
C424 C 0.61727 0.47962 0.37825 0.0
C425 C 0.6483 0.46642 0.39549 0.0
C426 C 0.65374 0.42954 0.40078 0.0
C427 C 0.62661 0.40561 0.38849 0.0
C428 C 0.59474 0.41872 0.37082 0.0
C429 C 0.59046 0.45608 0.3649 0.0
H430 H 0.66189 0.47113 0.98302 0.0
H431 H 0.69004 0.40553 0.88483 0.0
H432 H 0.65473 0.4464 0.84289 0.0
H433 H 0.57263 0.48587 0.9583 0.0
H434 H 0.57082 0.53166 0.97562 0.0
H435 H 0.60214 0.50024 0.99655 0.0
H436 H 0.65572 0.54349 0.98154 0.0
H437 H 0.62447 0.5753 0.96087 0.0
H438 H 0.6624 0.55923 0.93327 0.0
H439 H 0.6103 0.49103 0.81341 0.0
H440 H 0.56352 0.53685 0.79871 0.0
H441 H 0.56567 0.57173 0.91732 0.0
C442 C 0.66111 0.46575 0.95258 0.0
C443 C 0.67852 0.43533 0.93702 0.0
C444 C 0.67707 0.42903 0.89711 0.0
C445 C 0.65702 0.45197 0.87318 0.0
C446 C 0.63912 0.48118 0.88971 0.0
C447 C 0.64145 0.48832 0.92846 0.0
C448 C 0.61817 0.51996 0.93981 0.0
C449 C 0.58923 0.50874 0.96929 0.0
C450 C 0.6416 0.55135 0.95474 0.0
C451 C 0.60138 0.52889 0.90163 0.0
C452 C 0.61389 0.50657 0.87291 0.0
C453 C 0.60067 0.50897 0.8356 0.0
C454 C 0.57402 0.53494 0.82756 0.0
C455 C 0.56084 0.55791 0.85682 0.0
C456 C 0.57508 0.55476 0.89416 0.0
H457 H 0.32892 0.5591 0.42337 0.0
H458 H 0.29832 0.50866 0.53066 0.0
H459 H 0.33449 0.45498 0.51371 0.0
H460 H 0.32902 0.47499 0.36535 0.0
H461 H 0.36751 0.48975 0.33766 0.0
H462 H 0.33617 0.52243 0.35659 0.0
H463 H 0.38945 0.5555 0.39011 0.0
H464 H 0.42086 0.52273 0.37174 0.0
H465 H 0.41823 0.53081 0.4225 0.0
H466 H 0.37895 0.40997 0.48832 0.0
H467 H 0.42571 0.37486 0.45439 0.0
H468 H 0.42592 0.45405 0.36279 0.0
C469 C 0.32889 0.53632 0.44277 0.0
C470 C 0.31077 0.53802 0.47832 0.0
C471 C 0.31223 0.50801 0.5034 0.0
C472 C 0.33255 0.47737 0.49395 0.0
C473 C 0.35096 0.47704 0.45918 0.0
C474 C 0.34894 0.50551 0.43374 0.0
C475 C 0.37287 0.49924 0.39921 0.0
C476 C 0.35002 0.49643 0.36253 0.0
C477 C 0.40207 0.52882 0.39572 0.0
C478 C 0.38936 0.46322 0.40968 0.0
C479 C 0.37627 0.45082 0.4443 0.0
C480 C 0.38902 0.41913 0.46091 0.0
C481 C 0.41576 0.39951 0.44152 0.0
C482 C 0.42941 0.41162 0.40585 0.0
C483 C 0.41576 0.44383 0.38977 0.0
H484 H 0.82275 0.95977 0.00826 0.0
H485 H 0.80009 0.89542 0.90691 0.0
H486 H 0.83068 0.94053 0.8672 0.0
H487 H 0.81634 0.04896 0.96365 0.0
H488 H 0.85433 0.06705 0.98992 0.0
H489 H 0.82669 0.03198 0.01071 0.0
H490 H 0.88375 0.99241 0.0206 0.0
H491 H 0.91155 0.02737 -1e-05 0.0
H492 H 0.91248 0.98242 0.98027 0.0
H493 H 0.86582 0.98988 0.83833 0.0
H494 H 0.90776 0.03905 0.82215 0.0
H495 H 0.91245 0.07043 0.94191 0.0
C496 C 0.82402 0.9552 0.97771 0.0
C497 C 0.80796 0.92426 0.96084 0.0
C498 C 0.81067 0.9194 0.92067 0.0
C499 C 0.82834 0.9448 0.89772 0.0
C500 C 0.84373 0.97481 0.91524 0.0
C501 C 0.84215 0.98008 0.95429 0.0
C502 C 0.86366 0.01331 0.96592 0.0
C503 C 0.83876 0.04202 0.98359 0.0
C504 C 0.8947 0.00326 0.99331 0.0
C505 C 0.87801 0.02536 0.92731 0.0
C506 C 0.86562 0.00298 0.89852 0.0
C507 C 0.87568 0.00773 0.86055 0.0
C508 C 0.89964 0.03578 0.85171 0.0
C509 C 0.91365 0.05864 0.88075 0.0
C510 C 0.90215 0.05359 0.91902 0.0
H511 H 0.16851 0.02888 0.49978 0.0
H512 H 0.20135 0.08948 0.39938 0.0
H513 H 0.17267 0.04346 0.3579 0.0
H514 H 0.18064 0.93892 0.45873 0.0
H515 H 0.14142 0.92081 0.48286 0.0
H516 H 0.16693 0.9571 0.5043 0.0
H517 H 0.1085 0.9957 0.50867 0.0
H518 H 0.08285 0.95951 0.48744 0.0
H519 H 0.08223 0.00376 0.46603 0.0
H520 H 0.13584 0.9934 0.32786 0.0
H521 H 0.09424 0.94317 0.31176 0.0
H522 H 0.08693 0.9154 0.43219 0.0
C523 C 0.16978 0.03238 0.46906 0.0
C524 C 0.18712 0.06266 0.45273 0.0
C525 C 0.18851 0.06621 0.41241 0.0
C526 C 0.17227 0.04028 0.38866 0.0
C527 C 0.1551 0.01087 0.40573 0.0
C528 C 0.15394 0.00672 0.44501 0.0
C529 C 0.13254 0.97357 0.45632 0.0
C530 C 0.15684 0.94597 0.47675 0.0
C531 C 0.09958 0.98376 0.48106 0.0
C532 C 0.12107 0.96015 0.41732 0.0
C533 C 0.13447 0.98184 0.38844 0.0
C534 C 0.12557 0.97592 0.35019 0.0
C535 C 0.1019 0.94738 0.34133 0.0
C536 C 0.0875 0.92517 0.37065 0.0
C537 C 0.09787 0.93144 0.40898 0.0
H538 H 0.17759 0.98008 0.00841 0.0
H539 H 0.21147 0.9171 0.91 0.0
H540 H 0.17803 0.95829 0.86753 0.0
H541 H 0.08869 0.99268 0.97781 0.0
H542 H 0.08435 0.0379 0.99624 0.0
H543 H 0.11528 0.00684 0.01844 0.0
H544 H 0.16811 0.05222 0.00852 0.0
H545 H 0.13725 0.08353 0.98634 0.0
H546 H 0.17743 0.06929 0.96124 0.0
H547 H 0.1359 0.00205 0.83649 0.0
H548 H 0.08813 0.04547 0.81907 0.0
H549 H 0.08027 0.07874 0.93797 0.0
C550 C 0.17832 0.97514 0.9779 0.0
C551 C 0.1974 0.94546 0.96257 0.0
C552 C 0.19772 0.94007 0.92242 0.0
C553 C 0.17865 0.96322 0.89803 0.0
C554 C 0.15946 0.99169 0.9142 0.0
C555 C 0.15926 -0.00216 0.95318 0.0
C556 C 0.13418 0.02857 0.96356 0.0
C557 C 0.10383 0.01571 0.99059 0.0
C558 C 0.15553 0.06028 0.98094 0.0
C559 C 0.11951 0.03801 0.92443 0.0
C560 C 0.13475 0.01674 0.89629 0.0
C561 C 0.12406 0.0192 0.85818 0.0
C562 C 0.0968 0.04387 0.84862 0.0
C563 C 0.08039 0.0656 0.87712 0.0
C564 C 0.09239 0.06281 0.9154 0.0
H565 H 0.79794 0.03006 0.44623 0.0
H566 H 0.87765 0.07948 0.5218 0.0
H567 H 0.92256 0.03471 0.50188 0.0
H568 H 0.82551 0.93851 0.45639 0.0
H569 H 0.81987 0.92713 0.40662 0.0
H570 H 0.79262 0.96216 0.42771 0.0
H571 H 0.81465 0.00734 0.3761 0.0
H572 H 0.84175 0.97238 0.35465 0.0
H573 H 0.86261 0.01426 0.36917 0.0
H574 H 0.95783 0.98369 0.47735 0.0
H575 H 0.98499 0.93274 0.44234 0.0
H576 H 0.88623 0.92002 0.37619 0.0
C577 C 0.82491 0.03178 0.45834 0.0
C578 C 0.83372 0.05784 0.48653 0.0
C579 C 0.8695 0.059 0.50145 0.0
C580 C 0.89546 0.03388 0.49002 0.0
C581 C 0.88564 0.00829 0.46287 0.0
C582 C 0.85159 0.00741 0.44652 0.0
C583 C 0.84896 0.97788 0.41655 0.0
C584 C 0.82002 0.94976 0.42749 0.0
C585 C 0.84156 0.99393 0.37676 0.0
C586 C 0.88681 0.96219 0.41905 0.0
C587 C 0.90719 0.97996 0.44645 0.0
C588 C 0.94238 0.96975 0.45553 0.0
C589 C 0.95744 0.94076 0.43572 0.0
C590 C 0.93754 0.92281 0.40683 0.0
C591 C 0.90185 0.93363 0.39814 0.0
H592 H 0.31125 0.41596 0.10959 0.0
H593 H 0.29004 0.30734 0.06829 0.0
H594 H 0.32108 0.28239 0.12474 0.0
H595 H 0.40033 0.39866 0.13983 0.0
H596 H 0.39827 0.4279 0.18098 0.0
H597 H 0.37034 0.43701 0.13995 0.0
H598 H 0.31318 0.43593 0.18313 0.0
H599 H 0.341 0.42644 0.22429 0.0
H600 H 0.30391 0.39677 0.21216 0.0
H601 H 0.35814 0.26916 0.18286 0.0
H602 H 0.4026 0.26867 0.23547 0.0
H603 H 0.40162 0.38596 0.23749 0.0
C604 C 0.31303 0.38692 0.11237 0.0
C605 C 0.29783 0.36366 0.08459 0.0
C606 C 0.3007 0.32578 0.08956 0.0
C607 C 0.31836 0.3113 0.12151 0.0
C608 C 0.33308 0.33502 0.14825 0.0
C609 C 0.33081 0.37201 0.14391 0.0
C610 C 0.35155 0.39157 0.17502 0.0
C611 C 0.38192 0.41516 0.15791 0.0
C612 C 0.32587 0.414 0.20013 0.0
C613 C 0.36672 0.35976 0.19687 0.0
C614 C 0.35519 0.32739 0.1814 0.0
C615 C 0.36712 0.29432 0.19547 0.0
C616 C 0.39238 0.29435 0.22542 0.0
C617 C 0.40574 0.32728 0.24067 0.0
C618 C 0.39185 0.3603 0.22674 0.0
H619 H 0.68549 0.65758 0.59114 0.0
H620 H 0.60511 0.64136 0.50204 0.0
H621 H 0.55626 0.64936 0.54925 0.0
H622 H 0.64169 0.61043 0.66263 0.0
H623 H 0.65289 0.64051 0.70142 0.0
H624 H 0.68205 0.63793 0.66027 0.0
H625 H 0.67604 0.70682 0.64961 0.0
H626 H 0.64728 0.70977 0.69117 0.0
H627 H 0.6316 0.72664 0.64575 0.0
H628 H 0.5168 0.64924 0.60659 0.0
H629 H 0.48817 0.64965 0.67051 0.0
H630 H 0.59272 0.67094 0.72272 0.0
C631 C 0.65762 0.65692 0.58141 0.0
C632 C 0.6491 0.64848 0.54299 0.0
C633 C 0.61226 0.64725 0.53145 0.0
C634 C 0.58431 0.65189 0.558 0.0
C635 C 0.59356 0.6585 0.59593 0.0
C636 C 0.62923 0.66191 0.6076 0.0
C637 C 0.63151 0.66762 0.65052 0.0
C638 C 0.65333 0.63731 0.66983 0.0
C639 C 0.64756 0.70494 0.65981 0.0
C640 C 0.59168 0.66559 0.66116 0.0
C641 C 0.57033 0.66019 0.62915 0.0
C642 C 0.53308 0.65429 0.6318 0.0
C643 C 0.51712 0.65424 0.66813 0.0
C644 C 0.53832 0.66057 0.70116 0.0
C645 C 0.57598 0.66662 0.69766 0.0
H646 H 0.65158 0.4097 0.07154 0.0
H647 H 0.68209 0.30022 0.04154 0.0
H648 H 0.64854 0.27718 0.09758 0.0
H649 H 0.65851 0.39917 0.17315 0.0
H650 H 0.61982 0.42715 0.18345 0.0
H651 H 0.64622 0.43511 0.14094 0.0
H652 H 0.58838 0.42867 0.09929 0.0
H653 H 0.56177 0.42088 0.14168 0.0
H654 H 0.561 0.38845 0.10325 0.0
H655 H 0.61183 0.26611 0.15638 0.0
H656 H 0.5734 0.26742 0.21397 0.0
H657 H 0.56654 0.38428 0.20533 0.0
C658 C 0.65092 0.38086 0.07662 0.0
C659 C 0.66949 0.35671 0.05239 0.0
C660 C 0.66839 0.31919 0.06012 0.0
C661 C 0.64933 0.30585 0.09173 0.0
C662 C 0.63154 0.33042 0.11522 0.0
C663 C 0.63208 0.3671 0.10805 0.0
C664 C 0.61069 0.38767 0.13779 0.0
C665 C 0.63529 0.41381 0.16015 0.0
C666 C 0.57855 0.40758 0.1194 0.0
C667 C 0.59797 0.35677 0.16271 0.0
C668 C 0.61033 0.32401 0.14921 0.0
C669 C 0.60195 0.29159 0.16729 0.0
C670 C 0.58009 0.29266 0.19999 0.0
C671 C 0.56689 0.32596 0.21425 0.0
C672 C 0.57622 0.35838 0.19532 0.0
H673 H 0.34053 0.66563 0.55815 0.0
H674 H 0.25233 0.60252 0.60533 0.0
H675 H 0.26975 0.62187 0.67067 0.0
H676 H 0.40338 0.64131 0.62478 0.0
H677 H 0.4266 0.68413 0.62713 0.0
H678 H 0.40256 0.67164 0.58447 0.0
H679 H 0.36493 0.73056 0.58883 0.0
H680 H 0.38878 0.74304 0.63192 0.0
H681 H 0.33996 0.74039 0.63189 0.0
H682 H 0.30231 0.63893 0.72968 0.0
H683 H 0.34973 0.64905 0.77833 0.0
H684 H 0.41696 0.70215 0.69368 0.0
C685 C 0.32437 0.65695 0.58235 0.0
C686 C 0.29491 0.63318 0.57729 0.0
C687 C 0.27476 0.62114 0.60913 0.0
C688 C 0.28431 0.63219 0.64612 0.0
C689 C 0.31397 0.65531 0.65046 0.0
C690 C 0.33375 0.66756 0.61943 0.0
C691 C 0.36735 0.68792 0.63206 0.0
C692 C 0.40199 0.67018 0.61619 0.0
C693 C 0.3651 0.72786 0.62049 0.0
C694 C 0.36444 0.68355 0.675 0.0
C695 C 0.33297 0.66541 0.68504 0.0
C696 C 0.3265 0.65403 0.72239 0.0
C697 C 0.35351 0.65991 0.74983 0.0
C698 C 0.38647 0.67702 0.73973 0.0
C699 C 0.39135 0.6903 0.70232 0.0
H700 H 0.81693 0.89872 0.09975 0.0
H701 H 0.80066 0.78733 0.06468 0.0
H702 H 0.82937 0.76655 0.12411 0.0
H703 H 0.90478 0.88545 0.1358 0.0
H704 H 0.90018 0.91678 0.17493 0.0
H705 H 0.87393 0.92296 0.13208 0.0
H706 H 0.8149 0.92272 0.17236 0.0
H707 H 0.84105 0.91621 0.21536 0.0
H708 H 0.80526 0.88498 0.2033 0.0
H709 H 0.86422 0.75744 0.18432 0.0
H710 H 0.90633 0.76091 0.23897 0.0
H711 H 0.90188 0.87802 0.23421 0.0
C712 C 0.81913 0.86996 0.10467 0.0
C713 C 0.80582 0.84476 0.0777 0.0
C714 C 0.80953 0.80731 0.08528 0.0
C715 C 0.82598 0.79515 0.11896 0.0
C716 C 0.83879 0.82068 0.14484 0.0
C717 C 0.83576 0.8573 0.13805 0.0
C718 C 0.85463 0.87901 0.16893 0.0
C719 C 0.88519 0.90241 0.15191 0.0
C720 C 0.82732 0.90209 0.19131 0.0
C721 C 0.86957 0.84882 0.19348 0.0
C722 C 0.85962 0.8154 0.17942 0.0
C723 C 0.8719 0.78345 0.1959 0.0
C724 C 0.89584 0.78571 0.22696 0.0
C725 C 0.90746 0.81971 0.24103 0.0
C726 C 0.89326 0.85158 0.22455 0.0
H727 H 0.16122 0.09068 0.58578 0.0
H728 H 0.19023 0.20086 0.55652 0.0
H729 H 0.15683 0.22287 0.61319 0.0
H730 H 0.07116 0.10962 0.61644 0.0
H731 H 0.07187 0.07683 0.65451 0.0
H732 H 0.09933 0.0701 0.61259 0.0
H733 H 0.15655 0.06469 0.65534 0.0
H734 H 0.12926 0.07165 0.6974 0.0
H735 H 0.16762 0.10062 0.68815 0.0
H736 H 0.11833 0.23273 0.6723 0.0
H737 H 0.07694 0.22955 0.72789 0.0
H738 H 0.07381 0.11273 0.71715 0.0
C739 C 0.16041 0.11946 0.59117 0.0
C740 C 0.17834 0.14406 0.56683 0.0
C741 C 0.17702 0.1815 0.57511 0.0
C742 C 0.15805 0.19426 0.60712 0.0
C743 C 0.1407 0.16921 0.63057 0.0
C744 C 0.14172 0.1326 0.62292 0.0
C745 C 0.12022 0.11129 0.65196 0.0
C746 C 0.08878 0.09077 0.63272 0.0
C747 C 0.1449 0.08555 0.67455 0.0
C748 C 0.10655 0.14164 0.67691 0.0
C749 C 0.11873 0.17486 0.66435 0.0
C750 C 0.10875 0.20684 0.68252 0.0
C751 C 0.08528 0.20476 0.71409 0.0
C752 C 0.07205 0.17093 0.72697 0.0
C753 C 0.08337 0.13908 0.70823 0.0
H754 H 0.13684 0.87959 0.05836 0.0
H755 H 0.23967 0.84794 0.10938 0.0
H756 H 0.20698 0.82426 0.16516 0.0
H757 H 0.10123 0.91441 0.14602 0.0
H758 H 0.05524 0.90133 0.13515 0.0
H759 H 0.08632 0.91171 0.09699 0.0
H760 H 0.07369 0.84901 0.06681 0.0
H761 H 0.04288 0.83826 0.10516 0.0
H762 H 0.08052 0.80884 0.09498 0.0
H763 H 0.16305 0.8034 0.21555 0.0
H764 H 0.11222 0.796 0.26119 0.0
H765 H 0.04012 0.8498 0.18173 0.0
C766 C 0.1529 0.86819 0.0812 0.0
C767 C 0.19114 0.86529 0.07857 0.0
C768 C 0.21038 0.8495 0.10953 0.0
C769 C 0.19206 0.83613 0.14168 0.0
C770 C 0.15452 0.83945 0.14307 0.0
C771 C 0.13526 0.85585 0.11406 0.0
C772 C 0.09548 0.85917 0.12413 0.0
C773 C 0.0839 0.89902 0.12568 0.0
C774 C 0.07175 0.83752 0.0961 0.0
C775 C 0.09545 0.8422 0.16347 0.0
C776 C 0.12961 0.83015 0.17345 0.0
C777 C 0.13622 0.81289 0.20816 0.0
C778 C 0.10726 0.80862 0.23374 0.0
C779 C 0.07256 0.82238 0.22473 0.0
C780 C 0.06653 0.83912 0.18911 0.0
H781 H 0.79692 0.08711 0.61891 0.0
H782 H 0.78891 0.19434 0.5703 0.0
H783 H 0.81764 0.21986 0.62805 0.0
H784 H 0.7909 0.11449 0.72472 0.0
H785 H 0.82425 0.08092 0.73694 0.0
H786 H 0.79294 0.0728 0.69822 0.0
H787 H 0.84718 0.06081 0.65294 0.0
H788 H 0.87859 0.06957 0.69101 0.0
H789 H 0.88158 0.09507 0.64722 0.0
H790 H 0.8598 0.23164 0.68277 0.0
H791 H 0.90912 0.22883 0.73052 0.0
H792 H 0.89188 0.11335 0.74161 0.0
C793 C 0.79986 0.11612 0.6212 0.0
C794 C 0.79067 0.13876 0.59028 0.0
C795 C 0.79519 0.17656 0.59396 0.0
C796 C 0.81166 0.19127 0.62664 0.0
C797 C 0.82299 0.16784 0.65545 0.0
C798 C 0.81667 0.13104 0.65332 0.0
C799 C 0.83648 0.11094 0.6846 0.0
C800 C 0.80953 0.09378 0.7128 0.0
C801 C 0.86249 0.08246 0.66792 0.0
C802 C 0.85694 0.14177 0.70298 0.0
C803 C 0.84811 0.17453 0.68658 0.0
C804 C 0.86626 0.20628 0.69648 0.0
C805 C 0.89438 0.20439 0.72349 0.0
C806 C 0.90448 0.17085 0.73971 0.0
C807 C 0.88482 0.13944 0.72983 0.0
loop_
_geom_bond_atom_site_label_1
_geom_bond_atom_site_label_2
_geom_bond_distance
_geom_bond_site_symmetry_2
_ccdc_geom_bond_type
H0 C3 0.931 . S
H1 C6 0.928 . S
H2 C8 0.930 . S
C3 H0 0.931 . S
C3 C4 1.413 . S
C3 C5 1.360 1_554 S
C4 C3 1.413 . S
C4 C8 1.429 . S
C5 C3 1.360 1_556 S
C5 C6 1.372 . S
C6 H1 0.928 . S
C6 C5 1.372 . S
C6 C7 1.404 . S
C7 C6 1.404 . S
C7 C8 1.391 1_556 S
C8 H2 0.930 . S
C8 C4 1.429 . S
C8 C7 1.391 1_554 S
H9 C12 0.931 . S
H10 C15 0.928 . S
H11 C17 0.930 . S
C12 H9 0.931 . S
C12 C13 1.413 . S
C12 C14 1.360 . S
C13 C12 1.413 . S
C13 C17 1.429 . S
C14 C12 1.360 . S
C14 C15 1.372 . S
C15 H10 0.928 . S
C15 C14 1.372 . S
C15 C16 1.404 . S
C16 C15 1.404 . S
C16 C17 1.391 . S
C17 H11 0.930 . S
C17 C13 1.429 . S
C17 C16 1.391 . S
H18 C21 0.931 . S
H19 C24 0.928 . S
H20 C26 0.930 . S
C21 H18 0.931 . S
C21 C22 1.413 1_554 S
C21 C23 1.360 . S
C22 C21 1.413 1_556 S
C22 C26 1.429 . S
C23 C21 1.360 . S
C23 C24 1.372 . S
C24 H19 0.928 . S
C24 C23 1.372 . S
C24 C25 1.404 1_554 S
C25 C24 1.404 1_556 S
C25 C26 1.391 . S
C26 H20 0.930 . S
C26 C22 1.429 . S
C26 C25 1.391 . S
H27 C30 0.931 . S
H28 C33 0.928 . S
H29 C35 0.930 . S
C30 H27 0.931 . S
C30 C31 1.413 . S
C30 C32 1.360 . S
C31 C30 1.413 . S
C31 C35 1.429 . S
C32 C30 1.360 . S
C32 C33 1.372 . S
C33 H28 0.928 . S
C33 C32 1.372 . S
C33 C34 1.404 . S
C34 C33 1.404 . S
C34 C35 1.391 . S
C35 H29 0.930 . S
C35 C31 1.429 . S
C35 C34 1.391 . S
H36 C39 0.931 . S
H37 C42 0.928 . S
H38 C44 0.930 . S
C39 H36 0.931 . S
C39 C40 1.413 . S
C39 C41 1.360 1_554 S
C40 C39 1.413 . S
C40 C44 1.429 . S
C41 C39 1.360 1_556 S
C41 C42 1.372 . S
C42 H37 0.928 . S
C42 C41 1.372 . S
C42 C43 1.404 . S
C43 C42 1.404 . S
C43 C44 1.391 1_556 S
C44 H38 0.930 . S
C44 C40 1.429 . S
C44 C43 1.391 1_554 S
H45 C48 0.931 . S
H46 C51 0.928 . S
H47 C53 0.930 . S
C48 H45 0.931 . S
C48 C49 1.413 . S
C48 C50 1.360 . S
C49 C48 1.413 . S
C49 C53 1.429 . S
C50 C48 1.360 . S
C50 C51 1.372 . S
C51 H46 0.928 . S
C51 C50 1.372 . S
C51 C52 1.404 . S
C52 C51 1.404 . S
C52 C53 1.391 . S
C53 H47 0.930 . S
C53 C49 1.429 . S
C53 C52 1.391 . S
H54 C57 0.931 . S
H55 C60 0.928 . S
H56 C62 0.930 . S
C57 H54 0.931 . S
C57 C58 1.413 1_554 S
C57 C59 1.360 . S
C58 C57 1.413 1_556 S
C58 C62 1.429 . S
C59 C57 1.360 . S
C59 C60 1.372 . S
C60 H55 0.928 . S
C60 C59 1.372 . S
C60 C61 1.404 1_554 S
C61 C60 1.404 1_556 S
C61 C62 1.391 . S
C62 H56 0.930 . S
C62 C58 1.429 . S
C62 C61 1.391 . S
H63 C66 0.931 . S
H64 C69 0.928 . S
H65 C71 0.930 . S
C66 H63 0.931 . S
C66 C67 1.413 . S
C66 C68 1.360 . S
C67 C66 1.413 . S
C67 C71 1.429 . S
C68 C66 1.360 . S
C68 C69 1.372 . S
C69 H64 0.928 . S
C69 C68 1.372 . S
C69 C70 1.404 . S
C70 C69 1.404 . S
C70 C71 1.391 . S
C71 H65 0.930 . S
C71 C67 1.429 . S
C71 C70 1.391 . S
Sc72 O75 2.025 . S
Sc72 O82 2.093 1_455 S
Sc72 O85 2.117 . S
Sc72 O88 2.117 . S
Sc72 O91 2.093 1_455 S
Sc73 O75 2.025 . S
Sc73 O83 2.093 1_455 S
Sc73 O87 2.117 . S
Sc73 O89 2.117 . S
Sc73 O93 2.093 1_455 S
Sc74 O75 2.025 . S
Sc74 O84 2.093 1_455 S
Sc74 O86 2.117 . S
Sc74 O90 2.117 . S
Sc74 O92 2.093 1_455 S
O75 Sc72 2.025 . S
O75 Sc73 2.025 . S
O75 Sc74 2.025 . S
C76 O82 1.268 . S
C76 O92 1.268 . S
C77 O83 1.268 . S
C77 O91 1.268 . S
C78 O84 1.268 . S
C78 O93 1.268 . S
C79 O85 1.268 . S
C79 O89 1.268 . S
C80 O86 1.268 . S
C80 O88 1.268 . S
C81 O87 1.268 . S
C81 O90 1.268 . S
O82 Sc72 2.093 1_655 S
O82 C76 1.268 . S
O83 Sc73 2.093 1_655 S
O83 C77 1.268 . S
O84 Sc74 2.093 1_655 S
O84 C78 1.268 . S
O85 Sc72 2.117 . S
O85 C79 1.268 . S
O86 Sc74 2.117 . S
O86 C80 1.268 . S
O87 Sc73 2.117 . S
O87 C81 1.268 . S
O88 Sc72 2.117 . S
O88 C80 1.268 . S
O89 Sc73 2.117 . S
O89 C79 1.268 . S
O90 Sc74 2.117 . S
O90 C81 1.268 . S
O91 Sc72 2.093 1_655 S
O91 C77 1.268 . S
O92 Sc74 2.093 1_655 S
O92 C76 1.268 . S
O93 Sc73 2.093 1_655 S
O93 C78 1.268 . S
Sc94 O97 2.025 . S
Sc94 O104 2.112 . S
Sc94 O107 2.098 1_455 S
Sc94 O110 2.098 1_455 S
Sc94 O113 2.112 . S
Sc95 O97 2.025 . S
Sc95 O105 2.111 . S
Sc95 O109 2.098 1_455 S
Sc95 O111 2.098 1_455 S
Sc95 O115 2.111 . S
Sc96 O97 2.025 . S
Sc96 O106 2.111 . S
Sc96 O108 2.099 1_455 S
Sc96 O112 2.099 1_455 S
Sc96 O114 2.111 . S
O97 Sc94 2.025 . S
O97 Sc95 2.025 . S
O97 Sc96 2.025 . S
C98 O104 1.268 . S
C98 O114 1.268 . S
C99 O105 1.268 . S
C99 O113 1.268 . S
C100 O106 1.268 . S
C100 O115 1.268 . S
C101 O107 1.268 . S
C101 O111 1.268 . S
C102 O108 1.268 . S
C102 O110 1.268 . S
C103 O109 1.268 . S
C103 O112 1.268 . S
O104 Sc94 2.112 . S
O104 C98 1.268 . S
O105 Sc95 2.111 . S
O105 C99 1.268 . S
O106 Sc96 2.111 . S
O106 C100 1.268 . S
O107 Sc94 2.098 1_655 S
O107 C101 1.268 . S
O108 Sc96 2.099 1_655 S
O108 C102 1.268 . S
O109 Sc95 2.098 1_655 S
O109 C103 1.268 . S
O110 Sc94 2.098 1_655 S
O110 C102 1.268 . S
O111 Sc95 2.098 1_655 S
O111 C101 1.268 . S
O112 Sc96 2.099 1_655 S
O112 C103 1.268 . S
O113 Sc94 2.112 . S
O113 C99 1.268 . S
O114 Sc96 2.111 . S
O114 C98 1.268 . S
O115 Sc95 2.111 . S
O115 C100 1.268 . S
Sc116 O119 2.025 . S
Sc116 O126 2.105 . S
Sc116 O129 2.105 . S
Sc116 O132 2.105 . S
Sc116 O135 2.105 . S
Sc117 O119 2.025 . S
Sc117 O127 2.105 . S
Sc117 O131 2.105 . S
Sc117 O133 2.105 . S
Sc117 O137 2.105 . S
Sc118 O119 2.025 . S
Sc118 O128 2.105 . S
Sc118 O130 2.105 . S
Sc118 O134 2.105 . S
Sc118 O136 2.105 . S
O119 Sc116 2.025 . S
O119 Sc117 2.025 . S
O119 Sc118 2.025 . S
C120 O126 1.268 . S
C120 O136 1.268 . S
C121 O127 1.268 . S
C121 O135 1.268 . S
C122 O128 1.268 . S
C122 O137 1.268 . S
C123 O129 1.268 . S
C123 O133 1.268 . S
C124 O130 1.268 . S
C124 O132 1.268 . S
C125 O131 1.268 . S
C125 O134 1.268 . S
O126 Sc116 2.105 . S
O126 C120 1.268 . S
O127 Sc117 2.105 . S
O127 C121 1.268 . S
O128 Sc118 2.105 . S
O128 C122 1.268 . S
O129 Sc116 2.105 . S
O129 C123 1.268 . S
O130 Sc118 2.105 . S
O130 C124 1.268 . S
O131 Sc117 2.105 . S
O131 C125 1.268 . S
O132 Sc116 2.105 . S
O132 C124 1.268 . S
O133 Sc117 2.105 . S
O133 C123 1.268 . S
O134 Sc118 2.105 . S
O134 C125 1.268 . S
O135 Sc116 2.105 . S
O135 C121 1.268 . S
O136 Sc118 2.105 . S
O136 C120 1.268 . S
O137 Sc117 2.105 . S
O137 C122 1.268 . S
Sc138 O141 2.025 . S
Sc138 O148 2.105 . S
Sc138 O151 2.105 . S
Sc138 O154 2.105 . S
Sc138 O157 2.105 . S
Sc139 O141 2.025 . S
Sc139 O149 2.105 . S
Sc139 O153 2.105 . S
Sc139 O155 2.105 . S
Sc139 O159 2.105 . S
Sc140 O141 2.025 . S
Sc140 O150 2.105 . S
Sc140 O152 2.105 . S
Sc140 O156 2.105 . S
Sc140 O158 2.105 . S
O141 Sc138 2.025 . S
O141 Sc139 2.025 . S
O141 Sc140 2.025 . S
C142 O148 1.268 . S
C142 O158 1.268 . S
C143 O149 1.268 . S
C143 O157 1.268 . S
C144 O150 1.268 . S
C144 O159 1.268 . S
C145 O151 1.268 . S
C145 O155 1.268 . S
C146 O152 1.268 . S
C146 O154 1.268 . S
C147 O153 1.268 . S
C147 O156 1.268 . S
O148 Sc138 2.105 . S
O148 C142 1.268 . S
O149 Sc139 2.105 . S
O149 C143 1.268 . S
O150 Sc140 2.105 . S
O150 C144 1.268 . S
O151 Sc138 2.105 . S
O151 C145 1.268 . S
O152 Sc140 2.105 . S
O152 C146 1.268 . S
O153 Sc139 2.105 . S
O153 C147 1.268 . S
O154 Sc138 2.105 . S
O154 C146 1.268 . S
O155 Sc139 2.105 . S
O155 C145 1.268 . S
O156 Sc140 2.105 . S
O156 C147 1.268 . S
O157 Sc138 2.105 . S
O157 C143 1.268 . S
O158 Sc140 2.105 . S
O158 C142 1.268 . S
O159 Sc139 2.105 . S
O159 C144 1.268 . S
H160 C172 0.930 . S
H161 C174 0.930 . S
H162 C175 0.930 1_554 S
H163 C179 0.959 . S
H164 C179 0.959 . S
H165 C179 0.961 . S
H166 C180 0.960 . S
H167 C180 0.961 . S
H168 C180 0.959 . S
H169 C183 0.929 . S
H170 C184 0.931 . S
H171 C186 0.930 . S
C172 H160 0.930 . S
C172 C173 1.399 . S
C172 C177 1.399 . S
C173 C172 1.399 . S
C173 C174 1.376 1_556 S
C174 H161 0.930 . S
C174 C173 1.376 1_554 S
C174 C175 1.388 1_554 S
C175 H162 0.930 1_556 S
C175 C174 1.388 1_556 S
C175 C176 1.390 . S
C176 C175 1.390 . S
C176 C177 1.394 . S
C176 C182 1.465 . S
C177 C172 1.399 . S
C177 C176 1.394 . S
C177 C178 1.516 . S
C178 C177 1.516 . S
C178 C179 1.502 . S
C178 C180 1.561 . S
C178 C181 1.526 . S
C179 H163 0.959 . S
C179 H164 0.959 . S
C179 H165 0.961 . S
C179 C178 1.502 . S
C180 H166 0.960 . S
C180 H167 0.961 . S
C180 H168 0.959 . S
C180 C178 1.561 . S
C181 C178 1.526 . S
C181 C182 1.396 . S
C181 C186 1.390 . S
C182 C176 1.465 . S
C182 C181 1.396 . S
C182 C183 1.399 . S
C183 H169 0.929 . S
C183 C182 1.399 . S
C183 C184 1.385 . S
C184 H170 0.931 . S
C184 C183 1.385 . S
C184 C185 1.389 . S
C185 C184 1.389 . S
C185 C186 1.387 . S
C186 H171 0.930 . S
C186 C181 1.390 . S
C186 C185 1.387 . S
H187 C199 0.930 . S
H188 C201 0.930 . S
H189 C202 0.930 . S
H190 C206 0.959 . S
H191 C206 0.959 . S
H192 C206 0.961 . S
H193 C207 0.960 . S
H194 C207 0.961 . S
H195 C207 0.959 . S
H196 C210 0.929 . S
H197 C211 0.931 . S
H198 C213 0.930 . S
C199 H187 0.930 . S
C199 C200 1.399 . S
C199 C204 1.399 . S
C200 C199 1.399 . S
C200 C201 1.376 . S
C201 H188 0.930 . S
C201 C200 1.376 . S
C201 C202 1.388 . S
C202 H189 0.930 . S
C202 C201 1.388 . S
C202 C203 1.390 . S
C203 C202 1.390 . S
C203 C204 1.394 . S
C203 C209 1.465 . S
C204 C199 1.399 . S
C204 C203 1.394 . S
C204 C205 1.516 . S
C205 C204 1.516 . S
C205 C206 1.502 . S
C205 C207 1.561 . S
C205 C208 1.526 . S
C206 H190 0.959 . S
C206 H191 0.959 . S
C206 H192 0.961 . S
C206 C205 1.502 . S
C207 H193 0.960 . S
C207 H194 0.961 . S
C207 H195 0.959 . S
C207 C205 1.561 . S
C208 C205 1.526 . S
C208 C209 1.396 . S
C208 C213 1.390 . S
C209 C203 1.465 . S
C209 C208 1.396 . S
C209 C210 1.399 . S
C210 H196 0.929 . S
C210 C209 1.399 . S
C210 C211 1.385 . S
C211 H197 0.931 . S
C211 C210 1.385 . S
C211 C212 1.389 . S
C212 C211 1.389 . S
C212 C213 1.387 . S
C213 H198 0.930 . S
C213 C208 1.390 . S
C213 C212 1.387 . S
H214 C226 0.930 . S
H215 C228 0.930 1_554 S
H216 C229 0.930 . S
H217 C233 0.959 . S
H218 C233 0.959 . S
H219 C233 0.961 . S
H220 C234 0.960 . S
H221 C234 0.961 . S
H222 C234 0.959 . S
H223 C237 0.929 . S
H224 C238 0.931 . S
H225 C240 0.930 . S
C226 H214 0.930 . S
C226 C227 1.399 . S
C226 C231 1.399 . S
C227 C226 1.399 . S
C227 C228 1.376 . S
C228 H215 0.930 1_556 S
C228 C227 1.376 . S
C228 C229 1.388 . S
C229 H216 0.930 . S
C229 C228 1.388 . S
C229 C230 1.390 . S
C230 C229 1.390 . S
C230 C231 1.394 . S
C230 C236 1.465 . S
C231 C226 1.399 . S
C231 C230 1.394 . S
C231 C232 1.516 . S
C232 C231 1.516 . S
C232 C233 1.502 . S
C232 C234 1.561 . S
C232 C235 1.526 . S
C233 H217 0.959 . S
C233 H218 0.959 . S
C233 H219 0.961 . S
C233 C232 1.502 . S
C234 H220 0.960 . S
C234 H221 0.961 . S
C234 H222 0.959 . S
C234 C232 1.561 . S
C235 C232 1.526 . S
C235 C236 1.396 . S
C235 C240 1.390 . S
C236 C230 1.465 . S
C236 C235 1.396 . S
C236 C237 1.399 . S
C237 H223 0.929 . S
C237 C236 1.399 . S
C237 C238 1.385 . S
C238 H224 0.931 . S
C238 C237 1.385 . S
C238 C239 1.389 . S
C239 C238 1.389 . S
C239 C240 1.387 . S
C240 H225 0.930 . S
C240 C235 1.390 . S
C240 C239 1.387 . S
H241 C253 0.930 . S
H242 C255 0.930 . S
H243 C256 0.930 . S
H244 C260 0.959 . S
H245 C260 0.959 . S
H246 C260 0.961 . S
H247 C261 0.960 . S
H248 C261 0.961 . S
H249 C261 0.959 . S
H250 C264 0.929 . S
H251 C265 0.931 . S
H252 C267 0.930 . S
C253 H241 0.930 . S
C253 C254 1.399 . S
C253 C258 1.399 . S
C254 C253 1.399 . S
C254 C255 1.376 . S
C255 H242 0.930 . S
C255 C254 1.376 . S
C255 C256 1.388 . S
C256 H243 0.930 . S
C256 C255 1.388 . S
C256 C257 1.390 . S
C257 C256 1.390 . S
C257 C258 1.394 . S
C257 C263 1.465 . S
C258 C253 1.399 . S
C258 C257 1.394 . S
C258 C259 1.516 . S
C259 C258 1.516 . S
C259 C260 1.502 . S
C259 C261 1.561 . S
C259 C262 1.526 . S
C260 H244 0.959 . S
C260 H245 0.959 . S
C260 H246 0.961 . S
C260 C259 1.502 . S
C261 H247 0.960 . S
C261 H248 0.961 . S
C261 H249 0.959 . S
C261 C259 1.561 . S
C262 C259 1.526 . S
C262 C263 1.396 . S
C262 C267 1.390 . S
C263 C257 1.465 . S
C263 C262 1.396 . S
C263 C264 1.399 . S
C264 H250 0.929 . S
C264 C263 1.399 . S
C264 C265 1.385 . S
C265 H251 0.931 . S
C265 C264 1.385 . S
C265 C266 1.389 . S
C266 C265 1.389 . S
C266 C267 1.387 . S
C267 H252 0.930 . S
C267 C262 1.390 . S
C267 C266 1.387 . S
H268 C280 0.930 . S
H269 C282 0.930 . S
H270 C283 0.930 . S
H271 C287 0.959 . S
H272 C287 0.959 . S
H273 C287 0.961 . S
H274 C288 0.960 . S
H275 C288 0.961 . S
H276 C288 0.959 . S
H277 C291 0.929 . S
H278 C292 0.931 . S
H279 C294 0.930 . S
C280 H268 0.930 . S
C280 C281 1.399 . S
C280 C285 1.399 . S
C281 C280 1.399 . S
C281 C282 1.376 . S
C282 H269 0.930 . S
C282 C281 1.376 . S
C282 C283 1.388 . S
C283 H270 0.930 . S
C283 C282 1.388 . S
C283 C284 1.390 . S
C284 C283 1.390 . S
C284 C285 1.394 . S
C284 C290 1.465 . S
C285 C280 1.399 . S
C285 C284 1.394 . S
C285 C286 1.516 . S
C286 C285 1.516 . S
C286 C287 1.502 . S
C286 C288 1.561 . S
C286 C289 1.526 . S
C287 H271 0.959 . S
C287 H272 0.959 . S
C287 H273 0.961 . S
C287 C286 1.502 . S
C288 H274 0.960 . S
C288 H275 0.961 . S
C288 H276 0.959 . S
C288 C286 1.561 . S
C289 C286 1.526 . S
C289 C290 1.396 . S
C289 C294 1.390 . S
C290 C284 1.465 . S
C290 C289 1.396 . S
C290 C291 1.399 . S
C291 H277 0.929 . S
C291 C290 1.399 . S
C291 C292 1.385 . S
C292 H278 0.931 . S
C292 C291 1.385 . S
C292 C293 1.389 . S
C293 C292 1.389 . S
C293 C294 1.387 . S
C294 H279 0.930 . S
C294 C289 1.390 . S
C294 C293 1.387 . S
H295 C307 0.930 . S
H296 C309 0.930 . S
H297 C310 0.930 . S
H298 C314 0.959 . S
H299 C314 0.959 . S
H300 C314 0.961 . S
H301 C315 0.960 . S
H302 C315 0.961 . S
H303 C315 0.959 . S
H304 C318 0.929 . S
H305 C319 0.931 . S
H306 C321 0.930 . S
C307 H295 0.930 . S
C307 C308 1.399 . S
C307 C312 1.399 . S
C308 C307 1.399 . S
C308 C309 1.376 . S
C309 H296 0.930 . S
C309 C308 1.376 . S
C309 C310 1.388 . S
C310 H297 0.930 . S
C310 C309 1.388 . S
C310 C311 1.390 . S
C311 C310 1.390 . S
C311 C312 1.394 . S
C311 C317 1.465 . S
C312 C307 1.399 . S
C312 C311 1.394 . S
C312 C313 1.516 . S
C313 C312 1.516 . S
C313 C314 1.502 . S
C313 C315 1.561 . S
C313 C316 1.526 . S
C314 H298 0.959 . S
C314 H299 0.959 . S
C314 H300 0.961 . S
C314 C313 1.502 . S
C315 H301 0.960 . S
C315 H302 0.961 . S
C315 H303 0.959 . S
C315 C313 1.561 . S
C316 C313 1.526 . S
C316 C317 1.396 . S
C316 C321 1.390 . S
C317 C311 1.465 . S
C317 C316 1.396 . S
C317 C318 1.399 . S
C318 H304 0.929 . S
C318 C317 1.399 . S
C318 C319 1.385 . S
C319 H305 0.931 . S
C319 C318 1.385 . S
C319 C320 1.389 . S
C320 C319 1.389 . S
C320 C321 1.387 . S
C321 H306 0.930 . S
C321 C316 1.390 . S
C321 C320 1.387 . S
H322 C334 0.930 . S
H323 C336 0.930 . S
H324 C337 0.930 1_554 S
H325 C341 0.959 . S
H326 C341 0.959 . S
H327 C341 0.961 . S
H328 C342 0.960 . S
H329 C342 0.961 . S
H330 C342 0.959 . S
H331 C345 0.929 . S
H332 C346 0.931 . S
H333 C348 0.930 . S
C334 H322 0.930 . S
C334 C335 1.399 . S
C334 C339 1.399 . S
C335 C334 1.399 . S
C335 C336 1.376 1_556 S
C336 H323 0.930 . S
C336 C335 1.376 1_554 S
C336 C337 1.388 1_554 S
C337 H324 0.930 1_556 S
C337 C336 1.388 1_556 S
C337 C338 1.390 . S
C338 C337 1.390 . S
C338 C339 1.394 . S
C338 C344 1.465 . S
C339 C334 1.399 . S
C339 C338 1.394 . S
C339 C340 1.516 . S
C340 C339 1.516 . S
C340 C341 1.502 . S
C340 C342 1.561 . S
C340 C343 1.526 . S
C341 H325 0.959 . S
C341 H326 0.959 . S
C341 H327 0.961 . S
C341 C340 1.502 . S
C342 H328 0.960 . S
C342 H329 0.961 . S
C342 H330 0.959 . S
C342 C340 1.561 . S
C343 C340 1.526 . S
C343 C344 1.396 . S
C343 C348 1.390 . S
C344 C338 1.465 . S
C344 C343 1.396 . S
C344 C345 1.399 . S
C345 H331 0.929 . S
C345 C344 1.399 . S
C345 C346 1.385 . S
C346 H332 0.931 . S
C346 C345 1.385 . S
C346 C347 1.389 . S
C347 C346 1.389 . S
C347 C348 1.387 . S
C348 H333 0.930 . S
C348 C343 1.390 . S
C348 C347 1.387 . S
H349 C361 0.930 . S
H350 C363 0.930 . S
H351 C364 0.930 . S
H352 C368 0.959 . S
H353 C368 0.959 . S
H354 C368 0.961 . S
H355 C369 0.960 . S
H356 C369 0.961 . S
H357 C369 0.959 . S
H358 C372 0.929 . S
H359 C373 0.931 . S
H360 C375 0.930 . S
C361 H349 0.930 . S
C361 C362 1.399 . S
C361 C366 1.399 . S
C362 C361 1.399 . S
C362 C363 1.376 . S
C363 H350 0.930 . S
C363 C362 1.376 . S
C363 C364 1.388 . S
C364 H351 0.930 . S
C364 C363 1.388 . S
C364 C365 1.390 . S
C365 C364 1.390 . S
C365 C366 1.394 . S
C365 C371 1.465 . S
C366 C361 1.399 . S
C366 C365 1.394 . S
C366 C367 1.516 . S
C367 C366 1.516 . S
C367 C368 1.502 . S
C367 C369 1.561 . S
C367 C370 1.526 . S
C368 H352 0.959 . S
C368 H353 0.959 . S
C368 H354 0.961 . S
C368 C367 1.502 . S
C369 H355 0.960 . S
C369 H356 0.961 . S
C369 H357 0.959 . S
C369 C367 1.561 . S
C370 C367 1.526 . S
C370 C371 1.396 . S
C370 C375 1.390 . S
C371 C365 1.465 . S
C371 C370 1.396 . S
C371 C372 1.399 . S
C372 H358 0.929 . S
C372 C371 1.399 . S
C372 C373 1.385 . S
C373 H359 0.931 . S
C373 C372 1.385 . S
C373 C374 1.389 . S
C374 C373 1.389 . S
C374 C375 1.387 . S
C375 H360 0.930 . S
C375 C370 1.390 . S
C375 C374 1.387 . S
H376 C388 0.930 . S
H377 C390 0.930 1_554 S
H378 C391 0.930 . S
H379 C395 0.959 . S
H380 C395 0.959 . S
H381 C395 0.961 . S
H382 C396 0.960 . S
H383 C396 0.961 . S
H384 C396 0.959 . S
H385 C399 0.929 . S
H386 C400 0.931 . S
H387 C402 0.930 . S
C388 H376 0.930 . S
C388 C389 1.399 . S
C388 C393 1.399 . S
C389 C388 1.399 . S
C389 C390 1.376 . S
C390 H377 0.930 1_556 S
C390 C389 1.376 . S
C390 C391 1.388 . S
C391 H378 0.930 . S
C391 C390 1.388 . S
C391 C392 1.390 . S
C392 C391 1.390 . S
C392 C393 1.394 . S
C392 C398 1.465 . S
C393 C388 1.399 . S
C393 C392 1.394 . S
C393 C394 1.516 . S
C394 C393 1.516 . S
C394 C395 1.502 . S
C394 C396 1.561 . S
C394 C397 1.526 . S
C395 H379 0.959 . S
C395 H380 0.959 . S
C395 H381 0.961 . S
C395 C394 1.502 . S
C396 H382 0.960 . S
C396 H383 0.961 . S
C396 H384 0.959 . S
C396 C394 1.561 . S
C397 C394 1.526 . S
C397 C398 1.396 . S
C397 C402 1.390 . S
C398 C392 1.465 . S
C398 C397 1.396 . S
C398 C399 1.399 . S
C399 H385 0.929 . S
C399 C398 1.399 . S
C399 C400 1.385 . S
C400 H386 0.931 . S
C400 C399 1.385 . S
C400 C401 1.389 . S
C401 C400 1.389 . S
C401 C402 1.387 . S
C402 H387 0.930 . S
C402 C397 1.390 . S
C402 C401 1.387 . S
H403 C415 0.930 . S
H404 C417 0.930 . S
H405 C418 0.930 . S
H406 C422 0.959 . S
H407 C422 0.959 . S
H408 C422 0.961 . S
H409 C423 0.960 . S
H410 C423 0.961 . S
H411 C423 0.959 . S
H412 C426 0.929 . S
H413 C427 0.931 . S
H414 C429 0.930 . S
C415 H403 0.930 . S
C415 C416 1.399 . S
C415 C420 1.399 . S
C416 C415 1.399 . S
C416 C417 1.376 . S
C417 H404 0.930 . S
C417 C416 1.376 . S
C417 C418 1.388 . S
C418 H405 0.930 . S
C418 C417 1.388 . S
C418 C419 1.390 . S
C419 C418 1.390 . S
C419 C420 1.394 . S
C419 C425 1.465 . S
C420 C415 1.399 . S
C420 C419 1.394 . S
C420 C421 1.516 . S
C421 C420 1.516 . S
C421 C422 1.502 . S
C421 C423 1.561 . S
C421 C424 1.526 . S
C422 H406 0.959 . S
C422 H407 0.959 . S
C422 H408 0.961 . S
C422 C421 1.502 . S
C423 H409 0.960 . S
C423 H410 0.961 . S
C423 H411 0.959 . S
C423 C421 1.561 . S
C424 C421 1.526 . S
C424 C425 1.396 . S
C424 C429 1.390 . S
C425 C419 1.465 . S
C425 C424 1.396 . S
C425 C426 1.399 . S
C426 H412 0.929 . S
C426 C425 1.399 . S
C426 C427 1.385 . S
C427 H413 0.931 . S
C427 C426 1.385 . S
C427 C428 1.389 . S
C428 C427 1.389 . S
C428 C429 1.387 . S
C429 H414 0.930 . S
C429 C424 1.390 . S
C429 C428 1.387 . S
H430 C442 0.930 1_554 S
H431 C444 0.930 . S
H432 C445 0.930 . S
H433 C449 0.959 . S
H434 C449 0.959 . S
H435 C449 0.961 1_554 S
H436 C450 0.954 1_554 S
H437 C450 0.959 1_554 S
H438 C450 0.961 . S
H439 C453 0.929 . S
H440 C454 0.931 . S
H441 C456 0.930 . S
C442 H430 0.930 1_556 S
C442 C443 1.399 . S
C442 C447 1.399 . S
C443 C442 1.399 . S
C443 C444 1.376 . S
C444 H431 0.930 . S
C444 C443 1.376 . S
C444 C445 1.388 . S
C445 H432 0.930 . S
C445 C444 1.388 . S
C445 C446 1.390 . S
C446 C445 1.390 . S
C446 C447 1.394 . S
C446 C452 1.465 . S
C447 C442 1.399 . S
C447 C446 1.394 . S
C447 C448 1.516 . S
C448 C447 1.516 . S
C448 C449 1.502 . S
C448 C450 1.566 . S
C448 C451 1.526 . S
C449 H433 0.959 . S
C449 H434 0.959 . S
C449 H435 0.961 1_556 S
C449 C448 1.502 . S
C450 H436 0.954 1_556 S
C450 H437 0.959 1_556 S
C450 H438 0.961 . S
C450 C448 1.566 . S
C451 C448 1.526 . S
C451 C452 1.396 . S
C451 C456 1.390 . S
C452 C446 1.465 . S
C452 C451 1.396 . S
C452 C453 1.399 . S
C453 H439 0.929 . S
C453 C452 1.399 . S
C453 C454 1.385 . S
C454 H440 0.931 . S
C454 C453 1.385 . S
C454 C455 1.389 . S
C455 C454 1.389 . S
C455 C456 1.387 . S
C456 H441 0.930 . S
C456 C451 1.390 . S
C456 C455 1.387 . S
H457 C469 0.930 . S
H458 C471 0.930 . S
H459 C472 0.930 . S
H460 C476 0.959 . S
H461 C476 0.959 . S
H462 C476 0.961 . S
H463 C477 0.960 . S
H464 C477 0.961 . S
H465 C477 0.959 . S
H466 C480 0.929 . S
H467 C481 0.931 . S
H468 C483 0.930 . S
C469 H457 0.930 . S
C469 C470 1.399 . S
C469 C474 1.399 . S
C470 C469 1.399 . S
C470 C471 1.376 . S
C471 H458 0.930 . S
C471 C470 1.376 . S
C471 C472 1.388 . S
C472 H459 0.930 . S
C472 C471 1.388 . S
C472 C473 1.390 . S
C473 C472 1.390 . S
C473 C474 1.394 . S
C473 C479 1.465 . S
C474 C469 1.399 . S
C474 C473 1.394 . S
C474 C475 1.516 . S
C475 C474 1.516 . S
C475 C476 1.502 . S
C475 C477 1.561 . S
C475 C478 1.526 . S
C476 H460 0.959 . S
C476 H461 0.959 . S
C476 H462 0.961 . S
C476 C475 1.502 . S
C477 H463 0.960 . S
C477 H464 0.961 . S
C477 H465 0.959 . S
C477 C475 1.561 . S
C478 C475 1.526 . S
C478 C479 1.396 . S
C478 C483 1.390 . S
C479 C473 1.465 . S
C479 C478 1.396 . S
C479 C480 1.399 . S
C480 H466 0.929 . S
C480 C479 1.399 . S
C480 C481 1.385 . S
C481 H467 0.931 . S
C481 C480 1.385 . S
C481 C482 1.389 . S
C482 C481 1.389 . S
C482 C483 1.387 . S
C483 H468 0.930 . S
C483 C478 1.390 . S
C483 C482 1.387 . S
H484 C496 0.915 1_545 S
H485 C498 0.930 . S
H486 C499 0.930 . S
H487 C503 0.959 . S
H488 C503 0.959 . S
H489 C503 0.961 . S
H490 C504 0.960 1_554 S
H491 C504 0.961 . S
H492 C504 0.961 . S
H493 C507 0.929 1_565 S
H494 C508 0.931 . S
H495 C510 0.930 . S
C496 H484 0.915 1_565 S
C496 C497 1.428 . S
C496 C501 1.385 1_565 S
C497 C496 1.428 . S
C497 C498 1.376 . S
C498 H485 0.930 . S
C498 C497 1.376 . S
C498 C499 1.388 . S
C499 H486 0.930 . S
C499 C498 1.388 . S
C499 C500 1.390 . S
C500 C499 1.390 . S
C500 C501 1.394 1_565 S
C500 C506 1.465 1_565 S
C501 C496 1.385 1_545 S
C501 C500 1.394 1_545 S
C501 C502 1.516 . S
C502 C501 1.516 . S
C502 C503 1.502 . S
C502 C504 1.561 . S
C502 C505 1.526 . S
C503 H487 0.959 . S
C503 H488 0.959 . S
C503 H489 0.961 . S
C503 C502 1.502 . S
C504 H490 0.960 1_556 S
C504 H491 0.961 . S
C504 H492 0.961 . S
C504 C502 1.561 . S
C505 C502 1.526 . S
C505 C506 1.396 . S
C505 C510 1.390 . S
C506 C500 1.465 1_545 S
C506 C505 1.396 . S
C506 C507 1.399 . S
C507 H493 0.929 1_545 S
C507 C506 1.399 . S
C507 C508 1.385 . S
C508 H494 0.931 . S
C508 C507 1.385 . S
C508 C509 1.389 . S
C509 C508 1.389 . S
C509 C510 1.387 . S
C510 H495 0.930 . S
C510 C505 1.390 . S
C510 C509 1.387 . S
H511 C523 0.930 1_565 S
H512 C525 0.930 . S
H513 C526 0.930 . S
H514 C530 0.959 . S
H515 C530 0.959 . S
H516 C530 0.961 . S
H517 C531 0.960 . S
H518 C531 0.961 . S
H519 C531 0.959 . S
H520 C534 0.929 1_545 S
H521 C535 0.931 . S
H522 C537 0.930 . S
C523 H511 0.930 1_545 S
C523 C524 1.399 . S
C523 C528 1.399 1_545 S
C524 C523 1.399 . S
C524 C525 1.376 . S
C525 H512 0.930 . S
C525 C524 1.376 . S
C525 C526 1.388 . S
C526 H513 0.930 . S
C526 C525 1.388 . S
C526 C527 1.390 . S
C527 C526 1.390 . S
C527 C528 1.394 1_545 S
C527 C533 1.465 1_545 S
C528 C523 1.399 1_565 S
C528 C527 1.394 1_565 S
C528 C529 1.516 . S
C529 C528 1.516 . S
C529 C530 1.502 . S
C529 C531 1.561 . S
C529 C532 1.526 . S
C530 H514 0.959 . S
C530 H515 0.959 . S
C530 H516 0.961 . S
C530 C529 1.502 . S
C531 H517 0.960 . S
C531 H518 0.961 . S
C531 H519 0.959 . S
C531 C529 1.561 . S
C532 C529 1.526 . S
C532 C533 1.396 . S
C532 C537 1.390 . S
C533 C527 1.465 1_565 S
C533 C532 1.396 . S
C533 C534 1.399 . S
C534 H520 0.929 1_565 S
C534 C533 1.399 . S
C534 C535 1.385 . S
C535 H521 0.931 . S
C535 C534 1.385 . S
C535 C536 1.389 . S
C536 C535 1.389 . S
C536 C537 1.387 . S
C537 H522 0.930 . S
C537 C532 1.390 . S
C537 C536 1.387 . S
H538 C550 0.930 1_554 S
H539 C552 0.930 . S
H540 C553 0.930 . S
H541 C557 0.959 . S
H542 C557 0.959 1_554 S
H543 C557 0.961 1_554 S
H544 C558 0.960 1_554 S
H545 C558 0.961 . S
H546 C558 0.959 . S
H547 C561 0.929 . S
H548 C562 0.931 . S
H549 C564 0.930 . S
C550 H538 0.930 1_556 S
C550 C551 1.399 . S
C550 C555 1.399 1_565 S
C551 C550 1.399 . S
C551 C552 1.376 . S
C552 H539 0.930 . S
C552 C551 1.376 . S
C552 C553 1.388 . S
C553 H540 0.930 . S
C553 C552 1.388 . S
C553 C554 1.390 1_565 S
C554 C553 1.390 1_545 S
C554 C555 1.394 . S
C554 C560 1.465 . S
C555 C550 1.399 1_545 S
C555 C554 1.394 . S
C555 C556 1.516 . S
C556 C555 1.516 . S
C556 C557 1.502 . S
C556 C558 1.561 . S
C556 C559 1.526 . S
C557 H541 0.959 . S
C557 H542 0.959 1_556 S
C557 H543 0.961 1_556 S
C557 C556 1.502 . S
C558 H544 0.960 1_556 S
C558 H545 0.961 . S
C558 H546 0.959 . S
C558 C556 1.561 . S
C559 C556 1.526 . S
C559 C560 1.396 . S
C559 C564 1.390 . S
C560 C554 1.465 . S
C560 C559 1.396 . S
C560 C561 1.399 . S
C561 H547 0.929 . S
C561 C560 1.399 . S
C561 C562 1.385 . S
C562 H548 0.931 . S
C562 C561 1.385 . S
C562 C563 1.389 . S
C563 C562 1.389 . S
C563 C564 1.387 . S
C564 H549 0.930 . S
C564 C559 1.390 . S
C564 C563 1.387 . S
H565 C577 0.923 1_565 S
H566 C579 0.930 . S
H567 C580 0.930 . S
H568 C584 0.959 . S
H569 C584 0.959 . S
H570 C584 0.961 . S
H571 C585 0.960 . S
H572 C585 0.961 . S
H573 C585 0.959 . S
H574 C588 0.929 . S
H575 C589 0.931 . S
H576 C591 0.930 . S
C577 H565 0.923 1_545 S
C577 C578 1.399 . S
C577 C582 1.399 1_545 S
C578 C577 1.399 . S
C578 C579 1.376 . S
C579 H566 0.930 . S
C579 C578 1.376 . S
C579 C580 1.388 . S
C580 H567 0.930 . S
C580 C579 1.388 . S
C580 C581 1.364 1_545 S
C581 C580 1.364 1_565 S
C581 C582 1.404 . S
C581 C587 1.487 . S
C582 C577 1.399 1_565 S
C582 C581 1.404 . S
C582 C583 1.516 . S
C583 C582 1.516 . S
C583 C584 1.502 . S
C583 C585 1.561 . S
C583 C586 1.526 . S
C584 H568 0.959 . S
C584 H569 0.959 . S
C584 H570 0.961 . S
C584 C583 1.502 . S
C585 H571 0.960 . S
C585 H572 0.961 . S
C585 H573 0.959 . S
C585 C583 1.561 . S
C586 C583 1.526 . S
C586 C587 1.396 . S
C586 C591 1.390 . S
C587 C581 1.487 . S
C587 C586 1.396 . S
C587 C588 1.399 . S
C588 H574 0.929 . S
C588 C587 1.399 . S
C588 C589 1.385 . S
C589 H575 0.931 . S
C589 C588 1.385 . S
C589 C590 1.389 . S
C590 C589 1.389 . S
C590 C591 1.387 . S
C591 H576 0.930 . S
C591 C586 1.390 . S
C591 C590 1.387 . S
H592 C604 0.930 . S
H593 C606 0.930 . S
H594 C607 0.930 . S
H595 C611 0.959 . S
H596 C611 0.959 . S
H597 C611 0.961 . S
H598 C612 0.960 . S
H599 C612 0.961 . S
H600 C612 0.959 . S
H601 C615 0.929 . S
H602 C616 0.931 . S
H603 C618 0.930 . S
C604 H592 0.930 . S
C604 C605 1.399 . S
C604 C609 1.399 . S
C605 C604 1.399 . S
C605 C606 1.376 . S
C606 H593 0.930 . S
C606 C605 1.376 . S
C606 C607 1.388 . S
C607 H594 0.930 . S
C607 C606 1.388 . S
C607 C608 1.390 . S
C608 C607 1.390 . S
C608 C609 1.394 . S
C608 C614 1.465 . S
C609 C604 1.399 . S
C609 C608 1.394 . S
C609 C610 1.516 . S
C610 C609 1.516 . S
C610 C611 1.502 . S
C610 C612 1.561 . S
C610 C613 1.526 . S
C611 H595 0.959 . S
C611 H596 0.959 . S
C611 H597 0.961 . S
C611 C610 1.502 . S
C612 H598 0.960 . S
C612 H599 0.961 . S
C612 H600 0.959 . S
C612 C610 1.561 . S
C613 C610 1.526 . S
C613 C614 1.396 . S
C613 C618 1.390 . S
C614 C608 1.465 . S
C614 C613 1.396 . S
C614 C615 1.399 . S
C615 H601 0.929 . S
C615 C614 1.399 . S
C615 C616 1.385 . S
C616 H602 0.931 . S
C616 C615 1.385 . S
C616 C617 1.389 . S
C617 C616 1.389 . S
C617 C618 1.387 . S
C618 H603 0.930 . S
C618 C613 1.390 . S
C618 C617 1.387 . S
H619 C631 0.930 . S
H620 C633 0.930 . S
H621 C634 0.930 . S
H622 C638 0.959 . S
H623 C638 0.959 . S
H624 C638 0.961 . S
H625 C639 0.960 . S
H626 C639 0.961 . S
H627 C639 0.959 . S
H628 C642 0.929 . S
H629 C643 0.931 . S
H630 C645 0.930 . S
C631 H619 0.930 . S
C631 C632 1.399 . S
C631 C636 1.399 . S
C632 C631 1.399 . S
C632 C633 1.376 . S
C633 H620 0.930 . S
C633 C632 1.376 . S
C633 C634 1.388 . S
C634 H621 0.930 . S
C634 C633 1.388 . S
C634 C635 1.390 . S
C635 C634 1.390 . S
C635 C636 1.394 . S
C635 C641 1.465 . S
C636 C631 1.399 . S
C636 C635 1.394 . S
C636 C637 1.516 . S
C637 C636 1.516 . S
C637 C638 1.502 . S
C637 C639 1.561 . S
C637 C640 1.526 . S
C638 H622 0.959 . S
C638 H623 0.959 . S
C638 H624 0.961 . S
C638 C637 1.502 . S
C639 H625 0.960 . S
C639 H626 0.961 . S
C639 H627 0.959 . S
C639 C637 1.561 . S
C640 C637 1.526 . S
C640 C641 1.396 . S
C640 C645 1.390 . S
C641 C635 1.465 . S
C641 C640 1.396 . S
C641 C642 1.399 . S
C642 H628 0.929 . S
C642 C641 1.399 . S
C642 C643 1.385 . S
C643 H629 0.931 . S
C643 C642 1.385 . S
C643 C644 1.389 . S
C644 C643 1.389 . S
C644 C645 1.387 . S
C645 H630 0.930 . S
C645 C640 1.390 . S
C645 C644 1.387 . S
H646 C658 0.930 . S
H647 C660 0.930 . S
H648 C661 0.930 . S
H649 C665 0.959 . S
H650 C665 0.959 . S
H651 C665 0.961 . S
H652 C666 0.960 . S
H653 C666 0.961 . S
H654 C666 0.959 . S
H655 C669 0.929 . S
H656 C670 0.931 . S
H657 C672 0.930 . S
C658 H646 0.930 . S
C658 C659 1.399 . S
C658 C663 1.399 . S
C659 C658 1.399 . S
C659 C660 1.376 . S
C660 H647 0.930 . S
C660 C659 1.376 . S
C660 C661 1.388 . S
C661 H648 0.930 . S
C661 C660 1.388 . S
C661 C662 1.390 . S
C662 C661 1.390 . S
C662 C663 1.394 . S
C662 C668 1.465 . S
C663 C658 1.399 . S
C663 C662 1.394 . S
C663 C664 1.516 . S
C664 C663 1.516 . S
C664 C665 1.502 . S
C664 C666 1.561 . S
C664 C667 1.526 . S
C665 H649 0.959 . S
C665 H650 0.959 . S
C665 H651 0.961 . S
C665 C664 1.502 . S
C666 H652 0.960 . S
C666 H653 0.961 . S
C666 H654 0.959 . S
C666 C664 1.561 . S
C667 C664 1.526 . S
C667 C668 1.396 . S
C667 C672 1.390 . S
C668 C662 1.465 . S
C668 C667 1.396 . S
C668 C669 1.399 . S
C669 H655 0.929 . S
C669 C668 1.399 . S
C669 C670 1.385 . S
C670 H656 0.931 . S
C670 C669 1.385 . S
C670 C671 1.389 . S
C671 C670 1.389 . S
C671 C672 1.387 . S
C672 H657 0.930 . S
C672 C667 1.390 . S
C672 C671 1.387 . S
H673 C685 0.930 . S
H674 C687 0.930 . S
H675 C688 0.930 . S
H676 C692 0.959 . S
H677 C692 0.959 . S
H678 C692 0.961 . S
H679 C693 0.960 . S
H680 C693 0.961 . S
H681 C693 0.959 . S
H682 C696 0.929 . S
H683 C697 0.931 . S
H684 C699 0.930 . S
C685 H673 0.930 . S
C685 C686 1.399 . S
C685 C690 1.399 . S
C686 C685 1.399 . S
C686 C687 1.376 . S
C687 H674 0.930 . S
C687 C686 1.376 . S
C687 C688 1.388 . S
C688 H675 0.930 . S
C688 C687 1.388 . S
C688 C689 1.390 . S
C689 C688 1.390 . S
C689 C690 1.394 . S
C689 C695 1.465 . S
C690 C685 1.399 . S
C690 C689 1.394 . S
C690 C691 1.516 . S
C691 C690 1.516 . S
C691 C692 1.502 . S
C691 C693 1.561 . S
C691 C694 1.526 . S
C692 H676 0.959 . S
C692 H677 0.959 . S
C692 H678 0.961 . S
C692 C691 1.502 . S
C693 H679 0.960 . S
C693 H680 0.961 . S
C693 H681 0.959 . S
C693 C691 1.561 . S
C694 C691 1.526 . S
C694 C695 1.396 . S
C694 C699 1.390 . S
C695 C689 1.465 . S
C695 C694 1.396 . S
C695 C696 1.399 . S
C696 H682 0.929 . S
C696 C695 1.399 . S
C696 C697 1.385 . S
C697 H683 0.931 . S
C697 C696 1.385 . S
C697 C698 1.389 . S
C698 C697 1.389 . S
C698 C699 1.387 . S
C699 H684 0.930 . S
C699 C694 1.390 . S
C699 C698 1.387 . S
H700 C712 0.930 . S
H701 C714 0.930 . S
H702 C715 0.930 . S
H703 C719 0.959 . S
H704 C719 0.959 . S
H705 C719 0.961 . S
H706 C720 0.960 . S
H707 C720 0.961 . S
H708 C720 0.959 . S
H709 C723 0.929 . S
H710 C724 0.931 . S
H711 C726 0.930 . S
C712 H700 0.930 . S
C712 C713 1.399 . S
C712 C717 1.399 . S
C713 C712 1.399 . S
C713 C714 1.376 . S
C714 H701 0.930 . S
C714 C713 1.376 . S
C714 C715 1.388 . S
C715 H702 0.930 . S
C715 C714 1.388 . S
C715 C716 1.390 . S
C716 C715 1.390 . S
C716 C717 1.394 . S
C716 C722 1.465 . S
C717 C712 1.399 . S
C717 C716 1.394 . S
C717 C718 1.516 . S
C718 C717 1.516 . S
C718 C719 1.502 . S
C718 C720 1.561 . S
C718 C721 1.526 . S
C719 H703 0.959 . S
C719 H704 0.959 . S
C719 H705 0.961 . S
C719 C718 1.502 . S
C720 H706 0.960 . S
C720 H707 0.961 . S
C720 H708 0.959 . S
C720 C718 1.561 . S
C721 C718 1.526 . S
C721 C722 1.396 . S
C721 C726 1.390 . S
C722 C716 1.465 . S
C722 C721 1.396 . S
C722 C723 1.399 . S
C723 H709 0.929 . S
C723 C722 1.399 . S
C723 C724 1.385 . S
C724 H710 0.931 . S
C724 C723 1.385 . S
C724 C725 1.389 . S
C725 C724 1.389 . S
C725 C726 1.387 . S
C726 H711 0.930 . S
C726 C721 1.390 . S
C726 C725 1.387 . S
H727 C739 0.930 . S
H728 C741 0.930 . S
H729 C742 0.930 . S
H730 C746 0.959 . S
H731 C746 0.959 . S
H732 C746 0.961 . S
H733 C747 0.960 . S
H734 C747 0.961 . S
H735 C747 0.959 . S
H736 C750 0.929 . S
H737 C751 0.931 . S
H738 C753 0.930 . S
C739 H727 0.930 . S
C739 C740 1.399 . S
C739 C744 1.399 . S
C740 C739 1.399 . S
C740 C741 1.376 . S
C741 H728 0.930 . S
C741 C740 1.376 . S
C741 C742 1.388 . S
C742 H729 0.930 . S
C742 C741 1.388 . S
C742 C743 1.390 . S
C743 C742 1.390 . S
C743 C744 1.394 . S
C743 C749 1.465 . S
C744 C739 1.399 . S
C744 C743 1.394 . S
C744 C745 1.516 . S
C745 C744 1.516 . S
C745 C746 1.502 . S
C745 C747 1.561 . S
C745 C748 1.526 . S
C746 H730 0.959 . S
C746 H731 0.959 . S
C746 H732 0.961 . S
C746 C745 1.502 . S
C747 H733 0.960 . S
C747 H734 0.961 . S
C747 H735 0.959 . S
C747 C745 1.561 . S
C748 C745 1.526 . S
C748 C749 1.396 . S
C748 C753 1.390 . S
C749 C743 1.465 . S
C749 C748 1.396 . S
C749 C750 1.399 . S
C750 H736 0.929 . S
C750 C749 1.399 . S
C750 C751 1.385 . S
C751 H737 0.931 . S
C751 C750 1.385 . S
C751 C752 1.389 . S
C752 C751 1.389 . S
C752 C753 1.387 . S
C753 H738 0.930 . S
C753 C748 1.390 . S
C753 C752 1.387 . S
H754 C766 0.930 . S
H755 C768 0.930 . S
H756 C769 0.930 . S
H757 C773 0.959 . S
H758 C773 0.959 . S
H759 C773 0.961 . S
H760 C774 0.960 . S
H761 C774 0.961 . S
H762 C774 0.959 . S
H763 C777 0.929 . S
H764 C778 0.931 . S
H765 C780 0.930 . S
C766 H754 0.930 . S
C766 C767 1.399 . S
C766 C771 1.399 . S
C767 C766 1.399 . S
C767 C768 1.376 . S
C768 H755 0.930 . S
C768 C767 1.376 . S
C768 C769 1.388 . S
C769 H756 0.930 . S
C769 C768 1.388 . S
C769 C770 1.390 . S
C770 C769 1.390 . S
C770 C771 1.394 . S
C770 C776 1.465 . S
C771 C766 1.399 . S
C771 C770 1.394 . S
C771 C772 1.516 . S
C772 C771 1.516 . S
C772 C773 1.502 . S
C772 C774 1.561 . S
C772 C775 1.526 . S
C773 H757 0.959 . S
C773 H758 0.959 . S
C773 H759 0.961 . S
C773 C772 1.502 . S
C774 H760 0.960 . S
C774 H761 0.961 . S
C774 H762 0.959 . S
C774 C772 1.561 . S
C775 C772 1.526 . S
C775 C776 1.396 . S
C775 C780 1.390 . S
C776 C770 1.465 . S
C776 C775 1.396 . S
C776 C777 1.399 . S
C777 H763 0.929 . S
C777 C776 1.399 . S
C777 C778 1.385 . S
C778 H764 0.931 . S
C778 C777 1.385 . S
C778 C779 1.389 . S
C779 C778 1.389 . S
C779 C780 1.387 . S
C780 H765 0.930 . S
C780 C775 1.390 . S
C780 C779 1.387 . S
H781 C793 0.930 . S
H782 C795 0.930 . S
H783 C796 0.930 . S
H784 C800 0.959 . S
H785 C800 0.959 . S
H786 C800 0.961 . S
H787 C801 0.960 . S
H788 C801 0.961 . S
H789 C801 0.959 . S
H790 C804 0.929 . S
H791 C805 0.931 . S
H792 C807 0.930 . S
C793 H781 0.930 . S
C793 C794 1.399 . S
C793 C798 1.399 . S
C794 C793 1.399 . S
C794 C795 1.376 . S
C795 H782 0.930 . S
C795 C794 1.376 . S
C795 C796 1.388 . S
C796 H783 0.930 . S
C796 C795 1.388 . S
C796 C797 1.390 . S
C797 C796 1.390 . S
C797 C798 1.394 . S
C797 C803 1.465 . S
C798 C793 1.399 . S
C798 C797 1.394 . S
C798 C799 1.516 . S
C799 C798 1.516 . S
C799 C800 1.502 . S
C799 C801 1.561 . S
C799 C802 1.526 . S
C800 H784 0.959 . S
C800 H785 0.959 . S
C800 H786 0.961 . S
C800 C799 1.502 . S
C801 H787 0.960 . S
C801 H788 0.961 . S
C801 H789 0.959 . S
C801 C799 1.561 . S
C802 C799 1.526 . S
C802 C803 1.396 . S
C802 C807 1.390 . S
C803 C797 1.465 . S
C803 C802 1.396 . S
C803 C804 1.399 . S
C804 H790 0.929 . S
C804 C803 1.399 . S
C804 C805 1.385 . S
C805 H791 0.931 . S
C805 C804 1.385 . S
C805 C806 1.389 . S
C806 C805 1.389 . S
C806 C807 1.387 . S
C807 H792 0.930 . S
C807 C802 1.390 . S
C807 C806 1.387 . S
C173 C7 1.514 . S
C185 C98 1.455 . S
C212 C76 1.474 . S
C200 C16 1.503 . S
C239 C102 1.450 . S
C227 C25 1.516 . S
C266 C80 1.487 . S
C254 C34 1.505 . S
C293 C142 1.505 . S
C281 C43 1.489 . S
C320 C120 1.462 . S
C308 C52 1.510 . S
C335 C61 1.516 . S
C347 C146 1.452 . S
C374 C124 1.496 . S
C362 C70 1.490 . S
C389 C5 1.485 . S
C401 C147 1.471 . S
C428 C125 1.481 . S
C416 C14 1.490 . S
C443 C22 1.488 . S
C455 C144 1.476 . S
C470 C32 1.460 . S
C482 C122 1.450 . S
C509 C103 1.435 . S
C497 C41 1.458 . S
C524 C50 1.459 . S
C536 C81 1.437 . S
C563 C100 1.468 . S
C551 C58 1.485 . S
C590 C78 1.430 . S
C578 C68 1.453 . S
C617 C121 1.412 . S
C605 C4 1.440 . S
C644 C143 1.410 . S
C632 C13 1.442 . S
C659 C23 1.447 . S
C671 C123 1.440 . S
C698 C145 1.436 . S
C686 C31 1.471 . S
C725 C77 1.461 . S
C713 C40 1.469 . S
C740 C49 1.459 . S
C752 C99 1.446 . S
C767 C59 1.473 . S
C779 C79 1.441 . S
C794 C67 1.444 . S
C806 C101 1.447 . S
