# Generated by pormake.
# Topology eea, (3,6)-cn, num edge types: 1
# Building blocks:
#     Node 0, Type 0, BuildingBlock: ESEHIV_clean_linker_0, # of connection points: 3
#     Node 1, Type 0, BuildingBlock: ESEHIV_clean_linker_0, # of connection points: 3
#     Node 2, Type 0, BuildingBlock: ESEHIV_clean_linker_0, # of connection points: 3
#     Node 3, Type 0, BuildingBlock: ESEHIV_clean_linker_0, # of connection points: 3
#     Node 4, Type 0, BuildingBlock: ESEHIV_clean_linker_0, # of connection points: 3
#     Node 5, Type 0, BuildingBlock: ESEHIV_clean_linker_0, # of connection points: 3
#     Node 6, Type 0, BuildingBlock: ESEHIV_clean_linker_0, # of connection points: 3
#     Node 7, Type 0, BuildingBlock: ESEHIV_clean_linker_0, # of connection points: 3
#     Node 8, Type 0, BuildingBlock: ESEHIV_clean_linker_0, # of connection points: 3
#     Node 9, Type 0, BuildingBlock: ESEHIV_clean_linker_0, # of connection points: 3
#     Node 10, Type 0, BuildingBlock: ESEHIV_clean_linker_0, # of connection points: 3
#     Node 11, Type 0, BuildingBlock: ESEHIV_clean_linker_0, # of connection points: 3
#     Node 12, Type 0, BuildingBlock: ESEHIV_clean_linker_0, # of connection points: 3
#     Node 13, Type 0, BuildingBlock: ESEHIV_clean_linker_0, # of connection points: 3
#     Node 14, Type 0, BuildingBlock: ESEHIV_clean_linker_0, # of connection points: 3
#     Node 15, Type 0, BuildingBlock: ESEHIV_clean_linker_0, # of connection points: 3
#     Node 16, Type 0, BuildingBlock: ESEHIV_clean_linker_0, # of connection points: 3
#     Node 17, Type 0, BuildingBlock: ESEHIV_clean_linker_0, # of connection points: 3
#     Node 18, Type 1, BuildingBlock: KUMJIN_clean_sbu_0, # of connection points: 6
#     Node 19, Type 1, BuildingBlock: KUMJIN_clean_sbu_0, # of connection points: 6
#     Node 20, Type 1, BuildingBlock: KUMJIN_clean_sbu_0, # of connection points: 6
#     Node 21, Type 1, BuildingBlock: KUMJIN_clean_sbu_0, # of connection points: 6
#     Node 22, Type 1, BuildingBlock: KUMJIN_clean_sbu_0, # of connection points: 6
#     Node 23, Type 1, BuildingBlock: KUMJIN_clean_sbu_0, # of connection points: 6
#     Node 24, Type 1, BuildingBlock: KUMJIN_clean_sbu_0, # of connection points: 6
#     Node 25, Type 1, BuildingBlock: KUMJIN_clean_sbu_0, # of connection points: 6
#     Node 26, Type 1, BuildingBlock: KUMJIN_clean_sbu_0, # of connection points: 6
#     Edge 27, Type (0, 1), BuildingBlock: XIVTED_clean_linker_0, # of connection points: 2
#     Edge 28, Type (0, 1), BuildingBlock: XIVTED_clean_linker_0, # of connection points: 2
#     Edge 29, Type (0, 1), BuildingBlock: XIVTED_clean_linker_0, # of connection points: 2
#     Edge 30, Type (0, 1), BuildingBlock: XIVTED_clean_linker_0, # of connection points: 2
#     Edge 31, Type (0, 1), BuildingBlock: XIVTED_clean_linker_0, # of connection points: 2
#     Edge 32, Type (0, 1), BuildingBlock: XIVTED_clean_linker_0, # of connection points: 2
#     Edge 33, Type (0, 1), BuildingBlock: XIVTED_clean_linker_0, # of connection points: 2
#     Edge 34, Type (0, 1), BuildingBlock: XIVTED_clean_linker_0, # of connection points: 2
#     Edge 35, Type (0, 1), BuildingBlock: XIVTED_clean_linker_0, # of connection points: 2
#     Edge 36, Type (0, 1), BuildingBlock: XIVTED_clean_linker_0, # of connection points: 2
#     Edge 37, Type (0, 1), BuildingBlock: XIVTED_clean_linker_0, # of connection points: 2
#     Edge 38, Type (0, 1), BuildingBlock: XIVTED_clean_linker_0, # of connection points: 2
#     Edge 39, Type (0, 1), BuildingBlock: XIVTED_clean_linker_0, # of connection points: 2
#     Edge 40, Type (0, 1), BuildingBlock: XIVTED_clean_linker_0, # of connection points: 2
#     Edge 41, Type (0, 1), BuildingBlock: XIVTED_clean_linker_0, # of connection points: 2
#     Edge 42, Type (0, 1), BuildingBlock: XIVTED_clean_linker_0, # of connection points: 2
#     Edge 43, Type (0, 1), BuildingBlock: XIVTED_clean_linker_0, # of connection points: 2
#     Edge 44, Type (0, 1), BuildingBlock: XIVTED_clean_linker_0, # of connection points: 2
#     Edge 45, Type (0, 1), BuildingBlock: XIVTED_clean_linker_0, # of connection points: 2
#     Edge 46, Type (0, 1), BuildingBlock: XIVTED_clean_linker_0, # of connection points: 2
#     Edge 47, Type (0, 1), BuildingBlock: XIVTED_clean_linker_0, # of connection points: 2
#     Edge 48, Type (0, 1), BuildingBlock: XIVTED_clean_linker_0, # of connection points: 2
#     Edge 49, Type (0, 1), BuildingBlock: XIVTED_clean_linker_0, # of connection points: 2
#     Edge 50, Type (0, 1), BuildingBlock: XIVTED_clean_linker_0, # of connection points: 2
#     Edge 51, Type (0, 1), BuildingBlock: XIVTED_clean_linker_0, # of connection points: 2
#     Edge 52, Type (0, 1), BuildingBlock: XIVTED_clean_linker_0, # of connection points: 2
#     Edge 53, Type (0, 1), BuildingBlock: XIVTED_clean_linker_0, # of connection points: 2
#     Edge 54, Type (0, 1), BuildingBlock: XIVTED_clean_linker_0, # of connection points: 2
#     Edge 55, Type (0, 1), BuildingBlock: XIVTED_clean_linker_0, # of connection points: 2
#     Edge 56, Type (0, 1), BuildingBlock: XIVTED_clean_linker_0, # of connection points: 2
#     Edge 57, Type (0, 1), BuildingBlock: XIVTED_clean_linker_0, # of connection points: 2
#     Edge 58, Type (0, 1), BuildingBlock: XIVTED_clean_linker_0, # of connection points: 2
#     Edge 59, Type (0, 1), BuildingBlock: XIVTED_clean_linker_0, # of connection points: 2
#     Edge 60, Type (0, 1), BuildingBlock: XIVTED_clean_linker_0, # of connection points: 2
#     Edge 61, Type (0, 1), BuildingBlock: XIVTED_clean_linker_0, # of connection points: 2
#     Edge 62, Type (0, 1), BuildingBlock: XIVTED_clean_linker_0, # of connection points: 2
#     Edge 63, Type (0, 1), BuildingBlock: XIVTED_clean_linker_0, # of connection points: 2
#     Edge 64, Type (0, 1), BuildingBlock: XIVTED_clean_linker_0, # of connection points: 2
#     Edge 65, Type (0, 1), BuildingBlock: XIVTED_clean_linker_0, # of connection points: 2
#     Edge 66, Type (0, 1), BuildingBlock: XIVTED_clean_linker_0, # of connection points: 2
#     Edge 67, Type (0, 1), BuildingBlock: XIVTED_clean_linker_0, # of connection points: 2
#     Edge 68, Type (0, 1), BuildingBlock: XIVTED_clean_linker_0, # of connection points: 2
#     Edge 69, Type (0, 1), BuildingBlock: XIVTED_clean_linker_0, # of connection points: 2
#     Edge 70, Type (0, 1), BuildingBlock: XIVTED_clean_linker_0, # of connection points: 2
#     Edge 71, Type (0, 1), BuildingBlock: XIVTED_clean_linker_0, # of connection points: 2
#     Edge 72, Type (0, 1), BuildingBlock: XIVTED_clean_linker_0, # of connection points: 2
#     Edge 73, Type (0, 1), BuildingBlock: XIVTED_clean_linker_0, # of connection points: 2
#     Edge 74, Type (0, 1), BuildingBlock: XIVTED_clean_linker_0, # of connection points: 2
#     Edge 75, Type (0, 1), BuildingBlock: XIVTED_clean_linker_0, # of connection points: 2
#     Edge 76, Type (0, 1), BuildingBlock: XIVTED_clean_linker_0, # of connection points: 2
#     Edge 77, Type (0, 1), BuildingBlock: XIVTED_clean_linker_0, # of connection points: 2
#     Edge 78, Type (0, 1), BuildingBlock: XIVTED_clean_linker_0, # of connection points: 2
#     Edge 79, Type (0, 1), BuildingBlock: XIVTED_clean_linker_0, # of connection points: 2
#     Edge 80, Type (0, 1), BuildingBlock: XIVTED_clean_linker_0, # of connection points: 2
# Relax obj value: 0.008
# Max RMSD: 0.089
# Mean RMSD: 0.073
data_MOF--net-eea--node1-KUMJIN_clean_sbu_0--node2-ESEHIV_clean_linker_0--edge1-XIVTED_clean_linker_0
_symmetry_space_group_name_H-M    P1
_symmetry_Int_Tables_number       1
_symmetry_cell_setting            triclinic
loop_
_symmetry_equiv_pos_as_xyz
'x, y, z'
_cell_length_a     47.675317
_cell_length_b     49.040389
_cell_length_c     71.417968
_cell_angle_alpha  89.854342
_cell_angle_beta   89.841528
_cell_angle_gamma 119.93787
loop_
_atom_site_label
_atom_site_type_symbol
_atom_site_fract_x
_atom_site_fract_y
_atom_site_fract_z
_atom_type_partial_charge
H0 H 0.26157 0.16914 0.4484 0.0
H1 H 0.26016 0.08083 0.44738 0.0
H2 H 0.22181 0.10764 0.40102 0.0
C3 C 0.25585 0.14752 0.44124 0.0
C4 C 0.24035 0.1408 0.42376 0.0
C5 C 0.26305 0.12596 0.44983 0.0
C6 C 0.25472 0.09756 0.44077 0.0
C7 C 0.2396 0.09067 0.42322 0.0
C8 C 0.2326 0.11244 0.41482 0.0
H9 H 0.84016 0.08644 0.44421 0.0
H10 H 0.92594 0.17752 0.44168 0.0
H11 H 0.90524 0.11114 0.39725 0.0
C12 C 0.86224 0.10314 0.43706 0.0
C13 C 0.87022 0.09503 0.41979 0.0
C14 C 0.88221 0.13274 0.44513 0.0
C15 C 0.91056 0.15451 0.43565 0.0
C16 C 0.91896 0.14694 0.4183 0.0
C17 C 0.89882 0.11705 0.41059 0.0
H18 H 0.8357 0.75105 0.44289 0.0
H19 H 0.92589 0.75122 0.44086 0.0
H20 H 0.89639 0.786 0.39386 0.0
C21 C 0.85785 0.75651 0.43557 0.0
C22 C 0.86338 0.76955 0.41742 0.0
C23 C 0.88018 0.74975 0.44418 0.0
C24 C 0.90844 0.7562 0.43432 0.0
C25 C 0.91471 0.76951 0.41621 0.0
C26 C 0.89222 0.77653 0.40797 0.0
H27 H 0.0874 0.24793 0.58231 0.0
H28 H 0.17627 0.24544 0.58283 0.0
H29 H 0.11237 0.2115 0.63049 0.0
C30 C 0.10378 0.24193 0.58927 0.0
C31 C 0.09605 0.2285 0.60737 0.0
C32 C 0.13276 0.24833 0.58027 0.0
C33 C 0.15407 0.24101 0.58968 0.0
C34 C 0.14704 0.22776 0.60777 0.0
C35 C 0.11766 0.22106 0.6164 0.0
H36 H 0.73461 0.9098 0.57905 0.0
H37 H 0.73439 0.82222 0.58009 0.0
H38 H 0.79186 0.89462 0.61962 0.0
C39 C 0.74295 0.89492 0.58518 0.0
C40 C 0.76346 0.90544 0.60083 0.0
C41 C 0.73331 0.86536 0.57721 0.0
C42 C 0.74326 0.84565 0.58559 0.0
C43 C 0.76392 0.85572 0.60118 0.0
C44 C 0.77452 0.88598 0.60831 0.0
H45 H 0.08163 0.82216 0.58179 0.0
H46 H 0.16815 0.91274 0.57993 0.0
H47 H 0.10416 0.88655 0.62753 0.0
C48 C 0.09763 0.84466 0.58822 0.0
C49 C 0.08976 0.8516 0.60592 0.0
C50 C 0.12552 0.86691 0.57855 0.0
C51 C 0.14594 0.89611 0.58699 0.0
C52 C 0.13864 0.90348 0.60471 0.0
C53 C 0.11024 0.88114 0.61394 0.0
H54 H 0.93105 0.50493 0.78138 0.0
H55 H 0.93566 0.41972 0.77973 0.0
H56 H 0.88342 0.43828 0.73729 0.0
C57 C 0.92471 0.48276 0.77473 0.0
C58 C 0.9063 0.47408 0.75823 0.0
C59 C 0.93519 0.46315 0.78265 0.0
C60 C 0.92722 0.43465 0.77378 0.0
C61 C 0.90845 0.42528 0.7574 0.0
C62 C 0.89793 0.44514 0.74986 0.0
H63 H 0.50494 0.42149 0.77808 0.0
H64 H 0.59063 0.51272 0.77609 0.0
H65 H 0.57137 0.44644 0.7318 0.0
C66 C 0.52717 0.43826 0.7711 0.0
C67 C 0.53569 0.43021 0.75397 0.0
C68 C 0.54686 0.46786 0.77927 0.0
C69 C 0.57545 0.48972 0.77 0.0
C70 C 0.58439 0.48222 0.75278 0.0
C71 C 0.56452 0.45232 0.74501 0.0
H72 H 0.50368 0.08721 0.77575 0.0
H73 H 0.59344 0.08657 0.7735 0.0
H74 H 0.56436 0.1221 0.7267 0.0
C75 C 0.52574 0.09251 0.76838 0.0
C76 C 0.53134 0.10571 0.75026 0.0
C77 C 0.5479 0.08542 0.77691 0.0
C78 C 0.5761 0.09176 0.76701 0.0
C79 C 0.58245 0.10522 0.74895 0.0
C80 C 0.5601 0.11252 0.74078 0.0
H81 H 0.75227 0.58213 0.91729 0.0
H82 H 0.84202 0.58133 0.91823 0.0
H83 H 0.7771 0.54526 0.96535 0.0
C84 C 0.76877 0.57636 0.92431 0.0
C85 C 0.76082 0.56243 0.94228 0.0
C86 C 0.79812 0.58349 0.91551 0.0
C87 C 0.81954 0.57638 0.92495 0.0
C88 C 0.81227 0.56263 0.9429 0.0
C89 C 0.78257 0.55523 0.95135 0.0
H90 H 0.40227 0.24375 0.91205 0.0
H91 H 0.39884 0.1546 0.91495 0.0
H92 H 0.4509 0.22539 0.95655 0.0
C93 C 0.40837 0.22783 0.91912 0.0
C94 C 0.42698 0.23769 0.93548 0.0
C95 C 0.39846 0.19804 0.91148 0.0
C96 C 0.40736 0.17798 0.92047 0.0
C97 C 0.42642 0.18761 0.93676 0.0
C98 C 0.43617 0.2176 0.94406 0.0
H99 H 0.75073 0.15383 0.91513 0.0
H100 H 0.83628 0.2452 0.91318 0.0
H101 H 0.77338 0.21769 0.96125 0.0
C102 C 0.76633 0.17651 0.92147 0.0
C103 C 0.75831 0.18334 0.93918 0.0
C104 C 0.79464 0.19858 0.91206 0.0
C105 C 0.81481 0.22778 0.92053 0.0
C106 C 0.80738 0.23497 0.93823 0.0
C107 C 0.77889 0.2127 0.94738 0.0
H108 H 0.5968 0.83747 0.1147 0.0
H109 H 0.59499 0.74892 0.11446 0.0
H110 H 0.55282 0.77328 0.06895 0.0
C111 C 0.59002 0.8152 0.10805 0.0
C112 C 0.57311 0.80756 0.09101 0.0
C113 C 0.59848 0.79439 0.11647 0.0
C114 C 0.58944 0.76552 0.10777 0.0
C115 C 0.57266 0.75758 0.09072 0.0
C116 C 0.56472 0.77878 0.08244 0.0
H117 H 0.17433 0.75285 0.11106 0.0
H118 H 0.25943 0.84443 0.10756 0.0
H119 H 0.23469 0.77949 0.06188 0.0
C120 C 0.19559 0.76999 0.10344 0.0
C121 C 0.20213 0.76248 0.08557 0.0
C122 C 0.21599 0.79953 0.11148 0.0
C123 C 0.24332 0.82174 0.10138 0.0
C124 C 0.2505 0.81451 0.08357 0.0
C125 C 0.22981 0.7848 0.07582 0.0
H126 H 0.16452 0.41602 0.10663 0.0
H127 H 0.2544 0.41545 0.10733 0.0
H128 H 0.22933 0.45259 0.05949 0.0
C129 C 0.18699 0.42107 0.09987 0.0
C130 C 0.1942 0.43497 0.08196 0.0
C131 C 0.20847 0.41394 0.10923 0.0
C132 C 0.23784 0.42122 0.10038 0.0
C133 C 0.24574 0.43531 0.08244 0.0
C134 C 0.22391 0.4425 0.07346 0.0
H135 H 0.41846 0.90929 0.24963 0.0
H136 H 0.50549 0.90309 0.25007 0.0
H137 H 0.4438 0.87491 0.2986 0.0
C138 C 0.4346 0.90309 0.25668 0.0
C139 C 0.42717 0.89081 0.27507 0.0
C140 C 0.46295 0.90792 0.24748 0.0
C141 C 0.48366 0.89975 0.25691 0.0
C142 C 0.47696 0.88801 0.27533 0.0
C143 C 0.44873 0.88359 0.28431 0.0
H144 H 0.07246 0.57905 0.24498 0.0
H145 H 0.07185 0.49107 0.24451 0.0
H146 H 0.11518 0.55513 0.29039 0.0
C147 C 0.07817 0.56255 0.25165 0.0
C148 C 0.09495 0.57057 0.2687 0.0
C149 C 0.06948 0.53382 0.24288 0.0
C150 C 0.07829 0.5132 0.25123 0.0
C151 C 0.09525 0.52094 0.26826 0.0
C152 C 0.10323 0.54956 0.27692 0.0
H153 H 0.41895 0.48624 0.24782 0.0
H154 H 0.50498 0.57731 0.24724 0.0
H155 H 0.43815 0.55008 0.29348 0.0
C156 C 0.43418 0.50889 0.2543 0.0
C157 C 0.42518 0.51552 0.27175 0.0
C158 C 0.46287 0.53114 0.24528 0.0
C159 C 0.48265 0.56024 0.254 0.0
C160 C 0.47407 0.56737 0.27142 0.0
C161 C 0.44508 0.54491 0.28007 0.0
Eu162 Eu 0.48939 0.97536 0.99092 0.0
C163 C 0.56287 0.09874 0.03986 0.0
C164 C 0.61919 0.113 0.0374 0.0
C165 C 0.60496 0.15355 0.04266 0.0
C166 C 0.58601 0.09012 0.03708 0.0
C167 C 0.57204 0.13044 0.04319 0.0
C168 C 0.62851 0.14484 0.03973 0.0
C169 C 0.51576 0.11363 0.04908 0.0
N170 N 0.53139 0.0758 0.04049 0.0
C171 C 0.50791 0.08254 0.04564 0.0
C172 C 0.54793 0.13777 0.04757 0.0
Eu173 Eu 0.51947 0.02377 0.03417 0.0
N174 N 0.57613 0.05912 0.03518 0.0
C175 C 0.59826 0.04916 0.03502 0.0
C176 C 0.64198 0.10306 0.03598 0.0
C177 C 0.63144 0.07094 0.03507 0.0
H178 H 0.48298 0.06401 0.04671 0.0
H179 H 0.64885 0.06293 0.03439 0.0
H180 H 0.65386 0.16279 0.03984 0.0
H181 H 0.497 0.11895 0.05281 0.0
H182 H 0.59056 0.02447 0.03427 0.0
H183 H 0.36045 0.93744 0.98834 0.0
H184 H 0.66769 0.11987 0.0361 0.0
H185 H 0.52601 0.93365 0.98194 0.0
H186 H 0.41887 0.97556 0.989 0.0
H187 H 0.51158 0.87808 0.97805 0.0
H188 H 0.61249 0.17808 0.045 0.0
H189 H 0.34114 0.88034 0.98773 0.0
H190 H 0.3545 0.83689 0.98591 0.0
H191 H 0.55397 0.16182 0.05027 0.0
H192 H 0.39561 0.82072 0.98301 0.0
N193 N 0.43279 0.94051 0.98935 0.0
C194 C 0.41092 0.95076 0.98871 0.0
C195 C 0.36689 0.89699 0.98805 0.0
C196 C 0.38948 0.8867 0.9876 0.0
C197 C 0.37769 0.92919 0.98834 0.0
C198 C 0.42271 0.90936 0.98813 0.0
H199 H 0.45421 0.83592 0.97982 0.0
N200 N 0.47739 0.92288 0.98627 0.0
C201 C 0.49283 0.88397 0.9805 0.0
C202 C 0.44574 0.90025 0.98654 0.0
C203 C 0.50091 0.9154 0.98266 0.0
C204 C 0.46042 0.86024 0.98155 0.0
C205 C 0.43635 0.86826 0.98434 0.0
O206 O 0.51431 0.9817 0.96413 0.0
O207 O 0.52985 0.01761 1.00444 0.0
O208 O 0.51177 0.0534 0.01257 0.0
O209 O 0.47602 0.01391 0.99227 0.0
O210 O 0.54255 0.99071 0.98808 0.0
O211 O 0.47237 0.98757 0.96556 0.0
O212 O 0.49524 0.01621 0.06134 0.0
O213 O 0.4789 0.98232 0.02034 0.0
O214 O 0.49472 0.94576 0.0134 0.0
O215 O 0.5336 0.98575 0.03197 0.0
O216 O 0.46627 0.0085 0.03727 0.0
O217 O 0.5363 0.00923 0.05869 0.0
C218 C 0.55361 0.016 0.99791 0.0
C219 C 0.48362 0.97178 0.93652 0.0
C220 C 0.48546 0.97478 0.90224 0.0
C221 C 0.49465 0.98957 0.91986 0.0
C222 C 0.46479 0.94195 0.90166 0.0
C223 C 0.46301 0.93914 0.93556 0.0
C224 C 0.45364 0.92437 0.91819 0.0
C225 C 0.49078 0.04326 0.99854 0.0
C226 C 0.49441 0.98747 0.95476 0.0
C227 C 0.40332 0.84545 0.98453 0.0
C228 C 0.37992 0.85466 0.98618 0.0
C229 C 0.45514 0.98386 0.02687 0.0
C230 C 0.5269 0.02446 0.08838 0.0
C231 C 0.51699 0.00623 0.10494 0.0
C232 C 0.52867 0.02039 0.12255 0.0
C233 C 0.55004 0.05311 0.1232 0.0
C234 C 0.54829 0.05693 0.08946 0.0
C235 C 0.55969 0.07114 0.1068 0.0
C236 C 0.51722 0.95599 0.02652 0.0
C237 C 0.51495 0.00941 0.07005 0.0
H238 H 0.51084 0.01478 0.92065 0.0
H239 H 0.45689 0.92986 0.88839 0.0
H240 H 0.45429 0.92513 0.94821 0.0
H241 H 0.43768 0.89915 0.91753 0.0
H242 H 0.50069 0.98106 0.10406 0.0
H243 H 0.55909 0.06491 0.13646 0.0
H244 H 0.55617 0.07127 0.07691 0.0
H245 H 0.57611 0.09627 0.10755 0.0
Eu246 Eu 0.03092 0.50718 0.99241 0.0
C247 C 0.89742 0.45735 0.03348 0.0
C248 C 0.88353 0.49828 0.02974 0.0
C249 C 0.8409 0.44365 0.03252 0.0
C250 C 0.90691 0.48875 0.03106 0.0
C251 C 0.86432 0.43449 0.03465 0.0
C252 C 0.85049 0.47549 0.03006 0.0
C253 C 0.88003 0.39568 0.0415 0.0
N254 N 0.92065 0.44936 0.03566 0.0
C255 C 0.91254 0.41924 0.04031 0.0
C256 C 0.85579 0.40325 0.03844 0.0
Eu257 Eu 0.97512 0.4902 0.03272 0.0
N258 N 0.93902 0.51016 0.03094 0.0
C259 C 0.94935 0.54162 0.03092 0.0
C260 C 0.89405 0.53046 0.02865 0.0
C261 C 0.9271 0.55223 0.02951 0.0
H262 H 0.93121 0.41325 0.04258 0.0
H263 H 0.93549 0.5772 0.02901 0.0
H264 H 0.83218 0.48233 0.02887 0.0
H265 H 0.8737 0.3717 0.04476 0.0
H266 H 0.97481 0.55872 0.03147 0.0
H267 H 0.07033 0.42002 0.9961 0.0
H268 H 0.87687 0.53874 0.02755 0.0
H269 H 0.07494 0.58413 0.98256 0.0
H270 H 0.03108 0.4386 0.99366 0.0
H271 H 0.13248 0.6256 0.98036 0.0
H272 H 0.81533 0.42639 0.03321 0.0
H273 H 0.12897 0.4584 0.99756 0.0
H274 H 0.17373 0.51478 0.99625 0.0
H275 H 0.83062 0.38498 0.03943 0.0
H276 H 0.19068 0.57074 0.99191 0.0
N277 N 0.06694 0.48714 0.9942 0.0
C278 C 0.05655 0.45566 0.99421 0.0
C279 C 0.11182 0.46673 0.99647 0.0
C280 C 0.1224 0.49892 0.99538 0.0
C281 C 0.07876 0.445 0.99561 0.0
C282 C 0.09906 0.5085 0.99407 0.0
H283 H 0.1755 0.61222 0.98568 0.0
N284 N 0.08542 0.54797 0.98951 0.0
C285 C 0.12611 0.60162 0.98363 0.0
C286 C 0.10861 0.53992 0.99168 0.0
C287 C 0.09358 0.5781 0.98484 0.0
C288 C 0.15031 0.59399 0.98669 0.0
C289 C 0.14173 0.56274 0.99049 0.0
O290 O 0.02959 0.52415 0.96435 0.0
O291 O 0.9861 0.50544 1.00298 0.0
O292 O 0.94775 0.45467 0.01014 0.0
O293 O 0.99074 0.45545 0.99395 0.0
O294 O 0.01512 0.54298 0.98579 0.0
O295 O 0.02196 0.47703 0.96812 0.0
O296 O 0.97634 0.47329 0.06082 0.0
O297 O 0.01988 0.4919 0.02213 0.0
O298 O 0.05824 0.54281 0.015 0.0
O299 O 0.01515 0.54192 0.03114 0.0
O300 O 0.99101 0.45446 0.03938 0.0
O301 O 0.9843 0.52052 0.05695 0.0
C302 C 0.9883 0.52942 0.99506 0.0
C303 C 0.04556 0.50322 0.93965 0.0
C304 C 0.0509 0.50481 0.90561 0.0
C305 C 0.03207 0.49985 0.92182 0.0
C306 C 0.08356 0.51306 0.9076 0.0
C307 C 0.07813 0.51146 0.94139 0.0
C308 C 0.097 0.51632 0.92539 0.0
C309 C 0.95952 0.44209 0.99834 0.0
C310 C 0.02531 0.49864 0.95616 0.0
C311 C 0.16511 0.55352 0.9926 0.0
C312 C 0.15546 0.52166 0.99506 0.0
C313 C 0.0178 0.46799 0.03007 0.0
C314 C 0.96058 0.49453 0.08543 0.0
C315 C 0.97405 0.49794 0.10326 0.0
C316 C 0.95528 0.49328 0.11945 0.0
C317 C 0.9227 0.48528 0.11745 0.0
C318 C 0.92808 0.48653 0.08367 0.0
C319 C 0.90926 0.48195 0.09965 0.0
C320 C 0.04639 0.55531 0.02681 0.0
C321 C 0.9808 0.4989 0.06894 0.0
H322 H 0.00673 0.49303 0.92064 0.0
H323 H 0.09883 0.51738 0.89542 0.0
H324 H 0.08892 0.51417 0.95503 0.0
H325 H 0.12217 0.52278 0.92679 0.0
H326 H 0.99934 0.50458 0.10446 0.0
H327 H 0.90749 0.48121 0.12963 0.0
H328 H 0.9173 0.48379 0.07002 0.0
H329 H 0.88415 0.47568 0.09824 0.0
Eu330 Eu 0.52 0.48941 0.03257 0.0
C331 C 0.44384 0.54348 0.98913 0.0
C332 C 0.3874 0.50325 0.99158 0.0
C333 C 0.40215 0.55824 0.98893 0.0
C334 C 0.42047 0.51218 0.99104 0.0
C335 C 0.43496 0.56684 0.98767 0.0
C336 C 0.37841 0.52649 0.9909 0.0
C337 C 0.49133 0.60511 0.98242 0.0
N338 N 0.47525 0.55093 0.98782 0.0
C339 C 0.4989 0.58107 0.98387 0.0
C340 C 0.45925 0.59804 0.98453 0.0
Eu341 Eu 0.48648 0.50931 0.99125 0.0
N342 N 0.42999 0.49033 0.99153 0.0
C343 C 0.40756 0.459 0.99122 0.0
C344 C 0.36434 0.47118 0.99233 0.0
C345 C 0.37448 0.44896 0.99189 0.0
H346 H 0.52376 0.58669 0.98234 0.0
H347 H 0.35684 0.42409 0.99213 0.0
H348 H 0.35314 0.52011 0.99146 0.0
H349 H 0.51023 0.62907 0.97969 0.0
H350 H 0.41501 0.44155 0.99098 0.0
H351 H 0.64966 0.5746 0.03191 0.0
H352 H 0.3387 0.46335 0.99284 0.0
H353 H 0.48268 0.41195 0.04128 0.0
H354 H 0.5915 0.55716 0.03302 0.0
H355 H 0.49619 0.36953 0.04375 0.0
H356 H 0.39484 0.57588 0.98799 0.0
H357 H 0.66778 0.53533 0.03107 0.0
H358 H 0.65332 0.47856 0.03226 0.0
H359 H 0.45342 0.61668 0.98333 0.0
H360 H 0.6116 0.42277 0.03555 0.0
N361 N 0.57649 0.50837 0.03235 0.0
C362 C 0.59893 0.5397 0.03273 0.0
C363 C 0.64214 0.5275 0.03157 0.0
C364 C 0.61908 0.49544 0.03223 0.0
C365 C 0.63201 0.54973 0.03208 0.0
C366 C 0.586 0.48651 0.03276 0.0
H367 H 0.553 0.38193 0.0401 0.0
N368 N 0.53122 0.44775 0.0359 0.0
C369 C 0.5151 0.39351 0.0411 0.0
C370 C 0.56262 0.4552 0.03459 0.0
C371 C 0.50755 0.41758 0.03975 0.0
C372 C 0.54718 0.4006 0.03899 0.0
C373 C 0.57149 0.43181 0.03595 0.0
O374 O 0.49847 0.47162 0.06011 0.0
O375 O 0.47837 0.49255 0.02085 0.0
O376 O 0.49431 0.54407 0.01412 0.0
O377 O 0.53446 0.54136 0.03124 0.0
O378 O 0.46681 0.45376 0.03734 0.0
O379 O 0.53955 0.51871 0.05745 0.0
O380 O 0.50831 0.52699 0.96376 0.0
O381 O 0.52803 0.50619 1.00301 0.0
O382 O 0.51241 0.45487 0.00963 0.0
O383 O 0.47209 0.45736 0.99256 0.0
O384 O 0.53973 0.54491 0.98646 0.0
O385 O 0.46678 0.48016 0.96632 0.0
C386 C 0.45501 0.46819 0.02797 0.0
C387 C 0.533 0.49199 0.08613 0.0
C388 C 0.53517 0.49225 0.12034 0.0
C389 C 0.52269 0.49705 0.10357 0.0
C390 C 0.55809 0.48217 0.11928 0.0
C391 C 0.55586 0.482 0.0854 0.0
C392 C 0.5683 0.47711 0.10193 0.0
C393 C 0.51794 0.55551 0.02656 0.0
C394 C 0.51935 0.49691 0.06889 0.0
C395 C 0.6043 0.44042 0.0347 0.0
C396 C 0.62806 0.47218 0.03282 0.0
C397 C 0.55145 0.53047 0.99588 0.0
C398 C 0.47405 0.50708 0.93761 0.0
C399 C 0.48482 0.50239 0.92022 0.0
C400 C 0.4728 0.50757 0.90338 0.0
C401 C 0.44989 0.51767 0.90433 0.0
C402 C 0.45121 0.51709 0.93823 0.0
C403 C 0.43923 0.52237 0.92163 0.0
C404 C 0.48873 0.44332 0.99722 0.0
C405 C 0.48728 0.50184 0.95493 0.0
H406 H 0.50527 0.50511 0.10402 0.0
H407 H 0.56786 0.4778 0.13188 0.0
H408 H 0.564 0.47795 0.07209 0.0
H409 H 0.58587 0.46928 0.1013 0.0
H410 H 0.50223 0.49431 0.91986 0.0
H411 H 0.44046 0.52232 0.89168 0.0
H412 H 0.44272 0.52088 0.95149 0.0
H413 H 0.42167 0.53022 0.92217 0.0
Eu414 Eu 0.15499 0.30751 0.32375 0.0
C415 C 0.23045 0.4326 0.37025 0.0
C416 C 0.28678 0.44669 0.36809 0.0
C417 C 0.27256 0.48759 0.37167 0.0
C418 C 0.2536 0.42378 0.36813 0.0
C419 C 0.23963 0.46455 0.37242 0.0
C420 C 0.2961 0.47868 0.3695 0.0
C421 C 0.18324 0.44835 0.37728 0.0
N422 N 0.19893 0.40975 0.37106 0.0
C423 C 0.17538 0.41698 0.37514 0.0
C424 C 0.21548 0.47229 0.37571 0.0
Eu425 Eu 0.18714 0.35731 0.36637 0.0
N426 N 0.24374 0.39268 0.36694 0.0
C427 C 0.26589 0.38275 0.367 0.0
C428 C 0.30957 0.4367 0.36709 0.0
C429 C 0.29906 0.40456 0.3668 0.0
H430 H 0.1504 0.39858 0.37625 0.0
H431 H 0.31648 0.39654 0.36636 0.0
H432 H 0.32145 0.49663 0.36933 0.0
H433 H 0.16443 0.45403 0.38011 0.0
H434 H 0.25818 0.35802 0.36669 0.0
H435 H 0.02556 0.26791 0.32348 0.0
H436 H 0.33528 0.45354 0.36697 0.0
H437 H 0.19197 0.26634 0.31409 0.0
H438 H 0.08383 0.30656 0.32316 0.0
H439 H 0.1781 0.21092 0.31039 0.0
H440 H 0.2801 0.5123 0.37315 0.0
H441 H 0.00694 0.21094 0.32309 0.0
H442 H 0.02094 0.16796 0.32094 0.0
H443 H 0.22153 0.49656 0.37744 0.0
H444 H 0.06243 0.15243 0.31728 0.0
N445 N 0.09841 0.27201 0.32312 0.0
C446 C 0.0762 0.28185 0.32293 0.0
C447 C 0.03263 0.22784 0.32296 0.0
C448 C 0.0555 0.21794 0.32208 0.0
C449 C 0.04304 0.25997 0.32313 0.0
C450 C 0.08865 0.24092 0.32204 0.0
H451 H 0.12104 0.16829 0.31308 0.0
N452 N 0.14338 0.25509 0.3192 0.0
C453 C 0.15924 0.21655 0.31316 0.0
C454 C 0.11188 0.23218 0.32001 0.0
C455 C 0.167 0.24791 0.31521 0.0
C456 C 0.12702 0.19256 0.31473 0.0
C457 C 0.1028 0.20023 0.31794 0.0
O458 O 0.17836 0.31328 0.29649 0.0
O459 O 0.1961 0.34984 0.33669 0.0
O460 O 0.17982 0.38601 0.34407 0.0
O461 O 0.14087 0.34557 0.32566 0.0
O462 O 0.20809 0.32297 0.31989 0.0
O463 O 0.13703 0.32 0.29888 0.0
O464 O 0.16412 0.3518 0.39373 0.0
O465 O 0.14605 0.31519 0.35336 0.0
O466 O 0.16183 0.27874 0.34617 0.0
O467 O 0.20114 0.31916 0.3644 0.0
O468 O 0.13398 0.34173 0.37037 0.0
O469 O 0.20485 0.34421 0.3911 0.0
C470 C 0.21959 0.3482 0.32979 0.0
C471 C 0.14603 0.30308 0.2696 0.0
C472 C 0.1449 0.30506 0.23532 0.0
C473 C 0.15625 0.32026 0.2527 0.0
C474 C 0.12341 0.27232 0.23527 0.0
C475 C 0.12452 0.27058 0.26915 0.0
C476 C 0.11334 0.25533 0.25205 0.0
C477 C 0.15689 0.37534 0.33117 0.0
C478 C 0.1582 0.31926 0.2876 0.0
C479 C 0.06989 0.17713 0.31869 0.0
C480 C 0.04628 0.18597 0.32077 0.0
C481 C 0.12253 0.31668 0.36031 0.0
C482 C 0.19659 0.36128 0.4205 0.0
C483 C 0.18677 0.34394 0.43738 0.0
C484 C 0.19872 0.35895 0.45475 0.0
C485 C 0.22036 0.39165 0.45483 0.0
C486 C 0.21824 0.39375 0.421 0.0
C487 C 0.22998 0.40881 0.4381 0.0
C488 C 0.18476 0.28932 0.35907 0.0
C489 C 0.18401 0.3453 0.4025 0.0
H490 H 0.17265 0.34545 0.25313 0.0
H491 H 0.11461 0.2597 0.22223 0.0
H492 H 0.11646 0.25703 0.28199 0.0
H493 H 0.09686 0.23018 0.25177 0.0
H494 H 0.17026 0.31876 0.43692 0.0
H495 H 0.22962 0.40412 0.46788 0.0
H496 H 0.226 0.40742 0.40819 0.0
H497 H 0.24658 0.43393 0.4384 0.0
Eu498 Eu 0.69808 0.83937 0.32575 0.0
C499 C 0.56662 0.79554 0.36653 0.0
C500 C 0.55764 0.83949 0.36194 0.0
C501 C 0.5117 0.78648 0.36456 0.0
C502 C 0.57883 0.82738 0.3638 0.0
C503 C 0.53292 0.77486 0.36764 0.0
C504 C 0.52405 0.81877 0.36169 0.0
C505 C 0.54379 0.73383 0.37741 0.0
N506 N 0.58776 0.78525 0.36986 0.0
C507 C 0.57698 0.75536 0.37626 0.0
C508 C 0.52163 0.74347 0.37271 0.0
Eu509 Eu 0.64359 0.82237 0.3669 0.0
N510 N 0.61138 0.84674 0.36442 0.0
C511 C 0.62414 0.87863 0.36491 0.0
C512 C 0.57077 0.87213 0.3612 0.0
C513 C 0.60411 0.89178 0.36311 0.0
H514 H 0.59416 0.7479 0.37985 0.0
H515 H 0.61447 0.91707 0.36302 0.0
H516 H 0.50742 0.82761 0.36001 0.0
H517 H 0.53535 0.70987 0.38191 0.0
H518 H 0.64985 0.89423 0.36619 0.0
H519 H 0.73125 0.74764 0.3314 0.0
H520 H 0.55534 0.88238 0.35975 0.0
H521 H 0.74467 0.91352 0.31151 0.0
H522 H 0.69429 0.7687 0.32831 0.0
H523 H 0.80288 0.95266 0.30777 0.0
H524 H 0.48573 0.77089 0.3651 0.0
H525 H 0.79041 0.78384 0.33243 0.0
H526 H 0.83716 0.83911 0.32991 0.0
H527 H 0.49593 0.72683 0.37374 0.0
H528 H 0.85678 0.89517 0.32359 0.0
N529 N 0.73188 0.8167 0.32814 0.0
C530 C 0.71998 0.78493 0.32867 0.0
C531 C 0.77426 0.7933 0.33107 0.0
C532 C 0.78641 0.8257 0.32929 0.0
C533 C 0.7409 0.7728 0.33044 0.0
C534 C 0.76431 0.83678 0.32766 0.0
H535 H 0.84417 0.93766 0.31493 0.0
N536 N 0.75326 0.8775 0.32144 0.0
C537 C 0.79551 0.92907 0.31258 0.0
C538 C 0.77537 0.86825 0.32429 0.0
C539 C 0.76265 0.90691 0.31469 0.0
C540 C 0.81873 0.92054 0.3167 0.0
C541 C 0.80878 0.8896 0.32221 0.0
O542 O 0.69598 0.85673 0.2979 0.0
O543 O 0.65319 0.8369 0.33695 0.0
O544 O 0.61576 0.78334 0.34609 0.0
O545 O 0.65719 0.78823 0.32616 0.0
O546 O 0.68202 0.87512 0.32004 0.0
O547 O 0.68877 0.80976 0.30118 0.0
O548 O 0.64239 0.8029 0.39463 0.0
O549 O 0.6886 0.82496 0.35581 0.0
O550 O 0.72628 0.87876 0.34614 0.0
O551 O 0.68565 0.87317 0.36708 0.0
O552 O 0.65965 0.78671 0.37269 0.0
O553 O 0.65316 0.85116 0.39189 0.0
C554 C 0.65522 0.86106 0.32935 0.0
C555 C 0.71174 0.83637 0.27278 0.0
C556 C 0.71635 0.83785 0.23874 0.0
C557 C 0.69789 0.83304 0.25508 0.0
C558 C 0.74905 0.8461 0.24044 0.0
C559 C 0.74431 0.84448 0.27426 0.0
C560 C 0.76287 0.84938 0.25812 0.0
C561 C 0.62705 0.77291 0.3326 0.0
C562 C 0.69173 0.83146 0.28945 0.0
C563 C 0.83099 0.87905 0.32489 0.0
C564 C 0.81981 0.84713 0.32845 0.0
C565 C 0.68664 0.8009 0.36355 0.0
C566 C 0.62688 0.82392 0.41957 0.0
C567 C 0.63939 0.82671 0.43764 0.0
C568 C 0.62002 0.82247 0.45351 0.0
C569 C 0.58781 0.81535 0.45095 0.0
C570 C 0.59479 0.81695 0.41727 0.0
C571 C 0.57535 0.81262 0.43292 0.0
C572 C 0.7154 0.8889 0.35999 0.0
C573 C 0.64777 0.82833 0.40338 0.0
H574 H 0.67252 0.82619 0.25409 0.0
H575 H 0.76402 0.8503 0.22814 0.0
H576 H 0.75532 0.84695 0.2878 0.0
H577 H 0.78804 0.85575 0.25932 0.0
H578 H 0.66442 0.83269 0.43928 0.0
H579 H 0.57215 0.81159 0.46285 0.0
H580 H 0.58482 0.81492 0.40346 0.0
H581 H 0.55055 0.80713 0.43107 0.0
Eu582 Eu 0.18751 0.82241 0.36638 0.0
C583 C 0.11299 0.87648 0.32122 0.0
C584 C 0.05639 0.83655 0.3234 0.0
C585 C 0.07157 0.89159 0.3202 0.0
C586 C 0.08941 0.84526 0.32322 0.0
C587 C 0.10435 0.89997 0.31931 0.0
C588 C 0.04763 0.85993 0.32226 0.0
C589 C 0.16092 0.93788 0.31437 0.0
N590 N 0.14436 0.88371 0.32027 0.0
C591 C 0.16824 0.91373 0.31627 0.0
C592 C 0.12886 0.93104 0.31611 0.0
Eu593 Eu 0.15513 0.84191 0.32442 0.0
N594 N 0.09871 0.82328 0.32414 0.0
C595 C 0.07613 0.79199 0.32392 0.0
C596 C 0.03315 0.80455 0.32424 0.0
C597 C 0.04308 0.78216 0.32424 0.0
H598 H 0.19309 0.91918 0.31502 0.0
H599 H 0.02532 0.75733 0.32456 0.0
H600 H 0.0224 0.85371 0.32254 0.0
H601 H 0.17999 0.96175 0.3116 0.0
H602 H 0.08341 0.77441 0.32402 0.0
H603 H 0.31736 0.9068 0.36565 0.0
H604 H 0.00754 0.79687 0.32447 0.0
H605 H 0.14951 0.74522 0.3761 0.0
H606 H 0.2593 0.88983 0.36641 0.0
H607 H 0.16254 0.70262 0.37958 0.0
H608 H 0.06446 0.90932 0.31892 0.0
H609 H 0.33503 0.86718 0.36583 0.0
H610 H 0.32008 0.81033 0.36799 0.0
H611 H 0.12323 0.94978 0.31457 0.0
H612 H 0.27799 0.75479 0.37186 0.0
N613 N 0.24391 0.84094 0.36651 0.0
C614 C 0.26653 0.87222 0.36655 0.0
C615 C 0.30943 0.85956 0.36616 0.0
C616 C 0.28616 0.82758 0.36718 0.0
C617 C 0.29956 0.88199 0.3661 0.0
C618 C 0.25316 0.81892 0.36748 0.0
H619 H 0.21923 0.71445 0.37644 0.0
N620 N 0.19822 0.78058 0.37065 0.0
C621 C 0.18161 0.72644 0.37671 0.0
C622 C 0.22956 0.78775 0.36962 0.0
C623 C 0.17433 0.75062 0.37478 0.0
C624 C 0.21364 0.73321 0.37488 0.0
C625 C 0.23816 0.76424 0.37156 0.0
O626 O 0.16451 0.80581 0.39373 0.0
O627 O 0.14629 0.82563 0.3541 0.0
O628 O 0.16257 0.87705 0.34695 0.0
O629 O 0.20228 0.8744 0.36457 0.0
O630 O 0.13419 0.78693 0.3708 0.0
O631 O 0.20745 0.85169 0.39126 0.0
O632 O 0.17794 0.85888 0.29708 0.0
O633 O 0.19632 0.83866 0.33669 0.0
O634 O 0.17982 0.78702 0.34397 0.0
O635 O 0.1404 0.78989 0.32615 0.0
O636 O 0.20846 0.87737 0.32002 0.0
O637 O 0.13554 0.81258 0.29955 0.0
C638 C 0.12272 0.80135 0.36114 0.0
C639 C 0.1978 0.82497 0.42029 0.0
C640 C 0.19618 0.82351 0.45452 0.0
C641 C 0.18624 0.82995 0.43731 0.0
C642 C 0.21803 0.81208 0.45434 0.0
C643 C 0.21961 0.81367 0.42041 0.0
C644 C 0.22968 0.8073 0.4374 0.0
C645 C 0.18599 0.88861 0.35953 0.0
C646 C 0.18595 0.83069 0.40258 0.0
C647 C 0.27091 0.77254 0.37056 0.0
C648 C 0.29487 0.80417 0.36835 0.0
C649 C 0.21994 0.8629 0.32962 0.0
C650 C 0.14461 0.83925 0.27057 0.0
C651 C 0.15603 0.83411 0.25355 0.0
C652 C 0.14569 0.84008 0.23635 0.0
C653 C 0.12363 0.85124 0.23651 0.0
C654 C 0.12258 0.85028 0.27045 0.0
C655 C 0.11215 0.85622 0.25346 0.0
C656 C 0.15649 0.77553 0.33134 0.0
C657 C 0.15678 0.83383 0.28823 0.0
H658 H 0.16903 0.83829 0.43712 0.0
H659 H 0.22646 0.80722 0.46732 0.0
H660 H 0.2287 0.80966 0.40743 0.0
H661 H 0.24654 0.7986 0.43744 0.0
H662 H 0.17342 0.82599 0.25375 0.0
H663 H 0.1149 0.85573 0.22353 0.0
H664 H 0.11359 0.8544 0.28344 0.0
H665 H 0.09511 0.86471 0.25342 0.0
Eu666 Eu 0.82218 0.64185 0.65842 0.0
C667 C 0.89594 0.76648 0.70587 0.0
C668 C 0.95235 0.78096 0.7034 0.0
C669 C 0.93784 0.82147 0.70799 0.0
C670 C 0.91921 0.75793 0.70332 0.0
C671 C 0.90497 0.79826 0.70873 0.0
C672 C 0.96149 0.81284 0.7053 0.0
C673 C 0.84865 0.78141 0.71451 0.0
N674 N 0.8645 0.74344 0.70669 0.0
C675 C 0.84094 0.75024 0.71155 0.0
C676 C 0.88076 0.80559 0.71282 0.0
Eu677 Eu 0.85295 0.69131 0.70114 0.0
N678 N 0.90951 0.7269 0.70184 0.0
C679 C 0.93178 0.71712 0.70186 0.0
C680 C 0.97527 0.77116 0.70219 0.0
C681 C 0.96492 0.73905 0.7017 0.0
H682 H 0.81605 0.73168 0.71277 0.0
H683 H 0.98244 0.73117 0.70117 0.0
H684 H 0.98681 0.83089 0.70523 0.0
H685 H 0.82982 0.78675 0.71801 0.0
H686 H 0.92419 0.69242 0.70142 0.0
H687 H 0.69342 0.60489 0.65686 0.0
H688 H 1.00095 0.7881 0.70214 0.0
H689 H 0.85797 0.59942 0.6494 0.0
H690 H 0.75196 0.64265 0.65697 0.0
H691 H 0.84298 0.54364 0.64583 0.0
H692 H 0.94525 0.84606 0.70997 0.0
H693 H 0.67363 0.54768 0.65664 0.0
H694 H 0.68645 0.50385 0.65491 0.0
H695 H 0.88669 0.82971 0.71514 0.0
H696 H 0.72713 0.48717 0.6518 0.0
N697 N 0.76547 0.60732 0.65738 0.0
C698 C 0.74379 0.61781 0.65684 0.0
C699 C 0.69943 0.56418 0.65672 0.0
C700 C 0.72179 0.55362 0.65616 0.0
C701 C 0.7105 0.59644 0.65679 0.0
C702 C 0.7551 0.57609 0.65637 0.0
H703 H 0.78551 0.50184 0.64815 0.0
N704 N 0.80959 0.58912 0.65409 0.0
C705 C 0.82443 0.54978 0.64839 0.0
C706 C 0.77789 0.56669 0.65467 0.0
C707 C 0.83283 0.58132 0.65036 0.0
C708 C 0.79198 0.52626 0.64975 0.0
C709 C 0.76817 0.53458 0.65266 0.0
O710 O 0.84654 0.6473 0.63154 0.0
O711 O 0.86299 0.68419 0.67155 0.0
O712 O 0.84616 0.72071 0.67908 0.0
O713 O 0.80934 0.68091 0.65938 0.0
O714 O 0.87525 0.65682 0.65537 0.0
O715 O 0.80496 0.65378 0.63304 0.0
O716 O 0.82869 0.68414 0.72824 0.0
O717 O 0.81212 0.64929 0.68784 0.0
O718 O 0.82827 0.61279 0.68104 0.0
O719 O 0.86703 0.65322 0.69947 0.0
O720 O 0.79979 0.67625 0.70422 0.0
O721 O 0.87082 0.67874 0.72601 0.0
C722 C 0.88658 0.6823 0.66503 0.0
C723 C 0.81561 0.63735 0.60403 0.0
C724 C 0.81724 0.64001 0.56974 0.0
C725 C 0.82667 0.65495 0.58731 0.0
C726 C 0.7963 0.60722 0.56927 0.0
C727 C 0.79472 0.60475 0.60319 0.0
C728 C 0.78511 0.58982 0.58587 0.0
C729 C 0.82486 0.71052 0.66524 0.0
C730 C 0.82672 0.65321 0.62219 0.0
C731 C 0.73508 0.51198 0.65316 0.0
C732 C 0.71192 0.52148 0.65493 0.0
C733 C 0.78846 0.6511 0.69427 0.0
C734 C 0.86077 0.69477 0.75528 0.0
C735 C 0.85053 0.67744 0.77213 0.0
C736 C 0.86152 0.69256 0.78956 0.0
C737 C 0.88261 0.72537 0.78972 0.0
C738 C 0.8819 0.72734 0.75585 0.0
C739 C 0.89267 0.74252 0.773 0.0
C740 C 0.85082 0.62337 0.69416 0.0
C741 C 0.84914 0.67868 0.73721 0.0
H742 H 0.84309 0.68012 0.58801 0.0
H743 H 0.78822 0.59502 0.55605 0.0
H744 H 0.78598 0.59088 0.61589 0.0
H745 H 0.76894 0.56464 0.5853 0.0
H746 H 0.83446 0.65219 0.77161 0.0
H747 H 0.8911 0.73791 0.80281 0.0
H748 H 0.89002 0.74101 0.74306 0.0
H749 H 0.90886 0.76772 0.77336 0.0
Eu750 Eu 0.36457 0.17346 0.65973 0.0
C751 C 0.23363 0.13176 0.70109 0.0
C752 C 0.22515 0.17596 0.69616 0.0
C753 C 0.17889 0.12328 0.69957 0.0
C754 C 0.2461 0.16357 0.69807 0.0
C755 C 0.19991 0.1114 0.70256 0.0
C756 C 0.1915 0.15552 0.69634 0.0
C757 C 0.21046 0.07016 0.71233 0.0
N758 N 0.25459 0.1212 0.70425 0.0
C759 C 0.24368 0.09138 0.71083 0.0
C760 C 0.18843 0.08005 0.70783 0.0
Eu761 Eu 0.31046 0.15783 0.70083 0.0
N762 N 0.27872 0.18266 0.69819 0.0
C763 C 0.29187 0.21462 0.69801 0.0
C764 C 0.23862 0.20859 0.69476 0.0
C765 C 0.2721 0.22801 0.69603 0.0
H766 H 0.26075 0.08374 0.7143 0.0
H767 H 0.28275 0.25332 0.69538 0.0
H768 H 0.17504 0.16455 0.69463 0.0
H769 H 0.20189 0.04625 0.71698 0.0
H770 H 0.31767 0.23003 0.69883 0.0
H771 H 0.39607 0.0806 0.66575 0.0
H772 H 0.22338 0.21903 0.69321 0.0
H773 H 0.41185 0.24728 0.64512 0.0
H774 H 0.35969 0.10233 0.66254 0.0
H775 H 0.47018 0.28573 0.64106 0.0
H776 H 0.1529 0.10793 0.70038 0.0
H777 H 0.45534 0.11621 0.66667 0.0
H778 H 0.50258 0.17117 0.66389 0.0
H779 H 0.16271 0.06366 0.70913 0.0
H780 H 0.52289 0.22725 0.65722 0.0
N781 N 0.39775 0.15012 0.66217 0.0
C782 C 0.38544 0.11829 0.66283 0.0
C783 C 0.43946 0.12596 0.66525 0.0
C784 C 0.45201 0.15839 0.6633 0.0
C785 C 0.40603 0.10579 0.66468 0.0
C786 C 0.43024 0.16987 0.66159 0.0
H787 H 0.51097 0.2701 0.64827 0.0
N788 N 0.41988 0.21098 0.6552 0.0
C789 C 0.46253 0.26215 0.64601 0.0
C790 C 0.44169 0.20136 0.65805 0.0
C791 C 0.42959 0.24038 0.64829 0.0
C792 C 0.48548 0.25327 0.65015 0.0
C793 C 0.47516 0.22233 0.65585 0.0
O794 O 0.36194 0.19047 0.63189 0.0
O795 O 0.31991 0.17181 0.67075 0.0
O796 O 0.28203 0.11855 0.68029 0.0
O797 O 0.3231 0.12252 0.66037 0.0
O798 O 0.34966 0.20993 0.65395 0.0
O799 O 0.35528 0.14371 0.6352 0.0
O800 O 0.30995 0.13901 0.72866 0.0
O801 O 0.35508 0.15953 0.68983 0.0
O802 O 0.39343 0.21296 0.68001 0.0
O803 O 0.35295 0.20838 0.70072 0.0
O804 O 0.32574 0.12164 0.70685 0.0
O805 O 0.31997 0.187 0.72565 0.0
C806 C 0.32261 0.1962 0.66304 0.0
C807 C 0.37703 0.17003 0.60653 0.0
C808 C 0.37976 0.16997 0.57245 0.0
C809 C 0.36191 0.1647 0.58908 0.0
C810 C 0.41314 0.18087 0.57354 0.0
C811 C 0.41025 0.18053 0.60744 0.0
C812 C 0.42822 0.18599 0.59097 0.0
C813 C 0.29299 0.10762 0.6669 0.0
C814 C 0.35765 0.16517 0.62347 0.0
C815 C 0.49706 0.21142 0.6586 0.0
C816 C 0.48549 0.17949 0.66236 0.0
C817 C 0.3527 0.13538 0.69768 0.0
C818 C 0.29414 0.15993 0.75347 0.0
C819 C 0.30641 0.16194 0.77153 0.0
C820 C 0.28695 0.15742 0.7874 0.0
C821 C 0.25487 0.15071 0.78484 0.0
C822 C 0.2622 0.15345 0.75119 0.0
C823 C 0.24266 0.14877 0.76683 0.0
C824 C 0.3828 0.22359 0.69376 0.0
C825 C 0.31502 0.16445 0.73726 0.0
H826 H 0.33626 0.15689 0.58848 0.0
H827 H 0.42745 0.18496 0.56095 0.0
H828 H 0.42227 0.18458 0.62078 0.0
H829 H 0.45389 0.19416 0.59172 0.0
H830 H 0.33134 0.16757 0.77317 0.0
H831 H 0.23914 0.14673 0.79674 0.0
H832 H 0.25242 0.15207 0.7374 0.0
H833 H 0.21796 0.14364 0.76499 0.0
Eu834 Eu 0.85416 0.15666 0.69923 0.0
C835 C 0.78139 0.2116 0.65339 0.0
C836 C 0.72482 0.17169 0.65583 0.0
C837 C 0.73993 0.22661 0.65195 0.0
C838 C 0.75785 0.18044 0.65572 0.0
C839 C 0.77269 0.23495 0.65094 0.0
C840 C 0.71603 0.19502 0.65444 0.0
C841 C 0.82902 0.2724 0.6448 0.0
N842 N 0.81272 0.21877 0.65226 0.0
C843 C 0.83643 0.2484 0.64737 0.0
C844 C 0.79707 0.26576 0.64689 0.0
Eu845 Eu 0.82361 0.1772 0.65697 0.0
N846 N 0.76718 0.15847 0.65669 0.0
C847 C 0.74464 0.12718 0.65632 0.0
C848 C 0.70162 0.13968 0.65671 0.0
C849 C 0.71159 0.11731 0.65666 0.0
H850 H 0.86119 0.25368 0.64587 0.0
H851 H 0.69384 0.09248 0.65691 0.0
H852 H 0.6908 0.18879 0.65469 0.0
H853 H 0.84796 0.29599 0.64131 0.0
H854 H 0.75199 0.10963 0.65633 0.0
H855 H 0.98378 0.24203 0.69898 0.0
H856 H 0.676 0.13198 0.65691 0.0
H857 H 0.81703 0.08022 0.71034 0.0
H858 H 0.92557 0.22452 0.69951 0.0
H859 H 0.83063 0.03817 0.71499 0.0
H860 H 0.73277 0.24426 0.65031 0.0
H861 H 1.002 0.20282 0.69934 0.0
H862 H 0.9876 0.14614 0.70179 0.0
H863 H 0.79138 0.28437 0.64487 0.0
H864 H 0.9459 0.09059 0.70624 0.0
N865 N 0.91067 0.17574 0.6995 0.0
C866 C 0.93306 0.20709 0.69967 0.0
C867 C 0.97634 0.19496 0.69951 0.0
C868 C 0.9533 0.16291 0.70053 0.0
C869 C 0.96616 0.21715 0.69936 0.0
C870 C 0.92021 0.15394 0.70062 0.0
H871 H 0.88736 0.0502 0.71158 0.0
N872 N 0.86544 0.11537 0.70403 0.0
C873 C 0.84947 0.06182 0.71151 0.0
C874 C 0.89684 0.12274 0.70297 0.0
C875 C 0.84186 0.08567 0.7089 0.0
C876 C 0.8815 0.06868 0.70952 0.0
C877 C 0.90575 0.09955 0.70549 0.0
O878 O 0.8308 0.13924 0.72645 0.0
O879 O 0.81346 0.16042 0.68658 0.0
O880 O 0.83098 0.21285 0.67919 0.0
O881 O 0.86843 0.2086 0.69819 0.0
O882 O 0.80079 0.121 0.70275 0.0
O883 O 0.87316 0.18552 0.7243 0.0
O884 O 0.84675 0.19457 0.62971 0.0
O885 O 0.86418 0.17329 0.6696 0.0
O886 O 0.84649 0.1208 0.67704 0.0
O887 O 0.80924 0.12524 0.65795 0.0
O888 O 0.87711 0.21258 0.65335 0.0
O889 O 0.8043 0.14832 0.63194 0.0
C890 C 0.78965 0.13583 0.6932 0.0
C891 C 0.86437 0.15819 0.75295 0.0
C892 C 0.86534 0.15785 0.78717 0.0
C893 C 0.85374 0.16333 0.77026 0.0
C894 C 0.88754 0.14686 0.78639 0.0
C895 C 0.88659 0.1474 0.75251 0.0
C896 C 0.89804 0.1417 0.76917 0.0
C897 C 0.85287 0.22333 0.69268 0.0
C898 C 0.85193 0.16404 0.7355 0.0
C899 C 0.93857 0.10811 0.70454 0.0
C900 C 0.96231 0.13974 0.70202 0.0
C901 C 0.88813 0.19766 0.6629 0.0
C902 C 0.81284 0.17572 0.60335 0.0
C903 C 0.82333 0.17063 0.58599 0.0
C904 C 0.81164 0.17619 0.56915 0.0
C905 C 0.78944 0.18716 0.57003 0.0
C906 C 0.79062 0.18651 0.60391 0.0
C907 C 0.77906 0.19226 0.58731 0.0
C908 C 0.82465 0.1104 0.66352 0.0
C909 C 0.82544 0.1698 0.6207 0.0
H910 H 0.83686 0.17207 0.77052 0.0
H911 H 0.89659 0.14195 0.7991 0.0
H912 H 0.8951 0.1434 0.73933 0.0
H913 H 0.9151 0.13324 0.76875 0.0
H914 H 0.84019 0.16187 0.58565 0.0
H915 H 0.78032 0.19211 0.55736 0.0
H916 H 0.78222 0.19047 0.61713 0.0
H917 H 0.762 0.20072 0.58782 0.0
H918 H 0.29488 0.80542 0.06408 0.0
H919 H 0.40066 0.98628 0.03323 0.0
H920 H 0.27158 0.87719 0.0786 0.0
H921 H 0.43619 0.92103 0.02995 0.0
H922 H 0.34873 0.9438 0.04475 0.0
H923 H 0.34263 0.84498 0.0469 0.0
C924 C 0.29971 0.82946 0.06356 0.0
C925 C 0.27935 0.83808 0.07291 0.0
C926 C 0.3677 0.93861 0.04128 0.0
C927 C 0.3338 0.88336 0.05326 0.0
C928 C 0.39723 0.96279 0.03461 0.0
C929 C 0.42252 0.95702 0.03046 0.0
C930 C 0.36351 0.90844 0.04404 0.0
C931 C 0.41709 0.92632 0.03269 0.0
C932 C 0.32699 0.85201 0.05381 0.0
C933 C 0.28687 0.86959 0.07186 0.0
N934 N 0.38817 0.90315 0.03943 0.0
N935 N 0.31346 0.89105 0.06223 0.0
H936 H 0.20327 0.48756 0.06255 0.0
H937 H 0.01471 0.41267 0.03822 0.0
H938 H 0.12936 0.39402 0.07866 0.0
H939 H 0.08225 0.51218 0.0344 0.0
H940 H 0.0585 0.40427 0.04901 0.0
H941 H 0.16135 0.49581 0.04794 0.0
C942 C 0.1783 0.46871 0.0629 0.0
C943 C 0.16977 0.44017 0.07203 0.0
C944 C 0.06389 0.42795 0.04566 0.0
C945 C 0.12182 0.44942 0.05538 0.0
C946 C 0.03891 0.43271 0.03946 0.0
C947 C 0.04504 0.46303 0.03501 0.0
C948 C 0.0953 0.45378 0.04767 0.0
C949 C 0.07669 0.48831 0.03721 0.0
C950 C 0.1544 0.47349 0.05466 0.0
C951 C 0.13702 0.41658 0.07208 0.0
N952 N 0.10069 0.48313 0.04335 0.0
N953 N 0.11434 0.42174 0.06393 0.0
H954 H 0.51624 0.71757 0.07262 0.0
H955 H 0.57085 0.59191 0.0482 0.0
H956 H 0.60924 0.72895 0.08741 0.0
H957 H 0.48457 0.58763 0.02594 0.0
H958 H 0.58406 0.64094 0.06384 0.0
H959 H 0.50302 0.66871 0.05655 0.0
C960 C 0.53394 0.70986 0.07243 0.0
C961 C 0.56393 0.72742 0.08136 0.0
C962 C 0.56231 0.62935 0.05547 0.0
C963 C 0.54879 0.67135 0.06317 0.0
C964 C 0.5547 0.6013 0.04654 0.0
C965 C 0.52661 0.58567 0.03566 0.0
C966 C 0.54158 0.64181 0.05364 0.0
C967 C 0.50663 0.59901 0.03405 0.0
C968 C 0.52632 0.68192 0.06331 0.0
C969 C 0.58568 0.71599 0.08093 0.0
N970 N 0.51447 0.62629 0.04299 0.0
N971 N 0.57767 0.68869 0.07199 0.0
H972 H 0.87362 0.26512 0.93899 0.0
H973 H 0.89317 0.41116 0.99907 0.0
H974 H 0.79273 0.27405 0.95835 0.0
H975 H 0.97372 0.40322 0.97789 0.0
H976 H 0.85599 0.36055 0.98494 0.0
H977 H 0.91053 0.31532 0.95361 0.0
C978 C 0.8636 0.27774 0.94622 0.0
C979 C 0.82997 0.26539 0.94733 0.0
C980 C 0.88179 0.36984 0.98342 0.0
C981 C 0.87223 0.32286 0.96436 0.0
C982 C 0.9031 0.39871 0.99157 0.0
C983 C 0.93671 0.41142 0.98982 0.0
C984 C 0.89412 0.35351 0.97337 0.0
C985 C 0.94805 0.39439 0.97964 0.0
C986 C 0.88472 0.30635 0.95466 0.0
C987 C 0.81844 0.28252 0.95725 0.0
N988 N 0.92681 0.36633 0.97182 0.0
N989 N 0.83952 0.3104 0.96535 0.0
H990 H 0.71614 0.51007 0.96197 0.0
H991 H 0.60571 0.58555 0.98828 0.0
H992 H 0.73681 0.60265 0.94473 0.0
H993 H 0.57028 0.48587 0.99187 0.0
H994 H 0.65767 0.59351 0.97683 0.0
H995 H 0.66622 0.50201 0.97725 0.0
C996 C 0.71026 0.52873 0.96146 0.0
C997 C 0.73058 0.55699 0.95189 0.0
C998 C 0.6387 0.56989 0.98029 0.0
C999 C 0.67368 0.54798 0.96941 0.0
C1000 C 0.6091 0.56538 0.98691 0.0
C1001 C 0.58387 0.53511 0.99133 0.0
C1002 C 0.64317 0.54389 0.97787 0.0
C1003 C 0.58934 0.50968 0.98902 0.0
C1004 C 0.68172 0.52405 0.97011 0.0
C1005 C 0.72167 0.5803 0.95165 0.0
N1006 N 0.61842 0.51463 0.98245 0.0
N1007 N 0.69402 0.5753 0.96027 0.0
H1008 H 0.4336 0.18111 0.97454 0.0
H1009 H 0.45739 0.03418 0.96598 0.0
H1010 H 0.44177 0.14581 0.92057 0.0
H1011 H 0.50554 0.10285 0.00951 0.0
H1012 H 0.44283 0.06989 0.95088 0.0
H1013 H 0.4516 0.14768 0.98945 0.0
C1014 C 0.43938 0.16661 0.96575 0.0
C1015 C 0.43628 0.16656 0.94616 0.0
C1016 C 0.45656 0.07706 0.96376 0.0
C1017 C 0.45581 0.12751 0.96335 0.0
C1018 C 0.46482 0.05667 0.97249 0.0
C1019 C 0.48241 0.06528 0.98929 0.0
C1020 C 0.46534 0.10605 0.97203 0.0
C1021 C 0.49153 0.09496 0.99683 0.0
C1022 C 0.44951 0.14745 0.97434 0.0
C1023 C 0.44321 0.14638 0.9357 0.0
N1024 N 0.48255 0.1142 0.98825 0.0
N1025 N 0.45243 0.1275 0.94444 0.0
H1026 H 0.7377 0.12076 0.94374 0.0
H1027 H 0.572 0.07883 0.99531 0.0
H1028 H 0.71292 0.19148 0.95832 0.0
H1029 H 0.60771 0.01402 0.98942 0.0
H1030 H 0.62369 0.12114 0.98295 0.0
H1031 H 0.68989 0.08158 0.96068 0.0
C1032 C 0.72207 0.128 0.95043 0.0
C1033 C 0.72918 0.15938 0.94948 0.0
C1034 C 0.62037 0.09776 0.98461 0.0
C1035 C 0.67437 0.11461 0.96912 0.0
C1036 C 0.59099 0.0737 0.99179 0.0
C1037 C 0.58582 0.04302 0.99353 0.0
C1038 C 0.64433 0.09083 0.97879 0.0
C1039 C 0.61086 0.03742 0.98835 0.0
C1040 C 0.69489 0.10567 0.96027 0.0
C1041 C 0.70837 0.16754 0.95875 0.0
N1042 N 0.63889 0.061 0.98109 0.0
N1043 N 0.68176 0.14525 0.96807 0.0
H1044 H 0.80305 0.51011 0.96243 0.0
H1045 H 0.99151 0.58481 0.98694 0.0
H1046 H 0.87709 0.60356 0.94626 0.0
H1047 H 0.92384 0.48532 0.99071 0.0
H1048 H 0.94778 0.5933 0.97613 0.0
H1049 H 0.84488 0.50185 0.97716 0.0
C1050 C 0.82803 0.52893 0.9621 0.0
C1051 C 0.83664 0.55744 0.95291 0.0
C1052 C 0.94235 0.56961 0.97947 0.0
C1053 C 0.88447 0.54819 0.96969 0.0
C1054 C 0.96729 0.5648 0.98568 0.0
C1055 C 0.96111 0.53445 0.99012 0.0
C1056 C 0.91093 0.5438 0.97744 0.0
C1057 C 0.92944 0.5092 0.98791 0.0
C1058 C 0.85187 0.52415 0.9704 0.0
C1059 C 0.86939 0.58101 0.95288 0.0
N1060 N 0.90548 0.51443 0.98176 0.0
N1061 N 0.89201 0.57586 0.96109 0.0
H1062 H 0.39008 0.26588 0.93902 0.0
H1063 H 0.52257 0.4117 0.99772 0.0
H1064 H 0.48519 0.28017 0.95111 0.0
H1065 H 0.43539 0.40621 0.97605 0.0
H1066 H 0.50791 0.3619 0.98241 0.0
H1067 H 0.40528 0.31617 0.95378 0.0
C1068 C 0.41427 0.27972 0.94463 0.0
C1069 C 0.43638 0.26875 0.94384 0.0
C1070 C 0.49202 0.37163 0.98101 0.0
C1071 C 0.45372 0.32609 0.96107 0.0
C1072 C 0.50027 0.39997 0.98983 0.0
C1073 C 0.48009 0.41308 0.98825 0.0
C1074 C 0.46335 0.35625 0.97057 0.0
C1075 C 0.45169 0.397 0.97766 0.0
C1076 C 0.42286 0.30835 0.95316 0.0
C1077 C 0.46719 0.28745 0.95165 0.0
N1078 N 0.44413 0.36939 0.96926 0.0
N1079 N 0.47491 0.31517 0.95999 0.0
H1080 H 0.21703 0.72372 0.06542 0.0
H1081 H 0.03177 0.59361 0.04752 0.0
H1082 H 0.13577 0.73105 0.08587 0.0
H1083 H 0.11278 0.58663 0.02614 0.0
H1084 H 0.0696 0.6438 0.06185 0.0
H1085 H 0.17932 0.67345 0.05093 0.0
C1086 C 0.19127 0.71482 0.06681 0.0
C1087 C 0.17957 0.73164 0.07691 0.0
C1088 C 0.07911 0.63134 0.05397 0.0
C1089 C 0.13624 0.67395 0.06047 0.0
C1090 C 0.0575 0.60262 0.04578 0.0
C1091 C 0.06906 0.58592 0.03545 0.0
C1092 C 0.11259 0.64349 0.05191 0.0
C1093 C 0.10271 0.59883 0.03375 0.0
C1094 C 0.16974 0.68604 0.05861 0.0
C1095 C 0.14591 0.71872 0.07846 0.0
N1096 N 0.12326 0.62682 0.04188 0.0
N1097 N 0.12547 0.6907 0.07032 0.0
H1098 H 0.29016 0.48782 0.06274 0.0
H1099 H 0.40098 0.41304 0.03575 0.0
H1100 H 0.27011 0.39536 0.07983 0.0
H1101 H 0.43589 0.51261 0.032 0.0
H1102 H 0.34908 0.40489 0.04745 0.0
H1103 H 0.34002 0.49613 0.04726 0.0
C1104 C 0.29616 0.46924 0.06318 0.0
C1105 C 0.27601 0.44094 0.07276 0.0
C1106 C 0.36792 0.42853 0.0439 0.0
C1107 C 0.33286 0.45023 0.05499 0.0
C1108 C 0.39748 0.43315 0.03714 0.0
C1109 C 0.42256 0.46344 0.03262 0.0
C1110 C 0.36332 0.45444 0.04637 0.0
C1111 C 0.41695 0.48877 0.03494 0.0
C1112 C 0.32466 0.47406 0.05441 0.0
C1113 C 0.28509 0.41774 0.07291 0.0
N1114 N 0.38791 0.48372 0.04166 0.0
N1115 N 0.3127 0.42288 0.06417 0.0
H1116 H 0.61046 0.87175 0.08811 0.0
H1117 H 0.48398 0.89149 0.02435 0.0
H1118 H 0.51704 0.79407 0.07283 0.0
H1119 H 0.56868 0.9693 0.04903 0.0
H1120 H 0.49744 0.85507 0.03999 0.0
H1121 H 0.59687 0.90771 0.07222 0.0
C1122 C 0.58697 0.86227 0.08156 0.0
C1123 C 0.56485 0.82983 0.08184 0.0
C1124 C 0.51305 0.88013 0.04195 0.0
C1125 C 0.54937 0.87083 0.0633 0.0
C1126 C 0.50549 0.90094 0.03294 0.0
C1127 C 0.52526 0.93352 0.03535 0.0
C1128 C 0.54063 0.89203 0.05334 0.0
C1129 C 0.55266 0.9444 0.04679 0.0
C1130 C 0.57931 0.88279 0.07238 0.0
C1131 C 0.53502 0.81885 0.07277 0.0
N1132 N 0.55953 0.92371 0.05533 0.0
N1133 N 0.52817 0.83931 0.06384 0.0
H1134 H 0.96492 0.13847 0.40007 0.0
H1135 H 0.06804 0.31873 0.36744 0.0
H1136 H 0.93905 0.20918 0.41251 0.0
H1137 H 0.10427 0.25408 0.3638 0.0
H1138 H 0.0167 0.27619 0.37955 0.0
H1139 H 0.01255 0.1781 0.38283 0.0
C1140 C 0.96919 0.16229 0.39912 0.0
C1141 C 0.9481 0.1706 0.40788 0.0
C1142 C 0.03568 0.27113 0.3759 0.0
C1143 C 1.00243 0.21595 0.38815 0.0
C1144 C 0.06488 0.29536 0.3689 0.0
C1145 C 0.09019 0.28976 0.36444 0.0
C1146 C 0.03186 0.24111 0.37872 0.0
C1147 C 0.08513 0.25921 0.36677 0.0
C1148 C 0.99641 0.18489 0.38932 0.0
C1149 C 0.95492 0.20184 0.40626 0.0
N1150 N 0.05654 0.236 0.37386 0.0
N1151 N 0.98144 0.22333 0.39661 0.0
H1152 H 0.79843 0.72814 0.41591 0.0
H1153 H 0.75078 0.84651 0.36737 0.0
H1154 H 0.87047 0.82107 0.39761 0.0
H1155 H 0.68498 0.74706 0.37409 0.0
H1156 H 0.79498 0.83909 0.3791 0.0
H1157 H 0.7565 0.73593 0.40167 0.0
C1158 C 0.80542 0.75028 0.40894 0.0
C1159 C 0.83802 0.77409 0.40811 0.0
C1160 C 0.77093 0.81887 0.37785 0.0
C1161 C 0.7899 0.78321 0.39161 0.0
C1162 C 0.74577 0.82307 0.37107 0.0
C1163 C 0.71437 0.7972 0.36934 0.0
C1164 C 0.76442 0.7887 0.38338 0.0
C1165 C 0.70894 0.76753 0.37496 0.0
C1166 C 0.78145 0.75466 0.40068 0.0
C1167 C 0.84565 0.80208 0.39856 0.0
N1168 N 0.73363 0.7641 0.38171 0.0
N1169 N 0.82175 0.80599 0.39081 0.0
H1170 H 0.18443 0.05175 0.40377 0.0
H1171 H 0.2385 0.92504 0.38142 0.0
H1172 H 0.27604 0.06181 0.4206 0.0
H1173 H 0.15315 0.9212 0.35799 0.0
H1174 H 0.25172 0.97436 0.39666 0.0
H1175 H 0.17171 0.00312 0.3876 0.0
C1176 C 0.20195 0.04382 0.40399 0.0
C1177 C 0.23136 0.06089 0.41355 0.0
C1178 C 0.23017 0.96282 0.38812 0.0
C1179 C 0.21678 0.00508 0.39526 0.0
C1180 C 0.22256 0.93459 0.37941 0.0
C1181 C 0.1947 0.91898 0.36835 0.0
C1182 C 0.20969 0.97547 0.38586 0.0
C1183 C 0.175 0.93254 0.36627 0.0
C1184 C 0.1946 0.01599 0.39481 0.0
C1185 C 0.25289 0.0492 0.41363 0.0
N1186 N 0.18283 0.95999 0.37501 0.0
N1187 N 0.24516 0.02201 0.40463 0.0
H1188 H 0.48802 0.57848 0.30891 0.0
H1189 H 0.62409 0.75833 0.29567 0.0
H1190 H 0.51016 0.62605 0.25535 0.0
H1191 H 0.57952 0.71876 0.34895 0.0
H1192 H 0.58634 0.70851 0.28062 0.0
H1193 H 0.52455 0.62851 0.32388 0.0
C1194 C 0.50027 0.59943 0.30028 0.0
C1195 C 0.49584 0.59789 0.28078 0.0
C1196 C 0.5847 0.71081 0.2956 0.0
C1197 C 0.53842 0.65522 0.29788 0.0
C1198 C 0.60634 0.73913 0.3042 0.0
C1199 C 0.6046 0.74277 0.32357 0.0
C1200 C 0.56152 0.68577 0.30651 0.0
C1201 C 0.58112 0.71724 0.33397 0.0
C1202 C 0.5213 0.62797 0.30886 0.0
C1203 C 0.51311 0.62586 0.27036 0.0
N1204 N 0.56058 0.68974 0.32533 0.0
N1205 N 0.53372 0.65331 0.27902 0.0
H1206 H 0.38309 0.84004 0.29594 0.0
H1207 H 0.27419 0.91751 0.3212 0.0
H1208 H 0.4034 0.93147 0.2765 0.0
H1209 H 0.23851 0.81795 0.32642 0.0
H1210 H 0.3257 0.92471 0.30942 0.0
H1211 H 0.33389 0.83317 0.31147 0.0
C1212 C 0.3773 0.85873 0.29501 0.0
C1213 C 0.39735 0.88632 0.28478 0.0
C1214 C 0.30677 0.9013 0.31332 0.0
C1215 C 0.34117 0.87864 0.3026 0.0
C1216 C 0.27744 0.89721 0.32013 0.0
C1217 C 0.25224 0.86719 0.32506 0.0
C1218 C 0.31103 0.87512 0.31125 0.0
C1219 C 0.25754 0.8416 0.32315 0.0
C1220 C 0.34916 0.85472 0.30381 0.0
C1221 C 0.3885 0.90965 0.28398 0.0
N1222 N 0.28636 0.84614 0.31639 0.0
N1223 N 0.3612 0.90531 0.29277 0.0
H1224 H 0.05917 0.45659 0.27099 0.0
H1225 H 0.18897 0.43985 0.3334 0.0
H1226 H 0.15183 0.53549 0.28618 0.0
H1227 H 0.10468 0.36109 0.30907 0.0
H1228 H 0.17404 0.47555 0.3182 0.0
H1229 H 0.07415 0.42132 0.2865 0.0
C1230 C 0.08277 0.46649 0.27744 0.0
C1231 C 0.10427 0.49908 0.27725 0.0
C1232 C 0.15885 0.45043 0.31623 0.0
C1233 C 0.12135 0.45884 0.29534 0.0
C1234 C 0.16725 0.43003 0.32498 0.0
C1235 C 0.14802 0.3974 0.32256 0.0
C1236 C 0.13097 0.43807 0.30505 0.0
C1237 C 0.12031 0.38605 0.31134 0.0
C1238 C 0.09123 0.44635 0.28641 0.0
C1239 C 0.1343 0.51058 0.28619 0.0
N1240 N 0.11262 0.40634 0.30303 0.0
N1241 N 0.14192 0.4905 0.2949 0.0
H1242 H 0.40482 0.45303 0.27653 0.0
H1243 H 0.23802 0.41094 0.32686 0.0
H1244 H 0.37859 0.5232 0.28981 0.0
H1245 H 0.27366 0.34601 0.32146 0.0
H1246 H 0.2897 0.45309 0.31452 0.0
H1247 H 0.35667 0.41372 0.2932 0.0
C1248 C 0.38879 0.46011 0.28287 0.0
C1249 C 0.39564 0.4914 0.28167 0.0
C1250 C 0.28639 0.42972 0.31627 0.0
C1251 C 0.34049 0.44651 0.301 0.0
C1252 C 0.257 0.40575 0.32348 0.0
C1253 C 0.25184 0.3751 0.3254 0.0
C1254 C 0.31038 0.42274 0.3106 0.0
C1255 C 0.27685 0.36942 0.32029 0.0
C1256 C 0.36144 0.43772 0.29255 0.0
C1257 C 0.3743 0.49936 0.29046 0.0
N1258 N 0.30492 0.39292 0.31302 0.0
N1259 N 0.34758 0.47703 0.29966 0.0
H1260 H 0.51024 0.91639 0.30712 0.0
H1261 H 0.65492 0.91547 0.32307 0.0
H1262 H 0.49762 0.84663 0.26631 0.0
H1263 H 0.59312 0.81475 0.32144 0.0
H1264 H 0.60966 0.92159 0.31184 0.0
H1265 H 0.55296 0.90981 0.32211 0.0
C1266 C 0.51624 0.89944 0.30148 0.0
C1267 C 0.50061 0.88212 0.28544 0.0
C1268 C 0.60596 0.89818 0.31418 0.0
C1269 C 0.54902 0.87441 0.30247 0.0
C1270 C 0.63171 0.89469 0.32049 0.0
C1271 C 0.62738 0.86462 0.32369 0.0
C1272 C 0.57606 0.87138 0.31031 0.0
C1273 C 0.5971 0.83836 0.31965 0.0
C1274 C 0.54065 0.89586 0.30993 0.0
C1275 C 0.5093 0.86051 0.2786 0.0
N1276 N 0.57261 0.84233 0.31297 0.0
N1277 N 0.53284 0.85711 0.28722 0.0
H1278 H 0.0583 0.59916 0.27193 0.0
H1279 H 0.18891 0.74256 0.33317 0.0
H1280 H 0.15136 0.61073 0.28679 0.0
H1281 H 0.10364 0.73885 0.30973 0.0
H1282 H 0.17376 0.69231 0.31828 0.0
H1283 H 0.07307 0.64881 0.28742 0.0
C1284 C 0.08193 0.61223 0.27834 0.0
C1285 C 0.10364 0.60077 0.27802 0.0
C1286 C 0.15837 0.70251 0.31642 0.0
C1287 C 0.1205 0.6574 0.29604 0.0
C1288 C 0.16691 0.73112 0.325 0.0
C1289 C 0.14745 0.74491 0.32275 0.0
C1290 C 0.13015 0.68756 0.30557 0.0
C1291 C 0.11941 0.72916 0.31183 0.0
C1292 C 0.09027 0.6405 0.28727 0.0
C1293 C 0.13369 0.61845 0.28689 0.0
N1294 N 0.11159 0.70132 0.30367 0.0
N1295 N 0.14122 0.64588 0.29555 0.0
H1296 H 0.83532 0.03732 0.43712 0.0
H1297 H 0.76106 0.94251 0.34253 0.0
H1298 H 0.85432 0.08176 0.38267 0.0
H1299 H 0.72069 0.90495 0.3969 0.0
H1300 H 0.79966 0.99223 0.35705 0.0
H1301 H 0.79719 0.98719 0.4227 0.0
C1302 C 0.83145 0.03664 0.42216 0.0
C1303 C 0.84808 0.06398 0.41113 0.0
C1304 C 0.78241 0.97311 0.36583 0.0
C1305 C 0.8048 0.00643 0.39453 0.0
C1306 C 0.76062 0.94459 0.35754 0.0
C1307 C 0.73805 0.91944 0.36853 0.0
C1308 C 0.78179 0.97645 0.38531 0.0
C1309 C 0.73774 0.92384 0.38792 0.0
C1310 C 0.80974 0.00795 0.41394 0.0
C1311 C 0.8425 0.06134 0.39173 0.0
N1312 N 0.75946 0.95175 0.39573 0.0
N1313 N 0.82139 0.03311 0.38407 0.0
H1314 H 0.95819 0.82156 0.39579 0.0
H1315 H 0.06845 0.74625 0.36851 0.0
H1316 H 0.93811 0.729 0.41263 0.0
H1317 H 0.10357 0.84584 0.3646 0.0
H1318 H 0.0164 0.73818 0.37981 0.0
H1319 H 0.00755 0.82957 0.37974 0.0
C1320 C 0.96404 0.80287 0.39601 0.0
C1321 C 0.94413 0.77467 0.40574 0.0
C1322 C 0.03531 0.7618 0.37631 0.0
C1323 C 1.00034 0.7836 0.38735 0.0
C1324 C 0.06497 0.76638 0.36978 0.0
C1325 C 0.09017 0.79666 0.36537 0.0
C1326 C 0.03074 0.78776 0.37868 0.0
C1327 C 0.08455 0.82202 0.36749 0.0
C1328 C 0.99225 0.80751 0.38693 0.0
C1329 C 0.95296 0.7513 0.40559 0.0
N1330 N 0.05542 0.81702 0.37404 0.0
N1331 N 0.98028 0.75628 0.39658 0.0
H1332 H 0.27707 0.20521 0.42205 0.0
H1333 H 0.15191 0.22486 0.35688 0.0
H1334 H 0.18521 0.12747 0.40466 0.0
H1335 H 0.2362 0.3029 0.38173 0.0
H1336 H 0.16543 0.18863 0.37261 0.0
H1337 H 0.26372 0.24139 0.40612 0.0
C1338 C 0.254 0.19576 0.41501 0.0
C1339 C 0.23228 0.16324 0.41466 0.0
C1340 C 0.18096 0.2137 0.37459 0.0
C1341 C 0.21705 0.20446 0.39615 0.0
C1342 C 0.17336 0.23441 0.36553 0.0
C1343 C 0.19299 0.267 0.36794 0.0
C1344 C 0.20842 0.22567 0.38609 0.0
C1345 C 0.22031 0.27798 0.37947 0.0
C1346 C 0.24647 0.21641 0.40582 0.0
C1347 C 0.20293 0.15231 0.40505 0.0
N1348 N 0.22721 0.25736 0.3881 0.0
N1349 N 0.19621 0.17286 0.39615 0.0
H1350 H 0.6307 0.47363 0.73507 0.0
H1351 H 0.73403 0.65332 0.70133 0.0
H1352 H 0.60492 0.54459 0.74691 0.0
H1353 H 0.77004 0.58845 0.69819 0.0
H1354 H 0.68279 0.61113 0.71381 0.0
H1355 H 0.67849 0.51301 0.71786 0.0
C1356 C 0.63503 0.49746 0.734 0.0
C1357 C 0.61386 0.50587 0.74256 0.0
C1358 C 0.70171 0.60594 0.71019 0.0
C1359 C 0.66843 0.55099 0.72284 0.0
C1360 C 0.73085 0.62997 0.70297 0.0
C1361 C 0.75609 0.62424 0.69856 0.0
C1362 C 0.69785 0.57596 0.71326 0.0
C1363 C 0.75097 0.5937 0.70114 0.0
C1364 C 0.66235 0.51992 0.72421 0.0
C1365 C 0.62081 0.53715 0.74081 0.0
N1366 N 0.72244 0.57069 0.70842 0.0
N1367 N 0.64743 0.55851 0.73116 0.0
H1368 H 0.53933 0.15718 0.73003 0.0
H1369 H 0.3499 0.081 0.70809 0.0
H1370 H 0.46598 0.06542 0.74928 0.0
H1371 H 0.41721 0.18012 0.70139 0.0
H1372 H 0.39392 0.07365 0.71969 0.0
H1373 H 0.49674 0.16475 0.71579 0.0
C1374 C 0.51433 0.1386 0.7312 0.0
C1375 C 0.50622 0.11074 0.74104 0.0
C1376 C 0.39921 0.09701 0.71557 0.0
C1377 C 0.45746 0.11922 0.72478 0.0
C1378 C 0.37409 0.10118 0.70892 0.0
C1379 C 0.38008 0.13106 0.7034 0.0
C1380 C 0.43065 0.12299 0.71694 0.0
C1381 C 0.41175 0.15655 0.70507 0.0
C1382 C 0.49005 0.14301 0.72316 0.0
C1383 C 0.47338 0.0875 0.74214 0.0
N1384 N 0.43592 0.15193 0.71162 0.0
N1385 N 0.45033 0.09225 0.73413 0.0
H1386 H 0.89608 0.36923 0.77374 0.0
H1387 H 0.83072 0.26398 0.6843 0.0
H1388 H 0.90154 0.41165 0.71967 0.0
H1389 H 0.89181 0.25013 0.72317 0.0
H1390 H 0.84496 0.31357 0.69979 0.0
H1391 H 0.88338 0.32026 0.75797 0.0
C1392 C 0.89487 0.36851 0.75861 0.0
C1393 C 0.90007 0.39496 0.7481 0.0
C1394 C 0.85529 0.29962 0.70478 0.0
C1395 C 0.88416 0.33845 0.73018 0.0
C1396 C 0.84739 0.27143 0.69589 0.0
C1397 C 0.86072 0.25315 0.70207 0.0
C1398 C 0.87573 0.30902 0.72037 0.0
C1399 C 0.88123 0.26357 0.71773 0.0
C1400 C 0.88737 0.34043 0.74968 0.0
C1401 C 0.89709 0.39193 0.7285 0.0
N1402 N 0.88792 0.29073 0.72645 0.0
N1403 N 0.88906 0.36411 0.72019 0.0
H1404 H 0.17418 0.96183 0.58814 0.0
H1405 H 0.24548 0.05412 0.68376 0.0
H1406 H 0.15465 0.91531 0.64197 0.0
H1407 H 0.28911 0.09207 0.63004 0.0
H1408 H 0.20719 0.00474 0.66865 0.0
H1409 H 0.21206 0.01139 0.60321 0.0
C1410 C 0.17789 0.9619 0.60309 0.0
C1411 C 0.1611 0.93414 0.61374 0.0
C1412 C 0.22511 0.02389 0.66016 0.0
C1413 C 0.20405 0.99111 0.63112 0.0
C1414 C 0.24672 0.05221 0.66877 0.0
C1415 C 0.27017 0.07733 0.65813 0.0
C1416 C 0.22677 0.02081 0.64071 0.0
C1417 C 0.27141 0.07318 0.63877 0.0
C1418 C 0.19944 0.99029 0.61168 0.0
C1419 C 0.16652 0.93606 0.63317 0.0
N1420 N 0.24985 0.04552 0.63064 0.0
N1421 N 0.18743 0.96402 0.64121 0.0
H1422 H 0.07375 0.27004 0.60981 0.0
H1423 H 0.90564 0.15191 0.65968 0.0
H1424 H 0.05071 0.17693 0.62743 0.0
H1425 H 0.94281 0.25167 0.65405 0.0
H1426 H 0.95755 0.1593 0.64794 0.0
H1427 H 0.02466 0.2625 0.62527 0.0
C1428 C 0.05825 0.2479 0.61687 0.0
C1429 C 0.06629 0.22399 0.61716 0.0
C1430 C 0.95447 0.17961 0.64949 0.0
C1431 C 0.00976 0.21517 0.6351 0.0
C1432 C 0.92493 0.17542 0.65632 0.0
C1433 C 0.92014 0.20133 0.65814 0.0
C1434 C 0.97904 0.2098 0.64402 0.0
C1435 C 0.9456 0.23112 0.65302 0.0
C1436 C 0.03029 0.24368 0.62585 0.0
C1437 C 0.04549 0.19602 0.62688 0.0
N1438 N 0.97378 0.2345 0.64613 0.0
N1439 N 0.01805 0.19226 0.63532 0.0
H1440 H 0.77598 0.81176 0.58458 0.0
H1441 H 0.84506 0.77199 0.67458 0.0
H1442 H 0.77543 0.85136 0.63854 0.0
H1443 H 0.78836 0.70076 0.6338 0.0
H1444 H 0.83082 0.80786 0.65897 0.0
H1445 H 0.79138 0.77669 0.60004 0.0
C1446 C 0.77891 0.81311 0.59963 0.0
C1447 C 0.77422 0.83467 0.61021 0.0
C1448 C 0.82151 0.7843 0.65355 0.0
C1449 C 0.79301 0.7953 0.62778 0.0
C1450 C 0.82946 0.76374 0.6625 0.0
C1451 C 0.81733 0.733 0.65581 0.0
C1452 C 0.80214 0.77434 0.63749 0.0
C1453 C 0.798 0.72406 0.63965 0.0
C1454 C 0.78793 0.7932 0.60839 0.0
C1455 C 0.77934 0.8357 0.62966 0.0
N1456 N 0.79115 0.74469 0.63098 0.0
N1457 N 0.78863 0.81643 0.6378 0.0
H1458 H 0.04467 0.86036 0.62495 0.0
H1459 H 0.94074 0.67999 0.6572 0.0
H1460 H 0.06847 0.78885 0.61065 0.0
H1461 H 0.90501 0.745 0.66136 0.0
H1462 H 0.99176 0.72222 0.64454 0.0
H1463 H 0.99706 0.82076 0.6422 0.0
C1464 C 0.03995 0.83636 0.6255 0.0
C1465 C 0.06051 0.82786 0.61626 0.0
C1466 C 0.97295 0.72741 0.64841 0.0
C1467 C 0.00616 0.78251 0.63601 0.0
C1468 C 0.94393 0.70337 0.65572 0.0
C1469 C 0.91883 0.70912 0.66047 0.0
C1470 C 0.97685 0.75747 0.64561 0.0
C1471 C 0.92397 0.73971 0.65813 0.0
C1472 C 0.01274 0.81378 0.6353 0.0
C1473 C 0.05306 0.79637 0.61733 0.0
N1474 N 0.95241 0.76277 0.65077 0.0
N1475 N 0.02657 0.7749 0.62703 0.0
H1476 H 0.13759 0.17581 0.62812 0.0
H1477 H 0.32584 0.25097 0.65319 0.0
H1478 H 0.21212 0.26809 0.6104 0.0
H1479 H 0.25825 0.15165 0.6584 0.0
H1480 H 0.28234 0.25882 0.64125 0.0
H1481 H 0.1793 0.16774 0.64321 0.0
C1482 C 0.16265 0.19441 0.62749 0.0
C1483 C 0.17141 0.22255 0.6178 0.0
C1484 C 0.27686 0.2353 0.64512 0.0
C1485 C 0.21911 0.21351 0.63501 0.0
C1486 C 0.30168 0.23085 0.65197 0.0
C1487 C 0.29545 0.20077 0.65718 0.0
C1488 C 0.24549 0.2094 0.64321 0.0
C1489 C 0.26386 0.17537 0.65499 0.0
C1490 C 0.18643 0.18972 0.636 0.0
C1491 C 0.20427 0.24582 0.61742 0.0
N1492 N 0.23998 0.18025 0.64823 0.0
N1493 N 0.22681 0.24078 0.62586 0.0
H1494 H 0.77454 0.96067 0.58372 0.0
H1495 H 0.8466 0.06957 0.67185 0.0
H1496 H 0.77459 0.9215 0.63806 0.0
H1497 H 0.78529 0.08349 0.63319 0.0
H1498 H 0.83163 0.01963 0.65659 0.0
H1499 H 0.78925 0.01073 0.59881 0.0
C1500 C 0.77743 0.96235 0.59877 0.0
C1501 C 0.77319 0.93651 0.60957 0.0
C1502 C 0.82144 0.03369 0.65157 0.0
C1503 C 0.79127 0.99418 0.62667 0.0
C1504 C 0.82977 0.06209 0.66034 0.0
C1505 C 0.81655 0.08047 0.65417 0.0
C1506 C 0.80063 0.02413 0.63614 0.0
C1507 C 0.79579 0.06998 0.63863 0.0
C1508 C 0.78605 0.99104 0.60731 0.0
C1509 C 0.77823 0.94073 0.62901 0.0
N1510 N 0.7886 0.04256 0.63006 0.0
N1511 N 0.78725 0.96906 0.6369 0.0
H1512 H 0.50021 0.37253 0.7713 0.0
H1513 H 0.43081 0.27637 0.67661 0.0
H1514 H 0.52134 0.41659 0.71668 0.0
H1515 H 0.38647 0.24039 0.73044 0.0
H1516 H 0.46906 0.32617 0.69123 0.0
H1517 H 0.46293 0.32224 0.75675 0.0
C1518 C 0.49699 0.37175 0.75627 0.0
C1519 C 0.51397 0.39905 0.74525 0.0
C1520 C 0.45101 0.30736 0.69986 0.0
C1521 C 0.47171 0.34125 0.72849 0.0
C1522 C 0.4294 0.27878 0.69153 0.0
C1523 C 0.40573 0.25407 0.70233 0.0
C1524 C 0.44913 0.31116 0.71922 0.0
C1525 C 0.40434 0.25891 0.72159 0.0
C1526 C 0.47577 0.34295 0.74798 0.0
C1527 C 0.50925 0.39623 0.72577 0.0
N1528 N 0.42588 0.28685 0.72945 0.0
N1529 N 0.48862 0.36789 0.71803 0.0
H1530 H 0.62624 0.15738 0.72871 0.0
H1531 H 0.73512 0.08097 0.70058 0.0
H1532 H 0.60542 0.06441 0.74512 0.0
H1533 H 0.77118 0.18079 0.69716 0.0
H1534 H 0.68335 0.07329 0.71211 0.0
H1535 H 0.67548 0.1652 0.71261 0.0
C1536 C 0.6319 0.13856 0.72883 0.0
C1537 C 0.61181 0.11029 0.73845 0.0
C1538 C 0.70241 0.09688 0.70868 0.0
C1539 C 0.66789 0.119 0.72 0.0
C1540 C 0.73191 0.10124 0.70202 0.0
C1541 C 0.7573 0.13147 0.69769 0.0
C1542 C 0.69817 0.123 0.71125 0.0
C1543 C 0.75201 0.15701 0.70002 0.0
C1544 C 0.66005 0.1431 0.71972 0.0
C1545 C 0.6204 0.08676 0.73817 0.0
N1546 N 0.72302 0.15221 0.70668 0.0
N1547 N 0.64767 0.09163 0.72913 0.0
H1548 H 0.84846 0.45924 0.74151 0.0
H1549 H 0.90275 0.63766 0.71645 0.0
H1550 H 0.94251 0.53814 0.75441 0.0
H1551 H 0.81778 0.55868 0.69285 0.0
H1552 H 0.91555 0.6013 0.73226 0.0
H1553 H 0.83473 0.4951 0.72544 0.0
C1554 C 0.86626 0.48407 0.74095 0.0
C1555 C 0.89675 0.49565 0.74932 0.0
C1556 C 0.89416 0.59187 0.72358 0.0
C1557 C 0.88098 0.53681 0.73113 0.0
C1558 C 0.88677 0.61264 0.71453 0.0
C1559 C 0.85915 0.60123 0.70324 0.0
C1560 C 0.87371 0.55934 0.72149 0.0
C1561 C 0.83943 0.56853 0.70131 0.0
C1562 C 0.85834 0.50451 0.73181 0.0
C1563 C 0.91857 0.52815 0.74842 0.0
N1564 N 0.84704 0.54869 0.71042 0.0
N1565 N 0.91026 0.54754 0.7395 0.0
H1566 H 0.42322 0.89795 0.21706 0.0
H1567 H 0.56716 0.02562 0.15232 0.0
H1568 H 0.52294 0.95205 0.23434 0.0
H1569 H 0.46841 0.97209 0.13336 0.0
H1570 H 0.55101 0.99741 0.18209 0.0
H1571 H 0.43872 0.92357 0.18623 0.0
C1572 C 0.44834 0.91522 0.21443 0.0
C1573 C 0.47177 0.9227 0.22842 0.0
C1574 C 0.5328 0.9917 0.17145 0.0
C1575 C 0.48974 0.95202 0.19301 0.0
C1576 C 0.542 0.00795 0.15442 0.0
C1577 C 0.51909 0.00152 0.14029 0.0
C1578 C 0.5003 0.96872 0.17459 0.0
C1579 C 0.48696 0.97779 0.14377 0.0
C1580 C 0.4572 0.92971 0.19676 0.0
C1581 C 0.50403 0.94504 0.22401 0.0
N1582 N 0.47849 0.96241 0.16059 0.0
N1583 N 0.51196 0.95886 0.2068 0.0
H1584 H 0.07823 0.50585 0.21185 0.0
H1585 H 0.94635 0.52091 0.15055 0.0
H1586 H 0.01921 0.54295 0.23312 0.0
H1587 H 0.99766 0.4744 0.13132 0.0
H1588 H 0.9724 0.52874 0.181 0.0
H1589 H 0.04873 0.49375 0.18231 0.0
C1590 C 0.0589 0.51122 0.21037 0.0
C1591 C 0.05128 0.52555 0.22498 0.0
C1592 C 0.97788 0.51673 0.17014 0.0
C1593 C 0.01767 0.51213 0.1911 0.0
C1594 C 0.96286 0.51208 0.15277 0.0
C1595 C 0.96992 0.4971 0.13829 0.0
C1596 C 1.00022 0.5064 0.17308 0.0
C1597 C 0.9919 0.48657 0.14194 0.0
C1598 C 0.04216 0.50445 0.19346 0.0
C1599 C 0.02628 0.53238 0.22214 0.0
N1600 N 0.00634 0.49151 0.15893 0.0
N1601 N 0.01046 0.5257 0.20553 0.0
H1602 H 0.42467 0.50217 0.21468 0.0
H1603 H 0.57217 0.51984 0.15143 0.0
H1604 H 0.52327 0.54391 0.23392 0.0
H1605 H 0.47386 0.47748 0.13158 0.0
H1606 H 0.5543 0.52823 0.18183 0.0
H1607 H 0.44171 0.49207 0.18433 0.0
C1608 C 0.44985 0.50903 0.21258 0.0
C1609 C 0.47258 0.52404 0.22689 0.0
C1610 C 0.53659 0.51709 0.17084 0.0
C1611 C 0.49233 0.51281 0.19209 0.0
C1612 C 0.54677 0.51212 0.15348 0.0
C1613 C 0.52451 0.49783 0.13887 0.0
C1614 C 0.50384 0.50772 0.17374 0.0
C1615 C 0.49197 0.48889 0.14232 0.0
C1616 C 0.4596 0.50343 0.1952 0.0
C1617 C 0.50497 0.53274 0.22325 0.0
N1618 N 0.48262 0.49393 0.15938 0.0
N1619 N 0.51383 0.52702 0.20625 0.0
H1620 H 0.92584 0.48988 0.814 0.0
H1621 H 0.06048 0.47807 0.87427 0.0
H1622 H 0.98769 0.45684 0.79159 0.0
H1623 H 0.00792 0.52308 0.89395 0.0
H1624 H 0.03443 0.47039 0.84381 0.0
H1625 H 0.95589 0.50252 0.84333 0.0
C1626 C 0.94594 0.48556 0.81517 0.0
C1627 C 0.95414 0.47215 0.8003 0.0
C1628 C 0.02869 0.48206 0.85477 0.0
C1629 C 0.98838 0.48614 0.834 0.0
C1630 C 0.0437 0.48661 0.87215 0.0
C1631 C 0.03628 0.5011 0.88676 0.0
C1632 C 0.00598 0.49196 0.85197 0.0
C1633 C 0.01396 0.51126 0.88324 0.0
C1634 C 0.96299 0.49263 0.83197 0.0
C1635 C 0.98013 0.46663 0.80277 0.0
N1636 N 0.99952 0.50638 0.86625 0.0
N1637 N 0.99622 0.47353 0.81931 0.0
H1638 H 0.58496 0.49809 0.80971 0.0
H1639 H 0.4365 0.48059 0.87199 0.0
H1640 H 0.48648 0.45566 0.79018 0.0
H1641 H 0.53434 0.52239 0.89256 0.0
H1642 H 0.45496 0.47251 0.84171 0.0
H1643 H 0.56761 0.50874 0.83982 0.0
C1644 C 0.55975 0.49122 0.81169 0.0
C1645 C 0.53713 0.47578 0.7974 0.0
C1646 C 0.47245 0.48348 0.85282 0.0
C1647 C 0.51703 0.48765 0.8319 0.0
C1648 C 0.46193 0.48827 0.87012 0.0
C1649 C 0.48388 0.50228 0.8849 0.0
C1650 C 0.50523 0.49276 0.85015 0.0
C1651 C 0.51646 0.51119 0.88167 0.0
C1652 C 0.54982 0.49714 0.82893 0.0
C1653 C 0.5047 0.46714 0.80086 0.0
N1654 N 0.52615 0.50632 0.86466 0.0
N1655 N 0.49566 0.47314 0.81772 0.0
H1656 H 0.55621 0.0367 0.789 0.0
H1657 H 0.49025 0.03165 0.89329 0.0
H1658 H 0.52369 0.09974 0.8081 0.0
H1659 H 0.50752 0.95993 0.87052 0.0
H1660 H 0.50726 0.05996 0.86332 0.0
H1661 H 0.54335 0.01142 0.81982 0.0
C1662 C 0.54662 0.04543 0.79972 0.0
C1663 C 0.54101 0.07042 0.79588 0.0
C1664 C 0.50738 0.03806 0.8649 0.0
C1665 C 0.52594 0.04129 0.83132 0.0
C1666 C 0.49787 0.02198 0.88206 0.0
C1667 C 0.49724 0.99322 0.88444 0.0
C1668 C 0.51666 0.02549 0.85002 0.0
C1669 C 0.50713 0.98174 0.86928 0.0
C1670 C 0.53907 0.03082 0.81731 0.0
C1671 C 0.52808 0.08035 0.81032 0.0
N1672 N 0.51639 0.99785 0.85278 0.0
N1673 N 0.52103 0.0658 0.82737 0.0
H1674 H 0.09334 0.23736 0.54959 0.0
H1675 H 0.23698 0.36576 0.48499 0.0
H1676 H 0.19225 0.29452 0.5677 0.0
H1677 H 0.13845 0.31098 0.4658 0.0
H1678 H 0.22067 0.33857 0.51506 0.0
H1679 H 0.10884 0.26297 0.51877 0.0
C1680 C 0.11827 0.25534 0.54715 0.0
C1681 C 0.1415 0.26362 0.56135 0.0
C1682 C 0.20254 0.33239 0.50431 0.0
C1683 C 0.15949 0.2929 0.52595 0.0
C1684 C 0.21183 0.34806 0.4871 0.0
C1685 C 0.18904 0.34094 0.4728 0.0
C1686 C 0.1701 0.30926 0.50744 0.0
C1687 C 0.15694 0.31719 0.47633 0.0
C1688 C 0.12714 0.26983 0.52949 0.0
C1689 C 0.17353 0.28688 0.55719 0.0
N1690 N 0.1484 0.30233 0.4933 0.0
N1691 N 0.18149 0.30062 0.53996 0.0
H1692 H 0.74008 0.83479 0.54704 0.0
H1693 H 0.61057 0.85071 0.48417 0.0
H1694 H 0.68223 0.87377 0.56747 0.0
H1695 H 0.66065 0.80217 0.46645 0.0
H1696 H 0.63535 0.85822 0.51502 0.0
H1697 H 0.71008 0.82143 0.51775 0.0
C1698 C 0.7208 0.84021 0.54547 0.0
C1699 C 0.71377 0.85553 0.55977 0.0
C1700 C 0.6408 0.8458 0.50441 0.0
C1701 C 0.67962 0.84077 0.52601 0.0
C1702 C 0.62651 0.84134 0.4868 0.0
C1703 C 0.63367 0.82594 0.47262 0.0
C1704 C 0.66249 0.83486 0.50787 0.0
C1705 C 0.65488 0.8147 0.47681 0.0
C1706 C 0.70379 0.83274 0.52867 0.0
C1707 C 0.68887 0.86244 0.55674 0.0
N1708 N 0.66862 0.81951 0.49401 0.0
N1709 N 0.67281 0.85515 0.54017 0.0
H1710 H 0.14717 0.9053 0.54765 0.0
H1711 H 0.17599 0.78549 0.48571 0.0
H1712 H 0.12277 0.81239 0.56657 0.0
H1713 H 0.18833 0.87332 0.46454 0.0
H1714 H 0.15721 0.79514 0.51555 0.0
H1715 H 0.16295 0.89423 0.51727 0.0
C1716 C 0.14517 0.88256 0.54542 0.0
C1717 C 0.13376 0.8598 0.55973 0.0
C1718 C 0.16392 0.81226 0.50436 0.0
C1719 C 0.15175 0.84688 0.52488 0.0
C1720 C 0.17484 0.80686 0.48735 0.0
C1721 C 0.18388 0.82868 0.47259 0.0
C1722 C 0.16221 0.83982 0.50675 0.0
C1723 C 0.18137 0.85571 0.47545 0.0
C1724 C 0.15404 0.87619 0.52802 0.0
C1725 C 0.13121 0.83056 0.55592 0.0
N1726 N 0.17095 0.86058 0.4922 0.0
N1727 N 0.14032 0.82502 0.53891 0.0
H1728 H 0.5905 0.82294 0.14745 0.0
H1729 H 0.72474 0.80996 0.20762 0.0
H1730 H 0.64864 0.78499 0.12599 0.0
H1731 H 0.6733 0.85612 0.22724 0.0
H1732 H 0.69762 0.80124 0.17746 0.0
H1733 H 0.62087 0.83574 0.17671 0.0
C1734 C 0.6098 0.8175 0.14883 0.0
C1735 C 0.61695 0.80276 0.13425 0.0
C1736 C 0.69235 0.81338 0.18834 0.0
C1737 C 0.65158 0.81703 0.16779 0.0
C1738 C 0.70799 0.81854 0.20553 0.0
C1739 C 0.7012 0.83368 0.22004 0.0
C1740 C 0.66967 0.82334 0.1856 0.0
C1741 C 0.67888 0.84387 0.21659 0.0
C1742 C 0.62704 0.82468 0.16558 0.0
C1743 C 0.64193 0.79587 0.13696 0.0
N1744 N 0.66384 0.83841 0.19976 0.0
N1745 N 0.65828 0.80299 0.1534 0.0
H1746 H 0.21835 0.85404 0.12294 0.0
H1747 H 0.1542 0.7905 0.2268 0.0
H1748 H 0.19603 0.76223 0.14291 0.0
H1749 H 0.16486 0.87721 0.20476 0.0
H1750 H 0.17351 0.78166 0.19695 0.0
H1751 H 0.20311 0.86492 0.15361 0.0
C1752 C 0.21051 0.83627 0.13382 0.0
C1753 C 0.20832 0.80711 0.13031 0.0
C1754 C 0.17167 0.80264 0.19863 0.0
C1755 C 0.19058 0.81931 0.16543 0.0
C1756 C 0.1608 0.8078 0.21573 0.0
C1757 C 0.15781 0.83462 0.21831 0.0
C1758 C 0.17979 0.82452 0.18397 0.0
C1759 C 0.16636 0.856 0.20333 0.0
C1760 C 0.2016 0.84241 0.1513 0.0
C1761 C 0.19766 0.78485 0.1449 0.0
N1762 N 0.17696 0.85051 0.18684 0.0
N1763 N 0.18918 0.7914 0.16178 0.0
H1764 H 0.14919 0.36638 0.12092 0.0
H1765 H 0.20529 0.35351 0.22489 0.0
H1766 H 0.2471 0.42481 0.1403 0.0
H1767 H 0.1078 0.29745 0.20433 0.0
H1768 H 0.22138 0.38066 0.19452 0.0
H1769 H 0.1341 0.34139 0.15164 0.0
C1770 C 0.16754 0.37415 0.13167 0.0
C1771 C 0.19947 0.398 0.12795 0.0
C1772 C 0.19647 0.36242 0.19668 0.0
C1773 C 0.18229 0.36895 0.1634 0.0
C1774 C 0.1872 0.34703 0.21408 0.0
C1775 C 0.15513 0.32292 0.21722 0.0
C1776 C 0.17352 0.35376 0.1823 0.0
C1777 C 0.1329 0.31541 0.20254 0.0
C1778 C 0.15891 0.35969 0.14925 0.0
C1779 C 0.22226 0.40642 0.14243 0.0
N1780 N 0.14251 0.33067 0.1858 0.0
N1781 N 0.21323 0.39199 0.1595 0.0
H1782 H 0.85744 0.63094 0.90381 0.0
H1783 H 0.80133 0.64365 0.79983 0.0
H1784 H 0.75955 0.57242 0.8844 0.0
H1785 H 0.89863 0.70031 0.82053 0.0
H1786 H 0.78532 0.61632 0.83015 0.0
H1787 H 0.87254 0.65588 0.87307 0.0
C1788 C 0.8391 0.62313 0.89304 0.0
C1789 C 0.80717 0.5993 0.89676 0.0
C1790 C 0.81017 0.63473 0.82802 0.0
C1791 C 0.82435 0.62828 0.86131 0.0
C1792 C 0.81939 0.65022 0.81066 0.0
C1793 C 0.85138 0.67455 0.80758 0.0
C1794 C 0.83309 0.64351 0.84244 0.0
C1795 C 0.87359 0.68217 0.82228 0.0
C1796 C 0.84774 0.63756 0.87546 0.0
C1797 C 0.78439 0.59082 0.88227 0.0
N1798 N 0.86403 0.6668 0.83899 0.0
N1799 N 0.79342 0.60523 0.8652 0.0
H1800 H 0.40503 0.16663 0.88157 0.0
H1801 H 0.27752 0.18521 0.81822 0.0
H1802 H 0.34845 0.20741 0.90129 0.0
H1803 H 0.32721 0.13646 0.80015 0.0
H1804 H 0.30189 0.19193 0.84909 0.0
H1805 H 0.37544 0.15366 0.85204 0.0
C1806 C 0.38614 0.17255 0.87978 0.0
C1807 C 0.37936 0.18831 0.8939 0.0
C1808 C 0.30735 0.17963 0.8384 0.0
C1809 C 0.34569 0.17394 0.86001 0.0
C1810 C 0.29328 0.17561 0.82078 0.0
C1811 C 0.30042 0.16036 0.8065 0.0
C1812 C 0.32884 0.16842 0.8418 0.0
C1813 C 0.32144 0.14886 0.81061 0.0
C1814 C 0.36937 0.1653 0.86287 0.0
C1815 C 0.3549 0.19576 0.89067 0.0
N1816 N 0.33501 0.15324 0.82784 0.0
N1817 N 0.33908 0.18865 0.87405 0.0
H1818 H 0.75568 0.16913 0.88171 0.0
H1819 H 0.90227 0.18503 0.81827 0.0
H1820 H 0.85464 0.2111 0.90035 0.0
H1821 H 0.80429 0.14452 0.79811 0.0
H1822 H 0.88459 0.19385 0.84858 0.0
H1823 H 0.77222 0.1587 0.85125 0.0
C1824 C 0.78083 0.17598 0.87945 0.0
C1825 C 0.80383 0.19118 0.8936 0.0
C1826 C 0.86689 0.18302 0.83756 0.0
C1827 C 0.82297 0.17953 0.85874 0.0
C1828 C 0.87696 0.17781 0.82024 0.0
C1829 C 0.85473 0.16386 0.80559 0.0
C1830 C 0.83427 0.17423 0.84038 0.0
C1831 C 0.82235 0.1556 0.80892 0.0
C1832 C 0.79029 0.17019 0.86202 0.0
C1833 C 0.83614 0.1998 0.88979 0.0
N1834 N 0.81308 0.16083 0.82597 0.0
N1835 N 0.8447 0.19388 0.87277 0.0
H1836 H 0.2472 0.08685 0.48015 0.0
H1837 H 0.39998 0.20696 0.54088 0.0
H1838 H 0.31595 0.18069 0.46136 0.0
H1839 H 0.32205 0.11934 0.56234 0.0
H1840 H 0.37137 0.19688 0.511 0.0
H1841 H 0.27583 0.09762 0.50991 0.0
C1842 C 0.26837 0.10974 0.48231 0.0
C1843 C 0.27932 0.13288 0.46827 0.0
C1844 C 0.36054 0.1799 0.52227 0.0
C1845 C 0.31223 0.14543 0.5023 0.0
C1846 C 0.37695 0.18553 0.53925 0.0
C1847 C 0.36331 0.16398 0.5541 0.0
C1848 C 0.33042 0.1524 0.52009 0.0
C1849 C 0.33325 0.13675 0.55133 0.0
C1850 C 0.28464 0.11593 0.49932 0.0
C1851 C 0.30661 0.16228 0.47189 0.0
N1852 N 0.31786 0.13172 0.53466 0.0
N1853 N 0.32227 0.16768 0.48853 0.0
H1854 H 0.92101 0.16292 0.47531 0.0
H1855 H 0.77468 0.14919 0.53802 0.0
H1856 H 0.82224 0.12113 0.45637 0.0
H1857 H 0.87263 0.18954 0.5582 0.0
H1858 H 0.79229 0.13999 0.50777 0.0
H1859 H 0.9045 0.17439 0.50544 0.0
C1860 C 0.89591 0.15634 0.47744 0.0
C1861 C 0.87295 0.14088 0.46331 0.0
C1862 C 0.80999 0.15088 0.51879 0.0
C1863 C 0.85383 0.15369 0.4978 0.0
C1864 C 0.79997 0.15631 0.53606 0.0
C1865 C 0.8222 0.17026 0.5507 0.0
C1866 C 0.84256 0.15945 0.51603 0.0
C1867 C 0.85456 0.17843 0.5474 0.0
C1868 C 0.88646 0.16273 0.49468 0.0
C1869 C 0.84069 0.13262 0.46694 0.0
N1870 N 0.86377 0.17295 0.53042 0.0
N1871 N 0.83212 0.1391 0.48379 0.0
H1872 H 0.8887 0.70127 0.45651 0.0
H1873 H 0.82254 0.69702 0.56064 0.0
H1874 H 0.85589 0.76427 0.47524 0.0
H1875 H 0.83893 0.62462 0.53807 0.0
H1876 H 0.83976 0.72514 0.53061 0.0
H1877 H 0.87571 0.67616 0.4874 0.0
C1878 C 0.87903 0.71003 0.46716 0.0
C1879 C 0.87335 0.73494 0.4632 0.0
C1880 C 0.83964 0.70313 0.53225 0.0
C1881 C 0.85815 0.70603 0.4987 0.0
C1882 C 0.83001 0.68716 0.54944 0.0
C1883 C 0.82908 0.65828 0.55189 0.0
C1884 C 0.84875 0.69033 0.51741 0.0
C1885 C 0.83878 0.64654 0.53677 0.0
C1886 C 0.8714 0.69552 0.48478 0.0
C1887 C 0.86033 0.74493 0.47756 0.0
N1888 N 0.84818 0.66256 0.52024 0.0
N1889 N 0.85321 0.73049 0.49463 0.0
loop_
_geom_bond_atom_site_label_1
_geom_bond_atom_site_label_2
_geom_bond_distance
_geom_bond_site_symmetry_2
_ccdc_geom_bond_type
H0 C3 0.931 . S
H1 C6 0.928 . S
H2 C8 0.930 . S
C3 H0 0.931 . S
C3 C4 1.413 . S
C3 C5 1.360 . S
C4 C3 1.413 . S
C4 C8 1.429 . S
C5 C3 1.360 . S
C5 C6 1.372 . S
C6 H1 0.928 . S
C6 C5 1.372 . S
C6 C7 1.404 . S
C7 C6 1.404 . S
C7 C8 1.391 . S
C8 H2 0.930 . S
C8 C4 1.429 . S
C8 C7 1.391 . S
H9 C12 0.931 . S
H10 C15 0.928 . S
H11 C17 0.930 . S
C12 H9 0.931 . S
C12 C13 1.413 . S
C12 C14 1.360 . S
C13 C12 1.413 . S
C13 C17 1.429 . S
C14 C12 1.360 . S
C14 C15 1.372 . S
C15 H10 0.928 . S
C15 C14 1.372 . S
C15 C16 1.404 . S
C16 C15 1.404 . S
C16 C17 1.391 . S
C17 H11 0.930 . S
C17 C13 1.429 . S
C17 C16 1.391 . S
H18 C21 0.931 . S
H19 C24 0.928 . S
H20 C26 0.930 . S
C21 H18 0.931 . S
C21 C22 1.413 . S
C21 C23 1.360 . S
C22 C21 1.413 . S
C22 C26 1.429 . S
C23 C21 1.360 . S
C23 C24 1.372 . S
C24 H19 0.928 . S
C24 C23 1.372 . S
C24 C25 1.404 . S
C25 C24 1.404 . S
C25 C26 1.391 . S
C26 H20 0.930 . S
C26 C22 1.429 . S
C26 C25 1.391 . S
H27 C30 0.931 . S
H28 C33 0.928 . S
H29 C35 0.930 . S
C30 H27 0.931 . S
C30 C31 1.413 . S
C30 C32 1.360 . S
C31 C30 1.413 . S
C31 C35 1.429 . S
C32 C30 1.360 . S
C32 C33 1.372 . S
C33 H28 0.928 . S
C33 C32 1.372 . S
C33 C34 1.404 . S
C34 C33 1.404 . S
C34 C35 1.391 . S
C35 H29 0.930 . S
C35 C31 1.429 . S
C35 C34 1.391 . S
H36 C39 0.931 . S
H37 C42 0.928 . S
H38 C44 0.930 . S
C39 H36 0.931 . S
C39 C40 1.413 . S
C39 C41 1.360 . S
C40 C39 1.413 . S
C40 C44 1.429 . S
C41 C39 1.360 . S
C41 C42 1.372 . S
C42 H37 0.928 . S
C42 C41 1.372 . S
C42 C43 1.404 . S
C43 C42 1.404 . S
C43 C44 1.391 . S
C44 H38 0.930 . S
C44 C40 1.429 . S
C44 C43 1.391 . S
H45 C48 0.931 . S
H46 C51 0.928 . S
H47 C53 0.930 . S
C48 H45 0.931 . S
C48 C49 1.413 . S
C48 C50 1.360 . S
C49 C48 1.413 . S
C49 C53 1.429 . S
C50 C48 1.360 . S
C50 C51 1.372 . S
C51 H46 0.928 . S
C51 C50 1.372 . S
C51 C52 1.404 . S
C52 C51 1.404 . S
C52 C53 1.391 . S
C53 H47 0.930 . S
C53 C49 1.429 . S
C53 C52 1.391 . S
H54 C57 0.931 . S
H55 C60 0.928 . S
H56 C62 0.930 . S
C57 H54 0.931 . S
C57 C58 1.413 . S
C57 C59 1.360 . S
C58 C57 1.413 . S
C58 C62 1.429 . S
C59 C57 1.360 . S
C59 C60 1.372 . S
C60 H55 0.928 . S
C60 C59 1.372 . S
C60 C61 1.404 . S
C61 C60 1.404 . S
C61 C62 1.391 . S
C62 H56 0.930 . S
C62 C58 1.429 . S
C62 C61 1.391 . S
H63 C66 0.931 . S
H64 C69 0.928 . S
H65 C71 0.930 . S
C66 H63 0.931 . S
C66 C67 1.413 . S
C66 C68 1.360 . S
C67 C66 1.413 . S
C67 C71 1.429 . S
C68 C66 1.360 . S
C68 C69 1.372 . S
C69 H64 0.928 . S
C69 C68 1.372 . S
C69 C70 1.404 . S
C70 C69 1.404 . S
C70 C71 1.391 . S
C71 H65 0.930 . S
C71 C67 1.429 . S
C71 C70 1.391 . S
H72 C75 0.931 . S
H73 C78 0.928 . S
H74 C80 0.930 . S
C75 H72 0.931 . S
C75 C76 1.413 . S
C75 C77 1.360 . S
C76 C75 1.413 . S
C76 C80 1.429 . S
C77 C75 1.360 . S
C77 C78 1.372 . S
C78 H73 0.928 . S
C78 C77 1.372 . S
C78 C79 1.404 . S
C79 C78 1.404 . S
C79 C80 1.391 . S
C80 H74 0.930 . S
C80 C76 1.429 . S
C80 C79 1.391 . S
H81 C84 0.931 . S
H82 C87 0.928 . S
H83 C89 0.930 . S
C84 H81 0.931 . S
C84 C85 1.413 . S
C84 C86 1.360 . S
C85 C84 1.413 . S
C85 C89 1.429 . S
C86 C84 1.360 . S
C86 C87 1.372 . S
C87 H82 0.928 . S
C87 C86 1.372 . S
C87 C88 1.404 . S
C88 C87 1.404 . S
C88 C89 1.391 . S
C89 H83 0.930 . S
C89 C85 1.429 . S
C89 C88 1.391 . S
H90 C93 0.931 . S
H91 C96 0.928 . S
H92 C98 0.930 . S
C93 H90 0.931 . S
C93 C94 1.413 . S
C93 C95 1.360 . S
C94 C93 1.413 . S
C94 C98 1.429 . S
C95 C93 1.360 . S
C95 C96 1.372 . S
C96 H91 0.928 . S
C96 C95 1.372 . S
C96 C97 1.404 . S
C97 C96 1.404 . S
C97 C98 1.391 . S
C98 H92 0.930 . S
C98 C94 1.429 . S
C98 C97 1.391 . S
H99 C102 0.931 . S
H100 C105 0.928 . S
H101 C107 0.930 . S
C102 H99 0.931 . S
C102 C103 1.413 . S
C102 C104 1.360 . S
C103 C102 1.413 . S
C103 C107 1.429 . S
C104 C102 1.360 . S
C104 C105 1.372 . S
C105 H100 0.928 . S
C105 C104 1.372 . S
C105 C106 1.404 . S
C106 C105 1.404 . S
C106 C107 1.391 . S
C107 H101 0.930 . S
C107 C103 1.429 . S
C107 C106 1.391 . S
H108 C111 0.931 . S
H109 C114 0.928 . S
H110 C116 0.930 . S
C111 H108 0.931 . S
C111 C112 1.413 . S
C111 C113 1.360 . S
C112 C111 1.413 . S
C112 C116 1.429 . S
C113 C111 1.360 . S
C113 C114 1.372 . S
C114 H109 0.928 . S
C114 C113 1.372 . S
C114 C115 1.404 . S
C115 C114 1.404 . S
C115 C116 1.391 . S
C116 H110 0.930 . S
C116 C112 1.429 . S
C116 C115 1.391 . S
H117 C120 0.931 . S
H118 C123 0.928 . S
H119 C125 0.930 . S
C120 H117 0.931 . S
C120 C121 1.413 . S
C120 C122 1.360 . S
C121 C120 1.413 . S
C121 C125 1.429 . S
C122 C120 1.360 . S
C122 C123 1.372 . S
C123 H118 0.928 . S
C123 C122 1.372 . S
C123 C124 1.404 . S
C124 C123 1.404 . S
C124 C125 1.391 . S
C125 H119 0.930 . S
C125 C121 1.429 . S
C125 C124 1.391 . S
H126 C129 0.931 . S
H127 C132 0.928 . S
H128 C134 0.930 . S
C129 H126 0.931 . S
C129 C130 1.413 . S
C129 C131 1.360 . S
C130 C129 1.413 . S
C130 C134 1.429 . S
C131 C129 1.360 . S
C131 C132 1.372 . S
C132 H127 0.928 . S
C132 C131 1.372 . S
C132 C133 1.404 . S
C133 C132 1.404 . S
C133 C134 1.391 . S
C134 H128 0.930 . S
C134 C130 1.429 . S
C134 C133 1.391 . S
H135 C138 0.931 . S
H136 C141 0.928 . S
H137 C143 0.930 . S
C138 H135 0.931 . S
C138 C139 1.413 . S
C138 C140 1.360 . S
C139 C138 1.413 . S
C139 C143 1.429 . S
C140 C138 1.360 . S
C140 C141 1.372 . S
C141 H136 0.928 . S
C141 C140 1.372 . S
C141 C142 1.404 . S
C142 C141 1.404 . S
C142 C143 1.391 . S
C143 H137 0.930 . S
C143 C139 1.429 . S
C143 C142 1.391 . S
H144 C147 0.931 . S
H145 C150 0.928 . S
H146 C152 0.930 . S
C147 H144 0.931 . S
C147 C148 1.413 . S
C147 C149 1.360 . S
C148 C147 1.413 . S
C148 C152 1.429 . S
C149 C147 1.360 . S
C149 C150 1.372 . S
C150 H145 0.928 . S
C150 C149 1.372 . S
C150 C151 1.404 . S
C151 C150 1.404 . S
C151 C152 1.391 . S
C152 H146 0.930 . S
C152 C148 1.429 . S
C152 C151 1.391 . S
H153 C156 0.931 . S
H154 C159 0.928 . S
H155 C161 0.930 . S
C156 H153 0.931 . S
C156 C157 1.413 . S
C156 C158 1.360 . S
C157 C156 1.413 . S
C157 C161 1.429 . S
C158 C156 1.360 . S
C158 C159 1.372 . S
C159 H154 0.928 . S
C159 C158 1.372 . S
C159 C160 1.404 . S
C160 C159 1.404 . S
C160 C161 1.391 . S
C161 H155 0.930 . S
C161 C157 1.429 . S
C161 C160 1.391 . S
Eu162 N193 2.657 . S
Eu162 N200 2.609 . S
Eu162 O206 2.558 . S
Eu162 O207 2.634 1_565 S
Eu162 O209 2.339 1_565 S
Eu162 O210 2.563 1_565 S
Eu162 O211 2.419 . S
Eu162 O213 2.380 1_556 S
Eu162 O214 2.432 . S
Eu162 C226 2.848 . S
C163 C166 1.429 . S
C163 C167 1.411 . S
C163 N170 1.377 . S
C164 C166 1.420 . S
C164 C168 1.423 . S
C164 C176 1.392 . S
C165 C167 1.420 . S
C165 C168 1.351 . S
C165 H188 0.931 . S
C166 C163 1.429 . S
C166 C164 1.420 . S
C166 N174 1.362 . S
C167 C163 1.411 . S
C167 C165 1.420 . S
C167 C172 1.395 . S
C168 C164 1.423 . S
C168 C165 1.351 . S
C168 H180 0.930 . S
C169 C171 1.400 . S
C169 C172 1.386 . S
C169 H181 0.930 . S
N170 C163 1.377 . S
N170 C171 1.321 . S
N170 Eu173 2.609 . S
C171 C169 1.400 . S
C171 N170 1.321 . S
C171 H178 0.930 . S
C172 C167 1.395 . S
C172 C169 1.386 . S
C172 H191 0.930 . S
Eu173 N170 2.609 . S
Eu173 N174 2.657 . S
Eu173 O207 2.344 1_554 S
Eu173 O208 2.432 . S
Eu173 O212 2.558 . S
Eu173 O213 2.612 1_545 S
Eu173 O215 2.339 1_545 S
Eu173 O216 2.563 1_545 S
Eu173 O217 2.419 . S
Eu173 C237 2.848 . S
N174 C166 1.362 . S
N174 Eu173 2.657 . S
N174 C175 1.334 . S
C175 N174 1.334 . S
C175 C177 1.413 . S
C175 H182 0.929 . S
C176 C164 1.392 . S
C176 C177 1.367 . S
C176 H184 0.930 . S
C177 C175 1.413 . S
C177 C176 1.367 . S
C177 H179 0.930 . S
H178 C171 0.930 . S
H179 C177 0.930 . S
H180 C168 0.930 . S
H181 C169 0.930 . S
H182 C175 0.929 . S
H183 C197 0.930 . S
H184 C176 0.930 . S
H185 C203 0.930 . S
H186 C194 0.929 . S
H187 C201 0.930 . S
H188 C165 0.931 . S
H189 C195 0.930 . S
H190 C228 0.930 . S
H191 C172 0.930 . S
H192 C227 0.931 . S
N193 Eu162 2.657 . S
N193 C194 1.334 . S
N193 C198 1.362 . S
C194 H186 0.929 . S
C194 N193 1.334 . S
C194 C197 1.413 . S
C195 H189 0.930 . S
C195 C196 1.392 . S
C195 C197 1.367 . S
C196 C195 1.392 . S
C196 C198 1.420 . S
C196 C228 1.423 . S
C197 H183 0.930 . S
C197 C194 1.413 . S
C197 C195 1.367 . S
C198 N193 1.362 . S
C198 C196 1.420 . S
C198 C202 1.429 . S
H199 C204 0.930 . S
N200 Eu162 2.609 . S
N200 C202 1.377 . S
N200 C203 1.321 . S
C201 H187 0.930 . S
C201 C203 1.400 . S
C201 C204 1.386 . S
C202 C198 1.429 . S
C202 N200 1.377 . S
C202 C205 1.411 . S
C203 H185 0.930 . S
C203 N200 1.321 . S
C203 C201 1.400 . S
C204 H199 0.930 . S
C204 C201 1.386 . S
C204 C205 1.395 . S
C205 C202 1.411 . S
C205 C204 1.395 . S
C205 C227 1.420 . S
O206 Eu162 2.558 . S
O206 C226 1.257 . S
O207 Eu162 2.634 1_545 S
O207 Eu173 2.344 1_556 S
O207 C218 1.306 . S
O208 Eu173 2.432 . S
O208 C225 1.264 1_554 S
O209 Eu162 2.339 1_545 S
O209 C225 1.254 . S
O210 Eu162 2.563 1_545 S
O210 C218 1.235 . S
O211 Eu162 2.419 . S
O211 C226 1.249 . S
O212 Eu173 2.558 . S
O212 C237 1.257 . S
O213 Eu162 2.380 1_554 S
O213 Eu173 2.612 1_565 S
O213 C229 1.276 . S
O214 Eu162 2.432 . S
O214 C236 1.264 1_556 S
O215 Eu173 2.339 1_565 S
O215 C236 1.254 . S
O216 Eu173 2.563 1_565 S
O216 C229 1.235 . S
O217 Eu173 2.419 . S
O217 C237 1.249 . S
C218 O207 1.306 . S
C218 O210 1.235 . S
C219 C221 1.393 1_565 S
C219 C223 1.395 . S
C219 C226 1.492 . S
C220 C221 1.392 . S
C220 C222 1.386 1_545 S
C221 C219 1.393 1_545 S
C221 C220 1.392 . S
C221 H238 0.930 . S
C222 C220 1.386 1_565 S
C222 C224 1.395 . S
C222 H239 0.930 . S
C223 C219 1.395 . S
C223 C224 1.379 . S
C223 H240 0.930 . S
C224 C222 1.395 . S
C224 C223 1.379 . S
C224 H241 0.930 . S
C225 O208 1.264 1_556 S
C225 O209 1.254 . S
C226 Eu162 2.848 . S
C226 O206 1.257 . S
C226 O211 1.249 . S
C226 C219 1.492 . S
C227 H192 0.931 . S
C227 C205 1.420 . S
C227 C228 1.351 . S
C228 H190 0.930 . S
C228 C196 1.423 . S
C228 C227 1.351 . S
C229 O213 1.276 . S
C229 O216 1.235 . S
C230 C231 1.393 1_545 S
C230 C234 1.395 . S
C230 C237 1.492 . S
C231 C230 1.393 1_565 S
C231 C232 1.392 . S
C231 H242 0.930 . S
C232 C231 1.392 . S
C232 C233 1.386 1_565 S
C233 C232 1.386 1_545 S
C233 C235 1.395 . S
C233 H243 0.930 . S
C234 C230 1.395 . S
C234 C235 1.379 . S
C234 H244 0.930 . S
C235 C233 1.395 . S
C235 C234 1.379 . S
C235 H245 0.930 . S
C236 O214 1.264 1_554 S
C236 O215 1.254 . S
C237 Eu173 2.848 . S
C237 O212 1.257 . S
C237 O217 1.249 . S
C237 C230 1.492 . S
H238 C221 0.930 . S
H239 C222 0.930 . S
H240 C223 0.930 . S
H241 C224 0.930 . S
H242 C231 0.930 . S
H243 C233 0.930 . S
H244 C234 0.930 . S
H245 C235 0.930 . S
Eu246 N277 2.657 . S
Eu246 N284 2.609 . S
Eu246 O290 2.558 . S
Eu246 O291 2.642 1_455 S
Eu246 O293 2.339 1_455 S
Eu246 O294 2.563 1_455 S
Eu246 O295 2.419 . S
Eu246 O297 2.380 1_556 S
Eu246 O298 2.439 . S
Eu246 C310 2.848 . S
C247 C250 1.429 . S
C247 C251 1.411 . S
C247 N254 1.377 . S
C248 C250 1.420 . S
C248 C252 1.423 . S
C248 C260 1.392 . S
C249 C251 1.420 . S
C249 C252 1.351 . S
C249 H272 0.931 . S
C250 C247 1.429 . S
C250 C248 1.420 . S
C250 N258 1.362 . S
C251 C247 1.411 . S
C251 C249 1.420 . S
C251 C256 1.395 . S
C252 C248 1.423 . S
C252 C249 1.351 . S
C252 H264 0.930 . S
C253 C255 1.400 . S
C253 C256 1.386 . S
C253 H265 0.930 . S
N254 C247 1.377 . S
N254 C255 1.321 . S
N254 Eu257 2.609 . S
C255 C253 1.400 . S
C255 N254 1.321 . S
C255 H262 0.930 . S
C256 C251 1.395 . S
C256 C253 1.386 . S
C256 H275 0.930 . S
Eu257 N254 2.609 . S
Eu257 N258 2.657 . S
Eu257 O291 2.328 1_554 S
Eu257 O292 2.432 . S
Eu257 O296 2.558 . S
Eu257 O297 2.612 1_655 S
Eu257 O299 2.339 1_655 S
Eu257 O300 2.563 1_655 S
Eu257 O301 2.419 . S
Eu257 C321 2.848 . S
N258 C250 1.362 . S
N258 Eu257 2.657 . S
N258 C259 1.334 . S
C259 N258 1.334 . S
C259 C261 1.413 . S
C259 H266 0.929 . S
C260 C248 1.392 . S
C260 C261 1.367 . S
C260 H268 0.930 . S
C261 C259 1.413 . S
C261 C260 1.367 . S
C261 H263 0.930 . S
H262 C255 0.930 . S
H263 C261 0.930 . S
H264 C252 0.930 . S
H265 C253 0.930 . S
H266 C259 0.929 . S
H267 C281 0.930 . S
H268 C260 0.930 . S
H269 C287 0.930 . S
H270 C278 0.929 . S
H271 C285 0.930 . S
H272 C249 0.931 . S
H273 C279 0.930 . S
H274 C312 0.930 . S
H275 C256 0.930 . S
H276 C311 0.931 . S
N277 Eu246 2.657 . S
N277 C278 1.334 . S
N277 C282 1.362 . S
C278 H270 0.929 . S
C278 N277 1.334 . S
C278 C281 1.413 . S
C279 H273 0.930 . S
C279 C280 1.392 . S
C279 C281 1.367 . S
C280 C279 1.392 . S
C280 C282 1.420 . S
C280 C312 1.423 . S
C281 H267 0.930 . S
C281 C278 1.413 . S
C281 C279 1.367 . S
C282 N277 1.362 . S
C282 C280 1.420 . S
C282 C286 1.429 . S
H283 C288 0.930 . S
N284 Eu246 2.609 . S
N284 C286 1.377 . S
N284 C287 1.321 . S
C285 H271 0.930 . S
C285 C287 1.400 . S
C285 C288 1.386 . S
C286 C282 1.429 . S
C286 N284 1.377 . S
C286 C289 1.411 . S
C287 H269 0.930 . S
C287 N284 1.321 . S
C287 C285 1.400 . S
C288 H283 0.930 . S
C288 C285 1.386 . S
C288 C289 1.395 . S
C289 C286 1.411 . S
C289 C288 1.395 . S
C289 C311 1.420 . S
O290 Eu246 2.558 . S
O290 C310 1.257 . S
O291 Eu246 2.642 1_655 S
O291 Eu257 2.328 1_556 S
O291 C302 1.319 . S
O292 Eu257 2.432 . S
O292 C309 1.264 1_554 S
O293 Eu246 2.339 1_655 S
O293 C309 1.254 . S
O294 Eu246 2.563 1_655 S
O294 C302 1.235 . S
O295 Eu246 2.419 . S
O295 C310 1.249 . S
O296 Eu257 2.558 . S
O296 C321 1.257 . S
O297 Eu246 2.380 1_554 S
O297 Eu257 2.612 1_455 S
O297 C313 1.276 . S
O298 Eu246 2.439 . S
O298 C320 1.252 1_556 S
O299 Eu257 2.339 1_455 S
O299 C320 1.254 . S
O300 Eu257 2.563 1_455 S
O300 C313 1.235 . S
O301 Eu257 2.419 . S
O301 C321 1.249 . S
C302 O291 1.319 . S
C302 O294 1.235 . S
C303 C305 1.393 1_455 S
C303 C307 1.395 . S
C303 C310 1.492 . S
C304 C305 1.392 . S
C304 C306 1.386 1_655 S
C305 C303 1.393 1_655 S
C305 C304 1.392 . S
C305 H322 0.930 . S
C306 C304 1.386 1_455 S
C306 C308 1.395 . S
C306 H323 0.930 . S
C307 C303 1.395 . S
C307 C308 1.379 . S
C307 H324 0.930 . S
C308 C306 1.395 . S
C308 C307 1.379 . S
C308 H325 0.930 . S
C309 O292 1.264 1_556 S
C309 O293 1.254 . S
C310 Eu246 2.848 . S
C310 O290 1.257 . S
C310 O295 1.249 . S
C310 C303 1.492 . S
C311 H276 0.931 . S
C311 C289 1.420 . S
C311 C312 1.351 . S
C312 H274 0.930 . S
C312 C280 1.423 . S
C312 C311 1.351 . S
C313 O297 1.276 . S
C313 O300 1.235 . S
C314 C315 1.393 1_655 S
C314 C318 1.395 . S
C314 C321 1.492 . S
C315 C314 1.393 1_455 S
C315 C316 1.392 . S
C315 H326 0.930 . S
C316 C315 1.392 . S
C316 C317 1.386 1_455 S
C317 C316 1.386 1_655 S
C317 C319 1.395 . S
C317 H327 0.930 . S
C318 C314 1.395 . S
C318 C319 1.379 . S
C318 H328 0.930 . S
C319 C317 1.395 . S
C319 C318 1.379 . S
C319 H329 0.930 . S
C320 O298 1.252 1_554 S
C320 O299 1.254 . S
C321 Eu257 2.848 . S
C321 O296 1.257 . S
C321 O301 1.249 . S
C321 C314 1.492 . S
H322 C305 0.930 . S
H323 C306 0.930 . S
H324 C307 0.930 . S
H325 C308 0.930 . S
H326 C315 0.930 . S
H327 C317 0.930 . S
H328 C318 0.930 . S
H329 C319 0.930 . S
Eu330 N361 2.657 . S
Eu330 N368 2.609 . S
Eu330 O374 2.558 . S
Eu330 O375 2.612 . S
Eu330 O377 2.339 . S
Eu330 O378 2.563 . S
Eu330 O379 2.419 . S
Eu330 O381 2.380 1_554 S
Eu330 O382 2.432 . S
Eu330 C394 2.848 . S
C331 C334 1.429 . S
C331 C335 1.411 . S
C331 N338 1.377 . S
C332 C334 1.420 . S
C332 C336 1.423 . S
C332 C344 1.392 . S
C333 C335 1.420 . S
C333 C336 1.351 . S
C333 H356 0.931 . S
C334 C331 1.429 . S
C334 C332 1.420 . S
C334 N342 1.362 . S
C335 C331 1.411 . S
C335 C333 1.420 . S
C335 C340 1.395 . S
C336 C332 1.423 . S
C336 C333 1.351 . S
C336 H348 0.930 . S
C337 C339 1.400 . S
C337 C340 1.386 . S
C337 H349 0.930 . S
N338 C331 1.377 . S
N338 C339 1.321 . S
N338 Eu341 2.609 . S
C339 C337 1.400 . S
C339 N338 1.321 . S
C339 H346 0.930 . S
C340 C335 1.395 . S
C340 C337 1.386 . S
C340 H359 0.930 . S
Eu341 N338 2.609 . S
Eu341 N342 2.657 . S
Eu341 O375 2.380 1_556 S
Eu341 O376 2.432 . S
Eu341 O380 2.558 . S
Eu341 O381 2.612 . S
Eu341 O383 2.339 . S
Eu341 O384 2.563 . S
Eu341 O385 2.419 . S
Eu341 C405 2.848 . S
N342 C334 1.362 . S
N342 Eu341 2.657 . S
N342 C343 1.334 . S
C343 N342 1.334 . S
C343 C345 1.413 . S
C343 H350 0.929 . S
C344 C332 1.392 . S
C344 C345 1.367 . S
C344 H352 0.930 . S
C345 C343 1.413 . S
C345 C344 1.367 . S
C345 H347 0.930 . S
H346 C339 0.930 . S
H347 C345 0.930 . S
H348 C336 0.930 . S
H349 C337 0.930 . S
H350 C343 0.929 . S
H351 C365 0.930 . S
H352 C344 0.930 . S
H353 C371 0.930 . S
H354 C362 0.929 . S
H355 C369 0.930 . S
H356 C333 0.931 . S
H357 C363 0.930 . S
H358 C396 0.930 . S
H359 C340 0.930 . S
H360 C395 0.931 . S
N361 Eu330 2.657 . S
N361 C362 1.334 . S
N361 C366 1.362 . S
C362 H354 0.929 . S
C362 N361 1.334 . S
C362 C365 1.413 . S
C363 H357 0.930 . S
C363 C364 1.392 . S
C363 C365 1.367 . S
C364 C363 1.392 . S
C364 C366 1.420 . S
C364 C396 1.423 . S
C365 H351 0.930 . S
C365 C362 1.413 . S
C365 C363 1.367 . S
C366 N361 1.362 . S
C366 C364 1.420 . S
C366 C370 1.429 . S
H367 C372 0.930 . S
N368 Eu330 2.609 . S
N368 C370 1.377 . S
N368 C371 1.321 . S
C369 H355 0.930 . S
C369 C371 1.400 . S
C369 C372 1.386 . S
C370 C366 1.429 . S
C370 N368 1.377 . S
C370 C373 1.411 . S
C371 H353 0.930 . S
C371 N368 1.321 . S
C371 C369 1.400 . S
C372 H367 0.930 . S
C372 C369 1.386 . S
C372 C373 1.395 . S
C373 C370 1.411 . S
C373 C372 1.395 . S
C373 C395 1.420 . S
O374 Eu330 2.558 . S
O374 C394 1.257 . S
O375 Eu330 2.612 . S
O375 Eu341 2.380 1_554 S
O375 C386 1.276 . S
O376 Eu341 2.432 . S
O376 C393 1.264 1_556 S
O377 Eu330 2.339 . S
O377 C393 1.254 . S
O378 Eu330 2.563 . S
O378 C386 1.235 . S
O379 Eu330 2.419 . S
O379 C394 1.249 . S
O380 Eu341 2.558 . S
O380 C405 1.257 . S
O381 Eu330 2.380 1_556 S
O381 Eu341 2.612 . S
O381 C397 1.276 . S
O382 Eu330 2.432 . S
O382 C404 1.264 1_554 S
O383 Eu341 2.339 . S
O383 C404 1.254 . S
O384 Eu341 2.563 . S
O384 C397 1.235 . S
O385 Eu341 2.419 . S
O385 C405 1.249 . S
C386 O375 1.276 . S
C386 O378 1.235 . S
C387 C389 1.393 . S
C387 C391 1.395 . S
C387 C394 1.492 . S
C388 C389 1.392 . S
C388 C390 1.386 . S
C389 C387 1.393 . S
C389 C388 1.392 . S
C389 H406 0.930 . S
C390 C388 1.386 . S
C390 C392 1.395 . S
C390 H407 0.930 . S
C391 C387 1.395 . S
C391 C392 1.379 . S
C391 H408 0.930 . S
C392 C390 1.395 . S
C392 C391 1.379 . S
C392 H409 0.930 . S
C393 O376 1.264 1_554 S
C393 O377 1.254 . S
C394 Eu330 2.848 . S
C394 O374 1.257 . S
C394 O379 1.249 . S
C394 C387 1.492 . S
C395 H360 0.931 . S
C395 C373 1.420 . S
C395 C396 1.351 . S
C396 H358 0.930 . S
C396 C364 1.423 . S
C396 C395 1.351 . S
C397 O381 1.276 . S
C397 O384 1.235 . S
C398 C399 1.393 . S
C398 C402 1.395 . S
C398 C405 1.492 . S
C399 C398 1.393 . S
C399 C400 1.392 . S
C399 H410 0.930 . S
C400 C399 1.392 . S
C400 C401 1.386 . S
C401 C400 1.386 . S
C401 C403 1.395 . S
C401 H411 0.930 . S
C402 C398 1.395 . S
C402 C403 1.379 . S
C402 H412 0.930 . S
C403 C401 1.395 . S
C403 C402 1.379 . S
C403 H413 0.930 . S
C404 O382 1.264 1_556 S
C404 O383 1.254 . S
C405 Eu341 2.848 . S
C405 O380 1.257 . S
C405 O385 1.249 . S
C405 C398 1.492 . S
H406 C389 0.930 . S
H407 C390 0.930 . S
H408 C391 0.930 . S
H409 C392 0.930 . S
H410 C399 0.930 . S
H411 C401 0.930 . S
H412 C402 0.930 . S
H413 C403 0.930 . S
Eu414 N445 2.657 . S
Eu414 N452 2.609 . S
Eu414 O458 2.558 . S
Eu414 O459 2.612 . S
Eu414 O461 2.339 . S
Eu414 O462 2.563 . S
Eu414 O463 2.419 . S
Eu414 O465 2.380 . S
Eu414 O466 2.432 . S
Eu414 C478 2.848 . S
C415 C418 1.429 . S
C415 C419 1.411 . S
C415 N422 1.377 . S
C416 C418 1.420 . S
C416 C420 1.423 . S
C416 C428 1.392 . S
C417 C419 1.420 . S
C417 C420 1.351 . S
C417 H440 0.931 . S
C418 C415 1.429 . S
C418 C416 1.420 . S
C418 N426 1.362 . S
C419 C415 1.411 . S
C419 C417 1.420 . S
C419 C424 1.395 . S
C420 C416 1.423 . S
C420 C417 1.351 . S
C420 H432 0.930 . S
C421 C423 1.400 . S
C421 C424 1.386 . S
C421 H433 0.930 . S
N422 C415 1.377 . S
N422 C423 1.321 . S
N422 Eu425 2.609 . S
C423 C421 1.400 . S
C423 N422 1.321 . S
C423 H430 0.930 . S
C424 C419 1.395 . S
C424 C421 1.386 . S
C424 H443 0.930 . S
Eu425 N422 2.609 . S
Eu425 N426 2.657 . S
Eu425 O459 2.380 . S
Eu425 O460 2.432 . S
Eu425 O464 2.558 . S
Eu425 O465 2.612 . S
Eu425 O467 2.339 . S
Eu425 O468 2.563 . S
Eu425 O469 2.419 . S
Eu425 C489 2.848 . S
N426 C418 1.362 . S
N426 Eu425 2.657 . S
N426 C427 1.334 . S
C427 N426 1.334 . S
C427 C429 1.413 . S
C427 H434 0.929 . S
C428 C416 1.392 . S
C428 C429 1.367 . S
C428 H436 0.930 . S
C429 C427 1.413 . S
C429 C428 1.367 . S
C429 H431 0.930 . S
H430 C423 0.930 . S
H431 C429 0.930 . S
H432 C420 0.930 . S
H433 C421 0.930 . S
H434 C427 0.929 . S
H435 C449 0.930 . S
H436 C428 0.930 . S
H437 C455 0.930 . S
H438 C446 0.929 . S
H439 C453 0.930 . S
H440 C417 0.931 . S
H441 C447 0.930 . S
H442 C480 0.930 . S
H443 C424 0.930 . S
H444 C479 0.931 . S
N445 Eu414 2.657 . S
N445 C446 1.334 . S
N445 C450 1.362 . S
C446 H438 0.929 . S
C446 N445 1.334 . S
C446 C449 1.413 . S
C447 H441 0.930 . S
C447 C448 1.392 . S
C447 C449 1.367 . S
C448 C447 1.392 . S
C448 C450 1.420 . S
C448 C480 1.423 . S
C449 H435 0.930 . S
C449 C446 1.413 . S
C449 C447 1.367 . S
C450 N445 1.362 . S
C450 C448 1.420 . S
C450 C454 1.429 . S
H451 C456 0.930 . S
N452 Eu414 2.609 . S
N452 C454 1.377 . S
N452 C455 1.321 . S
C453 H439 0.930 . S
C453 C455 1.400 . S
C453 C456 1.386 . S
C454 C450 1.429 . S
C454 N452 1.377 . S
C454 C457 1.411 . S
C455 H437 0.930 . S
C455 N452 1.321 . S
C455 C453 1.400 . S
C456 H451 0.930 . S
C456 C453 1.386 . S
C456 C457 1.395 . S
C457 C454 1.411 . S
C457 C456 1.395 . S
C457 C479 1.420 . S
O458 Eu414 2.558 . S
O458 C478 1.257 . S
O459 Eu414 2.612 . S
O459 Eu425 2.380 . S
O459 C470 1.276 . S
O460 Eu425 2.432 . S
O460 C477 1.264 . S
O461 Eu414 2.339 . S
O461 C477 1.254 . S
O462 Eu414 2.563 . S
O462 C470 1.235 . S
O463 Eu414 2.419 . S
O463 C478 1.249 . S
O464 Eu425 2.558 . S
O464 C489 1.257 . S
O465 Eu414 2.380 . S
O465 Eu425 2.612 . S
O465 C481 1.276 . S
O466 Eu414 2.432 . S
O466 C488 1.264 . S
O467 Eu425 2.339 . S
O467 C488 1.254 . S
O468 Eu425 2.563 . S
O468 C481 1.235 . S
O469 Eu425 2.419 . S
O469 C489 1.249 . S
C470 O459 1.276 . S
C470 O462 1.235 . S
C471 C473 1.393 . S
C471 C475 1.395 . S
C471 C478 1.492 . S
C472 C473 1.392 . S
C472 C474 1.386 . S
C473 C471 1.393 . S
C473 C472 1.392 . S
C473 H490 0.930 . S
C474 C472 1.386 . S
C474 C476 1.395 . S
C474 H491 0.930 . S
C475 C471 1.395 . S
C475 C476 1.379 . S
C475 H492 0.930 . S
C476 C474 1.395 . S
C476 C475 1.379 . S
C476 H493 0.930 . S
C477 O460 1.264 . S
C477 O461 1.254 . S
C478 Eu414 2.848 . S
C478 O458 1.257 . S
C478 O463 1.249 . S
C478 C471 1.492 . S
C479 H444 0.931 . S
C479 C457 1.420 . S
C479 C480 1.351 . S
C480 H442 0.930 . S
C480 C448 1.423 . S
C480 C479 1.351 . S
C481 O465 1.276 . S
C481 O468 1.235 . S
C482 C483 1.393 . S
C482 C486 1.395 . S
C482 C489 1.492 . S
C483 C482 1.393 . S
C483 C484 1.392 . S
C483 H494 0.930 . S
C484 C483 1.392 . S
C484 C485 1.386 . S
C485 C484 1.386 . S
C485 C487 1.395 . S
C485 H495 0.930 . S
C486 C482 1.395 . S
C486 C487 1.379 . S
C486 H496 0.930 . S
C487 C485 1.395 . S
C487 C486 1.379 . S
C487 H497 0.930 . S
C488 O466 1.264 . S
C488 O467 1.254 . S
C489 Eu425 2.848 . S
C489 O464 1.257 . S
C489 O469 1.249 . S
C489 C482 1.492 . S
H490 C473 0.930 . S
H491 C474 0.930 . S
H492 C475 0.930 . S
H493 C476 0.930 . S
H494 C483 0.930 . S
H495 C485 0.930 . S
H496 C486 0.930 . S
H497 C487 0.930 . S
Eu498 N529 2.657 . S
Eu498 N536 2.609 . S
Eu498 O542 2.558 . S
Eu498 O543 2.612 . S
Eu498 O545 2.339 . S
Eu498 O546 2.563 . S
Eu498 O547 2.419 . S
Eu498 O549 2.380 . S
Eu498 O550 2.432 . S
Eu498 C562 2.848 . S
C499 C502 1.429 . S
C499 C503 1.411 . S
C499 N506 1.377 . S
C500 C502 1.420 . S
C500 C504 1.423 . S
C500 C512 1.392 . S
C501 C503 1.420 . S
C501 C504 1.351 . S
C501 H524 0.931 . S
C502 C499 1.429 . S
C502 C500 1.420 . S
C502 N510 1.362 . S
C503 C499 1.411 . S
C503 C501 1.420 . S
C503 C508 1.395 . S
C504 C500 1.423 . S
C504 C501 1.351 . S
C504 H516 0.930 . S
C505 C507 1.400 . S
C505 C508 1.386 . S
C505 H517 0.930 . S
N506 C499 1.377 . S
N506 C507 1.321 . S
N506 Eu509 2.609 . S
C507 C505 1.400 . S
C507 N506 1.321 . S
C507 H514 0.930 . S
C508 C503 1.395 . S
C508 C505 1.386 . S
C508 H527 0.930 . S
Eu509 N506 2.609 . S
Eu509 N510 2.657 . S
Eu509 O543 2.380 . S
Eu509 O544 2.432 . S
Eu509 O548 2.558 . S
Eu509 O549 2.612 . S
Eu509 O551 2.339 . S
Eu509 O552 2.563 . S
Eu509 O553 2.419 . S
Eu509 C573 2.848 . S
N510 C502 1.362 . S
N510 Eu509 2.657 . S
N510 C511 1.334 . S
C511 N510 1.334 . S
C511 C513 1.413 . S
C511 H518 0.929 . S
C512 C500 1.392 . S
C512 C513 1.367 . S
C512 H520 0.930 . S
C513 C511 1.413 . S
C513 C512 1.367 . S
C513 H515 0.930 . S
H514 C507 0.930 . S
H515 C513 0.930 . S
H516 C504 0.930 . S
H517 C505 0.930 . S
H518 C511 0.929 . S
H519 C533 0.930 . S
H520 C512 0.930 . S
H521 C539 0.930 . S
H522 C530 0.929 . S
H523 C537 0.930 . S
H524 C501 0.931 . S
H525 C531 0.930 . S
H526 C564 0.930 . S
H527 C508 0.930 . S
H528 C563 0.931 . S
N529 Eu498 2.657 . S
N529 C530 1.334 . S
N529 C534 1.362 . S
C530 H522 0.929 . S
C530 N529 1.334 . S
C530 C533 1.413 . S
C531 H525 0.930 . S
C531 C532 1.392 . S
C531 C533 1.367 . S
C532 C531 1.392 . S
C532 C534 1.420 . S
C532 C564 1.423 . S
C533 H519 0.930 . S
C533 C530 1.413 . S
C533 C531 1.367 . S
C534 N529 1.362 . S
C534 C532 1.420 . S
C534 C538 1.429 . S
H535 C540 0.930 . S
N536 Eu498 2.609 . S
N536 C538 1.377 . S
N536 C539 1.321 . S
C537 H523 0.930 . S
C537 C539 1.400 . S
C537 C540 1.386 . S
C538 C534 1.429 . S
C538 N536 1.377 . S
C538 C541 1.411 . S
C539 H521 0.930 . S
C539 N536 1.321 . S
C539 C537 1.400 . S
C540 H535 0.930 . S
C540 C537 1.386 . S
C540 C541 1.395 . S
C541 C538 1.411 . S
C541 C540 1.395 . S
C541 C563 1.420 . S
O542 Eu498 2.558 . S
O542 C562 1.257 . S
O543 Eu498 2.612 . S
O543 Eu509 2.380 . S
O543 C554 1.276 . S
O544 Eu509 2.432 . S
O544 C561 1.264 . S
O545 Eu498 2.339 . S
O545 C561 1.254 . S
O546 Eu498 2.563 . S
O546 C554 1.235 . S
O547 Eu498 2.419 . S
O547 C562 1.249 . S
O548 Eu509 2.558 . S
O548 C573 1.257 . S
O549 Eu498 2.380 . S
O549 Eu509 2.612 . S
O549 C565 1.276 . S
O550 Eu498 2.432 . S
O550 C572 1.264 . S
O551 Eu509 2.339 . S
O551 C572 1.254 . S
O552 Eu509 2.563 . S
O552 C565 1.235 . S
O553 Eu509 2.419 . S
O553 C573 1.249 . S
C554 O543 1.276 . S
C554 O546 1.235 . S
C555 C557 1.393 . S
C555 C559 1.395 . S
C555 C562 1.492 . S
C556 C557 1.392 . S
C556 C558 1.386 . S
C557 C555 1.393 . S
C557 C556 1.392 . S
C557 H574 0.930 . S
C558 C556 1.386 . S
C558 C560 1.395 . S
C558 H575 0.930 . S
C559 C555 1.395 . S
C559 C560 1.379 . S
C559 H576 0.930 . S
C560 C558 1.395 . S
C560 C559 1.379 . S
C560 H577 0.930 . S
C561 O544 1.264 . S
C561 O545 1.254 . S
C562 Eu498 2.848 . S
C562 O542 1.257 . S
C562 O547 1.249 . S
C562 C555 1.492 . S
C563 H528 0.931 . S
C563 C541 1.420 . S
C563 C564 1.351 . S
C564 H526 0.930 . S
C564 C532 1.423 . S
C564 C563 1.351 . S
C565 O549 1.276 . S
C565 O552 1.235 . S
C566 C567 1.393 . S
C566 C570 1.395 . S
C566 C573 1.492 . S
C567 C566 1.393 . S
C567 C568 1.392 . S
C567 H578 0.930 . S
C568 C567 1.392 . S
C568 C569 1.386 . S
C569 C568 1.386 . S
C569 C571 1.395 . S
C569 H579 0.930 . S
C570 C566 1.395 . S
C570 C571 1.379 . S
C570 H580 0.930 . S
C571 C569 1.395 . S
C571 C570 1.379 . S
C571 H581 0.930 . S
C572 O550 1.264 . S
C572 O551 1.254 . S
C573 Eu509 2.848 . S
C573 O548 1.257 . S
C573 O553 1.249 . S
C573 C566 1.492 . S
H574 C557 0.930 . S
H575 C558 0.930 . S
H576 C559 0.930 . S
H577 C560 0.930 . S
H578 C567 0.930 . S
H579 C569 0.930 . S
H580 C570 0.930 . S
H581 C571 0.930 . S
Eu582 N613 2.657 . S
Eu582 N620 2.609 . S
Eu582 O626 2.558 . S
Eu582 O627 2.612 . S
Eu582 O629 2.339 . S
Eu582 O630 2.563 . S
Eu582 O631 2.419 . S
Eu582 O633 2.380 . S
Eu582 O634 2.432 . S
Eu582 C646 2.848 . S
C583 C586 1.429 . S
C583 C587 1.411 . S
C583 N590 1.377 . S
C584 C586 1.420 . S
C584 C588 1.423 . S
C584 C596 1.392 . S
C585 C587 1.420 . S
C585 C588 1.351 . S
C585 H608 0.931 . S
C586 C583 1.429 . S
C586 C584 1.420 . S
C586 N594 1.362 . S
C587 C583 1.411 . S
C587 C585 1.420 . S
C587 C592 1.395 . S
C588 C584 1.423 . S
C588 C585 1.351 . S
C588 H600 0.930 . S
C589 C591 1.400 . S
C589 C592 1.386 . S
C589 H601 0.930 . S
N590 C583 1.377 . S
N590 C591 1.321 . S
N590 Eu593 2.609 . S
C591 C589 1.400 . S
C591 N590 1.321 . S
C591 H598 0.930 . S
C592 C587 1.395 . S
C592 C589 1.386 . S
C592 H611 0.930 . S
Eu593 N590 2.609 . S
Eu593 N594 2.657 . S
Eu593 O627 2.380 . S
Eu593 O628 2.432 . S
Eu593 O632 2.558 . S
Eu593 O633 2.612 . S
Eu593 O635 2.339 . S
Eu593 O636 2.563 . S
Eu593 O637 2.419 . S
Eu593 C657 2.848 . S
N594 C586 1.362 . S
N594 Eu593 2.657 . S
N594 C595 1.334 . S
C595 N594 1.334 . S
C595 C597 1.413 . S
C595 H602 0.929 . S
C596 C584 1.392 . S
C596 C597 1.367 . S
C596 H604 0.930 . S
C597 C595 1.413 . S
C597 C596 1.367 . S
C597 H599 0.930 . S
H598 C591 0.930 . S
H599 C597 0.930 . S
H600 C588 0.930 . S
H601 C589 0.930 . S
H602 C595 0.929 . S
H603 C617 0.930 . S
H604 C596 0.930 . S
H605 C623 0.930 . S
H606 C614 0.929 . S
H607 C621 0.930 . S
H608 C585 0.931 . S
H609 C615 0.930 . S
H610 C648 0.930 . S
H611 C592 0.930 . S
H612 C647 0.931 . S
N613 Eu582 2.657 . S
N613 C614 1.334 . S
N613 C618 1.362 . S
C614 H606 0.929 . S
C614 N613 1.334 . S
C614 C617 1.413 . S
C615 H609 0.930 . S
C615 C616 1.392 . S
C615 C617 1.367 . S
C616 C615 1.392 . S
C616 C618 1.420 . S
C616 C648 1.423 . S
C617 H603 0.930 . S
C617 C614 1.413 . S
C617 C615 1.367 . S
C618 N613 1.362 . S
C618 C616 1.420 . S
C618 C622 1.429 . S
H619 C624 0.930 . S
N620 Eu582 2.609 . S
N620 C622 1.377 . S
N620 C623 1.321 . S
C621 H607 0.930 . S
C621 C623 1.400 . S
C621 C624 1.386 . S
C622 C618 1.429 . S
C622 N620 1.377 . S
C622 C625 1.411 . S
C623 H605 0.930 . S
C623 N620 1.321 . S
C623 C621 1.400 . S
C624 H619 0.930 . S
C624 C621 1.386 . S
C624 C625 1.395 . S
C625 C622 1.411 . S
C625 C624 1.395 . S
C625 C647 1.420 . S
O626 Eu582 2.558 . S
O626 C646 1.257 . S
O627 Eu582 2.612 . S
O627 Eu593 2.380 . S
O627 C638 1.276 . S
O628 Eu593 2.432 . S
O628 C645 1.264 . S
O629 Eu582 2.339 . S
O629 C645 1.254 . S
O630 Eu582 2.563 . S
O630 C638 1.235 . S
O631 Eu582 2.419 . S
O631 C646 1.249 . S
O632 Eu593 2.558 . S
O632 C657 1.257 . S
O633 Eu582 2.380 . S
O633 Eu593 2.612 . S
O633 C649 1.276 . S
O634 Eu582 2.432 . S
O634 C656 1.264 . S
O635 Eu593 2.339 . S
O635 C656 1.254 . S
O636 Eu593 2.563 . S
O636 C649 1.235 . S
O637 Eu593 2.419 . S
O637 C657 1.249 . S
C638 O627 1.276 . S
C638 O630 1.235 . S
C639 C641 1.393 . S
C639 C643 1.395 . S
C639 C646 1.492 . S
C640 C641 1.392 . S
C640 C642 1.386 . S
C641 C639 1.393 . S
C641 C640 1.392 . S
C641 H658 0.930 . S
C642 C640 1.386 . S
C642 C644 1.395 . S
C642 H659 0.930 . S
C643 C639 1.395 . S
C643 C644 1.379 . S
C643 H660 0.930 . S
C644 C642 1.395 . S
C644 C643 1.379 . S
C644 H661 0.930 . S
C645 O628 1.264 . S
C645 O629 1.254 . S
C646 Eu582 2.848 . S
C646 O626 1.257 . S
C646 O631 1.249 . S
C646 C639 1.492 . S
C647 H612 0.931 . S
C647 C625 1.420 . S
C647 C648 1.351 . S
C648 H610 0.930 . S
C648 C616 1.423 . S
C648 C647 1.351 . S
C649 O633 1.276 . S
C649 O636 1.235 . S
C650 C651 1.393 . S
C650 C654 1.395 . S
C650 C657 1.492 . S
C651 C650 1.393 . S
C651 C652 1.392 . S
C651 H662 0.930 . S
C652 C651 1.392 . S
C652 C653 1.386 . S
C653 C652 1.386 . S
C653 C655 1.395 . S
C653 H663 0.930 . S
C654 C650 1.395 . S
C654 C655 1.379 . S
C654 H664 0.930 . S
C655 C653 1.395 . S
C655 C654 1.379 . S
C655 H665 0.930 . S
C656 O634 1.264 . S
C656 O635 1.254 . S
C657 Eu593 2.848 . S
C657 O632 1.257 . S
C657 O637 1.249 . S
C657 C650 1.492 . S
H658 C641 0.930 . S
H659 C642 0.930 . S
H660 C643 0.930 . S
H661 C644 0.930 . S
H662 C651 0.930 . S
H663 C653 0.930 . S
H664 C654 0.930 . S
H665 C655 0.930 . S
Eu666 N697 2.657 . S
Eu666 N704 2.609 . S
Eu666 O710 2.558 . S
Eu666 O711 2.612 . S
Eu666 O713 2.339 . S
Eu666 O714 2.563 . S
Eu666 O715 2.419 . S
Eu666 O717 2.380 . S
Eu666 O718 2.432 . S
Eu666 C730 2.848 . S
C667 C670 1.429 . S
C667 C671 1.411 . S
C667 N674 1.377 . S
C668 C670 1.420 . S
C668 C672 1.423 . S
C668 C680 1.392 . S
C669 C671 1.420 . S
C669 C672 1.351 . S
C669 H692 0.931 . S
C670 C667 1.429 . S
C670 C668 1.420 . S
C670 N678 1.362 . S
C671 C667 1.411 . S
C671 C669 1.420 . S
C671 C676 1.395 . S
C672 C668 1.423 . S
C672 C669 1.351 . S
C672 H684 0.930 . S
C673 C675 1.400 . S
C673 C676 1.386 . S
C673 H685 0.930 . S
N674 C667 1.377 . S
N674 C675 1.321 . S
N674 Eu677 2.609 . S
C675 C673 1.400 . S
C675 N674 1.321 . S
C675 H682 0.930 . S
C676 C671 1.395 . S
C676 C673 1.386 . S
C676 H695 0.930 . S
Eu677 N674 2.609 . S
Eu677 N678 2.657 . S
Eu677 O711 2.380 . S
Eu677 O712 2.432 . S
Eu677 O716 2.558 . S
Eu677 O717 2.612 . S
Eu677 O719 2.339 . S
Eu677 O720 2.563 . S
Eu677 O721 2.419 . S
Eu677 C741 2.848 . S
N678 C670 1.362 . S
N678 Eu677 2.657 . S
N678 C679 1.334 . S
C679 N678 1.334 . S
C679 C681 1.413 . S
C679 H686 0.929 . S
C680 C668 1.392 . S
C680 C681 1.367 . S
C680 H688 0.930 . S
C681 C679 1.413 . S
C681 C680 1.367 . S
C681 H683 0.930 . S
H682 C675 0.930 . S
H683 C681 0.930 . S
H684 C672 0.930 . S
H685 C673 0.930 . S
H686 C679 0.929 . S
H687 C701 0.930 . S
H688 C680 0.930 . S
H689 C707 0.930 . S
H690 C698 0.929 . S
H691 C705 0.930 . S
H692 C669 0.931 . S
H693 C699 0.930 . S
H694 C732 0.930 . S
H695 C676 0.930 . S
H696 C731 0.931 . S
N697 Eu666 2.657 . S
N697 C698 1.334 . S
N697 C702 1.362 . S
C698 H690 0.929 . S
C698 N697 1.334 . S
C698 C701 1.413 . S
C699 H693 0.930 . S
C699 C700 1.392 . S
C699 C701 1.367 . S
C700 C699 1.392 . S
C700 C702 1.420 . S
C700 C732 1.423 . S
C701 H687 0.930 . S
C701 C698 1.413 . S
C701 C699 1.367 . S
C702 N697 1.362 . S
C702 C700 1.420 . S
C702 C706 1.429 . S
H703 C708 0.930 . S
N704 Eu666 2.609 . S
N704 C706 1.377 . S
N704 C707 1.321 . S
C705 H691 0.930 . S
C705 C707 1.400 . S
C705 C708 1.386 . S
C706 C702 1.429 . S
C706 N704 1.377 . S
C706 C709 1.411 . S
C707 H689 0.930 . S
C707 N704 1.321 . S
C707 C705 1.400 . S
C708 H703 0.930 . S
C708 C705 1.386 . S
C708 C709 1.395 . S
C709 C706 1.411 . S
C709 C708 1.395 . S
C709 C731 1.420 . S
O710 Eu666 2.558 . S
O710 C730 1.257 . S
O711 Eu666 2.612 . S
O711 Eu677 2.380 . S
O711 C722 1.276 . S
O712 Eu677 2.432 . S
O712 C729 1.264 . S
O713 Eu666 2.339 . S
O713 C729 1.254 . S
O714 Eu666 2.563 . S
O714 C722 1.235 . S
O715 Eu666 2.419 . S
O715 C730 1.249 . S
O716 Eu677 2.558 . S
O716 C741 1.257 . S
O717 Eu666 2.380 . S
O717 Eu677 2.612 . S
O717 C733 1.276 . S
O718 Eu666 2.432 . S
O718 C740 1.264 . S
O719 Eu677 2.339 . S
O719 C740 1.254 . S
O720 Eu677 2.563 . S
O720 C733 1.235 . S
O721 Eu677 2.419 . S
O721 C741 1.249 . S
C722 O711 1.276 . S
C722 O714 1.235 . S
C723 C725 1.393 . S
C723 C727 1.395 . S
C723 C730 1.492 . S
C724 C725 1.392 . S
C724 C726 1.386 . S
C725 C723 1.393 . S
C725 C724 1.392 . S
C725 H742 0.930 . S
C726 C724 1.386 . S
C726 C728 1.395 . S
C726 H743 0.930 . S
C727 C723 1.395 . S
C727 C728 1.379 . S
C727 H744 0.930 . S
C728 C726 1.395 . S
C728 C727 1.379 . S
C728 H745 0.930 . S
C729 O712 1.264 . S
C729 O713 1.254 . S
C730 Eu666 2.848 . S
C730 O710 1.257 . S
C730 O715 1.249 . S
C730 C723 1.492 . S
C731 H696 0.931 . S
C731 C709 1.420 . S
C731 C732 1.351 . S
C732 H694 0.930 . S
C732 C700 1.423 . S
C732 C731 1.351 . S
C733 O717 1.276 . S
C733 O720 1.235 . S
C734 C735 1.393 . S
C734 C738 1.395 . S
C734 C741 1.492 . S
C735 C734 1.393 . S
C735 C736 1.392 . S
C735 H746 0.930 . S
C736 C735 1.392 . S
C736 C737 1.386 . S
C737 C736 1.386 . S
C737 C739 1.395 . S
C737 H747 0.930 . S
C738 C734 1.395 . S
C738 C739 1.379 . S
C738 H748 0.930 . S
C739 C737 1.395 . S
C739 C738 1.379 . S
C739 H749 0.930 . S
C740 O718 1.264 . S
C740 O719 1.254 . S
C741 Eu677 2.848 . S
C741 O716 1.257 . S
C741 O721 1.249 . S
C741 C734 1.492 . S
H742 C725 0.930 . S
H743 C726 0.930 . S
H744 C727 0.930 . S
H745 C728 0.930 . S
H746 C735 0.930 . S
H747 C737 0.930 . S
H748 C738 0.930 . S
H749 C739 0.930 . S
Eu750 N781 2.657 . S
Eu750 N788 2.609 . S
Eu750 O794 2.558 . S
Eu750 O795 2.612 . S
Eu750 O797 2.339 . S
Eu750 O798 2.563 . S
Eu750 O799 2.419 . S
Eu750 O801 2.380 . S
Eu750 O802 2.432 . S
Eu750 C814 2.848 . S
C751 C754 1.429 . S
C751 C755 1.411 . S
C751 N758 1.377 . S
C752 C754 1.420 . S
C752 C756 1.423 . S
C752 C764 1.392 . S
C753 C755 1.420 . S
C753 C756 1.351 . S
C753 H776 0.931 . S
C754 C751 1.429 . S
C754 C752 1.420 . S
C754 N762 1.362 . S
C755 C751 1.411 . S
C755 C753 1.420 . S
C755 C760 1.395 . S
C756 C752 1.423 . S
C756 C753 1.351 . S
C756 H768 0.930 . S
C757 C759 1.400 . S
C757 C760 1.386 . S
C757 H769 0.930 . S
N758 C751 1.377 . S
N758 C759 1.321 . S
N758 Eu761 2.609 . S
C759 C757 1.400 . S
C759 N758 1.321 . S
C759 H766 0.930 . S
C760 C755 1.395 . S
C760 C757 1.386 . S
C760 H779 0.930 . S
Eu761 N758 2.609 . S
Eu761 N762 2.657 . S
Eu761 O795 2.380 . S
Eu761 O796 2.432 . S
Eu761 O800 2.558 . S
Eu761 O801 2.612 . S
Eu761 O803 2.339 . S
Eu761 O804 2.563 . S
Eu761 O805 2.419 . S
Eu761 C825 2.848 . S
N762 C754 1.362 . S
N762 Eu761 2.657 . S
N762 C763 1.334 . S
C763 N762 1.334 . S
C763 C765 1.413 . S
C763 H770 0.929 . S
C764 C752 1.392 . S
C764 C765 1.367 . S
C764 H772 0.930 . S
C765 C763 1.413 . S
C765 C764 1.367 . S
C765 H767 0.930 . S
H766 C759 0.930 . S
H767 C765 0.930 . S
H768 C756 0.930 . S
H769 C757 0.930 . S
H770 C763 0.929 . S
H771 C785 0.930 . S
H772 C764 0.930 . S
H773 C791 0.930 . S
H774 C782 0.929 . S
H775 C789 0.930 . S
H776 C753 0.931 . S
H777 C783 0.930 . S
H778 C816 0.930 . S
H779 C760 0.930 . S
H780 C815 0.931 . S
N781 Eu750 2.657 . S
N781 C782 1.334 . S
N781 C786 1.362 . S
C782 H774 0.929 . S
C782 N781 1.334 . S
C782 C785 1.413 . S
C783 H777 0.930 . S
C783 C784 1.392 . S
C783 C785 1.367 . S
C784 C783 1.392 . S
C784 C786 1.420 . S
C784 C816 1.423 . S
C785 H771 0.930 . S
C785 C782 1.413 . S
C785 C783 1.367 . S
C786 N781 1.362 . S
C786 C784 1.420 . S
C786 C790 1.429 . S
H787 C792 0.930 . S
N788 Eu750 2.609 . S
N788 C790 1.377 . S
N788 C791 1.321 . S
C789 H775 0.930 . S
C789 C791 1.400 . S
C789 C792 1.386 . S
C790 C786 1.429 . S
C790 N788 1.377 . S
C790 C793 1.411 . S
C791 H773 0.930 . S
C791 N788 1.321 . S
C791 C789 1.400 . S
C792 H787 0.930 . S
C792 C789 1.386 . S
C792 C793 1.395 . S
C793 C790 1.411 . S
C793 C792 1.395 . S
C793 C815 1.420 . S
O794 Eu750 2.558 . S
O794 C814 1.257 . S
O795 Eu750 2.612 . S
O795 Eu761 2.380 . S
O795 C806 1.276 . S
O796 Eu761 2.432 . S
O796 C813 1.264 . S
O797 Eu750 2.339 . S
O797 C813 1.254 . S
O798 Eu750 2.563 . S
O798 C806 1.235 . S
O799 Eu750 2.419 . S
O799 C814 1.249 . S
O800 Eu761 2.558 . S
O800 C825 1.257 . S
O801 Eu750 2.380 . S
O801 Eu761 2.612 . S
O801 C817 1.276 . S
O802 Eu750 2.432 . S
O802 C824 1.264 . S
O803 Eu761 2.339 . S
O803 C824 1.254 . S
O804 Eu761 2.563 . S
O804 C817 1.235 . S
O805 Eu761 2.419 . S
O805 C825 1.249 . S
C806 O795 1.276 . S
C806 O798 1.235 . S
C807 C809 1.393 . S
C807 C811 1.395 . S
C807 C814 1.492 . S
C808 C809 1.392 . S
C808 C810 1.386 . S
C809 C807 1.393 . S
C809 C808 1.392 . S
C809 H826 0.930 . S
C810 C808 1.386 . S
C810 C812 1.395 . S
C810 H827 0.930 . S
C811 C807 1.395 . S
C811 C812 1.379 . S
C811 H828 0.930 . S
C812 C810 1.395 . S
C812 C811 1.379 . S
C812 H829 0.930 . S
C813 O796 1.264 . S
C813 O797 1.254 . S
C814 Eu750 2.848 . S
C814 O794 1.257 . S
C814 O799 1.249 . S
C814 C807 1.492 . S
C815 H780 0.931 . S
C815 C793 1.420 . S
C815 C816 1.351 . S
C816 H778 0.930 . S
C816 C784 1.423 . S
C816 C815 1.351 . S
C817 O801 1.276 . S
C817 O804 1.235 . S
C818 C819 1.393 . S
C818 C822 1.395 . S
C818 C825 1.492 . S
C819 C818 1.393 . S
C819 C820 1.392 . S
C819 H830 0.930 . S
C820 C819 1.392 . S
C820 C821 1.386 . S
C821 C820 1.386 . S
C821 C823 1.395 . S
C821 H831 0.930 . S
C822 C818 1.395 . S
C822 C823 1.379 . S
C822 H832 0.930 . S
C823 C821 1.395 . S
C823 C822 1.379 . S
C823 H833 0.930 . S
C824 O802 1.264 . S
C824 O803 1.254 . S
C825 Eu761 2.848 . S
C825 O800 1.257 . S
C825 O805 1.249 . S
C825 C818 1.492 . S
H826 C809 0.930 . S
H827 C810 0.930 . S
H828 C811 0.930 . S
H829 C812 0.930 . S
H830 C819 0.930 . S
H831 C821 0.930 . S
H832 C822 0.930 . S
H833 C823 0.930 . S
Eu834 N865 2.657 . S
Eu834 N872 2.609 . S
Eu834 O878 2.558 . S
Eu834 O879 2.612 . S
Eu834 O881 2.339 . S
Eu834 O882 2.563 . S
Eu834 O883 2.419 . S
Eu834 O885 2.380 . S
Eu834 O886 2.432 . S
Eu834 C898 2.848 . S
C835 C838 1.429 . S
C835 C839 1.411 . S
C835 N842 1.377 . S
C836 C838 1.420 . S
C836 C840 1.423 . S
C836 C848 1.392 . S
C837 C839 1.420 . S
C837 C840 1.351 . S
C837 H860 0.931 . S
C838 C835 1.429 . S
C838 C836 1.420 . S
C838 N846 1.362 . S
C839 C835 1.411 . S
C839 C837 1.420 . S
C839 C844 1.395 . S
C840 C836 1.423 . S
C840 C837 1.351 . S
C840 H852 0.930 . S
C841 C843 1.400 . S
C841 C844 1.386 . S
C841 H853 0.930 . S
N842 C835 1.377 . S
N842 C843 1.321 . S
N842 Eu845 2.609 . S
C843 C841 1.400 . S
C843 N842 1.321 . S
C843 H850 0.930 . S
C844 C839 1.395 . S
C844 C841 1.386 . S
C844 H863 0.930 . S
Eu845 N842 2.609 . S
Eu845 N846 2.657 . S
Eu845 O879 2.380 . S
Eu845 O880 2.432 . S
Eu845 O884 2.558 . S
Eu845 O885 2.612 . S
Eu845 O887 2.339 . S
Eu845 O888 2.563 . S
Eu845 O889 2.419 . S
Eu845 C909 2.848 . S
N846 C838 1.362 . S
N846 Eu845 2.657 . S
N846 C847 1.334 . S
C847 N846 1.334 . S
C847 C849 1.413 . S
C847 H854 0.929 . S
C848 C836 1.392 . S
C848 C849 1.367 . S
C848 H856 0.930 . S
C849 C847 1.413 . S
C849 C848 1.367 . S
C849 H851 0.930 . S
H850 C843 0.930 . S
H851 C849 0.930 . S
H852 C840 0.930 . S
H853 C841 0.930 . S
H854 C847 0.929 . S
H855 C869 0.930 . S
H856 C848 0.930 . S
H857 C875 0.930 . S
H858 C866 0.929 . S
H859 C873 0.930 . S
H860 C837 0.931 . S
H861 C867 0.930 . S
H862 C900 0.930 . S
H863 C844 0.930 . S
H864 C899 0.931 . S
N865 Eu834 2.657 . S
N865 C866 1.334 . S
N865 C870 1.362 . S
C866 H858 0.929 . S
C866 N865 1.334 . S
C866 C869 1.413 . S
C867 H861 0.930 . S
C867 C868 1.392 . S
C867 C869 1.367 . S
C868 C867 1.392 . S
C868 C870 1.420 . S
C868 C900 1.423 . S
C869 H855 0.930 . S
C869 C866 1.413 . S
C869 C867 1.367 . S
C870 N865 1.362 . S
C870 C868 1.420 . S
C870 C874 1.429 . S
H871 C876 0.930 . S
N872 Eu834 2.609 . S
N872 C874 1.377 . S
N872 C875 1.321 . S
C873 H859 0.930 . S
C873 C875 1.400 . S
C873 C876 1.386 . S
C874 C870 1.429 . S
C874 N872 1.377 . S
C874 C877 1.411 . S
C875 H857 0.930 . S
C875 N872 1.321 . S
C875 C873 1.400 . S
C876 H871 0.930 . S
C876 C873 1.386 . S
C876 C877 1.395 . S
C877 C874 1.411 . S
C877 C876 1.395 . S
C877 C899 1.420 . S
O878 Eu834 2.558 . S
O878 C898 1.257 . S
O879 Eu834 2.612 . S
O879 Eu845 2.380 . S
O879 C890 1.276 . S
O880 Eu845 2.432 . S
O880 C897 1.264 . S
O881 Eu834 2.339 . S
O881 C897 1.254 . S
O882 Eu834 2.563 . S
O882 C890 1.235 . S
O883 Eu834 2.419 . S
O883 C898 1.249 . S
O884 Eu845 2.558 . S
O884 C909 1.257 . S
O885 Eu834 2.380 . S
O885 Eu845 2.612 . S
O885 C901 1.276 . S
O886 Eu834 2.432 . S
O886 C908 1.264 . S
O887 Eu845 2.339 . S
O887 C908 1.254 . S
O888 Eu845 2.563 . S
O888 C901 1.235 . S
O889 Eu845 2.419 . S
O889 C909 1.249 . S
C890 O879 1.276 . S
C890 O882 1.235 . S
C891 C893 1.393 . S
C891 C895 1.395 . S
C891 C898 1.492 . S
C892 C893 1.392 . S
C892 C894 1.386 . S
C893 C891 1.393 . S
C893 C892 1.392 . S
C893 H910 0.930 . S
C894 C892 1.386 . S
C894 C896 1.395 . S
C894 H911 0.930 . S
C895 C891 1.395 . S
C895 C896 1.379 . S
C895 H912 0.930 . S
C896 C894 1.395 . S
C896 C895 1.379 . S
C896 H913 0.930 . S
C897 O880 1.264 . S
C897 O881 1.254 . S
C898 Eu834 2.848 . S
C898 O878 1.257 . S
C898 O883 1.249 . S
C898 C891 1.492 . S
C899 H864 0.931 . S
C899 C877 1.420 . S
C899 C900 1.351 . S
C900 H862 0.930 . S
C900 C868 1.423 . S
C900 C899 1.351 . S
C901 O885 1.276 . S
C901 O888 1.235 . S
C902 C903 1.393 . S
C902 C906 1.395 . S
C902 C909 1.492 . S
C903 C902 1.393 . S
C903 C904 1.392 . S
C903 H914 0.930 . S
C904 C903 1.392 . S
C904 C905 1.386 . S
C905 C904 1.386 . S
C905 C907 1.395 . S
C905 H915 0.930 . S
C906 C902 1.395 . S
C906 C907 1.379 . S
C906 H916 0.930 . S
C907 C905 1.395 . S
C907 C906 1.379 . S
C907 H917 0.930 . S
C908 O886 1.264 . S
C908 O887 1.254 . S
C909 Eu845 2.848 . S
C909 O884 1.257 . S
C909 O889 1.249 . S
C909 C902 1.492 . S
H910 C893 0.930 . S
H911 C894 0.930 . S
H912 C895 0.930 . S
H913 C896 0.930 . S
H914 C903 0.930 . S
H915 C905 0.930 . S
H916 C906 0.930 . S
H917 C907 0.930 . S
H918 C924 0.930 . S
H919 C928 0.995 . S
H920 C933 0.929 . S
H921 C931 0.929 . S
H922 C926 0.929 . S
H923 C932 0.929 . S
C924 H918 0.930 . S
C924 C925 1.367 . S
C924 C932 1.378 . S
C925 C924 1.367 . S
C925 C933 1.433 . S
C926 H922 0.929 . S
C926 C928 1.378 . S
C926 C930 1.350 . S
C927 C930 1.463 . S
C927 C932 1.350 . S
C927 N935 1.427 . S
C928 H919 0.995 . S
C928 C926 1.378 . S
C928 C929 1.367 . S
C929 C928 1.367 . S
C929 C931 1.433 . S
C930 C926 1.350 . S
C930 C927 1.463 . S
C930 N934 1.427 . S
C931 H921 0.929 . S
C931 C929 1.433 . S
C931 N934 1.384 . S
C932 H923 0.929 . S
C932 C924 1.378 . S
C932 C927 1.350 . S
C933 H920 0.929 . S
C933 C925 1.433 . S
C933 N935 1.384 . S
N934 C930 1.427 . S
N934 C931 1.384 . S
N935 C927 1.427 . S
N935 C933 1.384 . S
H936 C942 0.930 . S
H937 C946 0.930 . S
H938 C951 0.929 . S
H939 C949 0.929 . S
H940 C944 0.929 . S
H941 C950 0.929 . S
C942 H936 0.930 . S
C942 C943 1.367 . S
C942 C950 1.378 . S
C943 C942 1.367 . S
C943 C951 1.433 . S
C944 H940 0.929 . S
C944 C946 1.378 . S
C944 C948 1.350 . S
C945 C948 1.463 . S
C945 C950 1.350 . S
C945 N953 1.427 . S
C946 H937 0.930 . S
C946 C944 1.378 . S
C946 C947 1.367 . S
C947 C946 1.367 . S
C947 C949 1.433 . S
C948 C944 1.350 . S
C948 C945 1.463 . S
C948 N952 1.427 . S
C949 H939 0.929 . S
C949 C947 1.433 . S
C949 N952 1.384 . S
C950 H941 0.929 . S
C950 C942 1.378 . S
C950 C945 1.350 . S
C951 H938 0.929 . S
C951 C943 1.433 . S
C951 N953 1.384 . S
N952 C948 1.427 . S
N952 C949 1.384 . S
N953 C945 1.427 . S
N953 C951 1.384 . S
H954 C960 0.930 . S
H955 C964 0.930 . S
H956 C969 0.929 . S
H957 C967 0.929 . S
H958 C962 0.929 . S
H959 C968 0.929 . S
C960 H954 0.930 . S
C960 C961 1.367 . S
C960 C968 1.378 . S
C961 C960 1.367 . S
C961 C969 1.433 . S
C962 H958 0.929 . S
C962 C964 1.378 . S
C962 C966 1.350 . S
C963 C966 1.463 . S
C963 C968 1.350 . S
C963 N971 1.427 . S
C964 H955 0.930 . S
C964 C962 1.378 . S
C964 C965 1.367 . S
C965 C964 1.367 . S
C965 C967 1.433 . S
C966 C962 1.350 . S
C966 C963 1.463 . S
C966 N970 1.427 . S
C967 H957 0.929 . S
C967 C965 1.433 . S
C967 N970 1.384 . S
C968 H959 0.929 . S
C968 C960 1.378 . S
C968 C963 1.350 . S
C969 H956 0.929 . S
C969 C961 1.433 . S
C969 N971 1.384 . S
N970 C966 1.427 . S
N970 C967 1.384 . S
N971 C963 1.427 . S
N971 C969 1.384 . S
H972 C978 0.930 . S
H973 C982 0.930 . S
H974 C987 0.929 . S
H975 C985 0.929 . S
H976 C980 0.929 . S
H977 C986 0.929 . S
C978 H972 0.930 . S
C978 C979 1.367 . S
C978 C986 1.378 . S
C979 C978 1.367 . S
C979 C987 1.433 . S
C980 H976 0.929 . S
C980 C982 1.378 . S
C980 C984 1.350 . S
C981 C984 1.463 . S
C981 C986 1.350 . S
C981 N989 1.427 . S
C982 H973 0.930 . S
C982 C980 1.378 . S
C982 C983 1.367 . S
C983 C982 1.367 . S
C983 C985 1.433 . S
C984 C980 1.350 . S
C984 C981 1.463 . S
C984 N988 1.427 . S
C985 H975 0.929 . S
C985 C983 1.433 . S
C985 N988 1.384 . S
C986 H977 0.929 . S
C986 C978 1.378 . S
C986 C981 1.350 . S
C987 H974 0.929 . S
C987 C979 1.433 . S
C987 N989 1.384 . S
N988 C984 1.427 . S
N988 C985 1.384 . S
N989 C981 1.427 . S
N989 C987 1.384 . S
H990 C996 0.930 . S
H991 C1000 0.930 . S
H992 C1005 0.929 . S
H993 C1003 0.929 . S
H994 C998 0.929 . S
H995 C1004 0.929 . S
C996 H990 0.930 . S
C996 C997 1.367 . S
C996 C1004 1.378 . S
C997 C996 1.367 . S
C997 C1005 1.433 . S
C998 H994 0.929 . S
C998 C1000 1.378 . S
C998 C1002 1.350 . S
C999 C1002 1.463 . S
C999 C1004 1.350 . S
C999 N1007 1.427 . S
C1000 H991 0.930 . S
C1000 C998 1.378 . S
C1000 C1001 1.367 . S
C1001 C1000 1.367 . S
C1001 C1003 1.433 . S
C1002 C998 1.350 . S
C1002 C999 1.463 . S
C1002 N1006 1.427 . S
C1003 H993 0.929 . S
C1003 C1001 1.433 . S
C1003 N1006 1.384 . S
C1004 H995 0.929 . S
C1004 C996 1.378 . S
C1004 C999 1.350 . S
C1005 H992 0.929 . S
C1005 C997 1.433 . S
C1005 N1007 1.384 . S
N1006 C1002 1.427 . S
N1006 C1003 1.384 . S
N1007 C999 1.427 . S
N1007 C1005 1.384 . S
H1008 C1014 0.930 . S
H1009 C1018 0.930 . S
H1010 C1023 0.929 . S
H1011 C1021 0.929 1_554 S
H1012 C1016 0.929 . S
H1013 C1022 0.929 . S
C1014 H1008 0.930 . S
C1014 C1015 1.367 . S
C1014 C1022 1.378 . S
C1015 C1014 1.367 . S
C1015 C1023 1.433 . S
C1016 H1012 0.929 . S
C1016 C1018 1.378 . S
C1016 C1020 1.350 . S
C1017 C1020 1.463 . S
C1017 C1022 1.350 . S
C1017 N1025 1.427 . S
C1018 H1009 0.930 . S
C1018 C1016 1.378 . S
C1018 C1019 1.367 . S
C1019 C1018 1.367 . S
C1019 C1021 1.433 . S
C1020 C1016 1.350 . S
C1020 C1017 1.463 . S
C1020 N1024 1.427 . S
C1021 H1011 0.929 1_556 S
C1021 C1019 1.433 . S
C1021 N1024 1.384 . S
C1022 H1013 0.929 . S
C1022 C1014 1.378 . S
C1022 C1017 1.350 . S
C1023 H1010 0.929 . S
C1023 C1015 1.433 . S
C1023 N1025 1.384 . S
N1024 C1020 1.427 . S
N1024 C1021 1.384 . S
N1025 C1017 1.427 . S
N1025 C1023 1.384 . S
H1026 C1032 0.930 . S
H1027 C1036 0.930 . S
H1028 C1041 0.929 . S
H1029 C1039 0.929 1_554 S
H1030 C1034 0.929 . S
H1031 C1040 0.929 . S
C1032 H1026 0.930 . S
C1032 C1033 1.367 . S
C1032 C1040 1.378 . S
C1033 C1032 1.367 . S
C1033 C1041 1.433 . S
C1034 H1030 0.929 . S
C1034 C1036 1.378 . S
C1034 C1038 1.350 . S
C1035 C1038 1.463 . S
C1035 C1040 1.350 . S
C1035 N1043 1.427 . S
C1036 H1027 0.930 . S
C1036 C1034 1.378 . S
C1036 C1037 1.367 . S
C1037 C1036 1.367 . S
C1037 C1039 1.433 . S
C1038 C1034 1.350 . S
C1038 C1035 1.463 . S
C1038 N1042 1.427 . S
C1039 H1029 0.929 1_556 S
C1039 C1037 1.433 . S
C1039 N1042 1.384 . S
C1040 H1031 0.929 . S
C1040 C1032 1.378 . S
C1040 C1035 1.350 . S
C1041 H1028 0.929 . S
C1041 C1033 1.433 . S
C1041 N1043 1.384 . S
N1042 C1038 1.427 . S
N1042 C1039 1.384 . S
N1043 C1035 1.427 . S
N1043 C1041 1.384 . S
H1044 C1050 0.930 . S
H1045 C1054 0.930 . S
H1046 C1059 0.929 . S
H1047 C1057 0.929 1_554 S
H1048 C1052 0.929 . S
H1049 C1058 0.929 . S
C1050 H1044 0.930 . S
C1050 C1051 1.367 . S
C1050 C1058 1.378 . S
C1051 C1050 1.367 . S
C1051 C1059 1.433 . S
C1052 H1048 0.929 . S
C1052 C1054 1.378 . S
C1052 C1056 1.350 . S
C1053 C1056 1.463 . S
C1053 C1058 1.350 . S
C1053 N1061 1.427 . S
C1054 H1045 0.930 . S
C1054 C1052 1.378 . S
C1054 C1055 1.367 . S
C1055 C1054 1.367 . S
C1055 C1057 1.433 . S
C1056 C1052 1.350 . S
C1056 C1053 1.463 . S
C1056 N1060 1.427 . S
C1057 H1047 0.929 1_556 S
C1057 C1055 1.433 . S
C1057 N1060 1.384 . S
C1058 H1049 0.929 . S
C1058 C1050 1.378 . S
C1058 C1053 1.350 . S
C1059 H1046 0.929 . S
C1059 C1051 1.433 . S
C1059 N1061 1.384 . S
N1060 C1056 1.427 . S
N1060 C1057 1.384 . S
N1061 C1053 1.427 . S
N1061 C1059 1.384 . S
H1062 C1068 0.930 . S
H1063 C1072 0.930 . S
H1064 C1077 0.929 . S
H1065 C1075 0.929 . S
H1066 C1070 0.929 . S
H1067 C1076 0.929 . S
C1068 H1062 0.930 . S
C1068 C1069 1.367 . S
C1068 C1076 1.378 . S
C1069 C1068 1.367 . S
C1069 C1077 1.433 . S
C1070 H1066 0.929 . S
C1070 C1072 1.378 . S
C1070 C1074 1.350 . S
C1071 C1074 1.463 . S
C1071 C1076 1.350 . S
C1071 N1079 1.427 . S
C1072 H1063 0.930 . S
C1072 C1070 1.378 . S
C1072 C1073 1.367 . S
C1073 C1072 1.367 . S
C1073 C1075 1.433 . S
C1074 C1070 1.350 . S
C1074 C1071 1.463 . S
C1074 N1078 1.427 . S
C1075 H1065 0.929 . S
C1075 C1073 1.433 . S
C1075 N1078 1.384 . S
C1076 H1067 0.929 . S
C1076 C1068 1.378 . S
C1076 C1071 1.350 . S
C1077 H1064 0.929 . S
C1077 C1069 1.433 . S
C1077 N1079 1.384 . S
N1078 C1074 1.427 . S
N1078 C1075 1.384 . S
N1079 C1071 1.427 . S
N1079 C1077 1.384 . S
H1080 C1086 0.930 . S
H1081 C1090 0.930 . S
H1082 C1095 0.929 . S
H1083 C1093 0.929 . S
H1084 C1088 0.929 . S
H1085 C1094 0.929 . S
C1086 H1080 0.930 . S
C1086 C1087 1.367 . S
C1086 C1094 1.378 . S
C1087 C1086 1.367 . S
C1087 C1095 1.433 . S
C1088 H1084 0.929 . S
C1088 C1090 1.378 . S
C1088 C1092 1.350 . S
C1089 C1092 1.463 . S
C1089 C1094 1.350 . S
C1089 N1097 1.427 . S
C1090 H1081 0.930 . S
C1090 C1088 1.378 . S
C1090 C1091 1.367 . S
C1091 C1090 1.367 . S
C1091 C1093 1.433 . S
C1092 C1088 1.350 . S
C1092 C1089 1.463 . S
C1092 N1096 1.427 . S
C1093 H1083 0.929 . S
C1093 C1091 1.433 . S
C1093 N1096 1.384 . S
C1094 H1085 0.929 . S
C1094 C1086 1.378 . S
C1094 C1089 1.350 . S
C1095 H1082 0.929 . S
C1095 C1087 1.433 . S
C1095 N1097 1.384 . S
N1096 C1092 1.427 . S
N1096 C1093 1.384 . S
N1097 C1089 1.427 . S
N1097 C1095 1.384 . S
H1098 C1104 0.930 . S
H1099 C1108 0.930 . S
H1100 C1113 0.929 . S
H1101 C1111 0.929 . S
H1102 C1106 0.929 . S
H1103 C1112 0.929 . S
C1104 H1098 0.930 . S
C1104 C1105 1.367 . S
C1104 C1112 1.378 . S
C1105 C1104 1.367 . S
C1105 C1113 1.433 . S
C1106 H1102 0.929 . S
C1106 C1108 1.378 . S
C1106 C1110 1.350 . S
C1107 C1110 1.463 . S
C1107 C1112 1.350 . S
C1107 N1115 1.427 . S
C1108 H1099 0.930 . S
C1108 C1106 1.378 . S
C1108 C1109 1.367 . S
C1109 C1108 1.367 . S
C1109 C1111 1.433 . S
C1110 C1106 1.350 . S
C1110 C1107 1.463 . S
C1110 N1114 1.427 . S
C1111 H1101 0.929 . S
C1111 C1109 1.433 . S
C1111 N1114 1.384 . S
C1112 H1103 0.929 . S
C1112 C1104 1.378 . S
C1112 C1107 1.350 . S
C1113 H1100 0.929 . S
C1113 C1105 1.433 . S
C1113 N1115 1.384 . S
N1114 C1110 1.427 . S
N1114 C1111 1.384 . S
N1115 C1107 1.427 . S
N1115 C1113 1.384 . S
H1116 C1122 0.930 . S
H1117 C1126 0.930 . S
H1118 C1131 0.929 . S
H1119 C1129 0.929 . S
H1120 C1124 0.929 . S
H1121 C1130 0.929 . S
C1122 H1116 0.930 . S
C1122 C1123 1.367 . S
C1122 C1130 1.378 . S
C1123 C1122 1.367 . S
C1123 C1131 1.433 . S
C1124 H1120 0.929 . S
C1124 C1126 1.378 . S
C1124 C1128 1.350 . S
C1125 C1128 1.463 . S
C1125 C1130 1.350 . S
C1125 N1133 1.427 . S
C1126 H1117 0.930 . S
C1126 C1124 1.378 . S
C1126 C1127 1.367 . S
C1127 C1126 1.367 . S
C1127 C1129 1.433 . S
C1128 C1124 1.350 . S
C1128 C1125 1.463 . S
C1128 N1132 1.427 . S
C1129 H1119 0.929 . S
C1129 C1127 1.433 . S
C1129 N1132 1.384 . S
C1130 H1121 0.929 . S
C1130 C1122 1.378 . S
C1130 C1125 1.350 . S
C1131 H1118 0.929 . S
C1131 C1123 1.433 . S
C1131 N1133 1.384 . S
N1132 C1128 1.427 . S
N1132 C1129 1.384 . S
N1133 C1125 1.427 . S
N1133 C1131 1.384 . S
H1134 C1140 0.930 . S
H1135 C1144 0.930 . S
H1136 C1149 0.929 . S
H1137 C1147 0.929 . S
H1138 C1142 0.929 . S
H1139 C1148 0.929 1_455 S
C1140 H1134 0.930 . S
C1140 C1141 1.367 . S
C1140 C1148 1.378 . S
C1141 C1140 1.367 . S
C1141 C1149 1.433 . S
C1142 H1138 0.929 . S
C1142 C1144 1.378 . S
C1142 C1146 1.350 . S
C1143 C1146 1.463 1_655 S
C1143 C1148 1.350 . S
C1143 N1151 1.427 . S
C1144 H1135 0.930 . S
C1144 C1142 1.378 . S
C1144 C1145 1.367 . S
C1145 C1144 1.367 . S
C1145 C1147 1.433 . S
C1146 C1142 1.350 . S
C1146 C1143 1.463 1_455 S
C1146 N1150 1.427 . S
C1147 H1137 0.929 . S
C1147 C1145 1.433 . S
C1147 N1150 1.384 . S
C1148 H1139 0.929 1_655 S
C1148 C1140 1.378 . S
C1148 C1143 1.350 . S
C1149 H1136 0.929 . S
C1149 C1141 1.433 . S
C1149 N1151 1.384 . S
N1150 C1146 1.427 . S
N1150 C1147 1.384 . S
N1151 C1143 1.427 . S
N1151 C1149 1.384 . S
H1152 C1158 0.930 . S
H1153 C1162 0.930 . S
H1154 C1167 0.929 . S
H1155 C1165 0.929 . S
H1156 C1160 0.929 . S
H1157 C1166 0.929 . S
C1158 H1152 0.930 . S
C1158 C1159 1.367 . S
C1158 C1166 1.378 . S
C1159 C1158 1.367 . S
C1159 C1167 1.433 . S
C1160 H1156 0.929 . S
C1160 C1162 1.378 . S
C1160 C1164 1.350 . S
C1161 C1164 1.463 . S
C1161 C1166 1.350 . S
C1161 N1169 1.427 . S
C1162 H1153 0.930 . S
C1162 C1160 1.378 . S
C1162 C1163 1.367 . S
C1163 C1162 1.367 . S
C1163 C1165 1.433 . S
C1164 C1160 1.350 . S
C1164 C1161 1.463 . S
C1164 N1168 1.427 . S
C1165 H1155 0.929 . S
C1165 C1163 1.433 . S
C1165 N1168 1.384 . S
C1166 H1157 0.929 . S
C1166 C1158 1.378 . S
C1166 C1161 1.350 . S
C1167 H1154 0.929 . S
C1167 C1159 1.433 . S
C1167 N1169 1.384 . S
N1168 C1164 1.427 . S
N1168 C1165 1.384 . S
N1169 C1161 1.427 . S
N1169 C1167 1.384 . S
H1170 C1176 0.930 . S
H1171 C1180 0.930 . S
H1172 C1185 0.929 . S
H1173 C1183 0.929 . S
H1174 C1178 0.929 . S
H1175 C1184 0.929 . S
C1176 H1170 0.930 . S
C1176 C1177 1.367 . S
C1176 C1184 1.378 . S
C1177 C1176 1.367 . S
C1177 C1185 1.433 . S
C1178 H1174 0.929 . S
C1178 C1180 1.378 . S
C1178 C1182 1.350 . S
C1179 C1182 1.463 1_545 S
C1179 C1184 1.350 . S
C1179 N1187 1.427 . S
C1180 H1171 0.930 . S
C1180 C1178 1.378 . S
C1180 C1181 1.367 . S
C1181 C1180 1.367 . S
C1181 C1183 1.433 . S
C1182 C1178 1.350 . S
C1182 C1179 1.463 1_565 S
C1182 N1186 1.427 . S
C1183 H1173 0.929 . S
C1183 C1181 1.433 . S
C1183 N1186 1.384 . S
C1184 H1175 0.929 . S
C1184 C1176 1.378 . S
C1184 C1179 1.350 . S
C1185 H1172 0.929 . S
C1185 C1177 1.433 . S
C1185 N1187 1.384 . S
N1186 C1182 1.427 . S
N1186 C1183 1.384 . S
N1187 C1179 1.427 . S
N1187 C1185 1.384 . S
H1188 C1194 0.930 . S
H1189 C1198 0.930 . S
H1190 C1203 0.929 . S
H1191 C1201 0.929 . S
H1192 C1196 0.929 . S
H1193 C1202 0.929 . S
C1194 H1188 0.930 . S
C1194 C1195 1.367 . S
C1194 C1202 1.378 . S
C1195 C1194 1.367 . S
C1195 C1203 1.433 . S
C1196 H1192 0.929 . S
C1196 C1198 1.378 . S
C1196 C1200 1.350 . S
C1197 C1200 1.463 . S
C1197 C1202 1.350 . S
C1197 N1205 1.427 . S
C1198 H1189 0.930 . S
C1198 C1196 1.378 . S
C1198 C1199 1.367 . S
C1199 C1198 1.367 . S
C1199 C1201 1.433 . S
C1200 C1196 1.350 . S
C1200 C1197 1.463 . S
C1200 N1204 1.427 . S
C1201 H1191 0.929 . S
C1201 C1199 1.433 . S
C1201 N1204 1.384 . S
C1202 H1193 0.929 . S
C1202 C1194 1.378 . S
C1202 C1197 1.350 . S
C1203 H1190 0.929 . S
C1203 C1195 1.433 . S
C1203 N1205 1.384 . S
N1204 C1200 1.427 . S
N1204 C1201 1.384 . S
N1205 C1197 1.427 . S
N1205 C1203 1.384 . S
H1206 C1212 0.930 . S
H1207 C1216 0.930 . S
H1208 C1221 0.929 . S
H1209 C1219 0.929 . S
H1210 C1214 0.929 . S
H1211 C1220 0.929 . S
C1212 H1206 0.930 . S
C1212 C1213 1.367 . S
C1212 C1220 1.378 . S
C1213 C1212 1.367 . S
C1213 C1221 1.433 . S
C1214 H1210 0.929 . S
C1214 C1216 1.378 . S
C1214 C1218 1.350 . S
C1215 C1218 1.463 . S
C1215 C1220 1.350 . S
C1215 N1223 1.427 . S
C1216 H1207 0.930 . S
C1216 C1214 1.378 . S
C1216 C1217 1.367 . S
C1217 C1216 1.367 . S
C1217 C1219 1.433 . S
C1218 C1214 1.350 . S
C1218 C1215 1.463 . S
C1218 N1222 1.427 . S
C1219 H1209 0.929 . S
C1219 C1217 1.433 . S
C1219 N1222 1.384 . S
C1220 H1211 0.929 . S
C1220 C1212 1.378 . S
C1220 C1215 1.350 . S
C1221 H1208 0.929 . S
C1221 C1213 1.433 . S
C1221 N1223 1.384 . S
N1222 C1218 1.427 . S
N1222 C1219 1.384 . S
N1223 C1215 1.427 . S
N1223 C1221 1.384 . S
H1224 C1230 0.930 . S
H1225 C1234 0.930 . S
H1226 C1239 0.929 . S
H1227 C1237 0.929 . S
H1228 C1232 0.929 . S
H1229 C1238 0.929 . S
C1230 H1224 0.930 . S
C1230 C1231 1.367 . S
C1230 C1238 1.378 . S
C1231 C1230 1.367 . S
C1231 C1239 1.433 . S
C1232 H1228 0.929 . S
C1232 C1234 1.378 . S
C1232 C1236 1.350 . S
C1233 C1236 1.463 . S
C1233 C1238 1.350 . S
C1233 N1241 1.427 . S
C1234 H1225 0.930 . S
C1234 C1232 1.378 . S
C1234 C1235 1.367 . S
C1235 C1234 1.367 . S
C1235 C1237 1.433 . S
C1236 C1232 1.350 . S
C1236 C1233 1.463 . S
C1236 N1240 1.427 . S
C1237 H1227 0.929 . S
C1237 C1235 1.433 . S
C1237 N1240 1.384 . S
C1238 H1229 0.929 . S
C1238 C1230 1.378 . S
C1238 C1233 1.350 . S
C1239 H1226 0.929 . S
C1239 C1231 1.433 . S
C1239 N1241 1.384 . S
N1240 C1236 1.427 . S
N1240 C1237 1.384 . S
N1241 C1233 1.427 . S
N1241 C1239 1.384 . S
H1242 C1248 0.930 . S
H1243 C1252 0.930 . S
H1244 C1257 0.929 . S
H1245 C1255 0.929 . S
H1246 C1250 0.929 . S
H1247 C1256 0.929 . S
C1248 H1242 0.930 . S
C1248 C1249 1.367 . S
C1248 C1256 1.378 . S
C1249 C1248 1.367 . S
C1249 C1257 1.433 . S
C1250 H1246 0.929 . S
C1250 C1252 1.378 . S
C1250 C1254 1.350 . S
C1251 C1254 1.463 . S
C1251 C1256 1.350 . S
C1251 N1259 1.427 . S
C1252 H1243 0.930 . S
C1252 C1250 1.378 . S
C1252 C1253 1.367 . S
C1253 C1252 1.367 . S
C1253 C1255 1.433 . S
C1254 C1250 1.350 . S
C1254 C1251 1.463 . S
C1254 N1258 1.427 . S
C1255 H1245 0.929 . S
C1255 C1253 1.433 . S
C1255 N1258 1.384 . S
C1256 H1247 0.929 . S
C1256 C1248 1.378 . S
C1256 C1251 1.350 . S
C1257 H1244 0.929 . S
C1257 C1249 1.433 . S
C1257 N1259 1.384 . S
N1258 C1254 1.427 . S
N1258 C1255 1.384 . S
N1259 C1251 1.427 . S
N1259 C1257 1.384 . S
H1260 C1266 0.930 . S
H1261 C1270 0.930 . S
H1262 C1275 0.929 . S
H1263 C1273 0.929 . S
H1264 C1268 0.929 . S
H1265 C1274 0.929 . S
C1266 H1260 0.930 . S
C1266 C1267 1.367 . S
C1266 C1274 1.378 . S
C1267 C1266 1.367 . S
C1267 C1275 1.433 . S
C1268 H1264 0.929 . S
C1268 C1270 1.378 . S
C1268 C1272 1.350 . S
C1269 C1272 1.463 . S
C1269 C1274 1.350 . S
C1269 N1277 1.427 . S
C1270 H1261 0.930 . S
C1270 C1268 1.378 . S
C1270 C1271 1.367 . S
C1271 C1270 1.367 . S
C1271 C1273 1.433 . S
C1272 C1268 1.350 . S
C1272 C1269 1.463 . S
C1272 N1276 1.427 . S
C1273 H1263 0.929 . S
C1273 C1271 1.433 . S
C1273 N1276 1.384 . S
C1274 H1265 0.929 . S
C1274 C1266 1.378 . S
C1274 C1269 1.350 . S
C1275 H1262 0.929 . S
C1275 C1267 1.433 . S
C1275 N1277 1.384 . S
N1276 C1272 1.427 . S
N1276 C1273 1.384 . S
N1277 C1269 1.427 . S
N1277 C1275 1.384 . S
H1278 C1284 0.930 . S
H1279 C1288 0.930 . S
H1280 C1293 0.929 . S
H1281 C1291 0.929 . S
H1282 C1286 0.929 . S
H1283 C1292 0.929 . S
C1284 H1278 0.930 . S
C1284 C1285 1.367 . S
C1284 C1292 1.378 . S
C1285 C1284 1.367 . S
C1285 C1293 1.433 . S
C1286 H1282 0.929 . S
C1286 C1288 1.378 . S
C1286 C1290 1.350 . S
C1287 C1290 1.463 . S
C1287 C1292 1.350 . S
C1287 N1295 1.427 . S
C1288 H1279 0.930 . S
C1288 C1286 1.378 . S
C1288 C1289 1.367 . S
C1289 C1288 1.367 . S
C1289 C1291 1.433 . S
C1290 C1286 1.350 . S
C1290 C1287 1.463 . S
C1290 N1294 1.427 . S
C1291 H1281 0.929 . S
C1291 C1289 1.433 . S
C1291 N1294 1.384 . S
C1292 H1283 0.929 . S
C1292 C1284 1.378 . S
C1292 C1287 1.350 . S
C1293 H1280 0.929 . S
C1293 C1285 1.433 . S
C1293 N1295 1.384 . S
N1294 C1290 1.427 . S
N1294 C1291 1.384 . S
N1295 C1287 1.427 . S
N1295 C1293 1.384 . S
H1296 C1302 0.930 . S
H1297 C1306 0.930 . S
H1298 C1311 0.929 . S
H1299 C1309 0.929 . S
H1300 C1304 0.929 . S
H1301 C1310 0.928 1_565 S
C1302 H1296 0.930 . S
C1302 C1303 1.367 . S
C1302 C1310 1.378 . S
C1303 C1302 1.367 . S
C1303 C1311 1.433 . S
C1304 H1300 0.929 . S
C1304 C1306 1.378 . S
C1304 C1308 1.350 . S
C1305 C1308 1.463 1_545 S
C1305 C1310 1.350 . S
C1305 N1313 1.427 . S
C1306 H1297 0.930 . S
C1306 C1304 1.378 . S
C1306 C1307 1.367 . S
C1307 C1306 1.367 . S
C1307 C1309 1.433 . S
C1308 C1304 1.350 . S
C1308 C1305 1.463 1_565 S
C1308 N1312 1.427 . S
C1309 H1299 0.929 . S
C1309 C1307 1.433 . S
C1309 N1312 1.384 . S
C1310 H1301 0.928 1_545 S
C1310 C1302 1.378 . S
C1310 C1305 1.350 . S
C1311 H1298 0.929 . S
C1311 C1303 1.433 . S
C1311 N1313 1.384 . S
N1312 C1308 1.427 . S
N1312 C1309 1.384 . S
N1313 C1305 1.427 . S
N1313 C1311 1.384 . S
H1314 C1320 0.930 . S
H1315 C1324 0.930 . S
H1316 C1329 0.929 . S
H1317 C1327 0.929 . S
H1318 C1322 0.929 . S
H1319 C1328 0.944 . S
C1320 H1314 0.930 . S
C1320 C1321 1.367 . S
C1320 C1328 1.357 1_655 S
C1321 C1320 1.367 . S
C1321 C1329 1.433 . S
C1322 H1318 0.929 . S
C1322 C1324 1.378 . S
C1322 C1326 1.350 . S
C1323 C1326 1.480 . S
C1323 C1328 1.351 . S
C1323 N1331 1.415 1_455 S
C1324 H1315 0.930 . S
C1324 C1322 1.378 . S
C1324 C1325 1.367 . S
C1325 C1324 1.367 . S
C1325 C1327 1.433 . S
C1326 C1322 1.350 . S
C1326 C1323 1.480 . S
C1326 N1330 1.427 . S
C1327 H1317 0.929 . S
C1327 C1325 1.433 . S
C1327 N1330 1.384 . S
C1328 H1319 0.944 . S
C1328 C1320 1.357 1_455 S
C1328 C1323 1.351 . S
C1329 H1316 0.929 . S
C1329 C1321 1.433 . S
C1329 N1331 1.384 . S
N1330 C1326 1.427 . S
N1330 C1327 1.384 . S
N1331 C1323 1.415 1_655 S
N1331 C1329 1.384 . S
H1332 C1338 0.930 . S
H1333 C1342 0.930 . S
H1334 C1347 0.929 . S
H1335 C1345 0.929 . S
H1336 C1340 0.929 . S
H1337 C1346 0.929 . S
C1338 H1332 0.930 . S
C1338 C1339 1.367 . S
C1338 C1346 1.378 . S
C1339 C1338 1.367 . S
C1339 C1347 1.433 . S
C1340 H1336 0.929 . S
C1340 C1342 1.378 . S
C1340 C1344 1.350 . S
C1341 C1344 1.463 . S
C1341 C1346 1.350 . S
C1341 N1349 1.427 . S
C1342 H1333 0.930 . S
C1342 C1340 1.378 . S
C1342 C1343 1.367 . S
C1343 C1342 1.367 . S
C1343 C1345 1.433 . S
C1344 C1340 1.350 . S
C1344 C1341 1.463 . S
C1344 N1348 1.427 . S
C1345 H1335 0.929 . S
C1345 C1343 1.433 . S
C1345 N1348 1.384 . S
C1346 H1337 0.929 . S
C1346 C1338 1.378 . S
C1346 C1341 1.350 . S
C1347 H1334 0.929 . S
C1347 C1339 1.433 . S
C1347 N1349 1.384 . S
N1348 C1344 1.427 . S
N1348 C1345 1.384 . S
N1349 C1341 1.427 . S
N1349 C1347 1.384 . S
H1350 C1356 0.930 . S
H1351 C1360 0.930 . S
H1352 C1365 0.929 . S
H1353 C1363 0.929 . S
H1354 C1358 0.929 . S
H1355 C1364 0.929 . S
C1356 H1350 0.930 . S
C1356 C1357 1.367 . S
C1356 C1364 1.378 . S
C1357 C1356 1.367 . S
C1357 C1365 1.433 . S
C1358 H1354 0.929 . S
C1358 C1360 1.378 . S
C1358 C1362 1.350 . S
C1359 C1362 1.463 . S
C1359 C1364 1.350 . S
C1359 N1367 1.427 . S
C1360 H1351 0.930 . S
C1360 C1358 1.378 . S
C1360 C1361 1.367 . S
C1361 C1360 1.367 . S
C1361 C1363 1.433 . S
C1362 C1358 1.350 . S
C1362 C1359 1.463 . S
C1362 N1366 1.427 . S
C1363 H1353 0.929 . S
C1363 C1361 1.433 . S
C1363 N1366 1.384 . S
C1364 H1355 0.929 . S
C1364 C1356 1.378 . S
C1364 C1359 1.350 . S
C1365 H1352 0.929 . S
C1365 C1357 1.433 . S
C1365 N1367 1.384 . S
N1366 C1362 1.427 . S
N1366 C1363 1.384 . S
N1367 C1359 1.427 . S
N1367 C1365 1.384 . S
H1368 C1374 0.930 . S
H1369 C1378 0.930 . S
H1370 C1383 0.929 . S
H1371 C1381 0.929 . S
H1372 C1376 0.929 . S
H1373 C1382 0.929 . S
C1374 H1368 0.930 . S
C1374 C1375 1.367 . S
C1374 C1382 1.378 . S
C1375 C1374 1.367 . S
C1375 C1383 1.433 . S
C1376 H1372 0.929 . S
C1376 C1378 1.378 . S
C1376 C1380 1.350 . S
C1377 C1380 1.463 . S
C1377 C1382 1.350 . S
C1377 N1385 1.427 . S
C1378 H1369 0.930 . S
C1378 C1376 1.378 . S
C1378 C1379 1.367 . S
C1379 C1378 1.367 . S
C1379 C1381 1.433 . S
C1380 C1376 1.350 . S
C1380 C1377 1.463 . S
C1380 N1384 1.427 . S
C1381 H1371 0.929 . S
C1381 C1379 1.433 . S
C1381 N1384 1.384 . S
C1382 H1373 0.929 . S
C1382 C1374 1.378 . S
C1382 C1377 1.350 . S
C1383 H1370 0.929 . S
C1383 C1375 1.433 . S
C1383 N1385 1.384 . S
N1384 C1380 1.427 . S
N1384 C1381 1.384 . S
N1385 C1377 1.427 . S
N1385 C1383 1.384 . S
H1386 C1392 0.930 . S
H1387 C1396 0.930 . S
H1388 C1401 0.929 . S
H1389 C1399 0.929 . S
H1390 C1394 0.929 . S
H1391 C1400 0.929 . S
C1392 H1386 0.930 . S
C1392 C1393 1.367 . S
C1392 C1400 1.378 . S
C1393 C1392 1.367 . S
C1393 C1401 1.433 . S
C1394 H1390 0.929 . S
C1394 C1396 1.378 . S
C1394 C1398 1.350 . S
C1395 C1398 1.463 . S
C1395 C1400 1.350 . S
C1395 N1403 1.427 . S
C1396 H1387 0.930 . S
C1396 C1394 1.378 . S
C1396 C1397 1.367 . S
C1397 C1396 1.367 . S
C1397 C1399 1.433 . S
C1398 C1394 1.350 . S
C1398 C1395 1.463 . S
C1398 N1402 1.427 . S
C1399 H1389 0.929 . S
C1399 C1397 1.433 . S
C1399 N1402 1.384 . S
C1400 H1391 0.929 . S
C1400 C1392 1.378 . S
C1400 C1395 1.350 . S
C1401 H1388 0.929 . S
C1401 C1393 1.433 . S
C1401 N1403 1.384 . S
N1402 C1398 1.427 . S
N1402 C1399 1.384 . S
N1403 C1395 1.427 . S
N1403 C1401 1.384 . S
H1404 C1410 0.930 . S
H1405 C1414 0.930 . S
H1406 C1419 0.929 . S
H1407 C1417 0.929 . S
H1408 C1412 0.929 . S
H1409 C1418 0.929 1_545 S
C1410 H1404 0.930 . S
C1410 C1411 1.367 . S
C1410 C1418 1.378 . S
C1411 C1410 1.367 . S
C1411 C1419 1.433 . S
C1412 H1408 0.929 . S
C1412 C1414 1.378 . S
C1412 C1416 1.350 . S
C1413 C1416 1.463 1_565 S
C1413 C1418 1.350 . S
C1413 N1421 1.427 . S
C1414 H1405 0.930 . S
C1414 C1412 1.378 . S
C1414 C1415 1.367 . S
C1415 C1414 1.367 . S
C1415 C1417 1.433 . S
C1416 C1412 1.350 . S
C1416 C1413 1.463 1_545 S
C1416 N1420 1.427 . S
C1417 H1407 0.929 . S
C1417 C1415 1.433 . S
C1417 N1420 1.384 . S
C1418 H1409 0.929 1_565 S
C1418 C1410 1.378 . S
C1418 C1413 1.350 . S
C1419 H1406 0.929 . S
C1419 C1411 1.433 . S
C1419 N1421 1.384 . S
N1420 C1416 1.427 . S
N1420 C1417 1.384 . S
N1421 C1413 1.427 . S
N1421 C1419 1.384 . S
H1422 C1428 0.930 . S
H1423 C1432 0.930 . S
H1424 C1437 0.929 . S
H1425 C1435 0.929 . S
H1426 C1430 0.929 . S
H1427 C1436 0.929 . S
C1428 H1422 0.930 . S
C1428 C1429 1.367 . S
C1428 C1436 1.378 . S
C1429 C1428 1.367 . S
C1429 C1437 1.433 . S
C1430 H1426 0.929 . S
C1430 C1432 1.378 . S
C1430 C1434 1.350 . S
C1431 C1434 1.463 1_455 S
C1431 C1436 1.350 . S
C1431 N1439 1.427 . S
C1432 H1423 0.930 . S
C1432 C1430 1.378 . S
C1432 C1433 1.367 . S
C1433 C1432 1.367 . S
C1433 C1435 1.433 . S
C1434 C1430 1.350 . S
C1434 C1431 1.463 1_655 S
C1434 N1438 1.427 . S
C1435 H1425 0.929 . S
C1435 C1433 1.433 . S
C1435 N1438 1.384 . S
C1436 H1427 0.929 . S
C1436 C1428 1.378 . S
C1436 C1431 1.350 . S
C1437 H1424 0.929 . S
C1437 C1429 1.433 . S
C1437 N1439 1.384 . S
N1438 C1434 1.427 . S
N1438 C1435 1.384 . S
N1439 C1431 1.427 . S
N1439 C1437 1.384 . S
H1440 C1446 0.930 . S
H1441 C1450 0.930 . S
H1442 C1455 0.929 . S
H1443 C1453 0.929 . S
H1444 C1448 0.929 . S
H1445 C1454 0.929 . S
C1446 H1440 0.930 . S
C1446 C1447 1.367 . S
C1446 C1454 1.378 . S
C1447 C1446 1.367 . S
C1447 C1455 1.433 . S
C1448 H1444 0.929 . S
C1448 C1450 1.378 . S
C1448 C1452 1.350 . S
C1449 C1452 1.463 . S
C1449 C1454 1.350 . S
C1449 N1457 1.427 . S
C1450 H1441 0.930 . S
C1450 C1448 1.378 . S
C1450 C1451 1.367 . S
C1451 C1450 1.367 . S
C1451 C1453 1.433 . S
C1452 C1448 1.350 . S
C1452 C1449 1.463 . S
C1452 N1456 1.427 . S
C1453 H1443 0.929 . S
C1453 C1451 1.433 . S
C1453 N1456 1.384 . S
C1454 H1445 0.929 . S
C1454 C1446 1.378 . S
C1454 C1449 1.350 . S
C1455 H1442 0.929 . S
C1455 C1447 1.433 . S
C1455 N1457 1.384 . S
N1456 C1452 1.427 . S
N1456 C1453 1.384 . S
N1457 C1449 1.427 . S
N1457 C1455 1.384 . S
H1458 C1464 0.930 . S
H1459 C1468 0.930 . S
H1460 C1473 0.929 . S
H1461 C1471 0.929 . S
H1462 C1466 0.929 . S
H1463 C1472 0.908 1_655 S
C1464 H1458 0.930 . S
C1464 C1465 1.367 . S
C1464 C1472 1.378 . S
C1465 C1464 1.367 . S
C1465 C1473 1.433 . S
C1466 H1462 0.929 . S
C1466 C1468 1.378 . S
C1466 C1470 1.350 . S
C1467 C1470 1.463 1_455 S
C1467 C1472 1.350 . S
C1467 N1475 1.427 . S
C1468 H1459 0.930 . S
C1468 C1466 1.378 . S
C1468 C1469 1.367 . S
C1469 C1468 1.367 . S
C1469 C1471 1.433 . S
C1470 C1466 1.350 . S
C1470 C1467 1.463 1_655 S
C1470 N1474 1.427 . S
C1471 H1461 0.929 . S
C1471 C1469 1.433 . S
C1471 N1474 1.384 . S
C1472 H1463 0.908 1_455 S
C1472 C1464 1.378 . S
C1472 C1467 1.350 . S
C1473 H1460 0.929 . S
C1473 C1465 1.433 . S
C1473 N1475 1.384 . S
N1474 C1470 1.427 . S
N1474 C1471 1.384 . S
N1475 C1467 1.427 . S
N1475 C1473 1.384 . S
H1476 C1482 0.930 . S
H1477 C1486 0.930 . S
H1478 C1491 0.929 . S
H1479 C1489 0.929 . S
H1480 C1484 0.929 . S
H1481 C1490 0.929 . S
C1482 H1476 0.930 . S
C1482 C1483 1.367 . S
C1482 C1490 1.378 . S
C1483 C1482 1.367 . S
C1483 C1491 1.433 . S
C1484 H1480 0.929 . S
C1484 C1486 1.378 . S
C1484 C1488 1.350 . S
C1485 C1488 1.463 . S
C1485 C1490 1.350 . S
C1485 N1493 1.427 . S
C1486 H1477 0.930 . S
C1486 C1484 1.378 . S
C1486 C1487 1.367 . S
C1487 C1486 1.367 . S
C1487 C1489 1.433 . S
C1488 C1484 1.350 . S
C1488 C1485 1.463 . S
C1488 N1492 1.427 . S
C1489 H1479 0.929 . S
C1489 C1487 1.433 . S
C1489 N1492 1.384 . S
C1490 H1481 0.929 . S
C1490 C1482 1.378 . S
C1490 C1485 1.350 . S
C1491 H1478 0.929 . S
C1491 C1483 1.433 . S
C1491 N1493 1.384 . S
N1492 C1488 1.427 . S
N1492 C1489 1.384 . S
N1493 C1485 1.427 . S
N1493 C1491 1.384 . S
H1494 C1500 0.930 . S
H1495 C1504 0.930 . S
H1496 C1509 0.929 . S
H1497 C1507 0.929 . S
H1498 C1502 0.929 . S
H1499 C1508 0.929 1_545 S
C1500 H1494 0.930 . S
C1500 C1501 1.367 . S
C1500 C1508 1.378 . S
C1501 C1500 1.367 . S
C1501 C1509 1.433 . S
C1502 H1498 0.929 . S
C1502 C1504 1.378 . S
C1502 C1506 1.350 . S
C1503 C1506 1.463 1_565 S
C1503 C1508 1.350 . S
C1503 N1511 1.427 . S
C1504 H1495 0.930 . S
C1504 C1502 1.378 . S
C1504 C1505 1.367 . S
C1505 C1504 1.367 . S
C1505 C1507 1.433 . S
C1506 C1502 1.350 . S
C1506 C1503 1.463 1_545 S
C1506 N1510 1.427 . S
C1507 H1497 0.929 . S
C1507 C1505 1.433 . S
C1507 N1510 1.384 . S
C1508 H1499 0.929 1_565 S
C1508 C1500 1.378 . S
C1508 C1503 1.350 . S
C1509 H1496 0.929 . S
C1509 C1501 1.433 . S
C1509 N1511 1.384 . S
N1510 C1506 1.427 . S
N1510 C1507 1.384 . S
N1511 C1503 1.427 . S
N1511 C1509 1.384 . S
H1512 C1518 0.930 . S
H1513 C1522 0.930 . S
H1514 C1527 0.929 . S
H1515 C1525 0.929 . S
H1516 C1520 0.929 . S
H1517 C1526 0.929 . S
C1518 H1512 0.930 . S
C1518 C1519 1.367 . S
C1518 C1526 1.378 . S
C1519 C1518 1.367 . S
C1519 C1527 1.433 . S
C1520 H1516 0.929 . S
C1520 C1522 1.378 . S
C1520 C1524 1.350 . S
C1521 C1524 1.463 . S
C1521 C1526 1.350 . S
C1521 N1529 1.427 . S
C1522 H1513 0.930 . S
C1522 C1520 1.378 . S
C1522 C1523 1.367 . S
C1523 C1522 1.367 . S
C1523 C1525 1.433 . S
C1524 C1520 1.350 . S
C1524 C1521 1.463 . S
C1524 N1528 1.427 . S
C1525 H1515 0.929 . S
C1525 C1523 1.433 . S
C1525 N1528 1.384 . S
C1526 H1517 0.929 . S
C1526 C1518 1.378 . S
C1526 C1521 1.350 . S
C1527 H1514 0.929 . S
C1527 C1519 1.433 . S
C1527 N1529 1.384 . S
N1528 C1524 1.427 . S
N1528 C1525 1.384 . S
N1529 C1521 1.427 . S
N1529 C1527 1.384 . S
H1530 C1536 0.930 . S
H1531 C1540 0.930 . S
H1532 C1545 0.929 . S
H1533 C1543 0.929 . S
H1534 C1538 0.929 . S
H1535 C1544 0.929 . S
C1536 H1530 0.930 . S
C1536 C1537 1.367 . S
C1536 C1544 1.378 . S
C1537 C1536 1.367 . S
C1537 C1545 1.433 . S
C1538 H1534 0.929 . S
C1538 C1540 1.378 . S
C1538 C1542 1.350 . S
C1539 C1542 1.463 . S
C1539 C1544 1.350 . S
C1539 N1547 1.427 . S
C1540 H1531 0.930 . S
C1540 C1538 1.378 . S
C1540 C1541 1.367 . S
C1541 C1540 1.367 . S
C1541 C1543 1.433 . S
C1542 C1538 1.350 . S
C1542 C1539 1.463 . S
C1542 N1546 1.427 . S
C1543 H1533 0.929 . S
C1543 C1541 1.433 . S
C1543 N1546 1.384 . S
C1544 H1535 0.929 . S
C1544 C1536 1.378 . S
C1544 C1539 1.350 . S
C1545 H1532 0.929 . S
C1545 C1537 1.433 . S
C1545 N1547 1.384 . S
N1546 C1542 1.427 . S
N1546 C1543 1.384 . S
N1547 C1539 1.427 . S
N1547 C1545 1.384 . S
H1548 C1554 0.930 . S
H1549 C1558 0.930 . S
H1550 C1563 0.929 . S
H1551 C1561 0.929 . S
H1552 C1556 0.929 . S
H1553 C1562 0.929 . S
C1554 H1548 0.930 . S
C1554 C1555 1.367 . S
C1554 C1562 1.378 . S
C1555 C1554 1.367 . S
C1555 C1563 1.433 . S
C1556 H1552 0.929 . S
C1556 C1558 1.378 . S
C1556 C1560 1.350 . S
C1557 C1560 1.463 . S
C1557 C1562 1.350 . S
C1557 N1565 1.427 . S
C1558 H1549 0.930 . S
C1558 C1556 1.378 . S
C1558 C1559 1.367 . S
C1559 C1558 1.367 . S
C1559 C1561 1.433 . S
C1560 C1556 1.350 . S
C1560 C1557 1.463 . S
C1560 N1564 1.427 . S
C1561 H1551 0.929 . S
C1561 C1559 1.433 . S
C1561 N1564 1.384 . S
C1562 H1553 0.929 . S
C1562 C1554 1.378 . S
C1562 C1557 1.350 . S
C1563 H1550 0.929 . S
C1563 C1555 1.433 . S
C1563 N1565 1.384 . S
N1564 C1560 1.427 . S
N1564 C1561 1.384 . S
N1565 C1557 1.427 . S
N1565 C1563 1.384 . S
H1566 C1572 0.930 . S
H1567 C1576 0.930 1_545 S
H1568 C1581 0.929 . S
H1569 C1579 0.929 . S
H1570 C1574 0.929 . S
H1571 C1580 0.929 . S
C1572 H1566 0.930 . S
C1572 C1573 1.367 . S
C1572 C1580 1.378 . S
C1573 C1572 1.367 . S
C1573 C1581 1.433 . S
C1574 H1570 0.929 . S
C1574 C1576 1.378 . S
C1574 C1578 1.350 . S
C1575 C1578 1.463 . S
C1575 C1580 1.350 . S
C1575 N1583 1.427 . S
C1576 H1567 0.930 1_565 S
C1576 C1574 1.378 . S
C1576 C1577 1.367 . S
C1577 C1576 1.367 . S
C1577 C1579 1.433 . S
C1578 C1574 1.350 . S
C1578 C1575 1.463 . S
C1578 N1582 1.427 . S
C1579 H1569 0.929 . S
C1579 C1577 1.433 . S
C1579 N1582 1.384 . S
C1580 H1571 0.929 . S
C1580 C1572 1.378 . S
C1580 C1575 1.350 . S
C1581 H1568 0.929 . S
C1581 C1573 1.433 . S
C1581 N1583 1.384 . S
N1582 C1578 1.427 . S
N1582 C1579 1.384 . S
N1583 C1575 1.427 . S
N1583 C1581 1.384 . S
H1584 C1590 0.930 . S
H1585 C1594 0.930 1_655 S
H1586 C1599 0.929 . S
H1587 C1597 0.929 . S
H1588 C1592 0.929 1_655 S
H1589 C1598 0.929 . S
C1590 H1584 0.930 . S
C1590 C1591 1.367 . S
C1590 C1598 1.378 . S
C1591 C1590 1.367 . S
C1591 C1599 1.433 . S
C1592 H1588 0.929 1_455 S
C1592 C1594 1.378 . S
C1592 C1596 1.350 . S
C1593 C1596 1.463 . S
C1593 C1598 1.350 . S
C1593 N1601 1.427 . S
C1594 H1585 0.930 1_455 S
C1594 C1592 1.378 . S
C1594 C1595 1.367 . S
C1595 C1594 1.367 . S
C1595 C1597 1.433 . S
C1596 C1592 1.350 . S
C1596 C1593 1.463 . S
C1596 N1600 1.427 . S
C1597 H1587 0.929 . S
C1597 C1595 1.433 . S
C1597 N1600 1.384 . S
C1598 H1589 0.929 . S
C1598 C1590 1.378 . S
C1598 C1593 1.350 . S
C1599 H1586 0.929 . S
C1599 C1591 1.433 . S
C1599 N1601 1.384 . S
N1600 C1596 1.427 . S
N1600 C1597 1.384 . S
N1601 C1593 1.427 . S
N1601 C1599 1.384 . S
H1602 C1608 0.930 . S
H1603 C1612 0.930 . S
H1604 C1617 0.929 . S
H1605 C1615 0.929 . S
H1606 C1610 0.929 . S
H1607 C1616 0.929 . S
C1608 H1602 0.930 . S
C1608 C1609 1.367 . S
C1608 C1616 1.378 . S
C1609 C1608 1.367 . S
C1609 C1617 1.433 . S
C1610 H1606 0.929 . S
C1610 C1612 1.378 . S
C1610 C1614 1.350 . S
C1611 C1614 1.463 . S
C1611 C1616 1.350 . S
C1611 N1619 1.427 . S
C1612 H1603 0.930 . S
C1612 C1610 1.378 . S
C1612 C1613 1.367 . S
C1613 C1612 1.367 . S
C1613 C1615 1.433 . S
C1614 C1610 1.350 . S
C1614 C1611 1.463 . S
C1614 N1618 1.427 . S
C1615 H1605 0.929 . S
C1615 C1613 1.433 . S
C1615 N1618 1.384 . S
C1616 H1607 0.929 . S
C1616 C1608 1.378 . S
C1616 C1611 1.350 . S
C1617 H1604 0.929 . S
C1617 C1609 1.433 . S
C1617 N1619 1.384 . S
N1618 C1614 1.427 . S
N1618 C1615 1.384 . S
N1619 C1611 1.427 . S
N1619 C1617 1.384 . S
H1620 C1626 0.930 . S
H1621 C1630 0.930 1_455 S
H1622 C1635 0.929 . S
H1623 C1633 0.929 . S
H1624 C1628 0.929 . S
H1625 C1634 0.929 . S
C1626 H1620 0.930 . S
C1626 C1627 1.367 . S
C1626 C1634 1.378 . S
C1627 C1626 1.367 . S
C1627 C1635 1.433 . S
C1628 H1624 0.929 . S
C1628 C1630 1.378 . S
C1628 C1632 1.350 . S
C1629 C1632 1.463 . S
C1629 C1634 1.350 . S
C1629 N1637 1.427 . S
C1630 H1621 0.930 1_655 S
C1630 C1628 1.378 . S
C1630 C1631 1.367 . S
C1631 C1630 1.367 . S
C1631 C1633 1.433 . S
C1632 C1628 1.350 . S
C1632 C1629 1.463 . S
C1632 N1636 1.427 . S
C1633 H1623 0.929 . S
C1633 C1631 1.433 . S
C1633 N1636 1.384 . S
C1634 H1625 0.929 . S
C1634 C1626 1.378 . S
C1634 C1629 1.350 . S
C1635 H1622 0.929 . S
C1635 C1627 1.433 . S
C1635 N1637 1.384 . S
N1636 C1632 1.427 . S
N1636 C1633 1.384 . S
N1637 C1629 1.427 . S
N1637 C1635 1.384 . S
H1638 C1644 0.930 . S
H1639 C1648 0.930 . S
H1640 C1653 0.929 . S
H1641 C1651 0.929 . S
H1642 C1646 0.929 . S
H1643 C1652 0.929 . S
C1644 H1638 0.930 . S
C1644 C1645 1.367 . S
C1644 C1652 1.378 . S
C1645 C1644 1.367 . S
C1645 C1653 1.433 . S
C1646 H1642 0.929 . S
C1646 C1648 1.378 . S
C1646 C1650 1.350 . S
C1647 C1650 1.463 . S
C1647 C1652 1.350 . S
C1647 N1655 1.427 . S
C1648 H1639 0.930 . S
C1648 C1646 1.378 . S
C1648 C1649 1.367 . S
C1649 C1648 1.367 . S
C1649 C1651 1.433 . S
C1650 C1646 1.350 . S
C1650 C1647 1.463 . S
C1650 N1654 1.427 . S
C1651 H1641 0.929 . S
C1651 C1649 1.433 . S
C1651 N1654 1.384 . S
C1652 H1643 0.929 . S
C1652 C1644 1.378 . S
C1652 C1647 1.350 . S
C1653 H1640 0.929 . S
C1653 C1645 1.433 . S
C1653 N1655 1.384 . S
N1654 C1650 1.427 . S
N1654 C1651 1.384 . S
N1655 C1647 1.427 . S
N1655 C1653 1.384 . S
H1656 C1662 0.930 . S
H1657 C1666 0.930 . S
H1658 C1671 0.929 . S
H1659 C1669 0.929 . S
H1660 C1664 0.929 . S
H1661 C1670 0.929 . S
C1662 H1656 0.930 . S
C1662 C1663 1.367 . S
C1662 C1670 1.378 . S
C1663 C1662 1.367 . S
C1663 C1671 1.433 . S
C1664 H1660 0.929 . S
C1664 C1666 1.378 . S
C1664 C1668 1.350 . S
C1665 C1668 1.463 . S
C1665 C1670 1.350 . S
C1665 N1673 1.427 . S
C1666 H1657 0.930 . S
C1666 C1664 1.378 . S
C1666 C1667 1.367 . S
C1667 C1666 1.367 . S
C1667 C1669 1.433 . S
C1668 C1664 1.350 . S
C1668 C1665 1.463 . S
C1668 N1672 1.427 . S
C1669 H1659 0.929 . S
C1669 C1667 1.433 . S
C1669 N1672 1.384 . S
C1670 H1661 0.929 . S
C1670 C1662 1.378 . S
C1670 C1665 1.350 . S
C1671 H1658 0.929 . S
C1671 C1663 1.433 . S
C1671 N1673 1.384 . S
N1672 C1668 1.427 . S
N1672 C1669 1.384 . S
N1673 C1665 1.427 . S
N1673 C1671 1.384 . S
H1674 C1680 0.930 . S
H1675 C1684 0.930 . S
H1676 C1689 0.929 . S
H1677 C1687 0.929 . S
H1678 C1682 0.929 . S
H1679 C1688 0.929 . S
C1680 H1674 0.930 . S
C1680 C1681 1.367 . S
C1680 C1688 1.378 . S
C1681 C1680 1.367 . S
C1681 C1689 1.433 . S
C1682 H1678 0.929 . S
C1682 C1684 1.378 . S
C1682 C1686 1.350 . S
C1683 C1686 1.463 . S
C1683 C1688 1.350 . S
C1683 N1691 1.427 . S
C1684 H1675 0.930 . S
C1684 C1682 1.378 . S
C1684 C1685 1.367 . S
C1685 C1684 1.367 . S
C1685 C1687 1.433 . S
C1686 C1682 1.350 . S
C1686 C1683 1.463 . S
C1686 N1690 1.427 . S
C1687 H1677 0.929 . S
C1687 C1685 1.433 . S
C1687 N1690 1.384 . S
C1688 H1679 0.929 . S
C1688 C1680 1.378 . S
C1688 C1683 1.350 . S
C1689 H1676 0.929 . S
C1689 C1681 1.433 . S
C1689 N1691 1.384 . S
N1690 C1686 1.427 . S
N1690 C1687 1.384 . S
N1691 C1683 1.427 . S
N1691 C1689 1.384 . S
H1692 C1698 0.930 . S
H1693 C1702 0.930 . S
H1694 C1707 0.929 . S
H1695 C1705 0.929 . S
H1696 C1700 0.929 . S
H1697 C1706 0.929 . S
C1698 H1692 0.930 . S
C1698 C1699 1.367 . S
C1698 C1706 1.378 . S
C1699 C1698 1.367 . S
C1699 C1707 1.433 . S
C1700 H1696 0.929 . S
C1700 C1702 1.378 . S
C1700 C1704 1.350 . S
C1701 C1704 1.463 . S
C1701 C1706 1.350 . S
C1701 N1709 1.427 . S
C1702 H1693 0.930 . S
C1702 C1700 1.378 . S
C1702 C1703 1.367 . S
C1703 C1702 1.367 . S
C1703 C1705 1.433 . S
C1704 C1700 1.350 . S
C1704 C1701 1.463 . S
C1704 N1708 1.427 . S
C1705 H1695 0.929 . S
C1705 C1703 1.433 . S
C1705 N1708 1.384 . S
C1706 H1697 0.929 . S
C1706 C1698 1.378 . S
C1706 C1701 1.350 . S
C1707 H1694 0.929 . S
C1707 C1699 1.433 . S
C1707 N1709 1.384 . S
N1708 C1704 1.427 . S
N1708 C1705 1.384 . S
N1709 C1701 1.427 . S
N1709 C1707 1.384 . S
H1710 C1716 0.930 . S
H1711 C1720 0.930 . S
H1712 C1725 0.929 . S
H1713 C1723 0.929 . S
H1714 C1718 0.929 . S
H1715 C1724 0.929 . S
C1716 H1710 0.930 . S
C1716 C1717 1.367 . S
C1716 C1724 1.378 . S
C1717 C1716 1.367 . S
C1717 C1725 1.433 . S
C1718 H1714 0.929 . S
C1718 C1720 1.378 . S
C1718 C1722 1.350 . S
C1719 C1722 1.463 . S
C1719 C1724 1.350 . S
C1719 N1727 1.427 . S
C1720 H1711 0.930 . S
C1720 C1718 1.378 . S
C1720 C1721 1.367 . S
C1721 C1720 1.367 . S
C1721 C1723 1.433 . S
C1722 C1718 1.350 . S
C1722 C1719 1.463 . S
C1722 N1726 1.427 . S
C1723 H1713 0.929 . S
C1723 C1721 1.433 . S
C1723 N1726 1.384 . S
C1724 H1715 0.929 . S
C1724 C1716 1.378 . S
C1724 C1719 1.350 . S
C1725 H1712 0.929 . S
C1725 C1717 1.433 . S
C1725 N1727 1.384 . S
N1726 C1722 1.427 . S
N1726 C1723 1.384 . S
N1727 C1719 1.427 . S
N1727 C1725 1.384 . S
H1728 C1734 0.930 . S
H1729 C1738 0.930 . S
H1730 C1743 0.929 . S
H1731 C1741 0.929 . S
H1732 C1736 0.929 . S
H1733 C1742 0.929 . S
C1734 H1728 0.930 . S
C1734 C1735 1.367 . S
C1734 C1742 1.378 . S
C1735 C1734 1.367 . S
C1735 C1743 1.433 . S
C1736 H1732 0.929 . S
C1736 C1738 1.378 . S
C1736 C1740 1.350 . S
C1737 C1740 1.463 . S
C1737 C1742 1.350 . S
C1737 N1745 1.427 . S
C1738 H1729 0.930 . S
C1738 C1736 1.378 . S
C1738 C1739 1.367 . S
C1739 C1738 1.367 . S
C1739 C1741 1.433 . S
C1740 C1736 1.350 . S
C1740 C1737 1.463 . S
C1740 N1744 1.427 . S
C1741 H1731 0.929 . S
C1741 C1739 1.433 . S
C1741 N1744 1.384 . S
C1742 H1733 0.929 . S
C1742 C1734 1.378 . S
C1742 C1737 1.350 . S
C1743 H1730 0.929 . S
C1743 C1735 1.433 . S
C1743 N1745 1.384 . S
N1744 C1740 1.427 . S
N1744 C1741 1.384 . S
N1745 C1737 1.427 . S
N1745 C1743 1.384 . S
H1746 C1752 0.930 . S
H1747 C1756 0.930 . S
H1748 C1761 0.929 . S
H1749 C1759 0.929 . S
H1750 C1754 0.929 . S
H1751 C1760 0.929 . S
C1752 H1746 0.930 . S
C1752 C1753 1.367 . S
C1752 C1760 1.378 . S
C1753 C1752 1.367 . S
C1753 C1761 1.433 . S
C1754 H1750 0.929 . S
C1754 C1756 1.378 . S
C1754 C1758 1.350 . S
C1755 C1758 1.463 . S
C1755 C1760 1.350 . S
C1755 N1763 1.427 . S
C1756 H1747 0.930 . S
C1756 C1754 1.378 . S
C1756 C1757 1.367 . S
C1757 C1756 1.367 . S
C1757 C1759 1.433 . S
C1758 C1754 1.350 . S
C1758 C1755 1.463 . S
C1758 N1762 1.427 . S
C1759 H1749 0.929 . S
C1759 C1757 1.433 . S
C1759 N1762 1.384 . S
C1760 H1751 0.929 . S
C1760 C1752 1.378 . S
C1760 C1755 1.350 . S
C1761 H1748 0.929 . S
C1761 C1753 1.433 . S
C1761 N1763 1.384 . S
N1762 C1758 1.427 . S
N1762 C1759 1.384 . S
N1763 C1755 1.427 . S
N1763 C1761 1.384 . S
H1764 C1770 0.930 . S
H1765 C1774 0.930 . S
H1766 C1779 0.929 . S
H1767 C1777 0.929 . S
H1768 C1772 0.929 . S
H1769 C1778 0.929 . S
C1770 H1764 0.930 . S
C1770 C1771 1.367 . S
C1770 C1778 1.378 . S
C1771 C1770 1.367 . S
C1771 C1779 1.433 . S
C1772 H1768 0.929 . S
C1772 C1774 1.378 . S
C1772 C1776 1.350 . S
C1773 C1776 1.463 . S
C1773 C1778 1.350 . S
C1773 N1781 1.427 . S
C1774 H1765 0.930 . S
C1774 C1772 1.378 . S
C1774 C1775 1.367 . S
C1775 C1774 1.367 . S
C1775 C1777 1.433 . S
C1776 C1772 1.350 . S
C1776 C1773 1.463 . S
C1776 N1780 1.427 . S
C1777 H1767 0.929 . S
C1777 C1775 1.433 . S
C1777 N1780 1.384 . S
C1778 H1769 0.929 . S
C1778 C1770 1.378 . S
C1778 C1773 1.350 . S
C1779 H1766 0.929 . S
C1779 C1771 1.433 . S
C1779 N1781 1.384 . S
N1780 C1776 1.427 . S
N1780 C1777 1.384 . S
N1781 C1773 1.427 . S
N1781 C1779 1.384 . S
H1782 C1788 0.930 . S
H1783 C1792 0.930 . S
H1784 C1797 0.929 . S
H1785 C1795 0.929 . S
H1786 C1790 0.929 . S
H1787 C1796 0.929 . S
C1788 H1782 0.930 . S
C1788 C1789 1.367 . S
C1788 C1796 1.378 . S
C1789 C1788 1.367 . S
C1789 C1797 1.433 . S
C1790 H1786 0.929 . S
C1790 C1792 1.378 . S
C1790 C1794 1.350 . S
C1791 C1794 1.463 . S
C1791 C1796 1.350 . S
C1791 N1799 1.427 . S
C1792 H1783 0.930 . S
C1792 C1790 1.378 . S
C1792 C1793 1.367 . S
C1793 C1792 1.367 . S
C1793 C1795 1.433 . S
C1794 C1790 1.350 . S
C1794 C1791 1.463 . S
C1794 N1798 1.427 . S
C1795 H1785 0.929 . S
C1795 C1793 1.433 . S
C1795 N1798 1.384 . S
C1796 H1787 0.929 . S
C1796 C1788 1.378 . S
C1796 C1791 1.350 . S
C1797 H1784 0.929 . S
C1797 C1789 1.433 . S
C1797 N1799 1.384 . S
N1798 C1794 1.427 . S
N1798 C1795 1.384 . S
N1799 C1791 1.427 . S
N1799 C1797 1.384 . S
H1800 C1806 0.930 . S
H1801 C1810 0.930 . S
H1802 C1815 0.929 . S
H1803 C1813 0.929 . S
H1804 C1808 0.929 . S
H1805 C1814 0.929 . S
C1806 H1800 0.930 . S
C1806 C1807 1.367 . S
C1806 C1814 1.378 . S
C1807 C1806 1.367 . S
C1807 C1815 1.433 . S
C1808 H1804 0.929 . S
C1808 C1810 1.378 . S
C1808 C1812 1.350 . S
C1809 C1812 1.463 . S
C1809 C1814 1.350 . S
C1809 N1817 1.427 . S
C1810 H1801 0.930 . S
C1810 C1808 1.378 . S
C1810 C1811 1.367 . S
C1811 C1810 1.367 . S
C1811 C1813 1.433 . S
C1812 C1808 1.350 . S
C1812 C1809 1.463 . S
C1812 N1816 1.427 . S
C1813 H1803 0.929 . S
C1813 C1811 1.433 . S
C1813 N1816 1.384 . S
C1814 H1805 0.929 . S
C1814 C1806 1.378 . S
C1814 C1809 1.350 . S
C1815 H1802 0.929 . S
C1815 C1807 1.433 . S
C1815 N1817 1.384 . S
N1816 C1812 1.427 . S
N1816 C1813 1.384 . S
N1817 C1809 1.427 . S
N1817 C1815 1.384 . S
H1818 C1824 0.930 . S
H1819 C1828 0.930 . S
H1820 C1833 0.929 . S
H1821 C1831 0.929 . S
H1822 C1826 0.929 . S
H1823 C1832 0.929 . S
C1824 H1818 0.930 . S
C1824 C1825 1.367 . S
C1824 C1832 1.378 . S
C1825 C1824 1.367 . S
C1825 C1833 1.433 . S
C1826 H1822 0.929 . S
C1826 C1828 1.378 . S
C1826 C1830 1.350 . S
C1827 C1830 1.463 . S
C1827 C1832 1.350 . S
C1827 N1835 1.427 . S
C1828 H1819 0.930 . S
C1828 C1826 1.378 . S
C1828 C1829 1.367 . S
C1829 C1828 1.367 . S
C1829 C1831 1.433 . S
C1830 C1826 1.350 . S
C1830 C1827 1.463 . S
C1830 N1834 1.427 . S
C1831 H1821 0.929 . S
C1831 C1829 1.433 . S
C1831 N1834 1.384 . S
C1832 H1823 0.929 . S
C1832 C1824 1.378 . S
C1832 C1827 1.350 . S
C1833 H1820 0.929 . S
C1833 C1825 1.433 . S
C1833 N1835 1.384 . S
N1834 C1830 1.427 . S
N1834 C1831 1.384 . S
N1835 C1827 1.427 . S
N1835 C1833 1.384 . S
H1836 C1842 0.930 . S
H1837 C1846 0.930 . S
H1838 C1851 0.929 . S
H1839 C1849 0.929 . S
H1840 C1844 0.929 . S
H1841 C1850 0.929 . S
C1842 H1836 0.930 . S
C1842 C1843 1.367 . S
C1842 C1850 1.378 . S
C1843 C1842 1.367 . S
C1843 C1851 1.433 . S
C1844 H1840 0.929 . S
C1844 C1846 1.378 . S
C1844 C1848 1.350 . S
C1845 C1848 1.463 . S
C1845 C1850 1.350 . S
C1845 N1853 1.427 . S
C1846 H1837 0.930 . S
C1846 C1844 1.378 . S
C1846 C1847 1.367 . S
C1847 C1846 1.367 . S
C1847 C1849 1.433 . S
C1848 C1844 1.350 . S
C1848 C1845 1.463 . S
C1848 N1852 1.427 . S
C1849 H1839 0.929 . S
C1849 C1847 1.433 . S
C1849 N1852 1.384 . S
C1850 H1841 0.929 . S
C1850 C1842 1.378 . S
C1850 C1845 1.350 . S
C1851 H1838 0.929 . S
C1851 C1843 1.433 . S
C1851 N1853 1.384 . S
N1852 C1848 1.427 . S
N1852 C1849 1.384 . S
N1853 C1845 1.427 . S
N1853 C1851 1.384 . S
H1854 C1860 0.930 . S
H1855 C1864 0.930 . S
H1856 C1869 0.929 . S
H1857 C1867 0.929 . S
H1858 C1862 0.929 . S
H1859 C1868 0.929 . S
C1860 H1854 0.930 . S
C1860 C1861 1.367 . S
C1860 C1868 1.378 . S
C1861 C1860 1.367 . S
C1861 C1869 1.433 . S
C1862 H1858 0.929 . S
C1862 C1864 1.378 . S
C1862 C1866 1.350 . S
C1863 C1866 1.463 . S
C1863 C1868 1.350 . S
C1863 N1871 1.427 . S
C1864 H1855 0.930 . S
C1864 C1862 1.378 . S
C1864 C1865 1.367 . S
C1865 C1864 1.367 . S
C1865 C1867 1.433 . S
C1866 C1862 1.350 . S
C1866 C1863 1.463 . S
C1866 N1870 1.427 . S
C1867 H1857 0.929 . S
C1867 C1865 1.433 . S
C1867 N1870 1.384 . S
C1868 H1859 0.929 . S
C1868 C1860 1.378 . S
C1868 C1863 1.350 . S
C1869 H1856 0.929 . S
C1869 C1861 1.433 . S
C1869 N1871 1.384 . S
N1870 C1866 1.427 . S
N1870 C1867 1.384 . S
N1871 C1863 1.427 . S
N1871 C1869 1.384 . S
H1872 C1878 0.930 . S
H1873 C1882 0.930 . S
H1874 C1887 0.929 . S
H1875 C1885 0.929 . S
H1876 C1880 0.929 . S
H1877 C1886 0.929 . S
C1878 H1872 0.930 . S
C1878 C1879 1.367 . S
C1878 C1886 1.378 . S
C1879 C1878 1.367 . S
C1879 C1887 1.433 . S
C1880 H1876 0.929 . S
C1880 C1882 1.378 . S
C1880 C1884 1.350 . S
C1881 C1884 1.463 . S
C1881 C1886 1.350 . S
C1881 N1889 1.427 . S
C1882 H1873 0.930 . S
C1882 C1880 1.378 . S
C1882 C1883 1.367 . S
C1883 C1882 1.367 . S
C1883 C1885 1.433 . S
C1884 C1880 1.350 . S
C1884 C1881 1.463 . S
C1884 N1888 1.427 . S
C1885 H1875 0.929 . S
C1885 C1883 1.433 . S
C1885 N1888 1.384 . S
C1886 H1877 0.929 . S
C1886 C1878 1.378 . S
C1886 C1881 1.350 . S
C1887 H1874 0.929 . S
C1887 C1879 1.433 . S
C1887 N1889 1.384 . S
N1888 C1884 1.427 . S
N1888 C1885 1.384 . S
N1889 C1881 1.427 . S
N1889 C1887 1.384 . S
C925 C124 1.432 . S
C929 C229 1.366 . S
C943 C130 1.481 . S
C947 C313 1.407 . S
C961 C115 1.463 . S
C965 C393 1.423 . S
C979 C106 1.439 . S
C983 C309 1.408 . S
C1001 C397 1.352 . S
C997 C85 1.430 . S
C1015 C97 1.402 . S
C1019 C225 1.370 . S
C1037 C218 1.378 . S
C1033 C103 1.459 . S
C1055 C302 1.380 . S
C1051 C88 1.459 . S
C1069 C94 1.463 . S
C1073 C404 1.431 . S
C1087 C121 1.435 . S
C1091 C320 1.397 . S
C1105 C133 1.404 . S
C1109 C386 1.333 . S
C1127 C236 1.393 . S
C1123 C112 1.425 . S
C1145 C481 1.364 . S
C1141 C16 1.432 . S
C1159 C22 1.484 . S
C1163 C565 1.405 . S
C1177 C7 1.461 . S
C1181 C645 1.420 . S
C1195 C160 1.440 . S
C1199 C561 1.409 . S
C1213 C139 1.430 . S
C1217 C649 1.355 . S
C1231 C151 1.400 . S
C1235 C477 1.366 . S
C1249 C157 1.457 . S
C1253 C470 1.389 . S
C1267 C142 1.459 . S
C1271 C554 1.380 . S
C1289 C656 1.429 . S
C1285 C148 1.462 . S
C1303 C13 1.436 . S
C1307 C572 1.402 . S
C1325 C638 1.338 . S
C1321 C25 1.404 . S
C1339 C4 1.424 . S
C1343 C488 1.390 . S
C1361 C733 1.354 . S
C1357 C70 1.432 . S
C1375 C76 1.482 . S
C1379 C817 1.408 . S
C1397 C897 1.422 . S
C1393 C61 1.461 . S
C1415 C813 1.397 . S
C1411 C52 1.436 . S
C1433 C901 1.364 . S
C1429 C31 1.433 . S
C1447 C43 1.398 . S
C1451 C729 1.358 . S
C1465 C49 1.456 . S
C1469 C722 1.374 . S
C1483 C34 1.456 . S
C1487 C806 1.391 . S
C1505 C908 1.419 . S
C1501 C40 1.459 . S
C1519 C67 1.435 . S
C1523 C824 1.401 . S
C1537 C79 1.404 . S
C1541 C890 1.333 . S
C1555 C58 1.423 . S
C1559 C740 1.383 . S
C1573 C140 1.480 . S
C1577 C232 1.358 . S
C1595 C316 1.359 . S
C1591 C149 1.506 . S
C1609 C158 1.505 . S
C1613 C388 1.371 . S
C1627 C59 1.525 . S
C1631 C304 1.381 . S
C1645 C68 1.487 . S
C1649 C400 1.349 . S
C1667 C220 1.376 . S
C1663 C77 1.480 . S
C1681 C32 1.480 . S
C1685 C484 1.359 . S
C1699 C41 1.507 . S
C1703 C568 1.360 . S
C1717 C50 1.504 . S
C1721 C640 1.369 . S
C1735 C113 1.524 . S
C1739 C556 1.388 . S
C1757 C652 1.371 . S
C1753 C122 1.487 . S
C1771 C131 1.480 . S
C1775 C472 1.377 . S
C1789 C86 1.480 . S
C1793 C736 1.364 . S
C1807 C95 1.506 . S
C1811 C820 1.359 . S
C1829 C892 1.374 . S
C1825 C104 1.505 . S
C1843 C5 1.524 . S
C1847 C808 1.378 . S
C1861 C14 1.487 . S
C1865 C904 1.348 . S
C1879 C23 1.480 . S
C1883 C724 1.377 . S
