# Generated by pormake.
# Topology ftw, (4,12)-cn, num edge types: 1
# Building blocks:
#     Node 0, Type 0, BuildingBlock: KUFVIS_clean_linker_0, # of connection points: 4
#     Node 1, Type 0, BuildingBlock: KUFVIS_clean_linker_0, # of connection points: 4
#     Node 2, Type 0, BuildingBlock: KUFVIS_clean_linker_0, # of connection points: 4
#     Node 3, Type 1, BuildingBlock: QEWDON_clean_sbu_0, # of connection points: 12
#     Edge 4, Type (0, 1), BuildingBlock: FUNLAD_clean_linker_0, # of connection points: 2
#     Edge 5, Type (0, 1), BuildingBlock: FUNLAD_clean_linker_0, # of connection points: 2
#     Edge 6, Type (0, 1), BuildingBlock: FUNLAD_clean_linker_0, # of connection points: 2
#     Edge 7, Type (0, 1), BuildingBlock: FUNLAD_clean_linker_0, # of connection points: 2
#     Edge 8, Type (0, 1), BuildingBlock: FUNLAD_clean_linker_0, # of connection points: 2
#     Edge 9, Type (0, 1), BuildingBlock: FUNLAD_clean_linker_0, # of connection points: 2
#     Edge 10, Type (0, 1), BuildingBlock: FUNLAD_clean_linker_0, # of connection points: 2
#     Edge 11, Type (0, 1), BuildingBlock: FUNLAD_clean_linker_0, # of connection points: 2
#     Edge 12, Type (0, 1), BuildingBlock: FUNLAD_clean_linker_0, # of connection points: 2
#     Edge 13, Type (0, 1), BuildingBlock: FUNLAD_clean_linker_0, # of connection points: 2
#     Edge 14, Type (0, 1), BuildingBlock: FUNLAD_clean_linker_0, # of connection points: 2
#     Edge 15, Type (0, 1), BuildingBlock: FUNLAD_clean_linker_0, # of connection points: 2
# Relax obj value: 0.100
# Max RMSD: 0.260
# Mean RMSD: 0.192
data_MOF--net-ftw--node1-QEWDON_clean_sbu_0--node2-KUFVIS_clean_linker_0--edge1-FUNLAD_clean_linker_0
_symmetry_space_group_name_H-M    P1
_symmetry_Int_Tables_number       1
_symmetry_cell_setting            triclinic
loop_
_symmetry_equiv_pos_as_xyz
'x, y, z'
_cell_length_a     26.340272
_cell_length_b     29.804023
_cell_length_c     28.346662
_cell_angle_alpha  90.14516
_cell_angle_beta   89.904897
_cell_angle_gamma 90.342538
loop_
_atom_site_label
_atom_site_type_symbol
_atom_site_fract_x
_atom_site_fract_y
_atom_site_fract_z
_atom_type_partial_charge
H0 H 0.00862 0.3299 0.52265 0.0
H1 H 0.02571 0.45249 0.59906 0.0
H2 H -0.0115 0.4542 0.44994 0.0
H3 H 0.01821 0.52214 0.45064 0.0
H4 H 0.00956 0.64348 0.53115 0.0
H5 H -0.00544 0.51825 0.6023 0.0
C6 C 0.00823 0.36626 0.52309 0.0
C7 C -0.00093 0.38962 0.48113 0.0
C8 C 0.01639 0.3889 0.56574 0.0
C9 C 0.01661 0.43607 0.56613 0.0
C10 C 0.00674 0.46125 0.52472 0.0
C11 C -0.0022 0.43696 0.48224 0.0
C12 C 0.00617 0.51227 0.52614 0.0
C13 C 0.01245 0.53815 0.48444 0.0
C14 C 0.01328 0.58545 0.48595 0.0
C15 C 0.00929 0.60712 0.52967 0.0
C16 C 0.00426 0.58294 0.57163 0.0
C17 C 0.00072 0.53586 0.56955 0.0
H18 H 0.4758 0.0419 0.6922 0.0
H19 H 0.54905 0.01089 0.5608 0.0
H20 H 0.39192 0.05142 0.56321 0.0
H21 H 0.38915 0.0025 0.50157 0.0
H22 H 0.45866 0.01611 0.36548 0.0
H23 H 0.54493 0.04725 0.4897 0.0
C24 C 0.47456 0.03963 0.65404 0.0
C25 C 0.42869 0.04769 0.63057 0.0
C26 C 0.5183 0.02688 0.62917 0.0
C27 C 0.51558 0.02164 0.57984 0.0
C28 C 0.47008 0.03017 0.55519 0.0
C29 C 0.42692 0.04344 0.58123 0.0
C30 C 0.46742 0.02545 0.50251 0.0
C31 C 0.4219 0.01158 0.48044 0.0
C32 C 0.41828 0.00856 0.43106 0.0
C33 C 0.46117 0.01851 0.40355 0.0
C34 C 0.50714 0.03187 0.4244 0.0
C35 C 0.50993 0.03546 0.47385 0.0
H36 H 0.54386 0.64803 0.05343 0.0
H37 H 0.56546 0.5062 0.06232 0.0
H38 H 0.42275 0.55968 1.01273 0.0
H39 H 0.39151 0.49836 0.04526 0.0
H40 H 0.41479 0.35841 0.02175 0.0
H41 H 0.54271 0.44803 0.01871 0.0
C42 C 0.52881 0.61428 0.0494 0.0
C43 C 0.47906 0.60797 0.0335 0.0
C44 C 0.5601 0.57761 0.05861 0.0
C45 C 0.54113 0.53392 0.05304 0.0
C46 C 0.49104 0.52644 0.03696 0.0
C47 C 0.46082 0.56411 0.02626 0.0
C48 C 0.47006 0.47977 0.03214 0.0
C49 C 0.41749 0.47147 0.037 0.0
C50 C 0.39761 0.42814 0.03124 0.0
C51 C 0.43039 0.39212 0.02355 0.0
C52 C 0.48295 0.39893 0.02079 0.0
C53 C 0.50234 0.44292 0.02352 0.0
Zn54 Zn 0.03031 0.11945 0.99691 0.0
Zn55 Zn 0.02892 0.0958 0.10752 0.0
O56 O 0.03048 0.06748 0.04331 0.0
H57 H 0.02384 0.0364 0.03562 0.0
C58 C 0.94764 0.13014 0.89981 0.0
O59 O 0.9507 0.08803 0.8863 0.0
Zn60 Zn 0.92317 0.90862 0.11384 0.0
Zn61 Zn 0.91379 0.92147 1.00094 0.0
O62 O 0.93966 0.95189 0.06154 0.0
H63 H 0.95821 0.97984 0.06429 0.0
Zn64 Zn 0.88929 0.09009 0.98006 0.0
O65 O 0.91979 0.07046 0.04269 0.0
Zn66 Zn 0.86361 0.06188 0.09018 0.0
H67 H 0.909 0.07977 1.01171 0.0
Zn68 Zn 0.05507 0.89316 0.98413 0.0
O69 O 0.02093 0.90576 0.04749 0.0
H70 H 0.03331 0.89886 0.01624 0.0
Zn71 Zn 0.07426 0.92733 0.09309 0.0
C72 C 0.00614 0.8127 0.93807 0.0
O73 O 0.00504 0.79692 0.9813 0.0
O74 O 0.04527 0.17977 0.03009 0.0
O75 O 0.05801 0.15914 0.10464 0.0
O76 O 0.89403 0.85466 1.00953 0.0
O77 O 0.89283 0.85136 0.08786 0.0
O78 O 0.81179 0.09724 0.98582 0.0
O79 O 0.79551 0.07827 0.06044 0.0
C80 C 0.07993 0.01521 0.1466 0.0
O81 O 0.13236 0.88842 0.99178 0.0
O82 O 0.14407 0.91203 0.06563 0.0
O83 O 0.86864 0.956 0.95257 0.0
C84 C 0.05844 0.18894 0.07232 0.0
O85 O 0.0687 0.11106 0.93299 0.0
C86 C 0.85685 0.97773 0.15162 0.0
O87 O 0.92537 0.13924 0.93852 0.0
C88 C 0.8858 0.8332 0.04761 0.0
O89 O 0.023 0.85227 0.93111 0.0
C90 C 0.92069 0.11609 0.15391 0.0
O91 O 0.06838 0.05642 0.15223 0.0
O92 O 0.06589 0.99426 0.10937 0.0
C93 C 0.7808 0.09195 0.01998 0.0
O94 O 0.87369 0.93831 0.1584 0.0
O95 O 0.86898 0.9979 0.11363 0.0
C96 C 0.02614 0.87633 0.17053 0.0
O97 O 0.87551 0.10366 0.14503 0.0
O98 O 0.95561 0.09995 0.12787 0.0
C99 C 0.16144 0.89679 0.02663 0.0
O100 O 0.06711 0.89107 0.15231 0.0
O101 O -0.01657 0.88603 0.15219 0.0
C102 C 0.85843 0.93502 0.91456 0.0
O103 O 0.87848 0.89523 0.90786 0.0
C104 C 0.07626 0.07283 0.91435 0.0
O105 O 0.05788 0.03688 0.93517 0.0
C106 C 0.96027 0.32463 0.43719 0.0
C107 C -0.00909 0.36345 0.43667 0.0
C108 C 0.95725 0.29644 0.3978 0.0
C109 C -0.01571 0.30647 0.35617 0.0
C110 C 0.01413 0.34582 0.35524 0.0
C111 C 0.01716 0.37417 0.3949 0.0
C112 C -0.01635 0.27559 0.31428 0.0
C113 C 0.94483 0.24694 0.30549 0.0
C114 C 0.94165 0.21469 0.26507 0.0
C115 C 0.89363 0.19724 0.25376 0.0
C116 C 0.88765 0.16554 0.21795 0.0
C117 C 0.92963 0.14971 0.19217 0.0
H118 H 0.02199 0.2108 0.24791 0.0
C119 C 0.97812 0.16665 0.20355 0.0
C120 C -0.01587 0.19902 0.23956 0.0
H121 H 0.01132 0.15467 0.18508 0.0
H122 H 0.93936 0.3154 0.46868 0.0
H123 H 0.93493 0.26603 0.40097 0.0
H124 H 0.03565 0.35442 0.32391 0.0
H125 H 0.04156 0.40352 0.39348 0.0
H126 H 0.0151 0.27765 0.28956 0.0
H127 H 0.91171 0.24817 0.32828 0.0
H128 H 0.8602 0.20817 0.27284 0.0
H129 H 0.84963 0.15334 0.21066 0.0
C130 C 0.59984 0.02333 0.40507 0.0
C131 C 0.5521 0.04112 0.39389 0.0
C132 C 0.6404 0.02687 0.37323 0.0
C133 C 0.63416 0.0487 0.32952 0.0
C134 C 0.58699 0.06809 0.31941 0.0
C135 C 0.54656 0.06456 0.35121 0.0
C136 C 0.67365 0.04784 0.29169 0.0
C137 C 0.72316 0.03944 0.29952 0.0
C138 C 0.76012 0.02922 0.26117 0.0
C139 C 0.80086 1.00092 0.27177 0.0
C140 C 0.83322 0.98574 0.23623 0.0
C141 C 0.82633 0.99919 0.18922 0.0
H142 H 0.72466 0.06762 0.20509 0.0
C143 C 0.78767 0.02983 0.17882 0.0
C144 C 0.75467 0.04469 0.21446 0.0
H145 H 0.78146 0.04069 0.14294 0.0
H146 H 0.60518 0.00462 0.43738 0.0
H147 H 0.67549 0.01037 0.38221 0.0
H148 H 0.58092 0.08505 0.28614 0.0
H149 H 0.51048 0.07928 0.34181 0.0
H150 H 0.66039 0.05176 0.25571 0.0
H151 H 0.73653 0.03569 0.33547 0.0
H152 H 0.80641 0.98883 0.3074 0.0
H153 H 0.86306 0.9625 0.24548 0.0
C154 C 0.04928 0.6518 0.44245 0.0
C155 C 0.01803 0.61335 0.44245 0.0
C156 C 0.04842 0.68212 0.4049 0.0
C157 C 0.01665 0.67457 0.36568 0.0
C158 C -0.01304 0.63509 0.36485 0.0
C159 C -0.01227 0.60476 0.40266 0.0
C160 C 0.01112 0.70795 0.32654 0.0
C161 C 0.04293 0.74312 0.31941 0.0
C162 C 0.03662 0.7775 0.28155 0.0
C163 C 0.07894 0.80365 0.26855 0.0
C164 C 0.07523 0.83633 0.2334 0.0
C165 C 0.02881 0.84414 0.21049 0.0
H166 H 0.95577 0.76779 0.26935 0.0
C167 C -0.01404 0.81896 0.22437 0.0
C168 C -0.01025 0.78603 0.25947 0.0
H169 H 0.94955 0.82414 0.20758 0.0
H170 H 0.07351 0.65924 0.47235 0.0
H171 H 0.07149 0.71204 0.40805 0.0
H172 H 0.96203 0.62819 0.33532 0.0
H173 H 0.96289 0.57568 0.40166 0.0
H174 H -0.02031 0.70274 0.3024 0.0
H175 H 0.07658 0.74658 0.34108 0.0
H176 H 0.11539 0.79842 0.28527 0.0
H177 H 0.10899 0.85521 0.2239 0.0
C178 C 0.36807 0.9694 0.36747 0.0
C179 C 0.36925 0.99729 0.40757 0.0
C180 C 0.32336 0.96379 0.34146 0.0
C181 C 0.27848 0.98586 0.35514 0.0
C182 C 0.27924 0.01193 0.39657 0.0
C183 C 0.32395 0.01752 0.42253 0.0
C184 C 0.23185 0.98663 0.32524 0.0
C185 C 0.22348 0.96001 0.28733 0.0
C186 C 0.18154 0.96798 0.25311 0.0
C187 C 0.18833 0.9551 0.20577 0.0
C188 C 0.15352 0.96805 0.17118 0.0
C189 C 0.11087 0.9935 0.18335 0.0
H190 H 0.1289 0.99975 0.30193 0.0
C191 C 0.10217 0.00377 0.23105 0.0
C192 C 0.1368 0.99078 0.26567 0.0
H193 H 0.06933 0.02322 0.24138 0.0
H194 H 0.4022 0.95284 0.35536 0.0
H195 H 0.32522 0.94372 0.30974 0.0
H196 H 0.24546 0.02945 0.40806 0.0
H197 H 0.32356 0.03951 0.45301 0.0
H198 H 0.20478 0.01283 0.33343 0.0
H199 H 0.25047 0.93407 0.27824 0.0
H200 H 0.22221 0.93733 0.19502 0.0
H201 H 0.16196 0.96099 0.13466 0.0
C202 C 0.9688 0.60076 0.65277 0.0
C203 C 0.00541 0.60787 0.61734 0.0
C204 C 0.96839 0.62769 0.69364 0.0
C205 C 0.00504 0.66197 0.69997 0.0
C206 C 0.04232 0.66778 0.665 0.0
C207 C 0.04257 0.6412 0.62445 0.0
C208 C 0.00568 0.69377 0.74091 0.0
C209 C 0.97692 0.69037 0.78026 0.0
C210 C -0.01913 0.7233 0.82001 0.0
C211 C 0.97061 0.70913 0.86631 0.0
C212 C 0.97723 0.73848 0.90459 0.0
C213 C -0.00623 0.78294 0.89738 0.0
H214 H 0.00114 0.78132 0.77745 0.0
C215 C 0.00139 0.7978 0.85085 0.0
C216 C -0.00508 0.76845 0.81266 0.0
H217 H 0.01345 0.83195 0.84385 0.0
H218 H 0.93953 0.57547 0.64815 0.0
H219 H 0.93866 0.62209 0.7193 0.0
H220 H 0.07124 0.69356 0.66869 0.0
H221 H 0.07175 0.64714 0.59817 0.0
H222 H 0.03294 0.72118 0.73879 0.0
H223 H 0.9521 0.66159 0.7851 0.0
H224 H 0.95892 0.67482 0.87307 0.0
H225 H 0.97046 0.72598 0.9399 0.0
C226 C 0.33579 0.03809 0.64917 0.0
C227 C 0.38253 0.05946 0.6582 0.0
C228 C 0.29353 0.04637 0.67791 0.0
C229 C 0.29719 0.07631 0.71632 0.0
C230 C 0.34331 0.09904 0.72394 0.0
C231 C 0.38555 0.09055 0.69547 0.0
C232 C 0.25429 0.08455 0.74951 0.0
C233 C 0.2171 0.05433 0.7582 0.0
C234 C 0.17817 0.06037 0.79589 0.0
C235 C 0.15619 0.02214 0.81659 0.0
C236 C 0.12211 0.02617 0.85425 0.0
C237 C 0.10887 0.06865 0.87186 0.0
H238 H 0.17765 0.13333 0.79595 0.0
C239 C 0.12895 0.10704 0.84969 0.0
C240 C 0.16312 0.10299 0.81207 0.0
H241 H 0.11887 0.14032 0.86183 0.0
H242 H 0.33227 0.01397 0.62069 0.0
H243 H 0.25827 0.0292 0.66993 0.0
H244 H 0.34712 0.1227 0.75283 0.0
H245 H 0.4208 0.10808 0.70288 0.0
H246 H 0.25628 0.11496 0.7706 0.0
H247 H 0.21774 0.02211 0.74025 0.0
H248 H 0.16655 0.98889 0.80452 0.0
H249 H 0.10708 0.99589 0.87021 0.0
C250 C -0.0054 0.37297 0.65065 0.0
C251 C 0.02277 0.3625 0.60997 0.0
C252 C -0.0048 0.34453 0.69001 0.0
C253 C 0.02437 0.30491 0.68969 0.0
C254 C 0.0544 0.2959 0.64975 0.0
C255 C 0.05357 0.32417 0.61046 0.0
C256 C 0.02288 0.27062 0.7283 0.0
C257 C -0.00606 0.27326 0.76762 0.0
C258 C -0.01191 0.23615 0.80274 0.0
C259 C 0.96715 0.24608 0.84718 0.0
C260 C 0.95593 0.21192 0.87945 0.0
C261 C 0.96497 0.16675 0.86796 0.0
H262 H 0.01387 0.1813 0.7579 0.0
C263 C -0.01242 0.1568 0.82422 0.0
C264 C -0.00118 0.19097 0.79191 0.0
H265 H -0.00483 0.12238 0.8142 0.0
H266 H 0.97026 0.40213 0.65128 0.0
H267 H 0.9716 0.35349 0.71969 0.0
H268 H 0.07761 0.26603 0.64826 0.0
H269 H 0.07627 0.31544 0.57992 0.0
H270 H 0.04607 0.24107 0.72302 0.0
H271 H 0.97253 0.30344 0.77471 0.0
H272 H 0.95832 0.28041 0.85665 0.0
H273 H 0.93869 0.2209 0.91286 0.0
C274 C 0.58128 0.04696 0.69246 0.0
C275 C 0.5662 0.01828 0.65547 0.0
C276 C 0.62414 0.03742 0.71964 0.0
C277 C 0.65294 0.99866 0.71069 0.0
C278 C 0.63893 0.97095 0.67257 0.0
C279 C 0.59605 0.98054 0.64534 0.0
C280 C 0.69748 0.98565 0.74009 0.0
C281 C 0.70558 1.00038 0.78463 0.0
C282 C 0.74759 0.98437 0.81556 0.0
C283 C 0.76063 0.00964 0.8558 0.0
C284 C 0.79746 0.99438 0.88746 0.0
C285 C 0.82191 0.95321 0.87975 0.0
H286 H 0.76305 0.922 0.77812 0.0
C287 C 0.80939 0.92819 0.83924 0.0
C288 C 0.77264 0.9434 0.80766 0.0
H289 H 0.8272 0.89617 0.83232 0.0
H290 H 0.55978 0.07691 0.70048 0.0
H291 H 0.63443 0.06074 0.74733 0.0
H292 H 0.66054 0.94107 0.66448 0.0
H293 H 0.58541 0.95762 0.61729 0.0
H294 H 0.72337 0.96159 0.72458 0.0
H295 H 0.67987 0.0246 0.8001 0.0
H296 H 0.74182 0.04115 0.86311 0.0
H297 H 0.80607 0.01447 0.91836 0.0
C298 C 0.31497 0.42921 0.07501 0.0
C299 C 0.3425 0.41954 0.03382 0.0
C300 C 0.26456 0.41467 0.07952 0.0
C301 C 0.24112 0.39063 0.0426 0.0
C302 C 0.26779 0.38405 1.00027 0.0
C303 C 0.31818 0.39791 0.9961 0.0
C304 C 0.19095 0.36839 0.04772 0.0
C305 C 0.17461 0.35068 0.08879 0.0
C306 C 0.13566 0.31441 0.09017 0.0
C307 C 0.1397 0.28104 0.12484 0.0
C308 C 0.11175 0.24117 0.12106 0.0
C309 C 0.07938 0.23406 0.08238 0.0
H310 H 0.09277 0.33521 0.02856 0.0
C311 C 0.07142 0.26932 0.05048 0.0
C312 C 0.09888 0.30931 0.05459 0.0
H313 H 0.04555 0.26533 0.02106 0.0
H314 H 0.33315 0.44607 0.10443 0.0
H315 H 0.24457 0.42128 0.11217 0.0
H316 H 0.25052 0.36592 0.97118 0.0
H317 H 0.33872 0.39051 0.96387 0.0
H318 H 0.17187 0.35934 1.01512 0.0
H319 H 0.19638 0.3566 0.12074 0.0
H320 H 0.16713 0.2844 0.1531 0.0
H321 H 0.11814 0.21486 0.14663 0.0
C322 C 0.44559 0.68289 0.05821 0.0
C323 C 0.44625 0.64751 0.02534 0.0
C324 C 0.41469 0.72016 0.05122 0.0
C325 C 0.38378 0.72306 1.01088 0.0
C326 C 0.38459 0.68765 0.97801 0.0
C327 C 0.41548 0.6503 0.98509 0.0
C328 C 0.34753 0.76046 1.00329 0.0
C329 C 0.34792 0.7995 0.02756 0.0
C330 C 0.30567 0.83202 0.02412 0.0
C331 C 0.28998 0.85495 0.06488 0.0
C332 C 0.24476 0.8793 0.06497 0.0
C333 C 0.21473 0.88139 0.02406 0.0
H334 H 0.29071 0.82233 0.94948 0.0
C335 C 0.23337 0.86234 0.98205 0.0
C336 C 0.2784 0.83792 0.98205 0.0
H337 H 0.21179 0.86409 0.94961 0.0
H338 H 0.46824 0.68131 0.09003 0.0
H339 H 0.41439 0.74568 0.07833 0.0
H340 H 0.36096 0.68873 0.94678 0.0
H341 H 0.41552 0.62376 0.95891 0.0
H342 H 0.31746 0.75431 0.97785 0.0
H343 H 0.37683 0.80621 0.05383 0.0
H344 H 0.3109 0.85156 0.09755 0.0
H345 H 0.23184 0.89398 0.09784 0.0
C346 C 0.50503 0.32168 0.99137 0.0
C347 C 0.51736 0.35962 0.01879 0.0
C348 C 0.53423 0.28273 0.99404 0.0
C349 C 0.57671 0.28102 0.02405 0.0
C350 C 0.5896 0.31933 0.05051 0.0
C351 C 0.56042 0.35817 0.04787 0.0
C352 C 0.60786 0.23999 0.03017 0.0
C353 C 0.6084 0.20496 0.99999 0.0
C354 C 0.64525 0.16789 1.00548 0.0
C355 C 0.66904 0.15033 0.96526 0.0
C356 C 0.71086 0.12204 0.9698 0.0
C357 C 0.72907 0.11035 1.01474 0.0
H358 H 0.6411 0.16415 0.08186 0.0
C359 C 0.70153 0.12381 0.05481 0.0
C360 C 0.66005 0.15248 0.05024 0.0
H361 H 0.71418 0.11503 0.08993 0.0
H362 H 0.4722 0.32182 0.96842 0.0
H363 H 0.52236 0.25391 0.97354 0.0
H364 H 0.62203 0.31904 0.07398 0.0
H365 H 0.57053 0.38649 0.07005 0.0
H366 H 0.63411 0.23999 0.05973 0.0
H367 H 0.58617 0.2058 0.96783 0.0
H368 H 0.65765 0.16104 0.93036 0.0
H369 H 0.73081 0.11166 0.93819 0.0
C370 C 0.65286 0.57238 0.04205 0.0
C371 C 0.61336 0.58611 0.07196 0.0
C372 C 0.7018 0.58998 0.04795 0.0
C373 C 0.71167 0.62134 0.08405 0.0
C374 C 0.67319 0.63129 0.11668 0.0
C375 C 0.62427 0.61423 0.1104 0.0
C376 C 0.75901 0.64843 0.08581 0.0
C377 C 0.78313 0.66228 0.04638 0.0
C378 C 0.81742 0.7021 0.04571 0.0
C379 C 0.82131 0.72718 1.00393 0.0
C380 C 0.84548 0.76906 1.00383 0.0
C381 C 0.86618 0.78665 0.04565 0.0
H382 H 0.84223 0.69884 0.11882 0.0
C383 C 0.86585 0.76 0.0865 0.0
C384 C 0.84216 0.718 0.08647 0.0
H385 H 0.88286 0.77203 0.11897 0.0
H386 H 0.64511 0.55062 1.01221 0.0
H387 H 0.7311 0.58059 0.02306 0.0
H388 H 0.67994 0.65499 0.14508 0.0
H389 H 0.59428 0.62503 0.13396 0.0
H390 H 0.76791 0.66402 0.11944 0.0
H391 H 0.77097 0.64919 1.0124 0.0
H392 H 0.80326 0.71548 0.97182 0.0
H393 H 0.84586 0.78845 0.97156 0.0
loop_
_geom_bond_atom_site_label_1
_geom_bond_atom_site_label_2
_geom_bond_distance
_geom_bond_site_symmetry_2
_ccdc_geom_bond_type
H0 C6 0.930 . S
H1 C9 0.931 . S
H2 C11 0.931 . S
H3 C13 0.930 . S
H4 C15 0.930 . S
H5 C17 0.931 . S
C6 H0 0.930 . S
C6 C7 1.381 . S
C6 C8 1.393 1_655 S
C7 C6 1.381 . S
C7 C11 1.382 . S
C8 C6 1.393 1_455 S
C8 C9 1.400 . S
C9 H1 0.931 . S
C9 C8 1.400 . S
C9 C10 1.375 . S
C10 C9 1.375 . S
C10 C11 1.415 1_455 S
C10 C12 1.501 . S
C11 H2 0.931 . S
C11 C7 1.382 . S
C11 C10 1.415 1_655 S
C12 C10 1.501 . S
C12 C13 1.384 . S
C12 C17 1.408 1_455 S
C13 H3 0.930 . S
C13 C12 1.384 . S
C13 C14 1.389 . S
C14 C13 1.389 . S
C14 C15 1.405 . S
C15 H4 0.930 . S
C15 C14 1.405 . S
C15 C16 1.364 1_455 S
C16 C15 1.364 1_655 S
C16 C17 1.400 . S
C17 H5 0.931 . S
C17 C12 1.408 1_655 S
C17 C16 1.400 . S
H18 C24 0.930 . S
H19 C27 0.931 . S
H20 C29 0.931 . S
H21 C31 0.930 . S
H22 C33 0.930 . S
H23 C35 0.931 . S
C24 H18 0.930 . S
C24 C25 1.380 . S
C24 C26 1.394 1_545 S
C25 C24 1.380 . S
C25 C29 1.382 . S
C26 C24 1.394 1_565 S
C26 C27 1.400 . S
C27 H19 0.931 . S
C27 C26 1.400 . S
C27 C28 1.375 . S
C28 C27 1.375 . S
C28 C29 1.415 1_565 S
C28 C30 1.501 . S
C29 H20 0.931 . S
C29 C25 1.382 . S
C29 C28 1.415 1_545 S
C30 C28 1.501 . S
C30 C31 1.384 . S
C30 C35 1.408 1_565 S
C31 H21 0.930 . S
C31 C30 1.384 . S
C31 C32 1.389 . S
C32 C31 1.389 . S
C32 C33 1.405 . S
C33 H22 0.930 . S
C33 C32 1.405 . S
C33 C34 1.364 1_565 S
C34 C33 1.364 1_545 S
C34 C35 1.400 . S
C35 H23 0.931 . S
C35 C30 1.408 1_545 S
C35 C34 1.400 . S
H36 C42 0.930 . S
H37 C45 0.931 . S
H38 C47 0.931 . S
H39 C49 0.930 . S
H40 C51 0.930 . S
H41 C53 0.931 . S
C42 H36 0.930 . S
C42 C43 1.380 . S
C42 C44 1.394 . S
C43 C42 1.380 . S
C43 C47 1.382 . S
C44 C42 1.394 . S
C44 C45 1.400 . S
C45 H37 0.931 . S
C45 C44 1.400 . S
C45 C46 1.375 . S
C46 C45 1.375 . S
C46 C47 1.415 . S
C46 C48 1.501 . S
C47 H38 0.931 . S
C47 C43 1.382 . S
C47 C46 1.415 . S
C48 C46 1.501 . S
C48 C49 1.384 . S
C48 C53 1.408 . S
C49 H39 0.930 . S
C49 C48 1.384 . S
C49 C50 1.389 . S
C50 C49 1.389 . S
C50 C51 1.405 . S
C51 H40 0.930 . S
C51 C50 1.405 . S
C51 C52 1.364 . S
C52 C51 1.364 . S
C52 C53 1.400 . S
C53 H41 0.931 . S
C53 C48 1.408 . S
C53 C52 1.400 . S
Zn54 O56 1.933 1_556 S
Zn54 O74 1.985 . S
Zn54 O85 1.955 . S
Zn55 O56 1.911 . S
Zn55 O75 1.970 . S
Zn55 O91 1.945 . S
Zn55 O98 1.981 . S
O56 Zn54 1.933 1_554 S
O56 Zn55 1.911 . S
O56 H57 0.841 . S
H57 O56 0.841 . S
C58 O59 1.246 . S
C58 O87 1.276 1_455 S
O59 C58 1.246 . S
Zn60 O62 1.911 . S
Zn60 O77 1.970 . S
Zn60 O94 1.945 . S
Zn60 O101 1.981 . S
Zn61 O62 1.933 1_556 S
Zn61 O76 1.985 . S
Zn61 O83 1.955 . S
O62 Zn60 1.911 . S
O62 Zn61 1.933 1_554 S
O62 H63 0.841 . S
H63 O62 0.841 . S
Zn64 O65 1.933 1_556 S
Zn64 O78 1.985 . S
Zn64 O87 1.955 . S
O65 Zn64 1.933 1_554 S
O65 Zn66 1.911 . S
O65 H67 0.841 . S
Zn66 O65 1.911 . S
Zn66 O79 1.970 . S
Zn66 O95 1.981 . S
Zn66 O97 1.945 . S
H67 O65 0.841 . S
Zn68 O69 1.933 1_556 S
Zn68 O81 1.985 . S
Zn68 O89 1.955 . S
O69 Zn68 1.933 1_554 S
O69 H70 0.841 . S
O69 Zn71 1.911 . S
H70 O69 0.841 . S
Zn71 O69 1.911 . S
Zn71 O82 1.970 . S
Zn71 O92 1.981 . S
Zn71 O100 1.945 . S
C72 O73 1.246 . S
C72 O89 1.276 1_655 S
O73 C72 1.246 . S
O74 Zn54 1.985 . S
O74 C84 1.245 1_556 S
O75 Zn55 1.970 . S
O75 C84 1.263 . S
O76 Zn61 1.985 . S
O76 C88 1.245 1_556 S
O77 Zn60 1.970 . S
O77 C88 1.263 . S
O78 Zn64 1.985 . S
O78 C93 1.245 1_556 S
O79 Zn66 1.970 . S
O79 C93 1.263 . S
C80 O91 1.262 . S
C80 O92 1.245 1_545 S
O81 Zn68 1.985 . S
O81 C99 1.245 1_556 S
O82 Zn71 1.970 . S
O82 C99 1.263 . S
O83 Zn61 1.955 . S
O83 C102 1.276 1_565 S
C84 O74 1.245 1_554 S
C84 O75 1.263 . S
O85 Zn54 1.955 . S
O85 C104 1.276 1_545 S
C86 O94 1.261 1_545 S
C86 O95 1.246 . S
O87 C58 1.276 1_655 S
O87 Zn64 1.955 . S
C88 O76 1.245 1_554 S
C88 O77 1.263 . S
O89 Zn68 1.955 . S
O89 C72 1.276 1_455 S
C90 O97 1.250 1_455 S
C90 O98 1.251 . S
O91 Zn55 1.945 . S
O91 C80 1.262 . S
O92 Zn71 1.981 . S
O92 C80 1.245 1_565 S
C93 O78 1.245 1_554 S
C93 O79 1.263 . S
O94 Zn60 1.945 . S
O94 C86 1.261 1_565 S
O95 Zn66 1.981 . S
O95 C86 1.246 . S
C96 O100 1.276 . S
C96 O101 1.237 1_455 S
O97 Zn66 1.945 . S
O97 C90 1.250 1_655 S
O98 Zn55 1.981 . S
O98 C90 1.251 . S
C99 O81 1.245 1_554 S
C99 O82 1.263 . S
O100 Zn71 1.945 . S
O100 C96 1.276 . S
O101 Zn60 1.981 . S
O101 C96 1.237 1_655 S
C102 O83 1.276 1_545 S
C102 O103 1.246 . S
O103 C102 1.246 . S
C104 O85 1.276 1_565 S
C104 O105 1.246 . S
O105 C104 1.246 . S
C106 C107 1.386 . S
C106 C108 1.383 . S
C106 H122 0.951 . S
C107 C106 1.386 . S
C107 C111 1.383 1_655 S
C108 C106 1.383 . S
C108 C109 1.402 1_655 S
C108 H123 0.951 . S
C109 C108 1.402 1_455 S
C109 C110 1.375 . S
C109 C112 1.481 . S
C110 C109 1.375 . S
C110 C111 1.367 . S
C110 H124 0.951 . S
C111 C107 1.383 1_455 S
C111 C110 1.367 . S
C111 H125 0.950 . S
C112 C109 1.481 . S
C112 C113 1.297 1_455 S
C112 H126 0.950 . S
C113 C112 1.297 1_655 S
C113 C114 1.479 . S
C113 H127 0.950 . S
C114 C113 1.479 . S
C114 C115 1.375 . S
C114 C120 1.404 1_655 S
C115 C114 1.375 . S
C115 C116 1.369 . S
C115 H128 0.950 . S
C116 C115 1.369 . S
C116 C117 1.392 1_655 S
C116 H129 0.951 . S
C117 C116 1.392 1_455 S
C117 C119 1.384 . S
H118 C120 0.949 . S
C119 C117 1.384 . S
C119 C120 1.385 . S
C119 H121 0.950 . S
C120 C114 1.404 1_455 S
C120 H118 0.949 . S
C120 C119 1.385 . S
H121 C119 0.950 . S
H122 C106 0.951 . S
H123 C108 0.951 . S
H124 C110 0.951 . S
H125 C111 0.950 . S
H126 C112 0.950 . S
H127 C113 0.950 . S
H128 C115 0.950 . S
H129 C116 0.951 . S
C130 C131 1.386 1_565 S
C130 C132 1.383 . S
C130 H146 0.951 . S
C131 C130 1.386 1_545 S
C131 C135 1.383 . S
C132 C130 1.383 . S
C132 C133 1.402 1_565 S
C132 H147 0.951 . S
C133 C132 1.402 1_545 S
C133 C134 1.375 . S
C133 C136 1.481 . S
C134 C133 1.375 . S
C134 C135 1.367 . S
C134 H148 0.951 . S
C135 C131 1.383 . S
C135 C134 1.367 . S
C135 H149 0.950 . S
C136 C133 1.481 . S
C136 C137 1.297 1_545 S
C136 H150 0.950 . S
C137 C136 1.297 1_565 S
C137 C138 1.479 . S
C137 H151 0.950 . S
C138 C137 1.479 . S
C138 C139 1.375 . S
C138 C144 1.404 1_565 S
C139 C138 1.375 . S
C139 C140 1.369 . S
C139 H152 0.950 . S
C140 C139 1.369 . S
C140 C141 1.392 1_565 S
C140 H153 0.951 . S
C141 C140 1.392 1_545 S
C141 C143 1.384 . S
H142 C144 0.949 . S
C143 C141 1.384 . S
C143 C144 1.385 . S
C143 H145 0.950 . S
C144 C138 1.404 1_545 S
C144 H142 0.949 . S
C144 C143 1.385 . S
H145 C143 0.950 . S
H146 C130 0.951 . S
H147 C132 0.951 . S
H148 C134 0.951 . S
H149 C135 0.950 . S
H150 C136 0.950 . S
H151 C137 0.950 . S
H152 C139 0.950 . S
H153 C140 0.951 . S
C154 C155 1.386 . S
C154 C156 1.383 . S
C154 H170 0.951 . S
C155 C154 1.386 . S
C155 C159 1.383 1_455 S
C156 C154 1.383 . S
C156 C157 1.402 1_455 S
C156 H171 0.951 . S
C157 C156 1.402 1_655 S
C157 C158 1.375 . S
C157 C160 1.481 . S
C158 C157 1.375 . S
C158 C159 1.367 . S
C158 H172 0.951 . S
C159 C155 1.383 1_655 S
C159 C158 1.367 . S
C159 H173 0.950 . S
C160 C157 1.481 . S
C160 C161 1.297 1_655 S
C160 H174 0.950 . S
C161 C160 1.297 1_455 S
C161 C162 1.479 . S
C161 H175 0.950 . S
C162 C161 1.479 . S
C162 C163 1.375 . S
C162 C168 1.404 1_455 S
C163 C162 1.375 . S
C163 C164 1.369 . S
C163 H176 0.950 . S
C164 C163 1.369 . S
C164 C165 1.392 1_455 S
C164 H177 0.951 . S
C165 C164 1.392 1_655 S
C165 C167 1.384 . S
H166 C168 0.949 . S
C167 C165 1.384 . S
C167 C168 1.385 . S
C167 H169 0.950 . S
C168 C162 1.404 1_655 S
C168 H166 0.949 . S
C168 C167 1.385 . S
H169 C167 0.950 . S
H170 C154 0.951 . S
H171 C156 0.951 . S
H172 C158 0.951 . S
H173 C159 0.950 . S
H174 C160 0.950 . S
H175 C161 0.950 . S
H176 C163 0.950 . S
H177 C164 0.951 . S
C178 C179 1.386 . S
C178 C180 1.383 . S
C178 H194 0.951 . S
C179 C178 1.386 . S
C179 C183 1.383 1_565 S
C180 C178 1.383 . S
C180 C181 1.402 1_565 S
C180 H195 0.951 . S
C181 C180 1.402 1_545 S
C181 C182 1.375 . S
C181 C184 1.481 . S
C182 C181 1.375 . S
C182 C183 1.367 . S
C182 H196 0.951 . S
C183 C179 1.383 1_545 S
C183 C182 1.367 . S
C183 H197 0.950 . S
C184 C181 1.481 . S
C184 C185 1.297 1_545 S
C184 H198 0.950 . S
C185 C184 1.297 1_565 S
C185 C186 1.479 . S
C185 H199 0.950 . S
C186 C185 1.479 . S
C186 C187 1.375 . S
C186 C192 1.404 1_565 S
C187 C186 1.375 . S
C187 C188 1.369 . S
C187 H200 0.950 . S
C188 C187 1.369 . S
C188 C189 1.392 . S
C188 H201 0.951 . S
C189 C188 1.392 . S
C189 C191 1.384 1_565 S
H190 C192 0.949 . S
C191 C189 1.384 1_545 S
C191 C192 1.385 . S
C191 H193 0.950 . S
C192 C186 1.404 1_545 S
C192 H190 0.949 . S
C192 C191 1.385 . S
H193 C191 0.950 . S
H194 C178 0.951 . S
H195 C180 0.951 . S
H196 C182 0.951 . S
H197 C183 0.950 . S
H198 C184 0.950 . S
H199 C185 0.950 . S
H200 C187 0.950 . S
H201 C188 0.951 . S
C202 C203 1.386 . S
C202 C204 1.383 . S
C202 H218 0.951 . S
C203 C202 1.386 . S
C203 C207 1.383 1_655 S
C204 C202 1.383 . S
C204 C205 1.402 1_655 S
C204 H219 0.951 . S
C205 C204 1.402 1_455 S
C205 C206 1.375 . S
C205 C208 1.481 . S
C206 C205 1.375 . S
C206 C207 1.367 . S
C206 H220 0.951 . S
C207 C203 1.383 1_455 S
C207 C206 1.367 . S
C207 H221 0.950 . S
C208 C205 1.481 . S
C208 C209 1.297 1_455 S
C208 H222 0.950 . S
C209 C208 1.297 1_655 S
C209 C210 1.479 . S
C209 H223 0.950 . S
C210 C209 1.479 . S
C210 C211 1.375 . S
C210 C216 1.404 1_655 S
C211 C210 1.375 . S
C211 C212 1.369 . S
C211 H224 0.950 . S
C212 C211 1.369 . S
C212 C213 1.392 . S
C212 H225 0.951 . S
C213 C212 1.392 . S
C213 C215 1.384 1_655 S
H214 C216 0.949 . S
C215 C213 1.384 1_455 S
C215 C216 1.385 . S
C215 H217 0.950 . S
C216 C210 1.404 1_455 S
C216 H214 0.949 . S
C216 C215 1.385 . S
H217 C215 0.950 . S
H218 C202 0.951 . S
H219 C204 0.951 . S
H220 C206 0.951 . S
H221 C207 0.950 . S
H222 C208 0.950 . S
H223 C209 0.950 . S
H224 C211 0.950 . S
H225 C212 0.951 . S
C226 C227 1.386 1_565 S
C226 C228 1.383 . S
C226 H242 0.951 . S
C227 C226 1.386 1_545 S
C227 C231 1.383 . S
C228 C226 1.383 . S
C228 C229 1.402 1_565 S
C228 H243 0.951 . S
C229 C228 1.402 1_545 S
C229 C230 1.375 . S
C229 C232 1.481 . S
C230 C229 1.375 . S
C230 C231 1.367 . S
C230 H244 0.951 . S
C231 C227 1.383 . S
C231 C230 1.367 . S
C231 H245 0.950 . S
C232 C229 1.481 . S
C232 C233 1.297 1_545 S
C232 H246 0.950 . S
C233 C232 1.297 1_565 S
C233 C234 1.479 . S
C233 H247 0.950 . S
C234 C233 1.479 . S
C234 C235 1.375 . S
C234 C240 1.404 1_565 S
C235 C234 1.375 . S
C235 C236 1.369 . S
C235 H248 0.950 . S
C236 C235 1.369 . S
C236 C237 1.392 . S
C236 H249 0.951 . S
C237 C236 1.392 . S
C237 C239 1.384 1_565 S
H238 C240 0.949 . S
C239 C237 1.384 1_545 S
C239 C240 1.385 . S
C239 H241 0.950 . S
C240 C234 1.404 1_545 S
C240 H238 0.949 . S
C240 C239 1.385 . S
H241 C239 0.950 . S
H242 C226 0.951 . S
H243 C228 0.951 . S
H244 C230 0.951 . S
H245 C231 0.950 . S
H246 C232 0.950 . S
H247 C233 0.950 . S
H248 C235 0.950 . S
H249 C236 0.951 . S
C250 C251 1.386 . S
C250 C252 1.383 1_455 S
C250 H266 0.951 1_455 S
C251 C250 1.386 . S
C251 C255 1.383 . S
C252 C250 1.383 1_655 S
C252 C253 1.402 . S
C252 H267 0.951 . S
C253 C252 1.402 . S
C253 C254 1.375 1_655 S
C253 C256 1.481 . S
C254 C253 1.375 1_455 S
C254 C255 1.367 . S
C254 H268 0.951 . S
C255 C251 1.383 . S
C255 C254 1.367 . S
C255 H269 0.950 . S
C256 C253 1.481 . S
C256 C257 1.297 . S
C256 H270 0.950 1_655 S
C257 C256 1.297 . S
C257 C258 1.479 . S
C257 H271 0.950 . S
C258 C257 1.479 . S
C258 C259 1.375 . S
C258 C264 1.404 . S
C259 C258 1.375 . S
C259 C260 1.369 1_655 S
C259 H272 0.950 . S
C260 C259 1.369 1_455 S
C260 C261 1.392 . S
C260 H273 0.951 . S
C261 C260 1.392 . S
C261 C263 1.384 . S
H262 C264 0.949 . S
C263 C261 1.384 . S
C263 C264 1.385 1_455 S
C263 H265 0.950 . S
C264 C258 1.404 . S
C264 H262 0.949 . S
C264 C263 1.385 1_655 S
H265 C263 0.950 . S
H266 C250 0.951 1_655 S
H267 C252 0.951 . S
H268 C254 0.951 . S
H269 C255 0.950 . S
H270 C256 0.950 1_455 S
H271 C257 0.950 . S
H272 C259 0.950 . S
H273 C260 0.951 . S
C274 C275 1.386 1_545 S
C274 C276 1.383 . S
C274 H290 0.951 . S
C275 C274 1.386 1_565 S
C275 C279 1.383 . S
C276 C274 1.383 . S
C276 C277 1.402 1_545 S
C276 H291 0.951 . S
C277 C276 1.402 1_565 S
C277 C278 1.375 . S
C277 C280 1.481 . S
C278 C277 1.375 . S
C278 C279 1.367 . S
C278 H292 0.951 . S
C279 C275 1.383 . S
C279 C278 1.367 . S
C279 H293 0.950 . S
C280 C277 1.481 . S
C280 C281 1.297 1_565 S
C280 H294 0.950 . S
C281 C280 1.297 1_545 S
C281 C282 1.479 . S
C281 H295 0.950 . S
C282 C281 1.479 . S
C282 C283 1.375 . S
C282 C288 1.404 1_545 S
C283 C282 1.375 . S
C283 C284 1.369 . S
C283 H296 0.950 . S
C284 C283 1.369 . S
C284 C285 1.392 . S
C284 H297 0.951 . S
C285 C284 1.392 . S
C285 C287 1.384 1_545 S
H286 C288 0.949 . S
C287 C285 1.384 1_565 S
C287 C288 1.385 . S
C287 H289 0.950 . S
C288 C282 1.404 1_565 S
C288 H286 0.949 . S
C288 C287 1.385 . S
H289 C287 0.950 . S
H290 C274 0.951 . S
H291 C276 0.951 . S
H292 C278 0.951 . S
H293 C279 0.950 . S
H294 C280 0.950 . S
H295 C281 0.950 . S
H296 C283 0.950 . S
H297 C284 0.951 . S
C298 C299 1.386 . S
C298 C300 1.383 . S
C298 H314 0.951 . S
C299 C298 1.386 . S
C299 C303 1.383 1_554 S
C300 C298 1.383 . S
C300 C301 1.402 . S
C300 H315 0.951 . S
C301 C300 1.402 . S
C301 C302 1.375 1_554 S
C301 C304 1.483 . S
C302 C301 1.375 1_556 S
C302 C303 1.367 . S
C302 H316 0.951 . S
C303 C299 1.383 1_556 S
C303 C302 1.367 . S
C303 H317 0.950 . S
C304 C301 1.483 . S
C304 C305 1.306 . S
C304 H318 0.938 1_554 S
C305 C304 1.306 . S
C305 C306 1.479 . S
C305 H319 0.950 . S
C306 C305 1.479 . S
C306 C307 1.375 . S
C306 C312 1.404 1_554 S
C307 C306 1.375 . S
C307 C308 1.369 . S
C307 H320 0.950 . S
C308 C307 1.369 . S
C308 C309 1.392 . S
C308 H321 0.951 . S
C309 C308 1.392 . S
C309 C311 1.384 1_554 S
H310 C312 0.949 . S
C311 C309 1.384 1_556 S
C311 C312 1.385 . S
C311 H313 0.950 . S
C312 C306 1.404 1_556 S
C312 H310 0.949 . S
C312 C311 1.385 . S
H313 C311 0.950 . S
H314 C298 0.951 . S
H315 C300 0.951 . S
H316 C302 0.951 . S
H317 C303 0.950 . S
H318 C304 0.938 1_556 S
H319 C305 0.950 . S
H320 C307 0.950 . S
H321 C308 0.951 . S
C322 C323 1.386 . S
C322 C324 1.383 . S
C322 H338 0.951 . S
C323 C322 1.386 . S
C323 C327 1.383 1_554 S
C324 C322 1.383 . S
C324 C325 1.402 . S
C324 H339 0.951 . S
C325 C324 1.402 . S
C325 C326 1.375 1_554 S
C325 C328 1.481 . S
C326 C325 1.375 1_556 S
C326 C327 1.367 . S
C326 H340 0.951 . S
C327 C323 1.383 1_556 S
C327 C326 1.367 . S
C327 H341 0.950 . S
C328 C325 1.481 . S
C328 C329 1.297 . S
C328 H342 0.950 1_554 S
C329 C328 1.297 . S
C329 C330 1.479 . S
C329 H343 0.950 . S
C330 C329 1.479 . S
C330 C331 1.375 . S
C330 C336 1.404 . S
C331 C330 1.375 . S
C331 C332 1.369 . S
C331 H344 0.950 . S
C332 C331 1.369 . S
C332 C333 1.392 . S
C332 H345 0.951 . S
C333 C332 1.392 . S
C333 C335 1.384 . S
H334 C336 0.949 1_556 S
C335 C333 1.384 . S
C335 C336 1.385 . S
C335 H337 0.950 1_554 S
C336 C330 1.404 . S
C336 H334 0.949 1_554 S
C336 C335 1.385 . S
H337 C335 0.950 1_556 S
H338 C322 0.951 . S
H339 C324 0.951 . S
H340 C326 0.951 . S
H341 C327 0.950 . S
H342 C328 0.950 1_556 S
H343 C329 0.950 . S
H344 C331 0.950 . S
H345 C332 0.951 . S
C346 C347 1.386 1_556 S
C346 C348 1.383 . S
C346 H362 0.951 . S
C347 C346 1.386 1_554 S
C347 C351 1.383 . S
C348 C346 1.383 . S
C348 C349 1.402 1_556 S
C348 H363 0.951 . S
C349 C348 1.402 1_554 S
C349 C350 1.375 . S
C349 C352 1.481 . S
C350 C349 1.375 . S
C350 C351 1.367 . S
C350 H364 0.951 . S
C351 C347 1.383 . S
C351 C350 1.367 . S
C351 H365 0.950 . S
C352 C349 1.481 . S
C352 C353 1.297 1_554 S
C352 H366 0.950 . S
C353 C352 1.297 1_556 S
C353 C354 1.479 1_556 S
C353 H367 0.950 . S
C354 C353 1.479 1_554 S
C354 C355 1.375 1_554 S
C354 C360 1.404 . S
C355 C354 1.375 1_556 S
C355 C356 1.369 . S
C355 H368 0.950 . S
C356 C355 1.369 . S
C356 C357 1.392 1_556 S
C356 H369 0.951 . S
C357 C356 1.392 1_554 S
C357 C359 1.384 . S
H358 C360 0.949 . S
C359 C357 1.384 . S
C359 C360 1.385 . S
C359 H361 0.950 . S
C360 C354 1.404 . S
C360 H358 0.949 . S
C360 C359 1.385 . S
H361 C359 0.950 . S
H362 C346 0.951 . S
H363 C348 0.951 . S
H364 C350 0.951 . S
H365 C351 0.950 . S
H366 C352 0.950 . S
H367 C353 0.950 . S
H368 C355 0.950 . S
H369 C356 0.951 . S
C370 C371 1.386 1_556 S
C370 C372 1.385 . S
C370 H386 0.951 . S
C371 C370 1.386 1_554 S
C371 C375 1.383 . S
C372 C370 1.385 . S
C372 C373 1.381 1_556 S
C372 H387 0.969 . S
C373 C372 1.381 1_554 S
C373 C374 1.375 . S
C373 C376 1.481 . S
C374 C373 1.375 . S
C374 C375 1.367 . S
C374 H388 0.951 . S
C375 C371 1.383 . S
C375 C374 1.367 . S
C375 H389 0.950 . S
C376 C373 1.481 . S
C376 C377 1.297 . S
C376 H390 0.950 . S
C377 C376 1.297 . S
C377 C378 1.479 . S
C377 H391 0.950 1_554 S
C378 C377 1.479 . S
C378 C379 1.375 1_554 S
C378 C384 1.404 . S
C379 C378 1.375 1_556 S
C379 C380 1.369 . S
C379 H392 0.950 . S
C380 C379 1.369 . S
C380 C381 1.392 1_556 S
C380 H393 0.951 . S
C381 C380 1.392 1_554 S
C381 C383 1.384 . S
H382 C384 0.949 . S
C383 C381 1.384 . S
C383 C384 1.385 . S
C383 H385 0.950 . S
C384 C378 1.404 . S
C384 H382 0.949 . S
C384 C383 1.385 . S
H385 C383 0.950 . S
H386 C370 0.951 . S
H387 C372 0.969 . S
H388 C374 0.951 . S
H389 C375 0.950 . S
H390 C376 0.950 . S
H391 C377 0.950 1_556 S
H392 C379 0.950 . S
H393 C380 0.951 . S
C117 C90 1.998 . S
C107 C7 2.125 . S
C141 C86 1.184 . S
C131 C34 1.296 . S
C165 C96 1.994 1_655 S
C155 C14 2.136 . S
C189 C80 1.293 1_565 S
C179 C32 1.322 . S
C203 C16 2.231 . S
C213 C72 2.091 . S
C237 C104 1.329 . S
C227 C25 1.424 . S
C251 C8 2.229 . S
C261 C58 2.094 . S
C275 C26 1.421 . S
C285 C102 1.320 . S
C299 C50 1.016 . S
C309 C84 1.047 . S
C323 C43 1.004 . S
C333 C99 1.062 . S
C357 C93 0.975 . S
C347 C52 1.060 . S
C381 C88 0.937 . S
C371 C44 0.997 . S
