# Generated by pormake.
# Topology bpr, (3,3)-cn, num edge types: 1
# Building blocks:
#     Node 0, Type 0, BuildingBlock: WUSLED_clean_sbu_0, # of connection points: 3
#     Node 1, Type 0, BuildingBlock: WUSLED_clean_sbu_0, # of connection points: 3
#     Node 2, Type 0, BuildingBlock: WUSLED_clean_sbu_0, # of connection points: 3
#     Node 3, Type 0, BuildingBlock: WUSLED_clean_sbu_0, # of connection points: 3
#     Node 4, Type 0, BuildingBlock: WUSLED_clean_sbu_0, # of connection points: 3
#     Node 5, Type 0, BuildingBlock: WUSLED_clean_sbu_0, # of connection points: 3
#     Node 6, Type 0, BuildingBlock: WUSLED_clean_sbu_0, # of connection points: 3
#     Node 7, Type 0, BuildingBlock: WUSLED_clean_sbu_0, # of connection points: 3
#     Node 8, Type 0, BuildingBlock: WUSLED_clean_sbu_0, # of connection points: 3
#     Node 9, Type 0, BuildingBlock: WUSLED_clean_sbu_0, # of connection points: 3
#     Node 10, Type 0, BuildingBlock: WUSLED_clean_sbu_0, # of connection points: 3
#     Node 11, Type 0, BuildingBlock: WUSLED_clean_sbu_0, # of connection points: 3
#     Node 12, Type 0, BuildingBlock: WUSLED_clean_sbu_0, # of connection points: 3
#     Node 13, Type 0, BuildingBlock: WUSLED_clean_sbu_0, # of connection points: 3
#     Node 14, Type 0, BuildingBlock: WUSLED_clean_sbu_0, # of connection points: 3
#     Node 15, Type 0, BuildingBlock: WUSLED_clean_sbu_0, # of connection points: 3
#     Node 16, Type 0, BuildingBlock: WUSLED_clean_sbu_0, # of connection points: 3
#     Node 17, Type 0, BuildingBlock: WUSLED_clean_sbu_0, # of connection points: 3
#     Node 18, Type 0, BuildingBlock: WUSLED_clean_sbu_0, # of connection points: 3
#     Node 19, Type 0, BuildingBlock: WUSLED_clean_sbu_0, # of connection points: 3
#     Node 20, Type 0, BuildingBlock: WUSLED_clean_sbu_0, # of connection points: 3
#     Node 21, Type 0, BuildingBlock: WUSLED_clean_sbu_0, # of connection points: 3
#     Node 22, Type 0, BuildingBlock: WUSLED_clean_sbu_0, # of connection points: 3
#     Node 23, Type 0, BuildingBlock: WUSLED_clean_sbu_0, # of connection points: 3
#     Node 24, Type 0, BuildingBlock: WUSLED_clean_sbu_0, # of connection points: 3
#     Node 25, Type 0, BuildingBlock: WUSLED_clean_sbu_0, # of connection points: 3
#     Node 26, Type 0, BuildingBlock: WUSLED_clean_sbu_0, # of connection points: 3
#     Node 27, Type 0, BuildingBlock: WUSLED_clean_sbu_0, # of connection points: 3
#     Node 28, Type 0, BuildingBlock: WUSLED_clean_sbu_0, # of connection points: 3
#     Node 29, Type 0, BuildingBlock: WUSLED_clean_sbu_0, # of connection points: 3
#     Node 30, Type 0, BuildingBlock: WUSLED_clean_sbu_0, # of connection points: 3
#     Node 31, Type 0, BuildingBlock: WUSLED_clean_sbu_0, # of connection points: 3
#     Node 32, Type 0, BuildingBlock: WUSLED_clean_sbu_0, # of connection points: 3
#     Node 33, Type 0, BuildingBlock: WUSLED_clean_sbu_0, # of connection points: 3
#     Node 34, Type 0, BuildingBlock: WUSLED_clean_sbu_0, # of connection points: 3
#     Node 35, Type 0, BuildingBlock: WUSLED_clean_sbu_0, # of connection points: 3
#     Node 36, Type 0, BuildingBlock: WUSLED_clean_sbu_0, # of connection points: 3
#     Node 37, Type 0, BuildingBlock: WUSLED_clean_sbu_0, # of connection points: 3
#     Node 38, Type 0, BuildingBlock: WUSLED_clean_sbu_0, # of connection points: 3
#     Node 39, Type 0, BuildingBlock: WUSLED_clean_sbu_0, # of connection points: 3
#     Node 40, Type 0, BuildingBlock: WUSLED_clean_sbu_0, # of connection points: 3
#     Node 41, Type 0, BuildingBlock: WUSLED_clean_sbu_0, # of connection points: 3
#     Node 42, Type 0, BuildingBlock: WUSLED_clean_sbu_0, # of connection points: 3
#     Node 43, Type 0, BuildingBlock: WUSLED_clean_sbu_0, # of connection points: 3
#     Node 44, Type 0, BuildingBlock: WUSLED_clean_sbu_0, # of connection points: 3
#     Node 45, Type 0, BuildingBlock: WUSLED_clean_sbu_0, # of connection points: 3
#     Node 46, Type 0, BuildingBlock: WUSLED_clean_sbu_0, # of connection points: 3
#     Node 47, Type 0, BuildingBlock: WUSLED_clean_sbu_0, # of connection points: 3
#     Node 48, Type 1, BuildingBlock: MIDCAF_clean_linker_0, # of connection points: 3
#     Node 49, Type 1, BuildingBlock: MIDCAF_clean_linker_0, # of connection points: 3
#     Node 50, Type 1, BuildingBlock: MIDCAF_clean_linker_0, # of connection points: 3
#     Node 51, Type 1, BuildingBlock: MIDCAF_clean_linker_0, # of connection points: 3
#     Node 52, Type 1, BuildingBlock: MIDCAF_clean_linker_0, # of connection points: 3
#     Node 53, Type 1, BuildingBlock: MIDCAF_clean_linker_0, # of connection points: 3
#     Node 54, Type 1, BuildingBlock: MIDCAF_clean_linker_0, # of connection points: 3
#     Node 55, Type 1, BuildingBlock: MIDCAF_clean_linker_0, # of connection points: 3
#     Node 56, Type 1, BuildingBlock: MIDCAF_clean_linker_0, # of connection points: 3
#     Node 57, Type 1, BuildingBlock: MIDCAF_clean_linker_0, # of connection points: 3
#     Node 58, Type 1, BuildingBlock: MIDCAF_clean_linker_0, # of connection points: 3
#     Node 59, Type 1, BuildingBlock: MIDCAF_clean_linker_0, # of connection points: 3
#     Node 60, Type 1, BuildingBlock: MIDCAF_clean_linker_0, # of connection points: 3
#     Node 61, Type 1, BuildingBlock: MIDCAF_clean_linker_0, # of connection points: 3
#     Node 62, Type 1, BuildingBlock: MIDCAF_clean_linker_0, # of connection points: 3
#     Node 63, Type 1, BuildingBlock: MIDCAF_clean_linker_0, # of connection points: 3
#     Node 64, Type 1, BuildingBlock: MIDCAF_clean_linker_0, # of connection points: 3
#     Node 65, Type 1, BuildingBlock: MIDCAF_clean_linker_0, # of connection points: 3
#     Node 66, Type 1, BuildingBlock: MIDCAF_clean_linker_0, # of connection points: 3
#     Node 67, Type 1, BuildingBlock: MIDCAF_clean_linker_0, # of connection points: 3
#     Node 68, Type 1, BuildingBlock: MIDCAF_clean_linker_0, # of connection points: 3
#     Node 69, Type 1, BuildingBlock: MIDCAF_clean_linker_0, # of connection points: 3
#     Node 70, Type 1, BuildingBlock: MIDCAF_clean_linker_0, # of connection points: 3
#     Node 71, Type 1, BuildingBlock: MIDCAF_clean_linker_0, # of connection points: 3
#     Node 72, Type 1, BuildingBlock: MIDCAF_clean_linker_0, # of connection points: 3
#     Node 73, Type 1, BuildingBlock: MIDCAF_clean_linker_0, # of connection points: 3
#     Node 74, Type 1, BuildingBlock: MIDCAF_clean_linker_0, # of connection points: 3
#     Node 75, Type 1, BuildingBlock: MIDCAF_clean_linker_0, # of connection points: 3
#     Node 76, Type 1, BuildingBlock: MIDCAF_clean_linker_0, # of connection points: 3
#     Node 77, Type 1, BuildingBlock: MIDCAF_clean_linker_0, # of connection points: 3
#     Node 78, Type 1, BuildingBlock: MIDCAF_clean_linker_0, # of connection points: 3
#     Node 79, Type 1, BuildingBlock: MIDCAF_clean_linker_0, # of connection points: 3
#     Node 80, Type 1, BuildingBlock: MIDCAF_clean_linker_0, # of connection points: 3
#     Node 81, Type 1, BuildingBlock: MIDCAF_clean_linker_0, # of connection points: 3
#     Node 82, Type 1, BuildingBlock: MIDCAF_clean_linker_0, # of connection points: 3
#     Node 83, Type 1, BuildingBlock: MIDCAF_clean_linker_0, # of connection points: 3
#     Node 84, Type 1, BuildingBlock: MIDCAF_clean_linker_0, # of connection points: 3
#     Node 85, Type 1, BuildingBlock: MIDCAF_clean_linker_0, # of connection points: 3
#     Node 86, Type 1, BuildingBlock: MIDCAF_clean_linker_0, # of connection points: 3
#     Node 87, Type 1, BuildingBlock: MIDCAF_clean_linker_0, # of connection points: 3
#     Node 88, Type 1, BuildingBlock: MIDCAF_clean_linker_0, # of connection points: 3
#     Node 89, Type 1, BuildingBlock: MIDCAF_clean_linker_0, # of connection points: 3
#     Node 90, Type 1, BuildingBlock: MIDCAF_clean_linker_0, # of connection points: 3
#     Node 91, Type 1, BuildingBlock: MIDCAF_clean_linker_0, # of connection points: 3
#     Node 92, Type 1, BuildingBlock: MIDCAF_clean_linker_0, # of connection points: 3
#     Node 93, Type 1, BuildingBlock: MIDCAF_clean_linker_0, # of connection points: 3
#     Node 94, Type 1, BuildingBlock: MIDCAF_clean_linker_0, # of connection points: 3
#     Node 95, Type 1, BuildingBlock: MIDCAF_clean_linker_0, # of connection points: 3
#     Edge 96, Type (0, 1), BuildingBlock: XUDNAN_clean_linker_2, # of connection points: 2
#     Edge 97, Type (0, 1), BuildingBlock: XUDNAN_clean_linker_2, # of connection points: 2
#     Edge 98, Type (0, 1), BuildingBlock: XUDNAN_clean_linker_2, # of connection points: 2
#     Edge 99, Type (0, 1), BuildingBlock: XUDNAN_clean_linker_2, # of connection points: 2
#     Edge 100, Type (0, 1), BuildingBlock: XUDNAN_clean_linker_2, # of connection points: 2
#     Edge 101, Type (0, 1), BuildingBlock: XUDNAN_clean_linker_2, # of connection points: 2
#     Edge 102, Type (0, 1), BuildingBlock: XUDNAN_clean_linker_2, # of connection points: 2
#     Edge 103, Type (0, 1), BuildingBlock: XUDNAN_clean_linker_2, # of connection points: 2
#     Edge 104, Type (0, 1), BuildingBlock: XUDNAN_clean_linker_2, # of connection points: 2
#     Edge 105, Type (0, 1), BuildingBlock: XUDNAN_clean_linker_2, # of connection points: 2
#     Edge 106, Type (0, 1), BuildingBlock: XUDNAN_clean_linker_2, # of connection points: 2
#     Edge 107, Type (0, 1), BuildingBlock: XUDNAN_clean_linker_2, # of connection points: 2
#     Edge 108, Type (0, 1), BuildingBlock: XUDNAN_clean_linker_2, # of connection points: 2
#     Edge 109, Type (0, 1), BuildingBlock: XUDNAN_clean_linker_2, # of connection points: 2
#     Edge 110, Type (0, 1), BuildingBlock: XUDNAN_clean_linker_2, # of connection points: 2
#     Edge 111, Type (0, 1), BuildingBlock: XUDNAN_clean_linker_2, # of connection points: 2
#     Edge 112, Type (0, 1), BuildingBlock: XUDNAN_clean_linker_2, # of connection points: 2
#     Edge 113, Type (0, 1), BuildingBlock: XUDNAN_clean_linker_2, # of connection points: 2
#     Edge 114, Type (0, 1), BuildingBlock: XUDNAN_clean_linker_2, # of connection points: 2
#     Edge 115, Type (0, 1), BuildingBlock: XUDNAN_clean_linker_2, # of connection points: 2
#     Edge 116, Type (0, 1), BuildingBlock: XUDNAN_clean_linker_2, # of connection points: 2
#     Edge 117, Type (0, 1), BuildingBlock: XUDNAN_clean_linker_2, # of connection points: 2
#     Edge 118, Type (0, 1), BuildingBlock: XUDNAN_clean_linker_2, # of connection points: 2
#     Edge 119, Type (0, 1), BuildingBlock: XUDNAN_clean_linker_2, # of connection points: 2
#     Edge 120, Type (0, 1), BuildingBlock: XUDNAN_clean_linker_2, # of connection points: 2
#     Edge 121, Type (0, 1), BuildingBlock: XUDNAN_clean_linker_2, # of connection points: 2
#     Edge 122, Type (0, 1), BuildingBlock: XUDNAN_clean_linker_2, # of connection points: 2
#     Edge 123, Type (0, 1), BuildingBlock: XUDNAN_clean_linker_2, # of connection points: 2
#     Edge 124, Type (0, 1), BuildingBlock: XUDNAN_clean_linker_2, # of connection points: 2
#     Edge 125, Type (0, 1), BuildingBlock: XUDNAN_clean_linker_2, # of connection points: 2
#     Edge 126, Type (0, 1), BuildingBlock: XUDNAN_clean_linker_2, # of connection points: 2
#     Edge 127, Type (0, 1), BuildingBlock: XUDNAN_clean_linker_2, # of connection points: 2
#     Edge 128, Type (0, 1), BuildingBlock: XUDNAN_clean_linker_2, # of connection points: 2
#     Edge 129, Type (0, 1), BuildingBlock: XUDNAN_clean_linker_2, # of connection points: 2
#     Edge 130, Type (0, 1), BuildingBlock: XUDNAN_clean_linker_2, # of connection points: 2
#     Edge 131, Type (0, 1), BuildingBlock: XUDNAN_clean_linker_2, # of connection points: 2
#     Edge 132, Type (0, 1), BuildingBlock: XUDNAN_clean_linker_2, # of connection points: 2
#     Edge 133, Type (0, 1), BuildingBlock: XUDNAN_clean_linker_2, # of connection points: 2
#     Edge 134, Type (0, 1), BuildingBlock: XUDNAN_clean_linker_2, # of connection points: 2
#     Edge 135, Type (0, 1), BuildingBlock: XUDNAN_clean_linker_2, # of connection points: 2
#     Edge 136, Type (0, 1), BuildingBlock: XUDNAN_clean_linker_2, # of connection points: 2
#     Edge 137, Type (0, 1), BuildingBlock: XUDNAN_clean_linker_2, # of connection points: 2
#     Edge 138, Type (0, 1), BuildingBlock: XUDNAN_clean_linker_2, # of connection points: 2
#     Edge 139, Type (0, 1), BuildingBlock: XUDNAN_clean_linker_2, # of connection points: 2
#     Edge 140, Type (0, 1), BuildingBlock: XUDNAN_clean_linker_2, # of connection points: 2
#     Edge 141, Type (0, 1), BuildingBlock: XUDNAN_clean_linker_2, # of connection points: 2
#     Edge 142, Type (0, 1), BuildingBlock: XUDNAN_clean_linker_2, # of connection points: 2
#     Edge 143, Type (0, 1), BuildingBlock: XUDNAN_clean_linker_2, # of connection points: 2
#     Edge 144, Type (0, 1), BuildingBlock: XUDNAN_clean_linker_2, # of connection points: 2
#     Edge 145, Type (0, 1), BuildingBlock: XUDNAN_clean_linker_2, # of connection points: 2
#     Edge 146, Type (0, 1), BuildingBlock: XUDNAN_clean_linker_2, # of connection points: 2
#     Edge 147, Type (0, 1), BuildingBlock: XUDNAN_clean_linker_2, # of connection points: 2
#     Edge 148, Type (0, 1), BuildingBlock: XUDNAN_clean_linker_2, # of connection points: 2
#     Edge 149, Type (0, 1), BuildingBlock: XUDNAN_clean_linker_2, # of connection points: 2
#     Edge 150, Type (0, 1), BuildingBlock: XUDNAN_clean_linker_2, # of connection points: 2
#     Edge 151, Type (0, 1), BuildingBlock: XUDNAN_clean_linker_2, # of connection points: 2
#     Edge 152, Type (0, 1), BuildingBlock: XUDNAN_clean_linker_2, # of connection points: 2
#     Edge 153, Type (0, 1), BuildingBlock: XUDNAN_clean_linker_2, # of connection points: 2
#     Edge 154, Type (0, 1), BuildingBlock: XUDNAN_clean_linker_2, # of connection points: 2
#     Edge 155, Type (0, 1), BuildingBlock: XUDNAN_clean_linker_2, # of connection points: 2
#     Edge 156, Type (0, 1), BuildingBlock: XUDNAN_clean_linker_2, # of connection points: 2
#     Edge 157, Type (0, 1), BuildingBlock: XUDNAN_clean_linker_2, # of connection points: 2
#     Edge 158, Type (0, 1), BuildingBlock: XUDNAN_clean_linker_2, # of connection points: 2
#     Edge 159, Type (0, 1), BuildingBlock: XUDNAN_clean_linker_2, # of connection points: 2
#     Edge 160, Type (0, 1), BuildingBlock: XUDNAN_clean_linker_2, # of connection points: 2
#     Edge 161, Type (0, 1), BuildingBlock: XUDNAN_clean_linker_2, # of connection points: 2
#     Edge 162, Type (0, 1), BuildingBlock: XUDNAN_clean_linker_2, # of connection points: 2
#     Edge 163, Type (0, 1), BuildingBlock: XUDNAN_clean_linker_2, # of connection points: 2
#     Edge 164, Type (0, 1), BuildingBlock: XUDNAN_clean_linker_2, # of connection points: 2
#     Edge 165, Type (0, 1), BuildingBlock: XUDNAN_clean_linker_2, # of connection points: 2
#     Edge 166, Type (0, 1), BuildingBlock: XUDNAN_clean_linker_2, # of connection points: 2
#     Edge 167, Type (0, 1), BuildingBlock: XUDNAN_clean_linker_2, # of connection points: 2
#     Edge 168, Type (0, 1), BuildingBlock: XUDNAN_clean_linker_2, # of connection points: 2
#     Edge 169, Type (0, 1), BuildingBlock: XUDNAN_clean_linker_2, # of connection points: 2
#     Edge 170, Type (0, 1), BuildingBlock: XUDNAN_clean_linker_2, # of connection points: 2
#     Edge 171, Type (0, 1), BuildingBlock: XUDNAN_clean_linker_2, # of connection points: 2
#     Edge 172, Type (0, 1), BuildingBlock: XUDNAN_clean_linker_2, # of connection points: 2
#     Edge 173, Type (0, 1), BuildingBlock: XUDNAN_clean_linker_2, # of connection points: 2
#     Edge 174, Type (0, 1), BuildingBlock: XUDNAN_clean_linker_2, # of connection points: 2
#     Edge 175, Type (0, 1), BuildingBlock: XUDNAN_clean_linker_2, # of connection points: 2
#     Edge 176, Type (0, 1), BuildingBlock: XUDNAN_clean_linker_2, # of connection points: 2
#     Edge 177, Type (0, 1), BuildingBlock: XUDNAN_clean_linker_2, # of connection points: 2
#     Edge 178, Type (0, 1), BuildingBlock: XUDNAN_clean_linker_2, # of connection points: 2
#     Edge 179, Type (0, 1), BuildingBlock: XUDNAN_clean_linker_2, # of connection points: 2
#     Edge 180, Type (0, 1), BuildingBlock: XUDNAN_clean_linker_2, # of connection points: 2
#     Edge 181, Type (0, 1), BuildingBlock: XUDNAN_clean_linker_2, # of connection points: 2
#     Edge 182, Type (0, 1), BuildingBlock: XUDNAN_clean_linker_2, # of connection points: 2
#     Edge 183, Type (0, 1), BuildingBlock: XUDNAN_clean_linker_2, # of connection points: 2
#     Edge 184, Type (0, 1), BuildingBlock: XUDNAN_clean_linker_2, # of connection points: 2
#     Edge 185, Type (0, 1), BuildingBlock: XUDNAN_clean_linker_2, # of connection points: 2
#     Edge 186, Type (0, 1), BuildingBlock: XUDNAN_clean_linker_2, # of connection points: 2
#     Edge 187, Type (0, 1), BuildingBlock: XUDNAN_clean_linker_2, # of connection points: 2
#     Edge 188, Type (0, 1), BuildingBlock: XUDNAN_clean_linker_2, # of connection points: 2
#     Edge 189, Type (0, 1), BuildingBlock: XUDNAN_clean_linker_2, # of connection points: 2
#     Edge 190, Type (0, 1), BuildingBlock: XUDNAN_clean_linker_2, # of connection points: 2
#     Edge 191, Type (0, 1), BuildingBlock: XUDNAN_clean_linker_2, # of connection points: 2
#     Edge 192, Type (0, 1), BuildingBlock: XUDNAN_clean_linker_2, # of connection points: 2
#     Edge 193, Type (0, 1), BuildingBlock: XUDNAN_clean_linker_2, # of connection points: 2
#     Edge 194, Type (0, 1), BuildingBlock: XUDNAN_clean_linker_2, # of connection points: 2
#     Edge 195, Type (0, 1), BuildingBlock: XUDNAN_clean_linker_2, # of connection points: 2
#     Edge 196, Type (0, 1), BuildingBlock: XUDNAN_clean_linker_2, # of connection points: 2
#     Edge 197, Type (0, 1), BuildingBlock: XUDNAN_clean_linker_2, # of connection points: 2
#     Edge 198, Type (0, 1), BuildingBlock: XUDNAN_clean_linker_2, # of connection points: 2
#     Edge 199, Type (0, 1), BuildingBlock: XUDNAN_clean_linker_2, # of connection points: 2
#     Edge 200, Type (0, 1), BuildingBlock: XUDNAN_clean_linker_2, # of connection points: 2
#     Edge 201, Type (0, 1), BuildingBlock: XUDNAN_clean_linker_2, # of connection points: 2
#     Edge 202, Type (0, 1), BuildingBlock: XUDNAN_clean_linker_2, # of connection points: 2
#     Edge 203, Type (0, 1), BuildingBlock: XUDNAN_clean_linker_2, # of connection points: 2
#     Edge 204, Type (0, 1), BuildingBlock: XUDNAN_clean_linker_2, # of connection points: 2
#     Edge 205, Type (0, 1), BuildingBlock: XUDNAN_clean_linker_2, # of connection points: 2
#     Edge 206, Type (0, 1), BuildingBlock: XUDNAN_clean_linker_2, # of connection points: 2
#     Edge 207, Type (0, 1), BuildingBlock: XUDNAN_clean_linker_2, # of connection points: 2
#     Edge 208, Type (0, 1), BuildingBlock: XUDNAN_clean_linker_2, # of connection points: 2
#     Edge 209, Type (0, 1), BuildingBlock: XUDNAN_clean_linker_2, # of connection points: 2
#     Edge 210, Type (0, 1), BuildingBlock: XUDNAN_clean_linker_2, # of connection points: 2
#     Edge 211, Type (0, 1), BuildingBlock: XUDNAN_clean_linker_2, # of connection points: 2
#     Edge 212, Type (0, 1), BuildingBlock: XUDNAN_clean_linker_2, # of connection points: 2
#     Edge 213, Type (0, 1), BuildingBlock: XUDNAN_clean_linker_2, # of connection points: 2
#     Edge 214, Type (0, 1), BuildingBlock: XUDNAN_clean_linker_2, # of connection points: 2
#     Edge 215, Type (0, 1), BuildingBlock: XUDNAN_clean_linker_2, # of connection points: 2
#     Edge 216, Type (0, 1), BuildingBlock: XUDNAN_clean_linker_2, # of connection points: 2
#     Edge 217, Type (0, 1), BuildingBlock: XUDNAN_clean_linker_2, # of connection points: 2
#     Edge 218, Type (0, 1), BuildingBlock: XUDNAN_clean_linker_2, # of connection points: 2
#     Edge 219, Type (0, 1), BuildingBlock: XUDNAN_clean_linker_2, # of connection points: 2
#     Edge 220, Type (0, 1), BuildingBlock: XUDNAN_clean_linker_2, # of connection points: 2
#     Edge 221, Type (0, 1), BuildingBlock: XUDNAN_clean_linker_2, # of connection points: 2
#     Edge 222, Type (0, 1), BuildingBlock: XUDNAN_clean_linker_2, # of connection points: 2
#     Edge 223, Type (0, 1), BuildingBlock: XUDNAN_clean_linker_2, # of connection points: 2
#     Edge 224, Type (0, 1), BuildingBlock: XUDNAN_clean_linker_2, # of connection points: 2
#     Edge 225, Type (0, 1), BuildingBlock: XUDNAN_clean_linker_2, # of connection points: 2
#     Edge 226, Type (0, 1), BuildingBlock: XUDNAN_clean_linker_2, # of connection points: 2
#     Edge 227, Type (0, 1), BuildingBlock: XUDNAN_clean_linker_2, # of connection points: 2
#     Edge 228, Type (0, 1), BuildingBlock: XUDNAN_clean_linker_2, # of connection points: 2
#     Edge 229, Type (0, 1), BuildingBlock: XUDNAN_clean_linker_2, # of connection points: 2
#     Edge 230, Type (0, 1), BuildingBlock: XUDNAN_clean_linker_2, # of connection points: 2
#     Edge 231, Type (0, 1), BuildingBlock: XUDNAN_clean_linker_2, # of connection points: 2
#     Edge 232, Type (0, 1), BuildingBlock: XUDNAN_clean_linker_2, # of connection points: 2
#     Edge 233, Type (0, 1), BuildingBlock: XUDNAN_clean_linker_2, # of connection points: 2
#     Edge 234, Type (0, 1), BuildingBlock: XUDNAN_clean_linker_2, # of connection points: 2
#     Edge 235, Type (0, 1), BuildingBlock: XUDNAN_clean_linker_2, # of connection points: 2
#     Edge 236, Type (0, 1), BuildingBlock: XUDNAN_clean_linker_2, # of connection points: 2
#     Edge 237, Type (0, 1), BuildingBlock: XUDNAN_clean_linker_2, # of connection points: 2
#     Edge 238, Type (0, 1), BuildingBlock: XUDNAN_clean_linker_2, # of connection points: 2
#     Edge 239, Type (0, 1), BuildingBlock: XUDNAN_clean_linker_2, # of connection points: 2
# Relax obj value: 0.092
# Max RMSD: 0.078
# Mean RMSD: 0.074
data_MOF--net-bpr--node1-WUSLED_clean_sbu_0--node2-MIDCAF_clean_linker_0--edge1-XUDNAN_clean_linker_2
_symmetry_space_group_name_H-M    P1
_symmetry_Int_Tables_number       1
_symmetry_cell_setting            triclinic
loop_
_symmetry_equiv_pos_as_xyz
'x, y, z'
_cell_length_a     122.99491
_cell_length_b     122.91683
_cell_length_c     123.80268
_cell_angle_alpha  90.090787
_cell_angle_beta   90.143918
_cell_angle_gamma 90.148089
loop_
_atom_site_label
_atom_site_type_symbol
_atom_site_fract_x
_atom_site_fract_y
_atom_site_fract_z
_atom_type_partial_charge
C0 C 0.98975 0.39514 0.2895 0.0
C1 C 0.98672 0.39612 0.30039 0.0
C2 C 0.96771 0.39678 0.29487 0.0
C3 C 0.97566 0.39686 0.30307 0.0
C4 C 0.97086 0.39572 0.28408 0.0
C5 C 0.98178 0.39487 0.28144 0.0
U6 U 0.02213 0.3958 0.28753 0.0
O7 O 0.03073 0.38391 0.27734 0.0
O8 O 0.03 0.4014 0.27253 0.0
C9 C 0.03321 0.39148 0.27027 0.0
C10 C 1.00101 0.39432 0.28586 0.0
C11 C 0.03903 0.3889 0.26035 0.0
C12 C 0.03958 0.38102 0.2424 0.0
C13 C 0.03362 0.38451 0.25136 0.0
C14 C 0.05624 0.38686 0.25123 0.0
C15 C 0.051 0.38186 0.24241 0.0
C16 C 0.05029 0.39031 0.26014 0.0
C17 C 0.03856 0.40489 0.31452 0.0
C18 C 0.05626 0.40616 0.32318 0.0
C19 C 0.03995 0.41045 0.33327 0.0
C20 C 0.03367 0.40832 0.32413 0.0
C21 C 0.05126 0.40923 0.33292 0.0
C22 C 0.04992 0.40401 0.31397 0.0
C23 C 0.03134 0.4018 0.30557 0.0
O24 O 1.00637 0.40336 0.28393 0.0
O25 O 1.00706 0.38624 0.28933 0.0
O26 O 0.02968 0.39151 0.30313 0.0
O27 O 0.02855 0.40884 0.29809 0.0
H28 H 0.99282 0.39632 0.30671 0.0
H29 H 0.97331 0.39765 0.31147 0.0
H30 H 0.96484 0.3955 0.27767 0.0
H31 H 0.98402 0.39403 0.27301 0.0
H32 H 0.0353 0.37718 0.23575 0.0
H33 H 0.02487 0.38345 0.25142 0.0
H34 H 0.06498 0.38788 0.25138 0.0
H35 H 0.05452 0.39378 0.26702 0.0
H36 H 0.06497 0.40487 0.32289 0.0
H37 H 0.03593 0.41247 0.34079 0.0
H38 H 0.0249 0.40895 0.32469 0.0
H39 H 0.05382 0.40131 0.3066 0.0
C40 C 0.8969 0.75699 0.53531 0.0
C41 C 0.89746 0.75833 0.54654 0.0
C42 C 0.88713 0.74131 0.54912 0.0
C43 C 0.89274 0.7505 0.55339 0.0
C44 C 0.88728 0.74002 0.53776 0.0
C45 C 0.89208 0.74767 0.53107 0.0
U46 U 0.9059 0.78476 0.52109 0.0
O47 O 0.91443 0.78509 0.50534 0.0
O48 O 0.89708 0.79005 0.50642 0.0
C49 C 0.90558 0.78826 0.50027 0.0
C50 C 0.89998 0.76533 0.52742 0.0
C51 C 0.90521 0.78983 0.48844 0.0
C52 C 0.89937 0.7844 0.47028 0.0
C53 C 0.90076 0.782 0.48135 0.0
C54 C 0.90754 0.80206 0.47331 0.0
C55 C 0.90236 0.79468 0.4662 0.0
C56 C 0.90879 0.79973 0.48426 0.0
C57 C 0.91318 0.81037 0.54031 0.0
C58 C 0.91628 0.82988 0.53901 0.0
C59 C 0.91584 0.82128 0.55655 0.0
C60 C 0.9139 0.81125 0.55156 0.0
C61 C 0.91686 0.8309 0.55042 0.0
C62 C 0.91455 0.81973 0.53402 0.0
C63 C 0.91038 0.79961 0.53575 0.0
O64 O 0.8931 0.77329 0.52576 0.0
O65 O 0.91024 0.76802 0.52608 0.0
O66 O 0.91793 0.79362 0.53117 0.0
O67 O 0.90056 0.79803 0.53182 0.0
H68 H 0.90123 0.76552 0.54999 0.0
H69 H 0.8933 0.75198 0.56196 0.0
H70 H 0.88341 0.73338 0.5336 0.0
H71 H 0.89158 0.7465 0.5224 0.0
H72 H 0.89545 0.77845 0.46509 0.0
H73 H 0.89803 0.77421 0.48442 0.0
H74 H 0.9104 0.80989 0.47049 0.0
H75 H 0.91231 0.80583 0.48954 0.0
H76 H 0.9168 0.83689 0.53379 0.0
H77 H 0.91655 0.82129 0.56524 0.0
H78 H 0.91288 0.8041 0.55658 0.0
H79 H 0.91399 0.81924 0.5253 0.0
C80 C 0.48559 0.62072 0.75682 0.0
C81 C 0.47498 0.61661 0.75738 0.0
C82 C 0.46925 0.62808 0.74202 0.0
C83 C 0.46702 0.62003 0.74996 0.0
C84 C 0.48012 0.63164 0.74116 0.0
C85 C 0.48814 0.62796 0.74839 0.0
U86 U 0.49809 0.61123 0.78484 0.0
O87 O 0.51343 0.60211 0.78737 0.0
O88 O 0.512 0.61896 0.79319 0.0
C89 C 0.5181 0.61023 0.79257 0.0
C90 C 0.49421 0.61784 0.76482 0.0
C91 C 0.53011 0.6116 0.79219 0.0
C92 C 0.54726 0.61638 0.78346 0.0
C93 C 0.53592 0.61462 0.78289 0.0
C94 C 0.54709 0.61186 0.80246 0.0
C95 C 0.55298 0.61513 0.79331 0.0
C96 C 0.53586 0.61014 0.80189 0.0
C97 C 0.47718 0.6035 0.80851 0.0
C98 C 0.47881 0.60058 0.82798 0.0
C99 C 0.46098 0.60153 0.81978 0.0
C100 C 0.46582 0.60301 0.80964 0.0
C101 C 0.46739 0.60054 0.8291 0.0
C102 C 0.48368 0.60199 0.81775 0.0
C103 C 0.48157 0.60654 0.7977 0.0
O104 O 0.49545 0.62445 0.77308 0.0
O105 O 0.4954 0.60755 0.76751 0.0
O106 O 0.48665 0.59919 0.79188 0.0
O107 O 0.48561 0.61637 0.79654 0.0
H108 H 0.47279 0.61083 0.76361 0.0
H109 H 0.45906 0.61636 0.75067 0.0
H110 H 0.48244 0.63767 0.73524 0.0
H111 H 0.49634 0.63108 0.74763 0.0
H112 H 0.55154 0.6188 0.77621 0.0
H113 H 0.53171 0.61577 0.77529 0.0
H114 H 0.55109 0.61099 0.81021 0.0
H115 H 0.53156 0.60786 0.80918 0.0
H116 H 0.48394 0.6 0.83508 0.0
H117 H 0.4522 0.60181 0.82041 0.0
H118 H 0.46062 0.60423 0.80268 0.0
H119 H 0.49246 0.60235 0.81715 0.0
C120 C 0.62163 0.26089 0.03453 0.0
C121 C 0.61965 0.25952 0.04559 0.0
C122 C 0.62974 0.27627 0.04943 0.0
C123 C 0.62364 0.26722 0.05299 0.0
C124 C 0.6316 0.27759 0.03836 0.0
C125 C 0.62752 0.27 0.03099 0.0
U126 U 0.612 0.23315 0.0209 0.0
O127 O 0.6029 0.23231 1.00542 0.0
O128 O 0.62021 0.22717 1.00624 0.0
C129 C 0.61148 0.2286 1.00029 0.0
C130 C 0.61836 0.25286 0.02631 0.0
C131 C 0.61185 0.22746 0.98842 0.0
C132 C 0.61789 0.233 0.97042 0.0
C133 C 0.61639 0.23535 0.9815 0.0
C134 C 0.60959 0.21536 0.97316 0.0
C135 C 0.61493 0.22273 0.96625 0.0
C136 C 0.60823 0.21763 0.98408 0.0
C137 C 0.60502 0.20786 0.04066 0.0
C138 C 0.60103 0.18842 0.03962 0.0
C139 C 0.60312 0.19705 0.05706 0.0
C140 C 0.60501 0.20701 0.05195 0.0
C141 C 0.60125 0.18751 0.05103 0.0
C142 C 0.60289 0.19849 0.03448 0.0
C143 C 0.60779 0.21862 0.03597 0.0
O144 O 0.62506 0.24474 0.02467 0.0
O145 O 0.60805 0.25013 0.02537 0.0
O146 O 0.6002 0.22463 0.03147 0.0
O147 O 0.61752 0.22014 0.03188 0.0
H148 H 0.61517 0.25252 0.04849 0.0
H149 H 0.62209 0.26604 0.06152 0.0
H150 H 0.6361 0.28455 0.03539 0.0
H151 H 0.6291 0.27116 0.02246 0.0
H152 H 0.62192 0.23891 0.96532 0.0
H153 H 0.61916 0.24308 0.9847 0.0
H154 H 0.60686 0.2075 0.97023 0.0
H155 H 0.60467 0.21148 0.98925 0.0
H156 H 0.59973 0.1813 0.03462 0.0
H157 H 0.60311 0.19689 0.0658 0.0
H158 H 0.6066 0.21412 0.0569 0.0
H159 H 0.60286 0.19891 0.02575 0.0
C160 C 0.9891 0.61824 0.22945 0.0
C161 C 0.9863 0.61708 0.2185 0.0
C162 C 0.96707 0.61807 0.22325 0.0
C163 C 0.97529 0.61706 0.21542 0.0
C164 C 0.96994 0.61874 0.23417 0.0
C165 C 0.98086 0.61884 0.23722 0.0
U166 U 0.02147 0.61933 0.23052 0.0
O167 O 0.03032 0.63115 0.24062 0.0
O168 O 0.03076 0.61354 0.24474 0.0
C169 C 0.03403 0.62347 0.24701 0.0
C170 C 1.00034 0.61954 0.23332 0.0
C171 C 0.03907 0.62626 0.2574 0.0
C172 C 0.03929 0.63546 0.27478 0.0
C173 C 0.03354 0.63174 0.26567 0.0
C174 C 0.0558 0.62754 0.26766 0.0
C175 C 0.05061 0.63375 0.27569 0.0
C176 C 0.05011 0.62397 0.2586 0.0
C177 C 0.03781 0.61248 0.2031 0.0
C178 C 0.05621 0.61008 0.19624 0.0
C179 C 0.04077 0.60781 0.18426 0.0
C180 C 0.03376 0.61012 0.19277 0.0
C181 C 0.05202 0.60776 0.18589 0.0
C182 C 0.04912 0.61249 0.20485 0.0
C183 C 0.02968 0.61462 0.21156 0.0
O184 O 1.00627 0.61076 0.23457 0.0
O185 O 1.00589 0.62811 0.23016 0.0
O186 O 0.02768 0.62466 0.21464 0.0
O187 O 0.02773 0.60721 0.21896 0.0
H188 H 0.99255 0.61665 0.21237 0.0
H189 H 0.9732 0.61684 0.20691 0.0
H190 H 0.96377 0.61992 0.24029 0.0
H191 H 0.98289 0.61983 0.24569 0.0
H192 H 0.03493 0.64018 0.28074 0.0
H193 H 0.02495 0.63349 0.26491 0.0
H194 H 0.06436 0.62559 0.26819 0.0
H195 H 0.05446 0.61966 0.25231 0.0
H196 H 0.06491 0.61 0.19764 0.0
H197 H 0.03738 0.60591 0.17638 0.0
H198 H 0.02507 0.61 0.19129 0.0
H199 H 0.05243 0.61426 0.21277 0.0
C200 C 0.62326 0.75508 0.48483 0.0
C201 C 0.62162 0.75699 0.47379 0.0
C202 C 0.63103 0.73997 0.46927 0.0
C203 C 0.62547 0.74952 0.4661 0.0
C204 C 0.63254 0.73808 0.48035 0.0
C205 C 0.62867 0.74554 0.48801 0.0
U206 U 0.61343 0.78293 0.49777 0.0
O207 O 0.60451 0.78483 0.51318 0.0
O208 O 0.62141 0.79075 0.51176 0.0
C209 C 0.61271 0.7899 0.51784 0.0
C210 C 0.62015 0.76301 0.49332 0.0
C211 C 0.61391 0.78989 0.52976 0.0
C212 C 0.61751 0.78155 0.54729 0.0
C213 C 0.61634 0.78064 0.53597 0.0
C214 C 0.61369 0.80081 0.54617 0.0
C215 C 0.61626 0.79171 0.55255 0.0
C216 C 0.61261 0.7999 0.53499 0.0
C217 C 0.60572 0.80732 0.47763 0.0
C218 C 0.60138 0.82663 0.47929 0.0
C219 C 0.60399 0.81872 0.46165 0.0
C220 C 0.60586 0.80861 0.46643 0.0
C221 C 0.6019 0.82813 0.4679 0.0
C222 C 0.6033 0.81638 0.48408 0.0
C223 C 0.60871 0.79643 0.48189 0.0
O224 O 0.62669 0.77135 0.49469 0.0
O225 O 0.60983 0.76556 0.49444 0.0
O226 O 0.60133 0.79045 0.48679 0.0
O227 O 0.61856 0.79514 0.48579 0.0
H228 H 0.61755 0.76431 0.4711 0.0
H229 H 0.62427 0.75137 0.45763 0.0
H230 H 0.63663 0.73081 0.48312 0.0
H231 H 0.63004 0.74391 0.4965 0.0
H232 H 0.61959 0.77435 0.55187 0.0
H233 H 0.61741 0.7728 0.53212 0.0
H234 H 0.61236 0.80871 0.5498 0.0
H235 H 0.61069 0.80713 0.53037 0.0
H236 H 0.59968 0.83326 0.48473 0.0
H237 H 0.60443 0.81885 0.45298 0.0
H238 H 0.60766 0.80173 0.46126 0.0
H239 H 0.60308 0.81561 0.4928 0.0
C240 C 0.53001 0.39758 0.72992 0.0
C241 C 0.53227 0.39952 0.719 0.0
C242 C 0.55174 0.3988 0.72292 0.0
C243 C 0.5431 0.40014 0.71552 0.0
C244 C 0.54934 0.39685 0.73382 0.0
C245 C 0.53859 0.39627 0.73726 0.0
U246 U 0.49784 0.39853 0.73196 0.0
O247 O 0.48893 0.38721 0.74249 0.0
O248 O 0.48964 0.40485 0.74664 0.0
C249 C 0.4866 0.39499 0.74941 0.0
C250 C 0.51896 0.3968 0.73423 0.0
C251 C 0.48076 0.39255 0.75948 0.0
C252 C 0.4778 0.38134 0.77544 0.0
C253 C 0.48426 0.38433 0.76658 0.0
C254 C 0.4651 0.39563 0.77082 0.0
C255 C 0.46779 0.38654 0.77721 0.0
C256 C 0.47144 0.39849 0.76196 0.0
C257 C 0.48168 0.40766 0.70488 0.0
C258 C 0.46345 0.40873 0.69728 0.0
C259 C 0.47895 0.41366 0.68631 0.0
C260 C 0.48585 0.41144 0.69502 0.0
C261 C 0.46771 0.41212 0.68727 0.0
C262 C 0.47038 0.40656 0.70607 0.0
C263 C 0.48959 0.40454 0.71332 0.0
O264 O 0.51367 0.40592 0.73586 0.0
O265 O 0.51276 0.38873 0.73092 0.0
O266 O 0.49067 0.39426 0.7161 0.0
O267 O 0.4923 0.41152 0.72092 0.0
H268 H 0.52572 0.40054 0.71323 0.0
H269 H 0.54471 0.40155 0.70704 0.0
H270 H 0.55578 0.39595 0.73973 0.0
H271 H 0.53695 0.3948 0.74573 0.0
H272 H 0.48016 0.3744 0.78029 0.0
H273 H 0.49169 0.37989 0.76498 0.0
H274 H 0.45757 0.39999 0.77214 0.0
H275 H 0.46875 0.40502 0.75673 0.0
H276 H 0.4548 0.40726 0.69811 0.0
H277 H 0.48247 0.41594 0.67862 0.0
H278 H 0.49455 0.41229 0.69392 0.0
H279 H 0.46698 0.40366 0.71359 0.0
C280 C 0.90075 0.22559 0.03071 0.0
C281 C 0.90278 0.2156 0.03566 0.0
C282 C 0.90129 0.22381 0.05349 0.0
C283 C 0.90317 0.21472 0.04685 0.0
C284 C 0.89917 0.23393 0.04849 0.0
C285 C 0.89896 0.23483 0.03715 0.0
U286 U 0.90011 0.23102 0.99843 0.0
O287 O 0.90453 0.248 0.9946 0.0
O288 O 0.88741 0.24293 0.99432 0.0
C289 C 0.89438 0.25097 0.99316 0.0
C290 C 0.90101 0.22573 0.01884 0.0
C291 C 0.89205 0.25903 0.98465 0.0
C292 C 0.88562 0.27723 0.98005 0.0
C293 C 0.88832 0.26935 0.98777 0.0
C294 C 0.89021 0.26441 0.96594 0.0
C295 C 0.88649 0.27491 0.96896 0.0
C296 C 0.89308 0.25663 0.97367 0.0
C297 C 0.90799 0.20568 0.9792 0.0
C298 C 0.91086 0.19463 0.9631 0.0
C299 C 0.91411 0.18684 0.98074 0.0
C300 C 0.91117 0.1968 0.98563 0.0
C301 C 0.91393 0.18561 0.96936 0.0
C302 C 0.9079 0.20444 0.96795 0.0
C303 C 0.90478 0.2165 0.98347 0.0
O304 O 0.90934 0.22996 0.01369 0.0
O305 O 0.89205 0.22473 0.0131 0.0
O306 O 0.89493 0.21787 0.98732 0.0
O307 O 0.91215 0.2228 0.988 0.0
H308 H 0.90425 0.20841 0.0308 0.0
H309 H 0.90513 0.20686 0.05024 0.0
H310 H 0.89753 0.24111 0.05329 0.0
H311 H 0.89738 0.24266 0.03346 0.0
H312 H 0.88289 0.2851 0.98284 0.0
H313 H 0.88744 0.27132 0.99625 0.0
H314 H 0.89062 0.26192 0.95757 0.0
H315 H 0.89584 0.24869 0.97107 0.0
H316 H 0.91083 0.1942 0.95437 0.0
H317 H 0.91633 0.18007 0.98587 0.0
H318 H 0.91134 0.19753 0.99435 0.0
H319 H 0.90556 0.21118 0.96283 0.0
C320 C 0.25757 0.03539 0.39738 0.0
C321 C 0.2598 0.0465 0.39878 0.0
C322 C 0.24335 0.05108 0.38866 0.0
C323 C 0.25271 0.0543 0.39445 0.0
C324 C 0.24077 0.04 0.38798 0.0
C325 C 0.24785 0.03223 0.39228 0.0
U326 U 0.28568 0.02136 0.4047 0.0
O327 O 0.28744 1.00552 0.41301 0.0
O328 O 0.29166 1.00713 0.39562 0.0
C329 C 0.29112 1.00086 0.40418 0.0
C330 C 0.26555 0.02677 0.39981 0.0
C331 C 0.29242 0.989 0.4033 0.0
C332 C 0.28585 0.97072 0.39929 0.0
C333 C 0.28392 0.98196 0.40022 0.0
C334 C 0.30466 0.97363 0.40442 0.0
C335 C 0.29625 0.96651 0.40146 0.0
C336 C 0.30276 0.98475 0.4053 0.0
C337 C 0.31105 0.04145 0.4107 0.0
C338 C 0.33057 0.04087 0.41418 0.0
C339 C 0.32157 0.05821 0.41191 0.0
C340 C 0.31168 0.05284 0.41041 0.0
C341 C 0.33111 0.0523 0.41371 0.0
C342 C 0.32057 0.03543 0.41264 0.0
C343 C 0.30025 0.03657 0.40851 0.0
O344 O 0.27322 0.02529 0.39262 0.0
O345 O 0.26894 0.02547 0.40981 0.0
O346 O 0.29481 0.03172 0.41627 0.0
O347 O 0.29814 0.0328 0.39879 0.0
H348 H 0.26726 0.04913 0.40268 0.0
H349 H 0.25486 0.06284 0.39501 0.0
H350 H 0.23373 0.0373 0.38341 0.0
H351 H 0.24602 0.02369 0.39107 0.0
H352 H 0.27921 0.9653 0.39715 0.0
H353 H 0.27586 0.98512 0.39861 0.0
H354 H 0.31272 0.97054 0.40619 0.0
H355 H 0.30942 0.99008 0.40759 0.0
H356 H 0.33786 0.03619 0.41578 0.0
H357 H 0.32177 0.06702 0.4117 0.0
H358 H 0.30444 0.05763 0.40896 0.0
H359 H 0.32029 0.02663 0.41293 0.0
C360 C 0.22904 0.98763 0.62111 0.0
C361 C 0.21817 0.98515 0.61866 0.0
C362 C 0.22236 0.96584 0.62001 0.0
C363 C 0.21486 0.97424 0.61803 0.0
C364 C 0.23315 0.96842 0.62254 0.0
C365 C 0.23646 0.97923 0.62302 0.0
U366 U 0.23096 0.01984 0.62071 0.0
O367 O 0.24116 0.02842 0.6327 0.0
O368 O 0.24577 0.02837 0.61526 0.0
C369 C 0.24827 0.03106 0.62524 0.0
C370 C 0.23324 0.99873 0.62189 0.0
C371 C 0.25799 0.03739 0.62779 0.0
C372 C 0.27603 0.03875 0.63573 0.0
C373 C 0.26702 0.03245 0.63268 0.0
C374 C 0.26695 0.05482 0.62881 0.0
C375 C 0.27601 0.05 0.63383 0.0
C376 C 0.25803 0.04855 0.62578 0.0
C377 C 0.20358 0.03623 0.61329 0.0
C378 C 0.19661 0.05454 0.61072 0.0
C379 C 0.18458 0.039 0.60877 0.0
C380 C 0.1932 0.03206 0.61105 0.0
C381 C 0.1862 0.05026 0.60858 0.0
C382 C 0.2053 0.04753 0.61315 0.0
C383 C 0.21213 0.02826 0.61565 0.0
O384 O 0.23468 1.0042 0.6129 0.0
O385 O 0.23006 1.00471 0.63009 0.0
O386 O 0.21511 0.02649 0.6257 0.0
O387 O 0.21962 0.02613 0.60838 0.0
H388 H 0.21234 0.99158 0.6172 0.0
H389 H 0.20647 0.97234 0.61606 0.0
H390 H 0.23906 0.96206 0.62397 0.0
H391 H 0.24488 0.98105 0.62491 0.0
H392 H 0.28297 0.03487 0.63949 0.0
H393 H 0.26705 0.02378 0.63424 0.0
H394 H 0.26671 0.06351 0.62738 0.0
H395 H 0.25107 0.05245 0.62206 0.0
H396 H 0.19797 0.06325 0.61055 0.0
H397 H 0.17665 0.03556 0.60701 0.0
H398 H 0.19176 0.02336 0.61108 0.0
H399 H 0.21327 0.05089 0.61485 0.0
C400 C 0.23022 0.02911 0.89807 0.0
C401 C 0.21949 0.03196 0.90058 0.0
C402 C 0.22432 0.05112 0.899 0.0
C403 C 0.21657 0.04296 0.90112 0.0
C404 C 0.23498 0.0482 0.89639 0.0
C405 C 0.23791 0.03727 0.89599 0.0
U406 U 0.23331 0.99662 0.89879 0.0
O407 O 0.24372 0.98896 0.88645 0.0
O408 O 0.24904 0.98957 0.90365 0.0
C409 C 0.25138 0.98708 0.8936 0.0
C410 C 0.23392 0.01783 0.89749 0.0
C411 C 0.2607 0.98027 0.89101 0.0
C412 C 0.27851 0.97879 0.88278 0.0
C413 C 0.2698 0.98516 0.88622 0.0
C414 C 0.26922 0.96265 0.88931 0.0
C415 C 0.27818 0.96751 0.88421 0.0
C416 C 0.26046 0.96902 0.89266 0.0
C417 C 0.20652 0.97938 0.90771 0.0
C418 C 0.19655 0.96234 0.9093 0.0
C419 C 0.18769 0.97945 0.91338 0.0
C420 C 0.19731 0.98506 0.91115 0.0
C421 C 0.18716 0.96808 0.91226 0.0
C422 C 0.20618 0.96799 0.90698 0.0
C423 C 0.2163 0.98537 0.90444 0.0
O424 O 0.23602 0.01257 0.90649 0.0
O425 O 0.23058 0.01163 0.88948 0.0
O426 O 0.21815 0.988 0.89432 0.0
O427 O 0.22333 0.9891 0.91157 0.0
H428 H 0.21346 0.02573 0.90218 0.0
H429 H 0.20829 0.04513 0.90315 0.0
H430 H 0.24108 0.05438 0.89483 0.0
H431 H 0.24624 0.03517 0.89406 0.0
H432 H 0.28542 0.98264 0.87895 0.0
H433 H 0.27007 0.99387 0.88494 0.0
H434 H 0.26892 0.95392 0.89047 0.0
H435 H 0.25345 0.96517 0.89633 0.0
H436 H 0.19627 0.95359 0.90821 0.0
H437 H 0.18051 0.98403 0.91557 0.0
H438 H 0.19745 0.99385 0.91176 0.0
H439 H 0.21325 0.9635 0.90431 0.0
C440 C 0.2564 0.98512 0.12282 0.0
C441 C 0.25878 0.97405 0.12178 0.0
C442 C 0.2413 0.96913 0.13019 0.0
C443 C 0.25141 0.96619 0.1255 0.0
C444 C 0.23894 0.98029 0.13104 0.0
C445 C 0.24642 0.98815 0.12743 0.0
U446 U 0.28449 0.99777 0.11349 0.0
O447 O 0.28685 0.01342 0.1049 0.0
O448 O 0.29265 0.01151 0.12167 0.0
C449 C 0.292 0.01783 0.11315 0.0
C450 C 0.26441 0.99372 0.12003 0.0
C451 C 0.29222 0.02981 0.1146 0.0
C452 C 0.28428 0.04755 0.11871 0.0
C453 C 0.28315 0.03616 0.11747 0.0
C454 C 0.30339 0.04619 0.11431 0.0
C455 C 0.29445 0.05261 0.11713 0.0
C456 C 0.30228 0.03496 0.1131 0.0
C457 C 0.30845 0.97712 0.10542 0.0
C458 C 0.32804 0.97871 0.10237 0.0
C459 C 0.31975 0.96089 0.10359 0.0
C460 C 0.30957 0.96576 0.10505 0.0
C461 C 0.32913 0.96728 0.10246 0.0
C462 C 0.31776 0.98361 0.10379 0.0
C463 C 0.29759 0.98151 0.10847 0.0
O464 O 0.27278 0.99474 0.12656 0.0
O465 O 0.26704 0.99503 0.10982 0.0
O466 O 0.29174 0.98674 0.10126 0.0
O467 O 0.29637 0.98528 0.11832 0.0
H468 H 0.26647 0.97147 0.11839 0.0
H469 H 0.25394 0.95779 0.12499 0.0
H470 H 0.23134 0.98302 0.13449 0.0
H471 H 0.24445 0.99668 0.1284 0.0
H472 H 0.27722 0.0524 0.12072 0.0
H473 H 0.27529 0.03239 0.11868 0.0
H474 H 0.31125 0.04991 0.1129 0.0
H475 H 0.30937 0.03024 0.11089 0.0
H476 H 0.3352 0.98381 0.10171 0.0
H477 H 0.32037 0.95211 0.10398 0.0
H478 H 0.30256 0.96057 0.10637 0.0
H479 H 0.31717 0.9924 0.10406 0.0
C480 C 0.39678 0.25757 0.03467 0.0
C481 C 0.39656 0.25957 0.04585 0.0
C482 C 0.38716 0.24209 0.04892 0.0
C483 C 0.39178 0.25192 0.05291 0.0
C484 C 0.38846 0.23993 0.03778 0.0
C485 C 0.39295 0.2476 0.03082 0.0
U486 U 0.40574 0.28557 0.02107 0.0
O487 O 0.41467 0.28727 1.00567 0.0
O488 O 0.39747 0.29239 1.00683 0.0
C489 C 0.40628 0.29182 1.00088 0.0
C490 C 0.39981 0.26572 0.02642 0.0
C491 C 0.40526 0.29168 0.98904 0.0
C492 C 0.40129 0.28319 0.97169 0.0
C493 C 0.40244 0.28242 0.98299 0.0
C494 C 0.40598 0.30232 0.97258 0.0
C495 C 0.40299 0.29321 0.96634 0.0
C496 C 0.407 0.30156 0.98374 0.0
C497 C 0.41199 0.31045 0.04132 0.0
C498 C 0.41592 0.32995 0.04159 0.0
C499 C 0.41221 0.32027 0.05821 0.0
C500 C 0.41094 0.31066 0.05251 0.0
C501 C 0.41494 0.33002 0.05295 0.0
C502 C 0.41441 0.32016 0.03576 0.0
C503 C 0.40966 0.29989 0.03622 0.0
O504 O 0.39292 0.27368 0.0247 0.0
O505 O 0.41005 0.26859 0.02527 0.0
O506 O 0.41745 0.29417 0.03171 0.0
O507 O 0.3999 0.29809 0.0323 0.0
H508 H 0.39961 0.2672 0.04905 0.0
H509 H 0.39131 0.25405 0.06136 0.0
H510 H 0.38593 0.23236 0.03415 0.0
H511 H 0.39316 0.2458 0.02225 0.0
H512 H 0.39887 0.27601 0.96722 0.0
H513 H 0.40101 0.27471 0.98696 0.0
H514 H 0.40767 0.3101 0.96886 0.0
H515 H 0.40919 0.30879 0.98829 0.0
H516 H 0.418 0.33734 0.03731 0.0
H517 H 0.41103 0.32001 0.06688 0.0
H518 H 0.40891 0.30332 0.05692 0.0
H519 H 0.41512 0.32017 0.02704 0.0
C520 C 0.02929 0.89835 0.22854 0.0
C521 C 0.03384 0.89822 0.21821 0.0
C522 C 0.05214 0.89842 0.22599 0.0
C523 C 0.04514 0.89819 0.21692 0.0
C524 C 0.04736 0.89878 0.23636 0.0
C525 C 0.03608 0.89861 0.2376 0.0
U526 U 0.99645 0.89851 0.23218 0.0
O527 O 0.9903 0.88593 0.24329 0.0
O528 O 0.99082 0.90315 0.24847 0.0
C529 C 0.98889 0.89299 0.25114 0.0
C530 C 0.01747 0.89841 0.22989 0.0
C531 C 0.98133 0.89044 0.25997 0.0
C532 C 0.97928 0.88333 0.27815 0.0
C533 C 0.98589 0.88682 0.26969 0.0
C534 C 0.96332 0.88739 0.26739 0.0
C535 C 0.96794 0.88335 0.27702 0.0
C536 C 0.96999 0.89094 0.25889 0.0
C537 C 0.97828 0.90734 0.20626 0.0
C538 C 0.96149 0.90947 0.19612 0.0
C539 C 0.9788 0.91267 0.18736 0.0
C540 C 0.98426 0.91034 0.19708 0.0
C541 C 0.96739 0.9121 0.18682 0.0
C542 C 0.9669 0.90712 0.20574 0.0
C543 C 0.98337 0.90396 0.21647 0.0
O544 O 0.01223 0.90708 0.23325 0.0
O545 O 0.01146 0.88987 0.22754 0.0
O546 O 0.98664 0.89388 0.2179 0.0
O547 O 0.98759 0.91116 0.22312 0.0
H548 H 0.02866 0.89807 0.21112 0.0
H549 H 0.04826 0.89771 0.20879 0.0
H550 H 0.05222 0.89934 0.24362 0.0
H551 H 0.03266 0.89876 0.24565 0.0
H552 H 0.98309 0.88019 0.2854 0.0
H553 H 0.99464 0.88638 0.27064 0.0
H554 H 0.95457 0.88761 0.26638 0.0
H555 H 0.96632 0.89378 0.25145 0.0
H556 H 0.95273 0.90864 0.19579 0.0
H557 H 0.98348 0.91438 0.18016 0.0
H558 H 0.99306 0.91052 0.19731 0.0
H559 H 0.96218 0.90477 0.21275 0.0
C560 C 0.12079 0.76132 0.53471 0.0
C561 C 0.1197 0.76027 0.54594 0.0
C562 C 0.13 0.7772 0.54855 0.0
C563 C 0.12418 0.76824 0.55283 0.0
C564 C 0.13077 0.77812 0.53725 0.0
C565 C 0.12611 0.77039 0.53048 0.0
U566 U 0.1117 0.73337 0.52074 0.0
O567 O 0.10306 0.73293 0.50501 0.0
O568 O 0.12042 0.72795 0.5061 0.0
C569 C 0.11187 0.72966 0.49996 0.0
C570 C 0.11765 0.7529 0.52687 0.0
C571 C 0.11222 0.72817 0.48813 0.0
C572 C 0.11778 0.73384 0.47001 0.0
C573 C 0.11623 0.73622 0.48106 0.0
C574 C 0.11064 0.71574 0.47303 0.0
C575 C 0.1154 0.72338 0.46598 0.0
C576 C 0.10921 0.71806 0.48395 0.0
C577 C 0.10468 0.70775 0.53999 0.0
C578 C 0.10173 0.68819 0.53871 0.0
C579 C 0.10208 0.69688 0.55623 0.0
C580 C 0.10393 0.7069 0.55124 0.0
C581 C 0.10115 0.6872 0.55012 0.0
C582 C 0.10339 0.69834 0.53371 0.0
C583 C 0.1074 0.71854 0.53543 0.0
O584 O 0.12453 0.74493 0.52527 0.0
O585 O 0.10738 0.75015 0.52564 0.0
O586 O 0.09979 0.7245 0.53087 0.0
O587 O 0.11717 0.72018 0.53149 0.0
H588 H 0.11562 0.75326 0.54936 0.0
H589 H 0.1232 0.76728 0.56146 0.0
H590 H 0.1354 0.78455 0.53346 0.0
H591 H 0.12712 0.77126 0.52182 0.0
H592 H 0.12141 0.73992 0.46482 0.0
H593 H 0.11856 0.74414 0.48415 0.0
H594 H 0.10845 0.70768 0.4702 0.0
H595 H 0.10608 0.71178 0.48924 0.0
H596 H 0.10127 0.68114 0.53351 0.0
H597 H 0.10136 0.69689 0.56491 0.0
H598 H 0.10488 0.71408 0.55625 0.0
H599 H 0.10396 0.69878 0.52499 0.0
C600 C 0.98089 0.6586 0.78008 0.0
C601 C 0.97059 0.66124 0.78411 0.0
C602 C 0.97614 0.65499 0.80191 0.0
C603 C 0.96824 0.65953 0.79505 0.0
C604 C 0.98662 0.65301 0.79791 0.0
C605 C 0.98897 0.6548 0.78708 0.0
U606 U 0.98408 0.65739 0.74759 0.0
O607 O 0.99435 0.6438 0.74225 0.0
O608 O 1.00055 0.66056 0.74103 0.0
C609 C 1.00269 0.65011 0.74011 0.0
C610 C 0.983 0.658 0.76852 0.0
C611 C 0.01043 0.64637 0.73187 0.0
C612 C 0.0283 0.63878 0.72768 0.0
C613 C 0.02093 0.6432 0.73512 0.0
C614 C 0.01456 0.64042 0.71375 0.0
C615 C 0.02525 0.63742 0.71681 0.0
C616 C 1.00731 0.64497 0.72113 0.0
C617 C 0.95732 0.665 0.72948 0.0
C618 C 0.94949 0.66878 0.7119 0.0
C619 C 0.93764 0.66654 0.72731 0.0
C620 C 0.94682 0.66501 0.73392 0.0
C621 C 0.93884 0.66803 0.71609 0.0
C622 C 0.95859 0.66717 0.71848 0.0
C623 C 0.96691 0.66224 0.73612 0.0
O624 O 0.98017 0.64936 0.76294 0.0
O625 O 0.98585 0.66659 0.76286 0.0
O626 O 0.97455 0.66943 0.73831 0.0
O627 O 0.96877 0.6523 0.73955 0.0
H628 H 0.96426 0.66408 0.77872 0.0
H629 H 0.96009 0.66108 0.79796 0.0
H630 H 0.99288 0.64962 0.80307 0.0
H631 H 0.99694 0.65264 0.78404 0.0
H632 H 0.03636 0.63655 0.73042 0.0
H633 H 0.0234 0.64405 0.74349 0.0
H634 H 0.01158 0.63908 0.70563 0.0
H635 H 0.99919 0.64713 0.71851 0.0
H636 H 0.95084 0.67033 0.7034 0.0
H637 H 0.92963 0.66598 0.73089 0.0
H638 H 0.9457 0.66349 0.74246 0.0
H639 H 0.96662 0.66732 0.71489 0.0
C640 C 0.15431 0.27775 0.48371 0.0
C641 C 0.15552 0.28185 0.47325 0.0
C642 C 0.1511 0.30023 0.47968 0.0
C643 C 0.1539 0.29297 0.47123 0.0
C644 C 0.15064 0.29595 0.49026 0.0
C645 C 0.15203 0.28487 0.49219 0.0
U646 U 0.15511 0.24485 0.48629 0.0
O647 O 0.15891 0.23777 0.50232 0.0
O648 O 0.14198 0.2378 0.49607 0.0
C649 C 0.14858 0.23567 0.50413 0.0
C650 C 0.15435 0.26605 0.486 0.0
C651 C 0.14509 0.22834 0.51279 0.0
C652 C 0.13729 0.22666 0.5307 0.0
C653 C 0.1419 0.23303 0.52259 0.0
C654 C 0.13933 0.21067 0.51941 0.0
C655 C 0.13581 0.21542 0.52917 0.0
C656 C 0.1439 0.2171 0.51124 0.0
C657 C 0.16347 0.22757 0.45957 0.0
C658 C 0.16363 0.2108 0.44915 0.0
C659 C 0.16727 0.22804 0.44039 0.0
C660 C 0.16608 0.23345 0.45026 0.0
C661 C 0.16561 0.2167 0.43962 0.0
C662 C 0.16259 0.21622 0.45903 0.0
C663 C 0.1604 0.23312 0.46959 0.0
O664 O 0.14616 0.25992 0.48289 0.0
O665 O 0.16328 0.2608 0.4886 0.0
O666 O 0.1677 0.23651 0.47662 0.0
O667 O 0.1504 0.23645 0.47123 0.0
H668 H 0.15733 0.27642 0.4666 0.0
H669 H 0.15444 0.29562 0.46294 0.0
H670 H 0.14918 0.301 0.49723 0.0
H671 H 0.15111 0.28183 0.50035 0.0
H672 H 0.13457 0.23062 0.53803 0.0
H673 H 0.14266 0.24172 0.52385 0.0
H674 H 0.13846 0.202 0.51806 0.0
H675 H 0.14629 0.21337 0.50368 0.0
H676 H 0.16227 0.2021 0.44892 0.0
H677 H 0.16915 0.23282 0.43329 0.0
H678 H 0.16682 0.24223 0.45054 0.0
H679 H 0.16056 0.21158 0.46619 0.0
C680 C 0.50816 0.37758 0.23471 0.0
C681 C 0.51013 0.37703 0.22354 0.0
C682 C 0.49176 0.38395 0.21983 0.0
C683 C 0.50195 0.38012 0.21615 0.0
C684 C 0.49002 0.38436 0.23107 0.0
C685 C 0.49802 0.38111 0.23833 0.0
U686 U 0.53621 0.36865 0.24769 0.0
O687 O 0.54357 0.37601 0.26226 0.0
O688 O 0.53804 0.3589 0.26256 0.0
C689 C 0.5428 0.36692 0.26778 0.0
C690 C 0.51633 0.37503 0.2431 0.0
C691 C 0.54232 0.36733 0.27969 0.0
C692 C 0.53414 0.37197 0.29704 0.0
C693 C 0.53362 0.37171 0.28565 0.0
C694 C 0.55185 0.36341 0.29642 0.0
C695 C 0.54329 0.36776 0.30247 0.0
C696 C 0.55137 0.36323 0.2852 0.0
C697 C 0.55982 0.35999 0.2271 0.0
C698 C 0.5793 0.35629 0.22753 0.0
C699 C 0.56953 0.35579 0.21054 0.0
C700 C 0.5599 0.35823 0.21592 0.0
C701 C 0.57936 0.35501 0.21622 0.0
C702 C 0.56955 0.35875 0.23299 0.0
C703 C 0.54945 0.36372 0.23181 0.0
O704 O 0.51896 0.36479 0.24457 0.0
O705 O 0.52455 0.38179 0.24427 0.0
O706 O 0.54892 0.3735 0.23609 0.0
O707 O 0.54302 0.35656 0.23641 0.0
H708 H 0.51793 0.37431 0.22056 0.0
H709 H 0.50367 0.37951 0.2076 0.0
H710 H 0.4826 0.38756 0.23445 0.0
H711 H 0.49636 0.38164 0.24691 0.0
H712 H 0.5274 0.37529 0.30159 0.0
H713 H 0.52654 0.37492 0.28155 0.0
H714 H 0.559 0.36018 0.3004 0.0
H715 H 0.55817 0.35987 0.28076 0.0
H716 H 0.58686 0.35605 0.23203 0.0
H717 H 0.56942 0.35519 0.20181 0.0
H718 H 0.55252 0.35922 0.21123 0.0
H719 H 0.56969 0.3601 0.24163 0.0
C720 C 0.36212 0.73776 0.97785 0.0
C721 C 0.3585 0.73235 0.96857 0.0
C722 C 0.36529 0.71495 0.97533 0.0
C723 C 0.35993 0.72115 0.96736 0.0
C724 C 0.36867 0.72046 0.98486 0.0
C725 C 0.36706 0.73173 0.98611 0.0
U726 U 0.36194 0.77049 0.98284 0.0
O727 O 0.35777 0.77539 0.99959 0.0
O728 O 0.37483 0.77483 0.99445 0.0
C729 C 0.36802 0.77655 1.00242 0.0
C730 C 0.36135 0.74975 0.97794 0.0
C731 C 0.37112 0.78483 0.01061 0.0
C732 C 0.38056 0.78841 0.02767 0.0
C733 C 0.37585 0.78113 0.02029 0.0
C734 C 0.3752 0.80339 0.0162 0.0
C735 C 0.38068 0.7996 0.0255 0.0
C736 C 0.37051 0.79608 0.00877 0.0
C737 C 0.35521 0.78942 0.95697 0.0
C738 C 0.35514 0.80547 0.94546 0.0
C739 C 0.35156 0.78777 0.93765 0.0
C740 C 0.35274 0.78294 0.94792 0.0
C741 C 0.35308 0.79912 0.9362 0.0
C742 C 0.35609 0.80069 0.95563 0.0
C743 C 0.35779 0.7851 0.96787 0.0
O744 O 0.37017 0.75571 0.97702 0.0
O745 O 0.3529 0.75484 0.98201 0.0
O746 O 0.35015 0.78076 0.97391 0.0
O747 O 0.36754 0.78118 0.96969 0.0
H748 H 0.35468 0.73686 0.96209 0.0
H749 H 0.35675 0.71749 0.96008 0.0
H750 H 0.37293 0.71626 0.99124 0.0
H751 H 0.36996 0.73575 0.99336 0.0
H752 H 0.38478 0.78522 0.03467 0.0
H753 H 0.3764 0.77248 0.02187 0.0
H754 H 0.37511 0.81201 0.01436 0.0
H755 H 0.36688 0.79917 1.00141 0.0
H756 H 0.35654 0.81413 0.94489 0.0
H757 H 0.34964 0.78256 0.93085 0.0
H758 H 0.35194 0.7742 0.94873 0.0
H759 H 0.35799 0.80584 0.96249 0.0
C760 C 1.00796 0.37436 0.78383 0.0
C761 C 1.00556 0.37612 0.79479 0.0
C762 C 0.02463 0.38097 0.79837 0.0
C763 C 0.01383 0.37944 0.80201 0.0
C764 C 0.02695 0.37833 0.78753 0.0
C765 C 0.01873 0.37529 0.78038 0.0
U766 U 0.97953 0.36629 0.77112 0.0
O767 O 0.97222 0.37334 0.75642 0.0
O768 O 0.97715 0.35611 0.75658 0.0
C769 C 0.97264 0.36408 0.75112 0.0
C770 C 0.9997 0.37204 0.77543 0.0
C771 C 0.97358 0.36426 0.7392 0.0
C772 C 0.98292 0.36763 0.72214 0.0
C773 C 0.98304 0.36725 0.73354 0.0
C774 C 0.96407 0.36189 0.72213 0.0
C775 C 0.97332 0.36515 0.71634 0.0
C776 C 0.96423 0.36146 0.73337 0.0
C777 C 0.95552 0.35939 0.79162 0.0
C778 C 0.93644 0.35427 0.78999 0.0
C779 C 0.94476 0.35591 0.80769 0.0
C780 C 0.95461 0.35868 0.80287 0.0
C781 C 0.9356 0.3537 0.80132 0.0
C782 C 0.94637 0.35716 0.78513 0.0
C783 C 0.96625 0.36254 0.78731 0.0
O784 O 0.99664 0.36187 0.7741 0.0
O785 O 0.99176 0.37907 0.77416 0.0
O786 O 0.96726 0.37213 0.78272 0.0
O787 O 0.9723 0.35496 0.78289 0.0
H788 H 0.99729 0.37531 0.79768 0.0
H789 H 0.01161 0.38129 0.81026 0.0
H790 H 0.03513 0.37877 0.78439 0.0
H791 H 0.02079 0.37383 0.772 0.0
H792 H 0.99017 0.37019 0.71788 0.0
H793 H 0.99039 0.36942 0.73788 0.0
H794 H 0.95662 0.35975 0.71795 0.0
H795 H 0.95687 0.35907 0.73756 0.0
H796 H 0.9294 0.3526 0.78497 0.0
H797 H 0.94428 0.35549 0.81641 0.0
H798 H 0.96157 0.36035 0.808 0.0
H799 H 0.9469 0.35767 0.77642 0.0
C800 C 0.36431 0.28012 0.53877 0.0
C801 C 0.36062 0.28554 0.548 0.0
C802 C 0.36753 0.30296 0.54132 0.0
C803 C 0.3621 0.29676 0.54923 0.0
C804 C 0.37103 0.29743 0.53188 0.0
C805 C 0.3694 0.28616 0.53061 0.0
U806 U 0.36385 0.24732 0.53378 0.0
O807 O 0.3599 0.24244 0.51695 0.0
O808 O 0.37687 0.24272 0.52251 0.0
C809 C 0.37018 0.2411 0.51437 0.0
C810 C 0.36343 0.26811 0.53859 0.0
C811 C 0.37328 0.23287 0.50614 0.0
C812 C 0.38248 0.22953 0.48896 0.0
C813 C 0.37771 0.23669 0.49639 0.0
C814 C 0.3778 0.21443 0.50057 0.0
C815 C 0.38295 0.21836 0.49116 0.0
C816 C 0.37303 0.22162 0.50803 0.0
C817 C 0.35618 0.22822 0.55933 0.0
C818 C 0.3542 0.21175 0.57014 0.0
C819 C 0.35424 0.22937 0.57888 0.0
C820 C 0.35534 0.23451 0.56878 0.0
C821 C 0.354 0.2179 0.57968 0.0
C822 C 0.35529 0.21686 0.56011 0.0
C823 C 0.35912 0.23274 0.54862 0.0
O824 O 0.37216 0.26209 0.53972 0.0
O825 O 0.35499 0.26306 0.53435 0.0
O826 O 0.35169 0.23711 0.54233 0.0
O827 O 0.36894 0.23669 0.54718 0.0
H828 H 0.35669 0.28103 0.55441 0.0
H829 H 0.35888 0.30045 0.55647 0.0
H830 H 0.3754 0.30163 0.52557 0.0
H831 H 0.37237 0.28214 0.52341 0.0
H832 H 0.38648 0.23283 0.48189 0.0
H833 H 0.37801 0.24534 0.49477 0.0
H834 H 0.37804 0.20583 0.50245 0.0
H835 H 0.36965 0.21844 0.51546 0.0
H836 H 0.35415 0.20294 0.57045 0.0
H837 H 0.35398 0.23433 0.58612 0.0
H838 H 0.35597 0.24329 0.56842 0.0
H839 H 0.35596 0.21186 0.55294 0.0
C840 C 0.50774 0.63871 0.28646 0.0
C841 C 0.51 0.63804 0.2976 0.0
C842 C 0.49153 0.63137 0.30102 0.0
C843 C 0.50191 0.63444 0.30485 0.0
C844 C 0.48923 0.63265 0.28998 0.0
C845 C 0.49722 0.63626 0.28283 0.0
U846 U 0.53614 0.64698 0.27351 0.0
O847 O 0.54325 0.63993 0.25871 0.0
O848 O 0.53833 0.65714 0.25891 0.0
C849 C 0.54284 0.64918 0.25342 0.0
C850 C 0.51598 0.64127 0.27808 0.0
C851 C 0.54197 0.64895 0.24147 0.0
C852 C 0.53275 0.64502 0.22442 0.0
C853 C 0.53256 0.64584 0.23579 0.0
C854 C 0.55163 0.65054 0.22437 0.0
C855 C 0.5424 0.64712 0.21854 0.0
C856 C 0.55137 0.65148 0.23562 0.0
C857 C 0.56078 0.65356 0.29356 0.0
C858 C 0.57986 0.6586 0.29151 0.0
C859 C 0.57207 0.65696 0.30937 0.0
C860 C 0.56206 0.65422 0.30478 0.0
C861 C 0.58113 0.65913 0.30285 0.0
C862 C 0.56974 0.65579 0.28688 0.0
C863 C 0.54987 0.65051 0.28949 0.0
O864 O 0.5191 0.65144 0.27696 0.0
O865 O 0.52386 0.63424 0.27652 0.0
O866 O 0.54861 0.64096 0.28487 0.0
O867 O 0.54376 0.65816 0.28526 0.0
H868 H 0.51806 0.63993 0.30063 0.0
H869 H 0.50393 0.63344 0.31332 0.0
H870 H 0.48134 0.6304 0.28677 0.0
H871 H 0.49525 0.63676 0.27431 0.0
H872 H 0.52536 0.6426 0.22029 0.0
H873 H 0.52516 0.6439 0.24011 0.0
H874 H 0.55928 0.65207 0.22035 0.0
H875 H 0.55874 0.65389 0.23982 0.0
H876 H 0.58671 0.66017 0.28626 0.0
H877 H 0.57266 0.65747 0.31809 0.0
H878 H 0.55524 0.65259 0.31007 0.0
H879 H 0.56895 0.65533 0.27818 0.0
C880 C 0.13987 0.78571 0.00809 0.0
C881 C 0.13883 0.79672 0.01092 0.0
C882 C 0.13379 0.80087 0.99238 0.0
C883 C 0.13574 0.80428 1.00305 0.0
C884 C 0.13511 0.78992 0.98958 0.0
C885 C 0.13809 0.7824 0.99741 0.0
U886 U 0.14783 0.77188 0.03568 0.0
O887 O 0.13988 0.75677 0.0413 0.0
O888 O 0.1573 0.75665 0.03637 0.0
C889 C 0.14875 0.7511 0.03957 0.0
C890 C 0.1422 0.77721 0.01598 0.0
C891 C 0.14914 0.73928 0.04119 0.0
C892 C 0.14768 0.72048 0.03491 0.0
C893 C 0.14722 0.73175 0.03282 0.0
C894 C 0.15136 0.72445 0.05372 0.0
C895 C 0.14991 0.71663 0.04544 0.0
C896 C 0.15121 0.73553 0.05157 0.0
C897 C 0.15492 0.79179 0.06063 0.0
C898 C 0.16051 0.79026 0.07944 0.0
C899 C 0.15659 0.80798 0.07194 0.0
C900 C 0.15436 0.80311 0.06195 0.0
C901 C 0.15954 0.80165 0.08093 0.0
C902 C 0.15813 0.78536 0.06942 0.0
C903 C 0.15194 0.78726 0.04994 0.0
O904 O 0.15236 0.77591 0.01897 0.0
O905 O 0.13515 0.77586 0.02382 0.0
O906 O 0.14224 0.78291 0.04863 0.0
O907 O 0.15951 0.78278 0.04393 0.0
H908 H 0.1402 0.79938 0.01915 0.0
H909 H 0.13477 0.81275 1.00528 0.0
H910 H 0.13355 0.78715 0.9814 0.0
H911 H 0.1388 0.7739 0.99516 0.0
H912 H 0.14642 0.7149 0.02826 0.0
H913 H 0.14545 0.73455 0.02472 0.0
H914 H 0.15241 0.72219 0.06208 0.0
H915 H 0.15253 0.74123 0.05814 0.0
H916 H 0.16305 0.78506 0.08602 0.0
H917 H 0.15558 0.8167 0.07263 0.0
H918 H 0.15195 0.80822 0.05525 0.0
H919 H 0.15873 0.77662 0.06857 0.0
C920 C 0.78014 0.98304 0.65369 0.0
C921 C 0.78238 0.9725 0.65723 0.0
C922 C 0.80192 0.97499 0.65322 0.0
C923 C 0.79306 0.96852 0.65698 0.0
C924 C 0.79941 0.98569 0.64992 0.0
C925 C 0.78873 0.98958 0.65011 0.0
U926 U 0.74781 0.9847 0.65466 0.0
O927 O 0.73867 0.9996 0.6591 0.0
O928 O 0.73856 0.99357 0.64216 0.0
C929 C 0.73528 1.00095 0.64911 0.0
C930 C 0.769 0.98748 0.65302 0.0
C931 C 0.72945 0.01081 0.64552 0.0
C932 C 0.72854 0.02793 0.63554 0.0
C933 C 0.7347 0.01973 0.64063 0.0
C934 C 0.712 0.01868 0.64083 0.0
C935 C 0.71712 0.02718 0.63522 0.0
C936 C 0.71809 0.0106 0.6459 0.0
C937 C 0.73186 0.95705 0.66321 0.0
C938 C 0.71348 0.94957 0.66351 0.0
C939 C 0.72878 0.93781 0.66717 0.0
C940 C 0.73583 0.94668 0.66589 0.0
C941 C 0.71755 0.93908 0.66573 0.0
C942 C 0.72057 0.95851 0.66229 0.0
C943 C 0.73998 0.96567 0.66072 0.0
O944 O 0.76283 0.98401 0.64507 0.0
O945 O 0.76361 0.98917 0.66203 0.0
O946 O 0.74171 0.97372 0.66752 0.0
O947 O 0.7419 0.9682 0.65059 0.0
H948 H 0.77585 0.96727 0.66 0.0
H949 H 0.79403 0.96023 0.65959 0.0
H950 H 0.80556 0.99126 0.64709 0.0
H951 H 0.78716 0.99778 0.64732 0.0
H952 H 0.73268 0.03434 0.63116 0.0
H953 H 0.74349 0.02006 0.64025 0.0
H954 H 0.70323 0.01784 0.6406 0.0
H955 H 0.71389 1.00379 0.64957 0.0
H956 H 0.70484 0.95073 0.66223 0.0
H957 H 0.73217 0.92981 0.66861 0.0
H958 H 0.7445 0.94534 0.66658 0.0
H959 H 0.71727 0.96641 0.66023 0.0
C960 C 0.73797 0.97933 0.36217 0.0
C961 C 0.73496 0.96892 0.35867 0.0
C962 C 0.71595 0.97281 0.36309 0.0
C963 C 0.72402 0.96568 0.35913 0.0
C964 C 0.7191 0.98322 0.36658 0.0
C965 C 0.72999 0.98643 0.3661 0.0
U966 U 0.77059 0.98229 0.36119 0.0
O967 O 0.7782 0.99795 0.35648 0.0
O968 O 0.77813 0.99271 0.37364 0.0
C969 C 0.78038 1.00037 0.36661 0.0
C970 C 0.74932 0.98315 0.36235 0.0
C971 C 0.78735 0.00963 0.36962 0.0
C972 C 0.78879 0.02725 0.37853 0.0
C973 C 0.78247 0.01915 0.37358 0.0
C974 C 0.80499 0.01668 0.37496 0.0
C975 C 0.80006 0.02589 0.37955 0.0
C976 C 0.79867 0.00857 0.37004 0.0
C977 C 0.78758 0.95456 0.35434 0.0
C978 C 0.80488 0.94491 0.35365 0.0
C979 C 0.78806 0.93523 0.35017 0.0
C980 C 0.78219 0.94483 0.35178 0.0
C981 C 0.79945 0.93513 0.35117 0.0
C982 C 0.79898 0.95458 0.35519 0.0
C983 C 0.78115 0.9644 0.35674 0.0
O984 O 0.75551 0.98033 0.37052 0.0
O985 O 0.75462 0.98465 0.35326 0.0
O986 O 0.77835 0.9714 0.3492 0.0
O987 O 0.77834 0.96702 0.36664 0.0
H988 H 0.74102 0.9633 0.35569 0.0
H989 H 0.7219 0.95754 0.3565 0.0
H990 H 0.71313 0.98897 0.36952 0.0
H991 H 0.7322 0.99452 0.36886 0.0
H992 H 0.7848 0.03417 0.38222 0.0
H993 H 0.77371 0.02003 0.37343 0.0
H994 H 0.81366 0.01542 0.37583 0.0
H995 H 0.80255 1.00123 0.36713 0.0
H996 H 0.81366 0.94509 0.35434 0.0
H997 H 0.78367 0.92781 0.3483 0.0
H998 H 0.77341 0.94463 0.35118 0.0
H999 H 0.8033 0.96201 0.35716 0.0
C1000 C 0.78495 1.00788 0.14151 0.0
C1001 C 0.79607 0.01054 0.14139 0.0
C1002 C 0.8004 0.99264 0.13382 0.0
C1003 C 0.80372 1.00297 0.13756 0.0
C1004 C 0.78939 0.98979 0.13458 0.0
C1005 C 0.78176 0.99734 0.13837 0.0
U1006 U 0.77234 0.03636 0.14954 0.0
O1007 O 0.75758 0.04381 0.14262 0.0
O1008 O 0.75785 0.0391 0.15977 0.0
C1009 C 0.75236 0.04367 0.15187 0.0
C1010 C 0.77633 0.01595 0.14405 0.0
C1011 C 0.74033 0.04292 0.15173 0.0
C1012 C 0.72313 0.0341 0.14724 0.0
C1013 C 0.73454 0.03373 0.14812 0.0
C1014 C 0.72321 0.05264 0.15384 0.0
C1015 C 0.71732 0.04368 0.14983 0.0
C1016 C 0.73453 0.05223 0.15478 0.0
C1017 C 0.79295 0.06075 0.15567 0.0
C1018 C 0.79104 0.07974 0.16117 0.0
C1019 C 0.80896 0.07211 0.15851 0.0
C1020 C 0.80427 0.0621 0.15584 0.0
C1021 C 0.80244 0.08103 0.16121 0.0
C1022 C 0.78629 0.06966 0.15835 0.0
C1023 C 0.78876 0.04981 0.15277 0.0
O1024 O 0.77543 0.01925 0.15411 0.0
O1025 O 0.77476 0.0238 0.13702 0.0
O1026 O 0.78403 0.04849 0.14332 0.0
O1027 O 0.78446 0.04382 0.16044 0.0
H1028 H 0.79878 0.01858 0.14378 0.0
H1029 H 0.81217 1.00541 0.1369 0.0
H1030 H 0.78657 0.98201 0.13153 0.0
H1031 H 0.77323 0.99511 0.13838 0.0
H1032 H 0.71887 0.02696 0.14431 0.0
H1033 H 0.73883 0.02642 0.14577 0.0
H1034 H 0.71915 0.0602 0.15579 0.0
H1035 H 0.73883 0.05941 0.15757 0.0
H1036 H 0.78584 0.08654 0.1632 0.0
H1037 H 0.81774 0.07284 0.15857 0.0
H1038 H 0.80955 0.05534 0.15388 0.0
H1039 H 0.77753 0.06882 0.15828 0.0
C1040 C 0.7346 1.00715 0.8806 0.0
C1041 C 0.7236 0.01005 0.88167 0.0
C1042 C 0.71901 0.99137 0.88678 0.0
C1043 C 0.71585 1.0022 0.8848 0.0
C1044 C 0.72995 0.98851 0.88542 0.0
C1045 C 0.73764 0.99632 0.88242 0.0
U1046 U 0.74809 0.03491 0.87154 0.0
O1047 O 0.76308 0.04227 0.87821 0.0
O1048 O 0.7627 0.0366 0.8613 0.0
C1049 C 0.76828 0.04148 0.86897 0.0
C1050 C 0.74336 0.01503 0.87806 0.0
C1051 C 0.7803 0.04083 0.86899 0.0
C1052 C 0.79757 0.03266 0.8741 0.0
C1053 C 0.78616 0.03204 0.87328 0.0
C1054 C 0.79734 0.05048 0.86582 0.0
C1055 C 0.80323 0.042 0.87058 0.0
C1056 C 0.78601 0.0499 0.86507 0.0
C1057 C 0.72734 0.05866 0.86328 0.0
C1058 C 0.72768 0.07816 0.85955 0.0
C1059 C 0.71065 0.06826 0.85894 0.0
C1060 C 0.7161 0.05868 0.86145 0.0
C1061 C 0.7163 0.07815 0.8582 0.0
C1062 C 0.73321 0.06843 0.86207 0.0
C1063 C 0.73209 0.04828 0.867 0.0
O1064 O 0.74479 0.01763 0.86788 0.0
O1065 O 0.74479 0.02327 0.8847 0.0
O1066 O 0.73668 0.04779 0.87659 0.0
O1067 O 0.7364 0.0417 0.85984 0.0
H1068 H 0.72104 0.01835 0.88026 0.0
H1069 H 0.70742 1.00458 0.88569 0.0
H1070 H 0.73264 0.98027 0.88697 0.0
H1071 H 0.74607 0.9939 0.88167 0.0
H1072 H 0.80195 0.02607 0.87795 0.0
H1073 H 0.78195 0.02495 0.87635 0.0
H1074 H 0.80144 0.05787 0.86331 0.0
H1075 H 0.78164 0.05679 0.86179 0.0
H1076 H 0.73216 0.08576 0.85931 0.0
H1077 H 0.70187 0.06808 0.85825 0.0
H1078 H 0.71141 0.05126 0.86239 0.0
H1079 H 0.74191 0.06863 0.86348 0.0
C1080 C 0.65401 0.7783 0.98299 0.0
C1081 C 0.65525 0.78262 0.97263 0.0
C1082 C 0.65081 0.80088 0.97932 0.0
C1083 C 0.65363 0.79375 0.97079 0.0
C1084 C 0.65029 0.79642 0.98984 0.0
C1085 C 0.65168 0.78528 0.9916 0.0
U1086 U 0.65406 0.74533 0.98647 0.0
O1087 O 0.65813 0.73895 1.00274 0.0
O1088 O 0.64108 0.73946 0.99722 0.0
C1089 C 0.64784 0.73747 1.0052 0.0
C1090 C 0.65397 0.76648 0.98475 0.0
C1091 C 0.64457 0.72961 0.01361 0.0
C1092 C 0.6356 0.72703 0.03098 0.0
C1093 C 0.64054 0.73383 0.02336 0.0
C1094 C 0.63925 0.71151 0.01949 0.0
C1095 C 0.63462 0.71586 0.02896 0.0
C1096 C 0.6442 0.71834 0.01184 0.0
C1097 C 0.66115 0.72741 0.9597 0.0
C1098 C 0.66324 0.71062 0.94947 0.0
C1099 C 0.66451 0.72798 0.94033 0.0
C1100 C 0.6627 0.73341 0.95017 0.0
C1101 C 0.66466 0.71654 0.93992 0.0
C1102 C 0.66152 0.71602 0.95926 0.0
C1103 C 0.65849 0.73249 0.97018 0.0
O1104 O 0.64545 0.76049 0.98232 0.0
O1105 O 0.66273 0.76111 0.98766 0.0
O1106 O 0.66608 0.73608 0.9768 0.0
O1107 O 0.64868 0.73627 0.97201 0.0
H1108 H 0.65706 0.77731 0.96588 0.0
H1109 H 0.65418 0.7965 0.96253 0.0
H1110 H 0.64873 0.80138 0.99686 0.0
H1111 H 0.65071 0.78207 0.99969 0.0
H1112 H 0.63189 0.73061 0.03807 0.0
H1113 H 0.64067 0.74253 0.02483 0.0
H1114 H 0.63844 0.70291 0.01773 0.0
H1115 H 0.64721 0.71491 1.00437 0.0
H1116 H 0.66348 0.70181 0.94936 0.0
H1117 H 0.66576 0.73268 0.93303 0.0
H1118 H 0.66243 0.74222 0.95033 0.0
H1119 H 0.66033 0.71125 0.96652 0.0
C1120 C 0.0085 0.13813 0.78655 0.0
C1121 C 0.01129 0.13758 0.79755 0.0
C1122 C 0.99273 0.13187 0.80196 0.0
C1123 C 1.00344 0.13448 0.80521 0.0
C1124 C 0.99003 0.13271 0.79096 0.0
C1125 C 0.99781 0.13581 0.78339 0.0
U1126 U 0.03639 0.1461 0.77281 0.0
O1127 O 0.04274 0.13861 0.75792 0.0
O1128 O 0.03805 0.15601 0.758 0.0
C1129 C 0.04216 0.14781 0.75256 0.0
C1130 C 0.0164 0.14049 0.77791 0.0
C1131 C 0.04203 0.14777 0.74066 0.0
C1132 C 0.03424 0.14383 0.72291 0.0
C1133 C 0.03341 0.14374 0.73429 0.0
C1134 C 0.05222 0.15179 0.72444 0.0
C1135 C 0.04367 0.14798 0.7179 0.0
C1136 C 0.05137 0.15173 0.73562 0.0
C1137 C 0.06122 0.15312 0.79287 0.0
C1138 C 0.08059 0.15763 0.79228 0.0
C1139 C 0.07105 0.15732 0.80935 0.0
C1140 C 0.06149 0.15443 0.80407 0.0
C1141 C 0.0807 0.15914 0.80358 0.0
C1142 C 0.07086 0.15464 0.78691 0.0
C1143 C 0.05059 0.15003 0.7882 0.0
O1144 O 0.01946 0.15064 0.77656 0.0
O1145 O 0.02425 0.13343 0.7764 0.0
O1146 O 0.04934 0.14038 0.78378 0.0
O1147 O 0.04435 0.15762 0.78403 0.0
H1148 H 0.01951 0.13937 0.80017 0.0
H1149 H 1.00576 0.13405 0.81364 0.0
H1150 H 0.98196 0.13061 0.78809 0.0
H1151 H 0.99551 0.13614 0.77494 0.0
H1152 H 0.02752 0.14086 0.71807 0.0
H1153 H 0.02612 0.14059 0.73806 0.0
H1154 H 0.05968 0.15482 0.72089 0.0
H1155 H 0.05814 0.15475 0.74039 0.0
H1156 H 0.0879 0.15897 0.78761 0.0
H1157 H 0.07084 0.15812 0.81806 0.0
H1158 H 0.0542 0.1532 0.80883 0.0
H1159 H 0.07084 0.15361 0.77822 0.0
C1160 C 0.86197 0.23784 0.48021 0.0
C1161 C 0.8605 0.23389 0.46968 0.0
C1162 C 0.86493 0.21536 0.47578 0.0
C1163 C 0.86197 0.22275 0.46748 0.0
C1164 C 0.86564 0.21958 0.4864 0.0
C1165 C 0.86436 0.23059 0.48849 0.0
U1166 U 0.86175 0.27062 0.4825 0.0
O1167 O 0.85743 0.27863 0.49791 0.0
O1168 O 0.87468 0.27807 0.49253 0.0
C1169 C 0.86767 0.28093 0.49999 0.0
C1170 C 0.86221 0.24942 0.48301 0.0
C1171 C 0.87094 0.28719 0.50958 0.0
C1172 C 0.88002 0.28758 0.52703 0.0
C1173 C 0.87509 0.28173 0.51864 0.0
C1174 C 0.87606 0.30445 0.51773 0.0
C1175 C 0.8808 0.29897 0.52651 0.0
C1176 C 0.87123 0.29858 0.50927 0.0
C1177 C 0.85528 0.28741 0.45504 0.0
C1178 C 0.85299 0.30508 0.44677 0.0
C1179 C 0.85321 0.28887 0.43558 0.0
C1180 C 0.85461 0.28252 0.44482 0.0
C1181 C 0.85239 0.3002 0.43647 0.0
C1182 C 0.85446 0.29872 0.45601 0.0
C1183 C 0.85744 0.28051 0.46442 0.0
O1184 O 0.87066 0.25533 0.48029 0.0
O1185 O 0.85324 0.2549 0.48493 0.0
O1186 O 0.84989 0.27855 0.47168 0.0
O1187 O 0.86739 0.27774 0.46713 0.0
H1188 H 0.85859 0.23943 0.46315 0.0
H1189 H 0.86109 0.22021 0.45918 0.0
H1190 H 0.86721 0.21459 0.49336 0.0
H1191 H 0.86548 0.23351 0.49669 0.0
H1192 H 0.88363 0.28319 0.53372 0.0
H1193 H 0.87499 0.27292 0.51897 0.0
H1194 H 0.87669 0.31322 0.51709 0.0
H1195 H 0.86817 0.3029 0.50228 0.0
H1196 H 0.85238 0.31383 0.44764 0.0
H1197 H 0.8526 0.28492 0.42777 0.0
H1198 H 0.85524 0.27377 0.44399 0.0
H1199 H 0.85505 0.30261 0.46384 0.0
C1200 C 0.49009 0.89514 0.7888 0.0
C1201 C 0.48778 0.89555 0.79984 0.0
C1202 C 0.46825 0.89577 0.79579 0.0
C1203 C 0.47695 0.89576 0.80331 0.0
C1204 C 0.47074 0.89527 0.78473 0.0
C1205 C 0.48153 0.89491 0.78131 0.0
U1206 U 0.52237 0.89664 0.78639 0.0
O1207 O 0.53107 0.88521 0.77569 0.0
O1208 O 0.53019 0.90285 0.7716 0.0
C1209 C 0.53327 0.89303 0.76879 0.0
C1210 C 0.50121 0.89466 0.78457 0.0
C1211 C 0.53946 0.89104 0.75891 0.0
C1212 C 0.54204 0.88085 0.74227 0.0
C1213 C 0.53531 0.88424 0.75074 0.0
C1214 C 0.5567 0.89182 0.74965 0.0
C1215 C 0.55298 0.88415 0.74205 0.0
C1216 C 0.54999 0.89522 0.75804 0.0
C1217 C 0.53868 0.9054 0.81378 0.0
C1218 C 0.55625 0.90691 0.82284 0.0
C1219 C 0.5397 0.91102 0.83258 0.0
C1220 C 0.5336 0.90881 0.82331 0.0
C1221 C 0.55105 0.90995 0.8325 0.0
C1222 C 0.55008 0.90464 0.8135 0.0
C1223 C 0.53165 0.90236 0.80457 0.0
O1224 O 0.50637 0.90388 0.78297 0.0
O1225 O 0.50753 0.88668 0.78776 0.0
O1226 O 0.53014 0.89211 0.80185 0.0
O1227 O 0.52853 0.90953 0.79735 0.0
H1228 H 0.49429 0.89562 0.80574 0.0
H1229 H 0.47545 0.89579 0.81192 0.0
H1230 H 0.4644 0.89539 0.77866 0.0
H1231 H 0.48322 0.89452 0.77272 0.0
H1232 H 0.53903 0.87488 0.73654 0.0
H1233 H 0.5271 0.88107 0.75126 0.0
H1234 H 0.56514 0.8944 0.74966 0.0
H1235 H 0.55328 0.90052 0.76425 0.0
H1236 H 0.56497 0.90575 0.8227 0.0
H1237 H 0.5355 0.91307 0.83999 0.0
H1238 H 0.52482 0.9094 0.8237 0.0
H1239 H 0.55416 0.902 0.80621 0.0
C1240 C 0.98545 0.12181 0.25682 0.0
C1241 C 0.97417 0.12177 0.2588 0.0
C1242 C 0.97082 0.13034 0.24124 0.0
C1243 C 0.96691 0.12604 0.25105 0.0
C1244 C 0.98204 0.12999 0.23922 0.0
C1245 C 0.98922 0.12581 0.24691 0.0
U1246 U 0.99828 0.11263 0.28488 0.0
O1247 O 0.0137 0.10357 0.28711 0.0
O1248 O 0.01243 0.1206 0.29255 0.0
C1249 C 0.01847 0.11183 0.29196 0.0
C1250 C 0.99378 0.11879 0.26496 0.0
C1251 C 0.03048 0.11303 0.29177 0.0
C1252 C 0.04807 0.11603 0.28311 0.0
C1253 C 0.03667 0.11473 0.28239 0.0
C1254 C 0.04706 0.1142 0.3025 0.0
C1255 C 0.05352 0.11588 0.29325 0.0
C1256 C 0.03584 0.11268 0.30173 0.0
C1257 C 0.9773 0.10618 0.30887 0.0
C1258 C 0.97799 0.10294 0.32831 0.0
C1259 C 0.9606 0.10456 0.31926 0.0
C1260 C 0.96592 0.10611 0.30944 0.0
C1261 C 0.96655 0.10306 0.32879 0.0
C1262 C 0.98337 0.10453 0.31838 0.0
C1263 C 0.98211 0.10868 0.29821 0.0
O1264 O 0.99529 0.12558 0.27302 0.0
O1265 O 0.99484 0.10852 0.26776 0.0
O1266 O 0.98696 0.10098 0.29264 0.0
O1267 O 0.98631 0.1184 0.29675 0.0
H1268 H 0.97104 0.11872 0.26639 0.0
H1269 H 0.95827 0.12609 0.25275 0.0
H1270 H 0.98533 0.13328 0.2318 0.0
H1271 H 0.99786 0.126 0.24522 0.0
H1272 H 0.05251 0.11709 0.27567 0.0
H1273 H 0.03273 0.11504 0.27456 0.0
H1274 H 0.05045 0.11434 0.31054 0.0
H1275 H 0.03124 0.11143 0.30909 0.0
H1276 H 0.98271 0.10157 0.33558 0.0
H1277 H 0.95179 0.10451 0.31941 0.0
H1278 H 0.96108 0.10739 0.30223 0.0
H1279 H 0.99217 0.10455 0.31814 0.0
C1280 C 0.48861 0.11849 0.72789 0.0
C1281 C 0.48448 0.11865 0.71732 0.0
C1282 C 0.46605 0.11911 0.72452 0.0
C1283 C 0.4732 0.11892 0.71564 0.0
C1284 C 0.47036 0.1185 0.73502 0.0
C1285 C 0.48152 0.11828 0.73667 0.0
U1286 U 0.52131 0.11891 0.73048 0.0
O1287 O 0.52826 0.13097 0.74179 0.0
O1288 O 0.52837 0.11334 0.74588 0.0
C1289 C 0.53032 0.12339 0.74898 0.0
C1290 C 0.5002 0.11891 0.73027 0.0
C1291 C 0.53719 0.12565 0.75834 0.0
C1292 C 0.53858 0.13325 0.77635 0.0
C1293 C 0.53226 0.12991 0.7676 0.0
C1294 C 0.55482 0.12754 0.76685 0.0
C1295 C 0.54996 0.13235 0.77598 0.0
C1296 C 0.54847 0.12426 0.75804 0.0
C1297 C 0.53899 0.11242 0.7037 0.0
C1298 C 0.55677 0.10965 0.69589 0.0
C1299 C 0.54065 0.10834 0.68462 0.0
C1300 C 0.53418 0.11059 0.69359 0.0
C1301 C 0.55197 0.1078 0.68573 0.0
C1302 C 0.5503 0.11201 0.70484 0.0
C1303 C 0.53203 0.11469 0.71295 0.0
O1304 O 0.50578 0.11004 0.73224 0.0
O1305 O 0.50594 0.1276 0.72783 0.0
O1306 O 0.52945 0.12469 0.71569 0.0
O1307 O 0.52935 0.10702 0.71985 0.0
H1308 H 0.48992 0.11879 0.71046 0.0
H1309 H 0.47011 0.11943 0.70745 0.0
H1310 H 0.4651 0.11839 0.74202 0.0
H1311 H 0.48463 0.11811 0.74487 0.0
H1312 H 0.53454 0.13701 0.78315 0.0
H1313 H 0.52353 0.131 0.76791 0.0
H1314 H 0.56355 0.12653 0.76641 0.0
H1315 H 0.55235 0.12091 0.75093 0.0
H1316 H 0.56552 0.10923 0.69688 0.0
H1317 H 0.53681 0.10676 0.67688 0.0
H1318 H 0.52543 0.11084 0.69265 0.0
H1319 H 0.5541 0.11342 0.71263 0.0
C1320 C 0.12013 0.2543 0.98201 0.0
C1321 C 0.11855 0.25582 0.97091 0.0
C1322 C 0.12936 0.23959 0.96711 0.0
C1323 C 0.12312 0.24849 0.96352 0.0
C1324 C 0.13022 0.23765 0.97824 0.0
C1325 C 0.12565 0.24498 0.98562 0.0
U1326 U 0.11165 0.28163 0.99812 0.0
O1327 O 0.10384 0.28034 0.01417 0.0
O1328 O 0.1211 0.28521 0.01287 0.0
C1329 C 0.11302 0.28247 0.01923 0.0
C1330 C 0.11732 0.26267 0.99008 0.0
C1331 C 0.11311 0.28594 0.03063 0.0
C1332 C 0.11875 0.28217 0.04918 0.0
C1333 C 0.11742 0.27884 0.03841 0.0
C1334 C 0.11072 0.29952 0.04461 0.0
C1335 C 0.11573 0.29271 0.05239 0.0
C1336 C 0.10959 0.29625 0.03382 0.0
C1337 C 0.10366 0.30815 0.97967 0.0
C1338 C 0.10125 0.32782 0.97785 0.0
C1339 C 0.10177 0.31638 0.96195 0.0
C1340 C 0.10301 0.30716 0.96844 0.0
C1341 C 0.1014 0.32691 0.9665 0.0
C1342 C 0.10241 0.31851 0.98438 0.0
C1343 C 0.10655 0.29849 0.98622 0.0
O1344 O 0.12422 0.27066 0.99176 0.0
O1345 O 0.10712 0.26532 0.99183 0.0
O1346 O 0.0992 0.29152 0.98967 0.0
O1347 O 0.11662 0.29639 0.98909 0.0
H1348 H 0.11431 0.26294 0.96797 0.0
H1349 H 0.12242 0.25017 0.95496 0.0
H1350 H 0.13511 0.23098 0.98123 0.0
H1351 H 0.12698 0.24368 0.99418 0.0
H1352 H 0.12261 0.27666 0.0548 0.0
H1353 H 0.12013 0.27079 0.03607 0.0
H1354 H 0.10783 0.30754 0.04677 0.0
H1355 H 0.10616 0.30182 0.02797 0.0
H1356 H 0.10092 0.33575 0.98166 0.0
H1357 H 0.10156 0.31525 0.95327 0.0
H1358 H 0.10387 0.29927 0.96463 0.0
H1359 H 0.10279 0.31945 0.99307 0.0
C1360 C 0.3999 0.72716 0.53101 0.0
C1361 C 0.40192 0.71682 0.53519 0.0
C1362 C 0.40087 0.724 0.55351 0.0
C1363 C 0.40247 0.71524 0.54634 0.0
C1364 C 0.39866 0.73437 0.5492 0.0
C1365 C 0.39824 0.73595 0.53803 0.0
U1366 U 0.39966 0.73124 0.4985 0.0
O1367 O 0.38762 0.74338 0.49317 0.0
O1368 O 0.40507 0.74751 0.49335 0.0
C1369 C 0.39507 0.75094 0.49181 0.0
C1370 C 0.39978 0.72879 0.51934 0.0
C1371 C 0.39306 0.75956 0.48384 0.0
C1372 C 0.38292 0.77589 0.47922 0.0
C1373 C 0.3857 0.7678 0.48663 0.0
C1374 C 0.39569 0.76819 0.46648 0.0
C1375 C 0.38749 0.77586 0.46886 0.0
C1376 C 0.39836 0.75999 0.47386 0.0
C1377 C 0.40683 0.70469 0.4804 0.0
C1378 C 0.41085 0.69416 0.46424 0.0
C1379 C 0.4114 0.68548 0.48173 0.0
C1380 C 0.40867 0.69542 0.4867 0.0
C1381 C 0.41263 0.68463 0.47034 0.0
C1382 C 0.40789 0.70392 0.46919 0.0
C1383 C 0.40396 0.71546 0.48488 0.0
O1384 O 0.40861 0.73144 0.51398 0.0
O1385 O 0.39102 0.72693 0.51351 0.0
O1386 O 0.3941 0.71731 0.48855 0.0
O1387 O 0.41155 0.72174 0.48907 0.0
H1388 H 0.40322 0.70998 0.52981 0.0
H1389 H 0.40433 0.70718 0.54929 0.0
H1390 H 0.3971 0.74127 0.55442 0.0
H1391 H 0.39662 0.74401 0.53488 0.0
H1392 H 0.37662 0.78164 0.48134 0.0
H1393 H 0.38176 0.76774 0.49445 0.0
H1394 H 0.39958 0.76813 0.45864 0.0
H1395 H 0.40427 0.75388 0.47165 0.0
H1396 H 0.41186 0.69435 0.4556 0.0
H1397 H 0.41232 0.67852 0.48695 0.0
H1398 H 0.40789 0.69581 0.49541 0.0
H1399 H 0.40653 0.71101 0.46417 0.0
C1400 C 0.75808 0.53444 0.89526 0.0
C1401 C 0.75956 0.54559 0.89724 0.0
C1402 C 0.74286 0.54956 0.88727 0.0
C1403 C 0.75192 0.5531 0.89334 0.0
C1404 C 0.74139 0.53841 0.88543 0.0
C1405 C 0.7489 0.53094 0.88945 0.0
U1406 U 0.78603 0.52148 0.90452 0.0
O1407 O 0.78775 0.50569 0.91295 0.0
O1408 O 0.79319 0.5075 0.89596 0.0
C1409 C 0.79226 0.50117 0.90443 0.0
C1410 C 0.76611 0.52611 0.8983 0.0
C1411 C 0.79305 0.48927 0.90327 0.0
C1412 C 0.7859 0.47089 0.9005 0.0
C1413 C 0.78415 0.48221 0.9015 0.0
C1414 C 0.80526 0.4739 0.90258 0.0
C1415 C 0.79652 0.46663 0.90127 0.0
C1416 C 0.80352 0.48499 0.90368 0.0
C1417 C 0.81084 0.5416 0.91167 0.0
C1418 C 0.8303 0.54 0.91516 0.0
C1419 C 0.82209 0.55779 0.9138 0.0
C1420 C 0.81198 0.55293 0.91198 0.0
C1421 C 0.8315 0.55146 0.91524 0.0
C1422 C 0.82006 0.5351 0.91341 0.0
C1423 C 0.7999 0.53726 0.90896 0.0
O1424 O 0.77426 0.52477 0.89162 0.0
O1425 O 0.76887 0.52505 0.90852 0.0
O1426 O 0.79415 0.53229 0.91643 0.0
O1427 O 0.79829 0.5334 0.89919 0.0
H1428 H 0.76663 0.54847 0.90165 0.0
H1429 H 0.75316 0.56169 0.89492 0.0
H1430 H 0.73439 0.53548 0.88095 0.0
H1431 H 0.74763 0.52236 0.88785 0.0
H1432 H 0.779 0.46548 0.89947 0.0
H1433 H 0.77597 0.4854 0.90101 0.0
H1434 H 0.81355 0.47099 0.90295 0.0
H1435 H 0.81048 0.49029 0.90488 0.0
H1436 H 0.8373 0.53476 0.91613 0.0
H1437 H 0.82243 0.56658 0.91412 0.0
H1438 H 0.80498 0.5581 0.91069 0.0
H1439 H 0.8194 0.52631 0.91319 0.0
C1440 C 0.72869 0.48832 0.12149 0.0
C1441 C 0.71781 0.48584 0.11914 0.0
C1442 C 0.72197 0.46649 0.12056 0.0
C1443 C 0.71448 0.47492 0.11863 0.0
C1444 C 0.73278 0.4691 0.12303 0.0
C1445 C 0.7361 0.47992 0.12344 0.0
U1446 U 0.73135 0.52061 0.12027 0.0
O1447 O 0.74248 0.52918 0.13148 0.0
O1448 O 0.74613 0.52843 0.11385 0.0
C1449 C 0.74924 0.53142 0.12357 0.0
C1450 C 0.73295 0.49944 0.12188 0.0
C1451 C 0.75915 0.53777 0.12529 0.0
C1452 C 0.77658 0.53995 0.1343 0.0
C1453 C 0.76804 0.53325 0.13082 0.0
C1454 C 0.76774 0.55545 0.12599 0.0
C1455 C 0.77617 0.55118 0.13235 0.0
C1456 C 0.75927 0.54877 0.12247 0.0
C1457 C 0.70382 0.53723 0.1131 0.0
C1458 C 0.69566 0.55519 0.11167 0.0
C1459 C 0.68513 0.53914 0.10706 0.0
C1460 C 0.69401 0.5326 0.10959 0.0
C1461 C 0.68588 0.55046 0.10807 0.0
C1462 C 0.70465 0.54859 0.11414 0.0
C1463 C 0.7128 0.52975 0.11556 0.0
O1464 O 0.73425 0.50467 0.11273 0.0
O1465 O 0.73018 0.50569 0.13003 0.0
O1466 O 0.71603 0.52822 0.12557 0.0
O1467 O 0.71983 0.52693 0.10809 0.0
H1468 H 0.71199 0.49225 0.11763 0.0
H1469 H 0.70607 0.47306 0.11675 0.0
H1470 H 0.73873 0.46276 0.12441 0.0
H1471 H 0.74455 0.48175 0.12522 0.0
H1472 H 0.78293 0.53655 0.13935 0.0
H1473 H 0.76805 0.52472 0.13301 0.0
H1474 H 0.76721 0.56413 0.12459 0.0
H1475 H 0.75245 0.55234 0.11824 0.0
H1476 H 0.69636 0.56395 0.11243 0.0
H1477 H 0.67765 0.53534 0.10433 0.0
H1478 H 0.69322 0.52385 0.10878 0.0
H1479 H 0.71218 0.55231 0.11683 0.0
C1480 C 0.72942 0.52919 0.40031 0.0
C1481 C 0.7189 0.53339 0.4014 0.0
C1482 C 0.72603 0.55174 0.39968 0.0
C1483 C 0.71721 0.54464 0.40115 0.0
C1484 C 0.73659 0.54751 0.39889 0.0
C1485 C 0.73828 0.53629 0.39925 0.0
U1486 U 0.73306 0.49639 0.39921 0.0
O1487 O 0.74412 0.49087 0.38636 0.0
O1488 O 0.74944 0.49053 0.40343 0.0
C1489 C 0.75206 0.48911 0.39324 0.0
C1490 C 0.73119 0.51745 0.39985 0.0
C1491 C 0.76059 0.48135 0.39039 0.0
C1492 C 0.77821 0.47869 0.38202 0.0
C1493 C 0.76985 0.48555 0.38529 0.0
C1494 C 0.76831 0.46327 0.38928 0.0
C1495 C 0.77748 0.46751 0.38394 0.0
C1496 C 0.75983 0.47016 0.39246 0.0
C1497 C 0.70688 0.47819 0.40727 0.0
C1498 C 0.69579 0.46187 0.40903 0.0
C1499 C 0.68816 0.47952 0.41326 0.0
C1500 C 0.69812 0.48453 0.41082 0.0
C1501 C 0.68686 0.46817 0.41219 0.0
C1502 C 0.70568 0.46686 0.40656 0.0
C1503 C 0.7174 0.48284 0.40404 0.0
O1504 O 0.73427 0.51183 0.40834 0.0
O1505 O 0.72861 0.51176 0.39121 0.0
O1506 O 0.71873 0.48672 0.39423 0.0
O1507 O 0.72401 0.48692 0.41136 0.0
H1508 H 0.712 0.52795 0.40218 0.0
H1509 H 0.70898 0.54775 0.40153 0.0
H1510 H 0.74346 0.55287 0.39758 0.0
H1511 H 0.74646 0.53316 0.39834 0.0
H1512 H 0.78527 0.48212 0.37805 0.0
H1513 H 0.77056 0.4942 0.38374 0.0
H1514 H 0.76765 0.45462 0.39084 0.0
H1515 H 0.75274 0.46679 0.39642 0.0
H1516 H 0.695 0.45315 0.40799 0.0
H1517 H 0.68138 0.48455 0.41573 0.0
H1518 H 0.69891 0.49328 0.4115 0.0
H1519 H 0.71239 0.46186 0.40385 0.0
C1520 C 0.75563 0.48318 0.62106 0.0
C1521 C 0.75688 0.47186 0.62 0.0
C1522 C 0.74063 0.469 0.63099 0.0
C1523 C 0.74932 0.46479 0.62488 0.0
C1524 C 0.73912 0.48029 0.63138 0.0
C1525 C 0.74651 0.48728 0.62644 0.0
U1526 U 0.78355 0.49755 0.61225 0.0
O1527 O 0.7839 0.5135 0.60393 0.0
O1528 O 0.78888 0.51229 0.62116 0.0
C1529 C 0.78692 0.51857 0.61281 0.0
C1530 C 0.76401 0.49119 0.61801 0.0
C1531 C 0.78894 0.53043 0.61308 0.0
C1532 C 0.78377 0.54881 0.61872 0.0
C1533 C 0.78119 0.53772 0.61728 0.0
C1534 C 0.80153 0.54547 0.61107 0.0
C1535 C 0.79417 0.55275 0.616 0.0
C1536 C 0.79901 0.53446 0.60978 0.0
C1537 C 0.80922 0.47822 0.60518 0.0
C1538 C 0.82849 0.47954 0.60087 0.0
C1539 C 0.82052 0.46195 0.60465 0.0
C1540 C 0.8104 0.46691 0.60606 0.0
C1541 C 0.8298 0.46819 0.60226 0.0
C1542 C 0.81831 0.48453 0.60238 0.0
C1543 C 0.79846 0.48289 0.60784 0.0
O1544 O 0.77199 0.49284 0.62488 0.0
O1545 O 0.76678 0.49249 0.60785 0.0
O1546 O 0.79254 0.48758 0.60031 0.0
O1547 O 0.79677 0.48671 0.61761 0.0
H1548 H 0.76389 0.46854 0.61589 0.0
H1549 H 0.75066 0.45609 0.62451 0.0
H1550 H 0.73249 0.48374 0.63599 0.0
H1551 H 0.74541 0.49598 0.62735 0.0
H1552 H 0.77786 0.55412 0.62246 0.0
H1553 H 0.7733 0.53475 0.61981 0.0
H1554 H 0.80948 0.54821 0.60849 0.0
H1555 H 0.80508 0.52903 0.60647 0.0
H1556 H 0.83537 0.48463 0.59878 0.0
H1557 H 0.82109 0.45326 0.60592 0.0
H1558 H 0.80348 0.46188 0.60819 0.0
H1559 H 0.81759 0.49327 0.60158 0.0
C1560 C 0.48285 0.15591 0.27965 0.0
C1561 C 0.4722 0.15848 0.28288 0.0
C1562 C 0.47716 0.15472 0.30161 0.0
C1563 C 0.46936 0.15786 0.29388 0.0
C1564 C 0.48772 0.15222 0.29826 0.0
C1565 C 0.49051 0.15279 0.28741 0.0
U1566 U 0.48346 0.15728 0.24748 0.0
O1567 O 0.49849 0.16069 0.23823 0.0
O1568 O 0.49125 0.14408 0.23822 0.0
C1569 C 0.49907 0.15053 0.23491 0.0
C1570 C 0.48642 0.15543 0.26835 0.0
C1571 C 0.5087 0.14623 0.22931 0.0
C1572 C 0.52676 0.13793 0.22861 0.0
C1573 C 0.5182 0.14263 0.23461 0.0
C1574 C 0.51618 0.14031 0.21226 0.0
C1575 C 0.52579 0.1368 0.21732 0.0
C1576 C 0.50783 0.14502 0.21814 0.0
C1577 C 0.45633 0.16637 0.23169 0.0
C1578 C 0.44994 0.16713 0.2131 0.0
C1579 C 0.43713 0.16936 0.22774 0.0
C1580 C 0.44565 0.16831 0.23516 0.0
C1581 C 0.43909 0.16847 0.21662 0.0
C1582 C 0.4585 0.16602 0.22058 0.0
C1583 C 0.46456 0.16403 0.24009 0.0
O1584 O 0.48244 0.1476 0.2623 0.0
O1585 O 0.48845 0.1645 0.26311 0.0
O1586 O 0.47295 0.17057 0.24139 0.0
O1587 O 0.46669 0.1538 0.24225 0.0
H1588 H 0.46615 0.16082 0.27696 0.0
H1589 H 0.46116 0.15988 0.29635 0.0
H1590 H 0.49382 0.14972 0.30407 0.0
H1591 H 0.4987 0.15063 0.28503 0.0
H1592 H 0.53413 0.13541 0.23269 0.0
H1593 H 0.51898 0.14342 0.2433 0.0
H1594 H 0.51515 0.1395 0.2036 0.0
H1595 H 0.50056 0.14762 0.21393 0.0
H1596 H 0.45177 0.16659 0.20457 0.0
H1597 H 0.42893 0.17025 0.23077 0.0
H1598 H 0.44382 0.1686 0.24371 0.0
H1599 H 0.46668 0.16459 0.21769 0.0
C1600 C 0.00838 0.87749 0.73472 0.0
C1601 C 0.01026 0.87682 0.72354 0.0
C1602 C 0.99197 0.88406 0.71983 0.0
C1603 C 1.00209 0.87999 0.71615 0.0
C1604 C 0.99039 0.88465 0.73111 0.0
C1605 C 0.99836 0.88128 0.73835 0.0
U1606 U 0.03646 0.8685 0.74752 0.0
O1607 O 0.04366 0.87485 0.76263 0.0
O1608 O 0.03856 0.85767 0.76162 0.0
C1609 C 0.04315 0.86534 0.76747 0.0
C1610 C 0.01644 0.87461 0.74313 0.0
C1611 C 0.04239 0.86494 0.7794 0.0
C1612 C 0.03429 0.86981 0.79669 0.0
C1613 C 0.03364 0.8692 0.78534 0.0
C1614 C 0.05203 0.86136 0.79624 0.0
C1615 C 0.04362 0.8661 0.8022 0.0
C1616 C 0.05141 0.86079 0.78498 0.0
C1617 C 0.06061 0.86211 0.7271 0.0
C1618 C 0.0795 0.85643 0.72883 0.0
C1619 C 0.07156 0.859 0.71109 0.0
C1620 C 0.06171 0.86182 0.71585 0.0
C1621 C 0.08056 0.85631 0.7175 0.0
C1622 C 0.06957 0.85939 0.73364 0.0
C1623 C 0.04988 0.86527 0.73135 0.0
O1624 O 0.01936 0.86437 0.74397 0.0
O1625 O 0.02441 0.88152 0.74497 0.0
O1626 O 0.04897 0.87468 0.73633 0.0
O1627 O 0.04364 0.8576 0.73535 0.0
H1628 H 0.01798 0.87389 0.72053 0.0
H1629 H 1.00378 0.87922 0.70762 0.0
H1630 H 0.98314 0.88808 0.73461 0.0
H1631 H 0.99675 0.88191 0.74693 0.0
H1632 H 0.02782 0.87377 0.80113 0.0
H1633 H 0.0266 0.8725 0.78122 0.0
H1634 H 0.05945 0.8588 0.80023 0.0
H1635 H 0.05828 0.85757 0.78056 0.0
H1636 H 0.08638 0.85442 0.73392 0.0
H1637 H 0.07214 0.85889 0.70236 0.0
H1638 H 0.05488 0.86383 0.71068 0.0
H1639 H 0.06889 0.85957 0.74236 0.0
C1640 C 0.50857 0.87555 0.28307 0.0
C1641 C 0.50515 0.87628 0.29381 0.0
C1642 C 0.52352 0.8817 0.29956 0.0
C1643 C 0.51247 0.87942 0.30191 0.0
C1644 C 0.52689 0.88087 0.28874 0.0
C1645 C 0.51948 0.87787 0.2806 0.0
U1646 U 0.4808 0.866 0.27077 0.0
O1647 O 0.47246 0.87267 0.25643 0.0
O1648 O 0.47824 0.85572 0.25632 0.0
C1649 C 0.47317 0.86347 0.25104 0.0
C1650 C 0.50089 0.87286 0.27422 0.0
C1651 C 0.47409 0.86389 0.23912 0.0
C1652 C 0.48306 0.86842 0.22212 0.0
C1653 C 0.48324 0.86779 0.23352 0.0
C1654 C 0.46485 0.86094 0.22199 0.0
C1655 C 0.47373 0.8652 0.21623 0.0
C1656 C 0.46503 0.86037 0.23323 0.0
C1657 C 0.45776 0.85779 0.29199 0.0
C1658 C 0.43828 0.85427 0.29085 0.0
C1659 C 0.44733 0.85358 0.30821 0.0
C1660 C 0.45721 0.856 0.30318 0.0
C1661 C 0.43772 0.85292 0.30214 0.0
C1662 C 0.44824 0.85664 0.28578 0.0
C1663 C 0.46832 0.86152 0.28751 0.0
O1664 O 0.49826 0.86255 0.27303 0.0
O1665 O 0.49253 0.8794 0.27301 0.0
O1666 O 0.46876 0.87116 0.28294 0.0
O1667 O 0.47462 0.8543 0.28284 0.0
H1668 H 0.49676 0.87463 0.29592 0.0
H1669 H 0.50929 0.88032 0.31 0.0
H1670 H 0.53525 0.88247 0.28651 0.0
H1671 H 0.52227 0.8774 0.27233 0.0
H1672 H 0.49006 0.87175 0.21798 0.0
H1673 H 0.49038 0.87052 0.2379 0.0
H1674 H 0.45765 0.85806 0.21783 0.0
H1675 H 0.45792 0.85725 0.23737 0.0
H1676 H 0.4309 0.85406 0.28604 0.0
H1677 H 0.44708 0.85294 0.31693 0.0
H1678 H 0.46443 0.85693 0.30814 0.0
H1679 H 0.44842 0.85801 0.27714 0.0
C1680 C 0.8649 0.78042 0.03753 0.0
C1681 C 0.86265 0.78459 0.04784 0.0
C1682 C 0.86679 0.80296 0.0416 0.0
C1683 C 0.86362 0.79579 0.04988 0.0
C1684 C 0.86894 0.79872 0.03128 0.0
C1685 C 0.86804 0.78756 0.02928 0.0
U1686 U 0.86403 0.74748 0.03353 0.0
O1687 O 0.85982 0.74134 0.01717 0.0
O1688 O 0.87688 0.74141 0.02278 0.0
C1689 C 0.87009 0.73963 0.01477 0.0
C1690 C 0.86473 0.76864 0.03541 0.0
C1691 C 0.87322 0.73195 1.00616 0.0
C1692 C 0.88196 0.72981 0.98865 0.0
C1693 C 0.87707 0.7364 0.99646 0.0
C1694 C 0.87861 0.71402 0.99984 0.0
C1695 C 0.88302 0.71862 0.99041 0.0
C1696 C 0.87373 0.72065 1.00771 0.0
C1697 C 0.8564 0.72929 0.05988 0.0
C1698 C 0.8559 0.71267 0.07054 0.0
C1699 C 0.85298 0.73009 0.07919 0.0
C1700 C 0.85418 0.73537 0.0692 0.0
C1701 C 0.85422 0.71869 0.08006 0.0
C1702 C 0.85693 0.71793 0.06059 0.0
C1703 C 0.85922 0.73435 0.04946 0.0
O1704 O 0.87306 0.76244 0.03783 0.0
O1705 O 0.8558 0.76347 0.03254 0.0
O1706 O 0.85174 0.73837 0.043 0.0
O1707 O 0.86912 0.738 0.04777 0.0
H1708 H 0.86026 0.77918 0.05431 0.0
H1709 H 0.86182 0.79886 0.05788 0.0
H1710 H 0.8715 0.80404 0.02479 0.0
H1711 H 0.86995 0.78447 0.0213 0.0
H1712 H 0.88552 0.73356 0.98157 0.0
H1713 H 0.87684 0.74512 0.99517 0.0
H1714 H 0.87953 0.7054 1.0014 0.0
H1715 H 0.87089 0.71706 0.01517 0.0
H1716 H 0.85698 0.70394 0.07079 0.0
H1717 H 0.85134 0.735 0.08626 0.0
H1718 H 0.85367 0.74415 0.06883 0.0
H1719 H 0.85864 0.71311 0.05346 0.0
C1720 C 0.6391 0.28367 0.50861 0.0
C1721 C 0.64276 0.29435 0.51023 0.0
C1722 C 0.63291 0.30048 0.49403 0.0
C1723 C 0.6399 0.30258 0.50293 0.0
C1724 C 0.62978 0.28961 0.49218 0.0
C1725 C 0.63289 0.28133 0.49935 0.0
U1726 U 0.64759 0.27123 0.53656 0.0
O1727 O 0.64092 0.25665 0.54448 0.0
O1728 O 0.65806 0.25693 0.53937 0.0
C1729 C 0.65024 0.25147 0.54415 0.0
C1730 C 0.64164 0.27478 0.51632 0.0
C1731 C 0.64999 0.2395 0.54321 0.0
C1732 C 0.64681 0.22242 0.5337 0.0
C1733 C 0.64753 0.23387 0.53365 0.0
C1734 C 0.65094 0.22231 0.55281 0.0
C1735 C 0.64829 0.21644 0.54338 0.0
C1736 C 0.65188 0.23361 0.55267 0.0
C1737 C 0.65393 0.29244 0.56028 0.0
C1738 C 0.65798 0.29155 0.57964 0.0
C1739 C 0.65834 0.30884 0.57033 0.0
C1740 C 0.65553 0.30369 0.56071 0.0
C1741 C 0.65976 0.3029 0.57992 0.0
C1742 C 0.6551 0.28632 0.56984 0.0
C1743 C 0.65086 0.28788 0.54959 0.0
O1744 O 0.65182 0.27384 0.51945 0.0
O1745 O 0.63471 0.27324 0.52424 0.0
O1746 O 0.6414 0.28301 0.54853 0.0
O1747 O 0.65853 0.28367 0.54353 0.0
H1748 H 0.64775 0.29635 0.51718 0.0
H1749 H 0.64309 0.31064 0.50445 0.0
H1750 H 0.62449 0.28748 0.4855 0.0
H1751 H 0.63016 0.27308 0.49781 0.0
H1752 H 0.64504 0.21834 0.52615 0.0
H1753 H 0.64608 0.23827 0.52621 0.0
H1754 H 0.6519 0.21835 0.56054 0.0
H1755 H 0.65377 0.23781 0.56015 0.0
H1756 H 0.65904 0.28675 0.58689 0.0
H1757 H 0.65943 0.31759 0.57025 0.0
H1758 H 0.65458 0.30859 0.5535 0.0
H1759 H 0.65386 0.2776 0.56973 0.0
C1760 C 0.28024 0.48042 0.15582 0.0
C1761 C 0.28451 0.47012 0.15813 0.0
C1762 C 0.30242 0.47621 0.15235 0.0
C1763 C 0.29557 0.46803 0.15645 0.0
C1764 C 0.29816 0.4867 0.15072 0.0
C1765 C 0.28716 0.48876 0.15239 0.0
U1766 U 0.24746 0.4842 0.15494 0.0
O1767 O 0.24225 0.49479 0.14153 0.0
O1768 O 0.24127 0.50076 0.15825 0.0
C1769 C 0.24018 0.50306 0.14793 0.0
C1770 C 0.26849 0.48211 0.15543 0.0
C1771 C 0.23197 0.51109 0.14441 0.0
C1772 C 0.22762 0.52663 0.13286 0.0
C1773 C 0.23522 0.51938 0.13727 0.0
C1774 C 0.21358 0.51811 0.14358 0.0
C1775 C 0.21656 0.52579 0.13557 0.0
C1776 C 0.22114 0.5107 0.14778 0.0
C1777 C 0.229 0.45766 0.16274 0.0
C1778 C 0.21158 0.44848 0.16431 0.0
C1779 C 0.22818 0.43806 0.16593 0.0
C1780 C 0.23429 0.44767 0.16448 0.0
C1781 C 0.21674 0.43837 0.16553 0.0
C1782 C 0.21763 0.45799 0.16296 0.0
C1783 C 0.23487 0.46775 0.15984 0.0
O1784 O 0.26273 0.47959 0.14684 0.0
O1785 O 0.26298 0.48545 0.1639 0.0
O1786 O 0.238 0.47493 0.1671 0.0
O1787 O 0.23853 0.46938 0.15 0.0
H1788 H 0.27921 0.46358 0.16071 0.0
H1789 H 0.29859 0.45987 0.15777 0.0
H1790 H 0.30328 0.49324 0.14779 0.0
H1791 H 0.28395 0.49675 0.15052 0.0
H1792 H 0.23035 0.53243 0.12687 0.0
H1793 H 0.24363 0.51998 0.13477 0.0
H1794 H 0.20527 0.51752 0.14638 0.0
H1795 H 0.21847 0.50457 0.15347 0.0
H1796 H 0.20279 0.44893 0.16383 0.0
H1797 H 0.23235 0.43035 0.16666 0.0
H1798 H 0.24309 0.44723 0.16432 0.0
H1799 H 0.2134 0.46559 0.1616 0.0
C1800 C 0.28259 0.50797 0.87636 0.0
C1801 C 0.29366 0.50515 0.87693 0.0
C1802 C 0.2982 0.52369 0.88244 0.0
C1803 C 0.30143 0.513 0.87998 0.0
C1804 C 0.28721 0.52651 0.8816 0.0
C1805 C 0.27949 0.51871 0.87862 0.0
U1806 U 0.26975 0.4798 0.86809 0.0
O1807 O 0.25501 0.47232 0.87504 0.0
O1808 O 0.25516 0.47729 0.85793 0.0
C1809 C 0.24969 0.47271 0.86583 0.0
C1810 C 0.27388 0.50002 0.8739 0.0
C1811 C 0.23771 0.47358 0.86599 0.0
C1812 C 0.22048 0.48293 0.86898 0.0
C1813 C 0.23195 0.48309 0.86869 0.0
C1814 C 0.22059 0.46392 0.8638 0.0
C1815 C 0.21472 0.47325 0.8667 0.0
C1816 C 0.2319 0.46411 0.86344 0.0
C1817 C 0.29044 0.45579 0.86145 0.0
C1818 C 0.28875 0.43677 0.85606 0.0
C1819 C 0.30659 0.44483 0.85841 0.0
C1820 C 0.30178 0.45472 0.8611 0.0
C1821 C 0.30015 0.43577 0.85588 0.0
C1822 C 0.28388 0.44673 0.85891 0.0
C1823 C 0.28614 0.46656 0.86452 0.0
O1824 O 0.27272 0.49696 0.86379 0.0
O1825 O 0.27245 0.49205 0.88083 0.0
O1826 O 0.2815 0.46763 0.87401 0.0
O1827 O 0.2817 0.47259 0.85695 0.0
H1828 H 0.29624 0.49692 0.87519 0.0
H1829 H 0.30992 0.51074 0.88051 0.0
H1830 H 0.28458 0.53471 0.88343 0.0
H1831 H 0.27101 0.52103 0.87823 0.0
H1832 H 0.21613 0.49022 0.87128 0.0
H1833 H 0.23628 0.49051 0.87069 0.0
H1834 H 0.2164 0.45639 0.86189 0.0
H1835 H 0.23616 0.45672 0.86128 0.0
H1836 H 0.28365 0.42981 0.85417 0.0
H1837 H 0.31538 0.44427 0.85827 0.0
H1838 H 0.30697 0.46161 0.86299 0.0
H1839 H 0.27511 0.44736 0.85913 0.0
C1840 C 0.28504 0.50726 0.6416 0.0
C1841 C 0.29615 0.50989 0.64164 0.0
C1842 C 0.30042 0.49211 0.63387 0.0
C1843 C 0.30378 0.50235 0.63779 0.0
C1844 C 0.28941 0.48926 0.6345 0.0
C1845 C 0.2818 0.49679 0.63832 0.0
U1846 U 0.2718 0.53548 0.64961 0.0
O1847 O 0.25638 0.54181 0.64299 0.0
O1848 O 0.25752 0.53739 0.66027 0.0
C1849 C 0.25153 0.54139 0.65243 0.0
C1850 C 0.27645 0.51525 0.6442 0.0
C1851 C 0.23952 0.54103 0.65307 0.0
C1852 C 0.22158 0.53398 0.64818 0.0
C1853 C 0.233 0.53279 0.64847 0.0
C1854 C 0.22324 0.55116 0.65762 0.0
C1855 C 0.21666 0.54337 0.65247 0.0
C1856 C 0.2345 0.55 0.65788 0.0
C1857 C 0.29202 0.56051 0.65563 0.0
C1858 C 0.29044 0.57958 0.66098 0.0
C1859 C 0.30824 0.57152 0.65878 0.0
C1860 C 0.30337 0.56161 0.65605 0.0
C1861 C 0.30186 0.5806 0.66128 0.0
C1862 C 0.28552 0.56959 0.65811 0.0
C1863 C 0.28766 0.54963 0.65269 0.0
O1864 O 0.27567 0.51859 0.65425 0.0
O1865 O 0.27465 0.523 0.63712 0.0
O1866 O 0.28275 0.54831 0.64334 0.0
O1867 O 0.28374 0.54343 0.6604 0.0
H1868 H 0.29886 0.51789 0.64417 0.0
H1869 H 0.31225 0.50475 0.63723 0.0
H1870 H 0.28658 0.48154 0.63132 0.0
H1871 H 0.27326 0.4946 0.63823 0.0
H1872 H 0.21669 0.528 0.64392 0.0
H1873 H 0.23671 0.52577 0.64469 0.0
H1874 H 0.21971 0.55861 0.66071 0.0
H1875 H 0.23936 0.55648 0.66139 0.0
H1876 H 0.28537 0.58652 0.66289 0.0
H1877 H 0.31703 0.57208 0.65903 0.0
H1878 H 0.30853 0.55472 0.65424 0.0
H1879 H 0.27674 0.56896 0.65786 0.0
C1880 C 0.28013 0.53475 0.36535 0.0
C1881 C 0.28316 0.54533 0.36224 0.0
C1882 C 0.30209 0.54144 0.36694 0.0
C1883 C 0.2941 0.54866 0.36307 0.0
C1884 C 0.29905 0.53079 0.36961 0.0
C1885 C 0.2882 0.5275 0.3688 0.0
U1886 U 0.24745 0.53279 0.36526 0.0
O1887 O 0.2387 0.51756 0.36125 0.0
O1888 O 0.23904 0.52372 0.37817 0.0
C1889 C 0.23562 0.51628 0.37133 0.0
C1890 C 0.26874 0.53097 0.36609 0.0
C1891 C 0.22989 0.50647 0.37497 0.0
C1892 C 0.2298 0.48848 0.38308 0.0
C1893 C 0.23549 0.49717 0.37839 0.0
C1894 C 0.21291 0.49831 0.38076 0.0
C1895 C 0.21844 0.48906 0.38459 0.0
C1896 C 0.21858 0.50688 0.37598 0.0
C1897 C 0.23103 0.56035 0.35721 0.0
C1898 C 0.21388 0.57023 0.35814 0.0
C1899 C 0.23024 0.57936 0.35217 0.0
C1900 C 0.23609 0.56977 0.35342 0.0
C1901 C 0.21916 0.57994 0.35497 0.0
C1902 C 0.2198 0.56049 0.35926 0.0
C1903 C 0.23806 0.551 0.35974 0.0
O1904 O 0.26284 0.53435 0.37425 0.0
O1905 O 0.26309 0.52909 0.35724 0.0
O1906 O 0.24023 0.54336 0.35263 0.0
O1907 O 0.2407 0.54875 0.36978 0.0
H1908 H 0.27705 0.55109 0.35963 0.0
H1909 H 0.29624 0.55701 0.36125 0.0
H1910 H 0.30497 0.52519 0.37293 0.0
H1911 H 0.28603 0.51934 0.37134 0.0
H1912 H 0.23434 0.48143 0.38572 0.0
H1913 H 0.24426 0.49674 0.37768 0.0
H1914 H 0.20425 0.49925 0.38192 0.0
H1915 H 0.21415 0.51405 0.37346 0.0
H1916 H 0.20536 0.57022 0.36028 0.0
H1917 H 0.23458 0.5864 0.34918 0.0
H1918 H 0.24473 0.5698 0.3517 0.0
H1919 H 0.21571 0.55323 0.36211 0.0
C1920 C 0.1417 0.31943 0.13026 0.0
C1921 C 0.13155 0.31477 0.12786 0.0
C1922 C 0.1233 0.3152 0.13568 0.0
C1923 C 0.12501 0.32082 0.14546 0.0
H1924 H 0.11148 0.32925 0.1757 0.0
H1925 H 0.0965 0.33305 0.18803 0.0
H1926 H 0.11542 0.3584 0.20324 0.0
H1927 H 0.13043 0.35473 0.19097 0.0
H1928 H 0.15315 0.36127 0.18199 0.0
H1929 H 0.16705 0.37548 0.18102 0.0
H1930 H 0.17561 0.36461 0.14898 0.0
H1931 H 0.16163 0.35068 0.14978 0.0
H1932 H 0.1512 0.32894 0.14118 0.0
H1933 H 0.14812 0.31938 0.12428 0.0
H1934 H 0.11531 0.3119 0.13391 0.0
H1935 H 0.11835 0.32146 0.15112 0.0
N1936 N 0.12907 0.33388 0.16512 0.0
N1937 N 0.13934 0.34745 0.17386 0.0
N1938 N 0.14532 0.34018 0.15746 0.0
C1939 C 0.13048 0.34083 0.17362 0.0
C1940 C 0.14681 0.34718 0.16584 0.0
C1941 C 0.13653 0.33344 0.15703 0.0
C1942 C 0.12209 0.34184 0.18215 0.0
C1943 C 0.11256 0.3355 0.18178 0.0
C1944 C 0.104 0.33762 0.18887 0.0
C1945 C 0.10483 0.34604 0.19649 0.0
C1946 C 0.11464 0.3518 0.19747 0.0
C1947 C 0.12318 0.34975 0.19035 0.0
C1948 C 0.15611 0.35493 0.16588 0.0
C1949 C 0.15807 0.36185 0.17477 0.0
C1950 C 0.16612 0.36993 0.17428 0.0
C1951 C 0.17233 0.37129 0.16487 0.0
C1952 C 0.17082 0.36392 0.15628 0.0
C1953 C 0.1628 0.35589 0.15675 0.0
C1954 C 0.13497 0.32617 0.1475 0.0
C1955 C 0.14339 0.32506 0.13991 0.0
C1956 C 0.90364 0.85083 0.32029 0.0
C1957 C 0.91378 0.84586 0.32171 0.0
C1958 C 0.91487 0.83761 0.32947 0.0
C1959 C 0.90617 0.83491 0.33625 0.0
H1960 H 0.89941 0.82004 0.36653 0.0
H1961 H 0.90245 0.811 0.38397 0.0
H1962 H 0.86971 0.81877 0.3935 0.0
H1963 H 0.86663 0.82783 0.37636 0.0
H1964 H 0.85711 0.85165 0.36781 0.0
H1965 H 0.84261 0.86533 0.36695 0.0
H1966 H 0.85053 0.87146 0.33355 0.0
H1967 H 0.86475 0.85792 0.33432 0.0
H1968 H 0.88744 0.85267 0.32615 0.0
H1969 H 0.90264 0.8573 0.31443 0.0
H1970 H 0.92266 0.8337 0.3307 0.0
H1971 H 0.90744 0.82887 0.34248 0.0
N1972 N 0.88895 0.83243 0.35243 0.0
N1973 N 0.87264 0.83889 0.35997 0.0
N1974 N 0.87889 0.84594 0.34358 0.0
C1975 C 0.88137 0.83208 0.36046 0.0
C1976 C 0.87133 0.84583 0.35154 0.0
C1977 C 0.8877 0.83933 0.3439 0.0
C1978 C 0.88284 0.82491 0.37009 0.0
C1979 C 0.89276 0.81958 0.37223 0.0
C1980 C 0.89448 0.81426 0.38216 0.0
C1981 C 0.88628 0.8141 0.39004 0.0
C1982 C 0.87613 0.81865 0.38752 0.0
C1983 C 0.87443 0.82399 0.37771 0.0
C1984 C 0.86212 0.85364 0.35113 0.0
C1985 C 0.85567 0.85587 0.36026 0.0
C1986 C 0.84742 0.86375 0.3598 0.0
C1987 C 0.84537 0.86945 0.35017 0.0
C1988 C 0.85176 0.86712 0.34106 0.0
C1989 C 0.85999 0.85936 0.34153 0.0
C1990 C 0.89626 0.84055 0.33549 0.0
C1991 C 0.89497 0.84822 0.32711 0.0
C1992 C 0.40518 0.66205 0.69695 0.0
C1993 C 0.41524 0.66747 0.6974 0.0
C1994 C 0.41725 0.67588 0.68992 0.0
C1995 C 0.40923 0.67874 0.68224 0.0
H1996 H 0.4019 0.69618 0.65324 0.0
H1997 H 0.40559 0.70641 0.6368 0.0
H1998 H 0.37484 0.69592 0.62345 0.0
H1999 H 0.37111 0.68562 0.63978 0.0
H2000 H 0.35838 0.66488 0.6505 0.0
H2001 H 0.34375 0.65136 0.65158 0.0
H2002 H 0.35394 0.64341 0.68409 0.0
H2003 H 0.36787 0.65707 0.68322 0.0
H2004 H 0.38972 0.66044 0.68974 0.0
H2005 H 0.40338 0.6553 0.70226 0.0
H2006 H 0.42491 0.68022 0.69004 0.0
H2007 H 0.41096 0.68514 0.67648 0.0
N2008 N 0.39214 0.6821 0.66524 0.0
N2009 N 0.37532 0.67651 0.65779 0.0
N2010 N 0.38145 0.66911 0.674 0.0
C2011 C 0.38443 0.68286 0.6573 0.0
C2012 C 0.37378 0.66964 0.6662 0.0
C2013 C 0.39064 0.67519 0.67366 0.0
C2014 C 0.38627 0.68994 0.6478 0.0
C2015 C 0.39586 0.69612 0.64686 0.0
C2016 C 0.39797 0.70204 0.63747 0.0
C2017 C 0.39055 0.70186 0.62884 0.0
C2018 C 0.38077 0.69605 0.62993 0.0
C2019 C 0.37864 0.69018 0.63932 0.0
C2020 C 0.36432 0.66211 0.66677 0.0
C2021 C 0.35732 0.66035 0.65792 0.0
C2022 C 0.34901 0.65251 0.65852 0.0
C2023 C 0.34754 0.64626 0.66796 0.0
C2024 C 0.35452 0.64818 0.67677 0.0
C2025 C 0.36268 0.65601 0.67622 0.0
C2026 C 0.39914 0.67324 0.68199 0.0
C2027 C 0.39727 0.66499 0.68958 0.0
C2028 C 0.64065 0.19582 0.88853 0.0
C2029 C 0.63047 0.20023 0.8911 0.0
C2030 C 0.62205 0.19961 0.88343 0.0
C2031 C 0.62365 0.19399 0.87364 0.0
H2032 H 0.61007 0.18547 0.84316 0.0
H2033 H 0.59514 0.18149 0.83072 0.0
H2034 H 0.61421 0.15625 0.81576 0.0
H2035 H 0.62916 0.16011 0.82812 0.0
H2036 H 0.65152 0.15339 0.83737 0.0
H2037 H 0.66553 0.13937 0.83863 0.0
H2038 H 0.67509 0.15191 0.86985 0.0
H2039 H 0.66096 0.16554 0.86885 0.0
H2040 H 0.65007 0.18649 0.8775 0.0
H2041 H 0.64723 0.19607 0.89437 0.0
H2042 H 0.61407 0.20276 0.88531 0.0
H2043 H 0.61688 0.19319 0.86808 0.0
N2044 N 0.62766 0.18103 0.85386 0.0
N2045 N 0.63803 0.16762 0.84514 0.0
N2046 N 0.64402 0.17501 0.86151 0.0
C2047 C 0.62911 0.1741 0.84538 0.0
C2048 C 0.64555 0.16803 0.85314 0.0
C2049 C 0.63517 0.18159 0.86194 0.0
C2050 C 0.62073 0.17296 0.83683 0.0
C2051 C 0.61119 0.17921 0.83711 0.0
C2052 C 0.60266 0.17698 0.82996 0.0
C2053 C 0.60356 0.16854 0.82238 0.0
C2054 C 0.61338 0.16286 0.8215 0.0
C2055 C 0.62189 0.16503 0.82867 0.0
C2056 C 0.65493 0.16046 0.85313 0.0
C2057 C 0.65668 0.15321 0.84448 0.0
C2058 C 0.66479 0.14524 0.84512 0.0
C2059 C 0.67128 0.14438 0.85443 0.0
C2060 C 0.67005 0.15217 0.86267 0.0
C2061 C 0.66194 0.16004 0.86208 0.0
C2062 C 0.63365 0.18886 0.87145 0.0
C2063 C 0.64222 0.19019 0.87889 0.0
C2064 C 0.14205 0.6972 0.38813 0.0
C2065 C 0.1318 0.70136 0.39087 0.0
C2066 C 0.12328 0.70054 0.38333 0.0
C2067 C 0.12483 0.69488 0.37356 0.0
H2068 H 0.11187 0.68707 0.3424 0.0
H2069 H 0.09718 0.68368 0.32959 0.0
H2070 H 0.11508 0.65668 0.31617 0.0
H2071 H 0.12987 0.6602 0.3287 0.0
H2072 H 0.1523 0.6541 0.33761 0.0
H2073 H 0.16687 0.64066 0.33813 0.0
H2074 H 0.17592 0.65153 0.37005 0.0
H2075 H 0.16128 0.66492 0.36971 0.0
H2076 H 0.15146 0.68794 0.37703 0.0
H2077 H 0.14874 0.69767 0.39382 0.0
H2078 H 0.11526 0.70355 0.38531 0.0
H2079 H 0.11799 0.69387 0.36812 0.0
N2080 N 0.12889 0.68193 0.35379 0.0
N2081 N 0.13895 0.66806 0.34546 0.0
N2082 N 0.14498 0.67554 0.36177 0.0
C2083 C 0.13023 0.6748 0.34545 0.0
C2084 C 0.14636 0.66835 0.35356 0.0
C2085 C 0.13632 0.6824 0.36195 0.0
C2086 C 0.12195 0.67377 0.33678 0.0
C2087 C 0.11276 0.68052 0.33661 0.0
C2088 C 0.10434 0.67857 0.32927 0.0
C2089 C 0.10488 0.66979 0.322 0.0
C2090 C 0.11441 0.66354 0.32163 0.0
C2091 C 0.12286 0.66551 0.32893 0.0
C2092 C 0.15556 0.66058 0.35365 0.0
C2093 C 0.15737 0.65366 0.34476 0.0
C2094 C 0.16568 0.64595 0.34504 0.0
C2095 C 0.17242 0.64507 0.35414 0.0
C2096 C 0.17082 0.65211 0.36292 0.0
C2097 C 0.16244 0.65976 0.36271 0.0
C2098 C 0.13488 0.68988 0.37129 0.0
C2099 C 0.14356 0.69149 0.37853 0.0
C2100 C 0.63981 0.82151 0.62857 0.0
C2101 C 0.63013 0.8155 0.62759 0.0
C2102 C 0.62275 0.8155 0.63625 0.0
C2103 C 0.62488 0.82166 0.64555 0.0
H2104 H 0.61095 0.832 0.67462 0.0
H2105 H 0.5969 0.83574 0.68821 0.0
H2106 H 0.61816 0.85901 0.70364 0.0
H2107 H 0.63208 0.8555 0.69028 0.0
H2108 H 0.65355 0.86211 0.68115 0.0
H2109 H 0.66745 0.87622 0.68035 0.0
H2110 H 0.67697 0.86472 0.64876 0.0
H2111 H 0.66281 0.85096 0.64934 0.0
H2112 H 0.64947 0.83222 0.63824 0.0
H2113 H 0.64571 0.82155 0.62209 0.0
H2114 H 0.61518 0.81101 0.6357 0.0
H2115 H 0.6189 0.82165 0.65196 0.0
N2116 N 0.62913 0.83548 0.66415 0.0
N2117 N 0.63999 0.84842 0.67302 0.0
N2118 N 0.6456 0.84127 0.65645 0.0
C2119 C 0.63086 0.84221 0.67271 0.0
C2120 C 0.64741 0.84801 0.66498 0.0
C2121 C 0.63652 0.83492 0.65599 0.0
C2122 C 0.62262 0.84352 0.68129 0.0
C2123 C 0.61264 0.83787 0.68094 0.0
C2124 C 0.6046 0.84001 0.68864 0.0
C2125 C 0.60653 0.84769 0.69681 0.0
C2126 C 0.61656 0.85304 0.69737 0.0
C2127 C 0.62452 0.851 0.68969 0.0
C2128 C 0.65688 0.85552 0.66519 0.0
C2129 C 0.65866 0.86253 0.67405 0.0
C2130 C 0.66673 0.87058 0.67365 0.0
C2131 C 0.67321 0.87179 0.6644 0.0
C2132 C 0.67193 0.86424 0.6559 0.0
C2133 C 0.66383 0.85628 0.65625 0.0
C2134 C 0.63446 0.82789 0.64642 0.0
C2135 C 0.64196 0.8276 0.63786 0.0
C2136 C 0.38031 0.32225 0.89043 0.0
C2137 C 0.38997 0.31628 0.89145 0.0
C2138 C 0.39751 0.31637 0.88297 0.0
C2139 C 0.39558 0.32262 0.87376 0.0
H2140 H 0.41028 0.33305 0.84456 0.0
H2141 H 0.42409 0.33694 0.83067 0.0
H2142 H 0.40277 0.36109 0.8168 0.0
H2143 H 0.38919 0.35709 0.82995 0.0
H2144 H 0.3674 0.36084 0.83682 0.0
H2145 H 0.3528 0.37374 0.83539 0.0
H2146 H 0.34313 0.36664 0.86818 0.0
H2147 H 0.35826 0.35383 0.8698 0.0
H2148 H 0.37086 0.33305 0.88076 0.0
H2149 H 0.37432 0.32222 0.89684 0.0
H2150 H 0.40506 0.3119 0.88362 0.0
H2151 H 0.40168 0.32271 0.86746 0.0
N2152 N 0.39183 0.33654 0.85541 0.0
N2153 N 0.3812 0.34941 0.84644 0.0
N2154 N 0.37516 0.3423 0.86282 0.0
C2155 C 0.39031 0.34329 0.84688 0.0
C2156 C 0.3736 0.34902 0.85428 0.0
C2157 C 0.38424 0.33596 0.86339 0.0
C2158 C 0.39861 0.34474 0.8384 0.0
C2159 C 0.40856 0.33908 0.83843 0.0
C2160 C 0.41647 0.34134 0.83056 0.0
C2161 C 0.41445 0.34922 0.82261 0.0
C2162 C 0.40451 0.35478 0.82265 0.0
C2163 C 0.39669 0.3525 0.83031 0.0
C2164 C 0.36405 0.35628 0.85345 0.0
C2165 C 0.36219 0.36195 0.84377 0.0
C2166 C 0.35368 0.36931 0.84288 0.0
C2167 C 0.34667 0.37119 0.85162 0.0
C2168 C 0.34841 0.36544 0.86131 0.0
C2169 C 0.35702 0.35803 0.86221 0.0
C2170 C 0.38603 0.32884 0.87284 0.0
C2171 C 0.37834 0.32844 0.88121 0.0
C2172 C 0.90648 0.16464 0.19876 0.0
C2173 C 0.91667 0.1696 0.19753 0.0
C2174 C 0.91791 0.17786 0.18979 0.0
C2175 C 0.9093 0.18058 0.18288 0.0
H2176 H 0.90252 0.19645 0.15377 0.0
H2177 H 0.90617 0.20658 0.13722 0.0
H2178 H 0.87571 0.19543 0.12377 0.0
H2179 H 0.872 0.18528 0.14022 0.0
H2180 H 0.86007 0.16462 0.15069 0.0
H2181 H 0.84533 0.1512 0.15128 0.0
H2182 H 0.85343 0.14411 0.18451 0.0
H2183 H 0.8678 0.15754 0.18403 0.0
H2184 H 0.89034 0.16283 0.19264 0.0
H2185 H 0.90539 0.15813 0.20455 0.0
H2186 H 0.92575 0.18171 0.18865 0.0
H2187 H 0.91068 0.18661 0.17666 0.0
N2188 N 0.89247 0.18279 0.16626 0.0
N2189 N 0.87619 0.17647 0.15844 0.0
N2190 N 0.88193 0.1697 0.17516 0.0
C2191 C 0.88509 0.18306 0.15802 0.0
C2192 C 0.87453 0.16979 0.16701 0.0
C2193 C 0.8909 0.17614 0.17491 0.0
C2194 C 0.88701 0.18993 0.14833 0.0
C2195 C 0.89654 0.19622 0.14734 0.0
C2196 C 0.89862 0.20208 0.13788 0.0
C2197 C 0.89127 0.20172 0.12918 0.0
C2198 C 0.8816 0.19572 0.13029 0.0
C2199 C 0.87948 0.18993 0.13975 0.0
C2200 C 0.86515 0.16218 0.16732 0.0
C2201 C 0.8586 0.16028 0.15815 0.0
C2202 C 0.85021 0.15253 0.15846 0.0
C2203 C 0.84815 0.14659 0.16797 0.0
C2204 C 0.85462 0.14865 0.17712 0.0
C2205 C 0.86296 0.15632 0.17681 0.0
C2206 C 0.89934 0.17495 0.18348 0.0
C2207 C 0.8979 0.16728 0.19182 0.0
C2208 C 0.1301 0.13855 0.32382 0.0
C2209 C 0.12884 0.12888 0.31797 0.0
C2210 C 0.13704 0.12098 0.31837 0.0
C2211 C 0.14638 0.1227 0.32468 0.0
H2212 H 0.17706 0.10926 0.33397 0.0
H2213 H 0.19094 0.09534 0.33755 0.0
H2214 H 0.20484 0.11554 0.3625 0.0
H2215 H 0.19125 0.1294 0.35907 0.0
H2216 H 0.18225 0.15101 0.36497 0.0
H2217 H 0.18189 0.16558 0.37829 0.0
H2218 H 0.14921 0.17377 0.36847 0.0
H2219 H 0.14954 0.15927 0.35505 0.0
H2220 H 0.13999 0.14781 0.33463 0.0
H2221 H 0.12382 0.14472 0.32362 0.0
H2222 H 0.13617 0.11344 0.3139 0.0
H2223 H 0.15252 0.11641 0.32494 0.0
N2224 N 0.1655 0.1268 0.3383 0.0
N2225 N 0.17409 0.13737 0.3516 0.0
N2226 N 0.15742 0.14294 0.34451 0.0
C2227 C 0.17404 0.12846 0.34515 0.0
C2228 C 0.16587 0.14464 0.35136 0.0
C2229 C 0.15716 0.13409 0.33791 0.0
C2230 C 0.18292 0.12041 0.3463 0.0
C2231 C 0.18314 0.11079 0.34013 0.0
C2232 C 0.19105 0.10284 0.34215 0.0
C2233 C 0.1988 0.10446 0.35032 0.0
C2234 C 0.19888 0.11419 0.35617 0.0
C2235 C 0.19106 0.1221 0.35417 0.0
C2236 C 0.16589 0.15393 0.35895 0.0
C2237 C 0.17499 0.15593 0.36559 0.0
C2238 C 0.17479 0.16425 0.37327 0.0
C2239 C 0.16551 0.17075 0.37444 0.0
C2240 C 0.15651 0.16893 0.36766 0.0
C2241 C 0.1567 0.1606 0.35999 0.0
C2242 C 0.1476 0.13234 0.33073 0.0
C2243 C 0.13937 0.14027 0.33013 0.0
C2244 C 0.19383 0.88894 0.63803 0.0
C2245 C 0.19967 0.88995 0.62834 0.0
C2246 C 0.20023 0.88094 0.62135 0.0
C2247 C 0.19445 0.87144 0.62358 0.0
H2248 H 0.18568 0.84193 0.61001 0.0
H2249 H 0.18221 0.82934 0.59516 0.0
H2250 H 0.15593 0.81477 0.61318 0.0
H2251 H 0.15951 0.82711 0.62811 0.0
H2252 H 0.1552 0.83486 0.65133 0.0
H2253 H 0.14232 0.83406 0.66602 0.0
H2254 H 0.14961 0.86747 0.67428 0.0
H2255 H 0.16248 0.86838 0.65928 0.0
H2256 H 0.18336 0.87904 0.64766 0.0
H2257 H 0.19319 0.89572 0.64358 0.0
H2258 H 0.20488 0.88135 0.61394 0.0
H2259 H 0.19477 0.86484 0.61779 0.0
N2260 N 0.1806 0.85287 0.62726 0.0
N2261 N 0.16717 0.84403 0.63733 0.0
N2262 N 0.17425 0.86066 0.64339 0.0
C2263 C 0.17374 0.84429 0.62857 0.0
C2264 C 0.16737 0.85213 0.64478 0.0
C2265 C 0.18095 0.86106 0.63468 0.0
C2266 C 0.17274 0.83572 0.62018 0.0
C2267 C 0.17928 0.83593 0.6109 0.0
C2268 C 0.1773 0.82871 0.60238 0.0
C2269 C 0.1687 0.82117 0.60294 0.0
C2270 C 0.16267 0.82043 0.61252 0.0
C2271 C 0.16467 0.82761 0.62105 0.0
C2272 C 0.15989 0.85169 0.6541 0.0
C2273 C 0.15413 0.84206 0.65626 0.0
C2274 C 0.14679 0.84156 0.66478 0.0
C2275 C 0.14501 0.85066 0.6714 0.0
C2276 C 0.15079 0.86032 0.6693 0.0
C2277 C 0.1582 0.86082 0.66075 0.0
C2278 C 0.18805 0.87066 0.63293 0.0
C2279 C 0.18809 0.87939 0.64031 0.0
C2280 C 0.38949 0.87676 0.82066 0.0
C2281 C 0.39153 0.88685 0.81585 0.0
C2282 C 0.38347 0.89491 0.81608 0.0
C2283 C 0.37372 0.89312 0.82158 0.0
H2284 H 0.34483 0.90861 0.83263 0.0
H2285 H 0.33234 0.92321 0.83798 0.0
H2286 H 0.31456 0.90056 0.8578 0.0
H2287 H 0.32683 0.88609 0.85265 0.0
H2288 H 0.33763 0.86604 0.86217 0.0
H2289 H 0.33788 0.85139 0.87542 0.0
H2290 H 0.37003 0.84225 0.86499 0.0
H2291 H 0.3699 0.8569 0.85173 0.0
H2292 H 0.37869 0.86725 0.83027 0.0
H2293 H 0.39572 0.87055 0.8208 0.0
H2294 H 0.38504 0.90285 0.81262 0.0
H2295 H 0.36787 0.89968 0.82204 0.0
N2296 N 0.35427 0.88932 0.83459 0.0
N2297 N 0.34567 0.87928 0.84823 0.0
N2298 N 0.36215 0.87322 0.84113 0.0
C2299 C 0.34578 0.88799 0.8415 0.0
C2300 C 0.3538 0.87187 0.84813 0.0
C2301 C 0.36244 0.88184 0.83429 0.0
C2302 C 0.33706 0.89625 0.84249 0.0
C2303 C 0.33806 0.90668 0.83787 0.0
C2304 C 0.33086 0.91501 0.84082 0.0
C2305 C 0.3226 0.91297 0.84836 0.0
C2306 C 0.32089 0.9023 0.85197 0.0
C2307 C 0.32804 0.89405 0.8491 0.0
C2308 C 0.35376 0.86269 0.85587 0.0
C2309 C 0.34477 0.86092 0.86267 0.0
C2310 C 0.3449 0.85255 0.87028 0.0
C2311 C 0.35398 0.84573 0.87124 0.0
C2312 C 0.36289 0.84735 0.86435 0.0
C2313 C 0.36281 0.85576 0.85677 0.0
C2314 C 0.37194 0.88327 0.82707 0.0
C2315 C 0.37979 0.87498 0.82622 0.0
C2316 C 0.32399 0.12951 0.13817 0.0
C2317 C 0.31742 0.12873 0.12886 0.0
C2318 C 0.31628 0.13812 0.1224 0.0
C2319 C 0.32211 0.14764 0.12469 0.0
H2320 H 0.33085 0.17817 0.1115 0.0
H2321 H 0.33408 0.19118 0.09713 0.0
H2322 H 0.36249 0.20308 0.11428 0.0
H2323 H 0.35864 0.19083 0.12888 0.0
H2324 H 0.36153 0.18439 0.1535 0.0
H2325 H 0.37553 0.18395 0.16755 0.0
H2326 H 0.36687 0.15077 0.17491 0.0
H2327 H 0.35289 0.1511 0.16096 0.0
H2328 H 0.33483 0.13927 0.14768 0.0
H2329 H 0.3252 0.12258 0.1434 0.0
H2330 H 0.31098 0.13815 0.11542 0.0
H2331 H 0.32125 0.15451 0.11929 0.0
N2332 N 0.33651 0.16613 0.12818 0.0
N2333 N 0.34935 0.17532 0.13888 0.0
N2334 N 0.34219 0.15868 0.1447 0.0
C2335 C 0.34322 0.17483 0.12975 0.0
C2336 C 0.34886 0.16735 0.14642 0.0
C2337 C 0.33592 0.15802 0.13566 0.0
C2338 C 0.34457 0.1833 0.1213 0.0
C2339 C 0.33769 0.1837 0.11224 0.0
C2340 C 0.33966 0.19114 0.1039 0.0
C2341 C 0.34877 0.19817 0.10422 0.0
C2342 C 0.35532 0.19803 0.11357 0.0
C2343 C 0.35318 0.19081 0.122 0.0
C2344 C 0.35618 0.16771 0.15596 0.0
C2345 C 0.36243 0.17706 0.15826 0.0
C2346 C 0.37036 0.17689 0.1664 0.0
C2347 C 0.37223 0.16734 0.1723 0.0
C2348 C 0.36553 0.15825 0.17048 0.0
C2349 C 0.35756 0.15843 0.16244 0.0
C2350 C 0.32905 0.14821 0.1337 0.0
C2351 C 0.32965 0.13913 0.14059 0.0
C2352 C 0.19595 0.90405 0.16226 0.0
C2353 C 0.19701 0.91398 0.16785 0.0
C2354 C 0.18984 0.91598 0.17652 0.0
C2355 C 0.18197 0.90811 0.17946 0.0
H2356 H 0.15153 0.90141 0.1961 0.0
H2357 H 0.13482 0.90464 0.20636 0.0
H2358 H 0.12228 0.87349 0.19621 0.0
H2359 H 0.13885 0.87008 0.18604 0.0
H2360 H 0.14889 0.85801 0.1665 0.0
H2361 H 0.14844 0.84386 0.15267 0.0
H2362 H 0.18056 0.8532 0.14217 0.0
H2363 H 0.18112 0.86733 0.15598 0.0
H2364 H 0.18837 0.8888 0.16066 0.0
H2365 H 0.20064 0.90222 0.15511 0.0
H2366 H 0.19027 0.92355 0.18097 0.0
H2367 H 0.17641 0.90986 0.186 0.0
N2368 N 0.1643 0.89134 0.18264 0.0
N2369 N 0.15659 0.87471 0.17693 0.0
N2370 N 0.173 0.88058 0.16967 0.0
C2371 C 0.1562 0.88373 0.1833 0.0
C2372 C 0.16501 0.87306 0.1701 0.0
C2373 C 0.1728 0.88973 0.17581 0.0
C2374 C 0.14654 0.88553 0.19017 0.0
C2375 C 0.14527 0.89521 0.1961 0.0
C2376 C 0.13574 0.89709 0.20193 0.0
C2377 C 0.12738 0.88933 0.20189 0.0
C2378 C 0.12867 0.87958 0.19623 0.0
C2379 C 0.13817 0.87767 0.19043 0.0
C2380 C 0.16502 0.86385 0.16237 0.0
C2381 C 0.15591 0.857 0.16134 0.0
C2382 C 0.15564 0.8489 0.15341 0.0
C2383 C 0.16444 0.84751 0.14631 0.0
C2384 C 0.17361 0.85421 0.14743 0.0
C2385 C 0.17393 0.86226 0.15541 0.0
C2386 C 0.18129 0.89812 0.17384 0.0
C2387 C 0.18856 0.89623 0.16537 0.0
C2388 C 0.32364 0.88921 0.38153 0.0
C2389 C 0.31768 0.8903 0.39114 0.0
C2390 C 0.3168 0.88124 0.39804 0.0
C2391 C 0.32243 0.87166 0.39585 0.0
H2392 H 0.33376 0.84297 0.41114 0.0
H2393 H 0.3379 0.82938 0.42517 0.0
H2394 H 0.36164 0.81479 0.40402 0.0
H2395 H 0.35748 0.82776 0.39021 0.0
H2396 H 0.36403 0.8364 0.36914 0.0
H2397 H 0.37751 0.83703 0.35504 0.0
H2398 H 0.3629 0.86682 0.34313 0.0
H2399 H 0.35047 0.86673 0.35791 0.0
H2400 H 0.33398 0.87917 0.37196 0.0
H2401 H 0.32455 0.89599 0.37603 0.0
H2402 H 0.31199 0.88164 0.40534 0.0
H2403 H 0.3219 0.86503 0.40158 0.0
N2404 N 0.33671 0.85328 0.39252 0.0
N2405 N 0.34969 0.84429 0.38198 0.0
N2406 N 0.34212 0.86051 0.37581 0.0
C2407 C 0.3436 0.84479 0.39108 0.0
C2408 C 0.34902 0.85205 0.37431 0.0
C2409 C 0.33588 0.86116 0.38483 0.0
C2410 C 0.34528 0.83647 0.39953 0.0
C2411 C 0.33978 0.83677 0.40951 0.0
C2412 C 0.34217 0.82908 0.41754 0.0
C2413 C 0.35002 0.82103 0.41562 0.0
C2414 C 0.35541 0.82078 0.40566 0.0
C2415 C 0.35302 0.82831 0.39772 0.0
C2416 C 0.35635 0.85169 0.36486 0.0
C2417 C 0.36385 0.84316 0.36355 0.0
C2418 C 0.37158 0.84349 0.35528 0.0
C2419 C 0.37189 0.85226 0.34795 0.0
C2420 C 0.3637 0.86027 0.34885 0.0
C2421 C 0.35625 0.86012 0.3573 0.0
C2422 C 0.32892 0.87081 0.38658 0.0
C2423 C 0.32916 0.87956 0.37925 0.0
C2424 C 0.38976 0.13929 0.69509 0.0
C2425 C 0.39137 0.12933 0.70028 0.0
C2426 C 0.38356 0.12107 0.69936 0.0
C2427 C 0.37416 0.12278 0.69325 0.0
H2428 H 0.34538 0.10786 0.68157 0.0
H2429 H 0.3321 0.09392 0.67632 0.0
H2430 H 0.31215 0.1187 0.66163 0.0
H2431 H 0.32547 0.13243 0.66638 0.0
H2432 H 0.33715 0.15289 0.65547 0.0
H2433 H 0.33765 0.16772 0.64249 0.0
H2434 H 0.37188 0.17243 0.64935 0.0
H2435 H 0.37114 0.15822 0.66272 0.0
H2436 H 0.37953 0.14873 0.68487 0.0
H2437 H 0.39577 0.14573 0.69572 0.0
H2438 H 0.38473 0.11334 0.70339 0.0
H2439 H 0.36824 0.11627 0.69262 0.0
N2440 N 0.35447 0.12738 0.68098 0.0
N2441 N 0.34553 0.13799 0.66797 0.0
N2442 N 0.36264 0.14327 0.67432 0.0
C2443 C 0.34568 0.12915 0.67456 0.0
C2444 C 0.35399 0.14508 0.66779 0.0
C2445 C 0.36294 0.13451 0.68097 0.0
C2446 C 0.33668 0.12118 0.67399 0.0
C2447 C 0.33804 0.11034 0.67743 0.0
C2448 C 0.33038 0.10237 0.67453 0.0
C2449 C 0.32129 0.1052 0.66826 0.0
C2450 C 0.31926 0.11625 0.6662 0.0
C2451 C 0.32693 0.12412 0.66888 0.0
C2452 C 0.3541 0.15435 0.66015 0.0
C2453 C 0.34475 0.1572 0.65427 0.0
C2454 C 0.34507 0.16567 0.64673 0.0
C2455 C 0.35481 0.17137 0.64474 0.0
C2456 C 0.36413 0.16851 0.65074 0.0
C2457 C 0.36375 0.16022 0.6584 0.0
C2458 C 0.37258 0.13272 0.68785 0.0
C2459 C 0.38048 0.14096 0.68887 0.0
C2460 C 0.16441 0.1967 0.90425 0.0
C2461 C 0.16976 0.1962 0.91422 0.0
C2462 C 0.17806 0.18854 0.91577 0.0
C2463 C 0.18071 0.18118 0.9075 0.0
H2464 H 0.19816 0.15266 0.90013 0.0
H2465 H 0.20791 0.13603 0.90426 0.0
H2466 H 0.19586 0.12148 0.87473 0.0
H2467 H 0.18655 0.13828 0.87035 0.0
H2468 H 0.16441 0.14874 0.85915 0.0
H2469 H 0.14961 0.14956 0.84582 0.0
H2470 H 0.14753 0.18431 0.85061 0.0
H2471 H 0.16185 0.18347 0.864 0.0
H2472 H 0.16249 0.18992 0.88854 0.0
H2473 H 0.15804 0.20262 0.9029 0.0
H2474 H 0.18236 0.18815 0.92341 0.0
H2475 H 0.18698 0.17519 0.90896 0.0
N2476 N 0.18364 0.16446 0.89065 0.0
N2477 N 0.17819 0.15697 0.87397 0.0
N2478 N 0.17083 0.17343 0.87991 0.0
C2479 C 0.18443 0.15644 0.88305 0.0
C2480 C 0.17144 0.16552 0.87231 0.0
C2481 C 0.17682 0.17302 0.88909 0.0
C2482 C 0.19136 0.14677 0.88501 0.0
C2483 C 0.1977 0.14598 0.89444 0.0
C2484 C 0.20325 0.13638 0.89684 0.0
C2485 C 0.20248 0.12727 0.88998 0.0
C2486 C 0.19669 0.12829 0.88023 0.0
C2487 C 0.19124 0.13794 0.87776 0.0
C2488 C 0.1641 0.166 0.86283 0.0
C2489 C 0.16089 0.15656 0.85719 0.0
C2490 C 0.15245 0.15703 0.84953 0.0
C2491 C 0.1472 0.16696 0.84738 0.0
C2492 C 0.15117 0.17648 0.85232 0.0
C2493 C 0.15941 0.176 0.86 0.0
C2494 C 0.17504 0.18139 0.8976 0.0
C2495 C 0.16702 0.18941 0.89604 0.0
C2496 C 0.82133 0.38836 0.87969 0.0
C2497 C 0.8164 0.3901 0.88973 0.0
C2498 C 0.81651 0.38175 0.89746 0.0
C2499 C 0.82217 0.37214 0.89553 0.0
H2500 H 0.83288 0.34201 0.91102 0.0
H2501 H 0.83733 0.32788 0.92452 0.0
H2502 H 0.8629 0.31637 0.90347 0.0
H2503 H 0.85807 0.32916 0.89026 0.0
H2504 H 0.86154 0.33516 0.86912 0.0
H2505 H 0.87459 0.33359 0.85489 0.0
H2506 H 0.86608 0.36572 0.84346 0.0
H2507 H 0.85322 0.36757 0.85842 0.0
H2508 H 0.83124 0.37786 0.87011 0.0
H2509 H 0.82147 0.39475 0.87367 0.0
H2510 H 0.81279 0.38298 0.90529 0.0
H2511 H 0.82253 0.3661 0.90189 0.0
N2512 N 0.83608 0.3535 0.89226 0.0
N2513 N 0.84944 0.34479 0.88211 0.0
N2514 N 0.84175 0.36073 0.8755 0.0
C2515 C 0.84321 0.34517 0.89108 0.0
C2516 C 0.84886 0.35241 0.87432 0.0
C2517 C 0.83525 0.36129 0.88441 0.0
C2518 C 0.84502 0.33673 0.89946 0.0
C2519 C 0.83927 0.33622 0.9093 0.0
C2520 C 0.84186 0.32818 0.91704 0.0
C2521 C 0.85025 0.32065 0.91502 0.0
C2522 C 0.85599 0.32148 0.90526 0.0
C2523 C 0.85329 0.32913 0.8976 0.0
C2524 C 0.85628 0.35152 0.86495 0.0
C2525 C 0.86238 0.34196 0.86362 0.0
C2526 C 0.86983 0.34097 0.85527 0.0
C2527 C 0.87135 0.34944 0.84782 0.0
C2528 C 0.8652 0.35903 0.84907 0.0
C2529 C 0.85774 0.36007 0.85757 0.0
C2530 C 0.82788 0.3707 0.88582 0.0
C2531 C 0.82705 0.37874 0.87775 0.0
C2532 C 0.89067 0.64048 0.19222 0.0
C2533 C 0.89242 0.63185 0.19948 0.0
C2534 C 0.88429 0.62374 0.20024 0.0
C2535 C 0.87464 0.62453 0.19409 0.0
H2536 H 0.8437 0.60981 0.18461 0.0
H2537 H 0.82993 0.59569 0.18119 0.0
H2538 H 0.81518 0.61586 0.1568 0.0
H2539 H 0.82866 0.62992 0.16006 0.0
H2540 H 0.83759 0.65186 0.15375 0.0
H2541 H 0.83796 0.66672 0.14073 0.0
H2542 H 0.8707 0.67476 0.15064 0.0
H2543 H 0.87035 0.66005 0.16372 0.0
H2544 H 0.88029 0.64844 0.18127 0.0
H2545 H 0.89679 0.64656 0.19055 0.0
H2546 H 0.88527 0.61685 0.20557 0.0
H2547 H 0.86856 0.61817 0.19473 0.0
N2548 N 0.85486 0.62748 0.18023 0.0
N2549 N 0.84586 0.638 0.16711 0.0
N2550 N 0.86256 0.64372 0.17388 0.0
C2551 C 0.84616 0.62908 0.17355 0.0
C2552 C 0.85402 0.64536 0.16723 0.0
C2553 C 0.8631 0.63489 0.18043 0.0
C2554 C 0.83738 0.62094 0.17253 0.0
C2555 C 0.83747 0.61127 0.1786 0.0
C2556 C 0.82965 0.60322 0.17667 0.0
C2557 C 0.8217 0.60481 0.1687 0.0
C2558 C 0.82132 0.61456 0.16296 0.0
C2559 C 0.82907 0.62257 0.16486 0.0
C2560 C 0.85395 0.65473 0.15976 0.0
C2561 C 0.84485 0.65682 0.1532 0.0
C2562 C 0.84507 0.6653 0.14571 0.0
C2563 C 0.85437 0.67185 0.14465 0.0
C2564 C 0.86338 0.66991 0.15136 0.0
C2565 C 0.86317 0.66144 0.15883 0.0
C2566 C 0.87294 0.63351 0.18724 0.0
C2567 C 0.88108 0.64145 0.18652 0.0
C2568 C 0.66892 0.69932 0.40284 0.0
C2569 C 0.66972 0.6969 0.41394 0.0
C2570 C 0.67536 0.68744 0.417 0.0
C2571 C 0.67872 0.67989 0.40913 0.0
H2572 H 0.69625 0.65002 0.40168 0.0
H2573 H 0.70689 0.63329 0.40386 0.0
H2574 H 0.69581 0.6223 0.37254 0.0
H2575 H 0.68564 0.63881 0.37021 0.0
H2576 H 0.66466 0.64836 0.36005 0.0
H2577 H 0.65108 0.6487 0.34557 0.0
H2578 H 0.64517 0.68268 0.35191 0.0
H2579 H 0.65856 0.6824 0.36646 0.0
H2580 H 0.6703 0.69354 0.38667 0.0
H2581 H 0.66515 0.70679 0.40012 0.0
H2582 H 0.67634 0.68539 0.42545 0.0
H2583 H 0.68233 0.67231 0.41172 0.0
N2584 N 0.68338 0.66392 0.3916 0.0
N2585 N 0.67676 0.65631 0.37543 0.0
N2586 N 0.67055 0.6733 0.38108 0.0
C2587 C 0.68335 0.65566 0.38424 0.0
C2588 C 0.67033 0.66506 0.37378 0.0
C2589 C 0.67704 0.67283 0.38999 0.0
C2590 C 0.69009 0.6458 0.38577 0.0
C2591 C 0.69619 0.64405 0.39525 0.0
C2592 C 0.70221 0.63445 0.39654 0.0
C2593 C 0.70228 0.62654 0.38833 0.0
C2594 C 0.69615 0.62833 0.37892 0.0
C2595 C 0.69021 0.63782 0.37763 0.0
C2596 C 0.66269 0.66536 0.36448 0.0
C2597 C 0.66053 0.65593 0.35833 0.0
C2598 C 0.65273 0.65609 0.35007 0.0
C2599 C 0.64711 0.66572 0.34766 0.0
C2600 C 0.64946 0.67518 0.35358 0.0
C2601 C 0.65711 0.67499 0.36194 0.0
C2602 C 0.67632 0.68167 0.39814 0.0
C2603 C 0.67193 0.69172 0.39508 0.0
C2604 C 0.88944 0.37826 0.32087 0.0
C2605 C 0.89152 0.38866 0.31649 0.0
C2606 C 0.88361 0.39682 0.31799 0.0
C2607 C 0.87419 0.39475 0.32388 0.0
H2608 H 0.84528 0.40912 0.3341 0.0
H2609 H 0.83249 0.42342 0.33945 0.0
H2610 H 0.81325 0.39959 0.35642 0.0
H2611 H 0.82594 0.38545 0.35139 0.0
H2612 H 0.83527 0.36211 0.3555 0.0
H2613 H 0.83358 0.34779 0.36868 0.0
H2614 H 0.86858 0.34535 0.37077 0.0
H2615 H 0.87025 0.3594 0.35677 0.0
H2616 H 0.87906 0.36831 0.33051 0.0
H2617 H 0.8949 0.37151 0.31962 0.0
H2618 H 0.88476 0.405 0.31502 0.0
H2619 H 0.8684 0.40129 0.32495 0.0
N2620 N 0.85457 0.38987 0.33567 0.0
N2621 N 0.8453 0.37901 0.34813 0.0
N2622 N 0.86241 0.37359 0.34192 0.0
C2623 C 0.8457 0.38807 0.34191 0.0
C2624 C 0.85358 0.37173 0.3482 0.0
C2625 C 0.8629 0.3826 0.33556 0.0
C2626 C 0.83686 0.39622 0.34268 0.0
C2627 C 0.83816 0.40689 0.33874 0.0
C2628 C 0.83079 0.41506 0.34168 0.0
C2629 C 0.82205 0.4126 0.34853 0.0
C2630 C 0.82002 0.40171 0.35125 0.0
C2631 C 0.82738 0.39362 0.34844 0.0
C2632 C 0.85289 0.36209 0.35529 0.0
C2633 C 0.84263 0.35845 0.35863 0.0
C2634 C 0.84168 0.35024 0.36626 0.0
C2635 C 0.85095 0.3457 0.37115 0.0
C2636 C 0.86127 0.34873 0.36726 0.0
C2637 C 0.86223 0.35684 0.35931 0.0
C2638 C 0.87252 0.38457 0.32872 0.0
C2639 C 0.88019 0.37632 0.32706 0.0
C2640 C 0.62954 0.63933 0.82376 0.0
C2641 C 0.62767 0.6295 0.81828 0.0
C2642 C 0.63539 0.62113 0.81916 0.0
C2643 C 0.64481 0.62261 0.82542 0.0
H2644 H 0.6745 0.60723 0.83646 0.0
H2645 H 0.68788 0.59335 0.8417 0.0
H2646 H 0.70674 0.61794 0.85816 0.0
H2647 H 0.69352 0.6316 0.85327 0.0
H2648 H 0.68207 0.64911 0.86516 0.0
H2649 H 0.68316 0.66301 0.8786 0.0
H2650 H 0.65138 0.67484 0.86926 0.0
H2651 H 0.64997 0.66004 0.85603 0.0
H2652 H 0.63989 0.64843 0.8343 0.0
H2653 H 0.62369 0.64589 0.82331 0.0
H2654 H 0.63417 0.61349 0.81496 0.0
H2655 H 0.6506 0.61601 0.82596 0.0
N2656 N 0.66471 0.62677 0.83789 0.0
N2657 N 0.67376 0.63705 0.85109 0.0
N2658 N 0.6567 0.64266 0.84499 0.0
C2659 C 0.67356 0.62836 0.84433 0.0
C2660 C 0.66543 0.64423 0.85154 0.0
C2661 C 0.65628 0.63399 0.83811 0.0
C2662 C 0.68269 0.62045 0.84482 0.0
C2663 C 0.68166 0.6097 0.84095 0.0
C2664 C 0.68937 0.60177 0.84384 0.0
C2665 C 0.69819 0.60454 0.85055 0.0
C2666 C 0.69992 0.61554 0.85313 0.0
C2667 C 0.69224 0.62336 0.85039 0.0
C2668 C 0.66595 0.6534 0.8594 0.0
C2669 C 0.67526 0.65463 0.86587 0.0
C2670 C 0.67595 0.66284 0.87357 0.0
C2671 C 0.6675 0.67042 0.87496 0.0
C2672 C 0.65809 0.66922 0.8685 0.0
C2673 C 0.65732 0.66078 0.86083 0.0
C2674 C 0.64658 0.63241 0.83108 0.0
C2675 C 0.63883 0.64076 0.83012 0.0
C2676 C 0.91653 0.65594 0.94631 0.0
C2677 C 0.92135 0.66617 0.94505 0.0
C2678 C 0.92851 0.66799 0.93644 0.0
C2679 C 0.93038 0.65978 0.92881 0.0
H2680 H 0.94682 0.65165 0.89946 0.0
H2681 H 0.95726 0.6539 0.88272 0.0
H2682 H 0.94293 0.62443 0.87005 0.0
H2683 H 0.93262 0.62212 0.88647 0.0
H2684 H 0.91784 0.60731 0.89997 0.0
H2685 H 0.90482 0.59218 0.90079 0.0
H2686 H 0.89047 0.6061 0.92935 0.0
H2687 H 0.90337 0.62117 0.9287 0.0
H2688 H 0.91435 0.64001 0.93991 0.0
H2689 H 0.91101 0.6544 0.95296 0.0
H2690 H 0.93229 0.67589 0.93538 0.0
H2691 H 0.93561 0.66151 0.922 0.0
N2692 N 0.93226 0.64274 0.9123 0.0
N2693 N 0.92567 0.62633 0.90501 0.0
N2694 N 0.91933 0.63239 0.92169 0.0
C2695 C 0.93224 0.63521 0.90421 0.0
C2696 C 0.9192 0.62486 0.91371 0.0
C2697 C 0.92582 0.64131 0.92112 0.0
C2698 C 0.93888 0.63669 0.89436 0.0
C2699 C 0.94593 0.64565 0.89311 0.0
C2700 C 0.95188 0.64696 0.88355 0.0
C2701 C 0.95093 0.63928 0.87518 0.0
C2702 C 0.94394 0.63037 0.87646 0.0
C2703 C 0.93799 0.62909 0.8859 0.0
C2704 C 0.91166 0.61547 0.91428 0.0
C2705 C 0.91195 0.60714 0.90646 0.0
C2706 C 0.90454 0.59849 0.90691 0.0
C2707 C 0.89675 0.59809 0.91514 0.0
C2708 C 0.89647 0.60631 0.92296 0.0
C2709 C 0.90388 0.61491 0.92257 0.0
C2710 C 0.92512 0.64965 0.92976 0.0
C2711 C 0.91844 0.64773 0.93879 0.0
C2712 C 0.10018 0.15198 0.57215 0.0
C2713 C 0.09655 0.16257 0.57421 0.0
C2714 C 0.08928 0.16436 0.58278 0.0
C2715 C 0.08642 0.15587 0.58974 0.0
H2716 H 0.06792 0.14647 0.61694 0.0
H2717 H 0.05792 0.15034 0.63344 0.0
H2718 H 0.07275 0.12269 0.64896 0.0
H2719 H 0.08282 0.1187 0.63242 0.0
H2720 H 0.09889 0.10229 0.61699 0.0
H2721 H 0.11268 0.08801 0.61518 0.0
H2722 H 0.12831 0.10688 0.5901 0.0
H2723 H 0.11447 0.12032 0.59134 0.0
H2724 H 0.10089 0.13556 0.57768 0.0
H2725 H 0.10586 0.15042 0.56565 0.0
H2726 H 0.08639 0.1725 0.58449 0.0
H2727 H 0.08132 0.15765 0.59663 0.0
N2728 N 0.08329 0.13824 0.60553 0.0
N2729 N 0.09038 0.12222 0.61325 0.0
N2730 N 0.09681 0.12847 0.5966 0.0
C2731 C 0.08336 0.13078 0.61371 0.0
C2732 C 0.09715 0.12105 0.60466 0.0
C2733 C 0.08998 0.13704 0.59687 0.0
C2734 C 0.07634 0.13236 0.62335 0.0
C2735 C 0.06898 0.14109 0.62378 0.0
C2736 C 0.0632 0.14329 0.63322 0.0
C2737 C 0.06459 0.13683 0.64247 0.0
C2738 C 0.07144 0.12773 0.6419 0.0
C2739 C 0.07728 0.12553 0.63244 0.0
C2740 C 0.10542 0.11235 0.60416 0.0
C2741 C 0.10524 0.10322 0.61101 0.0
C2742 C 0.11318 0.09508 0.61 0.0
C2743 C 0.12151 0.09603 0.60223 0.0
C2744 C 0.1218 0.10542 0.59577 0.0
C2745 C 0.11384 0.11331 0.5966 0.0
C2746 C 0.09089 0.14546 0.58832 0.0
C2747 C 0.0974 0.14351 0.57915 0.0
C2748 C 0.60244 0.3655 0.44761 0.0
C2749 C 0.598 0.35498 0.44693 0.0
C2750 C 0.59127 0.35238 0.43807 0.0
C2751 C 0.58913 0.36022 0.43007 0.0
H2752 H 0.56888 0.37034 0.40336 0.0
H2753 H 0.55814 0.36659 0.38728 0.0
H2754 H 0.57488 0.39233 0.37032 0.0
H2755 H 0.58539 0.39636 0.38653 0.0
H2756 H 0.60158 0.41155 0.39971 0.0
H2757 H 0.61484 0.42605 0.39993 0.0
H2758 H 0.62642 0.41522 0.43116 0.0
H2759 H 0.61362 0.40024 0.43055 0.0
H2760 H 0.60393 0.38119 0.44078 0.0
H2761 H 0.60793 0.36778 0.45408 0.0
H2762 H 0.5877 0.34435 0.43732 0.0
H2763 H 0.58409 0.358 0.42322 0.0
N2764 N 0.58573 0.37757 0.4137 0.0
N2765 N 0.59201 0.39397 0.40614 0.0
N2766 N 0.59914 0.38782 0.4225 0.0
C2767 C 0.58534 0.38514 0.40566 0.0
C2768 C 0.59892 0.39537 0.4146 0.0
C2769 C 0.59264 0.37892 0.42218 0.0
C2770 C 0.57814 0.38352 0.3962 0.0
C2771 C 0.57021 0.37528 0.39625 0.0
C2772 C 0.56406 0.37312 0.38701 0.0
C2773 C 0.56577 0.37903 0.37744 0.0
C2774 C 0.5733 0.38766 0.37755 0.0
C2775 C 0.57939 0.3899 0.38684 0.0
C2776 C 0.60653 0.40469 0.41507 0.0
C2777 C 0.60695 0.41225 0.40663 0.0
C2778 C 0.61453 0.4207 0.40684 0.0
C2779 C 0.62176 0.42196 0.41562 0.0
C2780 C 0.62118 0.41447 0.42417 0.0
C2781 C 0.61371 0.40591 0.42386 0.0
C2782 C 0.59374 0.3707 0.43083 0.0
C2783 C 0.60024 0.37324 0.43981 0.0
C2784 C 0.4144 0.86301 0.07025 0.0
C2785 C 0.41816 0.85239 0.07191 0.0
C2786 C 0.42428 0.85004 0.08119 0.0
C2787 C 0.42634 0.85817 0.08888 0.0
H2788 H 0.44587 0.86746 0.11596 0.0
H2789 H 0.4568 0.86439 0.1322 0.0
H2790 H 0.4415 0.89194 0.14754 0.0
H2791 H 0.43055 0.89495 0.1315 0.0
H2792 H 0.41744 0.91172 0.11651 0.0
H2793 H 0.4049 0.92684 0.11663 0.0
H2794 H 0.38659 0.91182 0.09064 0.0
H2795 H 0.39969 0.89712 0.09003 0.0
H2796 H 0.41299 0.8791 0.07654 0.0
H2797 H 0.40969 0.86499 0.06311 0.0
H2798 H 0.42736 0.8419 0.08253 0.0
H2799 H 0.43091 0.8561 0.09607 0.0
N2800 N 0.4298 0.87561 0.1047 0.0
N2801 N 0.42371 0.89204 0.11222 0.0
N2802 N 0.41666 0.88605 0.09568 0.0
C2803 C 0.4302 0.88311 0.1128 0.0
C2804 C 0.41694 0.89359 0.10368 0.0
C2805 C 0.42306 0.87706 0.09608 0.0
C2806 C 0.43726 0.88142 0.12241 0.0
C2807 C 0.44487 0.87289 0.12278 0.0
C2808 C 0.45119 0.87117 0.13206 0.0
C2809 C 0.44998 0.87788 0.14118 0.0
C2810 C 0.44254 0.88653 0.14071 0.0
C2811 C 0.43628 0.88828 0.13146 0.0
C2812 C 0.40953 0.90311 0.10336 0.0
C2813 C 0.41079 0.91169 0.11075 0.0
C2814 C 0.40346 0.92036 0.11087 0.0
C2815 C 0.39442 0.92057 0.10383 0.0
C2816 C 0.39341 0.91213 0.09617 0.0
C2817 C 0.4009 0.90357 0.09589 0.0
C2818 C 0.4221 0.86871 0.08748 0.0
C2819 C 0.41629 0.87107 0.07797 0.0
C2820 C 0.91388 0.36278 0.57078 0.0
C2821 C 0.9185 0.35244 0.5721 0.0
C2822 C 0.92572 0.3507 0.58074 0.0
C2823 C 0.92772 0.35894 0.5883 0.0
H2824 H 0.94479 0.36678 0.61649 0.0
H2825 H 0.95542 0.36342 0.63271 0.0
H2826 H 0.94277 0.39293 0.64695 0.0
H2827 H 0.93178 0.39598 0.631 0.0
H2828 H 0.91549 0.4108 0.61796 0.0
H2829 H 0.90249 0.42567 0.6177 0.0
H2830 H 0.88882 0.4132 0.58794 0.0
H2831 H 0.90153 0.39816 0.58839 0.0
H2832 H 0.91187 0.37876 0.57715 0.0
H2833 H 0.90846 0.36444 0.56406 0.0
H2834 H 0.92939 0.34279 0.58198 0.0
H2835 H 0.93297 0.35721 0.59512 0.0
N2836 N 0.93004 0.37593 0.60465 0.0
N2837 N 0.92374 0.39224 0.61227 0.0
N2838 N 0.91694 0.38632 0.5956 0.0
C2839 C 0.9303 0.38336 0.61282 0.0
C2840 C 0.91704 0.39379 0.60367 0.0
C2841 C 0.9234 0.3774 0.59598 0.0
C2842 C 0.93732 0.38161 0.62244 0.0
C2843 C 0.94427 0.37255 0.62309 0.0
C2844 C 0.95047 0.37068 0.63239 0.0
C2845 C 0.94995 0.37784 0.64127 0.0
C2846 C 0.94323 0.38706 0.64044 0.0
C2847 C 0.93697 0.38888 0.6312 0.0
C2848 C 0.90954 0.40322 0.60325 0.0
C2849 C 0.90972 0.41123 0.61136 0.0
C2850 C 0.90229 0.41983 0.61115 0.0
C2851 C 0.89452 0.42065 0.60282 0.0
C2852 C 0.89452 0.41274 0.5946 0.0
C2853 C 0.90191 0.40414 0.59482 0.0
C2854 C 0.92254 0.36909 0.58734 0.0
C2855 C 0.91587 0.371 0.57829 0.0
C2856 C 0.41738 0.15551 0.44667 0.0
C2857 C 0.42116 0.16613 0.44504 0.0
C2858 C 0.42744 0.16848 0.43588 0.0
C2859 C 0.42958 0.16034 0.42823 0.0
H2860 H 0.44663 0.15236 0.40017 0.0
H2861 H 0.45699 0.15589 0.38414 0.0
H2862 H 0.4464 0.12499 0.37077 0.0
H2863 H 0.43523 0.12204 0.38649 0.0
H2864 H 0.41774 0.10666 0.40046 0.0
H2865 H 0.4042 0.09197 0.40215 0.0
H2866 H 0.38897 0.10962 0.42827 0.0
H2867 H 0.40244 0.12359 0.42702 0.0
H2868 H 0.41603 0.13941 0.4404 0.0
H2869 H 0.41256 0.15354 0.45372 0.0
H2870 H 0.43052 0.17663 0.43457 0.0
H2871 H 0.43422 0.16242 0.4211 0.0
N2872 N 0.4328 0.14279 0.41231 0.0
N2873 N 0.42611 0.12653 0.40466 0.0
N2874 N 0.4195 0.1327 0.42126 0.0
C2875 C 0.43291 0.1353 0.40417 0.0
C2876 C 0.41936 0.12521 0.41322 0.0
C2877 C 0.42614 0.14147 0.42094 0.0
C2878 C 0.43997 0.13697 0.39462 0.0
C2879 C 0.44648 0.14633 0.39379 0.0
C2880 C 0.45262 0.14827 0.38453 0.0
C2881 C 0.4527 0.14078 0.37588 0.0
C2882 C 0.44644 0.1312 0.37695 0.0
C2883 C 0.44008 0.1294 0.38611 0.0
C2884 C 0.41132 0.11622 0.41373 0.0
C2885 C 0.41153 0.10727 0.40662 0.0
C2886 C 0.40375 0.0989 0.40755 0.0
C2887 C 0.39564 0.09942 0.41556 0.0
C2888 C 0.39532 0.10861 0.42232 0.0
C2889 C 0.40307 0.11676 0.42152 0.0
C2890 C 0.4253 0.1498 0.42958 0.0
C2891 C 0.41937 0.14744 0.43901 0.0
C2892 C 0.60005 0.65282 0.07224 0.0
C2893 C 0.59563 0.66318 0.0737 0.0
C2894 C 0.58871 0.66515 0.08248 0.0
C2895 C 0.58665 0.65693 0.09004 0.0
H2896 H 0.56966 0.64819 0.11905 0.0
H2897 H 0.55911 0.65045 0.13572 0.0
H2898 H 0.57309 0.62102 0.14847 0.0
H2899 H 0.58371 0.61873 0.13208 0.0
H2900 H 0.60005 0.60433 0.11841 0.0
H2901 H 0.61347 0.58969 0.1169 0.0
H2902 H 0.62657 0.6049 0.08829 0.0
H2903 H 0.61325 0.61916 0.08959 0.0
H2904 H 0.60182 0.6368 0.07848 0.0
H2905 H 0.60537 0.65116 0.06547 0.0
H2906 H 0.58521 0.67314 0.08366 0.0
H2907 H 0.5816 0.65876 0.09696 0.0
N2908 N 0.58429 0.63955 0.10632 0.0
N2909 N 0.59114 0.62323 0.11357 0.0
N2910 N 0.59741 0.62954 0.09694 0.0
C2911 C 0.58438 0.63196 0.11437 0.0
C2912 C 0.59768 0.62199 0.10486 0.0
C2913 C 0.5908 0.6383 0.09752 0.0
C2914 C 0.57759 0.6333 0.12419 0.0
C2915 C 0.57049 0.6422 0.12539 0.0
C2916 C 0.56447 0.64352 0.13491 0.0
C2917 C 0.56536 0.6359 0.1433 0.0
C2918 C 0.57228 0.62696 0.14206 0.0
C2919 C 0.57835 0.62568 0.13265 0.0
C2920 C 0.6055 0.61289 0.10409 0.0
C2921 C 0.60576 0.60447 0.11177 0.0
C2922 C 0.61345 0.59611 0.11093 0.0
C2923 C 0.62098 0.59606 0.10239 0.0
C2924 C 0.62071 0.60452 0.0948 0.0
C2925 C 0.61307 0.61278 0.0956 0.0
C2926 C 0.59154 0.64666 0.08891 0.0
C2927 C 0.59801 0.64463 0.07974 0.0
C2928 C 0.10078 0.86579 0.94945 0.0
C2929 C 0.09763 0.85504 0.94748 0.0
C2930 C 0.09077 0.85264 0.93873 0.0
C2931 C 0.08793 0.8608 0.9314 0.0
H2932 H 0.06911 0.87014 0.90178 0.0
H2933 H 0.0591 0.86846 0.88458 0.0
H2934 H 0.08001 0.89315 0.87081 0.0
H2935 H 0.0891 0.89532 0.88761 0.0
H2936 H 0.10151 0.91088 0.90069 0.0
H2937 H 0.11479 0.92502 0.90005 0.0
H2938 H 0.12671 0.91545 0.93166 0.0
H2939 H 0.11393 0.90044 0.93164 0.0
H2940 H 0.10114 0.88204 0.94356 0.0
H2941 H 0.1062 0.86774 0.9561 0.0
H2942 H 0.0884 0.8443 0.93707 0.0
H2943 H 0.08327 0.8586 0.92429 0.0
N2944 N 0.08539 0.87762 0.91483 0.0
N2945 N 0.09265 0.89346 0.90715 0.0
N2946 N 0.0983 0.88817 0.92429 0.0
C2947 C 0.08589 0.88474 0.90643 0.0
C2948 C 0.09887 0.89525 0.91598 0.0
C2949 C 0.09156 0.8794 0.92386 0.0
C2950 C 0.07978 0.88302 0.8962 0.0
C2951 C 0.07139 0.87527 0.89505 0.0
C2952 C 0.0657 0.87428 0.88518 0.0
C2953 C 0.06842 0.88094 0.87631 0.0
C2954 C 0.07715 0.88826 0.87749 0.0
C2955 C 0.08256 0.88942 0.88724 0.0
C2956 C 0.10661 0.90448 0.91621 0.0
C2957 C 0.10697 0.91176 0.90751 0.0
C2958 C 0.1146 0.92012 0.90728 0.0
C2959 C 0.12195 0.92178 0.91591 0.0
C2960 C 0.12143 0.91454 0.92473 0.0
C2961 C 0.11395 0.90594 0.92482 0.0
C2962 C 0.09204 0.87139 0.93274 0.0
C2963 C 0.09798 0.87393 0.94216 0.0
C2964 C 0.94715 0.91512 0.65484 0.0
C2965 C 0.94572 0.91996 0.66502 0.0
C2966 C 0.93769 0.92804 0.66616 0.0
C2967 C 0.93063 0.93048 0.65762 0.0
H2968 H 0.90284 0.94852 0.64874 0.0
H2969 H 0.88592 0.95835 0.65226 0.0
H2970 H 0.87174 0.94467 0.62343 0.0
H2971 H 0.88848 0.93481 0.61981 0.0
H2972 H 0.90213 0.91839 0.60507 0.0
H2973 H 0.90288 0.90506 0.59031 0.0
H2974 H 0.92997 0.88923 0.60578 0.0
H2975 H 0.92949 0.9025 0.62037 0.0
H2976 H 0.94126 0.91334 0.63873 0.0
H2977 H 0.9532 0.90886 0.65361 0.0
H2978 H 0.93655 0.93218 0.6738 0.0
H2979 H 0.92419 0.93632 0.65896 0.0
N2980 N 0.91461 0.93311 0.64028 0.0
N2981 N 0.90701 0.92652 0.62409 0.0
N2982 N 0.92332 0.91928 0.63059 0.0
C2983 C 0.90657 0.93344 0.63268 0.0
C2984 C 0.91539 0.91943 0.62299 0.0
C2985 C 0.92307 0.92606 0.63922 0.0
C2986 C 0.89702 0.94073 0.63405 0.0
C2987 C 0.89624 0.94782 0.64297 0.0
C2988 C 0.88662 0.95359 0.64493 0.0
C2989 C 0.87767 0.95245 0.63797 0.0
C2990 C 0.87866 0.94592 0.62873 0.0
C2991 C 0.88823 0.94015 0.62677 0.0
C2992 C 0.91575 0.91155 0.61392 0.0
C2993 C 0.90828 0.9121 0.60531 0.0
C2994 C 0.9087 0.90452 0.59686 0.0
C2995 C 0.91646 0.89618 0.59701 0.0
C2996 C 0.92389 0.89559 0.60557 0.0
C2997 C 0.9236 0.90323 0.6139 0.0
C2998 C 0.93152 0.92497 0.64772 0.0
C2999 C 0.94017 0.91762 0.6463 0.0
C3000 C 0.86274 0.0702 0.41351 0.0
C3001 C 0.85243 0.07156 0.41802 0.0
C3002 C 0.8505 0.08033 0.42502 0.0
C3003 C 0.85872 0.08797 0.4271 0.0
H3004 H 0.86843 0.11578 0.44561 0.0
H3005 H 0.86577 0.1323 0.4564 0.0
H3006 H 0.89264 0.14765 0.4401 0.0
H3007 H 0.89553 0.13125 0.42944 0.0
H3008 H 0.91225 0.1159 0.41478 0.0
H3009 H 0.92682 0.11421 0.4013 0.0
H3010 H 0.90855 0.08856 0.38555 0.0
H3011 H 0.89477 0.08974 0.39902 0.0
H3012 H 0.87874 0.07657 0.41173 0.0
H3013 H 0.86435 0.06343 0.40813 0.0
H3014 H 0.84254 0.08145 0.42858 0.0
H3015 H 0.85693 0.09488 0.43222 0.0
N3016 N 0.87612 0.10429 0.42968 0.0
N3017 N 0.89232 0.11191 0.42289 0.0
N3018 N 0.88602 0.09522 0.41633 0.0
C3019 C 0.88365 0.11246 0.42971 0.0
C3020 C 0.89353 0.10329 0.41616 0.0
C3021 C 0.87733 0.09558 0.42301 0.0
C3022 C 0.88218 0.12218 0.43662 0.0
C3023 C 0.87382 0.12264 0.44436 0.0
C3024 C 0.87229 0.13204 0.45054 0.0
C3025 C 0.87899 0.14114 0.44895 0.0
C3026 C 0.88738 0.14069 0.44136 0.0
C3027 C 0.88901 0.13128 0.4353 0.0
C3028 C 0.90243 0.1028 0.40813 0.0
C3029 C 0.9115 0.10983 0.40847 0.0
C3030 C 0.9198 0.10891 0.40071 0.0
C3031 C 0.91909 0.10101 0.39247 0.0
C3032 C 0.90976 0.09438 0.39201 0.0
C3033 C 0.9017 0.09514 0.39976 0.0
C3034 C 0.86896 0.08691 0.42216 0.0
C3035 C 0.87094 0.07776 0.41559 0.0
C3036 C 0.56861 0.09903 0.15281 0.0
C3037 C 0.57093 0.0987 0.16394 0.0
C3038 C 0.58092 0.09425 0.1673 0.0
C3039 C 0.58888 0.09148 0.15964 0.0
H3040 H 0.61798 0.07254 0.15091 0.0
H3041 H 0.6347 0.06186 0.15304 0.0
H3042 H 0.64714 0.07538 0.12342 0.0
H3043 H 0.63073 0.08608 0.12126 0.0
H3044 H 0.61711 0.10155 0.10684 0.0
H3045 H 0.61609 0.11459 0.09187 0.0
H3046 H 0.58712 0.12846 0.10563 0.0
H3047 H 0.588 0.11557 0.12057 0.0
H3048 H 0.57474 0.09777 0.13676 0.0
H3049 H 0.56088 0.10209 0.14993 0.0
H3050 H 0.58293 0.0938 0.17581 0.0
H3051 H 0.59678 0.08879 0.16243 0.0
N3052 N 0.6049 0.08677 0.14197 0.0
N3053 N 0.61219 0.09356 0.12576 0.0
N3054 N 0.59523 0.09956 0.13169 0.0
C3055 C 0.61306 0.08695 0.13453 0.0
C3056 C 0.60332 0.09992 0.12429 0.0
C3057 C 0.59589 0.09302 0.14051 0.0
C3058 C 0.62298 0.08022 0.13593 0.0
C3059 C 0.62428 0.07325 0.14486 0.0
C3060 C 0.63383 0.06716 0.14611 0.0
C3061 C 0.64214 0.06784 0.13838 0.0
C3062 C 0.6408 0.07468 0.12944 0.0
C3063 C 0.63137 0.08082 0.12824 0.0
C3064 C 0.60264 0.10749 0.11495 0.0
C3065 C 0.6105 0.10736 0.10668 0.0
C3066 C 0.60994 0.11478 0.09812 0.0
C3067 C 0.60153 0.12246 0.09769 0.0
C3068 C 0.59366 0.12257 0.10583 0.0
C3069 C 0.59418 0.11517 0.11437 0.0
C3070 C 0.58698 0.09329 0.14856 0.0
C3071 C 0.57659 0.09657 0.14524 0.0
C3072 C 0.65352 0.94716 0.91845 0.0
C3073 C 0.66416 0.94519 0.92194 0.0
C3074 C 0.66622 0.93644 0.9289 0.0
C3075 C 0.65788 0.92918 0.93162 0.0
H3076 H 0.64854 0.90079 0.95019 0.0
H3077 H 0.65086 0.88411 0.96086 0.0
H3078 H 0.62389 0.8693 0.94407 0.0
H3079 H 0.62136 0.88579 0.93353 0.0
H3080 H 0.60473 0.9015 0.92163 0.0
H3081 H 0.58968 0.90151 0.90932 0.0
H3082 H 0.60585 0.92612 0.88999 0.0
H3083 H 0.62033 0.92688 0.9032 0.0
H3084 H 0.6372 0.9413 0.9177 0.0
H3085 H 0.65181 0.9538 0.91296 0.0
H3086 H 0.67444 0.93476 0.93158 0.0
H3087 H 0.65984 0.92213 0.93647 0.0
N3088 N 0.64063 0.91288 0.93438 0.0
N3089 N 0.6246 0.90513 0.92748 0.0
N3090 N 0.63044 0.92204 0.92116 0.0
C3091 C 0.63329 0.90455 0.93423 0.0
C3092 C 0.62311 0.91382 0.92093 0.0
C3093 C 0.63917 0.92171 0.92788 0.0
C3094 C 0.63478 0.89467 0.94097 0.0
C3095 C 0.64307 0.89401 0.9488 0.0
C3096 C 0.6444 0.88451 0.95491 0.0
C3097 C 0.63755 0.87552 0.95319 0.0
C3098 C 0.62926 0.87616 0.94547 0.0
C3099 C 0.62784 0.88564 0.93946 0.0
C3100 C 0.6138 0.91409 0.91335 0.0
C3101 C 0.60502 0.90698 0.91479 0.0
C3102 C 0.59638 0.90688 0.90749 0.0
C3103 C 0.59647 0.9135 0.89816 0.0
C3104 C 0.60522 0.92086 0.89694 0.0
C3105 C 0.61368 0.92124 0.90451 0.0
C3106 C 0.64741 0.93052 0.92723 0.0
C3107 C 0.64521 0.93989 0.92107 0.0
C3108 C 0.87994 0.0734 0.89253 0.0
C3109 C 0.87853 0.06552 0.8844 0.0
C3110 C 0.88731 0.06334 0.87744 0.0
C3111 C 0.89732 0.06879 0.87881 0.0
H3112 H 0.92616 0.07989 0.8626 0.0
H3113 H 0.93791 0.08521 0.84761 0.0
H3114 H 0.95734 0.10477 0.86923 0.0
H3115 H 0.94567 0.0996 0.88425 0.0
H3116 H 0.93437 0.11105 0.90302 0.0
H3117 H 0.93472 0.12475 0.91727 0.0
H3118 H 0.90471 0.11213 0.93011 0.0
H3119 H 0.90428 0.0982 0.9159 0.0
H3120 H 0.8904 0.08462 0.90041 0.0
H3121 H 0.87332 0.07562 0.89783 0.0
H3122 H 0.8865 0.05732 0.87109 0.0
H3123 H 0.90396 0.06695 0.87339 0.0
N3124 N 0.91722 0.08237 0.88155 0.0
N3125 N 0.92694 0.09519 0.89186 0.0
N3126 N 0.90991 0.08924 0.89768 0.0
C3127 C 0.92629 0.08862 0.88305 0.0
C3128 C 0.91883 0.09555 0.89923 0.0
C3129 C 0.909 0.08261 0.88891 0.0
C3130 C 0.93476 0.08955 0.87458 0.0
C3131 C 0.93309 0.08508 0.86425 0.0
C3132 C 0.93984 0.08808 0.85567 0.0
C3133 C 0.94842 0.09545 0.85731 0.0
C3134 C 0.95079 0.09903 0.8678 0.0
C3135 C 0.94401 0.09613 0.87637 0.0
C3136 C 0.9193 0.10347 0.90829 0.0
C3137 C 0.92787 0.11106 0.90891 0.0
C3138 C 0.92809 0.11893 0.91704 0.0
C3139 C 0.91975 0.11943 0.92469 0.0
C3140 C 0.91121 0.11187 0.92422 0.0
C3141 C 0.911 0.10391 0.91611 0.0
C3142 C 0.89869 0.07648 0.88719 0.0
C3143 C 0.88983 0.07867 0.89397 0.0
C3144 C 0.62796 0.13949 0.57217 0.0
C3145 C 0.63676 0.14047 0.5651 0.0
C3146 C 0.64392 0.13171 0.56376 0.0
C3147 C 0.64234 0.12208 0.56959 0.0
H3148 H 0.65937 0.09453 0.58214 0.0
H3149 H 0.67398 0.08166 0.58657 0.0
H3150 H 0.65142 0.06232 0.605 0.0
H3151 H 0.63689 0.07499 0.60076 0.0
H3152 H 0.61531 0.08345 0.60723 0.0
H3153 H 0.60171 0.08197 0.62082 0.0
H3154 H 0.59376 0.11607 0.61672 0.0
H3155 H 0.60678 0.11709 0.60201 0.0
H3156 H 0.61954 0.1295 0.58346 0.0
H3157 H 0.62237 0.1462 0.57327 0.0
H3158 H 0.65073 0.13236 0.55828 0.0
H3159 H 0.64802 0.11545 0.56846 0.0
N3160 N 0.63973 0.10318 0.58361 0.0
N3161 N 0.62934 0.0935 0.59617 0.0
N3162 N 0.62306 0.1102 0.58979 0.0
C3163 C 0.63838 0.09428 0.59 0.0
C3164 C 0.62165 0.10135 0.59614 0.0
C3165 C 0.63203 0.11115 0.58341 0.0
C3166 C 0.64697 0.08591 0.59121 0.0
C3167 C 0.6575 0.08748 0.58704 0.0
C3168 C 0.66586 0.08019 0.58961 0.0
C3169 C 0.66377 0.07119 0.59625 0.0
C3170 C 0.6532 0.06929 0.59994 0.0
C3171 C 0.64489 0.07657 0.59748 0.0
C3172 C 0.61238 0.10047 0.6037 0.0
C3173 C 0.6106 0.09064 0.60912 0.0
C3174 C 0.60285 0.08988 0.61721 0.0
C3175 C 0.59694 0.09908 0.62062 0.0
C3176 C 0.59818 0.10878 0.61464 0.0
C3177 C 0.60575 0.10942 0.60619 0.0
C3178 C 0.63358 0.1211 0.57683 0.0
C3179 C 0.62637 0.12991 0.57797 0.0
C3180 C 0.57074 0.9115 0.36478 0.0
C3181 C 0.57084 0.91605 0.35434 0.0
C3182 C 0.5795 0.92311 0.35168 0.0
C3183 C 0.58778 0.92541 0.3593 0.0
H3184 H 0.61538 0.94513 0.36852 0.0
H3185 H 0.63177 0.95547 0.36445 0.0
H3186 H 0.6479 0.94142 0.39204 0.0
H3187 H 0.6315 0.93099 0.39623 0.0
H3188 H 0.61705 0.91524 0.41237 0.0
H3189 H 0.61605 0.90221 0.42735 0.0
H3190 H 0.58885 0.88625 0.41196 0.0
H3191 H 0.58963 0.89918 0.39718 0.0
H3192 H 0.57799 0.91019 0.38017 0.0
H3193 H 0.56475 0.90556 0.36724 0.0
H3194 H 0.57997 0.92678 0.34376 0.0
H3195 H 0.59448 0.93065 0.35699 0.0
N3196 N 0.60469 0.92906 0.37655 0.0
N3197 N 0.61234 0.92301 0.39297 0.0
N3198 N 0.59609 0.9155 0.38665 0.0
C3199 C 0.61273 0.92966 0.38416 0.0
C3200 C 0.60398 0.9159 0.39425 0.0
C3201 C 0.59628 0.92198 0.37781 0.0
C3202 C 0.62215 0.93705 0.38259 0.0
C3203 C 0.62232 0.94435 0.37386 0.0
C3204 C 0.63167 0.95036 0.37157 0.0
C3205 C 0.64105 0.94923 0.37794 0.0
C3206 C 0.64071 0.94253 0.38709 0.0
C3207 C 0.63134 0.93648 0.3894 0.0
C3208 C 0.60346 0.90828 0.40353 0.0
C3209 C 0.61083 0.90898 0.4122 0.0
C3210 C 0.61025 0.90157 0.42078 0.0
C3211 C 0.60241 0.89323 0.42073 0.0
C3212 C 0.59503 0.89255 0.41213 0.0
C3213 C 0.59548 0.90002 0.40367 0.0
C3214 C 0.58745 0.92073 0.36969 0.0
C3215 C 0.57867 0.91398 0.37231 0.0
C3216 C 0.89004 0.87941 0.07226 0.0
C3217 C 0.88068 0.87832 0.06576 0.0
C3218 C 0.87351 0.88724 0.06513 0.0
C3219 C 0.87552 0.89681 0.07095 0.0
H3220 H 0.86006 0.9251 0.08225 0.0
H3221 H 0.84545 0.93799 0.08642 0.0
H3222 H 0.86686 0.95542 0.10796 0.0
H3223 H 0.88151 0.94281 0.10382 0.0
H3224 H 0.90013 0.93038 0.11493 0.0
H3225 H 0.91432 0.92923 0.12855 0.0
H3226 H 0.92984 0.9037 0.1101 0.0
H3227 H 0.91525 0.90431 0.09699 0.0
H3228 H 0.89917 0.8893 0.08322 0.0
H3229 H 0.89594 0.87292 0.07282 0.0
H3230 H 0.86611 0.88678 0.06041 0.0
H3231 H 0.86973 0.90341 0.07032 0.0
N3232 N 0.87893 0.91564 0.08488 0.0
N3233 N 0.88945 0.92486 0.09782 0.0
N3234 N 0.89549 0.90828 0.09081 0.0
C3235 C 0.88042 0.92436 0.09154 0.0
C3236 C 0.89704 0.91691 0.09749 0.0
C3237 C 0.8865 0.90757 0.08445 0.0
C3238 C 0.87192 0.93279 0.09282 0.0
C3239 C 0.86171 0.93175 0.08777 0.0
C3240 C 0.85335 0.93907 0.09016 0.0
C3241 C 0.85508 0.94747 0.09764 0.0
C3242 C 0.86537 0.94886 0.10229 0.0
C3243 C 0.87373 0.94163 0.09987 0.0
C3244 C 0.90642 0.91725 0.10499 0.0
C3245 C 0.9066 0.92454 0.11377 0.0
C3246 C 0.91483 0.92395 0.12157 0.0
C3247 C 0.92315 0.91617 0.12065 0.0
C3248 C 0.92335 0.90949 0.11139 0.0
C3249 C 0.91501 0.9099 0.10376 0.0
C3250 C 0.88469 0.89772 0.07767 0.0
C3251 C 0.89197 0.88892 0.07817 0.0
C3252 C 0.12727 0.63903 0.07003 0.0
C3253 C 0.13656 0.6401 0.06359 0.0
C3254 C 0.14342 0.63112 0.06219 0.0
C3255 C 0.14138 0.62139 0.0677 0.0
H3256 H 0.15941 0.594 0.08156 0.0
H3257 H 0.17345 0.58043 0.08622 0.0
H3258 H 0.15016 0.56402 0.10665 0.0
H3259 H 0.13642 0.57654 0.1015 0.0
H3260 H 0.12038 0.58814 0.11281 0.0
H3261 H 0.10736 0.58733 0.12696 0.0
H3262 H 0.08928 0.61368 0.11237 0.0
H3263 H 0.10317 0.61502 0.0982 0.0
H3264 H 0.11824 0.62903 0.08086 0.0
H3265 H 0.12205 0.64598 0.07145 0.0
H3266 H 0.15079 0.63189 0.05746 0.0
H3267 H 0.1471 0.61477 0.06684 0.0
N3268 N 0.13912 0.60319 0.0825 0.0
N3269 N 0.12945 0.59448 0.09621 0.0
N3270 N 0.12253 0.61045 0.08886 0.0
C3271 C 0.13819 0.59482 0.08962 0.0
C3272 C 0.12163 0.60215 0.096 0.0
C3273 C 0.13121 0.61099 0.082 0.0
C3274 C 0.14675 0.58642 0.09114 0.0
C3275 C 0.15732 0.5873 0.08684 0.0
C3276 C 0.16539 0.57962 0.08961 0.0
C3277 C 0.16297 0.571 0.09672 0.0
C3278 C 0.15237 0.57026 0.10089 0.0
C3279 C 0.14441 0.57764 0.098 0.0
C3280 C 0.11286 0.60162 0.10423 0.0
C3281 C 0.11365 0.59379 0.11245 0.0
C3282 C 0.10598 0.59321 0.12061 0.0
C3283 C 0.09697 0.60021 0.12077 0.0
C3284 C 0.09609 0.60812 0.11255 0.0
C3285 C 0.104 0.60885 0.10437 0.0
C3286 C 0.13247 0.62054 0.07477 0.0
C3287 C 0.12521 0.62935 0.07553 0.0
C3288 C 0.06993 0.41137 0.86356 0.0
C3289 C 0.07081 0.41686 0.8536 0.0
C3290 C 0.07856 0.42534 0.85284 0.0
C3291 C 0.08587 0.42741 0.86126 0.0
H3292 H 0.11461 0.44317 0.86807 0.0
H3293 H 0.13081 0.45376 0.86437 0.0
H3294 H 0.14498 0.44268 0.89443 0.0
H3295 H 0.12908 0.43156 0.89772 0.0
H3296 H 0.11586 0.41506 0.91275 0.0
H3297 H 0.1161 0.40132 0.92703 0.0
H3298 H 0.08629 0.38759 0.91471 0.0
H3299 H 0.08595 0.40117 0.90038 0.0
H3300 H 0.07624 0.40898 0.87942 0.0
H3301 H 0.06423 0.4048 0.86478 0.0
H3302 H 0.07926 0.4303 0.84568 0.0
H3303 H 0.09206 0.43359 0.86013 0.0
N3304 N 0.10267 0.429 0.87771 0.0
N3305 N 0.11021 0.42312 0.89413 0.0
N3306 N 0.09343 0.41622 0.88829 0.0
C3307 C 0.11085 0.42943 0.88512 0.0
C3308 C 0.10148 0.41652 0.89579 0.0
C3309 C 0.09392 0.42244 0.87926 0.0
C3310 C 0.12053 0.43641 0.88316 0.0
C3311 C 0.1212 0.44296 0.87388 0.0
C3312 C 0.13051 0.44918 0.87181 0.0
C3313 C 0.13938 0.44912 0.87902 0.0
C3314 C 0.13853 0.44278 0.88847 0.0
C3315 C 0.1293 0.43645 0.89045 0.0
C3316 C 0.10096 0.40919 0.90532 0.0
C3317 C 0.10921 0.40929 0.9132 0.0
C3318 C 0.10929 0.40153 0.92147 0.0
C3319 C 0.10107 0.39362 0.92208 0.0
C3320 C 0.09253 0.39383 0.91458 0.0
C3321 C 0.09245 0.40154 0.90629 0.0
C3322 C 0.08539 0.42135 0.87085 0.0
C3323 C 0.07702 0.41368 0.87207 0.0
C3324 C 0.38969 0.3787 0.57441 0.0
C3325 C 0.38137 0.37809 0.56669 0.0
C3326 C 0.37496 0.3873 0.56467 0.0
C3327 C 0.37668 0.39693 0.57051 0.0
H3328 H 0.36016 0.42473 0.58265 0.0
H3329 H 0.34544 0.43751 0.58676 0.0
H3330 H 0.36684 0.45552 0.60785 0.0
H3331 H 0.38159 0.44299 0.6038 0.0
H3332 H 0.40103 0.43136 0.61452 0.0
H3333 H 0.41525 0.43023 0.62824 0.0
H3334 H 0.42938 0.40298 0.61129 0.0
H3335 H 0.415 0.40379 0.5979 0.0
H3336 H 0.39802 0.38846 0.58604 0.0
H3337 H 0.39478 0.3717 0.57602 0.0
H3338 H 0.36849 0.38698 0.55871 0.0
H3339 H 0.3715 0.40386 0.56892 0.0
N3340 N 0.37914 0.41556 0.58523 0.0
N3341 N 0.38966 0.42501 0.59803 0.0
N3342 N 0.39575 0.40838 0.59121 0.0
C3343 C 0.3806 0.42436 0.59178 0.0
C3344 C 0.3973 0.4171 0.59777 0.0
C3345 C 0.38674 0.40753 0.58489 0.0
C3346 C 0.37203 0.43271 0.59302 0.0
C3347 C 0.36179 0.43147 0.58806 0.0
C3348 C 0.35336 0.43872 0.59042 0.0
C3349 C 0.35508 0.44727 0.59774 0.0
C3350 C 0.36538 0.44885 0.60228 0.0
C3351 C 0.37379 0.44167 0.59993 0.0
C3352 C 0.40673 0.41751 0.60522 0.0
C3353 C 0.40724 0.4252 0.61365 0.0
C3354 C 0.41546 0.42462 0.62149 0.0
C3355 C 0.42334 0.41639 0.62099 0.0
C3356 C 0.42326 0.40925 0.61209 0.0
C3357 C 0.41502 0.40973 0.60437 0.0
C3358 C 0.38499 0.39755 0.57833 0.0
C3359 C 0.39155 0.38834 0.5801 0.0
C3360 C 0.07066 0.60393 0.6533 0.0
C3361 C 0.07083 0.5994 0.66375 0.0
C3362 C 0.0795 0.5924 0.66642 0.0
C3363 C 0.08771 0.59011 0.65879 0.0
H3364 H 0.11889 0.57423 0.6517 0.0
H3365 H 0.13637 0.56489 0.65405 0.0
H3366 H 0.14351 0.57026 0.62033 0.0
H3367 H 0.12668 0.57999 0.61815 0.0
H3368 H 0.11643 0.60017 0.60552 0.0
H3369 H 0.11549 0.61321 0.59053 0.0
H3370 H 0.0884 0.62917 0.60579 0.0
H3371 H 0.08907 0.61619 0.62059 0.0
H3372 H 0.07772 0.60518 0.63787 0.0
H3373 H 0.0647 0.60987 0.65082 0.0
H3374 H 0.08003 0.58877 0.67436 0.0
H3375 H 0.09443 0.58492 0.66108 0.0
N3376 N 0.10436 0.58636 0.64141 0.0
N3377 N 0.11164 0.5923 0.62481 0.0
N3378 N 0.0957 0.59997 0.63136 0.0
C3379 C 0.11217 0.58567 0.63363 0.0
C3380 C 0.1034 0.5995 0.62363 0.0
C3381 C 0.096 0.59349 0.64022 0.0
C3382 C 0.12158 0.57824 0.63484 0.0
C3383 C 0.12419 0.57331 0.64479 0.0
C3384 C 0.13415 0.56787 0.64612 0.0
C3385 C 0.14153 0.56721 0.63749 0.0
C3386 C 0.13823 0.57102 0.62728 0.0
C3387 C 0.12852 0.57661 0.62602 0.0
C3388 C 0.10286 0.60711 0.61431 0.0
C3389 C 0.11024 0.60642 0.60566 0.0
C3390 C 0.1097 0.61384 0.59708 0.0
C3391 C 0.10191 0.62217 0.5971 0.0
C3392 C 0.09452 0.62284 0.60566 0.0
C3393 C 0.09493 0.61536 0.61412 0.0
C3394 C 0.08728 0.59474 0.64838 0.0
C3395 C 0.07848 0.60143 0.64575 0.0
C3396 C 0.44715 0.41561 0.15516 0.0
C3397 C 0.44535 0.42 0.16547 0.0
C3398 C 0.43703 0.42772 0.16681 0.0
C3399 C 0.43003 0.43024 0.15826 0.0
H3400 H 0.40092 0.44664 0.15036 0.0
H3401 H 0.38409 0.45706 0.15281 0.0
H3402 H 0.37128 0.4435 0.12325 0.0
H3403 H 0.38777 0.43305 0.12077 0.0
H3404 H 0.3998 0.4155 0.10772 0.0
H3405 H 0.40034 0.40091 0.09417 0.0
H3406 H 0.4336 0.39418 0.10305 0.0
H3407 H 0.43302 0.40825 0.11668 0.0
H3408 H 0.4415 0.41416 0.13892 0.0
H3409 H 0.45346 0.40963 0.15384 0.0
H3410 H 0.43561 0.43143 0.17462 0.0
H3411 H 0.42337 0.43579 0.15973 0.0
N3412 N 0.41379 0.43238 0.14124 0.0
N3413 N 0.40665 0.42632 0.12466 0.0
N3414 N 0.42356 0.42007 0.13057 0.0
C3415 C 0.4057 0.43252 0.1337 0.0
C3416 C 0.41557 0.42013 0.123 0.0
C3417 C 0.42279 0.42617 0.13967 0.0
C3418 C 0.39573 0.43902 0.13536 0.0
C3419 C 0.39451 0.44587 0.1444 0.0
C3420 C 0.38492 0.45182 0.14582 0.0
C3421 C 0.37652 0.45106 0.13817 0.0
C3422 C 0.37773 0.44427 0.12918 0.0
C3423 C 0.3872 0.43828 0.1278 0.0
C3424 C 0.41627 0.41282 0.11351 0.0
C3425 C 0.40728 0.411 0.10665 0.0
C3426 C 0.40759 0.40273 0.09882 0.0
C3427 C 0.41692 0.39627 0.09776 0.0
C3428 C 0.42621 0.39889 0.10387 0.0
C3429 C 0.42586 0.40695 0.11172 0.0
C3430 C 0.43124 0.42512 0.14818 0.0
C3431 C 0.44018 0.41815 0.14661 0.0
C3432 C 0.69437 0.38888 0.13822 0.0
C3433 C 0.69972 0.39031 0.12833 0.0
C3434 C 0.70006 0.38161 0.12096 0.0
C3435 C 0.69453 0.37192 0.12309 0.0
H3436 H 0.68144 0.34408 0.1072 0.0
H3437 H 0.67571 0.33115 0.09312 0.0
H3438 H 0.6608 0.311 0.11747 0.0
H3439 H 0.66607 0.32388 0.13133 0.0
H3440 H 0.65354 0.33599 0.15035 0.0
H3441 H 0.63966 0.33705 0.16437 0.0
H3442 H 0.65306 0.36782 0.17495 0.0
H3443 H 0.66644 0.36707 0.16071 0.0
H3444 H 0.68442 0.3785 0.1479 0.0
H3445 H 0.69393 0.39547 0.14402 0.0
H3446 H 0.70426 0.38245 0.11333 0.0
H3447 H 0.69464 0.36555 0.11704 0.0
N3448 N 0.68136 0.35274 0.127 0.0
N3449 N 0.66833 0.34361 0.13745 0.0
N3450 N 0.67519 0.36038 0.14326 0.0
C3451 C 0.67476 0.34399 0.12854 0.0
C3452 C 0.6685 0.35175 0.14486 0.0
C3453 C 0.68169 0.36094 0.13442 0.0
C3454 C 0.67383 0.33522 0.12033 0.0
C3455 C 0.67716 0.33675 0.10955 0.0
C3456 C 0.67399 0.3293 0.10149 0.0
C3457 C 0.66757 0.32024 0.10418 0.0
C3458 C 0.66556 0.31805 0.11513 0.0
C3459 C 0.66851 0.3255 0.12308 0.0
C3460 C 0.66097 0.35158 0.15421 0.0
C3461 C 0.65354 0.34297 0.15571 0.0
C3462 C 0.64564 0.3435 0.16383 0.0
C3463 C 0.64503 0.35264 0.17064 0.0
C3464 C 0.65302 0.36081 0.16963 0.0
C3465 C 0.66078 0.36036 0.16147 0.0
C3466 C 0.68857 0.37071 0.13268 0.0
C3467 C 0.68882 0.37918 0.14037 0.0
C3468 C 0.8202 0.63169 0.6414 0.0
C3469 C 0.81587 0.62898 0.63124 0.0
C3470 C 0.81663 0.63661 0.62284 0.0
C3471 C 0.82229 0.64646 0.62441 0.0
H3472 H 0.83018 0.67804 0.61131 0.0
H3473 H 0.83352 0.69099 0.59687 0.0
H3474 H 0.86173 0.7031 0.61411 0.0
H3475 H 0.85792 0.69077 0.62875 0.0
H3476 H 0.86022 0.68474 0.65351 0.0
H3477 H 0.8742 0.68473 0.66757 0.0
H3478 H 0.86688 0.65122 0.6747 0.0
H3479 H 0.85277 0.65114 0.66074 0.0
H3480 H 0.82952 0.64288 0.6508 0.0
H3481 H 0.81986 0.62589 0.64798 0.0
H3482 H 0.81355 0.63462 0.61487 0.0
H3483 H 0.82319 0.65196 0.61765 0.0
N3484 N 0.83549 0.66624 0.62822 0.0
N3485 N 0.8487 0.67525 0.63866 0.0
N3486 N 0.8411 0.65898 0.64488 0.0
C3487 C 0.84248 0.67477 0.6296 0.0
C3488 C 0.84808 0.66744 0.64635 0.0
C3489 C 0.8347 0.65833 0.63589 0.0
C3490 C 0.84387 0.68319 0.62113 0.0
C3491 C 0.837 0.68358 0.61207 0.0
C3492 C 0.83899 0.69099 0.60373 0.0
C3493 C 0.84807 0.69803 0.6041 0.0
C3494 C 0.85459 0.69797 0.61345 0.0
C3495 C 0.85247 0.69073 0.62186 0.0
C3496 C 0.85542 0.6679 0.6559 0.0
C3497 C 0.86136 0.67743 0.65825 0.0
C3498 C 0.86925 0.67751 0.66642 0.0
C3499 C 0.8714 0.66806 0.67236 0.0
C3500 C 0.86513 0.65869 0.67041 0.0
C3501 C 0.85715 0.65863 0.66233 0.0
C3502 C 0.82736 0.64876 0.6344 0.0
C3503 C 0.82589 0.6414 0.64296 0.0
C3504 C 0.69741 0.40435 0.6643 0.0
C3505 C 0.69691 0.41437 0.66972 0.0
C3506 C 0.6893 0.41563 0.67811 0.0
C3507 C 0.68191 0.40726 0.68053 0.0
H3508 H 0.65236 0.40065 0.69587 0.0
H3509 H 0.63538 0.40471 0.70509 0.0
H3510 H 0.62277 0.37312 0.69639 0.0
H3511 H 0.63975 0.36894 0.68709 0.0
H3512 H 0.6491 0.35936 0.66276 0.0
H3513 H 0.64999 0.34602 0.64801 0.0
H3514 H 0.68484 0.35038 0.64664 0.0
H3515 H 0.68388 0.36387 0.66082 0.0
H3516 H 0.69059 0.38859 0.66205 0.0
H3517 H 0.70336 0.40295 0.65802 0.0
H3518 H 0.68871 0.42325 0.68248 0.0
H3519 H 0.67591 0.40861 0.68677 0.0
N3520 N 0.66503 0.39036 0.68291 0.0
N3521 N 0.65741 0.37376 0.67704 0.0
N3522 N 0.67389 0.37989 0.66985 0.0
C3523 C 0.65697 0.38274 0.68351 0.0
C3524 C 0.66592 0.37226 0.67026 0.0
C3525 C 0.67356 0.38895 0.67608 0.0
C3526 C 0.64737 0.38455 0.69052 0.0
C3527 C 0.64609 0.39446 0.69606 0.0
C3528 C 0.63639 0.39678 0.7014 0.0
C3529 C 0.6278 0.38924 0.70138 0.0
C3530 C 0.62932 0.37902 0.69658 0.0
C3531 C 0.63902 0.37671 0.69116 0.0
C3532 C 0.66639 0.36287 0.66277 0.0
C3533 C 0.65695 0.35733 0.65937 0.0
C3534 C 0.65746 0.34966 0.65095 0.0
C3535 C 0.66745 0.34736 0.6459 0.0
C3536 C 0.67695 0.35223 0.65004 0.0
C3537 C 0.67641 0.35996 0.65824 0.0
C3538 C 0.68203 0.39747 0.67463 0.0
C3539 C 0.69008 0.39605 0.66669 0.0
C3540 C 0.364 0.56809 0.91447 0.0
C3541 C 0.35316 0.57004 0.91729 0.0
C3542 C 0.35067 0.57903 0.92383 0.0
C3543 C 0.35881 0.58655 0.92663 0.0
H3544 H 0.36821 0.6148 0.9458 0.0
H3545 H 0.36564 0.63139 0.95655 0.0
H3546 H 0.39214 0.64678 0.93968 0.0
H3547 H 0.39494 0.63033 0.92911 0.0
H3548 H 0.41199 0.61478 0.91705 0.0
H3549 H 0.42703 0.61479 0.90457 0.0
H3550 H 0.41145 0.58909 0.88615 0.0
H3551 H 0.39689 0.58852 0.89927 0.0
H3552 H 0.38026 0.5741 0.91433 0.0
H3553 H 0.36607 0.56125 0.90935 0.0
H3554 H 0.34231 0.58072 0.92598 0.0
H3555 H 0.35655 0.59381 0.93105 0.0
N3556 N 0.3761 0.60296 0.92988 0.0
N3557 N 0.39218 0.61075 0.92317 0.0
N3558 N 0.38646 0.59376 0.91684 0.0
C3559 C 0.3834 0.61132 0.92981 0.0
C3560 C 0.39378 0.60202 0.91667 0.0
C3561 C 0.37765 0.59409 0.92345 0.0
C3562 C 0.38177 0.62119 0.93656 0.0
C3563 C 0.37353 0.62169 0.94442 0.0
C3564 C 0.37207 0.63115 0.95059 0.0
C3565 C 0.37869 0.6403 0.94887 0.0
C3566 C 0.38691 0.63982 0.94109 0.0
C3567 C 0.3885 0.63036 0.93506 0.0
C3568 C 0.40316 0.60173 0.90914 0.0
C3569 C 0.41183 0.60907 0.91038 0.0
C3570 C 0.42046 0.60914 0.90305 0.0
C3571 C 0.42054 0.60213 0.89399 0.0
C3572 C 0.41193 0.59459 0.89296 0.0
C3573 C 0.40343 0.59432 0.90048 0.0
C3574 C 0.3695 0.58518 0.92282 0.0
C3575 C 0.37209 0.57556 0.91722 0.0
C3576 C 0.15412 0.44567 0.41906 0.0
C3577 C 0.16478 0.44357 0.42269 0.0
C3578 C 0.16649 0.43426 0.42913 0.0
C3579 C 0.15802 0.42699 0.43124 0.0
H3580 H 0.14806 0.39982 0.45017 0.0
H3581 H 0.15051 0.38324 0.46092 0.0
H3582 H 0.12352 0.36821 0.44435 0.0
H3583 H 0.12085 0.38465 0.43372 0.0
H3584 H 0.10415 0.40071 0.42205 0.0
H3585 H 0.08915 0.4005 0.40946 0.0
H3586 H 0.10515 0.42518 0.39025 0.0
H3587 H 0.11979 0.426 0.40345 0.0
H3588 H 0.13779 0.43994 0.41754 0.0
H3589 H 0.15215 0.45294 0.41456 0.0
H3590 H 0.17446 0.43212 0.43211 0.0
H3591 H 0.15977 0.41974 0.4359 0.0
N3592 N 0.14043 0.41143 0.4341 0.0
N3593 N 0.12402 0.40414 0.42769 0.0
N3594 N 0.1303 0.42077 0.42099 0.0
C3595 C 0.13284 0.40337 0.43424 0.0
C3596 C 0.12267 0.4128 0.42107 0.0
C3597 C 0.13916 0.42019 0.42751 0.0
C3598 C 0.13427 0.39358 0.44105 0.0
C3599 C 0.14261 0.39302 0.44885 0.0
C3600 C 0.14401 0.38358 0.455 0.0
C3601 C 0.1372 0.37457 0.45335 0.0
C3602 C 0.12885 0.37511 0.44568 0.0
C3603 C 0.12735 0.38454 0.43963 0.0
C3604 C 0.11325 0.41325 0.41367 0.0
C3605 C 0.10442 0.40619 0.41521 0.0
C3606 C 0.09583 0.40601 0.40788 0.0
C3607 C 0.09601 0.41258 0.39857 0.0
C3608 C 0.10464 0.42001 0.39729 0.0
C3609 C 0.11312 0.4204 0.40482 0.0
C3610 C 0.14768 0.42867 0.42677 0.0
C3611 C 0.14575 0.43824 0.42091 0.0
C3612 C 0.37813 0.57408 0.39225 0.0
C3613 C 0.37659 0.56584 0.38448 0.0
C3614 C 0.38545 0.56314 0.37777 0.0
C3615 C 0.39557 0.56846 0.37902 0.0
H3616 H 0.4242 0.58018 0.36203 0.0
H3617 H 0.43623 0.58469 0.34721 0.0
H3618 H 0.45586 0.6044 0.36874 0.0
H3619 H 0.44354 0.60029 0.38341 0.0
H3620 H 0.4315 0.61241 0.40155 0.0
H3621 H 0.4315 0.62618 0.41574 0.0
H3622 H 0.40433 0.61028 0.43104 0.0
H3623 H 0.40407 0.59651 0.41671 0.0
H3624 H 0.38876 0.58533 0.39982 0.0
H3625 H 0.37153 0.57696 0.39724 0.0
H3626 H 0.38465 0.55689 0.37166 0.0
H3627 H 0.40223 0.56628 0.37374 0.0
N3628 N 0.41539 0.58254 0.38107 0.0
N3629 N 0.42517 0.5954 0.39131 0.0
N3630 N 0.40844 0.58904 0.3975 0.0
C3631 C 0.42439 0.58894 0.38244 0.0
C3632 C 0.41727 0.59549 0.39889 0.0
C3633 C 0.40739 0.58252 0.38867 0.0
C3634 C 0.43272 0.59003 0.37387 0.0
C3635 C 0.43115 0.58537 0.36363 0.0
C3636 C 0.43814 0.58793 0.35512 0.0
C3637 C 0.44697 0.59512 0.35666 0.0
C3638 C 0.44897 0.59915 0.36711 0.0
C3639 C 0.44192 0.59668 0.37558 0.0
C3640 C 0.41776 0.60334 0.40796 0.0
C3641 C 0.42553 0.61177 0.40793 0.0
C3642 C 0.42552 0.6197 0.41601 0.0
C3643 C 0.41788 0.61927 0.42437 0.0
C3644 C 0.41028 0.61074 0.42462 0.0
C3645 C 0.41016 0.60288 0.41644 0.0
C3646 C 0.39702 0.57645 0.38708 0.0
C3647 C 0.38815 0.5791 0.39366 0.0
H3648 H 0.21327 0.42095 0.17976 0.0
H3649 H 0.20526 0.43329 0.14789 0.0
H3650 H 0.19385 0.41723 0.14445 0.0
H3651 H 0.2139 0.39207 0.17268 0.0
H3652 H 0.20723 0.38745 0.18479 0.0
H3653 H 0.21528 0.39973 0.18504 0.0
H3654 H 0.19881 0.41053 0.19234 0.0
H3655 H 0.19079 0.39824 0.19222 0.0
H3656 H 0.1861 0.4101 0.18507 0.0
H3657 H 0.1836 0.40054 0.14396 0.0
H3658 H 0.17323 0.38382 0.14695 0.0
H3659 H 0.1867 0.38136 0.17935 0.0
C3660 C 0.20917 0.42015 0.17205 0.0
C3661 C 0.2102 0.42831 0.16401 0.0
C3662 C 0.20459 0.42712 0.1541 0.0
C3663 C 0.19811 0.41803 0.15206 0.0
C3664 C 0.19722 0.41014 0.16004 0.0
C3665 C 0.20244 0.41106 0.1699 0.0
C3666 C 0.19945 0.40145 0.17712 0.0
C3667 C 0.20957 0.39478 0.18008 0.0
C3668 C 0.19343 0.40531 0.18729 0.0
C3669 C 0.19187 0.39507 0.16965 0.0
C3670 C 0.19086 0.4003 0.15985 0.0
C3671 C 0.18434 0.39629 0.15157 0.0
C3672 C 0.17854 0.3867 0.15333 0.0
C3673 C 0.17924 0.38113 0.16331 0.0
C3674 C 0.18602 0.3854 0.17162 0.0
H3675 H 0.81437 0.92512 0.36463 0.0
H3676 H 0.79803 0.92178 0.33372 0.0
H3677 H 0.8072 0.90419 0.33075 0.0
H3678 H 0.84001 0.91333 0.35738 0.0
H3679 H 0.84173 0.9061 0.36993 0.0
H3680 H 0.83391 0.91846 0.3696 0.0
H3681 H 0.81759 0.90813 0.37798 0.0
H3682 H 0.82534 0.8957 0.37813 0.0
H3683 H 0.81236 0.89614 0.37135 0.0
H3684 H 0.81805 0.88721 0.33092 0.0
H3685 H 0.83081 0.87209 0.33375 0.0
H3686 H 0.8403 0.88589 0.36468 0.0
C3687 C 0.81282 0.9207 0.35721 0.0
C3688 C 0.80551 0.92482 0.34936 0.0
C3689 C 0.80356 0.91875 0.33983 0.0
C3690 C 0.80872 0.90875 0.33808 0.0
C3691 C 0.81573 0.90482 0.34601 0.0
C3692 C 0.81781 0.91056 0.3554 0.0
C3693 C 0.82558 0.9043 0.36265 0.0
C3694 C 0.83592 0.91095 0.36502 0.0
C3695 C 0.81988 0.90087 0.37315 0.0
C3696 C 0.82797 0.89446 0.35561 0.0
C3697 C 0.822 0.89487 0.34615 0.0
C3698 C 0.8228 0.88682 0.33828 0.0
C3699 C 0.83011 0.87828 0.33995 0.0
C3700 C 0.83667 0.87785 0.34936 0.0
C3701 C 0.83537 0.88594 0.35742 0.0
H3702 H 0.31343 0.59417 0.64809 0.0
H3703 H 0.30289 0.5901 0.6812 0.0
H3704 H 0.31292 0.60686 0.68641 0.0
H3705 H 0.34015 0.60433 0.65315 0.0
H3706 H 0.33978 0.61411 0.64232 0.0
H3707 H 0.33175 0.60188 0.64143 0.0
H3708 H 0.3145 0.61368 0.63845 0.0
H3709 H 0.32255 0.62591 0.63959 0.0
H3710 H 0.31101 0.6239 0.6483 0.0
H3711 H 0.32384 0.62419 0.68785 0.0
H3712 H 0.33582 0.64007 0.68586 0.0
H3713 H 0.33987 0.63255 0.65179 0.0
C3714 C 0.31319 0.5969 0.65641 0.0
C3715 C 0.30729 0.59098 0.66425 0.0
C3716 C 0.30721 0.59466 0.67508 0.0
C3717 C 0.31291 0.60413 0.67809 0.0
C3718 C 0.31854 0.60986 0.67015 0.0
C3719 C 0.31872 0.6064 0.65953 0.0
C3720 C 0.32529 0.61413 0.65255 0.0
C3721 C 0.33481 0.60826 0.64704 0.0
C3722 C 0.3179 0.61974 0.64423 0.0
C3723 C 0.32923 0.62218 0.66098 0.0
C3724 C 0.32504 0.6197 0.67103 0.0
C3725 C 0.32729 0.6261 0.68004 0.0
C3726 C 0.33421 0.63509 0.67882 0.0
C3727 C 0.33909 0.63751 0.66872 0.0
C3728 C 0.33633 0.63103 0.65964 0.0
H3729 H 0.71203 0.09396 0.84237 0.0
H3730 H 0.70568 0.0848 0.87562 0.0
H3731 H 0.69383 0.10067 0.87779 0.0
H3732 H 0.71233 0.12327 0.84643 0.0
H3733 H 0.70499 0.1266 0.83426 0.0
H3734 H 0.71318 0.11448 0.83479 0.0
H3735 H 0.69655 0.10276 0.82934 0.0
H3736 H 0.68837 0.11489 0.82864 0.0
H3737 H 0.6842 0.10372 0.83709 0.0
H3738 H 0.68311 0.11677 0.877 0.0
H3739 H 0.67259 0.13307 0.87305 0.0
H3740 H 0.685 0.13319 0.84018 0.0
C3741 C 0.70823 0.09547 0.85011 0.0
C3742 C 0.70991 0.08831 0.85895 0.0
C3743 C 0.70461 0.09029 0.86886 0.0
C3744 C 0.69785 0.09925 0.87016 0.0
C3745 C 0.69638 0.10619 0.86144 0.0
C3746 C 0.70128 0.10448 0.85156 0.0
C3747 C 0.6978 0.1133 0.84358 0.0
C3748 C 0.70767 0.1198 0.83953 0.0
C3749 C 0.69135 0.10837 0.8341 0.0
C3750 C 0.69048 0.12025 0.85072 0.0
C3751 C 0.68984 0.11584 0.86095 0.0
C3752 C 0.68357 0.1204 0.86906 0.0
C3753 C 0.6777 0.12977 0.86675 0.0
C3754 C 0.67812 0.13462 0.8564 0.0
C3755 C 0.68457 0.12973 0.84821 0.0
H3756 H 0.19711 0.58495 0.35186 0.0
H3757 H 0.22837 0.59985 0.35944 0.0
H3758 H 0.21995 0.61778 0.35926 0.0
H3759 H 0.18598 0.60545 0.33505 0.0
H3760 H 0.17254 0.60508 0.34083 0.0
H3761 H 0.18092 0.59308 0.34106 0.0
H3762 H 0.17884 0.59195 0.36185 0.0
H3763 H 0.17043 0.60394 0.36167 0.0
H3764 H 0.18242 0.60356 0.37004 0.0
H3765 H 0.20847 0.63428 0.35852 0.0
H3766 H 0.19404 0.64827 0.35773 0.0
H3767 H 0.17003 0.62312 0.3516 0.0
C3768 C 0.20222 0.59193 0.35352 0.0
C3769 C 0.21359 0.5908 0.35525 0.0
C3770 C 0.2198 0.60032 0.35752 0.0
C3771 C 0.21506 0.61063 0.3576 0.0
C3772 C 0.20398 0.61143 0.35571 0.0
C3773 C 0.19756 0.60237 0.3539 0.0
C3774 C 0.1857 0.6056 0.35275 0.0
C3775 C 0.18102 0.60209 0.34176 0.0
C3776 C 0.17895 0.60098 0.36213 0.0
C3777 C 0.18663 0.61787 0.35362 0.0
C3778 C 0.19724 0.62104 0.35553 0.0
C3779 C 0.20012 0.63192 0.35701 0.0
C3780 C 0.19191 0.63979 0.35657 0.0
C3781 C 0.18101 0.63672 0.35454 0.0
C3782 C 0.17835 0.62564 0.35302 0.0
H3783 H 0.71232 0.92255 0.6805 0.0
H3784 H 0.70719 0.93337 0.64753 0.0
H3785 H 0.69637 0.91696 0.64378 0.0
H3786 H 0.71378 0.89339 0.67508 0.0
H3787 H 0.70595 0.88933 0.68669 0.0
H3788 H 0.71384 0.9017 0.6871 0.0
H3789 H 0.6966 0.9126 0.69217 0.0
H3790 H 0.68875 0.90021 0.69184 0.0
H3791 H 0.6847 0.91164 0.68368 0.0
H3792 H 0.68629 0.90008 0.64315 0.0
H3793 H 0.67572 0.88349 0.646 0.0
H3794 H 0.68624 0.88267 0.67955 0.0
C3795 C 0.70886 0.92142 0.67253 0.0
C3796 C 0.71052 0.92929 0.66427 0.0
C3797 C 0.7059 0.92755 0.65396 0.0
C3798 C 0.69981 0.91821 0.65173 0.0
C3799 C 0.69827 0.91065 0.65993 0.0
C3800 C 0.70247 0.91212 0.67019 0.0
C3801 C 0.69888 0.90282 0.67755 0.0
C3802 C 0.70871 0.89643 0.68186 0.0
C3803 C 0.69182 0.90708 0.68686 0.0
C3804 C 0.69217 0.89595 0.66971 0.0
C3805 C 0.69206 0.90069 0.65962 0.0
C3806 C 0.68636 0.89621 0.65099 0.0
C3807 C 0.68045 0.88667 0.65268 0.0
C3808 C 0.68026 0.88157 0.66294 0.0
C3809 C 0.68624 0.88632 0.67159 0.0
H3810 H 0.31294 0.42365 0.86917 0.0
H3811 H 0.29975 0.42466 0.83672 0.0
H3812 H 0.30972 0.40771 0.83219 0.0
H3813 H 0.33937 0.41364 0.86304 0.0
H3814 H 0.34001 0.40491 0.87471 0.0
H3815 H 0.33186 0.41704 0.87507 0.0
H3816 H 0.31511 0.40526 0.88036 0.0
H3817 H 0.32324 0.39309 0.8797 0.0
H3818 H 0.31102 0.39416 0.87172 0.0
H3819 H 0.32125 0.39074 0.83134 0.0
H3820 H 0.33395 0.37548 0.83386 0.0
H3821 H 0.33963 0.38576 0.86698 0.0
C3822 C 0.31212 0.42024 0.86114 0.0
C3823 C 0.30552 0.42532 0.8533 0.0
C3824 C 0.30464 0.42073 0.84285 0.0
C3825 C 0.3103 0.41116 0.84022 0.0
C3826 C 0.31666 0.40627 0.84819 0.0
C3827 C 0.31756 0.41064 0.85845 0.0
C3828 C 0.32476 0.40371 0.86559 0.0
C3829 C 0.33458 0.41022 0.86984 0.0
C3830 C 0.31814 0.39876 0.8749 0.0
C3831 C 0.32818 0.39503 0.85764 0.0
C3832 C 0.32328 0.39654 0.8477 0.0
C3833 C 0.32518 0.38953 0.83908 0.0
C3834 C 0.33247 0.38092 0.84058 0.0
C3835 C 0.33794 0.37947 0.85059 0.0
C3836 C 0.33555 0.38654 0.85927 0.0
H3837 H 0.81649 0.09292 0.14882 0.0
H3838 H 0.80049 0.09271 0.17996 0.0
H3839 H 0.81008 0.1098 0.18492 0.0
H3840 H 0.84237 0.10345 0.15714 0.0
H3841 H 0.84399 0.11186 0.14534 0.0
H3842 H 0.83599 0.0996 0.14456 0.0
H3843 H 0.81971 0.11094 0.1374 0.0
H3844 H 0.82766 0.12324 0.13844 0.0
H3845 H 0.81478 0.12224 0.14528 0.0
H3846 H 0.82153 0.12682 0.18643 0.0
H3847 H 0.83423 0.14225 0.18468 0.0
H3848 H 0.84265 0.13146 0.15236 0.0
C3849 C 0.81499 0.09651 0.15666 0.0
C3850 C 0.8077 0.09157 0.164 0.0
C3851 C 0.80592 0.09648 0.17419 0.0
C3852 C 0.81137 0.10613 0.17708 0.0
C3853 C 0.81844 0.11085 0.16961 0.0
C3854 C 0.82022 0.10623 0.1596 0.0
C3855 C 0.82798 0.11308 0.15295 0.0
C3856 C 0.83819 0.1066 0.14982 0.0
C3857 C 0.82219 0.11764 0.14292 0.0
C3858 C 0.83064 0.12206 0.16093 0.0
C3859 C 0.82494 0.12069 0.17044 0.0
C3860 C 0.82606 0.12793 0.17904 0.0
C3861 C 0.83335 0.13665 0.17797 0.0
C3862 C 0.83956 0.13803 0.16843 0.0
C3863 C 0.83798 0.13071 0.15973 0.0
H3864 H 0.17213 0.1958 0.43378 0.0
H3865 H 0.15708 0.2251 0.42105 0.0
H3866 H 0.15603 0.21668 0.40313 0.0
H3867 H 0.18787 0.18863 0.41081 0.0
H3868 H 0.1852 0.17422 0.41158 0.0
H3869 H 0.18501 0.18238 0.42367 0.0
H3870 H 0.16545 0.1758 0.42785 0.0
H3871 H 0.16563 0.16751 0.41584 0.0
H3872 H 0.15497 0.17735 0.41777 0.0
H3873 H 0.15656 0.2055 0.3866 0.0
H3874 H 0.15802 0.19152 0.37235 0.0
H3875 H 0.17195 0.16908 0.3956 0.0
C3876 C 0.16859 0.20045 0.42725 0.0
C3877 C 0.16498 0.21129 0.42884 0.0
C3878 C 0.16031 0.21699 0.42003 0.0
C3879 C 0.15955 0.21223 0.40981 0.0
C3880 C 0.16333 0.20168 0.40848 0.0
C3881 C 0.16763 0.19577 0.41695 0.0
C3882 C 0.17073 0.1844 0.41328 0.0
C3883 C 0.18293 0.18229 0.41493 0.0
C3884 C 0.16378 0.17576 0.41903 0.0
C3885 C 0.16782 0.18507 0.4014 0.0
C3886 C 0.16347 0.19508 0.39885 0.0
C3887 C 0.15993 0.1976 0.38847 0.0
C3888 C 0.16075 0.18961 0.38045 0.0
C3889 C 0.1651 0.17926 0.38288 0.0
C3890 C 0.16874 0.177 0.39349 0.0
H3891 H 0.09188 0.86886 0.70331 0.0
H3892 H 0.09254 0.83767 0.71956 0.0
H3893 H 0.1096 0.833 0.70995 0.0
H3894 H 0.10216 0.86043 0.67762 0.0
H3895 H 0.11023 0.87255 0.6758 0.0
H3896 H 0.09807 0.87304 0.68384 0.0
H3897 H 0.10946 0.88081 0.6998 0.0
H3898 H 0.12168 0.87999 0.69184 0.0
H3899 H 0.12099 0.87325 0.70473 0.0
H3900 H 0.12641 0.83178 0.69838 0.0
H3901 H 0.14148 0.83381 0.68541 0.0
H3902 H 0.12987 0.86603 0.67701 0.0
C3903 C 0.09565 0.86106 0.70484 0.0
C3904 C 0.09099 0.85363 0.7122 0.0
C3905 C 0.0961 0.8435 0.71405 0.0
C3906 C 0.10574 0.84079 0.70861 0.0
C3907 C 0.11018 0.84836 0.70148 0.0
C3908 C 0.10532 0.8583 0.69962 0.0
C3909 C 0.11187 0.86511 0.69178 0.0
C3910 C 0.10518 0.86794 0.68166 0.0
C3911 C 0.11626 0.8754 0.69737 0.0
C3912 C 0.12097 0.85729 0.68919 0.0
C3913 C 0.11992 0.84772 0.69496 0.0
C3914 C 0.12729 0.83923 0.69381 0.0
C3915 C 0.13579 0.84044 0.68639 0.0
C3916 C 0.13681 0.85005 0.68014 0.0
C3917 C 0.12939 0.85865 0.68175 0.0
H3918 H 0.34798 0.8205 0.93031 0.0
H3919 H 0.35902 0.78975 0.91679 0.0
H3920 H 0.36 0.79821 0.89888 0.0
H3921 H 0.33224 0.83001 0.90845 0.0
H3922 H 0.3368 0.84394 0.90932 0.0
H3923 H 0.33661 0.83557 0.92124 0.0
H3924 H 0.35707 0.83951 0.92446 0.0
H3925 H 0.35728 0.84797 0.91259 0.0
H3926 H 0.36666 0.83681 0.91381 0.0
H3927 H 0.36018 0.80996 0.88232 0.0
H3928 H 0.35949 0.8244 0.86843 0.0
H3929 H 0.34921 0.84761 0.89274 0.0
C3930 C 0.3507 0.81547 0.92368 0.0
C3931 C 0.35326 0.80428 0.92516 0.0
C3932 C 0.35665 0.79818 0.91602 0.0
C3933 C 0.35739 0.80296 0.90576 0.0
C3934 C 0.35488 0.81394 0.90468 0.0
C3935 C 0.35171 0.82017 0.9134 0.0
C3936 C 0.34989 0.83192 0.91008 0.0
C3937 C 0.33818 0.83556 0.91241 0.0
C3938 C 0.35822 0.83949 0.91556 0.0
C3939 C 0.35202 0.83116 0.89806 0.0
C3940 C 0.35507 0.82076 0.89513 0.0
C3941 C 0.35779 0.81813 0.88452 0.0
C3942 C 0.35741 0.82637 0.8767 0.0
C3943 C 0.35424 0.83706 0.87952 0.0
C3944 C 0.35149 0.83945 0.89034 0.0
H3945 H 0.4195 0.18008 0.21601 0.0
H3946 H 0.43737 0.15424 0.19995 0.0
H3947 H 0.42202 0.15128 0.18767 0.0
H3948 H 0.39276 0.16734 0.21409 0.0
H3949 H 0.38557 0.17976 0.21121 0.0
H3950 H 0.39787 0.18014 0.21914 0.0
H3951 H 0.40626 0.19401 0.20582 0.0
H3952 H 0.39393 0.1937 0.19794 0.0
H3953 H 0.40678 0.19075 0.19162 0.0
H3954 H 0.40526 0.15028 0.17759 0.0
H3955 H 0.38763 0.1525 0.16852 0.0
H3956 H 0.37986 0.1794 0.18989 0.0
C3957 C 0.42017 0.17382 0.20988 0.0
C3958 C 0.42979 0.16747 0.20889 0.0
C3959 C 0.43029 0.15939 0.20076 0.0
C3960 C 0.42154 0.15754 0.1938 0.0
C3961 C 0.41226 0.16384 0.19499 0.0
C3962 C 0.41145 0.17191 0.20271 0.0
C3963 C 0.40047 0.17762 0.20182 0.0
C3964 C 0.39377 0.17612 0.21218 0.0
C3965 C 0.40195 0.18974 0.19914 0.0
C3966 C 0.39539 0.17146 0.19238 0.0
C3967 C 0.40236 0.16346 0.18876 0.0
C3968 C 0.3997 0.15651 0.1803 0.0
C3969 C 0.38965 0.15779 0.17524 0.0
C3970 C 0.38239 0.16603 0.17856 0.0
C3971 C 0.38528 0.17301 0.18724 0.0
H3972 H 0.16666 0.82268 0.08638 0.0
H3973 H 0.1548 0.79254 0.1006 0.0
H3974 H 0.15598 0.80078 0.11855 0.0
H3975 H 0.18495 0.83079 0.10808 0.0
H3976 H 0.18141 0.845 0.10743 0.0
H3977 H 0.18058 0.83667 0.09546 0.0
H3978 H 0.16043 0.84217 0.09299 0.0
H3979 H 0.16121 0.85048 0.10496 0.0
H3980 H 0.15098 0.84 0.10389 0.0
H3981 H 0.15721 0.81211 0.13487 0.0
H3982 H 0.15867 0.82633 0.14889 0.0
H3983 H 0.16913 0.84955 0.12466 0.0
C3984 C 0.16431 0.81776 0.09323 0.0
C3985 C 0.16081 0.80677 0.0919 0.0
C3986 C 0.15786 0.80077 0.10123 0.0
C3987 C 0.15839 0.80543 0.11154 0.0
C3988 C 0.16176 0.81618 0.11251 0.0
C3989 C 0.16465 0.82234 0.10365 0.0
C3990 C 0.16744 0.83393 0.10705 0.0
C3991 C 0.17931 0.83676 0.10435 0.0
C3992 C 0.15954 0.84213 0.10191 0.0
C3993 C 0.16573 0.8332 0.11917 0.0
C3994 C 0.16241 0.82287 0.12209 0.0
C3995 C 0.15986 0.82022 0.13272 0.0
C3996 C 0.16066 0.82834 0.14061 0.0
C3997 C 0.16403 0.83899 0.13785 0.0
C3998 C 0.16668 0.84142 0.127 0.0
H3999 H 0.42644 0.83717 0.31418 0.0
H4000 H 0.42552 0.8707 0.30331 0.0
H4001 H 0.40859 0.8736 0.31339 0.0
H4002 H 0.39677 0.83257 0.31281 0.0
H4003 H 0.39611 0.82445 0.32491 0.0
H4004 H 0.40829 0.82448 0.31685 0.0
H4005 H 0.41961 0.83024 0.33356 0.0
H4006 H 0.40744 0.83013 0.34164 0.0
H4007 H 0.41575 0.84221 0.34104 0.0
H4008 H 0.39306 0.87368 0.32491 0.0
H4009 H 0.37853 0.8711 0.33759 0.0
H4010 H 0.38695 0.83667 0.34017 0.0
C4011 C 0.42252 0.84504 0.31384 0.0
C4012 C 0.42713 0.85372 0.30779 0.0
C4013 C 0.42197 0.86395 0.30769 0.0
C4014 C 0.4124 0.86568 0.31343 0.0
C4015 C 0.40796 0.85705 0.31917 0.0
C4016 C 0.41271 0.84689 0.31946 0.0
C4017 C 0.40597 0.83922 0.3265 0.0
C4018 C 0.40152 0.82961 0.31987 0.0
C4019 C 0.41259 0.83522 0.33626 0.0
C4020 C 0.39685 0.8468 0.33005 0.0
C4021 C 0.39833 0.857 0.32571 0.0
C4022 C 0.39159 0.86565 0.32818 0.0
C4023 C 0.38309 0.86396 0.33538 0.0
C4024 C 0.38098 0.85354 0.33989 0.0
C4025 C 0.38805 0.8448 0.33704 0.0
H4026 H 0.34237 0.20014 0.58763 0.0
H4027 H 0.36828 0.22282 0.59568 0.0
H4028 H 0.37082 0.21369 0.61319 0.0
H4029 H 0.33122 0.19847 0.61486 0.0
H4030 H 0.32808 0.18416 0.61411 0.0
H4031 H 0.32797 0.1923 0.60202 0.0
H4032 H 0.34186 0.17931 0.59305 0.0
H4033 H 0.34179 0.17104 0.60504 0.0
H4034 H 0.35445 0.17635 0.59993 0.0
H4035 H 0.37037 0.20277 0.62992 0.0
H4036 H 0.36792 0.18961 0.64457 0.0
H4037 H 0.34304 0.17303 0.62562 0.0
C4038 C 0.34852 0.20321 0.59312 0.0
C4039 C 0.35498 0.21239 0.59037 0.0
C4040 C 0.36303 0.21604 0.59772 0.0
C4041 C 0.36459 0.21086 0.60767 0.0
C4042 C 0.35799 0.20203 0.61023 0.0
C4043 C 0.35014 0.19815 0.6032 0.0
C4044 C 0.34426 0.18843 0.60808 0.0
C4045 C 0.33216 0.191 0.60987 0.0
C4046 C 0.34568 0.17818 0.6011 0.0
C4047 C 0.35022 0.18739 0.61878 0.0
C4048 C 0.35799 0.19542 0.61988 0.0
C4049 C 0.36442 0.19633 0.6291 0.0
C4050 C 0.36302 0.18869 0.63735 0.0
C4051 C 0.35544 0.18002 0.63628 0.0
C4052 C 0.34886 0.17953 0.62686 0.0
H4053 H 0.10232 0.15236 0.80184 0.0
H4054 H 0.08122 0.17459 0.81923 0.0
H4055 H 0.0961 0.17901 0.83168 0.0
H4056 H 0.11659 0.14182 0.82384 0.0
H4057 H 0.12988 0.14174 0.81773 0.0
H4058 H 0.11791 0.14076 0.80937 0.0
H4059 H 0.12418 0.15762 0.79843 0.0
H4060 H 0.13623 0.15849 0.80672 0.0
H4061 H 0.12737 0.17008 0.80547 0.0
H4062 H 0.11191 0.17969 0.84334 0.0
H4063 H 0.12919 0.17816 0.85303 0.0
H4064 H 0.14144 0.15647 0.82813 0.0
C4065 C 0.10094 0.15836 0.80811 0.0
C4066 C 0.09049 0.16297 0.80966 0.0
C4067 C 0.08903 0.17075 0.818 0.0
C4068 C 0.09746 0.17337 0.82511 0.0
C4069 C 0.10746 0.16839 0.82366 0.0
C4070 C 0.10941 0.16124 0.81527 0.0
C4071 C 0.12106 0.15707 0.81583 0.0
C4072 C 0.12137 0.14461 0.81675 0.0
C4073 C 0.1276 0.16105 0.80603 0.0
C4074 C 0.12503 0.16253 0.82616 0.0
C4075 C 0.11701 0.16911 0.83039 0.0
C4076 C 0.11837 0.17478 0.84 0.0
C4077 C 0.12827 0.17388 0.84543 0.0
C4078 C 0.13681 0.16742 0.84123 0.0
C4079 C 0.13511 0.16155 0.83149 0.0
H4080 H 0.92197 0.36761 0.81168 0.0
H4081 H 0.92637 0.33364 0.8035 0.0
H4082 H 0.90967 0.32893 0.81372 0.0
H4083 H 0.91237 0.36431 0.8384 0.0
H4084 H 0.90248 0.37508 0.83748 0.0
H4085 H 0.91452 0.37552 0.82926 0.0
H4086 H 0.9023 0.37719 0.81218 0.0
H4087 H 0.89026 0.37646 0.82043 0.0
H4088 H 0.89214 0.36692 0.80952 0.0
H4089 H 0.89246 0.3281 0.82467 0.0
H4090 H 0.87701 0.33075 0.83691 0.0
H4091 H 0.88446 0.3653 0.83876 0.0
C4092 C 0.9193 0.35921 0.81195 0.0
C4093 C 0.92525 0.35097 0.80668 0.0
C4094 C 0.92172 0.34004 0.80732 0.0
C4095 C 0.9123 0.33732 0.81311 0.0
C4096 C 0.90651 0.34566 0.81813 0.0
C4097 C 0.90988 0.35638 0.81762 0.0
C4098 C 0.90226 0.36377 0.8238 0.0
C4099 C 0.90827 0.37003 0.83277 0.0
C4100 C 0.8964 0.37155 0.81602 0.0
C4101 C 0.89442 0.35548 0.82837 0.0
C4102 C 0.89683 0.34512 0.82475 0.0
C4103 C 0.8906 0.33616 0.82768 0.0
C4104 C 0.88188 0.33776 0.83474 0.0
C4105 C 0.87962 0.3482 0.83911 0.0
C4106 C 0.88587 0.3572 0.83562 0.0
H4107 H 0.84745 0.69777 0.08582 0.0
H4108 H 0.86263 0.72699 0.09886 0.0
H4109 H 0.86381 0.71834 0.11665 0.0
H4110 H 0.83191 0.69023 0.10887 0.0
H4111 H 0.83454 0.67585 0.10782 0.0
H4112 H 0.8346 0.68419 0.09587 0.0
H4113 H 0.8541 0.67771 0.09136 0.0
H4114 H 0.85404 0.66927 0.10325 0.0
H4115 H 0.8647 0.67916 0.10135 0.0
H4116 H 0.86357 0.70679 0.13305 0.0
H4117 H 0.86213 0.69258 0.14705 0.0
H4118 H 0.84784 0.67054 0.12351 0.0
C4119 C 0.85106 0.70238 0.09238 0.0
C4120 C 0.8547 0.71325 0.09087 0.0
C4121 C 0.85939 0.71886 0.09977 0.0
C4122 C 0.86023 0.71396 0.10993 0.0
C4123 C 0.85649 0.70336 0.11113 0.0
C4124 C 0.8521 0.69755 0.1026 0.0
C4125 C 0.84901 0.68612 0.10611 0.0
C4126 C 0.83679 0.68398 0.10458 0.0
C4127 C 0.85587 0.67756 0.10016 0.0
C4128 C 0.85205 0.68661 0.11797 0.0
C4129 C 0.85646 0.69659 0.12065 0.0
C4130 C 0.86013 0.69893 0.13106 0.0
C4131 C 0.85931 0.69081 0.13894 0.0
C4132 C 0.85483 0.6805 0.13636 0.0
C4133 C 0.85113 0.67842 0.12574 0.0
H4134 H 0.59048 0.64938 0.32051 0.0
H4135 H 0.59593 0.67489 0.29694 0.0
H4136 H 0.61354 0.67925 0.30571 0.0
H4137 H 0.60245 0.6634 0.34362 0.0
H4138 H 0.6082 0.65108 0.34903 0.0
H4139 H 0.59592 0.6505 0.3411 0.0
H4140 H 0.60516 0.63657 0.32833 0.0
H4141 H 0.61757 0.63739 0.33606 0.0
H4142 H 0.61774 0.64017 0.32177 0.0
H4143 H 0.63053 0.68089 0.31725 0.0
H4144 H 0.64556 0.67957 0.33054 0.0
H4145 H 0.62919 0.65256 0.34608 0.0
C4146 C 0.59531 0.65596 0.31724 0.0
C4147 C 0.59181 0.66178 0.308 0.0
C4148 C 0.59849 0.67023 0.30391 0.0
C4149 C 0.60846 0.67281 0.30889 0.0
C4150 C 0.61168 0.66684 0.31792 0.0
C4151 C 0.60528 0.6586 0.32206 0.0
C4152 C 0.61072 0.65319 0.33164 0.0
C4153 C 0.60391 0.65464 0.34196 0.0
C4154 C 0.61293 0.64111 0.32931 0.0
C4155 C 0.62119 0.65966 0.33226 0.0
C4156 C 0.62156 0.66755 0.32432 0.0
C4157 C 0.63032 0.67473 0.32347 0.0
C4158 C 0.6388 0.67392 0.33103 0.0
C4159 C 0.63853 0.66592 0.33924 0.0
C4160 C 0.62966 0.65863 0.33977 0.0
H4161 H 0.8635 0.30059 0.41701 0.0
H4162 H 0.83638 0.31496 0.43426 0.0
H4163 H 0.83291 0.32714 0.41893 0.0
H4164 H 0.87341 0.32499 0.40525 0.0
H4165 H 0.87688 0.31917 0.39234 0.0
H4166 H 0.87691 0.31079 0.40427 0.0
H4167 H 0.86349 0.29742 0.39504 0.0
H4168 H 0.86346 0.30579 0.38309 0.0
H4169 H 0.85083 0.30246 0.38968 0.0
H4170 H 0.83313 0.33862 0.40338 0.0
H4171 H 0.83627 0.34911 0.38705 0.0
H4172 H 0.8629 0.32759 0.37829 0.0
C4173 C 0.85676 0.30623 0.41743 0.0
C4174 C 0.85022 0.30695 0.42683 0.0
C4175 C 0.84154 0.31442 0.42719 0.0
C4176 C 0.83947 0.32131 0.41851 0.0
C4177 C 0.84616 0.32063 0.4095 0.0
C4178 C 0.85459 0.31329 0.40877 0.0
C4179 C 0.86066 0.31472 0.39814 0.0
C4180 C 0.87268 0.31759 0.40013 0.0
C4181 C 0.85954 0.30449 0.39107 0.0
C4182 C 0.85448 0.32427 0.39328 0.0
C4183 C 0.84611 0.32735 0.40004 0.0
C4184 C 0.83947 0.33616 0.39785 0.0
C4185 C 0.84129 0.34202 0.38844 0.0
C4186 C 0.84959 0.33901 0.38109 0.0
C4187 C 0.85639 0.33003 0.38363 0.0
H4188 H 0.64997 0.70831 0.92519 0.0
H4189 H 0.68441 0.71135 0.93199 0.0
H4190 H 0.68861 0.70129 0.91518 0.0
H4191 H 0.64995 0.68154 0.91459 0.0
H4192 H 0.64026 0.68419 0.90396 0.0
H4193 H 0.64003 0.69222 0.91613 0.0
H4194 H 0.64179 0.70971 0.90458 0.0
H4195 H 0.64225 0.70164 0.89241 0.0
H4196 H 0.65306 0.71111 0.8954 0.0
H4197 H 0.68915 0.69195 0.8975 0.0
H4198 H 0.68637 0.68047 0.88163 0.0
H4199 H 0.65143 0.68113 0.88703 0.0
C4200 C 0.65837 0.7069 0.92303 0.0
C4201 C 0.66693 0.71072 0.92971 0.0
C4202 C 0.67782 0.70863 0.92683 0.0
C4203 C 0.68026 0.70296 0.91732 0.0
C4204 C 0.67169 0.69945 0.91078 0.0
C4205 C 0.66096 0.70121 0.91352 0.0
C4206 C 0.65338 0.6962 0.90513 0.0
C4207 C 0.64544 0.68805 0.91027 0.0
C4208 C 0.64725 0.70519 0.89902 0.0
C4209 C 0.66153 0.69064 0.89776 0.0
C4210 C 0.67202 0.69313 0.90093 0.0
C4211 C 0.68099 0.68963 0.89513 0.0
C4212 C 0.67929 0.68293 0.88616 0.0
C4213 C 0.66871 0.67924 0.8833 0.0
C4214 C 0.65966 0.68354 0.889 0.0
H4215 H 0.83851 0.57125 0.90687 0.0
H4216 H 0.84949 0.54424 0.92671 0.0
H4217 H 0.86754 0.55285 0.92817 0.0
H4218 H 0.86238 0.57652 0.89257 0.0
H4219 H 0.86143 0.59113 0.89326 0.0
H4220 H 0.84927 0.58296 0.89364 0.0
H4221 H 0.84364 0.59189 0.91177 0.0
H4222 H 0.85566 0.60027 0.91128 0.0
H4223 H 0.85307 0.5919 0.92294 0.0
H4224 H 0.88472 0.56425 0.9271 0.0
H4225 H 0.89898 0.5784 0.92482 0.0
H4226 H 0.87633 0.59829 0.9068 0.0
C4227 C 0.84456 0.56714 0.9117 0.0
C4228 C 0.84242 0.55688 0.91655 0.0
C4229 C 0.85085 0.55189 0.92263 0.0
C4230 C 0.86115 0.55678 0.9236 0.0
C4231 C 0.86294 0.56677 0.9186 0.0
C4232 C 0.8548 0.572 0.91295 0.0
C4233 C 0.85867 0.5829 0.90869 0.0
C4234 C 0.85789 0.5834 0.8963 0.0
C4235 C 0.85239 0.59229 0.91398 0.0
C4236 C 0.87037 0.58279 0.91246 0.0
C4237 C 0.87269 0.57344 0.91821 0.0
C4238 C 0.88298 0.5716 0.92262 0.0
C4239 C 0.89102 0.5796 0.92126 0.0
C4240 C 0.88868 0.58927 0.91556 0.0
C4241 C 0.87828 0.59086 0.91107 0.0
H4242 H 0.16851 0.05505 0.62098 0.0
H4243 H 0.18316 0.06104 0.58974 0.0
H4244 H 0.16692 0.07155 0.58419 0.0
H4245 H 0.14013 0.05323 0.61161 0.0
H4246 H 0.13483 0.06024 0.62325 0.0
H4247 H 0.14705 0.05224 0.62442 0.0
H4248 H 0.15743 0.06906 0.63193 0.0
H4249 H 0.14519 0.07697 0.63089 0.0
H4250 H 0.15742 0.08154 0.62429 0.0
H4251 H 0.14882 0.08005 0.58166 0.0
H4252 H 0.13204 0.09049 0.58347 0.0
H4253 H 0.13043 0.08192 0.61752 0.0
C4254 C 0.16825 0.05863 0.61299 0.0
C4255 C 0.17699 0.05733 0.60574 0.0
C4256 C 0.1765 0.06206 0.59537 0.0
C4257 C 0.16729 0.0679 0.59213 0.0
C4258 C 0.15873 0.06895 0.59941 0.0
C4259 C 0.1592 0.06469 0.60971 0.0
C4260 C 0.14927 0.06787 0.61623 0.0
C4261 C 0.14242 0.05779 0.61905 0.0
C4262 C 0.15253 0.07425 0.62644 0.0
C4263 C 0.1434 0.07499 0.60812 0.0
C4264 C 0.14878 0.07502 0.59834 0.0
C4265 C 0.14472 0.08041 0.58938 0.0
C4266 C 0.13522 0.08646 0.59056 0.0
C4267 C 0.13015 0.08763 0.60081 0.0
C4268 C 0.13411 0.08142 0.60961 0.0
H4269 H 0.68067 0.44939 0.42311 0.0
H4270 H 0.66852 0.47528 0.40256 0.0
H4271 H 0.65037 0.46691 0.40268 0.0
H4272 H 0.66623 0.42751 0.41175 0.0
H4273 H 0.66282 0.42089 0.42428 0.0
H4274 H 0.67481 0.42926 0.42347 0.0
H4275 H 0.66788 0.44069 0.43961 0.0
H4276 H 0.65576 0.43243 0.44032 0.0
H4277 H 0.65467 0.44697 0.43886 0.0
H4278 H 0.63387 0.45614 0.40452 0.0
H4279 H 0.61975 0.44228 0.40665 0.0
H4280 H 0.6424 0.42225 0.42491 0.0
C4281 C 0.67412 0.45332 0.41875 0.0
C4282 C 0.67593 0.46312 0.41298 0.0
C4283 C 0.66724 0.46797 0.40726 0.0
C4284 C 0.65691 0.46326 0.40725 0.0
C4285 C 0.65533 0.45374 0.41308 0.0
C4286 C 0.66363 0.44877 0.41875 0.0
C4287 C 0.65956 0.43839 0.4241 0.0
C4288 C 0.66626 0.42842 0.42068 0.0
C4289 C 0.65947 0.4397 0.43646 0.0
C4290 C 0.64803 0.43793 0.41969 0.0
C4291 C 0.6457 0.44712 0.41375 0.0
C4292 C 0.63559 0.44882 0.40904 0.0
C4293 C 0.62765 0.44078 0.41018 0.0
C4294 C 0.62995 0.43092 0.41565 0.0
C4295 C 0.64026 0.42963 0.42068 0.0
H4296 H 0.34137 0.95561 0.08737 0.0
H4297 H 0.34099 0.96669 0.12063 0.0
H4298 H 0.35801 0.95672 0.12419 0.0
H4299 H 0.35177 0.92901 0.09183 0.0
H4300 H 0.36072 0.92878 0.08032 0.0
H4301 H 0.34868 0.93708 0.08007 0.0
H4302 H 0.36056 0.95397 0.07577 0.0
H4303 H 0.37262 0.94567 0.07616 0.0
H4304 H 0.37164 0.95752 0.08468 0.0
H4305 H 0.37388 0.94466 0.12478 0.0
H4306 H 0.38839 0.9314 0.12234 0.0
H4307 H 0.38028 0.92901 0.08816 0.0
C4308 C 0.34502 0.95606 0.09533 0.0
C4309 C 0.33997 0.96206 0.10374 0.0
C4310 C 0.34485 0.96232 0.11408 0.0
C4311 C 0.35448 0.95665 0.11618 0.0
C4312 C 0.35928 0.95084 0.1078 0.0
C4313 C 0.35486 0.95057 0.09753 0.0
C4314 C 0.36187 0.94362 0.09009 0.0
C4315 C 0.35536 0.93406 0.0853 0.0
C4316 C 0.36697 0.95061 0.08114 0.0
C4317 C 0.37053 0.93966 0.09796 0.0
C4318 C 0.36888 0.94405 0.10807 0.0
C4319 C 0.3754 0.94132 0.11684 0.0
C4320 C 0.38378 0.9338 0.1153 0.0
C4321 C 0.38579 0.92912 0.105 0.0
C4322 C 0.37906 0.93226 0.09619 0.0
H4323 H 0.83558 0.44735 0.59535 0.0
H4324 H 0.84919 0.47698 0.60911 0.0
H4325 H 0.86716 0.46835 0.60989 0.0
H4326 H 0.85068 0.42877 0.61166 0.0
H4327 H 0.85271 0.41896 0.60102 0.0
H4328 H 0.84092 0.4276 0.60082 0.0
H4329 H 0.84618 0.4342 0.58165 0.0
H4330 H 0.85806 0.42565 0.58189 0.0
H4331 H 0.85946 0.44003 0.57943 0.0
H4332 H 0.88363 0.45646 0.6099 0.0
H4333 H 0.89739 0.44194 0.60915 0.0
H4334 H 0.87302 0.41965 0.59645 0.0
C4335 C 0.8423 0.45207 0.59854 0.0
C4336 C 0.84084 0.46299 0.60206 0.0
C4337 C 0.85 0.46877 0.60608 0.0
C4338 C 0.86028 0.46389 0.60667 0.0
C4339 C 0.86138 0.45317 0.60324 0.0
C4340 C 0.85266 0.4473 0.59924 0.0
C4341 C 0.85608 0.4358 0.5963 0.0
C4342 C 0.84971 0.42728 0.60284 0.0
C4343 C 0.85487 0.4338 0.58409 0.0
C4344 C 0.86796 0.43608 0.59958 0.0
C4345 C 0.87088 0.44621 0.60342 0.0
C4346 C 0.88142 0.44847 0.60693 0.0
C4347 C 0.88917 0.44012 0.60655 0.0
C4348 C 0.88633 0.42958 0.60281 0.0
C4349 C 0.87555 0.42762 0.59923 0.0
H4350 H 0.3471 0.05841 0.39933 0.0
H4351 H 0.33753 0.0604 0.43294 0.0
H4352 H 0.35392 0.07137 0.43698 0.0
H4353 H 0.37666 0.0571 0.40409 0.0
H4354 H 0.38004 0.06557 0.39271 0.0
H4355 H 0.36797 0.05721 0.39235 0.0
H4356 H 0.35616 0.07421 0.3884 0.0
H4357 H 0.36826 0.08249 0.38853 0.0
H4358 H 0.35706 0.08581 0.3973 0.0
H4359 H 0.37148 0.08089 0.43773 0.0
H4360 H 0.38756 0.09223 0.43475 0.0
H4361 H 0.38515 0.08642 0.40017 0.0
C4362 C 0.34863 0.06101 0.40755 0.0
C4363 C 0.34131 0.05829 0.41595 0.0
C4364 C 0.34325 0.06215 0.42653 0.0
C4365 C 0.35251 0.06838 0.42887 0.0
C4366 C 0.3597 0.07073 0.42052 0.0
C4367 C 0.35783 0.06737 0.41003 0.0
C4368 C 0.36661 0.07173 0.40252 0.0
C4369 C 0.37321 0.06234 0.39763 0.0
C4370 C 0.36172 0.079 0.39367 0.0
C4371 C 0.37348 0.07828 0.41043 0.0
C4372 C 0.36948 0.07723 0.42079 0.0
C4373 C 0.37454 0.08204 0.42962 0.0
C4374 C 0.38364 0.08855 0.42781 0.0
C4375 C 0.38739 0.09067 0.41718 0.0
C4376 C 0.38245 0.08511 0.40839 0.0
H4377 H 0.67235 0.56153 0.12167 0.0
H4378 H 0.67788 0.55391 0.08796 0.0
H4379 H 0.66105 0.56374 0.08296 0.0
H4380 H 0.64303 0.5584 0.12078 0.0
H4381 H 0.64048 0.56946 0.13001 0.0
H4382 H 0.65295 0.56184 0.13098 0.0
H4383 H 0.6642 0.57965 0.12906 0.0
H4384 H 0.65174 0.58726 0.12834 0.0
H4385 H 0.66167 0.58848 0.11772 0.0
H4386 H 0.64372 0.57414 0.08169 0.0
H4387 H 0.62774 0.58595 0.08393 0.0
H4388 H 0.63345 0.58705 0.11854 0.0
C4389 C 0.67003 0.56206 0.11325 0.0
C4390 C 0.67638 0.55713 0.10514 0.0
C4391 C 0.67309 0.55776 0.09421 0.0
C4392 C 0.66354 0.56324 0.09133 0.0
C4393 C 0.65734 0.56789 0.09952 0.0
C4394 C 0.66045 0.56742 0.11024 0.0
C4395 C 0.65236 0.57324 0.11741 0.0
C4396 C 0.64688 0.56526 0.12526 0.0
C4397 C 0.65782 0.58272 0.12349 0.0
C4398 C 0.64437 0.57729 0.10903 0.0
C4399 C 0.64732 0.57396 0.09878 0.0
C4400 C 0.64135 0.57683 0.08967 0.0
C4401 C 0.63231 0.58357 0.09103 0.0
C4402 C 0.62942 0.58753 0.10139 0.0
C4403 C 0.63538 0.58408 0.11053 0.0
H4404 H 0.17997 0.95106 0.92522 0.0
H4405 H 0.17035 0.97279 0.89933 0.0
H4406 H 0.15227 0.96422 0.89872 0.0
H4407 H 0.16682 0.92722 0.9164 0.0
H4408 H 0.16191 0.92295 0.92944 0.0
H4409 H 0.17395 0.93123 0.92852 0.0
H4410 H 0.16518 0.94531 0.94139 0.0
H4411 H 0.153 0.93714 0.94215 0.0
H4412 H 0.1522 0.95114 0.93795 0.0
H4413 H 0.13551 0.95392 0.9008 0.0
H4414 H 0.12108 0.9408 0.90388 0.0
H4415 H 0.14169 0.92399 0.9272 0.0
C4416 C 0.17398 0.95399 0.91949 0.0
C4417 C 0.17644 0.96265 0.91236 0.0
C4418 C 0.16851 0.96629 0.90494 0.0
C4419 C 0.15824 0.9615 0.90455 0.0
C4420 C 0.15596 0.95312 0.91172 0.0
C4421 C 0.16353 0.94934 0.91907 0.0
C4422 C 0.15878 0.94006 0.92568 0.0
C4423 C 0.16578 0.92975 0.92495 0.0
C4424 C 0.1572 0.94362 0.93749 0.0
C4425 C 0.14784 0.93863 0.92011 0.0
C4426 C 0.14626 0.94661 0.91247 0.0
C4427 C 0.13671 0.94744 0.90658 0.0
C4428 C 0.12858 0.9397 0.90828 0.0
C4429 C 0.13021 0.93079 0.91541 0.0
C4430 C 0.13997 0.9305 0.92161 0.0
H4431 H 0.91234 0.83684 0.57193 0.0
H4432 H 0.92471 0.8504 0.54182 0.0
H4433 H 0.92513 0.8684 0.55019 0.0
H4434 H 0.89644 0.85807 0.58093 0.0
H4435 H 0.90066 0.85745 0.59487 0.0
H4436 H 0.90101 0.84538 0.58663 0.0
H4437 H 0.92146 0.84278 0.59096 0.0
H4438 H 0.92111 0.85474 0.5994 0.0
H4439 H 0.93082 0.85382 0.58856 0.0
H4440 H 0.92304 0.88542 0.56147 0.0
H4441 H 0.92118 0.89948 0.57577 0.0
H4442 H 0.91277 0.87445 0.5989 0.0
C4443 C 0.91539 0.84338 0.56697 0.0
C4444 C 0.91816 0.84186 0.5559 0.0
C4445 C 0.92199 0.85107 0.55007 0.0
C4446 C 0.92242 0.86145 0.55482 0.0
C4447 C 0.9194 0.86256 0.56557 0.0
C4448 C 0.9163 0.85372 0.57168 0.0
C4449 C 0.91408 0.85702 0.58329 0.0
C4450 C 0.90235 0.85432 0.58661 0.0
C4451 C 0.92236 0.85178 0.59101 0.0
C4452 C 0.9159 0.86918 0.58257 0.0
C4453 C 0.91895 0.87223 0.57228 0.0
C4454 C 0.92079 0.8831 0.56959 0.0
C4455 C 0.91965 0.89102 0.5777 0.0
C4456 C 0.91685 0.88796 0.58834 0.0
C4457 C 0.91494 0.87693 0.59079 0.0
H4458 H 0.96153 0.11715 0.34549 0.0
H4459 H 0.95735 0.08398 0.33429 0.0
H4460 H 0.94614 0.07985 0.3503 0.0
H4461 H 0.96218 0.11091 0.37474 0.0
H4462 H 0.95444 0.12275 0.37852 0.0
H4463 H 0.96298 0.1231 0.3667 0.0
H4464 H 0.94646 0.12872 0.35491 0.0
H4465 H 0.93802 0.12855 0.36677 0.0
H4466 H 0.9343 0.12049 0.35515 0.0
H4467 H 0.9367 0.07884 0.36766 0.0
H4468 H 0.92548 0.08171 0.38365 0.0
H4469 H 0.93299 0.1163 0.38286 0.0
C4470 C 0.95842 0.10898 0.3466 0.0
C4471 C 0.96059 0.10072 0.3389 0.0
C4472 C 0.95604 0.09026 0.34029 0.0
C4473 C 0.94968 0.08787 0.34934 0.0
C4474 C 0.94785 0.09607 0.35688 0.0
C4475 C 0.95187 0.10648 0.35557 0.0
C4476 C 0.94786 0.11389 0.3646 0.0
C4477 C 0.95744 0.1179 0.37155 0.0
C4478 C 0.94126 0.12348 0.36008 0.0
C4479 C 0.94071 0.10605 0.37092 0.0
C4480 C 0.94123 0.09576 0.36648 0.0
C4481 C 0.93593 0.08692 0.37104 0.0
C4482 C 0.92947 0.0887 0.38009 0.0
C4483 C 0.92781 0.09933 0.38425 0.0
C4484 C 0.93388 0.10809 0.37982 0.0
H4485 H 0.61046 0.18044 0.07033 0.0
H4486 H 0.58855 0.16998 0.04471 0.0
H4487 H 0.58684 0.15207 0.05346 0.0
H4488 H 0.62427 0.15592 0.07463 0.0
H4489 H 0.62465 0.15691 0.08915 0.0
H4490 H 0.62417 0.16908 0.08109 0.0
H4491 H 0.60684 0.17545 0.09113 0.0
H4492 H 0.60745 0.16342 0.0994 0.0
H4493 H 0.59526 0.16646 0.09189 0.0
H4494 H 0.58781 0.13496 0.06484 0.0
H4495 H 0.59037 0.12068 0.07877 0.0
H4496 H 0.61094 0.14253 0.0972 0.0
C4497 C 0.60515 0.17451 0.06656 0.0
C4498 C 0.59977 0.17674 0.05663 0.0
C4499 C 0.59303 0.16852 0.05209 0.0
C4500 C 0.59192 0.1583 0.05707 0.0
C4501 C 0.59748 0.15637 0.06669 0.0
C4502 C 0.60381 0.16432 0.0715 0.0
C4503 C 0.6087 0.16027 0.08203 0.0
C4504 C 0.62119 0.16056 0.0817 0.0
C4505 C 0.6043 0.16679 0.09168 0.0
C4506 C 0.60445 0.1487 0.08219 0.0
C4507 C 0.59793 0.14661 0.0733 0.0
C4508 C 0.5929 0.13652 0.07182 0.0
C4509 C 0.59443 0.12846 0.07971 0.0
C4510 C 0.60094 0.13054 0.08891 0.0
C4511 C 0.60606 0.14074 0.09012 0.0
H4512 H 0.56502 0.92526 0.84193 0.0
H4513 H 0.54981 0.89376 0.8467 0.0
H4514 H 0.55857 0.89223 0.86451 0.0
H4515 H 0.5905 0.91953 0.8543 0.0
H4516 H 0.59202 0.93238 0.86118 0.0
H4517 H 0.58416 0.93158 0.84891 0.0
H4518 H 0.56768 0.93994 0.85885 0.0
H4519 H 0.5755 0.94067 0.87117 0.0
H4520 H 0.56266 0.93357 0.87097 0.0
H4521 H 0.56978 0.89292 0.88042 0.0
H4522 H 0.58309 0.8957 0.8945 0.0
H4523 H 0.59031 0.92792 0.88151 0.0
C4524 C 0.5636 0.91808 0.84678 0.0
C4525 C 0.55684 0.90953 0.84297 0.0
C4526 C 0.55502 0.9003 0.8495 0.0
C4527 C 0.55991 0.8994 0.85963 0.0
C4528 C 0.56651 0.90786 0.8632 0.0
C4529 C 0.56837 0.91709 0.85711 0.0
C4530 C 0.576 0.92481 0.86311 0.0
C4531 C 0.58628 0.92721 0.85647 0.0
C4532 C 0.57011 0.93538 0.8662 0.0
C4533 C 0.57859 0.91809 0.87311 0.0
C4534 C 0.57283 0.90846 0.87297 0.0
C4535 C 0.57418 0.90055 0.88082 0.0
C4536 C 0.58178 0.90235 0.88899 0.0
C4537 C 0.58788 0.91219 0.88957 0.0
C4538 C 0.58603 0.92024 0.88149 0.0
H4539 H 0.90482 0.17667 0.9509 0.0
H4540 H 0.92947 0.17051 0.97531 0.0
H4541 H 0.93354 0.15288 0.96661 0.0
H4542 H 0.89456 0.15055 0.94822 0.0
H4543 H 0.89299 0.15079 0.93374 0.0
H4544 H 0.89238 0.16328 0.94133 0.0
H4545 H 0.90794 0.17157 0.92985 0.0
H4546 H 0.90831 0.15922 0.922 0.0
H4547 H 0.92051 0.1642 0.92843 0.0
H4548 H 0.93455 0.13557 0.9555 0.0
H4549 H 0.93286 0.12039 0.94235 0.0
H4550 H 0.90763 0.13796 0.92534 0.0
C4551 C 0.91122 0.17176 0.95437 0.0
C4552 C 0.91673 0.17505 0.96393 0.0
C4553 C 0.92493 0.16816 0.96818 0.0
C4554 C 0.92738 0.15815 0.96323 0.0
C4555 C 0.92164 0.15513 0.95397 0.0
C4556 C 0.91384 0.16181 0.94949 0.0
C4557 C 0.9088 0.15667 0.9395 0.0
C4558 C 0.89645 0.15524 0.94079 0.0
C4559 C 0.91155 0.16331 0.92935 0.0
C4560 C 0.91459 0.14582 0.93937 0.0
C4561 C 0.92212 0.14516 0.94766 0.0
C4562 C 0.92868 0.13602 0.94899 0.0
C4563 C 0.92764 0.12743 0.94156 0.0
C4564 C 0.92002 0.12802 0.93302 0.0
C4565 C 0.91337 0.13728 0.93196 0.0
H4566 H 0.55388 0.11801 0.66608 0.0
H4567 H 0.56532 0.09047 0.68476 0.0
H4568 H 0.57713 0.08496 0.66966 0.0
H4569 H 0.55418 0.10515 0.63942 0.0
H4570 H 0.55933 0.1171 0.6327 0.0
H4571 H 0.55117 0.1185 0.64468 0.0
H4572 H 0.56654 0.12984 0.65366 0.0
H4573 H 0.57473 0.12837 0.6417 0.0
H4574 H 0.58001 0.12418 0.65463 0.0
H4575 H 0.58842 0.0832 0.65385 0.0
H4576 H 0.59908 0.08465 0.6376 0.0
H4577 H 0.57989 0.11273 0.6276 0.0
C4578 C 0.55881 0.11076 0.66687 0.0
C4579 C 0.55876 0.1046 0.6765 0.0
C4580 C 0.56536 0.09527 0.67743 0.0
C4581 C 0.57202 0.09207 0.6689 0.0
C4582 C 0.57202 0.09835 0.65956 0.0
C4583 C 0.56566 0.10751 0.65843 0.0
C4584 C 0.56784 0.11308 0.6477 0.0
C4585 C 0.55751 0.11347 0.64071 0.0
C4586 C 0.57256 0.12455 0.64953 0.0
C4587 C 0.5763 0.10547 0.64295 0.0
C4588 C 0.57856 0.09712 0.65004 0.0
C4589 C 0.58654 0.08949 0.64804 0.0
C4590 C 0.59247 0.09033 0.63853 0.0
C4591 C 0.59021 0.09852 0.63073 0.0
C4592 C 0.58194 0.10625 0.63311 0.0
H4593 H 0.60282 0.83389 0.44566 0.0
H4594 H 0.59811 0.84869 0.47742 0.0
H4595 H 0.59761 0.86647 0.46888 0.0
H4596 H 0.6202 0.85371 0.43497 0.0
H4597 H 0.61434 0.85326 0.42161 0.0
H4598 H 0.61397 0.84136 0.43006 0.0
H4599 H 0.59301 0.84039 0.42801 0.0
H4600 H 0.59335 0.85225 0.41948 0.0
H4601 H 0.58493 0.85213 0.43137 0.0
H4602 H 0.59893 0.88325 0.457 0.0
H4603 H 0.60033 0.89699 0.4424 0.0
H4604 H 0.60342 0.87116 0.41877 0.0
C4605 C 0.60168 0.8406 0.45112 0.0
C4606 C 0.60074 0.83928 0.46255 0.0
C4607 C 0.59905 0.84891 0.46878 0.0
C4608 C 0.59873 0.85927 0.46397 0.0
C4609 C 0.6 0.86009 0.45285 0.0
C4610 C 0.60128 0.85099 0.44649 0.0
C4611 C 0.60237 0.85404 0.43466 0.0
C4612 C 0.61337 0.85037 0.43006 0.0
C4613 C 0.59285 0.84943 0.42799 0.0
C4614 C 0.60173 0.8663 0.43542 0.0
C4615 C 0.60038 0.86967 0.44598 0.0
C4616 C 0.5999 0.88069 0.4487 0.0
C4617 C 0.60076 0.88842 0.44039 0.0
C4618 C 0.60195 0.88509 0.42952 0.0
C4619 C 0.60243 0.87389 0.42703 0.0
H4620 H 0.95726 0.9286 0.17518 0.0
H4621 H 0.96476 0.89414 0.17509 0.0
H4622 H 0.95495 0.89192 0.15787 0.0
H4623 H 0.93033 0.92649 0.16403 0.0
H4624 H 0.93134 0.93834 0.15553 0.0
H4625 H 0.93922 0.93757 0.16779 0.0
H4626 H 0.95679 0.94094 0.15683 0.0
H4627 H 0.94896 0.94163 0.14452 0.0
H4628 H 0.96002 0.93211 0.14566 0.0
H4629 H 0.94396 0.89282 0.1418 0.0
H4630 H 0.93181 0.89669 0.12676 0.0
H4631 H 0.93177 0.93101 0.1356 0.0
C4632 C 0.95688 0.92066 0.1714 0.0
C4633 C 0.96185 0.91151 0.17628 0.0
C4634 C 0.96111 0.9012 0.17132 0.0
C4635 C 0.95556 0.89987 0.16159 0.0
C4636 C 0.95081 0.90896 0.15689 0.0
C4637 C 0.95137 0.91918 0.16152 0.0
C4638 C 0.94536 0.92744 0.15458 0.0
C4639 C 0.93601 0.93277 0.16086 0.0
C4640 C 0.95325 0.93604 0.15013 0.0
C4641 C 0.9411 0.9201 0.14559 0.0
C4642 C 0.94448 0.90953 0.14714 0.0
C4643 C 0.94139 0.9011 0.14033 0.0
C4644 C 0.93455 0.90345 0.13167 0.0
C4645 C 0.93094 0.91422 0.1297 0.0
C4646 C 0.93434 0.92268 0.13679 0.0
H4647 H 0.05827 0.62061 0.16896 0.0
H4648 H 0.06132 0.58815 0.18217 0.0
H4649 H 0.07168 0.58243 0.166 0.0
H4650 H 0.05585 0.61268 0.1406 0.0
H4651 H 0.06388 0.62395 0.13578 0.0
H4652 H 0.05608 0.62531 0.14802 0.0
H4653 H 0.07355 0.63087 0.1585 0.0
H4654 H 0.08129 0.62962 0.14624 0.0
H4655 H 0.08526 0.62207 0.15808 0.0
H4656 H 0.08043 0.57999 0.14807 0.0
H4657 H 0.09066 0.58154 0.13123 0.0
H4658 H 0.08445 0.61637 0.1306 0.0
C4659 C 0.06122 0.61234 0.16843 0.0
C4660 C 0.05914 0.60479 0.17678 0.0
C4661 C 0.06298 0.59402 0.17587 0.0
C4662 C 0.06875 0.5907 0.16669 0.0
C4663 C 0.07061 0.59829 0.15854 0.0
C4664 C 0.06716 0.60894 0.15938 0.0
C4665 C 0.07089 0.61559 0.14975 0.0
C4666 C 0.06109 0.61962 0.14315 0.0
C4667 C 0.07819 0.6251 0.15336 0.0
C4668 C 0.07723 0.60709 0.14351 0.0
C4669 C 0.07659 0.5971 0.14857 0.0
C4670 C 0.08127 0.58783 0.14419 0.0
C4671 C 0.08719 0.58886 0.13464 0.0
C4672 C 0.08889 0.59918 0.12974 0.0
C4673 C 0.08349 0.60836 0.13411 0.0
H4674 H 0.09183 0.34777 0.968 0.0
H4675 H 0.11435 0.32847 0.94891 0.0
H4676 H 0.11667 0.34359 0.93644 0.0
H4677 H 0.07885 0.36205 0.94632 0.0
H4678 H 0.07848 0.37514 0.95289 0.0
H4679 H 0.07841 0.3629 0.96086 0.0
H4680 H 0.09534 0.36982 0.97129 0.0
H4681 H 0.09545 0.38204 0.96324 0.0
H4682 H 0.10738 0.37359 0.96392 0.0
H4683 H 0.11683 0.35984 0.92575 0.0
H4684 H 0.11421 0.3774 0.91663 0.0
H4685 H 0.09179 0.38743 0.9417 0.0
C4686 C 0.09726 0.34676 0.96121 0.0
C4687 C 0.10265 0.33667 0.95933 0.0
C4688 C 0.10978 0.33583 0.95039 0.0
C4689 C 0.11129 0.34447 0.94328 0.0
C4690 C 0.1058 0.35411 0.9452 0.0
C4691 C 0.09897 0.35546 0.95393 0.0
C4692 C 0.09423 0.36696 0.95386 0.0
C4693 C 0.08175 0.36674 0.95345 0.0
C4694 C 0.09834 0.37349 0.96366 0.0
C4695 C 0.09905 0.37144 0.94342 0.0
C4696 C 0.10591 0.36388 0.93881 0.0
C4697 C 0.11151 0.36588 0.92926 0.0
C4698 C 0.11 0.37585 0.92415 0.0
C4699 C 0.10288 0.38368 0.92849 0.0
C4700 C 0.09732 0.38152 0.93828 0.0
H4701 H 0.46062 0.4288 0.67359 0.0
H4702 H 0.46007 0.39385 0.67846 0.0
H4703 H 0.44982 0.3915 0.66154 0.0
H4704 H 0.43326 0.43089 0.66288 0.0
H4705 H 0.43642 0.44105 0.65288 0.0
H4706 H 0.44431 0.44031 0.66513 0.0
H4707 H 0.46186 0.43854 0.6538 0.0
H4708 H 0.45398 0.43916 0.64152 0.0
H4709 H 0.46292 0.42782 0.64391 0.0
H4710 H 0.43971 0.39243 0.64494 0.0
H4711 H 0.4285 0.39665 0.6292 0.0
H4712 H 0.43451 0.43119 0.63414 0.0
C4713 C 0.45825 0.4207 0.67105 0.0
C4714 C 0.46099 0.41145 0.67736 0.0
C4715 C 0.45789 0.40098 0.67381 0.0
C4716 C 0.45215 0.39957 0.66418 0.0
C4717 C 0.44949 0.40873 0.65818 0.0
C4718 C 0.45229 0.41913 0.66142 0.0
C4719 C 0.44789 0.42747 0.6534 0.0
C4720 C 0.44 0.4354 0.6589 0.0
C4721 C 0.45722 0.43361 0.64783 0.0
C4722 C 0.44198 0.42005 0.64544 0.0
C4723 C 0.44328 0.40929 0.64834 0.0
C4724 C 0.43867 0.40081 0.6425 0.0
C4725 C 0.43238 0.40331 0.63348 0.0
C4726 C 0.43072 0.41424 0.63028 0.0
C4727 C 0.43563 0.42275 0.63636 0.0
H4728 H 0.10582 0.68139 0.57163 0.0
H4729 H 0.09337 0.6676 0.54156 0.0
H4730 H 0.093 0.64964 0.55001 0.0
H4731 H 0.12183 0.66021 0.58067 0.0
H4732 H 0.11771 0.66094 0.59462 0.0
H4733 H 0.11729 0.67294 0.58633 0.0
H4734 H 0.09687 0.67556 0.59068 0.0
H4735 H 0.09729 0.66368 0.59918 0.0
H4736 H 0.08751 0.66449 0.58836 0.0
H4737 H 0.09515 0.63264 0.56144 0.0
H4738 H 0.09709 0.61871 0.57583 0.0
H4739 H 0.10561 0.64396 0.59879 0.0
C4740 C 0.10277 0.6748 0.5667 0.0
C4741 C 0.09993 0.67625 0.55563 0.0
C4742 C 0.09611 0.66698 0.54983 0.0
C4743 C 0.09572 0.65663 0.55462 0.0
C4744 C 0.0988 0.65558 0.56539 0.0
C4745 C 0.10191 0.66448 0.57145 0.0
C4746 C 0.1042 0.66126 0.58307 0.0
C4747 C 0.11596 0.664 0.58635 0.0
C4748 C 0.09598 0.66657 0.59078 0.0
C4749 C 0.1024 0.64909 0.58243 0.0
C4750 C 0.09929 0.64594 0.57215 0.0
C4751 C 0.09745 0.63504 0.56955 0.0
C4752 C 0.09863 0.62719 0.57771 0.0
C4753 C 0.10148 0.63033 0.58834 0.0
C4754 C 0.10339 0.6414 0.5907 0.0
H4755 H 0.40872 0.35184 0.04987 0.0
H4756 H 0.42642 0.33034 0.07152 0.0
H4757 H 0.42742 0.34474 0.08503 0.0
H4758 H 0.4252 0.37625 0.05732 0.0
H4759 H 0.4139 0.38552 0.05643 0.0
H4760 H 0.41418 0.37351 0.04806 0.0
H4761 H 0.3954 0.36776 0.05558 0.0
H4762 H 0.39517 0.37973 0.064 0.0
H4763 H 0.39362 0.36645 0.06998 0.0
H4764 H 0.42499 0.35967 0.09689 0.0
H4765 H 0.42327 0.37719 0.10597 0.0
H4766 H 0.40945 0.39129 0.07683 0.0
C4767 C 0.41298 0.35028 0.05737 0.0
C4768 C 0.41716 0.33978 0.05977 0.0
C4769 C 0.42278 0.33813 0.06963 0.0
C4770 C 0.42343 0.34627 0.07738 0.0
C4771 C 0.41881 0.35626 0.07506 0.0
C4772 C 0.41402 0.35856 0.06524 0.0
C4773 C 0.41027 0.3704 0.06502 0.0
C4774 C 0.41625 0.3768 0.05618 0.0
C4775 C 0.39788 0.37112 0.06356 0.0
C4776 C 0.41368 0.37416 0.07629 0.0
C4777 C 0.41835 0.36566 0.08188 0.0
C4778 C 0.42168 0.36654 0.09254 0.0
C4779 C 0.4207 0.37655 0.09761 0.0
C4780 C 0.41666 0.38571 0.09199 0.0
C4781 C 0.41279 0.38446 0.08124 0.0
H4782 H 0.59418 0.33884 0.21002 0.0
H4783 H 0.58704 0.37332 0.20787 0.0
H4784 H 0.60303 0.37602 0.19634 0.0
H4785 H 0.62372 0.34126 0.21069 0.0
H4786 H 0.62634 0.32976 0.20203 0.0
H4787 H 0.61428 0.33002 0.21027 0.0
H4788 H 0.60226 0.32715 0.19333 0.0
H4789 H 0.61431 0.32673 0.18508 0.0
H4790 H 0.60365 0.33628 0.18203 0.0
H4791 H 0.61891 0.37551 0.18527 0.0
H4792 H 0.63473 0.37181 0.17408 0.0
H4793 H 0.63318 0.33759 0.18294 0.0
C4794 C 0.59616 0.34694 0.20722 0.0
C4795 C 0.58956 0.35598 0.21 0.0
C4796 C 0.59214 0.3664 0.20598 0.0
C4797 C 0.60117 0.368 0.1994 0.0
C4798 C 0.60757 0.35907 0.19686 0.0
C4799 C 0.60527 0.34871 0.20052 0.0
C4800 C 0.6136 0.34065 0.19611 0.0
C4801 C 0.61986 0.3351 0.20533 0.0
C4802 C 0.60813 0.3322 0.1887 0.0
C4803 C 0.62094 0.34825 0.18965 0.0
C4804 C 0.61715 0.35878 0.19024 0.0
C4805 C 0.62209 0.36732 0.18483 0.0
C4806 C 0.63121 0.36513 0.17857 0.0
C4807 C 0.63548 0.35446 0.1778 0.0
C4808 C 0.6302 0.34586 0.18341 0.0
H4809 H 0.91736 0.67572 0.7188 0.0
H4810 H 0.9384 0.65862 0.69625 0.0
H4811 H 0.92357 0.65747 0.6833 0.0
H4812 H 0.89322 0.65952 0.71259 0.0
H4813 H 0.88377 0.67066 0.71348 0.0
H4814 H 0.89611 0.67089 0.72136 0.0
H4815 H 0.90131 0.68948 0.71304 0.0
H4816 H 0.88892 0.6893 0.70523 0.0
H4817 H 0.90183 0.69088 0.69856 0.0
H4818 H 0.90726 0.65732 0.67279 0.0
H4819 H 0.88913 0.65867 0.66454 0.0
H4820 H 0.87723 0.67548 0.69298 0.0
C4821 C 0.91883 0.67174 0.71114 0.0
C4822 C 0.92931 0.66755 0.70852 0.0
C4823 C 0.93074 0.66233 0.6984 0.0
C4824 C 0.92228 0.66148 0.69097 0.0
C4825 C 0.91222 0.6657 0.69371 0.0
C4826 C 0.91031 0.67072 0.7035 0.0
C4827 C 0.89843 0.67432 0.70416 0.0
C4828 C 0.89254 0.6685 0.71345 0.0
C4829 C 0.89758 0.68673 0.70532 0.0
C4830 C 0.89416 0.6705 0.6932 0.0
C4831 C 0.90236 0.66552 0.68743 0.0
C4832 C 0.90073 0.66118 0.67718 0.0
C4833 C 0.89042 0.66195 0.67258 0.0
C4834 C 0.88186 0.66708 0.67815 0.0
C4835 C 0.88369 0.67146 0.68861 0.0
H4836 H 0.65188 0.3019 0.6011 0.0
H4837 H 0.67616 0.3176 0.581 0.0
H4838 H 0.68083 0.32995 0.59588 0.0
H4839 H 0.64236 0.32516 0.61443 0.0
H4840 H 0.64106 0.31922 0.62767 0.0
H4841 H 0.64003 0.31074 0.61584 0.0
H4842 H 0.65556 0.2985 0.62311 0.0
H4843 H 0.65647 0.30694 0.63501 0.0
H4844 H 0.66836 0.30462 0.62686 0.0
H4845 H 0.68165 0.34182 0.61154 0.0
H4846 H 0.67993 0.35195 0.62843 0.0
H4847 H 0.65599 0.32859 0.63985 0.0
C4848 C 0.65836 0.30775 0.59996 0.0
C4849 C 0.66356 0.30884 0.58979 0.0
C4850 C 0.67194 0.31669 0.58861 0.0
C4851 C 0.67469 0.32374 0.59704 0.0
C4852 C 0.66916 0.32277 0.60676 0.0
C4853 C 0.66133 0.31489 0.60843 0.0
C4854 C 0.65662 0.31595 0.61977 0.0
C4855 C 0.64428 0.31789 0.6194 0.0
C4856 C 0.65942 0.3059 0.62659 0.0
C4857 C 0.66267 0.32596 0.62389 0.0
C4858 C 0.66993 0.32962 0.61621 0.0
C4859 C 0.6762 0.3389 0.61774 0.0
C4860 C 0.6752 0.34458 0.62745 0.0
C4861 C 0.66805 0.34095 0.63567 0.0
C4862 C 0.6616 0.33153 0.6338 0.0
H4863 H 0.45449 0.58571 0.84052 0.0
H4864 H 0.46817 0.61823 0.84182 0.0
H4865 H 0.4584 0.62172 0.85885 0.0
H4866 H 0.42831 0.59155 0.8511 0.0
H4867 H 0.42723 0.5796 0.85945 0.0
H4868 H 0.43552 0.57931 0.84748 0.0
H4869 H 0.45201 0.57326 0.85906 0.0
H4870 H 0.44373 0.57367 0.87105 0.0
H4871 H 0.45616 0.58143 0.87046 0.0
H4872 H 0.44614 0.6225 0.87452 0.0
H4873 H 0.43264 0.62034 0.88871 0.0
H4874 H 0.42803 0.58649 0.87922 0.0
C4875 C 0.45554 0.59348 0.84452 0.0
C4876 C 0.46221 0.60171 0.83992 0.0
C4877 C 0.46326 0.6118 0.8453 0.0
C4878 C 0.45771 0.61387 0.85495 0.0
C4879 C 0.45123 0.60568 0.85929 0.0
C4880 C 0.4502 0.59561 0.85441 0.0
C4881 C 0.44272 0.5883 0.86103 0.0
C4882 C 0.43286 0.58447 0.85436 0.0
C4883 C 0.44903 0.57859 0.86567 0.0
C4884 C 0.43931 0.59607 0.86999 0.0
C4885 C 0.44442 0.60599 0.86882 0.0
C4886 C 0.44225 0.61468 0.87567 0.0
C4887 C 0.43457 0.61328 0.88388 0.0
C4888 C 0.42918 0.60316 0.88544 0.0
C4889 C 0.43178 0.5944 0.87838 0.0
H4890 H 0.06229 0.42546 0.34418 0.0
H4891 H 0.05322 0.39134 0.34479 0.0
H4892 H 0.06237 0.38919 0.36235 0.0
H4893 H 0.08873 0.42261 0.35568 0.0
H4894 H 0.08819 0.43466 0.36399 0.0
H4895 H 0.08036 0.43395 0.3517 0.0
H4896 H 0.06289 0.4382 0.3625 0.0
H4897 H 0.07068 0.43881 0.37485 0.0
H4898 H 0.05921 0.42971 0.37379 0.0
H4899 H 0.07324 0.38998 0.37845 0.0
H4900 H 0.08595 0.39348 0.39312 0.0
H4901 H 0.08773 0.42758 0.38371 0.0
C4902 C 0.06231 0.41758 0.34808 0.0
C4903 C 0.05722 0.40848 0.34319 0.0
C4904 C 0.05721 0.39831 0.34844 0.0
C4905 C 0.0623 0.39704 0.35842 0.0
C4906 C 0.06731 0.40606 0.36305 0.0
C4907 C 0.06739 0.41616 0.35817 0.0
C4908 C 0.07371 0.42431 0.36502 0.0
C4909 C 0.08332 0.42916 0.35872 0.0
C4910 C 0.06617 0.43329 0.36929 0.0
C4911 C 0.07756 0.41699 0.37415 0.0
C4912 C 0.07355 0.40658 0.37285 0.0
C4913 C 0.07628 0.39814 0.37975 0.0
C4914 C 0.08346 0.40029 0.38819 0.0
C4915 C 0.08777 0.41088 0.38986 0.0
C4916 C 0.08465 0.41938 0.38274 0.0
H4917 H 0.41094 0.67876 0.44829 0.0
H4918 H 0.42139 0.66574 0.4794 0.0
H4919 H 0.42354 0.64791 0.47105 0.0
H4920 H 0.39706 0.65763 0.43765 0.0
H4921 H 0.40264 0.65807 0.4242 0.0
H4922 H 0.40215 0.67027 0.43223 0.0
H4923 H 0.4229 0.67304 0.43012 0.0
H4924 H 0.42341 0.66103 0.42177 0.0
H4925 H 0.43201 0.66209 0.43353 0.0
H4926 H 0.42217 0.63082 0.45999 0.0
H4927 H 0.42117 0.61648 0.44591 0.0
H4928 H 0.41462 0.64103 0.42169 0.0
C4929 C 0.41391 0.67241 0.45351 0.0
C4930 C 0.41543 0.67396 0.46485 0.0
C4931 C 0.41943 0.665 0.47093 0.0
C4932 C 0.42089 0.65473 0.46621 0.0
C4933 C 0.41883 0.65351 0.45524 0.0
C4934 C 0.41591 0.66221 0.44886 0.0
C4935 C 0.41485 0.65878 0.4371 0.0
C4936 C 0.40349 0.66134 0.43254 0.0
C4937 C 0.42382 0.66405 0.43023 0.0
C4938 C 0.41669 0.64665 0.4381 0.0
C4939 C 0.41905 0.64379 0.44863 0.0
C4940 C 0.42057 0.63298 0.45167 0.0
C4941 C 0.41992 0.62491 0.44368 0.0
C4942 C 0.41791 0.62774 0.4328 0.0
C4943 C 0.41627 0.63873 0.42998 0.0
H4944 H 0.1174 0.28185 0.07254 0.0
H4945 H 0.12157 0.31348 0.05726 0.0
H4946 H 0.12528 0.32163 0.07475 0.0
H4947 H 0.10554 0.29022 0.09747 0.0
H4948 H 0.11349 0.28155 0.10615 0.0
H4949 H 0.11086 0.27755 0.09238 0.0
H4950 H 0.13149 0.27567 0.08905 0.0
H4951 H 0.13416 0.27965 0.10283 0.0
H4952 H 0.14036 0.28702 0.09188 0.0
H4953 H 0.12749 0.3271 0.09299 0.0
H4954 H 0.13054 0.32959 0.11239 0.0
H4955 H 0.12685 0.29483 0.11746 0.0
C4956 C 0.11912 0.29048 0.07287 0.0
C4957 C 0.1186 0.29708 0.06338 0.0
C4958 C 0.12121 0.30828 0.06429 0.0
C4959 C 0.12351 0.31302 0.07424 0.0
C4960 C 0.12358 0.30648 0.08335 0.0
C4961 C 0.12175 0.29542 0.08288 0.0
C4962 C 0.12303 0.29047 0.09417 0.0
C4963 C 0.1126 0.2846 0.09775 0.0
C4964 C 0.13284 0.28274 0.0945 0.0
C4965 C 0.1252 0.30067 0.10095 0.0
C4966 C 0.12555 0.3097 0.09434 0.0
C4967 C 0.12736 0.32012 0.09829 0.0
C4968 C 0.12905 0.32146 0.10932 0.0
C4969 C 0.12896 0.31246 0.11638 0.0
C4970 C 0.12691 0.30186 0.1122 0.0
H4971 H 0.95138 0.86876 0.27435 0.0
H4972 H 0.96927 0.88648 0.29898 0.0
H4973 H 0.95814 0.87767 0.31314 0.0
H4974 H 0.92537 0.86989 0.28565 0.0
H4975 H 0.92169 0.85616 0.282 0.0
H4976 H 0.93153 0.86347 0.27409 0.0
H4977 H 0.94549 0.84793 0.27705 0.0
H4978 H 0.93562 0.84061 0.28498 0.0
H4979 H 0.94878 0.84375 0.29061 0.0
H4980 H 0.94474 0.8673 0.32446 0.0
H4981 H 0.92942 0.8569 0.33223 0.0
H4982 H 0.9198 0.84634 0.30018 0.0
C4983 C 0.95287 0.87088 0.28272 0.0
C4984 C 0.96106 0.87842 0.28557 0.0
C4985 C 0.963 0.88074 0.29663 0.0
C4986 C 0.95674 0.87576 0.30471 0.0
C4987 C 0.9487 0.86837 0.30159 0.0
C4988 C 0.94678 0.86591 0.29087 0.0
C4989 C 0.93768 0.85767 0.28967 0.0
C4990 C 0.92852 0.86207 0.28243 0.0
C4991 C 0.94216 0.84685 0.28532 0.0
C4992 C 0.93414 0.85653 0.30133 0.0
C4993 C 0.94089 0.86248 0.3081 0.0
C4994 C 0.93943 0.8626 0.31925 0.0
C4995 C 0.93076 0.85665 0.32358 0.0
C4996 C 0.92354 0.85083 0.3168 0.0
C4997 C 0.92527 0.85071 0.30552 0.0
H4998 H 0.39441 0.70594 0.565 0.0
H4999 H 0.4084 0.7382 0.56909 0.0
H5000 H 0.40748 0.73603 0.58884 0.0
H5001 H 0.37622 0.70608 0.58588 0.0
H5002 H 0.37855 0.69231 0.59028 0.0
H5003 H 0.38093 0.69597 0.57643 0.0
H5004 H 0.40081 0.6891 0.57772 0.0
H5005 H 0.39839 0.68512 0.59152 0.0
H5006 H 0.40951 0.69414 0.58835 0.0
H5007 H 0.40398 0.73076 0.6082 0.0
H5008 H 0.3991 0.72225 0.62566 0.0
H5009 H 0.38828 0.69328 0.60865 0.0
C5010 C 0.39753 0.71249 0.56998 0.0
C5011 C 0.4013 0.72233 0.5654 0.0
C5012 C 0.40516 0.73069 0.57234 0.0
C5013 C 0.40479 0.72951 0.58359 0.0
C5014 C 0.40075 0.71982 0.58779 0.0
C5015 C 0.3974 0.71137 0.58119 0.0
C5016 C 0.39342 0.70179 0.58772 0.0
C5017 C 0.38157 0.69888 0.58491 0.0
C5018 C 0.40098 0.69195 0.58624 0.0
C5019 C 0.39443 0.70641 0.59899 0.0
C5020 C 0.39885 0.71675 0.5989 0.0
C5021 C 0.40059 0.72263 0.60838 0.0
C5022 C 0.3978 0.71775 0.61824 0.0
C5023 C 0.39326 0.70716 0.61847 0.0
C5024 C 0.39157 0.70146 0.6087 0.0
H5025 H 0.56919 0.1434 0.77379 0.0
H5026 H 0.54588 0.13263 0.79785 0.0
H5027 H 0.55641 0.14217 0.81198 0.0
H5028 H 0.59309 0.13998 0.78966 0.0
H5029 H 0.59961 0.15198 0.78434 0.0
H5030 H 0.58984 0.14468 0.77625 0.0
H5031 H 0.57877 0.1625 0.77393 0.0
H5032 H 0.58846 0.16974 0.7822 0.0
H5033 H 0.57426 0.16976 0.78574 0.0
H5034 H 0.56924 0.15296 0.82336 0.0
H5035 H 0.58481 0.16237 0.83181 0.0
H5036 H 0.60051 0.16497 0.80058 0.0
C5037 C 0.56637 0.14285 0.78205 0.0
C5038 C 0.5567 0.13724 0.78468 0.0
C5039 C 0.55319 0.13698 0.79559 0.0
C5040 C 0.55911 0.14236 0.80368 0.0
C5041 C 0.56853 0.14791 0.80073 0.0
C5042 C 0.57221 0.14807 0.79022 0.0
C5043 C 0.5827 0.15445 0.78922 0.0
C5044 C 0.59185 0.14734 0.7846 0.0
C5045 C 0.58094 0.16472 0.78237 0.0
C5046 C 0.58467 0.15735 0.80095 0.0
C5047 C 0.57618 0.15382 0.80737 0.0
C5048 C 0.57595 0.15574 0.81844 0.0
C5049 C 0.58478 0.16114 0.82314 0.0
C5050 C 0.59378 0.16439 0.81682 0.0
C5051 C 0.59369 0.16257 0.80556 0.0
H5052 H 0.11455 0.73387 0.44558 0.0
H5053 H 0.12538 0.70441 0.46177 0.0
H5054 H 0.13024 0.69645 0.44447 0.0
H5055 H 0.10352 0.72198 0.42168 0.0
H5056 H 0.10907 0.73158 0.41217 0.0
H5057 H 0.10646 0.73573 0.42588 0.0
H5058 H 0.12646 0.74194 0.42788 0.0
H5059 H 0.12909 0.73779 0.41416 0.0
H5060 H 0.13724 0.73246 0.42504 0.0
H5061 H 0.13255 0.69058 0.42648 0.0
H5062 H 0.13471 0.68756 0.4071 0.0
H5063 H 0.12398 0.72058 0.40066 0.0
C5064 C 0.11802 0.72578 0.44543 0.0
C5065 C 0.11915 0.7196 0.45511 0.0
C5066 C 0.12394 0.70915 0.45455 0.0
C5067 C 0.12685 0.70455 0.44472 0.0
C5068 C 0.12524 0.71054 0.43539 0.0
C5069 C 0.12121 0.72101 0.4355 0.0
C5070 C 0.12085 0.72547 0.42395 0.0
C5071 C 0.10928 0.72889 0.42074 0.0
C5072 C 0.12889 0.73498 0.42268 0.0
C5073 C 0.12463 0.71554 0.4175 0.0
C5074 C 0.1272 0.70718 0.42447 0.0
C5075 C 0.13074 0.69709 0.42089 0.0
C5076 C 0.13194 0.69545 0.40986 0.0
C5077 C 0.12966 0.70383 0.40241 0.0
C5078 C 0.1258 0.71404 0.40623 0.0
H5079 H 0.55555 0.88053 0.71988 0.0
H5080 H 0.56855 0.87261 0.75155 0.0
H5081 H 0.58257 0.86128 0.74321 0.0
H5082 H 0.56058 0.85401 0.70732 0.0
H5083 H 0.565 0.85941 0.69453 0.0
H5084 H 0.55535 0.86685 0.70259 0.0
H5085 H 0.56787 0.88376 0.70246 0.0
H5086 H 0.5775 0.87648 0.69424 0.0
H5087 H 0.5818 0.88248 0.70684 0.0
H5088 H 0.59559 0.85182 0.73224 0.0
H5089 H 0.60787 0.84455 0.71829 0.0
H5090 H 0.58705 0.85774 0.69325 0.0
C5091 C 0.56134 0.87633 0.72497 0.0
C5092 C 0.56109 0.87748 0.73635 0.0
C5093 C 0.56875 0.87193 0.74282 0.0
C5094 C 0.57669 0.86542 0.73818 0.0
C5095 C 0.57687 0.86448 0.72703 0.0
C5096 C 0.5695 0.86976 0.72042 0.0
C5097 C 0.57209 0.86759 0.7086 0.0
C5098 C 0.56269 0.86161 0.70293 0.0
C5099 C 0.57499 0.87821 0.70269 0.0
C5100 C 0.58198 0.8603 0.70976 0.0
C5101 C 0.58451 0.85865 0.7205 0.0
C5102 C 0.59364 0.85285 0.72378 0.0
C5103 C 0.60053 0.84873 0.71585 0.0
C5104 C 0.5982 0.85041 0.70481 0.0
C5105 C 0.58874 0.85611 0.70168 0.0
H5106 H 0.39563 0.31107 0.95502 0.0
H5107 H 0.40733 0.27805 0.95038 0.0
H5108 H 0.40508 0.28018 0.93067 0.0
H5109 H 0.37607 0.31195 0.93464 0.0
H5110 H 0.37916 0.32563 0.93038 0.0
H5111 H 0.38171 0.3216 0.94412 0.0
H5112 H 0.40193 0.32742 0.94235 0.0
H5113 H 0.39935 0.33165 0.92866 0.0
H5114 H 0.40998 0.32199 0.93146 0.0
H5115 H 0.40164 0.28609 0.91127 0.0
H5116 H 0.39724 0.29536 0.89403 0.0
H5117 H 0.38851 0.32448 0.91178 0.0
C5118 C 0.39791 0.30428 0.94994 0.0
C5119 C 0.40164 0.29435 0.95439 0.0
C5120 C 0.40425 0.28568 0.94728 0.0
C5121 C 0.40311 0.28684 0.93604 0.0
C5122 C 0.39946 0.29676 0.93201 0.0
C5123 C 0.39701 0.30536 0.93875 0.0
C5124 C 0.39346 0.31526 0.93244 0.0
C5125 C 0.38191 0.31881 0.93558 0.0
C5126 C 0.40167 0.32463 0.93381 0.0
C5127 C 0.39381 0.31074 0.92111 0.0
C5128 C 0.39746 0.30012 0.92096 0.0
C5129 C 0.39876 0.2944 0.91131 0.0
C5130 C 0.39627 0.29971 0.90158 0.0
C5131 C 0.39244 0.31056 0.90164 0.0
C5132 C 0.39121 0.3161 0.91153 0.0
H5133 H 0.95537 0.14631 0.24438 0.0
H5134 H 0.96998 0.12617 0.21959 0.0
H5135 H 0.95869 0.13519 0.20573 0.0
H5136 H 0.92854 0.14731 0.23461 0.0
H5137 H 0.92642 0.16153 0.23749 0.0
H5138 H 0.93604 0.15386 0.24535 0.0
H5139 H 0.95116 0.16781 0.24056 0.0
H5140 H 0.94147 0.17547 0.2327 0.0
H5141 H 0.95389 0.1708 0.22658 0.0
H5142 H 0.94569 0.14589 0.19465 0.0
H5143 H 0.9308 0.15693 0.18703 0.0
H5144 H 0.92401 0.17012 0.21878 0.0
C5145 C 0.95609 0.14374 0.23605 0.0
C5146 C 0.96346 0.13543 0.23308 0.0
C5147 C 0.96437 0.13248 0.22205 0.0
C5148 C 0.95803 0.13759 0.21412 0.0
C5149 C 0.9509 0.14578 0.21729 0.0
C5150 C 0.94991 0.1489 0.22797 0.0
C5151 C 0.94166 0.15802 0.2291 0.0
C5152 C 0.93263 0.15499 0.23711 0.0
C5153 C 0.94738 0.16865 0.23244 0.0
C5154 C 0.93745 0.15879 0.21758 0.0
C5155 C 0.94325 0.15196 0.21085 0.0
C5156 C 0.94111 0.15129 0.19982 0.0
C5157 C 0.93268 0.1576 0.19556 0.0
C5158 C 0.92635 0.16435 0.20231 0.0
C5159 C 0.9288 0.16504 0.21346 0.0
H5160 H 0.06739 0.11051 0.3105 0.0
H5161 H 0.06797 0.12559 0.27866 0.0
H5162 H 0.08742 0.12928 0.28101 0.0
H5163 H 0.08409 0.13065 0.32309 0.0
H5164 H 0.09069 0.12108 0.33193 0.0
H5165 H 0.07701 0.11854 0.32734 0.0
H5166 H 0.08299 0.0998 0.31976 0.0
H5167 H 0.09669 0.10233 0.32431 0.0
H5168 H 0.09411 0.09914 0.31032 0.0
H5169 H 0.10699 0.13238 0.28726 0.0
H5170 H 0.12447 0.13465 0.29715 0.0
H5171 H 0.11045 0.11904 0.32518 0.0
C5172 C 0.07133 0.11478 0.30398 0.0
C5173 C 0.06568 0.11775 0.29436 0.0
C5174 C 0.07179 0.12295 0.28607 0.0
C5175 C 0.08295 0.12522 0.28735 0.0
C5176 C 0.08801 0.12245 0.29704 0.0
C5177 C 0.08236 0.1174 0.30523 0.0
C5178 C 0.08952 0.11569 0.31508 0.0
C5179 C 0.08506 0.12186 0.32494 0.0
C5180 C 0.0909 0.10351 0.31751 0.0
C5181 C 0.10006 0.12066 0.31119 0.0
C5182 C 0.0991 0.12443 0.30071 0.0
C5183 C 0.10781 0.12942 0.29545 0.0
C5184 C 0.11769 0.13066 0.30109 0.0
C5185 C 0.11872 0.12693 0.31183 0.0
C5186 C 0.10983 0.12185 0.31691 0.0
H5187 H 0.13859 0.77433 0.56923 0.0
H5188 H 0.13447 0.7988 0.54415 0.0
H5189 H 0.14599 0.81133 0.55439 0.0
H5190 H 0.13601 0.79317 0.59133 0.0
H5191 H 0.14583 0.78623 0.59965 0.0
H5192 H 0.13806 0.77873 0.58979 0.0
H5193 H 0.15607 0.77176 0.58137 0.0
H5194 H 0.16383 0.7795 0.59109 0.0
H5195 H 0.16609 0.78145 0.57685 0.0
H5196 H 0.15798 0.8213 0.56694 0.0
H5197 H 0.16682 0.82957 0.58276 0.0
H5198 H 0.16169 0.79978 0.60091 0.0
C5199 C 0.13992 0.78235 0.56589 0.0
C5200 C 0.1358 0.78529 0.55559 0.0
C5201 C 0.13787 0.79598 0.5517 0.0
C5202 C 0.14438 0.80327 0.55751 0.0
C5203 C 0.14852 0.79997 0.56742 0.0
C5204 C 0.14615 0.78991 0.57175 0.0
C5205 C 0.15106 0.78878 0.58295 0.0
C5206 C 0.14221 0.7866 0.59143 0.0
C5207 C 0.15978 0.77984 0.58307 0.0
C5208 C 0.15616 0.79995 0.58435 0.0
C5209 C 0.15491 0.80609 0.5751 0.0
C5210 C 0.15899 0.81661 0.57426 0.0
C5211 C 0.16409 0.8212 0.58328 0.0
C5212 C 0.16496 0.81534 0.59309 0.0
C5213 C 0.16111 0.80448 0.59354 0.0
H5214 H 0.44943 0.88724 0.78616 0.0
H5215 H 0.46062 0.90634 0.8137 0.0
H5216 H 0.4422 0.90629 0.821 0.0
H5217 H 0.4226 0.9023 0.78457 0.0
H5218 H 0.4154 0.89033 0.78009 0.0
H5219 H 0.42947 0.89225 0.77649 0.0
H5220 H 0.43398 0.87349 0.78478 0.0
H5221 H 0.41998 0.87164 0.78858 0.0
H5222 H 0.43054 0.87081 0.79868 0.0
H5223 H 0.42369 0.90295 0.82645 0.0
H5224 H 0.40448 0.898 0.82902 0.0
H5225 H 0.40397 0.88223 0.79766 0.0
C5226 C 0.44802 0.89161 0.79361 0.0
C5227 C 0.45672 0.89649 0.79951 0.0
C5228 C 0.45435 0.9021 0.80923 0.0
C5229 C 0.44383 0.90227 0.81339 0.0
C5230 C 0.43561 0.89714 0.8076 0.0
C5231 C 0.43742 0.89216 0.79779 0.0
C5232 C 0.42688 0.88738 0.79331 0.0
C5233 C 0.42338 0.89342 0.783 0.0
C5234 C 0.42791 0.87509 0.79122 0.0
C5235 C 0.41915 0.88982 0.80257 0.0
C5236 C 0.42443 0.89562 0.8106 0.0
C5237 C 0.41936 0.89862 0.82015 0.0
C5238 C 0.40848 0.89579 0.82155 0.0
C5239 C 0.40282 0.88995 0.81348 0.0
C5240 C 0.40817 0.88685 0.80385 0.0
H5241 H 0.38564 0.24077 0.07171 0.0
H5242 H 0.37243 0.226 0.04236 0.0
H5243 H 0.36134 0.21407 0.05317 0.0
H5244 H 0.38547 0.21714 0.0885 0.0
H5245 H 0.38074 0.22429 0.10031 0.0
H5246 H 0.38851 0.2314 0.09023 0.0
H5247 H 0.37294 0.24551 0.08852 0.0
H5248 H 0.36505 0.23822 0.09841 0.0
H5249 H 0.3594 0.2409 0.08524 0.0
H5250 H 0.35134 0.20344 0.06682 0.0
H5251 H 0.34414 0.19416 0.08268 0.0
H5252 H 0.36123 0.21726 0.10343 0.0
C5253 C 0.38044 0.23516 0.0674 0.0
C5254 C 0.38044 0.23449 0.0559 0.0
C5255 C 0.37332 0.22673 0.05099 0.0
C5256 C 0.36666 0.21988 0.05711 0.0
C5257 C 0.36679 0.22096 0.06825 0.0
C5258 C 0.37343 0.2284 0.07339 0.0
C5259 C 0.37166 0.22799 0.08553 0.0
C5260 C 0.38223 0.22503 0.09149 0.0
C5261 C 0.36698 0.2388 0.08967 0.0
C5262 C 0.3633 0.2189 0.08632 0.0
C5263 C 0.36055 0.21506 0.07622 0.0
C5264 C 0.35335 0.20643 0.07481 0.0
C5265 C 0.34917 0.20126 0.08398 0.0
C5266 C 0.35205 0.20479 0.09455 0.0
C5267 C 0.35897 0.21403 0.09561 0.0
H5268 H 0.06489 0.90427 0.20817 0.0
H5269 H 0.0674 0.89092 0.2407 0.0
H5270 H 0.08697 0.88937 0.23853 0.0
H5271 H 0.08287 0.88566 0.19646 0.0
H5272 H 0.08902 0.89516 0.18722 0.0
H5273 H 0.07526 0.89722 0.19167 0.0
H5274 H 0.0803 0.9165 0.19853 0.0
H5275 H 0.09408 0.91453 0.19401 0.0
H5276 H 0.09145 0.91817 0.20786 0.0
H5277 H 0.10599 0.88741 0.23267 0.0
H5278 H 0.12341 0.88505 0.22293 0.0
H5279 H 0.10867 0.89785 0.1938 0.0
C5280 C 0.06942 0.90095 0.21489 0.0
C5281 C 0.06427 0.89788 0.2247 0.0
C5282 C 0.07087 0.89377 0.23321 0.0
C5283 C 0.08211 0.89271 0.23205 0.0
C5284 C 0.08676 0.89555 0.22225 0.0
C5285 C 0.08066 0.89955 0.21378 0.0
C5286 C 0.08765 0.9012 0.20382 0.0
C5287 C 0.08345 0.8944 0.19423 0.0
C5288 C 0.08841 0.91332 0.20088 0.0
C5289 C 0.09847 0.89703 0.20795 0.0
C5290 C 0.09781 0.89406 0.21868 0.0
C5291 C 0.10666 0.88979 0.22429 0.0
C5292 C 0.11647 0.88848 0.21874 0.0
C5293 C 0.11725 0.89136 0.20774 0.0
C5294 C 0.10819 0.8957 0.20227 0.0
H5295 H 0.37932 0.79727 0.4686 0.0
H5296 H 0.38295 0.768 0.44909 0.0
H5297 H 0.3724 0.77628 0.4347 0.0
H5298 H 0.35175 0.80357 0.46021 0.0
H5299 H 0.35362 0.81807 0.45906 0.0
H5300 H 0.36166 0.81042 0.46858 0.0
H5301 H 0.37939 0.81766 0.46003 0.0
H5302 H 0.37142 0.82559 0.45072 0.0
H5303 H 0.38146 0.81622 0.44568 0.0
H5304 H 0.36068 0.78603 0.42308 0.0
H5305 H 0.35127 0.7995 0.41196 0.0
H5306 H 0.35553 0.82374 0.43721 0.0
C5307 C 0.37794 0.79269 0.46125 0.0
C5308 C 0.38214 0.78196 0.45997 0.0
C5309 C 0.38014 0.77626 0.45023 0.0
C5310 C 0.37397 0.78083 0.44203 0.0
C5311 C 0.36976 0.79114 0.44359 0.0
C5312 C 0.37182 0.79723 0.45275 0.0
C5313 C 0.3666 0.80845 0.45171 0.0
C5314 C 0.35789 0.81023 0.46041 0.0
C5315 C 0.37524 0.81751 0.45205 0.0
C5316 C 0.36145 0.80751 0.44054 0.0
C5317 C 0.3632 0.79729 0.43627 0.0
C5318 C 0.35933 0.79414 0.42621 0.0
C5319 C 0.35397 0.80183 0.41998 0.0
C5320 C 0.35286 0.81266 0.42366 0.0
C5321 C 0.35625 0.81548 0.43425 0.0
H5322 H 0.45235 0.11011 0.70911 0.0
H5323 H 0.45305 0.13223 0.73654 0.0
H5324 H 0.43354 0.13555 0.73438 0.0
H5325 H 0.43477 0.12552 0.693 0.0
H5326 H 0.42723 0.1142 0.6875 0.0
H5327 H 0.44109 0.11235 0.6918 0.0
H5328 H 0.43511 0.09678 0.70456 0.0
H5329 H 0.42121 0.09854 0.70027 0.0
H5330 H 0.42463 0.09925 0.71442 0.0
H5331 H 0.41474 0.13815 0.72841 0.0
H5332 H 0.39715 0.13954 0.71879 0.0
H5333 H 0.40808 0.11578 0.69534 0.0
C5334 C 0.44837 0.1156 0.71468 0.0
C5335 C 0.45422 0.12079 0.72308 0.0
C5336 C 0.44872 0.12793 0.73021 0.0
C5337 C 0.43762 0.12992 0.72903 0.0
C5338 C 0.43211 0.12473 0.72069 0.0
C5339 C 0.43722 0.11768 0.71365 0.0
C5340 C 0.42939 0.11363 0.70507 0.0
C5341 C 0.43336 0.11661 0.69367 0.0
C5342 C 0.42748 0.10132 0.70615 0.0
C5343 C 0.41929 0.11993 0.70813 0.0
C5344 C 0.42103 0.12616 0.71727 0.0
C5345 C 0.41317 0.13317 0.72136 0.0
C5346 C 0.40326 0.13392 0.71588 0.0
C5347 C 0.40134 0.12763 0.70652 0.0
C5348 C 0.40937 0.12046 0.70265 0.0
H5349 H 0.13059 0.21759 0.96129 0.0
H5350 H 0.14522 0.24927 0.95596 0.0
H5351 H 0.15812 0.2412 0.9431 0.0
H5352 H 0.15575 0.20143 0.95874 0.0
H5353 H 0.1494 0.1905 0.95131 0.0
H5354 H 0.14159 0.19829 0.96088 0.0
H5355 H 0.12755 0.20284 0.94599 0.0
H5356 H 0.13526 0.19503 0.93638 0.0
H5357 H 0.13208 0.20906 0.93361 0.0
H5358 H 0.16864 0.23044 0.9301 0.0
H5359 H 0.17614 0.21711 0.91711 0.0
H5360 H 0.15511 0.19213 0.93024 0.0
C5361 C 0.13658 0.22275 0.95744 0.0
C5362 C 0.13689 0.2341 0.95951 0.0
C5363 C 0.14479 0.24062 0.95434 0.0
C5364 C 0.1522 0.23609 0.9471 0.0
C5365 C 0.15164 0.22499 0.94505 0.0
C5366 C 0.14405 0.21834 0.95 0.0
C5367 C 0.14493 0.20676 0.9457 0.0
C5368 C 0.14811 0.19877 0.9547 0.0
C5369 C 0.13432 0.20322 0.94009 0.0
C5370 C 0.1541 0.20807 0.93759 0.0
C5371 C 0.15787 0.21866 0.93742 0.0
C5372 C 0.1659 0.22207 0.93025 0.0
C5373 C 0.17014 0.21448 0.92295 0.0
C5374 C 0.16636 0.20363 0.92293 0.0
C5375 C 0.15831 0.20035 0.93037 0.0
H5376 H 0.29773 0.06623 0.13469 0.0
H5377 H 0.29517 0.06579 0.09978 0.0
H5378 H 0.29976 0.08537 0.09921 0.0
H5379 H 0.28677 0.09387 0.13892 0.0
H5380 H 0.29623 0.0971 0.1496 0.0
H5381 H 0.29201 0.08321 0.14744 0.0
H5382 H 0.31217 0.0774 0.14559 0.0
H5383 H 0.31638 0.09127 0.14777 0.0
H5384 H 0.32068 0.08413 0.13581 0.0
H5385 H 0.30589 0.10426 0.10211 0.0
H5386 H 0.31313 0.12174 0.10814 0.0
H5387 H 0.31093 0.11096 0.14155 0.0
C5388 C 0.29785 0.07038 0.12698 0.0
C5389 C 0.2958 0.06462 0.11726 0.0
C5390 C 0.29646 0.07016 0.10729 0.0
C5391 C 0.2991 0.08124 0.1069 0.0
C5392 C 0.30111 0.08671 0.11656 0.0
C5393 C 0.30051 0.08153 0.12644 0.0
C5394 C 0.30363 0.08931 0.13553 0.0
C5395 C 0.29409 0.09097 0.14333 0.0
C5396 C 0.31382 0.08528 0.14153 0.0
C5397 C 0.30606 0.09962 0.12917 0.0
C5398 C 0.30456 0.09786 0.11826 0.0
C5399 C 0.30688 0.10583 0.11066 0.0
C5400 C 0.3109 0.11587 0.11424 0.0
C5401 C 0.31248 0.11806 0.12541 0.0
C5402 C 0.3099 0.10973 0.13296 0.0
H5403 H 0.78881 0.44967 0.888 0.0
H5404 H 0.80966 0.45668 0.91557 0.0
H5405 H 0.81636 0.43801 0.91533 0.0
H5406 H 0.78235 0.42115 0.89723 0.0
H5407 H 0.78213 0.41569 0.88372 0.0
H5408 H 0.77822 0.42962 0.88609 0.0
H5409 H 0.79261 0.43605 0.87224 0.0
H5410 H 0.79655 0.42214 0.86991 0.0
H5411 H 0.8066 0.43204 0.87399 0.0
H5412 H 0.82195 0.41976 0.91194 0.0
H5413 H 0.82554 0.40108 0.90598 0.0
H5414 H 0.80112 0.40425 0.88081 0.0
C5415 C 0.7946 0.44716 0.8941 0.0
C5416 C 0.79887 0.45475 0.90169 0.0
C5417 C 0.80646 0.45115 0.90953 0.0
C5418 C 0.81029 0.44052 0.90951 0.0
C5419 C 0.80628 0.43338 0.9018 0.0
C5420 C 0.79848 0.43636 0.89432 0.0
C5421 C 0.79576 0.42673 0.88698 0.0
C5422 C 0.78391 0.42309 0.8886 0.0
C5423 C 0.79802 0.42941 0.87507 0.0
C5424 C 0.80363 0.41821 0.89128 0.0
C5425 C 0.80946 0.42232 0.89992 0.0
C5426 C 0.81734 0.41633 0.9053 0.0
C5427 C 0.8193 0.40573 0.90189 0.0
C5428 C 0.81347 0.40122 0.89312 0.0
C5429 C 0.80558 0.40753 0.88763 0.0
H5430 H 0.79807 0.55697 0.13195 0.0
H5431 H 0.76756 0.56217 0.14867 0.0
H5432 H 0.77635 0.57556 0.16062 0.0
H5433 H 0.81587 0.56009 0.15583 0.0
H5434 H 0.82629 0.56748 0.14871 0.0
H5435 H 0.81804 0.55763 0.14164 0.0
H5436 H 0.81245 0.57228 0.12773 0.0
H5437 H 0.82069 0.58219 0.13471 0.0
H5438 H 0.80646 0.58481 0.13238 0.0
H5439 H 0.78748 0.58911 0.16977 0.0
H5440 H 0.80125 0.60236 0.17621 0.0
H5441 H 0.82488 0.58864 0.1542 0.0
C5442 C 0.79336 0.56088 0.13823 0.0
C5443 C 0.78216 0.55866 0.13947 0.0
C5444 C 0.77614 0.56389 0.14766 0.0
C5445 C 0.78105 0.57145 0.15448 0.0
C5446 C 0.79202 0.57365 0.15304 0.0
C5447 C 0.79818 0.56855 0.14518 0.0
C5448 C 0.80973 0.57294 0.1452 0.0
C5449 C 0.81796 0.564 0.14801 0.0
C5450 C 0.81249 0.57838 0.13436 0.0
C5451 C 0.80894 0.58127 0.15421 0.0
C5452 C 0.79864 0.5815 0.1586 0.0
C5453 C 0.79567 0.58891 0.16659 0.0
C5454 C 0.80348 0.59634 0.17022 0.0
C5455 C 0.81405 0.59618 0.16586 0.0
C5456 C 0.81686 0.58859 0.15781 0.0
H5457 H 0.71769 0.5682 0.41258 0.0
H5458 H 0.73009 0.56098 0.38059 0.0
H5459 H 0.72715 0.57998 0.37515 0.0
H5460 H 0.69685 0.58607 0.40549 0.0
H5461 H 0.69904 0.59586 0.41615 0.0
H5462 H 0.70296 0.5819 0.41808 0.0
H5463 H 0.72257 0.5881 0.42263 0.0
H5464 H 0.71871 0.6021 0.42064 0.0
H5465 H 0.72991 0.59645 0.41317 0.0
H5466 H 0.72238 0.59885 0.37267 0.0
H5467 H 0.71445 0.61712 0.37265 0.0
H5468 H 0.7045 0.61292 0.40604 0.0
C5469 C 0.71983 0.57073 0.40448 0.0
C5470 C 0.72418 0.56324 0.39696 0.0
C5471 C 0.72687 0.56669 0.38644 0.0
C5472 C 0.72527 0.57744 0.3833 0.0
C5473 C 0.7211 0.58469 0.39084 0.0
C5474 C 0.71843 0.58158 0.40123 0.0
C5475 C 0.71382 0.59116 0.40751 0.0
C5476 C 0.70249 0.58859 0.41207 0.0
C5477 C 0.72172 0.59466 0.41653 0.0
C5478 C 0.7134 0.59973 0.39867 0.0
C5479 C 0.71807 0.59586 0.3893 0.0
C5480 C 0.71868 0.60202 0.37994 0.0
C5481 C 0.71408 0.61236 0.37999 0.0
C5482 C 0.70866 0.61636 0.38926 0.0
C5483 C 0.70861 0.61008 0.39885 0.0
H5484 H 0.22496 0.97014 0.14656 0.0
H5485 H 0.23899 0.94833 0.12257 0.0
H5486 H 0.23068 0.9329 0.13163 0.0
H5487 H 0.22448 0.95353 0.16947 0.0
H5488 H 0.21074 0.95593 0.17386 0.0
H5489 H 0.21784 0.96618 0.16621 0.0
H5490 H 0.20255 0.96635 0.15185 0.0
H5491 H 0.19524 0.95642 0.15972 0.0
H5492 H 0.19826 0.95371 0.14573 0.0
H5493 H 0.22677 0.92029 0.14631 0.0
H5494 H 0.21663 0.90904 0.15886 0.0
H5495 H 0.19775 0.93721 0.16886 0.0
C5496 C 0.22617 0.96217 0.14306 0.0
C5497 C 0.23364 0.96048 0.13433 0.0
C5498 C 0.23434 0.9499 0.1298 0.0
C5499 C 0.22951 0.94102 0.13481 0.0
C5500 C 0.22326 0.94282 0.14392 0.0
C5501 C 0.22068 0.95308 0.14752 0.0
C5502 C 0.21224 0.95224 0.15663 0.0
C5503 C 0.21659 0.95727 0.16716 0.0
C5504 C 0.20143 0.95749 0.15328 0.0
C5505 C 0.21108 0.93988 0.15767 0.0
C5506 C 0.21811 0.93487 0.15061 0.0
C5507 C 0.22043 0.92389 0.15118 0.0
C5508 C 0.2145 0.91756 0.15832 0.0
C5509 C 0.20543 0.92189 0.16391 0.0
C5510 C 0.20414 0.93343 0.16419 0.0
H5511 H 0.22299 0.9504 0.63582 0.0
H5512 H 0.21467 0.95556 0.60218 0.0
H5513 H 0.20967 0.93612 0.60039 0.0
H5514 H 0.23357 0.92254 0.63324 0.0
H5515 H 0.22757 0.91815 0.64577 0.0
H5516 H 0.2316 0.93215 0.64407 0.0
H5517 H 0.21207 0.93829 0.64895 0.0
H5518 H 0.20801 0.92431 0.65058 0.0
H5519 H 0.20071 0.93298 0.64135 0.0
H5520 H 0.20478 0.91683 0.60239 0.0
H5521 H 0.19893 0.89867 0.60816 0.0
H5522 H 0.20994 0.9057 0.64083 0.0
C5523 C 0.22018 0.94735 0.62808 0.0
C5524 C 0.21915 0.95435 0.61911 0.0
C5525 C 0.21539 0.95025 0.60912 0.0
C5526 C 0.21265 0.93925 0.60802 0.0
C5527 C 0.21365 0.93254 0.61703 0.0
C5528 C 0.21724 0.93641 0.6269 0.0
C5529 C 0.21666 0.92765 0.63549 0.0
C5530 C 0.22803 0.92497 0.6399 0.0
C5531 C 0.2089 0.93101 0.64463 0.0
C5532 C 0.21205 0.9183 0.62891 0.0
C5533 C 0.21055 0.92131 0.61827 0.0
C5534 C 0.20604 0.9143 0.61066 0.0
C5535 C 0.20282 0.90395 0.61402 0.0
C5536 C 0.2041 0.90065 0.62492 0.0
C5537 C 0.20887 0.90794 0.63244 0.0
H5538 H 0.7852 0.46441 0.36337 0.0
H5539 H 0.78937 0.45423 0.39665 0.0
H5540 H 0.80263 0.44041 0.39085 0.0
H5541 H 0.78494 0.4391 0.35189 0.0
H5542 H 0.79272 0.44213 0.33994 0.0
H5543 H 0.78516 0.45273 0.34654 0.0
H5544 H 0.80258 0.46443 0.34861 0.0
H5545 H 0.81009 0.45399 0.34164 0.0
H5546 H 0.8145 0.45857 0.35478 0.0
H5547 H 0.81316 0.42668 0.38193 0.0
H5548 H 0.82173 0.41329 0.37008 0.0
H5549 H 0.81096 0.43132 0.34187 0.0
C5550 C 0.78916 0.45941 0.3694 0.0
C5551 C 0.78631 0.46025 0.38045 0.0
C5552 C 0.79145 0.45358 0.38817 0.0
C5553 C 0.79901 0.44579 0.38496 0.0
C5554 C 0.80133 0.44482 0.374 0.0
C5555 C 0.79673 0.45149 0.3663 0.0
C5556 C 0.8001 0.448 0.35498 0.0
C5557 C 0.79014 0.44533 0.34793 0.0
C5558 C 0.80724 0.45677 0.34969 0.0
C5559 C 0.80672 0.4379 0.35759 0.0
C5560 C 0.80745 0.43649 0.36864 0.0
C5561 C 0.81276 0.42771 0.37326 0.0
C5562 C 0.81751 0.4201 0.36645 0.0
C5563 C 0.81686 0.42119 0.3551 0.0
C5564 C 0.81153 0.43031 0.35055 0.0
H5565 H 0.73563 0.55285 0.86631 0.0
H5566 H 0.73173 0.56398 0.89935 0.0
H5567 H 0.71902 0.5781 0.89317 0.0
H5568 H 0.73615 0.57842 0.85406 0.0
H5569 H 0.72821 0.57503 0.84225 0.0
H5570 H 0.7359 0.56464 0.84906 0.0
H5571 H 0.71854 0.55297 0.85147 0.0
H5572 H 0.71089 0.56322 0.84437 0.0
H5573 H 0.70671 0.55894 0.85764 0.0
H5574 H 0.70837 0.59155 0.88406 0.0
H5575 H 0.69918 0.60437 0.87209 0.0
H5576 H 0.70958 0.58576 0.84411 0.0
C5577 C 0.73193 0.5582 0.8722 0.0
C5578 C 0.7347 0.55745 0.88332 0.0
C5579 C 0.7298 0.56454 0.89083 0.0
C5580 C 0.72253 0.57253 0.8874 0.0
C5581 C 0.72024 0.57332 0.87642 0.0
C5582 C 0.72464 0.56635 0.86887 0.0
C5583 C 0.72106 0.56956 0.85749 0.0
C5584 C 0.73092 0.57207 0.85029 0.0
C5585 C 0.71387 0.56064 0.85245 0.0
C5586 C 0.71444 0.57975 0.8599 0.0
C5587 C 0.714 0.5815 0.87092 0.0
C5588 C 0.7086 0.59029 0.87541 0.0
C5589 C 0.70348 0.59758 0.86852 0.0
C5590 C 0.70381 0.5962 0.85718 0.0
C5591 C 0.70925 0.58704 0.85276 0.0
H5592 H 0.87931 0.70799 0.97093 0.0
H5593 H 0.904 0.71511 0.99496 0.0
H5594 H 0.91707 0.70348 0.9852 0.0
H5595 H 0.8849 0.68082 0.9668 0.0
H5596 H 0.8834 0.68056 0.95231 0.0
H5597 H 0.8762 0.69054 0.96015 0.0
H5598 H 0.88481 0.70605 0.94891 0.0
H5599 H 0.89195 0.69611 0.94092 0.0
H5600 H 0.89939 0.70681 0.94763 0.0
H5601 H 0.92685 0.6897 0.97414 0.0
H5602 H 0.93301 0.67524 0.96155 0.0
H5603 H 0.90219 0.67691 0.94464 0.0
C5604 C 0.88752 0.70717 0.97399 0.0
C5605 C 0.8907 0.71227 0.98375 0.0
C5606 C 0.90147 0.71113 0.98755 0.0
C5607 C 0.90893 0.7046 0.98205 0.0
C5608 C 0.90553 0.69936 0.97267 0.0
C5609 C 0.89515 0.7007 0.96851 0.0
C5610 C 0.89361 0.69387 0.95839 0.0
C5611 C 0.88396 0.68597 0.95949 0.0
C5612 C 0.89236 0.70115 0.94837 0.0
C5613 C 0.90437 0.6879 0.95808 0.0
C5614 C 0.91124 0.6914 0.96621 0.0
C5615 C 0.9216 0.68699 0.96764 0.0
C5616 C 0.92504 0.67882 0.9605 0.0
C5617 C 0.91806 0.67513 0.95219 0.0
C5618 C 0.90764 0.67971 0.95096 0.0
H5619 H 0.03936 0.13233 0.70216 0.0
H5620 H 0.051 0.16541 0.70668 0.0
H5621 H 0.05616 0.16628 0.68757 0.0
H5622 H 0.05925 0.12305 0.68504 0.0
H5623 H 0.05065 0.11547 0.67591 0.0
H5624 H 0.04639 0.1177 0.68962 0.0
H5625 H 0.02851 0.12645 0.6828 0.0
H5626 H 0.03273 0.12413 0.66904 0.0
H5627 H 0.02913 0.13763 0.67342 0.0
H5628 H 0.06164 0.16339 0.66893 0.0
H5629 H 0.0673 0.15678 0.65108 0.0
H5630 H 0.05254 0.12539 0.65773 0.0
C5631 C 0.04269 0.13984 0.69902 0.0
C5632 C 0.04485 0.14878 0.70596 0.0
C5633 C 0.04938 0.15842 0.70157 0.0
C5634 C 0.05229 0.15903 0.6907 0.0
C5635 C 0.05043 0.15001 0.68418 0.0
C5636 C 0.04561 0.14063 0.68804 0.0
C5637 C 0.04504 0.13202 0.6792 0.0
C5638 C 0.05068 0.12144 0.68265 0.0
C5639 C 0.03315 0.12993 0.67592 0.0
C5640 C 0.05115 0.13774 0.67016 0.0
C5641 C 0.05379 0.14825 0.67316 0.0
C5642 C 0.0595 0.15523 0.6664 0.0
C5643 C 0.06267 0.15141 0.65627 0.0
C5644 C 0.06029 0.14063 0.653 0.0
C5645 C 0.05442 0.13369 0.66004 0.0
H5646 H 0.62454 0.30084 0.47258 0.0
H5647 H 0.62942 0.32134 0.50101 0.0
H5648 H 0.6204 0.33619 0.49197 0.0
H5649 H 0.62757 0.32213 0.45221 0.0
H5650 H 0.6166 0.31732 0.44376 0.0
H5651 H 0.62409 0.30786 0.45201 0.0
H5652 H 0.60596 0.30152 0.46049 0.0
H5653 H 0.5985 0.31128 0.45254 0.0
H5654 H 0.59731 0.31132 0.46704 0.0
H5655 H 0.60905 0.34812 0.48191 0.0
H5656 H 0.59968 0.35909 0.46839 0.0
H5657 H 0.60254 0.33272 0.44511 0.0
C5658 C 0.62374 0.30843 0.47694 0.0
C5659 C 0.628 0.30971 0.48765 0.0
C5660 C 0.62674 0.31994 0.49281 0.0
C5661 C 0.62137 0.32851 0.4878 0.0
C5662 C 0.61702 0.32686 0.4776 0.0
C5663 C 0.61825 0.31723 0.47202 0.0
C5664 C 0.61266 0.31805 0.46098 0.0
C5665 C 0.62072 0.31624 0.45169 0.0
C5666 C 0.60304 0.31006 0.46022 0.0
C5667 C 0.6086 0.32977 0.46128 0.0
C5668 C 0.61089 0.33439 0.47119 0.0
C5669 C 0.6075 0.34477 0.47397 0.0
C5670 C 0.60221 0.35095 0.46619 0.0
C5671 C 0.60084 0.34701 0.45551 0.0
C5672 C 0.60363 0.33605 0.45314 0.0
H5673 H 0.45569 0.87132 0.20472 0.0
H5674 H 0.48958 0.86257 0.20046 0.0
H5675 H 0.48748 0.86495 0.18066 0.0
H5676 H 0.44543 0.85731 0.18107 0.0
H5677 H 0.43541 0.86766 0.17847 0.0
H5678 H 0.43986 0.86509 0.19209 0.0
H5679 H 0.44503 0.8855 0.19405 0.0
H5680 H 0.44084 0.88804 0.18034 0.0
H5681 H 0.45444 0.89149 0.18462 0.0
H5682 H 0.48122 0.86829 0.16092 0.0
H5683 H 0.47156 0.87229 0.14376 0.0
H5684 H 0.44192 0.87823 0.16169 0.0
C5685 C 0.46269 0.8697 0.19968 0.0
C5686 C 0.4728 0.86667 0.20424 0.0
C5687 C 0.48176 0.86499 0.19724 0.0
C5688 C 0.48062 0.86624 0.18596 0.0
C5689 C 0.47048 0.86917 0.1818 0.0
C5690 C 0.46168 0.87082 0.18851 0.0
C5691 C 0.45164 0.87402 0.18222 0.0
C5692 C 0.44255 0.86551 0.18355 0.0
C5693 C 0.44776 0.88544 0.1855 0.0
C5694 C 0.4561 0.87396 0.17088 0.0
C5695 C 0.46697 0.87113 0.17072 0.0
C5696 C 0.4727 0.87048 0.16102 0.0
C5697 C 0.46715 0.87272 0.15131 0.0
C5698 C 0.45599 0.87561 0.15138 0.0
C5699 C 0.45048 0.87622 0.16134 0.0
H5700 H 0.87547 0.31637 0.5395 0.0
H5701 H 0.90206 0.29512 0.53063 0.0
H5702 H 0.91473 0.30627 0.54155 0.0
H5703 H 0.88849 0.34103 0.5392 0.0
H5704 H 0.88272 0.34662 0.55137 0.0
H5705 H 0.87533 0.33651 0.54379 0.0
H5706 H 0.87404 0.3241 0.56064 0.0
H5707 H 0.88111 0.33434 0.56839 0.0
H5708 H 0.88625 0.32064 0.56792 0.0
H5709 H 0.92481 0.32075 0.552 0.0
H5710 H 0.93113 0.33644 0.56295 0.0
H5711 H 0.89782 0.34766 0.56564 0.0
C5712 C 0.88393 0.31401 0.54002 0.0
C5713 C 0.88785 0.30495 0.53421 0.0
C5714 C 0.89894 0.30202 0.53508 0.0
C5715 C 0.90619 0.30831 0.54122 0.0
C5716 C 0.90216 0.31738 0.54663 0.0
C5717 C 0.89124 0.32005 0.54636 0.0
C5718 C 0.88902 0.33007 0.55313 0.0
C5719 C 0.88358 0.33909 0.54647 0.0
C5720 C 0.8822 0.32711 0.56311 0.0
C5721 C 0.90048 0.33311 0.55643 0.0
C5722 C 0.90793 0.32558 0.55281 0.0
C5723 C 0.91902 0.32664 0.55498 0.0
C5724 C 0.92254 0.33556 0.5612 0.0
C5725 C 0.91498 0.3433 0.56508 0.0
C5726 C 0.90383 0.34201 0.56261 0.0
H5727 H 0.46288 0.14105 0.3119 0.0
H5728 H 0.48637 0.1668 0.31746 0.0
H5729 H 0.48378 0.16499 0.33718 0.0
H5730 H 0.44418 0.14724 0.33254 0.0
H5731 H 0.44177 0.13331 0.33642 0.0
H5732 H 0.44586 0.13642 0.32284 0.0
H5733 H 0.46211 0.12315 0.32488 0.0
H5734 H 0.45815 0.12022 0.33859 0.0
H5735 H 0.47167 0.12511 0.33577 0.0
H5736 H 0.47889 0.16021 0.35616 0.0
H5737 H 0.47067 0.1543 0.37313 0.0
H5738 H 0.44913 0.13265 0.35509 0.0
C5739 C 0.46733 0.14638 0.31731 0.0
C5740 C 0.47467 0.1542 0.31325 0.0
C5741 C 0.48062 0.16086 0.32049 0.0
C5742 C 0.47928 0.15982 0.33167 0.0
C5743 C 0.47207 0.15197 0.33546 0.0
C5744 C 0.46618 0.14536 0.32852 0.0
C5745 C 0.45898 0.1376 0.33478 0.0
C5746 C 0.44699 0.13872 0.33145 0.0
C5747 C 0.46296 0.12582 0.33342 0.0
C5748 C 0.46101 0.14157 0.3462 0.0
C5749 C 0.46894 0.14951 0.34643 0.0
C5750 C 0.47251 0.15414 0.35606 0.0
C5751 C 0.4676 0.1508 0.36571 0.0
C5752 C 0.45884 0.14321 0.36568 0.0
C5753 C 0.45574 0.13841 0.35569 0.0
H5754 H 0.63677 0.70733 0.04973 0.0
H5755 H 0.61484 0.70967 0.02237 0.0
H5756 H 0.60175 0.69759 0.03153 0.0
H5757 H 0.63299 0.67992 0.05547 0.0
H5758 H 0.63273 0.68095 0.06999 0.0
H5759 H 0.64001 0.69092 0.06219 0.0
H5760 H 0.62888 0.70636 0.07105 0.0
H5761 H 0.6216 0.69644 0.07897 0.0
H5762 H 0.61424 0.70586 0.07057 0.0
H5763 H 0.59203 0.68374 0.04235 0.0
H5764 H 0.58562 0.66966 0.05519 0.0
H5765 H 0.6134 0.67613 0.0758 0.0
C5766 C 0.62914 0.70537 0.04579 0.0
C5767 C 0.62681 0.70925 0.03527 0.0
C5768 C 0.61677 0.70661 0.03035 0.0
C5769 C 0.60928 0.69982 0.03551 0.0
C5770 C 0.6119 0.69578 0.04566 0.0
C5771 C 0.62148 0.69856 0.05089 0.0
C5772 C 0.6223 0.69271 0.06168 0.0
C5773 C 0.63262 0.68571 0.06236 0.0
C5774 C 0.62172 0.70083 0.07112 0.0
C5775 C 0.6121 0.68575 0.06127 0.0
C5776 C 0.60611 0.68782 0.05206 0.0
C5777 C 0.59653 0.68218 0.0497 0.0
C5778 C 0.59295 0.67423 0.05699 0.0
C5779 C 0.59896 0.67204 0.06646 0.0
C5780 C 0.60862 0.67786 0.06864 0.0
H5781 H 0.04305 0.85458 0.82176 0.0
H5782 H 0.05039 0.88593 0.80744 0.0
H5783 H 0.05582 0.89303 0.82523 0.0
H5784 H 0.03271 0.86617 0.84792 0.0
H5785 H 0.03846 0.85554 0.85613 0.0
H5786 H 0.03418 0.85265 0.84247 0.0
H5787 H 0.05338 0.84542 0.83793 0.0
H5788 H 0.05761 0.84813 0.8516 0.0
H5789 H 0.06508 0.85393 0.84049 0.0
H5790 H 0.05901 0.8974 0.84393 0.0
H5791 H 0.06454 0.89803 0.8628 0.0
H5792 H 0.05808 0.86333 0.86582 0.0
C5793 C 0.04561 0.86299 0.8225 0.0
C5794 C 0.04599 0.86989 0.81331 0.0
C5795 C 0.04972 0.8807 0.81444 0.0
C5796 C 0.05282 0.88478 0.8245 0.0
C5797 C 0.0521 0.87798 0.83342 0.0
C5798 C 0.04875 0.86728 0.83264 0.0
C5799 C 0.04945 0.86178 0.84369 0.0
C5800 C 0.03802 0.85885 0.84779 0.0
C5801 C 0.05683 0.85172 0.8434 0.0
C5802 C 0.05437 0.87093 0.85048 0.0
C5803 C 0.05525 0.88027 0.84439 0.0
C5804 C 0.05875 0.89006 0.84873 0.0
C5805 C 0.06202 0.89027 0.85949 0.0
C5806 C 0.06249 0.8806 0.86573 0.0
C5807 C 0.05813 0.87084 0.86127 0.0
H5808 H 0.99361 0.89073 0.6981 0.0
H5809 H 0.96978 0.88636 0.72376 0.0
H5810 H 0.95646 0.89626 0.71315 0.0
H5811 H 0.98634 0.91596 0.68848 0.0
H5812 H 0.98704 0.9128 0.67427 0.0
H5813 H 0.99523 0.90533 0.68376 0.0
H5814 H 0.98692 0.88705 0.67716 0.0
H5815 H 0.97906 0.8945 0.66735 0.0
H5816 H 0.97234 0.88553 0.67671 0.0
H5817 H 0.94592 0.9078 0.70065 0.0
H5818 H 0.93746 0.91703 0.68525 0.0
H5819 H 0.96697 0.91241 0.66655 0.0
C5820 C 0.9856 0.89161 0.70154 0.0
C5821 C 0.98324 0.88822 0.71227 0.0
C5822 C 0.97237 0.88949 0.71604 0.0
C5823 C 0.96454 0.89499 0.70995 0.0
C5824 C 0.96736 0.89869 0.69977 0.0
C5825 C 0.97744 0.89665 0.69535 0.0
C5826 C 0.97798 0.9009 0.68384 0.0
C5827 C 0.9872 0.90925 0.68252 0.0
C5828 C 0.97915 0.89143 0.67579 0.0
C5829 C 0.96687 0.90619 0.68281 0.0
C5830 C 0.96091 0.90476 0.69212 0.0
C5831 C 0.95046 0.90889 0.69325 0.0
C5832 C 0.94578 0.91429 0.68447 0.0
C5833 C 0.95152 0.91555 0.67464 0.0
C5834 C 0.9623 0.91155 0.6739 0.0
H5835 H 0.86226 0.20304 0.4566 0.0
H5836 H 0.87458 0.20001 0.48963 0.0
H5837 H 0.87829 0.18111 0.48645 0.0
H5838 H 0.85061 0.17683 0.45381 0.0
H5839 H 0.85541 0.17469 0.44023 0.0
H5840 H 0.85283 0.18829 0.44499 0.0
H5841 H 0.87254 0.19393 0.44013 0.0
H5842 H 0.87517 0.18036 0.4353 0.0
H5843 H 0.88378 0.18627 0.44555 0.0
H5844 H 0.88077 0.16213 0.48021 0.0
H5845 H 0.88295 0.14475 0.47026 0.0
H5846 H 0.87112 0.16015 0.44106 0.0
C5847 C 0.86575 0.19864 0.46329 0.0
C5848 C 0.86758 0.20353 0.47357 0.0
C5849 C 0.87236 0.19692 0.48179 0.0
C5850 C 0.87474 0.18596 0.48007 0.0
C5851 C 0.87271 0.18156 0.46998 0.0
C5852 C 0.86853 0.1877 0.46164 0.0
C5853 C 0.86776 0.18102 0.45135 0.0
C5854 C 0.85595 0.18016 0.44736 0.0
C5855 C 0.87526 0.18567 0.44257 0.0
C5856 C 0.8719 0.17016 0.45537 0.0
C5857 C 0.8747 0.17065 0.46616 0.0
C5858 C 0.87864 0.16163 0.47174 0.0
C5859 C 0.87981 0.15182 0.46608 0.0
C5860 C 0.87715 0.15124 0.455 0.0
C5861 C 0.87317 0.16049 0.44957 0.0
H5862 H 0.53755 0.11716 0.21762 0.0
H5863 H 0.5341 0.14795 0.20079 0.0
H5864 H 0.54486 0.14094 0.18578 0.0
H5865 H 0.56687 0.11289 0.20758 0.0
H5866 H 0.56513 0.09836 0.20662 0.0
H5867 H 0.55786 0.10595 0.21676 0.0
H5868 H 0.53987 0.09778 0.20953 0.0
H5869 H 0.54707 0.09051 0.19913 0.0
H5870 H 0.53623 0.09967 0.19553 0.0
H5871 H 0.55279 0.13064 0.17173 0.0
H5872 H 0.56284 0.11857 0.15989 0.0
H5873 H 0.56383 0.09398 0.18513 0.0
C5874 C 0.53943 0.12249 0.21092 0.0
C5875 C 0.53479 0.13307 0.21025 0.0
C5876 C 0.5374 0.13981 0.20138 0.0
C5877 C 0.54347 0.13588 0.19278 0.0
C5878 C 0.54731 0.1253 0.1933 0.0
C5879 C 0.54591 0.11877 0.20224 0.0
C5880 C 0.55138 0.10775 0.20037 0.0
C5881 C 0.56087 0.10615 0.2083 0.0
C5882 C 0.54314 0.09837 0.20119 0.0
C5883 C 0.55554 0.10913 0.18881 0.0
C5884 C 0.55287 0.11933 0.18503 0.0
C5885 C 0.55515 0.12268 0.1746 0.0
C5886 C 0.56076 0.11564 0.16786 0.0
C5887 C 0.56409 0.10523 0.17146 0.0
C5888 C 0.56142 0.10189 0.18214 0.0
H5889 H 0.65534 0.81393 0.96117 0.0
H5890 H 0.63923 0.81519 0.99251 0.0
H5891 H 0.63523 0.83431 0.9896 0.0
H5892 H 0.66623 0.8403 0.96007 0.0
H5893 H 0.66265 0.84268 0.94614 0.0
H5894 H 0.6651 0.82902 0.95078 0.0
H5895 H 0.64607 0.82307 0.94393 0.0
H5896 H 0.64359 0.83669 0.93917 0.0
H5897 H 0.6342 0.83037 0.94841 0.0
H5898 H 0.63305 0.85367 0.9836 0.0
H5899 H 0.6315 0.87126 0.97389 0.0
H5900 H 0.64675 0.85687 0.94581 0.0
C5901 C 0.65088 0.81799 0.96749 0.0
C5902 C 0.64805 0.81269 0.9773 0.0
C5903 C 0.64216 0.8188 0.98513 0.0
C5904 C 0.63963 0.82979 0.98351 0.0
C5905 C 0.64263 0.83463 0.97385 0.0
C5906 C 0.64789 0.82887 0.96585 0.0
C5907 C 0.64948 0.83582 0.95587 0.0
C5908 C 0.66159 0.83702 0.95306 0.0
C5909 C 0.64295 0.83121 0.94628 0.0
C5910 C 0.64471 0.84649 0.95971 0.0
C5911 C 0.64079 0.84563 0.97011 0.0
C5912 C 0.63606 0.85444 0.97543 0.0
C5913 C 0.63526 0.86437 0.96991 0.0
C5914 C 0.63909 0.86532 0.95921 0.0
C5915 C 0.64385 0.85629 0.95405 0.0
H5916 H 0.99576 0.11772 0.81894 0.0
H5917 H 0.97091 0.13666 0.8026 0.0
H5918 H 0.95697 0.12878 0.81456 0.0
H5919 H 0.97952 0.09379 0.82315 0.0
H5920 H 0.98523 0.09099 0.83628 0.0
H5921 H 0.99321 0.09803 0.82629 0.0
H5922 H 0.99629 0.11402 0.83972 0.0
H5923 H 0.9884 0.1069 0.84971 0.0
H5924 H 0.9847 0.12052 0.84581 0.0
H5925 H 0.9457 0.11865 0.82794 0.0
H5926 H 0.93789 0.10779 0.84279 0.0
H5927 H 0.97002 0.09607 0.8512 0.0
C5928 C 0.98742 0.12036 0.81797 0.0
C5929 C 0.98447 0.12781 0.80978 0.0
C5930 C 0.9734 0.13086 0.8087 0.0
C5931 C 0.96541 0.12645 0.81547 0.0
C5932 C 0.9686 0.11903 0.82334 0.0
C5933 C 0.97933 0.11607 0.82469 0.0
C5934 C 0.98058 0.10799 0.83385 0.0
C5935 C 0.98489 0.09705 0.82964 0.0
C5936 C 0.98793 0.11264 0.84281 0.0
C5937 C 0.96889 0.10699 0.83756 0.0
C5938 C 0.9621 0.11333 0.83125 0.0
C5939 C 0.95093 0.11366 0.83292 0.0
C5940 C 0.94656 0.10743 0.84131 0.0
C5941 C 0.95336 0.10106 0.848 0.0
C5942 C 0.96467 0.10085 0.84613 0.0
H5943 H 0.65677 0.20149 0.55816 0.0
H5944 H 0.63541 0.20347 0.5301 0.0
H5945 H 0.63152 0.18398 0.5318 0.0
H5946 H 0.66691 0.17453 0.55477 0.0
H5947 H 0.66594 0.17117 0.5689 0.0
H5948 H 0.66816 0.18507 0.56486 0.0
H5949 H 0.65112 0.19101 0.57563 0.0
H5950 H 0.6489 0.17713 0.57972 0.0
H5951 H 0.63825 0.1845 0.57292 0.0
H5952 H 0.6289 0.16442 0.5371 0.0
H5953 H 0.62753 0.14645 0.5461 0.0
H5954 H 0.64921 0.15765 0.5714 0.0
C5955 C 0.65118 0.19801 0.55235 0.0
C5956 C 0.64649 0.20432 0.54392 0.0
C5957 C 0.63944 0.19901 0.53648 0.0
C5958 C 0.63704 0.18788 0.53743 0.0
C5959 C 0.64158 0.1821 0.54597 0.0
C5960 C 0.64842 0.18701 0.55337 0.0
C5961 C 0.65152 0.1792 0.56233 0.0
C5962 C 0.66387 0.17739 0.56273 0.0
C5963 C 0.64719 0.1832 0.5733 0.0
C5964 C 0.64557 0.16906 0.55866 0.0
C5965 C 0.63986 0.1709 0.5492 0.0
C5966 C 0.63341 0.16286 0.54445 0.0
C5967 C 0.63269 0.15271 0.54956 0.0
C5968 C 0.63842 0.15074 0.55927 0.0
C5969 C 0.64495 0.15898 0.56385 0.0
H5970 H 0.54244 0.89498 0.29877 0.0
H5971 H 0.5229 0.8754 0.32073 0.0
H5972 H 0.5319 0.884 0.33607 0.0
H5973 H 0.56768 0.89132 0.31667 0.0
H5974 H 0.57296 0.90456 0.31323 0.0
H5975 H 0.56497 0.89703 0.30353 0.0
H5976 H 0.5522 0.91362 0.30191 0.0
H5977 H 0.55984 0.92095 0.31203 0.0
H5978 H 0.54546 0.91873 0.31379 0.0
H5979 H 0.53818 0.89846 0.34816 0.0
H5980 H 0.54987 0.91006 0.35906 0.0
H5981 H 0.57099 0.91532 0.33136 0.0
C5982 C 0.54017 0.89231 0.30677 0.0
C5983 C 0.53119 0.88508 0.30844 0.0
C5984 C 0.52897 0.88156 0.31911 0.0
C5985 C 0.53414 0.88631 0.32794 0.0
C5986 C 0.54207 0.8941 0.32605 0.0
C5987 C 0.5458 0.89648 0.31585 0.0
C5988 C 0.5555 0.9043 0.31661 0.0
C5989 C 0.5659 0.89898 0.31225 0.0
C5990 C 0.5531 0.91504 0.31073 0.0
C5991 C 0.5562 0.90605 0.32882 0.0
C5992 C 0.5479 0.90049 0.33384 0.0
C5993 C 0.54534 0.9021 0.34459 0.0
C5994 C 0.55218 0.90864 0.35075 0.0
C5995 C 0.56214 0.91262 0.3465 0.0
C5996 C 0.56382 0.91191 0.33513 0.0
H5997 H 0.878 0.81348 0.05789 0.0
H5998 H 0.85793 0.81927 0.02964 0.0
H5999 H 0.85996 0.8391 0.03226 0.0
H6000 H 0.86883 0.83535 0.07434 0.0
H6001 H 0.88212 0.83874 0.07955 0.0
H6002 H 0.87919 0.82503 0.07533 0.0
H6003 H 0.89569 0.82571 0.06234 0.0
H6004 H 0.89854 0.83951 0.06644 0.0
H6005 H 0.89649 0.83634 0.05236 0.0
H6006 H 0.86425 0.85825 0.03783 0.0
H6007 H 0.86964 0.87545 0.04647 0.0
H6008 H 0.88627 0.85726 0.07168 0.0
C6009 C 0.87396 0.81894 0.05233 0.0
C6010 C 0.86776 0.81486 0.04357 0.0
C6011 C 0.86275 0.82224 0.03635 0.0
C6012 C 0.86387 0.83351 0.03778 0.0
C6013 C 0.87012 0.83729 0.0464 0.0
C6014 C 0.87511 0.83025 0.05355 0.0
C6015 C 0.88154 0.83649 0.06201 0.0
C6016 C 0.87768 0.83374 0.07349 0.0
C6017 C 0.89379 0.83438 0.06071 0.0
C6018 C 0.87877 0.8481 0.05892 0.0
C6019 C 0.87245 0.84837 0.04971 0.0
C6020 C 0.8691 0.85814 0.04513 0.0
C6021 C 0.87212 0.8679 0.05021 0.0
C6022 C 0.87824 0.86788 0.05996 0.0
C6023 C 0.88168 0.85775 0.06423 0.0
H6024 H 0.70479 0.99279 0.9038 0.0
H6025 H 0.71565 0.97102 0.87845 0.0
H6026 H 0.70316 0.95677 0.88518 0.0
H6027 H 0.70225 0.97189 0.92456 0.0
H6028 H 0.69045 0.97809 0.93055 0.0
H6029 H 0.70039 0.98641 0.92376 0.0
H6030 H 0.68515 0.99414 0.91138 0.0
H6031 H 0.67528 0.98576 0.91819 0.0
H6032 H 0.67675 0.98486 0.90373 0.0
H6033 H 0.68948 0.94506 0.89438 0.0
H6034 H 0.6752 0.9365 0.90551 0.0
H6035 H 0.67301 0.96568 0.92505 0.0
C6036 C 0.70445 0.98506 0.89963 0.0
C6037 C 0.7111 0.98304 0.89055 0.0
C6038 C 0.7106 0.97273 0.88541 0.0
C6039 C 0.70356 0.9646 0.88918 0.0
C6040 C 0.69716 0.96684 0.89818 0.0
C6041 C 0.69756 0.97678 0.90337 0.0
C6042 C 0.68983 0.97703 0.91291 0.0
C6043 C 0.69611 0.97844 0.92357 0.0
C6044 C 0.68124 0.98598 0.91146 0.0
C6045 C 0.68482 0.96578 0.91209 0.0
C6046 C 0.68928 0.96001 0.90358 0.0
C6047 C 0.686 0.94946 0.9011 0.0
C6048 C 0.67794 0.94465 0.90747 0.0
C6049 C 0.67321 0.95041 0.91614 0.0
C6050 C 0.67665 0.96111 0.91851 0.0
H6051 H 0.21708 0.54649 0.12516 0.0
H6052 H 0.19648 0.5181 0.1306 0.0
H6053 H 0.18202 0.5265 0.12038 0.0
H6054 H 0.19682 0.5673 0.12599 0.0
H6055 H 0.20149 0.57489 0.11443 0.0
H6056 H 0.21098 0.56694 0.12219 0.0
H6057 H 0.21662 0.55689 0.10477 0.0
H6058 H 0.20692 0.56462 0.09701 0.0
H6059 H 0.20644 0.54998 0.0968 0.0
H6060 H 0.17004 0.53633 0.10919 0.0
H6061 H 0.15901 0.54948 0.09947 0.0
H6062 H 0.1854 0.57308 0.10121 0.0
C6063 C 0.20952 0.54205 0.1242 0.0
C6064 C 0.20795 0.53165 0.12918 0.0
C6065 C 0.19793 0.52619 0.12748 0.0
C6066 C 0.18963 0.53082 0.12144 0.0
C6067 C 0.19137 0.54088 0.11675 0.0
C6068 C 0.20097 0.54657 0.11796 0.0
C6069 C 0.20026 0.55734 0.11172 0.0
C6070 C 0.20251 0.5672 0.11903 0.0
C6071 C 0.20803 0.5572 0.10201 0.0
C6072 C 0.18844 0.55702 0.10783 0.0
C6073 C 0.18385 0.54712 0.11043 0.0
C6074 C 0.1734 0.54424 0.10733 0.0
C6075 C 0.16715 0.55186 0.10186 0.0
C6076 C 0.17105 0.56257 0.10005 0.0
C6077 C 0.18207 0.56505 0.10266 0.0
H6078 H 0.20354 0.45808 0.87813 0.0
H6079 H 0.19882 0.48633 0.85779 0.0
H6080 H 0.17879 0.48376 0.85899 0.0
H6081 H 0.18241 0.4415 0.86793 0.0
H6082 H 0.17881 0.43616 0.881 0.0
H6083 H 0.1925 0.44064 0.87849 0.0
H6084 H 0.19115 0.45363 0.89502 0.0
H6085 H 0.17734 0.44933 0.89736 0.0
H6086 H 0.1804 0.46355 0.89551 0.0
H6087 H 0.15901 0.47752 0.86246 0.0
H6088 H 0.14188 0.46836 0.86748 0.0
H6089 H 0.16038 0.44384 0.88481 0.0
C6090 C 0.1983 0.46375 0.87393 0.0
C6091 C 0.20271 0.47241 0.86786 0.0
C6092 C 0.19558 0.47971 0.86257 0.0
C6093 C 0.18422 0.47827 0.86318 0.0
C6094 C 0.18016 0.46957 0.86921 0.0
C6095 C 0.18703 0.46249 0.87453 0.0
C6096 C 0.18078 0.45387 0.88061 0.0
C6097 C 0.18381 0.44236 0.87677 0.0
C6098 C 0.18252 0.45517 0.89285 0.0
C6099 C 0.1693 0.4568 0.87747 0.0
C6100 C 0.16901 0.466 0.87108 0.0
C6101 C 0.15919 0.47026 0.86739 0.0
C6102 C 0.14948 0.4649 0.87022 0.0
C6103 C 0.14963 0.45524 0.87652 0.0
C6104 C 0.15977 0.45126 0.88017 0.0
H6105 H 0.30929 0.47135 0.63692 0.0
H6106 H 0.3078 0.49859 0.61473 0.0
H6107 H 0.3205 0.48931 0.6025 0.0
H6108 H 0.33713 0.46564 0.6344 0.0
H6109 H 0.33611 0.45101 0.6342 0.0
H6110 H 0.32591 0.45893 0.641 0.0
H6111 H 0.31092 0.44978 0.62945 0.0
H6112 H 0.32108 0.4418 0.6226 0.0
H6113 H 0.31186 0.45015 0.61492 0.0
H6114 H 0.33443 0.47852 0.59352 0.0
H6115 H 0.34874 0.46569 0.58764 0.0
H6116 H 0.34172 0.44506 0.61511 0.0
C6117 C 0.31162 0.47525 0.62943 0.0
C6118 C 0.30777 0.48579 0.62679 0.0
C6119 C 0.31086 0.49064 0.61693 0.0
C6120 C 0.31799 0.4854 0.60991 0.0
C6121 C 0.32195 0.47525 0.61281 0.0
C6122 C 0.31884 0.47008 0.62224 0.0
C6123 C 0.32471 0.45924 0.62335 0.0
C6124 C 0.33136 0.45868 0.63386 0.0
C6125 C 0.31666 0.44968 0.62253 0.0
C6126 C 0.33201 0.4596 0.61347 0.0
C6127 C 0.33008 0.46881 0.60741 0.0
C6128 C 0.33593 0.47117 0.59808 0.0
C6129 C 0.34401 0.46389 0.5948 0.0
C6130 C 0.34612 0.45445 0.60088 0.0
C6131 C 0.34007 0.45223 0.61031 0.0
H6132 H 0.82167 0.04574 0.85788 0.0
H6133 H 0.81032 0.04339 0.89095 0.0
H6134 H 0.82866 0.04783 0.89757 0.0
H6135 H 0.84906 0.03388 0.86362 0.0
H6136 H 0.85609 0.04267 0.85431 0.0
H6137 H 0.84218 0.03876 0.85171 0.0
H6138 H 0.83666 0.05902 0.85053 0.0
H6139 H 0.85057 0.06294 0.853 0.0
H6140 H 0.83991 0.06806 0.86158 0.0
H6141 H 0.84754 0.05198 0.90095 0.0
H6142 H 0.86638 0.0583 0.9012 0.0
H6143 H 0.86654 0.0593 0.86609 0.0
C6144 C 0.82317 0.04599 0.8665 0.0
C6145 C 0.81465 0.04394 0.87397 0.0
C6146 C 0.8168 0.04461 0.88516 0.0
C6147 C 0.82717 0.04716 0.88898 0.0
C6148 C 0.83543 0.0489 0.88153 0.0
C6149 C 0.83366 0.04841 0.87052 0.0
C6150 C 0.84415 0.05101 0.86445 0.0
C6151 C 0.8481 0.04098 0.85815 0.0
C6152 C 0.84273 0.06085 0.85695 0.0
C6153 C 0.85181 0.05356 0.87383 0.0
C6154 C 0.84657 0.05193 0.88354 0.0
C6155 C 0.85172 0.05345 0.89341 0.0
C6156 C 0.86244 0.05713 0.89345 0.0
C6157 C 0.86789 0.05968 0.88369 0.0
C6158 C 0.8626 0.05751 0.8737 0.0
H6159 H 0.80867 0.04667 0.37712 0.0
H6160 H 0.80551 0.0198 0.39953 0.0
H6161 H 0.81756 0.02923 0.41249 0.0
H6162 H 0.83598 0.05228 0.38108 0.0
H6163 H 0.83514 0.06692 0.38099 0.0
H6164 H 0.82515 0.05896 0.37383 0.0
H6165 H 0.80971 0.0683 0.38451 0.0
H6166 H 0.81963 0.07641 0.39166 0.0
H6167 H 0.81004 0.06822 0.39907 0.0
H6168 H 0.83144 0.04026 0.42206 0.0
H6169 H 0.84559 0.05326 0.42832 0.0
H6170 H 0.8398 0.07325 0.40012 0.0
C6171 C 0.81039 0.04294 0.38485 0.0
C6172 C 0.80628 0.0325 0.38739 0.0
C6173 C 0.80868 0.02777 0.39751 0.0
C6174 C 0.81548 0.03307 0.4049 0.0
C6175 C 0.81973 0.04316 0.4021 0.0
C6176 C 0.81717 0.04819 0.39242 0.0
C6177 C 0.82316 0.05896 0.39142 0.0
C6178 C 0.83028 0.05929 0.38123 0.0
C6179 C 0.81515 0.06854 0.39167 0.0
C6180 C 0.82999 0.05875 0.40163 0.0
C6181 C 0.82771 0.04967 0.40778 0.0
C6182 C 0.83318 0.04751 0.41743 0.0
C6183 C 0.84116 0.05489 0.42093 0.0
C6184 C 0.84356 0.06422 0.41475 0.0
C6185 C 0.83793 0.06619 0.40501 0.0
H6186 H 0.19586 0.53627 0.65916 0.0
H6187 H 0.21288 0.55872 0.63802 0.0
H6188 H 0.19558 0.56682 0.63259 0.0
H6189 H 0.17211 0.53211 0.64142 0.0
H6190 H 0.1622 0.53204 0.65213 0.0
H6191 H 0.17589 0.52751 0.65474 0.0
H6192 H 0.17763 0.54148 0.67029 0.0
H6193 H 0.16393 0.54599 0.66772 0.0
H6194 H 0.17497 0.55565 0.66765 0.0
H6195 H 0.17785 0.57358 0.63029 0.0
H6196 H 0.15864 0.5779 0.6291 0.0
H6197 H 0.15098 0.55072 0.65028 0.0
C6198 C 0.19582 0.54277 0.65327 0.0
C6199 C 0.20571 0.54688 0.64892 0.0
C6200 C 0.20542 0.55547 0.64138 0.0
C6201 C 0.19564 0.56016 0.63828 0.0
C6202 C 0.18611 0.55614 0.64273 0.0
C6203 C 0.18593 0.5476 0.64996 0.0
C6204 C 0.17419 0.54518 0.65332 0.0
C6205 C 0.1709 0.53351 0.65021 0.0
C6206 C 0.17259 0.54719 0.66547 0.0
C6207 C 0.16801 0.55359 0.64663 0.0
C6208 C 0.17524 0.55986 0.64082 0.0
C6209 C 0.17201 0.56857 0.63453 0.0
C6210 C 0.16101 0.57089 0.63383 0.0
C6211 C 0.15317 0.56437 0.63916 0.0
C6212 C 0.15674 0.5557 0.64589 0.0
H6213 H 0.31787 0.46341 0.16252 0.0
H6214 H 0.31224 0.48303 0.13389 0.0
H6215 H 0.33095 0.47963 0.12792 0.0
H6216 H 0.34555 0.47114 0.16728 0.0
H6217 H 0.35008 0.45771 0.17098 0.0
H6218 H 0.33618 0.46163 0.17331 0.0
H6219 H 0.32938 0.44509 0.16214 0.0
H6220 H 0.34326 0.44103 0.15995 0.0
H6221 H 0.33433 0.44315 0.14858 0.0
H6222 H 0.34991 0.4741 0.12475 0.0
H6223 H 0.36812 0.46567 0.12413 0.0
H6224 H 0.36187 0.44963 0.15465 0.0
C6225 C 0.32058 0.46697 0.15499 0.0
C6226 C 0.31366 0.47372 0.14881 0.0
C6227 C 0.31749 0.47813 0.13895 0.0
C6228 C 0.32809 0.47619 0.13544 0.0
C6229 C 0.33477 0.46976 0.14182 0.0
C6230 C 0.33119 0.46509 0.15132 0.0
C6231 C 0.34002 0.45817 0.15639 0.0
C6232 C 0.34314 0.46242 0.16766 0.0
C6233 C 0.33654 0.44615 0.15679 0.0
C6234 C 0.34913 0.45989 0.14836 0.0
C6235 C 0.34587 0.46656 0.13999 0.0
C6236 C 0.35261 0.46893 0.13129 0.0
C6237 C 0.36291 0.46416 0.13101 0.0
C6238 C 0.36635 0.45719 0.13941 0.0
C6239 C 0.35946 0.45516 0.14828 0.0
H6240 H 0.62454 0.8094 0.56376 0.0
H6241 H 0.61107 0.7771 0.56878 0.0
H6242 H 0.61337 0.77944 0.58848 0.0
H6243 H 0.64422 0.8093 0.58431 0.0
H6244 H 0.6421 0.82322 0.58839 0.0
H6245 H 0.63932 0.81914 0.57468 0.0
H6246 H 0.61955 0.82628 0.57626 0.0
H6247 H 0.62238 0.83059 0.5899 0.0
H6248 H 0.61111 0.8216 0.5872 0.0
H6249 H 0.61711 0.78551 0.60791 0.0
H6250 H 0.62185 0.79483 0.62506 0.0
H6251 H 0.63234 0.82316 0.60701 0.0
C6252 C 0.62191 0.80282 0.56892 0.0
C6253 C 0.61765 0.79301 0.56455 0.0
C6254 C 0.61455 0.78461 0.57179 0.0
C6255 C 0.61573 0.78591 0.58304 0.0
C6256 C 0.61996 0.79567 0.58699 0.0
C6257 C 0.62291 0.80402 0.58013 0.0
C6258 C 0.62711 0.81378 0.58638 0.0
C6259 C 0.63889 0.81652 0.58325 0.0
C6260 C 0.61959 0.82364 0.58484 0.0
C6261 C 0.62641 0.80951 0.5978 0.0
C6262 C 0.62214 0.79911 0.59805 0.0
C6263 C 0.62046 0.79365 0.60778 0.0
C6264 C 0.62314 0.79902 0.61748 0.0
C6265 C 0.62753 0.80969 0.61736 0.0
C6266 C 0.62919 0.81493 0.60736 0.0
H6267 H 0.46843 0.37677 0.79788 0.0
H6268 H 0.4473 0.38357 0.77044 0.0
H6269 H 0.43266 0.3735 0.77891 0.0
H6270 H 0.45847 0.34953 0.80303 0.0
H6271 H 0.45823 0.35046 0.81756 0.0
H6272 H 0.46787 0.35842 0.80995 0.0
H6273 H 0.46084 0.37615 0.81869 0.0
H6274 H 0.45146 0.36822 0.82661 0.0
H6275 H 0.4465 0.37915 0.81827 0.0
H6276 H 0.42108 0.36142 0.7882 0.0
H6277 H 0.41011 0.35159 0.80141 0.0
H6278 H 0.43664 0.35342 0.82461 0.0
C6279 C 0.46068 0.37617 0.79375 0.0
C6280 C 0.45903 0.38111 0.78348 0.0
C6281 C 0.44877 0.38014 0.77836 0.0
C6282 C 0.44039 0.37427 0.78303 0.0
C6283 C 0.44229 0.36931 0.79287 0.0
C6284 C 0.45196 0.37038 0.79845 0.0
C6285 C 0.45117 0.36451 0.8093 0.0
C6286 C 0.45943 0.35517 0.81 0.0
C6287 C 0.45258 0.37249 0.81878 0.0
C6288 C 0.43957 0.36011 0.80871 0.0
C6289 C 0.43489 0.36276 0.79894 0.0
C6290 C 0.4245 0.35948 0.79602 0.0
C6291 C 0.41834 0.35388 0.80358 0.0
C6292 C 0.42239 0.35205 0.81412 0.0
C6293 C 0.43334 0.35476 0.81661 0.0
H6294 H 0.89503 0.2059 0.06535 0.0
H6295 H 0.90776 0.23871 0.06909 0.0
H6296 H 0.90696 0.23662 0.08891 0.0
H6297 H 0.87694 0.20539 0.08608 0.0
H6298 H 0.87981 0.19174 0.09056 0.0
H6299 H 0.88209 0.19543 0.0767 0.0
H6300 H 0.90223 0.18942 0.07803 0.0
H6301 H 0.89993 0.18536 0.09182 0.0
H6302 H 0.91069 0.19481 0.08869 0.0
H6303 H 0.90381 0.2311 0.10852 0.0
H6304 H 0.89923 0.22238 0.12597 0.0
H6305 H 0.88937 0.19311 0.10893 0.0
C6306 C 0.89792 0.21262 0.07023 0.0
C6307 C 0.90137 0.22253 0.06551 0.0
C6308 C 0.90483 0.23112 0.0724 0.0
C6309 C 0.90452 0.22996 0.0837 0.0
C6310 C 0.90092 0.22012 0.08801 0.0
C6311 C 0.89789 0.21154 0.08145 0.0
C6312 C 0.89429 0.2018 0.088 0.0
C6313 C 0.88259 0.1984 0.08517 0.0
C6314 C 0.90226 0.19229 0.08654 0.0
C6315 C 0.8951 0.20646 0.09927 0.0
C6316 C 0.89916 0.21696 0.09916 0.0
C6317 C 0.9007 0.22286 0.10868 0.0
C6318 C 0.89809 0.21785 0.11854 0.0
C6319 C 0.89389 0.20711 0.11878 0.0
C6320 C 0.8924 0.2014 0.10899 0.0
H6321 H 0.07192 0.64081 0.27458 0.0
H6322 H 0.04443 0.63907 0.29658 0.0
H6323 H 0.05495 0.6495 0.31005 0.0
H6324 H 0.09261 0.6365 0.29508 0.0
H6325 H 0.10209 0.64542 0.28839 0.0
H6326 H 0.0921 0.63807 0.28061 0.0
H6327 H 0.08556 0.65639 0.2725 0.0
H6328 H 0.09528 0.66378 0.28061 0.0
H6329 H 0.08102 0.66706 0.28142 0.0
H6330 H 0.06817 0.66063 0.3208 0.0
H6331 H 0.08412 0.66898 0.32952 0.0
H6332 H 0.10347 0.66214 0.30101 0.0
C6333 C 0.06808 0.64229 0.28229 0.0
C6334 C 0.0572 0.63911 0.28437 0.0
C6335 C 0.0526 0.64161 0.29458 0.0
C6336 C 0.05855 0.64749 0.30233 0.0
C6337 C 0.06914 0.65064 0.29985 0.0
C6338 C 0.07395 0.6479 0.29019 0.0
C6339 C 0.08558 0.65194 0.28964 0.0
C6340 C 0.09356 0.64242 0.28836 0.0
C6341 C 0.08693 0.66029 0.2805 0.0
C6342 C 0.08662 0.65728 0.30062 0.0
C6343 C 0.07695 0.65665 0.30626 0.0
C6344 C 0.0758 0.66111 0.31651 0.0
C6345 C 0.0849 0.66595 0.32134 0.0
C6346 C 0.09506 0.66622 0.31596 0.0
C6347 C 0.09584 0.66199 0.30536 0.0
H6348 H 0.61539 0.23352 0.94597 0.0
H6349 H 0.6233 0.203 0.9619 0.0
H6350 H 0.62739 0.19475 0.94455 0.0
H6351 H 0.60362 0.22315 0.9217 0.0
H6352 H 0.61032 0.23227 0.91245 0.0
H6353 H 0.60789 0.23647 0.92618 0.0
H6354 H 0.62837 0.24053 0.92863 0.0
H6355 H 0.63084 0.23634 0.91489 0.0
H6356 H 0.63817 0.23003 0.92582 0.0
H6357 H 0.62917 0.18884 0.92648 0.0
H6358 H 0.6315 0.18593 0.90708 0.0
H6359 H 0.62433 0.21996 0.90103 0.0
C6360 C 0.61806 0.22513 0.94575 0.0
C6361 C 0.6185 0.21877 0.95538 0.0
C6362 C 0.62232 0.20793 0.95472 0.0
C6363 C 0.62478 0.20314 0.94487 0.0
C6364 C 0.6238 0.20934 0.93559 0.0
C6365 C 0.62086 0.22016 0.9358 0.0
C6366 C 0.62117 0.22479 0.92432 0.0
C6367 C 0.61008 0.22944 0.92097 0.0
C6368 C 0.63017 0.23344 0.92336 0.0
C6369 C 0.62403 0.21462 0.91778 0.0
C6370 C 0.62558 0.20593 0.92465 0.0
C6371 C 0.62815 0.19558 0.92097 0.0
C6372 C 0.62943 0.194 0.90994 0.0
C6373 C 0.62819 0.20269 0.9026 0.0
C6374 C 0.62532 0.21318 0.90651 0.0
H6375 H 0.06996 0.37056 0.24476 0.0
H6376 H 0.04677 0.38134 0.22054 0.0
H6377 H 0.05743 0.37195 0.20645 0.0
H6378 H 0.09394 0.37424 0.22934 0.0
H6379 H 0.10043 0.36225 0.23466 0.0
H6380 H 0.09055 0.3694 0.24266 0.0
H6381 H 0.0795 0.35149 0.24465 0.0
H6382 H 0.0893 0.34438 0.23647 0.0
H6383 H 0.07513 0.3443 0.2327 0.0
H6384 H 0.07047 0.36138 0.19516 0.0
H6385 H 0.08617 0.35218 0.18686 0.0
H6386 H 0.10156 0.34943 0.21829 0.0
C6387 C 0.06718 0.37113 0.23648 0.0
C6388 C 0.05753 0.37673 0.23375 0.0
C6389 C 0.05406 0.377 0.22284 0.0
C6390 C 0.06007 0.37171 0.21479 0.0
C6391 C 0.0695 0.36622 0.21781 0.0
C6392 C 0.07309 0.36599 0.22837 0.0
C6393 C 0.08358 0.35969 0.22947 0.0
C6394 C 0.09266 0.36683 0.23431 0.0
C6395 C 0.08177 0.34935 0.23622 0.0
C6396 C 0.08569 0.35691 0.21775 0.0
C6397 C 0.07725 0.36043 0.21124 0.0
C6398 C 0.07714 0.35862 0.20015 0.0
C6399 C 0.08604 0.35333 0.19553 0.0
C6400 C 0.095 0.3501 0.20196 0.0
C6401 C 0.09478 0.35182 0.21323 0.0
H6402 H 0.90116 0.78306 0.44632 0.0
H6403 H 0.8955 0.81485 0.46077 0.0
H6404 H 0.8918 0.82242 0.44306 0.0
H6405 H 0.91315 0.79155 0.42128 0.0
H6406 H 0.90574 0.78231 0.41264 0.0
H6407 H 0.90833 0.77874 0.42653 0.0
H6408 H 0.88776 0.77589 0.42959 0.0
H6409 H 0.88513 0.77943 0.4157 0.0
H6410 H 0.87843 0.78672 0.42642 0.0
H6411 H 0.88969 0.8274 0.42471 0.0
H6412 H 0.88665 0.8293 0.40526 0.0
H6413 H 0.89178 0.79463 0.40089 0.0
C6414 C 0.89912 0.7916 0.44573 0.0
C6415 C 0.89921 0.79845 0.45507 0.0
C6416 C 0.89616 0.8095 0.45386 0.0
C6417 C 0.89389 0.81391 0.44378 0.0
C6418 C 0.89429 0.80718 0.43481 0.0
C6419 C 0.89652 0.79621 0.43555 0.0
C6420 C 0.89562 0.79098 0.42432 0.0
C6421 C 0.90636 0.78557 0.421 0.0
C6422 C 0.88618 0.78277 0.42399 0.0
C6423 C 0.89312 0.80091 0.4173 0.0
C6424 C 0.89235 0.81007 0.42372 0.0
C6425 C 0.89014 0.8203 0.41955 0.0
C6426 C 0.88844 0.82131 0.40849 0.0
C6427 C 0.88891 0.81216 0.4016 0.0
C6428 C 0.8914 0.80177 0.40601 0.0
H6429 H 0.46979 0.64015 0.7222 0.0
H6430 H 0.4475 0.6288 0.74721 0.0
H6431 H 0.43289 0.63847 0.73866 0.0
H6432 H 0.45799 0.66727 0.72006 0.0
H6433 H 0.45895 0.66838 0.70558 0.0
H6434 H 0.46863 0.66023 0.71292 0.0
H6435 H 0.46384 0.64344 0.70124 0.0
H6436 H 0.45441 0.65167 0.69368 0.0
H6437 H 0.44982 0.63926 0.69996 0.0
H6438 H 0.42128 0.65151 0.73046 0.0
H6439 H 0.41054 0.66257 0.71812 0.0
H6440 H 0.438 0.66466 0.69616 0.0
C6441 C 0.46188 0.63967 0.72596 0.0
C6442 C 0.46015 0.63344 0.73563 0.0
C6443 C 0.44943 0.63306 0.73986 0.0
C6444 C 0.44092 0.6388 0.73514 0.0
C6445 C 0.44303 0.64514 0.72616 0.0
C6446 C 0.45307 0.64545 0.72128 0.0
C6447 C 0.45253 0.65276 0.71123 0.0
C6448 C 0.45997 0.66275 0.71253 0.0
C6449 C 0.45531 0.64639 0.70092 0.0
C6450 C 0.44057 0.65617 0.71134 0.0
C6451 C 0.43556 0.65198 0.72038 0.0
C6452 C 0.42493 0.65448 0.72309 0.0
C6453 C 0.41888 0.66078 0.71598 0.0
C6454 C 0.42317 0.66397 0.70586 0.0
C6455 C 0.43439 0.66213 0.70371 0.0
H6456 H 0.56902 0.60454 0.80514 0.0
H6457 H 0.56381 0.63232 0.78416 0.0
H6458 H 0.58278 0.63813 0.78715 0.0
H6459 H 0.58539 0.6175 0.82465 0.0
H6460 H 0.59457 0.60626 0.82662 0.0
H6461 H 0.58084 0.60374 0.82223 0.0
H6462 H 0.58814 0.59326 0.80558 0.0
H6463 H 0.60191 0.59585 0.80993 0.0
H6464 H 0.59759 0.59987 0.79661 0.0
H6465 H 0.60168 0.64203 0.79377 0.0
H6466 H 0.61945 0.64325 0.80306 0.0
H6467 H 0.61287 0.61275 0.81935 0.0
C6468 C 0.57188 0.6118 0.80109 0.0
C6469 C 0.56483 0.61795 0.79435 0.0
C6470 C 0.569 0.62736 0.78919 0.0
C6471 C 0.57978 0.63077 0.7909 0.0
C6472 C 0.58642 0.62464 0.79769 0.0
C6473 C 0.58269 0.61527 0.80261 0.0
C6474 C 0.59151 0.61028 0.80965 0.0
C6475 C 0.58785 0.6094 0.82149 0.0
C6476 C 0.59499 0.59915 0.80518 0.0
C6477 C 0.60054 0.61859 0.80834 0.0
C6478 C 0.59747 0.62675 0.8013 0.0
C6479 C 0.60421 0.63562 0.79919 0.0
C6480 C 0.61427 0.63626 0.80452 0.0
C6481 C 0.61754 0.62807 0.81187 0.0
C6482 C 0.61065 0.61903 0.81364 0.0
H6483 H 0.65055 0.28484 0.05163 0.0
H6484 H 0.61791 0.28625 0.06483 0.0
H6485 H 0.62434 0.29852 0.07916 0.0
H6486 H 0.66478 0.28389 0.07582 0.0
H6487 H 0.6758 0.29289 0.07229 0.0
H6488 H 0.66876 0.2854 0.06189 0.0
H6489 H 0.66427 0.30325 0.0518 0.0
H6490 H 0.67162 0.31074 0.06202 0.0
H6491 H 0.65772 0.31419 0.05896 0.0
H6492 H 0.63374 0.30866 0.09266 0.0
H6493 H 0.646 0.3178 0.10525 0.0
H6494 H 0.67347 0.31051 0.08443 0.0
C6495 C 0.64477 0.28794 0.05745 0.0
C6496 C 0.63373 0.28449 0.05726 0.0
C6497 C 0.62639 0.28864 0.06497 0.0
C6498 C 0.62996 0.29567 0.07308 0.0
C6499 C 0.64089 0.29856 0.07334 0.0
C6500 C 0.64824 0.29505 0.06571 0.0
C6501 C 0.65964 0.29922 0.06839 0.0
C6502 C 0.66772 0.28979 0.06968 0.0
C6503 C 0.66354 0.30733 0.05978 0.0
C6504 C 0.65753 0.305 0.07909 0.0
C6505 C 0.64658 0.30461 0.08153 0.0
C6506 C 0.64233 0.30909 0.09088 0.0
C6507 C 0.64941 0.31418 0.09804 0.0
C6508 C 0.66072 0.31469 0.09597 0.0
C6509 C 0.66486 0.31017 0.08625 0.0
H6510 H 0.95533 0.38268 0.30651 0.0
H6511 H 0.954 0.41268 0.28825 0.0
H6512 H 0.93404 0.41344 0.29084 0.0
H6513 H 0.92994 0.37172 0.29593 0.0
H6514 H 0.92624 0.36536 0.3085 0.0
H6515 H 0.94037 0.36712 0.30509 0.0
H6516 H 0.9437 0.37767 0.32302 0.0
H6517 H 0.92965 0.37567 0.32653 0.0
H6518 H 0.93528 0.38923 0.32619 0.0
H6519 H 0.91421 0.41045 0.29494 0.0
H6520 H 0.8963 0.40514 0.30173 0.0
H6521 H 0.91123 0.37786 0.31861 0.0
C6522 C 0.95081 0.38946 0.30321 0.0
C6523 C 0.95608 0.39771 0.29733 0.0
C6524 C 0.94999 0.40636 0.29286 0.0
C6525 C 0.9387 0.40681 0.29422 0.0
C6526 C 0.93368 0.39845 0.29993 0.0
C6527 C 0.93954 0.38997 0.30439 0.0
C6528 C 0.9322 0.38208 0.31023 0.0
C6529 C 0.93219 0.37091 0.3046 0.0
C6530 C 0.9354 0.38112 0.3222 0.0
C6531 C 0.92139 0.38771 0.3088 0.0
C6532 C 0.92235 0.39695 0.30258 0.0
C6533 C 0.91339 0.40331 0.29997 0.0
C6534 C 0.90321 0.40026 0.30405 0.0
C6535 C 0.90209 0.39114 0.31104 0.0
C6536 C 0.91142 0.38476 0.31324 0.0
H6537 H 0.88321 0.74185 0.57169 0.0
H6538 H 0.87589 0.72212 0.5431 0.0
H6539 H 0.86396 0.71107 0.55365 0.0
H6540 H 0.88423 0.7191 0.58984 0.0
H6541 H 0.87819 0.72653 0.60086 0.0
H6542 H 0.88603 0.73363 0.59082 0.0
H6543 H 0.86956 0.74629 0.58729 0.0
H6544 H 0.86159 0.73898 0.59711 0.0
H6545 H 0.85667 0.74042 0.58346 0.0
H6546 H 0.8527 0.70155 0.56686 0.0
H6547 H 0.84502 0.69268 0.58275 0.0
H6548 H 0.85923 0.71781 0.60325 0.0
C6549 C 0.87925 0.73529 0.56743 0.0
C6550 C 0.88062 0.73355 0.55612 0.0
C6551 C 0.87509 0.72444 0.55143 0.0
C6552 C 0.86814 0.71783 0.55744 0.0
C6553 C 0.86682 0.72007 0.56831 0.0
C6554 C 0.87237 0.7284 0.57335 0.0
C6555 C 0.86983 0.72858 0.58535 0.0
C6556 C 0.88019 0.72685 0.59211 0.0
C6557 C 0.86407 0.7392 0.58849 0.0
C6558 C 0.86217 0.71889 0.58618 0.0
C6559 C 0.86043 0.71427 0.57617 0.0
C6560 C 0.85395 0.7051 0.57478 0.0
C6561 C 0.84949 0.70018 0.58392 0.0
C6562 C 0.85145 0.70444 0.59441 0.0
C6563 C 0.85765 0.71416 0.59544 0.0
H6564 H 0.56896 0.38573 0.7288 0.0
H6565 H 0.56048 0.41366 0.70908 0.0
H6566 H 0.57938 0.41473 0.70262 0.0
H6567 H 0.59698 0.39523 0.73579 0.0
H6568 H 0.60243 0.38165 0.7352 0.0
H6569 H 0.58851 0.38375 0.73918 0.0
H6570 H 0.58224 0.37054 0.72407 0.0
H6571 H 0.59611 0.36857 0.71994 0.0
H6572 H 0.58615 0.37317 0.71029 0.0
H6573 H 0.59842 0.41241 0.69752 0.0
H6574 H 0.61709 0.40653 0.69353 0.0
H6575 H 0.61367 0.37974 0.71606 0.0
C6576 C 0.57113 0.39218 0.72327 0.0
C6577 C 0.56322 0.39959 0.71938 0.0
C6578 C 0.56635 0.40781 0.71203 0.0
C6579 C 0.57708 0.40856 0.7084 0.0
C6580 C 0.58461 0.40106 0.71224 0.0
C6581 C 0.58184 0.39304 0.71954 0.0
C6582 C 0.59146 0.38565 0.72184 0.0
C6583 C 0.59505 0.38663 0.73371 0.0
C6584 C 0.58883 0.37378 0.71885 0.0
C6585 C 0.59989 0.39053 0.71433 0.0
C6586 C 0.59577 0.39956 0.70909 0.0
C6587 C 0.60182 0.40545 0.70165 0.0
C6588 C 0.6124 0.40206 0.69946 0.0
C6589 C 0.61681 0.3928 0.70459 0.0
C6590 C 0.61048 0.38691 0.71211 0.0
H6591 H 0.8719 0.29286 0.97027 0.0
H6592 H 0.89419 0.27655 0.94826 0.0
H6593 H 0.88509 0.28509 0.93301 0.0
H6594 H 0.84855 0.29506 0.95556 0.0
H6595 H 0.84551 0.30929 0.95732 0.0
H6596 H 0.85331 0.30218 0.96742 0.0
H6597 H 0.8691 0.31597 0.96573 0.0
H6598 H 0.86111 0.32344 0.95603 0.0
H6599 H 0.8746 0.31897 0.95258 0.0
H6600 H 0.86985 0.28949 0.92099 0.0
H6601 H 0.8575 0.30034 0.91004 0.0
H6602 H 0.85017 0.3206 0.93794 0.0
C6603 C 0.87509 0.29121 0.96231 0.0
C6604 C 0.8831 0.28298 0.96048 0.0
C6605 C 0.88734 0.28178 0.94991 0.0
C6606 C 0.88233 0.28673 0.94115 0.0
C6607 C 0.87369 0.29364 0.94311 0.0
C6608 C 0.87078 0.29685 0.95334 0.0
C6609 C 0.86234 0.30599 0.95267 0.0
C6610 C 0.8518 0.30293 0.9586 0.0
C6611 C 0.86707 0.31673 0.95701 0.0
C6612 C 0.86053 0.30657 0.94047 0.0
C6613 C 0.86686 0.29889 0.93538 0.0
C6614 C 0.86554 0.29624 0.9246 0.0
C6615 C 0.85851 0.30251 0.91846 0.0
C6616 C 0.85374 0.31206 0.92281 0.0
C6617 C 0.85414 0.31372 0.93419 0.0
H6618 H 0.94772 0.60617 0.22398 0.0
H6619 H 0.96166 0.63753 0.21571 0.0
H6620 H 0.94344 0.64455 0.21151 0.0
H6621 H 0.92827 0.60464 0.20311 0.0
H6622 H 0.91729 0.59906 0.21101 0.0
H6623 H 0.93116 0.5966 0.21495 0.0
H6624 H 0.92709 0.60454 0.23388 0.0
H6625 H 0.91322 0.60714 0.22989 0.0
H6626 H 0.92157 0.61805 0.23503 0.0
H6627 H 0.92439 0.64883 0.21015 0.0
H6628 H 0.90536 0.64925 0.20528 0.0
H6629 H 0.90331 0.61408 0.20934 0.0
C6630 C 0.94683 0.61448 0.22124 0.0
C6631 C 0.95602 0.62137 0.22006 0.0
C6632 C 0.95469 0.63219 0.21654 0.0
C6633 C 0.94439 0.63627 0.2143 0.0
C6634 C 0.9355 0.6294 0.21556 0.0
C6635 C 0.9365 0.61868 0.21869 0.0
C6636 C 0.92541 0.61307 0.21843 0.0
C6637 C 0.92555 0.60273 0.21144 0.0
C6638 C 0.9216 0.61054 0.22999 0.0
C6639 C 0.91843 0.62203 0.21353 0.0
C6640 C 0.92437 0.63153 0.21287 0.0
C6641 C 0.91975 0.64134 0.21 0.0
C6642 C 0.90889 0.6414 0.20696 0.0
C6643 C 0.90293 0.63155 0.20569 0.0
C6644 C 0.90764 0.62174 0.20964 0.0
H6645 H 0.65039 0.72777 0.46877 0.0
H6646 H 0.62044 0.73378 0.45102 0.0
H6647 H 0.62737 0.72317 0.43583 0.0
H6648 H 0.66904 0.72893 0.44808 0.0
H6649 H 0.67713 0.71718 0.45141 0.0
H6650 H 0.66981 0.72423 0.46186 0.0
H6651 H 0.65997 0.70647 0.46726 0.0
H6652 H 0.66756 0.69932 0.45703 0.0
H6653 H 0.65292 0.69866 0.45708 0.0
H6654 H 0.63741 0.71439 0.42204 0.0
H6655 H 0.64954 0.7046 0.41011 0.0
H6656 H 0.67379 0.70273 0.43573 0.0
C6657 C 0.64523 0.72667 0.46175 0.0
C6658 C 0.63496 0.73203 0.46096 0.0
C6659 C 0.62845 0.73021 0.4517 0.0
C6660 C 0.63228 0.72409 0.44304 0.0
C6661 C 0.64255 0.7195 0.44379 0.0
C6662 C 0.64887 0.72029 0.45297 0.0
C6663 C 0.65959 0.71417 0.45132 0.0
C6664 C 0.66948 0.72158 0.45327 0.0
C6665 C 0.66004 0.70406 0.45861 0.0
C6666 C 0.65856 0.71081 0.43946 0.0
C6667 C 0.64851 0.71387 0.43553 0.0
C6668 C 0.6453 0.71189 0.42498 0.0
C6669 C 0.65242 0.70644 0.41818 0.0
C6670 C 0.66285 0.70311 0.42175 0.0
C6671 C 0.66594 0.70525 0.43266 0.0
H6672 H 0.7832 0.57311 0.61631 0.0
H6673 H 0.81401 0.55757 0.62405 0.0
H6674 H 0.82203 0.5752 0.62802 0.0
H6675 H 0.79321 0.5977 0.60451 0.0
H6676 H 0.784 0.60691 0.61116 0.0
H6677 H 0.77998 0.59301 0.60873 0.0
H6678 H 0.77602 0.59058 0.62908 0.0
H6679 H 0.78004 0.60449 0.63152 0.0
H6680 H 0.78652 0.59361 0.63882 0.0
H6681 H 0.82766 0.59348 0.62993 0.0
H6682 H 0.83032 0.61306 0.63231 0.0
H6683 H 0.7962 0.61866 0.62513 0.0
C6684 C 0.79161 0.57346 0.61889 0.0
C6685 C 0.7981 0.56384 0.61932 0.0
C6686 C 0.80897 0.56471 0.62304 0.0
C6687 C 0.81363 0.57473 0.62546 0.0
C6688 C 0.80729 0.58398 0.62452 0.0
C6689 C 0.79645 0.58359 0.62163 0.0
C6690 C 0.79167 0.5951 0.62194 0.0
C6691 C 0.78694 0.59837 0.61092 0.0
C6692 C 0.78305 0.596 0.63087 0.0
C6693 C 0.80176 0.60186 0.62479 0.0
C6694 C 0.81055 0.59507 0.62631 0.0
C6695 C 0.82084 0.59893 0.62891 0.0
C6696 C 0.82228 0.61007 0.63023 0.0
C6697 C 0.81351 0.61734 0.62899 0.0
C6698 C 0.80306 0.61324 0.62611 0.0
H6699 H 0.29619 0.95177 0.38453 0.0
H6700 H 0.30148 0.95487 0.41905 0.0
H6701 H 0.30638 0.93547 0.42006 0.0
H6702 H 0.28527 0.92383 0.38463 0.0
H6703 H 0.29233 0.91986 0.37252 0.0
H6704 H 0.28837 0.93384 0.37445 0.0
H6705 H 0.30836 0.93995 0.37168 0.0
H6706 H 0.31231 0.92598 0.36975 0.0
H6707 H 0.31889 0.93412 0.37999 0.0
H6708 H 0.31155 0.91656 0.41754 0.0
H6709 H 0.31744 0.89856 0.41156 0.0
H6710 H 0.30883 0.90679 0.37847 0.0
C6711 C 0.29817 0.94824 0.3923 0.0
C6712 C 0.29829 0.95468 0.40178 0.0
C6713 C 0.30123 0.94997 0.41176 0.0
C6714 C 0.30402 0.93899 0.41241 0.0
C6715 C 0.3039 0.93284 0.40297 0.0
C6716 C 0.30112 0.93722 0.39308 0.0
C6717 C 0.30239 0.92881 0.38415 0.0
C6718 C 0.29143 0.92644 0.37861 0.0
C6719 C 0.311 0.93243 0.37591 0.0
C6720 C 0.30628 0.91908 0.39065 0.0
C6721 C 0.30703 0.92167 0.40147 0.0
C6722 C 0.31084 0.91434 0.40911 0.0
C6723 C 0.31407 0.90405 0.40562 0.0
C6724 C 0.31341 0.90108 0.39457 0.0
C6725 C 0.3094 0.90874 0.38698 0.0
H6726 H 0.28642 0.05157 0.65363 0.0
H6727 H 0.2862 0.06435 0.62095 0.0
H6728 H 0.29858 0.079 0.6265 0.0
H6729 H 0.28589 0.07538 0.66753 0.0
H6730 H 0.29565 0.0723 0.67797 0.0
H6731 H 0.28824 0.06146 0.67147 0.0
H6732 H 0.30618 0.05203 0.66596 0.0
H6733 H 0.31363 0.06265 0.67283 0.0
H6734 H 0.31641 0.05969 0.65885 0.0
H6735 H 0.30813 0.09329 0.63533 0.0
H6736 H 0.31732 0.1064 0.64699 0.0
H6737 H 0.31249 0.08515 0.67463 0.0
C6738 C 0.28934 0.05725 0.64761 0.0
C6739 C 0.2853 0.05697 0.63688 0.0
C6740 C 0.28913 0.06454 0.62921 0.0
C6741 C 0.29617 0.07287 0.63228 0.0
C6742 C 0.29951 0.07334 0.64299 0.0
C6743 C 0.29657 0.06563 0.65053 0.0
C6744 C 0.30121 0.06855 0.6616 0.0
C6745 C 0.2922 0.06948 0.67014 0.0
C6746 C 0.30987 0.06023 0.66501 0.0
C6747 C 0.30639 0.07953 0.65914 0.0
C6748 C 0.3054 0.08189 0.64828 0.0
C6749 C 0.30911 0.09154 0.64383 0.0
C6750 C 0.31419 0.099 0.65059 0.0
C6751 C 0.31544 0.09692 0.66177 0.0
C6752 C 0.31159 0.08697 0.66612 0.0
H6753 H 0.22397 0.06615 0.88278 0.0
H6754 H 0.21826 0.06201 0.91705 0.0
H6755 H 0.21349 0.08151 0.91862 0.0
H6756 H 0.23496 0.09384 0.88365 0.0
H6757 H 0.22799 0.09793 0.87149 0.0
H6758 H 0.23191 0.08394 0.87331 0.0
H6759 H 0.21191 0.07795 0.87018 0.0
H6760 H 0.20796 0.09193 0.86845 0.0
H6761 H 0.20134 0.08366 0.87849 0.0
H6762 H 0.20852 0.10086 0.91636 0.0
H6763 H 0.20272 0.11897 0.91046 0.0
H6764 H 0.21151 0.11087 0.87742 0.0
C6765 C 0.22179 0.06944 0.8906 0.0
C6766 C 0.22144 0.06271 0.89982 0.0
C6767 C 0.21848 0.06712 0.90993 0.0
C6768 C 0.21585 0.07815 0.91089 0.0
C6769 C 0.21615 0.08458 0.90164 0.0
C6770 C 0.21897 0.08041 0.89167 0.0
C6771 C 0.21783 0.08892 0.88289 0.0
C6772 C 0.22883 0.0913 0.87752 0.0
C6773 C 0.20925 0.0854 0.87451 0.0
C6774 C 0.21394 0.09854 0.88951 0.0
C6775 C 0.21311 0.09584 0.9003 0.0
C6776 C 0.20928 0.10315 0.90796 0.0
C6777 C 0.2061 0.11349 0.90451 0.0
C6778 C 0.20678 0.11651 0.89348 0.0
C6779 C 0.21086 0.10889 0.88591 0.0
H6780 H 0.7278 0.45109 0.62603 0.0
H6781 H 0.73897 0.47127 0.65261 0.0
H6782 H 0.72893 0.45973 0.66549 0.0
H6783 H 0.7004 0.44634 0.63742 0.0
H6784 H 0.69971 0.4326 0.63235 0.0
H6785 H 0.70747 0.44273 0.62519 0.0
H6786 H 0.72438 0.43024 0.62631 0.0
H6787 H 0.71676 0.42022 0.63375 0.0
H6788 H 0.72916 0.42573 0.63934 0.0
H6789 H 0.71851 0.44539 0.67566 0.0
H6790 H 0.70732 0.42996 0.68212 0.0
H6791 H 0.70213 0.41976 0.6489 0.0
C6792 C 0.72809 0.45305 0.63456 0.0
C6793 C 0.73421 0.46201 0.63837 0.0
C6794 C 0.73431 0.46443 0.64956 0.0
C6795 C 0.72865 0.45793 0.65693 0.0
C6796 C 0.72277 0.44909 0.65299 0.0
C6797 C 0.72228 0.44674 0.64205 0.0
C6798 C 0.71524 0.43682 0.63999 0.0
C6799 C 0.7051 0.43981 0.63334 0.0
C6800 C 0.72178 0.42771 0.63453 0.0
C6801 C 0.71218 0.43381 0.65145 0.0
C6802 C 0.71656 0.44099 0.65884 0.0
C6803 C 0.71492 0.43977 0.66993 0.0
C6804 C 0.70853 0.431 0.67352 0.0
C6805 C 0.70385 0.4236 0.66605 0.0
C6806 C 0.70573 0.42512 0.65487 0.0
H6807 H 0.7253 0.45002 0.13517 0.0
H6808 H 0.71136 0.45706 0.10373 0.0
H6809 H 0.70569 0.43787 0.10191 0.0
H6810 H 0.73456 0.42196 0.12902 0.0
H6811 H 0.73092 0.41699 0.14222 0.0
H6812 H 0.73504 0.43097 0.14052 0.0
H6813 H 0.71705 0.43723 0.14939 0.0
H6814 H 0.71286 0.42328 0.15097 0.0
H6815 H 0.70426 0.43269 0.1438 0.0
H6816 H 0.70076 0.41869 0.10368 0.0
H6817 H 0.69569 0.40022 0.10928 0.0
H6818 H 0.71206 0.40518 0.14003 0.0
C6819 C 0.72117 0.44744 0.12786 0.0
C6820 C 0.7187 0.45496 0.11957 0.0
C6821 C 0.71319 0.45141 0.11018 0.0
C6822 C 0.71005 0.44053 0.10904 0.0
C6823 C 0.71245 0.43334 0.11739 0.0
C6824 C 0.71784 0.4366 0.12665 0.0
C6825 C 0.71858 0.42734 0.13473 0.0
C6826 C 0.73049 0.42413 0.13674 0.0
C6827 C 0.71284 0.43032 0.14535 0.0
C6828 C 0.7125 0.41848 0.12863 0.0
C6829 C 0.70927 0.42213 0.11857 0.0
C6830 C 0.70334 0.41566 0.11147 0.0
C6831 C 0.70056 0.40516 0.11471 0.0
C6832 C 0.70362 0.40121 0.12501 0.0
C6833 C 0.70969 0.40798 0.13208 0.0
H6834 H 0.28276 0.96228 0.8633 0.0
H6835 H 0.29317 0.9572 0.89637 0.0
H6836 H 0.30688 0.94396 0.89012 0.0
H6837 H 0.28376 0.93547 0.85519 0.0
H6838 H 0.28898 0.93775 0.84178 0.0
H6839 H 0.28123 0.9482 0.84842 0.0
H6840 H 0.29703 0.96196 0.846 0.0
H6841 H 0.30467 0.9516 0.83905 0.0
H6842 H 0.31047 0.95841 0.85062 0.0
H6843 H 0.31775 0.93036 0.88103 0.0
H6844 H 0.32595 0.9165 0.86933 0.0
H6845 H 0.30854 0.92946 0.84168 0.0
C6846 C 0.28817 0.95854 0.86912 0.0
C6847 C 0.2871 0.9607 0.88028 0.0
C6848 C 0.29402 0.9556 0.8878 0.0
C6849 C 0.3018 0.94813 0.88432 0.0
C6850 C 0.30249 0.9459 0.87331 0.0
C6851 C 0.29595 0.95098 0.86577 0.0
C6852 C 0.29788 0.94639 0.85453 0.0
C6853 C 0.28734 0.94167 0.8497 0.0
C6854 C 0.30281 0.95511 0.84711 0.0
C6855 C 0.30611 0.93755 0.85707 0.0
C6856 C 0.30875 0.93767 0.86794 0.0
C6857 C 0.31586 0.93022 0.87249 0.0
C6858 C 0.32042 0.92237 0.8658 0.0
C6859 C 0.31782 0.92192 0.85468 0.0
C6860 C 0.31067 0.9297 0.85017 0.0
H6861 H 0.22165 0.05755 0.38861 0.0
H6862 H 0.25252 0.062 0.37232 0.0
H6863 H 0.244 0.07494 0.35971 0.0
H6864 H 0.20405 0.06009 0.36458 0.0
H6865 H 0.19376 0.06788 0.37143 0.0
H6866 H 0.2018 0.05818 0.37885 0.0
H6867 H 0.2076 0.07329 0.39228 0.0
H6868 H 0.19958 0.08303 0.38493 0.0
H6869 H 0.21384 0.08555 0.38721 0.0
H6870 H 0.23285 0.08815 0.34962 0.0
H6871 H 0.21926 0.10133 0.34274 0.0
H6872 H 0.19555 0.08882 0.36537 0.0
C6873 C 0.22654 0.06125 0.38234 0.0
C6874 C 0.23778 0.05892 0.38146 0.0
C6875 C 0.24396 0.06385 0.37319 0.0
C6876 C 0.23918 0.07112 0.36595 0.0
C6877 C 0.22818 0.07343 0.36708 0.0
C6878 C 0.22189 0.0687 0.37506 0.0
C6879 C 0.21041 0.07324 0.37481 0.0
C6880 C 0.20201 0.06431 0.37226 0.0
C6881 C 0.2077 0.07912 0.38544 0.0
C6882 C 0.21135 0.08122 0.36552 0.0
C6883 C 0.22166 0.08114 0.36114 0.0
C6884 C 0.22468 0.08819 0.35285 0.0
C6885 C 0.21696 0.09559 0.34897 0.0
C6886 C 0.2064 0.09581 0.3534 0.0
C6887 C 0.20354 0.08853 0.36171 0.0
H6888 H 0.38379 0.2137 0.46891 0.0
H6889 H 0.39957 0.20719 0.49962 0.0
H6890 H 0.41214 0.19458 0.49068 0.0
H6891 H 0.38456 0.18708 0.45853 0.0
H6892 H 0.38801 0.19047 0.44479 0.0
H6893 H 0.38076 0.2001 0.45301 0.0
H6894 H 0.39562 0.21455 0.44941 0.0
H6895 H 0.40297 0.20493 0.4412 0.0
H6896 H 0.40962 0.21146 0.45247 0.0
H6897 H 0.42134 0.18104 0.47954 0.0
H6898 H 0.42781 0.16792 0.46584 0.0
H6899 H 0.4072 0.18308 0.44179 0.0
C6900 C 0.38997 0.20966 0.47368 0.0
C6901 C 0.39056 0.21121 0.48506 0.0
C6902 C 0.3988 0.2059 0.491 0.0
C6903 C 0.40605 0.19879 0.48597 0.0
C6904 C 0.40507 0.19709 0.47492 0.0
C6905 C 0.39738 0.20244 0.46873 0.0
C6906 C 0.39805 0.19866 0.457 0.0
C6907 C 0.3872 0.19378 0.45311 0.0
C6908 C 0.40178 0.20796 0.44959 0.0
C6909 C 0.40682 0.19001 0.45785 0.0
C6910 C 0.41083 0.18938 0.46825 0.0
C6911 C 0.41847 0.18159 0.4713 0.0
C6912 C 0.4221 0.17419 0.4635 0.0
C6913 C 0.41816 0.17471 0.4528 0.0
C6914 C 0.41052 0.18277 0.44989 0.0
H6915 H 0.55548 0.65747 0.20322 0.0
H6916 H 0.53145 0.63167 0.2065 0.0
H6917 H 0.53368 0.62716 0.18731 0.0
H6918 H 0.54905 0.66562 0.17576 0.0
H6919 H 0.56307 0.66748 0.17195 0.0
H6920 H 0.55899 0.66953 0.18578 0.0
H6921 H 0.57336 0.65549 0.19208 0.0
H6922 H 0.57747 0.65346 0.17828 0.0
H6923 H 0.57324 0.64201 0.18632 0.0
H6924 H 0.53953 0.62421 0.16817 0.0
H6925 H 0.54858 0.62342 0.15032 0.0
H6926 H 0.56893 0.6508 0.15931 0.0
C6927 C 0.55063 0.65087 0.19998 0.0
C6928 C 0.54317 0.64502 0.20657 0.0
C6929 C 0.537 0.63652 0.20175 0.0
C6930 C 0.53828 0.6338 0.19081 0.0
C6931 C 0.5458 0.63959 0.18468 0.0
C6932 C 0.55189 0.64795 0.18908 0.0
C6933 C 0.55987 0.65244 0.18085 0.0
C6934 C 0.5576 0.66449 0.17844 0.0
C6935 C 0.57168 0.65075 0.18461 0.0
C6936 C 0.55725 0.64534 0.17116 0.0
C6937 C 0.54913 0.63795 0.17357 0.0
C6938 C 0.54578 0.63007 0.16614 0.0
C6939 C 0.55092 0.62968 0.15605 0.0
C6940 C 0.55924 0.63718 0.15345 0.0
C6941 C 0.56237 0.64517 0.16106 0.0
H6942 H 0.1148 0.81205 0.99255 0.0
H6943 H 0.14399 0.80659 0.97379 0.0
H6944 H 0.1374 0.81952 0.95992 0.0
H6945 H 0.09626 0.81429 0.96938 0.0
H6946 H 0.08816 0.8246 0.97586 0.0
H6947 H 0.09513 0.81458 0.9839 0.0
H6948 H 0.10455 0.83014 0.99467 0.0
H6949 H 0.09771 0.84012 0.9865 0.0
H6950 H 0.11234 0.84024 0.98749 0.0
H6951 H 0.12821 0.83342 0.9488 0.0
H6952 H 0.11654 0.84736 0.94037 0.0
H6953 H 0.09297 0.84364 0.96607 0.0
C6954 C 0.11976 0.81363 0.9855 0.0
C6955 C 0.12992 0.80856 0.98419 0.0
C6956 C 0.13621 0.81055 0.97487 0.0
C6957 C 0.13252 0.81781 0.96698 0.0
C6958 C 0.12248 0.82278 0.96853 0.0
C6959 C 0.11612 0.82072 0.97749 0.0
C6960 C 0.10571 0.82725 0.97724 0.0
C6961 C 0.09572 0.81973 0.97655 0.0
C6962 C 0.10505 0.8349 0.98706 0.0
C6963 C 0.1073 0.8335 0.96685 0.0
C6964 C 0.11703 0.83073 0.96196 0.0
C6965 C 0.12052 0.83557 0.95244 0.0
C6966 C 0.11387 0.84342 0.94773 0.0
C6967 C 0.1039 0.84633 0.95255 0.0
C6968 C 0.10052 0.84136 0.96222 0.0
H6969 H 0.95714 0.37517 0.70513 0.0
H6970 H 0.98754 0.35804 0.70055 0.0
H6971 H 0.9853 0.35968 0.68065 0.0
H6972 H 0.94236 0.3637 0.68314 0.0
H6973 H 0.9356 0.37629 0.67995 0.0
H6974 H 0.93993 0.37365 0.69358 0.0
H6975 H 0.95087 0.39177 0.69343 0.0
H6976 H 0.94676 0.39427 0.67968 0.0
H6977 H 0.96099 0.39396 0.68315 0.0
H6978 H 0.97922 0.3632 0.66098 0.0
H6979 H 0.97005 0.368 0.64386 0.0
H6980 H 0.94346 0.38219 0.66206 0.0
C6981 C 0.96332 0.3717 0.69996 0.0
C6982 C 0.9725 0.36644 0.70439 0.0
C6983 C 0.98049 0.36219 0.69733 0.0
C6984 C 0.97925 0.36303 0.68603 0.0
C6985 C 0.97003 0.36825 0.68196 0.0
C6986 C 0.96224 0.37253 0.68877 0.0
C6987 C 0.95316 0.37791 0.68252 0.0
C6988 C 0.94211 0.37256 0.68494 0.0
C6989 C 0.95293 0.39021 0.68484 0.0
C6990 C 0.95678 0.37566 0.6711 0.0
C6991 C 0.9666 0.37023 0.67087 0.0
C6992 C 0.9715 0.3674 0.66112 0.0
C6993 C 0.96617 0.37009 0.65142 0.0
C6994 C 0.95595 0.37546 0.65151 0.0
C6995 C 0.95131 0.37828 0.66156 0.0
H6996 H 0.38263 0.80324 0.0479 0.0
H6997 H 0.39599 0.81238 0.01677 0.0
H6998 H 0.40826 0.82537 0.02565 0.0
H6999 H 0.38247 0.82927 0.05975 0.0
H7000 H 0.38706 0.82538 0.07303 0.0
H7001 H 0.37986 0.81572 0.06471 0.0
H7002 H 0.39581 0.8022 0.06663 0.0
H7003 H 0.40312 0.81187 0.07489 0.0
H7004 H 0.40934 0.80641 0.06289 0.0
H7005 H 0.41726 0.8389 0.03688 0.0
H7006 H 0.42367 0.85187 0.05076 0.0
H7007 H 0.40578 0.83415 0.07522 0.0
C7008 C 0.38822 0.80793 0.04302 0.0
C7009 C 0.38816 0.80701 0.03155 0.0
C7010 C 0.39566 0.81319 0.02547 0.0
C7011 C 0.40276 0.82051 0.03046 0.0
C7012 C 0.40241 0.82156 0.04162 0.0
C7013 C 0.39548 0.81539 0.04793 0.0
C7014 C 0.39672 0.81859 0.05979 0.0
C7015 C 0.38588 0.82247 0.06459 0.0
C7016 C 0.40153 0.80921 0.06644 0.0
C7017 C 0.40486 0.82789 0.0589 0.0
C7018 C 0.40812 0.8293 0.04834 0.0
C7019 C 0.41499 0.83776 0.04524 0.0
C7020 C 0.41858 0.84508 0.05314 0.0
C7021 C 0.41536 0.84384 0.06401 0.0
C7022 C 0.40855 0.83505 0.06697 0.0
H7023 H 0.96552 0.666 0.81824 0.0
H7024 H 0.98017 0.635 0.81001 0.0
H7025 H 0.97636 0.62819 0.8283 0.0
H7026 H 0.97521 0.66719 0.84578 0.0
H7027 H 0.96288 0.67293 0.85116 0.0
H7028 H 0.96671 0.67562 0.83738 0.0
H7029 H 0.94817 0.66815 0.83061 0.0
H7030 H 0.94422 0.66561 0.84438 0.0
H7031 H 0.9439 0.65471 0.83462 0.0
H7032 H 0.971 0.62456 0.84703 0.0
H7033 H 0.96312 0.62384 0.86531 0.0
H7034 H 0.95193 0.65711 0.8619 0.0
C7035 C 0.96789 0.65779 0.82033 0.0
C7036 C 0.9733 0.65107 0.81282 0.0
C7037 C 0.97623 0.64034 0.81576 0.0
C7038 C 0.97409 0.63639 0.8261 0.0
C7039 C 0.96901 0.64328 0.83341 0.0
C7040 C 0.96584 0.65371 0.8307 0.0
C7041 C 0.96026 0.65924 0.84012 0.0
C7042 C 0.96665 0.66935 0.84383 0.0
C7043 C 0.94843 0.66209 0.83726 0.0
C7044 C 0.96078 0.65027 0.84849 0.0
C7045 C 0.9659 0.64116 0.84441 0.0
C7046 C 0.96702 0.63164 0.85037 0.0
C7047 C 0.96253 0.63131 0.86072 0.0
C7048 C 0.95699 0.64043 0.86498 0.0
C7049 C 0.95631 0.65011 0.85888 0.0
H7050 H 0.1207 0.19912 0.52636 0.0
H7051 H 0.13856 0.21676 0.55114 0.0
H7052 H 0.1295 0.20581 0.56518 0.0
H7053 H 0.09552 0.19595 0.54172 0.0
H7054 H 0.09294 0.18252 0.53641 0.0
H7055 H 0.10029 0.19233 0.52844 0.0
H7056 H 0.11627 0.17871 0.52654 0.0
H7057 H 0.10892 0.16893 0.53452 0.0
H7058 H 0.12241 0.1731 0.53853 0.0
H7059 H 0.1191 0.19276 0.57642 0.0
H7060 H 0.10831 0.1779 0.5844 0.0
H7061 H 0.09771 0.16789 0.55245 0.0
C7062 C 0.12275 0.20064 0.53473 0.0
C7063 C 0.13037 0.20879 0.53763 0.0
C7064 C 0.13268 0.21065 0.5487 0.0
C7065 C 0.12759 0.20446 0.55674 0.0
C7066 C 0.1202 0.19646 0.55359 0.0
C7067 C 0.11776 0.19453 0.54287 0.0
C7068 C 0.10974 0.18521 0.54167 0.0
C7069 C 0.09899 0.18924 0.53677 0.0
C7070 C 0.11463 0.17593 0.53492 0.0
C7071 C 0.10831 0.18196 0.5534 0.0
C7072 C 0.11428 0.18872 0.56012 0.0
C7073 C 0.11433 0.18746 0.57127 0.0
C7074 C 0.10814 0.17905 0.57573 0.0
C7075 C 0.10209 0.1719 0.56906 0.0
C7076 C 0.10219 0.17333 0.55772 0.0
H7077 H 0.54374 0.38501 0.31673 0.0
H7078 H 0.54555 0.34984 0.3149 0.0
H7079 H 0.54987 0.34901 0.33435 0.0
H7080 H 0.56593 0.38877 0.33392 0.0
H7081 H 0.56015 0.39966 0.34179 0.0
H7082 H 0.55575 0.39751 0.32807 0.0
H7083 H 0.53577 0.39591 0.3346 0.0
H7084 H 0.5402 0.39808 0.34833 0.0
H7085 H 0.53236 0.38615 0.34491 0.0
H7086 H 0.55547 0.35185 0.35322 0.0
H7087 H 0.56266 0.35818 0.37063 0.0
H7088 H 0.55756 0.39171 0.36079 0.0
C7089 C 0.54471 0.37715 0.32055 0.0
C7090 C 0.54411 0.36746 0.31441 0.0
C7091 C 0.54581 0.35732 0.31954 0.0
C7092 C 0.54828 0.35678 0.33056 0.0
C7093 C 0.54902 0.36645 0.33636 0.0
C7094 C 0.54727 0.37646 0.3316 0.0
C7095 C 0.54935 0.38561 0.33962 0.0
C7096 C 0.55833 0.39333 0.33561 0.0
C7097 C 0.53879 0.39181 0.34201 0.0
C7098 C 0.55304 0.37917 0.34941 0.0
C7099 C 0.55252 0.36813 0.34738 0.0
C7100 C 0.55577 0.36047 0.35498 0.0
C7101 C 0.55979 0.36417 0.3649 0.0
C7102 C 0.56058 0.37545 0.36718 0.0
C7103 C 0.55706 0.38304 0.35932 0.0
H7104 H 0.49398 0.39281 0.19913 0.0
H7105 H 0.46946 0.38411 0.22294 0.0
H7106 H 0.45566 0.39347 0.21224 0.0
H7107 H 0.48433 0.41828 0.19151 0.0
H7108 H 0.48649 0.41664 0.1772 0.0
H7109 H 0.49482 0.40929 0.18667 0.0
H7110 H 0.48936 0.39092 0.17776 0.0
H7111 H 0.48135 0.39833 0.16804 0.0
H7112 H 0.47515 0.38772 0.17598 0.0
H7113 H 0.44465 0.40479 0.19986 0.0
H7114 H 0.43623 0.41453 0.18469 0.0
H7115 H 0.4671 0.41442 0.1677 0.0
C7116 C 0.48571 0.39263 0.20207 0.0
C7117 C 0.48309 0.38803 0.21226 0.0
C7118 C 0.47201 0.38803 0.21556 0.0
C7119 C 0.46399 0.39324 0.20945 0.0
C7120 C 0.46698 0.39806 0.19977 0.0
C7121 C 0.47746 0.39747 0.19587 0.0
C7122 C 0.47828 0.40286 0.18487 0.0
C7123 C 0.48647 0.41233 0.18508 0.0
C7124 C 0.48121 0.39446 0.17615 0.0
C7125 C 0.46672 0.4069 0.18344 0.0
C7126 C 0.46038 0.40408 0.19219 0.0
C7127 C 0.44949 0.40699 0.19291 0.0
C7128 C 0.44482 0.41265 0.18429 0.0
C7129 C 0.451 0.41532 0.17502 0.0
C7130 C 0.46215 0.41248 0.17466 0.0
H7131 H 0.36608 0.70328 0.95584 0.0
H7132 H 0.36963 0.69881 0.9906 0.0
H7133 H 0.37405 0.67966 0.98752 0.0
H7134 H 0.35218 0.67741 0.95167 0.0
H7135 H 0.35826 0.67532 0.9386 0.0
H7136 H 0.35581 0.68893 0.94342 0.0
H7137 H 0.37615 0.69363 0.94058 0.0
H7138 H 0.37868 0.68001 0.93586 0.0
H7139 H 0.38642 0.68543 0.94703 0.0
H7140 H 0.37793 0.66065 0.98077 0.0
H7141 H 0.38042 0.64338 0.97065 0.0
H7142 H 0.37318 0.66009 0.94071 0.0
C7143 C 0.36751 0.69842 0.96296 0.0
C7144 C 0.36752 0.70298 0.97354 0.0
C7145 C 0.36981 0.69593 0.98236 0.0
C7146 C 0.37224 0.68489 0.98072 0.0
C7147 C 0.37209 0.6808 0.97024 0.0
C7148 C 0.36963 0.68732 0.96152 0.0
C7149 C 0.36969 0.68084 0.95108 0.0
C7150 C 0.35831 0.68061 0.94589 0.0
C7151 C 0.37825 0.68524 0.94317 0.0
C7152 C 0.37279 0.66972 0.95529 0.0
C7153 C 0.3741 0.66984 0.96637 0.0
C7154 C 0.37687 0.66046 0.97209 0.0
C7155 C 0.37823 0.65071 0.96632 0.0
C7156 C 0.37694 0.65048 0.95497 0.0
C7157 C 0.37423 0.66011 0.9494 0.0
H7158 H 0.04289 0.62245 0.71882 0.0
H7159 H 0.02609 0.64321 0.69571 0.0
H7160 H 0.03428 0.6332 0.6809 0.0
H7161 H 0.06863 0.62367 0.70167 0.0
H7162 H 0.07286 0.61011 0.70522 0.0
H7163 H 0.06523 0.61815 0.71472 0.0
H7164 H 0.05118 0.60254 0.716 0.0
H7165 H 0.05855 0.59467 0.70614 0.0
H7166 H 0.04442 0.59783 0.70393 0.0
H7167 H 0.03877 0.61765 0.66959 0.0
H7168 H 0.0499 0.60542 0.65897 0.0
H7169 H 0.0709 0.59997 0.68682 0.0
C7170 C 0.04105 0.625 0.71065 0.0
C7171 C 0.03289 0.633 0.70847 0.0
C7172 C 0.03135 0.63645 0.69767 0.0
C7173 C 0.03605 0.63089 0.68915 0.0
C7174 C 0.043 0.62238 0.69149 0.0
C7175 C 0.0464 0.62002 0.70182 0.0
C7176 C 0.05555 0.61154 0.70137 0.0
C7177 C 0.0662 0.61615 0.70602 0.0
C7178 C 0.05222 0.60102 0.70721 0.0
C7179 C 0.05638 0.60964 0.68918 0.0
C7180 C 0.04841 0.61547 0.68397 0.0
C7181 C 0.04577 0.61379 0.67325 0.0
C7182 C 0.0523 0.60691 0.66725 0.0
C7183 C 0.06218 0.60282 0.67158 0.0
C7184 C 0.06385 0.60353 0.68298 0.0
H7185 H 0.15535 0.3131 0.46132 0.0
H7186 H 0.13962 0.31462 0.49286 0.0
H7187 H 0.13569 0.3337 0.48994 0.0
H7188 H 0.16624 0.33959 0.45996 0.0
H7189 H 0.16245 0.34188 0.44607 0.0
H7190 H 0.16502 0.32826 0.45075 0.0
H7191 H 0.14592 0.3222 0.44418 0.0
H7192 H 0.14332 0.33579 0.4394 0.0
H7193 H 0.13409 0.32947 0.44879 0.0
H7194 H 0.13342 0.35293 0.48395 0.0
H7195 H 0.13155 0.37043 0.47415 0.0
H7196 H 0.14638 0.35597 0.44589 0.0
C7197 C 0.15101 0.31723 0.46769 0.0
C7198 C 0.14831 0.31201 0.47758 0.0
C7199 C 0.14252 0.31817 0.48545 0.0
C7200 C 0.14001 0.32914 0.48382 0.0
C7201 C 0.14291 0.33391 0.47411 0.0
C7202 C 0.14803 0.32811 0.46606 0.0
C7203 C 0.14945 0.33501 0.45601 0.0
C7204 C 0.16151 0.33626 0.45303 0.0
C7205 C 0.1428 0.33033 0.44654 0.0
C7206 C 0.1447 0.34568 0.45988 0.0
C7207 C 0.14097 0.34487 0.47036 0.0
C7208 C 0.13627 0.35367 0.47572 0.0
C7209 C 0.13528 0.36354 0.47016 0.0
C7210 C 0.13889 0.36443 0.45938 0.0
C7211 C 0.14364 0.35542 0.45418 0.0
H7212 H 0.48287 0.63673 0.32123 0.0
H7213 H 0.48247 0.61194 0.29622 0.0
H7214 H 0.47081 0.60039 0.30751 0.0
H7215 H 0.48378 0.62046 0.34386 0.0
H7216 H 0.47393 0.62751 0.35203 0.0
H7217 H 0.48138 0.63478 0.34182 0.0
H7218 H 0.46348 0.64104 0.33273 0.0
H7219 H 0.45598 0.63414 0.34319 0.0
H7220 H 0.45332 0.63104 0.3292 0.0
H7221 H 0.46175 0.59034 0.32218 0.0
H7222 H 0.4525 0.58358 0.3384 0.0
H7223 H 0.45664 0.61529 0.35355 0.0
C7224 C 0.48022 0.62891 0.31814 0.0
C7225 C 0.48372 0.62517 0.30788 0.0
C7226 C 0.47994 0.61497 0.30403 0.0
C7227 C 0.47332 0.60833 0.3104 0.0
C7228 C 0.47031 0.61204 0.32055 0.0
C7229 C 0.47327 0.62223 0.32431 0.0
C7230 C 0.46852 0.62418 0.33549 0.0
C7231 C 0.47744 0.62689 0.34379 0.0
C7232 C 0.45981 0.63314 0.33513 0.0
C7233 C 0.46333 0.61318 0.33768 0.0
C7234 C 0.46437 0.60637 0.32889 0.0
C7235 C 0.46059 0.59569 0.32903 0.0
C7236 C 0.45529 0.59194 0.3383 0.0
C7237 C 0.45361 0.59889 0.34729 0.0
C7238 C 0.45783 0.60965 0.34694 0.0
H7239 H 0.14131 0.69821 0.03443 0.0
H7240 H 0.16127 0.70728 0.0622 0.0
H7241 H 0.15975 0.68899 0.06916 0.0
H7242 H 0.12403 0.67926 0.04458 0.0
H7243 H 0.12555 0.66872 0.03456 0.0
H7244 H 0.12813 0.68268 0.03102 0.0
H7245 H 0.14742 0.67764 0.02451 0.0
H7246 H 0.14483 0.6636 0.02792 0.0
H7247 H 0.15649 0.67053 0.0335 0.0
H7248 H 0.15427 0.67117 0.07478 0.0
H7249 H 0.14785 0.65238 0.07721 0.0
H7250 H 0.13408 0.65256 0.04492 0.0
C7251 C 0.14554 0.69638 0.04187 0.0
C7252 C 0.15068 0.70471 0.04813 0.0
C7253 C 0.1564 0.70158 0.05762 0.0
C7254 C 0.15583 0.69104 0.0616 0.0
C7255 C 0.15023 0.68331 0.05564 0.0
C7256 C 0.14566 0.68557 0.04572 0.0
C7257 C 0.14092 0.67518 0.0408 0.0
C7258 C 0.12894 0.67655 0.03756 0.0
C7259 C 0.14782 0.67152 0.03111 0.0
C7260 C 0.14232 0.66729 0.05019 0.0
C7261 C 0.148 0.67222 0.0585 0.0
C7262 C 0.15007 0.66705 0.06826 0.0
C7263 C 0.14638 0.65643 0.06958 0.0
C7264 C 0.14064 0.65109 0.06123 0.0
C7265 C 0.13859 0.65651 0.05135 0.0
H7266 H 0.02684 0.38099 0.82097 0.0
H7267 H 0.04204 0.39344 0.79171 0.0
H7268 H 0.05544 0.40304 0.80258 0.0
H7269 H 0.02852 0.40533 0.83548 0.0
H7270 H 0.03177 0.39941 0.84841 0.0
H7271 H 0.02412 0.39169 0.83861 0.0
H7272 H 0.03832 0.37613 0.83927 0.0
H7273 H 0.04578 0.38369 0.84935 0.0
H7274 H 0.05248 0.37928 0.83719 0.0
H7275 H 0.0665 0.41255 0.81617 0.0
H7276 H 0.07551 0.42025 0.8319 0.0
H7277 H 0.0517 0.40428 0.85266 0.0
C7278 C 0.03297 0.38568 0.81679 0.0
C7279 C 0.03326 0.38618 0.80532 0.0
C7280 C 0.04163 0.39243 0.80037 0.0
C7281 C 0.04931 0.39811 0.8065 0.0
C7282 C 0.04854 0.39772 0.81766 0.0
C7283 C 0.04068 0.39162 0.82282 0.0
C7284 C 0.04147 0.39313 0.83498 0.0
C7285 C 0.03084 0.39766 0.83964 0.0
C7286 C 0.0447 0.38242 0.84052 0.0
C7287 C 0.05064 0.40139 0.83569 0.0
C7288 C 0.05471 0.40373 0.82561 0.0
C7289 C 0.06339 0.41081 0.82415 0.0
C7290 C 0.06837 0.41534 0.83328 0.0
C7291 C 0.06452 0.41303 0.84386 0.0
C7292 C 0.05525 0.40615 0.84492 0.0
H7293 H 0.36841 0.3148 0.56074 0.0
H7294 H 0.3715 0.31899 0.52593 0.0
H7295 H 0.37589 0.33819 0.52878 0.0
H7296 H 0.35459 0.34078 0.56479 0.0
H7297 H 0.36086 0.34308 0.57777 0.0
H7298 H 0.35832 0.32939 0.57316 0.0
H7299 H 0.3787 0.3248 0.57587 0.0
H7300 H 0.38129 0.3385 0.58039 0.0
H7301 H 0.38888 0.33297 0.56923 0.0
H7302 H 0.37987 0.3572 0.53519 0.0
H7303 H 0.38262 0.37461 0.54499 0.0
H7304 H 0.37588 0.35839 0.57529 0.0
C7305 C 0.36976 0.31963 0.55359 0.0
C7306 C 0.36968 0.31497 0.54304 0.0
C7307 C 0.3718 0.32195 0.53414 0.0
C7308 C 0.3742 0.33303 0.53564 0.0
C7309 C 0.37419 0.33722 0.54608 0.0
C7310 C 0.37188 0.33079 0.5549 0.0
C7311 C 0.3721 0.33742 0.56526 0.0
C7312 C 0.3608 0.33768 0.57055 0.0
C7313 C 0.38076 0.33317 0.57315 0.0
C7314 C 0.37515 0.34851 0.56087 0.0
C7315 C 0.37627 0.34824 0.54978 0.0
C7316 C 0.37896 0.35752 0.54388 0.0
C7317 C 0.38048 0.36736 0.54947 0.0
C7318 C 0.37941 0.36778 0.56083 0.0
C7319 C 0.37675 0.35823 0.56659 0.0
H7320 H 0.19725 0.48193 0.38184 0.0
H7321 H 0.22591 0.4771 0.40189 0.0
H7322 H 0.21535 0.46504 0.41375 0.0
H7323 H 0.17863 0.48388 0.40337 0.0
H7324 H 0.16773 0.47679 0.39658 0.0
H7325 H 0.17763 0.48425 0.38884 0.0
H7326 H 0.1824 0.46696 0.37775 0.0
H7327 H 0.17215 0.45962 0.38515 0.0
H7328 H 0.18591 0.45461 0.38477 0.0
H7329 H 0.2011 0.45542 0.4248 0.0
H7330 H 0.18508 0.44639 0.43241 0.0
H7331 H 0.16613 0.45672 0.40447 0.0
C7332 C 0.20137 0.47837 0.38871 0.0
C7333 C 0.21246 0.48062 0.39091 0.0
C7334 C 0.21749 0.47548 0.39987 0.0
C7335 C 0.21152 0.4687 0.40678 0.0
C7336 C 0.20052 0.46713 0.40465 0.0
C7337 C 0.19553 0.47165 0.39572 0.0
C7338 C 0.18357 0.46876 0.39532 0.0
C7339 C 0.17648 0.47903 0.39607 0.0
C7340 C 0.18085 0.46209 0.38514 0.0
C7341 C 0.18262 0.46193 0.40542 0.0
C7342 C 0.19243 0.46121 0.41077 0.0
C7343 C 0.19342 0.45569 0.42052 0.0
C7344 C 0.18421 0.45047 0.42473 0.0
C7345 C 0.17416 0.45046 0.41902 0.0
C7346 C 0.17345 0.45649 0.40929 0.0
H7347 H 0.71169 0.04937 0.63445 0.0
H7348 H 0.7076 0.01849 0.61789 0.0
H7349 H 0.69454 0.02683 0.60538 0.0
H7350 H 0.68472 0.05819 0.6333 0.0
H7351 H 0.68734 0.07226 0.6301 0.0
H7352 H 0.69736 0.06448 0.63734 0.0
H7353 H 0.71172 0.06917 0.62284 0.0
H7354 H 0.70174 0.07698 0.61553 0.0
H7355 H 0.70892 0.06614 0.60885 0.0
H7356 H 0.68034 0.03727 0.5963 0.0
H7357 H 0.66667 0.0504 0.58966 0.0
H7358 H 0.68007 0.07517 0.61081 0.0
C7359 C 0.7082 0.04449 0.62802 0.0
C7360 C 0.71059 0.03324 0.62713 0.0
C7361 C 0.70582 0.02708 0.6187 0.0
C7362 C 0.6984 0.03174 0.61156 0.0
C7363 C 0.6959 0.04268 0.61279 0.0
C7364 C 0.70076 0.04911 0.62063 0.0
C7365 C 0.6963 0.06065 0.62008 0.0
C7366 C 0.69112 0.06409 0.63085 0.0
C7367 C 0.7052 0.06871 0.61662 0.0
C7368 C 0.6878 0.05939 0.61122 0.0
C7369 C 0.68783 0.04896 0.60708 0.0
C7370 C 0.68037 0.04555 0.59927 0.0
C7371 C 0.67266 0.05302 0.59555 0.0
C7372 C 0.67255 0.06377 0.59957 0.0
C7373 C 0.68023 0.06703 0.60745 0.0
H7374 H 0.70033 0.97695 0.37881 0.0
H7375 H 0.70506 0.96131 0.34766 0.0
H7376 H 0.68614 0.95492 0.34794 0.0
H7377 H 0.68398 0.95729 0.3909 0.0
H7378 H 0.67461 0.96648 0.39737 0.0
H7379 H 0.68827 0.97087 0.39451 0.0
H7380 H 0.68078 0.98729 0.38378 0.0
H7381 H 0.66708 0.98291 0.38666 0.0
H7382 H 0.6713 0.98497 0.37288 0.0
H7383 H 0.66757 0.94939 0.35153 0.0
H7384 H 0.64968 0.94426 0.35874 0.0
H7385 H 0.65618 0.96291 0.38785 0.0
C7386 C 0.69733 0.97232 0.37197 0.0
C7387 C 0.70428 0.9695 0.36325 0.0
C7388 C 0.70003 0.96337 0.35453 0.0
C7389 C 0.68924 0.9598 0.35454 0.0
C7390 C 0.6827 0.96252 0.36328 0.0
C7391 C 0.68647 0.96869 0.37183 0.0
C7392 C 0.67763 0.97007 0.38032 0.0
C7393 C 0.68135 0.96592 0.39143 0.0
C7394 C 0.67398 0.98202 0.38095 0.0
C7395 C 0.66867 0.96299 0.37552 0.0
C7396 C 0.67173 0.95909 0.36551 0.0
C7397 C 0.66501 0.95244 0.35932 0.0
C7398 C 0.65487 0.94959 0.36346 0.0
C7399 C 0.65157 0.95324 0.37377 0.0
C7400 C 0.65854 0.96005 0.37992 0.0
H7401 H 0.80986 0.97213 0.1373 0.0
H7402 H 0.8073 0.9986 0.11431 0.0
H7403 H 0.81992 0.98919 0.1021 0.0
H7404 H 0.83779 0.96682 0.13432 0.0
H7405 H 0.83705 0.95218 0.13456 0.0
H7406 H 0.82685 0.9601 0.14136 0.0
H7407 H 0.81178 0.95034 0.13041 0.0
H7408 H 0.82195 0.94236 0.12357 0.0
H7409 H 0.8124 0.9503 0.11586 0.0
H7410 H 0.83379 0.97828 0.09302 0.0
H7411 H 0.84812 0.96547 0.08714 0.0
H7412 H 0.84232 0.94574 0.11553 0.0
C7413 C 0.81194 0.97584 0.12965 0.0
C7414 C 0.80777 0.98621 0.12677 0.0
C7415 C 0.81057 0.99079 0.1167 0.0
C7416 C 0.81767 0.98547 0.10969 0.0
C7417 C 0.82192 0.9755 0.1128 0.0
C7418 C 0.81913 0.97058 0.12246 0.0
C7419 C 0.82524 0.95988 0.12374 0.0
C7420 C 0.83215 0.95975 0.13411 0.0
C7421 C 0.81737 0.95014 0.12338 0.0
C7422 C 0.83232 0.96006 0.11369 0.0
C7423 C 0.83004 0.96903 0.10739 0.0
C7424 C 0.83557 0.97114 0.0978 0.0
C7425 C 0.84366 0.96386 0.09451 0.0
C7426 C 0.84615 0.95468 0.10086 0.0
C7427 C 0.84042 0.95272 0.11054 0.0
H7428 H 0.32196 0.54206 0.356 0.0
H7429 H 0.30634 0.54956 0.38648 0.0
H7430 H 0.32403 0.55482 0.39427 0.0
H7431 H 0.34752 0.53169 0.36784 0.0
H7432 H 0.35615 0.53761 0.35768 0.0
H7433 H 0.34242 0.53366 0.35432 0.0
H7434 H 0.33841 0.55319 0.34759 0.0
H7435 H 0.35217 0.55709 0.35082 0.0
H7436 H 0.34094 0.56458 0.35647 0.0
H7437 H 0.34293 0.55744 0.39941 0.0
H7438 H 0.36208 0.56218 0.40086 0.0
H7439 H 0.36612 0.55645 0.36639 0.0
C7440 C 0.32234 0.54491 0.36428 0.0
C7441 C 0.31281 0.54548 0.3707 0.0
C7442 C 0.31354 0.54914 0.38148 0.0
C7443 C 0.32355 0.55204 0.38599 0.0
C7444 C 0.3328 0.55127 0.3796 0.0
C7445 C 0.33237 0.54804 0.36892 0.0
C7446 C 0.34367 0.54864 0.36387 0.0
C7447 C 0.34767 0.53722 0.36074 0.0
C7448 C 0.3438 0.55634 0.35411 0.0
C7449 C 0.35031 0.55318 0.37329 0.0
C7450 C 0.34385 0.55409 0.38234 0.0
C7451 C 0.34801 0.5572 0.39229 0.0
C7452 C 0.35895 0.56005 0.39296 0.0
C7453 C 0.36563 0.56048 0.38362 0.0
C7454 C 0.36129 0.55653 0.37368 0.0
H7455 H 0.30664 0.52646 0.90269 0.0
H7456 H 0.30749 0.53953 0.87023 0.0
H7457 H 0.32101 0.55333 0.87608 0.0
H7458 H 0.30974 0.5527 0.91703 0.0
H7459 H 0.31814 0.5468 0.92743 0.0
H7460 H 0.30801 0.53861 0.92068 0.0
H7461 H 0.32305 0.52471 0.91562 0.0
H7462 H 0.33317 0.53307 0.92216 0.0
H7463 H 0.33478 0.52929 0.90818 0.0
H7464 H 0.33501 0.56473 0.88497 0.0
H7465 H 0.34857 0.57383 0.89659 0.0
H7466 H 0.33872 0.55384 0.92369 0.0
C7467 C 0.30967 0.53229 0.89688 0.0
C7468 C 0.30619 0.53194 0.886 0.0
C7469 C 0.31018 0.53968 0.87857 0.0
C7470 C 0.3178 0.54754 0.88183 0.0
C7471 C 0.32119 0.5476 0.89259 0.0
C7472 C 0.31722 0.54026 0.90004 0.0
C7473 C 0.32254 0.5419 0.91101 0.0
C7474 C 0.3141 0.5452 0.91954 0.0
C7475 C 0.32876 0.53163 0.91444 0.0
C7476 C 0.33024 0.55123 0.90852 0.0
C7477 C 0.32927 0.55435 0.89783 0.0
C7478 C 0.33575 0.56246 0.89338 0.0
C7479 C 0.34342 0.56756 0.90002 0.0
C7480 C 0.34455 0.56458 0.91098 0.0
C7481 C 0.33786 0.55634 0.91535 0.0
H7482 H 0.70147 0.05501 0.16133 0.0
H7483 H 0.70617 0.03528 0.13257 0.0
H7484 H 0.68706 0.03811 0.12753 0.0
H7485 H 0.67337 0.04659 0.16686 0.0
H7486 H 0.66908 0.05999 0.17092 0.0
H7487 H 0.68297 0.05585 0.17299 0.0
H7488 H 0.68969 0.07259 0.16218 0.0
H7489 H 0.67582 0.0768 0.16018 0.0
H7490 H 0.68458 0.07483 0.1487 0.0
H7491 H 0.66812 0.04424 0.12453 0.0
H7492 H 0.65016 0.0532 0.12409 0.0
H7493 H 0.65717 0.06881 0.15474 0.0
C7494 C 0.69848 0.05119 0.15402 0.0
C7495 C 0.70541 0.04475 0.14744 0.0
C7496 C 0.70106 0.03997 0.13793 0.0
C7497 C 0.6902 0.04161 0.13493 0.0
C7498 C 0.68367 0.04804 0.14151 0.0
C7499 C 0.68759 0.05274 0.15088 0.0
C7500 C 0.67889 0.0597 0.1562 0.0
C7501 C 0.6759 0.05526 0.16741 0.0
C7502 C 0.68246 0.07169 0.15685 0.0
C7503 C 0.66957 0.05822 0.14828 0.0
C7504 C 0.67254 0.05146 0.13987 0.0
C7505 C 0.66563 0.04941 0.13116 0.0
C7506 C 0.65547 0.05451 0.13097 0.0
C7507 C 0.65228 0.06152 0.13946 0.0
C7508 C 0.65935 0.06326 0.1483 0.0
H7509 H 0.82125 0.98467 0.64458 0.0
H7510 H 0.80994 0.95495 0.66048 0.0
H7511 H 0.82768 0.94725 0.65843 0.0
H7512 H 0.83872 0.97287 0.62556 0.0
H7513 H 0.8496 0.98263 0.62702 0.0
H7514 H 0.83581 0.98661 0.62979 0.0
H7515 H 0.84153 0.99295 0.6489 0.0
H7516 H 0.85535 0.98899 0.64614 0.0
H7517 H 0.84842 0.9836 0.65777 0.0
H7518 H 0.8459 0.94176 0.65448 0.0
H7519 H 0.86477 0.93897 0.64863 0.0
H7520 H 0.86582 0.97178 0.63582 0.0
C7521 C 0.82226 0.97659 0.64779 0.0
C7522 C 0.81347 0.97057 0.65254 0.0
C7523 C 0.81586 0.95998 0.65652 0.0
C7524 C 0.82617 0.9554 0.65551 0.0
C7525 C 0.83435 0.96146 0.65074 0.0
C7526 C 0.83268 0.97187 0.64705 0.0
C7527 C 0.84321 0.97648 0.64233 0.0
C7528 C 0.84174 0.97984 0.63047 0.0
C7529 C 0.84737 0.98608 0.64919 0.0
C7530 C 0.85074 0.96669 0.64344 0.0
C7531 C 0.84537 0.95826 0.64854 0.0
C7532 C 0.85026 0.94829 0.65055 0.0
C7533 C 0.86096 0.94678 0.64721 0.0
C7534 C 0.86667 0.95513 0.64186 0.0
C7535 C 0.86157 0.9653 0.63998 0.0
loop_
_geom_bond_atom_site_label_1
_geom_bond_atom_site_label_2
_geom_bond_distance
_geom_bond_site_symmetry_2
_ccdc_geom_bond_type
C0 C1 1.264 . S
C0 C5 1.479 . S
C0 C10 1.465 . S
C1 C0 1.264 . S
C1 C3 1.339 . S
C1 H28 0.931 . S
C2 C3 1.395 . S
C2 C4 1.320 . S
C3 C1 1.339 . S
C3 C2 1.395 . S
C3 H29 0.929 . S
C4 C2 1.320 . S
C4 C5 1.405 . S
C4 H30 0.930 . S
C5 C0 1.479 . S
C5 C4 1.405 . S
C5 H31 0.931 . S
U6 O7 2.454 . S
U6 O8 2.458 . S
U6 C9 2.984 . S
U6 C10 2.847 1_455 S
U6 C23 2.882 . S
U6 O24 2.441 1_455 S
U6 O25 2.420 1_455 S
U6 O26 2.455 . S
U6 O27 2.449 . S
O7 U6 2.454 . S
O7 C9 1.353 . S
O8 U6 2.458 . S
O8 C9 1.286 . S
C9 U6 2.984 . S
C9 O7 1.353 . S
C9 O8 1.286 . S
C9 C11 1.363 . S
C10 C0 1.465 . S
C10 U6 2.847 1_655 S
C10 O24 1.249 . S
C10 O25 1.202 . S
C11 C9 1.363 . S
C11 C13 1.408 . S
C11 C16 1.342 . S
C12 C13 1.310 . S
C12 C15 1.461 . S
C12 H32 0.932 . S
C13 C11 1.408 . S
C13 C12 1.310 . S
C13 H33 0.930 . S
C14 C15 1.474 . S
C14 C16 1.285 . S
C14 H34 0.929 . S
C15 C12 1.461 . S
C15 C14 1.474 . S
C16 C11 1.342 . S
C16 C14 1.285 . S
C16 H35 0.930 . S
C17 C20 1.424 . S
C17 C22 1.245 . S
C17 C23 1.428 . S
C18 C21 1.260 . S
C18 C22 1.477 . S
C18 H36 0.932 . S
C19 C20 1.384 . S
C19 C21 1.479 . S
C19 H37 0.929 . S
C20 C17 1.424 . S
C20 C19 1.384 . S
C20 H38 0.928 . S
C21 C18 1.260 . S
C21 C19 1.479 . S
C22 C17 1.245 . S
C22 C18 1.477 . S
C22 H39 0.932 . S
C23 U6 2.882 . S
C23 C17 1.428 . S
C23 O26 1.301 . S
C23 O27 1.282 . S
O24 U6 2.441 1_655 S
O24 C10 1.249 . S
O25 U6 2.420 1_655 S
O25 C10 1.202 . S
O26 U6 2.455 . S
O26 C23 1.301 . S
O27 U6 2.449 . S
O27 C23 1.282 . S
H28 C1 0.931 . S
H29 C3 0.929 . S
H30 C4 0.930 . S
H31 C5 0.931 . S
H32 C12 0.932 . S
H33 C13 0.930 . S
H34 C14 0.929 . S
H35 C16 0.930 . S
H36 C18 0.932 . S
H37 C19 0.929 . S
H38 C20 0.928 . S
H39 C22 0.932 . S
C40 C41 1.264 . S
C40 C45 1.479 . S
C40 C50 1.465 . S
C41 C40 1.264 . S
C41 C43 1.339 . S
C41 H68 0.931 . S
C42 C43 1.395 . S
C42 C44 1.320 . S
C43 C41 1.339 . S
C43 C42 1.395 . S
C43 H69 0.929 . S
C44 C42 1.320 . S
C44 C45 1.405 . S
C44 H70 0.930 . S
C45 C40 1.479 . S
C45 C44 1.405 . S
C45 H71 0.931 . S
U46 O47 2.454 . S
U46 O48 2.458 . S
U46 C49 2.984 . S
U46 C50 2.847 . S
U46 C63 2.882 . S
U46 O64 2.441 . S
U46 O65 2.420 . S
U46 O66 2.455 . S
U46 O67 2.449 . S
O47 U46 2.454 . S
O47 C49 1.353 . S
O48 U46 2.458 . S
O48 C49 1.286 . S
C49 U46 2.984 . S
C49 O47 1.353 . S
C49 O48 1.286 . S
C49 C51 1.363 . S
C50 C40 1.465 . S
C50 U46 2.847 . S
C50 O64 1.249 . S
C50 O65 1.202 . S
C51 C49 1.363 . S
C51 C53 1.408 . S
C51 C56 1.342 . S
C52 C53 1.310 . S
C52 C55 1.461 . S
C52 H72 0.932 . S
C53 C51 1.408 . S
C53 C52 1.310 . S
C53 H73 0.930 . S
C54 C55 1.474 . S
C54 C56 1.285 . S
C54 H74 0.929 . S
C55 C52 1.461 . S
C55 C54 1.474 . S
C56 C51 1.342 . S
C56 C54 1.285 . S
C56 H75 0.930 . S
C57 C60 1.424 . S
C57 C62 1.245 . S
C57 C63 1.428 . S
C58 C61 1.260 . S
C58 C62 1.477 . S
C58 H76 0.932 . S
C59 C60 1.384 . S
C59 C61 1.479 . S
C59 H77 0.929 . S
C60 C57 1.424 . S
C60 C59 1.384 . S
C60 H78 0.928 . S
C61 C58 1.260 . S
C61 C59 1.479 . S
C62 C57 1.245 . S
C62 C58 1.477 . S
C62 H79 0.932 . S
C63 U46 2.882 . S
C63 C57 1.428 . S
C63 O66 1.301 . S
C63 O67 1.282 . S
O64 U46 2.441 . S
O64 C50 1.249 . S
O65 U46 2.420 . S
O65 C50 1.202 . S
O66 U46 2.455 . S
O66 C63 1.301 . S
O67 U46 2.449 . S
O67 C63 1.282 . S
H68 C41 0.931 . S
H69 C43 0.929 . S
H70 C44 0.930 . S
H71 C45 0.931 . S
H72 C52 0.932 . S
H73 C53 0.930 . S
H74 C54 0.929 . S
H75 C56 0.930 . S
H76 C58 0.932 . S
H77 C59 0.929 . S
H78 C60 0.928 . S
H79 C62 0.932 . S
C80 C81 1.264 . S
C80 C85 1.479 . S
C80 C90 1.465 . S
C81 C80 1.264 . S
C81 C83 1.339 . S
C81 H108 0.931 . S
C82 C83 1.395 . S
C82 C84 1.320 . S
C83 C81 1.339 . S
C83 C82 1.395 . S
C83 H109 0.929 . S
C84 C82 1.320 . S
C84 C85 1.405 . S
C84 H110 0.930 . S
C85 C80 1.479 . S
C85 C84 1.405 . S
C85 H111 0.931 . S
U86 O87 2.454 . S
U86 O88 2.458 . S
U86 C89 2.984 . S
U86 C90 2.847 . S
U86 C103 2.882 . S
U86 O104 2.441 . S
U86 O105 2.420 . S
U86 O106 2.455 . S
U86 O107 2.449 . S
O87 U86 2.454 . S
O87 C89 1.353 . S
O88 U86 2.458 . S
O88 C89 1.286 . S
C89 U86 2.984 . S
C89 O87 1.353 . S
C89 O88 1.286 . S
C89 C91 1.363 . S
C90 C80 1.465 . S
C90 U86 2.847 . S
C90 O104 1.249 . S
C90 O105 1.202 . S
C91 C89 1.363 . S
C91 C93 1.408 . S
C91 C96 1.342 . S
C92 C93 1.310 . S
C92 C95 1.461 . S
C92 H112 0.932 . S
C93 C91 1.408 . S
C93 C92 1.310 . S
C93 H113 0.930 . S
C94 C95 1.474 . S
C94 C96 1.285 . S
C94 H114 0.929 . S
C95 C92 1.461 . S
C95 C94 1.474 . S
C96 C91 1.342 . S
C96 C94 1.285 . S
C96 H115 0.930 . S
C97 C100 1.424 . S
C97 C102 1.245 . S
C97 C103 1.428 . S
C98 C101 1.260 . S
C98 C102 1.477 . S
C98 H116 0.932 . S
C99 C100 1.384 . S
C99 C101 1.479 . S
C99 H117 0.929 . S
C100 C97 1.424 . S
C100 C99 1.384 . S
C100 H118 0.928 . S
C101 C98 1.260 . S
C101 C99 1.479 . S
C102 C97 1.245 . S
C102 C98 1.477 . S
C102 H119 0.932 . S
C103 U86 2.882 . S
C103 C97 1.428 . S
C103 O106 1.301 . S
C103 O107 1.282 . S
O104 U86 2.441 . S
O104 C90 1.249 . S
O105 U86 2.420 . S
O105 C90 1.202 . S
O106 U86 2.455 . S
O106 C103 1.301 . S
O107 U86 2.449 . S
O107 C103 1.282 . S
H108 C81 0.931 . S
H109 C83 0.929 . S
H110 C84 0.930 . S
H111 C85 0.931 . S
H112 C92 0.932 . S
H113 C93 0.930 . S
H114 C94 0.929 . S
H115 C96 0.930 . S
H116 C98 0.932 . S
H117 C99 0.929 . S
H118 C100 0.928 . S
H119 C102 0.932 . S
C120 C121 1.264 . S
C120 C125 1.479 . S
C120 C130 1.465 . S
C121 C120 1.264 . S
C121 C123 1.339 . S
C121 H148 0.931 . S
C122 C123 1.395 . S
C122 C124 1.320 . S
C123 C121 1.339 . S
C123 C122 1.395 . S
C123 H149 0.929 . S
C124 C122 1.320 . S
C124 C125 1.405 . S
C124 H150 0.930 . S
C125 C120 1.479 . S
C125 C124 1.405 . S
C125 H151 0.931 . S
U126 O127 2.454 1_554 S
U126 O128 2.458 1_554 S
U126 C129 2.984 1_554 S
U126 C130 2.847 . S
U126 C143 2.882 . S
U126 O144 2.441 . S
U126 O145 2.420 . S
U126 O146 2.455 . S
U126 O147 2.449 . S
O127 U126 2.454 1_556 S
O127 C129 1.353 . S
O128 U126 2.458 1_556 S
O128 C129 1.286 . S
C129 U126 2.984 1_556 S
C129 O127 1.353 . S
C129 O128 1.286 . S
C129 C131 1.363 . S
C130 C120 1.465 . S
C130 U126 2.847 . S
C130 O144 1.249 . S
C130 O145 1.202 . S
C131 C129 1.363 . S
C131 C133 1.408 . S
C131 C136 1.342 . S
C132 C133 1.310 . S
C132 C135 1.461 . S
C132 H152 0.932 . S
C133 C131 1.408 . S
C133 C132 1.310 . S
C133 H153 0.930 . S
C134 C135 1.474 . S
C134 C136 1.285 . S
C134 H154 0.929 . S
C135 C132 1.461 . S
C135 C134 1.474 . S
C136 C131 1.342 . S
C136 C134 1.285 . S
C136 H155 0.930 . S
C137 C140 1.424 . S
C137 C142 1.245 . S
C137 C143 1.428 . S
C138 C141 1.260 . S
C138 C142 1.477 . S
C138 H156 0.932 . S
C139 C140 1.384 . S
C139 C141 1.479 . S
C139 H157 0.929 . S
C140 C137 1.424 . S
C140 C139 1.384 . S
C140 H158 0.928 . S
C141 C138 1.260 . S
C141 C139 1.479 . S
C142 C137 1.245 . S
C142 C138 1.477 . S
C142 H159 0.932 . S
C143 U126 2.882 . S
C143 C137 1.428 . S
C143 O146 1.301 . S
C143 O147 1.282 . S
O144 U126 2.441 . S
O144 C130 1.249 . S
O145 U126 2.420 . S
O145 C130 1.202 . S
O146 U126 2.455 . S
O146 C143 1.301 . S
O147 U126 2.449 . S
O147 C143 1.282 . S
H148 C121 0.931 . S
H149 C123 0.929 . S
H150 C124 0.930 . S
H151 C125 0.931 . S
H152 C132 0.932 . S
H153 C133 0.930 . S
H154 C134 0.929 . S
H155 C136 0.930 . S
H156 C138 0.932 . S
H157 C139 0.929 . S
H158 C140 0.928 . S
H159 C142 0.932 . S
C160 C161 1.264 . S
C160 C165 1.479 . S
C160 C170 1.465 . S
C161 C160 1.264 . S
C161 C163 1.339 . S
C161 H188 0.931 . S
C162 C163 1.395 . S
C162 C164 1.320 . S
C163 C161 1.339 . S
C163 C162 1.395 . S
C163 H189 0.929 . S
C164 C162 1.320 . S
C164 C165 1.405 . S
C164 H190 0.930 . S
C165 C160 1.479 . S
C165 C164 1.405 . S
C165 H191 0.931 . S
U166 O167 2.454 . S
U166 O168 2.458 . S
U166 C169 2.984 . S
U166 C170 2.847 1_455 S
U166 C183 2.882 . S
U166 O184 2.441 1_455 S
U166 O185 2.420 1_455 S
U166 O186 2.455 . S
U166 O187 2.449 . S
O167 U166 2.454 . S
O167 C169 1.353 . S
O168 U166 2.458 . S
O168 C169 1.286 . S
C169 U166 2.984 . S
C169 O167 1.353 . S
C169 O168 1.286 . S
C169 C171 1.363 . S
C170 C160 1.465 . S
C170 U166 2.847 1_655 S
C170 O184 1.249 . S
C170 O185 1.202 . S
C171 C169 1.363 . S
C171 C173 1.408 . S
C171 C176 1.342 . S
C172 C173 1.310 . S
C172 C175 1.461 . S
C172 H192 0.932 . S
C173 C171 1.408 . S
C173 C172 1.310 . S
C173 H193 0.930 . S
C174 C175 1.474 . S
C174 C176 1.285 . S
C174 H194 0.929 . S
C175 C172 1.461 . S
C175 C174 1.474 . S
C176 C171 1.342 . S
C176 C174 1.285 . S
C176 H195 0.930 . S
C177 C180 1.424 . S
C177 C182 1.245 . S
C177 C183 1.428 . S
C178 C181 1.260 . S
C178 C182 1.477 . S
C178 H196 0.932 . S
C179 C180 1.384 . S
C179 C181 1.479 . S
C179 H197 0.929 . S
C180 C177 1.424 . S
C180 C179 1.384 . S
C180 H198 0.928 . S
C181 C178 1.260 . S
C181 C179 1.479 . S
C182 C177 1.245 . S
C182 C178 1.477 . S
C182 H199 0.932 . S
C183 U166 2.882 . S
C183 C177 1.428 . S
C183 O186 1.301 . S
C183 O187 1.282 . S
O184 U166 2.441 1_655 S
O184 C170 1.249 . S
O185 U166 2.420 1_655 S
O185 C170 1.202 . S
O186 U166 2.455 . S
O186 C183 1.301 . S
O187 U166 2.449 . S
O187 C183 1.282 . S
H188 C161 0.931 . S
H189 C163 0.929 . S
H190 C164 0.930 . S
H191 C165 0.931 . S
H192 C172 0.932 . S
H193 C173 0.930 . S
H194 C174 0.929 . S
H195 C176 0.930 . S
H196 C178 0.932 . S
H197 C179 0.929 . S
H198 C180 0.928 . S
H199 C182 0.932 . S
C200 C201 1.264 . S
C200 C205 1.479 . S
C200 C210 1.465 . S
C201 C200 1.264 . S
C201 C203 1.339 . S
C201 H228 0.931 . S
C202 C203 1.395 . S
C202 C204 1.320 . S
C203 C201 1.339 . S
C203 C202 1.395 . S
C203 H229 0.929 . S
C204 C202 1.320 . S
C204 C205 1.405 . S
C204 H230 0.930 . S
C205 C200 1.479 . S
C205 C204 1.405 . S
C205 H231 0.931 . S
U206 O207 2.454 . S
U206 O208 2.458 . S
U206 C209 2.984 . S
U206 C210 2.847 . S
U206 C223 2.882 . S
U206 O224 2.441 . S
U206 O225 2.420 . S
U206 O226 2.455 . S
U206 O227 2.449 . S
O207 U206 2.454 . S
O207 C209 1.353 . S
O208 U206 2.458 . S
O208 C209 1.286 . S
C209 U206 2.984 . S
C209 O207 1.353 . S
C209 O208 1.286 . S
C209 C211 1.363 . S
C210 C200 1.465 . S
C210 U206 2.847 . S
C210 O224 1.249 . S
C210 O225 1.202 . S
C211 C209 1.363 . S
C211 C213 1.408 . S
C211 C216 1.342 . S
C212 C213 1.310 . S
C212 C215 1.461 . S
C212 H232 0.932 . S
C213 C211 1.408 . S
C213 C212 1.310 . S
C213 H233 0.930 . S
C214 C215 1.474 . S
C214 C216 1.285 . S
C214 H234 0.929 . S
C215 C212 1.461 . S
C215 C214 1.474 . S
C216 C211 1.342 . S
C216 C214 1.285 . S
C216 H235 0.930 . S
C217 C220 1.424 . S
C217 C222 1.245 . S
C217 C223 1.428 . S
C218 C221 1.260 . S
C218 C222 1.477 . S
C218 H236 0.932 . S
C219 C220 1.384 . S
C219 C221 1.479 . S
C219 H237 0.929 . S
C220 C217 1.424 . S
C220 C219 1.384 . S
C220 H238 0.928 . S
C221 C218 1.260 . S
C221 C219 1.479 . S
C222 C217 1.245 . S
C222 C218 1.477 . S
C222 H239 0.932 . S
C223 U206 2.882 . S
C223 C217 1.428 . S
C223 O226 1.301 . S
C223 O227 1.282 . S
O224 U206 2.441 . S
O224 C210 1.249 . S
O225 U206 2.420 . S
O225 C210 1.202 . S
O226 U206 2.455 . S
O226 C223 1.301 . S
O227 U206 2.449 . S
O227 C223 1.282 . S
H228 C201 0.931 . S
H229 C203 0.929 . S
H230 C204 0.930 . S
H231 C205 0.931 . S
H232 C212 0.932 . S
H233 C213 0.930 . S
H234 C214 0.929 . S
H235 C216 0.930 . S
H236 C218 0.932 . S
H237 C219 0.929 . S
H238 C220 0.928 . S
H239 C222 0.932 . S
C240 C241 1.264 . S
C240 C245 1.479 . S
C240 C250 1.465 . S
C241 C240 1.264 . S
C241 C243 1.339 . S
C241 H268 0.931 . S
C242 C243 1.395 . S
C242 C244 1.320 . S
C243 C241 1.339 . S
C243 C242 1.395 . S
C243 H269 0.929 . S
C244 C242 1.320 . S
C244 C245 1.405 . S
C244 H270 0.930 . S
C245 C240 1.479 . S
C245 C244 1.405 . S
C245 H271 0.931 . S
U246 O247 2.454 . S
U246 O248 2.458 . S
U246 C249 2.984 . S
U246 C250 2.847 . S
U246 C263 2.882 . S
U246 O264 2.441 . S
U246 O265 2.420 . S
U246 O266 2.455 . S
U246 O267 2.449 . S
O247 U246 2.454 . S
O247 C249 1.353 . S
O248 U246 2.458 . S
O248 C249 1.286 . S
C249 U246 2.984 . S
C249 O247 1.353 . S
C249 O248 1.286 . S
C249 C251 1.363 . S
C250 C240 1.465 . S
C250 U246 2.847 . S
C250 O264 1.249 . S
C250 O265 1.202 . S
C251 C249 1.363 . S
C251 C253 1.408 . S
C251 C256 1.342 . S
C252 C253 1.310 . S
C252 C255 1.461 . S
C252 H272 0.932 . S
C253 C251 1.408 . S
C253 C252 1.310 . S
C253 H273 0.930 . S
C254 C255 1.474 . S
C254 C256 1.285 . S
C254 H274 0.929 . S
C255 C252 1.461 . S
C255 C254 1.474 . S
C256 C251 1.342 . S
C256 C254 1.285 . S
C256 H275 0.930 . S
C257 C260 1.424 . S
C257 C262 1.245 . S
C257 C263 1.428 . S
C258 C261 1.260 . S
C258 C262 1.477 . S
C258 H276 0.932 . S
C259 C260 1.384 . S
C259 C261 1.479 . S
C259 H277 0.929 . S
C260 C257 1.424 . S
C260 C259 1.384 . S
C260 H278 0.928 . S
C261 C258 1.260 . S
C261 C259 1.479 . S
C262 C257 1.245 . S
C262 C258 1.477 . S
C262 H279 0.932 . S
C263 U246 2.882 . S
C263 C257 1.428 . S
C263 O266 1.301 . S
C263 O267 1.282 . S
O264 U246 2.441 . S
O264 C250 1.249 . S
O265 U246 2.420 . S
O265 C250 1.202 . S
O266 U246 2.455 . S
O266 C263 1.301 . S
O267 U246 2.449 . S
O267 C263 1.282 . S
H268 C241 0.931 . S
H269 C243 0.929 . S
H270 C244 0.930 . S
H271 C245 0.931 . S
H272 C252 0.932 . S
H273 C253 0.930 . S
H274 C254 0.929 . S
H275 C256 0.930 . S
H276 C258 0.932 . S
H277 C259 0.929 . S
H278 C260 0.928 . S
H279 C262 0.932 . S
C280 C281 1.264 . S
C280 C285 1.479 . S
C280 C290 1.465 . S
C281 C280 1.264 . S
C281 C283 1.339 . S
C281 H308 0.931 . S
C282 C283 1.395 . S
C282 C284 1.320 . S
C283 C281 1.339 . S
C283 C282 1.395 . S
C283 H309 0.929 . S
C284 C282 1.320 . S
C284 C285 1.405 . S
C284 H310 0.930 . S
C285 C280 1.479 . S
C285 C284 1.405 . S
C285 H311 0.931 . S
U286 O287 2.454 . S
U286 O288 2.458 . S
U286 C289 2.984 . S
U286 C290 2.847 1_556 S
U286 C303 2.882 . S
U286 O304 2.441 1_556 S
U286 O305 2.420 1_556 S
U286 O306 2.455 . S
U286 O307 2.449 . S
O287 U286 2.454 . S
O287 C289 1.353 . S
O288 U286 2.458 . S
O288 C289 1.286 . S
C289 U286 2.984 . S
C289 O287 1.353 . S
C289 O288 1.286 . S
C289 C291 1.363 . S
C290 C280 1.465 . S
C290 U286 2.847 1_554 S
C290 O304 1.249 . S
C290 O305 1.202 . S
C291 C289 1.363 . S
C291 C293 1.408 . S
C291 C296 1.342 . S
C292 C293 1.310 . S
C292 C295 1.461 . S
C292 H312 0.932 . S
C293 C291 1.408 . S
C293 C292 1.310 . S
C293 H313 0.930 . S
C294 C295 1.474 . S
C294 C296 1.285 . S
C294 H314 0.929 . S
C295 C292 1.461 . S
C295 C294 1.474 . S
C296 C291 1.342 . S
C296 C294 1.285 . S
C296 H315 0.930 . S
C297 C300 1.424 . S
C297 C302 1.245 . S
C297 C303 1.428 . S
C298 C301 1.260 . S
C298 C302 1.477 . S
C298 H316 0.932 . S
C299 C300 1.384 . S
C299 C301 1.479 . S
C299 H317 0.929 . S
C300 C297 1.424 . S
C300 C299 1.384 . S
C300 H318 0.928 . S
C301 C298 1.260 . S
C301 C299 1.479 . S
C302 C297 1.245 . S
C302 C298 1.477 . S
C302 H319 0.932 . S
C303 U286 2.882 . S
C303 C297 1.428 . S
C303 O306 1.301 . S
C303 O307 1.282 . S
O304 U286 2.441 1_554 S
O304 C290 1.249 . S
O305 U286 2.420 1_554 S
O305 C290 1.202 . S
O306 U286 2.455 . S
O306 C303 1.301 . S
O307 U286 2.449 . S
O307 C303 1.282 . S
H308 C281 0.931 . S
H309 C283 0.929 . S
H310 C284 0.930 . S
H311 C285 0.931 . S
H312 C292 0.932 . S
H313 C293 0.930 . S
H314 C294 0.929 . S
H315 C296 0.930 . S
H316 C298 0.932 . S
H317 C299 0.929 . S
H318 C300 0.928 . S
H319 C302 0.932 . S
C320 C321 1.264 . S
C320 C325 1.479 . S
C320 C330 1.465 . S
C321 C320 1.264 . S
C321 C323 1.339 . S
C321 H348 0.931 . S
C322 C323 1.395 . S
C322 C324 1.320 . S
C323 C321 1.339 . S
C323 C322 1.395 . S
C323 H349 0.929 . S
C324 C322 1.320 . S
C324 C325 1.405 . S
C324 H350 0.930 . S
C325 C320 1.479 . S
C325 C324 1.405 . S
C325 H351 0.931 . S
U326 O327 2.454 1_545 S
U326 O328 2.458 1_545 S
U326 C329 2.984 1_545 S
U326 C330 2.847 . S
U326 C343 2.882 . S
U326 O344 2.441 . S
U326 O345 2.420 . S
U326 O346 2.455 . S
U326 O347 2.449 . S
O327 U326 2.454 1_565 S
O327 C329 1.353 . S
O328 U326 2.458 1_565 S
O328 C329 1.286 . S
C329 U326 2.984 1_565 S
C329 O327 1.353 . S
C329 O328 1.286 . S
C329 C331 1.363 . S
C330 C320 1.465 . S
C330 U326 2.847 . S
C330 O344 1.249 . S
C330 O345 1.202 . S
C331 C329 1.363 . S
C331 C333 1.408 . S
C331 C336 1.342 . S
C332 C333 1.310 . S
C332 C335 1.461 . S
C332 H352 0.932 . S
C333 C331 1.408 . S
C333 C332 1.310 . S
C333 H353 0.930 . S
C334 C335 1.474 . S
C334 C336 1.285 . S
C334 H354 0.929 . S
C335 C332 1.461 . S
C335 C334 1.474 . S
C336 C331 1.342 . S
C336 C334 1.285 . S
C336 H355 0.930 . S
C337 C340 1.424 . S
C337 C342 1.245 . S
C337 C343 1.428 . S
C338 C341 1.260 . S
C338 C342 1.477 . S
C338 H356 0.932 . S
C339 C340 1.384 . S
C339 C341 1.479 . S
C339 H357 0.929 . S
C340 C337 1.424 . S
C340 C339 1.384 . S
C340 H358 0.928 . S
C341 C338 1.260 . S
C341 C339 1.479 . S
C342 C337 1.245 . S
C342 C338 1.477 . S
C342 H359 0.932 . S
C343 U326 2.882 . S
C343 C337 1.428 . S
C343 O346 1.301 . S
C343 O347 1.282 . S
O344 U326 2.441 . S
O344 C330 1.249 . S
O345 U326 2.420 . S
O345 C330 1.202 . S
O346 U326 2.455 . S
O346 C343 1.301 . S
O347 U326 2.449 . S
O347 C343 1.282 . S
H348 C321 0.931 . S
H349 C323 0.929 . S
H350 C324 0.930 . S
H351 C325 0.931 . S
H352 C332 0.932 . S
H353 C333 0.930 . S
H354 C334 0.929 . S
H355 C336 0.930 . S
H356 C338 0.932 . S
H357 C339 0.929 . S
H358 C340 0.928 . S
H359 C342 0.932 . S
C360 C361 1.264 . S
C360 C365 1.479 . S
C360 C370 1.465 . S
C361 C360 1.264 . S
C361 C363 1.339 . S
C361 H388 0.931 . S
C362 C363 1.395 . S
C362 C364 1.320 . S
C363 C361 1.339 . S
C363 C362 1.395 . S
C363 H389 0.929 . S
C364 C362 1.320 . S
C364 C365 1.405 . S
C364 H390 0.930 . S
C365 C360 1.479 . S
C365 C364 1.405 . S
C365 H391 0.931 . S
U366 O367 2.454 . S
U366 O368 2.458 . S
U366 C369 2.984 . S
U366 C370 2.847 1_545 S
U366 C383 2.882 . S
U366 O384 2.441 1_545 S
U366 O385 2.420 1_545 S
U366 O386 2.455 . S
U366 O387 2.449 . S
O367 U366 2.454 . S
O367 C369 1.353 . S
O368 U366 2.458 . S
O368 C369 1.286 . S
C369 U366 2.984 . S
C369 O367 1.353 . S
C369 O368 1.286 . S
C369 C371 1.363 . S
C370 C360 1.465 . S
C370 U366 2.847 1_565 S
C370 O384 1.249 . S
C370 O385 1.202 . S
C371 C369 1.363 . S
C371 C373 1.408 . S
C371 C376 1.342 . S
C372 C373 1.310 . S
C372 C375 1.461 . S
C372 H392 0.932 . S
C373 C371 1.408 . S
C373 C372 1.310 . S
C373 H393 0.930 . S
C374 C375 1.474 . S
C374 C376 1.285 . S
C374 H394 0.929 . S
C375 C372 1.461 . S
C375 C374 1.474 . S
C376 C371 1.342 . S
C376 C374 1.285 . S
C376 H395 0.930 . S
C377 C380 1.424 . S
C377 C382 1.245 . S
C377 C383 1.428 . S
C378 C381 1.260 . S
C378 C382 1.477 . S
C378 H396 0.932 . S
C379 C380 1.384 . S
C379 C381 1.479 . S
C379 H397 0.929 . S
C380 C377 1.424 . S
C380 C379 1.384 . S
C380 H398 0.928 . S
C381 C378 1.260 . S
C381 C379 1.479 . S
C382 C377 1.245 . S
C382 C378 1.477 . S
C382 H399 0.932 . S
C383 U366 2.882 . S
C383 C377 1.428 . S
C383 O386 1.301 . S
C383 O387 1.282 . S
O384 U366 2.441 1_565 S
O384 C370 1.249 . S
O385 U366 2.420 1_565 S
O385 C370 1.202 . S
O386 U366 2.455 . S
O386 C383 1.301 . S
O387 U366 2.449 . S
O387 C383 1.282 . S
H388 C361 0.931 . S
H389 C363 0.929 . S
H390 C364 0.930 . S
H391 C365 0.931 . S
H392 C372 0.932 . S
H393 C373 0.930 . S
H394 C374 0.929 . S
H395 C376 0.930 . S
H396 C378 0.932 . S
H397 C379 0.929 . S
H398 C380 0.928 . S
H399 C382 0.932 . S
C400 C401 1.264 . S
C400 C405 1.479 . S
C400 C410 1.465 . S
C401 C400 1.264 . S
C401 C403 1.339 . S
C401 H428 0.931 . S
C402 C403 1.395 . S
C402 C404 1.320 . S
C403 C401 1.339 . S
C403 C402 1.395 . S
C403 H429 0.929 . S
C404 C402 1.320 . S
C404 C405 1.405 . S
C404 H430 0.930 . S
C405 C400 1.479 . S
C405 C404 1.405 . S
C405 H431 0.931 . S
U406 O407 2.454 . S
U406 O408 2.458 . S
U406 C409 2.984 . S
U406 C410 2.847 1_565 S
U406 C423 2.882 . S
U406 O424 2.441 1_565 S
U406 O425 2.420 1_565 S
U406 O426 2.455 . S
U406 O427 2.449 . S
O407 U406 2.454 . S
O407 C409 1.353 . S
O408 U406 2.458 . S
O408 C409 1.286 . S
C409 U406 2.984 . S
C409 O407 1.353 . S
C409 O408 1.286 . S
C409 C411 1.363 . S
C410 C400 1.465 . S
C410 U406 2.847 1_545 S
C410 O424 1.249 . S
C410 O425 1.202 . S
C411 C409 1.363 . S
C411 C413 1.408 . S
C411 C416 1.342 . S
C412 C413 1.310 . S
C412 C415 1.461 . S
C412 H432 0.932 . S
C413 C411 1.408 . S
C413 C412 1.310 . S
C413 H433 0.930 . S
C414 C415 1.474 . S
C414 C416 1.285 . S
C414 H434 0.929 . S
C415 C412 1.461 . S
C415 C414 1.474 . S
C416 C411 1.342 . S
C416 C414 1.285 . S
C416 H435 0.930 . S
C417 C420 1.424 . S
C417 C422 1.245 . S
C417 C423 1.428 . S
C418 C421 1.260 . S
C418 C422 1.477 . S
C418 H436 0.932 . S
C419 C420 1.384 . S
C419 C421 1.479 . S
C419 H437 0.929 . S
C420 C417 1.424 . S
C420 C419 1.384 . S
C420 H438 0.928 . S
C421 C418 1.260 . S
C421 C419 1.479 . S
C422 C417 1.245 . S
C422 C418 1.477 . S
C422 H439 0.932 . S
C423 U406 2.882 . S
C423 C417 1.428 . S
C423 O426 1.301 . S
C423 O427 1.282 . S
O424 U406 2.441 1_545 S
O424 C410 1.249 . S
O425 U406 2.420 1_545 S
O425 C410 1.202 . S
O426 U406 2.455 . S
O426 C423 1.301 . S
O427 U406 2.449 . S
O427 C423 1.282 . S
H428 C401 0.931 . S
H429 C403 0.929 . S
H430 C404 0.930 . S
H431 C405 0.931 . S
H432 C412 0.932 . S
H433 C413 0.930 . S
H434 C414 0.929 . S
H435 C416 0.930 . S
H436 C418 0.932 . S
H437 C419 0.929 . S
H438 C420 0.928 . S
H439 C422 0.932 . S
C440 C441 1.264 . S
C440 C445 1.479 . S
C440 C450 1.465 . S
C441 C440 1.264 . S
C441 C443 1.339 . S
C441 H468 0.931 . S
C442 C443 1.395 . S
C442 C444 1.320 . S
C443 C441 1.339 . S
C443 C442 1.395 . S
C443 H469 0.929 . S
C444 C442 1.320 . S
C444 C445 1.405 . S
C444 H470 0.930 . S
C445 C440 1.479 . S
C445 C444 1.405 . S
C445 H471 0.931 . S
U446 O447 2.454 1_565 S
U446 O448 2.458 1_565 S
U446 C449 2.984 1_565 S
U446 C450 2.847 . S
U446 C463 2.882 . S
U446 O464 2.441 . S
U446 O465 2.420 . S
U446 O466 2.455 . S
U446 O467 2.449 . S
O447 U446 2.454 1_545 S
O447 C449 1.353 . S
O448 U446 2.458 1_545 S
O448 C449 1.286 . S
C449 U446 2.984 1_545 S
C449 O447 1.353 . S
C449 O448 1.286 . S
C449 C451 1.363 . S
C450 C440 1.465 . S
C450 U446 2.847 . S
C450 O464 1.249 . S
C450 O465 1.202 . S
C451 C449 1.363 . S
C451 C453 1.408 . S
C451 C456 1.342 . S
C452 C453 1.310 . S
C452 C455 1.461 . S
C452 H472 0.932 . S
C453 C451 1.408 . S
C453 C452 1.310 . S
C453 H473 0.930 . S
C454 C455 1.474 . S
C454 C456 1.285 . S
C454 H474 0.929 . S
C455 C452 1.461 . S
C455 C454 1.474 . S
C456 C451 1.342 . S
C456 C454 1.285 . S
C456 H475 0.930 . S
C457 C460 1.424 . S
C457 C462 1.245 . S
C457 C463 1.428 . S
C458 C461 1.260 . S
C458 C462 1.477 . S
C458 H476 0.932 . S
C459 C460 1.384 . S
C459 C461 1.479 . S
C459 H477 0.929 . S
C460 C457 1.424 . S
C460 C459 1.384 . S
C460 H478 0.928 . S
C461 C458 1.260 . S
C461 C459 1.479 . S
C462 C457 1.245 . S
C462 C458 1.477 . S
C462 H479 0.932 . S
C463 U446 2.882 . S
C463 C457 1.428 . S
C463 O466 1.301 . S
C463 O467 1.282 . S
O464 U446 2.441 . S
O464 C450 1.249 . S
O465 U446 2.420 . S
O465 C450 1.202 . S
O466 U446 2.455 . S
O466 C463 1.301 . S
O467 U446 2.449 . S
O467 C463 1.282 . S
H468 C441 0.931 . S
H469 C443 0.929 . S
H470 C444 0.930 . S
H471 C445 0.931 . S
H472 C452 0.932 . S
H473 C453 0.930 . S
H474 C454 0.929 . S
H475 C456 0.930 . S
H476 C458 0.932 . S
H477 C459 0.929 . S
H478 C460 0.928 . S
H479 C462 0.932 . S
C480 C481 1.264 . S
C480 C485 1.479 . S
C480 C490 1.465 . S
C481 C480 1.264 . S
C481 C483 1.339 . S
C481 H508 0.931 . S
C482 C483 1.395 . S
C482 C484 1.320 . S
C483 C481 1.339 . S
C483 C482 1.395 . S
C483 H509 0.929 . S
C484 C482 1.320 . S
C484 C485 1.405 . S
C484 H510 0.930 . S
C485 C480 1.479 . S
C485 C484 1.405 . S
C485 H511 0.931 . S
U486 O487 2.454 1_554 S
U486 O488 2.458 1_554 S
U486 C489 2.984 1_554 S
U486 C490 2.847 . S
U486 C503 2.882 . S
U486 O504 2.441 . S
U486 O505 2.420 . S
U486 O506 2.455 . S
U486 O507 2.449 . S
O487 U486 2.454 1_556 S
O487 C489 1.353 . S
O488 U486 2.458 1_556 S
O488 C489 1.286 . S
C489 U486 2.984 1_556 S
C489 O487 1.353 . S
C489 O488 1.286 . S
C489 C491 1.363 . S
C490 C480 1.465 . S
C490 U486 2.847 . S
C490 O504 1.249 . S
C490 O505 1.202 . S
C491 C489 1.363 . S
C491 C493 1.408 . S
C491 C496 1.342 . S
C492 C493 1.310 . S
C492 C495 1.461 . S
C492 H512 0.932 . S
C493 C491 1.408 . S
C493 C492 1.310 . S
C493 H513 0.930 . S
C494 C495 1.474 . S
C494 C496 1.285 . S
C494 H514 0.929 . S
C495 C492 1.461 . S
C495 C494 1.474 . S
C496 C491 1.342 . S
C496 C494 1.285 . S
C496 H515 0.930 . S
C497 C500 1.424 . S
C497 C502 1.245 . S
C497 C503 1.428 . S
C498 C501 1.260 . S
C498 C502 1.477 . S
C498 H516 0.932 . S
C499 C500 1.384 . S
C499 C501 1.479 . S
C499 H517 0.929 . S
C500 C497 1.424 . S
C500 C499 1.384 . S
C500 H518 0.928 . S
C501 C498 1.260 . S
C501 C499 1.479 . S
C502 C497 1.245 . S
C502 C498 1.477 . S
C502 H519 0.932 . S
C503 U486 2.882 . S
C503 C497 1.428 . S
C503 O506 1.301 . S
C503 O507 1.282 . S
O504 U486 2.441 . S
O504 C490 1.249 . S
O505 U486 2.420 . S
O505 C490 1.202 . S
O506 U486 2.455 . S
O506 C503 1.301 . S
O507 U486 2.449 . S
O507 C503 1.282 . S
H508 C481 0.931 . S
H509 C483 0.929 . S
H510 C484 0.930 . S
H511 C485 0.931 . S
H512 C492 0.932 . S
H513 C493 0.930 . S
H514 C494 0.929 . S
H515 C496 0.930 . S
H516 C498 0.932 . S
H517 C499 0.929 . S
H518 C500 0.928 . S
H519 C502 0.932 . S
C520 C521 1.264 . S
C520 C525 1.479 . S
C520 C530 1.465 . S
C521 C520 1.264 . S
C521 C523 1.339 . S
C521 H548 0.931 . S
C522 C523 1.395 . S
C522 C524 1.320 . S
C523 C521 1.339 . S
C523 C522 1.395 . S
C523 H549 0.929 . S
C524 C522 1.320 . S
C524 C525 1.405 . S
C524 H550 0.930 . S
C525 C520 1.479 . S
C525 C524 1.405 . S
C525 H551 0.931 . S
U526 O527 2.454 . S
U526 O528 2.458 . S
U526 C529 2.984 . S
U526 C530 2.847 1_655 S
U526 C543 2.882 . S
U526 O544 2.441 1_655 S
U526 O545 2.420 1_655 S
U526 O546 2.455 . S
U526 O547 2.449 . S
O527 U526 2.454 . S
O527 C529 1.353 . S
O528 U526 2.458 . S
O528 C529 1.286 . S
C529 U526 2.984 . S
C529 O527 1.353 . S
C529 O528 1.286 . S
C529 C531 1.363 . S
C530 C520 1.465 . S
C530 U526 2.847 1_455 S
C530 O544 1.249 . S
C530 O545 1.202 . S
C531 C529 1.363 . S
C531 C533 1.408 . S
C531 C536 1.342 . S
C532 C533 1.310 . S
C532 C535 1.461 . S
C532 H552 0.932 . S
C533 C531 1.408 . S
C533 C532 1.310 . S
C533 H553 0.930 . S
C534 C535 1.474 . S
C534 C536 1.285 . S
C534 H554 0.929 . S
C535 C532 1.461 . S
C535 C534 1.474 . S
C536 C531 1.342 . S
C536 C534 1.285 . S
C536 H555 0.930 . S
C537 C540 1.424 . S
C537 C542 1.245 . S
C537 C543 1.428 . S
C538 C541 1.260 . S
C538 C542 1.477 . S
C538 H556 0.932 . S
C539 C540 1.384 . S
C539 C541 1.479 . S
C539 H557 0.929 . S
C540 C537 1.424 . S
C540 C539 1.384 . S
C540 H558 0.928 . S
C541 C538 1.260 . S
C541 C539 1.479 . S
C542 C537 1.245 . S
C542 C538 1.477 . S
C542 H559 0.932 . S
C543 U526 2.882 . S
C543 C537 1.428 . S
C543 O546 1.301 . S
C543 O547 1.282 . S
O544 U526 2.441 1_455 S
O544 C530 1.249 . S
O545 U526 2.420 1_455 S
O545 C530 1.202 . S
O546 U526 2.455 . S
O546 C543 1.301 . S
O547 U526 2.449 . S
O547 C543 1.282 . S
H548 C521 0.931 . S
H549 C523 0.929 . S
H550 C524 0.930 . S
H551 C525 0.931 . S
H552 C532 0.932 . S
H553 C533 0.930 . S
H554 C534 0.929 . S
H555 C536 0.930 . S
H556 C538 0.932 . S
H557 C539 0.929 . S
H558 C540 0.928 . S
H559 C542 0.932 . S
C560 C561 1.264 . S
C560 C565 1.479 . S
C560 C570 1.465 . S
C561 C560 1.264 . S
C561 C563 1.339 . S
C561 H588 0.931 . S
C562 C563 1.395 . S
C562 C564 1.320 . S
C563 C561 1.339 . S
C563 C562 1.395 . S
C563 H589 0.929 . S
C564 C562 1.320 . S
C564 C565 1.405 . S
C564 H590 0.930 . S
C565 C560 1.479 . S
C565 C564 1.405 . S
C565 H591 0.931 . S
U566 O567 2.454 . S
U566 O568 2.458 . S
U566 C569 2.984 . S
U566 C570 2.847 . S
U566 C583 2.882 . S
U566 O584 2.441 . S
U566 O585 2.420 . S
U566 O586 2.455 . S
U566 O587 2.449 . S
O567 U566 2.454 . S
O567 C569 1.353 . S
O568 U566 2.458 . S
O568 C569 1.286 . S
C569 U566 2.984 . S
C569 O567 1.353 . S
C569 O568 1.286 . S
C569 C571 1.363 . S
C570 C560 1.465 . S
C570 U566 2.847 . S
C570 O584 1.249 . S
C570 O585 1.202 . S
C571 C569 1.363 . S
C571 C573 1.408 . S
C571 C576 1.342 . S
C572 C573 1.310 . S
C572 C575 1.461 . S
C572 H592 0.932 . S
C573 C571 1.408 . S
C573 C572 1.310 . S
C573 H593 0.930 . S
C574 C575 1.474 . S
C574 C576 1.285 . S
C574 H594 0.929 . S
C575 C572 1.461 . S
C575 C574 1.474 . S
C576 C571 1.342 . S
C576 C574 1.285 . S
C576 H595 0.930 . S
C577 C580 1.424 . S
C577 C582 1.245 . S
C577 C583 1.428 . S
C578 C581 1.260 . S
C578 C582 1.477 . S
C578 H596 0.932 . S
C579 C580 1.384 . S
C579 C581 1.479 . S
C579 H597 0.929 . S
C580 C577 1.424 . S
C580 C579 1.384 . S
C580 H598 0.928 . S
C581 C578 1.260 . S
C581 C579 1.479 . S
C582 C577 1.245 . S
C582 C578 1.477 . S
C582 H599 0.932 . S
C583 U566 2.882 . S
C583 C577 1.428 . S
C583 O586 1.301 . S
C583 O587 1.282 . S
O584 U566 2.441 . S
O584 C570 1.249 . S
O585 U566 2.420 . S
O585 C570 1.202 . S
O586 U566 2.455 . S
O586 C583 1.301 . S
O587 U566 2.449 . S
O587 C583 1.282 . S
H588 C561 0.931 . S
H589 C563 0.929 . S
H590 C564 0.930 . S
H591 C565 0.931 . S
H592 C572 0.932 . S
H593 C573 0.930 . S
H594 C574 0.929 . S
H595 C576 0.930 . S
H596 C578 0.932 . S
H597 C579 0.929 . S
H598 C580 0.928 . S
H599 C582 0.932 . S
C600 C601 1.264 . S
C600 C605 1.479 . S
C600 C610 1.465 . S
C601 C600 1.264 . S
C601 C603 1.339 . S
C601 H628 0.931 . S
C602 C603 1.395 . S
C602 C604 1.320 . S
C603 C601 1.339 . S
C603 C602 1.395 . S
C603 H629 0.929 . S
C604 C602 1.320 . S
C604 C605 1.405 . S
C604 H630 0.930 . S
C605 C600 1.479 . S
C605 C604 1.405 . S
C605 H631 0.931 . S
U606 O607 2.454 . S
U606 O608 2.458 . S
U606 C609 2.984 . S
U606 C610 2.847 . S
U606 C623 2.882 . S
U606 O624 2.441 . S
U606 O625 2.420 . S
U606 O626 2.455 . S
U606 O627 2.449 . S
O607 U606 2.454 . S
O607 C609 1.353 . S
O608 U606 2.458 . S
O608 C609 1.286 . S
C609 U606 2.984 . S
C609 O607 1.353 . S
C609 O608 1.286 . S
C609 C611 1.363 1_655 S
C610 C600 1.465 . S
C610 U606 2.847 . S
C610 O624 1.249 . S
C610 O625 1.202 . S
C611 C609 1.363 1_455 S
C611 C613 1.408 . S
C611 C616 1.342 . S
C612 C613 1.310 . S
C612 C615 1.461 . S
C612 H632 0.932 . S
C613 C611 1.408 . S
C613 C612 1.310 . S
C613 H633 0.930 . S
C614 C615 1.474 . S
C614 C616 1.285 . S
C614 H634 0.929 . S
C615 C612 1.461 . S
C615 C614 1.474 . S
C616 C611 1.342 . S
C616 C614 1.285 . S
C616 H635 0.930 1_455 S
C617 C620 1.424 . S
C617 C622 1.245 . S
C617 C623 1.428 . S
C618 C621 1.260 . S
C618 C622 1.477 . S
C618 H636 0.932 . S
C619 C620 1.384 . S
C619 C621 1.479 . S
C619 H637 0.929 . S
C620 C617 1.424 . S
C620 C619 1.384 . S
C620 H638 0.928 . S
C621 C618 1.260 . S
C621 C619 1.479 . S
C622 C617 1.245 . S
C622 C618 1.477 . S
C622 H639 0.932 . S
C623 U606 2.882 . S
C623 C617 1.428 . S
C623 O626 1.301 . S
C623 O627 1.282 . S
O624 U606 2.441 . S
O624 C610 1.249 . S
O625 U606 2.420 . S
O625 C610 1.202 . S
O626 U606 2.455 . S
O626 C623 1.301 . S
O627 U606 2.449 . S
O627 C623 1.282 . S
H628 C601 0.931 . S
H629 C603 0.929 . S
H630 C604 0.930 . S
H631 C605 0.931 . S
H632 C612 0.932 . S
H633 C613 0.930 . S
H634 C614 0.929 . S
H635 C616 0.930 1_655 S
H636 C618 0.932 . S
H637 C619 0.929 . S
H638 C620 0.928 . S
H639 C622 0.932 . S
C640 C641 1.264 . S
C640 C645 1.479 . S
C640 C650 1.465 . S
C641 C640 1.264 . S
C641 C643 1.339 . S
C641 H668 0.931 . S
C642 C643 1.395 . S
C642 C644 1.320 . S
C643 C641 1.339 . S
C643 C642 1.395 . S
C643 H669 0.929 . S
C644 C642 1.320 . S
C644 C645 1.405 . S
C644 H670 0.930 . S
C645 C640 1.479 . S
C645 C644 1.405 . S
C645 H671 0.931 . S
U646 O647 2.454 . S
U646 O648 2.458 . S
U646 C649 2.984 . S
U646 C650 2.847 . S
U646 C663 2.882 . S
U646 O664 2.441 . S
U646 O665 2.420 . S
U646 O666 2.455 . S
U646 O667 2.449 . S
O647 U646 2.454 . S
O647 C649 1.353 . S
O648 U646 2.458 . S
O648 C649 1.286 . S
C649 U646 2.984 . S
C649 O647 1.353 . S
C649 O648 1.286 . S
C649 C651 1.363 . S
C650 C640 1.465 . S
C650 U646 2.847 . S
C650 O664 1.249 . S
C650 O665 1.202 . S
C651 C649 1.363 . S
C651 C653 1.408 . S
C651 C656 1.342 . S
C652 C653 1.310 . S
C652 C655 1.461 . S
C652 H672 0.932 . S
C653 C651 1.408 . S
C653 C652 1.310 . S
C653 H673 0.930 . S
C654 C655 1.474 . S
C654 C656 1.285 . S
C654 H674 0.929 . S
C655 C652 1.461 . S
C655 C654 1.474 . S
C656 C651 1.342 . S
C656 C654 1.285 . S
C656 H675 0.930 . S
C657 C660 1.424 . S
C657 C662 1.245 . S
C657 C663 1.428 . S
C658 C661 1.260 . S
C658 C662 1.477 . S
C658 H676 0.932 . S
C659 C660 1.384 . S
C659 C661 1.479 . S
C659 H677 0.929 . S
C660 C657 1.424 . S
C660 C659 1.384 . S
C660 H678 0.928 . S
C661 C658 1.260 . S
C661 C659 1.479 . S
C662 C657 1.245 . S
C662 C658 1.477 . S
C662 H679 0.932 . S
C663 U646 2.882 . S
C663 C657 1.428 . S
C663 O666 1.301 . S
C663 O667 1.282 . S
O664 U646 2.441 . S
O664 C650 1.249 . S
O665 U646 2.420 . S
O665 C650 1.202 . S
O666 U646 2.455 . S
O666 C663 1.301 . S
O667 U646 2.449 . S
O667 C663 1.282 . S
H668 C641 0.931 . S
H669 C643 0.929 . S
H670 C644 0.930 . S
H671 C645 0.931 . S
H672 C652 0.932 . S
H673 C653 0.930 . S
H674 C654 0.929 . S
H675 C656 0.930 . S
H676 C658 0.932 . S
H677 C659 0.929 . S
H678 C660 0.928 . S
H679 C662 0.932 . S
C680 C681 1.264 . S
C680 C685 1.479 . S
C680 C690 1.465 . S
C681 C680 1.264 . S
C681 C683 1.339 . S
C681 H708 0.931 . S
C682 C683 1.395 . S
C682 C684 1.320 . S
C683 C681 1.339 . S
C683 C682 1.395 . S
C683 H709 0.929 . S
C684 C682 1.320 . S
C684 C685 1.405 . S
C684 H710 0.930 . S
C685 C680 1.479 . S
C685 C684 1.405 . S
C685 H711 0.931 . S
U686 O687 2.454 . S
U686 O688 2.458 . S
U686 C689 2.984 . S
U686 C690 2.847 . S
U686 C703 2.882 . S
U686 O704 2.441 . S
U686 O705 2.420 . S
U686 O706 2.455 . S
U686 O707 2.449 . S
O687 U686 2.454 . S
O687 C689 1.353 . S
O688 U686 2.458 . S
O688 C689 1.286 . S
C689 U686 2.984 . S
C689 O687 1.353 . S
C689 O688 1.286 . S
C689 C691 1.363 . S
C690 C680 1.465 . S
C690 U686 2.847 . S
C690 O704 1.249 . S
C690 O705 1.202 . S
C691 C689 1.363 . S
C691 C693 1.408 . S
C691 C696 1.342 . S
C692 C693 1.310 . S
C692 C695 1.461 . S
C692 H712 0.932 . S
C693 C691 1.408 . S
C693 C692 1.310 . S
C693 H713 0.930 . S
C694 C695 1.474 . S
C694 C696 1.285 . S
C694 H714 0.929 . S
C695 C692 1.461 . S
C695 C694 1.474 . S
C696 C691 1.342 . S
C696 C694 1.285 . S
C696 H715 0.930 . S
C697 C700 1.424 . S
C697 C702 1.245 . S
C697 C703 1.428 . S
C698 C701 1.260 . S
C698 C702 1.477 . S
C698 H716 0.932 . S
C699 C700 1.384 . S
C699 C701 1.479 . S
C699 H717 0.929 . S
C700 C697 1.424 . S
C700 C699 1.384 . S
C700 H718 0.928 . S
C701 C698 1.260 . S
C701 C699 1.479 . S
C702 C697 1.245 . S
C702 C698 1.477 . S
C702 H719 0.932 . S
C703 U686 2.882 . S
C703 C697 1.428 . S
C703 O706 1.301 . S
C703 O707 1.282 . S
O704 U686 2.441 . S
O704 C690 1.249 . S
O705 U686 2.420 . S
O705 C690 1.202 . S
O706 U686 2.455 . S
O706 C703 1.301 . S
O707 U686 2.449 . S
O707 C703 1.282 . S
H708 C681 0.931 . S
H709 C683 0.929 . S
H710 C684 0.930 . S
H711 C685 0.931 . S
H712 C692 0.932 . S
H713 C693 0.930 . S
H714 C694 0.929 . S
H715 C696 0.930 . S
H716 C698 0.932 . S
H717 C699 0.929 . S
H718 C700 0.928 . S
H719 C702 0.932 . S
C720 C721 1.264 . S
C720 C725 1.479 . S
C720 C730 1.465 . S
C721 C720 1.264 . S
C721 C723 1.339 . S
C721 H748 0.931 . S
C722 C723 1.395 . S
C722 C724 1.320 . S
C723 C721 1.339 . S
C723 C722 1.395 . S
C723 H749 0.929 . S
C724 C722 1.320 . S
C724 C725 1.405 . S
C724 H750 0.930 . S
C725 C720 1.479 . S
C725 C724 1.405 . S
C725 H751 0.931 . S
U726 O727 2.454 . S
U726 O728 2.458 . S
U726 C729 2.984 . S
U726 C730 2.847 . S
U726 C743 2.882 . S
U726 O744 2.441 . S
U726 O745 2.420 . S
U726 O746 2.455 . S
U726 O747 2.449 . S
O727 U726 2.454 . S
O727 C729 1.353 . S
O728 U726 2.458 . S
O728 C729 1.286 . S
C729 U726 2.984 . S
C729 O727 1.353 . S
C729 O728 1.286 . S
C729 C731 1.363 1_556 S
C730 C720 1.465 . S
C730 U726 2.847 . S
C730 O744 1.249 . S
C730 O745 1.202 . S
C731 C729 1.363 1_554 S
C731 C733 1.408 . S
C731 C736 1.342 . S
C732 C733 1.310 . S
C732 C735 1.461 . S
C732 H752 0.932 . S
C733 C731 1.408 . S
C733 C732 1.310 . S
C733 H753 0.930 . S
C734 C735 1.474 . S
C734 C736 1.285 . S
C734 H754 0.929 . S
C735 C732 1.461 . S
C735 C734 1.474 . S
C736 C731 1.342 . S
C736 C734 1.285 . S
C736 H755 0.930 1_554 S
C737 C740 1.424 . S
C737 C742 1.245 . S
C737 C743 1.428 . S
C738 C741 1.260 . S
C738 C742 1.477 . S
C738 H756 0.932 . S
C739 C740 1.384 . S
C739 C741 1.479 . S
C739 H757 0.929 . S
C740 C737 1.424 . S
C740 C739 1.384 . S
C740 H758 0.928 . S
C741 C738 1.260 . S
C741 C739 1.479 . S
C742 C737 1.245 . S
C742 C738 1.477 . S
C742 H759 0.932 . S
C743 U726 2.882 . S
C743 C737 1.428 . S
C743 O746 1.301 . S
C743 O747 1.282 . S
O744 U726 2.441 . S
O744 C730 1.249 . S
O745 U726 2.420 . S
O745 C730 1.202 . S
O746 U726 2.455 . S
O746 C743 1.301 . S
O747 U726 2.449 . S
O747 C743 1.282 . S
H748 C721 0.931 . S
H749 C723 0.929 . S
H750 C724 0.930 . S
H751 C725 0.931 . S
H752 C732 0.932 . S
H753 C733 0.930 . S
H754 C734 0.929 . S
H755 C736 0.930 1_556 S
H756 C738 0.932 . S
H757 C739 0.929 . S
H758 C740 0.928 . S
H759 C742 0.932 . S
C760 C761 1.263 . S
C760 C765 1.493 . S
C760 C770 1.451 1_455 S
C761 C760 1.263 . S
C761 C763 1.402 . S
C761 H788 0.872 1_455 S
C762 C763 1.395 . S
C762 C764 1.320 . S
C763 C761 1.402 . S
C763 C762 1.395 . S
C763 H789 0.929 . S
C764 C762 1.320 . S
C764 C765 1.405 . S
C764 H790 0.930 . S
C765 C760 1.493 . S
C765 C764 1.405 . S
C765 H791 0.931 . S
U766 O767 2.454 . S
U766 O768 2.458 . S
U766 C769 2.984 . S
U766 C770 2.847 . S
U766 C783 2.882 . S
U766 O784 2.441 . S
U766 O785 2.420 . S
U766 O786 2.455 . S
U766 O787 2.449 . S
O767 U766 2.454 . S
O767 C769 1.353 . S
O768 U766 2.458 . S
O768 C769 1.286 . S
C769 U766 2.984 . S
C769 O767 1.353 . S
C769 O768 1.286 . S
C769 C771 1.363 . S
C770 C760 1.451 1_655 S
C770 U766 2.847 . S
C770 O784 1.249 . S
C770 O785 1.202 . S
C771 C769 1.363 . S
C771 C773 1.408 . S
C771 C776 1.342 . S
C772 C773 1.310 . S
C772 C775 1.461 . S
C772 H792 0.932 . S
C773 C771 1.408 . S
C773 C772 1.310 . S
C773 H793 0.930 . S
C774 C775 1.474 . S
C774 C776 1.285 . S
C774 H794 0.929 . S
C775 C772 1.461 . S
C775 C774 1.474 . S
C776 C771 1.342 . S
C776 C774 1.285 . S
C776 H795 0.930 . S
C777 C780 1.424 . S
C777 C782 1.245 . S
C777 C783 1.428 . S
C778 C781 1.260 . S
C778 C782 1.477 . S
C778 H796 0.932 . S
C779 C780 1.384 . S
C779 C781 1.479 . S
C779 H797 0.929 . S
C780 C777 1.424 . S
C780 C779 1.384 . S
C780 H798 0.928 . S
C781 C778 1.260 . S
C781 C779 1.479 . S
C782 C777 1.245 . S
C782 C778 1.477 . S
C782 H799 0.932 . S
C783 U766 2.882 . S
C783 C777 1.428 . S
C783 O786 1.301 . S
C783 O787 1.282 . S
O784 U766 2.441 . S
O784 C770 1.249 . S
O785 U766 2.420 . S
O785 C770 1.202 . S
O786 U766 2.455 . S
O786 C783 1.301 . S
O787 U766 2.449 . S
O787 C783 1.282 . S
H788 C761 0.872 1_655 S
H789 C763 0.929 . S
H790 C764 0.930 . S
H791 C765 0.931 . S
H792 C772 0.932 . S
H793 C773 0.930 . S
H794 C774 0.929 . S
H795 C776 0.930 . S
H796 C778 0.932 . S
H797 C779 0.929 . S
H798 C780 0.928 . S
H799 C782 0.932 . S
C800 C801 1.264 . S
C800 C805 1.479 . S
C800 C810 1.465 . S
C801 C800 1.264 . S
C801 C803 1.339 . S
C801 H828 0.931 . S
C802 C803 1.395 . S
C802 C804 1.320 . S
C803 C801 1.339 . S
C803 C802 1.395 . S
C803 H829 0.929 . S
C804 C802 1.320 . S
C804 C805 1.405 . S
C804 H830 0.930 . S
C805 C800 1.479 . S
C805 C804 1.405 . S
C805 H831 0.931 . S
U806 O807 2.454 . S
U806 O808 2.458 . S
U806 C809 2.984 . S
U806 C810 2.847 . S
U806 C823 2.882 . S
U806 O824 2.441 . S
U806 O825 2.420 . S
U806 O826 2.455 . S
U806 O827 2.449 . S
O807 U806 2.454 . S
O807 C809 1.353 . S
O808 U806 2.458 . S
O808 C809 1.286 . S
C809 U806 2.984 . S
C809 O807 1.353 . S
C809 O808 1.286 . S
C809 C811 1.363 . S
C810 C800 1.465 . S
C810 U806 2.847 . S
C810 O824 1.249 . S
C810 O825 1.202 . S
C811 C809 1.363 . S
C811 C813 1.408 . S
C811 C816 1.342 . S
C812 C813 1.310 . S
C812 C815 1.461 . S
C812 H832 0.932 . S
C813 C811 1.408 . S
C813 C812 1.310 . S
C813 H833 0.930 . S
C814 C815 1.474 . S
C814 C816 1.285 . S
C814 H834 0.929 . S
C815 C812 1.461 . S
C815 C814 1.474 . S
C816 C811 1.342 . S
C816 C814 1.285 . S
C816 H835 0.930 . S
C817 C820 1.424 . S
C817 C822 1.245 . S
C817 C823 1.428 . S
C818 C821 1.260 . S
C818 C822 1.477 . S
C818 H836 0.932 . S
C819 C820 1.384 . S
C819 C821 1.479 . S
C819 H837 0.929 . S
C820 C817 1.424 . S
C820 C819 1.384 . S
C820 H838 0.928 . S
C821 C818 1.260 . S
C821 C819 1.479 . S
C822 C817 1.245 . S
C822 C818 1.477 . S
C822 H839 0.932 . S
C823 U806 2.882 . S
C823 C817 1.428 . S
C823 O826 1.301 . S
C823 O827 1.282 . S
O824 U806 2.441 . S
O824 C810 1.249 . S
O825 U806 2.420 . S
O825 C810 1.202 . S
O826 U806 2.455 . S
O826 C823 1.301 . S
O827 U806 2.449 . S
O827 C823 1.282 . S
H828 C801 0.931 . S
H829 C803 0.929 . S
H830 C804 0.930 . S
H831 C805 0.931 . S
H832 C812 0.932 . S
H833 C813 0.930 . S
H834 C814 0.929 . S
H835 C816 0.930 . S
H836 C818 0.932 . S
H837 C819 0.929 . S
H838 C820 0.928 . S
H839 C822 0.932 . S
C840 C841 1.264 . S
C840 C845 1.479 . S
C840 C850 1.465 . S
C841 C840 1.264 . S
C841 C843 1.339 . S
C841 H868 0.931 . S
C842 C843 1.395 . S
C842 C844 1.320 . S
C843 C841 1.339 . S
C843 C842 1.395 . S
C843 H869 0.929 . S
C844 C842 1.320 . S
C844 C845 1.405 . S
C844 H870 0.930 . S
C845 C840 1.479 . S
C845 C844 1.405 . S
C845 H871 0.931 . S
U846 O847 2.454 . S
U846 O848 2.458 . S
U846 C849 2.984 . S
U846 C850 2.847 . S
U846 C863 2.882 . S
U846 O864 2.441 . S
U846 O865 2.420 . S
U846 O866 2.455 . S
U846 O867 2.449 . S
O847 U846 2.454 . S
O847 C849 1.353 . S
O848 U846 2.458 . S
O848 C849 1.286 . S
C849 U846 2.984 . S
C849 O847 1.353 . S
C849 O848 1.286 . S
C849 C851 1.363 . S
C850 C840 1.465 . S
C850 U846 2.847 . S
C850 O864 1.249 . S
C850 O865 1.202 . S
C851 C849 1.363 . S
C851 C853 1.408 . S
C851 C856 1.342 . S
C852 C853 1.310 . S
C852 C855 1.461 . S
C852 H872 0.932 . S
C853 C851 1.408 . S
C853 C852 1.310 . S
C853 H873 0.930 . S
C854 C855 1.474 . S
C854 C856 1.285 . S
C854 H874 0.929 . S
C855 C852 1.461 . S
C855 C854 1.474 . S
C856 C851 1.342 . S
C856 C854 1.285 . S
C856 H875 0.930 . S
C857 C860 1.424 . S
C857 C862 1.245 . S
C857 C863 1.428 . S
C858 C861 1.260 . S
C858 C862 1.477 . S
C858 H876 0.932 . S
C859 C860 1.384 . S
C859 C861 1.479 . S
C859 H877 0.929 . S
C860 C857 1.424 . S
C860 C859 1.384 . S
C860 H878 0.928 . S
C861 C858 1.260 . S
C861 C859 1.479 . S
C862 C857 1.245 . S
C862 C858 1.477 . S
C862 H879 0.932 . S
C863 U846 2.882 . S
C863 C857 1.428 . S
C863 O866 1.301 . S
C863 O867 1.282 . S
O864 U846 2.441 . S
O864 C850 1.249 . S
O865 U846 2.420 . S
O865 C850 1.202 . S
O866 U846 2.455 . S
O866 C863 1.301 . S
O867 U846 2.449 . S
O867 C863 1.282 . S
H868 C841 0.931 . S
H869 C843 0.929 . S
H870 C844 0.930 . S
H871 C845 0.931 . S
H872 C852 0.932 . S
H873 C853 0.930 . S
H874 C854 0.929 . S
H875 C856 0.930 . S
H876 C858 0.932 . S
H877 C859 0.929 . S
H878 C860 0.928 . S
H879 C862 0.932 . S
C880 C881 1.263 1_554 S
C880 C885 1.478 1_554 S
C880 C890 1.466 . S
C881 C880 1.263 1_556 S
C881 C883 1.354 . S
C881 H908 0.916 1_556 S
C882 C883 1.395 . S
C882 C884 1.320 . S
C883 C881 1.354 . S
C883 C882 1.395 . S
C883 H909 0.929 . S
C884 C882 1.320 . S
C884 C885 1.405 . S
C884 H910 0.930 . S
C885 C880 1.478 1_556 S
C885 C884 1.405 . S
C885 H911 0.931 . S
U886 O887 2.454 . S
U886 O888 2.458 . S
U886 C889 2.984 . S
U886 C890 2.847 . S
U886 C903 2.882 . S
U886 O904 2.441 . S
U886 O905 2.420 . S
U886 O906 2.455 . S
U886 O907 2.449 . S
O887 U886 2.454 . S
O887 C889 1.353 . S
O888 U886 2.458 . S
O888 C889 1.286 . S
C889 U886 2.984 . S
C889 O887 1.353 . S
C889 O888 1.286 . S
C889 C891 1.363 . S
C890 C880 1.466 . S
C890 U886 2.847 . S
C890 O904 1.249 . S
C890 O905 1.202 . S
C891 C889 1.363 . S
C891 C893 1.408 . S
C891 C896 1.342 . S
C892 C893 1.310 . S
C892 C895 1.461 . S
C892 H912 0.932 . S
C893 C891 1.408 . S
C893 C892 1.310 . S
C893 H913 0.930 . S
C894 C895 1.474 . S
C894 C896 1.285 . S
C894 H914 0.929 . S
C895 C892 1.461 . S
C895 C894 1.474 . S
C896 C891 1.342 . S
C896 C894 1.285 . S
C896 H915 0.930 . S
C897 C900 1.424 . S
C897 C902 1.245 . S
C897 C903 1.428 . S
C898 C901 1.260 . S
C898 C902 1.477 . S
C898 H916 0.932 . S
C899 C900 1.384 . S
C899 C901 1.479 . S
C899 H917 0.929 . S
C900 C897 1.424 . S
C900 C899 1.384 . S
C900 H918 0.928 . S
C901 C898 1.260 . S
C901 C899 1.479 . S
C902 C897 1.245 . S
C902 C898 1.477 . S
C902 H919 0.932 . S
C903 U886 2.882 . S
C903 C897 1.428 . S
C903 O906 1.301 . S
C903 O907 1.282 . S
O904 U886 2.441 . S
O904 C890 1.249 . S
O905 U886 2.420 . S
O905 C890 1.202 . S
O906 U886 2.455 . S
O906 C903 1.301 . S
O907 U886 2.449 . S
O907 C903 1.282 . S
H908 C881 0.916 1_554 S
H909 C883 0.929 . S
H910 C884 0.930 . S
H911 C885 0.931 . S
H912 C892 0.932 . S
H913 C893 0.930 . S
H914 C894 0.929 . S
H915 C896 0.930 . S
H916 C898 0.932 . S
H917 C899 0.929 . S
H918 C900 0.928 . S
H919 C902 0.932 . S
C920 C921 1.264 . S
C920 C925 1.479 . S
C920 C930 1.465 . S
C921 C920 1.264 . S
C921 C923 1.339 . S
C921 H948 0.931 . S
C922 C923 1.395 . S
C922 C924 1.320 . S
C923 C921 1.339 . S
C923 C922 1.395 . S
C923 H949 0.929 . S
C924 C922 1.320 . S
C924 C925 1.405 . S
C924 H950 0.930 . S
C925 C920 1.479 . S
C925 C924 1.405 . S
C925 H951 0.931 . S
U926 O927 2.454 . S
U926 O928 2.458 . S
U926 C929 2.984 . S
U926 C930 2.847 . S
U926 C943 2.882 . S
U926 O944 2.441 . S
U926 O945 2.420 . S
U926 O946 2.455 . S
U926 O947 2.449 . S
O927 U926 2.454 . S
O927 C929 1.353 . S
O928 U926 2.458 . S
O928 C929 1.286 . S
C929 U926 2.984 . S
C929 O927 1.353 . S
C929 O928 1.286 . S
C929 C931 1.363 1_565 S
C930 C920 1.465 . S
C930 U926 2.847 . S
C930 O944 1.249 . S
C930 O945 1.202 . S
C931 C929 1.363 1_545 S
C931 C933 1.408 . S
C931 C936 1.342 . S
C932 C933 1.310 . S
C932 C935 1.461 . S
C932 H952 0.932 . S
C933 C931 1.408 . S
C933 C932 1.310 . S
C933 H953 0.930 . S
C934 C935 1.474 . S
C934 C936 1.285 . S
C934 H954 0.929 . S
C935 C932 1.461 . S
C935 C934 1.474 . S
C936 C931 1.342 . S
C936 C934 1.285 . S
C936 H955 0.930 1_545 S
C937 C940 1.424 . S
C937 C942 1.245 . S
C937 C943 1.428 . S
C938 C941 1.260 . S
C938 C942 1.477 . S
C938 H956 0.932 . S
C939 C940 1.384 . S
C939 C941 1.479 . S
C939 H957 0.929 . S
C940 C937 1.424 . S
C940 C939 1.384 . S
C940 H958 0.928 . S
C941 C938 1.260 . S
C941 C939 1.479 . S
C942 C937 1.245 . S
C942 C938 1.477 . S
C942 H959 0.932 . S
C943 U926 2.882 . S
C943 C937 1.428 . S
C943 O946 1.301 . S
C943 O947 1.282 . S
O944 U926 2.441 . S
O944 C930 1.249 . S
O945 U926 2.420 . S
O945 C930 1.202 . S
O946 U926 2.455 . S
O946 C943 1.301 . S
O947 U926 2.449 . S
O947 C943 1.282 . S
H948 C921 0.931 . S
H949 C923 0.929 . S
H950 C924 0.930 . S
H951 C925 0.931 . S
H952 C932 0.932 . S
H953 C933 0.930 . S
H954 C934 0.929 . S
H955 C936 0.930 1_565 S
H956 C938 0.932 . S
H957 C939 0.929 . S
H958 C940 0.928 . S
H959 C942 0.932 . S
C960 C961 1.264 . S
C960 C965 1.479 . S
C960 C970 1.465 . S
C961 C960 1.264 . S
C961 C963 1.339 . S
C961 H988 0.931 . S
C962 C963 1.395 . S
C962 C964 1.320 . S
C963 C961 1.339 . S
C963 C962 1.395 . S
C963 H989 0.929 . S
C964 C962 1.320 . S
C964 C965 1.405 . S
C964 H990 0.930 . S
C965 C960 1.479 . S
C965 C964 1.405 . S
C965 H991 0.931 . S
U966 O967 2.454 . S
U966 O968 2.458 . S
U966 C969 2.984 . S
U966 C970 2.847 . S
U966 C983 2.882 . S
U966 O984 2.441 . S
U966 O985 2.420 . S
U966 O986 2.455 . S
U966 O987 2.449 . S
O967 U966 2.454 . S
O967 C969 1.353 . S
O968 U966 2.458 . S
O968 C969 1.286 . S
C969 U966 2.984 . S
C969 O967 1.353 . S
C969 O968 1.286 . S
C969 C971 1.363 1_565 S
C970 C960 1.465 . S
C970 U966 2.847 . S
C970 O984 1.249 . S
C970 O985 1.202 . S
C971 C969 1.363 1_545 S
C971 C973 1.408 . S
C971 C976 1.342 . S
C972 C973 1.310 . S
C972 C975 1.461 . S
C972 H992 0.932 . S
C973 C971 1.408 . S
C973 C972 1.310 . S
C973 H993 0.930 . S
C974 C975 1.474 . S
C974 C976 1.285 . S
C974 H994 0.929 . S
C975 C972 1.461 . S
C975 C974 1.474 . S
C976 C971 1.342 . S
C976 C974 1.285 . S
C976 H995 0.930 1_545 S
C977 C980 1.424 . S
C977 C982 1.245 . S
C977 C983 1.428 . S
C978 C981 1.260 . S
C978 C982 1.477 . S
C978 H996 0.932 . S
C979 C980 1.384 . S
C979 C981 1.479 . S
C979 H997 0.929 . S
C980 C977 1.424 . S
C980 C979 1.384 . S
C980 H998 0.928 . S
C981 C978 1.260 . S
C981 C979 1.479 . S
C982 C977 1.245 . S
C982 C978 1.477 . S
C982 H999 0.932 . S
C983 U966 2.882 . S
C983 C977 1.428 . S
C983 O986 1.301 . S
C983 O987 1.282 . S
O984 U966 2.441 . S
O984 C970 1.249 . S
O985 U966 2.420 . S
O985 C970 1.202 . S
O986 U966 2.455 . S
O986 C983 1.301 . S
O987 U966 2.449 . S
O987 C983 1.282 . S
H988 C961 0.931 . S
H989 C963 0.929 . S
H990 C964 0.930 . S
H991 C965 0.931 . S
H992 C972 0.932 . S
H993 C973 0.930 . S
H994 C974 0.929 . S
H995 C976 0.930 1_565 S
H996 C978 0.932 . S
H997 C979 0.929 . S
H998 C980 0.928 . S
H999 C982 0.932 . S
C1000 C1001 1.263 . S
C1000 C1005 1.508 . S
C1000 C1010 1.434 1_565 S
C1001 C1000 1.263 . S
C1001 C1003 1.414 . S
C1001 H1028 0.861 1_565 S
C1002 C1003 1.395 . S
C1002 C1004 1.320 . S
C1003 C1001 1.414 . S
C1003 C1002 1.395 . S
C1003 H1029 0.929 . S
C1004 C1002 1.320 . S
C1004 C1005 1.405 . S
C1004 H1030 0.930 . S
C1005 C1000 1.508 . S
C1005 C1004 1.405 . S
C1005 H1031 0.931 . S
U1006 O1007 2.454 . S
U1006 O1008 2.458 . S
U1006 C1009 2.984 . S
U1006 C1010 2.847 . S
U1006 C1023 2.882 . S
U1006 O1024 2.441 . S
U1006 O1025 2.420 . S
U1006 O1026 2.455 . S
U1006 O1027 2.449 . S
O1007 U1006 2.454 . S
O1007 C1009 1.353 . S
O1008 U1006 2.458 . S
O1008 C1009 1.286 . S
C1009 U1006 2.984 . S
C1009 O1007 1.353 . S
C1009 O1008 1.286 . S
C1009 C1011 1.363 . S
C1010 C1000 1.434 1_545 S
C1010 U1006 2.847 . S
C1010 O1024 1.249 . S
C1010 O1025 1.202 . S
C1011 C1009 1.363 . S
C1011 C1013 1.408 . S
C1011 C1016 1.342 . S
C1012 C1013 1.310 . S
C1012 C1015 1.461 . S
C1012 H1032 0.932 . S
C1013 C1011 1.408 . S
C1013 C1012 1.310 . S
C1013 H1033 0.930 . S
C1014 C1015 1.474 . S
C1014 C1016 1.285 . S
C1014 H1034 0.929 . S
C1015 C1012 1.461 . S
C1015 C1014 1.474 . S
C1016 C1011 1.342 . S
C1016 C1014 1.285 . S
C1016 H1035 0.930 . S
C1017 C1020 1.424 . S
C1017 C1022 1.245 . S
C1017 C1023 1.428 . S
C1018 C1021 1.260 . S
C1018 C1022 1.477 . S
C1018 H1036 0.932 . S
C1019 C1020 1.384 . S
C1019 C1021 1.479 . S
C1019 H1037 0.929 . S
C1020 C1017 1.424 . S
C1020 C1019 1.384 . S
C1020 H1038 0.928 . S
C1021 C1018 1.260 . S
C1021 C1019 1.479 . S
C1022 C1017 1.245 . S
C1022 C1018 1.477 . S
C1022 H1039 0.932 . S
C1023 U1006 2.882 . S
C1023 C1017 1.428 . S
C1023 O1026 1.301 . S
C1023 O1027 1.282 . S
O1024 U1006 2.441 . S
O1024 C1010 1.249 . S
O1025 U1006 2.420 . S
O1025 C1010 1.202 . S
O1026 U1006 2.455 . S
O1026 C1023 1.301 . S
O1027 U1006 2.449 . S
O1027 C1023 1.282 . S
H1028 C1001 0.861 1_545 S
H1029 C1003 0.929 . S
H1030 C1004 0.930 . S
H1031 C1005 0.931 . S
H1032 C1012 0.932 . S
H1033 C1013 0.930 . S
H1034 C1014 0.929 . S
H1035 C1016 0.930 . S
H1036 C1018 0.932 . S
H1037 C1019 0.929 . S
H1038 C1020 0.928 . S
H1039 C1022 0.932 . S
C1040 C1041 1.264 . S
C1040 C1045 1.479 . S
C1040 C1050 1.465 1_565 S
C1041 C1040 1.264 . S
C1041 C1043 1.339 . S
C1041 H1068 0.931 1_565 S
C1042 C1043 1.395 . S
C1042 C1044 1.320 . S
C1043 C1041 1.339 . S
C1043 C1042 1.395 . S
C1043 H1069 0.929 . S
C1044 C1042 1.320 . S
C1044 C1045 1.405 . S
C1044 H1070 0.930 . S
C1045 C1040 1.479 . S
C1045 C1044 1.405 . S
C1045 H1071 0.931 . S
U1046 O1047 2.454 . S
U1046 O1048 2.458 . S
U1046 C1049 2.984 . S
U1046 C1050 2.847 . S
U1046 C1063 2.882 . S
U1046 O1064 2.441 . S
U1046 O1065 2.420 . S
U1046 O1066 2.455 . S
U1046 O1067 2.449 . S
O1047 U1046 2.454 . S
O1047 C1049 1.353 . S
O1048 U1046 2.458 . S
O1048 C1049 1.286 . S
C1049 U1046 2.984 . S
C1049 O1047 1.353 . S
C1049 O1048 1.286 . S
C1049 C1051 1.363 . S
C1050 C1040 1.465 1_545 S
C1050 U1046 2.847 . S
C1050 O1064 1.249 . S
C1050 O1065 1.202 . S
C1051 C1049 1.363 . S
C1051 C1053 1.408 . S
C1051 C1056 1.342 . S
C1052 C1053 1.310 . S
C1052 C1055 1.461 . S
C1052 H1072 0.932 . S
C1053 C1051 1.408 . S
C1053 C1052 1.310 . S
C1053 H1073 0.930 . S
C1054 C1055 1.474 . S
C1054 C1056 1.285 . S
C1054 H1074 0.929 . S
C1055 C1052 1.461 . S
C1055 C1054 1.474 . S
C1056 C1051 1.342 . S
C1056 C1054 1.285 . S
C1056 H1075 0.930 . S
C1057 C1060 1.424 . S
C1057 C1062 1.245 . S
C1057 C1063 1.428 . S
C1058 C1061 1.260 . S
C1058 C1062 1.477 . S
C1058 H1076 0.932 . S
C1059 C1060 1.384 . S
C1059 C1061 1.479 . S
C1059 H1077 0.929 . S
C1060 C1057 1.424 . S
C1060 C1059 1.384 . S
C1060 H1078 0.928 . S
C1061 C1058 1.260 . S
C1061 C1059 1.479 . S
C1062 C1057 1.245 . S
C1062 C1058 1.477 . S
C1062 H1079 0.932 . S
C1063 U1046 2.882 . S
C1063 C1057 1.428 . S
C1063 O1066 1.301 . S
C1063 O1067 1.282 . S
O1064 U1046 2.441 . S
O1064 C1050 1.249 . S
O1065 U1046 2.420 . S
O1065 C1050 1.202 . S
O1066 U1046 2.455 . S
O1066 C1063 1.301 . S
O1067 U1046 2.449 . S
O1067 C1063 1.282 . S
H1068 C1041 0.931 1_545 S
H1069 C1043 0.929 . S
H1070 C1044 0.930 . S
H1071 C1045 0.931 . S
H1072 C1052 0.932 . S
H1073 C1053 0.930 . S
H1074 C1054 0.929 . S
H1075 C1056 0.930 . S
H1076 C1058 0.932 . S
H1077 C1059 0.929 . S
H1078 C1060 0.928 . S
H1079 C1062 0.932 . S
C1080 C1081 1.264 . S
C1080 C1085 1.479 . S
C1080 C1090 1.465 . S
C1081 C1080 1.264 . S
C1081 C1083 1.339 . S
C1081 H1108 0.931 . S
C1082 C1083 1.395 . S
C1082 C1084 1.320 . S
C1083 C1081 1.339 . S
C1083 C1082 1.395 . S
C1083 H1109 0.929 . S
C1084 C1082 1.320 . S
C1084 C1085 1.405 . S
C1084 H1110 0.930 . S
C1085 C1080 1.479 . S
C1085 C1084 1.405 . S
C1085 H1111 0.931 . S
U1086 O1087 2.454 . S
U1086 O1088 2.458 . S
U1086 C1089 2.984 . S
U1086 C1090 2.847 . S
U1086 C1103 2.882 . S
U1086 O1104 2.441 . S
U1086 O1105 2.420 . S
U1086 O1106 2.455 . S
U1086 O1107 2.449 . S
O1087 U1086 2.454 . S
O1087 C1089 1.353 . S
O1088 U1086 2.458 . S
O1088 C1089 1.286 . S
C1089 U1086 2.984 . S
C1089 O1087 1.353 . S
C1089 O1088 1.286 . S
C1089 C1091 1.363 1_556 S
C1090 C1080 1.465 . S
C1090 U1086 2.847 . S
C1090 O1104 1.249 . S
C1090 O1105 1.202 . S
C1091 C1089 1.363 1_554 S
C1091 C1093 1.408 . S
C1091 C1096 1.342 . S
C1092 C1093 1.310 . S
C1092 C1095 1.461 . S
C1092 H1112 0.932 . S
C1093 C1091 1.408 . S
C1093 C1092 1.310 . S
C1093 H1113 0.930 . S
C1094 C1095 1.474 . S
C1094 C1096 1.285 . S
C1094 H1114 0.929 . S
C1095 C1092 1.461 . S
C1095 C1094 1.474 . S
C1096 C1091 1.342 . S
C1096 C1094 1.285 . S
C1096 H1115 0.958 . S
C1097 C1100 1.424 . S
C1097 C1102 1.245 . S
C1097 C1103 1.428 . S
C1098 C1101 1.260 . S
C1098 C1102 1.477 . S
C1098 H1116 0.932 . S
C1099 C1100 1.384 . S
C1099 C1101 1.479 . S
C1099 H1117 0.929 . S
C1100 C1097 1.424 . S
C1100 C1099 1.384 . S
C1100 H1118 0.928 . S
C1101 C1098 1.260 . S
C1101 C1099 1.479 . S
C1102 C1097 1.245 . S
C1102 C1098 1.477 . S
C1102 H1119 0.932 . S
C1103 U1086 2.882 . S
C1103 C1097 1.428 . S
C1103 O1106 1.301 . S
C1103 O1107 1.282 . S
O1104 U1086 2.441 . S
O1104 C1090 1.249 . S
O1105 U1086 2.420 . S
O1105 C1090 1.202 . S
O1106 U1086 2.455 . S
O1106 C1103 1.301 . S
O1107 U1086 2.449 . S
O1107 C1103 1.282 . S
H1108 C1081 0.931 . S
H1109 C1083 0.929 . S
H1110 C1084 0.930 . S
H1111 C1085 0.931 . S
H1112 C1092 0.932 . S
H1113 C1093 0.930 . S
H1114 C1094 0.929 . S
H1115 C1096 0.958 . S
H1116 C1098 0.932 . S
H1117 C1099 0.929 . S
H1118 C1100 0.928 . S
H1119 C1102 0.932 . S
C1120 C1121 1.263 . S
C1120 C1125 1.482 . S
C1120 C1130 1.461 1_655 S
C1121 C1120 1.263 . S
C1121 C1123 1.373 . S
C1121 H1148 0.899 1_655 S
C1122 C1123 1.395 . S
C1122 C1124 1.320 . S
C1123 C1121 1.373 . S
C1123 C1122 1.395 . S
C1123 H1149 0.929 . S
C1124 C1122 1.320 . S
C1124 C1125 1.405 . S
C1124 H1150 0.930 . S
C1125 C1120 1.482 . S
C1125 C1124 1.405 . S
C1125 H1151 0.931 . S
U1126 O1127 2.454 . S
U1126 O1128 2.458 . S
U1126 C1129 2.984 . S
U1126 C1130 2.847 . S
U1126 C1143 2.882 . S
U1126 O1144 2.441 . S
U1126 O1145 2.420 . S
U1126 O1146 2.455 . S
U1126 O1147 2.449 . S
O1127 U1126 2.454 . S
O1127 C1129 1.353 . S
O1128 U1126 2.458 . S
O1128 C1129 1.286 . S
C1129 U1126 2.984 . S
C1129 O1127 1.353 . S
C1129 O1128 1.286 . S
C1129 C1131 1.363 . S
C1130 C1120 1.461 1_455 S
C1130 U1126 2.847 . S
C1130 O1144 1.249 . S
C1130 O1145 1.202 . S
C1131 C1129 1.363 . S
C1131 C1133 1.408 . S
C1131 C1136 1.342 . S
C1132 C1133 1.310 . S
C1132 C1135 1.461 . S
C1132 H1152 0.932 . S
C1133 C1131 1.408 . S
C1133 C1132 1.310 . S
C1133 H1153 0.930 . S
C1134 C1135 1.474 . S
C1134 C1136 1.285 . S
C1134 H1154 0.929 . S
C1135 C1132 1.461 . S
C1135 C1134 1.474 . S
C1136 C1131 1.342 . S
C1136 C1134 1.285 . S
C1136 H1155 0.930 . S
C1137 C1140 1.424 . S
C1137 C1142 1.245 . S
C1137 C1143 1.428 . S
C1138 C1141 1.260 . S
C1138 C1142 1.477 . S
C1138 H1156 0.932 . S
C1139 C1140 1.384 . S
C1139 C1141 1.479 . S
C1139 H1157 0.929 . S
C1140 C1137 1.424 . S
C1140 C1139 1.384 . S
C1140 H1158 0.928 . S
C1141 C1138 1.260 . S
C1141 C1139 1.479 . S
C1142 C1137 1.245 . S
C1142 C1138 1.477 . S
C1142 H1159 0.932 . S
C1143 U1126 2.882 . S
C1143 C1137 1.428 . S
C1143 O1146 1.301 . S
C1143 O1147 1.282 . S
O1144 U1126 2.441 . S
O1144 C1130 1.249 . S
O1145 U1126 2.420 . S
O1145 C1130 1.202 . S
O1146 U1126 2.455 . S
O1146 C1143 1.301 . S
O1147 U1126 2.449 . S
O1147 C1143 1.282 . S
H1148 C1121 0.899 1_455 S
H1149 C1123 0.929 . S
H1150 C1124 0.930 . S
H1151 C1125 0.931 . S
H1152 C1132 0.932 . S
H1153 C1133 0.930 . S
H1154 C1134 0.929 . S
H1155 C1136 0.930 . S
H1156 C1138 0.932 . S
H1157 C1139 0.929 . S
H1158 C1140 0.928 . S
H1159 C1142 0.932 . S
C1160 C1161 1.264 . S
C1160 C1165 1.479 . S
C1160 C1170 1.465 . S
C1161 C1160 1.264 . S
C1161 C1163 1.339 . S
C1161 H1188 0.931 . S
C1162 C1163 1.395 . S
C1162 C1164 1.320 . S
C1163 C1161 1.339 . S
C1163 C1162 1.395 . S
C1163 H1189 0.929 . S
C1164 C1162 1.320 . S
C1164 C1165 1.405 . S
C1164 H1190 0.930 . S
C1165 C1160 1.479 . S
C1165 C1164 1.405 . S
C1165 H1191 0.931 . S
U1166 O1167 2.454 . S
U1166 O1168 2.458 . S
U1166 C1169 2.984 . S
U1166 C1170 2.847 . S
U1166 C1183 2.882 . S
U1166 O1184 2.441 . S
U1166 O1185 2.420 . S
U1166 O1186 2.455 . S
U1166 O1187 2.449 . S
O1167 U1166 2.454 . S
O1167 C1169 1.353 . S
O1168 U1166 2.458 . S
O1168 C1169 1.286 . S
C1169 U1166 2.984 . S
C1169 O1167 1.353 . S
C1169 O1168 1.286 . S
C1169 C1171 1.363 . S
C1170 C1160 1.465 . S
C1170 U1166 2.847 . S
C1170 O1184 1.249 . S
C1170 O1185 1.202 . S
C1171 C1169 1.363 . S
C1171 C1173 1.408 . S
C1171 C1176 1.342 . S
C1172 C1173 1.310 . S
C1172 C1175 1.461 . S
C1172 H1192 0.932 . S
C1173 C1171 1.408 . S
C1173 C1172 1.310 . S
C1173 H1193 0.930 . S
C1174 C1175 1.474 . S
C1174 C1176 1.285 . S
C1174 H1194 0.929 . S
C1175 C1172 1.461 . S
C1175 C1174 1.474 . S
C1176 C1171 1.342 . S
C1176 C1174 1.285 . S
C1176 H1195 0.930 . S
C1177 C1180 1.424 . S
C1177 C1182 1.245 . S
C1177 C1183 1.428 . S
C1178 C1181 1.260 . S
C1178 C1182 1.477 . S
C1178 H1196 0.932 . S
C1179 C1180 1.384 . S
C1179 C1181 1.479 . S
C1179 H1197 0.929 . S
C1180 C1177 1.424 . S
C1180 C1179 1.384 . S
C1180 H1198 0.928 . S
C1181 C1178 1.260 . S
C1181 C1179 1.479 . S
C1182 C1177 1.245 . S
C1182 C1178 1.477 . S
C1182 H1199 0.932 . S
C1183 U1166 2.882 . S
C1183 C1177 1.428 . S
C1183 O1186 1.301 . S
C1183 O1187 1.282 . S
O1184 U1166 2.441 . S
O1184 C1170 1.249 . S
O1185 U1166 2.420 . S
O1185 C1170 1.202 . S
O1186 U1166 2.455 . S
O1186 C1183 1.301 . S
O1187 U1166 2.449 . S
O1187 C1183 1.282 . S
H1188 C1161 0.931 . S
H1189 C1163 0.929 . S
H1190 C1164 0.930 . S
H1191 C1165 0.931 . S
H1192 C1172 0.932 . S
H1193 C1173 0.930 . S
H1194 C1174 0.929 . S
H1195 C1176 0.930 . S
H1196 C1178 0.932 . S
H1197 C1179 0.929 . S
H1198 C1180 0.928 . S
H1199 C1182 0.932 . S
C1200 C1201 1.264 . S
C1200 C1205 1.479 . S
C1200 C1210 1.465 . S
C1201 C1200 1.264 . S
C1201 C1203 1.339 . S
C1201 H1228 0.931 . S
C1202 C1203 1.395 . S
C1202 C1204 1.320 . S
C1203 C1201 1.339 . S
C1203 C1202 1.395 . S
C1203 H1229 0.929 . S
C1204 C1202 1.320 . S
C1204 C1205 1.405 . S
C1204 H1230 0.930 . S
C1205 C1200 1.479 . S
C1205 C1204 1.405 . S
C1205 H1231 0.931 . S
U1206 O1207 2.454 . S
U1206 O1208 2.458 . S
U1206 C1209 2.984 . S
U1206 C1210 2.847 . S
U1206 C1223 2.882 . S
U1206 O1224 2.441 . S
U1206 O1225 2.420 . S
U1206 O1226 2.455 . S
U1206 O1227 2.449 . S
O1207 U1206 2.454 . S
O1207 C1209 1.353 . S
O1208 U1206 2.458 . S
O1208 C1209 1.286 . S
C1209 U1206 2.984 . S
C1209 O1207 1.353 . S
C1209 O1208 1.286 . S
C1209 C1211 1.363 . S
C1210 C1200 1.465 . S
C1210 U1206 2.847 . S
C1210 O1224 1.249 . S
C1210 O1225 1.202 . S
C1211 C1209 1.363 . S
C1211 C1213 1.408 . S
C1211 C1216 1.342 . S
C1212 C1213 1.310 . S
C1212 C1215 1.461 . S
C1212 H1232 0.932 . S
C1213 C1211 1.408 . S
C1213 C1212 1.310 . S
C1213 H1233 0.930 . S
C1214 C1215 1.474 . S
C1214 C1216 1.285 . S
C1214 H1234 0.929 . S
C1215 C1212 1.461 . S
C1215 C1214 1.474 . S
C1216 C1211 1.342 . S
C1216 C1214 1.285 . S
C1216 H1235 0.930 . S
C1217 C1220 1.424 . S
C1217 C1222 1.245 . S
C1217 C1223 1.428 . S
C1218 C1221 1.260 . S
C1218 C1222 1.477 . S
C1218 H1236 0.932 . S
C1219 C1220 1.384 . S
C1219 C1221 1.479 . S
C1219 H1237 0.929 . S
C1220 C1217 1.424 . S
C1220 C1219 1.384 . S
C1220 H1238 0.928 . S
C1221 C1218 1.260 . S
C1221 C1219 1.479 . S
C1222 C1217 1.245 . S
C1222 C1218 1.477 . S
C1222 H1239 0.932 . S
C1223 U1206 2.882 . S
C1223 C1217 1.428 . S
C1223 O1226 1.301 . S
C1223 O1227 1.282 . S
O1224 U1206 2.441 . S
O1224 C1210 1.249 . S
O1225 U1206 2.420 . S
O1225 C1210 1.202 . S
O1226 U1206 2.455 . S
O1226 C1223 1.301 . S
O1227 U1206 2.449 . S
O1227 C1223 1.282 . S
H1228 C1201 0.931 . S
H1229 C1203 0.929 . S
H1230 C1204 0.930 . S
H1231 C1205 0.931 . S
H1232 C1212 0.932 . S
H1233 C1213 0.930 . S
H1234 C1214 0.929 . S
H1235 C1216 0.930 . S
H1236 C1218 0.932 . S
H1237 C1219 0.929 . S
H1238 C1220 0.928 . S
H1239 C1222 0.932 . S
C1240 C1241 1.264 . S
C1240 C1245 1.479 . S
C1240 C1250 1.465 . S
C1241 C1240 1.264 . S
C1241 C1243 1.339 . S
C1241 H1268 0.931 . S
C1242 C1243 1.395 . S
C1242 C1244 1.320 . S
C1243 C1241 1.339 . S
C1243 C1242 1.395 . S
C1243 H1269 0.929 . S
C1244 C1242 1.320 . S
C1244 C1245 1.405 . S
C1244 H1270 0.930 . S
C1245 C1240 1.479 . S
C1245 C1244 1.405 . S
C1245 H1271 0.931 . S
U1246 O1247 2.454 1_655 S
U1246 O1248 2.458 1_655 S
U1246 C1249 2.984 1_655 S
U1246 C1250 2.847 . S
U1246 C1263 2.882 . S
U1246 O1264 2.441 . S
U1246 O1265 2.420 . S
U1246 O1266 2.455 . S
U1246 O1267 2.449 . S
O1247 U1246 2.454 1_455 S
O1247 C1249 1.353 . S
O1248 U1246 2.458 1_455 S
O1248 C1249 1.286 . S
C1249 U1246 2.984 1_455 S
C1249 O1247 1.353 . S
C1249 O1248 1.286 . S
C1249 C1251 1.363 . S
C1250 C1240 1.465 . S
C1250 U1246 2.847 . S
C1250 O1264 1.249 . S
C1250 O1265 1.202 . S
C1251 C1249 1.363 . S
C1251 C1253 1.408 . S
C1251 C1256 1.342 . S
C1252 C1253 1.310 . S
C1252 C1255 1.461 . S
C1252 H1272 0.932 . S
C1253 C1251 1.408 . S
C1253 C1252 1.310 . S
C1253 H1273 0.930 . S
C1254 C1255 1.474 . S
C1254 C1256 1.285 . S
C1254 H1274 0.929 . S
C1255 C1252 1.461 . S
C1255 C1254 1.474 . S
C1256 C1251 1.342 . S
C1256 C1254 1.285 . S
C1256 H1275 0.930 . S
C1257 C1260 1.424 . S
C1257 C1262 1.245 . S
C1257 C1263 1.428 . S
C1258 C1261 1.260 . S
C1258 C1262 1.477 . S
C1258 H1276 0.932 . S
C1259 C1260 1.384 . S
C1259 C1261 1.479 . S
C1259 H1277 0.929 . S
C1260 C1257 1.424 . S
C1260 C1259 1.384 . S
C1260 H1278 0.928 . S
C1261 C1258 1.260 . S
C1261 C1259 1.479 . S
C1262 C1257 1.245 . S
C1262 C1258 1.477 . S
C1262 H1279 0.932 . S
C1263 U1246 2.882 . S
C1263 C1257 1.428 . S
C1263 O1266 1.301 . S
C1263 O1267 1.282 . S
O1264 U1246 2.441 . S
O1264 C1250 1.249 . S
O1265 U1246 2.420 . S
O1265 C1250 1.202 . S
O1266 U1246 2.455 . S
O1266 C1263 1.301 . S
O1267 U1246 2.449 . S
O1267 C1263 1.282 . S
H1268 C1241 0.931 . S
H1269 C1243 0.929 . S
H1270 C1244 0.930 . S
H1271 C1245 0.931 . S
H1272 C1252 0.932 . S
H1273 C1253 0.930 . S
H1274 C1254 0.929 . S
H1275 C1256 0.930 . S
H1276 C1258 0.932 . S
H1277 C1259 0.929 . S
H1278 C1260 0.928 . S
H1279 C1262 0.932 . S
C1280 C1281 1.264 . S
C1280 C1285 1.479 . S
C1280 C1290 1.465 . S
C1281 C1280 1.264 . S
C1281 C1283 1.339 . S
C1281 H1308 0.931 . S
C1282 C1283 1.395 . S
C1282 C1284 1.320 . S
C1283 C1281 1.339 . S
C1283 C1282 1.395 . S
C1283 H1309 0.929 . S
C1284 C1282 1.320 . S
C1284 C1285 1.405 . S
C1284 H1310 0.930 . S
C1285 C1280 1.479 . S
C1285 C1284 1.405 . S
C1285 H1311 0.931 . S
U1286 O1287 2.454 . S
U1286 O1288 2.458 . S
U1286 C1289 2.984 . S
U1286 C1290 2.847 . S
U1286 C1303 2.882 . S
U1286 O1304 2.441 . S
U1286 O1305 2.420 . S
U1286 O1306 2.455 . S
U1286 O1307 2.449 . S
O1287 U1286 2.454 . S
O1287 C1289 1.353 . S
O1288 U1286 2.458 . S
O1288 C1289 1.286 . S
C1289 U1286 2.984 . S
C1289 O1287 1.353 . S
C1289 O1288 1.286 . S
C1289 C1291 1.363 . S
C1290 C1280 1.465 . S
C1290 U1286 2.847 . S
C1290 O1304 1.249 . S
C1290 O1305 1.202 . S
C1291 C1289 1.363 . S
C1291 C1293 1.408 . S
C1291 C1296 1.342 . S
C1292 C1293 1.310 . S
C1292 C1295 1.461 . S
C1292 H1312 0.932 . S
C1293 C1291 1.408 . S
C1293 C1292 1.310 . S
C1293 H1313 0.930 . S
C1294 C1295 1.474 . S
C1294 C1296 1.285 . S
C1294 H1314 0.929 . S
C1295 C1292 1.461 . S
C1295 C1294 1.474 . S
C1296 C1291 1.342 . S
C1296 C1294 1.285 . S
C1296 H1315 0.930 . S
C1297 C1300 1.424 . S
C1297 C1302 1.245 . S
C1297 C1303 1.428 . S
C1298 C1301 1.260 . S
C1298 C1302 1.477 . S
C1298 H1316 0.932 . S
C1299 C1300 1.384 . S
C1299 C1301 1.479 . S
C1299 H1317 0.929 . S
C1300 C1297 1.424 . S
C1300 C1299 1.384 . S
C1300 H1318 0.928 . S
C1301 C1298 1.260 . S
C1301 C1299 1.479 . S
C1302 C1297 1.245 . S
C1302 C1298 1.477 . S
C1302 H1319 0.932 . S
C1303 U1286 2.882 . S
C1303 C1297 1.428 . S
C1303 O1306 1.301 . S
C1303 O1307 1.282 . S
O1304 U1286 2.441 . S
O1304 C1290 1.249 . S
O1305 U1286 2.420 . S
O1305 C1290 1.202 . S
O1306 U1286 2.455 . S
O1306 C1303 1.301 . S
O1307 U1286 2.449 . S
O1307 C1303 1.282 . S
H1308 C1281 0.931 . S
H1309 C1283 0.929 . S
H1310 C1284 0.930 . S
H1311 C1285 0.931 . S
H1312 C1292 0.932 . S
H1313 C1293 0.930 . S
H1314 C1294 0.929 . S
H1315 C1296 0.930 . S
H1316 C1298 0.932 . S
H1317 C1299 0.929 . S
H1318 C1300 0.928 . S
H1319 C1302 0.932 . S
C1320 C1321 1.264 . S
C1320 C1325 1.479 . S
C1320 C1330 1.465 . S
C1321 C1320 1.264 . S
C1321 C1323 1.339 . S
C1321 H1348 0.931 . S
C1322 C1323 1.395 . S
C1322 C1324 1.320 . S
C1323 C1321 1.339 . S
C1323 C1322 1.395 . S
C1323 H1349 0.929 . S
C1324 C1322 1.320 . S
C1324 C1325 1.405 . S
C1324 H1350 0.930 . S
C1325 C1320 1.479 . S
C1325 C1324 1.405 . S
C1325 H1351 0.931 . S
U1326 O1327 2.454 1_556 S
U1326 O1328 2.458 1_556 S
U1326 C1329 2.984 1_556 S
U1326 C1330 2.847 . S
U1326 C1343 2.882 . S
U1326 O1344 2.441 . S
U1326 O1345 2.420 . S
U1326 O1346 2.455 . S
U1326 O1347 2.449 . S
O1327 U1326 2.454 1_554 S
O1327 C1329 1.353 . S
O1328 U1326 2.458 1_554 S
O1328 C1329 1.286 . S
C1329 U1326 2.984 1_554 S
C1329 O1327 1.353 . S
C1329 O1328 1.286 . S
C1329 C1331 1.363 . S
C1330 C1320 1.465 . S
C1330 U1326 2.847 . S
C1330 O1344 1.249 . S
C1330 O1345 1.202 . S
C1331 C1329 1.363 . S
C1331 C1333 1.408 . S
C1331 C1336 1.342 . S
C1332 C1333 1.310 . S
C1332 C1335 1.461 . S
C1332 H1352 0.932 . S
C1333 C1331 1.408 . S
C1333 C1332 1.310 . S
C1333 H1353 0.930 . S
C1334 C1335 1.474 . S
C1334 C1336 1.285 . S
C1334 H1354 0.929 . S
C1335 C1332 1.461 . S
C1335 C1334 1.474 . S
C1336 C1331 1.342 . S
C1336 C1334 1.285 . S
C1336 H1355 0.930 . S
C1337 C1340 1.424 . S
C1337 C1342 1.245 . S
C1337 C1343 1.428 . S
C1338 C1341 1.260 . S
C1338 C1342 1.477 . S
C1338 H1356 0.932 . S
C1339 C1340 1.384 . S
C1339 C1341 1.479 . S
C1339 H1357 0.929 . S
C1340 C1337 1.424 . S
C1340 C1339 1.384 . S
C1340 H1358 0.928 . S
C1341 C1338 1.260 . S
C1341 C1339 1.479 . S
C1342 C1337 1.245 . S
C1342 C1338 1.477 . S
C1342 H1359 0.932 . S
C1343 U1326 2.882 . S
C1343 C1337 1.428 . S
C1343 O1346 1.301 . S
C1343 O1347 1.282 . S
O1344 U1326 2.441 . S
O1344 C1330 1.249 . S
O1345 U1326 2.420 . S
O1345 C1330 1.202 . S
O1346 U1326 2.455 . S
O1346 C1343 1.301 . S
O1347 U1326 2.449 . S
O1347 C1343 1.282 . S
H1348 C1321 0.931 . S
H1349 C1323 0.929 . S
H1350 C1324 0.930 . S
H1351 C1325 0.931 . S
H1352 C1332 0.932 . S
H1353 C1333 0.930 . S
H1354 C1334 0.929 . S
H1355 C1336 0.930 . S
H1356 C1338 0.932 . S
H1357 C1339 0.929 . S
H1358 C1340 0.928 . S
H1359 C1342 0.932 . S
C1360 C1361 1.264 . S
C1360 C1365 1.479 . S
C1360 C1370 1.465 . S
C1361 C1360 1.264 . S
C1361 C1363 1.339 . S
C1361 H1388 0.931 . S
C1362 C1363 1.395 . S
C1362 C1364 1.320 . S
C1363 C1361 1.339 . S
C1363 C1362 1.395 . S
C1363 H1389 0.929 . S
C1364 C1362 1.320 . S
C1364 C1365 1.405 . S
C1364 H1390 0.930 . S
C1365 C1360 1.479 . S
C1365 C1364 1.405 . S
C1365 H1391 0.931 . S
U1366 O1367 2.454 . S
U1366 O1368 2.458 . S
U1366 C1369 2.984 . S
U1366 C1370 2.847 . S
U1366 C1383 2.882 . S
U1366 O1384 2.441 . S
U1366 O1385 2.420 . S
U1366 O1386 2.455 . S
U1366 O1387 2.449 . S
O1367 U1366 2.454 . S
O1367 C1369 1.353 . S
O1368 U1366 2.458 . S
O1368 C1369 1.286 . S
C1369 U1366 2.984 . S
C1369 O1367 1.353 . S
C1369 O1368 1.286 . S
C1369 C1371 1.363 . S
C1370 C1360 1.465 . S
C1370 U1366 2.847 . S
C1370 O1384 1.249 . S
C1370 O1385 1.202 . S
C1371 C1369 1.363 . S
C1371 C1373 1.408 . S
C1371 C1376 1.342 . S
C1372 C1373 1.310 . S
C1372 C1375 1.461 . S
C1372 H1392 0.932 . S
C1373 C1371 1.408 . S
C1373 C1372 1.310 . S
C1373 H1393 0.930 . S
C1374 C1375 1.474 . S
C1374 C1376 1.285 . S
C1374 H1394 0.929 . S
C1375 C1372 1.461 . S
C1375 C1374 1.474 . S
C1376 C1371 1.342 . S
C1376 C1374 1.285 . S
C1376 H1395 0.930 . S
C1377 C1380 1.424 . S
C1377 C1382 1.245 . S
C1377 C1383 1.428 . S
C1378 C1381 1.260 . S
C1378 C1382 1.477 . S
C1378 H1396 0.932 . S
C1379 C1380 1.384 . S
C1379 C1381 1.479 . S
C1379 H1397 0.929 . S
C1380 C1377 1.424 . S
C1380 C1379 1.384 . S
C1380 H1398 0.928 . S
C1381 C1378 1.260 . S
C1381 C1379 1.479 . S
C1382 C1377 1.245 . S
C1382 C1378 1.477 . S
C1382 H1399 0.932 . S
C1383 U1366 2.882 . S
C1383 C1377 1.428 . S
C1383 O1386 1.301 . S
C1383 O1387 1.282 . S
O1384 U1366 2.441 . S
O1384 C1370 1.249 . S
O1385 U1366 2.420 . S
O1385 C1370 1.202 . S
O1386 U1366 2.455 . S
O1386 C1383 1.301 . S
O1387 U1366 2.449 . S
O1387 C1383 1.282 . S
H1388 C1361 0.931 . S
H1389 C1363 0.929 . S
H1390 C1364 0.930 . S
H1391 C1365 0.931 . S
H1392 C1372 0.932 . S
H1393 C1373 0.930 . S
H1394 C1374 0.929 . S
H1395 C1376 0.930 . S
H1396 C1378 0.932 . S
H1397 C1379 0.929 . S
H1398 C1380 0.928 . S
H1399 C1382 0.932 . S
C1400 C1401 1.264 . S
C1400 C1405 1.479 . S
C1400 C1410 1.465 . S
C1401 C1400 1.264 . S
C1401 C1403 1.339 . S
C1401 H1428 0.931 . S
C1402 C1403 1.395 . S
C1402 C1404 1.320 . S
C1403 C1401 1.339 . S
C1403 C1402 1.395 . S
C1403 H1429 0.929 . S
C1404 C1402 1.320 . S
C1404 C1405 1.405 . S
C1404 H1430 0.930 . S
C1405 C1400 1.479 . S
C1405 C1404 1.405 . S
C1405 H1431 0.931 . S
U1406 O1407 2.454 . S
U1406 O1408 2.458 . S
U1406 C1409 2.984 . S
U1406 C1410 2.847 . S
U1406 C1423 2.882 . S
U1406 O1424 2.441 . S
U1406 O1425 2.420 . S
U1406 O1426 2.455 . S
U1406 O1427 2.449 . S
O1407 U1406 2.454 . S
O1407 C1409 1.353 . S
O1408 U1406 2.458 . S
O1408 C1409 1.286 . S
C1409 U1406 2.984 . S
C1409 O1407 1.353 . S
C1409 O1408 1.286 . S
C1409 C1411 1.363 . S
C1410 C1400 1.465 . S
C1410 U1406 2.847 . S
C1410 O1424 1.249 . S
C1410 O1425 1.202 . S
C1411 C1409 1.363 . S
C1411 C1413 1.408 . S
C1411 C1416 1.342 . S
C1412 C1413 1.310 . S
C1412 C1415 1.461 . S
C1412 H1432 0.932 . S
C1413 C1411 1.408 . S
C1413 C1412 1.310 . S
C1413 H1433 0.930 . S
C1414 C1415 1.474 . S
C1414 C1416 1.285 . S
C1414 H1434 0.929 . S
C1415 C1412 1.461 . S
C1415 C1414 1.474 . S
C1416 C1411 1.342 . S
C1416 C1414 1.285 . S
C1416 H1435 0.930 . S
C1417 C1420 1.424 . S
C1417 C1422 1.245 . S
C1417 C1423 1.428 . S
C1418 C1421 1.260 . S
C1418 C1422 1.477 . S
C1418 H1436 0.932 . S
C1419 C1420 1.384 . S
C1419 C1421 1.479 . S
C1419 H1437 0.929 . S
C1420 C1417 1.424 . S
C1420 C1419 1.384 . S
C1420 H1438 0.928 . S
C1421 C1418 1.260 . S
C1421 C1419 1.479 . S
C1422 C1417 1.245 . S
C1422 C1418 1.477 . S
C1422 H1439 0.932 . S
C1423 U1406 2.882 . S
C1423 C1417 1.428 . S
C1423 O1426 1.301 . S
C1423 O1427 1.282 . S
O1424 U1406 2.441 . S
O1424 C1410 1.249 . S
O1425 U1406 2.420 . S
O1425 C1410 1.202 . S
O1426 U1406 2.455 . S
O1426 C1423 1.301 . S
O1427 U1406 2.449 . S
O1427 C1423 1.282 . S
H1428 C1401 0.931 . S
H1429 C1403 0.929 . S
H1430 C1404 0.930 . S
H1431 C1405 0.931 . S
H1432 C1412 0.932 . S
H1433 C1413 0.930 . S
H1434 C1414 0.929 . S
H1435 C1416 0.930 . S
H1436 C1418 0.932 . S
H1437 C1419 0.929 . S
H1438 C1420 0.928 . S
H1439 C1422 0.932 . S
C1440 C1441 1.264 . S
C1440 C1445 1.479 . S
C1440 C1450 1.465 . S
C1441 C1440 1.264 . S
C1441 C1443 1.339 . S
C1441 H1468 0.931 . S
C1442 C1443 1.395 . S
C1442 C1444 1.320 . S
C1443 C1441 1.339 . S
C1443 C1442 1.395 . S
C1443 H1469 0.929 . S
C1444 C1442 1.320 . S
C1444 C1445 1.405 . S
C1444 H1470 0.930 . S
C1445 C1440 1.479 . S
C1445 C1444 1.405 . S
C1445 H1471 0.931 . S
U1446 O1447 2.454 . S
U1446 O1448 2.458 . S
U1446 C1449 2.984 . S
U1446 C1450 2.847 . S
U1446 C1463 2.882 . S
U1446 O1464 2.441 . S
U1446 O1465 2.420 . S
U1446 O1466 2.455 . S
U1446 O1467 2.449 . S
O1447 U1446 2.454 . S
O1447 C1449 1.353 . S
O1448 U1446 2.458 . S
O1448 C1449 1.286 . S
C1449 U1446 2.984 . S
C1449 O1447 1.353 . S
C1449 O1448 1.286 . S
C1449 C1451 1.363 . S
C1450 C1440 1.465 . S
C1450 U1446 2.847 . S
C1450 O1464 1.249 . S
C1450 O1465 1.202 . S
C1451 C1449 1.363 . S
C1451 C1453 1.408 . S
C1451 C1456 1.342 . S
C1452 C1453 1.310 . S
C1452 C1455 1.461 . S
C1452 H1472 0.932 . S
C1453 C1451 1.408 . S
C1453 C1452 1.310 . S
C1453 H1473 0.930 . S
C1454 C1455 1.474 . S
C1454 C1456 1.285 . S
C1454 H1474 0.929 . S
C1455 C1452 1.461 . S
C1455 C1454 1.474 . S
C1456 C1451 1.342 . S
C1456 C1454 1.285 . S
C1456 H1475 0.930 . S
C1457 C1460 1.424 . S
C1457 C1462 1.245 . S
C1457 C1463 1.428 . S
C1458 C1461 1.260 . S
C1458 C1462 1.477 . S
C1458 H1476 0.932 . S
C1459 C1460 1.384 . S
C1459 C1461 1.479 . S
C1459 H1477 0.929 . S
C1460 C1457 1.424 . S
C1460 C1459 1.384 . S
C1460 H1478 0.928 . S
C1461 C1458 1.260 . S
C1461 C1459 1.479 . S
C1462 C1457 1.245 . S
C1462 C1458 1.477 . S
C1462 H1479 0.932 . S
C1463 U1446 2.882 . S
C1463 C1457 1.428 . S
C1463 O1466 1.301 . S
C1463 O1467 1.282 . S
O1464 U1446 2.441 . S
O1464 C1450 1.249 . S
O1465 U1446 2.420 . S
O1465 C1450 1.202 . S
O1466 U1446 2.455 . S
O1466 C1463 1.301 . S
O1467 U1446 2.449 . S
O1467 C1463 1.282 . S
H1468 C1441 0.931 . S
H1469 C1443 0.929 . S
H1470 C1444 0.930 . S
H1471 C1445 0.931 . S
H1472 C1452 0.932 . S
H1473 C1453 0.930 . S
H1474 C1454 0.929 . S
H1475 C1456 0.930 . S
H1476 C1458 0.932 . S
H1477 C1459 0.929 . S
H1478 C1460 0.928 . S
H1479 C1462 0.932 . S
C1480 C1481 1.264 . S
C1480 C1485 1.479 . S
C1480 C1490 1.465 . S
C1481 C1480 1.264 . S
C1481 C1483 1.339 . S
C1481 H1508 0.931 . S
C1482 C1483 1.395 . S
C1482 C1484 1.320 . S
C1483 C1481 1.339 . S
C1483 C1482 1.395 . S
C1483 H1509 0.929 . S
C1484 C1482 1.320 . S
C1484 C1485 1.405 . S
C1484 H1510 0.930 . S
C1485 C1480 1.479 . S
C1485 C1484 1.405 . S
C1485 H1511 0.931 . S
U1486 O1487 2.454 . S
U1486 O1488 2.458 . S
U1486 C1489 2.984 . S
U1486 C1490 2.847 . S
U1486 C1503 2.882 . S
U1486 O1504 2.441 . S
U1486 O1505 2.420 . S
U1486 O1506 2.455 . S
U1486 O1507 2.449 . S
O1487 U1486 2.454 . S
O1487 C1489 1.353 . S
O1488 U1486 2.458 . S
O1488 C1489 1.286 . S
C1489 U1486 2.984 . S
C1489 O1487 1.353 . S
C1489 O1488 1.286 . S
C1489 C1491 1.363 . S
C1490 C1480 1.465 . S
C1490 U1486 2.847 . S
C1490 O1504 1.249 . S
C1490 O1505 1.202 . S
C1491 C1489 1.363 . S
C1491 C1493 1.408 . S
C1491 C1496 1.342 . S
C1492 C1493 1.310 . S
C1492 C1495 1.461 . S
C1492 H1512 0.932 . S
C1493 C1491 1.408 . S
C1493 C1492 1.310 . S
C1493 H1513 0.930 . S
C1494 C1495 1.474 . S
C1494 C1496 1.285 . S
C1494 H1514 0.929 . S
C1495 C1492 1.461 . S
C1495 C1494 1.474 . S
C1496 C1491 1.342 . S
C1496 C1494 1.285 . S
C1496 H1515 0.930 . S
C1497 C1500 1.424 . S
C1497 C1502 1.245 . S
C1497 C1503 1.428 . S
C1498 C1501 1.260 . S
C1498 C1502 1.477 . S
C1498 H1516 0.932 . S
C1499 C1500 1.384 . S
C1499 C1501 1.479 . S
C1499 H1517 0.929 . S
C1500 C1497 1.424 . S
C1500 C1499 1.384 . S
C1500 H1518 0.928 . S
C1501 C1498 1.260 . S
C1501 C1499 1.479 . S
C1502 C1497 1.245 . S
C1502 C1498 1.477 . S
C1502 H1519 0.932 . S
C1503 U1486 2.882 . S
C1503 C1497 1.428 . S
C1503 O1506 1.301 . S
C1503 O1507 1.282 . S
O1504 U1486 2.441 . S
O1504 C1490 1.249 . S
O1505 U1486 2.420 . S
O1505 C1490 1.202 . S
O1506 U1486 2.455 . S
O1506 C1503 1.301 . S
O1507 U1486 2.449 . S
O1507 C1503 1.282 . S
H1508 C1481 0.931 . S
H1509 C1483 0.929 . S
H1510 C1484 0.930 . S
H1511 C1485 0.931 . S
H1512 C1492 0.932 . S
H1513 C1493 0.930 . S
H1514 C1494 0.929 . S
H1515 C1496 0.930 . S
H1516 C1498 0.932 . S
H1517 C1499 0.929 . S
H1518 C1500 0.928 . S
H1519 C1502 0.932 . S
C1520 C1521 1.264 . S
C1520 C1525 1.479 . S
C1520 C1530 1.465 . S
C1521 C1520 1.264 . S
C1521 C1523 1.339 . S
C1521 H1548 0.931 . S
C1522 C1523 1.395 . S
C1522 C1524 1.320 . S
C1523 C1521 1.339 . S
C1523 C1522 1.395 . S
C1523 H1549 0.929 . S
C1524 C1522 1.320 . S
C1524 C1525 1.405 . S
C1524 H1550 0.930 . S
C1525 C1520 1.479 . S
C1525 C1524 1.405 . S
C1525 H1551 0.931 . S
U1526 O1527 2.454 . S
U1526 O1528 2.458 . S
U1526 C1529 2.984 . S
U1526 C1530 2.847 . S
U1526 C1543 2.882 . S
U1526 O1544 2.441 . S
U1526 O1545 2.420 . S
U1526 O1546 2.455 . S
U1526 O1547 2.449 . S
O1527 U1526 2.454 . S
O1527 C1529 1.353 . S
O1528 U1526 2.458 . S
O1528 C1529 1.286 . S
C1529 U1526 2.984 . S
C1529 O1527 1.353 . S
C1529 O1528 1.286 . S
C1529 C1531 1.363 . S
C1530 C1520 1.465 . S
C1530 U1526 2.847 . S
C1530 O1544 1.249 . S
C1530 O1545 1.202 . S
C1531 C1529 1.363 . S
C1531 C1533 1.408 . S
C1531 C1536 1.342 . S
C1532 C1533 1.310 . S
C1532 C1535 1.461 . S
C1532 H1552 0.932 . S
C1533 C1531 1.408 . S
C1533 C1532 1.310 . S
C1533 H1553 0.930 . S
C1534 C1535 1.474 . S
C1534 C1536 1.285 . S
C1534 H1554 0.929 . S
C1535 C1532 1.461 . S
C1535 C1534 1.474 . S
C1536 C1531 1.342 . S
C1536 C1534 1.285 . S
C1536 H1555 0.930 . S
C1537 C1540 1.424 . S
C1537 C1542 1.245 . S
C1537 C1543 1.428 . S
C1538 C1541 1.260 . S
C1538 C1542 1.477 . S
C1538 H1556 0.932 . S
C1539 C1540 1.384 . S
C1539 C1541 1.479 . S
C1539 H1557 0.929 . S
C1540 C1537 1.424 . S
C1540 C1539 1.384 . S
C1540 H1558 0.928 . S
C1541 C1538 1.260 . S
C1541 C1539 1.479 . S
C1542 C1537 1.245 . S
C1542 C1538 1.477 . S
C1542 H1559 0.932 . S
C1543 U1526 2.882 . S
C1543 C1537 1.428 . S
C1543 O1546 1.301 . S
C1543 O1547 1.282 . S
O1544 U1526 2.441 . S
O1544 C1530 1.249 . S
O1545 U1526 2.420 . S
O1545 C1530 1.202 . S
O1546 U1526 2.455 . S
O1546 C1543 1.301 . S
O1547 U1526 2.449 . S
O1547 C1543 1.282 . S
H1548 C1521 0.931 . S
H1549 C1523 0.929 . S
H1550 C1524 0.930 . S
H1551 C1525 0.931 . S
H1552 C1532 0.932 . S
H1553 C1533 0.930 . S
H1554 C1534 0.929 . S
H1555 C1536 0.930 . S
H1556 C1538 0.932 . S
H1557 C1539 0.929 . S
H1558 C1540 0.928 . S
H1559 C1542 0.932 . S
C1560 C1561 1.264 . S
C1560 C1565 1.479 . S
C1560 C1570 1.465 . S
C1561 C1560 1.264 . S
C1561 C1563 1.339 . S
C1561 H1588 0.931 . S
C1562 C1563 1.395 . S
C1562 C1564 1.320 . S
C1563 C1561 1.339 . S
C1563 C1562 1.395 . S
C1563 H1589 0.929 . S
C1564 C1562 1.320 . S
C1564 C1565 1.405 . S
C1564 H1590 0.930 . S
C1565 C1560 1.479 . S
C1565 C1564 1.405 . S
C1565 H1591 0.931 . S
U1566 O1567 2.454 . S
U1566 O1568 2.458 . S
U1566 C1569 2.984 . S
U1566 C1570 2.847 . S
U1566 C1583 2.882 . S
U1566 O1584 2.441 . S
U1566 O1585 2.420 . S
U1566 O1586 2.455 . S
U1566 O1587 2.449 . S
O1567 U1566 2.454 . S
O1567 C1569 1.353 . S
O1568 U1566 2.458 . S
O1568 C1569 1.286 . S
C1569 U1566 2.984 . S
C1569 O1567 1.353 . S
C1569 O1568 1.286 . S
C1569 C1571 1.363 . S
C1570 C1560 1.465 . S
C1570 U1566 2.847 . S
C1570 O1584 1.249 . S
C1570 O1585 1.202 . S
C1571 C1569 1.363 . S
C1571 C1573 1.408 . S
C1571 C1576 1.342 . S
C1572 C1573 1.310 . S
C1572 C1575 1.461 . S
C1572 H1592 0.932 . S
C1573 C1571 1.408 . S
C1573 C1572 1.310 . S
C1573 H1593 0.930 . S
C1574 C1575 1.474 . S
C1574 C1576 1.285 . S
C1574 H1594 0.929 . S
C1575 C1572 1.461 . S
C1575 C1574 1.474 . S
C1576 C1571 1.342 . S
C1576 C1574 1.285 . S
C1576 H1595 0.930 . S
C1577 C1580 1.424 . S
C1577 C1582 1.245 . S
C1577 C1583 1.428 . S
C1578 C1581 1.260 . S
C1578 C1582 1.477 . S
C1578 H1596 0.932 . S
C1579 C1580 1.384 . S
C1579 C1581 1.479 . S
C1579 H1597 0.929 . S
C1580 C1577 1.424 . S
C1580 C1579 1.384 . S
C1580 H1598 0.928 . S
C1581 C1578 1.260 . S
C1581 C1579 1.479 . S
C1582 C1577 1.245 . S
C1582 C1578 1.477 . S
C1582 H1599 0.932 . S
C1583 U1566 2.882 . S
C1583 C1577 1.428 . S
C1583 O1586 1.301 . S
C1583 O1587 1.282 . S
O1584 U1566 2.441 . S
O1584 C1570 1.249 . S
O1585 U1566 2.420 . S
O1585 C1570 1.202 . S
O1586 U1566 2.455 . S
O1586 C1583 1.301 . S
O1587 U1566 2.449 . S
O1587 C1583 1.282 . S
H1588 C1561 0.931 . S
H1589 C1563 0.929 . S
H1590 C1564 0.930 . S
H1591 C1565 0.931 . S
H1592 C1572 0.932 . S
H1593 C1573 0.930 . S
H1594 C1574 0.929 . S
H1595 C1576 0.930 . S
H1596 C1578 0.932 . S
H1597 C1579 0.929 . S
H1598 C1580 0.928 . S
H1599 C1582 0.932 . S
C1600 C1601 1.268 . S
C1600 C1605 1.535 . S
C1600 C1610 1.407 1_655 S
C1601 C1600 1.268 . S
C1601 C1603 1.339 . S
C1601 H1628 0.931 1_655 S
C1602 C1603 1.395 . S
C1602 C1604 1.320 . S
C1603 C1601 1.339 . S
C1603 C1602 1.395 . S
C1603 H1629 0.929 . S
C1604 C1602 1.320 . S
C1604 C1605 1.405 . S
C1604 H1630 0.930 . S
C1605 C1600 1.535 . S
C1605 C1604 1.405 . S
C1605 H1631 0.931 . S
U1606 O1607 2.454 . S
U1606 O1608 2.458 . S
U1606 C1609 2.984 . S
U1606 C1610 2.847 . S
U1606 C1623 2.882 . S
U1606 O1624 2.441 . S
U1606 O1625 2.420 . S
U1606 O1626 2.455 . S
U1606 O1627 2.449 . S
O1607 U1606 2.454 . S
O1607 C1609 1.353 . S
O1608 U1606 2.458 . S
O1608 C1609 1.286 . S
C1609 U1606 2.984 . S
C1609 O1607 1.353 . S
C1609 O1608 1.286 . S
C1609 C1611 1.363 . S
C1610 C1600 1.407 1_455 S
C1610 U1606 2.847 . S
C1610 O1624 1.249 . S
C1610 O1625 1.202 . S
C1611 C1609 1.363 . S
C1611 C1613 1.408 . S
C1611 C1616 1.342 . S
C1612 C1613 1.310 . S
C1612 C1615 1.461 . S
C1612 H1632 0.932 . S
C1613 C1611 1.408 . S
C1613 C1612 1.310 . S
C1613 H1633 0.930 . S
C1614 C1615 1.474 . S
C1614 C1616 1.285 . S
C1614 H1634 0.929 . S
C1615 C1612 1.461 . S
C1615 C1614 1.474 . S
C1616 C1611 1.342 . S
C1616 C1614 1.285 . S
C1616 H1635 0.930 . S
C1617 C1620 1.424 . S
C1617 C1622 1.245 . S
C1617 C1623 1.428 . S
C1618 C1621 1.260 . S
C1618 C1622 1.477 . S
C1618 H1636 0.932 . S
C1619 C1620 1.384 . S
C1619 C1621 1.479 . S
C1619 H1637 0.929 . S
C1620 C1617 1.424 . S
C1620 C1619 1.384 . S
C1620 H1638 0.928 . S
C1621 C1618 1.260 . S
C1621 C1619 1.479 . S
C1622 C1617 1.245 . S
C1622 C1618 1.477 . S
C1622 H1639 0.932 . S
C1623 U1606 2.882 . S
C1623 C1617 1.428 . S
C1623 O1626 1.301 . S
C1623 O1627 1.282 . S
O1624 U1606 2.441 . S
O1624 C1610 1.249 . S
O1625 U1606 2.420 . S
O1625 C1610 1.202 . S
O1626 U1606 2.455 . S
O1626 C1623 1.301 . S
O1627 U1606 2.449 . S
O1627 C1623 1.282 . S
H1628 C1601 0.931 1_455 S
H1629 C1603 0.929 . S
H1630 C1604 0.930 . S
H1631 C1605 0.931 . S
H1632 C1612 0.932 . S
H1633 C1613 0.930 . S
H1634 C1614 0.929 . S
H1635 C1616 0.930 . S
H1636 C1618 0.932 . S
H1637 C1619 0.929 . S
H1638 C1620 0.928 . S
H1639 C1622 0.932 . S
C1640 C1641 1.264 . S
C1640 C1645 1.479 . S
C1640 C1650 1.465 . S
C1641 C1640 1.264 . S
C1641 C1643 1.339 . S
C1641 H1668 0.931 . S
C1642 C1643 1.395 . S
C1642 C1644 1.320 . S
C1643 C1641 1.339 . S
C1643 C1642 1.395 . S
C1643 H1669 0.929 . S
C1644 C1642 1.320 . S
C1644 C1645 1.405 . S
C1644 H1670 0.930 . S
C1645 C1640 1.479 . S
C1645 C1644 1.405 . S
C1645 H1671 0.931 . S
U1646 O1647 2.454 . S
U1646 O1648 2.458 . S
U1646 C1649 2.984 . S
U1646 C1650 2.847 . S
U1646 C1663 2.882 . S
U1646 O1664 2.441 . S
U1646 O1665 2.420 . S
U1646 O1666 2.455 . S
U1646 O1667 2.449 . S
O1647 U1646 2.454 . S
O1647 C1649 1.353 . S
O1648 U1646 2.458 . S
O1648 C1649 1.286 . S
C1649 U1646 2.984 . S
C1649 O1647 1.353 . S
C1649 O1648 1.286 . S
C1649 C1651 1.363 . S
C1650 C1640 1.465 . S
C1650 U1646 2.847 . S
C1650 O1664 1.249 . S
C1650 O1665 1.202 . S
C1651 C1649 1.363 . S
C1651 C1653 1.408 . S
C1651 C1656 1.342 . S
C1652 C1653 1.310 . S
C1652 C1655 1.461 . S
C1652 H1672 0.932 . S
C1653 C1651 1.408 . S
C1653 C1652 1.310 . S
C1653 H1673 0.930 . S
C1654 C1655 1.474 . S
C1654 C1656 1.285 . S
C1654 H1674 0.929 . S
C1655 C1652 1.461 . S
C1655 C1654 1.474 . S
C1656 C1651 1.342 . S
C1656 C1654 1.285 . S
C1656 H1675 0.930 . S
C1657 C1660 1.424 . S
C1657 C1662 1.245 . S
C1657 C1663 1.428 . S
C1658 C1661 1.260 . S
C1658 C1662 1.477 . S
C1658 H1676 0.932 . S
C1659 C1660 1.384 . S
C1659 C1661 1.479 . S
C1659 H1677 0.929 . S
C1660 C1657 1.424 . S
C1660 C1659 1.384 . S
C1660 H1678 0.928 . S
C1661 C1658 1.260 . S
C1661 C1659 1.479 . S
C1662 C1657 1.245 . S
C1662 C1658 1.477 . S
C1662 H1679 0.932 . S
C1663 U1646 2.882 . S
C1663 C1657 1.428 . S
C1663 O1666 1.301 . S
C1663 O1667 1.282 . S
O1664 U1646 2.441 . S
O1664 C1650 1.249 . S
O1665 U1646 2.420 . S
O1665 C1650 1.202 . S
O1666 U1646 2.455 . S
O1666 C1663 1.301 . S
O1667 U1646 2.449 . S
O1667 C1663 1.282 . S
H1668 C1641 0.931 . S
H1669 C1643 0.929 . S
H1670 C1644 0.930 . S
H1671 C1645 0.931 . S
H1672 C1652 0.932 . S
H1673 C1653 0.930 . S
H1674 C1654 0.929 . S
H1675 C1656 0.930 . S
H1676 C1658 0.932 . S
H1677 C1659 0.929 . S
H1678 C1660 0.928 . S
H1679 C1662 0.932 . S
C1680 C1681 1.264 . S
C1680 C1685 1.479 . S
C1680 C1690 1.465 . S
C1681 C1680 1.264 . S
C1681 C1683 1.339 . S
C1681 H1708 0.931 . S
C1682 C1683 1.395 . S
C1682 C1684 1.320 . S
C1683 C1681 1.339 . S
C1683 C1682 1.395 . S
C1683 H1709 0.929 . S
C1684 C1682 1.320 . S
C1684 C1685 1.405 . S
C1684 H1710 0.930 . S
C1685 C1680 1.479 . S
C1685 C1684 1.405 . S
C1685 H1711 0.931 . S
U1686 O1687 2.454 . S
U1686 O1688 2.458 . S
U1686 C1689 2.984 . S
U1686 C1690 2.847 . S
U1686 C1703 2.882 . S
U1686 O1704 2.441 . S
U1686 O1705 2.420 . S
U1686 O1706 2.455 . S
U1686 O1707 2.449 . S
O1687 U1686 2.454 . S
O1687 C1689 1.353 . S
O1688 U1686 2.458 . S
O1688 C1689 1.286 . S
C1689 U1686 2.984 . S
C1689 O1687 1.353 . S
C1689 O1688 1.286 . S
C1689 C1691 1.363 1_554 S
C1690 C1680 1.465 . S
C1690 U1686 2.847 . S
C1690 O1704 1.249 . S
C1690 O1705 1.202 . S
C1691 C1689 1.363 1_556 S
C1691 C1693 1.408 . S
C1691 C1696 1.342 . S
C1692 C1693 1.310 . S
C1692 C1695 1.461 . S
C1692 H1712 0.932 . S
C1693 C1691 1.408 . S
C1693 C1692 1.310 . S
C1693 H1713 0.930 . S
C1694 C1695 1.474 . S
C1694 C1696 1.285 . S
C1694 H1714 0.929 . S
C1695 C1692 1.461 . S
C1695 C1694 1.474 . S
C1696 C1691 1.342 . S
C1696 C1694 1.285 . S
C1696 H1715 0.930 1_556 S
C1697 C1700 1.424 . S
C1697 C1702 1.245 . S
C1697 C1703 1.428 . S
C1698 C1701 1.260 . S
C1698 C1702 1.477 . S
C1698 H1716 0.932 . S
C1699 C1700 1.384 . S
C1699 C1701 1.479 . S
C1699 H1717 0.929 . S
C1700 C1697 1.424 . S
C1700 C1699 1.384 . S
C1700 H1718 0.928 . S
C1701 C1698 1.260 . S
C1701 C1699 1.479 . S
C1702 C1697 1.245 . S
C1702 C1698 1.477 . S
C1702 H1719 0.932 . S
C1703 U1686 2.882 . S
C1703 C1697 1.428 . S
C1703 O1706 1.301 . S
C1703 O1707 1.282 . S
O1704 U1686 2.441 . S
O1704 C1690 1.249 . S
O1705 U1686 2.420 . S
O1705 C1690 1.202 . S
O1706 U1686 2.455 . S
O1706 C1703 1.301 . S
O1707 U1686 2.449 . S
O1707 C1703 1.282 . S
H1708 C1681 0.931 . S
H1709 C1683 0.929 . S
H1710 C1684 0.930 . S
H1711 C1685 0.931 . S
H1712 C1692 0.932 . S
H1713 C1693 0.930 . S
H1714 C1694 0.929 . S
H1715 C1696 0.930 1_554 S
H1716 C1698 0.932 . S
H1717 C1699 0.929 . S
H1718 C1700 0.928 . S
H1719 C1702 0.932 . S
C1720 C1721 1.264 . S
C1720 C1725 1.479 . S
C1720 C1730 1.465 . S
C1721 C1720 1.264 . S
C1721 C1723 1.339 . S
C1721 H1748 0.931 . S
C1722 C1723 1.395 . S
C1722 C1724 1.320 . S
C1723 C1721 1.339 . S
C1723 C1722 1.395 . S
C1723 H1749 0.929 . S
C1724 C1722 1.320 . S
C1724 C1725 1.405 . S
C1724 H1750 0.930 . S
C1725 C1720 1.479 . S
C1725 C1724 1.405 . S
C1725 H1751 0.931 . S
U1726 O1727 2.454 . S
U1726 O1728 2.458 . S
U1726 C1729 2.984 . S
U1726 C1730 2.847 . S
U1726 C1743 2.882 . S
U1726 O1744 2.441 . S
U1726 O1745 2.420 . S
U1726 O1746 2.455 . S
U1726 O1747 2.449 . S
O1727 U1726 2.454 . S
O1727 C1729 1.353 . S
O1728 U1726 2.458 . S
O1728 C1729 1.286 . S
C1729 U1726 2.984 . S
C1729 O1727 1.353 . S
C1729 O1728 1.286 . S
C1729 C1731 1.363 . S
C1730 C1720 1.465 . S
C1730 U1726 2.847 . S
C1730 O1744 1.249 . S
C1730 O1745 1.202 . S
C1731 C1729 1.363 . S
C1731 C1733 1.408 . S
C1731 C1736 1.342 . S
C1732 C1733 1.310 . S
C1732 C1735 1.461 . S
C1732 H1752 0.932 . S
C1733 C1731 1.408 . S
C1733 C1732 1.310 . S
C1733 H1753 0.930 . S
C1734 C1735 1.474 . S
C1734 C1736 1.285 . S
C1734 H1754 0.929 . S
C1735 C1732 1.461 . S
C1735 C1734 1.474 . S
C1736 C1731 1.342 . S
C1736 C1734 1.285 . S
C1736 H1755 0.930 . S
C1737 C1740 1.424 . S
C1737 C1742 1.245 . S
C1737 C1743 1.428 . S
C1738 C1741 1.260 . S
C1738 C1742 1.477 . S
C1738 H1756 0.932 . S
C1739 C1740 1.384 . S
C1739 C1741 1.479 . S
C1739 H1757 0.929 . S
C1740 C1737 1.424 . S
C1740 C1739 1.384 . S
C1740 H1758 0.928 . S
C1741 C1738 1.260 . S
C1741 C1739 1.479 . S
C1742 C1737 1.245 . S
C1742 C1738 1.477 . S
C1742 H1759 0.932 . S
C1743 U1726 2.882 . S
C1743 C1737 1.428 . S
C1743 O1746 1.301 . S
C1743 O1747 1.282 . S
O1744 U1726 2.441 . S
O1744 C1730 1.249 . S
O1745 U1726 2.420 . S
O1745 C1730 1.202 . S
O1746 U1726 2.455 . S
O1746 C1743 1.301 . S
O1747 U1726 2.449 . S
O1747 C1743 1.282 . S
H1748 C1721 0.931 . S
H1749 C1723 0.929 . S
H1750 C1724 0.930 . S
H1751 C1725 0.931 . S
H1752 C1732 0.932 . S
H1753 C1733 0.930 . S
H1754 C1734 0.929 . S
H1755 C1736 0.930 . S
H1756 C1738 0.932 . S
H1757 C1739 0.929 . S
H1758 C1740 0.928 . S
H1759 C1742 0.932 . S
C1760 C1761 1.264 . S
C1760 C1765 1.479 . S
C1760 C1770 1.465 . S
C1761 C1760 1.264 . S
C1761 C1763 1.339 . S
C1761 H1788 0.931 . S
C1762 C1763 1.395 . S
C1762 C1764 1.320 . S
C1763 C1761 1.339 . S
C1763 C1762 1.395 . S
C1763 H1789 0.929 . S
C1764 C1762 1.320 . S
C1764 C1765 1.405 . S
C1764 H1790 0.930 . S
C1765 C1760 1.479 . S
C1765 C1764 1.405 . S
C1765 H1791 0.931 . S
U1766 O1767 2.454 . S
U1766 O1768 2.458 . S
U1766 C1769 2.984 . S
U1766 C1770 2.847 . S
U1766 C1783 2.882 . S
U1766 O1784 2.441 . S
U1766 O1785 2.420 . S
U1766 O1786 2.455 . S
U1766 O1787 2.449 . S
O1767 U1766 2.454 . S
O1767 C1769 1.353 . S
O1768 U1766 2.458 . S
O1768 C1769 1.286 . S
C1769 U1766 2.984 . S
C1769 O1767 1.353 . S
C1769 O1768 1.286 . S
C1769 C1771 1.363 . S
C1770 C1760 1.465 . S
C1770 U1766 2.847 . S
C1770 O1784 1.249 . S
C1770 O1785 1.202 . S
C1771 C1769 1.363 . S
C1771 C1773 1.408 . S
C1771 C1776 1.342 . S
C1772 C1773 1.310 . S
C1772 C1775 1.461 . S
C1772 H1792 0.932 . S
C1773 C1771 1.408 . S
C1773 C1772 1.310 . S
C1773 H1793 0.930 . S
C1774 C1775 1.474 . S
C1774 C1776 1.285 . S
C1774 H1794 0.929 . S
C1775 C1772 1.461 . S
C1775 C1774 1.474 . S
C1776 C1771 1.342 . S
C1776 C1774 1.285 . S
C1776 H1795 0.930 . S
C1777 C1780 1.424 . S
C1777 C1782 1.245 . S
C1777 C1783 1.428 . S
C1778 C1781 1.260 . S
C1778 C1782 1.477 . S
C1778 H1796 0.932 . S
C1779 C1780 1.384 . S
C1779 C1781 1.479 . S
C1779 H1797 0.929 . S
C1780 C1777 1.424 . S
C1780 C1779 1.384 . S
C1780 H1798 0.928 . S
C1781 C1778 1.260 . S
C1781 C1779 1.479 . S
C1782 C1777 1.245 . S
C1782 C1778 1.477 . S
C1782 H1799 0.932 . S
C1783 U1766 2.882 . S
C1783 C1777 1.428 . S
C1783 O1786 1.301 . S
C1783 O1787 1.282 . S
O1784 U1766 2.441 . S
O1784 C1770 1.249 . S
O1785 U1766 2.420 . S
O1785 C1770 1.202 . S
O1786 U1766 2.455 . S
O1786 C1783 1.301 . S
O1787 U1766 2.449 . S
O1787 C1783 1.282 . S
H1788 C1761 0.931 . S
H1789 C1763 0.929 . S
H1790 C1764 0.930 . S
H1791 C1765 0.931 . S
H1792 C1772 0.932 . S
H1793 C1773 0.930 . S
H1794 C1774 0.929 . S
H1795 C1776 0.930 . S
H1796 C1778 0.932 . S
H1797 C1779 0.929 . S
H1798 C1780 0.928 . S
H1799 C1782 0.932 . S
C1800 C1801 1.264 . S
C1800 C1805 1.479 . S
C1800 C1810 1.465 . S
C1801 C1800 1.264 . S
C1801 C1803 1.339 . S
C1801 H1828 0.931 . S
C1802 C1803 1.395 . S
C1802 C1804 1.320 . S
C1803 C1801 1.339 . S
C1803 C1802 1.395 . S
C1803 H1829 0.929 . S
C1804 C1802 1.320 . S
C1804 C1805 1.405 . S
C1804 H1830 0.930 . S
C1805 C1800 1.479 . S
C1805 C1804 1.405 . S
C1805 H1831 0.931 . S
U1806 O1807 2.454 . S
U1806 O1808 2.458 . S
U1806 C1809 2.984 . S
U1806 C1810 2.847 . S
U1806 C1823 2.882 . S
U1806 O1824 2.441 . S
U1806 O1825 2.420 . S
U1806 O1826 2.455 . S
U1806 O1827 2.449 . S
O1807 U1806 2.454 . S
O1807 C1809 1.353 . S
O1808 U1806 2.458 . S
O1808 C1809 1.286 . S
C1809 U1806 2.984 . S
C1809 O1807 1.353 . S
C1809 O1808 1.286 . S
C1809 C1811 1.363 . S
C1810 C1800 1.465 . S
C1810 U1806 2.847 . S
C1810 O1824 1.249 . S
C1810 O1825 1.202 . S
C1811 C1809 1.363 . S
C1811 C1813 1.408 . S
C1811 C1816 1.342 . S
C1812 C1813 1.310 . S
C1812 C1815 1.461 . S
C1812 H1832 0.932 . S
C1813 C1811 1.408 . S
C1813 C1812 1.310 . S
C1813 H1833 0.930 . S
C1814 C1815 1.474 . S
C1814 C1816 1.285 . S
C1814 H1834 0.929 . S
C1815 C1812 1.461 . S
C1815 C1814 1.474 . S
C1816 C1811 1.342 . S
C1816 C1814 1.285 . S
C1816 H1835 0.930 . S
C1817 C1820 1.424 . S
C1817 C1822 1.245 . S
C1817 C1823 1.428 . S
C1818 C1821 1.260 . S
C1818 C1822 1.477 . S
C1818 H1836 0.932 . S
C1819 C1820 1.384 . S
C1819 C1821 1.479 . S
C1819 H1837 0.929 . S
C1820 C1817 1.424 . S
C1820 C1819 1.384 . S
C1820 H1838 0.928 . S
C1821 C1818 1.260 . S
C1821 C1819 1.479 . S
C1822 C1817 1.245 . S
C1822 C1818 1.477 . S
C1822 H1839 0.932 . S
C1823 U1806 2.882 . S
C1823 C1817 1.428 . S
C1823 O1826 1.301 . S
C1823 O1827 1.282 . S
O1824 U1806 2.441 . S
O1824 C1810 1.249 . S
O1825 U1806 2.420 . S
O1825 C1810 1.202 . S
O1826 U1806 2.455 . S
O1826 C1823 1.301 . S
O1827 U1806 2.449 . S
O1827 C1823 1.282 . S
H1828 C1801 0.931 . S
H1829 C1803 0.929 . S
H1830 C1804 0.930 . S
H1831 C1805 0.931 . S
H1832 C1812 0.932 . S
H1833 C1813 0.930 . S
H1834 C1814 0.929 . S
H1835 C1816 0.930 . S
H1836 C1818 0.932 . S
H1837 C1819 0.929 . S
H1838 C1820 0.928 . S
H1839 C1822 0.932 . S
C1840 C1841 1.264 . S
C1840 C1845 1.479 . S
C1840 C1850 1.465 . S
C1841 C1840 1.264 . S
C1841 C1843 1.339 . S
C1841 H1868 0.931 . S
C1842 C1843 1.395 . S
C1842 C1844 1.320 . S
C1843 C1841 1.339 . S
C1843 C1842 1.395 . S
C1843 H1869 0.929 . S
C1844 C1842 1.320 . S
C1844 C1845 1.405 . S
C1844 H1870 0.930 . S
C1845 C1840 1.479 . S
C1845 C1844 1.405 . S
C1845 H1871 0.931 . S
U1846 O1847 2.454 . S
U1846 O1848 2.458 . S
U1846 C1849 2.984 . S
U1846 C1850 2.847 . S
U1846 C1863 2.882 . S
U1846 O1864 2.441 . S
U1846 O1865 2.420 . S
U1846 O1866 2.455 . S
U1846 O1867 2.449 . S
O1847 U1846 2.454 . S
O1847 C1849 1.353 . S
O1848 U1846 2.458 . S
O1848 C1849 1.286 . S
C1849 U1846 2.984 . S
C1849 O1847 1.353 . S
C1849 O1848 1.286 . S
C1849 C1851 1.363 . S
C1850 C1840 1.465 . S
C1850 U1846 2.847 . S
C1850 O1864 1.249 . S
C1850 O1865 1.202 . S
C1851 C1849 1.363 . S
C1851 C1853 1.408 . S
C1851 C1856 1.342 . S
C1852 C1853 1.310 . S
C1852 C1855 1.461 . S
C1852 H1872 0.932 . S
C1853 C1851 1.408 . S
C1853 C1852 1.310 . S
C1853 H1873 0.930 . S
C1854 C1855 1.474 . S
C1854 C1856 1.285 . S
C1854 H1874 0.929 . S
C1855 C1852 1.461 . S
C1855 C1854 1.474 . S
C1856 C1851 1.342 . S
C1856 C1854 1.285 . S
C1856 H1875 0.930 . S
C1857 C1860 1.424 . S
C1857 C1862 1.245 . S
C1857 C1863 1.428 . S
C1858 C1861 1.260 . S
C1858 C1862 1.477 . S
C1858 H1876 0.932 . S
C1859 C1860 1.384 . S
C1859 C1861 1.479 . S
C1859 H1877 0.929 . S
C1860 C1857 1.424 . S
C1860 C1859 1.384 . S
C1860 H1878 0.928 . S
C1861 C1858 1.260 . S
C1861 C1859 1.479 . S
C1862 C1857 1.245 . S
C1862 C1858 1.477 . S
C1862 H1879 0.932 . S
C1863 U1846 2.882 . S
C1863 C1857 1.428 . S
C1863 O1866 1.301 . S
C1863 O1867 1.282 . S
O1864 U1846 2.441 . S
O1864 C1850 1.249 . S
O1865 U1846 2.420 . S
O1865 C1850 1.202 . S
O1866 U1846 2.455 . S
O1866 C1863 1.301 . S
O1867 U1846 2.449 . S
O1867 C1863 1.282 . S
H1868 C1841 0.931 . S
H1869 C1843 0.929 . S
H1870 C1844 0.930 . S
H1871 C1845 0.931 . S
H1872 C1852 0.932 . S
H1873 C1853 0.930 . S
H1874 C1854 0.929 . S
H1875 C1856 0.930 . S
H1876 C1858 0.932 . S
H1877 C1859 0.929 . S
H1878 C1860 0.928 . S
H1879 C1862 0.932 . S
C1880 C1881 1.264 . S
C1880 C1885 1.479 . S
C1880 C1890 1.465 . S
C1881 C1880 1.264 . S
C1881 C1883 1.339 . S
C1881 H1908 0.931 . S
C1882 C1883 1.395 . S
C1882 C1884 1.320 . S
C1883 C1881 1.339 . S
C1883 C1882 1.395 . S
C1883 H1909 0.929 . S
C1884 C1882 1.320 . S
C1884 C1885 1.405 . S
C1884 H1910 0.930 . S
C1885 C1880 1.479 . S
C1885 C1884 1.405 . S
C1885 H1911 0.931 . S
U1886 O1887 2.454 . S
U1886 O1888 2.458 . S
U1886 C1889 2.984 . S
U1886 C1890 2.847 . S
U1886 C1903 2.882 . S
U1886 O1904 2.441 . S
U1886 O1905 2.420 . S
U1886 O1906 2.455 . S
U1886 O1907 2.449 . S
O1887 U1886 2.454 . S
O1887 C1889 1.353 . S
O1888 U1886 2.458 . S
O1888 C1889 1.286 . S
C1889 U1886 2.984 . S
C1889 O1887 1.353 . S
C1889 O1888 1.286 . S
C1889 C1891 1.363 . S
C1890 C1880 1.465 . S
C1890 U1886 2.847 . S
C1890 O1904 1.249 . S
C1890 O1905 1.202 . S
C1891 C1889 1.363 . S
C1891 C1893 1.408 . S
C1891 C1896 1.342 . S
C1892 C1893 1.310 . S
C1892 C1895 1.461 . S
C1892 H1912 0.932 . S
C1893 C1891 1.408 . S
C1893 C1892 1.310 . S
C1893 H1913 0.930 . S
C1894 C1895 1.474 . S
C1894 C1896 1.285 . S
C1894 H1914 0.929 . S
C1895 C1892 1.461 . S
C1895 C1894 1.474 . S
C1896 C1891 1.342 . S
C1896 C1894 1.285 . S
C1896 H1915 0.930 . S
C1897 C1900 1.424 . S
C1897 C1902 1.245 . S
C1897 C1903 1.428 . S
C1898 C1901 1.260 . S
C1898 C1902 1.477 . S
C1898 H1916 0.932 . S
C1899 C1900 1.384 . S
C1899 C1901 1.479 . S
C1899 H1917 0.929 . S
C1900 C1897 1.424 . S
C1900 C1899 1.384 . S
C1900 H1918 0.928 . S
C1901 C1898 1.260 . S
C1901 C1899 1.479 . S
C1902 C1897 1.245 . S
C1902 C1898 1.477 . S
C1902 H1919 0.932 . S
C1903 U1886 2.882 . S
C1903 C1897 1.428 . S
C1903 O1906 1.301 . S
C1903 O1907 1.282 . S
O1904 U1886 2.441 . S
O1904 C1890 1.249 . S
O1905 U1886 2.420 . S
O1905 C1890 1.202 . S
O1906 U1886 2.455 . S
O1906 C1903 1.301 . S
O1907 U1886 2.449 . S
O1907 C1903 1.282 . S
H1908 C1881 0.931 . S
H1909 C1883 0.929 . S
H1910 C1884 0.930 . S
H1911 C1885 0.931 . S
H1912 C1892 0.932 . S
H1913 C1893 0.930 . S
H1914 C1894 0.929 . S
H1915 C1896 0.930 . S
H1916 C1898 0.932 . S
H1917 C1899 0.929 . S
H1918 C1900 0.928 . S
H1919 C1902 0.932 . S
C1920 C1921 1.384 . S
C1920 H1933 0.947 . S
C1920 C1955 1.382 . S
C1921 C1920 1.384 . S
C1921 C1922 1.378 . S
C1922 C1921 1.378 . S
C1922 C1923 1.378 . S
C1922 H1934 0.952 . S
C1923 C1922 1.378 . S
C1923 H1935 0.950 . S
C1923 C1954 1.383 . S
H1924 C1943 0.947 . S
H1925 C1944 0.946 . S
H1926 C1946 0.953 . S
H1927 C1947 0.945 . S
H1928 C1949 0.952 . S
H1929 C1950 0.949 . S
H1930 C1952 0.950 . S
H1931 C1953 0.948 . S
H1932 C1955 0.951 . S
H1933 C1920 0.947 . S
H1934 C1922 0.952 . S
H1935 C1923 0.950 . S
N1936 C1939 1.382 . S
N1936 C1941 1.363 . S
N1937 C1939 1.371 . S
N1937 C1940 1.372 . S
N1938 C1940 1.361 . S
N1938 C1941 1.377 . S
C1939 N1936 1.382 . S
C1939 N1937 1.371 . S
C1939 C1942 1.480 . S
C1940 N1937 1.372 . S
C1940 N1938 1.361 . S
C1940 C1948 1.457 . S
C1941 N1936 1.363 . S
C1941 N1938 1.377 . S
C1941 C1954 1.479 . S
C1942 C1939 1.480 . S
C1942 C1943 1.383 . S
C1942 C1947 1.385 . S
C1943 H1924 0.947 . S
C1943 C1942 1.383 . S
C1943 C1944 1.388 . S
C1944 H1925 0.946 . S
C1944 C1943 1.388 . S
C1944 C1945 1.384 . S
C1945 C1944 1.384 . S
C1945 C1946 1.377 . S
C1946 H1926 0.953 . S
C1946 C1945 1.377 . S
C1946 C1947 1.369 . S
C1947 H1927 0.945 . S
C1947 C1942 1.385 . S
C1947 C1946 1.369 . S
C1948 C1940 1.457 . S
C1948 C1949 1.372 . S
C1948 C1953 1.364 . S
C1949 H1928 0.952 . S
C1949 C1948 1.372 . S
C1949 C1950 1.389 . S
C1950 H1929 0.949 . S
C1950 C1949 1.389 . S
C1950 C1951 1.387 . S
C1951 C1950 1.387 . S
C1951 C1952 1.372 . S
C1952 H1930 0.950 . S
C1952 C1951 1.372 . S
C1952 C1953 1.379 . S
C1953 H1931 0.948 . S
C1953 C1948 1.364 . S
C1953 C1952 1.379 . S
C1954 C1923 1.383 . S
C1954 C1941 1.479 . S
C1954 C1955 1.398 . S
C1955 C1920 1.382 . S
C1955 H1932 0.951 . S
C1955 C1954 1.398 . S
C1956 C1957 1.384 . S
C1956 H1969 0.947 . S
C1956 C1991 1.382 . S
C1957 C1956 1.384 . S
C1957 C1958 1.378 . S
C1958 C1957 1.378 . S
C1958 C1959 1.378 . S
C1958 H1970 0.952 . S
C1959 C1958 1.378 . S
C1959 H1971 0.950 . S
C1959 C1990 1.383 . S
H1960 C1979 0.947 . S
H1961 C1980 0.946 . S
H1962 C1982 0.953 . S
H1963 C1983 0.945 . S
H1964 C1985 0.952 . S
H1965 C1986 0.949 . S
H1966 C1988 0.950 . S
H1967 C1989 0.948 . S
H1968 C1991 0.951 . S
H1969 C1956 0.947 . S
H1970 C1958 0.952 . S
H1971 C1959 0.950 . S
N1972 C1975 1.382 . S
N1972 C1977 1.363 . S
N1973 C1975 1.371 . S
N1973 C1976 1.372 . S
N1974 C1976 1.361 . S
N1974 C1977 1.377 . S
C1975 N1972 1.382 . S
C1975 N1973 1.371 . S
C1975 C1978 1.480 . S
C1976 N1973 1.372 . S
C1976 N1974 1.361 . S
C1976 C1984 1.457 . S
C1977 N1972 1.363 . S
C1977 N1974 1.377 . S
C1977 C1990 1.479 . S
C1978 C1975 1.480 . S
C1978 C1979 1.383 . S
C1978 C1983 1.385 . S
C1979 H1960 0.947 . S
C1979 C1978 1.383 . S
C1979 C1980 1.388 . S
C1980 H1961 0.946 . S
C1980 C1979 1.388 . S
C1980 C1981 1.384 . S
C1981 C1980 1.384 . S
C1981 C1982 1.377 . S
C1982 H1962 0.953 . S
C1982 C1981 1.377 . S
C1982 C1983 1.369 . S
C1983 H1963 0.945 . S
C1983 C1978 1.385 . S
C1983 C1982 1.369 . S
C1984 C1976 1.457 . S
C1984 C1985 1.372 . S
C1984 C1989 1.364 . S
C1985 H1964 0.952 . S
C1985 C1984 1.372 . S
C1985 C1986 1.389 . S
C1986 H1965 0.949 . S
C1986 C1985 1.389 . S
C1986 C1987 1.387 . S
C1987 C1986 1.387 . S
C1987 C1988 1.372 . S
C1988 H1966 0.950 . S
C1988 C1987 1.372 . S
C1988 C1989 1.379 . S
C1989 H1967 0.948 . S
C1989 C1984 1.364 . S
C1989 C1988 1.379 . S
C1990 C1959 1.383 . S
C1990 C1977 1.479 . S
C1990 C1991 1.398 . S
C1991 C1956 1.382 . S
C1991 H1968 0.951 . S
C1991 C1990 1.398 . S
C1992 C1993 1.384 . S
C1992 H2005 0.947 . S
C1992 C2027 1.382 . S
C1993 C1992 1.384 . S
C1993 C1994 1.378 . S
C1994 C1993 1.378 . S
C1994 C1995 1.378 . S
C1994 H2006 0.952 . S
C1995 C1994 1.378 . S
C1995 H2007 0.950 . S
C1995 C2026 1.383 . S
H1996 C2015 0.947 . S
H1997 C2016 0.946 . S
H1998 C2018 0.953 . S
H1999 C2019 0.945 . S
H2000 C2021 0.952 . S
H2001 C2022 0.949 . S
H2002 C2024 0.950 . S
H2003 C2025 0.948 . S
H2004 C2027 0.951 . S
H2005 C1992 0.947 . S
H2006 C1994 0.952 . S
H2007 C1995 0.950 . S
N2008 C2011 1.382 . S
N2008 C2013 1.363 . S
N2009 C2011 1.371 . S
N2009 C2012 1.372 . S
N2010 C2012 1.361 . S
N2010 C2013 1.377 . S
C2011 N2008 1.382 . S
C2011 N2009 1.371 . S
C2011 C2014 1.480 . S
C2012 N2009 1.372 . S
C2012 N2010 1.361 . S
C2012 C2020 1.457 . S
C2013 N2008 1.363 . S
C2013 N2010 1.377 . S
C2013 C2026 1.479 . S
C2014 C2011 1.480 . S
C2014 C2015 1.383 . S
C2014 C2019 1.385 . S
C2015 H1996 0.947 . S
C2015 C2014 1.383 . S
C2015 C2016 1.388 . S
C2016 H1997 0.946 . S
C2016 C2015 1.388 . S
C2016 C2017 1.384 . S
C2017 C2016 1.384 . S
C2017 C2018 1.377 . S
C2018 H1998 0.953 . S
C2018 C2017 1.377 . S
C2018 C2019 1.369 . S
C2019 H1999 0.945 . S
C2019 C2014 1.385 . S
C2019 C2018 1.369 . S
C2020 C2012 1.457 . S
C2020 C2021 1.372 . S
C2020 C2025 1.364 . S
C2021 H2000 0.952 . S
C2021 C2020 1.372 . S
C2021 C2022 1.389 . S
C2022 H2001 0.949 . S
C2022 C2021 1.389 . S
C2022 C2023 1.387 . S
C2023 C2022 1.387 . S
C2023 C2024 1.372 . S
C2024 H2002 0.950 . S
C2024 C2023 1.372 . S
C2024 C2025 1.379 . S
C2025 H2003 0.948 . S
C2025 C2020 1.364 . S
C2025 C2024 1.379 . S
C2026 C1995 1.383 . S
C2026 C2013 1.479 . S
C2026 C2027 1.398 . S
C2027 C1992 1.382 . S
C2027 H2004 0.951 . S
C2027 C2026 1.398 . S
C2028 C2029 1.384 . S
C2028 H2041 0.947 . S
C2028 C2063 1.382 . S
C2029 C2028 1.384 . S
C2029 C2030 1.378 . S
C2030 C2029 1.378 . S
C2030 C2031 1.378 . S
C2030 H2042 0.952 . S
C2031 C2030 1.378 . S
C2031 H2043 0.950 . S
C2031 C2062 1.383 . S
H2032 C2051 0.947 . S
H2033 C2052 0.946 . S
H2034 C2054 0.953 . S
H2035 C2055 0.945 . S
H2036 C2057 0.952 . S
H2037 C2058 0.949 . S
H2038 C2060 0.950 . S
H2039 C2061 0.948 . S
H2040 C2063 0.951 . S
H2041 C2028 0.947 . S
H2042 C2030 0.952 . S
H2043 C2031 0.950 . S
N2044 C2047 1.382 . S
N2044 C2049 1.363 . S
N2045 C2047 1.371 . S
N2045 C2048 1.372 . S
N2046 C2048 1.361 . S
N2046 C2049 1.377 . S
C2047 N2044 1.382 . S
C2047 N2045 1.371 . S
C2047 C2050 1.480 . S
C2048 N2045 1.372 . S
C2048 N2046 1.361 . S
C2048 C2056 1.457 . S
C2049 N2044 1.363 . S
C2049 N2046 1.377 . S
C2049 C2062 1.479 . S
C2050 C2047 1.480 . S
C2050 C2051 1.383 . S
C2050 C2055 1.385 . S
C2051 H2032 0.947 . S
C2051 C2050 1.383 . S
C2051 C2052 1.388 . S
C2052 H2033 0.946 . S
C2052 C2051 1.388 . S
C2052 C2053 1.384 . S
C2053 C2052 1.384 . S
C2053 C2054 1.377 . S
C2054 H2034 0.953 . S
C2054 C2053 1.377 . S
C2054 C2055 1.369 . S
C2055 H2035 0.945 . S
C2055 C2050 1.385 . S
C2055 C2054 1.369 . S
C2056 C2048 1.457 . S
C2056 C2057 1.372 . S
C2056 C2061 1.364 . S
C2057 H2036 0.952 . S
C2057 C2056 1.372 . S
C2057 C2058 1.389 . S
C2058 H2037 0.949 . S
C2058 C2057 1.389 . S
C2058 C2059 1.387 . S
C2059 C2058 1.387 . S
C2059 C2060 1.372 . S
C2060 H2038 0.950 . S
C2060 C2059 1.372 . S
C2060 C2061 1.379 . S
C2061 H2039 0.948 . S
C2061 C2056 1.364 . S
C2061 C2060 1.379 . S
C2062 C2031 1.383 . S
C2062 C2049 1.479 . S
C2062 C2063 1.398 . S
C2063 C2028 1.382 . S
C2063 H2040 0.951 . S
C2063 C2062 1.398 . S
C2064 C2065 1.384 . S
C2064 H2077 0.947 . S
C2064 C2099 1.382 . S
C2065 C2064 1.384 . S
C2065 C2066 1.378 . S
C2066 C2065 1.378 . S
C2066 C2067 1.378 . S
C2066 H2078 0.952 . S
C2067 C2066 1.378 . S
C2067 H2079 0.950 . S
C2067 C2098 1.383 . S
H2068 C2087 0.947 . S
H2069 C2088 0.946 . S
H2070 C2090 0.953 . S
H2071 C2091 0.945 . S
H2072 C2093 0.952 . S
H2073 C2094 0.949 . S
H2074 C2096 0.950 . S
H2075 C2097 0.948 . S
H2076 C2099 0.951 . S
H2077 C2064 0.947 . S
H2078 C2066 0.952 . S
H2079 C2067 0.950 . S
N2080 C2083 1.382 . S
N2080 C2085 1.363 . S
N2081 C2083 1.371 . S
N2081 C2084 1.372 . S
N2082 C2084 1.361 . S
N2082 C2085 1.377 . S
C2083 N2080 1.382 . S
C2083 N2081 1.371 . S
C2083 C2086 1.480 . S
C2084 N2081 1.372 . S
C2084 N2082 1.361 . S
C2084 C2092 1.457 . S
C2085 N2080 1.363 . S
C2085 N2082 1.377 . S
C2085 C2098 1.479 . S
C2086 C2083 1.480 . S
C2086 C2087 1.383 . S
C2086 C2091 1.385 . S
C2087 H2068 0.947 . S
C2087 C2086 1.383 . S
C2087 C2088 1.388 . S
C2088 H2069 0.946 . S
C2088 C2087 1.388 . S
C2088 C2089 1.384 . S
C2089 C2088 1.384 . S
C2089 C2090 1.377 . S
C2090 H2070 0.953 . S
C2090 C2089 1.377 . S
C2090 C2091 1.369 . S
C2091 H2071 0.945 . S
C2091 C2086 1.385 . S
C2091 C2090 1.369 . S
C2092 C2084 1.457 . S
C2092 C2093 1.372 . S
C2092 C2097 1.364 . S
C2093 H2072 0.952 . S
C2093 C2092 1.372 . S
C2093 C2094 1.389 . S
C2094 H2073 0.949 . S
C2094 C2093 1.389 . S
C2094 C2095 1.387 . S
C2095 C2094 1.387 . S
C2095 C2096 1.372 . S
C2096 H2074 0.950 . S
C2096 C2095 1.372 . S
C2096 C2097 1.379 . S
C2097 H2075 0.948 . S
C2097 C2092 1.364 . S
C2097 C2096 1.379 . S
C2098 C2067 1.383 . S
C2098 C2085 1.479 . S
C2098 C2099 1.398 . S
C2099 C2064 1.382 . S
C2099 H2076 0.951 . S
C2099 C2098 1.398 . S
C2100 C2101 1.384 . S
C2100 H2113 0.947 . S
C2100 C2135 1.382 . S
C2101 C2100 1.384 . S
C2101 C2102 1.378 . S
C2102 C2101 1.378 . S
C2102 C2103 1.378 . S
C2102 H2114 0.952 . S
C2103 C2102 1.378 . S
C2103 H2115 0.950 . S
C2103 C2134 1.383 . S
H2104 C2123 0.947 . S
H2105 C2124 0.946 . S
H2106 C2126 0.953 . S
H2107 C2127 0.945 . S
H2108 C2129 0.952 . S
H2109 C2130 0.949 . S
H2110 C2132 0.950 . S
H2111 C2133 0.948 . S
H2112 C2135 0.951 . S
H2113 C2100 0.947 . S
H2114 C2102 0.952 . S
H2115 C2103 0.950 . S
N2116 C2119 1.382 . S
N2116 C2121 1.363 . S
N2117 C2119 1.371 . S
N2117 C2120 1.372 . S
N2118 C2120 1.361 . S
N2118 C2121 1.377 . S
C2119 N2116 1.382 . S
C2119 N2117 1.371 . S
C2119 C2122 1.480 . S
C2120 N2117 1.372 . S
C2120 N2118 1.361 . S
C2120 C2128 1.457 . S
C2121 N2116 1.363 . S
C2121 N2118 1.377 . S
C2121 C2134 1.479 . S
C2122 C2119 1.480 . S
C2122 C2123 1.383 . S
C2122 C2127 1.385 . S
C2123 H2104 0.947 . S
C2123 C2122 1.383 . S
C2123 C2124 1.388 . S
C2124 H2105 0.946 . S
C2124 C2123 1.388 . S
C2124 C2125 1.384 . S
C2125 C2124 1.384 . S
C2125 C2126 1.377 . S
C2126 H2106 0.953 . S
C2126 C2125 1.377 . S
C2126 C2127 1.369 . S
C2127 H2107 0.945 . S
C2127 C2122 1.385 . S
C2127 C2126 1.369 . S
C2128 C2120 1.457 . S
C2128 C2129 1.372 . S
C2128 C2133 1.364 . S
C2129 H2108 0.952 . S
C2129 C2128 1.372 . S
C2129 C2130 1.389 . S
C2130 H2109 0.949 . S
C2130 C2129 1.389 . S
C2130 C2131 1.387 . S
C2131 C2130 1.387 . S
C2131 C2132 1.372 . S
C2132 H2110 0.950 . S
C2132 C2131 1.372 . S
C2132 C2133 1.379 . S
C2133 H2111 0.948 . S
C2133 C2128 1.364 . S
C2133 C2132 1.379 . S
C2134 C2103 1.383 . S
C2134 C2121 1.479 . S
C2134 C2135 1.398 . S
C2135 C2100 1.382 . S
C2135 H2112 0.951 . S
C2135 C2134 1.398 . S
C2136 C2137 1.384 . S
C2136 H2149 0.947 . S
C2136 C2171 1.382 . S
C2137 C2136 1.384 . S
C2137 C2138 1.378 . S
C2138 C2137 1.378 . S
C2138 C2139 1.378 . S
C2138 H2150 0.952 . S
C2139 C2138 1.378 . S
C2139 H2151 0.950 . S
C2139 C2170 1.383 . S
H2140 C2159 0.947 . S
H2141 C2160 0.946 . S
H2142 C2162 0.953 . S
H2143 C2163 0.945 . S
H2144 C2165 0.952 . S
H2145 C2166 0.949 . S
H2146 C2168 0.950 . S
H2147 C2169 0.948 . S
H2148 C2171 0.951 . S
H2149 C2136 0.947 . S
H2150 C2138 0.952 . S
H2151 C2139 0.950 . S
N2152 C2155 1.382 . S
N2152 C2157 1.363 . S
N2153 C2155 1.371 . S
N2153 C2156 1.372 . S
N2154 C2156 1.361 . S
N2154 C2157 1.377 . S
C2155 N2152 1.382 . S
C2155 N2153 1.371 . S
C2155 C2158 1.480 . S
C2156 N2153 1.372 . S
C2156 N2154 1.361 . S
C2156 C2164 1.457 . S
C2157 N2152 1.363 . S
C2157 N2154 1.377 . S
C2157 C2170 1.479 . S
C2158 C2155 1.480 . S
C2158 C2159 1.383 . S
C2158 C2163 1.385 . S
C2159 H2140 0.947 . S
C2159 C2158 1.383 . S
C2159 C2160 1.388 . S
C2160 H2141 0.946 . S
C2160 C2159 1.388 . S
C2160 C2161 1.384 . S
C2161 C2160 1.384 . S
C2161 C2162 1.377 . S
C2162 H2142 0.953 . S
C2162 C2161 1.377 . S
C2162 C2163 1.369 . S
C2163 H2143 0.945 . S
C2163 C2158 1.385 . S
C2163 C2162 1.369 . S
C2164 C2156 1.457 . S
C2164 C2165 1.372 . S
C2164 C2169 1.364 . S
C2165 H2144 0.952 . S
C2165 C2164 1.372 . S
C2165 C2166 1.389 . S
C2166 H2145 0.949 . S
C2166 C2165 1.389 . S
C2166 C2167 1.387 . S
C2167 C2166 1.387 . S
C2167 C2168 1.372 . S
C2168 H2146 0.950 . S
C2168 C2167 1.372 . S
C2168 C2169 1.379 . S
C2169 H2147 0.948 . S
C2169 C2164 1.364 . S
C2169 C2168 1.379 . S
C2170 C2139 1.383 . S
C2170 C2157 1.479 . S
C2170 C2171 1.398 . S
C2171 C2136 1.382 . S
C2171 H2148 0.951 . S
C2171 C2170 1.398 . S
C2172 C2173 1.384 . S
C2172 H2185 0.947 . S
C2172 C2207 1.382 . S
C2173 C2172 1.384 . S
C2173 C2174 1.378 . S
C2174 C2173 1.378 . S
C2174 C2175 1.378 . S
C2174 H2186 0.952 . S
C2175 C2174 1.378 . S
C2175 H2187 0.950 . S
C2175 C2206 1.383 . S
H2176 C2195 0.947 . S
H2177 C2196 0.946 . S
H2178 C2198 0.953 . S
H2179 C2199 0.945 . S
H2180 C2201 0.952 . S
H2181 C2202 0.949 . S
H2182 C2204 0.950 . S
H2183 C2205 0.948 . S
H2184 C2207 0.951 . S
H2185 C2172 0.947 . S
H2186 C2174 0.952 . S
H2187 C2175 0.950 . S
N2188 C2191 1.382 . S
N2188 C2193 1.363 . S
N2189 C2191 1.371 . S
N2189 C2192 1.372 . S
N2190 C2192 1.361 . S
N2190 C2193 1.377 . S
C2191 N2188 1.382 . S
C2191 N2189 1.371 . S
C2191 C2194 1.480 . S
C2192 N2189 1.372 . S
C2192 N2190 1.361 . S
C2192 C2200 1.457 . S
C2193 N2188 1.363 . S
C2193 N2190 1.377 . S
C2193 C2206 1.479 . S
C2194 C2191 1.480 . S
C2194 C2195 1.383 . S
C2194 C2199 1.385 . S
C2195 H2176 0.947 . S
C2195 C2194 1.383 . S
C2195 C2196 1.388 . S
C2196 H2177 0.946 . S
C2196 C2195 1.388 . S
C2196 C2197 1.384 . S
C2197 C2196 1.384 . S
C2197 C2198 1.377 . S
C2198 H2178 0.953 . S
C2198 C2197 1.377 . S
C2198 C2199 1.369 . S
C2199 H2179 0.945 . S
C2199 C2194 1.385 . S
C2199 C2198 1.369 . S
C2200 C2192 1.457 . S
C2200 C2201 1.372 . S
C2200 C2205 1.364 . S
C2201 H2180 0.952 . S
C2201 C2200 1.372 . S
C2201 C2202 1.389 . S
C2202 H2181 0.949 . S
C2202 C2201 1.389 . S
C2202 C2203 1.387 . S
C2203 C2202 1.387 . S
C2203 C2204 1.372 . S
C2204 H2182 0.950 . S
C2204 C2203 1.372 . S
C2204 C2205 1.379 . S
C2205 H2183 0.948 . S
C2205 C2200 1.364 . S
C2205 C2204 1.379 . S
C2206 C2175 1.383 . S
C2206 C2193 1.479 . S
C2206 C2207 1.398 . S
C2207 C2172 1.382 . S
C2207 H2184 0.951 . S
C2207 C2206 1.398 . S
C2208 C2209 1.384 . S
C2208 H2221 0.947 . S
C2208 C2243 1.382 . S
C2209 C2208 1.384 . S
C2209 C2210 1.378 . S
C2210 C2209 1.378 . S
C2210 C2211 1.378 . S
C2210 H2222 0.952 . S
C2211 C2210 1.378 . S
C2211 H2223 0.950 . S
C2211 C2242 1.383 . S
H2212 C2231 0.947 . S
H2213 C2232 0.946 . S
H2214 C2234 0.953 . S
H2215 C2235 0.945 . S
H2216 C2237 0.952 . S
H2217 C2238 0.949 . S
H2218 C2240 0.950 . S
H2219 C2241 0.948 . S
H2220 C2243 0.951 . S
H2221 C2208 0.947 . S
H2222 C2210 0.952 . S
H2223 C2211 0.950 . S
N2224 C2227 1.382 . S
N2224 C2229 1.363 . S
N2225 C2227 1.371 . S
N2225 C2228 1.372 . S
N2226 C2228 1.361 . S
N2226 C2229 1.377 . S
C2227 N2224 1.382 . S
C2227 N2225 1.371 . S
C2227 C2230 1.480 . S
C2228 N2225 1.372 . S
C2228 N2226 1.361 . S
C2228 C2236 1.457 . S
C2229 N2224 1.363 . S
C2229 N2226 1.377 . S
C2229 C2242 1.479 . S
C2230 C2227 1.480 . S
C2230 C2231 1.383 . S
C2230 C2235 1.385 . S
C2231 H2212 0.947 . S
C2231 C2230 1.383 . S
C2231 C2232 1.388 . S
C2232 H2213 0.946 . S
C2232 C2231 1.388 . S
C2232 C2233 1.384 . S
C2233 C2232 1.384 . S
C2233 C2234 1.377 . S
C2234 H2214 0.953 . S
C2234 C2233 1.377 . S
C2234 C2235 1.369 . S
C2235 H2215 0.945 . S
C2235 C2230 1.385 . S
C2235 C2234 1.369 . S
C2236 C2228 1.457 . S
C2236 C2237 1.372 . S
C2236 C2241 1.364 . S
C2237 H2216 0.952 . S
C2237 C2236 1.372 . S
C2237 C2238 1.389 . S
C2238 H2217 0.949 . S
C2238 C2237 1.389 . S
C2238 C2239 1.387 . S
C2239 C2238 1.387 . S
C2239 C2240 1.372 . S
C2240 H2218 0.950 . S
C2240 C2239 1.372 . S
C2240 C2241 1.379 . S
C2241 H2219 0.948 . S
C2241 C2236 1.364 . S
C2241 C2240 1.379 . S
C2242 C2211 1.383 . S
C2242 C2229 1.479 . S
C2242 C2243 1.398 . S
C2243 C2208 1.382 . S
C2243 H2220 0.951 . S
C2243 C2242 1.398 . S
C2244 C2245 1.384 . S
C2244 H2257 0.947 . S
C2244 C2279 1.382 . S
C2245 C2244 1.384 . S
C2245 C2246 1.378 . S
C2246 C2245 1.378 . S
C2246 C2247 1.378 . S
C2246 H2258 0.952 . S
C2247 C2246 1.378 . S
C2247 H2259 0.950 . S
C2247 C2278 1.383 . S
H2248 C2267 0.947 . S
H2249 C2268 0.946 . S
H2250 C2270 0.953 . S
H2251 C2271 0.945 . S
H2252 C2273 0.952 . S
H2253 C2274 0.949 . S
H2254 C2276 0.950 . S
H2255 C2277 0.948 . S
H2256 C2279 0.951 . S
H2257 C2244 0.947 . S
H2258 C2246 0.952 . S
H2259 C2247 0.950 . S
N2260 C2263 1.382 . S
N2260 C2265 1.363 . S
N2261 C2263 1.371 . S
N2261 C2264 1.372 . S
N2262 C2264 1.361 . S
N2262 C2265 1.377 . S
C2263 N2260 1.382 . S
C2263 N2261 1.371 . S
C2263 C2266 1.480 . S
C2264 N2261 1.372 . S
C2264 N2262 1.361 . S
C2264 C2272 1.457 . S
C2265 N2260 1.363 . S
C2265 N2262 1.377 . S
C2265 C2278 1.479 . S
C2266 C2263 1.480 . S
C2266 C2267 1.383 . S
C2266 C2271 1.385 . S
C2267 H2248 0.947 . S
C2267 C2266 1.383 . S
C2267 C2268 1.388 . S
C2268 H2249 0.946 . S
C2268 C2267 1.388 . S
C2268 C2269 1.384 . S
C2269 C2268 1.384 . S
C2269 C2270 1.377 . S
C2270 H2250 0.953 . S
C2270 C2269 1.377 . S
C2270 C2271 1.369 . S
C2271 H2251 0.945 . S
C2271 C2266 1.385 . S
C2271 C2270 1.369 . S
C2272 C2264 1.457 . S
C2272 C2273 1.372 . S
C2272 C2277 1.364 . S
C2273 H2252 0.952 . S
C2273 C2272 1.372 . S
C2273 C2274 1.389 . S
C2274 H2253 0.949 . S
C2274 C2273 1.389 . S
C2274 C2275 1.387 . S
C2275 C2274 1.387 . S
C2275 C2276 1.372 . S
C2276 H2254 0.950 . S
C2276 C2275 1.372 . S
C2276 C2277 1.379 . S
C2277 H2255 0.948 . S
C2277 C2272 1.364 . S
C2277 C2276 1.379 . S
C2278 C2247 1.383 . S
C2278 C2265 1.479 . S
C2278 C2279 1.398 . S
C2279 C2244 1.382 . S
C2279 H2256 0.951 . S
C2279 C2278 1.398 . S
C2280 C2281 1.384 . S
C2280 H2293 0.947 . S
C2280 C2315 1.382 . S
C2281 C2280 1.384 . S
C2281 C2282 1.378 . S
C2282 C2281 1.378 . S
C2282 C2283 1.378 . S
C2282 H2294 0.952 . S
C2283 C2282 1.378 . S
C2283 H2295 0.950 . S
C2283 C2314 1.383 . S
H2284 C2303 0.947 . S
H2285 C2304 0.946 . S
H2286 C2306 0.953 . S
H2287 C2307 0.945 . S
H2288 C2309 0.952 . S
H2289 C2310 0.949 . S
H2290 C2312 0.950 . S
H2291 C2313 0.948 . S
H2292 C2315 0.951 . S
H2293 C2280 0.947 . S
H2294 C2282 0.952 . S
H2295 C2283 0.950 . S
N2296 C2299 1.382 . S
N2296 C2301 1.363 . S
N2297 C2299 1.371 . S
N2297 C2300 1.372 . S
N2298 C2300 1.361 . S
N2298 C2301 1.377 . S
C2299 N2296 1.382 . S
C2299 N2297 1.371 . S
C2299 C2302 1.480 . S
C2300 N2297 1.372 . S
C2300 N2298 1.361 . S
C2300 C2308 1.457 . S
C2301 N2296 1.363 . S
C2301 N2298 1.377 . S
C2301 C2314 1.479 . S
C2302 C2299 1.480 . S
C2302 C2303 1.383 . S
C2302 C2307 1.385 . S
C2303 H2284 0.947 . S
C2303 C2302 1.383 . S
C2303 C2304 1.388 . S
C2304 H2285 0.946 . S
C2304 C2303 1.388 . S
C2304 C2305 1.384 . S
C2305 C2304 1.384 . S
C2305 C2306 1.377 . S
C2306 H2286 0.953 . S
C2306 C2305 1.377 . S
C2306 C2307 1.369 . S
C2307 H2287 0.945 . S
C2307 C2302 1.385 . S
C2307 C2306 1.369 . S
C2308 C2300 1.457 . S
C2308 C2309 1.372 . S
C2308 C2313 1.364 . S
C2309 H2288 0.952 . S
C2309 C2308 1.372 . S
C2309 C2310 1.389 . S
C2310 H2289 0.949 . S
C2310 C2309 1.389 . S
C2310 C2311 1.387 . S
C2311 C2310 1.387 . S
C2311 C2312 1.372 . S
C2312 H2290 0.950 . S
C2312 C2311 1.372 . S
C2312 C2313 1.379 . S
C2313 H2291 0.948 . S
C2313 C2308 1.364 . S
C2313 C2312 1.379 . S
C2314 C2283 1.383 . S
C2314 C2301 1.479 . S
C2314 C2315 1.398 . S
C2315 C2280 1.382 . S
C2315 H2292 0.951 . S
C2315 C2314 1.398 . S
C2316 C2317 1.384 . S
C2316 H2329 0.947 . S
C2316 C2351 1.382 . S
C2317 C2316 1.384 . S
C2317 C2318 1.378 . S
C2318 C2317 1.378 . S
C2318 C2319 1.378 . S
C2318 H2330 0.952 . S
C2319 C2318 1.378 . S
C2319 H2331 0.950 . S
C2319 C2350 1.383 . S
H2320 C2339 0.947 . S
H2321 C2340 0.946 . S
H2322 C2342 0.953 . S
H2323 C2343 0.945 . S
H2324 C2345 0.952 . S
H2325 C2346 0.949 . S
H2326 C2348 0.950 . S
H2327 C2349 0.948 . S
H2328 C2351 0.951 . S
H2329 C2316 0.947 . S
H2330 C2318 0.952 . S
H2331 C2319 0.950 . S
N2332 C2335 1.382 . S
N2332 C2337 1.363 . S
N2333 C2335 1.371 . S
N2333 C2336 1.372 . S
N2334 C2336 1.361 . S
N2334 C2337 1.377 . S
C2335 N2332 1.382 . S
C2335 N2333 1.371 . S
C2335 C2338 1.480 . S
C2336 N2333 1.372 . S
C2336 N2334 1.361 . S
C2336 C2344 1.457 . S
C2337 N2332 1.363 . S
C2337 N2334 1.377 . S
C2337 C2350 1.479 . S
C2338 C2335 1.480 . S
C2338 C2339 1.383 . S
C2338 C2343 1.385 . S
C2339 H2320 0.947 . S
C2339 C2338 1.383 . S
C2339 C2340 1.388 . S
C2340 H2321 0.946 . S
C2340 C2339 1.388 . S
C2340 C2341 1.384 . S
C2341 C2340 1.384 . S
C2341 C2342 1.377 . S
C2342 H2322 0.953 . S
C2342 C2341 1.377 . S
C2342 C2343 1.369 . S
C2343 H2323 0.945 . S
C2343 C2338 1.385 . S
C2343 C2342 1.369 . S
C2344 C2336 1.457 . S
C2344 C2345 1.372 . S
C2344 C2349 1.364 . S
C2345 H2324 0.952 . S
C2345 C2344 1.372 . S
C2345 C2346 1.389 . S
C2346 H2325 0.949 . S
C2346 C2345 1.389 . S
C2346 C2347 1.387 . S
C2347 C2346 1.387 . S
C2347 C2348 1.372 . S
C2348 H2326 0.950 . S
C2348 C2347 1.372 . S
C2348 C2349 1.379 . S
C2349 H2327 0.948 . S
C2349 C2344 1.364 . S
C2349 C2348 1.379 . S
C2350 C2319 1.383 . S
C2350 C2337 1.479 . S
C2350 C2351 1.398 . S
C2351 C2316 1.382 . S
C2351 H2328 0.951 . S
C2351 C2350 1.398 . S
C2352 C2353 1.384 . S
C2352 H2365 0.947 . S
C2352 C2387 1.382 . S
C2353 C2352 1.384 . S
C2353 C2354 1.378 . S
C2354 C2353 1.378 . S
C2354 C2355 1.378 . S
C2354 H2366 0.952 . S
C2355 C2354 1.378 . S
C2355 H2367 0.950 . S
C2355 C2386 1.383 . S
H2356 C2375 0.947 . S
H2357 C2376 0.946 . S
H2358 C2378 0.953 . S
H2359 C2379 0.945 . S
H2360 C2381 0.952 . S
H2361 C2382 0.949 . S
H2362 C2384 0.950 . S
H2363 C2385 0.948 . S
H2364 C2387 0.951 . S
H2365 C2352 0.947 . S
H2366 C2354 0.952 . S
H2367 C2355 0.950 . S
N2368 C2371 1.382 . S
N2368 C2373 1.363 . S
N2369 C2371 1.371 . S
N2369 C2372 1.372 . S
N2370 C2372 1.361 . S
N2370 C2373 1.377 . S
C2371 N2368 1.382 . S
C2371 N2369 1.371 . S
C2371 C2374 1.480 . S
C2372 N2369 1.372 . S
C2372 N2370 1.361 . S
C2372 C2380 1.457 . S
C2373 N2368 1.363 . S
C2373 N2370 1.377 . S
C2373 C2386 1.479 . S
C2374 C2371 1.480 . S
C2374 C2375 1.383 . S
C2374 C2379 1.385 . S
C2375 H2356 0.947 . S
C2375 C2374 1.383 . S
C2375 C2376 1.388 . S
C2376 H2357 0.946 . S
C2376 C2375 1.388 . S
C2376 C2377 1.384 . S
C2377 C2376 1.384 . S
C2377 C2378 1.377 . S
C2378 H2358 0.953 . S
C2378 C2377 1.377 . S
C2378 C2379 1.369 . S
C2379 H2359 0.945 . S
C2379 C2374 1.385 . S
C2379 C2378 1.369 . S
C2380 C2372 1.457 . S
C2380 C2381 1.372 . S
C2380 C2385 1.364 . S
C2381 H2360 0.952 . S
C2381 C2380 1.372 . S
C2381 C2382 1.389 . S
C2382 H2361 0.949 . S
C2382 C2381 1.389 . S
C2382 C2383 1.387 . S
C2383 C2382 1.387 . S
C2383 C2384 1.372 . S
C2384 H2362 0.950 . S
C2384 C2383 1.372 . S
C2384 C2385 1.379 . S
C2385 H2363 0.948 . S
C2385 C2380 1.364 . S
C2385 C2384 1.379 . S
C2386 C2355 1.383 . S
C2386 C2373 1.479 . S
C2386 C2387 1.398 . S
C2387 C2352 1.382 . S
C2387 H2364 0.951 . S
C2387 C2386 1.398 . S
C2388 C2389 1.384 . S
C2388 H2401 0.947 . S
C2388 C2423 1.382 . S
C2389 C2388 1.384 . S
C2389 C2390 1.378 . S
C2390 C2389 1.378 . S
C2390 C2391 1.378 . S
C2390 H2402 0.952 . S
C2391 C2390 1.378 . S
C2391 H2403 0.950 . S
C2391 C2422 1.383 . S
H2392 C2411 0.947 . S
H2393 C2412 0.946 . S
H2394 C2414 0.953 . S
H2395 C2415 0.945 . S
H2396 C2417 0.952 . S
H2397 C2418 0.949 . S
H2398 C2420 0.950 . S
H2399 C2421 0.948 . S
H2400 C2423 0.951 . S
H2401 C2388 0.947 . S
H2402 C2390 0.952 . S
H2403 C2391 0.950 . S
N2404 C2407 1.382 . S
N2404 C2409 1.363 . S
N2405 C2407 1.371 . S
N2405 C2408 1.372 . S
N2406 C2408 1.361 . S
N2406 C2409 1.377 . S
C2407 N2404 1.382 . S
C2407 N2405 1.371 . S
C2407 C2410 1.480 . S
C2408 N2405 1.372 . S
C2408 N2406 1.361 . S
C2408 C2416 1.457 . S
C2409 N2404 1.363 . S
C2409 N2406 1.377 . S
C2409 C2422 1.479 . S
C2410 C2407 1.480 . S
C2410 C2411 1.383 . S
C2410 C2415 1.385 . S
C2411 H2392 0.947 . S
C2411 C2410 1.383 . S
C2411 C2412 1.388 . S
C2412 H2393 0.946 . S
C2412 C2411 1.388 . S
C2412 C2413 1.384 . S
C2413 C2412 1.384 . S
C2413 C2414 1.377 . S
C2414 H2394 0.953 . S
C2414 C2413 1.377 . S
C2414 C2415 1.369 . S
C2415 H2395 0.945 . S
C2415 C2410 1.385 . S
C2415 C2414 1.369 . S
C2416 C2408 1.457 . S
C2416 C2417 1.372 . S
C2416 C2421 1.364 . S
C2417 H2396 0.952 . S
C2417 C2416 1.372 . S
C2417 C2418 1.389 . S
C2418 H2397 0.949 . S
C2418 C2417 1.389 . S
C2418 C2419 1.387 . S
C2419 C2418 1.387 . S
C2419 C2420 1.372 . S
C2420 H2398 0.950 . S
C2420 C2419 1.372 . S
C2420 C2421 1.379 . S
C2421 H2399 0.948 . S
C2421 C2416 1.364 . S
C2421 C2420 1.379 . S
C2422 C2391 1.383 . S
C2422 C2409 1.479 . S
C2422 C2423 1.398 . S
C2423 C2388 1.382 . S
C2423 H2400 0.951 . S
C2423 C2422 1.398 . S
C2424 C2425 1.384 . S
C2424 H2437 0.947 . S
C2424 C2459 1.382 . S
C2425 C2424 1.384 . S
C2425 C2426 1.378 . S
C2426 C2425 1.378 . S
C2426 C2427 1.378 . S
C2426 H2438 0.952 . S
C2427 C2426 1.378 . S
C2427 H2439 0.950 . S
C2427 C2458 1.383 . S
H2428 C2447 0.947 . S
H2429 C2448 0.946 . S
H2430 C2450 0.953 . S
H2431 C2451 0.945 . S
H2432 C2453 0.952 . S
H2433 C2454 0.949 . S
H2434 C2456 0.950 . S
H2435 C2457 0.948 . S
H2436 C2459 0.951 . S
H2437 C2424 0.947 . S
H2438 C2426 0.952 . S
H2439 C2427 0.950 . S
N2440 C2443 1.382 . S
N2440 C2445 1.363 . S
N2441 C2443 1.371 . S
N2441 C2444 1.372 . S
N2442 C2444 1.361 . S
N2442 C2445 1.377 . S
C2443 N2440 1.382 . S
C2443 N2441 1.371 . S
C2443 C2446 1.480 . S
C2444 N2441 1.372 . S
C2444 N2442 1.361 . S
C2444 C2452 1.457 . S
C2445 N2440 1.363 . S
C2445 N2442 1.377 . S
C2445 C2458 1.479 . S
C2446 C2443 1.480 . S
C2446 C2447 1.383 . S
C2446 C2451 1.385 . S
C2447 H2428 0.947 . S
C2447 C2446 1.383 . S
C2447 C2448 1.388 . S
C2448 H2429 0.946 . S
C2448 C2447 1.388 . S
C2448 C2449 1.384 . S
C2449 C2448 1.384 . S
C2449 C2450 1.377 . S
C2450 H2430 0.953 . S
C2450 C2449 1.377 . S
C2450 C2451 1.369 . S
C2451 H2431 0.945 . S
C2451 C2446 1.385 . S
C2451 C2450 1.369 . S
C2452 C2444 1.457 . S
C2452 C2453 1.372 . S
C2452 C2457 1.364 . S
C2453 H2432 0.952 . S
C2453 C2452 1.372 . S
C2453 C2454 1.389 . S
C2454 H2433 0.949 . S
C2454 C2453 1.389 . S
C2454 C2455 1.387 . S
C2455 C2454 1.387 . S
C2455 C2456 1.372 . S
C2456 H2434 0.950 . S
C2456 C2455 1.372 . S
C2456 C2457 1.379 . S
C2457 H2435 0.948 . S
C2457 C2452 1.364 . S
C2457 C2456 1.379 . S
C2458 C2427 1.383 . S
C2458 C2445 1.479 . S
C2458 C2459 1.398 . S
C2459 C2424 1.382 . S
C2459 H2436 0.951 . S
C2459 C2458 1.398 . S
C2460 C2461 1.384 . S
C2460 H2473 0.947 . S
C2460 C2495 1.382 . S
C2461 C2460 1.384 . S
C2461 C2462 1.378 . S
C2462 C2461 1.378 . S
C2462 C2463 1.378 . S
C2462 H2474 0.952 . S
C2463 C2462 1.378 . S
C2463 H2475 0.950 . S
C2463 C2494 1.383 . S
H2464 C2483 0.947 . S
H2465 C2484 0.946 . S
H2466 C2486 0.953 . S
H2467 C2487 0.945 . S
H2468 C2489 0.952 . S
H2469 C2490 0.949 . S
H2470 C2492 0.950 . S
H2471 C2493 0.948 . S
H2472 C2495 0.951 . S
H2473 C2460 0.947 . S
H2474 C2462 0.952 . S
H2475 C2463 0.950 . S
N2476 C2479 1.382 . S
N2476 C2481 1.363 . S
N2477 C2479 1.371 . S
N2477 C2480 1.372 . S
N2478 C2480 1.361 . S
N2478 C2481 1.377 . S
C2479 N2476 1.382 . S
C2479 N2477 1.371 . S
C2479 C2482 1.480 . S
C2480 N2477 1.372 . S
C2480 N2478 1.361 . S
C2480 C2488 1.457 . S
C2481 N2476 1.363 . S
C2481 N2478 1.377 . S
C2481 C2494 1.479 . S
C2482 C2479 1.480 . S
C2482 C2483 1.383 . S
C2482 C2487 1.385 . S
C2483 H2464 0.947 . S
C2483 C2482 1.383 . S
C2483 C2484 1.388 . S
C2484 H2465 0.946 . S
C2484 C2483 1.388 . S
C2484 C2485 1.384 . S
C2485 C2484 1.384 . S
C2485 C2486 1.377 . S
C2486 H2466 0.953 . S
C2486 C2485 1.377 . S
C2486 C2487 1.369 . S
C2487 H2467 0.945 . S
C2487 C2482 1.385 . S
C2487 C2486 1.369 . S
C2488 C2480 1.457 . S
C2488 C2489 1.372 . S
C2488 C2493 1.364 . S
C2489 H2468 0.952 . S
C2489 C2488 1.372 . S
C2489 C2490 1.389 . S
C2490 H2469 0.949 . S
C2490 C2489 1.389 . S
C2490 C2491 1.387 . S
C2491 C2490 1.387 . S
C2491 C2492 1.372 . S
C2492 H2470 0.950 . S
C2492 C2491 1.372 . S
C2492 C2493 1.379 . S
C2493 H2471 0.948 . S
C2493 C2488 1.364 . S
C2493 C2492 1.379 . S
C2494 C2463 1.383 . S
C2494 C2481 1.479 . S
C2494 C2495 1.398 . S
C2495 C2460 1.382 . S
C2495 H2472 0.951 . S
C2495 C2494 1.398 . S
C2496 C2497 1.384 . S
C2496 H2509 0.947 . S
C2496 C2531 1.382 . S
C2497 C2496 1.384 . S
C2497 C2498 1.378 . S
C2498 C2497 1.378 . S
C2498 C2499 1.378 . S
C2498 H2510 0.952 . S
C2499 C2498 1.378 . S
C2499 H2511 0.950 . S
C2499 C2530 1.383 . S
H2500 C2519 0.947 . S
H2501 C2520 0.946 . S
H2502 C2522 0.953 . S
H2503 C2523 0.945 . S
H2504 C2525 0.952 . S
H2505 C2526 0.949 . S
H2506 C2528 0.950 . S
H2507 C2529 0.948 . S
H2508 C2531 0.951 . S
H2509 C2496 0.947 . S
H2510 C2498 0.952 . S
H2511 C2499 0.950 . S
N2512 C2515 1.382 . S
N2512 C2517 1.363 . S
N2513 C2515 1.371 . S
N2513 C2516 1.372 . S
N2514 C2516 1.361 . S
N2514 C2517 1.377 . S
C2515 N2512 1.382 . S
C2515 N2513 1.371 . S
C2515 C2518 1.480 . S
C2516 N2513 1.372 . S
C2516 N2514 1.361 . S
C2516 C2524 1.457 . S
C2517 N2512 1.363 . S
C2517 N2514 1.377 . S
C2517 C2530 1.479 . S
C2518 C2515 1.480 . S
C2518 C2519 1.383 . S
C2518 C2523 1.385 . S
C2519 H2500 0.947 . S
C2519 C2518 1.383 . S
C2519 C2520 1.388 . S
C2520 H2501 0.946 . S
C2520 C2519 1.388 . S
C2520 C2521 1.384 . S
C2521 C2520 1.384 . S
C2521 C2522 1.377 . S
C2522 H2502 0.953 . S
C2522 C2521 1.377 . S
C2522 C2523 1.369 . S
C2523 H2503 0.945 . S
C2523 C2518 1.385 . S
C2523 C2522 1.369 . S
C2524 C2516 1.457 . S
C2524 C2525 1.372 . S
C2524 C2529 1.364 . S
C2525 H2504 0.952 . S
C2525 C2524 1.372 . S
C2525 C2526 1.389 . S
C2526 H2505 0.949 . S
C2526 C2525 1.389 . S
C2526 C2527 1.387 . S
C2527 C2526 1.387 . S
C2527 C2528 1.372 . S
C2528 H2506 0.950 . S
C2528 C2527 1.372 . S
C2528 C2529 1.379 . S
C2529 H2507 0.948 . S
C2529 C2524 1.364 . S
C2529 C2528 1.379 . S
C2530 C2499 1.383 . S
C2530 C2517 1.479 . S
C2530 C2531 1.398 . S
C2531 C2496 1.382 . S
C2531 H2508 0.951 . S
C2531 C2530 1.398 . S
C2532 C2533 1.384 . S
C2532 H2545 0.947 . S
C2532 C2567 1.382 . S
C2533 C2532 1.384 . S
C2533 C2534 1.378 . S
C2534 C2533 1.378 . S
C2534 C2535 1.378 . S
C2534 H2546 0.952 . S
C2535 C2534 1.378 . S
C2535 H2547 0.950 . S
C2535 C2566 1.383 . S
H2536 C2555 0.947 . S
H2537 C2556 0.946 . S
H2538 C2558 0.953 . S
H2539 C2559 0.945 . S
H2540 C2561 0.952 . S
H2541 C2562 0.949 . S
H2542 C2564 0.950 . S
H2543 C2565 0.948 . S
H2544 C2567 0.951 . S
H2545 C2532 0.947 . S
H2546 C2534 0.952 . S
H2547 C2535 0.950 . S
N2548 C2551 1.382 . S
N2548 C2553 1.363 . S
N2549 C2551 1.371 . S
N2549 C2552 1.372 . S
N2550 C2552 1.361 . S
N2550 C2553 1.377 . S
C2551 N2548 1.382 . S
C2551 N2549 1.371 . S
C2551 C2554 1.480 . S
C2552 N2549 1.372 . S
C2552 N2550 1.361 . S
C2552 C2560 1.457 . S
C2553 N2548 1.363 . S
C2553 N2550 1.377 . S
C2553 C2566 1.479 . S
C2554 C2551 1.480 . S
C2554 C2555 1.383 . S
C2554 C2559 1.385 . S
C2555 H2536 0.947 . S
C2555 C2554 1.383 . S
C2555 C2556 1.388 . S
C2556 H2537 0.946 . S
C2556 C2555 1.388 . S
C2556 C2557 1.384 . S
C2557 C2556 1.384 . S
C2557 C2558 1.377 . S
C2558 H2538 0.953 . S
C2558 C2557 1.377 . S
C2558 C2559 1.369 . S
C2559 H2539 0.945 . S
C2559 C2554 1.385 . S
C2559 C2558 1.369 . S
C2560 C2552 1.457 . S
C2560 C2561 1.372 . S
C2560 C2565 1.364 . S
C2561 H2540 0.952 . S
C2561 C2560 1.372 . S
C2561 C2562 1.389 . S
C2562 H2541 0.949 . S
C2562 C2561 1.389 . S
C2562 C2563 1.387 . S
C2563 C2562 1.387 . S
C2563 C2564 1.372 . S
C2564 H2542 0.950 . S
C2564 C2563 1.372 . S
C2564 C2565 1.379 . S
C2565 H2543 0.948 . S
C2565 C2560 1.364 . S
C2565 C2564 1.379 . S
C2566 C2535 1.383 . S
C2566 C2553 1.479 . S
C2566 C2567 1.398 . S
C2567 C2532 1.382 . S
C2567 H2544 0.951 . S
C2567 C2566 1.398 . S
C2568 C2569 1.384 . S
C2568 H2581 0.947 . S
C2568 C2603 1.382 . S
C2569 C2568 1.384 . S
C2569 C2570 1.378 . S
C2570 C2569 1.378 . S
C2570 C2571 1.378 . S
C2570 H2582 0.952 . S
C2571 C2570 1.378 . S
C2571 H2583 0.950 . S
C2571 C2602 1.383 . S
H2572 C2591 0.947 . S
H2573 C2592 0.946 . S
H2574 C2594 0.953 . S
H2575 C2595 0.945 . S
H2576 C2597 0.952 . S
H2577 C2598 0.949 . S
H2578 C2600 0.950 . S
H2579 C2601 0.948 . S
H2580 C2603 0.951 . S
H2581 C2568 0.947 . S
H2582 C2570 0.952 . S
H2583 C2571 0.950 . S
N2584 C2587 1.382 . S
N2584 C2589 1.363 . S
N2585 C2587 1.371 . S
N2585 C2588 1.372 . S
N2586 C2588 1.361 . S
N2586 C2589 1.377 . S
C2587 N2584 1.382 . S
C2587 N2585 1.371 . S
C2587 C2590 1.480 . S
C2588 N2585 1.372 . S
C2588 N2586 1.361 . S
C2588 C2596 1.457 . S
C2589 N2584 1.363 . S
C2589 N2586 1.377 . S
C2589 C2602 1.479 . S
C2590 C2587 1.480 . S
C2590 C2591 1.383 . S
C2590 C2595 1.385 . S
C2591 H2572 0.947 . S
C2591 C2590 1.383 . S
C2591 C2592 1.388 . S
C2592 H2573 0.946 . S
C2592 C2591 1.388 . S
C2592 C2593 1.384 . S
C2593 C2592 1.384 . S
C2593 C2594 1.377 . S
C2594 H2574 0.953 . S
C2594 C2593 1.377 . S
C2594 C2595 1.369 . S
C2595 H2575 0.945 . S
C2595 C2590 1.385 . S
C2595 C2594 1.369 . S
C2596 C2588 1.457 . S
C2596 C2597 1.372 . S
C2596 C2601 1.364 . S
C2597 H2576 0.952 . S
C2597 C2596 1.372 . S
C2597 C2598 1.389 . S
C2598 H2577 0.949 . S
C2598 C2597 1.389 . S
C2598 C2599 1.387 . S
C2599 C2598 1.387 . S
C2599 C2600 1.372 . S
C2600 H2578 0.950 . S
C2600 C2599 1.372 . S
C2600 C2601 1.379 . S
C2601 H2579 0.948 . S
C2601 C2596 1.364 . S
C2601 C2600 1.379 . S
C2602 C2571 1.383 . S
C2602 C2589 1.479 . S
C2602 C2603 1.398 . S
C2603 C2568 1.382 . S
C2603 H2580 0.951 . S
C2603 C2602 1.398 . S
C2604 C2605 1.384 . S
C2604 H2617 0.947 . S
C2604 C2639 1.382 . S
C2605 C2604 1.384 . S
C2605 C2606 1.378 . S
C2606 C2605 1.378 . S
C2606 C2607 1.378 . S
C2606 H2618 0.952 . S
C2607 C2606 1.378 . S
C2607 H2619 0.950 . S
C2607 C2638 1.383 . S
H2608 C2627 0.947 . S
H2609 C2628 0.946 . S
H2610 C2630 0.953 . S
H2611 C2631 0.945 . S
H2612 C2633 0.952 . S
H2613 C2634 0.949 . S
H2614 C2636 0.950 . S
H2615 C2637 0.948 . S
H2616 C2639 0.951 . S
H2617 C2604 0.947 . S
H2618 C2606 0.952 . S
H2619 C2607 0.950 . S
N2620 C2623 1.382 . S
N2620 C2625 1.363 . S
N2621 C2623 1.371 . S
N2621 C2624 1.372 . S
N2622 C2624 1.361 . S
N2622 C2625 1.377 . S
C2623 N2620 1.382 . S
C2623 N2621 1.371 . S
C2623 C2626 1.480 . S
C2624 N2621 1.372 . S
C2624 N2622 1.361 . S
C2624 C2632 1.457 . S
C2625 N2620 1.363 . S
C2625 N2622 1.377 . S
C2625 C2638 1.479 . S
C2626 C2623 1.480 . S
C2626 C2627 1.383 . S
C2626 C2631 1.385 . S
C2627 H2608 0.947 . S
C2627 C2626 1.383 . S
C2627 C2628 1.388 . S
C2628 H2609 0.946 . S
C2628 C2627 1.388 . S
C2628 C2629 1.384 . S
C2629 C2628 1.384 . S
C2629 C2630 1.377 . S
C2630 H2610 0.953 . S
C2630 C2629 1.377 . S
C2630 C2631 1.369 . S
C2631 H2611 0.945 . S
C2631 C2626 1.385 . S
C2631 C2630 1.369 . S
C2632 C2624 1.457 . S
C2632 C2633 1.372 . S
C2632 C2637 1.364 . S
C2633 H2612 0.952 . S
C2633 C2632 1.372 . S
C2633 C2634 1.389 . S
C2634 H2613 0.949 . S
C2634 C2633 1.389 . S
C2634 C2635 1.387 . S
C2635 C2634 1.387 . S
C2635 C2636 1.372 . S
C2636 H2614 0.950 . S
C2636 C2635 1.372 . S
C2636 C2637 1.379 . S
C2637 H2615 0.948 . S
C2637 C2632 1.364 . S
C2637 C2636 1.379 . S
C2638 C2607 1.383 . S
C2638 C2625 1.479 . S
C2638 C2639 1.398 . S
C2639 C2604 1.382 . S
C2639 H2616 0.951 . S
C2639 C2638 1.398 . S
C2640 C2641 1.384 . S
C2640 H2653 0.947 . S
C2640 C2675 1.382 . S
C2641 C2640 1.384 . S
C2641 C2642 1.378 . S
C2642 C2641 1.378 . S
C2642 C2643 1.378 . S
C2642 H2654 0.952 . S
C2643 C2642 1.378 . S
C2643 H2655 0.950 . S
C2643 C2674 1.383 . S
H2644 C2663 0.947 . S
H2645 C2664 0.946 . S
H2646 C2666 0.953 . S
H2647 C2667 0.945 . S
H2648 C2669 0.952 . S
H2649 C2670 0.949 . S
H2650 C2672 0.950 . S
H2651 C2673 0.948 . S
H2652 C2675 0.951 . S
H2653 C2640 0.947 . S
H2654 C2642 0.952 . S
H2655 C2643 0.950 . S
N2656 C2659 1.382 . S
N2656 C2661 1.363 . S
N2657 C2659 1.371 . S
N2657 C2660 1.372 . S
N2658 C2660 1.361 . S
N2658 C2661 1.377 . S
C2659 N2656 1.382 . S
C2659 N2657 1.371 . S
C2659 C2662 1.480 . S
C2660 N2657 1.372 . S
C2660 N2658 1.361 . S
C2660 C2668 1.457 . S
C2661 N2656 1.363 . S
C2661 N2658 1.377 . S
C2661 C2674 1.479 . S
C2662 C2659 1.480 . S
C2662 C2663 1.383 . S
C2662 C2667 1.385 . S
C2663 H2644 0.947 . S
C2663 C2662 1.383 . S
C2663 C2664 1.388 . S
C2664 H2645 0.946 . S
C2664 C2663 1.388 . S
C2664 C2665 1.384 . S
C2665 C2664 1.384 . S
C2665 C2666 1.377 . S
C2666 H2646 0.953 . S
C2666 C2665 1.377 . S
C2666 C2667 1.369 . S
C2667 H2647 0.945 . S
C2667 C2662 1.385 . S
C2667 C2666 1.369 . S
C2668 C2660 1.457 . S
C2668 C2669 1.372 . S
C2668 C2673 1.364 . S
C2669 H2648 0.952 . S
C2669 C2668 1.372 . S
C2669 C2670 1.389 . S
C2670 H2649 0.949 . S
C2670 C2669 1.389 . S
C2670 C2671 1.387 . S
C2671 C2670 1.387 . S
C2671 C2672 1.372 . S
C2672 H2650 0.950 . S
C2672 C2671 1.372 . S
C2672 C2673 1.379 . S
C2673 H2651 0.948 . S
C2673 C2668 1.364 . S
C2673 C2672 1.379 . S
C2674 C2643 1.383 . S
C2674 C2661 1.479 . S
C2674 C2675 1.398 . S
C2675 C2640 1.382 . S
C2675 H2652 0.951 . S
C2675 C2674 1.398 . S
C2676 C2677 1.384 . S
C2676 H2689 0.947 . S
C2676 C2711 1.382 . S
C2677 C2676 1.384 . S
C2677 C2678 1.378 . S
C2678 C2677 1.378 . S
C2678 C2679 1.378 . S
C2678 H2690 0.952 . S
C2679 C2678 1.378 . S
C2679 H2691 0.950 . S
C2679 C2710 1.383 . S
H2680 C2699 0.947 . S
H2681 C2700 0.946 . S
H2682 C2702 0.953 . S
H2683 C2703 0.945 . S
H2684 C2705 0.952 . S
H2685 C2706 0.949 . S
H2686 C2708 0.950 . S
H2687 C2709 0.948 . S
H2688 C2711 0.951 . S
H2689 C2676 0.947 . S
H2690 C2678 0.952 . S
H2691 C2679 0.950 . S
N2692 C2695 1.382 . S
N2692 C2697 1.363 . S
N2693 C2695 1.371 . S
N2693 C2696 1.372 . S
N2694 C2696 1.361 . S
N2694 C2697 1.377 . S
C2695 N2692 1.382 . S
C2695 N2693 1.371 . S
C2695 C2698 1.480 . S
C2696 N2693 1.372 . S
C2696 N2694 1.361 . S
C2696 C2704 1.457 . S
C2697 N2692 1.363 . S
C2697 N2694 1.377 . S
C2697 C2710 1.479 . S
C2698 C2695 1.480 . S
C2698 C2699 1.383 . S
C2698 C2703 1.385 . S
C2699 H2680 0.947 . S
C2699 C2698 1.383 . S
C2699 C2700 1.388 . S
C2700 H2681 0.946 . S
C2700 C2699 1.388 . S
C2700 C2701 1.384 . S
C2701 C2700 1.384 . S
C2701 C2702 1.377 . S
C2702 H2682 0.953 . S
C2702 C2701 1.377 . S
C2702 C2703 1.369 . S
C2703 H2683 0.945 . S
C2703 C2698 1.385 . S
C2703 C2702 1.369 . S
C2704 C2696 1.457 . S
C2704 C2705 1.372 . S
C2704 C2709 1.364 . S
C2705 H2684 0.952 . S
C2705 C2704 1.372 . S
C2705 C2706 1.389 . S
C2706 H2685 0.949 . S
C2706 C2705 1.389 . S
C2706 C2707 1.387 . S
C2707 C2706 1.387 . S
C2707 C2708 1.372 . S
C2708 H2686 0.950 . S
C2708 C2707 1.372 . S
C2708 C2709 1.379 . S
C2709 H2687 0.948 . S
C2709 C2704 1.364 . S
C2709 C2708 1.379 . S
C2710 C2679 1.383 . S
C2710 C2697 1.479 . S
C2710 C2711 1.398 . S
C2711 C2676 1.382 . S
C2711 H2688 0.951 . S
C2711 C2710 1.398 . S
C2712 C2713 1.384 . S
C2712 H2725 0.947 . S
C2712 C2747 1.382 . S
C2713 C2712 1.384 . S
C2713 C2714 1.378 . S
C2714 C2713 1.378 . S
C2714 C2715 1.378 . S
C2714 H2726 0.952 . S
C2715 C2714 1.378 . S
C2715 H2727 0.950 . S
C2715 C2746 1.383 . S
H2716 C2735 0.947 . S
H2717 C2736 0.946 . S
H2718 C2738 0.953 . S
H2719 C2739 0.945 . S
H2720 C2741 0.952 . S
H2721 C2742 0.949 . S
H2722 C2744 0.950 . S
H2723 C2745 0.948 . S
H2724 C2747 0.951 . S
H2725 C2712 0.947 . S
H2726 C2714 0.952 . S
H2727 C2715 0.950 . S
N2728 C2731 1.382 . S
N2728 C2733 1.363 . S
N2729 C2731 1.371 . S
N2729 C2732 1.372 . S
N2730 C2732 1.361 . S
N2730 C2733 1.377 . S
C2731 N2728 1.382 . S
C2731 N2729 1.371 . S
C2731 C2734 1.480 . S
C2732 N2729 1.372 . S
C2732 N2730 1.361 . S
C2732 C2740 1.457 . S
C2733 N2728 1.363 . S
C2733 N2730 1.377 . S
C2733 C2746 1.479 . S
C2734 C2731 1.480 . S
C2734 C2735 1.383 . S
C2734 C2739 1.385 . S
C2735 H2716 0.947 . S
C2735 C2734 1.383 . S
C2735 C2736 1.388 . S
C2736 H2717 0.946 . S
C2736 C2735 1.388 . S
C2736 C2737 1.384 . S
C2737 C2736 1.384 . S
C2737 C2738 1.377 . S
C2738 H2718 0.953 . S
C2738 C2737 1.377 . S
C2738 C2739 1.369 . S
C2739 H2719 0.945 . S
C2739 C2734 1.385 . S
C2739 C2738 1.369 . S
C2740 C2732 1.457 . S
C2740 C2741 1.372 . S
C2740 C2745 1.364 . S
C2741 H2720 0.952 . S
C2741 C2740 1.372 . S
C2741 C2742 1.389 . S
C2742 H2721 0.949 . S
C2742 C2741 1.389 . S
C2742 C2743 1.387 . S
C2743 C2742 1.387 . S
C2743 C2744 1.372 . S
C2744 H2722 0.950 . S
C2744 C2743 1.372 . S
C2744 C2745 1.379 . S
C2745 H2723 0.948 . S
C2745 C2740 1.364 . S
C2745 C2744 1.379 . S
C2746 C2715 1.383 . S
C2746 C2733 1.479 . S
C2746 C2747 1.398 . S
C2747 C2712 1.382 . S
C2747 H2724 0.951 . S
C2747 C2746 1.398 . S
C2748 C2749 1.384 . S
C2748 H2761 0.947 . S
C2748 C2783 1.382 . S
C2749 C2748 1.384 . S
C2749 C2750 1.378 . S
C2750 C2749 1.378 . S
C2750 C2751 1.378 . S
C2750 H2762 0.952 . S
C2751 C2750 1.378 . S
C2751 H2763 0.950 . S
C2751 C2782 1.383 . S
H2752 C2771 0.947 . S
H2753 C2772 0.946 . S
H2754 C2774 0.953 . S
H2755 C2775 0.945 . S
H2756 C2777 0.952 . S
H2757 C2778 0.949 . S
H2758 C2780 0.950 . S
H2759 C2781 0.948 . S
H2760 C2783 0.951 . S
H2761 C2748 0.947 . S
H2762 C2750 0.952 . S
H2763 C2751 0.950 . S
N2764 C2767 1.382 . S
N2764 C2769 1.363 . S
N2765 C2767 1.371 . S
N2765 C2768 1.372 . S
N2766 C2768 1.361 . S
N2766 C2769 1.377 . S
C2767 N2764 1.382 . S
C2767 N2765 1.371 . S
C2767 C2770 1.480 . S
C2768 N2765 1.372 . S
C2768 N2766 1.361 . S
C2768 C2776 1.457 . S
C2769 N2764 1.363 . S
C2769 N2766 1.377 . S
C2769 C2782 1.479 . S
C2770 C2767 1.480 . S
C2770 C2771 1.383 . S
C2770 C2775 1.385 . S
C2771 H2752 0.947 . S
C2771 C2770 1.383 . S
C2771 C2772 1.388 . S
C2772 H2753 0.946 . S
C2772 C2771 1.388 . S
C2772 C2773 1.384 . S
C2773 C2772 1.384 . S
C2773 C2774 1.377 . S
C2774 H2754 0.953 . S
C2774 C2773 1.377 . S
C2774 C2775 1.369 . S
C2775 H2755 0.945 . S
C2775 C2770 1.385 . S
C2775 C2774 1.369 . S
C2776 C2768 1.457 . S
C2776 C2777 1.372 . S
C2776 C2781 1.364 . S
C2777 H2756 0.952 . S
C2777 C2776 1.372 . S
C2777 C2778 1.389 . S
C2778 H2757 0.949 . S
C2778 C2777 1.389 . S
C2778 C2779 1.387 . S
C2779 C2778 1.387 . S
C2779 C2780 1.372 . S
C2780 H2758 0.950 . S
C2780 C2779 1.372 . S
C2780 C2781 1.379 . S
C2781 H2759 0.948 . S
C2781 C2776 1.364 . S
C2781 C2780 1.379 . S
C2782 C2751 1.383 . S
C2782 C2769 1.479 . S
C2782 C2783 1.398 . S
C2783 C2748 1.382 . S
C2783 H2760 0.951 . S
C2783 C2782 1.398 . S
C2784 C2785 1.384 . S
C2784 H2797 0.947 . S
C2784 C2819 1.382 . S
C2785 C2784 1.384 . S
C2785 C2786 1.378 . S
C2786 C2785 1.378 . S
C2786 C2787 1.378 . S
C2786 H2798 0.952 . S
C2787 C2786 1.378 . S
C2787 H2799 0.950 . S
C2787 C2818 1.383 . S
H2788 C2807 0.947 . S
H2789 C2808 0.946 . S
H2790 C2810 0.953 . S
H2791 C2811 0.945 . S
H2792 C2813 0.952 . S
H2793 C2814 0.949 . S
H2794 C2816 0.950 . S
H2795 C2817 0.948 . S
H2796 C2819 0.951 . S
H2797 C2784 0.947 . S
H2798 C2786 0.952 . S
H2799 C2787 0.950 . S
N2800 C2803 1.382 . S
N2800 C2805 1.363 . S
N2801 C2803 1.371 . S
N2801 C2804 1.372 . S
N2802 C2804 1.361 . S
N2802 C2805 1.377 . S
C2803 N2800 1.382 . S
C2803 N2801 1.371 . S
C2803 C2806 1.480 . S
C2804 N2801 1.372 . S
C2804 N2802 1.361 . S
C2804 C2812 1.457 . S
C2805 N2800 1.363 . S
C2805 N2802 1.377 . S
C2805 C2818 1.479 . S
C2806 C2803 1.480 . S
C2806 C2807 1.383 . S
C2806 C2811 1.385 . S
C2807 H2788 0.947 . S
C2807 C2806 1.383 . S
C2807 C2808 1.388 . S
C2808 H2789 0.946 . S
C2808 C2807 1.388 . S
C2808 C2809 1.384 . S
C2809 C2808 1.384 . S
C2809 C2810 1.377 . S
C2810 H2790 0.953 . S
C2810 C2809 1.377 . S
C2810 C2811 1.369 . S
C2811 H2791 0.945 . S
C2811 C2806 1.385 . S
C2811 C2810 1.369 . S
C2812 C2804 1.457 . S
C2812 C2813 1.372 . S
C2812 C2817 1.364 . S
C2813 H2792 0.952 . S
C2813 C2812 1.372 . S
C2813 C2814 1.389 . S
C2814 H2793 0.949 . S
C2814 C2813 1.389 . S
C2814 C2815 1.387 . S
C2815 C2814 1.387 . S
C2815 C2816 1.372 . S
C2816 H2794 0.950 . S
C2816 C2815 1.372 . S
C2816 C2817 1.379 . S
C2817 H2795 0.948 . S
C2817 C2812 1.364 . S
C2817 C2816 1.379 . S
C2818 C2787 1.383 . S
C2818 C2805 1.479 . S
C2818 C2819 1.398 . S
C2819 C2784 1.382 . S
C2819 H2796 0.951 . S
C2819 C2818 1.398 . S
C2820 C2821 1.384 . S
C2820 H2833 0.947 . S
C2820 C2855 1.382 . S
C2821 C2820 1.384 . S
C2821 C2822 1.378 . S
C2822 C2821 1.378 . S
C2822 C2823 1.378 . S
C2822 H2834 0.952 . S
C2823 C2822 1.378 . S
C2823 H2835 0.950 . S
C2823 C2854 1.383 . S
H2824 C2843 0.947 . S
H2825 C2844 0.946 . S
H2826 C2846 0.953 . S
H2827 C2847 0.945 . S
H2828 C2849 0.952 . S
H2829 C2850 0.949 . S
H2830 C2852 0.950 . S
H2831 C2853 0.948 . S
H2832 C2855 0.951 . S
H2833 C2820 0.947 . S
H2834 C2822 0.952 . S
H2835 C2823 0.950 . S
N2836 C2839 1.382 . S
N2836 C2841 1.363 . S
N2837 C2839 1.371 . S
N2837 C2840 1.372 . S
N2838 C2840 1.361 . S
N2838 C2841 1.377 . S
C2839 N2836 1.382 . S
C2839 N2837 1.371 . S
C2839 C2842 1.480 . S
C2840 N2837 1.372 . S
C2840 N2838 1.361 . S
C2840 C2848 1.457 . S
C2841 N2836 1.363 . S
C2841 N2838 1.377 . S
C2841 C2854 1.479 . S
C2842 C2839 1.480 . S
C2842 C2843 1.383 . S
C2842 C2847 1.385 . S
C2843 H2824 0.947 . S
C2843 C2842 1.383 . S
C2843 C2844 1.388 . S
C2844 H2825 0.946 . S
C2844 C2843 1.388 . S
C2844 C2845 1.384 . S
C2845 C2844 1.384 . S
C2845 C2846 1.377 . S
C2846 H2826 0.953 . S
C2846 C2845 1.377 . S
C2846 C2847 1.369 . S
C2847 H2827 0.945 . S
C2847 C2842 1.385 . S
C2847 C2846 1.369 . S
C2848 C2840 1.457 . S
C2848 C2849 1.372 . S
C2848 C2853 1.364 . S
C2849 H2828 0.952 . S
C2849 C2848 1.372 . S
C2849 C2850 1.389 . S
C2850 H2829 0.949 . S
C2850 C2849 1.389 . S
C2850 C2851 1.387 . S
C2851 C2850 1.387 . S
C2851 C2852 1.372 . S
C2852 H2830 0.950 . S
C2852 C2851 1.372 . S
C2852 C2853 1.379 . S
C2853 H2831 0.948 . S
C2853 C2848 1.364 . S
C2853 C2852 1.379 . S
C2854 C2823 1.383 . S
C2854 C2841 1.479 . S
C2854 C2855 1.398 . S
C2855 C2820 1.382 . S
C2855 H2832 0.951 . S
C2855 C2854 1.398 . S
C2856 C2857 1.384 . S
C2856 H2869 0.947 . S
C2856 C2891 1.382 . S
C2857 C2856 1.384 . S
C2857 C2858 1.378 . S
C2858 C2857 1.378 . S
C2858 C2859 1.378 . S
C2858 H2870 0.952 . S
C2859 C2858 1.378 . S
C2859 H2871 0.950 . S
C2859 C2890 1.383 . S
H2860 C2879 0.947 . S
H2861 C2880 0.946 . S
H2862 C2882 0.953 . S
H2863 C2883 0.945 . S
H2864 C2885 0.952 . S
H2865 C2886 0.949 . S
H2866 C2888 0.950 . S
H2867 C2889 0.948 . S
H2868 C2891 0.951 . S
H2869 C2856 0.947 . S
H2870 C2858 0.952 . S
H2871 C2859 0.950 . S
N2872 C2875 1.382 . S
N2872 C2877 1.363 . S
N2873 C2875 1.371 . S
N2873 C2876 1.372 . S
N2874 C2876 1.361 . S
N2874 C2877 1.377 . S
C2875 N2872 1.382 . S
C2875 N2873 1.371 . S
C2875 C2878 1.480 . S
C2876 N2873 1.372 . S
C2876 N2874 1.361 . S
C2876 C2884 1.457 . S
C2877 N2872 1.363 . S
C2877 N2874 1.377 . S
C2877 C2890 1.479 . S
C2878 C2875 1.480 . S
C2878 C2879 1.383 . S
C2878 C2883 1.385 . S
C2879 H2860 0.947 . S
C2879 C2878 1.383 . S
C2879 C2880 1.388 . S
C2880 H2861 0.946 . S
C2880 C2879 1.388 . S
C2880 C2881 1.384 . S
C2881 C2880 1.384 . S
C2881 C2882 1.377 . S
C2882 H2862 0.953 . S
C2882 C2881 1.377 . S
C2882 C2883 1.369 . S
C2883 H2863 0.945 . S
C2883 C2878 1.385 . S
C2883 C2882 1.369 . S
C2884 C2876 1.457 . S
C2884 C2885 1.372 . S
C2884 C2889 1.364 . S
C2885 H2864 0.952 . S
C2885 C2884 1.372 . S
C2885 C2886 1.389 . S
C2886 H2865 0.949 . S
C2886 C2885 1.389 . S
C2886 C2887 1.387 . S
C2887 C2886 1.387 . S
C2887 C2888 1.372 . S
C2888 H2866 0.950 . S
C2888 C2887 1.372 . S
C2888 C2889 1.379 . S
C2889 H2867 0.948 . S
C2889 C2884 1.364 . S
C2889 C2888 1.379 . S
C2890 C2859 1.383 . S
C2890 C2877 1.479 . S
C2890 C2891 1.398 . S
C2891 C2856 1.382 . S
C2891 H2868 0.951 . S
C2891 C2890 1.398 . S
C2892 C2893 1.384 . S
C2892 H2905 0.947 . S
C2892 C2927 1.382 . S
C2893 C2892 1.384 . S
C2893 C2894 1.378 . S
C2894 C2893 1.378 . S
C2894 C2895 1.378 . S
C2894 H2906 0.952 . S
C2895 C2894 1.378 . S
C2895 H2907 0.950 . S
C2895 C2926 1.383 . S
H2896 C2915 0.947 . S
H2897 C2916 0.946 . S
H2898 C2918 0.953 . S
H2899 C2919 0.945 . S
H2900 C2921 0.952 . S
H2901 C2922 0.949 . S
H2902 C2924 0.950 . S
H2903 C2925 0.948 . S
H2904 C2927 0.951 . S
H2905 C2892 0.947 . S
H2906 C2894 0.952 . S
H2907 C2895 0.950 . S
N2908 C2911 1.382 . S
N2908 C2913 1.363 . S
N2909 C2911 1.371 . S
N2909 C2912 1.372 . S
N2910 C2912 1.361 . S
N2910 C2913 1.377 . S
C2911 N2908 1.382 . S
C2911 N2909 1.371 . S
C2911 C2914 1.480 . S
C2912 N2909 1.372 . S
C2912 N2910 1.361 . S
C2912 C2920 1.457 . S
C2913 N2908 1.363 . S
C2913 N2910 1.377 . S
C2913 C2926 1.479 . S
C2914 C2911 1.480 . S
C2914 C2915 1.383 . S
C2914 C2919 1.385 . S
C2915 H2896 0.947 . S
C2915 C2914 1.383 . S
C2915 C2916 1.388 . S
C2916 H2897 0.946 . S
C2916 C2915 1.388 . S
C2916 C2917 1.384 . S
C2917 C2916 1.384 . S
C2917 C2918 1.377 . S
C2918 H2898 0.953 . S
C2918 C2917 1.377 . S
C2918 C2919 1.369 . S
C2919 H2899 0.945 . S
C2919 C2914 1.385 . S
C2919 C2918 1.369 . S
C2920 C2912 1.457 . S
C2920 C2921 1.372 . S
C2920 C2925 1.364 . S
C2921 H2900 0.952 . S
C2921 C2920 1.372 . S
C2921 C2922 1.389 . S
C2922 H2901 0.949 . S
C2922 C2921 1.389 . S
C2922 C2923 1.387 . S
C2923 C2922 1.387 . S
C2923 C2924 1.372 . S
C2924 H2902 0.950 . S
C2924 C2923 1.372 . S
C2924 C2925 1.379 . S
C2925 H2903 0.948 . S
C2925 C2920 1.364 . S
C2925 C2924 1.379 . S
C2926 C2895 1.383 . S
C2926 C2913 1.479 . S
C2926 C2927 1.398 . S
C2927 C2892 1.382 . S
C2927 H2904 0.951 . S
C2927 C2926 1.398 . S
C2928 C2929 1.384 . S
C2928 H2941 0.947 . S
C2928 C2963 1.382 . S
C2929 C2928 1.384 . S
C2929 C2930 1.378 . S
C2930 C2929 1.378 . S
C2930 C2931 1.378 . S
C2930 H2942 0.952 . S
C2931 C2930 1.378 . S
C2931 H2943 0.950 . S
C2931 C2962 1.383 . S
H2932 C2951 0.947 . S
H2933 C2952 0.946 . S
H2934 C2954 0.953 . S
H2935 C2955 0.945 . S
H2936 C2957 0.952 . S
H2937 C2958 0.949 . S
H2938 C2960 0.950 . S
H2939 C2961 0.948 . S
H2940 C2963 0.951 . S
H2941 C2928 0.947 . S
H2942 C2930 0.952 . S
H2943 C2931 0.950 . S
N2944 C2947 1.382 . S
N2944 C2949 1.363 . S
N2945 C2947 1.371 . S
N2945 C2948 1.372 . S
N2946 C2948 1.361 . S
N2946 C2949 1.377 . S
C2947 N2944 1.382 . S
C2947 N2945 1.371 . S
C2947 C2950 1.480 . S
C2948 N2945 1.372 . S
C2948 N2946 1.361 . S
C2948 C2956 1.457 . S
C2949 N2944 1.363 . S
C2949 N2946 1.377 . S
C2949 C2962 1.479 . S
C2950 C2947 1.480 . S
C2950 C2951 1.383 . S
C2950 C2955 1.385 . S
C2951 H2932 0.947 . S
C2951 C2950 1.383 . S
C2951 C2952 1.388 . S
C2952 H2933 0.946 . S
C2952 C2951 1.388 . S
C2952 C2953 1.384 . S
C2953 C2952 1.384 . S
C2953 C2954 1.377 . S
C2954 H2934 0.953 . S
C2954 C2953 1.377 . S
C2954 C2955 1.369 . S
C2955 H2935 0.945 . S
C2955 C2950 1.385 . S
C2955 C2954 1.369 . S
C2956 C2948 1.457 . S
C2956 C2957 1.372 . S
C2956 C2961 1.364 . S
C2957 H2936 0.952 . S
C2957 C2956 1.372 . S
C2957 C2958 1.389 . S
C2958 H2937 0.949 . S
C2958 C2957 1.389 . S
C2958 C2959 1.387 . S
C2959 C2958 1.387 . S
C2959 C2960 1.372 . S
C2960 H2938 0.950 . S
C2960 C2959 1.372 . S
C2960 C2961 1.379 . S
C2961 H2939 0.948 . S
C2961 C2956 1.364 . S
C2961 C2960 1.379 . S
C2962 C2931 1.383 . S
C2962 C2949 1.479 . S
C2962 C2963 1.398 . S
C2963 C2928 1.382 . S
C2963 H2940 0.951 . S
C2963 C2962 1.398 . S
C2964 C2965 1.384 . S
C2964 H2977 0.947 . S
C2964 C2999 1.382 . S
C2965 C2964 1.384 . S
C2965 C2966 1.378 . S
C2966 C2965 1.378 . S
C2966 C2967 1.378 . S
C2966 H2978 0.952 . S
C2967 C2966 1.378 . S
C2967 H2979 0.950 . S
C2967 C2998 1.383 . S
H2968 C2987 0.947 . S
H2969 C2988 0.946 . S
H2970 C2990 0.953 . S
H2971 C2991 0.945 . S
H2972 C2993 0.952 . S
H2973 C2994 0.949 . S
H2974 C2996 0.950 . S
H2975 C2997 0.948 . S
H2976 C2999 0.951 . S
H2977 C2964 0.947 . S
H2978 C2966 0.952 . S
H2979 C2967 0.950 . S
N2980 C2983 1.382 . S
N2980 C2985 1.363 . S
N2981 C2983 1.371 . S
N2981 C2984 1.372 . S
N2982 C2984 1.361 . S
N2982 C2985 1.377 . S
C2983 N2980 1.382 . S
C2983 N2981 1.371 . S
C2983 C2986 1.480 . S
C2984 N2981 1.372 . S
C2984 N2982 1.361 . S
C2984 C2992 1.457 . S
C2985 N2980 1.363 . S
C2985 N2982 1.377 . S
C2985 C2998 1.479 . S
C2986 C2983 1.480 . S
C2986 C2987 1.383 . S
C2986 C2991 1.385 . S
C2987 H2968 0.947 . S
C2987 C2986 1.383 . S
C2987 C2988 1.388 . S
C2988 H2969 0.946 . S
C2988 C2987 1.388 . S
C2988 C2989 1.384 . S
C2989 C2988 1.384 . S
C2989 C2990 1.377 . S
C2990 H2970 0.953 . S
C2990 C2989 1.377 . S
C2990 C2991 1.369 . S
C2991 H2971 0.945 . S
C2991 C2986 1.385 . S
C2991 C2990 1.369 . S
C2992 C2984 1.457 . S
C2992 C2993 1.372 . S
C2992 C2997 1.364 . S
C2993 H2972 0.952 . S
C2993 C2992 1.372 . S
C2993 C2994 1.389 . S
C2994 H2973 0.949 . S
C2994 C2993 1.389 . S
C2994 C2995 1.387 . S
C2995 C2994 1.387 . S
C2995 C2996 1.372 . S
C2996 H2974 0.950 . S
C2996 C2995 1.372 . S
C2996 C2997 1.379 . S
C2997 H2975 0.948 . S
C2997 C2992 1.364 . S
C2997 C2996 1.379 . S
C2998 C2967 1.383 . S
C2998 C2985 1.479 . S
C2998 C2999 1.398 . S
C2999 C2964 1.382 . S
C2999 H2976 0.951 . S
C2999 C2998 1.398 . S
C3000 C3001 1.384 . S
C3000 H3013 0.947 . S
C3000 C3035 1.382 . S
C3001 C3000 1.384 . S
C3001 C3002 1.378 . S
C3002 C3001 1.378 . S
C3002 C3003 1.378 . S
C3002 H3014 0.952 . S
C3003 C3002 1.378 . S
C3003 H3015 0.950 . S
C3003 C3034 1.383 . S
H3004 C3023 0.947 . S
H3005 C3024 0.946 . S
H3006 C3026 0.953 . S
H3007 C3027 0.945 . S
H3008 C3029 0.952 . S
H3009 C3030 0.949 . S
H3010 C3032 0.950 . S
H3011 C3033 0.948 . S
H3012 C3035 0.951 . S
H3013 C3000 0.947 . S
H3014 C3002 0.952 . S
H3015 C3003 0.950 . S
N3016 C3019 1.382 . S
N3016 C3021 1.363 . S
N3017 C3019 1.371 . S
N3017 C3020 1.372 . S
N3018 C3020 1.361 . S
N3018 C3021 1.377 . S
C3019 N3016 1.382 . S
C3019 N3017 1.371 . S
C3019 C3022 1.480 . S
C3020 N3017 1.372 . S
C3020 N3018 1.361 . S
C3020 C3028 1.457 . S
C3021 N3016 1.363 . S
C3021 N3018 1.377 . S
C3021 C3034 1.479 . S
C3022 C3019 1.480 . S
C3022 C3023 1.383 . S
C3022 C3027 1.385 . S
C3023 H3004 0.947 . S
C3023 C3022 1.383 . S
C3023 C3024 1.388 . S
C3024 H3005 0.946 . S
C3024 C3023 1.388 . S
C3024 C3025 1.384 . S
C3025 C3024 1.384 . S
C3025 C3026 1.377 . S
C3026 H3006 0.953 . S
C3026 C3025 1.377 . S
C3026 C3027 1.369 . S
C3027 H3007 0.945 . S
C3027 C3022 1.385 . S
C3027 C3026 1.369 . S
C3028 C3020 1.457 . S
C3028 C3029 1.372 . S
C3028 C3033 1.364 . S
C3029 H3008 0.952 . S
C3029 C3028 1.372 . S
C3029 C3030 1.389 . S
C3030 H3009 0.949 . S
C3030 C3029 1.389 . S
C3030 C3031 1.387 . S
C3031 C3030 1.387 . S
C3031 C3032 1.372 . S
C3032 H3010 0.950 . S
C3032 C3031 1.372 . S
C3032 C3033 1.379 . S
C3033 H3011 0.948 . S
C3033 C3028 1.364 . S
C3033 C3032 1.379 . S
C3034 C3003 1.383 . S
C3034 C3021 1.479 . S
C3034 C3035 1.398 . S
C3035 C3000 1.382 . S
C3035 H3012 0.951 . S
C3035 C3034 1.398 . S
C3036 C3037 1.384 . S
C3036 H3049 0.947 . S
C3036 C3071 1.382 . S
C3037 C3036 1.384 . S
C3037 C3038 1.378 . S
C3038 C3037 1.378 . S
C3038 C3039 1.378 . S
C3038 H3050 0.952 . S
C3039 C3038 1.378 . S
C3039 H3051 0.950 . S
C3039 C3070 1.383 . S
H3040 C3059 0.947 . S
H3041 C3060 0.946 . S
H3042 C3062 0.953 . S
H3043 C3063 0.945 . S
H3044 C3065 0.952 . S
H3045 C3066 0.949 . S
H3046 C3068 0.950 . S
H3047 C3069 0.948 . S
H3048 C3071 0.951 . S
H3049 C3036 0.947 . S
H3050 C3038 0.952 . S
H3051 C3039 0.950 . S
N3052 C3055 1.382 . S
N3052 C3057 1.363 . S
N3053 C3055 1.371 . S
N3053 C3056 1.372 . S
N3054 C3056 1.361 . S
N3054 C3057 1.377 . S
C3055 N3052 1.382 . S
C3055 N3053 1.371 . S
C3055 C3058 1.480 . S
C3056 N3053 1.372 . S
C3056 N3054 1.361 . S
C3056 C3064 1.457 . S
C3057 N3052 1.363 . S
C3057 N3054 1.377 . S
C3057 C3070 1.479 . S
C3058 C3055 1.480 . S
C3058 C3059 1.383 . S
C3058 C3063 1.385 . S
C3059 H3040 0.947 . S
C3059 C3058 1.383 . S
C3059 C3060 1.388 . S
C3060 H3041 0.946 . S
C3060 C3059 1.388 . S
C3060 C3061 1.384 . S
C3061 C3060 1.384 . S
C3061 C3062 1.377 . S
C3062 H3042 0.953 . S
C3062 C3061 1.377 . S
C3062 C3063 1.369 . S
C3063 H3043 0.945 . S
C3063 C3058 1.385 . S
C3063 C3062 1.369 . S
C3064 C3056 1.457 . S
C3064 C3065 1.372 . S
C3064 C3069 1.364 . S
C3065 H3044 0.952 . S
C3065 C3064 1.372 . S
C3065 C3066 1.389 . S
C3066 H3045 0.949 . S
C3066 C3065 1.389 . S
C3066 C3067 1.387 . S
C3067 C3066 1.387 . S
C3067 C3068 1.372 . S
C3068 H3046 0.950 . S
C3068 C3067 1.372 . S
C3068 C3069 1.379 . S
C3069 H3047 0.948 . S
C3069 C3064 1.364 . S
C3069 C3068 1.379 . S
C3070 C3039 1.383 . S
C3070 C3057 1.479 . S
C3070 C3071 1.398 . S
C3071 C3036 1.382 . S
C3071 H3048 0.951 . S
C3071 C3070 1.398 . S
C3072 C3073 1.384 . S
C3072 H3085 0.947 . S
C3072 C3107 1.382 . S
C3073 C3072 1.384 . S
C3073 C3074 1.378 . S
C3074 C3073 1.378 . S
C3074 C3075 1.378 . S
C3074 H3086 0.952 . S
C3075 C3074 1.378 . S
C3075 H3087 0.950 . S
C3075 C3106 1.383 . S
H3076 C3095 0.947 . S
H3077 C3096 0.946 . S
H3078 C3098 0.953 . S
H3079 C3099 0.945 . S
H3080 C3101 0.952 . S
H3081 C3102 0.949 . S
H3082 C3104 0.950 . S
H3083 C3105 0.948 . S
H3084 C3107 0.951 . S
H3085 C3072 0.947 . S
H3086 C3074 0.952 . S
H3087 C3075 0.950 . S
N3088 C3091 1.382 . S
N3088 C3093 1.363 . S
N3089 C3091 1.371 . S
N3089 C3092 1.372 . S
N3090 C3092 1.361 . S
N3090 C3093 1.377 . S
C3091 N3088 1.382 . S
C3091 N3089 1.371 . S
C3091 C3094 1.480 . S
C3092 N3089 1.372 . S
C3092 N3090 1.361 . S
C3092 C3100 1.457 . S
C3093 N3088 1.363 . S
C3093 N3090 1.377 . S
C3093 C3106 1.479 . S
C3094 C3091 1.480 . S
C3094 C3095 1.383 . S
C3094 C3099 1.385 . S
C3095 H3076 0.947 . S
C3095 C3094 1.383 . S
C3095 C3096 1.388 . S
C3096 H3077 0.946 . S
C3096 C3095 1.388 . S
C3096 C3097 1.384 . S
C3097 C3096 1.384 . S
C3097 C3098 1.377 . S
C3098 H3078 0.953 . S
C3098 C3097 1.377 . S
C3098 C3099 1.369 . S
C3099 H3079 0.945 . S
C3099 C3094 1.385 . S
C3099 C3098 1.369 . S
C3100 C3092 1.457 . S
C3100 C3101 1.372 . S
C3100 C3105 1.364 . S
C3101 H3080 0.952 . S
C3101 C3100 1.372 . S
C3101 C3102 1.389 . S
C3102 H3081 0.949 . S
C3102 C3101 1.389 . S
C3102 C3103 1.387 . S
C3103 C3102 1.387 . S
C3103 C3104 1.372 . S
C3104 H3082 0.950 . S
C3104 C3103 1.372 . S
C3104 C3105 1.379 . S
C3105 H3083 0.948 . S
C3105 C3100 1.364 . S
C3105 C3104 1.379 . S
C3106 C3075 1.383 . S
C3106 C3093 1.479 . S
C3106 C3107 1.398 . S
C3107 C3072 1.382 . S
C3107 H3084 0.951 . S
C3107 C3106 1.398 . S
C3108 C3109 1.384 . S
C3108 H3121 0.947 . S
C3108 C3143 1.382 . S
C3109 C3108 1.384 . S
C3109 C3110 1.378 . S
C3110 C3109 1.378 . S
C3110 C3111 1.378 . S
C3110 H3122 0.952 . S
C3111 C3110 1.378 . S
C3111 H3123 0.950 . S
C3111 C3142 1.383 . S
H3112 C3131 0.947 . S
H3113 C3132 0.946 . S
H3114 C3134 0.953 . S
H3115 C3135 0.945 . S
H3116 C3137 0.952 . S
H3117 C3138 0.949 . S
H3118 C3140 0.950 . S
H3119 C3141 0.948 . S
H3120 C3143 0.951 . S
H3121 C3108 0.947 . S
H3122 C3110 0.952 . S
H3123 C3111 0.950 . S
N3124 C3127 1.382 . S
N3124 C3129 1.363 . S
N3125 C3127 1.371 . S
N3125 C3128 1.372 . S
N3126 C3128 1.361 . S
N3126 C3129 1.377 . S
C3127 N3124 1.382 . S
C3127 N3125 1.371 . S
C3127 C3130 1.480 . S
C3128 N3125 1.372 . S
C3128 N3126 1.361 . S
C3128 C3136 1.457 . S
C3129 N3124 1.363 . S
C3129 N3126 1.377 . S
C3129 C3142 1.479 . S
C3130 C3127 1.480 . S
C3130 C3131 1.383 . S
C3130 C3135 1.385 . S
C3131 H3112 0.947 . S
C3131 C3130 1.383 . S
C3131 C3132 1.388 . S
C3132 H3113 0.946 . S
C3132 C3131 1.388 . S
C3132 C3133 1.384 . S
C3133 C3132 1.384 . S
C3133 C3134 1.377 . S
C3134 H3114 0.953 . S
C3134 C3133 1.377 . S
C3134 C3135 1.369 . S
C3135 H3115 0.945 . S
C3135 C3130 1.385 . S
C3135 C3134 1.369 . S
C3136 C3128 1.457 . S
C3136 C3137 1.372 . S
C3136 C3141 1.364 . S
C3137 H3116 0.952 . S
C3137 C3136 1.372 . S
C3137 C3138 1.389 . S
C3138 H3117 0.949 . S
C3138 C3137 1.389 . S
C3138 C3139 1.387 . S
C3139 C3138 1.387 . S
C3139 C3140 1.372 . S
C3140 H3118 0.950 . S
C3140 C3139 1.372 . S
C3140 C3141 1.379 . S
C3141 H3119 0.948 . S
C3141 C3136 1.364 . S
C3141 C3140 1.379 . S
C3142 C3111 1.383 . S
C3142 C3129 1.479 . S
C3142 C3143 1.398 . S
C3143 C3108 1.382 . S
C3143 H3120 0.951 . S
C3143 C3142 1.398 . S
C3144 C3145 1.384 . S
C3144 H3157 0.947 . S
C3144 C3179 1.382 . S
C3145 C3144 1.384 . S
C3145 C3146 1.378 . S
C3146 C3145 1.378 . S
C3146 C3147 1.378 . S
C3146 H3158 0.952 . S
C3147 C3146 1.378 . S
C3147 H3159 0.950 . S
C3147 C3178 1.383 . S
H3148 C3167 0.947 . S
H3149 C3168 0.946 . S
H3150 C3170 0.953 . S
H3151 C3171 0.945 . S
H3152 C3173 0.952 . S
H3153 C3174 0.949 . S
H3154 C3176 0.950 . S
H3155 C3177 0.948 . S
H3156 C3179 0.951 . S
H3157 C3144 0.947 . S
H3158 C3146 0.952 . S
H3159 C3147 0.950 . S
N3160 C3163 1.382 . S
N3160 C3165 1.363 . S
N3161 C3163 1.371 . S
N3161 C3164 1.372 . S
N3162 C3164 1.361 . S
N3162 C3165 1.377 . S
C3163 N3160 1.382 . S
C3163 N3161 1.371 . S
C3163 C3166 1.480 . S
C3164 N3161 1.372 . S
C3164 N3162 1.361 . S
C3164 C3172 1.457 . S
C3165 N3160 1.363 . S
C3165 N3162 1.377 . S
C3165 C3178 1.479 . S
C3166 C3163 1.480 . S
C3166 C3167 1.383 . S
C3166 C3171 1.385 . S
C3167 H3148 0.947 . S
C3167 C3166 1.383 . S
C3167 C3168 1.388 . S
C3168 H3149 0.946 . S
C3168 C3167 1.388 . S
C3168 C3169 1.384 . S
C3169 C3168 1.384 . S
C3169 C3170 1.377 . S
C3170 H3150 0.953 . S
C3170 C3169 1.377 . S
C3170 C3171 1.369 . S
C3171 H3151 0.945 . S
C3171 C3166 1.385 . S
C3171 C3170 1.369 . S
C3172 C3164 1.457 . S
C3172 C3173 1.372 . S
C3172 C3177 1.364 . S
C3173 H3152 0.952 . S
C3173 C3172 1.372 . S
C3173 C3174 1.389 . S
C3174 H3153 0.949 . S
C3174 C3173 1.389 . S
C3174 C3175 1.387 . S
C3175 C3174 1.387 . S
C3175 C3176 1.372 . S
C3176 H3154 0.950 . S
C3176 C3175 1.372 . S
C3176 C3177 1.379 . S
C3177 H3155 0.948 . S
C3177 C3172 1.364 . S
C3177 C3176 1.379 . S
C3178 C3147 1.383 . S
C3178 C3165 1.479 . S
C3178 C3179 1.398 . S
C3179 C3144 1.382 . S
C3179 H3156 0.951 . S
C3179 C3178 1.398 . S
C3180 C3181 1.384 . S
C3180 H3193 0.947 . S
C3180 C3215 1.382 . S
C3181 C3180 1.384 . S
C3181 C3182 1.378 . S
C3182 C3181 1.378 . S
C3182 C3183 1.378 . S
C3182 H3194 0.952 . S
C3183 C3182 1.378 . S
C3183 H3195 0.950 . S
C3183 C3214 1.383 . S
H3184 C3203 0.947 . S
H3185 C3204 0.946 . S
H3186 C3206 0.953 . S
H3187 C3207 0.945 . S
H3188 C3209 0.952 . S
H3189 C3210 0.949 . S
H3190 C3212 0.950 . S
H3191 C3213 0.948 . S
H3192 C3215 0.951 . S
H3193 C3180 0.947 . S
H3194 C3182 0.952 . S
H3195 C3183 0.950 . S
N3196 C3199 1.382 . S
N3196 C3201 1.363 . S
N3197 C3199 1.371 . S
N3197 C3200 1.372 . S
N3198 C3200 1.361 . S
N3198 C3201 1.377 . S
C3199 N3196 1.382 . S
C3199 N3197 1.371 . S
C3199 C3202 1.480 . S
C3200 N3197 1.372 . S
C3200 N3198 1.361 . S
C3200 C3208 1.457 . S
C3201 N3196 1.363 . S
C3201 N3198 1.377 . S
C3201 C3214 1.479 . S
C3202 C3199 1.480 . S
C3202 C3203 1.383 . S
C3202 C3207 1.385 . S
C3203 H3184 0.947 . S
C3203 C3202 1.383 . S
C3203 C3204 1.388 . S
C3204 H3185 0.946 . S
C3204 C3203 1.388 . S
C3204 C3205 1.384 . S
C3205 C3204 1.384 . S
C3205 C3206 1.377 . S
C3206 H3186 0.953 . S
C3206 C3205 1.377 . S
C3206 C3207 1.369 . S
C3207 H3187 0.945 . S
C3207 C3202 1.385 . S
C3207 C3206 1.369 . S
C3208 C3200 1.457 . S
C3208 C3209 1.372 . S
C3208 C3213 1.364 . S
C3209 H3188 0.952 . S
C3209 C3208 1.372 . S
C3209 C3210 1.389 . S
C3210 H3189 0.949 . S
C3210 C3209 1.389 . S
C3210 C3211 1.387 . S
C3211 C3210 1.387 . S
C3211 C3212 1.372 . S
C3212 H3190 0.950 . S
C3212 C3211 1.372 . S
C3212 C3213 1.379 . S
C3213 H3191 0.948 . S
C3213 C3208 1.364 . S
C3213 C3212 1.379 . S
C3214 C3183 1.383 . S
C3214 C3201 1.479 . S
C3214 C3215 1.398 . S
C3215 C3180 1.382 . S
C3215 H3192 0.951 . S
C3215 C3214 1.398 . S
C3216 C3217 1.384 . S
C3216 H3229 0.947 . S
C3216 C3251 1.382 . S
C3217 C3216 1.384 . S
C3217 C3218 1.378 . S
C3218 C3217 1.378 . S
C3218 C3219 1.378 . S
C3218 H3230 0.952 . S
C3219 C3218 1.378 . S
C3219 H3231 0.950 . S
C3219 C3250 1.383 . S
H3220 C3239 0.947 . S
H3221 C3240 0.946 . S
H3222 C3242 0.953 . S
H3223 C3243 0.945 . S
H3224 C3245 0.952 . S
H3225 C3246 0.949 . S
H3226 C3248 0.950 . S
H3227 C3249 0.948 . S
H3228 C3251 0.951 . S
H3229 C3216 0.947 . S
H3230 C3218 0.952 . S
H3231 C3219 0.950 . S
N3232 C3235 1.382 . S
N3232 C3237 1.363 . S
N3233 C3235 1.371 . S
N3233 C3236 1.372 . S
N3234 C3236 1.361 . S
N3234 C3237 1.377 . S
C3235 N3232 1.382 . S
C3235 N3233 1.371 . S
C3235 C3238 1.480 . S
C3236 N3233 1.372 . S
C3236 N3234 1.361 . S
C3236 C3244 1.457 . S
C3237 N3232 1.363 . S
C3237 N3234 1.377 . S
C3237 C3250 1.479 . S
C3238 C3235 1.480 . S
C3238 C3239 1.383 . S
C3238 C3243 1.385 . S
C3239 H3220 0.947 . S
C3239 C3238 1.383 . S
C3239 C3240 1.388 . S
C3240 H3221 0.946 . S
C3240 C3239 1.388 . S
C3240 C3241 1.384 . S
C3241 C3240 1.384 . S
C3241 C3242 1.377 . S
C3242 H3222 0.953 . S
C3242 C3241 1.377 . S
C3242 C3243 1.369 . S
C3243 H3223 0.945 . S
C3243 C3238 1.385 . S
C3243 C3242 1.369 . S
C3244 C3236 1.457 . S
C3244 C3245 1.372 . S
C3244 C3249 1.364 . S
C3245 H3224 0.952 . S
C3245 C3244 1.372 . S
C3245 C3246 1.389 . S
C3246 H3225 0.949 . S
C3246 C3245 1.389 . S
C3246 C3247 1.387 . S
C3247 C3246 1.387 . S
C3247 C3248 1.372 . S
C3248 H3226 0.950 . S
C3248 C3247 1.372 . S
C3248 C3249 1.379 . S
C3249 H3227 0.948 . S
C3249 C3244 1.364 . S
C3249 C3248 1.379 . S
C3250 C3219 1.383 . S
C3250 C3237 1.479 . S
C3250 C3251 1.398 . S
C3251 C3216 1.382 . S
C3251 H3228 0.951 . S
C3251 C3250 1.398 . S
C3252 C3253 1.384 . S
C3252 H3265 0.947 . S
C3252 C3287 1.382 . S
C3253 C3252 1.384 . S
C3253 C3254 1.378 . S
C3254 C3253 1.378 . S
C3254 C3255 1.378 . S
C3254 H3266 0.952 . S
C3255 C3254 1.378 . S
C3255 H3267 0.950 . S
C3255 C3286 1.383 . S
H3256 C3275 0.947 . S
H3257 C3276 0.946 . S
H3258 C3278 0.953 . S
H3259 C3279 0.945 . S
H3260 C3281 0.952 . S
H3261 C3282 0.949 . S
H3262 C3284 0.950 . S
H3263 C3285 0.948 . S
H3264 C3287 0.951 . S
H3265 C3252 0.947 . S
H3266 C3254 0.952 . S
H3267 C3255 0.950 . S
N3268 C3271 1.382 . S
N3268 C3273 1.363 . S
N3269 C3271 1.371 . S
N3269 C3272 1.372 . S
N3270 C3272 1.361 . S
N3270 C3273 1.377 . S
C3271 N3268 1.382 . S
C3271 N3269 1.371 . S
C3271 C3274 1.480 . S
C3272 N3269 1.372 . S
C3272 N3270 1.361 . S
C3272 C3280 1.457 . S
C3273 N3268 1.363 . S
C3273 N3270 1.377 . S
C3273 C3286 1.479 . S
C3274 C3271 1.480 . S
C3274 C3275 1.383 . S
C3274 C3279 1.385 . S
C3275 H3256 0.947 . S
C3275 C3274 1.383 . S
C3275 C3276 1.388 . S
C3276 H3257 0.946 . S
C3276 C3275 1.388 . S
C3276 C3277 1.384 . S
C3277 C3276 1.384 . S
C3277 C3278 1.377 . S
C3278 H3258 0.953 . S
C3278 C3277 1.377 . S
C3278 C3279 1.369 . S
C3279 H3259 0.945 . S
C3279 C3274 1.385 . S
C3279 C3278 1.369 . S
C3280 C3272 1.457 . S
C3280 C3281 1.372 . S
C3280 C3285 1.364 . S
C3281 H3260 0.952 . S
C3281 C3280 1.372 . S
C3281 C3282 1.389 . S
C3282 H3261 0.949 . S
C3282 C3281 1.389 . S
C3282 C3283 1.387 . S
C3283 C3282 1.387 . S
C3283 C3284 1.372 . S
C3284 H3262 0.950 . S
C3284 C3283 1.372 . S
C3284 C3285 1.379 . S
C3285 H3263 0.948 . S
C3285 C3280 1.364 . S
C3285 C3284 1.379 . S
C3286 C3255 1.383 . S
C3286 C3273 1.479 . S
C3286 C3287 1.398 . S
C3287 C3252 1.382 . S
C3287 H3264 0.951 . S
C3287 C3286 1.398 . S
C3288 C3289 1.384 . S
C3288 H3301 0.947 . S
C3288 C3323 1.382 . S
C3289 C3288 1.384 . S
C3289 C3290 1.378 . S
C3290 C3289 1.378 . S
C3290 C3291 1.378 . S
C3290 H3302 0.952 . S
C3291 C3290 1.378 . S
C3291 H3303 0.950 . S
C3291 C3322 1.383 . S
H3292 C3311 0.947 . S
H3293 C3312 0.946 . S
H3294 C3314 0.953 . S
H3295 C3315 0.945 . S
H3296 C3317 0.952 . S
H3297 C3318 0.949 . S
H3298 C3320 0.950 . S
H3299 C3321 0.948 . S
H3300 C3323 0.951 . S
H3301 C3288 0.947 . S
H3302 C3290 0.952 . S
H3303 C3291 0.950 . S
N3304 C3307 1.382 . S
N3304 C3309 1.363 . S
N3305 C3307 1.371 . S
N3305 C3308 1.372 . S
N3306 C3308 1.361 . S
N3306 C3309 1.377 . S
C3307 N3304 1.382 . S
C3307 N3305 1.371 . S
C3307 C3310 1.480 . S
C3308 N3305 1.372 . S
C3308 N3306 1.361 . S
C3308 C3316 1.457 . S
C3309 N3304 1.363 . S
C3309 N3306 1.377 . S
C3309 C3322 1.479 . S
C3310 C3307 1.480 . S
C3310 C3311 1.383 . S
C3310 C3315 1.385 . S
C3311 H3292 0.947 . S
C3311 C3310 1.383 . S
C3311 C3312 1.388 . S
C3312 H3293 0.946 . S
C3312 C3311 1.388 . S
C3312 C3313 1.384 . S
C3313 C3312 1.384 . S
C3313 C3314 1.377 . S
C3314 H3294 0.953 . S
C3314 C3313 1.377 . S
C3314 C3315 1.369 . S
C3315 H3295 0.945 . S
C3315 C3310 1.385 . S
C3315 C3314 1.369 . S
C3316 C3308 1.457 . S
C3316 C3317 1.372 . S
C3316 C3321 1.364 . S
C3317 H3296 0.952 . S
C3317 C3316 1.372 . S
C3317 C3318 1.389 . S
C3318 H3297 0.949 . S
C3318 C3317 1.389 . S
C3318 C3319 1.387 . S
C3319 C3318 1.387 . S
C3319 C3320 1.372 . S
C3320 H3298 0.950 . S
C3320 C3319 1.372 . S
C3320 C3321 1.379 . S
C3321 H3299 0.948 . S
C3321 C3316 1.364 . S
C3321 C3320 1.379 . S
C3322 C3291 1.383 . S
C3322 C3309 1.479 . S
C3322 C3323 1.398 . S
C3323 C3288 1.382 . S
C3323 H3300 0.951 . S
C3323 C3322 1.398 . S
C3324 C3325 1.384 . S
C3324 H3337 0.947 . S
C3324 C3359 1.382 . S
C3325 C3324 1.384 . S
C3325 C3326 1.378 . S
C3326 C3325 1.378 . S
C3326 C3327 1.378 . S
C3326 H3338 0.952 . S
C3327 C3326 1.378 . S
C3327 H3339 0.950 . S
C3327 C3358 1.383 . S
H3328 C3347 0.947 . S
H3329 C3348 0.946 . S
H3330 C3350 0.953 . S
H3331 C3351 0.945 . S
H3332 C3353 0.952 . S
H3333 C3354 0.949 . S
H3334 C3356 0.950 . S
H3335 C3357 0.948 . S
H3336 C3359 0.951 . S
H3337 C3324 0.947 . S
H3338 C3326 0.952 . S
H3339 C3327 0.950 . S
N3340 C3343 1.382 . S
N3340 C3345 1.363 . S
N3341 C3343 1.371 . S
N3341 C3344 1.372 . S
N3342 C3344 1.361 . S
N3342 C3345 1.377 . S
C3343 N3340 1.382 . S
C3343 N3341 1.371 . S
C3343 C3346 1.480 . S
C3344 N3341 1.372 . S
C3344 N3342 1.361 . S
C3344 C3352 1.457 . S
C3345 N3340 1.363 . S
C3345 N3342 1.377 . S
C3345 C3358 1.479 . S
C3346 C3343 1.480 . S
C3346 C3347 1.383 . S
C3346 C3351 1.385 . S
C3347 H3328 0.947 . S
C3347 C3346 1.383 . S
C3347 C3348 1.388 . S
C3348 H3329 0.946 . S
C3348 C3347 1.388 . S
C3348 C3349 1.384 . S
C3349 C3348 1.384 . S
C3349 C3350 1.377 . S
C3350 H3330 0.953 . S
C3350 C3349 1.377 . S
C3350 C3351 1.369 . S
C3351 H3331 0.945 . S
C3351 C3346 1.385 . S
C3351 C3350 1.369 . S
C3352 C3344 1.457 . S
C3352 C3353 1.372 . S
C3352 C3357 1.364 . S
C3353 H3332 0.952 . S
C3353 C3352 1.372 . S
C3353 C3354 1.389 . S
C3354 H3333 0.949 . S
C3354 C3353 1.389 . S
C3354 C3355 1.387 . S
C3355 C3354 1.387 . S
C3355 C3356 1.372 . S
C3356 H3334 0.950 . S
C3356 C3355 1.372 . S
C3356 C3357 1.379 . S
C3357 H3335 0.948 . S
C3357 C3352 1.364 . S
C3357 C3356 1.379 . S
C3358 C3327 1.383 . S
C3358 C3345 1.479 . S
C3358 C3359 1.398 . S
C3359 C3324 1.382 . S
C3359 H3336 0.951 . S
C3359 C3358 1.398 . S
C3360 C3361 1.384 . S
C3360 H3373 0.947 . S
C3360 C3395 1.382 . S
C3361 C3360 1.384 . S
C3361 C3362 1.378 . S
C3362 C3361 1.378 . S
C3362 C3363 1.378 . S
C3362 H3374 0.952 . S
C3363 C3362 1.378 . S
C3363 H3375 0.950 . S
C3363 C3394 1.383 . S
H3364 C3383 0.947 . S
H3365 C3384 0.946 . S
H3366 C3386 0.953 . S
H3367 C3387 0.945 . S
H3368 C3389 0.952 . S
H3369 C3390 0.949 . S
H3370 C3392 0.950 . S
H3371 C3393 0.948 . S
H3372 C3395 0.951 . S
H3373 C3360 0.947 . S
H3374 C3362 0.952 . S
H3375 C3363 0.950 . S
N3376 C3379 1.382 . S
N3376 C3381 1.363 . S
N3377 C3379 1.371 . S
N3377 C3380 1.372 . S
N3378 C3380 1.361 . S
N3378 C3381 1.377 . S
C3379 N3376 1.382 . S
C3379 N3377 1.371 . S
C3379 C3382 1.480 . S
C3380 N3377 1.372 . S
C3380 N3378 1.361 . S
C3380 C3388 1.457 . S
C3381 N3376 1.363 . S
C3381 N3378 1.377 . S
C3381 C3394 1.479 . S
C3382 C3379 1.480 . S
C3382 C3383 1.383 . S
C3382 C3387 1.385 . S
C3383 H3364 0.947 . S
C3383 C3382 1.383 . S
C3383 C3384 1.388 . S
C3384 H3365 0.946 . S
C3384 C3383 1.388 . S
C3384 C3385 1.384 . S
C3385 C3384 1.384 . S
C3385 C3386 1.377 . S
C3386 H3366 0.953 . S
C3386 C3385 1.377 . S
C3386 C3387 1.369 . S
C3387 H3367 0.945 . S
C3387 C3382 1.385 . S
C3387 C3386 1.369 . S
C3388 C3380 1.457 . S
C3388 C3389 1.372 . S
C3388 C3393 1.364 . S
C3389 H3368 0.952 . S
C3389 C3388 1.372 . S
C3389 C3390 1.389 . S
C3390 H3369 0.949 . S
C3390 C3389 1.389 . S
C3390 C3391 1.387 . S
C3391 C3390 1.387 . S
C3391 C3392 1.372 . S
C3392 H3370 0.950 . S
C3392 C3391 1.372 . S
C3392 C3393 1.379 . S
C3393 H3371 0.948 . S
C3393 C3388 1.364 . S
C3393 C3392 1.379 . S
C3394 C3363 1.383 . S
C3394 C3381 1.479 . S
C3394 C3395 1.398 . S
C3395 C3360 1.382 . S
C3395 H3372 0.951 . S
C3395 C3394 1.398 . S
C3396 C3397 1.384 . S
C3396 H3409 0.947 . S
C3396 C3431 1.382 . S
C3397 C3396 1.384 . S
C3397 C3398 1.378 . S
C3398 C3397 1.378 . S
C3398 C3399 1.378 . S
C3398 H3410 0.952 . S
C3399 C3398 1.378 . S
C3399 H3411 0.950 . S
C3399 C3430 1.383 . S
H3400 C3419 0.947 . S
H3401 C3420 0.946 . S
H3402 C3422 0.953 . S
H3403 C3423 0.945 . S
H3404 C3425 0.952 . S
H3405 C3426 0.949 . S
H3406 C3428 0.950 . S
H3407 C3429 0.948 . S
H3408 C3431 0.951 . S
H3409 C3396 0.947 . S
H3410 C3398 0.952 . S
H3411 C3399 0.950 . S
N3412 C3415 1.382 . S
N3412 C3417 1.363 . S
N3413 C3415 1.371 . S
N3413 C3416 1.372 . S
N3414 C3416 1.361 . S
N3414 C3417 1.377 . S
C3415 N3412 1.382 . S
C3415 N3413 1.371 . S
C3415 C3418 1.480 . S
C3416 N3413 1.372 . S
C3416 N3414 1.361 . S
C3416 C3424 1.457 . S
C3417 N3412 1.363 . S
C3417 N3414 1.377 . S
C3417 C3430 1.479 . S
C3418 C3415 1.480 . S
C3418 C3419 1.383 . S
C3418 C3423 1.385 . S
C3419 H3400 0.947 . S
C3419 C3418 1.383 . S
C3419 C3420 1.388 . S
C3420 H3401 0.946 . S
C3420 C3419 1.388 . S
C3420 C3421 1.384 . S
C3421 C3420 1.384 . S
C3421 C3422 1.377 . S
C3422 H3402 0.953 . S
C3422 C3421 1.377 . S
C3422 C3423 1.369 . S
C3423 H3403 0.945 . S
C3423 C3418 1.385 . S
C3423 C3422 1.369 . S
C3424 C3416 1.457 . S
C3424 C3425 1.372 . S
C3424 C3429 1.364 . S
C3425 H3404 0.952 . S
C3425 C3424 1.372 . S
C3425 C3426 1.389 . S
C3426 H3405 0.949 . S
C3426 C3425 1.389 . S
C3426 C3427 1.387 . S
C3427 C3426 1.387 . S
C3427 C3428 1.372 . S
C3428 H3406 0.950 . S
C3428 C3427 1.372 . S
C3428 C3429 1.379 . S
C3429 H3407 0.948 . S
C3429 C3424 1.364 . S
C3429 C3428 1.379 . S
C3430 C3399 1.383 . S
C3430 C3417 1.479 . S
C3430 C3431 1.398 . S
C3431 C3396 1.382 . S
C3431 H3408 0.951 . S
C3431 C3430 1.398 . S
C3432 C3433 1.384 . S
C3432 H3445 0.947 . S
C3432 C3467 1.382 . S
C3433 C3432 1.384 . S
C3433 C3434 1.378 . S
C3434 C3433 1.378 . S
C3434 C3435 1.378 . S
C3434 H3446 0.952 . S
C3435 C3434 1.378 . S
C3435 H3447 0.950 . S
C3435 C3466 1.383 . S
H3436 C3455 0.947 . S
H3437 C3456 0.946 . S
H3438 C3458 0.953 . S
H3439 C3459 0.945 . S
H3440 C3461 0.952 . S
H3441 C3462 0.949 . S
H3442 C3464 0.950 . S
H3443 C3465 0.948 . S
H3444 C3467 0.951 . S
H3445 C3432 0.947 . S
H3446 C3434 0.952 . S
H3447 C3435 0.950 . S
N3448 C3451 1.382 . S
N3448 C3453 1.363 . S
N3449 C3451 1.371 . S
N3449 C3452 1.372 . S
N3450 C3452 1.361 . S
N3450 C3453 1.377 . S
C3451 N3448 1.382 . S
C3451 N3449 1.371 . S
C3451 C3454 1.480 . S
C3452 N3449 1.372 . S
C3452 N3450 1.361 . S
C3452 C3460 1.457 . S
C3453 N3448 1.363 . S
C3453 N3450 1.377 . S
C3453 C3466 1.479 . S
C3454 C3451 1.480 . S
C3454 C3455 1.383 . S
C3454 C3459 1.385 . S
C3455 H3436 0.947 . S
C3455 C3454 1.383 . S
C3455 C3456 1.388 . S
C3456 H3437 0.946 . S
C3456 C3455 1.388 . S
C3456 C3457 1.384 . S
C3457 C3456 1.384 . S
C3457 C3458 1.377 . S
C3458 H3438 0.953 . S
C3458 C3457 1.377 . S
C3458 C3459 1.369 . S
C3459 H3439 0.945 . S
C3459 C3454 1.385 . S
C3459 C3458 1.369 . S
C3460 C3452 1.457 . S
C3460 C3461 1.372 . S
C3460 C3465 1.364 . S
C3461 H3440 0.952 . S
C3461 C3460 1.372 . S
C3461 C3462 1.389 . S
C3462 H3441 0.949 . S
C3462 C3461 1.389 . S
C3462 C3463 1.387 . S
C3463 C3462 1.387 . S
C3463 C3464 1.372 . S
C3464 H3442 0.950 . S
C3464 C3463 1.372 . S
C3464 C3465 1.379 . S
C3465 H3443 0.948 . S
C3465 C3460 1.364 . S
C3465 C3464 1.379 . S
C3466 C3435 1.383 . S
C3466 C3453 1.479 . S
C3466 C3467 1.398 . S
C3467 C3432 1.382 . S
C3467 H3444 0.951 . S
C3467 C3466 1.398 . S
C3468 C3469 1.384 . S
C3468 H3481 0.947 . S
C3468 C3503 1.382 . S
C3469 C3468 1.384 . S
C3469 C3470 1.378 . S
C3470 C3469 1.378 . S
C3470 C3471 1.378 . S
C3470 H3482 0.952 . S
C3471 C3470 1.378 . S
C3471 H3483 0.950 . S
C3471 C3502 1.383 . S
H3472 C3491 0.947 . S
H3473 C3492 0.946 . S
H3474 C3494 0.953 . S
H3475 C3495 0.945 . S
H3476 C3497 0.952 . S
H3477 C3498 0.949 . S
H3478 C3500 0.950 . S
H3479 C3501 0.948 . S
H3480 C3503 0.951 . S
H3481 C3468 0.947 . S
H3482 C3470 0.952 . S
H3483 C3471 0.950 . S
N3484 C3487 1.382 . S
N3484 C3489 1.363 . S
N3485 C3487 1.371 . S
N3485 C3488 1.372 . S
N3486 C3488 1.361 . S
N3486 C3489 1.377 . S
C3487 N3484 1.382 . S
C3487 N3485 1.371 . S
C3487 C3490 1.480 . S
C3488 N3485 1.372 . S
C3488 N3486 1.361 . S
C3488 C3496 1.457 . S
C3489 N3484 1.363 . S
C3489 N3486 1.377 . S
C3489 C3502 1.479 . S
C3490 C3487 1.480 . S
C3490 C3491 1.383 . S
C3490 C3495 1.385 . S
C3491 H3472 0.947 . S
C3491 C3490 1.383 . S
C3491 C3492 1.388 . S
C3492 H3473 0.946 . S
C3492 C3491 1.388 . S
C3492 C3493 1.384 . S
C3493 C3492 1.384 . S
C3493 C3494 1.377 . S
C3494 H3474 0.953 . S
C3494 C3493 1.377 . S
C3494 C3495 1.369 . S
C3495 H3475 0.945 . S
C3495 C3490 1.385 . S
C3495 C3494 1.369 . S
C3496 C3488 1.457 . S
C3496 C3497 1.372 . S
C3496 C3501 1.364 . S
C3497 H3476 0.952 . S
C3497 C3496 1.372 . S
C3497 C3498 1.389 . S
C3498 H3477 0.949 . S
C3498 C3497 1.389 . S
C3498 C3499 1.387 . S
C3499 C3498 1.387 . S
C3499 C3500 1.372 . S
C3500 H3478 0.950 . S
C3500 C3499 1.372 . S
C3500 C3501 1.379 . S
C3501 H3479 0.948 . S
C3501 C3496 1.364 . S
C3501 C3500 1.379 . S
C3502 C3471 1.383 . S
C3502 C3489 1.479 . S
C3502 C3503 1.398 . S
C3503 C3468 1.382 . S
C3503 H3480 0.951 . S
C3503 C3502 1.398 . S
C3504 C3505 1.384 . S
C3504 H3517 0.947 . S
C3504 C3539 1.382 . S
C3505 C3504 1.384 . S
C3505 C3506 1.378 . S
C3506 C3505 1.378 . S
C3506 C3507 1.378 . S
C3506 H3518 0.952 . S
C3507 C3506 1.378 . S
C3507 H3519 0.950 . S
C3507 C3538 1.383 . S
H3508 C3527 0.947 . S
H3509 C3528 0.946 . S
H3510 C3530 0.953 . S
H3511 C3531 0.945 . S
H3512 C3533 0.952 . S
H3513 C3534 0.949 . S
H3514 C3536 0.950 . S
H3515 C3537 0.948 . S
H3516 C3539 0.951 . S
H3517 C3504 0.947 . S
H3518 C3506 0.952 . S
H3519 C3507 0.950 . S
N3520 C3523 1.382 . S
N3520 C3525 1.363 . S
N3521 C3523 1.371 . S
N3521 C3524 1.372 . S
N3522 C3524 1.361 . S
N3522 C3525 1.377 . S
C3523 N3520 1.382 . S
C3523 N3521 1.371 . S
C3523 C3526 1.480 . S
C3524 N3521 1.372 . S
C3524 N3522 1.361 . S
C3524 C3532 1.457 . S
C3525 N3520 1.363 . S
C3525 N3522 1.377 . S
C3525 C3538 1.479 . S
C3526 C3523 1.480 . S
C3526 C3527 1.383 . S
C3526 C3531 1.385 . S
C3527 H3508 0.947 . S
C3527 C3526 1.383 . S
C3527 C3528 1.388 . S
C3528 H3509 0.946 . S
C3528 C3527 1.388 . S
C3528 C3529 1.384 . S
C3529 C3528 1.384 . S
C3529 C3530 1.377 . S
C3530 H3510 0.953 . S
C3530 C3529 1.377 . S
C3530 C3531 1.369 . S
C3531 H3511 0.945 . S
C3531 C3526 1.385 . S
C3531 C3530 1.369 . S
C3532 C3524 1.457 . S
C3532 C3533 1.372 . S
C3532 C3537 1.364 . S
C3533 H3512 0.952 . S
C3533 C3532 1.372 . S
C3533 C3534 1.389 . S
C3534 H3513 0.949 . S
C3534 C3533 1.389 . S
C3534 C3535 1.387 . S
C3535 C3534 1.387 . S
C3535 C3536 1.372 . S
C3536 H3514 0.950 . S
C3536 C3535 1.372 . S
C3536 C3537 1.379 . S
C3537 H3515 0.948 . S
C3537 C3532 1.364 . S
C3537 C3536 1.379 . S
C3538 C3507 1.383 . S
C3538 C3525 1.479 . S
C3538 C3539 1.398 . S
C3539 C3504 1.382 . S
C3539 H3516 0.951 . S
C3539 C3538 1.398 . S
C3540 C3541 1.384 . S
C3540 H3553 0.947 . S
C3540 C3575 1.382 . S
C3541 C3540 1.384 . S
C3541 C3542 1.378 . S
C3542 C3541 1.378 . S
C3542 C3543 1.378 . S
C3542 H3554 0.952 . S
C3543 C3542 1.378 . S
C3543 H3555 0.950 . S
C3543 C3574 1.383 . S
H3544 C3563 0.947 . S
H3545 C3564 0.946 . S
H3546 C3566 0.953 . S
H3547 C3567 0.945 . S
H3548 C3569 0.952 . S
H3549 C3570 0.949 . S
H3550 C3572 0.950 . S
H3551 C3573 0.948 . S
H3552 C3575 0.951 . S
H3553 C3540 0.947 . S
H3554 C3542 0.952 . S
H3555 C3543 0.950 . S
N3556 C3559 1.382 . S
N3556 C3561 1.363 . S
N3557 C3559 1.371 . S
N3557 C3560 1.372 . S
N3558 C3560 1.361 . S
N3558 C3561 1.377 . S
C3559 N3556 1.382 . S
C3559 N3557 1.371 . S
C3559 C3562 1.480 . S
C3560 N3557 1.372 . S
C3560 N3558 1.361 . S
C3560 C3568 1.457 . S
C3561 N3556 1.363 . S
C3561 N3558 1.377 . S
C3561 C3574 1.479 . S
C3562 C3559 1.480 . S
C3562 C3563 1.383 . S
C3562 C3567 1.385 . S
C3563 H3544 0.947 . S
C3563 C3562 1.383 . S
C3563 C3564 1.388 . S
C3564 H3545 0.946 . S
C3564 C3563 1.388 . S
C3564 C3565 1.384 . S
C3565 C3564 1.384 . S
C3565 C3566 1.377 . S
C3566 H3546 0.953 . S
C3566 C3565 1.377 . S
C3566 C3567 1.369 . S
C3567 H3547 0.945 . S
C3567 C3562 1.385 . S
C3567 C3566 1.369 . S
C3568 C3560 1.457 . S
C3568 C3569 1.372 . S
C3568 C3573 1.364 . S
C3569 H3548 0.952 . S
C3569 C3568 1.372 . S
C3569 C3570 1.389 . S
C3570 H3549 0.949 . S
C3570 C3569 1.389 . S
C3570 C3571 1.387 . S
C3571 C3570 1.387 . S
C3571 C3572 1.372 . S
C3572 H3550 0.950 . S
C3572 C3571 1.372 . S
C3572 C3573 1.379 . S
C3573 H3551 0.948 . S
C3573 C3568 1.364 . S
C3573 C3572 1.379 . S
C3574 C3543 1.383 . S
C3574 C3561 1.479 . S
C3574 C3575 1.398 . S
C3575 C3540 1.382 . S
C3575 H3552 0.951 . S
C3575 C3574 1.398 . S
C3576 C3577 1.384 . S
C3576 H3589 0.947 . S
C3576 C3611 1.382 . S
C3577 C3576 1.384 . S
C3577 C3578 1.378 . S
C3578 C3577 1.378 . S
C3578 C3579 1.378 . S
C3578 H3590 0.952 . S
C3579 C3578 1.378 . S
C3579 H3591 0.950 . S
C3579 C3610 1.383 . S
H3580 C3599 0.947 . S
H3581 C3600 0.946 . S
H3582 C3602 0.953 . S
H3583 C3603 0.945 . S
H3584 C3605 0.952 . S
H3585 C3606 0.949 . S
H3586 C3608 0.950 . S
H3587 C3609 0.948 . S
H3588 C3611 0.951 . S
H3589 C3576 0.947 . S
H3590 C3578 0.952 . S
H3591 C3579 0.950 . S
N3592 C3595 1.382 . S
N3592 C3597 1.363 . S
N3593 C3595 1.371 . S
N3593 C3596 1.372 . S
N3594 C3596 1.361 . S
N3594 C3597 1.377 . S
C3595 N3592 1.382 . S
C3595 N3593 1.371 . S
C3595 C3598 1.480 . S
C3596 N3593 1.372 . S
C3596 N3594 1.361 . S
C3596 C3604 1.457 . S
C3597 N3592 1.363 . S
C3597 N3594 1.377 . S
C3597 C3610 1.479 . S
C3598 C3595 1.480 . S
C3598 C3599 1.383 . S
C3598 C3603 1.385 . S
C3599 H3580 0.947 . S
C3599 C3598 1.383 . S
C3599 C3600 1.388 . S
C3600 H3581 0.946 . S
C3600 C3599 1.388 . S
C3600 C3601 1.384 . S
C3601 C3600 1.384 . S
C3601 C3602 1.377 . S
C3602 H3582 0.953 . S
C3602 C3601 1.377 . S
C3602 C3603 1.369 . S
C3603 H3583 0.945 . S
C3603 C3598 1.385 . S
C3603 C3602 1.369 . S
C3604 C3596 1.457 . S
C3604 C3605 1.372 . S
C3604 C3609 1.364 . S
C3605 H3584 0.952 . S
C3605 C3604 1.372 . S
C3605 C3606 1.389 . S
C3606 H3585 0.949 . S
C3606 C3605 1.389 . S
C3606 C3607 1.387 . S
C3607 C3606 1.387 . S
C3607 C3608 1.372 . S
C3608 H3586 0.950 . S
C3608 C3607 1.372 . S
C3608 C3609 1.379 . S
C3609 H3587 0.948 . S
C3609 C3604 1.364 . S
C3609 C3608 1.379 . S
C3610 C3579 1.383 . S
C3610 C3597 1.479 . S
C3610 C3611 1.398 . S
C3611 C3576 1.382 . S
C3611 H3588 0.951 . S
C3611 C3610 1.398 . S
C3612 C3613 1.384 . S
C3612 H3625 0.947 . S
C3612 C3647 1.382 . S
C3613 C3612 1.384 . S
C3613 C3614 1.378 . S
C3614 C3613 1.378 . S
C3614 C3615 1.378 . S
C3614 H3626 0.952 . S
C3615 C3614 1.378 . S
C3615 H3627 0.950 . S
C3615 C3646 1.383 . S
H3616 C3635 0.947 . S
H3617 C3636 0.946 . S
H3618 C3638 0.953 . S
H3619 C3639 0.945 . S
H3620 C3641 0.952 . S
H3621 C3642 0.949 . S
H3622 C3644 0.950 . S
H3623 C3645 0.948 . S
H3624 C3647 0.951 . S
H3625 C3612 0.947 . S
H3626 C3614 0.952 . S
H3627 C3615 0.950 . S
N3628 C3631 1.382 . S
N3628 C3633 1.363 . S
N3629 C3631 1.371 . S
N3629 C3632 1.372 . S
N3630 C3632 1.361 . S
N3630 C3633 1.377 . S
C3631 N3628 1.382 . S
C3631 N3629 1.371 . S
C3631 C3634 1.480 . S
C3632 N3629 1.372 . S
C3632 N3630 1.361 . S
C3632 C3640 1.457 . S
C3633 N3628 1.363 . S
C3633 N3630 1.377 . S
C3633 C3646 1.479 . S
C3634 C3631 1.480 . S
C3634 C3635 1.383 . S
C3634 C3639 1.385 . S
C3635 H3616 0.947 . S
C3635 C3634 1.383 . S
C3635 C3636 1.388 . S
C3636 H3617 0.946 . S
C3636 C3635 1.388 . S
C3636 C3637 1.384 . S
C3637 C3636 1.384 . S
C3637 C3638 1.377 . S
C3638 H3618 0.953 . S
C3638 C3637 1.377 . S
C3638 C3639 1.369 . S
C3639 H3619 0.945 . S
C3639 C3634 1.385 . S
C3639 C3638 1.369 . S
C3640 C3632 1.457 . S
C3640 C3641 1.372 . S
C3640 C3645 1.364 . S
C3641 H3620 0.952 . S
C3641 C3640 1.372 . S
C3641 C3642 1.389 . S
C3642 H3621 0.949 . S
C3642 C3641 1.389 . S
C3642 C3643 1.387 . S
C3643 C3642 1.387 . S
C3643 C3644 1.372 . S
C3644 H3622 0.950 . S
C3644 C3643 1.372 . S
C3644 C3645 1.379 . S
C3645 H3623 0.948 . S
C3645 C3640 1.364 . S
C3645 C3644 1.379 . S
C3646 C3615 1.383 . S
C3646 C3633 1.479 . S
C3646 C3647 1.398 . S
C3647 C3612 1.382 . S
C3647 H3624 0.951 . S
C3647 C3646 1.398 . S
H3648 C3660 0.930 . S
H3649 C3662 0.930 . S
H3650 C3663 0.930 . S
H3651 C3667 0.959 . S
H3652 C3667 0.959 . S
H3653 C3667 0.961 . S
H3654 C3668 0.960 . S
H3655 C3668 0.961 . S
H3656 C3668 0.959 . S
H3657 C3671 0.929 . S
H3658 C3672 0.931 . S
H3659 C3674 0.930 . S
C3660 H3648 0.930 . S
C3660 C3661 1.399 . S
C3660 C3665 1.399 . S
C3661 C3660 1.399 . S
C3661 C3662 1.376 . S
C3662 H3649 0.930 . S
C3662 C3661 1.376 . S
C3662 C3663 1.388 . S
C3663 H3650 0.930 . S
C3663 C3662 1.388 . S
C3663 C3664 1.390 . S
C3664 C3663 1.390 . S
C3664 C3665 1.394 . S
C3664 C3670 1.465 . S
C3665 C3660 1.399 . S
C3665 C3664 1.394 . S
C3665 C3666 1.516 . S
C3666 C3665 1.516 . S
C3666 C3667 1.502 . S
C3666 C3668 1.561 . S
C3666 C3669 1.526 . S
C3667 H3651 0.959 . S
C3667 H3652 0.959 . S
C3667 H3653 0.961 . S
C3667 C3666 1.502 . S
C3668 H3654 0.960 . S
C3668 H3655 0.961 . S
C3668 H3656 0.959 . S
C3668 C3666 1.561 . S
C3669 C3666 1.526 . S
C3669 C3670 1.396 . S
C3669 C3674 1.390 . S
C3670 C3664 1.465 . S
C3670 C3669 1.396 . S
C3670 C3671 1.399 . S
C3671 H3657 0.929 . S
C3671 C3670 1.399 . S
C3671 C3672 1.385 . S
C3672 H3658 0.931 . S
C3672 C3671 1.385 . S
C3672 C3673 1.389 . S
C3673 C3672 1.389 . S
C3673 C3674 1.387 . S
C3674 H3659 0.930 . S
C3674 C3669 1.390 . S
C3674 C3673 1.387 . S
H3675 C3687 0.930 . S
H3676 C3689 0.930 . S
H3677 C3690 0.930 . S
H3678 C3694 0.959 . S
H3679 C3694 0.959 . S
H3680 C3694 0.961 . S
H3681 C3695 0.960 . S
H3682 C3695 0.961 . S
H3683 C3695 0.959 . S
H3684 C3698 0.929 . S
H3685 C3699 0.931 . S
H3686 C3701 0.930 . S
C3687 H3675 0.930 . S
C3687 C3688 1.399 . S
C3687 C3692 1.399 . S
C3688 C3687 1.399 . S
C3688 C3689 1.376 . S
C3689 H3676 0.930 . S
C3689 C3688 1.376 . S
C3689 C3690 1.388 . S
C3690 H3677 0.930 . S
C3690 C3689 1.388 . S
C3690 C3691 1.390 . S
C3691 C3690 1.390 . S
C3691 C3692 1.394 . S
C3691 C3697 1.465 . S
C3692 C3687 1.399 . S
C3692 C3691 1.394 . S
C3692 C3693 1.516 . S
C3693 C3692 1.516 . S
C3693 C3694 1.502 . S
C3693 C3695 1.561 . S
C3693 C3696 1.526 . S
C3694 H3678 0.959 . S
C3694 H3679 0.959 . S
C3694 H3680 0.961 . S
C3694 C3693 1.502 . S
C3695 H3681 0.960 . S
C3695 H3682 0.961 . S
C3695 H3683 0.959 . S
C3695 C3693 1.561 . S
C3696 C3693 1.526 . S
C3696 C3697 1.396 . S
C3696 C3701 1.390 . S
C3697 C3691 1.465 . S
C3697 C3696 1.396 . S
C3697 C3698 1.399 . S
C3698 H3684 0.929 . S
C3698 C3697 1.399 . S
C3698 C3699 1.385 . S
C3699 H3685 0.931 . S
C3699 C3698 1.385 . S
C3699 C3700 1.389 . S
C3700 C3699 1.389 . S
C3700 C3701 1.387 . S
C3701 H3686 0.930 . S
C3701 C3696 1.390 . S
C3701 C3700 1.387 . S
H3702 C3714 0.930 . S
H3703 C3716 0.930 . S
H3704 C3717 0.930 . S
H3705 C3721 0.959 . S
H3706 C3721 0.959 . S
H3707 C3721 0.961 . S
H3708 C3722 0.960 . S
H3709 C3722 0.961 . S
H3710 C3722 0.959 . S
H3711 C3725 0.929 . S
H3712 C3726 0.931 . S
H3713 C3728 0.930 . S
C3714 H3702 0.930 . S
C3714 C3715 1.399 . S
C3714 C3719 1.399 . S
C3715 C3714 1.399 . S
C3715 C3716 1.376 . S
C3716 H3703 0.930 . S
C3716 C3715 1.376 . S
C3716 C3717 1.388 . S
C3717 H3704 0.930 . S
C3717 C3716 1.388 . S
C3717 C3718 1.390 . S
C3718 C3717 1.390 . S
C3718 C3719 1.394 . S
C3718 C3724 1.465 . S
C3719 C3714 1.399 . S
C3719 C3718 1.394 . S
C3719 C3720 1.516 . S
C3720 C3719 1.516 . S
C3720 C3721 1.502 . S
C3720 C3722 1.561 . S
C3720 C3723 1.526 . S
C3721 H3705 0.959 . S
C3721 H3706 0.959 . S
C3721 H3707 0.961 . S
C3721 C3720 1.502 . S
C3722 H3708 0.960 . S
C3722 H3709 0.961 . S
C3722 H3710 0.959 . S
C3722 C3720 1.561 . S
C3723 C3720 1.526 . S
C3723 C3724 1.396 . S
C3723 C3728 1.390 . S
C3724 C3718 1.465 . S
C3724 C3723 1.396 . S
C3724 C3725 1.399 . S
C3725 H3711 0.929 . S
C3725 C3724 1.399 . S
C3725 C3726 1.385 . S
C3726 H3712 0.931 . S
C3726 C3725 1.385 . S
C3726 C3727 1.389 . S
C3727 C3726 1.389 . S
C3727 C3728 1.387 . S
C3728 H3713 0.930 . S
C3728 C3723 1.390 . S
C3728 C3727 1.387 . S
H3729 C3741 0.930 . S
H3730 C3743 0.930 . S
H3731 C3744 0.930 . S
H3732 C3748 0.959 . S
H3733 C3748 0.959 . S
H3734 C3748 0.961 . S
H3735 C3749 0.960 . S
H3736 C3749 0.961 . S
H3737 C3749 0.959 . S
H3738 C3752 0.929 . S
H3739 C3753 0.931 . S
H3740 C3755 0.930 . S
C3741 H3729 0.930 . S
C3741 C3742 1.399 . S
C3741 C3746 1.399 . S
C3742 C3741 1.399 . S
C3742 C3743 1.376 . S
C3743 H3730 0.930 . S
C3743 C3742 1.376 . S
C3743 C3744 1.388 . S
C3744 H3731 0.930 . S
C3744 C3743 1.388 . S
C3744 C3745 1.390 . S
C3745 C3744 1.390 . S
C3745 C3746 1.394 . S
C3745 C3751 1.465 . S
C3746 C3741 1.399 . S
C3746 C3745 1.394 . S
C3746 C3747 1.516 . S
C3747 C3746 1.516 . S
C3747 C3748 1.502 . S
C3747 C3749 1.561 . S
C3747 C3750 1.526 . S
C3748 H3732 0.959 . S
C3748 H3733 0.959 . S
C3748 H3734 0.961 . S
C3748 C3747 1.502 . S
C3749 H3735 0.960 . S
C3749 H3736 0.961 . S
C3749 H3737 0.959 . S
C3749 C3747 1.561 . S
C3750 C3747 1.526 . S
C3750 C3751 1.396 . S
C3750 C3755 1.390 . S
C3751 C3745 1.465 . S
C3751 C3750 1.396 . S
C3751 C3752 1.399 . S
C3752 H3738 0.929 . S
C3752 C3751 1.399 . S
C3752 C3753 1.385 . S
C3753 H3739 0.931 . S
C3753 C3752 1.385 . S
C3753 C3754 1.389 . S
C3754 C3753 1.389 . S
C3754 C3755 1.387 . S
C3755 H3740 0.930 . S
C3755 C3750 1.390 . S
C3755 C3754 1.387 . S
H3756 C3768 0.930 . S
H3757 C3770 0.930 . S
H3758 C3771 0.930 . S
H3759 C3775 0.959 . S
H3760 C3775 0.959 . S
H3761 C3775 0.961 . S
H3762 C3776 0.960 . S
H3763 C3776 0.961 . S
H3764 C3776 0.959 . S
H3765 C3779 0.929 . S
H3766 C3780 0.931 . S
H3767 C3782 0.930 . S
C3768 H3756 0.930 . S
C3768 C3769 1.399 . S
C3768 C3773 1.399 . S
C3769 C3768 1.399 . S
C3769 C3770 1.376 . S
C3770 H3757 0.930 . S
C3770 C3769 1.376 . S
C3770 C3771 1.388 . S
C3771 H3758 0.930 . S
C3771 C3770 1.388 . S
C3771 C3772 1.390 . S
C3772 C3771 1.390 . S
C3772 C3773 1.394 . S
C3772 C3778 1.465 . S
C3773 C3768 1.399 . S
C3773 C3772 1.394 . S
C3773 C3774 1.516 . S
C3774 C3773 1.516 . S
C3774 C3775 1.502 . S
C3774 C3776 1.561 . S
C3774 C3777 1.526 . S
C3775 H3759 0.959 . S
C3775 H3760 0.959 . S
C3775 H3761 0.961 . S
C3775 C3774 1.502 . S
C3776 H3762 0.960 . S
C3776 H3763 0.961 . S
C3776 H3764 0.959 . S
C3776 C3774 1.561 . S
C3777 C3774 1.526 . S
C3777 C3778 1.396 . S
C3777 C3782 1.390 . S
C3778 C3772 1.465 . S
C3778 C3777 1.396 . S
C3778 C3779 1.399 . S
C3779 H3765 0.929 . S
C3779 C3778 1.399 . S
C3779 C3780 1.385 . S
C3780 H3766 0.931 . S
C3780 C3779 1.385 . S
C3780 C3781 1.389 . S
C3781 C3780 1.389 . S
C3781 C3782 1.387 . S
C3782 H3767 0.930 . S
C3782 C3777 1.390 . S
C3782 C3781 1.387 . S
H3783 C3795 0.930 . S
H3784 C3797 0.930 . S
H3785 C3798 0.930 . S
H3786 C3802 0.959 . S
H3787 C3802 0.959 . S
H3788 C3802 0.961 . S
H3789 C3803 0.960 . S
H3790 C3803 0.961 . S
H3791 C3803 0.959 . S
H3792 C3806 0.929 . S
H3793 C3807 0.931 . S
H3794 C3809 0.930 . S
C3795 H3783 0.930 . S
C3795 C3796 1.399 . S
C3795 C3800 1.399 . S
C3796 C3795 1.399 . S
C3796 C3797 1.376 . S
C3797 H3784 0.930 . S
C3797 C3796 1.376 . S
C3797 C3798 1.388 . S
C3798 H3785 0.930 . S
C3798 C3797 1.388 . S
C3798 C3799 1.390 . S
C3799 C3798 1.390 . S
C3799 C3800 1.394 . S
C3799 C3805 1.465 . S
C3800 C3795 1.399 . S
C3800 C3799 1.394 . S
C3800 C3801 1.516 . S
C3801 C3800 1.516 . S
C3801 C3802 1.502 . S
C3801 C3803 1.561 . S
C3801 C3804 1.526 . S
C3802 H3786 0.959 . S
C3802 H3787 0.959 . S
C3802 H3788 0.961 . S
C3802 C3801 1.502 . S
C3803 H3789 0.960 . S
C3803 H3790 0.961 . S
C3803 H3791 0.959 . S
C3803 C3801 1.561 . S
C3804 C3801 1.526 . S
C3804 C3805 1.396 . S
C3804 C3809 1.390 . S
C3805 C3799 1.465 . S
C3805 C3804 1.396 . S
C3805 C3806 1.399 . S
C3806 H3792 0.929 . S
C3806 C3805 1.399 . S
C3806 C3807 1.385 . S
C3807 H3793 0.931 . S
C3807 C3806 1.385 . S
C3807 C3808 1.389 . S
C3808 C3807 1.389 . S
C3808 C3809 1.387 . S
C3809 H3794 0.930 . S
C3809 C3804 1.390 . S
C3809 C3808 1.387 . S
H3810 C3822 0.930 . S
H3811 C3824 0.930 . S
H3812 C3825 0.930 . S
H3813 C3829 0.959 . S
H3814 C3829 0.959 . S
H3815 C3829 0.961 . S
H3816 C3830 0.960 . S
H3817 C3830 0.961 . S
H3818 C3830 0.959 . S
H3819 C3833 0.929 . S
H3820 C3834 0.931 . S
H3821 C3836 0.930 . S
C3822 H3810 0.930 . S
C3822 C3823 1.399 . S
C3822 C3827 1.399 . S
C3823 C3822 1.399 . S
C3823 C3824 1.376 . S
C3824 H3811 0.930 . S
C3824 C3823 1.376 . S
C3824 C3825 1.388 . S
C3825 H3812 0.930 . S
C3825 C3824 1.388 . S
C3825 C3826 1.390 . S
C3826 C3825 1.390 . S
C3826 C3827 1.394 . S
C3826 C3832 1.465 . S
C3827 C3822 1.399 . S
C3827 C3826 1.394 . S
C3827 C3828 1.516 . S
C3828 C3827 1.516 . S
C3828 C3829 1.502 . S
C3828 C3830 1.561 . S
C3828 C3831 1.526 . S
C3829 H3813 0.959 . S
C3829 H3814 0.959 . S
C3829 H3815 0.961 . S
C3829 C3828 1.502 . S
C3830 H3816 0.960 . S
C3830 H3817 0.961 . S
C3830 H3818 0.959 . S
C3830 C3828 1.561 . S
C3831 C3828 1.526 . S
C3831 C3832 1.396 . S
C3831 C3836 1.390 . S
C3832 C3826 1.465 . S
C3832 C3831 1.396 . S
C3832 C3833 1.399 . S
C3833 H3819 0.929 . S
C3833 C3832 1.399 . S
C3833 C3834 1.385 . S
C3834 H3820 0.931 . S
C3834 C3833 1.385 . S
C3834 C3835 1.389 . S
C3835 C3834 1.389 . S
C3835 C3836 1.387 . S
C3836 H3821 0.930 . S
C3836 C3831 1.390 . S
C3836 C3835 1.387 . S
H3837 C3849 0.930 . S
H3838 C3851 0.930 . S
H3839 C3852 0.930 . S
H3840 C3856 0.959 . S
H3841 C3856 0.959 . S
H3842 C3856 0.961 . S
H3843 C3857 0.960 . S
H3844 C3857 0.961 . S
H3845 C3857 0.959 . S
H3846 C3860 0.929 . S
H3847 C3861 0.931 . S
H3848 C3863 0.930 . S
C3849 H3837 0.930 . S
C3849 C3850 1.399 . S
C3849 C3854 1.399 . S
C3850 C3849 1.399 . S
C3850 C3851 1.376 . S
C3851 H3838 0.930 . S
C3851 C3850 1.376 . S
C3851 C3852 1.388 . S
C3852 H3839 0.930 . S
C3852 C3851 1.388 . S
C3852 C3853 1.390 . S
C3853 C3852 1.390 . S
C3853 C3854 1.394 . S
C3853 C3859 1.465 . S
C3854 C3849 1.399 . S
C3854 C3853 1.394 . S
C3854 C3855 1.516 . S
C3855 C3854 1.516 . S
C3855 C3856 1.502 . S
C3855 C3857 1.561 . S
C3855 C3858 1.526 . S
C3856 H3840 0.959 . S
C3856 H3841 0.959 . S
C3856 H3842 0.961 . S
C3856 C3855 1.502 . S
C3857 H3843 0.960 . S
C3857 H3844 0.961 . S
C3857 H3845 0.959 . S
C3857 C3855 1.561 . S
C3858 C3855 1.526 . S
C3858 C3859 1.396 . S
C3858 C3863 1.390 . S
C3859 C3853 1.465 . S
C3859 C3858 1.396 . S
C3859 C3860 1.399 . S
C3860 H3846 0.929 . S
C3860 C3859 1.399 . S
C3860 C3861 1.385 . S
C3861 H3847 0.931 . S
C3861 C3860 1.385 . S
C3861 C3862 1.389 . S
C3862 C3861 1.389 . S
C3862 C3863 1.387 . S
C3863 H3848 0.930 . S
C3863 C3858 1.390 . S
C3863 C3862 1.387 . S
H3864 C3876 0.930 . S
H3865 C3878 0.930 . S
H3866 C3879 0.930 . S
H3867 C3883 0.959 . S
H3868 C3883 0.959 . S
H3869 C3883 0.961 . S
H3870 C3884 0.960 . S
H3871 C3884 0.961 . S
H3872 C3884 0.959 . S
H3873 C3887 0.929 . S
H3874 C3888 0.931 . S
H3875 C3890 0.930 . S
C3876 H3864 0.930 . S
C3876 C3877 1.399 . S
C3876 C3881 1.399 . S
C3877 C3876 1.399 . S
C3877 C3878 1.376 . S
C3878 H3865 0.930 . S
C3878 C3877 1.376 . S
C3878 C3879 1.388 . S
C3879 H3866 0.930 . S
C3879 C3878 1.388 . S
C3879 C3880 1.390 . S
C3880 C3879 1.390 . S
C3880 C3881 1.394 . S
C3880 C3886 1.465 . S
C3881 C3876 1.399 . S
C3881 C3880 1.394 . S
C3881 C3882 1.516 . S
C3882 C3881 1.516 . S
C3882 C3883 1.502 . S
C3882 C3884 1.561 . S
C3882 C3885 1.526 . S
C3883 H3867 0.959 . S
C3883 H3868 0.959 . S
C3883 H3869 0.961 . S
C3883 C3882 1.502 . S
C3884 H3870 0.960 . S
C3884 H3871 0.961 . S
C3884 H3872 0.959 . S
C3884 C3882 1.561 . S
C3885 C3882 1.526 . S
C3885 C3886 1.396 . S
C3885 C3890 1.390 . S
C3886 C3880 1.465 . S
C3886 C3885 1.396 . S
C3886 C3887 1.399 . S
C3887 H3873 0.929 . S
C3887 C3886 1.399 . S
C3887 C3888 1.385 . S
C3888 H3874 0.931 . S
C3888 C3887 1.385 . S
C3888 C3889 1.389 . S
C3889 C3888 1.389 . S
C3889 C3890 1.387 . S
C3890 H3875 0.930 . S
C3890 C3885 1.390 . S
C3890 C3889 1.387 . S
H3891 C3903 0.930 . S
H3892 C3905 0.930 . S
H3893 C3906 0.930 . S
H3894 C3910 0.959 . S
H3895 C3910 0.959 . S
H3896 C3910 0.961 . S
H3897 C3911 0.960 . S
H3898 C3911 0.961 . S
H3899 C3911 0.959 . S
H3900 C3914 0.929 . S
H3901 C3915 0.931 . S
H3902 C3917 0.930 . S
C3903 H3891 0.930 . S
C3903 C3904 1.399 . S
C3903 C3908 1.399 . S
C3904 C3903 1.399 . S
C3904 C3905 1.376 . S
C3905 H3892 0.930 . S
C3905 C3904 1.376 . S
C3905 C3906 1.388 . S
C3906 H3893 0.930 . S
C3906 C3905 1.388 . S
C3906 C3907 1.390 . S
C3907 C3906 1.390 . S
C3907 C3908 1.394 . S
C3907 C3913 1.465 . S
C3908 C3903 1.399 . S
C3908 C3907 1.394 . S
C3908 C3909 1.516 . S
C3909 C3908 1.516 . S
C3909 C3910 1.502 . S
C3909 C3911 1.561 . S
C3909 C3912 1.526 . S
C3910 H3894 0.959 . S
C3910 H3895 0.959 . S
C3910 H3896 0.961 . S
C3910 C3909 1.502 . S
C3911 H3897 0.960 . S
C3911 H3898 0.961 . S
C3911 H3899 0.959 . S
C3911 C3909 1.561 . S
C3912 C3909 1.526 . S
C3912 C3913 1.396 . S
C3912 C3917 1.390 . S
C3913 C3907 1.465 . S
C3913 C3912 1.396 . S
C3913 C3914 1.399 . S
C3914 H3900 0.929 . S
C3914 C3913 1.399 . S
C3914 C3915 1.385 . S
C3915 H3901 0.931 . S
C3915 C3914 1.385 . S
C3915 C3916 1.389 . S
C3916 C3915 1.389 . S
C3916 C3917 1.387 . S
C3917 H3902 0.930 . S
C3917 C3912 1.390 . S
C3917 C3916 1.387 . S
H3918 C3930 0.930 . S
H3919 C3932 0.930 . S
H3920 C3933 0.930 . S
H3921 C3937 0.959 . S
H3922 C3937 0.959 . S
H3923 C3937 0.961 . S
H3924 C3938 0.960 . S
H3925 C3938 0.961 . S
H3926 C3938 0.959 . S
H3927 C3941 0.929 . S
H3928 C3942 0.931 . S
H3929 C3944 0.930 . S
C3930 H3918 0.930 . S
C3930 C3931 1.399 . S
C3930 C3935 1.399 . S
C3931 C3930 1.399 . S
C3931 C3932 1.376 . S
C3932 H3919 0.930 . S
C3932 C3931 1.376 . S
C3932 C3933 1.388 . S
C3933 H3920 0.930 . S
C3933 C3932 1.388 . S
C3933 C3934 1.390 . S
C3934 C3933 1.390 . S
C3934 C3935 1.394 . S
C3934 C3940 1.465 . S
C3935 C3930 1.399 . S
C3935 C3934 1.394 . S
C3935 C3936 1.516 . S
C3936 C3935 1.516 . S
C3936 C3937 1.502 . S
C3936 C3938 1.561 . S
C3936 C3939 1.526 . S
C3937 H3921 0.959 . S
C3937 H3922 0.959 . S
C3937 H3923 0.961 . S
C3937 C3936 1.502 . S
C3938 H3924 0.960 . S
C3938 H3925 0.961 . S
C3938 H3926 0.959 . S
C3938 C3936 1.561 . S
C3939 C3936 1.526 . S
C3939 C3940 1.396 . S
C3939 C3944 1.390 . S
C3940 C3934 1.465 . S
C3940 C3939 1.396 . S
C3940 C3941 1.399 . S
C3941 H3927 0.929 . S
C3941 C3940 1.399 . S
C3941 C3942 1.385 . S
C3942 H3928 0.931 . S
C3942 C3941 1.385 . S
C3942 C3943 1.389 . S
C3943 C3942 1.389 . S
C3943 C3944 1.387 . S
C3944 H3929 0.930 . S
C3944 C3939 1.390 . S
C3944 C3943 1.387 . S
H3945 C3957 0.930 . S
H3946 C3959 0.930 . S
H3947 C3960 0.930 . S
H3948 C3964 0.959 . S
H3949 C3964 0.959 . S
H3950 C3964 0.961 . S
H3951 C3965 0.960 . S
H3952 C3965 0.961 . S
H3953 C3965 0.959 . S
H3954 C3968 0.929 . S
H3955 C3969 0.931 . S
H3956 C3971 0.930 . S
C3957 H3945 0.930 . S
C3957 C3958 1.399 . S
C3957 C3962 1.399 . S
C3958 C3957 1.399 . S
C3958 C3959 1.376 . S
C3959 H3946 0.930 . S
C3959 C3958 1.376 . S
C3959 C3960 1.388 . S
C3960 H3947 0.930 . S
C3960 C3959 1.388 . S
C3960 C3961 1.390 . S
C3961 C3960 1.390 . S
C3961 C3962 1.394 . S
C3961 C3967 1.465 . S
C3962 C3957 1.399 . S
C3962 C3961 1.394 . S
C3962 C3963 1.516 . S
C3963 C3962 1.516 . S
C3963 C3964 1.502 . S
C3963 C3965 1.561 . S
C3963 C3966 1.526 . S
C3964 H3948 0.959 . S
C3964 H3949 0.959 . S
C3964 H3950 0.961 . S
C3964 C3963 1.502 . S
C3965 H3951 0.960 . S
C3965 H3952 0.961 . S
C3965 H3953 0.959 . S
C3965 C3963 1.561 . S
C3966 C3963 1.526 . S
C3966 C3967 1.396 . S
C3966 C3971 1.390 . S
C3967 C3961 1.465 . S
C3967 C3966 1.396 . S
C3967 C3968 1.399 . S
C3968 H3954 0.929 . S
C3968 C3967 1.399 . S
C3968 C3969 1.385 . S
C3969 H3955 0.931 . S
C3969 C3968 1.385 . S
C3969 C3970 1.389 . S
C3970 C3969 1.389 . S
C3970 C3971 1.387 . S
C3971 H3956 0.930 . S
C3971 C3966 1.390 . S
C3971 C3970 1.387 . S
H3972 C3984 0.930 . S
H3973 C3986 0.930 . S
H3974 C3987 0.930 . S
H3975 C3991 0.959 . S
H3976 C3991 0.959 . S
H3977 C3991 0.961 . S
H3978 C3992 0.960 . S
H3979 C3992 0.961 . S
H3980 C3992 0.959 . S
H3981 C3995 0.929 . S
H3982 C3996 0.931 . S
H3983 C3998 0.930 . S
C3984 H3972 0.930 . S
C3984 C3985 1.399 . S
C3984 C3989 1.399 . S
C3985 C3984 1.399 . S
C3985 C3986 1.376 . S
C3986 H3973 0.930 . S
C3986 C3985 1.376 . S
C3986 C3987 1.388 . S
C3987 H3974 0.930 . S
C3987 C3986 1.388 . S
C3987 C3988 1.390 . S
C3988 C3987 1.390 . S
C3988 C3989 1.394 . S
C3988 C3994 1.465 . S
C3989 C3984 1.399 . S
C3989 C3988 1.394 . S
C3989 C3990 1.516 . S
C3990 C3989 1.516 . S
C3990 C3991 1.502 . S
C3990 C3992 1.561 . S
C3990 C3993 1.526 . S
C3991 H3975 0.959 . S
C3991 H3976 0.959 . S
C3991 H3977 0.961 . S
C3991 C3990 1.502 . S
C3992 H3978 0.960 . S
C3992 H3979 0.961 . S
C3992 H3980 0.959 . S
C3992 C3990 1.561 . S
C3993 C3990 1.526 . S
C3993 C3994 1.396 . S
C3993 C3998 1.390 . S
C3994 C3988 1.465 . S
C3994 C3993 1.396 . S
C3994 C3995 1.399 . S
C3995 H3981 0.929 . S
C3995 C3994 1.399 . S
C3995 C3996 1.385 . S
C3996 H3982 0.931 . S
C3996 C3995 1.385 . S
C3996 C3997 1.389 . S
C3997 C3996 1.389 . S
C3997 C3998 1.387 . S
C3998 H3983 0.930 . S
C3998 C3993 1.390 . S
C3998 C3997 1.387 . S
H3999 C4011 0.930 . S
H4000 C4013 0.930 . S
H4001 C4014 0.930 . S
H4002 C4018 0.959 . S
H4003 C4018 0.959 . S
H4004 C4018 0.961 . S
H4005 C4019 0.960 . S
H4006 C4019 0.961 . S
H4007 C4019 0.959 . S
H4008 C4022 0.929 . S
H4009 C4023 0.931 . S
H4010 C4025 0.930 . S
C4011 H3999 0.930 . S
C4011 C4012 1.399 . S
C4011 C4016 1.399 . S
C4012 C4011 1.399 . S
C4012 C4013 1.376 . S
C4013 H4000 0.930 . S
C4013 C4012 1.376 . S
C4013 C4014 1.388 . S
C4014 H4001 0.930 . S
C4014 C4013 1.388 . S
C4014 C4015 1.390 . S
C4015 C4014 1.390 . S
C4015 C4016 1.394 . S
C4015 C4021 1.465 . S
C4016 C4011 1.399 . S
C4016 C4015 1.394 . S
C4016 C4017 1.516 . S
C4017 C4016 1.516 . S
C4017 C4018 1.502 . S
C4017 C4019 1.561 . S
C4017 C4020 1.526 . S
C4018 H4002 0.959 . S
C4018 H4003 0.959 . S
C4018 H4004 0.961 . S
C4018 C4017 1.502 . S
C4019 H4005 0.960 . S
C4019 H4006 0.961 . S
C4019 H4007 0.959 . S
C4019 C4017 1.561 . S
C4020 C4017 1.526 . S
C4020 C4021 1.396 . S
C4020 C4025 1.390 . S
C4021 C4015 1.465 . S
C4021 C4020 1.396 . S
C4021 C4022 1.399 . S
C4022 H4008 0.929 . S
C4022 C4021 1.399 . S
C4022 C4023 1.385 . S
C4023 H4009 0.931 . S
C4023 C4022 1.385 . S
C4023 C4024 1.389 . S
C4024 C4023 1.389 . S
C4024 C4025 1.387 . S
C4025 H4010 0.930 . S
C4025 C4020 1.390 . S
C4025 C4024 1.387 . S
H4026 C4038 0.930 . S
H4027 C4040 0.930 . S
H4028 C4041 0.930 . S
H4029 C4045 0.959 . S
H4030 C4045 0.959 . S
H4031 C4045 0.961 . S
H4032 C4046 0.960 . S
H4033 C4046 0.961 . S
H4034 C4046 0.959 . S
H4035 C4049 0.929 . S
H4036 C4050 0.931 . S
H4037 C4052 0.930 . S
C4038 H4026 0.930 . S
C4038 C4039 1.399 . S
C4038 C4043 1.399 . S
C4039 C4038 1.399 . S
C4039 C4040 1.376 . S
C4040 H4027 0.930 . S
C4040 C4039 1.376 . S
C4040 C4041 1.388 . S
C4041 H4028 0.930 . S
C4041 C4040 1.388 . S
C4041 C4042 1.390 . S
C4042 C4041 1.390 . S
C4042 C4043 1.394 . S
C4042 C4048 1.465 . S
C4043 C4038 1.399 . S
C4043 C4042 1.394 . S
C4043 C4044 1.516 . S
C4044 C4043 1.516 . S
C4044 C4045 1.502 . S
C4044 C4046 1.561 . S
C4044 C4047 1.526 . S
C4045 H4029 0.959 . S
C4045 H4030 0.959 . S
C4045 H4031 0.961 . S
C4045 C4044 1.502 . S
C4046 H4032 0.960 . S
C4046 H4033 0.961 . S
C4046 H4034 0.959 . S
C4046 C4044 1.561 . S
C4047 C4044 1.526 . S
C4047 C4048 1.396 . S
C4047 C4052 1.390 . S
C4048 C4042 1.465 . S
C4048 C4047 1.396 . S
C4048 C4049 1.399 . S
C4049 H4035 0.929 . S
C4049 C4048 1.399 . S
C4049 C4050 1.385 . S
C4050 H4036 0.931 . S
C4050 C4049 1.385 . S
C4050 C4051 1.389 . S
C4051 C4050 1.389 . S
C4051 C4052 1.387 . S
C4052 H4037 0.930 . S
C4052 C4047 1.390 . S
C4052 C4051 1.387 . S
H4053 C4065 0.930 . S
H4054 C4067 0.930 . S
H4055 C4068 0.930 . S
H4056 C4072 0.959 . S
H4057 C4072 0.959 . S
H4058 C4072 0.961 . S
H4059 C4073 0.960 . S
H4060 C4073 0.961 . S
H4061 C4073 0.959 . S
H4062 C4076 0.929 . S
H4063 C4077 0.931 . S
H4064 C4079 0.930 . S
C4065 H4053 0.930 . S
C4065 C4066 1.399 . S
C4065 C4070 1.399 . S
C4066 C4065 1.399 . S
C4066 C4067 1.376 . S
C4067 H4054 0.930 . S
C4067 C4066 1.376 . S
C4067 C4068 1.388 . S
C4068 H4055 0.930 . S
C4068 C4067 1.388 . S
C4068 C4069 1.390 . S
C4069 C4068 1.390 . S
C4069 C4070 1.394 . S
C4069 C4075 1.465 . S
C4070 C4065 1.399 . S
C4070 C4069 1.394 . S
C4070 C4071 1.516 . S
C4071 C4070 1.516 . S
C4071 C4072 1.502 . S
C4071 C4073 1.561 . S
C4071 C4074 1.526 . S
C4072 H4056 0.959 . S
C4072 H4057 0.959 . S
C4072 H4058 0.961 . S
C4072 C4071 1.502 . S
C4073 H4059 0.960 . S
C4073 H4060 0.961 . S
C4073 H4061 0.959 . S
C4073 C4071 1.561 . S
C4074 C4071 1.526 . S
C4074 C4075 1.396 . S
C4074 C4079 1.390 . S
C4075 C4069 1.465 . S
C4075 C4074 1.396 . S
C4075 C4076 1.399 . S
C4076 H4062 0.929 . S
C4076 C4075 1.399 . S
C4076 C4077 1.385 . S
C4077 H4063 0.931 . S
C4077 C4076 1.385 . S
C4077 C4078 1.389 . S
C4078 C4077 1.389 . S
C4078 C4079 1.387 . S
C4079 H4064 0.930 . S
C4079 C4074 1.390 . S
C4079 C4078 1.387 . S
H4080 C4092 0.930 . S
H4081 C4094 0.930 . S
H4082 C4095 0.930 . S
H4083 C4099 0.959 . S
H4084 C4099 0.959 . S
H4085 C4099 0.961 . S
H4086 C4100 0.960 . S
H4087 C4100 0.961 . S
H4088 C4100 0.959 . S
H4089 C4103 0.929 . S
H4090 C4104 0.931 . S
H4091 C4106 0.930 . S
C4092 H4080 0.930 . S
C4092 C4093 1.399 . S
C4092 C4097 1.399 . S
C4093 C4092 1.399 . S
C4093 C4094 1.376 . S
C4094 H4081 0.930 . S
C4094 C4093 1.376 . S
C4094 C4095 1.388 . S
C4095 H4082 0.930 . S
C4095 C4094 1.388 . S
C4095 C4096 1.390 . S
C4096 C4095 1.390 . S
C4096 C4097 1.394 . S
C4096 C4102 1.465 . S
C4097 C4092 1.399 . S
C4097 C4096 1.394 . S
C4097 C4098 1.516 . S
C4098 C4097 1.516 . S
C4098 C4099 1.502 . S
C4098 C4100 1.561 . S
C4098 C4101 1.526 . S
C4099 H4083 0.959 . S
C4099 H4084 0.959 . S
C4099 H4085 0.961 . S
C4099 C4098 1.502 . S
C4100 H4086 0.960 . S
C4100 H4087 0.961 . S
C4100 H4088 0.959 . S
C4100 C4098 1.561 . S
C4101 C4098 1.526 . S
C4101 C4102 1.396 . S
C4101 C4106 1.390 . S
C4102 C4096 1.465 . S
C4102 C4101 1.396 . S
C4102 C4103 1.399 . S
C4103 H4089 0.929 . S
C4103 C4102 1.399 . S
C4103 C4104 1.385 . S
C4104 H4090 0.931 . S
C4104 C4103 1.385 . S
C4104 C4105 1.389 . S
C4105 C4104 1.389 . S
C4105 C4106 1.387 . S
C4106 H4091 0.930 . S
C4106 C4101 1.390 . S
C4106 C4105 1.387 . S
H4107 C4119 0.930 . S
H4108 C4121 0.930 . S
H4109 C4122 0.930 . S
H4110 C4126 0.959 . S
H4111 C4126 0.959 . S
H4112 C4126 0.961 . S
H4113 C4127 0.960 . S
H4114 C4127 0.961 . S
H4115 C4127 0.959 . S
H4116 C4130 0.929 . S
H4117 C4131 0.931 . S
H4118 C4133 0.930 . S
C4119 H4107 0.930 . S
C4119 C4120 1.399 . S
C4119 C4124 1.399 . S
C4120 C4119 1.399 . S
C4120 C4121 1.376 . S
C4121 H4108 0.930 . S
C4121 C4120 1.376 . S
C4121 C4122 1.388 . S
C4122 H4109 0.930 . S
C4122 C4121 1.388 . S
C4122 C4123 1.390 . S
C4123 C4122 1.390 . S
C4123 C4124 1.394 . S
C4123 C4129 1.465 . S
C4124 C4119 1.399 . S
C4124 C4123 1.394 . S
C4124 C4125 1.516 . S
C4125 C4124 1.516 . S
C4125 C4126 1.502 . S
C4125 C4127 1.561 . S
C4125 C4128 1.526 . S
C4126 H4110 0.959 . S
C4126 H4111 0.959 . S
C4126 H4112 0.961 . S
C4126 C4125 1.502 . S
C4127 H4113 0.960 . S
C4127 H4114 0.961 . S
C4127 H4115 0.959 . S
C4127 C4125 1.561 . S
C4128 C4125 1.526 . S
C4128 C4129 1.396 . S
C4128 C4133 1.390 . S
C4129 C4123 1.465 . S
C4129 C4128 1.396 . S
C4129 C4130 1.399 . S
C4130 H4116 0.929 . S
C4130 C4129 1.399 . S
C4130 C4131 1.385 . S
C4131 H4117 0.931 . S
C4131 C4130 1.385 . S
C4131 C4132 1.389 . S
C4132 C4131 1.389 . S
C4132 C4133 1.387 . S
C4133 H4118 0.930 . S
C4133 C4128 1.390 . S
C4133 C4132 1.387 . S
H4134 C4146 0.930 . S
H4135 C4148 0.930 . S
H4136 C4149 0.930 . S
H4137 C4153 0.959 . S
H4138 C4153 0.959 . S
H4139 C4153 0.961 . S
H4140 C4154 0.960 . S
H4141 C4154 0.961 . S
H4142 C4154 0.959 . S
H4143 C4157 0.929 . S
H4144 C4158 0.931 . S
H4145 C4160 0.930 . S
C4146 H4134 0.930 . S
C4146 C4147 1.399 . S
C4146 C4151 1.399 . S
C4147 C4146 1.399 . S
C4147 C4148 1.376 . S
C4148 H4135 0.930 . S
C4148 C4147 1.376 . S
C4148 C4149 1.388 . S
C4149 H4136 0.930 . S
C4149 C4148 1.388 . S
C4149 C4150 1.390 . S
C4150 C4149 1.390 . S
C4150 C4151 1.394 . S
C4150 C4156 1.465 . S
C4151 C4146 1.399 . S
C4151 C4150 1.394 . S
C4151 C4152 1.516 . S
C4152 C4151 1.516 . S
C4152 C4153 1.502 . S
C4152 C4154 1.561 . S
C4152 C4155 1.526 . S
C4153 H4137 0.959 . S
C4153 H4138 0.959 . S
C4153 H4139 0.961 . S
C4153 C4152 1.502 . S
C4154 H4140 0.960 . S
C4154 H4141 0.961 . S
C4154 H4142 0.959 . S
C4154 C4152 1.561 . S
C4155 C4152 1.526 . S
C4155 C4156 1.396 . S
C4155 C4160 1.390 . S
C4156 C4150 1.465 . S
C4156 C4155 1.396 . S
C4156 C4157 1.399 . S
C4157 H4143 0.929 . S
C4157 C4156 1.399 . S
C4157 C4158 1.385 . S
C4158 H4144 0.931 . S
C4158 C4157 1.385 . S
C4158 C4159 1.389 . S
C4159 C4158 1.389 . S
C4159 C4160 1.387 . S
C4160 H4145 0.930 . S
C4160 C4155 1.390 . S
C4160 C4159 1.387 . S
H4161 C4173 0.930 . S
H4162 C4175 0.930 . S
H4163 C4176 0.930 . S
H4164 C4180 0.959 . S
H4165 C4180 0.959 . S
H4166 C4180 0.961 . S
H4167 C4181 0.960 . S
H4168 C4181 0.961 . S
H4169 C4181 0.959 . S
H4170 C4184 0.929 . S
H4171 C4185 0.931 . S
H4172 C4187 0.930 . S
C4173 H4161 0.930 . S
C4173 C4174 1.399 . S
C4173 C4178 1.399 . S
C4174 C4173 1.399 . S
C4174 C4175 1.376 . S
C4175 H4162 0.930 . S
C4175 C4174 1.376 . S
C4175 C4176 1.388 . S
C4176 H4163 0.930 . S
C4176 C4175 1.388 . S
C4176 C4177 1.390 . S
C4177 C4176 1.390 . S
C4177 C4178 1.394 . S
C4177 C4183 1.465 . S
C4178 C4173 1.399 . S
C4178 C4177 1.394 . S
C4178 C4179 1.516 . S
C4179 C4178 1.516 . S
C4179 C4180 1.502 . S
C4179 C4181 1.561 . S
C4179 C4182 1.526 . S
C4180 H4164 0.959 . S
C4180 H4165 0.959 . S
C4180 H4166 0.961 . S
C4180 C4179 1.502 . S
C4181 H4167 0.960 . S
C4181 H4168 0.961 . S
C4181 H4169 0.959 . S
C4181 C4179 1.561 . S
C4182 C4179 1.526 . S
C4182 C4183 1.396 . S
C4182 C4187 1.390 . S
C4183 C4177 1.465 . S
C4183 C4182 1.396 . S
C4183 C4184 1.399 . S
C4184 H4170 0.929 . S
C4184 C4183 1.399 . S
C4184 C4185 1.385 . S
C4185 H4171 0.931 . S
C4185 C4184 1.385 . S
C4185 C4186 1.389 . S
C4186 C4185 1.389 . S
C4186 C4187 1.387 . S
C4187 H4172 0.930 . S
C4187 C4182 1.390 . S
C4187 C4186 1.387 . S
H4188 C4200 0.930 . S
H4189 C4202 0.930 . S
H4190 C4203 0.930 . S
H4191 C4207 0.959 . S
H4192 C4207 0.959 . S
H4193 C4207 0.961 . S
H4194 C4208 0.960 . S
H4195 C4208 0.961 . S
H4196 C4208 0.959 . S
H4197 C4211 0.929 . S
H4198 C4212 0.931 . S
H4199 C4214 0.930 . S
C4200 H4188 0.930 . S
C4200 C4201 1.399 . S
C4200 C4205 1.399 . S
C4201 C4200 1.399 . S
C4201 C4202 1.376 . S
C4202 H4189 0.930 . S
C4202 C4201 1.376 . S
C4202 C4203 1.388 . S
C4203 H4190 0.930 . S
C4203 C4202 1.388 . S
C4203 C4204 1.390 . S
C4204 C4203 1.390 . S
C4204 C4205 1.394 . S
C4204 C4210 1.465 . S
C4205 C4200 1.399 . S
C4205 C4204 1.394 . S
C4205 C4206 1.516 . S
C4206 C4205 1.516 . S
C4206 C4207 1.502 . S
C4206 C4208 1.561 . S
C4206 C4209 1.526 . S
C4207 H4191 0.959 . S
C4207 H4192 0.959 . S
C4207 H4193 0.961 . S
C4207 C4206 1.502 . S
C4208 H4194 0.960 . S
C4208 H4195 0.961 . S
C4208 H4196 0.959 . S
C4208 C4206 1.561 . S
C4209 C4206 1.526 . S
C4209 C4210 1.396 . S
C4209 C4214 1.390 . S
C4210 C4204 1.465 . S
C4210 C4209 1.396 . S
C4210 C4211 1.399 . S
C4211 H4197 0.929 . S
C4211 C4210 1.399 . S
C4211 C4212 1.385 . S
C4212 H4198 0.931 . S
C4212 C4211 1.385 . S
C4212 C4213 1.389 . S
C4213 C4212 1.389 . S
C4213 C4214 1.387 . S
C4214 H4199 0.930 . S
C4214 C4209 1.390 . S
C4214 C4213 1.387 . S
H4215 C4227 0.930 . S
H4216 C4229 0.930 . S
H4217 C4230 0.930 . S
H4218 C4234 0.959 . S
H4219 C4234 0.959 . S
H4220 C4234 0.961 . S
H4221 C4235 0.960 . S
H4222 C4235 0.961 . S
H4223 C4235 0.959 . S
H4224 C4238 0.929 . S
H4225 C4239 0.931 . S
H4226 C4241 0.930 . S
C4227 H4215 0.930 . S
C4227 C4228 1.399 . S
C4227 C4232 1.399 . S
C4228 C4227 1.399 . S
C4228 C4229 1.376 . S
C4229 H4216 0.930 . S
C4229 C4228 1.376 . S
C4229 C4230 1.388 . S
C4230 H4217 0.930 . S
C4230 C4229 1.388 . S
C4230 C4231 1.390 . S
C4231 C4230 1.390 . S
C4231 C4232 1.394 . S
C4231 C4237 1.465 . S
C4232 C4227 1.399 . S
C4232 C4231 1.394 . S
C4232 C4233 1.516 . S
C4233 C4232 1.516 . S
C4233 C4234 1.502 . S
C4233 C4235 1.561 . S
C4233 C4236 1.526 . S
C4234 H4218 0.959 . S
C4234 H4219 0.959 . S
C4234 H4220 0.961 . S
C4234 C4233 1.502 . S
C4235 H4221 0.960 . S
C4235 H4222 0.961 . S
C4235 H4223 0.959 . S
C4235 C4233 1.561 . S
C4236 C4233 1.526 . S
C4236 C4237 1.396 . S
C4236 C4241 1.390 . S
C4237 C4231 1.465 . S
C4237 C4236 1.396 . S
C4237 C4238 1.399 . S
C4238 H4224 0.929 . S
C4238 C4237 1.399 . S
C4238 C4239 1.385 . S
C4239 H4225 0.931 . S
C4239 C4238 1.385 . S
C4239 C4240 1.389 . S
C4240 C4239 1.389 . S
C4240 C4241 1.387 . S
C4241 H4226 0.930 . S
C4241 C4236 1.390 . S
C4241 C4240 1.387 . S
H4242 C4254 0.930 . S
H4243 C4256 0.930 . S
H4244 C4257 0.930 . S
H4245 C4261 0.959 . S
H4246 C4261 0.959 . S
H4247 C4261 0.961 . S
H4248 C4262 0.960 . S
H4249 C4262 0.961 . S
H4250 C4262 0.959 . S
H4251 C4265 0.929 . S
H4252 C4266 0.931 . S
H4253 C4268 0.930 . S
C4254 H4242 0.930 . S
C4254 C4255 1.399 . S
C4254 C4259 1.399 . S
C4255 C4254 1.399 . S
C4255 C4256 1.376 . S
C4256 H4243 0.930 . S
C4256 C4255 1.376 . S
C4256 C4257 1.388 . S
C4257 H4244 0.930 . S
C4257 C4256 1.388 . S
C4257 C4258 1.390 . S
C4258 C4257 1.390 . S
C4258 C4259 1.394 . S
C4258 C4264 1.465 . S
C4259 C4254 1.399 . S
C4259 C4258 1.394 . S
C4259 C4260 1.516 . S
C4260 C4259 1.516 . S
C4260 C4261 1.502 . S
C4260 C4262 1.561 . S
C4260 C4263 1.526 . S
C4261 H4245 0.959 . S
C4261 H4246 0.959 . S
C4261 H4247 0.961 . S
C4261 C4260 1.502 . S
C4262 H4248 0.960 . S
C4262 H4249 0.961 . S
C4262 H4250 0.959 . S
C4262 C4260 1.561 . S
C4263 C4260 1.526 . S
C4263 C4264 1.396 . S
C4263 C4268 1.390 . S
C4264 C4258 1.465 . S
C4264 C4263 1.396 . S
C4264 C4265 1.399 . S
C4265 H4251 0.929 . S
C4265 C4264 1.399 . S
C4265 C4266 1.385 . S
C4266 H4252 0.931 . S
C4266 C4265 1.385 . S
C4266 C4267 1.389 . S
C4267 C4266 1.389 . S
C4267 C4268 1.387 . S
C4268 H4253 0.930 . S
C4268 C4263 1.390 . S
C4268 C4267 1.387 . S
H4269 C4281 0.930 . S
H4270 C4283 0.930 . S
H4271 C4284 0.930 . S
H4272 C4288 0.959 . S
H4273 C4288 0.959 . S
H4274 C4288 0.961 . S
H4275 C4289 0.960 . S
H4276 C4289 0.961 . S
H4277 C4289 0.959 . S
H4278 C4292 0.929 . S
H4279 C4293 0.931 . S
H4280 C4295 0.930 . S
C4281 H4269 0.930 . S
C4281 C4282 1.399 . S
C4281 C4286 1.399 . S
C4282 C4281 1.399 . S
C4282 C4283 1.376 . S
C4283 H4270 0.930 . S
C4283 C4282 1.376 . S
C4283 C4284 1.388 . S
C4284 H4271 0.930 . S
C4284 C4283 1.388 . S
C4284 C4285 1.390 . S
C4285 C4284 1.390 . S
C4285 C4286 1.394 . S
C4285 C4291 1.465 . S
C4286 C4281 1.399 . S
C4286 C4285 1.394 . S
C4286 C4287 1.516 . S
C4287 C4286 1.516 . S
C4287 C4288 1.502 . S
C4287 C4289 1.561 . S
C4287 C4290 1.526 . S
C4288 H4272 0.959 . S
C4288 H4273 0.959 . S
C4288 H4274 0.961 . S
C4288 C4287 1.502 . S
C4289 H4275 0.960 . S
C4289 H4276 0.961 . S
C4289 H4277 0.959 . S
C4289 C4287 1.561 . S
C4290 C4287 1.526 . S
C4290 C4291 1.396 . S
C4290 C4295 1.390 . S
C4291 C4285 1.465 . S
C4291 C4290 1.396 . S
C4291 C4292 1.399 . S
C4292 H4278 0.929 . S
C4292 C4291 1.399 . S
C4292 C4293 1.385 . S
C4293 H4279 0.931 . S
C4293 C4292 1.385 . S
C4293 C4294 1.389 . S
C4294 C4293 1.389 . S
C4294 C4295 1.387 . S
C4295 H4280 0.930 . S
C4295 C4290 1.390 . S
C4295 C4294 1.387 . S
H4296 C4308 0.930 . S
H4297 C4310 0.930 . S
H4298 C4311 0.930 . S
H4299 C4315 0.959 . S
H4300 C4315 0.959 . S
H4301 C4315 0.961 . S
H4302 C4316 0.960 . S
H4303 C4316 0.961 . S
H4304 C4316 0.959 . S
H4305 C4319 0.929 . S
H4306 C4320 0.931 . S
H4307 C4322 0.930 . S
C4308 H4296 0.930 . S
C4308 C4309 1.399 . S
C4308 C4313 1.399 . S
C4309 C4308 1.399 . S
C4309 C4310 1.376 . S
C4310 H4297 0.930 . S
C4310 C4309 1.376 . S
C4310 C4311 1.388 . S
C4311 H4298 0.930 . S
C4311 C4310 1.388 . S
C4311 C4312 1.390 . S
C4312 C4311 1.390 . S
C4312 C4313 1.394 . S
C4312 C4318 1.465 . S
C4313 C4308 1.399 . S
C4313 C4312 1.394 . S
C4313 C4314 1.516 . S
C4314 C4313 1.516 . S
C4314 C4315 1.502 . S
C4314 C4316 1.561 . S
C4314 C4317 1.526 . S
C4315 H4299 0.959 . S
C4315 H4300 0.959 . S
C4315 H4301 0.961 . S
C4315 C4314 1.502 . S
C4316 H4302 0.960 . S
C4316 H4303 0.961 . S
C4316 H4304 0.959 . S
C4316 C4314 1.561 . S
C4317 C4314 1.526 . S
C4317 C4318 1.396 . S
C4317 C4322 1.390 . S
C4318 C4312 1.465 . S
C4318 C4317 1.396 . S
C4318 C4319 1.399 . S
C4319 H4305 0.929 . S
C4319 C4318 1.399 . S
C4319 C4320 1.385 . S
C4320 H4306 0.931 . S
C4320 C4319 1.385 . S
C4320 C4321 1.389 . S
C4321 C4320 1.389 . S
C4321 C4322 1.387 . S
C4322 H4307 0.930 . S
C4322 C4317 1.390 . S
C4322 C4321 1.387 . S
H4323 C4335 0.930 . S
H4324 C4337 0.930 . S
H4325 C4338 0.930 . S
H4326 C4342 0.959 . S
H4327 C4342 0.959 . S
H4328 C4342 0.961 . S
H4329 C4343 0.960 . S
H4330 C4343 0.961 . S
H4331 C4343 0.959 . S
H4332 C4346 0.929 . S
H4333 C4347 0.931 . S
H4334 C4349 0.930 . S
C4335 H4323 0.930 . S
C4335 C4336 1.399 . S
C4335 C4340 1.399 . S
C4336 C4335 1.399 . S
C4336 C4337 1.376 . S
C4337 H4324 0.930 . S
C4337 C4336 1.376 . S
C4337 C4338 1.388 . S
C4338 H4325 0.930 . S
C4338 C4337 1.388 . S
C4338 C4339 1.390 . S
C4339 C4338 1.390 . S
C4339 C4340 1.394 . S
C4339 C4345 1.465 . S
C4340 C4335 1.399 . S
C4340 C4339 1.394 . S
C4340 C4341 1.516 . S
C4341 C4340 1.516 . S
C4341 C4342 1.502 . S
C4341 C4343 1.561 . S
C4341 C4344 1.526 . S
C4342 H4326 0.959 . S
C4342 H4327 0.959 . S
C4342 H4328 0.961 . S
C4342 C4341 1.502 . S
C4343 H4329 0.960 . S
C4343 H4330 0.961 . S
C4343 H4331 0.959 . S
C4343 C4341 1.561 . S
C4344 C4341 1.526 . S
C4344 C4345 1.396 . S
C4344 C4349 1.390 . S
C4345 C4339 1.465 . S
C4345 C4344 1.396 . S
C4345 C4346 1.399 . S
C4346 H4332 0.929 . S
C4346 C4345 1.399 . S
C4346 C4347 1.385 . S
C4347 H4333 0.931 . S
C4347 C4346 1.385 . S
C4347 C4348 1.389 . S
C4348 C4347 1.389 . S
C4348 C4349 1.387 . S
C4349 H4334 0.930 . S
C4349 C4344 1.390 . S
C4349 C4348 1.387 . S
H4350 C4362 0.930 . S
H4351 C4364 0.930 . S
H4352 C4365 0.930 . S
H4353 C4369 0.959 . S
H4354 C4369 0.959 . S
H4355 C4369 0.961 . S
H4356 C4370 0.960 . S
H4357 C4370 0.961 . S
H4358 C4370 0.959 . S
H4359 C4373 0.929 . S
H4360 C4374 0.931 . S
H4361 C4376 0.930 . S
C4362 H4350 0.930 . S
C4362 C4363 1.399 . S
C4362 C4367 1.399 . S
C4363 C4362 1.399 . S
C4363 C4364 1.376 . S
C4364 H4351 0.930 . S
C4364 C4363 1.376 . S
C4364 C4365 1.388 . S
C4365 H4352 0.930 . S
C4365 C4364 1.388 . S
C4365 C4366 1.390 . S
C4366 C4365 1.390 . S
C4366 C4367 1.394 . S
C4366 C4372 1.465 . S
C4367 C4362 1.399 . S
C4367 C4366 1.394 . S
C4367 C4368 1.516 . S
C4368 C4367 1.516 . S
C4368 C4369 1.502 . S
C4368 C4370 1.561 . S
C4368 C4371 1.526 . S
C4369 H4353 0.959 . S
C4369 H4354 0.959 . S
C4369 H4355 0.961 . S
C4369 C4368 1.502 . S
C4370 H4356 0.960 . S
C4370 H4357 0.961 . S
C4370 H4358 0.959 . S
C4370 C4368 1.561 . S
C4371 C4368 1.526 . S
C4371 C4372 1.396 . S
C4371 C4376 1.390 . S
C4372 C4366 1.465 . S
C4372 C4371 1.396 . S
C4372 C4373 1.399 . S
C4373 H4359 0.929 . S
C4373 C4372 1.399 . S
C4373 C4374 1.385 . S
C4374 H4360 0.931 . S
C4374 C4373 1.385 . S
C4374 C4375 1.389 . S
C4375 C4374 1.389 . S
C4375 C4376 1.387 . S
C4376 H4361 0.930 . S
C4376 C4371 1.390 . S
C4376 C4375 1.387 . S
H4377 C4389 0.930 . S
H4378 C4391 0.930 . S
H4379 C4392 0.930 . S
H4380 C4396 0.959 . S
H4381 C4396 0.959 . S
H4382 C4396 0.961 . S
H4383 C4397 0.960 . S
H4384 C4397 0.961 . S
H4385 C4397 0.959 . S
H4386 C4400 0.929 . S
H4387 C4401 0.931 . S
H4388 C4403 0.930 . S
C4389 H4377 0.930 . S
C4389 C4390 1.399 . S
C4389 C4394 1.399 . S
C4390 C4389 1.399 . S
C4390 C4391 1.376 . S
C4391 H4378 0.930 . S
C4391 C4390 1.376 . S
C4391 C4392 1.388 . S
C4392 H4379 0.930 . S
C4392 C4391 1.388 . S
C4392 C4393 1.390 . S
C4393 C4392 1.390 . S
C4393 C4394 1.394 . S
C4393 C4399 1.465 . S
C4394 C4389 1.399 . S
C4394 C4393 1.394 . S
C4394 C4395 1.516 . S
C4395 C4394 1.516 . S
C4395 C4396 1.502 . S
C4395 C4397 1.561 . S
C4395 C4398 1.526 . S
C4396 H4380 0.959 . S
C4396 H4381 0.959 . S
C4396 H4382 0.961 . S
C4396 C4395 1.502 . S
C4397 H4383 0.960 . S
C4397 H4384 0.961 . S
C4397 H4385 0.959 . S
C4397 C4395 1.561 . S
C4398 C4395 1.526 . S
C4398 C4399 1.396 . S
C4398 C4403 1.390 . S
C4399 C4393 1.465 . S
C4399 C4398 1.396 . S
C4399 C4400 1.399 . S
C4400 H4386 0.929 . S
C4400 C4399 1.399 . S
C4400 C4401 1.385 . S
C4401 H4387 0.931 . S
C4401 C4400 1.385 . S
C4401 C4402 1.389 . S
C4402 C4401 1.389 . S
C4402 C4403 1.387 . S
C4403 H4388 0.930 . S
C4403 C4398 1.390 . S
C4403 C4402 1.387 . S
H4404 C4416 0.930 . S
H4405 C4418 0.930 . S
H4406 C4419 0.930 . S
H4407 C4423 0.959 . S
H4408 C4423 0.959 . S
H4409 C4423 0.961 . S
H4410 C4424 0.960 . S
H4411 C4424 0.961 . S
H4412 C4424 0.959 . S
H4413 C4427 0.929 . S
H4414 C4428 0.931 . S
H4415 C4430 0.930 . S
C4416 H4404 0.930 . S
C4416 C4417 1.399 . S
C4416 C4421 1.399 . S
C4417 C4416 1.399 . S
C4417 C4418 1.376 . S
C4418 H4405 0.930 . S
C4418 C4417 1.376 . S
C4418 C4419 1.388 . S
C4419 H4406 0.930 . S
C4419 C4418 1.388 . S
C4419 C4420 1.390 . S
C4420 C4419 1.390 . S
C4420 C4421 1.394 . S
C4420 C4426 1.465 . S
C4421 C4416 1.399 . S
C4421 C4420 1.394 . S
C4421 C4422 1.516 . S
C4422 C4421 1.516 . S
C4422 C4423 1.502 . S
C4422 C4424 1.561 . S
C4422 C4425 1.526 . S
C4423 H4407 0.959 . S
C4423 H4408 0.959 . S
C4423 H4409 0.961 . S
C4423 C4422 1.502 . S
C4424 H4410 0.960 . S
C4424 H4411 0.961 . S
C4424 H4412 0.959 . S
C4424 C4422 1.561 . S
C4425 C4422 1.526 . S
C4425 C4426 1.396 . S
C4425 C4430 1.390 . S
C4426 C4420 1.465 . S
C4426 C4425 1.396 . S
C4426 C4427 1.399 . S
C4427 H4413 0.929 . S
C4427 C4426 1.399 . S
C4427 C4428 1.385 . S
C4428 H4414 0.931 . S
C4428 C4427 1.385 . S
C4428 C4429 1.389 . S
C4429 C4428 1.389 . S
C4429 C4430 1.387 . S
C4430 H4415 0.930 . S
C4430 C4425 1.390 . S
C4430 C4429 1.387 . S
H4431 C4443 0.930 . S
H4432 C4445 0.930 . S
H4433 C4446 0.930 . S
H4434 C4450 0.959 . S
H4435 C4450 0.959 . S
H4436 C4450 0.961 . S
H4437 C4451 0.960 . S
H4438 C4451 0.961 . S
H4439 C4451 0.959 . S
H4440 C4454 0.929 . S
H4441 C4455 0.931 . S
H4442 C4457 0.930 . S
C4443 H4431 0.930 . S
C4443 C4444 1.399 . S
C4443 C4448 1.399 . S
C4444 C4443 1.399 . S
C4444 C4445 1.376 . S
C4445 H4432 0.930 . S
C4445 C4444 1.376 . S
C4445 C4446 1.388 . S
C4446 H4433 0.930 . S
C4446 C4445 1.388 . S
C4446 C4447 1.390 . S
C4447 C4446 1.390 . S
C4447 C4448 1.394 . S
C4447 C4453 1.465 . S
C4448 C4443 1.399 . S
C4448 C4447 1.394 . S
C4448 C4449 1.516 . S
C4449 C4448 1.516 . S
C4449 C4450 1.502 . S
C4449 C4451 1.561 . S
C4449 C4452 1.526 . S
C4450 H4434 0.959 . S
C4450 H4435 0.959 . S
C4450 H4436 0.961 . S
C4450 C4449 1.502 . S
C4451 H4437 0.960 . S
C4451 H4438 0.961 . S
C4451 H4439 0.959 . S
C4451 C4449 1.561 . S
C4452 C4449 1.526 . S
C4452 C4453 1.396 . S
C4452 C4457 1.390 . S
C4453 C4447 1.465 . S
C4453 C4452 1.396 . S
C4453 C4454 1.399 . S
C4454 H4440 0.929 . S
C4454 C4453 1.399 . S
C4454 C4455 1.385 . S
C4455 H4441 0.931 . S
C4455 C4454 1.385 . S
C4455 C4456 1.389 . S
C4456 C4455 1.389 . S
C4456 C4457 1.387 . S
C4457 H4442 0.930 . S
C4457 C4452 1.390 . S
C4457 C4456 1.387 . S
H4458 C4470 0.930 . S
H4459 C4472 0.930 . S
H4460 C4473 0.930 . S
H4461 C4477 0.959 . S
H4462 C4477 0.959 . S
H4463 C4477 0.961 . S
H4464 C4478 0.960 . S
H4465 C4478 0.961 . S
H4466 C4478 0.959 . S
H4467 C4481 0.929 . S
H4468 C4482 0.931 . S
H4469 C4484 0.930 . S
C4470 H4458 0.930 . S
C4470 C4471 1.399 . S
C4470 C4475 1.399 . S
C4471 C4470 1.399 . S
C4471 C4472 1.376 . S
C4472 H4459 0.930 . S
C4472 C4471 1.376 . S
C4472 C4473 1.388 . S
C4473 H4460 0.930 . S
C4473 C4472 1.388 . S
C4473 C4474 1.390 . S
C4474 C4473 1.390 . S
C4474 C4475 1.394 . S
C4474 C4480 1.465 . S
C4475 C4470 1.399 . S
C4475 C4474 1.394 . S
C4475 C4476 1.516 . S
C4476 C4475 1.516 . S
C4476 C4477 1.502 . S
C4476 C4478 1.561 . S
C4476 C4479 1.526 . S
C4477 H4461 0.959 . S
C4477 H4462 0.959 . S
C4477 H4463 0.961 . S
C4477 C4476 1.502 . S
C4478 H4464 0.960 . S
C4478 H4465 0.961 . S
C4478 H4466 0.959 . S
C4478 C4476 1.561 . S
C4479 C4476 1.526 . S
C4479 C4480 1.396 . S
C4479 C4484 1.390 . S
C4480 C4474 1.465 . S
C4480 C4479 1.396 . S
C4480 C4481 1.399 . S
C4481 H4467 0.929 . S
C4481 C4480 1.399 . S
C4481 C4482 1.385 . S
C4482 H4468 0.931 . S
C4482 C4481 1.385 . S
C4482 C4483 1.389 . S
C4483 C4482 1.389 . S
C4483 C4484 1.387 . S
C4484 H4469 0.930 . S
C4484 C4479 1.390 . S
C4484 C4483 1.387 . S
H4485 C4497 0.930 . S
H4486 C4499 0.930 . S
H4487 C4500 0.930 . S
H4488 C4504 0.959 . S
H4489 C4504 0.959 . S
H4490 C4504 0.961 . S
H4491 C4505 0.960 . S
H4492 C4505 0.961 . S
H4493 C4505 0.959 . S
H4494 C4508 0.929 . S
H4495 C4509 0.931 . S
H4496 C4511 0.930 . S
C4497 H4485 0.930 . S
C4497 C4498 1.399 . S
C4497 C4502 1.399 . S
C4498 C4497 1.399 . S
C4498 C4499 1.376 . S
C4499 H4486 0.930 . S
C4499 C4498 1.376 . S
C4499 C4500 1.388 . S
C4500 H4487 0.930 . S
C4500 C4499 1.388 . S
C4500 C4501 1.390 . S
C4501 C4500 1.390 . S
C4501 C4502 1.394 . S
C4501 C4507 1.465 . S
C4502 C4497 1.399 . S
C4502 C4501 1.394 . S
C4502 C4503 1.516 . S
C4503 C4502 1.516 . S
C4503 C4504 1.502 . S
C4503 C4505 1.561 . S
C4503 C4506 1.526 . S
C4504 H4488 0.959 . S
C4504 H4489 0.959 . S
C4504 H4490 0.961 . S
C4504 C4503 1.502 . S
C4505 H4491 0.960 . S
C4505 H4492 0.961 . S
C4505 H4493 0.959 . S
C4505 C4503 1.561 . S
C4506 C4503 1.526 . S
C4506 C4507 1.396 . S
C4506 C4511 1.390 . S
C4507 C4501 1.465 . S
C4507 C4506 1.396 . S
C4507 C4508 1.399 . S
C4508 H4494 0.929 . S
C4508 C4507 1.399 . S
C4508 C4509 1.385 . S
C4509 H4495 0.931 . S
C4509 C4508 1.385 . S
C4509 C4510 1.389 . S
C4510 C4509 1.389 . S
C4510 C4511 1.387 . S
C4511 H4496 0.930 . S
C4511 C4506 1.390 . S
C4511 C4510 1.387 . S
H4512 C4524 0.930 . S
H4513 C4526 0.930 . S
H4514 C4527 0.930 . S
H4515 C4531 0.959 . S
H4516 C4531 0.959 . S
H4517 C4531 0.961 . S
H4518 C4532 0.960 . S
H4519 C4532 0.961 . S
H4520 C4532 0.959 . S
H4521 C4535 0.929 . S
H4522 C4536 0.931 . S
H4523 C4538 0.930 . S
C4524 H4512 0.930 . S
C4524 C4525 1.399 . S
C4524 C4529 1.399 . S
C4525 C4524 1.399 . S
C4525 C4526 1.376 . S
C4526 H4513 0.930 . S
C4526 C4525 1.376 . S
C4526 C4527 1.388 . S
C4527 H4514 0.930 . S
C4527 C4526 1.388 . S
C4527 C4528 1.390 . S
C4528 C4527 1.390 . S
C4528 C4529 1.394 . S
C4528 C4534 1.465 . S
C4529 C4524 1.399 . S
C4529 C4528 1.394 . S
C4529 C4530 1.516 . S
C4530 C4529 1.516 . S
C4530 C4531 1.502 . S
C4530 C4532 1.561 . S
C4530 C4533 1.526 . S
C4531 H4515 0.959 . S
C4531 H4516 0.959 . S
C4531 H4517 0.961 . S
C4531 C4530 1.502 . S
C4532 H4518 0.960 . S
C4532 H4519 0.961 . S
C4532 H4520 0.959 . S
C4532 C4530 1.561 . S
C4533 C4530 1.526 . S
C4533 C4534 1.396 . S
C4533 C4538 1.390 . S
C4534 C4528 1.465 . S
C4534 C4533 1.396 . S
C4534 C4535 1.399 . S
C4535 H4521 0.929 . S
C4535 C4534 1.399 . S
C4535 C4536 1.385 . S
C4536 H4522 0.931 . S
C4536 C4535 1.385 . S
C4536 C4537 1.389 . S
C4537 C4536 1.389 . S
C4537 C4538 1.387 . S
C4538 H4523 0.930 . S
C4538 C4533 1.390 . S
C4538 C4537 1.387 . S
H4539 C4551 0.930 . S
H4540 C4553 0.930 . S
H4541 C4554 0.930 . S
H4542 C4558 0.959 . S
H4543 C4558 0.959 . S
H4544 C4558 0.961 . S
H4545 C4559 0.960 . S
H4546 C4559 0.961 . S
H4547 C4559 0.959 . S
H4548 C4562 0.929 . S
H4549 C4563 0.931 . S
H4550 C4565 0.930 . S
C4551 H4539 0.930 . S
C4551 C4552 1.399 . S
C4551 C4556 1.399 . S
C4552 C4551 1.399 . S
C4552 C4553 1.376 . S
C4553 H4540 0.930 . S
C4553 C4552 1.376 . S
C4553 C4554 1.388 . S
C4554 H4541 0.930 . S
C4554 C4553 1.388 . S
C4554 C4555 1.390 . S
C4555 C4554 1.390 . S
C4555 C4556 1.394 . S
C4555 C4561 1.465 . S
C4556 C4551 1.399 . S
C4556 C4555 1.394 . S
C4556 C4557 1.516 . S
C4557 C4556 1.516 . S
C4557 C4558 1.502 . S
C4557 C4559 1.561 . S
C4557 C4560 1.526 . S
C4558 H4542 0.959 . S
C4558 H4543 0.959 . S
C4558 H4544 0.961 . S
C4558 C4557 1.502 . S
C4559 H4545 0.960 . S
C4559 H4546 0.961 . S
C4559 H4547 0.959 . S
C4559 C4557 1.561 . S
C4560 C4557 1.526 . S
C4560 C4561 1.396 . S
C4560 C4565 1.390 . S
C4561 C4555 1.465 . S
C4561 C4560 1.396 . S
C4561 C4562 1.399 . S
C4562 H4548 0.929 . S
C4562 C4561 1.399 . S
C4562 C4563 1.385 . S
C4563 H4549 0.931 . S
C4563 C4562 1.385 . S
C4563 C4564 1.389 . S
C4564 C4563 1.389 . S
C4564 C4565 1.387 . S
C4565 H4550 0.930 . S
C4565 C4560 1.390 . S
C4565 C4564 1.387 . S
H4566 C4578 0.930 . S
H4567 C4580 0.930 . S
H4568 C4581 0.930 . S
H4569 C4585 0.959 . S
H4570 C4585 0.959 . S
H4571 C4585 0.961 . S
H4572 C4586 0.960 . S
H4573 C4586 0.961 . S
H4574 C4586 0.959 . S
H4575 C4589 0.929 . S
H4576 C4590 0.931 . S
H4577 C4592 0.930 . S
C4578 H4566 0.930 . S
C4578 C4579 1.399 . S
C4578 C4583 1.399 . S
C4579 C4578 1.399 . S
C4579 C4580 1.376 . S
C4580 H4567 0.930 . S
C4580 C4579 1.376 . S
C4580 C4581 1.388 . S
C4581 H4568 0.930 . S
C4581 C4580 1.388 . S
C4581 C4582 1.390 . S
C4582 C4581 1.390 . S
C4582 C4583 1.394 . S
C4582 C4588 1.465 . S
C4583 C4578 1.399 . S
C4583 C4582 1.394 . S
C4583 C4584 1.516 . S
C4584 C4583 1.516 . S
C4584 C4585 1.502 . S
C4584 C4586 1.561 . S
C4584 C4587 1.526 . S
C4585 H4569 0.959 . S
C4585 H4570 0.959 . S
C4585 H4571 0.961 . S
C4585 C4584 1.502 . S
C4586 H4572 0.960 . S
C4586 H4573 0.961 . S
C4586 H4574 0.959 . S
C4586 C4584 1.561 . S
C4587 C4584 1.526 . S
C4587 C4588 1.396 . S
C4587 C4592 1.390 . S
C4588 C4582 1.465 . S
C4588 C4587 1.396 . S
C4588 C4589 1.399 . S
C4589 H4575 0.929 . S
C4589 C4588 1.399 . S
C4589 C4590 1.385 . S
C4590 H4576 0.931 . S
C4590 C4589 1.385 . S
C4590 C4591 1.389 . S
C4591 C4590 1.389 . S
C4591 C4592 1.387 . S
C4592 H4577 0.930 . S
C4592 C4587 1.390 . S
C4592 C4591 1.387 . S
H4593 C4605 0.930 . S
H4594 C4607 0.930 . S
H4595 C4608 0.930 . S
H4596 C4612 0.959 . S
H4597 C4612 0.959 . S
H4598 C4612 0.961 . S
H4599 C4613 0.960 . S
H4600 C4613 0.961 . S
H4601 C4613 0.959 . S
H4602 C4616 0.929 . S
H4603 C4617 0.931 . S
H4604 C4619 0.930 . S
C4605 H4593 0.930 . S
C4605 C4606 1.399 . S
C4605 C4610 1.399 . S
C4606 C4605 1.399 . S
C4606 C4607 1.376 . S
C4607 H4594 0.930 . S
C4607 C4606 1.376 . S
C4607 C4608 1.388 . S
C4608 H4595 0.930 . S
C4608 C4607 1.388 . S
C4608 C4609 1.390 . S
C4609 C4608 1.390 . S
C4609 C4610 1.394 . S
C4609 C4615 1.465 . S
C4610 C4605 1.399 . S
C4610 C4609 1.394 . S
C4610 C4611 1.516 . S
C4611 C4610 1.516 . S
C4611 C4612 1.502 . S
C4611 C4613 1.561 . S
C4611 C4614 1.526 . S
C4612 H4596 0.959 . S
C4612 H4597 0.959 . S
C4612 H4598 0.961 . S
C4612 C4611 1.502 . S
C4613 H4599 0.960 . S
C4613 H4600 0.961 . S
C4613 H4601 0.959 . S
C4613 C4611 1.561 . S
C4614 C4611 1.526 . S
C4614 C4615 1.396 . S
C4614 C4619 1.390 . S
C4615 C4609 1.465 . S
C4615 C4614 1.396 . S
C4615 C4616 1.399 . S
C4616 H4602 0.929 . S
C4616 C4615 1.399 . S
C4616 C4617 1.385 . S
C4617 H4603 0.931 . S
C4617 C4616 1.385 . S
C4617 C4618 1.389 . S
C4618 C4617 1.389 . S
C4618 C4619 1.387 . S
C4619 H4604 0.930 . S
C4619 C4614 1.390 . S
C4619 C4618 1.387 . S
H4620 C4632 0.930 . S
H4621 C4634 0.930 . S
H4622 C4635 0.930 . S
H4623 C4639 0.959 . S
H4624 C4639 0.959 . S
H4625 C4639 0.961 . S
H4626 C4640 0.960 . S
H4627 C4640 0.961 . S
H4628 C4640 0.959 . S
H4629 C4643 0.929 . S
H4630 C4644 0.931 . S
H4631 C4646 0.930 . S
C4632 H4620 0.930 . S
C4632 C4633 1.399 . S
C4632 C4637 1.399 . S
C4633 C4632 1.399 . S
C4633 C4634 1.376 . S
C4634 H4621 0.930 . S
C4634 C4633 1.376 . S
C4634 C4635 1.388 . S
C4635 H4622 0.930 . S
C4635 C4634 1.388 . S
C4635 C4636 1.390 . S
C4636 C4635 1.390 . S
C4636 C4637 1.394 . S
C4636 C4642 1.465 . S
C4637 C4632 1.399 . S
C4637 C4636 1.394 . S
C4637 C4638 1.516 . S
C4638 C4637 1.516 . S
C4638 C4639 1.502 . S
C4638 C4640 1.561 . S
C4638 C4641 1.526 . S
C4639 H4623 0.959 . S
C4639 H4624 0.959 . S
C4639 H4625 0.961 . S
C4639 C4638 1.502 . S
C4640 H4626 0.960 . S
C4640 H4627 0.961 . S
C4640 H4628 0.959 . S
C4640 C4638 1.561 . S
C4641 C4638 1.526 . S
C4641 C4642 1.396 . S
C4641 C4646 1.390 . S
C4642 C4636 1.465 . S
C4642 C4641 1.396 . S
C4642 C4643 1.399 . S
C4643 H4629 0.929 . S
C4643 C4642 1.399 . S
C4643 C4644 1.385 . S
C4644 H4630 0.931 . S
C4644 C4643 1.385 . S
C4644 C4645 1.389 . S
C4645 C4644 1.389 . S
C4645 C4646 1.387 . S
C4646 H4631 0.930 . S
C4646 C4641 1.390 . S
C4646 C4645 1.387 . S
H4647 C4659 0.930 . S
H4648 C4661 0.930 . S
H4649 C4662 0.930 . S
H4650 C4666 0.959 . S
H4651 C4666 0.959 . S
H4652 C4666 0.961 . S
H4653 C4667 0.960 . S
H4654 C4667 0.961 . S
H4655 C4667 0.959 . S
H4656 C4670 0.929 . S
H4657 C4671 0.931 . S
H4658 C4673 0.930 . S
C4659 H4647 0.930 . S
C4659 C4660 1.399 . S
C4659 C4664 1.399 . S
C4660 C4659 1.399 . S
C4660 C4661 1.376 . S
C4661 H4648 0.930 . S
C4661 C4660 1.376 . S
C4661 C4662 1.388 . S
C4662 H4649 0.930 . S
C4662 C4661 1.388 . S
C4662 C4663 1.390 . S
C4663 C4662 1.390 . S
C4663 C4664 1.394 . S
C4663 C4669 1.465 . S
C4664 C4659 1.399 . S
C4664 C4663 1.394 . S
C4664 C4665 1.516 . S
C4665 C4664 1.516 . S
C4665 C4666 1.502 . S
C4665 C4667 1.561 . S
C4665 C4668 1.526 . S
C4666 H4650 0.959 . S
C4666 H4651 0.959 . S
C4666 H4652 0.961 . S
C4666 C4665 1.502 . S
C4667 H4653 0.960 . S
C4667 H4654 0.961 . S
C4667 H4655 0.959 . S
C4667 C4665 1.561 . S
C4668 C4665 1.526 . S
C4668 C4669 1.396 . S
C4668 C4673 1.390 . S
C4669 C4663 1.465 . S
C4669 C4668 1.396 . S
C4669 C4670 1.399 . S
C4670 H4656 0.929 . S
C4670 C4669 1.399 . S
C4670 C4671 1.385 . S
C4671 H4657 0.931 . S
C4671 C4670 1.385 . S
C4671 C4672 1.389 . S
C4672 C4671 1.389 . S
C4672 C4673 1.387 . S
C4673 H4658 0.930 . S
C4673 C4668 1.390 . S
C4673 C4672 1.387 . S
H4674 C4686 0.930 . S
H4675 C4688 0.930 . S
H4676 C4689 0.930 . S
H4677 C4693 0.959 . S
H4678 C4693 0.959 . S
H4679 C4693 0.961 . S
H4680 C4694 0.960 . S
H4681 C4694 0.961 . S
H4682 C4694 0.959 . S
H4683 C4697 0.929 . S
H4684 C4698 0.931 . S
H4685 C4700 0.930 . S
C4686 H4674 0.930 . S
C4686 C4687 1.399 . S
C4686 C4691 1.399 . S
C4687 C4686 1.399 . S
C4687 C4688 1.376 . S
C4688 H4675 0.930 . S
C4688 C4687 1.376 . S
C4688 C4689 1.388 . S
C4689 H4676 0.930 . S
C4689 C4688 1.388 . S
C4689 C4690 1.390 . S
C4690 C4689 1.390 . S
C4690 C4691 1.394 . S
C4690 C4696 1.465 . S
C4691 C4686 1.399 . S
C4691 C4690 1.394 . S
C4691 C4692 1.516 . S
C4692 C4691 1.516 . S
C4692 C4693 1.502 . S
C4692 C4694 1.561 . S
C4692 C4695 1.526 . S
C4693 H4677 0.959 . S
C4693 H4678 0.959 . S
C4693 H4679 0.961 . S
C4693 C4692 1.502 . S
C4694 H4680 0.960 . S
C4694 H4681 0.961 . S
C4694 H4682 0.959 . S
C4694 C4692 1.561 . S
C4695 C4692 1.526 . S
C4695 C4696 1.396 . S
C4695 C4700 1.390 . S
C4696 C4690 1.465 . S
C4696 C4695 1.396 . S
C4696 C4697 1.399 . S
C4697 H4683 0.929 . S
C4697 C4696 1.399 . S
C4697 C4698 1.385 . S
C4698 H4684 0.931 . S
C4698 C4697 1.385 . S
C4698 C4699 1.389 . S
C4699 C4698 1.389 . S
C4699 C4700 1.387 . S
C4700 H4685 0.930 . S
C4700 C4695 1.390 . S
C4700 C4699 1.387 . S
H4701 C4713 0.930 . S
H4702 C4715 0.930 . S
H4703 C4716 0.930 . S
H4704 C4720 0.959 . S
H4705 C4720 0.959 . S
H4706 C4720 0.961 . S
H4707 C4721 0.960 . S
H4708 C4721 0.961 . S
H4709 C4721 0.959 . S
H4710 C4724 0.929 . S
H4711 C4725 0.931 . S
H4712 C4727 0.930 . S
C4713 H4701 0.930 . S
C4713 C4714 1.399 . S
C4713 C4718 1.399 . S
C4714 C4713 1.399 . S
C4714 C4715 1.376 . S
C4715 H4702 0.930 . S
C4715 C4714 1.376 . S
C4715 C4716 1.388 . S
C4716 H4703 0.930 . S
C4716 C4715 1.388 . S
C4716 C4717 1.390 . S
C4717 C4716 1.390 . S
C4717 C4718 1.394 . S
C4717 C4723 1.465 . S
C4718 C4713 1.399 . S
C4718 C4717 1.394 . S
C4718 C4719 1.516 . S
C4719 C4718 1.516 . S
C4719 C4720 1.502 . S
C4719 C4721 1.561 . S
C4719 C4722 1.526 . S
C4720 H4704 0.959 . S
C4720 H4705 0.959 . S
C4720 H4706 0.961 . S
C4720 C4719 1.502 . S
C4721 H4707 0.960 . S
C4721 H4708 0.961 . S
C4721 H4709 0.959 . S
C4721 C4719 1.561 . S
C4722 C4719 1.526 . S
C4722 C4723 1.396 . S
C4722 C4727 1.390 . S
C4723 C4717 1.465 . S
C4723 C4722 1.396 . S
C4723 C4724 1.399 . S
C4724 H4710 0.929 . S
C4724 C4723 1.399 . S
C4724 C4725 1.385 . S
C4725 H4711 0.931 . S
C4725 C4724 1.385 . S
C4725 C4726 1.389 . S
C4726 C4725 1.389 . S
C4726 C4727 1.387 . S
C4727 H4712 0.930 . S
C4727 C4722 1.390 . S
C4727 C4726 1.387 . S
H4728 C4740 0.930 . S
H4729 C4742 0.930 . S
H4730 C4743 0.930 . S
H4731 C4747 0.959 . S
H4732 C4747 0.959 . S
H4733 C4747 0.961 . S
H4734 C4748 0.960 . S
H4735 C4748 0.961 . S
H4736 C4748 0.959 . S
H4737 C4751 0.929 . S
H4738 C4752 0.931 . S
H4739 C4754 0.930 . S
C4740 H4728 0.930 . S
C4740 C4741 1.399 . S
C4740 C4745 1.399 . S
C4741 C4740 1.399 . S
C4741 C4742 1.376 . S
C4742 H4729 0.930 . S
C4742 C4741 1.376 . S
C4742 C4743 1.388 . S
C4743 H4730 0.930 . S
C4743 C4742 1.388 . S
C4743 C4744 1.390 . S
C4744 C4743 1.390 . S
C4744 C4745 1.394 . S
C4744 C4750 1.465 . S
C4745 C4740 1.399 . S
C4745 C4744 1.394 . S
C4745 C4746 1.516 . S
C4746 C4745 1.516 . S
C4746 C4747 1.502 . S
C4746 C4748 1.561 . S
C4746 C4749 1.526 . S
C4747 H4731 0.959 . S
C4747 H4732 0.959 . S
C4747 H4733 0.961 . S
C4747 C4746 1.502 . S
C4748 H4734 0.960 . S
C4748 H4735 0.961 . S
C4748 H4736 0.959 . S
C4748 C4746 1.561 . S
C4749 C4746 1.526 . S
C4749 C4750 1.396 . S
C4749 C4754 1.390 . S
C4750 C4744 1.465 . S
C4750 C4749 1.396 . S
C4750 C4751 1.399 . S
C4751 H4737 0.929 . S
C4751 C4750 1.399 . S
C4751 C4752 1.385 . S
C4752 H4738 0.931 . S
C4752 C4751 1.385 . S
C4752 C4753 1.389 . S
C4753 C4752 1.389 . S
C4753 C4754 1.387 . S
C4754 H4739 0.930 . S
C4754 C4749 1.390 . S
C4754 C4753 1.387 . S
H4755 C4767 0.930 . S
H4756 C4769 0.930 . S
H4757 C4770 0.930 . S
H4758 C4774 0.959 . S
H4759 C4774 0.959 . S
H4760 C4774 0.961 . S
H4761 C4775 0.960 . S
H4762 C4775 0.961 . S
H4763 C4775 0.959 . S
H4764 C4778 0.929 . S
H4765 C4779 0.931 . S
H4766 C4781 0.930 . S
C4767 H4755 0.930 . S
C4767 C4768 1.399 . S
C4767 C4772 1.399 . S
C4768 C4767 1.399 . S
C4768 C4769 1.376 . S
C4769 H4756 0.930 . S
C4769 C4768 1.376 . S
C4769 C4770 1.388 . S
C4770 H4757 0.930 . S
C4770 C4769 1.388 . S
C4770 C4771 1.390 . S
C4771 C4770 1.390 . S
C4771 C4772 1.394 . S
C4771 C4777 1.465 . S
C4772 C4767 1.399 . S
C4772 C4771 1.394 . S
C4772 C4773 1.516 . S
C4773 C4772 1.516 . S
C4773 C4774 1.502 . S
C4773 C4775 1.561 . S
C4773 C4776 1.526 . S
C4774 H4758 0.959 . S
C4774 H4759 0.959 . S
C4774 H4760 0.961 . S
C4774 C4773 1.502 . S
C4775 H4761 0.960 . S
C4775 H4762 0.961 . S
C4775 H4763 0.959 . S
C4775 C4773 1.561 . S
C4776 C4773 1.526 . S
C4776 C4777 1.396 . S
C4776 C4781 1.390 . S
C4777 C4771 1.465 . S
C4777 C4776 1.396 . S
C4777 C4778 1.399 . S
C4778 H4764 0.929 . S
C4778 C4777 1.399 . S
C4778 C4779 1.385 . S
C4779 H4765 0.931 . S
C4779 C4778 1.385 . S
C4779 C4780 1.389 . S
C4780 C4779 1.389 . S
C4780 C4781 1.387 . S
C4781 H4766 0.930 . S
C4781 C4776 1.390 . S
C4781 C4780 1.387 . S
H4782 C4794 0.930 . S
H4783 C4796 0.930 . S
H4784 C4797 0.930 . S
H4785 C4801 0.959 . S
H4786 C4801 0.959 . S
H4787 C4801 0.961 . S
H4788 C4802 0.960 . S
H4789 C4802 0.961 . S
H4790 C4802 0.959 . S
H4791 C4805 0.929 . S
H4792 C4806 0.931 . S
H4793 C4808 0.930 . S
C4794 H4782 0.930 . S
C4794 C4795 1.399 . S
C4794 C4799 1.399 . S
C4795 C4794 1.399 . S
C4795 C4796 1.376 . S
C4796 H4783 0.930 . S
C4796 C4795 1.376 . S
C4796 C4797 1.388 . S
C4797 H4784 0.930 . S
C4797 C4796 1.388 . S
C4797 C4798 1.390 . S
C4798 C4797 1.390 . S
C4798 C4799 1.394 . S
C4798 C4804 1.465 . S
C4799 C4794 1.399 . S
C4799 C4798 1.394 . S
C4799 C4800 1.516 . S
C4800 C4799 1.516 . S
C4800 C4801 1.502 . S
C4800 C4802 1.561 . S
C4800 C4803 1.526 . S
C4801 H4785 0.959 . S
C4801 H4786 0.959 . S
C4801 H4787 0.961 . S
C4801 C4800 1.502 . S
C4802 H4788 0.960 . S
C4802 H4789 0.961 . S
C4802 H4790 0.959 . S
C4802 C4800 1.561 . S
C4803 C4800 1.526 . S
C4803 C4804 1.396 . S
C4803 C4808 1.390 . S
C4804 C4798 1.465 . S
C4804 C4803 1.396 . S
C4804 C4805 1.399 . S
C4805 H4791 0.929 . S
C4805 C4804 1.399 . S
C4805 C4806 1.385 . S
C4806 H4792 0.931 . S
C4806 C4805 1.385 . S
C4806 C4807 1.389 . S
C4807 C4806 1.389 . S
C4807 C4808 1.387 . S
C4808 H4793 0.930 . S
C4808 C4803 1.390 . S
C4808 C4807 1.387 . S
H4809 C4821 0.930 . S
H4810 C4823 0.930 . S
H4811 C4824 0.930 . S
H4812 C4828 0.959 . S
H4813 C4828 0.959 . S
H4814 C4828 0.961 . S
H4815 C4829 0.960 . S
H4816 C4829 0.961 . S
H4817 C4829 0.959 . S
H4818 C4832 0.929 . S
H4819 C4833 0.931 . S
H4820 C4835 0.930 . S
C4821 H4809 0.930 . S
C4821 C4822 1.399 . S
C4821 C4826 1.399 . S
C4822 C4821 1.399 . S
C4822 C4823 1.376 . S
C4823 H4810 0.930 . S
C4823 C4822 1.376 . S
C4823 C4824 1.388 . S
C4824 H4811 0.930 . S
C4824 C4823 1.388 . S
C4824 C4825 1.390 . S
C4825 C4824 1.390 . S
C4825 C4826 1.394 . S
C4825 C4831 1.465 . S
C4826 C4821 1.399 . S
C4826 C4825 1.394 . S
C4826 C4827 1.516 . S
C4827 C4826 1.516 . S
C4827 C4828 1.502 . S
C4827 C4829 1.561 . S
C4827 C4830 1.526 . S
C4828 H4812 0.959 . S
C4828 H4813 0.959 . S
C4828 H4814 0.961 . S
C4828 C4827 1.502 . S
C4829 H4815 0.960 . S
C4829 H4816 0.961 . S
C4829 H4817 0.959 . S
C4829 C4827 1.561 . S
C4830 C4827 1.526 . S
C4830 C4831 1.396 . S
C4830 C4835 1.390 . S
C4831 C4825 1.465 . S
C4831 C4830 1.396 . S
C4831 C4832 1.399 . S
C4832 H4818 0.929 . S
C4832 C4831 1.399 . S
C4832 C4833 1.385 . S
C4833 H4819 0.931 . S
C4833 C4832 1.385 . S
C4833 C4834 1.389 . S
C4834 C4833 1.389 . S
C4834 C4835 1.387 . S
C4835 H4820 0.930 . S
C4835 C4830 1.390 . S
C4835 C4834 1.387 . S
H4836 C4848 0.930 . S
H4837 C4850 0.930 . S
H4838 C4851 0.930 . S
H4839 C4855 0.959 . S
H4840 C4855 0.959 . S
H4841 C4855 0.961 . S
H4842 C4856 0.960 . S
H4843 C4856 0.961 . S
H4844 C4856 0.959 . S
H4845 C4859 0.929 . S
H4846 C4860 0.931 . S
H4847 C4862 0.930 . S
C4848 H4836 0.930 . S
C4848 C4849 1.399 . S
C4848 C4853 1.399 . S
C4849 C4848 1.399 . S
C4849 C4850 1.376 . S
C4850 H4837 0.930 . S
C4850 C4849 1.376 . S
C4850 C4851 1.388 . S
C4851 H4838 0.930 . S
C4851 C4850 1.388 . S
C4851 C4852 1.390 . S
C4852 C4851 1.390 . S
C4852 C4853 1.394 . S
C4852 C4858 1.465 . S
C4853 C4848 1.399 . S
C4853 C4852 1.394 . S
C4853 C4854 1.516 . S
C4854 C4853 1.516 . S
C4854 C4855 1.502 . S
C4854 C4856 1.561 . S
C4854 C4857 1.526 . S
C4855 H4839 0.959 . S
C4855 H4840 0.959 . S
C4855 H4841 0.961 . S
C4855 C4854 1.502 . S
C4856 H4842 0.960 . S
C4856 H4843 0.961 . S
C4856 H4844 0.959 . S
C4856 C4854 1.561 . S
C4857 C4854 1.526 . S
C4857 C4858 1.396 . S
C4857 C4862 1.390 . S
C4858 C4852 1.465 . S
C4858 C4857 1.396 . S
C4858 C4859 1.399 . S
C4859 H4845 0.929 . S
C4859 C4858 1.399 . S
C4859 C4860 1.385 . S
C4860 H4846 0.931 . S
C4860 C4859 1.385 . S
C4860 C4861 1.389 . S
C4861 C4860 1.389 . S
C4861 C4862 1.387 . S
C4862 H4847 0.930 . S
C4862 C4857 1.390 . S
C4862 C4861 1.387 . S
H4863 C4875 0.930 . S
H4864 C4877 0.930 . S
H4865 C4878 0.930 . S
H4866 C4882 0.959 . S
H4867 C4882 0.959 . S
H4868 C4882 0.961 . S
H4869 C4883 0.960 . S
H4870 C4883 0.961 . S
H4871 C4883 0.959 . S
H4872 C4886 0.929 . S
H4873 C4887 0.931 . S
H4874 C4889 0.930 . S
C4875 H4863 0.930 . S
C4875 C4876 1.399 . S
C4875 C4880 1.399 . S
C4876 C4875 1.399 . S
C4876 C4877 1.376 . S
C4877 H4864 0.930 . S
C4877 C4876 1.376 . S
C4877 C4878 1.388 . S
C4878 H4865 0.930 . S
C4878 C4877 1.388 . S
C4878 C4879 1.390 . S
C4879 C4878 1.390 . S
C4879 C4880 1.394 . S
C4879 C4885 1.465 . S
C4880 C4875 1.399 . S
C4880 C4879 1.394 . S
C4880 C4881 1.516 . S
C4881 C4880 1.516 . S
C4881 C4882 1.502 . S
C4881 C4883 1.561 . S
C4881 C4884 1.526 . S
C4882 H4866 0.959 . S
C4882 H4867 0.959 . S
C4882 H4868 0.961 . S
C4882 C4881 1.502 . S
C4883 H4869 0.960 . S
C4883 H4870 0.961 . S
C4883 H4871 0.959 . S
C4883 C4881 1.561 . S
C4884 C4881 1.526 . S
C4884 C4885 1.396 . S
C4884 C4889 1.390 . S
C4885 C4879 1.465 . S
C4885 C4884 1.396 . S
C4885 C4886 1.399 . S
C4886 H4872 0.929 . S
C4886 C4885 1.399 . S
C4886 C4887 1.385 . S
C4887 H4873 0.931 . S
C4887 C4886 1.385 . S
C4887 C4888 1.389 . S
C4888 C4887 1.389 . S
C4888 C4889 1.387 . S
C4889 H4874 0.930 . S
C4889 C4884 1.390 . S
C4889 C4888 1.387 . S
H4890 C4902 0.930 . S
H4891 C4904 0.930 . S
H4892 C4905 0.930 . S
H4893 C4909 0.959 . S
H4894 C4909 0.959 . S
H4895 C4909 0.961 . S
H4896 C4910 0.960 . S
H4897 C4910 0.961 . S
H4898 C4910 0.959 . S
H4899 C4913 0.929 . S
H4900 C4914 0.931 . S
H4901 C4916 0.930 . S
C4902 H4890 0.930 . S
C4902 C4903 1.399 . S
C4902 C4907 1.399 . S
C4903 C4902 1.399 . S
C4903 C4904 1.376 . S
C4904 H4891 0.930 . S
C4904 C4903 1.376 . S
C4904 C4905 1.388 . S
C4905 H4892 0.930 . S
C4905 C4904 1.388 . S
C4905 C4906 1.390 . S
C4906 C4905 1.390 . S
C4906 C4907 1.394 . S
C4906 C4912 1.465 . S
C4907 C4902 1.399 . S
C4907 C4906 1.394 . S
C4907 C4908 1.516 . S
C4908 C4907 1.516 . S
C4908 C4909 1.502 . S
C4908 C4910 1.561 . S
C4908 C4911 1.526 . S
C4909 H4893 0.959 . S
C4909 H4894 0.959 . S
C4909 H4895 0.961 . S
C4909 C4908 1.502 . S
C4910 H4896 0.960 . S
C4910 H4897 0.961 . S
C4910 H4898 0.959 . S
C4910 C4908 1.561 . S
C4911 C4908 1.526 . S
C4911 C4912 1.396 . S
C4911 C4916 1.390 . S
C4912 C4906 1.465 . S
C4912 C4911 1.396 . S
C4912 C4913 1.399 . S
C4913 H4899 0.929 . S
C4913 C4912 1.399 . S
C4913 C4914 1.385 . S
C4914 H4900 0.931 . S
C4914 C4913 1.385 . S
C4914 C4915 1.389 . S
C4915 C4914 1.389 . S
C4915 C4916 1.387 . S
C4916 H4901 0.930 . S
C4916 C4911 1.390 . S
C4916 C4915 1.387 . S
H4917 C4929 0.930 . S
H4918 C4931 0.930 . S
H4919 C4932 0.930 . S
H4920 C4936 0.959 . S
H4921 C4936 0.959 . S
H4922 C4936 0.961 . S
H4923 C4937 0.960 . S
H4924 C4937 0.961 . S
H4925 C4937 0.959 . S
H4926 C4940 0.929 . S
H4927 C4941 0.931 . S
H4928 C4943 0.930 . S
C4929 H4917 0.930 . S
C4929 C4930 1.399 . S
C4929 C4934 1.399 . S
C4930 C4929 1.399 . S
C4930 C4931 1.376 . S
C4931 H4918 0.930 . S
C4931 C4930 1.376 . S
C4931 C4932 1.388 . S
C4932 H4919 0.930 . S
C4932 C4931 1.388 . S
C4932 C4933 1.390 . S
C4933 C4932 1.390 . S
C4933 C4934 1.394 . S
C4933 C4939 1.465 . S
C4934 C4929 1.399 . S
C4934 C4933 1.394 . S
C4934 C4935 1.516 . S
C4935 C4934 1.516 . S
C4935 C4936 1.502 . S
C4935 C4937 1.561 . S
C4935 C4938 1.526 . S
C4936 H4920 0.959 . S
C4936 H4921 0.959 . S
C4936 H4922 0.961 . S
C4936 C4935 1.502 . S
C4937 H4923 0.960 . S
C4937 H4924 0.961 . S
C4937 H4925 0.959 . S
C4937 C4935 1.561 . S
C4938 C4935 1.526 . S
C4938 C4939 1.396 . S
C4938 C4943 1.390 . S
C4939 C4933 1.465 . S
C4939 C4938 1.396 . S
C4939 C4940 1.399 . S
C4940 H4926 0.929 . S
C4940 C4939 1.399 . S
C4940 C4941 1.385 . S
C4941 H4927 0.931 . S
C4941 C4940 1.385 . S
C4941 C4942 1.389 . S
C4942 C4941 1.389 . S
C4942 C4943 1.387 . S
C4943 H4928 0.930 . S
C4943 C4938 1.390 . S
C4943 C4942 1.387 . S
H4944 C4956 0.930 . S
H4945 C4958 0.930 . S
H4946 C4959 0.930 . S
H4947 C4963 0.959 . S
H4948 C4963 0.959 . S
H4949 C4963 0.961 . S
H4950 C4964 0.960 . S
H4951 C4964 0.961 . S
H4952 C4964 0.959 . S
H4953 C4967 0.929 . S
H4954 C4968 0.931 . S
H4955 C4970 0.930 . S
C4956 H4944 0.930 . S
C4956 C4957 1.399 . S
C4956 C4961 1.399 . S
C4957 C4956 1.399 . S
C4957 C4958 1.376 . S
C4958 H4945 0.930 . S
C4958 C4957 1.376 . S
C4958 C4959 1.388 . S
C4959 H4946 0.930 . S
C4959 C4958 1.388 . S
C4959 C4960 1.390 . S
C4960 C4959 1.390 . S
C4960 C4961 1.394 . S
C4960 C4966 1.465 . S
C4961 C4956 1.399 . S
C4961 C4960 1.394 . S
C4961 C4962 1.516 . S
C4962 C4961 1.516 . S
C4962 C4963 1.502 . S
C4962 C4964 1.561 . S
C4962 C4965 1.526 . S
C4963 H4947 0.959 . S
C4963 H4948 0.959 . S
C4963 H4949 0.961 . S
C4963 C4962 1.502 . S
C4964 H4950 0.960 . S
C4964 H4951 0.961 . S
C4964 H4952 0.959 . S
C4964 C4962 1.561 . S
C4965 C4962 1.526 . S
C4965 C4966 1.396 . S
C4965 C4970 1.390 . S
C4966 C4960 1.465 . S
C4966 C4965 1.396 . S
C4966 C4967 1.399 . S
C4967 H4953 0.929 . S
C4967 C4966 1.399 . S
C4967 C4968 1.385 . S
C4968 H4954 0.931 . S
C4968 C4967 1.385 . S
C4968 C4969 1.389 . S
C4969 C4968 1.389 . S
C4969 C4970 1.387 . S
C4970 H4955 0.930 . S
C4970 C4965 1.390 . S
C4970 C4969 1.387 . S
H4971 C4983 0.930 . S
H4972 C4985 0.930 . S
H4973 C4986 0.930 . S
H4974 C4990 0.959 . S
H4975 C4990 0.959 . S
H4976 C4990 0.961 . S
H4977 C4991 0.960 . S
H4978 C4991 0.961 . S
H4979 C4991 0.959 . S
H4980 C4994 0.929 . S
H4981 C4995 0.931 . S
H4982 C4997 0.930 . S
C4983 H4971 0.930 . S
C4983 C4984 1.399 . S
C4983 C4988 1.399 . S
C4984 C4983 1.399 . S
C4984 C4985 1.376 . S
C4985 H4972 0.930 . S
C4985 C4984 1.376 . S
C4985 C4986 1.388 . S
C4986 H4973 0.930 . S
C4986 C4985 1.388 . S
C4986 C4987 1.390 . S
C4987 C4986 1.390 . S
C4987 C4988 1.394 . S
C4987 C4993 1.465 . S
C4988 C4983 1.399 . S
C4988 C4987 1.394 . S
C4988 C4989 1.516 . S
C4989 C4988 1.516 . S
C4989 C4990 1.502 . S
C4989 C4991 1.561 . S
C4989 C4992 1.526 . S
C4990 H4974 0.959 . S
C4990 H4975 0.959 . S
C4990 H4976 0.961 . S
C4990 C4989 1.502 . S
C4991 H4977 0.960 . S
C4991 H4978 0.961 . S
C4991 H4979 0.959 . S
C4991 C4989 1.561 . S
C4992 C4989 1.526 . S
C4992 C4993 1.396 . S
C4992 C4997 1.390 . S
C4993 C4987 1.465 . S
C4993 C4992 1.396 . S
C4993 C4994 1.399 . S
C4994 H4980 0.929 . S
C4994 C4993 1.399 . S
C4994 C4995 1.385 . S
C4995 H4981 0.931 . S
C4995 C4994 1.385 . S
C4995 C4996 1.389 . S
C4996 C4995 1.389 . S
C4996 C4997 1.387 . S
C4997 H4982 0.930 . S
C4997 C4992 1.390 . S
C4997 C4996 1.387 . S
H4998 C5010 0.930 . S
H4999 C5012 0.930 . S
H5000 C5013 0.930 . S
H5001 C5017 0.959 . S
H5002 C5017 0.959 . S
H5003 C5017 0.961 . S
H5004 C5018 0.960 . S
H5005 C5018 0.961 . S
H5006 C5018 0.959 . S
H5007 C5021 0.929 . S
H5008 C5022 0.931 . S
H5009 C5024 0.930 . S
C5010 H4998 0.930 . S
C5010 C5011 1.399 . S
C5010 C5015 1.399 . S
C5011 C5010 1.399 . S
C5011 C5012 1.376 . S
C5012 H4999 0.930 . S
C5012 C5011 1.376 . S
C5012 C5013 1.388 . S
C5013 H5000 0.930 . S
C5013 C5012 1.388 . S
C5013 C5014 1.390 . S
C5014 C5013 1.390 . S
C5014 C5015 1.394 . S
C5014 C5020 1.465 . S
C5015 C5010 1.399 . S
C5015 C5014 1.394 . S
C5015 C5016 1.516 . S
C5016 C5015 1.516 . S
C5016 C5017 1.502 . S
C5016 C5018 1.561 . S
C5016 C5019 1.526 . S
C5017 H5001 0.959 . S
C5017 H5002 0.959 . S
C5017 H5003 0.961 . S
C5017 C5016 1.502 . S
C5018 H5004 0.960 . S
C5018 H5005 0.961 . S
C5018 H5006 0.959 . S
C5018 C5016 1.561 . S
C5019 C5016 1.526 . S
C5019 C5020 1.396 . S
C5019 C5024 1.390 . S
C5020 C5014 1.465 . S
C5020 C5019 1.396 . S
C5020 C5021 1.399 . S
C5021 H5007 0.929 . S
C5021 C5020 1.399 . S
C5021 C5022 1.385 . S
C5022 H5008 0.931 . S
C5022 C5021 1.385 . S
C5022 C5023 1.389 . S
C5023 C5022 1.389 . S
C5023 C5024 1.387 . S
C5024 H5009 0.930 . S
C5024 C5019 1.390 . S
C5024 C5023 1.387 . S
H5025 C5037 0.930 . S
H5026 C5039 0.930 . S
H5027 C5040 0.930 . S
H5028 C5044 0.959 . S
H5029 C5044 0.959 . S
H5030 C5044 0.961 . S
H5031 C5045 0.960 . S
H5032 C5045 0.961 . S
H5033 C5045 0.959 . S
H5034 C5048 0.929 . S
H5035 C5049 0.931 . S
H5036 C5051 0.930 . S
C5037 H5025 0.930 . S
C5037 C5038 1.399 . S
C5037 C5042 1.399 . S
C5038 C5037 1.399 . S
C5038 C5039 1.376 . S
C5039 H5026 0.930 . S
C5039 C5038 1.376 . S
C5039 C5040 1.388 . S
C5040 H5027 0.930 . S
C5040 C5039 1.388 . S
C5040 C5041 1.390 . S
C5041 C5040 1.390 . S
C5041 C5042 1.394 . S
C5041 C5047 1.465 . S
C5042 C5037 1.399 . S
C5042 C5041 1.394 . S
C5042 C5043 1.516 . S
C5043 C5042 1.516 . S
C5043 C5044 1.502 . S
C5043 C5045 1.561 . S
C5043 C5046 1.526 . S
C5044 H5028 0.959 . S
C5044 H5029 0.959 . S
C5044 H5030 0.961 . S
C5044 C5043 1.502 . S
C5045 H5031 0.960 . S
C5045 H5032 0.961 . S
C5045 H5033 0.959 . S
C5045 C5043 1.561 . S
C5046 C5043 1.526 . S
C5046 C5047 1.396 . S
C5046 C5051 1.390 . S
C5047 C5041 1.465 . S
C5047 C5046 1.396 . S
C5047 C5048 1.399 . S
C5048 H5034 0.929 . S
C5048 C5047 1.399 . S
C5048 C5049 1.385 . S
C5049 H5035 0.931 . S
C5049 C5048 1.385 . S
C5049 C5050 1.389 . S
C5050 C5049 1.389 . S
C5050 C5051 1.387 . S
C5051 H5036 0.930 . S
C5051 C5046 1.390 . S
C5051 C5050 1.387 . S
H5052 C5064 0.930 . S
H5053 C5066 0.930 . S
H5054 C5067 0.930 . S
H5055 C5071 0.959 . S
H5056 C5071 0.959 . S
H5057 C5071 0.961 . S
H5058 C5072 0.960 . S
H5059 C5072 0.961 . S
H5060 C5072 0.959 . S
H5061 C5075 0.929 . S
H5062 C5076 0.931 . S
H5063 C5078 0.930 . S
C5064 H5052 0.930 . S
C5064 C5065 1.399 . S
C5064 C5069 1.399 . S
C5065 C5064 1.399 . S
C5065 C5066 1.376 . S
C5066 H5053 0.930 . S
C5066 C5065 1.376 . S
C5066 C5067 1.388 . S
C5067 H5054 0.930 . S
C5067 C5066 1.388 . S
C5067 C5068 1.390 . S
C5068 C5067 1.390 . S
C5068 C5069 1.394 . S
C5068 C5074 1.465 . S
C5069 C5064 1.399 . S
C5069 C5068 1.394 . S
C5069 C5070 1.516 . S
C5070 C5069 1.516 . S
C5070 C5071 1.502 . S
C5070 C5072 1.561 . S
C5070 C5073 1.526 . S
C5071 H5055 0.959 . S
C5071 H5056 0.959 . S
C5071 H5057 0.961 . S
C5071 C5070 1.502 . S
C5072 H5058 0.960 . S
C5072 H5059 0.961 . S
C5072 H5060 0.959 . S
C5072 C5070 1.561 . S
C5073 C5070 1.526 . S
C5073 C5074 1.396 . S
C5073 C5078 1.390 . S
C5074 C5068 1.465 . S
C5074 C5073 1.396 . S
C5074 C5075 1.399 . S
C5075 H5061 0.929 . S
C5075 C5074 1.399 . S
C5075 C5076 1.385 . S
C5076 H5062 0.931 . S
C5076 C5075 1.385 . S
C5076 C5077 1.389 . S
C5077 C5076 1.389 . S
C5077 C5078 1.387 . S
C5078 H5063 0.930 . S
C5078 C5073 1.390 . S
C5078 C5077 1.387 . S
H5079 C5091 0.930 . S
H5080 C5093 0.930 . S
H5081 C5094 0.930 . S
H5082 C5098 0.959 . S
H5083 C5098 0.959 . S
H5084 C5098 0.961 . S
H5085 C5099 0.960 . S
H5086 C5099 0.961 . S
H5087 C5099 0.959 . S
H5088 C5102 0.929 . S
H5089 C5103 0.931 . S
H5090 C5105 0.930 . S
C5091 H5079 0.930 . S
C5091 C5092 1.399 . S
C5091 C5096 1.399 . S
C5092 C5091 1.399 . S
C5092 C5093 1.376 . S
C5093 H5080 0.930 . S
C5093 C5092 1.376 . S
C5093 C5094 1.388 . S
C5094 H5081 0.930 . S
C5094 C5093 1.388 . S
C5094 C5095 1.390 . S
C5095 C5094 1.390 . S
C5095 C5096 1.394 . S
C5095 C5101 1.465 . S
C5096 C5091 1.399 . S
C5096 C5095 1.394 . S
C5096 C5097 1.516 . S
C5097 C5096 1.516 . S
C5097 C5098 1.502 . S
C5097 C5099 1.561 . S
C5097 C5100 1.526 . S
C5098 H5082 0.959 . S
C5098 H5083 0.959 . S
C5098 H5084 0.961 . S
C5098 C5097 1.502 . S
C5099 H5085 0.960 . S
C5099 H5086 0.961 . S
C5099 H5087 0.959 . S
C5099 C5097 1.561 . S
C5100 C5097 1.526 . S
C5100 C5101 1.396 . S
C5100 C5105 1.390 . S
C5101 C5095 1.465 . S
C5101 C5100 1.396 . S
C5101 C5102 1.399 . S
C5102 H5088 0.929 . S
C5102 C5101 1.399 . S
C5102 C5103 1.385 . S
C5103 H5089 0.931 . S
C5103 C5102 1.385 . S
C5103 C5104 1.389 . S
C5104 C5103 1.389 . S
C5104 C5105 1.387 . S
C5105 H5090 0.930 . S
C5105 C5100 1.390 . S
C5105 C5104 1.387 . S
H5106 C5118 0.930 . S
H5107 C5120 0.930 . S
H5108 C5121 0.930 . S
H5109 C5125 0.959 . S
H5110 C5125 0.959 . S
H5111 C5125 0.961 . S
H5112 C5126 0.960 . S
H5113 C5126 0.961 . S
H5114 C5126 0.959 . S
H5115 C5129 0.929 . S
H5116 C5130 0.931 . S
H5117 C5132 0.930 . S
C5118 H5106 0.930 . S
C5118 C5119 1.399 . S
C5118 C5123 1.399 . S
C5119 C5118 1.399 . S
C5119 C5120 1.376 . S
C5120 H5107 0.930 . S
C5120 C5119 1.376 . S
C5120 C5121 1.388 . S
C5121 H5108 0.930 . S
C5121 C5120 1.388 . S
C5121 C5122 1.390 . S
C5122 C5121 1.390 . S
C5122 C5123 1.394 . S
C5122 C5128 1.465 . S
C5123 C5118 1.399 . S
C5123 C5122 1.394 . S
C5123 C5124 1.516 . S
C5124 C5123 1.516 . S
C5124 C5125 1.502 . S
C5124 C5126 1.561 . S
C5124 C5127 1.526 . S
C5125 H5109 0.959 . S
C5125 H5110 0.959 . S
C5125 H5111 0.961 . S
C5125 C5124 1.502 . S
C5126 H5112 0.960 . S
C5126 H5113 0.961 . S
C5126 H5114 0.959 . S
C5126 C5124 1.561 . S
C5127 C5124 1.526 . S
C5127 C5128 1.396 . S
C5127 C5132 1.390 . S
C5128 C5122 1.465 . S
C5128 C5127 1.396 . S
C5128 C5129 1.399 . S
C5129 H5115 0.929 . S
C5129 C5128 1.399 . S
C5129 C5130 1.385 . S
C5130 H5116 0.931 . S
C5130 C5129 1.385 . S
C5130 C5131 1.389 . S
C5131 C5130 1.389 . S
C5131 C5132 1.387 . S
C5132 H5117 0.930 . S
C5132 C5127 1.390 . S
C5132 C5131 1.387 . S
H5133 C5145 0.930 . S
H5134 C5147 0.930 . S
H5135 C5148 0.930 . S
H5136 C5152 0.959 . S
H5137 C5152 0.959 . S
H5138 C5152 0.961 . S
H5139 C5153 0.960 . S
H5140 C5153 0.961 . S
H5141 C5153 0.959 . S
H5142 C5156 0.929 . S
H5143 C5157 0.931 . S
H5144 C5159 0.930 . S
C5145 H5133 0.930 . S
C5145 C5146 1.399 . S
C5145 C5150 1.399 . S
C5146 C5145 1.399 . S
C5146 C5147 1.376 . S
C5147 H5134 0.930 . S
C5147 C5146 1.376 . S
C5147 C5148 1.388 . S
C5148 H5135 0.930 . S
C5148 C5147 1.388 . S
C5148 C5149 1.390 . S
C5149 C5148 1.390 . S
C5149 C5150 1.394 . S
C5149 C5155 1.465 . S
C5150 C5145 1.399 . S
C5150 C5149 1.394 . S
C5150 C5151 1.516 . S
C5151 C5150 1.516 . S
C5151 C5152 1.502 . S
C5151 C5153 1.561 . S
C5151 C5154 1.526 . S
C5152 H5136 0.959 . S
C5152 H5137 0.959 . S
C5152 H5138 0.961 . S
C5152 C5151 1.502 . S
C5153 H5139 0.960 . S
C5153 H5140 0.961 . S
C5153 H5141 0.959 . S
C5153 C5151 1.561 . S
C5154 C5151 1.526 . S
C5154 C5155 1.396 . S
C5154 C5159 1.390 . S
C5155 C5149 1.465 . S
C5155 C5154 1.396 . S
C5155 C5156 1.399 . S
C5156 H5142 0.929 . S
C5156 C5155 1.399 . S
C5156 C5157 1.385 . S
C5157 H5143 0.931 . S
C5157 C5156 1.385 . S
C5157 C5158 1.389 . S
C5158 C5157 1.389 . S
C5158 C5159 1.387 . S
C5159 H5144 0.930 . S
C5159 C5154 1.390 . S
C5159 C5158 1.387 . S
H5160 C5172 0.930 . S
H5161 C5174 0.930 . S
H5162 C5175 0.930 . S
H5163 C5179 0.959 . S
H5164 C5179 0.959 . S
H5165 C5179 0.961 . S
H5166 C5180 0.960 . S
H5167 C5180 0.961 . S
H5168 C5180 0.959 . S
H5169 C5183 0.929 . S
H5170 C5184 0.931 . S
H5171 C5186 0.930 . S
C5172 H5160 0.930 . S
C5172 C5173 1.399 . S
C5172 C5177 1.399 . S
C5173 C5172 1.399 . S
C5173 C5174 1.376 . S
C5174 H5161 0.930 . S
C5174 C5173 1.376 . S
C5174 C5175 1.388 . S
C5175 H5162 0.930 . S
C5175 C5174 1.388 . S
C5175 C5176 1.390 . S
C5176 C5175 1.390 . S
C5176 C5177 1.394 . S
C5176 C5182 1.465 . S
C5177 C5172 1.399 . S
C5177 C5176 1.394 . S
C5177 C5178 1.516 . S
C5178 C5177 1.516 . S
C5178 C5179 1.502 . S
C5178 C5180 1.561 . S
C5178 C5181 1.526 . S
C5179 H5163 0.959 . S
C5179 H5164 0.959 . S
C5179 H5165 0.961 . S
C5179 C5178 1.502 . S
C5180 H5166 0.960 . S
C5180 H5167 0.961 . S
C5180 H5168 0.959 . S
C5180 C5178 1.561 . S
C5181 C5178 1.526 . S
C5181 C5182 1.396 . S
C5181 C5186 1.390 . S
C5182 C5176 1.465 . S
C5182 C5181 1.396 . S
C5182 C5183 1.399 . S
C5183 H5169 0.929 . S
C5183 C5182 1.399 . S
C5183 C5184 1.385 . S
C5184 H5170 0.931 . S
C5184 C5183 1.385 . S
C5184 C5185 1.389 . S
C5185 C5184 1.389 . S
C5185 C5186 1.387 . S
C5186 H5171 0.930 . S
C5186 C5181 1.390 . S
C5186 C5185 1.387 . S
H5187 C5199 0.930 . S
H5188 C5201 0.930 . S
H5189 C5202 0.930 . S
H5190 C5206 0.959 . S
H5191 C5206 0.959 . S
H5192 C5206 0.961 . S
H5193 C5207 0.960 . S
H5194 C5207 0.961 . S
H5195 C5207 0.959 . S
H5196 C5210 0.929 . S
H5197 C5211 0.931 . S
H5198 C5213 0.930 . S
C5199 H5187 0.930 . S
C5199 C5200 1.399 . S
C5199 C5204 1.399 . S
C5200 C5199 1.399 . S
C5200 C5201 1.376 . S
C5201 H5188 0.930 . S
C5201 C5200 1.376 . S
C5201 C5202 1.388 . S
C5202 H5189 0.930 . S
C5202 C5201 1.388 . S
C5202 C5203 1.390 . S
C5203 C5202 1.390 . S
C5203 C5204 1.394 . S
C5203 C5209 1.465 . S
C5204 C5199 1.399 . S
C5204 C5203 1.394 . S
C5204 C5205 1.516 . S
C5205 C5204 1.516 . S
C5205 C5206 1.502 . S
C5205 C5207 1.561 . S
C5205 C5208 1.526 . S
C5206 H5190 0.959 . S
C5206 H5191 0.959 . S
C5206 H5192 0.961 . S
C5206 C5205 1.502 . S
C5207 H5193 0.960 . S
C5207 H5194 0.961 . S
C5207 H5195 0.959 . S
C5207 C5205 1.561 . S
C5208 C5205 1.526 . S
C5208 C5209 1.396 . S
C5208 C5213 1.390 . S
C5209 C5203 1.465 . S
C5209 C5208 1.396 . S
C5209 C5210 1.399 . S
C5210 H5196 0.929 . S
C5210 C5209 1.399 . S
C5210 C5211 1.385 . S
C5211 H5197 0.931 . S
C5211 C5210 1.385 . S
C5211 C5212 1.389 . S
C5212 C5211 1.389 . S
C5212 C5213 1.387 . S
C5213 H5198 0.930 . S
C5213 C5208 1.390 . S
C5213 C5212 1.387 . S
H5214 C5226 0.930 . S
H5215 C5228 0.930 . S
H5216 C5229 0.930 . S
H5217 C5233 0.959 . S
H5218 C5233 0.959 . S
H5219 C5233 0.961 . S
H5220 C5234 0.960 . S
H5221 C5234 0.961 . S
H5222 C5234 0.959 . S
H5223 C5237 0.929 . S
H5224 C5238 0.931 . S
H5225 C5240 0.930 . S
C5226 H5214 0.930 . S
C5226 C5227 1.399 . S
C5226 C5231 1.399 . S
C5227 C5226 1.399 . S
C5227 C5228 1.376 . S
C5228 H5215 0.930 . S
C5228 C5227 1.376 . S
C5228 C5229 1.388 . S
C5229 H5216 0.930 . S
C5229 C5228 1.388 . S
C5229 C5230 1.390 . S
C5230 C5229 1.390 . S
C5230 C5231 1.394 . S
C5230 C5236 1.465 . S
C5231 C5226 1.399 . S
C5231 C5230 1.394 . S
C5231 C5232 1.516 . S
C5232 C5231 1.516 . S
C5232 C5233 1.502 . S
C5232 C5234 1.561 . S
C5232 C5235 1.526 . S
C5233 H5217 0.959 . S
C5233 H5218 0.959 . S
C5233 H5219 0.961 . S
C5233 C5232 1.502 . S
C5234 H5220 0.960 . S
C5234 H5221 0.961 . S
C5234 H5222 0.959 . S
C5234 C5232 1.561 . S
C5235 C5232 1.526 . S
C5235 C5236 1.396 . S
C5235 C5240 1.390 . S
C5236 C5230 1.465 . S
C5236 C5235 1.396 . S
C5236 C5237 1.399 . S
C5237 H5223 0.929 . S
C5237 C5236 1.399 . S
C5237 C5238 1.385 . S
C5238 H5224 0.931 . S
C5238 C5237 1.385 . S
C5238 C5239 1.389 . S
C5239 C5238 1.389 . S
C5239 C5240 1.387 . S
C5240 H5225 0.930 . S
C5240 C5235 1.390 . S
C5240 C5239 1.387 . S
H5241 C5253 0.930 . S
H5242 C5255 0.930 . S
H5243 C5256 0.930 . S
H5244 C5260 0.959 . S
H5245 C5260 0.959 . S
H5246 C5260 0.961 . S
H5247 C5261 0.960 . S
H5248 C5261 0.961 . S
H5249 C5261 0.959 . S
H5250 C5264 0.929 . S
H5251 C5265 0.931 . S
H5252 C5267 0.930 . S
C5253 H5241 0.930 . S
C5253 C5254 1.399 . S
C5253 C5258 1.399 . S
C5254 C5253 1.399 . S
C5254 C5255 1.376 . S
C5255 H5242 0.930 . S
C5255 C5254 1.376 . S
C5255 C5256 1.388 . S
C5256 H5243 0.930 . S
C5256 C5255 1.388 . S
C5256 C5257 1.390 . S
C5257 C5256 1.390 . S
C5257 C5258 1.394 . S
C5257 C5263 1.465 . S
C5258 C5253 1.399 . S
C5258 C5257 1.394 . S
C5258 C5259 1.516 . S
C5259 C5258 1.516 . S
C5259 C5260 1.502 . S
C5259 C5261 1.561 . S
C5259 C5262 1.526 . S
C5260 H5244 0.959 . S
C5260 H5245 0.959 . S
C5260 H5246 0.961 . S
C5260 C5259 1.502 . S
C5261 H5247 0.960 . S
C5261 H5248 0.961 . S
C5261 H5249 0.959 . S
C5261 C5259 1.561 . S
C5262 C5259 1.526 . S
C5262 C5263 1.396 . S
C5262 C5267 1.390 . S
C5263 C5257 1.465 . S
C5263 C5262 1.396 . S
C5263 C5264 1.399 . S
C5264 H5250 0.929 . S
C5264 C5263 1.399 . S
C5264 C5265 1.385 . S
C5265 H5251 0.931 . S
C5265 C5264 1.385 . S
C5265 C5266 1.389 . S
C5266 C5265 1.389 . S
C5266 C5267 1.387 . S
C5267 H5252 0.930 . S
C5267 C5262 1.390 . S
C5267 C5266 1.387 . S
H5268 C5280 0.930 . S
H5269 C5282 0.930 . S
H5270 C5283 0.930 . S
H5271 C5287 0.959 . S
H5272 C5287 0.959 . S
H5273 C5287 0.961 . S
H5274 C5288 0.960 . S
H5275 C5288 0.961 . S
H5276 C5288 0.959 . S
H5277 C5291 0.929 . S
H5278 C5292 0.931 . S
H5279 C5294 0.930 . S
C5280 H5268 0.930 . S
C5280 C5281 1.399 . S
C5280 C5285 1.399 . S
C5281 C5280 1.399 . S
C5281 C5282 1.376 . S
C5282 H5269 0.930 . S
C5282 C5281 1.376 . S
C5282 C5283 1.388 . S
C5283 H5270 0.930 . S
C5283 C5282 1.388 . S
C5283 C5284 1.390 . S
C5284 C5283 1.390 . S
C5284 C5285 1.394 . S
C5284 C5290 1.465 . S
C5285 C5280 1.399 . S
C5285 C5284 1.394 . S
C5285 C5286 1.516 . S
C5286 C5285 1.516 . S
C5286 C5287 1.502 . S
C5286 C5288 1.561 . S
C5286 C5289 1.526 . S
C5287 H5271 0.959 . S
C5287 H5272 0.959 . S
C5287 H5273 0.961 . S
C5287 C5286 1.502 . S
C5288 H5274 0.960 . S
C5288 H5275 0.961 . S
C5288 H5276 0.959 . S
C5288 C5286 1.561 . S
C5289 C5286 1.526 . S
C5289 C5290 1.396 . S
C5289 C5294 1.390 . S
C5290 C5284 1.465 . S
C5290 C5289 1.396 . S
C5290 C5291 1.399 . S
C5291 H5277 0.929 . S
C5291 C5290 1.399 . S
C5291 C5292 1.385 . S
C5292 H5278 0.931 . S
C5292 C5291 1.385 . S
C5292 C5293 1.389 . S
C5293 C5292 1.389 . S
C5293 C5294 1.387 . S
C5294 H5279 0.930 . S
C5294 C5289 1.390 . S
C5294 C5293 1.387 . S
H5295 C5307 0.930 . S
H5296 C5309 0.930 . S
H5297 C5310 0.930 . S
H5298 C5314 0.959 . S
H5299 C5314 0.959 . S
H5300 C5314 0.961 . S
H5301 C5315 0.960 . S
H5302 C5315 0.961 . S
H5303 C5315 0.959 . S
H5304 C5318 0.929 . S
H5305 C5319 0.931 . S
H5306 C5321 0.930 . S
C5307 H5295 0.930 . S
C5307 C5308 1.399 . S
C5307 C5312 1.399 . S
C5308 C5307 1.399 . S
C5308 C5309 1.376 . S
C5309 H5296 0.930 . S
C5309 C5308 1.376 . S
C5309 C5310 1.388 . S
C5310 H5297 0.930 . S
C5310 C5309 1.388 . S
C5310 C5311 1.390 . S
C5311 C5310 1.390 . S
C5311 C5312 1.394 . S
C5311 C5317 1.465 . S
C5312 C5307 1.399 . S
C5312 C5311 1.394 . S
C5312 C5313 1.516 . S
C5313 C5312 1.516 . S
C5313 C5314 1.502 . S
C5313 C5315 1.561 . S
C5313 C5316 1.526 . S
C5314 H5298 0.959 . S
C5314 H5299 0.959 . S
C5314 H5300 0.961 . S
C5314 C5313 1.502 . S
C5315 H5301 0.960 . S
C5315 H5302 0.961 . S
C5315 H5303 0.959 . S
C5315 C5313 1.561 . S
C5316 C5313 1.526 . S
C5316 C5317 1.396 . S
C5316 C5321 1.390 . S
C5317 C5311 1.465 . S
C5317 C5316 1.396 . S
C5317 C5318 1.399 . S
C5318 H5304 0.929 . S
C5318 C5317 1.399 . S
C5318 C5319 1.385 . S
C5319 H5305 0.931 . S
C5319 C5318 1.385 . S
C5319 C5320 1.389 . S
C5320 C5319 1.389 . S
C5320 C5321 1.387 . S
C5321 H5306 0.930 . S
C5321 C5316 1.390 . S
C5321 C5320 1.387 . S
H5322 C5334 0.930 . S
H5323 C5336 0.930 . S
H5324 C5337 0.930 . S
H5325 C5341 0.959 . S
H5326 C5341 0.959 . S
H5327 C5341 0.961 . S
H5328 C5342 0.960 . S
H5329 C5342 0.961 . S
H5330 C5342 0.959 . S
H5331 C5345 0.929 . S
H5332 C5346 0.931 . S
H5333 C5348 0.930 . S
C5334 H5322 0.930 . S
C5334 C5335 1.399 . S
C5334 C5339 1.399 . S
C5335 C5334 1.399 . S
C5335 C5336 1.376 . S
C5336 H5323 0.930 . S
C5336 C5335 1.376 . S
C5336 C5337 1.388 . S
C5337 H5324 0.930 . S
C5337 C5336 1.388 . S
C5337 C5338 1.390 . S
C5338 C5337 1.390 . S
C5338 C5339 1.394 . S
C5338 C5344 1.465 . S
C5339 C5334 1.399 . S
C5339 C5338 1.394 . S
C5339 C5340 1.516 . S
C5340 C5339 1.516 . S
C5340 C5341 1.502 . S
C5340 C5342 1.561 . S
C5340 C5343 1.526 . S
C5341 H5325 0.959 . S
C5341 H5326 0.959 . S
C5341 H5327 0.961 . S
C5341 C5340 1.502 . S
C5342 H5328 0.960 . S
C5342 H5329 0.961 . S
C5342 H5330 0.959 . S
C5342 C5340 1.561 . S
C5343 C5340 1.526 . S
C5343 C5344 1.396 . S
C5343 C5348 1.390 . S
C5344 C5338 1.465 . S
C5344 C5343 1.396 . S
C5344 C5345 1.399 . S
C5345 H5331 0.929 . S
C5345 C5344 1.399 . S
C5345 C5346 1.385 . S
C5346 H5332 0.931 . S
C5346 C5345 1.385 . S
C5346 C5347 1.389 . S
C5347 C5346 1.389 . S
C5347 C5348 1.387 . S
C5348 H5333 0.930 . S
C5348 C5343 1.390 . S
C5348 C5347 1.387 . S
H5349 C5361 0.930 . S
H5350 C5363 0.930 . S
H5351 C5364 0.930 . S
H5352 C5368 0.959 . S
H5353 C5368 0.959 . S
H5354 C5368 0.961 . S
H5355 C5369 0.960 . S
H5356 C5369 0.961 . S
H5357 C5369 0.959 . S
H5358 C5372 0.929 . S
H5359 C5373 0.931 . S
H5360 C5375 0.930 . S
C5361 H5349 0.930 . S
C5361 C5362 1.399 . S
C5361 C5366 1.399 . S
C5362 C5361 1.399 . S
C5362 C5363 1.376 . S
C5363 H5350 0.930 . S
C5363 C5362 1.376 . S
C5363 C5364 1.388 . S
C5364 H5351 0.930 . S
C5364 C5363 1.388 . S
C5364 C5365 1.390 . S
C5365 C5364 1.390 . S
C5365 C5366 1.394 . S
C5365 C5371 1.465 . S
C5366 C5361 1.399 . S
C5366 C5365 1.394 . S
C5366 C5367 1.516 . S
C5367 C5366 1.516 . S
C5367 C5368 1.502 . S
C5367 C5369 1.561 . S
C5367 C5370 1.526 . S
C5368 H5352 0.959 . S
C5368 H5353 0.959 . S
C5368 H5354 0.961 . S
C5368 C5367 1.502 . S
C5369 H5355 0.960 . S
C5369 H5356 0.961 . S
C5369 H5357 0.959 . S
C5369 C5367 1.561 . S
C5370 C5367 1.526 . S
C5370 C5371 1.396 . S
C5370 C5375 1.390 . S
C5371 C5365 1.465 . S
C5371 C5370 1.396 . S
C5371 C5372 1.399 . S
C5372 H5358 0.929 . S
C5372 C5371 1.399 . S
C5372 C5373 1.385 . S
C5373 H5359 0.931 . S
C5373 C5372 1.385 . S
C5373 C5374 1.389 . S
C5374 C5373 1.389 . S
C5374 C5375 1.387 . S
C5375 H5360 0.930 . S
C5375 C5370 1.390 . S
C5375 C5374 1.387 . S
H5376 C5388 0.930 . S
H5377 C5390 0.930 . S
H5378 C5391 0.930 . S
H5379 C5395 0.959 . S
H5380 C5395 0.959 . S
H5381 C5395 0.961 . S
H5382 C5396 0.960 . S
H5383 C5396 0.961 . S
H5384 C5396 0.959 . S
H5385 C5399 0.929 . S
H5386 C5400 0.931 . S
H5387 C5402 0.930 . S
C5388 H5376 0.930 . S
C5388 C5389 1.399 . S
C5388 C5393 1.399 . S
C5389 C5388 1.399 . S
C5389 C5390 1.376 . S
C5390 H5377 0.930 . S
C5390 C5389 1.376 . S
C5390 C5391 1.388 . S
C5391 H5378 0.930 . S
C5391 C5390 1.388 . S
C5391 C5392 1.390 . S
C5392 C5391 1.390 . S
C5392 C5393 1.394 . S
C5392 C5398 1.465 . S
C5393 C5388 1.399 . S
C5393 C5392 1.394 . S
C5393 C5394 1.516 . S
C5394 C5393 1.516 . S
C5394 C5395 1.502 . S
C5394 C5396 1.561 . S
C5394 C5397 1.526 . S
C5395 H5379 0.959 . S
C5395 H5380 0.959 . S
C5395 H5381 0.961 . S
C5395 C5394 1.502 . S
C5396 H5382 0.960 . S
C5396 H5383 0.961 . S
C5396 H5384 0.959 . S
C5396 C5394 1.561 . S
C5397 C5394 1.526 . S
C5397 C5398 1.396 . S
C5397 C5402 1.390 . S
C5398 C5392 1.465 . S
C5398 C5397 1.396 . S
C5398 C5399 1.399 . S
C5399 H5385 0.929 . S
C5399 C5398 1.399 . S
C5399 C5400 1.385 . S
C5400 H5386 0.931 . S
C5400 C5399 1.385 . S
C5400 C5401 1.389 . S
C5401 C5400 1.389 . S
C5401 C5402 1.387 . S
C5402 H5387 0.930 . S
C5402 C5397 1.390 . S
C5402 C5401 1.387 . S
H5403 C5415 0.930 . S
H5404 C5417 0.930 . S
H5405 C5418 0.930 . S
H5406 C5422 0.959 . S
H5407 C5422 0.959 . S
H5408 C5422 0.961 . S
H5409 C5423 0.960 . S
H5410 C5423 0.961 . S
H5411 C5423 0.959 . S
H5412 C5426 0.929 . S
H5413 C5427 0.931 . S
H5414 C5429 0.930 . S
C5415 H5403 0.930 . S
C5415 C5416 1.399 . S
C5415 C5420 1.399 . S
C5416 C5415 1.399 . S
C5416 C5417 1.376 . S
C5417 H5404 0.930 . S
C5417 C5416 1.376 . S
C5417 C5418 1.388 . S
C5418 H5405 0.930 . S
C5418 C5417 1.388 . S
C5418 C5419 1.390 . S
C5419 C5418 1.390 . S
C5419 C5420 1.394 . S
C5419 C5425 1.465 . S
C5420 C5415 1.399 . S
C5420 C5419 1.394 . S
C5420 C5421 1.516 . S
C5421 C5420 1.516 . S
C5421 C5422 1.502 . S
C5421 C5423 1.561 . S
C5421 C5424 1.526 . S
C5422 H5406 0.959 . S
C5422 H5407 0.959 . S
C5422 H5408 0.961 . S
C5422 C5421 1.502 . S
C5423 H5409 0.960 . S
C5423 H5410 0.961 . S
C5423 H5411 0.959 . S
C5423 C5421 1.561 . S
C5424 C5421 1.526 . S
C5424 C5425 1.396 . S
C5424 C5429 1.390 . S
C5425 C5419 1.465 . S
C5425 C5424 1.396 . S
C5425 C5426 1.399 . S
C5426 H5412 0.929 . S
C5426 C5425 1.399 . S
C5426 C5427 1.385 . S
C5427 H5413 0.931 . S
C5427 C5426 1.385 . S
C5427 C5428 1.389 . S
C5428 C5427 1.389 . S
C5428 C5429 1.387 . S
C5429 H5414 0.930 . S
C5429 C5424 1.390 . S
C5429 C5428 1.387 . S
H5430 C5442 0.930 . S
H5431 C5444 0.930 . S
H5432 C5445 0.930 . S
H5433 C5449 0.959 . S
H5434 C5449 0.959 . S
H5435 C5449 0.961 . S
H5436 C5450 0.960 . S
H5437 C5450 0.961 . S
H5438 C5450 0.959 . S
H5439 C5453 0.929 . S
H5440 C5454 0.931 . S
H5441 C5456 0.930 . S
C5442 H5430 0.930 . S
C5442 C5443 1.399 . S
C5442 C5447 1.399 . S
C5443 C5442 1.399 . S
C5443 C5444 1.376 . S
C5444 H5431 0.930 . S
C5444 C5443 1.376 . S
C5444 C5445 1.388 . S
C5445 H5432 0.930 . S
C5445 C5444 1.388 . S
C5445 C5446 1.390 . S
C5446 C5445 1.390 . S
C5446 C5447 1.394 . S
C5446 C5452 1.465 . S
C5447 C5442 1.399 . S
C5447 C5446 1.394 . S
C5447 C5448 1.516 . S
C5448 C5447 1.516 . S
C5448 C5449 1.502 . S
C5448 C5450 1.561 . S
C5448 C5451 1.526 . S
C5449 H5433 0.959 . S
C5449 H5434 0.959 . S
C5449 H5435 0.961 . S
C5449 C5448 1.502 . S
C5450 H5436 0.960 . S
C5450 H5437 0.961 . S
C5450 H5438 0.959 . S
C5450 C5448 1.561 . S
C5451 C5448 1.526 . S
C5451 C5452 1.396 . S
C5451 C5456 1.390 . S
C5452 C5446 1.465 . S
C5452 C5451 1.396 . S
C5452 C5453 1.399 . S
C5453 H5439 0.929 . S
C5453 C5452 1.399 . S
C5453 C5454 1.385 . S
C5454 H5440 0.931 . S
C5454 C5453 1.385 . S
C5454 C5455 1.389 . S
C5455 C5454 1.389 . S
C5455 C5456 1.387 . S
C5456 H5441 0.930 . S
C5456 C5451 1.390 . S
C5456 C5455 1.387 . S
H5457 C5469 0.930 . S
H5458 C5471 0.930 . S
H5459 C5472 0.930 . S
H5460 C5476 0.959 . S
H5461 C5476 0.959 . S
H5462 C5476 0.961 . S
H5463 C5477 0.960 . S
H5464 C5477 0.961 . S
H5465 C5477 0.959 . S
H5466 C5480 0.929 . S
H5467 C5481 0.931 . S
H5468 C5483 0.930 . S
C5469 H5457 0.930 . S
C5469 C5470 1.399 . S
C5469 C5474 1.399 . S
C5470 C5469 1.399 . S
C5470 C5471 1.376 . S
C5471 H5458 0.930 . S
C5471 C5470 1.376 . S
C5471 C5472 1.388 . S
C5472 H5459 0.930 . S
C5472 C5471 1.388 . S
C5472 C5473 1.390 . S
C5473 C5472 1.390 . S
C5473 C5474 1.394 . S
C5473 C5479 1.465 . S
C5474 C5469 1.399 . S
C5474 C5473 1.394 . S
C5474 C5475 1.516 . S
C5475 C5474 1.516 . S
C5475 C5476 1.502 . S
C5475 C5477 1.561 . S
C5475 C5478 1.526 . S
C5476 H5460 0.959 . S
C5476 H5461 0.959 . S
C5476 H5462 0.961 . S
C5476 C5475 1.502 . S
C5477 H5463 0.960 . S
C5477 H5464 0.961 . S
C5477 H5465 0.959 . S
C5477 C5475 1.561 . S
C5478 C5475 1.526 . S
C5478 C5479 1.396 . S
C5478 C5483 1.390 . S
C5479 C5473 1.465 . S
C5479 C5478 1.396 . S
C5479 C5480 1.399 . S
C5480 H5466 0.929 . S
C5480 C5479 1.399 . S
C5480 C5481 1.385 . S
C5481 H5467 0.931 . S
C5481 C5480 1.385 . S
C5481 C5482 1.389 . S
C5482 C5481 1.389 . S
C5482 C5483 1.387 . S
C5483 H5468 0.930 . S
C5483 C5478 1.390 . S
C5483 C5482 1.387 . S
H5484 C5496 0.930 . S
H5485 C5498 0.930 . S
H5486 C5499 0.930 . S
H5487 C5503 0.959 . S
H5488 C5503 0.959 . S
H5489 C5503 0.961 . S
H5490 C5504 0.960 . S
H5491 C5504 0.961 . S
H5492 C5504 0.959 . S
H5493 C5507 0.929 . S
H5494 C5508 0.931 . S
H5495 C5510 0.930 . S
C5496 H5484 0.930 . S
C5496 C5497 1.399 . S
C5496 C5501 1.399 . S
C5497 C5496 1.399 . S
C5497 C5498 1.376 . S
C5498 H5485 0.930 . S
C5498 C5497 1.376 . S
C5498 C5499 1.388 . S
C5499 H5486 0.930 . S
C5499 C5498 1.388 . S
C5499 C5500 1.390 . S
C5500 C5499 1.390 . S
C5500 C5501 1.394 . S
C5500 C5506 1.465 . S
C5501 C5496 1.399 . S
C5501 C5500 1.394 . S
C5501 C5502 1.516 . S
C5502 C5501 1.516 . S
C5502 C5503 1.502 . S
C5502 C5504 1.561 . S
C5502 C5505 1.526 . S
C5503 H5487 0.959 . S
C5503 H5488 0.959 . S
C5503 H5489 0.961 . S
C5503 C5502 1.502 . S
C5504 H5490 0.960 . S
C5504 H5491 0.961 . S
C5504 H5492 0.959 . S
C5504 C5502 1.561 . S
C5505 C5502 1.526 . S
C5505 C5506 1.396 . S
C5505 C5510 1.390 . S
C5506 C5500 1.465 . S
C5506 C5505 1.396 . S
C5506 C5507 1.399 . S
C5507 H5493 0.929 . S
C5507 C5506 1.399 . S
C5507 C5508 1.385 . S
C5508 H5494 0.931 . S
C5508 C5507 1.385 . S
C5508 C5509 1.389 . S
C5509 C5508 1.389 . S
C5509 C5510 1.387 . S
C5510 H5495 0.930 . S
C5510 C5505 1.390 . S
C5510 C5509 1.387 . S
H5511 C5523 0.930 . S
H5512 C5525 0.930 . S
H5513 C5526 0.930 . S
H5514 C5530 0.959 . S
H5515 C5530 0.959 . S
H5516 C5530 0.961 . S
H5517 C5531 0.960 . S
H5518 C5531 0.961 . S
H5519 C5531 0.959 . S
H5520 C5534 0.929 . S
H5521 C5535 0.931 . S
H5522 C5537 0.930 . S
C5523 H5511 0.930 . S
C5523 C5524 1.399 . S
C5523 C5528 1.399 . S
C5524 C5523 1.399 . S
C5524 C5525 1.376 . S
C5525 H5512 0.930 . S
C5525 C5524 1.376 . S
C5525 C5526 1.388 . S
C5526 H5513 0.930 . S
C5526 C5525 1.388 . S
C5526 C5527 1.390 . S
C5527 C5526 1.390 . S
C5527 C5528 1.394 . S
C5527 C5533 1.465 . S
C5528 C5523 1.399 . S
C5528 C5527 1.394 . S
C5528 C5529 1.516 . S
C5529 C5528 1.516 . S
C5529 C5530 1.502 . S
C5529 C5531 1.561 . S
C5529 C5532 1.526 . S
C5530 H5514 0.959 . S
C5530 H5515 0.959 . S
C5530 H5516 0.961 . S
C5530 C5529 1.502 . S
C5531 H5517 0.960 . S
C5531 H5518 0.961 . S
C5531 H5519 0.959 . S
C5531 C5529 1.561 . S
C5532 C5529 1.526 . S
C5532 C5533 1.396 . S
C5532 C5537 1.390 . S
C5533 C5527 1.465 . S
C5533 C5532 1.396 . S
C5533 C5534 1.399 . S
C5534 H5520 0.929 . S
C5534 C5533 1.399 . S
C5534 C5535 1.385 . S
C5535 H5521 0.931 . S
C5535 C5534 1.385 . S
C5535 C5536 1.389 . S
C5536 C5535 1.389 . S
C5536 C5537 1.387 . S
C5537 H5522 0.930 . S
C5537 C5532 1.390 . S
C5537 C5536 1.387 . S
H5538 C5550 0.930 . S
H5539 C5552 0.930 . S
H5540 C5553 0.930 . S
H5541 C5557 0.959 . S
H5542 C5557 0.959 . S
H5543 C5557 0.961 . S
H5544 C5558 0.960 . S
H5545 C5558 0.961 . S
H5546 C5558 0.959 . S
H5547 C5561 0.929 . S
H5548 C5562 0.931 . S
H5549 C5564 0.930 . S
C5550 H5538 0.930 . S
C5550 C5551 1.399 . S
C5550 C5555 1.399 . S
C5551 C5550 1.399 . S
C5551 C5552 1.376 . S
C5552 H5539 0.930 . S
C5552 C5551 1.376 . S
C5552 C5553 1.388 . S
C5553 H5540 0.930 . S
C5553 C5552 1.388 . S
C5553 C5554 1.390 . S
C5554 C5553 1.390 . S
C5554 C5555 1.394 . S
C5554 C5560 1.465 . S
C5555 C5550 1.399 . S
C5555 C5554 1.394 . S
C5555 C5556 1.516 . S
C5556 C5555 1.516 . S
C5556 C5557 1.502 . S
C5556 C5558 1.561 . S
C5556 C5559 1.526 . S
C5557 H5541 0.959 . S
C5557 H5542 0.959 . S
C5557 H5543 0.961 . S
C5557 C5556 1.502 . S
C5558 H5544 0.960 . S
C5558 H5545 0.961 . S
C5558 H5546 0.959 . S
C5558 C5556 1.561 . S
C5559 C5556 1.526 . S
C5559 C5560 1.396 . S
C5559 C5564 1.390 . S
C5560 C5554 1.465 . S
C5560 C5559 1.396 . S
C5560 C5561 1.399 . S
C5561 H5547 0.929 . S
C5561 C5560 1.399 . S
C5561 C5562 1.385 . S
C5562 H5548 0.931 . S
C5562 C5561 1.385 . S
C5562 C5563 1.389 . S
C5563 C5562 1.389 . S
C5563 C5564 1.387 . S
C5564 H5549 0.930 . S
C5564 C5559 1.390 . S
C5564 C5563 1.387 . S
H5565 C5577 0.930 . S
H5566 C5579 0.930 . S
H5567 C5580 0.930 . S
H5568 C5584 0.959 . S
H5569 C5584 0.959 . S
H5570 C5584 0.961 . S
H5571 C5585 0.960 . S
H5572 C5585 0.961 . S
H5573 C5585 0.959 . S
H5574 C5588 0.929 . S
H5575 C5589 0.931 . S
H5576 C5591 0.930 . S
C5577 H5565 0.930 . S
C5577 C5578 1.399 . S
C5577 C5582 1.399 . S
C5578 C5577 1.399 . S
C5578 C5579 1.376 . S
C5579 H5566 0.930 . S
C5579 C5578 1.376 . S
C5579 C5580 1.388 . S
C5580 H5567 0.930 . S
C5580 C5579 1.388 . S
C5580 C5581 1.390 . S
C5581 C5580 1.390 . S
C5581 C5582 1.394 . S
C5581 C5587 1.465 . S
C5582 C5577 1.399 . S
C5582 C5581 1.394 . S
C5582 C5583 1.516 . S
C5583 C5582 1.516 . S
C5583 C5584 1.502 . S
C5583 C5585 1.561 . S
C5583 C5586 1.526 . S
C5584 H5568 0.959 . S
C5584 H5569 0.959 . S
C5584 H5570 0.961 . S
C5584 C5583 1.502 . S
C5585 H5571 0.960 . S
C5585 H5572 0.961 . S
C5585 H5573 0.959 . S
C5585 C5583 1.561 . S
C5586 C5583 1.526 . S
C5586 C5587 1.396 . S
C5586 C5591 1.390 . S
C5587 C5581 1.465 . S
C5587 C5586 1.396 . S
C5587 C5588 1.399 . S
C5588 H5574 0.929 . S
C5588 C5587 1.399 . S
C5588 C5589 1.385 . S
C5589 H5575 0.931 . S
C5589 C5588 1.385 . S
C5589 C5590 1.389 . S
C5590 C5589 1.389 . S
C5590 C5591 1.387 . S
C5591 H5576 0.930 . S
C5591 C5586 1.390 . S
C5591 C5590 1.387 . S
H5592 C5604 0.930 . S
H5593 C5606 0.930 . S
H5594 C5607 0.930 . S
H5595 C5611 0.959 . S
H5596 C5611 0.959 . S
H5597 C5611 0.961 . S
H5598 C5612 0.960 . S
H5599 C5612 0.961 . S
H5600 C5612 0.959 . S
H5601 C5615 0.929 . S
H5602 C5616 0.931 . S
H5603 C5618 0.930 . S
C5604 H5592 0.930 . S
C5604 C5605 1.399 . S
C5604 C5609 1.399 . S
C5605 C5604 1.399 . S
C5605 C5606 1.376 . S
C5606 H5593 0.930 . S
C5606 C5605 1.376 . S
C5606 C5607 1.388 . S
C5607 H5594 0.930 . S
C5607 C5606 1.388 . S
C5607 C5608 1.390 . S
C5608 C5607 1.390 . S
C5608 C5609 1.394 . S
C5608 C5614 1.465 . S
C5609 C5604 1.399 . S
C5609 C5608 1.394 . S
C5609 C5610 1.516 . S
C5610 C5609 1.516 . S
C5610 C5611 1.502 . S
C5610 C5612 1.561 . S
C5610 C5613 1.526 . S
C5611 H5595 0.959 . S
C5611 H5596 0.959 . S
C5611 H5597 0.961 . S
C5611 C5610 1.502 . S
C5612 H5598 0.960 . S
C5612 H5599 0.961 . S
C5612 H5600 0.959 . S
C5612 C5610 1.561 . S
C5613 C5610 1.526 . S
C5613 C5614 1.396 . S
C5613 C5618 1.390 . S
C5614 C5608 1.465 . S
C5614 C5613 1.396 . S
C5614 C5615 1.399 . S
C5615 H5601 0.929 . S
C5615 C5614 1.399 . S
C5615 C5616 1.385 . S
C5616 H5602 0.931 . S
C5616 C5615 1.385 . S
C5616 C5617 1.389 . S
C5617 C5616 1.389 . S
C5617 C5618 1.387 . S
C5618 H5603 0.930 . S
C5618 C5613 1.390 . S
C5618 C5617 1.387 . S
H5619 C5631 0.930 . S
H5620 C5633 0.930 . S
H5621 C5634 0.930 . S
H5622 C5638 0.959 . S
H5623 C5638 0.959 . S
H5624 C5638 0.961 . S
H5625 C5639 0.960 . S
H5626 C5639 0.961 . S
H5627 C5639 0.959 . S
H5628 C5642 0.929 . S
H5629 C5643 0.931 . S
H5630 C5645 0.930 . S
C5631 H5619 0.930 . S
C5631 C5632 1.399 . S
C5631 C5636 1.399 . S
C5632 C5631 1.399 . S
C5632 C5633 1.376 . S
C5633 H5620 0.930 . S
C5633 C5632 1.376 . S
C5633 C5634 1.388 . S
C5634 H5621 0.930 . S
C5634 C5633 1.388 . S
C5634 C5635 1.390 . S
C5635 C5634 1.390 . S
C5635 C5636 1.394 . S
C5635 C5641 1.465 . S
C5636 C5631 1.399 . S
C5636 C5635 1.394 . S
C5636 C5637 1.516 . S
C5637 C5636 1.516 . S
C5637 C5638 1.502 . S
C5637 C5639 1.561 . S
C5637 C5640 1.526 . S
C5638 H5622 0.959 . S
C5638 H5623 0.959 . S
C5638 H5624 0.961 . S
C5638 C5637 1.502 . S
C5639 H5625 0.960 . S
C5639 H5626 0.961 . S
C5639 H5627 0.959 . S
C5639 C5637 1.561 . S
C5640 C5637 1.526 . S
C5640 C5641 1.396 . S
C5640 C5645 1.390 . S
C5641 C5635 1.465 . S
C5641 C5640 1.396 . S
C5641 C5642 1.399 . S
C5642 H5628 0.929 . S
C5642 C5641 1.399 . S
C5642 C5643 1.385 . S
C5643 H5629 0.931 . S
C5643 C5642 1.385 . S
C5643 C5644 1.389 . S
C5644 C5643 1.389 . S
C5644 C5645 1.387 . S
C5645 H5630 0.930 . S
C5645 C5640 1.390 . S
C5645 C5644 1.387 . S
H5646 C5658 0.930 . S
H5647 C5660 0.930 . S
H5648 C5661 0.930 . S
H5649 C5665 0.959 . S
H5650 C5665 0.959 . S
H5651 C5665 0.961 . S
H5652 C5666 0.960 . S
H5653 C5666 0.961 . S
H5654 C5666 0.959 . S
H5655 C5669 0.929 . S
H5656 C5670 0.931 . S
H5657 C5672 0.930 . S
C5658 H5646 0.930 . S
C5658 C5659 1.399 . S
C5658 C5663 1.399 . S
C5659 C5658 1.399 . S
C5659 C5660 1.376 . S
C5660 H5647 0.930 . S
C5660 C5659 1.376 . S
C5660 C5661 1.388 . S
C5661 H5648 0.930 . S
C5661 C5660 1.388 . S
C5661 C5662 1.390 . S
C5662 C5661 1.390 . S
C5662 C5663 1.394 . S
C5662 C5668 1.465 . S
C5663 C5658 1.399 . S
C5663 C5662 1.394 . S
C5663 C5664 1.516 . S
C5664 C5663 1.516 . S
C5664 C5665 1.502 . S
C5664 C5666 1.561 . S
C5664 C5667 1.526 . S
C5665 H5649 0.959 . S
C5665 H5650 0.959 . S
C5665 H5651 0.961 . S
C5665 C5664 1.502 . S
C5666 H5652 0.960 . S
C5666 H5653 0.961 . S
C5666 H5654 0.959 . S
C5666 C5664 1.561 . S
C5667 C5664 1.526 . S
C5667 C5668 1.396 . S
C5667 C5672 1.390 . S
C5668 C5662 1.465 . S
C5668 C5667 1.396 . S
C5668 C5669 1.399 . S
C5669 H5655 0.929 . S
C5669 C5668 1.399 . S
C5669 C5670 1.385 . S
C5670 H5656 0.931 . S
C5670 C5669 1.385 . S
C5670 C5671 1.389 . S
C5671 C5670 1.389 . S
C5671 C5672 1.387 . S
C5672 H5657 0.930 . S
C5672 C5667 1.390 . S
C5672 C5671 1.387 . S
H5673 C5685 0.930 . S
H5674 C5687 0.930 . S
H5675 C5688 0.930 . S
H5676 C5692 0.959 . S
H5677 C5692 0.959 . S
H5678 C5692 0.961 . S
H5679 C5693 0.960 . S
H5680 C5693 0.961 . S
H5681 C5693 0.959 . S
H5682 C5696 0.929 . S
H5683 C5697 0.931 . S
H5684 C5699 0.930 . S
C5685 H5673 0.930 . S
C5685 C5686 1.399 . S
C5685 C5690 1.399 . S
C5686 C5685 1.399 . S
C5686 C5687 1.376 . S
C5687 H5674 0.930 . S
C5687 C5686 1.376 . S
C5687 C5688 1.388 . S
C5688 H5675 0.930 . S
C5688 C5687 1.388 . S
C5688 C5689 1.390 . S
C5689 C5688 1.390 . S
C5689 C5690 1.394 . S
C5689 C5695 1.465 . S
C5690 C5685 1.399 . S
C5690 C5689 1.394 . S
C5690 C5691 1.516 . S
C5691 C5690 1.516 . S
C5691 C5692 1.502 . S
C5691 C5693 1.561 . S
C5691 C5694 1.526 . S
C5692 H5676 0.959 . S
C5692 H5677 0.959 . S
C5692 H5678 0.961 . S
C5692 C5691 1.502 . S
C5693 H5679 0.960 . S
C5693 H5680 0.961 . S
C5693 H5681 0.959 . S
C5693 C5691 1.561 . S
C5694 C5691 1.526 . S
C5694 C5695 1.396 . S
C5694 C5699 1.390 . S
C5695 C5689 1.465 . S
C5695 C5694 1.396 . S
C5695 C5696 1.399 . S
C5696 H5682 0.929 . S
C5696 C5695 1.399 . S
C5696 C5697 1.385 . S
C5697 H5683 0.931 . S
C5697 C5696 1.385 . S
C5697 C5698 1.389 . S
C5698 C5697 1.389 . S
C5698 C5699 1.387 . S
C5699 H5684 0.930 . S
C5699 C5694 1.390 . S
C5699 C5698 1.387 . S
H5700 C5712 0.930 . S
H5701 C5714 0.930 . S
H5702 C5715 0.930 . S
H5703 C5719 0.959 . S
H5704 C5719 0.959 . S
H5705 C5719 0.961 . S
H5706 C5720 0.960 . S
H5707 C5720 0.961 . S
H5708 C5720 0.959 . S
H5709 C5723 0.929 . S
H5710 C5724 0.931 . S
H5711 C5726 0.930 . S
C5712 H5700 0.930 . S
C5712 C5713 1.399 . S
C5712 C5717 1.399 . S
C5713 C5712 1.399 . S
C5713 C5714 1.376 . S
C5714 H5701 0.930 . S
C5714 C5713 1.376 . S
C5714 C5715 1.388 . S
C5715 H5702 0.930 . S
C5715 C5714 1.388 . S
C5715 C5716 1.390 . S
C5716 C5715 1.390 . S
C5716 C5717 1.394 . S
C5716 C5722 1.465 . S
C5717 C5712 1.399 . S
C5717 C5716 1.394 . S
C5717 C5718 1.516 . S
C5718 C5717 1.516 . S
C5718 C5719 1.502 . S
C5718 C5720 1.561 . S
C5718 C5721 1.526 . S
C5719 H5703 0.959 . S
C5719 H5704 0.959 . S
C5719 H5705 0.961 . S
C5719 C5718 1.502 . S
C5720 H5706 0.960 . S
C5720 H5707 0.961 . S
C5720 H5708 0.959 . S
C5720 C5718 1.561 . S
C5721 C5718 1.526 . S
C5721 C5722 1.396 . S
C5721 C5726 1.390 . S
C5722 C5716 1.465 . S
C5722 C5721 1.396 . S
C5722 C5723 1.399 . S
C5723 H5709 0.929 . S
C5723 C5722 1.399 . S
C5723 C5724 1.385 . S
C5724 H5710 0.931 . S
C5724 C5723 1.385 . S
C5724 C5725 1.389 . S
C5725 C5724 1.389 . S
C5725 C5726 1.387 . S
C5726 H5711 0.930 . S
C5726 C5721 1.390 . S
C5726 C5725 1.387 . S
H5727 C5739 0.930 . S
H5728 C5741 0.930 . S
H5729 C5742 0.930 . S
H5730 C5746 0.959 . S
H5731 C5746 0.959 . S
H5732 C5746 0.961 . S
H5733 C5747 0.960 . S
H5734 C5747 0.961 . S
H5735 C5747 0.959 . S
H5736 C5750 0.929 . S
H5737 C5751 0.931 . S
H5738 C5753 0.930 . S
C5739 H5727 0.930 . S
C5739 C5740 1.399 . S
C5739 C5744 1.399 . S
C5740 C5739 1.399 . S
C5740 C5741 1.376 . S
C5741 H5728 0.930 . S
C5741 C5740 1.376 . S
C5741 C5742 1.388 . S
C5742 H5729 0.930 . S
C5742 C5741 1.388 . S
C5742 C5743 1.390 . S
C5743 C5742 1.390 . S
C5743 C5744 1.394 . S
C5743 C5749 1.465 . S
C5744 C5739 1.399 . S
C5744 C5743 1.394 . S
C5744 C5745 1.516 . S
C5745 C5744 1.516 . S
C5745 C5746 1.502 . S
C5745 C5747 1.561 . S
C5745 C5748 1.526 . S
C5746 H5730 0.959 . S
C5746 H5731 0.959 . S
C5746 H5732 0.961 . S
C5746 C5745 1.502 . S
C5747 H5733 0.960 . S
C5747 H5734 0.961 . S
C5747 H5735 0.959 . S
C5747 C5745 1.561 . S
C5748 C5745 1.526 . S
C5748 C5749 1.396 . S
C5748 C5753 1.390 . S
C5749 C5743 1.465 . S
C5749 C5748 1.396 . S
C5749 C5750 1.399 . S
C5750 H5736 0.929 . S
C5750 C5749 1.399 . S
C5750 C5751 1.385 . S
C5751 H5737 0.931 . S
C5751 C5750 1.385 . S
C5751 C5752 1.389 . S
C5752 C5751 1.389 . S
C5752 C5753 1.387 . S
C5753 H5738 0.930 . S
C5753 C5748 1.390 . S
C5753 C5752 1.387 . S
H5754 C5766 0.930 . S
H5755 C5768 0.930 . S
H5756 C5769 0.930 . S
H5757 C5773 0.959 . S
H5758 C5773 0.959 . S
H5759 C5773 0.961 . S
H5760 C5774 0.960 . S
H5761 C5774 0.961 . S
H5762 C5774 0.959 . S
H5763 C5777 0.929 . S
H5764 C5778 0.931 . S
H5765 C5780 0.930 . S
C5766 H5754 0.930 . S
C5766 C5767 1.399 . S
C5766 C5771 1.399 . S
C5767 C5766 1.399 . S
C5767 C5768 1.376 . S
C5768 H5755 0.930 . S
C5768 C5767 1.376 . S
C5768 C5769 1.388 . S
C5769 H5756 0.930 . S
C5769 C5768 1.388 . S
C5769 C5770 1.390 . S
C5770 C5769 1.390 . S
C5770 C5771 1.394 . S
C5770 C5776 1.465 . S
C5771 C5766 1.399 . S
C5771 C5770 1.394 . S
C5771 C5772 1.516 . S
C5772 C5771 1.516 . S
C5772 C5773 1.502 . S
C5772 C5774 1.561 . S
C5772 C5775 1.526 . S
C5773 H5757 0.959 . S
C5773 H5758 0.959 . S
C5773 H5759 0.961 . S
C5773 C5772 1.502 . S
C5774 H5760 0.960 . S
C5774 H5761 0.961 . S
C5774 H5762 0.959 . S
C5774 C5772 1.561 . S
C5775 C5772 1.526 . S
C5775 C5776 1.396 . S
C5775 C5780 1.390 . S
C5776 C5770 1.465 . S
C5776 C5775 1.396 . S
C5776 C5777 1.399 . S
C5777 H5763 0.929 . S
C5777 C5776 1.399 . S
C5777 C5778 1.385 . S
C5778 H5764 0.931 . S
C5778 C5777 1.385 . S
C5778 C5779 1.389 . S
C5779 C5778 1.389 . S
C5779 C5780 1.387 . S
C5780 H5765 0.930 . S
C5780 C5775 1.390 . S
C5780 C5779 1.387 . S
H5781 C5793 0.930 . S
H5782 C5795 0.930 . S
H5783 C5796 0.930 . S
H5784 C5800 0.959 . S
H5785 C5800 0.959 . S
H5786 C5800 0.961 . S
H5787 C5801 0.960 . S
H5788 C5801 0.961 . S
H5789 C5801 0.959 . S
H5790 C5804 0.929 . S
H5791 C5805 0.931 . S
H5792 C5807 0.930 . S
C5793 H5781 0.930 . S
C5793 C5794 1.399 . S
C5793 C5798 1.399 . S
C5794 C5793 1.399 . S
C5794 C5795 1.376 . S
C5795 H5782 0.930 . S
C5795 C5794 1.376 . S
C5795 C5796 1.388 . S
C5796 H5783 0.930 . S
C5796 C5795 1.388 . S
C5796 C5797 1.390 . S
C5797 C5796 1.390 . S
C5797 C5798 1.394 . S
C5797 C5803 1.465 . S
C5798 C5793 1.399 . S
C5798 C5797 1.394 . S
C5798 C5799 1.516 . S
C5799 C5798 1.516 . S
C5799 C5800 1.502 . S
C5799 C5801 1.561 . S
C5799 C5802 1.526 . S
C5800 H5784 0.959 . S
C5800 H5785 0.959 . S
C5800 H5786 0.961 . S
C5800 C5799 1.502 . S
C5801 H5787 0.960 . S
C5801 H5788 0.961 . S
C5801 H5789 0.959 . S
C5801 C5799 1.561 . S
C5802 C5799 1.526 . S
C5802 C5803 1.396 . S
C5802 C5807 1.390 . S
C5803 C5797 1.465 . S
C5803 C5802 1.396 . S
C5803 C5804 1.399 . S
C5804 H5790 0.929 . S
C5804 C5803 1.399 . S
C5804 C5805 1.385 . S
C5805 H5791 0.931 . S
C5805 C5804 1.385 . S
C5805 C5806 1.389 . S
C5806 C5805 1.389 . S
C5806 C5807 1.387 . S
C5807 H5792 0.930 . S
C5807 C5802 1.390 . S
C5807 C5806 1.387 . S
H5808 C5820 0.930 . S
H5809 C5822 0.930 . S
H5810 C5823 0.930 . S
H5811 C5827 0.959 . S
H5812 C5827 0.959 . S
H5813 C5827 0.961 . S
H5814 C5828 0.960 . S
H5815 C5828 0.961 . S
H5816 C5828 0.959 . S
H5817 C5831 0.929 . S
H5818 C5832 0.931 . S
H5819 C5834 0.930 . S
C5820 H5808 0.930 . S
C5820 C5821 1.399 . S
C5820 C5825 1.399 . S
C5821 C5820 1.399 . S
C5821 C5822 1.376 . S
C5822 H5809 0.930 . S
C5822 C5821 1.376 . S
C5822 C5823 1.388 . S
C5823 H5810 0.930 . S
C5823 C5822 1.388 . S
C5823 C5824 1.390 . S
C5824 C5823 1.390 . S
C5824 C5825 1.394 . S
C5824 C5830 1.465 . S
C5825 C5820 1.399 . S
C5825 C5824 1.394 . S
C5825 C5826 1.516 . S
C5826 C5825 1.516 . S
C5826 C5827 1.502 . S
C5826 C5828 1.561 . S
C5826 C5829 1.526 . S
C5827 H5811 0.959 . S
C5827 H5812 0.959 . S
C5827 H5813 0.961 . S
C5827 C5826 1.502 . S
C5828 H5814 0.960 . S
C5828 H5815 0.961 . S
C5828 H5816 0.959 . S
C5828 C5826 1.561 . S
C5829 C5826 1.526 . S
C5829 C5830 1.396 . S
C5829 C5834 1.390 . S
C5830 C5824 1.465 . S
C5830 C5829 1.396 . S
C5830 C5831 1.399 . S
C5831 H5817 0.929 . S
C5831 C5830 1.399 . S
C5831 C5832 1.385 . S
C5832 H5818 0.931 . S
C5832 C5831 1.385 . S
C5832 C5833 1.389 . S
C5833 C5832 1.389 . S
C5833 C5834 1.387 . S
C5834 H5819 0.930 . S
C5834 C5829 1.390 . S
C5834 C5833 1.387 . S
H5835 C5847 0.930 . S
H5836 C5849 0.930 . S
H5837 C5850 0.930 . S
H5838 C5854 0.959 . S
H5839 C5854 0.959 . S
H5840 C5854 0.961 . S
H5841 C5855 0.960 . S
H5842 C5855 0.961 . S
H5843 C5855 0.959 . S
H5844 C5858 0.929 . S
H5845 C5859 0.931 . S
H5846 C5861 0.930 . S
C5847 H5835 0.930 . S
C5847 C5848 1.399 . S
C5847 C5852 1.399 . S
C5848 C5847 1.399 . S
C5848 C5849 1.376 . S
C5849 H5836 0.930 . S
C5849 C5848 1.376 . S
C5849 C5850 1.388 . S
C5850 H5837 0.930 . S
C5850 C5849 1.388 . S
C5850 C5851 1.390 . S
C5851 C5850 1.390 . S
C5851 C5852 1.394 . S
C5851 C5857 1.465 . S
C5852 C5847 1.399 . S
C5852 C5851 1.394 . S
C5852 C5853 1.516 . S
C5853 C5852 1.516 . S
C5853 C5854 1.502 . S
C5853 C5855 1.561 . S
C5853 C5856 1.526 . S
C5854 H5838 0.959 . S
C5854 H5839 0.959 . S
C5854 H5840 0.961 . S
C5854 C5853 1.502 . S
C5855 H5841 0.960 . S
C5855 H5842 0.961 . S
C5855 H5843 0.959 . S
C5855 C5853 1.561 . S
C5856 C5853 1.526 . S
C5856 C5857 1.396 . S
C5856 C5861 1.390 . S
C5857 C5851 1.465 . S
C5857 C5856 1.396 . S
C5857 C5858 1.399 . S
C5858 H5844 0.929 . S
C5858 C5857 1.399 . S
C5858 C5859 1.385 . S
C5859 H5845 0.931 . S
C5859 C5858 1.385 . S
C5859 C5860 1.389 . S
C5860 C5859 1.389 . S
C5860 C5861 1.387 . S
C5861 H5846 0.930 . S
C5861 C5856 1.390 . S
C5861 C5860 1.387 . S
H5862 C5874 0.930 . S
H5863 C5876 0.930 . S
H5864 C5877 0.930 . S
H5865 C5881 0.959 . S
H5866 C5881 0.959 . S
H5867 C5881 0.961 . S
H5868 C5882 0.960 . S
H5869 C5882 0.961 . S
H5870 C5882 0.959 . S
H5871 C5885 0.929 . S
H5872 C5886 0.931 . S
H5873 C5888 0.930 . S
C5874 H5862 0.930 . S
C5874 C5875 1.399 . S
C5874 C5879 1.399 . S
C5875 C5874 1.399 . S
C5875 C5876 1.376 . S
C5876 H5863 0.930 . S
C5876 C5875 1.376 . S
C5876 C5877 1.388 . S
C5877 H5864 0.930 . S
C5877 C5876 1.388 . S
C5877 C5878 1.390 . S
C5878 C5877 1.390 . S
C5878 C5879 1.394 . S
C5878 C5884 1.465 . S
C5879 C5874 1.399 . S
C5879 C5878 1.394 . S
C5879 C5880 1.516 . S
C5880 C5879 1.516 . S
C5880 C5881 1.502 . S
C5880 C5882 1.561 . S
C5880 C5883 1.526 . S
C5881 H5865 0.959 . S
C5881 H5866 0.959 . S
C5881 H5867 0.961 . S
C5881 C5880 1.502 . S
C5882 H5868 0.960 . S
C5882 H5869 0.961 . S
C5882 H5870 0.959 . S
C5882 C5880 1.561 . S
C5883 C5880 1.526 . S
C5883 C5884 1.396 . S
C5883 C5888 1.390 . S
C5884 C5878 1.465 . S
C5884 C5883 1.396 . S
C5884 C5885 1.399 . S
C5885 H5871 0.929 . S
C5885 C5884 1.399 . S
C5885 C5886 1.385 . S
C5886 H5872 0.931 . S
C5886 C5885 1.385 . S
C5886 C5887 1.389 . S
C5887 C5886 1.389 . S
C5887 C5888 1.387 . S
C5888 H5873 0.930 . S
C5888 C5883 1.390 . S
C5888 C5887 1.387 . S
H5889 C5901 0.930 . S
H5890 C5903 0.930 . S
H5891 C5904 0.930 . S
H5892 C5908 0.959 . S
H5893 C5908 0.959 . S
H5894 C5908 0.961 . S
H5895 C5909 0.960 . S
H5896 C5909 0.961 . S
H5897 C5909 0.959 . S
H5898 C5912 0.929 . S
H5899 C5913 0.931 . S
H5900 C5915 0.930 . S
C5901 H5889 0.930 . S
C5901 C5902 1.399 . S
C5901 C5906 1.399 . S
C5902 C5901 1.399 . S
C5902 C5903 1.376 . S
C5903 H5890 0.930 . S
C5903 C5902 1.376 . S
C5903 C5904 1.388 . S
C5904 H5891 0.930 . S
C5904 C5903 1.388 . S
C5904 C5905 1.390 . S
C5905 C5904 1.390 . S
C5905 C5906 1.394 . S
C5905 C5911 1.465 . S
C5906 C5901 1.399 . S
C5906 C5905 1.394 . S
C5906 C5907 1.516 . S
C5907 C5906 1.516 . S
C5907 C5908 1.502 . S
C5907 C5909 1.561 . S
C5907 C5910 1.526 . S
C5908 H5892 0.959 . S
C5908 H5893 0.959 . S
C5908 H5894 0.961 . S
C5908 C5907 1.502 . S
C5909 H5895 0.960 . S
C5909 H5896 0.961 . S
C5909 H5897 0.959 . S
C5909 C5907 1.561 . S
C5910 C5907 1.526 . S
C5910 C5911 1.396 . S
C5910 C5915 1.390 . S
C5911 C5905 1.465 . S
C5911 C5910 1.396 . S
C5911 C5912 1.399 . S
C5912 H5898 0.929 . S
C5912 C5911 1.399 . S
C5912 C5913 1.385 . S
C5913 H5899 0.931 . S
C5913 C5912 1.385 . S
C5913 C5914 1.389 . S
C5914 C5913 1.389 . S
C5914 C5915 1.387 . S
C5915 H5900 0.930 . S
C5915 C5910 1.390 . S
C5915 C5914 1.387 . S
H5916 C5928 0.930 . S
H5917 C5930 0.930 . S
H5918 C5931 0.930 . S
H5919 C5935 0.959 . S
H5920 C5935 0.959 . S
H5921 C5935 0.961 . S
H5922 C5936 0.960 . S
H5923 C5936 0.961 . S
H5924 C5936 0.959 . S
H5925 C5939 0.929 . S
H5926 C5940 0.931 . S
H5927 C5942 0.930 . S
C5928 H5916 0.930 . S
C5928 C5929 1.399 . S
C5928 C5933 1.399 . S
C5929 C5928 1.399 . S
C5929 C5930 1.376 . S
C5930 H5917 0.930 . S
C5930 C5929 1.376 . S
C5930 C5931 1.388 . S
C5931 H5918 0.930 . S
C5931 C5930 1.388 . S
C5931 C5932 1.390 . S
C5932 C5931 1.390 . S
C5932 C5933 1.394 . S
C5932 C5938 1.465 . S
C5933 C5928 1.399 . S
C5933 C5932 1.394 . S
C5933 C5934 1.516 . S
C5934 C5933 1.516 . S
C5934 C5935 1.502 . S
C5934 C5936 1.561 . S
C5934 C5937 1.526 . S
C5935 H5919 0.959 . S
C5935 H5920 0.959 . S
C5935 H5921 0.961 . S
C5935 C5934 1.502 . S
C5936 H5922 0.960 . S
C5936 H5923 0.961 . S
C5936 H5924 0.959 . S
C5936 C5934 1.561 . S
C5937 C5934 1.526 . S
C5937 C5938 1.396 . S
C5937 C5942 1.390 . S
C5938 C5932 1.465 . S
C5938 C5937 1.396 . S
C5938 C5939 1.399 . S
C5939 H5925 0.929 . S
C5939 C5938 1.399 . S
C5939 C5940 1.385 . S
C5940 H5926 0.931 . S
C5940 C5939 1.385 . S
C5940 C5941 1.389 . S
C5941 C5940 1.389 . S
C5941 C5942 1.387 . S
C5942 H5927 0.930 . S
C5942 C5937 1.390 . S
C5942 C5941 1.387 . S
H5943 C5955 0.930 . S
H5944 C5957 0.930 . S
H5945 C5958 0.930 . S
H5946 C5962 0.959 . S
H5947 C5962 0.959 . S
H5948 C5962 0.961 . S
H5949 C5963 0.960 . S
H5950 C5963 0.961 . S
H5951 C5963 0.959 . S
H5952 C5966 0.929 . S
H5953 C5967 0.931 . S
H5954 C5969 0.930 . S
C5955 H5943 0.930 . S
C5955 C5956 1.399 . S
C5955 C5960 1.399 . S
C5956 C5955 1.399 . S
C5956 C5957 1.376 . S
C5957 H5944 0.930 . S
C5957 C5956 1.376 . S
C5957 C5958 1.388 . S
C5958 H5945 0.930 . S
C5958 C5957 1.388 . S
C5958 C5959 1.390 . S
C5959 C5958 1.390 . S
C5959 C5960 1.394 . S
C5959 C5965 1.465 . S
C5960 C5955 1.399 . S
C5960 C5959 1.394 . S
C5960 C5961 1.516 . S
C5961 C5960 1.516 . S
C5961 C5962 1.502 . S
C5961 C5963 1.561 . S
C5961 C5964 1.526 . S
C5962 H5946 0.959 . S
C5962 H5947 0.959 . S
C5962 H5948 0.961 . S
C5962 C5961 1.502 . S
C5963 H5949 0.960 . S
C5963 H5950 0.961 . S
C5963 H5951 0.959 . S
C5963 C5961 1.561 . S
C5964 C5961 1.526 . S
C5964 C5965 1.396 . S
C5964 C5969 1.390 . S
C5965 C5959 1.465 . S
C5965 C5964 1.396 . S
C5965 C5966 1.399 . S
C5966 H5952 0.929 . S
C5966 C5965 1.399 . S
C5966 C5967 1.385 . S
C5967 H5953 0.931 . S
C5967 C5966 1.385 . S
C5967 C5968 1.389 . S
C5968 C5967 1.389 . S
C5968 C5969 1.387 . S
C5969 H5954 0.930 . S
C5969 C5964 1.390 . S
C5969 C5968 1.387 . S
H5970 C5982 0.930 . S
H5971 C5984 0.930 . S
H5972 C5985 0.930 . S
H5973 C5989 0.959 . S
H5974 C5989 0.959 . S
H5975 C5989 0.961 . S
H5976 C5990 0.960 . S
H5977 C5990 0.961 . S
H5978 C5990 0.959 . S
H5979 C5993 0.929 . S
H5980 C5994 0.931 . S
H5981 C5996 0.930 . S
C5982 H5970 0.930 . S
C5982 C5983 1.399 . S
C5982 C5987 1.399 . S
C5983 C5982 1.399 . S
C5983 C5984 1.376 . S
C5984 H5971 0.930 . S
C5984 C5983 1.376 . S
C5984 C5985 1.388 . S
C5985 H5972 0.930 . S
C5985 C5984 1.388 . S
C5985 C5986 1.390 . S
C5986 C5985 1.390 . S
C5986 C5987 1.394 . S
C5986 C5992 1.465 . S
C5987 C5982 1.399 . S
C5987 C5986 1.394 . S
C5987 C5988 1.516 . S
C5988 C5987 1.516 . S
C5988 C5989 1.502 . S
C5988 C5990 1.561 . S
C5988 C5991 1.526 . S
C5989 H5973 0.959 . S
C5989 H5974 0.959 . S
C5989 H5975 0.961 . S
C5989 C5988 1.502 . S
C5990 H5976 0.960 . S
C5990 H5977 0.961 . S
C5990 H5978 0.959 . S
C5990 C5988 1.561 . S
C5991 C5988 1.526 . S
C5991 C5992 1.396 . S
C5991 C5996 1.390 . S
C5992 C5986 1.465 . S
C5992 C5991 1.396 . S
C5992 C5993 1.399 . S
C5993 H5979 0.929 . S
C5993 C5992 1.399 . S
C5993 C5994 1.385 . S
C5994 H5980 0.931 . S
C5994 C5993 1.385 . S
C5994 C5995 1.389 . S
C5995 C5994 1.389 . S
C5995 C5996 1.387 . S
C5996 H5981 0.930 . S
C5996 C5991 1.390 . S
C5996 C5995 1.387 . S
H5997 C6009 0.930 . S
H5998 C6011 0.930 . S
H5999 C6012 0.930 . S
H6000 C6016 0.959 . S
H6001 C6016 0.959 . S
H6002 C6016 0.961 . S
H6003 C6017 0.960 . S
H6004 C6017 0.961 . S
H6005 C6017 0.959 . S
H6006 C6020 0.929 . S
H6007 C6021 0.931 . S
H6008 C6023 0.930 . S
C6009 H5997 0.930 . S
C6009 C6010 1.399 . S
C6009 C6014 1.399 . S
C6010 C6009 1.399 . S
C6010 C6011 1.376 . S
C6011 H5998 0.930 . S
C6011 C6010 1.376 . S
C6011 C6012 1.388 . S
C6012 H5999 0.930 . S
C6012 C6011 1.388 . S
C6012 C6013 1.390 . S
C6013 C6012 1.390 . S
C6013 C6014 1.394 . S
C6013 C6019 1.465 . S
C6014 C6009 1.399 . S
C6014 C6013 1.394 . S
C6014 C6015 1.516 . S
C6015 C6014 1.516 . S
C6015 C6016 1.502 . S
C6015 C6017 1.561 . S
C6015 C6018 1.526 . S
C6016 H6000 0.959 . S
C6016 H6001 0.959 . S
C6016 H6002 0.961 . S
C6016 C6015 1.502 . S
C6017 H6003 0.960 . S
C6017 H6004 0.961 . S
C6017 H6005 0.959 . S
C6017 C6015 1.561 . S
C6018 C6015 1.526 . S
C6018 C6019 1.396 . S
C6018 C6023 1.390 . S
C6019 C6013 1.465 . S
C6019 C6018 1.396 . S
C6019 C6020 1.399 . S
C6020 H6006 0.929 . S
C6020 C6019 1.399 . S
C6020 C6021 1.385 . S
C6021 H6007 0.931 . S
C6021 C6020 1.385 . S
C6021 C6022 1.389 . S
C6022 C6021 1.389 . S
C6022 C6023 1.387 . S
C6023 H6008 0.930 . S
C6023 C6018 1.390 . S
C6023 C6022 1.387 . S
H6024 C6036 0.930 . S
H6025 C6038 0.930 . S
H6026 C6039 0.930 . S
H6027 C6043 0.959 . S
H6028 C6043 0.959 . S
H6029 C6043 0.961 . S
H6030 C6044 0.960 . S
H6031 C6044 0.961 . S
H6032 C6044 0.959 . S
H6033 C6047 0.929 . S
H6034 C6048 0.931 . S
H6035 C6050 0.930 . S
C6036 H6024 0.930 . S
C6036 C6037 1.399 . S
C6036 C6041 1.399 . S
C6037 C6036 1.399 . S
C6037 C6038 1.376 . S
C6038 H6025 0.930 . S
C6038 C6037 1.376 . S
C6038 C6039 1.388 . S
C6039 H6026 0.930 . S
C6039 C6038 1.388 . S
C6039 C6040 1.390 . S
C6040 C6039 1.390 . S
C6040 C6041 1.394 . S
C6040 C6046 1.465 . S
C6041 C6036 1.399 . S
C6041 C6040 1.394 . S
C6041 C6042 1.516 . S
C6042 C6041 1.516 . S
C6042 C6043 1.502 . S
C6042 C6044 1.561 . S
C6042 C6045 1.526 . S
C6043 H6027 0.959 . S
C6043 H6028 0.959 . S
C6043 H6029 0.961 . S
C6043 C6042 1.502 . S
C6044 H6030 0.960 . S
C6044 H6031 0.961 . S
C6044 H6032 0.959 . S
C6044 C6042 1.561 . S
C6045 C6042 1.526 . S
C6045 C6046 1.396 . S
C6045 C6050 1.390 . S
C6046 C6040 1.465 . S
C6046 C6045 1.396 . S
C6046 C6047 1.399 . S
C6047 H6033 0.929 . S
C6047 C6046 1.399 . S
C6047 C6048 1.385 . S
C6048 H6034 0.931 . S
C6048 C6047 1.385 . S
C6048 C6049 1.389 . S
C6049 C6048 1.389 . S
C6049 C6050 1.387 . S
C6050 H6035 0.930 . S
C6050 C6045 1.390 . S
C6050 C6049 1.387 . S
H6051 C6063 0.930 . S
H6052 C6065 0.930 . S
H6053 C6066 0.930 . S
H6054 C6070 0.959 . S
H6055 C6070 0.959 . S
H6056 C6070 0.961 . S
H6057 C6071 0.960 . S
H6058 C6071 0.961 . S
H6059 C6071 0.959 . S
H6060 C6074 0.929 . S
H6061 C6075 0.931 . S
H6062 C6077 0.930 . S
C6063 H6051 0.930 . S
C6063 C6064 1.399 . S
C6063 C6068 1.399 . S
C6064 C6063 1.399 . S
C6064 C6065 1.376 . S
C6065 H6052 0.930 . S
C6065 C6064 1.376 . S
C6065 C6066 1.388 . S
C6066 H6053 0.930 . S
C6066 C6065 1.388 . S
C6066 C6067 1.390 . S
C6067 C6066 1.390 . S
C6067 C6068 1.394 . S
C6067 C6073 1.465 . S
C6068 C6063 1.399 . S
C6068 C6067 1.394 . S
C6068 C6069 1.516 . S
C6069 C6068 1.516 . S
C6069 C6070 1.502 . S
C6069 C6071 1.561 . S
C6069 C6072 1.526 . S
C6070 H6054 0.959 . S
C6070 H6055 0.959 . S
C6070 H6056 0.961 . S
C6070 C6069 1.502 . S
C6071 H6057 0.960 . S
C6071 H6058 0.961 . S
C6071 H6059 0.959 . S
C6071 C6069 1.561 . S
C6072 C6069 1.526 . S
C6072 C6073 1.396 . S
C6072 C6077 1.390 . S
C6073 C6067 1.465 . S
C6073 C6072 1.396 . S
C6073 C6074 1.399 . S
C6074 H6060 0.929 . S
C6074 C6073 1.399 . S
C6074 C6075 1.385 . S
C6075 H6061 0.931 . S
C6075 C6074 1.385 . S
C6075 C6076 1.389 . S
C6076 C6075 1.389 . S
C6076 C6077 1.387 . S
C6077 H6062 0.930 . S
C6077 C6072 1.390 . S
C6077 C6076 1.387 . S
H6078 C6090 0.930 . S
H6079 C6092 0.930 . S
H6080 C6093 0.930 . S
H6081 C6097 0.959 . S
H6082 C6097 0.959 . S
H6083 C6097 0.961 . S
H6084 C6098 0.960 . S
H6085 C6098 0.961 . S
H6086 C6098 0.959 . S
H6087 C6101 0.929 . S
H6088 C6102 0.931 . S
H6089 C6104 0.930 . S
C6090 H6078 0.930 . S
C6090 C6091 1.399 . S
C6090 C6095 1.399 . S
C6091 C6090 1.399 . S
C6091 C6092 1.376 . S
C6092 H6079 0.930 . S
C6092 C6091 1.376 . S
C6092 C6093 1.388 . S
C6093 H6080 0.930 . S
C6093 C6092 1.388 . S
C6093 C6094 1.390 . S
C6094 C6093 1.390 . S
C6094 C6095 1.394 . S
C6094 C6100 1.465 . S
C6095 C6090 1.399 . S
C6095 C6094 1.394 . S
C6095 C6096 1.516 . S
C6096 C6095 1.516 . S
C6096 C6097 1.502 . S
C6096 C6098 1.561 . S
C6096 C6099 1.526 . S
C6097 H6081 0.959 . S
C6097 H6082 0.959 . S
C6097 H6083 0.961 . S
C6097 C6096 1.502 . S
C6098 H6084 0.960 . S
C6098 H6085 0.961 . S
C6098 H6086 0.959 . S
C6098 C6096 1.561 . S
C6099 C6096 1.526 . S
C6099 C6100 1.396 . S
C6099 C6104 1.390 . S
C6100 C6094 1.465 . S
C6100 C6099 1.396 . S
C6100 C6101 1.399 . S
C6101 H6087 0.929 . S
C6101 C6100 1.399 . S
C6101 C6102 1.385 . S
C6102 H6088 0.931 . S
C6102 C6101 1.385 . S
C6102 C6103 1.389 . S
C6103 C6102 1.389 . S
C6103 C6104 1.387 . S
C6104 H6089 0.930 . S
C6104 C6099 1.390 . S
C6104 C6103 1.387 . S
H6105 C6117 0.930 . S
H6106 C6119 0.930 . S
H6107 C6120 0.930 . S
H6108 C6124 0.959 . S
H6109 C6124 0.959 . S
H6110 C6124 0.961 . S
H6111 C6125 0.960 . S
H6112 C6125 0.961 . S
H6113 C6125 0.959 . S
H6114 C6128 0.929 . S
H6115 C6129 0.931 . S
H6116 C6131 0.930 . S
C6117 H6105 0.930 . S
C6117 C6118 1.399 . S
C6117 C6122 1.399 . S
C6118 C6117 1.399 . S
C6118 C6119 1.376 . S
C6119 H6106 0.930 . S
C6119 C6118 1.376 . S
C6119 C6120 1.388 . S
C6120 H6107 0.930 . S
C6120 C6119 1.388 . S
C6120 C6121 1.390 . S
C6121 C6120 1.390 . S
C6121 C6122 1.394 . S
C6121 C6127 1.465 . S
C6122 C6117 1.399 . S
C6122 C6121 1.394 . S
C6122 C6123 1.516 . S
C6123 C6122 1.516 . S
C6123 C6124 1.502 . S
C6123 C6125 1.561 . S
C6123 C6126 1.526 . S
C6124 H6108 0.959 . S
C6124 H6109 0.959 . S
C6124 H6110 0.961 . S
C6124 C6123 1.502 . S
C6125 H6111 0.960 . S
C6125 H6112 0.961 . S
C6125 H6113 0.959 . S
C6125 C6123 1.561 . S
C6126 C6123 1.526 . S
C6126 C6127 1.396 . S
C6126 C6131 1.390 . S
C6127 C6121 1.465 . S
C6127 C6126 1.396 . S
C6127 C6128 1.399 . S
C6128 H6114 0.929 . S
C6128 C6127 1.399 . S
C6128 C6129 1.385 . S
C6129 H6115 0.931 . S
C6129 C6128 1.385 . S
C6129 C6130 1.389 . S
C6130 C6129 1.389 . S
C6130 C6131 1.387 . S
C6131 H6116 0.930 . S
C6131 C6126 1.390 . S
C6131 C6130 1.387 . S
H6132 C6144 0.930 . S
H6133 C6146 0.930 . S
H6134 C6147 0.930 . S
H6135 C6151 0.959 . S
H6136 C6151 0.959 . S
H6137 C6151 0.961 . S
H6138 C6152 0.960 . S
H6139 C6152 0.961 . S
H6140 C6152 0.959 . S
H6141 C6155 0.929 . S
H6142 C6156 0.931 . S
H6143 C6158 0.930 . S
C6144 H6132 0.930 . S
C6144 C6145 1.399 . S
C6144 C6149 1.399 . S
C6145 C6144 1.399 . S
C6145 C6146 1.376 . S
C6146 H6133 0.930 . S
C6146 C6145 1.376 . S
C6146 C6147 1.388 . S
C6147 H6134 0.930 . S
C6147 C6146 1.388 . S
C6147 C6148 1.390 . S
C6148 C6147 1.390 . S
C6148 C6149 1.394 . S
C6148 C6154 1.465 . S
C6149 C6144 1.399 . S
C6149 C6148 1.394 . S
C6149 C6150 1.516 . S
C6150 C6149 1.516 . S
C6150 C6151 1.502 . S
C6150 C6152 1.561 . S
C6150 C6153 1.526 . S
C6151 H6135 0.959 . S
C6151 H6136 0.959 . S
C6151 H6137 0.961 . S
C6151 C6150 1.502 . S
C6152 H6138 0.960 . S
C6152 H6139 0.961 . S
C6152 H6140 0.959 . S
C6152 C6150 1.561 . S
C6153 C6150 1.526 . S
C6153 C6154 1.396 . S
C6153 C6158 1.390 . S
C6154 C6148 1.465 . S
C6154 C6153 1.396 . S
C6154 C6155 1.399 . S
C6155 H6141 0.929 . S
C6155 C6154 1.399 . S
C6155 C6156 1.385 . S
C6156 H6142 0.931 . S
C6156 C6155 1.385 . S
C6156 C6157 1.389 . S
C6157 C6156 1.389 . S
C6157 C6158 1.387 . S
C6158 H6143 0.930 . S
C6158 C6153 1.390 . S
C6158 C6157 1.387 . S
H6159 C6171 0.930 . S
H6160 C6173 0.930 . S
H6161 C6174 0.930 . S
H6162 C6178 0.959 . S
H6163 C6178 0.959 . S
H6164 C6178 0.961 . S
H6165 C6179 0.960 . S
H6166 C6179 0.961 . S
H6167 C6179 0.959 . S
H6168 C6182 0.929 . S
H6169 C6183 0.931 . S
H6170 C6185 0.930 . S
C6171 H6159 0.930 . S
C6171 C6172 1.399 . S
C6171 C6176 1.399 . S
C6172 C6171 1.399 . S
C6172 C6173 1.376 . S
C6173 H6160 0.930 . S
C6173 C6172 1.376 . S
C6173 C6174 1.388 . S
C6174 H6161 0.930 . S
C6174 C6173 1.388 . S
C6174 C6175 1.390 . S
C6175 C6174 1.390 . S
C6175 C6176 1.394 . S
C6175 C6181 1.465 . S
C6176 C6171 1.399 . S
C6176 C6175 1.394 . S
C6176 C6177 1.516 . S
C6177 C6176 1.516 . S
C6177 C6178 1.502 . S
C6177 C6179 1.561 . S
C6177 C6180 1.526 . S
C6178 H6162 0.959 . S
C6178 H6163 0.959 . S
C6178 H6164 0.961 . S
C6178 C6177 1.502 . S
C6179 H6165 0.960 . S
C6179 H6166 0.961 . S
C6179 H6167 0.959 . S
C6179 C6177 1.561 . S
C6180 C6177 1.526 . S
C6180 C6181 1.396 . S
C6180 C6185 1.390 . S
C6181 C6175 1.465 . S
C6181 C6180 1.396 . S
C6181 C6182 1.399 . S
C6182 H6168 0.929 . S
C6182 C6181 1.399 . S
C6182 C6183 1.385 . S
C6183 H6169 0.931 . S
C6183 C6182 1.385 . S
C6183 C6184 1.389 . S
C6184 C6183 1.389 . S
C6184 C6185 1.387 . S
C6185 H6170 0.930 . S
C6185 C6180 1.390 . S
C6185 C6184 1.387 . S
H6186 C6198 0.930 . S
H6187 C6200 0.930 . S
H6188 C6201 0.930 . S
H6189 C6205 0.959 . S
H6190 C6205 0.959 . S
H6191 C6205 0.961 . S
H6192 C6206 0.960 . S
H6193 C6206 0.961 . S
H6194 C6206 0.959 . S
H6195 C6209 0.929 . S
H6196 C6210 0.931 . S
H6197 C6212 0.930 . S
C6198 H6186 0.930 . S
C6198 C6199 1.399 . S
C6198 C6203 1.399 . S
C6199 C6198 1.399 . S
C6199 C6200 1.376 . S
C6200 H6187 0.930 . S
C6200 C6199 1.376 . S
C6200 C6201 1.388 . S
C6201 H6188 0.930 . S
C6201 C6200 1.388 . S
C6201 C6202 1.390 . S
C6202 C6201 1.390 . S
C6202 C6203 1.394 . S
C6202 C6208 1.465 . S
C6203 C6198 1.399 . S
C6203 C6202 1.394 . S
C6203 C6204 1.516 . S
C6204 C6203 1.516 . S
C6204 C6205 1.502 . S
C6204 C6206 1.561 . S
C6204 C6207 1.526 . S
C6205 H6189 0.959 . S
C6205 H6190 0.959 . S
C6205 H6191 0.961 . S
C6205 C6204 1.502 . S
C6206 H6192 0.960 . S
C6206 H6193 0.961 . S
C6206 H6194 0.959 . S
C6206 C6204 1.561 . S
C6207 C6204 1.526 . S
C6207 C6208 1.396 . S
C6207 C6212 1.390 . S
C6208 C6202 1.465 . S
C6208 C6207 1.396 . S
C6208 C6209 1.399 . S
C6209 H6195 0.929 . S
C6209 C6208 1.399 . S
C6209 C6210 1.385 . S
C6210 H6196 0.931 . S
C6210 C6209 1.385 . S
C6210 C6211 1.389 . S
C6211 C6210 1.389 . S
C6211 C6212 1.387 . S
C6212 H6197 0.930 . S
C6212 C6207 1.390 . S
C6212 C6211 1.387 . S
H6213 C6225 0.930 . S
H6214 C6227 0.930 . S
H6215 C6228 0.930 . S
H6216 C6232 0.959 . S
H6217 C6232 0.959 . S
H6218 C6232 0.961 . S
H6219 C6233 0.960 . S
H6220 C6233 0.961 . S
H6221 C6233 0.959 . S
H6222 C6236 0.929 . S
H6223 C6237 0.931 . S
H6224 C6239 0.930 . S
C6225 H6213 0.930 . S
C6225 C6226 1.399 . S
C6225 C6230 1.399 . S
C6226 C6225 1.399 . S
C6226 C6227 1.376 . S
C6227 H6214 0.930 . S
C6227 C6226 1.376 . S
C6227 C6228 1.388 . S
C6228 H6215 0.930 . S
C6228 C6227 1.388 . S
C6228 C6229 1.390 . S
C6229 C6228 1.390 . S
C6229 C6230 1.394 . S
C6229 C6235 1.465 . S
C6230 C6225 1.399 . S
C6230 C6229 1.394 . S
C6230 C6231 1.516 . S
C6231 C6230 1.516 . S
C6231 C6232 1.502 . S
C6231 C6233 1.561 . S
C6231 C6234 1.526 . S
C6232 H6216 0.959 . S
C6232 H6217 0.959 . S
C6232 H6218 0.961 . S
C6232 C6231 1.502 . S
C6233 H6219 0.960 . S
C6233 H6220 0.961 . S
C6233 H6221 0.959 . S
C6233 C6231 1.561 . S
C6234 C6231 1.526 . S
C6234 C6235 1.396 . S
C6234 C6239 1.390 . S
C6235 C6229 1.465 . S
C6235 C6234 1.396 . S
C6235 C6236 1.399 . S
C6236 H6222 0.929 . S
C6236 C6235 1.399 . S
C6236 C6237 1.385 . S
C6237 H6223 0.931 . S
C6237 C6236 1.385 . S
C6237 C6238 1.389 . S
C6238 C6237 1.389 . S
C6238 C6239 1.387 . S
C6239 H6224 0.930 . S
C6239 C6234 1.390 . S
C6239 C6238 1.387 . S
H6240 C6252 0.930 . S
H6241 C6254 0.930 . S
H6242 C6255 0.930 . S
H6243 C6259 0.959 . S
H6244 C6259 0.959 . S
H6245 C6259 0.961 . S
H6246 C6260 0.960 . S
H6247 C6260 0.961 . S
H6248 C6260 0.959 . S
H6249 C6263 0.929 . S
H6250 C6264 0.931 . S
H6251 C6266 0.930 . S
C6252 H6240 0.930 . S
C6252 C6253 1.399 . S
C6252 C6257 1.399 . S
C6253 C6252 1.399 . S
C6253 C6254 1.376 . S
C6254 H6241 0.930 . S
C6254 C6253 1.376 . S
C6254 C6255 1.388 . S
C6255 H6242 0.930 . S
C6255 C6254 1.388 . S
C6255 C6256 1.390 . S
C6256 C6255 1.390 . S
C6256 C6257 1.394 . S
C6256 C6262 1.465 . S
C6257 C6252 1.399 . S
C6257 C6256 1.394 . S
C6257 C6258 1.516 . S
C6258 C6257 1.516 . S
C6258 C6259 1.502 . S
C6258 C6260 1.561 . S
C6258 C6261 1.526 . S
C6259 H6243 0.959 . S
C6259 H6244 0.959 . S
C6259 H6245 0.961 . S
C6259 C6258 1.502 . S
C6260 H6246 0.960 . S
C6260 H6247 0.961 . S
C6260 H6248 0.959 . S
C6260 C6258 1.561 . S
C6261 C6258 1.526 . S
C6261 C6262 1.396 . S
C6261 C6266 1.390 . S
C6262 C6256 1.465 . S
C6262 C6261 1.396 . S
C6262 C6263 1.399 . S
C6263 H6249 0.929 . S
C6263 C6262 1.399 . S
C6263 C6264 1.385 . S
C6264 H6250 0.931 . S
C6264 C6263 1.385 . S
C6264 C6265 1.389 . S
C6265 C6264 1.389 . S
C6265 C6266 1.387 . S
C6266 H6251 0.930 . S
C6266 C6261 1.390 . S
C6266 C6265 1.387 . S
H6267 C6279 0.930 . S
H6268 C6281 0.930 . S
H6269 C6282 0.930 . S
H6270 C6286 0.959 . S
H6271 C6286 0.959 . S
H6272 C6286 0.961 . S
H6273 C6287 0.960 . S
H6274 C6287 0.961 . S
H6275 C6287 0.959 . S
H6276 C6290 0.929 . S
H6277 C6291 0.931 . S
H6278 C6293 0.930 . S
C6279 H6267 0.930 . S
C6279 C6280 1.399 . S
C6279 C6284 1.399 . S
C6280 C6279 1.399 . S
C6280 C6281 1.376 . S
C6281 H6268 0.930 . S
C6281 C6280 1.376 . S
C6281 C6282 1.388 . S
C6282 H6269 0.930 . S
C6282 C6281 1.388 . S
C6282 C6283 1.390 . S
C6283 C6282 1.390 . S
C6283 C6284 1.394 . S
C6283 C6289 1.465 . S
C6284 C6279 1.399 . S
C6284 C6283 1.394 . S
C6284 C6285 1.516 . S
C6285 C6284 1.516 . S
C6285 C6286 1.502 . S
C6285 C6287 1.561 . S
C6285 C6288 1.526 . S
C6286 H6270 0.959 . S
C6286 H6271 0.959 . S
C6286 H6272 0.961 . S
C6286 C6285 1.502 . S
C6287 H6273 0.960 . S
C6287 H6274 0.961 . S
C6287 H6275 0.959 . S
C6287 C6285 1.561 . S
C6288 C6285 1.526 . S
C6288 C6289 1.396 . S
C6288 C6293 1.390 . S
C6289 C6283 1.465 . S
C6289 C6288 1.396 . S
C6289 C6290 1.399 . S
C6290 H6276 0.929 . S
C6290 C6289 1.399 . S
C6290 C6291 1.385 . S
C6291 H6277 0.931 . S
C6291 C6290 1.385 . S
C6291 C6292 1.389 . S
C6292 C6291 1.389 . S
C6292 C6293 1.387 . S
C6293 H6278 0.930 . S
C6293 C6288 1.390 . S
C6293 C6292 1.387 . S
H6294 C6306 0.930 . S
H6295 C6308 0.930 . S
H6296 C6309 0.930 . S
H6297 C6313 0.959 . S
H6298 C6313 0.959 . S
H6299 C6313 0.961 . S
H6300 C6314 0.960 . S
H6301 C6314 0.961 . S
H6302 C6314 0.959 . S
H6303 C6317 0.929 . S
H6304 C6318 0.931 . S
H6305 C6320 0.930 . S
C6306 H6294 0.930 . S
C6306 C6307 1.399 . S
C6306 C6311 1.399 . S
C6307 C6306 1.399 . S
C6307 C6308 1.376 . S
C6308 H6295 0.930 . S
C6308 C6307 1.376 . S
C6308 C6309 1.388 . S
C6309 H6296 0.930 . S
C6309 C6308 1.388 . S
C6309 C6310 1.390 . S
C6310 C6309 1.390 . S
C6310 C6311 1.394 . S
C6310 C6316 1.465 . S
C6311 C6306 1.399 . S
C6311 C6310 1.394 . S
C6311 C6312 1.516 . S
C6312 C6311 1.516 . S
C6312 C6313 1.502 . S
C6312 C6314 1.561 . S
C6312 C6315 1.526 . S
C6313 H6297 0.959 . S
C6313 H6298 0.959 . S
C6313 H6299 0.961 . S
C6313 C6312 1.502 . S
C6314 H6300 0.960 . S
C6314 H6301 0.961 . S
C6314 H6302 0.959 . S
C6314 C6312 1.561 . S
C6315 C6312 1.526 . S
C6315 C6316 1.396 . S
C6315 C6320 1.390 . S
C6316 C6310 1.465 . S
C6316 C6315 1.396 . S
C6316 C6317 1.399 . S
C6317 H6303 0.929 . S
C6317 C6316 1.399 . S
C6317 C6318 1.385 . S
C6318 H6304 0.931 . S
C6318 C6317 1.385 . S
C6318 C6319 1.389 . S
C6319 C6318 1.389 . S
C6319 C6320 1.387 . S
C6320 H6305 0.930 . S
C6320 C6315 1.390 . S
C6320 C6319 1.387 . S
H6321 C6333 0.930 . S
H6322 C6335 0.930 . S
H6323 C6336 0.930 . S
H6324 C6340 0.959 . S
H6325 C6340 0.959 . S
H6326 C6340 0.961 . S
H6327 C6341 0.960 . S
H6328 C6341 0.961 . S
H6329 C6341 0.959 . S
H6330 C6344 0.929 . S
H6331 C6345 0.931 . S
H6332 C6347 0.930 . S
C6333 H6321 0.930 . S
C6333 C6334 1.399 . S
C6333 C6338 1.399 . S
C6334 C6333 1.399 . S
C6334 C6335 1.376 . S
C6335 H6322 0.930 . S
C6335 C6334 1.376 . S
C6335 C6336 1.388 . S
C6336 H6323 0.930 . S
C6336 C6335 1.388 . S
C6336 C6337 1.390 . S
C6337 C6336 1.390 . S
C6337 C6338 1.394 . S
C6337 C6343 1.465 . S
C6338 C6333 1.399 . S
C6338 C6337 1.394 . S
C6338 C6339 1.516 . S
C6339 C6338 1.516 . S
C6339 C6340 1.502 . S
C6339 C6341 1.561 . S
C6339 C6342 1.526 . S
C6340 H6324 0.959 . S
C6340 H6325 0.959 . S
C6340 H6326 0.961 . S
C6340 C6339 1.502 . S
C6341 H6327 0.960 . S
C6341 H6328 0.961 . S
C6341 H6329 0.959 . S
C6341 C6339 1.561 . S
C6342 C6339 1.526 . S
C6342 C6343 1.396 . S
C6342 C6347 1.390 . S
C6343 C6337 1.465 . S
C6343 C6342 1.396 . S
C6343 C6344 1.399 . S
C6344 H6330 0.929 . S
C6344 C6343 1.399 . S
C6344 C6345 1.385 . S
C6345 H6331 0.931 . S
C6345 C6344 1.385 . S
C6345 C6346 1.389 . S
C6346 C6345 1.389 . S
C6346 C6347 1.387 . S
C6347 H6332 0.930 . S
C6347 C6342 1.390 . S
C6347 C6346 1.387 . S
H6348 C6360 0.930 . S
H6349 C6362 0.930 . S
H6350 C6363 0.930 . S
H6351 C6367 0.959 . S
H6352 C6367 0.959 . S
H6353 C6367 0.961 . S
H6354 C6368 0.960 . S
H6355 C6368 0.961 . S
H6356 C6368 0.959 . S
H6357 C6371 0.929 . S
H6358 C6372 0.931 . S
H6359 C6374 0.930 . S
C6360 H6348 0.930 . S
C6360 C6361 1.399 . S
C6360 C6365 1.399 . S
C6361 C6360 1.399 . S
C6361 C6362 1.376 . S
C6362 H6349 0.930 . S
C6362 C6361 1.376 . S
C6362 C6363 1.388 . S
C6363 H6350 0.930 . S
C6363 C6362 1.388 . S
C6363 C6364 1.390 . S
C6364 C6363 1.390 . S
C6364 C6365 1.394 . S
C6364 C6370 1.465 . S
C6365 C6360 1.399 . S
C6365 C6364 1.394 . S
C6365 C6366 1.516 . S
C6366 C6365 1.516 . S
C6366 C6367 1.502 . S
C6366 C6368 1.561 . S
C6366 C6369 1.526 . S
C6367 H6351 0.959 . S
C6367 H6352 0.959 . S
C6367 H6353 0.961 . S
C6367 C6366 1.502 . S
C6368 H6354 0.960 . S
C6368 H6355 0.961 . S
C6368 H6356 0.959 . S
C6368 C6366 1.561 . S
C6369 C6366 1.526 . S
C6369 C6370 1.396 . S
C6369 C6374 1.390 . S
C6370 C6364 1.465 . S
C6370 C6369 1.396 . S
C6370 C6371 1.399 . S
C6371 H6357 0.929 . S
C6371 C6370 1.399 . S
C6371 C6372 1.385 . S
C6372 H6358 0.931 . S
C6372 C6371 1.385 . S
C6372 C6373 1.389 . S
C6373 C6372 1.389 . S
C6373 C6374 1.387 . S
C6374 H6359 0.930 . S
C6374 C6369 1.390 . S
C6374 C6373 1.387 . S
H6375 C6387 0.930 . S
H6376 C6389 0.930 . S
H6377 C6390 0.930 . S
H6378 C6394 0.959 . S
H6379 C6394 0.959 . S
H6380 C6394 0.961 . S
H6381 C6395 0.960 . S
H6382 C6395 0.961 . S
H6383 C6395 0.959 . S
H6384 C6398 0.929 . S
H6385 C6399 0.931 . S
H6386 C6401 0.930 . S
C6387 H6375 0.930 . S
C6387 C6388 1.399 . S
C6387 C6392 1.399 . S
C6388 C6387 1.399 . S
C6388 C6389 1.376 . S
C6389 H6376 0.930 . S
C6389 C6388 1.376 . S
C6389 C6390 1.388 . S
C6390 H6377 0.930 . S
C6390 C6389 1.388 . S
C6390 C6391 1.390 . S
C6391 C6390 1.390 . S
C6391 C6392 1.394 . S
C6391 C6397 1.465 . S
C6392 C6387 1.399 . S
C6392 C6391 1.394 . S
C6392 C6393 1.516 . S
C6393 C6392 1.516 . S
C6393 C6394 1.502 . S
C6393 C6395 1.561 . S
C6393 C6396 1.526 . S
C6394 H6378 0.959 . S
C6394 H6379 0.959 . S
C6394 H6380 0.961 . S
C6394 C6393 1.502 . S
C6395 H6381 0.960 . S
C6395 H6382 0.961 . S
C6395 H6383 0.959 . S
C6395 C6393 1.561 . S
C6396 C6393 1.526 . S
C6396 C6397 1.396 . S
C6396 C6401 1.390 . S
C6397 C6391 1.465 . S
C6397 C6396 1.396 . S
C6397 C6398 1.399 . S
C6398 H6384 0.929 . S
C6398 C6397 1.399 . S
C6398 C6399 1.385 . S
C6399 H6385 0.931 . S
C6399 C6398 1.385 . S
C6399 C6400 1.389 . S
C6400 C6399 1.389 . S
C6400 C6401 1.387 . S
C6401 H6386 0.930 . S
C6401 C6396 1.390 . S
C6401 C6400 1.387 . S
H6402 C6414 0.930 . S
H6403 C6416 0.930 . S
H6404 C6417 0.930 . S
H6405 C6421 0.959 . S
H6406 C6421 0.959 . S
H6407 C6421 0.961 . S
H6408 C6422 0.960 . S
H6409 C6422 0.961 . S
H6410 C6422 0.959 . S
H6411 C6425 0.929 . S
H6412 C6426 0.931 . S
H6413 C6428 0.930 . S
C6414 H6402 0.930 . S
C6414 C6415 1.399 . S
C6414 C6419 1.399 . S
C6415 C6414 1.399 . S
C6415 C6416 1.376 . S
C6416 H6403 0.930 . S
C6416 C6415 1.376 . S
C6416 C6417 1.388 . S
C6417 H6404 0.930 . S
C6417 C6416 1.388 . S
C6417 C6418 1.390 . S
C6418 C6417 1.390 . S
C6418 C6419 1.394 . S
C6418 C6424 1.465 . S
C6419 C6414 1.399 . S
C6419 C6418 1.394 . S
C6419 C6420 1.516 . S
C6420 C6419 1.516 . S
C6420 C6421 1.502 . S
C6420 C6422 1.561 . S
C6420 C6423 1.526 . S
C6421 H6405 0.959 . S
C6421 H6406 0.959 . S
C6421 H6407 0.961 . S
C6421 C6420 1.502 . S
C6422 H6408 0.960 . S
C6422 H6409 0.961 . S
C6422 H6410 0.959 . S
C6422 C6420 1.561 . S
C6423 C6420 1.526 . S
C6423 C6424 1.396 . S
C6423 C6428 1.390 . S
C6424 C6418 1.465 . S
C6424 C6423 1.396 . S
C6424 C6425 1.399 . S
C6425 H6411 0.929 . S
C6425 C6424 1.399 . S
C6425 C6426 1.385 . S
C6426 H6412 0.931 . S
C6426 C6425 1.385 . S
C6426 C6427 1.389 . S
C6427 C6426 1.389 . S
C6427 C6428 1.387 . S
C6428 H6413 0.930 . S
C6428 C6423 1.390 . S
C6428 C6427 1.387 . S
H6429 C6441 0.930 . S
H6430 C6443 0.930 . S
H6431 C6444 0.930 . S
H6432 C6448 0.959 . S
H6433 C6448 0.959 . S
H6434 C6448 0.961 . S
H6435 C6449 0.960 . S
H6436 C6449 0.961 . S
H6437 C6449 0.959 . S
H6438 C6452 0.929 . S
H6439 C6453 0.931 . S
H6440 C6455 0.930 . S
C6441 H6429 0.930 . S
C6441 C6442 1.399 . S
C6441 C6446 1.399 . S
C6442 C6441 1.399 . S
C6442 C6443 1.376 . S
C6443 H6430 0.930 . S
C6443 C6442 1.376 . S
C6443 C6444 1.388 . S
C6444 H6431 0.930 . S
C6444 C6443 1.388 . S
C6444 C6445 1.390 . S
C6445 C6444 1.390 . S
C6445 C6446 1.394 . S
C6445 C6451 1.465 . S
C6446 C6441 1.399 . S
C6446 C6445 1.394 . S
C6446 C6447 1.516 . S
C6447 C6446 1.516 . S
C6447 C6448 1.502 . S
C6447 C6449 1.561 . S
C6447 C6450 1.526 . S
C6448 H6432 0.959 . S
C6448 H6433 0.959 . S
C6448 H6434 0.961 . S
C6448 C6447 1.502 . S
C6449 H6435 0.960 . S
C6449 H6436 0.961 . S
C6449 H6437 0.959 . S
C6449 C6447 1.561 . S
C6450 C6447 1.526 . S
C6450 C6451 1.396 . S
C6450 C6455 1.390 . S
C6451 C6445 1.465 . S
C6451 C6450 1.396 . S
C6451 C6452 1.399 . S
C6452 H6438 0.929 . S
C6452 C6451 1.399 . S
C6452 C6453 1.385 . S
C6453 H6439 0.931 . S
C6453 C6452 1.385 . S
C6453 C6454 1.389 . S
C6454 C6453 1.389 . S
C6454 C6455 1.387 . S
C6455 H6440 0.930 . S
C6455 C6450 1.390 . S
C6455 C6454 1.387 . S
H6456 C6468 0.930 . S
H6457 C6470 0.930 . S
H6458 C6471 0.930 . S
H6459 C6475 0.959 . S
H6460 C6475 0.959 . S
H6461 C6475 0.961 . S
H6462 C6476 0.960 . S
H6463 C6476 0.961 . S
H6464 C6476 0.959 . S
H6465 C6479 0.929 . S
H6466 C6480 0.931 . S
H6467 C6482 0.930 . S
C6468 H6456 0.930 . S
C6468 C6469 1.399 . S
C6468 C6473 1.399 . S
C6469 C6468 1.399 . S
C6469 C6470 1.376 . S
C6470 H6457 0.930 . S
C6470 C6469 1.376 . S
C6470 C6471 1.388 . S
C6471 H6458 0.930 . S
C6471 C6470 1.388 . S
C6471 C6472 1.390 . S
C6472 C6471 1.390 . S
C6472 C6473 1.394 . S
C6472 C6478 1.465 . S
C6473 C6468 1.399 . S
C6473 C6472 1.394 . S
C6473 C6474 1.516 . S
C6474 C6473 1.516 . S
C6474 C6475 1.502 . S
C6474 C6476 1.561 . S
C6474 C6477 1.526 . S
C6475 H6459 0.959 . S
C6475 H6460 0.959 . S
C6475 H6461 0.961 . S
C6475 C6474 1.502 . S
C6476 H6462 0.960 . S
C6476 H6463 0.961 . S
C6476 H6464 0.959 . S
C6476 C6474 1.561 . S
C6477 C6474 1.526 . S
C6477 C6478 1.396 . S
C6477 C6482 1.390 . S
C6478 C6472 1.465 . S
C6478 C6477 1.396 . S
C6478 C6479 1.399 . S
C6479 H6465 0.929 . S
C6479 C6478 1.399 . S
C6479 C6480 1.385 . S
C6480 H6466 0.931 . S
C6480 C6479 1.385 . S
C6480 C6481 1.389 . S
C6481 C6480 1.389 . S
C6481 C6482 1.387 . S
C6482 H6467 0.930 . S
C6482 C6477 1.390 . S
C6482 C6481 1.387 . S
H6483 C6495 0.930 . S
H6484 C6497 0.930 . S
H6485 C6498 0.930 . S
H6486 C6502 0.959 . S
H6487 C6502 0.959 . S
H6488 C6502 0.961 . S
H6489 C6503 0.960 . S
H6490 C6503 0.961 . S
H6491 C6503 0.959 . S
H6492 C6506 0.929 . S
H6493 C6507 0.931 . S
H6494 C6509 0.930 . S
C6495 H6483 0.930 . S
C6495 C6496 1.399 . S
C6495 C6500 1.399 . S
C6496 C6495 1.399 . S
C6496 C6497 1.376 . S
C6497 H6484 0.930 . S
C6497 C6496 1.376 . S
C6497 C6498 1.388 . S
C6498 H6485 0.930 . S
C6498 C6497 1.388 . S
C6498 C6499 1.390 . S
C6499 C6498 1.390 . S
C6499 C6500 1.394 . S
C6499 C6505 1.465 . S
C6500 C6495 1.399 . S
C6500 C6499 1.394 . S
C6500 C6501 1.516 . S
C6501 C6500 1.516 . S
C6501 C6502 1.502 . S
C6501 C6503 1.561 . S
C6501 C6504 1.526 . S
C6502 H6486 0.959 . S
C6502 H6487 0.959 . S
C6502 H6488 0.961 . S
C6502 C6501 1.502 . S
C6503 H6489 0.960 . S
C6503 H6490 0.961 . S
C6503 H6491 0.959 . S
C6503 C6501 1.561 . S
C6504 C6501 1.526 . S
C6504 C6505 1.396 . S
C6504 C6509 1.390 . S
C6505 C6499 1.465 . S
C6505 C6504 1.396 . S
C6505 C6506 1.399 . S
C6506 H6492 0.929 . S
C6506 C6505 1.399 . S
C6506 C6507 1.385 . S
C6507 H6493 0.931 . S
C6507 C6506 1.385 . S
C6507 C6508 1.389 . S
C6508 C6507 1.389 . S
C6508 C6509 1.387 . S
C6509 H6494 0.930 . S
C6509 C6504 1.390 . S
C6509 C6508 1.387 . S
H6510 C6522 0.930 . S
H6511 C6524 0.930 . S
H6512 C6525 0.930 . S
H6513 C6529 0.959 . S
H6514 C6529 0.959 . S
H6515 C6529 0.961 . S
H6516 C6530 0.960 . S
H6517 C6530 0.961 . S
H6518 C6530 0.959 . S
H6519 C6533 0.929 . S
H6520 C6534 0.931 . S
H6521 C6536 0.930 . S
C6522 H6510 0.930 . S
C6522 C6523 1.399 . S
C6522 C6527 1.399 . S
C6523 C6522 1.399 . S
C6523 C6524 1.376 . S
C6524 H6511 0.930 . S
C6524 C6523 1.376 . S
C6524 C6525 1.388 . S
C6525 H6512 0.930 . S
C6525 C6524 1.388 . S
C6525 C6526 1.390 . S
C6526 C6525 1.390 . S
C6526 C6527 1.394 . S
C6526 C6532 1.465 . S
C6527 C6522 1.399 . S
C6527 C6526 1.394 . S
C6527 C6528 1.516 . S
C6528 C6527 1.516 . S
C6528 C6529 1.502 . S
C6528 C6530 1.561 . S
C6528 C6531 1.526 . S
C6529 H6513 0.959 . S
C6529 H6514 0.959 . S
C6529 H6515 0.961 . S
C6529 C6528 1.502 . S
C6530 H6516 0.960 . S
C6530 H6517 0.961 . S
C6530 H6518 0.959 . S
C6530 C6528 1.561 . S
C6531 C6528 1.526 . S
C6531 C6532 1.396 . S
C6531 C6536 1.390 . S
C6532 C6526 1.465 . S
C6532 C6531 1.396 . S
C6532 C6533 1.399 . S
C6533 H6519 0.929 . S
C6533 C6532 1.399 . S
C6533 C6534 1.385 . S
C6534 H6520 0.931 . S
C6534 C6533 1.385 . S
C6534 C6535 1.389 . S
C6535 C6534 1.389 . S
C6535 C6536 1.387 . S
C6536 H6521 0.930 . S
C6536 C6531 1.390 . S
C6536 C6535 1.387 . S
H6537 C6549 0.930 . S
H6538 C6551 0.930 . S
H6539 C6552 0.930 . S
H6540 C6556 0.959 . S
H6541 C6556 0.959 . S
H6542 C6556 0.961 . S
H6543 C6557 0.960 . S
H6544 C6557 0.961 . S
H6545 C6557 0.959 . S
H6546 C6560 0.929 . S
H6547 C6561 0.931 . S
H6548 C6563 0.930 . S
C6549 H6537 0.930 . S
C6549 C6550 1.399 . S
C6549 C6554 1.399 . S
C6550 C6549 1.399 . S
C6550 C6551 1.376 . S
C6551 H6538 0.930 . S
C6551 C6550 1.376 . S
C6551 C6552 1.388 . S
C6552 H6539 0.930 . S
C6552 C6551 1.388 . S
C6552 C6553 1.390 . S
C6553 C6552 1.390 . S
C6553 C6554 1.394 . S
C6553 C6559 1.465 . S
C6554 C6549 1.399 . S
C6554 C6553 1.394 . S
C6554 C6555 1.516 . S
C6555 C6554 1.516 . S
C6555 C6556 1.502 . S
C6555 C6557 1.561 . S
C6555 C6558 1.526 . S
C6556 H6540 0.959 . S
C6556 H6541 0.959 . S
C6556 H6542 0.961 . S
C6556 C6555 1.502 . S
C6557 H6543 0.960 . S
C6557 H6544 0.961 . S
C6557 H6545 0.959 . S
C6557 C6555 1.561 . S
C6558 C6555 1.526 . S
C6558 C6559 1.396 . S
C6558 C6563 1.390 . S
C6559 C6553 1.465 . S
C6559 C6558 1.396 . S
C6559 C6560 1.399 . S
C6560 H6546 0.929 . S
C6560 C6559 1.399 . S
C6560 C6561 1.385 . S
C6561 H6547 0.931 . S
C6561 C6560 1.385 . S
C6561 C6562 1.389 . S
C6562 C6561 1.389 . S
C6562 C6563 1.387 . S
C6563 H6548 0.930 . S
C6563 C6558 1.390 . S
C6563 C6562 1.387 . S
H6564 C6576 0.930 . S
H6565 C6578 0.930 . S
H6566 C6579 0.930 . S
H6567 C6583 0.959 . S
H6568 C6583 0.959 . S
H6569 C6583 0.961 . S
H6570 C6584 0.960 . S
H6571 C6584 0.961 . S
H6572 C6584 0.959 . S
H6573 C6587 0.929 . S
H6574 C6588 0.931 . S
H6575 C6590 0.930 . S
C6576 H6564 0.930 . S
C6576 C6577 1.399 . S
C6576 C6581 1.399 . S
C6577 C6576 1.399 . S
C6577 C6578 1.376 . S
C6578 H6565 0.930 . S
C6578 C6577 1.376 . S
C6578 C6579 1.388 . S
C6579 H6566 0.930 . S
C6579 C6578 1.388 . S
C6579 C6580 1.390 . S
C6580 C6579 1.390 . S
C6580 C6581 1.394 . S
C6580 C6586 1.465 . S
C6581 C6576 1.399 . S
C6581 C6580 1.394 . S
C6581 C6582 1.516 . S
C6582 C6581 1.516 . S
C6582 C6583 1.502 . S
C6582 C6584 1.561 . S
C6582 C6585 1.526 . S
C6583 H6567 0.959 . S
C6583 H6568 0.959 . S
C6583 H6569 0.961 . S
C6583 C6582 1.502 . S
C6584 H6570 0.960 . S
C6584 H6571 0.961 . S
C6584 H6572 0.959 . S
C6584 C6582 1.561 . S
C6585 C6582 1.526 . S
C6585 C6586 1.396 . S
C6585 C6590 1.390 . S
C6586 C6580 1.465 . S
C6586 C6585 1.396 . S
C6586 C6587 1.399 . S
C6587 H6573 0.929 . S
C6587 C6586 1.399 . S
C6587 C6588 1.385 . S
C6588 H6574 0.931 . S
C6588 C6587 1.385 . S
C6588 C6589 1.389 . S
C6589 C6588 1.389 . S
C6589 C6590 1.387 . S
C6590 H6575 0.930 . S
C6590 C6585 1.390 . S
C6590 C6589 1.387 . S
H6591 C6603 0.930 . S
H6592 C6605 0.930 . S
H6593 C6606 0.930 . S
H6594 C6610 0.959 . S
H6595 C6610 0.959 . S
H6596 C6610 0.961 . S
H6597 C6611 0.960 . S
H6598 C6611 0.961 . S
H6599 C6611 0.959 . S
H6600 C6614 0.929 . S
H6601 C6615 0.931 . S
H6602 C6617 0.930 . S
C6603 H6591 0.930 . S
C6603 C6604 1.399 . S
C6603 C6608 1.399 . S
C6604 C6603 1.399 . S
C6604 C6605 1.376 . S
C6605 H6592 0.930 . S
C6605 C6604 1.376 . S
C6605 C6606 1.388 . S
C6606 H6593 0.930 . S
C6606 C6605 1.388 . S
C6606 C6607 1.390 . S
C6607 C6606 1.390 . S
C6607 C6608 1.394 . S
C6607 C6613 1.465 . S
C6608 C6603 1.399 . S
C6608 C6607 1.394 . S
C6608 C6609 1.516 . S
C6609 C6608 1.516 . S
C6609 C6610 1.502 . S
C6609 C6611 1.561 . S
C6609 C6612 1.526 . S
C6610 H6594 0.959 . S
C6610 H6595 0.959 . S
C6610 H6596 0.961 . S
C6610 C6609 1.502 . S
C6611 H6597 0.960 . S
C6611 H6598 0.961 . S
C6611 H6599 0.959 . S
C6611 C6609 1.561 . S
C6612 C6609 1.526 . S
C6612 C6613 1.396 . S
C6612 C6617 1.390 . S
C6613 C6607 1.465 . S
C6613 C6612 1.396 . S
C6613 C6614 1.399 . S
C6614 H6600 0.929 . S
C6614 C6613 1.399 . S
C6614 C6615 1.385 . S
C6615 H6601 0.931 . S
C6615 C6614 1.385 . S
C6615 C6616 1.389 . S
C6616 C6615 1.389 . S
C6616 C6617 1.387 . S
C6617 H6602 0.930 . S
C6617 C6612 1.390 . S
C6617 C6616 1.387 . S
H6618 C6630 0.930 . S
H6619 C6632 0.930 . S
H6620 C6633 0.930 . S
H6621 C6637 0.959 . S
H6622 C6637 0.959 . S
H6623 C6637 0.961 . S
H6624 C6638 0.960 . S
H6625 C6638 0.961 . S
H6626 C6638 0.959 . S
H6627 C6641 0.929 . S
H6628 C6642 0.931 . S
H6629 C6644 0.930 . S
C6630 H6618 0.930 . S
C6630 C6631 1.399 . S
C6630 C6635 1.399 . S
C6631 C6630 1.399 . S
C6631 C6632 1.376 . S
C6632 H6619 0.930 . S
C6632 C6631 1.376 . S
C6632 C6633 1.388 . S
C6633 H6620 0.930 . S
C6633 C6632 1.388 . S
C6633 C6634 1.390 . S
C6634 C6633 1.390 . S
C6634 C6635 1.394 . S
C6634 C6640 1.465 . S
C6635 C6630 1.399 . S
C6635 C6634 1.394 . S
C6635 C6636 1.516 . S
C6636 C6635 1.516 . S
C6636 C6637 1.502 . S
C6636 C6638 1.561 . S
C6636 C6639 1.526 . S
C6637 H6621 0.959 . S
C6637 H6622 0.959 . S
C6637 H6623 0.961 . S
C6637 C6636 1.502 . S
C6638 H6624 0.960 . S
C6638 H6625 0.961 . S
C6638 H6626 0.959 . S
C6638 C6636 1.561 . S
C6639 C6636 1.526 . S
C6639 C6640 1.396 . S
C6639 C6644 1.390 . S
C6640 C6634 1.465 . S
C6640 C6639 1.396 . S
C6640 C6641 1.399 . S
C6641 H6627 0.929 . S
C6641 C6640 1.399 . S
C6641 C6642 1.385 . S
C6642 H6628 0.931 . S
C6642 C6641 1.385 . S
C6642 C6643 1.389 . S
C6643 C6642 1.389 . S
C6643 C6644 1.387 . S
C6644 H6629 0.930 . S
C6644 C6639 1.390 . S
C6644 C6643 1.387 . S
H6645 C6657 0.930 . S
H6646 C6659 0.930 . S
H6647 C6660 0.930 . S
H6648 C6664 0.959 . S
H6649 C6664 0.959 . S
H6650 C6664 0.961 . S
H6651 C6665 0.960 . S
H6652 C6665 0.961 . S
H6653 C6665 0.959 . S
H6654 C6668 0.929 . S
H6655 C6669 0.931 . S
H6656 C6671 0.930 . S
C6657 H6645 0.930 . S
C6657 C6658 1.399 . S
C6657 C6662 1.399 . S
C6658 C6657 1.399 . S
C6658 C6659 1.376 . S
C6659 H6646 0.930 . S
C6659 C6658 1.376 . S
C6659 C6660 1.388 . S
C6660 H6647 0.930 . S
C6660 C6659 1.388 . S
C6660 C6661 1.390 . S
C6661 C6660 1.390 . S
C6661 C6662 1.394 . S
C6661 C6667 1.465 . S
C6662 C6657 1.399 . S
C6662 C6661 1.394 . S
C6662 C6663 1.516 . S
C6663 C6662 1.516 . S
C6663 C6664 1.502 . S
C6663 C6665 1.561 . S
C6663 C6666 1.526 . S
C6664 H6648 0.959 . S
C6664 H6649 0.959 . S
C6664 H6650 0.961 . S
C6664 C6663 1.502 . S
C6665 H6651 0.960 . S
C6665 H6652 0.961 . S
C6665 H6653 0.959 . S
C6665 C6663 1.561 . S
C6666 C6663 1.526 . S
C6666 C6667 1.396 . S
C6666 C6671 1.390 . S
C6667 C6661 1.465 . S
C6667 C6666 1.396 . S
C6667 C6668 1.399 . S
C6668 H6654 0.929 . S
C6668 C6667 1.399 . S
C6668 C6669 1.385 . S
C6669 H6655 0.931 . S
C6669 C6668 1.385 . S
C6669 C6670 1.389 . S
C6670 C6669 1.389 . S
C6670 C6671 1.387 . S
C6671 H6656 0.930 . S
C6671 C6666 1.390 . S
C6671 C6670 1.387 . S
H6672 C6684 0.930 . S
H6673 C6686 0.930 . S
H6674 C6687 0.930 . S
H6675 C6691 0.959 . S
H6676 C6691 0.959 . S
H6677 C6691 0.961 . S
H6678 C6692 0.960 . S
H6679 C6692 0.961 . S
H6680 C6692 0.959 . S
H6681 C6695 0.929 . S
H6682 C6696 0.931 . S
H6683 C6698 0.930 . S
C6684 H6672 0.930 . S
C6684 C6685 1.399 . S
C6684 C6689 1.399 . S
C6685 C6684 1.399 . S
C6685 C6686 1.376 . S
C6686 H6673 0.930 . S
C6686 C6685 1.376 . S
C6686 C6687 1.388 . S
C6687 H6674 0.930 . S
C6687 C6686 1.388 . S
C6687 C6688 1.390 . S
C6688 C6687 1.390 . S
C6688 C6689 1.394 . S
C6688 C6694 1.465 . S
C6689 C6684 1.399 . S
C6689 C6688 1.394 . S
C6689 C6690 1.516 . S
C6690 C6689 1.516 . S
C6690 C6691 1.502 . S
C6690 C6692 1.561 . S
C6690 C6693 1.526 . S
C6691 H6675 0.959 . S
C6691 H6676 0.959 . S
C6691 H6677 0.961 . S
C6691 C6690 1.502 . S
C6692 H6678 0.960 . S
C6692 H6679 0.961 . S
C6692 H6680 0.959 . S
C6692 C6690 1.561 . S
C6693 C6690 1.526 . S
C6693 C6694 1.396 . S
C6693 C6698 1.390 . S
C6694 C6688 1.465 . S
C6694 C6693 1.396 . S
C6694 C6695 1.399 . S
C6695 H6681 0.929 . S
C6695 C6694 1.399 . S
C6695 C6696 1.385 . S
C6696 H6682 0.931 . S
C6696 C6695 1.385 . S
C6696 C6697 1.389 . S
C6697 C6696 1.389 . S
C6697 C6698 1.387 . S
C6698 H6683 0.930 . S
C6698 C6693 1.390 . S
C6698 C6697 1.387 . S
H6699 C6711 0.930 . S
H6700 C6713 0.930 . S
H6701 C6714 0.930 . S
H6702 C6718 0.959 . S
H6703 C6718 0.959 . S
H6704 C6718 0.961 . S
H6705 C6719 0.960 . S
H6706 C6719 0.961 . S
H6707 C6719 0.959 . S
H6708 C6722 0.929 . S
H6709 C6723 0.931 . S
H6710 C6725 0.930 . S
C6711 H6699 0.930 . S
C6711 C6712 1.399 . S
C6711 C6716 1.399 . S
C6712 C6711 1.399 . S
C6712 C6713 1.376 . S
C6713 H6700 0.930 . S
C6713 C6712 1.376 . S
C6713 C6714 1.388 . S
C6714 H6701 0.930 . S
C6714 C6713 1.388 . S
C6714 C6715 1.390 . S
C6715 C6714 1.390 . S
C6715 C6716 1.394 . S
C6715 C6721 1.465 . S
C6716 C6711 1.399 . S
C6716 C6715 1.394 . S
C6716 C6717 1.516 . S
C6717 C6716 1.516 . S
C6717 C6718 1.502 . S
C6717 C6719 1.561 . S
C6717 C6720 1.526 . S
C6718 H6702 0.959 . S
C6718 H6703 0.959 . S
C6718 H6704 0.961 . S
C6718 C6717 1.502 . S
C6719 H6705 0.960 . S
C6719 H6706 0.961 . S
C6719 H6707 0.959 . S
C6719 C6717 1.561 . S
C6720 C6717 1.526 . S
C6720 C6721 1.396 . S
C6720 C6725 1.390 . S
C6721 C6715 1.465 . S
C6721 C6720 1.396 . S
C6721 C6722 1.399 . S
C6722 H6708 0.929 . S
C6722 C6721 1.399 . S
C6722 C6723 1.385 . S
C6723 H6709 0.931 . S
C6723 C6722 1.385 . S
C6723 C6724 1.389 . S
C6724 C6723 1.389 . S
C6724 C6725 1.387 . S
C6725 H6710 0.930 . S
C6725 C6720 1.390 . S
C6725 C6724 1.387 . S
H6726 C6738 0.930 . S
H6727 C6740 0.930 . S
H6728 C6741 0.930 . S
H6729 C6745 0.959 . S
H6730 C6745 0.959 . S
H6731 C6745 0.961 . S
H6732 C6746 0.960 . S
H6733 C6746 0.961 . S
H6734 C6746 0.959 . S
H6735 C6749 0.929 . S
H6736 C6750 0.931 . S
H6737 C6752 0.930 . S
C6738 H6726 0.930 . S
C6738 C6739 1.399 . S
C6738 C6743 1.399 . S
C6739 C6738 1.399 . S
C6739 C6740 1.376 . S
C6740 H6727 0.930 . S
C6740 C6739 1.376 . S
C6740 C6741 1.388 . S
C6741 H6728 0.930 . S
C6741 C6740 1.388 . S
C6741 C6742 1.390 . S
C6742 C6741 1.390 . S
C6742 C6743 1.394 . S
C6742 C6748 1.465 . S
C6743 C6738 1.399 . S
C6743 C6742 1.394 . S
C6743 C6744 1.516 . S
C6744 C6743 1.516 . S
C6744 C6745 1.502 . S
C6744 C6746 1.561 . S
C6744 C6747 1.526 . S
C6745 H6729 0.959 . S
C6745 H6730 0.959 . S
C6745 H6731 0.961 . S
C6745 C6744 1.502 . S
C6746 H6732 0.960 . S
C6746 H6733 0.961 . S
C6746 H6734 0.959 . S
C6746 C6744 1.561 . S
C6747 C6744 1.526 . S
C6747 C6748 1.396 . S
C6747 C6752 1.390 . S
C6748 C6742 1.465 . S
C6748 C6747 1.396 . S
C6748 C6749 1.399 . S
C6749 H6735 0.929 . S
C6749 C6748 1.399 . S
C6749 C6750 1.385 . S
C6750 H6736 0.931 . S
C6750 C6749 1.385 . S
C6750 C6751 1.389 . S
C6751 C6750 1.389 . S
C6751 C6752 1.387 . S
C6752 H6737 0.930 . S
C6752 C6747 1.390 . S
C6752 C6751 1.387 . S
H6753 C6765 0.930 . S
H6754 C6767 0.930 . S
H6755 C6768 0.930 . S
H6756 C6772 0.959 . S
H6757 C6772 0.959 . S
H6758 C6772 0.961 . S
H6759 C6773 0.960 . S
H6760 C6773 0.961 . S
H6761 C6773 0.959 . S
H6762 C6776 0.929 . S
H6763 C6777 0.931 . S
H6764 C6779 0.930 . S
C6765 H6753 0.930 . S
C6765 C6766 1.399 . S
C6765 C6770 1.399 . S
C6766 C6765 1.399 . S
C6766 C6767 1.376 . S
C6767 H6754 0.930 . S
C6767 C6766 1.376 . S
C6767 C6768 1.388 . S
C6768 H6755 0.930 . S
C6768 C6767 1.388 . S
C6768 C6769 1.390 . S
C6769 C6768 1.390 . S
C6769 C6770 1.394 . S
C6769 C6775 1.465 . S
C6770 C6765 1.399 . S
C6770 C6769 1.394 . S
C6770 C6771 1.516 . S
C6771 C6770 1.516 . S
C6771 C6772 1.502 . S
C6771 C6773 1.561 . S
C6771 C6774 1.526 . S
C6772 H6756 0.959 . S
C6772 H6757 0.959 . S
C6772 H6758 0.961 . S
C6772 C6771 1.502 . S
C6773 H6759 0.960 . S
C6773 H6760 0.961 . S
C6773 H6761 0.959 . S
C6773 C6771 1.561 . S
C6774 C6771 1.526 . S
C6774 C6775 1.396 . S
C6774 C6779 1.390 . S
C6775 C6769 1.465 . S
C6775 C6774 1.396 . S
C6775 C6776 1.399 . S
C6776 H6762 0.929 . S
C6776 C6775 1.399 . S
C6776 C6777 1.385 . S
C6777 H6763 0.931 . S
C6777 C6776 1.385 . S
C6777 C6778 1.389 . S
C6778 C6777 1.389 . S
C6778 C6779 1.387 . S
C6779 H6764 0.930 . S
C6779 C6774 1.390 . S
C6779 C6778 1.387 . S
H6780 C6792 0.930 . S
H6781 C6794 0.930 . S
H6782 C6795 0.930 . S
H6783 C6799 0.959 . S
H6784 C6799 0.959 . S
H6785 C6799 0.961 . S
H6786 C6800 0.960 . S
H6787 C6800 0.961 . S
H6788 C6800 0.959 . S
H6789 C6803 0.929 . S
H6790 C6804 0.931 . S
H6791 C6806 0.930 . S
C6792 H6780 0.930 . S
C6792 C6793 1.399 . S
C6792 C6797 1.399 . S
C6793 C6792 1.399 . S
C6793 C6794 1.376 . S
C6794 H6781 0.930 . S
C6794 C6793 1.376 . S
C6794 C6795 1.388 . S
C6795 H6782 0.930 . S
C6795 C6794 1.388 . S
C6795 C6796 1.390 . S
C6796 C6795 1.390 . S
C6796 C6797 1.394 . S
C6796 C6802 1.465 . S
C6797 C6792 1.399 . S
C6797 C6796 1.394 . S
C6797 C6798 1.516 . S
C6798 C6797 1.516 . S
C6798 C6799 1.502 . S
C6798 C6800 1.561 . S
C6798 C6801 1.526 . S
C6799 H6783 0.959 . S
C6799 H6784 0.959 . S
C6799 H6785 0.961 . S
C6799 C6798 1.502 . S
C6800 H6786 0.960 . S
C6800 H6787 0.961 . S
C6800 H6788 0.959 . S
C6800 C6798 1.561 . S
C6801 C6798 1.526 . S
C6801 C6802 1.396 . S
C6801 C6806 1.390 . S
C6802 C6796 1.465 . S
C6802 C6801 1.396 . S
C6802 C6803 1.399 . S
C6803 H6789 0.929 . S
C6803 C6802 1.399 . S
C6803 C6804 1.385 . S
C6804 H6790 0.931 . S
C6804 C6803 1.385 . S
C6804 C6805 1.389 . S
C6805 C6804 1.389 . S
C6805 C6806 1.387 . S
C6806 H6791 0.930 . S
C6806 C6801 1.390 . S
C6806 C6805 1.387 . S
H6807 C6819 0.930 . S
H6808 C6821 0.930 . S
H6809 C6822 0.930 . S
H6810 C6826 0.959 . S
H6811 C6826 0.959 . S
H6812 C6826 0.961 . S
H6813 C6827 0.960 . S
H6814 C6827 0.961 . S
H6815 C6827 0.959 . S
H6816 C6830 0.929 . S
H6817 C6831 0.931 . S
H6818 C6833 0.930 . S
C6819 H6807 0.930 . S
C6819 C6820 1.399 . S
C6819 C6824 1.399 . S
C6820 C6819 1.399 . S
C6820 C6821 1.376 . S
C6821 H6808 0.930 . S
C6821 C6820 1.376 . S
C6821 C6822 1.388 . S
C6822 H6809 0.930 . S
C6822 C6821 1.388 . S
C6822 C6823 1.390 . S
C6823 C6822 1.390 . S
C6823 C6824 1.394 . S
C6823 C6829 1.465 . S
C6824 C6819 1.399 . S
C6824 C6823 1.394 . S
C6824 C6825 1.516 . S
C6825 C6824 1.516 . S
C6825 C6826 1.502 . S
C6825 C6827 1.561 . S
C6825 C6828 1.526 . S
C6826 H6810 0.959 . S
C6826 H6811 0.959 . S
C6826 H6812 0.961 . S
C6826 C6825 1.502 . S
C6827 H6813 0.960 . S
C6827 H6814 0.961 . S
C6827 H6815 0.959 . S
C6827 C6825 1.561 . S
C6828 C6825 1.526 . S
C6828 C6829 1.396 . S
C6828 C6833 1.390 . S
C6829 C6823 1.465 . S
C6829 C6828 1.396 . S
C6829 C6830 1.399 . S
C6830 H6816 0.929 . S
C6830 C6829 1.399 . S
C6830 C6831 1.385 . S
C6831 H6817 0.931 . S
C6831 C6830 1.385 . S
C6831 C6832 1.389 . S
C6832 C6831 1.389 . S
C6832 C6833 1.387 . S
C6833 H6818 0.930 . S
C6833 C6828 1.390 . S
C6833 C6832 1.387 . S
H6834 C6846 0.930 . S
H6835 C6848 0.930 . S
H6836 C6849 0.930 . S
H6837 C6853 0.959 . S
H6838 C6853 0.959 . S
H6839 C6853 0.961 . S
H6840 C6854 0.960 . S
H6841 C6854 0.961 . S
H6842 C6854 0.959 . S
H6843 C6857 0.929 . S
H6844 C6858 0.931 . S
H6845 C6860 0.930 . S
C6846 H6834 0.930 . S
C6846 C6847 1.399 . S
C6846 C6851 1.399 . S
C6847 C6846 1.399 . S
C6847 C6848 1.376 . S
C6848 H6835 0.930 . S
C6848 C6847 1.376 . S
C6848 C6849 1.388 . S
C6849 H6836 0.930 . S
C6849 C6848 1.388 . S
C6849 C6850 1.390 . S
C6850 C6849 1.390 . S
C6850 C6851 1.394 . S
C6850 C6856 1.465 . S
C6851 C6846 1.399 . S
C6851 C6850 1.394 . S
C6851 C6852 1.516 . S
C6852 C6851 1.516 . S
C6852 C6853 1.502 . S
C6852 C6854 1.561 . S
C6852 C6855 1.526 . S
C6853 H6837 0.959 . S
C6853 H6838 0.959 . S
C6853 H6839 0.961 . S
C6853 C6852 1.502 . S
C6854 H6840 0.960 . S
C6854 H6841 0.961 . S
C6854 H6842 0.959 . S
C6854 C6852 1.561 . S
C6855 C6852 1.526 . S
C6855 C6856 1.396 . S
C6855 C6860 1.390 . S
C6856 C6850 1.465 . S
C6856 C6855 1.396 . S
C6856 C6857 1.399 . S
C6857 H6843 0.929 . S
C6857 C6856 1.399 . S
C6857 C6858 1.385 . S
C6858 H6844 0.931 . S
C6858 C6857 1.385 . S
C6858 C6859 1.389 . S
C6859 C6858 1.389 . S
C6859 C6860 1.387 . S
C6860 H6845 0.930 . S
C6860 C6855 1.390 . S
C6860 C6859 1.387 . S
H6861 C6873 0.930 . S
H6862 C6875 0.930 . S
H6863 C6876 0.930 . S
H6864 C6880 0.959 . S
H6865 C6880 0.959 . S
H6866 C6880 0.961 . S
H6867 C6881 0.960 . S
H6868 C6881 0.961 . S
H6869 C6881 0.959 . S
H6870 C6884 0.929 . S
H6871 C6885 0.931 . S
H6872 C6887 0.930 . S
C6873 H6861 0.930 . S
C6873 C6874 1.399 . S
C6873 C6878 1.399 . S
C6874 C6873 1.399 . S
C6874 C6875 1.376 . S
C6875 H6862 0.930 . S
C6875 C6874 1.376 . S
C6875 C6876 1.388 . S
C6876 H6863 0.930 . S
C6876 C6875 1.388 . S
C6876 C6877 1.390 . S
C6877 C6876 1.390 . S
C6877 C6878 1.394 . S
C6877 C6883 1.465 . S
C6878 C6873 1.399 . S
C6878 C6877 1.394 . S
C6878 C6879 1.516 . S
C6879 C6878 1.516 . S
C6879 C6880 1.502 . S
C6879 C6881 1.561 . S
C6879 C6882 1.526 . S
C6880 H6864 0.959 . S
C6880 H6865 0.959 . S
C6880 H6866 0.961 . S
C6880 C6879 1.502 . S
C6881 H6867 0.960 . S
C6881 H6868 0.961 . S
C6881 H6869 0.959 . S
C6881 C6879 1.561 . S
C6882 C6879 1.526 . S
C6882 C6883 1.396 . S
C6882 C6887 1.390 . S
C6883 C6877 1.465 . S
C6883 C6882 1.396 . S
C6883 C6884 1.399 . S
C6884 H6870 0.929 . S
C6884 C6883 1.399 . S
C6884 C6885 1.385 . S
C6885 H6871 0.931 . S
C6885 C6884 1.385 . S
C6885 C6886 1.389 . S
C6886 C6885 1.389 . S
C6886 C6887 1.387 . S
C6887 H6872 0.930 . S
C6887 C6882 1.390 . S
C6887 C6886 1.387 . S
H6888 C6900 0.930 . S
H6889 C6902 0.930 . S
H6890 C6903 0.930 . S
H6891 C6907 0.959 . S
H6892 C6907 0.959 . S
H6893 C6907 0.961 . S
H6894 C6908 0.960 . S
H6895 C6908 0.961 . S
H6896 C6908 0.959 . S
H6897 C6911 0.929 . S
H6898 C6912 0.931 . S
H6899 C6914 0.930 . S
C6900 H6888 0.930 . S
C6900 C6901 1.399 . S
C6900 C6905 1.399 . S
C6901 C6900 1.399 . S
C6901 C6902 1.376 . S
C6902 H6889 0.930 . S
C6902 C6901 1.376 . S
C6902 C6903 1.388 . S
C6903 H6890 0.930 . S
C6903 C6902 1.388 . S
C6903 C6904 1.390 . S
C6904 C6903 1.390 . S
C6904 C6905 1.394 . S
C6904 C6910 1.465 . S
C6905 C6900 1.399 . S
C6905 C6904 1.394 . S
C6905 C6906 1.516 . S
C6906 C6905 1.516 . S
C6906 C6907 1.502 . S
C6906 C6908 1.561 . S
C6906 C6909 1.526 . S
C6907 H6891 0.959 . S
C6907 H6892 0.959 . S
C6907 H6893 0.961 . S
C6907 C6906 1.502 . S
C6908 H6894 0.960 . S
C6908 H6895 0.961 . S
C6908 H6896 0.959 . S
C6908 C6906 1.561 . S
C6909 C6906 1.526 . S
C6909 C6910 1.396 . S
C6909 C6914 1.390 . S
C6910 C6904 1.465 . S
C6910 C6909 1.396 . S
C6910 C6911 1.399 . S
C6911 H6897 0.929 . S
C6911 C6910 1.399 . S
C6911 C6912 1.385 . S
C6912 H6898 0.931 . S
C6912 C6911 1.385 . S
C6912 C6913 1.389 . S
C6913 C6912 1.389 . S
C6913 C6914 1.387 . S
C6914 H6899 0.930 . S
C6914 C6909 1.390 . S
C6914 C6913 1.387 . S
H6915 C6927 0.930 . S
H6916 C6929 0.930 . S
H6917 C6930 0.930 . S
H6918 C6934 0.959 . S
H6919 C6934 0.959 . S
H6920 C6934 0.961 . S
H6921 C6935 0.960 . S
H6922 C6935 0.961 . S
H6923 C6935 0.959 . S
H6924 C6938 0.929 . S
H6925 C6939 0.931 . S
H6926 C6941 0.930 . S
C6927 H6915 0.930 . S
C6927 C6928 1.399 . S
C6927 C6932 1.399 . S
C6928 C6927 1.399 . S
C6928 C6929 1.376 . S
C6929 H6916 0.930 . S
C6929 C6928 1.376 . S
C6929 C6930 1.388 . S
C6930 H6917 0.930 . S
C6930 C6929 1.388 . S
C6930 C6931 1.390 . S
C6931 C6930 1.390 . S
C6931 C6932 1.394 . S
C6931 C6937 1.465 . S
C6932 C6927 1.399 . S
C6932 C6931 1.394 . S
C6932 C6933 1.516 . S
C6933 C6932 1.516 . S
C6933 C6934 1.502 . S
C6933 C6935 1.561 . S
C6933 C6936 1.526 . S
C6934 H6918 0.959 . S
C6934 H6919 0.959 . S
C6934 H6920 0.961 . S
C6934 C6933 1.502 . S
C6935 H6921 0.960 . S
C6935 H6922 0.961 . S
C6935 H6923 0.959 . S
C6935 C6933 1.561 . S
C6936 C6933 1.526 . S
C6936 C6937 1.396 . S
C6936 C6941 1.390 . S
C6937 C6931 1.465 . S
C6937 C6936 1.396 . S
C6937 C6938 1.399 . S
C6938 H6924 0.929 . S
C6938 C6937 1.399 . S
C6938 C6939 1.385 . S
C6939 H6925 0.931 . S
C6939 C6938 1.385 . S
C6939 C6940 1.389 . S
C6940 C6939 1.389 . S
C6940 C6941 1.387 . S
C6941 H6926 0.930 . S
C6941 C6936 1.390 . S
C6941 C6940 1.387 . S
H6942 C6954 0.930 . S
H6943 C6956 0.930 . S
H6944 C6957 0.930 . S
H6945 C6961 0.959 . S
H6946 C6961 0.959 . S
H6947 C6961 0.961 . S
H6948 C6962 0.960 . S
H6949 C6962 0.961 . S
H6950 C6962 0.959 . S
H6951 C6965 0.929 . S
H6952 C6966 0.931 . S
H6953 C6968 0.930 . S
C6954 H6942 0.930 . S
C6954 C6955 1.399 . S
C6954 C6959 1.399 . S
C6955 C6954 1.399 . S
C6955 C6956 1.376 . S
C6956 H6943 0.930 . S
C6956 C6955 1.376 . S
C6956 C6957 1.388 . S
C6957 H6944 0.930 . S
C6957 C6956 1.388 . S
C6957 C6958 1.390 . S
C6958 C6957 1.390 . S
C6958 C6959 1.394 . S
C6958 C6964 1.465 . S
C6959 C6954 1.399 . S
C6959 C6958 1.394 . S
C6959 C6960 1.516 . S
C6960 C6959 1.516 . S
C6960 C6961 1.502 . S
C6960 C6962 1.561 . S
C6960 C6963 1.526 . S
C6961 H6945 0.959 . S
C6961 H6946 0.959 . S
C6961 H6947 0.961 . S
C6961 C6960 1.502 . S
C6962 H6948 0.960 . S
C6962 H6949 0.961 . S
C6962 H6950 0.959 . S
C6962 C6960 1.561 . S
C6963 C6960 1.526 . S
C6963 C6964 1.396 . S
C6963 C6968 1.390 . S
C6964 C6958 1.465 . S
C6964 C6963 1.396 . S
C6964 C6965 1.399 . S
C6965 H6951 0.929 . S
C6965 C6964 1.399 . S
C6965 C6966 1.385 . S
C6966 H6952 0.931 . S
C6966 C6965 1.385 . S
C6966 C6967 1.389 . S
C6967 C6966 1.389 . S
C6967 C6968 1.387 . S
C6968 H6953 0.930 . S
C6968 C6963 1.390 . S
C6968 C6967 1.387 . S
H6969 C6981 0.930 . S
H6970 C6983 0.930 . S
H6971 C6984 0.930 . S
H6972 C6988 0.959 . S
H6973 C6988 0.959 . S
H6974 C6988 0.961 . S
H6975 C6989 0.960 . S
H6976 C6989 0.961 . S
H6977 C6989 0.959 . S
H6978 C6992 0.929 . S
H6979 C6993 0.931 . S
H6980 C6995 0.930 . S
C6981 H6969 0.930 . S
C6981 C6982 1.399 . S
C6981 C6986 1.399 . S
C6982 C6981 1.399 . S
C6982 C6983 1.376 . S
C6983 H6970 0.930 . S
C6983 C6982 1.376 . S
C6983 C6984 1.388 . S
C6984 H6971 0.930 . S
C6984 C6983 1.388 . S
C6984 C6985 1.390 . S
C6985 C6984 1.390 . S
C6985 C6986 1.394 . S
C6985 C6991 1.465 . S
C6986 C6981 1.399 . S
C6986 C6985 1.394 . S
C6986 C6987 1.516 . S
C6987 C6986 1.516 . S
C6987 C6988 1.502 . S
C6987 C6989 1.561 . S
C6987 C6990 1.526 . S
C6988 H6972 0.959 . S
C6988 H6973 0.959 . S
C6988 H6974 0.961 . S
C6988 C6987 1.502 . S
C6989 H6975 0.960 . S
C6989 H6976 0.961 . S
C6989 H6977 0.959 . S
C6989 C6987 1.561 . S
C6990 C6987 1.526 . S
C6990 C6991 1.396 . S
C6990 C6995 1.390 . S
C6991 C6985 1.465 . S
C6991 C6990 1.396 . S
C6991 C6992 1.399 . S
C6992 H6978 0.929 . S
C6992 C6991 1.399 . S
C6992 C6993 1.385 . S
C6993 H6979 0.931 . S
C6993 C6992 1.385 . S
C6993 C6994 1.389 . S
C6994 C6993 1.389 . S
C6994 C6995 1.387 . S
C6995 H6980 0.930 . S
C6995 C6990 1.390 . S
C6995 C6994 1.387 . S
H6996 C7008 0.930 . S
H6997 C7010 0.930 . S
H6998 C7011 0.930 . S
H6999 C7015 0.959 . S
H7000 C7015 0.959 . S
H7001 C7015 0.961 . S
H7002 C7016 0.960 . S
H7003 C7016 0.961 . S
H7004 C7016 0.959 . S
H7005 C7019 0.929 . S
H7006 C7020 0.931 . S
H7007 C7022 0.930 . S
C7008 H6996 0.930 . S
C7008 C7009 1.399 . S
C7008 C7013 1.399 . S
C7009 C7008 1.399 . S
C7009 C7010 1.376 . S
C7010 H6997 0.930 . S
C7010 C7009 1.376 . S
C7010 C7011 1.388 . S
C7011 H6998 0.930 . S
C7011 C7010 1.388 . S
C7011 C7012 1.390 . S
C7012 C7011 1.390 . S
C7012 C7013 1.394 . S
C7012 C7018 1.465 . S
C7013 C7008 1.399 . S
C7013 C7012 1.394 . S
C7013 C7014 1.516 . S
C7014 C7013 1.516 . S
C7014 C7015 1.502 . S
C7014 C7016 1.561 . S
C7014 C7017 1.526 . S
C7015 H6999 0.959 . S
C7015 H7000 0.959 . S
C7015 H7001 0.961 . S
C7015 C7014 1.502 . S
C7016 H7002 0.960 . S
C7016 H7003 0.961 . S
C7016 H7004 0.959 . S
C7016 C7014 1.561 . S
C7017 C7014 1.526 . S
C7017 C7018 1.396 . S
C7017 C7022 1.390 . S
C7018 C7012 1.465 . S
C7018 C7017 1.396 . S
C7018 C7019 1.399 . S
C7019 H7005 0.929 . S
C7019 C7018 1.399 . S
C7019 C7020 1.385 . S
C7020 H7006 0.931 . S
C7020 C7019 1.385 . S
C7020 C7021 1.389 . S
C7021 C7020 1.389 . S
C7021 C7022 1.387 . S
C7022 H7007 0.930 . S
C7022 C7017 1.390 . S
C7022 C7021 1.387 . S
H7023 C7035 0.930 . S
H7024 C7037 0.930 . S
H7025 C7038 0.930 . S
H7026 C7042 0.959 . S
H7027 C7042 0.959 . S
H7028 C7042 0.961 . S
H7029 C7043 0.960 . S
H7030 C7043 0.961 . S
H7031 C7043 0.959 . S
H7032 C7046 0.929 . S
H7033 C7047 0.931 . S
H7034 C7049 0.930 . S
C7035 H7023 0.930 . S
C7035 C7036 1.399 . S
C7035 C7040 1.399 . S
C7036 C7035 1.399 . S
C7036 C7037 1.376 . S
C7037 H7024 0.930 . S
C7037 C7036 1.376 . S
C7037 C7038 1.388 . S
C7038 H7025 0.930 . S
C7038 C7037 1.388 . S
C7038 C7039 1.390 . S
C7039 C7038 1.390 . S
C7039 C7040 1.394 . S
C7039 C7045 1.465 . S
C7040 C7035 1.399 . S
C7040 C7039 1.394 . S
C7040 C7041 1.516 . S
C7041 C7040 1.516 . S
C7041 C7042 1.502 . S
C7041 C7043 1.561 . S
C7041 C7044 1.526 . S
C7042 H7026 0.959 . S
C7042 H7027 0.959 . S
C7042 H7028 0.961 . S
C7042 C7041 1.502 . S
C7043 H7029 0.960 . S
C7043 H7030 0.961 . S
C7043 H7031 0.959 . S
C7043 C7041 1.561 . S
C7044 C7041 1.526 . S
C7044 C7045 1.396 . S
C7044 C7049 1.390 . S
C7045 C7039 1.465 . S
C7045 C7044 1.396 . S
C7045 C7046 1.399 . S
C7046 H7032 0.929 . S
C7046 C7045 1.399 . S
C7046 C7047 1.385 . S
C7047 H7033 0.931 . S
C7047 C7046 1.385 . S
C7047 C7048 1.389 . S
C7048 C7047 1.389 . S
C7048 C7049 1.387 . S
C7049 H7034 0.930 . S
C7049 C7044 1.390 . S
C7049 C7048 1.387 . S
H7050 C7062 0.930 . S
H7051 C7064 0.930 . S
H7052 C7065 0.930 . S
H7053 C7069 0.959 . S
H7054 C7069 0.959 . S
H7055 C7069 0.961 . S
H7056 C7070 0.960 . S
H7057 C7070 0.961 . S
H7058 C7070 0.959 . S
H7059 C7073 0.929 . S
H7060 C7074 0.931 . S
H7061 C7076 0.930 . S
C7062 H7050 0.930 . S
C7062 C7063 1.399 . S
C7062 C7067 1.399 . S
C7063 C7062 1.399 . S
C7063 C7064 1.376 . S
C7064 H7051 0.930 . S
C7064 C7063 1.376 . S
C7064 C7065 1.388 . S
C7065 H7052 0.930 . S
C7065 C7064 1.388 . S
C7065 C7066 1.390 . S
C7066 C7065 1.390 . S
C7066 C7067 1.394 . S
C7066 C7072 1.465 . S
C7067 C7062 1.399 . S
C7067 C7066 1.394 . S
C7067 C7068 1.516 . S
C7068 C7067 1.516 . S
C7068 C7069 1.502 . S
C7068 C7070 1.561 . S
C7068 C7071 1.526 . S
C7069 H7053 0.959 . S
C7069 H7054 0.959 . S
C7069 H7055 0.961 . S
C7069 C7068 1.502 . S
C7070 H7056 0.960 . S
C7070 H7057 0.961 . S
C7070 H7058 0.959 . S
C7070 C7068 1.561 . S
C7071 C7068 1.526 . S
C7071 C7072 1.396 . S
C7071 C7076 1.390 . S
C7072 C7066 1.465 . S
C7072 C7071 1.396 . S
C7072 C7073 1.399 . S
C7073 H7059 0.929 . S
C7073 C7072 1.399 . S
C7073 C7074 1.385 . S
C7074 H7060 0.931 . S
C7074 C7073 1.385 . S
C7074 C7075 1.389 . S
C7075 C7074 1.389 . S
C7075 C7076 1.387 . S
C7076 H7061 0.930 . S
C7076 C7071 1.390 . S
C7076 C7075 1.387 . S
H7077 C7089 0.930 . S
H7078 C7091 0.930 . S
H7079 C7092 0.930 . S
H7080 C7096 0.959 . S
H7081 C7096 0.959 . S
H7082 C7096 0.961 . S
H7083 C7097 0.960 . S
H7084 C7097 0.961 . S
H7085 C7097 0.959 . S
H7086 C7100 0.929 . S
H7087 C7101 0.931 . S
H7088 C7103 0.930 . S
C7089 H7077 0.930 . S
C7089 C7090 1.399 . S
C7089 C7094 1.399 . S
C7090 C7089 1.399 . S
C7090 C7091 1.376 . S
C7091 H7078 0.930 . S
C7091 C7090 1.376 . S
C7091 C7092 1.388 . S
C7092 H7079 0.930 . S
C7092 C7091 1.388 . S
C7092 C7093 1.390 . S
C7093 C7092 1.390 . S
C7093 C7094 1.394 . S
C7093 C7099 1.465 . S
C7094 C7089 1.399 . S
C7094 C7093 1.394 . S
C7094 C7095 1.516 . S
C7095 C7094 1.516 . S
C7095 C7096 1.502 . S
C7095 C7097 1.561 . S
C7095 C7098 1.526 . S
C7096 H7080 0.959 . S
C7096 H7081 0.959 . S
C7096 H7082 0.961 . S
C7096 C7095 1.502 . S
C7097 H7083 0.960 . S
C7097 H7084 0.961 . S
C7097 H7085 0.959 . S
C7097 C7095 1.561 . S
C7098 C7095 1.526 . S
C7098 C7099 1.396 . S
C7098 C7103 1.390 . S
C7099 C7093 1.465 . S
C7099 C7098 1.396 . S
C7099 C7100 1.399 . S
C7100 H7086 0.929 . S
C7100 C7099 1.399 . S
C7100 C7101 1.385 . S
C7101 H7087 0.931 . S
C7101 C7100 1.385 . S
C7101 C7102 1.389 . S
C7102 C7101 1.389 . S
C7102 C7103 1.387 . S
C7103 H7088 0.930 . S
C7103 C7098 1.390 . S
C7103 C7102 1.387 . S
H7104 C7116 0.930 . S
H7105 C7118 0.930 . S
H7106 C7119 0.930 . S
H7107 C7123 0.959 . S
H7108 C7123 0.959 . S
H7109 C7123 0.961 . S
H7110 C7124 0.960 . S
H7111 C7124 0.961 . S
H7112 C7124 0.959 . S
H7113 C7127 0.929 . S
H7114 C7128 0.931 . S
H7115 C7130 0.930 . S
C7116 H7104 0.930 . S
C7116 C7117 1.399 . S
C7116 C7121 1.399 . S
C7117 C7116 1.399 . S
C7117 C7118 1.376 . S
C7118 H7105 0.930 . S
C7118 C7117 1.376 . S
C7118 C7119 1.388 . S
C7119 H7106 0.930 . S
C7119 C7118 1.388 . S
C7119 C7120 1.390 . S
C7120 C7119 1.390 . S
C7120 C7121 1.394 . S
C7120 C7126 1.465 . S
C7121 C7116 1.399 . S
C7121 C7120 1.394 . S
C7121 C7122 1.516 . S
C7122 C7121 1.516 . S
C7122 C7123 1.502 . S
C7122 C7124 1.561 . S
C7122 C7125 1.526 . S
C7123 H7107 0.959 . S
C7123 H7108 0.959 . S
C7123 H7109 0.961 . S
C7123 C7122 1.502 . S
C7124 H7110 0.960 . S
C7124 H7111 0.961 . S
C7124 H7112 0.959 . S
C7124 C7122 1.561 . S
C7125 C7122 1.526 . S
C7125 C7126 1.396 . S
C7125 C7130 1.390 . S
C7126 C7120 1.465 . S
C7126 C7125 1.396 . S
C7126 C7127 1.399 . S
C7127 H7113 0.929 . S
C7127 C7126 1.399 . S
C7127 C7128 1.385 . S
C7128 H7114 0.931 . S
C7128 C7127 1.385 . S
C7128 C7129 1.389 . S
C7129 C7128 1.389 . S
C7129 C7130 1.387 . S
C7130 H7115 0.930 . S
C7130 C7125 1.390 . S
C7130 C7129 1.387 . S
H7131 C7143 0.930 . S
H7132 C7145 0.930 . S
H7133 C7146 0.930 . S
H7134 C7150 0.959 . S
H7135 C7150 0.959 . S
H7136 C7150 0.961 . S
H7137 C7151 0.960 . S
H7138 C7151 0.961 . S
H7139 C7151 0.959 . S
H7140 C7154 0.929 . S
H7141 C7155 0.931 . S
H7142 C7157 0.930 . S
C7143 H7131 0.930 . S
C7143 C7144 1.399 . S
C7143 C7148 1.399 . S
C7144 C7143 1.399 . S
C7144 C7145 1.376 . S
C7145 H7132 0.930 . S
C7145 C7144 1.376 . S
C7145 C7146 1.388 . S
C7146 H7133 0.930 . S
C7146 C7145 1.388 . S
C7146 C7147 1.390 . S
C7147 C7146 1.390 . S
C7147 C7148 1.394 . S
C7147 C7153 1.465 . S
C7148 C7143 1.399 . S
C7148 C7147 1.394 . S
C7148 C7149 1.516 . S
C7149 C7148 1.516 . S
C7149 C7150 1.502 . S
C7149 C7151 1.561 . S
C7149 C7152 1.526 . S
C7150 H7134 0.959 . S
C7150 H7135 0.959 . S
C7150 H7136 0.961 . S
C7150 C7149 1.502 . S
C7151 H7137 0.960 . S
C7151 H7138 0.961 . S
C7151 H7139 0.959 . S
C7151 C7149 1.561 . S
C7152 C7149 1.526 . S
C7152 C7153 1.396 . S
C7152 C7157 1.390 . S
C7153 C7147 1.465 . S
C7153 C7152 1.396 . S
C7153 C7154 1.399 . S
C7154 H7140 0.929 . S
C7154 C7153 1.399 . S
C7154 C7155 1.385 . S
C7155 H7141 0.931 . S
C7155 C7154 1.385 . S
C7155 C7156 1.389 . S
C7156 C7155 1.389 . S
C7156 C7157 1.387 . S
C7157 H7142 0.930 . S
C7157 C7152 1.390 . S
C7157 C7156 1.387 . S
H7158 C7170 0.930 . S
H7159 C7172 0.930 . S
H7160 C7173 0.930 . S
H7161 C7177 0.959 . S
H7162 C7177 0.959 . S
H7163 C7177 0.961 . S
H7164 C7178 0.960 . S
H7165 C7178 0.961 . S
H7166 C7178 0.959 . S
H7167 C7181 0.929 . S
H7168 C7182 0.931 . S
H7169 C7184 0.930 . S
C7170 H7158 0.930 . S
C7170 C7171 1.399 . S
C7170 C7175 1.399 . S
C7171 C7170 1.399 . S
C7171 C7172 1.376 . S
C7172 H7159 0.930 . S
C7172 C7171 1.376 . S
C7172 C7173 1.388 . S
C7173 H7160 0.930 . S
C7173 C7172 1.388 . S
C7173 C7174 1.390 . S
C7174 C7173 1.390 . S
C7174 C7175 1.394 . S
C7174 C7180 1.465 . S
C7175 C7170 1.399 . S
C7175 C7174 1.394 . S
C7175 C7176 1.516 . S
C7176 C7175 1.516 . S
C7176 C7177 1.502 . S
C7176 C7178 1.561 . S
C7176 C7179 1.526 . S
C7177 H7161 0.959 . S
C7177 H7162 0.959 . S
C7177 H7163 0.961 . S
C7177 C7176 1.502 . S
C7178 H7164 0.960 . S
C7178 H7165 0.961 . S
C7178 H7166 0.959 . S
C7178 C7176 1.561 . S
C7179 C7176 1.526 . S
C7179 C7180 1.396 . S
C7179 C7184 1.390 . S
C7180 C7174 1.465 . S
C7180 C7179 1.396 . S
C7180 C7181 1.399 . S
C7181 H7167 0.929 . S
C7181 C7180 1.399 . S
C7181 C7182 1.385 . S
C7182 H7168 0.931 . S
C7182 C7181 1.385 . S
C7182 C7183 1.389 . S
C7183 C7182 1.389 . S
C7183 C7184 1.387 . S
C7184 H7169 0.930 . S
C7184 C7179 1.390 . S
C7184 C7183 1.387 . S
H7185 C7197 0.930 . S
H7186 C7199 0.930 . S
H7187 C7200 0.930 . S
H7188 C7204 0.959 . S
H7189 C7204 0.959 . S
H7190 C7204 0.961 . S
H7191 C7205 0.960 . S
H7192 C7205 0.961 . S
H7193 C7205 0.959 . S
H7194 C7208 0.929 . S
H7195 C7209 0.931 . S
H7196 C7211 0.930 . S
C7197 H7185 0.930 . S
C7197 C7198 1.399 . S
C7197 C7202 1.399 . S
C7198 C7197 1.399 . S
C7198 C7199 1.376 . S
C7199 H7186 0.930 . S
C7199 C7198 1.376 . S
C7199 C7200 1.388 . S
C7200 H7187 0.930 . S
C7200 C7199 1.388 . S
C7200 C7201 1.390 . S
C7201 C7200 1.390 . S
C7201 C7202 1.394 . S
C7201 C7207 1.465 . S
C7202 C7197 1.399 . S
C7202 C7201 1.394 . S
C7202 C7203 1.516 . S
C7203 C7202 1.516 . S
C7203 C7204 1.502 . S
C7203 C7205 1.561 . S
C7203 C7206 1.526 . S
C7204 H7188 0.959 . S
C7204 H7189 0.959 . S
C7204 H7190 0.961 . S
C7204 C7203 1.502 . S
C7205 H7191 0.960 . S
C7205 H7192 0.961 . S
C7205 H7193 0.959 . S
C7205 C7203 1.561 . S
C7206 C7203 1.526 . S
C7206 C7207 1.396 . S
C7206 C7211 1.390 . S
C7207 C7201 1.465 . S
C7207 C7206 1.396 . S
C7207 C7208 1.399 . S
C7208 H7194 0.929 . S
C7208 C7207 1.399 . S
C7208 C7209 1.385 . S
C7209 H7195 0.931 . S
C7209 C7208 1.385 . S
C7209 C7210 1.389 . S
C7210 C7209 1.389 . S
C7210 C7211 1.387 . S
C7211 H7196 0.930 . S
C7211 C7206 1.390 . S
C7211 C7210 1.387 . S
H7212 C7224 0.930 . S
H7213 C7226 0.930 . S
H7214 C7227 0.930 . S
H7215 C7231 0.959 . S
H7216 C7231 0.959 . S
H7217 C7231 0.961 . S
H7218 C7232 0.960 . S
H7219 C7232 0.961 . S
H7220 C7232 0.959 . S
H7221 C7235 0.929 . S
H7222 C7236 0.931 . S
H7223 C7238 0.930 . S
C7224 H7212 0.930 . S
C7224 C7225 1.399 . S
C7224 C7229 1.399 . S
C7225 C7224 1.399 . S
C7225 C7226 1.376 . S
C7226 H7213 0.930 . S
C7226 C7225 1.376 . S
C7226 C7227 1.388 . S
C7227 H7214 0.930 . S
C7227 C7226 1.388 . S
C7227 C7228 1.390 . S
C7228 C7227 1.390 . S
C7228 C7229 1.394 . S
C7228 C7234 1.465 . S
C7229 C7224 1.399 . S
C7229 C7228 1.394 . S
C7229 C7230 1.516 . S
C7230 C7229 1.516 . S
C7230 C7231 1.502 . S
C7230 C7232 1.561 . S
C7230 C7233 1.526 . S
C7231 H7215 0.959 . S
C7231 H7216 0.959 . S
C7231 H7217 0.961 . S
C7231 C7230 1.502 . S
C7232 H7218 0.960 . S
C7232 H7219 0.961 . S
C7232 H7220 0.959 . S
C7232 C7230 1.561 . S
C7233 C7230 1.526 . S
C7233 C7234 1.396 . S
C7233 C7238 1.390 . S
C7234 C7228 1.465 . S
C7234 C7233 1.396 . S
C7234 C7235 1.399 . S
C7235 H7221 0.929 . S
C7235 C7234 1.399 . S
C7235 C7236 1.385 . S
C7236 H7222 0.931 . S
C7236 C7235 1.385 . S
C7236 C7237 1.389 . S
C7237 C7236 1.389 . S
C7237 C7238 1.387 . S
C7238 H7223 0.930 . S
C7238 C7233 1.390 . S
C7238 C7237 1.387 . S
H7239 C7251 0.930 . S
H7240 C7253 0.930 . S
H7241 C7254 0.930 . S
H7242 C7258 0.959 . S
H7243 C7258 0.959 . S
H7244 C7258 0.961 . S
H7245 C7259 0.960 . S
H7246 C7259 0.961 . S
H7247 C7259 0.959 . S
H7248 C7262 0.929 . S
H7249 C7263 0.931 . S
H7250 C7265 0.930 . S
C7251 H7239 0.930 . S
C7251 C7252 1.399 . S
C7251 C7256 1.399 . S
C7252 C7251 1.399 . S
C7252 C7253 1.376 . S
C7253 H7240 0.930 . S
C7253 C7252 1.376 . S
C7253 C7254 1.388 . S
C7254 H7241 0.930 . S
C7254 C7253 1.388 . S
C7254 C7255 1.390 . S
C7255 C7254 1.390 . S
C7255 C7256 1.394 . S
C7255 C7261 1.465 . S
C7256 C7251 1.399 . S
C7256 C7255 1.394 . S
C7256 C7257 1.516 . S
C7257 C7256 1.516 . S
C7257 C7258 1.502 . S
C7257 C7259 1.561 . S
C7257 C7260 1.526 . S
C7258 H7242 0.959 . S
C7258 H7243 0.959 . S
C7258 H7244 0.961 . S
C7258 C7257 1.502 . S
C7259 H7245 0.960 . S
C7259 H7246 0.961 . S
C7259 H7247 0.959 . S
C7259 C7257 1.561 . S
C7260 C7257 1.526 . S
C7260 C7261 1.396 . S
C7260 C7265 1.390 . S
C7261 C7255 1.465 . S
C7261 C7260 1.396 . S
C7261 C7262 1.399 . S
C7262 H7248 0.929 . S
C7262 C7261 1.399 . S
C7262 C7263 1.385 . S
C7263 H7249 0.931 . S
C7263 C7262 1.385 . S
C7263 C7264 1.389 . S
C7264 C7263 1.389 . S
C7264 C7265 1.387 . S
C7265 H7250 0.930 . S
C7265 C7260 1.390 . S
C7265 C7264 1.387 . S
H7266 C7278 0.930 . S
H7267 C7280 0.930 . S
H7268 C7281 0.930 . S
H7269 C7285 0.959 . S
H7270 C7285 0.959 . S
H7271 C7285 0.961 . S
H7272 C7286 0.960 . S
H7273 C7286 0.961 . S
H7274 C7286 0.959 . S
H7275 C7289 0.929 . S
H7276 C7290 0.931 . S
H7277 C7292 0.930 . S
C7278 H7266 0.930 . S
C7278 C7279 1.399 . S
C7278 C7283 1.399 . S
C7279 C7278 1.399 . S
C7279 C7280 1.376 . S
C7280 H7267 0.930 . S
C7280 C7279 1.376 . S
C7280 C7281 1.388 . S
C7281 H7268 0.930 . S
C7281 C7280 1.388 . S
C7281 C7282 1.390 . S
C7282 C7281 1.390 . S
C7282 C7283 1.394 . S
C7282 C7288 1.465 . S
C7283 C7278 1.399 . S
C7283 C7282 1.394 . S
C7283 C7284 1.516 . S
C7284 C7283 1.516 . S
C7284 C7285 1.502 . S
C7284 C7286 1.561 . S
C7284 C7287 1.526 . S
C7285 H7269 0.959 . S
C7285 H7270 0.959 . S
C7285 H7271 0.961 . S
C7285 C7284 1.502 . S
C7286 H7272 0.960 . S
C7286 H7273 0.961 . S
C7286 H7274 0.959 . S
C7286 C7284 1.561 . S
C7287 C7284 1.526 . S
C7287 C7288 1.396 . S
C7287 C7292 1.390 . S
C7288 C7282 1.465 . S
C7288 C7287 1.396 . S
C7288 C7289 1.399 . S
C7289 H7275 0.929 . S
C7289 C7288 1.399 . S
C7289 C7290 1.385 . S
C7290 H7276 0.931 . S
C7290 C7289 1.385 . S
C7290 C7291 1.389 . S
C7291 C7290 1.389 . S
C7291 C7292 1.387 . S
C7292 H7277 0.930 . S
C7292 C7287 1.390 . S
C7292 C7291 1.387 . S
H7293 C7305 0.930 . S
H7294 C7307 0.930 . S
H7295 C7308 0.930 . S
H7296 C7312 0.959 . S
H7297 C7312 0.959 . S
H7298 C7312 0.961 . S
H7299 C7313 0.960 . S
H7300 C7313 0.961 . S
H7301 C7313 0.959 . S
H7302 C7316 0.929 . S
H7303 C7317 0.931 . S
H7304 C7319 0.930 . S
C7305 H7293 0.930 . S
C7305 C7306 1.399 . S
C7305 C7310 1.399 . S
C7306 C7305 1.399 . S
C7306 C7307 1.376 . S
C7307 H7294 0.930 . S
C7307 C7306 1.376 . S
C7307 C7308 1.388 . S
C7308 H7295 0.930 . S
C7308 C7307 1.388 . S
C7308 C7309 1.390 . S
C7309 C7308 1.390 . S
C7309 C7310 1.394 . S
C7309 C7315 1.465 . S
C7310 C7305 1.399 . S
C7310 C7309 1.394 . S
C7310 C7311 1.516 . S
C7311 C7310 1.516 . S
C7311 C7312 1.502 . S
C7311 C7313 1.561 . S
C7311 C7314 1.526 . S
C7312 H7296 0.959 . S
C7312 H7297 0.959 . S
C7312 H7298 0.961 . S
C7312 C7311 1.502 . S
C7313 H7299 0.960 . S
C7313 H7300 0.961 . S
C7313 H7301 0.959 . S
C7313 C7311 1.561 . S
C7314 C7311 1.526 . S
C7314 C7315 1.396 . S
C7314 C7319 1.390 . S
C7315 C7309 1.465 . S
C7315 C7314 1.396 . S
C7315 C7316 1.399 . S
C7316 H7302 0.929 . S
C7316 C7315 1.399 . S
C7316 C7317 1.385 . S
C7317 H7303 0.931 . S
C7317 C7316 1.385 . S
C7317 C7318 1.389 . S
C7318 C7317 1.389 . S
C7318 C7319 1.387 . S
C7319 H7304 0.930 . S
C7319 C7314 1.390 . S
C7319 C7318 1.387 . S
H7320 C7332 0.930 . S
H7321 C7334 0.930 . S
H7322 C7335 0.930 . S
H7323 C7339 0.959 . S
H7324 C7339 0.959 . S
H7325 C7339 0.961 . S
H7326 C7340 0.960 . S
H7327 C7340 0.961 . S
H7328 C7340 0.959 . S
H7329 C7343 0.929 . S
H7330 C7344 0.931 . S
H7331 C7346 0.930 . S
C7332 H7320 0.930 . S
C7332 C7333 1.399 . S
C7332 C7337 1.399 . S
C7333 C7332 1.399 . S
C7333 C7334 1.376 . S
C7334 H7321 0.930 . S
C7334 C7333 1.376 . S
C7334 C7335 1.388 . S
C7335 H7322 0.930 . S
C7335 C7334 1.388 . S
C7335 C7336 1.390 . S
C7336 C7335 1.390 . S
C7336 C7337 1.394 . S
C7336 C7342 1.465 . S
C7337 C7332 1.399 . S
C7337 C7336 1.394 . S
C7337 C7338 1.516 . S
C7338 C7337 1.516 . S
C7338 C7339 1.502 . S
C7338 C7340 1.561 . S
C7338 C7341 1.526 . S
C7339 H7323 0.959 . S
C7339 H7324 0.959 . S
C7339 H7325 0.961 . S
C7339 C7338 1.502 . S
C7340 H7326 0.960 . S
C7340 H7327 0.961 . S
C7340 H7328 0.959 . S
C7340 C7338 1.561 . S
C7341 C7338 1.526 . S
C7341 C7342 1.396 . S
C7341 C7346 1.390 . S
C7342 C7336 1.465 . S
C7342 C7341 1.396 . S
C7342 C7343 1.399 . S
C7343 H7329 0.929 . S
C7343 C7342 1.399 . S
C7343 C7344 1.385 . S
C7344 H7330 0.931 . S
C7344 C7343 1.385 . S
C7344 C7345 1.389 . S
C7345 C7344 1.389 . S
C7345 C7346 1.387 . S
C7346 H7331 0.930 . S
C7346 C7341 1.390 . S
C7346 C7345 1.387 . S
H7347 C7359 0.930 . S
H7348 C7361 0.930 . S
H7349 C7362 0.930 . S
H7350 C7366 0.959 . S
H7351 C7366 0.959 . S
H7352 C7366 0.961 . S
H7353 C7367 0.960 . S
H7354 C7367 0.961 . S
H7355 C7367 0.959 . S
H7356 C7370 0.929 . S
H7357 C7371 0.931 . S
H7358 C7373 0.930 . S
C7359 H7347 0.930 . S
C7359 C7360 1.399 . S
C7359 C7364 1.399 . S
C7360 C7359 1.399 . S
C7360 C7361 1.376 . S
C7361 H7348 0.930 . S
C7361 C7360 1.376 . S
C7361 C7362 1.388 . S
C7362 H7349 0.930 . S
C7362 C7361 1.388 . S
C7362 C7363 1.390 . S
C7363 C7362 1.390 . S
C7363 C7364 1.394 . S
C7363 C7369 1.465 . S
C7364 C7359 1.399 . S
C7364 C7363 1.394 . S
C7364 C7365 1.516 . S
C7365 C7364 1.516 . S
C7365 C7366 1.502 . S
C7365 C7367 1.561 . S
C7365 C7368 1.526 . S
C7366 H7350 0.959 . S
C7366 H7351 0.959 . S
C7366 H7352 0.961 . S
C7366 C7365 1.502 . S
C7367 H7353 0.960 . S
C7367 H7354 0.961 . S
C7367 H7355 0.959 . S
C7367 C7365 1.561 . S
C7368 C7365 1.526 . S
C7368 C7369 1.396 . S
C7368 C7373 1.390 . S
C7369 C7363 1.465 . S
C7369 C7368 1.396 . S
C7369 C7370 1.399 . S
C7370 H7356 0.929 . S
C7370 C7369 1.399 . S
C7370 C7371 1.385 . S
C7371 H7357 0.931 . S
C7371 C7370 1.385 . S
C7371 C7372 1.389 . S
C7372 C7371 1.389 . S
C7372 C7373 1.387 . S
C7373 H7358 0.930 . S
C7373 C7368 1.390 . S
C7373 C7372 1.387 . S
H7374 C7386 0.930 . S
H7375 C7388 0.930 . S
H7376 C7389 0.930 . S
H7377 C7393 0.959 . S
H7378 C7393 0.959 . S
H7379 C7393 0.961 . S
H7380 C7394 0.960 . S
H7381 C7394 0.961 . S
H7382 C7394 0.959 . S
H7383 C7397 0.929 . S
H7384 C7398 0.931 . S
H7385 C7400 0.930 . S
C7386 H7374 0.930 . S
C7386 C7387 1.399 . S
C7386 C7391 1.399 . S
C7387 C7386 1.399 . S
C7387 C7388 1.376 . S
C7388 H7375 0.930 . S
C7388 C7387 1.376 . S
C7388 C7389 1.388 . S
C7389 H7376 0.930 . S
C7389 C7388 1.388 . S
C7389 C7390 1.390 . S
C7390 C7389 1.390 . S
C7390 C7391 1.394 . S
C7390 C7396 1.465 . S
C7391 C7386 1.399 . S
C7391 C7390 1.394 . S
C7391 C7392 1.516 . S
C7392 C7391 1.516 . S
C7392 C7393 1.502 . S
C7392 C7394 1.561 . S
C7392 C7395 1.526 . S
C7393 H7377 0.959 . S
C7393 H7378 0.959 . S
C7393 H7379 0.961 . S
C7393 C7392 1.502 . S
C7394 H7380 0.960 . S
C7394 H7381 0.961 . S
C7394 H7382 0.959 . S
C7394 C7392 1.561 . S
C7395 C7392 1.526 . S
C7395 C7396 1.396 . S
C7395 C7400 1.390 . S
C7396 C7390 1.465 . S
C7396 C7395 1.396 . S
C7396 C7397 1.399 . S
C7397 H7383 0.929 . S
C7397 C7396 1.399 . S
C7397 C7398 1.385 . S
C7398 H7384 0.931 . S
C7398 C7397 1.385 . S
C7398 C7399 1.389 . S
C7399 C7398 1.389 . S
C7399 C7400 1.387 . S
C7400 H7385 0.930 . S
C7400 C7395 1.390 . S
C7400 C7399 1.387 . S
H7401 C7413 0.930 . S
H7402 C7415 0.930 . S
H7403 C7416 0.930 . S
H7404 C7420 0.959 . S
H7405 C7420 0.959 . S
H7406 C7420 0.961 . S
H7407 C7421 0.960 . S
H7408 C7421 0.961 . S
H7409 C7421 0.959 . S
H7410 C7424 0.929 . S
H7411 C7425 0.931 . S
H7412 C7427 0.930 . S
C7413 H7401 0.930 . S
C7413 C7414 1.399 . S
C7413 C7418 1.399 . S
C7414 C7413 1.399 . S
C7414 C7415 1.376 . S
C7415 H7402 0.930 . S
C7415 C7414 1.376 . S
C7415 C7416 1.388 . S
C7416 H7403 0.930 . S
C7416 C7415 1.388 . S
C7416 C7417 1.390 . S
C7417 C7416 1.390 . S
C7417 C7418 1.394 . S
C7417 C7423 1.465 . S
C7418 C7413 1.399 . S
C7418 C7417 1.394 . S
C7418 C7419 1.516 . S
C7419 C7418 1.516 . S
C7419 C7420 1.502 . S
C7419 C7421 1.561 . S
C7419 C7422 1.526 . S
C7420 H7404 0.959 . S
C7420 H7405 0.959 . S
C7420 H7406 0.961 . S
C7420 C7419 1.502 . S
C7421 H7407 0.960 . S
C7421 H7408 0.961 . S
C7421 H7409 0.959 . S
C7421 C7419 1.561 . S
C7422 C7419 1.526 . S
C7422 C7423 1.396 . S
C7422 C7427 1.390 . S
C7423 C7417 1.465 . S
C7423 C7422 1.396 . S
C7423 C7424 1.399 . S
C7424 H7410 0.929 . S
C7424 C7423 1.399 . S
C7424 C7425 1.385 . S
C7425 H7411 0.931 . S
C7425 C7424 1.385 . S
C7425 C7426 1.389 . S
C7426 C7425 1.389 . S
C7426 C7427 1.387 . S
C7427 H7412 0.930 . S
C7427 C7422 1.390 . S
C7427 C7426 1.387 . S
H7428 C7440 0.930 . S
H7429 C7442 0.930 . S
H7430 C7443 0.930 . S
H7431 C7447 0.959 . S
H7432 C7447 0.959 . S
H7433 C7447 0.961 . S
H7434 C7448 0.960 . S
H7435 C7448 0.961 . S
H7436 C7448 0.959 . S
H7437 C7451 0.929 . S
H7438 C7452 0.931 . S
H7439 C7454 0.930 . S
C7440 H7428 0.930 . S
C7440 C7441 1.399 . S
C7440 C7445 1.399 . S
C7441 C7440 1.399 . S
C7441 C7442 1.376 . S
C7442 H7429 0.930 . S
C7442 C7441 1.376 . S
C7442 C7443 1.388 . S
C7443 H7430 0.930 . S
C7443 C7442 1.388 . S
C7443 C7444 1.390 . S
C7444 C7443 1.390 . S
C7444 C7445 1.394 . S
C7444 C7450 1.465 . S
C7445 C7440 1.399 . S
C7445 C7444 1.394 . S
C7445 C7446 1.516 . S
C7446 C7445 1.516 . S
C7446 C7447 1.502 . S
C7446 C7448 1.561 . S
C7446 C7449 1.526 . S
C7447 H7431 0.959 . S
C7447 H7432 0.959 . S
C7447 H7433 0.961 . S
C7447 C7446 1.502 . S
C7448 H7434 0.960 . S
C7448 H7435 0.961 . S
C7448 H7436 0.959 . S
C7448 C7446 1.561 . S
C7449 C7446 1.526 . S
C7449 C7450 1.396 . S
C7449 C7454 1.390 . S
C7450 C7444 1.465 . S
C7450 C7449 1.396 . S
C7450 C7451 1.399 . S
C7451 H7437 0.929 . S
C7451 C7450 1.399 . S
C7451 C7452 1.385 . S
C7452 H7438 0.931 . S
C7452 C7451 1.385 . S
C7452 C7453 1.389 . S
C7453 C7452 1.389 . S
C7453 C7454 1.387 . S
C7454 H7439 0.930 . S
C7454 C7449 1.390 . S
C7454 C7453 1.387 . S
H7455 C7467 0.930 . S
H7456 C7469 0.930 . S
H7457 C7470 0.930 . S
H7458 C7474 0.959 . S
H7459 C7474 0.959 . S
H7460 C7474 0.961 . S
H7461 C7475 0.960 . S
H7462 C7475 0.961 . S
H7463 C7475 0.959 . S
H7464 C7478 0.929 . S
H7465 C7479 0.931 . S
H7466 C7481 0.930 . S
C7467 H7455 0.930 . S
C7467 C7468 1.399 . S
C7467 C7472 1.399 . S
C7468 C7467 1.399 . S
C7468 C7469 1.376 . S
C7469 H7456 0.930 . S
C7469 C7468 1.376 . S
C7469 C7470 1.388 . S
C7470 H7457 0.930 . S
C7470 C7469 1.388 . S
C7470 C7471 1.390 . S
C7471 C7470 1.390 . S
C7471 C7472 1.394 . S
C7471 C7477 1.465 . S
C7472 C7467 1.399 . S
C7472 C7471 1.394 . S
C7472 C7473 1.516 . S
C7473 C7472 1.516 . S
C7473 C7474 1.502 . S
C7473 C7475 1.561 . S
C7473 C7476 1.526 . S
C7474 H7458 0.959 . S
C7474 H7459 0.959 . S
C7474 H7460 0.961 . S
C7474 C7473 1.502 . S
C7475 H7461 0.960 . S
C7475 H7462 0.961 . S
C7475 H7463 0.959 . S
C7475 C7473 1.561 . S
C7476 C7473 1.526 . S
C7476 C7477 1.396 . S
C7476 C7481 1.390 . S
C7477 C7471 1.465 . S
C7477 C7476 1.396 . S
C7477 C7478 1.399 . S
C7478 H7464 0.929 . S
C7478 C7477 1.399 . S
C7478 C7479 1.385 . S
C7479 H7465 0.931 . S
C7479 C7478 1.385 . S
C7479 C7480 1.389 . S
C7480 C7479 1.389 . S
C7480 C7481 1.387 . S
C7481 H7466 0.930 . S
C7481 C7476 1.390 . S
C7481 C7480 1.387 . S
H7482 C7494 0.930 . S
H7483 C7496 0.930 . S
H7484 C7497 0.930 . S
H7485 C7501 0.959 . S
H7486 C7501 0.959 . S
H7487 C7501 0.961 . S
H7488 C7502 0.960 . S
H7489 C7502 0.961 . S
H7490 C7502 0.959 . S
H7491 C7505 0.929 . S
H7492 C7506 0.931 . S
H7493 C7508 0.930 . S
C7494 H7482 0.930 . S
C7494 C7495 1.399 . S
C7494 C7499 1.399 . S
C7495 C7494 1.399 . S
C7495 C7496 1.376 . S
C7496 H7483 0.930 . S
C7496 C7495 1.376 . S
C7496 C7497 1.388 . S
C7497 H7484 0.930 . S
C7497 C7496 1.388 . S
C7497 C7498 1.390 . S
C7498 C7497 1.390 . S
C7498 C7499 1.394 . S
C7498 C7504 1.465 . S
C7499 C7494 1.399 . S
C7499 C7498 1.394 . S
C7499 C7500 1.516 . S
C7500 C7499 1.516 . S
C7500 C7501 1.502 . S
C7500 C7502 1.561 . S
C7500 C7503 1.526 . S
C7501 H7485 0.959 . S
C7501 H7486 0.959 . S
C7501 H7487 0.961 . S
C7501 C7500 1.502 . S
C7502 H7488 0.960 . S
C7502 H7489 0.961 . S
C7502 H7490 0.959 . S
C7502 C7500 1.561 . S
C7503 C7500 1.526 . S
C7503 C7504 1.396 . S
C7503 C7508 1.390 . S
C7504 C7498 1.465 . S
C7504 C7503 1.396 . S
C7504 C7505 1.399 . S
C7505 H7491 0.929 . S
C7505 C7504 1.399 . S
C7505 C7506 1.385 . S
C7506 H7492 0.931 . S
C7506 C7505 1.385 . S
C7506 C7507 1.389 . S
C7507 C7506 1.389 . S
C7507 C7508 1.387 . S
C7508 H7493 0.930 . S
C7508 C7503 1.390 . S
C7508 C7507 1.387 . S
H7509 C7521 0.930 . S
H7510 C7523 0.930 . S
H7511 C7524 0.930 . S
H7512 C7528 0.959 . S
H7513 C7528 0.959 . S
H7514 C7528 0.961 . S
H7515 C7529 0.960 . S
H7516 C7529 0.961 . S
H7517 C7529 0.959 . S
H7518 C7532 0.929 . S
H7519 C7533 0.931 . S
H7520 C7535 0.930 . S
C7521 H7509 0.930 . S
C7521 C7522 1.399 . S
C7521 C7526 1.399 . S
C7522 C7521 1.399 . S
C7522 C7523 1.376 . S
C7523 H7510 0.930 . S
C7523 C7522 1.376 . S
C7523 C7524 1.388 . S
C7524 H7511 0.930 . S
C7524 C7523 1.388 . S
C7524 C7525 1.390 . S
C7525 C7524 1.390 . S
C7525 C7526 1.394 . S
C7525 C7531 1.465 . S
C7526 C7521 1.399 . S
C7526 C7525 1.394 . S
C7526 C7527 1.516 . S
C7527 C7526 1.516 . S
C7527 C7528 1.502 . S
C7527 C7529 1.561 . S
C7527 C7530 1.526 . S
C7528 H7512 0.959 . S
C7528 H7513 0.959 . S
C7528 H7514 0.961 . S
C7528 C7527 1.502 . S
C7529 H7515 0.960 . S
C7529 H7516 0.961 . S
C7529 H7517 0.959 . S
C7529 C7527 1.561 . S
C7530 C7527 1.526 . S
C7530 C7531 1.396 . S
C7530 C7535 1.390 . S
C7531 C7525 1.465 . S
C7531 C7530 1.396 . S
C7531 C7532 1.399 . S
C7532 H7518 0.929 . S
C7532 C7531 1.399 . S
C7532 C7533 1.385 . S
C7533 H7519 0.931 . S
C7533 C7532 1.385 . S
C7533 C7534 1.389 . S
C7534 C7533 1.389 . S
C7534 C7535 1.387 . S
C7535 H7520 0.930 . S
C7535 C7530 1.390 . S
C7535 C7534 1.387 . S
C3661 C1781 1.733 . S
C3673 C1951 1.654 . S
C3688 C981 1.734 . S
C3700 C1987 1.725 . S
C3727 C2023 1.694 . S
C3715 C1861 1.681 . S
C3742 C1061 1.662 . S
C3754 C2059 1.660 . S
C3769 C1901 1.732 . S
C3781 C2095 1.710 . S
C3796 C941 1.730 . S
C3808 C2131 1.654 . S
C3823 C1821 1.698 . S
C3835 C2167 1.699 . S
C3850 C1021 1.678 . S
C3862 C2203 1.700 . S
C3877 C661 1.726 . S
C3889 C2239 1.700 . S
C3904 C1621 1.704 . S
C3916 C2275 1.712 . S
C3931 C741 1.719 . S
C3943 C2311 1.696 . S
C3958 C1581 1.743 . S
C3970 C2347 1.656 . S
C3985 C901 1.639 . S
C3997 C2383 1.719 . S
C4024 C2419 1.674 . S
C4012 C1661 1.645 . S
C4051 C2455 1.696 . S
C4039 C821 1.738 . S
C4066 C1141 1.695 . S
C4078 C2491 1.682 . S
C4105 C2527 1.688 . S
C4093 C781 1.695 . S
C4132 C2563 1.711 . S
C4120 C1701 1.737 . S
C4147 C861 1.674 . S
C4159 C2599 1.714 . S
C4174 C1181 1.718 . S
C4186 C2635 1.657 . S
C4213 C2671 1.695 . S
C4201 C1101 1.735 . S
C4228 C1421 1.704 . S
C4240 C2707 1.672 . S
C4267 C2743 1.643 . S
C4255 C381 1.694 . S
C4294 C2779 1.699 . S
C4282 C1501 1.661 . S
C4321 C2815 1.694 . S
C4309 C461 1.741 . S
C4348 C2851 1.708 . S
C4336 C1541 1.735 . S
C4363 C341 1.702 . S
C4375 C2887 1.630 . S
C4402 C2923 1.665 . S
C4390 C1461 1.706 . S
C4417 C421 1.659 . S
C4429 C2959 1.698 . S
C4456 C2995 1.696 . S
C4444 C61 1.725 . S
C4483 C3031 1.663 . S
C4471 C1261 1.738 . S
C4498 C141 1.730 . S
C4510 C3067 1.693 . S
C4537 C3103 1.680 . S
C4525 C1221 1.644 . S
C4564 C3139 1.749 . S
C4552 C301 1.723 . S
C4579 C1301 1.702 . S
C4591 C3175 1.710 . S
C4618 C3211 1.707 . S
C4606 C221 1.733 . S
C4645 C3247 1.711 . S
C4633 C541 1.632 . S
C4660 C181 1.701 . S
C4672 C3283 1.707 . S
C4699 C3319 1.663 . S
C4687 C1341 1.748 . S
C4714 C261 1.636 . S
C4726 C3355 1.714 . S
C4753 C3391 1.706 . S
C4741 C581 1.736 . S
C4768 C501 1.719 . S
C4780 C3427 1.626 . S
C4795 C701 1.666 . S
C4807 C3463 1.676 . S
C4834 C3499 1.650 . S
C4822 C621 1.741 . S
C4849 C1741 1.695 . S
C4861 C3535 1.683 . S
C4876 C101 1.737 . S
C4888 C3571 1.695 . S
C4915 C3607 1.670 . S
C4903 C21 1.639 . S
C4942 C3643 1.741 . S
C4930 C1381 1.695 . S
C4957 C1335 1.584 . S
C4969 C1921 1.545 . S
C4984 C535 2.146 . S
C4996 C1957 2.126 . S
C5011 C1362 1.577 . S
C5023 C2017 1.595 . S
C5050 C2053 2.002 . S
C5038 C1295 2.108 . S
C5065 C575 1.571 . S
C5077 C2065 1.537 . S
C5092 C1215 2.080 . S
C5104 C2125 2.056 . S
C5131 C2137 1.577 . S
C5119 C495 1.601 . S
C5146 C1242 2.175 . S
C5158 C2173 2.091 . S
C5173 C1255 1.596 . S
C5185 C2209 1.585 . S
C5212 C2269 2.024 . S
C5200 C562 2.182 . S
C5227 C1202 1.546 . S
C5239 C2281 1.519 . S
C5266 C2341 2.059 . S
C5254 C482 2.193 . S
C5281 C522 1.553 . S
C5293 C2377 1.584 . S
C5308 C1375 2.083 . S
C5320 C2413 2.036 . S
C5347 C2425 1.574 . S
C5335 C1282 1.542 . S
C5374 C2461 2.158 . S
C5362 C1322 2.161 . S
C5389 C455 1.614 . S
C5401 C2317 1.560 . S
C5416 C1415 1.576 . S
C5428 C2497 1.519 . S
C5443 C1455 2.077 . S
C5455 C2557 2.073 . S
C5482 C2593 1.567 . S
C5470 C1482 1.521 . S
C5509 C2353 2.093 . S
C5497 C442 2.146 . S
C5524 C362 1.560 . S
C5536 C2245 1.519 . S
C5551 C1495 2.134 . S
C5563 C2629 2.000 . S
C5590 C2665 1.979 . S
C5578 C1402 2.170 . S
C5617 C2677 2.078 . S
C5605 C1695 2.072 . S
C5632 C1135 1.606 . S
C5644 C2737 1.534 . S
C5671 C2749 2.080 . S
C5659 C1722 2.026 . S
C5698 C2809 1.577 . S
C5686 C1655 1.586 . S
C5713 C1175 2.101 . S
C5725 C2821 2.079 . S
C5740 C1562 1.577 . S
C5752 C2881 1.549 . S
C5767 C1095 2.101 . S
C5779 C2893 2.107 . S
C5806 C2953 1.551 . S
C5794 C1615 1.589 . S
C5833 C2965 2.049 . S
C5821 C1602 2.101 . S
C5848 C1162 1.570 . S
C5860 C3025 1.551 . S
C5887 C3037 2.042 . S
C5875 C1575 2.087 . S
C5902 C1082 1.601 . S
C5914 C3097 1.577 . S
C5941 C3133 2.116 . S
C5929 C1122 2.114 . S
C5956 C1735 1.569 . S
C5968 C3145 1.594 . S
C5995 C3181 2.077 . S
C5983 C1642 2.033 . S
C6010 C1682 1.597 . S
C6022 C3217 1.599 . S
C6037 C1042 2.094 . S
C6049 C3073 2.023 . S
C6064 C1775 2.086 . S
C6076 C3277 2.132 . S
C6091 C1815 1.596 . S
C6103 C3313 1.572 . S
C6130 C3349 2.149 . S
C6118 C1842 2.021 . S
C6145 C1055 1.582 . S
C6157 C3109 1.603 . S
C6172 C975 2.075 . S
C6184 C3001 2.089 . S
C6211 C3385 1.508 . S
C6199 C1855 1.560 . S
C6226 C1762 1.589 . S
C6238 C3421 1.548 . S
C6265 C2101 1.585 . S
C6253 C215 1.614 . S
C6292 C2161 2.025 . S
C6280 C255 2.079 . S
C6319 C2197 1.595 . S
C6307 C282 1.576 . S
C6346 C2089 2.042 . S
C6334 C175 2.128 . S
C6373 C2029 1.522 . S
C6361 C135 1.555 . S
C6388 C15 2.116 . S
C6400 C1945 2.005 . S
C6415 C55 1.587 . S
C6427 C1981 1.577 . S
C6442 C82 2.162 . S
C6454 C1993 2.123 . S
C6469 C95 1.597 . S
C6481 C2641 1.593 . S
C6496 C122 2.188 . S
C6508 C3457 2.002 . S
C6523 C2 1.576 . S
C6535 C2605 1.540 . S
C6550 C42 2.193 . S
C6562 C3493 2.051 . S
C6577 C242 1.539 . S
C6589 C3529 1.549 . S
C6616 C2521 2.035 . S
C6604 C295 2.116 . S
C6631 C162 1.517 . S
C6643 C2533 1.553 . S
C6658 C202 2.165 . S
C6670 C2569 2.098 . S
C6697 C3469 1.544 . S
C6685 C1535 1.585 . S
C6712 C335 1.572 . S
C6724 C2389 1.518 . S
C6739 C375 2.125 . S
C6751 C2449 2.004 . S
C6766 C402 1.572 . S
C6778 C2485 1.576 . S
C6805 C3505 2.124 . S
C6793 C1522 2.123 . S
C6832 C3433 1.523 . S
C6820 C1442 1.562 . S
C6859 C2305 2.006 . S
C6847 C415 2.145 . S
C6874 C322 2.128 . S
C6886 C2233 2.042 . S
C6901 C815 2.058 . S
C6913 C2857 2.074 . S
C6928 C855 1.579 . S
C6940 C2917 1.570 . S
C6955 C882 2.093 . S
C6967 C2929 2.026 . S
C6982 C775 1.591 . S
C6994 C2845 1.573 . S
C7021 C2785 2.088 . S
C7009 C735 2.069 . S
C7048 C2701 1.537 . S
C7036 C602 1.581 . S
C7075 C2713 2.036 . S
C7063 C655 2.153 . S
C7090 C695 1.624 . S
C7102 C2773 1.563 . S
C7129 C3397 2.038 . S
C7117 C682 2.098 . S
C7144 C722 1.584 . S
C7156 C3565 1.565 . S
C7171 C615 2.081 . S
C7183 C3361 2.070 . S
C7210 C3601 1.563 . S
C7198 C642 1.586 . S
C7225 C842 2.071 . S
C7237 C3637 2.156 . S
C7264 C3253 1.564 . S
C7252 C895 1.582 . S
C7279 C762 2.083 . S
C7291 C3289 2.056 . S
C7306 C802 1.595 . S
C7318 C3325 1.601 . S
C7333 C1895 2.126 . S
C7345 C3577 2.061 . S
C7372 C3169 2.153 . S
C7360 C935 2.088 . S
C7387 C962 1.598 . S
C7399 C3205 1.524 . S
C7414 C1002 2.022 . S
C7426 C3241 2.148 . S
C7441 C1882 1.612 . S
C7453 C3613 1.592 . S
C7468 C1802 2.068 . S
C7480 C3541 2.018 . S
C7507 C3061 1.548 . S
C7495 C1015 1.558 . S
C7534 C2989 1.504 . S
C7522 C922 1.595 . S
