# Generated by pormake.
# Topology pto, (3,4)-cn, num edge types: 1
# Building blocks:
#     Node 0, Type 0, BuildingBlock: PAMTOO_clean_linker_0, # of connection points: 3
#     Node 1, Type 0, BuildingBlock: PAMTOO_clean_linker_0, # of connection points: 3
#     Node 2, Type 0, BuildingBlock: PAMTOO_clean_linker_0, # of connection points: 3
#     Node 3, Type 0, BuildingBlock: PAMTOO_clean_linker_0, # of connection points: 3
#     Node 4, Type 0, BuildingBlock: PAMTOO_clean_linker_0, # of connection points: 3
#     Node 5, Type 0, BuildingBlock: PAMTOO_clean_linker_0, # of connection points: 3
#     Node 6, Type 0, BuildingBlock: PAMTOO_clean_linker_0, # of connection points: 3
#     Node 7, Type 0, BuildingBlock: PAMTOO_clean_linker_0, # of connection points: 3
#     Node 8, Type 1, BuildingBlock: NAWXER_clean_sbu_0, # of connection points: 4
#     Node 9, Type 1, BuildingBlock: NAWXER_clean_sbu_0, # of connection points: 4
#     Node 10, Type 1, BuildingBlock: NAWXER_clean_sbu_0, # of connection points: 4
#     Node 11, Type 1, BuildingBlock: NAWXER_clean_sbu_0, # of connection points: 4
#     Node 12, Type 1, BuildingBlock: NAWXER_clean_sbu_0, # of connection points: 4
#     Node 13, Type 1, BuildingBlock: NAWXER_clean_sbu_0, # of connection points: 4
#     Edge 14, Type (0, 1), BuildingBlock: UVAHIK_clean_linker_0, # of connection points: 2
#     Edge 15, Type (0, 1), BuildingBlock: UVAHIK_clean_linker_0, # of connection points: 2
#     Edge 16, Type (0, 1), BuildingBlock: UVAHIK_clean_linker_0, # of connection points: 2
#     Edge 17, Type (0, 1), BuildingBlock: UVAHIK_clean_linker_0, # of connection points: 2
#     Edge 18, Type (0, 1), BuildingBlock: UVAHIK_clean_linker_0, # of connection points: 2
#     Edge 19, Type (0, 1), BuildingBlock: UVAHIK_clean_linker_0, # of connection points: 2
#     Edge 20, Type (0, 1), BuildingBlock: UVAHIK_clean_linker_0, # of connection points: 2
#     Edge 21, Type (0, 1), BuildingBlock: UVAHIK_clean_linker_0, # of connection points: 2
#     Edge 22, Type (0, 1), BuildingBlock: UVAHIK_clean_linker_0, # of connection points: 2
#     Edge 23, Type (0, 1), BuildingBlock: UVAHIK_clean_linker_0, # of connection points: 2
#     Edge 24, Type (0, 1), BuildingBlock: UVAHIK_clean_linker_0, # of connection points: 2
#     Edge 25, Type (0, 1), BuildingBlock: UVAHIK_clean_linker_0, # of connection points: 2
#     Edge 26, Type (0, 1), BuildingBlock: UVAHIK_clean_linker_0, # of connection points: 2
#     Edge 27, Type (0, 1), BuildingBlock: UVAHIK_clean_linker_0, # of connection points: 2
#     Edge 28, Type (0, 1), BuildingBlock: UVAHIK_clean_linker_0, # of connection points: 2
#     Edge 29, Type (0, 1), BuildingBlock: UVAHIK_clean_linker_0, # of connection points: 2
#     Edge 30, Type (0, 1), BuildingBlock: UVAHIK_clean_linker_0, # of connection points: 2
#     Edge 31, Type (0, 1), BuildingBlock: UVAHIK_clean_linker_0, # of connection points: 2
#     Edge 32, Type (0, 1), BuildingBlock: UVAHIK_clean_linker_0, # of connection points: 2
#     Edge 33, Type (0, 1), BuildingBlock: UVAHIK_clean_linker_0, # of connection points: 2
#     Edge 34, Type (0, 1), BuildingBlock: UVAHIK_clean_linker_0, # of connection points: 2
#     Edge 35, Type (0, 1), BuildingBlock: UVAHIK_clean_linker_0, # of connection points: 2
#     Edge 36, Type (0, 1), BuildingBlock: UVAHIK_clean_linker_0, # of connection points: 2
#     Edge 37, Type (0, 1), BuildingBlock: UVAHIK_clean_linker_0, # of connection points: 2
# Relax obj value: 0.015
# Max RMSD: 0.153
# Mean RMSD: 0.066
data_MOF--net-pto--node1-NAWXER_clean_sbu_0--node2-PAMTOO_clean_linker_0--edge1-UVAHIK_clean_linker_0
_symmetry_space_group_name_H-M    P1
_symmetry_Int_Tables_number       1
_symmetry_cell_setting            triclinic
loop_
_symmetry_equiv_pos_as_xyz
'x, y, z'
_cell_length_a     56.791043
_cell_length_b     51.310738
_cell_length_c     49.459767
_cell_angle_alpha  82.175271
_cell_angle_beta   83.910785
_cell_angle_gamma 99.740633
loop_
_atom_site_label
_atom_site_type_symbol
_atom_site_fract_x
_atom_site_fract_y
_atom_site_fract_z
_atom_type_partial_charge
H0 H 0.17826 0.30548 0.34508 0.0
H1 H 0.24039 0.28521 0.30052 0.0
H2 H 0.21885 0.35962 0.27508 0.0
H3 H 0.23612 0.33574 0.22686 0.0
C4 C 0.24501 0.32078 0.23828 0.0
O5 O 0.24871 0.3279 0.26363 0.0
H6 H 0.23284 0.3009 0.24079 0.0
C7 C 0.19341 0.31051 0.32886 0.0
C8 C 0.19688 0.33509 0.31111 0.0
C9 C 0.20902 0.29225 0.3256 0.0
C10 C 0.22781 0.29857 0.30349 0.0
C11 C 0.23089 0.32248 0.28509 0.0
C12 C 0.21571 0.34084 0.28907 0.0
H13 H 0.22544 0.78274 0.8081 0.0
H14 H 0.27497 0.74414 0.85158 0.0
H15 H 0.2871 0.82982 0.83356 0.0
H16 H 0.32979 0.81106 0.82885 0.0
C17 C 0.32549 0.79186 0.8434 0.0
O18 O 0.30264 0.78887 0.85748 0.0
H19 H 0.32623 0.77508 0.83141 0.0
C20 C 0.24184 0.78416 0.81762 0.0
C21 C 0.2555 0.80943 0.81874 0.0
C22 C 0.24882 0.76051 0.82894 0.0
C23 C 0.26931 0.76217 0.84264 0.0
C24 C 0.28284 0.78725 0.84444 0.0
C25 C 0.27596 0.81072 0.83258 0.0
H26 H 0.70849 0.78637 0.31262 0.0
H27 H 0.74594 0.72738 0.28312 0.0
H28 H 0.76189 0.75661 0.35757 0.0
H29 H 0.80138 0.75518 0.31073 0.0
C30 C 0.79561 0.73344 0.30994 0.0
O31 O 0.77242 0.72462 0.3233 0.0
H32 H 0.79599 0.73075 0.28799 0.0
C33 C 0.72184 0.77369 0.31474 0.0
C34 C 0.73462 0.77364 0.33753 0.0
C35 C 0.72579 0.75724 0.29487 0.0
C36 C 0.7424 0.74003 0.29835 0.0
C37 C 0.75536 0.73993 0.32095 0.0
C38 C 0.75139 0.75656 0.34051 0.0
H39 H 0.74953 0.33138 0.80025 0.0
H40 H 0.70178 0.27251 0.76753 0.0
H41 H 0.77413 0.30036 0.7278 0.0
H42 H 0.73665 0.29289 0.69063 0.0
C43 C 0.72455 0.27499 0.70312 0.0
O44 O 0.73351 0.26793 0.72732 0.0
H45 H 0.7064 0.28008 0.70766 0.0
C46 C 0.7461 0.31847 0.78493 0.0
C47 C 0.76461 0.31815 0.76374 0.0
C48 C 0.72329 0.30209 0.78661 0.0
C49 C 0.7192 0.28524 0.7668 0.0
C50 C 0.73745 0.28488 0.74563 0.0
C51 C 0.76004 0.30129 0.74404 0.0
H52 H 0.73737 0.77327 0.80474 0.0
H53 H 0.76549 0.71277 0.85401 0.0
H54 H 0.80712 0.75577 0.77911 0.0
H55 H 0.80672 0.69754 0.78828 0.0
C56 C 0.8049 0.69401 0.81118 0.0
O57 O 0.80539 0.71801 0.82091 0.0
H58 H 0.78732 0.68039 0.81886 0.0
C59 C 0.75156 0.76201 0.80823 0.0
C60 C 0.77264 0.76729 0.7891 0.0
C61 C 0.74859 0.74235 0.83177 0.0
C62 C 0.76713 0.72785 0.83597 0.0
C63 C 0.78805 0.73267 0.81694 0.0
C64 C 0.79089 0.75244 0.79372 0.0
H65 H 0.80644 0.29613 0.2894 0.0
H66 H 0.73646 0.26117 0.27124 0.0
H67 H 0.76833 0.34159 0.23513 0.0
H68 H 0.71885 0.33209 0.26321 0.0
C69 C 0.71156 0.3138 0.2547 0.0
O70 O 0.73004 0.30447 0.24088 0.0
H71 H 0.70237 0.29832 0.27233 0.0
C72 C 0.79115 0.29731 0.27823 0.0
C73 C 0.79015 0.32142 0.26135 0.0
C74 C 0.77193 0.27528 0.2821 0.0
C75 C 0.75156 0.27772 0.2687 0.0
C76 C 0.75029 0.30171 0.25218 0.0
C77 C 0.76962 0.32327 0.24818 0.0
H78 H 0.219 0.30845 0.77085 0.0
H79 H 0.25416 0.35774 0.82416 0.0
H80 H 0.29277 0.30643 0.78331 0.0
H81 H 0.29717 0.30674 0.84247 0.0
C82 C 0.29738 0.3284 0.84302 0.0
O83 O 0.29486 0.34108 0.81736 0.0
H84 H 0.28197 0.32997 0.85825 0.0
C85 C 0.23483 0.31536 0.78022 0.0
C86 C 0.25606 0.30523 0.77436 0.0
C87 C 0.23377 0.33412 0.7984 0.0
C88 C 0.25441 0.3431 0.81033 0.0
C89 C 0.27552 0.3331 0.80479 0.0
C90 C 0.27638 0.31433 0.78686 0.0
H91 H 0.23483 0.80322 0.38855 0.0
H92 H 0.27675 0.76699 0.33166 0.0
H93 H 0.3117 0.83093 0.36869 0.0
H94 H 0.33485 0.83198 0.31118 0.0
C95 C 0.32577 0.81151 0.3091 0.0
O96 O 0.31772 0.79701 0.33498 0.0
H97 H 0.31041 0.81363 0.29721 0.0
C98 C 0.25207 0.80201 0.37759 0.0
C99 C 0.2731 0.81946 0.3813 0.0
C100 C 0.25307 0.78323 0.35944 0.0
C101 C 0.27547 0.78151 0.34548 0.0
C102 C 0.29643 0.79857 0.34906 0.0
C103 C 0.29528 0.81747 0.36682 0.0
C104 C 0.97959 0.52939 0.29997 0.0
C105 C 0.04476 0.59696 0.31904 0.0
O106 O 0.98221 0.52777 0.32552 0.0
Zn107 Zn 0.00448 0.54755 0.35157 0.0
O108 O 0.99348 0.54745 0.28249 0.0
Zn109 Zn 0.01246 0.56348 0.30854 0.0
O110 O 0.03128 0.53262 0.32221 0.0
O111 O 0.02066 0.51947 0.36684 0.0
O112 O 0.03852 0.59352 0.29563 0.0
O113 O 0.03352 0.58144 0.34077 0.0
O114 O 0.98073 0.56061 0.37487 0.0
O115 O 0.98715 0.58114 0.33169 0.0
C116 C 0.03304 0.5175 0.34447 0.0
C117 C 0.97647 0.57831 0.35635 0.0
C118 C 0.98608 0.48676 0.79 0.0
C119 C 0.05639 0.54989 0.80515 0.0
O120 O 0.98902 0.48612 0.81541 0.0
Zn121 Zn 0.01287 0.5058 0.84009 0.0
O122 O 0.00069 0.50324 0.77168 0.0
Zn123 Zn 0.02115 0.51907 0.79653 0.0
O124 O 0.03725 0.48639 0.81244 0.0
O125 O 0.02658 0.47661 0.85743 0.0
O126 O 0.04918 0.54661 0.78214 0.0
O127 O 0.04435 0.53615 0.82743 0.0
O128 O 0.99154 0.52325 0.86192 0.0
O129 O 0.99805 0.54053 0.81783 0.0
C130 C 0.03815 0.47215 0.83558 0.0
C131 C 0.98801 0.54035 0.84233 0.0
C132 C 0.21811 0.02278 0.627 0.0
C133 C 0.21249 0.08028 0.54236 0.0
O134 O 0.19915 0.02582 0.61639 0.0
Zn135 Zn 0.21492 0.05124 0.58461 0.0
O136 O 0.23881 0.03491 0.61455 0.0
Zn137 Zn 0.25318 0.06173 0.57709 0.0
O138 O 0.26992 0.09245 0.59072 0.0
O139 O 0.23052 0.08488 0.60253 0.0
O140 O 0.23438 0.07974 0.54628 0.0
O141 O 0.19525 0.0671 0.56004 0.0
O142 O 0.23224 0.02666 0.56006 0.0
O143 O 0.27155 0.04043 0.55673 0.0
C144 C 0.25145 0.09859 0.60337 0.0
C145 C 0.25373 0.02447 0.55106 0.0
C146 C 0.56111 0.76926 0.09474 0.0
C147 C 0.49702 0.77765 0.03722 0.0
O148 O 0.54804 0.74684 0.09268 0.0
Zn149 Zn 0.51793 0.73183 0.07304 0.0
O150 O 0.55664 0.79094 0.08236 0.0
Zn151 Zn 0.52942 0.77468 0.06585 0.0
O152 O 0.50348 0.75901 0.10128 0.0
O153 O 0.49374 0.71507 0.1042 0.0
O154 O 0.51246 0.79667 0.04251 0.0
O155 O 0.49754 0.75343 0.04735 0.0
O156 O 0.53225 0.71041 0.04843 0.0
O157 O 0.54626 0.75382 0.03726 0.0
C158 C 0.49135 0.73643 0.11375 0.0
C159 C 0.54613 0.72985 0.03259 0.0
C160 C 0.76901 0.98298 0.57223 0.0
C161 C 0.76737 0.05104 0.49308 0.0
O162 O 0.74761 0.98546 0.56772 0.0
Zn163 Zn 0.73047 0.00937 0.5397 0.0
O164 O 0.78698 0.99828 0.55726 0.0
Zn165 Zn 0.76891 0.01767 0.53293 0.0
O166 O 0.75277 0.04197 0.55862 0.0
O167 O 0.71329 0.02909 0.56317 0.0
O168 O 0.78588 0.04411 0.50218 0.0
O169 O 0.74632 0.03963 0.50519 0.0
O170 O 0.71236 0.98241 0.52235 0.0
O171 O 0.75181 0.98674 0.5126 0.0
C172 C 0.73162 0.04452 0.56849 0.0
C173 C 0.73046 0.97515 0.51017 0.0
C174 C 0.53908 0.35617 0.06811 0.0
C175 C 0.48942 0.36874 0.99424 0.0
O176 O 0.52764 0.33414 0.06269 0.0
Zn177 Zn 0.50308 0.32096 0.03536 0.0
O178 O 0.53642 0.37828 0.05483 0.0
Zn179 Zn 0.51391 0.36343 0.0315 0.0
O180 O 0.48194 0.3466 0.05963 0.0
O181 O 0.4744 0.30294 0.06002 0.0
O182 O 0.50161 0.38712 0.00462 0.0
O183 O 0.48878 0.34411 0.0039 0.0
O184 O 0.52126 0.30043 0.01389 0.0
O185 O 0.53586 0.34387 0.00573 0.0
C186 C 0.46867 0.32358 0.06859 0.0
C187 C 0.53686 0.32012 0.00087 0.0
C188 C 0.17323 0.35847 0.34286 0.0
C189 C 0.18088 0.35463 0.3159 0.0
C190 C 0.15781 0.37637 0.34752 0.0
C191 C 0.13729 0.4353 0.3139 0.0
H192 H 0.08152 0.4136 0.36992 0.0
C193 C 0.06055 0.49441 0.31773 0.0
C194 C 0.04966 0.4982 0.34342 0.0
C195 C 0.07687 0.47708 0.31604 0.0
C196 C 0.0972 0.42012 0.3545 0.0
H197 H 0.1782 0.36668 0.27274 0.0
H198 H 0.15155 0.39822 0.28088 0.0
H199 H 0.10974 0.38319 0.36362 0.0
H200 H 0.04717 0.4864 0.38757 0.0
H201 H 0.07613 0.45615 0.38462 0.0
H202 H 0.12494 0.47218 0.30473 0.0
C203 C 0.15764 0.38744 0.29838 0.0
C204 C 0.11333 0.40268 0.35084 0.0
C205 C 0.17295 0.3694 0.29371 0.0
C206 C 0.05525 0.48389 0.36747 0.0
C207 C 0.07176 0.46652 0.36577 0.0
C208 C 0.12129 0.45275 0.31764 0.0
C209 C 0.14984 0.39103 0.32534 0.0
C210 C 0.13334 0.40996 0.33023 0.0
C211 C 0.08293 0.46314 0.33998 0.0
C212 C 0.10082 0.44522 0.33766 0.0
H213 H 0.17936 0.34781 0.36041 0.0
H214 H 0.15236 0.379 0.36849 0.0
H215 H 0.15281 0.44167 0.29822 0.0
H216 H 0.0565 0.50485 0.29873 0.0
H217 H 0.08464 0.47449 0.29584 0.0
C218 C 0.2269 0.73029 0.80055 0.0
C219 C 0.23435 0.73438 0.8261 0.0
C220 C 0.2106 0.70734 0.79829 0.0
C221 C 0.16143 0.65873 0.84018 0.0
H222 H 0.16279 0.62255 0.77624 0.0
C223 C 0.0875 0.56981 0.83225 0.0
C224 C 0.07863 0.56904 0.80682 0.0
C225 C 0.10817 0.58796 0.83448 0.0
C226 C 0.16207 0.63262 0.79411 0.0
H227 H 0.23165 0.71706 0.869 0.0
H228 H 0.20313 0.67663 0.86507 0.0
H229 H 0.19709 0.65678 0.7808 0.0
H230 H 0.08479 0.58654 0.76366 0.0
H231 H 0.12082 0.61876 0.76765 0.0
H232 H 0.12628 0.63517 0.85324 0.0
C233 C 0.20974 0.6914 0.84685 0.0
C234 C 0.18175 0.65212 0.79678 0.0
C235 C 0.22619 0.71437 0.84908 0.0
C236 C 0.09115 0.58665 0.78353 0.0
C237 C 0.11187 0.60497 0.7858 0.0
C238 C 0.14177 0.63932 0.83749 0.0
C239 C 0.20133 0.68797 0.82156 0.0
C240 C 0.18155 0.66555 0.81975 0.0
C241 C 0.12048 0.60597 0.81138 0.0
C242 C 0.14177 0.62614 0.81434 0.0
H243 H 0.23315 0.74529 0.78243 0.0
H244 H 0.20439 0.70544 0.77856 0.0
H245 H 0.16047 0.66908 0.85784 0.0
H246 H 0.07849 0.55635 0.85059 0.0
H247 H 0.11454 0.58782 0.85437 0.0
C248 C 0.80657 0.69031 0.33242 0.0
C249 C 0.81307 0.71795 0.32266 0.0
C250 C 0.82382 0.67576 0.34138 0.0
C251 C 0.88793 0.67639 0.3275 0.0
H252 H 0.87989 0.62531 0.39474 0.0
C253 C 0.96474 0.62281 0.35183 0.0
C254 C 0.95881 0.59538 0.36213 0.0
C255 C 0.94703 0.63858 0.35199 0.0
C256 C 0.88233 0.63932 0.37577 0.0
H257 H 0.84265 0.75186 0.31418 0.0
H258 H 0.87276 0.72647 0.32958 0.0
H259 H 0.84809 0.65084 0.38526 0.0
H260 H 0.93011 0.56292 0.38175 0.0
H261 H 0.89868 0.59024 0.38104 0.0
H262 H 0.9214 0.66444 0.3171 0.0
C263 C 0.8543 0.71615 0.33071 0.0
C264 C 0.86415 0.65396 0.37041 0.0
C265 C 0.83707 0.7307 0.32204 0.0
C266 C 0.93509 0.58415 0.37396 0.0
C267 C 0.91713 0.59985 0.37353 0.0
C268 C 0.90586 0.6616 0.33262 0.0
C269 C 0.84794 0.68848 0.34009 0.0
C270 C 0.8669 0.67277 0.34629 0.0
C271 C 0.92277 0.6271 0.36162 0.0
C272 C 0.90347 0.64301 0.35691 0.0
H273 H 0.78832 0.67985 0.33251 0.0
H274 H 0.81852 0.65437 0.34816 0.0
H275 H 0.89031 0.69033 0.30845 0.0
H276 H 0.983 0.63188 0.34274 0.0
H277 H 0.95227 0.65964 0.34356 0.0
C278 C 0.80129 0.34959 0.73776 0.0
C279 C 0.78885 0.33477 0.76272 0.0
C280 C 0.82417 0.36519 0.73699 0.0
C281 C 0.87644 0.37216 0.77539 0.0
H282 H 0.89051 0.44612 0.73936 0.0
C283 C 0.95126 0.44881 0.80342 0.0
C284 C 0.96554 0.4683 0.78273 0.0
C285 C 0.93146 0.43161 0.79742 0.0
C286 C 0.88704 0.42536 0.74907 0.0
H287 H 0.79077 0.32434 0.80629 0.0
H288 H 0.83055 0.35159 0.80499 0.0
H289 H 0.85225 0.4176 0.7355 0.0
H290 H 0.97026 0.48485 0.73935 0.0
H291 H 0.93535 0.45452 0.72878 0.0
H292 H 0.91092 0.37988 0.78936 0.0
C293 C 0.82269 0.35111 0.786 0.0
C294 C 0.86512 0.40906 0.74691 0.0
C295 C 0.7998 0.33574 0.78681 0.0
C296 C 0.95961 0.47003 0.75573 0.0
C297 C 0.93959 0.45277 0.74971 0.0
C298 C 0.89832 0.38836 0.77746 0.0
C299 C 0.83514 0.366 0.7611 0.0
C300 C 0.85935 0.3825 0.76067 0.0
C301 C 0.92533 0.43336 0.77055 0.0
C302 C 0.9036 0.41536 0.76498 0.0
H303 H 0.79321 0.34933 0.7189 0.0
H304 H 0.83338 0.37639 0.7175 0.0
H305 H 0.87272 0.3516 0.78572 0.0
H306 H 0.95522 0.44688 0.82447 0.0
H307 H 0.92062 0.41726 0.81406 0.0
C308 C 0.19777 0.26648 0.37364 0.0
C309 C 0.20597 0.26704 0.34562 0.0
C310 C 0.19547 0.24313 0.3926 0.0
C311 C 0.22305 0.18757 0.40894 0.0
H312 H 0.16328 0.15232 0.45437 0.0
C313 C 0.22282 0.09865 0.49261 0.0
C314 C 0.20779 0.09668 0.51746 0.0
C315 C 0.22006 0.11609 0.46944 0.0
C316 C 0.1802 0.16208 0.44214 0.0
H317 H 0.21762 0.24287 0.31574 0.0
H318 H 0.21493 0.20258 0.3494 0.0
H319 H 0.16319 0.18987 0.41824 0.0
H320 H 0.17777 0.11073 0.53771 0.0
H321 H 0.17378 0.1425 0.49784 0.0
H322 H 0.24059 0.16156 0.43363 0.0
C323 C 0.20995 0.22031 0.35629 0.0
C324 C 0.18003 0.18338 0.42132 0.0
C325 C 0.21172 0.24348 0.33715 0.0
C326 C 0.18948 0.11185 0.51864 0.0
C327 C 0.18715 0.12993 0.49567 0.0
C328 C 0.22335 0.16675 0.43013 0.0
C329 C 0.20183 0.22003 0.38411 0.0
C330 C 0.20148 0.1963 0.4047 0.0
C331 C 0.20272 0.13265 0.47085 0.0
C332 C 0.20195 0.15376 0.44719 0.0
H333 H 0.19369 0.28427 0.38119 0.0
H334 H 0.18951 0.24338 0.4141 0.0
H335 H 0.23984 0.19757 0.39653 0.0
H336 H 0.23687 0.08681 0.49116 0.0
H337 H 0.23188 0.11685 0.45056 0.0
C338 C 0.34268 0.80737 0.88489 0.0
C339 C 0.34387 0.79231 0.86326 0.0
C340 C 0.3599 0.80789 0.90315 0.0
C341 C 0.40469 0.76917 0.92826 0.0
H342 H 0.42714 0.8325 0.95993 0.0
C343 C 0.45858 0.76249 0.01921 0.0
C344 C 0.47872 0.78266 0.01896 0.0
C345 C 0.44217 0.7656 0.00053 0.0
C346 C 0.4212 0.81472 0.95109 0.0
H347 H 0.36486 0.76763 0.84249 0.0
H348 H 0.39516 0.76883 0.87398 0.0
H349 H 0.39942 0.83466 0.92545 0.0
H350 H 0.49701 0.8224 0.99955 0.0
H351 H 0.46841 0.82769 0.96631 0.0
H352 H 0.42681 0.74936 0.95321 0.0
C353 C 0.38047 0.77945 0.87755 0.0
C354 C 0.4051 0.81586 0.93157 0.0
C355 C 0.36317 0.77879 0.85946 0.0
C356 C 0.48163 0.80652 0.00022 0.0
C357 C 0.46523 0.80955 0.98125 0.0
C358 C 0.4208 0.76807 0.94761 0.0
C359 C 0.37889 0.79371 0.89985 0.0
C360 C 0.39655 0.79303 0.92003 0.0
C361 C 0.44558 0.78884 0.98085 0.0
C362 C 0.42907 0.79072 0.95951 0.0
H363 H 0.32826 0.81849 0.88787 0.0
H364 H 0.35802 0.81896 0.92015 0.0
H365 H 0.39831 0.75109 0.92012 0.0
H366 H 0.45559 0.74402 0.03368 0.0
H367 H 0.42689 0.74957 0.00136 0.0
C368 C 0.72936 0.78337 0.38603 0.0
C369 C 0.73082 0.79204 0.3576 0.0
C370 C 0.7258 0.80089 0.40475 0.0
C371 C 0.70582 0.86516 0.41144 0.0
H372 H 0.74715 0.86801 0.46893 0.0
C373 C 0.74793 0.94433 0.4824 0.0
C374 C 0.72744 0.95291 0.49396 0.0
C375 C 0.74559 0.92286 0.46783 0.0
C376 C 0.73544 0.86739 0.45302 0.0
H377 H 0.73002 0.82597 0.32651 0.0
H378 H 0.72389 0.85644 0.3591 0.0
H379 H 0.74793 0.83371 0.43948 0.0
H380 H 0.68835 0.94583 0.49894 0.0
H381 H 0.68429 0.90811 0.47312 0.0
H382 H 0.69405 0.89957 0.42442 0.0
C383 C 0.72497 0.83599 0.36699 0.0
C384 C 0.7357 0.84758 0.43633 0.0
C385 C 0.72855 0.81853 0.34831 0.0
C386 C 0.70448 0.93968 0.49029 0.0
C387 C 0.70215 0.91816 0.47549 0.0
C388 C 0.7055 0.88496 0.42823 0.0
C389 C 0.72364 0.82741 0.39541 0.0
C390 C 0.7213 0.8466 0.41497 0.0
C391 C 0.72272 0.90941 0.46436 0.0
C392 C 0.72075 0.88664 0.44874 0.0
H393 H 0.73074 0.76299 0.39381 0.0
H394 H 0.72465 0.79365 0.42656 0.0
H395 H 0.69428 0.86467 0.39536 0.0
H396 H 0.76591 0.95409 0.48469 0.0
H397 H 0.76179 0.91694 0.45902 0.0
C398 C 0.69991 0.327 0.81679 0.0
C399 C 0.70379 0.30259 0.80897 0.0
C400 C 0.68136 0.32754 0.83752 0.0
C401 C 0.64136 0.28549 0.89691 0.0
H402 H 0.6037 0.34165 0.88719 0.0
C403 C 0.55741 0.29072 0.97309 0.0
C404 C 0.55581 0.31626 0.9796 0.0
C405 C 0.57501 0.28769 0.95224 0.0
C406 C 0.61417 0.32596 0.89032 0.0
H407 H 0.69146 0.25954 0.81715 0.0
H408 H 0.65877 0.26054 0.85303 0.0
H409 H 0.63528 0.33904 0.85087 0.0
H410 H 0.57174 0.35855 0.9696 0.0
H411 H 0.60228 0.3532 0.93364 0.0
H412 H 0.62017 0.27252 0.9365 0.0
C413 C 0.67021 0.27924 0.84325 0.0
C414 C 0.6323 0.32449 0.86952 0.0
C415 C 0.68877 0.2787 0.82249 0.0
C416 C 0.57233 0.33858 0.96508 0.0
C417 C 0.58978 0.33556 0.94429 0.0
C418 C 0.62315 0.28695 0.91776 0.0
C419 C 0.66622 0.30369 0.85092 0.0
C420 C 0.64631 0.30445 0.87269 0.0
C421 C 0.59122 0.31015 0.93745 0.0
C422 C 0.60958 0.30742 0.91481 0.0
H423 H 0.711 0.34576 0.80662 0.0
H424 H 0.67898 0.34668 0.84317 0.0
H425 H 0.65197 0.26994 0.90009 0.0
H426 H 0.54495 0.27313 0.98388 0.0
H427 H 0.57562 0.26786 0.94733 0.0
C428 C 0.23838 0.83348 0.77994 0.0
C429 C 0.24872 0.83409 0.80456 0.0
C430 C 0.23193 0.85634 0.76644 0.0
C431 C 0.25017 0.92566 0.74897 0.0
H432 H 0.18527 0.92776 0.73216 0.0
C433 C 0.23313 0.01184 0.67173 0.0
C434 C 0.21684 0.00506 0.6533 0.0
C435 C 0.23402 0.9939 0.6953 0.0
C436 C 0.20354 0.92747 0.73642 0.0
H437 H 0.26032 0.85966 0.83412 0.0
H438 H 0.2503 0.90014 0.80928 0.0
H439 H 0.19278 0.89015 0.76392 0.0
H440 H 0.18814 0.97481 0.6452 0.0
H441 H 0.19056 0.94265 0.68539 0.0
H442 H 0.26159 0.96145 0.71998 0.0
C443 C 0.24675 0.88153 0.8011 0.0
C444 C 0.20772 0.90609 0.75484 0.0
C445 C 0.2527 0.85842 0.81508 0.0
C446 C 0.20078 0.98048 0.65926 0.0
C447 C 0.20212 0.96215 0.68246 0.0
C448 C 0.24613 0.94671 0.73008 0.0
C449 C 0.23621 0.88052 0.77679 0.0
C450 C 0.23112 0.90487 0.76086 0.0
C451 C 0.21915 0.96838 0.70049 0.0
C452 C 0.22282 0.94767 0.7231 0.0
H453 H 0.23569 0.81549 0.77061 0.0
H454 H 0.22426 0.85534 0.74737 0.0
H455 H 0.26842 0.92484 0.7531 0.0
H456 H 0.24546 0.03093 0.6677 0.0
H457 H 0.24683 0.99985 0.70906 0.0
C458 C 0.70968 0.78343 0.25684 0.0
C459 C 0.7126 0.75853 0.27053 0.0
C460 C 0.69556 0.78479 0.23544 0.0
C461 C 0.64503 0.74478 0.2104 0.0
H462 H 0.66088 0.79943 0.14553 0.0
C463 C 0.58656 0.7447 0.1231 0.0
C464 C 0.58087 0.76923 0.112 0.0
C465 C 0.60415 0.74391 0.14063 0.0
C466 C 0.65614 0.78423 0.16367 0.0
H467 H 0.70381 0.71558 0.27178 0.0
H468 H 0.67934 0.71793 0.23405 0.0
H469 H 0.68958 0.79644 0.17887 0.0
H470 H 0.58973 0.81229 0.11005 0.0
H471 H 0.62051 0.81089 0.14113 0.0
H472 H 0.61157 0.73269 0.19551 0.0
C473 C 0.68771 0.73639 0.2402 0.0
C474 C 0.67257 0.78246 0.18271 0.0
C475 C 0.7019 0.73504 0.26161 0.0
C476 C 0.59369 0.79309 0.11829 0.0
C477 C 0.61136 0.79228 0.13598 0.0
C478 C 0.62865 0.74654 0.19143 0.0
C479 C 0.68403 0.76128 0.22722 0.0
C480 C 0.66718 0.76269 0.20629 0.0
C481 C 0.61649 0.76761 0.14766 0.0
C482 C 0.63402 0.76623 0.16781 0.0
H483 H 0.71804 0.80191 0.26298 0.0
H484 H 0.693 0.80425 0.226 0.0
H485 H 0.64007 0.72972 0.22865 0.0
H486 H 0.57727 0.72591 0.11847 0.0
H487 H 0.60801 0.72463 0.1488 0.0
C488 C 0.74425 0.24683 0.67322 0.0
C489 C 0.72317 0.25193 0.6873 0.0
C490 C 0.74351 0.22438 0.66003 0.0
C491 C 0.7071 0.1575 0.65984 0.0
H492 H 0.74722 0.16249 0.59016 0.0
C493 C 0.70613 0.07058 0.59502 0.0
C494 C 0.72896 0.06656 0.58434 0.0
C495 C 0.70394 0.09279 0.60808 0.0
C496 C 0.73602 0.16077 0.6097 0.0
H497 H 0.6849 0.23748 0.69931 0.0
H498 H 0.68339 0.19843 0.67566 0.0
H499 H 0.7459 0.20258 0.61112 0.0
H500 H 0.76741 0.08228 0.57978 0.0
H501 H 0.76353 0.12074 0.60241 0.0
H502 H 0.69722 0.11555 0.65819 0.0
C503 C 0.70053 0.21167 0.67489 0.0
C504 C 0.7353 0.18371 0.62174 0.0
C505 C 0.70132 0.23412 0.68818 0.0
C506 C 0.74953 0.08478 0.58762 0.0
C507 C 0.74732 0.10696 0.60044 0.0
C508 C 0.70771 0.13452 0.64766 0.0
C509 C 0.72165 0.2065 0.66073 0.0
C510 C 0.72112 0.18231 0.64717 0.0
C511 C 0.72452 0.11143 0.61044 0.0
C512 C 0.72249 0.13588 0.62269 0.0
H513 H 0.76136 0.26005 0.67281 0.0
H514 H 0.7602 0.22072 0.64983 0.0
H515 H 0.69618 0.15566 0.67958 0.0
H516 H 0.68994 0.05689 0.59284 0.0
H517 H 0.68613 0.0958 0.6156 0.0
C518 C 0.2754 0.29555 0.21807 0.0
C519 C 0.2688 0.32004 0.2221 0.0
C520 C 0.29728 0.29505 0.20241 0.0
C521 C 0.34379 0.33774 0.14921 0.0
H522 H 0.38243 0.28443 0.16939 0.0
C523 C 0.43994 0.34512 0.0958 0.0
C524 C 0.44643 0.3217 0.08793 0.0
C525 C 0.41848 0.34397 0.11284 0.0
C526 C 0.3717 0.29926 0.16336 0.0
H527 H 0.2801 0.36308 0.21414 0.0
H528 H 0.31856 0.36237 0.18712 0.0
H529 H 0.34476 0.28451 0.19829 0.0
H530 H 0.43559 0.27856 0.09241 0.0
H531 H 0.39791 0.27657 0.12237 0.0
H532 H 0.37076 0.35263 0.11446 0.0
C533 C 0.30663 0.34352 0.19537 0.0
C534 C 0.35011 0.29932 0.17989 0.0
C535 C 0.28472 0.34399 0.21094 0.0
C536 C 0.43112 0.29697 0.09806 0.0
C537 C 0.4096 0.29581 0.1153 0.0
C538 C 0.36536 0.33775 0.1328 0.0
C539 C 0.31308 0.31905 0.19065 0.0
C540 C 0.33596 0.31867 0.17309 0.0
C541 C 0.40293 0.31938 0.12257 0.0
C542 C 0.37965 0.31864 0.13976 0.0
H543 H 0.26348 0.27679 0.22671 0.0
H544 H 0.30157 0.27587 0.19904 0.0
H545 H 0.33311 0.35256 0.14298 0.0
H546 H 0.45132 0.36452 0.08852 0.0
H547 H 0.41406 0.36243 0.11844 0.0
C548 C 0.82156 0.66327 0.84547 0.0
C549 C 0.82512 0.68108 0.82057 0.0
C550 C 0.8401 0.65039 0.85358 0.0
C551 C 0.90615 0.65275 0.83974 0.0
H552 H 0.88915 0.57607 0.86412 0.0
C553 C 0.97281 0.58189 0.82665 0.0
C554 C 0.97176 0.5595 0.84686 0.0
C555 C 0.95611 0.59875 0.82896 0.0
C556 C 0.89418 0.59755 0.8579 0.0
H557 H 0.85101 0.70074 0.78544 0.0
H558 H 0.88335 0.67804 0.79926 0.0
H559 H 0.85742 0.60203 0.85766 0.0
H560 H 0.95285 0.53776 0.88592 0.0
H561 H 0.92331 0.56731 0.88988 0.0
H562 H 0.94295 0.64805 0.83902 0.0
C563 C 0.86633 0.67395 0.81263 0.0
C564 C 0.87598 0.61245 0.85416 0.0
C565 C 0.8478 0.68679 0.80455 0.0
C566 C 0.95411 0.55487 0.87003 0.0
C567 C 0.93715 0.57168 0.87221 0.0
C568 C 0.92432 0.63784 0.84342 0.0
C569 C 0.86261 0.65531 0.83706 0.0
C570 C 0.88178 0.64012 0.84434 0.0
C571 C 0.93779 0.59359 0.85146 0.0
C572 C 0.91856 0.60996 0.85184 0.0
H573 H 0.80431 0.65897 0.8584 0.0
H574 H 0.83676 0.63648 0.87271 0.0
H575 H 0.91122 0.67411 0.83272 0.0
H576 H 0.98626 0.58612 0.8086 0.0
H577 H 0.95696 0.61522 0.81245 0.0
C578 C 0.8341 0.34223 0.25699 0.0
C579 C 0.80981 0.34512 0.25891 0.0
C580 C 0.85239 0.36431 0.25668 0.0
C581 C 0.88888 0.41688 0.2457 0.0
H582 H 0.87569 0.46241 0.29976 0.0
C583 C 0.95794 0.50898 0.26371 0.0
C584 C 0.96019 0.51024 0.29157 0.0
C585 C 0.93942 0.4905 0.25647 0.0
C586 C 0.87965 0.44991 0.28452 0.0
H587 H 0.78583 0.37371 0.2614 0.0
H588 H 0.81769 0.4122 0.26021 0.0
H589 H 0.84396 0.42685 0.29252 0.0
H590 H 0.94476 0.49305 0.33361 0.0
H591 H 0.91283 0.46117 0.32102 0.0
H592 H 0.92497 0.43955 0.23858 0.0
C593 C 0.82259 0.3928 0.25927 0.0
C594 C 0.86138 0.42969 0.28015 0.0
C595 C 0.80433 0.37076 0.25964 0.0
C596 C 0.94359 0.49273 0.31194 0.0
C597 C 0.92512 0.47452 0.30474 0.0
C598 C 0.90721 0.43724 0.25005 0.0
C599 C 0.84679 0.38977 0.25831 0.0
C600 C 0.86585 0.41264 0.26101 0.0
C601 C 0.92274 0.47322 0.27698 0.0
C602 C 0.90288 0.45359 0.26993 0.0
H603 H 0.83896 0.32282 0.25604 0.0
H604 H 0.87082 0.36123 0.25615 0.0
H605 H 0.89282 0.40426 0.23059 0.0
H606 H 0.97048 0.52216 0.24755 0.0
H607 H 0.93795 0.48995 0.23489 0.0
C608 C 0.19697 0.35091 0.78475 0.0
C609 C 0.2111 0.34404 0.80532 0.0
C610 C 0.17591 0.36073 0.79125 0.0
C611 C 0.14675 0.39453 0.84296 0.0
H612 H 0.09056 0.37538 0.80655 0.0
C613 C 0.06165 0.44148 0.86076 0.0
C614 C 0.05358 0.45161 0.83627 0.0
C615 C 0.07843 0.42435 0.86026 0.0
C616 C 0.10611 0.38092 0.81689 0.0
H617 H 0.21377 0.34132 0.84901 0.0
H618 H 0.17705 0.35853 0.86032 0.0
H619 H 0.12499 0.35331 0.79913 0.0
H620 H 0.05583 0.45069 0.79233 0.0
H621 H 0.08483 0.42103 0.7915 0.0
H622 H 0.12807 0.4226 0.8602 0.0
C623 C 0.18245 0.3567 0.8391 0.0
C624 C 0.12587 0.36835 0.81257 0.0
C625 C 0.20351 0.34689 0.8326 0.0
C626 C 0.06177 0.44336 0.81157 0.0
C627 C 0.07828 0.42615 0.81111 0.0
C628 C 0.12697 0.40709 0.84731 0.0
C629 C 0.16846 0.36387 0.81848 0.0
C630 C 0.14663 0.37542 0.82507 0.0
C631 C 0.08716 0.41682 0.83532 0.0
C632 C 0.10665 0.40086 0.83382 0.0
H633 H 0.20247 0.34927 0.7635 0.0
H634 H 0.16578 0.36648 0.77479 0.0
H635 H 0.16254 0.40062 0.85272 0.0
H636 H 0.05568 0.44752 0.8801 0.0
H637 H 0.08484 0.4173 0.87929 0.0
C638 C 0.21314 0.75288 0.37643 0.0
C639 C 0.23078 0.76581 0.35445 0.0
C640 C 0.19242 0.73609 0.3716 0.0
C641 C 0.16877 0.69648 0.31982 0.0
H642 H 0.10695 0.69511 0.36215 0.0
C643 C 0.08006 0.63332 0.29827 0.0
C644 C 0.06506 0.61838 0.32162 0.0
C645 C 0.09974 0.65277 0.30117 0.0
C646 C 0.12412 0.69517 0.35027 0.0
H647 H 0.24018 0.77194 0.3101 0.0
H648 H 0.20399 0.74289 0.30164 0.0
H649 H 0.14234 0.72623 0.36949 0.0
H650 H 0.05874 0.61253 0.3663 0.0
H651 H 0.09291 0.64629 0.37126 0.0
H652 H 0.15051 0.66534 0.30066 0.0
C653 C 0.20637 0.74521 0.32268 0.0
C654 C 0.14442 0.71295 0.35453 0.0
C655 C 0.2271 0.76188 0.32752 0.0
C656 C 0.06992 0.62363 0.34785 0.0
C657 C 0.08943 0.64314 0.35072 0.0
C658 C 0.14845 0.67877 0.31549 0.0
C659 C 0.18882 0.73197 0.34466 0.0
C660 C 0.16704 0.71366 0.33953 0.0
C661 C 0.10466 0.65781 0.32746 0.0
C662 C 0.12594 0.67775 0.33085 0.0
H663 H 0.21559 0.75529 0.39743 0.0
H664 H 0.17945 0.72591 0.38905 0.0
H665 H 0.18597 0.6962 0.30818 0.0
H666 H 0.0768 0.62977 0.27778 0.0
H667 H 0.11105 0.66394 0.28285 0.0
C668 C 0.75562 0.79102 0.75001 0.0
C669 C 0.77534 0.78823 0.76437 0.0
C670 C 0.75764 0.81144 0.72767 0.0
C671 C 0.79379 0.87776 0.6968 0.0
H672 H 0.75851 0.86558 0.63533 0.0
C673 C 0.79515 0.95917 0.60141 0.0
C674 C 0.77229 0.96132 0.59384 0.0
C675 C 0.79787 0.93792 0.62119 0.0
C676 C 0.76842 0.8693 0.6524 0.0
H677 H 0.81286 0.80457 0.7661 0.0
H678 H 0.81657 0.83991 0.72658 0.0
H679 H 0.75939 0.82819 0.67105 0.0
H680 H 0.73436 0.94284 0.60126 0.0
H681 H 0.73917 0.90601 0.63537 0.0
H682 H 0.80272 0.91902 0.67793 0.0
C683 C 0.79939 0.8265 0.73294 0.0
C684 C 0.76887 0.8479 0.67293 0.0
C685 C 0.79735 0.80604 0.75539 0.0
C686 C 0.75226 0.94188 0.60656 0.0
C687 C 0.75501 0.9206 0.62599 0.0
C688 C 0.79348 0.89919 0.67608 0.0
C689 C 0.77949 0.82957 0.71891 0.0
C690 C 0.7811 0.85193 0.69573 0.0
C691 C 0.77782 0.91826 0.63343 0.0
C692 C 0.78034 0.89527 0.65399 0.0
H693 H 0.7385 0.77743 0.75607 0.0
H694 H 0.74182 0.81334 0.71765 0.0
H695 H 0.80322 0.88167 0.71416 0.0
H696 H 0.81094 0.97381 0.592 0.0
H697 H 0.81568 0.93656 0.62652 0.0
C698 C 0.69669 0.34599 0.22014 0.0
C699 C 0.69386 0.32026 0.23543 0.0
C700 C 0.67989 0.35213 0.20269 0.0
C701 C 0.61715 0.32887 0.19068 0.0
H702 H 0.63751 0.37133 0.11831 0.0
C703 C 0.55541 0.33089 0.10628 0.0
C704 C 0.55569 0.35523 0.08921 0.0
C705 C 0.57178 0.32908 0.12523 0.0
C706 C 0.63152 0.35981 0.13864 0.0
H707 H 0.67223 0.28038 0.24349 0.0
H708 H 0.64293 0.2909 0.21282 0.0
H709 H 0.66757 0.36297 0.14869 0.0
H710 H 0.57323 0.39692 0.07896 0.0
H711 H 0.60207 0.39371 0.11227 0.0
H712 H 0.58118 0.32529 0.1805 0.0
C713 C 0.65769 0.3066 0.21485 0.0
C714 C 0.64874 0.35497 0.15602 0.0
C715 C 0.67448 0.3005 0.23227 0.0
C716 C 0.57254 0.3779 0.09186 0.0
C717 C 0.58912 0.37602 0.11078 0.0
C718 C 0.59999 0.33366 0.17332 0.0
C719 C 0.66004 0.33257 0.20006 0.0
C720 C 0.64177 0.33907 0.18208 0.0
C721 C 0.58896 0.35153 0.12758 0.0
C722 C 0.607 0.3488 0.14693 0.0
H723 H 0.71172 0.36144 0.22202 0.0
H724 H 0.6822 0.37232 0.19166 0.0
H725 H 0.61111 0.31706 0.21086 0.0
H726 H 0.54268 0.31302 0.10483 0.0
H727 H 0.57138 0.30984 0.13757 0.0
C728 C 0.23686 0.26389 0.7571 0.0
C729 C 0.25679 0.28461 0.75595 0.0
C730 C 0.23766 0.24422 0.74026 0.0
C731 C 0.27062 0.22925 0.677 0.0
H732 H 0.23954 0.1563 0.70715 0.0
C733 C 0.27579 0.13813 0.61922 0.0
C734 C 0.25369 0.12072 0.61987 0.0
C735 C 0.27756 0.15855 0.63548 0.0
C736 C 0.2482 0.17661 0.69839 0.0
H737 H 0.29312 0.30098 0.73574 0.0
H738 H 0.29476 0.26619 0.70694 0.0
H739 H 0.24008 0.191 0.7362 0.0
H740 H 0.21613 0.11126 0.63804 0.0
H741 H 0.21931 0.14658 0.66628 0.0
H742 H 0.27884 0.21455 0.63917 0.0
C743 C 0.27836 0.26538 0.72063 0.0
C744 C 0.24843 0.19655 0.71501 0.0
C745 C 0.27753 0.28516 0.73741 0.0
C746 C 0.23345 0.12426 0.637 0.0
C747 C 0.23528 0.14441 0.65336 0.0
C748 C 0.27053 0.2092 0.6604 0.0
C749 C 0.25847 0.24458 0.72194 0.0
C750 C 0.25932 0.22321 0.70444 0.0
C751 C 0.25735 0.1617 0.65292 0.0
C752 C 0.259 0.18275 0.67083 0.0
H753 H 0.2207 0.26258 0.77136 0.0
H754 H 0.22184 0.22877 0.74154 0.0
H755 H 0.27897 0.2496 0.66809 0.0
H756 H 0.29171 0.13594 0.60623 0.0
H757 H 0.29483 0.17155 0.63482 0.0
C758 C 0.33372 0.77358 0.28411 0.0
C759 C 0.34266 0.79741 0.29361 0.0
C760 C 0.34921 0.76092 0.26877 0.0
C761 C 0.41416 0.75932 0.24996 0.0
H762 H 0.39329 0.73611 0.1835 0.0
C763 C 0.47918 0.75706 0.15439 0.0
C764 C 0.47485 0.73603 0.13905 0.0
C765 C 0.46288 0.75863 0.17695 0.0
C766 C 0.39922 0.74196 0.20227 0.0
H767 H 0.37476 0.82627 0.29549 0.0
H768 H 0.40179 0.80461 0.26831 0.0
H769 H 0.36474 0.75038 0.21623 0.0
H770 H 0.45034 0.6997 0.13572 0.0
H771 H 0.42129 0.70276 0.17522 0.0
H772 H 0.44894 0.7521 0.23526 0.0
C773 C 0.38291 0.79539 0.27289 0.0
C774 C 0.38288 0.75017 0.22105 0.0
C775 C 0.36743 0.80798 0.28825 0.0
C776 C 0.45413 0.71608 0.14725 0.0
C777 C 0.43751 0.7179 0.16971 0.0
C778 C 0.4305 0.75127 0.23113 0.0
C779 C 0.37398 0.77184 0.26272 0.0
C780 C 0.39034 0.75969 0.24473 0.0
C781 C 0.44166 0.73938 0.18459 0.0
C782 C 0.42338 0.74324 0.20671 0.0
H783 H 0.31467 0.76498 0.2883 0.0
H784 H 0.34178 0.74265 0.26157 0.0
H785 H 0.42036 0.76592 0.2683 0.0
H786 H 0.49506 0.77266 0.14867 0.0
H787 H 0.46645 0.77558 0.18776 0.0
C788 C 0.79431 0.24066 0.30281 0.0
C789 C 0.77266 0.25034 0.30116 0.0
C790 C 0.79511 0.21785 0.32151 0.0
C791 C 0.75667 0.15746 0.36283 0.0
H792 H 0.80732 0.15991 0.40971 0.0
C793 C 0.74887 0.08143 0.46128 0.0
C794 C 0.7696 0.07247 0.46907 0.0
C795 C 0.75056 0.10191 0.43912 0.0
C796 C 0.79328 0.15867 0.39649 0.0
H797 H 0.73489 0.24351 0.31821 0.0
H798 H 0.73623 0.20354 0.35028 0.0
H799 H 0.80785 0.19775 0.37375 0.0
H800 H 0.80843 0.07798 0.45941 0.0
H801 H 0.81137 0.11363 0.42024 0.0
H802 H 0.74204 0.1185 0.38541 0.0
C803 C 0.75254 0.21349 0.33692 0.0
C804 C 0.79356 0.1804 0.37592 0.0
C805 C 0.75178 0.2364 0.31844 0.0
C806 C 0.79212 0.08445 0.45398 0.0
C807 C 0.79381 0.10497 0.43163 0.0
C808 C 0.75647 0.13569 0.38322 0.0
C809 C 0.77423 0.20405 0.3388 0.0
C810 C 0.77502 0.18021 0.35919 0.0
C811 C 0.77301 0.11397 0.42395 0.0
C812 C 0.77451 0.1362 0.40068 0.0
H813 H 0.81066 0.25063 0.28956 0.0
H814 H 0.81203 0.21088 0.32229 0.0
H815 H 0.74236 0.15654 0.34994 0.0
H816 H 0.73122 0.07283 0.47252 0.0
H817 H 0.73421 0.10865 0.43425 0.0
C818 C 0.34094 0.32925 0.84936 0.0
C819 C 0.32052 0.34118 0.85188 0.0
C820 C 0.36197 0.34018 0.85921 0.0
C821 C 0.38168 0.38132 0.91079 0.0
H822 H 0.44499 0.3739 0.8785 0.0
C823 C 0.46476 0.39774 0.96891 0.0
C824 C 0.4755 0.37495 0.97144 0.0
C825 C 0.44871 0.40103 0.94957 0.0
C826 C 0.42746 0.37634 0.88763 0.0
H827 H 0.30637 0.37477 0.86475 0.0
H828 H 0.3433 0.39417 0.88189 0.0
H829 H 0.41078 0.36601 0.85276 0.0
H830 H 0.47929 0.33876 0.95466 0.0
H831 H 0.45179 0.34466 0.92086 0.0
H832 H 0.39827 0.39076 0.94604 0.0
C833 C 0.34292 0.37603 0.8729 0.0
C834 C 0.40784 0.37168 0.87298 0.0
C835 C 0.32184 0.36502 0.86307 0.0
C836 C 0.47113 0.35644 0.95327 0.0
C837 C 0.45553 0.35994 0.93374 0.0
C838 C 0.40134 0.38614 0.92538 0.0
C839 C 0.3631 0.36344 0.87156 0.0
C840 C 0.38455 0.3731 0.88483 0.0
C841 C 0.44364 0.38186 0.93213 0.0
C842 C 0.42424 0.3827 0.91436 0.0
H843 H 0.3404 0.31102 0.84048 0.0
H844 H 0.37702 0.32975 0.85812 0.0
H845 H 0.36399 0.38241 0.92066 0.0
H846 H 0.4678 0.41226 0.98275 0.0
H847 H 0.4398 0.41814 0.9487 0.0
C848 C 0.25218 0.85367 0.40083 0.0
C849 C 0.27183 0.84027 0.3995 0.0
C850 C 0.25124 0.87361 0.41733 0.0
C851 C 0.27824 0.90145 0.47526 0.0
H852 H 0.2496 0.96211 0.44938 0.0
C853 C 0.27983 0.9961 0.52887 0.0
C854 C 0.25732 0.00376 0.53367 0.0
C855 C 0.28277 0.97633 0.51248 0.0
C856 C 0.25759 0.94524 0.45689 0.0
H857 H 0.30574 0.83725 0.4151 0.0
H858 H 0.30462 0.87279 0.44284 0.0
H859 H 0.25264 0.92742 0.42083 0.0
H860 H 0.22034 0.9969 0.52482 0.0
H861 H 0.22563 0.96291 0.49598 0.0
H862 H 0.28353 0.91984 0.51116 0.0
C863 C 0.28966 0.86753 0.43153 0.0
C864 C 0.2592 0.92523 0.44063 0.0
C865 C 0.29047 0.84734 0.41526 0.0
C866 C 0.23791 0.99143 0.52161 0.0
C867 C 0.24095 0.97206 0.50495 0.0
C868 C 0.2769 0.9217 0.49138 0.0
C869 C 0.27006 0.88103 0.43272 0.0
C870 C 0.26925 0.90285 0.44972 0.0
C871 C 0.26338 0.96428 0.50022 0.0
C872 C 0.26627 0.94361 0.4825 0.0
H873 H 0.23763 0.84912 0.38875 0.0
H874 H 0.23562 0.88315 0.41804 0.0
H875 H 0.2858 0.88441 0.48316 0.0
H876 H 0.2951 0.0052 0.53793 0.0
H877 H 0.30028 0.97075 0.50906 0.0
C878 C 0.71548 0.71072 0.86424 0.0
C879 C 0.72612 0.73701 0.85173 0.0
C880 C 0.69402 0.70581 0.88244 0.0
C881 C 0.64081 0.73509 0.89992 0.0
H882 H 0.63532 0.69275 0.97228 0.0
C883 C 0.57416 0.74773 0.98943 0.0
C884 C 0.56283 0.72561 0.00919 0.0
C885 C 0.59152 0.745 0.96846 0.0
C886 C 0.63634 0.70413 0.95194 0.0
H887 H 0.7228 0.77876 0.84945 0.0
H888 H 0.68523 0.77009 0.88057 0.0
H889 H 0.67126 0.69588 0.93909 0.0
H890 H 0.56041 0.68302 0.02197 0.0
H891 H 0.59103 0.67819 0.98493 0.0
H892 H 0.6062 0.74373 0.91267 0.0
C893 C 0.69336 0.75328 0.87602 0.0
C894 C 0.65695 0.70601 0.933 0.0
C895 C 0.71488 0.75822 0.85812 0.0
C896 C 0.56881 0.70042 0.00701 0.0
C897 C 0.58642 0.6977 0.98594 0.0
C898 C 0.6202 0.73306 0.9187 0.0
C899 C 0.68262 0.72703 0.88825 0.0
C900 C 0.65968 0.72218 0.90712 0.0
C901 C 0.5981 0.72007 0.96657 0.0
C902 C 0.61805 0.71829 0.94525 0.0
H903 H 0.72345 0.69386 0.85956 0.0
H904 H 0.68607 0.68538 0.89152 0.0
H905 H 0.64221 0.74723 0.8799 0.0
H906 H 0.56998 0.76744 0.9904 0.0
H907 H 0.60039 0.76276 0.95424 0.0
loop_
_geom_bond_atom_site_label_1
_geom_bond_atom_site_label_2
_geom_bond_distance
_geom_bond_site_symmetry_2
_ccdc_geom_bond_type
H0 C7 0.929 . S
H1 C10 0.930 . S
H2 C12 0.929 . S
H3 C4 0.969 . S
C4 H3 0.969 . S
C4 O5 1.550 . S
C4 H6 0.973 . S
O5 C4 1.550 . S
O5 C11 1.412 . S
H6 C4 0.973 . S
C7 H0 0.929 . S
C7 C8 1.400 . S
C7 C9 1.364 . S
C8 C7 1.400 . S
C8 C12 1.377 . S
C9 C7 1.364 . S
C9 C10 1.374 . S
C10 H1 0.930 . S
C10 C9 1.374 . S
C10 C11 1.383 . S
C11 O5 1.412 . S
C11 C10 1.383 . S
C11 C12 1.394 . S
C12 H2 0.929 . S
C12 C8 1.377 . S
C12 C11 1.394 . S
H13 C20 0.929 . S
H14 C23 0.930 . S
H15 C25 0.929 . S
H16 C17 0.969 . S
C17 H16 0.969 . S
C17 O18 1.550 . S
C17 H19 0.973 . S
O18 C17 1.550 . S
O18 C24 1.412 . S
H19 C17 0.973 . S
C20 H13 0.929 . S
C20 C21 1.400 . S
C20 C22 1.364 . S
C21 C20 1.400 . S
C21 C25 1.377 . S
C22 C20 1.364 . S
C22 C23 1.374 . S
C23 H14 0.930 . S
C23 C22 1.374 . S
C23 C24 1.383 . S
C24 O18 1.412 . S
C24 C23 1.383 . S
C24 C25 1.394 . S
C25 H15 0.929 . S
C25 C21 1.377 . S
C25 C24 1.394 . S
H26 C33 0.929 . S
H27 C36 0.930 . S
H28 C38 0.929 . S
H29 C30 0.969 . S
C30 H29 0.969 . S
C30 O31 1.550 . S
C30 H32 0.973 . S
O31 C30 1.550 . S
O31 C37 1.412 . S
H32 C30 0.973 . S
C33 H26 0.929 . S
C33 C34 1.400 . S
C33 C35 1.364 . S
C34 C33 1.400 . S
C34 C38 1.377 . S
C35 C33 1.364 . S
C35 C36 1.374 . S
C36 H27 0.930 . S
C36 C35 1.374 . S
C36 C37 1.383 . S
C37 O31 1.412 . S
C37 C36 1.383 . S
C37 C38 1.394 . S
C38 H28 0.929 . S
C38 C34 1.377 . S
C38 C37 1.394 . S
H39 C46 0.929 . S
H40 C49 0.930 . S
H41 C51 0.929 . S
H42 C43 0.969 . S
C43 H42 0.969 . S
C43 O44 1.550 . S
C43 H45 0.973 . S
O44 C43 1.550 . S
O44 C50 1.412 . S
H45 C43 0.973 . S
C46 H39 0.929 . S
C46 C47 1.400 . S
C46 C48 1.364 . S
C47 C46 1.400 . S
C47 C51 1.377 . S
C48 C46 1.364 . S
C48 C49 1.374 . S
C49 H40 0.930 . S
C49 C48 1.374 . S
C49 C50 1.383 . S
C50 O44 1.412 . S
C50 C49 1.383 . S
C50 C51 1.394 . S
C51 H41 0.929 . S
C51 C47 1.377 . S
C51 C50 1.394 . S
H52 C59 0.929 . S
H53 C62 0.930 . S
H54 C64 0.929 . S
H55 C56 0.969 . S
C56 H55 0.969 . S
C56 O57 1.550 . S
C56 H58 0.973 . S
O57 C56 1.550 . S
O57 C63 1.412 . S
H58 C56 0.973 . S
C59 H52 0.929 . S
C59 C60 1.400 . S
C59 C61 1.364 . S
C60 C59 1.400 . S
C60 C64 1.377 . S
C61 C59 1.364 . S
C61 C62 1.374 . S
C62 H53 0.930 . S
C62 C61 1.374 . S
C62 C63 1.383 . S
C63 O57 1.412 . S
C63 C62 1.383 . S
C63 C64 1.394 . S
C64 H54 0.929 . S
C64 C60 1.377 . S
C64 C63 1.394 . S
H65 C72 0.929 . S
H66 C75 0.930 . S
H67 C77 0.929 . S
H68 C69 0.969 . S
C69 H68 0.969 . S
C69 O70 1.550 . S
C69 H71 0.973 . S
O70 C69 1.550 . S
O70 C76 1.412 . S
H71 C69 0.973 . S
C72 H65 0.929 . S
C72 C73 1.400 . S
C72 C74 1.364 . S
C73 C72 1.400 . S
C73 C77 1.377 . S
C74 C72 1.364 . S
C74 C75 1.374 . S
C75 H66 0.930 . S
C75 C74 1.374 . S
C75 C76 1.383 . S
C76 O70 1.412 . S
C76 C75 1.383 . S
C76 C77 1.394 . S
C77 H67 0.929 . S
C77 C73 1.377 . S
C77 C76 1.394 . S
H78 C85 0.929 . S
H79 C88 0.930 . S
H80 C90 0.929 . S
H81 C82 0.969 . S
C82 H81 0.969 . S
C82 O83 1.550 . S
C82 H84 0.973 . S
O83 C82 1.550 . S
O83 C89 1.412 . S
H84 C82 0.973 . S
C85 H78 0.929 . S
C85 C86 1.400 . S
C85 C87 1.364 . S
C86 C85 1.400 . S
C86 C90 1.377 . S
C87 C85 1.364 . S
C87 C88 1.374 . S
C88 H79 0.930 . S
C88 C87 1.374 . S
C88 C89 1.383 . S
C89 O83 1.412 . S
C89 C88 1.383 . S
C89 C90 1.394 . S
C90 H80 0.929 . S
C90 C86 1.377 . S
C90 C89 1.394 . S
H91 C98 0.929 . S
H92 C101 0.930 . S
H93 C103 0.929 . S
H94 C95 0.969 . S
C95 H94 0.969 . S
C95 O96 1.550 . S
C95 H97 0.973 . S
O96 C95 1.550 . S
O96 C102 1.412 . S
H97 C95 0.973 . S
C98 H91 0.929 . S
C98 C99 1.400 . S
C98 C100 1.364 . S
C99 C98 1.400 . S
C99 C103 1.377 . S
C100 C98 1.364 . S
C100 C101 1.374 . S
C101 H92 0.930 . S
C101 C100 1.374 . S
C101 C102 1.383 . S
C102 O96 1.412 . S
C102 C101 1.383 . S
C102 C103 1.394 . S
C103 H93 0.929 . S
C103 C99 1.377 . S
C103 C102 1.394 . S
C104 O106 1.247 . S
C104 O108 1.258 . S
C105 O112 1.247 . S
C105 O113 1.258 . S
O106 C104 1.247 . S
O106 Zn107 2.028 . S
Zn107 O106 2.028 . S
Zn107 O111 2.035 1_655 S
Zn107 O113 2.035 1_655 S
Zn107 O114 2.028 . S
O108 C104 1.258 . S
O108 Zn109 2.035 1_655 S
Zn109 O108 2.035 1_455 S
Zn109 O110 2.028 . S
Zn109 O112 2.028 . S
Zn109 O115 2.035 1_455 S
O110 Zn109 2.028 . S
O110 C116 1.247 . S
O111 Zn107 2.035 1_455 S
O111 C116 1.258 . S
O112 C105 1.247 . S
O112 Zn109 2.028 . S
O113 C105 1.258 . S
O113 Zn107 2.035 1_455 S
O114 Zn107 2.028 . S
O114 C117 1.247 . S
O115 Zn109 2.035 1_655 S
O115 C117 1.258 . S
C116 O110 1.247 . S
C116 O111 1.258 . S
C117 O114 1.247 . S
C117 O115 1.258 . S
C118 O120 1.247 . S
C118 O122 1.258 . S
C119 O126 1.247 . S
C119 O127 1.258 . S
O120 C118 1.247 . S
O120 Zn121 2.028 1_655 S
Zn121 O120 2.028 1_455 S
Zn121 O125 2.035 . S
Zn121 O127 2.035 . S
Zn121 O128 2.028 1_455 S
O122 C118 1.258 . S
O122 Zn123 2.035 1_655 S
Zn123 O122 2.035 1_455 S
Zn123 O124 2.028 . S
Zn123 O126 2.028 . S
Zn123 O129 2.035 . S
O124 Zn123 2.028 . S
O124 C130 1.247 . S
O125 Zn121 2.035 . S
O125 C130 1.258 . S
O126 C119 1.247 . S
O126 Zn123 2.028 . S
O127 C119 1.258 . S
O127 Zn121 2.035 . S
O128 Zn121 2.028 1_655 S
O128 C131 1.247 . S
O129 Zn123 2.035 . S
O129 C131 1.258 1_455 S
C130 O124 1.247 . S
C130 O125 1.258 . S
C131 O128 1.247 . S
C131 O129 1.258 1_655 S
C132 O134 1.237 1_565 S
C132 O136 1.247 1_565 S
C133 O140 1.247 . S
C133 O141 1.258 . S
O134 C132 1.237 1_545 S
O134 Zn135 2.028 . S
Zn135 O134 2.028 . S
Zn135 O139 2.035 . S
Zn135 O141 2.035 . S
Zn135 O142 2.028 . S
O136 C132 1.247 1_545 S
O136 Zn137 2.035 . S
Zn137 O136 2.035 . S
Zn137 O138 2.028 . S
Zn137 O140 2.028 . S
Zn137 O143 2.035 . S
O138 Zn137 2.028 . S
O138 C144 1.247 . S
O139 Zn135 2.035 . S
O139 C144 1.258 . S
O140 C133 1.247 . S
O140 Zn137 2.028 . S
O141 C133 1.258 . S
O141 Zn135 2.035 . S
O142 Zn135 2.028 . S
O142 C145 1.243 1_545 S
O143 Zn137 2.035 . S
O143 C145 1.254 1_545 S
C144 O138 1.247 . S
C144 O139 1.258 . S
C145 O142 1.243 1_565 S
C145 O143 1.254 1_565 S
C146 O148 1.247 . S
C146 O150 1.258 . S
C147 O154 1.247 . S
C147 O155 1.258 . S
O148 C146 1.247 . S
O148 Zn149 2.028 . S
Zn149 O148 2.028 . S
Zn149 O153 2.035 . S
Zn149 O155 2.035 . S
Zn149 O156 2.028 . S
O150 C146 1.258 . S
O150 Zn151 2.035 . S
Zn151 O150 2.035 . S
Zn151 O152 2.028 . S
Zn151 O154 2.028 . S
Zn151 O157 2.035 . S
O152 Zn151 2.028 . S
O152 C158 1.247 . S
O153 Zn149 2.035 . S
O153 C158 1.258 . S
O154 C147 1.247 . S
O154 Zn151 2.028 . S
O155 C147 1.258 . S
O155 Zn149 2.035 . S
O156 Zn149 2.028 . S
O156 C159 1.247 . S
O157 Zn151 2.035 . S
O157 C159 1.258 . S
C158 O152 1.247 . S
C158 O153 1.258 . S
C159 O156 1.247 . S
C159 O157 1.258 . S
C160 O162 1.247 . S
C160 O164 1.258 . S
C161 O168 1.247 . S
C161 O169 1.258 . S
O162 C160 1.247 . S
O162 Zn163 2.028 . S
Zn163 O162 2.028 . S
Zn163 O167 2.035 1_565 S
Zn163 O169 2.035 1_565 S
Zn163 O170 2.028 . S
O164 C160 1.258 . S
O164 Zn165 2.035 1_565 S
Zn165 O164 2.035 1_545 S
Zn165 O166 2.028 . S
Zn165 O168 2.028 . S
Zn165 O171 2.035 1_545 S
O166 Zn165 2.028 . S
O166 C172 1.247 . S
O167 Zn163 2.035 1_545 S
O167 C172 1.258 . S
O168 C161 1.247 . S
O168 Zn165 2.028 . S
O169 C161 1.258 . S
O169 Zn163 2.035 1_545 S
O170 Zn163 2.028 . S
O170 C173 1.247 . S
O171 Zn165 2.035 1_565 S
O171 C173 1.258 . S
C172 O166 1.247 . S
C172 O167 1.258 . S
C173 O170 1.247 . S
C173 O171 1.258 . S
C174 O176 1.247 . S
C174 O178 1.258 . S
C175 O182 1.247 . S
C175 O183 1.258 . S
O176 C174 1.247 . S
O176 Zn177 2.028 . S
Zn177 O176 2.028 . S
Zn177 O181 2.035 . S
Zn177 O183 2.035 1_554 S
Zn177 O184 2.028 1_554 S
O178 C174 1.258 . S
O178 Zn179 2.035 1_554 S
Zn179 O178 2.035 1_556 S
Zn179 O180 2.028 1_556 S
Zn179 O182 2.028 . S
Zn179 O185 2.035 . S
O180 Zn179 2.028 1_554 S
O180 C186 1.247 . S
O181 Zn177 2.035 . S
O181 C186 1.258 . S
O182 C175 1.247 . S
O182 Zn179 2.028 . S
O183 C175 1.258 . S
O183 Zn177 2.035 1_556 S
O184 Zn177 2.028 1_556 S
O184 C187 1.247 . S
O185 Zn179 2.035 . S
O185 C187 1.258 . S
C186 O180 1.247 . S
C186 O181 1.258 . S
C187 O184 1.247 . S
C187 O185 1.258 . S
C188 C189 1.349 . S
C188 C190 1.327 . S
C188 H213 0.950 . S
C189 C188 1.349 . S
C189 C205 1.349 . S
C190 C188 1.327 . S
C190 C209 1.429 . S
C190 H214 0.950 . S
C191 C208 1.574 . S
C191 C210 1.368 . S
C191 H215 0.949 . S
H192 C196 0.949 . S
C193 C194 1.349 . S
C193 C195 1.327 . S
C193 H216 0.950 . S
C194 C193 1.349 . S
C194 C206 1.349 . S
C195 C193 1.327 . S
C195 C211 1.429 . S
C195 H217 0.950 . S
C196 H192 0.949 . S
C196 C204 1.574 . S
C196 C212 1.368 . S
H197 C205 0.950 . S
H198 C203 0.950 . S
H199 C204 0.949 . S
H200 C206 0.950 . S
H201 C207 0.950 . S
H202 C208 0.949 . S
C203 H198 0.950 . S
C203 C205 1.327 . S
C203 C209 1.429 . S
C204 C196 1.574 . S
C204 H199 0.949 . S
C204 C210 1.368 . S
C205 C189 1.349 . S
C205 H197 0.950 . S
C205 C203 1.327 . S
C206 C194 1.349 . S
C206 H200 0.950 . S
C206 C207 1.327 . S
C207 H201 0.950 . S
C207 C206 1.327 . S
C207 C211 1.429 . S
C208 C191 1.574 . S
C208 H202 0.949 . S
C208 C212 1.368 . S
C209 C190 1.429 . S
C209 C203 1.429 . S
C209 C210 1.523 . S
C210 C191 1.368 . S
C210 C204 1.368 . S
C210 C209 1.523 . S
C211 C195 1.429 . S
C211 C207 1.429 . S
C211 C212 1.523 . S
C212 C196 1.368 . S
C212 C208 1.368 . S
C212 C211 1.523 . S
H213 C188 0.950 . S
H214 C190 0.950 . S
H215 C191 0.949 . S
H216 C193 0.950 . S
H217 C195 0.950 . S
C218 C219 1.349 . S
C218 C220 1.327 . S
C218 H243 0.950 . S
C219 C218 1.349 . S
C219 C235 1.349 . S
C220 C218 1.327 . S
C220 C239 1.429 . S
C220 H244 0.950 . S
C221 C238 1.574 . S
C221 C240 1.368 . S
C221 H245 0.949 . S
H222 C226 0.949 . S
C223 C224 1.349 . S
C223 C225 1.327 . S
C223 H246 0.950 . S
C224 C223 1.349 . S
C224 C236 1.349 . S
C225 C223 1.327 . S
C225 C241 1.429 . S
C225 H247 0.950 . S
C226 H222 0.949 . S
C226 C234 1.574 . S
C226 C242 1.368 . S
H227 C235 0.950 . S
H228 C233 0.950 . S
H229 C234 0.949 . S
H230 C236 0.950 . S
H231 C237 0.950 . S
H232 C238 0.949 . S
C233 H228 0.950 . S
C233 C235 1.327 . S
C233 C239 1.429 . S
C234 C226 1.574 . S
C234 H229 0.949 . S
C234 C240 1.368 . S
C235 C219 1.349 . S
C235 H227 0.950 . S
C235 C233 1.327 . S
C236 C224 1.349 . S
C236 H230 0.950 . S
C236 C237 1.327 . S
C237 H231 0.950 . S
C237 C236 1.327 . S
C237 C241 1.429 . S
C238 C221 1.574 . S
C238 H232 0.949 . S
C238 C242 1.368 . S
C239 C220 1.429 . S
C239 C233 1.429 . S
C239 C240 1.523 . S
C240 C221 1.368 . S
C240 C234 1.368 . S
C240 C239 1.523 . S
C241 C225 1.429 . S
C241 C237 1.429 . S
C241 C242 1.523 . S
C242 C226 1.368 . S
C242 C238 1.368 . S
C242 C241 1.523 . S
H243 C218 0.950 . S
H244 C220 0.950 . S
H245 C221 0.949 . S
H246 C223 0.950 . S
H247 C225 0.950 . S
C248 C249 1.349 . S
C248 C250 1.327 . S
C248 H273 0.950 . S
C249 C248 1.349 . S
C249 C265 1.349 . S
C250 C248 1.327 . S
C250 C269 1.429 . S
C250 H274 0.950 . S
C251 C268 1.574 . S
C251 C270 1.368 . S
C251 H275 0.949 . S
H252 C256 0.949 . S
C253 C254 1.349 . S
C253 C255 1.327 . S
C253 H276 0.950 . S
C254 C253 1.349 . S
C254 C266 1.349 . S
C255 C253 1.327 . S
C255 C271 1.429 . S
C255 H277 0.950 . S
C256 H252 0.949 . S
C256 C264 1.574 . S
C256 C272 1.368 . S
H257 C265 0.950 . S
H258 C263 0.950 . S
H259 C264 0.949 . S
H260 C266 0.950 . S
H261 C267 0.950 . S
H262 C268 0.949 . S
C263 H258 0.950 . S
C263 C265 1.327 . S
C263 C269 1.429 . S
C264 C256 1.574 . S
C264 H259 0.949 . S
C264 C270 1.368 . S
C265 C249 1.349 . S
C265 H257 0.950 . S
C265 C263 1.327 . S
C266 C254 1.349 . S
C266 H260 0.950 . S
C266 C267 1.327 . S
C267 H261 0.950 . S
C267 C266 1.327 . S
C267 C271 1.429 . S
C268 C251 1.574 . S
C268 H262 0.949 . S
C268 C272 1.368 . S
C269 C250 1.429 . S
C269 C263 1.429 . S
C269 C270 1.523 . S
C270 C251 1.368 . S
C270 C264 1.368 . S
C270 C269 1.523 . S
C271 C255 1.429 . S
C271 C267 1.429 . S
C271 C272 1.523 . S
C272 C256 1.368 . S
C272 C268 1.368 . S
C272 C271 1.523 . S
H273 C248 0.950 . S
H274 C250 0.950 . S
H275 C251 0.949 . S
H276 C253 0.950 . S
H277 C255 0.950 . S
C278 C279 1.349 . S
C278 C280 1.327 . S
C278 H303 0.950 . S
C279 C278 1.349 . S
C279 C295 1.349 . S
C280 C278 1.327 . S
C280 C299 1.429 . S
C280 H304 0.950 . S
C281 C298 1.574 . S
C281 C300 1.368 . S
C281 H305 0.949 . S
H282 C286 0.949 . S
C283 C284 1.349 . S
C283 C285 1.327 . S
C283 H306 0.950 . S
C284 C283 1.349 . S
C284 C296 1.349 . S
C285 C283 1.327 . S
C285 C301 1.429 . S
C285 H307 0.950 . S
C286 H282 0.949 . S
C286 C294 1.574 . S
C286 C302 1.368 . S
H287 C295 0.950 . S
H288 C293 0.950 . S
H289 C294 0.949 . S
H290 C296 0.950 . S
H291 C297 0.950 . S
H292 C298 0.949 . S
C293 H288 0.950 . S
C293 C295 1.327 . S
C293 C299 1.429 . S
C294 C286 1.574 . S
C294 H289 0.949 . S
C294 C300 1.368 . S
C295 C279 1.349 . S
C295 H287 0.950 . S
C295 C293 1.327 . S
C296 C284 1.349 . S
C296 H290 0.950 . S
C296 C297 1.327 . S
C297 H291 0.950 . S
C297 C296 1.327 . S
C297 C301 1.429 . S
C298 C281 1.574 . S
C298 H292 0.949 . S
C298 C302 1.368 . S
C299 C280 1.429 . S
C299 C293 1.429 . S
C299 C300 1.523 . S
C300 C281 1.368 . S
C300 C294 1.368 . S
C300 C299 1.523 . S
C301 C285 1.429 . S
C301 C297 1.429 . S
C301 C302 1.523 . S
C302 C286 1.368 . S
C302 C298 1.368 . S
C302 C301 1.523 . S
H303 C278 0.950 . S
H304 C280 0.950 . S
H305 C281 0.949 . S
H306 C283 0.950 . S
H307 C285 0.950 . S
C308 C309 1.349 . S
C308 C310 1.327 . S
C308 H333 0.950 . S
C309 C308 1.349 . S
C309 C325 1.349 . S
C310 C308 1.327 . S
C310 C329 1.429 . S
C310 H334 0.950 . S
C311 C328 1.574 . S
C311 C330 1.368 . S
C311 H335 0.949 . S
H312 C316 0.949 . S
C313 C314 1.349 . S
C313 C315 1.327 . S
C313 H336 0.950 . S
C314 C313 1.349 . S
C314 C326 1.349 . S
C315 C313 1.327 . S
C315 C331 1.429 . S
C315 H337 0.950 . S
C316 H312 0.949 . S
C316 C324 1.574 . S
C316 C332 1.368 . S
H317 C325 0.950 . S
H318 C323 0.950 . S
H319 C324 0.949 . S
H320 C326 0.950 . S
H321 C327 0.950 . S
H322 C328 0.949 . S
C323 H318 0.950 . S
C323 C325 1.327 . S
C323 C329 1.429 . S
C324 C316 1.574 . S
C324 H319 0.949 . S
C324 C330 1.368 . S
C325 C309 1.349 . S
C325 H317 0.950 . S
C325 C323 1.327 . S
C326 C314 1.349 . S
C326 H320 0.950 . S
C326 C327 1.327 . S
C327 H321 0.950 . S
C327 C326 1.327 . S
C327 C331 1.429 . S
C328 C311 1.574 . S
C328 H322 0.949 . S
C328 C332 1.368 . S
C329 C310 1.429 . S
C329 C323 1.429 . S
C329 C330 1.523 . S
C330 C311 1.368 . S
C330 C324 1.368 . S
C330 C329 1.523 . S
C331 C315 1.429 . S
C331 C327 1.429 . S
C331 C332 1.523 . S
C332 C316 1.368 . S
C332 C328 1.368 . S
C332 C331 1.523 . S
H333 C308 0.950 . S
H334 C310 0.950 . S
H335 C311 0.949 . S
H336 C313 0.950 . S
H337 C315 0.950 . S
C338 C339 1.349 . S
C338 C340 1.327 . S
C338 H363 0.950 . S
C339 C338 1.349 . S
C339 C355 1.349 . S
C340 C338 1.327 . S
C340 C359 1.429 . S
C340 H364 0.950 . S
C341 C358 1.574 . S
C341 C360 1.368 . S
C341 H365 0.949 . S
H342 C346 0.949 . S
C343 C344 1.349 . S
C343 C345 1.327 1_554 S
C343 H366 0.950 . S
C344 C343 1.349 . S
C344 C356 1.349 . S
C345 C343 1.327 1_556 S
C345 C361 1.429 . S
C345 H367 0.950 . S
C346 H342 0.949 . S
C346 C354 1.574 . S
C346 C362 1.368 . S
H347 C355 0.950 . S
H348 C353 0.950 . S
H349 C354 0.949 . S
H350 C356 0.950 . S
H351 C357 0.950 . S
H352 C358 0.949 . S
C353 H348 0.950 . S
C353 C355 1.327 . S
C353 C359 1.429 . S
C354 C346 1.574 . S
C354 H349 0.949 . S
C354 C360 1.368 . S
C355 C339 1.349 . S
C355 H347 0.950 . S
C355 C353 1.327 . S
C356 C344 1.349 . S
C356 H350 0.950 . S
C356 C357 1.327 . S
C357 H351 0.950 . S
C357 C356 1.327 . S
C357 C361 1.429 1_554 S
C358 C341 1.574 . S
C358 H352 0.949 . S
C358 C362 1.368 . S
C359 C340 1.429 . S
C359 C353 1.429 . S
C359 C360 1.523 . S
C360 C341 1.368 . S
C360 C354 1.368 . S
C360 C359 1.523 . S
C361 C345 1.429 . S
C361 C357 1.429 1_556 S
C361 C362 1.523 . S
C362 C346 1.368 . S
C362 C358 1.368 . S
C362 C361 1.523 . S
H363 C338 0.950 . S
H364 C340 0.950 . S
H365 C341 0.949 . S
H366 C343 0.950 . S
H367 C345 0.950 . S
C368 C369 1.349 . S
C368 C370 1.327 . S
C368 H393 0.950 . S
C369 C368 1.349 . S
C369 C385 1.349 . S
C370 C368 1.327 . S
C370 C389 1.429 . S
C370 H394 0.950 . S
C371 C388 1.574 . S
C371 C390 1.368 . S
C371 H395 0.949 . S
H372 C376 0.949 . S
C373 C374 1.349 . S
C373 C375 1.327 . S
C373 H396 0.950 . S
C374 C373 1.349 . S
C374 C386 1.349 . S
C375 C373 1.327 . S
C375 C391 1.429 . S
C375 H397 0.950 . S
C376 H372 0.949 . S
C376 C384 1.574 . S
C376 C392 1.368 . S
H377 C385 0.950 . S
H378 C383 0.950 . S
H379 C384 0.949 . S
H380 C386 0.950 . S
H381 C387 0.950 . S
H382 C388 0.949 . S
C383 H378 0.950 . S
C383 C385 1.327 . S
C383 C389 1.429 . S
C384 C376 1.574 . S
C384 H379 0.949 . S
C384 C390 1.368 . S
C385 C369 1.349 . S
C385 H377 0.950 . S
C385 C383 1.327 . S
C386 C374 1.349 . S
C386 H380 0.950 . S
C386 C387 1.327 . S
C387 H381 0.950 . S
C387 C386 1.327 . S
C387 C391 1.429 . S
C388 C371 1.574 . S
C388 H382 0.949 . S
C388 C392 1.368 . S
C389 C370 1.429 . S
C389 C383 1.429 . S
C389 C390 1.523 . S
C390 C371 1.368 . S
C390 C384 1.368 . S
C390 C389 1.523 . S
C391 C375 1.429 . S
C391 C387 1.429 . S
C391 C392 1.523 . S
C392 C376 1.368 . S
C392 C388 1.368 . S
C392 C391 1.523 . S
H393 C368 0.950 . S
H394 C370 0.950 . S
H395 C371 0.949 . S
H396 C373 0.950 . S
H397 C375 0.950 . S
C398 C399 1.349 . S
C398 C400 1.327 . S
C398 H423 0.950 . S
C399 C398 1.349 . S
C399 C415 1.349 . S
C400 C398 1.327 . S
C400 C419 1.429 . S
C400 H424 0.950 . S
C401 C418 1.574 . S
C401 C420 1.368 . S
C401 H425 0.949 . S
H402 C406 0.949 . S
C403 C404 1.349 . S
C403 C405 1.327 . S
C403 H426 0.950 . S
C404 C403 1.349 . S
C404 C416 1.349 . S
C405 C403 1.327 . S
C405 C421 1.429 . S
C405 H427 0.950 . S
C406 H402 0.949 . S
C406 C414 1.574 . S
C406 C422 1.368 . S
H407 C415 0.950 . S
H408 C413 0.950 . S
H409 C414 0.949 . S
H410 C416 0.950 . S
H411 C417 0.950 . S
H412 C418 0.949 . S
C413 H408 0.950 . S
C413 C415 1.327 . S
C413 C419 1.429 . S
C414 C406 1.574 . S
C414 H409 0.949 . S
C414 C420 1.368 . S
C415 C399 1.349 . S
C415 H407 0.950 . S
C415 C413 1.327 . S
C416 C404 1.349 . S
C416 H410 0.950 . S
C416 C417 1.327 . S
C417 H411 0.950 . S
C417 C416 1.327 . S
C417 C421 1.429 . S
C418 C401 1.574 . S
C418 H412 0.949 . S
C418 C422 1.368 . S
C419 C400 1.429 . S
C419 C413 1.429 . S
C419 C420 1.523 . S
C420 C401 1.368 . S
C420 C414 1.368 . S
C420 C419 1.523 . S
C421 C405 1.429 . S
C421 C417 1.429 . S
C421 C422 1.523 . S
C422 C406 1.368 . S
C422 C418 1.368 . S
C422 C421 1.523 . S
H423 C398 0.950 . S
H424 C400 0.950 . S
H425 C401 0.949 . S
H426 C403 0.950 . S
H427 C405 0.950 . S
C428 C429 1.349 . S
C428 C430 1.327 . S
C428 H453 0.950 . S
C429 C428 1.349 . S
C429 C445 1.349 . S
C430 C428 1.327 . S
C430 C449 1.429 . S
C430 H454 0.950 . S
C431 C448 1.574 . S
C431 C450 1.368 . S
C431 H455 0.949 . S
H432 C436 0.949 . S
C433 C434 1.349 . S
C433 C435 1.327 . S
C433 H456 0.950 1_565 S
C434 C433 1.349 . S
C434 C446 1.349 . S
C435 C433 1.327 . S
C435 C451 1.429 . S
C435 H457 0.950 . S
C436 H432 0.949 . S
C436 C444 1.574 . S
C436 C452 1.368 . S
H437 C445 0.950 . S
H438 C443 0.950 . S
H439 C444 0.949 . S
H440 C446 0.950 . S
H441 C447 0.950 . S
H442 C448 0.949 . S
C443 H438 0.950 . S
C443 C445 1.327 . S
C443 C449 1.429 . S
C444 C436 1.574 . S
C444 H439 0.949 . S
C444 C450 1.368 . S
C445 C429 1.349 . S
C445 H437 0.950 . S
C445 C443 1.327 . S
C446 C434 1.349 . S
C446 H440 0.950 . S
C446 C447 1.327 . S
C447 H441 0.950 . S
C447 C446 1.327 . S
C447 C451 1.429 . S
C448 C431 1.574 . S
C448 H442 0.949 . S
C448 C452 1.368 . S
C449 C430 1.429 . S
C449 C443 1.429 . S
C449 C450 1.523 . S
C450 C431 1.368 . S
C450 C444 1.368 . S
C450 C449 1.523 . S
C451 C435 1.429 . S
C451 C447 1.429 . S
C451 C452 1.523 . S
C452 C436 1.368 . S
C452 C448 1.368 . S
C452 C451 1.523 . S
H453 C428 0.950 . S
H454 C430 0.950 . S
H455 C431 0.949 . S
H456 C433 0.950 1_545 S
H457 C435 0.950 . S
C458 C459 1.349 . S
C458 C460 1.327 . S
C458 H483 0.950 . S
C459 C458 1.349 . S
C459 C475 1.349 . S
C460 C458 1.327 . S
C460 C479 1.429 . S
C460 H484 0.950 . S
C461 C478 1.574 . S
C461 C480 1.368 . S
C461 H485 0.949 . S
H462 C466 0.949 . S
C463 C464 1.349 . S
C463 C465 1.327 . S
C463 H486 0.950 . S
C464 C463 1.349 . S
C464 C476 1.349 . S
C465 C463 1.327 . S
C465 C481 1.429 . S
C465 H487 0.950 . S
C466 H462 0.949 . S
C466 C474 1.574 . S
C466 C482 1.368 . S
H467 C475 0.950 . S
H468 C473 0.950 . S
H469 C474 0.949 . S
H470 C476 0.950 . S
H471 C477 0.950 . S
H472 C478 0.949 . S
C473 H468 0.950 . S
C473 C475 1.327 . S
C473 C479 1.429 . S
C474 C466 1.574 . S
C474 H469 0.949 . S
C474 C480 1.368 . S
C475 C459 1.349 . S
C475 H467 0.950 . S
C475 C473 1.327 . S
C476 C464 1.349 . S
C476 H470 0.950 . S
C476 C477 1.327 . S
C477 H471 0.950 . S
C477 C476 1.327 . S
C477 C481 1.429 . S
C478 C461 1.574 . S
C478 H472 0.949 . S
C478 C482 1.368 . S
C479 C460 1.429 . S
C479 C473 1.429 . S
C479 C480 1.523 . S
C480 C461 1.368 . S
C480 C474 1.368 . S
C480 C479 1.523 . S
C481 C465 1.429 . S
C481 C477 1.429 . S
C481 C482 1.523 . S
C482 C466 1.368 . S
C482 C478 1.368 . S
C482 C481 1.523 . S
H483 C458 0.950 . S
H484 C460 0.950 . S
H485 C461 0.949 . S
H486 C463 0.950 . S
H487 C465 0.950 . S
C488 C489 1.349 . S
C488 C490 1.327 . S
C488 H513 0.950 . S
C489 C488 1.349 . S
C489 C505 1.349 . S
C490 C488 1.327 . S
C490 C509 1.429 . S
C490 H514 0.950 . S
C491 C508 1.574 . S
C491 C510 1.368 . S
C491 H515 0.949 . S
H492 C496 0.949 . S
C493 C494 1.349 . S
C493 C495 1.327 . S
C493 H516 0.950 . S
C494 C493 1.349 . S
C494 C506 1.349 . S
C495 C493 1.327 . S
C495 C511 1.429 . S
C495 H517 0.950 . S
C496 H492 0.949 . S
C496 C504 1.574 . S
C496 C512 1.368 . S
H497 C505 0.950 . S
H498 C503 0.950 . S
H499 C504 0.949 . S
H500 C506 0.950 . S
H501 C507 0.950 . S
H502 C508 0.949 . S
C503 H498 0.950 . S
C503 C505 1.327 . S
C503 C509 1.429 . S
C504 C496 1.574 . S
C504 H499 0.949 . S
C504 C510 1.368 . S
C505 C489 1.349 . S
C505 H497 0.950 . S
C505 C503 1.327 . S
C506 C494 1.349 . S
C506 H500 0.950 . S
C506 C507 1.327 . S
C507 H501 0.950 . S
C507 C506 1.327 . S
C507 C511 1.429 . S
C508 C491 1.574 . S
C508 H502 0.949 . S
C508 C512 1.368 . S
C509 C490 1.429 . S
C509 C503 1.429 . S
C509 C510 1.523 . S
C510 C491 1.368 . S
C510 C504 1.368 . S
C510 C509 1.523 . S
C511 C495 1.429 . S
C511 C507 1.429 . S
C511 C512 1.523 . S
C512 C496 1.368 . S
C512 C508 1.368 . S
C512 C511 1.523 . S
H513 C488 0.950 . S
H514 C490 0.950 . S
H515 C491 0.949 . S
H516 C493 0.950 . S
H517 C495 0.950 . S
C518 C519 1.349 . S
C518 C520 1.327 . S
C518 H543 0.950 . S
C519 C518 1.349 . S
C519 C535 1.349 . S
C520 C518 1.327 . S
C520 C539 1.429 . S
C520 H544 0.950 . S
C521 C538 1.574 . S
C521 C540 1.368 . S
C521 H545 0.949 . S
H522 C526 0.949 . S
C523 C524 1.349 . S
C523 C525 1.327 . S
C523 H546 0.950 . S
C524 C523 1.349 . S
C524 C536 1.349 . S
C525 C523 1.327 . S
C525 C541 1.429 . S
C525 H547 0.950 . S
C526 H522 0.949 . S
C526 C534 1.574 . S
C526 C542 1.368 . S
H527 C535 0.950 . S
H528 C533 0.950 . S
H529 C534 0.949 . S
H530 C536 0.950 . S
H531 C537 0.950 . S
H532 C538 0.949 . S
C533 H528 0.950 . S
C533 C535 1.327 . S
C533 C539 1.429 . S
C534 C526 1.574 . S
C534 H529 0.949 . S
C534 C540 1.368 . S
C535 C519 1.349 . S
C535 H527 0.950 . S
C535 C533 1.327 . S
C536 C524 1.349 . S
C536 H530 0.950 . S
C536 C537 1.327 . S
C537 H531 0.950 . S
C537 C536 1.327 . S
C537 C541 1.429 . S
C538 C521 1.574 . S
C538 H532 0.949 . S
C538 C542 1.368 . S
C539 C520 1.429 . S
C539 C533 1.429 . S
C539 C540 1.523 . S
C540 C521 1.368 . S
C540 C534 1.368 . S
C540 C539 1.523 . S
C541 C525 1.429 . S
C541 C537 1.429 . S
C541 C542 1.523 . S
C542 C526 1.368 . S
C542 C538 1.368 . S
C542 C541 1.523 . S
H543 C518 0.950 . S
H544 C520 0.950 . S
H545 C521 0.949 . S
H546 C523 0.950 . S
H547 C525 0.950 . S
C548 C549 1.349 . S
C548 C550 1.327 . S
C548 H573 0.950 . S
C549 C548 1.349 . S
C549 C565 1.349 . S
C550 C548 1.327 . S
C550 C569 1.429 . S
C550 H574 0.950 . S
C551 C568 1.574 . S
C551 C570 1.368 . S
C551 H575 0.949 . S
H552 C556 0.949 . S
C553 C554 1.349 . S
C553 C555 1.327 . S
C553 H576 0.950 . S
C554 C553 1.349 . S
C554 C566 1.349 . S
C555 C553 1.327 . S
C555 C571 1.429 . S
C555 H577 0.950 . S
C556 H552 0.949 . S
C556 C564 1.574 . S
C556 C572 1.368 . S
H557 C565 0.950 . S
H558 C563 0.950 . S
H559 C564 0.949 . S
H560 C566 0.950 . S
H561 C567 0.950 . S
H562 C568 0.949 . S
C563 H558 0.950 . S
C563 C565 1.327 . S
C563 C569 1.429 . S
C564 C556 1.574 . S
C564 H559 0.949 . S
C564 C570 1.368 . S
C565 C549 1.349 . S
C565 H557 0.950 . S
C565 C563 1.327 . S
C566 C554 1.349 . S
C566 H560 0.950 . S
C566 C567 1.327 . S
C567 H561 0.950 . S
C567 C566 1.327 . S
C567 C571 1.429 . S
C568 C551 1.574 . S
C568 H562 0.949 . S
C568 C572 1.368 . S
C569 C550 1.429 . S
C569 C563 1.429 . S
C569 C570 1.523 . S
C570 C551 1.368 . S
C570 C564 1.368 . S
C570 C569 1.523 . S
C571 C555 1.429 . S
C571 C567 1.429 . S
C571 C572 1.523 . S
C572 C556 1.368 . S
C572 C568 1.368 . S
C572 C571 1.523 . S
H573 C548 0.950 . S
H574 C550 0.950 . S
H575 C551 0.949 . S
H576 C553 0.950 . S
H577 C555 0.950 . S
C578 C579 1.349 . S
C578 C580 1.327 . S
C578 H603 0.950 . S
C579 C578 1.349 . S
C579 C595 1.349 . S
C580 C578 1.327 . S
C580 C599 1.429 . S
C580 H604 0.950 . S
C581 C598 1.574 . S
C581 C600 1.368 . S
C581 H605 0.949 . S
H582 C586 0.949 . S
C583 C584 1.349 . S
C583 C585 1.327 . S
C583 H606 0.950 . S
C584 C583 1.349 . S
C584 C596 1.349 . S
C585 C583 1.327 . S
C585 C601 1.429 . S
C585 H607 0.950 . S
C586 H582 0.949 . S
C586 C594 1.574 . S
C586 C602 1.368 . S
H587 C595 0.950 . S
H588 C593 0.950 . S
H589 C594 0.949 . S
H590 C596 0.950 . S
H591 C597 0.950 . S
H592 C598 0.949 . S
C593 H588 0.950 . S
C593 C595 1.327 . S
C593 C599 1.429 . S
C594 C586 1.574 . S
C594 H589 0.949 . S
C594 C600 1.368 . S
C595 C579 1.349 . S
C595 H587 0.950 . S
C595 C593 1.327 . S
C596 C584 1.349 . S
C596 H590 0.950 . S
C596 C597 1.327 . S
C597 H591 0.950 . S
C597 C596 1.327 . S
C597 C601 1.429 . S
C598 C581 1.574 . S
C598 H592 0.949 . S
C598 C602 1.368 . S
C599 C580 1.429 . S
C599 C593 1.429 . S
C599 C600 1.523 . S
C600 C581 1.368 . S
C600 C594 1.368 . S
C600 C599 1.523 . S
C601 C585 1.429 . S
C601 C597 1.429 . S
C601 C602 1.523 . S
C602 C586 1.368 . S
C602 C598 1.368 . S
C602 C601 1.523 . S
H603 C578 0.950 . S
H604 C580 0.950 . S
H605 C581 0.949 . S
H606 C583 0.950 . S
H607 C585 0.950 . S
C608 C609 1.349 . S
C608 C610 1.327 . S
C608 H633 0.950 . S
C609 C608 1.349 . S
C609 C625 1.349 . S
C610 C608 1.327 . S
C610 C629 1.429 . S
C610 H634 0.950 . S
C611 C628 1.574 . S
C611 C630 1.368 . S
C611 H635 0.949 . S
H612 C616 0.949 . S
C613 C614 1.349 . S
C613 C615 1.327 . S
C613 H636 0.950 . S
C614 C613 1.349 . S
C614 C626 1.349 . S
C615 C613 1.327 . S
C615 C631 1.429 . S
C615 H637 0.950 . S
C616 H612 0.949 . S
C616 C624 1.574 . S
C616 C632 1.368 . S
H617 C625 0.950 . S
H618 C623 0.950 . S
H619 C624 0.949 . S
H620 C626 0.950 . S
H621 C627 0.950 . S
H622 C628 0.949 . S
C623 H618 0.950 . S
C623 C625 1.327 . S
C623 C629 1.429 . S
C624 C616 1.574 . S
C624 H619 0.949 . S
C624 C630 1.368 . S
C625 C609 1.349 . S
C625 H617 0.950 . S
C625 C623 1.327 . S
C626 C614 1.349 . S
C626 H620 0.950 . S
C626 C627 1.327 . S
C627 H621 0.950 . S
C627 C626 1.327 . S
C627 C631 1.429 . S
C628 C611 1.574 . S
C628 H622 0.949 . S
C628 C632 1.368 . S
C629 C610 1.429 . S
C629 C623 1.429 . S
C629 C630 1.523 . S
C630 C611 1.368 . S
C630 C624 1.368 . S
C630 C629 1.523 . S
C631 C615 1.429 . S
C631 C627 1.429 . S
C631 C632 1.523 . S
C632 C616 1.368 . S
C632 C628 1.368 . S
C632 C631 1.523 . S
H633 C608 0.950 . S
H634 C610 0.950 . S
H635 C611 0.949 . S
H636 C613 0.950 . S
H637 C615 0.950 . S
C638 C639 1.349 . S
C638 C640 1.327 . S
C638 H663 0.950 . S
C639 C638 1.349 . S
C639 C655 1.349 . S
C640 C638 1.327 . S
C640 C659 1.429 . S
C640 H664 0.950 . S
C641 C658 1.574 . S
C641 C660 1.368 . S
C641 H665 0.949 . S
H642 C646 0.949 . S
C643 C644 1.349 . S
C643 C645 1.327 . S
C643 H666 0.950 . S
C644 C643 1.349 . S
C644 C656 1.349 . S
C645 C643 1.327 . S
C645 C661 1.429 . S
C645 H667 0.950 . S
C646 H642 0.949 . S
C646 C654 1.574 . S
C646 C662 1.368 . S
H647 C655 0.950 . S
H648 C653 0.950 . S
H649 C654 0.949 . S
H650 C656 0.950 . S
H651 C657 0.950 . S
H652 C658 0.949 . S
C653 H648 0.950 . S
C653 C655 1.327 . S
C653 C659 1.429 . S
C654 C646 1.574 . S
C654 H649 0.949 . S
C654 C660 1.368 . S
C655 C639 1.349 . S
C655 H647 0.950 . S
C655 C653 1.327 . S
C656 C644 1.349 . S
C656 H650 0.950 . S
C656 C657 1.327 . S
C657 H651 0.950 . S
C657 C656 1.327 . S
C657 C661 1.429 . S
C658 C641 1.574 . S
C658 H652 0.949 . S
C658 C662 1.368 . S
C659 C640 1.429 . S
C659 C653 1.429 . S
C659 C660 1.523 . S
C660 C641 1.368 . S
C660 C654 1.368 . S
C660 C659 1.523 . S
C661 C645 1.429 . S
C661 C657 1.429 . S
C661 C662 1.523 . S
C662 C646 1.368 . S
C662 C658 1.368 . S
C662 C661 1.523 . S
H663 C638 0.950 . S
H664 C640 0.950 . S
H665 C641 0.949 . S
H666 C643 0.950 . S
H667 C645 0.950 . S
C668 C669 1.349 . S
C668 C670 1.327 . S
C668 H693 0.950 . S
C669 C668 1.349 . S
C669 C685 1.349 . S
C670 C668 1.327 . S
C670 C689 1.429 . S
C670 H694 0.950 . S
C671 C688 1.574 . S
C671 C690 1.368 . S
C671 H695 0.949 . S
H672 C676 0.949 . S
C673 C674 1.349 . S
C673 C675 1.327 . S
C673 H696 0.950 . S
C674 C673 1.349 . S
C674 C686 1.349 . S
C675 C673 1.327 . S
C675 C691 1.429 . S
C675 H697 0.950 . S
C676 H672 0.949 . S
C676 C684 1.574 . S
C676 C692 1.368 . S
H677 C685 0.950 . S
H678 C683 0.950 . S
H679 C684 0.949 . S
H680 C686 0.950 . S
H681 C687 0.950 . S
H682 C688 0.949 . S
C683 H678 0.950 . S
C683 C685 1.327 . S
C683 C689 1.429 . S
C684 C676 1.574 . S
C684 H679 0.949 . S
C684 C690 1.368 . S
C685 C669 1.349 . S
C685 H677 0.950 . S
C685 C683 1.327 . S
C686 C674 1.349 . S
C686 H680 0.950 . S
C686 C687 1.327 . S
C687 H681 0.950 . S
C687 C686 1.327 . S
C687 C691 1.429 . S
C688 C671 1.574 . S
C688 H682 0.949 . S
C688 C692 1.368 . S
C689 C670 1.429 . S
C689 C683 1.429 . S
C689 C690 1.523 . S
C690 C671 1.368 . S
C690 C684 1.368 . S
C690 C689 1.523 . S
C691 C675 1.429 . S
C691 C687 1.429 . S
C691 C692 1.523 . S
C692 C676 1.368 . S
C692 C688 1.368 . S
C692 C691 1.523 . S
H693 C668 0.950 . S
H694 C670 0.950 . S
H695 C671 0.949 . S
H696 C673 0.950 . S
H697 C675 0.950 . S
C698 C699 1.349 . S
C698 C700 1.327 . S
C698 H723 0.950 . S
C699 C698 1.349 . S
C699 C715 1.349 . S
C700 C698 1.327 . S
C700 C719 1.429 . S
C700 H724 0.950 . S
C701 C718 1.574 . S
C701 C720 1.368 . S
C701 H725 0.949 . S
H702 C706 0.949 . S
C703 C704 1.349 . S
C703 C705 1.327 . S
C703 H726 0.950 . S
C704 C703 1.349 . S
C704 C716 1.349 . S
C705 C703 1.327 . S
C705 C721 1.429 . S
C705 H727 0.950 . S
C706 H702 0.949 . S
C706 C714 1.574 . S
C706 C722 1.368 . S
H707 C715 0.950 . S
H708 C713 0.950 . S
H709 C714 0.949 . S
H710 C716 0.950 . S
H711 C717 0.950 . S
H712 C718 0.949 . S
C713 H708 0.950 . S
C713 C715 1.327 . S
C713 C719 1.429 . S
C714 C706 1.574 . S
C714 H709 0.949 . S
C714 C720 1.368 . S
C715 C699 1.349 . S
C715 H707 0.950 . S
C715 C713 1.327 . S
C716 C704 1.349 . S
C716 H710 0.950 . S
C716 C717 1.327 . S
C717 H711 0.950 . S
C717 C716 1.327 . S
C717 C721 1.429 . S
C718 C701 1.574 . S
C718 H712 0.949 . S
C718 C722 1.368 . S
C719 C700 1.429 . S
C719 C713 1.429 . S
C719 C720 1.523 . S
C720 C701 1.368 . S
C720 C714 1.368 . S
C720 C719 1.523 . S
C721 C705 1.429 . S
C721 C717 1.429 . S
C721 C722 1.523 . S
C722 C706 1.368 . S
C722 C718 1.368 . S
C722 C721 1.523 . S
H723 C698 0.950 . S
H724 C700 0.950 . S
H725 C701 0.949 . S
H726 C703 0.950 . S
H727 C705 0.950 . S
C728 C729 1.349 . S
C728 C730 1.327 . S
C728 H753 0.950 . S
C729 C728 1.349 . S
C729 C745 1.349 . S
C730 C728 1.327 . S
C730 C749 1.429 . S
C730 H754 0.950 . S
C731 C748 1.574 . S
C731 C750 1.368 . S
C731 H755 0.949 . S
H732 C736 0.949 . S
C733 C734 1.349 . S
C733 C735 1.327 . S
C733 H756 0.950 . S
C734 C733 1.349 . S
C734 C746 1.349 . S
C735 C733 1.327 . S
C735 C751 1.429 . S
C735 H757 0.950 . S
C736 H732 0.949 . S
C736 C744 1.574 . S
C736 C752 1.368 . S
H737 C745 0.950 . S
H738 C743 0.950 . S
H739 C744 0.949 . S
H740 C746 0.950 . S
H741 C747 0.950 . S
H742 C748 0.949 . S
C743 H738 0.950 . S
C743 C745 1.327 . S
C743 C749 1.429 . S
C744 C736 1.574 . S
C744 H739 0.949 . S
C744 C750 1.368 . S
C745 C729 1.349 . S
C745 H737 0.950 . S
C745 C743 1.327 . S
C746 C734 1.349 . S
C746 H740 0.950 . S
C746 C747 1.327 . S
C747 H741 0.950 . S
C747 C746 1.327 . S
C747 C751 1.429 . S
C748 C731 1.574 . S
C748 H742 0.949 . S
C748 C752 1.368 . S
C749 C730 1.429 . S
C749 C743 1.429 . S
C749 C750 1.523 . S
C750 C731 1.368 . S
C750 C744 1.368 . S
C750 C749 1.523 . S
C751 C735 1.429 . S
C751 C747 1.429 . S
C751 C752 1.523 . S
C752 C736 1.368 . S
C752 C748 1.368 . S
C752 C751 1.523 . S
H753 C728 0.950 . S
H754 C730 0.950 . S
H755 C731 0.949 . S
H756 C733 0.950 . S
H757 C735 0.950 . S
C758 C759 1.349 . S
C758 C760 1.327 . S
C758 H783 0.950 . S
C759 C758 1.349 . S
C759 C775 1.349 . S
C760 C758 1.327 . S
C760 C779 1.429 . S
C760 H784 0.950 . S
C761 C778 1.574 . S
C761 C780 1.368 . S
C761 H785 0.949 . S
H762 C766 0.949 . S
C763 C764 1.349 . S
C763 C765 1.327 . S
C763 H786 0.950 . S
C764 C763 1.349 . S
C764 C776 1.349 . S
C765 C763 1.327 . S
C765 C781 1.429 . S
C765 H787 0.950 . S
C766 H762 0.949 . S
C766 C774 1.574 . S
C766 C782 1.368 . S
H767 C775 0.950 . S
H768 C773 0.950 . S
H769 C774 0.949 . S
H770 C776 0.950 . S
H771 C777 0.950 . S
H772 C778 0.949 . S
C773 H768 0.950 . S
C773 C775 1.327 . S
C773 C779 1.429 . S
C774 C766 1.574 . S
C774 H769 0.949 . S
C774 C780 1.368 . S
C775 C759 1.349 . S
C775 H767 0.950 . S
C775 C773 1.327 . S
C776 C764 1.349 . S
C776 H770 0.950 . S
C776 C777 1.327 . S
C777 H771 0.950 . S
C777 C776 1.327 . S
C777 C781 1.429 . S
C778 C761 1.574 . S
C778 H772 0.949 . S
C778 C782 1.368 . S
C779 C760 1.429 . S
C779 C773 1.429 . S
C779 C780 1.523 . S
C780 C761 1.368 . S
C780 C774 1.368 . S
C780 C779 1.523 . S
C781 C765 1.429 . S
C781 C777 1.429 . S
C781 C782 1.523 . S
C782 C766 1.368 . S
C782 C778 1.368 . S
C782 C781 1.523 . S
H783 C758 0.950 . S
H784 C760 0.950 . S
H785 C761 0.949 . S
H786 C763 0.950 . S
H787 C765 0.950 . S
C788 C789 1.349 . S
C788 C790 1.327 . S
C788 H813 0.950 . S
C789 C788 1.349 . S
C789 C805 1.349 . S
C790 C788 1.327 . S
C790 C809 1.429 . S
C790 H814 0.950 . S
C791 C808 1.574 . S
C791 C810 1.368 . S
C791 H815 0.949 . S
H792 C796 0.949 . S
C793 C794 1.349 . S
C793 C795 1.327 . S
C793 H816 0.950 . S
C794 C793 1.349 . S
C794 C806 1.349 . S
C795 C793 1.327 . S
C795 C811 1.429 . S
C795 H817 0.950 . S
C796 H792 0.949 . S
C796 C804 1.574 . S
C796 C812 1.368 . S
H797 C805 0.950 . S
H798 C803 0.950 . S
H799 C804 0.949 . S
H800 C806 0.950 . S
H801 C807 0.950 . S
H802 C808 0.949 . S
C803 H798 0.950 . S
C803 C805 1.327 . S
C803 C809 1.429 . S
C804 C796 1.574 . S
C804 H799 0.949 . S
C804 C810 1.368 . S
C805 C789 1.349 . S
C805 H797 0.950 . S
C805 C803 1.327 . S
C806 C794 1.349 . S
C806 H800 0.950 . S
C806 C807 1.327 . S
C807 H801 0.950 . S
C807 C806 1.327 . S
C807 C811 1.429 . S
C808 C791 1.574 . S
C808 H802 0.949 . S
C808 C812 1.368 . S
C809 C790 1.429 . S
C809 C803 1.429 . S
C809 C810 1.523 . S
C810 C791 1.368 . S
C810 C804 1.368 . S
C810 C809 1.523 . S
C811 C795 1.429 . S
C811 C807 1.429 . S
C811 C812 1.523 . S
C812 C796 1.368 . S
C812 C808 1.368 . S
C812 C811 1.523 . S
H813 C788 0.950 . S
H814 C790 0.950 . S
H815 C791 0.949 . S
H816 C793 0.950 . S
H817 C795 0.950 . S
C818 C819 1.349 . S
C818 C820 1.327 . S
C818 H843 0.950 . S
C819 C818 1.349 . S
C819 C835 1.349 . S
C820 C818 1.327 . S
C820 C839 1.429 . S
C820 H844 0.950 . S
C821 C838 1.574 . S
C821 C840 1.368 . S
C821 H845 0.949 . S
H822 C826 0.949 . S
C823 C824 1.349 . S
C823 C825 1.327 . S
C823 H846 0.950 . S
C824 C823 1.349 . S
C824 C836 1.349 . S
C825 C823 1.327 . S
C825 C841 1.429 . S
C825 H847 0.950 . S
C826 H822 0.949 . S
C826 C834 1.574 . S
C826 C842 1.368 . S
H827 C835 0.950 . S
H828 C833 0.950 . S
H829 C834 0.949 . S
H830 C836 0.950 . S
H831 C837 0.950 . S
H832 C838 0.949 . S
C833 H828 0.950 . S
C833 C835 1.327 . S
C833 C839 1.429 . S
C834 C826 1.574 . S
C834 H829 0.949 . S
C834 C840 1.368 . S
C835 C819 1.349 . S
C835 H827 0.950 . S
C835 C833 1.327 . S
C836 C824 1.349 . S
C836 H830 0.950 . S
C836 C837 1.327 . S
C837 H831 0.950 . S
C837 C836 1.327 . S
C837 C841 1.429 . S
C838 C821 1.574 . S
C838 H832 0.949 . S
C838 C842 1.368 . S
C839 C820 1.429 . S
C839 C833 1.429 . S
C839 C840 1.523 . S
C840 C821 1.368 . S
C840 C834 1.368 . S
C840 C839 1.523 . S
C841 C825 1.429 . S
C841 C837 1.429 . S
C841 C842 1.523 . S
C842 C826 1.368 . S
C842 C838 1.368 . S
C842 C841 1.523 . S
H843 C818 0.950 . S
H844 C820 0.950 . S
H845 C821 0.949 . S
H846 C823 0.950 . S
H847 C825 0.950 . S
C848 C849 1.349 . S
C848 C850 1.327 . S
C848 H873 0.950 . S
C849 C848 1.349 . S
C849 C865 1.349 . S
C850 C848 1.327 . S
C850 C869 1.429 . S
C850 H874 0.950 . S
C851 C868 1.574 . S
C851 C870 1.368 . S
C851 H875 0.949 . S
H852 C856 0.949 . S
C853 C854 1.349 . S
C853 C855 1.327 . S
C853 H876 0.950 . S
C854 C853 1.349 . S
C854 C866 1.349 . S
C855 C853 1.327 . S
C855 C871 1.429 . S
C855 H877 0.950 . S
C856 H852 0.949 . S
C856 C864 1.574 . S
C856 C872 1.368 . S
H857 C865 0.950 . S
H858 C863 0.950 . S
H859 C864 0.949 . S
H860 C866 0.950 . S
H861 C867 0.950 . S
H862 C868 0.949 . S
C863 H858 0.950 . S
C863 C865 1.327 . S
C863 C869 1.429 . S
C864 C856 1.574 . S
C864 H859 0.949 . S
C864 C870 1.368 . S
C865 C849 1.349 . S
C865 H857 0.950 . S
C865 C863 1.327 . S
C866 C854 1.349 . S
C866 H860 0.950 . S
C866 C867 1.327 . S
C867 H861 0.950 . S
C867 C866 1.327 . S
C867 C871 1.429 . S
C868 C851 1.574 . S
C868 H862 0.949 . S
C868 C872 1.368 . S
C869 C850 1.429 . S
C869 C863 1.429 . S
C869 C870 1.523 . S
C870 C851 1.368 . S
C870 C864 1.368 . S
C870 C869 1.523 . S
C871 C855 1.429 . S
C871 C867 1.429 . S
C871 C872 1.523 . S
C872 C856 1.368 . S
C872 C868 1.368 . S
C872 C871 1.523 . S
H873 C848 0.950 . S
H874 C850 0.950 . S
H875 C851 0.949 . S
H876 C853 0.950 . S
H877 C855 0.950 . S
C878 C879 1.349 . S
C878 C880 1.327 . S
C878 H903 0.950 . S
C879 C878 1.349 . S
C879 C895 1.349 . S
C880 C878 1.327 . S
C880 C899 1.429 . S
C880 H904 0.950 . S
C881 C898 1.574 . S
C881 C900 1.368 . S
C881 H905 0.949 . S
H882 C886 0.949 . S
C883 C884 1.349 1_556 S
C883 C885 1.327 . S
C883 H906 0.950 . S
C884 C883 1.349 1_554 S
C884 C896 1.349 . S
C885 C883 1.327 . S
C885 C901 1.429 . S
C885 H907 0.950 . S
C886 H882 0.949 . S
C886 C894 1.574 . S
C886 C902 1.368 . S
H887 C895 0.950 . S
H888 C893 0.950 . S
H889 C894 0.949 . S
H890 C896 0.950 . S
H891 C897 0.952 . S
H892 C898 0.949 . S
C893 H888 0.950 . S
C893 C895 1.327 . S
C893 C899 1.429 . S
C894 C886 1.574 . S
C894 H889 0.949 . S
C894 C900 1.368 . S
C895 C879 1.349 . S
C895 H887 0.950 . S
C895 C893 1.327 . S
C896 C884 1.349 . S
C896 H890 0.950 . S
C896 C897 1.337 . S
C897 H891 0.952 . S
C897 C896 1.337 . S
C897 C901 1.416 1_554 S
C898 C881 1.574 . S
C898 H892 0.949 . S
C898 C902 1.368 . S
C899 C880 1.429 . S
C899 C893 1.429 . S
C899 C900 1.523 . S
C900 C881 1.368 . S
C900 C894 1.368 . S
C900 C899 1.523 . S
C901 C885 1.429 . S
C901 C897 1.416 1_556 S
C901 C902 1.523 . S
C902 C886 1.368 . S
C902 C898 1.368 . S
C902 C901 1.523 . S
H903 C878 0.950 . S
H904 C880 0.950 . S
H905 C881 0.949 . S
H906 C883 0.950 . S
H907 C885 0.950 . S
C194 C116 1.665 . S
C189 C8 1.677 . S
C224 C119 1.580 . S
C219 C22 1.562 . S
C254 C117 1.580 . S
C249 C30 1.576 . S
C284 C118 1.354 . S
C279 C47 1.352 . S
C314 C133 1.726 . S
C309 C9 1.734 . S
C344 C147 1.688 . S
C339 C17 1.637 . S
C369 C34 1.508 . S
C374 C173 1.498 . S
C404 C187 1.614 . S
C399 C48 1.611 . S
C434 C132 1.765 . S
C429 C21 1.759 . S
C459 C35 1.681 . S
C464 C146 1.702 . S
C494 C172 1.337 . S
C489 C43 1.293 . S
C524 C186 1.625 . S
C519 C4 1.584 . S
C549 C56 1.402 . S
C554 C131 1.451 . S
C584 C104 1.596 . S
C579 C73 1.600 . S
C609 C87 1.593 . S
C614 C130 1.597 . S
C639 C100 1.762 . S
C644 C105 1.752 . S
C674 C160 1.623 . S
C669 C60 1.632 . S
C704 C174 1.459 . S
C699 C69 1.400 . S
C734 C144 1.843 . S
C729 C86 1.866 . S
C759 C95 1.427 . S
C764 C158 1.498 . S
C794 C161 1.613 . S
C789 C74 1.616 . S
C824 C175 1.468 . S
C819 C82 1.410 . S
C854 C145 1.928 . S
C849 C99 1.937 . S
C879 C61 1.545 . S
C884 C159 1.560 . S
