# Generated by pormake.
# Topology sqc, (4,8)-cn, num edge types: 1
# Building blocks:
#     Node 0, Type 0, BuildingBlock: MUDLON_clean_linker_0, # of connection points: 4
#     Node 1, Type 0, BuildingBlock: MUDLON_clean_linker_0, # of connection points: 4
#     Node 2, Type 0, BuildingBlock: MUDLON_clean_linker_0, # of connection points: 4
#     Node 3, Type 0, BuildingBlock: MUDLON_clean_linker_0, # of connection points: 4
#     Node 4, Type 0, BuildingBlock: MUDLON_clean_linker_0, # of connection points: 4
#     Node 5, Type 0, BuildingBlock: MUDLON_clean_linker_0, # of connection points: 4
#     Node 6, Type 0, BuildingBlock: MUDLON_clean_linker_0, # of connection points: 4
#     Node 7, Type 0, BuildingBlock: MUDLON_clean_linker_0, # of connection points: 4
#     Node 8, Type 1, BuildingBlock: TAGTUT_clean_sbu_3, # of connection points: 8
#     Node 9, Type 1, BuildingBlock: TAGTUT_clean_sbu_3, # of connection points: 8
#     Node 10, Type 1, BuildingBlock: TAGTUT_clean_sbu_3, # of connection points: 8
#     Node 11, Type 1, BuildingBlock: TAGTUT_clean_sbu_3, # of connection points: 8
#     Edge 12, Type (0, 1), BuildingBlock: CIFDUS_clean_linker_0, # of connection points: 2
#     Edge 13, Type (0, 1), BuildingBlock: CIFDUS_clean_linker_0, # of connection points: 2
#     Edge 14, Type (0, 1), BuildingBlock: CIFDUS_clean_linker_0, # of connection points: 2
#     Edge 15, Type (0, 1), BuildingBlock: CIFDUS_clean_linker_0, # of connection points: 2
#     Edge 16, Type (0, 1), BuildingBlock: CIFDUS_clean_linker_0, # of connection points: 2
#     Edge 17, Type (0, 1), BuildingBlock: CIFDUS_clean_linker_0, # of connection points: 2
#     Edge 18, Type (0, 1), BuildingBlock: CIFDUS_clean_linker_0, # of connection points: 2
#     Edge 19, Type (0, 1), BuildingBlock: CIFDUS_clean_linker_0, # of connection points: 2
#     Edge 20, Type (0, 1), BuildingBlock: CIFDUS_clean_linker_0, # of connection points: 2
#     Edge 21, Type (0, 1), BuildingBlock: CIFDUS_clean_linker_0, # of connection points: 2
#     Edge 22, Type (0, 1), BuildingBlock: CIFDUS_clean_linker_0, # of connection points: 2
#     Edge 23, Type (0, 1), BuildingBlock: CIFDUS_clean_linker_0, # of connection points: 2
#     Edge 24, Type (0, 1), BuildingBlock: CIFDUS_clean_linker_0, # of connection points: 2
#     Edge 25, Type (0, 1), BuildingBlock: CIFDUS_clean_linker_0, # of connection points: 2
#     Edge 26, Type (0, 1), BuildingBlock: CIFDUS_clean_linker_0, # of connection points: 2
#     Edge 27, Type (0, 1), BuildingBlock: CIFDUS_clean_linker_0, # of connection points: 2
#     Edge 28, Type (0, 1), BuildingBlock: CIFDUS_clean_linker_0, # of connection points: 2
#     Edge 29, Type (0, 1), BuildingBlock: CIFDUS_clean_linker_0, # of connection points: 2
#     Edge 30, Type (0, 1), BuildingBlock: CIFDUS_clean_linker_0, # of connection points: 2
#     Edge 31, Type (0, 1), BuildingBlock: CIFDUS_clean_linker_0, # of connection points: 2
#     Edge 32, Type (0, 1), BuildingBlock: CIFDUS_clean_linker_0, # of connection points: 2
#     Edge 33, Type (0, 1), BuildingBlock: CIFDUS_clean_linker_0, # of connection points: 2
#     Edge 34, Type (0, 1), BuildingBlock: CIFDUS_clean_linker_0, # of connection points: 2
#     Edge 35, Type (0, 1), BuildingBlock: CIFDUS_clean_linker_0, # of connection points: 2
#     Edge 36, Type (0, 1), BuildingBlock: CIFDUS_clean_linker_0, # of connection points: 2
#     Edge 37, Type (0, 1), BuildingBlock: CIFDUS_clean_linker_0, # of connection points: 2
#     Edge 38, Type (0, 1), BuildingBlock: CIFDUS_clean_linker_0, # of connection points: 2
#     Edge 39, Type (0, 1), BuildingBlock: CIFDUS_clean_linker_0, # of connection points: 2
#     Edge 40, Type (0, 1), BuildingBlock: CIFDUS_clean_linker_0, # of connection points: 2
#     Edge 41, Type (0, 1), BuildingBlock: CIFDUS_clean_linker_0, # of connection points: 2
#     Edge 42, Type (0, 1), BuildingBlock: CIFDUS_clean_linker_0, # of connection points: 2
#     Edge 43, Type (0, 1), BuildingBlock: CIFDUS_clean_linker_0, # of connection points: 2
# Relax obj value: 0.179
# Max RMSD: 0.280
# Mean RMSD: 0.216
data_MOF--net-sqc--node1-TAGTUT_clean_sbu_3--node2-MUDLON_clean_linker_0--edge1-CIFDUS_clean_linker_0
_symmetry_space_group_name_H-M    P1
_symmetry_Int_Tables_number       1
_symmetry_cell_setting            triclinic
loop_
_symmetry_equiv_pos_as_xyz
'x, y, z'
_cell_length_a     28.971334
_cell_length_b     28.983156
_cell_length_c     82.187222
_cell_angle_alpha  90.679045
_cell_angle_beta   89.812288
_cell_angle_gamma 89.919789
loop_
_atom_site_label
_atom_site_type_symbol
_atom_site_fract_x
_atom_site_fract_y
_atom_site_fract_z
_atom_type_partial_charge
H0 H 0.88672 0.99251 0.54527 0.0
N1 N 0.88543 0.03755 0.51613 0.0
H2 H 0.84155 0.01267 0.56953 0.0
H3 H 0.82978 0.10939 0.52033 0.0
H4 H 0.78483 0.13022 0.54461 0.0
H5 H 0.85702 0.05962 0.48658 0.0
H6 H 0.80374 0.01663 0.46907 0.0
H7 H 0.85089 0.95122 0.52194 0.0
H8 H 0.79962 0.90703 0.50429 0.0
H9 H 0.93104 0.95548 0.52134 0.0
H10 H 0.95102 0.1009 0.51362 0.0
H11 H 0.01407 0.94453 0.52322 0.0
H12 H 0.03456 0.09061 0.5161 0.0
H13 H 0.27015 0.96284 0.55376 0.0
H14 H 0.32609 0.00677 0.56983 0.0
H15 H 0.29982 0.12678 0.54058 0.0
H16 H 0.24303 0.08255 0.52473 0.0
H17 H 0.26194 0.03612 0.50096 0.0
H18 H 0.3191 0.00707 0.48158 0.0
H19 H 0.31478 0.8738 0.50457 0.0
H20 H 0.25639 0.90307 0.52369 0.0
H21 H 0.16054 0.9484 0.54337 0.0
H22 H 0.07725 0.95961 0.54075 0.0
H23 H 0.10145 0.05945 0.503 0.0
N24 N 0.22752 0.98962 0.52709 0.0
H25 H 0.18456 0.04909 0.50619 0.0
C26 C 0.862 0.04997 0.53104 0.0
C27 C 0.86485 0.02276 0.54505 0.0
C28 C 0.83886 0.03424 0.5589 0.0
C29 C 0.80935 0.07287 0.55895 0.0
C30 C 0.80658 0.09981 0.54488 0.0
C31 C 0.83266 0.08841 0.53109 0.0
C32 C 0.8587 0.00847 0.50538 0.0
C33 C 0.84502 0.02602 0.49036 0.0
C34 C 0.81452 0.00137 0.4804 0.0
C35 C 0.7972 0.95829 0.48526 0.0
C36 C 0.8116 0.94038 0.50025 0.0
C37 C 0.84176 0.9653 0.51026 0.0
C38 C 0.93454 0.02919 0.51717 0.0
C39 C 0.95313 0.98518 0.52002 0.0
C40 C 1.00094 0.979 0.52126 0.0
C41 C 0.03135 0.01667 0.51984 0.0
C42 C 0.0125 0.06062 0.517 0.0
C43 C 0.96472 0.06668 0.51568 0.0
C44 C 0.25261 0.01925 0.53808 0.0
C45 C 0.27565 0.99893 0.5511 0.0
C46 C 0.30798 0.02393 0.5601 0.0
C47 C 0.3181 0.06995 0.55622 0.0
C48 C 0.29286 0.09134 0.5438 0.0
C49 C 0.26038 0.06611 0.53475 0.0
C50 C 0.25433 0.97147 0.51368 0.0
C51 C 0.2721 1.00031 0.50156 0.0
C52 C 0.30552 0.9838 0.49063 0.0
C53 C 0.32207 0.93825 0.49165 0.0
C54 C 0.30265 0.90894 0.50334 0.0
C55 C 0.26916 0.92549 0.51424 0.0
C56 C 0.1788 0.99755 0.52497 0.0
C57 C 0.14771 0.97271 0.53455 0.0
C58 C 0.10009 0.97895 0.53293 0.0
C59 C 0.08232 0.01024 0.52156 0.0
C60 C 0.11373 0.0354 0.51199 0.0
C61 C 0.16149 0.02926 0.51371 0.0
H62 H 0.42161 0.52743 0.81151 0.0
N63 N 0.38042 0.55834 0.78494 0.0
H64 H 0.3884 0.47887 0.83294 0.0
H65 H 0.29058 0.52641 0.7867 0.0
H66 H 0.25848 0.47699 0.80747 0.0
H67 H 0.3271 0.50844 0.76346 0.0
H68 H 0.35266 0.47131 0.73855 0.0
H69 H 0.46509 0.5577 0.77246 0.0
H70 H 0.49084 0.52285 0.7467 0.0
H71 H 0.42486 0.6348 0.7934 0.0
H72 H 0.29981 0.58671 0.7707 0.0
H73 H 0.4037 0.71427 0.7873 0.0
H74 H 0.276 0.6655 0.76602 0.0
H75 H 0.34474 0.95149 0.77022 0.0
H76 H 0.32434 0.00835 0.79063 0.0
H77 H 0.1919 0.94202 0.79715 0.0
H78 H 0.21127 0.88738 0.77531 0.0
H79 H 0.25361 0.92073 0.7315 0.0
H80 H 0.29525 0.95903 0.70953 0.0
H81 H 0.42478 0.92446 0.73239 0.0
H82 H 0.38272 0.88476 0.75392 0.0
H83 H 0.3406 0.85676 0.78435 0.0
H84 H 0.35903 0.77828 0.79235 0.0
H85 H 0.28961 0.72613 0.74935 0.0
N86 N 0.28886 0.88238 0.75789 0.0
H87 H 0.26803 0.80457 0.74232 0.0
C88 C 0.35913 0.53052 0.79735 0.0
C89 C 0.38595 0.51658 0.8106 0.0
C90 C 0.36708 0.4888 0.82275 0.0
C91 C 0.32114 0.47368 0.82167 0.0
C92 C 0.29428 0.48745 0.8084 0.0
C93 C 0.31282 0.51601 0.79647 0.0
C94 C 0.39449 0.53515 0.77013 0.0
C95 C 0.36301 0.51128 0.76017 0.0
C96 C 0.37767 0.49058 0.74564 0.0
C97 C 0.42389 0.49414 0.74047 0.0
C98 C 0.45517 0.51865 0.75037 0.0
C99 C 0.44056 0.53873 0.76506 0.0
C100 C 0.36366 0.60475 0.7829 0.0
C101 C 0.39211 0.64157 0.78757 0.0
C102 C 0.3797 0.68707 0.78413 0.0
C103 C 0.33796 0.69688 0.77611 0.0
C104 C 0.30883 0.65971 0.7719 0.0
C105 C 0.3219 0.61421 0.77497 0.0
C106 C 0.27901 0.91533 0.77084 0.0
C107 C 0.31099 0.94926 0.77576 0.0
C108 C 0.2994 0.98174 0.78777 0.0
C109 C 0.25627 0.98032 0.7957 0.0
C110 C 0.22496 0.94535 0.79111 0.0
C111 C 0.23612 0.9136 0.77874 0.0
C112 C 0.31489 0.9003 0.74435 0.0
C113 C 0.29099 0.92083 0.73156 0.0
C114 C 0.31489 0.94295 0.71912 0.0
C115 C 0.36341 0.94547 0.71931 0.0
C116 C 0.38748 0.92291 0.73176 0.0
C117 C 0.36348 0.90034 0.74414 0.0
C118 C 0.30196 0.83653 0.76284 0.0
C119 C 0.3287 0.8284 0.77679 0.0
C120 C 0.33976 0.78324 0.78125 0.0
C121 C 0.3256 0.74524 0.77162 0.0
C122 C 0.30001 0.75393 0.75743 0.0
C123 C 0.28801 0.7989 0.75324 0.0
H124 H 0.8547 0.08655 0.05941 0.0
N125 N 0.801 0.0686 0.03403 0.0
H126 H 0.89845 0.03186 0.07575 0.0
H127 H 0.80591 0.97436 0.02917 0.0
H128 H 0.84782 0.91947 0.04575 0.0
H129 H 0.85543 0.02556 0.01097 0.0
H130 H 0.89371 0.06163 0.98814 0.0
H131 H 0.79967 0.15729 0.02611 0.0
H132 H 0.83636 0.19375 0.00263 0.0
H133 H 0.72936 0.09067 0.05281 0.0
H134 H 0.76568 0.01935 0.00825 0.0
H135 H 0.64812 0.07048 0.04861 0.0
H136 H 0.68526 0.99803 0.00417 0.0
H137 H 0.44053 0.04004 0.03818 0.0
H138 H 0.39226 0.02681 0.06208 0.0
H139 H 0.39019 0.88088 0.05073 0.0
H140 H 0.43855 0.89457 0.02674 0.0
H141 H 0.43156 0.93302 0.99103 0.0
H142 H 0.38989 0.96887 0.9686 0.0
H143 H 0.41229 0.10311 0.99069 0.0
H144 H 0.45573 0.0671 0.01252 0.0
H145 H 0.52029 0.97819 0.04524 0.0
H146 H 0.59916 0.0026 0.04901 0.0
H147 H 0.61115 0.02989 0.99766 0.0
N148 N 0.47139 0.97455 0.01633 0.0
H149 H 0.53235 0.00435 0.99361 0.0
C150 C 0.82662 0.0349 0.04319 0.0
C151 C 0.85318 0.05011 0.05638 0.0
C152 C 0.8778 0.01869 0.06577 0.0
C153 C 0.87622 0.97107 0.0622 0.0
C154 C 0.85003 0.95584 0.04881 0.0
C155 C 0.82561 0.98736 0.03937 0.0
C156 C 0.82506 0.08892 0.02047 0.0
C157 C 0.85138 0.06232 0.00943 0.0
C158 C 0.87281 0.08303 0.99616 0.0
C159 C 0.86784 0.13066 0.9934 0.0
C160 C 0.84136 0.15714 0.00444 0.0
C161 C 0.82028 0.1364 0.01783 0.0
C162 C 0.75351 0.05675 0.0309 0.0
C163 C 0.71972 0.07067 0.04214 0.0
C164 C 0.67349 0.05885 0.03976 0.0
C165 C 0.6602 0.03262 0.02605 0.0
C166 C 0.69417 0.01887 0.01473 0.0
C167 C 0.74033 0.03085 0.01709 0.0
C168 C 0.44273 0.96816 0.03055 0.0
C169 C 0.4292 0.00533 0.04068 0.0
C170 C 0.40179 0.99767 0.05441 0.0
C171 C 0.38748 0.95279 0.05832 0.0
C172 C 0.40119 0.91577 0.04818 0.0
C173 C 0.42846 0.92349 0.03443 0.0
C174 C 0.44622 0.99713 0.00352 0.0
C175 C 0.42736 0.97015 0.99097 0.0
C176 C 0.40342 0.99074 0.97823 0.0
C177 C 0.39754 0.03894 0.97785 0.0
C178 C 0.41657 0.06599 0.99047 0.0
C179 C 0.44077 0.04536 0.00315 0.0
C180 C 0.51796 0.99195 0.01917 0.0
C181 C 0.53873 0.9906 0.03471 0.0
C182 C 0.58444 0.00448 0.03694 0.0
C183 C 0.61125 0.019 0.0237 0.0
C184 C 0.59141 0.01906 0.00815 0.0
C185 C 0.54578 0.00506 0.00588 0.0
H186 H 0.26617 0.49953 0.30936 0.0
N187 N 0.29123 0.47018 0.28006 0.0
H188 H 0.31359 0.53775 0.32981 0.0
H189 H 0.38306 0.49094 0.27699 0.0
H190 H 0.43241 0.52433 0.29794 0.0
H191 H 0.33863 0.46408 0.25115 0.0
H192 H 0.32067 0.50594 0.22622 0.0
H193 H 0.22748 0.53451 0.27608 0.0
H194 H 0.20978 0.57706 0.25129 0.0
H195 H 0.22015 0.41326 0.2835 0.0
H196 H 0.36621 0.4149 0.27339 0.0
H197 H 0.22074 0.32872 0.28215 0.0
H198 H 0.36768 0.33139 0.27279 0.0
H199 H 0.26261 0.08277 0.30365 0.0
H200 H 0.29333 0.04801 0.32802 0.0
H201 H 0.42597 0.11127 0.31829 0.0
H202 H 0.39602 0.14016 0.29276 0.0
H203 H 0.32003 0.03362 0.27808 0.0
H204 H 0.27334 0.98018 0.2626 0.0
H205 H 0.1939 0.09433 0.2439 0.0
H206 H 0.23671 0.14707 0.26102 0.0
H207 H 0.25342 0.17922 0.29794 0.0
H208 H 0.2464 0.26341 0.29703 0.0
H209 H 0.34533 0.26602 0.2575 0.0
N210 N 0.31288 0.12605 0.27999 0.0
H211 H 0.3536 0.18226 0.25917 0.0
C212 C 0.32116 0.49152 0.29187 0.0
C213 C 0.30248 0.50501 0.30687 0.0
C214 C 0.33001 0.52632 0.31863 0.0
C215 C 0.37747 0.53363 0.31581 0.0
C216 C 0.39613 0.51985 0.30064 0.0
C217 C 0.36807 0.49981 0.28868 0.0
C218 C 0.28366 0.49568 0.2654 0.0
C219 C 0.31053 0.48866 0.2513 0.0
C220 C 0.30036 0.5127 0.23708 0.0
C221 C 0.26388 0.54477 0.23684 0.0
C222 C 0.23842 0.55298 0.25116 0.0
C223 C 0.24818 0.52851 0.26526 0.0
C224 C 0.29297 0.42057 0.2787 0.0
C225 C 0.25231 0.39537 0.28104 0.0
C226 C 0.25283 0.34712 0.28038 0.0
C227 C 0.29429 0.32308 0.2774 0.0
C228 C 0.33494 0.34858 0.27486 0.0
C229 C 0.33426 0.39672 0.27539 0.0
C230 C 0.32775 0.11217 0.29599 0.0
C231 C 0.29844 0.08869 0.30673 0.0
C232 C 0.31616 0.06936 0.32092 0.0
C233 C 0.36301 0.07523 0.32516 0.0
C234 C 0.39056 0.10346 0.3152 0.0
C235 C 0.37336 0.1208 0.30065 0.0
C236 C 0.28189 0.09483 0.27132 0.0
C237 C 0.29152 0.04724 0.27112 0.0
C238 C 0.26514 0.01653 0.26189 0.0
C239 C 0.22998 0.03255 0.2516 0.0
C240 C 0.21997 0.08014 0.25181 0.0
C241 C 0.2452 0.11078 0.26161 0.0
C242 C 0.3047 0.17493 0.27877 0.0
C243 C 0.27346 0.19815 0.28911 0.0
C244 C 0.26925 0.2462 0.28845 0.0
C245 C 0.29575 0.2717 0.27731 0.0
C246 C 0.32529 0.24777 0.26651 0.0
C247 C 0.32983 0.19993 0.26732 0.0
H248 H 0.82979 0.99771 0.28133 0.0
N249 N 0.90325 0.05724 0.28598 0.0
H250 H 0.7925 0.95105 0.30184 0.0
H251 H 0.925 0.05046 0.31721 0.0
H252 H 0.8878 0.00297 0.33795 0.0
H253 H 0.8588 0.02772 0.25841 0.0
H254 H 0.89213 0.98431 0.23602 0.0
H255 H 0.99193 0.03738 0.28132 0.0
H256 H 0.02737 0.99859 0.25786 0.0
H257 H 0.94726 0.13737 0.28697 0.0
H258 H 0.81369 0.07765 0.27765 0.0
H259 H 0.9173 0.21357 0.28007 0.0
H260 H 0.78294 0.15358 0.27135 0.0
H261 H 0.78062 0.46347 0.25522 0.0
H262 H 0.74789 0.51533 0.27521 0.0
H263 H 0.70285 0.3995 0.30371 0.0
H264 H 0.73392 0.34677 0.28328 0.0
H265 H 0.75673 0.38379 0.22457 0.0
H266 H 0.80189 0.42548 0.20418 0.0
H267 H 0.91404 0.43889 0.23839 0.0
H268 H 0.86859 0.39775 0.2587 0.0
H269 H 0.83994 0.35049 0.28015 0.0
H270 H 0.86799 0.27493 0.2886 0.0
H271 H 0.78665 0.21005 0.25072 0.0
N272 N 0.77944 0.36779 0.25531 0.0
H273 H 0.75776 0.28577 0.24275 0.0
C274 C 0.88044 0.02815 0.2977 0.0
C275 C 0.84317 0.99917 0.29355 0.0
C276 C 0.8219 0.97194 0.30533 0.0
C277 C 0.83717 0.97311 0.32154 0.0
C278 C 0.87489 0.00152 0.3256 0.0
C279 C 0.8962 0.02866 0.31379 0.0
C280 C 0.92267 0.03425 0.27189 0.0
C281 C 0.89538 0.02047 0.25863 0.0
C282 C 0.91501 0.9965 0.2455 0.0
C283 C 0.96287 0.98746 0.24491 0.0
C284 C 0.99033 0.00345 0.25793 0.0
C285 C 0.97028 0.02606 0.27133 0.0
C286 C 0.88291 0.1018 0.28297 0.0
C287 C 0.91126 0.14089 0.28368 0.0
C288 C 0.89394 0.18444 0.27981 0.0
C289 C 0.84758 0.18994 0.27514 0.0
C290 C 0.81897 0.15068 0.27466 0.0
C291 C 0.83646 0.10706 0.27843 0.0
C292 C 0.76293 0.39994 0.2679 0.0
C293 C 0.76492 0.44833 0.26585 0.0
C294 C 0.74581 0.47862 0.27738 0.0
C295 C 0.72335 0.46186 0.29127 0.0
C296 C 0.71988 0.41383 0.29317 0.0
C297 C 0.73861 0.38343 0.28155 0.0
C298 C 0.80926 0.38737 0.24307 0.0
C299 C 0.79136 0.39506 0.22753 0.0
C300 C 0.81706 0.41904 0.21597 0.0
C301 C 0.86143 0.43553 0.21972 0.0
C302 C 0.88018 0.42611 0.23509 0.0
C303 C 0.85426 0.40248 0.24671 0.0
C304 C 0.79644 0.32369 0.26083 0.0
C305 C 0.82814 0.31998 0.27369 0.0
C306 C 0.84428 0.27665 0.27846 0.0
C307 C 0.82957 0.23615 0.27038 0.0
C308 C 0.79809 0.24022 0.25746 0.0
C309 C 0.78174 0.28348 0.25279 0.0
H310 H 0.75707 0.01125 0.8089 0.0
N311 N 0.78659 0.97223 0.78156 0.0
H312 H 0.80298 0.04921 0.8299 0.0
H313 H 0.8804 0.97996 0.78158 0.0
H314 H 0.9275 0.01475 0.8031 0.0
H315 H 0.83678 0.9649 0.75346 0.0
H316 H 0.82302 0.00768 0.7283 0.0
H317 H 0.72411 0.03728 0.7767 0.0
H318 H 0.71055 0.08067 0.75179 0.0
H319 H 0.71011 0.92587 0.78815 0.0
H320 H 0.85234 0.90757 0.77407 0.0
H321 H 0.70047 0.84208 0.78939 0.0
H322 H 0.84368 0.824 0.77576 0.0
H323 H 0.74221 0.58722 0.82043 0.0
H324 H 0.80053 0.54895 0.83723 0.0
H325 H 0.9071 0.59276 0.80406 0.0
H326 H 0.8492 0.63248 0.78773 0.0
H327 H 0.80794 0.58939 0.76852 0.0
H328 H 0.78042 0.53886 0.74687 0.0
H329 H 0.64064 0.55558 0.7644 0.0
H330 H 0.66868 0.60649 0.78633 0.0
H331 H 0.71816 0.69759 0.81051 0.0
H332 H 0.72504 0.78086 0.80681 0.0
H333 H 0.8075 0.75674 0.7636 0.0
N334 N 0.75534 0.63077 0.79258 0.0
H335 H 0.80138 0.67367 0.76767 0.0
C336 C 0.81535 0.99238 0.7939 0.0
C337 C 0.7943 0.01187 0.80766 0.0
C338 C 0.82079 0.03309 0.81972 0.0
C339 C 0.86925 0.03461 0.8184 0.0
C340 C 0.89035 0.0146 0.80454 0.0
C341 C 0.86355 0.99408 0.7923 0.0
C342 C 0.78081 0.99757 0.7668 0.0
C343 C 0.80922 0.99007 0.75315 0.0
C344 C 0.80146 0.01463 0.73884 0.0
C345 C 0.76585 0.04762 0.73813 0.0
C346 C 0.73863 0.05596 0.75203 0.0
C347 C 0.74599 0.031 0.76619 0.0
C348 C 0.7818 0.92289 0.78113 0.0
C349 C 0.73916 0.90364 0.78528 0.0
C350 C 0.7339 0.85584 0.78609 0.0
C351 C 0.77144 0.82626 0.78282 0.0
C352 C 0.81395 0.84571 0.77822 0.0
C353 C 0.81908 0.89361 0.77736 0.0
C354 C 0.79107 0.61193 0.80271 0.0
C355 C 0.77824 0.58914 0.81696 0.0
C356 C 0.81148 0.56762 0.82655 0.0
C357 C 0.85811 0.56799 0.82186 0.0
C358 C 0.87127 0.59199 0.80786 0.0
C359 C 0.83811 0.61438 0.79847 0.0
C360 C 0.7403 0.60164 0.77925 0.0
C361 C 0.77145 0.58225 0.76789 0.0
C362 C 0.75566 0.55303 0.75549 0.0
C363 C 0.70843 0.54286 0.75403 0.0
C364 C 0.67723 0.56285 0.7652 0.0
C365 C 0.69314 0.59182 0.77771 0.0
C366 C 0.75891 0.67942 0.7894 0.0
C367 C 0.73748 0.71041 0.80021 0.0
C368 C 0.74126 0.75793 0.798 0.0
C369 C 0.76665 0.77555 0.78485 0.0
C370 C 0.78805 0.74436 0.77394 0.0
C371 C 0.78431 0.69672 0.7762 0.0
H372 H 0.33064 0.47504 0.01632 0.0
N373 N 0.38032 0.55508 0.01285 0.0
H374 H 0.28961 0.43328 0.99502 0.0
H375 H 0.37879 0.57362 0.98123 0.0
H376 H 0.33802 0.53103 0.95961 0.0
H377 H 0.35975 0.50841 0.04073 0.0
H378 H 0.30007 0.52924 0.06052 0.0
H379 H 0.33342 0.6335 0.01458 0.0
H380 H 0.27617 0.6567 0.03492 0.0
H381 H 0.45047 0.61285 0.01682 0.0
H382 H 0.41586 0.46844 0.01823 0.0
H383 H 0.5313 0.59419 0.02195 0.0
H384 H 0.49668 0.44903 0.02223 0.0
H385 H 0.77398 0.40505 0.03419 0.0
H386 H 0.82231 0.36612 0.01358 0.0
H387 H 0.7567 0.44545 0.97608 0.0
H388 H 0.70997 0.48545 0.99657 0.0
H389 H 0.73506 0.46861 0.06105 0.0
H390 H 0.79259 0.515 0.07573 0.0
H391 H 0.81469 0.59663 0.03287 0.0
H392 H 0.758 0.54913 0.01804 0.0
H393 H 0.67806 0.54597 0.01297 0.0
H394 H 0.59684 0.56457 0.0095 0.0
H395 H 0.55986 0.44838 0.03942 0.0
N396 N 0.7138 0.47298 0.0298 0.0
H397 H 0.64155 0.42851 0.04187 0.0
C398 C 0.35773 0.52793 0.00039 0.0
C399 C 0.33236 0.48795 0.00407 0.0
C400 C 0.3086 0.4641 0.99187 0.0
C401 C 0.3102 0.47925 0.97572 0.0
C402 C 0.33619 0.51868 0.97199 0.0
C403 C 0.35953 0.54289 0.98426 0.0
C404 C 0.35067 0.56937 0.0261 0.0
C405 C 0.34158 0.54079 0.03942 0.0
C406 C 0.30747 0.55296 0.05079 0.0
C407 C 0.28251 0.5945 0.04929 0.0
C408 C 0.29337 0.6238 0.03628 0.0
C409 C 0.32673 0.6111 0.02477 0.0
C410 C 0.42708 0.54229 0.0169 0.0
C411 C 0.46043 0.57707 0.01818 0.0
C412 C 0.50678 0.56618 0.02092 0.0
C413 C 0.52116 0.51991 0.02226 0.0
C414 C 0.48727 0.48508 0.02142 0.0
C415 C 0.44073 0.49613 0.01896 0.0
C416 C 0.73778 0.4478 0.01705 0.0
C417 C 0.76972 0.4137 0.0215 0.0
C418 C 0.79742 0.39172 0.00978 0.0
C419 C 0.793 0.40278 0.9933 0.0
C420 C 0.7604 0.43612 0.98873 0.0
C421 C 0.73348 0.45894 0.0005 0.0
C422 C 0.74195 0.50566 0.03859 0.0
C423 C 0.75156 0.49714 0.05495 0.0
C424 C 0.7844 0.52345 0.06326 0.0
C425 C 0.8078 0.55921 0.05536 0.0
C426 C 0.79664 0.56944 0.0392 0.0
C427 C 0.76414 0.54255 0.03078 0.0
C428 C 0.66595 0.48525 0.0275 0.0
C429 C 0.65255 0.52418 0.01863 0.0
C430 C 0.60577 0.53514 0.01684 0.0
C431 C 0.57121 0.50812 0.02419 0.0
C432 C 0.58503 0.46959 0.03327 0.0
C433 C 0.63179 0.45825 0.0348 0.0
H434 H 0.36474 0.59501 0.54916 0.0
N435 N 0.3017 0.55628 0.53015 0.0
H436 H 0.41027 0.5593 0.57046 0.0
H437 H 0.2944 0.46571 0.54076 0.0
H438 H 0.33699 0.43106 0.56264 0.0
H439 H 0.35195 0.49333 0.51247 0.0
H440 H 0.39958 0.50904 0.48865 0.0
H441 H 0.31431 0.63697 0.51585 0.0
H442 H 0.36393 0.65376 0.49251 0.0
H443 H 0.22594 0.60116 0.53946 0.0
H444 H 0.27189 0.48001 0.51317 0.0
H445 H 0.1457 0.57974 0.53432 0.0
H446 H 0.19275 0.45617 0.50916 0.0
H447 H 0.90674 0.49788 0.52878 0.0
H448 H 0.86773 0.47151 0.55301 0.0
H449 H 0.95337 0.34912 0.55294 0.0
H450 H 0.99027 0.37455 0.52785 0.0
H451 H 0.94008 0.41696 0.48475 0.0
H452 H 0.90176 0.45816 0.46282 0.0
H453 H 0.91626 0.58601 0.49003 0.0
H454 H 0.95695 0.54459 0.51139 0.0
H455 H 0.00785 0.50563 0.53721 0.0
H456 H 0.08698 0.53082 0.54143 0.0
H457 H 0.12599 0.46789 0.49533 0.0
N458 N 0.97602 0.4522 0.5118 0.0
H459 H 0.04758 0.43922 0.49209 0.0
C460 C 0.32573 0.53376 0.54329 0.0
C461 C 0.35852 0.5592 0.55208 0.0
C462 C 0.38425 0.5387 0.56438 0.0
C463 C 0.37724 0.49216 0.56846 0.0
C464 C 0.344 0.46671 0.55974 0.0
C465 C 0.31896 0.48699 0.54719 0.0
C466 C 0.32938 0.56412 0.51585 0.0
C467 C 0.35374 0.52825 0.508 0.0
C468 C 0.38141 0.53746 0.49447 0.0
C469 C 0.38586 0.58277 0.48866 0.0
C470 C 0.36085 0.61838 0.49645 0.0
C471 C 0.33279 0.609 0.50987 0.0
C472 C 0.25489 0.54212 0.52692 0.0
C473 C 0.2186 0.56965 0.53275 0.0
C474 C 0.17276 0.55702 0.5299 0.0
C475 C 0.16226 0.51591 0.52138 0.0
C476 C 0.199 0.48853 0.51547 0.0
C477 C 0.24468 0.50189 0.51793 0.0
C478 C 0.95119 0.43769 0.52617 0.0
C479 C 0.91693 0.46508 0.53373 0.0
C480 C 0.89493 0.45016 0.54788 0.0
C481 C 0.90731 0.4081 0.5551 0.0
C482 C 0.94212 0.38123 0.54765 0.0
C483 C 0.96346 0.39577 0.53332 0.0
C484 C 0.95053 0.47744 0.49977 0.0
C485 C 0.93461 0.45382 0.48596 0.0
C486 C 0.91263 0.47752 0.47348 0.0
C487 C 0.90551 0.52554 0.47464 0.0
C488 C 0.92159 0.54922 0.48857 0.0
C489 C 0.94427 0.52551 0.50093 0.0
C490 C 0.02211 0.46935 0.51449 0.0
C491 C 0.03361 0.49662 0.52815 0.0
C492 C 0.07898 0.51168 0.53041 0.0
C493 C 0.11348 0.50117 0.51881 0.0
C494 C 0.10109 0.47552 0.50484 0.0
C495 C 0.05613 0.45939 0.50284 0.0
C496 C 0.13593 0.68389 0.16804 0.0
C497 C 0.96244 0.6318 0.16232 0.0
C498 C 0.97043 0.69639 0.11566 0.0
Mg499 Mg 0.18735 0.77209 0.15289 0.0
Mg500 Mg 0.13081 0.8665 0.14375 0.0
O501 O 0.13622 0.8025 0.14039 0.0
Mg502 Mg 0.08405 0.76142 0.14656 0.0
O503 O 0.03524 0.71692 0.15296 0.0
Mg504 Mg 0.05718 0.6607 0.14062 0.0
Mg505 Mg 0.97306 0.73347 0.15037 0.0
C506 C 0.03499 0.84547 0.12629 0.0
O507 O 0.05339 0.81199 0.16552 0.0
O508 O 0.23626 0.82046 0.13827 0.0
O509 O 0.97656 0.80026 0.16303 0.0
O510 O 0.18506 0.82491 0.17411 0.0
O511 O 0.1945 0.88288 0.13145 0.0
O512 O 0.13679 0.8828 0.16923 0.0
O513 O 0.11107 0.70778 0.12782 0.0
O514 O 0.18654 0.71861 0.13255 0.0
C515 C 0.15367 0.69749 0.12524 0.0
C516 C 0.23204 0.8593 0.13095 0.0
O517 O 0.03815 0.80154 0.1283 0.0
O518 O 1.00099 0.62095 0.1554 0.0
O519 O 0.06406 0.87452 0.13222 0.0
O520 O 0.00389 0.67036 0.11994 0.0
O521 O 0.94567 0.67281 0.16196 0.0
O522 O 0.9554 0.72852 0.12502 0.0
O523 O 0.13164 0.7269 0.16494 0.0
O524 O 0.11052 0.65352 0.161 0.0
C525 C 0.16435 0.86184 0.17866 0.0
C526 C 0.01127 0.82282 0.16874 0.0
C527 C 0.67624 0.80269 0.41804 0.0
C528 C 0.73091 0.62905 0.4095 0.0
C529 C 0.66791 0.64407 0.36219 0.0
Mg530 Mg 0.58694 0.85472 0.40331 0.0
Mg531 Mg 0.49584 0.79782 0.39008 0.0
O532 O 0.55999 0.80488 0.38899 0.0
Mg533 Mg 0.60119 0.75242 0.39486 0.0
O534 O 0.64602 0.70346 0.40089 0.0
Mg535 Mg 0.70273 0.72665 0.38959 0.0
Mg536 Mg 0.63088 0.64174 0.39662 0.0
C537 C 0.52292 0.70615 0.3707 0.0
O538 O 0.5484 0.71708 0.41223 0.0
O539 O 0.53965 0.90504 0.38895 0.0
O540 O 0.5659 0.64129 0.40956 0.0
O541 O 0.52909 0.84889 0.42329 0.0
O542 O 0.47839 0.86395 0.38007 0.0
O543 O 0.47526 0.79918 0.41494 0.0
O544 O 0.65641 0.78286 0.37773 0.0
O545 O 0.64354 0.85734 0.38396 0.0
C546 C 0.66642 0.8259 0.3763 0.0
C547 C 0.50116 0.90173 0.38126 0.0
O548 O 0.56573 0.70931 0.37463 0.0
O549 O 0.7424 0.6686 0.40374 0.0
O550 O 0.49152 0.73359 0.37621 0.0
O551 O 0.69442 0.6764 0.36735 0.0
O552 O 0.69015 0.61257 0.40796 0.0
O553 O 0.63567 0.62812 0.37107 0.0
O554 O 0.63305 0.79837 0.41482 0.0
O555 O 0.70704 0.77774 0.41091 0.0
C556 C 0.49184 0.82614 0.42577 0.0
C557 C 0.54082 0.67422 0.41532 0.0
C558 C 0.64608 0.19155 0.66904 0.0
C559 C 0.47149 0.14229 0.66348 0.0
C560 C 0.48037 0.20718 0.61691 0.0
Mg561 Mg 0.69836 0.27956 0.65385 0.0
Mg562 Mg 0.64288 0.37371 0.64314 0.0
O563 O 0.64793 0.3094 0.64092 0.0
Mg564 Mg 0.59546 0.26921 0.64743 0.0
O565 O 0.54622 0.22565 0.65405 0.0
Mg566 Mg 0.56677 0.16917 0.64167 0.0
Mg567 Mg 0.4845 0.24361 0.65163 0.0
C568 C 0.54806 0.3513 0.62536 0.0
O569 O 0.56567 0.32039 0.66641 0.0
O570 O 0.7481 0.32646 0.63887 0.0
O571 O 0.4887 0.30913 0.66486 0.0
O572 O 0.6947 0.33427 0.67493 0.0
O573 O 0.70773 0.3895 0.63162 0.0
O574 O 0.64671 0.39121 0.66837 0.0
O575 O 0.62179 0.21508 0.62887 0.0
O576 O 0.6973 0.22515 0.63368 0.0
C577 C 0.66429 0.20424 0.6263 0.0
C578 C 0.74477 0.36524 0.63148 0.0
O579 O 0.55039 0.30814 0.62879 0.0
O580 O 0.50961 0.13024 0.65648 0.0
O581 O 0.57743 0.38113 0.63059 0.0
O582 O 0.51333 0.18024 0.62102 0.0
O583 O 0.45614 0.1838 0.66314 0.0
O584 O 0.46631 0.23946 0.62638 0.0
O585 O 0.64238 0.2347 0.66599 0.0
O586 O 0.62019 0.16153 0.662 0.0
C587 C 0.67298 0.37155 0.67858 0.0
C588 C 0.52399 0.33109 0.67036 0.0
C589 C 0.16547 0.30704 0.92011 0.0
C590 C 0.21495 0.13227 0.91342 0.0
C591 C 0.15475 0.14562 0.86555 0.0
Mg592 Mg 0.07731 0.35935 0.90509 0.0
Mg593 Mg 0.98627 0.30329 0.89122 0.0
O594 O 0.05045 0.30987 0.8906 0.0
Mg595 Mg 0.09013 0.25721 0.89703 0.0
O596 O 0.13307 0.20754 0.90371 0.0
Mg597 Mg 0.19059 0.2288 0.8924 0.0
Mg598 Mg 0.11552 0.1462 0.89973 0.0
C599 C 0.01205 0.21025 0.87287 0.0
O600 O 0.03611 0.22583 0.91444 0.0
O601 O 0.02963 0.41076 0.8909 0.0
O602 O 0.04798 0.14924 0.91131 0.0
O603 O 0.02003 0.35225 0.92513 0.0
O604 O 0.972 0.36804 0.88005 0.0
O605 O 0.96364 0.30674 0.91593 0.0
O606 O 0.14592 0.28543 0.87991 0.0
O607 O 0.13452 0.36072 0.88566 0.0
C608 C 0.15671 0.32821 0.87824 0.0
C609 C 0.99323 0.40641 0.88205 0.0
O610 O 0.0547 0.21327 0.87699 0.0
O611 O 0.2275 0.17083 0.90713 0.0
O612 O 0.98085 0.2384 0.87798 0.0
O613 O 0.18234 0.17706 0.87065 0.0
O614 O 0.1738 0.11647 0.91196 0.0
O615 O 0.12125 0.13149 0.87423 0.0
O616 O 0.12243 0.30307 0.9167 0.0
O617 O 0.19597 0.28095 0.91335 0.0
C618 C 0.98167 0.3311 0.92723 0.0
C619 C 0.02474 0.18365 0.917 0.0
H620 H 0.33132 0.85441 0.47653 0.0
H621 H 0.39987 0.98544 0.48288 0.0
H622 H 0.46167 0.96024 0.46457 0.0
H623 H 0.49364 0.90287 0.44529 0.0
H624 H 0.42321 0.77319 0.43835 0.0
H625 H 0.36605 0.79516 0.45879 0.0
C626 C 0.36008 0.87725 0.4741 0.0
C627 C 0.36052 0.92197 0.48094 0.0
C628 C 0.39559 0.86255 0.46355 0.0
C629 C 0.39799 0.95121 0.4775 0.0
C630 C 0.43363 0.93668 0.46714 0.0
C631 C 0.46643 0.87898 0.44852 0.0
C632 C 0.463 0.83621 0.44033 0.0
C633 C 0.43248 0.89265 0.4599 0.0
C634 C 0.42699 0.80606 0.44453 0.0
C635 C 0.39394 0.81883 0.45613 0.0
H636 H 0.33717 0.02901 0.7081 0.0
H637 H 0.44637 0.92814 0.70391 0.0
H638 H 0.48905 0.97925 0.68576 0.0
H639 H 0.49634 0.05417 0.67183 0.0
H640 H 0.38538 0.15344 0.67625 0.0
H641 H 0.34217 0.10079 0.69323 0.0
C642 C 0.36984 0.0176 0.70298 0.0
C643 C 0.38836 0.97465 0.70736 0.0
C644 C 0.39404 0.04698 0.69257 0.0
C645 C 0.43142 0.9612 0.70089 0.0
C646 C 0.45578 0.99034 0.69045 0.0
C647 C 0.46254 0.0641 0.67639 0.0
C648 C 0.44447 0.10798 0.6728 0.0
C649 C 0.43762 0.03358 0.68632 0.0
C650 C 0.40054 0.12016 0.67886 0.0
C651 C 0.37563 0.09004 0.6886 0.0
H652 H 0.31904 0.00711 0.96354 0.0
H653 H 0.41577 0.12016 0.96223 0.0
H654 H 0.36934 0.15792 0.9415 0.0
H655 H 0.29936 0.16036 0.92459 0.0
H656 H 0.20376 0.04616 0.92587 0.0
H657 H 0.25247 0.00692 0.9454 0.0
C658 C 0.33053 0.0396 0.95854 0.0
C659 C 0.37077 0.06079 0.96455 0.0
C660 C 0.3039 0.06097 0.94655 0.0
C661 C 0.38452 0.10337 0.95807 0.0
C662 C 0.35815 0.12488 0.94611 0.0
C663 C 0.28945 0.12664 0.92897 0.0
C664 C 0.24768 0.10653 0.9238 0.0
C665 C 0.31746 0.10425 0.94039 0.0
C666 C 0.23548 0.06276 0.92967 0.0
C667 C 0.26329 0.04022 0.94089 0.0
H668 H 0.2663 0.95527 0.23709 0.0
H669 H 0.1413 0.03688 0.23908 0.0
H670 H 0.10853 0.98979 0.2172 0.0
H671 H 0.11824 0.92899 0.19598 0.0
H672 H 0.24089 0.84405 0.19647 0.0
H673 H 0.27059 0.88795 0.21949 0.0
C674 C 0.23128 0.9623 0.23328 0.0
C675 C 0.20691 1.00044 0.23977 0.0
C676 C 0.21204 0.93434 0.22106 0.0
C677 C 0.16181 0.00883 0.23409 0.0
C678 C 0.14274 0.98161 0.22163 0.0
C679 C 0.15111 0.91967 0.20131 0.0
C680 C 0.17756 0.8837 0.19432 0.0
C681 C 0.16804 0.94491 0.21475 0.0
C682 C 0.2198 0.87164 0.20151 0.0
C683 C 0.23703 0.89691 0.21465 0.0
H684 H 0.31956 0.1581 0.56865 0.0
H685 H 0.40355 0.03604 0.56247 0.0
H686 H 0.46465 0.07116 0.57868 0.0
H687 H 0.49054 0.13238 0.59702 0.0
H688 H 0.40636 0.25397 0.60427 0.0
H689 H 0.34997 0.22394 0.5848 0.0
C690 C 0.35154 0.13957 0.57065 0.0
C691 C 0.35656 0.09412 0.56466 0.0
C692 C 0.3866 0.15989 0.58016 0.0
C693 C 0.3983 0.07058 0.56731 0.0
C694 C 0.43342 0.09074 0.57649 0.0
C695 C 0.46038 0.15289 0.59414 0.0
C696 C 0.45244 0.19503 0.60236 0.0
C697 C 0.42741 0.1348 0.58336 0.0
C698 C 0.41322 0.22117 0.59828 0.0
C699 C 0.38073 0.20386 0.58722 0.0
H700 H 0.17106 0.01624 0.80366 0.0
H701 H 0.31479 0.02225 0.81761 0.0
H702 H 0.2964 0.07891 0.8386 0.0
H703 H 0.23939 0.1232 0.85434 0.0
H704 H 0.09477 0.10839 0.84346 0.0
H705 H 0.11351 0.05852 0.82008 0.0
C706 C 0.19845 0.02931 0.81138 0.0
C707 C 0.24445 0.0148 0.80876 0.0
C708 C 0.18744 0.06059 0.82403 0.0
C709 C 0.27925 0.03327 0.81886 0.0
C710 C 0.26875 0.06553 0.83105 0.0
C711 C 0.21206 0.10974 0.84665 0.0
C712 C 0.16582 0.12017 0.85037 0.0
C713 C 0.22299 0.07919 0.83382 0.0
C714 C 0.13062 0.10139 0.84064 0.0
C715 C 0.14136 0.07262 0.82737 0.0
H716 H 0.39483 0.88456 0.0807 0.0
H717 H 0.31235 0.00289 0.0681 0.0
H718 H 0.25971 0.9871 0.0906 0.0
H719 H 0.2339 0.93658 0.11244 0.0
H720 H 0.3149 0.81669 0.12464 0.0
H721 H 0.37142 0.83649 0.10379 0.0
C722 C 0.36531 0.90686 0.08289 0.0
C723 C 0.35736 0.94465 0.07266 0.0
C724 C 0.33489 0.89733 0.09576 0.0
C725 C 0.31946 0.97376 0.07584 0.0
C726 C 0.28919 0.96462 0.08866 0.0
C727 C 0.26416 0.91498 0.11072 0.0
C728 C 0.26976 0.87493 0.12006 0.0
C729 C 0.29617 0.92609 0.09853 0.0
C730 C 0.30946 0.84764 0.11764 0.0
C731 C 0.34176 0.8588 0.10564 0.0
H732 H 0.45307 0.047 0.32865 0.0
H733 H 0.32073 0.04343 0.35322 0.0
H734 H 0.352 0.99004 0.37293 0.0
H735 H 0.41557 0.93946 0.382 0.0
H736 H 0.54958 0.95169 0.35957 0.0
H737 H 0.5192 0.0085 0.34058 0.0
C738 C 0.43096 0.03624 0.33853 0.0
C739 C 0.38387 0.04895 0.33894 0.0
C740 C 0.44957 0.007 0.35031 0.0
C741 C 0.35649 0.03319 0.35196 0.0
C742 C 0.37447 0.00288 0.36344 0.0
C743 C 0.43814 0.95536 0.37312 0.0
C744 C 0.4845 0.94145 0.372 0.0
C745 C 0.42066 0.98866 0.36248 0.0
C746 C 0.51378 0.96222 0.36062 0.0
C747 C 0.49635 0.99439 0.34972 0.0
H748 H 0.71986 0.10249 0.56142 0.0
H749 H 0.84129 0.07487 0.59004 0.0
H750 H 0.80322 0.10653 0.61418 0.0
H751 H 0.73993 0.15067 0.62627 0.0
H752 H 0.61912 0.18192 0.59794 0.0
H753 H 0.652 0.13942 0.57461 0.0
C754 C 0.7378 0.10315 0.57298 0.0
C755 C 0.78359 0.08681 0.57388 0.0
C756 C 0.71586 0.12209 0.58682 0.0
C757 C 0.80605 0.08698 0.589 0.0
C758 C 0.7844 0.10535 0.6028 0.0
C759 C 0.7204 0.14751 0.61507 0.0
C760 C 0.67756 0.16995 0.6137 0.0
C761 C 0.73994 0.12417 0.60172 0.0
C762 C 0.65221 0.16494 0.59926 0.0
C763 C 0.67124 0.14107 0.58589 0.0
H764 H 0.80298 0.88475 0.32023 0.0
H765 H 0.81328 0.00468 0.35169 0.0
H766 H 0.76569 0.96707 0.37204 0.0
H767 H 0.71578 0.90376 0.37991 0.0
H768 H 0.7027 0.78346 0.3489 0.0
H769 H 0.75719 0.81732 0.32942 0.0
C770 C 0.79491 0.9025 0.33157 0.0
C771 C 0.81161 0.94765 0.33437 0.0
C772 C 0.76697 0.88071 0.34326 0.0
C773 C 0.80141 0.96987 0.34925 0.0
C774 C 0.77389 0.94849 0.36087 0.0
C775 C 0.72512 0.88462 0.36896 0.0
C776 C 0.70472 0.84146 0.36573 0.0
C777 C 0.75578 0.90443 0.35786 0.0
C778 C 0.71788 0.81678 0.35165 0.0
C779 C 0.74875 0.83632 0.34047 0.0
H780 H 0.88607 0.97268 0.09508 0.0
H781 H 0.92464 0.89411 0.05221 0.0
H782 H 0.97184 0.84304 0.0688 0.0
H783 H 0.00904 0.82594 0.09518 0.0
H784 H 0.97547 0.90988 0.1372 0.0
H785 H 0.91948 0.95344 0.12135 0.0
C786 C 0.90493 0.94453 0.08932 0.0
C787 C 0.90221 0.93775 0.07238 0.0
C788 C 0.93299 0.91616 0.09883 0.0
C789 C 0.92588 0.90016 0.06523 0.0
C790 C 0.95315 0.87104 0.0747 0.0
C791 C 0.98857 0.85309 0.10086 0.0
C792 C 0.99593 0.86479 0.11727 0.0
C793 C 0.9578 0.87931 0.09147 0.0
C794 C 0.97002 0.90042 0.12455 0.0
C795 C 0.93828 0.92544 0.11549 0.0
H796 H 0.94812 0.08564 0.81449 0.0
H797 H 0.85328 0.03762 0.85129 0.0
H798 H 0.89094 0.08616 0.87158 0.0
H799 H 0.9463 0.1474 0.8784 0.0
H800 H 0.04485 0.19144 0.84248 0.0
H801 H 0.01119 0.13805 0.82238 0.0
C802 C 0.93627 0.08475 0.827 0.0
C803 C 0.89693 0.05878 0.83116 0.0
C804 C 0.95874 0.11208 0.83877 0.0
C805 C 0.8823 0.05846 0.84752 0.0
C806 C 0.90406 0.08595 0.85922 0.0
C807 C 0.96072 0.1446 0.86622 0.0
C808 C 0.99747 0.17321 0.86174 0.0
C809 C 0.94145 0.11379 0.85488 0.0
C810 C 0.01645 0.16946 0.84607 0.0
C811 C 0.99705 0.13923 0.83461 0.0
H812 H 0.79942 0.9504 0.45227 0.0
H813 H 0.72219 0.90633 0.49429 0.0
H814 H 0.67335 0.85807 0.4769 0.0
H815 H 0.65688 0.82323 0.4498 0.0
H816 H 0.73585 0.86736 0.40829 0.0
H817 H 0.77831 0.92216 0.42529 0.0
C818 C 0.77131 0.93111 0.45764 0.0
C819 C 0.76496 0.93175 0.47461 0.0
C820 C 0.74331 0.9036 0.44759 0.0
C821 C 0.72865 0.90577 0.4813 0.0
C822 C 0.7004 0.8784 0.47135 0.0
C823 C 0.68252 0.84585 0.4445 0.0
C824 C 0.69328 0.84166 0.42789 0.0
C825 C 0.70795 0.87633 0.45449 0.0
C826 C 0.72706 0.87035 0.42109 0.0
C827 C 0.75155 0.90138 0.43081 0.0
H828 H 0.93398 0.98276 0.21315 0.0
H829 H 0.03858 0.92939 0.24535 0.0
H830 H 0.06714 0.87932 0.22365 0.0
H831 H 0.05681 0.8435 0.19658 0.0
H832 H 0.94435 0.88789 0.16629 0.0
H833 H 0.9237 0.94756 0.18633 0.0
C834 C 0.96255 0.95979 0.21565 0.0
C835 C 0.98329 0.95985 0.23115 0.0
C836 C 0.97717 0.92884 0.20343 0.0
C837 C 0.02178 0.93095 0.23363 0.0
C838 C 0.03796 0.90165 0.22124 0.0
C839 C 0.02817 0.8667 0.19433 0.0
C840 C 0.00202 0.86151 0.18005 0.0
C841 C 0.01515 0.89939 0.20624 0.0
C842 C 0.96473 0.89129 0.17726 0.0
C843 C 0.95295 0.92531 0.18871 0.0
H844 H 0.87755 0.09492 0.96285 0.0
H845 H 0.91004 0.21552 0.99191 0.0
H846 H 0.95552 0.24657 0.9695 0.0
H847 H 0.99496 0.2341 0.94313 0.0
H848 H 0.96747 0.10986 0.9154 0.0
H849 H 0.91168 0.08538 0.93585 0.0
C850 C 0.89473 0.12791 0.96435 0.0
C851 C 0.89109 0.15226 0.97921 0.0
C852 C 0.92221 0.14471 0.95168 0.0
C853 C 0.9122 0.19585 0.98065 0.0
C854 C 0.93858 0.21352 0.96787 0.0
C855 C 0.97596 0.20219 0.94142 0.0
C856 C 0.98555 0.17356 0.92789 0.0
C857 C 0.94505 0.18753 0.95353 0.0
C858 C 0.961 0.13215 0.92584 0.0
C859 C 0.92918 0.11812 0.93753 0.0
H860 H 0.74915 0.13902 0.73334 0.0
H861 H 0.7555 0.00746 0.70833 0.0
H862 H 0.72373 0.04218 0.68386 0.0
H863 H 0.68548 0.10735 0.67084 0.0
H864 H 0.67853 0.23931 0.69556 0.0
H865 H 0.71976 0.20724 0.71884 0.0
C866 C 0.7441 0.1182 0.72244 0.0
C867 C 0.75415 0.07067 0.72267 0.0
C868 C 0.72543 0.13836 0.70845 0.0
C869 C 0.74819 0.04413 0.70842 0.0
C870 C 0.7297 0.06389 0.69448 0.0
C871 C 0.69356 0.12927 0.68124 0.0
C872 C 0.67831 0.17534 0.68164 0.0
C873 C 0.7169 0.11057 0.69454 0.0
C874 C 0.68977 0.20365 0.69501 0.0
C875 C 0.71306 0.18525 0.70835 0.0
H876 H 0.88672 0.40178 0.99223 0.0
H877 H 0.76602 0.35466 0.96646 0.0
H878 H 0.81474 0.32269 0.9447 0.0
H879 H 0.89062 0.31426 0.93198 0.0
H880 H 0.01146 0.36727 0.9564 0.0
H881 H 0.96394 0.39018 0.97983 0.0
C882 C 0.87133 0.38396 0.98192 0.0
C883 C 0.82298 0.38055 0.98085 0.0
C884 C 0.89954 0.36693 0.96922 0.0
C885 C 0.80317 0.35787 0.96742 0.0
C886 C 0.831 0.33959 0.95502 0.0
C887 C 0.90683 0.33021 0.94251 0.0
C888 C 0.95459 0.33925 0.94237 0.0
C889 C 0.87912 0.34478 0.95563 0.0
C890 C 0.97478 0.36014 0.95613 0.0
C891 C 0.94758 0.37336 0.96951 0.0
H892 H 0.82722 0.50824 0.20329 0.0
H893 H 0.95229 0.43047 0.21052 0.0
H894 H 0.99432 0.48279 0.19257 0.0
H895 H 0.99592 0.55269 0.17568 0.0
H896 H 0.87083 0.63172 0.16967 0.0
H897 H 0.82834 0.57657 0.1861 0.0
C898 C 0.86352 0.50233 0.20074 0.0
C899 C 0.88657 0.46543 0.20813 0.0
C900 C 0.88749 0.53288 0.19065 0.0
C901 C 0.93386 0.45878 0.205 0.0
C902 C 0.95784 0.48862 0.19472 0.0
C903 C 0.95927 0.55754 0.17783 0.0
C904 C 0.93664 0.59633 0.17145 0.0
C905 C 0.9351 0.52609 0.1876 0.0
C906 C 0.8892 0.60235 0.1745 0.0
C907 C 0.86481 0.57081 0.18389 0.0
H908 H 0.83267 0.49467 0.4568 0.0
H909 H 0.92174 0.61284 0.46301 0.0
H910 H 0.8776 0.65465 0.44262 0.0
H911 H 0.81111 0.65877 0.42386 0.0
H912 H 0.72465 0.53862 0.41748 0.0
H913 H 0.77154 0.49617 0.43664 0.0
C914 C 0.84326 0.5292 0.4535 0.0
C915 C 0.88045 0.55047 0.46157 0.0
C916 C 0.81825 0.55279 0.44163 0.0
C917 C 0.89272 0.59575 0.45728 0.0
C918 C 0.86772 0.61963 0.4455 0.0
C919 C 0.80303 0.62308 0.42647 0.0
C920 C 0.76407 0.6022 0.41932 0.0
C921 C 0.83003 0.59866 0.43771 0.0
C922 C 0.75408 0.55587 0.42289 0.0
C923 C 0.78084 0.53146 0.4339 0.0
H924 H 0.74477 0.46065 0.74414 0.0
H925 H 0.63499 0.55662 0.7339 0.0
H926 H 0.61191 0.50985 0.71035 0.0
H927 H 0.62721 0.44562 0.69143 0.0
H928 H 0.73677 0.34914 0.70171 0.0
H929 H 0.75571 0.39236 0.72647 0.0
C930 C 0.71578 0.47126 0.73674 0.0
C931 C 0.69201 0.51233 0.74062 0.0
C932 C 0.70289 0.44437 0.72318 0.0
C933 C 0.65383 0.52514 0.73118 0.0
C934 C 0.6408 0.49857 0.71766 0.0
C935 C 0.65498 0.43369 0.69914 0.0
C936 C 0.68086 0.39442 0.69457 0.0
C937 C 0.66571 0.45868 0.71336 0.0
C938 C 0.71637 0.37931 0.70485 0.0
C939 C 0.72735 0.4041 0.719 0.0
H940 H 0.81428 0.6494 0.06497 0.0
H941 H 0.88768 0.51999 0.06453 0.0
H942 H 0.94915 0.55398 0.08103 0.0
H943 H 0.97717 0.6171 0.09805 0.0
H944 H 0.90147 0.74537 0.10069 0.0
H945 H 0.84644 0.71581 0.0806 0.0
C946 C 0.8442 0.62913 0.06831 0.0
C947 C 0.84665 0.58234 0.06369 0.0
C948 C 0.87884 0.64864 0.07822 0.0
C949 C 0.88522 0.55603 0.0681 0.0
C950 C 0.92028 0.57544 0.07751 0.0
C951 C 0.94926 0.63913 0.09401 0.0
C952 C 0.94331 0.68327 0.10103 0.0
C953 C 0.91683 0.62129 0.083 0.0
C954 C 0.90677 0.71112 0.0956 0.0
C955 C 0.87509 0.69413 0.08417 0.0
H956 H 0.7593 0.5439 0.30189 0.0
H957 H 0.64265 0.45341 0.30859 0.0
H958 H 0.61291 0.50417 0.33008 0.0
H959 H 0.62251 0.57154 0.34811 0.0
H960 H 0.73878 0.66242 0.34113 0.0
H961 H 0.76496 0.61508 0.31817 0.0
C962 C 0.72692 0.53557 0.30781 0.0
C963 C 0.70368 0.49439 0.30369 0.0
C964 C 0.70971 0.56516 0.32008 0.0
C965 C 0.662 0.48416 0.31172 0.0
C966 C 0.64469 0.51343 0.32394 0.0
C967 C 0.65325 0.58146 0.34145 0.0
C968 C 0.67889 0.62029 0.34654 0.0
C969 C 0.66865 0.55362 0.3284 0.0
C970 C 0.71841 0.63265 0.33761 0.0
C971 C 0.73363 0.60541 0.32451 0.0
H972 H 0.87479 0.4603 0.58069 0.0
H973 H 0.88522 0.31924 0.56342 0.0
H974 H 0.84238 0.29317 0.5871 0.0
H975 H 0.79512 0.31084 0.61127 0.0
H976 H 0.77627 0.4524 0.62655 0.0
H977 H 0.82888 0.47786 0.60509 0.0
C978 C 0.86747 0.42385 0.58198 0.0
C979 C 0.88326 0.39199 0.57011 0.0
C980 C 0.84116 0.40913 0.59533 0.0
C981 C 0.87428 0.34474 0.57236 0.0
C982 C 0.84936 0.3297 0.58588 0.0
C983 C 0.80348 0.34714 0.61012 0.0
C984 C 0.78238 0.37973 0.62054 0.0
C985 C 0.83193 0.36164 0.59728 0.0
C986 C 0.79244 0.42676 0.6187 0.0
C987 C 0.82225 0.44129 0.60639 0.0
H988 H 0.87993 0.57209 0.85404 0.0
H989 H 0.9111 0.49963 0.80922 0.0
H990 H 0.95945 0.44499 0.82389 0.0
H991 H 0.98645 0.41354 0.84976 0.0
H992 H 0.95878 0.48684 0.89461 0.0
H993 H 0.91585 0.54602 0.87971 0.0
C994 C 0.89794 0.54466 0.84754 0.0
C995 C 0.89192 0.53947 0.83065 0.0
C996 C 0.92605 0.51365 0.85605 0.0
C997 C 0.91551 0.5042 0.82223 0.0
C998 C 0.94292 0.4729 0.8306 0.0
C999 C 0.97175 0.44308 0.85617 0.0
C1000 C 0.97538 0.44618 0.87315 0.0
C1001 C 0.94756 0.4767 0.84754 0.0
C1002 C 0.95647 0.48427 0.88148 0.0
C1003 C 0.93172 0.51777 0.87298 0.0
H1004 H 0.28087 0.57738 0.08193 0.0
H1005 H 0.20164 0.64209 0.04404 0.0
H1006 H 0.14848 0.67371 0.06435 0.0
H1007 H 0.13093 0.69165 0.09325 0.0
H1008 H 0.21054 0.62615 0.13067 0.0
H1009 H 0.25539 0.5841 0.11014 0.0
C1010 C 0.25133 0.59722 0.07796 0.0
C1011 C 0.24628 0.60814 0.06142 0.0
C1012 C 0.22048 0.61489 0.08968 0.0
C1013 C 0.20765 0.63438 0.05671 0.0
C1014 C 0.17679 0.65215 0.06832 0.0
C1015 C 0.1568 0.66669 0.09683 0.0
C1016 C 0.16754 0.66178 0.11336 0.0
C1017 C 0.1837 0.64387 0.0849 0.0
C1018 C 0.20171 0.63014 0.11796 0.0
C1019 C 0.22771 0.60655 0.10623 0.0
H1020 H 0.2764 0.39147 0.81873 0.0
H1021 H 0.31832 0.49456 0.8539 0.0
H1022 H 0.27478 0.4552 0.87516 0.0
H1023 H 0.2182 0.39648 0.88295 0.0
H1024 H 0.17749 0.29164 0.84828 0.0
H1025 H 0.22785 0.32598 0.82764 0.0
C1026 C 0.27637 0.40482 0.83112 0.0
C1027 C 0.30001 0.44605 0.83478 0.0
C1028 C 0.25149 0.38178 0.8433 0.0
C1029 C 0.30037 0.46287 0.85086 0.0
C1030 C 0.27534 0.4405 0.86298 0.0
C1031 C 0.22106 0.38072 0.87094 0.0
C1032 C 0.1939 0.34203 0.86701 0.0
C1033 C 0.24987 0.40066 0.85923 0.0
C1034 C 0.19821 0.3214 0.85154 0.0
C1035 C 0.22665 0.34129 0.83973 0.0
H1036 H 0.40861 0.4028 0.56989 0.0
H1037 H 0.40845 0.53197 0.59677 0.0
H1038 H 0.45998 0.49912 0.61685 0.0
H1039 H 0.50822 0.43538 0.6261 0.0
H1040 H 0.50464 0.30443 0.60067 0.0
H1041 H 0.44978 0.33589 0.58104 0.0
C1042 C 0.41893 0.42365 0.58029 0.0
C1043 C 0.40518 0.47031 0.58151 0.0
C1044 C 0.44778 0.40418 0.5921 0.0
C1045 C 0.41952 0.49653 0.59511 0.0
C1046 C 0.44871 0.47765 0.60673 0.0
C1047 C 0.49522 0.41365 0.6163 0.0
C1048 C 0.51092 0.36795 0.61465 0.0
C1049 C 0.46369 0.43185 0.60518 0.0
C1050 C 0.4931 0.33981 0.60214 0.0
C1051 C 0.46198 0.35787 0.59088 0.0
H1052 H 0.453 0.58973 0.31136 0.0
H1053 H 0.36856 0.52971 0.3491 0.0
H1054 H 0.40779 0.57638 0.36948 0.0
H1055 H 0.46135 0.63928 0.37638 0.0
H1056 H 0.55158 0.69313 0.33948 0.0
H1057 H 0.51604 0.64218 0.31901 0.0
C1058 C 0.44375 0.58564 0.32404 0.0
C1059 C 0.40646 0.55705 0.32845 0.0
C1060 C 0.46765 0.61142 0.33589 0.0
C1061 C 0.39549 0.55282 0.34509 0.0
C1062 C 0.41832 0.57915 0.35686 0.0
C1063 C 0.47366 0.63905 0.36389 0.0
C1064 C 0.50836 0.6699 0.35926 0.0
C1065 C 0.45353 0.60944 0.35234 0.0
C1066 C 0.52474 0.66942 0.34319 0.0
C1067 C 0.50424 0.6406 0.33152 0.0
H1068 H 0.22177 0.44735 0.97576 0.0
H1069 H 0.34597 0.45107 0.94669 0.0
H1070 H 0.31032 0.40072 0.92631 0.0
H1071 H 0.24659 0.3512 0.91786 0.0
H1072 H 0.12139 0.34703 0.94633 0.0
H1073 H 0.15447 0.40255 0.96585 0.0
C1074 C 0.2408 0.43723 0.96491 0.0
C1075 C 0.28654 0.4525 0.96276 0.0
C1076 C 0.22005 0.4082 0.95324 0.0
C1077 C 0.31069 0.4399 0.94855 0.0
C1078 C 0.29044 0.41093 0.93696 0.0
C1079 C 0.22643 0.36256 0.92832 0.0
C1080 C 0.18204 0.34448 0.93089 0.0
C1081 C 0.24557 0.39421 0.93935 0.0
C1082 C 0.15578 0.36035 0.9442 0.0
C1083 C 0.17477 0.39186 0.95537 0.0
H1084 H 0.50657 0.45182 0.73397 0.0
H1085 H 0.37584 0.4857 0.7119 0.0
H1086 H 0.3966 0.44057 0.6878 0.0
H1087 H 0.44917 0.38656 0.67386 0.0
H1088 H 0.58089 0.35504 0.69536 0.0
H1089 H 0.56313 0.40571 0.71852 0.0
C1090 C 0.48292 0.4503 0.72378 0.0
C1091 C 0.43918 0.4714 0.725 0.0
C1092 C 0.49532 0.42482 0.70979 0.0
C1093 C 0.40911 0.46863 0.7116 0.0
C1094 C 0.42108 0.44312 0.69771 0.0
C1095 C 0.47419 0.3913 0.68353 0.0
C1096 C 0.51616 0.36701 0.68295 0.0
C1097 C 0.4636 0.42017 0.69685 0.0
C1098 C 0.54851 0.37373 0.69546 0.0
C1099 C 0.53818 0.40235 0.70878 0.0
H1100 H 0.37451 0.64458 0.46396 0.0
H1101 H 0.47077 0.54484 0.48293 0.0
H1102 H 0.52532 0.56276 0.46138 0.0
H1103 H 0.54745 0.6087 0.43794 0.0
H1104 H 0.45429 0.71119 0.41937 0.0
H1105 H 0.39684 0.69068 0.44014 0.0
C1106 C 0.40752 0.62695 0.46346 0.0
C1107 C 0.41823 0.59317 0.47508 0.0
C1108 C 0.43942 0.63818 0.4512 0.0
C1109 C 0.46101 0.57028 0.47403 0.0
C1110 C 0.49252 0.5808 0.46178 0.0
C1111 C 0.51444 0.62642 0.43839 0.0
C1112 C 0.50509 0.66173 0.4273 0.0
C1113 C 0.48222 0.61485 0.45039 0.0
C1114 C 0.46244 0.68461 0.42804 0.0
C1115 C 0.42964 0.67267 0.43983 0.0
H1116 H 0.2443 0.63551 0.23179 0.0
H1117 H 0.25043 0.50286 0.20751 0.0
H1118 H 0.21555 0.53577 0.18326 0.0
H1119 H 0.17562 0.59984 0.17019 0.0
H1120 H 0.16924 0.73297 0.19412 0.0
H1121 H 0.21243 0.70251 0.21722 0.0
C1122 C 0.23845 0.61405 0.2211 0.0
C1123 C 0.24949 0.56676 0.22147 0.0
C1124 C 0.2181 0.63319 0.20721 0.0
C1125 C 0.24242 0.53938 0.20749 0.0
C1126 C 0.22218 0.5581 0.19366 0.0
C1127 C 0.18416 0.62234 0.18038 0.0
C1128 C 0.16861 0.66832 0.18061 0.0
C1129 C 0.20873 0.60459 0.19358 0.0
C1130 C 0.18069 0.69738 0.19371 0.0
C1131 C 0.20513 0.6799 0.20695 0.0
loop_
_geom_bond_atom_site_label_1
_geom_bond_atom_site_label_2
_geom_bond_distance
_geom_bond_site_symmetry_2
_ccdc_geom_bond_type
H0 C27 0.929 1_565 S
N1 C26 1.433 1_565 S
N1 C32 1.435 . S
N1 C38 1.423 . S
H2 C28 0.930 . S
H3 C31 0.931 . S
H4 C30 0.929 . S
H5 C33 0.907 1_545 S
H6 C34 0.932 1_545 S
H7 C37 0.929 . S
H8 C36 0.931 . S
H9 C39 0.929 . S
H10 C43 0.932 . S
H11 C40 0.931 . S
H12 C42 0.929 . S
H13 C45 0.929 1_565 S
H14 C46 0.930 . S
H15 C48 0.929 . S
H16 C49 0.931 . S
H17 C51 0.930 1_545 S
H18 C52 0.920 1_545 S
H19 C54 0.931 . S
H20 C55 0.929 . S
H21 C57 0.929 . S
H22 C58 0.931 . S
H23 C60 0.929 . S
N24 C44 1.433 1_565 S
N24 C50 1.435 . S
N24 C56 1.423 . S
H25 C61 0.932 . S
C26 N1 1.433 1_545 S
C26 C27 1.363 . S
C26 C31 1.370 . S
C27 H0 0.929 1_545 S
C27 C26 1.363 . S
C27 C28 1.385 . S
C28 H2 0.930 . S
C28 C27 1.385 . S
C28 C29 1.357 . S
C29 C28 1.357 . S
C29 C30 1.406 . S
C30 H4 0.929 . S
C30 C29 1.406 . S
C30 C31 1.391 . S
C31 H3 0.931 . S
C31 C26 1.370 . S
C31 C30 1.391 . S
C32 N1 1.435 . S
C32 C33 1.373 . S
C32 C37 1.371 . S
C33 H5 0.907 1_565 S
C33 C32 1.373 . S
C33 C34 1.413 . S
C34 H6 0.932 1_565 S
C34 C33 1.413 . S
C34 C35 1.383 . S
C35 C34 1.383 . S
C35 C36 1.393 . S
C36 H8 0.931 . S
C36 C35 1.393 . S
C36 C37 1.382 . S
C37 H7 0.929 . S
C37 C32 1.371 . S
C37 C36 1.382 . S
C38 N1 1.423 . S
C38 C39 1.362 . S
C38 C43 1.388 . S
C39 H9 0.929 . S
C39 C38 1.362 . S
C39 C40 1.376 . S
C40 H11 0.931 . S
C40 C39 1.376 . S
C40 C41 1.396 1_655 S
C41 C40 1.396 1_455 S
C41 C42 1.348 1_455 S
C41 C59 1.472 . S
C42 H12 0.929 . S
C42 C41 1.348 1_655 S
C42 C43 1.443 . S
C43 H10 0.932 . S
C43 C38 1.388 . S
C43 C42 1.443 . S
C44 N24 1.433 1_545 S
C44 C45 1.363 . S
C44 C49 1.370 . S
C45 H13 0.929 1_545 S
C45 C44 1.363 . S
C45 C46 1.385 . S
C46 H14 0.930 . S
C46 C45 1.385 . S
C46 C47 1.357 . S
C47 C46 1.357 . S
C47 C48 1.406 . S
C48 H15 0.929 . S
C48 C47 1.406 . S
C48 C49 1.391 . S
C49 H16 0.931 . S
C49 C44 1.370 . S
C49 C48 1.391 . S
C50 N24 1.435 . S
C50 C51 1.358 . S
C50 C55 1.371 . S
C51 H17 0.930 1_565 S
C51 C50 1.358 . S
C51 C52 1.405 . S
C52 H18 0.920 1_565 S
C52 C51 1.405 . S
C52 C53 1.383 . S
C53 C52 1.383 . S
C53 C54 1.393 . S
C54 H19 0.931 . S
C54 C53 1.393 . S
C54 C55 1.382 . S
C55 H20 0.929 . S
C55 C50 1.371 . S
C55 C54 1.382 . S
C56 N24 1.423 . S
C56 C57 1.362 . S
C56 C61 1.388 . S
C57 H21 0.929 . S
C57 C56 1.362 . S
C57 C58 1.376 . S
C58 H22 0.931 . S
C58 C57 1.376 . S
C58 C59 1.396 . S
C59 C41 1.472 . S
C59 C58 1.396 . S
C59 C60 1.348 . S
C60 H23 0.929 . S
C60 C59 1.348 . S
C60 C61 1.443 . S
C61 H25 0.932 . S
C61 C56 1.388 . S
C61 C60 1.443 . S
H62 C89 0.929 . S
N63 C88 1.433 . S
N63 C94 1.435 . S
N63 C100 1.423 . S
H64 C90 0.930 . S
H65 C93 0.931 . S
H66 C92 0.929 . S
H67 C95 0.930 . S
H68 C96 0.932 . S
H69 C99 0.929 . S
H70 C98 0.931 . S
H71 C101 0.929 . S
H72 C105 0.932 . S
H73 C102 0.931 . S
H74 C104 0.929 . S
H75 C107 0.929 . S
H76 C108 0.930 . S
H77 C110 0.929 . S
H78 C111 0.931 . S
H79 C113 0.930 . S
H80 C114 0.932 . S
H81 C116 0.931 . S
H82 C117 0.929 . S
H83 C119 0.929 . S
H84 C120 0.931 . S
H85 C122 0.929 . S
N86 C106 1.433 . S
N86 C112 1.435 . S
N86 C118 1.423 . S
H87 C123 0.932 . S
C88 N63 1.433 . S
C88 C89 1.363 . S
C88 C93 1.370 . S
C89 H62 0.929 . S
C89 C88 1.363 . S
C89 C90 1.385 . S
C90 H64 0.930 . S
C90 C89 1.385 . S
C90 C91 1.357 . S
C91 C90 1.357 . S
C91 C92 1.406 . S
C92 H66 0.929 . S
C92 C91 1.406 . S
C92 C93 1.391 . S
C93 H65 0.931 . S
C93 C88 1.370 . S
C93 C92 1.391 . S
C94 N63 1.435 . S
C94 C95 1.358 . S
C94 C99 1.371 . S
C95 H67 0.930 . S
C95 C94 1.358 . S
C95 C96 1.405 . S
C96 H68 0.932 . S
C96 C95 1.405 . S
C96 C97 1.383 . S
C97 C96 1.383 . S
C97 C98 1.393 . S
C98 H70 0.931 . S
C98 C97 1.393 . S
C98 C99 1.382 . S
C99 H69 0.929 . S
C99 C94 1.371 . S
C99 C98 1.382 . S
C100 N63 1.423 . S
C100 C101 1.362 . S
C100 C105 1.388 . S
C101 H71 0.929 . S
C101 C100 1.362 . S
C101 C102 1.376 . S
C102 H73 0.931 . S
C102 C101 1.376 . S
C102 C103 1.396 . S
C103 C102 1.396 . S
C103 C104 1.348 . S
C103 C121 1.472 . S
C104 H74 0.929 . S
C104 C103 1.348 . S
C104 C105 1.443 . S
C105 H72 0.932 . S
C105 C100 1.388 . S
C105 C104 1.443 . S
C106 N86 1.433 . S
C106 C107 1.363 . S
C106 C111 1.370 . S
C107 H75 0.929 . S
C107 C106 1.363 . S
C107 C108 1.385 . S
C108 H76 0.930 . S
C108 C107 1.385 . S
C108 C109 1.357 . S
C109 C108 1.357 . S
C109 C110 1.406 . S
C110 H77 0.929 . S
C110 C109 1.406 . S
C110 C111 1.391 . S
C111 H78 0.931 . S
C111 C106 1.370 . S
C111 C110 1.391 . S
C112 N86 1.435 . S
C112 C113 1.358 . S
C112 C117 1.371 . S
C113 H79 0.930 . S
C113 C112 1.358 . S
C113 C114 1.405 . S
C114 H80 0.932 . S
C114 C113 1.405 . S
C114 C115 1.383 . S
C115 C114 1.383 . S
C115 C116 1.393 . S
C116 H81 0.931 . S
C116 C115 1.393 . S
C116 C117 1.382 . S
C117 H82 0.929 . S
C117 C112 1.371 . S
C117 C116 1.382 . S
C118 N86 1.423 . S
C118 C119 1.362 . S
C118 C123 1.388 . S
C119 H83 0.929 . S
C119 C118 1.362 . S
C119 C120 1.376 . S
C120 H84 0.931 . S
C120 C119 1.376 . S
C120 C121 1.396 . S
C121 C103 1.472 . S
C121 C120 1.396 . S
C121 C122 1.348 . S
C122 H85 0.929 . S
C122 C121 1.348 . S
C122 C123 1.443 . S
C123 H87 0.932 . S
C123 C118 1.388 . S
C123 C122 1.443 . S
H124 C151 0.929 . S
N125 C150 1.435 . S
N125 C156 1.435 . S
N125 C162 1.423 . S
H126 C152 0.930 . S
H127 C155 0.931 . S
H128 C154 0.929 . S
H129 C157 0.930 1_565 S
H130 C158 0.932 . S
H131 C161 0.929 . S
H132 C160 0.931 . S
H133 C163 0.929 . S
H134 C167 0.932 . S
H135 C164 0.931 . S
H136 C166 0.929 . S
H137 C169 0.929 . S
H138 C170 0.930 . S
H139 C172 0.929 . S
H140 C173 0.931 . S
H141 C175 0.930 1_565 S
H142 C176 0.932 . S
H143 C178 0.931 . S
H144 C179 0.929 . S
H145 C181 0.929 . S
H146 C182 0.931 . S
H147 C184 0.929 . S
N148 C168 1.435 . S
N148 C174 1.435 . S
N148 C180 1.423 . S
H149 C185 0.932 . S
C150 N125 1.435 . S
C150 C151 1.364 . S
C150 C155 1.367 1_545 S
C151 H124 0.929 . S
C151 C150 1.364 . S
C151 C152 1.385 1_545 S
C152 H126 0.930 . S
C152 C151 1.385 1_565 S
C152 C153 1.357 . S
C153 C152 1.357 . S
C153 C154 1.406 . S
C154 H128 0.929 . S
C154 C153 1.406 . S
C154 C155 1.391 . S
C155 H127 0.931 . S
C155 C150 1.367 1_565 S
C155 C154 1.391 . S
C156 N125 1.435 . S
C156 C157 1.358 . S
C156 C161 1.371 . S
C157 H129 0.930 1_545 S
C157 C156 1.358 . S
C157 C158 1.405 1_554 S
C158 H130 0.932 . S
C158 C157 1.405 1_556 S
C158 C159 1.383 . S
C159 C158 1.383 . S
C159 C160 1.393 . S
C160 H132 0.931 . S
C160 C159 1.393 . S
C160 C161 1.382 1_556 S
C161 H131 0.929 . S
C161 C156 1.371 . S
C161 C160 1.382 1_554 S
C162 N125 1.423 . S
C162 C163 1.362 . S
C162 C167 1.388 . S
C163 H133 0.929 . S
C163 C162 1.362 . S
C163 C164 1.376 . S
C164 H135 0.931 . S
C164 C163 1.376 . S
C164 C165 1.396 . S
C165 C164 1.396 . S
C165 C166 1.348 . S
C165 C183 1.472 . S
C166 H136 0.929 . S
C166 C165 1.348 . S
C166 C167 1.443 . S
C167 H134 0.932 . S
C167 C162 1.388 . S
C167 C166 1.443 . S
C168 N148 1.435 . S
C168 C169 1.364 . S
C168 C173 1.367 1_545 S
C169 H137 0.929 . S
C169 C168 1.364 . S
C169 C170 1.385 1_545 S
C170 H138 0.930 . S
C170 C169 1.385 1_565 S
C170 C171 1.357 . S
C171 C170 1.357 . S
C171 C172 1.406 . S
C172 H139 0.929 . S
C172 C171 1.406 . S
C172 C173 1.391 . S
C173 H140 0.931 . S
C173 C168 1.367 1_565 S
C173 C172 1.391 . S
C174 N148 1.435 . S
C174 C175 1.358 . S
C174 C179 1.371 . S
C175 H141 0.930 1_545 S
C175 C174 1.358 . S
C175 C176 1.405 1_554 S
C176 H142 0.932 . S
C176 C175 1.405 1_556 S
C176 C177 1.383 . S
C177 C176 1.383 . S
C177 C178 1.393 . S
C178 H143 0.931 . S
C178 C177 1.393 . S
C178 C179 1.382 1_556 S
C179 H144 0.929 . S
C179 C174 1.371 . S
C179 C178 1.382 1_554 S
C180 N148 1.423 . S
C180 C181 1.362 . S
C180 C185 1.388 . S
C181 H145 0.929 . S
C181 C180 1.362 . S
C181 C182 1.376 . S
C182 H146 0.931 . S
C182 C181 1.376 . S
C182 C183 1.396 . S
C183 C165 1.472 . S
C183 C182 1.396 . S
C183 C184 1.348 . S
C184 H147 0.929 . S
C184 C183 1.348 . S
C184 C185 1.443 . S
C185 H149 0.932 . S
C185 C180 1.388 . S
C185 C184 1.443 . S
H186 C213 0.929 . S
N187 C212 1.433 . S
N187 C218 1.435 . S
N187 C224 1.423 . S
H188 C214 0.930 . S
H189 C217 0.931 . S
H190 C216 0.929 . S
H191 C219 0.930 . S
H192 C220 0.932 . S
H193 C223 0.929 . S
H194 C222 0.931 . S
H195 C225 0.929 . S
H196 C229 0.932 . S
H197 C226 0.931 . S
H198 C228 0.929 . S
H199 C231 0.929 . S
H200 C232 0.930 . S
H201 C234 0.929 . S
H202 C235 0.931 . S
H203 C237 0.930 . S
H204 C238 0.932 . S
H205 C240 0.931 . S
H206 C241 0.929 . S
H207 C243 0.929 . S
H208 C244 0.931 . S
H209 C246 0.929 . S
N210 C230 1.433 . S
N210 C236 1.435 . S
N210 C242 1.423 . S
H211 C247 0.932 . S
C212 N187 1.433 . S
C212 C213 1.363 . S
C212 C217 1.370 . S
C213 H186 0.929 . S
C213 C212 1.363 . S
C213 C214 1.385 . S
C214 H188 0.930 . S
C214 C213 1.385 . S
C214 C215 1.357 . S
C215 C214 1.357 . S
C215 C216 1.406 . S
C216 H190 0.929 . S
C216 C215 1.406 . S
C216 C217 1.391 . S
C217 H189 0.931 . S
C217 C212 1.370 . S
C217 C216 1.391 . S
C218 N187 1.435 . S
C218 C219 1.358 . S
C218 C223 1.371 . S
C219 H191 0.930 . S
C219 C218 1.358 . S
C219 C220 1.405 . S
C220 H192 0.932 . S
C220 C219 1.405 . S
C220 C221 1.383 . S
C221 C220 1.383 . S
C221 C222 1.393 . S
C222 H194 0.931 . S
C222 C221 1.393 . S
C222 C223 1.382 . S
C223 H193 0.929 . S
C223 C218 1.371 . S
C223 C222 1.382 . S
C224 N187 1.423 . S
C224 C225 1.362 . S
C224 C229 1.388 . S
C225 H195 0.929 . S
C225 C224 1.362 . S
C225 C226 1.376 . S
C226 H197 0.931 . S
C226 C225 1.376 . S
C226 C227 1.396 . S
C227 C226 1.396 . S
C227 C228 1.348 . S
C227 C245 1.472 . S
C228 H198 0.929 . S
C228 C227 1.348 . S
C228 C229 1.443 . S
C229 H196 0.932 . S
C229 C224 1.388 . S
C229 C228 1.443 . S
C230 N210 1.433 . S
C230 C231 1.363 . S
C230 C235 1.370 . S
C231 H199 0.929 . S
C231 C230 1.363 . S
C231 C232 1.385 . S
C232 H200 0.930 . S
C232 C231 1.385 . S
C232 C233 1.357 . S
C233 C232 1.357 . S
C233 C234 1.406 . S
C234 H201 0.929 . S
C234 C233 1.406 . S
C234 C235 1.391 . S
C235 H202 0.931 . S
C235 C230 1.370 . S
C235 C234 1.391 . S
C236 N210 1.435 . S
C236 C237 1.358 . S
C236 C241 1.371 . S
C237 H203 0.930 . S
C237 C236 1.358 . S
C237 C238 1.405 . S
C238 H204 0.932 . S
C238 C237 1.405 . S
C238 C239 1.383 . S
C239 C238 1.383 . S
C239 C240 1.393 . S
C240 H205 0.931 . S
C240 C239 1.393 . S
C240 C241 1.382 . S
C241 H206 0.929 . S
C241 C236 1.371 . S
C241 C240 1.382 . S
C242 N210 1.423 . S
C242 C243 1.362 . S
C242 C247 1.388 . S
C243 H207 0.929 . S
C243 C242 1.362 . S
C243 C244 1.376 . S
C244 H208 0.931 . S
C244 C243 1.376 . S
C244 C245 1.396 . S
C245 C227 1.472 . S
C245 C244 1.396 . S
C245 C246 1.348 . S
C246 H209 0.929 . S
C246 C245 1.348 . S
C246 C247 1.443 . S
C247 H211 0.932 . S
C247 C242 1.388 . S
C247 C246 1.443 . S
H248 C275 0.929 . S
N249 C274 1.433 . S
N249 C280 1.435 1_545 S
N249 C286 1.423 . S
H250 C276 0.930 . S
H251 C279 0.931 . S
H252 C278 0.929 . S
H253 C281 0.930 . S
H254 C282 0.932 . S
H255 C285 0.945 . S
H256 C284 0.931 . S
H257 C287 0.929 . S
H258 C291 0.932 . S
H259 C288 0.931 . S
H260 C290 0.929 . S
H261 C293 0.929 . S
H262 C294 0.930 . S
H263 C296 0.929 . S
H264 C297 0.931 . S
H265 C299 0.930 . S
H266 C300 0.932 . S
H267 C302 0.931 . S
H268 C303 0.929 . S
H269 C305 0.929 . S
H270 C306 0.931 . S
H271 C308 0.929 . S
N272 C292 1.433 . S
N272 C298 1.435 . S
N272 C304 1.423 . S
H273 C309 0.932 . S
C274 N249 1.433 . S
C274 C275 1.363 1_545 S
C274 C279 1.370 . S
C275 H248 0.929 . S
C275 C274 1.363 1_565 S
C275 C276 1.385 . S
C276 H250 0.930 . S
C276 C275 1.385 . S
C276 C277 1.357 . S
C277 C276 1.357 . S
C277 C278 1.406 1_565 S
C278 H252 0.929 . S
C278 C277 1.406 1_545 S
C278 C279 1.391 . S
C279 H251 0.931 . S
C279 C274 1.370 . S
C279 C278 1.391 . S
C280 N249 1.435 1_565 S
C280 C281 1.358 . S
C280 C285 1.369 1_565 S
C281 H253 0.930 . S
C281 C280 1.358 . S
C281 C282 1.405 . S
C282 H254 0.932 . S
C282 C281 1.405 . S
C282 C283 1.383 . S
C283 C282 1.383 . S
C283 C284 1.393 . S
C284 H256 0.931 . S
C284 C283 1.393 . S
C284 C285 1.369 1_565 S
C285 H255 0.945 . S
C285 C280 1.369 1_545 S
C285 C284 1.369 1_545 S
C286 N249 1.423 . S
C286 C287 1.362 . S
C286 C291 1.388 . S
C287 H257 0.929 . S
C287 C286 1.362 . S
C287 C288 1.376 . S
C288 H259 0.931 . S
C288 C287 1.376 . S
C288 C289 1.396 . S
C289 C288 1.396 . S
C289 C290 1.348 . S
C289 C307 1.472 . S
C290 H260 0.929 . S
C290 C289 1.348 . S
C290 C291 1.443 . S
C291 H258 0.932 . S
C291 C286 1.388 . S
C291 C290 1.443 . S
C292 N272 1.433 . S
C292 C293 1.363 . S
C292 C297 1.370 . S
C293 H261 0.929 . S
C293 C292 1.363 . S
C293 C294 1.385 . S
C294 H262 0.930 . S
C294 C293 1.385 . S
C294 C295 1.357 . S
C295 C294 1.357 . S
C295 C296 1.406 . S
C296 H263 0.929 . S
C296 C295 1.406 . S
C296 C297 1.391 . S
C297 H264 0.931 . S
C297 C292 1.370 . S
C297 C296 1.391 . S
C298 N272 1.435 . S
C298 C299 1.358 . S
C298 C303 1.371 . S
C299 H265 0.930 . S
C299 C298 1.358 . S
C299 C300 1.405 . S
C300 H266 0.932 . S
C300 C299 1.405 . S
C300 C301 1.383 . S
C301 C300 1.383 . S
C301 C302 1.393 . S
C302 H267 0.931 . S
C302 C301 1.393 . S
C302 C303 1.382 . S
C303 H268 0.929 . S
C303 C298 1.371 . S
C303 C302 1.382 . S
C304 N272 1.423 . S
C304 C305 1.362 . S
C304 C309 1.388 . S
C305 H269 0.929 . S
C305 C304 1.362 . S
C305 C306 1.376 . S
C306 H270 0.931 . S
C306 C305 1.376 . S
C306 C307 1.396 . S
C307 C289 1.472 . S
C307 C306 1.396 . S
C307 C308 1.348 . S
C308 H271 0.929 . S
C308 C307 1.348 . S
C308 C309 1.443 . S
C309 H273 0.932 . S
C309 C304 1.388 . S
C309 C308 1.443 . S
H310 C337 0.929 . S
N311 C336 1.433 1_565 S
N311 C342 1.435 1_565 S
N311 C348 1.423 . S
H312 C338 0.930 . S
H313 C341 0.931 . S
H314 C340 0.929 . S
H315 C343 0.930 . S
H316 C344 0.932 . S
H317 C347 0.929 1_565 S
H318 C346 0.931 . S
H319 C349 0.929 . S
H320 C353 0.932 . S
H321 C350 0.931 . S
H322 C352 0.929 . S
H323 C355 0.929 . S
H324 C356 0.930 . S
H325 C358 0.929 . S
H326 C359 0.931 . S
H327 C361 0.930 . S
H328 C362 0.932 . S
H329 C364 0.931 . S
H330 C365 0.929 . S
H331 C367 0.929 . S
H332 C368 0.931 . S
H333 C370 0.929 . S
N334 C354 1.433 . S
N334 C360 1.435 . S
N334 C366 1.423 . S
H335 C371 0.932 . S
C336 N311 1.433 1_545 S
C336 C337 1.363 . S
C336 C341 1.370 1_545 S
C337 H310 0.929 . S
C337 C336 1.363 . S
C337 C338 1.385 . S
C338 H312 0.930 . S
C338 C337 1.385 . S
C338 C339 1.357 . S
C339 C338 1.357 . S
C339 C340 1.408 1_545 S
C340 H314 0.929 . S
C340 C339 1.408 1_565 S
C340 C341 1.391 . S
C341 H313 0.931 . S
C341 C336 1.370 1_565 S
C341 C340 1.391 . S
C342 N311 1.435 1_545 S
C342 C343 1.358 . S
C342 C347 1.371 . S
C343 H315 0.930 . S
C343 C342 1.358 . S
C343 C344 1.405 . S
C344 H316 0.932 . S
C344 C343 1.405 . S
C344 C345 1.383 . S
C345 C344 1.383 . S
C345 C346 1.393 . S
C346 H318 0.931 . S
C346 C345 1.393 . S
C346 C347 1.382 . S
C347 H317 0.929 1_545 S
C347 C342 1.371 . S
C347 C346 1.382 . S
C348 N311 1.423 . S
C348 C349 1.362 . S
C348 C353 1.388 . S
C349 H319 0.929 . S
C349 C348 1.362 . S
C349 C350 1.376 . S
C350 H321 0.931 . S
C350 C349 1.376 . S
C350 C351 1.396 . S
C351 C350 1.396 . S
C351 C352 1.348 . S
C351 C369 1.472 . S
C352 H322 0.929 . S
C352 C351 1.348 . S
C352 C353 1.443 . S
C353 H320 0.932 . S
C353 C348 1.388 . S
C353 C352 1.443 . S
C354 N334 1.433 . S
C354 C355 1.363 . S
C354 C359 1.370 . S
C355 H323 0.929 . S
C355 C354 1.363 . S
C355 C356 1.385 . S
C356 H324 0.930 . S
C356 C355 1.385 . S
C356 C357 1.357 . S
C357 C356 1.357 . S
C357 C358 1.406 . S
C358 H325 0.929 . S
C358 C357 1.406 . S
C358 C359 1.391 . S
C359 H326 0.931 . S
C359 C354 1.370 . S
C359 C358 1.391 . S
C360 N334 1.435 . S
C360 C361 1.358 . S
C360 C365 1.371 . S
C361 H327 0.930 . S
C361 C360 1.358 . S
C361 C362 1.405 . S
C362 H328 0.932 . S
C362 C361 1.405 . S
C362 C363 1.383 . S
C363 C362 1.383 . S
C363 C364 1.393 . S
C364 H329 0.931 . S
C364 C363 1.393 . S
C364 C365 1.382 . S
C365 H330 0.929 . S
C365 C360 1.371 . S
C365 C364 1.382 . S
C366 N334 1.423 . S
C366 C367 1.362 . S
C366 C371 1.388 . S
C367 H331 0.929 . S
C367 C366 1.362 . S
C367 C368 1.376 . S
C368 H332 0.931 . S
C368 C367 1.376 . S
C368 C369 1.396 . S
C369 C351 1.472 . S
C369 C368 1.396 . S
C369 C370 1.348 . S
C370 H333 0.929 . S
C370 C369 1.348 . S
C370 C371 1.443 . S
C371 H335 0.932 . S
C371 C366 1.388 . S
C371 C370 1.443 . S
H372 C399 0.932 . S
N373 C398 1.433 . S
N373 C404 1.435 . S
N373 C410 1.423 . S
H374 C400 0.930 . S
H375 C403 0.952 . S
H376 C402 0.929 . S
H377 C405 0.930 . S
H378 C406 0.932 . S
H379 C409 0.929 . S
H380 C408 0.931 . S
H381 C411 0.929 1_556 S
H382 C415 0.932 . S
H383 C412 0.931 1_556 S
H384 C414 0.929 . S
H385 C417 0.934 . S
H386 C418 0.930 . S
H387 C420 0.929 . S
H388 C421 0.950 . S
H389 C423 0.930 . S
H390 C424 0.932 . S
H391 C426 0.931 . S
H392 C427 0.929 . S
H393 C429 0.929 1_556 S
H394 C430 0.931 1_556 S
H395 C432 0.929 . S
N396 C416 1.433 . S
N396 C422 1.435 . S
N396 C428 1.423 . S
H397 C433 0.932 . S
C398 N373 1.433 . S
C398 C399 1.363 1_554 S
C398 C403 1.381 . S
C399 H372 0.932 . S
C399 C398 1.363 1_556 S
C399 C400 1.385 . S
C400 H374 0.930 . S
C400 C399 1.385 . S
C400 C401 1.357 . S
C401 C400 1.357 . S
C401 C402 1.406 . S
C402 H376 0.929 . S
C402 C401 1.406 . S
C402 C403 1.361 1_556 S
C403 H375 0.952 . S
C403 C398 1.381 . S
C403 C402 1.361 1_554 S
C404 N373 1.435 . S
C404 C405 1.358 . S
C404 C409 1.371 . S
C405 H377 0.930 . S
C405 C404 1.358 . S
C405 C406 1.405 . S
C406 H378 0.932 . S
C406 C405 1.405 . S
C406 C407 1.383 . S
C407 C406 1.383 . S
C407 C408 1.393 . S
C408 H380 0.931 . S
C408 C407 1.393 . S
C408 C409 1.382 . S
C409 H379 0.929 . S
C409 C404 1.371 . S
C409 C408 1.382 . S
C410 N373 1.423 . S
C410 C411 1.362 . S
C410 C415 1.388 . S
C411 H381 0.929 1_554 S
C411 C410 1.362 . S
C411 C412 1.376 . S
C412 H383 0.931 1_554 S
C412 C411 1.376 . S
C412 C413 1.396 . S
C413 C412 1.396 . S
C413 C414 1.348 . S
C413 C431 1.472 . S
C414 H384 0.929 . S
C414 C413 1.348 . S
C414 C415 1.443 . S
C415 H382 0.932 . S
C415 C410 1.388 . S
C415 C414 1.443 . S
C416 N396 1.433 . S
C416 C417 1.363 1_554 S
C416 C421 1.380 . S
C417 H385 0.934 . S
C417 C416 1.363 1_556 S
C417 C418 1.385 . S
C418 H386 0.930 . S
C418 C417 1.385 . S
C418 C419 1.357 . S
C419 C418 1.357 . S
C419 C420 1.406 . S
C420 H387 0.929 . S
C420 C419 1.406 . S
C420 C421 1.364 1_556 S
C421 H388 0.950 . S
C421 C416 1.380 . S
C421 C420 1.364 1_554 S
C422 N396 1.435 . S
C422 C423 1.358 . S
C422 C427 1.371 . S
C423 H389 0.930 . S
C423 C422 1.358 . S
C423 C424 1.405 . S
C424 H390 0.932 . S
C424 C423 1.405 . S
C424 C425 1.383 . S
C425 C424 1.383 . S
C425 C426 1.393 . S
C426 H391 0.931 . S
C426 C425 1.393 . S
C426 C427 1.382 . S
C427 H392 0.929 . S
C427 C422 1.371 . S
C427 C426 1.382 . S
C428 N396 1.423 . S
C428 C429 1.362 . S
C428 C433 1.388 . S
C429 H393 0.929 1_554 S
C429 C428 1.362 . S
C429 C430 1.376 . S
C430 H394 0.931 1_554 S
C430 C429 1.376 . S
C430 C431 1.396 . S
C431 C413 1.472 . S
C431 C430 1.396 . S
C431 C432 1.348 . S
C432 H395 0.929 . S
C432 C431 1.348 . S
C432 C433 1.443 . S
C433 H397 0.932 . S
C433 C428 1.388 . S
C433 C432 1.443 . S
H434 C461 0.929 . S
N435 C460 1.433 . S
N435 C466 1.435 . S
N435 C472 1.423 . S
H436 C462 0.930 . S
H437 C465 0.931 . S
H438 C464 0.929 . S
H439 C467 0.930 . S
H440 C468 0.932 . S
H441 C471 0.929 . S
H442 C470 0.931 . S
H443 C473 0.929 . S
H444 C477 0.932 . S
H445 C474 0.931 . S
H446 C476 0.929 . S
H447 C479 0.929 . S
H448 C480 0.930 . S
H449 C482 0.929 . S
H450 C483 0.931 1_455 S
H451 C485 0.930 . S
H452 C486 0.932 . S
H453 C488 0.931 . S
H454 C489 0.929 . S
H455 C491 0.929 . S
H456 C492 0.931 . S
H457 C494 0.929 . S
N458 C478 1.433 . S
N458 C484 1.435 . S
N458 C490 1.423 1_655 S
H459 C495 0.932 . S
C460 N435 1.433 . S
C460 C461 1.363 . S
C460 C465 1.370 . S
C461 H434 0.929 . S
C461 C460 1.363 . S
C461 C462 1.385 . S
C462 H436 0.930 . S
C462 C461 1.385 . S
C462 C463 1.357 . S
C463 C462 1.357 . S
C463 C464 1.406 . S
C464 H438 0.929 . S
C464 C463 1.406 . S
C464 C465 1.391 . S
C465 H437 0.931 . S
C465 C460 1.370 . S
C465 C464 1.391 . S
C466 N435 1.435 . S
C466 C467 1.358 . S
C466 C471 1.371 . S
C467 H439 0.930 . S
C467 C466 1.358 . S
C467 C468 1.405 . S
C468 H440 0.932 . S
C468 C467 1.405 . S
C468 C469 1.383 . S
C469 C468 1.383 . S
C469 C470 1.393 . S
C470 H442 0.931 . S
C470 C469 1.393 . S
C470 C471 1.382 . S
C471 H441 0.929 . S
C471 C466 1.371 . S
C471 C470 1.382 . S
C472 N435 1.423 . S
C472 C473 1.362 . S
C472 C477 1.388 . S
C473 H443 0.929 . S
C473 C472 1.362 . S
C473 C474 1.376 . S
C474 H445 0.931 . S
C474 C473 1.376 . S
C474 C475 1.396 . S
C475 C474 1.396 . S
C475 C476 1.348 . S
C475 C493 1.472 . S
C476 H446 0.929 . S
C476 C475 1.348 . S
C476 C477 1.443 . S
C477 H444 0.932 . S
C477 C472 1.388 . S
C477 C476 1.443 . S
C478 N458 1.433 . S
C478 C479 1.363 . S
C478 C483 1.370 . S
C479 H447 0.929 . S
C479 C478 1.363 . S
C479 C480 1.385 . S
C480 H448 0.930 . S
C480 C479 1.385 . S
C480 C481 1.357 . S
C481 C480 1.357 . S
C481 C482 1.406 . S
C482 H449 0.929 . S
C482 C481 1.406 . S
C482 C483 1.391 . S
C483 H450 0.931 1_655 S
C483 C478 1.370 . S
C483 C482 1.391 . S
C484 N458 1.435 . S
C484 C485 1.358 . S
C484 C489 1.371 . S
C485 H451 0.930 . S
C485 C484 1.358 . S
C485 C486 1.405 . S
C486 H452 0.932 . S
C486 C485 1.405 . S
C486 C487 1.383 . S
C487 C486 1.383 . S
C487 C488 1.393 . S
C488 H453 0.931 . S
C488 C487 1.393 . S
C488 C489 1.382 . S
C489 H454 0.929 . S
C489 C484 1.371 . S
C489 C488 1.382 . S
C490 N458 1.423 1_455 S
C490 C491 1.362 . S
C490 C495 1.388 . S
C491 H455 0.929 . S
C491 C490 1.362 . S
C491 C492 1.376 . S
C492 H456 0.931 . S
C492 C491 1.376 . S
C492 C493 1.396 . S
C493 C475 1.472 . S
C493 C492 1.396 . S
C493 C494 1.348 . S
C494 H457 0.929 . S
C494 C493 1.348 . S
C494 C495 1.443 . S
C495 H459 0.932 . S
C495 C490 1.388 . S
C495 C494 1.443 . S
C496 O523 1.312 . S
C496 O524 1.208 . S
C497 O518 1.331 1_655 S
C497 O521 1.244 . S
C498 O520 1.264 1_655 S
C498 O522 1.273 . S
Mg499 O501 1.936 . S
Mg499 O508 2.081 . S
Mg499 O510 2.023 . S
Mg499 O514 2.031 . S
Mg499 O523 2.291 . S
Mg500 O501 1.963 . S
Mg500 O511 1.942 . S
Mg500 O512 1.955 . S
Mg500 O519 1.986 . S
O501 Mg499 1.936 . S
O501 Mg500 1.963 . S
O501 Mg502 1.915 . S
Mg502 O501 1.915 . S
Mg502 O503 1.915 . S
Mg502 O507 2.013 . S
Mg502 O513 2.114 . S
Mg502 O517 2.013 . S
Mg502 O523 2.114 . S
O503 Mg502 1.915 . S
O503 Mg504 1.936 . S
O503 Mg505 1.963 1_455 S
Mg504 O503 1.936 . S
Mg504 O513 2.291 . S
Mg504 O518 2.081 . S
Mg504 O520 2.023 . S
Mg504 O524 2.031 . S
Mg505 O503 1.963 1_655 S
Mg505 O509 1.986 . S
Mg505 O521 1.942 . S
Mg505 O522 1.955 . S
C506 O517 1.191 . S
C506 O519 1.307 . S
O507 Mg502 2.013 . S
O507 C526 1.191 . S
O508 Mg499 2.081 . S
O508 C516 1.331 . S
O509 Mg505 1.986 . S
O509 C526 1.307 1_655 S
O510 Mg499 2.023 . S
O510 C525 1.264 . S
O511 Mg500 1.942 . S
O511 C516 1.244 . S
O512 Mg500 1.955 . S
O512 C525 1.273 . S
O513 Mg502 2.114 . S
O513 Mg504 2.291 . S
O513 C515 1.312 . S
O514 Mg499 2.031 . S
O514 C515 1.208 . S
C515 O513 1.312 . S
C515 O514 1.208 . S
C516 O508 1.331 . S
C516 O511 1.244 . S
O517 Mg502 2.013 . S
O517 C506 1.191 . S
O518 C497 1.331 1_455 S
O518 Mg504 2.081 . S
O519 Mg500 1.986 . S
O519 C506 1.307 . S
O520 C498 1.264 1_455 S
O520 Mg504 2.023 . S
O521 C497 1.244 . S
O521 Mg505 1.942 . S
O522 C498 1.273 . S
O522 Mg505 1.955 . S
O523 C496 1.312 . S
O523 Mg499 2.291 . S
O523 Mg502 2.114 . S
O524 C496 1.208 . S
O524 Mg504 2.031 . S
C525 O510 1.264 . S
C525 O512 1.273 . S
C526 O507 1.191 . S
C526 O509 1.307 1_455 S
C527 O554 1.312 . S
C527 O555 1.208 . S
C528 O549 1.331 . S
C528 O552 1.244 . S
C529 O551 1.264 . S
C529 O553 1.273 . S
Mg530 O532 1.936 . S
Mg530 O539 2.081 . S
Mg530 O541 2.023 . S
Mg530 O545 2.031 . S
Mg530 O554 2.291 . S
Mg531 O532 1.963 . S
Mg531 O542 1.942 . S
Mg531 O543 1.955 . S
Mg531 O550 1.986 . S
O532 Mg530 1.936 . S
O532 Mg531 1.963 . S
O532 Mg533 1.915 . S
Mg533 O532 1.915 . S
Mg533 O534 1.915 . S
Mg533 O538 2.013 . S
Mg533 O544 2.114 . S
Mg533 O548 2.013 . S
Mg533 O554 2.114 . S
O534 Mg533 1.915 . S
O534 Mg535 1.936 . S
O534 Mg536 1.963 . S
Mg535 O534 1.936 . S
Mg535 O544 2.291 . S
Mg535 O549 2.081 . S
Mg535 O551 2.023 . S
Mg535 O555 2.031 . S
Mg536 O534 1.963 . S
Mg536 O540 1.986 . S
Mg536 O552 1.942 . S
Mg536 O553 1.955 . S
C537 O548 1.191 . S
C537 O550 1.307 . S
O538 Mg533 2.013 . S
O538 C557 1.191 . S
O539 Mg530 2.081 . S
O539 C547 1.331 . S
O540 Mg536 1.986 . S
O540 C557 1.307 . S
O541 Mg530 2.023 . S
O541 C556 1.264 . S
O542 Mg531 1.942 . S
O542 C547 1.244 . S
O543 Mg531 1.955 . S
O543 C556 1.273 . S
O544 Mg533 2.114 . S
O544 Mg535 2.291 . S
O544 C546 1.312 . S
O545 Mg530 2.031 . S
O545 C546 1.208 . S
C546 O544 1.312 . S
C546 O545 1.208 . S
C547 O539 1.331 . S
C547 O542 1.244 . S
O548 Mg533 2.013 . S
O548 C537 1.191 . S
O549 C528 1.331 . S
O549 Mg535 2.081 . S
O550 Mg531 1.986 . S
O550 C537 1.307 . S
O551 C529 1.264 . S
O551 Mg535 2.023 . S
O552 C528 1.244 . S
O552 Mg536 1.942 . S
O553 C529 1.273 . S
O553 Mg536 1.955 . S
O554 C527 1.312 . S
O554 Mg530 2.291 . S
O554 Mg533 2.114 . S
O555 C527 1.208 . S
O555 Mg535 2.031 . S
C556 O541 1.264 . S
C556 O543 1.273 . S
C557 O538 1.191 . S
C557 O540 1.307 . S
C558 O585 1.312 . S
C558 O586 1.208 . S
C559 O580 1.331 . S
C559 O583 1.244 . S
C560 O582 1.264 . S
C560 O584 1.273 . S
Mg561 O563 1.936 . S
Mg561 O570 2.081 . S
Mg561 O572 2.023 . S
Mg561 O576 2.031 . S
Mg561 O585 2.291 . S
Mg562 O563 1.963 . S
Mg562 O573 1.942 . S
Mg562 O574 1.955 . S
Mg562 O581 1.986 . S
O563 Mg561 1.936 . S
O563 Mg562 1.963 . S
O563 Mg564 1.915 . S
Mg564 O563 1.915 . S
Mg564 O565 1.915 . S
Mg564 O569 2.013 . S
Mg564 O575 2.114 . S
Mg564 O579 2.013 . S
Mg564 O585 2.114 . S
O565 Mg564 1.915 . S
O565 Mg566 1.936 . S
O565 Mg567 1.963 . S
Mg566 O565 1.936 . S
Mg566 O575 2.291 . S
Mg566 O580 2.081 . S
Mg566 O582 2.023 . S
Mg566 O586 2.031 . S
Mg567 O565 1.963 . S
Mg567 O571 1.986 . S
Mg567 O583 1.942 . S
Mg567 O584 1.955 . S
C568 O579 1.191 . S
C568 O581 1.307 . S
O569 Mg564 2.013 . S
O569 C588 1.191 . S
O570 Mg561 2.081 . S
O570 C578 1.331 . S
O571 Mg567 1.986 . S
O571 C588 1.307 . S
O572 Mg561 2.023 . S
O572 C587 1.264 . S
O573 Mg562 1.942 . S
O573 C578 1.244 . S
O574 Mg562 1.955 . S
O574 C587 1.273 . S
O575 Mg564 2.114 . S
O575 Mg566 2.291 . S
O575 C577 1.312 . S
O576 Mg561 2.031 . S
O576 C577 1.208 . S
C577 O575 1.312 . S
C577 O576 1.208 . S
C578 O570 1.331 . S
C578 O573 1.244 . S
O579 Mg564 2.013 . S
O579 C568 1.191 . S
O580 C559 1.331 . S
O580 Mg566 2.081 . S
O581 Mg562 1.986 . S
O581 C568 1.307 . S
O582 C560 1.264 . S
O582 Mg566 2.023 . S
O583 C559 1.244 . S
O583 Mg567 1.942 . S
O584 C560 1.273 . S
O584 Mg567 1.955 . S
O585 C558 1.312 . S
O585 Mg561 2.291 . S
O585 Mg564 2.114 . S
O586 C558 1.208 . S
O586 Mg566 2.031 . S
C587 O572 1.264 . S
C587 O574 1.273 . S
C588 O569 1.191 . S
C588 O571 1.307 . S
C589 O616 1.312 . S
C589 O617 1.208 . S
C590 O611 1.331 . S
C590 O614 1.244 . S
C591 O613 1.264 . S
C591 O615 1.273 . S
Mg592 O594 1.936 . S
Mg592 O601 2.081 . S
Mg592 O603 2.023 . S
Mg592 O607 2.031 . S
Mg592 O616 2.291 . S
Mg593 O594 1.963 1_655 S
Mg593 O604 1.942 . S
Mg593 O605 1.955 . S
Mg593 O612 1.986 . S
O594 Mg592 1.936 . S
O594 Mg593 1.963 1_455 S
O594 Mg595 1.915 . S
Mg595 O594 1.915 . S
Mg595 O596 1.915 . S
Mg595 O600 2.013 . S
Mg595 O606 2.114 . S
Mg595 O610 2.013 . S
Mg595 O616 2.114 . S
O596 Mg595 1.915 . S
O596 Mg597 1.936 . S
O596 Mg598 1.963 . S
Mg597 O596 1.936 . S
Mg597 O606 2.291 . S
Mg597 O611 2.081 . S
Mg597 O613 2.023 . S
Mg597 O617 2.031 . S
Mg598 O596 1.963 . S
Mg598 O602 1.986 . S
Mg598 O614 1.942 . S
Mg598 O615 1.955 . S
C599 O610 1.191 . S
C599 O612 1.307 1_455 S
O600 Mg595 2.013 . S
O600 C619 1.191 . S
O601 Mg592 2.081 . S
O601 C609 1.331 1_455 S
O602 Mg598 1.986 . S
O602 C619 1.307 . S
O603 Mg592 2.023 . S
O603 C618 1.264 1_455 S
O604 Mg593 1.942 . S
O604 C609 1.244 . S
O605 Mg593 1.955 . S
O605 C618 1.273 . S
O606 Mg595 2.114 . S
O606 Mg597 2.291 . S
O606 C608 1.312 . S
O607 Mg592 2.031 . S
O607 C608 1.208 . S
C608 O606 1.312 . S
C608 O607 1.208 . S
C609 O601 1.331 1_655 S
C609 O604 1.244 . S
O610 Mg595 2.013 . S
O610 C599 1.191 . S
O611 C590 1.331 . S
O611 Mg597 2.081 . S
O612 Mg593 1.986 . S
O612 C599 1.307 1_655 S
O613 C591 1.264 . S
O613 Mg597 2.023 . S
O614 C590 1.244 . S
O614 Mg598 1.942 . S
O615 C591 1.273 . S
O615 Mg598 1.955 . S
O616 C589 1.312 . S
O616 Mg592 2.291 . S
O616 Mg595 2.114 . S
O617 C589 1.208 . S
O617 Mg597 2.031 . S
C618 O603 1.264 1_655 S
C618 O605 1.273 . S
C619 O600 1.191 . S
C619 O602 1.307 . S
H620 C626 0.930 . S
H621 C629 0.930 . S
H622 C630 0.930 . S
H623 C631 0.930 . S
H624 C634 0.930 . S
H625 C635 0.930 . S
C626 H620 0.930 . S
C626 C627 1.355 . S
C626 C628 1.415 . S
C627 C626 1.355 . S
C627 C629 1.419 . S
C628 C626 1.415 . S
C628 C633 1.425 . S
C628 C635 1.409 . S
C629 H621 0.930 . S
C629 C627 1.419 . S
C629 C630 1.362 . S
C630 H622 0.930 . S
C630 C629 1.362 . S
C630 C633 1.409 . S
C631 H623 0.930 . S
C631 C632 1.355 . S
C631 C633 1.415 . S
C632 C631 1.355 . S
C632 C634 1.419 . S
C633 C628 1.425 . S
C633 C630 1.409 . S
C633 C631 1.415 . S
C634 H624 0.930 . S
C634 C632 1.419 . S
C634 C635 1.362 . S
C635 H625 0.930 . S
C635 C628 1.409 . S
C635 C634 1.362 . S
H636 C642 0.930 . S
H637 C645 0.930 . S
H638 C646 0.930 1_565 S
H639 C647 0.930 . S
H640 C650 0.930 . S
H641 C651 0.930 . S
C642 H636 0.930 . S
C642 C643 1.355 1_545 S
C642 C644 1.415 . S
C643 C642 1.355 1_565 S
C643 C645 1.419 . S
C644 C642 1.415 . S
C644 C649 1.425 . S
C644 C651 1.409 . S
C645 H637 0.930 . S
C645 C643 1.419 . S
C645 C646 1.362 1_565 S
C646 H638 0.930 1_545 S
C646 C645 1.362 1_545 S
C646 C649 1.409 . S
C647 H639 0.930 . S
C647 C648 1.355 . S
C647 C649 1.415 . S
C648 C647 1.355 . S
C648 C650 1.419 . S
C649 C644 1.425 . S
C649 C646 1.409 . S
C649 C647 1.415 . S
C650 H640 0.930 . S
C650 C648 1.419 . S
C650 C651 1.362 . S
C651 H641 0.930 . S
C651 C644 1.409 . S
C651 C650 1.362 . S
H652 C658 0.930 . S
H653 C661 0.930 . S
H654 C662 0.930 . S
H655 C663 0.930 . S
H656 C666 0.930 . S
H657 C667 0.930 . S
C658 H652 0.930 . S
C658 C659 1.355 . S
C658 C660 1.415 . S
C659 C658 1.355 . S
C659 C661 1.419 . S
C660 C658 1.415 . S
C660 C665 1.425 . S
C660 C667 1.409 . S
C661 H653 0.930 . S
C661 C659 1.419 . S
C661 C662 1.362 . S
C662 H654 0.930 . S
C662 C661 1.362 . S
C662 C665 1.409 . S
C663 H655 0.930 . S
C663 C664 1.355 . S
C663 C665 1.415 . S
C664 C663 1.355 . S
C664 C666 1.419 . S
C665 C660 1.425 . S
C665 C662 1.409 . S
C665 C663 1.415 . S
C666 H656 0.930 . S
C666 C664 1.419 . S
C666 C667 1.362 . S
C667 H657 0.930 . S
C667 C660 1.409 . S
C667 C666 1.362 . S
H668 C674 0.930 . S
H669 C677 0.930 . S
H670 C678 0.930 . S
H671 C679 0.930 . S
H672 C682 0.930 . S
H673 C683 0.930 . S
C674 H668 0.930 . S
C674 C675 1.355 . S
C674 C676 1.415 1_545 S
C675 C674 1.355 . S
C675 C677 1.419 . S
C676 C674 1.415 1_565 S
C676 C681 1.425 . S
C676 C683 1.409 . S
C677 H669 0.930 . S
C677 C675 1.419 . S
C677 C678 1.362 1_545 S
C678 H670 0.930 . S
C678 C677 1.362 1_565 S
C678 C681 1.409 . S
C679 H671 0.930 . S
C679 C680 1.355 . S
C679 C681 1.415 . S
C680 C679 1.355 . S
C680 C682 1.419 . S
C681 C676 1.425 . S
C681 C678 1.409 . S
C681 C679 1.415 . S
C682 H672 0.930 . S
C682 C680 1.419 . S
C682 C683 1.362 . S
C683 H673 0.930 . S
C683 C676 1.409 . S
C683 C682 1.362 . S
H684 C690 0.930 . S
H685 C693 0.930 . S
H686 C694 0.930 . S
H687 C695 0.930 . S
H688 C698 0.930 . S
H689 C699 0.930 . S
C690 H684 0.930 . S
C690 C691 1.355 . S
C690 C692 1.415 . S
C691 C690 1.355 . S
C691 C693 1.419 . S
C692 C690 1.415 . S
C692 C697 1.425 . S
C692 C699 1.409 . S
C693 H685 0.930 . S
C693 C691 1.419 . S
C693 C694 1.362 . S
C694 H686 0.930 . S
C694 C693 1.362 . S
C694 C697 1.409 . S
C695 H687 0.930 . S
C695 C696 1.355 . S
C695 C697 1.415 . S
C696 C695 1.355 . S
C696 C698 1.419 . S
C697 C692 1.425 . S
C697 C694 1.409 . S
C697 C695 1.415 . S
C698 H688 0.930 . S
C698 C696 1.419 . S
C698 C699 1.362 . S
C699 H689 0.930 . S
C699 C692 1.409 . S
C699 C698 1.362 . S
H700 C706 0.930 . S
H701 C709 0.930 . S
H702 C710 0.930 . S
H703 C711 0.930 . S
H704 C714 0.930 . S
H705 C715 0.930 . S
C706 H700 0.930 . S
C706 C707 1.355 . S
C706 C708 1.415 1_565 S
C707 C706 1.355 . S
C707 C709 1.419 . S
C708 C706 1.415 1_545 S
C708 C713 1.425 . S
C708 C715 1.409 . S
C709 H701 0.930 . S
C709 C707 1.419 . S
C709 C710 1.362 1_565 S
C710 H702 0.930 . S
C710 C709 1.362 1_545 S
C710 C713 1.409 . S
C711 H703 0.930 . S
C711 C712 1.355 . S
C711 C713 1.415 . S
C712 C711 1.355 . S
C712 C714 1.419 . S
C713 C708 1.425 . S
C713 C710 1.409 . S
C713 C711 1.415 . S
C714 H704 0.930 . S
C714 C712 1.419 . S
C714 C715 1.362 . S
C715 H705 0.930 . S
C715 C708 1.409 . S
C715 C714 1.362 . S
H716 C722 0.930 . S
H717 C725 0.930 . S
H718 C726 0.930 . S
H719 C727 0.930 . S
H720 C730 0.930 . S
H721 C731 0.930 . S
C722 H716 0.930 . S
C722 C723 1.355 . S
C722 C724 1.415 . S
C723 C722 1.355 . S
C723 C725 1.419 . S
C724 C722 1.415 . S
C724 C729 1.425 . S
C724 C731 1.409 . S
C725 H717 0.930 . S
C725 C723 1.419 . S
C725 C726 1.362 . S
C726 H718 0.930 . S
C726 C725 1.362 . S
C726 C729 1.409 . S
C727 H719 0.930 . S
C727 C728 1.355 . S
C727 C729 1.415 . S
C728 C727 1.355 . S
C728 C730 1.419 . S
C729 C724 1.425 . S
C729 C726 1.409 . S
C729 C727 1.415 . S
C730 H720 0.930 . S
C730 C728 1.419 . S
C730 C731 1.362 . S
C731 H721 0.930 . S
C731 C724 1.409 . S
C731 C730 1.362 . S
H732 C738 0.930 . S
H733 C741 0.930 . S
H734 C742 0.930 . S
H735 C743 0.930 . S
H736 C746 0.930 . S
H737 C747 0.930 . S
C738 H732 0.930 . S
C738 C739 1.355 . S
C738 C740 1.415 1_545 S
C739 C738 1.355 . S
C739 C741 1.419 . S
C740 C738 1.415 1_565 S
C740 C745 1.425 . S
C740 C747 1.409 . S
C741 H733 0.930 . S
C741 C739 1.419 . S
C741 C742 1.362 . S
C742 H734 0.930 . S
C742 C741 1.362 . S
C742 C745 1.409 1_545 S
C743 H735 0.930 . S
C743 C744 1.355 . S
C743 C745 1.415 . S
C744 C743 1.355 . S
C744 C746 1.419 . S
C745 C740 1.425 . S
C745 C742 1.409 1_565 S
C745 C743 1.415 . S
C746 H736 0.930 . S
C746 C744 1.419 . S
C746 C747 1.362 . S
C747 H737 0.930 . S
C747 C740 1.409 . S
C747 C746 1.362 . S
H748 C754 0.930 . S
H749 C757 0.930 . S
H750 C758 0.930 . S
H751 C759 0.930 . S
H752 C762 0.930 . S
H753 C763 0.930 . S
C754 H748 0.930 . S
C754 C755 1.355 . S
C754 C756 1.415 . S
C755 C754 1.355 . S
C755 C757 1.419 . S
C756 C754 1.415 . S
C756 C761 1.425 . S
C756 C763 1.409 . S
C757 H749 0.930 . S
C757 C755 1.419 . S
C757 C758 1.362 . S
C758 H750 0.930 . S
C758 C757 1.362 . S
C758 C761 1.409 . S
C759 H751 0.930 . S
C759 C760 1.355 . S
C759 C761 1.415 . S
C760 C759 1.355 . S
C760 C762 1.419 . S
C761 C756 1.425 . S
C761 C758 1.409 . S
C761 C759 1.415 . S
C762 H752 0.930 . S
C762 C760 1.419 . S
C762 C763 1.362 . S
C763 H753 0.930 . S
C763 C756 1.409 . S
C763 C762 1.362 . S
H764 C770 0.930 . S
H765 C773 0.930 . S
H766 C774 0.930 . S
H767 C775 0.930 . S
H768 C778 0.930 . S
H769 C779 0.930 . S
C770 H764 0.930 . S
C770 C771 1.355 . S
C770 C772 1.415 . S
C771 C770 1.355 . S
C771 C773 1.419 . S
C772 C770 1.415 . S
C772 C777 1.425 . S
C772 C779 1.409 . S
C773 H765 0.930 . S
C773 C771 1.419 . S
C773 C774 1.362 . S
C774 H766 0.930 . S
C774 C773 1.362 . S
C774 C777 1.409 . S
C775 H767 0.930 . S
C775 C776 1.355 . S
C775 C777 1.415 . S
C776 C775 1.355 . S
C776 C778 1.419 . S
C777 C772 1.425 . S
C777 C774 1.409 . S
C777 C775 1.415 . S
C778 H768 0.930 . S
C778 C776 1.419 . S
C778 C779 1.362 . S
C779 H769 0.930 . S
C779 C772 1.409 . S
C779 C778 1.362 . S
H780 C786 0.930 . S
H781 C789 0.930 . S
H782 C790 0.930 . S
H783 C791 0.930 . S
H784 C794 0.926 1_455 S
H785 C795 0.930 . S
C786 H780 0.930 . S
C786 C787 1.355 . S
C786 C788 1.415 . S
C787 C786 1.355 . S
C787 C789 1.419 . S
C788 C786 1.415 . S
C788 C793 1.425 . S
C788 C795 1.409 . S
C789 H781 0.930 . S
C789 C787 1.419 . S
C789 C790 1.362 . S
C790 H782 0.930 . S
C790 C789 1.362 . S
C790 C793 1.409 . S
C791 H783 0.930 . S
C791 C792 1.355 1_655 S
C791 C793 1.415 . S
C792 C791 1.355 1_455 S
C792 C794 1.418 1_455 S
C793 C788 1.425 . S
C793 C790 1.409 . S
C793 C791 1.415 . S
C794 H784 0.926 1_655 S
C794 C792 1.418 1_655 S
C794 C795 1.368 . S
C795 H785 0.930 . S
C795 C788 1.409 . S
C795 C794 1.368 . S
H796 C802 0.930 . S
H797 C805 0.930 . S
H798 C806 0.930 . S
H799 C807 0.930 . S
H800 C810 0.930 . S
H801 C811 0.930 . S
C802 H796 0.930 . S
C802 C803 1.355 . S
C802 C804 1.415 . S
C803 C802 1.355 . S
C803 C805 1.419 . S
C804 C802 1.415 . S
C804 C809 1.425 . S
C804 C811 1.409 1_655 S
C805 H797 0.930 . S
C805 C803 1.419 . S
C805 C806 1.362 . S
C806 H798 0.930 . S
C806 C805 1.362 . S
C806 C809 1.409 . S
C807 H799 0.930 . S
C807 C808 1.355 1_655 S
C807 C809 1.415 . S
C808 C807 1.355 1_455 S
C808 C810 1.419 . S
C809 C804 1.425 . S
C809 C806 1.409 . S
C809 C807 1.415 . S
C810 H800 0.930 . S
C810 C808 1.419 . S
C810 C811 1.362 . S
C811 H801 0.930 . S
C811 C804 1.409 1_455 S
C811 C810 1.362 . S
H812 C818 0.930 . S
H813 C821 0.930 . S
H814 C822 0.930 . S
H815 C823 0.930 . S
H816 C826 0.930 . S
H817 C827 0.930 . S
C818 H812 0.930 . S
C818 C819 1.355 . S
C818 C820 1.415 . S
C819 C818 1.355 . S
C819 C821 1.419 . S
C820 C818 1.415 . S
C820 C825 1.425 . S
C820 C827 1.409 . S
C821 H813 0.930 . S
C821 C819 1.419 . S
C821 C822 1.362 . S
C822 H814 0.930 . S
C822 C821 1.362 . S
C822 C825 1.409 . S
C823 H815 0.930 . S
C823 C824 1.355 . S
C823 C825 1.415 . S
C824 C823 1.355 . S
C824 C826 1.419 . S
C825 C820 1.425 . S
C825 C822 1.409 . S
C825 C823 1.415 . S
C826 H816 0.930 . S
C826 C824 1.419 . S
C826 C827 1.362 . S
C827 H817 0.930 . S
C827 C820 1.409 . S
C827 C826 1.362 . S
H828 C834 0.930 . S
H829 C837 0.930 . S
H830 C838 0.930 . S
H831 C839 0.930 1_455 S
H832 C842 0.930 . S
H833 C843 0.930 . S
C834 H828 0.930 . S
C834 C835 1.355 . S
C834 C836 1.415 . S
C835 C834 1.355 . S
C835 C837 1.419 . S
C836 C834 1.415 . S
C836 C841 1.425 . S
C836 C843 1.409 . S
C837 H829 0.930 . S
C837 C835 1.419 . S
C837 C838 1.362 . S
C838 H830 0.930 . S
C838 C837 1.362 . S
C838 C841 1.409 . S
C839 H831 0.930 1_655 S
C839 C840 1.355 1_655 S
C839 C841 1.415 . S
C840 C839 1.355 1_455 S
C840 C842 1.419 1_455 S
C841 C836 1.425 . S
C841 C838 1.409 . S
C841 C839 1.415 . S
C842 H832 0.930 . S
C842 C840 1.419 1_655 S
C842 C843 1.362 . S
C843 H833 0.930 . S
C843 C836 1.409 . S
C843 C842 1.362 . S
H844 C850 0.930 . S
H845 C853 0.930 . S
H846 C854 0.930 1_455 S
H847 C855 0.930 . S
H848 C858 0.930 . S
H849 C859 0.930 . S
C850 H844 0.930 . S
C850 C851 1.355 . S
C850 C852 1.415 . S
C851 C850 1.355 . S
C851 C853 1.419 . S
C852 C850 1.415 . S
C852 C857 1.425 . S
C852 C859 1.409 . S
C853 H845 0.930 . S
C853 C851 1.419 . S
C853 C854 1.362 . S
C854 H846 0.930 1_655 S
C854 C853 1.362 . S
C854 C857 1.409 . S
C855 H847 0.930 . S
C855 C856 1.355 . S
C855 C857 1.415 1_455 S
C856 C855 1.355 . S
C856 C858 1.419 1_455 S
C857 C852 1.425 . S
C857 C854 1.409 . S
C857 C855 1.415 1_655 S
C858 H848 0.930 . S
C858 C856 1.419 1_655 S
C858 C859 1.362 . S
C859 H849 0.930 . S
C859 C852 1.409 . S
C859 C858 1.362 . S
H860 C866 0.930 . S
H861 C869 0.930 . S
H862 C870 0.930 . S
H863 C871 0.930 . S
H864 C874 0.930 . S
H865 C875 0.930 . S
C866 H860 0.930 . S
C866 C867 1.355 . S
C866 C868 1.415 . S
C867 C866 1.355 . S
C867 C869 1.419 . S
C868 C866 1.415 . S
C868 C873 1.425 . S
C868 C875 1.409 . S
C869 H861 0.930 . S
C869 C867 1.419 . S
C869 C870 1.362 . S
C870 H862 0.930 . S
C870 C869 1.362 . S
C870 C873 1.409 . S
C871 H863 0.930 . S
C871 C872 1.355 . S
C871 C873 1.415 . S
C872 C871 1.355 . S
C872 C874 1.419 . S
C873 C868 1.425 . S
C873 C870 1.409 . S
C873 C871 1.415 . S
C874 H864 0.930 . S
C874 C872 1.419 . S
C874 C875 1.362 . S
C875 H865 0.930 . S
C875 C868 1.409 . S
C875 C874 1.362 . S
H876 C882 0.930 . S
H877 C885 0.930 . S
H878 C886 0.930 . S
H879 C887 0.930 . S
H880 C890 0.930 . S
H881 C891 0.930 . S
C882 H876 0.930 . S
C882 C883 1.355 . S
C882 C884 1.415 . S
C883 C882 1.355 . S
C883 C885 1.419 . S
C884 C882 1.415 . S
C884 C889 1.425 . S
C884 C891 1.409 . S
C885 H877 0.930 . S
C885 C883 1.419 . S
C885 C886 1.362 . S
C886 H878 0.930 . S
C886 C885 1.362 . S
C886 C889 1.409 . S
C887 H879 0.930 . S
C887 C888 1.355 . S
C887 C889 1.415 . S
C888 C887 1.355 . S
C888 C890 1.419 . S
C889 C884 1.425 . S
C889 C886 1.409 . S
C889 C887 1.415 . S
C890 H880 0.930 . S
C890 C888 1.419 . S
C890 C891 1.362 . S
C891 H881 0.930 . S
C891 C884 1.409 . S
C891 C890 1.362 . S
H892 C898 0.930 . S
H893 C901 0.930 . S
H894 C902 0.930 . S
H895 C903 0.930 . S
H896 C906 0.930 . S
H897 C907 0.930 . S
C898 H892 0.930 . S
C898 C899 1.355 . S
C898 C900 1.415 . S
C899 C898 1.355 . S
C899 C901 1.419 . S
C900 C898 1.415 . S
C900 C905 1.425 . S
C900 C907 1.409 . S
C901 H893 0.930 . S
C901 C899 1.419 . S
C901 C902 1.362 . S
C902 H894 0.930 . S
C902 C901 1.362 . S
C902 C905 1.409 . S
C903 H895 0.930 . S
C903 C904 1.355 . S
C903 C905 1.415 . S
C904 C903 1.355 . S
C904 C906 1.419 . S
C905 C900 1.425 . S
C905 C902 1.409 . S
C905 C903 1.415 . S
C906 H896 0.930 . S
C906 C904 1.419 . S
C906 C907 1.362 . S
C907 H897 0.930 . S
C907 C900 1.409 . S
C907 C906 1.362 . S
H908 C914 0.930 . S
H909 C917 0.930 . S
H910 C918 0.930 . S
H911 C919 0.930 . S
H912 C922 0.930 . S
H913 C923 0.930 . S
C914 H908 0.930 . S
C914 C915 1.355 . S
C914 C916 1.415 . S
C915 C914 1.355 . S
C915 C917 1.419 . S
C916 C914 1.415 . S
C916 C921 1.425 . S
C916 C923 1.409 . S
C917 H909 0.930 . S
C917 C915 1.419 . S
C917 C918 1.362 . S
C918 H910 0.930 . S
C918 C917 1.362 . S
C918 C921 1.409 . S
C919 H911 0.930 . S
C919 C920 1.355 . S
C919 C921 1.415 . S
C920 C919 1.355 . S
C920 C922 1.419 . S
C921 C916 1.425 . S
C921 C918 1.409 . S
C921 C919 1.415 . S
C922 H912 0.930 . S
C922 C920 1.419 . S
C922 C923 1.362 . S
C923 H913 0.930 . S
C923 C916 1.409 . S
C923 C922 1.362 . S
H924 C930 0.930 . S
H925 C933 0.930 . S
H926 C934 0.930 . S
H927 C935 0.930 . S
H928 C938 0.930 . S
H929 C939 0.930 . S
C930 H924 0.930 . S
C930 C931 1.355 . S
C930 C932 1.415 . S
C931 C930 1.355 . S
C931 C933 1.419 . S
C932 C930 1.415 . S
C932 C937 1.425 . S
C932 C939 1.409 . S
C933 H925 0.930 . S
C933 C931 1.419 . S
C933 C934 1.362 . S
C934 H926 0.930 . S
C934 C933 1.362 . S
C934 C937 1.409 . S
C935 H927 0.930 . S
C935 C936 1.355 . S
C935 C937 1.415 . S
C936 C935 1.355 . S
C936 C938 1.419 . S
C937 C932 1.425 . S
C937 C934 1.409 . S
C937 C935 1.415 . S
C938 H928 0.930 . S
C938 C936 1.419 . S
C938 C939 1.362 . S
C939 H929 0.930 . S
C939 C932 1.409 . S
C939 C938 1.362 . S
H940 C946 0.930 . S
H941 C949 0.930 . S
H942 C950 0.930 . S
H943 C951 0.930 . S
H944 C954 0.930 . S
H945 C955 0.930 . S
C946 H940 0.930 . S
C946 C947 1.355 . S
C946 C948 1.415 . S
C947 C946 1.355 . S
C947 C949 1.419 . S
C948 C946 1.415 . S
C948 C953 1.425 . S
C948 C955 1.409 . S
C949 H941 0.930 . S
C949 C947 1.419 . S
C949 C950 1.362 . S
C950 H942 0.930 . S
C950 C949 1.362 . S
C950 C953 1.409 . S
C951 H943 0.930 . S
C951 C952 1.355 . S
C951 C953 1.415 . S
C952 C951 1.355 . S
C952 C954 1.419 . S
C953 C948 1.425 . S
C953 C950 1.409 . S
C953 C951 1.415 . S
C954 H944 0.930 . S
C954 C952 1.419 . S
C954 C955 1.362 . S
C955 H945 0.930 . S
C955 C948 1.409 . S
C955 C954 1.362 . S
H956 C962 0.930 . S
H957 C965 0.930 . S
H958 C966 0.930 . S
H959 C967 0.930 . S
H960 C970 0.930 . S
H961 C971 0.930 . S
C962 H956 0.930 . S
C962 C963 1.355 . S
C962 C964 1.415 . S
C963 C962 1.355 . S
C963 C965 1.419 . S
C964 C962 1.415 . S
C964 C969 1.425 . S
C964 C971 1.409 . S
C965 H957 0.930 . S
C965 C963 1.419 . S
C965 C966 1.362 . S
C966 H958 0.930 . S
C966 C965 1.362 . S
C966 C969 1.409 . S
C967 H959 0.930 . S
C967 C968 1.355 . S
C967 C969 1.415 . S
C968 C967 1.355 . S
C968 C970 1.419 . S
C969 C964 1.425 . S
C969 C966 1.409 . S
C969 C967 1.415 . S
C970 H960 0.930 . S
C970 C968 1.419 . S
C970 C971 1.362 . S
C971 H961 0.930 . S
C971 C964 1.409 . S
C971 C970 1.362 . S
H972 C978 0.930 . S
H973 C981 0.930 . S
H974 C982 0.930 . S
H975 C983 0.930 . S
H976 C986 0.930 . S
H977 C987 0.930 . S
C978 H972 0.930 . S
C978 C979 1.355 . S
C978 C980 1.415 . S
C979 C978 1.355 . S
C979 C981 1.419 . S
C980 C978 1.415 . S
C980 C985 1.425 . S
C980 C987 1.409 . S
C981 H973 0.930 . S
C981 C979 1.419 . S
C981 C982 1.362 . S
C982 H974 0.930 . S
C982 C981 1.362 . S
C982 C985 1.409 . S
C983 H975 0.930 . S
C983 C984 1.355 . S
C983 C985 1.415 . S
C984 C983 1.355 . S
C984 C986 1.419 . S
C985 C980 1.425 . S
C985 C982 1.409 . S
C985 C983 1.415 . S
C986 H976 0.930 . S
C986 C984 1.419 . S
C986 C987 1.362 . S
C987 H977 0.930 . S
C987 C980 1.409 . S
C987 C986 1.362 . S
H988 C994 0.930 . S
H989 C997 0.930 . S
H990 C998 0.930 1_455 S
H991 C999 0.930 1_455 S
H992 C1002 0.930 . S
H993 C1003 0.930 . S
C994 H988 0.930 . S
C994 C995 1.355 . S
C994 C996 1.415 . S
C995 C994 1.355 . S
C995 C997 1.419 . S
C996 C994 1.415 . S
C996 C1001 1.425 . S
C996 C1003 1.409 . S
C997 H989 0.930 . S
C997 C995 1.419 . S
C997 C998 1.362 . S
C998 H990 0.930 1_655 S
C998 C997 1.362 . S
C998 C1001 1.409 . S
C999 H991 0.930 1_655 S
C999 C1000 1.355 . S
C999 C1001 1.415 . S
C1000 C999 1.355 . S
C1000 C1002 1.419 . S
C1001 C996 1.425 . S
C1001 C998 1.409 . S
C1001 C999 1.415 . S
C1002 H992 0.930 . S
C1002 C1000 1.419 . S
C1002 C1003 1.362 . S
C1003 H993 0.930 . S
C1003 C996 1.409 . S
C1003 C1002 1.362 . S
H1004 C1010 0.930 . S
H1005 C1013 0.930 . S
H1006 C1014 0.930 . S
H1007 C1015 0.930 . S
H1008 C1018 0.930 . S
H1009 C1019 0.930 . S
C1010 H1004 0.930 . S
C1010 C1011 1.355 . S
C1010 C1012 1.415 . S
C1011 C1010 1.355 . S
C1011 C1013 1.419 . S
C1012 C1010 1.415 . S
C1012 C1017 1.425 . S
C1012 C1019 1.409 . S
C1013 H1005 0.930 . S
C1013 C1011 1.419 . S
C1013 C1014 1.362 . S
C1014 H1006 0.930 . S
C1014 C1013 1.362 . S
C1014 C1017 1.409 . S
C1015 H1007 0.930 . S
C1015 C1016 1.355 . S
C1015 C1017 1.415 . S
C1016 C1015 1.355 . S
C1016 C1018 1.419 . S
C1017 C1012 1.425 . S
C1017 C1014 1.409 . S
C1017 C1015 1.415 . S
C1018 H1008 0.930 . S
C1018 C1016 1.419 . S
C1018 C1019 1.362 . S
C1019 H1009 0.930 . S
C1019 C1012 1.409 . S
C1019 C1018 1.362 . S
H1020 C1026 0.930 . S
H1021 C1029 0.930 . S
H1022 C1030 0.930 . S
H1023 C1031 0.930 . S
H1024 C1034 0.930 . S
H1025 C1035 0.930 . S
C1026 H1020 0.930 . S
C1026 C1027 1.355 . S
C1026 C1028 1.415 . S
C1027 C1026 1.355 . S
C1027 C1029 1.419 . S
C1028 C1026 1.415 . S
C1028 C1033 1.425 . S
C1028 C1035 1.409 . S
C1029 H1021 0.930 . S
C1029 C1027 1.419 . S
C1029 C1030 1.362 . S
C1030 H1022 0.930 . S
C1030 C1029 1.362 . S
C1030 C1033 1.409 . S
C1031 H1023 0.930 . S
C1031 C1032 1.355 . S
C1031 C1033 1.415 . S
C1032 C1031 1.355 . S
C1032 C1034 1.419 . S
C1033 C1028 1.425 . S
C1033 C1030 1.409 . S
C1033 C1031 1.415 . S
C1034 H1024 0.930 . S
C1034 C1032 1.419 . S
C1034 C1035 1.362 . S
C1035 H1025 0.930 . S
C1035 C1028 1.409 . S
C1035 C1034 1.362 . S
H1036 C1042 0.930 . S
H1037 C1045 0.930 . S
H1038 C1046 0.930 . S
H1039 C1047 0.930 . S
H1040 C1050 0.930 . S
H1041 C1051 0.930 . S
C1042 H1036 0.930 . S
C1042 C1043 1.355 . S
C1042 C1044 1.415 . S
C1043 C1042 1.355 . S
C1043 C1045 1.419 . S
C1044 C1042 1.415 . S
C1044 C1049 1.425 . S
C1044 C1051 1.409 . S
C1045 H1037 0.930 . S
C1045 C1043 1.419 . S
C1045 C1046 1.362 . S
C1046 H1038 0.930 . S
C1046 C1045 1.362 . S
C1046 C1049 1.409 . S
C1047 H1039 0.930 . S
C1047 C1048 1.355 . S
C1047 C1049 1.415 . S
C1048 C1047 1.355 . S
C1048 C1050 1.419 . S
C1049 C1044 1.425 . S
C1049 C1046 1.409 . S
C1049 C1047 1.415 . S
C1050 H1040 0.930 . S
C1050 C1048 1.419 . S
C1050 C1051 1.362 . S
C1051 H1041 0.930 . S
C1051 C1044 1.409 . S
C1051 C1050 1.362 . S
H1052 C1058 0.930 . S
H1053 C1061 0.930 . S
H1054 C1062 0.930 . S
H1055 C1063 0.930 . S
H1056 C1066 0.930 . S
H1057 C1067 0.930 . S
C1058 H1052 0.930 . S
C1058 C1059 1.355 . S
C1058 C1060 1.415 . S
C1059 C1058 1.355 . S
C1059 C1061 1.419 . S
C1060 C1058 1.415 . S
C1060 C1065 1.425 . S
C1060 C1067 1.409 . S
C1061 H1053 0.930 . S
C1061 C1059 1.419 . S
C1061 C1062 1.362 . S
C1062 H1054 0.930 . S
C1062 C1061 1.362 . S
C1062 C1065 1.409 . S
C1063 H1055 0.930 . S
C1063 C1064 1.355 . S
C1063 C1065 1.415 . S
C1064 C1063 1.355 . S
C1064 C1066 1.419 . S
C1065 C1060 1.425 . S
C1065 C1062 1.409 . S
C1065 C1063 1.415 . S
C1066 H1056 0.930 . S
C1066 C1064 1.419 . S
C1066 C1067 1.362 . S
C1067 H1057 0.930 . S
C1067 C1060 1.409 . S
C1067 C1066 1.362 . S
H1068 C1074 0.930 . S
H1069 C1077 0.930 . S
H1070 C1078 0.930 . S
H1071 C1079 0.930 . S
H1072 C1082 0.930 . S
H1073 C1083 0.930 . S
C1074 H1068 0.930 . S
C1074 C1075 1.355 . S
C1074 C1076 1.415 . S
C1075 C1074 1.355 . S
C1075 C1077 1.419 . S
C1076 C1074 1.415 . S
C1076 C1081 1.425 . S
C1076 C1083 1.409 . S
C1077 H1069 0.930 . S
C1077 C1075 1.419 . S
C1077 C1078 1.362 . S
C1078 H1070 0.930 . S
C1078 C1077 1.362 . S
C1078 C1081 1.409 . S
C1079 H1071 0.930 . S
C1079 C1080 1.355 . S
C1079 C1081 1.415 . S
C1080 C1079 1.355 . S
C1080 C1082 1.419 . S
C1081 C1076 1.425 . S
C1081 C1078 1.409 . S
C1081 C1079 1.415 . S
C1082 H1072 0.930 . S
C1082 C1080 1.419 . S
C1082 C1083 1.362 . S
C1083 H1073 0.930 . S
C1083 C1076 1.409 . S
C1083 C1082 1.362 . S
H1084 C1090 0.930 . S
H1085 C1093 0.930 . S
H1086 C1094 0.930 . S
H1087 C1095 0.930 . S
H1088 C1098 0.930 . S
H1089 C1099 0.930 . S
C1090 H1084 0.930 . S
C1090 C1091 1.355 . S
C1090 C1092 1.415 . S
C1091 C1090 1.355 . S
C1091 C1093 1.419 . S
C1092 C1090 1.415 . S
C1092 C1097 1.425 . S
C1092 C1099 1.409 . S
C1093 H1085 0.930 . S
C1093 C1091 1.419 . S
C1093 C1094 1.362 . S
C1094 H1086 0.930 . S
C1094 C1093 1.362 . S
C1094 C1097 1.409 . S
C1095 H1087 0.930 . S
C1095 C1096 1.355 . S
C1095 C1097 1.415 . S
C1096 C1095 1.355 . S
C1096 C1098 1.419 . S
C1097 C1092 1.425 . S
C1097 C1094 1.409 . S
C1097 C1095 1.415 . S
C1098 H1088 0.930 . S
C1098 C1096 1.419 . S
C1098 C1099 1.362 . S
C1099 H1089 0.930 . S
C1099 C1092 1.409 . S
C1099 C1098 1.362 . S
H1100 C1106 0.930 . S
H1101 C1109 0.930 . S
H1102 C1110 0.930 . S
H1103 C1111 0.930 . S
H1104 C1114 0.930 . S
H1105 C1115 0.930 . S
C1106 H1100 0.930 . S
C1106 C1107 1.355 . S
C1106 C1108 1.415 . S
C1107 C1106 1.355 . S
C1107 C1109 1.419 . S
C1108 C1106 1.415 . S
C1108 C1113 1.425 . S
C1108 C1115 1.409 . S
C1109 H1101 0.930 . S
C1109 C1107 1.419 . S
C1109 C1110 1.362 . S
C1110 H1102 0.930 . S
C1110 C1109 1.362 . S
C1110 C1113 1.409 . S
C1111 H1103 0.930 . S
C1111 C1112 1.355 . S
C1111 C1113 1.415 . S
C1112 C1111 1.355 . S
C1112 C1114 1.419 . S
C1113 C1108 1.425 . S
C1113 C1110 1.409 . S
C1113 C1111 1.415 . S
C1114 H1104 0.930 . S
C1114 C1112 1.419 . S
C1114 C1115 1.362 . S
C1115 H1105 0.930 . S
C1115 C1108 1.409 . S
C1115 C1114 1.362 . S
H1116 C1122 0.930 . S
H1117 C1125 0.930 . S
H1118 C1126 0.930 . S
H1119 C1127 0.930 . S
H1120 C1130 0.930 . S
H1121 C1131 0.930 . S
C1122 H1116 0.930 . S
C1122 C1123 1.355 . S
C1122 C1124 1.415 . S
C1123 C1122 1.355 . S
C1123 C1125 1.419 . S
C1124 C1122 1.415 . S
C1124 C1129 1.425 . S
C1124 C1131 1.409 . S
C1125 H1117 0.930 . S
C1125 C1123 1.419 . S
C1125 C1126 1.362 . S
C1126 H1118 0.930 . S
C1126 C1125 1.362 . S
C1126 C1129 1.409 . S
C1127 H1119 0.930 . S
C1127 C1128 1.355 . S
C1127 C1129 1.415 . S
C1128 C1127 1.355 . S
C1128 C1130 1.419 . S
C1129 C1124 1.425 . S
C1129 C1126 1.409 . S
C1129 C1127 1.415 . S
C1130 H1120 0.930 . S
C1130 C1128 1.419 . S
C1130 C1131 1.362 . S
C1131 H1121 0.930 . S
C1131 C1124 1.409 . S
C1131 C1130 1.362 . S
C632 C556 1.696 . S
C627 C53 1.731 . S
C643 C115 1.691 . S
C648 C559 1.691 . S
C659 C177 1.672 . S
C664 C590 1.663 . S
C680 C525 1.717 . S
C675 C239 1.748 . S
C696 C560 1.943 . S
C691 C47 1.907 . S
C712 C591 1.911 . S
C707 C109 1.834 . S
C728 C516 1.838 . S
C723 C171 1.759 . S
C744 C547 1.892 . S
C739 C233 1.800 . S
C755 C29 1.472 . S
C760 C577 1.442 . S
C771 C277 1.483 . S
C776 C546 1.423 . S
C787 C153 1.386 . S
C792 C506 1.360 . S
C808 C599 1.431 . S
C803 C339 1.407 . S
C824 C527 1.344 . S
C819 C35 1.416 . S
C835 C283 1.381 . S
C840 C526 1.356 . S
C851 C159 1.370 . S
C856 C619 1.340 . S
C872 C558 1.377 . S
C867 C345 1.393 . S
C883 C419 1.874 . S
C888 C618 1.907 . S
C899 C301 1.694 . S
C904 C497 1.691 . S
C915 C487 1.654 . S
C920 C528 1.649 . S
C931 C363 1.711 . S
C936 C587 1.696 . S
C952 C498 1.764 . S
C947 C425 1.802 . S
C963 C295 1.920 . S
C968 C529 1.963 . S
C979 C481 1.822 . S
C984 C578 1.869 . S
C1000 C609 1.882 . S
C995 C357 1.836 . S
C1011 C407 1.469 . S
C1016 C515 1.419 . S
C1027 C91 1.437 . S
C1032 C608 1.404 . S
C1043 C463 1.419 . S
C1048 C568 1.410 . S
C1064 C537 1.422 . S
C1059 C215 1.405 . S
C1080 C589 1.316 . S
C1075 C401 1.394 . S
C1096 C588 1.374 . S
C1091 C97 1.379 . S
C1112 C557 1.332 . S
C1107 C469 1.356 . S
C1128 C496 1.371 . S
C1123 C221 1.417 . S
