# Generated by pormake.
# Topology pyr, (3,6)-cn, num edge types: 1
# Building blocks:
#     Node 0, Type 0, BuildingBlock: MIDCAF_clean_linker_0, # of connection points: 3
#     Node 1, Type 0, BuildingBlock: MIDCAF_clean_linker_0, # of connection points: 3
#     Node 2, Type 0, BuildingBlock: MIDCAF_clean_linker_0, # of connection points: 3
#     Node 3, Type 0, BuildingBlock: MIDCAF_clean_linker_0, # of connection points: 3
#     Node 4, Type 0, BuildingBlock: MIDCAF_clean_linker_0, # of connection points: 3
#     Node 5, Type 0, BuildingBlock: MIDCAF_clean_linker_0, # of connection points: 3
#     Node 6, Type 0, BuildingBlock: MIDCAF_clean_linker_0, # of connection points: 3
#     Node 7, Type 0, BuildingBlock: MIDCAF_clean_linker_0, # of connection points: 3
#     Node 8, Type 1, BuildingBlock: VOLQOD_clean_sbu_1, # of connection points: 6
#     Node 9, Type 1, BuildingBlock: VOLQOD_clean_sbu_1, # of connection points: 6
#     Node 10, Type 1, BuildingBlock: VOLQOD_clean_sbu_1, # of connection points: 6
#     Node 11, Type 1, BuildingBlock: VOLQOD_clean_sbu_1, # of connection points: 6
#     Edge 12, Type (0, 1), BuildingBlock: EZIPEK_clean_linker_0, # of connection points: 2
#     Edge 13, Type (0, 1), BuildingBlock: EZIPEK_clean_linker_0, # of connection points: 2
#     Edge 14, Type (0, 1), BuildingBlock: EZIPEK_clean_linker_0, # of connection points: 2
#     Edge 15, Type (0, 1), BuildingBlock: EZIPEK_clean_linker_0, # of connection points: 2
#     Edge 16, Type (0, 1), BuildingBlock: EZIPEK_clean_linker_0, # of connection points: 2
#     Edge 17, Type (0, 1), BuildingBlock: EZIPEK_clean_linker_0, # of connection points: 2
#     Edge 18, Type (0, 1), BuildingBlock: EZIPEK_clean_linker_0, # of connection points: 2
#     Edge 19, Type (0, 1), BuildingBlock: EZIPEK_clean_linker_0, # of connection points: 2
#     Edge 20, Type (0, 1), BuildingBlock: EZIPEK_clean_linker_0, # of connection points: 2
#     Edge 21, Type (0, 1), BuildingBlock: EZIPEK_clean_linker_0, # of connection points: 2
#     Edge 22, Type (0, 1), BuildingBlock: EZIPEK_clean_linker_0, # of connection points: 2
#     Edge 23, Type (0, 1), BuildingBlock: EZIPEK_clean_linker_0, # of connection points: 2
#     Edge 24, Type (0, 1), BuildingBlock: EZIPEK_clean_linker_0, # of connection points: 2
#     Edge 25, Type (0, 1), BuildingBlock: EZIPEK_clean_linker_0, # of connection points: 2
#     Edge 26, Type (0, 1), BuildingBlock: EZIPEK_clean_linker_0, # of connection points: 2
#     Edge 27, Type (0, 1), BuildingBlock: EZIPEK_clean_linker_0, # of connection points: 2
#     Edge 28, Type (0, 1), BuildingBlock: EZIPEK_clean_linker_0, # of connection points: 2
#     Edge 29, Type (0, 1), BuildingBlock: EZIPEK_clean_linker_0, # of connection points: 2
#     Edge 30, Type (0, 1), BuildingBlock: EZIPEK_clean_linker_0, # of connection points: 2
#     Edge 31, Type (0, 1), BuildingBlock: EZIPEK_clean_linker_0, # of connection points: 2
#     Edge 32, Type (0, 1), BuildingBlock: EZIPEK_clean_linker_0, # of connection points: 2
#     Edge 33, Type (0, 1), BuildingBlock: EZIPEK_clean_linker_0, # of connection points: 2
#     Edge 34, Type (0, 1), BuildingBlock: EZIPEK_clean_linker_0, # of connection points: 2
#     Edge 35, Type (0, 1), BuildingBlock: EZIPEK_clean_linker_0, # of connection points: 2
# Relax obj value: 0.035
# Max RMSD: 0.119
# Mean RMSD: 0.043
data_MOF--net-pry--node1-VOLQOD_clean_sbu_1--node2-MIDCAF_clean_linker_0--edge1-EZIPEK_clean_linker_0
_symmetry_space_group_name_H-M    P1
_symmetry_Int_Tables_number       1
_symmetry_cell_setting            triclinic
loop_
_symmetry_equiv_pos_as_xyz
'x, y, z'
_cell_length_a     35.541427
_cell_length_b     35.605514
_cell_length_c     35.689301
_cell_angle_alpha  89.975749
_cell_angle_beta   90.133433
_cell_angle_gamma 90.130577
loop_
_atom_site_label
_atom_site_type_symbol
_atom_site_fract_x
_atom_site_fract_y
_atom_site_fract_z
_atom_type_partial_charge
C0 C 0.05137 0.09626 0.24081 0.0
C1 C 0.07463 0.07277 0.26227 0.0
C2 C 0.10896 0.06058 0.24739 0.0
C3 C 0.12026 0.07226 0.2118 0.0
H4 H 0.19079 0.04419 0.12295 0.0
H5 H 0.25125 0.02128 0.09968 0.0
H6 H 0.26097 0.11827 0.0281 0.0
H7 H 0.20047 0.14146 0.05075 0.0
H8 H 0.14236 0.20497 0.05576 0.0
H9 H 0.11979 0.26621 0.03479 0.0
H10 H 0.02018 0.25324 0.1022 0.0
H11 H 0.04267 0.19192 0.12401 0.0
H12 H 0.04469 0.1271 0.18972 0.0
H13 H 0.0247 0.10582 0.25189 0.0
H14 H 0.12725 0.04245 0.26361 0.0
H15 H 0.14725 0.06285 0.20143 0.0
N16 N 0.1417 0.09585 0.13749 0.0
N17 N 0.14027 0.14195 0.09072 0.0
N18 N 0.09539 0.14266 0.13876 0.0
C19 C 0.15623 0.11072 0.1056 0.0
C20 C 0.10976 0.158 0.10695 0.0
C21 C 0.11127 0.11157 0.15422 0.0
C22 C 0.19086 0.09485 0.08896 0.0
C23 C 0.20548 0.06048 0.10191 0.0
C24 C 0.23989 0.04722 0.08858 0.0
C25 C 0.26029 0.06818 0.06228 0.0
C26 C 0.24536 0.10176 0.04831 0.0
C27 C 0.21082 0.11492 0.06138 0.0
C28 C 0.09441 0.19356 0.09178 0.0
C29 C 0.11544 0.2148 0.06591 0.0
C30 C 0.10267 0.24983 0.05387 0.0
C31 C 0.06848 0.26404 0.06705 0.0
C32 C 0.04667 0.24252 0.09179 0.0
C33 C 0.05964 0.20761 0.10425 0.0
C34 C 0.09764 0.09679 0.19058 0.0
C35 C 0.06287 0.10838 0.20536 0.0
C36 C 0.2693 0.94792 0.61909 0.0
C37 C 0.25824 0.94333 0.58161 0.0
C38 C 0.28322 0.92685 0.55609 0.0
C39 C 0.31826 0.91386 0.56818 0.0
H40 H 0.3797 0.81397 0.55906 0.0
H41 H 0.40095 0.75358 0.53459 0.0
H42 H 0.50188 0.76143 0.60125 0.0
H43 H 0.48087 0.82179 0.62643 0.0
H44 H 0.48282 0.88148 0.69403 0.0
H45 H 0.50835 0.9004 0.75502 0.0
H46 H 0.4081 0.96442 0.77705 0.0
H47 H 0.38233 0.94616 0.71618 0.0
H48 H 0.31219 0.93892 0.6603 0.0
H49 H 0.25033 0.96056 0.63916 0.0
H50 H 0.27515 0.92322 0.52702 0.0
H51 H 0.33667 0.90052 0.54806 0.0
N52 N 0.38126 0.87289 0.60053 0.0
N53 N 0.42949 0.87008 0.64535 0.0
N54 N 0.38147 0.91474 0.65121 0.0
C55 C 0.41334 0.85672 0.61345 0.0
C56 C 0.4138 0.89916 0.66433 0.0
C57 C 0.36526 0.90198 0.61915 0.0
C58 C 0.42842 0.82265 0.59503 0.0
C59 C 0.40672 0.80328 0.56818 0.0
C60 C 0.41874 0.76876 0.55411 0.0
C61 C 0.45283 0.75326 0.56626 0.0
C62 C 0.4755 0.77318 0.59159 0.0
C63 C 0.46334 0.80757 0.606 0.0
C64 C 0.43042 0.91217 0.7002 0.0
C65 C 0.46624 0.89978 0.71168 0.0
C66 C 0.48096 0.91058 0.74643 0.0
C67 C 0.45996 0.93362 0.77032 0.0
C68 C 0.42459 0.94658 0.75882 0.0
C69 C 0.40999 0.93612 0.724 0.0
C70 C 0.32921 0.91784 0.60587 0.0
C71 C 0.30464 0.9356 0.63107 0.0
C72 C 0.58915 0.27361 0.97199 0.0
C73 C 0.55788 0.25663 0.95507 0.0
C74 C 0.5382 0.27573 0.92684 0.0
C75 C 0.55056 0.31101 0.91469 0.0
H76 H 0.53293 0.39297 0.83275 0.0
H77 H 0.51275 0.4141 0.77052 0.0
H78 H 0.61165 0.48373 0.76193 0.0
H79 H 0.632 0.46339 0.82404 0.0
H80 H 0.68225 0.47505 0.89771 0.0
H81 H 0.74487 0.49546 0.91798 0.0
H82 H 0.75552 0.39623 0.9863 0.0
H83 H 0.69287 0.37554 0.96665 0.0
H84 H 0.62624 0.32078 0.97313 0.0
H85 H 0.60462 0.25909 0.9938 0.0
H86 H 0.51401 0.26283 0.9135 0.0
H87 H 0.5354 0.32468 0.89215 0.0
N88 N 0.58294 0.37954 0.88457 0.0
N89 N 0.63065 0.42513 0.88463 0.0
N90 N 0.6301 0.37822 0.93058 0.0
C91 C 0.59892 0.41058 0.86903 0.0
C92 C 0.64633 0.40924 0.91548 0.0
C93 C 0.59831 0.36327 0.91549 0.0
C94 C 0.58427 0.42622 0.83336 0.0
C95 C 0.55017 0.41318 0.81791 0.0
C96 C 0.5385 0.42526 0.78245 0.0
C97 C 0.56086 0.45029 0.76185 0.0
C98 C 0.59411 0.46441 0.7776 0.0
C99 C 0.60563 0.45268 0.81312 0.0
C100 C 0.68257 0.42352 0.93037 0.0
C101 C 0.69766 0.4577 0.91736 0.0
C102 C 0.73335 0.46949 0.92893 0.0
C103 C 0.75456 0.44721 0.95344 0.0
C104 C 0.73934 0.41369 0.96735 0.0
C105 C 0.70353 0.40201 0.95609 0.0
C106 C 0.58277 0.3277 0.93068 0.0
C107 C 0.60143 0.30887 0.96003 0.0
C108 C 0.78105 0.59852 0.47143 0.0
C109 C 0.76448 0.56565 0.45747 0.0
C110 C 0.78453 0.54289 0.43253 0.0
C111 C 0.82033 0.55367 0.42049 0.0
H112 H 0.88295 0.54803 0.32443 0.0
H113 H 0.90125 0.52886 0.2613 0.0
H114 H 0.00148 0.5967 0.26923 0.0
H115 H 0.98349 0.61649 0.33234 0.0
H116 H 0.9729 0.69207 0.38223 0.0
H117 H 0.99302 0.75459 0.40245 0.0
H118 H 0.92731 0.74328 0.50318 0.0
H119 H 0.9066 0.68087 0.48323 0.0
H120 H 0.82864 0.63523 0.47026 0.0
H121 H 0.76579 0.61634 0.49071 0.0
H122 H 0.77196 0.51741 0.42154 0.0
H123 H 0.83477 0.53605 0.40042 0.0
N124 N 0.88703 0.58503 0.38618 0.0
N125 N 0.93529 0.62998 0.38493 0.0
N126 N 0.89012 0.63143 0.43261 0.0
C127 C 0.91836 0.59931 0.36969 0.0
C128 C 0.92147 0.64608 0.41651 0.0
C129 C 0.87281 0.60083 0.41774 0.0
C130 C 0.93159 0.58411 0.33341 0.0
C131 C 0.90919 0.55853 0.3131 0.0
C132 C 0.91952 0.54751 0.27702 0.0
C133 C 0.95256 0.56152 0.26085 0.0
C134 C 0.97588 0.58567 0.28148 0.0
C135 C 0.96545 0.59697 0.31746 0.0
C136 C 0.93777 0.68157 0.43092 0.0
C137 C 0.96314 0.70253 0.40899 0.0
C138 C 0.9747 0.73826 0.42043 0.0
C139 C 0.96141 0.75342 0.45411 0.0
C140 C 0.93772 0.73191 0.47703 0.0
C141 C 0.92588 0.69633 0.4655 0.0
C142 C 0.83671 0.58729 0.43344 0.0
C143 C 0.81698 0.60917 0.4597 0.0
C144 C 0.7829 0.99366 0.94909 0.0
C145 C 0.76984 0.97967 0.98393 0.0
C146 C 0.78689 0.9462 0.99702 0.0
C147 C 0.81732 0.92996 0.97849 0.0
H148 H 0.89555 0.84432 0.98775 0.0
H149 H 0.91721 0.78248 0.00865 0.0
H150 H 0.96645 0.76267 0.90022 0.0
H151 H 0.94554 0.8244 0.87909 0.0
H152 H 0.93931 0.88327 0.81716 0.0
H153 H 0.95712 0.90478 0.75475 0.0
H154 H 0.90615 0.01229 0.7763 0.0
H155 H 0.88754 0.99096 0.83901 0.0
H156 H 0.82215 0.98932 0.90402 0.0
H157 H 0.76902 0.01623 0.9345 0.0
H158 H 0.77624 0.93076 0.0207 0.0
H159 H 0.82924 0.90444 0.98995 0.0
N160 N 0.87702 0.89427 0.93767 0.0
N161 N 0.91484 0.88934 0.88432 0.0
N162 N 0.87357 0.94018 0.89061 0.0
C163 C 0.90362 0.87553 0.91791 0.0
C164 C 0.90017 0.92169 0.87053 0.0
C165 C 0.8618 0.92659 0.92425 0.0
C166 C 0.9186 0.83928 0.93165 0.0
C167 C 0.91122 0.82696 0.9684 0.0
C168 C 0.9236 0.79173 0.98045 0.0
C169 C 0.94316 0.76813 0.95584 0.0
C170 C 0.95133 0.78059 0.91952 0.0
C171 C 0.93934 0.8159 0.90756 0.0
C172 C 0.9119 0.93539 0.83314 0.0
C173 C 0.93192 0.91158 0.80887 0.0
C174 C 0.94209 0.92371 0.77314 0.0
C175 C 0.93281 0.95996 0.76113 0.0
C176 C 0.91341 0.98416 0.78528 0.0
C177 C 0.90279 0.97188 0.82098 0.0
C178 C 0.83106 0.9454 0.94507 0.0
C179 C 0.81334 0.97737 0.93052 0.0
C180 C 0.57316 0.02435 0.29231 0.0
C181 C 0.53984 0.03956 0.27662 0.0
C182 C 0.5268 0.07357 0.29252 0.0
C183 C 0.54344 0.08895 0.3245 0.0
H184 H 0.54364 0.18514 0.38869 0.0
H185 H 0.52673 0.24811 0.41077 0.0
H186 H 0.60292 0.23609 0.50408 0.0
H187 H 0.62017 0.17348 0.48251 0.0
H188 H 0.69147 0.12434 0.46787 0.0
H189 H 0.75501 0.10493 0.4848 0.0
H190 H 0.74486 0.00795 0.41331 0.0
H191 H 0.68106 0.02718 0.39558 0.0
H192 H 0.61509 0.02674 0.33521 0.0
H193 H 0.58801 0.00133 0.27955 0.0
H194 H 0.50471 0.08998 0.27997 0.0
H195 H 0.53205 0.11485 0.33559 0.0
N196 N 0.57951 0.12135 0.38927 0.0
N197 N 0.62957 0.12321 0.43196 0.0
N198 N 0.62607 0.07473 0.38781 0.0
C199 C 0.59726 0.13827 0.41847 0.0
C200 C 0.6442 0.09149 0.4169 0.0
C201 C 0.59362 0.08942 0.37391 0.0
C202 C 0.58354 0.17438 0.43365 0.0
C203 C 0.55641 0.19564 0.41421 0.0
C204 C 0.54672 0.23157 0.42668 0.0
C205 C 0.56377 0.24646 0.45886 0.0
C206 C 0.58959 0.22484 0.47914 0.0
C207 C 0.59944 0.18913 0.46666 0.0
C208 C 0.68116 0.07749 0.43005 0.0
C209 C 0.70239 0.09864 0.45591 0.0
C210 C 0.73874 0.08767 0.46569 0.0
C211 C 0.7544 0.05523 0.45011 0.0
C212 C 0.733 0.03313 0.42549 0.0
C213 C 0.69664 0.04423 0.41541 0.0
C214 C 0.57497 0.07207 0.34098 0.0
C215 C 0.58984 0.03977 0.32426 0.0
C216 C 0.28257 0.54196 0.08581 0.0
C217 C 0.26129 0.56738 0.06452 0.0
C218 C 0.27658 0.60253 0.05545 0.0
C219 C 0.31237 0.61255 0.06826 0.0
H220 H 0.38958 0.69585 0.06301 0.0
H221 H 0.41654 0.75619 0.04485 0.0
H222 H 0.51809 0.73028 0.10573 0.0
H223 H 0.49116 0.66975 0.12477 0.0
H224 H 0.48443 0.60566 0.18883 0.0
H225 H 0.5073 0.57669 0.24482 0.0
H226 H 0.40648 0.5084 0.24953 0.0
H227 H 0.38438 0.53719 0.19352 0.0
H228 H 0.33367 0.53222 0.11606 0.0
H229 H 0.27113 0.51466 0.09299 0.0
H230 H 0.26045 0.62249 0.0391 0.0
H231 H 0.32309 0.6402 0.06139 0.0
N232 N 0.38754 0.63074 0.09366 0.0
N233 N 0.43542 0.62351 0.13836 0.0
N234 N 0.38528 0.58059 0.13608 0.0
C235 C 0.42037 0.6428 0.10909 0.0
C236 C 0.41798 0.59238 0.15209 0.0
C237 C 0.36996 0.59955 0.10678 0.0
C238 C 0.43808 0.67802 0.09566 0.0
C239 C 0.41779 0.70266 0.07236 0.0
C240 C 0.43311 0.7372 0.06191 0.0
C241 C 0.4691 0.74765 0.07419 0.0
C242 C 0.49015 0.72263 0.09618 0.0
C243 C 0.47466 0.68817 0.10707 0.0
C244 C 0.43328 0.57267 0.18543 0.0
C245 C 0.468 0.5831 0.20097 0.0
C246 C 0.48175 0.56525 0.23307 0.0
C247 C 0.46217 0.53504 0.25014 0.0
C248 C 0.42584 0.52709 0.23573 0.0
C249 C 0.41218 0.54476 0.20351 0.0
C250 C 0.33332 0.58772 0.09078 0.0
C251 C 0.3182 0.55211 0.09903 0.0
C252 C 0.0868 0.2807 0.55234 0.0
C253 C 0.06203 0.26085 0.57552 0.0
C254 C 0.04883 0.27746 0.60855 0.0
C255 C 0.06114 0.31332 0.61884 0.0
H256 H 0.04109 0.40257 0.69132 0.0
H257 H 0.01863 0.43095 0.7477 0.0
H258 H 0.11558 0.50472 0.74847 0.0
H259 H 0.13722 0.4766 0.69201 0.0
H260 H 0.18251 0.48557 0.61088 0.0
H261 H 0.24369 0.5058 0.58662 0.0
H262 H 0.25761 0.39859 0.53239 0.0
H263 H 0.19635 0.37827 0.55576 0.0
H264 H 0.11907 0.33074 0.54453 0.0
H265 H 0.0972 0.26812 0.52675 0.0
H266 H 0.0297 0.26231 0.62671 0.0
H267 H 0.05115 0.32513 0.64493 0.0
N268 N 0.08882 0.38734 0.63919 0.0
N269 N 0.13527 0.43392 0.63376 0.0
N270 N 0.13354 0.3839 0.59119 0.0
C271 C 0.10476 0.41971 0.65182 0.0
C272 C 0.14977 0.41619 0.60337 0.0
C273 C 0.10299 0.36934 0.60878 0.0
C274 C 0.09006 0.43845 0.68586 0.0
C275 C 0.05668 0.42614 0.70271 0.0
C276 C 0.0431 0.44358 0.735 0.0
C277 C 0.06142 0.47518 0.75095 0.0
C278 C 0.09682 0.48486 0.73548 0.0
C279 C 0.11028 0.46761 0.70302 0.0
C280 C 0.18469 0.43016 0.58559 0.0
C281 C 0.19832 0.46646 0.59337 0.0
C282 C 0.23315 0.47814 0.57944 0.0
C283 C 0.2551 0.45353 0.55799 0.0
C284 C 0.24097 0.41791 0.54891 0.0
C285 C 0.20596 0.40639 0.56236 0.0
C286 C 0.08709 0.33292 0.59635 0.0
C287 C 0.0993 0.31642 0.56266 0.0
O288 O 0.99491 0.09346 0.54423 0.0
Zn289 Zn 0.97425 0.04105 0.53966 0.0
O290 O 0.00891 0.00862 0.51201 0.0
Zn291 Zn 0.98369 0.98954 0.46716 0.0
Zn292 Zn 0.05349 0.03708 0.49691 0.0
Zn293 Zn 0.02417 0.96675 0.54406 0.0
O294 O 0.98409 0.9332 0.46623 0.0
O295 O 0.00855 0.91724 0.52146 0.0
O296 O 0.92338 0.0429 0.51509 0.0
O297 O 0.92959 0.00532 0.46569 0.0
O298 O 0.00748 0.00927 0.42001 0.0
O299 O 0.05668 0.0419 0.44077 0.0
O300 O 0.10117 0.01283 0.51554 0.0
O301 O 0.96579 0.02201 0.59195 0.0
O302 O 0.08029 0.96579 0.55089 0.0
O303 O 0.00089 0.97044 0.59524 0.0
C304 C 0.02636 0.10794 0.53513 0.0
C305 C 0.99379 0.90846 0.49011 0.0
C306 C 0.03629 0.02968 0.41403 0.0
C307 C 0.90988 0.02669 0.48628 0.0
C308 C 0.10715 0.98526 0.53747 0.0
C309 C 0.97829 0.99383 0.60991 0.0
O310 O 0.05158 0.08937 0.51799 0.0
O311 O 0.50363 0.08341 0.97653 0.0
Zn312 Zn 0.48331 0.03111 0.98258 0.0
O313 O 0.51271 0.00305 0.01923 0.0
Zn314 Zn 0.54193 0.96389 0.99429 0.0
Zn315 Zn 0.54584 0.03772 0.04607 0.0
Zn316 Zn 0.47859 0.9793 0.05436 0.0
O317 O 0.53188 0.91284 0.01723 0.0
O318 O 0.48016 0.92332 0.05059 0.0
O319 O 0.48408 0.00534 0.93261 0.0
O320 O 0.52637 0.95978 0.93994 0.0
O321 O 0.59761 0.97508 0.99782 0.0
O322 O 0.59976 0.02448 0.03614 0.0
O323 O 0.53746 0.03559 0.10211 0.0
O324 O 0.42943 0.03643 0.99919 0.0
O325 O 0.49308 0.99166 0.10692 0.0
O326 O 0.42593 0.99809 0.04829 0.0
C327 C 0.52416 0.10371 0.99766 0.0
C328 C 0.50449 0.90103 0.03699 0.0
C329 C 0.61596 -0.00019 0.01612 0.0
C330 C 0.50279 0.97774 0.91988 0.0
C331 C 0.51593 0.0148 0.12169 0.0
C332 C 0.41089 0.02111 0.02556 0.0
O333 O 0.53994 0.09072 0.02698 0.0
O334 O 0.54358 0.51448 0.59203 0.0
Zn335 Zn 0.54096 0.53464 0.53929 0.0
O336 O 0.51122 0.50199 0.50644 0.0
Zn337 Zn 0.54353 0.48022 0.46827 0.0
Zn338 Zn 0.48982 0.46125 0.53603 0.0
Zn339 Zn 0.47091 0.53074 0.48224 0.0
O340 O 0.52279 0.48922 0.41682 0.0
O341 O 0.47381 0.52708 0.42562 0.0
O342 O 0.59394 0.5404 0.52014 0.0
O343 O 0.5949 0.50345 0.46983 0.0
O344 O 0.54985 0.42461 0.47574 0.0
O345 O 0.50896 0.41091 0.51993 0.0
O346 O 0.43363 0.46204 0.53428 0.0
O347 O 0.51793 0.58595 0.54173 0.0
O348 O 0.42002 0.51152 0.49865 0.0
O349 O 0.47286 0.58508 0.49821 0.0
C350 C 0.52705 0.48699 0.6078 0.0
C351 C 0.49578 0.50888 0.4041 0.0
C352 C 0.53476 0.40072 0.49763 0.0
C353 C 0.61091 0.52635 0.49211 0.0
C354 C 0.40986 0.48394 0.51901 0.0
C355 C 0.49213 0.60218 0.52305 0.0
O356 O 0.50518 0.46514 0.58988 0.0
O357 O 0.97255 0.50162 0.08999 0.0
Zn358 Zn 0.97651 0.48166 0.03748 0.0
O359 O 0.00683 0.51471 0.00561 0.0
Zn360 Zn 0.97558 0.53438 0.96525 0.0
Zn361 Zn 0.02569 0.55678 0.03551 0.0
Zn362 Zn 0.04901 0.48648 0.98411 0.0
O363 O 0.99756 0.52244 0.9152 0.0
O364 O 0.04833 0.48799 0.92729 0.0
O365 O 0.92398 0.47561 0.0171 0.0
O366 O 0.92381 0.51204 0.9664 0.0
O367 O 0.9705 0.59035 0.96836 0.0
O368 O 0.00754 0.60656 0.01598 0.0
O369 O 0.08206 0.55694 0.03689 0.0
O370 O -0.00034 0.43048 0.04103 0.0
O371 O 0.09853 0.50774 0.00219 0.0
O372 O 0.04785 0.43248 0.00128 0.0
C373 C 0.98678 0.53022 0.10602 0.0
C374 C 0.02593 0.50377 0.90426 0.0
C375 C 0.98519 0.61519 0.98946 0.0
C376 C 0.90742 0.48944 0.98864 0.0
C377 C 0.10706 0.53568 0.02283 0.0
C378 C 0.02719 0.4149 0.02453 0.0
O379 O 0.00766 0.55341 0.08864 0.0
C380 C 0.06281 0.08931 0.32967 0.0
C381 C 0.06376 0.0618 0.30094 0.0
C382 C 0.05033 0.01263 0.34711 0.0
C383 C 0.04555 0.04061 0.37504 0.0
N384 N 0.03862 0.10631 0.3906 0.0
N385 N 0.05114 0.99834 0.28077 0.0
C386 C 0.04938 0.07921 0.36571 0.0
C387 C 0.05534 0.02372 0.3092 0.0
N388 N 0.07599 0.12479 0.32302 0.0
N389 N 0.05181 0.97555 0.35694 0.0
H390 H 0.05417 0.00553 0.2526 0.0
H391 H 0.04119 0.97111 0.28489 0.0
H392 H 0.04943 0.96625 0.38455 0.0
H393 H 0.0591 0.95432 0.33826 0.0
H394 H 0.07966 0.1447 0.34411 0.0
H395 H 0.08666 0.13328 0.29716 0.0
H396 H 0.03724 0.13471 0.3837 0.0
H397 H 0.02728 0.10022 0.41684 0.0
C398 C 0.49384 0.97762 0.81385 0.0
C399 C 0.47422 0.94332 0.80816 0.0
C400 C 0.47409 0.93122 0.87576 0.0
C401 C 0.49494 0.96481 0.88134 0.0
N402 N 0.53023 0.01685 0.85628 0.0
N403 N 0.45109 0.88429 0.83208 0.0
C404 C 0.50646 0.98714 0.8505 0.0
C405 C 0.46617 0.91905 0.83866 0.0
N406 N 0.49956 0.00143 0.78432 0.0
N407 N 0.46015 0.91205 0.90595 0.0
H408 H 0.44367 0.87488 0.80539 0.0
H409 H 0.44853 0.86364 0.85257 0.0
H410 H 0.46518 0.92013 0.9336 0.0
H411 H 0.4412 0.88982 0.90379 0.0
H412 H 0.50967 0.02873 0.78716 0.0
H413 H 0.49209 0.99464 0.75685 0.0
H414 H 0.54279 0.03207 0.83476 0.0
H415 H 0.53988 0.02457 0.88283 0.0
C416 C 0.53119 0.49302 0.7142 0.0
C417 C 0.55118 0.45957 0.7225 0.0
C418 C 0.5579 0.4461 0.65552 0.0
C419 C 0.53571 0.47815 0.64729 0.0
N420 N 0.49708 0.52966 0.66784 0.0
N421 N 0.57977 0.40167 0.70214 0.0
C422 C 0.52129 0.50107 0.67637 0.0
C423 C 0.56336 0.4353 0.69344 0.0
N424 N 0.52224 0.51731 0.74246 0.0
N425 N 0.57503 0.42692 0.62706 0.0
H426 H 0.58581 0.39337 0.72953 0.0
H427 H 0.58508 0.38073 0.68253 0.0
H428 H 0.57175 0.43396 0.59886 0.0
H429 H 0.59493 0.40594 0.6313 0.0
H430 H 0.51151 0.54412 0.73802 0.0
H431 H 0.52772 0.51155 0.77062 0.0
H432 H 0.48233 0.54492 0.68783 0.0
H433 H 0.48958 0.53652 0.6404 0.0
C434 C 0.98289 0.52094 0.21208 0.0
C435 C 0.9613 0.5531 0.2212 0.0
C436 C 0.95362 0.56802 0.15459 0.0
C437 C 0.97766 0.53761 0.14562 0.0
N438 N 0.01917 0.48777 0.16503 0.0
N439 N 0.92961 0.60995 0.20233 0.0
C440 C 0.99331 0.51464 0.17415 0.0
C441 C 0.94767 0.57745 0.19276 0.0
N442 N 0.99288 0.49619 0.23965 0.0
N443 N 0.93533 0.58693 0.12658 0.0
H444 H 0.92343 0.61722 0.22994 0.0
H445 H 0.92301 0.63104 0.18322 0.0
H446 H 0.93899 0.58085 0.09823 0.0
H447 H 0.91423 0.60657 0.13133 0.0
H448 H 0.00498 0.47012 0.23445 0.0
H449 H 0.98672 0.50059 0.26788 0.0
H450 H 0.03471 0.4728 0.18474 0.0
H451 H 0.02725 0.48222 0.1375 0.0
C452 C 0.32958 0.06901 0.07419 0.0
C453 C 0.29887 0.05665 0.05188 0.0
C454 C 0.34161 0.02033 0.01209 0.0
C455 C 0.37238 0.03416 0.03338 0.0
N456 N 0.39715 0.07641 0.08019 0.0
N457 N 0.27504 0.02487 0.99713 0.0
C458 C 0.36678 0.05985 0.0632 0.0
C459 C 0.30471 0.03358 0.02001 0.0
N460 N 0.32309 0.08884 0.10637 0.0
N461 N 0.34764 0.9937 0.98518 0.0
H462 H 0.24751 0.03322 0.00279 0.0
H463 H 0.27784 0.01152 0.97136 0.0
H464 H 0.37444 0.98407 0.97823 0.0
H465 H 0.32617 0.97939 0.97134 0.0
H466 H 0.34378 0.09465 0.12624 0.0
H467 H 0.29635 0.09744 0.11469 0.0
H468 H 0.39506 0.0984 0.09928 0.0
H469 H 0.42491 0.07036 0.07298 0.0
C470 C 0.19382 0.9265 0.55776 0.0
C471 C 0.21986 0.95446 0.56941 0.0
C472 C 0.17102 0.0025 0.56294 0.0
C473 C 0.14634 0.97515 0.54745 0.0
N474 N 0.13774 0.91294 0.52177 0.0
N475 N 0.23563 0.02012 0.57573 0.0
C476 C 0.15873 0.93762 0.54245 0.0
C477 C 0.20918 0.99283 0.5698 0.0
N478 N 0.20192 0.8893 0.5626 0.0
N479 N 0.15774 0.0371 0.57286 0.0
H480 H 0.264 0.01416 0.5803 0.0
H481 H 0.23008 0.04867 0.57253 0.0
H482 H 0.12969 0.045 0.56958 0.0
H483 H 0.17368 0.05662 0.58779 0.0
H484 H 0.18227 0.86799 0.55812 0.0
H485 H 0.22694 0.87985 0.57462 0.0
H486 H 0.14725 0.88633 0.51427 0.0
H487 H 0.11265 0.92048 0.50862 0.0
C488 C 0.82339 0.4463 0.93896 0.0
C489 C 0.79374 0.45788 0.96286 0.0
C490 C 0.83854 0.49163 0.00292 0.0
C491 C 0.86836 0.47807 0.98034 0.0
N492 N 0.89058 0.43816 0.93056 0.0
N493 N 0.77254 0.48735 0.01978 0.0
C494 C 0.86118 0.45426 0.94929 0.0
C495 C 0.80117 0.4793 0.99556 0.0
N496 N 0.81531 0.42826 0.90606 0.0
N497 N 0.84585 0.51741 0.03042 0.0
H498 H 0.7446 0.47989 0.01459 0.0
H499 H 0.77664 0.49917 0.04615 0.0
H500 H 0.87293 0.52685 0.03678 0.0
H501 H 0.82501 0.53157 0.04516 0.0
H502 H 0.83515 0.42309 0.8853 0.0
H503 H 0.78808 0.42057 0.89818 0.0
H504 H 0.88735 0.41738 0.9103 0.0
H505 H 0.91869 0.44332 0.93734 0.0
C506 C 0.71726 0.53518 0.49993 0.0
C507 C 0.72507 0.55629 0.46713 0.0
C508 C 0.65767 0.56132 0.45341 0.0
C509 C 0.65009 0.5376 0.48442 0.0
N510 N 0.67188 0.49819 0.5349 0.0
N511 N 0.70396 0.58663 0.4104 0.0
C512 C 0.67965 0.52365 0.50724 0.0
C513 C 0.69559 0.56859 0.44321 0.0
N514 N 0.74578 0.52663 0.52425 0.0
N515 N 0.62852 0.57789 0.43454 0.0
H516 H 0.7313 0.59394 0.40268 0.0
H517 H 0.68419 0.59228 0.3896 0.0
H518 H 0.60034 0.57318 0.44123 0.0
H519 H 0.63207 0.5986 0.41426 0.0
H520 H 0.7415 0.51501 0.55066 0.0
H521 H 0.77384 0.53349 0.51909 0.0
H522 H 0.69243 0.4837 0.54981 0.0
H523 H 0.64461 0.48942 0.54131 0.0
C524 C 0.06533 0.3329 0.08077 0.0
C525 C 0.05669 0.30252 0.05645 0.0
C526 C 0.02649 0.3457 0.01207 0.0
C527 C 0.03735 0.37621 0.03523 0.0
N528 N 0.07075 0.40036 0.08897 0.0
N529 N 0.03243 0.2793 0.99772 0.0
C530 C 0.05766 0.37022 0.06896 0.0
C531 C 0.03819 0.30872 0.02169 0.0
N532 N 0.08051 0.32596 0.11536 0.0
N533 N 0.00408 0.35208 0.98151 0.0
H534 H 0.03909 0.25161 0.00458 0.0
H535 H 0.02308 0.28237 0.97024 0.0
H536 H 0.99562 0.37892 0.97336 0.0
H537 H 0.99176 0.33086 0.96561 0.0
H538 H 0.08328 0.34623 0.13619 0.0
H539 H 0.08825 0.29921 0.12439 0.0
H540 H 0.08932 0.39819 0.11143 0.0
H541 H 0.06523 0.42815 0.08151 0.0
C542 C 0.52391 0.21072 0.99654 0.0
C543 C 0.54754 0.21761 0.96522 0.0
C544 C 0.55591 0.14998 0.95583 0.0
C545 C 0.53175 0.14293 0.98657 0.0
N546 N 0.48867 0.16526 0.03348 0.0
N547 N 0.58607 0.19303 0.91463 0.0
C548 C 0.51469 0.17297 0.00634 0.0
C549 C 0.56322 0.18729 0.94473 0.0
N550 N 0.51115 0.24031 0.01734 0.0
N551 N 0.57255 0.12095 0.93708 0.0
H552 H 0.59348 0.21941 0.9042 0.0
H553 H 0.59348 0.21941 0.9042 0.0
H554 H 0.56884 0.09283 0.94441 0.0
H555 H 0.59053 0.12518 0.91437 0.0
H556 H 0.49728 0.23748 0.04282 0.0
H557 H 0.51619 0.26825 0.01005 0.0
H558 H 0.47227 0.18552 0.04656 0.0
H559 H 0.48154 0.13795 0.04141 0.0
C560 C 0.94114 0.82034 0.4612 0.0
C561 C 0.96996 0.79297 0.46399 0.0
C562 C 0.0154 0.84188 0.48119 0.0
C563 C 0.98575 0.86853 0.48187 0.0
N564 N 0.91905 0.88143 0.48073 0.0
N565 N 0.03295 0.77612 0.48262 0.0
C566 C 0.9482 0.85731 0.47417 0.0
C567 C 0.00669 0.80327 0.47577 0.0
N568 N 0.90739 0.81139 0.44497 0.0
N569 N 0.05194 0.8536 0.48404 0.0
H570 H 0.02753 0.74755 0.47887 0.0
H571 H 0.05893 0.78161 0.49503 0.0
H572 H 0.05945 0.88173 0.48721 0.0
H573 H 0.07489 0.83596 0.47985 0.0
H574 H 0.88696 0.83132 0.43851 0.0
H575 H 0.90111 0.78468 0.43469 0.0
H576 H 0.89089 0.87333 0.47934 0.0
H577 H 0.92283 0.90849 0.4913 0.0
C578 C 0.48278 0.70859 0.5208 0.0
C579 C 0.46317 0.71463 0.55485 0.0
C580 C 0.45981 0.64677 0.56595 0.0
C581 C 0.48174 0.64089 0.53334 0.0
N582 N 0.51773 0.66517 0.4816 0.0
N583 N 0.43628 0.69067 0.61215 0.0
C584 C 0.49415 0.67153 0.51115 0.0
C585 C 0.45263 0.68402 0.57812 0.0
N586 N 0.48996 0.73825 0.49752 0.0
N587 N 0.44478 0.61664 0.58454 0.0
H588 H 0.42897 0.71744 0.62142 0.0
H589 H 0.43214 0.67004 0.6324 0.0
H590 H 0.44973 0.58885 0.57673 0.0
H591 H 0.42509 0.61896 0.60595 0.0
H592 H 0.50042 0.73541 0.47046 0.0
H593 H 0.48322 0.7659 0.50439 0.0
H594 H 0.53112 0.6864 0.46663 0.0
H595 H 0.52597 0.63829 0.47343 0.0
C596 C 0.91701 0.96799 0.69317 0.0
C597 C 0.94335 0.9721 0.72284 0.0
C598 C 0.99087 0.99536 0.67881 0.0
C599 C 0.96576 0.98771 0.64882 0.0
N600 N 0.90639 0.96395 0.62607 0.0
N601 N 0.00578 0.98731 0.74471 0.0
C602 C 0.92906 0.97357 0.65562 0.0
C603 C 0.98041 0.98527 0.7159 0.0
N604 N 0.88044 0.95891 0.70101 0.0
N605 N 0.02424 0.01325 0.67181 0.0
H606 H 0.9986 0.98199 0.77254 0.0
H607 H 0.0344 0.99225 0.74098 0.0
H608 H 0.03285 0.02081 0.64491 0.0
H609 H 0.04214 0.02323 0.69268 0.0
H610 H 0.85886 0.95955 0.68126 0.0
H611 H 0.8709 0.95323 0.72804 0.0
H612 H 0.88105 0.94954 0.62886 0.0
H613 H 0.91408 0.96807 0.59818 0.0
C614 C 0.5381 0.9916 0.223 0.0
C615 C 0.52255 0.02342 0.241 0.0
C616 C 0.49313 0.04207 0.182 0.0
C617 C 0.51729 0.01697 0.16285 0.0
N618 N 0.56061 0.96477 0.16502 0.0
N619 N 0.46227 0.05382 0.241 0.0
C620 C 0.53888 0.99046 0.1833 0.0
C621 C 0.49308 0.04196 0.22172 0.0
N622 N 0.54671 0.96051 0.24358 0.0
N623 N 0.47055 0.06618 0.16251 0.0
H624 H 0.45919 0.048 0.26953 0.0
H625 H 0.43824 0.06444 0.22802 0.0
H626 H 0.46918 0.0665 0.1333 0.0
H627 H 0.45516 0.08737 0.17552 0.0
H628 H 0.55488 0.9351 0.23165 0.0
H629 H 0.54077 0.95917 0.27221 0.0
H630 H 0.57965 0.94739 0.17893 0.0
H631 H 0.56142 0.96263 0.13587 0.0
C632 C 0.45509 0.49114 0.3071 0.0
C633 C 0.47727 0.51614 0.28547 0.0
C634 C 0.51804 0.52641 0.33979 0.0
C635 C 0.49002 0.51021 0.3631 0.0
N636 N 0.43262 0.47398 0.36863 0.0
N637 N 0.54328 0.5281 0.27702 0.0
C638 C 0.45871 0.49156 0.3467 0.0
C639 C 0.51308 0.52545 0.30036 0.0
N640 N 0.43619 0.46263 0.28982 0.0
N641 N 0.54862 0.544 0.3551 0.0
H642 H 0.54087 0.522 0.24848 0.0
H643 H 0.57083 0.53135 0.28659 0.0
H644 H 0.55324 0.54575 0.38392 0.0
H645 H 0.56772 0.55939 0.3391 0.0
H646 H 0.42227 0.44137 0.30436 0.0
H647 H 0.43945 0.45751 0.26119 0.0
H648 H 0.40745 0.46338 0.35786 0.0
H649 H 0.43514 0.47193 0.39769 0.0
C650 C 0.01043 0.48375 0.80089 0.0
C651 C 0.04597 0.49395 0.78609 0.0
C652 C 0.06359 0.52001 0.84707 0.0
C653 C 0.03268 0.50087 0.86352 0.0
N654 N 0.97539 0.46482 0.85563 0.0
N655 N 0.08524 0.54885 0.78994 0.0
C656 C 0.00536 0.48327 0.84027 0.0
C657 C 0.06737 0.51988 0.80749 0.0
N658 N 0.98043 0.47959 0.77736 0.0
N659 N 0.08904 0.53877 0.86888 0.0
H660 H 0.0814 0.55381 0.76133 0.0
H661 H 0.09854 0.57068 0.80427 0.0
H662 H 0.08632 0.54135 0.89786 0.0
H663 H 0.11398 0.54983 0.85813 0.0
H664 H 0.95297 0.47563 0.78678 0.0
H665 H 0.98275 0.48507 0.74869 0.0
H666 H 0.95689 0.44853 0.83974 0.0
H667 H 0.97085 0.46316 0.88445 0.0
C668 C 0.71893 0.97878 0.03485 0.0
C669 C 0.73537 0.99616 0.00314 0.0
C670 C 0.67536 0.02657 0.98947 0.0
C671 C 0.65734 0.00056 0.01369 0.0
N672 N 0.66212 0.95432 0.06304 0.0
N673 N 0.73421 0.05775 0.97567 0.0
C674 C 0.67915 0.97757 0.03779 0.0
C675 C 0.71522 0.02662 0.9874 0.0
N676 N 0.74107 0.96886 0.06445 0.0
N677 N 0.65463 0.05043 0.96775 0.0
H678 H 0.76328 0.06019 0.97944 0.0
H679 H 0.72088 0.08233 0.96705 0.0
H680 H 0.62533 0.0517 0.96897 0.0
H681 H 0.66658 0.06715 0.94693 0.0
H682 H 0.73034 0.9592 0.08985 0.0
H683 H 0.7698 0.97519 0.06481 0.0
H684 H 0.67695 0.93436 0.07851 0.0
H685 H 0.63302 0.95354 0.06684 0.0
C686 C 0.82276 0.05986 0.43437 0.0
C687 C 0.79411 0.0458 0.45825 0.0
C688 C 0.84145 0.01604 0.4984 0.0
C689 C 0.87009 0.03287 0.47639 0.0
N690 N 0.889 0.07424 0.42634 0.0
N691 N 0.77519 0.01357 0.51456 0.0
C692 C 0.86104 0.05555 0.44499 0.0
C693 C 0.80317 0.02467 0.49072 0.0
N694 N 0.81329 0.07701 0.40138 0.0
N695 N 0.8509 0.99088 0.52583 0.0
H696 H 0.74672 0.01804 0.50899 0.0
H697 H 0.78012 0.00197 0.54088 0.0
H698 H 0.8787 0.98404 0.53232 0.0
H699 H 0.83138 0.9746 0.54029 0.0
H700 H 0.8327 0.08405 0.38073 0.0
H701 H 0.78552 0.08189 0.39323 0.0
H702 H 0.88406 0.09456 0.40595 0.0
H703 H 0.91743 0.07158 0.43316 0.0
C704 C 0.19387 0.55561 0.08152 0.0
C705 C 0.22205 0.55808 0.05354 0.0
C706 C 0.17436 0.54822 0.00475 0.0
C707 C 0.14692 0.5423 0.033 0.0
N708 N 0.13267 0.53121 0.09827 0.0
N709 N 0.2407 0.54986 0.98912 0.0
C710 C 0.15727 0.54336 0.07142 0.0
C711 C 0.21277 0.55233 0.01527 0.0
N712 N 0.2016 0.5663 0.11752 0.0
N713 N 0.16362 0.55159 0.9681 0.0
H714 H 0.26915 0.55251 0.99587 0.0
H715 H 0.2359 0.54185 0.96145 0.0
H716 H 0.13569 0.54945 0.95932 0.0
H717 H 0.18189 0.55985 0.94685 0.0
H718 H 0.18096 0.56888 0.13804 0.0
H719 H 0.22792 0.57611 0.12609 0.0
H720 H 0.14021 0.52781 0.12629 0.0
H721 H 0.10597 0.52068 0.09205 0.0
C722 C 0.32204 0.46647 0.57608 0.0
C723 C 0.29422 0.46371 0.54765 0.0
C724 C 0.34247 0.47325 0.49956 0.0
C725 C 0.36961 0.47896 0.52825 0.0
N726 N 0.383 0.49107 0.59355 0.0
N727 N 0.27627 0.47165 0.48293 0.0
C728 C 0.35873 0.47858 0.56646 0.0
C729 C 0.30392 0.46932 0.50949 0.0
N730 N 0.314 0.45595 0.61205 0.0
N731 N 0.35362 0.46986 0.46309 0.0
H732 H 0.24775 0.46909 0.48933 0.0
H733 H 0.28134 0.47945 0.45527 0.0
H734 H 0.38163 0.47205 0.45474 0.0
H735 H 0.33556 0.46169 0.44154 0.0
H736 H 0.33447 0.45358 0.63286 0.0
H737 H 0.28767 0.44606 0.62035 0.0
H738 H 0.37509 0.49489 0.62138 0.0
H739 H 0.40978 0.50153 0.5876 0.0
C740 C 0.92579 0.70168 0.97184 0.0
C741 C 0.95395 0.72961 0.96737 0.0
C742 C 0.00307 0.68229 0.97636 0.0
C743 C 0.97485 0.65497 0.98361 0.0
N744 N 0.90987 0.64081 0.99751 0.0
N745 N 0.01891 0.74846 0.97319 0.0
C746 C 0.93631 0.6653 0.9841 0.0
C747 C 0.9925 0.72051 0.97209 0.0
N748 N 0.88917 0.70934 0.96287 0.0
N749 N 0.03967 0.67159 0.97163 0.0
H750 H 0.01208 0.77681 0.97038 0.0
H751 H 0.04694 0.74386 0.98037 0.0
H752 H 0.04855 0.64377 0.97366 0.0
H753 H 0.06067 0.68977 0.96232 0.0
H754 H 0.8683 0.68879 0.96164 0.0
H755 H 0.8802 0.73553 0.95336 0.0
H756 H 0.88193 0.64828 0.00201 0.0
H757 H 0.91657 0.61423 0.00783 0.0
C758 C 0.48609 0.81336 0.09371 0.0
C759 C 0.48365 0.7857 0.06517 0.0
C760 C 0.49738 0.83332 0.01747 0.0
C761 C 0.50131 0.86061 0.04623 0.0
N762 N 0.51015 0.87436 0.11186 0.0
N763 N 0.49577 0.76715 0.00142 0.0
C764 C 0.49907 0.84988 0.08444 0.0
C765 C 0.4922 0.79501 0.02749 0.0
N766 N 0.47418 0.80546 0.12925 0.0
N767 N 0.49641 0.84411 0.98072 0.0
H768 H 0.49237 0.73878 0.00798 0.0
H769 H 0.50556 0.77182 0.97433 0.0
H770 H 0.49986 0.87185 0.97209 0.0
H771 H 0.48921 0.82601 0.95892 0.0
H772 H 0.47135 0.82586 0.14996 0.0
H773 H 0.46396 0.77922 0.13732 0.0
H774 H 0.51255 0.86679 0.13996 0.0
H775 H 0.52078 0.90107 0.10603 0.0
C776 C 0.02128 0.21442 0.5415 0.0
C777 C 0.05178 0.22164 0.56617 0.0
C778 C 0.06274 0.15414 0.57347 0.0
C779 C 0.03455 0.14706 0.54616 0.0
N780 N 0.99012 0.16985 0.50036 0.0
N781 N 0.10475 0.19945 0.60227 0.0
C782 C 0.01448 0.17703 0.52923 0.0
C783 C 0.07342 0.19178 0.58126 0.0
N784 N 0.99853 0.24327 0.53035 0.0
N785 N 0.07829 0.1249 0.59296 0.0
H786 H 0.11294 0.22665 0.60951 0.0
H787 H 0.12419 0.17914 0.61028 0.0
H788 H 0.07106 0.09689 0.5882 0.0
H789 H 0.09595 0.12842 0.61601 0.0
H790 H 0.97347 0.23939 0.51568 0.0
H791 H 0.00322 0.27111 0.53822 0.0
H792 H 0.97773 0.19073 0.4841 0.0
H793 H 0.98445 0.1428 0.49061 0.0
C794 C 0.52682 0.29398 0.49508 0.0
C795 C 0.55685 0.28572 0.47043 0.0
C796 C 0.57928 0.35054 0.47493 0.0
C797 C 0.54633 0.36018 0.49521 0.0
N798 N 0.50242 0.33667 0.54153 0.0
N799 N 0.6102 0.30615 0.43403 0.0
C800 C 0.52363 0.33077 0.51019 0.0
C801 C 0.58279 0.31397 0.45968 0.0
N802 N 0.50103 0.26676 0.50364 0.0
N803 N 0.60889 0.37508 0.47366 0.0
H804 H 0.61406 0.27951 0.42252 0.0
H805 H 0.62701 0.32673 0.42176 0.0
H806 H 0.60947 0.39979 0.48935 0.0
H807 H 0.63487 0.36855 0.46193 0.0
H808 H 0.47595 0.27223 0.51763 0.0
H809 H 0.50318 0.23917 0.49407 0.0
H810 H 0.48719 0.3156 0.55493 0.0
H811 H 0.50518 0.3605 0.55818 0.0
loop_
_geom_bond_atom_site_label_1
_geom_bond_atom_site_label_2
_geom_bond_distance
_geom_bond_site_symmetry_2
_ccdc_geom_bond_type
C0 C1 1.384 . S
C0 H13 0.947 . S
C0 C35 1.382 . S
C1 C0 1.384 . S
C1 C2 1.378 . S
C2 C1 1.378 . S
C2 C3 1.378 . S
C2 H14 0.952 . S
C3 C2 1.378 . S
C3 H15 0.950 . S
C3 C34 1.383 . S
H4 C23 0.947 . S
H5 C24 0.946 . S
H6 C26 0.953 . S
H7 C27 0.945 . S
H8 C29 0.952 . S
H9 C30 0.949 . S
H10 C32 0.950 . S
H11 C33 0.948 . S
H12 C35 0.951 . S
H13 C0 0.947 . S
H14 C2 0.952 . S
H15 C3 0.950 . S
N16 C19 1.382 . S
N16 C21 1.363 . S
N17 C19 1.371 . S
N17 C20 1.372 . S
N18 C20 1.361 . S
N18 C21 1.377 . S
C19 N16 1.382 . S
C19 N17 1.371 . S
C19 C22 1.480 . S
C20 N17 1.372 . S
C20 N18 1.361 . S
C20 C28 1.457 . S
C21 N16 1.363 . S
C21 N18 1.377 . S
C21 C34 1.479 . S
C22 C19 1.480 . S
C22 C23 1.383 . S
C22 C27 1.385 . S
C23 H4 0.947 . S
C23 C22 1.383 . S
C23 C24 1.388 . S
C24 H5 0.946 . S
C24 C23 1.388 . S
C24 C25 1.384 . S
C25 C24 1.384 . S
C25 C26 1.377 . S
C26 H6 0.953 . S
C26 C25 1.377 . S
C26 C27 1.369 . S
C27 H7 0.945 . S
C27 C22 1.385 . S
C27 C26 1.369 . S
C28 C20 1.457 . S
C28 C29 1.372 . S
C28 C33 1.364 . S
C29 H8 0.952 . S
C29 C28 1.372 . S
C29 C30 1.389 . S
C30 H9 0.949 . S
C30 C29 1.389 . S
C30 C31 1.387 . S
C31 C30 1.387 . S
C31 C32 1.372 . S
C32 H10 0.950 . S
C32 C31 1.372 . S
C32 C33 1.379 . S
C33 H11 0.948 . S
C33 C28 1.364 . S
C33 C32 1.379 . S
C34 C3 1.383 . S
C34 C21 1.479 . S
C34 C35 1.398 . S
C35 C0 1.382 . S
C35 H12 0.951 . S
C35 C34 1.398 . S
C36 C37 1.384 . S
C36 H49 0.947 . S
C36 C71 1.382 . S
C37 C36 1.384 . S
C37 C38 1.378 . S
C38 C37 1.378 . S
C38 C39 1.378 . S
C38 H50 0.952 . S
C39 C38 1.378 . S
C39 H51 0.950 . S
C39 C70 1.383 . S
H40 C59 0.947 . S
H41 C60 0.946 . S
H42 C62 0.953 . S
H43 C63 0.945 . S
H44 C65 0.952 . S
H45 C66 0.949 . S
H46 C68 0.950 . S
H47 C69 0.948 . S
H48 C71 0.951 . S
H49 C36 0.947 . S
H50 C38 0.952 . S
H51 C39 0.950 . S
N52 C55 1.382 . S
N52 C57 1.363 . S
N53 C55 1.371 . S
N53 C56 1.372 . S
N54 C56 1.361 . S
N54 C57 1.377 . S
C55 N52 1.382 . S
C55 N53 1.371 . S
C55 C58 1.480 . S
C56 N53 1.372 . S
C56 N54 1.361 . S
C56 C64 1.457 . S
C57 N52 1.363 . S
C57 N54 1.377 . S
C57 C70 1.479 . S
C58 C55 1.480 . S
C58 C59 1.383 . S
C58 C63 1.385 . S
C59 H40 0.947 . S
C59 C58 1.383 . S
C59 C60 1.388 . S
C60 H41 0.946 . S
C60 C59 1.388 . S
C60 C61 1.384 . S
C61 C60 1.384 . S
C61 C62 1.377 . S
C62 H42 0.953 . S
C62 C61 1.377 . S
C62 C63 1.369 . S
C63 H43 0.945 . S
C63 C58 1.385 . S
C63 C62 1.369 . S
C64 C56 1.457 . S
C64 C65 1.372 . S
C64 C69 1.364 . S
C65 H44 0.952 . S
C65 C64 1.372 . S
C65 C66 1.389 . S
C66 H45 0.949 . S
C66 C65 1.389 . S
C66 C67 1.387 . S
C67 C66 1.387 . S
C67 C68 1.372 . S
C68 H46 0.950 . S
C68 C67 1.372 . S
C68 C69 1.379 . S
C69 H47 0.948 . S
C69 C64 1.364 . S
C69 C68 1.379 . S
C70 C39 1.383 . S
C70 C57 1.479 . S
C70 C71 1.398 . S
C71 C36 1.382 . S
C71 H48 0.951 . S
C71 C70 1.398 . S
C72 C73 1.384 . S
C72 H85 0.947 . S
C72 C107 1.382 . S
C73 C72 1.384 . S
C73 C74 1.378 . S
C74 C73 1.378 . S
C74 C75 1.378 . S
C74 H86 0.952 . S
C75 C74 1.378 . S
C75 H87 0.950 . S
C75 C106 1.383 . S
H76 C95 0.947 . S
H77 C96 0.946 . S
H78 C98 0.953 . S
H79 C99 0.945 . S
H80 C101 0.952 . S
H81 C102 0.949 . S
H82 C104 0.950 . S
H83 C105 0.948 . S
H84 C107 0.951 . S
H85 C72 0.947 . S
H86 C74 0.952 . S
H87 C75 0.950 . S
N88 C91 1.382 . S
N88 C93 1.363 . S
N89 C91 1.371 . S
N89 C92 1.372 . S
N90 C92 1.361 . S
N90 C93 1.377 . S
C91 N88 1.382 . S
C91 N89 1.371 . S
C91 C94 1.480 . S
C92 N89 1.372 . S
C92 N90 1.361 . S
C92 C100 1.457 . S
C93 N88 1.363 . S
C93 N90 1.377 . S
C93 C106 1.479 . S
C94 C91 1.480 . S
C94 C95 1.383 . S
C94 C99 1.385 . S
C95 H76 0.947 . S
C95 C94 1.383 . S
C95 C96 1.388 . S
C96 H77 0.946 . S
C96 C95 1.388 . S
C96 C97 1.384 . S
C97 C96 1.384 . S
C97 C98 1.377 . S
C98 H78 0.953 . S
C98 C97 1.377 . S
C98 C99 1.369 . S
C99 H79 0.945 . S
C99 C94 1.385 . S
C99 C98 1.369 . S
C100 C92 1.457 . S
C100 C101 1.372 . S
C100 C105 1.364 . S
C101 H80 0.952 . S
C101 C100 1.372 . S
C101 C102 1.389 . S
C102 H81 0.949 . S
C102 C101 1.389 . S
C102 C103 1.387 . S
C103 C102 1.387 . S
C103 C104 1.372 . S
C104 H82 0.950 . S
C104 C103 1.372 . S
C104 C105 1.379 . S
C105 H83 0.948 . S
C105 C100 1.364 . S
C105 C104 1.379 . S
C106 C75 1.383 . S
C106 C93 1.479 . S
C106 C107 1.398 . S
C107 C72 1.382 . S
C107 H84 0.951 . S
C107 C106 1.398 . S
C108 C109 1.384 . S
C108 H121 0.947 . S
C108 C143 1.382 . S
C109 C108 1.384 . S
C109 C110 1.378 . S
C110 C109 1.378 . S
C110 C111 1.378 . S
C110 H122 0.952 . S
C111 C110 1.378 . S
C111 H123 0.950 . S
C111 C142 1.383 . S
H112 C131 0.947 . S
H113 C132 0.946 . S
H114 C134 0.953 . S
H115 C135 0.945 . S
H116 C137 0.952 . S
H117 C138 0.949 . S
H118 C140 0.950 . S
H119 C141 0.948 . S
H120 C143 0.951 . S
H121 C108 0.947 . S
H122 C110 0.952 . S
H123 C111 0.950 . S
N124 C127 1.382 . S
N124 C129 1.363 . S
N125 C127 1.371 . S
N125 C128 1.372 . S
N126 C128 1.361 . S
N126 C129 1.377 . S
C127 N124 1.382 . S
C127 N125 1.371 . S
C127 C130 1.480 . S
C128 N125 1.372 . S
C128 N126 1.361 . S
C128 C136 1.457 . S
C129 N124 1.363 . S
C129 N126 1.377 . S
C129 C142 1.479 . S
C130 C127 1.480 . S
C130 C131 1.383 . S
C130 C135 1.385 . S
C131 H112 0.947 . S
C131 C130 1.383 . S
C131 C132 1.388 . S
C132 H113 0.946 . S
C132 C131 1.388 . S
C132 C133 1.384 . S
C133 C132 1.384 . S
C133 C134 1.377 . S
C134 H114 0.953 . S
C134 C133 1.377 . S
C134 C135 1.369 . S
C135 H115 0.945 . S
C135 C130 1.385 . S
C135 C134 1.369 . S
C136 C128 1.457 . S
C136 C137 1.372 . S
C136 C141 1.364 . S
C137 H116 0.952 . S
C137 C136 1.372 . S
C137 C138 1.389 . S
C138 H117 0.949 . S
C138 C137 1.389 . S
C138 C139 1.387 . S
C139 C138 1.387 . S
C139 C140 1.372 . S
C140 H118 0.950 . S
C140 C139 1.372 . S
C140 C141 1.379 . S
C141 H119 0.948 . S
C141 C136 1.364 . S
C141 C140 1.379 . S
C142 C111 1.383 . S
C142 C129 1.479 . S
C142 C143 1.398 . S
C143 C108 1.382 . S
C143 H120 0.951 . S
C143 C142 1.398 . S
C144 C145 1.384 1_545 S
C144 H157 0.947 . S
C144 C179 1.382 1_545 S
C145 C144 1.384 1_565 S
C145 C146 1.378 . S
C146 C145 1.378 . S
C146 C147 1.378 . S
C146 H158 0.952 1_556 S
C147 C146 1.378 . S
C147 H159 0.950 . S
C147 C178 1.383 . S
H148 C167 0.947 . S
H149 C168 0.946 1_554 S
H150 C170 0.953 1_455 S
H151 C171 0.945 . S
H152 C173 0.952 . S
H153 C174 0.971 . S
H154 C176 0.950 . S
H155 C177 0.948 1_545 S
H156 C179 0.951 . S
H157 C144 0.947 . S
H158 C146 0.952 1_554 S
H159 C147 0.950 . S
N160 C163 1.382 . S
N160 C165 1.363 . S
N161 C163 1.371 . S
N161 C164 1.372 . S
N162 C164 1.361 . S
N162 C165 1.377 . S
C163 N160 1.382 . S
C163 N161 1.371 . S
C163 C166 1.480 . S
C164 N161 1.372 . S
C164 N162 1.361 . S
C164 C172 1.457 . S
C165 N160 1.363 . S
C165 N162 1.377 . S
C165 C178 1.479 . S
C166 C163 1.480 . S
C166 C167 1.383 . S
C166 C171 1.385 . S
C167 H148 0.947 . S
C167 C166 1.383 . S
C167 C168 1.388 . S
C168 H149 0.946 1_556 S
C168 C167 1.388 . S
C168 C169 1.384 . S
C169 C168 1.384 . S
C169 C170 1.377 . S
C170 H150 0.953 1_655 S
C170 C169 1.377 . S
C170 C171 1.369 . S
C171 H151 0.945 . S
C171 C166 1.385 . S
C171 C170 1.369 . S
C172 C164 1.457 . S
C172 C173 1.372 . S
C172 C177 1.364 . S
C173 H152 0.952 . S
C173 C172 1.372 . S
C173 C174 1.389 . S
C174 H153 0.971 . S
C174 C173 1.389 . S
C174 C175 1.387 . S
C175 C174 1.387 . S
C175 C176 1.372 1_565 S
C176 H154 0.950 . S
C176 C175 1.372 1_545 S
C176 C177 1.379 1_545 S
C177 H155 0.948 1_565 S
C177 C172 1.364 . S
C177 C176 1.379 1_565 S
C178 C147 1.383 . S
C178 C165 1.479 . S
C178 C179 1.398 . S
C179 C144 1.382 1_565 S
C179 H156 0.951 . S
C179 C178 1.398 . S
C180 C181 1.384 . S
C180 H193 0.947 1_545 S
C180 C215 1.382 . S
C181 C180 1.384 . S
C181 C182 1.378 . S
C182 C181 1.378 . S
C182 C183 1.378 . S
C182 H194 0.952 . S
C183 C182 1.378 . S
C183 H195 0.950 . S
C183 C214 1.383 . S
H184 C203 0.947 . S
H185 C204 0.946 . S
H186 C206 0.953 . S
H187 C207 0.945 . S
H188 C209 0.952 . S
H189 C210 0.949 . S
H190 C212 0.950 1_565 S
H191 C213 0.948 . S
H192 C215 0.951 . S
H193 C180 0.947 1_565 S
H194 C182 0.952 . S
H195 C183 0.950 . S
N196 C199 1.382 . S
N196 C201 1.363 . S
N197 C199 1.371 . S
N197 C200 1.372 . S
N198 C200 1.361 . S
N198 C201 1.377 . S
C199 N196 1.382 . S
C199 N197 1.371 . S
C199 C202 1.480 . S
C200 N197 1.372 . S
C200 N198 1.361 . S
C200 C208 1.457 . S
C201 N196 1.363 . S
C201 N198 1.377 . S
C201 C214 1.479 . S
C202 C199 1.480 . S
C202 C203 1.383 . S
C202 C207 1.385 . S
C203 H184 0.947 . S
C203 C202 1.383 . S
C203 C204 1.388 . S
C204 H185 0.946 . S
C204 C203 1.388 . S
C204 C205 1.384 . S
C205 C204 1.384 . S
C205 C206 1.377 . S
C206 H186 0.953 . S
C206 C205 1.377 . S
C206 C207 1.369 . S
C207 H187 0.945 . S
C207 C202 1.385 . S
C207 C206 1.369 . S
C208 C200 1.457 . S
C208 C209 1.372 . S
C208 C213 1.364 . S
C209 H188 0.952 . S
C209 C208 1.372 . S
C209 C210 1.389 . S
C210 H189 0.949 . S
C210 C209 1.389 . S
C210 C211 1.387 . S
C211 C210 1.387 . S
C211 C212 1.372 . S
C212 H190 0.950 1_545 S
C212 C211 1.372 . S
C212 C213 1.379 . S
C213 H191 0.948 . S
C213 C208 1.364 . S
C213 C212 1.379 . S
C214 C183 1.383 . S
C214 C201 1.479 . S
C214 C215 1.398 . S
C215 C180 1.382 . S
C215 H192 0.951 . S
C215 C214 1.398 . S
C216 C217 1.384 . S
C216 H229 0.947 . S
C216 C251 1.382 . S
C217 C216 1.384 . S
C217 C218 1.378 . S
C218 C217 1.378 . S
C218 C219 1.378 . S
C218 H230 0.952 . S
C219 C218 1.378 . S
C219 H231 0.950 . S
C219 C250 1.383 . S
H220 C239 0.947 . S
H221 C240 0.946 . S
H222 C242 0.953 . S
H223 C243 0.945 . S
H224 C245 0.952 . S
H225 C246 0.949 . S
H226 C248 0.950 . S
H227 C249 0.948 . S
H228 C251 0.951 . S
H229 C216 0.947 . S
H230 C218 0.952 . S
H231 C219 0.950 . S
N232 C235 1.382 . S
N232 C237 1.363 . S
N233 C235 1.371 . S
N233 C236 1.372 . S
N234 C236 1.361 . S
N234 C237 1.377 . S
C235 N232 1.382 . S
C235 N233 1.371 . S
C235 C238 1.480 . S
C236 N233 1.372 . S
C236 N234 1.361 . S
C236 C244 1.457 . S
C237 N232 1.363 . S
C237 N234 1.377 . S
C237 C250 1.479 . S
C238 C235 1.480 . S
C238 C239 1.383 . S
C238 C243 1.385 . S
C239 H220 0.947 . S
C239 C238 1.383 . S
C239 C240 1.388 . S
C240 H221 0.946 . S
C240 C239 1.388 . S
C240 C241 1.384 . S
C241 C240 1.384 . S
C241 C242 1.377 . S
C242 H222 0.953 . S
C242 C241 1.377 . S
C242 C243 1.369 . S
C243 H223 0.945 . S
C243 C238 1.385 . S
C243 C242 1.369 . S
C244 C236 1.457 . S
C244 C245 1.372 . S
C244 C249 1.364 . S
C245 H224 0.952 . S
C245 C244 1.372 . S
C245 C246 1.389 . S
C246 H225 0.949 . S
C246 C245 1.389 . S
C246 C247 1.387 . S
C247 C246 1.387 . S
C247 C248 1.372 . S
C248 H226 0.950 . S
C248 C247 1.372 . S
C248 C249 1.379 . S
C249 H227 0.948 . S
C249 C244 1.364 . S
C249 C248 1.379 . S
C250 C219 1.383 . S
C250 C237 1.479 . S
C250 C251 1.398 . S
C251 C216 1.382 . S
C251 H228 0.951 . S
C251 C250 1.398 . S
C252 C253 1.384 . S
C252 H265 0.947 . S
C252 C287 1.382 . S
C253 C252 1.384 . S
C253 C254 1.378 . S
C254 C253 1.378 . S
C254 C255 1.378 . S
C254 H266 0.952 . S
C255 C254 1.378 . S
C255 H267 0.950 . S
C255 C286 1.383 . S
H256 C275 0.947 . S
H257 C276 0.946 . S
H258 C278 0.953 . S
H259 C279 0.945 . S
H260 C281 0.952 . S
H261 C282 0.949 . S
H262 C284 0.950 . S
H263 C285 0.948 . S
H264 C287 0.951 . S
H265 C252 0.947 . S
H266 C254 0.952 . S
H267 C255 0.950 . S
N268 C271 1.382 . S
N268 C273 1.363 . S
N269 C271 1.371 . S
N269 C272 1.372 . S
N270 C272 1.361 . S
N270 C273 1.377 . S
C271 N268 1.382 . S
C271 N269 1.371 . S
C271 C274 1.480 . S
C272 N269 1.372 . S
C272 N270 1.361 . S
C272 C280 1.457 . S
C273 N268 1.363 . S
C273 N270 1.377 . S
C273 C286 1.479 . S
C274 C271 1.480 . S
C274 C275 1.383 . S
C274 C279 1.385 . S
C275 H256 0.947 . S
C275 C274 1.383 . S
C275 C276 1.388 . S
C276 H257 0.946 . S
C276 C275 1.388 . S
C276 C277 1.384 . S
C277 C276 1.384 . S
C277 C278 1.377 . S
C278 H258 0.953 . S
C278 C277 1.377 . S
C278 C279 1.369 . S
C279 H259 0.945 . S
C279 C274 1.385 . S
C279 C278 1.369 . S
C280 C272 1.457 . S
C280 C281 1.372 . S
C280 C285 1.364 . S
C281 H260 0.952 . S
C281 C280 1.372 . S
C281 C282 1.389 . S
C282 H261 0.949 . S
C282 C281 1.389 . S
C282 C283 1.387 . S
C283 C282 1.387 . S
C283 C284 1.372 . S
C284 H262 0.950 . S
C284 C283 1.372 . S
C284 C285 1.379 . S
C285 H263 0.948 . S
C285 C280 1.364 . S
C285 C284 1.379 . S
C286 C255 1.383 . S
C286 C273 1.479 . S
C286 C287 1.398 . S
C287 C252 1.382 . S
C287 H264 0.951 . S
C287 C286 1.398 . S
O288 Zn289 1.953 . S
O288 C304 1.225 1_655 S
Zn289 O288 1.953 . S
Zn289 O290 1.949 1_655 S
Zn289 O296 1.919 . S
Zn289 O301 1.924 . S
O290 Zn289 1.949 1_455 S
O290 Zn291 1.923 1_445 S
O290 Zn292 1.950 . S
O290 Zn293 1.945 1_545 S
Zn291 O290 1.923 1_665 S
Zn291 O294 1.933 . S
Zn291 O297 1.941 1_565 S
Zn291 O298 1.965 1_665 S
Zn292 O290 1.950 . S
Zn292 O299 1.938 . S
Zn292 O300 1.906 1_545 S
Zn292 O310 1.953 . S
Zn293 O290 1.945 1_565 S
Zn293 O295 1.932 1_455 S
Zn293 O302 1.977 . S
Zn293 O303 1.910 1_455 S
O294 Zn291 1.933 . S
O294 C305 1.226 . S
O295 Zn293 1.932 1_655 S
O295 C305 1.307 . S
O296 Zn289 1.919 . S
O296 C307 1.253 . S
O297 Zn291 1.941 1_545 S
O297 C307 1.283 . S
O298 Zn291 1.965 1_445 S
O298 C306 1.303 . S
O299 Zn292 1.938 . S
O299 C306 1.247 . S
O300 Zn292 1.906 1_565 S
O300 C308 1.304 . S
O301 Zn289 1.924 . S
O301 C309 1.311 1_545 S
O302 Zn293 1.977 . S
O302 C308 1.272 . S
O303 Zn293 1.910 1_655 S
O303 C309 1.231 . S
C304 O288 1.225 1_455 S
C304 O310 1.298 . S
C305 O294 1.226 . S
C305 O295 1.307 . S
C306 O298 1.303 . S
C306 O299 1.247 . S
C307 O296 1.253 . S
C307 O297 1.283 . S
C308 O300 1.304 . S
C308 O302 1.272 . S
C309 O301 1.311 1_565 S
C309 O303 1.231 . S
O310 Zn292 1.953 . S
O310 C304 1.298 . S
O311 Zn312 1.953 . S
O311 C327 1.225 . S
Zn312 O311 1.953 . S
Zn312 O313 1.949 1_556 S
Zn312 O319 1.919 . S
Zn312 O324 1.924 1_556 S
O313 Zn312 1.949 1_554 S
O313 Zn314 1.923 1_544 S
O313 Zn315 1.950 . S
O313 Zn316 1.945 1_545 S
Zn314 O313 1.923 1_566 S
Zn314 O317 1.933 1_556 S
Zn314 O320 1.941 . S
Zn314 O321 1.965 . S
Zn315 O313 1.950 . S
Zn315 O322 1.938 . S
Zn315 O323 1.906 . S
Zn315 O333 1.953 . S
Zn316 O313 1.945 1_565 S
Zn316 O318 1.932 . S
Zn316 O325 1.977 1_565 S
Zn316 O326 1.910 1_565 S
O317 Zn314 1.933 1_554 S
O317 C328 1.226 . S
O318 Zn316 1.932 . S
O318 C328 1.307 . S
O319 Zn312 1.919 . S
O319 C330 1.253 1_545 S
O320 Zn314 1.941 . S
O320 C330 1.283 . S
O321 Zn314 1.965 . S
O321 C329 1.303 . S
O322 Zn315 1.938 . S
O322 C329 1.247 1_544 S
O323 Zn315 1.906 . S
O323 C331 1.304 . S
O324 Zn312 1.924 1_554 S
O324 C332 1.311 . S
O325 Zn316 1.977 1_545 S
O325 C331 1.272 . S
O326 Zn316 1.910 1_545 S
O326 C332 1.231 . S
C327 O311 1.225 . S
C327 O333 1.298 1_556 S
C328 O317 1.226 . S
C328 O318 1.307 . S
C329 O321 1.303 . S
C329 O322 1.247 1_566 S
C330 O319 1.253 1_565 S
C330 O320 1.283 . S
C331 O323 1.304 . S
C331 O325 1.272 . S
C332 O324 1.311 . S
C332 O326 1.231 . S
O333 Zn315 1.953 . S
O333 C327 1.298 1_554 S
O334 Zn335 1.953 . S
O334 C350 1.225 . S
Zn335 O334 1.953 . S
Zn335 O336 1.949 . S
Zn335 O342 1.919 . S
Zn335 O347 1.924 . S
O336 Zn335 1.949 . S
O336 Zn337 1.923 . S
O336 Zn338 1.950 . S
O336 Zn339 1.945 . S
Zn337 O336 1.923 . S
Zn337 O340 1.933 . S
Zn337 O343 1.941 . S
Zn337 O344 1.965 . S
Zn338 O336 1.950 . S
Zn338 O345 1.938 . S
Zn338 O346 1.906 . S
Zn338 O356 1.953 . S
Zn339 O336 1.945 . S
Zn339 O341 1.932 . S
Zn339 O348 1.977 . S
Zn339 O349 1.910 . S
O340 Zn337 1.933 . S
O340 C351 1.226 . S
O341 Zn339 1.932 . S
O341 C351 1.307 . S
O342 Zn335 1.919 . S
O342 C353 1.253 . S
O343 Zn337 1.941 . S
O343 C353 1.283 . S
O344 Zn337 1.965 . S
O344 C352 1.303 . S
O345 Zn338 1.938 . S
O345 C352 1.247 . S
O346 Zn338 1.906 . S
O346 C354 1.304 . S
O347 Zn335 1.924 . S
O347 C355 1.311 . S
O348 Zn339 1.977 . S
O348 C354 1.272 . S
O349 Zn339 1.910 . S
O349 C355 1.231 . S
C350 O334 1.225 . S
C350 O356 1.298 . S
C351 O340 1.226 . S
C351 O341 1.307 . S
C352 O344 1.303 . S
C352 O345 1.247 . S
C353 O342 1.253 . S
C353 O343 1.283 . S
C354 O346 1.304 . S
C354 O348 1.272 . S
C355 O347 1.311 . S
C355 O349 1.231 . S
O356 Zn338 1.953 . S
O356 C350 1.298 . S
O357 Zn358 1.953 . S
O357 C373 1.225 . S
Zn358 O357 1.953 . S
Zn358 O359 1.949 1_655 S
Zn358 O365 1.919 . S
Zn358 O370 1.924 . S
O359 Zn358 1.949 1_455 S
O359 Zn360 1.923 1_454 S
O359 Zn361 1.950 . S
O359 Zn362 1.945 1_554 S
Zn360 O359 1.923 1_656 S
Zn360 O363 1.933 1_655 S
Zn360 O366 1.941 . S
Zn360 O367 1.965 . S
Zn361 O359 1.950 . S
Zn361 O368 1.938 . S
Zn361 O369 1.906 . S
Zn361 O379 1.953 . S
Zn362 O359 1.945 1_556 S
Zn362 O364 1.932 . S
Zn362 O371 1.977 1_556 S
Zn362 O372 1.910 1_556 S
O363 Zn360 1.933 1_455 S
O363 C374 1.226 . S
O364 Zn362 1.932 . S
O364 C374 1.307 . S
O365 Zn358 1.919 . S
O365 C376 1.253 1_554 S
O366 Zn360 1.941 . S
O366 C376 1.283 . S
O367 Zn360 1.965 . S
O367 C375 1.303 . S
O368 Zn361 1.938 . S
O368 C375 1.247 1_454 S
O369 Zn361 1.906 . S
O369 C377 1.304 . S
O370 Zn358 1.924 . S
O370 C378 1.311 1_655 S
O371 Zn362 1.977 1_554 S
O371 C377 1.272 . S
O372 Zn362 1.910 1_554 S
O372 C378 1.231 . S
C373 O357 1.225 . S
C373 O379 1.298 1_655 S
C374 O363 1.226 . S
C374 O364 1.307 . S
C375 O367 1.303 . S
C375 O368 1.247 1_656 S
C376 O365 1.253 1_556 S
C376 O366 1.283 . S
C377 O369 1.304 . S
C377 O371 1.272 . S
C378 O370 1.311 1_455 S
C378 O372 1.231 . S
O379 Zn361 1.953 . S
O379 C373 1.298 1_455 S
C380 C381 1.363 . S
C380 C386 1.379 . S
C380 N388 1.356 . S
C381 C380 1.363 . S
C381 C387 1.363 . S
C382 C383 1.363 . S
C382 C387 1.379 . S
C382 N389 1.356 . S
C383 C382 1.363 . S
C383 C386 1.363 . S
N384 C386 1.356 . S
N384 H396 0.984 . S
N384 H397 0.985 . S
N385 C387 1.356 . S
N385 H390 0.984 . S
N385 H391 0.985 . S
C386 C380 1.379 . S
C386 C383 1.363 . S
C386 N384 1.356 . S
C387 C381 1.363 . S
C387 C382 1.379 . S
C387 N385 1.356 . S
N388 C380 1.356 . S
N388 H394 0.984 . S
N388 H395 0.984 . S
N389 C382 1.356 . S
N389 H392 0.984 . S
N389 H393 0.972 1_445 S
H390 N385 0.984 . S
H391 N385 0.985 . S
H392 N389 0.984 . S
H393 N389 0.972 1_665 S
H394 N388 0.984 . S
H395 N388 0.984 . S
H396 N384 0.984 . S
H397 N384 0.985 . S
C398 C399 1.363 . S
C398 C404 1.379 . S
C398 N406 1.356 . S
C399 C398 1.363 . S
C399 C405 1.363 . S
C400 C401 1.363 . S
C400 C405 1.379 . S
C400 N407 1.356 . S
C401 C400 1.363 . S
C401 C404 1.363 . S
N402 C404 1.356 1_545 S
N402 H414 0.984 . S
N402 H415 0.985 . S
N403 C405 1.356 . S
N403 H408 0.984 . S
N403 H409 0.985 . S
C404 C398 1.379 . S
C404 C401 1.363 . S
C404 N402 1.356 1_565 S
C405 C399 1.363 . S
C405 C400 1.379 . S
C405 N403 1.356 . S
N406 C398 1.356 . S
N406 H412 0.995 . S
N406 H413 0.984 . S
N407 C400 1.356 . S
N407 H410 0.984 . S
N407 H411 0.985 . S
H408 N403 0.984 . S
H409 N403 0.985 . S
H410 N407 0.984 . S
H411 N407 0.985 . S
H412 N406 0.995 . S
H413 N406 0.984 . S
H414 N402 0.984 . S
H415 N402 0.985 . S
C416 C417 1.363 . S
C416 C422 1.379 . S
C416 N424 1.356 . S
C417 C416 1.363 . S
C417 C423 1.363 . S
C418 C419 1.363 . S
C418 C423 1.379 . S
C418 N425 1.356 . S
C419 C418 1.363 . S
C419 C422 1.363 . S
N420 C422 1.356 . S
N420 H432 0.984 . S
N420 H433 0.985 . S
N421 C423 1.356 . S
N421 H426 0.984 . S
N421 H427 0.985 . S
C422 C416 1.379 . S
C422 C419 1.363 . S
C422 N420 1.356 . S
C423 C417 1.363 . S
C423 C418 1.379 . S
C423 N421 1.356 . S
N424 C416 1.356 . S
N424 H430 0.984 . S
N424 H431 0.984 . S
N425 C418 1.356 . S
N425 H428 0.984 . S
N425 H429 0.985 . S
H426 N421 0.984 . S
H427 N421 0.985 . S
H428 N425 0.984 . S
H429 N425 0.985 . S
H430 N424 0.984 . S
H431 N424 0.984 . S
H432 N420 0.984 . S
H433 N420 0.985 . S
C434 C435 1.363 . S
C434 C440 1.379 . S
C434 N442 1.356 . S
C435 C434 1.363 . S
C435 C441 1.363 . S
C436 C437 1.363 . S
C436 C441 1.379 . S
C436 N443 1.356 . S
C437 C436 1.363 . S
C437 C440 1.363 . S
N438 C440 1.356 1_455 S
N438 H450 0.984 . S
N438 H451 0.985 . S
N439 C441 1.356 . S
N439 H444 0.984 . S
N439 H445 0.985 . S
C440 C434 1.379 . S
C440 C437 1.363 . S
C440 N438 1.356 1_655 S
C441 C435 1.363 . S
C441 C436 1.379 . S
C441 N439 1.356 . S
N442 C434 1.356 . S
N442 H448 0.984 1_655 S
N442 H449 0.984 . S
N443 C436 1.356 . S
N443 H446 0.984 . S
N443 H447 0.985 . S
H444 N439 0.984 . S
H445 N439 0.985 . S
H446 N443 0.984 . S
H447 N443 0.985 . S
H448 N442 0.984 1_455 S
H449 N442 0.984 . S
H450 N438 0.984 . S
H451 N438 0.985 . S
C452 C453 1.363 . S
C452 C458 1.379 . S
C452 N460 1.356 . S
C453 C452 1.363 . S
C453 C459 1.363 . S
C454 C455 1.363 . S
C454 C459 1.379 . S
C454 N461 1.356 . S
C455 C454 1.363 . S
C455 C458 1.363 . S
N456 C458 1.356 . S
N456 H468 0.984 . S
N456 H469 0.985 . S
N457 C459 1.356 . S
N457 H462 0.984 . S
N457 H463 0.985 . S
C458 C452 1.379 . S
C458 C455 1.363 . S
C458 N456 1.356 . S
C459 C453 1.363 . S
C459 C454 1.379 . S
C459 N457 1.356 . S
N460 C452 1.356 . S
N460 H466 0.984 . S
N460 H467 0.984 . S
N461 C454 1.356 . S
N461 H464 0.984 . S
N461 H465 0.985 1_554 S
H462 N457 0.984 . S
H463 N457 0.985 . S
H464 N461 0.984 . S
H465 N461 0.985 1_556 S
H466 N460 0.984 . S
H467 N460 0.984 . S
H468 N456 0.984 . S
H469 N456 0.985 . S
C470 C471 1.363 . S
C470 C476 1.379 . S
C470 N478 1.356 . S
C471 C470 1.363 . S
C471 C477 1.363 . S
C472 C473 1.363 . S
C472 C477 1.379 . S
C472 N479 1.356 1_565 S
C473 C472 1.363 . S
C473 C476 1.363 . S
N474 C476 1.356 . S
N474 H486 0.984 . S
N474 H487 0.985 . S
N475 C477 1.356 . S
N475 H480 0.984 . S
N475 H481 0.985 1_565 S
C476 C470 1.379 . S
C476 C473 1.363 . S
C476 N474 1.356 . S
C477 C471 1.363 . S
C477 C472 1.379 . S
C477 N475 1.356 . S
N478 C470 1.356 . S
N478 H484 0.984 . S
N478 H485 0.984 . S
N479 C472 1.356 1_545 S
N479 H482 0.982 1_545 S
N479 H483 0.985 . S
H480 N475 0.984 . S
H481 N475 0.985 1_545 S
H482 N479 0.982 1_565 S
H483 N479 0.985 . S
H484 N478 0.984 . S
H485 N478 0.984 . S
H486 N474 0.984 . S
H487 N474 0.985 . S
C488 C489 1.363 . S
C488 C494 1.379 . S
C488 N496 1.356 . S
C489 C488 1.363 . S
C489 C495 1.363 . S
C490 C491 1.363 . S
C490 C495 1.379 . S
C490 N497 1.356 1_556 S
C491 C490 1.363 . S
C491 C494 1.363 . S
N492 C494 1.356 . S
N492 H504 0.984 . S
N492 H505 0.985 . S
N493 C495 1.356 1_554 S
N493 H498 0.976 1_554 S
N493 H499 0.985 . S
C494 C488 1.379 . S
C494 C491 1.363 . S
C494 N492 1.356 . S
C495 C489 1.363 . S
C495 C490 1.379 . S
C495 N493 1.356 1_556 S
N496 C488 1.356 . S
N496 H502 0.984 . S
N496 H503 0.984 . S
N497 C490 1.356 1_554 S
N497 H500 0.984 . S
N497 H501 0.985 . S
H498 N493 0.976 1_556 S
H499 N493 0.985 . S
H500 N497 0.984 . S
H501 N497 0.985 . S
H502 N496 0.984 . S
H503 N496 0.984 . S
H504 N492 0.984 . S
H505 N492 0.985 . S
C506 C507 1.363 . S
C506 C512 1.379 . S
C506 N514 1.356 . S
C507 C506 1.363 . S
C507 C513 1.363 . S
C508 C509 1.363 . S
C508 C513 1.379 . S
C508 N515 1.356 . S
C509 C508 1.363 . S
C509 C512 1.363 . S
N510 C512 1.356 . S
N510 H522 0.984 . S
N510 H523 0.985 . S
N511 C513 1.356 . S
N511 H516 0.984 . S
N511 H517 0.985 . S
C512 C506 1.379 . S
C512 C509 1.363 . S
C512 N510 1.356 . S
C513 C507 1.363 . S
C513 C508 1.379 . S
C513 N511 1.356 . S
N514 C506 1.356 . S
N514 H520 0.984 . S
N514 H521 0.984 . S
N515 C508 1.356 . S
N515 H518 0.984 . S
N515 H519 0.985 . S
H516 N511 0.984 . S
H517 N511 0.985 . S
H518 N515 0.984 . S
H519 N515 0.985 . S
H520 N514 0.984 . S
H521 N514 0.984 . S
H522 N510 0.984 . S
H523 N510 0.985 . S
C524 C525 1.363 . S
C524 C530 1.379 . S
C524 N532 1.356 . S
C525 C524 1.363 . S
C525 C531 1.363 . S
C526 C527 1.363 . S
C526 C531 1.379 . S
C526 N533 1.356 . S
C527 C526 1.363 . S
C527 C530 1.363 . S
N528 C530 1.356 1_655 S
N528 H540 0.984 . S
N528 H541 0.985 . S
N529 C531 1.356 . S
N529 H534 0.984 . S
N529 H535 0.985 . S
C530 C524 1.379 . S
C530 C527 1.363 . S
C530 N528 1.356 1_455 S
C531 C525 1.363 . S
C531 C526 1.379 . S
C531 N529 1.356 . S
N532 C524 1.356 . S
N532 H538 0.984 . S
N532 H539 0.984 . S
N533 C526 1.356 . S
N533 H536 0.984 . S
N533 H537 0.985 1_554 S
H534 N529 0.984 . S
H535 N529 0.985 . S
H536 N533 0.984 . S
H537 N533 0.985 1_556 S
H538 N532 0.984 . S
H539 N532 0.984 . S
H540 N528 0.984 . S
H541 N528 0.985 . S
C542 C543 1.363 . S
C542 C548 1.379 1_556 S
C542 N550 1.356 1_556 S
C543 C542 1.363 . S
C543 C549 1.363 . S
C544 C545 1.363 . S
C544 C549 1.379 . S
C544 N551 1.356 . S
C545 C544 1.363 . S
C545 C548 1.363 1_556 S
N546 C548 1.356 . S
N546 H558 0.984 . S
N546 H559 0.985 . S
N547 C549 1.356 . S
N547 H552 0.984 . S
N547 H553 0.985 . S
C548 C542 1.379 1_554 S
C548 C545 1.363 1_554 S
C548 N546 1.356 . S
C549 C543 1.363 . S
C549 C544 1.379 . S
C549 N547 1.356 . S
N550 C542 1.356 1_554 S
N550 H556 0.984 . S
N550 H557 0.984 . S
N551 C544 1.356 . S
N551 H554 0.984 . S
N551 H555 0.985 . S
H552 N547 0.984 . S
H553 N547 0.985 . S
H554 N551 0.984 . S
H555 N551 0.985 . S
H556 N550 0.984 . S
H557 N550 0.984 . S
H558 N546 0.984 . S
H559 N546 0.985 . S
C560 C561 1.363 . S
C560 C566 1.379 . S
C560 N568 1.356 . S
C561 C560 1.363 . S
C561 C567 1.363 . S
C562 C563 1.363 . S
C562 C567 1.379 . S
C562 N569 1.356 1_655 S
C563 C562 1.363 . S
C563 C566 1.363 . S
N564 C566 1.356 . S
N564 H576 0.984 . S
N564 H577 0.985 . S
N565 C567 1.356 . S
N565 H570 0.984 . S
N565 H571 0.985 1_655 S
C566 C560 1.379 . S
C566 C563 1.363 . S
C566 N564 1.356 . S
C567 C561 1.363 . S
C567 C562 1.379 . S
C567 N565 1.356 . S
N568 C560 1.356 . S
N568 H574 0.984 . S
N568 H575 0.984 . S
N569 C562 1.356 1_455 S
N569 H572 0.984 . S
N569 H573 0.985 . S
H570 N565 0.984 . S
H571 N565 0.985 1_455 S
H572 N569 0.984 . S
H573 N569 0.985 . S
H574 N568 0.984 . S
H575 N568 0.984 . S
H576 N564 0.984 . S
H577 N564 0.985 . S
C578 C579 1.363 . S
C578 C584 1.379 . S
C578 N586 1.356 . S
C579 C578 1.363 . S
C579 C585 1.363 . S
C580 C581 1.363 . S
C580 C585 1.379 . S
C580 N587 1.356 . S
C581 C580 1.363 . S
C581 C584 1.363 . S
N582 C584 1.356 . S
N582 H594 0.984 . S
N582 H595 0.985 . S
N583 C585 1.356 . S
N583 H588 0.984 . S
N583 H589 0.985 . S
C584 C578 1.379 . S
C584 C581 1.363 . S
C584 N582 1.356 . S
C585 C579 1.363 . S
C585 C580 1.379 . S
C585 N583 1.356 . S
N586 C578 1.356 . S
N586 H592 0.984 . S
N586 H593 0.984 . S
N587 C580 1.356 . S
N587 H590 0.984 . S
N587 H591 0.985 . S
H588 N583 0.984 . S
H589 N583 0.985 . S
H590 N587 0.984 . S
H591 N587 0.985 . S
H592 N586 0.984 . S
H593 N586 0.984 . S
H594 N582 0.984 . S
H595 N582 0.985 . S
C596 C597 1.351 1_545 S
C596 C602 1.379 . S
C596 N604 1.356 . S
C597 C596 1.351 1_565 S
C597 C603 1.375 . S
C598 C599 1.368 . S
C598 C603 1.379 . S
C598 N605 1.356 1_655 S
C599 C598 1.368 . S
C599 C602 1.358 1_565 S
N600 C602 1.356 . S
N600 H612 0.984 . S
N600 H613 0.985 . S
N601 C603 1.356 1_455 S
N601 H606 0.984 . S
N601 H607 0.985 . S
C602 C596 1.379 . S
C602 C599 1.358 1_545 S
C602 N600 1.356 . S
C603 C597 1.375 . S
C603 C598 1.379 . S
C603 N601 1.356 1_655 S
N604 C596 1.356 . S
N604 H610 0.984 . S
N604 H611 0.984 . S
N605 C598 1.356 1_455 S
N605 H608 0.984 . S
N605 H609 0.985 . S
H606 N601 0.984 . S
H607 N601 0.985 . S
H608 N605 0.984 . S
H609 N605 0.985 . S
H610 N604 0.984 . S
H611 N604 0.984 . S
H612 N600 0.984 . S
H613 N600 0.985 . S
C614 C615 1.363 1_565 S
C614 C620 1.379 . S
C614 N622 1.356 . S
C615 C614 1.363 1_545 S
C615 C621 1.363 . S
C616 C617 1.363 . S
C616 C621 1.379 . S
C616 N623 1.356 . S
C617 C616 1.363 . S
C617 C620 1.363 1_545 S
N618 C620 1.356 . S
N618 H630 0.984 . S
N618 H631 0.985 . S
N619 C621 1.356 . S
N619 H624 0.984 . S
N619 H625 0.985 . S
C620 C614 1.379 . S
C620 C617 1.363 1_565 S
C620 N618 1.356 . S
C621 C615 1.363 . S
C621 C616 1.379 . S
C621 N619 1.356 . S
N622 C614 1.356 . S
N622 H628 0.984 . S
N622 H629 0.984 . S
N623 C616 1.356 . S
N623 H626 0.984 . S
N623 H627 0.985 . S
H624 N619 0.984 . S
H625 N619 0.985 . S
H626 N623 0.984 . S
H627 N623 0.985 . S
H628 N622 0.984 . S
H629 N622 0.984 . S
H630 N618 0.984 . S
H631 N618 0.985 . S
C632 C633 1.363 . S
C632 C638 1.379 . S
C632 N640 1.356 . S
C633 C632 1.363 . S
C633 C639 1.363 . S
C634 C635 1.363 . S
C634 C639 1.379 . S
C634 N641 1.356 . S
C635 C634 1.363 . S
C635 C638 1.363 . S
N636 C638 1.356 . S
N636 H648 0.984 . S
N636 H649 0.985 . S
N637 C639 1.356 . S
N637 H642 0.984 . S
N637 H643 0.985 . S
C638 C632 1.379 . S
C638 C635 1.363 . S
C638 N636 1.356 . S
C639 C633 1.363 . S
C639 C634 1.379 . S
C639 N637 1.356 . S
N640 C632 1.356 . S
N640 H646 0.984 . S
N640 H647 0.984 . S
N641 C634 1.356 . S
N641 H644 0.984 . S
N641 H645 0.985 . S
H642 N637 0.984 . S
H643 N637 0.985 . S
H644 N641 0.984 . S
H645 N641 0.985 . S
H646 N640 0.984 . S
H647 N640 0.984 . S
H648 N636 0.984 . S
H649 N636 0.985 . S
C650 C651 1.363 . S
C650 C656 1.379 . S
C650 N658 1.356 . S
C651 C650 1.363 . S
C651 C657 1.363 . S
C652 C653 1.363 . S
C652 C657 1.379 . S
C652 N659 1.356 . S
C653 C652 1.363 . S
C653 C656 1.363 . S
N654 C656 1.356 . S
N654 H666 0.984 1_455 S
N654 H667 0.985 . S
N655 C657 1.356 . S
N655 H660 0.984 . S
N655 H661 0.985 . S
C656 C650 1.379 . S
C656 C653 1.363 . S
C656 N654 1.356 . S
C657 C651 1.363 . S
C657 C652 1.379 . S
C657 N655 1.356 . S
N658 C650 1.356 . S
N658 H664 0.984 1_455 S
N658 H665 0.984 . S
N659 C652 1.356 . S
N659 H662 0.984 . S
N659 H663 0.985 . S
H660 N655 0.984 . S
H661 N655 0.985 . S
H662 N659 0.984 . S
H663 N659 0.985 . S
H664 N658 0.984 1_655 S
H665 N658 0.984 . S
H666 N654 0.984 1_655 S
H667 N654 0.985 . S
C668 C669 1.363 1_554 S
C668 C674 1.379 . S
C668 N676 1.356 . S
C669 C668 1.363 1_556 S
C669 C675 1.363 1_565 S
C670 C671 1.363 1_545 S
C670 C675 1.379 . S
C670 N677 1.356 . S
C671 C670 1.363 1_565 S
C671 C674 1.363 1_556 S
N672 C674 1.356 . S
N672 H684 0.984 . S
N672 H685 0.985 . S
N673 C675 1.356 . S
N673 H678 0.984 . S
N673 H679 0.985 . S
C674 C668 1.379 . S
C674 C671 1.363 1_554 S
C674 N672 1.356 . S
C675 C669 1.363 1_545 S
C675 C670 1.379 . S
C675 N673 1.356 . S
N676 C668 1.356 . S
N676 H682 0.984 . S
N676 H683 0.984 . S
N677 C670 1.356 . S
N677 H680 0.984 . S
N677 H681 0.985 . S
H678 N673 0.984 . S
H679 N673 0.985 . S
H680 N677 0.984 . S
H681 N677 0.985 . S
H682 N676 0.984 . S
H683 N676 0.984 . S
H684 N672 0.984 . S
H685 N672 0.985 . S
C686 C687 1.363 . S
C686 C692 1.379 . S
C686 N694 1.356 . S
C687 C686 1.363 . S
C687 C693 1.363 . S
C688 C689 1.363 . S
C688 C693 1.379 . S
C688 N695 1.356 . S
C689 C688 1.363 . S
C689 C692 1.363 . S
N690 C692 1.356 . S
N690 H702 0.984 . S
N690 H703 0.985 . S
N691 C693 1.356 . S
N691 H696 0.984 . S
N691 H697 0.985 1_545 S
C692 C686 1.379 . S
C692 C689 1.363 . S
C692 N690 1.356 . S
C693 C687 1.363 . S
C693 C688 1.379 . S
C693 N691 1.356 . S
N694 C686 1.356 . S
N694 H700 0.984 . S
N694 H701 0.984 . S
N695 C688 1.356 . S
N695 H698 0.984 . S
N695 H699 0.982 1_545 S
H696 N691 0.984 . S
H697 N691 0.985 1_565 S
H698 N695 0.984 . S
H699 N695 0.982 1_565 S
H700 N694 0.984 . S
H701 N694 0.984 . S
H702 N690 0.984 . S
H703 N690 0.985 . S
C704 C705 1.363 . S
C704 C710 1.379 . S
C704 N712 1.356 . S
C705 C704 1.363 . S
C705 C711 1.363 . S
C706 C707 1.363 1_556 S
C706 C711 1.379 1_556 S
C706 N713 1.356 . S
C707 C706 1.363 1_554 S
C707 C710 1.363 . S
N708 C710 1.356 . S
N708 H720 0.984 . S
N708 H721 0.985 . S
N709 C711 1.356 1_556 S
N709 H714 0.976 1_556 S
N709 H715 0.985 . S
C710 C704 1.379 . S
C710 C707 1.363 . S
C710 N708 1.356 . S
C711 C705 1.363 . S
C711 C706 1.379 1_554 S
C711 N709 1.356 1_554 S
N712 C704 1.356 . S
N712 H718 0.984 . S
N712 H719 0.984 . S
N713 C706 1.356 . S
N713 H716 0.984 . S
N713 H717 0.985 . S
H714 N709 0.976 1_554 S
H715 N709 0.985 . S
H716 N713 0.984 . S
H717 N713 0.985 . S
H718 N712 0.984 . S
H719 N712 0.984 . S
H720 N708 0.984 . S
H721 N708 0.985 . S
C722 C723 1.363 . S
C722 C728 1.379 . S
C722 N730 1.356 . S
C723 C722 1.363 . S
C723 C729 1.363 . S
C724 C725 1.363 . S
C724 C729 1.379 . S
C724 N731 1.356 . S
C725 C724 1.363 . S
C725 C728 1.363 . S
N726 C728 1.356 . S
N726 H738 0.984 . S
N726 H739 0.985 . S
N727 C729 1.356 . S
N727 H732 0.984 . S
N727 H733 0.985 . S
C728 C722 1.379 . S
C728 C725 1.363 . S
C728 N726 1.356 . S
C729 C723 1.363 . S
C729 C724 1.379 . S
C729 N727 1.356 . S
N730 C722 1.356 . S
N730 H736 0.984 . S
N730 H737 0.984 . S
N731 C724 1.356 . S
N731 H734 0.984 . S
N731 H735 0.985 . S
H732 N727 0.984 . S
H733 N727 0.985 . S
H734 N731 0.984 . S
H735 N731 0.985 . S
H736 N730 0.984 . S
H737 N730 0.984 . S
H738 N726 0.984 . S
H739 N726 0.985 . S
C740 C741 1.363 . S
C740 C746 1.379 . S
C740 N748 1.356 . S
C741 C740 1.363 . S
C741 C747 1.363 1_556 S
C742 C743 1.363 1_554 S
C742 C747 1.379 . S
C742 N749 1.356 1_655 S
C743 C742 1.363 1_556 S
C743 C746 1.363 . S
N744 C746 1.356 . S
N744 H756 0.984 . S
N744 H757 0.985 . S
N745 C747 1.356 1_455 S
N745 H750 0.984 . S
N745 H751 0.985 . S
C746 C740 1.379 . S
C746 C743 1.363 . S
C746 N744 1.356 . S
C747 C741 1.363 1_554 S
C747 C742 1.379 . S
C747 N745 1.356 1_655 S
N748 C740 1.356 . S
N748 H754 0.984 . S
N748 H755 0.984 . S
N749 C742 1.356 1_455 S
N749 H752 0.984 . S
N749 H753 0.985 . S
H750 N745 0.984 . S
H751 N745 0.985 . S
H752 N749 0.984 . S
H753 N749 0.985 . S
H754 N748 0.984 . S
H755 N748 0.984 . S
H756 N744 0.984 . S
H757 N744 0.985 . S
C758 C759 1.363 . S
C758 C764 1.379 . S
C758 N766 1.356 . S
C759 C758 1.363 . S
C759 C765 1.363 . S
C760 C761 1.363 . S
C760 C765 1.379 . S
C760 N767 1.356 . S
C761 C760 1.363 . S
C761 C764 1.363 . S
N762 C764 1.356 . S
N762 H774 0.984 . S
N762 H775 0.985 . S
N763 C765 1.356 1_556 S
N763 H768 0.984 1_556 S
N763 H769 0.985 . S
C764 C758 1.379 . S
C764 C761 1.363 . S
C764 N762 1.356 . S
C765 C759 1.363 . S
C765 C760 1.379 . S
C765 N763 1.356 1_554 S
N766 C758 1.356 . S
N766 H772 0.984 . S
N766 H773 0.984 . S
N767 C760 1.356 . S
N767 H770 0.984 . S
N767 H771 0.985 1_554 S
H768 N763 0.984 1_554 S
H769 N763 0.985 . S
H770 N767 0.984 . S
H771 N767 0.985 1_556 S
H772 N766 0.984 . S
H773 N766 0.984 . S
H774 N762 0.984 . S
H775 N762 0.985 . S
C776 C777 1.363 . S
C776 C782 1.379 . S
C776 N784 1.356 1_455 S
C777 C776 1.363 . S
C777 C783 1.363 . S
C778 C779 1.363 . S
C778 C783 1.379 . S
C778 N785 1.356 . S
C779 C778 1.363 . S
C779 C782 1.363 . S
N780 C782 1.356 1_655 S
N780 H792 0.984 . S
N780 H793 0.985 . S
N781 C783 1.356 . S
N781 H786 0.984 . S
N781 H787 0.985 . S
C782 C776 1.379 . S
C782 C779 1.363 . S
C782 N780 1.356 1_455 S
C783 C777 1.363 . S
C783 C778 1.379 . S
C783 N781 1.356 . S
N784 C776 1.356 1_655 S
N784 H790 0.984 . S
N784 H791 0.984 1_655 S
N785 C778 1.356 . S
N785 H788 0.984 . S
N785 H789 0.985 . S
H786 N781 0.984 . S
H787 N781 0.985 . S
H788 N785 0.984 . S
H789 N785 0.985 . S
H790 N784 0.984 . S
H791 N784 0.984 1_455 S
H792 N780 0.984 . S
H793 N780 0.985 . S
C794 C795 1.363 . S
C794 C800 1.379 . S
C794 N802 1.356 . S
C795 C794 1.363 . S
C795 C801 1.363 . S
C796 C797 1.363 . S
C796 C801 1.379 . S
C796 N803 1.356 . S
C797 C796 1.363 . S
C797 C800 1.363 . S
N798 C800 1.356 . S
N798 H810 0.984 . S
N798 H811 0.985 . S
N799 C801 1.356 . S
N799 H804 0.984 . S
N799 H805 0.985 . S
C800 C794 1.379 . S
C800 C797 1.363 . S
C800 N798 1.356 . S
C801 C795 1.363 . S
C801 C796 1.379 . S
C801 N799 1.356 . S
N802 C794 1.356 . S
N802 H808 0.984 . S
N802 H809 0.984 . S
N803 C796 1.356 . S
N803 H806 0.984 . S
N803 H807 0.985 . S
H804 N799 0.984 . S
H805 N799 0.985 . S
H806 N803 0.984 . S
H807 N803 0.985 . S
H808 N802 0.984 . S
H809 N802 0.984 . S
H810 N798 0.984 . S
H811 N798 0.985 . S
C381 C1 1.585 . S
C383 C306 1.594 . S
C399 C67 1.585 . S
C401 C330 1.570 . S
C419 C350 1.487 . S
C417 C97 1.434 . S
C435 C133 1.507 . S
C437 C373 1.514 . S
C455 C332 1.638 . S
C453 C25 1.667 . S
C473 C308 1.632 . S
C471 C37 1.662 . S
C491 C376 1.596 . S
C489 C103 1.622 . S
C509 C353 1.581 . S
C507 C109 1.655 . S
C525 C31 1.435 . S
C527 C378 1.406 . S
C545 C327 1.649 . S
C543 C73 1.603 . S
C561 C139 1.650 . S
C563 C305 1.657 . S
C579 C61 1.417 . S
C581 C355 1.393 . S
C599 C309 1.779 . S
C597 C175 1.741 . S
C615 C181 1.641 . S
C617 C331 1.710 . S
C633 C247 1.817 . S
C635 C351 1.832 . S
C651 C277 1.814 . S
C653 C374 1.829 . S
C669 C145 1.688 . S
C671 C329 1.660 . S
C689 C307 1.743 . S
C687 C211 1.618 . S
C707 C377 1.566 . S
C705 C217 1.589 . S
C725 C354 1.613 . S
C723 C283 1.642 . S
C741 C169 1.937 . S
C743 C375 1.887 . S
C761 C328 1.675 . S
C759 C241 1.665 . S
C779 C304 1.688 . S
C777 C253 1.668 . S
C795 C205 1.835 . S
C797 C352 1.871 . S
