# Generated by pormake.
# Topology eea, (3,6)-cn, num edge types: 1
# Building blocks:
#     Node 0, Type 0, BuildingBlock: QEWDON_clean_linker_0, # of connection points: 3
#     Node 1, Type 0, BuildingBlock: QEWDON_clean_linker_0, # of connection points: 3
#     Node 2, Type 0, BuildingBlock: QEWDON_clean_linker_0, # of connection points: 3
#     Node 3, Type 0, BuildingBlock: QEWDON_clean_linker_0, # of connection points: 3
#     Node 4, Type 0, BuildingBlock: QEWDON_clean_linker_0, # of connection points: 3
#     Node 5, Type 0, BuildingBlock: QEWDON_clean_linker_0, # of connection points: 3
#     Node 6, Type 0, BuildingBlock: QEWDON_clean_linker_0, # of connection points: 3
#     Node 7, Type 0, BuildingBlock: QEWDON_clean_linker_0, # of connection points: 3
#     Node 8, Type 0, BuildingBlock: QEWDON_clean_linker_0, # of connection points: 3
#     Node 9, Type 0, BuildingBlock: QEWDON_clean_linker_0, # of connection points: 3
#     Node 10, Type 0, BuildingBlock: QEWDON_clean_linker_0, # of connection points: 3
#     Node 11, Type 0, BuildingBlock: QEWDON_clean_linker_0, # of connection points: 3
#     Node 12, Type 0, BuildingBlock: QEWDON_clean_linker_0, # of connection points: 3
#     Node 13, Type 0, BuildingBlock: QEWDON_clean_linker_0, # of connection points: 3
#     Node 14, Type 0, BuildingBlock: QEWDON_clean_linker_0, # of connection points: 3
#     Node 15, Type 0, BuildingBlock: QEWDON_clean_linker_0, # of connection points: 3
#     Node 16, Type 0, BuildingBlock: QEWDON_clean_linker_0, # of connection points: 3
#     Node 17, Type 0, BuildingBlock: QEWDON_clean_linker_0, # of connection points: 3
#     Node 18, Type 1, BuildingBlock: CUKXOW_clean_sbu_0, # of connection points: 6
#     Node 19, Type 1, BuildingBlock: CUKXOW_clean_sbu_0, # of connection points: 6
#     Node 20, Type 1, BuildingBlock: CUKXOW_clean_sbu_0, # of connection points: 6
#     Node 21, Type 1, BuildingBlock: CUKXOW_clean_sbu_0, # of connection points: 6
#     Node 22, Type 1, BuildingBlock: CUKXOW_clean_sbu_0, # of connection points: 6
#     Node 23, Type 1, BuildingBlock: CUKXOW_clean_sbu_0, # of connection points: 6
#     Node 24, Type 1, BuildingBlock: CUKXOW_clean_sbu_0, # of connection points: 6
#     Node 25, Type 1, BuildingBlock: CUKXOW_clean_sbu_0, # of connection points: 6
#     Node 26, Type 1, BuildingBlock: CUKXOW_clean_sbu_0, # of connection points: 6
#     Edge 27, Type (0, 1), BuildingBlock: AJUNOK_clean_linker_0, # of connection points: 2
#     Edge 28, Type (0, 1), BuildingBlock: AJUNOK_clean_linker_0, # of connection points: 2
#     Edge 29, Type (0, 1), BuildingBlock: AJUNOK_clean_linker_0, # of connection points: 2
#     Edge 30, Type (0, 1), BuildingBlock: AJUNOK_clean_linker_0, # of connection points: 2
#     Edge 31, Type (0, 1), BuildingBlock: AJUNOK_clean_linker_0, # of connection points: 2
#     Edge 32, Type (0, 1), BuildingBlock: AJUNOK_clean_linker_0, # of connection points: 2
#     Edge 33, Type (0, 1), BuildingBlock: AJUNOK_clean_linker_0, # of connection points: 2
#     Edge 34, Type (0, 1), BuildingBlock: AJUNOK_clean_linker_0, # of connection points: 2
#     Edge 35, Type (0, 1), BuildingBlock: AJUNOK_clean_linker_0, # of connection points: 2
#     Edge 36, Type (0, 1), BuildingBlock: AJUNOK_clean_linker_0, # of connection points: 2
#     Edge 37, Type (0, 1), BuildingBlock: AJUNOK_clean_linker_0, # of connection points: 2
#     Edge 38, Type (0, 1), BuildingBlock: AJUNOK_clean_linker_0, # of connection points: 2
#     Edge 39, Type (0, 1), BuildingBlock: AJUNOK_clean_linker_0, # of connection points: 2
#     Edge 40, Type (0, 1), BuildingBlock: AJUNOK_clean_linker_0, # of connection points: 2
#     Edge 41, Type (0, 1), BuildingBlock: AJUNOK_clean_linker_0, # of connection points: 2
#     Edge 42, Type (0, 1), BuildingBlock: AJUNOK_clean_linker_0, # of connection points: 2
#     Edge 43, Type (0, 1), BuildingBlock: AJUNOK_clean_linker_0, # of connection points: 2
#     Edge 44, Type (0, 1), BuildingBlock: AJUNOK_clean_linker_0, # of connection points: 2
#     Edge 45, Type (0, 1), BuildingBlock: AJUNOK_clean_linker_0, # of connection points: 2
#     Edge 46, Type (0, 1), BuildingBlock: AJUNOK_clean_linker_0, # of connection points: 2
#     Edge 47, Type (0, 1), BuildingBlock: AJUNOK_clean_linker_0, # of connection points: 2
#     Edge 48, Type (0, 1), BuildingBlock: AJUNOK_clean_linker_0, # of connection points: 2
#     Edge 49, Type (0, 1), BuildingBlock: AJUNOK_clean_linker_0, # of connection points: 2
#     Edge 50, Type (0, 1), BuildingBlock: AJUNOK_clean_linker_0, # of connection points: 2
#     Edge 51, Type (0, 1), BuildingBlock: AJUNOK_clean_linker_0, # of connection points: 2
#     Edge 52, Type (0, 1), BuildingBlock: AJUNOK_clean_linker_0, # of connection points: 2
#     Edge 53, Type (0, 1), BuildingBlock: AJUNOK_clean_linker_0, # of connection points: 2
#     Edge 54, Type (0, 1), BuildingBlock: AJUNOK_clean_linker_0, # of connection points: 2
#     Edge 55, Type (0, 1), BuildingBlock: AJUNOK_clean_linker_0, # of connection points: 2
#     Edge 56, Type (0, 1), BuildingBlock: AJUNOK_clean_linker_0, # of connection points: 2
#     Edge 57, Type (0, 1), BuildingBlock: AJUNOK_clean_linker_0, # of connection points: 2
#     Edge 58, Type (0, 1), BuildingBlock: AJUNOK_clean_linker_0, # of connection points: 2
#     Edge 59, Type (0, 1), BuildingBlock: AJUNOK_clean_linker_0, # of connection points: 2
#     Edge 60, Type (0, 1), BuildingBlock: AJUNOK_clean_linker_0, # of connection points: 2
#     Edge 61, Type (0, 1), BuildingBlock: AJUNOK_clean_linker_0, # of connection points: 2
#     Edge 62, Type (0, 1), BuildingBlock: AJUNOK_clean_linker_0, # of connection points: 2
#     Edge 63, Type (0, 1), BuildingBlock: AJUNOK_clean_linker_0, # of connection points: 2
#     Edge 64, Type (0, 1), BuildingBlock: AJUNOK_clean_linker_0, # of connection points: 2
#     Edge 65, Type (0, 1), BuildingBlock: AJUNOK_clean_linker_0, # of connection points: 2
#     Edge 66, Type (0, 1), BuildingBlock: AJUNOK_clean_linker_0, # of connection points: 2
#     Edge 67, Type (0, 1), BuildingBlock: AJUNOK_clean_linker_0, # of connection points: 2
#     Edge 68, Type (0, 1), BuildingBlock: AJUNOK_clean_linker_0, # of connection points: 2
#     Edge 69, Type (0, 1), BuildingBlock: AJUNOK_clean_linker_0, # of connection points: 2
#     Edge 70, Type (0, 1), BuildingBlock: AJUNOK_clean_linker_0, # of connection points: 2
#     Edge 71, Type (0, 1), BuildingBlock: AJUNOK_clean_linker_0, # of connection points: 2
#     Edge 72, Type (0, 1), BuildingBlock: AJUNOK_clean_linker_0, # of connection points: 2
#     Edge 73, Type (0, 1), BuildingBlock: AJUNOK_clean_linker_0, # of connection points: 2
#     Edge 74, Type (0, 1), BuildingBlock: AJUNOK_clean_linker_0, # of connection points: 2
#     Edge 75, Type (0, 1), BuildingBlock: AJUNOK_clean_linker_0, # of connection points: 2
#     Edge 76, Type (0, 1), BuildingBlock: AJUNOK_clean_linker_0, # of connection points: 2
#     Edge 77, Type (0, 1), BuildingBlock: AJUNOK_clean_linker_0, # of connection points: 2
#     Edge 78, Type (0, 1), BuildingBlock: AJUNOK_clean_linker_0, # of connection points: 2
#     Edge 79, Type (0, 1), BuildingBlock: AJUNOK_clean_linker_0, # of connection points: 2
#     Edge 80, Type (0, 1), BuildingBlock: AJUNOK_clean_linker_0, # of connection points: 2
# Relax obj value: 0.053
# Max RMSD: 0.212
# Mean RMSD: 0.118
data_MOF--net-eea--node1-CUKXOW_clean_sbu_0--node2-QEWDON_clean_linker_0--edge1-AJUNOK_clean_linker_0
_symmetry_space_group_name_H-M    P1
_symmetry_Int_Tables_number       1
_symmetry_cell_setting            triclinic
loop_
_symmetry_equiv_pos_as_xyz
'x, y, z'
_cell_length_a     48.320601
_cell_length_b     44.352771
_cell_length_c     33.294347
_cell_angle_alpha  93.263016
_cell_angle_beta   93.668286
_cell_angle_gamma 120.07929
loop_
_atom_site_label
_atom_site_type_symbol
_atom_site_fract_x
_atom_site_fract_y
_atom_site_fract_z
_atom_type_partial_charge
H0 H 0.24705 0.1498 0.46826 0.0
C1 C 0.24432 0.12634 0.45219 0.0
C2 C 0.26436 0.11331 0.46474 0.0
C3 C 0.21918 0.10767 0.42101 0.0
H4 H 0.27416 0.07111 0.45544 0.0
C5 C 0.25968 0.08201 0.44482 0.0
C6 C 0.23445 0.06303 0.41382 0.0
C7 C 0.21467 0.07632 0.40174 0.0
C8 C 0.1943 0.1173 0.41283 0.0
H9 H 0.19481 0.06147 0.37827 0.0
C10 C 0.20161 0.14953 0.39852 0.0
C11 C 0.17686 0.15701 0.38955 0.0
C12 C 0.16241 0.09313 0.4189 0.0
H13 H 0.15636 0.06831 0.43012 0.0
C14 C 0.13809 0.10076 0.41086 0.0
H15 H 0.2261 0.16803 0.39323 0.0
C16 C 0.14518 0.13237 0.39623 0.0
H17 H 0.12579 0.13767 0.39032 0.0
H18 H 0.11362 0.08204 0.41585 0.0
H19 H 0.87685 0.09102 0.47189 0.0
C20 C 0.89847 0.11157 0.46137 0.0
C21 C 0.91201 0.1466 0.4782 0.0
C22 C 0.91353 0.10237 0.4325 0.0
H23 H 0.95157 0.19962 0.47653 0.0
C24 C 0.94011 0.17267 0.46352 0.0
C25 C 0.95403 0.16394 0.43236 0.0
C26 C 0.94105 0.12866 0.41797 0.0
C27 C 0.90232 0.06512 0.42012 0.0
H28 H 0.95277 0.12146 0.39579 0.0
C29 C 0.86979 0.04113 0.40678 0.0
C30 C 0.85933 1.00549 0.39662 0.0
C31 C 0.92441 0.05333 0.42279 0.0
H32 H 0.94951 0.07126 0.43335 0.0
C33 C 0.91422 0.01815 0.41279 0.0
H34 H 0.85293 0.05041 0.40369 0.0
C35 C 0.88195 0.99434 0.40002 0.0
H36 H 0.87464 0.96702 0.39324 0.0
H37 H 0.93134 1.00922 0.41535 0.0
H38 H 0.92001 0.75668 0.46798 0.0
C39 C 0.89986 0.75941 0.45712 0.0
C40 C 0.86941 0.73857 0.47063 0.0
C41 C 0.90489 0.78541 0.43139 0.0
H42 H 0.82027 0.72748 0.46646 0.0
C43 C 0.84369 0.74263 0.45579 0.0
C44 C 0.84794 0.76705 0.42851 0.0
C45 C 0.87858 0.78846 0.41655 0.0
C46 C 0.93793 0.81204 0.42353 0.0
H47 H 0.88218 0.80841 0.39673 0.0
C48 C 0.96049 0.8026 0.41249 0.0
C49 C 0.99136 0.82859 0.40467 0.0
C50 C 0.94709 0.84771 0.42766 0.0
H51 H 0.93055 0.85585 0.43699 0.0
C52 C 0.97779 0.87337 0.42032 0.0
H53 H 0.95389 0.77529 0.409 0.0
C54 C 0.99978 0.8639 0.40869 0.0
H55 H 0.02347 0.88417 0.40277 0.0
H56 H 0.98453 0.9007 0.42359 0.0
H57 H 0.16256 0.26426 0.564 0.0
C58 C 0.14311 0.26506 0.57761 0.0
C59 C 0.13197 0.28686 0.56355 0.0
C60 C 0.12746 0.24212 0.60653 0.0
H61 H 0.09585 0.30171 0.56739 0.0
C62 C 0.10537 0.28614 0.5794 0.0
C63 C 0.0898 0.26364 0.60886 0.0
C64 C 0.10121 0.24205 0.62237 0.0
C65 C 0.13527 0.21481 0.61637 0.0
H66 H 0.08847 0.22362 0.64384 0.0
C67 C 0.16694 0.22313 0.62915 0.0
C68 C 0.17295 0.1966 0.64034 0.0
C69 C 0.1102 0.17967 0.61343 0.0
H70 H 0.08576 0.17248 0.60301 0.0
C71 C 0.11633 0.1534 0.62364 0.0
H72 H 0.18649 0.25008 0.6317 0.0
C73 C 0.14744 0.16178 0.63724 0.0
H74 H 0.15168 0.14099 0.64531 0.0
H75 H 0.09685 0.12647 0.62122 0.0
H76 H 0.79169 0.91175 0.57809 0.0
C77 C 0.79353 0.88963 0.5869 0.0
C78 C 0.77273 0.85586 0.56661 0.0
C79 C 0.81814 0.89564 0.61677 0.0
H80 H 0.76213 0.80192 0.56184 0.0
C81 C 0.77632 0.82772 0.5782 0.0
C82 C 0.79947 0.83301 0.60981 0.0
C83 C 0.82028 0.8669 0.62875 0.0
C84 C 0.84433 0.9321 0.63104 0.0
H85 H 0.83901 0.87105 0.65193 0.0
C86 C 0.83801 0.95925 0.64181 0.0
C87 C 0.86362 0.99415 0.65208 0.0
C88 C 0.87644 0.94021 0.63121 0.0
H89 H 0.88214 0.92023 0.62235 0.0
C90 C 0.90167 0.97439 0.64129 0.0
H91 H 0.81336 0.95302 0.64266 0.0
C92 C 0.89541 1.00112 0.65126 0.0
H93 H 0.91568 0.02754 0.65778 0.0
H94 H 0.92626 0.98031 0.6407 0.0
H95 H 0.12129 0.8817 0.56052 0.0
C96 C 0.14333 0.90009 0.57922 0.0
C97 C 0.17338 0.90918 0.56557 0.0
C98 C 0.14207 0.91759 0.6153 0.0
H99 H 0.22487 0.94206 0.57854 0.0
C100 C 0.20174 0.93478 0.58903 0.0
C101 C 0.20072 0.95378 0.62333 0.0
C102 C 0.171 0.94377 0.63739 0.0
C103 C 0.11154 0.9143 0.6271 0.0
H104 H 0.17016 0.9586 0.66386 0.0
C105 C 0.08474 0.882 0.63412 0.0
C106 C 0.05817 0.8813 0.65091 0.0
C107 C 0.11059 0.94529 0.63459 0.0
H108 H 0.1304 0.97031 0.62849 0.0
C109 C 0.08483 0.94479 0.65131 0.0
H110 H 0.08491 0.85798 0.62698 0.0
C111 C 0.05926 0.91335 0.66023 0.0
H112 H 0.04018 0.91431 0.67457 0.0
H113 H 0.0849 0.96901 0.658 0.0
H114 H 0.92933 0.49037 0.79115 0.0
C115 C 0.92381 0.46467 0.77947 0.0
C116 C 0.94054 0.44861 0.79583 0.0
C117 C 0.89833 0.4468 0.74811 0.0
H118 H 0.94039 0.39918 0.79177 0.0
C119 C 0.93093 0.41432 0.77864 0.0
C120 C 0.90773 0.39766 0.74523 0.0
C121 C 0.89184 0.4142 0.72991 0.0
C122 C 0.87562 0.45942 0.73719 0.0
H123 H 0.87354 0.40104 0.70437 0.0
C124 C 0.88593 0.49517 0.73409 0.0
C125 C 0.8631 0.50539 0.7247 0.0
C126 C 0.84238 0.43471 0.73109 0.0
H127 H 0.83339 0.40728 0.73447 0.0
C128 C 0.82005 0.44491 0.72136 0.0
H129 H 0.91127 0.5148 0.73903 0.0
C130 C 0.83029 0.47997 0.71815 0.0
H131 H 0.81248 0.48742 0.71096 0.0
H132 H 0.79465 0.42556 0.71674 0.0
H133 H 0.54177 0.4444 0.79147 0.0
C134 C 0.56246 0.46403 0.77831 0.0
C135 C 0.57609 0.49955 0.79237 0.0
C136 C 0.5775 0.45353 0.75069 0.0
H137 H 0.61496 0.55215 0.78873 0.0
C138 C 0.60417 0.52485 0.77713 0.0
C139 C 0.61897 0.51482 0.74837 0.0
C140 C 0.60548 0.47902 0.73576 0.0
C141 C 0.56685 0.41597 0.7414 0.0
H142 H 0.61764 0.47063 0.71562 0.0
C143 C 0.53456 0.3909 0.7278 0.0
C144 C 0.52557 0.35564 0.71791 0.0
C145 C 0.5896 0.40517 0.74626 0.0
H146 H 0.61444 0.42382 0.75733 0.0
C147 C 0.58054 0.37018 0.73745 0.0
H148 H 0.51682 0.39892 0.72387 0.0
C149 C 0.54879 0.34556 0.72336 0.0
H150 H 0.54227 0.31843 0.71701 0.0
H151 H 0.5982 0.36211 0.74158 0.0
H152 H 0.5916 0.09817 0.8152 0.0
C153 C 0.57101 0.09674 0.79818 0.0
C154 C 0.53997 0.07525 0.80954 0.0
C155 C 0.57584 0.11883 0.7675 0.0
H156 H 0.48976 0.05876 0.79775 0.0
C157 C 0.51356 0.07456 0.78831 0.0
C158 C 0.51793 0.09639 0.75743 0.0
C159 C 0.54915 0.11825 0.74711 0.0
C160 C 0.60883 0.14611 0.76058 0.0
H161 H 0.553 0.13642 0.72474 0.0
C162 C 0.63274 0.13774 0.75323 0.0
C163 C 0.66352 0.16423 0.74577 0.0
C164 C 0.61644 0.18122 0.76148 0.0
H165 H 0.59868 0.18845 0.76775 0.0
C166 C 0.64709 0.20744 0.7547 0.0
H167 H 0.62723 0.11081 0.75222 0.0
C168 C 0.67048 0.19901 0.74664 0.0
H169 H 0.69406 0.21963 0.74091 0.0
H170 H 0.65267 0.23435 0.75545 0.0
H171 H 0.82592 0.59935 0.89626 0.0
C172 C 0.80929 0.60212 0.91433 0.0
C173 C 0.79766 0.62431 0.90356 0.0
C174 C 0.79772 0.58174 0.94659 0.0
H175 H 0.76185 0.63866 0.9125 0.0
C176 C 0.77292 0.6243 0.9237 0.0
C177 C 0.76093 0.60362 0.95594 0.0
C178 C 0.77594 0.5853 0.96932 0.0
C179 C 0.80237 0.5515 0.95164 0.0
H180 H 0.76865 0.57099 0.99563 0.0
C181 C 0.83304 0.55493 0.95593 0.0
C182 C 0.8359 0.52515 0.96049 0.0
C183 C 0.77489 0.5181 0.95137 0.0
H184 H 0.751 0.51454 0.94709 0.0
C185 C 0.77775 0.48882 0.95618 0.0
H186 H 0.85439 0.58044 0.95587 0.0
C187 C 0.80802 0.49228 0.96097 0.0
H188 H 0.80968 0.46919 0.96534 0.0
H189 H 0.75642 0.46335 0.95623 0.0
H190 H 0.46559 0.25522 0.90646 0.0
C191 C 0.4663 0.23546 0.92352 0.0
C192 C 0.44523 0.19978 0.91058 0.0
C193 C 0.48986 0.24568 0.95636 0.0
H194 H 0.43214 0.14678 0.92019 0.0
C195 C 0.4473 0.17418 0.93147 0.0
C196 C 0.47079 0.18409 0.96463 0.0
C197 C 0.49157 0.21988 0.97709 0.0
C198 C 0.51576 0.28281 0.96529 0.0
H199 H 0.51009 0.22779 1.00214 0.0
C200 C 0.50894 0.30995 0.97248 0.0
C201 C 0.53424 0.34506 0.98061 0.0
C202 C 0.54793 0.29111 0.96582 0.0
H203 H 0.55374 0.27075 0.95989 0.0
C204 C 0.5729 0.32573 0.97322 0.0
H205 H 0.48419 0.30361 0.97282 0.0
C206 C 0.56619 0.35251 0.9805 0.0
H207 H 0.58612 0.37923 0.98586 0.0
H208 H 0.59759 0.33185 0.97322 0.0
H209 H 0.79442 0.21387 0.88482 0.0
C210 C 0.81418 0.23352 0.9059 0.0
C211 C 0.84607 0.24593 0.89761 0.0
C212 C 0.80768 0.24898 0.93925 0.0
H213 H 0.89591 0.28341 0.91676 0.0
C214 C 0.87138 0.27306 0.9239 0.0
C215 C 0.86536 0.28919 0.95694 0.0
C216 C 0.8333 0.2768 0.96452 0.0
C217 C 0.7745 0.24124 0.94292 0.0
H218 H 0.82815 0.28989 0.98892 0.0
C219 C 0.75202 0.21138 0.96017 0.0
C220 C 0.72113 0.20604 0.96478 0.0
C221 C 0.76562 0.26495 0.92954 0.0
H222 H 0.78261 0.28798 0.91614 0.0
C223 C 0.73485 0.25924 0.93339 0.0
H224 H 0.75877 0.19309 0.97088 0.0
C225 C 0.71276 0.23008 0.95109 0.0
H226 H 0.68909 0.22631 0.95433 0.0
H227 H 0.72819 0.27766 0.92299 0.0
H228 H 0.57697 0.81703 0.14458 0.0
C229 C 0.57734 0.79781 0.12341 0.0
C230 C 0.59424 0.78098 0.13519 0.0
C231 C 0.55843 0.78733 0.08572 0.0
H232 H 0.60597 0.74156 0.11728 0.0
C233 C 0.59328 0.75487 0.10816 0.0
C234 C 0.57379 0.74339 0.07125 0.0
C235 C 0.55729 0.7605 0.05965 0.0
C236 C 0.53549 0.79958 0.07604 0.0
H237 H 0.54212 0.75164 0.03108 0.0
C238 C 0.5452 0.83549 0.07828 0.0
C239 C 0.52237 0.84562 0.06873 0.0
C240 C 0.50294 0.77436 0.06455 0.0
H241 H 0.49473 0.74663 0.06323 0.0
C242 C 0.48051 0.78446 0.05507 0.0
H243 H 0.57012 0.85524 0.0873 0.0
C244 C 0.49011 0.81982 0.05705 0.0
H245 H 0.47226 0.82713 0.04946 0.0
H246 H 0.45556 0.76481 0.04625 0.0
H247 H 0.21065 0.7778 0.1182 0.0
C248 C 0.23231 0.79968 0.10976 0.0
C249 C 0.24767 0.83188 0.13474 0.0
C250 C 0.24514 0.79528 0.07454 0.0
H251 H 0.29101 0.88303 0.14473 0.0
C252 C 0.2771 0.85941 0.12433 0.0
C253 C 0.28945 0.85598 0.08829 0.0
C254 C 0.27231 0.82455 0.06293 0.0
C255 C 0.23265 0.75994 0.05169 0.0
H256 H 0.28115 0.82264 0.03438 0.0
C257 C 0.2003 0.73253 0.05073 0.0
C258 C 0.19041 0.69904 0.03146 0.0
C259 C 0.25429 0.75272 0.03248 0.0
H260 H 0.27962 0.77196 0.03392 0.0
C261 C 0.24402 0.72 0.01212 0.0
H262 H 0.18299 0.73665 0.06553 0.0
C263 C 0.21234 0.69327 0.01171 0.0
H264 H 0.20507 0.66762 0.99685 0.0
H265 H 0.26098 0.71507 0.99758 0.0
H266 H 0.25706 0.43946 0.17214 0.0
C267 C 0.24138 0.44205 0.14958 0.0
C268 C 0.20786 0.4206 0.1483 0.0
C269 C 0.25469 0.46881 0.1238 0.0
H270 H 0.16228 0.4074 0.11669 0.0
C271 C 0.18817 0.42454 0.11896 0.0
C272 C 0.2008 0.45329 0.09642 0.0
C273 C 0.23426 0.47515 0.0981 0.0
C274 C 0.28967 0.49338 0.12865 0.0
H275 H 0.24425 0.49796 0.08139 0.0
C276 C 0.31023 0.48665 0.10667 0.0
C277 C 0.34372 0.50931 0.11355 0.0
C278 C 0.30267 0.52305 0.15692 0.0
H279 H 0.2871 0.52849 0.17414 0.0
C280 C 0.33589 0.54569 0.16347 0.0
H281 H 0.30029 0.46368 0.08489 0.0
C282 C 0.35639 0.53873 0.14222 0.0
H283 H 0.38214 0.55646 0.14787 0.0
H284 H 0.34576 0.56863 0.18513 0.0
H285 H 0.49037 0.93435 0.22703 0.0
C286 C 0.471 0.93343 0.24255 0.0
C287 C 0.46301 0.95974 0.23911 0.0
C288 C 0.45254 0.90429 0.26331 0.0
H289 H 0.43207 0.97841 0.25937 0.0
C290 C 0.43754 0.95754 0.25953 0.0
C291 C 0.41788 0.9277 0.27861 0.0
C292 C 0.42581 0.90142 0.28088 0.0
C293 C 0.45932 0.87525 0.2634 0.0
H294 H 0.41058 0.87815 0.29526 0.0
C295 C 0.49031 0.88169 0.27611 0.0
C296 C 0.49628 0.85382 0.27644 0.0
C297 C 0.43461 0.84076 0.25058 0.0
H298 H 0.41064 0.83522 0.24028 0.0
C299 C 0.44073 0.81316 0.25043 0.0
H300 H 0.50952 0.90812 0.28636 0.0
C301 C 0.47141 0.8196 0.26338 0.0
H302 H 0.47574 0.79788 0.26349 0.0
H303 H 0.4216 0.7867 0.2404 0.0
H304 H 0.12365 0.5759 0.24924 0.0
C305 C 0.12396 0.55372 0.26068 0.0
C306 C 0.10471 0.51994 0.23955 0.0
C307 C 0.14468 0.55942 0.29557 0.0
H308 H 0.09454 0.46623 0.23707 0.0
C309 C 0.10677 0.49173 0.25433 0.0
C310 C 0.1262 0.49674 0.29035 0.0
C311 C 0.14412 0.53036 0.31111 0.0
C312 C 0.16959 0.59561 0.31348 0.0
H313 H 0.15881 0.53404 0.33899 0.0
C314 C 0.164 0.62407 0.31449 0.0
C315 C 0.18886 0.6581 0.3297 0.0
C316 C 0.20036 0.6021 0.32807 0.0
H317 H 0.2062 0.5815 0.32649 0.0
C318 C 0.22454 0.63547 0.34396 0.0
H319 H 0.14078 0.62003 0.30303 0.0
C320 C 0.2189 0.66328 0.34477 0.0
H321 H 0.23824 0.6891 0.35692 0.0
H322 H 0.24796 0.63991 0.35511 0.0
H323 H 0.44735 0.54563 0.21141 0.0
C324 C 0.46608 0.56682 0.23216 0.0
C325 C 0.49858 0.57965 0.2266 0.0
C326 C 0.45771 0.58253 0.26325 0.0
H327 H 0.54751 0.61956 0.24713 0.0
C328 C 0.52253 0.60815 0.25276 0.0
C329 C 0.51458 0.62371 0.28438 0.0
C330 C 0.48205 0.61087 0.28928 0.0
C331 C 0.42369 0.57218 0.26592 0.0
H332 H 0.47561 0.62335 0.3129 0.0
C333 C 0.40046 0.53777 0.27241 0.0
C334 C 0.36831 0.5289 0.27514 0.0
C335 C 0.41449 0.59738 0.26198 0.0
H336 H 0.43198 0.62393 0.25683 0.0
C337 C 0.38264 0.58851 0.26421 0.0
H338 H 0.4074 0.51821 0.27569 0.0
C339 C 0.35965 0.5545 0.27063 0.0
H340 H 0.33508 0.54829 0.27269 0.0
H341 H 0.37573 0.60806 0.26097 0.0
Tb342 Tb 0.54921 0.05499 0.04214 0.0
C343 C 0.52587 0.97491 0.04913 0.0
Tb344 Tb 0.47609 1.00016 0.02849 0.0
O345 O 0.54737 0.06954 0.10585 0.0
O346 O 0.51313 0.02162 0.07684 0.0
O347 O 0.55009 1.00562 0.0413 0.0
C348 C 0.41414 0.95772 0.03959 0.0
O349 O 0.49637 0.96945 0.05152 0.0
C350 C 0.50639 0.01577 0.96215 0.0
C351 C 0.49828 0.08032 0.02675 0.0
O352 O 0.43193 0.94868 0.0206 0.0
O353 O 0.43104 0.99099 0.05128 0.0
O354 O 0.47955 0.98684 0.96464 0.0
O355 O 0.5119 0.03496 0.9942 0.0
O356 O 0.47448 0.04869 0.03247 0.0
O357 O 0.52838 0.08714 0.0251 0.0
C358 C 0.61078 0.0965 0.02906 0.0
O359 O 0.59606 0.10289 0.05666 0.0
O360 O 0.59086 0.0662 0.00923 0.0
C361 C 0.51935 0.04209 0.10805 0.0
Tb362 Tb 1.00093 0.51012 0.02039 0.0
C363 C 0.07302 0.56554 0.02505 0.0
Tb364 Tb 0.04762 0.48366 0.01943 0.0
O365 O 1.01624 0.52957 0.08485 0.0
O366 O 0.01749 0.48603 0.06092 0.0
O367 O 0.04398 0.55867 0.01069 0.0
C368 C 0.09682 0.47408 0.03973 0.0
O369 O 0.07852 0.54025 0.03462 0.0
C370 C 0.02284 0.48435 0.94748 0.0
C371 C 0.97443 0.42722 0.01295 0.0
O372 O 0.08812 0.47767 1.00353 0.0
O373 O 0.07735 0.47503 0.06417 0.0
O374 O 0.03237 0.46264 0.95649 0.0
O375 O 0.03029 0.50685 0.97754 0.0
O376 O 1.0041 0.43289 0.02075 0.0
O377 O 0.96852 0.4533 0.01035 0.0
C378 C 0.95129 0.51894 0.99897 0.0
O379 O 0.95694 0.49586 0.98215 0.0
O380 O 0.97365 0.53726 0.02849 0.0
C381 C 0.02513 0.50707 0.09204 0.0
Tb382 Tb 0.49968 0.52192 1.00541 0.0
C383 C 0.52858 0.47187 1.00651 0.0
Tb384 Tb 0.57751 0.55521 0.01903 0.0
O385 O 0.49489 0.51144 0.9387 0.0
O386 O 0.5391 0.53586 0.97257 0.0
O387 O 0.50241 0.47446 0.00908 0.0
C388 C 0.63905 0.57711 0.01037 0.0
O389 O 0.55828 0.49893 1.00614 0.0
C390 C 0.55004 0.55143 0.08658 0.0
C391 C 0.54888 0.60527 0.01436 0.0
O392 O 0.62025 0.55088 0.02956 0.0
O393 O 0.62298 0.59097 0.99534 0.0
O394 O 0.58088 0.5648 0.08602 0.0
O395 O 0.53812 0.54134 0.05064 0.0
O396 O 0.57438 0.60172 0.01027 0.0
O397 O 0.51935 0.57844 0.01647 0.0
C398 C 0.44224 0.50256 0.03027 0.0
O399 O 0.45365 0.52061 0.99976 0.0
O400 O 0.46278 0.4944 0.04554 0.0
C401 C 0.52574 0.52439 0.93691 0.0
Tb402 Tb 0.20195 0.36212 0.34586 0.0
C403 C 0.17825 0.28074 0.34411 0.0
Tb404 Tb 0.12758 0.30742 0.34281 0.0
O405 O 0.20246 0.37957 0.41024 0.0
O406 O 0.16892 0.33049 0.3837 0.0
O407 O 0.20321 0.3132 0.34361 0.0
C408 C 0.07181 0.26352 0.36902 0.0
O409 O 0.14768 0.27291 0.34377 0.0
C410 C 0.14815 0.33046 0.27404 0.0
C411 C 0.15118 0.38781 0.34147 0.0
O412 O 0.08032 0.25971 0.33356 0.0
O413 O 0.09476 0.29191 0.38955 0.0
O414 O 0.11843 0.31809 0.28157 0.0
O415 O 0.16337 0.32605 0.30301 0.0
O416 O 0.1286 0.35731 0.35204 0.0
O417 O 0.1802 0.39394 0.33449 0.0
C418 C 0.25893 0.40456 0.32011 0.0
O419 O 0.25497 0.39193 0.35509 0.0
O420 O 0.23097 0.39276 0.30013 0.0
C421 C 0.17633 0.35052 0.4153 0.0
Tb422 Tb 0.65691 0.84026 0.35773 0.0
C423 C 0.73097 0.888 0.35914 0.0
Tb424 Tb 0.69726 0.80446 0.35856 0.0
O425 O 0.67845 0.86543 0.41914 0.0
O426 O 0.67227 0.81651 0.40012 0.0
O427 O 0.70298 0.8866 0.35222 0.0
C428 C 0.74123 0.78686 0.3787 0.0
O429 O 0.73368 0.86014 0.36474 0.0
C430 C 0.66929 0.80219 0.28791 0.0
C431 C 0.62323 0.75629 0.35469 0.0
O432 O 0.73307 0.79087 0.34239 0.0
O433 O 0.72415 0.79216 0.40366 0.0
O434 O 0.67611 0.77854 0.2979 0.0
O435 O 0.68112 0.82724 0.31567 0.0
O436 O 0.65129 0.75882 0.36566 0.0
O437 O 0.62073 0.78411 0.3475 0.0
C438 C 0.61326 0.85777 0.3349 0.0
O439 O 0.61756 0.84926 0.37052 0.0
O440 O 0.63403 0.8571 0.3126 0.0
C441 C 0.68403 0.84077 0.42864 0.0
Tb442 Tb 0.16112 0.83932 0.34506 0.0
C443 C 0.18877 0.78932 0.34147 0.0
Tb444 Tb 0.23439 0.87292 0.34883 0.0
O445 O 0.15672 0.81656 0.28296 0.0
O446 O 0.19687 0.86445 0.30556 0.0
O447 O 0.16385 0.79224 0.3509 0.0
C448 C 0.29341 0.89406 0.32853 0.0
O449 O 0.21693 0.81689 0.3358 0.0
C450 C 0.2124 0.8728 0.41879 0.0
C451 C 0.20717 0.92314 0.35643 0.0
O452 O 0.2831 0.88188 0.36248 0.0
O453 O 0.27046 0.8942 0.30627 0.0
O454 O 0.2412 0.89559 0.41098 0.0
O455 O 0.19887 0.84932 0.38926 0.0
O456 O 0.23192 0.92026 0.34635 0.0
O457 O 0.17867 0.89532 0.36021 0.0
C458 C 0.10118 0.82177 0.35883 0.0
O459 O 0.1221 0.82065 0.38426 0.0
O460 O 0.114 0.83236 0.32559 0.0
C461 C 0.18475 0.84151 0.27565 0.0
Tb462 Tb 0.87971 0.70957 0.6958 0.0
C463 C 0.8607 0.63003 0.69789 0.0
Tb464 Tb 0.80548 0.64926 0.6808 0.0
O465 O 0.87294 0.72238 0.75887 0.0
O466 O 0.84284 0.67474 0.72806 0.0
O467 O 0.88422 0.66259 0.69388 0.0
C468 C 0.74595 0.60836 0.69998 0.0
O469 O 0.82959 0.62031 0.69735 0.0
C470 C 0.83212 0.66517 0.61221 0.0
C471 C 0.82619 0.72666 0.66416 0.0
O472 O 0.75909 0.60019 0.67158 0.0
O473 O 0.76641 0.63943 0.71766 0.0
O474 O 0.8021 0.64157 0.61417 0.0
O475 O 0.84448 0.67729 0.64805 0.0
O476 O 0.80343 0.69743 0.67708 0.0
O477 O 0.85621 0.73348 0.6631 0.0
C478 C 0.94029 0.76114 0.6918 0.0
O479 O 0.91594 0.76482 0.69825 0.0
O480 O 0.93067 0.72781 0.6877 0.0
C481 C 0.84623 0.69302 0.75979 0.0
Tb482 Tb 0.33138 0.17412 0.69606 0.0
C483 C 0.40385 0.23024 0.68271 0.0
Tb484 Tb 0.37897 0.14937 0.67976 0.0
O485 O 0.33443 0.16606 0.76047 0.0
O486 O 0.37273 0.17834 0.72721 0.0
O487 O 0.37419 0.22413 0.68629 0.0
C488 C 0.41863 0.12557 0.69872 0.0
O489 O 0.41156 0.20542 0.68304 0.0
C490 C 0.34915 0.15539 0.61429 0.0
C491 C 0.30599 0.09221 0.68512 0.0
O492 O 0.41455 0.13496 0.66351 0.0
O493 O 0.40015 0.12926 0.72262 0.0
O494 O 0.37675 0.15664 0.61522 0.0
O495 O 0.33837 0.14649 0.64777 0.0
O496 O 0.33613 0.09904 0.68679 0.0
O497 O 0.29861 0.1173 0.68335 0.0
C498 C 0.29013 0.19768 0.68823 0.0
O499 O 0.29236 0.18032 0.71714 0.0
O500 O 0.31168 0.20236 0.66402 0.0
C501 C 0.36271 0.16932 0.76086 0.0
Tb502 Tb 0.83281 0.17326 0.68391 0.0
C503 C 0.8602 0.12258 0.68133 0.0
Tb504 Tb 0.906 0.20603 0.68127 0.0
O505 O 0.82475 0.14841 0.62224 0.0
O506 O 0.86624 0.19628 0.64119 0.0
O507 O 0.83512 0.12581 0.68925 0.0
C508 C 0.96462 0.22686 0.65888 0.0
O509 O 0.88867 0.14952 0.67514 0.0
C510 C 0.88783 0.20887 0.75294 0.0
C511 C 0.87899 0.25678 0.68943 0.0
O512 O 0.95647 0.22134 0.69531 0.0
O513 O 0.93951 0.22003 0.63478 0.0
O514 O 0.91584 0.23131 0.7426 0.0
O515 O 0.87285 0.18442 0.7247 0.0
O516 O 0.90283 0.25302 0.67714 0.0
O517 O 0.85112 0.22962 0.69657 0.0
C518 C 0.77441 0.15773 0.7028 0.0
O519 O 0.79657 0.1577 0.72698 0.0
O520 O 0.78505 0.16595 0.66788 0.0
C521 C 0.85223 0.17248 0.6123 0.0
C522 C 0.34287 0.87315 0.06381 0.0
C523 C 0.32154 0.88341 0.0777 0.0
C524 C 0.37229 0.89731 0.05083 0.0
C525 C 0.38201 0.93296 0.05165 0.0
H526 H 0.33679 0.84604 0.06293 0.0
H527 H 0.38776 0.88796 0.04063 0.0
S528 S 0.33539 0.97381 0.08493 0.0
N529 N 0.31232 0.93194 0.09112 0.0
N530 N 0.36805 0.97759 0.06722 0.0
C531 C 0.36127 0.94387 0.06583 0.0
C532 C 0.33103 0.9191 0.07888 0.0
C533 C 0.16163 0.47241 0.10716 0.0
C534 C 0.17824 0.46385 0.07981 0.0
C535 C 0.13559 0.47602 0.09367 0.0
C536 C 0.12537 0.47156 0.05224 0.0
H537 H 0.16812 0.47506 0.13947 0.0
H538 H 0.1231 0.48183 0.116 0.0
S539 S 0.16222 0.45123 0.9682 0.0
N540 N 0.18373 0.45239 0.00955 0.0
N541 N 0.13497 0.46006 0.98366 0.0
C542 C 0.14269 0.46459 0.02435 0.0
C543 C 0.16916 0.46056 0.03827 0.0
C544 C 0.59193 0.70396 0.0409 0.0
C545 C 0.56674 0.70989 0.04892 0.0
C546 C 0.58581 0.67045 0.02727 0.0
C547 C 0.55423 0.64139 0.02147 0.0
H548 H 0.61667 0.72515 0.04679 0.0
H549 H 0.60622 0.66713 0.02318 0.0
S550 S 0.47954 0.64377 0.03541 0.0
N551 N 0.50893 0.68449 0.04808 0.0
N552 N 0.49721 0.62176 0.02184 0.0
C553 C 0.52868 0.64749 0.02717 0.0
C554 C 0.53498 0.68164 0.04104 0.0
C555 C 0.88902 0.35242 0.98161 0.0
C556 C 0.89223 0.32262 0.97839 0.0
C557 C 0.91544 0.38568 0.99459 0.0
C558 C 0.9464 0.39078 1.00487 0.0
H559 H 0.86627 0.35042 0.97192 0.0
H560 H 0.91159 0.40774 0.99492 0.0
S561 S 0.96663 0.32033 1.00686 0.0
N562 N 0.92792 0.29959 0.99059 0.0
N563 N 0.97781 0.3622 0.0146 0.0
C564 C 0.94955 0.36085 1.00407 0.0
C565 C 0.92248 0.32683 0.99089 0.0
C566 C 0.72298 0.62422 0.9763 0.0
C567 C 0.73047 0.59733 0.97228 0.0
C568 C 0.69357 0.61788 0.98937 0.0
C569 C 0.67113 0.58482 1.00027 0.0
H570 H 0.73977 0.65028 0.96894 0.0
H571 H 0.68834 0.63896 0.99089 0.0
S572 S 0.67723 0.50472 0.99289 0.0
N573 N 0.71059 0.53508 0.97679 0.0
N574 N 0.65783 0.52485 1.00603 0.0
C575 C 0.67851 0.55802 0.99754 0.0
C576 C 0.70747 0.56381 0.98227 0.0
C577 C 0.50834 0.16365 0.98766 0.0
C578 C 0.47681 0.15778 0.98302 0.0
C579 C 0.51504 0.1391 1.00331 0.0
C580 C 0.49051 0.10739 0.01499 0.0
H581 H 0.52803 0.18711 0.97808 0.0
H582 H 0.5397 0.14484 1.00518 0.0
S583 S 0.40399 0.08047 0.01159 0.0
N584 N 0.42096 0.11889 0.99331 0.0
N585 N 0.43331 0.07237 0.02259 0.0
C586 C 0.45887 0.10156 0.01155 0.0
C587 C 0.45208 0.12673 0.99547 0.0
C588 C 0.67948 0.14264 0.96444 0.0
C589 C 0.69735 0.17643 0.98511 0.0
C590 C 0.65242 0.11608 0.98006 0.0
C591 C 0.64239 0.12256 0.01677 0.0
H592 H 0.68542 0.13728 0.93505 0.0
H593 H 0.63837 0.0909 0.96224 0.0
S594 S 0.68326 0.20599 0.08401 0.0
N595 N 0.70474 0.21433 0.04518 0.0
N596 N 0.65423 0.16464 0.07477 0.0
C597 C 0.66125 0.15575 0.03868 0.0
C598 C 0.68863 0.18267 0.02274 0.0
C599 C 0.89048 0.54941 0.99838 0.0
C600 C 0.8676 0.5275 0.96604 0.0
C601 C 0.91807 0.5472 0.0084 0.0
C602 C 0.92348 0.52291 0.98646 0.0
H603 H 0.88631 0.56721 0.01716 0.0
H604 H 0.9347 0.56383 0.03419 0.0
S605 S 0.87249 0.46255 0.89618 0.0
N606 N 0.8537 0.48337 0.90973 0.0
N607 N 0.90473 0.47827 0.92916 0.0
C608 C 0.90143 0.50198 0.95296 0.0
C609 C 0.8737 0.50456 0.94256 0.0
C610 C 0.54764 0.40045 0.02186 0.0
C611 C 0.5283 0.37447 0.98994 0.0
C612 C 0.54642 0.43121 0.02801 0.0
C613 C 0.52528 0.43691 1.00313 0.0
H614 H 0.56471 0.39753 0.04154 0.0
H615 H 0.56277 0.45113 0.05184 0.0
S616 S 0.46858 0.37699 0.91645 0.0
N617 N 0.48671 0.35637 0.93365 0.0
N618 N 0.48373 0.41394 0.94634 0.0
C619 C 0.50456 0.41057 0.97246 0.0
C620 C 0.50617 0.37934 0.96565 0.0
C621 C 0.15686 0.64182 0.0572 0.0
C622 C 0.15845 0.66844 0.03492 0.0
C623 C 0.12866 0.60926 0.05491 0.0
C624 C 0.10083 0.60189 0.03007 0.0
H625 H 0.1781 0.64574 0.07526 0.0
H626 H 0.1291 0.58937 0.07192 0.0
S627 S 0.09217 0.66408 0.96778 0.0
N628 N 0.12975 0.68652 0.98903 0.0
N629 N 0.07621 0.62507 0.98465 0.0
C630 C 0.10159 0.62903 0.00924 0.0
C631 C 0.13057 0.66238 0.01163 0.0
C632 C 0.36902 0.50935 0.05039 0.0
C633 C 0.36587 0.5027 0.09109 0.0
C634 C 0.39301 0.50778 0.03021 0.0
C635 C 0.41425 0.49899 0.04995 0.0
H636 H 0.35373 0.51724 0.03462 0.0
H637 H 0.39552 0.5145 0.99935 0.0
S638 S 0.41412 0.47694 0.15591 0.0
N639 N 0.38478 0.48573 0.15001 0.0
N640 N 0.42924 0.4817 0.11204 0.0
C641 C 0.41025 0.49072 0.09017 0.0
C642 C 0.38623 0.49291 0.1108 0.0
C643 C 0.54844 0.9043 0.0416 0.0
C644 C 0.53086 0.88277 0.07088 0.0
C645 C 0.54898 0.93592 0.03641 0.0
C646 C 0.53164 0.9465 0.06009 0.0
H647 H 0.5599 0.89549 0.02082 0.0
H648 H 0.56105 0.95077 0.01196 0.0
S649 S 0.4862 0.90184 0.14481 0.0
N650 N 0.4992 0.87627 0.12683 0.0
N651 N 0.49994 0.93519 0.11715 0.0
C652 C 0.51619 0.92647 0.09148 0.0
C653 C 0.51588 0.8947 0.09687 0.0
C654 C 1.00999 0.21627 0.4416 0.0
C655 C 0.98302 0.19112 0.41562 0.0
C656 C 0.03852 0.24002 0.42617 0.0
C657 C 0.04113 0.2392 0.38431 0.0
H658 H 1.0094 0.21695 0.4741 0.0
H659 H 0.05892 0.25855 0.44727 0.0
S660 S 0.97643 0.18114 0.30334 0.0
N661 N 0.95988 0.16908 0.3458 0.0
N662 N 1.01379 0.21296 0.31706 0.0
C663 C 1.01412 0.21494 0.35799 0.0
C664 C 0.98499 0.19111 0.37359 0.0
C665 C 0.80245 0.77621 0.4435 0.0
C666 C 0.82063 0.77171 0.41488 0.0
C667 C 0.77647 0.78058 0.43145 0.0
C668 C 0.76774 0.78054 0.39035 0.0
H669 H 0.80862 0.77682 0.47553 0.0
H670 H 0.7634 0.7844 0.45456 0.0
S671 S 0.80691 0.76842 0.30351 0.0
N672 N 0.8276 0.76647 0.34371 0.0
N673 N 0.77889 0.77494 0.32094 0.0
C674 C 0.78554 0.77578 0.3614 0.0
C675 C 0.81201 0.77137 0.37371 0.0
C676 C 0.24997 0.02226 0.38059 0.0
C677 C 0.22653 0.02751 0.39715 0.0
C678 C 0.2431 0.98862 0.36606 0.0
C679 C 0.21257 0.95882 0.36791 0.0
H680 H 0.27385 0.04433 0.37901 0.0
H681 H 0.26218 0.98599 0.35405 0.0
S682 S 0.14319 0.95887 0.41021 0.0
N683 N 0.1719 1.00045 0.41549 0.0
N684 N 0.15875 0.93731 0.38832 0.0
C685 C 0.18884 0.96394 0.38427 0.0
C686 C 0.19588 0.99822 0.39889 0.0
C687 C 0.5384 0.68616 0.31296 0.0
C688 C 0.54042 0.65562 0.30925 0.0
C689 C 0.56467 0.71816 0.33026 0.0
C690 C 0.59407 0.72096 0.34459 0.0
H691 H 0.517 0.6858 0.30031 0.0
H692 H 0.56228 0.74118 0.33047 0.0
S693 S 0.60976 0.64712 0.34728 0.0
N694 N 0.57256 0.62903 0.32541 0.0
N695 N 0.6221 0.68906 0.35776 0.0
C696 C 0.59553 0.68996 0.34363 0.0
C697 C 0.56873 0.65738 0.32592 0.0
C698 C 0.37847 0.91049 0.33043 0.0
C699 C 0.38708 0.92195 0.29222 0.0
C700 C 0.3483 0.90215 0.34233 0.0
C701 C 0.32566 0.90478 0.31633 0.0
H702 H 0.39506 0.90766 0.35111 0.0
H703 H 0.34251 0.89307 0.37184 0.0
S704 S 0.33633 0.93325 0.21296 0.0
N705 N 0.37034 0.93507 0.22829 0.0
N706 N 0.314 0.92002 0.25085 0.0
C707 C 0.33412 0.91665 0.27828 0.0
C708 C 0.36476 0.9251 0.26618 0.0
C709 C 0.16265 0.47498 0.31379 0.0
C710 C 0.13111 0.4683 0.30471 0.0
C711 C 0.16865 0.44929 0.32738 0.0
C712 C 0.1434 0.41556 0.33268 0.0
H713 H 0.18305 0.50022 0.30959 0.0
H714 H 0.19348 0.4559 0.33298 0.0
S715 S 0.05619 0.38489 0.31414 0.0
N716 N 0.07418 0.42583 0.30291 0.0
N717 N 0.08527 0.37719 0.32833 0.0
C718 C 0.11161 0.40868 0.32458 0.0
C719 C 0.10552 0.43501 0.31042 0.0
C720 C 0.31456 0.47501 0.25805 0.0
C721 C 0.34337 0.49355 0.28393 0.0
C722 C 0.28807 0.44495 0.26921 0.0
C723 C 0.28923 0.43242 0.30685 0.0
H724 H 0.31207 0.48468 0.22966 0.0
H725 H 0.26602 0.43242 0.24889 0.0
S726 S 0.35996 0.47006 0.38409 0.0
N727 N 0.37235 0.49611 0.34758 0.0
N728 N 0.32237 0.43952 0.36875 0.0
C729 C 0.31846 0.44957 0.33204 0.0
C730 C 0.3456 0.48017 0.32051 0.0
C731 C 0.53481 0.85776 0.3326 0.0
C732 C 0.52813 0.85979 0.29152 0.0
C733 C 0.56324 0.85873 0.34676 0.0
C734 C 0.58581 0.86168 0.32023 0.0
H735 H 0.51744 0.85421 0.35361 0.0
H736 H 0.56701 0.85597 0.37844 0.0
S737 S 0.57984 0.86983 0.21005 0.0
N738 N 0.54644 0.86636 0.22477 0.0
N739 N 0.60007 0.86836 0.2511 0.0
C740 C 0.57983 0.86507 0.27925 0.0
C741 C 0.55085 0.86401 0.26493 0.0
C742 C 0.20781 0.71853 0.31132 0.0
C743 C 0.18494 0.68921 0.32871 0.0
C744 C 0.20816 0.75028 0.31485 0.0
C745 C 0.18563 0.75419 0.33597 0.0
H746 H 0.22619 0.71716 0.29564 0.0
H747 H 0.22669 0.7721 0.30132 0.0
S748 S 0.11953 0.68456 0.38527 0.0
N749 N 0.13829 0.66536 0.36636 0.0
N750 N 0.13866 0.72516 0.37292 0.0
C751 C 0.16167 0.72457 0.35206 0.0
C752 C 0.16138 0.69206 0.34843 0.0
C753 C 0.81772 0.95318 0.35113 0.0
C754 C 0.82504 0.97934 0.38279 0.0
C755 C 0.78647 0.92472 0.34174 0.0
C756 C 0.76115 0.92188 0.36273 0.0
H757 H 0.83657 0.95387 0.33454 0.0
H758 H 0.78232 0.90404 0.31893 0.0
S759 S 0.76643 0.98424 0.44584 0.0
N760 N 0.80368 1.00103 0.43406 0.0
N761 N 0.74448 0.94838 0.41439 0.0
C762 C 0.7674 0.94898 0.39228 0.0
C763 C 0.79948 0.97759 0.40276 0.0
C764 C 0.03448 0.81414 0.41945 0.0
C765 C 1.01515 0.81975 0.39109 0.0
C766 C 0.06149 0.81293 0.40827 0.0
C767 C 0.06998 0.81743 0.36843 0.0
H768 H 0.02964 0.81248 0.45082 0.0
H769 H 0.07661 0.8101 0.4314 0.0
S770 S 0.02508 0.82976 0.28245 0.0
N771 N 1.00481 0.82754 0.32136 0.0
N772 N 0.05528 0.82503 0.30004 0.0
C773 C 0.04972 0.82119 0.33945 0.0
C774 C 0.02237 0.82247 0.35089 0.0
C775 C 0.16224 0.18834 0.3401 0.0
C776 C 0.18299 0.19002 0.37296 0.0
C777 C 0.16261 0.21846 0.32885 0.0
C778 C 0.18415 0.25154 0.34948 0.0
H779 H 0.14436 0.16324 0.32427 0.0
H780 H 0.14483 0.2156 0.30505 0.0
S781 S 0.24524 0.27077 0.4354 0.0
N782 N 0.22703 0.22787 0.42443 0.0
N783 N 0.22823 0.28474 0.40252 0.0
C784 C 0.20668 0.25407 0.38039 0.0
C785 C 0.20602 0.22322 0.39227 0.0
C786 C 0.67536 0.56651 0.76254 0.0
C787 C 0.65029 0.54084 0.73448 0.0
C788 C 0.70607 0.58878 0.75093 0.0
C789 C 0.71305 0.58578 0.71104 0.0
H790 H 0.67159 0.56871 0.79404 0.0
H791 H 0.72477 0.60772 0.77367 0.0
S792 S 0.65534 0.52607 0.62487 0.0
N793 N 0.63399 0.51655 0.66389 0.0
N794 N 0.69207 0.55718 0.6428 0.0
C795 C 0.68815 0.56105 0.68245 0.0
C796 C 0.65671 0.53892 0.69398 0.0
C797 C 0.47153 0.10533 0.76706 0.0
C798 C 0.49086 0.10052 0.74055 0.0
C799 C 0.44779 0.11257 0.75289 0.0
C800 C 0.44247 0.11549 0.71165 0.0
H801 H 0.47546 0.10469 0.79933 0.0
H802 H 0.43408 0.11683 0.77472 0.0
S803 S 0.48491 0.1029 0.62921 0.0
N804 N 0.50178 0.09722 0.67062 0.0
N805 N 0.4574 0.11151 0.64407 0.0
C806 C 0.46102 0.10998 0.68457 0.0
C807 C 0.48517 0.10238 0.699 0.0
C808 C 0.92346 0.35561 0.71642 0.0
C809 C 0.8992 0.362 0.72784 0.0
C810 C 0.91645 0.32182 0.70237 0.0
C811 C 0.88489 0.29287 0.69958 0.0
H812 H 0.94818 0.37691 0.71883 0.0
H813 H 0.93621 0.31834 0.69485 0.0
S814 S 0.81256 0.29597 0.72555 0.0
N815 N 0.84235 0.33691 0.73506 0.0
N816 N 0.82894 0.27342 0.70873 0.0
C817 C 0.86026 0.29914 0.71022 0.0
C818 C 0.86745 0.33365 0.72429 0.0
C819 C 0.23813 0.99761 0.68152 0.0
C820 C 0.22945 0.98802 0.63949 0.0
C821 C 0.2634 0.0313 0.69676 0.0
C822 C 0.28056 0.05627 0.67035 0.0
H823 H 0.22505 0.97909 0.7027 0.0
H824 H 0.26922 0.03798 0.72918 0.0
S825 S 0.26714 0.04521 0.55839 0.0
N826 N 0.23977 1.00732 0.57217 0.0
N827 N 0.28768 0.06953 0.60087 0.0
C828 C 0.27245 0.04697 0.62857 0.0
C829 C 0.24679 1.01311 0.61308 0.0
C830 C 0.03305 0.25039 0.59371 0.0
C831 C 0.0593 0.259 0.62236 0.0
C832 C 1.00256 0.2406 0.60578 0.0
C833 C 0.99729 0.23904 0.64689 0.0
H834 H 0.03576 0.24981 0.56167 0.0
H835 H 0.98284 0.23334 0.58267 0.0
S836 S 0.05889 0.26244 0.73384 0.0
N837 N 0.07859 0.2679 0.69363 0.0
N838 N 0.02141 0.2493 0.71635 0.0
C839 C 0.02363 0.2489 0.67585 0.0
C840 C 0.0546 0.25893 0.66358 0.0
C841 C 0.78767 0.78302 0.65114 0.0
C842 C 0.80425 0.80388 0.62089 0.0
C843 C 0.79416 0.75732 0.6643 0.0
C844 C 0.81782 0.75207 0.64809 0.0
H845 H 0.77004 0.78708 0.66523 0.0
H846 H 0.78127 0.74226 0.68819 0.0
S847 S 0.86571 0.79808 0.56538 0.0
N848 N 0.84357 0.81617 0.57319 0.0
N849 N 0.85613 0.76845 0.59788 0.0
C850 C 0.83384 0.77224 0.61692 0.0
C851 C 0.82697 0.79801 0.60335 0.0
C852 C 0.99858 0.84603 0.65261 0.0
C853 C 0.02869 0.84819 0.65884 0.0
C854 C 0.97078 0.8183 0.66459 0.0
C855 C 0.97111 0.7901 0.6812 0.0
H856 H 0.99634 0.86633 0.63878 0.0
H857 H 0.94853 0.81859 0.65973 0.0
S858 S 0.04254 0.78081 0.70208 0.0
N859 N 0.05682 0.81886 0.68312 0.0
N860 N 1.00341 0.76477 0.702 0.0
C861 C 1.00043 0.79058 0.68593 0.0
C862 C 0.0294 0.8199 0.67533 0.0
C863 C 0.2299 0.21458 0.63016 0.0
C864 C 0.20544 0.20423 0.65593 0.0
C865 C 0.25837 0.21453 0.64184 0.0
C866 C 0.26319 0.20413 0.67962 0.0
H867 H 0.2262 0.22072 0.59997 0.0
H868 H 0.27588 0.22084 0.62026 0.0
S869 S 0.20795 0.17921 0.75981 0.0
N870 N 0.18903 0.18667 0.72208 0.0
N871 N 0.24241 0.18672 0.7442 0.0
C872 C 0.23977 0.19605 0.70659 0.0
C873 C 0.21088 0.19602 0.69466 0.0
C874 C 0.87971 0.05082 0.69343 0.0
C875 C 0.85834 0.02402 0.66314 0.0
C876 C 0.87931 0.08208 0.70016 0.0
C877 C 0.85669 0.0874 0.6781 0.0
H878 H 0.89779 0.04821 0.7113 0.0
H879 H 0.8973 0.10257 0.72228 0.0
S880 S 0.79382 0.02534 0.59758 0.0
N881 N 0.81317 1.00512 0.61158 0.0
N882 N 0.81098 0.06288 0.6267 0.0
C883 C 0.83372 0.06016 0.64975 0.0
C884 C 0.83479 0.02867 0.64177 0.0
C885 C 0.46655 0.3219 0.72576 0.0
C886 C 0.49206 0.32854 0.70262 0.0
C887 C 0.43633 0.29122 0.71669 0.0
C888 C 0.43094 0.26642 0.68436 0.0
H889 H 0.47066 0.33912 0.75268 0.0
H890 H 0.41807 0.28554 0.73704 0.0
S891 S 0.48791 0.27481 0.61045 0.0
N892 N 0.50833 0.31046 0.64259 0.0
N893 N 0.45193 0.25263 0.62624 0.0
C894 C 0.45533 0.27433 0.65909 0.0
C895 C 0.48582 0.30549 0.66803 0.0
C896 C 0.69522 0.15622 0.69475 0.0
C897 C 0.68852 0.15626 0.73516 0.0
C898 C 0.72234 0.155 0.68443 0.0
C899 C 0.74383 0.15405 0.71421 0.0
H900 H 0.68004 0.15849 0.67118 0.0
H901 H 0.72709 0.15609 0.65302 0.0
S902 S 0.73627 0.15285 0.82444 0.0
N903 N 0.70469 0.15433 0.80499 0.0
N904 N 0.75584 0.15208 0.78582 0.0
C905 C 0.73671 0.15283 0.75464 0.0
C906 C 0.709 0.154 0.76508 0.0
C907 C 0.88162 0.55843 0.68707 0.0
C908 C 0.87193 0.54238 0.7229 0.0
C909 C 0.88046 0.58885 0.68006 0.0
C910 C 0.86921 0.60364 0.70854 0.0
H911 H 0.8879 0.54603 0.66322 0.0
H912 H 0.88619 0.59932 0.65117 0.0
S913 S 0.84454 0.57372 0.80872 0.0
N914 N 0.85363 0.54534 0.7884 0.0
N915 N 0.85121 0.60205 0.77519 0.0
C916 C 0.86157 0.58913 0.74544 0.0
C917 C 0.86301 0.55858 0.75266 0.0
C918 C 0.51161 1.00058 0.2054 0.0
C919 C 0.47874 0.9867 0.21033 0.0
C920 C 0.52549 0.02098 0.17374 0.0
C921 C 0.50717 0.02871 0.14635 0.0
H922 H 0.52646 0.99451 0.22512 0.0
H923 H 0.55021 0.0291 0.16936 0.0
S924 S 0.42202 1.00383 0.14861 0.0
N925 N 0.42912 0.98486 0.18586 0.0
N926 N 0.45632 0.02532 0.12872 0.0
C927 C 0.4753 0.01759 0.1526 0.0
C928 C 0.46082 0.99617 0.18411 0.0
C929 C 0.09464 0.54177 0.17468 0.0
C930 C 0.08411 0.51507 0.20102 0.0
C931 C 0.07529 0.53908 0.13978 0.0
C932 C 0.04513 0.50902 0.1287 0.0
H933 H 0.11813 0.56513 0.18085 0.0
H934 H 0.0842 0.56056 0.12104 0.0
S935 S 1.0056 0.43137 0.18549 0.0
N936 N 0.04022 0.45767 0.21308 0.0
N937 N 1.00541 0.45179 0.14561 0.0
C938 C 0.03449 0.48166 0.15354 0.0
C939 C 0.05361 0.48481 0.19001 0.0
C940 C 0.49422 0.56379 0.15191 0.0
C941 C 0.50809 0.56616 0.19134 0.0
C942 C 0.50691 0.5573 0.11782 0.0
C943 C 0.53385 0.55303 0.12208 0.0
H944 H 0.47458 0.56884 0.14728 0.0
H945 H 0.49666 0.55762 0.08812 0.0
S946 S 0.57608 0.55197 0.21844 0.0
N947 N 0.5479 0.55976 0.23247 0.0
N948 N 0.57206 0.54837 0.16848 0.0
C949 C 0.54677 0.55345 0.16121 0.0
C950 C 0.53375 0.55972 0.19582 0.0
C951 C 0.98693 0.45133 0.83915 0.0
C952 C 0.96631 0.46497 0.83195 0.0
C953 C 1.00558 0.45866 0.87607 0.0
C954 C 1.00696 0.48236 0.90689 0.0
H955 H 0.98846 0.43384 0.81665 0.0
H956 H 0.01876 0.44507 0.88055 0.0
S957 S 0.97197 0.53954 0.89757 0.0
N958 N 0.95634 0.51158 0.85639 0.0
N959 N 0.99573 0.52885 0.92294 0.0
C960 C 0.99173 0.50139 0.89791 0.0
C961 C 0.97064 0.49218 0.86109 0.0
C962 C 0.53455 0.50695 0.82648 0.0
C963 C 0.56461 0.5091 0.82843 0.0
C964 C 0.5227 0.51298 0.86176 0.0
C965 C 0.54037 0.52106 0.90014 0.0
H966 H 0.51999 0.5001 0.79768 0.0
H967 H 0.49927 0.51073 0.85899 0.0
S968 S 0.61882 0.52581 0.92065 0.0
N969 N 0.61086 0.51776 0.87112 0.0
N970 N 0.58868 0.52867 0.93735 0.0
C971 C 0.57037 0.52301 0.90211 0.0
C972 C 0.58242 0.51707 0.86626 0.0
C973 C 0.51195 0.02326 0.84922 0.0
C974 C 0.53543 0.05866 0.84797 0.0
C975 C 0.50389 1.00896 0.8863 0.0
C976 C 0.51863 0.02972 0.92343 0.0
H977 H 0.49906 1.00682 0.82136 0.0
H978 H 0.48505 0.98185 0.88584 0.0
S979 S 0.58168 0.1241 0.93625 0.0
N980 N 0.57364 0.11394 0.88684 0.0
N981 N 0.55835 0.08755 0.95606 0.0
C982 C 0.54281 0.06492 0.92233 0.0
C983 C 0.55123 0.07927 0.88473 0.0
C984 C 0.14022 0.28455 0.49111 0.0
C985 C 0.14413 0.30495 0.52706 0.0
C986 C 0.15056 0.2999 0.45552 0.0
C987 C 0.16564 0.33645 0.45427 0.0
H988 H 0.12872 0.25631 0.49039 0.0
H989 H 0.14687 0.28271 0.42874 0.0
S990 S 0.18144 0.40155 0.54045 0.0
N991 N 0.16359 0.36349 0.55965 0.0
N992 N 0.1839 0.39271 0.49232 0.0
C993 C 0.16986 0.35732 0.49006 0.0
C994 C 0.15878 0.34147 0.52651 0.0
C995 C 0.75764 0.87735 0.50503 0.0
C996 C 0.74922 0.85094 0.53148 0.0
C997 C 0.73621 0.87406 0.47232 0.0
C998 C 0.7059 0.84375 0.46366 0.0
H999 H 0.78118 0.90078 0.50917 0.0
H1000 H 0.74378 0.89508 0.45309 0.0
S1001 S 0.67109 0.76699 0.52246 0.0
N1002 N 0.707 0.79378 0.54691 0.0
N1003 N 0.66807 0.78678 0.48329 0.0
C1004 C 0.69715 0.81682 0.48887 0.0
C1005 C 0.71848 0.82056 0.52319 0.0
C1006 C 0.19642 0.92319 0.49985 0.0
C1007 C 0.17664 0.89743 0.52416 0.0
C1008 C 0.20663 0.91451 0.46503 0.0
C1009 C 0.19669 0.87957 0.45207 0.0
H1010 H 0.20555 0.95066 0.50902 0.0
H1011 H 0.2233 0.9356 0.4488 0.0
S1012 S 0.14093 0.80161 0.50096 0.0
N1013 N 0.14486 0.83506 0.53056 0.0
N1014 N 0.16309 0.81854 0.46352 0.0
C1015 C 0.17461 0.85315 0.47381 0.0
C1016 C 0.16469 0.86211 0.51016 0.0
C1017 C 0.63334 0.82113 0.1944 0.0
C1018 C 0.61013 0.78719 0.17704 0.0
C1019 C 0.65168 0.82625 0.23147 0.0
C1020 C 0.64757 0.79754 0.25182 0.0
H1021 H 0.63827 0.84364 0.17847 0.0
H1022 H 0.67013 0.85259 0.24328 0.0
S1023 S 0.58596 0.70419 0.22283 0.0
N1024 N 0.58066 0.72515 0.18646 0.0
N1025 N 0.61619 0.73459 0.25436 0.0
C1026 C 0.62317 0.76382 0.23595 0.0
C1027 C 0.60412 0.7587 0.19903 0.0
C1028 C 0.21639 0.80688 0.19448 0.0
C1029 C 0.23331 0.83583 0.17219 0.0
C1030 C 0.20055 0.80887 0.22759 0.0
C1031 C 0.20198 0.84022 0.24099 0.0
H1032 H 0.21522 0.78225 0.18646 0.0
H1033 H 0.18746 0.78575 0.24321 0.0
S1034 S 0.24318 0.92403 0.19531 0.0
N1035 N 0.2496 0.89702 0.16657 0.0
N1036 N 0.22215 0.90113 0.23091 0.0
C1037 C 0.21965 0.86973 0.22043 0.0
C1038 C 0.23481 0.86749 0.18568 0.0
C1039 C 0.20375 0.3756 0.19432 0.0
C1040 C 0.19281 0.39767 0.18071 0.0
C1041 C 0.18904 0.35355 0.22447 0.0
C1042 C 0.1628 0.35267 0.24154 0.0
H1043 H 0.22358 0.37518 0.18141 0.0
H1044 H 0.19815 0.33701 0.23439 0.0
S1045 S 0.12637 0.40686 0.21876 0.0
N1046 N 0.15582 0.41928 0.18968 0.0
N1047 N 0.12674 0.37579 0.24334 0.0
C1048 C 0.15161 0.37442 0.22822 0.0
C1049 C 0.16709 0.39758 0.1987 0.0
C1050 C 0.79917 0.62422 0.82911 0.0
C1051 C 0.80805 0.64332 0.86733 0.0
C1052 C 0.81049 0.641 0.79444 0.0
C1053 C 0.83152 0.67751 0.79662 0.0
H1054 H 0.78382 0.59597 0.82611 0.0
H1055 H 0.80359 0.62484 0.76589 0.0
S1056 S 0.86051 0.73943 0.88979 0.0
N1057 N 0.8376 0.70065 0.90565 0.0
N1058 N 0.85953 0.73237 0.84028 0.0
C1059 C 0.83978 0.69706 0.83463 0.0
C1060 C 0.82788 0.6799 0.87004 0.0
C1061 C 0.39051 0.17189 0.87137 0.0
C1062 C 0.42417 0.18975 0.87202 0.0
C1063 C 0.37067 0.16469 0.83507 0.0
C1064 C 0.38385 0.1747 0.79823 0.0
H1065 H 0.37954 0.1643 0.89922 0.0
H1066 H 0.34487 0.15163 0.83597 0.0
S1067 S 0.47081 0.22005 0.78401 0.0
N1068 N 0.46983 0.21577 0.83291 0.0
N1069 N 0.43293 0.2022 0.76491 0.0
C1070 C 0.41753 0.19156 0.79855 0.0
C1071 C 0.43759 0.19911 0.83541 0.0
C1072 C 0.87511 0.2605 0.83599 0.0
C1073 C 0.8535 0.23468 0.85881 0.0
C1074 C 0.88536 0.25157 0.8014 0.0
C1075 C 0.87397 0.21642 0.78762 0.0
H1076 H 0.88466 0.28803 0.84531 0.0
H1077 H 0.9026 0.27251 0.78548 0.0
S1078 S 0.81569 0.13862 0.83457 0.0
N1079 N 0.82001 0.17225 0.86415 0.0
N1080 N 0.8389 0.15543 0.79804 0.0
C1081 C 0.85121 0.19015 0.80878 0.0
C1082 C 0.84099 0.19928 0.84458 0.0
C1083 C 0.3193 0.13807 0.50225 0.0
C1084 C 0.28696 0.12909 0.50231 0.0
C1085 C 0.33978 0.14848 0.53851 0.0
C1086 C 0.32849 0.1496 0.57623 0.0
H1087 H 0.32859 0.13618 0.47403 0.0
H1088 H 0.36428 0.15429 0.53704 0.0
S1089 S 0.24545 0.12816 0.59248 0.0
N1090 N 0.24464 0.12241 0.54293 0.0
N1091 N 0.28267 0.14113 0.61089 0.0
C1092 C 0.29636 0.14157 0.57642 0.0
C1093 C 0.27569 0.13144 0.53953 0.0
C1094 C 0.88458 0.13081 0.5417 0.0
C1095 C 0.89762 0.15489 0.51265 0.0
C1096 C 0.86962 0.1366 0.5734 0.0
C1097 C 0.86821 0.16732 0.57858 0.0
H1098 H 0.88594 0.10715 0.54022 0.0
H1099 H 0.85957 0.11705 0.59439 0.0
S1100 S 0.89824 0.23909 0.5123 0.0
N1101 N 0.9068 0.21058 0.4911 0.0
N1102 N 0.88103 0.22246 0.55313 0.0
C1103 C 0.88177 0.1922 0.55092 0.0
C1104 C 0.896 0.18581 0.51749 0.0
C1105 C 0.8347 0.68398 0.50304 0.0
C1106 C 0.86429 0.71545 0.50364 0.0
C1107 C 0.82547 0.6666 0.53785 0.0
C1108 C 0.84564 0.67961 0.57448 0.0
H1109 H 0.81767 0.67375 0.47609 0.0
H1110 H 0.80158 0.64383 0.53649 0.0
S1111 S 0.92865 0.75548 0.58934 0.0
N1112 N 0.91572 0.7556 0.54245 0.0
N1113 N 0.89884 0.72162 0.60715 0.0
C1114 C 0.87668 0.70848 0.57427 0.0
C1115 C 0.88595 0.72665 0.53897 0.0
loop_
_geom_bond_atom_site_label_1
_geom_bond_atom_site_label_2
_geom_bond_distance
_geom_bond_site_symmetry_2
_ccdc_geom_bond_type
H0 C1 0.949 . S
C1 H0 0.949 . S
C1 C2 1.395 . S
C1 C3 1.391 . S
C2 C1 1.395 . S
C2 C5 1.390 . S
C3 C1 1.391 . S
C3 C7 1.387 . S
C3 C8 1.491 . S
H4 C5 0.950 . S
C5 C2 1.390 . S
C5 H4 0.950 . S
C5 C6 1.378 . S
C6 C5 1.378 . S
C6 C7 1.409 . S
C7 C3 1.387 . S
C7 C6 1.409 . S
C7 H9 0.951 . S
C8 C3 1.491 . S
C8 C10 1.382 . S
C8 C12 1.404 . S
H9 C7 0.951 . S
C10 C8 1.382 . S
C10 C11 1.390 . S
C10 H15 0.949 . S
C11 C10 1.390 . S
C11 C16 1.399 . S
C12 C8 1.404 . S
C12 H13 0.950 . S
C12 C14 1.375 . S
H13 C12 0.950 . S
C14 C12 1.375 . S
C14 C16 1.382 . S
C14 H18 0.950 . S
H15 C10 0.949 . S
C16 C11 1.399 . S
C16 C14 1.382 . S
C16 H17 0.952 . S
H17 C16 0.952 . S
H18 C14 0.950 . S
H19 C20 0.949 . S
C20 H19 0.949 . S
C20 C21 1.395 . S
C20 C22 1.391 . S
C21 C20 1.395 . S
C21 C24 1.390 . S
C22 C20 1.391 . S
C22 C26 1.387 . S
C22 C27 1.491 . S
H23 C24 0.950 . S
C24 C21 1.390 . S
C24 H23 0.950 . S
C24 C25 1.378 . S
C25 C24 1.378 . S
C25 C26 1.409 . S
C26 C22 1.387 . S
C26 C25 1.409 . S
C26 H28 0.951 . S
C27 C22 1.491 . S
C27 C29 1.382 . S
C27 C31 1.404 . S
H28 C26 0.951 . S
C29 C27 1.382 . S
C29 C30 1.390 . S
C29 H34 0.949 . S
C30 C29 1.390 . S
C30 C35 1.399 1_545 S
C31 C27 1.404 . S
C31 H32 0.950 . S
C31 C33 1.375 . S
H32 C31 0.950 . S
C33 C31 1.375 . S
C33 C35 1.382 1_545 S
C33 H37 0.950 . S
H34 C29 0.949 . S
C35 C30 1.399 1_565 S
C35 C33 1.382 1_565 S
C35 H36 0.952 . S
H36 C35 0.952 . S
H37 C33 0.950 . S
H38 C39 0.949 . S
C39 H38 0.949 . S
C39 C40 1.395 . S
C39 C41 1.391 . S
C40 C39 1.395 . S
C40 C43 1.390 . S
C41 C39 1.391 . S
C41 C45 1.387 . S
C41 C46 1.491 . S
H42 C43 0.950 . S
C43 C40 1.390 . S
C43 H42 0.950 . S
C43 C44 1.378 . S
C44 C43 1.378 . S
C44 C45 1.409 . S
C45 C41 1.387 . S
C45 C44 1.409 . S
C45 H47 0.951 . S
C46 C41 1.491 . S
C46 C48 1.382 . S
C46 C50 1.404 . S
H47 C45 0.951 . S
C48 C46 1.382 . S
C48 C49 1.390 . S
C48 H53 0.949 . S
C49 C48 1.390 . S
C49 C54 1.399 . S
C50 C46 1.404 . S
C50 H51 0.950 . S
C50 C52 1.375 . S
H51 C50 0.950 . S
C52 C50 1.375 . S
C52 C54 1.382 . S
C52 H56 0.950 . S
H53 C48 0.949 . S
C54 C49 1.399 . S
C54 C52 1.382 . S
C54 H55 0.952 1_655 S
H55 C54 0.952 1_455 S
H56 C52 0.950 . S
H57 C58 0.949 . S
C58 H57 0.949 . S
C58 C59 1.395 . S
C58 C60 1.391 . S
C59 C58 1.395 . S
C59 C62 1.390 . S
C60 C58 1.391 . S
C60 C64 1.387 . S
C60 C65 1.491 . S
H61 C62 0.950 . S
C62 C59 1.390 . S
C62 H61 0.950 . S
C62 C63 1.378 . S
C63 C62 1.378 . S
C63 C64 1.409 . S
C64 C60 1.387 . S
C64 C63 1.409 . S
C64 H66 0.951 . S
C65 C60 1.491 . S
C65 C67 1.382 . S
C65 C69 1.404 . S
H66 C64 0.951 . S
C67 C65 1.382 . S
C67 C68 1.390 . S
C67 H72 0.949 . S
C68 C67 1.390 . S
C68 C73 1.399 . S
C69 C65 1.404 . S
C69 H70 0.950 . S
C69 C71 1.375 . S
H70 C69 0.950 . S
C71 C69 1.375 . S
C71 C73 1.382 . S
C71 H75 0.950 . S
H72 C67 0.949 . S
C73 C68 1.399 . S
C73 C71 1.382 . S
C73 H74 0.952 . S
H74 C73 0.952 . S
H75 C71 0.950 . S
H76 C77 0.949 . S
C77 H76 0.949 . S
C77 C78 1.395 . S
C77 C79 1.391 . S
C78 C77 1.395 . S
C78 C81 1.390 . S
C79 C77 1.391 . S
C79 C83 1.387 . S
C79 C84 1.491 . S
H80 C81 0.950 . S
C81 C78 1.390 . S
C81 H80 0.950 . S
C81 C82 1.378 . S
C82 C81 1.378 . S
C82 C83 1.409 . S
C83 C79 1.387 . S
C83 C82 1.409 . S
C83 H85 0.951 . S
C84 C79 1.491 . S
C84 C86 1.382 . S
C84 C88 1.404 . S
H85 C83 0.951 . S
C86 C84 1.382 . S
C86 C87 1.390 . S
C86 H91 0.949 . S
C87 C86 1.390 . S
C87 C92 1.399 1_565 S
C88 C84 1.404 . S
C88 H89 0.950 . S
C88 C90 1.375 . S
H89 C88 0.950 . S
C90 C88 1.375 . S
C90 C92 1.385 1_565 S
C90 H94 0.950 . S
H91 C86 0.949 . S
C92 C87 1.399 1_545 S
C92 C90 1.385 1_545 S
C92 H93 0.949 . S
H93 C92 0.949 . S
H94 C90 0.950 . S
H95 C96 0.949 . S
C96 H95 0.949 . S
C96 C97 1.395 . S
C96 C98 1.391 . S
C97 C96 1.395 . S
C97 C100 1.390 . S
C98 C96 1.391 . S
C98 C102 1.387 . S
C98 C103 1.491 . S
H99 C100 0.950 . S
C100 C97 1.390 . S
C100 H99 0.950 . S
C100 C101 1.378 . S
C101 C100 1.378 . S
C101 C102 1.409 . S
C102 C98 1.387 . S
C102 C101 1.409 . S
C102 H104 0.951 . S
C103 C98 1.491 . S
C103 C105 1.382 . S
C103 C107 1.404 . S
H104 C102 0.951 . S
C105 C103 1.382 . S
C105 C106 1.390 . S
C105 H110 0.949 . S
C106 C105 1.390 . S
C106 C111 1.399 . S
C107 C103 1.404 . S
C107 H108 0.950 . S
C107 C109 1.375 . S
H108 C107 0.950 . S
C109 C107 1.375 . S
C109 C111 1.382 . S
C109 H113 0.950 . S
H110 C105 0.949 . S
C111 C106 1.399 . S
C111 C109 1.382 . S
C111 H112 0.952 . S
H112 C111 0.952 . S
H113 C109 0.950 . S
H114 C115 0.949 . S
C115 H114 0.949 . S
C115 C116 1.395 . S
C115 C117 1.391 . S
C116 C115 1.395 . S
C116 C119 1.390 . S
C117 C115 1.391 . S
C117 C121 1.387 . S
C117 C122 1.491 . S
H118 C119 0.950 . S
C119 C116 1.390 . S
C119 H118 0.950 . S
C119 C120 1.378 . S
C120 C119 1.378 . S
C120 C121 1.409 . S
C121 C117 1.387 . S
C121 C120 1.409 . S
C121 H123 0.951 . S
C122 C117 1.491 . S
C122 C124 1.382 . S
C122 C126 1.404 . S
H123 C121 0.951 . S
C124 C122 1.382 . S
C124 C125 1.390 . S
C124 H129 0.949 . S
C125 C124 1.390 . S
C125 C130 1.399 . S
C126 C122 1.404 . S
C126 H127 0.950 . S
C126 C128 1.375 . S
H127 C126 0.950 . S
C128 C126 1.375 . S
C128 C130 1.382 . S
C128 H132 0.950 . S
H129 C124 0.949 . S
C130 C125 1.399 . S
C130 C128 1.382 . S
C130 H131 0.952 . S
H131 C130 0.952 . S
H132 C128 0.950 . S
H133 C134 0.949 . S
C134 H133 0.949 . S
C134 C135 1.395 . S
C134 C136 1.391 . S
C135 C134 1.395 . S
C135 C138 1.390 . S
C136 C134 1.391 . S
C136 C140 1.387 . S
C136 C141 1.491 . S
H137 C138 0.950 . S
C138 C135 1.390 . S
C138 H137 0.950 . S
C138 C139 1.378 . S
C139 C138 1.378 . S
C139 C140 1.409 . S
C140 C136 1.387 . S
C140 C139 1.409 . S
C140 H142 0.951 . S
C141 C136 1.491 . S
C141 C143 1.382 . S
C141 C145 1.404 . S
H142 C140 0.951 . S
C143 C141 1.382 . S
C143 C144 1.390 . S
C143 H148 0.949 . S
C144 C143 1.390 . S
C144 C149 1.399 . S
C145 C141 1.404 . S
C145 H146 0.950 . S
C145 C147 1.375 . S
H146 C145 0.950 . S
C147 C145 1.375 . S
C147 C149 1.382 . S
C147 H151 0.950 . S
H148 C143 0.949 . S
C149 C144 1.399 . S
C149 C147 1.382 . S
C149 H150 0.952 . S
H150 C149 0.952 . S
H151 C147 0.950 . S
H152 C153 0.949 . S
C153 H152 0.949 . S
C153 C154 1.395 . S
C153 C155 1.391 . S
C154 C153 1.395 . S
C154 C157 1.390 . S
C155 C153 1.391 . S
C155 C159 1.387 . S
C155 C160 1.491 . S
H156 C157 0.950 . S
C157 C154 1.390 . S
C157 H156 0.950 . S
C157 C158 1.378 . S
C158 C157 1.378 . S
C158 C159 1.409 . S
C159 C155 1.387 . S
C159 C158 1.409 . S
C159 H161 0.951 . S
C160 C155 1.491 . S
C160 C162 1.382 . S
C160 C164 1.404 . S
H161 C159 0.951 . S
C162 C160 1.382 . S
C162 C163 1.390 . S
C162 H167 0.949 . S
C163 C162 1.390 . S
C163 C168 1.399 . S
C164 C160 1.404 . S
C164 H165 0.950 . S
C164 C166 1.375 . S
H165 C164 0.950 . S
C166 C164 1.375 . S
C166 C168 1.382 . S
C166 H170 0.950 . S
H167 C162 0.949 . S
C168 C163 1.399 . S
C168 C166 1.382 . S
C168 H169 0.952 . S
H169 C168 0.952 . S
H170 C166 0.950 . S
H171 C172 0.949 . S
C172 H171 0.949 . S
C172 C173 1.395 . S
C172 C174 1.391 . S
C173 C172 1.395 . S
C173 C176 1.390 . S
C174 C172 1.391 . S
C174 C178 1.387 . S
C174 C179 1.491 . S
H175 C176 0.950 . S
C176 C173 1.390 . S
C176 H175 0.950 . S
C176 C177 1.378 . S
C177 C176 1.378 . S
C177 C178 1.409 . S
C178 C174 1.387 . S
C178 C177 1.409 . S
C178 H180 0.951 . S
C179 C174 1.491 . S
C179 C181 1.382 . S
C179 C183 1.404 . S
H180 C178 0.951 . S
C181 C179 1.382 . S
C181 C182 1.390 . S
C181 H186 0.949 . S
C182 C181 1.390 . S
C182 C187 1.399 . S
C183 C179 1.404 . S
C183 H184 0.950 . S
C183 C185 1.375 . S
H184 C183 0.950 . S
C185 C183 1.375 . S
C185 C187 1.382 . S
C185 H189 0.950 . S
H186 C181 0.949 . S
C187 C182 1.399 . S
C187 C185 1.382 . S
C187 H188 0.952 . S
H188 C187 0.952 . S
H189 C185 0.950 . S
H190 C191 0.949 . S
C191 H190 0.949 . S
C191 C192 1.395 . S
C191 C193 1.391 . S
C192 C191 1.395 . S
C192 C195 1.390 . S
C193 C191 1.391 . S
C193 C197 1.387 . S
C193 C198 1.491 . S
H194 C195 0.950 . S
C195 C192 1.390 . S
C195 H194 0.950 . S
C195 C196 1.378 . S
C196 C195 1.378 . S
C196 C197 1.409 . S
C197 C193 1.387 . S
C197 C196 1.409 . S
C197 H199 0.951 1_556 S
C198 C193 1.491 . S
C198 C200 1.382 . S
C198 C202 1.404 1_556 S
H199 C197 0.951 1_554 S
C200 C198 1.382 . S
C200 C201 1.390 1_556 S
C200 H205 0.949 . S
C201 C200 1.390 1_554 S
C201 C206 1.399 . S
C202 C198 1.404 1_554 S
C202 H203 0.950 . S
C202 C204 1.375 . S
H203 C202 0.950 . S
C204 C202 1.375 . S
C204 C206 1.382 . S
C204 H208 0.950 . S
H205 C200 0.949 . S
C206 C201 1.399 . S
C206 C204 1.382 . S
C206 H207 0.952 . S
H207 C206 0.952 . S
H208 C204 0.950 . S
H209 C210 0.949 . S
C210 H209 0.949 . S
C210 C211 1.395 . S
C210 C212 1.391 . S
C211 C210 1.395 . S
C211 C214 1.390 . S
C212 C210 1.391 . S
C212 C216 1.387 . S
C212 C217 1.491 . S
H213 C214 0.950 . S
C214 C211 1.390 . S
C214 H213 0.950 . S
C214 C215 1.378 . S
C215 C214 1.378 . S
C215 C216 1.409 . S
C216 C212 1.387 . S
C216 C215 1.409 . S
C216 H218 0.951 1_556 S
C217 C212 1.491 . S
C217 C219 1.382 . S
C217 C221 1.404 . S
H218 C216 0.951 1_554 S
C219 C217 1.382 . S
C219 C220 1.390 . S
C219 H224 0.949 . S
C220 C219 1.390 . S
C220 C225 1.400 1_556 S
C221 C217 1.404 . S
C221 H222 0.950 . S
C221 C223 1.375 1_556 S
H222 C221 0.950 . S
C223 C221 1.375 1_554 S
C223 C225 1.382 . S
C223 H227 0.950 . S
H224 C219 0.949 . S
C225 C220 1.400 1_554 S
C225 C223 1.382 . S
C225 H226 0.951 . S
H226 C225 0.951 . S
H227 C223 0.950 . S
H228 C229 0.949 . S
C229 H228 0.949 . S
C229 C230 1.395 . S
C229 C231 1.391 . S
C230 C229 1.395 . S
C230 C233 1.390 . S
C231 C229 1.391 . S
C231 C235 1.387 . S
C231 C236 1.491 . S
H232 C233 0.950 . S
C233 C230 1.390 . S
C233 H232 0.950 . S
C233 C234 1.378 . S
C234 C233 1.378 . S
C234 C235 1.409 . S
C235 C231 1.387 . S
C235 C234 1.409 . S
C235 H237 0.951 . S
C236 C231 1.491 . S
C236 C238 1.382 . S
C236 C240 1.404 . S
H237 C235 0.951 . S
C238 C236 1.382 . S
C238 C239 1.390 . S
C238 H243 0.949 . S
C239 C238 1.390 . S
C239 C244 1.399 . S
C240 C236 1.404 . S
C240 H241 0.950 . S
C240 C242 1.378 . S
H241 C240 0.950 . S
C242 C240 1.378 . S
C242 C244 1.382 . S
C242 H246 0.948 1_554 S
H243 C238 0.949 . S
C244 C239 1.399 . S
C244 C242 1.382 . S
C244 H245 0.952 1_554 S
H245 C244 0.952 1_556 S
H246 C242 0.948 1_556 S
H247 C248 0.949 . S
C248 H247 0.949 . S
C248 C249 1.395 . S
C248 C250 1.391 . S
C249 C248 1.395 . S
C249 C252 1.390 . S
C250 C248 1.391 . S
C250 C254 1.387 . S
C250 C255 1.491 . S
H251 C252 0.950 . S
C252 C249 1.390 . S
C252 H251 0.950 . S
C252 C253 1.378 . S
C253 C252 1.378 . S
C253 C254 1.409 . S
C254 C250 1.387 . S
C254 C253 1.409 . S
C254 H256 0.951 . S
C255 C250 1.491 . S
C255 C257 1.382 . S
C255 C259 1.404 . S
H256 C254 0.951 . S
C257 C255 1.382 . S
C257 C258 1.390 . S
C257 H262 0.949 . S
C258 C257 1.390 . S
C258 C263 1.399 . S
C259 C255 1.404 . S
C259 H260 0.950 . S
C259 C261 1.375 . S
H260 C259 0.950 . S
C261 C259 1.375 . S
C261 C263 1.382 . S
C261 H265 0.950 . S
H262 C257 0.949 . S
C263 C258 1.399 . S
C263 C261 1.382 . S
C263 H264 0.952 1_554 S
H264 C263 0.952 1_556 S
H265 C261 0.950 . S
H266 C267 0.949 . S
C267 H266 0.949 . S
C267 C268 1.395 . S
C267 C269 1.391 . S
C268 C267 1.395 . S
C268 C271 1.390 . S
C269 C267 1.391 . S
C269 C273 1.387 . S
C269 C274 1.491 . S
H270 C271 0.950 . S
C271 C268 1.390 . S
C271 H270 0.950 . S
C271 C272 1.378 . S
C272 C271 1.378 . S
C272 C273 1.409 . S
C273 C269 1.387 . S
C273 C272 1.409 . S
C273 H275 0.951 . S
C274 C269 1.491 . S
C274 C276 1.382 . S
C274 C278 1.404 . S
H275 C273 0.951 . S
C276 C274 1.382 . S
C276 C277 1.390 . S
C276 H281 0.949 . S
C277 C276 1.390 . S
C277 C282 1.399 . S
C278 C274 1.404 . S
C278 H279 0.950 . S
C278 C280 1.375 . S
H279 C278 0.950 . S
C280 C278 1.375 . S
C280 C282 1.382 . S
C280 H284 0.950 . S
H281 C276 0.949 . S
C282 C277 1.399 . S
C282 C280 1.382 . S
C282 H283 0.952 . S
H283 C282 0.952 . S
H284 C280 0.950 . S
H285 C286 0.949 . S
C286 H285 0.949 . S
C286 C287 1.395 . S
C286 C288 1.391 . S
C287 C286 1.395 . S
C287 C290 1.390 . S
C288 C286 1.391 . S
C288 C292 1.387 . S
C288 C293 1.491 . S
H289 C290 0.950 . S
C290 C287 1.390 . S
C290 H289 0.950 . S
C290 C291 1.378 . S
C291 C290 1.378 . S
C291 C292 1.409 . S
C292 C288 1.387 . S
C292 C291 1.409 . S
C292 H294 0.951 . S
C293 C288 1.491 . S
C293 C295 1.382 . S
C293 C297 1.404 . S
H294 C292 0.951 . S
C295 C293 1.382 . S
C295 C296 1.390 . S
C295 H300 0.949 . S
C296 C295 1.390 . S
C296 C301 1.399 . S
C297 C293 1.404 . S
C297 H298 0.950 . S
C297 C299 1.375 . S
H298 C297 0.950 . S
C299 C297 1.375 . S
C299 C301 1.382 . S
C299 H303 0.950 . S
H300 C295 0.949 . S
C301 C296 1.399 . S
C301 C299 1.382 . S
C301 H302 0.952 . S
H302 C301 0.952 . S
H303 C299 0.950 . S
H304 C305 0.949 . S
C305 H304 0.949 . S
C305 C306 1.395 . S
C305 C307 1.391 . S
C306 C305 1.395 . S
C306 C309 1.390 . S
C307 C305 1.391 . S
C307 C311 1.387 . S
C307 C312 1.491 . S
H308 C309 0.950 . S
C309 C306 1.390 . S
C309 H308 0.950 . S
C309 C310 1.378 . S
C310 C309 1.378 . S
C310 C311 1.409 . S
C311 C307 1.387 . S
C311 C310 1.409 . S
C311 H313 0.951 . S
C312 C307 1.491 . S
C312 C314 1.382 . S
C312 C316 1.404 . S
H313 C311 0.951 . S
C314 C312 1.382 . S
C314 C315 1.390 . S
C314 H319 0.949 . S
C315 C314 1.390 . S
C315 C320 1.399 . S
C316 C312 1.404 . S
C316 H317 0.950 . S
C316 C318 1.375 . S
H317 C316 0.950 . S
C318 C316 1.375 . S
C318 C320 1.382 . S
C318 H322 0.950 . S
H319 C314 0.949 . S
C320 C315 1.399 . S
C320 C318 1.382 . S
C320 H321 0.952 . S
H321 C320 0.952 . S
H322 C318 0.950 . S
H323 C324 0.949 . S
C324 H323 0.949 . S
C324 C325 1.395 . S
C324 C326 1.391 . S
C325 C324 1.395 . S
C325 C328 1.390 . S
C326 C324 1.391 . S
C326 C330 1.387 . S
C326 C331 1.491 . S
H327 C328 0.950 . S
C328 C325 1.390 . S
C328 H327 0.950 . S
C328 C329 1.378 . S
C329 C328 1.378 . S
C329 C330 1.409 . S
C330 C326 1.387 . S
C330 C329 1.409 . S
C330 H332 0.951 . S
C331 C326 1.491 . S
C331 C333 1.382 . S
C331 C335 1.404 . S
H332 C330 0.951 . S
C333 C331 1.382 . S
C333 C334 1.390 . S
C333 H338 0.949 . S
C334 C333 1.390 . S
C334 C339 1.399 . S
C335 C331 1.404 . S
C335 H336 0.950 . S
C335 C337 1.375 . S
H336 C335 0.950 . S
C337 C335 1.375 . S
C337 C339 1.382 . S
C337 H341 0.950 . S
H338 C333 0.949 . S
C339 C334 1.399 . S
C339 C337 1.382 . S
C339 H340 0.952 . S
H340 C339 0.952 . S
H341 C337 0.950 . S
Tb342 O345 2.453 . S
Tb342 O346 2.596 1_545 S
Tb342 O347 2.374 1_545 S
Tb342 O355 2.343 1_554 S
Tb342 O357 2.353 . S
Tb342 O359 2.427 . S
Tb342 O360 2.513 . S
C343 O347 1.251 . S
C343 O349 1.263 1_554 S
Tb344 O346 2.343 1_556 S
Tb344 O349 2.353 . S
Tb344 O352 2.427 1_556 S
Tb344 O353 2.513 1_556 S
Tb344 O354 2.453 . S
Tb344 O355 2.596 1_565 S
Tb344 O356 2.374 1_565 S
O345 Tb342 2.453 . S
O345 C361 1.245 1_545 S
O346 Tb342 2.596 1_565 S
O346 Tb344 2.343 1_554 S
O346 C361 1.259 . S
O347 Tb342 2.374 1_565 S
O347 C343 1.251 . S
C348 O352 1.275 . S
C348 O353 1.246 . S
O349 C343 1.263 1_556 S
O349 Tb344 2.353 . S
C350 O354 1.245 1_545 S
C350 O355 1.259 . S
C351 O356 1.250 1_554 S
C351 O357 1.263 . S
O352 Tb344 2.427 1_554 S
O352 C348 1.275 . S
O353 Tb344 2.513 1_554 S
O353 C348 1.246 . S
O354 Tb344 2.453 . S
O354 C350 1.245 1_565 S
O355 Tb342 2.343 1_556 S
O355 Tb344 2.596 1_545 S
O355 C350 1.259 . S
O356 Tb344 2.374 1_545 S
O356 C351 1.250 1_556 S
O357 Tb342 2.353 . S
O357 C351 1.263 . S
C358 O359 1.266 1_556 S
C358 O360 1.243 1_556 S
O359 Tb342 2.427 . S
O359 C358 1.266 1_554 S
O360 Tb342 2.513 . S
O360 C358 1.243 1_554 S
C361 O345 1.245 1_565 S
C361 O346 1.259 . S
Tb362 O365 2.471 . S
Tb362 O366 2.596 1_655 S
Tb362 O367 2.374 1_655 S
Tb362 O375 2.343 1_554 S
Tb362 O377 2.353 . S
Tb362 O379 2.420 1_554 S
Tb362 O380 2.513 1_554 S
C363 O367 1.251 . S
C363 O369 1.263 1_554 S
Tb364 O366 2.343 1_556 S
Tb364 O369 2.353 . S
Tb364 O372 2.427 1_556 S
Tb364 O373 2.513 1_556 S
Tb364 O374 2.453 . S
Tb364 O375 2.596 1_455 S
Tb364 O376 2.374 1_455 S
O365 Tb362 2.471 . S
O365 C381 1.210 1_655 S
O366 Tb362 2.596 1_455 S
O366 Tb364 2.343 1_554 S
O366 C381 1.259 . S
O367 Tb362 2.374 1_455 S
O367 C363 1.251 . S
C368 O372 1.275 . S
C368 O373 1.246 . S
O369 C363 1.263 1_556 S
O369 Tb364 2.353 . S
C370 O374 1.245 1_655 S
C370 O375 1.259 . S
C371 O376 1.250 1_554 S
C371 O377 1.263 . S
O372 Tb364 2.427 1_554 S
O372 C368 1.275 . S
O373 Tb364 2.513 1_554 S
O373 C368 1.246 . S
O374 Tb364 2.453 . S
O374 C370 1.245 1_455 S
O375 Tb362 2.343 1_556 S
O375 Tb364 2.596 1_655 S
O375 C370 1.259 . S
O376 Tb364 2.374 1_655 S
O376 C371 1.250 1_556 S
O377 Tb362 2.353 . S
O377 C371 1.263 . S
C378 O379 1.283 . S
C378 O380 1.246 . S
O379 Tb362 2.420 1_556 S
O379 C378 1.283 . S
O380 Tb362 2.513 1_556 S
O380 C378 1.246 . S
C381 O365 1.210 1_455 S
C381 O366 1.259 . S
Tb382 O385 2.453 . S
Tb382 O386 2.596 . S
Tb382 O387 2.374 1_556 S
Tb382 O395 2.343 1_556 S
Tb382 O397 2.353 . S
Tb382 O399 2.427 1_556 S
Tb382 O400 2.513 1_556 S
C383 O387 1.251 . S
C383 O389 1.263 . S
Tb384 O386 2.343 1_554 S
Tb384 O389 2.353 . S
Tb384 O392 2.427 . S
Tb384 O393 2.513 1_554 S
Tb384 O394 2.453 . S
Tb384 O395 2.596 . S
Tb384 O396 2.374 . S
O385 Tb382 2.453 . S
O385 C401 1.245 . S
O386 Tb382 2.596 . S
O386 Tb384 2.343 1_556 S
O386 C401 1.259 . S
O387 Tb382 2.374 1_554 S
O387 C383 1.251 . S
C388 O392 1.275 1_556 S
C388 O393 1.246 . S
O389 C383 1.263 . S
O389 Tb384 2.353 . S
C390 O394 1.245 . S
C390 O395 1.259 . S
C391 O396 1.250 . S
C391 O397 1.263 1_554 S
O392 Tb384 2.427 . S
O392 C388 1.275 1_554 S
O393 Tb384 2.513 1_556 S
O393 C388 1.246 . S
O394 Tb384 2.453 . S
O394 C390 1.245 . S
O395 Tb382 2.343 1_554 S
O395 Tb384 2.596 . S
O395 C390 1.259 . S
O396 Tb384 2.374 . S
O396 C391 1.250 . S
O397 Tb382 2.353 . S
O397 C391 1.263 1_556 S
C398 O399 1.275 . S
C398 O400 1.246 . S
O399 Tb382 2.427 1_554 S
O399 C398 1.275 . S
O400 Tb382 2.513 1_554 S
O400 C398 1.246 . S
C401 O385 1.245 . S
C401 O386 1.259 . S
Tb402 O405 2.453 . S
Tb402 O406 2.596 . S
Tb402 O407 2.374 . S
Tb402 O415 2.343 . S
Tb402 O417 2.353 . S
Tb402 O419 2.427 . S
Tb402 O420 2.513 . S
C403 O407 1.251 . S
C403 O409 1.263 . S
Tb404 O406 2.343 . S
Tb404 O409 2.353 . S
Tb404 O412 2.427 . S
Tb404 O413 2.513 . S
Tb404 O414 2.453 . S
Tb404 O415 2.596 . S
Tb404 O416 2.374 . S
O405 Tb402 2.453 . S
O405 C421 1.245 . S
O406 Tb402 2.596 . S
O406 Tb404 2.343 . S
O406 C421 1.259 . S
O407 Tb402 2.374 . S
O407 C403 1.251 . S
C408 O412 1.275 . S
C408 O413 1.246 . S
O409 C403 1.263 . S
O409 Tb404 2.353 . S
C410 O414 1.245 . S
C410 O415 1.259 . S
C411 O416 1.250 . S
C411 O417 1.263 . S
O412 Tb404 2.427 . S
O412 C408 1.275 . S
O413 Tb404 2.513 . S
O413 C408 1.246 . S
O414 Tb404 2.453 . S
O414 C410 1.245 . S
O415 Tb402 2.343 . S
O415 Tb404 2.596 . S
O415 C410 1.259 . S
O416 Tb404 2.374 . S
O416 C411 1.250 . S
O417 Tb402 2.353 . S
O417 C411 1.263 . S
C418 O419 1.275 . S
C418 O420 1.246 . S
O419 Tb402 2.427 . S
O419 C418 1.275 . S
O420 Tb402 2.513 . S
O420 C418 1.246 . S
C421 O405 1.245 . S
C421 O406 1.259 . S
Tb422 O425 2.453 . S
Tb422 O426 2.596 . S
Tb422 O427 2.374 . S
Tb422 O435 2.343 . S
Tb422 O437 2.353 . S
Tb422 O439 2.427 . S
Tb422 O440 2.513 . S
C423 O427 1.251 . S
C423 O429 1.263 . S
Tb424 O426 2.343 . S
Tb424 O429 2.353 . S
Tb424 O432 2.427 . S
Tb424 O433 2.513 . S
Tb424 O434 2.453 . S
Tb424 O435 2.596 . S
Tb424 O436 2.374 . S
O425 Tb422 2.453 . S
O425 C441 1.245 . S
O426 Tb422 2.596 . S
O426 Tb424 2.343 . S
O426 C441 1.259 . S
O427 Tb422 2.374 . S
O427 C423 1.251 . S
C428 O432 1.275 . S
C428 O433 1.246 . S
O429 C423 1.263 . S
O429 Tb424 2.353 . S
C430 O434 1.245 . S
C430 O435 1.259 . S
C431 O436 1.250 . S
C431 O437 1.263 . S
O432 Tb424 2.427 . S
O432 C428 1.275 . S
O433 Tb424 2.513 . S
O433 C428 1.246 . S
O434 Tb424 2.453 . S
O434 C430 1.245 . S
O435 Tb422 2.343 . S
O435 Tb424 2.596 . S
O435 C430 1.259 . S
O436 Tb424 2.374 . S
O436 C431 1.250 . S
O437 Tb422 2.353 . S
O437 C431 1.263 . S
C438 O439 1.275 . S
C438 O440 1.246 . S
O439 Tb422 2.427 . S
O439 C438 1.275 . S
O440 Tb422 2.513 . S
O440 C438 1.246 . S
C441 O425 1.245 . S
C441 O426 1.259 . S
Tb442 O445 2.453 . S
Tb442 O446 2.596 . S
Tb442 O447 2.374 . S
Tb442 O455 2.343 . S
Tb442 O457 2.353 . S
Tb442 O459 2.427 . S
Tb442 O460 2.513 . S
C443 O447 1.251 . S
C443 O449 1.263 . S
Tb444 O446 2.343 . S
Tb444 O449 2.353 . S
Tb444 O452 2.427 . S
Tb444 O453 2.513 . S
Tb444 O454 2.453 . S
Tb444 O455 2.596 . S
Tb444 O456 2.374 . S
O445 Tb442 2.453 . S
O445 C461 1.245 . S
O446 Tb442 2.596 . S
O446 Tb444 2.343 . S
O446 C461 1.259 . S
O447 Tb442 2.374 . S
O447 C443 1.251 . S
C448 O452 1.275 . S
C448 O453 1.246 . S
O449 C443 1.263 . S
O449 Tb444 2.353 . S
C450 O454 1.245 . S
C450 O455 1.259 . S
C451 O456 1.250 . S
C451 O457 1.263 . S
O452 Tb444 2.427 . S
O452 C448 1.275 . S
O453 Tb444 2.513 . S
O453 C448 1.246 . S
O454 Tb444 2.453 . S
O454 C450 1.245 . S
O455 Tb442 2.343 . S
O455 Tb444 2.596 . S
O455 C450 1.259 . S
O456 Tb444 2.374 . S
O456 C451 1.250 . S
O457 Tb442 2.353 . S
O457 C451 1.263 . S
C458 O459 1.275 . S
C458 O460 1.246 . S
O459 Tb442 2.427 . S
O459 C458 1.275 . S
O460 Tb442 2.513 . S
O460 C458 1.246 . S
C461 O445 1.245 . S
C461 O446 1.259 . S
Tb462 O465 2.453 . S
Tb462 O466 2.596 . S
Tb462 O467 2.374 . S
Tb462 O475 2.343 . S
Tb462 O477 2.353 . S
Tb462 O479 2.427 . S
Tb462 O480 2.513 . S
C463 O467 1.251 . S
C463 O469 1.263 . S
Tb464 O466 2.343 . S
Tb464 O469 2.353 . S
Tb464 O472 2.427 . S
Tb464 O473 2.513 . S
Tb464 O474 2.453 . S
Tb464 O475 2.596 . S
Tb464 O476 2.374 . S
O465 Tb462 2.453 . S
O465 C481 1.245 . S
O466 Tb462 2.596 . S
O466 Tb464 2.343 . S
O466 C481 1.259 . S
O467 Tb462 2.374 . S
O467 C463 1.251 . S
C468 O472 1.275 . S
C468 O473 1.246 . S
O469 C463 1.263 . S
O469 Tb464 2.353 . S
C470 O474 1.245 . S
C470 O475 1.259 . S
C471 O476 1.250 . S
C471 O477 1.263 . S
O472 Tb464 2.427 . S
O472 C468 1.275 . S
O473 Tb464 2.513 . S
O473 C468 1.246 . S
O474 Tb464 2.453 . S
O474 C470 1.245 . S
O475 Tb462 2.343 . S
O475 Tb464 2.596 . S
O475 C470 1.259 . S
O476 Tb464 2.374 . S
O476 C471 1.250 . S
O477 Tb462 2.353 . S
O477 C471 1.263 . S
C478 O479 1.275 . S
C478 O480 1.246 . S
O479 Tb462 2.427 . S
O479 C478 1.275 . S
O480 Tb462 2.513 . S
O480 C478 1.246 . S
C481 O465 1.245 . S
C481 O466 1.259 . S
Tb482 O485 2.453 . S
Tb482 O486 2.596 . S
Tb482 O487 2.374 . S
Tb482 O495 2.343 . S
Tb482 O497 2.353 . S
Tb482 O499 2.427 . S
Tb482 O500 2.513 . S
C483 O487 1.251 . S
C483 O489 1.263 . S
Tb484 O486 2.343 . S
Tb484 O489 2.353 . S
Tb484 O492 2.427 . S
Tb484 O493 2.513 . S
Tb484 O494 2.453 . S
Tb484 O495 2.596 . S
Tb484 O496 2.374 . S
O485 Tb482 2.453 . S
O485 C501 1.245 . S
O486 Tb482 2.596 . S
O486 Tb484 2.343 . S
O486 C501 1.259 . S
O487 Tb482 2.374 . S
O487 C483 1.251 . S
C488 O492 1.275 . S
C488 O493 1.246 . S
O489 C483 1.263 . S
O489 Tb484 2.353 . S
C490 O494 1.245 . S
C490 O495 1.259 . S
C491 O496 1.250 . S
C491 O497 1.263 . S
O492 Tb484 2.427 . S
O492 C488 1.275 . S
O493 Tb484 2.513 . S
O493 C488 1.246 . S
O494 Tb484 2.453 . S
O494 C490 1.245 . S
O495 Tb482 2.343 . S
O495 Tb484 2.596 . S
O495 C490 1.259 . S
O496 Tb484 2.374 . S
O496 C491 1.250 . S
O497 Tb482 2.353 . S
O497 C491 1.263 . S
C498 O499 1.275 . S
C498 O500 1.246 . S
O499 Tb482 2.427 . S
O499 C498 1.275 . S
O500 Tb482 2.513 . S
O500 C498 1.246 . S
C501 O485 1.245 . S
C501 O486 1.259 . S
Tb502 O505 2.453 . S
Tb502 O506 2.596 . S
Tb502 O507 2.374 . S
Tb502 O515 2.343 . S
Tb502 O517 2.353 . S
Tb502 O519 2.427 . S
Tb502 O520 2.513 . S
C503 O507 1.251 . S
C503 O509 1.263 . S
Tb504 O506 2.343 . S
Tb504 O509 2.353 . S
Tb504 O512 2.427 . S
Tb504 O513 2.513 . S
Tb504 O514 2.453 . S
Tb504 O515 2.596 . S
Tb504 O516 2.374 . S
O505 Tb502 2.453 . S
O505 C521 1.245 . S
O506 Tb502 2.596 . S
O506 Tb504 2.343 . S
O506 C521 1.259 . S
O507 Tb502 2.374 . S
O507 C503 1.251 . S
C508 O512 1.275 . S
C508 O513 1.246 . S
O509 C503 1.263 . S
O509 Tb504 2.353 . S
C510 O514 1.245 . S
C510 O515 1.259 . S
C511 O516 1.250 . S
C511 O517 1.263 . S
O512 Tb504 2.427 . S
O512 C508 1.275 . S
O513 Tb504 2.513 . S
O513 C508 1.246 . S
O514 Tb504 2.453 . S
O514 C510 1.245 . S
O515 Tb502 2.343 . S
O515 Tb504 2.596 . S
O515 C510 1.259 . S
O516 Tb504 2.374 . S
O516 C511 1.250 . S
O517 Tb502 2.353 . S
O517 C511 1.263 . S
C518 O519 1.275 . S
C518 O520 1.246 . S
O519 Tb502 2.427 . S
O519 C518 1.275 . S
O520 Tb502 2.513 . S
O520 C518 1.246 . S
C521 O505 1.245 . S
C521 O506 1.259 . S
C522 C523 1.369 . S
C522 C524 1.419 . S
C522 H526 0.930 . S
C523 C522 1.369 . S
C523 C532 1.429 . S
C524 C522 1.419 . S
C524 C525 1.363 . S
C524 H527 0.929 . S
C525 C524 1.363 . S
C525 C531 1.428 . S
H526 C522 0.930 . S
H527 C524 0.929 . S
S528 N529 1.613 . S
S528 N530 1.610 . S
N529 S528 1.613 . S
N529 C532 1.350 1_556 S
N530 S528 1.610 . S
N530 C531 1.351 1_556 S
C531 C525 1.428 . S
C531 N530 1.351 1_554 S
C531 C532 1.434 . S
C532 C523 1.429 . S
C532 N529 1.350 1_554 S
C532 C531 1.434 . S
C533 C534 1.369 . S
C533 C535 1.419 . S
C533 H537 0.930 . S
C534 C533 1.369 . S
C534 C543 1.429 . S
C535 C533 1.419 . S
C535 C536 1.363 . S
C535 H538 0.929 . S
C536 C535 1.363 . S
C536 C542 1.428 . S
H537 C533 0.930 . S
H538 C535 0.929 . S
S539 N540 1.613 1_556 S
S539 N541 1.610 . S
N540 S539 1.613 1_554 S
N540 C543 1.350 . S
N541 S539 1.610 . S
N541 C542 1.351 1_556 S
C542 C536 1.428 . S
C542 N541 1.351 1_554 S
C542 C543 1.434 . S
C543 C534 1.429 . S
C543 N540 1.350 . S
C543 C542 1.434 . S
C544 C545 1.351 1_556 S
C544 C546 1.419 . S
C544 H548 0.949 . S
C545 C544 1.351 1_554 S
C545 C554 1.429 . S
C546 C544 1.419 . S
C546 C547 1.363 1_556 S
C546 H549 0.929 . S
C547 C546 1.363 1_554 S
C547 C553 1.428 . S
H548 C544 0.949 . S
H549 C546 0.929 . S
S550 N551 1.613 . S
S550 N552 1.610 . S
N551 S550 1.613 . S
N551 C554 1.350 . S
N552 S550 1.610 . S
N552 C553 1.351 . S
C553 C547 1.428 . S
C553 N552 1.351 . S
C553 C554 1.434 . S
C554 C545 1.429 . S
C554 N551 1.350 . S
C554 C553 1.434 . S
C555 C556 1.369 . S
C555 C557 1.419 . S
C555 H559 0.930 . S
C556 C555 1.369 . S
C556 C565 1.429 1_556 S
C557 C555 1.419 . S
C557 C558 1.363 . S
C557 H560 0.929 . S
C558 C557 1.363 . S
C558 C564 1.428 1_556 S
H559 C555 0.930 . S
H560 C557 0.929 . S
S561 N562 1.613 . S
S561 N563 1.610 . S
N562 S561 1.613 . S
N562 C565 1.350 . S
N563 S561 1.610 . S
N563 C564 1.351 . S
C564 C558 1.428 1_554 S
C564 N563 1.351 . S
C564 C565 1.434 . S
C565 C556 1.429 1_554 S
C565 N562 1.350 . S
C565 C564 1.434 . S
C566 C567 1.369 . S
C566 C568 1.419 . S
C566 H570 0.930 . S
C567 C566 1.369 . S
C567 C576 1.429 . S
C568 C566 1.419 . S
C568 C569 1.363 . S
C568 H571 0.929 . S
C569 C568 1.363 . S
C569 C575 1.428 . S
H570 C566 0.930 . S
H571 C568 0.929 . S
S572 N573 1.613 . S
S572 N574 1.610 . S
N573 S572 1.613 . S
N573 C576 1.350 . S
N574 S572 1.610 . S
N574 C575 1.351 . S
C575 C569 1.428 . S
C575 N574 1.351 . S
C575 C576 1.434 . S
C576 C567 1.429 . S
C576 N573 1.350 . S
C576 C575 1.434 . S
C577 C578 1.369 . S
C577 C579 1.419 . S
C577 H581 0.930 . S
C578 C577 1.369 . S
C578 C587 1.429 . S
C579 C577 1.419 . S
C579 C580 1.363 1_556 S
C579 H582 0.929 1_556 S
C580 C579 1.363 1_554 S
C580 C586 1.428 1_554 S
H581 C577 0.930 . S
H582 C579 0.929 1_554 S
S583 N584 1.613 . S
S583 N585 1.610 1_556 S
N584 S583 1.613 . S
N584 C587 1.350 . S
N585 S583 1.610 1_554 S
N585 C586 1.351 1_554 S
C586 C580 1.428 1_556 S
C586 N585 1.351 1_556 S
C586 C587 1.434 . S
C587 C578 1.429 . S
C587 N584 1.350 . S
C587 C586 1.434 . S
C588 C589 1.369 . S
C588 C590 1.419 . S
C588 H592 0.930 . S
C589 C588 1.369 . S
C589 C598 1.429 1_556 S
C590 C588 1.419 . S
C590 C591 1.363 . S
C590 H593 0.929 . S
C591 C590 1.363 . S
C591 C597 1.428 1_556 S
H592 C588 0.930 . S
H593 C590 0.929 . S
S594 N595 1.613 . S
S594 N596 1.610 . S
N595 S594 1.613 . S
N595 C598 1.350 . S
N596 S594 1.610 . S
N596 C597 1.351 . S
C597 C591 1.428 1_554 S
C597 N596 1.351 . S
C597 C598 1.434 . S
C598 C589 1.429 1_554 S
C598 N595 1.350 . S
C598 C597 1.434 . S
C599 C600 1.369 . S
C599 C601 1.419 . S
C599 H603 0.930 1_556 S
C600 C599 1.369 . S
C600 C609 1.429 . S
C601 C599 1.419 . S
C601 C602 1.363 . S
C601 H604 0.929 1_556 S
C602 C601 1.363 . S
C602 C608 1.428 . S
H603 C599 0.930 1_554 S
H604 C601 0.929 1_554 S
S605 N606 1.613 . S
S605 N607 1.610 . S
N606 S605 1.613 . S
N606 C609 1.350 . S
N607 S605 1.610 . S
N607 C608 1.351 . S
C608 C602 1.428 . S
C608 N607 1.351 . S
C608 C609 1.434 . S
C609 C600 1.429 . S
C609 N606 1.350 . S
C609 C608 1.434 . S
C610 C611 1.369 . S
C610 C612 1.419 . S
C610 H614 0.930 . S
C611 C610 1.369 . S
C611 C620 1.429 1_554 S
C612 C610 1.419 . S
C612 C613 1.363 . S
C612 H615 0.929 . S
C613 C612 1.363 . S
C613 C619 1.428 1_554 S
H614 C610 0.930 . S
H615 C612 0.929 . S
S616 N617 1.613 . S
S616 N618 1.610 . S
N617 S616 1.613 . S
N617 C620 1.350 . S
N618 S616 1.610 . S
N618 C619 1.351 . S
C619 C613 1.428 1_556 S
C619 N618 1.351 . S
C619 C620 1.434 . S
C620 C611 1.429 1_556 S
C620 N617 1.350 . S
C620 C619 1.434 . S
C621 C622 1.369 . S
C621 C623 1.419 . S
C621 H625 0.930 . S
C622 C621 1.369 . S
C622 C631 1.429 1_554 S
C623 C621 1.419 . S
C623 C624 1.363 . S
C623 H626 0.929 . S
C624 C623 1.363 . S
C624 C630 1.428 1_554 S
H625 C621 0.930 . S
H626 C623 0.929 . S
S627 N628 1.613 . S
S627 N629 1.610 . S
N628 S627 1.613 . S
N628 C631 1.350 . S
N629 S627 1.610 . S
N629 C630 1.351 . S
C630 C624 1.428 1_556 S
C630 N629 1.351 . S
C630 C631 1.434 . S
C631 C622 1.429 1_556 S
C631 N628 1.350 . S
C631 C630 1.434 . S
C632 C633 1.369 . S
C632 C634 1.419 . S
C632 H636 0.930 . S
C633 C632 1.369 . S
C633 C642 1.429 . S
C634 C632 1.419 . S
C634 C635 1.363 . S
C634 H637 0.929 . S
C635 C634 1.363 . S
C635 C641 1.428 . S
H636 C632 0.930 . S
H637 C634 0.929 . S
S638 N639 1.613 . S
S638 N640 1.610 . S
N639 S638 1.613 . S
N639 C642 1.350 . S
N640 S638 1.610 . S
N640 C641 1.351 . S
C641 C635 1.428 . S
C641 N640 1.351 . S
C641 C642 1.434 . S
C642 C633 1.429 . S
C642 N639 1.350 . S
C642 C641 1.434 . S
C643 C644 1.369 . S
C643 C645 1.419 . S
C643 H647 0.930 . S
C644 C643 1.369 . S
C644 C653 1.429 . S
C645 C643 1.419 . S
C645 C646 1.363 . S
C645 H648 0.929 . S
C646 C645 1.363 . S
C646 C652 1.428 . S
H647 C643 0.930 . S
H648 C645 0.929 . S
S649 N650 1.613 . S
S649 N651 1.610 . S
N650 S649 1.613 . S
N650 C653 1.350 . S
N651 S649 1.610 . S
N651 C652 1.351 . S
C652 C646 1.428 . S
C652 N651 1.351 . S
C652 C653 1.434 . S
C653 C644 1.429 . S
C653 N650 1.350 . S
C653 C652 1.434 . S
C654 C655 1.369 . S
C654 C656 1.419 1_655 S
C654 H658 0.930 . S
C655 C654 1.369 . S
C655 C664 1.429 . S
C656 C654 1.419 1_455 S
C656 C657 1.363 . S
C656 H659 0.929 . S
C657 C656 1.363 . S
C657 C663 1.428 1_455 S
H658 C654 0.930 . S
H659 C656 0.929 . S
S660 N661 1.613 . S
S660 N662 1.597 1_655 S
N661 S660 1.613 . S
N661 C664 1.350 . S
N662 S660 1.597 1_455 S
N662 C663 1.345 1_455 S
C663 C657 1.428 1_655 S
C663 N662 1.345 1_655 S
C663 C664 1.434 . S
C664 C655 1.429 . S
C664 N661 1.350 . S
C664 C663 1.434 . S
C665 C666 1.369 . S
C665 C667 1.419 . S
C665 H669 0.930 . S
C666 C665 1.369 . S
C666 C675 1.429 . S
C667 C665 1.419 . S
C667 C668 1.363 . S
C667 H670 0.929 . S
C668 C667 1.363 . S
C668 C674 1.428 . S
H669 C665 0.930 . S
H670 C667 0.929 . S
S671 N672 1.613 . S
S671 N673 1.610 . S
N672 S671 1.613 . S
N672 C675 1.350 . S
N673 S671 1.610 . S
N673 C674 1.351 . S
C674 C668 1.428 . S
C674 N673 1.351 . S
C674 C675 1.434 . S
C675 C666 1.429 . S
C675 N672 1.350 . S
C675 C674 1.434 . S
C676 C677 1.369 . S
C676 C678 1.419 1_545 S
C676 H680 0.930 . S
C677 C676 1.369 . S
C677 C686 1.429 . S
C678 C676 1.419 1_565 S
C678 C679 1.363 . S
C678 H681 0.929 . S
C679 C678 1.363 . S
C679 C685 1.428 . S
H680 C676 0.930 . S
H681 C678 0.929 . S
S682 N683 1.613 1_565 S
S682 N684 1.610 . S
N683 S682 1.613 1_545 S
N683 C686 1.350 . S
N684 S682 1.610 . S
N684 C685 1.351 . S
C685 C679 1.428 . S
C685 N684 1.351 . S
C685 C686 1.434 1_565 S
C686 C677 1.429 . S
C686 N683 1.350 . S
C686 C685 1.434 1_545 S
C687 C688 1.369 . S
C687 C689 1.419 . S
C687 H691 0.930 . S
C688 C687 1.369 . S
C688 C697 1.429 . S
C689 C687 1.419 . S
C689 C690 1.363 . S
C689 H692 0.929 . S
C690 C689 1.363 . S
C690 C696 1.428 . S
H691 C687 0.930 . S
H692 C689 0.929 . S
S693 N694 1.613 . S
S693 N695 1.610 . S
N694 S693 1.613 . S
N694 C697 1.350 . S
N695 S693 1.610 . S
N695 C696 1.351 . S
C696 C690 1.428 . S
C696 N695 1.351 . S
C696 C697 1.434 . S
C697 C688 1.429 . S
C697 N694 1.350 . S
C697 C696 1.434 . S
C698 C699 1.369 . S
C698 C700 1.419 . S
C698 H702 0.930 . S
C699 C698 1.369 . S
C699 C708 1.429 . S
C700 C698 1.419 . S
C700 C701 1.363 . S
C700 H703 0.929 . S
C701 C700 1.363 . S
C701 C707 1.428 . S
H702 C698 0.930 . S
H703 C700 0.929 . S
S704 N705 1.613 . S
S704 N706 1.610 . S
N705 S704 1.613 . S
N705 C708 1.350 . S
N706 S704 1.610 . S
N706 C707 1.351 . S
C707 C701 1.428 . S
C707 N706 1.351 . S
C707 C708 1.434 . S
C708 C699 1.429 . S
C708 N705 1.350 . S
C708 C707 1.434 . S
C709 C710 1.369 . S
C709 C711 1.419 . S
C709 H713 0.930 . S
C710 C709 1.369 . S
C710 C719 1.429 . S
C711 C709 1.419 . S
C711 C712 1.363 . S
C711 H714 0.929 . S
C712 C711 1.363 . S
C712 C718 1.428 . S
H713 C709 0.930 . S
H714 C711 0.929 . S
S715 N716 1.613 . S
S715 N717 1.610 . S
N716 S715 1.613 . S
N716 C719 1.350 . S
N717 S715 1.610 . S
N717 C718 1.351 . S
C718 C712 1.428 . S
C718 N717 1.351 . S
C718 C719 1.434 . S
C719 C710 1.429 . S
C719 N716 1.350 . S
C719 C718 1.434 . S
C720 C721 1.369 . S
C720 C722 1.419 . S
C720 H724 0.930 . S
C721 C720 1.369 . S
C721 C730 1.429 . S
C722 C720 1.419 . S
C722 C723 1.363 . S
C722 H725 0.929 . S
C723 C722 1.363 . S
C723 C729 1.428 . S
H724 C720 0.930 . S
H725 C722 0.929 . S
S726 N727 1.613 . S
S726 N728 1.610 . S
N727 S726 1.613 . S
N727 C730 1.350 . S
N728 S726 1.610 . S
N728 C729 1.351 . S
C729 C723 1.428 . S
C729 N728 1.351 . S
C729 C730 1.434 . S
C730 C721 1.429 . S
C730 N727 1.350 . S
C730 C729 1.434 . S
C731 C732 1.369 . S
C731 C733 1.419 . S
C731 H735 0.930 . S
C732 C731 1.369 . S
C732 C741 1.429 . S
C733 C731 1.419 . S
C733 C734 1.363 . S
C733 H736 0.929 . S
C734 C733 1.363 . S
C734 C740 1.428 . S
H735 C731 0.930 . S
H736 C733 0.929 . S
S737 N738 1.613 . S
S737 N739 1.610 . S
N738 S737 1.613 . S
N738 C741 1.350 . S
N739 S737 1.610 . S
N739 C740 1.351 . S
C740 C734 1.428 . S
C740 N739 1.351 . S
C740 C741 1.434 . S
C741 C732 1.429 . S
C741 N738 1.350 . S
C741 C740 1.434 . S
C742 C743 1.369 . S
C742 C744 1.419 . S
C742 H746 0.930 . S
C743 C742 1.369 . S
C743 C752 1.429 . S
C744 C742 1.419 . S
C744 C745 1.363 . S
C744 H747 0.929 . S
C745 C744 1.363 . S
C745 C751 1.428 . S
H746 C742 0.930 . S
H747 C744 0.929 . S
S748 N749 1.613 . S
S748 N750 1.610 . S
N749 S748 1.613 . S
N749 C752 1.350 . S
N750 S748 1.610 . S
N750 C751 1.351 . S
C751 C745 1.428 . S
C751 N750 1.351 . S
C751 C752 1.434 . S
C752 C743 1.429 . S
C752 N749 1.350 . S
C752 C751 1.434 . S
C753 C754 1.369 . S
C753 C755 1.419 . S
C753 H757 0.930 . S
C754 C753 1.369 . S
C754 C763 1.429 . S
C755 C753 1.419 . S
C755 C756 1.363 . S
C755 H758 0.929 . S
C756 C755 1.363 . S
C756 C762 1.428 . S
H757 C753 0.930 . S
H758 C755 0.929 . S
S759 N760 1.613 . S
S759 N761 1.610 . S
N760 S759 1.613 . S
N760 C763 1.350 . S
N761 S759 1.610 . S
N761 C762 1.351 . S
C762 C756 1.428 . S
C762 N761 1.351 . S
C762 C763 1.434 . S
C763 C754 1.429 . S
C763 N760 1.350 . S
C763 C762 1.434 . S
C764 C765 1.369 . S
C764 C766 1.419 . S
C764 H768 0.930 . S
C765 C764 1.369 . S
C765 C774 1.429 . S
C766 C764 1.419 . S
C766 C767 1.363 . S
C766 H769 0.929 . S
C767 C766 1.363 . S
C767 C773 1.428 . S
H768 C764 0.930 . S
H769 C766 0.929 . S
S770 N771 1.613 . S
S770 N772 1.610 . S
N771 S770 1.613 . S
N771 C774 1.350 . S
N772 S770 1.610 . S
N772 C773 1.351 . S
C773 C767 1.428 . S
C773 N772 1.351 . S
C773 C774 1.434 . S
C774 C765 1.429 . S
C774 N771 1.350 . S
C774 C773 1.434 . S
C775 C776 1.369 . S
C775 C777 1.419 . S
C775 H779 0.930 . S
C776 C775 1.369 . S
C776 C785 1.429 . S
C777 C775 1.419 . S
C777 C778 1.363 . S
C777 H780 0.929 . S
C778 C777 1.363 . S
C778 C784 1.428 . S
H779 C775 0.930 . S
H780 C777 0.929 . S
S781 N782 1.613 . S
S781 N783 1.610 . S
N782 S781 1.613 . S
N782 C785 1.350 . S
N783 S781 1.610 . S
N783 C784 1.351 . S
C784 C778 1.428 . S
C784 N783 1.351 . S
C784 C785 1.434 . S
C785 C776 1.429 . S
C785 N782 1.350 . S
C785 C784 1.434 . S
C786 C787 1.369 . S
C786 C788 1.419 . S
C786 H790 0.930 . S
C787 C786 1.369 . S
C787 C796 1.429 . S
C788 C786 1.419 . S
C788 C789 1.363 . S
C788 H791 0.929 . S
C789 C788 1.363 . S
C789 C795 1.428 . S
H790 C786 0.930 . S
H791 C788 0.929 . S
S792 N793 1.613 . S
S792 N794 1.610 . S
N793 S792 1.613 . S
N793 C796 1.350 . S
N794 S792 1.610 . S
N794 C795 1.351 . S
C795 C789 1.428 . S
C795 N794 1.351 . S
C795 C796 1.434 . S
C796 C787 1.429 . S
C796 N793 1.350 . S
C796 C795 1.434 . S
C797 C798 1.369 . S
C797 C799 1.419 . S
C797 H801 0.930 . S
C798 C797 1.369 . S
C798 C807 1.429 . S
C799 C797 1.419 . S
C799 C800 1.363 . S
C799 H802 0.929 . S
C800 C799 1.363 . S
C800 C806 1.428 . S
H801 C797 0.930 . S
H802 C799 0.929 . S
S803 N804 1.613 . S
S803 N805 1.610 . S
N804 S803 1.613 . S
N804 C807 1.350 . S
N805 S803 1.610 . S
N805 C806 1.351 . S
C806 C800 1.428 . S
C806 N805 1.351 . S
C806 C807 1.434 . S
C807 C798 1.429 . S
C807 N804 1.350 . S
C807 C806 1.434 . S
C808 C809 1.369 . S
C808 C810 1.419 . S
C808 H812 0.930 . S
C809 C808 1.369 . S
C809 C818 1.429 . S
C810 C808 1.419 . S
C810 C811 1.363 . S
C810 H813 0.929 . S
C811 C810 1.363 . S
C811 C817 1.428 . S
H812 C808 0.930 . S
H813 C810 0.929 . S
S814 N815 1.613 . S
S814 N816 1.610 . S
N815 S814 1.613 . S
N815 C818 1.350 . S
N816 S814 1.610 . S
N816 C817 1.351 . S
C817 C811 1.428 . S
C817 N816 1.351 . S
C817 C818 1.434 . S
C818 C809 1.429 . S
C818 N815 1.350 . S
C818 C817 1.434 . S
C819 C820 1.369 . S
C819 C821 1.419 1_565 S
C819 H823 0.930 . S
C820 C819 1.369 . S
C820 C829 1.429 . S
C821 C819 1.419 1_545 S
C821 C822 1.363 . S
C821 H824 0.929 . S
C822 C821 1.363 . S
C822 C828 1.428 . S
H823 C819 0.930 . S
H824 C821 0.929 . S
S825 N826 1.613 . S
S825 N827 1.610 1_565 S
N826 S825 1.613 . S
N826 C829 1.350 . S
N827 S825 1.610 1_545 S
N827 C828 1.351 . S
C828 C822 1.428 . S
C828 N827 1.351 . S
C828 C829 1.434 1_545 S
C829 C820 1.429 . S
C829 N826 1.350 . S
C829 C828 1.434 1_565 S
C830 C831 1.369 . S
C830 C832 1.419 1_455 S
C830 H834 0.930 . S
C831 C830 1.369 . S
C831 C840 1.429 . S
C832 C830 1.419 1_655 S
C832 C833 1.363 . S
C832 H835 0.929 . S
C833 C832 1.363 . S
C833 C839 1.428 1_655 S
H834 C830 0.930 . S
H835 C832 0.929 . S
S836 N837 1.613 . S
S836 N838 1.610 . S
N837 S836 1.613 . S
N837 C840 1.350 . S
N838 S836 1.610 . S
N838 C839 1.351 . S
C839 C833 1.428 1_455 S
C839 N838 1.351 . S
C839 C840 1.434 . S
C840 C831 1.429 . S
C840 N837 1.350 . S
C840 C839 1.434 . S
C841 C842 1.369 . S
C841 C843 1.419 . S
C841 H845 0.930 . S
C842 C841 1.369 . S
C842 C851 1.429 . S
C843 C841 1.419 . S
C843 C844 1.363 . S
C843 H846 0.929 . S
C844 C843 1.363 . S
C844 C850 1.428 . S
H845 C841 0.930 . S
H846 C843 0.929 . S
S847 N848 1.613 . S
S847 N849 1.610 . S
N848 S847 1.613 . S
N848 C851 1.350 . S
N849 S847 1.610 . S
N849 C850 1.351 . S
C850 C844 1.428 . S
C850 N849 1.351 . S
C850 C851 1.434 . S
C851 C842 1.429 . S
C851 N848 1.350 . S
C851 C850 1.434 . S
C852 C853 1.369 1_655 S
C852 C854 1.419 . S
C852 H856 0.930 1_655 S
C853 C852 1.369 1_455 S
C853 C862 1.429 1_455 S
C854 C852 1.419 . S
C854 C855 1.363 . S
C854 H857 0.929 . S
C855 C854 1.363 . S
C855 C861 1.428 . S
H856 C852 0.930 1_455 S
H857 C854 0.929 . S
S858 N859 1.613 . S
S858 N860 1.610 . S
N859 S858 1.613 . S
N859 C862 1.350 . S
N860 S858 1.610 . S
N860 C861 1.351 . S
C861 C855 1.428 . S
C861 N860 1.351 . S
C861 C862 1.434 . S
C862 C853 1.429 1_655 S
C862 N859 1.350 . S
C862 C861 1.434 . S
C863 C864 1.369 . S
C863 C865 1.419 . S
C863 H867 0.930 . S
C864 C863 1.369 . S
C864 C873 1.429 . S
C865 C863 1.419 . S
C865 C866 1.363 . S
C865 H868 0.929 . S
C866 C865 1.363 . S
C866 C872 1.428 . S
H867 C863 0.930 . S
H868 C865 0.929 . S
S869 N870 1.613 . S
S869 N871 1.610 . S
N870 S869 1.613 . S
N870 C873 1.350 . S
N871 S869 1.610 . S
N871 C872 1.351 . S
C872 C866 1.428 . S
C872 N871 1.351 . S
C872 C873 1.434 . S
C873 C864 1.429 . S
C873 N870 1.350 . S
C873 C872 1.434 . S
C874 C875 1.369 . S
C874 C876 1.419 . S
C874 H878 0.930 . S
C875 C874 1.369 . S
C875 C884 1.429 . S
C876 C874 1.419 . S
C876 C877 1.363 . S
C876 H879 0.929 . S
C877 C876 1.363 . S
C877 C883 1.428 . S
H878 C874 0.930 . S
H879 C876 0.929 . S
S880 N881 1.613 . S
S880 N882 1.610 . S
N881 S880 1.613 . S
N881 C884 1.350 . S
N882 S880 1.610 . S
N882 C883 1.351 . S
C883 C877 1.428 . S
C883 N882 1.351 . S
C883 C884 1.434 . S
C884 C875 1.429 . S
C884 N881 1.350 . S
C884 C883 1.434 . S
C885 C886 1.369 . S
C885 C887 1.419 . S
C885 H889 0.930 . S
C886 C885 1.369 . S
C886 C895 1.429 . S
C887 C885 1.419 . S
C887 C888 1.363 . S
C887 H890 0.929 . S
C888 C887 1.363 . S
C888 C894 1.428 . S
H889 C885 0.930 . S
H890 C887 0.929 . S
S891 N892 1.613 . S
S891 N893 1.610 . S
N892 S891 1.613 . S
N892 C895 1.350 . S
N893 S891 1.610 . S
N893 C894 1.351 . S
C894 C888 1.428 . S
C894 N893 1.351 . S
C894 C895 1.434 . S
C895 C886 1.429 . S
C895 N892 1.350 . S
C895 C894 1.434 . S
C896 C897 1.369 . S
C896 C898 1.419 . S
C896 H900 0.930 . S
C897 C896 1.369 . S
C897 C906 1.429 . S
C898 C896 1.419 . S
C898 C899 1.363 . S
C898 H901 0.929 . S
C899 C898 1.363 . S
C899 C905 1.428 . S
H900 C896 0.930 . S
H901 C898 0.929 . S
S902 N903 1.613 . S
S902 N904 1.610 . S
N903 S902 1.613 . S
N903 C906 1.350 . S
N904 S902 1.610 . S
N904 C905 1.351 . S
C905 C899 1.428 . S
C905 N904 1.351 . S
C905 C906 1.434 . S
C906 C897 1.429 . S
C906 N903 1.350 . S
C906 C905 1.434 . S
C907 C908 1.369 . S
C907 C909 1.419 . S
C907 H911 0.930 . S
C908 C907 1.369 . S
C908 C917 1.429 . S
C909 C907 1.419 . S
C909 C910 1.363 . S
C909 H912 0.929 . S
C910 C909 1.363 . S
C910 C916 1.428 . S
H911 C907 0.930 . S
H912 C909 0.929 . S
S913 N914 1.613 . S
S913 N915 1.610 . S
N914 S913 1.613 . S
N914 C917 1.350 . S
N915 S913 1.610 . S
N915 C916 1.351 . S
C916 C910 1.428 . S
C916 N915 1.351 . S
C916 C917 1.434 . S
C917 C908 1.429 . S
C917 N914 1.350 . S
C917 C916 1.434 . S
C918 C919 1.369 . S
C918 C920 1.419 . S
C918 H922 0.930 . S
C919 C918 1.369 . S
C919 C928 1.429 . S
C920 C918 1.419 . S
C920 C921 1.363 . S
C920 H923 0.929 . S
C921 C920 1.363 . S
C921 C927 1.428 . S
H922 C918 0.930 . S
H923 C920 0.929 . S
S924 N925 1.613 . S
S924 N926 1.610 . S
N925 S924 1.613 . S
N925 C928 1.350 . S
N926 S924 1.610 . S
N926 C927 1.351 . S
C927 C921 1.428 . S
C927 N926 1.351 . S
C927 C928 1.434 . S
C928 C919 1.429 . S
C928 N925 1.350 . S
C928 C927 1.434 . S
C929 C930 1.369 . S
C929 C931 1.419 . S
C929 H933 0.930 . S
C930 C929 1.369 . S
C930 C939 1.429 . S
C931 C929 1.419 . S
C931 C932 1.363 . S
C931 H934 0.929 . S
C932 C931 1.363 . S
C932 C938 1.428 . S
H933 C929 0.930 . S
H934 C931 0.929 . S
S935 N936 1.613 1_655 S
S935 N937 1.617 . S
N936 S935 1.613 1_455 S
N936 C939 1.350 . S
N937 S935 1.617 . S
N937 C938 1.330 1_655 S
C938 C932 1.428 . S
C938 N937 1.330 1_455 S
C938 C939 1.434 . S
C939 C930 1.429 . S
C939 N936 1.350 . S
C939 C938 1.434 . S
C940 C941 1.369 . S
C940 C942 1.419 . S
C940 H944 0.930 . S
C941 C940 1.369 . S
C941 C950 1.429 . S
C942 C940 1.419 . S
C942 C943 1.363 . S
C942 H945 0.929 . S
C943 C942 1.363 . S
C943 C949 1.428 . S
H944 C940 0.930 . S
H945 C942 0.929 . S
S946 N947 1.613 . S
S946 N948 1.610 . S
N947 S946 1.613 . S
N947 C950 1.350 . S
N948 S946 1.610 . S
N948 C949 1.351 . S
C949 C943 1.428 . S
C949 N948 1.351 . S
C949 C950 1.434 . S
C950 C941 1.429 . S
C950 N947 1.350 . S
C950 C949 1.434 . S
C951 C952 1.369 . S
C951 C953 1.419 . S
C951 H955 0.930 . S
C952 C951 1.369 . S
C952 C961 1.429 . S
C953 C951 1.419 . S
C953 C954 1.363 . S
C953 H956 0.929 . S
C954 C953 1.363 . S
C954 C960 1.428 . S
H955 C951 0.930 . S
H956 C953 0.929 . S
S957 N958 1.613 . S
S957 N959 1.610 . S
N958 S957 1.613 . S
N958 C961 1.350 . S
N959 S957 1.610 . S
N959 C960 1.351 . S
C960 C954 1.428 . S
C960 N959 1.351 . S
C960 C961 1.434 . S
C961 C952 1.429 . S
C961 N958 1.350 . S
C961 C960 1.434 . S
C962 C963 1.369 . S
C962 C964 1.419 . S
C962 H966 0.930 . S
C963 C962 1.369 . S
C963 C972 1.429 . S
C964 C962 1.419 . S
C964 C965 1.363 . S
C964 H967 0.929 . S
C965 C964 1.363 . S
C965 C971 1.428 . S
H966 C962 0.930 . S
H967 C964 0.929 . S
S968 N969 1.613 . S
S968 N970 1.610 . S
N969 S968 1.613 . S
N969 C972 1.350 . S
N970 S968 1.610 . S
N970 C971 1.351 . S
C971 C965 1.428 . S
C971 N970 1.351 . S
C971 C972 1.434 . S
C972 C963 1.429 . S
C972 N969 1.350 . S
C972 C971 1.434 . S
C973 C974 1.369 . S
C973 C975 1.419 . S
C973 H977 0.930 . S
C974 C973 1.369 . S
C974 C983 1.429 . S
C975 C973 1.419 . S
C975 C976 1.363 . S
C975 H978 0.929 . S
C976 C975 1.363 . S
C976 C982 1.428 . S
H977 C973 0.930 . S
H978 C975 0.929 . S
S979 N980 1.613 . S
S979 N981 1.610 . S
N980 S979 1.613 . S
N980 C983 1.350 . S
N981 S979 1.610 . S
N981 C982 1.351 . S
C982 C976 1.428 . S
C982 N981 1.351 . S
C982 C983 1.434 . S
C983 C974 1.429 . S
C983 N980 1.350 . S
C983 C982 1.434 . S
C984 C985 1.369 . S
C984 C986 1.419 . S
C984 H988 0.930 . S
C985 C984 1.369 . S
C985 C994 1.429 . S
C986 C984 1.419 . S
C986 C987 1.363 . S
C986 H989 0.929 . S
C987 C986 1.363 . S
C987 C993 1.428 . S
H988 C984 0.930 . S
H989 C986 0.929 . S
S990 N991 1.613 . S
S990 N992 1.610 . S
N991 S990 1.613 . S
N991 C994 1.350 . S
N992 S990 1.610 . S
N992 C993 1.351 . S
C993 C987 1.428 . S
C993 N992 1.351 . S
C993 C994 1.434 . S
C994 C985 1.429 . S
C994 N991 1.350 . S
C994 C993 1.434 . S
C995 C996 1.369 . S
C995 C997 1.419 . S
C995 H999 0.930 . S
C996 C995 1.369 . S
C996 C1005 1.429 . S
C997 C995 1.419 . S
C997 C998 1.363 . S
C997 H1000 0.929 . S
C998 C997 1.363 . S
C998 C1004 1.428 . S
H999 C995 0.930 . S
H1000 C997 0.929 . S
S1001 N1002 1.613 . S
S1001 N1003 1.610 . S
N1002 S1001 1.613 . S
N1002 C1005 1.350 . S
N1003 S1001 1.610 . S
N1003 C1004 1.351 . S
C1004 C998 1.428 . S
C1004 N1003 1.351 . S
C1004 C1005 1.434 . S
C1005 C996 1.429 . S
C1005 N1002 1.350 . S
C1005 C1004 1.434 . S
C1006 C1007 1.369 . S
C1006 C1008 1.419 . S
C1006 H1010 0.930 . S
C1007 C1006 1.369 . S
C1007 C1016 1.429 . S
C1008 C1006 1.419 . S
C1008 C1009 1.363 . S
C1008 H1011 0.929 . S
C1009 C1008 1.363 . S
C1009 C1015 1.428 . S
H1010 C1006 0.930 . S
H1011 C1008 0.929 . S
S1012 N1013 1.613 . S
S1012 N1014 1.610 . S
N1013 S1012 1.613 . S
N1013 C1016 1.350 . S
N1014 S1012 1.610 . S
N1014 C1015 1.351 . S
C1015 C1009 1.428 . S
C1015 N1014 1.351 . S
C1015 C1016 1.434 . S
C1016 C1007 1.429 . S
C1016 N1013 1.350 . S
C1016 C1015 1.434 . S
C1017 C1018 1.369 . S
C1017 C1019 1.419 . S
C1017 H1021 0.930 . S
C1018 C1017 1.369 . S
C1018 C1027 1.429 . S
C1019 C1017 1.419 . S
C1019 C1020 1.363 . S
C1019 H1022 0.929 . S
C1020 C1019 1.363 . S
C1020 C1026 1.428 . S
H1021 C1017 0.930 . S
H1022 C1019 0.929 . S
S1023 N1024 1.613 . S
S1023 N1025 1.610 . S
N1024 S1023 1.613 . S
N1024 C1027 1.350 . S
N1025 S1023 1.610 . S
N1025 C1026 1.351 . S
C1026 C1020 1.428 . S
C1026 N1025 1.351 . S
C1026 C1027 1.434 . S
C1027 C1018 1.429 . S
C1027 N1024 1.350 . S
C1027 C1026 1.434 . S
C1028 C1029 1.369 . S
C1028 C1030 1.419 . S
C1028 H1032 0.930 . S
C1029 C1028 1.369 . S
C1029 C1038 1.429 . S
C1030 C1028 1.419 . S
C1030 C1031 1.363 . S
C1030 H1033 0.929 . S
C1031 C1030 1.363 . S
C1031 C1037 1.428 . S
H1032 C1028 0.930 . S
H1033 C1030 0.929 . S
S1034 N1035 1.613 . S
S1034 N1036 1.610 . S
N1035 S1034 1.613 . S
N1035 C1038 1.350 . S
N1036 S1034 1.610 . S
N1036 C1037 1.351 . S
C1037 C1031 1.428 . S
C1037 N1036 1.351 . S
C1037 C1038 1.434 . S
C1038 C1029 1.429 . S
C1038 N1035 1.350 . S
C1038 C1037 1.434 . S
C1039 C1040 1.369 . S
C1039 C1041 1.419 . S
C1039 H1043 0.930 . S
C1040 C1039 1.369 . S
C1040 C1049 1.429 . S
C1041 C1039 1.419 . S
C1041 C1042 1.363 . S
C1041 H1044 0.929 . S
C1042 C1041 1.363 . S
C1042 C1048 1.428 . S
H1043 C1039 0.930 . S
H1044 C1041 0.929 . S
S1045 N1046 1.613 . S
S1045 N1047 1.610 . S
N1046 S1045 1.613 . S
N1046 C1049 1.350 . S
N1047 S1045 1.610 . S
N1047 C1048 1.351 . S
C1048 C1042 1.428 . S
C1048 N1047 1.351 . S
C1048 C1049 1.434 . S
C1049 C1040 1.429 . S
C1049 N1046 1.350 . S
C1049 C1048 1.434 . S
C1050 C1051 1.369 . S
C1050 C1052 1.419 . S
C1050 H1054 0.930 . S
C1051 C1050 1.369 . S
C1051 C1060 1.429 . S
C1052 C1050 1.419 . S
C1052 C1053 1.363 . S
C1052 H1055 0.929 . S
C1053 C1052 1.363 . S
C1053 C1059 1.428 . S
H1054 C1050 0.930 . S
H1055 C1052 0.929 . S
S1056 N1057 1.613 . S
S1056 N1058 1.610 . S
N1057 S1056 1.613 . S
N1057 C1060 1.350 . S
N1058 S1056 1.610 . S
N1058 C1059 1.351 . S
C1059 C1053 1.428 . S
C1059 N1058 1.351 . S
C1059 C1060 1.434 . S
C1060 C1051 1.429 . S
C1060 N1057 1.350 . S
C1060 C1059 1.434 . S
C1061 C1062 1.369 . S
C1061 C1063 1.419 . S
C1061 H1065 0.930 . S
C1062 C1061 1.369 . S
C1062 C1071 1.429 . S
C1063 C1061 1.419 . S
C1063 C1064 1.363 . S
C1063 H1066 0.929 . S
C1064 C1063 1.363 . S
C1064 C1070 1.428 . S
H1065 C1061 0.930 . S
H1066 C1063 0.929 . S
S1067 N1068 1.613 . S
S1067 N1069 1.610 . S
N1068 S1067 1.613 . S
N1068 C1071 1.350 . S
N1069 S1067 1.610 . S
N1069 C1070 1.351 . S
C1070 C1064 1.428 . S
C1070 N1069 1.351 . S
C1070 C1071 1.434 . S
C1071 C1062 1.429 . S
C1071 N1068 1.350 . S
C1071 C1070 1.434 . S
C1072 C1073 1.369 . S
C1072 C1074 1.419 . S
C1072 H1076 0.930 . S
C1073 C1072 1.369 . S
C1073 C1082 1.429 . S
C1074 C1072 1.419 . S
C1074 C1075 1.363 . S
C1074 H1077 0.929 . S
C1075 C1074 1.363 . S
C1075 C1081 1.428 . S
H1076 C1072 0.930 . S
H1077 C1074 0.929 . S
S1078 N1079 1.613 . S
S1078 N1080 1.610 . S
N1079 S1078 1.613 . S
N1079 C1082 1.350 . S
N1080 S1078 1.610 . S
N1080 C1081 1.351 . S
C1081 C1075 1.428 . S
C1081 N1080 1.351 . S
C1081 C1082 1.434 . S
C1082 C1073 1.429 . S
C1082 N1079 1.350 . S
C1082 C1081 1.434 . S
C1083 C1084 1.369 . S
C1083 C1085 1.419 . S
C1083 H1087 0.930 . S
C1084 C1083 1.369 . S
C1084 C1093 1.429 . S
C1085 C1083 1.419 . S
C1085 C1086 1.363 . S
C1085 H1088 0.929 . S
C1086 C1085 1.363 . S
C1086 C1092 1.428 . S
H1087 C1083 0.930 . S
H1088 C1085 0.929 . S
S1089 N1090 1.613 . S
S1089 N1091 1.610 . S
N1090 S1089 1.613 . S
N1090 C1093 1.350 . S
N1091 S1089 1.610 . S
N1091 C1092 1.351 . S
C1092 C1086 1.428 . S
C1092 N1091 1.351 . S
C1092 C1093 1.434 . S
C1093 C1084 1.429 . S
C1093 N1090 1.350 . S
C1093 C1092 1.434 . S
C1094 C1095 1.369 . S
C1094 C1096 1.419 . S
C1094 H1098 0.930 . S
C1095 C1094 1.369 . S
C1095 C1104 1.429 . S
C1096 C1094 1.419 . S
C1096 C1097 1.363 . S
C1096 H1099 0.929 . S
C1097 C1096 1.363 . S
C1097 C1103 1.428 . S
H1098 C1094 0.930 . S
H1099 C1096 0.929 . S
S1100 N1101 1.613 . S
S1100 N1102 1.610 . S
N1101 S1100 1.613 . S
N1101 C1104 1.350 . S
N1102 S1100 1.610 . S
N1102 C1103 1.351 . S
C1103 C1097 1.428 . S
C1103 N1102 1.351 . S
C1103 C1104 1.434 . S
C1104 C1095 1.429 . S
C1104 N1101 1.350 . S
C1104 C1103 1.434 . S
C1105 C1106 1.369 . S
C1105 C1107 1.419 . S
C1105 H1109 0.930 . S
C1106 C1105 1.369 . S
C1106 C1115 1.429 . S
C1107 C1105 1.419 . S
C1107 C1108 1.363 . S
C1107 H1110 0.929 . S
C1108 C1107 1.363 . S
C1108 C1114 1.428 . S
H1109 C1105 0.930 . S
H1110 C1107 0.929 . S
S1111 N1112 1.613 . S
S1111 N1113 1.610 . S
N1112 S1111 1.613 . S
N1112 C1115 1.350 . S
N1113 S1111 1.610 . S
N1113 C1114 1.351 . S
C1114 C1108 1.428 . S
C1114 N1113 1.351 . S
C1114 C1115 1.434 . S
C1115 C1106 1.429 . S
C1115 N1112 1.350 . S
C1115 C1114 1.434 . S
C523 C253 1.574 . S
C525 C348 1.556 . S
C534 C272 1.513 . S
C536 C368 1.490 . S
C545 C234 1.512 . S
C547 C391 1.533 . S
C556 C215 1.439 . S
C558 C371 1.445 1_556 S
C569 C388 1.470 . S
C567 C177 1.482 . S
C578 C196 1.515 . S
C580 C351 1.521 . S
C591 C358 1.564 . S
C589 C220 1.460 . S
C602 C378 1.429 . S
C600 C182 1.378 . S
C611 C201 1.531 . S
C613 C383 1.606 . S
C622 C258 1.441 . S
C624 C363 1.513 . S
C633 C277 1.349 . S
C635 C398 1.446 . S
C646 C343 1.607 . S
C644 C239 1.495 . S
C657 C408 1.557 . S
C655 C25 1.574 . S
C666 C44 1.513 . S
C668 C428 1.490 . S
C677 C6 1.512 . S
C679 C451 1.533 . S
C688 C329 1.438 . S
C690 C431 1.446 . S
C699 C291 1.482 . S
C701 C448 1.471 . S
C710 C310 1.516 . S
C712 C411 1.521 . S
C721 C334 1.464 . S
C723 C418 1.556 . S
C732 C296 1.379 . S
C734 C438 1.430 . S
C745 C443 1.604 . S
C743 C315 1.534 . S
C754 C30 1.439 1_565 S
C756 C423 1.517 . S
C767 C458 1.443 . S
C765 C49 1.364 1_455 S
C776 C11 1.500 . S
C778 C403 1.607 . S
C789 C468 1.556 . S
C787 C139 1.574 . S
C798 C158 1.513 . S
C800 C488 1.490 . S
C811 C511 1.531 . S
C809 C120 1.516 . S
C822 C491 1.447 . S
C820 C101 1.434 . S
C833 C508 1.467 . S
C831 C63 1.483 . S
C842 C82 1.512 . S
C844 C471 1.522 . S
C853 C106 1.466 . S
C855 C478 1.560 . S
C864 C68 1.387 . S
C866 C498 1.422 . S
C877 C503 1.607 . S
C875 C87 1.529 1_545 S
C886 C144 1.441 . S
C888 C483 1.513 . S
C897 C163 1.351 . S
C899 C518 1.448 . S
C908 C125 1.495 . S
C910 C463 1.608 . S
C919 C287 1.436 . S
C921 C361 1.383 . S
C932 C381 1.650 . S
C930 C306 1.741 . S
C941 C325 1.537 . S
C943 C390 1.516 . S
C952 C116 1.675 . S
C954 C370 1.639 . S
C963 C135 1.645 . S
C965 C401 1.571 . S
C976 C350 1.375 . S
C974 C154 1.382 . S
C985 C59 1.438 . S
C987 C421 1.375 . S
C996 C78 1.740 . S
C998 C441 1.651 . S
C1007 C97 1.544 . S
C1009 C450 1.516 . S
C1018 C230 1.671 . S
C1020 C430 1.637 . S
C1031 C461 1.570 . S
C1029 C249 1.645 . S
C1040 C268 1.381 . S
C1042 C410 1.374 . S
C1051 C173 1.436 . S
C1053 C481 1.379 . S
C1062 C192 1.742 . S
C1064 C501 1.651 . S
C1075 C510 1.518 . S
C1073 C211 1.543 . S
C1084 C2 1.675 . S
C1086 C490 1.639 . S
C1095 C21 1.644 . S
C1097 C521 1.571 . S
C1106 C40 1.387 . S
C1108 C470 1.374 . S
