# Generated by pormake.
# Topology rtl, (3,6)-cn, num edge types: 1
# Building blocks:
#     Node 0, Type 0, BuildingBlock: MIDCAF_clean_linker_0, # of connection points: 3
#     Node 1, Type 0, BuildingBlock: MIDCAF_clean_linker_0, # of connection points: 3
#     Node 2, Type 0, BuildingBlock: MIDCAF_clean_linker_0, # of connection points: 3
#     Node 3, Type 0, BuildingBlock: MIDCAF_clean_linker_0, # of connection points: 3
#     Node 4, Type 1, BuildingBlock: LEVNOQ01_clean_sbu_1, # of connection points: 6
#     Node 5, Type 1, BuildingBlock: LEVNOQ01_clean_sbu_1, # of connection points: 6
#     Edge 6, Type (0, 1), BuildingBlock: TEMPAE_clean_linker_10, # of connection points: 2
#     Edge 7, Type (0, 1), BuildingBlock: TEMPAE_clean_linker_10, # of connection points: 2
#     Edge 8, Type (0, 1), BuildingBlock: TEMPAE_clean_linker_10, # of connection points: 2
#     Edge 9, Type (0, 1), BuildingBlock: TEMPAE_clean_linker_10, # of connection points: 2
#     Edge 10, Type (0, 1), BuildingBlock: TEMPAE_clean_linker_10, # of connection points: 2
#     Edge 11, Type (0, 1), BuildingBlock: TEMPAE_clean_linker_10, # of connection points: 2
#     Edge 12, Type (0, 1), BuildingBlock: TEMPAE_clean_linker_10, # of connection points: 2
#     Edge 13, Type (0, 1), BuildingBlock: TEMPAE_clean_linker_10, # of connection points: 2
#     Edge 14, Type (0, 1), BuildingBlock: TEMPAE_clean_linker_10, # of connection points: 2
#     Edge 15, Type (0, 1), BuildingBlock: TEMPAE_clean_linker_10, # of connection points: 2
#     Edge 16, Type (0, 1), BuildingBlock: TEMPAE_clean_linker_10, # of connection points: 2
#     Edge 17, Type (0, 1), BuildingBlock: TEMPAE_clean_linker_10, # of connection points: 2
# Relax obj value: 0.027
# Max RMSD: 0.061
# Mean RMSD: 0.047
data_MOF--net-rtl--node1-LEVNOQ01_clean_sbu_1--node2-MIDCAF_clean_linker_0--edge1-TEMPAE_clean_linker_10
_symmetry_space_group_name_H-M    P1
_symmetry_Int_Tables_number       1
_symmetry_cell_setting            triclinic
loop_
_symmetry_equiv_pos_as_xyz
'x, y, z'
_cell_length_a     37.451657
_cell_length_b     42.492817
_cell_length_c     29.992058
_cell_angle_alpha  89.831276
_cell_angle_beta   97.763046
_cell_angle_gamma 90.108928
loop_
_atom_site_label
_atom_site_type_symbol
_atom_site_fract_x
_atom_site_fract_y
_atom_site_fract_z
_atom_type_partial_charge
C0 C 0.21294 0.96505 0.20976 0.0
C1 C 0.2248 0.95508 0.25399 0.0
C2 C 0.24961 0.93019 0.26087 0.0
C3 C 0.26065 0.91441 0.22426 0.0
H4 H 0.31385 0.83356 0.19276 0.0
H5 H 0.34554 0.78316 0.20392 0.0
H6 H 0.32331 0.76515 0.06124 0.0
H7 H 0.29168 0.81468 0.04999 0.0
H8 H 0.24409 0.85807 0.98631 0.0
H9 H 0.21355 0.87016 0.91131 0.0
H10 H 0.17751 0.95861 0.95995 0.0
H11 H 0.20721 0.94632 0.03512 0.0
H12 H 0.21335 0.95707 0.13955 0.0
H13 H 0.19416 0.98442 0.20343 0.0
H14 H 0.25902 0.92177 0.29453 0.0
H15 H 0.2787 0.89456 0.23086 0.0
N16 N 0.27465 0.87704 0.14808 0.0
N17 N 0.26498 0.86649 0.07073 0.0
N18 N 0.2404 0.9118 0.0986 0.0
C19 C 0.27983 0.85822 0.11298 0.0
C20 C 0.24532 0.89322 0.06315 0.0
C21 C 0.25503 0.90396 0.14116 0.0
C22 C 0.29999 0.82821 0.12047 0.0
C23 C 0.31568 0.81878 0.16381 0.0
C24 C 0.33385 0.78996 0.17028 0.0
C25 C 0.33634 0.76996 0.13361 0.0
C26 C 0.32104 0.77963 0.09039 0.0
C27 C 0.30313 0.80829 0.0839 0.0
C28 C 0.22803 0.90115 0.01699 0.0
C29 C 0.22972 0.88015 0.9811 0.0
C30 C 0.2123 0.8871 0.93797 0.0
C31 C 0.19284 0.91522 0.92966 0.0
C32 C 0.19164 0.93642 0.96537 0.0
C33 C 0.20893 0.92946 0.00848 0.0
C34 C 0.24715 0.92319 0.17991 0.0
C35 C 0.22402 0.94934 0.17315 0.0
C36 C 0.69704 0.57986 0.44523 0.0
C37 C 0.69498 0.60159 0.40958 0.0
C38 C 0.71147 0.63116 0.41718 0.0
C39 C 0.72931 0.63897 0.45973 0.0
H40 H 0.81536 0.69306 0.52748 0.0
H41 H 0.85018 0.74155 0.53667 0.0
H42 H 0.83307 0.7463 0.67595 0.0
H43 H 0.79811 0.69737 0.667 0.0
H44 H 0.76793 0.63424 0.70955 0.0
H45 H 0.74644 0.60769 0.77279 0.0
H46 H 0.69991 0.53415 0.68404 0.0
H47 H 0.72063 0.56103 0.62046 0.0
H48 H 0.71507 0.57061 0.51474 0.0
H49 H 0.68428 0.55699 0.44044 0.0
H50 H 0.7105 0.64827 0.39021 0.0
H51 H 0.74137 0.66211 0.46454 0.0
N52 N 0.76795 0.65291 0.54806 0.0
N53 N 0.77494 0.64484 0.62618 0.0
N54 N 0.74099 0.60928 0.57792 0.0
C55 C 0.78193 0.66218 0.59017 0.0
C56 C 0.75465 0.61821 0.6203 0.0
C57 C 0.74742 0.62652 0.54162 0.0
C58 C 0.80391 0.69128 0.5965 0.0
C59 C 0.81904 0.70428 0.56017 0.0
C60 C 0.83923 0.73197 0.56549 0.0
C61 C 0.8445 0.74756 0.60711 0.0
C62 C 0.82938 0.73473 0.64351 0.0
C63 C 0.80953 0.70668 0.63838 0.0
C64 C 0.74554 0.6001 0.65967 0.0
C65 C 0.75356 0.61219 0.70349 0.0
C66 C 0.74147 0.59679 0.73993 0.0
C67 C 0.72123 0.56887 0.73348 0.0
C68 C 0.71495 0.55588 0.69006 0.0
C69 C 0.72689 0.57132 0.6536 0.0
C70 C 0.73064 0.61751 0.49576 0.0
C71 C 0.71451 0.58777 0.48788 0.0
C72 C 0.80204 0.06669 0.8901 0.0
C73 C 0.79422 0.07951 0.84661 0.0
C74 C 0.77229 0.10642 0.84041 0.0
C75 C 0.75985 0.12098 0.8771 0.0
H76 H 0.71856 0.20731 0.91625 0.0
H77 H 0.68225 0.25545 0.9071 0.0
H78 H 0.65318 0.24265 0.04037 0.0
H79 H 0.68973 0.19504 0.05001 0.0
H80 H 0.77297 0.16978 0.11542 0.0
H81 H 0.80344 0.15556 0.18999 0.0
H82 H 0.8249 0.06292 0.14145 0.0
H83 H 0.79475 0.07701 0.06684 0.0
H84 H 0.79705 0.07117 0.95996 0.0
H85 H 0.81842 0.04572 0.89592 0.0
H86 H 0.76611 0.11715 0.80749 0.0
H87 H 0.74401 0.14224 0.87115 0.0
N88 N 0.73802 0.1524 0.95448 0.0
N89 N 0.74363 0.15955 0.03266 0.0
N90 N 0.77251 0.11716 0.00282 0.0
C91 C 0.72993 0.16897 0.99047 0.0
C92 C 0.765 0.1337 0.03912 0.0
C93 C 0.75912 0.12631 0.96037 0.0
C94 C 0.70705 0.19741 0.98391 0.0
C95 C 0.70423 0.21469 0.94348 0.0
C96 C 0.68361 0.24224 0.93823 0.0
C97 C 0.66482 0.25254 0.9729 0.0
C98 C 0.66713 0.23498 0.01293 0.0
C99 C 0.68825 0.20787 0.01854 0.0
C100 C 0.78148 0.12454 0.08507 0.0
C101 C 0.7839 0.14628 0.12068 0.0
C102 C 0.8015 0.13825 0.16333 0.0
C103 C 0.81649 0.10817 0.17143 0.0
C104 C 0.81331 0.0862 0.1362 0.0
C105 C 0.79621 0.09435 0.09342 0.0
C106 C 0.76916 0.10905 0.92093 0.0
C107 C 0.7897 0.0813 0.92682 0.0
C108 C 0.31403 0.43699 0.61899 0.0
C109 C 0.31115 0.41653 0.6553 0.0
C110 C 0.29053 0.38894 0.64739 0.0
C111 C 0.27359 0.38182 0.6041 0.0
H112 H 0.20236 0.3219 0.53623 0.0
H113 H 0.16484 0.27549 0.5261 0.0
H114 H 0.14822 0.291 0.38239 0.0
H115 H 0.18691 0.33767 0.39234 0.0
H116 H 0.22284 0.40152 0.35445 0.0
H117 H 0.24493 0.42682 0.29004 0.0
H118 H 0.33127 0.46985 0.37915 0.0
H119 H 0.30941 0.44495 0.44349 0.0
H120 H 0.30031 0.44613 0.54869 0.0
H121 H 0.32901 0.45881 0.624 0.0
H122 H 0.28796 0.37255 0.6745 0.0
H123 H 0.25825 0.36018 0.59917 0.0
N124 N 0.237 0.36945 0.5143 0.0
N125 N 0.23036 0.37861 0.43643 0.0
N126 N 0.2682 0.41095 0.48558 0.0
C127 C 0.22195 0.36151 0.47201 0.0
C128 C 0.2535 0.40342 0.44301 0.0
C129 C 0.26003 0.39416 0.52144 0.0
C130 C 0.19773 0.33372 0.46513 0.0
C131 C 0.1907 0.31572 0.50236 0.0
C132 C 0.16885 0.2891 0.49658 0.0
C133 C 0.1531 0.27971 0.45344 0.0
C134 C 0.16002 0.29759 0.41603 0.0
C135 C 0.18207 0.32439 0.42182 0.0
C136 C 0.26453 0.4209 0.40418 0.0
C137 C 0.2463 0.41664 0.36041 0.0
C138 C 0.25874 0.43129 0.32354 0.0
C139 C 0.28987 0.45012 0.32971 0.0
C140 C 0.30733 0.45526 0.3735 0.0
C141 C 0.2947 0.44099 0.41034 0.0
C142 C 0.277 0.40207 0.56767 0.0
C143 C 0.29732 0.42981 0.57575 0.0
O144 O 0.97899 0.07512 0.62831 0.0
Mg145 Mg 0.03266 0.07235 0.61608 0.0
O146 O 0.96453 0.03034 0.59277 0.0
Mg147 Mg 0.01044 0.01696 0.54959 0.0
O148 O 0.03628 0.06633 0.54965 0.0
O149 O 0.05509 0.10981 0.58749 0.0
O150 O 0.05911 0.00694 0.50731 0.0
O151 O 0.97235 0.03524 0.48704 0.0
Mg152 Mg 0.00565 0.97082 0.49396 0.0
O153 O 0.98129 0.96668 0.55117 0.0
O154 O 0.05904 0.9561 0.49829 0.0
O155 O 0.98517 -0.00018 0.43878 0.0
O156 O 0.97305 0.93338 0.49234 0.0
C157 C 0.0677 0.01131 0.64765 0.0
C158 C 0.95671 0.05307 0.61756 0.0
C159 C 0.05074 0.09412 0.55037 0.0
C160 C 0.07492 0.98209 0.49633 0.0
C161 C 0.96998 0.02532 0.44677 0.0
C162 C 0.96727 0.94107 0.53224 0.0
O163 O 0.0669 0.04065 0.65494 0.0
O164 O 0.04871 0.9991 0.61335 0.0
O165 O 0.51854 0.50372 0.13832 0.0
Mg166 Mg 0.4968 0.47549 0.08245 0.0
O167 O 0.53855 0.53661 0.09104 0.0
Mg168 Mg 0.4986 0.52071 0.02931 0.0
O169 O 0.52388 0.46876 0.02858 0.0
O170 O 0.52489 0.43527 0.08704 0.0
O171 O 0.45782 0.50264 0.96746 0.0
O172 O 0.5461 0.52877 0.98561 0.0
Mg173 Mg 0.48069 0.56941 0.96218 0.0
O174 O 0.47827 0.57337 0.0297 0.0
O175 O 0.43984 0.54347 0.92499 0.0
O176 O 0.53161 0.56984 0.942 0.0
O177 O 0.46518 0.61219 0.97911 0.0
C178 C 0.42986 0.49191 0.07974 0.0
C179 C 0.53787 0.52717 0.13121 0.0
C180 C 0.53409 0.44228 0.04836 0.0
C181 C 0.43787 0.51447 0.93367 0.0
C182 C 0.55384 0.54867 0.95637 0.0
C183 C 0.46785 0.60219 0.0201 0.0
O184 O 0.44173 0.46501 0.07255 0.0
O185 O 0.44951 0.51568 0.07344 0.0
C186 C 0.107 0.24438 0.48001 0.0
C187 C 0.13047 0.25078 0.44849 0.0
C188 C 0.09093 0.21477 0.48224 0.0
C189 C 0.09768 0.19105 0.4513 0.0
C190 C 0.11807 0.19846 0.41619 0.0
C191 C 0.13464 0.22821 0.41547 0.0
C192 C 0.0692 0.20821 0.52024 0.0
C193 C 0.12455 0.17453 0.38114 0.0
C194 C 0.10122 0.11586 0.5164 0.0
C195 C 0.06464 0.10804 0.51138 0.0
C196 C 0.11364 0.14065 0.49179 0.0
C197 C 0.08865 0.15789 0.4615 0.0
C198 C 0.05281 0.14668 0.45116 0.0
C199 C 0.04097 0.12192 0.47682 0.0
C200 C 0.15232 0.15116 0.50327 0.0
C201 C 0.02597 0.16309 0.41692 0.0
H202 H 0.10264 0.26212 0.5046 0.0
H203 H 0.15242 0.23303 0.3906 0.0
H204 H 0.04232 0.19871 0.50684 0.0
H205 H 0.08311 0.19022 0.54323 0.0
H206 H 0.06529 0.22961 0.54021 0.0
H207 H 0.12778 0.18624 0.34876 0.0
H208 H 0.14985 0.1616 0.39259 0.0
H209 H 0.10223 0.15719 0.37523 0.0
H210 H 0.11942 0.10489 0.54317 0.0
H211 H 0.01261 0.11575 0.47294 0.0
H212 H 0.1533 0.17316 0.5233 0.0
H213 H 0.16436 0.15627 0.47225 0.0
H214 H 0.1691 0.13315 0.52316 0.0
H215 H 0.01381 0.18311 0.43311 0.0
H216 H 0.00387 0.14689 0.40323 0.0
H217 H 0.03919 0.17255 0.38873 0.0
C218 C 0.39053 0.73756 0.16325 0.0
C219 C 0.35584 0.7395 0.13897 0.0
C220 C 0.41235 0.71113 0.15898 0.0
C221 C 0.39933 0.68672 0.12904 0.0
C222 C 0.3628 0.68689 0.10924 0.0
C223 C 0.34145 0.71321 0.11472 0.0
C224 C 0.45041 0.71079 0.183 0.0
C225 C 0.34741 0.66103 0.07789 0.0
C226 C 0.45578 0.65626 0.04427 0.0
C227 C 0.45777 0.62406 0.05454 0.0
C228 C 0.43932 0.67735 0.07064 0.0
C229 C 0.42496 0.66612 0.109 0.0
C230 C 0.43045 0.63428 0.12246 0.0
C231 C 0.4466 0.61339 0.09474 0.0
C232 C 0.43453 0.71114 0.05492 0.0
C233 C 0.41728 0.62165 0.1643 0.0
H234 H 0.40163 0.75757 0.18279 0.0
H235 H 0.31415 0.71418 0.09729 0.0
H236 H 0.45895 0.68648 0.19298 0.0
H237 H 0.469 0.71992 0.16017 0.0
H238 H 0.45315 0.7259 0.21344 0.0
H239 H 0.31771 0.663 0.06912 0.0
H240 H 0.3598 0.66219 0.04631 0.0
H241 H 0.35377 0.63765 0.09338 0.0
H242 H 0.46536 0.66485 0.01393 0.0
H243 H 0.44862 0.58859 0.1033 0.0
H244 H 0.44478 0.72748 0.08245 0.0
H245 H 0.40545 0.71619 0.04518 0.0
H246 H 0.4488 0.71629 0.02556 0.0
H247 H 0.41578 0.64029 0.1898 0.0
H248 H 0.43526 0.60258 0.17949 0.0
H249 H 0.38996 0.61152 0.15522 0.0
C250 C 0.85025 0.80447 0.62899 0.0
C251 C 0.86492 0.7776 0.61142 0.0
C252 C 0.86661 0.83411 0.62623 0.0
C253 C 0.89832 0.83675 0.60555 0.0
C254 C 0.9147 0.80923 0.59113 0.0
C255 C 0.89771 0.78004 0.59408 0.0
C256 C 0.84843 0.86281 0.64225 0.0
C257 C 0.94875 0.81086 0.56938 0.0
C258 C 0.91552 0.90485 0.53051 0.0
C259 C 0.94501 0.91964 0.55567 0.0
C260 C 0.8982 0.87938 0.54804 0.0
C261 C 0.91108 0.86804 0.59168 0.0
C262 C 0.93915 0.88441 0.61862 0.0
C263 C 0.95576 0.9103 0.60028 0.0
C264 C 0.86795 0.86309 0.51834 0.0
C265 C 0.95351 0.87316 0.66533 0.0
H266 H 0.82488 0.80265 0.64245 0.0
H267 H 0.90942 0.75917 0.58123 0.0
H268 H 0.86855 0.87926 0.65996 0.0
H269 H 0.83405 0.8755 0.6128 0.0
H270 H 0.82854 0.85645 0.66512 0.0
H271 H 0.96042 0.78719 0.56526 0.0
H272 H 0.94274 0.82192 0.53563 0.0
H273 H 0.96929 0.82564 0.58966 0.0
H274 H 0.90703 0.91234 0.49611 0.0
H275 H 0.9787 0.9217 0.61965 0.0
H276 H 0.84472 0.85896 0.53696 0.0
H277 H 0.87733 0.83979 0.508 0.0
H278 H 0.85854 0.87691 0.48749 0.0
H279 H 0.93119 0.86607 0.68407 0.0
H280 H 0.96999 0.89152 0.68482 0.0
H281 H 0.97072 0.85218 0.6629 0.0
C282 C 0.60847 0.28248 0.97885 0.0
C283 C 0.64388 0.28217 0.96871 0.0
C284 C 0.59018 0.31092 0.98235 0.0
C285 C 0.60803 0.33975 0.97639 0.0
C286 C 0.64284 0.33946 0.96291 0.0
C287 C 0.66034 0.31057 0.959 0.0
C288 C 0.55281 0.31011 0.99594 0.0
C289 C 0.66283 0.36964 0.95638 0.0
C290 C 0.55129 0.41372 0.98129 0.0
C291 C 0.55664 0.41964 0.02764 0.0
C292 C 0.56905 0.3885 0.96329 0.0
C293 C 0.59296 0.36938 0.99241 0.0
C294 C 0.60017 0.37684 0.03872 0.0
C295 C 0.58167 0.40165 0.05575 0.0
C296 C 0.56053 0.38119 0.91382 0.0
C297 C 0.62603 0.35758 0.0709 0.0
H298 H 0.59559 0.26044 0.98574 0.0
H299 H 0.68777 0.31031 0.95118 0.0
H300 H 0.55411 0.31753 0.03157 0.0
H301 H 0.53478 0.32678 0.97518 0.0
H302 H 0.54071 0.2862 0.99254 0.0
H303 H 0.68637 0.36564 0.9382 0.0
H304 H 0.64476 0.38718 0.93749 0.0
H305 H 0.67269 0.37993 0.98975 0.0
H306 H 0.53183 0.42763 0.95958 0.0
H307 H 0.58617 0.40652 0.09156 0.0
H308 H 0.54298 0.36005 0.90939 0.0
H309 H 0.58547 0.37577 0.89918 0.0
H310 H 0.54634 0.40097 0.8947 0.0
H311 H 0.6148 0.33364 0.07429 0.0
H312 H 0.63115 0.36831 0.1049 0.0
H313 H 0.65215 0.35494 0.05773 0.0
C314 C 0.17071 0.97107 0.28858 0.0
C315 C 0.20825 0.96796 0.29238 0.0
C316 C 0.15372 0.97845 0.32604 0.0
C317 C 0.17478 0.98306 0.36843 0.0
C318 C 0.21284 0.98212 0.37188 0.0
C319 C 0.22916 0.97428 0.33384 0.0
C320 C 0.11302 0.97905 0.32081 0.0
C321 C 0.23625 0.98764 0.41619 0.0
C322 C 0.11798 0.01243 0.45524 0.0
C323 C 0.10708 0.98379 0.47258 0.0
C324 C 0.14268 0.01301 0.42382 0.0
C325 C 0.15646 0.98429 0.40943 0.0
C326 C 0.14807 0.9557 0.43006 0.0
C327 C 0.12365 0.95584 0.46151 0.0
C328 C 0.15171 0.04408 0.40355 0.0
C329 C 0.16227 0.92452 0.41597 0.0
H330 H 0.15435 0.96589 0.2568 0.0
H331 H 0.25824 0.9723 0.3368 0.0
H332 H 0.10312 0.95888 0.33931 0.0
H333 H 0.10347 0.0009 0.33548 0.0
H334 H 0.10074 0.9776 0.28502 0.0
H335 H 0.26476 0.99217 0.41161 0.0
H336 H 0.22614 0.00785 0.43419 0.0
H337 H 0.23544 0.96656 0.43794 0.0
H338 H 0.10556 0.0342 0.46393 0.0
H339 H 0.11584 0.93366 0.47534 0.0
H340 H 0.13566 0.04672 0.36985 0.0
H341 H 0.18061 0.0451 0.39904 0.0
H342 H 0.14547 0.06426 0.42467 0.0
H343 H 0.14984 0.91897 0.38116 0.0
H344 H 0.1562 0.90493 0.4384 0.0
H345 H 0.19184 0.92569 0.41593 0.0
C346 C 0.66712 0.54632 0.76257 0.0
C347 C 0.7034 0.55553 0.77079 0.0
C348 C 0.64767 0.53919 0.79809 0.0
C349 C 0.66485 0.54136 0.84304 0.0
C350 C 0.70223 0.54786 0.85142 0.0
C351 C 0.72107 0.55504 0.81517 0.0
C352 C 0.60785 0.53226 0.78751 0.0
C353 C 0.72173 0.54965 0.89876 0.0
C354 C 0.6007 0.57406 0.91768 0.0
C355 C 0.58761 0.5467 0.93608 0.0
C356 C 0.62771 0.5727 0.88984 0.0
C357 C 0.6422 0.54315 0.8801 0.0
C358 C 0.63129 0.51565 0.90157 0.0
C359 C 0.60397 0.51774 0.92947 0.0
C360 C 0.63864 0.60272 0.86809 0.0
C361 C 0.64655 0.4838 0.89271 0.0
H362 H 0.65311 0.54679 0.72851 0.0
H363 H 0.7493 0.56148 0.82173 0.0
H364 H 0.60038 0.51179 0.80735 0.0
H365 H 0.59227 0.55284 0.79691 0.0
H366 H 0.59967 0.52732 0.75121 0.0
H367 H 0.75142 0.54826 0.89943 0.0
H368 H 0.7153 0.57232 0.9141 0.0
H369 H 0.71288 0.53045 0.91991 0.0
H370 H 0.58849 0.59658 0.92332 0.0
H371 H 0.59393 0.49652 0.94369 0.0
H372 H 0.62943 0.60192 0.83134 0.0
H373 H 0.66839 0.6052 0.87278 0.0
H374 H 0.62693 0.62396 0.88201 0.0
H375 H 0.63348 0.47498 0.8597 0.0
H376 H 0.64168 0.46638 0.91895 0.0
H377 H 0.67593 0.48533 0.89117 0.0
C378 C 0.86383 0.11976 0.23657 0.0
C379 C 0.83653 0.09991 0.21598 0.0
C380 C 0.88529 0.11081 0.27667 0.0
C381 C 0.87893 0.08152 0.29683 0.0
C382 C 0.85031 0.06207 0.27721 0.0
C383 C 0.82964 0.0714 0.23682 0.0
C384 C 0.91583 0.13199 0.29621 0.0
C385 C 0.84234 0.03086 0.29799 0.0
C386 C 0.95532 0.03708 0.365 0.0
C387 C 0.94862 0.04239 0.40924 0.0
C388 C 0.93364 0.05071 0.32832 0.0
C389 C 0.9041 0.06975 0.33595 0.0
C390 C 0.89778 0.07598 0.3806 0.0
C391 C 0.92037 0.06242 0.41685 0.0
C392 C 0.94176 0.04396 0.2813 0.0
C393 C 0.86634 0.09591 0.39 0.0
H394 H 0.86937 0.14171 0.22031 0.0
H395 H 0.80827 0.05621 0.22119 0.0
H396 H 0.91484 0.13596 0.33255 0.0
H397 H 0.94195 0.12044 0.29317 0.0
H398 H 0.9152 0.15515 0.27885 0.0
H399 H 0.81717 0.01996 0.28095 0.0
H400 H 0.86497 0.01437 0.29584 0.0
H401 H 0.83984 0.0339 0.33417 0.0
H402 H 0.97739 0.0219 0.35896 0.0
H403 H 0.91506 0.06651 0.451 0.0
H404 H 0.94383 0.06628 0.26252 0.0
H405 H 0.91943 0.03008 0.26276 0.0
H406 H 0.96723 0.03058 0.28131 0.0
H407 H 0.86661 0.11887 0.37236 0.0
H408 H 0.86654 0.10027 0.42653 0.0
H409 H 0.84074 0.08392 0.37685 0.0
C410 C 0.31233 0.4194 0.73935 0.0
C411 C 0.32957 0.42427 0.70111 0.0
C412 C 0.32844 0.42916 0.78216 0.0
C413 C 0.36235 0.44443 0.78668 0.0
C414 C 0.38059 0.44804 0.74858 0.0
C415 C 0.36409 0.43776 0.70641 0.0
C416 C 0.30837 0.42453 0.82207 0.0
C417 C 0.41678 0.46427 0.75186 0.0
C418 C 0.3869 0.50878 0.87192 0.0
C419 C 0.41425 0.49453 0.90174 0.0
C420 C 0.36822 0.49204 0.83595 0.0
C421 C 0.37702 0.46016 0.82955 0.0
C422 C 0.40273 0.44492 0.86142 0.0
C423 C 0.4211 0.46233 0.89731 0.0
C424 C 0.34082 0.5092 0.80304 0.0
C425 C 0.41245 0.41083 0.85605 0.0
H426 H 0.28561 0.40908 0.73564 0.0
H427 H 0.37802 0.44085 0.67729 0.0
H428 H 0.3267 0.41543 0.85141 0.0
H429 H 0.29781 0.44749 0.83194 0.0
H430 H 0.28533 0.40801 0.8145 0.0
H431 H 0.42854 0.46316 0.71982 0.0
H432 H 0.41379 0.48937 0.76075 0.0
H433 H 0.43601 0.45343 0.77891 0.0
H434 H 0.38107 0.53355 0.87557 0.0
H435 H 0.44214 0.45116 0.92033 0.0
H436 H 0.31533 0.49562 0.79699 0.0
H437 H 0.35122 0.51166 0.77026 0.0
H438 H 0.33476 0.53307 0.81504 0.0
H439 H 0.38782 0.39633 0.84749 0.0
H440 H 0.42834 0.40119 0.88702 0.0
H441 H 0.42873 0.40859 0.82795 0.0
C442 C 0.6492 0.61492 0.34342 0.0
C443 C 0.67451 0.59371 0.36512 0.0
C444 C 0.62753 0.60674 0.30319 0.0
C445 C 0.63154 0.57674 0.28405 0.0
C446 C 0.65802 0.55572 0.30494 0.0
C447 C 0.67904 0.56439 0.34536 0.0
C448 C 0.59934 0.62965 0.28221 0.0
C449 C 0.66341 0.52366 0.28531 0.0
C450 C 0.55217 0.53776 0.21337 0.0
C451 C 0.56045 0.54226 0.16958 0.0
C452 C 0.57452 0.54976 0.25072 0.0
C453 C 0.60627 0.56629 0.24424 0.0
C454 C 0.61439 0.57156 0.20004 0.0
C455 C 0.59118 0.55969 0.16312 0.0
C456 C 0.56455 0.54408 0.29724 0.0
C457 C 0.64818 0.58882 0.19186 0.0
H458 H 0.64541 0.6375 0.35882 0.0
H459 H 0.69889 0.5481 0.36178 0.0
H460 H 0.6018 0.63325 0.24611 0.0
H461 H 0.57209 0.61985 0.28402 0.0
H462 H 0.60145 0.65286 0.29933 0.0
H463 H 0.68699 0.51114 0.30366 0.0
H464 H 0.63902 0.50902 0.28669 0.0
H465 H 0.66727 0.52589 0.24941 0.0
H466 H 0.52826 0.52458 0.21855 0.0
H467 H 0.59775 0.56312 0.12933 0.0
H468 H 0.564 0.56668 0.31555 0.0
H469 H 0.58519 0.52897 0.31681 0.0
H470 H 0.53786 0.53246 0.29632 0.0
H471 H 0.64954 0.6121 0.20864 0.0
H472 H 0.64967 0.59239 0.15545 0.0
H473 H 0.67219 0.57527 0.20673 0.0
C474 C 0.79306 0.06544 0.76492 0.0
C475 C 0.81178 0.06697 0.80871 0.0
C476 C 0.81107 0.05824 0.72804 0.0
C477 C 0.84868 0.05274 0.73515 0.0
C478 C 0.86715 0.05214 0.77959 0.0
C479 C 0.84851 0.05927 0.81575 0.0
C480 C 0.79029 0.05853 0.6813 0.0
C481 C 0.90728 0.04638 0.78877 0.0
C482 C 0.90677 0.02449 0.64872 0.0
C483 C 0.92315 0.05284 0.63851 0.0
C484 C 0.88019 0.02409 0.67775 0.0
C485 C 0.86996 0.05269 0.69668 0.0
C486 C 0.88419 0.08152 0.68314 0.0
C487 C 0.91056 0.08122 0.65426 0.0
C488 C 0.86518 0.99293 0.69074 0.0
C489 C 0.87386 0.11263 0.70206 0.0
H490 H 0.76452 0.07081 0.75931 0.0
H491 H 0.86331 0.06066 0.84934 0.0
H492 H 0.79619 0.08064 0.66391 0.0
H493 H 0.79857 0.03865 0.66112 0.0
H494 H 0.76075 0.05716 0.68201 0.0
H495 H 0.91682 0.04331 0.82523 0.0
H496 H 0.91461 0.02512 0.77069 0.0
H497 H 0.92181 0.06665 0.77621 0.0
H498 H 0.91636 0.00248 0.63657 0.0
H499 H 0.92275 0.10325 0.64587 0.0
H500 H 0.83584 0.99469 0.69244 0.0
H501 H 0.8785 0.986 0.72464 0.0
H502 H 0.86987 0.97403 0.66668 0.0
H503 H 0.84414 0.11484 0.69908 0.0
H504 H 0.88461 0.13301 0.68476 0.0
H505 H 0.88457 0.11382 0.73837 0.0
C506 C 0.28531 0.47837 0.25539 0.0
C507 C 0.30603 0.46207 0.29048 0.0
C508 C 0.30057 0.48846 0.21739 0.0
C509 C 0.33705 0.4813 0.21412 0.0
C510 C 0.35808 0.46515 0.24983 0.0
C511 C 0.34238 0.45598 0.28765 0.0
C512 C 0.27753 0.50614 0.18045 0.0
C513 C 0.39696 0.45664 0.24755 0.0
C514 C 0.37522 0.46864 0.10547 0.0
C515 C 0.399 0.49418 0.10563 0.0
C516 C 0.3523 0.46557 0.13849 0.0
C517 C 0.3532 0.48863 0.17256 0.0
C518 C 0.37453 0.51602 0.17032 0.0
C519 C 0.39713 0.51861 0.1366 0.0
C520 C 0.32998 0.436 0.1395 0.0
C521 C 0.37564 0.54126 0.20576 0.0
H522 H 0.25723 0.48324 0.25775 0.0
H523 H 0.35831 0.44306 0.31453 0.0
H524 H 0.29152 0.52785 0.17159 0.0
H525 H 0.27296 0.4914 0.14974 0.0
H526 H 0.25093 0.51267 0.19017 0.0
H527 H 0.40976 0.44468 0.27863 0.0
H528 H 0.39861 0.44081 0.21854 0.0
H529 H 0.41277 0.47811 0.24221 0.0
H530 H 0.37628 0.44987 0.08125 0.0
H531 H 0.41535 0.53848 0.13682 0.0
H532 H 0.3023 0.44164 0.14614 0.0
H533 H 0.34235 0.42051 0.1672 0.0
H534 H 0.32825 0.4227 0.10744 0.0
H535 H 0.34801 0.54994 0.20789 0.0
H536 H 0.39288 0.56142 0.19878 0.0
H537 H 0.38628 0.53139 0.23921 0.0
C538 C 0.19028 0.91682 0.84542 0.0
C539 C 0.17389 0.92267 0.884 0.0
C540 C 0.17375 0.9262 0.80258 0.0
C541 C 0.14023 0.94202 0.79835 0.0
C542 C 0.12278 0.94659 0.83687 0.0
C543 C 0.13974 0.93676 0.87912 0.0
C544 C 0.19305 0.92067 0.76227 0.0
C545 C 0.08702 0.96339 0.83387 0.0
C546 C 0.11735 0.00564 0.71103 0.0
C547 C 0.08983 0.99149 0.68139 0.0
C548 C 0.13529 0.98913 0.74779 0.0
C549 C 0.12552 0.95757 0.75527 0.0
C550 C 0.09936 0.94243 0.72391 0.0
C551 C 0.08178 0.95961 0.68714 0.0
C552 C 0.16319 0.00616 0.78014 0.0
C553 C 0.08855 0.90869 0.73053 0.0
H554 H 0.21671 0.90603 0.84884 0.0
H555 H 0.12649 0.94066 0.9086 0.0
H556 H 0.17414 0.9114 0.73363 0.0
H557 H 0.20385 0.94332 0.7513 0.0
H558 H 0.21583 0.90394 0.76989 0.0
H559 H 0.07559 0.96266 0.86617 0.0
H560 H 0.09053 0.98839 0.82454 0.0
H561 H 0.06729 0.95275 0.80724 0.0
H562 H 0.12413 0.03014 0.70638 0.0
H563 H 0.06058 0.94853 0.66429 0.0
H564 H 0.18842 0.99226 0.78617 0.0
H565 H 0.1531 0.00899 0.81302 0.0
H566 H 0.16966 0.02985 0.7676 0.0
H567 H 0.11275 0.89366 0.73875 0.0
H568 H 0.07176 0.89908 0.70024 0.0
H569 H 0.07287 0.90721 0.75932 0.0
loop_
_geom_bond_atom_site_label_1
_geom_bond_atom_site_label_2
_geom_bond_distance
_geom_bond_site_symmetry_2
_ccdc_geom_bond_type
C0 C1 1.384 . S
C0 H13 0.947 . S
C0 C35 1.382 . S
C1 C0 1.384 . S
C1 C2 1.378 . S
C2 C1 1.378 . S
C2 C3 1.378 . S
C2 H14 0.952 . S
C3 C2 1.378 . S
C3 H15 0.950 . S
C3 C34 1.383 . S
H4 C23 0.947 . S
H5 C24 0.946 . S
H6 C26 0.953 . S
H7 C27 0.945 . S
H8 C29 0.952 . S
H9 C30 0.949 . S
H10 C32 0.950 . S
H11 C33 0.948 . S
H12 C35 0.951 . S
H13 C0 0.947 . S
H14 C2 0.952 . S
H15 C3 0.950 . S
N16 C19 1.382 . S
N16 C21 1.363 . S
N17 C19 1.371 . S
N17 C20 1.372 . S
N18 C20 1.361 . S
N18 C21 1.377 . S
C19 N16 1.382 . S
C19 N17 1.371 . S
C19 C22 1.480 . S
C20 N17 1.372 . S
C20 N18 1.361 . S
C20 C28 1.471 . S
C21 N16 1.363 . S
C21 N18 1.377 . S
C21 C34 1.479 . S
C22 C19 1.480 . S
C22 C23 1.383 . S
C22 C27 1.385 . S
C23 H4 0.947 . S
C23 C22 1.383 . S
C23 C24 1.388 . S
C24 H5 0.946 . S
C24 C23 1.388 . S
C24 C25 1.384 . S
C25 C24 1.384 . S
C25 C26 1.377 . S
C26 H6 0.953 . S
C26 C25 1.377 . S
C26 C27 1.369 . S
C27 H7 0.945 . S
C27 C22 1.385 . S
C27 C26 1.369 . S
C28 C20 1.471 . S
C28 C29 1.357 1_554 S
C28 C33 1.366 . S
C29 H8 0.952 . S
C29 C28 1.357 1_556 S
C29 C30 1.389 . S
C30 H9 0.949 . S
C30 C29 1.389 . S
C30 C31 1.387 . S
C31 C30 1.387 . S
C31 C32 1.372 . S
C32 H10 0.950 . S
C32 C31 1.372 . S
C32 C33 1.379 1_556 S
C33 H11 0.948 . S
C33 C28 1.366 . S
C33 C32 1.379 1_554 S
C34 C3 1.383 . S
C34 C21 1.479 . S
C34 C35 1.398 . S
C35 C0 1.382 . S
C35 H12 0.951 . S
C35 C34 1.398 . S
C36 C37 1.384 . S
C36 H49 0.947 . S
C36 C71 1.382 . S
C37 C36 1.384 . S
C37 C38 1.378 . S
C38 C37 1.378 . S
C38 C39 1.378 . S
C38 H50 0.952 . S
C39 C38 1.378 . S
C39 H51 0.950 . S
C39 C70 1.383 . S
H40 C59 0.947 . S
H41 C60 0.946 . S
H42 C62 0.953 . S
H43 C63 0.945 . S
H44 C65 0.952 . S
H45 C66 0.949 . S
H46 C68 0.950 . S
H47 C69 0.948 . S
H48 C71 0.951 . S
H49 C36 0.947 . S
H50 C38 0.952 . S
H51 C39 0.950 . S
N52 C55 1.382 . S
N52 C57 1.363 . S
N53 C55 1.371 . S
N53 C56 1.372 . S
N54 C56 1.361 . S
N54 C57 1.377 . S
C55 N52 1.382 . S
C55 N53 1.371 . S
C55 C58 1.480 . S
C56 N53 1.372 . S
C56 N54 1.361 . S
C56 C64 1.457 . S
C57 N52 1.363 . S
C57 N54 1.377 . S
C57 C70 1.479 . S
C58 C55 1.480 . S
C58 C59 1.383 . S
C58 C63 1.385 . S
C59 H40 0.947 . S
C59 C58 1.383 . S
C59 C60 1.388 . S
C60 H41 0.946 . S
C60 C59 1.388 . S
C60 C61 1.384 . S
C61 C60 1.384 . S
C61 C62 1.377 . S
C62 H42 0.953 . S
C62 C61 1.377 . S
C62 C63 1.369 . S
C63 H43 0.945 . S
C63 C58 1.385 . S
C63 C62 1.369 . S
C64 C56 1.457 . S
C64 C65 1.372 . S
C64 C69 1.364 . S
C65 H44 0.952 . S
C65 C64 1.372 . S
C65 C66 1.389 . S
C66 H45 0.949 . S
C66 C65 1.389 . S
C66 C67 1.387 . S
C67 C66 1.387 . S
C67 C68 1.372 . S
C68 H46 0.950 . S
C68 C67 1.372 . S
C68 C69 1.379 . S
C69 H47 0.948 . S
C69 C64 1.364 . S
C69 C68 1.379 . S
C70 C39 1.383 . S
C70 C57 1.479 . S
C70 C71 1.398 . S
C71 C36 1.382 . S
C71 H48 0.951 . S
C71 C70 1.398 . S
C72 C73 1.384 . S
C72 H85 0.947 . S
C72 C107 1.382 . S
C73 C72 1.384 . S
C73 C74 1.378 . S
C74 C73 1.378 . S
C74 C75 1.378 . S
C74 H86 0.952 . S
C75 C74 1.378 . S
C75 H87 0.950 . S
C75 C106 1.383 . S
H76 C95 0.947 . S
H77 C96 0.946 . S
H78 C98 0.953 . S
H79 C99 0.945 . S
H80 C101 0.952 . S
H81 C102 0.949 . S
H82 C104 0.950 . S
H83 C105 0.948 . S
H84 C107 0.951 . S
H85 C72 0.947 . S
H86 C74 0.952 . S
H87 C75 0.950 . S
N88 C91 1.361 1_556 S
N88 C93 1.363 . S
N89 C91 1.392 . S
N89 C92 1.372 . S
N90 C92 1.361 . S
N90 C93 1.377 1_554 S
C91 N88 1.361 1_554 S
C91 N89 1.392 . S
C91 C94 1.482 1_554 S
C92 N89 1.372 . S
C92 N90 1.361 . S
C92 C100 1.457 . S
C93 N88 1.363 . S
C93 N90 1.377 1_556 S
C93 C106 1.479 . S
C94 C91 1.482 1_556 S
C94 C95 1.388 . S
C94 C99 1.380 1_556 S
C95 H76 0.947 . S
C95 C94 1.388 . S
C95 C96 1.388 . S
C96 H77 0.946 . S
C96 C95 1.388 . S
C96 C97 1.384 . S
C97 C96 1.384 . S
C97 C98 1.377 1_556 S
C98 H78 0.953 . S
C98 C97 1.377 1_554 S
C98 C99 1.369 . S
C99 H79 0.945 . S
C99 C94 1.380 1_554 S
C99 C98 1.369 . S
C100 C92 1.457 . S
C100 C101 1.372 . S
C100 C105 1.364 . S
C101 H80 0.952 . S
C101 C100 1.372 . S
C101 C102 1.389 . S
C102 H81 0.949 . S
C102 C101 1.389 . S
C102 C103 1.387 . S
C103 C102 1.387 . S
C103 C104 1.372 . S
C104 H82 0.950 . S
C104 C103 1.372 . S
C104 C105 1.379 . S
C105 H83 0.948 . S
C105 C100 1.364 . S
C105 C104 1.379 . S
C106 C75 1.383 . S
C106 C93 1.479 . S
C106 C107 1.398 . S
C107 C72 1.382 . S
C107 H84 0.951 . S
C107 C106 1.398 . S
C108 C109 1.384 . S
C108 H121 0.947 . S
C108 C143 1.382 . S
C109 C108 1.384 . S
C109 C110 1.378 . S
C110 C109 1.378 . S
C110 C111 1.378 . S
C110 H122 0.952 . S
C111 C110 1.378 . S
C111 H123 0.950 . S
C111 C142 1.383 . S
H112 C131 0.947 . S
H113 C132 0.946 . S
H114 C134 0.953 . S
H115 C135 0.945 . S
H116 C137 0.952 . S
H117 C138 0.949 . S
H118 C140 0.950 . S
H119 C141 0.948 . S
H120 C143 0.951 . S
H121 C108 0.947 . S
H122 C110 0.952 . S
H123 C111 0.950 . S
N124 C127 1.382 . S
N124 C129 1.363 . S
N125 C127 1.371 . S
N125 C128 1.372 . S
N126 C128 1.361 . S
N126 C129 1.377 . S
C127 N124 1.382 . S
C127 N125 1.371 . S
C127 C130 1.480 . S
C128 N125 1.372 . S
C128 N126 1.361 . S
C128 C136 1.457 . S
C129 N124 1.363 . S
C129 N126 1.377 . S
C129 C142 1.479 . S
C130 C127 1.480 . S
C130 C131 1.383 . S
C130 C135 1.385 . S
C131 H112 0.947 . S
C131 C130 1.383 . S
C131 C132 1.388 . S
C132 H113 0.946 . S
C132 C131 1.388 . S
C132 C133 1.384 . S
C133 C132 1.384 . S
C133 C134 1.377 . S
C134 H114 0.953 . S
C134 C133 1.377 . S
C134 C135 1.369 . S
C135 H115 0.945 . S
C135 C130 1.385 . S
C135 C134 1.369 . S
C136 C128 1.457 . S
C136 C137 1.372 . S
C136 C141 1.364 . S
C137 H116 0.952 . S
C137 C136 1.372 . S
C137 C138 1.389 . S
C138 H117 0.949 . S
C138 C137 1.389 . S
C138 C139 1.387 . S
C139 C138 1.387 . S
C139 C140 1.372 . S
C140 H118 0.950 . S
C140 C139 1.372 . S
C140 C141 1.379 . S
C141 H119 0.948 . S
C141 C136 1.364 . S
C141 C140 1.379 . S
C142 C111 1.383 . S
C142 C129 1.479 . S
C142 C143 1.398 . S
C143 C108 1.382 . S
C143 H120 0.951 . S
C143 C142 1.398 . S
O144 Mg145 1.990 1_655 S
O144 C158 1.253 . S
Mg145 O144 1.990 1_455 S
Mg145 O148 2.180 . S
Mg145 O149 2.117 . S
Mg145 O163 2.030 . S
O146 Mg147 2.072 1_655 S
O146 C158 1.260 . S
Mg147 O146 2.072 1_455 S
Mg147 O148 2.099 . S
Mg147 O150 2.079 1_545 S
Mg147 O151 2.072 1_455 S
Mg147 O153 2.099 1_445 S
Mg147 O164 2.079 1_545 S
O148 Mg145 2.180 . S
O148 Mg147 2.099 . S
O148 C159 1.279 . S
O149 Mg145 2.117 . S
O149 C159 1.250 . S
O150 Mg147 2.079 1_565 S
O150 C160 1.264 . S
O151 Mg147 2.072 1_655 S
O151 C161 1.260 . S
Mg152 O153 2.180 . S
Mg152 O154 2.030 1_655 S
Mg152 O155 1.990 1_565 S
Mg152 O156 2.117 . S
O153 Mg147 2.099 1_665 S
O153 Mg152 2.180 . S
O153 C162 1.279 . S
O154 Mg152 2.030 1_455 S
O154 C160 1.248 . S
O155 Mg152 1.990 1_545 S
O155 C161 1.253 . S
O156 Mg152 2.117 . S
O156 C162 1.250 . S
C157 O163 1.248 1_565 S
C157 O164 1.264 . S
C158 O144 1.253 . S
C158 O146 1.260 . S
C159 O148 1.279 . S
C159 O149 1.250 . S
C160 O150 1.264 . S
C160 O154 1.248 . S
C161 O151 1.260 . S
C161 O155 1.253 . S
C162 O153 1.279 . S
C162 O156 1.250 . S
O163 Mg145 2.030 . S
O163 C157 1.248 1_545 S
O164 Mg147 2.079 1_565 S
O164 C157 1.264 . S
O165 Mg166 1.990 . S
O165 C179 1.253 . S
Mg166 O165 1.990 . S
Mg166 O169 2.180 . S
Mg166 O170 2.117 . S
Mg166 O184 2.030 . S
O167 Mg168 2.072 . S
O167 C179 1.260 . S
Mg168 O167 2.072 . S
Mg168 O169 2.099 . S
Mg168 O171 2.079 1_554 S
Mg168 O172 2.072 1_554 S
Mg168 O174 2.099 . S
Mg168 O185 2.079 . S
O169 Mg166 2.180 . S
O169 Mg168 2.099 . S
O169 C180 1.279 . S
O170 Mg166 2.117 . S
O170 C180 1.250 . S
O171 Mg168 2.079 1_556 S
O171 C181 1.264 . S
O172 Mg168 2.072 1_556 S
O172 C182 1.260 . S
Mg173 O174 2.180 1_556 S
Mg173 O175 2.030 . S
Mg173 O176 1.990 . S
Mg173 O177 2.117 . S
O174 Mg168 2.099 . S
O174 Mg173 2.180 1_554 S
O174 C183 1.279 . S
O175 Mg173 2.030 . S
O175 C181 1.248 . S
O176 Mg173 1.990 . S
O176 C182 1.253 . S
O177 Mg173 2.117 . S
O177 C183 1.250 1_556 S
C178 O184 1.248 . S
C178 O185 1.264 . S
C179 O165 1.253 . S
C179 O167 1.260 . S
C180 O169 1.279 . S
C180 O170 1.250 . S
C181 O171 1.264 . S
C181 O175 1.248 . S
C182 O172 1.260 . S
C182 O176 1.253 . S
C183 O174 1.279 . S
C183 O177 1.250 1_554 S
O184 Mg166 2.030 . S
O184 C178 1.248 . S
O185 Mg168 2.079 . S
O185 C178 1.264 . S
C186 C187 1.391 . S
C186 C188 1.394 . S
C186 H202 0.931 . S
C187 C186 1.391 . S
C187 C191 1.376 . S
C188 C186 1.394 . S
C188 C189 1.369 . S
C188 C192 1.531 . S
C189 C188 1.369 . S
C189 C190 1.410 . S
C189 C197 1.503 . S
C190 C189 1.410 . S
C190 C191 1.392 . S
C190 C193 1.511 . S
C191 C187 1.376 . S
C191 C190 1.392 . S
C191 H203 0.929 . S
C192 C188 1.531 . S
C192 H204 0.960 . S
C192 H205 0.962 . S
C192 H206 0.960 . S
C193 C190 1.511 . S
C193 H207 0.961 . S
C193 H208 0.961 . S
C193 H209 0.961 . S
C194 C195 1.370 . S
C194 C196 1.363 . S
C194 H210 0.931 . S
C195 C194 1.370 . S
C195 C199 1.408 . S
C196 C194 1.363 . S
C196 C197 1.370 . S
C196 C200 1.524 . S
C197 C189 1.503 . S
C197 C196 1.370 . S
C197 C198 1.403 . S
C198 C197 1.403 . S
C198 C199 1.404 . S
C198 C201 1.539 . S
C199 C195 1.408 . S
C199 C198 1.404 . S
C199 H211 0.930 . S
C200 C196 1.524 . S
C200 H212 0.956 . S
C200 H213 0.961 . S
C200 H214 0.961 . S
C201 C198 1.539 . S
C201 H215 0.958 1_455 S
C201 H216 0.961 1_455 S
C201 H217 0.960 . S
H202 C186 0.931 . S
H203 C191 0.929 . S
H204 C192 0.960 . S
H205 C192 0.962 . S
H206 C192 0.960 . S
H207 C193 0.961 . S
H208 C193 0.961 . S
H209 C193 0.961 . S
H210 C194 0.931 . S
H211 C199 0.930 . S
H212 C200 0.956 . S
H213 C200 0.961 . S
H214 C200 0.961 . S
H215 C201 0.958 1_655 S
H216 C201 0.961 1_655 S
H217 C201 0.960 . S
C218 C219 1.391 . S
C218 C220 1.394 . S
C218 H234 0.931 . S
C219 C218 1.391 . S
C219 C223 1.376 . S
C220 C218 1.394 . S
C220 C221 1.369 . S
C220 C224 1.531 . S
C221 C220 1.369 . S
C221 C222 1.410 . S
C221 C229 1.503 . S
C222 C221 1.410 . S
C222 C223 1.392 . S
C222 C225 1.511 . S
C223 C219 1.376 . S
C223 C222 1.392 . S
C223 H235 0.929 . S
C224 C220 1.531 . S
C224 H236 0.960 . S
C224 H237 0.962 . S
C224 H238 0.960 . S
C225 C222 1.511 . S
C225 H239 0.961 . S
C225 H240 0.961 . S
C225 H241 0.961 . S
C226 C227 1.370 . S
C226 C228 1.363 . S
C226 H242 0.931 1_554 S
C227 C226 1.370 . S
C227 C231 1.408 . S
C228 C226 1.363 . S
C228 C229 1.370 . S
C228 C232 1.524 1_554 S
C229 C221 1.503 . S
C229 C228 1.370 . S
C229 C230 1.403 . S
C230 C229 1.403 . S
C230 C231 1.404 . S
C230 C233 1.539 . S
C231 C227 1.408 . S
C231 C230 1.404 . S
C231 H243 0.930 . S
C232 C228 1.524 1_556 S
C232 H244 0.956 1_556 S
C232 H245 0.961 . S
C232 H246 0.961 . S
C233 C230 1.539 . S
C233 H247 0.958 . S
C233 H248 0.961 . S
C233 H249 0.960 . S
H234 C218 0.931 . S
H235 C223 0.929 . S
H236 C224 0.960 . S
H237 C224 0.962 . S
H238 C224 0.960 . S
H239 C225 0.961 . S
H240 C225 0.961 . S
H241 C225 0.961 . S
H242 C226 0.931 1_556 S
H243 C231 0.930 . S
H244 C232 0.956 1_554 S
H245 C232 0.961 . S
H246 C232 0.961 . S
H247 C233 0.958 . S
H248 C233 0.961 . S
H249 C233 0.960 . S
C250 C251 1.391 . S
C250 C252 1.394 . S
C250 H266 0.931 . S
C251 C250 1.391 . S
C251 C255 1.376 . S
C252 C250 1.394 . S
C252 C253 1.369 . S
C252 C256 1.531 . S
C253 C252 1.369 . S
C253 C254 1.410 . S
C253 C261 1.503 . S
C254 C253 1.410 . S
C254 C255 1.392 . S
C254 C257 1.511 . S
C255 C251 1.376 . S
C255 C254 1.392 . S
C255 H267 0.929 . S
C256 C252 1.531 . S
C256 H268 0.960 . S
C256 H269 0.962 . S
C256 H270 0.960 . S
C257 C254 1.511 . S
C257 H271 0.961 . S
C257 H272 0.961 . S
C257 H273 0.961 . S
C258 C259 1.370 . S
C258 C260 1.363 . S
C258 H274 0.931 . S
C259 C258 1.370 . S
C259 C263 1.408 . S
C260 C258 1.363 . S
C260 C261 1.370 . S
C260 C264 1.524 . S
C261 C253 1.503 . S
C261 C260 1.370 . S
C261 C262 1.403 . S
C262 C261 1.403 . S
C262 C263 1.404 . S
C262 C265 1.539 . S
C263 C259 1.408 . S
C263 C262 1.404 . S
C263 H275 0.930 . S
C264 C260 1.524 . S
C264 H276 0.956 . S
C264 H277 0.961 . S
C264 H278 0.961 . S
C265 C262 1.539 . S
C265 H279 0.958 . S
C265 H280 0.961 . S
C265 H281 0.960 . S
H266 C250 0.931 . S
H267 C255 0.929 . S
H268 C256 0.960 . S
H269 C256 0.962 . S
H270 C256 0.960 . S
H271 C257 0.961 . S
H272 C257 0.961 . S
H273 C257 0.961 . S
H274 C258 0.931 . S
H275 C263 0.930 . S
H276 C264 0.956 . S
H277 C264 0.961 . S
H278 C264 0.961 . S
H279 C265 0.958 . S
H280 C265 0.961 . S
H281 C265 0.960 . S
C282 C283 1.379 1_554 S
C282 C284 1.394 . S
C282 H298 0.931 . S
C283 C282 1.379 1_556 S
C283 C287 1.383 . S
C284 C282 1.394 . S
C284 C285 1.369 . S
C284 C288 1.531 . S
C285 C284 1.369 . S
C285 C286 1.410 1_554 S
C285 C293 1.503 . S
C286 C285 1.410 1_556 S
C286 C287 1.392 . S
C286 C289 1.511 . S
C287 C283 1.383 . S
C287 C286 1.392 . S
C287 H299 0.929 . S
C288 C284 1.531 . S
C288 H300 0.960 . S
C288 H301 0.962 . S
C288 H302 0.960 . S
C289 C286 1.511 . S
C289 H303 0.961 . S
C289 H304 0.961 . S
C289 H305 0.961 1_556 S
C290 C291 1.370 1_556 S
C290 C292 1.363 . S
C290 H306 0.931 . S
C291 C290 1.370 1_554 S
C291 C295 1.408 . S
C292 C290 1.363 . S
C292 C293 1.370 1_556 S
C292 C296 1.524 . S
C293 C285 1.503 . S
C293 C292 1.370 1_554 S
C293 C294 1.403 . S
C294 C293 1.403 . S
C294 C295 1.404 . S
C294 C297 1.539 . S
C295 C291 1.408 . S
C295 C294 1.404 . S
C295 H307 0.930 . S
C296 C292 1.524 . S
C296 H308 0.956 . S
C296 H309 0.961 . S
C296 H310 0.961 . S
C297 C294 1.539 . S
C297 H311 0.958 . S
C297 H312 0.961 . S
C297 H313 0.960 . S
H298 C282 0.931 . S
H299 C287 0.929 . S
H300 C288 0.960 . S
H301 C288 0.962 . S
H302 C288 0.960 . S
H303 C289 0.961 . S
H304 C289 0.961 . S
H305 C289 0.961 1_554 S
H306 C290 0.931 . S
H307 C295 0.930 . S
H308 C296 0.956 . S
H309 C296 0.961 . S
H310 C296 0.961 . S
H311 C297 0.958 . S
H312 C297 0.961 . S
H313 C297 0.960 . S
C314 C315 1.391 . S
C314 C316 1.394 . S
C314 H330 0.931 . S
C315 C314 1.391 . S
C315 C319 1.376 . S
C316 C314 1.394 . S
C316 C317 1.369 . S
C316 C320 1.531 . S
C317 C316 1.369 . S
C317 C318 1.410 . S
C317 C325 1.503 . S
C318 C317 1.410 . S
C318 C319 1.392 . S
C318 C321 1.511 . S
C319 C315 1.376 . S
C319 C318 1.392 . S
C319 H331 0.929 . S
C320 C316 1.531 . S
C320 H332 0.960 . S
C320 H333 0.962 . S
C320 H334 0.960 . S
C321 C318 1.511 . S
C321 H335 0.961 . S
C321 H336 0.961 . S
C321 H337 0.961 . S
C322 C323 1.381 . S
C322 C324 1.368 . S
C322 H338 0.915 1_565 S
C323 C322 1.381 . S
C323 C327 1.408 . S
C324 C322 1.368 . S
C324 C325 1.370 . S
C324 C328 1.524 1_565 S
C325 C317 1.503 . S
C325 C324 1.370 . S
C325 C326 1.403 . S
C326 C325 1.403 . S
C326 C327 1.404 . S
C326 C329 1.539 . S
C327 C323 1.408 . S
C327 C326 1.404 . S
C327 H339 0.930 . S
C328 C324 1.524 1_545 S
C328 H340 0.956 . S
C328 H341 0.961 . S
C328 H342 0.961 . S
C329 C326 1.539 . S
C329 H343 0.958 . S
C329 H344 0.961 . S
C329 H345 0.960 . S
H330 C314 0.931 . S
H331 C319 0.929 . S
H332 C320 0.960 . S
H333 C320 0.962 . S
H334 C320 0.960 . S
H335 C321 0.961 . S
H336 C321 0.961 . S
H337 C321 0.961 . S
H338 C322 0.915 1_545 S
H339 C327 0.930 . S
H340 C328 0.956 . S
H341 C328 0.961 . S
H342 C328 0.961 . S
H343 C329 0.958 . S
H344 C329 0.961 . S
H345 C329 0.960 . S
C346 C347 1.391 . S
C346 C348 1.394 . S
C346 H362 0.931 . S
C347 C346 1.391 . S
C347 C351 1.376 . S
C348 C346 1.394 . S
C348 C349 1.369 . S
C348 C352 1.531 . S
C349 C348 1.369 . S
C349 C350 1.410 . S
C349 C357 1.503 . S
C350 C349 1.410 . S
C350 C351 1.392 . S
C350 C353 1.511 . S
C351 C347 1.376 . S
C351 C350 1.392 . S
C351 H363 0.929 . S
C352 C348 1.531 . S
C352 H364 0.960 . S
C352 H365 0.962 . S
C352 H366 0.960 . S
C353 C350 1.511 . S
C353 H367 0.961 . S
C353 H368 0.961 . S
C353 H369 0.961 . S
C354 C355 1.370 . S
C354 C356 1.363 . S
C354 H370 0.931 . S
C355 C354 1.370 . S
C355 C359 1.408 . S
C356 C354 1.363 . S
C356 C357 1.370 . S
C356 C360 1.524 . S
C357 C349 1.503 . S
C357 C356 1.370 . S
C357 C358 1.403 . S
C358 C357 1.403 . S
C358 C359 1.404 . S
C358 C361 1.539 . S
C359 C355 1.408 . S
C359 C358 1.404 . S
C359 H371 0.930 . S
C360 C356 1.524 . S
C360 H372 0.956 . S
C360 H373 0.961 . S
C360 H374 0.961 . S
C361 C358 1.539 . S
C361 H375 0.958 . S
C361 H376 0.961 . S
C361 H377 0.960 . S
H362 C346 0.931 . S
H363 C351 0.929 . S
H364 C352 0.960 . S
H365 C352 0.962 . S
H366 C352 0.960 . S
H367 C353 0.961 . S
H368 C353 0.961 . S
H369 C353 0.961 . S
H370 C354 0.931 . S
H371 C359 0.930 . S
H372 C360 0.956 . S
H373 C360 0.961 . S
H374 C360 0.961 . S
H375 C361 0.958 . S
H376 C361 0.961 . S
H377 C361 0.960 . S
C378 C379 1.391 . S
C378 C380 1.394 . S
C378 H394 0.931 . S
C379 C378 1.391 . S
C379 C383 1.376 . S
C380 C378 1.394 . S
C380 C381 1.369 . S
C380 C384 1.531 . S
C381 C380 1.369 . S
C381 C382 1.410 . S
C381 C389 1.503 . S
C382 C381 1.410 . S
C382 C383 1.392 . S
C382 C385 1.511 . S
C383 C379 1.376 . S
C383 C382 1.392 . S
C383 H395 0.929 . S
C384 C380 1.531 . S
C384 H396 0.960 . S
C384 H397 0.962 . S
C384 H398 0.960 . S
C385 C382 1.511 . S
C385 H399 0.961 . S
C385 H400 0.961 . S
C385 H401 0.961 . S
C386 C387 1.370 . S
C386 C388 1.363 . S
C386 H402 0.931 . S
C387 C386 1.370 . S
C387 C391 1.408 . S
C388 C386 1.363 . S
C388 C389 1.370 . S
C388 C392 1.524 . S
C389 C381 1.503 . S
C389 C388 1.370 . S
C389 C390 1.403 . S
C390 C389 1.403 . S
C390 C391 1.404 . S
C390 C393 1.539 . S
C391 C387 1.408 . S
C391 C390 1.404 . S
C391 H403 0.930 . S
C392 C388 1.524 . S
C392 H404 0.956 . S
C392 H405 0.961 . S
C392 H406 0.961 . S
C393 C390 1.539 . S
C393 H407 0.958 . S
C393 H408 0.961 . S
C393 H409 0.960 . S
H394 C378 0.931 . S
H395 C383 0.929 . S
H396 C384 0.960 . S
H397 C384 0.962 . S
H398 C384 0.960 . S
H399 C385 0.961 . S
H400 C385 0.961 . S
H401 C385 0.961 . S
H402 C386 0.931 . S
H403 C391 0.930 . S
H404 C392 0.956 . S
H405 C392 0.961 . S
H406 C392 0.961 . S
H407 C393 0.958 . S
H408 C393 0.961 . S
H409 C393 0.960 . S
C410 C411 1.391 . S
C410 C412 1.394 . S
C410 H426 0.931 . S
C411 C410 1.391 . S
C411 C415 1.376 . S
C412 C410 1.394 . S
C412 C413 1.369 . S
C412 C416 1.531 . S
C413 C412 1.369 . S
C413 C414 1.410 . S
C413 C421 1.503 . S
C414 C413 1.410 . S
C414 C415 1.392 . S
C414 C417 1.511 . S
C415 C411 1.376 . S
C415 C414 1.392 . S
C415 H427 0.929 . S
C416 C412 1.531 . S
C416 H428 0.960 . S
C416 H429 0.962 . S
C416 H430 0.960 . S
C417 C414 1.511 . S
C417 H431 0.961 . S
C417 H432 0.961 . S
C417 H433 0.961 . S
C418 C419 1.370 . S
C418 C420 1.363 . S
C418 H434 0.931 . S
C419 C418 1.370 . S
C419 C423 1.408 . S
C420 C418 1.363 . S
C420 C421 1.370 . S
C420 C424 1.524 . S
C421 C413 1.503 . S
C421 C420 1.370 . S
C421 C422 1.403 . S
C422 C421 1.403 . S
C422 C423 1.404 . S
C422 C425 1.539 . S
C423 C419 1.408 . S
C423 C422 1.404 . S
C423 H435 0.930 . S
C424 C420 1.524 . S
C424 H436 0.956 . S
C424 H437 0.961 . S
C424 H438 0.961 . S
C425 C422 1.539 . S
C425 H439 0.958 . S
C425 H440 0.961 . S
C425 H441 0.960 . S
H426 C410 0.931 . S
H427 C415 0.929 . S
H428 C416 0.960 . S
H429 C416 0.962 . S
H430 C416 0.960 . S
H431 C417 0.961 . S
H432 C417 0.961 . S
H433 C417 0.961 . S
H434 C418 0.931 . S
H435 C423 0.930 . S
H436 C424 0.956 . S
H437 C424 0.961 . S
H438 C424 0.961 . S
H439 C425 0.958 . S
H440 C425 0.961 . S
H441 C425 0.960 . S
C442 C443 1.391 . S
C442 C444 1.394 . S
C442 H458 0.931 . S
C443 C442 1.391 . S
C443 C447 1.376 . S
C444 C442 1.394 . S
C444 C445 1.369 . S
C444 C448 1.531 . S
C445 C444 1.369 . S
C445 C446 1.410 . S
C445 C453 1.503 . S
C446 C445 1.410 . S
C446 C447 1.392 . S
C446 C449 1.511 . S
C447 C443 1.376 . S
C447 C446 1.392 . S
C447 H459 0.929 . S
C448 C444 1.531 . S
C448 H460 0.960 . S
C448 H461 0.962 . S
C448 H462 0.960 . S
C449 C446 1.511 . S
C449 H463 0.961 . S
C449 H464 0.961 . S
C449 H465 0.961 . S
C450 C451 1.370 . S
C450 C452 1.363 . S
C450 H466 0.931 . S
C451 C450 1.370 . S
C451 C455 1.408 . S
C452 C450 1.363 . S
C452 C453 1.370 . S
C452 C456 1.524 . S
C453 C445 1.503 . S
C453 C452 1.370 . S
C453 C454 1.403 . S
C454 C453 1.403 . S
C454 C455 1.404 . S
C454 C457 1.539 . S
C455 C451 1.408 . S
C455 C454 1.404 . S
C455 H467 0.930 . S
C456 C452 1.524 . S
C456 H468 0.956 . S
C456 H469 0.961 . S
C456 H470 0.961 . S
C457 C454 1.539 . S
C457 H471 0.958 . S
C457 H472 0.961 . S
C457 H473 0.960 . S
H458 C442 0.931 . S
H459 C447 0.929 . S
H460 C448 0.960 . S
H461 C448 0.962 . S
H462 C448 0.960 . S
H463 C449 0.961 . S
H464 C449 0.961 . S
H465 C449 0.961 . S
H466 C450 0.931 . S
H467 C455 0.930 . S
H468 C456 0.956 . S
H469 C456 0.961 . S
H470 C456 0.961 . S
H471 C457 0.958 . S
H472 C457 0.961 . S
H473 C457 0.960 . S
C474 C475 1.391 . S
C474 C476 1.394 . S
C474 H490 0.931 . S
C475 C474 1.391 . S
C475 C479 1.376 . S
C476 C474 1.394 . S
C476 C477 1.369 . S
C476 C480 1.531 . S
C477 C476 1.369 . S
C477 C478 1.410 . S
C477 C485 1.503 . S
C478 C477 1.410 . S
C478 C479 1.392 . S
C478 C481 1.511 . S
C479 C475 1.376 . S
C479 C478 1.392 . S
C479 H491 0.929 . S
C480 C476 1.531 . S
C480 H492 0.960 . S
C480 H493 0.962 . S
C480 H494 0.960 . S
C481 C478 1.511 . S
C481 H495 0.961 . S
C481 H496 0.961 . S
C481 H497 0.961 . S
C482 C483 1.370 . S
C482 C484 1.363 . S
C482 H498 0.931 . S
C483 C482 1.370 . S
C483 C487 1.408 . S
C484 C482 1.363 . S
C484 C485 1.370 . S
C484 C488 1.524 . S
C485 C477 1.503 . S
C485 C484 1.370 . S
C485 C486 1.403 . S
C486 C485 1.403 . S
C486 C487 1.404 . S
C486 C489 1.539 . S
C487 C483 1.408 . S
C487 C486 1.404 . S
C487 H499 0.930 . S
C488 C484 1.524 . S
C488 H500 0.956 . S
C488 H501 0.961 . S
C488 H502 0.961 1_545 S
C489 C486 1.539 . S
C489 H503 0.958 . S
C489 H504 0.961 . S
C489 H505 0.960 . S
H490 C474 0.931 . S
H491 C479 0.929 . S
H492 C480 0.960 . S
H493 C480 0.962 . S
H494 C480 0.960 . S
H495 C481 0.961 . S
H496 C481 0.961 . S
H497 C481 0.961 . S
H498 C482 0.931 . S
H499 C487 0.930 . S
H500 C488 0.956 . S
H501 C488 0.961 . S
H502 C488 0.961 1_565 S
H503 C489 0.958 . S
H504 C489 0.961 . S
H505 C489 0.960 . S
C506 C507 1.391 . S
C506 C508 1.394 . S
C506 H522 0.931 . S
C507 C506 1.391 . S
C507 C511 1.376 . S
C508 C506 1.394 . S
C508 C509 1.369 . S
C508 C512 1.531 . S
C509 C508 1.369 . S
C509 C510 1.410 . S
C509 C517 1.503 . S
C510 C509 1.410 . S
C510 C511 1.392 . S
C510 C513 1.511 . S
C511 C507 1.376 . S
C511 C510 1.392 . S
C511 H523 0.929 . S
C512 C508 1.531 . S
C512 H524 0.960 . S
C512 H525 0.962 . S
C512 H526 0.960 . S
C513 C510 1.511 . S
C513 H527 0.961 . S
C513 H528 0.961 . S
C513 H529 0.961 . S
C514 C515 1.370 . S
C514 C516 1.363 . S
C514 H530 0.931 . S
C515 C514 1.370 . S
C515 C519 1.408 . S
C516 C514 1.363 . S
C516 C517 1.370 . S
C516 C520 1.524 . S
C517 C509 1.503 . S
C517 C516 1.370 . S
C517 C518 1.403 . S
C518 C517 1.403 . S
C518 C519 1.404 . S
C518 C521 1.539 . S
C519 C515 1.408 . S
C519 C518 1.404 . S
C519 H531 0.930 . S
C520 C516 1.524 . S
C520 H532 0.956 . S
C520 H533 0.961 . S
C520 H534 0.961 . S
C521 C518 1.539 . S
C521 H535 0.958 . S
C521 H536 0.961 . S
C521 H537 0.960 . S
H522 C506 0.931 . S
H523 C511 0.929 . S
H524 C512 0.960 . S
H525 C512 0.962 . S
H526 C512 0.960 . S
H527 C513 0.961 . S
H528 C513 0.961 . S
H529 C513 0.961 . S
H530 C514 0.931 . S
H531 C519 0.930 . S
H532 C520 0.956 . S
H533 C520 0.961 . S
H534 C520 0.961 . S
H535 C521 0.958 . S
H536 C521 0.961 . S
H537 C521 0.960 . S
C538 C539 1.391 . S
C538 C540 1.394 . S
C538 H554 0.931 . S
C539 C538 1.391 . S
C539 C543 1.376 . S
C540 C538 1.394 . S
C540 C541 1.369 . S
C540 C544 1.531 . S
C541 C540 1.369 . S
C541 C542 1.410 . S
C541 C549 1.503 . S
C542 C541 1.410 . S
C542 C543 1.392 . S
C542 C545 1.511 . S
C543 C539 1.376 . S
C543 C542 1.392 . S
C543 H555 0.929 . S
C544 C540 1.531 . S
C544 H556 0.960 . S
C544 H557 0.962 . S
C544 H558 0.960 . S
C545 C542 1.511 . S
C545 H559 0.961 . S
C545 H560 0.961 . S
C545 H561 0.961 . S
C546 C547 1.393 . S
C546 C548 1.371 . S
C546 H562 0.901 1_565 S
C547 C546 1.393 . S
C547 C551 1.408 . S
C548 C546 1.371 . S
C548 C549 1.370 . S
C548 C552 1.524 1_565 S
C549 C541 1.503 . S
C549 C548 1.370 . S
C549 C550 1.403 . S
C550 C549 1.403 . S
C550 C551 1.404 . S
C550 C553 1.539 . S
C551 C547 1.408 . S
C551 C550 1.404 . S
C551 H563 0.930 . S
C552 C548 1.524 1_545 S
C552 H564 0.956 . S
C552 H565 0.961 . S
C552 H566 0.961 . S
C553 C550 1.539 . S
C553 H567 0.958 . S
C553 H568 0.961 . S
C553 H569 0.960 . S
H554 C538 0.931 . S
H555 C543 0.929 . S
H556 C544 0.960 . S
H557 C544 0.962 . S
H558 C544 0.960 . S
H559 C545 0.961 . S
H560 C545 0.961 . S
H561 C545 0.961 . S
H562 C546 0.901 1_545 S
H563 C551 0.930 . S
H564 C552 0.956 . S
H565 C552 0.961 . S
H566 C552 0.961 . S
H567 C553 0.958 . S
H568 C553 0.961 . S
H569 C553 0.960 . S
C195 C159 1.364 . S
C187 C133 1.529 . S
C219 C25 1.540 . S
C227 C183 1.377 . S
C251 C61 1.685 . S
C259 C162 1.484 . S
C283 C97 1.615 . S
C291 C180 1.451 . S
C323 C160 1.615 . S
C315 C1 1.621 . S
C355 C182 1.591 . S
C347 C67 1.612 . S
C379 C103 1.571 . S
C387 C161 1.519 . S
C411 C109 1.545 . S
C419 C181 1.541 . S
C451 C179 1.509 . S
C443 C37 1.601 . S
C483 C158 1.568 . S
C475 C73 1.580 . S
C515 C178 1.610 . S
C507 C139 1.558 . S
C539 C31 1.595 . S
C547 C157 1.543 . S
