# Generated by pormake.
# Topology nom, (4,4)-cn, num edge types: 1
# Building blocks:
#     Node 0, Type 0, BuildingBlock: AZAVOO_clean_linker_0, # of connection points: 4
#     Node 1, Type 0, BuildingBlock: AZAVOO_clean_linker_0, # of connection points: 4
#     Node 2, Type 0, BuildingBlock: AZAVOO_clean_linker_0, # of connection points: 4
#     Node 3, Type 0, BuildingBlock: AZAVOO_clean_linker_0, # of connection points: 4
#     Node 4, Type 0, BuildingBlock: AZAVOO_clean_linker_0, # of connection points: 4
#     Node 5, Type 0, BuildingBlock: AZAVOO_clean_linker_0, # of connection points: 4
#     Node 6, Type 1, BuildingBlock: QUQFOY_clean_sbu_1, # of connection points: 4
#     Node 7, Type 1, BuildingBlock: QUQFOY_clean_sbu_1, # of connection points: 4
#     Node 8, Type 1, BuildingBlock: QUQFOY_clean_sbu_1, # of connection points: 4
#     Node 9, Type 1, BuildingBlock: QUQFOY_clean_sbu_1, # of connection points: 4
#     Node 10, Type 1, BuildingBlock: QUQFOY_clean_sbu_1, # of connection points: 4
#     Node 11, Type 1, BuildingBlock: QUQFOY_clean_sbu_1, # of connection points: 4
#     Edge 12, Type (0, 1), BuildingBlock: UVAHIK_clean_linker_0, # of connection points: 2
#     Edge 13, Type (0, 1), BuildingBlock: UVAHIK_clean_linker_0, # of connection points: 2
#     Edge 14, Type (0, 1), BuildingBlock: UVAHIK_clean_linker_0, # of connection points: 2
#     Edge 15, Type (0, 1), BuildingBlock: UVAHIK_clean_linker_0, # of connection points: 2
#     Edge 16, Type (0, 1), BuildingBlock: UVAHIK_clean_linker_0, # of connection points: 2
#     Edge 17, Type (0, 1), BuildingBlock: UVAHIK_clean_linker_0, # of connection points: 2
#     Edge 18, Type (0, 1), BuildingBlock: UVAHIK_clean_linker_0, # of connection points: 2
#     Edge 19, Type (0, 1), BuildingBlock: UVAHIK_clean_linker_0, # of connection points: 2
#     Edge 20, Type (0, 1), BuildingBlock: UVAHIK_clean_linker_0, # of connection points: 2
#     Edge 21, Type (0, 1), BuildingBlock: UVAHIK_clean_linker_0, # of connection points: 2
#     Edge 22, Type (0, 1), BuildingBlock: UVAHIK_clean_linker_0, # of connection points: 2
#     Edge 23, Type (0, 1), BuildingBlock: UVAHIK_clean_linker_0, # of connection points: 2
#     Edge 24, Type (0, 1), BuildingBlock: UVAHIK_clean_linker_0, # of connection points: 2
#     Edge 25, Type (0, 1), BuildingBlock: UVAHIK_clean_linker_0, # of connection points: 2
#     Edge 26, Type (0, 1), BuildingBlock: UVAHIK_clean_linker_0, # of connection points: 2
#     Edge 27, Type (0, 1), BuildingBlock: UVAHIK_clean_linker_0, # of connection points: 2
#     Edge 28, Type (0, 1), BuildingBlock: UVAHIK_clean_linker_0, # of connection points: 2
#     Edge 29, Type (0, 1), BuildingBlock: UVAHIK_clean_linker_0, # of connection points: 2
#     Edge 30, Type (0, 1), BuildingBlock: UVAHIK_clean_linker_0, # of connection points: 2
#     Edge 31, Type (0, 1), BuildingBlock: UVAHIK_clean_linker_0, # of connection points: 2
#     Edge 32, Type (0, 1), BuildingBlock: UVAHIK_clean_linker_0, # of connection points: 2
#     Edge 33, Type (0, 1), BuildingBlock: UVAHIK_clean_linker_0, # of connection points: 2
#     Edge 34, Type (0, 1), BuildingBlock: UVAHIK_clean_linker_0, # of connection points: 2
#     Edge 35, Type (0, 1), BuildingBlock: UVAHIK_clean_linker_0, # of connection points: 2
# Relax obj value: 0.171
# Max RMSD: 0.246
# Mean RMSD: 0.189
data_MOF--net-nom--node1-QUQFOY_clean_sbu_1--node2-AZAVOO_clean_linker_0--edge1-UVAHIK_clean_linker_0
_symmetry_space_group_name_H-M    P1
_symmetry_Int_Tables_number       1
_symmetry_cell_setting            triclinic
loop_
_symmetry_equiv_pos_as_xyz
'x, y, z'
_cell_length_a     61.345372
_cell_length_b     63.155947
_cell_length_c     71.542656
_cell_angle_alpha  90.139878
_cell_angle_beta   89.800656
_cell_angle_gamma 120.88153
loop_
_atom_site_label
_atom_site_type_symbol
_atom_site_fract_x
_atom_site_fract_y
_atom_site_fract_z
_atom_type_partial_charge
H0 H 0.0665 0.50483 0.1964 0.0
H1 H 0.17576 0.61512 0.38953 0.0
H2 H 0.0001 0.4733 0.28655 0.0
H3 H 0.96762 0.45682 0.26223 0.0
H4 H 0.95752 0.51929 0.26921 0.0
H5 H 0.99059 0.53593 0.2933 0.0
H6 H 0.05913 0.49802 0.27794 0.0
H7 H 0.06444 0.4958 0.24421 0.0
H8 H 0.04234 0.54995 0.23536 0.0
H9 H 0.03741 0.5522 0.26914 0.0
H10 H 0.09874 0.52003 0.30884 0.0
H11 H 0.1421 0.54019 0.2963 0.0
H12 H 0.13463 0.60119 0.27742 0.0
H13 H 0.09123 0.58047 0.28939 0.0
H14 H 0.07827 0.51507 0.35095 0.0
H15 H 0.11329 0.53342 0.37337 0.0
H16 H 0.13345 0.60618 0.35421 0.0
H17 H 0.09811 0.58756 0.33205 0.0
H18 H 0.02557 0.4959 0.36224 0.0
H19 H 0.03578 0.50426 0.39555 0.0
H20 H 0.05947 0.58077 0.38655 0.0
H21 H 0.04918 0.57221 0.35344 0.0
H22 H 0.97491 0.47363 0.32544 0.0
H23 H 0.9324 0.4624 0.33624 0.0
H24 H 0.96062 0.53863 0.35097 0.0
H25 H 0.00236 0.54978 0.33897 0.0
O26 O 0.06435 0.50604 0.20968 0.0
O27 O 0.05271 0.5338 0.20589 0.0
O28 O 0.15069 0.56956 0.39009 0.0
O29 O 0.16209 0.60737 0.38056 0.0
C30 C 0.02004 0.51739 0.30416 0.0
C31 C 0.04455 0.52644 0.29643 0.0
C32 C 0.06608 0.53731 0.30811 0.0
C33 C 0.06314 0.53884 0.3275 0.0
C34 C 0.03876 0.53049 0.33516 0.0
C35 C 0.01714 0.51986 0.32353 0.0
C36 C 0.99768 0.50579 0.29162 0.0
C37 C 0.99053 0.48318 0.28304 0.0
C38 C 0.9719 0.47376 0.26922 0.0
C39 C 0.96007 0.48682 0.26374 0.0
C40 C 0.96651 0.50897 0.27299 0.0
C41 C 0.98519 0.51838 0.28684 0.0
C42 C 0.04781 0.5252 0.27595 0.0
C43 C 0.05553 0.50943 0.26869 0.0
C44 C 0.0585 0.50818 0.24942 0.0
C45 C 0.05378 0.52267 0.23708 0.0
C46 C 0.04609 0.53851 0.24446 0.0
C47 C 0.04321 0.53979 0.26373 0.0
C48 C 0.09191 0.54879 0.29991 0.0
C49 C 0.1065 0.53764 0.30181 0.0
C50 C 0.13129 0.54926 0.29474 0.0
C51 C 0.14191 0.57232 0.28578 0.0
C52 C 0.12698 0.58324 0.28385 0.0
C53 C 0.10221 0.57154 0.29078 0.0
C54 C 0.08573 0.55 0.33989 0.0
C55 C 0.0904 0.53496 0.35154 0.0
C56 C 0.11037 0.54549 0.36435 0.0
C57 C 0.12614 0.57129 0.36561 0.0
C58 C 0.12167 0.58627 0.35361 0.0
C59 C 0.1016 0.5757 0.34087 0.0
C60 C 0.03666 0.53346 0.3555 0.0
C61 C 0.03189 0.51418 0.36766 0.0
C62 C 0.038 0.51906 0.3866 0.0
C63 C 0.04874 0.54323 0.39356 0.0
C64 C 0.05106 0.56194 0.38164 0.0
C65 C 0.04513 0.55708 0.36273 0.0
C66 C 0.99178 0.51253 0.33143 0.0
C67 C 0.97182 0.48786 0.331 0.0
C68 C 0.94759 0.48146 0.33734 0.0
C69 C 0.94293 0.49961 0.34442 0.0
C70 C 0.96326 0.5242 0.34528 0.0
C71 C 0.9873 0.5306 0.33868 0.0
C72 C 0.05688 0.52125 0.21661 0.0
C73 C 0.14702 0.58258 0.37949 0.0
H74 H 0.44122 0.06013 0.36182 0.0
H75 H 0.4574 0.18756 0.5516 0.0
H76 H 0.44522 0.01586 0.47245 0.0
H77 H 0.44362 0.98416 0.45216 0.0
H78 H 0.3714 0.96929 0.4304 0.0
H79 H 0.37252 0.0003 0.45183 0.0
H80 H 0.4536 0.05277 0.44214 0.0
H81 H 0.45468 0.05518 0.40798 0.0
H82 H 0.38726 0.0607 0.40891 0.0
H83 H 0.3863 0.05803 0.44307 0.0
H84 H 0.47464 0.10043 0.4626 0.0
H85 H 0.49639 0.14091 0.44765 0.0
H86 H 0.42878 0.14547 0.45407 0.0
H87 H 0.40688 0.10436 0.46843 0.0
H88 H 0.474 0.10149 0.51108 0.0
H89 H 0.49063 0.13886 0.53015 0.0
H90 H 0.41936 0.13664 0.52406 0.0
H91 H 0.4029 0.09912 0.5052 0.0
H92 H 0.454 0.04486 0.52236 0.0
H93 H 0.46876 0.05497 0.55428 0.0
H94 H 0.41236 0.07525 0.56509 0.0
H95 H 0.39555 0.06179 0.53362 0.0
H96 H 0.4375 0.00807 0.50547 0.0
H97 H 0.42087 0.96803 0.52044 0.0
H98 H 0.34533 0.9572 0.51919 0.0
H99 H 0.36247 0.9979 0.50486 0.0
O100 O 0.44036 0.05906 0.37531 0.0
O101 O 0.40563 0.06175 0.37656 0.0
O102 O 0.48759 0.17313 0.54682 0.0
O103 O 0.45139 0.17293 0.54399 0.0
C104 C 0.41178 0.03121 0.47493 0.0
C105 C 0.41911 0.05369 0.46573 0.0
C106 C 0.42689 0.07533 0.47621 0.0
C107 C 0.42692 0.07445 0.4959 0.0
C108 C 0.41909 0.05186 0.5052 0.0
C109 C 0.41109 0.03013 0.49467 0.0
C110 C 0.40874 0.00998 0.46391 0.0
C111 C 0.42862 0.00516 0.46379 0.0
C112 C 0.42789 0.98735 0.4519 0.0
C113 C 0.40753 0.97438 0.43948 0.0
C114 C 0.38723 0.97879 0.43993 0.0
C115 C 0.38784 0.9965 0.45209 0.0
C116 C 0.41971 0.05496 0.44501 0.0
C117 C 0.43898 0.0543 0.43491 0.0
C118 C 0.4396 0.05577 0.41542 0.0
C119 C 0.42102 0.05808 0.40571 0.0
C120 C 0.40182 0.05887 0.41594 0.0
C121 C 0.40121 0.05735 0.43543 0.0
C122 C 0.43927 0.09957 0.46661 0.0
C123 C 0.4645 0.11013 0.46063 0.0
C124 C 0.47694 0.13334 0.45225 0.0
C125 C 0.46442 0.14658 0.44981 0.0
C126 C 0.43891 0.13571 0.45559 0.0
C127 C 0.42642 0.11234 0.4639 0.0
C128 C 0.4373 0.0977 0.50676 0.0
C129 C 0.46208 0.10919 0.51384 0.0
C130 C 0.4715 0.1305 0.52473 0.0
C131 C 0.45631 0.14074 0.52864 0.0
C132 C 0.43155 0.12925 0.52132 0.0
C133 C 0.42213 0.10789 0.51049 0.0
C134 C 0.42343 0.0522 0.52564 0.0
C135 C 0.44371 0.04989 0.53192 0.0
C136 C 0.45266 0.05649 0.55012 0.0
C137 C 0.44241 0.06682 0.56217 0.0
C138 C 0.42079 0.06735 0.55631 0.0
C139 C 0.41117 0.05977 0.53825 0.0
C140 C 0.40124 0.00603 0.50423 0.0
C141 C 0.41742 0.99721 0.50863 0.0
C142 C 0.4078 0.97414 0.51702 0.0
C143 C 0.3817 0.95926 0.52101 0.0
C144 C 0.36556 0.96827 0.5166 0.0
C145 C 0.37528 0.99146 0.50832 0.0
C146 C 0.42178 0.05974 0.385 0.0
C147 C 0.46613 0.16324 0.54035 0.0
H148 H 0.60061 0.57824 0.776 0.0
H149 H 0.58746 0.47322 0.57862 0.0
H150 H 0.57039 0.61379 0.69052 0.0
H151 H 0.55534 0.62549 0.7182 0.0
H152 H 0.47834 0.56859 0.70563 0.0
H153 H 0.49357 0.55628 0.67829 0.0
H154 H 0.60151 0.58622 0.69452 0.0
H155 H 0.60885 0.58723 0.7282 0.0
H156 H 0.5282 0.53874 0.73717 0.0
H157 H 0.52118 0.53752 0.70346 0.0
H158 H 0.61372 0.55959 0.65834 0.0
H159 H 0.63158 0.53502 0.66998 0.0
H160 H 0.56088 0.4864 0.69822 0.0
H161 H 0.54268 0.51 0.6858 0.0
H162 H 0.60151 0.57414 0.62028 0.0
H163 H 0.61516 0.55526 0.59665 0.0
H164 H 0.55669 0.48291 0.61535 0.0
H165 H 0.54294 0.50207 0.63869 0.0
H166 H 0.57307 0.59957 0.61296 0.0
H167 H 0.57673 0.5954 0.57919 0.0
H168 H 0.51859 0.51827 0.58268 0.0
H169 H 0.51496 0.5227 0.61623 0.0
H170 H 0.54573 0.61911 0.65134 0.0
H171 H 0.51685 0.63265 0.64098 0.0
H172 H 0.46496 0.55901 0.62039 0.0
H173 H 0.49278 0.54537 0.63224 0.0
O174 O 0.59732 0.57738 0.76272 0.0
O175 O 0.55564 0.5528 0.76659 0.0
O176 O 0.61206 0.51879 0.57869 0.0
O177 O 0.58272 0.48115 0.58804 0.0
C178 C 0.54294 0.57299 0.66911 0.0
C179 C 0.55641 0.56197 0.67612 0.0
C180 C 0.56536 0.55061 0.66376 0.0
C181 C 0.56164 0.55107 0.64436 0.0
C182 C 0.54786 0.56174 0.6374 0.0
C183 C 0.53807 0.57234 0.64974 0.0
C184 C 0.5331 0.58406 0.68252 0.0
C185 C 0.5502 0.60428 0.69345 0.0
C186 C 0.54165 0.61086 0.70925 0.0
C187 C 0.51578 0.59773 0.71401 0.0
C188 C 0.49836 0.57897 0.70212 0.0
C189 C 0.50701 0.57204 0.6865 0.0
C190 C 0.56082 0.56194 0.69656 0.0
C191 C 0.58549 0.57572 0.70378 0.0
C192 C 0.5896 0.57632 0.72303 0.0
C193 C 0.5691 0.56315 0.73539 0.0
C194 C 0.54441 0.54916 0.72806 0.0
C195 C 0.54034 0.54848 0.70881 0.0
C196 C 0.5769 0.53665 0.67128 0.0
C197 C 0.60207 0.54356 0.66696 0.0
C198 C 0.61226 0.52964 0.67363 0.0
C199 C 0.59761 0.50907 0.68509 0.0
C200 C 0.57261 0.50241 0.68959 0.0
C201 C 0.56225 0.51589 0.68255 0.0
C202 C 0.57124 0.53947 0.63117 0.0
C203 C 0.59176 0.55422 0.61929 0.0
C204 C 0.5995 0.54339 0.60581 0.0
C205 C 0.58696 0.51756 0.60408 0.0
C206 C 0.56673 0.50284 0.61629 0.0
C207 C 0.55892 0.51371 0.6297 0.0
C208 C 0.5439 0.56139 0.61697 0.0
C209 C 0.56035 0.5821 0.60624 0.0
C210 C 0.56258 0.57961 0.58703 0.0
C211 C 0.54824 0.55642 0.57838 0.0
C212 C 0.52978 0.5364 0.58889 0.0
C213 C 0.52766 0.53888 0.60807 0.0
C214 C 0.52146 0.58125 0.6425 0.0
C215 C 0.52802 0.60593 0.64469 0.0
C216 C 0.51156 0.61367 0.63857 0.0
C217 C 0.48837 0.59695 0.62987 0.0
C218 C 0.48226 0.57237 0.62738 0.0
C219 C 0.49842 0.56458 0.63386 0.0
C220 C 0.5735 0.56406 0.75584 0.0
C221 C 0.59476 0.50598 0.5895 0.0
H222 H 0.02862 0.4017 0.94817 0.0
H223 H 0.18048 0.47683 0.76311 0.0
H224 H 0.99261 0.427 0.84847 0.0
H225 H 0.95623 0.41437 0.869 0.0
H226 H 0.93555 0.33818 0.86281 0.0
H227 H 0.97241 0.35121 0.84204 0.0
H228 H 0.0354 0.43656 0.87148 0.0
H229 H 0.03349 0.42863 0.90511 0.0
H230 H 0.02226 0.35641 0.89365 0.0
H231 H 0.02434 0.36468 0.86006 0.0
H232 H 0.07717 0.46393 0.84916 0.0
H233 H 0.11632 0.48507 0.86722 0.0
H234 H 0.12534 0.42182 0.861 0.0
H235 H 0.08525 0.40037 0.84356 0.0
H236 H 0.07916 0.47102 0.80324 0.0
H237 H 0.11903 0.49444 0.78587 0.0
H238 H 0.12912 0.43155 0.78785 0.0
H239 H 0.08899 0.40822 0.80497 0.0
H240 H 0.02276 0.44836 0.78979 0.0
H241 H 0.03866 0.47035 0.7602 0.0
H242 H 0.06676 0.42235 0.74527 0.0
H243 H 0.05004 0.39984 0.77469 0.0
H244 H 0.97993 0.42341 0.81378 0.0
H245 H 0.93931 0.40822 0.79807 0.0
H246 H 0.94681 0.35013 0.77248 0.0
H247 H 0.98682 0.36478 0.78917 0.0
O248 O 0.02929 0.40444 0.93484 0.0
O249 O 0.0232 0.36737 0.92819 0.0
O250 O 0.15851 0.49976 0.76928 0.0
O251 O 0.16488 0.46814 0.77023 0.0
C252 C 0.00872 0.3987 0.83303 0.0
C253 C 0.03125 0.40599 0.84307 0.0
C254 C 0.05492 0.41865 0.83393 0.0
C255 C 0.05608 0.42319 0.81458 0.0
C256 C 0.03344 0.41512 0.80431 0.0
C257 C 0.00973 0.40298 0.81357 0.0
C258 C 0.98482 0.38998 0.84357 0.0
C259 C 0.97987 0.40753 0.85119 0.0
C260 C 0.95905 0.40025 0.86287 0.0
C261 C 0.94287 0.37524 0.86738 0.0
C262 C 0.94769 0.35756 0.85954 0.0
C263 C 0.96855 0.36491 0.84763 0.0
C264 C 0.03011 0.40122 0.86343 0.0
C265 C 0.03261 0.41909 0.8763 0.0
C266 C 0.03147 0.41448 0.89548 0.0
C267 C 0.02775 0.39189 0.90207 0.0
C268 C 0.02517 0.374 0.88905 0.0
C269 C 0.02636 0.37866 0.86988 0.0
C270 C 0.07852 0.43072 0.84509 0.0
C271 C 0.08756 0.45462 0.85182 0.0
C272 C 0.11004 0.46672 0.862 0.0
C273 C 0.12417 0.45527 0.86541 0.0
C274 C 0.11483 0.43109 0.85878 0.0
C275 C 0.09208 0.41886 0.84872 0.0
C276 C 0.08121 0.43793 0.80529 0.0
C277 C 0.09009 0.46239 0.79997 0.0
C278 C 0.11284 0.47571 0.79004 0.0
C279 C 0.12723 0.46483 0.78542 0.0
C280 C 0.11849 0.44046 0.79115 0.0
C281 C 0.09566 0.42713 0.80101 0.0
C282 C 0.03536 0.42258 0.78443 0.0
C283 C 0.03115 0.44175 0.77973 0.0
C284 C 0.0404 0.45441 0.76288 0.0
C285 C 0.05424 0.44823 0.75065 0.0
C286 C 0.05634 0.42756 0.75459 0.0
C287 C 0.04667 0.41462 0.77129 0.0
C288 C 0.98599 0.39484 0.80296 0.0
C289 C 0.97264 0.40726 0.80493 0.0
C290 C 0.94959 0.39874 0.79569 0.0
C291 C 0.93963 0.37783 0.78405 0.0
C292 C 0.95362 0.36598 0.78161 0.0
C293 C 0.97656 0.37439 0.79102 0.0
C294 C 0.02659 0.38706 0.92245 0.0
C295 C 0.15114 0.47871 0.77452 0.0
H296 H 0.40687 0.9954 0.86956 0.0
H297 H 0.41028 0.86436 0.0461 0.0
H298 H 0.43946 0.04999 0.96227 0.0
H299 H 0.45884 0.08548 0.94108 0.0
H300 H 0.53244 0.094 0.95088 0.0
H301 H 0.51292 0.05868 0.97206 0.0
H302 H 0.40425 0.99052 0.95124 0.0
H303 H 0.3977 0.98976 0.91746 0.0
H304 H 0.47802 0.01946 0.90844 0.0
H305 H 0.48423 0.01979 0.94222 0.0
H306 H 0.3896 0.94411 0.98083 0.0
H307 H 0.37283 0.90351 0.96601 0.0
H308 H 0.44607 0.92895 0.94036 0.0
H309 H 0.46261 0.96901 0.9553 0.0
H310 H 0.40255 0.96277 0.02339 0.0
H311 H 0.38684 0.92474 0.04142 0.0
H312 H 0.44397 0.91332 0.01579 0.0
H313 H 0.45968 0.95155 0.99804 0.0
H314 H 0.43363 0.01508 0.03764 0.0
H315 H 0.43614 0.00685 0.07086 0.0
H316 H 0.49213 0.98697 0.05748 0.0
H317 H 0.4896 0.9954 0.02452 0.0
H318 H 0.45863 0.06638 0.00596 0.0
H319 H 0.48796 0.10619 0.02077 0.0
H320 H 0.54288 0.08331 0.02759 0.0
H321 H 0.51363 0.04388 0.01283 0.0
O322 O 0.40988 0.99585 0.88286 0.0
O323 O 0.45136 0.01137 0.879 0.0
O324 O 0.38708 0.88618 0.0519 0.0
O325 O 0.41602 0.8794 0.03906 0.0
C326 C 0.46272 0.02839 0.97935 0.0
C327 C 0.44853 0.00571 0.9697 0.0
C328 C 0.43863 0.9832 0.97948 0.0
C329 C 0.44218 0.98338 -0.00102 0.0
C330 C 0.45642 0.00603 0.00857 0.0
C331 C 0.46693 0.02854 -0.00123 0.0
C332 C 0.4748 0.05183 0.96868 0.0
C333 C 0.45982 0.05985 0.96007 0.0
C334 C 0.4709 0.07999 0.94792 0.0
C335 C 0.49715 0.09244 0.94423 0.0
C336 C 0.51223 0.08501 0.9536 0.0
C337 C 0.50113 0.06483 0.96569 0.0
C338 C 0.44473 0.00542 0.94917 0.0
C339 C 0.42039 0.99685 0.94193 0.0
C340 C 0.41672 0.99646 0.92264 0.0
C341 C 0.43735 0.00462 0.91025 0.0
C342 C 0.46173 0.01312 0.91759 0.0
C343 C 0.46535 0.01343 0.93687 0.0
C344 C 0.42728 0.95954 0.96904 0.0
C345 C 0.40185 0.94093 0.9718 0.0
C346 C 0.39235 0.9178 0.96339 0.0
C347 C 0.40809 0.91312 0.95193 0.0
C348 C 0.4333 0.93211 0.94879 0.0
C349 C 0.44281 0.95503 0.95733 0.0
C350 C 0.43214 0.9598 0.00936 0.0
C351 C 0.41159 0.95198 0.02167 0.0
C352 C 0.40267 0.93027 0.03195 0.0
C353 C 0.41415 0.91597 0.03003 0.0
C354 C 0.43468 0.92386 0.01759 0.0
C355 C 0.44363 0.94563 0.00737 0.0
C356 C 0.46137 0.00573 0.02877 0.0
C357 C 0.44691 0.0096 0.04203 0.0
C358 C 0.44825 0.00475 0.06091 0.0
C359 C 0.46423 0.99614 0.06674 0.0
C360 C 0.47987 0.99385 0.05349 0.0
C361 C 0.4784 0.99855 0.03465 0.0
C362 C 0.4839 0.05215 0.00855 0.0
C363 C 0.47693 0.06998 0.01082 0.0
C364 C 0.49371 0.09268 0.01919 0.0
C365 C 0.51765 0.0978 0.02549 0.0
C366 C 0.52439 0.07976 0.02326 0.0
C367 C 0.50772 0.05722 0.01483 0.0
C368 C 0.4334 0.0042 0.88976 0.0
C369 C 0.40486 0.89298 0.04101 0.0
H370 H 0.66854 0.64251 0.01839 0.0
H371 H 0.75547 0.60652 0.21008 0.0
H372 H 0.62362 0.64938 0.1129 0.0
H373 H 0.59946 0.66212 0.09394 0.0
H374 H 0.65511 0.7386 0.10502 0.0
H375 H 0.67962 0.72551 0.12393 0.0
H376 H 0.64966 0.62696 0.09877 0.0
H377 H 0.65193 0.62625 0.06466 0.0
H378 H 0.71186 0.70297 0.06502 0.0
H379 H 0.70957 0.70332 0.09919 0.0
H380 H 0.65749 0.60423 0.12961 0.0
H381 H 0.66736 0.5749 0.11559 0.0
H382 H 0.74333 0.63474 0.10296 0.0
H383 H 0.73268 0.66413 0.11639 0.0
H384 H 0.65946 0.61235 0.1721 0.0
H385 H 0.6745 0.5915 0.19254 0.0
H386 H 0.75211 0.64624 0.17855 0.0
H387 H 0.73677 0.66712 0.15838 0.0
H388 H 0.63528 0.64264 0.18245 0.0
H389 H 0.63357 0.62931 0.21468 0.0
H390 H 0.71495 0.67701 0.21897 0.0
H391 H 0.71646 0.69052 0.1867 0.0
H392 H 0.61673 0.66326 0.15072 0.0
H393 H 0.59514 0.68193 0.16607 0.0
H394 H 0.6668 0.73853 0.18915 0.0
H395 H 0.68843 0.72048 0.17266 0.0
O396 O 0.66798 0.64319 0.03187 0.0
O397 O 0.6986 0.68269 0.03282 0.0
O398 O 0.70877 0.58675 0.20881 0.0
O399 O 0.749 0.61415 0.20184 0.0
C400 C 0.66755 0.67799 0.13104 0.0
C401 C 0.67849 0.66561 0.12214 0.0
C402 C 0.68787 0.6534 0.13295 0.0
C403 C 0.68789 0.65491 0.15259 0.0
C404 C 0.67794 0.66819 0.16153 0.0
C405 C 0.66722 0.67928 0.15079 0.0
C406 C 0.65341 0.68652 0.11965 0.0
C407 C 0.63067 0.66889 0.11118 0.0
C408 C 0.61676 0.67622 0.10054 0.0
C409 C 0.62527 0.70137 0.09817 0.0
C410 C 0.64816 0.7191 0.10662 0.0
C411 C 0.6621 0.7117 0.11741 0.0
C412 C 0.67968 0.6651 0.10143 0.0
C413 C 0.66343 0.64351 0.09147 0.0
C414 C 0.66469 0.6432 0.07197 0.0
C415 C 0.68214 0.66453 0.06211 0.0
C416 C 0.69825 0.6862 0.07219 0.0
C417 C 0.69699 0.68646 0.09168 0.0
C418 C 0.69437 0.63621 0.12395 0.0
C419 C 0.67621 0.61097 0.1237 0.0
C420 C 0.68199 0.59423 0.11582 0.0
C421 C 0.70624 0.60238 0.10828 0.0
C422 C 0.72438 0.62784 0.10844 0.0
C423 C 0.71844 0.64465 0.11618 0.0
C424 C 0.69705 0.64131 0.16389 0.0
C425 C 0.6797 0.61975 0.17345 0.0
C426 C 0.68834 0.60789 0.1851 0.0
C427 C 0.71453 0.61727 0.18723 0.0
C428 C 0.73183 0.63857 0.17726 0.0
C429 C 0.72315 0.65048 0.16568 0.0
C430 C 0.67602 0.66734 0.18221 0.0
C431 C 0.65256 0.65119 0.19064 0.0
C432 C 0.65164 0.64351 0.20905 0.0
C433 C 0.6742 0.65181 0.21916 0.0
C434 C 0.69733 0.67013 0.21136 0.0
C435 C 0.6982 0.67798 0.19302 0.0
C436 C 0.65422 0.69076 0.16028 0.0
C437 C 0.62782 0.67994 0.15883 0.0
C438 C 0.61545 0.69045 0.16789 0.0
C439 C 0.62917 0.71176 0.17894 0.0
C440 C 0.65565 0.72238 0.18053 0.0
C441 C 0.66805 0.71201 0.17123 0.0
C442 C 0.68348 0.66412 0.0414 0.0
C443 C 0.72382 0.60505 0.19993 0.0
O444 O 0.61167 0.45469 0.41093 0.0
Cd445 Cd 0.61975 0.44056 0.3877 0.0
Cd446 Cd 0.66697 0.47126 0.39863 0.0
O447 O 0.65024 0.47387 0.42283 0.0
O448 O 0.58869 0.40812 0.38256 0.0
O449 O 0.62521 0.4122 0.3915 0.0
C450 C 0.6015 0.39796 0.38733 0.0
C451 C 0.70293 0.46757 0.39893 0.0
C452 C 0.62686 0.46708 0.42405 0.0
C453 C 0.6493 0.48317 0.36306 0.0
O454 O 0.66551 0.49074 0.37616 0.0
O455 O 0.62971 0.46167 0.36374 0.0
O456 O 0.70403 0.4878 0.40366 0.0
O457 O 0.68093 0.44876 0.39495 0.0
O458 O 0.22584 0.61803 0.60174 0.0
Cd459 Cd 0.24873 0.63634 0.5792 0.0
Cd460 Cd 0.23317 0.66742 0.58809 0.0
O461 O 0.21937 0.64711 0.61239 0.0
O462 O 0.26669 0.61795 0.57509 0.0
O463 O 0.28679 0.65746 0.58259 0.0
C464 C 0.28765 0.63781 0.57916 0.0
C465 C 0.2609 0.70988 0.5875 0.0
C466 C 0.21657 0.62581 0.61398 0.0
C467 C 0.21409 0.63973 0.55207 0.0
O468 O 0.2113 0.65263 0.56445 0.0
O469 O 0.23013 0.63293 0.55445 0.0
O470 O 0.23725 0.70049 0.59181 0.0
O471 O 0.26911 0.69497 0.58442 0.0
O472 O 0.61893 0.22915 0.76953 0.0
Cd473 Cd 0.63284 0.24115 0.74289 0.0
Cd474 Cd 0.60189 0.25944 0.74464 0.0
O475 O 0.5973 0.24811 0.772 0.0
O476 O 0.66431 0.23958 0.74122 0.0
O477 O 0.66422 0.27453 0.7396 0.0
C478 C 0.67686 0.26329 0.73975 0.0
C479 C 0.60898 0.29871 0.73845 0.0
C480 C 0.60524 0.2349 0.77911 0.0
C481 C 0.58968 0.21998 0.71606 0.0
O482 O 0.58237 0.23294 0.72455 0.0
O483 O 0.61046 0.22145 0.72048 0.0
O484 O 0.58693 0.28075 0.74328 0.0
O485 O 0.62743 0.29447 0.7373 0.0
O486 O 0.46084 0.68333 0.94073 0.0
Cd487 Cd 0.43474 0.67429 0.91941 0.0
Cd488 Cd 0.41908 0.62891 0.93201 0.0
O489 O 0.44182 0.64697 0.95453 0.0
O490 O 0.44015 0.70645 0.91052 0.0
O491 O 0.40482 0.67845 0.92457 0.0
C492 C 0.41788 0.69988 0.91686 0.0
C493 C 0.37531 0.60522 0.93395 0.0
C494 C 0.45902 0.66966 0.95438 0.0
C495 C 0.43935 0.63893 0.89379 0.0
O496 O 0.43528 0.62522 0.9079 0.0
O497 O 0.43775 0.65814 0.89521 0.0
O498 O 0.38924 0.59632 0.93895 0.0
O499 O 0.38649 0.62797 0.92861 0.0
O500 O 0.80131 0.35868 0.04326 0.0
Cd501 Cd 0.78206 0.35825 0.0671 0.0
Cd502 Cd 0.79743 0.40506 0.05704 0.0
O503 O 0.80665 0.39381 0.03273 0.0
O504 O 0.75885 0.32303 0.0735 0.0
O505 O 0.74528 0.34776 0.06425 0.0
C506 C 0.74018 0.32605 0.06933 0.0
C507 C 0.77705 0.42752 0.05516 0.0
C508 C 0.80831 0.37473 0.0304 0.0
C509 C 0.8175 0.39789 0.09319 0.0
O510 O 0.81982 0.41297 0.08051 0.0
O511 O 0.80214 0.37492 0.09107 0.0
O512 O 0.80057 0.43707 0.05051 0.0
O513 O 0.76466 0.40468 0.06031 0.0
O514 O 0.4655 0.8584 0.23686 0.0
Cd515 Cd 0.46617 0.83779 0.25884 0.0
Cd516 Cd 0.41555 0.81139 0.2541 0.0
O517 O 0.42457 0.83447 0.23136 0.0
O518 O 0.50033 0.84143 0.25882 0.0
O519 O 0.46472 0.80603 0.25325 0.0
C520 C 0.48923 0.81833 0.25445 0.0
C521 C 0.38411 0.77002 0.25027 0.0
C522 C 0.44601 0.85315 0.22724 0.0
C523 C 0.43537 0.8389 0.29053 0.0
O524 O 0.41633 0.8258 0.28012 0.0
O525 O 0.45766 0.84535 0.28501 0.0
O526 O 0.3789 0.78733 0.24994 0.0
O527 O 0.40751 0.77614 0.25248 0.0
C528 C 0.18791 0.58526 0.28955 0.0
C529 C 0.1687 0.58553 0.27907 0.0
C530 C 0.21339 0.59968 0.28417 0.0
C531 C 0.25567 0.63938 0.24525 0.0
H532 H 0.30198 0.67509 0.28583 0.0
C533 C 0.34062 0.73808 0.24027 0.0
C534 C 0.36339 0.74404 0.24924 0.0
C535 C 0.3195 0.71429 0.24147 0.0
C536 C 0.28945 0.66491 0.27434 0.0
H537 H 0.1612 0.60003 0.25402 0.0
H538 H 0.20541 0.62599 0.24521 0.0
H539 H 0.25939 0.64124 0.29287 0.0
H540 H 0.38238 0.72969 0.26588 0.0
H541 H 0.34494 0.688 0.26849 0.0
H542 H 0.2854 0.66451 0.22684 0.0
C543 C 0.20095 0.61435 0.25741 0.0
C544 C 0.26498 0.64542 0.27835 0.0
C545 C 0.17551 0.59974 0.26266 0.0
C546 C 0.36505 0.72549 0.25877 0.0
C547 C 0.34367 0.70174 0.26032 0.0
C548 C 0.28001 0.65913 0.24127 0.0
C549 C 0.22031 0.61491 0.26828 0.0
C550 C 0.24749 0.63287 0.26387 0.0
C551 C 0.32059 0.69611 0.25196 0.0
C552 C 0.29686 0.67248 0.25581 0.0
H553 H 0.18343 0.57465 0.30233 0.0
H554 H 0.22771 0.59929 0.29272 0.0
H555 H 0.24299 0.62977 0.23371 0.0
H556 H 0.33888 0.75204 0.23279 0.0
H557 H 0.30189 0.71052 0.23505 0.0
C558 C 0.4661 0.17949 0.42897 0.0
C559 C 0.4782 0.17177 0.44156 0.0
C560 C 0.4793 0.20314 0.42116 0.0
C561 C 0.54412 0.2548 0.41131 0.0
H562 H 0.51234 0.29429 0.41011 0.0
C563 C 0.60066 0.36014 0.39891 0.0
C564 C 0.58868 0.37087 0.38946 0.0
C565 C 0.58727 0.33495 0.40314 0.0
C566 C 0.52138 0.2834 0.41 0.0
H567 H 0.5135 0.18319 0.45617 0.0
H568 H 0.53649 0.22422 0.44242 0.0
H569 H 0.48845 0.25209 0.42168 0.0
H570 H 0.55373 0.36335 0.37608 0.0
H571 H 0.53063 0.31937 0.383 0.0
H572 H 0.57709 0.2861 0.39969 0.0
C573 C 0.51694 0.21185 0.43835 0.0
C574 C 0.50767 0.25921 0.41669 0.0
C575 C 0.50374 0.1883 0.44622 0.0
C576 C 0.56345 0.35568 0.38352 0.0
C577 C 0.55013 0.33048 0.38762 0.0
C578 C 0.5578 0.27896 0.40451 0.0
C579 C 0.5049 0.21953 0.42572 0.0
C580 C 0.51898 0.24474 0.41762 0.0
C581 C 0.56167 0.3199 0.39788 0.0
C582 C 0.54669 0.29366 0.40396 0.0
H583 H 0.44655 0.16713 0.42491 0.0
H584 H 0.46957 0.20848 0.41135 0.0
H585 H 0.55322 0.24396 0.41159 0.0
H586 H 0.62005 0.37137 0.40375 0.0
H587 H 0.59672 0.32751 0.41121 0.0
C588 C 0.4792 0.6287 0.61657 0.0
C589 C 0.47036 0.60478 0.62359 0.0
C590 C 0.46209 0.63554 0.61023 0.0
C591 C 0.4009 0.61064 0.58872 0.0
H592 H 0.39369 0.66186 0.61267 0.0
C593 C 0.31049 0.61465 0.58025 0.0
C594 C 0.31143 0.63733 0.58098 0.0
C595 C 0.33221 0.61341 0.58344 0.0
C596 C 0.39577 0.64788 0.6055 0.0
H597 H 0.43625 0.56981 0.63015 0.0
H598 H 0.40679 0.58143 0.61821 0.0
H599 H 0.42794 0.65512 0.62223 0.0
H600 H 0.33619 0.67669 0.5851 0.0
H601 H 0.37454 0.67468 0.59012 0.0
H602 H 0.3692 0.60339 0.57182 0.0
C603 C 0.42699 0.59478 0.61765 0.0
C604 C 0.41532 0.64399 0.61107 0.0
C605 C 0.44396 0.5881 0.62433 0.0
C606 C 0.33485 0.65892 0.58448 0.0
C607 C 0.35677 0.65772 0.58749 0.0
C608 C 0.38172 0.6148 0.58291 0.0
C609 C 0.43589 0.61847 0.61047 0.0
C610 C 0.41755 0.62489 0.60306 0.0
C611 C 0.35566 0.63487 0.58721 0.0
C612 C 0.37834 0.63294 0.59162 0.0
H613 H 0.49934 0.642 0.61556 0.0
H614 H 0.46932 0.65392 0.6047 0.0
H615 H 0.4025 0.59599 0.5822 0.0
H616 H 0.29274 0.5976 0.57774 0.0
H617 H 0.33032 0.5954 0.58352 0.0
C618 C 0.89741 0.34229 0.77384 0.0
C619 C 0.91434 0.36791 0.77511 0.0
C620 C 0.8731 0.3329 0.76647 0.0
C621 C 0.82403 0.3486 0.76065 0.0
H622 H 0.79307 0.2914 0.72807 0.0
C623 C 0.71898 0.30294 0.73833 0.0
C624 C 0.70496 0.27704 0.73928 0.0
C625 C 0.74552 0.31579 0.73949 0.0
C626 C 0.80137 0.3073 0.73725 0.0
H627 H 0.91911 0.40369 0.76889 0.0
H628 H 0.87638 0.3872 0.75641 0.0
H629 H 0.83787 0.31052 0.73624 0.0
H630 H 0.70785 0.24432 0.74161 0.0
H631 H 0.75379 0.26658 0.74399 0.0
H632 H 0.78741 0.34488 0.76233 0.0
C633 C 0.88202 0.37446 0.76124 0.0
C634 C 0.82705 0.31826 0.74188 0.0
C635 C 0.90645 0.38388 0.76846 0.0
C636 C 0.71805 0.26427 0.74082 0.0
C637 C 0.74449 0.27707 0.74204 0.0
C638 C 0.7983 0.33752 0.75615 0.0
C639 C 0.86503 0.34888 0.76032 0.0
C640 C 0.83852 0.33875 0.75389 0.0
C641 C 0.75857 0.303 0.74166 0.0
C642 C 0.78652 0.31644 0.74468 0.0
H643 H 0.90261 0.32942 0.77911 0.0
H644 H 0.86029 0.3131 0.76619 0.0
H645 H 0.8323 0.36423 0.7701 0.0
H646 H 0.70945 0.31331 0.73706 0.0
H647 H 0.75579 0.33575 0.73889 0.0
C648 C 0.40604 0.8853 0.92614 0.0
C649 C 0.39926 0.88813 0.94436 0.0
C650 C 0.4019 0.86251 0.92011 0.0
C651 C 0.37012 0.79579 0.93065 0.0
H652 H 0.4329 0.80314 0.91164 0.0
C653 C 0.39167 0.71653 0.92974 0.0
C654 C 0.40851 0.71717 0.91611 0.0
C655 C 0.38602 0.73535 0.93061 0.0
C656 C 0.41495 0.80058 0.91647 0.0
H657 H 0.38126 0.86891 0.97009 0.0
H658 H 0.37396 0.82898 0.9595 0.0
H659 H 0.43015 0.83946 0.91738 0.0
H660 H 0.43087 0.73657 0.89174 0.0
H661 H 0.42013 0.76865 0.89265 0.0
H662 H 0.35504 0.75675 0.92989 0.0
C663 C 0.38236 0.84439 0.94987 0.0
C664 C 0.41343 0.82151 0.91983 0.0
C665 C 0.38654 0.86726 0.95593 0.0
C666 C 0.41815 0.73588 0.90258 0.0
C667 C 0.41212 0.75435 0.90321 0.0
C668 C 0.37155 0.7747 0.92709 0.0
C669 C 0.39087 0.84205 0.93216 0.0
C670 C 0.39113 0.8194 0.92712 0.0
C671 C 0.3968 0.7549 0.91766 0.0
C672 C 0.39411 0.77688 0.92013 0.0
H673 H 0.41546 0.90097 0.9168 0.0
H674 H 0.40825 0.86111 0.90626 0.0
H675 H 0.35267 0.79365 0.93623 0.0
H676 H 0.38401 0.70228 0.94035 0.0
H677 H 0.37429 0.7352 0.94201 0.0
C678 C 0.72784 0.58967 0.08456 0.0
C679 C 0.71249 0.58421 0.10057 0.0
C680 C 0.7334 0.57236 0.07733 0.0
C681 C 0.71044 0.50602 0.07634 0.0
H682 H 0.78063 0.52641 0.06618 0.0
C683 C 0.74446 0.43659 0.06744 0.0
C684 C 0.76557 0.44311 0.05595 0.0
C685 C 0.73615 0.45323 0.07044 0.0
C686 C 0.76084 0.52041 0.06853 0.0
H687 H 0.69151 0.5564 0.12177 0.0
H688 H 0.70073 0.52614 0.10887 0.0
H689 H 0.76997 0.55693 0.07598 0.0
H690 H 0.79344 0.47131 0.03754 0.0
H691 H 0.77838 0.49987 0.04215 0.0
H692 H 0.7012 0.46952 0.06885 0.0
C693 C 0.7082 0.5437 0.10182 0.0
C694 C 0.7548 0.53795 0.07424 0.0
C695 C 0.70289 0.56106 0.10917 0.0
C696 C 0.77727 0.4659 0.04665 0.0
C697 C 0.76876 0.48236 0.04943 0.0
C698 C 0.71644 0.4885 0.07042 0.0
C699 C 0.72351 0.54917 0.08585 0.0
C700 C 0.7296 0.53087 0.07847 0.0
C701 C 0.74861 0.47658 0.06182 0.0
C702 C 0.74177 0.4954 0.06668 0.0
H703 H 0.73528 0.60716 0.07743 0.0
H704 H 0.74516 0.57698 0.06493 0.0
H705 H 0.6908 0.50013 0.07931 0.0
H706 H 0.73516 0.41919 0.07487 0.0
H707 H 0.72074 0.44818 0.08022 0.0
C708 C 0.35177 0.92534 0.54279 0.0
C709 C 0.37137 0.93432 0.52941 0.0
C710 C 0.34189 0.90179 0.55047 0.0
C711 C 0.3374 0.84177 0.54145 0.0
H712 H 0.31591 0.82914 0.59331 0.0
C713 C 0.3007 0.74645 0.57513 0.0
C714 C 0.27737 0.73679 0.58458 0.0
C715 C 0.31447 0.77135 0.57001 0.0
C716 C 0.32179 0.8324 0.5788 0.0
H717 H 0.39579 0.92533 0.51357 0.0
H718 H 0.37927 0.88478 0.5274 0.0
H719 H 0.33534 0.87101 0.58098 0.0
H720 H 0.2509 0.74595 0.59693 0.0
H721 H 0.27506 0.78939 0.58817 0.0
H722 H 0.32387 0.80316 0.53931 0.0
C723 C 0.3712 0.89575 0.53177 0.0
C724 C 0.33281 0.85637 0.57168 0.0
C725 C 0.38095 0.91921 0.52401 0.0
C726 C 0.26878 0.75281 0.58963 0.0
C727 C 0.28267 0.77774 0.58468 0.0
C728 C 0.32659 0.81788 0.54861 0.0
C729 C 0.35145 0.88666 0.54503 0.0
C730 C 0.34055 0.86133 0.55286 0.0
C731 C 0.30535 0.78714 0.57441 0.0
C732 C 0.31846 0.81288 0.56731 0.0
H733 H 0.34411 0.93655 0.54746 0.0
H734 H 0.32648 0.89532 0.56046 0.0
H735 H 0.34268 0.84475 0.52682 0.0
H736 H 0.30783 0.73459 0.57103 0.0
H737 H 0.33205 0.77817 0.56229 0.0
C738 C 0.60772 0.48947 0.71117 0.0
C739 C 0.60771 0.49379 0.69197 0.0
C740 C 0.6138 0.47229 0.71763 0.0
C741 C 0.63778 0.43089 0.70278 0.0
H742 H 0.59281 0.38971 0.7424 0.0
C743 C 0.63676 0.34374 0.73057 0.0
C744 C 0.61255 0.32319 0.73417 0.0
C745 C 0.63963 0.36677 0.72659 0.0
C746 C 0.60546 0.40093 0.73126 0.0
H747 H 0.61492 0.4845 0.66442 0.0
H748 H 0.62456 0.45368 0.67553 0.0
H749 H 0.59247 0.42632 0.73308 0.0
H750 H 0.57237 0.31057 0.73606 0.0
H751 H 0.57726 0.3502 0.72876 0.0
H752 H 0.64953 0.40436 0.70031 0.0
C753 C 0.62062 0.46396 0.68574 0.0
C754 C 0.6056 0.42226 0.7261 0.0
C755 C 0.61499 0.48152 0.67932 0.0
C756 C 0.59133 0.32606 0.73355 0.0
C757 C 0.59416 0.34889 0.72948 0.0
C758 C 0.63746 0.40932 0.70785 0.0
C759 C 0.6194 0.45862 0.70496 0.0
C760 C 0.62145 0.43736 0.71159 0.0
C761 C 0.61833 0.3696 0.72609 0.0
C762 C 0.62086 0.39382 0.72189 0.0
H763 H 0.60236 0.49894 0.72116 0.0
H764 H 0.61333 0.46921 0.73254 0.0
H765 H 0.65052 0.44224 0.69174 0.0
H766 H 0.65347 0.34209 0.73095 0.0
H767 H 0.65852 0.38238 0.72414 0.0
C768 C 0.1651 0.49429 0.8724 0.0
C769 C 0.14876 0.46888 0.87552 0.0
C770 C 0.18783 0.50746 0.8822 0.0
C771 C 0.23665 0.50155 0.90577 0.0
H772 H 0.25517 0.5653 0.92679 0.0
C773 C 0.33524 0.56442 0.93842 0.0
C774 C 0.34739 0.58926 0.93286 0.0
C775 C 0.30931 0.54858 0.93513 0.0
C776 C 0.25036 0.54759 0.92093 0.0
H777 H 0.14379 0.43738 0.89129 0.0
H778 H 0.18411 0.46047 0.90809 0.0
H779 H 0.21306 0.53935 0.91335 0.0
H780 H 0.34166 0.61722 0.92022 0.0
H781 H 0.29676 0.58964 0.91416 0.0
H782 H 0.27428 0.51019 0.91249 0.0
C783 C 0.17901 0.47007 0.89811 0.0
C784 C 0.22623 0.53273 0.91329 0.0
C785 C 0.15603 0.45687 0.88843 0.0
C786 C 0.33288 0.59819 0.92471 0.0
C787 C 0.30703 0.58236 0.92134 0.0
C788 C 0.26091 0.51653 0.91325 0.0
C789 C 0.19496 0.49554 0.8952 0.0
C790 C 0.21936 0.50983 0.90526 0.0
C791 C 0.29502 0.55724 0.92615 0.0
C792 C 0.26825 0.53999 0.92052 0.0
H793 H 0.16048 0.50403 0.86222 0.0
H794 H 0.20006 0.52698 0.87939 0.0
H795 H 0.23186 0.48402 0.89956 0.0
H796 H 0.34589 0.55701 0.94483 0.0
H797 H 0.30056 0.52944 0.9393 0.0
C798 C 0.55086 0.12349 0.04918 0.0
C799 C 0.5361 0.12212 0.03374 0.0
C800 C 0.57029 0.14628 0.05566 0.0
C801 C 0.59712 0.21371 0.05402 0.0
H802 H 0.66094 0.21595 0.0608 0.0
C803 C 0.69504 0.30472 0.05831 0.0
C804 C 0.71396 0.30469 0.0693 0.0
C805 C 0.67134 0.28311 0.05621 0.0
C806 C 0.64323 0.21565 0.05936 0.0
H807 H 0.52942 0.14368 0.01351 0.0
H808 H 0.56343 0.18361 0.02491 0.0
H809 H 0.62295 0.17707 0.05331 0.0
H810 H 0.72234 0.28274 0.08787 0.0
H811 H 0.6809 0.24547 0.08481 0.0
H812 H 0.61761 0.25249 0.05999 0.0
C813 C 0.55982 0.167 0.03204 0.0
C814 C 0.62142 0.19331 0.05501 0.0
C815 C 0.54035 0.14414 0.02552 0.0
C816 C 0.70825 0.2832 0.07908 0.0
C817 C 0.68453 0.26178 0.07721 0.0
C818 C 0.61901 0.23615 0.05853 0.0
C819 C 0.5754 0.16824 0.04687 0.0
C820 C 0.59814 0.19206 0.05224 0.0
C821 C 0.66608 0.26119 0.06525 0.0
C822 C 0.64236 0.23738 0.06122 0.0
H823 H 0.5477 0.10688 0.05606 0.0
H824 H 0.58168 0.14668 0.06735 0.0
H825 H 0.57939 0.21325 0.05204 0.0
H826 H 0.69896 0.32104 0.05058 0.0
H827 H 0.65766 0.28332 0.04682 0.0
C828 C 0.62726 0.74857 0.19027 0.0
C829 C 0.61584 0.72282 0.18867 0.0
C830 C 0.61445 0.75892 0.19897 0.0
C831 C 0.55911 0.74352 0.2299 0.0
H832 H 0.56669 0.80344 0.20879 0.0
C833 C 0.49251 0.78131 0.24658 0.0
C834 C 0.50436 0.80683 0.24982 0.0
C835 C 0.50677 0.77091 0.2407 0.0
C836 C 0.56458 0.78683 0.21494 0.0
H837 H 0.5821 0.68782 0.19553 0.0
H838 H 0.55937 0.70582 0.20982 0.0
H839 H 0.59021 0.78567 0.19528 0.0
H840 H 0.54055 0.84134 0.24987 0.0
H841 H 0.56528 0.8232 0.23943 0.0
H842 H 0.53273 0.74443 0.24918 0.0
C843 C 0.57845 0.71807 0.2047 0.0
C844 C 0.57815 0.77667 0.20726 0.0
C845 C 0.59137 0.70772 0.19619 0.0
C846 C 0.53082 0.82162 0.2475 0.0
C847 C 0.54499 0.81128 0.24141 0.0
C848 C 0.54528 0.75355 0.23743 0.0
C849 C 0.58976 0.74382 0.20613 0.0
C850 C 0.57562 0.75487 0.21462 0.0
C851 C 0.53307 0.78589 0.23773 0.0
C852 C 0.54792 0.77531 0.23003 0.0
H853 H 0.64597 0.76083 0.18451 0.0
H854 H 0.62398 0.77881 0.20007 0.0
H855 H 0.55698 0.72697 0.23616 0.0
H856 H 0.47216 0.76943 0.24826 0.0
H857 H 0.49709 0.75129 0.23787 0.0
C858 C 0.90038 0.47075 0.35939 0.0
C859 C 0.91692 0.49322 0.35036 0.0
C860 C 0.87599 0.46497 0.36487 0.0
C861 C 0.82825 0.48382 0.35658 0.0
H862 H 0.7997 0.45076 0.40375 0.0
C863 C 0.75016 0.48915 0.39667 0.0
C864 C 0.72657 0.46695 0.39643 0.0
C865 C 0.77236 0.48947 0.39182 0.0
C866 C 0.80743 0.45977 0.39048 0.0
H867 H 0.92031 0.52697 0.33975 0.0
H868 H 0.8787 0.51758 0.35009 0.0
H869 H 0.84077 0.45722 0.39325 0.0
H870 H 0.70798 0.42746 0.39186 0.0
H871 H 0.74731 0.42806 0.38381 0.0
H872 H 0.79549 0.48745 0.3544 0.0
C873 C 0.8842 0.50406 0.3526 0.0
C874 C 0.83085 0.46341 0.38439 0.0
C875 C 0.90839 0.50969 0.34695 0.0
C876 C 0.72587 0.44484 0.39217 0.0
C877 C 0.74827 0.44514 0.38759 0.0
C878 C 0.80514 0.48053 0.36282 0.0
C879 C 0.86758 0.48159 0.36155 0.0
C880 C 0.84178 0.47587 0.36749 0.0
C881 C 0.77153 0.46756 0.38697 0.0
C882 C 0.79473 0.46877 0.37988 0.0
H883 H 0.90635 0.45769 0.36242 0.0
H884 H 0.86367 0.44739 0.37156 0.0
H885 H 0.83563 0.49286 0.34327 0.0
H886 H 0.75141 0.50652 0.39984 0.0
H887 H 0.79017 0.50694 0.39143 0.0
C888 C 0.0773 0.54139 0.41741 0.0
C889 C 0.06097 0.5498 0.41218 0.0
C890 C 0.09185 0.5502 0.43362 0.0
C891 C 0.11962 0.60401 0.46495 0.0
H892 H 0.13473 0.56274 0.49577 0.0
C893 C 0.17958 0.63859 0.53263 0.0
C894 C 0.19732 0.63112 0.5355 0.0
C895 C 0.16228 0.62883 0.51788 0.0
C896 C 0.13085 0.57453 0.48719 0.0
H897 H 0.04634 0.57329 0.42018 0.0
H898 H 0.07153 0.58845 0.44877 0.0
H899 H 0.10407 0.5442 0.47045 0.0
H900 H 0.2112 0.608 0.52478 0.0
H901 H 0.18111 0.59112 0.499 0.0
H902 H 0.14649 0.63435 0.48171 0.0
C903 C 0.07336 0.57534 0.44014 0.0
C904 C 0.11326 0.56391 0.47271 0.0
C905 C 0.05885 0.56657 0.42385 0.0
C906 C 0.19777 0.61413 0.52301 0.0
C907 C 0.1804 0.60429 0.50832 0.0
C908 C 0.13715 0.61461 0.47949 0.0
C909 C 0.09039 0.5676 0.44501 0.0
C910 C 0.10764 0.57856 0.46128 0.0
C911 C 0.16227 0.61131 0.50574 0.0
C912 C 0.14315 0.60002 0.49063 0.0
H913 H 0.07981 0.52892 0.40847 0.0
H914 H 0.10507 0.54416 0.43676 0.0
H915 H 0.11604 0.61589 0.45623 0.0
H916 H 0.17869 0.65164 0.54199 0.0
H917 H 0.14844 0.63449 0.5163 0.0
C918 C 0.48293 0.09255 0.57982 0.0
C919 C 0.4562 0.07973 0.57955 0.0
C920 C 0.49635 0.10627 0.59537 0.0
C921 C 0.48993 0.11796 0.64548 0.0
H922 H 0.55354 0.17853 0.63533 0.0
C923 C 0.5478 0.19526 0.69998 0.0
C924 C 0.57371 0.20294 0.70111 0.0
C925 C 0.53264 0.17919 0.68583 0.0
C926 C 0.53589 0.16159 0.63835 0.0
H927 H 0.42275 0.07115 0.59586 0.0
H928 H 0.44632 0.09628 0.62271 0.0
H929 H 0.52811 0.15274 0.60946 0.0
H930 H 0.60406 0.1998 0.68835 0.0
H931 H 0.57763 0.17221 0.66329 0.0
H932 H 0.49762 0.12766 0.6745 0.0
C933 C 0.45683 0.09511 0.61097 0.0
C934 C 0.52134 0.14668 0.62356 0.0
C935 C 0.44329 0.08092 0.59545 0.0
C936 C 0.58416 0.1942 0.68784 0.0
C937 C 0.5691 0.1785 0.67349 0.0
C938 C 0.50434 0.13316 0.6603 0.0
C939 C 0.48357 0.10822 0.611 0.0
C940 C 0.49834 0.12447 0.62691 0.0
C941 C 0.54324 0.17089 0.67238 0.0
C942 C 0.52758 0.15494 0.65683 0.0
H943 H 0.49374 0.09271 0.56779 0.0
H944 H 0.51688 0.1156 0.595 0.0
H945 H 0.47248 0.10091 0.64863 0.0
H946 H 0.53917 0.20157 0.71008 0.0
H947 H 0.51277 0.17367 0.68516 0.0
C948 C 0.48839 0.60747 0.73387 0.0
C949 C 0.50751 0.60165 0.73238 0.0
C950 C 0.48048 0.61067 0.75145 0.0
C951 C 0.50012 0.62088 0.80154 0.0
H952 H 0.42989 0.60211 0.80955 0.0
C953 C 0.45689 0.61799 0.87438 0.0
C954 C 0.44577 0.63263 0.87552 0.0
C955 C 0.46377 0.61295 0.85701 0.0
C956 C 0.44954 0.60739 0.80745 0.0
H957 H 0.53278 0.59369 0.74778 0.0
H958 H 0.51836 0.5982 0.77845 0.0
H959 H 0.4432 0.59561 0.77895 0.0
H960 H 0.4324 0.65283 0.85945 0.0
H961 H 0.44382 0.64342 0.82912 0.0
H962 H 0.50609 0.63198 0.83031 0.0
C963 C 0.51009 0.60136 0.76621 0.0
C964 C 0.45727 0.6039 0.7899 0.0
C965 C 0.51831 0.59866 0.74866 0.0
C966 C 0.44108 0.64161 0.859 0.0
C967 C 0.44746 0.63613 0.84165 0.0
C968 C 0.49225 0.62391 0.81917 0.0
C969 C 0.49117 0.60756 0.76788 0.0
C970 C 0.48273 0.6108 0.78666 0.0
C971 C 0.45909 0.62199 0.84054 0.0
C972 C 0.46698 0.6174 0.8222 0.0
H973 H 0.47983 0.60982 0.72143 0.0
H974 H 0.46618 0.61584 0.75213 0.0
H975 H 0.51997 0.6269 0.79955 0.0
H976 H 0.46075 0.61088 0.8869 0.0
H977 H 0.47268 0.60194 0.85642 0.0
C978 C 0.91913 0.35261 0.89628 0.0
C979 C 0.92233 0.36832 0.88129 0.0
C980 C 0.90297 0.34971 0.91117 0.0
C981 C 0.88037 0.38563 0.93512 0.0
H982 H 0.83486 0.32517 0.96164 0.0
C983 C 0.82112 0.38603 0.99704 0.0
C984 C 0.8185 0.37137 0.01259 0.0
C985 C 0.83132 0.38346 0.98032 0.0
C986 C 0.84771 0.34224 0.9545 0.0
H987 H 0.90949 0.39154 0.86932 0.0
H988 H 0.88144 0.38658 0.89532 0.0
H989 H 0.85628 0.32357 0.93319 0.0
H990 H 0.82419 0.34222 0.02272 0.0
H991 H 0.84277 0.33824 0.99367 0.0
H992 H 0.87272 0.40452 0.95652 0.0
C993 C 0.89173 0.37687 0.89573 0.0
C994 C 0.85985 0.34128 0.93818 0.0
C995 C 0.90776 0.37969 0.88086 0.0
C996 C 0.82595 0.35378 0.01097 0.0
C997 C 0.83644 0.35139 0.99427 0.0
C998 C 0.86848 0.38663 0.95145 0.0
C999 C 0.88984 0.36254 0.91131 0.0
C1000 C 0.87621 0.36299 0.92831 0.0
C1001 C 0.83948 0.36638 0.97879 0.0
C1002 C 0.85191 0.36497 0.96133 0.0
H1003 H 0.93025 0.34375 0.89705 0.0
H1004 H 0.90193 0.33862 0.92305 0.0
H1005 H 0.89334 0.40274 0.92805 0.0
H1006 H 0.81526 0.39953 0.99773 0.0
H1007 H 0.83281 0.39492 0.96858 0.0
C1008 C 0.48453 0.99128 0.09553 0.0
C1009 C 0.46256 0.98679 0.08598 0.0
C1010 C 0.48258 0.9792 0.11234 0.0
C1011 C 0.43879 0.92138 0.13582 0.0
H1012 H 0.48288 0.95068 0.17867 0.0
C1013 C 0.42598 0.86553 0.20251 0.0
C1014 C 0.44799 0.86925 0.21153 0.0
C1015 C 0.42766 0.88103 0.18801 0.0
C1016 C 0.47061 0.94219 0.16672 0.0
H1017 H 0.42139 0.96691 0.08693 0.0
H1018 H 0.41801 0.94611 0.11638 0.0
H1019 H 0.4859 0.97677 0.15241 0.0
H1020 H 0.48909 0.89215 0.2123 0.0
H1021 H 0.49206 0.91888 0.18665 0.0
H1022 H 0.42387 0.88678 0.14976 0.0
C1023 C 0.43672 0.9588 0.11078 0.0
C1024 C 0.47228 0.95715 0.15175 0.0
C1025 C 0.43867 0.97095 0.09404 0.0
C1026 C 0.47175 0.8888 0.20567 0.0
C1027 C 0.47345 0.90425 0.19106 0.0
C1028 C 0.43722 0.90643 0.1507 0.0
C1029 C 0.45861 0.96228 0.11983 0.0
C1030 C 0.45636 0.94687 0.13615 0.0
C1031 C 0.4514 0.90053 0.18206 0.0
C1032 C 0.4531 0.91663 0.16633 0.0
H1033 H 0.50319 0.00354 0.08968 0.0
H1034 H 0.49978 0.98218 0.11897 0.0
H1035 H 0.42664 0.91283 0.12381 0.0
H1036 H 0.40734 0.85078 0.20678 0.0
H1037 H 0.41027 0.87788 0.18159 0.0
C1038 C 0.69074 0.62923 0.23701 0.0
C1039 C 0.67402 0.63821 0.23602 0.0
C1040 C 0.68828 0.61309 0.25122 0.0
C1041 C 0.66306 0.5912 0.298 0.0
H1042 H 0.66087 0.53123 0.28232 0.0
C1043 C 0.67086 0.52554 0.34945 0.0
C1044 C 0.65258 0.5003 0.34778 0.0
C1045 C 0.67302 0.54225 0.33583 0.0
C1046 C 0.66132 0.54783 0.28686 0.0
H1047 H 0.64229 0.63814 0.24946 0.0
H1048 H 0.63832 0.61015 0.27471 0.0
H1049 H 0.66612 0.56172 0.25894 0.0
H1050 H 0.62263 0.47273 0.33023 0.0
H1051 H 0.62684 0.50207 0.3061 0.0
H1052 H 0.65856 0.57741 0.32595 0.0
C1053 C 0.6532 0.61558 0.26437 0.0
C1054 C 0.66453 0.56534 0.27354 0.0
C1055 C 0.65544 0.63152 0.24997 0.0
C1056 C 0.63689 0.49205 0.33191 0.0
C1057 C 0.63931 0.50879 0.31812 0.0
C1058 C 0.6602 0.57384 0.31135 0.0
C1059 C 0.66923 0.60578 0.26484 0.0
C1060 C 0.66553 0.58721 0.27901 0.0
C1061 C 0.65718 0.53408 0.3201 0.0
C1062 C 0.65939 0.55205 0.30589 0.0
H1063 H 0.70498 0.63376 0.22629 0.0
H1064 H 0.70102 0.60597 0.25138 0.0
H1065 H 0.66381 0.60794 0.30255 0.0
H1066 H 0.68324 0.53256 0.36151 0.0
H1067 H 0.68717 0.56161 0.33756 0.0
C1068 C 0.38649 0.9349 0.42082 0.0
C1069 C 0.4084 0.9574 0.4255 0.0
C1070 C 0.38778 0.91904 0.40776 0.0
C1071 C 0.4329 0.90439 0.38592 0.0
H1072 H 0.38494 0.87865 0.34494 0.0
C1073 C 0.45212 0.86728 0.31814 0.0
C1074 C 0.4315 0.84798 0.30858 0.0
C1075 C 0.44806 0.87766 0.33407 0.0
C1076 C 0.39821 0.88525 0.35648 0.0
H1077 H 0.44862 0.98125 0.41954 0.0
H1078 H 0.45087 0.95348 0.39713 0.0
H1079 H 0.37957 0.90219 0.3697 0.0
H1080 H 0.39056 0.82353 0.30883 0.0
H1081 H 0.38357 0.84123 0.33685 0.0
H1082 H 0.45168 0.88766 0.37271 0.0
C1083 C 0.43282 0.94789 0.4038 0.0
C1084 C 0.39514 0.89879 0.37063 0.0
C1085 C 0.43151 0.96377 0.41668 0.0
C1086 C 0.40685 0.83856 0.31576 0.0
C1087 C 0.40282 0.84881 0.33177 0.0
C1088 C 0.43588 0.89071 0.37185 0.0
C1089 C 0.41103 0.92534 0.39925 0.0
C1090 C 0.41274 0.9089 0.38528 0.0
C1091 C 0.42331 0.86883 0.34089 0.0
C1092 C 0.41885 0.88137 0.35677 0.0
H1093 H 0.36845 0.92938 0.42745 0.0
H1094 H 0.3707 0.90171 0.4045 0.0
H1095 H 0.44654 0.91168 0.39722 0.0
H1096 H 0.47133 0.87502 0.31294 0.0
H1097 H 0.46428 0.89325 0.3406 0.0
C1098 C 0.58094 0.56073 0.55543 0.0
C1099 C 0.55529 0.55193 0.5596 0.0
C1100 C 0.58769 0.55311 0.53924 0.0
C1101 C 0.56152 0.50082 0.50677 0.0
H1102 H 0.62326 0.54288 0.47884 0.0
C1103 C 0.59174 0.46771 0.4415 0.0
C1104 C 0.6176 0.47527 0.44002 0.0
C1105 C 0.58331 0.47721 0.45555 0.0
C1106 C 0.60607 0.53088 0.48662 0.0
H1107 H 0.51668 0.52931 0.54962 0.0
H1108 H 0.52851 0.5162 0.52106 0.0
H1109 H 0.60966 0.56076 0.50318 0.0
H1110 H 0.65478 0.49822 0.45248 0.0
H1111 H 0.63997 0.51462 0.4771 0.0
H1112 H 0.55807 0.47092 0.49029 0.0
C1113 C 0.54336 0.52868 0.53052 0.0
C1114 C 0.59825 0.54112 0.50051 0.0
C1115 C 0.53659 0.53627 0.54678 0.0
C1116 C 0.63473 0.49203 0.4532 0.0
C1117 C 0.62631 0.5016 0.46721 0.0
C1118 C 0.56931 0.4906 0.49283 0.0
C1119 C 0.56894 0.53653 0.52682 0.0
C1120 C 0.57605 0.52616 0.5109 0.0
C1121 C 0.60057 0.49453 0.46838 0.0
C1122 C 0.59183 0.50547 0.48277 0.0
H1123 H 0.59575 0.57236 0.56523 0.0
H1124 H 0.60753 0.55922 0.53698 0.0
H1125 H 0.54456 0.48871 0.51473 0.0
H1126 H 0.57803 0.45483 0.43156 0.0
H1127 H 0.56338 0.47151 0.45604 0.0
C1128 C 0.09575 0.47451 0.73467 0.0
C1129 C 0.06952 0.46542 0.73551 0.0
C1130 C 0.11101 0.49273 0.72176 0.0
C1131 C 0.11054 0.51883 0.67679 0.0
H1132 H 0.17242 0.57673 0.69411 0.0
C1133 C 0.19179 0.58356 0.62762 0.0
C1134 C 0.20068 0.60894 0.62911 0.0
C1135 C 0.17519 0.56703 0.64094 0.0
C1136 C 0.15512 0.56074 0.68914 0.0
H1137 H 0.03856 0.46786 0.72346 0.0
H1138 H 0.06529 0.49938 0.70035 0.0
H1139 H 0.14403 0.54534 0.71663 0.0
H1140 H 0.19963 0.63691 0.64607 0.0
H1141 H 0.17096 0.60781 0.66979 0.0
H1142 H 0.12198 0.53387 0.64925 0.0
C1143 C 0.07396 0.49247 0.70981 0.0
C1144 C 0.13901 0.54275 0.70195 0.0
C1145 C 0.05872 0.4745 0.72297 0.0
C1146 C 0.1931 0.61748 0.64454 0.0
C1147 C 0.17675 0.60089 0.65809 0.0
C1148 C 0.12686 0.5366 0.66395 0.0
C1149 C 0.10029 0.50198 0.7093 0.0
C1150 C 0.11669 0.52155 0.69586 0.0
C1151 C 0.16737 0.57549 0.65621 0.0
C1152 C 0.14938 0.5576 0.67 0.0
H1153 H 0.10461 0.46809 0.7444 0.0
H1154 H 0.13123 0.49961 0.72154 0.0
H1155 H 0.0935 0.50261 0.67175 0.0
H1156 H 0.19716 0.57631 0.6159 0.0
H1157 H 0.16845 0.54756 0.63931 0.0
C1158 C 0.49596 0.10802 0.91238 0.0
C1159 C 0.50846 0.11169 0.92955 0.0
C1160 C 0.50745 0.12493 0.89785 0.0
C1161 C 0.53083 0.16891 0.8719 0.0
H1162 H 0.60163 0.19175 0.86159 0.0
C1163 C 0.58277 0.23191 0.80917 0.0
C1164 C 0.59746 0.22523 0.79832 0.0
C1165 C 0.5738 0.22137 0.82675 0.0
C1166 C 0.58185 0.18551 0.86428 0.0
H1167 H 0.54245 0.13641 0.94518 0.0
H1168 H 0.56256 0.16609 0.91974 0.0
H1169 H 0.58143 0.16695 0.88938 0.0
H1170 H 0.61492 0.20281 0.79769 0.0
H1171 H 0.59894 0.18416 0.8282 0.0
H1172 H 0.53089 0.1865 0.84641 0.0
C1173 C 0.54399 0.14992 0.91747 0.0
C1174 C 0.57035 0.17155 0.88032 0.0
C1175 C 0.53247 0.13297 0.93203 0.0
C1176 C 0.60365 0.20837 0.80568 0.0
C1177 C 0.59462 0.19778 0.82324 0.0
C1178 C 0.54231 0.18284 0.85588 0.0
C1179 C 0.53173 0.14591 0.90014 0.0
C1180 C 0.54459 0.16274 0.88413 0.0
C1181 C 0.57927 0.20388 0.83385 0.0
C1182 C 0.56784 0.19097 0.85172 0.0
H1183 H 0.47767 0.09157 0.90989 0.0
H1184 H 0.49768 0.12105 0.88458 0.0
H1185 H 0.51103 0.16265 0.87457 0.0
H1186 H 0.57781 0.24499 0.80399 0.0
H1187 H 0.56235 0.22674 0.8347 0.0
C1188 C 0.62208 0.72664 0.07247 0.0
C1189 C 0.6103 0.70858 0.08642 0.0
C1190 C 0.60739 0.73036 0.05945 0.0
C1191 C 0.54059 0.71287 0.04824 0.0
H1192 H 0.56187 0.71293 0.99713 0.0
C1193 C 0.47147 0.66753 0.98723 0.0
C1194 C 0.47708 0.68013 0.9701 0.0
C1195 C 0.48871 0.67705 0.00199 0.0
C1196 C 0.55588 0.71337 0.01131 0.0
H1197 H 0.57414 0.68183 0.09871 0.0
H1198 H 0.54861 0.68771 0.07588 0.0
H1199 H 0.59102 0.72005 0.02266 0.0
H1200 H 0.50504 0.71272 0.95507 0.0
H1201 H 0.53552 0.72903 0.98084 0.0
H1202 H 0.50481 0.70454 0.03679 0.0
C1203 C 0.56908 0.69923 0.07492 0.0
C1204 C 0.57261 0.71757 0.02598 0.0
C1205 C 0.58371 0.69559 0.08791 0.0
C1206 C 0.50018 0.7026 0.96811 0.0
C1207 C 0.51763 0.71193 0.98281 0.0
C1208 C 0.52378 0.70837 0.03359 0.0
C1209 C 0.58069 0.7161 0.06018 0.0
C1210 C 0.56487 0.71655 0.04466 0.0
C1211 C 0.51205 0.69918 -0.00015 0.0
C1212 C 0.53103 0.70786 0.01505 0.0
H1213 H 0.64256 0.73693 0.07101 0.0
H1214 H 0.61694 0.74378 0.04844 0.0
H1215 H 0.53421 0.71252 0.06243 0.0
H1216 H 0.45378 0.65024 0.98923 0.0
H1217 H 0.4841 0.6667 0.01491 0.0
C1218 C 0.92489 0.45298 0.24493 0.0
C1219 C 0.94257 0.47821 0.24752 0.0
C1220 C 0.91021 0.4447 0.22871 0.0
C1221 C 0.91096 0.46271 0.17975 0.0
H1222 H 0.84038 0.40999 0.18023 0.0
C1223 C 0.84861 0.43268 0.11352 0.0
C1224 C 0.83214 0.40723 0.11075 0.0
C1225 C 0.86173 0.44156 0.13034 0.0
C1226 C 0.86016 0.42456 0.17986 0.0
H1227 H 0.95832 0.51459 0.23526 0.0
H1228 H 0.9323 0.50019 0.20716 0.0
H1229 H 0.86316 0.42536 0.20969 0.0
H1230 H 0.81676 0.37113 0.12347 0.0
H1231 H 0.83988 0.38664 0.15273 0.0
H1232 H 0.90804 0.46184 0.14994 0.0
C1233 C 0.93002 0.48678 0.21757 0.0
C1234 C 0.87318 0.43338 0.19673 0.0
C1235 C 0.94468 0.49505 0.23379 0.0
C1236 C 0.82926 0.39085 0.12514 0.0
C1237 C 0.84237 0.39974 0.14197 0.0
C1238 C 0.89795 0.4539 0.16289 0.0
C1239 C 0.91292 0.46147 0.21471 0.0
C1240 C 0.89875 0.45252 0.19687 0.0
C1241 C 0.85867 0.4252 0.14479 0.0
C1242 C 0.87242 0.43468 0.16274 0.0
H1243 H 0.92268 0.43957 0.25534 0.0
H1244 H 0.89733 0.42506 0.22688 0.0
H1245 H 0.93078 0.47717 0.17935 0.0
H1246 H 0.85122 0.44583 0.10276 0.0
H1247 H 0.87394 0.4613 0.13215 0.0
loop_
_geom_bond_atom_site_label_1
_geom_bond_atom_site_label_2
_geom_bond_distance
_geom_bond_site_symmetry_2
_ccdc_geom_bond_type
H0 O26 0.856 . S
H1 O29 0.854 . S
H2 C37 0.970 . S
H3 C38 0.930 . S
H4 C40 0.930 . S
H5 C41 0.930 . S
H6 C43 0.931 . S
H7 C44 0.930 . S
H8 C46 0.930 . S
H9 C47 0.929 . S
H10 C49 0.930 . S
H11 C50 0.931 . S
H12 C52 0.930 . S
H13 C53 0.929 . S
H14 C55 0.931 . S
H15 C56 0.930 . S
H16 C58 0.930 . S
H17 C59 0.932 . S
H18 C61 0.930 . S
H19 C62 0.929 . S
H20 C64 0.931 . S
H21 C65 0.930 . S
H22 C67 0.929 . S
H23 C68 0.931 . S
H24 C70 0.930 . S
H25 C71 0.929 1_455 S
O26 H0 0.856 . S
O26 C72 1.300 . S
O27 C72 1.209 . S
O28 C73 1.199 . S
O29 H1 0.854 . S
O29 C73 1.297 . S
C30 C31 1.404 . S
C30 C35 1.397 . S
C30 C36 1.492 . S
C31 C30 1.404 . S
C31 C32 1.396 . S
C31 C42 1.492 . S
C32 C31 1.396 . S
C32 C33 1.397 . S
C32 C48 1.509 . S
C33 C32 1.397 . S
C33 C34 1.412 . S
C33 C54 1.485 . S
C34 C33 1.412 . S
C34 C35 1.388 . S
C34 C60 1.490 . S
C35 C30 1.397 . S
C35 C34 1.388 . S
C35 C66 1.519 1_455 S
C36 C30 1.492 . S
C36 C37 1.350 . S
C36 C41 1.390 1_455 S
C37 H2 0.970 . S
C37 C36 1.350 . S
C37 C38 1.347 1_455 S
C38 H3 0.930 . S
C38 C37 1.347 1_655 S
C38 C39 1.383 . S
C39 C38 1.383 . S
C39 C40 1.395 . S
C40 H4 0.930 . S
C40 C39 1.395 . S
C40 C41 1.362 . S
C41 H5 0.930 . S
C41 C36 1.390 1_655 S
C41 C40 1.362 . S
C42 C31 1.492 . S
C42 C43 1.377 . S
C42 C47 1.397 . S
C43 H6 0.931 . S
C43 C42 1.377 . S
C43 C44 1.376 . S
C44 H7 0.930 . S
C44 C43 1.376 . S
C44 C45 1.376 . S
C45 C44 1.376 . S
C45 C46 1.378 . S
C45 C72 1.486 . S
C46 H8 0.930 . S
C46 C45 1.378 . S
C46 C47 1.376 . S
C47 H9 0.929 . S
C47 C42 1.397 . S
C47 C46 1.376 . S
C48 C32 1.509 . S
C48 C49 1.391 . S
C48 C53 1.386 . S
C49 H10 0.930 . S
C49 C48 1.391 . S
C49 C50 1.375 . S
C50 H11 0.931 . S
C50 C49 1.375 . S
C50 C51 1.375 . S
C51 C50 1.375 . S
C51 C52 1.361 . S
C52 H12 0.930 . S
C52 C51 1.361 . S
C52 C53 1.399 . S
C53 H13 0.929 . S
C53 C48 1.386 . S
C53 C52 1.399 . S
C54 C33 1.485 . S
C54 C55 1.394 . S
C54 C59 1.360 . S
C55 H14 0.931 . S
C55 C54 1.394 . S
C55 C56 1.372 . S
C56 H15 0.930 . S
C56 C55 1.372 . S
C56 C57 1.397 . S
C57 C56 1.397 . S
C57 C58 1.390 . S
C57 C73 1.476 . S
C58 H16 0.930 . S
C58 C57 1.390 . S
C58 C59 1.366 . S
C59 H17 0.932 . S
C59 C54 1.360 . S
C59 C58 1.366 . S
C60 C34 1.490 . S
C60 C61 1.380 . S
C60 C65 1.386 . S
C61 H18 0.930 . S
C61 C60 1.380 . S
C61 C62 1.381 . S
C62 H19 0.929 . S
C62 C61 1.381 . S
C62 C63 1.371 . S
C63 C62 1.371 . S
C63 C64 1.380 . S
C64 H20 0.931 . S
C64 C63 1.380 . S
C64 C65 1.387 . S
C65 H21 0.930 . S
C65 C60 1.386 . S
C65 C64 1.387 . S
C66 C35 1.519 1_655 S
C66 C67 1.377 . S
C66 C71 1.361 . S
C67 H22 0.929 . S
C67 C66 1.377 . S
C67 C68 1.386 . S
C68 H23 0.931 . S
C68 C67 1.386 . S
C68 C69 1.363 . S
C69 C68 1.363 . S
C69 C70 1.385 . S
C70 H24 0.930 . S
C70 C69 1.385 . S
C70 C71 1.396 . S
C71 H25 0.929 1_655 S
C71 C66 1.361 . S
C71 C70 1.396 . S
C72 O26 1.300 . S
C72 O27 1.209 . S
C72 C45 1.486 . S
C73 O28 1.199 . S
C73 O29 1.297 . S
C73 C57 1.476 . S
H74 O100 0.856 . S
H75 O103 0.854 . S
H76 C111 0.930 . S
H77 C112 0.930 . S
H78 C114 0.930 . S
H79 C115 0.930 . S
H80 C117 0.931 . S
H81 C118 0.930 . S
H82 C120 0.930 . S
H83 C121 0.929 . S
H84 C123 0.930 . S
H85 C124 0.931 . S
H86 C126 0.930 . S
H87 C127 0.929 . S
H88 C129 0.931 . S
H89 C130 0.930 . S
H90 C132 0.930 . S
H91 C133 0.932 . S
H92 C135 0.930 . S
H93 C136 0.929 . S
H94 C138 0.931 . S
H95 C139 0.930 . S
H96 C141 0.929 . S
H97 C142 0.931 . S
H98 C144 0.930 . S
H99 C145 0.929 . S
O100 H74 0.856 . S
O100 C146 1.300 . S
O101 C146 1.209 . S
O102 C147 1.199 . S
O103 H75 0.854 . S
O103 C147 1.297 . S
C104 C105 1.404 . S
C104 C109 1.397 . S
C104 C110 1.492 . S
C105 C104 1.404 . S
C105 C106 1.396 . S
C105 C116 1.492 . S
C106 C105 1.396 . S
C106 C107 1.397 . S
C106 C122 1.509 . S
C107 C106 1.397 . S
C107 C108 1.412 . S
C107 C128 1.485 . S
C108 C107 1.412 . S
C108 C109 1.388 . S
C108 C134 1.490 . S
C109 C104 1.397 . S
C109 C108 1.388 . S
C109 C140 1.519 . S
C110 C104 1.492 . S
C110 C111 1.363 . S
C110 C115 1.390 . S
C111 H76 0.930 . S
C111 C110 1.363 . S
C111 C112 1.372 . S
C112 H77 0.930 . S
C112 C111 1.372 . S
C112 C113 1.383 1_545 S
C113 C112 1.383 1_565 S
C113 C114 1.395 . S
C114 H78 0.930 . S
C114 C113 1.395 . S
C114 C115 1.362 1_565 S
C115 H79 0.930 . S
C115 C110 1.390 . S
C115 C114 1.362 1_545 S
C116 C105 1.492 . S
C116 C117 1.377 . S
C116 C121 1.397 . S
C117 H80 0.931 . S
C117 C116 1.377 . S
C117 C118 1.376 . S
C118 H81 0.930 . S
C118 C117 1.376 . S
C118 C119 1.376 . S
C119 C118 1.376 . S
C119 C120 1.378 . S
C119 C146 1.486 . S
C120 H82 0.930 . S
C120 C119 1.378 . S
C120 C121 1.376 . S
C121 H83 0.929 . S
C121 C116 1.397 . S
C121 C120 1.376 . S
C122 C106 1.509 . S
C122 C123 1.391 . S
C122 C127 1.386 . S
C123 H84 0.930 . S
C123 C122 1.391 . S
C123 C124 1.375 . S
C124 H85 0.931 . S
C124 C123 1.375 . S
C124 C125 1.375 . S
C125 C124 1.375 . S
C125 C126 1.361 . S
C126 H86 0.930 . S
C126 C125 1.361 . S
C126 C127 1.399 . S
C127 H87 0.929 . S
C127 C122 1.386 . S
C127 C126 1.399 . S
C128 C107 1.485 . S
C128 C129 1.394 . S
C128 C133 1.360 . S
C129 H88 0.931 . S
C129 C128 1.394 . S
C129 C130 1.372 . S
C130 H89 0.930 . S
C130 C129 1.372 . S
C130 C131 1.397 . S
C131 C130 1.397 . S
C131 C132 1.390 . S
C131 C147 1.476 . S
C132 H90 0.930 . S
C132 C131 1.390 . S
C132 C133 1.366 . S
C133 H91 0.932 . S
C133 C128 1.360 . S
C133 C132 1.366 . S
C134 C108 1.490 . S
C134 C135 1.380 . S
C134 C139 1.386 . S
C135 H92 0.930 . S
C135 C134 1.380 . S
C135 C136 1.381 . S
C136 H93 0.929 . S
C136 C135 1.381 . S
C136 C137 1.371 . S
C137 C136 1.371 . S
C137 C138 1.380 . S
C138 H94 0.931 . S
C138 C137 1.380 . S
C138 C139 1.387 . S
C139 H95 0.930 . S
C139 C134 1.386 . S
C139 C138 1.387 . S
C140 C109 1.519 . S
C140 C141 1.377 . S
C140 C145 1.361 . S
C141 H96 0.929 . S
C141 C140 1.377 . S
C141 C142 1.386 1_545 S
C142 H97 0.931 . S
C142 C141 1.386 1_565 S
C142 C143 1.363 . S
C143 C142 1.363 . S
C143 C144 1.385 . S
C144 H98 0.930 . S
C144 C143 1.385 . S
C144 C145 1.396 1_565 S
C145 H99 0.929 . S
C145 C140 1.361 . S
C145 C144 1.396 1_545 S
C146 O100 1.300 . S
C146 O101 1.209 . S
C146 C119 1.486 . S
C147 O102 1.199 . S
C147 O103 1.297 . S
C147 C131 1.476 . S
H148 O174 0.856 . S
H149 O177 0.854 . S
H150 C185 0.930 . S
H151 C186 0.930 . S
H152 C188 0.930 . S
H153 C189 0.930 . S
H154 C191 0.931 . S
H155 C192 0.930 . S
H156 C194 0.930 . S
H157 C195 0.929 . S
H158 C197 0.930 . S
H159 C198 0.931 . S
H160 C200 0.930 . S
H161 C201 0.929 . S
H162 C203 0.931 . S
H163 C204 0.930 . S
H164 C206 0.930 . S
H165 C207 0.932 . S
H166 C209 0.930 . S
H167 C210 0.929 . S
H168 C212 0.931 . S
H169 C213 0.930 . S
H170 C215 0.929 . S
H171 C216 0.931 . S
H172 C218 0.930 . S
H173 C219 0.929 . S
O174 H148 0.856 . S
O174 C220 1.300 . S
O175 C220 1.209 . S
O176 C221 1.199 . S
O177 H149 0.854 . S
O177 C221 1.297 . S
C178 C179 1.404 . S
C178 C183 1.397 . S
C178 C184 1.492 . S
C179 C178 1.404 . S
C179 C180 1.396 . S
C179 C190 1.492 . S
C180 C179 1.396 . S
C180 C181 1.397 . S
C180 C196 1.509 . S
C181 C180 1.397 . S
C181 C182 1.412 . S
C181 C202 1.485 . S
C182 C181 1.412 . S
C182 C183 1.388 . S
C182 C208 1.490 . S
C183 C178 1.397 . S
C183 C182 1.388 . S
C183 C214 1.519 . S
C184 C178 1.492 . S
C184 C185 1.363 . S
C184 C189 1.390 . S
C185 H150 0.930 . S
C185 C184 1.363 . S
C185 C186 1.372 . S
C186 H151 0.930 . S
C186 C185 1.372 . S
C186 C187 1.383 . S
C187 C186 1.383 . S
C187 C188 1.395 . S
C188 H152 0.930 . S
C188 C187 1.395 . S
C188 C189 1.362 . S
C189 H153 0.930 . S
C189 C184 1.390 . S
C189 C188 1.362 . S
C190 C179 1.492 . S
C190 C191 1.377 . S
C190 C195 1.397 . S
C191 H154 0.931 . S
C191 C190 1.377 . S
C191 C192 1.376 . S
C192 H155 0.930 . S
C192 C191 1.376 . S
C192 C193 1.376 . S
C193 C192 1.376 . S
C193 C194 1.378 . S
C193 C220 1.486 . S
C194 H156 0.930 . S
C194 C193 1.378 . S
C194 C195 1.376 . S
C195 H157 0.929 . S
C195 C190 1.397 . S
C195 C194 1.376 . S
C196 C180 1.509 . S
C196 C197 1.391 . S
C196 C201 1.386 . S
C197 H158 0.930 . S
C197 C196 1.391 . S
C197 C198 1.375 . S
C198 H159 0.931 . S
C198 C197 1.375 . S
C198 C199 1.375 . S
C199 C198 1.375 . S
C199 C200 1.361 . S
C200 H160 0.930 . S
C200 C199 1.361 . S
C200 C201 1.399 . S
C201 H161 0.929 . S
C201 C196 1.386 . S
C201 C200 1.399 . S
C202 C181 1.485 . S
C202 C203 1.394 . S
C202 C207 1.360 . S
C203 H162 0.931 . S
C203 C202 1.394 . S
C203 C204 1.372 . S
C204 H163 0.930 . S
C204 C203 1.372 . S
C204 C205 1.397 . S
C205 C204 1.397 . S
C205 C206 1.390 . S
C205 C221 1.476 . S
C206 H164 0.930 . S
C206 C205 1.390 . S
C206 C207 1.366 . S
C207 H165 0.932 . S
C207 C202 1.360 . S
C207 C206 1.366 . S
C208 C182 1.490 . S
C208 C209 1.380 . S
C208 C213 1.386 . S
C209 H166 0.930 . S
C209 C208 1.380 . S
C209 C210 1.381 . S
C210 H167 0.929 . S
C210 C209 1.381 . S
C210 C211 1.371 . S
C211 C210 1.371 . S
C211 C212 1.380 . S
C212 H168 0.931 . S
C212 C211 1.380 . S
C212 C213 1.387 . S
C213 H169 0.930 . S
C213 C208 1.386 . S
C213 C212 1.387 . S
C214 C183 1.519 . S
C214 C215 1.377 . S
C214 C219 1.361 . S
C215 H170 0.929 . S
C215 C214 1.377 . S
C215 C216 1.386 . S
C216 H171 0.931 . S
C216 C215 1.386 . S
C216 C217 1.363 . S
C217 C216 1.363 . S
C217 C218 1.385 . S
C218 H172 0.930 . S
C218 C217 1.385 . S
C218 C219 1.396 . S
C219 H173 0.929 . S
C219 C214 1.361 . S
C219 C218 1.396 . S
C220 O174 1.300 . S
C220 O175 1.209 . S
C220 C193 1.486 . S
C221 O176 1.199 . S
C221 O177 1.297 . S
C221 C205 1.476 . S
H222 O248 0.856 . S
H223 O251 0.854 . S
H224 C259 0.930 1_455 S
H225 C260 0.930 . S
H226 C262 0.930 . S
H227 C263 0.930 . S
H228 C265 0.931 . S
H229 C266 0.930 . S
H230 C268 0.930 . S
H231 C269 0.929 . S
H232 C271 0.930 . S
H233 C272 0.931 . S
H234 C274 0.930 . S
H235 C275 0.929 . S
H236 C277 0.931 . S
H237 C278 0.930 . S
H238 C280 0.930 . S
H239 C281 0.932 . S
H240 C283 0.930 . S
H241 C284 0.929 . S
H242 C286 0.931 . S
H243 C287 0.930 . S
H244 C289 0.929 . S
H245 C290 0.931 . S
H246 C292 0.930 . S
H247 C293 0.929 . S
O248 H222 0.856 . S
O248 C294 1.300 . S
O249 C294 1.209 . S
O250 C295 1.199 . S
O251 H223 0.854 . S
O251 C295 1.297 . S
C252 C253 1.404 . S
C252 C257 1.397 . S
C252 C258 1.495 1_455 S
C253 C252 1.404 . S
C253 C254 1.396 . S
C253 C264 1.492 . S
C254 C253 1.396 . S
C254 C255 1.397 . S
C254 C270 1.509 . S
C255 C254 1.397 . S
C255 C256 1.412 . S
C255 C276 1.485 . S
C256 C255 1.412 . S
C256 C257 1.388 . S
C256 C282 1.490 . S
C257 C252 1.397 . S
C257 C256 1.388 . S
C257 C288 1.519 1_455 S
C258 C252 1.495 1_655 S
C258 C259 1.361 . S
C258 C263 1.389 . S
C259 H224 0.930 1_655 S
C259 C258 1.361 . S
C259 C260 1.372 . S
C260 H225 0.930 . S
C260 C259 1.372 . S
C260 C261 1.383 . S
C261 C260 1.383 . S
C261 C262 1.395 . S
C262 H226 0.930 . S
C262 C261 1.395 . S
C262 C263 1.362 . S
C263 H227 0.930 . S
C263 C258 1.389 . S
C263 C262 1.362 . S
C264 C253 1.492 . S
C264 C265 1.377 . S
C264 C269 1.397 . S
C265 H228 0.931 . S
C265 C264 1.377 . S
C265 C266 1.376 . S
C266 H229 0.930 . S
C266 C265 1.376 . S
C266 C267 1.376 . S
C267 C266 1.376 . S
C267 C268 1.378 . S
C267 C294 1.486 . S
C268 H230 0.930 . S
C268 C267 1.378 . S
C268 C269 1.376 . S
C269 H231 0.929 . S
C269 C264 1.397 . S
C269 C268 1.376 . S
C270 C254 1.509 . S
C270 C271 1.391 . S
C270 C275 1.386 . S
C271 H232 0.930 . S
C271 C270 1.391 . S
C271 C272 1.375 . S
C272 H233 0.931 . S
C272 C271 1.375 . S
C272 C273 1.375 . S
C273 C272 1.375 . S
C273 C274 1.361 . S
C274 H234 0.930 . S
C274 C273 1.361 . S
C274 C275 1.399 . S
C275 H235 0.929 . S
C275 C270 1.386 . S
C275 C274 1.399 . S
C276 C255 1.485 . S
C276 C277 1.394 . S
C276 C281 1.360 . S
C277 H236 0.931 . S
C277 C276 1.394 . S
C277 C278 1.372 . S
C278 H237 0.930 . S
C278 C277 1.372 . S
C278 C279 1.397 . S
C279 C278 1.397 . S
C279 C280 1.390 . S
C279 C295 1.476 . S
C280 H238 0.930 . S
C280 C279 1.390 . S
C280 C281 1.366 . S
C281 H239 0.932 . S
C281 C276 1.360 . S
C281 C280 1.366 . S
C282 C256 1.490 . S
C282 C283 1.380 . S
C282 C287 1.386 . S
C283 H240 0.930 . S
C283 C282 1.380 . S
C283 C284 1.381 . S
C284 H241 0.929 . S
C284 C283 1.381 . S
C284 C285 1.371 . S
C285 C284 1.371 . S
C285 C286 1.380 . S
C286 H242 0.931 . S
C286 C285 1.380 . S
C286 C287 1.387 . S
C287 H243 0.930 . S
C287 C282 1.386 . S
C287 C286 1.387 . S
C288 C257 1.519 1_655 S
C288 C289 1.377 . S
C288 C293 1.361 . S
C289 H244 0.929 . S
C289 C288 1.377 . S
C289 C290 1.386 . S
C290 H245 0.931 . S
C290 C289 1.386 . S
C290 C291 1.363 . S
C291 C290 1.363 . S
C291 C292 1.385 . S
C292 H246 0.930 . S
C292 C291 1.385 . S
C292 C293 1.396 . S
C293 H247 0.929 . S
C293 C288 1.361 . S
C293 C292 1.396 . S
C294 O248 1.300 . S
C294 O249 1.209 . S
C294 C267 1.486 . S
C295 O250 1.199 . S
C295 O251 1.297 . S
C295 C279 1.476 . S
H296 O322 0.856 . S
H297 O325 0.854 . S
H298 C333 0.930 . S
H299 C334 0.930 . S
H300 C336 0.930 . S
H301 C337 0.930 . S
H302 C339 0.931 . S
H303 C340 0.930 . S
H304 C342 0.930 1_545 S
H305 C343 0.932 . S
H306 C345 0.930 . S
H307 C346 0.931 . S
H308 C348 0.930 . S
H309 C349 0.929 . S
H310 C351 0.931 . S
H311 C352 0.930 . S
H312 C354 0.930 . S
H313 C355 0.932 . S
H314 C357 0.930 . S
H315 C358 0.929 . S
H316 C360 0.931 1_565 S
H317 C361 0.930 . S
H318 C363 0.929 1_556 S
H319 C364 0.931 . S
H320 C366 0.930 . S
H321 C367 0.929 . S
O322 H296 0.856 . S
O322 C368 1.300 . S
O323 C368 1.209 . S
O324 C369 1.199 . S
O325 H297 0.854 . S
O325 C369 1.297 . S
C326 C327 1.404 1_545 S
C326 C331 1.397 . S
C326 C332 1.492 . S
C327 C326 1.404 1_565 S
C327 C328 1.396 . S
C327 C338 1.492 . S
C328 C327 1.396 . S
C328 C329 1.417 . S
C328 C344 1.509 . S
C329 C328 1.417 . S
C329 C330 1.444 1_556 S
C329 C350 1.473 1_556 S
C330 C329 1.444 1_554 S
C330 C331 1.356 1_564 S
C330 C356 1.484 1_565 S
C331 C326 1.397 . S
C331 C330 1.356 1_546 S
C331 C362 1.519 1_556 S
C332 C326 1.492 . S
C332 C333 1.363 . S
C332 C337 1.390 . S
C333 H298 0.930 . S
C333 C332 1.363 . S
C333 C334 1.372 . S
C334 H299 0.930 . S
C334 C333 1.372 . S
C334 C335 1.383 . S
C335 C334 1.383 . S
C335 C336 1.395 . S
C336 H300 0.930 . S
C336 C335 1.395 . S
C336 C337 1.362 . S
C337 H301 0.930 . S
C337 C332 1.390 . S
C337 C336 1.362 . S
C338 C327 1.492 . S
C338 C339 1.377 . S
C338 C343 1.398 1_565 S
C339 H302 0.931 . S
C339 C338 1.377 . S
C339 C340 1.376 . S
C340 H303 0.930 . S
C340 C339 1.376 . S
C340 C341 1.376 . S
C341 C340 1.376 . S
C341 C342 1.378 . S
C341 C368 1.486 . S
C342 H304 0.930 1_565 S
C342 C341 1.378 . S
C342 C343 1.374 1_565 S
C343 H305 0.932 . S
C343 C338 1.398 1_545 S
C343 C342 1.374 1_545 S
C344 C328 1.509 . S
C344 C345 1.391 . S
C344 C349 1.386 . S
C345 H306 0.930 . S
C345 C344 1.391 . S
C345 C346 1.375 . S
C346 H307 0.931 . S
C346 C345 1.375 . S
C346 C347 1.375 . S
C347 C346 1.375 . S
C347 C348 1.361 . S
C348 H308 0.930 . S
C348 C347 1.361 . S
C348 C349 1.399 . S
C349 H309 0.929 . S
C349 C344 1.386 . S
C349 C348 1.399 . S
C350 C329 1.473 1_554 S
C350 C351 1.394 . S
C350 C355 1.360 . S
C351 H310 0.931 . S
C351 C350 1.394 . S
C351 C352 1.372 . S
C352 H311 0.930 . S
C352 C351 1.372 . S
C352 C353 1.397 . S
C353 C352 1.397 . S
C353 C354 1.390 . S
C353 C369 1.476 . S
C354 H312 0.930 . S
C354 C353 1.390 . S
C354 C355 1.366 . S
C355 H313 0.932 . S
C355 C350 1.360 . S
C355 C354 1.366 . S
C356 C330 1.484 1_545 S
C356 C357 1.380 . S
C356 C361 1.386 1_545 S
C357 H314 0.930 . S
C357 C356 1.380 . S
C357 C358 1.381 . S
C358 H315 0.929 . S
C358 C357 1.381 . S
C358 C359 1.371 . S
C359 C358 1.371 . S
C359 C360 1.380 . S
C360 H316 0.931 1_545 S
C360 C359 1.380 . S
C360 C361 1.387 1_545 S
C361 H317 0.930 . S
C361 C356 1.386 1_565 S
C361 C360 1.387 1_565 S
C362 C331 1.519 1_554 S
C362 C363 1.377 . S
C362 C367 1.361 . S
C363 H318 0.929 1_554 S
C363 C362 1.377 . S
C363 C364 1.386 . S
C364 H319 0.931 . S
C364 C363 1.386 . S
C364 C365 1.363 . S
C365 C364 1.363 . S
C365 C366 1.385 . S
C366 H320 0.930 . S
C366 C365 1.385 . S
C366 C367 1.396 . S
C367 H321 0.929 . S
C367 C362 1.361 . S
C367 C366 1.396 . S
C368 O322 1.300 . S
C368 O323 1.209 . S
C368 C341 1.486 . S
C369 O324 1.199 . S
C369 O325 1.297 . S
C369 C353 1.476 . S
H370 O396 0.856 . S
H371 O399 0.854 . S
H372 C407 0.930 . S
H373 C408 0.930 . S
H374 C410 0.930 . S
H375 C411 0.930 . S
H376 C413 0.931 . S
H377 C414 0.930 . S
H378 C416 0.930 . S
H379 C417 0.929 . S
H380 C419 0.930 . S
H381 C420 0.931 . S
H382 C422 0.930 . S
H383 C423 0.929 . S
H384 C425 0.931 . S
H385 C426 0.930 . S
H386 C428 0.930 . S
H387 C429 0.932 . S
H388 C431 0.930 . S
H389 C432 0.929 . S
H390 C434 0.931 . S
H391 C435 0.930 . S
H392 C437 0.929 . S
H393 C438 0.931 . S
H394 C440 0.930 . S
H395 C441 0.929 . S
O396 H370 0.856 . S
O396 C442 1.300 . S
O397 C442 1.209 . S
O398 C443 1.199 . S
O399 H371 0.854 . S
O399 C443 1.297 . S
C400 C401 1.404 . S
C400 C405 1.397 . S
C400 C406 1.492 . S
C401 C400 1.404 . S
C401 C402 1.396 . S
C401 C412 1.492 . S
C402 C401 1.396 . S
C402 C403 1.397 . S
C402 C418 1.509 . S
C403 C402 1.397 . S
C403 C404 1.412 . S
C403 C424 1.485 . S
C404 C403 1.412 . S
C404 C405 1.388 . S
C404 C430 1.490 . S
C405 C400 1.397 . S
C405 C404 1.388 . S
C405 C436 1.519 . S
C406 C400 1.492 . S
C406 C407 1.363 . S
C406 C411 1.390 . S
C407 H372 0.930 . S
C407 C406 1.363 . S
C407 C408 1.372 . S
C408 H373 0.930 . S
C408 C407 1.372 . S
C408 C409 1.383 . S
C409 C408 1.383 . S
C409 C410 1.395 . S
C410 H374 0.930 . S
C410 C409 1.395 . S
C410 C411 1.362 . S
C411 H375 0.930 . S
C411 C406 1.390 . S
C411 C410 1.362 . S
C412 C401 1.492 . S
C412 C413 1.377 . S
C412 C417 1.397 . S
C413 H376 0.931 . S
C413 C412 1.377 . S
C413 C414 1.376 . S
C414 H377 0.930 . S
C414 C413 1.376 . S
C414 C415 1.376 . S
C415 C414 1.376 . S
C415 C416 1.378 . S
C415 C442 1.486 . S
C416 H378 0.930 . S
C416 C415 1.378 . S
C416 C417 1.376 . S
C417 H379 0.929 . S
C417 C412 1.397 . S
C417 C416 1.376 . S
C418 C402 1.509 . S
C418 C419 1.391 . S
C418 C423 1.386 . S
C419 H380 0.930 . S
C419 C418 1.391 . S
C419 C420 1.375 . S
C420 H381 0.931 . S
C420 C419 1.375 . S
C420 C421 1.375 . S
C421 C420 1.375 . S
C421 C422 1.361 . S
C422 H382 0.930 . S
C422 C421 1.361 . S
C422 C423 1.399 . S
C423 H383 0.929 . S
C423 C418 1.386 . S
C423 C422 1.399 . S
C424 C403 1.485 . S
C424 C425 1.394 . S
C424 C429 1.360 . S
C425 H384 0.931 . S
C425 C424 1.394 . S
C425 C426 1.372 . S
C426 H385 0.930 . S
C426 C425 1.372 . S
C426 C427 1.397 . S
C427 C426 1.397 . S
C427 C428 1.390 . S
C427 C443 1.476 . S
C428 H386 0.930 . S
C428 C427 1.390 . S
C428 C429 1.366 . S
C429 H387 0.932 . S
C429 C424 1.360 . S
C429 C428 1.366 . S
C430 C404 1.490 . S
C430 C431 1.380 . S
C430 C435 1.386 . S
C431 H388 0.930 . S
C431 C430 1.380 . S
C431 C432 1.381 . S
C432 H389 0.929 . S
C432 C431 1.381 . S
C432 C433 1.371 . S
C433 C432 1.371 . S
C433 C434 1.380 . S
C434 H390 0.931 . S
C434 C433 1.380 . S
C434 C435 1.387 . S
C435 H391 0.930 . S
C435 C430 1.386 . S
C435 C434 1.387 . S
C436 C405 1.519 . S
C436 C437 1.377 . S
C436 C441 1.361 . S
C437 H392 0.929 . S
C437 C436 1.377 . S
C437 C438 1.386 . S
C438 H393 0.931 . S
C438 C437 1.386 . S
C438 C439 1.363 . S
C439 C438 1.363 . S
C439 C440 1.385 . S
C440 H394 0.930 . S
C440 C439 1.385 . S
C440 C441 1.396 . S
C441 H395 0.929 . S
C441 C436 1.361 . S
C441 C440 1.396 . S
C442 O396 1.300 . S
C442 O397 1.209 . S
C442 C415 1.486 . S
C443 O398 1.199 . S
C443 O399 1.297 . S
C443 C427 1.476 . S
O444 Cd445 2.223 . S
O444 C452 1.315 . S
Cd445 O444 2.223 . S
Cd445 O448 2.297 . S
Cd445 O449 2.439 . S
Cd445 O455 2.240 . S
Cd446 O447 2.240 . S
Cd446 O454 2.223 . S
Cd446 O456 2.297 . S
Cd446 O457 2.439 . S
O447 Cd446 2.240 . S
O447 C452 1.279 . S
O448 Cd445 2.297 . S
O448 C450 1.247 . S
O449 Cd445 2.439 . S
O449 C450 1.208 . S
C450 O448 1.247 . S
C450 O449 1.208 . S
C451 O456 1.247 . S
C451 O457 1.208 . S
C452 O444 1.315 . S
C452 O447 1.279 . S
C453 O454 1.315 . S
C453 O455 1.279 . S
O454 Cd446 2.223 . S
O454 C453 1.315 . S
O455 Cd445 2.240 . S
O455 C453 1.279 . S
O456 Cd446 2.297 . S
O456 C451 1.247 . S
O457 Cd446 2.439 . S
O457 C451 1.208 . S
O458 Cd459 2.223 . S
O458 C466 1.315 . S
Cd459 O458 2.223 . S
Cd459 O462 2.297 . S
Cd459 O463 2.439 . S
Cd459 O469 2.240 . S
Cd460 O461 2.240 . S
Cd460 O468 2.223 . S
Cd460 O470 2.297 . S
Cd460 O471 2.439 . S
O461 Cd460 2.240 . S
O461 C466 1.279 . S
O462 Cd459 2.297 . S
O462 C464 1.247 . S
O463 Cd459 2.439 . S
O463 C464 1.208 . S
C464 O462 1.247 . S
C464 O463 1.208 . S
C465 O470 1.247 . S
C465 O471 1.208 . S
C466 O458 1.315 . S
C466 O461 1.279 . S
C467 O468 1.315 . S
C467 O469 1.279 . S
O468 Cd460 2.223 . S
O468 C467 1.315 . S
O469 Cd459 2.240 . S
O469 C467 1.279 . S
O470 Cd460 2.297 . S
O470 C465 1.247 . S
O471 Cd460 2.439 . S
O471 C465 1.208 . S
O472 Cd473 2.223 . S
O472 C480 1.315 . S
Cd473 O472 2.223 . S
Cd473 O476 2.297 . S
Cd473 O477 2.439 . S
Cd473 O483 2.240 . S
Cd474 O475 2.240 . S
Cd474 O482 2.223 . S
Cd474 O484 2.297 . S
Cd474 O485 2.439 . S
O475 Cd474 2.240 . S
O475 C480 1.279 . S
O476 Cd473 2.297 . S
O476 C478 1.247 . S
O477 Cd473 2.439 . S
O477 C478 1.208 . S
C478 O476 1.247 . S
C478 O477 1.208 . S
C479 O484 1.247 . S
C479 O485 1.208 . S
C480 O472 1.315 . S
C480 O475 1.279 . S
C481 O482 1.315 . S
C481 O483 1.279 . S
O482 Cd474 2.223 . S
O482 C481 1.315 . S
O483 Cd473 2.240 . S
O483 C481 1.279 . S
O484 Cd474 2.297 . S
O484 C479 1.247 . S
O485 Cd474 2.439 . S
O485 C479 1.208 . S
O486 Cd487 2.223 . S
O486 C494 1.315 . S
Cd487 O486 2.223 . S
Cd487 O490 2.297 . S
Cd487 O491 2.439 . S
Cd487 O497 2.240 . S
Cd488 O489 2.240 . S
Cd488 O496 2.223 . S
Cd488 O498 2.297 . S
Cd488 O499 2.439 . S
O489 Cd488 2.240 . S
O489 C494 1.279 . S
O490 Cd487 2.297 . S
O490 C492 1.247 . S
O491 Cd487 2.439 . S
O491 C492 1.208 . S
C492 O490 1.247 . S
C492 O491 1.208 . S
C493 O498 1.247 . S
C493 O499 1.208 . S
C494 O486 1.315 . S
C494 O489 1.279 . S
C495 O496 1.315 . S
C495 O497 1.279 . S
O496 Cd488 2.223 . S
O496 C495 1.315 . S
O497 Cd487 2.240 . S
O497 C495 1.279 . S
O498 Cd488 2.297 . S
O498 C493 1.247 . S
O499 Cd488 2.439 . S
O499 C493 1.208 . S
O500 Cd501 2.223 . S
O500 C508 1.315 . S
Cd501 O500 2.223 . S
Cd501 O504 2.297 . S
Cd501 O505 2.439 . S
Cd501 O511 2.240 . S
Cd502 O503 2.240 . S
Cd502 O510 2.223 . S
Cd502 O512 2.297 . S
Cd502 O513 2.439 . S
O503 Cd502 2.240 . S
O503 C508 1.279 . S
O504 Cd501 2.297 . S
O504 C506 1.247 . S
O505 Cd501 2.439 . S
O505 C506 1.208 . S
C506 O504 1.247 . S
C506 O505 1.208 . S
C507 O512 1.247 . S
C507 O513 1.208 . S
C508 O500 1.315 . S
C508 O503 1.279 . S
C509 O510 1.315 . S
C509 O511 1.279 . S
O510 Cd502 2.223 . S
O510 C509 1.315 . S
O511 Cd501 2.240 . S
O511 C509 1.279 . S
O512 Cd502 2.297 . S
O512 C507 1.247 . S
O513 Cd502 2.439 . S
O513 C507 1.208 . S
O514 Cd515 2.223 . S
O514 C522 1.315 . S
Cd515 O514 2.223 . S
Cd515 O518 2.297 . S
Cd515 O519 2.439 . S
Cd515 O525 2.240 . S
Cd516 O517 2.240 . S
Cd516 O524 2.223 . S
Cd516 O526 2.297 . S
Cd516 O527 2.439 . S
O517 Cd516 2.240 . S
O517 C522 1.279 . S
O518 Cd515 2.297 . S
O518 C520 1.247 . S
O519 Cd515 2.439 . S
O519 C520 1.208 . S
C520 O518 1.247 . S
C520 O519 1.208 . S
C521 O526 1.247 . S
C521 O527 1.208 . S
C522 O514 1.315 . S
C522 O517 1.279 . S
C523 O524 1.315 . S
C523 O525 1.279 . S
O524 Cd516 2.223 . S
O524 C523 1.315 . S
O525 Cd515 2.240 . S
O525 C523 1.279 . S
O526 Cd516 2.297 . S
O526 C521 1.247 . S
O527 Cd516 2.439 . S
O527 C521 1.208 . S
C528 C529 1.349 . S
C528 C530 1.327 . S
C528 H553 0.950 . S
C529 C528 1.349 . S
C529 C545 1.349 . S
C530 C528 1.327 . S
C530 C549 1.429 . S
C530 H554 0.950 . S
C531 C548 1.574 . S
C531 C550 1.368 . S
C531 H555 0.949 . S
H532 C536 0.949 . S
C533 C534 1.349 . S
C533 C535 1.327 . S
C533 H556 0.950 . S
C534 C533 1.349 . S
C534 C546 1.349 . S
C535 C533 1.327 . S
C535 C551 1.429 . S
C535 H557 0.950 . S
C536 H532 0.949 . S
C536 C544 1.574 . S
C536 C552 1.368 . S
H537 C545 0.950 . S
H538 C543 0.950 . S
H539 C544 0.949 . S
H540 C546 0.950 . S
H541 C547 0.950 . S
H542 C548 0.949 . S
C543 H538 0.950 . S
C543 C545 1.327 . S
C543 C549 1.429 . S
C544 C536 1.574 . S
C544 H539 0.949 . S
C544 C550 1.368 . S
C545 C529 1.349 . S
C545 H537 0.950 . S
C545 C543 1.327 . S
C546 C534 1.349 . S
C546 H540 0.950 . S
C546 C547 1.327 . S
C547 H541 0.950 . S
C547 C546 1.327 . S
C547 C551 1.429 . S
C548 C531 1.574 . S
C548 H542 0.949 . S
C548 C552 1.368 . S
C549 C530 1.429 . S
C549 C543 1.429 . S
C549 C550 1.523 . S
C550 C531 1.368 . S
C550 C544 1.368 . S
C550 C549 1.523 . S
C551 C535 1.429 . S
C551 C547 1.429 . S
C551 C552 1.523 . S
C552 C536 1.368 . S
C552 C548 1.368 . S
C552 C551 1.523 . S
H553 C528 0.950 . S
H554 C530 0.950 . S
H555 C531 0.949 . S
H556 C533 0.950 . S
H557 C535 0.950 . S
C558 C559 1.349 . S
C558 C560 1.327 . S
C558 H583 0.950 . S
C559 C558 1.349 . S
C559 C575 1.349 . S
C560 C558 1.327 . S
C560 C579 1.429 . S
C560 H584 0.950 . S
C561 C578 1.574 . S
C561 C580 1.368 . S
C561 H585 0.949 . S
H562 C566 0.949 . S
C563 C564 1.349 . S
C563 C565 1.327 . S
C563 H586 0.950 . S
C564 C563 1.349 . S
C564 C576 1.349 . S
C565 C563 1.327 . S
C565 C581 1.429 . S
C565 H587 0.950 . S
C566 H562 0.949 . S
C566 C574 1.574 . S
C566 C582 1.368 . S
H567 C575 0.950 . S
H568 C573 0.950 . S
H569 C574 0.949 . S
H570 C576 0.950 . S
H571 C577 0.950 . S
H572 C578 0.949 . S
C573 H568 0.950 . S
C573 C575 1.327 . S
C573 C579 1.429 . S
C574 C566 1.574 . S
C574 H569 0.949 . S
C574 C580 1.368 . S
C575 C559 1.349 . S
C575 H567 0.950 . S
C575 C573 1.327 . S
C576 C564 1.349 . S
C576 H570 0.950 . S
C576 C577 1.327 . S
C577 H571 0.950 . S
C577 C576 1.327 . S
C577 C581 1.429 . S
C578 C561 1.574 . S
C578 H572 0.949 . S
C578 C582 1.368 . S
C579 C560 1.429 . S
C579 C573 1.429 . S
C579 C580 1.523 . S
C580 C561 1.368 . S
C580 C574 1.368 . S
C580 C579 1.523 . S
C581 C565 1.429 . S
C581 C577 1.429 . S
C581 C582 1.523 . S
C582 C566 1.368 . S
C582 C578 1.368 . S
C582 C581 1.523 . S
H583 C558 0.950 . S
H584 C560 0.950 . S
H585 C561 0.949 . S
H586 C563 0.950 . S
H587 C565 0.950 . S
C588 C589 1.349 . S
C588 C590 1.327 . S
C588 H613 0.950 . S
C589 C588 1.349 . S
C589 C605 1.349 . S
C590 C588 1.327 . S
C590 C609 1.429 . S
C590 H614 0.950 . S
C591 C608 1.574 . S
C591 C610 1.368 . S
C591 H615 0.949 . S
H592 C596 0.949 . S
C593 C594 1.349 . S
C593 C595 1.327 . S
C593 H616 0.950 . S
C594 C593 1.349 . S
C594 C606 1.349 . S
C595 C593 1.327 . S
C595 C611 1.429 . S
C595 H617 0.950 . S
C596 H592 0.949 . S
C596 C604 1.574 . S
C596 C612 1.368 . S
H597 C605 0.950 . S
H598 C603 0.950 . S
H599 C604 0.949 . S
H600 C606 0.950 . S
H601 C607 0.950 . S
H602 C608 0.949 . S
C603 H598 0.950 . S
C603 C605 1.327 . S
C603 C609 1.429 . S
C604 C596 1.574 . S
C604 H599 0.949 . S
C604 C610 1.368 . S
C605 C589 1.349 . S
C605 H597 0.950 . S
C605 C603 1.327 . S
C606 C594 1.349 . S
C606 H600 0.950 . S
C606 C607 1.327 . S
C607 H601 0.950 . S
C607 C606 1.327 . S
C607 C611 1.429 . S
C608 C591 1.574 . S
C608 H602 0.949 . S
C608 C612 1.368 . S
C609 C590 1.429 . S
C609 C603 1.429 . S
C609 C610 1.523 . S
C610 C591 1.368 . S
C610 C604 1.368 . S
C610 C609 1.523 . S
C611 C595 1.429 . S
C611 C607 1.429 . S
C611 C612 1.523 . S
C612 C596 1.368 . S
C612 C608 1.368 . S
C612 C611 1.523 . S
H613 C588 0.950 . S
H614 C590 0.950 . S
H615 C591 0.949 . S
H616 C593 0.950 . S
H617 C595 0.950 . S
C618 C619 1.349 . S
C618 C620 1.327 . S
C618 H643 0.950 . S
C619 C618 1.349 . S
C619 C635 1.349 . S
C620 C618 1.327 . S
C620 C639 1.429 . S
C620 H644 0.950 . S
C621 C638 1.574 . S
C621 C640 1.368 . S
C621 H645 0.949 . S
H622 C626 0.949 . S
C623 C624 1.349 . S
C623 C625 1.327 . S
C623 H646 0.950 . S
C624 C623 1.349 . S
C624 C636 1.349 . S
C625 C623 1.327 . S
C625 C641 1.429 . S
C625 H647 0.950 . S
C626 H622 0.949 . S
C626 C634 1.574 . S
C626 C642 1.368 . S
H627 C635 0.950 . S
H628 C633 0.950 . S
H629 C634 0.949 . S
H630 C636 0.950 . S
H631 C637 0.950 . S
H632 C638 0.949 . S
C633 H628 0.950 . S
C633 C635 1.327 . S
C633 C639 1.429 . S
C634 C626 1.574 . S
C634 H629 0.949 . S
C634 C640 1.368 . S
C635 C619 1.349 . S
C635 H627 0.950 . S
C635 C633 1.327 . S
C636 C624 1.349 . S
C636 H630 0.950 . S
C636 C637 1.327 . S
C637 H631 0.950 . S
C637 C636 1.327 . S
C637 C641 1.429 . S
C638 C621 1.574 . S
C638 H632 0.949 . S
C638 C642 1.368 . S
C639 C620 1.429 . S
C639 C633 1.429 . S
C639 C640 1.523 . S
C640 C621 1.368 . S
C640 C634 1.368 . S
C640 C639 1.523 . S
C641 C625 1.429 . S
C641 C637 1.429 . S
C641 C642 1.523 . S
C642 C626 1.368 . S
C642 C638 1.368 . S
C642 C641 1.523 . S
H643 C618 0.950 . S
H644 C620 0.950 . S
H645 C621 0.949 . S
H646 C623 0.950 . S
H647 C625 0.950 . S
C648 C649 1.349 . S
C648 C650 1.327 . S
C648 H673 0.950 . S
C649 C648 1.349 . S
C649 C665 1.349 . S
C650 C648 1.327 . S
C650 C669 1.429 . S
C650 H674 0.950 . S
C651 C668 1.574 . S
C651 C670 1.368 . S
C651 H675 0.949 . S
H652 C656 0.949 . S
C653 C654 1.349 . S
C653 C655 1.327 . S
C653 H676 0.950 . S
C654 C653 1.349 . S
C654 C666 1.349 . S
C655 C653 1.327 . S
C655 C671 1.429 . S
C655 H677 0.950 . S
C656 H652 0.949 . S
C656 C664 1.574 . S
C656 C672 1.368 . S
H657 C665 0.950 . S
H658 C663 0.950 . S
H659 C664 0.949 . S
H660 C666 0.950 . S
H661 C667 0.950 . S
H662 C668 0.949 . S
C663 H658 0.950 . S
C663 C665 1.327 . S
C663 C669 1.429 . S
C664 C656 1.574 . S
C664 H659 0.949 . S
C664 C670 1.368 . S
C665 C649 1.349 . S
C665 H657 0.950 . S
C665 C663 1.327 . S
C666 C654 1.349 . S
C666 H660 0.950 . S
C666 C667 1.327 . S
C667 H661 0.950 . S
C667 C666 1.327 . S
C667 C671 1.429 . S
C668 C651 1.574 . S
C668 H662 0.949 . S
C668 C672 1.368 . S
C669 C650 1.429 . S
C669 C663 1.429 . S
C669 C670 1.523 . S
C670 C651 1.368 . S
C670 C664 1.368 . S
C670 C669 1.523 . S
C671 C655 1.429 . S
C671 C667 1.429 . S
C671 C672 1.523 . S
C672 C656 1.368 . S
C672 C668 1.368 . S
C672 C671 1.523 . S
H673 C648 0.950 . S
H674 C650 0.950 . S
H675 C651 0.949 . S
H676 C653 0.950 . S
H677 C655 0.950 . S
C678 C679 1.349 . S
C678 C680 1.327 . S
C678 H703 0.950 . S
C679 C678 1.349 . S
C679 C695 1.349 . S
C680 C678 1.327 . S
C680 C699 1.429 . S
C680 H704 0.950 . S
C681 C698 1.574 . S
C681 C700 1.368 . S
C681 H705 0.949 . S
H682 C686 0.949 . S
C683 C684 1.349 . S
C683 C685 1.327 . S
C683 H706 0.950 . S
C684 C683 1.349 . S
C684 C696 1.349 . S
C685 C683 1.327 . S
C685 C701 1.429 . S
C685 H707 0.950 . S
C686 H682 0.949 . S
C686 C694 1.574 . S
C686 C702 1.368 . S
H687 C695 0.950 . S
H688 C693 0.950 . S
H689 C694 0.949 . S
H690 C696 0.950 . S
H691 C697 0.950 . S
H692 C698 0.949 . S
C693 H688 0.950 . S
C693 C695 1.327 . S
C693 C699 1.429 . S
C694 C686 1.574 . S
C694 H689 0.949 . S
C694 C700 1.368 . S
C695 C679 1.349 . S
C695 H687 0.950 . S
C695 C693 1.327 . S
C696 C684 1.349 . S
C696 H690 0.950 . S
C696 C697 1.327 . S
C697 H691 0.950 . S
C697 C696 1.327 . S
C697 C701 1.429 . S
C698 C681 1.574 . S
C698 H692 0.949 . S
C698 C702 1.368 . S
C699 C680 1.429 . S
C699 C693 1.429 . S
C699 C700 1.523 . S
C700 C681 1.368 . S
C700 C694 1.368 . S
C700 C699 1.523 . S
C701 C685 1.429 . S
C701 C697 1.429 . S
C701 C702 1.523 . S
C702 C686 1.368 . S
C702 C698 1.368 . S
C702 C701 1.523 . S
H703 C678 0.950 . S
H704 C680 0.950 . S
H705 C681 0.949 . S
H706 C683 0.950 . S
H707 C685 0.950 . S
C708 C709 1.349 . S
C708 C710 1.327 . S
C708 H733 0.950 . S
C709 C708 1.349 . S
C709 C725 1.349 . S
C710 C708 1.327 . S
C710 C729 1.429 . S
C710 H734 0.950 . S
C711 C728 1.574 . S
C711 C730 1.368 . S
C711 H735 0.949 . S
H712 C716 0.949 . S
C713 C714 1.349 . S
C713 C715 1.327 . S
C713 H736 0.950 . S
C714 C713 1.349 . S
C714 C726 1.349 . S
C715 C713 1.327 . S
C715 C731 1.429 . S
C715 H737 0.950 . S
C716 H712 0.949 . S
C716 C724 1.574 . S
C716 C732 1.368 . S
H717 C725 0.950 . S
H718 C723 0.950 . S
H719 C724 0.949 . S
H720 C726 0.950 . S
H721 C727 0.950 . S
H722 C728 0.949 . S
C723 H718 0.950 . S
C723 C725 1.327 . S
C723 C729 1.429 . S
C724 C716 1.574 . S
C724 H719 0.949 . S
C724 C730 1.368 . S
C725 C709 1.349 . S
C725 H717 0.950 . S
C725 C723 1.327 . S
C726 C714 1.349 . S
C726 H720 0.950 . S
C726 C727 1.327 . S
C727 H721 0.950 . S
C727 C726 1.327 . S
C727 C731 1.429 . S
C728 C711 1.574 . S
C728 H722 0.949 . S
C728 C732 1.368 . S
C729 C710 1.429 . S
C729 C723 1.429 . S
C729 C730 1.523 . S
C730 C711 1.368 . S
C730 C724 1.368 . S
C730 C729 1.523 . S
C731 C715 1.429 . S
C731 C727 1.429 . S
C731 C732 1.523 . S
C732 C716 1.368 . S
C732 C728 1.368 . S
C732 C731 1.523 . S
H733 C708 0.950 . S
H734 C710 0.950 . S
H735 C711 0.949 . S
H736 C713 0.950 . S
H737 C715 0.950 . S
C738 C739 1.349 . S
C738 C740 1.327 . S
C738 H763 0.950 . S
C739 C738 1.349 . S
C739 C755 1.349 . S
C740 C738 1.327 . S
C740 C759 1.429 . S
C740 H764 0.950 . S
C741 C758 1.574 . S
C741 C760 1.368 . S
C741 H765 0.949 . S
H742 C746 0.949 . S
C743 C744 1.349 . S
C743 C745 1.327 . S
C743 H766 0.950 . S
C744 C743 1.349 . S
C744 C756 1.349 . S
C745 C743 1.327 . S
C745 C761 1.429 . S
C745 H767 0.950 . S
C746 H742 0.949 . S
C746 C754 1.574 . S
C746 C762 1.368 . S
H747 C755 0.950 . S
H748 C753 0.950 . S
H749 C754 0.949 . S
H750 C756 0.950 . S
H751 C757 0.950 . S
H752 C758 0.949 . S
C753 H748 0.950 . S
C753 C755 1.327 . S
C753 C759 1.429 . S
C754 C746 1.574 . S
C754 H749 0.949 . S
C754 C760 1.368 . S
C755 C739 1.349 . S
C755 H747 0.950 . S
C755 C753 1.327 . S
C756 C744 1.349 . S
C756 H750 0.950 . S
C756 C757 1.327 . S
C757 H751 0.950 . S
C757 C756 1.327 . S
C757 C761 1.429 . S
C758 C741 1.574 . S
C758 H752 0.949 . S
C758 C762 1.368 . S
C759 C740 1.429 . S
C759 C753 1.429 . S
C759 C760 1.523 . S
C760 C741 1.368 . S
C760 C754 1.368 . S
C760 C759 1.523 . S
C761 C745 1.429 . S
C761 C757 1.429 . S
C761 C762 1.523 . S
C762 C746 1.368 . S
C762 C758 1.368 . S
C762 C761 1.523 . S
H763 C738 0.950 . S
H764 C740 0.950 . S
H765 C741 0.949 . S
H766 C743 0.950 . S
H767 C745 0.950 . S
C768 C769 1.349 . S
C768 C770 1.327 . S
C768 H793 0.950 . S
C769 C768 1.349 . S
C769 C785 1.349 . S
C770 C768 1.327 . S
C770 C789 1.429 . S
C770 H794 0.950 . S
C771 C788 1.574 . S
C771 C790 1.368 . S
C771 H795 0.949 . S
H772 C776 0.949 . S
C773 C774 1.349 . S
C773 C775 1.327 . S
C773 H796 0.950 . S
C774 C773 1.349 . S
C774 C786 1.349 . S
C775 C773 1.327 . S
C775 C791 1.429 . S
C775 H797 0.950 . S
C776 H772 0.949 . S
C776 C784 1.574 . S
C776 C792 1.368 . S
H777 C785 0.950 . S
H778 C783 0.950 . S
H779 C784 0.949 . S
H780 C786 0.950 . S
H781 C787 0.950 . S
H782 C788 0.949 . S
C783 H778 0.950 . S
C783 C785 1.327 . S
C783 C789 1.429 . S
C784 C776 1.574 . S
C784 H779 0.949 . S
C784 C790 1.368 . S
C785 C769 1.349 . S
C785 H777 0.950 . S
C785 C783 1.327 . S
C786 C774 1.349 . S
C786 H780 0.950 . S
C786 C787 1.327 . S
C787 H781 0.950 . S
C787 C786 1.327 . S
C787 C791 1.429 . S
C788 C771 1.574 . S
C788 H782 0.949 . S
C788 C792 1.368 . S
C789 C770 1.429 . S
C789 C783 1.429 . S
C789 C790 1.523 . S
C790 C771 1.368 . S
C790 C784 1.368 . S
C790 C789 1.523 . S
C791 C775 1.429 . S
C791 C787 1.429 . S
C791 C792 1.523 . S
C792 C776 1.368 . S
C792 C788 1.368 . S
C792 C791 1.523 . S
H793 C768 0.950 . S
H794 C770 0.950 . S
H795 C771 0.949 . S
H796 C773 0.950 . S
H797 C775 0.950 . S
C798 C799 1.349 . S
C798 C800 1.327 . S
C798 H823 0.950 . S
C799 C798 1.349 . S
C799 C815 1.349 . S
C800 C798 1.327 . S
C800 C819 1.429 . S
C800 H824 0.950 . S
C801 C818 1.574 . S
C801 C820 1.368 . S
C801 H825 0.949 . S
H802 C806 0.949 . S
C803 C804 1.349 . S
C803 C805 1.327 . S
C803 H826 0.950 . S
C804 C803 1.349 . S
C804 C816 1.349 . S
C805 C803 1.327 . S
C805 C821 1.429 . S
C805 H827 0.950 . S
C806 H802 0.949 . S
C806 C814 1.574 . S
C806 C822 1.368 . S
H807 C815 0.950 . S
H808 C813 0.950 . S
H809 C814 0.949 . S
H810 C816 0.950 . S
H811 C817 0.950 . S
H812 C818 0.949 . S
C813 H808 0.950 . S
C813 C815 1.327 . S
C813 C819 1.429 . S
C814 C806 1.574 . S
C814 H809 0.949 . S
C814 C820 1.368 . S
C815 C799 1.349 . S
C815 H807 0.950 . S
C815 C813 1.327 . S
C816 C804 1.349 . S
C816 H810 0.950 . S
C816 C817 1.327 . S
C817 H811 0.950 . S
C817 C816 1.327 . S
C817 C821 1.429 . S
C818 C801 1.574 . S
C818 H812 0.949 . S
C818 C822 1.368 . S
C819 C800 1.429 . S
C819 C813 1.429 . S
C819 C820 1.523 . S
C820 C801 1.368 . S
C820 C814 1.368 . S
C820 C819 1.523 . S
C821 C805 1.429 . S
C821 C817 1.429 . S
C821 C822 1.523 . S
C822 C806 1.368 . S
C822 C818 1.368 . S
C822 C821 1.523 . S
H823 C798 0.950 . S
H824 C800 0.950 . S
H825 C801 0.949 . S
H826 C803 0.950 . S
H827 C805 0.950 . S
C828 C829 1.349 . S
C828 C830 1.327 . S
C828 H853 0.950 . S
C829 C828 1.349 . S
C829 C845 1.349 . S
C830 C828 1.327 . S
C830 C849 1.429 . S
C830 H854 0.950 . S
C831 C848 1.574 . S
C831 C850 1.368 . S
C831 H855 0.949 . S
H832 C836 0.949 . S
C833 C834 1.349 . S
C833 C835 1.327 . S
C833 H856 0.950 . S
C834 C833 1.349 . S
C834 C846 1.349 . S
C835 C833 1.327 . S
C835 C851 1.429 . S
C835 H857 0.950 . S
C836 H832 0.949 . S
C836 C844 1.574 . S
C836 C852 1.368 . S
H837 C845 0.950 . S
H838 C843 0.950 . S
H839 C844 0.949 . S
H840 C846 0.950 . S
H841 C847 0.950 . S
H842 C848 0.949 . S
C843 H838 0.950 . S
C843 C845 1.327 . S
C843 C849 1.429 . S
C844 C836 1.574 . S
C844 H839 0.949 . S
C844 C850 1.368 . S
C845 C829 1.349 . S
C845 H837 0.950 . S
C845 C843 1.327 . S
C846 C834 1.349 . S
C846 H840 0.950 . S
C846 C847 1.327 . S
C847 H841 0.950 . S
C847 C846 1.327 . S
C847 C851 1.429 . S
C848 C831 1.574 . S
C848 H842 0.949 . S
C848 C852 1.368 . S
C849 C830 1.429 . S
C849 C843 1.429 . S
C849 C850 1.523 . S
C850 C831 1.368 . S
C850 C844 1.368 . S
C850 C849 1.523 . S
C851 C835 1.429 . S
C851 C847 1.429 . S
C851 C852 1.523 . S
C852 C836 1.368 . S
C852 C848 1.368 . S
C852 C851 1.523 . S
H853 C828 0.950 . S
H854 C830 0.950 . S
H855 C831 0.949 . S
H856 C833 0.950 . S
H857 C835 0.950 . S
C858 C859 1.349 . S
C858 C860 1.327 . S
C858 H883 0.950 . S
C859 C858 1.349 . S
C859 C875 1.349 . S
C860 C858 1.327 . S
C860 C879 1.429 . S
C860 H884 0.950 . S
C861 C878 1.574 . S
C861 C880 1.368 . S
C861 H885 0.949 . S
H862 C866 0.949 . S
C863 C864 1.349 . S
C863 C865 1.327 . S
C863 H886 0.950 . S
C864 C863 1.349 . S
C864 C876 1.349 . S
C865 C863 1.327 . S
C865 C881 1.429 . S
C865 H887 0.950 . S
C866 H862 0.949 . S
C866 C874 1.574 . S
C866 C882 1.368 . S
H867 C875 0.950 . S
H868 C873 0.950 . S
H869 C874 0.949 . S
H870 C876 0.950 . S
H871 C877 0.950 . S
H872 C878 0.949 . S
C873 H868 0.950 . S
C873 C875 1.327 . S
C873 C879 1.429 . S
C874 C866 1.574 . S
C874 H869 0.949 . S
C874 C880 1.368 . S
C875 C859 1.349 . S
C875 H867 0.950 . S
C875 C873 1.327 . S
C876 C864 1.349 . S
C876 H870 0.950 . S
C876 C877 1.327 . S
C877 H871 0.950 . S
C877 C876 1.327 . S
C877 C881 1.429 . S
C878 C861 1.574 . S
C878 H872 0.949 . S
C878 C882 1.368 . S
C879 C860 1.429 . S
C879 C873 1.429 . S
C879 C880 1.523 . S
C880 C861 1.368 . S
C880 C874 1.368 . S
C880 C879 1.523 . S
C881 C865 1.429 . S
C881 C877 1.429 . S
C881 C882 1.523 . S
C882 C866 1.368 . S
C882 C878 1.368 . S
C882 C881 1.523 . S
H883 C858 0.950 . S
H884 C860 0.950 . S
H885 C861 0.949 . S
H886 C863 0.950 . S
H887 C865 0.950 . S
C888 C889 1.349 . S
C888 C890 1.327 . S
C888 H913 0.950 . S
C889 C888 1.349 . S
C889 C905 1.349 . S
C890 C888 1.327 . S
C890 C909 1.429 . S
C890 H914 0.950 . S
C891 C908 1.574 . S
C891 C910 1.368 . S
C891 H915 0.949 . S
H892 C896 0.949 . S
C893 C894 1.349 . S
C893 C895 1.327 . S
C893 H916 0.950 . S
C894 C893 1.349 . S
C894 C906 1.349 . S
C895 C893 1.327 . S
C895 C911 1.429 . S
C895 H917 0.950 . S
C896 H892 0.949 . S
C896 C904 1.574 . S
C896 C912 1.368 . S
H897 C905 0.950 . S
H898 C903 0.950 . S
H899 C904 0.949 . S
H900 C906 0.950 . S
H901 C907 0.950 . S
H902 C908 0.949 . S
C903 H898 0.950 . S
C903 C905 1.327 . S
C903 C909 1.429 . S
C904 C896 1.574 . S
C904 H899 0.949 . S
C904 C910 1.368 . S
C905 C889 1.349 . S
C905 H897 0.950 . S
C905 C903 1.327 . S
C906 C894 1.349 . S
C906 H900 0.950 . S
C906 C907 1.327 . S
C907 H901 0.950 . S
C907 C906 1.327 . S
C907 C911 1.429 . S
C908 C891 1.574 . S
C908 H902 0.949 . S
C908 C912 1.368 . S
C909 C890 1.429 . S
C909 C903 1.429 . S
C909 C910 1.523 . S
C910 C891 1.368 . S
C910 C904 1.368 . S
C910 C909 1.523 . S
C911 C895 1.429 . S
C911 C907 1.429 . S
C911 C912 1.523 . S
C912 C896 1.368 . S
C912 C908 1.368 . S
C912 C911 1.523 . S
H913 C888 0.950 . S
H914 C890 0.950 . S
H915 C891 0.949 . S
H916 C893 0.950 . S
H917 C895 0.950 . S
C918 C919 1.349 . S
C918 C920 1.327 . S
C918 H943 0.950 . S
C919 C918 1.349 . S
C919 C935 1.349 . S
C920 C918 1.327 . S
C920 C939 1.429 . S
C920 H944 0.950 . S
C921 C938 1.574 . S
C921 C940 1.368 . S
C921 H945 0.949 . S
H922 C926 0.949 . S
C923 C924 1.349 . S
C923 C925 1.327 . S
C923 H946 0.950 . S
C924 C923 1.349 . S
C924 C936 1.349 . S
C925 C923 1.327 . S
C925 C941 1.429 . S
C925 H947 0.950 . S
C926 H922 0.949 . S
C926 C934 1.574 . S
C926 C942 1.368 . S
H927 C935 0.950 . S
H928 C933 0.950 . S
H929 C934 0.949 . S
H930 C936 0.950 . S
H931 C937 0.950 . S
H932 C938 0.949 . S
C933 H928 0.950 . S
C933 C935 1.327 . S
C933 C939 1.429 . S
C934 C926 1.574 . S
C934 H929 0.949 . S
C934 C940 1.368 . S
C935 C919 1.349 . S
C935 H927 0.950 . S
C935 C933 1.327 . S
C936 C924 1.349 . S
C936 H930 0.950 . S
C936 C937 1.327 . S
C937 H931 0.950 . S
C937 C936 1.327 . S
C937 C941 1.429 . S
C938 C921 1.574 . S
C938 H932 0.949 . S
C938 C942 1.368 . S
C939 C920 1.429 . S
C939 C933 1.429 . S
C939 C940 1.523 . S
C940 C921 1.368 . S
C940 C934 1.368 . S
C940 C939 1.523 . S
C941 C925 1.429 . S
C941 C937 1.429 . S
C941 C942 1.523 . S
C942 C926 1.368 . S
C942 C938 1.368 . S
C942 C941 1.523 . S
H943 C918 0.950 . S
H944 C920 0.950 . S
H945 C921 0.949 . S
H946 C923 0.950 . S
H947 C925 0.950 . S
C948 C949 1.349 . S
C948 C950 1.327 . S
C948 H973 0.950 . S
C949 C948 1.349 . S
C949 C965 1.349 . S
C950 C948 1.327 . S
C950 C969 1.429 . S
C950 H974 0.950 . S
C951 C968 1.574 . S
C951 C970 1.368 . S
C951 H975 0.949 . S
H952 C956 0.949 . S
C953 C954 1.349 . S
C953 C955 1.327 . S
C953 H976 0.950 . S
C954 C953 1.349 . S
C954 C966 1.349 . S
C955 C953 1.327 . S
C955 C971 1.429 . S
C955 H977 0.950 . S
C956 H952 0.949 . S
C956 C964 1.574 . S
C956 C972 1.368 . S
H957 C965 0.950 . S
H958 C963 0.950 . S
H959 C964 0.949 . S
H960 C966 0.950 . S
H961 C967 0.950 . S
H962 C968 0.949 . S
C963 H958 0.950 . S
C963 C965 1.327 . S
C963 C969 1.429 . S
C964 C956 1.574 . S
C964 H959 0.949 . S
C964 C970 1.368 . S
C965 C949 1.349 . S
C965 H957 0.950 . S
C965 C963 1.327 . S
C966 C954 1.349 . S
C966 H960 0.950 . S
C966 C967 1.327 . S
C967 H961 0.950 . S
C967 C966 1.327 . S
C967 C971 1.429 . S
C968 C951 1.574 . S
C968 H962 0.949 . S
C968 C972 1.368 . S
C969 C950 1.429 . S
C969 C963 1.429 . S
C969 C970 1.523 . S
C970 C951 1.368 . S
C970 C964 1.368 . S
C970 C969 1.523 . S
C971 C955 1.429 . S
C971 C967 1.429 . S
C971 C972 1.523 . S
C972 C956 1.368 . S
C972 C968 1.368 . S
C972 C971 1.523 . S
H973 C948 0.950 . S
H974 C950 0.950 . S
H975 C951 0.949 . S
H976 C953 0.950 . S
H977 C955 0.950 . S
C978 C979 1.349 . S
C978 C980 1.327 . S
C978 H1003 0.950 . S
C979 C978 1.349 . S
C979 C995 1.349 . S
C980 C978 1.327 . S
C980 C999 1.429 . S
C980 H1004 0.950 . S
C981 C998 1.574 . S
C981 C1000 1.368 . S
C981 H1005 0.949 . S
H982 C986 0.949 . S
C983 C984 1.349 . S
C983 C985 1.327 1_554 S
C983 H1006 0.950 . S
C984 C983 1.349 . S
C984 C996 1.349 . S
C985 C983 1.327 1_556 S
C985 C1001 1.429 . S
C985 H1007 0.950 . S
C986 H982 0.949 . S
C986 C994 1.574 . S
C986 C1002 1.368 . S
H987 C995 0.950 . S
H988 C993 0.950 . S
H989 C994 0.949 . S
H990 C996 0.950 . S
H991 C997 0.950 . S
H992 C998 0.949 . S
C993 H988 0.950 . S
C993 C995 1.327 . S
C993 C999 1.429 . S
C994 C986 1.574 . S
C994 H989 0.949 . S
C994 C1000 1.368 . S
C995 C979 1.349 . S
C995 H987 0.950 . S
C995 C993 1.327 . S
C996 C984 1.349 . S
C996 H990 0.950 . S
C996 C997 1.327 . S
C997 H991 0.950 . S
C997 C996 1.327 . S
C997 C1001 1.429 1_554 S
C998 C981 1.574 . S
C998 H992 0.949 . S
C998 C1002 1.368 . S
C999 C980 1.429 . S
C999 C993 1.429 . S
C999 C1000 1.523 . S
C1000 C981 1.368 . S
C1000 C994 1.368 . S
C1000 C999 1.523 . S
C1001 C985 1.429 . S
C1001 C997 1.429 1_556 S
C1001 C1002 1.523 . S
C1002 C986 1.368 . S
C1002 C998 1.368 . S
C1002 C1001 1.523 . S
H1003 C978 0.950 . S
H1004 C980 0.950 . S
H1005 C981 0.949 . S
H1006 C983 0.950 . S
H1007 C985 0.950 . S
C1008 C1009 1.349 . S
C1008 C1010 1.327 1_545 S
C1008 H1033 0.950 . S
C1009 C1008 1.349 . S
C1009 C1025 1.349 1_545 S
C1010 C1008 1.327 1_565 S
C1010 C1029 1.429 . S
C1010 H1034 0.945 1_565 S
C1011 C1028 1.574 . S
C1011 C1030 1.368 . S
C1011 H1035 0.949 . S
H1012 C1016 0.949 . S
C1013 C1014 1.349 . S
C1013 C1015 1.327 . S
C1013 H1036 0.950 . S
C1014 C1013 1.349 . S
C1014 C1026 1.349 . S
C1015 C1013 1.327 . S
C1015 C1031 1.429 . S
C1015 H1037 0.950 . S
C1016 H1012 0.949 . S
C1016 C1024 1.574 . S
C1016 C1032 1.368 . S
H1017 C1025 0.950 . S
H1018 C1023 0.950 . S
H1019 C1024 0.949 . S
H1020 C1026 0.950 . S
H1021 C1027 0.950 . S
H1022 C1028 0.949 . S
C1023 H1018 0.950 . S
C1023 C1025 1.327 . S
C1023 C1029 1.429 . S
C1024 C1016 1.574 . S
C1024 H1019 0.949 . S
C1024 C1030 1.368 . S
C1025 C1009 1.349 1_565 S
C1025 H1017 0.950 . S
C1025 C1023 1.327 . S
C1026 C1014 1.349 . S
C1026 H1020 0.950 . S
C1026 C1027 1.327 . S
C1027 H1021 0.950 . S
C1027 C1026 1.327 . S
C1027 C1031 1.429 . S
C1028 C1011 1.574 . S
C1028 H1022 0.949 . S
C1028 C1032 1.368 . S
C1029 C1010 1.429 . S
C1029 C1023 1.429 . S
C1029 C1030 1.523 . S
C1030 C1011 1.368 . S
C1030 C1024 1.368 . S
C1030 C1029 1.523 . S
C1031 C1015 1.429 . S
C1031 C1027 1.429 . S
C1031 C1032 1.523 . S
C1032 C1016 1.368 . S
C1032 C1028 1.368 . S
C1032 C1031 1.523 . S
H1033 C1008 0.950 . S
H1034 C1010 0.945 1_545 S
H1035 C1011 0.949 . S
H1036 C1013 0.950 . S
H1037 C1015 0.950 . S
C1038 C1039 1.349 . S
C1038 C1040 1.327 . S
C1038 H1063 0.950 . S
C1039 C1038 1.349 . S
C1039 C1055 1.349 . S
C1040 C1038 1.327 . S
C1040 C1059 1.429 . S
C1040 H1064 0.950 . S
C1041 C1058 1.574 . S
C1041 C1060 1.368 . S
C1041 H1065 0.949 . S
H1042 C1046 0.949 . S
C1043 C1044 1.349 . S
C1043 C1045 1.327 . S
C1043 H1066 0.950 . S
C1044 C1043 1.349 . S
C1044 C1056 1.349 . S
C1045 C1043 1.327 . S
C1045 C1061 1.429 . S
C1045 H1067 0.950 . S
C1046 H1042 0.949 . S
C1046 C1054 1.574 . S
C1046 C1062 1.368 . S
H1047 C1055 0.950 . S
H1048 C1053 0.950 . S
H1049 C1054 0.949 . S
H1050 C1056 0.950 . S
H1051 C1057 0.950 . S
H1052 C1058 0.949 . S
C1053 H1048 0.950 . S
C1053 C1055 1.327 . S
C1053 C1059 1.429 . S
C1054 C1046 1.574 . S
C1054 H1049 0.949 . S
C1054 C1060 1.368 . S
C1055 C1039 1.349 . S
C1055 H1047 0.950 . S
C1055 C1053 1.327 . S
C1056 C1044 1.349 . S
C1056 H1050 0.950 . S
C1056 C1057 1.327 . S
C1057 H1051 0.950 . S
C1057 C1056 1.327 . S
C1057 C1061 1.429 . S
C1058 C1041 1.574 . S
C1058 H1052 0.949 . S
C1058 C1062 1.368 . S
C1059 C1040 1.429 . S
C1059 C1053 1.429 . S
C1059 C1060 1.523 . S
C1060 C1041 1.368 . S
C1060 C1054 1.368 . S
C1060 C1059 1.523 . S
C1061 C1045 1.429 . S
C1061 C1057 1.429 . S
C1061 C1062 1.523 . S
C1062 C1046 1.368 . S
C1062 C1058 1.368 . S
C1062 C1061 1.523 . S
H1063 C1038 0.950 . S
H1064 C1040 0.950 . S
H1065 C1041 0.949 . S
H1066 C1043 0.950 . S
H1067 C1045 0.950 . S
C1068 C1069 1.349 . S
C1068 C1070 1.327 . S
C1068 H1093 0.950 . S
C1069 C1068 1.349 . S
C1069 C1085 1.349 . S
C1070 C1068 1.327 . S
C1070 C1089 1.429 . S
C1070 H1094 0.950 . S
C1071 C1088 1.574 . S
C1071 C1090 1.368 . S
C1071 H1095 0.949 . S
H1072 C1076 0.949 . S
C1073 C1074 1.349 . S
C1073 C1075 1.327 . S
C1073 H1096 0.950 . S
C1074 C1073 1.349 . S
C1074 C1086 1.349 . S
C1075 C1073 1.327 . S
C1075 C1091 1.429 . S
C1075 H1097 0.950 . S
C1076 H1072 0.949 . S
C1076 C1084 1.574 . S
C1076 C1092 1.368 . S
H1077 C1085 0.950 1_545 S
H1078 C1083 0.950 . S
H1079 C1084 0.949 . S
H1080 C1086 0.950 . S
H1081 C1087 0.950 . S
H1082 C1088 0.949 . S
C1083 H1078 0.950 . S
C1083 C1085 1.327 . S
C1083 C1089 1.429 . S
C1084 C1076 1.574 . S
C1084 H1079 0.949 . S
C1084 C1090 1.368 . S
C1085 C1069 1.349 . S
C1085 H1077 0.950 1_565 S
C1085 C1083 1.327 . S
C1086 C1074 1.349 . S
C1086 H1080 0.950 . S
C1086 C1087 1.327 . S
C1087 H1081 0.950 . S
C1087 C1086 1.327 . S
C1087 C1091 1.429 . S
C1088 C1071 1.574 . S
C1088 H1082 0.949 . S
C1088 C1092 1.368 . S
C1089 C1070 1.429 . S
C1089 C1083 1.429 . S
C1089 C1090 1.523 . S
C1090 C1071 1.368 . S
C1090 C1084 1.368 . S
C1090 C1089 1.523 . S
C1091 C1075 1.429 . S
C1091 C1087 1.429 . S
C1091 C1092 1.523 . S
C1092 C1076 1.368 . S
C1092 C1088 1.368 . S
C1092 C1091 1.523 . S
H1093 C1068 0.950 . S
H1094 C1070 0.950 . S
H1095 C1071 0.949 . S
H1096 C1073 0.950 . S
H1097 C1075 0.950 . S
C1098 C1099 1.349 . S
C1098 C1100 1.327 . S
C1098 H1123 0.950 . S
C1099 C1098 1.349 . S
C1099 C1115 1.349 . S
C1100 C1098 1.327 . S
C1100 C1119 1.429 . S
C1100 H1124 0.950 . S
C1101 C1118 1.574 . S
C1101 C1120 1.368 . S
C1101 H1125 0.949 . S
H1102 C1106 0.949 . S
C1103 C1104 1.349 . S
C1103 C1105 1.327 . S
C1103 H1126 0.950 . S
C1104 C1103 1.349 . S
C1104 C1116 1.349 . S
C1105 C1103 1.327 . S
C1105 C1121 1.429 . S
C1105 H1127 0.950 . S
C1106 H1102 0.949 . S
C1106 C1114 1.574 . S
C1106 C1122 1.368 . S
H1107 C1115 0.950 . S
H1108 C1113 0.950 . S
H1109 C1114 0.949 . S
H1110 C1116 0.950 . S
H1111 C1117 0.950 . S
H1112 C1118 0.949 . S
C1113 H1108 0.950 . S
C1113 C1115 1.327 . S
C1113 C1119 1.429 . S
C1114 C1106 1.574 . S
C1114 H1109 0.949 . S
C1114 C1120 1.368 . S
C1115 C1099 1.349 . S
C1115 H1107 0.950 . S
C1115 C1113 1.327 . S
C1116 C1104 1.349 . S
C1116 H1110 0.950 . S
C1116 C1117 1.327 . S
C1117 H1111 0.950 . S
C1117 C1116 1.327 . S
C1117 C1121 1.429 . S
C1118 C1101 1.574 . S
C1118 H1112 0.949 . S
C1118 C1122 1.368 . S
C1119 C1100 1.429 . S
C1119 C1113 1.429 . S
C1119 C1120 1.523 . S
C1120 C1101 1.368 . S
C1120 C1114 1.368 . S
C1120 C1119 1.523 . S
C1121 C1105 1.429 . S
C1121 C1117 1.429 . S
C1121 C1122 1.523 . S
C1122 C1106 1.368 . S
C1122 C1118 1.368 . S
C1122 C1121 1.523 . S
H1123 C1098 0.950 . S
H1124 C1100 0.950 . S
H1125 C1101 0.949 . S
H1126 C1103 0.950 . S
H1127 C1105 0.950 . S
C1128 C1129 1.349 . S
C1128 C1130 1.327 . S
C1128 H1153 0.950 . S
C1129 C1128 1.349 . S
C1129 C1145 1.349 . S
C1130 C1128 1.327 . S
C1130 C1149 1.429 . S
C1130 H1154 0.950 . S
C1131 C1148 1.574 . S
C1131 C1150 1.368 . S
C1131 H1155 0.949 . S
H1132 C1136 0.949 . S
C1133 C1134 1.349 . S
C1133 C1135 1.327 . S
C1133 H1156 0.950 . S
C1134 C1133 1.349 . S
C1134 C1146 1.349 . S
C1135 C1133 1.327 . S
C1135 C1151 1.429 . S
C1135 H1157 0.950 . S
C1136 H1132 0.949 . S
C1136 C1144 1.574 . S
C1136 C1152 1.368 . S
H1137 C1145 0.950 . S
H1138 C1143 0.950 . S
H1139 C1144 0.949 . S
H1140 C1146 0.950 . S
H1141 C1147 0.950 . S
H1142 C1148 0.949 . S
C1143 H1138 0.950 . S
C1143 C1145 1.327 . S
C1143 C1149 1.429 . S
C1144 C1136 1.574 . S
C1144 H1139 0.949 . S
C1144 C1150 1.368 . S
C1145 C1129 1.349 . S
C1145 H1137 0.950 . S
C1145 C1143 1.327 . S
C1146 C1134 1.349 . S
C1146 H1140 0.950 . S
C1146 C1147 1.327 . S
C1147 H1141 0.950 . S
C1147 C1146 1.327 . S
C1147 C1151 1.429 . S
C1148 C1131 1.574 . S
C1148 H1142 0.949 . S
C1148 C1152 1.368 . S
C1149 C1130 1.429 . S
C1149 C1143 1.429 . S
C1149 C1150 1.523 . S
C1150 C1131 1.368 . S
C1150 C1144 1.368 . S
C1150 C1149 1.523 . S
C1151 C1135 1.429 . S
C1151 C1147 1.429 . S
C1151 C1152 1.523 . S
C1152 C1136 1.368 . S
C1152 C1148 1.368 . S
C1152 C1151 1.523 . S
H1153 C1128 0.950 . S
H1154 C1130 0.950 . S
H1155 C1131 0.949 . S
H1156 C1133 0.950 . S
H1157 C1135 0.950 . S
C1158 C1159 1.349 . S
C1158 C1160 1.327 . S
C1158 H1183 0.950 . S
C1159 C1158 1.349 . S
C1159 C1175 1.349 . S
C1160 C1158 1.327 . S
C1160 C1179 1.429 . S
C1160 H1184 0.950 . S
C1161 C1178 1.574 . S
C1161 C1180 1.368 . S
C1161 H1185 0.949 . S
H1162 C1166 0.949 . S
C1163 C1164 1.349 . S
C1163 C1165 1.327 . S
C1163 H1186 0.950 . S
C1164 C1163 1.349 . S
C1164 C1176 1.349 . S
C1165 C1163 1.327 . S
C1165 C1181 1.429 . S
C1165 H1187 0.950 . S
C1166 H1162 0.949 . S
C1166 C1174 1.574 . S
C1166 C1182 1.368 . S
H1167 C1175 0.950 . S
H1168 C1173 0.950 . S
H1169 C1174 0.949 . S
H1170 C1176 0.950 . S
H1171 C1177 0.950 . S
H1172 C1178 0.949 . S
C1173 H1168 0.950 . S
C1173 C1175 1.327 . S
C1173 C1179 1.429 . S
C1174 C1166 1.574 . S
C1174 H1169 0.949 . S
C1174 C1180 1.368 . S
C1175 C1159 1.349 . S
C1175 H1167 0.950 . S
C1175 C1173 1.327 . S
C1176 C1164 1.349 . S
C1176 H1170 0.950 . S
C1176 C1177 1.327 . S
C1177 H1171 0.950 . S
C1177 C1176 1.327 . S
C1177 C1181 1.429 . S
C1178 C1161 1.574 . S
C1178 H1172 0.949 . S
C1178 C1182 1.368 . S
C1179 C1160 1.429 . S
C1179 C1173 1.429 . S
C1179 C1180 1.523 . S
C1180 C1161 1.368 . S
C1180 C1174 1.368 . S
C1180 C1179 1.523 . S
C1181 C1165 1.429 . S
C1181 C1177 1.429 . S
C1181 C1182 1.523 . S
C1182 C1166 1.368 . S
C1182 C1178 1.368 . S
C1182 C1181 1.523 . S
H1183 C1158 0.950 . S
H1184 C1160 0.950 . S
H1185 C1161 0.949 . S
H1186 C1163 0.950 . S
H1187 C1165 0.950 . S
C1188 C1189 1.349 . S
C1188 C1190 1.327 . S
C1188 H1213 0.950 . S
C1189 C1188 1.349 . S
C1189 C1205 1.349 . S
C1190 C1188 1.327 . S
C1190 C1209 1.429 . S
C1190 H1214 0.950 . S
C1191 C1208 1.574 . S
C1191 C1210 1.368 . S
C1191 H1215 0.949 . S
H1192 C1196 0.949 . S
C1193 C1194 1.349 . S
C1193 C1195 1.327 . S
C1193 H1216 0.950 . S
C1194 C1193 1.349 . S
C1194 C1206 1.349 . S
C1195 C1193 1.327 . S
C1195 C1211 1.429 . S
C1195 H1217 0.950 . S
C1196 H1192 0.949 . S
C1196 C1204 1.574 1_556 S
C1196 C1212 1.360 1_556 S
H1197 C1205 0.950 . S
H1198 C1203 0.950 . S
H1199 C1204 0.949 . S
H1200 C1206 0.950 . S
H1201 C1207 0.950 . S
H1202 C1208 0.949 . S
C1203 H1198 0.950 . S
C1203 C1205 1.327 . S
C1203 C1209 1.429 . S
C1204 C1196 1.574 1_554 S
C1204 H1199 0.949 . S
C1204 C1210 1.368 . S
C1205 C1189 1.349 . S
C1205 H1197 0.950 . S
C1205 C1203 1.327 . S
C1206 C1194 1.349 . S
C1206 H1200 0.950 . S
C1206 C1207 1.327 . S
C1207 H1201 0.950 . S
C1207 C1206 1.327 . S
C1207 C1211 1.429 . S
C1208 C1191 1.574 . S
C1208 H1202 0.949 . S
C1208 C1212 1.403 . S
C1209 C1190 1.429 . S
C1209 C1203 1.429 . S
C1209 C1210 1.523 . S
C1210 C1191 1.368 . S
C1210 C1204 1.368 . S
C1210 C1209 1.523 . S
C1211 C1195 1.429 . S
C1211 C1207 1.429 . S
C1211 C1212 1.490 1_556 S
C1212 C1196 1.360 1_554 S
C1212 C1208 1.403 . S
C1212 C1211 1.490 1_554 S
H1213 C1188 0.950 . S
H1214 C1190 0.950 . S
H1215 C1191 0.949 . S
H1216 C1193 0.950 . S
H1217 C1195 0.950 . S
C1218 C1219 1.349 . S
C1218 C1220 1.327 . S
C1218 H1243 0.950 . S
C1219 C1218 1.349 . S
C1219 C1235 1.349 . S
C1220 C1218 1.327 . S
C1220 C1239 1.429 . S
C1220 H1244 0.950 . S
C1221 C1238 1.574 . S
C1221 C1240 1.368 . S
C1221 H1245 0.949 . S
H1222 C1226 0.949 . S
C1223 C1224 1.349 . S
C1223 C1225 1.327 . S
C1223 H1246 0.950 . S
C1224 C1223 1.349 . S
C1224 C1236 1.349 . S
C1225 C1223 1.327 . S
C1225 C1241 1.429 . S
C1225 H1247 0.950 . S
C1226 H1222 0.949 . S
C1226 C1234 1.574 . S
C1226 C1242 1.368 . S
H1227 C1235 0.950 . S
H1228 C1233 0.950 . S
H1229 C1234 0.949 . S
H1230 C1236 0.950 . S
H1231 C1237 0.950 . S
H1232 C1238 0.949 . S
C1233 H1228 0.950 . S
C1233 C1235 1.327 . S
C1233 C1239 1.429 . S
C1234 C1226 1.574 . S
C1234 H1229 0.949 . S
C1234 C1240 1.368 . S
C1235 C1219 1.349 . S
C1235 H1227 0.950 . S
C1235 C1233 1.327 . S
C1236 C1224 1.349 . S
C1236 H1230 0.950 . S
C1236 C1237 1.327 . S
C1237 H1231 0.950 . S
C1237 C1236 1.327 . S
C1237 C1241 1.429 . S
C1238 C1221 1.574 . S
C1238 H1232 0.949 . S
C1238 C1242 1.368 . S
C1239 C1220 1.429 . S
C1239 C1233 1.429 . S
C1239 C1240 1.523 . S
C1240 C1221 1.368 . S
C1240 C1234 1.368 . S
C1240 C1239 1.523 . S
C1241 C1225 1.429 . S
C1241 C1237 1.429 . S
C1241 C1242 1.523 . S
C1242 C1226 1.368 . S
C1242 C1238 1.368 . S
C1242 C1241 1.523 . S
H1243 C1218 0.950 . S
H1244 C1220 0.950 . S
H1245 C1221 0.949 . S
H1246 C1223 0.950 . S
H1247 C1225 0.950 . S
C534 C521 1.364 . S
C529 C51 1.367 . S
C559 C125 1.390 . S
C564 C450 1.385 . S
C589 C217 2.763 . S
C594 C464 2.759 . S
C619 C291 1.538 . S
C624 C478 1.519 . S
C654 C492 0.832 . S
C649 C347 0.830 . S
C679 C421 1.034 . S
C684 C507 1.020 . S
C709 C143 2.285 . S
C714 C465 2.269 . S
C739 C199 1.538 . S
C744 C479 1.539 . S
C769 C273 0.544 . S
C774 C493 0.550 . S
C804 C506 1.705 . S
C799 C365 1.702 . S
C834 C520 1.795 . S
C829 C439 1.802 . S
C864 C451 2.651 . S
C859 C69 2.631 . S
C889 C63 1.390 . S
C894 C467 1.473 . S
C919 C137 1.877 . S
C924 C481 1.927 . S
C954 C495 1.317 . S
C949 C187 1.286 . S
C979 C261 1.816 . S
C984 C508 1.816 . S
C1014 C522 1.463 . S
C1009 C359 1.352 . S
C1044 C453 1.369 . S
C1039 C433 1.344 . S
C1074 C523 1.919 . S
C1069 C113 1.955 . S
C1099 C211 1.262 . S
C1104 C452 1.319 . S
C1134 C466 1.878 . S
C1129 C285 1.833 . S
C1159 C335 1.297 . S
C1164 C480 1.344 . S
C1189 C409 1.647 . S
C1194 C494 1.636 . S
C1219 C39 1.604 . S
C1224 C509 1.613 . S
