# Generated by pormake.
# Topology pth, (4,4)-cn, num edge types: 1
# Building blocks:
#     Node 0, Type 0, BuildingBlock: UXUYUI_clean_sbu_0, # of connection points: 4
#     Node 1, Type 0, BuildingBlock: UXUYUI_clean_sbu_0, # of connection points: 4
#     Node 2, Type 0, BuildingBlock: UXUYUI_clean_sbu_0, # of connection points: 4
#     Node 3, Type 1, BuildingBlock: NAHDIM_clean_linker_0, # of connection points: 4
#     Node 4, Type 1, BuildingBlock: NAHDIM_clean_linker_0, # of connection points: 4
#     Node 5, Type 1, BuildingBlock: NAHDIM_clean_linker_0, # of connection points: 4
#     Edge 6, Type (0, 1), BuildingBlock: UVAHIK_clean_linker_0, # of connection points: 2
#     Edge 7, Type (0, 1), BuildingBlock: UVAHIK_clean_linker_0, # of connection points: 2
#     Edge 8, Type (0, 1), BuildingBlock: UVAHIK_clean_linker_0, # of connection points: 2
#     Edge 9, Type (0, 1), BuildingBlock: UVAHIK_clean_linker_0, # of connection points: 2
#     Edge 10, Type (0, 1), BuildingBlock: UVAHIK_clean_linker_0, # of connection points: 2
#     Edge 11, Type (0, 1), BuildingBlock: UVAHIK_clean_linker_0, # of connection points: 2
#     Edge 12, Type (0, 1), BuildingBlock: UVAHIK_clean_linker_0, # of connection points: 2
#     Edge 13, Type (0, 1), BuildingBlock: UVAHIK_clean_linker_0, # of connection points: 2
#     Edge 14, Type (0, 1), BuildingBlock: UVAHIK_clean_linker_0, # of connection points: 2
#     Edge 15, Type (0, 1), BuildingBlock: UVAHIK_clean_linker_0, # of connection points: 2
#     Edge 16, Type (0, 1), BuildingBlock: UVAHIK_clean_linker_0, # of connection points: 2
#     Edge 17, Type (0, 1), BuildingBlock: UVAHIK_clean_linker_0, # of connection points: 2
# Relax obj value: 0.093
# Max RMSD: 0.220
# Mean RMSD: 0.135
data_MOF--net-pth--node1-UXUYUI_clean_sbu_0--node2-NAHDIM_clean_linker_0--edge1-UVAHIK_clean_linker_0
_symmetry_space_group_name_H-M    P1
_symmetry_Int_Tables_number       1
_symmetry_cell_setting            triclinic
loop_
_symmetry_equiv_pos_as_xyz
'x, y, z'
_cell_length_a     43.414804
_cell_length_b     43.434315
_cell_length_c     110.52867
_cell_angle_alpha  89.820386
_cell_angle_beta   90.309166
_cell_angle_gamma 120.01751
loop_
_atom_site_label
_atom_site_type_symbol
_atom_site_fract_x
_atom_site_fract_y
_atom_site_fract_z
_atom_type_partial_charge
Li0 Li 0.03988 0.04552 0.07081 0.0
Li1 Li 0.99924 0.04582 0.08589 0.0
Li2 Li 0.01733 0.99914 0.08665 0.0
Li3 Li 0.97536 0.99789 0.07149 0.0
C4 C 0.08238 0.07097 0.09188 0.0
N5 N 0.15313 0.10995 0.09875 0.0
C6 C 0.09754 0.10695 0.09486 0.0
C7 C 0.10312 0.05469 0.0927 0.0
C8 C 0.13337 0.12625 0.09821 0.0
C9 C 0.13884 0.07485 0.09611 0.0
C10 C 0.98644 0.0745 0.06673 0.0
C11 C 0.94268 0.09279 0.06903 0.0
N12 N 0.96653 0.12564 0.0648 0.0
C13 C 0.01037 0.10831 0.06228 0.0
C14 C 0.95218 0.06654 0.07001 0.0
C15 C -0.00014 0.13384 0.06142 0.0
C16 C 0.08578 0.06186 0.05055 0.0
N17 N 0.07883 0.07534 0.06059 0.0
C18 C 0.12433 0.13407 0.05533 0.0
C19 C 0.09762 0.11064 0.06312 0.0
C20 C 0.13211 0.12107 0.04483 0.0
C21 C 0.11276 0.08423 0.04263 0.0
H22 H 0.06985 0.03385 0.04852 0.0
H23 H 0.09075 0.12089 0.07091 0.0
C24 C 0.96429 0.06307 0.10408 0.0
N25 N 0.99032 0.07661 0.09559 0.0
C26 C 0.95965 0.0858 0.11182 0.0
C27 C 0.00846 0.13589 0.10183 0.0
C28 C 0.01186 0.11223 0.09422 0.0
C29 C 0.98236 0.12281 0.11091 0.0
H30 H 0.94762 0.0346 0.10502 0.0
H31 H 0.0323 0.12228 0.08738 0.0
C32 C 0.03526 0.97513 0.06541 0.0
N33 N 0.06974 0.93893 0.05863 0.0
C34 C 0.01618 0.94144 0.06013 0.0
C35 C 0.07201 0.99063 0.06701 0.0
C36 C 0.03404 0.92349 0.05683 0.0
C37 C 0.08893 0.97188 0.06358 0.0
C38 C 0.93623 0.96585 0.09094 0.0
C39 C 0.93153 0.93243 0.09387 0.0
C40 C 0.90647 0.96997 0.08955 0.0
C41 C 0.89711 0.90356 0.09514 0.0
C42 C 0.87248 0.94045 0.09088 0.0
N43 N 0.86854 0.90812 0.09362 0.0
C44 C 0.03832 0.98394 0.1087 0.0
C45 C 0.02316 0.93897 0.09398 0.0
C46 C 0.044 0.96385 0.11736 0.0
N47 N 0.02796 0.9712 0.0973 0.0
C48 C 0.0285 0.91795 0.10235 0.0
C49 C 0.0386 0.93014 0.11427 0.0
H50 H 0.04155 0.00951 0.11112 0.0
H51 H 0.01379 0.92885 0.085 0.0
C52 C 0.91967 0.97891 0.05424 0.0
N53 N 0.93523 0.96629 0.06197 0.0
C54 C 0.89168 0.95556 0.04674 0.0
C55 C 0.89612 0.90676 0.0554 0.0
C56 C 0.92377 0.93098 0.06277 0.0
C57 C 0.87988 0.91893 0.04712 0.0
H58 H 0.92945 0.00714 0.0537 0.0
H59 H 0.93675 0.92168 0.06894 0.0
O60 O 0.04717 0.05161 0.08865 0.0
O61 O 0.99646 0.04932 0.06786 0.0
O62 O 0.01805 0.99291 0.06881 0.0
O63 O 0.96976 0.99435 0.0895 0.0
H64 H 0.08193 0.11999 0.09452 0.0
H65 H 0.09179 0.02668 0.09087 0.0
H66 H 0.14544 0.15418 0.10042 0.0
H67 H 0.15515 0.06253 0.09673 0.0
H68 H 0.91634 0.08704 0.07163 0.0
H69 H 0.03676 0.11484 0.05951 0.0
H70 H 0.93321 0.04045 0.07334 0.0
H71 H 0.0182 0.16018 0.05805 0.0
H72 H 0.1376 0.16224 0.05731 0.0
H73 H 0.1179 0.07274 0.03476 0.0
H74 H 0.93882 0.07443 0.11854 0.0
H75 H 0.02704 0.16405 0.10086 0.0
H76 H 0.98787 0.92917 0.05861 0.0
H77 H 0.08745 0.01716 0.07061 0.0
H78 H 0.01953 0.89731 0.05281 0.0
H79 H 0.11736 0.98361 0.06479 0.0
H80 H 0.95415 0.9287 0.09504 0.0
H81 H 0.90953 0.99565 0.08746 0.0
H82 H 0.89311 0.87752 0.09732 0.0
H83 H 0.84924 0.94325 0.08976 0.0
H84 H 0.05205 0.97438 0.12642 0.0
H85 H 0.02331 0.89183 0.09965 0.0
H86 H 0.87975 0.96617 0.04061 0.0
H87 H 0.88853 0.87895 0.05589 0.0
Li88 Li 0.01741 0.99936 0.4062 0.0
Li89 Li 0.05922 0.04046 0.42169 0.0
Li90 Li 0.9929 0.02109 0.42183 0.0
Li91 Li 0.03358 0.06043 0.40563 0.0
C92 C 0.01099 0.96298 0.42985 0.0
N93 N 0.00032 0.90234 0.44167 0.0
C94 C 0.039 0.95605 0.43111 0.0
C95 C 0.97761 0.9392 0.43462 0.0
C96 C 0.03305 0.92521 0.43712 0.0
C97 C 0.97273 0.90863 0.44055 0.0
C98 C 0.09413 0.06597 0.39765 0.0
C99 C 0.14303 0.12611 0.39604 0.0
N100 N 0.15021 0.1187 0.3848 0.0
C101 C 0.10207 0.05889 0.38612 0.0
C102 C 0.11483 0.09978 0.40269 0.0
C103 C 0.13051 0.08593 0.37976 0.0
C104 C 0.01308 0.96596 0.38413 0.0
N105 N 0.0074 0.95955 0.39619 0.0
C106 C 0.98939 0.89835 0.39322 0.0
C107 C 0.99532 0.92643 0.4008 0.0
C108 C 0.99546 0.90421 0.38072 0.0
C109 C 0.00714 0.93857 0.37619 0.0
H110 H 0.02211 0.99244 0.38068 0.0
H111 H 0.9904 0.92162 0.41034 0.0
C112 C 0.09325 0.04918 0.44409 0.0
N113 N 0.09788 0.04975 0.43193 0.0
C114 C 0.11949 0.05124 0.45196 0.0
C115 C 0.15521 0.0557 0.43461 0.0
C116 C 0.1282 0.05334 0.42709 0.0
C117 C 0.15072 0.05381 0.44723 0.0
H118 H 0.06855 0.04575 0.44765 0.0
H119 H 0.13092 0.05311 0.41738 0.0
C120 C 0.95901 0.99324 0.3971 0.0
N121 N 0.90828 0.93965 0.38279 0.0
C122 C 0.95647 0.99925 0.38481 0.0
C123 C 0.9356 0.9601 0.40215 0.0
C124 C 0.93065 0.97178 0.37772 0.0
C125 C 0.91019 0.93332 0.39476 0.0
C126 C 0.04101 0.09888 0.4292 0.0
C127 C 0.01235 0.10462 0.43078 0.0
C128 C 0.07456 0.12355 0.43372 0.0
C129 C 0.01783 0.13519 0.43681 0.0
C130 C 0.07895 0.1538 0.43968 0.0
N131 N 0.05074 0.15895 0.44109 0.0
C132 C 0.95994 0.01437 0.44427 0.0
C133 C 0.92426 0.00852 0.42715 0.0
C134 C 0.93382 0.01262 0.45202 0.0
N135 N 0.95486 0.01278 0.4321 0.0
C136 C 0.8974 0.00653 0.43456 0.0
C137 C 0.90229 0.00932 0.44717 0.0
H138 H 0.98483 0.01827 0.44791 0.0
H139 H 0.92118 0.00783 0.41742 0.0
C140 C 0.04292 0.09231 0.38297 0.0
N141 N 0.04211 0.09844 0.39498 0.0
C142 C 0.04525 0.11714 0.37446 0.0
C143 C 0.04659 0.15454 0.39082 0.0
C144 C 0.04462 0.12913 0.39902 0.0
C145 C 0.04616 0.14838 0.37833 0.0
H146 H 0.04077 0.06761 0.38 0.0
H147 H 0.04389 0.13355 0.40857 0.0
O148 O 0.01624 0.99308 0.4241 0.0
O149 O 0.06592 0.04012 0.40393 0.0
O150 O 0.98469 0.01944 0.40414 0.0
O151 O 0.03617 0.06898 0.42344 0.0
H152 H 0.06499 0.97422 0.42745 0.0
H153 H 0.95569 0.94426 0.43372 0.0
H154 H 0.05445 0.91946 0.43817 0.0
H155 H 0.94701 0.88992 0.44426 0.0
H156 H 0.15916 0.15244 0.3998 0.0
H157 H 0.08642 0.03283 0.38211 0.0
H158 H 0.10893 0.10567 0.4116 0.0
H159 H 0.13691 0.08087 0.3708 0.0
H160 H 0.98081 0.87249 0.39718 0.0
H161 H 0.01152 0.94426 0.36661 0.0
H162 H 0.11461 0.04913 0.4616 0.0
H163 H 0.17897 0.05808 0.43056 0.0
H164 H 0.97433 0.02476 0.38077 0.0
H165 H 0.9374 0.95501 0.41165 0.0
H166 H 0.92846 0.97599 0.36817 0.0
H167 H 0.89207 0.90745 0.39852 0.0
H168 H 0.98624 0.08584 0.4273 0.0
H169 H 0.09695 0.11934 0.43264 0.0
H170 H 0.99593 0.14005 0.43808 0.0
H171 H 0.10478 0.17317 0.44321 0.0
H172 H 0.93898 0.01542 0.46167 0.0
H173 H 0.8734 0.00359 0.43043 0.0
H174 H 0.04549 0.11148 0.36493 0.0
H175 H 0.04678 0.17795 0.39426 0.0
Li176 Li 0.03811 0.0159 0.74117 0.0
Li177 Li 0.03516 0.05562 0.75632 0.0
Li178 Li 0.98974 0.99218 0.7557 0.0
Li179 Li 0.99263 0.03374 0.74002 0.0
C180 C 0.06661 0.00566 0.76171 0.0
N181 N 0.1196 0.98972 0.76649 0.0
C182 C 0.0999 0.03215 0.76584 0.0
C183 C 0.06015 0.97102 0.76011 0.0
C184 C 0.12638 0.02356 0.76818 0.0
C185 C 0.08732 0.96351 0.76255 0.0
C186 C 0.04869 0.08502 0.72915 0.0
C187 C 0.04368 0.13278 0.71997 0.0
N188 N 0.05318 0.12532 0.70914 0.0
C189 C 0.05858 0.07792 0.71794 0.0
C190 C 0.04137 0.11278 0.7302 0.0
C191 C 0.06066 0.09858 0.70793 0.0
C192 C 0.05663 0.98259 0.72287 0.0
N193 N 0.06953 0.00692 0.73196 0.0
C194 C 0.12913 0.02196 0.72737 0.0
C195 C 0.105 0.02683 0.7342 0.0
C196 C 0.11663 0.99705 0.71792 0.0
C197 C 0.07989 0.97729 0.71564 0.0
H198 H 0.02834 0.96774 0.72109 0.0
H199 H 0.1146 0.04691 0.74119 0.0
C200 C 0.06271 0.08904 0.77891 0.0
N201 N 0.06396 0.09428 0.76675 0.0
C202 C 0.08553 0.1167 0.78659 0.0
C203 C 0.11082 0.15435 0.76904 0.0
C204 C 0.08726 0.12612 0.76173 0.0
C205 C 0.11028 0.14973 0.78164 0.0
H206 H 0.0445 0.06315 0.78262 0.0
H207 H 0.08806 0.12937 0.75202 0.0
C208 C 0.96107 0.952 0.73555 0.0
N209 N 0.90781 0.88283 0.73142 0.0
C210 C 0.92767 0.94501 0.73145 0.0
C211 C 0.9675 0.92388 0.73745 0.0
C212 C 0.90106 0.90983 0.72944 0.0
C213 C 0.94019 0.88908 0.73534 0.0
C214 C 0.97911 0.05159 0.76685 0.0
C215 C 0.96915 0.03548 0.77821 0.0
C216 C 0.98653 0.0866 0.76533 0.0
C217 C 0.96709 0.05486 0.78793 0.0
C218 C 0.98424 0.1051 0.77527 0.0
N219 N 0.97466 0.08899 0.78628 0.0
C220 C 0.97191 0.94236 0.77468 0.0
C221 C 0.92297 0.93681 0.76331 0.0
C222 C 0.94906 0.91491 0.78239 0.0
N223 N 0.95855 0.95262 0.76536 0.0
C224 C 0.89919 0.90894 0.77067 0.0
C225 C 0.91208 0.8978 0.78046 0.0
H226 H 0.00027 0.9561 0.77632 0.0
H227 H 0.91301 0.94622 0.75606 0.0
C228 C 0.96494 0.03853 0.7172 0.0
N229 N 0.96371 0.04289 0.72934 0.0
C230 C 0.94202 0.04303 0.70942 0.0
C231 C 0.91666 0.05574 0.72681 0.0
C232 C 0.94031 0.05141 0.73422 0.0
C233 C 0.91719 0.05132 0.71424 0.0
H234 H 0.98323 0.03085 0.7136 0.0
H235 H 0.93951 0.05415 0.74391 0.0
O236 O 0.04039 0.01356 0.75935 0.0
O237 O 0.04606 0.06482 0.73902 0.0
O238 O 0.98745 0.98624 0.73757 0.0
O239 O 0.98174 0.03324 0.75726 0.0
H240 H 0.10534 0.0591 0.76713 0.0
H241 H 0.03443 0.95018 0.75703 0.0
H242 H 0.15232 0.04381 0.77133 0.0
H243 H 0.08272 0.93684 0.76132 0.0
H244 H 0.03787 0.15421 0.72064 0.0
H245 H 0.06435 0.05655 0.71697 0.0
H246 H 0.03368 0.11861 0.73881 0.0
H247 H 0.06814 0.09331 0.69919 0.0
H248 H 0.15733 0.03817 0.72924 0.0
H249 H 0.06932 0.95792 0.7084 0.0
H250 H 0.08461 0.11199 0.79624 0.0
H251 H 0.12937 0.1795 0.76489 0.0
H252 H 0.92228 0.96648 0.72992 0.0
H253 H 0.99331 0.92889 0.7405 0.0
H254 H 0.87503 0.90399 0.72631 0.0
H255 H 0.94476 0.86704 0.7368 0.0
H256 H 0.9633 0.0084 0.77955 0.0
H257 H 0.99428 0.09943 0.75659 0.0
H258 H 0.95956 0.0428 0.7968 0.0
H259 H 0.99012 0.13229 0.77425 0.0
H260 H 0.96025 0.90784 0.78995 0.0
H261 H 0.87101 0.89638 0.76871 0.0
H262 H 0.94295 0.03902 0.69979 0.0
H263 H 0.89805 0.06237 0.73086 0.0
C264 C 0.93603 0.57647 0.3183 0.0
C265 C 0.9679 0.60901 0.31272 0.0
C266 C 0.97577 0.59607 0.29212 0.0
C267 C 0.01244 0.60946 0.29115 0.0
C268 C 0.02585 0.59444 0.28298 0.0
C269 C 0.00192 0.56516 0.27578 0.0
C270 C 0.96483 0.55208 0.27662 0.0
C271 C 0.9523 0.56828 0.28464 0.0
C272 C 0.06551 0.60943 0.28219 0.0
C273 C 0.93836 0.52041 0.26932 0.0
C274 C 0.01433 0.33677 0.30366 0.0
C275 C 0.00901 0.35698 0.29379 0.0
C276 C 0.03686 0.41685 0.28538 0.0
C277 C 0.00657 0.41079 0.27876 0.0
C278 C 0.00565 0.43856 0.27263 0.0
C279 C 0.03577 0.47312 0.27298 0.0
C280 C 0.06655 0.4793 0.27944 0.0
C281 C 0.06669 0.45097 0.28556 0.0
C282 C 0.97224 0.43097 0.26586 0.0
C283 C 0.0991 0.51583 0.27992 0.0
C284 C 0.07582 0.45218 0.19677 0.0
C285 C 0.04086 0.43668 0.20107 0.0
C286 C 0.02871 0.45755 0.20668 0.0
C287 C 0.05234 0.49448 0.20822 0.0
C288 C 0.08699 0.51036 0.20331 0.0
C289 C 0.0981 0.48896 0.19747 0.0
C290 C 0.99102 0.43992 0.2113 0.0
C291 C 0.11273 0.54967 0.20465 0.0
C292 C 0.93296 0.66849 0.20895 0.0
C293 C 0.96575 0.6682 0.20411 0.0
C294 C 0.97269 0.61602 0.2026 0.0
C295 C 0.95236 0.5791 0.2036 0.0
C296 C 0.96768 0.55913 0.20764 0.0
C297 C 0.00443 0.57666 0.21045 0.0
C298 C 0.02574 0.61366 0.20843 0.0
C299 C 0.0096 0.63306 0.20456 0.0
C300 C 0.94428 0.51959 0.20948 0.0
C301 C 0.06521 0.63289 0.21093 0.0
C302 C 0.0155 0.54679 0.268 0.0
C303 C 0.02333 0.52257 0.27356 0.0
C304 C 0.03427 0.50267 0.2668 0.0
C305 C 0.0387 0.50774 0.25417 0.0
C306 C 0.05098 0.4891 0.24719 0.0
C307 C 0.05311 0.49255 0.23467 0.0
C308 C 0.04226 0.51413 0.22862 0.0
C309 C 0.04186 0.51583 0.21583 0.0
C310 C 0.03034 0.5371 0.21013 0.0
C311 C 0.01939 0.55705 0.21689 0.0
C312 C 0.02025 0.55622 0.22968 0.0
C313 C 0.00988 0.57637 0.23676 0.0
C314 C 0.00945 0.57427 0.24933 0.0
C315 C 0.01836 0.55117 0.25529 0.0
C316 C 0.02982 0.53137 0.24836 0.0
C317 C 0.03112 0.53419 0.23555 0.0
C318 C 0.11874 0.40247 0.19903 0.0
C319 C 0.08287 0.40001 0.19661 0.0
O320 O 0.96253 0.60934 0.30036 0.0
O321 O 0.95573 0.63434 0.20001 0.0
O322 O 0.08888 0.43231 0.19202 0.0
O323 O 0.0379 0.39067 0.29185 0.0
H324 H 0.99203 0.60687 0.3146 0.0
H325 H 0.93315 0.55182 0.31423 0.0
H326 H 0.91112 0.57717 0.31663 0.0
H327 H 0.93994 0.57558 0.32822 0.0
H328 H 0.03046 0.63155 0.29683 0.0
H329 H 0.92401 0.55841 0.28545 0.0
H330 H 0.07238 0.58994 0.28601 0.0
H331 H 0.08064 0.63483 0.28724 0.0
H332 H 0.07407 0.614 0.27259 0.0
H333 H 0.91047 0.51118 0.27203 0.0
H334 H 0.94364 0.49804 0.2704 0.0
H335 H 0.94117 0.52754 0.25958 0.0
H336 H 0.99784 0.3418 0.28522 0.0
H337 H 0.97715 0.33143 0.31677 0.0
H338 H 0.04383 0.3506 0.30551 0.0
H339 H 0.01338 0.31321 0.29907 0.0
H340 H 0.98334 0.3845 0.27842 0.0
H341 H 0.08997 0.45543 0.29066 0.0
H342 H 0.97802 0.43576 0.25605 0.0
H343 H 0.96295 0.44923 0.26897 0.0
H344 H 0.95035 0.40314 0.26711 0.0
H345 H 0.12162 0.51591 0.28477 0.0
H346 H 0.09249 0.5344 0.28457 0.0
H347 H 0.10764 0.52603 0.27059 0.0
H348 H 0.06885 0.39425 0.20547 0.0
H349 H 0.0232 0.40829 0.20012 0.0
H350 H 0.12484 0.50065 0.1939 0.0
H351 H 0.99121 0.43763 0.2213 0.0
H352 H 0.97434 0.41284 0.20747 0.0
H353 H 0.97859 0.45621 0.20903 0.0
H354 H 0.13902 0.55777 0.20055 0.0
H355 H 0.11666 0.55696 0.21438 0.0
H356 H 0.10152 0.56495 0.20024 0.0
H357 H 0.98455 0.6755 0.2119 0.0
H358 H 0.94034 0.69549 0.21225 0.0
H359 H 0.92159 0.64959 0.21664 0.0
H360 H 0.91219 0.66039 0.20182 0.0
H361 H 0.92402 0.56618 0.20181 0.0
H362 H 0.02571 0.66153 0.20328 0.0
H363 H 0.94422 0.51306 0.21921 0.0
H364 H 0.95506 0.50515 0.20435 0.0
H365 H 0.91641 0.50983 0.20652 0.0
H366 H 0.07877 0.66053 0.20738 0.0
H367 H 0.07745 0.61827 0.20682 0.0
H368 H 0.06982 0.63389 0.22085 0.0
H369 H 0.01948 0.51809 0.28324 0.0
H370 H 0.05891 0.47151 0.25134 0.0
H371 H 0.06271 0.47748 0.22978 0.0
H372 H 0.02927 0.53763 0.20032 0.0
H373 H 0.00179 0.59393 0.23269 0.0
H374 H 0.00123 0.59037 0.2543 0.0
H375 H 0.13423 0.40821 0.19053 0.0
H376 H 0.11479 0.37716 0.20295 0.0
H377 H 0.13435 0.42418 0.2056 0.0
C378 C 0.39608 0.95206 0.65762 0.0
C379 C 0.38944 0.97808 0.65023 0.0
C380 C 0.40694 0.98056 0.62947 0.0
C381 C 0.42384 0.01685 0.62667 0.0
C382 C 0.45183 0.03174 0.61833 0.0
C383 C 0.46333 0.00983 0.61284 0.0
C384 C 0.44527 0.97286 0.61533 0.0
C385 C 0.41679 0.95858 0.62349 0.0
C386 C 0.4698 0.07104 0.61567 0.0
C387 C 0.45703 0.94871 0.60979 0.0
C388 C 0.68337 0.15958 0.65552 0.0
C389 C 0.67425 0.12488 0.6491 0.0
C390 C 0.65231 0.11303 0.62854 0.0
C391 C 0.63389 0.07582 0.62816 0.0
C392 C 0.60517 0.05738 0.62017 0.0
C393 C 0.5942 0.07668 0.61267 0.0
C394 C 0.61334 0.11438 0.61292 0.0
C395 C 0.64279 0.13206 0.62067 0.0
C396 C 0.58608 0.01728 0.61998 0.0
C397 C 0.60199 0.13608 0.60538 0.0
C398 C 0.6609 0.08989 0.53681 0.0
C399 C 0.64195 0.05402 0.54031 0.0
C400 C 0.60809 0.03964 0.54551 0.0
C401 C 0.59301 0.06161 0.54723 0.0
C402 C 0.61122 0.09718 0.54306 0.0
C403 C 0.64488 0.11076 0.53779 0.0
C404 C 0.58885 0.00128 0.54951 0.0
C405 C 0.59569 0.12118 0.54462 0.0
C406 C 0.29951 0.92977 0.54067 0.0
C407 C 0.33236 0.96419 0.53663 0.0
C408 C 0.39271 0.97358 0.53715 0.0
C409 C 0.40993 0.95391 0.53852 0.0
C410 C 0.44409 0.96924 0.54363 0.0
C411 C 0.4616 0.00536 0.54718 0.0
C412 C 0.44535 0.02612 0.54495 0.0
C413 C 0.41094 0.00995 0.53999 0.0
C414 C 0.46087 0.94649 0.54571 0.0
C415 C 0.46384 0.06505 0.54821 0.0
C416 C 0.4962 0.02604 0.60544 0.0
C417 C 0.52871 0.04287 0.6116 0.0
C418 C 0.56097 0.05754 0.6054 0.0
C419 C 0.56094 0.05476 0.59266 0.0
C420 C 0.59277 0.06755 0.58617 0.0
C421 C 0.59247 0.06544 0.5736 0.0
C422 C 0.56029 0.05034 0.56705 0.0
C423 C 0.55973 0.04833 0.55427 0.0
C424 C 0.52735 0.03367 0.54802 0.0
C425 C 0.49521 0.02048 0.55424 0.0
C426 C 0.49518 0.02164 0.56703 0.0
C427 C 0.46324 0.00793 0.57358 0.0
C428 C 0.46349 0.00939 0.58616 0.0
C429 C 0.49564 0.02455 0.59267 0.0
C430 C 0.52815 0.03871 0.58627 0.0
C431 C 0.52787 0.03688 0.57344 0.0
C432 C 0.75348 0.13128 0.54021 0.0
C433 C 0.72047 0.09718 0.536 0.0
O434 O 0.38221 0.96671 0.63832 0.0
O435 O 0.35849 0.95655 0.53319 0.0
O436 O 0.69461 0.10529 0.5325 0.0
O437 O 0.67855 0.13101 0.63675 0.0
H438 H 0.41429 0.00447 0.65083 0.0
H439 H 0.41971 0.95163 0.65402 0.0
H440 H 0.37286 0.92468 0.65709 0.0
H441 H 0.40131 0.96048 0.66725 0.0
H442 H 0.41548 0.03352 0.6312 0.0
H443 H 0.40326 0.93052 0.62571 0.0
H444 H 0.49642 0.08467 0.62006 0.0
H445 H 0.45423 0.08313 0.61909 0.0
H446 H 0.47377 0.07586 0.60577 0.0
H447 H 0.44169 0.92109 0.6133 0.0
H448 H 0.48573 0.95915 0.61166 0.0
H449 H 0.45353 0.94802 0.59982 0.0
H450 H 0.64586 0.10551 0.65122 0.0
H451 H 0.67978 0.15524 0.66544 0.0
H452 H 0.66542 0.1692 0.65225 0.0
H453 H 0.7113 0.18042 0.65366 0.0
H454 H 0.64188 0.06131 0.63419 0.0
H455 H 0.65743 0.16086 0.62107 0.0
H456 H 0.58028 0.0073 0.61052 0.0
H457 H 0.56033 0.00665 0.62477 0.0
H458 H 0.60182 0.00672 0.62449 0.0
H459 H 0.6163 0.16459 0.60801 0.0
H460 H 0.57294 0.12559 0.60628 0.0
H461 H 0.60754 0.13426 0.59571 0.0
H462 H 0.71142 0.07873 0.54389 0.0
H463 H 0.65362 0.0373 0.53905 0.0
H464 H 0.65948 0.13822 0.53483 0.0
H465 H 0.5869 3e-05 0.55953 0.0
H466 H 0.60262 0.98685 0.54656 0.0
H467 H 0.56132 0.98746 0.54582 0.0
H468 H 0.61274 0.14789 0.54058 0.0
H469 H 0.59235 0.12442 0.5544 0.0
H470 H 0.56894 0.10888 0.54034 0.0
H471 H 0.34127 0.98233 0.5446 0.0
H472 H 0.27821 0.93517 0.5436 0.0
H473 H 0.30651 0.91811 0.54843 0.0
H474 H 0.28919 0.91005 0.53318 0.0
H475 H 0.39583 0.92601 0.53606 0.0
H476 H 0.39822 0.02565 0.53844 0.0
H477 H 0.4658 0.94548 0.55554 0.0
H478 H 0.48699 0.9585 0.54108 0.0
H479 H 0.44389 0.91889 0.54234 0.0
H480 H 0.4498 0.07849 0.54448 0.0
H481 H 0.49158 0.07878 0.54479 0.0
H482 H 0.46513 0.06788 0.55821 0.0
H483 H 0.5289 0.04466 0.62139 0.0
H484 H 0.61829 0.07937 0.59073 0.0
H485 H 0.61786 0.07595 0.56911 0.0
H486 H 0.52715 0.03249 0.53821 0.0
H487 H 0.43763 0.99585 0.56908 0.0
H488 H 0.43814 0.99858 0.59071 0.0
H489 H 0.77459 0.12552 0.54318 0.0
H490 H 0.74658 0.14279 0.54799 0.0
H491 H 0.76401 0.15128 0.5328 0.0
C492 C 0.63545 0.56856 0.83751 0.0
C493 C 0.6418 0.59928 0.84585 0.0
C494 C 0.62345 0.58195 0.86654 0.0
C495 C 0.60772 0.60238 0.86937 0.0
C496 C 0.58045 0.59045 0.87796 0.0
C497 C 0.56852 0.55721 0.88371 0.0
C498 C 0.58549 0.5373 0.88121 0.0
C499 C 0.61328 0.55034 0.87278 0.0
C500 C 0.56364 0.61282 0.88063 0.0
C501 C 0.57326 0.50157 0.88704 0.0
C502 C 0.35037 0.48817 0.84234 0.0
C503 C 0.35736 0.46068 0.84851 0.0
C504 C 0.37894 0.47091 0.86905 0.0
C505 C 0.3967 0.45163 0.87018 0.0
C506 C 0.42582 0.46307 0.87807 0.0
C507 C 0.43783 0.49497 0.8847 0.0
C508 C 0.41938 0.51411 0.88369 0.0
C509 C 0.38958 0.5013 0.87604 0.0
C510 C 0.44429 0.44154 0.87907 0.0
C511 C 0.43187 0.54877 0.8903 0.0
C512 C 0.37592 0.45378 0.96195 0.0
C513 C 0.39053 0.43408 0.95713 0.0
C514 C 0.42388 0.45124 0.95148 0.0
C515 C 0.44247 0.48878 0.9504 0.0
C516 C 0.42841 0.5087 0.95572 0.0
C517 C 0.39548 0.49086 0.96162 0.0
C518 C 0.43882 0.42922 0.94642 0.0
C519 C 0.44758 0.54873 0.95484 0.0
C520 C 0.73661 0.64013 0.95928 0.0
C521 C 0.70358 0.64375 0.96081 0.0
C522 C 0.64207 0.59528 0.96021 0.0
C523 C 0.62316 0.55822 0.95955 0.0
C524 C 0.58945 0.54018 0.95407 0.0
C525 C 0.57403 0.55985 0.94947 0.0
C526 C 0.59208 0.59728 0.95087 0.0
C527 C 0.62613 0.61467 0.95613 0.0
C528 C 0.57085 0.50026 0.95285 0.0
C529 C 0.57576 0.61896 0.94656 0.0
C530 C 0.53615 0.54171 0.89134 0.0
C531 C 0.5033 0.5261 0.8854 0.0
C532 C 0.47139 0.50988 0.89182 0.0
C533 C 0.47209 0.50874 0.9046 0.0
C534 C 0.44054 0.4917 0.91135 0.0
C535 C 0.44152 0.4913 0.92393 0.0
C536 C 0.47411 0.5075 0.93025 0.0
C537 C 0.47538 0.50697 0.94304 0.0
C538 C 0.5082 0.52412 0.94904 0.0
C539 C 0.54006 0.54157 0.94258 0.0
C540 C 0.53937 0.54159 0.92978 0.0
C541 C 0.57096 0.55806 0.92299 0.0
C542 C 0.57 0.55829 0.91041 0.0
C543 C 0.53744 0.54184 0.90412 0.0
C544 C 0.50526 0.52509 0.91077 0.0
C545 C 0.50625 0.5247 0.92361 0.0
C546 C 0.28204 0.41344 0.96175 0.0
C547 C 0.31371 0.40725 0.96247 0.0
O548 O 0.64768 0.59172 0.85754 0.0
O549 O 0.67569 0.61148 0.96472 0.0
O550 O 0.34295 0.43782 0.96687 0.0
O551 O 0.3524 0.4613 0.86086 0.0
H552 H 0.61725 0.60138 0.84538 0.0
H553 H 0.6114 0.54378 0.84049 0.0
H554 H 0.65847 0.56403 0.83775 0.0
H555 H 0.63107 0.57432 0.82805 0.0
H556 H 0.61647 0.62739 0.86471 0.0
H557 H 0.62598 0.53503 0.87057 0.0
H558 H 0.53662 0.6001 0.87655 0.0
H559 H 0.57943 0.64015 0.8769 0.0
H560 H 0.56076 0.61453 0.89054 0.0
H561 H 0.58797 0.48858 0.88361 0.0
H562 H 0.5444 0.4837 0.88531 0.0
H563 H 0.57713 0.50484 0.89698 0.0
H564 H 0.38553 0.46844 0.84654 0.0
H565 H 0.35452 0.48836 0.83242 0.0
H566 H 0.36908 0.51508 0.84595 0.0
H567 H 0.32272 0.48221 0.84405 0.0
H568 H 0.3879 0.42786 0.86478 0.0
H569 H 0.37547 0.51588 0.87504 0.0
H570 H 0.45009 0.43884 0.88869 0.0
H571 H 0.47003 0.45549 0.8742 0.0
H572 H 0.42812 0.41459 0.87509 0.0
H573 H 0.41731 0.56249 0.88735 0.0
H574 H 0.46076 0.56687 0.88881 0.0
H575 H 0.42775 0.54364 0.90016 0.0
H576 H 0.3188 0.40166 0.95308 0.0
H577 H 0.37583 0.40533 0.95776 0.0
H578 H 0.38411 0.50574 0.96555 0.0
H579 H 0.43683 0.42876 0.9364 0.0
H580 H 0.42425 0.40136 0.94976 0.0
H581 H 0.46739 0.44115 0.94885 0.0
H582 H 0.43211 0.56014 0.95889 0.0
H583 H 0.45295 0.55703 0.94521 0.0
H584 H 0.47362 0.56012 0.95957 0.0
H585 H 0.69744 0.65058 0.95171 0.0
H586 H 0.75931 0.66551 0.95597 0.0
H587 H 0.73113 0.619 0.95256 0.0
H588 H 0.74417 0.63291 0.96802 0.0
H589 H 0.63555 0.54354 0.96292 0.0
H590 H 0.64027 0.64335 0.95702 0.0
H591 H 0.56456 0.49264 0.94318 0.0
H592 H 0.54529 0.48808 0.95784 0.0
H593 H 0.58715 0.48905 0.95642 0.0
H594 H 0.5906 0.64677 0.94993 0.0
H595 H 0.54767 0.60657 0.94957 0.0
H596 H 0.57579 0.61961 0.93652 0.0
H597 H 0.50257 0.52658 0.87558 0.0
H598 H 0.41471 0.47857 0.90697 0.0
H599 H 0.41632 0.4781 0.92862 0.0
H600 H 0.50895 0.52395 0.95885 0.0
H601 H 0.59684 0.57099 0.92732 0.0
H602 H 0.59512 0.57155 0.90566 0.0
H603 H 0.27553 0.41932 0.97086 0.0
H604 H 0.25832 0.38961 0.95801 0.0
H605 H 0.28854 0.43636 0.9557 0.0
C606 C 0.97324 0.13795 0.13207 0.0
C607 C 0.98063 0.14761 0.11981 0.0
C608 C 0.9756 0.16256 0.14066 0.0
C609 C 0.98641 0.25319 0.14427 0.0
H610 H 0.03266 0.25217 0.17426 0.0
C611 C 0.06535 0.37539 0.17528 0.0
C612 C 0.06122 0.37003 0.18785 0.0
C613 C 0.04849 0.34662 0.16733 0.0
C614 C 0.01922 0.25252 0.16602 0.0
H615 H 0.99393 0.19028 0.10695 0.0
H616 H -0.00014 0.23358 0.12196 0.0
H617 H 0.01563 0.20446 0.15973 0.0
H618 H 0.03637 0.33047 0.20195 0.0
H619 H 0.00711 0.28007 0.18804 0.0
H620 H 0.9919 0.30249 0.15044 0.0
C621 C 0.99166 0.20682 0.12495 0.0
C622 C 0.00928 0.22505 0.15767 0.0
C623 C 0.98883 0.18206 0.11633 0.0
C624 C 0.03957 0.33538 0.19229 0.0
C625 C 0.02303 0.30658 0.18436 0.0
C626 C 0.99679 0.28094 0.15257 0.0
C627 C 0.98587 0.19765 0.13727 0.0
C628 C 0.99318 0.22522 0.1466 0.0
C629 C 0.02775 0.31186 0.1718 0.0
C630 C 0.01369 0.28107 0.16346 0.0
H631 H 0.96706 0.1118 0.13515 0.0
H632 H 0.97017 0.15426 0.15003 0.0
H633 H 0.97347 0.25391 0.13596 0.0
H634 H 0.08248 0.40168 0.1716 0.0
H635 H 0.05302 0.35139 0.15771 0.0
C636 C 0.86782 0.99527 0.46661 0.0
C637 C 0.87598 0.01151 0.45514 0.0
C638 C 0.84545 0.00011 0.47447 0.0
C639 C 0.81634 0.0645 0.48078 0.0
H640 H 0.74782 0.99091 0.50191 0.0
C641 C 0.73277 0.09402 0.51377 0.0
C642 C 0.72991 0.08094 0.5256 0.0
C643 C 0.74558 0.08188 0.50445 0.0
C644 C 0.767 0.01177 0.4961 0.0
H645 H 0.86628 0.0449 0.44287 0.0
H646 H 0.82681 0.05266 0.45645 0.0
H647 H 0.77946 0.97603 0.48688 0.0
H648 H 0.73821 0.045 0.53695 0.0
H649 H 0.76106 0.02405 0.52072 0.0
H650 H 0.80473 0.10044 0.49011 0.0
C651 C 0.83801 0.03652 0.45942 0.0
C652 C 0.78509 0.00324 0.48751 0.0
C653 C 0.86032 0.0317 0.45157 0.0
C654 C 0.73961 0.05507 0.52787 0.0
C655 C 0.75257 0.04302 0.51856 0.0
C656 C 0.79836 0.07302 0.48936 0.0
C657 C 0.83086 0.02136 0.47104 0.0
C658 C 0.81013 0.02959 0.4798 0.0
C659 C 0.75631 0.05676 0.50678 0.0
C660 C 0.77364 0.04685 0.49719 0.0
H661 H 0.87912 0.97923 0.46957 0.0
H662 H 0.84062 0.98823 0.48339 0.0
H663 H 0.83595 0.08558 0.47514 0.0
H664 H 0.72595 0.11432 0.51178 0.0
H665 H 0.74771 0.09269 0.49545 0.0
C666 C 0.85412 0.86589 0.79168 0.0
C667 C 0.88706 0.86906 0.78871 0.0
C668 C 0.83028 0.83858 0.79923 0.0
C669 C 0.80878 0.74995 0.81078 0.0
H670 H 0.74787 0.76504 0.83258 0.0
C671 C 0.7079 0.63904 0.84212 0.0
C672 C 0.67322 0.63375 0.84155 0.0
C673 C 0.73637 0.6695 0.83708 0.0
C674 C 0.7647 0.76046 0.82652 0.0
H675 H 0.92073 0.84589 0.79154 0.0
H676 H 0.87978 0.79915 0.80508 0.0
H677 H 0.79364 0.81507 0.82117 0.0
H678 H 0.6413 0.65654 0.83558 0.0
H679 H 0.69104 0.70988 0.82688 0.0
H680 H 0.77973 0.6953 0.81616 0.0
C681 C 0.87205 0.81738 0.80134 0.0
C682 C 0.79082 0.78906 0.81994 0.0
C683 C 0.89577 0.84453 0.79369 0.0
C684 C 0.66777 0.66002 0.83619 0.0
C685 C 0.69625 0.69059 0.83126 0.0
C686 C 0.78288 0.72144 0.81745 0.0
C687 C 0.83887 0.81389 0.80414 0.0
C688 C 0.81282 0.78406 0.81182 0.0
C689 C 0.73074 0.69537 0.83147 0.0
C690 C 0.76022 0.72629 0.82525 0.0
H691 H 0.84668 0.88462 0.78821 0.0
H692 H 0.80482 0.8365 0.80103 0.0
H693 H 0.82481 0.74492 0.8045 0.0
H694 H 0.7128 0.61919 0.84621 0.0
H695 H 0.76274 0.67267 0.83746 0.0
C696 C 0.05586 0.88538 0.12094 0.0
C697 C 0.04094 0.90677 0.12362 0.0
C698 C 0.05555 0.86151 0.12953 0.0
C699 C 0.04146 0.83885 0.16225 0.0
H700 H 0.011 0.74321 0.15114 0.0
C701 C 0.01417 0.72709 0.19599 0.0
C702 C 0.9825 0.69489 0.19398 0.0
C703 C 0.02793 0.75324 0.18701 0.0
C704 C 0.01954 0.7698 0.15438 0.0
H705 H 0.01415 0.91996 0.13743 0.0
H706 H 0.01346 0.87845 0.15233 0.0
H707 H 0.02295 0.78976 0.13643 0.0
H708 H 0.94076 0.66434 0.18097 0.0
H709 H 0.96422 0.71019 0.16538 0.0
H710 H 0.03615 0.81857 0.1802 0.0
C711 C 0.02609 0.88053 0.14371 0.0
C712 C 0.02682 0.7966 0.14595 0.0
C713 C 0.02645 0.90436 0.13515 0.0
C714 C 0.96534 0.6889 0.18271 0.0
C715 C 0.97896 0.71509 0.17376 0.0
C716 C 0.03405 0.81206 0.17068 0.0
C717 C 0.04026 0.85853 0.14096 0.0
C718 C 0.03703 0.83124 0.1498 0.0
C719 C 0.0101 0.74783 0.17588 0.0
C720 C 0.0222 0.77702 0.16686 0.0
H721 H 0.06761 0.88694 0.11217 0.0
H722 H 0.06707 0.84524 0.12719 0.0
H723 H 0.04983 0.8654 0.1655 0.0
H724 H 0.02791 0.73234 0.2046 0.0
H725 H 0.05223 0.77794 0.18887 0.0
C726 C 0.18534 0.06801 0.46676 0.0
C727 C 0.17695 0.05155 0.45533 0.0
C728 C 0.20752 0.06299 0.47476 0.0
C729 C 0.23575 0.99789 0.48143 0.0
H730 H 0.30479 0.07122 0.50262 0.0
C731 C 0.31985 0.96789 0.5144 0.0
C732 C 0.32279 0.98067 0.52625 0.0
C733 C 0.30691 0.98021 0.5051 0.0
C734 C 0.28547 0.05044 0.4968 0.0
H735 H 0.18609 0.01754 0.44329 0.0
H736 H 0.22531 0.00958 0.45709 0.0
H737 H 0.27322 0.08641 0.48749 0.0
H738 H 0.31458 0.01632 0.53767 0.0
H739 H 0.29154 0.03763 0.52146 0.0
H740 H 0.24724 0.96174 0.49082 0.0
C741 C 0.21439 0.026 0.45993 0.0
C742 C 0.2674 0.05914 0.48815 0.0
C743 C 0.19224 0.03097 0.45195 0.0
C744 C 0.31309 0.00646 0.52857 0.0
C745 C 0.30003 0.01872 0.51928 0.0
C746 C 0.25373 0.98921 0.49006 0.0
C747 C 0.22171 0.04133 0.47152 0.0
C748 C 0.24222 0.03289 0.4804 0.0
C749 C 0.29616 0.00524 0.50747 0.0
C750 C 0.27868 0.0153 0.49789 0.0
H751 H 0.17434 0.08437 0.46959 0.0
H752 H 0.21249 0.07502 0.48365 0.0
H753 H 0.216 0.97687 0.47578 0.0
H754 H 0.3267 0.94766 0.51238 0.0
H755 H 0.30468 0.96961 0.49608 0.0
C756 C 0.12523 0.18791 0.80019 0.0
C757 C 0.13621 0.17896 0.78948 0.0
C758 C 0.1497 0.21628 0.80734 0.0
C759 C 0.2378 0.29809 0.80534 0.0
H760 H 0.23256 0.29593 0.84037 0.0
C761 C 0.34508 0.41069 0.83417 0.0
C762 C 0.33288 0.42406 0.84339 0.0
C763 C 0.32181 0.37878 0.82839 0.0
C764 C 0.2342 0.29694 0.83059 0.0
H765 H 0.18157 0.19153 0.77814 0.0
H766 H 0.22434 0.24048 0.79067 0.0
H767 H 0.19051 0.24377 0.82872 0.0
H768 H 0.28678 0.41451 0.8538 0.0
H769 H 0.24594 0.35847 0.8437 0.0
H770 H 0.28144 0.35111 0.80718 0.0
C771 C 0.19671 0.2264 0.7934 0.0
C772 C 0.21007 0.26712 0.82391 0.0
C773 C 0.17223 0.1983 0.78622 0.0
C774 C 0.29699 0.4045 0.84686 0.0
C775 C 0.27368 0.37245 0.84109 0.0
C776 C 0.26198 0.3277 0.81201 0.0
C777 C 0.1857 0.23608 0.80397 0.0
C778 C 0.21156 0.26738 0.81119 0.0
C779 C 0.28572 0.35961 0.83164 0.0
C780 C 0.26044 0.32751 0.8247 0.0
H781 H 0.09756 0.17354 0.80288 0.0
H782 H 0.14019 0.22324 0.81533 0.0
H783 H 0.2393 0.29959 0.79556 0.0
H784 H 0.37252 0.42539 0.83125 0.0
H785 H 0.33195 0.36935 0.82124 0.0
C786 C 0.85523 0.03773 0.70957 0.0
C787 C 0.89125 0.05445 0.70631 0.0
C788 C 0.83082 0.04163 0.70241 0.0
C789 C 0.81754 0.07071 0.6721 0.0
H790 H 0.74767 0.0844 0.68928 0.0
C791 C 0.73333 0.12615 0.65013 0.0
C792 C 0.69767 0.11083 0.65378 0.0
C793 C 0.75591 0.11584 0.6556 0.0
C794 C 0.76667 0.08013 0.68433 0.0
H795 H 0.92995 0.08782 0.69292 0.0
H796 H 0.88742 0.09541 0.68051 0.0
H797 H 0.78919 0.07328 0.70061 0.0
H798 H 0.65756 0.07246 0.66583 0.0
H799 H 0.69684 0.05422 0.67529 0.0
H800 H 0.79527 0.07855 0.6558 0.0
C801 C 0.87787 0.07872 0.68848 0.0
C802 C 0.7905 0.07369 0.69083 0.0
C803 C 0.90227 0.07452 0.6956 0.0
C804 C 0.68485 0.0845 0.66279 0.0
C805 C 0.7074 0.07427 0.66826 0.0
C806 C 0.79376 0.07739 0.66558 0.0
C807 C 0.8419 0.06267 0.69189 0.0
C808 C 0.81624 0.06888 0.68482 0.0
C809 C 0.74334 0.09031 0.66489 0.0
C810 C 0.76806 0.08215 0.67164 0.0
H811 H 0.84587 0.02151 0.71765 0.0
H812 H 0.80321 0.02818 0.70516 0.0
H813 H 0.83675 0.06671 0.66717 0.0
H814 H 0.744 0.14688 0.64333 0.0
H815 H 0.78357 0.12895 0.6529 0.0
C816 C 0.8524 0.90394 0.02634 0.0
C817 C 0.85263 0.89378 0.03842 0.0
C818 C 0.8297 0.87916 0.01782 0.0
C819 C 0.75259 0.78696 0.01424 0.0
H820 H 0.79795 0.7917 0.98362 0.0
C821 C 0.70989 0.66703 0.98226 0.0
C822 C 0.71118 0.6731 0.96972 0.0
C823 C 0.72135 0.69529 0.9904 0.0
C824 C 0.78461 0.79028 0.99203 0.0
H825 H 0.82725 0.84999 0.05114 0.0
H826 H 0.78889 0.80652 0.03621 0.0
H827 H 0.82841 0.83907 0.9983 0.0
H828 H 0.72511 0.71329 0.95589 0.0
H829 H 0.74514 0.76274 0.97011 0.0
H830 H 0.70941 0.73714 0.00805 0.0
C831 C 0.8059 0.83375 0.03332 0.0
C832 C 0.80205 0.81754 0.00047 0.0
C833 C 0.82835 0.85861 0.04187 0.0
C834 C 0.72349 0.70785 0.96551 0.0
C835 C 0.73513 0.73612 0.97363 0.0
C836 C 0.73525 0.75948 0.00581 0.0
C837 C 0.80692 0.8435 0.02112 0.0
C838 C 0.78652 0.81605 0.01175 0.0
C839 C 0.73481 0.73024 0.98615 0.0
C840 C 0.75131 0.76067 0.99469 0.0
H841 H 0.87082 0.93068 0.02331 0.0
H842 H 0.83071 0.88782 0.00856 0.0
H843 H 0.73957 0.7852 0.02275 0.0
H844 H 0.70114 0.64061 0.98575 0.0
H845 H 0.72126 0.69 -2e-05 0.0
C846 C 0.96299 0.83977 0.37464 0.0
C847 C 0.99051 0.87484 0.37257 0.0
C848 C 0.95979 0.81183 0.3675 0.0
C849 C 0.98424 0.79011 0.3383 0.0
H850 H 0.97314 0.70685 0.35527 0.0
C851 C 0.95297 0.65844 0.31454 0.0
C852 C 0.97269 0.64263 0.31851 0.0
C853 C 0.95566 0.68792 0.32059 0.0
C854 C 0.97639 0.72998 0.35041 0.0
H855 H 0.03584 0.90791 0.36115 0.0
H856 H 0.02965 0.85914 0.34854 0.0
H857 H 0.97588 0.75608 0.36673 0.0
H858 H 0.00992 0.64473 0.33205 0.0
H859 H 0.01461 0.69621 0.34264 0.0
H860 H 0.98482 0.76388 0.32196 0.0
C861 C 0.01059 0.85342 0.3557 0.0
C862 C 0.97759 0.75798 0.35696 0.0
C863 C 0.01403 0.88136 0.36292 0.0
C864 C 0.99487 0.65673 0.32869 0.0
C865 C 0.99733 0.68598 0.33479 0.0
C866 C 0.98264 0.76187 0.33172 0.0
C867 C 0.98377 0.81833 0.35805 0.0
C868 C 0.98165 0.78838 0.35098 0.0
C869 C 0.97757 0.70172 0.33086 0.0
C870 C 0.97892 0.73163 0.33773 0.0
H871 H 0.9439 0.83381 0.3818 0.0
H872 H 0.93852 0.78507 0.36939 0.0
H873 H 0.98722 0.81317 0.33347 0.0
H874 H 0.93503 0.64763 0.30688 0.0
H875 H 0.93977 0.69925 0.31746 0.0
C876 C 0.14011 0.99326 0.69765 0.0
C877 C 0.14206 0.99252 0.71033 0.0
C878 C 0.16554 0.9912 0.69052 0.0
C879 C 0.25683 0.00479 0.69246 0.0
H880 H 0.23238 0.95546 0.66167 0.0
C881 C 0.36545 0.0126 0.66117 0.0
C882 C 0.35891 0.98106 0.65546 0.0
C883 C 0.33801 0.01463 0.66694 0.0
C884 C 0.23961 0.96913 0.67029 0.0
H885 H 0.17104 0.98757 0.7255 0.0
H886 H 0.21477 0.98286 0.71312 0.0
H887 H 0.18591 0.95571 0.67389 0.0
H888 H 0.31835 0.92725 0.65096 0.0
H889 H 0.27044 0.93033 0.66135 0.0
H890 H 0.31016 0.01705 0.68914 0.0
C891 C 0.19439 0.98619 0.70863 0.0
C892 C 0.21302 0.96964 0.67724 0.0
C893 C 0.16926 0.98869 0.71574 0.0
C894 C 0.32409 0.95187 0.65532 0.0
C895 C 0.29665 0.95376 0.66121 0.0
C896 C 0.28329 0.00404 0.68558 0.0
C897 C 0.19322 0.98798 0.69594 0.0
C898 C 0.2213 0.98739 0.68844 0.0
C899 C 0.30342 0.985 0.66727 0.0
C900 C 0.27507 0.98624 0.6744 0.0
H901 H 0.11956 0.99654 0.69326 0.0
H902 H 0.16404 0.99313 0.68079 0.0
H903 H 0.26438 0.01925 0.70093 0.0
H904 H 0.39198 0.03559 0.66135 0.0
H905 H 0.34405 0.03937 0.67127 0.0
C906 C 0.15241 0.13916 0.02337 0.0
C907 C 0.15824 0.1461 0.03585 0.0
C908 C 0.17471 0.16425 0.0149 0.0
C909 C 0.25993 0.25079 0.01149 0.0
H910 H 0.21025 0.26092 0.98387 0.0
C911 C 0.30915 0.3794 0.98314 0.0
C912 C 0.30472 0.37562 0.97051 0.0
C913 C 0.29642 0.34942 0.99058 0.0
C914 C 0.22465 0.25812 0.99143 0.0
H915 H 0.19388 0.18429 0.04911 0.0
H916 H 0.23131 0.22879 0.0344 0.0
H917 H 0.17834 0.21191 0.99782 0.0
H918 H 0.28374 0.33769 0.9558 0.0
H919 H 0.26114 0.28524 0.96882 0.0
H920 H 0.3058 0.29852 0.00528 0.0
C921 C 0.20989 0.20364 0.03112 0.0
C922 C 0.2064 0.22987 0.99944 0.0
C923 C 0.18795 0.17826 0.0396 0.0
C924 C 0.28788 0.34133 0.96549 0.0
C925 C 0.27483 0.31139 0.97292 0.0
C926 C 0.27808 0.27943 0.00354 0.0
C927 C 0.20307 0.19731 0.01865 0.0
C928 C 0.22365 0.22594 0.00965 0.0
C929 C 0.2784 0.31513 0.98555 0.0
C930 C 0.26048 0.28349 0.9935 0.0
H931 H 0.12976 0.11495 0.02006 0.0
H932 H 0.16909 0.15799 0.00538 0.0
H933 H 0.2743 0.24835 0.01912 0.0
H934 H 0.3214 0.40546 0.98729 0.0
H935 H 0.29909 0.35303 0.0003 0.0
C936 C 0.02141 0.15907 0.35926 0.0
C937 C 0.04365 0.17286 0.36947 0.0
C938 C 0.01626 0.18143 0.35148 0.0
C939 C 0.05151 0.27556 0.34267 0.0
H940 H 0.95446 0.23974 0.33173 0.0
C941 C 0.01355 0.38091 0.31512 0.0
C942 C 0.98436 0.35704 0.30195 0.0
C943 C 0.02327 0.35351 0.32487 0.0
C944 C 0.98179 0.24998 0.33455 0.0
H945 H 0.07916 0.22138 0.37916 0.0
H946 H 0.06925 0.26034 0.36574 0.0
H947 H 0.96833 0.20294 0.34462 0.0
H948 H 0.93411 0.29543 0.29458 0.0
H949 H 0.95043 0.2547 0.31136 0.0
H950 H 0.06464 0.32288 0.33265 0.0
C951 C 0.05611 0.23219 0.36371 0.0
C952 C 0.98977 0.22885 0.34196 0.0
C953 C 0.06146 0.20979 0.37148 0.0
C954 C 0.95291 0.30836 0.30189 0.0
C955 C 0.96452 0.28338 0.31204 0.0
C956 C 0.04342 0.29682 0.33529 0.0
C957 C 0.03292 0.21814 0.35375 0.0
C958 C 0.02477 0.2412 0.34601 0.0
C959 C -7e-05 0.30572 0.32302 0.0
C960 C 0.00854 0.28402 0.33109 0.0
H961 H 0.00688 0.13076 0.35748 0.0
H962 H 0.99875 0.16981 0.34376 0.0
H963 H 0.07879 0.28576 0.34556 0.0
H964 H 0.0291 0.40962 0.31552 0.0
H965 H 0.04315 0.36588 0.33189 0.0
loop_
_geom_bond_atom_site_label_1
_geom_bond_atom_site_label_2
_geom_bond_distance
_geom_bond_site_symmetry_2
_ccdc_geom_bond_type
Li0 N17 1.990 . S
Li0 O60 1.956 . S
Li0 O61 1.986 . S
Li0 O62 1.961 1_545 S
Li1 N25 1.991 . S
Li1 O60 1.969 1_655 S
Li1 O61 1.956 1_655 S
Li1 O63 1.961 1_545 S
Li2 N47 1.990 . S
Li2 O60 1.961 1_565 S
Li2 O62 1.956 . S
Li2 O63 1.970 1_455 S
Li3 N53 1.990 . S
Li3 O61 1.961 1_665 S
Li3 O62 1.970 1_655 S
Li3 O63 1.956 . S
C4 C6 1.348 . S
C4 C7 1.356 . S
C4 O60 1.325 . S
N5 C8 1.314 . S
N5 C9 1.279 . S
C6 C4 1.348 . S
C6 C8 1.353 . S
C6 H64 0.929 . S
C7 C4 1.356 . S
C7 C9 1.358 . S
C7 H65 0.930 . S
C8 N5 1.314 . S
C8 C6 1.353 . S
C8 H66 0.930 . S
C9 N5 1.279 . S
C9 C7 1.358 . S
C9 H67 0.930 . S
C10 C13 1.348 1_655 S
C10 C14 1.356 . S
C10 O61 1.315 1_655 S
C11 N12 1.279 . S
C11 C14 1.358 . S
C11 H68 0.930 . S
N12 C11 1.279 . S
N12 C15 1.314 1_655 S
C13 C10 1.348 1_455 S
C13 C15 1.353 . S
C13 H69 0.929 . S
C14 C10 1.356 . S
C14 C11 1.358 . S
C14 H70 0.930 . S
C15 N12 1.314 1_455 S
C15 C13 1.353 . S
C15 H71 0.930 . S
C16 N17 1.314 . S
C16 C21 1.353 . S
C16 H22 0.930 . S
N17 Li0 1.990 . S
N17 C16 1.314 . S
N17 C19 1.279 . S
C18 C19 1.358 . S
C18 C20 1.356 . S
C18 H72 0.930 . S
C19 N17 1.279 . S
C19 C18 1.358 . S
C19 H23 0.930 . S
C20 C18 1.356 . S
C20 C21 1.348 . S
C21 C16 1.353 . S
C21 C20 1.348 . S
C21 H73 0.929 . S
H22 C16 0.930 . S
H23 C19 0.930 . S
C24 N25 1.314 . S
C24 C26 1.353 . S
C24 H30 0.930 . S
N25 Li1 1.991 . S
N25 C24 1.314 . S
N25 C28 1.279 . S
C26 C24 1.353 . S
C26 C29 1.348 . S
C26 H74 0.929 . S
C27 C28 1.358 . S
C27 C29 1.356 . S
C27 H75 0.930 . S
C28 N25 1.279 . S
C28 C27 1.358 . S
C28 H31 0.930 . S
C29 C26 1.348 . S
C29 C27 1.356 . S
H30 C24 0.930 . S
H31 C28 0.930 . S
C32 C34 1.348 . S
C32 C35 1.356 . S
C32 O62 1.325 . S
N33 C36 1.314 . S
N33 C37 1.279 . S
C34 C32 1.348 . S
C34 C36 1.353 . S
C34 H76 0.929 1_455 S
C35 C32 1.356 . S
C35 C37 1.358 . S
C35 H77 0.930 . S
C36 N33 1.314 . S
C36 C34 1.353 . S
C36 H78 0.930 1_455 S
C37 N33 1.279 . S
C37 C35 1.358 . S
C37 H79 0.930 . S
C38 C39 1.348 . S
C38 C40 1.356 . S
C38 O63 1.325 . S
C39 C38 1.348 . S
C39 C41 1.353 . S
C39 H80 0.929 . S
C40 C38 1.356 . S
C40 C42 1.358 . S
C40 H81 0.930 . S
C41 C39 1.353 . S
C41 N43 1.314 . S
C41 H82 0.930 . S
C42 C40 1.358 . S
C42 N43 1.279 . S
C42 H83 0.930 . S
N43 C41 1.314 . S
N43 C42 1.279 . S
C44 C46 1.353 . S
C44 N47 1.314 . S
C44 H50 0.930 . S
C45 N47 1.279 . S
C45 C48 1.358 . S
C45 H51 0.930 . S
C46 C44 1.353 . S
C46 C49 1.348 . S
C46 H84 0.929 . S
N47 Li2 1.990 . S
N47 C44 1.314 . S
N47 C45 1.279 . S
C48 C45 1.358 . S
C48 C49 1.356 . S
C48 H85 0.930 . S
C49 C46 1.348 . S
C49 C48 1.356 . S
H50 C44 0.930 . S
H51 C45 0.930 . S
C52 N53 1.314 . S
C52 C54 1.353 . S
C52 H58 0.930 . S
N53 Li3 1.990 . S
N53 C52 1.314 . S
N53 C56 1.279 . S
C54 C52 1.353 . S
C54 C57 1.348 . S
C54 H86 0.929 . S
C55 C56 1.358 . S
C55 C57 1.356 . S
C55 H87 0.930 . S
C56 N53 1.279 . S
C56 C55 1.358 . S
C56 H59 0.930 . S
C57 C54 1.348 . S
C57 C55 1.356 . S
H58 C52 0.930 . S
H59 C56 0.930 . S
O60 Li0 1.956 . S
O60 Li1 1.969 1_455 S
O60 Li2 1.961 1_545 S
O60 C4 1.325 . S
O61 Li0 1.986 . S
O61 Li1 1.956 1_455 S
O61 Li3 1.961 1_445 S
O61 C10 1.315 1_455 S
O62 Li0 1.961 1_565 S
O62 Li2 1.956 . S
O62 Li3 1.970 1_455 S
O62 C32 1.325 . S
O63 Li1 1.961 1_565 S
O63 Li2 1.970 1_655 S
O63 Li3 1.956 . S
O63 C38 1.325 . S
H64 C6 0.929 . S
H65 C7 0.930 . S
H66 C8 0.930 . S
H67 C9 0.930 . S
H68 C11 0.930 . S
H69 C13 0.929 . S
H70 C14 0.930 . S
H71 C15 0.930 . S
H72 C18 0.930 . S
H73 C21 0.929 . S
H74 C26 0.929 . S
H75 C27 0.930 . S
H76 C34 0.929 1_655 S
H77 C35 0.930 . S
H78 C36 0.930 1_655 S
H79 C37 0.930 . S
H80 C39 0.929 . S
H81 C40 0.930 . S
H82 C41 0.930 . S
H83 C42 0.930 . S
H84 C46 0.929 . S
H85 C48 0.930 . S
H86 C54 0.929 . S
H87 C55 0.930 . S
Li88 N105 1.990 1_455 S
Li88 O148 1.956 . S
Li88 O149 1.970 1_565 S
Li88 O150 1.961 1_465 S
Li89 N113 1.990 . S
Li89 O148 1.970 1_545 S
Li89 O149 1.956 . S
Li89 O151 1.961 . S
Li90 N135 1.990 . S
Li90 O148 1.961 1_645 S
Li90 O150 1.956 . S
Li90 O151 1.970 1_655 S
Li91 N141 1.990 . S
Li91 O149 1.961 . S
Li91 O150 1.970 1_455 S
Li91 O151 1.956 . S
C92 C94 1.348 . S
C92 C95 1.356 1_455 S
C92 O148 1.325 . S
N93 C96 1.314 1_655 S
N93 C97 1.279 . S
C94 C92 1.348 . S
C94 C96 1.353 . S
C94 H152 0.929 . S
C95 C92 1.356 1_655 S
C95 C97 1.358 . S
C95 H153 0.930 . S
C96 N93 1.314 1_455 S
C96 C94 1.353 . S
C96 H154 0.930 . S
C97 N93 1.279 . S
C97 C95 1.358 . S
C97 H155 0.930 . S
C98 C101 1.348 . S
C98 C102 1.356 . S
C98 O149 1.325 . S
C99 N100 1.279 . S
C99 C102 1.358 . S
C99 H156 0.930 . S
N100 C99 1.279 . S
N100 C103 1.314 . S
C101 C98 1.348 . S
C101 C103 1.353 . S
C101 H157 0.929 1_545 S
C102 C98 1.356 . S
C102 C99 1.358 . S
C102 H158 0.930 . S
C103 N100 1.314 . S
C103 C101 1.353 . S
C103 H159 0.930 . S
C104 N105 1.314 . S
C104 C109 1.353 . S
C104 H110 0.930 . S
N105 Li88 1.990 1_655 S
N105 C104 1.314 . S
N105 C107 1.279 . S
C106 C107 1.358 . S
C106 C108 1.356 . S
C106 H160 0.930 . S
C107 N105 1.279 . S
C107 C106 1.358 . S
C107 H111 0.924 1_655 S
C108 C106 1.356 . S
C108 C109 1.348 . S
C109 C104 1.353 . S
C109 C108 1.348 . S
C109 H161 0.929 . S
H110 C104 0.930 . S
H111 C107 0.924 1_455 S
C112 N113 1.314 . S
C112 C114 1.353 . S
C112 H118 0.930 . S
N113 Li89 1.990 . S
N113 C112 1.314 . S
N113 C116 1.279 . S
C114 C112 1.353 . S
C114 C117 1.348 . S
C114 H162 0.929 . S
C115 C116 1.358 . S
C115 C117 1.356 . S
C115 H163 0.930 . S
C116 N113 1.279 . S
C116 C115 1.358 . S
C116 H119 0.930 . S
C117 C114 1.348 . S
C117 C115 1.356 . S
H118 C112 0.930 . S
H119 C116 0.930 . S
C120 C122 1.348 . S
C120 C123 1.356 1_545 S
C120 O150 1.325 . S
N121 C124 1.314 1_565 S
N121 C125 1.279 . S
C122 C120 1.348 . S
C122 C124 1.353 . S
C122 H164 0.929 . S
C123 C120 1.356 1_565 S
C123 C125 1.358 . S
C123 H165 0.930 . S
C124 N121 1.314 1_545 S
C124 C122 1.353 . S
C124 H166 0.930 . S
C125 N121 1.279 . S
C125 C123 1.358 . S
C125 H167 0.930 . S
C126 C127 1.348 . S
C126 C128 1.356 . S
C126 O151 1.325 . S
C127 C126 1.348 . S
C127 C129 1.353 . S
C127 H168 0.929 1_455 S
C128 C126 1.356 . S
C128 C130 1.358 . S
C128 H169 0.930 . S
C129 C127 1.353 . S
C129 N131 1.314 . S
C129 H170 0.930 . S
C130 C128 1.358 . S
C130 N131 1.279 . S
C130 H171 0.930 . S
N131 C129 1.314 . S
N131 C130 1.279 . S
C132 C134 1.353 . S
C132 N135 1.314 1_565 S
C132 H138 0.930 . S
C133 N135 1.279 . S
C133 C136 1.358 1_545 S
C133 H139 0.930 . S
C134 C132 1.353 . S
C134 C137 1.348 . S
C134 H172 0.929 . S
N135 Li90 1.990 . S
N135 C132 1.314 1_545 S
N135 C133 1.279 . S
C136 C133 1.358 1_565 S
C136 C137 1.356 . S
C136 H173 0.930 . S
C137 C134 1.348 . S
C137 C136 1.356 . S
H138 C132 0.930 . S
H139 C133 0.930 . S
C140 N141 1.314 . S
C140 C142 1.353 . S
C140 H146 0.930 . S
N141 Li91 1.990 . S
N141 C140 1.314 . S
N141 C144 1.279 . S
C142 C140 1.353 . S
C142 C145 1.348 . S
C142 H174 0.929 . S
C143 C144 1.358 . S
C143 C145 1.356 . S
C143 H175 0.930 . S
C144 N141 1.279 . S
C144 C143 1.358 . S
C144 H147 0.930 . S
C145 C142 1.348 . S
C145 C143 1.356 . S
H146 C140 0.930 . S
H147 C144 0.930 . S
O148 Li88 1.956 . S
O148 Li89 1.970 1_565 S
O148 Li90 1.961 1_465 S
O148 C92 1.325 . S
O149 Li88 1.970 1_545 S
O149 Li89 1.956 . S
O149 Li91 1.961 . S
O149 C98 1.325 . S
O150 Li88 1.961 1_645 S
O150 Li90 1.956 . S
O150 Li91 1.970 1_655 S
O150 C120 1.325 . S
O151 Li89 1.961 . S
O151 Li90 1.970 1_455 S
O151 Li91 1.956 . S
O151 C126 1.325 . S
H152 C94 0.929 . S
H153 C95 0.930 . S
H154 C96 0.930 . S
H155 C97 0.930 . S
H156 C99 0.930 . S
H157 C101 0.929 1_565 S
H158 C102 0.930 . S
H159 C103 0.930 . S
H160 C106 0.930 . S
H161 C109 0.929 . S
H162 C114 0.929 . S
H163 C115 0.930 . S
H164 C122 0.929 . S
H165 C123 0.930 . S
H166 C124 0.930 . S
H167 C125 0.930 . S
H168 C127 0.929 1_655 S
H169 C128 0.930 . S
H170 C129 0.930 . S
H171 C130 0.930 . S
H172 C134 0.929 . S
H173 C136 0.930 . S
H174 C142 0.929 . S
H175 C143 0.930 . S
Li176 N193 1.990 . S
Li176 O236 1.956 . S
Li176 O237 1.970 . S
Li176 O238 1.961 1_445 S
Li177 N201 1.990 . S
Li177 O236 1.970 . S
Li177 O237 1.956 . S
Li177 O239 1.961 1_455 S
Li178 N223 1.990 . S
Li178 O236 1.961 1_665 S
Li178 O238 1.956 . S
Li178 O239 1.970 1_565 S
Li179 N229 1.990 . S
Li179 O237 1.961 1_655 S
Li179 O238 1.970 1_545 S
Li179 O239 1.956 . S
C180 C182 1.348 . S
C180 C183 1.356 1_545 S
C180 O236 1.325 . S
N181 C184 1.314 1_565 S
N181 C185 1.279 . S
C182 C180 1.348 . S
C182 C184 1.353 . S
C182 H240 0.929 . S
C183 C180 1.356 1_565 S
C183 C185 1.358 . S
C183 H241 0.930 . S
C184 N181 1.314 1_545 S
C184 C182 1.353 . S
C184 H242 0.930 . S
C185 N181 1.279 . S
C185 C183 1.358 . S
C185 H243 0.930 . S
C186 C189 1.348 . S
C186 C190 1.356 . S
C186 O237 1.325 . S
C187 N188 1.279 . S
C187 C190 1.358 . S
C187 H244 0.930 . S
N188 C187 1.279 . S
N188 C191 1.314 . S
C189 C186 1.348 . S
C189 C191 1.353 . S
C189 H245 0.929 . S
C190 C186 1.356 . S
C190 C187 1.358 . S
C190 H246 0.930 . S
C191 N188 1.314 . S
C191 C189 1.353 . S
C191 H247 0.930 . S
C192 N193 1.314 1_565 S
C192 C197 1.353 . S
C192 H198 0.930 . S
N193 Li176 1.990 . S
N193 C192 1.314 1_545 S
N193 C195 1.279 . S
C194 C195 1.358 1_565 S
C194 C196 1.356 . S
C194 H248 0.930 . S
C195 N193 1.279 . S
C195 C194 1.358 1_545 S
C195 H199 0.930 . S
C196 C194 1.356 . S
C196 C197 1.348 . S
C197 C192 1.353 . S
C197 C196 1.348 . S
C197 H249 0.929 . S
H198 C192 0.930 . S
H199 C195 0.930 . S
C200 N201 1.314 . S
C200 C202 1.353 . S
C200 H206 0.930 . S
N201 Li177 1.990 . S
N201 C200 1.314 . S
N201 C204 1.279 . S
C202 C200 1.353 . S
C202 C205 1.348 . S
C202 H250 0.929 . S
C203 C204 1.358 . S
C203 C205 1.356 . S
C203 H251 0.930 . S
C204 N201 1.279 . S
C204 C203 1.358 . S
C204 H207 0.930 . S
C205 C202 1.348 . S
C205 C203 1.356 . S
H206 C200 0.930 . S
H207 C204 0.930 . S
C208 C210 1.348 . S
C208 C211 1.356 . S
C208 O238 1.325 . S
N209 C212 1.314 . S
N209 C213 1.279 . S
C210 C208 1.348 . S
C210 C212 1.353 . S
C210 H252 0.929 . S
C211 C208 1.356 . S
C211 C213 1.358 . S
C211 H253 0.930 . S
C212 N209 1.314 . S
C212 C210 1.353 . S
C212 H254 0.930 . S
C213 N209 1.279 . S
C213 C211 1.358 . S
C213 H255 0.930 . S
C214 C215 1.348 . S
C214 C216 1.356 . S
C214 O239 1.325 . S
C215 C214 1.348 . S
C215 C217 1.353 . S
C215 H256 0.929 1_545 S
C216 C214 1.356 . S
C216 C218 1.358 . S
C216 H257 0.930 . S
C217 C215 1.353 . S
C217 N219 1.314 . S
C217 H258 0.930 . S
C218 C216 1.358 . S
C218 N219 1.279 . S
C218 H259 0.930 . S
N219 C217 1.314 . S
N219 C218 1.279 . S
C220 C222 1.353 . S
C220 N223 1.314 . S
C220 H226 0.930 . S
C221 N223 1.279 . S
C221 C224 1.358 . S
C221 H227 0.930 . S
C222 C220 1.353 . S
C222 C225 1.348 . S
C222 H260 0.929 . S
N223 Li178 1.990 . S
N223 C220 1.314 . S
N223 C221 1.279 . S
C224 C221 1.358 . S
C224 C225 1.356 . S
C224 H261 0.930 . S
C225 C222 1.348 . S
C225 C224 1.356 . S
H226 C220 0.930 . S
H227 C221 0.930 . S
C228 N229 1.314 . S
C228 C230 1.353 . S
C228 H234 0.930 . S
N229 Li179 1.990 . S
N229 C228 1.314 . S
N229 C232 1.279 . S
C230 C228 1.353 . S
C230 C233 1.348 . S
C230 H262 0.929 . S
C231 C232 1.358 . S
C231 C233 1.356 . S
C231 H263 0.930 . S
C232 N229 1.279 . S
C232 C231 1.358 . S
C232 H235 0.930 . S
C233 C230 1.348 . S
C233 C231 1.356 . S
H234 C228 0.930 . S
H235 C232 0.930 . S
O236 Li176 1.956 . S
O236 Li177 1.970 . S
O236 Li178 1.961 1_445 S
O236 C180 1.325 . S
O237 Li176 1.970 . S
O237 Li177 1.956 . S
O237 Li179 1.961 1_455 S
O237 C186 1.325 . S
O238 Li176 1.961 1_665 S
O238 Li178 1.956 . S
O238 Li179 1.970 1_565 S
O238 C208 1.325 . S
O239 Li177 1.961 1_655 S
O239 Li178 1.970 1_545 S
O239 Li179 1.956 . S
O239 C214 1.325 . S
H240 C182 0.929 . S
H241 C183 0.930 . S
H242 C184 0.930 . S
H243 C185 0.930 . S
H244 C187 0.930 . S
H245 C189 0.929 . S
H246 C190 0.930 . S
H247 C191 0.930 . S
H248 C194 0.930 . S
H249 C197 0.929 . S
H250 C202 0.929 . S
H251 C203 0.930 . S
H252 C210 0.929 . S
H253 C211 0.930 . S
H254 C212 0.930 . S
H255 C213 0.930 . S
H256 C215 0.929 1_565 S
H257 C216 0.930 . S
H258 C217 0.930 . S
H259 C218 0.930 . S
H260 C222 0.929 . S
H261 C224 0.930 . S
H262 C230 0.929 . S
H263 C231 0.930 . S
C264 C265 1.560 . S
C264 H325 0.959 . S
C264 H326 0.959 . S
C264 H327 0.960 . S
C265 C264 1.560 . S
C265 O320 1.426 . S
C265 H324 0.980 1_655 S
C266 C267 1.407 1_655 S
C266 C271 1.418 . S
C266 O320 1.334 . S
C267 C266 1.407 1_455 S
C267 C268 1.360 . S
C267 H328 0.929 . S
C268 C267 1.360 . S
C268 C269 1.401 . S
C268 C272 1.527 . S
C269 C268 1.401 . S
C269 C270 1.405 1_455 S
C269 C302 1.587 . S
C270 C269 1.405 1_655 S
C270 C271 1.332 . S
C270 C273 1.496 . S
C271 C266 1.418 . S
C271 C270 1.332 . S
C271 H329 0.929 . S
C272 C268 1.527 . S
C272 H330 0.959 . S
C272 H331 0.961 . S
C272 H332 0.961 . S
C273 C270 1.496 . S
C273 H333 0.960 . S
C273 H334 0.960 . S
C273 H335 0.961 . S
C274 C275 1.517 . S
C274 H337 0.961 . S
C274 H338 0.960 . S
C274 H339 0.959 . S
C275 C274 1.517 . S
C275 O323 1.468 . S
C275 H336 0.980 . S
C276 C277 1.349 . S
C276 C281 1.367 . S
C276 O323 1.408 . S
C277 C276 1.349 . S
C277 C278 1.407 . S
C277 H340 0.930 . S
C278 C277 1.407 . S
C278 C279 1.449 . S
C278 C282 1.535 1_455 S
C279 C278 1.449 . S
C279 C280 1.384 . S
C279 C304 1.553 . S
C280 C279 1.384 . S
C280 C281 1.364 . S
C280 C283 1.450 . S
C281 C276 1.367 . S
C281 C280 1.364 . S
C281 H341 0.931 . S
C282 C278 1.535 1_655 S
C282 H342 0.959 . S
C282 H343 0.961 . S
C282 H344 0.959 . S
C283 C280 1.450 . S
C283 H345 0.960 . S
C283 H346 0.960 . S
C283 H347 0.960 . S
C284 C285 1.309 . S
C284 C289 1.304 . S
C284 O322 1.435 . S
C285 C284 1.309 . S
C285 C286 1.476 . S
C285 H349 0.930 1_455 S
C286 C285 1.476 . S
C286 C287 1.400 . S
C286 C290 1.567 1_455 S
C287 C286 1.400 . S
C287 C288 1.373 . S
C287 C309 1.432 . S
C288 C287 1.373 . S
C288 C289 1.339 . S
C288 C291 1.530 . S
C289 C284 1.304 . S
C289 C288 1.339 . S
C289 H350 0.930 . S
C290 C286 1.567 1_655 S
C290 H351 0.961 . S
C290 H352 0.960 . S
C290 H353 0.958 . S
C291 C288 1.530 . S
C291 H354 0.961 . S
C291 H355 0.960 . S
C291 H356 0.960 . S
C292 C293 1.530 1_655 S
C292 H358 0.961 . S
C292 H359 0.961 . S
C292 H360 0.959 . S
C293 C292 1.530 1_455 S
C293 O321 1.412 1_455 S
C293 H357 0.980 . S
C294 C295 1.288 . S
C294 C299 1.377 1_655 S
C294 O321 1.393 . S
C295 C294 1.288 . S
C295 C296 1.369 . S
C295 H361 0.932 . S
C296 C295 1.369 . S
C296 C297 1.398 1_655 S
C296 C300 1.527 . S
C297 C296 1.398 1_455 S
C297 C298 1.380 . S
C297 C311 1.497 . S
C298 C297 1.380 . S
C298 C299 1.383 . S
C298 C301 1.603 . S
C299 C294 1.377 1_455 S
C299 C298 1.383 . S
C299 H362 0.929 . S
C300 C296 1.527 . S
C300 H363 0.961 . S
C300 H364 0.959 . S
C300 H365 0.959 . S
C301 C298 1.603 . S
C301 H366 0.960 . S
C301 H367 0.962 . S
C301 H368 0.961 . S
C302 C269 1.587 . S
C302 C303 1.360 . S
C302 C315 1.412 . S
C303 C302 1.360 . S
C303 C304 1.365 . S
C303 H369 0.929 . S
C304 C279 1.553 . S
C304 C303 1.365 . S
C304 C305 1.404 . S
C305 C304 1.404 . S
C305 C306 1.395 . S
C305 C316 1.451 . S
C306 C305 1.395 . S
C306 C307 1.322 . S
C306 H370 0.930 . S
C307 C306 1.322 . S
C307 C308 1.459 . S
C307 H371 0.929 . S
C308 C307 1.459 . S
C308 C309 1.445 . S
C308 C317 1.395 . S
C309 C287 1.432 . S
C309 C308 1.445 . S
C309 C310 1.370 . S
C310 C309 1.370 . S
C310 C311 1.438 . S
C310 H372 0.930 . S
C311 C297 1.497 . S
C311 C310 1.438 . S
C311 C312 1.360 . S
C312 C311 1.360 . S
C312 C313 1.401 . S
C312 C317 1.446 . S
C313 C312 1.401 . S
C313 C314 1.347 . S
C313 H373 0.929 . S
C314 C313 1.347 . S
C314 C315 1.455 . S
C314 H374 0.930 . S
C315 C302 1.412 . S
C315 C314 1.455 . S
C315 C316 1.331 . S
C316 C305 1.451 . S
C316 C315 1.331 . S
C316 C317 1.497 . S
C317 C308 1.395 . S
C317 C312 1.446 . S
C317 C316 1.497 . S
C318 C319 1.582 . S
C318 H375 0.962 . S
C318 H376 0.959 . S
C318 H377 0.958 . S
C319 C318 1.582 . S
C319 O322 1.458 . S
C319 H348 0.980 . S
O320 C265 1.426 . S
O320 C266 1.334 . S
O321 C293 1.412 1_655 S
O321 C294 1.393 . S
O322 C284 1.435 . S
O322 C319 1.458 . S
O323 C275 1.468 . S
O323 C276 1.408 . S
H324 C265 0.980 1_455 S
H325 C264 0.959 . S
H326 C264 0.959 . S
H327 C264 0.960 . S
H328 C267 0.929 . S
H329 C271 0.929 . S
H330 C272 0.959 . S
H331 C272 0.961 . S
H332 C272 0.961 . S
H333 C273 0.960 . S
H334 C273 0.960 . S
H335 C273 0.961 . S
H336 C275 0.980 . S
H337 C274 0.961 . S
H338 C274 0.960 . S
H339 C274 0.959 . S
H340 C277 0.930 . S
H341 C281 0.931 . S
H342 C282 0.959 . S
H343 C282 0.961 . S
H344 C282 0.959 . S
H345 C283 0.960 . S
H346 C283 0.960 . S
H347 C283 0.960 . S
H348 C319 0.980 . S
H349 C285 0.930 1_655 S
H350 C289 0.930 . S
H351 C290 0.961 . S
H352 C290 0.960 . S
H353 C290 0.958 . S
H354 C291 0.961 . S
H355 C291 0.960 . S
H356 C291 0.960 . S
H357 C293 0.980 . S
H358 C292 0.961 . S
H359 C292 0.961 . S
H360 C292 0.959 . S
H361 C295 0.932 . S
H362 C299 0.929 . S
H363 C300 0.961 . S
H364 C300 0.959 . S
H365 C300 0.959 . S
H366 C301 0.960 . S
H367 C301 0.962 . S
H368 C301 0.961 . S
H369 C303 0.929 . S
H370 C306 0.930 . S
H371 C307 0.929 . S
H372 C310 0.930 . S
H373 C313 0.929 . S
H374 C314 0.930 . S
H375 C318 0.962 . S
H376 C318 0.959 . S
H377 C318 0.958 . S
C378 C379 1.560 1_565 S
C378 H439 0.959 . S
C378 H440 0.959 . S
C378 H441 0.960 . S
C379 C378 1.560 1_545 S
C379 O434 1.426 1_545 S
C379 H438 0.980 . S
C380 C381 1.407 . S
C380 C385 1.418 1_545 S
C380 O434 1.334 1_545 S
C381 C380 1.407 . S
C381 C382 1.360 . S
C381 H442 0.929 . S
C382 C381 1.360 . S
C382 C383 1.401 . S
C382 C386 1.527 . S
C383 C382 1.401 . S
C383 C384 1.405 1_545 S
C383 C416 1.587 . S
C384 C383 1.405 1_565 S
C384 C385 1.332 . S
C384 C387 1.496 . S
C385 C380 1.418 1_565 S
C385 C384 1.332 . S
C385 H443 0.929 . S
C386 C382 1.527 . S
C386 H444 0.959 . S
C386 H445 0.961 . S
C386 H446 0.961 . S
C387 C384 1.496 . S
C387 H447 0.960 . S
C387 H448 0.960 . S
C387 H449 0.961 . S
C388 C389 1.517 . S
C388 H451 0.961 . S
C388 H452 0.960 . S
C388 H453 0.959 . S
C389 C388 1.517 . S
C389 O437 1.468 . S
C389 H450 0.980 . S
C390 C391 1.349 . S
C390 C395 1.367 . S
C390 O437 1.408 . S
C391 C390 1.349 . S
C391 C392 1.407 . S
C391 H454 0.930 . S
C392 C391 1.407 . S
C392 C393 1.449 . S
C392 C396 1.535 1_545 S
C393 C392 1.449 . S
C393 C394 1.384 . S
C393 C418 1.553 . S
C394 C393 1.384 . S
C394 C395 1.364 . S
C394 C397 1.450 . S
C395 C390 1.367 . S
C395 C394 1.364 . S
C395 H455 0.931 . S
C396 C392 1.535 1_565 S
C396 H456 0.959 . S
C396 H457 0.961 . S
C396 H458 0.959 . S
C397 C394 1.450 . S
C397 H459 0.960 . S
C397 H460 0.960 . S
C397 H461 0.960 . S
C398 C399 1.309 . S
C398 C403 1.304 . S
C398 O436 1.435 . S
C399 C398 1.309 . S
C399 C400 1.476 . S
C399 H463 0.930 . S
C400 C399 1.476 . S
C400 C401 1.400 . S
C400 C404 1.567 1_545 S
C401 C400 1.400 . S
C401 C402 1.373 . S
C401 C423 1.432 . S
C402 C401 1.373 . S
C402 C403 1.339 . S
C402 C405 1.530 . S
C403 C398 1.304 . S
C403 C402 1.339 . S
C403 H464 0.930 . S
C404 C400 1.567 1_565 S
C404 H465 0.961 . S
C404 H466 0.960 . S
C404 H467 0.958 . S
C405 C402 1.530 . S
C405 H468 0.961 . S
C405 H469 0.960 . S
C405 H470 0.960 . S
C406 C407 1.530 1_565 S
C406 H472 0.961 1_565 S
C406 H473 0.961 . S
C406 H474 0.959 . S
C407 C406 1.530 1_545 S
C407 O435 1.412 1_545 S
C407 H471 0.980 . S
C408 C409 1.288 1_545 S
C408 C413 1.377 . S
C408 O435 1.393 1_545 S
C409 C408 1.288 1_565 S
C409 C410 1.369 . S
C409 H475 0.932 . S
C410 C409 1.369 . S
C410 C411 1.398 1_565 S
C410 C414 1.527 . S
C411 C410 1.398 1_545 S
C411 C412 1.380 . S
C411 C425 1.497 . S
C412 C411 1.380 . S
C412 C413 1.383 . S
C412 C415 1.603 . S
C413 C408 1.377 . S
C413 C412 1.383 . S
C413 H476 0.929 . S
C414 C410 1.527 . S
C414 H477 0.961 . S
C414 H478 0.959 . S
C414 H479 0.959 . S
C415 C412 1.603 . S
C415 H480 0.960 . S
C415 H481 0.962 . S
C415 H482 0.961 . S
C416 C383 1.587 . S
C416 C417 1.360 . S
C416 C429 1.412 . S
C417 C416 1.360 . S
C417 C418 1.365 . S
C417 H483 0.929 . S
C418 C393 1.553 . S
C418 C417 1.365 . S
C418 C419 1.404 . S
C419 C418 1.404 . S
C419 C420 1.395 . S
C419 C430 1.451 . S
C420 C419 1.395 . S
C420 C421 1.322 . S
C420 H484 0.930 . S
C421 C420 1.322 . S
C421 C422 1.459 . S
C421 H485 0.929 . S
C422 C421 1.459 . S
C422 C423 1.445 . S
C422 C431 1.395 . S
C423 C401 1.432 . S
C423 C422 1.445 . S
C423 C424 1.370 . S
C424 C423 1.370 . S
C424 C425 1.438 . S
C424 H486 0.930 . S
C425 C411 1.497 . S
C425 C424 1.438 . S
C425 C426 1.360 . S
C426 C425 1.360 . S
C426 C427 1.401 . S
C426 C431 1.446 . S
C427 C426 1.401 . S
C427 C428 1.347 . S
C427 H487 0.929 . S
C428 C427 1.347 . S
C428 C429 1.455 . S
C428 H488 0.930 . S
C429 C416 1.412 . S
C429 C428 1.455 . S
C429 C430 1.331 . S
C430 C419 1.451 . S
C430 C429 1.331 . S
C430 C431 1.497 . S
C431 C422 1.395 . S
C431 C426 1.446 . S
C431 C430 1.497 . S
C432 C433 1.582 . S
C432 H489 0.962 . S
C432 H490 0.959 . S
C432 H491 0.958 . S
C433 C432 1.582 . S
C433 O436 1.458 . S
C433 H462 0.980 . S
O434 C379 1.426 1_565 S
O434 C380 1.334 1_565 S
O435 C407 1.412 1_565 S
O435 C408 1.393 1_565 S
O436 C398 1.435 . S
O436 C433 1.458 . S
O437 C389 1.468 . S
O437 C390 1.408 . S
H438 C379 0.980 . S
H439 C378 0.959 . S
H440 C378 0.959 . S
H441 C378 0.960 . S
H442 C381 0.929 . S
H443 C385 0.929 . S
H444 C386 0.959 . S
H445 C386 0.961 . S
H446 C386 0.961 . S
H447 C387 0.960 . S
H448 C387 0.960 . S
H449 C387 0.961 . S
H450 C389 0.980 . S
H451 C388 0.961 . S
H452 C388 0.960 . S
H453 C388 0.959 . S
H454 C391 0.930 . S
H455 C395 0.931 . S
H456 C396 0.959 . S
H457 C396 0.961 . S
H458 C396 0.959 . S
H459 C397 0.960 . S
H460 C397 0.960 . S
H461 C397 0.960 . S
H462 C433 0.980 . S
H463 C399 0.930 . S
H464 C403 0.930 . S
H465 C404 0.961 . S
H466 C404 0.960 . S
H467 C404 0.958 . S
H468 C405 0.961 . S
H469 C405 0.960 . S
H470 C405 0.960 . S
H471 C407 0.980 . S
H472 C406 0.961 1_545 S
H473 C406 0.961 . S
H474 C406 0.959 . S
H475 C409 0.932 . S
H476 C413 0.929 . S
H477 C414 0.961 . S
H478 C414 0.959 . S
H479 C414 0.959 . S
H480 C415 0.960 . S
H481 C415 0.962 . S
H482 C415 0.961 . S
H483 C417 0.929 . S
H484 C420 0.930 . S
H485 C421 0.929 . S
H486 C424 0.930 . S
H487 C427 0.929 . S
H488 C428 0.930 . S
H489 C432 0.962 . S
H490 C432 0.959 . S
H491 C432 0.958 . S
C492 C493 1.560 . S
C492 H553 0.959 . S
C492 H554 0.959 . S
C492 H555 0.960 . S
C493 C492 1.560 . S
C493 O548 1.426 . S
C493 H552 0.980 . S
C494 C495 1.407 . S
C494 C499 1.418 . S
C494 O548 1.334 . S
C495 C494 1.407 . S
C495 C496 1.360 . S
C495 H556 0.929 . S
C496 C495 1.360 . S
C496 C497 1.401 . S
C496 C500 1.527 . S
C497 C496 1.401 . S
C497 C498 1.405 . S
C497 C530 1.587 . S
C498 C497 1.405 . S
C498 C499 1.332 . S
C498 C501 1.496 . S
C499 C494 1.418 . S
C499 C498 1.332 . S
C499 H557 0.929 . S
C500 C496 1.527 . S
C500 H558 0.959 . S
C500 H559 0.961 . S
C500 H560 0.961 . S
C501 C498 1.496 . S
C501 H561 0.960 . S
C501 H562 0.960 . S
C501 H563 0.961 . S
C502 C503 1.517 . S
C502 H565 0.961 . S
C502 H566 0.960 . S
C502 H567 0.959 . S
C503 C502 1.517 . S
C503 O551 1.468 . S
C503 H564 0.980 . S
C504 C505 1.349 . S
C504 C509 1.367 . S
C504 O551 1.408 . S
C505 C504 1.349 . S
C505 C506 1.407 . S
C505 H568 0.930 . S
C506 C505 1.407 . S
C506 C507 1.449 . S
C506 C510 1.535 . S
C507 C506 1.449 . S
C507 C508 1.384 . S
C507 C532 1.553 . S
C508 C507 1.384 . S
C508 C509 1.364 . S
C508 C511 1.450 . S
C509 C504 1.367 . S
C509 C508 1.364 . S
C509 H569 0.931 . S
C510 C506 1.535 . S
C510 H570 0.959 . S
C510 H571 0.961 . S
C510 H572 0.959 . S
C511 C508 1.450 . S
C511 H573 0.960 . S
C511 H574 0.960 . S
C511 H575 0.960 . S
C512 C513 1.309 . S
C512 C517 1.304 . S
C512 O550 1.435 . S
C513 C512 1.309 . S
C513 C514 1.476 . S
C513 H577 0.930 . S
C514 C513 1.476 . S
C514 C515 1.400 . S
C514 C518 1.567 . S
C515 C514 1.400 . S
C515 C516 1.373 . S
C515 C537 1.432 . S
C516 C515 1.373 . S
C516 C517 1.339 . S
C516 C519 1.530 . S
C517 C512 1.304 . S
C517 C516 1.339 . S
C517 H578 0.930 . S
C518 C514 1.567 . S
C518 H579 0.961 . S
C518 H580 0.960 . S
C518 H581 0.958 . S
C519 C516 1.530 . S
C519 H582 0.961 . S
C519 H583 0.960 . S
C519 H584 0.960 . S
C520 C521 1.530 . S
C520 H586 0.961 . S
C520 H587 0.961 . S
C520 H588 0.959 . S
C521 C520 1.530 . S
C521 O549 1.412 . S
C521 H585 0.980 . S
C522 C523 1.288 . S
C522 C527 1.377 . S
C522 O549 1.393 . S
C523 C522 1.288 . S
C523 C524 1.369 . S
C523 H589 0.932 . S
C524 C523 1.369 . S
C524 C525 1.398 . S
C524 C528 1.527 . S
C525 C524 1.398 . S
C525 C526 1.380 . S
C525 C539 1.497 . S
C526 C525 1.380 . S
C526 C527 1.383 . S
C526 C529 1.603 . S
C527 C522 1.377 . S
C527 C526 1.383 . S
C527 H590 0.929 . S
C528 C524 1.527 . S
C528 H591 0.961 . S
C528 H592 0.959 . S
C528 H593 0.959 . S
C529 C526 1.603 . S
C529 H594 0.960 . S
C529 H595 0.962 . S
C529 H596 0.961 . S
C530 C497 1.587 . S
C530 C531 1.360 . S
C530 C543 1.412 . S
C531 C530 1.360 . S
C531 C532 1.365 . S
C531 H597 0.929 . S
C532 C507 1.553 . S
C532 C531 1.365 . S
C532 C533 1.404 . S
C533 C532 1.404 . S
C533 C534 1.395 . S
C533 C544 1.451 . S
C534 C533 1.395 . S
C534 C535 1.322 . S
C534 H598 0.930 . S
C535 C534 1.322 . S
C535 C536 1.459 . S
C535 H599 0.929 . S
C536 C535 1.459 . S
C536 C537 1.445 . S
C536 C545 1.395 . S
C537 C515 1.432 . S
C537 C536 1.445 . S
C537 C538 1.370 . S
C538 C537 1.370 . S
C538 C539 1.438 . S
C538 H600 0.930 . S
C539 C525 1.497 . S
C539 C538 1.438 . S
C539 C540 1.360 . S
C540 C539 1.360 . S
C540 C541 1.401 . S
C540 C545 1.446 . S
C541 C540 1.401 . S
C541 C542 1.347 . S
C541 H601 0.929 . S
C542 C541 1.347 . S
C542 C543 1.455 . S
C542 H602 0.930 . S
C543 C530 1.412 . S
C543 C542 1.455 . S
C543 C544 1.331 . S
C544 C533 1.451 . S
C544 C543 1.331 . S
C544 C545 1.497 . S
C545 C536 1.395 . S
C545 C540 1.446 . S
C545 C544 1.497 . S
C546 C547 1.582 . S
C546 H603 0.962 . S
C546 H604 0.959 . S
C546 H605 0.958 . S
C547 C546 1.582 . S
C547 O550 1.458 . S
C547 H576 0.980 . S
O548 C493 1.426 . S
O548 C494 1.334 . S
O549 C521 1.412 . S
O549 C522 1.393 . S
O550 C512 1.435 . S
O550 C547 1.458 . S
O551 C503 1.468 . S
O551 C504 1.408 . S
H552 C493 0.980 . S
H553 C492 0.959 . S
H554 C492 0.959 . S
H555 C492 0.960 . S
H556 C495 0.929 . S
H557 C499 0.929 . S
H558 C500 0.959 . S
H559 C500 0.961 . S
H560 C500 0.961 . S
H561 C501 0.960 . S
H562 C501 0.960 . S
H563 C501 0.961 . S
H564 C503 0.980 . S
H565 C502 0.961 . S
H566 C502 0.960 . S
H567 C502 0.959 . S
H568 C505 0.930 . S
H569 C509 0.931 . S
H570 C510 0.959 . S
H571 C510 0.961 . S
H572 C510 0.959 . S
H573 C511 0.960 . S
H574 C511 0.960 . S
H575 C511 0.960 . S
H576 C547 0.980 . S
H577 C513 0.930 . S
H578 C517 0.930 . S
H579 C518 0.961 . S
H580 C518 0.960 . S
H581 C518 0.958 . S
H582 C519 0.961 . S
H583 C519 0.960 . S
H584 C519 0.960 . S
H585 C521 0.980 . S
H586 C520 0.961 . S
H587 C520 0.961 . S
H588 C520 0.959 . S
H589 C523 0.932 . S
H590 C527 0.929 . S
H591 C528 0.961 . S
H592 C528 0.959 . S
H593 C528 0.959 . S
H594 C529 0.960 . S
H595 C529 0.962 . S
H596 C529 0.961 . S
H597 C531 0.929 . S
H598 C534 0.930 . S
H599 C535 0.929 . S
H600 C538 0.930 . S
H601 C541 0.929 . S
H602 C542 0.930 . S
H603 C546 0.962 . S
H604 C546 0.959 . S
H605 C546 0.958 . S
C606 C607 1.349 . S
C606 C608 1.327 . S
C606 H631 0.950 . S
C607 C606 1.349 . S
C607 C623 1.349 . S
C608 C606 1.327 . S
C608 C627 1.429 . S
C608 H632 0.950 . S
C609 C626 1.574 . S
C609 C628 1.368 . S
C609 H633 0.949 . S
H610 C614 0.949 . S
C611 C612 1.349 . S
C611 C613 1.328 1_455 S
C611 H634 0.950 . S
C612 C611 1.349 . S
C612 C624 1.349 1_455 S
C613 C611 1.328 1_655 S
C613 C629 1.428 . S
C613 H635 0.953 1_655 S
C614 H610 0.949 . S
C614 C622 1.574 . S
C614 C630 1.368 . S
H615 C623 0.950 . S
H616 C621 0.950 . S
H617 C622 0.949 . S
H618 C624 0.950 . S
H619 C625 0.950 . S
H620 C626 0.949 . S
C621 H616 0.950 . S
C621 C623 1.327 . S
C621 C627 1.429 . S
C622 C614 1.574 . S
C622 H617 0.949 . S
C622 C628 1.368 . S
C623 C607 1.349 . S
C623 H615 0.950 . S
C623 C621 1.327 . S
C624 C612 1.349 1_655 S
C624 H618 0.950 . S
C624 C625 1.327 . S
C625 H619 0.950 . S
C625 C624 1.327 . S
C625 C629 1.429 . S
C626 C609 1.574 . S
C626 H620 0.949 . S
C626 C630 1.368 . S
C627 C608 1.429 . S
C627 C621 1.429 . S
C627 C628 1.523 . S
C628 C609 1.368 . S
C628 C622 1.368 . S
C628 C627 1.523 . S
C629 C613 1.428 . S
C629 C625 1.429 . S
C629 C630 1.523 . S
C630 C614 1.368 . S
C630 C626 1.368 . S
C630 C629 1.523 . S
H631 C606 0.950 . S
H632 C608 0.950 . S
H633 C609 0.949 . S
H634 C611 0.950 . S
H635 C613 0.953 1_455 S
C636 C637 1.349 . S
C636 C638 1.327 . S
C636 H661 0.950 . S
C637 C636 1.349 . S
C637 C653 1.349 1_565 S
C638 C636 1.327 . S
C638 C657 1.429 . S
C638 H662 0.950 . S
C639 C656 1.574 . S
C639 C658 1.368 . S
C639 H663 0.949 . S
H640 C644 0.949 . S
C641 C642 1.349 . S
C641 C643 1.327 . S
C641 H664 0.950 . S
C642 C641 1.349 . S
C642 C654 1.349 1_545 S
C643 C641 1.327 . S
C643 C659 1.429 . S
C643 H665 0.950 . S
C644 H640 0.949 . S
C644 C652 1.574 . S
C644 C660 1.368 1_565 S
H645 C653 0.950 . S
H646 C651 0.950 . S
H647 C652 0.949 . S
H648 C654 0.950 . S
H649 C655 0.950 . S
H650 C656 0.949 . S
C651 H646 0.950 . S
C651 C653 1.327 . S
C651 C657 1.429 1_545 S
C652 C644 1.574 . S
C652 H647 0.949 . S
C652 C658 1.368 1_565 S
C653 C637 1.349 1_545 S
C653 H645 0.950 . S
C653 C651 1.327 . S
C654 C642 1.349 1_565 S
C654 H648 0.950 . S
C654 C655 1.327 . S
C655 H649 0.950 . S
C655 C654 1.327 . S
C655 C659 1.429 1_565 S
C656 C639 1.574 . S
C656 H650 0.949 . S
C656 C660 1.368 . S
C657 C638 1.429 . S
C657 C651 1.429 1_565 S
C657 C658 1.523 1_565 S
C658 C639 1.368 . S
C658 C652 1.368 1_545 S
C658 C657 1.523 1_545 S
C659 C643 1.429 . S
C659 C655 1.429 1_545 S
C659 C660 1.523 . S
C660 C644 1.368 1_545 S
C660 C656 1.368 . S
C660 C659 1.523 . S
H661 C636 0.950 . S
H662 C638 0.950 . S
H663 C639 0.949 . S
H664 C641 0.950 . S
H665 C643 0.950 . S
C666 C667 1.349 . S
C666 C668 1.327 . S
C666 H691 0.950 . S
C667 C666 1.349 . S
C667 C683 1.349 . S
C668 C666 1.327 . S
C668 C687 1.429 . S
C668 H692 0.950 . S
C669 C686 1.574 . S
C669 C688 1.368 . S
C669 H693 0.949 . S
H670 C674 0.949 . S
C671 C672 1.349 . S
C671 C673 1.327 . S
C671 H694 0.950 . S
C672 C671 1.349 . S
C672 C684 1.349 . S
C673 C671 1.327 . S
C673 C689 1.429 . S
C673 H695 0.950 . S
C674 H670 0.949 . S
C674 C682 1.574 . S
C674 C690 1.368 . S
H675 C683 0.950 . S
H676 C681 0.950 . S
H677 C682 0.949 . S
H678 C684 0.950 . S
H679 C685 0.950 . S
H680 C686 0.949 . S
C681 H676 0.950 . S
C681 C683 1.327 . S
C681 C687 1.429 . S
C682 C674 1.574 . S
C682 H677 0.949 . S
C682 C688 1.368 . S
C683 C667 1.349 . S
C683 H675 0.950 . S
C683 C681 1.327 . S
C684 C672 1.349 . S
C684 H678 0.950 . S
C684 C685 1.327 . S
C685 H679 0.950 . S
C685 C684 1.327 . S
C685 C689 1.429 . S
C686 C669 1.574 . S
C686 H680 0.949 . S
C686 C690 1.368 . S
C687 C668 1.429 . S
C687 C681 1.429 . S
C687 C688 1.523 . S
C688 C669 1.368 . S
C688 C682 1.368 . S
C688 C687 1.523 . S
C689 C673 1.429 . S
C689 C685 1.429 . S
C689 C690 1.523 . S
C690 C674 1.368 . S
C690 C686 1.368 . S
C690 C689 1.523 . S
H691 C666 0.950 . S
H692 C668 0.950 . S
H693 C669 0.949 . S
H694 C671 0.950 . S
H695 C673 0.950 . S
C696 C697 1.349 . S
C696 C698 1.327 . S
C696 H721 0.950 . S
C697 C696 1.349 . S
C697 C713 1.349 . S
C698 C696 1.327 . S
C698 C717 1.429 . S
C698 H722 0.950 . S
C699 C716 1.574 . S
C699 C718 1.368 . S
C699 H723 0.949 . S
H700 C704 0.949 . S
C701 C702 1.349 . S
C701 C703 1.327 . S
C701 H724 0.950 . S
C702 C701 1.349 . S
C702 C714 1.349 . S
C703 C701 1.327 . S
C703 C719 1.429 . S
C703 H725 0.950 . S
C704 H700 0.949 . S
C704 C712 1.574 . S
C704 C720 1.368 . S
H705 C713 0.950 . S
H706 C711 0.950 . S
H707 C712 0.949 . S
H708 C714 0.950 . S
H709 C715 0.950 . S
H710 C716 0.949 . S
C711 H706 0.950 . S
C711 C713 1.327 . S
C711 C717 1.429 . S
C712 C704 1.574 . S
C712 H707 0.949 . S
C712 C718 1.368 . S
C713 C697 1.349 . S
C713 H705 0.950 . S
C713 C711 1.327 . S
C714 C702 1.349 . S
C714 H708 0.950 . S
C714 C715 1.327 . S
C715 H709 0.950 . S
C715 C714 1.327 . S
C715 C719 1.429 . S
C716 C699 1.574 . S
C716 H710 0.949 . S
C716 C720 1.368 . S
C717 C698 1.429 . S
C717 C711 1.429 . S
C717 C718 1.523 . S
C718 C699 1.368 . S
C718 C712 1.368 . S
C718 C717 1.523 . S
C719 C703 1.429 . S
C719 C715 1.429 . S
C719 C720 1.523 . S
C720 C704 1.368 . S
C720 C716 1.368 . S
C720 C719 1.523 . S
H721 C696 0.950 . S
H722 C698 0.950 . S
H723 C699 0.949 . S
H724 C701 0.950 . S
H725 C703 0.950 . S
C726 C727 1.349 . S
C726 C728 1.327 . S
C726 H751 0.950 . S
C727 C726 1.349 . S
C727 C743 1.349 . S
C728 C726 1.327 . S
C728 C747 1.429 . S
C728 H752 0.950 . S
C729 C746 1.574 . S
C729 C748 1.368 . S
C729 H753 0.949 . S
H730 C734 0.949 . S
C731 C732 1.349 . S
C731 C733 1.327 . S
C731 H754 0.976 . S
C732 C731 1.349 . S
C732 C744 1.349 . S
C733 C731 1.327 . S
C733 C749 1.429 . S
C733 H755 0.950 . S
C734 H730 0.949 . S
C734 C742 1.574 . S
C734 C750 1.368 . S
H735 C743 0.950 . S
H736 C741 0.950 . S
H737 C742 0.949 . S
H738 C744 0.950 . S
H739 C745 0.950 . S
H740 C746 0.949 . S
C741 H736 0.950 . S
C741 C743 1.327 . S
C741 C747 1.429 . S
C742 C734 1.574 . S
C742 H737 0.949 . S
C742 C748 1.368 . S
C743 C727 1.349 . S
C743 H735 0.950 . S
C743 C741 1.327 . S
C744 C732 1.349 . S
C744 H738 0.950 . S
C744 C745 1.327 . S
C745 H739 0.950 . S
C745 C744 1.327 . S
C745 C749 1.429 . S
C746 C729 1.574 . S
C746 H740 0.949 . S
C746 C750 1.368 . S
C747 C728 1.429 . S
C747 C741 1.429 . S
C747 C748 1.523 . S
C748 C729 1.368 . S
C748 C742 1.368 . S
C748 C747 1.523 . S
C749 C733 1.429 . S
C749 C745 1.429 . S
C749 C750 1.523 . S
C750 C734 1.368 . S
C750 C746 1.368 . S
C750 C749 1.523 . S
H751 C726 0.950 . S
H752 C728 0.950 . S
H753 C729 0.949 . S
H754 C731 0.976 . S
H755 C733 0.950 . S
C756 C757 1.349 . S
C756 C758 1.327 . S
C756 H781 0.950 . S
C757 C756 1.349 . S
C757 C773 1.349 . S
C758 C756 1.327 . S
C758 C777 1.429 . S
C758 H782 0.950 . S
C759 C776 1.574 . S
C759 C778 1.368 . S
C759 H783 0.949 . S
H760 C764 0.949 . S
C761 C762 1.349 . S
C761 C763 1.327 . S
C761 H784 0.950 . S
C762 C761 1.349 . S
C762 C774 1.349 . S
C763 C761 1.327 . S
C763 C779 1.429 . S
C763 H785 0.950 . S
C764 H760 0.949 . S
C764 C772 1.574 . S
C764 C780 1.368 . S
H765 C773 0.950 . S
H766 C771 0.950 . S
H767 C772 0.949 . S
H768 C774 0.950 . S
H769 C775 0.950 . S
H770 C776 0.949 . S
C771 H766 0.950 . S
C771 C773 1.327 . S
C771 C777 1.429 . S
C772 C764 1.574 . S
C772 H767 0.949 . S
C772 C778 1.368 . S
C773 C757 1.349 . S
C773 H765 0.950 . S
C773 C771 1.327 . S
C774 C762 1.349 . S
C774 H768 0.950 . S
C774 C775 1.327 . S
C775 H769 0.950 . S
C775 C774 1.327 . S
C775 C779 1.429 . S
C776 C759 1.574 . S
C776 H770 0.949 . S
C776 C780 1.368 . S
C777 C758 1.429 . S
C777 C771 1.429 . S
C777 C778 1.523 . S
C778 C759 1.368 . S
C778 C772 1.368 . S
C778 C777 1.523 . S
C779 C763 1.429 . S
C779 C775 1.429 . S
C779 C780 1.523 . S
C780 C764 1.368 . S
C780 C776 1.368 . S
C780 C779 1.523 . S
H781 C756 0.950 . S
H782 C758 0.950 . S
H783 C759 0.949 . S
H784 C761 0.950 . S
H785 C763 0.950 . S
C786 C787 1.349 . S
C786 C788 1.327 . S
C786 H811 0.950 . S
C787 C786 1.349 . S
C787 C803 1.349 . S
C788 C786 1.327 . S
C788 C807 1.429 . S
C788 H812 0.950 . S
C789 C806 1.574 . S
C789 C808 1.368 . S
C789 H813 0.949 . S
H790 C794 0.949 . S
C791 C792 1.349 . S
C791 C793 1.327 . S
C791 H814 0.950 . S
C792 C791 1.349 . S
C792 C804 1.349 . S
C793 C791 1.327 . S
C793 C809 1.429 . S
C793 H815 0.950 . S
C794 H790 0.949 . S
C794 C802 1.574 . S
C794 C810 1.368 . S
H795 C803 0.950 . S
H796 C801 0.950 . S
H797 C802 0.949 . S
H798 C804 0.950 . S
H799 C805 0.950 . S
H800 C806 0.949 . S
C801 H796 0.950 . S
C801 C803 1.327 . S
C801 C807 1.429 . S
C802 C794 1.574 . S
C802 H797 0.949 . S
C802 C808 1.368 . S
C803 C787 1.349 . S
C803 H795 0.950 . S
C803 C801 1.327 . S
C804 C792 1.349 . S
C804 H798 0.950 . S
C804 C805 1.327 . S
C805 H799 0.950 . S
C805 C804 1.327 . S
C805 C809 1.429 . S
C806 C789 1.574 . S
C806 H800 0.949 . S
C806 C810 1.368 . S
C807 C788 1.429 . S
C807 C801 1.429 . S
C807 C808 1.523 . S
C808 C789 1.368 . S
C808 C802 1.368 . S
C808 C807 1.523 . S
C809 C793 1.429 . S
C809 C805 1.429 . S
C809 C810 1.523 . S
C810 C794 1.368 . S
C810 C806 1.368 . S
C810 C809 1.523 . S
H811 C786 0.950 . S
H812 C788 0.950 . S
H813 C789 0.949 . S
H814 C791 0.950 . S
H815 C793 0.950 . S
C816 C817 1.349 . S
C816 C818 1.327 . S
C816 H841 0.950 . S
C817 C816 1.349 . S
C817 C833 1.349 . S
C818 C816 1.327 . S
C818 C837 1.429 . S
C818 H842 0.950 . S
C819 C836 1.574 . S
C819 C838 1.368 . S
C819 H843 0.949 . S
H820 C824 0.949 . S
C821 C822 1.349 . S
C821 C823 1.327 . S
C821 H844 0.950 . S
C822 C821 1.349 . S
C822 C834 1.349 . S
C823 C821 1.327 . S
C823 C839 1.429 . S
C823 H845 0.950 1_556 S
C824 H820 0.949 . S
C824 C832 1.574 1_556 S
C824 C840 1.366 1_556 S
H825 C833 0.950 . S
H826 C831 0.950 . S
H827 C832 0.949 . S
H828 C834 0.950 . S
H829 C835 0.950 . S
H830 C836 0.949 . S
C831 H826 0.950 . S
C831 C833 1.327 . S
C831 C837 1.429 . S
C832 C824 1.574 1_554 S
C832 H827 0.949 . S
C832 C838 1.368 . S
C833 C817 1.349 . S
C833 H825 0.950 . S
C833 C831 1.327 . S
C834 C822 1.349 . S
C834 H828 0.950 . S
C834 C835 1.327 . S
C835 H829 0.950 . S
C835 C834 1.327 . S
C835 C839 1.429 . S
C836 C819 1.574 . S
C836 H830 0.949 . S
C836 C840 1.374 . S
C837 C818 1.429 . S
C837 C831 1.429 . S
C837 C838 1.523 . S
C838 C819 1.368 . S
C838 C832 1.368 . S
C838 C837 1.523 . S
C839 C823 1.429 . S
C839 C835 1.429 . S
C839 C840 1.519 1_556 S
C840 C824 1.366 1_554 S
C840 C836 1.374 . S
C840 C839 1.519 1_554 S
H841 C816 0.950 . S
H842 C818 0.950 . S
H843 C819 0.949 . S
H844 C821 0.950 . S
H845 C823 0.950 1_554 S
C846 C847 1.349 . S
C846 C848 1.327 . S
C846 H871 0.950 . S
C847 C846 1.349 . S
C847 C863 1.349 . S
C848 C846 1.327 . S
C848 C867 1.429 . S
C848 H872 0.950 . S
C849 C866 1.574 . S
C849 C868 1.368 . S
C849 H873 0.949 . S
H850 C854 0.949 . S
C851 C852 1.349 . S
C851 C853 1.327 . S
C851 H874 0.950 . S
C852 C851 1.349 . S
C852 C864 1.349 . S
C853 C851 1.327 . S
C853 C869 1.429 1_455 S
C853 H875 0.954 . S
C854 H850 0.949 . S
C854 C862 1.574 . S
C854 C870 1.368 . S
H855 C863 0.950 . S
H856 C861 0.950 . S
H857 C862 0.949 . S
H858 C864 0.950 . S
H859 C865 0.949 . S
H860 C866 0.949 . S
C861 H856 0.950 . S
C861 C863 1.327 . S
C861 C867 1.429 . S
C862 C854 1.574 . S
C862 H857 0.949 . S
C862 C868 1.368 . S
C863 C847 1.349 . S
C863 H855 0.950 . S
C863 C861 1.327 . S
C864 C852 1.349 . S
C864 H858 0.950 . S
C864 C865 1.327 . S
C865 H859 0.949 . S
C865 C864 1.327 . S
C865 C869 1.421 1_455 S
C866 C849 1.574 . S
C866 H860 0.949 . S
C866 C870 1.368 . S
C867 C848 1.429 . S
C867 C861 1.429 . S
C867 C868 1.523 . S
C868 C849 1.368 . S
C868 C862 1.368 . S
C868 C867 1.523 . S
C869 C853 1.429 1_655 S
C869 C865 1.421 1_655 S
C869 C870 1.530 . S
C870 C854 1.368 . S
C870 C866 1.368 . S
C870 C869 1.530 . S
H871 C846 0.950 . S
H872 C848 0.950 . S
H873 C849 0.949 . S
H874 C851 0.950 . S
H875 C853 0.954 . S
C876 C877 1.344 1_545 S
C876 C878 1.323 . S
C876 H901 0.959 . S
C877 C876 1.344 1_565 S
C877 C893 1.349 . S
C878 C876 1.323 . S
C878 C897 1.429 1_545 S
C878 H902 0.950 . S
C879 C896 1.574 . S
C879 C898 1.368 1_565 S
C879 H903 0.949 . S
H880 C884 0.949 . S
C881 C882 1.349 . S
C881 C883 1.327 . S
C881 H904 0.950 . S
C882 C881 1.349 . S
C882 C894 1.349 . S
C883 C881 1.327 . S
C883 C899 1.429 . S
C883 H905 0.950 1_545 S
C884 H880 0.949 . S
C884 C892 1.574 . S
C884 C900 1.368 . S
H885 C893 0.950 . S
H886 C891 0.950 . S
H887 C892 0.949 . S
H888 C894 0.950 . S
H889 C895 0.950 . S
H890 C896 0.949 . S
C891 H886 0.950 . S
C891 C893 1.327 . S
C891 C897 1.429 . S
C892 C884 1.574 . S
C892 H887 0.949 . S
C892 C898 1.368 . S
C893 C877 1.349 . S
C893 H885 0.950 . S
C893 C891 1.327 . S
C894 C882 1.349 . S
C894 H888 0.950 . S
C894 C895 1.327 . S
C895 H889 0.950 . S
C895 C894 1.327 . S
C895 C899 1.429 . S
C896 C879 1.574 . S
C896 H890 0.949 . S
C896 C900 1.368 1_565 S
C897 C878 1.429 1_565 S
C897 C891 1.429 . S
C897 C898 1.523 1_565 S
C898 C879 1.368 1_545 S
C898 C892 1.368 . S
C898 C897 1.523 1_545 S
C899 C883 1.429 . S
C899 C895 1.429 . S
C899 C900 1.523 . S
C900 C884 1.368 . S
C900 C896 1.368 1_545 S
C900 C899 1.523 . S
H901 C876 0.959 . S
H902 C878 0.950 . S
H903 C879 0.949 . S
H904 C881 0.950 . S
H905 C883 0.950 1_565 S
C906 C907 1.349 . S
C906 C908 1.327 . S
C906 H931 0.950 . S
C907 C906 1.349 . S
C907 C923 1.349 . S
C908 C906 1.327 . S
C908 C927 1.429 . S
C908 H932 0.950 . S
C909 C926 1.574 . S
C909 C928 1.368 . S
C909 H933 0.949 . S
H910 C914 0.949 . S
C911 C912 1.349 . S
C911 C913 1.327 . S
C911 H934 0.950 . S
C912 C911 1.349 . S
C912 C924 1.349 . S
C913 C911 1.327 . S
C913 C929 1.429 . S
C913 H935 0.950 . S
C914 H910 0.949 . S
C914 C922 1.574 1_556 S
C914 C930 1.368 . S
H915 C923 0.950 . S
H916 C921 0.950 . S
H917 C922 0.949 . S
H918 C924 0.950 . S
H919 C925 0.950 . S
H920 C926 0.949 . S
C921 H916 0.950 . S
C921 C923 1.327 . S
C921 C927 1.429 . S
C922 C914 1.574 1_554 S
C922 H917 0.949 . S
C922 C928 1.368 . S
C923 C907 1.349 . S
C923 H915 0.950 . S
C923 C921 1.327 . S
C924 C912 1.349 . S
C924 H918 0.950 . S
C924 C925 1.327 . S
C925 H919 0.950 . S
C925 C924 1.327 . S
C925 C929 1.429 . S
C926 C909 1.574 . S
C926 H920 0.949 . S
C926 C930 1.368 1_554 S
C927 C908 1.429 . S
C927 C921 1.429 . S
C927 C928 1.523 . S
C928 C909 1.368 . S
C928 C922 1.368 . S
C928 C927 1.523 . S
C929 C913 1.429 . S
C929 C925 1.429 . S
C929 C930 1.523 . S
C930 C914 1.368 . S
C930 C926 1.368 1_556 S
C930 C929 1.523 . S
H931 C906 0.950 . S
H932 C908 0.950 . S
H933 C909 0.949 . S
H934 C911 0.950 . S
H935 C913 0.950 . S
C936 C937 1.349 . S
C936 C938 1.327 . S
C936 H961 0.950 . S
C937 C936 1.349 . S
C937 C953 1.349 . S
C938 C936 1.327 . S
C938 C957 1.429 . S
C938 H962 0.950 . S
C939 C956 1.574 . S
C939 C958 1.368 . S
C939 H963 0.949 . S
H940 C944 0.949 1_655 S
C941 C942 1.349 . S
C941 C943 1.327 . S
C941 H964 0.950 . S
C942 C941 1.349 . S
C942 C954 1.349 1_455 S
C943 C941 1.327 . S
C943 C959 1.429 . S
C943 H965 0.950 . S
C944 H940 0.949 1_455 S
C944 C952 1.574 . S
C944 C960 1.368 . S
H945 C953 0.950 . S
H946 C951 0.950 . S
H947 C952 0.949 1_655 S
H948 C954 0.950 . S
H949 C955 0.950 1_655 S
H950 C956 0.949 . S
C951 H946 0.950 . S
C951 C953 1.327 . S
C951 C957 1.429 . S
C952 C944 1.574 . S
C952 H947 0.949 1_455 S
C952 C958 1.368 . S
C953 C937 1.349 . S
C953 H945 0.950 . S
C953 C951 1.327 . S
C954 C942 1.349 1_655 S
C954 H948 0.950 . S
C954 C955 1.327 1_655 S
C955 H949 0.950 1_455 S
C955 C954 1.327 1_455 S
C955 C959 1.429 . S
C956 C939 1.574 . S
C956 H950 0.949 . S
C956 C960 1.368 . S
C957 C938 1.429 . S
C957 C951 1.429 . S
C957 C958 1.523 . S
C958 C939 1.368 . S
C958 C952 1.368 . S
C958 C957 1.523 . S
C959 C943 1.429 . S
C959 C955 1.429 . S
C959 C960 1.523 . S
C960 C944 1.368 . S
C960 C956 1.368 . S
C960 C959 1.523 . S
H961 C936 0.950 . S
H962 C938 0.950 . S
H963 C939 0.949 . S
H964 C941 0.950 . S
H965 C943 0.950 . S
C612 C319 1.127 . S
C607 C29 1.458 . S
C637 C137 1.460 . S
C642 C433 1.130 . S
C667 C225 1.170 . S
C672 C493 0.924 . S
C697 C49 1.258 . S
C702 C293 1.062 . S
C732 C407 1.063 . S
C727 C117 1.260 . S
C757 C205 1.362 . S
C762 C503 0.802 . S
C792 C389 0.802 . S
C787 C233 1.361 . S
C817 C57 1.257 . S
C822 C521 1.060 . S
C852 C265 0.920 1_455 S
C847 C108 1.162 . S
C882 C379 0.923 . S
C877 C196 1.170 . S
C912 C547 1.129 . S
C907 C20 1.459 . S
C937 C145 1.365 . S
C942 C275 0.801 . S
