# Generated by pormake.
# Topology tsx, (6,3)-cn, num edge types: 1
# Building blocks:
#     Node 0, Type 0, BuildingBlock: CIFDUS_clean_sbu_1, # of connection points: 6
#     Node 1, Type 0, BuildingBlock: CIFDUS_clean_sbu_1, # of connection points: 6
#     Node 2, Type 1, BuildingBlock: KAKCAD_clean_linker_0, # of connection points: 3
#     Node 3, Type 1, BuildingBlock: KAKCAD_clean_linker_0, # of connection points: 3
#     Node 4, Type 1, BuildingBlock: KAKCAD_clean_linker_0, # of connection points: 3
#     Node 5, Type 1, BuildingBlock: KAKCAD_clean_linker_0, # of connection points: 3
#     Edge 6, Type (0, 1), BuildingBlock: MIFKUJ_clean_linker_0, # of connection points: 2
#     Edge 7, Type (0, 1), BuildingBlock: MIFKUJ_clean_linker_0, # of connection points: 2
#     Edge 8, Type (0, 1), BuildingBlock: MIFKUJ_clean_linker_0, # of connection points: 2
#     Edge 9, Type (0, 1), BuildingBlock: MIFKUJ_clean_linker_0, # of connection points: 2
#     Edge 10, Type (0, 1), BuildingBlock: MIFKUJ_clean_linker_0, # of connection points: 2
#     Edge 11, Type (0, 1), BuildingBlock: MIFKUJ_clean_linker_0, # of connection points: 2
#     Edge 12, Type (0, 1), BuildingBlock: MIFKUJ_clean_linker_0, # of connection points: 2
#     Edge 13, Type (0, 1), BuildingBlock: MIFKUJ_clean_linker_0, # of connection points: 2
#     Edge 14, Type (0, 1), BuildingBlock: MIFKUJ_clean_linker_0, # of connection points: 2
#     Edge 15, Type (0, 1), BuildingBlock: MIFKUJ_clean_linker_0, # of connection points: 2
#     Edge 16, Type (0, 1), BuildingBlock: MIFKUJ_clean_linker_0, # of connection points: 2
#     Edge 17, Type (0, 1), BuildingBlock: MIFKUJ_clean_linker_0, # of connection points: 2
# Relax obj value: 0.127
# Max RMSD: 0.156
# Mean RMSD: 0.118
data_MOF--net-tsx--node1-CIFDUS_clean_sbu_1--node2-KAKCAD_clean_linker_0--edge1-MIFKUJ_clean_linker_0
_symmetry_space_group_name_H-M    P1
_symmetry_Int_Tables_number       1
_symmetry_cell_setting            triclinic
loop_
_symmetry_equiv_pos_as_xyz
'x, y, z'
_cell_length_a     27.579368
_cell_length_b     33.478175
_cell_length_c     55.96163
_cell_angle_alpha  97.315418
_cell_angle_beta   91.020624
_cell_angle_gamma 91.287975
loop_
_atom_site_label
_atom_site_type_symbol
_atom_site_fract_x
_atom_site_fract_y
_atom_site_fract_z
_atom_type_partial_charge
O0 O 0.00961 0.09739 0.01403 0.0
Mn1 Mn 0.04131 0.04059 0.00904 0.0
O2 O 0.93117 0.08835 0.00213 0.0
Mn3 Mn 0.9363 0.03552 0.98805 0.0
O4 O 0.07276 0.98342 0.00339 0.0
O5 O 0.10626 0.06909 0.01138 0.0
Mn6 Mn 0.14826 0.04321 0.02731 0.0
O7 O 0.04274 0.03872 0.04616 0.0
O8 O 0.15328 0.99324 0.0094 0.0
O9 O 0.04116 0.04192 0.9718 0.0
O10 O 0.96457 0.0286 0.95803 0.0
O11 O 0.18089 0.08825 0.01909 0.0
O12 O 0.12174 0.04332 0.0577 0.0
C13 C 0.94066 0.98811 0.0103 0.0
C14 C 0.96668 0.11054 0.01122 0.0
C15 C 0.11653 0.97085 0.00241 0.0
C16 C 0.13951 0.09627 0.00981 0.0
C17 C 0.07665 0.0404 0.06239 0.0
C18 C 0.00959 0.03465 0.95452 0.0
O19 O 0.97588 0.01268 0.00701 0.0
O20 O 0.90076 0.99443 0.99903 0.0
O21 O 0.50553 0.591 0.50958 0.0
Mn22 Mn 0.54941 0.54078 0.50944 0.0
O23 O 0.44877 0.57216 0.48032 0.0
Mn24 Mn 0.46633 0.51911 0.47146 0.0
O25 O 0.59203 0.48934 0.50776 0.0
O26 O 0.60536 0.57752 0.52231 0.0
Mn27 Mn 0.63944 0.55338 0.54307 0.0
O28 O 0.52895 0.53397 0.54459 0.0
O29 O 0.66357 0.50776 0.52586 0.0
O30 O 0.57097 0.54711 0.47415 0.0
O31 O 0.51522 0.51262 0.44936 0.0
O32 O 0.66892 0.60318 0.54279 0.0
O33 O 0.59769 0.5433 0.56731 0.0
C34 C 0.46001 0.47727 0.4975 0.0
C35 C 0.46868 0.59825 0.49644 0.0
C36 C 0.63617 0.48197 0.51314 0.0
C37 C 0.63516 0.60798 0.52712 0.0
C38 C 0.55235 0.53507 0.56476 0.0
C39 C 0.55635 0.53061 0.45313 0.0
O40 O 0.49324 0.50477 0.4975 0.0
O41 O 0.42923 0.47612 0.47972 0.0
C42 C 0.01215 0.95953 0.32132 0.0
C43 C 0.02032 0.99595 0.31183 0.0
C44 C 0.01077 0.95894 0.34628 0.0
C45 C 0.01673 0.99486 0.36213 0.0
C46 C 0.02491 0.03122 0.3526 0.0
C47 C 0.02693 0.03173 0.32774 0.0
C48 C 0.01338 0.99487 0.38855 0.0
C49 C 0.03996 0.96784 0.40053 0.0
C50 C 0.03848 0.9693 0.42579 0.0
C51 C 0.00868 0.99746 0.43892 0.0
C52 C 0.98198 0.02446 0.42704 0.0
C53 C 0.98466 0.02314 0.40199 0.0
C54 C 0.95249 0.05555 0.4405 0.0
C55 C 0.90942 0.04505 0.45142 0.0
C56 C 0.96497 0.0963 0.44023 0.0
C57 C 0.93426 0.12623 0.45016 0.0
C58 C 0.89008 0.11594 0.46021 0.0
C59 C 0.07051 0.94314 0.43838 0.0
C60 C 0.07681 0.90274 0.42883 0.0
C61 C 0.0975 0.95907 0.45912 0.0
C62 C 0.13148 0.93562 0.46946 0.0
C63 C 0.13919 0.89572 0.4593 0.0
C64 C 0.11066 0.87931 0.43919 0.0
C65 C 0.87813 0.07509 0.46103 0.0
H66 H 0.00731 0.93148 0.30945 0.0
H67 H 1.00418 0.93055 0.35318 0.0
H68 H 0.02999 0.05931 0.36442 0.0
H69 H 0.03299 0.06026 0.32093 0.0
H70 H 0.06355 0.94696 0.39024 0.0
H71 H 0.96394 0.04414 0.39292 0.0
H72 H 1.00691 0.99894 0.45835 0.0
H73 H 0.89907 0.01368 0.45159 0.0
H74 H 0.99792 0.1049 0.43171 0.0
H75 H 0.94409 0.15744 0.44901 0.0
H76 H 0.05598 0.88937 0.41313 0.0
H77 H 0.09389 0.99022 0.46677 0.0
H78 H 0.8443 0.06645 0.46872 0.0
H79 H 0.11492 0.8484 0.43122 0.0
H80 H 0.15311 0.94931 0.48481 0.0
C81 C 0.05502 0.08817 0.69345 0.0
C82 C 0.0549 0.05111 0.70275 0.0
C83 C 0.05159 0.08937 0.6686 0.0
C84 C 0.04815 0.05353 0.65248 0.0
C85 C 0.04789 0.01648 0.66181 0.0
C86 C 0.05118 0.01529 0.68665 0.0
C87 C 0.04588 0.05475 0.626 0.0
C88 C 0.07518 0.08221 0.61557 0.0
C89 C 0.07392 0.0837 0.59059 0.0
C90 C 0.04347 0.05621 0.57571 0.0
C91 C 0.01378 0.02811 0.58586 0.0
C92 C 0.01498 0.02822 0.61107 0.0
C93 C 0.98075 0.99867 0.57076 0.0
C94 C 0.95345 0.00979 0.55123 0.0
C95 C 0.97372 0.95957 0.57706 0.0
C96 C 0.9382 0.93342 0.56539 0.0
C97 C 0.9094 0.94519 0.54674 0.0
C98 C 0.10543 0.11411 0.58075 0.0
C99 C 0.10875 0.15367 0.59267 0.0
C100 C 0.13578 0.10329 0.56119 0.0
C101 C 0.17044 0.13098 0.55455 0.0
C102 C 0.17523 0.17006 0.56728 0.0
C103 C 0.14324 0.18116 0.58613 0.0
C104 C 0.91822 0.98314 0.53922 0.0
H105 H 0.05709 0.1163 0.70541 0.0
H106 H 0.05116 0.11843 0.66203 0.0
H107 H 0.04609 0.98832 0.64988 0.0
H108 H 0.05165 0.98624 0.69324 0.0
H109 H 0.10009 0.10206 0.62696 0.0
H110 H 0.991 0.00802 0.61925 0.0
H111 H 0.04291 0.05677 0.5564 0.0
H112 H 0.95776 0.03962 0.5459 0.0
H113 H 0.99499 0.94938 0.59147 0.0
H114 H 0.93266 0.90404 0.57123 0.0
H115 H 0.08553 0.16307 0.60767 0.0
H116 H 0.13416 0.07298 0.55171 0.0
H117 H 0.89646 0.99281 0.52481 0.0
H118 H 0.14598 0.21069 0.59657 0.0
H119 H 0.19394 0.12158 0.5397 0.0
C120 C 0.52539 0.47685 0.82207 0.0
C121 C 0.52009 0.51193 0.81091 0.0
C122 C 0.53467 0.47948 0.84693 0.0
C123 C 0.53872 0.51724 0.86112 0.0
C124 C 0.53504 0.55224 0.84982 0.0
C125 C 0.52587 0.54963 0.82505 0.0
C126 C 0.54356 0.52041 0.88781 0.0
C127 C 0.57624 0.49677 0.89907 0.0
C128 C 0.58011 0.49974 0.92446 0.0
C129 C 0.55002 0.52682 0.93847 0.0
C130 C 0.51787 0.55099 0.92728 0.0
C131 C 0.51483 0.54748 0.90212 0.0
C132 C 0.48719 0.58087 0.9412 0.0
C133 C 0.44663 0.5685 0.95342 0.0
C134 C 0.49378 0.62178 0.93873 0.0
C135 C 0.45911 0.64961 0.94713 0.0
C136 C 0.41659 0.63706 0.95787 0.0
C137 C 0.61641 0.47531 0.93609 0.0
C138 C 0.62745 0.43624 0.92543 0.0
C139 C 0.64158 0.49118 0.95747 0.0
C140 C 0.67709 0.46882 0.96766 0.0
C141 C 0.68881 0.43032 0.95655 0.0
C142 C 0.66339 0.41422 0.93541 0.0
C143 C 0.41153 0.59639 0.9617 0.0
H144 H 0.52094 0.44734 0.81172 0.0
H145 H 0.53696 0.45199 0.85516 0.0
H146 H 0.53888 0.58178 0.86019 0.0
H147 H 0.52329 0.57725 0.81697 0.0
H148 H 0.59967 0.47699 0.88793 0.0
H149 H 0.48913 0.56563 0.89365 0.0
H150 H 0.55168 0.52943 0.95796 0.0
H151 H 0.44058 0.53694 0.95521 0.0
H152 H 0.52479 0.63191 0.92929 0.0
H153 H 0.46486 0.68082 0.94443 0.0
H154 H 0.6082 0.42244 0.90934 0.0
H155 H 0.63478 0.52129 0.96608 0.0
H156 H 0.37921 0.58563 0.96982 0.0
H157 H 0.67096 0.38429 0.9267 0.0
H158 H 0.69622 0.48205 0.98393 0.0
C159 C 0.55183 0.6054 0.19783 0.0
C160 C 0.55676 0.57002 0.20864 0.0
C161 C 0.54314 0.60343 0.17303 0.0
C162 C 0.53919 0.56603 0.15843 0.0
C163 C 0.54316 0.5306 0.16928 0.0
C164 C 0.55193 0.53257 0.1941 0.0
C165 C 0.5333 0.56419 0.13184 0.0
C166 C 0.56073 0.59034 0.11951 0.0
C167 C 0.55668 0.58908 0.09438 0.0
C168 C 0.52489 0.56037 0.0813 0.0
C169 C 0.49694 0.53359 0.09339 0.0
C170 C 0.50136 0.53607 0.11869 0.0
C171 C 0.46302 0.50278 0.08007 0.0
C172 C 0.43241 0.51215 0.06128 0.0
C173 C 0.45932 0.46397 0.08707 0.0
C174 C 0.42502 0.43576 0.07623 0.0
C175 C 0.39355 0.44521 0.05781 0.0
C176 C 0.58738 0.61758 0.08252 0.0
C177 C 0.59193 0.65807 0.09284 0.0
C178 C 0.61685 0.60399 0.06304 0.0
C179 C 0.6524 0.62977 0.05519 0.0
C180 C 0.6591 0.66941 0.06679 0.0
C181 C 0.62744 0.68358 0.08516 0.0
C182 C 0.39799 0.48372 0.0503 0.0
H183 H 0.55566 0.63473 0.20845 0.0
H184 H 0.53975 0.63129 0.16526 0.0
H185 H 0.54066 0.50133 0.1585 0.0
H186 H 0.55484 0.50472 0.20192 0.0
H187 H 0.58662 0.61122 0.12952 0.0
H188 H 0.47923 0.51649 0.12829 0.0
H189 H 0.52212 0.55882 0.06187 0.0
H190 H 0.43411 0.54181 0.0555 0.0
H191 H 0.48272 0.45542 0.10122 0.0
H192 H 0.42246 0.40676 0.08282 0.0
H193 H 0.56917 0.66962 0.1076 0.0
H194 H 0.6143 0.57291 0.05481 0.0
H195 H 0.3748 0.49196 0.036 0.0
H196 H 0.63092 0.71424 0.09403 0.0
H197 H 0.67621 0.61812 0.0409 0.0
H198 H 0.18884 0.12883 0.97575 0.0
H199 H 0.20734 0.20066 0.97731 0.0
H200 H 0.0966 0.22658 0.03008 0.0
H201 H 0.07852 0.15436 0.02873 0.0
H202 H 0.17232 0.27987 0.97796 0.0
H203 H 0.15351 0.2774 0.07772 0.0
H204 H 0.14097 0.22898 0.10701 0.0
H205 H 0.22296 0.14112 0.06315 0.0
H206 H 0.23637 0.18922 0.0338 0.0
H207 H 0.29929 0.45826 0.04376 0.0
H208 H 0.23605 0.40747 0.02968 0.0
H209 H 0.3384 0.31329 0.03447 0.0
H210 H 0.40194 0.36342 0.04758 0.0
H211 H 0.25093 0.30326 0.05918 0.0
H212 H 0.30727 0.33499 0.98165 0.0
H213 H 0.32252 0.38047 0.95108 0.0
H214 H 0.17119 0.40766 0.94904 0.0
H215 H 0.15517 0.36274 0.97987 0.0
C216 C 0.16638 0.14999 0.98654 0.0
C217 C 0.13224 0.13612 0.00206 0.0
C218 C 0.17704 0.19116 0.98747 0.0
C219 C 0.15418 0.21896 0.00422 0.0
C220 C 0.11495 0.20559 0.01714 0.0
C221 C 0.1042 0.16425 0.01616 0.0
C222 C 0.17979 0.25804 0.01238 0.0
C223 C 0.18867 0.28553 0.99588 0.0
C224 C 0.20179 0.26524 0.03564 0.0
C225 C 0.19557 0.23672 0.05357 0.0
C226 C 0.16906 0.24782 0.07446 0.0
C227 C 0.16176 0.22043 0.09103 0.0
C228 C 0.18104 0.18195 0.08691 0.0
C229 C 0.20797 0.17089 0.0663 0.0
C230 C 0.21547 0.1982 0.04971 0.0
C231 C 0.30864 0.42679 0.04136 0.0
C232 C 0.35578 0.41504 0.04714 0.0
C233 C 0.27231 0.3978 0.03344 0.0
C234 C 0.28241 0.3566 0.03126 0.0
C235 C 0.32965 0.34491 0.0363 0.0
C236 C 0.36593 0.3737 0.04393 0.0
C237 C 0.24393 0.32507 0.02473 0.0
C238 C 0.23313 0.29868 0.04156 0.0
C239 C 0.22045 0.31904 0.0018 0.0
C240 C 0.23015 0.34597 0.9833 0.0
C241 C 0.27734 0.351 0.97487 0.0
C242 C 0.2861 0.3766 0.95745 0.0
C243 C 0.24788 0.39707 0.94819 0.0
C244 C 0.20078 0.39187 0.95628 0.0
C245 C 0.19184 0.36634 0.97371 0.0
H246 H 0.25474 0.41686 0.9347 0.0
H247 H 0.17517 0.16074 0.0997 0.0
H248 H 0.16918 0.94144 0.96427 0.0
H249 H 0.20313 0.87415 0.9568 0.0
H250 H 0.12445 0.83828 0.01682 0.0
H251 H 0.08904 0.90559 0.02382 0.0
H252 H 0.22967 0.83047 0.01872 0.0
H253 H 0.09448 0.79021 0.96644 0.0
H254 H 0.03484 0.79619 0.93384 0.0
H255 H 0.1494 0.79373 0.88275 0.0
H256 H 0.20987 0.78836 0.91511 0.0
H257 H 0.3563 0.64506 0.99695 0.0
H258 H 0.2903 0.69254 0.00493 0.0
H259 H 0.3207 0.7416 0.93899 0.0
H260 H 0.38492 0.69351 0.93046 0.0
H261 H 0.2264 0.73437 0.9435 0.0
H262 H 0.36081 0.78835 0.99489 0.0
H263 H 0.42407 0.78739 0.02651 0.0
H264 H 0.31495 0.76901 0.07807 0.0
H265 H 0.25105 0.76935 0.04664 0.0
C266 C 0.15768 0.91864 0.97523 0.0
C267 C 0.1261 0.92827 0.99436 0.0
C268 C 0.17721 0.88032 0.97104 0.0
C269 C 0.16634 0.85126 0.98627 0.0
C270 C 0.13308 0.86026 0.00481 0.0
C271 C 0.1126 0.89846 0.00866 0.0
C272 C 0.19419 0.8136 0.98422 0.0
C273 C 0.22809 0.80875 0.00257 0.0
C274 C 0.193 0.78607 0.96285 0.0
C275 C 0.15677 0.78912 0.94327 0.0
C276 C 0.10703 0.79126 0.94829 0.0
C277 C 0.07305 0.79448 0.92984 0.0
C278 C 0.08833 0.7954 0.90624 0.0
C279 C 0.13762 0.79301 0.90104 0.0
C280 C 0.17176 0.78982 0.91943 0.0
C281 C 0.34862 0.66575 0.98407 0.0
C282 C 0.37645 0.66577 0.96323 0.0
C283 C 0.31107 0.69305 0.98872 0.0
C284 C 0.30075 0.72099 0.97267 0.0
C285 C 0.32788 0.72045 0.95167 0.0
C286 C 0.36515 0.69322 0.94699 0.0
C287 C 0.26278 0.7517 0.97778 0.0
C288 C 0.22718 0.7554 0.95995 0.0
C289 C 0.26291 0.77863 0.99947 0.0
C290 C 0.30124 0.77831 0.01836 0.0
C291 C 0.35035 0.78374 0.01293 0.0
C292 C 0.38631 0.78338 0.03082 0.0
C293 C 0.37356 0.77799 0.05427 0.0
C294 C 0.32479 0.77307 0.05989 0.0
C295 C 0.28868 0.77335 0.04205 0.0
H296 H 0.40144 0.77773 0.0681 0.0
H297 H 0.06197 0.79789 0.89198 0.0
H298 H 0.98439 0.91644 0.99911 0.0
H299 H 0.95315 0.8532 0.01162 0.0
H300 H 0.86564 0.92072 0.06481 0.0
H301 H 0.89641 0.98357 0.05222 0.0
H302 H 0.92907 0.81404 0.0571 0.0
H303 H 0.75124 0.89384 0.04571 0.0
H304 H 0.72026 0.95068 0.02631 0.0
H305 H 0.82571 0.92938 0.97087 0.0
H306 H 0.85674 0.87209 0.98975 0.0
H307 H 0.72234 0.71328 0.09821 0.0
H308 H 0.78677 0.76009 0.08926 0.0
H309 H 0.75388 0.73174 0.01328 0.0
H310 H 0.68891 0.68471 0.0222 0.0
H311 H 0.75775 0.81286 0.02798 0.0
H312 H 0.85768 0.70069 0.03544 0.0
H313 H 0.88972 0.64409 0.05457 0.0
H314 H 0.94124 0.72627 0.11538 0.0
H315 H 0.90885 0.78335 0.09678 0.0
C316 C 0.96091 0.91769 0.0145 0.0
C317 C 0.94288 0.95469 0.02484 0.0
C318 C 0.94281 0.88155 0.02153 0.0
C319 C 0.90647 0.88236 0.03885 0.0
C320 C 0.89353 0.91948 0.05136 0.0
C321 C 0.91141 0.9554 0.04429 0.0
C322 C 0.87459 0.84641 0.04007 0.0
C323 C 0.89166 0.8136 0.05074 0.0
C324 C 0.82609 0.84554 0.03124 0.0
C325 C 0.80653 0.87896 0.01925 0.0
C326 C 0.76757 0.90117 0.0293 0.0
C327 C 0.75005 0.93348 0.01841 0.0
C328 C 0.7711 0.94371 0.99741 0.0
C329 C 0.80952 0.92151 0.98717 0.0
C330 C 0.82711 0.88914 0.99797 0.0
C331 C 0.72896 0.71688 0.07957 0.0
C332 C 0.70028 0.69561 0.06089 0.0
C333 C 0.76613 0.74335 0.07448 0.0
C334 C 0.77542 0.74923 0.0506 0.0
C335 C 0.74745 0.7275 0.03184 0.0
C336 C 0.71048 0.70061 0.03692 0.0
C337 C 0.81164 0.78047 0.04553 0.0
C338 C 0.79526 0.81276 0.03416 0.0
C339 C 0.86072 0.7805 0.05356 0.0
C340 C 0.8805 0.74629 0.06477 0.0
C341 C 0.8755 0.70668 0.05298 0.0
C342 C 0.89379 0.67451 0.06371 0.0
C343 C 0.91742 0.68157 0.0862 0.0
C344 C 0.92291 0.72084 0.09797 0.0
C345 C 0.90465 0.75313 0.08732 0.0
H346 H 0.93155 0.65662 0.09448 0.0
H347 H 0.75758 0.9688 0.98905 0.0
H348 H 0.99926 0.16718 0.98485 0.0
H349 H 0.96256 0.23225 0.98248 0.0
H350 H 0.87616 0.21643 0.0444 0.0
H351 H 0.9105 0.14984 0.04544 0.0
H352 H 0.81963 0.23214 0.01242 0.0
H353 H 0.96797 0.29561 0.04173 0.0
H354 H 0.05656 0.30748 0.04448 0.0
H355 H 0.0559 0.33925 0.97255 0.0
H356 H 0.96739 0.32677 0.96913 0.0
H357 H 0.70065 0.41596 0.00336 0.0
H358 H 0.75969 0.37199 0.01949 0.0
H359 H 0.82263 0.34754 0.94934 0.0
H360 H 0.76345 0.39111 0.93307 0.0
H361 H 0.89296 0.35892 0.99072 0.0
H362 H 0.74536 0.28356 0.96156 0.0
H363 H 0.6568 0.27114 0.96019 0.0
H364 H 0.65857 0.26386 0.03627 0.0
H365 H 0.74712 0.27686 0.03812 0.0
C366 C 0.97386 0.17846 0.99851 0.0
C367 C 0.95798 0.15396 0.0155 0.0
C368 C 0.9528 0.21577 0.99719 0.0
C369 C 0.91642 0.22971 0.0133 0.0
C370 C 0.90381 0.20647 0.03163 0.0
C371 C 0.92384 0.16865 0.03247 0.0
C372 C 0.88686 0.26506 0.00893 0.0
C373 C 0.83605 0.26018 0.00837 0.0
C374 C 0.90772 0.30162 0.00304 0.0
C375 C 0.96091 0.31005 0.00514 0.0
C376 C 0.98669 0.30492 0.02643 0.0
C377 C 0.03691 0.31174 0.02811 0.0
C378 C 0.0618 0.32412 0.00871 0.0
C379 C 0.03653 0.32969 0.98757 0.0
C380 C 0.9863 0.32279 0.98576 0.0
C381 C 0.72759 0.40173 0.99149 0.0
C382 C 0.72718 0.40668 0.96691 0.0
C383 C 0.7613 0.37668 0.00072 0.0
C384 C 0.79558 0.35656 0.98561 0.0
C385 C 0.79671 0.36298 0.96134 0.0
C386 C 0.76259 0.38752 0.95202 0.0
C387 C 0.82655 0.32546 0.99436 0.0
C388 C 0.87723 0.33109 0.99546 0.0
C389 C 0.80582 0.28975 0.00119 0.0
C390 C 0.75269 0.28167 1.00003 0.0
C391 C 0.72678 0.27967 0.97803 0.0
C392 C 0.67662 0.27246 0.97716 0.0
C393 C 0.65205 0.26684 0.99814 0.0
C394 C 0.67763 0.26831 0.02003 0.0
C395 C 0.7278 0.27558 0.021 0.0
H396 H 0.61321 0.26125 0.99743 0.0
H397 H 0.10062 0.32953 0.0101 0.0
H398 H 0.65372 0.62402 0.48155 0.0
H399 H 0.68292 0.68983 0.47184 0.0
H400 H 0.64512 0.74413 0.54297 0.0
H401 H 0.61511 0.679 0.55225 0.0
H402 H 0.64153 0.79936 0.51347 0.0
H403 H 0.7559 0.69773 0.53146 0.0
H404 H 0.79406 0.63147 0.52389 0.0
H405 H 0.83541 0.65668 0.4536 0.0
H406 H 0.79687 0.72293 0.46069 0.0
H407 H 0.83473 0.91653 0.57085 0.0
H408 H 0.77175 0.8669 0.55535 0.0
H409 H 0.83004 0.86226 0.48407 0.0
H410 H 0.89306 0.91285 0.49961 0.0
H411 H 0.81838 0.78622 0.50086 0.0
H412 H 0.72235 0.89946 0.49166 0.0
H413 H 0.68696 0.96581 0.50358 0.0
H414 H 0.61366 0.91951 0.56167 0.0
H415 H 0.6492 0.85302 0.55035 0.0
C416 C 0.649 0.65055 0.49447 0.0
C417 C 0.63187 0.64672 0.51755 0.0
C418 C 0.66637 0.68806 0.48909 0.0
C419 C 0.66754 0.72184 0.50693 0.0
C420 C 0.64491 0.71868 0.52891 0.0
C421 C 0.62748 0.68141 0.5342 0.0
C422 C 0.69915 0.75796 0.50488 0.0
C423 C 0.68013 0.79653 0.51051 0.0
C424 C 0.74956 0.75451 0.50066 0.0
C425 C 0.77302 0.71494 0.49646 0.0
C426 C 0.77292 0.689 0.51435 0.0
C427 C 0.7946 0.65149 0.51015 0.0
C428 C 0.81701 0.63982 0.48825 0.0
C429 C 0.81791 0.66572 0.47053 0.0
C430 C 0.79614 0.70323 0.47461 0.0
C431 C 0.8336 0.90539 0.5518 0.0
C432 C 0.86869 0.91837 0.53641 0.0
C433 C 0.79748 0.87722 0.54292 0.0
C434 C 0.79591 0.86107 0.51851 0.0
C435 C 0.83039 0.87456 0.50293 0.0
C436 C 0.86621 0.90343 0.51177 0.0
C437 C 0.76097 0.82746 0.5102 0.0
C438 C 0.77953 0.7893 0.50285 0.0
C439 C 0.71038 0.83131 0.51333 0.0
C440 C 0.68864 0.87122 0.52018 0.0
C441 C 0.69895 0.90347 0.50708 0.0
C442 C 0.67882 0.94111 0.51372 0.0
C443 C 0.64811 0.94688 0.53338 0.0
C444 C 0.63743 0.91499 0.54643 0.0
C445 C 0.65749 0.87729 0.53988 0.0
H446 H 0.63257 0.97605 0.5385 0.0
H447 H 0.83379 0.61077 0.48503 0.0
H448 H 0.59243 0.41751 0.48445 0.0
H449 H 0.62632 0.35073 0.47295 0.0
H450 H 0.75817 0.38903 0.51278 0.0
H451 H 0.72523 0.45511 0.52415 0.0
H452 H 0.7766 0.35082 0.46875 0.0
H453 H 0.66825 0.33205 0.53465 0.0
H454 H 0.58806 0.33137 0.55343 0.0
H455 H 0.53554 0.24234 0.49626 0.0
H456 H 0.61489 0.24345 0.47672 0.0
H457 H 0.90896 0.18602 0.48959 0.0
H458 H 0.8561 0.24371 0.49712 0.0
H459 H 0.74116 0.17675 0.45537 0.0
H460 H 0.79386 0.1185 0.44816 0.0
H461 H 0.70518 0.2255 0.49359 0.0
H462 H 0.81127 0.23966 0.42888 0.0
H463 H 0.8895 0.23947 0.40823 0.0
H464 H 0.94353 0.336 0.46048 0.0
H465 H 0.86586 0.33632 0.48169 0.0
C466 C 0.62862 0.41162 0.49078 0.0
C467 C 0.65598 0.4417 0.50533 0.0
C468 C 0.64785 0.37346 0.4842 0.0
C469 C 0.69466 0.36488 0.49214 0.0
C470 C 0.72202 0.395 0.50641 0.0
C471 C 0.70301 0.43288 0.51294 0.0
C472 C 0.71624 0.32487 0.48579 0.0
C473 C 0.76105 0.32347 0.47429 0.0
C474 C 0.69498 0.28889 0.49215 0.0
C475 C 0.64736 0.28824 0.50405 0.0
C476 C 0.63943 0.31269 0.52593 0.0
C477 C 0.59409 0.31225 0.5367 0.0
C478 C 0.55661 0.28701 0.52597 0.0
C479 C 0.56443 0.26212 0.50446 0.0
C480 C 0.60956 0.26268 0.49351 0.0
C481 C 0.87216 0.18341 0.48236 0.0
C482 C 0.85561 0.14803 0.4681 0.0
C483 C 0.84203 0.21635 0.48662 0.0
C484 C 0.79509 0.21482 0.47631 0.0
C485 C 0.77733 0.17862 0.46338 0.0
C486 C 0.80739 0.1454 0.45932 0.0
C487 C 0.76652 0.25203 0.47759 0.0
C488 C 0.72041 0.25279 0.48785 0.0
C489 C 0.7862 0.28752 0.46985 0.0
C490 C 0.83281 0.28782 0.45697 0.0
C491 C 0.83992 0.26068 0.43605 0.0
C492 C 0.88417 0.26056 0.42424 0.0
C493 C 0.92149 0.28766 0.43306 0.0
C494 C 0.91459 0.31501 0.45368 0.0
C495 C 0.87044 0.3152 0.46559 0.0
H496 H 0.95572 0.28752 0.42389 0.0
H497 H 0.52157 0.28662 0.53437 0.0
H498 H 0.51507 0.41413 0.50673 0.0
H499 H 0.48563 0.35707 0.52656 0.0
H500 H 0.35739 0.42275 0.54812 0.0
H501 H 0.38686 0.47931 0.52846 0.0
H502 H 0.38136 0.37285 0.58078 0.0
H503 H 0.36306 0.36618 0.49324 0.0
H504 H 0.39557 0.365 0.45238 0.0
H505 H 0.47642 0.25984 0.46192 0.0
H506 H 0.44477 0.26077 0.50301 0.0
H507 H 0.17028 0.25191 0.56769 0.0
H508 H 0.23621 0.29972 0.56278 0.0
H509 H 0.33516 0.20197 0.54913 0.0
H510 H 0.26955 0.15369 0.5548 0.0
H511 H 0.3441 0.25872 0.51692 0.0
H512 H 0.3445 0.25743 0.60154 0.0
H513 H 0.31049 0.25977 0.64211 0.0
H514 H 0.26208 0.37983 0.63828 0.0
H515 H 0.29508 0.378 0.59751 0.0
C516 C 0.48188 0.41697 0.51678 0.0
C517 C 0.45321 0.45096 0.51628 0.0
C518 C 0.46481 0.38427 0.52789 0.0
C519 C 0.41879 0.38531 0.53841 0.0
C520 C 0.3929 0.42114 0.54011 0.0
C521 C 0.40978 0.45354 0.52894 0.0
C522 C 0.39352 0.34804 0.54405 0.0
C523 C 0.37341 0.34777 0.56689 0.0
C524 C 0.38393 0.31484 0.52607 0.0
C525 C 0.4022 0.31389 0.50127 0.0
C526 C 0.38802 0.34297 0.48667 0.0
C527 C 0.40626 0.34234 0.46348 0.0
C528 C 0.43823 0.31247 0.45461 0.0
C529 C 0.45182 0.28305 0.46887 0.0
C530 C 0.43377 0.28362 0.4921 0.0
C531 C 0.20609 0.24042 0.56387 0.0
C532 C 0.21453 0.19882 0.56191 0.0
C533 C 0.24379 0.26787 0.56104 0.0
C534 C 0.29082 0.25448 0.55604 0.0
C535 C 0.2992 0.21296 0.55315 0.0
C536 C 0.26149 0.18539 0.5562 0.0
C537 C 0.33058 0.28421 0.55341 0.0
C538 C 0.35319 0.2831 0.5311 0.0
C539 C 0.34222 0.31621 0.57185 0.0
C540 C 0.32203 0.31745 0.59636 0.0
C541 C 0.32623 0.28421 0.60925 0.0
C542 C 0.30719 0.28547 0.63231 0.0
C543 C 0.28408 0.31991 0.64276 0.0
C544 C 0.27999 0.35317 0.63017 0.0
C545 C 0.29891 0.35205 0.60708 0.0
H546 H 0.26941 0.32084 0.66062 0.0
H547 H 0.45233 0.31203 0.43665 0.0
H548 H 0.45368 0.65057 0.53771 0.0
H549 H 0.40821 0.71363 0.54037 0.0
H550 H 0.39268 0.69943 0.46287 0.0
H551 H 0.43705 0.63711 0.4602 0.0
H552 H 0.41222 0.77845 0.48196 0.0
H553 H 0.30538 0.66478 0.49621 0.0
H554 H 0.28004 0.61009 0.5193 0.0
H555 H 0.26759 0.69543 0.5829 0.0
H556 H 0.29347 0.75056 0.5602 0.0
H557 H 0.20245 0.84707 0.43324 0.0
H558 H 0.26742 0.80817 0.44809 0.0
H559 H 0.23225 0.85252 0.52134 0.0
H560 H 0.16566 0.89088 0.50652 0.0
H561 H 0.24771 0.77207 0.51598 0.0
H562 H 0.33392 0.88785 0.49756 0.0
H563 H 0.35766 0.94174 0.47359 0.0
H564 H 0.40959 0.85368 0.418 0.0
H565 H 0.38552 0.79918 0.44145 0.0
C566 C 0.44126 0.66153 0.52132 0.0
C567 C 0.4483 0.6389 0.49878 0.0
C568 C 0.41524 0.69734 0.52284 0.0
C569 C 0.39682 0.71103 0.5018 0.0
C570 C 0.40657 0.68953 0.47932 0.0
C571 C 0.43169 0.65377 0.47783 0.0
C572 C 0.36389 0.74557 0.50256 0.0
C573 C 0.37637 0.77733 0.48956 0.0
C574 C 0.31766 0.7447 0.51308 0.0
C575 C 0.30195 0.71164 0.52663 0.0
C576 C 0.2976 0.6718 0.51517 0.0
C577 C 0.28308 0.64075 0.52817 0.0
C578 C 0.27238 0.64926 0.55258 0.0
C579 C 0.27602 0.68887 0.56401 0.0
C580 C 0.29061 0.72002 0.55109 0.0
C581 C 0.20808 0.84832 0.45253 0.0
C582 C 0.17864 0.87198 0.46869 0.0
C583 C 0.24574 0.82646 0.461 0.0
C584 C 0.25531 0.82797 0.48583 0.0
C585 C 0.22578 0.8512 0.5021 0.0
C586 C 0.18794 0.87323 0.4936 0.0
C587 C 0.29527 0.80399 0.49439 0.0
C588 C 0.28408 0.77421 0.5091 0.0
C589 C 0.34277 0.8067 0.48542 0.0
C590 C 0.35775 0.83939 0.47127 0.0
C591 C 0.35016 0.87994 0.48016 0.0
C592 C 0.3637 0.91061 0.46667 0.0
C593 C 0.38509 0.90114 0.44428 0.0
C594 C 0.39305 0.86097 0.43535 0.0
C595 C 0.37955 0.83018 0.44877 0.0
H596 H 0.39553 0.92492 0.43385 0.0
H597 H 0.26113 0.62518 0.56261 0.0
H598 H 0.99258 0.00957 0.07932 0.0
H599 H 0.97604 0.9985 0.12092 0.0
H600 H 0.11502 0.05324 0.144 0.0
H601 H 0.13212 0.06357 0.10268 0.0
H602 H 0.10323 0.98477 0.16166 0.0
H603 H 1.00576 0.10143 0.15571 0.0
H604 H 0.94192 0.13982 0.13812 0.0
H605 H 0.83492 0.05079 0.15176 0.0
H606 H 0.89827 0.01159 0.16916 0.0
H607 H 0.08811 0.03379 0.28726 0.0
H608 H 0.09054 0.037 0.24388 0.0
H609 H 0.95925 0.96394 0.23335 0.0
H610 H 0.9566 0.96061 0.27694 0.0
H611 H 0.95994 0.03324 0.20819 0.0
H612 H 0.05775 0.92012 0.21765 0.0
H613 H 0.12221 0.88317 0.23581 0.0
H614 H 0.22944 0.96704 0.21575 0.0
H615 H 0.16551 0.00488 0.19779 0.0
C616 C 0.01929 0.01969 0.09333 0.0
C617 C 0.06378 0.03726 0.08767 0.0
C618 C 0.0098 0.01335 0.1171 0.0
C619 C 0.04432 0.02503 0.13561 0.0
C620 C 0.08802 0.04365 0.13002 0.0
C621 C 0.09769 0.04963 0.10636 0.0
C622 C 0.03637 0.01673 0.16073 0.0
C623 C 0.07206 0.99571 0.17186 0.0
C624 C 0.99492 0.02974 0.17384 0.0
C625 C 0.95682 0.05336 0.16348 0.0
C626 C 0.96867 0.08988 0.15478 0.0
C627 C 0.93257 0.11182 0.14488 0.0
C628 C 0.88442 0.09769 0.14375 0.0
C629 C 0.87224 0.06166 0.1526 0.0
C630 C 0.90822 0.03958 0.1625 0.0
C631 C 0.0597 0.01848 0.27571 0.0
C632 C 0.0222 0.99691 0.28544 0.0
C633 C 0.06123 0.0202 0.25095 0.0
C634 C 0.02518 1.00056 0.23543 0.0
C635 C 0.9874 0.97925 0.24506 0.0
C636 C 0.98615 0.97713 0.26987 0.0
C637 C 0.02752 0.00245 0.20917 0.0
C638 C 0.99079 0.02203 0.19784 0.0
C639 C 0.06813 0.9883 0.19585 0.0
C640 C 0.10676 0.96553 0.20654 0.0
C641 C 0.09502 0.93088 0.21729 0.0
C642 C 0.13148 0.90974 0.22751 0.0
C643 C 0.17988 0.92279 0.22698 0.0
C644 C 0.19193 0.95698 0.21617 0.0
C645 C 0.1556 0.97826 0.20594 0.0
H646 H 0.20806 0.90638 0.2349 0.0
H647 H 0.85652 0.11472 0.13608 0.0
H648 H 0.08934 0.07229 0.93794 0.0
H649 H 0.11053 0.07501 0.89569 0.0
H650 H 0.98669 0.99803 0.87236 0.0
H651 H 0.96503 0.99553 0.91423 0.0
H652 H 0.07299 0.97759 0.84691 0.0
H653 H 0.97554 0.09425 0.87327 0.0
H654 H 0.95892 0.15659 0.90006 0.0
H655 H 0.09396 0.20921 0.88096 0.0
H656 H 0.11167 0.14688 0.85431 0.0
H657 H 1.00283 0.00285 0.72926 0.0
H658 H 0.00847 1.00022 0.77259 0.0
H659 H 0.11998 0.09369 0.77947 0.0
H660 H 0.11435 0.09657 0.73597 0.0
H661 H 0.05624 0.10787 0.81438 0.0
H662 H 0.14906 0.99626 0.78349 0.0
H663 H 0.16838 0.93411 0.75719 0.0
H664 H 0.04831 0.87197 0.78511 0.0
H665 H 0.02778 0.93392 0.81133 0.0
C666 C 0.06701 0.0556 0.92378 0.0
C667 C 0.02531 0.03395 0.92936 0.0
C668 C 0.07909 0.05726 0.89971 0.0
C669 C 0.05 0.03684 0.88098 0.0
C670 C 0.00959 0.01394 0.88658 0.0
C671 C 0.99712 0.01276 0.91051 0.0
C672 C 0.05952 0.04079 0.85544 0.0
C673 C 0.06929 0.00599 0.83972 0.0
C674 C 0.05618 0.07815 0.84631 0.0
C675 C 0.0452 0.11577 0.86204 0.0
C676 C 1.00185 0.119 0.87493 0.0
C677 C 0.99221 0.15434 0.89006 0.0
C678 C 0.02544 0.18679 0.89227 0.0
C679 C 0.0683 0.18402 0.87927 0.0
C680 C 0.07815 0.1487 0.86415 0.0
C681 C 0.02892 0.02256 0.73994 0.0
C682 C 0.05835 0.04974 0.72916 0.0
C683 C 0.03214 0.02103 0.76472 0.0
C684 C 0.06525 0.04629 0.77924 0.0
C685 C 0.0943 0.07383 0.7686 0.0
C686 C 0.09093 0.07552 0.74378 0.0
C687 C 0.06839 0.04433 0.80558 0.0
C688 C 0.06097 0.07951 0.8215 0.0
C689 C 0.07442 0.00734 0.81494 0.0
C690 C 0.08669 0.96987 0.79927 0.0
C691 C 0.12655 0.96943 0.78391 0.0
C692 C 0.13775 0.93422 0.76903 0.0
C693 C 0.10954 0.89914 0.76945 0.0
C694 C 0.07012 0.89918 0.78479 0.0
C695 C 0.05872 0.93433 0.79969 0.0
H696 H 0.11827 0.8719 0.75791 0.0
H697 H 0.01792 0.21412 0.90401 0.0
H698 H 0.47084 0.56785 0.58584 0.0
H699 H 0.44247 0.55913 0.62644 0.0
H700 H 0.5512 0.46998 0.63222 0.0
H701 H 0.57973 0.47907 0.59219 0.0
H702 H 0.46483 0.4517 0.65428 0.0
H703 H 0.57883 0.56451 0.65139 0.0
H704 H 0.60492 0.62884 0.63793 0.0
H705 H 0.47784 0.68528 0.66836 0.0
H706 H 0.45068 0.62103 0.68169 0.0
H707 H 0.55643 0.46064 0.77369 0.0
H708 H 0.5402 0.45983 0.73054 0.0
H709 H 0.441 0.55721 0.7456 0.0
H710 H 0.45676 0.558 0.78877 0.0
H711 H 0.50316 0.57331 0.71251 0.0
H712 H 0.39917 0.46258 0.72341 0.0
H713 H 0.37424 0.39792 0.73673 0.0
H714 H 0.48111 0.3369 0.6917 0.0
H715 H 0.50724 0.40129 0.67838 0.0
C716 C 0.48749 0.54561 0.59559 0.0
C717 C 0.52756 0.52431 0.58616 0.0
C718 C 0.47147 0.54072 0.61873 0.0
C719 C 0.49509 0.51415 0.6324 0.0
C720 C 0.53242 0.49054 0.62201 0.0
C721 C 0.54882 0.49587 0.59921 0.0
C722 C 0.48623 0.51443 0.65847 0.0
C723 C 0.47297 0.47824 0.66709 0.0
C724 C 0.49599 0.54931 0.67509 0.0
C725 C 0.51243 0.58792 0.66723 0.0
C726 C 0.55628 0.59057 0.65503 0.0
C727 C 0.57129 0.62701 0.64745 0.0
C728 C 0.54297 0.66109 0.65221 0.0
C729 C 0.49967 0.65882 0.66463 0.0
C730 C 0.48444 0.62242 0.67219 0.0
C731 C 0.5305 0.4814 0.76786 0.0
C732 C 0.50819 0.50958 0.7847 0.0
C733 C 0.52116 0.48087 0.74316 0.0
C734 C 0.48904 0.50827 0.7348 0.0
C735 C 0.46594 0.53583 0.7516 0.0
C736 C 0.47525 0.53639 0.77627 0.0
C737 C 0.48269 0.51023 0.70854 0.0
C738 C 0.49351 0.54689 0.69986 0.0
C739 C 0.47071 0.47572 0.69193 0.0
C740 C 0.45541 0.43688 0.70002 0.0
C741 C 0.41768 0.43544 0.7165 0.0
C742 C 0.40326 0.39881 0.72402 0.0
C743 C 0.42613 0.36334 0.7151 0.0
C744 C 0.46344 0.36441 0.69861 0.0
C745 C 0.47803 0.40097 0.69104 0.0
H746 H 0.41489 0.335 0.72092 0.0
H747 H 0.55465 0.68928 0.64634 0.0
H748 H 0.6034 0.59914 0.443 0.0
H749 H 0.62284 0.61412 0.40232 0.0
H750 H 0.58792 0.4909 0.37379 0.0
H751 H 0.5685 0.47589 0.4141 0.0
H752 H 0.6779 0.57309 0.35621 0.0
H753 H 0.48781 0.50308 0.3395 0.0
H754 H 0.41483 0.49068 0.36266 0.0
H755 H 0.44831 0.59708 0.41209 0.0
H756 H 0.52085 0.6105 0.38893 0.0
H757 H 0.61954 0.52455 0.23163 0.0
H758 H 0.63436 0.52671 0.27497 0.0
H759 H 0.53367 0.62337 0.28849 0.0
H760 H 0.51744 0.62047 0.24522 0.0
H761 H 0.51527 0.56737 0.31614 0.0
H762 H 0.65612 0.64075 0.29739 0.0
H763 H 0.73011 0.65455 0.27545 0.0
H764 H 0.79561 0.54969 0.29759 0.0
H765 H 0.72172 0.53489 0.31939 0.0
C766 C 0.60235 0.57486 0.42822 0.0
C767 C 0.58403 0.53649 0.43154 0.0
C768 C 0.61336 0.58346 0.405 0.0
C769 C 0.60617 0.55367 0.38512 0.0
C770 C 0.59354 0.51425 0.38894 0.0
C771 C 0.58237 0.50575 0.41195 0.0
C772 C 0.60117 0.56472 0.36046 0.0
C773 C 0.6425 0.57218 0.34738 0.0
C774 C 0.55476 0.56432 0.34926 0.0
C775 C 0.50993 0.55756 0.36261 0.0
C776 C 0.47934 0.52397 0.3552 0.0
C777 C 0.43809 0.51675 0.36834 0.0
C778 C 0.42702 0.543 0.38887 0.0
C779 C 0.45698 0.5767 0.39622 0.0
C780 C 0.49816 0.58412 0.3831 0.0
C781 C 0.60041 0.54617 0.24383 0.0
C782 C 0.56713 0.57222 0.23495 0.0
C783 C 0.60945 0.54776 0.2686 0.0
C784 C 0.5856 0.57556 0.28499 0.0
C785 C 0.55272 0.60185 0.27617 0.0
C786 C 0.54366 0.60028 0.25142 0.0
C787 C 0.59219 0.5751 0.31135 0.0
C788 C 0.55086 0.56919 0.32485 0.0
C789 C 0.63857 0.57773 0.3229 0.0
C790 C 0.68319 0.58655 0.30989 0.0
C791 C 0.68615 0.62045 0.29744 0.0
C792 C 0.72811 0.62848 0.28505 0.0
C793 C 0.7675 0.60297 0.28509 0.0
C794 C 0.76505 0.56942 0.29757 0.0
C795 C 0.72316 0.56122 0.30997 0.0
H796 H 0.79996 0.60925 0.27549 0.0
H797 H 0.39518 0.53728 0.39907 0.0
loop_
_geom_bond_atom_site_label_1
_geom_bond_atom_site_label_2
_geom_bond_distance
_geom_bond_site_symmetry_2
_ccdc_geom_bond_type
O0 Mn1 2.163 . S
O0 C14 1.244 1_455 S
Mn1 O0 2.163 . S
Mn1 O4 2.160 1_545 S
Mn1 O5 2.221 . S
Mn1 O7 2.163 . S
Mn1 O9 2.160 1_554 S
Mn1 O19 2.221 1_444 S
O2 Mn3 2.087 . S
O2 C14 1.256 1_556 S
Mn3 O2 2.087 . S
Mn3 O10 2.089 . S
Mn3 O19 2.290 1_545 S
Mn3 O20 2.251 1_546 S
O4 Mn1 2.160 1_565 S
O4 C15 1.244 . S
O5 Mn1 2.221 . S
O5 Mn6 2.290 . S
O5 C16 1.278 . S
Mn6 O5 2.290 . S
Mn6 O8 2.089 1_545 S
Mn6 O11 2.251 . S
Mn6 O12 2.087 . S
O7 Mn1 2.163 . S
O7 C17 1.244 . S
O8 Mn6 2.089 1_565 S
O8 C15 1.256 . S
O9 Mn1 2.160 1_556 S
O9 C18 1.239 . S
O10 Mn3 2.089 . S
O10 C18 1.256 1_655 S
O11 Mn6 2.251 . S
O11 C16 1.241 . S
O12 Mn6 2.087 . S
O12 C17 1.256 . S
C13 O19 1.278 1_554 S
C13 O20 1.241 . S
C14 O0 1.244 1_655 S
C14 O2 1.256 1_554 S
C15 O4 1.244 . S
C15 O8 1.256 . S
C16 O5 1.278 . S
C16 O11 1.241 . S
C17 O7 1.244 . S
C17 O12 1.256 . S
C18 O9 1.239 . S
C18 O10 1.256 1_455 S
O19 Mn1 2.221 1_666 S
O19 Mn3 2.290 1_565 S
O19 C13 1.278 1_556 S
O20 Mn3 2.251 1_564 S
O20 C13 1.241 . S
O21 Mn22 2.163 . S
O21 C35 1.244 . S
Mn22 O21 2.163 . S
Mn22 O25 2.160 . S
Mn22 O26 2.221 . S
Mn22 O28 2.163 . S
Mn22 O30 2.160 . S
Mn22 O40 2.221 . S
O23 Mn24 2.087 . S
O23 C35 1.256 . S
Mn24 O23 2.087 . S
Mn24 O31 2.089 . S
Mn24 O40 2.290 . S
Mn24 O41 2.251 . S
O25 Mn22 2.160 . S
O25 C36 1.239 . S
O26 Mn22 2.221 . S
O26 Mn27 2.290 . S
O26 C37 1.278 . S
Mn27 O26 2.290 . S
Mn27 O29 2.089 . S
Mn27 O32 2.251 . S
Mn27 O33 2.087 . S
O28 Mn22 2.163 . S
O28 C38 1.244 . S
O29 Mn27 2.089 . S
O29 C36 1.256 . S
O30 Mn22 2.160 . S
O30 C39 1.239 . S
O31 Mn24 2.089 . S
O31 C39 1.256 . S
O32 Mn27 2.251 . S
O32 C37 1.241 . S
O33 Mn27 2.087 . S
O33 C38 1.256 . S
C34 O40 1.278 . S
C34 O41 1.241 . S
C35 O21 1.244 . S
C35 O23 1.256 . S
C36 O25 1.239 . S
C36 O29 1.256 . S
C37 O26 1.278 . S
C37 O32 1.241 . S
C38 O28 1.244 . S
C38 O33 1.256 . S
C39 O30 1.239 . S
C39 O31 1.256 . S
O40 Mn22 2.221 . S
O40 Mn24 2.290 . S
O40 C34 1.278 . S
O41 Mn24 2.251 . S
O41 C34 1.241 . S
C42 C43 1.386 . S
C42 C44 1.397 . S
C42 H66 0.931 . S
C43 C42 1.386 . S
C43 C47 1.397 1_565 S
C44 C42 1.397 . S
C44 C45 1.404 . S
C44 H67 0.930 . S
C45 C44 1.404 . S
C45 C46 1.354 1_565 S
C45 C48 1.484 1_565 S
C46 C45 1.354 1_545 S
C46 C47 1.389 . S
C46 H68 0.929 . S
C47 C43 1.397 1_545 S
C47 C46 1.389 . S
C47 H69 0.931 . S
C48 C45 1.484 1_545 S
C48 C49 1.380 1_545 S
C48 C53 1.396 . S
C49 C48 1.380 1_565 S
C49 C50 1.401 . S
C49 H70 0.930 . S
C50 C49 1.401 . S
C50 C51 1.376 1_565 S
C50 C59 1.511 . S
C51 C50 1.376 1_545 S
C51 C52 1.392 . S
C51 H72 0.931 . S
C52 C51 1.392 . S
C52 C53 1.361 . S
C52 C54 1.500 1_455 S
C53 C48 1.396 . S
C53 C52 1.361 . S
C53 H71 0.931 1_455 S
C54 C52 1.500 1_655 S
C54 C55 1.371 . S
C54 C56 1.365 . S
C55 C54 1.371 . S
C55 C65 1.386 . S
C55 H73 0.931 . S
C56 C54 1.365 . S
C56 C57 1.409 . S
C56 H74 0.929 . S
C57 C56 1.409 . S
C57 C58 1.380 . S
C57 H75 0.930 . S
C58 C57 1.380 . S
C58 C65 1.357 . S
C59 C50 1.511 . S
C59 C60 1.341 . S
C59 C61 1.371 . S
C60 C59 1.341 . S
C60 C64 1.394 . S
C60 H76 0.930 . S
C61 C59 1.371 . S
C61 C62 1.392 . S
C61 H77 0.931 . S
C62 C61 1.392 . S
C62 C63 1.331 . S
C62 H80 0.932 . S
C63 C62 1.331 . S
C63 C64 1.336 . S
C64 C60 1.394 . S
C64 C63 1.336 . S
C64 H79 0.929 . S
C65 C55 1.386 . S
C65 C58 1.357 . S
C65 H78 0.928 . S
H66 C42 0.931 . S
H67 C44 0.930 . S
H68 C46 0.929 . S
H69 C47 0.931 . S
H70 C49 0.930 . S
H71 C53 0.931 1_655 S
H72 C51 0.931 . S
H73 C55 0.931 . S
H74 C56 0.929 . S
H75 C57 0.930 . S
H76 C60 0.930 . S
H77 C61 0.931 . S
H78 C65 0.928 . S
H79 C64 0.929 . S
H80 C62 0.932 . S
C81 C82 1.386 . S
C81 C83 1.397 . S
C81 H105 0.931 . S
C82 C81 1.386 . S
C82 C86 1.397 . S
C83 C81 1.397 . S
C83 C84 1.384 . S
C83 H106 0.930 . S
C84 C83 1.384 . S
C84 C85 1.377 . S
C84 C87 1.481 . S
C85 C84 1.377 . S
C85 C86 1.389 . S
C85 H107 0.929 . S
C86 C82 1.397 . S
C86 C85 1.389 . S
C86 H108 0.931 . S
C87 C84 1.481 . S
C87 C88 1.387 . S
C87 C92 1.390 1_455 S
C88 C87 1.387 . S
C88 C89 1.401 . S
C88 H109 0.930 . S
C89 C88 1.401 . S
C89 C90 1.376 1_455 S
C89 C98 1.511 . S
C90 C89 1.376 1_655 S
C90 C91 1.392 . S
C90 H111 0.931 . S
C91 C90 1.392 . S
C91 C92 1.361 . S
C91 C93 1.500 . S
C92 C87 1.390 1_655 S
C92 C91 1.361 . S
C92 H110 0.931 . S
C93 C91 1.500 . S
C93 C94 1.371 . S
C93 C95 1.365 1_545 S
C94 C93 1.371 . S
C94 C104 1.386 1_545 S
C94 H112 0.931 . S
C95 C93 1.365 1_565 S
C95 C96 1.409 . S
C95 H113 0.929 . S
C96 C95 1.409 . S
C96 C97 1.380 . S
C96 H114 0.930 . S
C97 C96 1.380 . S
C97 C104 1.357 . S
C98 C89 1.511 . S
C98 C99 1.341 . S
C98 C100 1.371 . S
C99 C98 1.341 . S
C99 C103 1.394 . S
C99 H115 0.930 . S
C100 C98 1.371 . S
C100 C101 1.392 . S
C100 H116 0.931 . S
C101 C100 1.392 . S
C101 C102 1.331 . S
C101 H119 0.932 . S
C102 C101 1.331 . S
C102 C103 1.336 . S
C103 C99 1.394 . S
C103 C102 1.336 . S
C103 H118 0.929 . S
C104 C94 1.386 1_565 S
C104 C97 1.357 . S
C104 H117 0.928 1_565 S
H105 C81 0.931 . S
H106 C83 0.930 . S
H107 C85 0.929 . S
H108 C86 0.931 . S
H109 C88 0.930 . S
H110 C92 0.931 . S
H111 C90 0.931 . S
H112 C94 0.931 . S
H113 C95 0.929 . S
H114 C96 0.930 . S
H115 C99 0.930 . S
H116 C100 0.931 . S
H117 C104 0.928 1_545 S
H118 C103 0.929 . S
H119 C101 0.932 . S
C120 C121 1.386 . S
C120 C122 1.397 . S
C120 H144 0.931 . S
C121 C120 1.386 . S
C121 C125 1.397 . S
C122 C120 1.397 . S
C122 C123 1.384 . S
C122 H145 0.930 . S
C123 C122 1.384 . S
C123 C124 1.377 . S
C123 C126 1.481 . S
C124 C123 1.377 . S
C124 C125 1.389 . S
C124 H146 0.929 . S
C125 C121 1.397 . S
C125 C124 1.389 . S
C125 H147 0.931 . S
C126 C123 1.481 . S
C126 C127 1.387 . S
C126 C131 1.390 . S
C127 C126 1.387 . S
C127 C128 1.401 . S
C127 H148 0.930 . S
C128 C127 1.401 . S
C128 C129 1.376 . S
C128 C137 1.511 . S
C129 C128 1.376 . S
C129 C130 1.392 . S
C129 H150 0.931 . S
C130 C129 1.392 . S
C130 C131 1.361 . S
C130 C132 1.500 . S
C131 C126 1.390 . S
C131 C130 1.361 . S
C131 H149 0.931 . S
C132 C130 1.500 . S
C132 C133 1.371 . S
C132 C134 1.365 . S
C133 C132 1.371 . S
C133 C143 1.386 . S
C133 H151 0.931 . S
C134 C132 1.365 . S
C134 C135 1.409 . S
C134 H152 0.929 . S
C135 C134 1.409 . S
C135 C136 1.380 . S
C135 H153 0.930 . S
C136 C135 1.380 . S
C136 C143 1.357 . S
C137 C128 1.511 . S
C137 C138 1.341 . S
C137 C139 1.371 . S
C138 C137 1.341 . S
C138 C142 1.394 . S
C138 H154 0.930 . S
C139 C137 1.371 . S
C139 C140 1.392 . S
C139 H155 0.931 . S
C140 C139 1.392 . S
C140 C141 1.331 . S
C140 H158 0.932 . S
C141 C140 1.331 . S
C141 C142 1.336 . S
C142 C138 1.394 . S
C142 C141 1.336 . S
C142 H157 0.929 . S
C143 C133 1.386 . S
C143 C136 1.357 . S
C143 H156 0.928 . S
H144 C120 0.931 . S
H145 C122 0.930 . S
H146 C124 0.929 . S
H147 C125 0.931 . S
H148 C127 0.930 . S
H149 C131 0.931 . S
H150 C129 0.931 . S
H151 C133 0.931 . S
H152 C134 0.929 . S
H153 C135 0.930 . S
H154 C138 0.930 . S
H155 C139 0.931 . S
H156 C143 0.928 . S
H157 C142 0.929 . S
H158 C140 0.932 . S
C159 C160 1.386 . S
C159 C161 1.397 . S
C159 H183 0.931 . S
C160 C159 1.386 . S
C160 C164 1.397 . S
C161 C159 1.397 . S
C161 C162 1.384 . S
C161 H184 0.930 . S
C162 C161 1.384 . S
C162 C163 1.377 . S
C162 C165 1.481 . S
C163 C162 1.377 . S
C163 C164 1.389 . S
C163 H185 0.929 . S
C164 C160 1.397 . S
C164 C163 1.389 . S
C164 H186 0.931 . S
C165 C162 1.481 . S
C165 C166 1.387 . S
C165 C170 1.390 . S
C166 C165 1.387 . S
C166 C167 1.401 . S
C166 H187 0.930 . S
C167 C166 1.401 . S
C167 C168 1.376 . S
C167 C176 1.511 . S
C168 C167 1.376 . S
C168 C169 1.392 . S
C168 H189 0.931 . S
C169 C168 1.392 . S
C169 C170 1.361 . S
C169 C171 1.500 . S
C170 C165 1.390 . S
C170 C169 1.361 . S
C170 H188 0.931 . S
C171 C169 1.500 . S
C171 C172 1.371 . S
C171 C173 1.365 . S
C172 C171 1.371 . S
C172 C182 1.386 . S
C172 H190 0.931 . S
C173 C171 1.365 . S
C173 C174 1.409 . S
C173 H191 0.929 . S
C174 C173 1.409 . S
C174 C175 1.380 . S
C174 H192 0.930 . S
C175 C174 1.380 . S
C175 C182 1.357 . S
C176 C167 1.511 . S
C176 C177 1.341 . S
C176 C178 1.371 . S
C177 C176 1.341 . S
C177 C181 1.394 . S
C177 H193 0.930 . S
C178 C176 1.371 . S
C178 C179 1.392 . S
C178 H194 0.931 . S
C179 C178 1.392 . S
C179 C180 1.331 . S
C179 H197 0.932 . S
C180 C179 1.331 . S
C180 C181 1.336 . S
C181 C177 1.394 . S
C181 C180 1.336 . S
C181 H196 0.929 . S
C182 C172 1.386 . S
C182 C175 1.357 . S
C182 H195 0.928 . S
H183 C159 0.931 . S
H184 C161 0.930 . S
H185 C163 0.929 . S
H186 C164 0.931 . S
H187 C166 0.930 . S
H188 C170 0.931 . S
H189 C168 0.931 . S
H190 C172 0.931 . S
H191 C173 0.929 . S
H192 C174 0.930 . S
H193 C177 0.930 . S
H194 C178 0.931 . S
H195 C182 0.928 . S
H196 C181 0.929 . S
H197 C179 0.932 . S
H198 C216 0.951 . S
H199 C218 0.951 . S
H200 C220 0.950 . S
H201 C221 0.950 . S
H202 C223 0.950 1_556 S
H203 C226 0.950 . S
H204 C227 0.950 . S
H205 C229 0.950 . S
H206 C230 0.950 . S
H207 C231 0.951 . S
H208 C233 0.951 . S
H209 C235 0.950 . S
H210 C236 0.950 . S
H211 C238 0.950 . S
H212 C241 0.950 . S
H213 C242 0.950 . S
H214 C244 0.950 . S
H215 C245 0.950 . S
C216 H198 0.951 . S
C216 C217 1.366 . S
C216 C218 1.388 . S
C217 C216 1.366 . S
C217 C221 1.385 . S
C218 H199 0.951 . S
C218 C216 1.388 . S
C218 C219 1.366 . S
C219 C218 1.366 . S
C219 C220 1.414 . S
C219 C222 1.499 . S
C220 H200 0.950 . S
C220 C219 1.414 . S
C220 C221 1.374 . S
C221 H201 0.950 . S
C221 C217 1.385 . S
C221 C220 1.374 . S
C222 C219 1.499 . S
C222 C223 1.373 . S
C222 C224 1.389 . S
C223 H202 0.950 1_554 S
C223 C222 1.373 . S
C223 C239 1.377 . S
C224 C222 1.389 . S
C224 C225 1.524 . S
C224 C238 1.377 . S
C225 C224 1.524 . S
C225 C226 1.397 . S
C225 C230 1.363 . S
C226 H203 0.950 . S
C226 C225 1.397 . S
C226 C227 1.334 . S
C227 H204 0.950 . S
C227 C226 1.334 . S
C227 C228 1.287 . S
C228 C227 1.287 . S
C228 C229 1.524 . S
C228 H247 0.913 . S
C229 H205 0.950 . S
C229 C228 1.524 . S
C229 C230 1.415 . S
C230 H206 0.950 . S
C230 C225 1.363 . S
C230 C229 1.415 . S
C231 H207 0.951 . S
C231 C232 1.366 . S
C231 C233 1.388 . S
C232 C231 1.366 . S
C232 C236 1.385 . S
C233 H208 0.951 . S
C233 C231 1.388 . S
C233 C234 1.366 . S
C234 C233 1.366 . S
C234 C235 1.414 . S
C234 C237 1.499 . S
C235 H209 0.950 . S
C235 C234 1.414 . S
C235 C236 1.374 . S
C236 H210 0.950 . S
C236 C232 1.385 . S
C236 C235 1.374 . S
C237 C234 1.499 . S
C237 C238 1.373 . S
C237 C239 1.389 . S
C238 H211 0.950 . S
C238 C224 1.377 . S
C238 C237 1.373 . S
C239 C223 1.377 . S
C239 C237 1.389 . S
C239 C240 1.524 1_554 S
C240 C239 1.524 1_556 S
C240 C241 1.397 . S
C240 C245 1.363 . S
C241 H212 0.950 . S
C241 C240 1.397 . S
C241 C242 1.334 . S
C242 H213 0.950 . S
C242 C241 1.334 . S
C242 C243 1.287 . S
C243 C242 1.287 . S
C243 C244 1.524 . S
C243 H246 0.999 . S
C244 H214 0.950 . S
C244 C243 1.524 . S
C244 C245 1.415 . S
C245 H215 0.950 . S
C245 C240 1.363 . S
C245 C244 1.415 . S
H246 C243 0.999 . S
H247 C228 0.913 . S
H248 C266 0.951 . S
H249 C268 0.951 . S
H250 C270 0.950 . S
H251 C271 0.950 . S
H252 C273 0.950 . S
H253 C276 0.950 . S
H254 C277 0.950 . S
H255 C279 0.950 . S
H256 C280 0.950 . S
H257 C281 0.951 . S
H258 C283 0.951 . S
H259 C285 0.950 . S
H260 C286 0.950 . S
H261 C288 0.950 . S
H262 C291 0.950 1_556 S
H263 C292 0.950 . S
H264 C294 0.950 . S
H265 C295 0.950 . S
C266 H248 0.951 . S
C266 C267 1.366 1_556 S
C266 C268 1.388 . S
C267 C266 1.366 1_554 S
C267 C271 1.385 . S
C268 H249 0.951 . S
C268 C266 1.388 . S
C268 C269 1.403 . S
C269 C268 1.403 . S
C269 C270 1.376 1_556 S
C269 C272 1.500 . S
C270 H250 0.950 . S
C270 C269 1.376 1_554 S
C270 C271 1.374 . S
C271 H251 0.950 . S
C271 C267 1.385 . S
C271 C270 1.374 . S
C272 C269 1.500 . S
C272 C273 1.373 1_556 S
C272 C274 1.389 . S
C273 H252 0.950 . S
C273 C272 1.373 1_554 S
C273 C289 1.377 . S
C274 C272 1.389 . S
C274 C275 1.524 . S
C274 C288 1.377 . S
C275 C274 1.524 . S
C275 C276 1.397 . S
C275 C280 1.363 . S
C276 H253 0.950 . S
C276 C275 1.397 . S
C276 C277 1.334 . S
C277 H254 0.950 . S
C277 C276 1.334 . S
C277 C278 1.287 . S
C278 C277 1.287 . S
C278 C279 1.524 . S
C278 H297 0.913 . S
C279 H255 0.950 . S
C279 C278 1.524 . S
C279 C280 1.415 . S
C280 H256 0.950 . S
C280 C275 1.363 . S
C280 C279 1.415 . S
C281 H257 0.951 . S
C281 C282 1.366 1_554 S
C281 C283 1.388 . S
C282 C281 1.366 1_556 S
C282 C286 1.385 . S
C283 H258 0.951 . S
C283 C281 1.388 . S
C283 C284 1.366 1_554 S
C284 C283 1.366 1_556 S
C284 C285 1.414 . S
C284 C287 1.499 . S
C285 H259 0.950 . S
C285 C284 1.414 . S
C285 C286 1.374 . S
C286 H260 0.950 . S
C286 C282 1.385 . S
C286 C285 1.374 . S
C287 C284 1.499 . S
C287 C288 1.373 . S
C287 C289 1.389 1_556 S
C288 H261 0.950 . S
C288 C274 1.377 . S
C288 C287 1.373 . S
C289 C273 1.377 . S
C289 C287 1.389 1_554 S
C289 C290 1.524 . S
C290 C289 1.524 . S
C290 C291 1.397 . S
C290 C295 1.363 . S
C291 H262 0.950 1_554 S
C291 C290 1.397 . S
C291 C292 1.334 . S
C292 H263 0.950 . S
C292 C291 1.334 . S
C292 C293 1.287 . S
C293 C292 1.287 . S
C293 C294 1.524 . S
C293 H296 0.999 . S
C294 H264 0.950 . S
C294 C293 1.524 . S
C294 C295 1.415 . S
C295 H265 0.950 . S
C295 C290 1.363 . S
C295 C294 1.415 . S
H296 C293 0.999 . S
H297 C278 0.913 . S
H298 C316 0.951 . S
H299 C318 0.951 1_556 S
H300 C320 0.950 . S
H301 C321 0.950 . S
H302 C323 0.950 . S
H303 C326 0.950 . S
H304 C327 0.938 1_545 S
H305 C329 0.950 . S
H306 C330 0.950 . S
H307 C331 0.951 . S
H308 C333 0.951 . S
H309 C335 0.950 . S
H310 C336 0.950 . S
H311 C338 0.950 . S
H312 C341 0.950 . S
H313 C342 0.950 . S
H314 C344 0.950 . S
H315 C345 0.950 . S
C316 H298 0.951 . S
C316 C317 1.366 1_556 S
C316 C318 1.388 1_556 S
C317 C316 1.366 1_554 S
C317 C321 1.385 . S
C318 H299 0.951 1_554 S
C318 C316 1.388 1_554 S
C318 C319 1.366 . S
C319 C318 1.366 . S
C319 C320 1.414 . S
C319 C322 1.499 . S
C320 H300 0.950 . S
C320 C319 1.414 . S
C320 C321 1.374 . S
C321 H301 0.950 . S
C321 C317 1.385 . S
C321 C320 1.374 . S
C322 C319 1.499 . S
C322 C323 1.373 . S
C322 C324 1.389 . S
C323 H302 0.950 . S
C323 C322 1.373 . S
C323 C339 1.377 . S
C324 C322 1.389 . S
C324 C325 1.524 . S
C324 C338 1.377 . S
C325 C324 1.524 . S
C325 C326 1.397 . S
C325 C330 1.363 1_554 S
C326 H303 0.950 . S
C326 C325 1.397 . S
C326 C327 1.334 . S
C327 H304 0.938 1_565 S
C327 C326 1.334 . S
C327 C328 1.287 . S
C328 C327 1.287 . S
C328 C329 1.524 1_554 S
C328 H347 0.913 1_565 S
C329 H305 0.950 . S
C329 C328 1.524 1_556 S
C329 C330 1.415 . S
C330 H306 0.950 . S
C330 C325 1.363 1_556 S
C330 C329 1.415 . S
C331 H307 0.951 . S
C331 C332 1.366 . S
C331 C333 1.388 . S
C332 C331 1.366 . S
C332 C336 1.385 . S
C333 H308 0.951 . S
C333 C331 1.388 . S
C333 C334 1.366 . S
C334 C333 1.366 . S
C334 C335 1.414 . S
C334 C337 1.499 . S
C335 H309 0.950 . S
C335 C334 1.414 . S
C335 C336 1.374 . S
C336 H310 0.950 . S
C336 C332 1.385 . S
C336 C335 1.374 . S
C337 C334 1.499 . S
C337 C338 1.373 . S
C337 C339 1.389 . S
C338 H311 0.950 . S
C338 C324 1.377 . S
C338 C337 1.373 . S
C339 C323 1.377 . S
C339 C337 1.389 . S
C339 C340 1.524 . S
C340 C339 1.524 . S
C340 C341 1.397 . S
C340 C345 1.363 . S
C341 H312 0.950 . S
C341 C340 1.397 . S
C341 C342 1.334 . S
C342 H313 0.950 . S
C342 C341 1.334 . S
C342 C343 1.287 . S
C343 C342 1.287 . S
C343 C344 1.524 . S
C343 H346 0.999 . S
C344 H314 0.950 . S
C344 C343 1.524 . S
C344 C345 1.415 . S
C345 H315 0.950 . S
C345 C340 1.363 . S
C345 C344 1.415 . S
H346 C343 0.999 . S
H347 C328 0.913 1_545 S
H348 C366 0.951 . S
H349 C368 0.951 . S
H350 C370 0.950 . S
H351 C371 0.950 . S
H352 C373 0.950 1_554 S
H353 C376 0.950 . S
H354 C377 0.950 1_455 S
H355 C379 0.950 . S
H356 C380 0.950 . S
H357 C381 0.951 1_554 S
H358 C383 0.951 1_554 S
H359 C385 0.950 . S
H360 C386 0.950 . S
H361 C388 0.950 . S
H362 C391 0.950 . S
H363 C392 0.950 . S
H364 C394 0.950 . S
H365 C395 0.950 . S
C366 H348 0.951 . S
C366 C367 1.366 1_556 S
C366 C368 1.388 . S
C367 C366 1.366 1_554 S
C367 C371 1.385 . S
C368 H349 0.951 . S
C368 C366 1.388 . S
C368 C369 1.366 . S
C369 C368 1.366 . S
C369 C370 1.414 1_556 S
C369 C372 1.499 . S
C370 H350 0.950 . S
C370 C369 1.414 1_554 S
C370 C371 1.374 . S
C371 H351 0.950 . S
C371 C367 1.385 . S
C371 C370 1.374 . S
C372 C369 1.499 . S
C372 C373 1.373 . S
C372 C374 1.389 . S
C373 H352 0.950 1_556 S
C373 C372 1.373 . S
C373 C389 1.377 . S
C374 C372 1.389 . S
C374 C375 1.524 . S
C374 C388 1.377 . S
C375 C374 1.524 . S
C375 C376 1.397 1_556 S
C375 C380 1.363 . S
C376 H353 0.950 . S
C376 C375 1.397 1_554 S
C376 C377 1.334 . S
C377 H354 0.950 1_655 S
C377 C376 1.334 . S
C377 C378 1.287 1_654 S
C378 C377 1.287 1_456 S
C378 C379 1.524 1_455 S
C378 H397 0.913 . S
C379 H355 0.950 . S
C379 C378 1.524 1_655 S
C379 C380 1.415 . S
C380 H356 0.950 . S
C380 C375 1.363 . S
C380 C379 1.415 . S
C381 H357 0.951 1_556 S
C381 C382 1.366 . S
C381 C383 1.388 . S
C382 C381 1.366 . S
C382 C386 1.385 . S
C383 H358 0.951 1_556 S
C383 C381 1.388 . S
C383 C384 1.366 . S
C384 C383 1.366 . S
C384 C385 1.414 . S
C384 C387 1.499 . S
C385 H359 0.950 . S
C385 C384 1.414 . S
C385 C386 1.374 . S
C386 H360 0.950 . S
C386 C382 1.385 . S
C386 C385 1.374 . S
C387 C384 1.499 . S
C387 C388 1.373 . S
C387 C389 1.389 . S
C388 H361 0.950 . S
C388 C374 1.377 . S
C388 C387 1.373 . S
C389 C373 1.377 . S
C389 C387 1.389 . S
C389 C390 1.524 . S
C390 C389 1.524 . S
C390 C391 1.397 . S
C390 C395 1.363 1_556 S
C391 H362 0.950 . S
C391 C390 1.397 . S
C391 C392 1.334 . S
C392 H363 0.950 . S
C392 C391 1.334 . S
C392 C393 1.287 . S
C393 C392 1.287 . S
C393 C394 1.524 1_556 S
C393 H396 0.999 . S
C394 H364 0.950 . S
C394 C393 1.524 1_554 S
C394 C395 1.415 . S
C395 H365 0.950 . S
C395 C390 1.363 1_554 S
C395 C394 1.415 . S
H396 C393 0.999 . S
H397 C378 0.913 . S
H398 C416 0.951 . S
H399 C418 0.951 . S
H400 C420 0.950 . S
H401 C421 0.950 . S
H402 C423 0.950 . S
H403 C426 0.950 . S
H404 C427 0.950 . S
H405 C429 0.950 . S
H406 C430 0.950 . S
H407 C431 0.951 . S
H408 C433 0.951 . S
H409 C435 0.950 . S
H410 C436 0.950 . S
H411 C438 0.950 . S
H412 C441 0.950 . S
H413 C442 0.950 . S
H414 C444 0.950 . S
H415 C445 0.950 . S
C416 H398 0.951 . S
C416 C417 1.366 . S
C416 C418 1.388 . S
C417 C416 1.366 . S
C417 C421 1.385 . S
C418 H399 0.951 . S
C418 C416 1.388 . S
C418 C419 1.366 . S
C419 C418 1.366 . S
C419 C420 1.414 . S
C419 C422 1.499 . S
C420 H400 0.950 . S
C420 C419 1.414 . S
C420 C421 1.374 . S
C421 H401 0.950 . S
C421 C417 1.385 . S
C421 C420 1.374 . S
C422 C419 1.499 . S
C422 C423 1.373 . S
C422 C424 1.389 . S
C423 H402 0.950 . S
C423 C422 1.373 . S
C423 C439 1.377 . S
C424 C422 1.389 . S
C424 C425 1.524 . S
C424 C438 1.377 . S
C425 C424 1.524 . S
C425 C426 1.397 . S
C425 C430 1.363 . S
C426 H403 0.950 . S
C426 C425 1.397 . S
C426 C427 1.334 . S
C427 H404 0.950 . S
C427 C426 1.334 . S
C427 C428 1.287 . S
C428 C427 1.287 . S
C428 C429 1.524 . S
C428 H447 0.913 . S
C429 H405 0.950 . S
C429 C428 1.524 . S
C429 C430 1.415 . S
C430 H406 0.950 . S
C430 C425 1.363 . S
C430 C429 1.415 . S
C431 H407 0.951 . S
C431 C432 1.366 . S
C431 C433 1.388 . S
C432 C431 1.366 . S
C432 C436 1.385 . S
C433 H408 0.951 . S
C433 C431 1.388 . S
C433 C434 1.366 . S
C434 C433 1.366 . S
C434 C435 1.414 . S
C434 C437 1.499 . S
C435 H409 0.950 . S
C435 C434 1.414 . S
C435 C436 1.374 . S
C436 H410 0.950 . S
C436 C432 1.385 . S
C436 C435 1.374 . S
C437 C434 1.499 . S
C437 C438 1.373 . S
C437 C439 1.389 . S
C438 H411 0.950 . S
C438 C424 1.377 . S
C438 C437 1.373 . S
C439 C423 1.377 . S
C439 C437 1.389 . S
C439 C440 1.524 . S
C440 C439 1.524 . S
C440 C441 1.397 . S
C440 C445 1.363 . S
C441 H412 0.950 . S
C441 C440 1.397 . S
C441 C442 1.334 . S
C442 H413 0.950 . S
C442 C441 1.334 . S
C442 C443 1.287 . S
C443 C442 1.287 . S
C443 C444 1.524 . S
C443 H446 0.999 . S
C444 H414 0.950 . S
C444 C443 1.524 . S
C444 C445 1.415 . S
C445 H415 0.950 . S
C445 C440 1.363 . S
C445 C444 1.415 . S
H446 C443 0.999 . S
H447 C428 0.913 . S
H448 C466 0.951 . S
H449 C468 0.951 . S
H450 C470 0.950 . S
H451 C471 0.950 . S
H452 C473 0.950 . S
H453 C476 0.950 . S
H454 C477 0.950 . S
H455 C479 0.950 . S
H456 C480 0.950 . S
H457 C481 0.951 . S
H458 C483 0.951 . S
H459 C485 0.950 . S
H460 C486 0.950 . S
H461 C488 0.950 . S
H462 C491 0.950 . S
H463 C492 0.950 . S
H464 C494 0.950 . S
H465 C495 0.950 . S
C466 H448 0.951 . S
C466 C467 1.366 . S
C466 C468 1.388 . S
C467 C466 1.366 . S
C467 C471 1.385 . S
C468 H449 0.951 . S
C468 C466 1.388 . S
C468 C469 1.366 . S
C469 C468 1.366 . S
C469 C470 1.414 . S
C469 C472 1.499 . S
C470 H450 0.950 . S
C470 C469 1.414 . S
C470 C471 1.374 . S
C471 H451 0.950 . S
C471 C467 1.385 . S
C471 C470 1.374 . S
C472 C469 1.499 . S
C472 C473 1.373 . S
C472 C474 1.389 . S
C473 H452 0.950 . S
C473 C472 1.373 . S
C473 C489 1.377 . S
C474 C472 1.389 . S
C474 C475 1.524 . S
C474 C488 1.377 . S
C475 C474 1.524 . S
C475 C476 1.397 . S
C475 C480 1.363 . S
C476 H453 0.950 . S
C476 C475 1.397 . S
C476 C477 1.334 . S
C477 H454 0.950 . S
C477 C476 1.334 . S
C477 C478 1.287 . S
C478 C477 1.287 . S
C478 C479 1.524 . S
C478 H497 0.913 . S
C479 H455 0.950 . S
C479 C478 1.524 . S
C479 C480 1.415 . S
C480 H456 0.950 . S
C480 C475 1.363 . S
C480 C479 1.415 . S
C481 H457 0.951 . S
C481 C482 1.366 . S
C481 C483 1.388 . S
C482 C481 1.366 . S
C482 C486 1.385 . S
C483 H458 0.951 . S
C483 C481 1.388 . S
C483 C484 1.366 . S
C484 C483 1.366 . S
C484 C485 1.414 . S
C484 C487 1.499 . S
C485 H459 0.950 . S
C485 C484 1.414 . S
C485 C486 1.374 . S
C486 H460 0.950 . S
C486 C482 1.385 . S
C486 C485 1.374 . S
C487 C484 1.499 . S
C487 C488 1.373 . S
C487 C489 1.389 . S
C488 H461 0.950 . S
C488 C474 1.377 . S
C488 C487 1.373 . S
C489 C473 1.377 . S
C489 C487 1.389 . S
C489 C490 1.524 . S
C490 C489 1.524 . S
C490 C491 1.397 . S
C490 C495 1.363 . S
C491 H462 0.950 . S
C491 C490 1.397 . S
C491 C492 1.334 . S
C492 H463 0.950 . S
C492 C491 1.334 . S
C492 C493 1.287 . S
C493 C492 1.287 . S
C493 C494 1.524 . S
C493 H496 0.999 . S
C494 H464 0.950 . S
C494 C493 1.524 . S
C494 C495 1.415 . S
C495 H465 0.950 . S
C495 C490 1.363 . S
C495 C494 1.415 . S
H496 C493 0.999 . S
H497 C478 0.913 . S
H498 C516 0.951 . S
H499 C518 0.951 . S
H500 C520 0.950 . S
H501 C521 0.950 . S
H502 C523 0.950 . S
H503 C526 0.950 . S
H504 C527 0.950 . S
H505 C529 0.950 . S
H506 C530 0.950 . S
H507 C531 0.951 . S
H508 C533 0.951 . S
H509 C535 0.950 . S
H510 C536 0.950 . S
H511 C538 0.950 . S
H512 C541 0.950 . S
H513 C542 0.950 . S
H514 C544 0.950 . S
H515 C545 0.950 . S
C516 H498 0.951 . S
C516 C517 1.366 . S
C516 C518 1.388 . S
C517 C516 1.366 . S
C517 C521 1.385 . S
C518 H499 0.951 . S
C518 C516 1.388 . S
C518 C519 1.366 . S
C519 C518 1.366 . S
C519 C520 1.414 . S
C519 C522 1.499 . S
C520 H500 0.950 . S
C520 C519 1.414 . S
C520 C521 1.374 . S
C521 H501 0.950 . S
C521 C517 1.385 . S
C521 C520 1.374 . S
C522 C519 1.499 . S
C522 C523 1.373 . S
C522 C524 1.389 . S
C523 H502 0.950 . S
C523 C522 1.373 . S
C523 C539 1.377 . S
C524 C522 1.389 . S
C524 C525 1.524 . S
C524 C538 1.377 . S
C525 C524 1.524 . S
C525 C526 1.397 . S
C525 C530 1.363 . S
C526 H503 0.950 . S
C526 C525 1.397 . S
C526 C527 1.334 . S
C527 H504 0.950 . S
C527 C526 1.334 . S
C527 C528 1.287 . S
C528 C527 1.287 . S
C528 C529 1.524 . S
C528 H547 0.913 . S
C529 H505 0.950 . S
C529 C528 1.524 . S
C529 C530 1.415 . S
C530 H506 0.950 . S
C530 C525 1.363 . S
C530 C529 1.415 . S
C531 H507 0.951 . S
C531 C532 1.366 . S
C531 C533 1.388 . S
C532 C531 1.366 . S
C532 C536 1.385 . S
C533 H508 0.951 . S
C533 C531 1.388 . S
C533 C534 1.366 . S
C534 C533 1.366 . S
C534 C535 1.414 . S
C534 C537 1.499 . S
C535 H509 0.950 . S
C535 C534 1.414 . S
C535 C536 1.374 . S
C536 H510 0.950 . S
C536 C532 1.385 . S
C536 C535 1.374 . S
C537 C534 1.499 . S
C537 C538 1.373 . S
C537 C539 1.389 . S
C538 H511 0.950 . S
C538 C524 1.377 . S
C538 C537 1.373 . S
C539 C523 1.377 . S
C539 C537 1.389 . S
C539 C540 1.524 . S
C540 C539 1.524 . S
C540 C541 1.397 . S
C540 C545 1.363 . S
C541 H512 0.950 . S
C541 C540 1.397 . S
C541 C542 1.334 . S
C542 H513 0.950 . S
C542 C541 1.334 . S
C542 C543 1.287 . S
C543 C542 1.287 . S
C543 C544 1.524 . S
C543 H546 0.999 . S
C544 H514 0.950 . S
C544 C543 1.524 . S
C544 C545 1.415 . S
C545 H515 0.950 . S
C545 C540 1.363 . S
C545 C544 1.415 . S
H546 C543 0.999 . S
H547 C528 0.913 . S
H548 C566 0.951 . S
H549 C568 0.951 . S
H550 C570 0.950 . S
H551 C571 0.950 . S
H552 C573 0.950 . S
H553 C576 0.950 . S
H554 C577 0.950 . S
H555 C579 0.950 . S
H556 C580 0.950 . S
H557 C581 0.951 . S
H558 C583 0.951 . S
H559 C585 0.950 . S
H560 C586 0.950 . S
H561 C588 0.950 . S
H562 C591 0.950 . S
H563 C592 0.950 . S
H564 C594 0.950 . S
H565 C595 0.950 . S
C566 H548 0.951 . S
C566 C567 1.366 . S
C566 C568 1.388 . S
C567 C566 1.366 . S
C567 C571 1.385 . S
C568 H549 0.951 . S
C568 C566 1.388 . S
C568 C569 1.366 . S
C569 C568 1.366 . S
C569 C570 1.414 . S
C569 C572 1.499 . S
C570 H550 0.950 . S
C570 C569 1.414 . S
C570 C571 1.374 . S
C571 H551 0.950 . S
C571 C567 1.385 . S
C571 C570 1.374 . S
C572 C569 1.499 . S
C572 C573 1.373 . S
C572 C574 1.389 . S
C573 H552 0.950 . S
C573 C572 1.373 . S
C573 C589 1.377 . S
C574 C572 1.389 . S
C574 C575 1.524 . S
C574 C588 1.377 . S
C575 C574 1.524 . S
C575 C576 1.397 . S
C575 C580 1.363 . S
C576 H553 0.950 . S
C576 C575 1.397 . S
C576 C577 1.334 . S
C577 H554 0.950 . S
C577 C576 1.334 . S
C577 C578 1.287 . S
C578 C577 1.287 . S
C578 C579 1.524 . S
C578 H597 0.913 . S
C579 H555 0.950 . S
C579 C578 1.524 . S
C579 C580 1.415 . S
C580 H556 0.950 . S
C580 C575 1.363 . S
C580 C579 1.415 . S
C581 H557 0.951 . S
C581 C582 1.366 . S
C581 C583 1.388 . S
C582 C581 1.366 . S
C582 C586 1.385 . S
C583 H558 0.951 . S
C583 C581 1.388 . S
C583 C584 1.366 . S
C584 C583 1.366 . S
C584 C585 1.414 . S
C584 C587 1.499 . S
C585 H559 0.950 . S
C585 C584 1.414 . S
C585 C586 1.374 . S
C586 H560 0.950 . S
C586 C582 1.385 . S
C586 C585 1.374 . S
C587 C584 1.499 . S
C587 C588 1.373 . S
C587 C589 1.389 . S
C588 H561 0.950 . S
C588 C574 1.377 . S
C588 C587 1.373 . S
C589 C573 1.377 . S
C589 C587 1.389 . S
C589 C590 1.524 . S
C590 C589 1.524 . S
C590 C591 1.397 . S
C590 C595 1.363 . S
C591 H562 0.950 . S
C591 C590 1.397 . S
C591 C592 1.334 . S
C592 H563 0.950 . S
C592 C591 1.334 . S
C592 C593 1.287 . S
C593 C592 1.287 . S
C593 C594 1.524 . S
C593 H596 0.999 . S
C594 H564 0.950 . S
C594 C593 1.524 . S
C594 C595 1.415 . S
C595 H565 0.950 . S
C595 C590 1.363 . S
C595 C594 1.415 . S
H596 C593 0.999 . S
H597 C578 0.913 . S
H598 C616 0.951 1_655 S
H599 C618 0.951 1_655 S
H600 C620 0.950 . S
H601 C621 0.950 . S
H602 C623 0.950 . S
H603 C626 0.950 . S
H604 C627 0.950 . S
H605 C629 0.950 . S
H606 C630 0.950 . S
H607 C631 0.951 . S
H608 C633 0.951 . S
H609 C635 0.950 1_655 S
H610 C636 0.950 1_655 S
H611 C638 0.950 1_655 S
H612 C641 0.950 . S
H613 C642 0.950 . S
H614 C644 0.950 . S
H615 C645 0.950 . S
C616 H598 0.951 1_455 S
C616 C617 1.366 . S
C616 C618 1.388 . S
C617 C616 1.366 . S
C617 C621 1.385 . S
C618 H599 0.951 1_455 S
C618 C616 1.388 . S
C618 C619 1.366 . S
C619 C618 1.366 . S
C619 C620 1.414 . S
C619 C622 1.499 . S
C620 H600 0.950 . S
C620 C619 1.414 . S
C620 C621 1.374 . S
C621 H601 0.950 . S
C621 C617 1.385 . S
C621 C620 1.374 . S
C622 C619 1.499 . S
C622 C623 1.373 1_545 S
C622 C624 1.389 . S
C623 H602 0.950 . S
C623 C622 1.373 1_565 S
C623 C639 1.377 . S
C624 C622 1.389 . S
C624 C625 1.524 1_455 S
C624 C638 1.377 . S
C625 C624 1.524 1_655 S
C625 C626 1.397 1_655 S
C625 C630 1.363 . S
C626 H603 0.950 . S
C626 C625 1.397 1_455 S
C626 C627 1.334 1_455 S
C627 H604 0.950 . S
C627 C626 1.334 1_655 S
C627 C628 1.287 . S
C628 C627 1.287 . S
C628 C629 1.524 . S
C628 H647 0.913 . S
C629 H605 0.950 . S
C629 C628 1.524 . S
C629 C630 1.415 . S
C630 H606 0.950 . S
C630 C625 1.363 . S
C630 C629 1.415 . S
C631 H607 0.951 . S
C631 C632 1.366 1_545 S
C631 C633 1.388 . S
C632 C631 1.366 1_565 S
C632 C636 1.385 . S
C633 H608 0.951 . S
C633 C631 1.388 . S
C633 C634 1.366 . S
C634 C633 1.366 . S
C634 C635 1.414 1_545 S
C634 C637 1.499 . S
C635 H609 0.950 1_455 S
C635 C634 1.414 1_565 S
C635 C636 1.374 . S
C636 H610 0.950 1_455 S
C636 C632 1.385 . S
C636 C635 1.374 . S
C637 C634 1.499 . S
C637 C638 1.373 . S
C637 C639 1.389 1_545 S
C638 H611 0.950 1_455 S
C638 C624 1.377 . S
C638 C637 1.373 . S
C639 C623 1.377 . S
C639 C637 1.389 1_565 S
C639 C640 1.524 . S
C640 C639 1.524 . S
C640 C641 1.397 . S
C640 C645 1.363 . S
C641 H612 0.950 . S
C641 C640 1.397 . S
C641 C642 1.334 . S
C642 H613 0.950 . S
C642 C641 1.334 . S
C642 C643 1.287 . S
C643 C642 1.287 . S
C643 C644 1.524 . S
C643 H646 0.999 . S
C644 H614 0.950 . S
C644 C643 1.524 . S
C644 C645 1.415 . S
C645 H615 0.950 . S
C645 C640 1.363 . S
C645 C644 1.415 . S
H646 C643 0.999 . S
H647 C628 0.913 . S
H648 C666 0.951 . S
H649 C668 0.951 . S
H650 C670 0.950 1_565 S
H651 C671 0.950 1_565 S
H652 C673 0.950 . S
H653 C676 0.950 . S
H654 C677 0.950 . S
H655 C679 0.950 . S
H656 C680 0.950 . S
H657 C681 0.951 1_655 S
H658 C683 0.951 . S
H659 C685 0.950 . S
H660 C686 0.950 . S
H661 C688 0.950 . S
H662 C691 0.950 . S
H663 C692 0.950 . S
H664 C694 0.950 . S
H665 C695 0.950 . S
C666 H648 0.951 . S
C666 C667 1.366 . S
C666 C668 1.388 . S
C667 C666 1.366 . S
C667 C671 1.385 . S
C668 H649 0.951 . S
C668 C666 1.388 . S
C668 C669 1.366 . S
C669 C668 1.366 . S
C669 C670 1.414 . S
C669 C672 1.499 . S
C670 H650 0.950 1_545 S
C670 C669 1.414 . S
C670 C671 1.374 . S
C671 H651 0.950 1_545 S
C671 C667 1.385 . S
C671 C670 1.374 . S
C672 C669 1.499 . S
C672 C673 1.373 . S
C672 C674 1.389 1_455 S
C673 H652 0.950 . S
C673 C672 1.373 . S
C673 C689 1.377 . S
C674 C672 1.389 1_655 S
C674 C675 1.525 . S
C674 C688 1.377 . S
C675 C674 1.525 . S
C675 C676 1.397 . S
C675 C680 1.363 . S
C676 H653 0.950 . S
C676 C675 1.397 . S
C676 C677 1.334 . S
C677 H654 0.950 . S
C677 C676 1.334 . S
C677 C678 1.287 . S
C678 C677 1.287 . S
C678 C679 1.524 . S
C678 H697 0.913 . S
C679 H655 0.950 . S
C679 C678 1.524 . S
C679 C680 1.415 . S
C680 H656 0.950 . S
C680 C675 1.363 . S
C680 C679 1.415 . S
C681 H657 0.951 1_455 S
C681 C682 1.366 . S
C681 C683 1.388 . S
C682 C681 1.366 . S
C682 C686 1.385 . S
C683 H658 0.951 . S
C683 C681 1.388 . S
C683 C684 1.366 . S
C684 C683 1.366 . S
C684 C685 1.414 . S
C684 C687 1.499 . S
C685 H659 0.950 . S
C685 C684 1.414 . S
C685 C686 1.374 . S
C686 H660 0.950 . S
C686 C682 1.385 . S
C686 C685 1.374 . S
C687 C684 1.499 . S
C687 C688 1.373 1_455 S
C687 C689 1.389 . S
C688 H661 0.950 . S
C688 C674 1.377 . S
C688 C687 1.373 1_655 S
C689 C673 1.377 . S
C689 C687 1.389 . S
C689 C690 1.524 . S
C690 C689 1.524 . S
C690 C691 1.397 . S
C690 C695 1.363 1_545 S
C691 H662 0.950 . S
C691 C690 1.397 . S
C691 C692 1.334 . S
C692 H663 0.950 . S
C692 C691 1.334 . S
C692 C693 1.287 1_545 S
C693 C692 1.287 1_565 S
C693 C694 1.524 . S
C693 H696 0.999 . S
C694 H664 0.950 . S
C694 C693 1.524 . S
C694 C695 1.415 . S
C695 H665 0.950 . S
C695 C690 1.363 1_565 S
C695 C694 1.415 . S
H696 C693 0.999 . S
H697 C678 0.913 . S
H698 C716 0.951 . S
H699 C718 0.951 . S
H700 C720 0.950 . S
H701 C721 0.950 . S
H702 C723 0.950 . S
H703 C726 0.950 . S
H704 C727 0.950 . S
H705 C729 0.950 . S
H706 C730 0.950 . S
H707 C731 0.951 . S
H708 C733 0.951 . S
H709 C735 0.950 . S
H710 C736 0.950 . S
H711 C738 0.950 . S
H712 C741 0.950 . S
H713 C742 0.950 . S
H714 C744 0.950 . S
H715 C745 0.950 . S
C716 H698 0.951 . S
C716 C717 1.366 . S
C716 C718 1.388 . S
C717 C716 1.366 . S
C717 C721 1.385 . S
C718 H699 0.951 . S
C718 C716 1.388 . S
C718 C719 1.366 . S
C719 C718 1.366 . S
C719 C720 1.414 . S
C719 C722 1.499 . S
C720 H700 0.950 . S
C720 C719 1.414 . S
C720 C721 1.374 . S
C721 H701 0.950 . S
C721 C717 1.385 . S
C721 C720 1.374 . S
C722 C719 1.499 . S
C722 C723 1.373 . S
C722 C724 1.389 . S
C723 H702 0.950 . S
C723 C722 1.373 . S
C723 C739 1.377 . S
C724 C722 1.389 . S
C724 C725 1.524 . S
C724 C738 1.377 . S
C725 C724 1.524 . S
C725 C726 1.397 . S
C725 C730 1.363 . S
C726 H703 0.950 . S
C726 C725 1.397 . S
C726 C727 1.334 . S
C727 H704 0.950 . S
C727 C726 1.334 . S
C727 C728 1.287 . S
C728 C727 1.287 . S
C728 C729 1.524 . S
C728 H747 0.913 . S
C729 H705 0.950 . S
C729 C728 1.524 . S
C729 C730 1.415 . S
C730 H706 0.950 . S
C730 C725 1.363 . S
C730 C729 1.415 . S
C731 H707 0.951 . S
C731 C732 1.366 . S
C731 C733 1.388 . S
C732 C731 1.366 . S
C732 C736 1.385 . S
C733 H708 0.951 . S
C733 C731 1.388 . S
C733 C734 1.366 . S
C734 C733 1.366 . S
C734 C735 1.414 . S
C734 C737 1.499 . S
C735 H709 0.950 . S
C735 C734 1.414 . S
C735 C736 1.374 . S
C736 H710 0.950 . S
C736 C732 1.385 . S
C736 C735 1.374 . S
C737 C734 1.499 . S
C737 C738 1.373 . S
C737 C739 1.389 . S
C738 H711 0.950 . S
C738 C724 1.377 . S
C738 C737 1.373 . S
C739 C723 1.377 . S
C739 C737 1.389 . S
C739 C740 1.524 . S
C740 C739 1.524 . S
C740 C741 1.397 . S
C740 C745 1.363 . S
C741 H712 0.950 . S
C741 C740 1.397 . S
C741 C742 1.334 . S
C742 H713 0.950 . S
C742 C741 1.334 . S
C742 C743 1.287 . S
C743 C742 1.287 . S
C743 C744 1.524 . S
C743 H746 0.999 . S
C744 H714 0.950 . S
C744 C743 1.524 . S
C744 C745 1.415 . S
C745 H715 0.950 . S
C745 C740 1.363 . S
C745 C744 1.415 . S
H746 C743 0.999 . S
H747 C728 0.913 . S
H748 C766 0.951 . S
H749 C768 0.951 . S
H750 C770 0.950 . S
H751 C771 0.950 . S
H752 C773 0.950 . S
H753 C776 0.950 . S
H754 C777 0.950 . S
H755 C779 0.950 . S
H756 C780 0.950 . S
H757 C781 0.951 . S
H758 C783 0.951 . S
H759 C785 0.950 . S
H760 C786 0.950 . S
H761 C788 0.950 . S
H762 C791 0.950 . S
H763 C792 0.950 . S
H764 C794 0.950 . S
H765 C795 0.950 . S
C766 H748 0.951 . S
C766 C767 1.366 . S
C766 C768 1.388 . S
C767 C766 1.366 . S
C767 C771 1.385 . S
C768 H749 0.951 . S
C768 C766 1.388 . S
C768 C769 1.366 . S
C769 C768 1.366 . S
C769 C770 1.414 . S
C769 C772 1.499 . S
C770 H750 0.950 . S
C770 C769 1.414 . S
C770 C771 1.374 . S
C771 H751 0.950 . S
C771 C767 1.385 . S
C771 C770 1.374 . S
C772 C769 1.499 . S
C772 C773 1.373 . S
C772 C774 1.389 . S
C773 H752 0.950 . S
C773 C772 1.373 . S
C773 C789 1.377 . S
C774 C772 1.389 . S
C774 C775 1.524 . S
C774 C788 1.377 . S
C775 C774 1.524 . S
C775 C776 1.397 . S
C775 C780 1.363 . S
C776 H753 0.950 . S
C776 C775 1.397 . S
C776 C777 1.334 . S
C777 H754 0.950 . S
C777 C776 1.334 . S
C777 C778 1.287 . S
C778 C777 1.287 . S
C778 C779 1.524 . S
C778 H797 0.913 . S
C779 H755 0.950 . S
C779 C778 1.524 . S
C779 C780 1.415 . S
C780 H756 0.950 . S
C780 C775 1.363 . S
C780 C779 1.415 . S
C781 H757 0.951 . S
C781 C782 1.366 . S
C781 C783 1.388 . S
C782 C781 1.366 . S
C782 C786 1.385 . S
C783 H758 0.951 . S
C783 C781 1.388 . S
C783 C784 1.366 . S
C784 C783 1.366 . S
C784 C785 1.414 . S
C784 C787 1.499 . S
C785 H759 0.950 . S
C785 C784 1.414 . S
C785 C786 1.374 . S
C786 H760 0.950 . S
C786 C782 1.385 . S
C786 C785 1.374 . S
C787 C784 1.499 . S
C787 C788 1.373 . S
C787 C789 1.389 . S
C788 H761 0.950 . S
C788 C774 1.377 . S
C788 C787 1.373 . S
C789 C773 1.377 . S
C789 C787 1.389 . S
C789 C790 1.524 . S
C790 C789 1.524 . S
C790 C791 1.397 . S
C790 C795 1.363 . S
C791 H762 0.950 . S
C791 C790 1.397 . S
C791 C792 1.334 . S
C792 H763 0.950 . S
C792 C791 1.334 . S
C792 C793 1.287 . S
C793 C792 1.287 . S
C793 C794 1.524 . S
C793 H796 0.999 . S
C794 H764 0.950 . S
C794 C793 1.524 . S
C794 C795 1.415 . S
C795 H765 0.950 . S
C795 C790 1.363 . S
C795 C794 1.415 . S
H796 C793 0.999 . S
H797 C778 0.913 . S
C232 C175 1.393 . S
C217 C16 1.245 . S
C267 C15 1.476 . S
C282 C136 1.467 . S
C317 C13 1.268 . S
C332 C180 1.439 . S
C367 C14 1.271 . S
C382 C141 1.315 . S
C417 C37 1.246 . S
C432 C97 1.395 . S
C467 C36 1.476 . S
C482 C58 1.468 . S
C532 C102 1.439 . S
C517 C34 1.267 . S
C582 C63 1.315 . S
C567 C35 1.272 . S
C617 C17 1.518 . S
C632 C43 1.563 . S
C667 C18 1.367 . S
C682 C82 1.416 . S
C732 C121 1.563 . S
C717 C38 1.519 . S
C767 C39 1.366 . S
C782 C160 1.415 . S
