# Generated by pormake.
# Topology rtl, (3,6)-cn, num edge types: 1
# Building blocks:
#     Node 0, Type 0, BuildingBlock: QEWDON_clean_linker_0, # of connection points: 3
#     Node 1, Type 0, BuildingBlock: QEWDON_clean_linker_0, # of connection points: 3
#     Node 2, Type 0, BuildingBlock: QEWDON_clean_linker_0, # of connection points: 3
#     Node 3, Type 0, BuildingBlock: QEWDON_clean_linker_0, # of connection points: 3
#     Node 4, Type 1, BuildingBlock: KUMBOL_clean_sbu_1, # of connection points: 6
#     Node 5, Type 1, BuildingBlock: KUMBOL_clean_sbu_1, # of connection points: 6
#     Edge 6, Type (0, 1), BuildingBlock: UVAHIK_clean_linker_0, # of connection points: 2
#     Edge 7, Type (0, 1), BuildingBlock: UVAHIK_clean_linker_0, # of connection points: 2
#     Edge 8, Type (0, 1), BuildingBlock: UVAHIK_clean_linker_0, # of connection points: 2
#     Edge 9, Type (0, 1), BuildingBlock: UVAHIK_clean_linker_0, # of connection points: 2
#     Edge 10, Type (0, 1), BuildingBlock: UVAHIK_clean_linker_0, # of connection points: 2
#     Edge 11, Type (0, 1), BuildingBlock: UVAHIK_clean_linker_0, # of connection points: 2
#     Edge 12, Type (0, 1), BuildingBlock: UVAHIK_clean_linker_0, # of connection points: 2
#     Edge 13, Type (0, 1), BuildingBlock: UVAHIK_clean_linker_0, # of connection points: 2
#     Edge 14, Type (0, 1), BuildingBlock: UVAHIK_clean_linker_0, # of connection points: 2
#     Edge 15, Type (0, 1), BuildingBlock: UVAHIK_clean_linker_0, # of connection points: 2
#     Edge 16, Type (0, 1), BuildingBlock: UVAHIK_clean_linker_0, # of connection points: 2
#     Edge 17, Type (0, 1), BuildingBlock: UVAHIK_clean_linker_0, # of connection points: 2
# Relax obj value: 0.084
# Max RMSD: 0.265
# Mean RMSD: 0.205
data_MOF--net-rtl--node1-KUMBOL_clean_sbu_1--node2-QEWDON_clean_linker_0--edge1-UVAHIK_clean_linker_0
_symmetry_space_group_name_H-M    P1
_symmetry_Int_Tables_number       1
_symmetry_cell_setting            triclinic
loop_
_symmetry_equiv_pos_as_xyz
'x, y, z'
_cell_length_a     47.727818
_cell_length_b     47.589158
_cell_length_c     33.611444
_cell_angle_alpha  81.228047
_cell_angle_beta   100.55525
_cell_angle_gamma 91.185464
loop_
_atom_site_label
_atom_site_type_symbol
_atom_site_fract_x
_atom_site_fract_y
_atom_site_fract_z
_atom_type_partial_charge
H0 H 0.25184 0.85071 0.08982 0.0
C1 C 0.24196 0.85609 0.05789 0.0
C2 C 0.21465 0.86859 0.04743 0.0
C3 C 0.25697 0.85096 0.02736 0.0
H4 H 0.1822 0.88699 0.99716 0.0
C5 C 0.20269 0.87618 0.00585 0.0
C6 C 0.21744 0.87124 0.97513 0.0
C7 C 0.24443 0.85816 0.9859 0.0
C8 C 0.2872 0.84199 0.03914 0.0
H9 H 0.2563 0.85522 0.96224 0.0
C10 C 0.29642 0.81519 0.03338 0.0
C11 C 0.3252 0.80678 0.04711 0.0
C12 C 0.30696 0.86052 0.05757 0.0
H13 H 0.30023 0.88122 0.06216 0.0
C14 C 0.33551 0.85262 0.07008 0.0
H15 H 0.2811 0.80067 0.01975 0.0
C16 C 0.3446 0.82597 0.06503 0.0
H17 H 0.36693 0.82036 0.07512 0.0
H18 H 0.35063 0.86713 0.08402 0.0
H19 H 0.74312 0.70345 0.58534 0.0
C20 C 0.72999 0.69928 0.60866 0.0
C21 C 0.70428 0.68425 0.60082 0.0
C22 C 0.74004 0.70668 0.64782 0.0
H23 H 0.66836 0.66643 0.62674 0.0
C24 C 0.68832 0.67772 0.63225 0.0
C25 C 0.69817 0.68453 0.67142 0.0
C26 C 0.72368 0.69955 0.67883 0.0
C27 C 0.76941 0.71781 0.65847 0.0
H28 H 0.73159 0.70429 0.70942 0.0
C29 C 0.77984 0.74099 0.63385 0.0
C30 C 0.80814 0.75037 0.64456 0.0
C31 C 0.78758 0.70429 0.69363 0.0
H32 H 0.78038 0.68617 0.71274 0.0
C33 C 0.81542 0.71355 0.70426 0.0
H34 H 0.76611 0.75157 0.60661 0.0
C35 C 0.82565 0.73637 0.68001 0.0
H36 H 0.8473 0.74333 0.6893 0.0
H37 H 0.82915 0.70295 0.73143 0.0
H38 H 0.79019 0.1888 0.08443 0.0
C39 C 0.80212 0.18432 0.06158 0.0
C40 C 0.82853 0.17014 0.07389 0.0
C41 C 0.79031 0.19091 0.0197 0.0
H42 H 0.86355 0.1519 0.05424 0.0
C43 C 0.84331 0.16308 0.04435 0.0
C44 C 0.8319 0.16955 1.00245 0.0
C45 C 0.80549 0.18373 0.9904 0.0
C46 C 0.76071 0.20194 0.00615 0.0
H47 H 0.79606 0.18811 0.95818 0.0
C48 C 0.752 0.22771 0.01631 0.0
C49 C 0.72423 0.23844 1.00011 0.0
C50 C 0.74109 0.18662 0.98129 0.0
H51 H 0.74721 0.16664 0.97347 0.0
C52 C 0.71347 0.19686 0.96624 0.0
H53 H 0.767 0.23985 0.03511 0.0
C54 C 0.70513 0.22268 0.97526 0.0
H55 H 0.68365 0.23044 0.96274 0.0
H56 H 0.69856 0.18489 0.94711 0.0
H57 H 0.34665 0.2926 0.50277 0.0
C58 C 0.35568 0.30398 0.4777 0.0
C59 C 0.36972 0.33005 0.48198 0.0
C60 C 0.35414 0.29205 0.44151 0.0
H61 H 0.39393 0.36342 0.45263 0.0
C62 C 0.38216 0.34392 0.44944 0.0
C63 C 0.38002 0.33273 0.41283 0.0
C64 C 0.36574 0.30702 0.40887 0.0
C65 C 0.3433 0.26272 0.4388 0.0
H66 H 0.3646 0.2981 0.38079 0.0
C67 C 0.31666 0.25374 0.44877 0.0
C68 C 0.30667 0.22614 0.4435 0.0
C69 C 0.36008 0.24344 0.42532 0.0
H70 H 0.38082 0.24956 0.41821 0.0
C71 C 0.35052 0.21606 0.42106 0.0
H72 H 0.30339 0.26837 0.45898 0.0
C73 C 0.32398 0.20749 0.4298 0.0
H74 H 0.31695 0.18611 0.42597 0.0
H75 H 0.36368 0.20144 0.41068 0.0
C76 C 0.97774 0.10479 0.49428 0.0
C77 C 0.92954 0.09381 0.46317 0.0
C78 C 0.95565 0.08537 0.48915 0.0
C79 C 0.92614 0.12171 0.44203 0.0
C80 C 0.97432 0.13286 0.47326 0.0
C81 C 0.94845 0.14118 0.44709 0.0
N82 N 1.00291 0.09592 0.51868 0.0
C83 C 0.02512 0.11422 0.52466 0.0
C84 C 0.9972 0.15164 0.47874 0.0
C85 C 0.02266 0.1423 0.50471 0.0
Gd86 Gd 0.04136 0.99171 0.49658 0.0
Gd87 Gd 1.00531 0.04834 0.54995 0.0
N88 N 0.95987 0.05817 0.50901 0.0
C89 C 0.90756 0.07397 0.45927 0.0
C90 C 0.93776 0.03948 0.50756 0.0
C91 C 0.91155 0.04684 0.48208 0.0
H92 H 0.93969 0.01917 0.52678 0.0
H93 H 0.89429 0.03171 0.48054 0.0
H94 H 0.10694 0.01955 0.52459 0.0
H95 H 0.04462 0.10728 0.54532 0.0
H96 H 0.15184 1.00508 0.57094 0.0
H97 H 0.88722 0.07961 0.43957 0.0
H98 H 0.90631 0.12846 0.42172 0.0
H99 H 1.00096 0.93354 0.49613 0.0
H100 H 0.99541 0.17338 0.46314 0.0
H101 H 0.04037 0.15673 0.50942 0.0
H102 H 0.13796 0.90707 0.62181 0.0
H103 H 0.9455 0.1626 0.43051 0.0
H104 H 0.04824 0.86487 0.5754 0.0
H105 H 1.00393 0.88334 0.52905 0.0
N106 N 0.04257 0.94355 0.52485 0.0
C107 C 0.06739 0.93371 0.54934 0.0
C108 C 0.02008 0.92582 0.51704 0.0
C109 C 0.04696 0.88695 0.56123 0.0
C110 C 0.02186 0.89731 0.53523 0.0
C111 C 0.07015 0.90515 0.56852 0.0
H112 H 0.09818 0.87392 0.60978 0.0
N113 N 0.08621 0.98022 0.53827 0.0
C114 C 0.08982 0.95255 0.55628 0.0
C115 C 0.13785 0.96243 0.58833 0.0
C116 C 0.11559 0.94306 0.58233 0.0
C117 C 0.10851 0.99862 0.542 0.0
C118 C 0.1344 0.99021 0.56762 0.0
O119 O 1.00626 0.05782 0.48193 0.0
O120 O 1.00156 0.01433 0.4602 0.0
O121 O 0.06725 0.99968 0.44926 0.0
O122 O 0.03971 0.96313 0.45162 0.0
O123 O 0.98878 1.00283 0.55529 0.0
O124 O 0.99419 0.98656 0.49567 0.0
O125 O 0.04111 0.98202 0.56467 0.0
O126 O 0.0448 0.02541 0.58703 0.0
O127 O 0.97921 0.04216 0.59713 0.0
O128 O 1.00788 0.07773 0.59403 0.0
O129 O 0.05834 0.03692 0.49221 0.0
O130 O 0.05249 0.05426 0.55097 0.0
C131 C 0.99686 0.04186 0.45384 0.0
C132 C 0.98197 0.9854 0.52798 0.0
C133 C 0.04863 0.98358 0.38693 0.0
C134 C 0.0571 0.97691 0.31943 0.0
C135 C 0.01654 1.00505 0.32589 0.0
C136 C 0.02445 1.00012 0.36845 0.0
C137 C 0.03267 0.99352 0.30148 0.0
C138 C 0.06491 0.97208 0.36243 0.0
C139 C 0.0572 0.97809 0.43166 0.0
C140 C 0.11837 0.91465 0.60154 0.0
C141 C 0.09572 0.89575 0.59465 0.0
H142 H 0.15795 0.95599 0.60817 0.0
C143 C 0.04988 0.99793 0.59306 0.0
C144 C 0.06509 0.05464 0.5191 0.0
C145 C 0.99831 0.05857 0.65899 0.0
C146 C 0.9888 0.06451 0.72627 0.0
C147 C 0.03034 0.03758 0.72042 0.0
C148 C 0.02278 0.04258 0.67782 0.0
C149 C 0.01352 0.04844 0.74455 0.0
C150 C 0.98139 0.0695 0.68321 0.0
C151 C 0.98993 0.06373 0.61419 0.0
H152 H 0.99776 0.01774 0.31178 0.0
H153 H 1.01172 1.00915 0.38688 0.0
H154 H 0.02577 0.99732 0.26857 0.0
H155 H 0.08382 0.95966 0.37696 0.0
H156 H 0.04932 0.02528 0.73478 0.0
H157 H 0.03597 0.03398 0.65961 0.0
H158 H 0.02006 0.04452 0.77752 0.0
H159 H 0.96225 0.08149 0.66848 0.0
C160 C 0.60749 0.5576 0.0303 0.0
C161 C 0.60187 0.60816 0.00535 0.0
C162 C 0.59172 0.5825 0.02443 0.0
C163 C 0.62739 0.60807 0.99018 0.0
C164 C 0.63385 0.55774 0.01695 0.0
C165 C 0.64328 0.58288 0.99578 0.0
N166 N 0.598 0.53377 0.05152 0.0
C167 C 0.61557 0.51063 0.06479 0.0
C168 C 0.65051 0.53295 0.02677 0.0
C169 C 0.6416 0.5095 0.05159 0.0
Gd170 Gd 0.49334 0.50058 0.99083 0.0
Gd171 Gd 0.55265 0.53753 0.06894 0.0
N172 N 0.56669 0.58176 0.03825 0.0
C173 C 0.58609 0.63314 1.00234 0.0
C174 C 0.55187 0.60617 0.03722 0.0
C175 C 0.56117 0.63219 0.01882 0.0
H176 H 0.53265 0.60537 0.05007 0.0
H177 H 0.5491 0.65145 0.01726 0.0
H178 H 0.5276 0.44336 0.97299 0.0
H179 H 0.60986 0.4931 0.0861 0.0
H180 H 0.53085 0.3918 0.99739 0.0
H181 H 0.59316 0.65329 0.98787 0.0
H182 H 0.63527 0.62746 0.97471 0.0
H183 H 0.43117 0.52216 0.00618 0.0
H184 H 0.67086 0.53216 0.01704 0.0
H185 H 0.65502 0.49073 0.06122 0.0
H186 H 0.45494 0.3739 0.07367 0.0
H187 H 0.66328 0.58328 0.9848 0.0
H188 H 0.39122 0.45153 0.06881 0.0
H189 H 0.39055 0.50225 0.03783 0.0
N190 N 0.45426 0.48318 0.01988 0.0
C191 C 0.45425 0.45499 0.03437 0.0
C192 C 0.43137 0.5 0.01954 0.0
C193 C 0.4089 0.46013 0.05481 0.0
C194 C 0.40844 0.48878 0.03734 0.0
C195 C 0.43185 0.44275 0.05304 0.0
H196 H 0.416 0.40381 0.08346 0.0
N197 N 0.49592 0.45059 0.00744 0.0
C198 C 0.47613 0.43825 0.02873 0.0
C199 C 0.49699 0.39198 0.03185 0.0
C200 C 0.47625 0.40865 0.04186 0.0
C201 C 0.51424 0.43405 0.99409 0.0
C202 C 0.51567 0.40467 0.00708 0.0
O203 O 0.53731 0.5573 1.00275 0.0
O204 O 0.53208 0.5196 0.96775 0.0
O205 O 0.47336 0.48062 0.93798 0.0
O206 O 0.46784 0.52609 0.93834 0.0
O207 O 0.50772 0.55465 0.06149 0.0
O208 O 0.48242 0.54546 0.99846 0.0
O209 O 0.48851 0.50192 0.05651 0.0
O210 O 0.53387 0.49583 0.09304 0.0
O211 O 0.54297 0.5534 0.1223 0.0
O212 O 0.58653 0.54477 0.11884 0.0
O213 O 0.53986 0.48813 0.99738 0.0
O214 O 0.55911 0.4909 0.0648 0.0
C215 C 0.54084 0.54556 0.97117 0.0
C216 C 0.48642 0.55963 0.02997 0.0
C217 C 0.44341 0.50773 0.87777 0.0
C218 C 0.42126 0.48829 0.8163 0.0
C219 C 0.40945 0.53615 0.825 0.0
C220 C 0.42801 0.53316 0.86261 0.0
C221 C 0.40595 0.51386 0.80205 0.0
C222 C 0.44016 0.48536 0.85422 0.0
C223 C 0.46174 0.50454 0.91876 0.0
C224 C 0.45498 0.39655 0.06287 0.0
C225 C 0.43276 0.41356 0.06836 0.0
H226 H 0.49786 0.36916 0.0414 0.0
C227 C 0.50639 0.49122 0.08965 0.0
C228 C 0.55815 0.47944 0.03127 0.0
C229 C 0.57485 0.5395 0.18435 0.0
C230 C 0.59167 0.54448 0.25613 0.0
C231 C 0.57723 0.49822 0.23684 0.0
C232 C 0.57093 0.51033 0.19569 0.0
C233 C 0.58764 0.51506 0.26686 0.0
C234 C 0.58503 0.5565 0.2145 0.0
C235 C 0.56937 0.55241 0.14113 0.0
H236 H 0.39764 0.55579 0.81365 0.0
H237 H 0.43001 0.55068 0.88005 0.0
H238 H 0.39152 0.51674 0.77281 0.0
H239 H 0.45186 0.46561 0.86557 0.0
H240 H 0.57431 0.47564 0.24547 0.0
H241 H 0.5633 0.49695 0.17271 0.0
H242 H 0.59297 0.5049 0.2984 0.0
H243 H 0.58761 0.57911 0.20537 0.0
C244 C 0.25987 0.20404 0.42043 0.0
C245 C 0.27811 0.21614 0.45092 0.0
C246 C 0.23534 0.18971 0.4289 0.0
C247 C 0.18542 0.17566 0.50216 0.0
H248 H 0.17592 0.10411 0.45952 0.0
C249 C 0.10202 0.08965 0.54474 0.0
C250 C 0.08812 0.0755 0.5129 0.0
C251 C 0.12445 0.10843 0.53866 0.0
C252 C 0.17796 0.12415 0.47128 0.0
H253 H 0.28416 0.22416 0.51357 0.0
H254 H 0.24101 0.1988 0.52871 0.0
H255 H 0.21534 0.13483 0.44587 0.0
H256 H 0.08648 0.07067 0.44936 0.0
H257 H 0.1251 0.10333 0.43874 0.0
H258 H 0.1478 0.16469 0.52764 0.0
C259 C 0.24571 0.20057 0.4981 0.0
C260 C 0.20064 0.14184 0.46342 0.0
C261 C 0.27035 0.21513 0.48948 0.0
C262 C 0.09686 0.08092 0.47475 0.0
C263 C 0.11915 0.09962 0.46868 0.0
C264 C 0.16256 0.15788 0.51002 0.0
C265 C 0.22845 0.18686 0.46824 0.0
C266 C 0.2045 0.168 0.47822 0.0
C267 C 0.13353 0.11337 0.50064 0.0
C268 C 0.15835 0.13205 0.49418 0.0
H269 H 0.26518 0.20479 0.39029 0.0
H270 H 0.22216 0.1801 0.40484 0.0
H271 H 0.18776 0.19567 0.514 0.0
H272 H 0.09592 0.08584 0.57459 0.0
H273 H 0.13517 0.11848 0.56404 0.0
C274 C 0.35386 0.76272 0.07749 0.0
C275 C 0.33539 0.77795 0.04414 0.0
C276 C 0.36573 0.73681 0.07424 0.0
C277 C 0.38479 0.69618 0.9981 0.0
H278 H 0.39966 0.63625 0.09157 0.0
C279 C 0.44454 0.59129 0.99559 0.0
C280 C 0.46586 0.58266 0.03 0.0
C281 C 0.42553 0.61333 0.99562 0.0
C282 C 0.39578 0.65283 0.06524 0.0
H283 H 0.31411 0.77737 0.98156 0.0
H284 H 0.33472 0.73166 0.97588 0.0
H285 H 0.3708 0.67728 0.09447 0.0
H286 H 0.48359 0.59045 0.09157 0.0
H287 H 0.45057 0.62869 0.09151 0.0
H288 H 0.41016 0.67176 0.96914 0.0
C289 C 0.34025 0.74008 0.00446 0.0
C290 C 0.37922 0.67637 0.06689 0.0
C291 C 0.32823 0.7661 0.0078 0.0
C292 C 0.46749 0.59644 0.06451 0.0
C293 C 0.4484 0.61829 0.06461 0.0
C294 C 0.40129 0.67252 0.9964 0.0
C295 C 0.35943 0.72528 0.03755 0.0
C296 C 0.37405 0.69868 0.03372 0.0
C297 C 0.42723 0.62707 0.03017 0.0
C298 C 0.4075 0.65088 0.03032 0.0
H299 H 0.35952 0.77108 0.10611 0.0
H300 H 0.38063 0.72627 0.10021 0.0
H301 H 0.3815 0.71306 0.97214 0.0
H302 H 0.4426 0.58117 0.96846 0.0
H303 H 0.40935 0.61946 0.96871 0.0
C304 C 0.84733 0.77289 0.61073 0.0
C305 C 0.81997 0.77493 0.62003 0.0
C306 C 0.86079 0.79689 0.59371 0.0
C307 C 0.882 0.84898 0.54433 0.0
H308 H 0.87766 0.91655 0.59443 0.0
C309 C 0.946 0.95024 0.50129 0.0
C310 C 0.95969 0.96369 0.53397 0.0
C311 C 0.92588 0.92893 0.50743 0.0
C312 C 0.87918 0.89784 0.58019 0.0
H313 H 0.7847 0.80355 0.6169 0.0
H314 H 0.80816 0.84572 0.58658 0.0
H315 H 0.84781 0.8758 0.61103 0.0
H316 H 0.96231 0.9658 0.59852 0.0
H317 H 0.92748 0.92856 0.60933 0.0
H318 H 0.91421 0.87051 0.51483 0.0
C319 C 0.81932 0.82549 0.59299 0.0
C320 C 0.86174 0.87458 0.58928 0.0
C321 C 0.80574 0.80132 0.6099 0.0
C322 C 0.95218 0.95589 0.57266 0.0
C323 C 0.93206 0.9346 0.57881 0.0
C324 C 0.89941 0.87222 0.53523 0.0
C325 C 0.8473 0.82368 0.58553 0.0
C326 C 0.86331 0.84963 0.57206 0.0
C327 C 0.91883 0.92062 0.54637 0.0
C328 C 0.89861 0.89679 0.55358 0.0
H329 H 0.85876 0.75279 0.61797 0.0
H330 H 0.88238 0.79462 0.58879 0.0
H331 H 0.88355 0.83026 0.53012 0.0
H332 H 0.95093 0.95606 0.47092 0.0
H333 H 0.91581 0.91899 0.48158 0.0
C334 C 0.71266 0.27174 0.04634 0.0
C335 C 0.71475 0.26649 0.00699 0.0
C336 C 0.69875 0.29634 0.05137 0.0
C337 C 0.64399 0.348 0.992 0.0
H338 H 0.665 0.3911 0.08184 0.0
C339 C 0.58665 0.45241 0.99408 0.0
C340 C 0.57877 0.45662 0.031 0.0
C341 C 0.60505 0.43018 0.99308 0.0
C342 C 0.65876 0.3791 0.05676 0.0
H343 H 0.70589 0.28348 0.94246 0.0
H344 H 0.68262 0.32663 0.9511 0.0
H345 H 0.69491 0.35101 0.07676 0.0
H346 H 0.5846 0.4413 0.09609 0.0
H347 H 0.61686 0.40227 0.09438 0.0
H348 H 0.60793 0.37582 0.97195 0.0
C349 C 0.69075 0.31154 0.97808 0.0
C350 C 0.67589 0.35613 0.05385 0.0
C351 C 0.70433 0.28696 0.9731 0.0
C352 C 0.59034 0.43857 0.06718 0.0
C353 C 0.60887 0.4163 0.06621 0.0
C354 C 0.62701 0.37088 0.99483 0.0
C355 C 0.68685 0.31612 0.01709 0.0
C356 C 0.66884 0.34045 0.02116 0.0
C357 C 0.61611 0.41159 0.029 0.0
C358 C 0.63425 0.38689 0.02701 0.0
H359 H 0.72038 0.25612 0.0729 0.0
H360 H 0.6961 0.29913 0.08184 0.0
H361 H 0.63737 0.33596 0.96705 0.0
H362 H 0.57845 0.46624 0.9658 0.0
H363 H 0.6106 0.42753 0.96403 0.0
C364 C 0.16955 0.87206 0.07502 0.0
C365 C 0.19923 0.87559 0.07942 0.0
C366 C 0.15458 0.88105 0.10291 0.0
C367 C 0.16249 0.90139 0.2063 0.0
H368 H 0.09271 0.94397 0.15982 0.0
C369 C 0.0858 0.93698 0.30503 0.0
C370 C 0.07429 0.96463 0.29336 0.0
C371 C 0.10153 0.92535 0.28015 0.0
C372 C 0.11222 0.93225 0.17328 0.0
H373 H 0.2365 0.89077 0.11732 0.0
H374 H 0.21036 0.90622 0.16623 0.0
H375 H 0.11929 0.92438 0.11491 0.0
H376 H 0.07109 1.00197 0.24677 0.0
H377 H 0.09824 0.98158 0.20327 0.0
H378 H 0.15553 0.90968 0.26469 0.0
C379 C 0.19872 0.89632 0.14128 0.0
C380 C 0.12729 0.92073 0.14759 0.0
C381 C 0.21371 0.8874 0.11328 0.0
C382 C 0.07914 0.98042 0.25636 0.0
C383 C 0.09475 0.96875 0.23143 0.0
C384 C 0.14729 0.91279 0.23208 0.0
C385 C 0.16891 0.89371 0.13599 0.0
C386 C 0.15264 0.90524 0.16374 0.0
C387 C 0.10603 0.94104 0.24292 0.0
C388 C 0.12206 0.92849 0.21581 0.0
H389 H 0.15781 0.86258 0.04971 0.0
H390 H 0.1317 0.87824 0.0984 0.0
H391 H 0.18185 0.88941 0.21971 0.0
H392 H 0.08216 0.92405 0.33302 0.0
H393 H 0.10965 0.90382 0.28964 0.0
C394 C 0.67875 0.64313 0.71247 0.0
C395 C 0.68349 0.67255 0.70542 0.0
C396 C 0.66458 0.63126 0.74376 0.0
C397 C 0.61169 0.64623 0.80258 0.0
H398 H 0.64252 0.57889 0.87654 0.0
C399 C 0.55403 0.59094 0.93089 0.0
C400 C 0.55598 0.5612 0.94015 0.0
C401 C 0.57013 0.60594 0.9039 0.0
C402 C 0.63336 0.59743 0.85581 0.0
H403 H 0.67734 0.71267 0.72561 0.0
H404 H 0.65165 0.69184 0.7802 0.0
H405 H 0.67011 0.60277 0.82719 0.0
H406 H 0.57519 0.52361 0.92715 0.0
H407 H 0.60248 0.54951 0.87889 0.0
H408 H 0.57442 0.64033 0.82982 0.0
C409 C 0.65918 0.67806 0.76149 0.0
C410 C 0.64932 0.61124 0.82777 0.0
C411 C 0.67391 0.68993 0.7305 0.0
C412 C 0.57339 0.54658 0.92066 0.0
C413 C 0.58935 0.56152 0.89346 0.0
C414 C 0.5955 0.63218 0.83026 0.0
C415 C 0.65446 0.64857 0.76842 0.0
C416 C 0.63853 0.63558 0.80056 0.0
C417 C 0.58827 0.59145 0.88511 0.0
C418 C 0.60596 0.60734 0.8569 0.0
H419 H 0.68611 0.62925 0.69373 0.0
H420 H 0.66104 0.60852 0.74817 0.0
H421 H 0.60276 0.66481 0.78168 0.0
H422 H 0.54041 0.60266 0.94511 0.0
H423 H 0.56883 0.62892 0.89862 0.0
C424 C 0.85864 0.17602 0.1412 0.0
C425 C 0.83979 0.15956 0.11733 0.0
C426 C 0.87329 0.16393 0.17985 0.0
C427 C 0.89916 0.09399 0.23582 0.0
H428 H 0.91547 0.1332 0.33037 0.0
C429 C 0.95846 0.03899 0.39294 0.0
C430 C 0.97879 0.05511 0.41527 0.0
C431 C 0.94038 0.0519 0.35763 0.0
C432 C 0.91132 0.12209 0.30409 0.0
H433 H 0.82071 0.11812 0.11478 0.0
H434 H 0.84585 0.09701 0.18251 0.0
H435 H 0.88486 0.15593 0.26774 0.0
H436 H 0.99675 0.09715 0.41751 0.0
H437 H 0.96523 0.11972 0.35592 0.0
H438 H 0.92586 0.06036 0.27172 0.0
C439 C 0.8496 0.11912 0.17153 0.0
C440 C 0.89374 0.13509 0.26826 0.0
C441 C 0.83498 0.13122 0.13304 0.0
C442 C 0.98098 0.08428 0.40124 0.0
C443 C 0.96286 0.09722 0.36602 0.0
C444 C 0.91675 0.08104 0.27152 0.0
C445 C 0.86949 0.1351 0.19499 0.0
C446 C 0.88746 0.12119 0.23368 0.0
C447 C 0.94227 0.08121 0.34382 0.0
C448 C 0.92312 0.09493 0.30609 0.0
H449 H 0.86295 0.1978 0.1292 0.0
H450 H 0.88862 0.17675 0.19696 0.0
H451 H 0.89526 0.08291 0.2095 0.0
H452 H 0.95614 0.0165 0.40321 0.0
H453 H 0.92456 0.03899 0.34153 0.0
C454 C 0.37855 0.32532 0.55926 0.0
C455 C 0.37278 0.34255 0.52066 0.0
C456 C 0.38409 0.3376 0.59526 0.0
C457 C 0.41247 0.40256 0.63221 0.0
H458 H 0.37389 0.38101 0.72418 0.0
C459 C 0.44102 0.45318 0.77979 0.0
C460 C 0.41744 0.46513 0.79085 0.0
C461 C 0.43702 0.43424 0.7512 0.0
C462 C 0.38496 0.38708 0.69881 0.0
H463 H 0.3666 0.38618 0.49014 0.0
H464 H 0.37708 0.40739 0.55265 0.0
H465 H 0.36317 0.35596 0.66454 0.0
H466 H 0.37135 0.46544 0.78272 0.0
H467 H 0.36437 0.43206 0.7333 0.0
H468 H 0.434 0.43385 0.66595 0.0
C469 C 0.37763 0.38444 0.55497 0.0
C470 C 0.37891 0.3727 0.66484 0.0
C471 C 0.3717 0.37224 0.51915 0.0
C472 C 0.38989 0.45663 0.77452 0.0
C473 C 0.38591 0.4374 0.74646 0.0
C474 C 0.41884 0.41659 0.66634 0.0
C475 C 0.38432 0.3673 0.59333 0.0
C476 C 0.3922 0.38072 0.63087 0.0
C477 C 0.40938 0.42656 0.73369 0.0
C478 C 0.4048 0.40936 0.69971 0.0
H479 H 0.37982 0.30242 0.56166 0.0
H480 H 0.38921 0.32391 0.6245 0.0
H481 H 0.42322 0.409 0.60658 0.0
H482 H 0.46246 0.45949 0.7918 0.0
H483 H 0.4555 0.42607 0.74207 0.0
C484 C 0.68243 0.64583 0.56195 0.0
C485 C 0.69488 0.67295 0.56148 0.0
C486 C 0.67149 0.63559 0.52562 0.0
C487 C 0.67669 0.63653 0.42051 0.0
H488 H 0.59783 0.61241 0.40794 0.0
C489 C 0.62177 0.58495 0.28057 0.0
C490 C 0.60291 0.56244 0.28819 0.0
C491 C 0.6325 0.60152 0.31091 0.0
C492 C 0.61996 0.6187 0.41106 0.0
H493 H 0.70699 0.70981 0.52194 0.0
H494 H 0.68857 0.69115 0.45785 0.0
H495 H 0.61853 0.63554 0.46624 0.0
H496 H 0.5803 0.54021 0.3339 0.0
H497 H 0.5999 0.568 0.38706 0.0
H498 H 0.67871 0.61838 0.36659 0.0
C499 C 0.68688 0.67833 0.48683 0.0
C500 C 0.6317 0.6322 0.44429 0.0
C501 C 0.69748 0.6889 0.52345 0.0
C502 C 0.59505 0.55705 0.32695 0.0
C503 C 0.60597 0.5734 0.35735 0.0
C504 C 0.66507 0.62259 0.38746 0.0
C505 C 0.67325 0.65183 0.48773 0.0
C506 C 0.66028 0.64079 0.44972 0.0
C507 C 0.62481 0.59592 0.3498 0.0
C508 C 0.63667 0.61297 0.38277 0.0
H509 H 0.68097 0.63239 0.59055 0.0
H510 H 0.66162 0.61483 0.52713 0.0
H511 H 0.69885 0.64282 0.42426 0.0
H512 H 0.62865 0.58956 0.25132 0.0
H513 H 0.64671 0.61881 0.30374 0.0
C514 C 0.84877 0.17736 0.9348 0.0
C515 C 0.84663 0.15967 0.97164 0.0
C516 C 0.86267 0.1678 0.90603 0.0
C517 C 0.88564 0.10188 0.87469 0.0
H518 H 0.93856 0.15123 0.82299 0.0
C519 C 0.96538 0.05922 0.78816 0.0
C520 C 0.9708 0.07587 0.7521 0.0
C521 C 0.94887 0.06994 0.81284 0.0
C522 C 0.92356 0.13729 0.8367 0.0
H523 H 0.85681 0.11779 0.00661 0.0
H524 H 0.88131 0.10133 0.95693 0.0
H525 H 0.91207 0.16918 0.86958 0.0
H526 H 0.96306 0.11695 0.71382 0.0
H527 H 0.93382 0.1355 0.75655 0.0
H528 H 0.89719 0.06994 0.84209 0.0
C529 C 0.87218 0.12255 0.95009 0.0
C530 C 0.90837 0.14759 0.86342 0.0
C531 C 0.85844 0.13213 0.97884 0.0
C532 C 0.9591 0.10346 0.74119 0.0
C533 C 0.9426 0.11421 0.76594 0.0
C534 C 0.90077 0.09161 0.84796 0.0
C535 C 0.8745 0.14024 0.91334 0.0
C536 C 0.88948 0.1299 0.88312 0.0
C537 C 0.93731 0.0976 0.80212 0.0
C538 C 0.92017 0.10906 0.82897 0.0
H539 H 0.83997 0.19872 0.92841 0.0
H540 H 0.86389 0.18188 0.87788 0.0
H541 H 0.87086 0.08785 0.88874 0.0
H542 H 0.97376 0.03777 0.79726 0.0
H543 H 0.94553 0.05665 0.84071 0.0
C544 C 0.42327 0.35269 0.38667 0.0
C545 C 0.39388 0.34742 0.37944 0.0
C546 C 0.43642 0.36692 0.35549 0.0
C547 C 0.42383 0.39146 0.24185 0.0
H548 H 0.48883 0.43935 0.27086 0.0
C549 C 0.46637 0.47796 0.12754 0.0
C550 C 0.4951 0.47498 0.12452 0.0
C551 C 0.45494 0.4614 0.15862 0.0
C552 C 0.47082 0.42587 0.26243 0.0
H553 H 0.35506 0.35299 0.33431 0.0
H554 H 0.37749 0.37917 0.28035 0.0
H555 H 0.46652 0.41293 0.32467 0.0
H556 H 0.53483 0.4533 0.1533 0.0
H557 H 0.51508 0.42533 0.20924 0.0
H558 H 0.42751 0.40591 0.17931 0.0
C559 C 0.39083 0.37147 0.30949 0.0
C560 C 0.45805 0.41051 0.29324 0.0
C561 C 0.37782 0.35665 0.34048 0.0
C562 C 0.51258 0.45605 0.15468 0.0
C563 C 0.5013 0.43997 0.18654 0.0
C564 C 0.43623 0.40733 0.21106 0.0
C565 C 0.42038 0.37686 0.31646 0.0
C566 C 0.43431 0.39302 0.28349 0.0
C567 C 0.47225 0.44219 0.18833 0.0
C568 C 0.45982 0.42467 0.22108 0.0
H569 H 0.43614 0.3455 0.41643 0.0
H570 H 0.45925 0.36989 0.36209 0.0
H571 H 0.40611 0.37783 0.23281 0.0
H572 H 0.45265 0.49316 0.10584 0.0
H573 H 0.43259 0.46387 0.15976 0.0
C574 C 0.19323 0.86432 0.90469 0.0
C575 C 0.20538 0.88252 0.93216 0.0
C576 C 0.17842 0.8756 0.86574 0.0
C577 C 0.16788 0.94064 0.78897 0.0
H578 H 0.09152 0.91207 0.75865 0.0
C579 C 0.08622 1.00059 0.65657 0.0
C580 C 0.06743 0.98443 0.632 0.0
C581 C 0.10392 0.98739 0.69211 0.0
C582 C 0.11295 0.92004 0.76615 0.0
H583 H 0.21256 0.9264 0.94073 0.0
H584 H 0.18722 0.94618 0.87248 0.0
H585 H 0.12235 0.88956 0.82079 0.0
H586 H 0.05184 0.94189 0.62612 0.0
H587 H 0.08346 0.91874 0.68675 0.0
H588 H 0.15869 0.97099 0.7343 0.0
C589 C 0.18907 0.92329 0.88076 0.0
C590 C 0.13061 0.9071 0.80186 0.0
C591 C 0.20349 0.91204 0.91976 0.0
C592 C 0.06638 0.9549 0.64408 0.0
C593 C 0.08431 0.94165 0.67923 0.0
C594 C 0.15034 0.9534 0.75301 0.0
C595 C 0.17588 0.90523 0.85361 0.0
C596 C 0.15814 0.91746 0.8139 0.0
C597 C 0.10339 0.95769 0.70374 0.0
C598 C 0.12249 0.9435 0.74134 0.0
H599 H 0.19431 0.84148 0.91391 0.0
H600 H 0.16859 0.86119 0.84533 0.0
H601 H 0.18911 0.94892 0.79732 0.0
H602 H 0.08755 0.0234 0.64805 0.0
H603 H 0.1179 1.00055 0.71057 0.0
loop_
_geom_bond_atom_site_label_1
_geom_bond_atom_site_label_2
_geom_bond_distance
_geom_bond_site_symmetry_2
_ccdc_geom_bond_type
H0 C1 0.949 . S
C1 H0 0.949 . S
C1 C2 1.395 . S
C1 C3 1.391 . S
C2 C1 1.395 . S
C2 C5 1.390 . S
C3 C1 1.391 . S
C3 C7 1.387 1_554 S
C3 C8 1.491 . S
H4 C5 0.950 . S
C5 C2 1.390 . S
C5 H4 0.950 . S
C5 C6 1.378 1_554 S
C6 C5 1.378 1_556 S
C6 C7 1.409 . S
C7 C3 1.387 1_556 S
C7 C6 1.409 . S
C7 H9 0.951 . S
C8 C3 1.491 . S
C8 C10 1.382 . S
C8 C12 1.404 1_554 S
H9 C7 0.951 . S
C10 C8 1.382 . S
C10 C11 1.390 . S
C10 H15 0.949 . S
C11 C10 1.390 . S
C11 C16 1.399 . S
C12 C8 1.404 1_556 S
C12 H13 0.950 . S
C12 C14 1.375 . S
H13 C12 0.950 . S
C14 C12 1.375 . S
C14 C16 1.382 1_556 S
C14 H18 0.950 . S
H15 C10 0.949 . S
C16 C11 1.399 . S
C16 C14 1.382 1_554 S
C16 H17 0.952 . S
H17 C16 0.952 . S
H18 C14 0.950 . S
H19 C20 0.949 . S
C20 H19 0.949 . S
C20 C21 1.395 . S
C20 C22 1.391 . S
C21 C20 1.395 . S
C21 C24 1.390 . S
C22 C20 1.391 . S
C22 C26 1.387 . S
C22 C27 1.491 . S
H23 C24 0.950 . S
C24 C21 1.390 . S
C24 H23 0.950 . S
C24 C25 1.378 . S
C25 C24 1.378 . S
C25 C26 1.409 . S
C26 C22 1.387 . S
C26 C25 1.409 . S
C26 H28 0.951 . S
C27 C22 1.491 . S
C27 C29 1.382 . S
C27 C31 1.404 . S
H28 C26 0.951 . S
C29 C27 1.382 . S
C29 C30 1.390 . S
C29 H34 0.949 . S
C30 C29 1.390 . S
C30 C35 1.399 . S
C31 C27 1.404 . S
C31 H32 0.950 . S
C31 C33 1.375 . S
H32 C31 0.950 . S
C33 C31 1.375 . S
C33 C35 1.382 . S
C33 H37 0.950 . S
H34 C29 0.949 . S
C35 C30 1.399 . S
C35 C33 1.382 . S
C35 H36 0.952 . S
H36 C35 0.952 . S
H37 C33 0.950 . S
H38 C39 0.949 . S
C39 H38 0.949 . S
C39 C40 1.395 . S
C39 C41 1.391 . S
C40 C39 1.395 . S
C40 C43 1.390 . S
C41 C39 1.391 . S
C41 C45 1.387 1_554 S
C41 C46 1.491 1_554 S
H42 C43 0.950 . S
C43 C40 1.390 . S
C43 H42 0.950 . S
C43 C44 1.378 1_554 S
C44 C43 1.378 1_556 S
C44 C45 1.409 . S
C45 C41 1.387 1_556 S
C45 C44 1.409 . S
C45 H47 0.951 . S
C46 C41 1.491 1_556 S
C46 C48 1.382 1_556 S
C46 C50 1.404 . S
H47 C45 0.951 . S
C48 C46 1.382 1_554 S
C48 C49 1.390 . S
C48 H53 0.949 . S
C49 C48 1.390 . S
C49 C54 1.399 1_554 S
C50 C46 1.404 . S
C50 H51 0.950 . S
C50 C52 1.375 . S
H51 C50 0.950 . S
C52 C50 1.375 . S
C52 C54 1.382 . S
C52 H56 0.950 . S
H53 C48 0.949 . S
C54 C49 1.399 1_556 S
C54 C52 1.382 . S
C54 H55 0.952 . S
H55 C54 0.952 . S
H56 C52 0.950 . S
H57 C58 0.949 . S
C58 H57 0.949 . S
C58 C59 1.395 . S
C58 C60 1.391 . S
C59 C58 1.395 . S
C59 C62 1.390 . S
C60 C58 1.391 . S
C60 C64 1.387 . S
C60 C65 1.491 . S
H61 C62 0.950 . S
C62 C59 1.390 . S
C62 H61 0.950 . S
C62 C63 1.378 . S
C63 C62 1.378 . S
C63 C64 1.409 . S
C64 C60 1.387 . S
C64 C63 1.409 . S
C64 H66 0.951 . S
C65 C60 1.491 . S
C65 C67 1.382 . S
C65 C69 1.404 . S
H66 C64 0.951 . S
C67 C65 1.382 . S
C67 C68 1.390 . S
C67 H72 0.949 . S
C68 C67 1.390 . S
C68 C73 1.399 . S
C69 C65 1.404 . S
C69 H70 0.950 . S
C69 C71 1.375 . S
H70 C69 0.950 . S
C71 C69 1.375 . S
C71 C73 1.382 . S
C71 H75 0.950 . S
H72 C67 0.949 . S
C73 C68 1.399 . S
C73 C71 1.382 . S
C73 H74 0.952 . S
H74 C73 0.952 . S
H75 C71 0.950 . S
C76 C78 1.422 . S
C76 C80 1.415 . S
C76 N82 1.369 . S
C77 C78 1.421 . S
C77 C79 1.417 . S
C77 C89 1.422 . S
C78 C76 1.422 . S
C78 C77 1.421 . S
C78 N88 1.359 . S
C79 C77 1.417 . S
C79 C81 1.329 . S
C79 H98 0.930 . S
C80 C76 1.415 . S
C80 C81 1.437 . S
C80 C84 1.413 . S
C81 C79 1.329 . S
C81 C80 1.437 . S
C81 H103 0.929 . S
N82 C76 1.369 . S
N82 C83 1.338 1_655 S
N82 Gd87 2.622 . S
C83 N82 1.338 1_455 S
C83 C85 1.378 . S
C83 H95 0.929 . S
C84 C80 1.413 . S
C84 C85 1.348 1_655 S
C84 H100 0.931 . S
C85 C83 1.378 . S
C85 C84 1.348 1_455 S
C85 H101 0.930 . S
Gd86 N106 2.622 . S
Gd86 N113 2.570 . S
Gd86 O120 2.353 1_565 S
Gd86 O121 2.468 . S
Gd86 O122 2.427 . S
Gd86 O124 2.388 1_455 S
Gd86 O125 2.386 . S
Gd86 O129 2.307 1_565 S
Gd86 C139 2.805 . S
Gd87 N82 2.622 . S
Gd87 N88 2.570 . S
Gd87 O119 2.386 . S
Gd87 O123 2.307 1_545 S
Gd87 O126 2.353 1_655 S
Gd87 O127 2.468 . S
Gd87 O128 2.427 1_655 S
Gd87 O130 2.388 1_655 S
Gd87 C151 2.805 . S
N88 C78 1.359 . S
N88 Gd87 2.570 . S
N88 C90 1.343 . S
C89 C77 1.422 . S
C89 C91 1.321 . S
C89 H97 0.931 . S
C90 N88 1.343 . S
C90 C91 1.390 . S
C90 H92 0.931 . S
C91 C89 1.321 . S
C91 C90 1.390 . S
C91 H93 0.930 . S
H92 C90 0.931 . S
H93 C91 0.930 . S
H94 C117 0.931 . S
H95 C83 0.929 . S
H96 C118 0.930 . S
H97 C89 0.931 . S
H98 C79 0.930 . S
H99 C108 0.929 1_655 S
H100 C84 0.931 . S
H101 C85 0.930 . S
H102 C140 0.930 . S
H103 C81 0.929 . S
H104 C109 0.931 . S
H105 C110 0.930 1_655 S
N106 Gd86 2.622 . S
N106 C107 1.369 . S
N106 C108 1.338 . S
C107 N106 1.369 . S
C107 C111 1.415 . S
C107 C114 1.422 . S
C108 H99 0.929 1_455 S
C108 N106 1.338 . S
C108 C110 1.378 . S
C109 H104 0.931 . S
C109 C110 1.348 . S
C109 C111 1.413 . S
C110 H105 0.930 1_455 S
C110 C108 1.378 . S
C110 C109 1.348 . S
C111 C107 1.415 . S
C111 C109 1.413 . S
C111 C141 1.437 . S
H112 C141 0.929 . S
N113 Gd86 2.570 . S
N113 C114 1.359 . S
N113 C117 1.343 . S
C114 C107 1.422 . S
C114 N113 1.359 . S
C114 C116 1.421 . S
C115 C116 1.422 . S
C115 C118 1.321 . S
C115 H142 0.931 . S
C116 C114 1.421 . S
C116 C115 1.422 . S
C116 C140 1.417 . S
C117 H94 0.931 . S
C117 N113 1.343 . S
C117 C118 1.390 . S
C118 H96 0.930 . S
C118 C115 1.321 . S
C118 C117 1.390 . S
O119 Gd87 2.386 . S
O119 C131 1.265 . S
O120 Gd86 2.353 1_545 S
O120 C131 1.242 1_455 S
O121 Gd86 2.468 . S
O121 C139 1.263 . S
O122 Gd86 2.427 . S
O122 C139 1.252 . S
O123 Gd87 2.307 1_565 S
O123 C132 1.261 . S
O124 Gd86 2.388 1_655 S
O124 C132 1.252 . S
O125 Gd86 2.386 . S
O125 C143 1.265 . S
O126 Gd87 2.353 1_455 S
O126 C143 1.242 1_545 S
O127 Gd87 2.468 . S
O127 C151 1.263 . S
O128 Gd87 2.427 1_455 S
O128 C151 1.252 1_455 S
O129 Gd86 2.307 1_545 S
O129 C144 1.261 . S
O130 Gd87 2.388 1_455 S
O130 C144 1.252 . S
C131 O119 1.265 . S
C131 O120 1.242 1_655 S
C132 O123 1.261 . S
C132 O124 1.252 . S
C133 C136 1.394 . S
C133 C138 1.370 . S
C133 C139 1.500 . S
C134 C137 1.383 . S
C134 C138 1.395 . S
C135 C136 1.396 . S
C135 C137 1.365 . S
C135 H152 0.929 . S
C136 C133 1.394 . S
C136 C135 1.396 . S
C136 H153 0.930 . S
C137 C134 1.383 . S
C137 C135 1.365 . S
C137 H154 0.931 . S
C138 C133 1.370 . S
C138 C134 1.395 . S
C138 H155 0.930 . S
C139 Gd86 2.805 . S
C139 O121 1.263 . S
C139 O122 1.252 . S
C139 C133 1.500 . S
C140 H102 0.930 . S
C140 C116 1.417 . S
C140 C141 1.329 . S
C141 C111 1.437 . S
C141 H112 0.929 . S
C141 C140 1.329 . S
H142 C115 0.931 . S
C143 O125 1.265 . S
C143 O126 1.242 1_565 S
C144 O129 1.261 . S
C144 O130 1.252 . S
C145 C148 1.394 . S
C145 C150 1.370 . S
C145 C151 1.500 . S
C146 C149 1.383 . S
C146 C150 1.395 . S
C147 C148 1.396 . S
C147 C149 1.365 . S
C147 H156 0.929 . S
C148 C145 1.394 . S
C148 C147 1.396 . S
C148 H157 0.930 1_655 S
C149 C146 1.383 . S
C149 C147 1.365 . S
C149 H158 0.931 . S
C150 C145 1.370 . S
C150 C146 1.395 . S
C150 H159 0.930 . S
C151 Gd87 2.805 . S
C151 O127 1.263 . S
C151 O128 1.252 1_655 S
C151 C145 1.500 . S
H152 C135 0.929 . S
H153 C136 0.930 . S
H154 C137 0.931 . S
H155 C138 0.930 . S
H156 C147 0.929 . S
H157 C148 0.930 1_455 S
H158 C149 0.931 . S
H159 C150 0.930 . S
C160 C162 1.422 . S
C160 C164 1.415 . S
C160 N166 1.369 . S
C161 C162 1.421 . S
C161 C163 1.417 . S
C161 C173 1.422 . S
C162 C160 1.422 . S
C162 C161 1.421 . S
C162 N172 1.359 . S
C163 C161 1.417 . S
C163 C165 1.329 . S
C163 H182 0.930 . S
C164 C160 1.415 . S
C164 C165 1.437 . S
C164 C168 1.413 . S
C165 C163 1.329 . S
C165 C164 1.437 . S
C165 H187 0.929 . S
N166 C160 1.369 . S
N166 C167 1.338 . S
N166 Gd171 2.622 . S
C167 N166 1.338 . S
C167 C169 1.378 . S
C167 H179 0.929 . S
C168 C164 1.413 . S
C168 C169 1.348 . S
C168 H184 0.931 . S
C169 C167 1.378 . S
C169 C168 1.348 . S
C169 H185 0.930 . S
Gd170 N190 2.622 . S
Gd170 N197 2.570 1_556 S
Gd170 O204 2.353 . S
Gd170 O205 2.468 . S
Gd170 O206 2.427 . S
Gd170 O208 2.388 1_556 S
Gd170 O209 2.386 1_556 S
Gd170 O213 2.307 1_556 S
Gd170 C223 2.805 . S
Gd171 N166 2.622 . S
Gd171 N172 2.570 . S
Gd171 O203 2.386 . S
Gd171 O207 2.307 . S
Gd171 O210 2.353 . S
Gd171 O211 2.468 . S
Gd171 O212 2.427 . S
Gd171 O214 2.388 . S
Gd171 C235 2.805 . S
N172 C162 1.359 . S
N172 Gd171 2.570 . S
N172 C174 1.343 . S
C173 C161 1.422 . S
C173 C175 1.321 . S
C173 H181 0.931 . S
C174 N172 1.343 . S
C174 C175 1.390 . S
C174 H176 0.931 . S
C175 C173 1.321 . S
C175 C174 1.390 . S
C175 H177 0.930 . S
H176 C174 0.931 . S
H177 C175 0.930 . S
H178 C201 0.931 . S
H179 C167 0.929 . S
H180 C202 0.930 . S
H181 C173 0.931 . S
H182 C163 0.930 . S
H183 C192 0.929 . S
H184 C168 0.931 . S
H185 C169 0.930 . S
H186 C224 0.930 . S
H187 C165 0.929 . S
H188 C193 0.931 . S
H189 C194 0.930 . S
N190 Gd170 2.622 . S
N190 C191 1.369 1_556 S
N190 C192 1.338 . S
C191 N190 1.369 1_554 S
C191 C195 1.415 . S
C191 C198 1.422 . S
C192 H183 0.929 . S
C192 N190 1.338 . S
C192 C194 1.378 . S
C193 H188 0.931 . S
C193 C194 1.348 1_554 S
C193 C195 1.413 . S
C194 H189 0.930 . S
C194 C192 1.378 . S
C194 C193 1.348 1_556 S
C195 C191 1.415 . S
C195 C193 1.413 . S
C195 C225 1.437 . S
H196 C225 0.929 . S
N197 Gd170 2.570 1_554 S
N197 C198 1.359 . S
N197 C201 1.343 . S
C198 C191 1.422 . S
C198 N197 1.359 . S
C198 C200 1.421 . S
C199 C200 1.422 . S
C199 C202 1.321 . S
C199 H226 0.931 . S
C200 C198 1.421 . S
C200 C199 1.422 . S
C200 C224 1.417 . S
C201 H178 0.931 . S
C201 N197 1.343 . S
C201 C202 1.390 . S
C202 H180 0.930 . S
C202 C199 1.321 . S
C202 C201 1.390 . S
O203 Gd171 2.386 . S
O203 C215 1.265 1_554 S
O204 Gd170 2.353 . S
O204 C215 1.242 . S
O205 Gd170 2.468 . S
O205 C223 1.263 . S
O206 Gd170 2.427 . S
O206 C223 1.252 . S
O207 Gd171 2.307 . S
O207 C216 1.261 . S
O208 Gd170 2.388 1_554 S
O208 C216 1.252 . S
O209 Gd170 2.386 1_554 S
O209 C227 1.265 . S
O210 Gd171 2.353 . S
O210 C227 1.242 . S
O211 Gd171 2.468 . S
O211 C235 1.263 . S
O212 Gd171 2.427 . S
O212 C235 1.252 . S
O213 Gd170 2.307 1_554 S
O213 C228 1.261 . S
O214 Gd171 2.388 . S
O214 C228 1.252 . S
C215 O203 1.265 1_556 S
C215 O204 1.242 . S
C216 O207 1.261 . S
C216 O208 1.252 . S
C217 C220 1.394 . S
C217 C222 1.370 . S
C217 C223 1.500 . S
C218 C221 1.383 . S
C218 C222 1.395 . S
C219 C220 1.396 . S
C219 C221 1.365 . S
C219 H236 0.929 . S
C220 C217 1.394 . S
C220 C219 1.396 . S
C220 H237 0.930 . S
C221 C218 1.383 . S
C221 C219 1.365 . S
C221 H238 0.931 . S
C222 C217 1.370 . S
C222 C218 1.395 . S
C222 H239 0.930 . S
C223 Gd170 2.805 . S
C223 O205 1.263 . S
C223 O206 1.252 . S
C223 C217 1.500 . S
C224 H186 0.930 . S
C224 C200 1.417 . S
C224 C225 1.329 . S
C225 C195 1.437 . S
C225 H196 0.929 . S
C225 C224 1.329 . S
H226 C199 0.931 . S
C227 O209 1.265 . S
C227 O210 1.242 . S
C228 O213 1.261 . S
C228 O214 1.252 . S
C229 C232 1.394 . S
C229 C234 1.370 . S
C229 C235 1.500 . S
C230 C233 1.383 . S
C230 C234 1.395 . S
C231 C232 1.396 . S
C231 C233 1.365 . S
C231 H240 0.929 . S
C232 C229 1.394 . S
C232 C231 1.396 . S
C232 H241 0.930 . S
C233 C230 1.383 . S
C233 C231 1.365 . S
C233 H242 0.931 . S
C234 C229 1.370 . S
C234 C230 1.395 . S
C234 H243 0.930 . S
C235 Gd171 2.805 . S
C235 O211 1.263 . S
C235 O212 1.252 . S
C235 C229 1.500 . S
H236 C219 0.929 . S
H237 C220 0.930 . S
H238 C221 0.931 . S
H239 C222 0.930 . S
H240 C231 0.929 . S
H241 C232 0.930 . S
H242 C233 0.931 . S
H243 C234 0.930 . S
C244 C245 1.349 . S
C244 C246 1.327 . S
C244 H269 0.950 . S
C245 C244 1.349 . S
C245 C261 1.349 . S
C246 C244 1.327 . S
C246 C265 1.429 . S
C246 H270 0.950 . S
C247 C264 1.574 . S
C247 C266 1.368 . S
C247 H271 0.949 . S
H248 C252 0.949 . S
C249 C250 1.349 . S
C249 C251 1.327 . S
C249 H272 0.950 . S
C250 C249 1.349 . S
C250 C262 1.349 . S
C251 C249 1.327 . S
C251 C267 1.429 . S
C251 H273 0.950 . S
C252 H248 0.949 . S
C252 C260 1.574 . S
C252 C268 1.368 . S
H253 C261 0.950 . S
H254 C259 0.950 . S
H255 C260 0.949 . S
H256 C262 0.950 . S
H257 C263 0.950 . S
H258 C264 0.949 . S
C259 H254 0.950 . S
C259 C261 1.327 . S
C259 C265 1.429 . S
C260 C252 1.574 . S
C260 H255 0.949 . S
C260 C266 1.368 . S
C261 C245 1.349 . S
C261 H253 0.950 . S
C261 C259 1.327 . S
C262 C250 1.349 . S
C262 H256 0.950 . S
C262 C263 1.327 . S
C263 H257 0.950 . S
C263 C262 1.327 . S
C263 C267 1.429 . S
C264 C247 1.574 . S
C264 H258 0.949 . S
C264 C268 1.368 . S
C265 C246 1.429 . S
C265 C259 1.429 . S
C265 C266 1.523 . S
C266 C247 1.368 . S
C266 C260 1.368 . S
C266 C265 1.523 . S
C267 C251 1.429 . S
C267 C263 1.429 . S
C267 C268 1.523 . S
C268 C252 1.368 . S
C268 C264 1.368 . S
C268 C267 1.523 . S
H269 C244 0.950 . S
H270 C246 0.950 . S
H271 C247 0.949 . S
H272 C249 0.950 . S
H273 C251 0.950 . S
C274 C275 1.349 . S
C274 C276 1.327 . S
C274 H299 0.950 . S
C275 C274 1.349 . S
C275 C291 1.349 . S
C276 C274 1.327 . S
C276 C295 1.429 . S
C276 H300 0.950 . S
C277 C294 1.574 . S
C277 C296 1.368 . S
C277 H301 0.949 1_554 S
H278 C282 0.949 . S
C279 C280 1.349 . S
C279 C281 1.327 . S
C279 H302 0.950 1_554 S
C280 C279 1.349 . S
C280 C292 1.349 . S
C281 C279 1.327 . S
C281 C297 1.429 . S
C281 H303 0.950 1_554 S
C282 H278 0.949 . S
C282 C290 1.574 . S
C282 C298 1.368 . S
H283 C291 0.950 . S
H284 C289 0.950 . S
H285 C290 0.949 . S
H286 C292 0.950 . S
H287 C293 0.950 . S
H288 C294 0.949 1_556 S
C289 H284 0.950 . S
C289 C291 1.327 . S
C289 C295 1.429 . S
C290 C282 1.574 . S
C290 H285 0.949 . S
C290 C296 1.368 . S
C291 C275 1.349 . S
C291 H283 0.950 . S
C291 C289 1.327 . S
C292 C280 1.349 . S
C292 H286 0.950 . S
C292 C293 1.327 . S
C293 H287 0.950 . S
C293 C292 1.327 . S
C293 C297 1.429 . S
C294 C277 1.574 . S
C294 H288 0.949 1_554 S
C294 C298 1.368 . S
C295 C276 1.429 . S
C295 C289 1.429 . S
C295 C296 1.523 . S
C296 C277 1.368 . S
C296 C290 1.368 . S
C296 C295 1.523 . S
C297 C281 1.429 . S
C297 C293 1.429 . S
C297 C298 1.523 . S
C298 C282 1.368 . S
C298 C294 1.368 . S
C298 C297 1.523 . S
H299 C274 0.950 . S
H300 C276 0.950 . S
H301 C277 0.949 1_556 S
H302 C279 0.950 1_556 S
H303 C281 0.950 1_556 S
C304 C305 1.349 . S
C304 C306 1.327 . S
C304 H329 0.950 . S
C305 C304 1.349 . S
C305 C321 1.349 . S
C306 C304 1.327 . S
C306 C325 1.429 . S
C306 H330 0.950 . S
C307 C324 1.574 . S
C307 C326 1.368 . S
C307 H331 0.949 . S
H308 C312 0.949 . S
C309 C310 1.349 . S
C309 C311 1.327 . S
C309 H332 0.950 . S
C310 C309 1.349 . S
C310 C322 1.349 . S
C311 C309 1.327 . S
C311 C327 1.429 . S
C311 H333 0.950 . S
C312 H308 0.949 . S
C312 C320 1.574 . S
C312 C328 1.368 . S
H313 C321 0.950 . S
H314 C319 0.950 . S
H315 C320 0.949 . S
H316 C322 0.950 . S
H317 C323 0.950 . S
H318 C324 0.949 . S
C319 H314 0.950 . S
C319 C321 1.327 . S
C319 C325 1.429 . S
C320 C312 1.574 . S
C320 H315 0.949 . S
C320 C326 1.368 . S
C321 C305 1.349 . S
C321 H313 0.950 . S
C321 C319 1.327 . S
C322 C310 1.349 . S
C322 H316 0.950 . S
C322 C323 1.327 . S
C323 H317 0.950 . S
C323 C322 1.327 . S
C323 C327 1.429 . S
C324 C307 1.574 . S
C324 H318 0.949 . S
C324 C328 1.368 . S
C325 C306 1.429 . S
C325 C319 1.429 . S
C325 C326 1.523 . S
C326 C307 1.368 . S
C326 C320 1.368 . S
C326 C325 1.523 . S
C327 C311 1.429 . S
C327 C323 1.429 . S
C327 C328 1.523 . S
C328 C312 1.368 . S
C328 C324 1.368 . S
C328 C327 1.523 . S
H329 C304 0.950 . S
H330 C306 0.950 . S
H331 C307 0.949 . S
H332 C309 0.950 . S
H333 C311 0.950 . S
C334 C335 1.349 . S
C334 C336 1.327 . S
C334 H359 0.950 . S
C335 C334 1.349 . S
C335 C351 1.349 1_554 S
C336 C334 1.327 . S
C336 C355 1.429 . S
C336 H360 0.950 . S
C337 C354 1.574 . S
C337 C356 1.368 1_556 S
C337 H361 0.949 . S
H338 C342 0.949 . S
C339 C340 1.349 1_556 S
C339 C341 1.327 . S
C339 H362 0.950 . S
C340 C339 1.349 1_554 S
C340 C352 1.349 . S
C341 C339 1.327 . S
C341 C357 1.429 1_556 S
C341 H363 0.950 . S
C342 H338 0.949 . S
C342 C350 1.574 . S
C342 C358 1.368 . S
H343 C351 0.950 . S
H344 C349 0.950 . S
H345 C350 0.949 . S
H346 C352 0.950 . S
H347 C353 0.950 . S
H348 C354 0.949 . S
C349 H344 0.950 . S
C349 C351 1.327 . S
C349 C355 1.429 1_556 S
C350 C342 1.574 . S
C350 H345 0.949 . S
C350 C356 1.368 . S
C351 C335 1.349 1_556 S
C351 H343 0.950 . S
C351 C349 1.327 . S
C352 C340 1.349 . S
C352 H346 0.950 . S
C352 C353 1.327 . S
C353 H347 0.950 . S
C353 C352 1.327 . S
C353 C357 1.429 . S
C354 C337 1.574 . S
C354 H348 0.949 . S
C354 C358 1.368 1_556 S
C355 C336 1.429 . S
C355 C349 1.429 1_554 S
C355 C356 1.523 . S
C356 C337 1.368 1_554 S
C356 C350 1.368 . S
C356 C355 1.523 . S
C357 C341 1.429 1_554 S
C357 C353 1.429 . S
C357 C358 1.523 . S
C358 C342 1.368 . S
C358 C354 1.368 1_554 S
C358 C357 1.523 . S
H359 C334 0.950 . S
H360 C336 0.950 . S
H361 C337 0.949 . S
H362 C339 0.950 . S
H363 C341 0.950 . S
C364 C365 1.349 . S
C364 C366 1.327 . S
C364 H389 0.950 . S
C365 C364 1.349 . S
C365 C381 1.349 . S
C366 C364 1.327 . S
C366 C385 1.429 . S
C366 H390 0.950 . S
C367 C384 1.574 . S
C367 C386 1.368 . S
C367 H391 0.949 . S
H368 C372 0.949 . S
C369 C370 1.349 . S
C369 C371 1.327 . S
C369 H392 0.950 . S
C370 C369 1.349 . S
C370 C382 1.349 . S
C371 C369 1.327 . S
C371 C387 1.429 . S
C371 H393 0.950 . S
C372 H368 0.949 . S
C372 C380 1.574 . S
C372 C388 1.368 . S
H373 C381 0.950 . S
H374 C379 0.950 . S
H375 C380 0.949 . S
H376 C382 0.950 . S
H377 C383 0.950 . S
H378 C384 0.949 . S
C379 H374 0.950 . S
C379 C381 1.327 . S
C379 C385 1.429 . S
C380 C372 1.574 . S
C380 H375 0.949 . S
C380 C386 1.368 . S
C381 C365 1.349 . S
C381 H373 0.950 . S
C381 C379 1.327 . S
C382 C370 1.349 . S
C382 H376 0.950 . S
C382 C383 1.327 . S
C383 H377 0.950 . S
C383 C382 1.327 . S
C383 C387 1.429 . S
C384 C367 1.574 . S
C384 H378 0.949 . S
C384 C388 1.368 . S
C385 C366 1.429 . S
C385 C379 1.429 . S
C385 C386 1.523 . S
C386 C367 1.368 . S
C386 C380 1.368 . S
C386 C385 1.523 . S
C387 C371 1.429 . S
C387 C383 1.429 . S
C387 C388 1.523 . S
C388 C372 1.368 . S
C388 C384 1.368 . S
C388 C387 1.523 . S
H389 C364 0.950 . S
H390 C366 0.950 . S
H391 C367 0.949 . S
H392 C369 0.950 . S
H393 C371 0.950 . S
C394 C395 1.349 . S
C394 C396 1.327 . S
C394 H419 0.950 . S
C395 C394 1.349 . S
C395 C411 1.349 . S
C396 C394 1.327 . S
C396 C415 1.429 . S
C396 H420 0.950 . S
C397 C414 1.574 . S
C397 C416 1.368 . S
C397 H421 0.949 . S
H398 C402 0.949 . S
C399 C400 1.349 . S
C399 C401 1.327 . S
C399 H422 0.950 . S
C400 C399 1.349 . S
C400 C412 1.349 . S
C401 C399 1.327 . S
C401 C417 1.429 . S
C401 H423 0.950 . S
C402 H398 0.949 . S
C402 C410 1.574 . S
C402 C418 1.368 . S
H403 C411 0.950 . S
H404 C409 0.950 . S
H405 C410 0.949 . S
H406 C412 0.950 . S
H407 C413 0.950 . S
H408 C414 0.949 . S
C409 H404 0.950 . S
C409 C411 1.327 . S
C409 C415 1.429 . S
C410 C402 1.574 . S
C410 H405 0.949 . S
C410 C416 1.368 . S
C411 C395 1.349 . S
C411 H403 0.950 . S
C411 C409 1.327 . S
C412 C400 1.349 . S
C412 H406 0.950 . S
C412 C413 1.327 . S
C413 H407 0.950 . S
C413 C412 1.327 . S
C413 C417 1.429 . S
C414 C397 1.574 . S
C414 H408 0.949 . S
C414 C418 1.368 . S
C415 C396 1.429 . S
C415 C409 1.429 . S
C415 C416 1.523 . S
C416 C397 1.368 . S
C416 C410 1.368 . S
C416 C415 1.523 . S
C417 C401 1.429 . S
C417 C413 1.429 . S
C417 C418 1.523 . S
C418 C402 1.368 . S
C418 C414 1.368 . S
C418 C417 1.523 . S
H419 C394 0.950 . S
H420 C396 0.950 . S
H421 C397 0.949 . S
H422 C399 0.950 . S
H423 C401 0.950 . S
C424 C425 1.349 . S
C424 C426 1.327 . S
C424 H449 0.950 . S
C425 C424 1.349 . S
C425 C441 1.349 . S
C426 C424 1.327 . S
C426 C445 1.429 . S
C426 H450 0.950 . S
C427 C444 1.574 . S
C427 C446 1.368 . S
C427 H451 0.949 . S
H428 C432 0.949 . S
C429 C430 1.349 . S
C429 C431 1.327 . S
C429 H452 0.950 . S
C430 C429 1.349 . S
C430 C442 1.349 . S
C431 C429 1.327 . S
C431 C447 1.429 . S
C431 H453 0.950 . S
C432 H428 0.949 . S
C432 C440 1.574 . S
C432 C448 1.368 . S
H433 C441 0.950 . S
H434 C439 0.950 . S
H435 C440 0.949 . S
H436 C442 0.950 . S
H437 C443 0.950 . S
H438 C444 0.949 . S
C439 H434 0.950 . S
C439 C441 1.327 . S
C439 C445 1.429 . S
C440 C432 1.574 . S
C440 H435 0.949 . S
C440 C446 1.368 . S
C441 C425 1.349 . S
C441 H433 0.950 . S
C441 C439 1.327 . S
C442 C430 1.349 . S
C442 H436 0.950 . S
C442 C443 1.327 . S
C443 H437 0.950 . S
C443 C442 1.327 . S
C443 C447 1.429 . S
C444 C427 1.574 . S
C444 H438 0.949 . S
C444 C448 1.368 . S
C445 C426 1.429 . S
C445 C439 1.429 . S
C445 C446 1.523 . S
C446 C427 1.368 . S
C446 C440 1.368 . S
C446 C445 1.523 . S
C447 C431 1.429 . S
C447 C443 1.429 . S
C447 C448 1.523 . S
C448 C432 1.368 . S
C448 C444 1.368 . S
C448 C447 1.523 . S
H449 C424 0.950 . S
H450 C426 0.950 . S
H451 C427 0.949 . S
H452 C429 0.950 . S
H453 C431 0.950 . S
C454 C455 1.349 . S
C454 C456 1.327 . S
C454 H479 0.950 . S
C455 C454 1.349 . S
C455 C471 1.349 . S
C456 C454 1.327 . S
C456 C475 1.429 . S
C456 H480 0.950 . S
C457 C474 1.574 . S
C457 C476 1.368 . S
C457 H481 0.949 . S
H458 C462 0.949 . S
C459 C460 1.349 . S
C459 C461 1.327 . S
C459 H482 0.950 . S
C460 C459 1.349 . S
C460 C472 1.349 . S
C461 C459 1.327 . S
C461 C477 1.429 . S
C461 H483 0.950 . S
C462 H458 0.949 . S
C462 C470 1.574 . S
C462 C478 1.368 . S
H463 C471 0.950 . S
H464 C469 0.950 . S
H465 C470 0.949 . S
H466 C472 0.950 . S
H467 C473 0.950 . S
H468 C474 0.949 . S
C469 H464 0.950 . S
C469 C471 1.327 . S
C469 C475 1.429 . S
C470 C462 1.574 . S
C470 H465 0.949 . S
C470 C476 1.368 . S
C471 C455 1.349 . S
C471 H463 0.950 . S
C471 C469 1.327 . S
C472 C460 1.349 . S
C472 H466 0.950 . S
C472 C473 1.327 . S
C473 H467 0.950 . S
C473 C472 1.327 . S
C473 C477 1.429 . S
C474 C457 1.574 . S
C474 H468 0.949 . S
C474 C478 1.368 . S
C475 C456 1.429 . S
C475 C469 1.429 . S
C475 C476 1.523 . S
C476 C457 1.368 . S
C476 C470 1.368 . S
C476 C475 1.523 . S
C477 C461 1.429 . S
C477 C473 1.429 . S
C477 C478 1.523 . S
C478 C462 1.368 . S
C478 C474 1.368 . S
C478 C477 1.523 . S
H479 C454 0.950 . S
H480 C456 0.950 . S
H481 C457 0.949 . S
H482 C459 0.950 . S
H483 C461 0.950 . S
C484 C485 1.349 . S
C484 C486 1.327 . S
C484 H509 0.950 . S
C485 C484 1.349 . S
C485 C501 1.349 . S
C486 C484 1.327 . S
C486 C505 1.429 . S
C486 H510 0.950 . S
C487 C504 1.574 . S
C487 C506 1.368 . S
C487 H511 0.949 . S
H488 C492 0.949 . S
C489 C490 1.349 . S
C489 C491 1.327 . S
C489 H512 0.950 . S
C490 C489 1.349 . S
C490 C502 1.349 . S
C491 C489 1.327 . S
C491 C507 1.429 . S
C491 H513 0.950 . S
C492 H488 0.949 . S
C492 C500 1.574 . S
C492 C508 1.368 . S
H493 C501 0.950 . S
H494 C499 0.950 . S
H495 C500 0.949 . S
H496 C502 0.950 . S
H497 C503 0.950 . S
H498 C504 0.949 . S
C499 H494 0.950 . S
C499 C501 1.327 . S
C499 C505 1.429 . S
C500 C492 1.574 . S
C500 H495 0.949 . S
C500 C506 1.368 . S
C501 C485 1.349 . S
C501 H493 0.950 . S
C501 C499 1.327 . S
C502 C490 1.349 . S
C502 H496 0.950 . S
C502 C503 1.327 . S
C503 H497 0.950 . S
C503 C502 1.327 . S
C503 C507 1.429 . S
C504 C487 1.574 . S
C504 H498 0.949 . S
C504 C508 1.368 . S
C505 C486 1.429 . S
C505 C499 1.429 . S
C505 C506 1.523 . S
C506 C487 1.368 . S
C506 C500 1.368 . S
C506 C505 1.523 . S
C507 C491 1.429 . S
C507 C503 1.429 . S
C507 C508 1.523 . S
C508 C492 1.368 . S
C508 C504 1.368 . S
C508 C507 1.523 . S
H509 C484 0.950 . S
H510 C486 0.950 . S
H511 C487 0.949 . S
H512 C489 0.950 . S
H513 C491 0.950 . S
C514 C515 1.349 . S
C514 C516 1.327 . S
C514 H539 0.950 . S
C515 C514 1.349 . S
C515 C531 1.349 . S
C516 C514 1.327 . S
C516 C535 1.429 . S
C516 H540 0.950 . S
C517 C534 1.574 . S
C517 C536 1.368 . S
C517 H541 0.949 . S
H518 C522 0.949 . S
C519 C520 1.349 . S
C519 C521 1.327 . S
C519 H542 0.950 . S
C520 C519 1.349 . S
C520 C532 1.349 . S
C521 C519 1.327 . S
C521 C537 1.429 . S
C521 H543 0.950 . S
C522 H518 0.949 . S
C522 C530 1.574 . S
C522 C538 1.368 . S
H523 C531 0.950 . S
H524 C529 0.950 . S
H525 C530 0.949 . S
H526 C532 0.950 . S
H527 C533 0.950 . S
H528 C534 0.949 . S
C529 H524 0.950 . S
C529 C531 1.327 . S
C529 C535 1.429 . S
C530 C522 1.574 . S
C530 H525 0.949 . S
C530 C536 1.368 . S
C531 C515 1.349 . S
C531 H523 0.950 . S
C531 C529 1.327 . S
C532 C520 1.349 . S
C532 H526 0.950 . S
C532 C533 1.327 . S
C533 H527 0.950 . S
C533 C532 1.327 . S
C533 C537 1.429 . S
C534 C517 1.574 . S
C534 H528 0.949 . S
C534 C538 1.368 . S
C535 C516 1.429 . S
C535 C529 1.429 . S
C535 C536 1.523 . S
C536 C517 1.368 . S
C536 C530 1.368 . S
C536 C535 1.523 . S
C537 C521 1.429 . S
C537 C533 1.429 . S
C537 C538 1.523 . S
C538 C522 1.368 . S
C538 C534 1.368 . S
C538 C537 1.523 . S
H539 C514 0.950 . S
H540 C516 0.950 . S
H541 C517 0.949 . S
H542 C519 0.950 . S
H543 C521 0.950 . S
C544 C545 1.349 . S
C544 C546 1.327 . S
C544 H569 0.950 . S
C545 C544 1.349 . S
C545 C561 1.349 . S
C546 C544 1.327 . S
C546 C565 1.429 . S
C546 H570 0.950 . S
C547 C564 1.574 . S
C547 C566 1.368 . S
C547 H571 0.949 . S
H548 C552 0.949 . S
C549 C550 1.349 . S
C549 C551 1.327 . S
C549 H572 0.950 . S
C550 C549 1.349 . S
C550 C562 1.349 . S
C551 C549 1.327 . S
C551 C567 1.429 . S
C551 H573 0.950 . S
C552 H548 0.949 . S
C552 C560 1.574 . S
C552 C568 1.368 . S
H553 C561 0.950 . S
H554 C559 0.950 . S
H555 C560 0.949 . S
H556 C562 0.950 . S
H557 C563 0.950 . S
H558 C564 0.949 . S
C559 H554 0.950 . S
C559 C561 1.327 . S
C559 C565 1.429 . S
C560 C552 1.574 . S
C560 H555 0.949 . S
C560 C566 1.368 . S
C561 C545 1.349 . S
C561 H553 0.950 . S
C561 C559 1.327 . S
C562 C550 1.349 . S
C562 H556 0.950 . S
C562 C563 1.327 . S
C563 H557 0.950 . S
C563 C562 1.327 . S
C563 C567 1.429 . S
C564 C547 1.574 . S
C564 H558 0.949 . S
C564 C568 1.368 . S
C565 C546 1.429 . S
C565 C559 1.429 . S
C565 C566 1.523 . S
C566 C547 1.368 . S
C566 C560 1.368 . S
C566 C565 1.523 . S
C567 C551 1.429 . S
C567 C563 1.429 . S
C567 C568 1.523 . S
C568 C552 1.368 . S
C568 C564 1.368 . S
C568 C567 1.523 . S
H569 C544 0.950 . S
H570 C546 0.950 . S
H571 C547 0.949 . S
H572 C549 0.950 . S
H573 C551 0.950 . S
C574 C575 1.349 . S
C574 C576 1.327 . S
C574 H599 0.950 . S
C575 C574 1.349 . S
C575 C591 1.349 . S
C576 C574 1.327 . S
C576 C595 1.429 . S
C576 H600 0.950 . S
C577 C594 1.574 . S
C577 C596 1.368 . S
C577 H601 0.949 . S
H578 C582 0.949 . S
C579 C580 1.349 . S
C579 C581 1.327 . S
C579 H602 0.950 1_565 S
C580 C579 1.349 . S
C580 C592 1.349 . S
C581 C579 1.327 . S
C581 C597 1.429 . S
C581 H603 0.950 . S
C582 H578 0.949 . S
C582 C590 1.574 . S
C582 C598 1.368 . S
H583 C591 0.950 . S
H584 C589 0.950 . S
H585 C590 0.949 . S
H586 C592 0.950 . S
H587 C593 0.950 . S
H588 C594 0.949 . S
C589 H584 0.950 . S
C589 C591 1.327 . S
C589 C595 1.429 . S
C590 C582 1.574 . S
C590 H585 0.949 . S
C590 C596 1.368 . S
C591 C575 1.349 . S
C591 H583 0.950 . S
C591 C589 1.327 . S
C592 C580 1.349 . S
C592 H586 0.950 . S
C592 C593 1.327 . S
C593 H587 0.950 . S
C593 C592 1.327 . S
C593 C597 1.429 . S
C594 C577 1.574 . S
C594 H588 0.949 . S
C594 C598 1.368 . S
C595 C576 1.429 . S
C595 C589 1.429 . S
C595 C596 1.523 . S
C596 C577 1.368 . S
C596 C590 1.368 . S
C596 C595 1.523 . S
C597 C581 1.429 . S
C597 C593 1.429 . S
C597 C598 1.523 . S
C598 C582 1.368 . S
C598 C594 1.368 . S
C598 C597 1.523 . S
H599 C574 0.950 . S
H600 C576 0.950 . S
H601 C577 0.949 . S
H602 C579 0.950 1_545 S
H603 C581 0.950 . S
C250 C144 1.731 . S
C245 C68 1.687 . S
C275 C11 1.608 . S
C280 C216 1.741 . S
C305 C30 1.658 . S
C310 C132 1.755 . S
C335 C49 1.652 . S
C340 C228 1.710 . S
C370 C134 1.535 . S
C365 C2 1.703 . S
C400 C215 1.823 . S
C395 C25 1.820 . S
C425 C40 1.714 . S
C430 C131 1.731 . S
C455 C59 1.691 . S
C460 C218 1.519 . S
C490 C230 1.448 . S
C485 C21 1.614 . S
C520 C146 1.448 . S
C515 C44 1.638 . S
C550 C227 1.705 . S
C545 C63 1.706 . S
C575 C6 1.645 . S
C580 C143 1.648 . S
