# Generated by pormake.
# Topology pto, (3,4)-cn, num edge types: 1
# Building blocks:
#     Node 0, Type 0, BuildingBlock: BETDIP_clean_linker_0, # of connection points: 3
#     Node 1, Type 0, BuildingBlock: BETDIP_clean_linker_0, # of connection points: 3
#     Node 2, Type 0, BuildingBlock: BETDIP_clean_linker_0, # of connection points: 3
#     Node 3, Type 0, BuildingBlock: BETDIP_clean_linker_0, # of connection points: 3
#     Node 4, Type 0, BuildingBlock: BETDIP_clean_linker_0, # of connection points: 3
#     Node 5, Type 0, BuildingBlock: BETDIP_clean_linker_0, # of connection points: 3
#     Node 6, Type 0, BuildingBlock: BETDIP_clean_linker_0, # of connection points: 3
#     Node 7, Type 0, BuildingBlock: BETDIP_clean_linker_0, # of connection points: 3
#     Node 8, Type 1, BuildingBlock: KOZSID_clean_sbu_0, # of connection points: 4
#     Node 9, Type 1, BuildingBlock: KOZSID_clean_sbu_0, # of connection points: 4
#     Node 10, Type 1, BuildingBlock: KOZSID_clean_sbu_0, # of connection points: 4
#     Node 11, Type 1, BuildingBlock: KOZSID_clean_sbu_0, # of connection points: 4
#     Node 12, Type 1, BuildingBlock: KOZSID_clean_sbu_0, # of connection points: 4
#     Node 13, Type 1, BuildingBlock: KOZSID_clean_sbu_0, # of connection points: 4
#     Edge 14, Type (0, 1), BuildingBlock: ZUJKAS_clean_linker_0, # of connection points: 2
#     Edge 15, Type (0, 1), BuildingBlock: ZUJKAS_clean_linker_0, # of connection points: 2
#     Edge 16, Type (0, 1), BuildingBlock: ZUJKAS_clean_linker_0, # of connection points: 2
#     Edge 17, Type (0, 1), BuildingBlock: ZUJKAS_clean_linker_0, # of connection points: 2
#     Edge 18, Type (0, 1), BuildingBlock: ZUJKAS_clean_linker_0, # of connection points: 2
#     Edge 19, Type (0, 1), BuildingBlock: ZUJKAS_clean_linker_0, # of connection points: 2
#     Edge 20, Type (0, 1), BuildingBlock: ZUJKAS_clean_linker_0, # of connection points: 2
#     Edge 21, Type (0, 1), BuildingBlock: ZUJKAS_clean_linker_0, # of connection points: 2
#     Edge 22, Type (0, 1), BuildingBlock: ZUJKAS_clean_linker_0, # of connection points: 2
#     Edge 23, Type (0, 1), BuildingBlock: ZUJKAS_clean_linker_0, # of connection points: 2
#     Edge 24, Type (0, 1), BuildingBlock: ZUJKAS_clean_linker_0, # of connection points: 2
#     Edge 25, Type (0, 1), BuildingBlock: ZUJKAS_clean_linker_0, # of connection points: 2
#     Edge 26, Type (0, 1), BuildingBlock: ZUJKAS_clean_linker_0, # of connection points: 2
#     Edge 27, Type (0, 1), BuildingBlock: ZUJKAS_clean_linker_0, # of connection points: 2
#     Edge 28, Type (0, 1), BuildingBlock: ZUJKAS_clean_linker_0, # of connection points: 2
#     Edge 29, Type (0, 1), BuildingBlock: ZUJKAS_clean_linker_0, # of connection points: 2
#     Edge 30, Type (0, 1), BuildingBlock: ZUJKAS_clean_linker_0, # of connection points: 2
#     Edge 31, Type (0, 1), BuildingBlock: ZUJKAS_clean_linker_0, # of connection points: 2
#     Edge 32, Type (0, 1), BuildingBlock: ZUJKAS_clean_linker_0, # of connection points: 2
#     Edge 33, Type (0, 1), BuildingBlock: ZUJKAS_clean_linker_0, # of connection points: 2
#     Edge 34, Type (0, 1), BuildingBlock: ZUJKAS_clean_linker_0, # of connection points: 2
#     Edge 35, Type (0, 1), BuildingBlock: ZUJKAS_clean_linker_0, # of connection points: 2
#     Edge 36, Type (0, 1), BuildingBlock: ZUJKAS_clean_linker_0, # of connection points: 2
#     Edge 37, Type (0, 1), BuildingBlock: ZUJKAS_clean_linker_0, # of connection points: 2
# Relax obj value: 0.010
# Max RMSD: 0.132
# Mean RMSD: 0.060
data_MOF--net-pto--node1-KOZSID_clean_sbu_0--node2-BETDIP_clean_linker_0--edge1-ZUJKAS_clean_linker_0
_symmetry_space_group_name_H-M    P1
_symmetry_Int_Tables_number       1
_symmetry_cell_setting            triclinic
loop_
_symmetry_equiv_pos_as_xyz
'x, y, z'
_cell_length_a     47.061928
_cell_length_b     65.43783
_cell_length_c     57.388483
_cell_angle_alpha  96.210251
_cell_angle_beta   103.25303
_cell_angle_gamma 106.3181
loop_
_atom_site_label
_atom_site_type_symbol
_atom_site_fract_x
_atom_site_fract_y
_atom_site_fract_z
_atom_type_partial_charge
H0 H 0.19002 0.30337 0.34523 0.0
H1 H 0.24155 0.27738 0.30417 0.0
H2 H 0.23678 0.34169 0.30079 0.0
H3 H 0.2053 0.24576 0.30297 0.0
C4 C 0.20251 0.24759 0.32127 0.0
C5 C 0.20416 0.3052 0.33263 0.0
C6 C 0.21295 0.32485 0.32438 0.0
C7 C 0.21347 0.28778 0.32475 0.0
C8 C 0.23272 0.29032 0.30909 0.0
C9 C 0.2414 0.30973 0.30028 0.0
C10 C 0.23119 0.32687 0.30798 0.0
N11 N 0.20374 0.2681 0.33333 0.0
H12 H 0.21742 0.77797 0.65884 0.0
H13 H 0.2961 0.82848 0.70599 0.0
H14 H 0.27075 0.76498 0.72368 0.0
H15 H 0.27438 0.85035 0.68796 0.0
C16 C 0.26062 0.84197 0.66977 0.0
C17 C 0.23672 0.78335 0.67504 0.0
C18 C 0.24199 0.76884 0.69053 0.0
C19 C 0.25588 0.80492 0.68043 0.0
C20 C 0.28092 0.81196 0.70155 0.0
C21 C 0.28621 0.79768 0.71741 0.0
C22 C 0.26686 0.7761 0.71153 0.0
N23 N 0.24903 0.81896 0.66426 0.0
H24 H 0.84428 0.80581 0.32178 0.0
H25 H 0.86796 0.8284 0.39908 0.0
H26 H 0.81416 0.85718 0.34987 0.0
H27 H 0.90674 0.81405 0.39929 0.0
C28 C 0.89683 0.79997 0.38472 0.0
C29 C 0.8436 0.8168 0.33705 0.0
C30 C 0.82723 0.83157 0.33301 0.0
C31 C 0.85884 0.8158 0.36069 0.0
C32 C 0.85735 0.82961 0.38067 0.0
C33 C 0.84091 0.84445 0.37692 0.0
C34 C 0.82615 0.84539 0.35301 0.0
N35 N 0.87416 0.8 0.36358 0.0
H36 H 0.68927 0.25912 0.83305 0.0
H37 H 0.72591 0.32866 0.85088 0.0
H38 H 0.75389 0.29373 0.79745 0.0
H39 H 0.6816 0.32549 0.86051 0.0
C40 C 0.67772 0.31115 0.86879 0.0
C41 C 0.70404 0.2742 0.83044 0.0
C42 C 0.72152 0.27401 0.81362 0.0
C43 C 0.70472 0.29382 0.84343 0.0
C44 C 0.72397 0.31344 0.84015 0.0
C45 C 0.74177 0.31353 0.82358 0.0
C46 C 0.7403 0.29375 0.81035 0.0
N47 N 0.68632 0.29325 0.86001 0.0
H48 H 0.80227 0.8029 0.81471 0.0
H49 H 0.82774 0.82729 0.75315 0.0
H50 H 0.77277 0.85488 0.78864 0.0
H51 H 0.83866 0.79718 0.74601 0.0
C52 C 0.84175 0.79008 0.76225 0.0
C53 C 0.80172 0.81409 0.80212 0.0
C54 C 0.78569 0.82907 0.80406 0.0
C55 C 0.81643 0.81289 0.78361 0.0
C56 C 0.81589 0.8274 0.7672 0.0
C57 C 0.79969 0.84229 0.76881 0.0
C58 C 0.7846 0.84298 0.78715 0.0
N59 N 0.83125 0.7968 0.78221 0.0
H60 H 0.72039 0.28453 0.39898 0.0
H61 H 0.80924 0.32236 0.4463 0.0
H62 H 0.76496 0.34855 0.38837 0.0
H63 H 0.81354 0.28985 0.45135 0.0
C64 C 0.79059 0.27946 0.4502 0.0
C65 C 0.73968 0.29938 0.40424 0.0
C66 C 0.73931 0.31647 0.39143 0.0
C67 C 0.76497 0.3011 0.42367 0.0
C68 C 0.78995 0.32045 0.43085 0.0
C69 C 0.78982 0.33776 0.41838 0.0
C70 C 0.76449 0.33559 0.3987 0.0
N71 N 0.76432 0.28308 0.43558 0.0
H72 H 0.13716 0.29153 0.71396 0.0
H73 H 0.19947 0.27048 0.7658 0.0
H74 H 0.18168 0.32973 0.78585 0.0
H75 H 0.2002 0.249 0.73486 0.0
C76 C 0.17931 0.24581 0.72036 0.0
C77 C 0.1526 0.29404 0.73197 0.0
C78 C 0.15787 0.31264 0.74915 0.0
C79 C 0.16773 0.27883 0.73756 0.0
C80 C 0.18788 0.28211 0.76093 0.0
C81 C 0.19338 0.30059 0.77838 0.0
C82 C 0.17823 0.31573 0.7723 0.0
N83 N 0.16189 0.26045 0.7193 0.0
H84 H 0.30632 0.83933 0.25702 0.0
H85 H 0.29472 0.77109 0.24313 0.0
H86 H 0.24893 0.79559 0.2908 0.0
H87 H 0.31052 0.77814 0.21056 0.0
C88 C 0.32529 0.79485 0.21456 0.0
C89 C 0.29595 0.82306 0.25976 0.0
C90 C 0.27682 0.8196 0.27543 0.0
C91 C 0.30221 0.80574 0.2477 0.0
C92 C 0.28959 0.78463 0.25176 0.0
C93 C 0.27013 0.78087 0.26718 0.0
C94 C 0.26386 0.79843 0.27884 0.0
N95 N 0.32186 0.81036 0.23215 0.0
C96 C 0.12374 0.59747 0.37927 0.0
C97 C 0.15061 0.61146 0.39547 0.0
C98 C 0.14898 0.60809 0.41823 0.0
C99 C 0.12126 0.59242 0.41469 0.0
N100 N 0.10519 0.58534 0.39099 0.0
Co101 Co 0.06278 0.56385 0.37785 0.0
N102 N 0.06041 0.55898 0.41138 0.0
C103 C 0.08224 0.56841 0.43263 0.0
C104 C 0.07472 0.56093 0.45254 0.0
C105 C 0.04663 0.54546 0.44342 0.0
C106 C 0.03869 0.54445 0.4184 0.0
N107 N 0.02001 0.54295 0.36475 0.0
C108 C 0.00164 0.53056 0.37637 0.0
C109 C 0.97367 0.51794 0.36035 0.0
C110 C 0.97451 0.52239 0.33781 0.0
C111 C 0.00279 0.53737 0.34128 0.0
N112 N 0.06558 0.56801 0.34423 0.0
C113 C 0.04428 0.55779 0.32293 0.0
C114 C 0.05303 0.56353 0.30276 0.0
C115 C 0.08157 0.57845 0.31168 0.0
C116 C 0.08846 0.58107 0.3369 0.0
N117 N 0.08025 0.53972 0.37495 0.0
C118 C 0.10388 0.5048 0.37141 0.0
C119 C 0.07851 0.50531 0.35351 0.0
C120 C 0.06723 0.52279 0.35559 0.0
C121 C 0.11737 0.52213 0.39104 0.0
C122 C 0.10523 0.53926 0.39248 0.0
N123 N 0.04523 0.58803 0.38075 0.0
C124 C 0.01321 0.6084 0.36245 0.0
C125 C 0.02107 0.62281 0.38445 0.0
C126 C 0.04117 0.61942 0.4046 0.0
C127 C 0.05293 0.60215 0.40235 0.0
C128 C 0.02532 0.59127 0.36105 0.0
H129 H 0.06824 0.60063 0.41837 0.0
H130 H 0.01835 0.58097 0.34374 0.0
H131 H 0.04791 0.52221 0.3413 0.0
H132 H 0.1163 0.55188 0.40803 0.0
C133 C 0.1098 0.58393 0.4332 0.0
C134 C 0.11633 0.5969 0.35304 0.0
C135 C 0.01066 0.52902 0.40203 0.0
C136 C 0.01532 0.54423 0.32257 0.0
H137 H 0.16931 0.62313 0.39135 0.0
H138 H 0.16584 0.61627 0.43536 0.0
H139 H 0.08828 0.56585 0.47136 0.0
H140 H 0.03363 0.53579 0.45391 0.0
H141 H 0.95498 0.50612 0.36429 0.0
H142 H 0.95716 0.51481 0.32075 0.0
H143 H 0.0399 0.55797 0.28386 0.0
H144 H 0.09549 0.58683 0.30088 0.0
H145 H 0.06758 0.4924 0.33776 0.0
H146 H 0.13693 0.52235 0.40547 0.0
H147 H 0.99813 0.61045 0.34616 0.0
H148 H 0.04769 0.62993 0.42217 0.0
C149 C 0.04296 0.57456 0.74784 0.0
C150 C 0.07 0.58745 0.76482 0.0
C151 C 0.06735 0.5831 0.78706 0.0
C152 C 0.03895 0.56797 0.78248 0.0
N153 N 0.02334 0.56218 0.75858 0.0
Co154 Co 0.98063 0.54146 0.74397 0.0
N155 N 0.97635 0.53578 0.77687 0.0
C156 C 0.99718 0.54487 0.7987 0.0
C157 C 0.98806 0.53719 0.81799 0.0
C158 C 0.95992 0.52202 0.80787 0.0
C159 C 0.95357 0.52133 0.78291 0.0
N160 N 0.93788 0.5208 0.72938 0.0
C161 C 0.91869 0.50794 0.74006 0.0
C162 C 0.89136 0.49539 0.72323 0.0
C163 C 0.89347 0.5003 0.70107 0.0
C164 C 0.92185 0.51547 0.70559 0.0
N165 N 0.98496 0.547 0.71103 0.0
C166 C 0.96401 0.53795 0.68925 0.0
C167 C 0.97348 0.54504 0.66984 0.0
C168 C 0.00207 0.55967 0.6798 0.0
C169 C 0.00833 0.56071 0.70483 0.0
N170 N 0.99759 0.51707 0.74061 0.0
C171 C 0.02098 0.48205 0.73632 0.0
C172 C 0.99821 0.48422 0.71723 0.0
C173 C 0.98696 0.50172 0.71973 0.0
C174 C 0.03187 0.49774 0.75757 0.0
C175 C 0.01996 0.51495 0.75932 0.0
N176 N 0.9637 0.56592 0.7473 0.0
C177 C 0.93158 0.58647 0.72966 0.0
C178 C 0.9423 0.60199 0.75103 0.0
C179 C 0.96342 0.5989 0.77068 0.0
C180 C 0.97369 0.58092 0.76846 0.0
C181 C 0.94242 0.56871 0.72823 0.0
H182 H 0.99001 0.57972 0.784 0.0
H183 H 0.9334 0.55757 0.71139 0.0
H184 H 0.96963 0.50243 0.70453 0.0
H185 H 0.02908 0.52623 0.77605 0.0
C186 C 0.02585 0.55958 0.80032 0.0
C187 C 0.03637 0.57546 0.72192 0.0
C188 C 0.92623 0.50604 0.76564 0.0
C189 C 0.93507 0.52364 0.68771 0.0
H190 H 0.08941 0.59914 0.7616 0.0
H191 H 0.08387 0.59048 0.80456 0.0
H192 H 0.00074 0.54165 0.83705 0.0
H193 H 0.94591 0.51222 0.81766 0.0
H194 H 0.87222 0.48343 0.72649 0.0
H195 H 0.87678 0.49309 0.68362 0.0
H196 H 0.96085 0.54043 0.65077 0.0
H197 H 0.01653 0.5688 0.66983 0.0
H198 H 0.98927 0.47261 0.70028 0.0
H199 H 0.0492 0.49661 0.77303 0.0
H200 H 0.91477 0.58793 0.71405 0.0
H201 H 0.97263 0.61057 0.7876 0.0
C202 C 0.21335 0.00495 0.51598 0.0
C203 C 0.24212 0.00731 0.53117 0.0
C204 C 0.26199 0.02558 0.52761 0.0
C205 C 0.24429 0.03333 0.51059 0.0
N206 N 0.21419 0.02127 0.50324 0.0
Co207 Co 0.18053 0.02629 0.47822 0.0
N208 N 0.2101 0.05268 0.47225 0.0
C209 C 0.2406 0.06128 0.4834 0.0
C210 C 0.25474 0.07963 0.47576 0.0
C211 C 0.23191 0.08312 0.45884 0.0
C212 C 0.20503 0.06662 0.45718 0.0
N213 N 0.14699 0.0311 0.45287 0.0
C214 C 0.14806 0.04692 0.43936 0.0
C215 C 0.11944 0.0443 0.42381 0.0
C216 C 0.0995 0.0262 0.42767 0.0
C217 C 0.11701 0.01884 0.44527 0.0
N218 N 0.15091 0.0001 0.48452 0.0
C219 C 0.12022 0.992 0.47404 0.0
C220 C 0.10606 0.9737 0.48178 0.0
C221 C 0.12908 0.96975 0.49808 0.0
C222 C 0.15605 0.98598 0.49934 0.0
N223 N 0.1721 0.0449 0.50381 0.0
C224 C 0.16062 0.07267 0.53912 0.0
C225 C 0.13638 0.05724 0.52143 0.0
C226 C 0.14259 0.04359 0.50414 0.0
C227 C 0.19063 0.07376 0.53898 0.0
C228 C 0.19578 0.05986 0.52139 0.0
N229 N 0.18898 0.00772 0.45267 0.0
C230 C 0.17158 0.97718 0.41938 0.0
C231 C 0.20174 0.98001 0.41818 0.0
C232 C 0.22524 0.99731 0.4341 0.0
C233 C 0.21843 0.01081 0.45103 0.0
C234 C 0.16576 0.99114 0.43657 0.0
H235 H 0.23746 0.02351 0.46275 0.0
H236 H 0.14235 0.98802 0.43672 0.0
H237 H 0.12314 0.0322 0.49116 0.0
H238 H 0.21918 0.06175 0.52228 0.0
C239 C 0.25537 0.05169 0.50092 0.0
C240 C 0.18612 0.98674 0.51407 0.0
C241 C 0.1753 0.06506 0.44118 0.0
C242 C 0.10572 0.00109 0.45581 0.0
H243 H 0.24819 0.99678 0.5434 0.0
H244 H 0.28646 0.03228 0.53619 0.0
H245 H 0.27876 0.08935 0.48184 0.0
H246 H 0.23469 0.09638 0.44892 0.0
H247 H 0.11352 0.05459 0.41122 0.0
H248 H 0.07505 0.01942 0.41898 0.0
H249 H 0.08199 0.96406 0.47581 0.0
H250 H 0.12641 0.95622 0.50758 0.0
H251 H 0.11269 0.05559 0.52096 0.0
H252 H 0.21024 0.08565 0.55207 0.0
H253 H 0.15255 0.96391 0.40754 0.0
H254 H 0.24893 0.00049 0.43358 0.0
C255 C 0.54251 0.86208 0.0553 0.0
C256 C 0.5398 0.88165 0.0648 0.0
C257 C 0.56049 0.89752 0.05815 0.0
C258 C 0.5745 0.88678 0.04493 0.0
N259 N 0.56389 0.86497 0.0426 0.0
Co260 Co 0.57771 0.84313 0.02473 0.0
N261 N 0.60952 0.86656 0.0163 0.0
C262 C 0.61619 0.88822 0.02299 0.0
C263 C 0.63909 0.90024 0.01436 0.0
C264 C 0.64746 0.88539 0.00122 0.0
C265 C 0.629 0.86511 0.00255 0.0
N266 N 0.59109 0.82124 0.00645 0.0
C267 C 0.61204 0.82413 0.99338 0.0
C268 C 0.61347 0.8045 0.98265 0.0
C269 C 0.59259 0.78863 0.98908 0.0
C270 C 0.57958 0.7994 0.00321 0.0
N271 N 0.54632 0.81967 0.03358 0.0
C272 C 0.54068 0.79802 0.02784 0.0
C273 C 0.51873 0.78599 0.0373 0.0
C274 C 0.50994 0.80079 0.05006 0.0
C275 C 0.527 0.82111 0.0475 0.0
N276 N 0.54703 0.84248 0.99422 0.0
C277 C 0.50565 0.84117 0.94956 0.0
C278 C 0.50657 0.82218 0.95822 0.0
C279 C 0.52725 0.82319 0.98035 0.0
C280 C 0.52545 0.86089 0.96381 0.0
C281 C 0.54564 0.86118 0.98599 0.0
N282 N 0.60848 0.84377 0.05518 0.0
C283 C 0.63415 0.82499 0.0827 0.0
C284 C 0.65123 0.84441 0.09884 0.0
C285 C 0.64671 0.86355 0.09267 0.0
C286 C 0.62544 0.86287 0.07091 0.0
C287 C 0.61312 0.82504 0.06121 0.0
H288 H 0.62308 0.878 0.06728 0.0
H289 H 0.60073 0.80967 0.04988 0.0
H290 H 0.52702 0.8081 0.98567 0.0
H291 H 0.56004 0.87672 0.99605 0.0
C292 C 0.599 0.89674 0.03587 0.0
C293 C 0.5247 0.84126 0.05926 0.0
C294 C 0.63025 0.84501 0.98987 0.0
C295 C 0.55646 0.78945 0.0136 0.0
H296 H 0.52469 0.8842 0.07569 0.0
H297 H 0.56522 0.91485 0.06282 0.0
H298 H 0.64809 0.91771 0.01683 0.0
H299 H 0.66481 0.88904 0.9914 0.0
H300 H 0.62783 0.8019 0.9711 0.0
H301 H 0.58726 0.77129 0.98385 0.0
H302 H 0.51038 0.76853 0.03539 0.0
H303 H 0.49313 0.79701 0.06034 0.0
H304 H 0.49188 0.80647 0.94769 0.0
H305 H 0.52525 0.87606 0.95797 0.0
H306 H 0.63648 0.80967 0.08683 0.0
H307 H 0.65966 0.87905 0.10447 0.0
C308 C 0.8151 0.03406 0.64116 0.0
C309 C 0.84388 0.0355 0.65566 0.0
C310 C 0.86431 0.05349 0.65214 0.0
C311 C 0.84704 0.06188 0.63559 0.0
N312 N 0.81667 0.05052 0.62852 0.0
Co313 Co 0.78389 0.05583 0.6029 0.0
N314 N 0.81441 0.08157 0.59667 0.0
C315 C 0.84476 0.08993 0.60832 0.0
C316 C 0.85954 0.10831 0.60107 0.0
C317 C 0.83727 0.11211 0.58391 0.0
C318 C 0.81009 0.09565 0.58156 0.0
N319 N 0.75128 0.0607 0.57676 0.0
C320 C 0.75315 0.07637 0.56302 0.0
C321 C 0.72505 0.07359 0.54658 0.0
C322 C 0.70454 0.05574 0.55035 0.0
C323 C 0.72125 0.04858 0.56867 0.0
N324 N 0.75321 0.03052 0.6096 0.0
C325 C 0.72244 0.0232 0.59931 0.0
C326 C 0.70729 0.0058 0.60791 0.0
C327 C 0.72972 0.00157 0.62452 0.0
C328 C 0.75743 0.0166 0.6249 0.0
N329 N 0.77575 0.07538 0.62776 0.0
C330 C 0.76419 0.10347 0.66268 0.0
C331 C 0.74011 0.08895 0.64406 0.0
C332 C 0.74634 0.0752 0.62696 0.0
C333 C 0.79416 0.1036 0.6636 0.0
C334 C 0.79937 0.08954 0.64613 0.0
N335 N 0.79202 0.03621 0.57817 0.0
C336 C 0.77422 0.00368 0.54749 0.0
C337 C 0.80421 0.006 0.54613 0.0
C338 C 0.82784 0.02413 0.56053 0.0
C339 C 0.82129 0.03891 0.57626 0.0
C340 C 0.76868 0.0189 0.56335 0.0
H341 H 0.84037 0.05223 0.58691 0.0
H342 H 0.74536 0.01606 0.56362 0.0
H343 H 0.72696 0.0647 0.61316 0.0
H344 H 0.82272 0.0905 0.64787 0.0
C345 C 0.85877 0.08008 0.62593 0.0
C346 C 0.78719 0.01637 0.63928 0.0
C347 C 0.78063 0.09451 0.56536 0.0
C348 C 0.7089 0.03173 0.58005 0.0
H349 H 0.84975 0.02449 0.66726 0.0
H350 H 0.88894 0.05947 0.66026 0.0
H351 H 0.88358 0.11793 0.60766 0.0
H352 H 0.84065 0.12566 0.57445 0.0
H353 H 0.71981 0.08368 0.53352 0.0
H354 H 0.68018 0.04911 0.54126 0.0
H355 H 0.68295 0.99684 0.60224 0.0
H356 H 0.72617 0.98858 0.63478 0.0
H357 H 0.7165 0.08843 0.64235 0.0
H358 H 0.8136 0.11439 0.67786 0.0
H359 H 0.75507 0.98986 0.53685 0.0
H360 H 0.85139 0.02696 0.55976 0.0
C361 C 0.43687 0.34229 0.11953 0.0
C362 C 0.43853 0.36293 0.12992 0.0
C363 C 0.46067 0.37719 0.12276 0.0
C364 C 0.47141 0.36456 0.10862 0.0
N365 N 0.45725 0.34304 0.10607 0.0
Co366 Co 0.46704 0.31888 0.08824 0.0
N367 N 0.5018 0.3399 0.07994 0.0
C368 C 0.51168 0.36174 0.08647 0.0
C369 C 0.53578 0.37183 0.07781 0.0
C370 C 0.54149 0.35548 0.06474 0.0
C371 C 0.52037 0.33631 0.06616 0.0
N372 N 0.47662 0.29471 0.07022 0.0
C373 C 0.49754 0.29547 0.05729 0.0
C374 C 0.496 0.27489 0.04686 0.0
C375 C 0.47313 0.26059 0.05326 0.0
C376 C 0.46201 0.27319 0.06711 0.0
N377 N 0.43253 0.29783 0.09676 0.0
C378 C 0.42277 0.27596 0.09035 0.0
C379 C 0.39863 0.26587 0.09894 0.0
C380 C 0.39292 0.28222 0.11199 0.0
C381 C 0.41419 0.30141 0.11074 0.0
N382 N 0.4382 0.32021 0.05759 0.0
C383 C 0.39805 0.3218 0.01358 0.0
C384 C 0.3964 0.3022 0.02151 0.0
C385 C 0.41659 0.30177 0.0433 0.0
C386 C 0.42003 0.34064 0.02805 0.0
C387 C 0.43959 0.33951 0.0499 0.0
N388 N 0.49578 0.31753 0.1189 0.0
C389 C 0.51447 0.29669 0.14764 0.0
C390 C 0.53407 0.31557 0.1637 0.0
C391 C 0.53458 0.33545 0.15672 0.0
C392 C 0.51548 0.33605 0.13442 0.0
C393 C 0.49573 0.29803 0.12554 0.0
H394 H 0.5168 0.35169 0.1303 0.0
H395 H 0.48122 0.28305 0.11424 0.0
H396 H 0.41438 0.28625 0.04801 0.0
H397 H 0.45569 0.35444 0.06017 0.0
C398 C 0.49662 0.37236 0.09946 0.0
C399 C 0.41684 0.32248 0.12401 0.0
C400 C 0.51824 0.31522 0.05343 0.0
C401 C 0.43723 0.26533 0.07673 0.0
H402 H 0.42578 0.36732 0.14201 0.0
H403 H 0.46882 0.39467 0.12804 0.0
H404 H 0.54732 0.38905 0.08022 0.0
H405 H 0.55886 0.35744 0.05491 0.0
H406 H 0.5096 0.27065 0.03542 0.0
H407 H 0.46513 0.24312 0.04802 0.0
H408 H 0.3869 0.24866 0.09635 0.0
H409 H 0.37542 0.28021 0.1217 0.0
H410 H 0.37999 0.28713 0.01071 0.0
H411 H 0.42197 0.35624 0.02268 0.0
H412 H 0.51364 0.28087 0.15198 0.0
H413 H 0.54919 0.35057 0.16861 0.0
H414 H 0.2475 0.36745 0.33936 0.0
H415 H 0.23025 0.3981 0.35082 0.0
H416 H 0.13823 0.35456 0.33867 0.0
H417 H 0.1554 0.32382 0.32739 0.0
H418 H 0.187 0.41156 0.32219 0.0
H419 H 0.15204 0.39066 0.40478 0.0
H420 H 0.17516 0.37763 0.39142 0.0
H421 H 0.13414 0.36934 0.37857 0.0
C422 C 0.22361 0.36442 0.33925 0.0
C423 C 0.20278 0.34325 0.3325 0.0
C424 C 0.21383 0.38191 0.34588 0.0
C425 C 0.18307 0.37858 0.34593 0.0
C426 C 0.16224 0.35744 0.33936 0.0
H427 H 0.07146 0.46162 0.35811 0.0
H428 H 0.09174 0.43133 0.35284 0.0
C429 C 0.17205 0.33991 0.33285 0.0
C430 C 0.17242 0.39737 0.35135 0.0
H431 H 0.13658 0.41901 0.38825 0.0
C432 C 0.17623 0.41329 0.33677 0.0
C433 C 0.15832 0.39955 0.37036 0.0
C434 C 0.15491 0.3835 0.38734 0.0
C435 C 0.16572 0.43112 0.34034 0.0
C436 C 0.15133 0.43315 0.35915 0.0
C437 C 0.14763 0.41733 0.37383 0.0
C438 C 0.13941 0.45144 0.36346 0.0
C439 C 0.16938 0.44736 0.32358 0.0
C440 C 0.1596 0.47269 0.37155 0.0
C441 C 0.14811 0.49002 0.37452 0.0
C442 C 0.11622 0.48636 0.3694 0.0
C443 C 0.09612 0.46497 0.36183 0.0
C444 C 0.10764 0.44766 0.35898 0.0
H445 H 0.17523 0.44116 0.3071 0.0
H446 H 0.14796 0.45166 0.31778 0.0
H447 H 0.18819 0.46238 0.33344 0.0
H448 H 0.18424 0.47586 0.37535 0.0
H449 H 0.16415 0.50631 0.38025 0.0
H450 H 0.17935 0.75623 0.6797 0.0
H451 H 0.14464 0.72031 0.6792 0.0
H452 H 0.2213 0.69526 0.69098 0.0
H453 H 0.25618 0.73122 0.69186 0.0
H454 H 0.13021 0.67849 0.65256 0.0
H455 H 0.18873 0.68457 0.7501 0.0
H456 H 0.19548 0.70737 0.73472 0.0
H457 H 0.2136 0.68699 0.73036 0.0
C458 C 0.18867 0.74295 0.68166 0.0
C459 C 0.22046 0.74652 0.6861 0.0
C460 C 0.16886 0.72247 0.68145 0.0
C461 C 0.18054 0.70528 0.6856 0.0
C462 C 0.21196 0.70846 0.68833 0.0
H463 H 0.09376 0.57872 0.71734 0.0
H464 H 0.12891 0.60885 0.70553 0.0
C465 C 0.23181 0.72895 0.68875 0.0
C466 C 0.16023 0.68456 0.6888 0.0
H467 H 0.14885 0.65218 0.73083 0.0
C468 C 0.13432 0.67267 0.66962 0.0
C469 C 0.16561 0.67708 0.71115 0.0
C470 C 0.19218 0.68973 0.73286 0.0
C471 C 0.11362 0.65343 0.67221 0.0
C472 C 0.11889 0.64612 0.69462 0.0
C473 C 0.14504 0.6578 0.71362 0.0
C474 C 0.09679 0.62705 0.69936 0.0
C475 C 0.08633 0.64105 0.65097 0.0
C476 C 0.06721 0.62738 0.69977 0.0
C477 C 0.04736 0.61034 0.70663 0.0
C478 C 0.05688 0.59281 0.71325 0.0
C479 C 0.08615 0.59219 0.71232 0.0
C480 C 0.10608 0.60929 0.70557 0.0
H481 H 0.0899 0.64547 0.63345 0.0
H482 H 0.08166 0.62331 0.64971 0.0
H483 H 0.06566 0.64494 0.65359 0.0
H484 H 0.05985 0.64114 0.69553 0.0
H485 H 0.02483 0.61105 0.70734 0.0
H486 H 0.94752 0.79848 0.41766 0.0
H487 H 0.97024 0.76898 0.41871 0.0
H488 H 0.89719 0.73092 0.35579 0.0
H489 H 0.87497 0.76042 0.35427 0.0
H490 H 0.94744 0.72724 0.42399 0.0
H491 H 0.97222 0.7288 0.33424 0.0
H492 H 0.96157 0.75007 0.34918 0.0
H493 H 0.93251 0.7253 0.33232 0.0
C494 C 0.93645 0.78382 0.40403 0.0
C495 C 0.90978 0.78185 0.38573 0.0
C496 C 0.94939 0.76701 0.40465 0.0
C497 C 0.93579 0.74794 0.387 0.0
C498 C 0.90859 0.74572 0.36915 0.0
H499 H 0.96313 0.62342 0.36243 0.0
H500 H 0.94342 0.65421 0.36405 0.0
C501 C 0.89582 0.76257 0.3684 0.0
C502 C 0.94971 0.73022 0.38738 0.0
H503 H 0.97595 0.69812 0.35231 0.0
C504 C 0.95394 0.721 0.40841 0.0
C505 C 0.95833 0.72217 0.36706 0.0
C506 C 0.95624 0.73224 0.34453 0.0
C507 C 0.96574 0.70355 0.40936 0.0
C508 C 0.9735 0.69519 0.38882 0.0
C509 C 0.9697 0.70453 0.36794 0.0
C510 C 0.98539 0.67656 0.38851 0.0
C511 C 0.96926 0.69379 0.43208 0.0
C512 C 0.01556 0.67906 0.40166 0.0
C513 C 0.0271 0.6616 0.40052 0.0
C514 C 0.00859 0.64128 0.38623 0.0
C515 C 0.9782 0.63888 0.37329 0.0
C516 C 0.9668 0.65639 0.37432 0.0
H517 H 0.95858 0.70034 0.44526 0.0
H518 H 0.95866 0.6759 0.42731 0.0
H519 H 0.99409 0.69732 0.44109 0.0
H520 H 0.03032 0.69463 0.41249 0.0
H521 H 0.05073 0.66416 0.4104 0.0
H522 H 0.72789 0.35105 0.81894 0.0
H523 H 0.76004 0.38458 0.8108 0.0
H524 H 0.83265 0.35632 0.81161 0.0
H525 H 0.80077 0.32282 0.81986 0.0
H526 H 0.81952 0.41243 0.83742 0.0
H527 H 0.81782 0.37543 0.74511 0.0
H528 H 0.79146 0.36237 0.76145 0.0
H529 H 0.83035 0.36162 0.76891 0.0
C530 C 0.75082 0.35206 0.81762 0.0
C531 C 0.76171 0.33423 0.81982 0.0
C532 C 0.76909 0.37118 0.81289 0.0
C533 C 0.79846 0.37275 0.81019 0.0
C534 C 0.80976 0.35523 0.81309 0.0
H535 H 0.9413 0.47016 0.77474 0.0
H536 H 0.91055 0.43825 0.78702 0.0
C537 C 0.79152 0.33612 0.81778 0.0
C538 C 0.81722 0.39264 0.8041 0.0
H539 H 0.85129 0.41129 0.76073 0.0
C540 C 0.8264 0.41225 0.82062 0.0
C541 C 0.82606 0.39228 0.78215 0.0
C542 C 0.81572 0.37186 0.76325 0.0
C543 C 0.84479 0.43149 0.81598 0.0
C544 C 0.85375 0.43109 0.79408 0.0
C545 C 0.84445 0.4115 0.77754 0.0
C546 C 0.87277 0.45079 0.78786 0.0
C547 C 0.85504 0.45198 0.83475 0.0
C548 C 0.86161 0.46831 0.78422 0.0
C549 C 0.87913 0.48645 0.77724 0.0
C550 C 0.90785 0.48717 0.77366 0.0
C551 C 0.91913 0.46978 0.77744 0.0
C552 C 0.90164 0.45166 0.78441 0.0
H553 H 0.85264 0.44851 0.85286 0.0
H554 H 0.87938 0.46136 0.83669 0.0
H555 H 0.84059 0.46226 0.82884 0.0
H556 H 0.83915 0.46778 0.78636 0.0
H557 H 0.87017 0.49979 0.77434 0.0
H558 H 0.19954 0.20714 0.30242 0.0
H559 H 0.19074 0.17492 0.32136 0.0
H560 H 0.18346 0.21238 0.38507 0.0
H561 H 0.19199 0.24458 0.36618 0.0
H562 H 0.2272 0.17061 0.36569 0.0
H563 H 0.10641 0.15849 0.36832 0.0
H564 H 0.12415 0.17528 0.34927 0.0
H565 H 0.13236 0.18535 0.38128 0.0
C566 C 0.19582 0.20842 0.32039 0.0
C567 C 0.19636 0.22828 0.3328 0.0
C568 C 0.19081 0.19005 0.33116 0.0
C569 C 0.18604 0.19123 0.35445 0.0
C570 C 0.18649 0.21105 0.36688 0.0
H571 H 0.17104 0.10427 0.45742 0.0
H572 H 0.17214 0.13453 0.43532 0.0
C573 C 0.19156 0.22946 0.35613 0.0
C574 C 0.18216 0.17195 0.3662 0.0
H575 H 0.13251 0.13712 0.38999 0.0
C576 C 0.20643 0.16317 0.37086 0.0
C577 C 0.15505 0.16239 0.37295 0.0
C578 C 0.12786 0.1707 0.36754 0.0
C579 C 0.20458 0.14531 0.38257 0.0
C580 C 0.17751 0.13577 0.38938 0.0
C581 C 0.15318 0.14448 0.38466 0.0
C582 C 0.17445 0.11701 0.40194 0.0
C583 C 0.23191 0.13712 0.38814 0.0
C584 C 0.17463 0.09708 0.39023 0.0
C585 C 0.17395 0.07989 0.40279 0.0
C586 C 0.17292 0.08244 0.42711 0.0
C587 C 0.17173 0.1021 0.43859 0.0
C588 C 0.17237 0.11928 0.42603 0.0
H589 H 0.25317 0.14912 0.38671 0.0
H590 H 0.23613 0.13322 0.40673 0.0
H591 H 0.22719 0.12208 0.37494 0.0
H592 H 0.17581 0.09497 0.37153 0.0
H593 H 0.17493 0.06478 0.39376 0.0
H594 H 0.34577 0.82411 0.7255 0.0
H595 H 0.38681 0.835 0.76397 0.0
H596 H 0.32358 0.7992 0.80002 0.0
H597 H 0.28249 0.78867 0.76207 0.0
H598 H 0.38549 0.8564 0.81383 0.0
H599 H 0.39922 0.77458 0.80949 0.0
H600 H 0.38213 0.78392 0.7829 0.0
H601 H 0.36024 0.77506 0.80384 0.0
C602 C 0.34057 0.81879 0.7417 0.0
C603 C 0.311 0.80527 0.74067 0.0
C604 C 0.36401 0.82496 0.76359 0.0
C605 C 0.3582 0.81763 0.78463 0.0
C606 C 0.32855 0.80473 0.78383 0.0
H607 H 0.44546 0.81634 0.93143 0.0
H608 H 0.4116 0.81269 0.89091 0.0
C609 C 0.30518 0.79863 0.76209 0.0
C610 C 0.38301 0.82285 0.80751 0.0
H611 H 0.42281 0.79896 0.8473 0.0
C612 C 0.39406 0.84398 0.8211 0.0
C613 C 0.394 0.80655 0.81678 0.0
C614 C 0.38354 0.78377 0.80246 0.0
C615 C 0.41485 0.849 0.84439 0.0
C616 C 0.42506 0.83248 0.85399 0.0
C617 C 0.41478 0.81155 0.83995 0.0
C618 C 0.44525 0.83611 0.87899 0.0
C619 C 0.42468 0.87164 0.85893 0.0
C620 C 0.47535 0.8506 0.88576 0.0
C621 C 0.49477 0.85273 0.90896 0.0
C622 C 0.48448 0.84022 0.92564 0.0
C623 C 0.45416 0.826 0.91888 0.0
C624 C 0.43477 0.82396 0.89579 0.0
H625 H 0.40975 0.88108 0.85114 0.0
H626 H 0.4242 0.8712 0.87813 0.0
H627 H 0.44862 0.88029 0.85895 0.0
H628 H 0.48408 0.85981 0.87291 0.0
H629 H 0.51815 0.86361 0.91355 0.0
H630 H 0.88666 0.86716 0.41808 0.0
H631 H 0.88339 0.89288 0.45099 0.0
H632 H 0.78763 0.88107 0.41499 0.0
H633 H 0.79035 0.85482 0.38274 0.0
H634 H 0.8697 0.93028 0.44687 0.0
H635 H 0.78445 0.87647 0.48386 0.0
H636 H 0.80371 0.86613 0.4638 0.0
H637 H 0.77059 0.87421 0.45156 0.0
C638 C 0.86475 0.86971 0.41749 0.0
C639 C 0.83878 0.85899 0.39777 0.0
C640 C 0.86298 0.8845 0.43621 0.0
C641 C 0.83516 0.88868 0.43562 0.0
C642 C 0.80915 0.87777 0.41613 0.0
H643 H 0.76981 0.98353 0.5005 0.0
H644 H 0.77958 0.95503 0.47533 0.0
C645 C 0.81087 0.86298 0.39751 0.0
C646 C 0.8336 0.90547 0.45437 0.0
H647 H 0.79166 0.91467 0.49335 0.0
C648 C 0.853 0.92681 0.45735 0.0
C649 C 0.81183 0.90091 0.46806 0.0
C650 C 0.7917 0.87814 0.46686 0.0
C651 C 0.85023 0.94386 0.47283 0.0
C652 C 0.82757 0.93938 0.48563 0.0
C653 C 0.80882 0.918 0.48328 0.0
C654 C 0.8222 0.95681 0.5009 0.0
C655 C 0.87072 0.96667 0.4748 0.0
C656 C 0.84298 0.96713 0.52359 0.0
C657 C 0.83732 0.98326 0.53818 0.0
C658 C 0.81079 0.98937 0.53026 0.0
C659 C 0.79021 0.97904 0.50734 0.0
C660 C 0.79581 0.96284 0.49287 0.0
H661 H 0.88492 0.96774 0.46168 0.0
H662 H 0.85662 0.97766 0.47153 0.0
H663 H 0.88636 0.97252 0.49352 0.0
H664 H 0.86333 0.9625 0.53014 0.0
H665 H 0.85339 0.99059 0.55588 0.0
H666 H 0.65958 0.34295 0.88871 0.0
H667 H 0.63393 0.34247 0.92136 0.0
H668 H 0.63519 0.27736 0.92591 0.0
H669 H 0.66071 0.27768 0.89314 0.0
H670 H 0.57756 0.28369 0.92441 0.0
H671 H 0.67339 0.34572 0.99433 0.0
H672 H 0.66294 0.35409 0.96564 0.0
H673 H 0.67878 0.33213 0.96735 0.0
C674 C 0.65444 0.32857 0.89674 0.0
C675 C 0.66218 0.31041 0.88847 0.0
C676 C 0.63998 0.32836 0.91545 0.0
C677 C 0.63311 0.31 0.92627 0.0
C678 C 0.64051 0.29173 0.91787 0.0
H679 H 0.57127 0.30501 0.05852 0.0
H680 H 0.59952 0.30263 0.02768 0.0
C681 C 0.65508 0.29194 0.89917 0.0
C682 C 0.61744 0.30974 0.94589 0.0
H683 H 0.62467 0.33559 0.00292 0.0
C684 C 0.58791 0.29492 0.94164 0.0
C685 C 0.63119 0.32426 0.96844 0.0
C686 C 0.66344 0.33983 0.97439 0.0
C687 C 0.57134 0.29466 0.95912 0.0
C688 C 0.58459 0.30978 0.98126 0.0
C689 C 0.61449 0.32417 0.98581 0.0
C690 C 0.56759 0.31113 0.9998 0.0
C691 C 0.53985 0.27818 0.95381 0.0
C692 C 0.54064 0.31699 0.99438 0.0
C693 C 0.52466 0.31836 0.0119 0.0
C694 C 0.53549 0.31395 0.03506 0.0
C695 C 0.56261 0.30836 0.04065 0.0
C696 C 0.57865 0.30703 0.02313 0.0
H697 H 0.53635 0.26444 0.93913 0.0
H698 H 0.53625 0.27169 0.97038 0.0
H699 H 0.52209 0.28604 0.94776 0.0
H700 H 0.53208 0.32061 0.97663 0.0
H701 H 0.50383 0.32283 0.00742 0.0
H702 H 0.22415 0.82771 0.62257 0.0
H703 H 0.20997 0.85001 0.59308 0.0
H704 H 0.2629 0.90785 0.64643 0.0
H705 H 0.27741 0.88567 0.67593 0.0
H706 H 0.17864 0.88042 0.59708 0.0
H707 H 0.29506 0.91858 0.58666 0.0
H708 H 0.28578 0.8948 0.60029 0.0
H709 H 0.29349 0.92122 0.61778 0.0
C710 C 0.23289 0.84518 0.62798 0.0
C711 C 0.252 0.85502 0.65152 0.0
C712 C 0.22473 0.85787 0.61113 0.0
C713 C 0.23573 0.88056 0.61749 0.0
C714 C 0.25465 0.89038 0.64102 0.0
H715 H 0.1712 0.97894 0.55601 0.0
H716 H 0.18104 0.95117 0.57941 0.0
C717 C 0.26279 0.87771 0.65787 0.0
C718 C 0.22685 0.89404 0.59978 0.0
H719 H 0.25661 0.9345 0.57094 0.0
C720 C 0.19562 0.89213 0.59118 0.0
C721 C 0.24902 0.90904 0.59184 0.0
C722 C 0.28269 0.91093 0.59941 0.0
C723 C 0.18607 0.9054 0.57547 0.0
C724 C 0.20842 0.92116 0.56853 0.0
C725 C 0.23953 0.92254 0.57648 0.0
C726 C 0.20028 0.93681 0.55357 0.0
C727 C 0.15217 0.90239 0.5664 0.0
C728 C 0.20815 0.93809 0.53148 0.0
C729 C 0.20269 0.95397 0.51827 0.0
C730 C 0.18939 0.9688 0.52702 0.0
C731 C 0.18114 0.96741 0.54891 0.0
C732 C 0.18662 0.95154 0.56214 0.0
H733 H 0.1379 0.88598 0.56746 0.0
H734 H 0.14626 0.91444 0.57792 0.0
H735 H 0.14606 0.90486 0.54728 0.0
H736 H 0.2189 0.92699 0.52465 0.0
H737 H 0.20939 0.95499 0.50147 0.0
H738 H 0.7687 0.83288 0.31693 0.0
H739 H 0.74193 0.83512 0.27577 0.0
H740 H 0.82191 0.83459 0.25147 0.0
H741 H 0.84896 0.83239 0.29269 0.0
H742 H 0.78973 0.87006 0.24024 0.0
H743 H 0.71605 0.78367 0.21269 0.0
H744 H 0.72007 0.79743 0.24279 0.0
H745 H 0.75277 0.79232 0.23545 0.0
C746 C 0.78061 0.83331 0.30283 0.0
C747 C 0.81091 0.83248 0.30798 0.0
C748 C 0.76527 0.83448 0.27937 0.0
C749 C 0.78001 0.83495 0.26072 0.0
C750 C 0.81024 0.83419 0.26572 0.0
H751 H 0.69125 0.82093 0.10656 0.0
H752 H 0.72481 0.81949 0.14539 0.0
C753 C 0.82554 0.83282 0.28916 0.0
C754 C 0.76374 0.83645 0.23605 0.0
H755 H 0.70545 0.80744 0.18616 0.0
C756 C 0.77143 0.85638 0.22829 0.0
C757 C 0.74012 0.81849 0.2206 0.0
C758 C 0.73172 0.79667 0.2281 0.0
C759 C 0.75545 0.85896 0.20551 0.0
C760 C 0.73111 0.84116 0.19034 0.0
C761 C 0.72404 0.82107 0.1979 0.0
C762 C 0.71217 0.84307 0.16675 0.0
C763 C 0.76477 0.88066 0.19784 0.0
C764 C 0.69395 0.8568 0.16595 0.0
C765 C 0.67462 0.85758 0.14383 0.0
C766 C 0.67304 0.84452 0.12213 0.0
C767 C 0.69165 0.83099 0.12299 0.0
C768 C 0.71095 0.83022 0.14512 0.0
H769 H 0.78846 0.89071 0.2084 0.0
H770 H 0.76355 0.87865 0.17814 0.0
H771 H 0.74877 0.88959 0.20111 0.0
H772 H 0.69408 0.8665 0.18254 0.0
H773 H 0.66023 0.8679 0.14385 0.0
H774 H 0.71692 0.26497 0.76511 0.0
H775 H 0.71956 0.2322 0.74219 0.0
H776 H 0.72565 0.20336 0.80652 0.0
H777 H 0.72385 0.23647 0.82985 0.0
H778 H 0.7704 0.20064 0.78358 0.0
H779 H 0.65577 0.17248 0.71671 0.0
H780 H 0.67595 0.20039 0.71771 0.0
H781 H 0.66486 0.19217 0.74412 0.0
C782 C 0.71871 0.25162 0.77438 0.0
C783 C 0.72034 0.25333 0.79932 0.0
C784 C 0.71984 0.23281 0.76118 0.0
C785 C 0.72235 0.21523 0.77256 0.0
C786 C 0.72344 0.21669 0.79736 0.0
H787 H 0.71768 0.09514 0.68512 0.0
H788 H 0.70696 0.12059 0.71381 0.0
C789 C 0.72226 0.23555 0.81061 0.0
C790 C 0.72616 0.1961 0.75888 0.0
H791 H 0.69431 0.15852 0.7063 0.0
C792 C 0.75357 0.19121 0.76687 0.0
C793 C 0.70401 0.18363 0.73727 0.0
C794 C 0.67336 0.18727 0.72857 0.0
C795 C 0.7601 0.17487 0.75316 0.0
C796 C 0.73886 0.16341 0.73072 0.0
C797 C 0.71076 0.16754 0.72336 0.0
C798 C 0.74594 0.14778 0.71407 0.0
C799 C 0.7898 0.17017 0.76275 0.0
C800 C 0.77122 0.15471 0.70454 0.0
C801 C 0.77733 0.14027 0.6881 0.0
C802 C 0.75812 0.11863 0.68071 0.0
C803 C 0.73275 0.11175 0.69027 0.0
C804 C 0.72668 0.12622 0.70675 0.0
H805 H 0.79869 0.17536 0.78285 0.0
H806 H 0.78676 0.15264 0.75802 0.0
H807 H 0.80743 0.17927 0.75449 0.0
H808 H 0.78592 0.17143 0.70947 0.0
H809 H 0.79668 0.14621 0.68073 0.0
H810 H 0.24042 0.27855 0.26372 0.0
H811 H 0.27237 0.28205 0.23558 0.0
H812 H 0.31582 0.34986 0.26712 0.0
H813 H 0.28596 0.34609 0.29681 0.0
H814 H 0.2749 0.30425 0.20122 0.0
H815 H 0.39014 0.33257 0.26734 0.0
H816 H 0.35533 0.32262 0.27646 0.0
H817 H 0.36794 0.35014 0.27176 0.0
C818 C 0.25732 0.29411 0.26518 0.0
C819 C 0.26071 0.31197 0.28283 0.0
C820 C 0.27535 0.29614 0.24882 0.0
C821 C 0.29693 0.31613 0.24945 0.0
C822 C 0.29998 0.33411 0.26667 0.0
H823 H 0.37058 0.33993 0.12452 0.0
H824 H 0.34222 0.34005 0.15544 0.0
C825 C 0.28239 0.332 0.28339 0.0
C826 C 0.31537 0.31818 0.2315 0.0
H827 H 0.38868 0.33508 0.22602 0.0
C828 C 0.29981 0.31089 0.20667 0.0
C829 C 0.3479 0.32659 0.2386 0.0
C830 C 0.36631 0.3332 0.265 0.0
C831 C 0.31578 0.3117 0.18877 0.0
C832 C 0.34822 0.32095 0.19578 0.0
C833 C 0.3638 0.32825 0.22061 0.0
C834 C 0.36658 0.32233 0.1778 0.0
C835 C 0.2977 0.30193 0.16266 0.0
C836 C 0.39073 0.31336 0.18071 0.0
C837 C 0.40755 0.31398 0.16354 0.0
C838 C 0.40034 0.32341 0.14306 0.0
C839 C 0.37655 0.33267 0.14027 0.0
C840 C 0.36012 0.33246 0.15773 0.0
H841 H 0.27521 0.28987 0.16151 0.0
H842 H 0.29295 0.31493 0.15304 0.0
H843 H 0.31066 0.29383 0.153 0.0
H844 H 0.39623 0.30553 0.19606 0.0
H845 H 0.42584 0.30673 0.16596 0.0
H846 H 0.85166 0.76672 0.79862 0.0
H847 H 0.87046 0.73548 0.7974 0.0
H848 H 0.87789 0.74024 0.72452 0.0
H849 H 0.85939 0.77172 0.72572 0.0
H850 H 0.84356 0.69619 0.76452 0.0
H851 H 0.96213 0.7367 0.7596 0.0
H852 H 0.93812 0.75158 0.7685 0.0
H853 H 0.93246 0.74128 0.73688 0.0
C854 C 0.85751 0.76124 0.78239 0.0
C855 C 0.85413 0.77167 0.76223 0.0
C856 C 0.86823 0.74338 0.78173 0.0
C857 C 0.87592 0.73573 0.761 0.0
C858 C 0.87266 0.74615 0.74088 0.0
H859 H 0.93395 0.62696 0.71639 0.0
H860 H 0.91706 0.65903 0.71911 0.0
C861 C 0.86195 0.76403 0.74153 0.0
C862 C 0.88612 0.71628 0.76005 0.0
H863 H 0.94552 0.69822 0.75292 0.0
C864 C 0.86592 0.69663 0.76214 0.0
C865 C 0.91528 0.71694 0.75689 0.0
C866 C 0.9384 0.73778 0.75556 0.0
C867 C 0.87384 0.67749 0.76064 0.0
C868 C 0.90294 0.67813 0.75737 0.0
C869 C 0.9232 0.69779 0.75538 0.0
C870 C 0.91274 0.65853 0.75579 0.0
C871 C 0.85072 0.65664 0.76197 0.0
C872 C 0.91612 0.64775 0.77559 0.0
C873 C 0.92555 0.62933 0.77403 0.0
C874 C 0.93192 0.62142 0.75267 0.0
C875 C 0.92873 0.6324 0.73294 0.0
C876 C 0.91932 0.65082 0.73453 0.0
H877 H 0.82708 0.65785 0.75846 0.0
H878 H 0.85054 0.64295 0.74864 0.0
H879 H 0.85707 0.65286 0.78048 0.0
H880 H 0.91163 0.65366 0.79231 0.0
H881 H 0.92761 0.62118 0.78949 0.0
H882 H 0.85078 0.34118 0.4277 0.0
H883 H 0.89427 0.37414 0.43332 0.0
H884 H 0.83261 0.41233 0.42836 0.0
H885 H 0.78922 0.37958 0.42318 0.0
H886 H 0.89719 0.40017 0.39784 0.0
H887 H 0.9054 0.44825 0.48615 0.0
H888 H 0.88554 0.41944 0.47765 0.0
H889 H 0.86712 0.43832 0.46608 0.0
C890 C 0.84666 0.35668 0.42848 0.0
C891 C 0.81662 0.35783 0.42492 0.0
C892 C 0.87147 0.37546 0.43159 0.0
C893 C 0.86669 0.39569 0.43152 0.0
C894 C 0.8369 0.39695 0.42893 0.0
H895 H 0.95452 0.52278 0.41055 0.0
H896 H 0.92241 0.49011 0.4206 0.0
C897 C 0.8121 0.37821 0.42571 0.0
C898 C 0.89199 0.41508 0.43124 0.0
H899 H 0.93026 0.46763 0.45934 0.0
C900 C 0.90485 0.41482 0.4115 0.0
C901 C 0.90169 0.43417 0.449 0.0
C902 C 0.88944 0.43507 0.47105 0.0
C903 C 0.92617 0.43345 0.4084 0.0
C904 C 0.93538 0.45272 0.42586 0.0
C905 C 0.92317 0.45282 0.446 0.0
C906 C 0.95618 0.47322 0.4226 0.0
C907 C 0.93744 0.4326 0.38581 0.0
C908 C 0.98609 0.47478 0.42119 0.0
C909 C 0.0042 0.49329 0.41525 0.0
C910 C 0.99272 0.51051 0.41089 0.0
C911 C 0.96356 0.50951 0.41369 0.0
C912 C 0.94537 0.49095 0.41947 0.0
H913 H 0.92286 0.41818 0.37166 0.0
H914 H 0.93782 0.44737 0.37784 0.0
H915 H 0.96122 0.43172 0.39068 0.0
H916 H 0.99509 0.46145 0.42404 0.0
H917 H 0.0268 0.49393 0.41334 0.0
H918 H 0.09724 0.30547 0.7259 0.0
H919 H 0.07115 0.33267 0.71829 0.0
H920 H 0.15683 0.38363 0.75205 0.0
H921 H 0.18313 0.35666 0.75918 0.0
H922 H 0.06749 0.3637 0.7542 0.0
H923 H 0.12412 0.40311 0.68872 0.0
H924 H 0.1254 0.37693 0.6952 0.0
H925 H 0.15085 0.40131 0.71568 0.0
C926 C 0.11059 0.32248 0.73127 0.0
C927 C 0.14222 0.32894 0.74316 0.0
C928 C 0.09565 0.33797 0.72702 0.0
C929 C 0.11215 0.36015 0.73433 0.0
C930 C 0.14378 0.36662 0.74587 0.0
H931 H 0.08078 0.48271 0.75161 0.0
H932 H 0.10065 0.45202 0.74953 0.0
C933 C 0.15869 0.35118 0.75017 0.0
C934 C 0.09612 0.37659 0.73147 0.0
H935 H 0.0971 0.42254 0.70817 0.0
C936 C 0.07359 0.3764 0.74385 0.0
C937 C 0.10424 0.39314 0.718 0.0
C938 C 0.12727 0.39358 0.70345 0.0
C939 C 0.05988 0.39288 0.74399 0.0
C940 C 0.06862 0.40975 0.73106 0.0
C941 C 0.09054 0.40961 0.71814 0.0
C942 C 0.05631 0.42822 0.73164 0.0
C943 C 0.03713 0.39259 0.7588 0.0
C944 C 0.02484 0.42501 0.72197 0.0
C945 C 0.01337 0.4425 0.72329 0.0
C946 C 0.03321 0.46352 0.73423 0.0
C947 C 0.06482 0.46669 0.74345 0.0
C948 C 0.07625 0.44921 0.74211 0.0
H949 H 0.03791 0.38119 0.77176 0.0
H950 H 0.04162 0.40902 0.76923 0.0
H951 H 0.01353 0.38738 0.74636 0.0
H952 H 0.00915 0.40897 0.71349 0.0
H953 H 0.98888 0.43949 0.71616 0.0
H954 H 0.21079 0.76158 0.26731 0.0
H955 H 0.18939 0.72695 0.27904 0.0
H956 H 0.27665 0.71519 0.28822 0.0
H957 H 0.29858 0.75028 0.27713 0.0
H958 H 0.18423 0.68439 0.25959 0.0
H959 H 0.25928 0.71093 0.35487 0.0
H960 H 0.25526 0.72976 0.33455 0.0
H961 H 0.27849 0.71267 0.33111 0.0
C962 C 0.22545 0.75163 0.27183 0.0
C963 C 0.25648 0.75877 0.27163 0.0
C964 C 0.21314 0.7318 0.27838 0.0
C965 C 0.23158 0.71869 0.28488 0.0
C966 C 0.2622 0.72526 0.28366 0.0
H967 H 0.17433 0.60211 0.34842 0.0
H968 H 0.20465 0.63006 0.33038 0.0
C969 C 0.27459 0.74518 0.2771 0.0
C970 C 0.21864 0.69863 0.29376 0.0
H971 H 0.22209 0.6765 0.34518 0.0
C972 C 0.19272 0.68253 0.27822 0.0
C973 C 0.22983 0.69625 0.31807 0.0
C974 C 0.2571 0.71334 0.33575 0.0
C975 C 0.17711 0.66442 0.28654 0.0
C976 C 0.18749 0.66254 0.31111 0.0
C977 C 0.21422 0.67808 0.32636 0.0
C978 C 0.16949 0.64555 0.32181 0.0
C979 C 0.14932 0.6476 0.2691 0.0
C980 C 0.14006 0.64534 0.3233 0.0
C981 C 0.12302 0.62963 0.3337 0.0
C982 C 0.13519 0.61395 0.34283 0.0
C983 C 0.1647 0.61419 0.34154 0.0
C984 C 0.18188 0.63003 0.33122 0.0
H985 H 0.14952 0.64809 0.24984 0.0
H986 H 0.14814 0.63106 0.2726 0.0
H987 H 0.12818 0.65083 0.27159 0.0
H988 H 0.13036 0.65744 0.31654 0.0
H989 H 0.10028 0.62966 0.3346 0.0
H990 H 0.74882 0.8472 0.73956 0.0
H991 H 0.7465 0.87457 0.71392 0.0
H992 H 0.84572 0.89997 0.73538 0.0
H993 H 0.84799 0.8719 0.76014 0.0
H994 H 0.76375 0.91607 0.72823 0.0
H995 H 0.82964 0.89954 0.66411 0.0
H996 H 0.81722 0.88087 0.68343 0.0
H997 H 0.85165 0.9038 0.69518 0.0
C998 C 0.77008 0.8584 0.73835 0.0
C999 C 0.79857 0.85748 0.75163 0.0
C1000 C 0.76878 0.87403 0.72378 0.0
C1001 C 0.79593 0.88921 0.72245 0.0
C1002 C 0.82448 0.88809 0.73551 0.0
H1003 H 0.80322 0.0162 0.68799 0.0
H1004 H 0.80585 0.98518 0.70787 0.0
C1005 C 0.82579 0.87216 0.74976 0.0
C1006 C 0.79417 0.9072 0.70906 0.0
H1007 H 0.82118 0.93407 0.66683 0.0
C1008 C 0.7761 0.91985 0.71464 0.0
C1009 C 0.80994 0.91202 0.69108 0.0
C1010 C 0.82792 0.89818 0.68291 0.0
C1011 C 0.77371 0.93733 0.70306 0.0
C1012 C 0.79082 0.94288 0.68608 0.0
C1013 C 0.80843 0.93001 0.68013 0.0
C1014 C 0.79051 0.96186 0.67415 0.0
C1015 C 0.75235 0.94935 0.70885 0.0
C1016 C 0.78226 0.95923 0.64863 0.0
C1017 C 0.78155 0.97702 0.63733 0.0
C1018 C 0.78898 0.99767 0.65139 0.0
C1019 C 0.79746 0.00037 0.67688 0.0
C1020 C 0.79863 0.98265 0.68817 0.0
H1021 H 0.73409 0.93909 0.71574 0.0
H1022 H 0.7657 0.96377 0.72329 0.0
H1023 H 0.74116 0.95485 0.69257 0.0
H1024 H 0.77603 0.94337 0.63744 0.0
H1025 H 0.77497 0.97467 0.61762 0.0
H1026 H 0.71143 0.34664 0.3785 0.0
H1027 H 0.67329 0.34415 0.34051 0.0
H1028 H 0.67047 0.27852 0.31724 0.0
H1029 H 0.70954 0.28116 0.35481 0.0
H1030 H 0.67858 0.30329 0.2827 0.0
H1031 H 0.58144 0.31291 0.31712 0.0
H1032 H 0.6169 0.33419 0.33153 0.0
H1033 H 0.61349 0.30682 0.33567 0.0
C1034 C 0.70258 0.33163 0.36536 0.0
C1035 C 0.71359 0.31412 0.36966 0.0
C1036 C 0.6805 0.33015 0.34377 0.0
C1037 C 0.66874 0.31106 0.32619 0.0
C1038 C 0.6791 0.29336 0.33067 0.0
H1039 H 0.51866 0.28844 0.19513 0.0
H1040 H 0.55115 0.28631 0.23411 0.0
C1041 C 0.70126 0.29484 0.35223 0.0
C1042 C 0.64747 0.31017 0.30237 0.0
H1043 H 0.57909 0.31742 0.27595 0.0
C1044 C 0.65669 0.30619 0.2812 0.0
C1045 C 0.6188 0.31374 0.30043 0.0
C1046 C 0.60689 0.31694 0.32238 0.0
C1047 C 0.6384 0.30622 0.25818 0.0
C1048 C 0.61041 0.3108 0.25636 0.0
C1049 C 0.60075 0.31419 0.27744 0.0
C1050 C 0.59086 0.31215 0.23272 0.0
C1051 C 0.64911 0.30119 0.23601 0.0
C1052 C 0.60232 0.32756 0.21917 0.0
C1053 C 0.58394 0.32868 0.19677 0.0
C1054 C 0.55363 0.31451 0.18759 0.0
C1055 C 0.54208 0.29932 0.20145 0.0
C1056 C 0.56051 0.29819 0.22382 0.0
H1057 H 0.66604 0.29224 0.23968 0.0
H1058 H 0.62944 0.29143 0.22037 0.0
H1059 H 0.66048 0.31659 0.23071 0.0
H1060 H 0.6255 0.33876 0.22594 0.0
H1061 H 0.59362 0.34047 0.18652 0.0
H1062 H 0.13226 0.23327 0.67781 0.0
H1063 H 0.11996 0.20153 0.64586 0.0
H1064 H 0.19476 0.18342 0.68746 0.0
H1065 H 0.20713 0.215 0.71939 0.0
H1066 H 0.16085 0.19236 0.61947 0.0
H1067 H 0.12114 0.12699 0.66961 0.0
H1068 H 0.12316 0.1547 0.67927 0.0
H1069 H 0.15734 0.14677 0.68599 0.0
C1070 C 0.1459 0.22242 0.68022 0.0
C1071 C 0.17065 0.22652 0.70109 0.0
C1072 C 0.13883 0.20432 0.66198 0.0
C1073 C 0.15614 0.18997 0.66452 0.0
C1074 C 0.18072 0.19404 0.6854 0.0
H1075 H 0.19095 0.08602 0.58752 0.0
H1076 H 0.18522 0.11376 0.61649 0.0
C1077 C 0.18788 0.21214 0.70352 0.0
C1078 C 0.14998 0.17144 0.64481 0.0
H1079 H 0.1353 0.11666 0.63365 0.0
C1080 C 0.15472 0.17574 0.62234 0.0
C1081 C 0.142 0.14983 0.6487 0.0
C1082 C 0.13532 0.14422 0.67212 0.0
C1083 C 0.15343 0.15911 0.6041 0.0
C1084 C 0.14659 0.13758 0.60835 0.0
C1085 C 0.1406 0.13318 0.63046 0.0
C1086 C 0.14812 0.11973 0.59095 0.0
C1087 C 0.16104 0.1649 0.581 0.0
C1088 C 0.12864 0.11351 0.56714 0.0
C1089 C 0.13208 0.09778 0.55042 0.0
C1090 C 0.15498 0.08794 0.5573 0.0
C1091 C 0.17352 0.09359 0.58149 0.0
C1092 C 0.17011 0.10931 0.59813 0.0
H1093 H 0.17187 0.18262 0.58271 0.0
H1094 H 0.17684 0.15647 0.57602 0.0
H1095 H 0.13957 0.15968 0.56588 0.0
H1096 H 0.11115 0.12108 0.56137 0.0
H1097 H 0.1175 0.09385 0.53191 0.0
H1098 H 0.33471 0.76939 0.17858 0.0
H1099 H 0.37067 0.77998 0.15388 0.0
H1100 H 0.40161 0.84578 0.19311 0.0
H1101 H 0.3655 0.83537 0.21766 0.0
H1102 H 0.38916 0.84267 0.14266 0.0
H1103 H 0.46435 0.79416 0.17583 0.0
H1104 H 0.42432 0.77859 0.16473 0.0
H1105 H 0.43715 0.79958 0.19129 0.0
C1106 C 0.34929 0.78609 0.18196 0.0
C1107 C 0.34738 0.80151 0.20004 0.0
C1108 C 0.3699 0.79209 0.16796 0.0
C1109 C 0.3891 0.81359 0.17193 0.0
C1110 C 0.38708 0.82908 0.18986 0.0
H1111 H 0.54373 0.85128 0.10863 0.0
H1112 H 0.51152 0.84712 0.13711 0.0
C1113 C 0.36646 0.82309 0.20388 0.0
C1114 C 0.41077 0.81999 0.15695 0.0
H1115 H 0.47091 0.80895 0.14053 0.0
C1116 C 0.4072 0.83544 0.14231 0.0
C1117 C 0.43456 0.81077 0.15683 0.0
C1118 C 0.4406 0.79501 0.17318 0.0
C1119 C 0.4262 0.84141 0.12693 0.0
C1120 C 0.44903 0.83141 0.12595 0.0
C1121 C 0.45321 0.81647 0.14116 0.0
C1122 C 0.46836 0.83572 0.10885 0.0
C1123 C 0.42177 0.85843 0.11199 0.0
C1124 C 0.45475 0.8308 0.08359 0.0
C1125 C 0.47308 0.83327 0.06742 0.0
C1126 C 0.50524 0.84048 0.07632 0.0
C1127 C 0.51891 0.84578 0.10152 0.0
C1128 C 0.50058 0.84335 0.1177 0.0
H1129 H 0.41005 0.86883 0.11994 0.0
H1130 H 0.44413 0.86891 0.1105 0.0
H1131 H 0.40719 0.85036 0.09335 0.0
H1132 H 0.42998 0.82444 0.07636 0.0
H1133 H 0.46224 0.82899 0.04799 0.0
H1134 H 0.73743 0.24891 0.45147 0.0
H1135 H 0.73314 0.21731 0.4713 0.0
H1136 H 0.83209 0.23498 0.49521 0.0
H1137 H 0.83654 0.26682 0.47572 0.0
H1138 H 0.75468 0.18272 0.46279 0.0
H1139 H 0.80733 0.22689 0.55808 0.0
H1140 H 0.79477 0.23997 0.53334 0.0
H1141 H 0.8311 0.23486 0.53814 0.0
C1142 C 0.75828 0.24613 0.46105 0.0
C1143 C 0.78738 0.26035 0.46217 0.0
C1144 C 0.75577 0.22806 0.47233 0.0
C1145 C 0.78228 0.22398 0.48501 0.0
C1146 C 0.81134 0.23808 0.48596 0.0
H1147 H 0.80245 0.10452 0.52661 0.0
H1148 H 0.80079 0.13553 0.50635 0.0
C1149 C 0.81386 0.25617 0.47473 0.0
C1150 C 0.77959 0.20469 0.49675 0.0
H1151 H 0.80033 0.18901 0.55126 0.0
C1152 C 0.76448 0.18407 0.48216 0.0
C1153 C 0.792 0.20652 0.52207 0.0
C1154 C 0.80695 0.22825 0.53889 0.0
C1155 C 0.76215 0.16519 0.49212 0.0
C1156 C 0.77577 0.16702 0.51726 0.0
C1157 C 0.79017 0.18765 0.53195 0.0
C1158 C 0.77567 0.14777 0.52872 0.0
C1159 C 0.74489 0.14348 0.4757 0.0
C1160 C 0.76258 0.14459 0.54823 0.0
C1161 C 0.7638 0.12706 0.55989 0.0
C1162 C 0.77828 0.11256 0.55227 0.0
C1163 C 0.79112 0.11556 0.53264 0.0
C1164 C 0.78998 0.13313 0.52102 0.0
H1165 H 0.72868 0.14501 0.45905 0.0
H1166 H 0.76157 0.13642 0.46989 0.0
H1167 H 0.73175 0.13205 0.48533 0.0
H1168 H 0.75157 0.15575 0.55452 0.0
H1169 H 0.75383 0.12495 0.57506 0.0
H1170 H 0.23579 0.33867 0.80503 0.0
H1171 H 0.2715 0.34443 0.84534 0.0
H1172 H 0.23645 0.27648 0.84731 0.0
H1173 H 0.2 0.27061 0.80735 0.0
H1174 H 0.25507 0.33245 0.89065 0.0
H1175 H 0.33324 0.29219 0.86007 0.0
H1176 H 0.30757 0.30238 0.83951 0.0
H1177 H 0.29275 0.27747 0.84952 0.0
C1178 C 0.2354 0.32497 0.81413 0.0
C1179 C 0.21506 0.30415 0.8029 0.0
C1180 C 0.25594 0.32829 0.83708 0.0
C1181 C 0.25673 0.31084 0.84908 0.0
C1182 C 0.2364 0.29008 0.8381 0.0
H1183 H 0.33617 0.30134 0.9965 0.0
H1184 H 0.30237 0.30054 0.95676 0.0
C1185 C 0.21571 0.28676 0.81524 0.0
C1186 C 0.27866 0.31431 0.87323 0.0
H1187 H 0.34194 0.30226 0.90266 0.0
C1188 C 0.27417 0.32597 0.89332 0.0
C1189 C 0.30364 0.30598 0.87648 0.0
C1190 C 0.30989 0.29392 0.85528 0.0
C1191 C 0.29365 0.32901 0.91681 0.0
C1192 C 0.31808 0.32012 0.92016 0.0
C1193 C 0.32306 0.30896 0.89997 0.0
C1194 C 0.33822 0.32163 0.94459 0.0
C1195 C 0.28803 0.34167 0.9379 0.0
C1196 C 0.36954 0.33368 0.95077 0.0
C1197 C 0.38889 0.33419 0.97345 0.0
C1198 C 0.37725 0.32239 0.99014 0.0
C1199 C 0.34579 0.31047 0.98392 0.0
C1200 C 0.32644 0.31012 0.96135 0.0
H1201 H 0.27252 0.35121 0.93167 0.0
H1202 H 0.27714 0.33027 0.94866 0.0
H1203 H 0.31008 0.35286 0.95013 0.0
H1204 H 0.37903 0.34253 0.93795 0.0
H1205 H 0.4131 0.34332 0.97766 0.0
H1206 H 0.26349 0.85399 0.25738 0.0
H1207 H 0.25024 0.88313 0.27859 0.0
H1208 H 0.26151 0.85545 0.34363 0.0
H1209 H 0.27526 0.82659 0.32283 0.0
H1210 H 0.20425 0.86518 0.32758 0.0
H1211 H 0.30891 0.93429 0.33478 0.0
H1212 H 0.28975 0.91742 0.30524 0.0
H1213 H 0.30824 0.90642 0.32943 0.0
C1214 C 0.2636 0.85431 0.27631 0.0
C1215 C 0.27029 0.83793 0.28839 0.0
C1216 C 0.25595 0.87091 0.28835 0.0
C1217 C 0.255 0.87141 0.31265 0.0
C1218 C 0.26202 0.85527 0.32483 0.0
H1219 H 0.25017 0.96402 0.42683 0.0
H1220 H 0.26172 0.93853 0.39902 0.0
C1221 C 0.26974 0.83875 0.31287 0.0
C1222 C 0.24587 0.88833 0.32541 0.0
H1223 H 0.27051 0.94202 0.35091 0.0
C1224 C 0.21855 0.88203 0.33252 0.0
C1225 C 0.26475 0.91021 0.33188 0.0
C1226 C 0.29468 0.91761 0.32513 0.0
C1227 C 0.20982 0.89702 0.34634 0.0
C1228 C 0.22883 0.91887 0.353 0.0
C1229 C 0.25593 0.92525 0.34558 0.0
C1230 C 0.22209 0.935 0.36916 0.0
C1231 C 0.18093 0.88926 0.35446 0.0
C1232 C 0.19611 0.9416 0.36143 0.0
C1233 C 0.18951 0.95632 0.37724 0.0
C1234 C 0.20886 0.96471 0.40103 0.0
C1235 C 0.23504 0.95817 0.40853 0.0
C1236 C 0.24163 0.94353 0.39271 0.0
H1237 H 0.1717 0.87129 0.35129 0.0
H1238 H 0.18539 0.89567 0.37412 0.0
H1239 H 0.163 0.89533 0.34414 0.0
H1240 H 0.18097 0.93536 0.34318 0.0
H1241 H 0.16942 0.96126 0.37078 0.0
H1242 H 0.72905 0.83384 0.80052 0.0
H1243 H 0.7046 0.8377 0.83328 0.0
H1244 H 0.78213 0.83031 0.88461 0.0
H1245 H 0.80728 0.82718 0.85209 0.0
H1246 H 0.68791 0.80871 0.86345 0.0
H1247 H 0.77339 0.88622 0.91712 0.0
H1248 H 0.77172 0.87612 0.88613 0.0
H1249 H 0.78942 0.86506 0.91073 0.0
C1250 C 0.74106 0.83327 0.81883 0.0
C1251 C 0.77023 0.83038 0.82375 0.0
C1252 C 0.72698 0.83535 0.83748 0.0
C1253 C 0.74179 0.83466 0.86141 0.0
C1254 C 0.7706 0.83133 0.86634 0.0
H1255 H 0.68657 0.83967 0.99596 0.0
H1256 H 0.71446 0.83763 0.9648 0.0
C1257 C 0.78475 0.82927 0.84769 0.0
C1258 C 0.7267 0.83703 0.88106 0.0
H1259 H 0.73453 0.86879 0.93492 0.0
C1260 C 0.69804 0.82187 0.87905 0.0
C1261 C 0.74005 0.85422 0.90137 0.0
C1262 C 0.77021 0.87147 0.90396 0.0
C1263 C 0.68246 0.82331 0.89695 0.0
C1264 C 0.69573 0.84055 0.91719 0.0
C1265 C 0.72448 0.85562 0.91933 0.0
C1266 C 0.67995 0.84314 0.93628 0.0
C1267 C 0.65214 0.8062 0.89428 0.0
C1268 C 0.65181 0.84744 0.9306 0.0
C1269 C 0.63605 0.84865 0.9483 0.0
C1270 C 0.64832 0.84564 0.97186 0.0
C1271 C 0.67689 0.84203 0.9778 0.0
C1272 C 0.6927 0.84086 0.9601 0.0
H1273 H 0.64868 0.7915 0.88093 0.0
H1274 H 0.65063 0.80142 0.91205 0.0
H1275 H 0.63309 0.81283 0.88777 0.0
H1276 H 0.64188 0.84957 0.9124 0.0
H1277 H 0.614 0.85147 0.94352 0.0
loop_
_geom_bond_atom_site_label_1
_geom_bond_atom_site_label_2
_geom_bond_distance
_geom_bond_site_symmetry_2
_ccdc_geom_bond_type
H0 C5 0.930 . S
H1 C8 0.930 . S
H2 C10 0.930 . S
H3 C4 1.016 . S
C4 H3 1.016 . S
C4 N11 1.286 . S
C5 H0 0.930 . S
C5 C6 1.397 . S
C5 C7 1.361 . S
C6 C5 1.397 . S
C6 C10 1.390 . S
C7 C5 1.361 . S
C7 C8 1.393 . S
C7 N11 1.413 . S
C8 H1 0.930 . S
C8 C7 1.393 . S
C8 C9 1.399 . S
C9 C8 1.399 . S
C9 C10 1.381 . S
C10 H2 0.930 . S
C10 C6 1.390 . S
C10 C9 1.381 . S
N11 C4 1.286 . S
N11 C7 1.413 . S
H12 C17 0.930 . S
H13 C20 0.930 . S
H14 C22 0.930 . S
H15 C16 1.016 . S
C16 H15 1.016 . S
C16 N23 1.286 . S
C17 H12 0.930 . S
C17 C18 1.397 . S
C17 C19 1.361 . S
C18 C17 1.397 . S
C18 C22 1.390 . S
C19 C17 1.361 . S
C19 C20 1.393 . S
C19 N23 1.413 . S
C20 H13 0.930 . S
C20 C19 1.393 . S
C20 C21 1.399 . S
C21 C20 1.399 . S
C21 C22 1.381 . S
C22 H14 0.930 . S
C22 C18 1.390 . S
C22 C21 1.381 . S
N23 C16 1.286 . S
N23 C19 1.413 . S
H24 C29 0.930 . S
H25 C32 0.930 . S
H26 C34 0.930 . S
H27 C28 1.016 . S
C28 H27 1.016 . S
C28 N35 1.286 . S
C29 H24 0.930 . S
C29 C30 1.397 . S
C29 C31 1.361 . S
C30 C29 1.397 . S
C30 C34 1.390 . S
C31 C29 1.361 . S
C31 C32 1.393 . S
C31 N35 1.413 . S
C32 H25 0.930 . S
C32 C31 1.393 . S
C32 C33 1.399 . S
C33 C32 1.399 . S
C33 C34 1.381 . S
C34 H26 0.930 . S
C34 C30 1.390 . S
C34 C33 1.381 . S
N35 C28 1.286 . S
N35 C31 1.413 . S
H36 C41 0.930 . S
H37 C44 0.930 . S
H38 C46 0.930 . S
H39 C40 1.016 . S
C40 H39 1.016 . S
C40 N47 1.286 . S
C41 H36 0.930 . S
C41 C42 1.397 . S
C41 C43 1.361 . S
C42 C41 1.397 . S
C42 C46 1.390 . S
C43 C41 1.361 . S
C43 C44 1.393 . S
C43 N47 1.413 . S
C44 H37 0.930 . S
C44 C43 1.393 . S
C44 C45 1.399 . S
C45 C44 1.399 . S
C45 C46 1.381 . S
C46 H38 0.930 . S
C46 C42 1.390 . S
C46 C45 1.381 . S
N47 C40 1.286 . S
N47 C43 1.413 . S
H48 C53 0.930 . S
H49 C56 0.930 . S
H50 C58 0.930 . S
H51 C52 1.016 . S
C52 H51 1.016 . S
C52 N59 1.286 . S
C53 H48 0.930 . S
C53 C54 1.397 . S
C53 C55 1.361 . S
C54 C53 1.397 . S
C54 C58 1.390 . S
C55 C53 1.361 . S
C55 C56 1.393 . S
C55 N59 1.413 . S
C56 H49 0.930 . S
C56 C55 1.393 . S
C56 C57 1.399 . S
C57 C56 1.399 . S
C57 C58 1.381 . S
C58 H50 0.930 . S
C58 C54 1.390 . S
C58 C57 1.381 . S
N59 C52 1.286 . S
N59 C55 1.413 . S
H60 C65 0.930 . S
H61 C68 0.930 . S
H62 C70 0.930 . S
H63 C64 1.016 . S
C64 H63 1.016 . S
C64 N71 1.286 . S
C65 H60 0.930 . S
C65 C66 1.397 . S
C65 C67 1.361 . S
C66 C65 1.397 . S
C66 C70 1.390 . S
C67 C65 1.361 . S
C67 C68 1.393 . S
C67 N71 1.413 . S
C68 H61 0.930 . S
C68 C67 1.393 . S
C68 C69 1.399 . S
C69 C68 1.399 . S
C69 C70 1.381 . S
C70 H62 0.930 . S
C70 C66 1.390 . S
C70 C69 1.381 . S
N71 C64 1.286 . S
N71 C67 1.413 . S
H72 C77 0.930 . S
H73 C80 0.930 . S
H74 C82 0.930 . S
H75 C76 1.016 . S
C76 H75 1.016 . S
C76 N83 1.286 . S
C77 H72 0.930 . S
C77 C78 1.397 . S
C77 C79 1.361 . S
C78 C77 1.397 . S
C78 C82 1.390 . S
C79 C77 1.361 . S
C79 C80 1.393 . S
C79 N83 1.413 . S
C80 H73 0.930 . S
C80 C79 1.393 . S
C80 C81 1.399 . S
C81 C80 1.399 . S
C81 C82 1.381 . S
C82 H74 0.930 . S
C82 C78 1.390 . S
C82 C81 1.381 . S
N83 C76 1.286 . S
N83 C79 1.413 . S
H84 C89 0.930 . S
H85 C92 0.930 . S
H86 C94 0.930 . S
H87 C88 1.016 . S
C88 H87 1.016 . S
C88 N95 1.286 . S
C89 H84 0.930 . S
C89 C90 1.397 . S
C89 C91 1.361 . S
C90 C89 1.397 . S
C90 C94 1.390 . S
C91 C89 1.361 . S
C91 C92 1.393 . S
C91 N95 1.413 . S
C92 H85 0.930 . S
C92 C91 1.393 . S
C92 C93 1.399 . S
C93 C92 1.399 . S
C93 C94 1.381 . S
C94 H86 0.930 . S
C94 C90 1.390 . S
C94 C93 1.381 . S
N95 C88 1.286 . S
N95 C91 1.413 . S
C96 C97 1.443 . S
C96 N100 1.376 . S
C96 C134 1.389 . S
C97 C96 1.443 . S
C97 C98 1.340 . S
C97 H137 0.951 . S
C98 C97 1.340 . S
C98 C99 1.439 . S
C98 H138 0.950 . S
C99 C98 1.439 . S
C99 N100 1.374 . S
C99 C133 1.395 . S
N100 C96 1.376 . S
N100 C99 1.374 . S
N100 Co101 2.008 . S
Co101 N100 2.008 . S
Co101 N102 1.995 . S
Co101 N107 2.008 . S
Co101 N112 1.995 . S
Co101 N117 2.282 . S
Co101 N123 2.282 . S
N102 Co101 1.995 . S
N102 C103 1.376 . S
N102 C106 1.383 . S
C103 N102 1.376 . S
C103 C104 1.446 . S
C103 C133 1.391 . S
C104 C103 1.446 . S
C104 C105 1.339 . S
C104 H139 0.949 . S
C105 C104 1.339 . S
C105 C106 1.439 . S
C105 H140 0.950 . S
C106 N102 1.383 . S
C106 C105 1.439 . S
C106 C135 1.392 . S
N107 Co101 2.008 . S
N107 C108 1.376 . S
N107 C111 1.374 . S
C108 N107 1.376 . S
C108 C109 1.443 . S
C108 C135 1.389 . S
C109 C108 1.443 . S
C109 C110 1.340 . S
C109 H141 0.957 . S
C110 C109 1.340 . S
C110 C111 1.439 . S
C110 H142 0.950 . S
C111 N107 1.374 . S
C111 C110 1.439 . S
C111 C136 1.395 . S
N112 Co101 1.995 . S
N112 C113 1.376 . S
N112 C116 1.383 . S
C113 N112 1.376 . S
C113 C114 1.446 . S
C113 C136 1.391 . S
C114 C113 1.446 . S
C114 C115 1.339 . S
C114 H143 0.949 . S
C115 C114 1.339 . S
C115 C116 1.439 . S
C115 H144 0.950 . S
C116 N112 1.383 . S
C116 C115 1.439 . S
C116 C134 1.392 . S
N117 Co101 2.282 . S
N117 C120 1.332 . S
N117 C122 1.332 . S
C118 C119 1.386 . S
C118 C121 1.388 . S
C119 C118 1.386 . S
C119 C120 1.382 . S
C119 H145 0.950 . S
C120 N117 1.332 . S
C120 C119 1.382 . S
C120 H131 0.952 . S
C121 C118 1.388 . S
C121 C122 1.382 . S
C121 H146 0.950 . S
C122 N117 1.332 . S
C122 C121 1.382 . S
C122 H132 0.948 . S
N123 Co101 2.282 . S
N123 C127 1.332 . S
N123 C128 1.332 . S
C124 C125 1.388 . S
C124 C128 1.382 . S
C124 H147 0.950 . S
C125 C124 1.388 . S
C125 C126 1.386 . S
C126 C125 1.386 . S
C126 C127 1.382 . S
C126 H148 0.950 . S
C127 N123 1.332 . S
C127 C126 1.382 . S
C127 H129 0.952 . S
C128 N123 1.332 . S
C128 C124 1.382 . S
C128 H130 0.948 . S
H129 C127 0.952 . S
H130 C128 0.948 . S
H131 C120 0.952 . S
H132 C122 0.948 . S
C133 C99 1.395 . S
C133 C103 1.391 . S
C134 C96 1.389 . S
C134 C116 1.392 . S
C135 C106 1.392 . S
C135 C108 1.389 . S
C136 C111 1.395 . S
C136 C113 1.391 . S
H137 C97 0.951 . S
H138 C98 0.950 . S
H139 C104 0.949 . S
H140 C105 0.950 . S
H141 C109 0.957 . S
H142 C110 0.950 . S
H143 C114 0.949 . S
H144 C115 0.950 . S
H145 C119 0.950 . S
H146 C121 0.950 . S
H147 C124 0.950 . S
H148 C126 0.950 . S
C149 C150 1.443 . S
C149 N153 1.376 . S
C149 C187 1.389 . S
C150 C149 1.443 . S
C150 C151 1.340 . S
C150 H190 0.951 . S
C151 C150 1.340 . S
C151 C152 1.439 . S
C151 H191 0.950 . S
C152 C151 1.439 . S
C152 N153 1.374 . S
C152 C186 1.395 . S
N153 C149 1.376 . S
N153 C152 1.374 . S
N153 Co154 2.008 . S
Co154 N153 2.008 . S
Co154 N155 1.995 1_455 S
Co154 N160 2.008 1_455 S
Co154 N165 1.995 . S
Co154 N170 2.282 . S
Co154 N176 2.282 1_455 S
N155 Co154 1.995 1_655 S
N155 C156 1.376 1_655 S
N155 C159 1.383 . S
C156 N155 1.376 1_455 S
C156 C157 1.458 . S
C156 C186 1.391 . S
C157 C156 1.458 . S
C157 C158 1.324 1_455 S
C157 H192 0.953 . S
C158 C157 1.324 1_655 S
C158 C159 1.439 . S
C158 H193 0.950 . S
C159 N155 1.383 . S
C159 C158 1.439 . S
C159 C188 1.392 . S
N160 Co154 2.008 1_655 S
N160 C161 1.376 . S
N160 C164 1.374 . S
C161 N160 1.376 . S
C161 C162 1.443 . S
C161 C188 1.389 . S
C162 C161 1.443 . S
C162 C163 1.340 . S
C162 H194 0.951 . S
C163 C162 1.340 . S
C163 C164 1.439 . S
C163 H195 0.950 . S
C164 N160 1.374 . S
C164 C163 1.439 . S
C164 C189 1.395 . S
N165 Co154 1.995 . S
N165 C166 1.376 1_455 S
N165 C169 1.383 . S
C166 N165 1.376 1_655 S
C166 C167 1.454 . S
C166 C189 1.391 . S
C167 C166 1.454 . S
C167 C168 1.328 1_655 S
C167 H196 0.952 . S
C168 C167 1.328 1_455 S
C168 C169 1.439 . S
C168 H197 0.950 . S
C169 N165 1.383 . S
C169 C168 1.439 . S
C169 C187 1.392 . S
N170 Co154 2.282 . S
N170 C173 1.332 . S
N170 C175 1.332 . S
C171 C172 1.386 . S
C171 C174 1.388 . S
C172 C171 1.386 . S
C172 C173 1.382 . S
C172 H198 0.950 . S
C173 N170 1.332 . S
C173 C172 1.382 . S
C173 H184 0.952 . S
C174 C171 1.388 . S
C174 C175 1.382 . S
C174 H199 0.950 . S
C175 N170 1.332 . S
C175 C174 1.382 . S
C175 H185 0.948 . S
N176 Co154 2.282 1_655 S
N176 C180 1.332 . S
N176 C181 1.332 . S
C177 C178 1.388 . S
C177 C181 1.382 . S
C177 H200 0.950 . S
C178 C177 1.388 . S
C178 C179 1.386 . S
C179 C178 1.386 . S
C179 C180 1.382 . S
C179 H201 0.950 . S
C180 N176 1.332 . S
C180 C179 1.382 . S
C180 H182 0.952 . S
C181 N176 1.332 . S
C181 C177 1.382 . S
C181 H183 0.948 . S
H182 C180 0.952 . S
H183 C181 0.948 . S
H184 C173 0.952 . S
H185 C175 0.948 . S
C186 C152 1.395 . S
C186 C156 1.391 . S
C187 C149 1.389 . S
C187 C169 1.392 . S
C188 C159 1.392 . S
C188 C161 1.389 . S
C189 C164 1.395 . S
C189 C166 1.391 . S
H190 C150 0.951 . S
H191 C151 0.950 . S
H192 C157 0.953 . S
H193 C158 0.950 . S
H194 C162 0.951 . S
H195 C163 0.950 . S
H196 C167 0.952 . S
H197 C168 0.950 . S
H198 C172 0.950 . S
H199 C174 0.950 . S
H200 C177 0.950 . S
H201 C179 0.950 . S
C202 C203 1.443 . S
C202 N206 1.376 . S
C202 C240 1.389 . S
C203 C202 1.443 . S
C203 C204 1.340 . S
C203 H243 0.951 . S
C204 C203 1.340 . S
C204 C205 1.439 1_565 S
C204 H244 0.950 . S
C205 C204 1.439 1_545 S
C205 N206 1.374 1_545 S
C205 C239 1.395 . S
N206 C202 1.376 . S
N206 C205 1.374 1_565 S
N206 Co207 2.002 1_565 S
Co207 N206 2.002 1_545 S
Co207 N208 2.003 . S
Co207 N213 2.015 . S
Co207 N218 1.987 1_545 S
Co207 N223 2.290 . S
Co207 N229 2.275 1_545 S
N208 Co207 2.003 . S
N208 C209 1.376 . S
N208 C212 1.383 . S
C209 N208 1.376 . S
C209 C210 1.446 . S
C209 C239 1.391 . S
C210 C209 1.446 . S
C210 C211 1.339 . S
C210 H245 0.949 . S
C211 C210 1.339 . S
C211 C212 1.439 . S
C211 H246 0.950 . S
C212 N208 1.383 . S
C212 C211 1.439 . S
C212 C241 1.392 . S
N213 Co207 2.015 . S
N213 C214 1.376 . S
N213 C217 1.374 1_545 S
C214 N213 1.376 . S
C214 C215 1.443 . S
C214 C241 1.389 . S
C215 C214 1.443 . S
C215 C216 1.340 . S
C215 H247 0.951 . S
C216 C215 1.340 . S
C216 C217 1.439 1_545 S
C216 H248 0.950 . S
C217 N213 1.374 1_565 S
C217 C216 1.439 1_565 S
C217 C242 1.395 . S
N218 Co207 1.987 1_565 S
N218 C219 1.376 . S
N218 C222 1.383 . S
C219 N218 1.376 . S
C219 C220 1.446 . S
C219 C242 1.391 . S
C220 C219 1.446 . S
C220 C221 1.339 . S
C220 H249 0.949 . S
C221 C220 1.339 . S
C221 C222 1.439 . S
C221 H250 0.950 . S
C222 N218 1.383 . S
C222 C221 1.439 . S
C222 C240 1.392 . S
N223 Co207 2.290 . S
N223 C226 1.332 . S
N223 C228 1.332 . S
C224 C225 1.386 . S
C224 C227 1.388 . S
C225 C224 1.386 . S
C225 C226 1.382 . S
C225 H251 0.950 . S
C226 N223 1.332 . S
C226 C225 1.382 . S
C226 H237 0.952 . S
C227 C224 1.388 . S
C227 C228 1.382 . S
C227 H252 0.950 . S
C228 N223 1.332 . S
C228 C227 1.382 . S
C228 H238 0.948 . S
N229 Co207 2.275 1_565 S
N229 C233 1.332 . S
N229 C234 1.332 . S
C230 C231 1.388 . S
C230 C234 1.382 . S
C230 H253 0.950 . S
C231 C230 1.388 . S
C231 C232 1.386 . S
C232 C231 1.386 . S
C232 C233 1.382 . S
C232 H254 0.950 . S
C233 N229 1.332 . S
C233 C232 1.382 . S
C233 H235 0.952 . S
C234 N229 1.332 . S
C234 C230 1.382 . S
C234 H236 0.948 . S
H235 C233 0.952 . S
H236 C234 0.948 . S
H237 C226 0.952 . S
H238 C228 0.948 . S
C239 C205 1.395 . S
C239 C209 1.391 . S
C240 C202 1.389 . S
C240 C222 1.392 . S
C241 C212 1.392 . S
C241 C214 1.389 . S
C242 C217 1.395 . S
C242 C219 1.391 . S
H243 C203 0.951 . S
H244 C204 0.950 . S
H245 C210 0.949 . S
H246 C211 0.950 . S
H247 C215 0.951 . S
H248 C216 0.950 . S
H249 C220 0.949 . S
H250 C221 0.950 . S
H251 C225 0.950 . S
H252 C227 0.950 . S
H253 C230 0.950 . S
H254 C232 0.950 . S
C255 C256 1.443 . S
C255 N259 1.376 . S
C255 C293 1.389 . S
C256 C255 1.443 . S
C256 C257 1.340 . S
C256 H296 0.951 . S
C257 C256 1.340 . S
C257 C258 1.439 . S
C257 H297 0.950 . S
C258 C257 1.439 . S
C258 N259 1.374 . S
C258 C292 1.395 . S
N259 C255 1.376 . S
N259 C258 1.374 . S
N259 Co260 2.008 . S
Co260 N259 2.008 . S
Co260 N261 1.995 . S
Co260 N266 2.017 . S
Co260 N271 1.995 . S
Co260 N276 2.282 1_554 S
Co260 N282 2.282 . S
N261 Co260 1.995 . S
N261 C262 1.376 . S
N261 C265 1.383 1_554 S
C262 N261 1.376 . S
C262 C263 1.446 . S
C262 C292 1.391 . S
C263 C262 1.446 . S
C263 C264 1.339 1_554 S
C263 H298 0.949 . S
C264 C263 1.339 1_556 S
C264 C265 1.439 . S
C264 H299 0.950 . S
C265 N261 1.383 1_556 S
C265 C264 1.439 . S
C265 C294 1.392 . S
N266 Co260 2.017 . S
N266 C267 1.364 1_554 S
N266 C270 1.374 1_554 S
C267 N266 1.364 1_556 S
C267 C268 1.443 . S
C267 C294 1.389 . S
C268 C267 1.443 . S
C268 C269 1.340 . S
C268 H300 0.951 . S
C269 C268 1.340 . S
C269 C270 1.439 . S
C269 H301 0.950 . S
C270 N266 1.374 1_556 S
C270 C269 1.439 . S
C270 C295 1.395 1_556 S
N271 Co260 1.995 . S
N271 C272 1.376 . S
N271 C275 1.383 . S
C272 N271 1.376 . S
C272 C273 1.446 . S
C272 C295 1.391 . S
C273 C272 1.446 . S
C273 C274 1.339 . S
C273 H302 0.949 . S
C274 C273 1.339 . S
C274 C275 1.439 . S
C274 H303 0.950 . S
C275 N271 1.383 . S
C275 C274 1.439 . S
C275 C293 1.392 . S
N276 Co260 2.282 1_556 S
N276 C279 1.332 . S
N276 C281 1.332 . S
C277 C278 1.386 . S
C277 C280 1.388 . S
C278 C277 1.386 . S
C278 C279 1.382 . S
C278 H304 0.950 . S
C279 N276 1.332 . S
C279 C278 1.382 . S
C279 H290 0.952 . S
C280 C277 1.388 . S
C280 C281 1.382 . S
C280 H305 0.950 . S
C281 N276 1.332 . S
C281 C280 1.382 . S
C281 H291 0.948 . S
N282 Co260 2.282 . S
N282 C286 1.332 . S
N282 C287 1.332 . S
C283 C284 1.388 . S
C283 C287 1.382 . S
C283 H306 0.950 . S
C284 C283 1.388 . S
C284 C285 1.386 . S
C285 C284 1.386 . S
C285 C286 1.382 . S
C285 H307 0.950 . S
C286 N282 1.332 . S
C286 C285 1.382 . S
C286 H288 0.952 . S
C287 N282 1.332 . S
C287 C283 1.382 . S
C287 H289 0.948 . S
H288 C286 0.952 . S
H289 C287 0.948 . S
H290 C279 0.952 . S
H291 C281 0.948 . S
C292 C258 1.395 . S
C292 C262 1.391 . S
C293 C255 1.389 . S
C293 C275 1.392 . S
C294 C265 1.392 . S
C294 C267 1.389 . S
C295 C270 1.395 1_554 S
C295 C272 1.391 . S
H296 C256 0.951 . S
H297 C257 0.950 . S
H298 C263 0.949 . S
H299 C264 0.950 . S
H300 C268 0.951 . S
H301 C269 0.950 . S
H302 C273 0.949 . S
H303 C274 0.950 . S
H304 C278 0.950 . S
H305 C280 0.950 . S
H306 C283 0.950 . S
H307 C285 0.950 . S
C308 C309 1.443 . S
C308 N312 1.376 . S
C308 C346 1.389 . S
C309 C308 1.443 . S
C309 C310 1.340 . S
C309 H349 0.951 . S
C310 C309 1.340 . S
C310 C311 1.439 . S
C310 H350 0.950 . S
C311 C310 1.439 . S
C311 N312 1.374 . S
C311 C345 1.395 . S
N312 C308 1.376 . S
N312 C311 1.374 . S
N312 Co313 2.008 . S
Co313 N312 2.008 . S
Co313 N314 1.995 . S
Co313 N319 2.008 . S
Co313 N324 1.995 . S
Co313 N329 2.282 . S
Co313 N335 2.282 . S
N314 Co313 1.995 . S
N314 C315 1.376 . S
N314 C318 1.383 . S
C315 N314 1.376 . S
C315 C316 1.446 . S
C315 C345 1.391 . S
C316 C315 1.446 . S
C316 C317 1.339 . S
C316 H351 0.949 . S
C317 C316 1.339 . S
C317 C318 1.439 . S
C317 H352 0.950 . S
C318 N314 1.383 . S
C318 C317 1.439 . S
C318 C347 1.392 . S
N319 Co313 2.008 . S
N319 C320 1.376 . S
N319 C323 1.374 . S
C320 N319 1.376 . S
C320 C321 1.443 . S
C320 C347 1.389 . S
C321 C320 1.443 . S
C321 C322 1.340 . S
C321 H353 0.951 . S
C322 C321 1.340 . S
C322 C323 1.439 . S
C322 H354 0.950 . S
C323 N319 1.374 . S
C323 C322 1.439 . S
C323 C348 1.395 . S
N324 Co313 1.995 . S
N324 C325 1.376 . S
N324 C328 1.383 . S
C325 N324 1.376 . S
C325 C326 1.443 1_545 S
C325 C348 1.391 . S
C326 C325 1.443 1_565 S
C326 C327 1.341 . S
C326 H355 0.950 . S
C327 C326 1.341 . S
C327 C328 1.439 1_565 S
C327 H356 0.950 . S
C328 N324 1.383 . S
C328 C327 1.439 1_545 S
C328 C346 1.392 . S
N329 Co313 2.282 . S
N329 C332 1.332 . S
N329 C334 1.332 . S
C330 C331 1.386 . S
C330 C333 1.388 . S
C331 C330 1.386 . S
C331 C332 1.382 . S
C331 H357 0.950 . S
C332 N329 1.332 . S
C332 C331 1.382 . S
C332 H343 0.952 . S
C333 C330 1.388 . S
C333 C334 1.382 . S
C333 H358 0.950 . S
C334 N329 1.332 . S
C334 C333 1.382 . S
C334 H344 0.948 . S
N335 Co313 2.282 . S
N335 C339 1.332 . S
N335 C340 1.332 . S
C336 C337 1.388 . S
C336 C340 1.382 1_565 S
C336 H359 0.950 . S
C337 C336 1.388 . S
C337 C338 1.386 1_565 S
C338 C337 1.386 1_545 S
C338 C339 1.382 . S
C338 H360 0.950 . S
C339 N335 1.332 . S
C339 C338 1.382 . S
C339 H341 0.952 . S
C340 N335 1.332 . S
C340 C336 1.382 1_545 S
C340 H342 0.948 . S
H341 C339 0.952 . S
H342 C340 0.948 . S
H343 C332 0.952 . S
H344 C334 0.948 . S
C345 C311 1.395 . S
C345 C315 1.391 . S
C346 C308 1.389 . S
C346 C328 1.392 . S
C347 C318 1.392 . S
C347 C320 1.389 . S
C348 C323 1.395 . S
C348 C325 1.391 . S
H349 C309 0.951 . S
H350 C310 0.950 . S
H351 C316 0.949 . S
H352 C317 0.950 . S
H353 C321 0.951 . S
H354 C322 0.950 . S
H355 C326 0.950 . S
H356 C327 0.950 . S
H357 C331 0.950 . S
H358 C333 0.950 . S
H359 C336 0.950 . S
H360 C338 0.950 . S
C361 C362 1.443 . S
C361 N365 1.376 . S
C361 C399 1.389 . S
C362 C361 1.443 . S
C362 C363 1.340 . S
C362 H402 0.951 . S
C363 C362 1.340 . S
C363 C364 1.439 . S
C363 H403 0.950 . S
C364 C363 1.439 . S
C364 N365 1.374 . S
C364 C398 1.395 . S
N365 C361 1.376 . S
N365 C364 1.374 . S
N365 Co366 2.008 . S
Co366 N365 2.008 . S
Co366 N367 1.995 . S
Co366 N372 2.008 . S
Co366 N377 1.995 . S
Co366 N382 2.282 . S
Co366 N388 2.282 . S
N367 Co366 1.995 . S
N367 C368 1.376 . S
N367 C371 1.383 . S
C368 N367 1.376 . S
C368 C369 1.446 . S
C368 C398 1.391 . S
C369 C368 1.446 . S
C369 C370 1.339 . S
C369 H404 0.949 . S
C370 C369 1.339 . S
C370 C371 1.439 . S
C370 H405 0.950 . S
C371 N367 1.383 . S
C371 C370 1.439 . S
C371 C400 1.392 . S
N372 Co366 2.008 . S
N372 C373 1.376 . S
N372 C376 1.374 . S
C373 N372 1.376 . S
C373 C374 1.443 . S
C373 C400 1.389 . S
C374 C373 1.443 . S
C374 C375 1.340 . S
C374 H406 0.951 . S
C375 C374 1.340 . S
C375 C376 1.439 . S
C375 H407 0.950 . S
C376 N372 1.374 . S
C376 C375 1.439 . S
C376 C401 1.395 . S
N377 Co366 1.995 . S
N377 C378 1.376 . S
N377 C381 1.383 . S
C378 N377 1.376 . S
C378 C379 1.446 . S
C378 C401 1.391 . S
C379 C378 1.446 . S
C379 C380 1.339 . S
C379 H408 0.949 . S
C380 C379 1.339 . S
C380 C381 1.439 . S
C380 H409 0.950 . S
C381 N377 1.383 . S
C381 C380 1.439 . S
C381 C399 1.392 . S
N382 Co366 2.282 . S
N382 C385 1.332 . S
N382 C387 1.332 . S
C383 C384 1.386 . S
C383 C386 1.388 . S
C384 C383 1.386 . S
C384 C385 1.382 . S
C384 H410 0.950 . S
C385 N382 1.332 . S
C385 C384 1.382 . S
C385 H396 0.952 . S
C386 C383 1.388 . S
C386 C387 1.382 . S
C386 H411 0.950 . S
C387 N382 1.332 . S
C387 C386 1.382 . S
C387 H397 0.948 . S
N388 Co366 2.282 . S
N388 C392 1.332 . S
N388 C393 1.332 . S
C389 C390 1.388 . S
C389 C393 1.382 . S
C389 H412 0.950 . S
C390 C389 1.388 . S
C390 C391 1.386 . S
C391 C390 1.386 . S
C391 C392 1.382 . S
C391 H413 0.950 . S
C392 N388 1.332 . S
C392 C391 1.382 . S
C392 H394 0.952 . S
C393 N388 1.332 . S
C393 C389 1.382 . S
C393 H395 0.948 . S
H394 C392 0.952 . S
H395 C393 0.948 . S
H396 C385 0.952 . S
H397 C387 0.948 . S
C398 C364 1.395 . S
C398 C368 1.391 . S
C399 C361 1.389 . S
C399 C381 1.392 . S
C400 C371 1.392 . S
C400 C373 1.389 . S
C401 C376 1.395 . S
C401 C378 1.391 . S
H402 C362 0.951 . S
H403 C363 0.950 . S
H404 C369 0.949 . S
H405 C370 0.950 . S
H406 C374 0.951 . S
H407 C375 0.950 . S
H408 C379 0.949 . S
H409 C380 0.950 . S
H410 C384 0.950 . S
H411 C386 0.950 . S
H412 C389 0.950 . S
H413 C391 0.950 . S
H414 C422 0.929 . S
H415 C424 0.930 . S
H416 C426 0.930 . S
H417 C429 0.929 . S
H418 C432 0.930 . S
H419 C434 0.960 . S
H420 C434 0.960 . S
H421 C434 0.960 . S
C422 H414 0.929 . S
C422 C423 1.377 . S
C422 C424 1.384 . S
C423 C422 1.377 . S
C423 C429 1.390 . S
C424 H415 0.930 . S
C424 C422 1.384 . S
C424 C425 1.372 . S
C425 C424 1.372 . S
C425 C426 1.400 . S
C425 C430 1.490 . S
C426 H416 0.930 . S
C426 C425 1.400 . S
C426 C429 1.386 . S
H427 C443 0.930 . S
H428 C444 0.931 . S
C429 H417 0.929 . S
C429 C423 1.390 . S
C429 C426 1.386 . S
C430 C425 1.490 . S
C430 C432 1.395 . S
C430 C433 1.403 . S
H431 C437 0.930 . S
C432 H418 0.930 . S
C432 C430 1.395 . S
C432 C435 1.403 . S
C433 C430 1.403 . S
C433 C434 1.524 . S
C433 C437 1.400 . S
C434 H419 0.960 . S
C434 H420 0.960 . S
C434 H421 0.960 . S
C434 C433 1.524 . S
C435 C432 1.403 . S
C435 C436 1.392 . S
C435 C439 1.495 . S
C436 C435 1.392 . S
C436 C437 1.385 . S
C436 C438 1.478 . S
C437 H431 0.930 . S
C437 C433 1.400 . S
C437 C436 1.385 . S
C438 C436 1.478 . S
C438 C440 1.381 . S
C438 C444 1.383 . S
C439 C435 1.495 . S
C439 H445 0.959 . S
C439 H446 0.961 . S
C439 H447 0.960 . S
C440 C438 1.381 . S
C440 C441 1.394 . S
C440 H448 0.930 . S
C441 C440 1.394 . S
C441 C442 1.383 . S
C441 H449 0.929 . S
C442 C441 1.383 . S
C442 C443 1.377 . S
C443 H427 0.930 . S
C443 C442 1.377 . S
C443 C444 1.379 . S
C444 H428 0.931 . S
C444 C438 1.383 . S
C444 C443 1.379 . S
H445 C439 0.959 . S
H446 C439 0.961 . S
H447 C439 0.960 . S
H448 C440 0.930 . S
H449 C441 0.929 . S
H450 C458 0.929 . S
H451 C460 0.930 . S
H452 C462 0.930 . S
H453 C465 0.929 . S
H454 C468 0.930 . S
H455 C470 0.960 . S
H456 C470 0.960 . S
H457 C470 0.960 . S
C458 H450 0.929 . S
C458 C459 1.377 . S
C458 C460 1.384 . S
C459 C458 1.377 . S
C459 C465 1.390 . S
C460 H451 0.930 . S
C460 C458 1.384 . S
C460 C461 1.372 . S
C461 C460 1.372 . S
C461 C462 1.400 . S
C461 C466 1.490 . S
C462 H452 0.930 . S
C462 C461 1.400 . S
C462 C465 1.386 . S
H463 C479 0.930 . S
H464 C480 0.931 . S
C465 H453 0.929 . S
C465 C459 1.390 . S
C465 C462 1.386 . S
C466 C461 1.490 . S
C466 C468 1.395 . S
C466 C469 1.403 . S
H467 C473 0.930 . S
C468 H454 0.930 . S
C468 C466 1.395 . S
C468 C471 1.403 . S
C469 C466 1.403 . S
C469 C470 1.524 . S
C469 C473 1.400 . S
C470 H455 0.960 . S
C470 H456 0.960 . S
C470 H457 0.960 . S
C470 C469 1.524 . S
C471 C468 1.403 . S
C471 C472 1.392 . S
C471 C475 1.495 . S
C472 C471 1.392 . S
C472 C473 1.385 . S
C472 C474 1.478 . S
C473 H467 0.930 . S
C473 C469 1.400 . S
C473 C472 1.385 . S
C474 C472 1.478 . S
C474 C476 1.381 . S
C474 C480 1.383 . S
C475 C471 1.495 . S
C475 H481 0.959 . S
C475 H482 0.961 . S
C475 H483 0.960 . S
C476 C474 1.381 . S
C476 C477 1.394 . S
C476 H484 0.930 . S
C477 C476 1.394 . S
C477 C478 1.383 . S
C477 H485 0.929 . S
C478 C477 1.383 . S
C478 C479 1.377 . S
C479 H463 0.930 . S
C479 C478 1.377 . S
C479 C480 1.379 . S
C480 H464 0.931 . S
C480 C474 1.383 . S
C480 C479 1.379 . S
H481 C475 0.959 . S
H482 C475 0.961 . S
H483 C475 0.960 . S
H484 C476 0.930 . S
H485 C477 0.929 . S
H486 C494 0.929 . S
H487 C496 0.930 . S
H488 C498 0.930 . S
H489 C501 0.929 . S
H490 C504 0.930 . S
H491 C506 0.960 . S
H492 C506 0.960 . S
H493 C506 0.960 . S
C494 H486 0.929 . S
C494 C495 1.377 . S
C494 C496 1.384 . S
C495 C494 1.377 . S
C495 C501 1.390 . S
C496 H487 0.930 . S
C496 C494 1.384 . S
C496 C497 1.372 . S
C497 C496 1.372 . S
C497 C498 1.400 . S
C497 C502 1.490 . S
C498 H488 0.930 . S
C498 C497 1.400 . S
C498 C501 1.386 . S
H499 C515 0.930 1_655 S
H500 C516 0.931 . S
C501 H489 0.929 . S
C501 C495 1.390 . S
C501 C498 1.386 . S
C502 C497 1.490 . S
C502 C504 1.395 . S
C502 C505 1.403 . S
H503 C509 0.930 . S
C504 H490 0.930 . S
C504 C502 1.395 . S
C504 C507 1.403 . S
C505 C502 1.403 . S
C505 C506 1.524 . S
C505 C509 1.400 . S
C506 H491 0.960 . S
C506 H492 0.960 . S
C506 H493 0.960 . S
C506 C505 1.524 . S
C507 C504 1.403 . S
C507 C508 1.392 . S
C507 C511 1.495 1_655 S
C508 C507 1.392 . S
C508 C509 1.385 . S
C508 C510 1.478 1_655 S
C509 H503 0.930 . S
C509 C505 1.400 . S
C509 C508 1.385 . S
C510 C508 1.478 1_455 S
C510 C512 1.381 . S
C510 C516 1.383 1_455 S
C511 C507 1.495 1_455 S
C511 H517 0.959 . S
C511 H518 0.961 . S
C511 H519 0.960 . S
C512 C510 1.381 . S
C512 C513 1.394 . S
C512 H520 0.930 . S
C513 C512 1.394 . S
C513 C514 1.383 . S
C513 H521 0.929 . S
C514 C513 1.383 . S
C514 C515 1.377 . S
C515 H499 0.930 1_455 S
C515 C514 1.377 . S
C515 C516 1.379 1_455 S
C516 H500 0.931 . S
C516 C510 1.383 1_655 S
C516 C515 1.379 1_655 S
H517 C511 0.959 . S
H518 C511 0.961 . S
H519 C511 0.960 . S
H520 C512 0.930 . S
H521 C513 0.929 . S
H522 C530 0.929 . S
H523 C532 0.930 . S
H524 C534 0.930 . S
H525 C537 0.929 . S
H526 C540 0.930 . S
H527 C542 0.960 . S
H528 C542 0.960 . S
H529 C542 0.960 . S
C530 H522 0.929 . S
C530 C531 1.377 . S
C530 C532 1.384 . S
C531 C530 1.377 . S
C531 C537 1.390 . S
C532 H523 0.930 . S
C532 C530 1.384 . S
C532 C533 1.372 . S
C533 C532 1.372 . S
C533 C534 1.400 . S
C533 C538 1.490 . S
C534 H524 0.930 . S
C534 C533 1.400 . S
C534 C537 1.386 . S
H535 C551 0.930 . S
H536 C552 0.931 . S
C537 H525 0.929 . S
C537 C531 1.390 . S
C537 C534 1.386 . S
C538 C533 1.490 . S
C538 C540 1.395 . S
C538 C541 1.403 . S
H539 C545 0.930 . S
C540 H526 0.930 . S
C540 C538 1.395 . S
C540 C543 1.403 . S
C541 C538 1.403 . S
C541 C542 1.524 . S
C541 C545 1.400 . S
C542 H527 0.960 . S
C542 H528 0.960 . S
C542 H529 0.960 . S
C542 C541 1.524 . S
C543 C540 1.403 . S
C543 C544 1.392 . S
C543 C547 1.495 . S
C544 C543 1.392 . S
C544 C545 1.385 . S
C544 C546 1.478 . S
C545 H539 0.930 . S
C545 C541 1.400 . S
C545 C544 1.385 . S
C546 C544 1.478 . S
C546 C548 1.381 . S
C546 C552 1.383 . S
C547 C543 1.495 . S
C547 H553 0.959 . S
C547 H554 0.961 . S
C547 H555 0.960 . S
C548 C546 1.381 . S
C548 C549 1.394 . S
C548 H556 0.930 . S
C549 C548 1.394 . S
C549 C550 1.383 . S
C549 H557 0.929 . S
C550 C549 1.383 . S
C550 C551 1.377 . S
C551 H535 0.930 . S
C551 C550 1.377 . S
C551 C552 1.379 . S
C552 H536 0.931 . S
C552 C546 1.383 . S
C552 C551 1.379 . S
H553 C547 0.959 . S
H554 C547 0.961 . S
H555 C547 0.960 . S
H556 C548 0.930 . S
H557 C549 0.929 . S
H558 C566 0.929 . S
H559 C568 0.930 . S
H560 C570 0.930 . S
H561 C573 0.929 . S
H562 C576 0.930 . S
H563 C578 0.960 . S
H564 C578 0.960 . S
H565 C578 0.960 . S
C566 H558 0.929 . S
C566 C567 1.377 . S
C566 C568 1.384 . S
C567 C566 1.377 . S
C567 C573 1.390 . S
C568 H559 0.930 . S
C568 C566 1.384 . S
C568 C569 1.372 . S
C569 C568 1.372 . S
C569 C570 1.400 . S
C569 C574 1.490 . S
C570 H560 0.930 . S
C570 C569 1.400 . S
C570 C573 1.386 . S
H571 C587 0.930 . S
H572 C588 0.931 . S
C573 H561 0.929 . S
C573 C567 1.390 . S
C573 C570 1.386 . S
C574 C569 1.490 . S
C574 C576 1.395 . S
C574 C577 1.403 . S
H575 C581 0.930 . S
C576 H562 0.930 . S
C576 C574 1.395 . S
C576 C579 1.403 . S
C577 C574 1.403 . S
C577 C578 1.524 . S
C577 C581 1.400 . S
C578 H563 0.960 . S
C578 H564 0.960 . S
C578 H565 0.960 . S
C578 C577 1.524 . S
C579 C576 1.403 . S
C579 C580 1.392 . S
C579 C583 1.495 . S
C580 C579 1.392 . S
C580 C581 1.385 . S
C580 C582 1.478 . S
C581 H575 0.930 . S
C581 C577 1.400 . S
C581 C580 1.385 . S
C582 C580 1.478 . S
C582 C584 1.381 . S
C582 C588 1.383 . S
C583 C579 1.495 . S
C583 H589 0.959 . S
C583 H590 0.961 . S
C583 H591 0.960 . S
C584 C582 1.381 . S
C584 C585 1.394 . S
C584 H592 0.930 . S
C585 C584 1.394 . S
C585 C586 1.383 . S
C585 H593 0.929 . S
C586 C585 1.383 . S
C586 C587 1.377 . S
C587 H571 0.930 . S
C587 C586 1.377 . S
C587 C588 1.379 . S
C588 H572 0.931 . S
C588 C582 1.383 . S
C588 C587 1.379 . S
H589 C583 0.959 . S
H590 C583 0.961 . S
H591 C583 0.960 . S
H592 C584 0.930 . S
H593 C585 0.929 . S
H594 C602 0.929 . S
H595 C604 0.930 . S
H596 C606 0.930 . S
H597 C609 0.929 . S
H598 C612 0.930 . S
H599 C614 0.960 . S
H600 C614 0.960 . S
H601 C614 0.960 . S
C602 H594 0.929 . S
C602 C603 1.377 . S
C602 C604 1.384 . S
C603 C602 1.377 . S
C603 C609 1.390 . S
C604 H595 0.930 . S
C604 C602 1.384 . S
C604 C605 1.372 . S
C605 C604 1.372 . S
C605 C606 1.400 . S
C605 C610 1.490 . S
C606 H596 0.930 . S
C606 C605 1.400 . S
C606 C609 1.386 . S
H607 C623 0.930 . S
H608 C624 0.931 . S
C609 H597 0.929 . S
C609 C603 1.390 . S
C609 C606 1.386 . S
C610 C605 1.490 . S
C610 C612 1.395 . S
C610 C613 1.403 . S
H611 C617 0.930 . S
C612 H598 0.930 . S
C612 C610 1.395 . S
C612 C615 1.403 . S
C613 C610 1.403 . S
C613 C614 1.524 . S
C613 C617 1.400 . S
C614 H599 0.960 . S
C614 H600 0.960 . S
C614 H601 0.960 . S
C614 C613 1.524 . S
C615 C612 1.403 . S
C615 C616 1.392 . S
C615 C619 1.495 . S
C616 C615 1.392 . S
C616 C617 1.385 . S
C616 C618 1.478 . S
C617 H611 0.930 . S
C617 C613 1.400 . S
C617 C616 1.385 . S
C618 C616 1.478 . S
C618 C620 1.381 . S
C618 C624 1.383 . S
C619 C615 1.495 . S
C619 H625 0.959 . S
C619 H626 0.961 . S
C619 H627 0.960 . S
C620 C618 1.381 . S
C620 C621 1.394 . S
C620 H628 0.930 . S
C621 C620 1.394 . S
C621 C622 1.383 . S
C621 H629 0.929 . S
C622 C621 1.383 . S
C622 C623 1.377 . S
C623 H607 0.930 . S
C623 C622 1.377 . S
C623 C624 1.379 . S
C624 H608 0.931 . S
C624 C618 1.383 . S
C624 C623 1.379 . S
H625 C619 0.959 . S
H626 C619 0.961 . S
H627 C619 0.960 . S
H628 C620 0.930 . S
H629 C621 0.929 . S
H630 C638 0.929 . S
H631 C640 0.930 . S
H632 C642 0.930 . S
H633 C645 0.929 . S
H634 C648 0.930 . S
H635 C650 0.960 . S
H636 C650 0.960 . S
H637 C650 0.960 . S
C638 H630 0.929 . S
C638 C639 1.377 . S
C638 C640 1.384 . S
C639 C638 1.377 . S
C639 C645 1.390 . S
C640 H631 0.930 . S
C640 C638 1.384 . S
C640 C641 1.372 . S
C641 C640 1.372 . S
C641 C642 1.400 . S
C641 C646 1.490 . S
C642 H632 0.930 . S
C642 C641 1.400 . S
C642 C645 1.386 . S
H643 C659 0.930 . S
H644 C660 0.931 . S
C645 H633 0.929 . S
C645 C639 1.390 . S
C645 C642 1.386 . S
C646 C641 1.490 . S
C646 C648 1.395 . S
C646 C649 1.403 . S
H647 C653 0.930 . S
C648 H634 0.930 . S
C648 C646 1.395 . S
C648 C651 1.403 . S
C649 C646 1.403 . S
C649 C650 1.524 . S
C649 C653 1.400 . S
C650 H635 0.960 . S
C650 H636 0.960 . S
C650 H637 0.960 . S
C650 C649 1.524 . S
C651 C648 1.403 . S
C651 C652 1.392 . S
C651 C655 1.495 . S
C652 C651 1.392 . S
C652 C653 1.385 . S
C652 C654 1.478 . S
C653 H647 0.930 . S
C653 C649 1.400 . S
C653 C652 1.385 . S
C654 C652 1.478 . S
C654 C656 1.381 . S
C654 C660 1.383 . S
C655 C651 1.495 . S
C655 H661 0.959 . S
C655 H662 0.961 . S
C655 H663 0.960 . S
C656 C654 1.381 . S
C656 C657 1.394 . S
C656 H664 0.930 . S
C657 C656 1.394 . S
C657 C658 1.383 . S
C657 H665 0.929 . S
C658 C657 1.383 . S
C658 C659 1.377 . S
C659 H643 0.930 . S
C659 C658 1.377 . S
C659 C660 1.379 . S
C660 H644 0.931 . S
C660 C654 1.383 . S
C660 C659 1.379 . S
H661 C655 0.959 . S
H662 C655 0.961 . S
H663 C655 0.960 . S
H664 C656 0.930 . S
H665 C657 0.929 . S
H666 C674 0.929 . S
H667 C676 0.930 . S
H668 C678 0.930 . S
H669 C681 0.929 . S
H670 C684 0.930 . S
H671 C686 0.960 1_554 S
H672 C686 0.960 . S
H673 C686 0.960 . S
C674 H666 0.929 . S
C674 C675 1.377 . S
C674 C676 1.384 . S
C675 C674 1.377 . S
C675 C681 1.390 . S
C676 H667 0.930 . S
C676 C674 1.384 . S
C676 C677 1.372 . S
C677 C676 1.372 . S
C677 C678 1.400 . S
C677 C682 1.490 . S
C678 H668 0.930 . S
C678 C677 1.400 . S
C678 C681 1.386 . S
H679 C695 0.930 . S
H680 C696 0.931 . S
C681 H669 0.929 . S
C681 C675 1.390 . S
C681 C678 1.386 . S
C682 C677 1.490 . S
C682 C684 1.395 . S
C682 C685 1.403 . S
H683 C689 0.930 1_554 S
C684 H670 0.930 . S
C684 C682 1.395 . S
C684 C687 1.403 . S
C685 C682 1.403 . S
C685 C686 1.524 . S
C685 C689 1.400 . S
C686 H671 0.960 1_556 S
C686 H672 0.960 . S
C686 H673 0.960 . S
C686 C685 1.524 . S
C687 C684 1.403 . S
C687 C688 1.392 . S
C687 C691 1.495 . S
C688 C687 1.392 . S
C688 C689 1.385 . S
C688 C690 1.478 . S
C689 H683 0.930 1_556 S
C689 C685 1.400 . S
C689 C688 1.385 . S
C690 C688 1.478 . S
C690 C692 1.382 . S
C690 C696 1.383 1_556 S
C691 C687 1.495 . S
C691 H697 0.959 . S
C691 H698 0.961 . S
C691 H699 0.960 . S
C692 C690 1.382 . S
C692 C693 1.379 1_556 S
C692 H700 0.945 . S
C693 C692 1.379 1_554 S
C693 C694 1.383 . S
C693 H701 0.929 . S
C694 C693 1.383 . S
C694 C695 1.377 . S
C695 H679 0.930 . S
C695 C694 1.377 . S
C695 C696 1.379 . S
C696 H680 0.931 . S
C696 C690 1.383 1_554 S
C696 C695 1.379 . S
H697 C691 0.959 . S
H698 C691 0.961 . S
H699 C691 0.960 . S
H700 C692 0.945 . S
H701 C693 0.929 . S
H702 C710 0.929 . S
H703 C712 0.930 . S
H704 C714 0.930 . S
H705 C717 0.929 . S
H706 C720 0.930 . S
H707 C722 0.960 . S
H708 C722 0.960 . S
H709 C722 0.960 . S
C710 H702 0.929 . S
C710 C711 1.377 . S
C710 C712 1.384 . S
C711 C710 1.377 . S
C711 C717 1.390 . S
C712 H703 0.930 . S
C712 C710 1.384 . S
C712 C713 1.372 . S
C713 C712 1.372 . S
C713 C714 1.400 . S
C713 C718 1.490 . S
C714 H704 0.930 . S
C714 C713 1.400 . S
C714 C717 1.386 . S
H715 C731 0.930 . S
H716 C732 0.931 . S
C717 H705 0.929 . S
C717 C711 1.390 . S
C717 C714 1.386 . S
C718 C713 1.490 . S
C718 C720 1.395 . S
C718 C721 1.403 . S
H719 C725 0.930 . S
C720 H706 0.930 . S
C720 C718 1.395 . S
C720 C723 1.403 . S
C721 C718 1.403 . S
C721 C722 1.524 . S
C721 C725 1.400 . S
C722 H707 0.960 . S
C722 H708 0.960 . S
C722 H709 0.960 . S
C722 C721 1.524 . S
C723 C720 1.403 . S
C723 C724 1.392 . S
C723 C727 1.495 . S
C724 C723 1.392 . S
C724 C725 1.385 . S
C724 C726 1.478 . S
C725 H719 0.930 . S
C725 C721 1.400 . S
C725 C724 1.385 . S
C726 C724 1.478 . S
C726 C728 1.381 . S
C726 C732 1.383 . S
C727 C723 1.495 . S
C727 H733 0.959 . S
C727 H734 0.961 . S
C727 H735 0.960 . S
C728 C726 1.381 . S
C728 C729 1.394 . S
C728 H736 0.930 . S
C729 C728 1.394 . S
C729 C730 1.383 . S
C729 H737 0.929 . S
C730 C729 1.383 . S
C730 C731 1.377 . S
C731 H715 0.930 . S
C731 C730 1.377 . S
C731 C732 1.379 . S
C732 H716 0.931 . S
C732 C726 1.383 . S
C732 C731 1.379 . S
H733 C727 0.959 . S
H734 C727 0.961 . S
H735 C727 0.960 . S
H736 C728 0.930 . S
H737 C729 0.929 . S
H738 C746 0.929 . S
H739 C748 0.930 . S
H740 C750 0.930 . S
H741 C753 0.929 . S
H742 C756 0.930 . S
H743 C758 0.960 . S
H744 C758 0.960 . S
H745 C758 0.960 . S
C746 H738 0.929 . S
C746 C747 1.377 . S
C746 C748 1.384 . S
C747 C746 1.377 . S
C747 C753 1.390 . S
C748 H739 0.930 . S
C748 C746 1.384 . S
C748 C749 1.372 . S
C749 C748 1.372 . S
C749 C750 1.400 . S
C749 C754 1.490 . S
C750 H740 0.930 . S
C750 C749 1.400 . S
C750 C753 1.386 . S
H751 C767 0.930 . S
H752 C768 0.931 . S
C753 H741 0.929 . S
C753 C747 1.390 . S
C753 C750 1.386 . S
C754 C749 1.490 . S
C754 C756 1.395 . S
C754 C757 1.403 . S
H755 C761 0.930 . S
C756 H742 0.930 . S
C756 C754 1.395 . S
C756 C759 1.403 . S
C757 C754 1.403 . S
C757 C758 1.524 . S
C757 C761 1.400 . S
C758 H743 0.960 . S
C758 H744 0.960 . S
C758 H745 0.960 . S
C758 C757 1.524 . S
C759 C756 1.403 . S
C759 C760 1.392 . S
C759 C763 1.495 . S
C760 C759 1.392 . S
C760 C761 1.385 . S
C760 C762 1.478 . S
C761 H755 0.930 . S
C761 C757 1.400 . S
C761 C760 1.385 . S
C762 C760 1.478 . S
C762 C764 1.381 . S
C762 C768 1.383 . S
C763 C759 1.495 . S
C763 H769 0.959 . S
C763 H770 0.961 . S
C763 H771 0.960 . S
C764 C762 1.381 . S
C764 C765 1.394 . S
C764 H772 0.930 . S
C765 C764 1.394 . S
C765 C766 1.383 . S
C765 H773 0.929 . S
C766 C765 1.383 . S
C766 C767 1.377 . S
C767 H751 0.930 . S
C767 C766 1.377 . S
C767 C768 1.379 . S
C768 H752 0.931 . S
C768 C762 1.383 . S
C768 C767 1.379 . S
H769 C763 0.959 . S
H770 C763 0.961 . S
H771 C763 0.960 . S
H772 C764 0.930 . S
H773 C765 0.929 . S
H774 C782 0.929 . S
H775 C784 0.930 . S
H776 C786 0.930 . S
H777 C789 0.929 . S
H778 C792 0.930 . S
H779 C794 0.960 . S
H780 C794 0.960 . S
H781 C794 0.960 . S
C782 H774 0.929 . S
C782 C783 1.377 . S
C782 C784 1.384 . S
C783 C782 1.377 . S
C783 C789 1.390 . S
C784 H775 0.930 . S
C784 C782 1.384 . S
C784 C785 1.372 . S
C785 C784 1.372 . S
C785 C786 1.400 . S
C785 C790 1.490 . S
C786 H776 0.930 . S
C786 C785 1.400 . S
C786 C789 1.386 . S
H787 C803 0.930 . S
H788 C804 0.931 . S
C789 H777 0.929 . S
C789 C783 1.390 . S
C789 C786 1.386 . S
C790 C785 1.490 . S
C790 C792 1.395 . S
C790 C793 1.403 . S
H791 C797 0.930 . S
C792 H778 0.930 . S
C792 C790 1.395 . S
C792 C795 1.403 . S
C793 C790 1.403 . S
C793 C794 1.524 . S
C793 C797 1.400 . S
C794 H779 0.960 . S
C794 H780 0.960 . S
C794 H781 0.960 . S
C794 C793 1.524 . S
C795 C792 1.403 . S
C795 C796 1.392 . S
C795 C799 1.495 . S
C796 C795 1.392 . S
C796 C797 1.385 . S
C796 C798 1.478 . S
C797 H791 0.930 . S
C797 C793 1.400 . S
C797 C796 1.385 . S
C798 C796 1.478 . S
C798 C800 1.381 . S
C798 C804 1.383 . S
C799 C795 1.495 . S
C799 H805 0.959 . S
C799 H806 0.961 . S
C799 H807 0.960 . S
C800 C798 1.381 . S
C800 C801 1.394 . S
C800 H808 0.930 . S
C801 C800 1.394 . S
C801 C802 1.383 . S
C801 H809 0.929 . S
C802 C801 1.383 . S
C802 C803 1.377 . S
C803 H787 0.930 . S
C803 C802 1.377 . S
C803 C804 1.379 . S
C804 H788 0.931 . S
C804 C798 1.383 . S
C804 C803 1.379 . S
H805 C799 0.959 . S
H806 C799 0.961 . S
H807 C799 0.960 . S
H808 C800 0.930 . S
H809 C801 0.929 . S
H810 C818 0.929 . S
H811 C820 0.930 . S
H812 C822 0.930 . S
H813 C825 0.929 . S
H814 C828 0.930 . S
H815 C830 0.960 . S
H816 C830 0.960 . S
H817 C830 0.960 . S
C818 H810 0.929 . S
C818 C819 1.377 . S
C818 C820 1.384 . S
C819 C818 1.377 . S
C819 C825 1.390 . S
C820 H811 0.930 . S
C820 C818 1.384 . S
C820 C821 1.372 . S
C821 C820 1.372 . S
C821 C822 1.400 . S
C821 C826 1.490 . S
C822 H812 0.930 . S
C822 C821 1.400 . S
C822 C825 1.386 . S
H823 C839 0.930 . S
H824 C840 0.931 . S
C825 H813 0.929 . S
C825 C819 1.390 . S
C825 C822 1.386 . S
C826 C821 1.490 . S
C826 C828 1.395 . S
C826 C829 1.403 . S
H827 C833 0.930 . S
C828 H814 0.930 . S
C828 C826 1.395 . S
C828 C831 1.403 . S
C829 C826 1.403 . S
C829 C830 1.524 . S
C829 C833 1.400 . S
C830 H815 0.960 . S
C830 H816 0.960 . S
C830 H817 0.960 . S
C830 C829 1.524 . S
C831 C828 1.403 . S
C831 C832 1.392 . S
C831 C835 1.495 . S
C832 C831 1.392 . S
C832 C833 1.385 . S
C832 C834 1.478 . S
C833 H827 0.930 . S
C833 C829 1.400 . S
C833 C832 1.385 . S
C834 C832 1.478 . S
C834 C836 1.381 . S
C834 C840 1.383 . S
C835 C831 1.495 . S
C835 H841 0.959 . S
C835 H842 0.961 . S
C835 H843 0.960 . S
C836 C834 1.381 . S
C836 C837 1.394 . S
C836 H844 0.930 . S
C837 C836 1.394 . S
C837 C838 1.383 . S
C837 H845 0.929 . S
C838 C837 1.383 . S
C838 C839 1.377 . S
C839 H823 0.930 . S
C839 C838 1.377 . S
C839 C840 1.379 . S
C840 H824 0.931 . S
C840 C834 1.383 . S
C840 C839 1.379 . S
H841 C835 0.959 . S
H842 C835 0.961 . S
H843 C835 0.960 . S
H844 C836 0.930 . S
H845 C837 0.929 . S
H846 C854 0.929 . S
H847 C856 0.930 . S
H848 C858 0.930 . S
H849 C861 0.929 . S
H850 C864 0.930 . S
H851 C866 0.960 . S
H852 C866 0.960 . S
H853 C866 0.960 . S
C854 H846 0.929 . S
C854 C855 1.377 . S
C854 C856 1.384 . S
C855 C854 1.377 . S
C855 C861 1.390 . S
C856 H847 0.930 . S
C856 C854 1.384 . S
C856 C857 1.372 . S
C857 C856 1.372 . S
C857 C858 1.400 . S
C857 C862 1.490 . S
C858 H848 0.930 . S
C858 C857 1.400 . S
C858 C861 1.386 . S
H859 C875 0.930 . S
H860 C876 0.931 . S
C861 H849 0.929 . S
C861 C855 1.390 . S
C861 C858 1.386 . S
C862 C857 1.490 . S
C862 C864 1.395 . S
C862 C865 1.403 . S
H863 C869 0.930 . S
C864 H850 0.930 . S
C864 C862 1.395 . S
C864 C867 1.403 . S
C865 C862 1.403 . S
C865 C866 1.524 . S
C865 C869 1.400 . S
C866 H851 0.960 . S
C866 H852 0.960 . S
C866 H853 0.960 . S
C866 C865 1.524 . S
C867 C864 1.403 . S
C867 C868 1.392 . S
C867 C871 1.495 . S
C868 C867 1.392 . S
C868 C869 1.385 . S
C868 C870 1.478 . S
C869 H863 0.930 . S
C869 C865 1.400 . S
C869 C868 1.385 . S
C870 C868 1.478 . S
C870 C872 1.381 . S
C870 C876 1.383 . S
C871 C867 1.495 . S
C871 H877 0.959 . S
C871 H878 0.961 . S
C871 H879 0.960 . S
C872 C870 1.381 . S
C872 C873 1.394 . S
C872 H880 0.930 . S
C873 C872 1.394 . S
C873 C874 1.383 . S
C873 H881 0.929 . S
C874 C873 1.383 . S
C874 C875 1.377 . S
C875 H859 0.930 . S
C875 C874 1.377 . S
C875 C876 1.379 . S
C876 H860 0.931 . S
C876 C870 1.383 . S
C876 C875 1.379 . S
H877 C871 0.959 . S
H878 C871 0.961 . S
H879 C871 0.960 . S
H880 C872 0.930 . S
H881 C873 0.929 . S
H882 C890 0.929 . S
H883 C892 0.930 . S
H884 C894 0.930 . S
H885 C897 0.929 . S
H886 C900 0.930 . S
H887 C902 0.960 . S
H888 C902 0.960 . S
H889 C902 0.960 . S
C890 H882 0.929 . S
C890 C891 1.377 . S
C890 C892 1.384 . S
C891 C890 1.377 . S
C891 C897 1.390 . S
C892 H883 0.930 . S
C892 C890 1.384 . S
C892 C893 1.372 . S
C893 C892 1.372 . S
C893 C894 1.400 . S
C893 C898 1.490 . S
C894 H884 0.930 . S
C894 C893 1.400 . S
C894 C897 1.386 . S
H895 C911 0.930 . S
H896 C912 0.931 . S
C897 H885 0.929 . S
C897 C891 1.390 . S
C897 C894 1.386 . S
C898 C893 1.490 . S
C898 C900 1.395 . S
C898 C901 1.403 . S
H899 C905 0.930 . S
C900 H886 0.930 . S
C900 C898 1.395 . S
C900 C903 1.403 . S
C901 C898 1.403 . S
C901 C902 1.524 . S
C901 C905 1.400 . S
C902 H887 0.960 . S
C902 H888 0.960 . S
C902 H889 0.960 . S
C902 C901 1.524 . S
C903 C900 1.403 . S
C903 C904 1.392 . S
C903 C907 1.495 . S
C904 C903 1.392 . S
C904 C905 1.385 . S
C904 C906 1.478 . S
C905 H899 0.930 . S
C905 C901 1.400 . S
C905 C904 1.385 . S
C906 C904 1.478 . S
C906 C908 1.381 . S
C906 C912 1.383 . S
C907 C903 1.495 . S
C907 H913 0.959 . S
C907 H914 0.961 . S
C907 H915 0.960 . S
C908 C906 1.381 . S
C908 C909 1.394 1_655 S
C908 H916 0.930 1_655 S
C909 C908 1.394 1_455 S
C909 C910 1.383 . S
C909 H917 0.929 . S
C910 C909 1.383 . S
C910 C911 1.377 1_455 S
C911 H895 0.930 . S
C911 C910 1.377 1_655 S
C911 C912 1.379 . S
C912 H896 0.931 . S
C912 C906 1.383 . S
C912 C911 1.379 . S
H913 C907 0.959 . S
H914 C907 0.961 . S
H915 C907 0.960 . S
H916 C908 0.930 1_455 S
H917 C909 0.929 . S
H918 C926 0.929 . S
H919 C928 0.930 . S
H920 C930 0.930 . S
H921 C933 0.929 . S
H922 C936 0.930 . S
H923 C938 0.960 . S
H924 C938 0.960 . S
H925 C938 0.960 . S
C926 H918 0.929 . S
C926 C927 1.377 . S
C926 C928 1.384 . S
C927 C926 1.377 . S
C927 C933 1.390 . S
C928 H919 0.930 . S
C928 C926 1.384 . S
C928 C929 1.372 . S
C929 C928 1.372 . S
C929 C930 1.400 . S
C929 C934 1.490 . S
C930 H920 0.930 . S
C930 C929 1.400 . S
C930 C933 1.386 . S
H931 C947 0.930 . S
H932 C948 0.931 . S
C933 H921 0.929 . S
C933 C927 1.390 . S
C933 C930 1.386 . S
C934 C929 1.490 . S
C934 C936 1.395 . S
C934 C937 1.403 . S
H935 C941 0.930 . S
C936 H922 0.930 . S
C936 C934 1.395 . S
C936 C939 1.403 . S
C937 C934 1.403 . S
C937 C938 1.524 . S
C937 C941 1.400 . S
C938 H923 0.960 . S
C938 H924 0.960 . S
C938 H925 0.960 . S
C938 C937 1.524 . S
C939 C936 1.403 . S
C939 C940 1.392 . S
C939 C943 1.495 . S
C940 C939 1.392 . S
C940 C941 1.385 . S
C940 C942 1.478 . S
C941 H935 0.930 . S
C941 C937 1.400 . S
C941 C940 1.385 . S
C942 C940 1.478 . S
C942 C944 1.381 . S
C942 C948 1.383 . S
C943 C939 1.495 . S
C943 H949 0.959 . S
C943 H950 0.961 . S
C943 H951 0.960 . S
C944 C942 1.381 . S
C944 C945 1.394 . S
C944 H952 0.930 . S
C945 C944 1.394 . S
C945 C946 1.383 . S
C945 H953 0.929 . S
C946 C945 1.383 . S
C946 C947 1.377 . S
C947 H931 0.930 . S
C947 C946 1.377 . S
C947 C948 1.379 . S
C948 H932 0.931 . S
C948 C942 1.383 . S
C948 C947 1.379 . S
H949 C943 0.959 . S
H950 C943 0.961 . S
H951 C943 0.960 . S
H952 C944 0.930 . S
H953 C945 0.929 . S
H954 C962 0.929 . S
H955 C964 0.930 . S
H956 C966 0.930 . S
H957 C969 0.929 . S
H958 C972 0.930 . S
H959 C974 0.960 . S
H960 C974 0.960 . S
H961 C974 0.960 . S
C962 H954 0.929 . S
C962 C963 1.377 . S
C962 C964 1.384 . S
C963 C962 1.377 . S
C963 C969 1.390 . S
C964 H955 0.930 . S
C964 C962 1.384 . S
C964 C965 1.372 . S
C965 C964 1.372 . S
C965 C966 1.400 . S
C965 C970 1.490 . S
C966 H956 0.930 . S
C966 C965 1.400 . S
C966 C969 1.386 . S
H967 C983 0.930 . S
H968 C984 0.931 . S
C969 H957 0.929 . S
C969 C963 1.390 . S
C969 C966 1.386 . S
C970 C965 1.490 . S
C970 C972 1.395 . S
C970 C973 1.403 . S
H971 C977 0.930 . S
C972 H958 0.930 . S
C972 C970 1.395 . S
C972 C975 1.403 . S
C973 C970 1.403 . S
C973 C974 1.524 . S
C973 C977 1.400 . S
C974 H959 0.960 . S
C974 H960 0.960 . S
C974 H961 0.960 . S
C974 C973 1.524 . S
C975 C972 1.403 . S
C975 C976 1.392 . S
C975 C979 1.495 . S
C976 C975 1.392 . S
C976 C977 1.385 . S
C976 C978 1.478 . S
C977 H971 0.930 . S
C977 C973 1.400 . S
C977 C976 1.385 . S
C978 C976 1.478 . S
C978 C980 1.381 . S
C978 C984 1.383 . S
C979 C975 1.495 . S
C979 H985 0.959 . S
C979 H986 0.961 . S
C979 H987 0.960 . S
C980 C978 1.381 . S
C980 C981 1.394 . S
C980 H988 0.930 . S
C981 C980 1.394 . S
C981 C982 1.383 . S
C981 H989 0.929 . S
C982 C981 1.383 . S
C982 C983 1.377 . S
C983 H967 0.930 . S
C983 C982 1.377 . S
C983 C984 1.379 . S
C984 H968 0.931 . S
C984 C978 1.383 . S
C984 C983 1.379 . S
H985 C979 0.959 . S
H986 C979 0.961 . S
H987 C979 0.960 . S
H988 C980 0.930 . S
H989 C981 0.929 . S
H990 C998 0.929 . S
H991 C1000 0.930 . S
H992 C1002 0.930 . S
H993 C1005 0.929 . S
H994 C1008 0.930 . S
H995 C1010 0.960 . S
H996 C1010 0.960 . S
H997 C1010 0.960 . S
C998 H990 0.929 . S
C998 C999 1.377 . S
C998 C1000 1.384 . S
C999 C998 1.377 . S
C999 C1005 1.390 . S
C1000 H991 0.930 . S
C1000 C998 1.384 . S
C1000 C1001 1.372 . S
C1001 C1000 1.372 . S
C1001 C1002 1.400 . S
C1001 C1006 1.490 . S
C1002 H992 0.930 . S
C1002 C1001 1.400 . S
C1002 C1005 1.386 . S
H1003 C1019 0.954 . S
H1004 C1020 0.931 . S
C1005 H993 0.929 . S
C1005 C999 1.390 . S
C1005 C1002 1.386 . S
C1006 C1001 1.490 . S
C1006 C1008 1.395 . S
C1006 C1009 1.403 . S
H1007 C1013 0.930 . S
C1008 H994 0.930 . S
C1008 C1006 1.395 . S
C1008 C1011 1.403 . S
C1009 C1006 1.403 . S
C1009 C1010 1.524 . S
C1009 C1013 1.400 . S
C1010 H995 0.960 . S
C1010 H996 0.960 . S
C1010 H997 0.960 . S
C1010 C1009 1.524 . S
C1011 C1008 1.403 . S
C1011 C1012 1.392 . S
C1011 C1015 1.495 . S
C1012 C1011 1.392 . S
C1012 C1013 1.385 . S
C1012 C1014 1.478 . S
C1013 H1007 0.930 . S
C1013 C1009 1.400 . S
C1013 C1012 1.385 . S
C1014 C1012 1.478 . S
C1014 C1016 1.381 . S
C1014 C1020 1.383 . S
C1015 C1011 1.495 . S
C1015 H1021 0.959 . S
C1015 H1022 0.961 . S
C1015 H1023 0.960 . S
C1016 C1014 1.381 . S
C1016 C1017 1.394 . S
C1016 H1024 0.930 . S
C1017 C1016 1.394 . S
C1017 C1018 1.383 . S
C1017 H1025 0.929 . S
C1018 C1017 1.383 . S
C1018 C1019 1.377 . S
C1019 H1003 0.954 . S
C1019 C1018 1.377 . S
C1019 C1020 1.379 . S
C1020 H1004 0.931 . S
C1020 C1014 1.383 . S
C1020 C1019 1.379 . S
H1021 C1015 0.959 . S
H1022 C1015 0.961 . S
H1023 C1015 0.960 . S
H1024 C1016 0.930 . S
H1025 C1017 0.929 . S
H1026 C1034 0.929 . S
H1027 C1036 0.930 . S
H1028 C1038 0.930 . S
H1029 C1041 0.929 . S
H1030 C1044 0.930 . S
H1031 C1046 0.960 . S
H1032 C1046 0.960 . S
H1033 C1046 0.960 . S
C1034 H1026 0.929 . S
C1034 C1035 1.377 . S
C1034 C1036 1.384 . S
C1035 C1034 1.377 . S
C1035 C1041 1.390 . S
C1036 H1027 0.930 . S
C1036 C1034 1.384 . S
C1036 C1037 1.372 . S
C1037 C1036 1.372 . S
C1037 C1038 1.400 . S
C1037 C1042 1.490 . S
C1038 H1028 0.930 . S
C1038 C1037 1.400 . S
C1038 C1041 1.386 . S
H1039 C1055 0.930 . S
H1040 C1056 0.931 . S
C1041 H1029 0.929 . S
C1041 C1035 1.390 . S
C1041 C1038 1.386 . S
C1042 C1037 1.490 . S
C1042 C1044 1.395 . S
C1042 C1045 1.403 . S
H1043 C1049 0.930 . S
C1044 H1030 0.930 . S
C1044 C1042 1.395 . S
C1044 C1047 1.403 . S
C1045 C1042 1.403 . S
C1045 C1046 1.524 . S
C1045 C1049 1.400 . S
C1046 H1031 0.960 . S
C1046 H1032 0.960 . S
C1046 H1033 0.960 . S
C1046 C1045 1.524 . S
C1047 C1044 1.403 . S
C1047 C1048 1.392 . S
C1047 C1051 1.495 . S
C1048 C1047 1.392 . S
C1048 C1049 1.385 . S
C1048 C1050 1.478 . S
C1049 H1043 0.930 . S
C1049 C1045 1.400 . S
C1049 C1048 1.385 . S
C1050 C1048 1.478 . S
C1050 C1052 1.381 . S
C1050 C1056 1.383 . S
C1051 C1047 1.495 . S
C1051 H1057 0.959 . S
C1051 H1058 0.961 . S
C1051 H1059 0.960 . S
C1052 C1050 1.381 . S
C1052 C1053 1.394 . S
C1052 H1060 0.930 . S
C1053 C1052 1.394 . S
C1053 C1054 1.383 . S
C1053 H1061 0.929 . S
C1054 C1053 1.383 . S
C1054 C1055 1.377 . S
C1055 H1039 0.930 . S
C1055 C1054 1.377 . S
C1055 C1056 1.379 . S
C1056 H1040 0.931 . S
C1056 C1050 1.383 . S
C1056 C1055 1.379 . S
H1057 C1051 0.959 . S
H1058 C1051 0.961 . S
H1059 C1051 0.960 . S
H1060 C1052 0.930 . S
H1061 C1053 0.929 . S
H1062 C1070 0.929 . S
H1063 C1072 0.930 . S
H1064 C1074 0.930 . S
H1065 C1077 0.929 . S
H1066 C1080 0.930 . S
H1067 C1082 0.960 . S
H1068 C1082 0.960 . S
H1069 C1082 0.960 . S
C1070 H1062 0.929 . S
C1070 C1071 1.377 . S
C1070 C1072 1.384 . S
C1071 C1070 1.377 . S
C1071 C1077 1.390 . S
C1072 H1063 0.930 . S
C1072 C1070 1.384 . S
C1072 C1073 1.372 . S
C1073 C1072 1.372 . S
C1073 C1074 1.400 . S
C1073 C1078 1.490 . S
C1074 H1064 0.930 . S
C1074 C1073 1.400 . S
C1074 C1077 1.386 . S
H1075 C1091 0.930 . S
H1076 C1092 0.931 . S
C1077 H1065 0.929 . S
C1077 C1071 1.390 . S
C1077 C1074 1.386 . S
C1078 C1073 1.490 . S
C1078 C1080 1.395 . S
C1078 C1081 1.403 . S
H1079 C1085 0.930 . S
C1080 H1066 0.930 . S
C1080 C1078 1.395 . S
C1080 C1083 1.403 . S
C1081 C1078 1.403 . S
C1081 C1082 1.524 . S
C1081 C1085 1.400 . S
C1082 H1067 0.960 . S
C1082 H1068 0.960 . S
C1082 H1069 0.960 . S
C1082 C1081 1.524 . S
C1083 C1080 1.403 . S
C1083 C1084 1.392 . S
C1083 C1087 1.495 . S
C1084 C1083 1.392 . S
C1084 C1085 1.385 . S
C1084 C1086 1.478 . S
C1085 H1079 0.930 . S
C1085 C1081 1.400 . S
C1085 C1084 1.385 . S
C1086 C1084 1.478 . S
C1086 C1088 1.381 . S
C1086 C1092 1.383 . S
C1087 C1083 1.495 . S
C1087 H1093 0.959 . S
C1087 H1094 0.961 . S
C1087 H1095 0.960 . S
C1088 C1086 1.381 . S
C1088 C1089 1.394 . S
C1088 H1096 0.930 . S
C1089 C1088 1.394 . S
C1089 C1090 1.383 . S
C1089 H1097 0.929 . S
C1090 C1089 1.383 . S
C1090 C1091 1.377 . S
C1091 H1075 0.930 . S
C1091 C1090 1.377 . S
C1091 C1092 1.379 . S
C1092 H1076 0.931 . S
C1092 C1086 1.383 . S
C1092 C1091 1.379 . S
H1093 C1087 0.959 . S
H1094 C1087 0.961 . S
H1095 C1087 0.960 . S
H1096 C1088 0.930 . S
H1097 C1089 0.929 . S
H1098 C1106 0.929 . S
H1099 C1108 0.930 . S
H1100 C1110 0.930 . S
H1101 C1113 0.929 . S
H1102 C1116 0.930 . S
H1103 C1118 0.960 . S
H1104 C1118 0.960 . S
H1105 C1118 0.960 . S
C1106 H1098 0.929 . S
C1106 C1107 1.377 . S
C1106 C1108 1.384 . S
C1107 C1106 1.377 . S
C1107 C1113 1.390 . S
C1108 H1099 0.930 . S
C1108 C1106 1.384 . S
C1108 C1109 1.372 . S
C1109 C1108 1.372 . S
C1109 C1110 1.400 . S
C1109 C1114 1.490 . S
C1110 H1100 0.930 . S
C1110 C1109 1.400 . S
C1110 C1113 1.386 . S
H1111 C1127 0.930 . S
H1112 C1128 0.931 . S
C1113 H1101 0.929 . S
C1113 C1107 1.390 . S
C1113 C1110 1.386 . S
C1114 C1109 1.490 . S
C1114 C1116 1.395 . S
C1114 C1117 1.403 . S
H1115 C1121 0.930 . S
C1116 H1102 0.930 . S
C1116 C1114 1.395 . S
C1116 C1119 1.403 . S
C1117 C1114 1.403 . S
C1117 C1118 1.524 . S
C1117 C1121 1.400 . S
C1118 H1103 0.960 . S
C1118 H1104 0.960 . S
C1118 H1105 0.960 . S
C1118 C1117 1.524 . S
C1119 C1116 1.403 . S
C1119 C1120 1.392 . S
C1119 C1123 1.495 . S
C1120 C1119 1.392 . S
C1120 C1121 1.385 . S
C1120 C1122 1.478 . S
C1121 H1115 0.930 . S
C1121 C1117 1.400 . S
C1121 C1120 1.385 . S
C1122 C1120 1.478 . S
C1122 C1124 1.381 . S
C1122 C1128 1.383 . S
C1123 C1119 1.495 . S
C1123 H1129 0.959 . S
C1123 H1130 0.961 . S
C1123 H1131 0.960 . S
C1124 C1122 1.381 . S
C1124 C1125 1.394 . S
C1124 H1132 0.930 . S
C1125 C1124 1.394 . S
C1125 C1126 1.383 . S
C1125 H1133 0.929 . S
C1126 C1125 1.383 . S
C1126 C1127 1.377 . S
C1127 H1111 0.930 . S
C1127 C1126 1.377 . S
C1127 C1128 1.379 . S
C1128 H1112 0.931 . S
C1128 C1122 1.383 . S
C1128 C1127 1.379 . S
H1129 C1123 0.959 . S
H1130 C1123 0.961 . S
H1131 C1123 0.960 . S
H1132 C1124 0.930 . S
H1133 C1125 0.929 . S
H1134 C1142 0.929 . S
H1135 C1144 0.930 . S
H1136 C1146 0.930 . S
H1137 C1149 0.929 . S
H1138 C1152 0.930 . S
H1139 C1154 0.960 . S
H1140 C1154 0.960 . S
H1141 C1154 0.960 . S
C1142 H1134 0.929 . S
C1142 C1143 1.377 . S
C1142 C1144 1.384 . S
C1143 C1142 1.377 . S
C1143 C1149 1.390 . S
C1144 H1135 0.930 . S
C1144 C1142 1.384 . S
C1144 C1145 1.372 . S
C1145 C1144 1.372 . S
C1145 C1146 1.400 . S
C1145 C1150 1.490 . S
C1146 H1136 0.930 . S
C1146 C1145 1.400 . S
C1146 C1149 1.386 . S
H1147 C1163 0.930 . S
H1148 C1164 0.931 . S
C1149 H1137 0.929 . S
C1149 C1143 1.390 . S
C1149 C1146 1.386 . S
C1150 C1145 1.490 . S
C1150 C1152 1.395 . S
C1150 C1153 1.403 . S
H1151 C1157 0.930 . S
C1152 H1138 0.930 . S
C1152 C1150 1.395 . S
C1152 C1155 1.403 . S
C1153 C1150 1.403 . S
C1153 C1154 1.524 . S
C1153 C1157 1.400 . S
C1154 H1139 0.960 . S
C1154 H1140 0.960 . S
C1154 H1141 0.960 . S
C1154 C1153 1.524 . S
C1155 C1152 1.403 . S
C1155 C1156 1.392 . S
C1155 C1159 1.495 . S
C1156 C1155 1.392 . S
C1156 C1157 1.385 . S
C1156 C1158 1.478 . S
C1157 H1151 0.930 . S
C1157 C1153 1.400 . S
C1157 C1156 1.385 . S
C1158 C1156 1.478 . S
C1158 C1160 1.381 . S
C1158 C1164 1.383 . S
C1159 C1155 1.495 . S
C1159 H1165 0.959 . S
C1159 H1166 0.961 . S
C1159 H1167 0.960 . S
C1160 C1158 1.381 . S
C1160 C1161 1.394 . S
C1160 H1168 0.930 . S
C1161 C1160 1.394 . S
C1161 C1162 1.383 . S
C1161 H1169 0.929 . S
C1162 C1161 1.383 . S
C1162 C1163 1.377 . S
C1163 H1147 0.930 . S
C1163 C1162 1.377 . S
C1163 C1164 1.379 . S
C1164 H1148 0.931 . S
C1164 C1158 1.383 . S
C1164 C1163 1.379 . S
H1165 C1159 0.959 . S
H1166 C1159 0.961 . S
H1167 C1159 0.960 . S
H1168 C1160 0.930 . S
H1169 C1161 0.929 . S
H1170 C1178 0.929 . S
H1171 C1180 0.930 . S
H1172 C1182 0.930 . S
H1173 C1185 0.929 . S
H1174 C1188 0.930 . S
H1175 C1190 0.960 . S
H1176 C1190 0.960 . S
H1177 C1190 0.960 . S
C1178 H1170 0.929 . S
C1178 C1179 1.377 . S
C1178 C1180 1.384 . S
C1179 C1178 1.377 . S
C1179 C1185 1.390 . S
C1180 H1171 0.930 . S
C1180 C1178 1.384 . S
C1180 C1181 1.372 . S
C1181 C1180 1.372 . S
C1181 C1182 1.400 . S
C1181 C1186 1.490 . S
C1182 H1172 0.930 . S
C1182 C1181 1.400 . S
C1182 C1185 1.386 . S
H1183 C1199 0.930 . S
H1184 C1200 0.931 . S
C1185 H1173 0.929 . S
C1185 C1179 1.390 . S
C1185 C1182 1.386 . S
C1186 C1181 1.490 . S
C1186 C1188 1.395 . S
C1186 C1189 1.403 . S
H1187 C1193 0.930 . S
C1188 H1174 0.930 . S
C1188 C1186 1.395 . S
C1188 C1191 1.403 . S
C1189 C1186 1.403 . S
C1189 C1190 1.524 . S
C1189 C1193 1.400 . S
C1190 H1175 0.960 . S
C1190 H1176 0.960 . S
C1190 H1177 0.960 . S
C1190 C1189 1.524 . S
C1191 C1188 1.403 . S
C1191 C1192 1.392 . S
C1191 C1195 1.495 . S
C1192 C1191 1.392 . S
C1192 C1193 1.385 . S
C1192 C1194 1.478 . S
C1193 H1187 0.930 . S
C1193 C1189 1.400 . S
C1193 C1192 1.385 . S
C1194 C1192 1.478 . S
C1194 C1196 1.381 . S
C1194 C1200 1.383 . S
C1195 C1191 1.495 . S
C1195 H1201 0.959 . S
C1195 H1202 0.961 . S
C1195 H1203 0.960 . S
C1196 C1194 1.381 . S
C1196 C1197 1.394 . S
C1196 H1204 0.930 . S
C1197 C1196 1.394 . S
C1197 C1198 1.383 . S
C1197 H1205 0.929 . S
C1198 C1197 1.383 . S
C1198 C1199 1.377 . S
C1199 H1183 0.930 . S
C1199 C1198 1.377 . S
C1199 C1200 1.379 . S
C1200 H1184 0.931 . S
C1200 C1194 1.383 . S
C1200 C1199 1.379 . S
H1201 C1195 0.959 . S
H1202 C1195 0.961 . S
H1203 C1195 0.960 . S
H1204 C1196 0.930 . S
H1205 C1197 0.929 . S
H1206 C1214 0.929 . S
H1207 C1216 0.930 . S
H1208 C1218 0.930 . S
H1209 C1221 0.929 . S
H1210 C1224 0.930 . S
H1211 C1226 0.960 . S
H1212 C1226 0.960 . S
H1213 C1226 0.960 . S
C1214 H1206 0.929 . S
C1214 C1215 1.377 . S
C1214 C1216 1.384 . S
C1215 C1214 1.377 . S
C1215 C1221 1.390 . S
C1216 H1207 0.930 . S
C1216 C1214 1.384 . S
C1216 C1217 1.372 . S
C1217 C1216 1.372 . S
C1217 C1218 1.400 . S
C1217 C1222 1.490 . S
C1218 H1208 0.930 . S
C1218 C1217 1.400 . S
C1218 C1221 1.386 . S
H1219 C1235 0.930 . S
H1220 C1236 0.931 . S
C1221 H1209 0.929 . S
C1221 C1215 1.390 . S
C1221 C1218 1.386 . S
C1222 C1217 1.490 . S
C1222 C1224 1.395 . S
C1222 C1225 1.403 . S
H1223 C1229 0.930 . S
C1224 H1210 0.930 . S
C1224 C1222 1.395 . S
C1224 C1227 1.403 . S
C1225 C1222 1.403 . S
C1225 C1226 1.524 . S
C1225 C1229 1.400 . S
C1226 H1211 0.960 . S
C1226 H1212 0.960 . S
C1226 H1213 0.960 . S
C1226 C1225 1.524 . S
C1227 C1224 1.403 . S
C1227 C1228 1.392 . S
C1227 C1231 1.495 . S
C1228 C1227 1.392 . S
C1228 C1229 1.385 . S
C1228 C1230 1.478 . S
C1229 H1223 0.930 . S
C1229 C1225 1.400 . S
C1229 C1228 1.385 . S
C1230 C1228 1.478 . S
C1230 C1232 1.381 . S
C1230 C1236 1.383 . S
C1231 C1227 1.495 . S
C1231 H1237 0.959 . S
C1231 H1238 0.961 . S
C1231 H1239 0.960 . S
C1232 C1230 1.381 . S
C1232 C1233 1.394 . S
C1232 H1240 0.930 . S
C1233 C1232 1.394 . S
C1233 C1234 1.383 . S
C1233 H1241 0.929 . S
C1234 C1233 1.383 . S
C1234 C1235 1.377 . S
C1235 H1219 0.930 . S
C1235 C1234 1.377 . S
C1235 C1236 1.379 . S
C1236 H1220 0.931 . S
C1236 C1230 1.383 . S
C1236 C1235 1.379 . S
H1237 C1231 0.959 . S
H1238 C1231 0.961 . S
H1239 C1231 0.960 . S
H1240 C1232 0.930 . S
H1241 C1233 0.929 . S
H1242 C1250 0.929 . S
H1243 C1252 0.930 . S
H1244 C1254 0.930 . S
H1245 C1257 0.929 . S
H1246 C1260 0.930 . S
H1247 C1262 0.960 . S
H1248 C1262 0.960 . S
H1249 C1262 0.960 . S
C1250 H1242 0.929 . S
C1250 C1251 1.377 . S
C1250 C1252 1.384 . S
C1251 C1250 1.377 . S
C1251 C1257 1.390 . S
C1252 H1243 0.930 . S
C1252 C1250 1.384 . S
C1252 C1253 1.372 . S
C1253 C1252 1.372 . S
C1253 C1254 1.400 . S
C1253 C1258 1.490 . S
C1254 H1244 0.930 . S
C1254 C1253 1.400 . S
C1254 C1257 1.386 . S
H1255 C1271 0.930 . S
H1256 C1272 0.931 . S
C1257 H1245 0.929 . S
C1257 C1251 1.390 . S
C1257 C1254 1.386 . S
C1258 C1253 1.490 . S
C1258 C1260 1.395 . S
C1258 C1261 1.403 . S
H1259 C1265 0.930 . S
C1260 H1246 0.930 . S
C1260 C1258 1.395 . S
C1260 C1263 1.403 . S
C1261 C1258 1.403 . S
C1261 C1262 1.524 . S
C1261 C1265 1.400 . S
C1262 H1247 0.960 . S
C1262 H1248 0.960 . S
C1262 H1249 0.960 . S
C1262 C1261 1.524 . S
C1263 C1260 1.403 . S
C1263 C1264 1.392 . S
C1263 C1267 1.495 . S
C1264 C1263 1.392 . S
C1264 C1265 1.385 . S
C1264 C1266 1.478 . S
C1265 H1259 0.930 . S
C1265 C1261 1.400 . S
C1265 C1264 1.385 . S
C1266 C1264 1.478 . S
C1266 C1268 1.381 . S
C1266 C1272 1.383 . S
C1267 C1263 1.495 . S
C1267 H1273 0.959 . S
C1267 H1274 0.961 . S
C1267 H1275 0.960 . S
C1268 C1266 1.381 . S
C1268 C1269 1.394 . S
C1268 H1276 0.930 . S
C1269 C1268 1.394 . S
C1269 C1270 1.383 . S
C1269 H1277 0.929 . S
C1270 C1269 1.383 . S
C1270 C1271 1.377 . S
C1271 H1255 0.930 . S
C1271 C1270 1.377 . S
C1271 C1272 1.379 . S
C1272 H1256 0.931 . S
C1272 C1266 1.383 . S
C1272 C1271 1.379 . S
H1273 C1267 0.959 . S
H1274 C1267 0.961 . S
H1275 C1267 0.960 . S
H1276 C1268 0.930 . S
H1277 C1269 0.929 . S
C442 C118 1.594 . S
C423 C6 1.604 . S
C478 C187 1.405 . S
C459 C18 1.392 . S
C514 C125 1.634 . S
C495 C28 1.633 . S
C550 C188 1.539 . S
C531 C45 1.533 . S
C586 C241 1.440 . S
C567 C4 1.456 . S
C622 C277 1.719 . S
C603 C21 1.709 . S
C639 C33 1.697 . S
C658 C337 1.706 . S
C694 C400 1.720 . S
C675 C40 1.711 . S
C730 C240 1.590 . S
C711 C16 1.573 . S
C747 C30 1.737 . S
C766 C284 1.733 . S
C802 C330 1.646 . S
C783 C42 1.643 . S
C838 C399 1.655 . S
C819 C9 1.665 . S
C855 C52 1.575 . S
C874 C178 1.572 . S
C910 C135 1.724 . S
C891 C69 1.717 . S
C927 C78 1.408 . S
C946 C171 1.405 . S
C963 C93 1.426 . S
C982 C134 1.449 . S
C1018 C346 1.722 1_565 S
C999 C57 1.710 . S
C1054 C390 1.705 . S
C1035 C66 1.716 . S
C1090 C224 1.466 . S
C1071 C76 1.469 . S
C1107 C88 1.533 . S
C1126 C293 1.521 . S
C1162 C347 1.679 . S
C1143 C64 1.668 . S
C1198 C383 1.647 1_556 S
C1179 C81 1.637 . S
C1234 C231 1.440 . S
C1215 C90 1.433 . S
C1251 C54 1.701 . S
C1270 C294 1.685 . S
