# Generated by pormake.
# Topology zzz, (3,6)-cn, num edge types: 1
# Building blocks:
#     Node 0, Type 0, BuildingBlock: MIDCAF_clean_linker_0, # of connection points: 3
#     Node 1, Type 0, BuildingBlock: MIDCAF_clean_linker_0, # of connection points: 3
#     Node 2, Type 0, BuildingBlock: MIDCAF_clean_linker_0, # of connection points: 3
#     Node 3, Type 0, BuildingBlock: MIDCAF_clean_linker_0, # of connection points: 3
#     Node 4, Type 0, BuildingBlock: MIDCAF_clean_linker_0, # of connection points: 3
#     Node 5, Type 0, BuildingBlock: MIDCAF_clean_linker_0, # of connection points: 3
#     Node 6, Type 0, BuildingBlock: MIDCAF_clean_linker_0, # of connection points: 3
#     Node 7, Type 0, BuildingBlock: MIDCAF_clean_linker_0, # of connection points: 3
#     Node 8, Type 1, BuildingBlock: NUHQIS_clean_sbu_0, # of connection points: 6
#     Node 9, Type 1, BuildingBlock: NUHQIS_clean_sbu_0, # of connection points: 6
#     Node 10, Type 1, BuildingBlock: NUHQIS_clean_sbu_0, # of connection points: 6
#     Node 11, Type 1, BuildingBlock: NUHQIS_clean_sbu_0, # of connection points: 6
#     Edge 12, Type (0, 1), BuildingBlock: AJUNOK_clean_linker_0, # of connection points: 2
#     Edge 13, Type (0, 1), BuildingBlock: AJUNOK_clean_linker_0, # of connection points: 2
#     Edge 14, Type (0, 1), BuildingBlock: AJUNOK_clean_linker_0, # of connection points: 2
#     Edge 15, Type (0, 1), BuildingBlock: AJUNOK_clean_linker_0, # of connection points: 2
#     Edge 16, Type (0, 1), BuildingBlock: AJUNOK_clean_linker_0, # of connection points: 2
#     Edge 17, Type (0, 1), BuildingBlock: AJUNOK_clean_linker_0, # of connection points: 2
#     Edge 18, Type (0, 1), BuildingBlock: AJUNOK_clean_linker_0, # of connection points: 2
#     Edge 19, Type (0, 1), BuildingBlock: AJUNOK_clean_linker_0, # of connection points: 2
#     Edge 20, Type (0, 1), BuildingBlock: AJUNOK_clean_linker_0, # of connection points: 2
#     Edge 21, Type (0, 1), BuildingBlock: AJUNOK_clean_linker_0, # of connection points: 2
#     Edge 22, Type (0, 1), BuildingBlock: AJUNOK_clean_linker_0, # of connection points: 2
#     Edge 23, Type (0, 1), BuildingBlock: AJUNOK_clean_linker_0, # of connection points: 2
#     Edge 24, Type (0, 1), BuildingBlock: AJUNOK_clean_linker_0, # of connection points: 2
#     Edge 25, Type (0, 1), BuildingBlock: AJUNOK_clean_linker_0, # of connection points: 2
#     Edge 26, Type (0, 1), BuildingBlock: AJUNOK_clean_linker_0, # of connection points: 2
#     Edge 27, Type (0, 1), BuildingBlock: AJUNOK_clean_linker_0, # of connection points: 2
#     Edge 28, Type (0, 1), BuildingBlock: AJUNOK_clean_linker_0, # of connection points: 2
#     Edge 29, Type (0, 1), BuildingBlock: AJUNOK_clean_linker_0, # of connection points: 2
#     Edge 30, Type (0, 1), BuildingBlock: AJUNOK_clean_linker_0, # of connection points: 2
#     Edge 31, Type (0, 1), BuildingBlock: AJUNOK_clean_linker_0, # of connection points: 2
#     Edge 32, Type (0, 1), BuildingBlock: AJUNOK_clean_linker_0, # of connection points: 2
#     Edge 33, Type (0, 1), BuildingBlock: AJUNOK_clean_linker_0, # of connection points: 2
#     Edge 34, Type (0, 1), BuildingBlock: AJUNOK_clean_linker_0, # of connection points: 2
#     Edge 35, Type (0, 1), BuildingBlock: AJUNOK_clean_linker_0, # of connection points: 2
# Relax obj value: 0.477
# Max RMSD: 0.251
# Mean RMSD: 0.235
data_MOF--net-zzz--node1-NUHQIS_clean_sbu_0--node2-MIDCAF_clean_linker_0--edge1-AJUNOK_clean_linker_0
_symmetry_space_group_name_H-M    P1
_symmetry_Int_Tables_number       1
_symmetry_cell_setting            triclinic
loop_
_symmetry_equiv_pos_as_xyz
'x, y, z'
_cell_length_a     46.026494
_cell_length_b     46.0061
_cell_length_c     14.988745
_cell_angle_alpha  89.910116
_cell_angle_beta   89.617243
_cell_angle_gamma 89.934779
loop_
_atom_site_label
_atom_site_type_symbol
_atom_site_fract_x
_atom_site_fract_y
_atom_site_fract_z
_atom_type_partial_charge
C0 C 0.83924 0.51058 0.37825 0.0
C1 C 0.83853 0.50937 0.47214 0.0
C2 C 0.81166 0.50316 0.51405 0.0
C3 C 0.78695 0.49615 0.46331 0.0
H4 H 0.67476 0.44189 0.21979 0.0
H5 H 0.63139 0.45322 0.13447 0.0
H6 H 0.66659 0.53763 0.07009 0.0
H7 H 0.71042 0.52614 0.15706 0.0
H8 H 0.76219 0.42314 0.05766 0.0
H9 H 0.80046 0.39491 0.9876 0.0
H10 H 0.82601 0.36188 0.24568 0.0
H11 H 0.78882 0.39217 0.31613 0.0
H12 H 0.81667 0.5028 0.25596 0.0
H13 H 0.85938 0.51502 0.34307 0.0
H14 H 0.80993 0.50272 0.58608 0.0
H15 H 0.7673 0.48924 0.49735 0.0
N16 N 0.74125 0.48962 0.28735 0.0
N17 N 0.73414 0.44665 0.20436 0.0
N18 N 0.7761 0.45215 0.28933 0.0
C19 C 0.72431 0.47306 0.23199 0.0
C20 C 0.75982 0.43601 0.23349 0.0
C21 C 0.76722 0.47873 0.31696 0.0
C22 C 0.69595 0.48321 0.19607 0.0
C23 C 0.67297 0.4632 0.18961 0.0
C24 C 0.64801 0.46973 0.14064 0.0
C25 C 0.64536 0.49639 0.09552 0.0
C26 C 0.66794 0.5169 0.10416 0.0
C27 C 0.69288 0.51049 0.15472 0.0
C28 C 0.77313 0.41025 0.19216 0.0
C29 C 0.77507 0.40876 0.09893 0.0
C30 C 0.79702 0.39229 0.05866 0.0
C31 C 0.81684 0.37653 0.1112 0.0
C32 C 0.81154 0.37432 0.20355 0.0
C33 C 0.7902 0.39153 0.24396 0.0
C34 C 0.7884 0.49575 0.36963 0.0
C35 C 0.81462 0.50381 0.32796 0.0
C36 C 0.99512 0.81559 0.46953 0.0
C37 C 0.01453 0.82873 0.53009 0.0
C38 C 0.04169 0.81539 0.54274 0.0
C39 C 0.04975 0.79071 0.49394 0.0
H40 H 0.98943 0.70952 0.18975 0.0
H41 H 0.97517 0.66905 0.09208 0.0
H42 H 0.05621 0.62571 0.14861 0.0
H43 H 0.07006 0.66567 0.24588 0.0
H44 H 0.0905 0.7545 0.08609 0.0
H45 H 0.11734 0.79314 1.01305 0.0
H46 H 0.16053 0.81272 0.26096 0.0
H47 H 0.13138 0.77547 0.33592 0.0
H48 H 0.9886 0.78221 0.37048 0.0
H49 H 0.97399 0.8252 0.45789 0.0
H50 H 0.05763 0.82503 0.58644 0.0
H51 H 0.07152 0.78218 0.50237 0.0
N52 N 0.02991 0.7343 0.32875 0.0
N53 N 0.06988 0.72604 0.2323 0.0
N54 N 0.07044 0.76547 0.32978 0.0
C55 C 0.04355 0.71763 0.26478 0.0
C56 C 0.08343 0.74982 0.26461 0.0
C57 C 0.0439 0.75823 0.36254 0.0
C58 C 0.0308 0.69075 0.22595 0.0
C59 C 1.00366 0.69086 0.18353 0.0
C60 C 0.99577 0.66787 0.12638 0.0
C61 C 0.01482 0.64427 0.11072 0.0
C62 C 0.04096 0.64337 0.15862 0.0
C63 C 0.04889 0.66631 0.21472 0.0
C64 C 0.10829 0.76272 0.21697 0.0
C65 C 0.10659 0.76624 0.12424 0.0
C66 C 0.12212 0.78848 0.08226 0.0
C67 C 0.14002 0.80705 0.1323 0.0
C68 C 0.14576 0.79975 0.22165 0.0
C69 C 0.12939 0.7782 0.2644 0.0
C70 C 0.03108 0.77843 0.43017 0.0
C71 C 1.00326 0.79065 0.42033 0.0
C72 C 0.69956 1.00313 0.50265 0.0
C73 C 0.68708 0.02316 0.56331 0.0
C74 C 0.7011 0.05002 0.57468 0.0
C75 C 0.72575 0.05724 0.52419 0.0
H76 H 0.80739 0.99132 0.23725 0.0
H77 H 0.84843 0.97372 0.14554 0.0
H78 H 0.88823 0.05846 0.16061 0.0
H79 H 0.84792 0.07562 0.252 0.0
H80 H 0.76318 0.09755 0.11237 0.0
H81 H 0.72651 0.12648 0.03898 0.0
H82 H 0.7047 0.16736 0.29026 0.0
H83 H 0.74015 0.13638 0.36486 0.0
H84 H 0.73236 0.99534 0.40181 0.0
H85 H 0.68941 0.9822 0.49204 0.0
H86 H 0.69198 0.06639 0.61851 0.0
H87 H 0.7348 0.07884 0.53146 0.0
N88 N 0.78091 0.03537 0.35611 0.0
N89 N 0.78947 0.07462 0.25759 0.0
N90 N 0.75042 0.07652 0.3573 0.0
C91 C 0.79755 0.04829 0.29058 0.0
C92 C 0.76606 0.08883 0.29074 0.0
C93 C 0.75734 0.05002 0.39061 0.0
C94 C 0.82433 0.03488 0.25184 0.0
C95 C 0.82532 1.00584 0.22282 0.0
C96 C 0.84865 0.99594 0.1692 0.0
C97 C 0.87151 0.01482 0.14416 0.0
C98 C 0.87118 0.04324 0.17827 0.0
C99 C 0.84795 0.05312 0.23072 0.0
C100 C 0.7539 0.11427 0.24442 0.0
C101 C 0.75152 0.11368 0.15124 0.0
C102 C 0.7305 0.1306 0.1089 0.0
C103 C 0.71208 0.14891 0.15901 0.0
C104 C 0.71804 0.15296 0.25012 0.0
C105 C 0.7384 0.13533 0.29288 0.0
C106 C 0.73729 0.038 0.46009 0.0
C107 C 0.72446 1.01042 0.45181 0.0
C108 C 0.41804 0.71672 0.02879 0.0
C109 C 0.38926 0.70921 0.05225 0.0
C110 C 0.37605 0.72393 0.12438 0.0
C111 C 0.39254 0.74216 0.17908 0.0
H112 H 0.45244 0.8456 0.27973 0.0
H113 H 0.46623 0.89033 0.2031 0.0
H114 H 0.54561 0.84956 0.11261 0.0
H115 H 0.53131 0.80441 0.18916 0.0
H116 H 0.436 0.71934 0.45487 0.0
H117 H 0.44673 0.67623 0.54256 0.0
H118 H 0.53811 0.68685 0.48523 0.0
H119 H 0.52709 0.73032 0.39523 0.0
H120 H 0.45672 0.73937 0.06511 0.0
H121 H 0.42939 0.70599 0.97458 0.0
H122 H 0.35355 0.72018 0.14194 0.0
H123 H 0.38281 0.75113 0.23902 0.0
N124 N 0.45566 0.78452 0.2099 0.0
N125 N 0.4868 0.77537 0.33144 0.0
N126 N 0.44989 0.74219 0.29428 0.0
C127 C 0.47782 0.7931 0.26301 0.0
C128 C 0.47232 0.74978 0.34768 0.0
C129 C 0.44154 0.75929 0.22572 0.0
C130 C 0.49114 0.82173 0.24255 0.0
C131 C 0.47346 0.84662 0.24685 0.0
C132 C 0.48138 0.8723 0.20254 0.0
C133 C 0.50716 0.87379 0.15176 0.0
C134 C 0.52561 0.84925 0.15111 0.0
C135 C 0.5177 0.82351 0.1961 0.0
C136 C 0.48069 0.72854 0.41849 0.0
C137 C 0.45853 0.71307 0.46302 0.0
C138 C 0.46471 0.68829 0.51384 0.0
C139 C 0.49333 0.67798 0.52189 0.0
C140 C 0.51579 0.69416 0.48062 0.0
C141 C 0.50957 0.7193 0.42995 0.0
C142 C 0.42186 0.74727 0.15908 0.0
C143 C 0.434 0.73579 0.0811 0.0
C144 C 0.19267 0.5528 0.92707 0.0
C145 C 0.18256 0.5241 0.91958 0.0
C146 C 0.19888 0.50191 0.96157 0.0
C147 C 0.22345 0.50861 1.01392 0.0
H148 H 0.35027 0.55949 0.15901 0.0
H149 H 0.39231 0.54715 0.25052 0.0
H150 H 0.3425 0.47996 0.38107 0.0
H151 H 0.30003 0.49285 0.28978 0.0
H152 H 0.28222 0.59998 0.37028 0.0
H153 H 0.25352 0.62947 0.47391 0.0
H154 H 0.19358 0.64963 0.26194 0.0
H155 H 0.22276 0.62185 0.15852 0.0
H156 H 0.22316 0.58202 0.98465 0.0
H157 H 0.18094 0.57061 0.89661 0.0
H158 H 0.19238 0.4794 0.95554 0.0
H159 H 0.23452 0.49131 0.0491 0.0
N160 N 0.27736 0.53115 0.12016 0.0
N161 N 0.2882 0.56715 0.22745 0.0
N162 N 0.24751 0.57229 0.13726 0.0
C163 C 0.2951 0.54178 0.18601 0.0
C164 C 0.26442 0.58253 0.20348 0.0
C165 C 0.25345 0.54696 0.09484 0.0
C166 C 0.32196 0.5269 0.21611 0.0
C167 C 0.34862 0.54136 0.20468 0.0
C168 C 0.37263 0.53444 0.25764 0.0
C169 C 0.37062 0.51278 0.32356 0.0
C170 C 0.34471 0.49665 0.33042 0.0
C171 C 0.3205 0.5038 0.27755 0.0
C172 C 0.25396 0.60747 0.2572 0.0
C173 C 0.26357 0.6117 0.34512 0.0
C174 C 0.24702 0.62845 0.40469 0.0
C175 C 0.22049 0.64071 0.37731 0.0
C176 C 0.21362 0.64019 0.28608 0.0
C177 C 0.23024 0.62384 0.22662 0.0
C178 C 0.23227 0.53764 0.02506 0.0
C179 C 0.21702 0.55939 0.97836 0.0
C180 C 0.98458 0.18971 0.98762 0.0
C181 C 1.00664 0.18207 0.92649 0.0
C182 C 0.0291 0.20252 0.91136 0.0
C183 C 0.03075 0.22841 0.9617 0.0
H184 H 0.97087 0.33357 0.19054 0.0
H185 H 0.9685 0.37977 0.27143 0.0
H186 H 0.06211 0.38426 0.26895 0.0
H187 H 0.06424 0.33835 0.18768 0.0
H188 H 1.0016 0.27882 0.4154 0.0
H189 H 0.98279 0.2492 0.53827 0.0
H190 H 0.02058 0.17283 0.41615 0.0
H191 H 0.03967 0.20221 0.29576 0.0
H192 H 0.9699 0.21937 0.08842 0.0
H193 H 0.96697 0.1748 1.00195 0.0
H194 H 0.04608 0.19804 0.863 0.0
H195 H 0.04955 0.24233 0.95384 0.0
N196 N 0.01563 0.28456 0.09803 0.0
N197 N 0.02288 0.28664 0.25381 0.0
N198 N 0.0198 0.24172 0.18317 0.0
C199 C 0.01953 0.30051 0.17477 0.0
C200 C 0.02324 0.25739 0.25851 0.0
C201 C 0.01615 0.25469 0.10292 0.0
C202 C 0.01773 0.33265 0.18008 0.0
C203 C 0.99084 0.34535 0.2024 0.0
C204 C 0.98954 0.37155 0.2506 0.0
C205 C 0.01512 0.38575 0.27766 0.0
C206 C 0.04193 0.37432 0.24838 0.0
C207 C 0.04318 0.34808 0.20059 0.0
C208 C 0.02145 0.24255 0.3452 0.0
C209 C 1.0071 0.25593 0.41741 0.0
C210 C 0.99624 0.23903 0.48758 0.0
C211 C 1.00001 0.20876 0.4865 0.0
C212 C 0.01764 0.19616 0.41999 0.0
C213 C 0.02835 0.21295 0.35013 0.0
C214 C 1.00967 0.2348 0.02712 0.0
C215 C 0.98612 0.21553 0.03701 0.0
C216 C 0.33054 0.98643 0.04683 0.0
C217 C 0.33675 1.01023 0.9909 0.0
C218 C 0.31438 0.03112 0.97893 0.0
C219 C 0.28785 0.02935 0.02729 0.0
H220 H 0.17083 0.97019 0.19634 0.0
H221 H 0.12368 0.97142 0.27239 0.0
H222 H 0.13746 0.06156 0.33849 0.0
H223 H 0.18426 0.06025 0.26106 0.0
H224 H 0.23029 0.95947 0.43464 0.0
H225 H 0.25752 0.9374 0.55872 0.0
H226 H 0.32942 0.99502 0.50079 0.0
H227 H 0.30248 0.01688 0.38094 0.0
H228 H 0.30112 0.96614 0.13784 0.0
H229 H 0.3467 0.96985 0.05949 0.0
H230 H 0.31747 0.04922 0.93379 0.0
H231 H 0.27215 0.0468 0.0218 0.0
N232 N 0.23119 1.01254 0.14887 0.0
N233 N 0.22375 1.00295 0.30276 0.0
N234 N 0.2703 1.00041 0.24196 0.0
C235 C 0.21288 1.01043 0.222 0.0
C236 C 0.25238 0.99826 0.31301 0.0
C237 C 0.26041 1.00717 0.15981 0.0
C238 C 0.18107 0.01534 0.22033 0.0
C239 C 0.16289 0.99079 0.22168 0.0
C240 C 0.1361 0.99135 0.26725 0.0
C241 C 0.12677 0.0165 0.31283 0.0
C242 C 0.14358 0.0419 0.30344 0.0
C243 C 0.17037 0.04129 0.25782 0.0
C244 C 0.26454 0.9897 0.39887 0.0
C245 C 0.25146 0.96801 0.45164 0.0
C246 C 0.26697 0.95536 0.52189 0.0
C247 C 0.29529 0.96482 0.54036 0.0
C248 C 0.30728 0.98784 0.49047 0.0
C249 C 0.29202 1.0002 0.42094 0.0
C250 C 0.28279 1.00623 0.08687 0.0
C251 C 0.30409 0.9843 0.09251 0.0
C252 C 0.64034 0.31278 0.2352 0.0
C253 C 0.64747 0.30618 0.32405 0.0
C254 C 0.64067 0.27845 0.3576 0.0
C255 C 0.62326 0.25954 0.3083 0.0
H256 H 0.58316 0.17628 0.26747 0.0
H257 H 0.57038 0.13643 0.36585 0.0
H258 H 0.47984 0.15967 0.34688 0.0
H259 H 0.49275 0.2003 0.24621 0.0
H260 H 0.50182 0.29986 0.15147 0.0
H261 H 0.4895 0.34312 0.06451 0.0
H262 H 0.53685 0.30842 0.83908 0.0
H263 H 0.54986 0.2657 0.92775 0.0
H264 H 0.61565 0.30097 0.12093 0.0
H265 H 0.64504 0.33396 0.20709 0.0
H266 H 0.64621 0.27264 0.42552 0.0
H267 H 0.61597 0.23959 0.33963 0.0
N268 N 0.57556 0.22947 0.22422 0.0
N269 N 0.53184 0.23472 0.14469 0.0
N270 N 0.56954 0.26903 0.12895 0.0
C271 C 0.54884 0.21913 0.20292 0.0
C272 C 0.54271 0.25962 0.10642 0.0
C273 C 0.58609 0.25427 0.18799 0.0
C274 C 0.53905 0.19192 0.24921 0.0
C275 C 0.56039 0.17288 0.28279 0.0
C276 C 0.55309 0.14993 0.33964 0.0
C277 C 0.52416 0.14503 0.36547 0.0
C278 C 0.50237 0.16282 0.32806 0.0
C279 C 0.50975 0.18607 0.2703 0.0
C280 C 0.52598 0.27882 0.04564 0.0
C281 C 0.50829 0.30081 0.08191 0.0
C282 C 0.50143 0.32581 0.03191 0.0
C283 C 0.51211 0.3295 0.94414 0.0
C284 C 0.52835 0.30657 0.90637 0.0
C285 C 0.53534 0.28173 0.9566 0.0
C286 C 0.61238 0.26823 0.22486 0.0
C287 C 0.62303 0.29393 0.18599 0.0
Tb288 Tb 0.02629 0.99711 0.80085 0.0
Eu289 Eu 0.97271 1.0111 0.67011 0.0
C290 C 0.0383 1.01061 0.59824 0.0
C291 C 1.00324 0.06183 0.78615 0.0
C292 C 0.09 0.96378 0.91643 0.0
C293 C 0.13173 0.94606 0.99811 0.0
C294 C 0.11354 0.96894 0.97301 0.0
C295 C 0.08624 0.93615 0.87904 0.0
C296 C 0.10421 0.91321 0.90481 0.0
C297 C 0.12622 0.91769 0.96799 0.0
C298 C 0.06791 0.98641 0.90488 0.0
O299 O 0.98825 1.0066 0.88543 0.0
O300 O 0.95524 0.98779 0.79123 0.0
O301 O 0.98604 0.96575 0.63018 0.0
O302 O 1.01201 0.95379 0.75564 0.0
C303 C 0.96208 0.99622 0.87162 0.0
O304 O 0.92565 0.01423 0.65405 0.0
O305 O 0.9539 0.02432 0.54293 0.0
O306 O 0.01367 0.02512 0.59641 0.0
O307 O 0.04418 0.9934 0.66587 0.0
O308 O 0.02601 0.04467 0.79235 0.0
O309 O 0.97874 0.05201 0.75302 0.0
C310 C 0.99944 0.94637 0.67983 0.0
O311 O 0.07029 1.00268 0.83404 0.0
O312 O 0.04113 0.9783 0.91929 0.0
C313 C 0.91641 0.05718 0.57318 0.0
C314 C 0.92341 0.11741 0.57328 0.0
C315 C 0.91649 0.10309 0.6529 0.0
C316 C 0.9129 0.07302 0.65298 0.0
C317 C 0.91802 0.07229 0.49195 0.0
C318 C 0.92162 0.10241 0.49205 0.0
C319 C 0.92795 0.02736 0.57725 0.0
H320 H 0.14884 0.95014 0.04575 0.0
H321 H 0.11688 0.99027 1.0017 0.0
H322 H 0.06833 0.93193 0.83441 0.0
H323 H 0.09938 0.89156 0.88076 0.0
H324 H 0.91753 0.11452 0.7159 0.0
H325 H 0.91126 0.06207 0.71685 0.0
H326 H 0.92058 0.06059 0.42969 0.0
H327 H 0.92698 0.11327 0.42988 0.0
Tb328 Tb 0.51956 0.03783 0.84545 0.0
Eu329 Eu 0.50356 0.98845 0.70001 0.0
C330 C 0.5097 0.05584 0.64418 0.0
C331 C 0.45496 0.01525 0.83233 0.0
C332 C 0.55422 0.09924 0.96605 0.0
C333 C 0.57319 0.14069 0.04646 0.0
C334 C 0.5502 0.122 0.02687 0.0
C335 C 0.58067 0.09669 0.91978 0.0
C336 C 0.60375 0.11513 0.94006 0.0
C337 C 0.60057 0.13661 1.00618 0.0
C338 C 0.53164 0.07702 0.95683 0.0
O339 O 0.51058 0.99832 0.92315 0.0
O340 O 0.52378 0.96548 0.81734 0.0
O341 O 0.54918 1.00113 0.66231 0.0
O342 O 0.56217 0.02278 0.79441 0.0
C343 C 0.51814 0.97172 0.90096 0.0
O344 O 0.50681 0.94355 0.65303 0.0
O345 O 0.47988 0.97431 0.5825 0.0
O346 O 0.49483 0.03179 0.63201 0.0
O347 O 0.52501 0.05954 0.71697 0.0
O348 O 0.47186 0.03812 0.84026 0.0
O349 O 0.46463 0.99171 0.79259 0.0
C350 C 0.56908 1.01203 0.7151 0.0
O351 O 0.51356 0.08061 0.89125 0.0
O352 O 0.54044 0.05012 0.9632 0.0
C353 C 0.46017 0.9287 0.60805 0.0
C354 C 0.40099 0.91704 0.63277 0.0
C355 C 0.41929 0.91907 0.70691 0.0
C356 C 0.44877 0.92497 0.69462 0.0
C357 C 0.44278 0.92237 0.53431 0.0
C358 C 0.41329 0.91641 0.54665 0.0
C359 C 0.48597 0.94697 0.59551 0.0
H360 H 0.57014 0.15716 0.09713 0.0
H361 H 0.52977 0.12444 0.06245 0.0
H362 H 0.58397 0.07939 0.87184 0.0
H363 H 0.62467 0.11102 0.90904 0.0
H364 H 0.41022 0.91956 0.7738 0.0
H365 H 0.46179 0.92987 0.75266 0.0
H366 H 0.45114 0.92533 0.46715 0.0
H367 H 0.39954 0.91501 0.48841 0.0
Tb368 Tb 0.48219 0.50913 0.79179 0.0
Eu369 Eu 0.52999 0.49383 0.63734 0.0
C370 C 0.4623 0.50179 0.59228 0.0
C371 C 0.50526 0.44458 0.77011 0.0
C372 C 0.42188 0.54373 0.91852 0.0
C373 C 0.39083 0.58155 0.85742 0.0
C374 C 0.40833 0.55695 0.84512 0.0
C375 C 0.4167 0.55452 1.00425 0.0
C376 C 0.39973 0.5793 0.01642 0.0
C377 C 0.38704 0.5936 0.94303 0.0
C378 C 0.44371 0.52072 0.90693 0.0
O379 O 0.52209 0.50002 0.86555 0.0
O380 O 0.55583 0.50907 0.75639 0.0
O381 O 0.51637 0.54004 0.60873 0.0
O382 O 0.49738 0.552 0.74588 0.0
C383 C 0.54907 0.50527 0.84094 0.0
O384 O 0.57108 0.50283 0.5688 0.0
O385 O 0.54361 0.46769 0.52362 0.0
O386 O 0.4855 0.48585 0.57678 0.0
O387 O 0.45979 0.5168 0.66629 0.0
O388 O 0.48249 0.46153 0.78192 0.0
O389 O 0.52829 0.45417 0.72691 0.0
C390 C 0.50669 0.55957 0.6656 0.0
O391 O 0.43987 0.5027 0.84099 0.0
O392 O 0.47066 0.52922 0.9125 0.0
C393 C 0.59379 0.4613 0.50754 0.0
C394 C 0.63344 0.41534 0.48389 0.0
C395 C 0.62313 0.42247 0.56973 0.0
C396 C 0.60332 0.44524 0.58143 0.0
C397 C 0.60592 0.45596 0.42329 0.0
C398 C 0.6256 0.43316 0.41144 0.0
C399 C 0.56863 0.48071 0.5151 0.0
H400 H 0.38147 0.59195 0.79945 0.0
H401 H 0.41221 0.54902 0.77806 0.0
H402 H 0.42716 0.54474 0.06152 0.0
H403 H 0.39846 0.5883 0.08298 0.0
H404 H 0.62874 0.40912 0.62666 0.0
H405 H 0.59409 0.44913 0.64704 0.0
H406 H 0.59868 0.46812 0.36554 0.0
H407 H 0.63254 0.42794 0.34415 0.0
Tb408 Tb 1.00372 0.49021 0.76368 0.0
Eu409 Eu 0.01897 0.54251 0.6226 0.0
C410 C 0.01414 0.47548 0.55878 0.0
C411 C 0.06807 0.51464 0.74927 0.0
C412 C 0.97273 0.42653 0.89022 0.0
C413 C 0.95514 0.38808 0.98727 0.0
C414 C 0.97739 0.40677 0.95986 0.0
C415 C 0.94653 0.42582 0.84337 0.0
C416 C 0.92413 0.40742 0.87132 0.0
C417 C 0.92779 0.38921 0.946 0.0
C418 C 0.99387 0.4498 0.87439 0.0
O419 O 1.01179 0.52886 0.84617 0.0
O420 O 1.0003 0.56402 0.74524 0.0
O421 O 0.97344 0.52922 0.58776 0.0
O422 O 0.96067 0.50428 0.71556 0.0
C423 C 1.00501 0.55602 0.82781 0.0
O424 O 1.01206 0.58687 0.57469 0.0
O425 O 0.0434 0.55911 0.50857 0.0
O426 O 0.02777 0.50039 0.54874 0.0
O427 O 0.9996 0.46964 0.63261 0.0
O428 O 0.05129 0.49166 0.75765 0.0
O429 O 0.05871 0.53833 0.70968 0.0
C430 C 0.95375 0.51673 0.63885 0.0
O431 O 1.01082 0.44705 0.80498 0.0
O432 O 0.9839 0.47623 0.88231 0.0
C433 C 0.05537 0.60813 0.52081 0.0
C434 C 0.10778 0.6393 0.52067 0.0
C435 C 0.09552 0.62963 0.60155 0.0
C436 C 0.06957 0.61388 0.60152 0.0
C437 C 0.06581 0.62053 0.44161 0.0
C438 C 0.09182 0.6361 0.44151 0.0
C439 C 0.03314 0.5854 0.5164 0.0
H440 H 0.95864 0.3742 0.04463 0.0
H441 H 0.99764 0.40693 0.99638 0.0
H442 H 0.94285 0.44078 0.78892 0.0
H443 H 0.90324 0.40928 0.83902 0.0
H444 H 0.10717 0.63216 0.6636 0.0
H445 H 0.06174 0.60443 0.66345 0.0
H446 H 0.05511 0.61626 0.37878 0.0
H447 H 0.10077 0.64316 0.37808 0.0
C448 C 0.10203 0.99211 0.44327 0.0
C449 C 0.10247 0.01493 0.3804 0.0
C450 C 0.08126 0.991 0.51247 0.0
C451 C 0.0596 1.01249 0.52207 0.0
H452 H 0.11847 0.97526 0.44066 0.0
H453 H 0.08234 0.97303 0.5591 0.0
S454 S 0.05023 0.07648 0.37336 0.0
N455 N 0.07871 0.0593 0.33119 0.0
N456 N 0.03959 0.05714 0.46057 0.0
C457 C 0.05935 0.0352 0.45865 0.0
C458 C 0.08078 0.03648 0.3884 0.0
C459 C 0.53391 0.1237 0.51653 0.0
C460 C 0.51791 0.12294 0.43684 0.0
C461 C 0.53055 0.10236 0.5829 0.0
C462 C 0.51113 0.07889 0.57298 0.0
H463 H 0.54948 0.14095 0.52757 0.0
H464 H 0.54382 0.10416 0.64202 0.0
S465 S 0.46346 0.06701 0.37706 0.0
N466 N 0.48138 0.09709 0.35219 0.0
N467 N 0.47502 0.05677 0.47643 0.0
C468 C 0.49453 0.0781 0.49402 0.0
C469 C 0.49786 0.10014 0.42638 0.0
C470 C 0.41023 0.48399 0.40089 0.0
C471 C 0.39406 0.50983 0.39171 0.0
C472 C 0.43261 0.48156 0.46466 0.0
C473 C 0.43913 0.50462 0.52318 0.0
H474 H 0.40575 0.46566 0.35785 0.0
H475 H 0.44457 0.46132 0.46911 0.0
S476 S 0.40293 0.57687 0.52606 0.0
N477 N 0.38627 0.55891 0.44602 0.0
N478 N 0.4275 0.55429 0.56621 0.0
C479 C 0.42289 0.53047 0.51463 0.0
C480 C 0.40061 0.53308 0.44894 0.0
C481 C 0.99726 0.40685 0.4235 0.0
C482 C 0.01406 0.40997 0.34505 0.0
C483 C 0.99749 0.42799 0.49142 0.0
C484 C 0.01439 0.45349 0.48432 0.0
H485 H 0.98432 0.38747 0.43373 0.0
H486 H 0.9843 0.42411 0.55035 0.0
S487 S 0.06102 0.47309 0.28959 0.0
N488 N 0.04719 0.44121 0.26262 0.0
N489 N 0.04769 0.48089 0.3893 0.0
C490 C 0.03088 0.45716 0.40517 0.0
C491 C 0.03073 0.43548 0.33613 0.0
C492 C 0.92408 0.01363 0.09348 0.0
C493 C 0.89479 1.00621 0.07831 0.0
C494 C 0.94576 1.0093 0.02794 0.0
C495 C 0.93922 0.99746 0.94369 0.0
H496 H 0.93025 0.02347 0.15615 0.0
H497 H 0.96772 0.01609 0.04286 0.0
S498 S 0.86593 0.97363 0.8705 0.0
N499 N 0.86059 0.98586 0.97277 0.0
N500 N 0.90104 0.9774 0.85047 0.0
C501 C 0.91013 0.98905 0.92871 0.0
C502 C 0.88807 0.99346 0.99561 0.0
C503 C 0.52038 0.89522 1.00185 0.0
C504 C 0.51293 0.89951 0.0922 0.0
C505 C 0.52276 0.91865 0.94173 0.0
C506 C 0.51786 0.94763 0.96887 0.0
H507 H 0.52336 0.8734 0.97631 0.0
H508 H 0.52777 0.91379 0.87265 0.0
S509 S 0.5006 0.97106 0.20054 0.0
N510 N 0.50281 0.9353 0.20737 0.0
N511 N 0.50704 0.97923 0.09493 0.0
C512 C 0.51144 0.95235 0.05992 0.0
C513 C 0.509 0.9284 0.12119 0.0
C514 C 0.62484 0.50975 0.94513 0.0
C515 C 0.62012 0.5015 0.03458 0.0
C516 C 0.60179 0.51142 0.88386 0.0
C517 C 0.57286 0.50514 0.90927 0.0
H518 H 0.64671 0.51396 0.92135 0.0
H519 H 0.60689 0.51721 0.81548 0.0
S520 S 0.5486 0.48491 0.13839 0.0
N521 N 0.58412 0.48874 0.14702 0.0
N522 N 0.54091 0.49188 0.03305 0.0
C523 C 0.56777 0.49786 0.99964 0.0
C524 C 0.5913 0.49601 0.06176 0.0
C525 C 0.01416 0.59203 0.05694 0.0
C526 C 1.00906 0.62178 0.0401 0.0
C527 C 1.01197 0.57094 0.98904 0.0
C528 C 1.00477 0.57856 0.90064 0.0
H529 H 0.02033 0.58498 0.12315 0.0
H530 H 0.01662 0.54852 1.0059 0.0
S531 S 0.98935 0.65363 0.82084 0.0
N532 N 0.99646 0.65769 0.92787 0.0
N533 N 0.99207 0.61846 0.8011 0.0
C534 C 0.99904 0.60824 0.88337 0.0
C535 C 1.00121 0.62966 0.95264 0.0
C536 C 0.95029 0.19342 0.53107 0.0
C537 C 0.98059 0.18962 0.5389 0.0
C538 C 0.93109 0.17051 0.54913 0.0
C539 C 0.94173 0.14344 0.57649 0.0
H540 H 0.94153 0.21316 0.50231 0.0
H541 H 0.90816 0.17331 0.53565 0.0
S542 S 0.01862 0.12335 0.61552 0.0
N543 N 0.01982 0.15786 0.58565 0.0
N544 N 0.98388 0.1144 0.61578 0.0
C545 C 0.97163 0.14013 0.59174 0.0
C546 C 0.99106 0.16345 0.57447 0.0
C547 C 0.32149 0.9194 0.57842 0.0
C548 C 0.31489 0.94846 0.59973 0.0
C549 C 0.34874 0.90757 0.5991 0.0
C550 C 0.3699 0.92451 0.6417 0.0
H551 H 0.30713 0.90701 0.53598 0.0
H552 H 0.35431 0.88623 0.57373 0.0
S553 S 0.36131 1.00068 0.71856 0.0
N554 N 0.32939 0.9921 0.67734 0.0
N555 N 0.3814 0.97107 0.70934 0.0
C556 C 0.36213 0.95241 0.67201 0.0
C557 C 0.33419 0.96398 0.6535 0.0
C558 C 0.63484 0.33434 0.45978 0.0
C559 C 0.65354 0.33055 0.38601 0.0
C560 C 0.6311 0.36164 0.49894 0.0
C561 C 0.64596 0.38615 0.46589 0.0
H562 H 0.62043 0.31702 0.48105 0.0
H563 H 0.61408 0.36401 0.54866 0.0
S564 S 0.70426 0.38555 0.29422 0.0
N565 N 0.69213 0.35179 0.29606 0.0
N566 N 0.68515 0.40341 0.37009 0.0
C567 C 0.66782 0.38174 0.4013 0.0
C568 C 0.67164 0.35383 0.36134 0.0
C569 C 0.17697 0.66987 0.42419 0.0
C570 C 0.19675 0.64723 0.44232 0.0
C571 C 0.14858 0.66927 0.45871 0.0
C572 C 0.13919 0.64629 0.51371 0.0
H573 H 0.18251 0.68653 0.37584 0.0
H574 H 0.13317 0.68543 0.43584 0.0
S575 S 0.18426 0.58518 0.59685 0.0
N576 N 0.20618 0.6038 0.53075 0.0
N577 N 0.1532 0.60306 0.59657 0.0
C578 C 0.1599 0.62584 0.54226 0.0
C579 C 0.18868 0.62627 0.50651 0.0
C580 C 0.15263 0.84094 1.00636 0.0
C581 C 0.14608 0.8368 0.09748 0.0
C582 C 0.14881 0.8681 0.96538 0.0
C583 C 0.13879 0.89218 0.01442 0.0
H584 H 0.15858 0.82256 0.96497 0.0
H585 H 0.15183 0.86981 0.89382 0.0
S586 S 0.12225 0.89415 0.25689 0.0
N587 N 0.13176 0.86019 0.23699 0.0
N588 N 0.12543 0.91107 0.16032 0.0
C589 C 0.1351 0.88912 0.10709 0.0
C590 C 0.13861 0.86147 0.14866 0.0
C591 C 0.6583 0.14991 0.17651 0.0
C592 C 0.68286 0.1564 0.12347 0.0
C593 C 0.63088 0.14662 0.13869 0.0
C594 C 0.62685 0.14965 0.04631 0.0
H595 H 0.66054 0.14429 0.24631 0.0
H596 H 0.61343 0.13874 0.18107 0.0
S597 S 0.68205 0.17469 0.88236 0.0
N598 N 0.7 0.172 0.97714 0.0
N599 N 0.64819 0.16528 0.90555 0.0
C600 C 0.65031 0.15966 0.99427 0.0
C601 C 0.67835 0.16322 0.03301 0.0
C602 C 0.38411 0.67484 0.92365 0.0
C603 C 0.37618 0.68261 1.01151 0.0
C604 C 0.38418 0.64574 0.89647 0.0
C605 C 0.37518 0.62352 0.95501 0.0
H606 H 0.39341 0.69083 0.87875 0.0
H607 H 0.39424 0.6406 0.83296 0.0
S608 S 0.33936 0.63369 0.17491 0.0
N609 N 0.35093 0.6664 0.14668 0.0
N610 N 0.34823 0.6124 0.09058 0.0
C611 C 0.36118 0.63179 0.03464 0.0
C612 C 0.36224 0.66123 0.06423 0.0
C613 C 0.87063 0.37947 0.12357 0.0
C614 C 0.84633 0.37006 0.07481 0.0
C615 C 0.8978 0.38276 0.08292 0.0
C616 C 0.90185 0.37688 0.99167 0.0
H617 H 0.86826 0.38711 0.19153 0.0
H618 H 0.91497 0.3926 0.12162 0.0
S619 S 0.84747 0.34428 0.84044 0.0
N620 N 0.8296 0.34927 0.93518 0.0
N621 N 0.88091 0.35584 0.85809 0.0
C622 C 0.87872 0.36428 0.94468 0.0
C623 C 0.85093 0.36076 0.98641 0.0
C624 C 0.9807 0.13907 0.85635 0.0
C625 C 1.00682 0.15212 0.88469 0.0
C626 C 0.97981 0.11016 0.82503 0.0
C627 C 1.00502 0.09278 0.81905 0.0
H628 H 0.96056 0.15123 0.85896 0.0
H629 H 0.95902 0.10131 0.80585 0.0
S630 S 0.07913 0.11597 0.88602 0.0
N631 N 0.0586 0.14465 0.90661 0.0
N632 N 0.05713 0.09113 0.84495 0.0
C633 C 0.03138 0.1056 0.84643 0.0
C634 C 0.03224 0.13498 0.87924 0.0
C635 C 0.38216 0.98743 0.92329 0.0
C636 C 0.36668 1.01276 0.94833 0.0
C637 C 0.41039 0.98862 0.88669 0.0
C638 C 0.42483 0.01519 0.87204 0.0
H639 H 0.3722 0.96623 0.92971 0.0
H640 H 0.42086 0.96831 0.869 0.0
S641 S 0.39577 0.08804 0.93166 0.0
N642 N 0.36953 0.06545 0.9609 0.0
N643 N 0.42196 0.06762 0.88945 0.0
C644 C 0.41005 0.04074 0.89791 0.0
C645 C 0.38123 0.03956 0.93607 0.0
C646 C 0.53305 0.37049 0.85099 0.0
C647 C 0.50893 0.35806 0.89544 0.0
C648 C 0.53142 0.39793 0.80932 0.0
C649 C 0.50558 0.41448 0.80988 0.0
H650 H 0.55375 0.35927 0.85035 0.0
H651 H 0.5509 0.40645 0.77797 0.0
S652 S 0.43536 0.391 0.91082 0.0
N653 N 0.45779 0.36389 0.93239 0.0
N654 N 0.45473 0.41537 0.85559 0.0
C655 C 0.48106 0.40202 0.8523 0.0
C656 C 0.48274 0.37398 0.89465 0.0
C657 C 0.14748 0.53416 0.79347 0.0
C658 C 0.15438 0.5184 0.87158 0.0
C659 C 0.11991 0.53239 0.75354 0.0
C660 C 0.09795 0.51432 0.78859 0.0
H661 H 0.16341 0.54854 0.76357 0.0
H662 H 0.11573 0.54555 0.69499 0.0
S663 S 0.10412 0.46847 0.99188 0.0
N664 N 0.13621 0.48425 0.98271 0.0
N665 N 0.08504 0.4801 0.90601 0.0
C666 C 0.1047 0.4977 0.8649 0.0
C667 C 0.13268 0.49987 0.90653 0.0
C668 C 0.99634 0.88063 0.52275 0.0
C669 C 1.00797 0.85762 0.57346 0.0
C670 C 0.99309 0.90881 0.55836 0.0
C671 C 1.00133 0.91552 0.64661 0.0
H672 H 0.99066 0.87717 0.45357 0.0
H673 H 0.98471 0.92566 0.51502 0.0
S674 S 0.03006 0.86242 0.81115 0.0
N675 N 0.02549 0.84307 0.71963 0.0
N676 N 0.0198 0.89581 0.78583 0.0
C677 C 1.01203 0.89246 0.69917 0.0
C678 C 0.01524 0.86369 0.66292 0.0
C679 C 0.63478 1.00667 0.55718 0.0
C680 C 0.65806 0.01766 0.60744 0.0
C681 C 0.60653 1.00442 0.59324 0.0
C682 C 0.6 1.01303 0.6816 0.0
H683 H 0.63812 1.00072 0.48798 0.0
H684 H 0.58953 0.99644 0.55015 0.0
S685 S 0.65373 0.04068 0.84483 0.0
N686 N 0.673 0.03522 0.75305 0.0
N687 N 0.6201 0.03132 0.82029 0.0
C688 C 0.6233 0.02314 0.73373 0.0
C689 C 0.65215 0.02538 0.69692 0.0
C690 C 0.51587 0.6279 0.52144 0.0
C691 C 0.499 0.64907 0.56568 0.0
C692 C 0.51871 0.59946 0.55531 0.0
C693 C 0.50501 0.59075 0.63561 0.0
H694 H 0.52614 0.63301 0.45809 0.0
H695 H 0.53143 0.58402 0.517 0.0
S696 S 0.46008 0.63851 0.78132 0.0
N697 N 0.46976 0.65973 0.6973 0.0
N698 N 0.47489 0.6065 0.76058 0.0
C699 C 0.48886 0.61202 0.68221 0.0
C700 C 0.48588 0.64099 0.6474 0.0
C701 C 0.8869 0.53392 0.49779 0.0
C702 C 0.8663 0.51285 0.52393 0.0
C703 C 0.9145 0.53547 0.53727 0.0
C704 C 0.923 0.51618 0.60563 0.0
H705 H 0.88186 0.54916 0.44494 0.0
H706 H 0.9295 0.55179 0.51268 0.0
S707 S 0.87716 0.45732 0.70115 0.0
N708 N 0.85648 0.47231 0.62412 0.0
N709 N 0.90784 0.47588 0.69986 0.0
C710 C 0.90226 0.49571 0.63502 0.0
C711 C 0.87414 0.4939 0.59401 0.0
loop_
_geom_bond_atom_site_label_1
_geom_bond_atom_site_label_2
_geom_bond_distance
_geom_bond_site_symmetry_2
_ccdc_geom_bond_type
C0 C1 1.384 . S
C0 H13 0.947 . S
C0 C35 1.382 . S
C1 C0 1.384 . S
C1 C2 1.378 . S
C2 C1 1.378 . S
C2 C3 1.378 . S
C2 H14 0.952 . S
C3 C2 1.378 . S
C3 H15 0.950 . S
C3 C34 1.383 . S
H4 C23 0.947 . S
H5 C24 0.946 . S
H6 C26 0.953 . S
H7 C27 0.945 . S
H8 C29 0.952 . S
H9 C30 0.949 . S
H10 C32 0.950 . S
H11 C33 0.948 . S
H12 C35 0.951 . S
H13 C0 0.947 . S
H14 C2 0.952 . S
H15 C3 0.950 . S
N16 C19 1.382 . S
N16 C21 1.363 . S
N17 C19 1.371 . S
N17 C20 1.372 . S
N18 C20 1.361 . S
N18 C21 1.377 . S
C19 N16 1.382 . S
C19 N17 1.371 . S
C19 C22 1.480 . S
C20 N17 1.372 . S
C20 N18 1.361 . S
C20 C28 1.457 . S
C21 N16 1.363 . S
C21 N18 1.377 . S
C21 C34 1.479 . S
C22 C19 1.480 . S
C22 C23 1.383 . S
C22 C27 1.385 . S
C23 H4 0.947 . S
C23 C22 1.383 . S
C23 C24 1.388 . S
C24 H5 0.946 . S
C24 C23 1.388 . S
C24 C25 1.384 . S
C25 C24 1.384 . S
C25 C26 1.377 . S
C26 H6 0.953 . S
C26 C25 1.377 . S
C26 C27 1.369 . S
C27 H7 0.945 . S
C27 C22 1.385 . S
C27 C26 1.369 . S
C28 C20 1.457 . S
C28 C29 1.372 . S
C28 C33 1.364 . S
C29 H8 0.952 . S
C29 C28 1.372 . S
C29 C30 1.389 . S
C30 H9 0.949 . S
C30 C29 1.389 . S
C30 C31 1.387 . S
C31 C30 1.387 . S
C31 C32 1.372 . S
C32 H10 0.950 . S
C32 C31 1.372 . S
C32 C33 1.379 . S
C33 H11 0.948 . S
C33 C28 1.364 . S
C33 C32 1.379 . S
C34 C3 1.383 . S
C34 C21 1.479 . S
C34 C35 1.398 . S
C35 C0 1.382 . S
C35 H12 0.951 . S
C35 C34 1.398 . S
C36 C37 1.384 1_655 S
C36 H49 0.948 . S
C36 C71 1.382 1_655 S
C37 C36 1.384 1_455 S
C37 C38 1.378 . S
C38 C37 1.378 . S
C38 C39 1.378 . S
C38 H50 0.952 . S
C39 C38 1.378 . S
C39 H51 0.950 . S
C39 C70 1.383 . S
H40 C59 0.947 . S
H41 C60 0.952 . S
H42 C62 0.953 . S
H43 C63 0.945 . S
H44 C65 0.949 1_655 S
H45 C66 0.949 . S
H46 C68 0.950 . S
H47 C69 0.948 . S
H48 C71 0.951 1_655 S
H49 C36 0.948 . S
H50 C38 0.952 . S
H51 C39 0.950 . S
N52 C55 1.382 . S
N52 C57 1.363 . S
N53 C55 1.371 . S
N53 C56 1.372 . S
N54 C56 1.361 . S
N54 C57 1.377 . S
C55 N52 1.382 . S
C55 N53 1.371 . S
C55 C58 1.480 . S
C56 N53 1.372 . S
C56 N54 1.361 . S
C56 C64 1.457 . S
C57 N52 1.363 . S
C57 N54 1.377 . S
C57 C70 1.479 . S
C58 C55 1.480 . S
C58 C59 1.383 . S
C58 C63 1.385 . S
C59 H40 0.947 . S
C59 C58 1.383 . S
C59 C60 1.386 1_455 S
C60 H41 0.952 . S
C60 C59 1.386 1_655 S
C60 C61 1.381 1_655 S
C61 C60 1.381 1_455 S
C61 C62 1.377 . S
C62 H42 0.953 . S
C62 C61 1.377 . S
C62 C63 1.369 . S
C63 H43 0.945 . S
C63 C58 1.385 . S
C63 C62 1.369 . S
C64 C56 1.457 . S
C64 C65 1.377 . S
C64 C69 1.364 . S
C65 H44 0.949 1_455 S
C65 C64 1.377 . S
C65 C66 1.387 1_455 S
C66 H45 0.949 . S
C66 C65 1.387 1_655 S
C66 C67 1.387 1_655 S
C67 C66 1.387 1_455 S
C67 C68 1.372 . S
C68 H46 0.950 . S
C68 C67 1.372 . S
C68 C69 1.379 . S
C69 H47 0.948 . S
C69 C64 1.364 . S
C69 C68 1.379 . S
C70 C39 1.383 . S
C70 C57 1.479 . S
C70 C71 1.398 . S
C71 C36 1.382 1_455 S
C71 H48 0.951 1_455 S
C71 C70 1.398 . S
C72 C73 1.384 1_565 S
C72 H85 0.948 . S
C72 C107 1.382 1_565 S
C73 C72 1.384 1_545 S
C73 C74 1.378 . S
C74 C73 1.378 . S
C74 C75 1.378 . S
C74 H86 0.952 . S
C75 C74 1.378 . S
C75 H87 0.950 . S
C75 C106 1.383 . S
H76 C95 0.947 . S
H77 C96 0.952 . S
H78 C98 0.953 . S
H79 C99 0.945 . S
H80 C101 0.949 1_565 S
H81 C102 0.949 . S
H82 C104 0.950 . S
H83 C105 0.948 . S
H84 C107 0.951 1_565 S
H85 C72 0.948 . S
H86 C74 0.952 . S
H87 C75 0.950 . S
N88 C91 1.382 . S
N88 C93 1.363 . S
N89 C91 1.371 . S
N89 C92 1.372 . S
N90 C92 1.361 . S
N90 C93 1.377 . S
C91 N88 1.382 . S
C91 N89 1.371 . S
C91 C94 1.480 . S
C92 N89 1.372 . S
C92 N90 1.361 . S
C92 C100 1.457 . S
C93 N88 1.363 . S
C93 N90 1.377 . S
C93 C106 1.479 . S
C94 C91 1.480 . S
C94 C95 1.383 . S
C94 C99 1.385 . S
C95 H76 0.947 . S
C95 C94 1.383 . S
C95 C96 1.386 1_545 S
C96 H77 0.952 . S
C96 C95 1.386 1_565 S
C96 C97 1.382 1_565 S
C97 C96 1.382 1_545 S
C97 C98 1.377 . S
C98 H78 0.953 . S
C98 C97 1.377 . S
C98 C99 1.369 . S
C99 H79 0.945 . S
C99 C94 1.385 . S
C99 C98 1.369 . S
C100 C92 1.457 . S
C100 C101 1.377 . S
C100 C105 1.364 . S
C101 H80 0.949 1_545 S
C101 C100 1.377 . S
C101 C102 1.387 1_545 S
C102 H81 0.949 . S
C102 C101 1.387 1_565 S
C102 C103 1.387 1_565 S
C103 C102 1.387 1_545 S
C103 C104 1.372 . S
C104 H82 0.950 . S
C104 C103 1.372 . S
C104 C105 1.379 . S
C105 H83 0.948 . S
C105 C100 1.364 . S
C105 C104 1.379 . S
C106 C75 1.383 . S
C106 C93 1.479 . S
C106 C107 1.398 . S
C107 C72 1.382 1_545 S
C107 H84 0.951 1_545 S
C107 C106 1.398 . S
C108 C109 1.384 . S
C108 H121 0.947 . S
C108 C143 1.382 . S
C109 C108 1.384 . S
C109 C110 1.378 . S
C110 C109 1.378 . S
C110 C111 1.378 . S
C110 H122 0.952 . S
C111 C110 1.378 . S
C111 H123 0.950 . S
C111 C142 1.383 . S
H112 C131 0.947 . S
H113 C132 0.946 . S
H114 C134 0.953 . S
H115 C135 0.945 . S
H116 C137 0.952 . S
H117 C138 0.949 . S
H118 C140 0.950 . S
H119 C141 0.948 . S
H120 C143 0.951 . S
H121 C108 0.947 . S
H122 C110 0.952 . S
H123 C111 0.950 . S
N124 C127 1.382 . S
N124 C129 1.363 . S
N125 C127 1.371 . S
N125 C128 1.372 . S
N126 C128 1.361 . S
N126 C129 1.377 . S
C127 N124 1.382 . S
C127 N125 1.371 . S
C127 C130 1.480 . S
C128 N125 1.372 . S
C128 N126 1.361 . S
C128 C136 1.457 . S
C129 N124 1.363 . S
C129 N126 1.377 . S
C129 C142 1.479 . S
C130 C127 1.480 . S
C130 C131 1.383 . S
C130 C135 1.385 . S
C131 H112 0.947 . S
C131 C130 1.383 . S
C131 C132 1.388 . S
C132 H113 0.946 . S
C132 C131 1.388 . S
C132 C133 1.384 . S
C133 C132 1.384 . S
C133 C134 1.377 . S
C134 H114 0.953 . S
C134 C133 1.377 . S
C134 C135 1.369 . S
C135 H115 0.945 . S
C135 C130 1.385 . S
C135 C134 1.369 . S
C136 C128 1.457 . S
C136 C137 1.372 . S
C136 C141 1.364 . S
C137 H116 0.952 . S
C137 C136 1.372 . S
C137 C138 1.389 . S
C138 H117 0.949 . S
C138 C137 1.389 . S
C138 C139 1.387 . S
C139 C138 1.387 . S
C139 C140 1.372 . S
C140 H118 0.950 . S
C140 C139 1.372 . S
C140 C141 1.379 . S
C141 H119 0.948 . S
C141 C136 1.364 . S
C141 C140 1.379 . S
C142 C111 1.383 . S
C142 C129 1.479 . S
C142 C143 1.398 . S
C143 C108 1.382 . S
C143 H120 0.951 . S
C143 C142 1.398 . S
C144 C145 1.384 . S
C144 H157 0.947 . S
C144 C179 1.382 . S
C145 C144 1.384 . S
C145 C146 1.378 . S
C146 C145 1.378 . S
C146 C147 1.378 . S
C146 H158 0.952 . S
C147 C146 1.378 . S
C147 H159 0.950 . S
C147 C178 1.383 . S
H148 C167 0.947 1_556 S
H149 C168 0.946 . S
H150 C170 0.953 . S
H151 C171 0.945 . S
H152 C173 0.952 . S
H153 C174 0.949 . S
H154 C176 0.950 . S
H155 C177 0.948 . S
H156 C179 0.951 . S
H157 C144 0.947 . S
H158 C146 0.952 . S
H159 C147 0.950 . S
N160 C163 1.382 1_556 S
N160 C165 1.363 . S
N161 C163 1.371 . S
N161 C164 1.372 . S
N162 C164 1.361 . S
N162 C165 1.377 1_554 S
C163 N160 1.382 1_554 S
C163 N161 1.371 . S
C163 C166 1.480 . S
C164 N161 1.372 . S
C164 N162 1.361 . S
C164 C172 1.457 . S
C165 N160 1.363 . S
C165 N162 1.377 1_556 S
C165 C178 1.479 . S
C166 C163 1.480 . S
C166 C167 1.383 . S
C166 C171 1.385 . S
C167 H148 0.947 1_554 S
C167 C166 1.383 . S
C167 C168 1.388 . S
C168 H149 0.946 . S
C168 C167 1.388 . S
C168 C169 1.384 . S
C169 C168 1.384 . S
C169 C170 1.377 . S
C170 H150 0.953 . S
C170 C169 1.377 . S
C170 C171 1.369 . S
C171 H151 0.945 . S
C171 C166 1.385 . S
C171 C170 1.369 . S
C172 C164 1.457 . S
C172 C173 1.372 . S
C172 C177 1.364 . S
C173 H152 0.952 . S
C173 C172 1.372 . S
C173 C174 1.389 . S
C174 H153 0.949 . S
C174 C173 1.389 . S
C174 C175 1.387 . S
C175 C174 1.387 . S
C175 C176 1.372 . S
C176 H154 0.950 . S
C176 C175 1.372 . S
C176 C177 1.379 . S
C177 H155 0.948 . S
C177 C172 1.364 . S
C177 C176 1.379 . S
C178 C147 1.383 . S
C178 C165 1.479 . S
C178 C179 1.398 . S
C179 C144 1.382 . S
C179 H156 0.951 . S
C179 C178 1.398 . S
C180 C181 1.384 1_655 S
C180 H193 0.947 . S
C180 C215 1.382 1_655 S
C181 C180 1.384 1_455 S
C181 C182 1.378 . S
C182 C181 1.378 . S
C182 C183 1.378 . S
C182 H194 0.952 . S
C183 C182 1.378 . S
C183 H195 0.950 . S
C183 C214 1.383 . S
H184 C203 0.947 1_556 S
H185 C204 0.950 . S
H186 C206 0.953 . S
H187 C207 0.945 . S
H188 C209 0.947 1_655 S
H189 C210 0.954 . S
H190 C212 0.950 . S
H191 C213 0.948 . S
H192 C215 0.950 1_655 S
H193 C180 0.947 . S
H194 C182 0.952 . S
H195 C183 0.950 . S
N196 C199 1.382 1_556 S
N196 C201 1.363 . S
N197 C199 1.371 . S
N197 C200 1.372 . S
N198 C200 1.361 . S
N198 C201 1.377 1_554 S
C199 N196 1.382 1_554 S
C199 N197 1.371 . S
C199 C202 1.480 . S
C200 N197 1.372 . S
C200 N198 1.361 . S
C200 C208 1.457 . S
C201 N196 1.363 . S
C201 N198 1.377 1_556 S
C201 C214 1.479 . S
C202 C199 1.480 . S
C202 C203 1.383 . S
C202 C207 1.385 . S
C203 H184 0.947 1_554 S
C203 C202 1.383 . S
C203 C204 1.387 1_455 S
C204 H185 0.950 . S
C204 C203 1.387 1_655 S
C204 C205 1.382 1_655 S
C205 C204 1.382 1_455 S
C205 C206 1.377 . S
C206 H186 0.953 . S
C206 C205 1.377 . S
C206 C207 1.369 . S
C207 H187 0.945 . S
C207 C202 1.385 . S
C207 C206 1.369 . S
C208 C200 1.457 . S
C208 C209 1.379 . S
C208 C213 1.364 . S
C209 H188 0.947 1_455 S
C209 C208 1.379 . S
C209 C210 1.387 1_455 S
C210 H189 0.954 . S
C210 C209 1.387 1_655 S
C210 C211 1.383 1_655 S
C211 C210 1.383 1_455 S
C211 C212 1.372 . S
C212 H190 0.950 . S
C212 C211 1.372 . S
C212 C213 1.379 . S
C213 H191 0.948 . S
C213 C208 1.364 . S
C213 C212 1.379 . S
C214 C183 1.383 . S
C214 C201 1.479 . S
C214 C215 1.399 . S
C215 C180 1.382 1_455 S
C215 H192 0.950 1_455 S
C215 C214 1.399 . S
C216 C217 1.384 1_565 S
C216 H229 0.947 . S
C216 C251 1.382 1_565 S
C217 C216 1.384 1_545 S
C217 C218 1.378 . S
C218 C217 1.378 . S
C218 C219 1.378 . S
C218 H230 0.952 . S
C219 C218 1.378 . S
C219 H231 0.950 . S
C219 C250 1.383 . S
H220 C239 0.947 1_556 S
H221 C240 0.950 . S
H222 C242 0.953 . S
H223 C243 0.945 . S
H224 C245 0.948 1_565 S
H225 C246 0.954 . S
H226 C248 0.950 . S
H227 C249 0.948 . S
H228 C251 0.950 1_565 S
H229 C216 0.947 . S
H230 C218 0.952 . S
H231 C219 0.950 . S
N232 C235 1.382 1_556 S
N232 C237 1.363 . S
N233 C235 1.371 . S
N233 C236 1.372 . S
N234 C236 1.361 . S
N234 C237 1.377 1_554 S
C235 N232 1.382 1_554 S
C235 N233 1.371 . S
C235 C238 1.480 . S
C236 N233 1.372 . S
C236 N234 1.361 . S
C236 C244 1.457 . S
C237 N232 1.363 . S
C237 N234 1.377 1_556 S
C237 C250 1.479 . S
C238 C235 1.480 . S
C238 C239 1.383 . S
C238 C243 1.385 . S
C239 H220 0.947 1_554 S
C239 C238 1.383 . S
C239 C240 1.387 1_545 S
C240 H221 0.950 . S
C240 C239 1.387 1_565 S
C240 C241 1.382 1_565 S
C241 C240 1.382 1_545 S
C241 C242 1.377 . S
C242 H222 0.953 . S
C242 C241 1.377 . S
C242 C243 1.369 . S
C243 H223 0.945 . S
C243 C238 1.385 . S
C243 C242 1.369 . S
C244 C236 1.457 . S
C244 C245 1.379 . S
C244 C249 1.364 . S
C245 H224 0.948 1_545 S
C245 C244 1.379 . S
C245 C246 1.387 1_545 S
C246 H225 0.954 . S
C246 C245 1.387 1_565 S
C246 C247 1.384 1_565 S
C247 C246 1.384 1_545 S
C247 C248 1.372 . S
C248 H226 0.950 . S
C248 C247 1.372 . S
C248 C249 1.379 . S
C249 H227 0.948 . S
C249 C244 1.364 . S
C249 C248 1.379 . S
C250 C219 1.383 . S
C250 C237 1.479 . S
C250 C251 1.399 . S
C251 C216 1.382 1_545 S
C251 H228 0.950 1_545 S
C251 C250 1.399 . S
C252 C253 1.384 . S
C252 H265 0.947 . S
C252 C287 1.382 . S
C253 C252 1.384 . S
C253 C254 1.378 . S
C254 C253 1.378 . S
C254 C255 1.378 . S
C254 H266 0.952 . S
C255 C254 1.378 . S
C255 H267 0.950 . S
C255 C286 1.383 . S
H256 C275 0.947 . S
H257 C276 0.946 . S
H258 C278 0.953 1_556 S
H259 C279 0.945 1_556 S
H260 C281 0.952 . S
H261 C282 0.949 . S
H262 C284 0.950 . S
H263 C285 0.948 . S
H264 C287 0.951 . S
H265 C252 0.947 . S
H266 C254 0.952 . S
H267 C255 0.950 . S
N268 C271 1.382 . S
N268 C273 1.363 . S
N269 C271 1.371 1_556 S
N269 C272 1.372 . S
N270 C272 1.361 1_554 S
N270 C273 1.377 . S
C271 N268 1.382 . S
C271 N269 1.371 1_554 S
C271 C274 1.480 . S
C272 N269 1.372 . S
C272 N270 1.361 1_556 S
C272 C280 1.457 . S
C273 N268 1.363 . S
C273 N270 1.377 . S
C273 C286 1.479 . S
C274 C271 1.480 . S
C274 C275 1.383 . S
C274 C279 1.385 . S
C275 H256 0.947 . S
C275 C274 1.383 . S
C275 C276 1.388 . S
C276 H257 0.946 . S
C276 C275 1.388 . S
C276 C277 1.384 . S
C277 C276 1.384 . S
C277 C278 1.377 . S
C278 H258 0.953 1_554 S
C278 C277 1.377 . S
C278 C279 1.369 . S
C279 H259 0.945 1_554 S
C279 C274 1.385 . S
C279 C278 1.369 . S
C280 C272 1.457 . S
C280 C281 1.372 . S
C280 C285 1.364 . S
C281 H260 0.952 . S
C281 C280 1.372 . S
C281 C282 1.389 . S
C282 H261 0.949 . S
C282 C281 1.389 . S
C282 C283 1.387 . S
C283 C282 1.387 . S
C283 C284 1.372 . S
C284 H262 0.950 . S
C284 C283 1.372 . S
C284 C285 1.379 . S
C285 H263 0.948 . S
C285 C280 1.364 . S
C285 C284 1.379 . S
C286 C255 1.383 . S
C286 C273 1.479 . S
C286 C287 1.398 . S
C287 C252 1.382 . S
C287 H264 0.951 . S
C287 C286 1.398 . S
Tb288 C298 2.825 . S
Tb288 O299 2.347 1_455 S
Tb288 O302 2.366 . S
Tb288 O307 2.418 . S
Tb288 O308 2.384 1_565 S
Tb288 O311 2.479 . S
Tb288 O312 2.471 . S
Eu289 O300 2.418 . S
Eu289 O301 2.384 1_545 S
Eu289 O304 2.479 . S
Eu289 O305 2.471 . S
Eu289 O306 2.347 1_655 S
Eu289 O309 2.366 . S
Eu289 C319 2.825 . S
C290 O306 1.259 1_565 S
C290 O307 1.265 . S
C291 O308 1.255 . S
C291 O309 1.265 1_455 S
C292 C294 1.380 . S
C292 C295 1.374 . S
C292 C298 1.507 . S
C293 C294 1.384 1_554 S
C293 C297 1.387 . S
C293 H320 0.930 . S
C294 C292 1.380 . S
C294 C293 1.384 1_556 S
C294 H321 0.931 . S
C295 C292 1.374 . S
C295 C296 1.390 1_556 S
C295 H322 0.930 1_455 S
C296 C295 1.390 1_554 S
C296 C297 1.391 . S
C296 H323 0.930 1_455 S
C297 C293 1.387 . S
C297 C296 1.391 . S
C298 Tb288 2.825 . S
C298 C292 1.507 . S
C298 O311 1.238 . S
C298 O312 1.247 . S
O299 Tb288 2.347 1_655 S
O299 C303 1.259 1_565 S
O300 Eu289 2.418 . S
O300 C303 1.265 . S
O301 Eu289 2.384 1_565 S
O301 C310 1.255 . S
O302 Tb288 2.366 . S
O302 C310 1.265 1_455 S
C303 O299 1.259 1_545 S
C303 O300 1.265 . S
O304 Eu289 2.479 . S
O304 C319 1.238 . S
O305 Eu289 2.471 . S
O305 C319 1.247 . S
O306 Eu289 2.347 1_455 S
O306 C290 1.259 1_545 S
O307 Tb288 2.418 . S
O307 C290 1.265 . S
O308 Tb288 2.384 1_545 S
O308 C291 1.255 . S
O309 Eu289 2.366 . S
O309 C291 1.265 1_655 S
C310 O301 1.255 . S
C310 O302 1.265 1_655 S
O311 Tb288 2.479 . S
O311 C298 1.238 . S
O312 Tb288 2.471 . S
O312 C298 1.247 . S
C313 C316 1.380 . S
C313 C317 1.374 . S
C313 C319 1.507 . S
C314 C315 1.387 . S
C314 C318 1.391 . S
C315 C314 1.387 . S
C315 C316 1.384 . S
C315 H324 0.930 . S
C316 C313 1.380 . S
C316 C315 1.384 . S
C316 H325 0.931 . S
C317 C313 1.374 . S
C317 C318 1.390 . S
C317 H326 0.930 1_655 S
C318 C314 1.391 . S
C318 C317 1.390 . S
C318 H327 0.930 1_655 S
C319 Eu289 2.825 . S
C319 O304 1.238 . S
C319 O305 1.247 . S
C319 C313 1.507 . S
H320 C293 0.930 . S
H321 C294 0.931 . S
H322 C295 0.930 1_655 S
H323 C296 0.930 1_655 S
H324 C315 0.930 . S
H325 C316 0.931 . S
H326 C317 0.930 1_455 S
H327 C318 0.930 1_455 S
Tb328 C338 2.825 . S
Tb328 O339 2.347 1_545 S
Tb328 O342 2.366 . S
Tb328 O347 2.418 . S
Tb328 O348 2.384 . S
Tb328 O351 2.479 . S
Tb328 O352 2.471 . S
Eu329 O340 2.418 . S
Eu329 O341 2.384 . S
Eu329 O344 2.479 . S
Eu329 O345 2.471 . S
Eu329 O346 2.347 1_565 S
Eu329 O349 2.366 . S
Eu329 C359 2.825 . S
C330 O346 1.259 . S
C330 O347 1.265 . S
C331 O348 1.255 . S
C331 O349 1.265 1_545 S
C332 C334 1.380 . S
C332 C335 1.374 . S
C332 C338 1.507 . S
C333 C334 1.384 1_554 S
C333 C337 1.387 . S
C333 H360 0.930 . S
C334 C332 1.380 . S
C334 C333 1.384 1_556 S
C334 H361 0.931 . S
C335 C332 1.374 . S
C335 C336 1.390 1_556 S
C335 H362 0.930 1_545 S
C336 C335 1.390 1_554 S
C336 C337 1.391 . S
C336 H363 0.930 1_545 S
C337 C333 1.387 . S
C337 C336 1.391 . S
C338 Tb328 2.825 . S
C338 C332 1.507 . S
C338 O351 1.238 . S
C338 O352 1.247 . S
O339 Tb328 2.347 1_565 S
O339 C343 1.259 . S
O340 Eu329 2.418 . S
O340 C343 1.265 . S
O341 Eu329 2.384 . S
O341 C350 1.255 . S
O342 Tb328 2.366 . S
O342 C350 1.265 1_545 S
C343 O339 1.259 . S
C343 O340 1.265 . S
O344 Eu329 2.479 . S
O344 C359 1.238 . S
O345 Eu329 2.471 . S
O345 C359 1.247 . S
O346 Eu329 2.347 1_545 S
O346 C330 1.259 . S
O347 Tb328 2.418 . S
O347 C330 1.265 . S
O348 Tb328 2.384 . S
O348 C331 1.255 . S
O349 Eu329 2.366 . S
O349 C331 1.265 1_565 S
C350 O341 1.255 . S
C350 O342 1.265 1_565 S
O351 Tb328 2.479 . S
O351 C338 1.238 . S
O352 Tb328 2.471 . S
O352 C338 1.247 . S
C353 C356 1.380 . S
C353 C357 1.374 . S
C353 C359 1.507 . S
C354 C355 1.387 . S
C354 C358 1.391 . S
C355 C354 1.387 . S
C355 C356 1.384 . S
C355 H364 0.930 . S
C356 C353 1.380 . S
C356 C355 1.384 . S
C356 H365 0.931 . S
C357 C353 1.374 . S
C357 C358 1.390 . S
C357 H366 0.930 1_565 S
C358 C354 1.391 . S
C358 C357 1.390 . S
C358 H367 0.930 1_565 S
C359 Eu329 2.825 . S
C359 O344 1.238 . S
C359 O345 1.247 . S
C359 C353 1.507 . S
H360 C333 0.930 . S
H361 C334 0.931 . S
H362 C335 0.930 1_565 S
H363 C336 0.930 1_565 S
H364 C355 0.930 . S
H365 C356 0.931 . S
H366 C357 0.930 1_545 S
H367 C358 0.930 1_545 S
Tb368 C378 2.825 . S
Tb368 O379 2.347 . S
Tb368 O382 2.366 . S
Tb368 O387 2.418 . S
Tb368 O388 2.384 . S
Tb368 O391 2.479 . S
Tb368 O392 2.471 . S
Eu369 O380 2.418 . S
Eu369 O381 2.384 . S
Eu369 O384 2.479 . S
Eu369 O385 2.471 . S
Eu369 O386 2.347 . S
Eu369 O389 2.366 . S
Eu369 C399 2.825 . S
C370 O386 1.259 . S
C370 O387 1.265 . S
C371 O388 1.255 . S
C371 O389 1.265 . S
C372 C374 1.380 . S
C372 C375 1.374 . S
C372 C378 1.507 . S
C373 C374 1.384 1_554 S
C373 C377 1.387 . S
C373 H400 0.930 . S
C374 C372 1.380 . S
C374 C373 1.384 1_556 S
C374 H401 0.931 . S
C375 C372 1.374 . S
C375 C376 1.390 1_556 S
C375 H402 0.930 . S
C376 C375 1.390 1_554 S
C376 C377 1.391 . S
C376 H403 0.930 . S
C377 C373 1.387 . S
C377 C376 1.391 . S
C378 Tb368 2.825 . S
C378 C372 1.507 . S
C378 O391 1.238 . S
C378 O392 1.247 . S
O379 Tb368 2.347 . S
O379 C383 1.259 . S
O380 Eu369 2.418 . S
O380 C383 1.265 . S
O381 Eu369 2.384 . S
O381 C390 1.255 . S
O382 Tb368 2.366 . S
O382 C390 1.265 . S
C383 O379 1.259 . S
C383 O380 1.265 . S
O384 Eu369 2.479 . S
O384 C399 1.238 . S
O385 Eu369 2.471 . S
O385 C399 1.247 . S
O386 Eu369 2.347 . S
O386 C370 1.259 . S
O387 Tb368 2.418 . S
O387 C370 1.265 . S
O388 Tb368 2.384 . S
O388 C371 1.255 . S
O389 Eu369 2.366 . S
O389 C371 1.265 . S
C390 O381 1.255 . S
C390 O382 1.265 . S
O391 Tb368 2.479 . S
O391 C378 1.238 . S
O392 Tb368 2.471 . S
O392 C378 1.247 . S
C393 C396 1.380 . S
C393 C397 1.374 . S
C393 C399 1.507 . S
C394 C395 1.387 . S
C394 C398 1.391 . S
C395 C394 1.387 . S
C395 C396 1.384 . S
C395 H404 0.930 . S
C396 C393 1.380 . S
C396 C395 1.384 . S
C396 H405 0.931 . S
C397 C393 1.374 . S
C397 C398 1.390 . S
C397 H406 0.930 . S
C398 C394 1.391 . S
C398 C397 1.390 . S
C398 H407 0.930 . S
C399 Eu369 2.825 . S
C399 O384 1.238 . S
C399 O385 1.247 . S
C399 C393 1.507 . S
H400 C373 0.930 . S
H401 C374 0.931 . S
H402 C375 0.930 . S
H403 C376 0.930 . S
H404 C395 0.930 . S
H405 C396 0.931 . S
H406 C397 0.930 . S
H407 C398 0.930 . S
Tb408 C418 2.825 . S
Tb408 O419 2.347 . S
Tb408 O422 2.366 . S
Tb408 O427 2.418 . S
Tb408 O428 2.384 1_655 S
Tb408 O431 2.479 . S
Tb408 O432 2.471 . S
Eu409 O420 2.418 . S
Eu409 O421 2.384 1_455 S
Eu409 O424 2.479 . S
Eu409 O425 2.471 . S
Eu409 O426 2.347 . S
Eu409 O429 2.366 . S
Eu409 C439 2.825 . S
C410 O426 1.259 1_655 S
C410 O427 1.265 . S
C411 O428 1.255 . S
C411 O429 1.265 . S
C412 C414 1.380 . S
C412 C415 1.374 . S
C412 C418 1.507 . S
C413 C414 1.384 1_554 S
C413 C417 1.387 . S
C413 H440 0.930 . S
C414 C412 1.380 . S
C414 C413 1.384 1_556 S
C414 H441 0.931 . S
C415 C412 1.374 . S
C415 C416 1.390 1_556 S
C415 H442 0.930 . S
C416 C415 1.390 1_554 S
C416 C417 1.391 . S
C416 H443 0.930 . S
C417 C413 1.387 . S
C417 C416 1.391 . S
C418 Tb408 2.825 . S
C418 C412 1.507 . S
C418 O431 1.238 . S
C418 O432 1.247 . S
O419 Tb408 2.347 . S
O419 C423 1.259 1_655 S
O420 Eu409 2.418 . S
O420 C423 1.265 . S
O421 Eu409 2.384 1_655 S
O421 C430 1.255 . S
O422 Tb408 2.366 . S
O422 C430 1.265 . S
C423 O419 1.259 1_455 S
C423 O420 1.265 . S
O424 Eu409 2.479 . S
O424 C439 1.238 . S
O425 Eu409 2.471 . S
O425 C439 1.247 . S
O426 Eu409 2.347 . S
O426 C410 1.259 1_455 S
O427 Tb408 2.418 . S
O427 C410 1.265 . S
O428 Tb408 2.384 1_455 S
O428 C411 1.255 . S
O429 Eu409 2.366 . S
O429 C411 1.265 . S
C430 O421 1.255 . S
C430 O422 1.265 . S
O431 Tb408 2.479 . S
O431 C418 1.238 . S
O432 Tb408 2.471 . S
O432 C418 1.247 . S
C433 C436 1.380 . S
C433 C437 1.374 . S
C433 C439 1.507 . S
C434 C435 1.387 . S
C434 C438 1.391 . S
C435 C434 1.387 . S
C435 C436 1.384 . S
C435 H444 0.930 . S
C436 C433 1.380 . S
C436 C435 1.384 . S
C436 H445 0.931 . S
C437 C433 1.374 . S
C437 C438 1.390 . S
C437 H446 0.930 . S
C438 C434 1.391 . S
C438 C437 1.390 . S
C438 H447 0.930 . S
C439 Eu409 2.825 . S
C439 O424 1.238 . S
C439 O425 1.247 . S
C439 C433 1.507 . S
H440 C413 0.930 . S
H441 C414 0.931 . S
H442 C415 0.930 . S
H443 C416 0.930 . S
H444 C435 0.930 . S
H445 C436 0.931 . S
H446 C437 0.930 . S
H447 C438 0.930 . S
C448 C449 1.359 1_565 S
C448 C450 1.419 . S
C448 H452 0.930 . S
C449 C448 1.359 1_545 S
C449 C458 1.439 . S
C450 C448 1.419 . S
C450 C451 1.355 1_565 S
C450 H453 0.929 . S
C451 C450 1.355 1_545 S
C451 C457 1.436 . S
H452 C448 0.930 . S
H453 C450 0.929 . S
S454 N455 1.613 . S
S454 N456 1.610 . S
N455 S454 1.613 . S
N455 C458 1.350 . S
N456 S454 1.610 . S
N456 C457 1.351 . S
C457 C451 1.436 . S
C457 N456 1.351 . S
C457 C458 1.434 . S
C458 C449 1.439 . S
C458 N455 1.350 . S
C458 C457 1.434 . S
C459 C460 1.369 . S
C459 C461 1.419 . S
C459 H463 0.930 . S
C460 C459 1.369 . S
C460 C469 1.429 . S
C461 C459 1.419 . S
C461 C462 1.363 . S
C461 H464 0.929 . S
C462 C461 1.363 . S
C462 C468 1.428 . S
H463 C459 0.930 . S
H464 C461 0.929 . S
S465 N466 1.613 . S
S465 N467 1.610 . S
N466 S465 1.613 . S
N466 C469 1.350 . S
N467 S465 1.610 . S
N467 C468 1.351 . S
C468 C462 1.428 . S
C468 N467 1.351 . S
C468 C469 1.434 . S
C469 C460 1.429 . S
C469 N466 1.350 . S
C469 C468 1.434 . S
C470 C471 1.369 . S
C470 C472 1.419 . S
C470 H474 0.930 . S
C471 C470 1.369 . S
C471 C480 1.429 . S
C472 C470 1.419 . S
C472 C473 1.363 . S
C472 H475 0.929 . S
C473 C472 1.363 . S
C473 C479 1.428 . S
H474 C470 0.930 . S
H475 C472 0.929 . S
S476 N477 1.613 . S
S476 N478 1.610 . S
N477 S476 1.613 . S
N477 C480 1.350 . S
N478 S476 1.610 . S
N478 C479 1.351 . S
C479 C473 1.428 . S
C479 N478 1.351 . S
C479 C480 1.434 . S
C480 C471 1.429 . S
C480 N477 1.350 . S
C480 C479 1.434 . S
C481 C482 1.337 1_655 S
C481 C483 1.419 . S
C481 H485 0.930 . S
C482 C481 1.337 1_455 S
C482 C491 1.462 . S
C483 C481 1.419 . S
C483 C484 1.363 1_655 S
C483 H486 0.929 . S
C484 C483 1.363 1_455 S
C484 C490 1.428 . S
H485 C481 0.930 . S
H486 C483 0.929 . S
S487 N488 1.613 . S
S487 N489 1.610 . S
N488 S487 1.613 . S
N488 C491 1.350 . S
N489 S487 1.610 . S
N489 C490 1.351 . S
C490 C484 1.428 . S
C490 N489 1.351 . S
C490 C491 1.434 . S
C491 C482 1.462 . S
C491 N488 1.350 . S
C491 C490 1.434 . S
C492 C493 1.363 1_545 S
C492 C494 1.419 . S
C492 H496 0.930 . S
C493 C492 1.363 1_565 S
C493 C502 1.435 . S
C494 C492 1.419 . S
C494 C495 1.360 1_544 S
C494 H497 0.929 . S
C495 C494 1.360 1_566 S
C495 C501 1.432 1_556 S
H496 C492 0.930 . S
H497 C494 0.929 . S
S498 N499 1.613 . S
S498 N500 1.610 1_554 S
N499 S498 1.613 . S
N499 C502 1.350 . S
N500 S498 1.610 1_556 S
N500 C501 1.351 1_556 S
C501 C495 1.432 1_554 S
C501 N500 1.351 1_554 S
C501 C502 1.434 . S
C502 C493 1.435 . S
C502 N499 1.350 . S
C502 C501 1.434 . S
C503 C504 1.369 . S
C503 C505 1.419 . S
C503 H507 0.930 . S
C504 C503 1.369 . S
C504 C513 1.429 . S
C505 C503 1.419 . S
C505 C506 1.363 1_554 S
C505 H508 0.929 . S
C506 C505 1.363 1_556 S
C506 C512 1.428 1_556 S
H507 C503 0.930 . S
H508 C505 0.929 . S
S509 N510 1.613 . S
S509 N511 1.610 . S
N510 S509 1.613 . S
N510 C513 1.350 . S
N511 S509 1.610 . S
N511 C512 1.351 . S
C512 C506 1.428 1_554 S
C512 N511 1.351 . S
C512 C513 1.434 . S
C513 C504 1.429 . S
C513 N510 1.350 . S
C513 C512 1.434 . S
C514 C515 1.369 . S
C514 C516 1.419 . S
C514 H518 0.930 . S
C515 C514 1.369 . S
C515 C524 1.429 . S
C516 C514 1.419 . S
C516 C517 1.363 1_554 S
C516 H519 0.929 1_554 S
C517 C516 1.363 1_556 S
C517 C523 1.428 1_556 S
H518 C514 0.930 . S
H519 C516 0.929 1_556 S
S520 N521 1.613 . S
S520 N522 1.610 . S
N521 S520 1.613 . S
N521 C524 1.350 . S
N522 S520 1.610 . S
N522 C523 1.351 . S
C523 C517 1.428 1_554 S
C523 N522 1.351 . S
C523 C524 1.434 . S
C524 C515 1.429 . S
C524 N521 1.350 . S
C524 C523 1.434 . S
C525 C526 1.338 1_455 S
C525 C527 1.419 . S
C525 H529 0.930 . S
C526 C525 1.338 1_655 S
C526 C535 1.462 . S
C527 C525 1.419 . S
C527 C528 1.363 1_454 S
C527 H530 0.929 . S
C528 C527 1.363 1_656 S
C528 C534 1.428 1_556 S
H529 C525 0.930 . S
H530 C527 0.929 . S
S531 N532 1.613 . S
S531 N533 1.610 . S
N532 S531 1.613 . S
N532 C535 1.350 . S
N533 S531 1.610 . S
N533 C534 1.351 . S
C534 C528 1.428 1_554 S
C534 N533 1.351 . S
C534 C535 1.434 . S
C535 C526 1.462 . S
C535 N532 1.350 . S
C535 C534 1.434 . S
C536 C537 1.340 1_655 S
C536 C538 1.419 . S
C536 H540 0.930 . S
C537 C536 1.340 1_455 S
C537 C546 1.436 . S
C538 C536 1.419 . S
C538 C539 1.363 . S
C538 H541 0.929 . S
C539 C538 1.363 . S
C539 C545 1.428 . S
H540 C536 0.930 . S
H541 C538 0.929 . S
S542 N543 1.613 . S
S542 N544 1.610 1_455 S
N543 S542 1.613 . S
N543 C546 1.350 . S
N544 S542 1.610 1_655 S
N544 C545 1.351 . S
C545 C539 1.428 . S
C545 N544 1.351 . S
C545 C546 1.434 1_655 S
C546 C537 1.436 . S
C546 N543 1.350 . S
C546 C545 1.434 1_455 S
C547 C548 1.337 1_565 S
C547 C549 1.419 . S
C547 H551 0.930 . S
C548 C547 1.337 1_545 S
C548 C557 1.437 . S
C549 C547 1.419 . S
C549 C550 1.363 . S
C549 H552 0.929 . S
C550 C549 1.363 . S
C550 C556 1.428 . S
H551 C547 0.930 . S
H552 C549 0.929 . S
S553 N554 1.613 . S
S553 N555 1.610 1_545 S
N554 S553 1.613 . S
N554 C557 1.350 . S
N555 S553 1.610 1_565 S
N555 C556 1.351 . S
C556 C550 1.428 . S
C556 N555 1.351 . S
C556 C557 1.434 1_565 S
C557 C548 1.437 . S
C557 N554 1.350 . S
C557 C556 1.434 1_545 S
C558 C559 1.369 . S
C558 C560 1.419 . S
C558 H562 0.930 . S
C559 C558 1.369 . S
C559 C568 1.429 . S
C560 C558 1.419 . S
C560 C561 1.363 . S
C560 H563 0.929 . S
C561 C560 1.363 . S
C561 C567 1.428 . S
H562 C558 0.930 . S
H563 C560 0.929 . S
S564 N565 1.613 . S
S564 N566 1.610 . S
N565 S564 1.613 . S
N565 C568 1.350 . S
N566 S564 1.610 . S
N566 C567 1.351 . S
C567 C561 1.428 . S
C567 N566 1.351 . S
C567 C568 1.434 . S
C568 C559 1.429 . S
C568 N565 1.350 . S
C568 C567 1.434 . S
C569 C570 1.369 . S
C569 C571 1.419 . S
C569 H573 0.930 . S
C570 C569 1.369 . S
C570 C579 1.429 . S
C571 C569 1.419 . S
C571 C572 1.363 . S
C571 H574 0.929 . S
C572 C571 1.363 . S
C572 C578 1.428 . S
H573 C569 0.930 . S
H574 C571 0.929 . S
S575 N576 1.613 . S
S575 N577 1.610 . S
N576 S575 1.613 . S
N576 C579 1.350 . S
N577 S575 1.610 . S
N577 C578 1.351 . S
C578 C572 1.428 . S
C578 N577 1.351 . S
C578 C579 1.434 . S
C579 C570 1.429 . S
C579 N576 1.350 . S
C579 C578 1.434 . S
C580 C581 1.341 1_455 S
C580 C582 1.419 . S
C580 H584 0.930 . S
C581 C580 1.341 1_655 S
C581 C590 1.434 . S
C582 C580 1.419 . S
C582 C583 1.363 . S
C582 H585 0.929 . S
C583 C582 1.363 . S
C583 C589 1.428 . S
H584 C580 0.930 . S
H585 C582 0.929 . S
S586 N587 1.613 . S
S586 N588 1.610 1_655 S
N587 S586 1.613 . S
N587 C590 1.350 . S
N588 S586 1.610 1_455 S
N588 C589 1.351 . S
C589 C583 1.428 . S
C589 N588 1.351 . S
C589 C590 1.434 1_455 S
C590 C581 1.434 . S
C590 N587 1.350 . S
C590 C589 1.434 1_655 S
C591 C592 1.369 . S
C591 C593 1.419 1_565 S
C591 H595 0.930 . S
C592 C591 1.369 . S
C592 C601 1.429 1_565 S
C593 C591 1.419 1_545 S
C593 C594 1.363 . S
C593 H596 0.929 . S
C594 C593 1.363 . S
C594 C600 1.428 . S
H595 C591 0.930 . S
H596 C593 0.929 . S
S597 N598 1.613 1_556 S
S597 N599 1.610 1_556 S
N598 S597 1.613 1_554 S
N598 C601 1.350 . S
N599 S597 1.610 1_554 S
N599 C600 1.351 . S
C600 C594 1.428 . S
C600 N599 1.351 . S
C600 C601 1.434 . S
C601 C592 1.429 1_545 S
C601 N598 1.350 . S
C601 C600 1.434 . S
C602 C603 1.369 . S
C602 C604 1.419 . S
C602 H606 0.930 . S
C603 C602 1.369 . S
C603 C612 1.429 . S
C604 C602 1.419 . S
C604 C605 1.363 . S
C604 H607 0.929 . S
C605 C604 1.363 . S
C605 C611 1.428 . S
H606 C602 0.930 . S
H607 C604 0.929 . S
S608 N609 1.613 . S
S608 N610 1.610 . S
N609 S608 1.613 . S
N609 C612 1.350 . S
N610 S608 1.610 . S
N610 C611 1.351 . S
C611 C605 1.428 . S
C611 N610 1.351 . S
C611 C612 1.434 . S
C612 C603 1.429 . S
C612 N609 1.350 . S
C612 C611 1.434 . S
C613 C614 1.369 . S
C613 C615 1.419 . S
C613 H617 0.930 . S
C614 C613 1.369 . S
C614 C623 1.429 . S
C615 C613 1.419 . S
C615 C616 1.363 . S
C615 H618 0.929 . S
C616 C615 1.363 . S
C616 C622 1.428 . S
H617 C613 0.930 . S
H618 C615 0.929 . S
S619 N620 1.613 . S
S619 N621 1.610 . S
N620 S619 1.613 . S
N620 C623 1.350 1_556 S
N621 S619 1.610 . S
N621 C622 1.351 1_556 S
C622 C616 1.428 . S
C622 N621 1.351 1_554 S
C622 C623 1.434 . S
C623 C614 1.429 . S
C623 N620 1.350 1_554 S
C623 C622 1.434 . S
C624 C625 1.369 1_655 S
C624 C626 1.419 . S
C624 H628 0.930 . S
C625 C624 1.369 1_455 S
C625 C634 1.429 . S
C626 C624 1.419 . S
C626 C627 1.363 1_655 S
C626 H629 0.929 . S
C627 C626 1.363 1_455 S
C627 C633 1.428 . S
H628 C624 0.930 . S
H629 C626 0.929 . S
S630 N631 1.613 . S
S630 N632 1.610 . S
N631 S630 1.613 . S
N631 C634 1.350 . S
N632 S630 1.610 . S
N632 C633 1.351 . S
C633 C627 1.428 . S
C633 N632 1.351 . S
C633 C634 1.434 . S
C634 C625 1.429 . S
C634 N631 1.350 . S
C634 C633 1.434 . S
C635 C636 1.369 1_565 S
C635 C637 1.419 . S
C635 H639 0.930 . S
C636 C635 1.369 1_545 S
C636 C645 1.429 . S
C637 C635 1.419 . S
C637 C638 1.363 1_565 S
C637 H640 0.929 . S
C638 C637 1.363 1_545 S
C638 C644 1.428 . S
H639 C635 0.930 . S
H640 C637 0.929 . S
S641 N642 1.613 . S
S641 N643 1.610 . S
N642 S641 1.613 . S
N642 C645 1.350 . S
N643 S641 1.610 . S
N643 C644 1.351 . S
C644 C638 1.428 . S
C644 N643 1.351 . S
C644 C645 1.434 . S
C645 C636 1.429 . S
C645 N642 1.350 . S
C645 C644 1.434 . S
C646 C647 1.369 . S
C646 C648 1.419 . S
C646 H650 0.930 . S
C647 C646 1.369 . S
C647 C656 1.429 . S
C648 C646 1.419 . S
C648 C649 1.363 . S
C648 H651 0.929 . S
C649 C648 1.363 . S
C649 C655 1.428 . S
H650 C646 0.930 . S
H651 C648 0.929 . S
S652 N653 1.613 . S
S652 N654 1.610 . S
N653 S652 1.613 . S
N653 C656 1.350 . S
N654 S652 1.610 . S
N654 C655 1.351 . S
C655 C649 1.428 . S
C655 N654 1.351 . S
C655 C656 1.434 . S
C656 C647 1.429 . S
C656 N653 1.350 . S
C656 C655 1.434 . S
C657 C658 1.369 . S
C657 C659 1.419 . S
C657 H661 0.930 . S
C658 C657 1.369 . S
C658 C667 1.429 . S
C659 C657 1.419 . S
C659 C660 1.363 . S
C659 H662 0.929 . S
C660 C659 1.363 . S
C660 C666 1.428 . S
H661 C657 0.930 . S
H662 C659 0.929 . S
S663 N664 1.613 . S
S663 N665 1.610 . S
N664 S663 1.613 . S
N664 C667 1.350 . S
N665 S663 1.610 . S
N665 C666 1.351 . S
C666 C660 1.428 . S
C666 N665 1.351 . S
C666 C667 1.434 . S
C667 C658 1.429 . S
C667 N664 1.350 . S
C667 C666 1.434 . S
C668 C669 1.369 . S
C668 C670 1.419 . S
C668 H672 0.930 . S
C669 C668 1.369 . S
C669 C678 1.432 . S
C670 C668 1.419 . S
C670 C671 1.363 . S
C670 H673 0.929 . S
C671 C670 1.363 . S
C671 C677 1.428 . S
H672 C668 0.930 . S
H673 C670 0.929 . S
S674 N675 1.613 . S
S674 N676 1.610 . S
N675 S674 1.613 . S
N675 C678 1.346 1_455 S
N676 S674 1.610 . S
N676 C677 1.351 1_455 S
C677 C671 1.428 . S
C677 N676 1.351 1_655 S
C677 C678 1.436 . S
C678 C669 1.432 . S
C678 N675 1.346 1_655 S
C678 C677 1.436 . S
C679 C680 1.369 . S
C679 C681 1.419 . S
C679 H683 0.930 . S
C680 C679 1.369 . S
C680 C689 1.429 . S
C681 C679 1.419 . S
C681 C682 1.363 . S
C681 H684 0.929 . S
C682 C681 1.363 . S
C682 C688 1.428 . S
H683 C679 0.930 . S
H684 C681 0.929 . S
S685 N686 1.613 . S
S685 N687 1.610 . S
N686 S685 1.613 . S
N686 C689 1.350 . S
N687 S685 1.610 . S
N687 C688 1.351 . S
C688 C682 1.428 . S
C688 N687 1.351 . S
C688 C689 1.434 . S
C689 C680 1.429 . S
C689 N686 1.350 . S
C689 C688 1.434 . S
C690 C691 1.369 . S
C690 C692 1.419 . S
C690 H694 0.930 . S
C691 C690 1.369 . S
C691 C700 1.429 . S
C692 C690 1.419 . S
C692 C693 1.363 . S
C692 H695 0.929 . S
C693 C692 1.363 . S
C693 C699 1.428 . S
H694 C690 0.930 . S
H695 C692 0.929 . S
S696 N697 1.613 . S
S696 N698 1.610 . S
N697 S696 1.613 . S
N697 C700 1.350 . S
N698 S696 1.610 . S
N698 C699 1.351 . S
C699 C693 1.428 . S
C699 N698 1.351 . S
C699 C700 1.434 . S
C700 C691 1.429 . S
C700 N697 1.350 . S
C700 C699 1.434 . S
C701 C702 1.369 . S
C701 C703 1.419 . S
C701 H705 0.930 . S
C702 C701 1.369 . S
C702 C711 1.429 . S
C703 C701 1.419 . S
C703 C704 1.363 . S
C703 H706 0.929 . S
C704 C703 1.363 . S
C704 C710 1.428 . S
H705 C701 0.930 . S
H706 C703 0.929 . S
S707 N708 1.613 . S
S707 N709 1.610 . S
N708 S707 1.613 . S
N708 C711 1.350 . S
N709 S707 1.610 . S
N709 C710 1.351 . S
C710 C704 1.428 . S
C710 N709 1.351 . S
C710 C711 1.434 . S
C711 C702 1.429 . S
C711 N708 1.350 . S
C711 C710 1.434 . S
C449 C241 2.449 . S
C451 C290 2.821 1_545 S
C462 C330 2.861 . S
C460 C277 2.580 . S
C473 C370 2.845 . S
C471 C169 2.471 . S
C484 C410 2.836 1_455 S
C482 C205 2.462 . S
C495 C303 2.823 1_565 S
C493 C97 2.448 1_565 S
C504 C133 2.568 . S
C506 C343 2.862 . S
C515 C25 2.490 . S
C517 C383 2.845 . S
C526 C61 2.463 1_655 S
C528 C423 2.836 1_655 S
C539 C314 0.723 . S
C537 C211 0.741 . S
C550 C354 0.718 . S
C548 C247 0.739 . S
C561 C394 0.689 . S
C559 C253 0.676 . S
C570 C175 0.694 . S
C572 C434 0.679 . S
C581 C67 0.743 1_655 S
C583 C297 0.726 . S
C594 C337 0.737 . S
C592 C103 0.723 1_565 S
C605 C377 0.691 . S
C603 C109 0.663 . S
C614 C31 0.701 . S
C616 C417 0.703 . S
C625 C181 3.208 . S
C627 C291 3.676 . S
C636 C217 3.166 . S
C638 C331 3.635 . S
C649 C371 3.636 . S
C647 C283 3.100 . S
C660 C411 3.663 . S
C658 C145 3.181 . S
C669 C37 3.225 1_655 S
C671 C310 3.682 . S
C682 C350 3.635 . S
C680 C73 3.178 1_565 S
C693 C390 3.635 . S
C691 C139 3.074 . S
C702 C1 3.206 . S
C704 C430 3.666 . S
