# Generated by pormake.
# Topology llk, (3,12)-cn, num edge types: 1
# Building blocks:
#     Node 0, Type 0, BuildingBlock: VETTIZ_charged_linker_0, # of connection points: 3
#     Node 1, Type 0, BuildingBlock: VETTIZ_charged_linker_0, # of connection points: 3
#     Node 2, Type 0, BuildingBlock: VETTIZ_charged_linker_0, # of connection points: 3
#     Node 3, Type 0, BuildingBlock: VETTIZ_charged_linker_0, # of connection points: 3
#     Node 4, Type 0, BuildingBlock: VETTIZ_charged_linker_0, # of connection points: 3
#     Node 5, Type 0, BuildingBlock: VETTIZ_charged_linker_0, # of connection points: 3
#     Node 6, Type 0, BuildingBlock: VETTIZ_charged_linker_0, # of connection points: 3
#     Node 7, Type 0, BuildingBlock: VETTIZ_charged_linker_0, # of connection points: 3
#     Node 8, Type 0, BuildingBlock: VETTIZ_charged_linker_0, # of connection points: 3
#     Node 9, Type 0, BuildingBlock: VETTIZ_charged_linker_0, # of connection points: 3
#     Node 10, Type 0, BuildingBlock: VETTIZ_charged_linker_0, # of connection points: 3
#     Node 11, Type 0, BuildingBlock: VETTIZ_charged_linker_0, # of connection points: 3
#     Node 12, Type 0, BuildingBlock: VETTIZ_charged_linker_0, # of connection points: 3
#     Node 13, Type 0, BuildingBlock: VETTIZ_charged_linker_0, # of connection points: 3
#     Node 14, Type 0, BuildingBlock: VETTIZ_charged_linker_0, # of connection points: 3
#     Node 15, Type 0, BuildingBlock: VETTIZ_charged_linker_0, # of connection points: 3
#     Node 16, Type 0, BuildingBlock: VETTIZ_charged_linker_0, # of connection points: 3
#     Node 17, Type 0, BuildingBlock: VETTIZ_charged_linker_0, # of connection points: 3
#     Node 18, Type 0, BuildingBlock: VETTIZ_charged_linker_0, # of connection points: 3
#     Node 19, Type 0, BuildingBlock: VETTIZ_charged_linker_0, # of connection points: 3
#     Node 20, Type 0, BuildingBlock: VETTIZ_charged_linker_0, # of connection points: 3
#     Node 21, Type 0, BuildingBlock: VETTIZ_charged_linker_0, # of connection points: 3
#     Node 22, Type 0, BuildingBlock: VETTIZ_charged_linker_0, # of connection points: 3
#     Node 23, Type 0, BuildingBlock: VETTIZ_charged_linker_0, # of connection points: 3
#     Node 24, Type 1, BuildingBlock: EZIPEK_clean_sbu_0, # of connection points: 12
#     Node 25, Type 1, BuildingBlock: EZIPEK_clean_sbu_0, # of connection points: 12
#     Node 26, Type 1, BuildingBlock: EZIPEK_clean_sbu_0, # of connection points: 12
#     Node 27, Type 1, BuildingBlock: EZIPEK_clean_sbu_0, # of connection points: 12
#     Node 28, Type 1, BuildingBlock: EZIPEK_clean_sbu_0, # of connection points: 12
#     Node 29, Type 1, BuildingBlock: EZIPEK_clean_sbu_0, # of connection points: 12
#     Edge 30, Type (0, 1), BuildingBlock: KIFKEQ_clean_linker_1, # of connection points: 2
#     Edge 31, Type (0, 1), BuildingBlock: KIFKEQ_clean_linker_1, # of connection points: 2
#     Edge 32, Type (0, 1), BuildingBlock: KIFKEQ_clean_linker_1, # of connection points: 2
#     Edge 33, Type (0, 1), BuildingBlock: KIFKEQ_clean_linker_1, # of connection points: 2
#     Edge 34, Type (0, 1), BuildingBlock: KIFKEQ_clean_linker_1, # of connection points: 2
#     Edge 35, Type (0, 1), BuildingBlock: KIFKEQ_clean_linker_1, # of connection points: 2
#     Edge 36, Type (0, 1), BuildingBlock: KIFKEQ_clean_linker_1, # of connection points: 2
#     Edge 37, Type (0, 1), BuildingBlock: KIFKEQ_clean_linker_1, # of connection points: 2
#     Edge 38, Type (0, 1), BuildingBlock: KIFKEQ_clean_linker_1, # of connection points: 2
#     Edge 39, Type (0, 1), BuildingBlock: KIFKEQ_clean_linker_1, # of connection points: 2
#     Edge 40, Type (0, 1), BuildingBlock: KIFKEQ_clean_linker_1, # of connection points: 2
#     Edge 41, Type (0, 1), BuildingBlock: KIFKEQ_clean_linker_1, # of connection points: 2
#     Edge 42, Type (0, 1), BuildingBlock: KIFKEQ_clean_linker_1, # of connection points: 2
#     Edge 43, Type (0, 1), BuildingBlock: KIFKEQ_clean_linker_1, # of connection points: 2
#     Edge 44, Type (0, 1), BuildingBlock: KIFKEQ_clean_linker_1, # of connection points: 2
#     Edge 45, Type (0, 1), BuildingBlock: KIFKEQ_clean_linker_1, # of connection points: 2
#     Edge 46, Type (0, 1), BuildingBlock: KIFKEQ_clean_linker_1, # of connection points: 2
#     Edge 47, Type (0, 1), BuildingBlock: KIFKEQ_clean_linker_1, # of connection points: 2
#     Edge 48, Type (0, 1), BuildingBlock: KIFKEQ_clean_linker_1, # of connection points: 2
#     Edge 49, Type (0, 1), BuildingBlock: KIFKEQ_clean_linker_1, # of connection points: 2
#     Edge 50, Type (0, 1), BuildingBlock: KIFKEQ_clean_linker_1, # of connection points: 2
#     Edge 51, Type (0, 1), BuildingBlock: KIFKEQ_clean_linker_1, # of connection points: 2
#     Edge 52, Type (0, 1), BuildingBlock: KIFKEQ_clean_linker_1, # of connection points: 2
#     Edge 53, Type (0, 1), BuildingBlock: KIFKEQ_clean_linker_1, # of connection points: 2
#     Edge 54, Type (0, 1), BuildingBlock: KIFKEQ_clean_linker_1, # of connection points: 2
#     Edge 55, Type (0, 1), BuildingBlock: KIFKEQ_clean_linker_1, # of connection points: 2
#     Edge 56, Type (0, 1), BuildingBlock: KIFKEQ_clean_linker_1, # of connection points: 2
#     Edge 57, Type (0, 1), BuildingBlock: KIFKEQ_clean_linker_1, # of connection points: 2
#     Edge 58, Type (0, 1), BuildingBlock: KIFKEQ_clean_linker_1, # of connection points: 2
#     Edge 59, Type (0, 1), BuildingBlock: KIFKEQ_clean_linker_1, # of connection points: 2
#     Edge 60, Type (0, 1), BuildingBlock: KIFKEQ_clean_linker_1, # of connection points: 2
#     Edge 61, Type (0, 1), BuildingBlock: KIFKEQ_clean_linker_1, # of connection points: 2
#     Edge 62, Type (0, 1), BuildingBlock: KIFKEQ_clean_linker_1, # of connection points: 2
#     Edge 63, Type (0, 1), BuildingBlock: KIFKEQ_clean_linker_1, # of connection points: 2
#     Edge 64, Type (0, 1), BuildingBlock: KIFKEQ_clean_linker_1, # of connection points: 2
#     Edge 65, Type (0, 1), BuildingBlock: KIFKEQ_clean_linker_1, # of connection points: 2
#     Edge 66, Type (0, 1), BuildingBlock: KIFKEQ_clean_linker_1, # of connection points: 2
#     Edge 67, Type (0, 1), BuildingBlock: KIFKEQ_clean_linker_1, # of connection points: 2
#     Edge 68, Type (0, 1), BuildingBlock: KIFKEQ_clean_linker_1, # of connection points: 2
#     Edge 69, Type (0, 1), BuildingBlock: KIFKEQ_clean_linker_1, # of connection points: 2
#     Edge 70, Type (0, 1), BuildingBlock: KIFKEQ_clean_linker_1, # of connection points: 2
#     Edge 71, Type (0, 1), BuildingBlock: KIFKEQ_clean_linker_1, # of connection points: 2
#     Edge 72, Type (0, 1), BuildingBlock: KIFKEQ_clean_linker_1, # of connection points: 2
#     Edge 73, Type (0, 1), BuildingBlock: KIFKEQ_clean_linker_1, # of connection points: 2
#     Edge 74, Type (0, 1), BuildingBlock: KIFKEQ_clean_linker_1, # of connection points: 2
#     Edge 75, Type (0, 1), BuildingBlock: KIFKEQ_clean_linker_1, # of connection points: 2
#     Edge 76, Type (0, 1), BuildingBlock: KIFKEQ_clean_linker_1, # of connection points: 2
#     Edge 77, Type (0, 1), BuildingBlock: KIFKEQ_clean_linker_1, # of connection points: 2
#     Edge 78, Type (0, 1), BuildingBlock: KIFKEQ_clean_linker_1, # of connection points: 2
#     Edge 79, Type (0, 1), BuildingBlock: KIFKEQ_clean_linker_1, # of connection points: 2
#     Edge 80, Type (0, 1), BuildingBlock: KIFKEQ_clean_linker_1, # of connection points: 2
#     Edge 81, Type (0, 1), BuildingBlock: KIFKEQ_clean_linker_1, # of connection points: 2
#     Edge 82, Type (0, 1), BuildingBlock: KIFKEQ_clean_linker_1, # of connection points: 2
#     Edge 83, Type (0, 1), BuildingBlock: KIFKEQ_clean_linker_1, # of connection points: 2
#     Edge 84, Type (0, 1), BuildingBlock: KIFKEQ_clean_linker_1, # of connection points: 2
#     Edge 85, Type (0, 1), BuildingBlock: KIFKEQ_clean_linker_1, # of connection points: 2
#     Edge 86, Type (0, 1), BuildingBlock: KIFKEQ_clean_linker_1, # of connection points: 2
#     Edge 87, Type (0, 1), BuildingBlock: KIFKEQ_clean_linker_1, # of connection points: 2
#     Edge 88, Type (0, 1), BuildingBlock: KIFKEQ_clean_linker_1, # of connection points: 2
#     Edge 89, Type (0, 1), BuildingBlock: KIFKEQ_clean_linker_1, # of connection points: 2
#     Edge 90, Type (0, 1), BuildingBlock: KIFKEQ_clean_linker_1, # of connection points: 2
#     Edge 91, Type (0, 1), BuildingBlock: KIFKEQ_clean_linker_1, # of connection points: 2
#     Edge 92, Type (0, 1), BuildingBlock: KIFKEQ_clean_linker_1, # of connection points: 2
#     Edge 93, Type (0, 1), BuildingBlock: KIFKEQ_clean_linker_1, # of connection points: 2
#     Edge 94, Type (0, 1), BuildingBlock: KIFKEQ_clean_linker_1, # of connection points: 2
#     Edge 95, Type (0, 1), BuildingBlock: KIFKEQ_clean_linker_1, # of connection points: 2
#     Edge 96, Type (0, 1), BuildingBlock: KIFKEQ_clean_linker_1, # of connection points: 2
#     Edge 97, Type (0, 1), BuildingBlock: KIFKEQ_clean_linker_1, # of connection points: 2
#     Edge 98, Type (0, 1), BuildingBlock: KIFKEQ_clean_linker_1, # of connection points: 2
#     Edge 99, Type (0, 1), BuildingBlock: KIFKEQ_clean_linker_1, # of connection points: 2
#     Edge 100, Type (0, 1), BuildingBlock: KIFKEQ_clean_linker_1, # of connection points: 2
#     Edge 101, Type (0, 1), BuildingBlock: KIFKEQ_clean_linker_1, # of connection points: 2
# Relax obj value: 0.110
# Max RMSD: 0.165
# Mean RMSD: 0.138
data_MOF--net-llk--node1-EZIPEK_clean_sbu_0--node2-VETTIZ_charged_linker_0--edge1-KIFKEQ_clean_linker_1
_symmetry_space_group_name_H-M    P1
_symmetry_Int_Tables_number       1
_symmetry_cell_setting            triclinic
loop_
_symmetry_equiv_pos_as_xyz
'x, y, z'
_cell_length_a     55.944263
_cell_length_b     56.020262
_cell_length_c     56.012494
_cell_angle_alpha  90.137978
_cell_angle_beta   89.98688
_cell_angle_gamma 90.061567
loop_
_atom_site_label
_atom_site_type_symbol
_atom_site_fract_x
_atom_site_fract_y
_atom_site_fract_z
_atom_type_partial_charge
C0 C 0.03066 0.29805 0.20676 0.0
C1 C 0.02179 0.31967 0.19671 0.0
C2 C 1.00314 0.33161 0.20839 0.0
C3 C 1.00397 0.30307 0.24075 0.0
C4 C 0.02114 0.28987 0.22893 0.0
C5 C 0.02691 0.26716 0.24302 0.0
H6 H 0.01214 0.20842 0.35125 0.0
C7 C 0.99886 0.29189 0.26401 0.0
C8 C 0.01176 0.27031 0.26577 0.0
H9 H 0.05138 0.18055 0.29117 0.0
H10 H 0.04109 0.21632 0.26779 0.0
H11 H 0.03041 0.25862 0.34873 0.0
H12 H 0.96733 0.22482 0.32197 0.0
H13 H 0.95785 0.2527 0.33271 0.0
H14 H 0.97196 0.23194 0.35287 0.0
H15 H 1.00452 0.25449 0.36705 0.0
H16 H 1.00904 0.28132 0.34984 0.0
C17 C 0.05381 0.26647 0.24867 0.0
C18 C 0.01863 0.24544 0.22828 0.0
C19 C 0.95777 0.34291 0.32642 0.0
C20 C 0.95531 0.34008 0.35122 0.0
C21 C 0.9583 0.3172 0.36114 0.0
C22 C 0.9661 0.29813 0.34701 0.0
C23 C 0.97139 0.30203 0.32277 0.0
C24 C 0.96621 0.32382 0.31266 0.0
C25 C 0.97368 0.32506 0.28695 0.0
C26 C 0.98568 0.30084 0.28374 0.0
C27 C 0.98425 0.28758 0.30474 0.0
C28 C 0.99162 0.34611 0.28446 0.0
C29 C 0.95069 0.3274 0.27156 0.0
C30 C 0.01867 0.20984 0.33308 0.0
C31 C 0.03279 0.19176 0.3233 0.0
C32 C 0.04048 0.19431 0.29929 0.0
C33 C 0.03448 0.21501 0.28575 0.0
C34 C 0.02026 0.23308 0.29615 0.0
C35 C 0.01254 0.22979 0.31945 0.0
C36 C 0.9974 0.24971 0.32838 0.0
C37 C 0.99647 0.26558 0.30668 0.0
C38 C 1.01013 0.25645 0.28747 0.0
C39 C 1.01077 0.26166 0.34966 0.0
C40 C 0.97234 0.23942 0.33452 0.0
H41 H 0.98022 0.33378 0.23789 0.0
H42 H 0.0446 0.2881 0.19779 0.0
H43 H 0.99979 0.2478 0.22239 0.0
H44 H 0.01928 0.22876 0.23867 0.0
H45 H 0.02994 0.24322 0.21212 0.0
H46 H 0.0594 0.28317 0.25788 0.0
H47 H 0.06445 0.26468 0.23201 0.0
H48 H 0.05837 0.25138 0.26048 0.0
H49 H 0.95501 0.36017 0.3182 0.0
H50 H 0.95649 0.31439 0.38018 0.0
H51 H 0.96907 0.2815 0.35593 0.0
H52 H 1.00418 0.34653 0.29987 0.0
H53 H 0.98212 0.3635 0.28399 0.0
H54 H 1.00318 0.34498 0.26861 0.0
H55 H 0.9479 0.34608 0.26559 0.0
H56 H 0.93435 0.32194 0.2815 0.0
H57 H 0.95108 0.31548 0.25571 0.0
H58 H 0.99575 0.34785 0.20091 0.0
C59 C 0.99412 0.32338 0.23 0.0
C60 C 0.83508 0.99853 0.29882 0.0
C61 C 0.84172 0.99979 0.3234 0.0
C62 C 0.82363 1.00024 0.3407 0.0
C63 C 0.79312 1.00094 0.31017 0.0
C64 C 0.81031 0.999 0.29257 0.0
C65 C 0.79839 0.99779 0.2679 0.0
H66 H 0.68981 1.00504 0.20736 0.0
C67 C 0.76941 1.00322 0.29898 0.0
C68 C 0.77175 1.00128 0.27396 0.0
H69 H 0.7571 0.98767 0.17429 0.0
H70 H 0.77752 0.99258 0.21312 0.0
H71 H 0.69476 0.97309 0.24979 0.0
H72 H 0.70961 0.04732 0.2391 0.0
H73 H 0.69837 0.04567 0.26825 0.0
H74 H 0.67988 0.0362 0.24352 0.0
H75 H 0.67173 0.9953 0.24864 0.0
H76 H 0.68577 0.98694 0.27633 0.0
C77 C 0.8031 0.97296 0.25709 0.0
C78 C 0.80794 0.01806 0.25206 0.0
C79 C 0.69903 0.01989 0.35363 0.0
C80 C 0.67475 0.02439 0.34929 0.0
C81 C 0.66653 0.02571 0.32558 0.0
C82 C 0.68219 0.02202 0.30648 0.0
C83 C 0.70635 0.01685 0.31109 0.0
C84 C 0.71439 0.0162 0.33432 0.0
C85 C 0.74058 0.0109 0.33589 0.0
C86 C 0.747 1.00829 0.30963 0.0
C87 C 0.72689 0.01147 0.29535 0.0
C88 C 0.74348 0.98692 0.34953 0.0
C89 C 0.75291 0.03284 0.34772 0.0
C90 C 0.70895 1.00216 0.20825 0.0
C91 C 0.72162 0.99554 0.18784 0.0
C92 C 0.74674 0.99257 0.18987 0.0
C93 C 0.75851 0.9952 0.21236 0.0
C94 C 0.74502 1.00093 0.23294 0.0
C95 C 0.72065 1.00457 0.23012 0.0
C96 C 0.70818 1.01024 0.25286 0.0
C97 C 0.72854 1.00868 0.27035 0.0
C98 C 0.75063 1.00348 0.25918 0.0
C99 C 0.68898 0.9906 0.25724 0.0
C100 C 0.69829 0.03609 0.25095 0.0
H101 H 0.78725 1.00156 0.34876 0.0
H102 H 0.84864 0.99771 0.28506 0.0
H103 H 0.80565 0.03558 0.26114 0.0
H104 H 0.7983 0.01889 0.23486 0.0
H105 H 0.82726 0.01551 0.24824 0.0
H106 H 0.79775 0.95874 0.26984 0.0
H107 H 0.82241 0.97069 0.25298 0.0
H108 H 0.79285 0.97001 0.24052 0.0
H109 H 0.70594 0.0191 0.37168 0.0
H110 H 0.64782 0.0289 0.32179 0.0
H111 H 0.67465 0.02285 0.28892 0.0
H112 H 0.72775 0.97504 0.34676 0.0
H113 H 0.7453 0.98993 0.36905 0.0
H114 H 0.75882 0.97624 0.3431 0.0
H115 H 0.74276 0.04959 0.34438 0.0
H116 H 0.77086 0.03655 0.34035 0.0
H117 H 0.75429 0.03065 0.36737 0.0
H118 H 0.82812 1.0007 0.35954 0.0
C119 C 0.79969 1.00078 0.33432 0.0
C120 C 0.0414 0.82334 0.27334 0.0
C121 C 0.05497 0.82881 0.29422 0.0
C122 C 0.07316 0.81287 0.30124 0.0
C123 C 0.05883 0.78408 0.27282 0.0
C124 C 0.04487 0.80092 0.26194 0.0
C125 C 0.03245 0.78958 0.24045 0.0
H126 H 1.01016 0.67589 0.19387 0.0
C127 C 0.05131 0.76049 0.26471 0.0
C128 C 0.04014 0.76321 0.24237 0.0
H129 H 0.05556 0.72461 0.15527 0.0
H130 H 0.05199 0.75417 0.18841 0.0
H131 H 0.03416 0.68087 0.2481 0.0
H132 H 0.97263 0.69226 0.22053 0.0
H133 H 0.97419 0.72426 0.22303 0.0
H134 H 0.9694 0.70654 0.24887 0.0
H135 H 1.00994 0.6663 0.23271 0.0
H136 H 1.00548 0.67655 0.26191 0.0
C137 C 0.04166 0.80067 0.21716 0.0
C138 C 1.00512 0.79244 0.24254 0.0
C139 C 0.02659 0.70883 0.33473 0.0
C140 C 1.00655 0.69419 0.33824 0.0
C141 C 0.98972 0.69143 0.31973 0.0
C142 C 0.99365 0.70213 0.29755 0.0
C143 C 0.01489 0.71476 0.29374 0.0
C144 C 0.03006 0.71946 0.31253 0.0
C145 C 0.04842 0.73809 0.30657 0.0
C146 C 0.04219 0.74283 0.28043 0.0
C147 C 0.02324 0.72814 0.27305 0.0
C148 C 0.07355 0.72709 0.30901 0.0
C149 C 0.04466 0.75989 0.32337 0.0
C150 C 0.01923 0.6929 0.19238 0.0
C151 C 0.03327 0.69775 0.17219 0.0
C152 C 0.04446 0.72045 0.17055 0.0
C153 C 0.04238 0.73743 0.18934 0.0
C154 C 0.02871 0.7317 0.20958 0.0
C155 C 0.01771 0.70961 0.211 0.0
C156 C 1.00653 0.70556 0.23506 0.0
C157 C 0.01668 0.72692 0.24873 0.0
C158 C 0.0266 0.74373 0.23309 0.0
C159 C 0.01452 0.68109 0.24508 0.0
C160 C 0.97919 0.70721 0.23186 0.0
H161 H 0.08807 0.77785 0.2972 0.0
H162 H 0.02798 0.83564 0.26688 0.0
H163 H 0.99854 0.78453 0.25951 0.0
H164 H 0.99596 0.78333 0.22745 0.0
H165 H 1.0 0.81159 0.24217 0.0
H166 H 0.06131 0.79819 0.21546 0.0
H167 H 0.03777 0.82012 0.21677 0.0
H168 H 0.03286 0.79219 0.20151 0.0
H169 H 0.0391 0.71221 0.34911 0.0
H170 H 0.97386 0.68062 0.32225 0.0
H171 H 0.98026 0.70031 0.28404 0.0
H172 H 0.07466 0.70989 0.29909 0.0
H173 H 0.07783 0.72362 0.32806 0.0
H174 H 0.08747 0.73898 0.30162 0.0
H175 H 0.03668 0.75483 0.34079 0.0
H176 H 0.03245 0.77324 0.31527 0.0
H177 H 0.0618 0.76848 0.32826 0.0
H178 H 0.08438 0.81689 0.31649 0.0
C179 C 0.07518 0.79042 0.29049 0.0
C180 C 0.33158 1.0041 0.19435 0.0
C181 C 0.34927 0.01707 0.18122 0.0
C182 C 0.35287 0.04135 0.18676 0.0
C183 C 0.3262 0.03828 0.22032 0.0
C184 C 0.31953 0.01563 0.21366 0.0
C185 C 0.2981 1.0076 0.22892 0.0
H186 H 0.22262 0.04131 0.32245 0.0
C187 C 0.31273 0.04568 0.24122 0.0
C188 C 0.29458 0.02907 0.24596 0.0
H189 H 0.21812 0.97472 0.28416 0.0
H190 H 0.25222 0.98683 0.25893 0.0
H191 H 0.26645 0.03955 0.33524 0.0
H192 H 0.23665 0.07802 0.27992 0.0
H193 H 0.25937 0.09581 0.29292 0.0
H194 H 0.23666 0.08283 0.31169 0.0
H195 H 0.2713 0.07055 0.33594 0.0
H196 H 0.29387 0.05041 0.32432 0.0
C197 C 0.30489 0.98485 0.24263 0.0
C198 C 0.2763 1.00386 0.21262 0.0
C199 C 0.35589 0.08536 0.3079 0.0
C200 C 0.34726 0.09128 0.33076 0.0
C201 C 0.32338 0.09881 0.33322 0.0
C202 C 0.30734 0.09561 0.31429 0.0
C203 C 0.31531 0.08389 0.29365 0.0
C204 C 0.33945 0.08159 0.28943 0.0
C205 C 0.34433 0.07067 0.26535 0.0
C206 C 0.3189 0.06342 0.258 0.0
C207 C 0.30249 0.06941 0.27584 0.0
C208 C 0.36093 0.04875 0.26786 0.0
C209 C 0.3557 0.09005 0.24938 0.0
C210 C 0.22851 0.02942 0.30833 0.0
C211 C 0.21727 1.00738 0.30505 0.0
C212 C 0.22632 0.99201 0.28701 0.0
C213 C 0.24598 0.99904 0.27238 0.0
C214 C 0.25711 0.02136 0.27625 0.0
C215 C 0.24842 0.03566 0.29453 0.0
C216 C 0.26367 0.05702 0.29927 0.0
C217 C 0.28212 0.05464 0.27953 0.0
C218 C 0.27846 0.03378 0.26559 0.0
C219 C 0.27445 0.05444 0.32485 0.0
C220 C 0.24832 0.07972 0.29592 0.0
H221 H 0.34246 0.07104 0.20835 0.0
H222 H 0.32717 0.9859 0.18953 0.0
H223 H 0.27291 0.02013 0.20181 0.0
H224 H 0.25992 1.00014 0.22297 0.0
H225 H 0.27939 0.98869 0.20018 0.0
H226 H 0.32157 0.98778 0.25304 0.0
H227 H 0.30794 0.96977 0.23008 0.0
H228 H 0.29078 0.97955 0.25537 0.0
H229 H 0.37451 0.08072 0.30546 0.0
H230 H 0.31651 0.1044 0.35043 0.0
H231 H 0.28899 0.10048 0.31691 0.0
H232 H 0.37886 0.05407 0.27449 0.0
H233 H 0.36376 0.03981 0.25042 0.0
H234 H 0.35315 0.03551 0.28043 0.0
H235 H 0.36759 0.10203 0.2599 0.0
H236 H 0.34179 0.1013 0.24083 0.0
H237 H 0.36746 0.08215 0.23555 0.0
H238 H 0.36503 0.05211 0.17623 0.0
C239 C 0.34096 0.05208 0.20583 0.0
C240 C 0.03417 0.69829 0.8024 0.0
C241 C 0.02229 0.68432 0.82023 0.0
C242 C 0.99755 0.68756 0.82354 0.0
C243 C 0.99578 0.71268 0.78891 0.0
C244 C 0.02022 0.71327 0.78721 0.0
C245 C 0.02746 0.73237 0.76879 0.0
H246 H 0.98386 0.80371 0.67669 0.0
C247 C 0.98523 0.72676 0.76998 0.0
C248 C 1.003 0.74024 0.75854 0.0
H249 H 0.05662 0.80516 0.70239 0.0
H250 H 0.04632 0.77478 0.73235 0.0
H251 H 0.97343 0.76024 0.67157 0.0
H252 H 0.95881 0.80457 0.72826 0.0
H253 H 0.93421 0.785 0.72556 0.0
H254 H 0.94458 0.80111 0.69968 0.0
H255 H 0.9431 0.76218 0.67977 0.0
H256 H 0.96127 0.73732 0.68945 0.0
C257 C 0.04346 0.72117 0.74949 0.0
C258 C 0.03998 0.75295 0.78205 0.0
C259 C 0.91897 0.68827 0.72445 0.0
C260 C 0.90765 0.69581 0.70332 0.0
C261 C 0.90488 0.72055 0.69947 0.0
C262 C 0.91791 0.73694 0.71318 0.0
C263 C 0.93377 0.72826 0.73044 0.0
C264 C 0.93206 0.7049 0.7378 0.0
C265 C 0.94859 0.69973 0.75828 0.0
C266 C 0.96264 0.72329 0.75942 0.0
C267 C 0.95516 0.73886 0.7415 0.0
C268 C 0.96494 0.67831 0.75208 0.0
C269 C 0.93313 0.69461 0.78056 0.0
C270 C 0.99777 0.79835 0.68896 0.0
C271 C 0.02097 0.80775 0.68709 0.0
C272 C 0.03843 0.79862 0.70314 0.0
C273 C 0.03245 0.78114 0.72072 0.0
C274 C 1.00876 0.77262 0.72247 0.0
C275 C 0.99212 0.78138 0.70642 0.0
C276 C 0.96777 0.77094 0.70975 0.0
C277 C 0.9719 0.75493 0.73116 0.0
C278 C 0.99608 0.75543 0.73885 0.0
C279 C 0.96092 0.75693 0.68663 0.0
C280 C 0.95027 0.79143 0.71601 0.0
H281 H 0.96598 0.7058 0.81229 0.0
H282 H 0.05341 0.69764 0.80056 0.0
H283 H 0.02862 0.75953 0.79697 0.0
H284 H 0.04353 0.76826 0.77023 0.0
H285 H 0.05728 0.74686 0.78966 0.0
H286 H 0.03422 0.7058 0.74092 0.0
H287 H 0.06045 0.71467 0.75741 0.0
H288 H 0.04788 0.73424 0.73538 0.0
H289 H 0.92042 0.66951 0.72868 0.0
H290 H 0.89495 0.72701 0.68419 0.0
H291 H 0.91653 0.75553 0.70889 0.0
H292 H 0.97509 0.68178 0.73537 0.0
H293 H 0.95438 0.66168 0.74974 0.0
H294 H 0.97793 0.67469 0.76653 0.0
H295 H 0.91615 0.68546 0.7757 0.0
H296 H 0.92841 0.7114 0.79006 0.0
H297 H 0.94215 0.68217 0.79298 0.0
H298 H 0.98824 0.6785 0.83789 0.0
C299 C 0.98443 0.70218 0.80834 0.0
C300 C 0.33255 0.98388 0.80218 0.0
C301 C 0.3488 0.97162 0.81756 0.0
C302 C 0.35057 0.94659 0.81569 0.0
C303 C 0.32534 0.94694 0.78105 0.0
C304 C 0.32017 0.97065 0.78428 0.0
C305 C 0.29989 0.97788 0.76724 0.0
H306 H 0.22793 0.93812 0.67349 0.0
C307 C 0.3125 0.93782 0.76056 0.0
C308 C 0.29577 0.95468 0.7528 0.0
H309 H 0.22396 1.00773 0.70612 0.0
H310 H 0.25644 0.99683 0.73367 0.0
H311 H 0.27194 0.93477 0.66295 0.0
H312 H 0.23773 0.9052 0.72065 0.0
H313 H 0.25979 0.88499 0.71026 0.0
H314 H 0.23871 0.89748 0.68945 0.0
H315 H 0.27688 0.90409 0.66702 0.0
H316 H 0.29867 0.9258 0.67716 0.0
C317 C 0.30853 0.99842 0.75122 0.0
C318 C 0.2778 0.98468 0.78213 0.0
C319 C 0.35813 0.89049 0.70086 0.0
C320 C 0.35053 0.88233 0.67829 0.0
C321 C 0.3267 0.87431 0.67588 0.0
C322 C 0.3097 0.88031 0.69327 0.0
C323 C 0.31689 0.89452 0.71256 0.0
C324 C 0.34083 0.89681 0.71778 0.0
C325 C 0.34478 0.91072 0.74041 0.0
C326 C 0.31906 0.91845 0.74598 0.0
C327 C 0.30348 0.91109 0.72791 0.0
C328 C 0.36118 0.93247 0.73563 0.0
C329 C 0.356 0.89386 0.75901 0.0
C330 C 0.23367 0.951 0.68678 0.0
C331 C 0.22296 0.97356 0.68784 0.0
C332 C 0.23174 0.99008 0.70496 0.0
C333 C 0.25044 0.98373 0.72099 0.0
C334 C 0.26085 0.96083 0.71956 0.0
C335 C 0.2526 0.94527 0.70211 0.0
C336 C 0.26678 0.92267 0.70073 0.0
C337 C 0.28409 0.9262 0.72135 0.0
C338 C 0.28071 0.94859 0.73278 0.0
C339 C 0.27929 0.92165 0.67585 0.0
C340 C 0.24988 0.90134 0.7054 0.0
H341 H 0.33858 0.91497 0.79782 0.0
H342 H 0.32954 1.00285 0.80422 0.0
H343 H 0.27329 0.97014 0.79485 0.0
H344 H 0.26191 0.98765 0.77088 0.0
H345 H 0.28127 1.0012 0.7926 0.0
H346 H 0.32538 0.99337 0.74197 0.0
H347 H 0.31201 0.01472 0.76202 0.0
H348 H 0.29524 1.00288 0.73735 0.0
H349 H 0.37655 0.89556 0.70385 0.0
H350 H 0.32062 0.8665 0.65924 0.0
H351 H 0.29136 0.87548 0.69034 0.0
H352 H 0.35363 0.94388 0.72127 0.0
H353 H 0.37939 0.92673 0.73024 0.0
H354 H 0.36335 0.94357 0.75189 0.0
H355 H 0.34217 0.8825 0.76757 0.0
H356 H 0.36617 0.90381 0.77278 0.0
H357 H 0.36942 0.88198 0.75049 0.0
H358 H 0.36164 0.93657 0.82798 0.0
C359 C 0.3384 0.93419 0.79786 0.0
C360 C 0.04541 0.17102 0.72249 0.0
C361 C 0.03388 0.16505 0.70052 0.0
C362 C 0.01749 0.18134 0.69074 0.0
C363 C 0.02896 0.21081 0.71988 0.0
C364 C 0.04163 0.19411 0.73256 0.0
C365 C 0.05156 0.20565 0.75536 0.0
H366 H 0.07229 0.31598 0.80866 0.0
C367 C 0.03409 0.23452 0.72948 0.0
C368 C 0.04398 0.23196 0.75243 0.0
H369 H 0.02954 0.26294 0.84424 0.0
H370 H 0.03253 0.23661 0.80858 0.0
H371 H 0.10812 0.28648 0.7765 0.0
H372 H 0.03701 0.31273 0.7639 0.0
H373 H 0.05739 0.32285 0.74193 0.0
H374 H 0.06263 0.33047 0.77188 0.0
H375 H 0.10327 0.31511 0.76321 0.0
H376 H 0.10527 0.2884 0.7452 0.0
C377 C 0.07896 0.2032 0.75613 0.0
C378 C 0.04009 0.19425 0.77747 0.0
C379 C 0.04279 0.30102 0.66905 0.0
C380 C 0.05476 0.32303 0.67057 0.0
C381 C 0.07315 0.32597 0.68753 0.0
C382 C 0.07678 0.30863 0.70506 0.0
C383 C 0.06107 0.28916 0.70605 0.0
C384 C 0.04608 0.28433 0.68716 0.0
C385 C 0.03221 0.2616 0.69054 0.0
C386 C 0.04034 0.25469 0.71558 0.0
C387 C 0.05634 0.27161 0.72473 0.0
C388 C 0.03994 0.24368 0.67082 0.0
C389 C 1.00518 0.26736 0.69002 0.0
C390 C 0.06433 0.29836 0.80928 0.0
C391 C 0.05097 0.29155 0.82928 0.0
C392 C 0.04041 0.2685 0.82925 0.0
C393 C 0.04233 0.25322 0.80895 0.0
C394 C 0.05503 0.26104 0.7887 0.0
C395 C 0.06504 0.28372 0.78898 0.0
C396 C 0.07085 0.29254 0.76434 0.0
C397 C 0.06183 0.27177 0.74932 0.0
C398 C 0.05468 0.25244 0.7635 0.0
C399 C 0.09825 0.29595 0.76212 0.0
C400 C 0.05629 0.3158 0.76012 0.0
H401 H 1.0024 0.21617 0.69231 0.0
H402 H 0.05737 0.15849 0.731 0.0
H403 H 0.02053 0.19772 0.77787 0.0
H404 H 0.04824 0.20147 0.79404 0.0
H405 H 0.04294 0.17462 0.77736 0.0
H406 H 0.08716 0.21114 0.7399 0.0
H407 H 0.08426 0.18412 0.75712 0.0
H408 H 0.08635 0.21254 0.77203 0.0
H409 H 0.02938 0.2979 0.65544 0.0
H410 H 0.08309 0.34253 0.68872 0.0
H411 H 0.08998 0.31203 0.71853 0.0
H412 H 0.04669 0.25292 0.65462 0.0
H413 H 0.02483 0.23269 0.66433 0.0
H414 H 0.05448 0.23177 0.67717 0.0
H415 H 1.00131 0.28389 0.70038 0.0
H416 H 0.99431 0.25311 0.69826 0.0
H417 H 0.9989 0.27008 0.67141 0.0
H418 H 1.00768 0.17689 0.67464 0.0
C419 C 0.01485 0.20412 0.70046 0.0
C420 C 0.84036 1.00794 0.7031 0.0
C421 C 0.84888 0.01714 0.68092 0.0
C422 C 0.8345 0.03366 0.66868 0.0
C423 C 0.80459 0.03255 0.6998 0.0
C424 C 0.81807 0.01623 0.7124 0.0
C425 C 0.8054 1.00976 0.73578 0.0
H426 H 0.70787 0.03406 0.80899 0.0
C427 C 0.78316 0.03888 0.71369 0.0
C428 C 0.78348 0.02639 0.73551 0.0
H429 H 0.75844 0.97737 0.82025 0.0
H430 H 0.78152 0.99063 0.78517 0.0
H431 H 0.74592 0.07523 0.79173 0.0
H432 H 0.69611 0.02612 0.76554 0.0
H433 H 0.70211 0.04029 0.73841 0.0
H434 H 0.68934 0.0569 0.76302 0.0
H435 H 0.71392 0.0775 0.7912 0.0
H436 H 0.73214 0.08954 0.76743 0.0
C437 C 0.82196 0.01513 0.75705 0.0
C438 C 0.79801 0.9833 0.73446 0.0
C439 C 0.71261 0.07718 0.67383 0.0
C440 C 0.68993 0.08257 0.68322 0.0
C441 C 0.68779 0.08839 0.70754 0.0
C442 C 0.70703 0.08451 0.72299 0.0
C443 C 0.728 0.07412 0.71391 0.0
C444 C 0.73154 0.07299 0.68962 0.0
C445 C 0.75596 0.06346 0.68354 0.0
C446 C 0.76411 0.05456 0.708 0.0
C447 C 0.74727 0.06042 0.72545 0.0
C448 C 0.77129 0.08474 0.67443 0.0
C449 C 0.75331 0.04279 0.66526 0.0
C450 C 0.72405 0.02455 0.80413 0.0
C451 C 0.73126 1.00477 0.81727 0.0
C452 C 0.7524 0.99273 0.81025 0.0
C453 C 0.76559 1.00027 0.78982 0.0
C454 C 0.75723 0.01967 0.77607 0.0
C455 C 0.73667 0.03125 0.78368 0.0
C456 C 0.7284 0.05002 0.76686 0.0
C457 C 0.74719 0.04813 0.74751 0.0
C458 C 0.76464 0.03062 0.75267 0.0
C459 C 0.72995 0.07442 0.7799 0.0
C460 C 0.70277 0.04321 0.75798 0.0
H461 H 0.80309 0.05397 0.66754 0.0
H462 H 0.85091 0.99518 0.71301 0.0
H463 H 0.78829 0.97959 0.71752 0.0
H464 H 0.78592 0.97819 0.74912 0.0
H465 H 0.814 0.97156 0.73507 0.0
H466 H 0.82834 0.03392 0.75633 0.0
H467 H 0.83782 1.0032 0.75677 0.0
H468 H 0.81267 0.0127 0.77429 0.0
H469 H 0.71468 0.07354 0.65495 0.0
H470 H 0.67061 0.09323 0.71503 0.0
H471 H 0.70422 0.08792 0.74159 0.0
H472 H 0.78833 0.08642 0.68448 0.0
H473 H 0.76221 0.10227 0.67673 0.0
H474 H 0.77538 0.08296 0.6551 0.0
H475 H 0.73914 0.03013 0.6711 0.0
H476 H 0.76974 0.03217 0.6631 0.0
H477 H 0.74838 0.04972 0.64737 0.0
H478 H 0.84009 0.04071 0.65156 0.0
C479 C 0.81283 0.04145 0.67799 0.0
C480 C 0.33654 0.19719 0.99056 0.0
C481 C 0.35664 0.18591 0.97957 0.0
C482 C 0.36462 0.19441 0.95732 0.0
C483 C 0.33697 0.22716 0.95952 0.0
C484 C 0.32643 0.21777 0.97958 0.0
C485 C 0.30351 0.23177 0.98539 0.0
H486 H 0.23346 0.32836 0.95062 0.0
C487 C 0.32412 0.2483 0.95205 0.0
C488 C 0.30314 0.25084 0.96551 0.0
H489 H 0.21845 0.28268 0.01066 0.0
H490 H 0.25416 0.25878 1.00117 0.0
H491 H 0.27461 0.34141 0.95556 0.0
H492 H 0.25072 0.28725 0.91276 0.0
H493 H 0.27522 0.30093 0.89827 0.0
H494 H 0.25123 0.3192 0.90959 0.0
H495 H 0.28561 0.34223 0.92624 0.0
H496 H 0.30368 0.33037 0.9503 0.0
C497 C 0.30603 0.24315 1.01028 0.0
C498 C 0.28189 0.21487 0.98367 0.0
C499 C 0.36893 0.32021 0.9244 0.0
C500 C 0.36025 0.34222 0.91585 0.0
C501 C 0.33811 0.34262 0.90379 0.0
C502 C 0.32295 0.32277 0.90465 0.0
C503 C 0.32997 0.30301 0.91815 0.0
C504 C 0.35341 0.30059 0.92508 0.0
C505 C 0.3579 0.27656 0.93612 0.0
C506 C 0.3323 0.26667 0.93705 0.0
C507 C 0.31603 0.2838 0.9292 0.0
C508 C 0.36857 0.27945 0.96141 0.0
C509 C 0.37502 0.26258 0.91964 0.0
C510 C 0.23724 0.31295 0.96162 0.0
C511 C 0.22256 0.30735 0.98108 0.0
C512 C 0.22924 0.28754 0.99539 0.0
C513 C 0.2499 0.27365 0.98987 0.0
C514 C 0.26432 0.27986 0.97013 0.0
C515 C 0.25776 0.29957 0.95677 0.0
C516 C 0.27526 0.30556 0.93757 0.0
C517 C 0.29351 0.28583 0.94085 0.0
C518 C 0.28725 0.2703 0.95986 0.0
C519 C 0.28543 0.33106 0.94254 0.0
C520 C 0.26248 0.30327 0.91317 0.0
H521 H 0.35922 0.2193 0.92903 0.0
H522 H 0.32896 0.19011 1.00685 0.0
H523 H 0.28168 0.20564 0.96607 0.0
H524 H 0.26481 0.22457 0.98545 0.0
H525 H 0.28269 0.20108 0.99788 0.0
H526 H 0.32266 0.254 0.0113 0.0
H527 H 0.30691 0.22914 0.02427 0.0
H528 H 0.2909 0.25509 0.01446 0.0
H529 H 0.38625 0.319 0.93289 0.0
H530 H 0.33159 0.35896 0.89582 0.0
H531 H 0.30568 0.32393 0.89638 0.0
H532 H 0.35676 0.29068 0.97279 0.0
H533 H 0.38654 0.28786 0.9607 0.0
H534 H 0.3707 0.26185 0.97019 0.0
H535 H 0.38917 0.27445 0.91231 0.0
H536 H 0.36523 0.25457 0.90432 0.0
H537 H 0.3848 0.24856 0.92955 0.0
H538 H 0.37881 0.18526 0.94782 0.0
C539 C 0.35438 0.21455 0.94699 0.0
C540 C 0.33039 0.8008 0.98261 0.0
C541 C 0.34719 0.81495 0.96953 0.0
C542 C 0.34991 0.81054 0.94489 0.0
C543 C 0.3242 0.77623 0.94757 0.0
C544 C 0.3183 0.78171 0.97073 0.0
C545 C 0.29763 0.76549 0.97888 0.0
H546 H 0.22486 0.66981 0.94485 0.0
C547 C 0.31123 0.75513 0.93988 0.0
C548 C 0.2939 0.74908 0.95693 0.0
H549 H 0.22 0.70722 0.01195 0.0
H550 H 0.25312 0.73361 0.99974 0.0
H551 H 0.23596 0.71373 0.9088 0.0
H552 H 0.26907 0.65868 0.94437 0.0
H553 H 0.29592 0.67141 0.93384 0.0
H554 H 0.27379 0.6595 0.91337 0.0
H555 H 0.23713 0.68209 0.90327 0.0
H556 H 0.25858 0.70208 0.88999 0.0
C557 C 0.27551 0.781 0.98386 0.0
C558 C 0.30554 0.75123 1.00093 0.0
C559 C 0.35605 0.69119 0.89829 0.0
C560 C 0.34807 0.66796 0.89275 0.0
C561 C 0.32441 0.66507 0.88448 0.0
C562 C 0.3077 0.68333 0.88806 0.0
C563 C 0.31501 0.70395 0.90019 0.0
C564 C 0.339 0.70909 0.90217 0.0
C565 C 0.34308 0.73322 0.91331 0.0
C566 C 0.31756 0.73913 0.92152 0.0
C567 C 0.30178 0.72074 0.91548 0.0
C568 C 0.35282 0.75005 0.89376 0.0
C569 C 0.36064 0.7313 0.93458 0.0
C570 C 0.23044 0.68395 0.95687 0.0
C571 C 0.2193 0.68664 0.97908 0.0
C572 C 0.22806 0.70478 0.99454 0.0
C573 C 0.24714 0.72013 0.98743 0.0
C574 C 0.258 0.71698 0.96488 0.0
C575 C 0.24973 0.69859 0.95045 0.0
C576 C 0.26446 0.69514 0.92847 0.0
C577 C 0.28207 0.71568 0.93077 0.0
C578 C 0.27848 0.7289 0.95213 0.0
C579 C 0.24821 0.69829 0.90636 0.0
C580 C 0.2765 0.67005 0.92993 0.0
H581 H 0.33898 0.78983 0.91475 0.0
H582 H 0.32667 0.80468 1.00118 0.0
H583 H 0.32236 0.74138 0.99711 0.0
H584 H 0.29191 0.73797 1.00625 0.0
H585 H 0.30879 0.76337 0.01632 0.0
H586 H 0.27133 0.7923 0.96811 0.0
H587 H 0.27872 0.79296 0.9994 0.0
H588 H 0.25953 0.77007 0.98764 0.0
H589 H 0.37445 0.69434 0.9033 0.0
H590 H 0.31811 0.64774 0.87855 0.0
H591 H 0.28939 0.68014 0.88326 0.0
H592 H 0.36422 0.74019 0.88082 0.0
H593 H 0.3646 0.76408 0.90131 0.0
H594 H 0.33804 0.75844 0.88353 0.0
H595 H 0.35411 0.71808 0.94785 0.0
H596 H 0.36291 0.74869 0.94375 0.0
H597 H 0.37872 0.72587 0.92847 0.0
H598 H 0.36145 0.82176 0.93413 0.0
C599 C 0.33805 0.79164 0.93383 0.0
C600 C 0.83729 0.29261 1.00046 0.0
C601 C 0.84389 0.31713 1.00217 0.0
C602 C 0.82596 0.33415 1.00622 0.0
C603 C 0.7954 0.30364 1.00484 0.0
C604 C 0.81264 0.28623 1.00188 0.0
C605 C 0.80099 0.2615 1.00046 0.0
H606 H 0.69317 0.20076 0.99021 0.0
C607 C 0.77156 0.29247 1.00392 0.0
C608 C 0.77418 0.26755 1.0012 0.0
H609 H 0.76191 0.16683 0.99691 0.0
H610 H 0.78129 0.20637 0.9994 0.0
H611 H 0.70033 0.23378 0.03107 0.0
H612 H 0.70828 0.24227 0.9556 0.0
H613 H 0.69563 0.26916 0.96547 0.0
H614 H 0.67977 0.24148 0.97023 0.0
H615 H 0.67528 0.2392 0.01192 0.0
H616 H 0.69151 0.26325 0.02603 0.0
C617 C 0.80866 0.24708 0.02252 0.0
C618 C 0.80804 0.24925 0.97688 0.0
C619 C 0.69878 0.34658 1.00901 0.0
C620 C 0.67414 0.34195 1.00761 0.0
C621 C 0.66622 0.31868 1.00236 0.0
C622 C 0.68253 0.30011 0.99933 0.0
C623 C 0.70711 0.30472 1.00171 0.0
C624 C 0.71487 0.32769 1.00603 0.0
C625 C 0.74163 0.32925 1.00745 0.0
C626 C 0.74859 0.3032 1.00399 0.0
C627 C 0.72833 0.28909 1.00081 0.0
C628 C 0.74827 0.33841 0.03279 0.0
C629 C 0.75029 0.34529 0.98654 0.0
C630 C 0.71247 0.20157 0.99186 0.0
C631 C 0.72592 0.18065 0.99288 0.0
C632 C 0.75102 0.18276 0.99592 0.0
C633 C 0.76221 0.20563 0.99739 0.0
C634 C 0.74807 0.22651 0.99638 0.0
C635 C 0.72357 0.22376 0.99389 0.0
C636 C 0.71028 0.24667 0.99488 0.0
C637 C 0.73047 0.26411 0.99829 0.0
C638 C 0.75307 0.25284 0.99882 0.0
C639 C 0.69332 0.24582 0.01693 0.0
C640 C 0.69762 0.25017 0.97043 0.0
H641 H 0.78963 0.34182 1.01044 0.0
H642 H 0.85078 0.27906 0.99763 0.0
H643 H 0.80365 0.26092 0.96146 0.0
H644 H 0.79842 0.2322 0.97435 0.0
H645 H 0.82753 0.2455 0.97648 0.0
H646 H 0.80549 0.25754 0.03912 0.0
H647 H 0.828 0.24266 0.02161 0.0
H648 H 0.79848 0.2303 0.02427 0.0
H649 H 0.70539 0.36433 0.01298 0.0
H650 H 0.6473 0.31483 1.00069 0.0
H651 H 0.67519 0.28284 0.99557 0.0
H652 H 0.73543 0.33168 0.04638 0.0
H653 H 0.74796 0.35822 0.03362 0.0
H654 H 0.76588 0.33198 0.03898 0.0
H655 H 0.73723 0.3455 0.97155 0.0
H656 H 0.76702 0.33875 0.97827 0.0
H657 H 0.75285 0.36407 0.99243 0.0
H658 H 0.83052 0.35289 1.00797 0.0
C659 C 0.80205 0.32762 1.00759 0.0
C660 C 0.83347 0.69258 1.00474 0.0
C661 C 0.83792 0.66792 1.00929 0.0
C662 C 0.81861 0.65355 0.01661 0.0
C663 C 0.79262 0.68786 0.01903 0.0
C664 C 0.81032 0.7022 1.00952 0.0
C665 C 0.80122 0.72789 1.00696 0.0
H666 H 0.71411 0.80835 0.04051 0.0
C667 C 0.77224 0.70281 0.02623 0.0
C668 C 0.776 0.7262 0.01797 0.0
H669 H 0.74288 0.80638 0.96926 0.0
H670 H 0.76459 0.76939 0.97909 0.0
H671 H 0.69413 0.76855 0.03383 0.0
H672 H 0.75692 0.77877 0.0746 0.0
H673 H 0.73818 0.75824 0.08962 0.0
H674 H 0.72669 0.7872 0.08151 0.0
H675 H 0.69277 0.76533 0.06534 0.0
H676 H 0.69714 0.74006 0.0457 0.0
C677 C 0.80094 0.73481 0.9804 0.0
C678 C 0.81708 0.74506 0.02148 0.0
C679 C 0.70447 0.6682 0.07505 0.0
C680 C 0.68541 0.67929 0.08719 0.0
C681 C 0.68746 0.70356 0.09353 0.0
C682 C 0.70664 0.71723 0.08512 0.0
C683 C 0.72333 0.70662 0.06971 0.0
C684 C 0.7233 0.68224 0.06651 0.0
C685 C 0.74382 0.67405 0.05116 0.0
C686 C 0.75402 0.69796 0.04318 0.0
C687 C 0.74139 0.71684 0.05358 0.0
C688 C 0.73381 0.65975 0.02965 0.0
C689 C 0.7614 0.6597 0.06714 0.0
C690 C 0.72649 0.80116 0.02746 0.0
C691 C 0.72772 0.81116 1.0046 0.0
C692 C 0.74233 0.79968 0.98737 0.0
C693 C 0.75547 0.77874 0.99317 0.0
C694 C 0.75384 0.76901 0.01629 0.0
C695 C 0.73798 0.77948 0.03224 0.0
C696 C 0.72988 0.76238 0.05116 0.0
C697 C 0.74377 0.74018 0.04425 0.0
C698 C 0.75952 0.74456 0.02517 0.0
C699 C 0.7022 0.75887 0.04913 0.0
C700 C 0.73819 0.77213 0.07563 0.0
H701 H 0.78253 0.65126 0.02716 0.0
H702 H 0.84774 0.70406 0.99855 0.0
H703 H 0.81796 0.7394 0.04048 0.0
H704 H 0.80972 0.76347 0.02088 0.0
H705 H 0.83554 0.74547 0.01417 0.0
H706 H 0.78555 0.72645 0.97102 0.0
H707 H 0.81764 0.72892 0.97141 0.0
H708 H 0.80023 0.75443 0.97822 0.0
H709 H 0.7037 0.64948 0.07029 0.0
H710 H 0.67347 0.71228 0.10367 0.0
H711 H 0.70711 0.73577 0.0898 0.0
H712 H 0.71782 0.66879 0.0221 0.0
H713 H 0.72844 0.64146 0.0351 0.0
H714 H 0.74673 0.6583 0.01478 0.0
H715 H 0.77988 0.66681 0.06615 0.0
H716 H 0.76167 0.64049 0.06219 0.0
H717 H 0.75656 0.66053 0.0864 0.0
H718 H 0.821 0.63453 0.01922 0.0
C719 C 0.79623 0.66329 0.02144 0.0
C720 C 0.47071 0.81741 0.72793 0.0
C721 C 0.45657 0.8317 0.7122 0.0
C722 C 0.43142 0.83053 0.71433 0.0
C723 C 0.4352 0.8077 0.75037 0.0
C724 C 0.45915 0.80443 0.7465 0.0
C725 C 0.46883 0.78639 0.76471 0.0
H726 H 0.44829 0.73272 0.87341 0.0
C727 C 0.42855 0.79766 0.7733 0.0
C728 C 0.44663 0.78188 0.78064 0.0
H729 H 0.48648 0.69719 0.81651 0.0
H730 H 0.47546 0.72985 0.78918 0.0
H731 H 0.45932 0.78207 0.86813 0.0
H732 H 0.4041 0.73893 0.84109 0.0
H733 H 0.3905 0.76635 0.84811 0.0
H734 H 0.40694 0.75056 0.87085 0.0
H735 H 0.43027 0.78443 0.88079 0.0
H736 H 0.44013 0.80462 0.8577 0.0
C737 C 0.48925 0.79771 0.77924 0.0
C738 C 0.47737 0.76387 0.75144 0.0
C739 C 0.3904 0.85813 0.82711 0.0
C740 C 0.3931 0.85943 0.85206 0.0
C741 C 0.39217 0.83795 0.86512 0.0
C742 C 0.39477 0.81607 0.8534 0.0
C743 C 0.39902 0.8159 0.82871 0.0
C744 C 0.39483 0.83628 0.81557 0.0
C745 C 0.40165 0.83312 0.7897 0.0
C746 C 0.41303 0.80817 0.79037 0.0
C747 C 0.41207 0.79879 0.81349 0.0
C748 C 0.41973 0.85294 0.78267 0.0
C749 C 0.37868 0.83405 0.77443 0.0
C750 C 0.45493 0.73175 0.85527 0.0
C751 C 0.46841 0.71208 0.84751 0.0
C752 C 0.47657 0.71227 0.82346 0.0
C753 C 0.47069 0.73135 0.8077 0.0
C754 C 0.457 0.75072 0.81611 0.0
C755 C 0.4487 0.74992 0.83937 0.0
C756 C 0.43015 0.76845 0.84441 0.0
C757 C 0.42769 0.77998 0.82009 0.0
C758 C 0.44452 0.77083 0.80371 0.0
C759 C 0.44029 0.78578 0.86373 0.0
C760 C 0.40665 0.75557 0.85168 0.0
H761 H 0.40153 0.81699 0.73419 0.0
H762 H 0.48992 0.81655 0.72585 0.0
H763 H 0.46199 0.75248 0.7461 0.0
H764 H 0.48988 0.75337 0.76251 0.0
H765 H 0.48746 0.76873 0.73506 0.0
H766 H 0.48315 0.81445 0.78802 0.0
H767 H 0.50468 0.80199 0.7675 0.0
H768 H 0.49544 0.78524 0.79334 0.0
H769 H 0.38911 0.8744 0.81682 0.0
H770 H 0.39292 0.83795 0.88443 0.0
H771 H 0.39584 0.80046 0.86432 0.0
H772 H 0.43576 0.85233 0.79439 0.0
H773 H 0.41156 0.87093 0.78408 0.0
H774 H 0.42577 0.85158 0.76402 0.0
H775 H 0.36512 0.84609 0.78254 0.0
H776 H 0.37041 0.81609 0.77263 0.0
H777 H 0.38215 0.84141 0.75646 0.0
H778 H 0.42 0.8401 0.70201 0.0
C779 C 0.4207 0.81813 0.7331 0.0
C780 C 0.29197 0.53932 0.82762 0.0
C781 C 0.30689 0.55231 0.8438 0.0
C782 C 0.30374 0.57722 0.84571 0.0
C783 C 0.26899 0.57516 0.82058 0.0
C784 C 0.27335 0.55161 0.81539 0.0
C785 C 0.25674 0.54349 0.79508 0.0
H786 H 0.16131 0.57774 0.72282 0.0
C787 C 0.24797 0.58323 0.80777 0.0
C788 C 0.24105 0.56582 0.79109 0.0
H789 H 0.19804 0.51034 0.71839 0.0
H790 H 0.22456 0.52258 0.75133 0.0
H791 H 0.15098 0.57807 0.76838 0.0
H792 H 0.20568 0.61354 0.73333 0.0
H793 H 0.19436 0.63274 0.75579 0.0
H794 H 0.17407 0.61927 0.73472 0.0
H795 H 0.15131 0.60941 0.77103 0.0
H796 H 0.16378 0.59072 0.79423 0.0
C797 C 0.24184 0.52201 0.8035 0.0
C798 C 0.27206 0.53767 0.773 0.0
C799 C 0.18782 0.62997 0.85332 0.0
C800 C 0.1642 0.63535 0.84657 0.0
C801 C 0.15975 0.64134 0.82252 0.0
C802 C 0.17677 0.63595 0.80497 0.0
C803 C 0.19777 0.6242 0.81182 0.0
C804 C 0.20436 0.62395 0.83552 0.0
C805 C 0.22827 0.61222 0.83909 0.0
C806 C 0.23264 0.60223 0.81391 0.0
C807 C 0.21369 0.60788 0.79868 0.0
C808 C 0.2263 0.59212 0.85793 0.0
C809 C 0.24626 0.63171 0.84693 0.0
C810 C 0.17532 0.56568 0.72854 0.0
C811 C 0.17783 0.54335 0.71758 0.0
C812 C 0.19579 0.52782 0.72635 0.0
C813 C 0.21124 0.53497 0.7453 0.0
C814 C 0.20838 0.55767 0.75594 0.0
C815 C 0.19012 0.57218 0.74767 0.0
C816 C 0.1871 0.59439 0.7622 0.0
C817 C 0.20787 0.59217 0.77951 0.0
C818 C 0.22068 0.5706 0.77604 0.0
C819 C 0.16216 0.59326 0.77465 0.0
C820 C 0.19033 0.61625 0.74568 0.0
H821 H 0.28449 0.60785 0.83384 0.0
H822 H 0.29496 0.52049 0.82444 0.0
H823 H 0.28407 0.5529 0.76871 0.0
H824 H 0.26103 0.53425 0.75703 0.0
H825 H 0.28333 0.5217 0.77631 0.0
H826 H 0.23231 0.52642 0.82036 0.0
H827 H 0.25351 0.50633 0.80684 0.0
H828 H 0.22823 0.51684 0.79016 0.0
H829 H 0.19215 0.62657 0.87181 0.0
H830 H 0.14207 0.6469 0.81697 0.0
H831 H 0.17235 0.63923 0.78665 0.0
H832 H 0.21229 0.57899 0.85276 0.0
H833 H 0.22188 0.59945 0.87582 0.0
H834 H 0.2434 0.58244 0.86002 0.0
H835 H 0.25465 0.64047 0.83123 0.0
H836 H 0.26031 0.62442 0.8588 0.0
H837 H 0.23743 0.64586 0.85774 0.0
H838 H 0.31559 0.58788 0.85674 0.0
C839 C 0.28527 0.58869 0.83366 0.0
C840 C 0.48244 0.32817 0.82673 0.0
C841 C 0.48531 0.33179 0.85176 0.0
C842 C 0.49013 0.31188 0.86626 0.0
C843 C 0.49513 0.28702 0.8315 0.0
C844 C 0.48693 0.30509 0.81695 0.0
C845 C 0.48619 0.29651 0.79097 0.0
H846 H 0.52495 0.21076 0.71188 0.0
C847 C 0.50411 0.26742 0.81668 0.0
C848 C 0.4968 0.27123 0.79301 0.0
H849 H 0.45114 0.23245 0.71469 0.0
H850 H 0.45968 0.25633 0.75084 0.0
H851 H 0.5652 0.23062 0.73147 0.0
H852 H 0.53606 0.19685 0.77982 0.0
H853 H 0.55446 0.19489 0.75343 0.0
H854 H 0.5228 0.19176 0.75222 0.0
H855 H 0.57244 0.24319 0.76027 0.0
H856 H 0.55438 0.25956 0.7402 0.0
C857 C 0.50207 0.31252 0.77527 0.0
C858 C 0.46026 0.29646 0.78193 0.0
C859 C 0.56552 0.21118 0.85181 0.0
C860 C 0.58106 0.19463 0.84101 0.0
C861 C 0.58602 0.19666 0.81644 0.0
C862 C 0.57349 0.21306 0.8024 0.0
C863 C 0.55546 0.2269 0.81299 0.0
C864 C 0.55286 0.22712 0.83746 0.0
C865 C 0.53323 0.24359 0.84558 0.0
C866 C 0.52348 0.25186 0.82161 0.0
C867 C 0.53608 0.24133 0.80275 0.0
C868 C 0.54452 0.26407 0.86064 0.0
C869 C 0.51428 0.2288 0.8593 0.0
C870 C 0.51088 0.22198 0.71905 0.0
C871 C 0.48772 0.2206 0.70961 0.0
C872 C 0.46938 0.23387 0.721 0.0
C873 C 0.47434 0.24818 0.7414 0.0
C874 C 0.49773 0.24907 0.75059 0.0
C875 C 0.51506 0.23469 0.74021 0.0
C876 C 0.53536 0.22958 0.75702 0.0
C877 C 0.52697 0.24267 0.77923 0.0
C878 C 0.50632 0.25612 0.77469 0.0
C879 C 0.5582 0.24121 0.74674 0.0
C880 C 0.53747 0.20201 0.76082 0.0
H881 H 0.4987 0.27519 0.86817 0.0
H882 H 0.47803 0.34298 0.81517 0.0
H883 H 0.44972 0.28205 0.7906 0.0
H884 H 0.45966 0.29411 0.76229 0.0
H885 H 0.4515 0.31382 0.78591 0.0
H886 H 0.52064 0.31312 0.78233 0.0
H887 H 0.49498 0.33103 0.77471 0.0
H888 H 0.50273 0.30553 0.75669 0.0
H889 H 0.56139 0.21013 0.87067 0.0
H890 H 0.59832 0.18442 0.80787 0.0
H891 H 0.57719 0.21334 0.78364 0.0
H892 H 0.5638 0.26104 0.86439 0.0
H893 H 0.53591 0.26582 0.87841 0.0
H894 H 0.54346 0.2815 0.8513 0.0
H895 H 0.51095 0.21144 0.85018 0.0
H896 H 0.49673 0.23783 0.86013 0.0
H897 H 0.52032 0.22499 0.87779 0.0
H898 H 0.49132 0.31385 0.88548 0.0
C899 C 0.49491 0.28962 0.85629 0.0
C900 C 0.77749 0.52798 0.72147 0.0
C901 C 0.80119 0.53581 0.71632 0.0
C902 C 0.81482 0.54622 0.73471 0.0
C903 C 0.78515 0.53449 0.76339 0.0
C904 C 0.76938 0.52865 0.74552 0.0
C905 C 0.74543 0.52132 0.75646 0.0
H906 H 0.69037 0.49105 0.86291 0.0
C907 C 0.7756 0.5263 0.78618 0.0
C908 C 0.75089 0.52258 0.78345 0.0
H909 H 0.66194 0.54588 0.81716 0.0
H910 H 0.69768 0.5427 0.79129 0.0
H911 H 0.72571 0.45129 0.85166 0.0
H912 H 0.74028 0.51422 0.86604 0.0
H913 H 0.76016 0.48981 0.86811 0.0
H914 H 0.72989 0.48595 0.87715 0.0
H915 H 0.74618 0.45129 0.82668 0.0
H916 H 0.71555 0.4563 0.82174 0.0
C917 C 0.73895 0.4957 0.74877 0.0
C918 C 0.72586 0.53896 0.74891 0.0
C919 C 0.83662 0.47994 0.83405 0.0
C920 C 0.8346 0.46129 0.85057 0.0
C921 C 0.81175 0.45275 0.85681 0.0
C922 C 0.79119 0.46316 0.84705 0.0
C923 C 0.79359 0.48256 0.83135 0.0
C924 C 0.81602 0.49005 0.82443 0.0
C925 C 0.81528 0.51016 0.80678 0.0
C926 C 0.78835 0.51287 0.80347 0.0
C927 C 0.77596 0.49725 0.81861 0.0
C928 C 0.8288 0.50243 0.78378 0.0
C929 C 0.82626 0.5325 0.81877 0.0
C930 C 0.69121 0.50168 0.8468 0.0
C931 C 0.6732 0.51838 0.84193 0.0
C932 C 0.67524 0.5324 0.82098 0.0
C933 C 0.69549 0.53031 0.80582 0.0
C934 C 0.71334 0.51353 0.81125 0.0
C935 C 0.71122 0.49997 0.83183 0.0
C936 C 0.73411 0.48731 0.83797 0.0
C937 C 0.75073 0.49758 0.81923 0.0
C938 C 0.73819 0.51103 0.8023 0.0
C939 C 0.7303 0.46012 0.83452 0.0
C940 C 0.74161 0.49454 0.86367 0.0
H941 H 0.81792 0.55321 0.77198 0.0
H942 H 0.76622 0.52079 0.70749 0.0
H943 H 0.72888 0.55678 0.75715 0.0
H944 H 0.70795 0.53227 0.75414 0.0
H945 H 0.72573 0.54109 0.72919 0.0
H946 H 0.75345 0.48307 0.7537 0.0
H947 H 0.73617 0.49469 0.72916 0.0
H948 H 0.72222 0.48979 0.75769 0.0
H949 H 0.85394 0.48723 0.82935 0.0
H950 H 0.80983 0.43837 0.86957 0.0
H951 H 0.7742 0.45622 0.85258 0.0
H952 H 0.81646 0.49423 0.77054 0.0
H953 H 0.84295 0.48904 0.78742 0.0
H954 H 0.83844 0.51752 0.77546 0.0
H955 H 0.81972 0.53447 0.83743 0.0
H956 H 0.82127 0.54915 0.80955 0.0
H957 H 0.84608 0.53122 0.81927 0.0
H958 H 0.83252 0.55321 0.73106 0.0
C959 C 0.80673 0.54582 0.75825 0.0
C960 C 0.49023 0.22671 0.33553 0.0
C961 C 0.48548 0.20232 0.34112 0.0
C962 C 0.47844 0.18684 0.32266 0.0
C963 C 0.48686 0.21718 0.29343 0.0
C964 C 0.48998 0.23398 0.31114 0.0
C965 C 0.49371 0.25871 0.29998 0.0
H966 H 0.51839 0.31852 0.19453 0.0
C967 C 0.49268 0.22783 0.27032 0.0
C968 C 0.49402 0.25279 0.27301 0.0
H969 H 0.46986 0.34623 0.24739 0.0
H970 H 0.47318 0.30861 0.27 0.0
H971 H 0.55498 0.28493 0.22918 0.0
H972 H 0.49002 0.27719 0.18916 0.0
H973 H 0.50447 0.24983 0.18596 0.0
H974 H 0.51881 0.27649 0.17507 0.0
H975 H 0.55407 0.28383 0.19718 0.0
H976 H 0.55665 0.25703 0.21488 0.0
C977 C 0.51786 0.26917 0.30797 0.0
C978 C 0.47291 0.27515 0.30726 0.0
C979 C 0.52667 0.17145 0.20788 0.0
C980 C 0.53797 0.17527 0.18583 0.0
C981 C 0.54367 0.19876 0.17895 0.0
C982 C 0.53709 0.21816 0.19327 0.0
C983 C 0.5243 0.21409 0.2145 0.0
C984 C 0.51989 0.19103 0.22179 0.0
C985 C 0.50642 0.18996 0.24495 0.0
C986 C 0.50287 0.2165 0.25004 0.0
C987 C 0.51335 0.23033 0.23213 0.0
C988 C 0.52297 0.17768 0.26336 0.0
C989 C 0.48237 0.17665 0.24081 0.0
C990 C 0.50952 0.31724 0.21169 0.0
C991 C 0.49446 0.33561 0.2194 0.0
C992 C 0.48226 0.33266 0.24139 0.0
C993 C 0.48455 0.31119 0.25478 0.0
C994 C 0.4996 0.29282 0.24645 0.0
C995 C 0.51106 0.296 0.22469 0.0
C996 C 0.52028 0.27309 0.2145 0.0
C997 C 0.51187 0.25549 0.23309 0.0
C998 C 0.50127 0.26694 0.25283 0.0
C999 C 0.54793 0.27469 0.21365 0.0
C1000 C 0.50804 0.26882 0.18985 0.0
H1001 H 0.47365 0.18155 0.28561 0.0
H1002 H 0.49465 0.23933 0.3495 0.0
H1003 H 0.45665 0.27125 0.29652 0.0
H1004 H 0.47784 0.29418 0.30527 0.0
H1005 H 0.46837 0.27275 0.32642 0.0
H1006 H 0.53269 0.25673 0.30353 0.0
H1007 H 0.51797 0.27241 0.32755 0.0
H1008 H 0.52131 0.28642 0.29882 0.0
H1009 H 0.52246 0.15357 0.2139 0.0
H1010 H 0.55224 0.20228 0.16198 0.0
H1011 H 0.54146 0.2356 0.18674 0.0
H1012 H 0.53946 0.18842 0.26623 0.0
H1013 H 0.52841 0.15969 0.25698 0.0
H1014 H 0.51456 0.17487 0.28086 0.0
H1015 H 0.47844 0.17379 0.22155 0.0
H1016 H 0.46693 0.18705 0.24764 0.0
H1017 H 0.48243 0.1588 0.2494 0.0
H1018 H 0.47375 0.16846 0.32652 0.0
C1019 C 0.47875 0.19426 0.29897 0.0
C1020 C 0.78663 0.52123 0.33216 0.0
C1021 C 0.80943 0.51323 0.34013 0.0
C1022 C 0.82336 0.49917 0.32474 0.0
C1023 C 0.79531 0.50554 0.29271 0.0
C1024 C 0.77955 0.5164 0.3082 0.0
C1025 C 0.75581 0.52144 0.29554 0.0
H1026 H 0.70118 0.5308 0.18498 0.0
C1027 C 0.7857 0.50675 0.26841 0.0
C1028 C 0.7617 0.51437 0.26954 0.0
H1029 H 0.66309 0.51643 0.25029 0.0
H1030 H 0.70145 0.51476 0.272 0.0
H1031 H 0.74469 0.5645 0.20648 0.0
H1032 H 0.73249 0.49049 0.19107 0.0
H1033 H 0.76254 0.49515 0.18397 0.0
H1034 H 0.73983 0.51162 0.16821 0.0
H1035 H 0.74493 0.55256 0.17674 0.0
H1036 H 0.77172 0.55385 0.19472 0.0
C1037 C 0.74957 0.54811 0.2974 0.0
C1038 C 0.73616 0.50564 0.30678 0.0
C1039 C 0.84656 0.50657 0.20093 0.0
C1040 C 0.84491 0.51249 0.17665 0.0
C1041 C 0.82258 0.51904 0.16714 0.0
C1042 C 0.80224 0.51976 0.18159 0.0
C1043 C 0.80413 0.51376 0.20588 0.0
C1044 C 0.82603 0.50747 0.2152 0.0
C1045 C 0.82484 0.50244 0.2415 0.0
C1046 C 0.7983 0.50664 0.2464 0.0
C1047 C 0.78648 0.5132 0.22547 0.0
C1048 C 0.84111 0.52098 0.25412 0.0
C1049 C 0.83235 0.4761 0.24577 0.0
C1050 C 0.70077 0.52802 0.20412 0.0
C1051 C 0.67905 0.52386 0.21578 0.0
C1052 C 0.67956 0.52004 0.2408 0.0
C1053 C 0.70166 0.51927 0.25344 0.0
C1054 C 0.72331 0.52266 0.24105 0.0
C1055 C 0.7223 0.52654 0.21664 0.0
C1056 C 0.7462 0.52504 0.20494 0.0
C1057 C 0.76181 0.51859 0.22592 0.0
C1058 C 0.74895 0.51842 0.24758 0.0
C1059 C 0.7523 0.55015 0.19499 0.0
C1060 C 0.74539 0.50472 0.18593 0.0
H1061 H 0.82781 0.48445 0.29034 0.0
H1062 H 0.775 0.53112 0.34404 0.0
H1063 H 0.73524 0.48789 0.29793 0.0
H1064 H 0.7184 0.51427 0.30603 0.0
H1065 H 0.73954 0.50264 0.3261 0.0
H1066 H 0.76435 0.55925 0.29018 0.0
H1067 H 0.74642 0.55331 0.31629 0.0
H1068 H 0.73311 0.55207 0.28705 0.0
H1069 H 0.86355 0.50164 0.20877 0.0
H1070 H 0.82074 0.52334 0.14838 0.0
H1071 H 0.78585 0.52485 0.17315 0.0
H1072 H 0.83536 0.53944 0.24964 0.0
H1073 H 0.85999 0.51885 0.24836 0.0
H1074 H 0.84111 0.51959 0.27367 0.0
H1075 H 0.83358 0.46566 0.22889 0.0
H1076 H 0.81905 0.46638 0.2568 0.0
H1077 H 0.85012 0.47502 0.25456 0.0
H1078 H 0.84039 0.49211 0.33066 0.0
C1079 C 0.81626 0.49502 0.30129 0.0
C1080 C 0.48025 0.69942 0.25468 0.0
C1081 C 0.4659 0.69228 0.23482 0.0
C1082 C 0.44583 0.70627 0.22885 0.0
C1083 C 0.45926 0.73687 0.25573 0.0
C1084 C 0.47538 0.72165 0.26599 0.0
C1085 C 0.48788 0.73456 0.28659 0.0
H1086 H 0.50848 0.84839 0.33151 0.0
C1087 C 0.46494 0.7612 0.26297 0.0
C1088 C 0.47759 0.76006 0.28471 0.0
H1089 H 0.47287 0.79603 0.37531 0.0
H1090 H 0.47257 0.76765 0.34103 0.0
H1091 H 0.54334 0.81782 0.30296 0.0
H1092 H 0.47338 0.84258 0.28647 0.0
H1093 H 0.4947 0.84866 0.26355 0.0
H1094 H 0.50001 0.85958 0.29276 0.0
H1095 H 0.5392 0.84075 0.28132 0.0
H1096 H 0.54012 0.8098 0.27247 0.0
C1097 C 0.51518 0.73434 0.28288 0.0
C1098 C 0.4812 0.723 0.3105 0.0
C1099 C 0.48453 0.811 0.18997 0.0
C1100 C 0.50318 0.82721 0.1859 0.0
C1101 C 0.51786 0.8345 0.20499 0.0
C1102 C 0.51375 0.8259 0.22798 0.0
C1103 C 0.49463 0.81025 0.23186 0.0
C1104 C 0.48106 0.80212 0.21298 0.0
C1105 C 0.46465 0.78204 0.22002 0.0
C1106 C 0.47093 0.7796 0.24653 0.0
C1107 C 0.48767 0.79701 0.25311 0.0
C1108 C 0.47077 0.7597 0.20469 0.0
C1109 C 0.43861 0.79033 0.21662 0.0
C1110 C 0.501 0.83075 0.33407 0.0
C1111 C 0.49066 0.8246 0.35605 0.0
C1112 C 0.48124 0.80119 0.35867 0.0
C1113 C 0.48121 0.78481 0.33921 0.0
C1114 C 0.49109 0.79184 0.31725 0.0
C1115 C 0.50038 0.81466 0.31491 0.0
C1116 C 0.50598 0.82075 0.28939 0.0
C1117 C 0.49547 0.79903 0.27689 0.0
C1118 C 0.48932 0.78112 0.29306 0.0
C1119 C 0.53353 0.82242 0.28632 0.0
C1120 C 0.49282 0.84413 0.28259 0.0
H1121 H 0.42802 0.73985 0.23328 0.0
H1122 H 0.49515 0.68856 0.26042 0.0
H1123 H 0.46161 0.72409 0.31362 0.0
H1124 H 0.49054 0.7321 0.32545 0.0
H1125 H 0.48649 0.70388 0.31061 0.0
H1126 H 0.51993 0.7425 0.26543 0.0
H1127 H 0.52218 0.71579 0.28321 0.0
H1128 H 0.52428 0.74461 0.29725 0.0
H1129 H 0.47344 0.80477 0.17537 0.0
H1130 H 0.53234 0.84704 0.20216 0.0
H1131 H 0.52554 0.83155 0.24195 0.0
H1132 H 0.47801 0.76436 0.18685 0.0
H1133 H 0.45466 0.74896 0.20063 0.0
H1134 H 0.48447 0.74841 0.21351 0.0
H1135 H 0.4356 0.80783 0.22554 0.0
H1136 H 0.42576 0.77756 0.22442 0.0
H1137 H 0.4344 0.79232 0.19733 0.0
H1138 H 0.43403 0.7009 0.21446 0.0
C1139 C 0.44242 0.72867 0.23934 0.0
C1140 C 0.29933 0.5332 0.24373 0.0
C1141 C 0.30284 0.5389 0.21918 0.0
C1142 C 0.28309 0.54646 0.2056 0.0
C1143 C 0.25676 0.53475 0.23729 0.0
C1144 C 0.2756 0.53244 0.25281 0.0
C1145 C 0.26607 0.52591 0.27754 0.0
H1146 H 0.16711 0.48511 0.33861 0.0
C1147 C 0.23551 0.52412 0.24798 0.0
C1148 C 0.23904 0.52319 0.27275 0.0
H1149 H 0.20105 0.55172 0.35753 0.0
H1150 H 0.22701 0.54852 0.32186 0.0
H1151 H 0.1588 0.50166 0.28693 0.0
H1152 H 0.21556 0.45615 0.31288 0.0
H1153 H 0.2057 0.44533 0.28506 0.0
H1154 H 0.18536 0.44561 0.31012 0.0
H1155 H 0.15329 0.47278 0.29977 0.0
H1156 H 0.16107 0.47581 0.26904 0.0
C1157 C 0.27144 0.5461 0.29534 0.0
C1158 C 0.27712 0.50222 0.286 0.0
C1159 C 0.19678 0.46446 0.19239 0.0
C1160 C 0.18272 0.44409 0.19596 0.0
C1161 C 0.17727 0.43692 0.21944 0.0
C1162 C 0.18544 0.45036 0.23903 0.0
C1163 C 0.19844 0.4715 0.23493 0.0
C1164 C 0.20451 0.47775 0.21191 0.0
C1165 C 0.21846 0.50055 0.21053 0.0
C1166 C 0.22086 0.50654 0.23695 0.0
C1167 C 0.20848 0.48984 0.25099 0.0
C1168 C 0.20299 0.51926 0.19743 0.0
C1169 C 0.24262 0.49551 0.19774 0.0
C1170 C 0.18092 0.49841 0.33595 0.0
C1171 C 0.18257 0.51815 0.35142 0.0
C1172 C 0.19983 0.53599 0.34632 0.0
C1173 C 0.21515 0.53397 0.32625 0.0
C1174 C 0.21321 0.51396 0.31124 0.0
C1175 C 0.19559 0.49711 0.31564 0.0
C1176 C 0.19147 0.48111 0.29433 0.0
C1177 C 0.20791 0.49262 0.2761 0.0
C1178 C 0.22237 0.51005 0.28678 0.0
C1179 C 0.16478 0.48273 0.28705 0.0
C1180 C 0.19976 0.45561 0.30082 0.0
H1181 H 0.24517 0.54931 0.20347 0.0
H1182 H 0.3143 0.52821 0.25489 0.0
H1183 H 0.27366 0.48777 0.2728 0.0
H1184 H 0.2693 0.49677 0.30339 0.0
H1185 H 0.29676 0.50405 0.28835 0.0
H1186 H 0.26156 0.56259 0.29046 0.0
H1187 H 0.29087 0.55023 0.29548 0.0
H1188 H 0.26635 0.54075 0.31371 0.0
H1189 H 0.20054 0.47089 0.17454 0.0
H1190 H 0.1661 0.42142 0.22253 0.0
H1191 H 0.18058 0.44436 0.25655 0.0
H1192 H 0.18413 0.51853 0.20369 0.0
H1193 H 0.2031 0.516 0.17785 0.0
H1194 H 0.20911 0.53768 0.20082 0.0
H1195 H 0.24155 0.48013 0.18524 0.0
H1196 H 0.25699 0.49127 0.21075 0.0
H1197 H 0.24824 0.51064 0.18638 0.0
H1198 H 0.28541 0.55187 0.18718 0.0
C1199 C 0.25997 0.54461 0.21471 0.0
C1200 C 0.78078 0.71702 0.52462 0.0
C1201 C 0.79799 0.7032 0.51188 0.0
C1202 C 0.80222 0.70847 0.48768 0.0
C1203 C 0.77854 0.74409 0.49112 0.0
C1204 C 0.77046 0.73722 0.51322 0.0
C1205 C 0.7496 0.75327 0.52068 0.0
H1206 H 0.69827 0.86468 0.50344 0.0
C1207 C 0.76913 0.76768 0.48549 0.0
C1208 C 0.75087 0.77329 0.50186 0.0
H1209 H 0.66734 0.80826 0.54562 0.0
H1210 H 0.7012 0.7822 0.53551 0.0
H1211 H 0.74902 0.85811 0.52037 0.0
H1212 H 0.71204 0.83384 0.45825 0.0
H1213 H 0.74025 0.8444 0.44892 0.0
H1214 H 0.72026 0.86424 0.46445 0.0
H1215 H 0.74931 0.87525 0.49351 0.0
H1216 H 0.7722 0.85345 0.49984 0.0
C1217 C 0.75335 0.76282 0.54616 0.0
C1218 C 0.72652 0.73842 0.51825 0.0
C1219 C 0.8287 0.82184 0.44532 0.0
C1220 C 0.83063 0.8468 0.44539 0.0
C1221 C 0.8099 0.86052 0.44949 0.0
C1222 C 0.78843 0.8495 0.45614 0.0
C1223 C 0.78788 0.82464 0.45951 0.0
C1224 C 0.80755 0.81115 0.45325 0.0
C1225 C 0.80463 0.78525 0.45948 0.0
C1226 C 0.78012 0.78571 0.47161 0.0
C1227 C 0.7707 0.80882 0.47184 0.0
C1228 C 0.82494 0.77837 0.47703 0.0
C1229 C 0.80499 0.77037 0.43606 0.0
C1230 C 0.69857 0.84669 0.5105 0.0
C1231 C 0.68007 0.83864 0.52531 0.0
C1232 C 0.68127 0.81492 0.53396 0.0
C1233 C 0.70073 0.79975 0.52793 0.0
C1234 C 0.71882 0.8081 0.51254 0.0
C1235 C 0.71727 0.83132 0.50417 0.0
C1236 C 0.73751 0.83782 0.48802 0.0
C1237 C 0.75038 0.81415 0.48603 0.0
C1238 C 0.74012 0.79662 0.50098 0.0
C1239 C 0.7528 0.8572 0.50088 0.0
C1240 C 0.72712 0.84566 0.46361 0.0
H1241 H 0.79542 0.73178 0.45861 0.0
H1242 H 0.77571 0.71227 0.54264 0.0
H1243 H 0.72572 0.72957 0.50047 0.0
H1244 H 0.71027 0.74934 0.51976 0.0
H1245 H 0.72584 0.7243 0.53214 0.0
H1246 H 0.77063 0.77256 0.54744 0.0
H1247 H 0.75358 0.74794 0.55923 0.0
H1248 H 0.73889 0.77527 0.55133 0.0
H1249 H 0.8441 0.81087 0.44125 0.0
H1250 H 0.81065 0.87983 0.44945 0.0
H1251 H 0.77352 0.86093 0.4598 0.0
H1252 H 0.82443 0.78993 0.49319 0.0
H1253 H 0.84276 0.78033 0.46855 0.0
H1254 H 0.82397 0.75971 0.48302 0.0
H1255 H 0.80964 0.78125 0.42013 0.0
H1256 H 0.78723 0.7623 0.43229 0.0
H1257 H 0.81859 0.75596 0.43681 0.0
H1258 H 0.81418 0.69749 0.47713 0.0
C1259 C 0.7921 0.72855 0.47714 0.0
C1260 C 0.78674 0.32403 0.52945 0.0
C1261 C 0.80866 0.33258 0.51972 0.0
C1262 C 0.8214 0.31789 0.50386 0.0
C1263 C 0.79441 0.28527 0.51174 0.0
C1264 C 0.77946 0.3002 0.52435 0.0
C1265 C 0.75638 0.28703 0.53096 0.0
H1266 H 0.70367 0.17639 0.54367 0.0
C1267 C 0.78523 0.26083 0.513 0.0
C1268 C 0.76174 0.26146 0.52206 0.0
H1269 H 0.66387 0.24038 0.52809 0.0
H1270 H 0.70173 0.26212 0.52219 0.0
H1271 H 0.73271 0.18193 0.50095 0.0
H1272 H 0.749 0.19951 0.57373 0.0
H1273 H 0.77533 0.18746 0.56173 0.0
H1274 H 0.74856 0.16944 0.56266 0.0
H1275 H 0.74147 0.15971 0.52222 0.0
H1276 H 0.76309 0.17537 0.50419 0.0
C1277 C 0.73521 0.29881 0.51789 0.0
C1278 C 0.75275 0.28745 0.55819 0.0
C1279 C 0.84814 0.1954 0.51287 0.0
C1280 C 0.84742 0.1713 0.51962 0.0
C1281 C 0.82543 0.16111 0.52641 0.0
C1282 C 0.80456 0.17478 0.52677 0.0
C1283 C 0.80557 0.19899 0.52029 0.0
C1284 C 0.8271 0.20892 0.51352 0.0
C1285 C 0.82497 0.23507 0.50796 0.0
C1286 C 0.79833 0.23914 0.51252 0.0
C1287 C 0.7873 0.21797 0.5198 0.0
C1288 C 0.832 0.23915 0.48145 0.0
C1289 C 0.84106 0.24871 0.52593 0.0
C1290 C 0.70273 0.19543 0.54042 0.0
C1291 C 0.68056 0.20669 0.53748 0.0
C1292 C 0.68061 0.23126 0.53127 0.0
C1293 C 0.70241 0.24408 0.52849 0.0
C1294 C 0.72437 0.23239 0.53213 0.0
C1295 C 0.72398 0.20816 0.53698 0.0
C1296 C 0.74802 0.19683 0.53433 0.0
C1297 C 0.76289 0.21792 0.5264 0.0
C1298 C 0.7496 0.23927 0.52654 0.0
C1299 C 0.74641 0.17731 0.51458 0.0
C1300 C 0.75573 0.18762 0.55927 0.0
H1301 H 0.82469 0.28394 0.48755 0.0
H1302 H 0.77593 0.33539 0.54077 0.0
H1303 H 0.76857 0.27983 0.56745 0.0
H1304 H 0.73681 0.27673 0.56319 0.0
H1305 H 0.75004 0.30602 0.56465 0.0
H1306 H 0.73347 0.29186 0.49936 0.0
H1307 H 0.73756 0.31849 0.51688 0.0
H1308 H 0.71822 0.2961 0.52761 0.0
H1309 H 0.86483 0.20371 0.50765 0.0
H1310 H 0.82433 0.14244 0.53129 0.0
H1311 H 0.78849 0.16588 0.53218 0.0
H1312 H 0.83485 0.22214 0.47156 0.0
H1313 H 0.84885 0.24955 0.47995 0.0
H1314 H 0.8177 0.24858 0.47149 0.0
H1315 H 0.83512 0.24529 0.54456 0.0
H1316 H 0.84116 0.26813 0.52325 0.0
H1317 H 0.85997 0.24291 0.5243 0.0
H1318 H 0.83766 0.32429 0.49549 0.0
C1319 C 0.81417 0.29446 0.49956 0.0
C1320 C 0.29715 0.81429 0.52865 0.0
C1321 C 0.31514 0.8277 0.51649 0.0
C1322 C 0.31814 0.82414 0.49175 0.0
C1323 C 0.28296 0.79961 0.49063 0.0
C1324 C 0.28157 0.79941 0.51507 0.0
C1325 C 0.26279 0.78098 0.52288 0.0
H1326 H 0.17275 0.70514 0.48215 0.0
C1327 C 0.26358 0.78569 0.48057 0.0
C1328 C 0.25218 0.7728 0.49873 0.0
H1329 H 0.19588 0.71133 0.55529 0.0
H1330 H 0.22555 0.74155 0.5435 0.0
H1331 H 0.16517 0.74996 0.4718 0.0
H1332 H 0.22385 0.70825 0.45496 0.0
H1333 H 0.2177 0.72708 0.43035 0.0
H1334 H 0.19409 0.70911 0.44281 0.0
H1335 H 0.17217 0.74731 0.44125 0.0
H1336 H 0.18179 0.77308 0.4583 0.0
C1337 C 0.24395 0.79323 0.5387 0.0
C1338 C 0.27567 0.76046 0.53577 0.0
C1339 C 0.21713 0.8238 0.41533 0.0
C1340 C 0.1951 0.81674 0.4054 0.0
C1341 C 0.19037 0.79208 0.40304 0.0
C1342 C 0.20438 0.77545 0.41535 0.0
C1343 C 0.22273 0.78382 0.43017 0.0
C1344 C 0.23065 0.807 0.4279 0.0
C1345 C 0.25181 0.81201 0.44367 0.0
C1346 C 0.25267 0.7888 0.45813 0.0
C1347 C 0.2343 0.7733 0.45127 0.0
C1348 C 0.24678 0.83402 0.45969 0.0
C1349 C 0.27382 0.81608 0.42748 0.0
C1350 C 0.18444 0.71256 0.4957 0.0
C1351 C 0.18225 0.70532 0.51951 0.0
C1352 C 0.19729 0.71636 0.53669 0.0
C1353 C 0.2146 0.73369 0.52984 0.0
C1354 C 0.21664 0.74038 0.50565 0.0
C1355 C 0.20114 0.73007 0.48929 0.0
C1356 C 0.20346 0.74041 0.46481 0.0
C1357 C 0.22434 0.75738 0.46836 0.0
C1358 C 0.23236 0.75757 0.49238 0.0
C1359 C 0.1796 0.75338 0.45858 0.0
C1360 C 0.21001 0.72016 0.44716 0.0
H1361 H 0.30601 0.80588 0.46044 0.0
H1362 H 0.29547 0.81529 0.54788 0.0
H1363 H 0.29058 0.75352 0.52461 0.0
H1364 H 0.26365 0.74529 0.53941 0.0
H1365 H 0.28327 0.76675 0.55301 0.0
H1366 H 0.23618 0.80888 0.52931 0.0
H1367 H 0.2521 0.79958 0.55565 0.0
H1368 H 0.22909 0.78101 0.54314 0.0
H1369 H 0.22201 0.84244 0.41634 0.0
H1370 H 0.17433 0.78594 0.3941 0.0
H1371 H 0.19959 0.75693 0.4143 0.0
H1372 H 0.23023 0.83131 0.47036 0.0
H1373 H 0.24471 0.85046 0.44887 0.0
H1374 H 0.2617 0.83757 0.47217 0.0
H1375 H 0.26873 0.82477 0.41039 0.0
H1376 H 0.28277 0.79892 0.42304 0.0
H1377 H 0.28683 0.8285 0.43578 0.0
H1378 H 0.33252 0.83291 0.4822 0.0
C1379 C 0.30244 0.80967 0.47893 0.0
C1380 C 0.29782 0.2327 0.53272 0.0
C1381 C 0.30129 0.20787 0.53741 0.0
C1382 C 0.28115 0.19357 0.54225 0.0
C1383 C 0.25546 0.22541 0.52978 0.0
C1384 C 0.27403 0.24138 0.53007 0.0
C1385 C 0.2643 0.26647 0.52496 0.0
H1386 H 0.1615 0.32725 0.4903 0.0
C1387 C 0.2346 0.23663 0.51924 0.0
C1388 C 0.23742 0.26146 0.52058 0.0
H1389 H 0.20189 0.34737 0.55271 0.0
H1390 H 0.22756 0.31185 0.54741 0.0
H1391 H 0.20795 0.30411 0.45661 0.0
H1392 H 0.15539 0.27711 0.5061 0.0
H1393 H 0.15689 0.2574 0.48176 0.0
H1394 H 0.14764 0.28763 0.47683 0.0
H1395 H 0.17697 0.30119 0.44881 0.0
H1396 H 0.19756 0.27655 0.44565 0.0
C1397 C 0.27618 0.27671 0.50241 0.0
C1398 C 0.26872 0.28278 0.54659 0.0
C1399 C 0.19519 0.18484 0.45667 0.0
C1400 C 0.17725 0.18888 0.43965 0.0
C1401 C 0.16935 0.21246 0.43578 0.0
C1402 C 0.17826 0.23137 0.44973 0.0
C1403 C 0.19464 0.22647 0.46817 0.0
C1404 C 0.20316 0.20356 0.47099 0.0
C1405 C 0.22032 0.20118 0.49142 0.0
C1406 C 0.22016 0.22664 0.50102 0.0
C1407 C 0.20562 0.24137 0.48703 0.0
C1408 C 0.24487 0.19397 0.48087 0.0
C1409 C 0.21058 0.18278 0.50976 0.0
C1410 C 0.17658 0.32482 0.50219 0.0
C1411 C 0.17994 0.3404 0.52154 0.0
C1412 C 0.19933 0.33605 0.53722 0.0
C1413 C 0.21446 0.31594 0.53396 0.0
C1414 C 0.21071 0.3006 0.51439 0.0
C1415 C 0.1916 0.30499 0.49922 0.0
C1416 C 0.18652 0.2842 0.48297 0.0
C1417 C 0.20426 0.26606 0.49223 0.0
C1418 C 0.21983 0.27616 0.50923 0.0
C1419 C 0.19234 0.29179 0.45707 0.0
C1420 C 0.16025 0.2761 0.48686 0.0
H1421 H 0.24306 0.19104 0.54222 0.0
H1422 H 0.31295 0.24445 0.53008 0.0
H1423 H 0.25714 0.27756 0.56184 0.0
H1424 H 0.26534 0.3017 0.54195 0.0
H1425 H 0.28768 0.28161 0.55241 0.0
H1426 H 0.27358 0.26448 0.48696 0.0
H1427 H 0.29569 0.27922 0.50524 0.0
H1428 H 0.26825 0.29429 0.49782 0.0
H1429 H 0.2014 0.16695 0.46053 0.0
H1430 H 0.15547 0.21605 0.42281 0.0
H1431 H 0.17114 0.24884 0.44647 0.0
H1432 H 0.25166 0.20803 0.46862 0.0
H1433 H 0.24339 0.17702 0.47062 0.0
H1434 H 0.25854 0.19091 0.49467 0.0
H1435 H 0.19457 0.17299 0.50325 0.0
H1436 H 0.20497 0.19161 0.52663 0.0
H1437 H 0.22412 0.16893 0.51396 0.0
H1438 H 0.28328 0.17499 0.54716 0.0
C1439 C 0.25814 0.2024 0.53878 0.0
C1440 C 0.03678 0.93107 0.55321 0.0
C1441 C 0.03555 0.94113 0.43595 0.0
C1442 C 0.04109 0.04661 0.56298 0.0
C1443 C 0.03878 0.05678 0.44565 0.0
C1444 C 0.9822 0.05436 0.50713 0.0
C1445 C 0.97534 0.94061 0.49132 0.0
C1446 C 0.09647 0.04915 0.49376 0.0
C1447 C 0.08995 0.93417 0.48378 0.0
C1448 C 0.0939 0.99477 0.43897 0.0
C1449 C 0.97773 0.99939 0.44202 0.0
C1450 C 0.09712 0.98847 0.55599 0.0
C1451 C 0.98037 0.99256 0.5591 0.0
Eu1452 Eu 0.03404 0.94859 0.49562 0.0
O1453 O 0.01429 0.97583 0.47701 0.0
O1454 O 0.05805 0.96934 0.518 0.0
Eu1455 Eu 0.99183 0.99648 0.50034 0.0
Eu1456 Eu 0.08266 0.99153 0.49777 0.0
O1457 O 0.01472 0.97193 0.51948 0.0
O1458 O 0.05575 0.97405 0.47666 0.0
Eu1459 Eu 0.03838 0.98991 0.54429 0.0
Eu1460 Eu 0.03601 0.99788 0.45421 0.0
O1461 O 0.01787 0.01407 0.52253 0.0
O1462 O 0.0162 0.01857 0.48017 0.0
O1463 O 0.05857 0.01554 0.47976 0.0
O1464 O 0.06022 0.01239 0.52155 0.0
Eu1465 Eu 0.03932 0.03931 0.50321 0.0
O1466 O 0.03406 0.92552 0.52996 0.0
O1467 O 0.03373 0.93166 0.45792 0.0
O1468 O 0.042 0.056 0.54091 0.0
O1469 O 0.03901 0.06234 0.46902 0.0
O1470 O 0.97391 0.03218 0.50465 0.0
O1471 O 0.96973 0.96328 0.4958 0.0
O1472 O 0.10293 0.02626 0.4921 0.0
O1473 O 0.09932 0.95578 0.48784 0.0
O1474 O 0.0709 0.99765 0.43307 0.0
O1475 O 1.00042 0.99847 0.43462 0.0
O1476 O 0.07434 0.98828 0.5633 0.0
O1477 O 1.00328 0.98964 0.56549 0.0
O1478 O 0.07505 0.05728 0.50019 0.0
O1479 O 1.00518 0.0608 0.50694 0.0
O1480 O 0.06741 0.92771 0.48797 0.0
O1481 O 0.99744 0.93158 0.49094 0.0
O1482 O 0.03658 0.96448 0.43129 0.0
O1483 O 0.03771 0.03455 0.43698 0.0
O1484 O 0.03902 0.95326 0.56176 0.0
O1485 O 0.03943 0.02325 0.56766 0.0
O1486 O 0.9727 0.99534 0.53658 0.0
O1487 O 0.97087 0.99988 0.46501 0.0
O1488 O 0.10407 0.98948 0.53301 0.0
O1489 O 0.10191 0.99203 0.4614 0.0
C1490 C 0.53425 0.93529 0.05123 0.0
C1491 C 0.54164 0.05036 0.05807 0.0
C1492 C 0.52341 0.9433 0.93712 0.0
C1493 C 0.54651 0.05634 0.94312 0.0
C1494 C 0.59729 0.99424 0.93947 0.0
C1495 C 0.59638 0.99198 0.05545 0.0
C1496 C 0.47991 1.00067 0.93886 0.0
C1497 C 0.47886 0.99512 0.05533 0.0
C1498 C 0.48081 0.05578 0.99944 0.0
C1499 C 0.59839 0.05178 0.99929 0.0
C1500 C 0.47777 0.93922 0.99486 0.0
C1501 C 0.59519 0.93594 0.99344 0.0
Eu1502 Eu 0.53763 0.99354 0.04242 0.0
O1503 O 0.55943 0.01511 0.0193 0.0
O1504 O 0.51628 0.9742 0.01684 0.0
Eu1505 Eu 0.58314 0.99415 0.99736 0.0
Eu1506 Eu 0.4927 0.99734 0.99715 0.0
O1507 O 0.55842 0.97258 0.01749 0.0
O1508 O 0.51701 0.01693 0.01976 0.0
Eu1509 Eu 0.53686 0.95031 0.99444 0.0
Eu1510 Eu 0.53918 0.04122 0.99965 0.0
O1511 O 0.5592 0.9744 0.97403 0.0
O1512 O 0.5596 0.01715 0.97765 0.0
O1513 O 0.51735 0.01913 0.97662 0.0
O1514 O 0.51731 0.97731 0.97565 0.0
Eu1515 Eu 0.53855 0.99832 0.95168 0.0
O1516 O 0.53459 0.95752 0.05976 0.0
O1517 O 0.54005 0.0274 0.06409 0.0
O1518 O 0.5293 0.96537 0.93046 0.0
O1519 O 0.54516 0.03421 0.93432 0.0
O1520 O 0.60378 0.99459 0.96244 0.0
O1521 O 0.60338 0.99299 0.03264 0.0
O1522 O 0.47297 0.99861 0.96163 0.0
O1523 O 0.47216 0.99615 0.0324 0.0
O1524 O 0.50388 0.06253 0.99988 0.0
O1525 O 0.57582 0.05989 0.99997 0.0
O1526 O 0.5004 0.93122 0.99505 0.0
O1527 O 0.57222 0.92909 0.99133 0.0
O1528 O 0.50277 1.00199 0.93156 0.0
O1529 O 0.57453 0.99468 0.93174 0.0
O1530 O 0.50171 0.9943 0.06272 0.0
O1531 O 0.57346 0.9915 0.06266 0.0
O1532 O 0.54142 0.05898 0.03587 0.0
O1533 O 0.5433 0.0626 0.96587 0.0
O1534 O 0.53587 0.92882 0.02839 0.0
O1535 O 0.52705 0.93392 0.95873 0.0
O1536 O 0.60234 0.95851 0.9964 0.0
O1537 O 0.60459 0.02873 0.99844 0.0
O1538 O 0.47156 0.96233 0.99525 0.0
O1539 O 0.47337 0.03309 0.99854 0.0
C1540 C 0.03658 0.4388 0.06167 0.0
C1541 C 0.03926 0.43244 0.94587 0.0
C1542 C 0.03843 0.55632 0.05601 0.0
C1543 C 0.03742 0.55008 0.93988 0.0
C1544 C 0.97763 0.55188 0.99818 0.0
C1545 C 0.98013 0.43508 1.00416 0.0
C1546 C 0.09464 0.5541 0.9999 0.0
C1547 C 0.09665 0.43751 0.99999 0.0
C1548 C 0.0915 0.50727 0.94286 0.0
C1549 C 0.97904 0.48304 0.94478 0.0
C1550 C 0.09417 0.486 0.05768 0.0
C1551 C 0.97951 0.49863 0.05894 0.0
Eu1552 Eu 0.03818 0.44939 1.00299 0.0
O1553 O 0.01643 0.47212 0.98115 0.0
O1554 O 0.05829 0.47565 0.02237 0.0
Eu1555 Eu 0.99196 0.49376 1.00134 0.0
Eu1556 Eu 0.08271 0.49549 1.0004 0.0
O1557 O 0.01648 0.47404 0.02339 0.0
O1558 O 0.05921 0.47237 0.97976 0.0
Eu1559 Eu 0.03727 0.49698 0.04637 0.0
Eu1560 Eu 0.03648 0.49191 0.9552 0.0
O1561 O 0.01568 0.51652 0.02133 0.0
O1562 O 0.01495 0.51457 0.97825 0.0
O1563 O 0.05655 0.51384 0.97943 0.0
O1564 O 0.05853 0.51749 0.02136 0.0
Eu1565 Eu 0.03627 0.53981 0.99874 0.0
O1566 O 0.03822 0.4309 0.03918 0.0
O1567 O 0.03819 0.42706 0.96908 0.0
O1568 O 0.03695 0.56189 0.03286 0.0
O1569 O 0.03853 0.55792 0.96244 0.0
O1570 O 0.97097 0.52888 0.99909 0.0
O1571 O 0.9725 0.45778 1.00398 0.0
O1572 O 0.10236 0.53161 1.00316 0.0
O1573 O 0.10325 0.4602 0.99581 0.0
O1574 O 0.07099 0.49769 0.93541 0.0
O1575 O 1.00121 0.48533 0.9363 0.0
O1576 O 0.07216 0.49098 0.06533 0.0
O1577 O 1.00218 0.49912 0.06632 0.0
O1578 O 0.07166 0.56025 0.99713 0.0
O1579 O 1.00036 0.55948 0.99772 0.0
O1580 O 0.07425 0.4304 1.00445 0.0
O1581 O 1.00311 0.42844 1.00375 0.0
O1582 O 0.03973 0.45482 0.93716 0.0
O1583 O 0.03497 0.52702 0.93347 0.0
O1584 O 0.03538 0.46196 0.06797 0.0
O1585 O 0.03917 0.53393 0.06463 0.0
O1586 O 0.97225 0.49644 0.03637 0.0
O1587 O 0.97208 0.48655 0.96725 0.0
O1588 O 0.10216 0.48789 0.03527 0.0
O1589 O 0.09971 0.50666 0.96527 0.0
C1590 C 0.48783 0.464 0.08997 0.0
C1591 C 0.48436 0.57943 0.09318 0.0
C1592 C 0.48792 0.4666 0.97281 0.0
C1593 C 0.48891 0.58339 0.97563 0.0
C1594 C 0.54702 0.52572 0.97406 0.0
C1595 C 0.54586 0.52296 0.09124 0.0
C1596 C 0.43055 0.52432 0.97354 0.0
C1597 C 0.42973 0.52309 0.09079 0.0
C1598 C 0.43039 0.57879 0.0212 0.0
C1599 C 0.54526 0.58162 0.04012 0.0
C1600 C 0.43284 0.46471 0.02201 0.0
C1601 C 0.54754 0.46693 0.03043 0.0
Eu1602 Eu 0.4877 0.52216 0.07746 0.0
O1603 O 0.50857 0.54408 0.05386 0.0
O1604 O 0.46662 0.50045 0.05338 0.0
Eu1605 Eu 0.53364 0.52422 0.03253 0.0
Eu1606 Eu 0.44282 0.52233 0.03225 0.0
O1607 O 0.50998 0.50206 0.05332 0.0
O1608 O 0.46601 0.54419 0.05423 0.0
Eu1609 Eu 0.48939 0.47802 0.03162 0.0
Eu1610 Eu 0.48752 0.56917 0.03395 0.0
O1611 O 0.51023 0.50289 0.01064 0.0
O1612 O 0.50967 0.54623 0.01179 0.0
O1613 O 0.46769 0.54405 0.01256 0.0
O1614 O 0.46849 0.50293 0.01127 0.0
Eu1615 Eu 0.48893 0.5247 0.98714 0.0
O1616 O 0.48739 0.48674 0.09723 0.0
O1617 O 0.4868 0.55644 0.09886 0.0
O1618 O 0.48724 0.48958 0.96625 0.0
O1619 O 0.48846 0.56069 0.96807 0.0
O1620 O 0.5542 0.52555 0.99694 0.0
O1621 O 0.55332 0.52321 0.06846 0.0
O1622 O 0.42294 0.52304 0.99625 0.0
O1623 O 0.42222 0.52237 0.06799 0.0
O1624 O 0.45248 0.58723 0.02467 0.0
O1625 O 0.52253 0.589 0.03987 0.0
O1626 O 0.45522 0.45767 0.026 0.0
O1627 O 0.52501 0.45909 0.03072 0.0
O1628 O 0.45353 0.52529 0.96693 0.0
O1629 O 0.52422 0.52536 0.96697 0.0
O1630 O 0.45259 0.52288 0.09758 0.0
O1631 O 0.52293 0.52268 0.09807 0.0
O1632 O 0.48337 0.58791 0.07071 0.0
O1633 O 0.48947 0.5902 0.99867 0.0
O1634 O 0.48858 0.45703 0.067 0.0
O1635 O 0.48962 0.45889 0.9954 0.0
O1636 O 0.55435 0.48974 0.03114 0.0
O1637 O 0.55271 0.55933 0.03642 0.0
O1638 O 0.42455 0.48693 0.02458 0.0
O1639 O 0.42294 0.55679 0.02644 0.0
C1640 C 0.99114 0.46624 0.58887 0.0
C1641 C 0.98464 0.46726 0.47354 0.0
C1642 C 0.97707 0.58107 0.58936 0.0
C1643 C 0.99044 0.58236 0.47505 0.0
C1644 C 0.92982 0.58184 0.5321 0.0
C1645 C 0.93034 0.46577 0.53176 0.0
C1646 C 0.0474 0.58278 0.53422 0.0
C1647 C 0.04759 0.46645 0.53195 0.0
C1648 C 0.04842 0.52412 0.47514 0.0
C1649 C 0.93096 0.52487 0.47319 0.0
C1650 C 0.04668 0.52601 0.59151 0.0
C1651 C 0.92916 0.52344 0.58916 0.0
Eu1652 Eu 0.98883 0.47903 0.53143 0.0
O1653 O 0.96799 0.5032 0.51024 0.0
O1654 O 1.0094 0.5032 0.55338 0.0
Eu1655 Eu 0.9436 0.52388 0.53138 0.0
Eu1656 Eu 0.03405 0.52457 0.53311 0.0
O1657 O 0.9673 0.50266 0.55311 0.0
O1658 O 1.01057 0.50332 0.5109 0.0
Eu1659 Eu 0.98812 0.52401 0.57785 0.0
Eu1660 Eu 0.98949 0.52465 0.48678 0.0
O1661 O 0.96792 0.54457 0.55261 0.0
O1662 O 0.9678 0.54572 0.51072 0.0
O1663 O 1.01017 0.54573 0.5116 0.0
O1664 O 1.00988 0.54604 0.55458 0.0
Eu1665 Eu 0.98869 0.5698 0.5326 0.0
O1666 O 0.98975 0.45927 0.56617 0.0
O1667 O 0.98558 0.45963 0.49608 0.0
O1668 O 0.98153 0.58879 0.56731 0.0
O1669 O 0.98959 0.58982 0.49766 0.0
O1670 O 0.92326 0.5589 0.53212 0.0
O1671 O 0.92337 0.48857 0.53102 0.0
O1672 O 0.05417 0.55991 0.53305 0.0
O1673 O 0.05444 0.48928 0.53391 0.0
O1674 O 0.02574 0.52433 0.46729 0.0
O1675 O 0.95389 0.52583 0.46613 0.0
O1676 O 0.02372 0.52644 0.59864 0.0
O1677 O 0.95177 0.52179 0.5971 0.0
O1678 O 0.02454 0.59017 0.53492 0.0
O1679 O 0.95256 0.58958 0.5316 0.0
O1680 O 0.02479 0.45911 0.53009 0.0
O1681 O 0.9532 0.45856 0.53246 0.0
O1682 O 0.98668 0.48991 0.46651 0.0
O1683 O 0.99058 0.55976 0.46764 0.0
O1684 O 0.9912 0.48865 0.59695 0.0
O1685 O 0.9799 0.55873 0.59717 0.0
O1686 O 0.92284 0.52476 0.5662 0.0
O1687 O 0.9238 0.52383 0.49593 0.0
O1688 O 0.05377 0.525 0.5687 0.0
O1689 O 0.05491 0.52408 0.49814 0.0
C1690 C 0.48859 0.96511 0.59242 0.0
C1691 C 0.49004 0.9628 0.4764 0.0
C1692 C 0.48498 0.08242 0.59077 0.0
C1693 C 0.49026 0.0806 0.47472 0.0
C1694 C 0.4312 0.08148 0.53408 0.0
C1695 C 0.43176 0.96437 0.53348 0.0
C1696 C 0.54741 0.08172 0.53421 0.0
C1697 C 0.54841 0.96479 0.53495 0.0
C1698 C 0.54913 0.02376 0.47705 0.0
C1699 C 0.43416 0.02697 0.47339 0.0
C1700 C 0.54632 0.0273 0.59202 0.0
C1701 C 0.43163 1.00883 0.58755 0.0
Eu1702 Eu 0.49011 0.97776 0.53399 0.0
O1703 O 0.46885 1.00103 0.5115 0.0
O1704 O 0.51069 1.00208 0.55592 0.0
Eu1705 Eu 0.44412 0.02293 0.53173 0.0
Eu1706 Eu 0.53483 0.02307 0.53437 0.0
O1707 O 0.46918 1.00336 0.55307 0.0
O1708 O 0.5119 1.00112 0.5126 0.0
Eu1709 Eu 0.48848 0.02369 0.57918 0.0
Eu1710 Eu 0.49106 0.02191 0.48788 0.0
O1711 O 0.46704 0.04458 0.55444 0.0
O1712 O 0.46923 0.04344 0.51125 0.0
O1713 O 0.51102 0.04376 0.51255 0.0
O1714 O 0.51004 0.04432 0.55484 0.0
Eu1715 Eu 0.48921 0.06806 0.53303 0.0
O1716 O 0.48853 0.9582 0.56954 0.0
O1717 O 0.48965 0.9566 0.49941 0.0
O1718 O 0.4881 0.08862 0.56796 0.0
O1719 O 0.48885 0.08776 0.49749 0.0
O1720 O 0.42378 0.05864 0.53436 0.0
O1721 O 0.42428 0.98689 0.53007 0.0
O1722 O 0.55475 0.05893 0.53481 0.0
O1723 O 0.55544 0.98768 0.53466 0.0
O1724 O 0.5267 0.02268 0.46907 0.0
O1725 O 0.45689 0.02381 0.46712 0.0
O1726 O 0.52359 0.028 0.59942 0.0
O1727 O 0.45337 0.01319 0.59644 0.0
O1728 O 0.52451 0.08861 0.53335 0.0
O1729 O 0.45405 0.08835 0.53308 0.0
O1730 O 0.52558 0.95759 0.53496 0.0
O1731 O 0.45464 0.95783 0.53581 0.0
O1732 O 0.49081 0.98543 0.46843 0.0
O1733 O 0.49176 0.05771 0.46758 0.0
O1734 O 0.48953 0.98798 0.59979 0.0
O1735 O 0.48351 0.05978 0.59862 0.0
O1736 O 0.42413 0.01451 0.56567 0.0
O1737 O 0.4257 0.0273 0.49572 0.0
O1738 O 0.55365 0.02451 0.56958 0.0
O1739 O 0.55576 0.02399 0.49992 0.0
H1740 H 0.12886 0.1841 0.43796 0.0
H1741 H 0.19422 0.1458 0.42331 0.0
H1742 H 0.10865 0.14665 0.44593 0.0
H1743 H 0.17431 0.10834 0.43285 0.0
H1744 H 0.12632 0.04411 0.45562 0.0
H1745 H 0.14327 0.07667 0.43187 0.0
H1746 H 0.11815 0.1275 0.48432 0.0
H1747 H 0.10103 0.09525 0.50764 0.0
C1748 C 0.13867 0.16766 0.43526 0.0
C1749 C 0.16343 0.16794 0.43118 0.0
C1750 C 0.12718 0.14618 0.4403 0.0
C1751 C 0.14035 0.12485 0.44144 0.0
C1752 C 0.16386 0.12461 0.43274 0.0
C1753 C 0.17526 0.14609 0.42723 0.0
C1754 C 0.12509 0.06222 0.46236 0.0
C1755 C 0.11245 0.06724 0.4835 0.0
C1756 C 0.13442 0.08083 0.44857 0.0
C1757 C 0.1312 0.10465 0.45577 0.0
C1758 C 0.12003 0.10939 0.47777 0.0
C1759 C 0.11068 0.09091 0.49142 0.0
H1760 H 0.8828 0.17004 0.48592 0.0
H1761 H 0.86182 0.13981 0.55368 0.0
H1762 H 0.91752 0.14362 0.48482 0.0
H1763 H 0.89638 0.11338 0.55249 0.0
H1764 H 0.93622 0.0485 0.52168 0.0
H1765 H 0.90567 0.0788 0.52631 0.0
H1766 H 0.95629 0.13327 0.5057 0.0
H1767 H 0.98718 0.10269 0.50073 0.0
C1768 C 0.88582 0.15802 0.50074 0.0
C1769 C 0.86944 0.15671 0.51972 0.0
C1770 C 0.90569 0.14297 0.50013 0.0
C1771 C 0.90947 0.12635 0.51847 0.0
C1772 C 0.89365 0.12577 0.53792 0.0
C1773 C 0.87384 0.14081 0.53855 0.0
C1774 C 0.94095 0.06691 0.51811 0.0
C1775 C 0.96411 0.07318 0.51067 0.0
C1776 C 0.92347 0.0843 0.52101 0.0
C1777 C 0.92866 0.10837 0.51646 0.0
C1778 C 0.95184 0.11478 0.50922 0.0
C1779 C 0.9695 0.09733 0.50649 0.0
H1780 H 0.87058 0.83002 0.46755 0.0
H1781 H 0.84484 0.88967 0.42593 0.0
H1782 H 0.90724 0.8514 0.47588 0.0
H1783 H 0.88174 0.91135 0.43486 0.0
H1784 H 0.92791 0.95189 0.48985 0.0
H1785 H 0.89541 0.92809 0.47402 0.0
H1786 H 0.94434 0.87025 0.45961 0.0
H1787 H 0.97728 0.89411 0.47557 0.0
C1788 C 0.87301 0.84737 0.45944 0.0
C1789 C 0.85462 0.85815 0.44609 0.0
C1790 C 0.89407 0.85968 0.46437 0.0
C1791 C 0.89717 0.88311 0.45627 0.0
C1792 C 0.87956 0.8934 0.44165 0.0
C1793 C 0.85847 0.881 0.43655 0.0
C1794 C 0.93191 0.93407 0.48344 0.0
C1795 C 0.95532 0.92493 0.48407 0.0
C1796 C 0.91324 0.92056 0.47407 0.0
C1797 C 0.91745 0.89753 0.46519 0.0
C1798 C 0.94067 0.88805 0.46627 0.0
C1799 C 0.95948 0.90166 0.47555 0.0
H1800 H 0.14963 0.80887 0.4206 0.0
H1801 H 0.19541 0.86447 0.39266 0.0
H1802 H 0.12292 0.83846 0.43637 0.0
H1803 H 0.16816 0.89455 0.40876 0.0
H1804 H 0.13854 0.93428 0.47581 0.0
H1805 H 0.16095 0.90734 0.44974 0.0
H1806 H 0.09561 0.86994 0.43228 0.0
H1807 H 0.07362 0.89575 0.4589 0.0
C1808 C 0.15352 0.8274 0.41674 0.0
C1809 C 0.17509 0.83419 0.40572 0.0
C1810 C 0.13814 0.84453 0.42608 0.0
C1811 C 0.14375 0.86891 0.42447 0.0
C1812 C 0.16377 0.87584 0.41096 0.0
C1813 C 0.17924 0.85862 0.40153 0.0
C1814 C 0.12908 0.92005 0.46669 0.0
C1815 C 0.10441 0.91683 0.47004 0.0
C1816 C 0.14182 0.9049 0.45138 0.0
C1817 C 0.13005 0.88647 0.43887 0.0
C1818 C 0.10533 0.88363 0.44193 0.0
C1819 C 0.09274 0.89842 0.45743 0.0
H1820 H 0.57604 0.16719 0.15591 0.0
H1821 H 0.50774 0.13808 0.17751 0.0
H1822 H 0.5796 0.13578 0.12567 0.0
H1823 H 0.51171 0.10663 0.14797 0.0
H1824 H 0.55369 0.09762 0.05515 0.0
H1825 H 0.55594 0.12646 0.08773 0.0
H1826 H 0.53754 0.07117 0.1381 0.0
H1827 H 0.535 0.0423 0.10569 0.0
C1828 C 0.56193 0.15403 0.15435 0.0
C1829 C 0.54164 0.1551 0.16913 0.0
C1830 C 0.56401 0.13609 0.13713 0.0
C1831 C 0.54595 0.11884 0.13462 0.0
C1832 C 0.52606 0.1195 0.14984 0.0
C1833 C 0.52387 0.13749 0.16683 0.0
C1834 C 0.55017 0.09157 0.07316 0.0
C1835 C 0.5439 0.06771 0.07777 0.0
C1836 C 0.55173 0.10803 0.09181 0.0
C1837 C 0.5469 0.10096 0.11533 0.0
C1838 C 0.54119 0.07704 0.12004 0.0
C1839 C 0.53977 0.06055 0.10146 0.0
H1840 H 0.87997 0.47856 0.1756 0.0
H1841 H 0.85811 0.54479 0.14277 0.0
H1842 H 0.91391 0.47621 0.14826 0.0
H1843 H 0.89183 0.54224 0.11531 0.0
H1844 H 0.93277 0.51019 0.05181 0.0
H1845 H 0.90157 0.51449 0.08166 0.0
H1846 H 0.95221 0.49767 0.13731 0.0
H1847 H 0.98366 0.49306 0.10736 0.0
C1848 C 0.88261 0.49276 0.16277 0.0
C1849 C 0.86628 0.51174 0.16114 0.0
C1850 C 0.902 0.49141 0.14716 0.0
C1851 C 0.90531 0.50895 0.12961 0.0
C1852 C 0.88941 0.52828 0.12845 0.0
C1853 C 0.87011 0.52969 0.1441 0.0
C1854 C 0.93732 0.5073 0.07038 0.0
C1855 C 0.96069 0.50118 0.07721 0.0
C1856 C 0.91947 0.51 0.08748 0.0
C1857 C 0.92455 0.50652 0.11175 0.0
C1858 C 0.94785 0.50034 0.11866 0.0
C1859 C 0.96583 0.49782 0.10154 0.0
H1860 H 0.46957 0.84547 0.15636 0.0
H1861 H 0.54527 0.83116 0.16178 0.0
H1862 H 0.4765 0.86772 0.11959 0.0
H1863 H 0.55218 0.85366 0.12499 0.0
H1864 H 0.54816 0.88855 0.0487 0.0
H1865 H 0.53945 0.8571 0.07798 0.0
H1866 H 0.5013 0.90823 0.12138 0.0
H1867 H 0.51005 0.93944 0.09269 0.0
C1868 C 0.48757 0.84656 0.14931 0.0
C1869 C 0.50697 0.83706 0.16195 0.0
C1870 C 0.4915 0.85924 0.12838 0.0
C1871 C 0.51484 0.86238 0.11981 0.0
C1872 C 0.53404 0.85127 0.13135 0.0
C1873 C 0.53013 0.83873 0.15243 0.0
C1874 C 0.53792 0.89294 0.06453 0.0
C1875 C 0.52994 0.91636 0.06864 0.0
C1876 C 0.53295 0.87505 0.08111 0.0
C1877 C 0.51948 0.8804 0.10153 0.0
C1878 C 0.5114 0.90373 0.10548 0.0
C1879 C 0.51669 0.9216 0.08925 0.0
H1880 H 0.20225 0.43027 0.15341 0.0
H1881 H 0.13522 0.43716 0.1909 0.0
H1882 H 0.18126 0.43307 0.11528 0.0
H1883 H 0.11433 0.44021 0.15328 0.0
H1884 H 0.07924 0.45041 0.08554 0.0
H1885 H 0.10132 0.42822 0.11519 0.0
H1886 H 0.1646 0.46937 0.09848 0.0
H1887 H 0.14233 0.4907 0.06737 0.0
C1888 C 0.1829 0.43121 0.15342 0.0
C1889 C 0.17033 0.43406 0.17499 0.0
C1890 C 0.17095 0.43318 0.13165 0.0
C1891 C 0.14629 0.43774 0.13126 0.0
C1892 C 0.13337 0.43681 0.15284 0.0
C1893 C 0.14532 0.43487 0.17455 0.0
C1894 C 0.09789 0.45462 0.08809 0.0
C1895 C 0.10892 0.47278 0.07481 0.0
C1896 C 0.11059 0.4418 0.10501 0.0
C1897 C 0.1346 0.44725 0.10954 0.0
C1898 C 0.14612 0.46457 0.09529 0.0
C1899 C 0.13339 0.47707 0.07777 0.0
H1900 H 0.39063 0.87702 0.89831 0.0
H1901 H 0.42577 0.88864 0.83042 0.0
H1902 H 0.42256 0.89922 0.91814 0.0
H1903 H 0.45696 0.91051 0.85005 0.0
H1904 H 0.49926 0.90166 0.94612 0.0
H1905 H 0.46389 0.8873 0.9255 0.0
H1906 H 0.47195 0.94294 0.87281 0.0
H1907 H 0.50783 0.95683 0.89281 0.0
C1908 C 0.40467 0.88478 0.8875 0.0
C1909 C 0.40577 0.88029 0.86279 0.0
C1910 C 0.42308 0.89733 0.89889 0.0
C1911 C 0.44273 0.90585 0.88573 0.0
C1912 C 0.4422 0.90407 0.86078 0.0
C1913 C 0.42394 0.89155 0.84944 0.0
C1914 C 0.49396 0.91048 0.92978 0.0
C1915 C 0.50652 0.93049 0.92123 0.0
C1916 C 0.47329 0.90257 0.91826 0.0
C1917 C 0.46471 0.91439 0.89788 0.0
C1918 C 0.478 0.93349 0.88853 0.0
C1919 C 0.49874 0.94133 0.89996 0.0
H1920 H 0.15711 0.63869 0.8953 0.0
H1921 H 0.12832 0.60684 0.83111 0.0
H1922 H 0.13679 0.60839 0.91913 0.0
H1923 H 0.10955 0.5763 0.85421 0.0
H1924 H 0.07405 0.52279 0.90015 0.0
H1925 H 0.08446 0.55903 0.87986 0.0
H1926 H 0.1447 0.5687 0.9274 0.0
H1927 H 0.13275 0.53328 0.94936 0.0
C1928 C 0.14584 0.62574 0.88635 0.0
C1929 C 0.14474 0.62499 0.86128 0.0
C1930 C 0.1346 0.60803 0.89992 0.0
C1931 C 0.12234 0.58913 0.88862 0.0
C1932 C 0.11879 0.59032 0.8638 0.0
C1933 C 0.12957 0.60818 0.85037 0.0
C1934 C 0.08978 0.53232 0.9062 0.0
C1935 C 0.10254 0.52491 0.92653 0.0
C1936 C 0.09576 0.55336 0.89446 0.0
C1937 C 0.11533 0.56721 0.90199 0.0
C1938 C 0.12901 0.55905 0.92145 0.0
C1939 C 0.12257 0.53828 0.93371 0.0
H1940 H 0.59784 0.19024 0.88676 0.0
H1941 H 0.57616 0.14922 0.82505 0.0
H1942 H 0.5941 0.15462 0.91155 0.0
H1943 H 0.57194 0.11399 0.84968 0.0
H1944 H 0.57001 0.05156 0.90057 0.0
H1945 H 0.58646 0.08334 0.87582 0.0
H1946 H 0.55741 0.13595 0.92437 0.0
H1947 H 0.54154 0.10434 0.94932 0.0
C1948 C 0.59303 0.17346 0.8784 0.0
C1949 C 0.587 0.17255 0.85409 0.0
C1950 C 0.59064 0.15314 0.89257 0.0
C1951 C 0.58203 0.1317 0.88267 0.0
C1952 C 0.57861 0.1302 0.85788 0.0
C1953 C 0.58116 0.15044 0.8437 0.0
C1954 C 0.56695 0.06993 0.90582 0.0
C1955 C 0.5543 0.07545 0.92681 0.0
C1956 C 0.57654 0.08811 0.89174 0.0
C1957 C 0.57356 0.11215 0.89831 0.0
C1958 C 0.56065 0.11761 0.91915 0.0
C1959 C 0.55122 0.09948 0.93328 0.0
H1960 H 0.84013 0.45595 0.8983 0.0
H1961 H 0.87802 0.4498 0.83139 0.0
H1962 H 0.87773 0.45482 0.91973 0.0
H1963 H 0.91598 0.44838 0.85292 0.0
H1964 H 0.9708 0.49407 0.89785 0.0
H1965 H 0.93707 0.48038 0.87352 0.0
H1966 H 0.91362 0.43512 0.93147 0.0
H1967 H 0.94661 0.44955 0.95577 0.0
C1968 C 0.85647 0.45332 0.88825 0.0
C1969 C 0.85626 0.45332 0.86323 0.0
C1970 C 0.8781 0.45272 0.90051 0.0
C1971 C 0.89988 0.45196 0.88795 0.0
C1972 C 0.89949 0.44952 0.86301 0.0
C1973 C 0.87782 0.45018 0.85073 0.0
C1974 C 0.95849 0.48105 0.90514 0.0
C1975 C 0.96066 0.47341 0.92881 0.0
C1976 C 0.93935 0.47299 0.89122 0.0
C1977 C 0.9225 0.45687 0.90073 0.0
C1978 C 0.92594 0.44794 0.92384 0.0
C1979 C 0.94472 0.45628 0.93777 0.0
H1980 H 0.64162 0.69764 0.07682 0.0
H1981 H 0.67651 0.63285 0.09981 0.0
H1982 H 0.60548 0.67519 0.06794 0.0
H1983 H 0.64019 0.61034 0.09083 0.0
H1984 H 0.59313 0.57754 0.03294 0.0
H1985 H 0.6246 0.60189 0.05004 0.0
H1986 H 0.57183 0.64863 0.08144 0.0
H1987 H 0.53991 0.62405 0.06423 0.0
C1988 C 0.64129 0.67876 0.0809 0.0
C1989 C 0.66205 0.66693 0.08871 0.0
C1990 C 0.62057 0.66589 0.07567 0.0
C1991 C 0.62027 0.64099 0.07815 0.0
C1992 C 0.6402 0.6295 0.08821 0.0
C1993 C 0.66092 0.64236 0.09344 0.0
C1994 C 0.58811 0.59307 0.04336 0.0
C1995 C 0.56398 0.59878 0.0473 0.0
C1996 C 0.60619 0.60686 0.0534 0.0
C1997 C 0.60064 0.62676 0.0676 0.0
C1998 C 0.57656 0.63323 0.07071 0.0
C1999 C 0.55834 0.6193 0.06068 0.0
H2000 H 0.32752 0.63263 0.91872 0.0
H2001 H 0.39646 0.65829 0.89499 0.0
H2002 H 0.3464 0.61047 0.95016 0.0
H2003 H 0.41567 0.63506 0.92652 0.0
H2004 H 0.43725 0.62412 1.00388 0.0
H2005 H 0.41826 0.64116 0.96876 0.0
H2006 H 0.37067 0.58041 0.96489 0.0
H2007 H 0.38868 0.56408 1.00042 0.0
C2008 C 0.34687 0.63266 0.91939 0.0
C2009 C 0.36043 0.64766 0.90445 0.0
C2010 C 0.35775 0.61999 0.93775 0.0
C2011 C 0.38251 0.62166 0.94144 0.0
C2012 C 0.39642 0.63426 0.92472 0.0
C2013 C 0.38548 0.64721 0.90641 0.0
C2014 C 0.42233 0.61471 0.99591 0.0
C2015 C 0.41473 0.59259 1.00498 0.0
C2016 C 0.41175 0.62423 0.97544 0.0
C2017 C 0.39335 0.61184 0.96355 0.0
C2018 C 0.38478 0.59049 0.97349 0.0
C2019 C 0.39511 0.58116 0.99409 0.0
H2020 H 0.33632 0.38057 0.93348 0.0
H2021 H 0.40779 0.35417 0.92059 0.0
H2022 H 0.35225 0.41155 0.95918 0.0
H2023 H 0.42379 0.38547 0.94656 0.0
H2024 H 0.43805 0.41633 0.02016 0.0
H2025 H 0.42078 0.38961 0.99055 0.0
H2026 H 0.37729 0.44727 0.96367 0.0
H2027 H 0.39441 0.47408 0.99342 0.0
C2028 C 0.35555 0.38192 0.93532 0.0
C2029 C 0.37079 0.3647 0.92511 0.0
C2030 C 0.36464 0.39963 0.95029 0.0
C2031 C 0.38915 0.40051 0.95537 0.0
C2032 C 0.40468 0.38471 0.94348 0.0
C2033 C 0.39557 0.36695 0.92846 0.0
C2034 C 0.42441 0.42322 1.00831 0.0
C2035 C 0.41765 0.44736 1.00917 0.0
C2036 C 0.41483 0.408 0.99108 0.0
C2037 C 0.39822 0.41655 0.97437 0.0
C2038 C 0.39019 0.44024 0.97624 0.0
C2039 C 0.39979 0.45551 0.99351 0.0
H2040 H 0.63458 0.33923 0.03551 0.0
H2041 H 0.67426 0.38752 0.99034 0.0
H2042 H 0.6045 0.36989 0.04222 0.0
H2043 H 0.64396 0.41828 0.99689 0.0
H2044 H 0.59595 0.47395 0.03284 0.0
H2045 H 0.62727 0.44412 0.02837 0.0
H2046 H 0.57368 0.38939 0.01847 0.0
H2047 H 0.54235 0.41893 0.02334 0.0
C2048 C 0.63675 0.35639 0.02691 0.0
C2049 C 0.65657 0.36099 0.01223 0.0
C2050 C 0.61956 0.37392 0.03073 0.0
C2051 C 0.62182 0.39638 0.01992 0.0
C2052 C 0.64191 0.40119 1.00563 0.0
C2053 C 0.65919 0.38362 1.00185 0.0
C2054 C 0.5908 0.45553 0.0298 0.0
C2055 C 0.56659 0.44883 0.02851 0.0
C2056 C 0.60877 0.43851 0.02712 0.0
C2057 C 0.60289 0.41447 0.02309 0.0
C2058 C 0.57873 0.40775 0.02192 0.0
C2059 C 0.56077 0.42472 0.02464 0.0
H2060 H 0.8946 0.64816 0.70308 0.0
H2061 H 0.91994 0.70489 0.65731 0.0
H2062 H 0.90811 0.61881 0.67369 0.0
H2063 H 0.93328 0.67603 0.62855 0.0
H2064 H 0.95184 0.62016 0.57597 0.0
H2065 H 0.92705 0.64558 0.60054 0.0
H2066 H 0.94805 0.60579 0.66316 0.0
H2067 H 0.97216 0.57933 0.63816 0.0
C2068 C 0.90234 0.65442 0.68651 0.0
C2069 C 0.90655 0.67892 0.68286 0.0
C2070 C 0.9103 0.63761 0.6698 0.0
C2071 C 0.9224 0.64505 0.6491 0.0
C2072 C 0.92401 0.66957 0.64424 0.0
C2073 C 0.91609 0.68628 0.66083 0.0
C2074 C 0.95149 0.61691 0.59502 0.0
C2075 C 0.96448 0.598 0.6052 0.0
C2076 C 0.93706 0.63145 0.6091 0.0
C2077 C 0.93554 0.6278 0.63383 0.0
C2078 C 0.94847 0.60885 0.64408 0.0
C2079 C 0.96264 0.59396 0.62986 0.0
H2080 H 0.39923 0.88289 0.66966 0.0
H2081 H 0.33133 0.90392 0.63945 0.0
H2082 H 0.41928 0.91272 0.64497 0.0
H2083 H 0.3509 0.93362 0.61573 0.0
H2084 H 0.39222 0.98505 0.57114 0.0
H2085 H 0.37588 0.9484 0.58674 0.0
H2086 H 0.42105 0.95492 0.64908 0.0
H2087 H 0.43872 0.99094 0.63261 0.0
C2088 C 0.38868 0.89325 0.65722 0.0
C2089 C 0.3636 0.89134 0.65705 0.0
C2090 C 0.40009 0.91062 0.64335 0.0
C2091 C 0.38659 0.92629 0.6291 0.0
C2092 C 0.36197 0.92208 0.62654 0.0
C2093 C 0.35066 0.90468 0.64016 0.0
C2094 C 0.39848 0.97903 0.5884 0.0
C2095 C 0.41689 0.99113 0.60057 0.0
C2096 C 0.38912 0.95777 0.5973 0.0
C2097 C 0.39735 0.94838 0.61903 0.0
C2098 C 0.41478 0.96118 0.63192 0.0
C2099 C 0.42451 0.98223 0.62275 0.0
H2100 H 1.00784 0.33381 0.6664 0.0
H2101 H 0.07844 0.36031 0.64921 0.0
H2102 H 0.99018 0.36985 0.65041 0.0
H2103 H 0.06047 0.39685 0.63332 0.0
H2104 H 0.02098 0.46743 0.62706 0.0
H2105 H 0.036 0.43262 0.64876 0.0
H2106 H 0.9873 0.38728 0.60945 0.0
H2107 H 0.97231 0.42188 0.58798 0.0
C2108 C 0.01959 0.34712 0.65872 0.0
C2109 C 0.04454 0.34404 0.65856 0.0
C2110 C 1.00944 0.36787 0.64988 0.0
C2111 C 0.024 0.38604 0.64083 0.0
C2112 C 0.04894 0.38312 0.64061 0.0
C2113 C 0.05917 0.36222 0.64943 0.0
C2114 C 0.01299 0.4501 0.62372 0.0
C2115 C 0.99559 0.44712 0.60593 0.0
C2116 C 0.0218 0.43025 0.63582 0.0
C2117 C 0.013 0.40739 0.63043 0.0
C2118 C 0.99433 0.40476 0.61391 0.0
C2119 C 0.98575 0.42449 0.60168 0.0
H2120 H 0.64886 0.10803 0.67401 0.0
H2121 H 0.68215 0.03916 0.66481 0.0
H2122 H 0.61244 0.0928 0.65466 0.0
H2123 H 0.64593 0.02363 0.64702 0.0
H2124 H 0.59224 0.013 0.58823 0.0
H2125 H 0.62601 0.02709 0.61087 0.0
H2126 H 0.5786 0.06575 0.65814 0.0
H2127 H 0.54433 0.05247 0.6342 0.0
C2128 C 0.64836 0.08974 0.66769 0.0
C2129 C 0.66845 0.07498 0.67004 0.0
C2130 C 0.62748 0.0809 0.65701 0.0
C2131 C 0.62635 0.05703 0.64909 0.0
C2132 C 0.64635 0.04225 0.65223 0.0
C2133 C 0.66718 0.05118 0.66233 0.0
C2134 C 0.58887 0.02428 0.60361 0.0
C2135 C 0.56563 0.03177 0.60934 0.0
C2136 C 0.60832 0.03227 0.61676 0.0
C2137 C 0.60508 0.04764 0.63633 0.0
C2138 C 0.58169 0.0542 0.64292 0.0
C2139 C 0.56206 0.04629 0.6295 0.0
H2140 H 0.92998 0.34585 0.39294 0.0
H2141 H 0.97939 0.38187 0.34578 0.0
H2142 H 0.93506 0.37783 0.42233 0.0
H2143 H 0.98424 0.41355 0.37482 0.0
H2144 H 0.9764 0.47523 0.42608 0.0
H2145 H 0.96493 0.44626 0.39585 0.0
H2146 H 0.96884 0.38986 0.44815 0.0
H2147 H 0.97988 0.41883 0.47867 0.0
C2148 C 0.94158 0.36074 0.38869 0.0
C2149 C 0.95427 0.36128 0.36704 0.0
C2150 C 0.94456 0.37896 0.40551 0.0
C2151 C 0.96023 0.39804 0.40093 0.0
C2152 C 0.97183 0.39924 0.37876 0.0
C2153 C 0.96892 0.38107 0.36203 0.0
C2154 C 0.97496 0.45665 0.43121 0.0
C2155 C 0.97927 0.44937 0.45484 0.0
C2156 C 0.96831 0.44007 0.41384 0.0
C2157 C 0.96586 0.41584 0.41967 0.0
C2158 C 0.97017 0.4085 0.44324 0.0
C2159 C 0.9768 0.42509 0.46066 0.0
H2160 H 0.63857 0.05665 0.35466 0.0
H2161 H 0.67259 0.99662 0.38903 0.0
H2162 H 0.60882 0.05805 0.38655 0.0
H2163 H 0.64295 0.99807 0.42085 0.0
H2164 H 0.59746 0.02103 0.48423 0.0
H2165 H 0.62889 0.02341 0.45425 0.0
H2166 H 0.57561 0.03165 0.39907 0.0
H2167 H 0.54415 0.02974 0.4289 0.0
C2168 C 0.63969 0.04381 0.36905 0.0
C2169 C 0.6578 0.02649 0.36937 0.0
C2170 C 0.62271 0.04462 0.38726 0.0
C2171 C 0.62358 0.02811 0.40607 0.0
C2172 C 0.64206 0.0112 0.40671 0.0
C2173 C 0.65901 1.01039 0.38852 0.0
C2174 C 0.5924 0.02345 0.46573 0.0
C2175 C 0.56826 0.0251 0.45897 0.0
C2176 C 0.61042 0.02472 0.44858 0.0
C2177 C 0.60464 0.02776 0.4244 0.0
C2178 C 0.58056 0.02963 0.41765 0.0
C2179 C 0.56254 0.02829 0.43475 0.0
H2180 H 0.04113 0.66981 0.36132 0.0
H2181 H 0.96633 0.68873 0.36557 0.0
H2182 H 0.03691 0.64514 0.39673 0.0
H2183 H 0.96207 0.66346 0.40106 0.0
H2184 H 0.97651 0.62916 0.47741 0.0
H2185 H 0.98007 0.65913 0.4457 0.0
H2186 H 0.01161 0.60618 0.39928 0.0
H2187 H 1.0082 0.57645 0.43049 0.0
C2188 C 0.02389 0.669 0.37009 0.0
C2189 C 1.004 0.681 0.36073 0.0
C2190 C 0.02148 0.65482 0.39022 0.0
C2191 C 0.99917 0.65245 0.40132 0.0
C2192 C 0.97945 0.66523 0.3927 0.0
C2193 C 0.98183 0.67938 0.37238 0.0
C2194 C 0.98423 0.62402 0.46042 0.0
C2195 C 0.9921 0.60054 0.45636 0.0
C2196 C 0.98612 0.64106 0.44237 0.0
C2197 C 0.99625 0.6348 0.42034 0.0
C2198 C 1.00397 0.61136 0.4163 0.0
C2199 C 1.00185 0.59436 0.43411 0.0
H2200 H 0.36586 0.04752 0.33641 0.0
H2201 H 0.35609 0.11452 0.37339 0.0
H2202 H 0.38331 0.03024 0.37178 0.0
H2203 H 0.37481 0.09734 0.40914 0.0
H2204 H 0.39201 0.05209 0.47513 0.0
H2205 H 0.36978 0.06792 0.44096 0.0
H2206 H 0.41917 0.03281 0.39301 0.0
H2207 H 0.4403 0.01625 0.42662 0.0
C2208 C 0.36814 0.05881 0.35199 0.0
C2209 C 0.3603 0.08261 0.35195 0.0
C2210 C 0.37803 0.04883 0.37236 0.0
C2211 C 0.38074 0.06245 0.39324 0.0
C2212 C 0.37278 0.08631 0.39337 0.0
C2213 C 0.36242 0.09627 0.37289 0.0
C2214 C 0.39759 0.04723 0.45725 0.0
C2215 C 0.41788 0.03291 0.45356 0.0
C2216 C 0.38514 0.05663 0.43771 0.0
C2217 C 0.39279 0.05179 0.41426 0.0
C2218 C 0.41253 0.0367 0.41076 0.0
C2219 C 0.42476 0.02725 0.43012 0.0
H2220 H 0.0234 0.14399 0.31566 0.0
H2221 H 0.05415 0.19237 0.36706 0.0
H2222 H 0.02558 0.1116 0.34488 0.0
H2223 H 0.05724 0.16011 0.39601 0.0
H2224 H 0.03403 0.10562 0.45238 0.0
H2225 H 0.03466 0.13707 0.42229 0.0
H2226 H 0.04757 0.08434 0.3674 0.0
H2227 H 0.04615 0.05303 0.39724 0.0
C2228 C 0.03132 0.14753 0.33296 0.0
C2229 C 0.03871 0.17078 0.3389 0.0
C2230 C 0.03252 0.12894 0.34989 0.0
C2231 C 0.04131 0.133 0.37326 0.0
C2232 C 0.04975 0.15612 0.37863 0.0
C2233 C 0.04833 0.17465 0.36183 0.0
C2234 C 0.03702 0.1007 0.43391 0.0
C2235 C 0.03985 0.07656 0.42748 0.0
C2236 C 0.03756 0.11886 0.4165 0.0
C2237 C 0.04115 0.11356 0.39205 0.0
C2238 C 0.04429 0.0894 0.38577 0.0
C2239 C 0.0436 0.07129 0.4031 0.0
H2240 H 0.87649 0.96503 0.32607 0.0
H2241 H 0.86182 0.03815 0.34487 0.0
H2242 H 0.9106 0.96495 0.35383 0.0
H2243 H 0.89533 0.03801 0.37283 0.0
H2244 H 0.93109 0.01549 0.44451 0.0
H2245 H 0.90115 0.01648 0.41257 0.0
H2246 H 0.95153 0.98411 0.36407 0.0
H2247 H 0.98157 0.98345 0.39577 0.0
C2248 C 0.88117 0.98139 0.33531 0.0
C2249 C 0.86671 1.00176 0.33279 0.0
C2250 C 0.90051 0.98127 0.35152 0.0
C2251 C 0.9055 1.00136 0.36598 0.0
C2252 C 0.89186 0.0221 0.36235 0.0
C2253 C 0.8729 0.02233 0.34594 0.0
C2254 C 0.93583 1.00858 0.42707 0.0
C2255 C 0.95892 0.99955 0.42285 0.0
C2256 C 0.91868 1.00926 0.40866 0.0
C2257 C 0.92391 1.00049 0.38559 0.0
C2258 C 0.94681 0.99099 0.38153 0.0
C2259 C 0.96409 0.99075 0.39977 0.0
H2260 H 0.01411 0.83562 0.3201 0.0
H2261 H 0.08388 0.86576 0.30789 0.0
H2262 H 1.00851 0.86247 0.35442 0.0
H2263 H 0.07834 0.89274 0.34186 0.0
H2264 H 0.0516 0.9523 0.39121 0.0
H2265 H 0.05434 0.92708 0.356 0.0
H2266 H 0.02629 0.86765 0.39607 0.0
H2267 H 0.02352 0.89311 0.4318 0.0
C2268 C 0.02791 0.84856 0.32425 0.0
C2269 C 0.04921 0.84895 0.31086 0.0
C2270 C 0.0249 0.86365 0.3442 0.0
C2271 C 0.04301 0.87976 0.35112 0.0
C2272 C 0.06389 0.88077 0.33706 0.0
C2273 C 0.06704 0.86543 0.31742 0.0
C2274 C 0.04586 0.93389 0.39271 0.0
C2275 C 0.0372 0.92491 0.41459 0.0
C2276 C 0.04759 0.91934 0.37238 0.0
C2277 C 0.0405 0.89526 0.373 0.0
C2278 C 0.03169 0.88618 0.3948 0.0
C2279 C 0.03025 0.90074 0.41537 0.0
H2280 H 0.21301 0.96971 0.33661 0.0
H2281 H 0.17623 0.03249 0.31197 0.0
H2282 H 0.18324 0.96504 0.36864 0.0
H2283 H 0.14678 0.02812 0.34372 0.0
H2284 H 0.08593 1.00497 0.39165 0.0
H2285 H 0.11403 1.00498 0.35859 0.0
H2286 H 0.17077 0.98432 0.40641 0.0
H2287 H 0.14238 0.98401 0.43977 0.0
C2288 C 0.19823 0.98213 0.33763 0.0
C2289 C 0.19685 1.00127 0.32143 0.0
C2290 C 0.18133 0.97972 0.35626 0.0
C2291 C 0.16245 0.99624 0.35905 0.0
C2292 C 0.16073 0.01481 0.34221 0.0
C2293 C 0.17766 0.01733 0.32386 0.0
C2294 C 0.10435 1.00036 0.39531 0.0
C2295 C 0.11168 0.99463 0.41871 0.0
C2296 C 0.12062 1.00047 0.37619 0.0
C2297 C 0.14491 0.99476 0.37958 0.0
C2298 C 0.15224 0.98863 0.40289 0.0
C2299 C 0.13593 0.98866 0.42216 0.0
H2300 H 0.99039 0.84235 0.6695 0.0
H2301 H 0.06301 0.81725 0.66153 0.0
H2302 H 0.99594 0.86921 0.63603 0.0
H2303 H 0.06888 0.84598 0.62881 0.0
H2304 H 0.06303 0.92901 0.59447 0.0
H2305 H 0.06171 0.89889 0.62619 0.0
H2306 H 1.00926 0.8591 0.58624 0.0
H2307 H 0.01122 0.88878 0.55393 0.0
C2308 C 1.00757 0.84223 0.66064 0.0
C2309 C 0.02599 0.82665 0.66821 0.0
C2310 C 1.01073 0.85797 0.64141 0.0
C2311 C 0.03267 0.85952 0.6294 0.0
C2312 C 0.05163 0.84507 0.63755 0.0
C2313 C 0.04829 0.82871 0.65652 0.0
C2314 C 0.05146 0.91365 0.59221 0.0
C2315 C 0.03725 0.9114 0.57148 0.0
C2316 C 0.0508 0.89633 0.61041 0.0
C2317 C 0.03545 0.87651 0.60879 0.0
C2318 C 0.02139 0.87408 0.58801 0.0
C2319 C 0.02255 0.89107 0.56945 0.0
H2320 H 0.21875 0.01102 0.65591 0.0
H2321 H 0.1826 0.94747 0.67982 0.0
H2322 H 0.18884 0.01574 0.62399 0.0
H2323 H 0.153 0.95199 0.64826 0.0
H2324 H 0.09072 0.97763 0.60331 0.0
H2325 H 0.11993 0.97654 0.63531 0.0
H2326 H 0.17557 0.99609 0.58573 0.0
H2327 H 0.14602 0.99739 0.55331 0.0
C2328 C 0.20418 0.99833 0.65466 0.0
C2329 C 0.20304 0.97897 0.67061 0.0
C2330 C 0.18719 1.00082 0.63614 0.0
C2331 C 0.16837 0.98421 0.63331 0.0
C2332 C 0.16695 0.96532 0.64982 0.0
C2333 C 0.184 0.96269 0.668 0.0
C2334 C 0.10913 0.98177 0.59901 0.0
C2335 C 0.11579 0.98753 0.57541 0.0
C2336 C 0.12603 0.98102 0.61753 0.0
C2337 C 0.15031 0.98615 0.61333 0.0
C2338 C 0.15705 0.99222 0.58981 0.0
C2339 C 0.14009 0.99275 0.57111 0.0
H2340 H 0.07162 0.15846 0.67054 0.0
H2341 H 1.00688 0.1247 0.69467 0.0
H2342 H 0.07459 0.12951 0.63774 0.0
H2343 H 1.00975 0.0956 0.66209 0.0
H2344 H 0.0312 0.03599 0.60988 0.0
H2345 H 0.03197 0.06213 0.64465 0.0
H2346 H 0.05306 0.12113 0.59998 0.0
H2347 H 0.05234 0.09486 0.56494 0.0
C2348 C 0.05854 0.14423 0.6694 0.0
C2349 C 0.03944 0.14344 0.68574 0.0
C2350 C 0.05995 0.12789 0.65028 0.0
C2351 C 0.04233 0.11016 0.64695 0.0
C2352 C 0.02383 0.10873 0.66404 0.0
C2353 C 0.02227 0.12528 0.68295 0.0
C2354 C 0.0361 0.05451 0.6073 0.0
C2355 C 0.04172 0.06312 0.5843 0.0
C2356 C 0.03641 0.06961 0.6274 0.0
C2357 C 0.04262 0.09388 0.62538 0.0
C2358 C 0.04846 0.10252 0.60243 0.0
C2359 C 0.04788 0.08743 0.58221 0.0
H2360 H 0.86741 0.97258 0.66909 0.0
H2361 H 0.88304 0.04786 0.66525 0.0
H2362 H 0.90055 0.96457 0.641 0.0
H2363 H 0.91512 0.03997 0.63683 0.0
H2364 H 0.93734 0.01594 0.5589 0.0
H2365 H 0.90825 0.01983 0.59129 0.0
H2366 H 0.95195 0.97536 0.63621 0.0
H2367 H 0.98168 0.97199 0.60395 0.0
C2368 C 0.8783 0.98731 0.6629 0.0
C2369 C 0.87243 0.01089 0.66947 0.0
C2370 C 0.89713 0.98276 0.64661 0.0
C2371 C 0.91021 1.0017 0.63635 0.0
C2372 C 0.90525 0.02501 0.64412 0.0
C2373 C 0.8869 0.02949 0.66057 0.0
C2374 C 0.94078 1.00681 0.57557 0.0
C2375 C 0.96199 0.99365 0.57866 0.0
C2376 C 0.92408 1.00911 0.59419 0.0
C2377 C 0.92771 0.99785 0.61635 0.0
C2378 C 0.94855 0.98413 0.61935 0.0
C2379 C 0.96562 0.98232 0.60086 0.0
H2380 H 0.34808 0.02885 0.1341 0.0
H2381 H 0.38608 0.98468 0.18405 0.0
H2382 H 0.37883 0.02173 0.1041 0.0
H2383 H 0.41701 0.97701 0.15384 0.0
H2384 H 0.4822 0.99521 0.10485 0.0
H2385 H 0.44982 0.9967 0.1342 0.0
H2386 H 0.39804 0.99586 0.0771 0.0
H2387 H 0.43017 0.99491 0.04795 0.0
C2388 C 0.36261 0.0168 0.13835 0.0
C2389 C 0.36422 1.00689 0.16137 0.0
C2390 C 0.38046 0.01278 0.12111 0.0
C2391 C 0.40081 0.99884 0.12629 0.0
C2392 C 0.40191 0.98811 0.14908 0.0
C2393 C 0.3839 0.99207 0.16634 0.0
C2394 C 0.46393 0.99529 0.09851 0.0
C2395 C 0.45912 0.99513 0.07378 0.0
C2396 C 0.44521 0.99597 0.11545 0.0
C2397 C 0.42099 0.99653 0.1083 0.0
C2398 C 0.41627 0.9959 0.08357 0.0
C2399 C 0.43491 0.99523 0.0667 0.0
H2400 H 0.05481 0.35518 0.19385 0.0
H2401 H 1.00713 0.31307 0.1506 0.0
H2402 H 0.0601 0.38337 0.16093 0.0
H2403 H 0.01204 0.34125 0.11762 0.0
H2404 H 0.0363 0.38985 0.05666 0.0
H2405 H 0.03667 0.35933 0.08749 0.0
H2406 H 0.03693 0.41413 0.14177 0.0
H2407 H 0.03683 0.44482 0.11084 0.0
C2408 C 0.04624 0.35142 0.17691 0.0
C2409 C 0.03118 0.33139 0.17464 0.0
C2410 C 0.04882 0.3679 0.15815 0.0
C2411 C 0.03629 0.36497 0.13648 0.0
C2412 C 0.02223 0.34417 0.1338 0.0
C2413 C 0.01958 0.32775 0.15265 0.0
C2414 C 0.03644 0.39556 0.07515 0.0
C2415 C 0.03647 0.42009 0.08102 0.0
C2416 C 0.03657 0.37789 0.09295 0.0
C2417 C 0.03687 0.38399 0.11735 0.0
C2418 C 0.03705 0.40853 0.12326 0.0
C2419 C 0.03676 0.42625 0.10543 0.0
H2420 H 0.7253 0.01752 0.1437 0.0
H2421 H 0.68449 0.96484 0.18207 0.0
H2422 H 0.69578 0.01631 0.11117 0.0
H2423 H 0.65531 0.96332 0.14984 0.0
H2424 H 0.59214 0.98808 0.1045 0.0
H2425 H 0.6238 0.9876 0.13442 0.0
H2426 H 0.67684 0.99425 0.07886 0.0
H2427 H 0.6452 0.99508 0.04894 0.0
C2428 C 0.71044 1.00516 0.14487 0.0
C2429 C 0.70738 0.9912 0.16549 0.0
C2430 C 0.69335 1.00455 0.12628 0.0
C2431 C 0.6727 0.99003 0.12789 0.0
C2432 C 0.67048 0.97521 0.14803 0.0
C2433 C 0.68746 0.97581 0.16645 0.0
C2434 C 0.6105 0.98941 0.09856 0.0
C2435 C 0.61583 0.99152 0.07408 0.0
C2436 C 0.62882 0.98899 0.11581 0.0
C2437 C 0.65315 0.99072 0.10926 0.0
C2438 C 0.65845 0.99305 0.08479 0.0
C2439 C 0.64015 0.99337 0.06753 0.0
H2440 H 0.02705 0.69859 0.12318 0.0
H2441 H 0.0476 0.65209 0.18076 0.0
H2442 H 0.02854 0.66479 0.09539 0.0
H2443 H 0.05013 0.61859 0.1532 0.0
H2444 H 0.02883 0.55684 0.10447 0.0
H2445 H 0.02842 0.59103 0.13152 0.0
H2446 H 0.0503 0.63701 0.07364 0.0
H2447 H 0.0497 0.60307 0.04658 0.0
C2448 C 0.03236 0.68124 0.12981 0.0
C2449 C 0.03707 0.67811 0.15425 0.0
C2450 C 0.03326 0.66171 0.11386 0.0
C2451 C 0.0392 0.63849 0.12182 0.0
C2452 C 0.04479 0.63577 0.1462 0.0
C2453 C 0.04359 0.65515 0.16209 0.0
C2454 C 0.03363 0.57423 0.09753 0.0
C2455 C 0.03922 0.57698 0.0732 0.0
C2456 C 0.03354 0.594 0.11314 0.0
C2457 C 0.03935 0.61721 0.10506 0.0
C2458 C 0.04524 0.61978 0.08073 0.0
C2459 C 0.04505 0.6001 0.06511 0.0
H2460 H 0.3864 1.0024 0.81056 0.0
H2461 H 0.34781 0.96523 0.86564 0.0
H2462 H 0.41804 0.01237 0.83935 0.0
H2463 H 0.37925 0.97456 0.89421 0.0
H2464 H 0.4831 0.99617 0.88957 0.0
H2465 H 0.45038 0.99317 0.86069 0.0
H2466 H 0.39929 1.00323 0.91759 0.0
H2467 H 0.43166 1.0055 0.9463 0.0
C2468 C 0.38428 0.99709 0.82902 0.0
C2469 C 0.36429 0.98348 0.8359 0.0
C2470 C 0.40266 1.00236 0.84547 0.0
C2471 C 0.40151 0.9942 0.86929 0.0
C2472 C 0.38086 0.98155 0.87629 0.0
C2473 C 0.36265 0.97625 0.85988 0.0
C2474 C 0.4649 0.9979 0.89592 0.0
C2475 C 0.46026 1.00086 0.92049 0.0
C2476 C 0.44603 0.99632 0.87926 0.0
C2477 C 0.42192 0.99778 0.88662 0.0
C2478 C 0.41744 1.00151 0.91109 0.0
C2479 C 0.43619 1.00294 0.92768 0.0
H2480 H 0.0309 0.33512 0.82231 0.0
H2481 H 0.06032 0.2911 0.87794 0.0
H2482 H 0.02723 0.36837 0.8501 0.0
H2483 H 0.05741 0.32474 0.90598 0.0
H2484 H 0.03284 0.3848 0.95597 0.0
H2485 H 0.03388 0.35073 0.92913 0.0
H2486 H 0.049 0.39781 0.87007 0.0
H2487 H 0.04721 0.43213 0.89696 0.0
C2488 C 0.03646 0.33251 0.84064 0.0
C2489 C 0.04588 0.31034 0.84784 0.0
C2490 C 0.03464 0.35178 0.85661 0.0
C2491 C 0.04236 0.34976 0.88046 0.0
C2492 C 0.05106 0.32722 0.88791 0.0
C2493 C 0.05273 0.30779 0.87185 0.0
C2494 C 0.0364 0.38806 0.93725 0.0
C2495 C 0.03995 0.41155 0.92883 0.0
C2496 C 0.03715 0.36827 0.92176 0.0
C2497 C 0.04156 0.3711 0.89717 0.0
C2498 C 0.04513 0.39463 0.88873 0.0
C2499 C 0.04425 0.41449 0.90425 0.0
H2500 H 0.69113 0.97763 0.81348 0.0
H2501 H 0.73326 0.01671 0.86463 0.0
H2502 H 0.65897 0.9734 0.84282 0.0
H2503 H 0.70109 0.01299 0.89403 0.0
H2504 H 0.64536 0.98903 0.94809 0.0
H2505 H 0.67828 0.98822 0.91989 0.0
H2506 H 0.62854 0.99698 0.86166 0.0
H2507 H 0.59528 0.99736 0.89004 0.0
C2508 C 0.69381 0.98463 0.83132 0.0
C2509 C 0.71508 0.99683 0.83696 0.0
C2510 C 0.67515 0.98266 0.84806 0.0
C2511 C 0.67709 0.993 0.87095 0.0
C2512 C 0.69884 1.00447 0.87682 0.0
C2513 C 0.71747 1.00646 0.86002 0.0
C2514 C 0.64124 0.99077 0.92928 0.0
C2515 C 0.61735 0.99332 0.92155 0.0
C2516 C 0.66033 0.99041 0.913 0.0
C2517 C 0.65638 0.99259 0.88829 0.0
C2518 C 0.63247 0.99491 0.88046 0.0
C2519 C 0.61328 0.99527 0.89681 0.0
H2520 H 0.029 0.68723 0.86826 0.0
H2521 H 0.0391 0.63965 0.8087 0.0
H2522 H 0.03531 0.65439 0.89588 0.0
H2523 H 0.04611 0.60644 0.83637 0.0
H2524 H 0.02304 0.54854 0.89234 0.0
H2525 H 0.0246 0.58073 0.86278 0.0
H2526 H 0.05964 0.62622 0.91437 0.0
H2527 H 0.05732 0.59459 0.94382 0.0
C2528 C 0.03367 0.66988 0.86107 0.0
C2529 C 0.03411 0.66633 0.83619 0.0
C2530 C 0.03716 0.65082 0.87698 0.0
C2531 C 0.04109 0.62733 0.86866 0.0
C2532 C 0.04279 0.62403 0.84368 0.0
C2533 C 0.0393 0.64322 0.82771 0.0
C2534 C 0.0311 0.56541 0.89734 0.0
C2535 C 0.03953 0.56893 0.92079 0.0
C2536 C 0.03218 0.58394 0.88027 0.0
C2537 C 0.04195 0.60655 0.88601 0.0
C2538 C 0.05133 0.60954 0.90919 0.0
C2539 C 0.05003 0.5912 0.92622 0.0
H2540 H 0.19188 0.32737 0.94858 0.0
H2541 H 0.2047 0.32394 0.02451 0.0
H2542 H 0.16276 0.35897 0.95483 0.0
H2543 H 0.17421 0.35505 0.03078 0.0
H2544 H 0.09729 0.39512 0.02451 0.0
H2545 H 0.12668 0.36274 0.02205 0.0
H2546 H 0.16747 0.40355 0.97115 0.0
H2547 H 0.13848 0.43625 0.97406 0.0
C2548 C 0.18844 0.3332 0.96671 0.0
C2549 C 0.20128 0.32325 0.98599 0.0
C2550 C 0.17163 0.3514 0.97024 0.0
C2551 C 0.16644 0.35994 0.99323 0.0
C2552 C 0.17793 0.349 0.01278 0.0
C2553 C 0.19527 0.33098 1.0092 0.0
C2554 C 0.11263 0.39731 0.01291 0.0
C2555 C 0.11539 0.41837 0.99939 0.0
C2556 C 0.12954 0.37875 0.01163 0.0
C2557 C 0.14941 0.38045 0.99634 0.0
C2558 C 0.15232 0.4016 0.98303 0.0
C2559 C 0.13573 0.42041 0.98476 0.0
H2560 H 0.17995 0.67589 0.95232 0.0
H2561 H 0.21361 0.65815 0.01914 0.0
H2562 H 0.1505 0.64443 0.95839 0.0
H2563 H 0.18377 0.62643 0.02547 0.0
H2564 H 0.08774 0.60026 0.98492 0.0
H2565 H 0.11645 0.63274 0.9822 0.0
H2566 H 0.17185 0.58653 1.00906 0.0
H2567 H 0.14288 0.55372 0.0119 0.0
C2568 C 0.18082 0.66551 0.96858 0.0
C2569 C 0.19917 0.66981 0.9853 0.0
C2570 C 0.16382 0.64737 0.97211 0.0
C2571 C 0.16456 0.63261 0.99243 0.0
C2572 C 0.18264 0.63719 1.00948 0.0
C2573 C 0.19959 0.65563 1.00604 0.0
C2574 C 0.10598 0.59686 0.99042 0.0
C2575 C 0.11275 0.57408 0.99871 0.0
C2576 C 0.1226 0.61562 0.9887 0.0
C2577 C 0.14668 0.61251 0.99537 0.0
C2578 C 0.15348 0.58984 1.00397 0.0
C2579 C 0.13683 0.57089 1.00545 0.0
H2580 H 0.35293 0.13914 0.96669 0.0
H2581 H 0.39244 0.18645 0.01271 0.0
H2582 H 0.38238 0.10774 0.97343 0.0
H2583 H 0.42199 0.15497 0.01993 0.0
H2584 H 0.48558 0.10512 0.99993 0.0
H2585 H 0.45403 0.13528 0.999 0.0
H2586 H 0.40066 0.07958 0.99922 0.0
H2587 H 0.43198 0.04959 0.99969 0.0
C2588 C 0.36741 0.14246 0.97913 0.0
C2589 C 0.3699 0.1651 0.98973 0.0
C2590 C 0.38451 0.12446 0.98288 0.0
C2591 C 0.40492 0.12862 0.99713 0.0
C2592 C 0.40681 0.15102 1.00857 0.0
C2593 C 0.38958 0.169 1.00488 0.0
C2594 C 0.46715 0.09926 0.99986 0.0
C2595 C 0.46163 0.07469 0.99974 0.0
C2596 C 0.44891 0.11665 0.9995 0.0
C2597 C 0.42452 0.1101 0.99897 0.0
C2598 C 0.41908 0.08554 0.99924 0.0
C2599 C 0.43724 0.06822 0.99962 0.0
H2600 H 0.8601 0.34396 0.96555 0.0
H2601 H 0.88225 0.3145 0.03296 0.0
H2602 H 0.89423 0.37117 0.96607 0.0
H2603 H 0.91695 0.34162 0.03336 0.0
H2604 H 0.98619 0.38687 0.01264 0.0
H2605 H 0.95613 0.35503 0.01096 0.0
H2606 H 0.90208 0.40694 0.99351 0.0
H2607 H 0.93176 0.43879 0.99579 0.0
C2608 C 0.87288 0.3426 0.98002 0.0
C2609 C 0.86864 0.32672 0.999 0.0
C2610 C 0.89225 0.3585 0.98052 0.0
C2611 C 0.90818 0.35892 0.99994 0.0
C2612 C 0.90506 0.34178 0.0181 0.0
C2613 C 0.88536 0.326 0.01775 0.0
C2614 C 0.96788 0.39158 1.00853 0.0
C2615 C 0.96161 0.41559 1.00415 0.0
C2616 C 0.95063 0.37325 1.00763 0.0
C2617 C 0.9267 0.37831 1.00182 0.0
C2618 C 0.9204 0.40229 0.99768 0.0
C2619 C 0.93749 0.42064 0.99908 0.0
H2620 H 0.69433 0.81426 0.96845 0.0
H2621 H 0.72191 0.85296 0.02906 0.0
H2622 H 0.66224 0.84392 0.96419 0.0
H2623 H 0.69006 0.88233 0.02505 0.0
H2624 H 0.59237 0.88691 0.98499 0.0
H2625 H 0.62512 0.8577 0.98512 0.0
H2626 H 0.67541 0.91417 1.00027 0.0
H2627 H 0.64321 0.94298 1.00038 0.0
C2628 C 0.69392 0.8294 0.98049 0.0
C2629 C 0.71097 0.83135 0.9989 0.0
C2630 C 0.67526 0.84623 0.97832 0.0
C2631 C 0.67331 0.86564 0.99432 0.0
C2632 C 0.69093 0.8679 0.01218 0.0
C2633 C 0.70931 0.85103 0.01449 0.0
C2634 C 0.6104 0.89311 0.9883 0.0
C2635 C 0.61482 0.9175 0.99279 0.0
C2636 C 0.62928 0.87633 0.98822 0.0
C2637 C 0.65309 0.88341 0.99284 0.0
C2638 C 0.65741 0.90781 0.997 0.0
C2639 C 0.63873 0.92448 0.99693 0.0
H2640 H 0.87105 0.66694 0.97202 0.0
H2641 H 0.8592 0.64114 0.04351 0.0
H2642 H 0.90598 0.64024 0.96839 0.0
H2643 H 0.89331 0.61448 0.03977 0.0
H2644 H 0.93104 0.54698 0.01291 0.0
H2645 H 0.89983 0.57728 0.0151 0.0
H2646 H 0.94832 0.62962 0.98616 0.0
H2647 H 0.97991 0.59924 0.9842 0.0
C2648 C 0.87617 0.65606 0.98713 0.0
C2649 C 0.8621 0.65613 1.00799 0.0
C2650 C 0.8961 0.6406 0.98501 0.0
C2651 C 0.90222 0.62472 1.00361 0.0
C2652 C 0.88891 0.62595 0.02486 0.0
C2653 C 0.86938 0.64143 0.02705 0.0
C2654 C 0.93516 0.56487 1.00685 0.0
C2655 C 0.9582 0.57048 0.99841 0.0
C2656 C 0.91721 0.58236 1.00825 0.0
C2657 C 0.92147 0.60606 1.00093 0.0
C2658 C 0.9443 0.61161 0.99188 0.0
C2659 C 0.96247 0.59415 0.99088 0.0
H2660 H 0.3465 0.86222 0.95825 0.0
H2661 H 0.38372 0.81151 1.00225 0.0
H2662 H 0.37744 0.89192 0.96594 0.0
H2663 H 0.41484 0.84143 1.01046 0.0
H2664 H 0.42913 0.94724 0.99501 0.0
H2665 H 0.39664 0.9184 0.993 0.0
H2666 H 0.44784 0.86089 0.99024 0.0
H2667 H 0.48049 0.88982 0.99267 0.0
C2668 C 0.3609 0.85771 0.97035 0.0
C2669 C 0.36227 0.83456 0.98002 0.0
C2670 C 0.37884 0.87478 0.97471 0.0
C2671 C 0.39901 0.86929 0.98876 0.0
C2672 C 0.39986 0.84639 0.99929 0.0
C2673 C 0.38174 0.82931 0.995 0.0
C2674 C 0.43363 0.92846 0.99405 0.0
C2675 C 0.45775 0.92111 0.99399 0.0
C2676 C 0.41482 0.91179 0.99278 0.0
C2677 C 0.41931 0.88706 0.99141 0.0
C2678 C 0.44343 0.87965 0.99162 0.0
C2679 C 0.4623 0.89637 0.99285 0.0
H2680 H 0.72527 0.14293 0.02465 0.0
H2681 H 0.69471 0.16691 0.95828 0.0
H2682 H 0.6953 0.11079 0.02653 0.0
H2683 H 0.66489 0.13522 0.96016 0.0
H2684 H 0.59647 0.09951 0.98775 0.0
H2685 H 0.6294 0.12807 0.9854 0.0
H2686 H 0.6789 0.07339 1.00742 0.0
H2687 H 0.64597 0.04473 1.00978 0.0
C2688 C 0.71268 0.14089 1.0101 0.0
C2689 C 0.71248 0.1575 0.9913 0.0
C2690 C 0.69532 0.1226 0.01126 0.0
C2691 C 0.67724 0.12066 0.99375 0.0
C2692 C 0.67808 0.13642 0.97427 0.0
C2693 C 0.69542 0.15445 0.97303 0.0
C2694 C 0.61431 0.09353 0.99224 0.0
C2695 C 0.61839 0.06967 0.99891 0.0
C2696 C 0.63331 0.10991 0.9907 0.0
C2697 C 0.65699 0.10308 0.99604 0.0
C2698 C 0.66099 0.07938 1.00324 0.0
C2699 C 0.64203 0.06289 1.00447 0.0
H2700 H 0.43713 0.69453 0.88122 0.0
H2701 H 0.50767 0.68175 0.85253 0.0
H2702 H 0.44398 0.6649 0.91183 0.0
H2703 H 0.51391 0.65065 0.88286 0.0
H2704 H 0.5013 0.5797 0.92814 0.0
H2705 H 0.49757 0.60975 0.89669 0.0
H2706 H 0.47013 0.66006 0.94821 0.0
H2707 H 0.47439 0.63026 0.97977 0.0
C2708 C 0.45428 0.68558 0.88141 0.0
C2709 C 0.47212 0.69137 0.8645 0.0
C2710 C 0.45809 0.6683 0.89906 0.0
C2711 C 0.47961 0.65548 0.9002 0.0
C2712 C 0.4971 0.66021 0.88263 0.0
C2713 C 0.49347 0.67801 0.86511 0.0
C2714 C 0.49463 0.59722 0.93287 0.0
C2715 C 0.48805 0.60237 0.95668 0.0
C2716 C 0.49261 0.61453 0.91477 0.0
C2717 C 0.48345 0.6374 0.91975 0.0
C2718 C 0.47709 0.64262 0.94358 0.0
C2719 C 0.47962 0.6255 0.96177 0.0
H2720 H 0.30251 0.51884 0.87952 0.0
H2721 H 0.35429 0.56311 0.84386 0.0
H2722 H 0.33214 0.50949 0.91052 0.0
H2723 H 0.38357 0.5545 0.87473 0.0
H2724 H 0.38099 0.52482 0.97671 0.0
H2725 H 0.3519 0.52784 0.94422 0.0
H2726 H 0.40948 0.5272 0.8929 0.0
H2727 H 0.43833 0.525 0.92509 0.0
C2728 C 0.32046 0.52597 0.87789 0.0
C2729 C 0.32612 0.54141 0.85893 0.0
C2730 C 0.33736 0.521 0.89595 0.0
C2731 C 0.36043 0.53132 0.89549 0.0
C2732 C 0.36627 0.54584 0.87581 0.0
C2733 C 0.34945 0.55079 0.85792 0.0
C2734 C 0.38749 0.52533 0.95848 0.0
C2735 C 0.41225 0.52496 0.9538 0.0
C2736 C 0.3707 0.52685 0.93974 0.0
C2737 C 0.37811 0.52794 0.91565 0.0
C2738 C 0.40286 0.52692 0.91105 0.0
C2739 C 0.41957 0.52551 0.9297 0.0
H2740 H 0.52252 0.35123 0.87541 0.0
H2741 H 0.44916 0.36547 0.85684 0.0
H2742 H 0.52221 0.3845 0.90351 0.0
H2743 H 0.4489 0.39945 0.88505 0.0
H2744 H 0.47121 0.47147 0.92669 0.0
H2745 H 0.46968 0.44115 0.895 0.0
H2746 H 0.50012 0.38953 0.94317 0.0
H2747 H 0.5014 0.41951 0.97483 0.0
C2748 C 0.50646 0.36193 0.87689 0.0
C2749 C 0.4859 0.35571 0.86376 0.0
C2750 C 0.50621 0.38087 0.89322 0.0
C2751 C 0.48544 0.39447 0.89689 0.0
C2752 C 0.46522 0.38934 0.88266 0.0
C2753 C 0.4654 0.37002 0.86635 0.0
C2754 C 0.47759 0.45365 0.93055 0.0
C2755 C 0.48664 0.44811 0.95341 0.0
C2756 C 0.47654 0.43622 0.91239 0.0
C2757 C 0.48494 0.41291 0.91642 0.0
C2758 C 0.49374 0.40735 0.93931 0.0
C2759 C 0.49439 0.42459 0.95755 0.0
H2760 H 0.62411 0.51648 0.83679 0.0
H2761 H 0.67929 0.52899 0.88895 0.0
H2762 H 0.59382 0.51849 0.86833 0.0
H2763 H 0.64936 0.53225 0.92027 0.0
H2764 H 0.5944 0.51241 0.97658 0.0
H2765 H 0.6239 0.51143 0.9446 0.0
H2766 H 0.57156 0.54001 0.89566 0.0
H2767 H 0.54189 0.53983 0.92741 0.0
C2768 C 0.62971 0.52014 0.85494 0.0
C2769 C 0.65413 0.52245 0.86033 0.0
C2770 C 0.61233 0.52136 0.87316 0.0
C2771 C 0.61885 0.52528 0.89728 0.0
C2772 C 0.64335 0.52849 0.90229 0.0
C2773 C 0.66063 0.5269 0.8842 0.0
C2774 C 0.58921 0.51857 0.95902 0.0
C2775 C 0.56564 0.52615 0.95475 0.0
C2776 C 0.60625 0.51816 0.94052 0.0
C2777 C 0.60046 0.52571 0.91715 0.0
C2778 C 0.57688 0.53358 0.91306 0.0
C2779 C 0.55977 0.53365 0.93146 0.0
H2780 H 0.50283 0.38399 0.22504 0.0
H2781 H 0.4762 0.33227 0.17462 0.0
H2782 H 0.50097 0.41495 0.19417 0.0
H2783 H 0.47345 0.36298 0.14406 0.0
H2784 H 0.49603 0.41542 0.08615 0.0
H2785 H 0.49638 0.38563 0.11783 0.0
H2786 H 0.47846 0.44018 0.16943 0.0
H2787 H 0.47892 0.46996 0.13795 0.0
C2788 C 0.49601 0.37939 0.20753 0.0
C2789 C 0.48961 0.35567 0.20236 0.0
C2790 C 0.49495 0.39713 0.18969 0.0
C2791 C 0.48734 0.39167 0.16619 0.0
C2792 C 0.48003 0.36803 0.16152 0.0
C2793 C 0.48128 0.35038 0.17922 0.0
C2794 C 0.49211 0.4211 0.10422 0.0
C2795 C 0.48747 0.44529 0.10923 0.0
C2796 C 0.49216 0.40389 0.12254 0.0
C2797 C 0.48737 0.4102 0.14654 0.0
C2798 C 0.48263 0.43442 0.15145 0.0
C2799 C 0.48274 0.45161 0.13319 0.0
H2800 H 0.63482 0.54594 0.22039 0.0
H2801 H 0.67363 0.49605 0.17634 0.0
H2802 H 0.60192 0.54581 0.19117 0.0
H2803 H 0.64116 0.49575 0.14753 0.0
H2804 H 0.59492 0.52232 0.08652 0.0
H2805 H 0.62512 0.52195 0.11781 0.0
H2806 H 0.56979 0.52304 0.17151 0.0
H2807 H 0.53945 0.52375 0.14017 0.0
C2808 C 0.63614 0.53462 0.20476 0.0
C2809 C 0.65701 0.52123 0.20065 0.0
C2810 C 0.61733 0.53456 0.1879 0.0
C2811 C 0.61897 0.52114 0.16656 0.0
C2812 C 0.63938 0.50686 0.16325 0.0
C2813 C 0.65799 0.5069 0.17996 0.0
C2814 C 0.58905 0.52248 0.10497 0.0
C2815 C 0.56452 0.52294 0.11058 0.0
C2816 C 0.60648 0.52213 0.12303 0.0
C2817 C 0.60006 0.52225 0.1474 0.0
C2818 C 0.57555 0.52308 0.15305 0.0
C2819 C 0.55806 0.52334 0.13496 0.0
H2820 H 0.50498 0.68893 0.20563 0.0
H2821 H 0.43981 0.65243 0.22416 0.0
H2822 H 0.51014 0.66221 0.17113 0.0
H2823 H 0.44485 0.62572 0.18997 0.0
H2824 H 0.47138 0.56832 0.13879 0.0
H2825 H 0.46938 0.59378 0.17377 0.0
H2826 H 0.49075 0.65428 0.13125 0.0
H2827 H 0.49295 0.62842 0.09571 0.0
C2828 C 0.4922 0.67465 0.20281 0.0
C2829 C 0.47231 0.67242 0.21805 0.0
C2830 C 0.49489 0.65963 0.18274 0.0
C2831 C 0.47785 0.64178 0.1775 0.0
C2832 C 0.4585 0.63902 0.19339 0.0
C2833 C 0.45566 0.65422 0.21319 0.0
C2834 C 0.4757 0.58704 0.13666 0.0
C2835 C 0.48231 0.59617 0.11414 0.0
C2836 C 0.47442 0.60175 0.1569 0.0
C2837 C 0.47988 0.62621 0.15557 0.0
C2838 C 0.48662 0.63549 0.13309 0.0
C2839 C 0.48764 0.62071 0.11261 0.0
H2840 H 0.34312 0.56688 0.21457 0.0
H2841 H 0.31153 0.50071 0.1912 0.0
H2842 H 0.37433 0.56271 0.18391 0.0
H2843 H 0.34238 0.49648 0.16055 0.0
H2844 H 0.38098 0.51426 0.08948 0.0
H2845 H 0.35231 0.51686 0.1225 0.0
H2846 H 0.40899 0.53852 0.1701 0.0
H2847 H 0.43749 0.53593 0.13741 0.0
C2848 C 0.34338 0.55103 0.20345 0.0
C2849 C 0.32525 0.53382 0.2057 0.0
C2850 C 0.36109 0.54871 0.18568 0.0
C2851 C 0.36077 0.52938 0.16944 0.0
C2852 C 0.34307 0.51177 0.1724 0.0
C2853 C 0.32562 0.51396 0.19026 0.0
C2854 C 0.38734 0.51958 0.10696 0.0
C2855 C 0.41169 0.52475 0.11059 0.0
C2856 C 0.37091 0.52094 0.12599 0.0
C2857 C 0.37829 0.52784 0.14912 0.0
C2858 C 0.40255 0.53329 0.15262 0.0
C2859 C 0.41898 0.53164 0.13375 0.0
H2860 H 0.80781 0.56621 0.67865 0.0
H2861 H 0.82573 0.49603 0.70411 0.0
H2862 H 0.83812 0.5625 0.64716 0.0
H2863 H 0.85623 0.49227 0.67292 0.0
H2864 H 0.92933 0.51023 0.63676 0.0
H2865 H 0.89601 0.5116 0.66517 0.0
H2866 H 0.85017 0.5402 0.61035 0.0
H2867 H 0.8832 0.5388 0.58204 0.0
C2868 C 0.81758 0.54962 0.67689 0.0
C2869 C 0.81383 0.53111 0.69337 0.0
C2870 C 0.83517 0.54755 0.65902 0.0
C2871 C 0.84988 0.52715 0.65757 0.0
C2872 C 0.84548 0.50833 0.6736 0.0
C2873 C 0.82767 0.51027 0.69119 0.0
C2874 C 0.91216 0.51679 0.63074 0.0
C2875 C 0.90911 0.52428 0.60696 0.0
C2876 C 0.89296 0.51742 0.64701 0.0
C2877 C 0.87026 0.52593 0.64009 0.0
C2878 C 0.86733 0.53364 0.6164 0.0
C2879 C 0.88636 0.53269 0.60009 0.0
H2880 H 0.44567 0.83432 0.66473 0.0
H2881 H 0.48876 0.86852 0.71862 0.0
H2882 H 0.45461 0.86648 0.63694 0.0
H2883 H 0.49819 0.90089 0.69051 0.0
H2884 H 0.4836 0.96815 0.64184 0.0
H2885 H 0.47884 0.93535 0.67045 0.0
H2886 H 0.48502 0.8844 0.61292 0.0
H2887 H 0.48946 0.91671 0.58458 0.0
C2888 C 0.45763 0.84844 0.67046 0.0
C2889 C 0.46672 0.84855 0.69391 0.0
C2890 C 0.46277 0.86702 0.65446 0.0
C2891 C 0.47714 0.88657 0.66129 0.0
C2892 C 0.48687 0.88636 0.68456 0.0
C2893 C 0.48183 0.86756 0.70059 0.0
C2894 C 0.48414 0.94996 0.6353 0.0
C2895 C 0.48691 0.94539 0.61067 0.0
C2896 C 0.48148 0.93105 0.65178 0.0
C2897 C 0.48142 0.90699 0.64416 0.0
C2898 C 0.48458 0.90254 0.61962 0.0
C2899 C 0.48726 0.92129 0.60325 0.0
H2900 H 0.14592 0.50574 0.71392 0.0
H2901 H 0.17086 0.56797 0.67633 0.0
H2902 H 0.1143 0.50019 0.68379 0.0
H2903 H 0.13966 0.56255 0.64639 0.0
H2904 H 0.09437 0.53536 0.58469 0.0
H2905 H 0.12647 0.53685 0.61389 0.0
H2906 H 0.07637 0.52005 0.66995 0.0
H2907 H 0.0439 0.51843 0.64048 0.0
C2908 C 0.145 0.51791 0.69894 0.0
C2909 C 0.16115 0.53715 0.69743 0.0
C2910 C 0.12666 0.51495 0.68182 0.0
C2911 C 0.1242 0.53095 0.66252 0.0
C2912 C 0.14095 0.54967 0.66072 0.0
C2913 C 0.15894 0.5528 0.67793 0.0
C2914 C 0.09 0.5319 0.6032 0.0
C2915 C 0.06624 0.52689 0.61003 0.0
C2916 C 0.10856 0.53288 0.62007 0.0
C2917 C 0.10422 0.52866 0.64447 0.0
C2918 C 0.08055 0.52323 0.65135 0.0
C2919 C 0.06182 0.52251 0.63442 0.0
H2920 H 0.45403 0.18464 0.70827 0.0
H2921 H 0.5121 0.21488 0.66776 0.0
H2922 H 0.45173 0.15116 0.67992 0.0
H2923 H 0.51008 0.18161 0.63973 0.0
H2924 H 0.4883 0.13034 0.58147 0.0
H2925 H 0.48608 0.16374 0.60884 0.0
H2926 H 0.47522 0.11528 0.66762 0.0
H2927 H 0.47722 0.08131 0.63988 0.0
C2928 C 0.46591 0.18446 0.69301 0.0
C2929 C 0.48308 0.20265 0.69019 0.0
C2930 C 0.46488 0.16504 0.67695 0.0
C2931 C 0.48079 0.16344 0.65747 0.0
C2932 C 0.49734 0.18216 0.65427 0.0
C2933 C 0.49851 0.20134 0.67038 0.0
C2934 C 0.48541 0.12652 0.60019 0.0
C2935 C 0.48311 0.10278 0.60828 0.0
C2936 C 0.48422 0.14589 0.61601 0.0
C2937 C 0.48062 0.14242 0.6406 0.0
C2938 C 0.47783 0.11875 0.64879 0.0
C2939 C 0.47914 0.0992 0.63287 0.0
H2940 H 0.809 0.48806 0.38189 0.0
H2941 H 0.8378 0.5514 0.34936 0.0
H2942 H 0.8376 0.49201 0.41481 0.0
H2943 H 0.86649 0.55552 0.38214 0.0
H2944 H 0.93452 0.53419 0.4248 0.0
H2945 H 0.90262 0.53396 0.39491 0.0
H2946 H 0.8514 0.51524 0.44937 0.0
H2947 H 0.88311 0.51534 0.47914 0.0
C2948 C 0.82074 0.50344 0.38236 0.0
C2949 C 0.82059 0.51985 0.36341 0.0
C2950 C 0.83739 0.5056 0.40109 0.0
C2951 C 0.85468 0.52396 0.40113 0.0
C2952 C 0.85374 0.54097 0.38266 0.0
C2953 C 0.83695 0.53892 0.36409 0.0
C2954 C 0.91648 0.53004 0.43045 0.0
C2955 C 0.91161 0.52482 0.45456 0.0
C2956 C 0.89807 0.53009 0.41329 0.0
C2957 C 0.87424 0.52467 0.41962 0.0
C2958 C 0.86944 0.51935 0.44369 0.0
C2959 C 0.88775 0.51953 0.46085 0.0
H2960 H 0.47414 0.87004 0.35035 0.0
H2961 H 0.50204 0.82282 0.40418 0.0
H2962 H 0.47354 0.90275 0.37892 0.0
H2963 H 0.50214 0.85587 0.43297 0.0
H2964 H 0.48117 0.91533 0.48502 0.0
H2965 H 0.48018 0.88218 0.45711 0.0
H2966 H 0.49732 0.9303 0.39944 0.0
H2967 H 0.49755 0.96379 0.42746 0.0
C2968 C 0.48024 0.86664 0.36838 0.0
C2969 C 0.4883 0.84371 0.37484 0.0
C2970 C 0.48009 0.88557 0.38482 0.0
C2971 C 0.48813 0.8824 0.40843 0.0
C2972 C 0.49559 0.85922 0.41511 0.0
C2973 C 0.49556 0.84014 0.3986 0.0
C2974 C 0.48476 0.91901 0.46639 0.0
C2975 C 0.48946 0.94254 0.45868 0.0
C2976 C 0.48433 0.89975 0.45028 0.0
C2977 C 0.4887 0.90318 0.42576 0.0
C2978 C 0.49344 0.92674 0.41802 0.0
C2979 C 0.49372 0.94608 0.43418 0.0
H2980 H 0.15374 0.55652 0.36225 0.0
H2981 H 0.17015 0.48493 0.38501 0.0
H2982 H 0.12137 0.55851 0.39186 0.0
H2983 H 0.13812 0.48696 0.41467 0.0
H2984 H 0.09458 0.50893 0.4813 0.0
H2985 H 0.12731 0.50861 0.45251 0.0
H2986 H 0.08068 0.5386 0.39914 0.0
H2987 H 0.04764 0.53871 0.42799 0.0
C2988 C 0.15073 0.54137 0.37385 0.0
C2989 C 0.16471 0.52062 0.37132 0.0
C2990 C 0.13198 0.5424 0.39064 0.0
C2991 C 0.12698 0.52287 0.40569 0.0
C2992 C 0.14145 0.50241 0.40356 0.0
C2993 C 0.15984 0.50122 0.38651 0.0
C2994 C 0.09119 0.51549 0.46345 0.0
C2995 C 0.06828 0.5238 0.45709 0.0
C2996 C 0.11002 0.5152 0.44686 0.0
C2997 C 0.10677 0.5236 0.42342 0.0
C2998 C 0.08395 0.53216 0.41706 0.0
C2999 C 0.06492 0.53205 0.43358 0.0
H3000 H 0.4548 0.20062 0.37951 0.0
H3001 H 0.52344 0.176 0.35504 0.0
H3002 H 0.45634 0.17198 0.41266 0.0
H3003 H 0.52507 0.14734 0.38785 0.0
H3004 H 0.50351 0.07788 0.42721 0.0
H3005 H 0.50381 0.1098 0.39745 0.0
H3006 H 0.4769 0.1593 0.45007 0.0
H3007 H 0.47663 0.12753 0.4798 0.0
C3008 C 0.47066 0.1898 0.38181 0.0
C3009 C 0.48931 0.19111 0.36502 0.0
C3010 C 0.47146 0.17313 0.40065 0.0
C3011 C 0.49071 0.15698 0.40287 0.0
C3012 C 0.5098 0.15913 0.38662 0.0
C3013 C 0.5091 0.17592 0.36804 0.0
C3014 C 0.49762 0.09553 0.43248 0.0
C3015 C 0.49011 0.09992 0.45609 0.0
C3016 C 0.49796 0.11397 0.41541 0.0
C3017 C 0.49049 0.13734 0.42126 0.0
C3018 C 0.48268 0.14162 0.44477 0.0
C3019 C 0.48265 0.1233 0.46191 0.0
H3020 H 0.68298 0.88414 0.54266 0.0
H3021 H 0.63159 0.83155 0.51979 0.0
H3022 H 0.65136 0.91369 0.54659 0.0
H3023 H 0.59974 0.86138 0.52268 0.0
H3024 H 0.5436 0.91674 0.54463 0.0
H3025 H 0.57435 0.88596 0.54486 0.0
H3026 H 0.62706 0.93861 0.52465 0.0
H3027 H 0.5965 0.96942 0.52539 0.0
C3028 C 0.6648 0.87885 0.53858 0.0
C3029 C 0.65988 0.8554 0.53094 0.0
C3030 C 0.64657 0.89595 0.54054 0.0
C3031 C 0.62271 0.89038 0.53455 0.0
C3032 C 0.61768 0.86658 0.52769 0.0
C3033 C 0.63598 0.84933 0.52603 0.0
C3034 C 0.56177 0.92181 0.54029 0.0
C3035 C 0.56739 0.94579 0.53508 0.0
C3036 C 0.57952 0.904 0.54028 0.0
C3037 C 0.60354 0.90946 0.53485 0.0
C3038 C 0.60905 0.93348 0.5295 0.0
C3039 C 0.59136 0.95131 0.52975 0.0
H3040 H 0.64079 0.20649 0.50792 0.0
H3041 H 0.66985 0.17212 0.57032 0.0
H3042 H 0.6081 0.17724 0.50714 0.0
H3043 H 0.63757 0.14298 0.56943 0.0
H3044 H 0.5956 0.07759 0.54364 0.0
H3045 H 0.6258 0.109 0.54504 0.0
H3046 H 0.5722 0.16143 0.52748 0.0
H3047 H 0.54193 0.12998 0.52591 0.0
C3048 C 0.63999 0.19305 0.52176 0.0
C3049 C 0.65823 0.19168 0.53904 0.0
C3050 C 0.62127 0.17613 0.52125 0.0
C3051 C 0.62031 0.1573 0.53795 0.0
C3052 C 0.63793 0.15671 0.55587 0.0
C3053 C 0.65645 0.17361 0.55645 0.0
C3054 C 0.59016 0.09577 0.54 0.0
C3055 C 0.56612 0.10103 0.53471 0.0
C3056 C 0.60753 0.11391 0.54098 0.0
C3057 C 0.60157 0.13796 0.53652 0.0
C3058 C 0.57761 0.1432 0.53089 0.0
C3059 C 0.56016 0.12507 0.53013 0.0
H3060 H 0.79703 0.65583 0.50115 0.0
H3061 H 0.8343 0.70757 0.54425 0.0
H3062 H 0.82862 0.62681 0.50837 0.0
H3063 H 0.86612 0.6784 0.55189 0.0
H3064 H 0.93213 0.63136 0.53039 0.0
H3065 H 0.89888 0.65977 0.52996 0.0
H3066 H 0.84882 0.60136 0.5356 0.0
H3067 H 0.88165 0.57318 0.53559 0.0
C3068 C 0.81154 0.66064 0.51305 0.0
C3069 C 0.81281 0.68383 0.5226 0.0
C3070 C 0.82986 0.64402 0.51707 0.0
C3071 C 0.85024 0.65013 0.53061 0.0
C3072 C 0.85094 0.67304 0.54113 0.0
C3073 C 0.83245 0.68965 0.5372 0.0
C3074 C 0.91406 0.62456 0.53157 0.0
C3075 C 0.90983 0.59978 0.5327 0.0
C3076 C 0.89489 0.64092 0.53153 0.0
C3077 C 0.87093 0.633 0.53258 0.0
C3078 C 0.86686 0.60828 0.5343 0.0
C3079 C 0.88589 0.59202 0.53436 0.0
H3080 H 0.36355 0.82594 0.52018 0.0
H3081 H 0.30337 0.87101 0.53629 0.0
H3082 H 0.39069 0.85921 0.52705 0.0
H3083 H 0.3306 0.90461 0.54385 0.0
H3084 H 0.38389 0.96486 0.52053 0.0
H3085 H 0.3553 0.93177 0.52166 0.0
H3086 H 0.40933 0.88651 0.55278 0.0
H3087 H 0.43786 0.91913 0.551 0.0
C3088 C 0.35619 0.8428 0.5262 0.0
C3089 C 0.33129 0.84563 0.5281 0.0
C3090 C 0.3718 0.86206 0.53006 0.0
C3091 C 0.36305 0.88496 0.53586 0.0
C3092 C 0.33813 0.88746 0.53906 0.0
C3093 C 0.32247 0.86805 0.53523 0.0
C3094 C 0.38967 0.94785 0.52764 0.0
C3095 C 0.41348 0.94473 0.53518 0.0
C3096 C 0.37314 0.92882 0.52849 0.0
C3097 C 0.37986 0.9061 0.53707 0.0
C3098 C 0.40344 0.90338 0.54547 0.0
C3099 C 0.41992 0.92226 0.54446 0.0
H3100 H 0.13234 0.33391 0.5291 0.0
H3101 H 0.18539 0.38937 0.52387 0.0
H3102 H 0.101 0.36371 0.53313 0.0
H3103 H 0.15393 0.41964 0.52651 0.0
H3104 H 0.094 0.47069 0.54778 0.0
H3105 H 0.12567 0.44095 0.54738 0.0
H3106 H 0.07755 0.39063 0.5138 0.0
H3107 H 0.04564 0.42007 0.51544 0.0
C3108 C 0.13728 0.35261 0.52883 0.0
C3109 C 0.16141 0.35922 0.52625 0.0
C3110 C 0.11919 0.36987 0.53082 0.0
C3111 C 0.12445 0.39449 0.52981 0.0
C3112 C 0.14882 0.40105 0.5277 0.0
C3113 C 0.16702 0.38368 0.52612 0.0
C3114 C 0.09011 0.45323 0.54037 0.0
C3115 C 0.06704 0.44792 0.53171 0.0
C3116 C 0.10848 0.43607 0.53997 0.0
C3117 C 0.10462 0.41298 0.53056 0.0
C3118 C 0.08148 0.40781 0.52176 0.0
C3119 C 0.06301 0.42486 0.52252 0.0
H3120 H 0.33942 0.20524 0.5687 0.0
H3121 H 0.3141 0.17925 0.50085 0.0
H3122 H 0.37159 0.17527 0.56801 0.0
H3123 H 0.34583 0.14934 0.50011 0.0
H3124 H 0.3832 0.0795 0.5226 0.0
H3125 H 0.35415 0.11217 0.52251 0.0
H3126 H 0.40866 0.16087 0.54717 0.0
H3127 H 0.43767 0.12833 0.54723 0.0
C3128 C 0.34127 0.19372 0.55326 0.0
C3129 C 0.32453 0.195 0.53458 0.0
C3130 C 0.35953 0.17633 0.55293 0.0
C3131 C 0.36118 0.15951 0.53415 0.0
C3132 C 0.34498 0.16161 0.51506 0.0
C3133 C 0.32702 0.17906 0.51527 0.0
C3134 C 0.389 0.09712 0.52812 0.0
C3135 C 0.41291 0.1011 0.53486 0.0
C3136 C 0.37236 0.11597 0.52789 0.0
C3137 C 0.37899 0.13935 0.53471 0.0
C3138 C 0.40278 0.1432 0.5419 0.0
C3139 C 0.41949 0.12445 0.5418 0.0
H3140 H 0.80904 0.37407 0.49421 0.0
H3141 H 0.83674 0.34194 0.55819 0.0
H3142 H 0.83755 0.40704 0.4984 0.0
H3143 H 0.8654 0.37479 0.56253 0.0
H3144 H 0.93375 0.41751 0.54152 0.0
H3145 H 0.90187 0.38759 0.54126 0.0
H3146 H 0.85081 0.44181 0.52175 0.0
H3147 H 0.88254 0.47166 0.5219 0.0
C3148 C 0.82056 0.37462 0.50975 0.0
C3149 C 0.8201 0.35577 0.52628 0.0
C3150 C 0.83713 0.3934 0.51206 0.0
C3151 C 0.85408 0.3936 0.5307 0.0
C3152 C 0.85289 0.37519 0.54778 0.0
C3153 C 0.83613 0.35657 0.5456 0.0
C3154 C 0.91575 0.42312 0.53718 0.0
C3155 C 0.91093 0.44717 0.53173 0.0
C3156 C 0.89735 0.40593 0.53723 0.0
C3157 C 0.87359 0.41217 0.53157 0.0
C3158 C 0.86882 0.4362 0.52606 0.0
C3159 C 0.88712 0.45341 0.52626 0.0
H3160 H 0.14649 0.70596 0.5538 0.0
H3161 H 0.17613 0.66219 0.49778 0.0
H3162 H 0.11382 0.67691 0.55902 0.0
H3163 H 0.14379 0.63353 0.50272 0.0
H3164 H 0.04465 0.63221 0.5388 0.0
H3165 H 0.0775 0.66129 0.53784 0.0
H3166 H 0.12809 0.60381 0.52947 0.0
H3167 H 0.0957 0.57504 0.5302 0.0
C3168 C 0.14628 0.68997 0.5429 0.0
C3169 C 0.16407 0.68641 0.52545 0.0
C3170 C 0.12737 0.67344 0.54565 0.0
C3171 C 0.12595 0.65273 0.53127 0.0
C3172 C 0.14422 0.64899 0.51435 0.0
C3173 C 0.16283 0.66553 0.51146 0.0
C3174 C 0.06277 0.62575 0.53681 0.0
C3175 C 0.06722 0.60107 0.53443 0.0
C3176 C 0.0817 0.64248 0.53642 0.0
C3177 C 0.10564 0.63507 0.53342 0.0
C3178 C 0.11 0.6104 0.53143 0.0
C3179 C 0.09123 0.59377 0.53197 0.0
loop_
_geom_bond_atom_site_label_1
_geom_bond_atom_site_label_2
_geom_bond_distance
_geom_bond_site_symmetry_2
_ccdc_geom_bond_type
C0 C1 1.391 . S
C0 C4 1.391 . S
C0 H42 0.948 . S
C1 C0 1.391 . S
C1 C2 1.391 . S
C2 C1 1.391 . S
C2 H58 0.947 . S
C2 C59 1.392 . S
C3 C4 1.391 . S
C3 C7 1.396 1_655 S
C3 C59 1.419 . S
C4 C0 1.391 . S
C4 C3 1.391 . S
C4 C5 1.399 . S
C5 C4 1.399 . S
C5 C8 1.396 1_655 S
C5 C17 1.453 1_655 S
C5 C18 1.684 . S
H6 C30 0.948 . S
C7 C3 1.396 1_455 S
C7 C8 1.395 . S
C7 C26 1.723 . S
C8 C5 1.396 1_455 S
C8 C7 1.395 . S
C8 C38 1.723 . S
H9 C32 0.947 . S
H10 C33 0.948 . S
H11 C39 0.982 . S
H12 C40 0.979 . S
H13 C40 0.980 . S
H14 C40 0.983 . S
H15 C39 0.979 . S
H16 C39 0.977 . S
C17 C5 1.453 1_455 S
C17 H46 0.982 . S
C17 H47 0.979 . S
C17 H48 0.977 . S
C18 C5 1.684 . S
C18 H43 0.979 . S
C18 H44 0.980 . S
C18 H45 0.983 . S
C19 C20 1.391 . S
C19 C24 1.391 . S
C19 H49 0.948 . S
C20 C19 1.391 . S
C20 C21 1.391 . S
C21 C20 1.391 . S
C21 C22 1.392 . S
C21 H50 0.947 . S
C22 C21 1.392 . S
C22 C23 1.419 . S
C22 H51 0.948 . S
C23 C22 1.419 . S
C23 C24 1.391 . S
C23 C27 1.396 1_655 S
C24 C19 1.391 . S
C24 C23 1.391 . S
C24 C25 1.399 . S
C25 C24 1.399 . S
C25 C26 1.396 1_655 S
C25 C28 1.453 1_655 S
C25 C29 1.684 . S
C26 C7 1.723 . S
C26 C25 1.396 1_455 S
C26 C27 1.395 . S
C27 C23 1.396 1_455 S
C27 C26 1.395 . S
C27 C37 1.723 . S
C28 C25 1.453 1_455 S
C28 H52 0.982 . S
C28 H53 0.979 . S
C28 H54 0.977 . S
C29 C25 1.684 . S
C29 H55 0.979 . S
C29 H56 0.980 . S
C29 H57 0.983 . S
C30 H6 0.948 . S
C30 C31 1.391 . S
C30 C35 1.391 . S
C31 C30 1.391 . S
C31 C32 1.391 . S
C32 H9 0.947 . S
C32 C31 1.391 . S
C32 C33 1.392 . S
C33 H10 0.948 . S
C33 C32 1.392 . S
C33 C34 1.419 . S
C34 C33 1.419 . S
C34 C35 1.391 . S
C34 C38 1.396 1_655 S
C35 C30 1.391 . S
C35 C34 1.391 . S
C35 C36 1.399 . S
C36 C35 1.399 . S
C36 C37 1.396 1_655 S
C36 C39 1.453 1_655 S
C36 C40 1.684 . S
C37 C27 1.723 . S
C37 C36 1.396 1_455 S
C37 C38 1.395 . S
C38 C8 1.723 . S
C38 C34 1.396 1_455 S
C38 C37 1.395 . S
C39 H11 0.982 . S
C39 H15 0.979 . S
C39 H16 0.977 . S
C39 C36 1.453 1_455 S
C40 H12 0.979 . S
C40 H13 0.980 . S
C40 H14 0.983 . S
C40 C36 1.684 . S
H41 C59 0.948 . S
H42 C0 0.948 . S
H43 C18 0.979 . S
H44 C18 0.980 . S
H45 C18 0.983 . S
H46 C17 0.982 . S
H47 C17 0.979 . S
H48 C17 0.977 . S
H49 C19 0.948 . S
H50 C21 0.947 . S
H51 C22 0.948 . S
H52 C28 0.982 . S
H53 C28 0.979 . S
H54 C28 0.977 . S
H55 C29 0.979 . S
H56 C29 0.980 . S
H57 C29 0.983 . S
H58 C2 0.947 . S
C59 C2 1.392 . S
C59 C3 1.419 . S
C59 H41 0.948 . S
C60 C61 1.391 . S
C60 C64 1.391 . S
C60 H102 0.948 . S
C61 C60 1.391 . S
C61 C62 1.391 . S
C62 C61 1.391 . S
C62 H118 0.947 . S
C62 C119 1.392 . S
C63 C64 1.391 . S
C63 C67 1.397 1_545 S
C63 C119 1.419 . S
C64 C60 1.391 . S
C64 C63 1.391 . S
C64 C65 1.399 . S
C65 C64 1.399 . S
C65 C68 1.396 1_545 S
C65 C77 1.453 1_545 S
C65 C78 1.684 . S
H66 C90 0.948 . S
C67 C63 1.397 1_565 S
C67 C68 1.394 . S
C67 C86 1.723 . S
C68 C65 1.396 1_565 S
C68 C67 1.394 . S
C68 C98 1.723 . S
H69 C92 0.947 . S
H70 C93 0.948 . S
H71 C99 0.982 . S
H72 C100 0.979 . S
H73 C100 0.980 . S
H74 C100 0.983 . S
H75 C99 0.979 . S
H76 C99 0.977 . S
C77 C65 1.453 1_565 S
C77 H106 0.982 . S
C77 H107 0.979 . S
C77 H108 0.977 . S
C78 C65 1.684 . S
C78 H103 0.979 . S
C78 H104 0.980 . S
C78 H105 0.983 . S
C79 C80 1.391 . S
C79 C84 1.391 . S
C79 H109 0.948 . S
C80 C79 1.391 . S
C80 C81 1.391 . S
C81 C80 1.391 . S
C81 C82 1.392 . S
C81 H110 0.947 . S
C82 C81 1.392 . S
C82 C83 1.419 . S
C82 H111 0.948 . S
C83 C82 1.419 . S
C83 C84 1.391 . S
C83 C87 1.397 1_545 S
C84 C79 1.391 . S
C84 C83 1.391 . S
C84 C85 1.399 . S
C85 C84 1.399 . S
C85 C86 1.396 1_545 S
C85 C88 1.453 1_545 S
C85 C89 1.684 . S
C86 C67 1.723 . S
C86 C85 1.396 1_565 S
C86 C87 1.394 . S
C87 C83 1.397 1_565 S
C87 C86 1.394 . S
C87 C97 1.723 . S
C88 C85 1.453 1_565 S
C88 H112 0.982 . S
C88 H113 0.979 . S
C88 H114 0.977 . S
C89 C85 1.684 . S
C89 H115 0.979 . S
C89 H116 0.980 . S
C89 H117 0.983 . S
C90 H66 0.948 . S
C90 C91 1.391 . S
C90 C95 1.391 . S
C91 C90 1.391 . S
C91 C92 1.391 . S
C92 H69 0.947 . S
C92 C91 1.391 . S
C92 C93 1.392 . S
C93 H70 0.948 . S
C93 C92 1.392 . S
C93 C94 1.419 . S
C94 C93 1.419 . S
C94 C95 1.391 . S
C94 C98 1.397 1_545 S
C95 C90 1.391 . S
C95 C94 1.391 . S
C95 C96 1.399 . S
C96 C95 1.399 . S
C96 C97 1.396 1_545 S
C96 C99 1.453 1_545 S
C96 C100 1.684 . S
C97 C87 1.723 . S
C97 C96 1.396 1_565 S
C97 C98 1.394 . S
C98 C68 1.723 . S
C98 C94 1.397 1_565 S
C98 C97 1.394 . S
C99 H71 0.982 . S
C99 H75 0.979 . S
C99 H76 0.977 . S
C99 C96 1.453 1_565 S
C100 H72 0.979 . S
C100 H73 0.980 . S
C100 H74 0.983 . S
C100 C96 1.684 . S
H101 C119 0.948 . S
H102 C60 0.948 . S
H103 C78 0.979 . S
H104 C78 0.980 . S
H105 C78 0.983 . S
H106 C77 0.982 . S
H107 C77 0.979 . S
H108 C77 0.977 . S
H109 C79 0.948 . S
H110 C81 0.947 . S
H111 C82 0.948 . S
H112 C88 0.982 . S
H113 C88 0.979 . S
H114 C88 0.977 . S
H115 C89 0.979 . S
H116 C89 0.980 . S
H117 C89 0.983 . S
H118 C62 0.947 . S
C119 C62 1.392 . S
C119 C63 1.419 . S
C119 H101 0.948 . S
C120 C121 1.391 . S
C120 C124 1.391 . S
C120 H162 0.948 . S
C121 C120 1.391 . S
C121 C122 1.391 . S
C122 C121 1.391 . S
C122 H178 0.947 . S
C122 C179 1.392 . S
C123 C124 1.391 . S
C123 C127 1.396 1_655 S
C123 C179 1.419 . S
C124 C120 1.391 . S
C124 C123 1.391 . S
C124 C125 1.399 . S
C125 C124 1.399 . S
C125 C128 1.396 1_655 S
C125 C137 1.453 1_655 S
C125 C138 1.684 . S
H126 C150 0.948 . S
C127 C123 1.396 1_455 S
C127 C128 1.395 . S
C127 C146 1.723 . S
C128 C125 1.396 1_455 S
C128 C127 1.395 . S
C128 C158 1.723 . S
H129 C152 0.947 . S
H130 C153 0.948 . S
H131 C159 0.982 . S
H132 C160 0.979 . S
H133 C160 0.980 . S
H134 C160 0.983 . S
H135 C159 0.979 . S
H136 C159 0.977 . S
C137 C125 1.453 1_455 S
C137 H166 0.982 . S
C137 H167 0.979 . S
C137 H168 0.977 . S
C138 C125 1.684 . S
C138 H163 0.979 . S
C138 H164 0.980 . S
C138 H165 0.983 . S
C139 C140 1.391 . S
C139 C144 1.391 . S
C139 H169 0.948 . S
C140 C139 1.391 . S
C140 C141 1.391 . S
C141 C140 1.391 . S
C141 C142 1.392 . S
C141 H170 0.947 . S
C142 C141 1.392 . S
C142 C143 1.419 . S
C142 H171 0.948 . S
C143 C142 1.419 . S
C143 C144 1.391 . S
C143 C147 1.396 1_655 S
C144 C139 1.391 . S
C144 C143 1.391 . S
C144 C145 1.399 . S
C145 C144 1.399 . S
C145 C146 1.396 1_655 S
C145 C148 1.453 1_655 S
C145 C149 1.684 . S
C146 C127 1.723 . S
C146 C145 1.396 1_455 S
C146 C147 1.395 . S
C147 C143 1.396 1_455 S
C147 C146 1.395 . S
C147 C157 1.723 . S
C148 C145 1.453 1_455 S
C148 H172 0.982 . S
C148 H173 0.979 . S
C148 H174 0.977 . S
C149 C145 1.684 . S
C149 H175 0.979 . S
C149 H176 0.980 . S
C149 H177 0.983 . S
C150 H126 0.948 . S
C150 C151 1.391 . S
C150 C155 1.391 . S
C151 C150 1.391 . S
C151 C152 1.391 . S
C152 H129 0.947 . S
C152 C151 1.391 . S
C152 C153 1.392 . S
C153 H130 0.948 . S
C153 C152 1.392 . S
C153 C154 1.419 . S
C154 C153 1.419 . S
C154 C155 1.391 . S
C154 C158 1.396 1_655 S
C155 C150 1.391 . S
C155 C154 1.391 . S
C155 C156 1.399 . S
C156 C155 1.399 . S
C156 C157 1.396 1_655 S
C156 C159 1.453 1_655 S
C156 C160 1.684 . S
C157 C147 1.723 . S
C157 C156 1.396 1_455 S
C157 C158 1.395 . S
C158 C128 1.723 . S
C158 C154 1.396 1_455 S
C158 C157 1.395 . S
C159 H131 0.982 . S
C159 H135 0.979 . S
C159 H136 0.977 . S
C159 C156 1.453 1_455 S
C160 H132 0.979 . S
C160 H133 0.980 . S
C160 H134 0.983 . S
C160 C156 1.684 . S
H161 C179 0.948 . S
H162 C120 0.948 . S
H163 C138 0.979 . S
H164 C138 0.980 . S
H165 C138 0.983 . S
H166 C137 0.982 . S
H167 C137 0.979 . S
H168 C137 0.977 . S
H169 C139 0.948 . S
H170 C141 0.947 . S
H171 C142 0.948 . S
H172 C148 0.982 . S
H173 C148 0.979 . S
H174 C148 0.977 . S
H175 C149 0.979 . S
H176 C149 0.980 . S
H177 C149 0.983 . S
H178 C122 0.947 . S
C179 C122 1.392 . S
C179 C123 1.419 . S
C179 H161 0.948 . S
C180 C181 1.391 . S
C180 C184 1.391 . S
C180 H222 0.948 . S
C181 C180 1.391 . S
C181 C182 1.391 . S
C182 C181 1.391 . S
C182 H238 0.947 . S
C182 C239 1.392 . S
C183 C184 1.391 . S
C183 C187 1.397 1_545 S
C183 C239 1.419 . S
C184 C180 1.391 . S
C184 C183 1.391 . S
C184 C185 1.399 . S
C185 C184 1.399 . S
C185 C188 1.396 1_545 S
C185 C197 1.453 1_545 S
C185 C198 1.684 . S
H186 C210 0.948 . S
C187 C183 1.397 1_565 S
C187 C188 1.394 . S
C187 C206 1.723 . S
C188 C185 1.396 1_565 S
C188 C187 1.394 . S
C188 C218 1.723 . S
H189 C212 0.947 . S
H190 C213 0.948 . S
H191 C219 0.982 . S
H192 C220 0.979 . S
H193 C220 0.980 . S
H194 C220 0.983 . S
H195 C219 0.979 . S
H196 C219 0.977 . S
C197 C185 1.453 1_565 S
C197 H226 0.982 . S
C197 H227 0.979 . S
C197 H228 0.977 . S
C198 C185 1.684 . S
C198 H223 0.979 . S
C198 H224 0.980 . S
C198 H225 0.983 . S
C199 C200 1.391 . S
C199 C204 1.391 . S
C199 H229 0.948 . S
C200 C199 1.391 . S
C200 C201 1.391 . S
C201 C200 1.391 . S
C201 C202 1.392 . S
C201 H230 0.947 . S
C202 C201 1.392 . S
C202 C203 1.419 . S
C202 H231 0.948 . S
C203 C202 1.419 . S
C203 C204 1.391 . S
C203 C207 1.397 1_545 S
C204 C199 1.391 . S
C204 C203 1.391 . S
C204 C205 1.399 . S
C205 C204 1.399 . S
C205 C206 1.396 1_545 S
C205 C208 1.453 1_545 S
C205 C209 1.684 . S
C206 C187 1.723 . S
C206 C205 1.396 1_565 S
C206 C207 1.394 . S
C207 C203 1.397 1_565 S
C207 C206 1.394 . S
C207 C217 1.723 . S
C208 C205 1.453 1_565 S
C208 H232 0.982 . S
C208 H233 0.979 . S
C208 H234 0.977 . S
C209 C205 1.684 . S
C209 H235 0.979 . S
C209 H236 0.980 . S
C209 H237 0.983 . S
C210 H186 0.948 . S
C210 C211 1.391 . S
C210 C215 1.391 . S
C211 C210 1.391 . S
C211 C212 1.391 . S
C212 H189 0.947 . S
C212 C211 1.391 . S
C212 C213 1.392 . S
C213 H190 0.948 . S
C213 C212 1.392 . S
C213 C214 1.419 . S
C214 C213 1.419 . S
C214 C215 1.391 . S
C214 C218 1.397 1_545 S
C215 C210 1.391 . S
C215 C214 1.391 . S
C215 C216 1.399 . S
C216 C215 1.399 . S
C216 C217 1.396 1_545 S
C216 C219 1.453 1_545 S
C216 C220 1.684 . S
C217 C207 1.723 . S
C217 C216 1.396 1_565 S
C217 C218 1.394 . S
C218 C188 1.723 . S
C218 C214 1.397 1_565 S
C218 C217 1.394 . S
C219 H191 0.982 . S
C219 H195 0.979 . S
C219 H196 0.977 . S
C219 C216 1.453 1_565 S
C220 H192 0.979 . S
C220 H193 0.980 . S
C220 H194 0.983 . S
C220 C216 1.684 . S
H221 C239 0.948 . S
H222 C180 0.948 . S
H223 C198 0.979 . S
H224 C198 0.980 . S
H225 C198 0.983 . S
H226 C197 0.982 . S
H227 C197 0.979 . S
H228 C197 0.977 . S
H229 C199 0.948 . S
H230 C201 0.947 . S
H231 C202 0.948 . S
H232 C208 0.982 . S
H233 C208 0.979 . S
H234 C208 0.977 . S
H235 C209 0.979 . S
H236 C209 0.980 . S
H237 C209 0.983 . S
H238 C182 0.947 . S
C239 C182 1.392 . S
C239 C183 1.419 . S
C239 H221 0.948 . S
C240 C241 1.391 . S
C240 C244 1.391 . S
C240 H282 0.948 . S
C241 C240 1.391 . S
C241 C242 1.391 . S
C242 C241 1.391 . S
C242 H298 0.947 . S
C242 C299 1.392 . S
C243 C244 1.391 . S
C243 C247 1.396 1_655 S
C243 C299 1.419 . S
C244 C240 1.391 . S
C244 C243 1.391 . S
C244 C245 1.399 . S
C245 C244 1.399 . S
C245 C248 1.396 1_655 S
C245 C257 1.453 1_655 S
C245 C258 1.684 . S
H246 C270 0.948 . S
C247 C243 1.396 1_455 S
C247 C248 1.395 . S
C247 C266 1.723 . S
C248 C245 1.396 1_455 S
C248 C247 1.395 . S
C248 C278 1.723 . S
H249 C272 0.947 . S
H250 C273 0.948 . S
H251 C279 0.982 . S
H252 C280 0.979 . S
H253 C280 0.980 . S
H254 C280 0.983 . S
H255 C279 0.979 . S
H256 C279 0.977 . S
C257 C245 1.453 1_455 S
C257 H286 0.982 . S
C257 H287 0.979 . S
C257 H288 0.977 . S
C258 C245 1.684 . S
C258 H283 0.979 . S
C258 H284 0.980 . S
C258 H285 0.983 . S
C259 C260 1.391 . S
C259 C264 1.391 . S
C259 H289 0.948 . S
C260 C259 1.391 . S
C260 C261 1.391 . S
C261 C260 1.391 . S
C261 C262 1.392 . S
C261 H290 0.947 . S
C262 C261 1.392 . S
C262 C263 1.419 . S
C262 H291 0.948 . S
C263 C262 1.419 . S
C263 C264 1.391 . S
C263 C267 1.396 1_655 S
C264 C259 1.391 . S
C264 C263 1.391 . S
C264 C265 1.399 . S
C265 C264 1.399 . S
C265 C266 1.396 1_655 S
C265 C268 1.453 1_655 S
C265 C269 1.684 . S
C266 C247 1.723 . S
C266 C265 1.396 1_455 S
C266 C267 1.395 . S
C267 C263 1.396 1_455 S
C267 C266 1.395 . S
C267 C277 1.723 . S
C268 C265 1.453 1_455 S
C268 H292 0.982 . S
C268 H293 0.979 . S
C268 H294 0.977 . S
C269 C265 1.684 . S
C269 H295 0.979 . S
C269 H296 0.980 . S
C269 H297 0.983 . S
C270 H246 0.948 . S
C270 C271 1.391 . S
C270 C275 1.391 . S
C271 C270 1.391 . S
C271 C272 1.391 . S
C272 H249 0.947 . S
C272 C271 1.391 . S
C272 C273 1.392 . S
C273 H250 0.948 . S
C273 C272 1.392 . S
C273 C274 1.419 . S
C274 C273 1.419 . S
C274 C275 1.391 . S
C274 C278 1.396 1_655 S
C275 C270 1.391 . S
C275 C274 1.391 . S
C275 C276 1.399 . S
C276 C275 1.399 . S
C276 C277 1.396 1_655 S
C276 C279 1.453 1_655 S
C276 C280 1.684 . S
C277 C267 1.723 . S
C277 C276 1.396 1_455 S
C277 C278 1.395 . S
C278 C248 1.723 . S
C278 C274 1.396 1_455 S
C278 C277 1.395 . S
C279 H251 0.982 . S
C279 H255 0.979 . S
C279 H256 0.977 . S
C279 C276 1.453 1_455 S
C280 H252 0.979 . S
C280 H253 0.980 . S
C280 H254 0.983 . S
C280 C276 1.684 . S
H281 C299 0.948 . S
H282 C240 0.948 . S
H283 C258 0.979 . S
H284 C258 0.980 . S
H285 C258 0.983 . S
H286 C257 0.982 . S
H287 C257 0.979 . S
H288 C257 0.977 . S
H289 C259 0.948 . S
H290 C261 0.947 . S
H291 C262 0.948 . S
H292 C268 0.982 . S
H293 C268 0.979 . S
H294 C268 0.977 . S
H295 C269 0.979 . S
H296 C269 0.980 . S
H297 C269 0.983 . S
H298 C242 0.947 . S
C299 C242 1.392 . S
C299 C243 1.419 . S
C299 H281 0.948 . S
C300 C301 1.391 . S
C300 C304 1.391 . S
C300 H342 0.948 . S
C301 C300 1.391 . S
C301 C302 1.391 . S
C302 C301 1.391 . S
C302 H358 0.947 . S
C302 C359 1.392 . S
C303 C304 1.391 . S
C303 C307 1.396 1_565 S
C303 C359 1.419 . S
C304 C300 1.391 . S
C304 C303 1.391 . S
C304 C305 1.399 . S
C305 C304 1.399 . S
C305 C308 1.396 1_565 S
C305 C317 1.453 1_565 S
C305 C318 1.684 . S
H306 C330 0.948 . S
C307 C303 1.396 1_545 S
C307 C308 1.395 . S
C307 C326 1.723 . S
C308 C305 1.396 1_545 S
C308 C307 1.395 . S
C308 C338 1.723 . S
H309 C332 0.947 . S
H310 C333 0.948 . S
H311 C339 0.982 . S
H312 C340 0.979 . S
H313 C340 0.980 . S
H314 C340 0.983 . S
H315 C339 0.979 . S
H316 C339 0.977 . S
C317 C305 1.453 1_545 S
C317 H346 0.982 . S
C317 H347 0.979 . S
C317 H348 0.977 . S
C318 C305 1.684 . S
C318 H343 0.979 . S
C318 H344 0.980 . S
C318 H345 0.983 . S
C319 C320 1.391 . S
C319 C324 1.391 . S
C319 H349 0.948 . S
C320 C319 1.391 . S
C320 C321 1.391 . S
C321 C320 1.391 . S
C321 C322 1.392 . S
C321 H350 0.947 . S
C322 C321 1.392 . S
C322 C323 1.419 . S
C322 H351 0.948 . S
C323 C322 1.419 . S
C323 C324 1.391 . S
C323 C327 1.396 1_565 S
C324 C319 1.391 . S
C324 C323 1.391 . S
C324 C325 1.399 . S
C325 C324 1.399 . S
C325 C326 1.396 1_565 S
C325 C328 1.453 1_565 S
C325 C329 1.684 . S
C326 C307 1.723 . S
C326 C325 1.396 1_545 S
C326 C327 1.395 . S
C327 C323 1.396 1_545 S
C327 C326 1.395 . S
C327 C337 1.723 . S
C328 C325 1.453 1_545 S
C328 H352 0.982 . S
C328 H353 0.979 . S
C328 H354 0.977 . S
C329 C325 1.684 . S
C329 H355 0.979 . S
C329 H356 0.980 . S
C329 H357 0.983 . S
C330 H306 0.948 . S
C330 C331 1.391 . S
C330 C335 1.391 . S
C331 C330 1.391 . S
C331 C332 1.391 . S
C332 H309 0.947 . S
C332 C331 1.391 . S
C332 C333 1.392 . S
C333 H310 0.948 . S
C333 C332 1.392 . S
C333 C334 1.419 . S
C334 C333 1.419 . S
C334 C335 1.391 . S
C334 C338 1.396 1_565 S
C335 C330 1.391 . S
C335 C334 1.391 . S
C335 C336 1.399 . S
C336 C335 1.399 . S
C336 C337 1.396 1_565 S
C336 C339 1.453 1_565 S
C336 C340 1.684 . S
C337 C327 1.723 . S
C337 C336 1.396 1_545 S
C337 C338 1.395 . S
C338 C308 1.723 . S
C338 C334 1.396 1_545 S
C338 C337 1.395 . S
C339 H311 0.982 . S
C339 H315 0.979 . S
C339 H316 0.977 . S
C339 C336 1.453 1_545 S
C340 H312 0.979 . S
C340 H313 0.980 . S
C340 H314 0.983 . S
C340 C336 1.684 . S
H341 C359 0.948 . S
H342 C300 0.948 . S
H343 C318 0.979 . S
H344 C318 0.980 . S
H345 C318 0.983 . S
H346 C317 0.982 . S
H347 C317 0.979 . S
H348 C317 0.977 . S
H349 C319 0.948 . S
H350 C321 0.947 . S
H351 C322 0.948 . S
H352 C328 0.982 . S
H353 C328 0.979 . S
H354 C328 0.977 . S
H355 C329 0.979 . S
H356 C329 0.980 . S
H357 C329 0.983 . S
H358 C302 0.947 . S
C359 C302 1.392 . S
C359 C303 1.419 . S
C359 H341 0.948 . S
C360 C361 1.391 . S
C360 C364 1.391 . S
C360 H402 0.948 . S
C361 C360 1.391 . S
C361 C362 1.391 . S
C362 C361 1.391 . S
C362 H418 0.947 . S
C362 C419 1.392 . S
C363 C364 1.391 . S
C363 C367 1.396 1_655 S
C363 C419 1.419 . S
C364 C360 1.391 . S
C364 C363 1.391 . S
C364 C365 1.399 . S
C365 C364 1.399 . S
C365 C368 1.396 1_655 S
C365 C377 1.453 1_655 S
C365 C378 1.684 . S
H366 C390 0.948 . S
C367 C363 1.396 1_455 S
C367 C368 1.395 . S
C367 C386 1.723 . S
C368 C365 1.396 1_455 S
C368 C367 1.395 . S
C368 C398 1.723 . S
H369 C392 0.947 . S
H370 C393 0.948 . S
H371 C399 0.982 . S
H372 C400 0.979 . S
H373 C400 0.980 . S
H374 C400 0.983 . S
H375 C399 0.979 . S
H376 C399 0.977 . S
C377 C365 1.453 1_455 S
C377 H406 0.982 . S
C377 H407 0.979 . S
C377 H408 0.977 . S
C378 C365 1.684 . S
C378 H403 0.979 . S
C378 H404 0.980 . S
C378 H405 0.983 . S
C379 C380 1.391 . S
C379 C384 1.391 . S
C379 H409 0.948 . S
C380 C379 1.391 . S
C380 C381 1.391 . S
C381 C380 1.391 . S
C381 C382 1.392 . S
C381 H410 0.947 . S
C382 C381 1.392 . S
C382 C383 1.419 . S
C382 H411 0.948 . S
C383 C382 1.419 . S
C383 C384 1.391 . S
C383 C387 1.396 1_655 S
C384 C379 1.391 . S
C384 C383 1.391 . S
C384 C385 1.399 . S
C385 C384 1.399 . S
C385 C386 1.396 1_655 S
C385 C388 1.453 1_655 S
C385 C389 1.684 . S
C386 C367 1.723 . S
C386 C385 1.396 1_455 S
C386 C387 1.395 . S
C387 C383 1.396 1_455 S
C387 C386 1.395 . S
C387 C397 1.723 . S
C388 C385 1.453 1_455 S
C388 H412 0.982 . S
C388 H413 0.979 . S
C388 H414 0.977 . S
C389 C385 1.684 . S
C389 H415 0.979 . S
C389 H416 0.980 . S
C389 H417 0.983 . S
C390 H366 0.948 . S
C390 C391 1.391 . S
C390 C395 1.391 . S
C391 C390 1.391 . S
C391 C392 1.391 . S
C392 H369 0.947 . S
C392 C391 1.391 . S
C392 C393 1.392 . S
C393 H370 0.948 . S
C393 C392 1.392 . S
C393 C394 1.419 . S
C394 C393 1.419 . S
C394 C395 1.391 . S
C394 C398 1.396 1_655 S
C395 C390 1.391 . S
C395 C394 1.391 . S
C395 C396 1.399 . S
C396 C395 1.399 . S
C396 C397 1.396 1_655 S
C396 C399 1.453 1_655 S
C396 C400 1.684 . S
C397 C387 1.723 . S
C397 C396 1.396 1_455 S
C397 C398 1.395 . S
C398 C368 1.723 . S
C398 C394 1.396 1_455 S
C398 C397 1.395 . S
C399 H371 0.982 . S
C399 H375 0.979 . S
C399 H376 0.977 . S
C399 C396 1.453 1_455 S
C400 H372 0.979 . S
C400 H373 0.980 . S
C400 H374 0.983 . S
C400 C396 1.684 . S
H401 C419 0.948 . S
H402 C360 0.948 . S
H403 C378 0.979 . S
H404 C378 0.980 . S
H405 C378 0.983 . S
H406 C377 0.982 . S
H407 C377 0.979 . S
H408 C377 0.977 . S
H409 C379 0.948 . S
H410 C381 0.947 . S
H411 C382 0.948 . S
H412 C388 0.982 . S
H413 C388 0.979 . S
H414 C388 0.977 . S
H415 C389 0.979 . S
H416 C389 0.980 . S
H417 C389 0.983 . S
H418 C362 0.947 . S
C419 C362 1.392 . S
C419 C363 1.419 . S
C419 H401 0.948 . S
C420 C421 1.391 . S
C420 C424 1.391 . S
C420 H462 0.948 . S
C421 C420 1.391 . S
C421 C422 1.391 . S
C422 C421 1.391 . S
C422 H478 0.947 . S
C422 C479 1.392 . S
C423 C424 1.391 . S
C423 C427 1.396 1_565 S
C423 C479 1.419 . S
C424 C420 1.391 . S
C424 C423 1.391 . S
C424 C425 1.399 . S
C425 C424 1.399 . S
C425 C428 1.396 1_565 S
C425 C437 1.453 1_565 S
C425 C438 1.684 . S
H426 C450 0.948 . S
C427 C423 1.396 1_545 S
C427 C428 1.395 . S
C427 C446 1.723 . S
C428 C425 1.396 1_545 S
C428 C427 1.395 . S
C428 C458 1.723 . S
H429 C452 0.947 . S
H430 C453 0.948 . S
H431 C459 0.982 . S
H432 C460 0.979 . S
H433 C460 0.980 . S
H434 C460 0.983 . S
H435 C459 0.979 . S
H436 C459 0.977 . S
C437 C425 1.453 1_545 S
C437 H466 0.982 . S
C437 H467 0.979 . S
C437 H468 0.977 . S
C438 C425 1.684 . S
C438 H463 0.979 . S
C438 H464 0.980 . S
C438 H465 0.983 . S
C439 C440 1.391 . S
C439 C444 1.391 . S
C439 H469 0.948 . S
C440 C439 1.391 . S
C440 C441 1.391 . S
C441 C440 1.391 . S
C441 C442 1.392 . S
C441 H470 0.947 . S
C442 C441 1.392 . S
C442 C443 1.419 . S
C442 H471 0.948 . S
C443 C442 1.419 . S
C443 C444 1.391 . S
C443 C447 1.396 1_565 S
C444 C439 1.391 . S
C444 C443 1.391 . S
C444 C445 1.399 . S
C445 C444 1.399 . S
C445 C446 1.396 1_565 S
C445 C448 1.453 1_565 S
C445 C449 1.684 . S
C446 C427 1.723 . S
C446 C445 1.396 1_545 S
C446 C447 1.395 . S
C447 C443 1.396 1_545 S
C447 C446 1.395 . S
C447 C457 1.723 . S
C448 C445 1.453 1_545 S
C448 H472 0.982 . S
C448 H473 0.979 . S
C448 H474 0.977 . S
C449 C445 1.684 . S
C449 H475 0.979 . S
C449 H476 0.980 . S
C449 H477 0.983 . S
C450 H426 0.948 . S
C450 C451 1.391 . S
C450 C455 1.391 . S
C451 C450 1.391 . S
C451 C452 1.391 . S
C452 H429 0.947 . S
C452 C451 1.391 . S
C452 C453 1.392 . S
C453 H430 0.948 . S
C453 C452 1.392 . S
C453 C454 1.419 . S
C454 C453 1.419 . S
C454 C455 1.391 . S
C454 C458 1.396 1_565 S
C455 C450 1.391 . S
C455 C454 1.391 . S
C455 C456 1.399 . S
C456 C455 1.399 . S
C456 C457 1.396 1_565 S
C456 C459 1.453 1_565 S
C456 C460 1.684 . S
C457 C447 1.723 . S
C457 C456 1.396 1_545 S
C457 C458 1.395 . S
C458 C428 1.723 . S
C458 C454 1.396 1_545 S
C458 C457 1.395 . S
C459 H431 0.982 . S
C459 H435 0.979 . S
C459 H436 0.977 . S
C459 C456 1.453 1_545 S
C460 H432 0.979 . S
C460 H433 0.980 . S
C460 H434 0.983 . S
C460 C456 1.684 . S
H461 C479 0.948 . S
H462 C420 0.948 . S
H463 C438 0.979 . S
H464 C438 0.980 . S
H465 C438 0.983 . S
H466 C437 0.982 . S
H467 C437 0.979 . S
H468 C437 0.977 . S
H469 C439 0.948 . S
H470 C441 0.947 . S
H471 C442 0.948 . S
H472 C448 0.982 . S
H473 C448 0.979 . S
H474 C448 0.977 . S
H475 C449 0.979 . S
H476 C449 0.980 . S
H477 C449 0.983 . S
H478 C422 0.947 . S
C479 C422 1.392 . S
C479 C423 1.419 . S
C479 H461 0.948 . S
C480 C481 1.391 . S
C480 C484 1.391 . S
C480 H522 0.948 . S
C481 C480 1.391 . S
C481 C482 1.391 . S
C482 C481 1.391 . S
C482 H538 0.947 . S
C482 C539 1.392 . S
C483 C484 1.391 . S
C483 C487 1.396 1_556 S
C483 C539 1.419 . S
C484 C480 1.391 . S
C484 C483 1.391 . S
C484 C485 1.399 . S
C485 C484 1.399 . S
C485 C488 1.396 1_556 S
C485 C497 1.453 1_556 S
C485 C498 1.684 . S
H486 C510 0.948 . S
C487 C483 1.396 1_554 S
C487 C488 1.395 . S
C487 C506 1.723 . S
C488 C485 1.396 1_554 S
C488 C487 1.395 . S
C488 C518 1.723 . S
H489 C512 0.947 . S
H490 C513 0.948 . S
H491 C519 0.982 . S
H492 C520 0.979 . S
H493 C520 0.980 . S
H494 C520 0.983 . S
H495 C519 0.979 . S
H496 C519 0.977 . S
C497 C485 1.453 1_554 S
C497 H526 0.982 . S
C497 H527 0.979 . S
C497 H528 0.977 . S
C498 C485 1.684 . S
C498 H523 0.979 . S
C498 H524 0.980 . S
C498 H525 0.983 . S
C499 C500 1.391 . S
C499 C504 1.391 . S
C499 H529 0.948 . S
C500 C499 1.391 . S
C500 C501 1.391 . S
C501 C500 1.391 . S
C501 C502 1.392 . S
C501 H530 0.947 . S
C502 C501 1.392 . S
C502 C503 1.419 . S
C502 H531 0.948 . S
C503 C502 1.419 . S
C503 C504 1.391 . S
C503 C507 1.396 1_556 S
C504 C499 1.391 . S
C504 C503 1.391 . S
C504 C505 1.399 . S
C505 C504 1.399 . S
C505 C506 1.396 1_556 S
C505 C508 1.453 1_556 S
C505 C509 1.684 . S
C506 C487 1.723 . S
C506 C505 1.396 1_554 S
C506 C507 1.395 . S
C507 C503 1.396 1_554 S
C507 C506 1.395 . S
C507 C517 1.723 . S
C508 C505 1.453 1_554 S
C508 H532 0.982 . S
C508 H533 0.979 . S
C508 H534 0.977 . S
C509 C505 1.684 . S
C509 H535 0.979 . S
C509 H536 0.980 . S
C509 H537 0.983 . S
C510 H486 0.948 . S
C510 C511 1.391 . S
C510 C515 1.391 . S
C511 C510 1.391 . S
C511 C512 1.391 . S
C512 H489 0.947 . S
C512 C511 1.391 . S
C512 C513 1.392 . S
C513 H490 0.948 . S
C513 C512 1.392 . S
C513 C514 1.419 . S
C514 C513 1.419 . S
C514 C515 1.391 . S
C514 C518 1.396 1_556 S
C515 C510 1.391 . S
C515 C514 1.391 . S
C515 C516 1.399 . S
C516 C515 1.399 . S
C516 C517 1.396 1_556 S
C516 C519 1.453 1_556 S
C516 C520 1.684 . S
C517 C507 1.723 . S
C517 C516 1.396 1_554 S
C517 C518 1.395 . S
C518 C488 1.723 . S
C518 C514 1.396 1_554 S
C518 C517 1.395 . S
C519 H491 0.982 . S
C519 H495 0.979 . S
C519 H496 0.977 . S
C519 C516 1.453 1_554 S
C520 H492 0.979 . S
C520 H493 0.980 . S
C520 H494 0.983 . S
C520 C516 1.684 . S
H521 C539 0.948 . S
H522 C480 0.948 . S
H523 C498 0.979 . S
H524 C498 0.980 . S
H525 C498 0.983 . S
H526 C497 0.982 . S
H527 C497 0.979 . S
H528 C497 0.977 . S
H529 C499 0.948 . S
H530 C501 0.947 . S
H531 C502 0.948 . S
H532 C508 0.982 . S
H533 C508 0.979 . S
H534 C508 0.977 . S
H535 C509 0.979 . S
H536 C509 0.980 . S
H537 C509 0.983 . S
H538 C482 0.947 . S
C539 C482 1.392 . S
C539 C483 1.419 . S
C539 H521 0.948 . S
C540 C541 1.391 . S
C540 C544 1.391 . S
C540 H582 0.948 . S
C541 C540 1.391 . S
C541 C542 1.391 . S
C542 C541 1.391 . S
C542 H598 0.947 . S
C542 C599 1.392 . S
C543 C544 1.391 . S
C543 C547 1.397 1_554 S
C543 C599 1.419 . S
C544 C540 1.391 . S
C544 C543 1.391 . S
C544 C545 1.399 . S
C545 C544 1.399 . S
C545 C548 1.396 1_554 S
C545 C557 1.453 1_554 S
C545 C558 1.684 . S
H546 C570 0.948 . S
C547 C543 1.397 1_556 S
C547 C548 1.394 . S
C547 C566 1.723 . S
C548 C545 1.396 1_556 S
C548 C547 1.394 . S
C548 C578 1.723 . S
H549 C572 0.947 . S
H550 C573 0.948 . S
H551 C579 0.982 . S
H552 C580 0.979 . S
H553 C580 0.980 . S
H554 C580 0.983 . S
H555 C579 0.979 . S
H556 C579 0.977 . S
C557 C545 1.453 1_556 S
C557 H586 0.982 . S
C557 H587 0.979 . S
C557 H588 0.977 . S
C558 C545 1.684 . S
C558 H583 0.979 . S
C558 H584 0.980 . S
C558 H585 0.983 . S
C559 C560 1.391 . S
C559 C564 1.391 . S
C559 H589 0.948 . S
C560 C559 1.391 . S
C560 C561 1.391 . S
C561 C560 1.391 . S
C561 C562 1.392 . S
C561 H590 0.947 . S
C562 C561 1.392 . S
C562 C563 1.419 . S
C562 H591 0.948 . S
C563 C562 1.419 . S
C563 C564 1.391 . S
C563 C567 1.397 1_554 S
C564 C559 1.391 . S
C564 C563 1.391 . S
C564 C565 1.399 . S
C565 C564 1.399 . S
C565 C566 1.396 1_554 S
C565 C568 1.453 1_554 S
C565 C569 1.684 . S
C566 C547 1.723 . S
C566 C565 1.396 1_556 S
C566 C567 1.394 . S
C567 C563 1.397 1_556 S
C567 C566 1.394 . S
C567 C577 1.723 . S
C568 C565 1.453 1_556 S
C568 H592 0.982 . S
C568 H593 0.979 . S
C568 H594 0.977 . S
C569 C565 1.684 . S
C569 H595 0.979 . S
C569 H596 0.980 . S
C569 H597 0.983 . S
C570 H546 0.948 . S
C570 C571 1.391 . S
C570 C575 1.391 . S
C571 C570 1.391 . S
C571 C572 1.391 . S
C572 H549 0.947 . S
C572 C571 1.391 . S
C572 C573 1.392 . S
C573 H550 0.948 . S
C573 C572 1.392 . S
C573 C574 1.419 . S
C574 C573 1.419 . S
C574 C575 1.391 . S
C574 C578 1.397 1_554 S
C575 C570 1.391 . S
C575 C574 1.391 . S
C575 C576 1.399 . S
C576 C575 1.399 . S
C576 C577 1.396 1_554 S
C576 C579 1.453 1_554 S
C576 C580 1.684 . S
C577 C567 1.723 . S
C577 C576 1.396 1_556 S
C577 C578 1.394 . S
C578 C548 1.723 . S
C578 C574 1.397 1_556 S
C578 C577 1.394 . S
C579 H551 0.982 . S
C579 H555 0.979 . S
C579 H556 0.977 . S
C579 C576 1.453 1_556 S
C580 H552 0.979 . S
C580 H553 0.980 . S
C580 H554 0.983 . S
C580 C576 1.684 . S
H581 C599 0.948 . S
H582 C540 0.948 . S
H583 C558 0.979 . S
H584 C558 0.980 . S
H585 C558 0.983 . S
H586 C557 0.982 . S
H587 C557 0.979 . S
H588 C557 0.977 . S
H589 C559 0.948 . S
H590 C561 0.947 . S
H591 C562 0.948 . S
H592 C568 0.982 . S
H593 C568 0.979 . S
H594 C568 0.977 . S
H595 C569 0.979 . S
H596 C569 0.980 . S
H597 C569 0.983 . S
H598 C542 0.947 . S
C599 C542 1.392 . S
C599 C543 1.419 . S
C599 H581 0.948 . S
C600 C601 1.391 . S
C600 C604 1.391 . S
C600 H642 0.948 . S
C601 C600 1.391 . S
C601 C602 1.391 . S
C602 C601 1.391 . S
C602 H658 0.947 . S
C602 C659 1.392 . S
C603 C604 1.391 . S
C603 C607 1.396 1_556 S
C603 C659 1.419 . S
C604 C600 1.391 . S
C604 C603 1.391 . S
C604 C605 1.399 . S
C605 C604 1.399 . S
C605 C608 1.396 1_556 S
C605 C617 1.453 1_556 S
C605 C618 1.684 . S
H606 C630 0.948 . S
C607 C603 1.396 1_554 S
C607 C608 1.395 . S
C607 C626 1.723 . S
C608 C605 1.396 1_554 S
C608 C607 1.395 . S
C608 C638 1.723 . S
H609 C632 0.947 . S
H610 C633 0.948 . S
H611 C639 0.982 . S
H612 C640 0.979 . S
H613 C640 0.980 . S
H614 C640 0.983 . S
H615 C639 0.979 . S
H616 C639 0.977 . S
C617 C605 1.453 1_554 S
C617 H646 0.982 . S
C617 H647 0.979 . S
C617 H648 0.977 . S
C618 C605 1.684 . S
C618 H643 0.979 . S
C618 H644 0.980 . S
C618 H645 0.983 . S
C619 C620 1.391 . S
C619 C624 1.391 . S
C619 H649 0.948 . S
C620 C619 1.391 . S
C620 C621 1.391 . S
C621 C620 1.391 . S
C621 C622 1.392 . S
C621 H650 0.947 . S
C622 C621 1.392 . S
C622 C623 1.419 . S
C622 H651 0.948 . S
C623 C622 1.419 . S
C623 C624 1.391 . S
C623 C627 1.396 1_556 S
C624 C619 1.391 . S
C624 C623 1.391 . S
C624 C625 1.399 . S
C625 C624 1.399 . S
C625 C626 1.396 1_556 S
C625 C628 1.453 1_556 S
C625 C629 1.684 . S
C626 C607 1.723 . S
C626 C625 1.396 1_554 S
C626 C627 1.395 . S
C627 C623 1.396 1_554 S
C627 C626 1.395 . S
C627 C637 1.723 . S
C628 C625 1.453 1_554 S
C628 H652 0.982 . S
C628 H653 0.979 . S
C628 H654 0.977 . S
C629 C625 1.684 . S
C629 H655 0.979 . S
C629 H656 0.980 . S
C629 H657 0.983 . S
C630 H606 0.948 . S
C630 C631 1.391 . S
C630 C635 1.391 . S
C631 C630 1.391 . S
C631 C632 1.391 . S
C632 H609 0.947 . S
C632 C631 1.391 . S
C632 C633 1.392 . S
C633 H610 0.948 . S
C633 C632 1.392 . S
C633 C634 1.419 . S
C634 C633 1.419 . S
C634 C635 1.391 . S
C634 C638 1.396 1_556 S
C635 C630 1.391 . S
C635 C634 1.391 . S
C635 C636 1.399 . S
C636 C635 1.399 . S
C636 C637 1.396 1_556 S
C636 C639 1.453 1_556 S
C636 C640 1.684 . S
C637 C627 1.723 . S
C637 C636 1.396 1_554 S
C637 C638 1.395 . S
C638 C608 1.723 . S
C638 C634 1.396 1_554 S
C638 C637 1.395 . S
C639 H611 0.982 . S
C639 H615 0.979 . S
C639 H616 0.977 . S
C639 C636 1.453 1_554 S
C640 H612 0.979 . S
C640 H613 0.980 . S
C640 H614 0.983 . S
C640 C636 1.684 . S
H641 C659 0.948 . S
H642 C600 0.948 . S
H643 C618 0.979 . S
H644 C618 0.980 . S
H645 C618 0.983 . S
H646 C617 0.982 . S
H647 C617 0.979 . S
H648 C617 0.977 . S
H649 C619 0.948 . S
H650 C621 0.947 . S
H651 C622 0.948 . S
H652 C628 0.982 . S
H653 C628 0.979 . S
H654 C628 0.977 . S
H655 C629 0.979 . S
H656 C629 0.980 . S
H657 C629 0.983 . S
H658 C602 0.947 . S
C659 C602 1.392 . S
C659 C603 1.419 . S
C659 H641 0.948 . S
C660 C661 1.391 . S
C660 C664 1.391 . S
C660 H702 0.948 . S
C661 C660 1.391 . S
C661 C662 1.391 . S
C662 C661 1.391 . S
C662 H718 0.947 . S
C662 C719 1.392 . S
C663 C664 1.391 . S
C663 C667 1.397 1_554 S
C663 C719 1.419 . S
C664 C660 1.391 . S
C664 C663 1.391 . S
C664 C665 1.399 . S
C665 C664 1.399 . S
C665 C668 1.396 1_554 S
C665 C677 1.453 1_554 S
C665 C678 1.684 . S
H666 C690 0.948 . S
C667 C663 1.397 1_556 S
C667 C668 1.394 . S
C667 C686 1.723 . S
C668 C665 1.396 1_556 S
C668 C667 1.394 . S
C668 C698 1.723 . S
H669 C692 0.947 . S
H670 C693 0.948 . S
H671 C699 0.982 . S
H672 C700 0.979 . S
H673 C700 0.980 . S
H674 C700 0.983 . S
H675 C699 0.979 . S
H676 C699 0.977 . S
C677 C665 1.453 1_556 S
C677 H706 0.982 . S
C677 H707 0.979 . S
C677 H708 0.977 . S
C678 C665 1.684 . S
C678 H703 0.979 . S
C678 H704 0.980 . S
C678 H705 0.983 . S
C679 C680 1.391 . S
C679 C684 1.391 . S
C679 H709 0.948 . S
C680 C679 1.391 . S
C680 C681 1.391 . S
C681 C680 1.391 . S
C681 C682 1.392 . S
C681 H710 0.947 . S
C682 C681 1.392 . S
C682 C683 1.419 . S
C682 H711 0.948 . S
C683 C682 1.419 . S
C683 C684 1.391 . S
C683 C687 1.397 1_554 S
C684 C679 1.391 . S
C684 C683 1.391 . S
C684 C685 1.399 . S
C685 C684 1.399 . S
C685 C686 1.396 1_554 S
C685 C688 1.453 1_554 S
C685 C689 1.684 . S
C686 C667 1.723 . S
C686 C685 1.396 1_556 S
C686 C687 1.394 . S
C687 C683 1.397 1_556 S
C687 C686 1.394 . S
C687 C697 1.723 . S
C688 C685 1.453 1_556 S
C688 H712 0.982 . S
C688 H713 0.979 . S
C688 H714 0.977 . S
C689 C685 1.684 . S
C689 H715 0.979 . S
C689 H716 0.980 . S
C689 H717 0.983 . S
C690 H666 0.948 . S
C690 C691 1.391 . S
C690 C695 1.391 . S
C691 C690 1.391 . S
C691 C692 1.391 . S
C692 H669 0.947 . S
C692 C691 1.391 . S
C692 C693 1.392 . S
C693 H670 0.948 . S
C693 C692 1.392 . S
C693 C694 1.419 . S
C694 C693 1.419 . S
C694 C695 1.391 . S
C694 C698 1.397 1_554 S
C695 C690 1.391 . S
C695 C694 1.391 . S
C695 C696 1.399 . S
C696 C695 1.399 . S
C696 C697 1.396 1_554 S
C696 C699 1.453 1_554 S
C696 C700 1.684 . S
C697 C687 1.723 . S
C697 C696 1.396 1_556 S
C697 C698 1.394 . S
C698 C668 1.723 . S
C698 C694 1.397 1_556 S
C698 C697 1.394 . S
C699 H671 0.982 . S
C699 H675 0.979 . S
C699 H676 0.977 . S
C699 C696 1.453 1_556 S
C700 H672 0.979 . S
C700 H673 0.980 . S
C700 H674 0.983 . S
C700 C696 1.684 . S
H701 C719 0.948 . S
H702 C660 0.948 . S
H703 C678 0.979 . S
H704 C678 0.980 . S
H705 C678 0.983 . S
H706 C677 0.982 . S
H707 C677 0.979 . S
H708 C677 0.977 . S
H709 C679 0.948 . S
H710 C681 0.947 . S
H711 C682 0.948 . S
H712 C688 0.982 . S
H713 C688 0.979 . S
H714 C688 0.977 . S
H715 C689 0.979 . S
H716 C689 0.980 . S
H717 C689 0.983 . S
H718 C662 0.947 . S
C719 C662 1.392 . S
C719 C663 1.419 . S
C719 H701 0.948 . S
C720 C721 1.391 . S
C720 C724 1.391 . S
C720 H762 0.948 . S
C721 C720 1.391 . S
C721 C722 1.391 . S
C722 C721 1.391 . S
C722 H778 0.947 . S
C722 C779 1.392 . S
C723 C724 1.391 . S
C723 C727 1.397 . S
C723 C779 1.419 . S
C724 C720 1.391 . S
C724 C723 1.391 . S
C724 C725 1.399 . S
C725 C724 1.399 . S
C725 C728 1.396 . S
C725 C737 1.453 . S
C725 C738 1.684 . S
H726 C750 0.948 . S
C727 C723 1.397 . S
C727 C728 1.394 . S
C727 C746 1.723 . S
C728 C725 1.396 . S
C728 C727 1.394 . S
C728 C758 1.723 . S
H729 C752 0.947 . S
H730 C753 0.948 . S
H731 C759 0.982 . S
H732 C760 0.979 . S
H733 C760 0.980 . S
H734 C760 0.983 . S
H735 C759 0.979 . S
H736 C759 0.977 . S
C737 C725 1.453 . S
C737 H766 0.982 . S
C737 H767 0.979 . S
C737 H768 0.977 . S
C738 C725 1.684 . S
C738 H763 0.979 . S
C738 H764 0.980 . S
C738 H765 0.983 . S
C739 C740 1.391 . S
C739 C744 1.391 . S
C739 H769 0.948 . S
C740 C739 1.391 . S
C740 C741 1.391 . S
C741 C740 1.391 . S
C741 C742 1.392 . S
C741 H770 0.947 . S
C742 C741 1.392 . S
C742 C743 1.419 . S
C742 H771 0.948 . S
C743 C742 1.419 . S
C743 C744 1.391 . S
C743 C747 1.397 . S
C744 C739 1.391 . S
C744 C743 1.391 . S
C744 C745 1.399 . S
C745 C744 1.399 . S
C745 C746 1.396 . S
C745 C748 1.453 . S
C745 C749 1.684 . S
C746 C727 1.723 . S
C746 C745 1.396 . S
C746 C747 1.394 . S
C747 C743 1.397 . S
C747 C746 1.394 . S
C747 C757 1.723 . S
C748 C745 1.453 . S
C748 H772 0.982 . S
C748 H773 0.979 . S
C748 H774 0.977 . S
C749 C745 1.684 . S
C749 H775 0.979 . S
C749 H776 0.980 . S
C749 H777 0.983 . S
C750 H726 0.948 . S
C750 C751 1.391 . S
C750 C755 1.391 . S
C751 C750 1.391 . S
C751 C752 1.391 . S
C752 H729 0.947 . S
C752 C751 1.391 . S
C752 C753 1.392 . S
C753 H730 0.948 . S
C753 C752 1.392 . S
C753 C754 1.419 . S
C754 C753 1.419 . S
C754 C755 1.391 . S
C754 C758 1.397 . S
C755 C750 1.391 . S
C755 C754 1.391 . S
C755 C756 1.399 . S
C756 C755 1.399 . S
C756 C757 1.396 . S
C756 C759 1.453 . S
C756 C760 1.684 . S
C757 C747 1.723 . S
C757 C756 1.396 . S
C757 C758 1.394 . S
C758 C728 1.723 . S
C758 C754 1.397 . S
C758 C757 1.394 . S
C759 H731 0.982 . S
C759 H735 0.979 . S
C759 H736 0.977 . S
C759 C756 1.453 . S
C760 H732 0.979 . S
C760 H733 0.980 . S
C760 H734 0.983 . S
C760 C756 1.684 . S
H761 C779 0.948 . S
H762 C720 0.948 . S
H763 C738 0.979 . S
H764 C738 0.980 . S
H765 C738 0.983 . S
H766 C737 0.982 . S
H767 C737 0.979 . S
H768 C737 0.977 . S
H769 C739 0.948 . S
H770 C741 0.947 . S
H771 C742 0.948 . S
H772 C748 0.982 . S
H773 C748 0.979 . S
H774 C748 0.977 . S
H775 C749 0.979 . S
H776 C749 0.980 . S
H777 C749 0.983 . S
H778 C722 0.947 . S
C779 C722 1.392 . S
C779 C723 1.419 . S
C779 H761 0.948 . S
C780 C781 1.391 . S
C780 C784 1.391 . S
C780 H822 0.948 . S
C781 C780 1.391 . S
C781 C782 1.391 . S
C782 C781 1.391 . S
C782 H838 0.947 . S
C782 C839 1.392 . S
C783 C784 1.391 . S
C783 C787 1.397 . S
C783 C839 1.419 . S
C784 C780 1.391 . S
C784 C783 1.391 . S
C784 C785 1.399 . S
C785 C784 1.399 . S
C785 C788 1.396 . S
C785 C797 1.453 . S
C785 C798 1.684 . S
H786 C810 0.948 . S
C787 C783 1.397 . S
C787 C788 1.394 . S
C787 C806 1.723 . S
C788 C785 1.396 . S
C788 C787 1.394 . S
C788 C818 1.723 . S
H789 C812 0.947 . S
H790 C813 0.948 . S
H791 C819 0.982 . S
H792 C820 0.979 . S
H793 C820 0.980 . S
H794 C820 0.983 . S
H795 C819 0.979 . S
H796 C819 0.977 . S
C797 C785 1.453 . S
C797 H826 0.982 . S
C797 H827 0.979 . S
C797 H828 0.977 . S
C798 C785 1.684 . S
C798 H823 0.979 . S
C798 H824 0.980 . S
C798 H825 0.983 . S
C799 C800 1.391 . S
C799 C804 1.391 . S
C799 H829 0.948 . S
C800 C799 1.391 . S
C800 C801 1.391 . S
C801 C800 1.391 . S
C801 C802 1.392 . S
C801 H830 0.947 . S
C802 C801 1.392 . S
C802 C803 1.419 . S
C802 H831 0.948 . S
C803 C802 1.419 . S
C803 C804 1.391 . S
C803 C807 1.397 . S
C804 C799 1.391 . S
C804 C803 1.391 . S
C804 C805 1.399 . S
C805 C804 1.399 . S
C805 C806 1.396 . S
C805 C808 1.453 . S
C805 C809 1.684 . S
C806 C787 1.723 . S
C806 C805 1.396 . S
C806 C807 1.394 . S
C807 C803 1.397 . S
C807 C806 1.394 . S
C807 C817 1.723 . S
C808 C805 1.453 . S
C808 H832 0.982 . S
C808 H833 0.979 . S
C808 H834 0.977 . S
C809 C805 1.684 . S
C809 H835 0.979 . S
C809 H836 0.980 . S
C809 H837 0.983 . S
C810 H786 0.948 . S
C810 C811 1.391 . S
C810 C815 1.391 . S
C811 C810 1.391 . S
C811 C812 1.391 . S
C812 H789 0.947 . S
C812 C811 1.391 . S
C812 C813 1.392 . S
C813 H790 0.948 . S
C813 C812 1.392 . S
C813 C814 1.419 . S
C814 C813 1.419 . S
C814 C815 1.391 . S
C814 C818 1.397 . S
C815 C810 1.391 . S
C815 C814 1.391 . S
C815 C816 1.399 . S
C816 C815 1.399 . S
C816 C817 1.396 . S
C816 C819 1.453 . S
C816 C820 1.684 . S
C817 C807 1.723 . S
C817 C816 1.396 . S
C817 C818 1.394 . S
C818 C788 1.723 . S
C818 C814 1.397 . S
C818 C817 1.394 . S
C819 H791 0.982 . S
C819 H795 0.979 . S
C819 H796 0.977 . S
C819 C816 1.453 . S
C820 H792 0.979 . S
C820 H793 0.980 . S
C820 H794 0.983 . S
C820 C816 1.684 . S
H821 C839 0.948 . S
H822 C780 0.948 . S
H823 C798 0.979 . S
H824 C798 0.980 . S
H825 C798 0.983 . S
H826 C797 0.982 . S
H827 C797 0.979 . S
H828 C797 0.977 . S
H829 C799 0.948 . S
H830 C801 0.947 . S
H831 C802 0.948 . S
H832 C808 0.982 . S
H833 C808 0.979 . S
H834 C808 0.977 . S
H835 C809 0.979 . S
H836 C809 0.980 . S
H837 C809 0.983 . S
H838 C782 0.947 . S
C839 C782 1.392 . S
C839 C783 1.419 . S
C839 H821 0.948 . S
C840 C841 1.391 . S
C840 C844 1.391 . S
C840 H882 0.948 . S
C841 C840 1.391 . S
C841 C842 1.391 . S
C842 C841 1.391 . S
C842 H898 0.947 . S
C842 C899 1.392 . S
C843 C844 1.391 . S
C843 C847 1.397 . S
C843 C899 1.419 . S
C844 C840 1.391 . S
C844 C843 1.391 . S
C844 C845 1.399 . S
C845 C844 1.399 . S
C845 C848 1.396 . S
C845 C857 1.453 . S
C845 C858 1.684 . S
H846 C870 0.948 . S
C847 C843 1.397 . S
C847 C848 1.394 . S
C847 C866 1.723 . S
C848 C845 1.396 . S
C848 C847 1.394 . S
C848 C878 1.723 . S
H849 C872 0.947 . S
H850 C873 0.948 . S
H851 C879 0.982 . S
H852 C880 0.979 . S
H853 C880 0.980 . S
H854 C880 0.983 . S
H855 C879 0.979 . S
H856 C879 0.977 . S
C857 C845 1.453 . S
C857 H886 0.982 . S
C857 H887 0.979 . S
C857 H888 0.977 . S
C858 C845 1.684 . S
C858 H883 0.979 . S
C858 H884 0.980 . S
C858 H885 0.983 . S
C859 C860 1.391 . S
C859 C864 1.391 . S
C859 H889 0.948 . S
C860 C859 1.391 . S
C860 C861 1.391 . S
C861 C860 1.391 . S
C861 C862 1.392 . S
C861 H890 0.947 . S
C862 C861 1.392 . S
C862 C863 1.419 . S
C862 H891 0.948 . S
C863 C862 1.419 . S
C863 C864 1.391 . S
C863 C867 1.397 . S
C864 C859 1.391 . S
C864 C863 1.391 . S
C864 C865 1.399 . S
C865 C864 1.399 . S
C865 C866 1.396 . S
C865 C868 1.453 . S
C865 C869 1.684 . S
C866 C847 1.723 . S
C866 C865 1.396 . S
C866 C867 1.394 . S
C867 C863 1.397 . S
C867 C866 1.394 . S
C867 C877 1.723 . S
C868 C865 1.453 . S
C868 H892 0.982 . S
C868 H893 0.979 . S
C868 H894 0.977 . S
C869 C865 1.684 . S
C869 H895 0.979 . S
C869 H896 0.980 . S
C869 H897 0.983 . S
C870 H846 0.948 . S
C870 C871 1.391 . S
C870 C875 1.391 . S
C871 C870 1.391 . S
C871 C872 1.391 . S
C872 H849 0.947 . S
C872 C871 1.391 . S
C872 C873 1.392 . S
C873 H850 0.948 . S
C873 C872 1.392 . S
C873 C874 1.419 . S
C874 C873 1.419 . S
C874 C875 1.391 . S
C874 C878 1.397 . S
C875 C870 1.391 . S
C875 C874 1.391 . S
C875 C876 1.399 . S
C876 C875 1.399 . S
C876 C877 1.396 . S
C876 C879 1.453 . S
C876 C880 1.684 . S
C877 C867 1.723 . S
C877 C876 1.396 . S
C877 C878 1.394 . S
C878 C848 1.723 . S
C878 C874 1.397 . S
C878 C877 1.394 . S
C879 H851 0.982 . S
C879 H855 0.979 . S
C879 H856 0.977 . S
C879 C876 1.453 . S
C880 H852 0.979 . S
C880 H853 0.980 . S
C880 H854 0.983 . S
C880 C876 1.684 . S
H881 C899 0.948 . S
H882 C840 0.948 . S
H883 C858 0.979 . S
H884 C858 0.980 . S
H885 C858 0.983 . S
H886 C857 0.982 . S
H887 C857 0.979 . S
H888 C857 0.977 . S
H889 C859 0.948 . S
H890 C861 0.947 . S
H891 C862 0.948 . S
H892 C868 0.982 . S
H893 C868 0.979 . S
H894 C868 0.977 . S
H895 C869 0.979 . S
H896 C869 0.980 . S
H897 C869 0.983 . S
H898 C842 0.947 . S
C899 C842 1.392 . S
C899 C843 1.419 . S
C899 H881 0.948 . S
C900 C901 1.391 . S
C900 C904 1.391 . S
C900 H942 0.948 . S
C901 C900 1.391 . S
C901 C902 1.391 . S
C902 C901 1.391 . S
C902 H958 0.947 . S
C902 C959 1.392 . S
C903 C904 1.391 . S
C903 C907 1.397 . S
C903 C959 1.419 . S
C904 C900 1.391 . S
C904 C903 1.391 . S
C904 C905 1.399 . S
C905 C904 1.399 . S
C905 C908 1.396 . S
C905 C917 1.453 . S
C905 C918 1.684 . S
H906 C930 0.948 . S
C907 C903 1.397 . S
C907 C908 1.394 . S
C907 C926 1.723 . S
C908 C905 1.396 . S
C908 C907 1.394 . S
C908 C938 1.723 . S
H909 C932 0.947 . S
H910 C933 0.948 . S
H911 C939 0.982 . S
H912 C940 0.979 . S
H913 C940 0.980 . S
H914 C940 0.983 . S
H915 C939 0.979 . S
H916 C939 0.977 . S
C917 C905 1.453 . S
C917 H946 0.982 . S
C917 H947 0.979 . S
C917 H948 0.977 . S
C918 C905 1.684 . S
C918 H943 0.979 . S
C918 H944 0.980 . S
C918 H945 0.983 . S
C919 C920 1.391 . S
C919 C924 1.391 . S
C919 H949 0.948 . S
C920 C919 1.391 . S
C920 C921 1.391 . S
C921 C920 1.391 . S
C921 C922 1.392 . S
C921 H950 0.947 . S
C922 C921 1.392 . S
C922 C923 1.419 . S
C922 H951 0.948 . S
C923 C922 1.419 . S
C923 C924 1.391 . S
C923 C927 1.397 . S
C924 C919 1.391 . S
C924 C923 1.391 . S
C924 C925 1.399 . S
C925 C924 1.399 . S
C925 C926 1.396 . S
C925 C928 1.453 . S
C925 C929 1.684 . S
C926 C907 1.723 . S
C926 C925 1.396 . S
C926 C927 1.394 . S
C927 C923 1.397 . S
C927 C926 1.394 . S
C927 C937 1.723 . S
C928 C925 1.453 . S
C928 H952 0.982 . S
C928 H953 0.979 . S
C928 H954 0.977 . S
C929 C925 1.684 . S
C929 H955 0.979 . S
C929 H956 0.980 . S
C929 H957 0.983 . S
C930 H906 0.948 . S
C930 C931 1.391 . S
C930 C935 1.391 . S
C931 C930 1.391 . S
C931 C932 1.391 . S
C932 H909 0.947 . S
C932 C931 1.391 . S
C932 C933 1.392 . S
C933 H910 0.948 . S
C933 C932 1.392 . S
C933 C934 1.419 . S
C934 C933 1.419 . S
C934 C935 1.391 . S
C934 C938 1.397 . S
C935 C930 1.391 . S
C935 C934 1.391 . S
C935 C936 1.399 . S
C936 C935 1.399 . S
C936 C937 1.396 . S
C936 C939 1.453 . S
C936 C940 1.684 . S
C937 C927 1.723 . S
C937 C936 1.396 . S
C937 C938 1.394 . S
C938 C908 1.723 . S
C938 C934 1.397 . S
C938 C937 1.394 . S
C939 H911 0.982 . S
C939 H915 0.979 . S
C939 H916 0.977 . S
C939 C936 1.453 . S
C940 H912 0.979 . S
C940 H913 0.980 . S
C940 H914 0.983 . S
C940 C936 1.684 . S
H941 C959 0.948 . S
H942 C900 0.948 . S
H943 C918 0.979 . S
H944 C918 0.980 . S
H945 C918 0.983 . S
H946 C917 0.982 . S
H947 C917 0.979 . S
H948 C917 0.977 . S
H949 C919 0.948 . S
H950 C921 0.947 . S
H951 C922 0.948 . S
H952 C928 0.982 . S
H953 C928 0.979 . S
H954 C928 0.977 . S
H955 C929 0.979 . S
H956 C929 0.980 . S
H957 C929 0.983 . S
H958 C902 0.947 . S
C959 C902 1.392 . S
C959 C903 1.419 . S
C959 H941 0.948 . S
C960 C961 1.391 . S
C960 C964 1.391 . S
C960 H1002 0.948 . S
C961 C960 1.391 . S
C961 C962 1.391 . S
C962 C961 1.391 . S
C962 H1018 0.947 . S
C962 C1019 1.392 . S
C963 C964 1.391 . S
C963 C967 1.397 . S
C963 C1019 1.419 . S
C964 C960 1.391 . S
C964 C963 1.391 . S
C964 C965 1.399 . S
C965 C964 1.399 . S
C965 C968 1.396 . S
C965 C977 1.453 . S
C965 C978 1.684 . S
H966 C990 0.948 . S
C967 C963 1.397 . S
C967 C968 1.394 . S
C967 C986 1.723 . S
C968 C965 1.396 . S
C968 C967 1.394 . S
C968 C998 1.723 . S
H969 C992 0.947 . S
H970 C993 0.948 . S
H971 C999 0.982 . S
H972 C1000 0.979 . S
H973 C1000 0.980 . S
H974 C1000 0.983 . S
H975 C999 0.979 . S
H976 C999 0.977 . S
C977 C965 1.453 . S
C977 H1006 0.982 . S
C977 H1007 0.979 . S
C977 H1008 0.977 . S
C978 C965 1.684 . S
C978 H1003 0.979 . S
C978 H1004 0.980 . S
C978 H1005 0.983 . S
C979 C980 1.391 . S
C979 C984 1.391 . S
C979 H1009 0.948 . S
C980 C979 1.391 . S
C980 C981 1.391 . S
C981 C980 1.391 . S
C981 C982 1.392 . S
C981 H1010 0.947 . S
C982 C981 1.392 . S
C982 C983 1.419 . S
C982 H1011 0.948 . S
C983 C982 1.419 . S
C983 C984 1.391 . S
C983 C987 1.397 . S
C984 C979 1.391 . S
C984 C983 1.391 . S
C984 C985 1.399 . S
C985 C984 1.399 . S
C985 C986 1.396 . S
C985 C988 1.453 . S
C985 C989 1.684 . S
C986 C967 1.723 . S
C986 C985 1.396 . S
C986 C987 1.394 . S
C987 C983 1.397 . S
C987 C986 1.394 . S
C987 C997 1.723 . S
C988 C985 1.453 . S
C988 H1012 0.982 . S
C988 H1013 0.979 . S
C988 H1014 0.977 . S
C989 C985 1.684 . S
C989 H1015 0.979 . S
C989 H1016 0.980 . S
C989 H1017 0.983 . S
C990 H966 0.948 . S
C990 C991 1.391 . S
C990 C995 1.391 . S
C991 C990 1.391 . S
C991 C992 1.391 . S
C992 H969 0.947 . S
C992 C991 1.391 . S
C992 C993 1.392 . S
C993 H970 0.948 . S
C993 C992 1.392 . S
C993 C994 1.419 . S
C994 C993 1.419 . S
C994 C995 1.391 . S
C994 C998 1.397 . S
C995 C990 1.391 . S
C995 C994 1.391 . S
C995 C996 1.399 . S
C996 C995 1.399 . S
C996 C997 1.396 . S
C996 C999 1.453 . S
C996 C1000 1.684 . S
C997 C987 1.723 . S
C997 C996 1.396 . S
C997 C998 1.394 . S
C998 C968 1.723 . S
C998 C994 1.397 . S
C998 C997 1.394 . S
C999 H971 0.982 . S
C999 H975 0.979 . S
C999 H976 0.977 . S
C999 C996 1.453 . S
C1000 H972 0.979 . S
C1000 H973 0.980 . S
C1000 H974 0.983 . S
C1000 C996 1.684 . S
H1001 C1019 0.948 . S
H1002 C960 0.948 . S
H1003 C978 0.979 . S
H1004 C978 0.980 . S
H1005 C978 0.983 . S
H1006 C977 0.982 . S
H1007 C977 0.979 . S
H1008 C977 0.977 . S
H1009 C979 0.948 . S
H1010 C981 0.947 . S
H1011 C982 0.948 . S
H1012 C988 0.982 . S
H1013 C988 0.979 . S
H1014 C988 0.977 . S
H1015 C989 0.979 . S
H1016 C989 0.980 . S
H1017 C989 0.983 . S
H1018 C962 0.947 . S
C1019 C962 1.392 . S
C1019 C963 1.419 . S
C1019 H1001 0.948 . S
C1020 C1021 1.391 . S
C1020 C1024 1.391 . S
C1020 H1062 0.948 . S
C1021 C1020 1.391 . S
C1021 C1022 1.391 . S
C1022 C1021 1.391 . S
C1022 H1078 0.947 . S
C1022 C1079 1.392 . S
C1023 C1024 1.391 . S
C1023 C1027 1.397 . S
C1023 C1079 1.419 . S
C1024 C1020 1.391 . S
C1024 C1023 1.391 . S
C1024 C1025 1.399 . S
C1025 C1024 1.399 . S
C1025 C1028 1.396 . S
C1025 C1037 1.453 . S
C1025 C1038 1.684 . S
H1026 C1050 0.948 . S
C1027 C1023 1.397 . S
C1027 C1028 1.394 . S
C1027 C1046 1.723 . S
C1028 C1025 1.396 . S
C1028 C1027 1.394 . S
C1028 C1058 1.723 . S
H1029 C1052 0.947 . S
H1030 C1053 0.948 . S
H1031 C1059 0.982 . S
H1032 C1060 0.979 . S
H1033 C1060 0.980 . S
H1034 C1060 0.983 . S
H1035 C1059 0.979 . S
H1036 C1059 0.977 . S
C1037 C1025 1.453 . S
C1037 H1066 0.982 . S
C1037 H1067 0.979 . S
C1037 H1068 0.977 . S
C1038 C1025 1.684 . S
C1038 H1063 0.979 . S
C1038 H1064 0.980 . S
C1038 H1065 0.983 . S
C1039 C1040 1.391 . S
C1039 C1044 1.391 . S
C1039 H1069 0.948 . S
C1040 C1039 1.391 . S
C1040 C1041 1.391 . S
C1041 C1040 1.391 . S
C1041 C1042 1.392 . S
C1041 H1070 0.947 . S
C1042 C1041 1.392 . S
C1042 C1043 1.419 . S
C1042 H1071 0.948 . S
C1043 C1042 1.419 . S
C1043 C1044 1.391 . S
C1043 C1047 1.397 . S
C1044 C1039 1.391 . S
C1044 C1043 1.391 . S
C1044 C1045 1.399 . S
C1045 C1044 1.399 . S
C1045 C1046 1.396 . S
C1045 C1048 1.453 . S
C1045 C1049 1.684 . S
C1046 C1027 1.723 . S
C1046 C1045 1.396 . S
C1046 C1047 1.394 . S
C1047 C1043 1.397 . S
C1047 C1046 1.394 . S
C1047 C1057 1.723 . S
C1048 C1045 1.453 . S
C1048 H1072 0.982 . S
C1048 H1073 0.979 . S
C1048 H1074 0.977 . S
C1049 C1045 1.684 . S
C1049 H1075 0.979 . S
C1049 H1076 0.980 . S
C1049 H1077 0.983 . S
C1050 H1026 0.948 . S
C1050 C1051 1.391 . S
C1050 C1055 1.391 . S
C1051 C1050 1.391 . S
C1051 C1052 1.391 . S
C1052 H1029 0.947 . S
C1052 C1051 1.391 . S
C1052 C1053 1.392 . S
C1053 H1030 0.948 . S
C1053 C1052 1.392 . S
C1053 C1054 1.419 . S
C1054 C1053 1.419 . S
C1054 C1055 1.391 . S
C1054 C1058 1.397 . S
C1055 C1050 1.391 . S
C1055 C1054 1.391 . S
C1055 C1056 1.399 . S
C1056 C1055 1.399 . S
C1056 C1057 1.396 . S
C1056 C1059 1.453 . S
C1056 C1060 1.684 . S
C1057 C1047 1.723 . S
C1057 C1056 1.396 . S
C1057 C1058 1.394 . S
C1058 C1028 1.723 . S
C1058 C1054 1.397 . S
C1058 C1057 1.394 . S
C1059 H1031 0.982 . S
C1059 H1035 0.979 . S
C1059 H1036 0.977 . S
C1059 C1056 1.453 . S
C1060 H1032 0.979 . S
C1060 H1033 0.980 . S
C1060 H1034 0.983 . S
C1060 C1056 1.684 . S
H1061 C1079 0.948 . S
H1062 C1020 0.948 . S
H1063 C1038 0.979 . S
H1064 C1038 0.980 . S
H1065 C1038 0.983 . S
H1066 C1037 0.982 . S
H1067 C1037 0.979 . S
H1068 C1037 0.977 . S
H1069 C1039 0.948 . S
H1070 C1041 0.947 . S
H1071 C1042 0.948 . S
H1072 C1048 0.982 . S
H1073 C1048 0.979 . S
H1074 C1048 0.977 . S
H1075 C1049 0.979 . S
H1076 C1049 0.980 . S
H1077 C1049 0.983 . S
H1078 C1022 0.947 . S
C1079 C1022 1.392 . S
C1079 C1023 1.419 . S
C1079 H1061 0.948 . S
C1080 C1081 1.391 . S
C1080 C1084 1.391 . S
C1080 H1122 0.948 . S
C1081 C1080 1.391 . S
C1081 C1082 1.391 . S
C1082 C1081 1.391 . S
C1082 H1138 0.947 . S
C1082 C1139 1.392 . S
C1083 C1084 1.391 . S
C1083 C1087 1.397 . S
C1083 C1139 1.419 . S
C1084 C1080 1.391 . S
C1084 C1083 1.391 . S
C1084 C1085 1.399 . S
C1085 C1084 1.399 . S
C1085 C1088 1.396 . S
C1085 C1097 1.453 . S
C1085 C1098 1.684 . S
H1086 C1110 0.948 . S
C1087 C1083 1.397 . S
C1087 C1088 1.394 . S
C1087 C1106 1.723 . S
C1088 C1085 1.396 . S
C1088 C1087 1.394 . S
C1088 C1118 1.723 . S
H1089 C1112 0.947 . S
H1090 C1113 0.948 . S
H1091 C1119 0.982 . S
H1092 C1120 0.979 . S
H1093 C1120 0.980 . S
H1094 C1120 0.983 . S
H1095 C1119 0.979 . S
H1096 C1119 0.977 . S
C1097 C1085 1.453 . S
C1097 H1126 0.982 . S
C1097 H1127 0.979 . S
C1097 H1128 0.977 . S
C1098 C1085 1.684 . S
C1098 H1123 0.979 . S
C1098 H1124 0.980 . S
C1098 H1125 0.983 . S
C1099 C1100 1.391 . S
C1099 C1104 1.391 . S
C1099 H1129 0.948 . S
C1100 C1099 1.391 . S
C1100 C1101 1.391 . S
C1101 C1100 1.391 . S
C1101 C1102 1.392 . S
C1101 H1130 0.947 . S
C1102 C1101 1.392 . S
C1102 C1103 1.419 . S
C1102 H1131 0.948 . S
C1103 C1102 1.419 . S
C1103 C1104 1.391 . S
C1103 C1107 1.397 . S
C1104 C1099 1.391 . S
C1104 C1103 1.391 . S
C1104 C1105 1.399 . S
C1105 C1104 1.399 . S
C1105 C1106 1.396 . S
C1105 C1108 1.453 . S
C1105 C1109 1.684 . S
C1106 C1087 1.723 . S
C1106 C1105 1.396 . S
C1106 C1107 1.394 . S
C1107 C1103 1.397 . S
C1107 C1106 1.394 . S
C1107 C1117 1.723 . S
C1108 C1105 1.453 . S
C1108 H1132 0.982 . S
C1108 H1133 0.979 . S
C1108 H1134 0.977 . S
C1109 C1105 1.684 . S
C1109 H1135 0.979 . S
C1109 H1136 0.980 . S
C1109 H1137 0.983 . S
C1110 H1086 0.948 . S
C1110 C1111 1.391 . S
C1110 C1115 1.391 . S
C1111 C1110 1.391 . S
C1111 C1112 1.391 . S
C1112 H1089 0.947 . S
C1112 C1111 1.391 . S
C1112 C1113 1.392 . S
C1113 H1090 0.948 . S
C1113 C1112 1.392 . S
C1113 C1114 1.419 . S
C1114 C1113 1.419 . S
C1114 C1115 1.391 . S
C1114 C1118 1.397 . S
C1115 C1110 1.391 . S
C1115 C1114 1.391 . S
C1115 C1116 1.399 . S
C1116 C1115 1.399 . S
C1116 C1117 1.396 . S
C1116 C1119 1.453 . S
C1116 C1120 1.684 . S
C1117 C1107 1.723 . S
C1117 C1116 1.396 . S
C1117 C1118 1.394 . S
C1118 C1088 1.723 . S
C1118 C1114 1.397 . S
C1118 C1117 1.394 . S
C1119 H1091 0.982 . S
C1119 H1095 0.979 . S
C1119 H1096 0.977 . S
C1119 C1116 1.453 . S
C1120 H1092 0.979 . S
C1120 H1093 0.980 . S
C1120 H1094 0.983 . S
C1120 C1116 1.684 . S
H1121 C1139 0.948 . S
H1122 C1080 0.948 . S
H1123 C1098 0.979 . S
H1124 C1098 0.980 . S
H1125 C1098 0.983 . S
H1126 C1097 0.982 . S
H1127 C1097 0.979 . S
H1128 C1097 0.977 . S
H1129 C1099 0.948 . S
H1130 C1101 0.947 . S
H1131 C1102 0.948 . S
H1132 C1108 0.982 . S
H1133 C1108 0.979 . S
H1134 C1108 0.977 . S
H1135 C1109 0.979 . S
H1136 C1109 0.980 . S
H1137 C1109 0.983 . S
H1138 C1082 0.947 . S
C1139 C1082 1.392 . S
C1139 C1083 1.419 . S
C1139 H1121 0.948 . S
C1140 C1141 1.391 . S
C1140 C1144 1.391 . S
C1140 H1182 0.948 . S
C1141 C1140 1.391 . S
C1141 C1142 1.391 . S
C1142 C1141 1.391 . S
C1142 H1198 0.947 . S
C1142 C1199 1.392 . S
C1143 C1144 1.391 . S
C1143 C1147 1.397 . S
C1143 C1199 1.419 . S
C1144 C1140 1.391 . S
C1144 C1143 1.391 . S
C1144 C1145 1.399 . S
C1145 C1144 1.399 . S
C1145 C1148 1.396 . S
C1145 C1157 1.453 . S
C1145 C1158 1.684 . S
H1146 C1170 0.948 . S
C1147 C1143 1.397 . S
C1147 C1148 1.394 . S
C1147 C1166 1.723 . S
C1148 C1145 1.396 . S
C1148 C1147 1.394 . S
C1148 C1178 1.723 . S
H1149 C1172 0.947 . S
H1150 C1173 0.948 . S
H1151 C1179 0.982 . S
H1152 C1180 0.979 . S
H1153 C1180 0.980 . S
H1154 C1180 0.983 . S
H1155 C1179 0.979 . S
H1156 C1179 0.977 . S
C1157 C1145 1.453 . S
C1157 H1186 0.982 . S
C1157 H1187 0.979 . S
C1157 H1188 0.977 . S
C1158 C1145 1.684 . S
C1158 H1183 0.979 . S
C1158 H1184 0.980 . S
C1158 H1185 0.983 . S
C1159 C1160 1.391 . S
C1159 C1164 1.391 . S
C1159 H1189 0.948 . S
C1160 C1159 1.391 . S
C1160 C1161 1.391 . S
C1161 C1160 1.391 . S
C1161 C1162 1.392 . S
C1161 H1190 0.947 . S
C1162 C1161 1.392 . S
C1162 C1163 1.419 . S
C1162 H1191 0.948 . S
C1163 C1162 1.419 . S
C1163 C1164 1.391 . S
C1163 C1167 1.397 . S
C1164 C1159 1.391 . S
C1164 C1163 1.391 . S
C1164 C1165 1.399 . S
C1165 C1164 1.399 . S
C1165 C1166 1.396 . S
C1165 C1168 1.453 . S
C1165 C1169 1.684 . S
C1166 C1147 1.723 . S
C1166 C1165 1.396 . S
C1166 C1167 1.394 . S
C1167 C1163 1.397 . S
C1167 C1166 1.394 . S
C1167 C1177 1.723 . S
C1168 C1165 1.453 . S
C1168 H1192 0.982 . S
C1168 H1193 0.979 . S
C1168 H1194 0.977 . S
C1169 C1165 1.684 . S
C1169 H1195 0.979 . S
C1169 H1196 0.980 . S
C1169 H1197 0.983 . S
C1170 H1146 0.948 . S
C1170 C1171 1.391 . S
C1170 C1175 1.391 . S
C1171 C1170 1.391 . S
C1171 C1172 1.391 . S
C1172 H1149 0.947 . S
C1172 C1171 1.391 . S
C1172 C1173 1.392 . S
C1173 H1150 0.948 . S
C1173 C1172 1.392 . S
C1173 C1174 1.419 . S
C1174 C1173 1.419 . S
C1174 C1175 1.391 . S
C1174 C1178 1.397 . S
C1175 C1170 1.391 . S
C1175 C1174 1.391 . S
C1175 C1176 1.399 . S
C1176 C1175 1.399 . S
C1176 C1177 1.396 . S
C1176 C1179 1.453 . S
C1176 C1180 1.684 . S
C1177 C1167 1.723 . S
C1177 C1176 1.396 . S
C1177 C1178 1.394 . S
C1178 C1148 1.723 . S
C1178 C1174 1.397 . S
C1178 C1177 1.394 . S
C1179 H1151 0.982 . S
C1179 H1155 0.979 . S
C1179 H1156 0.977 . S
C1179 C1176 1.453 . S
C1180 H1152 0.979 . S
C1180 H1153 0.980 . S
C1180 H1154 0.983 . S
C1180 C1176 1.684 . S
H1181 C1199 0.948 . S
H1182 C1140 0.948 . S
H1183 C1158 0.979 . S
H1184 C1158 0.980 . S
H1185 C1158 0.983 . S
H1186 C1157 0.982 . S
H1187 C1157 0.979 . S
H1188 C1157 0.977 . S
H1189 C1159 0.948 . S
H1190 C1161 0.947 . S
H1191 C1162 0.948 . S
H1192 C1168 0.982 . S
H1193 C1168 0.979 . S
H1194 C1168 0.977 . S
H1195 C1169 0.979 . S
H1196 C1169 0.980 . S
H1197 C1169 0.983 . S
H1198 C1142 0.947 . S
C1199 C1142 1.392 . S
C1199 C1143 1.419 . S
C1199 H1181 0.948 . S
C1200 C1201 1.391 . S
C1200 C1204 1.391 . S
C1200 H1242 0.948 . S
C1201 C1200 1.391 . S
C1201 C1202 1.391 . S
C1202 C1201 1.391 . S
C1202 H1258 0.947 . S
C1202 C1259 1.392 . S
C1203 C1204 1.391 . S
C1203 C1207 1.397 . S
C1203 C1259 1.419 . S
C1204 C1200 1.391 . S
C1204 C1203 1.391 . S
C1204 C1205 1.399 . S
C1205 C1204 1.399 . S
C1205 C1208 1.396 . S
C1205 C1217 1.453 . S
C1205 C1218 1.684 . S
H1206 C1230 0.948 . S
C1207 C1203 1.397 . S
C1207 C1208 1.394 . S
C1207 C1226 1.723 . S
C1208 C1205 1.396 . S
C1208 C1207 1.394 . S
C1208 C1238 1.723 . S
H1209 C1232 0.947 . S
H1210 C1233 0.948 . S
H1211 C1239 0.982 . S
H1212 C1240 0.979 . S
H1213 C1240 0.980 . S
H1214 C1240 0.983 . S
H1215 C1239 0.979 . S
H1216 C1239 0.977 . S
C1217 C1205 1.453 . S
C1217 H1246 0.982 . S
C1217 H1247 0.979 . S
C1217 H1248 0.977 . S
C1218 C1205 1.684 . S
C1218 H1243 0.979 . S
C1218 H1244 0.980 . S
C1218 H1245 0.983 . S
C1219 C1220 1.391 . S
C1219 C1224 1.391 . S
C1219 H1249 0.948 . S
C1220 C1219 1.391 . S
C1220 C1221 1.391 . S
C1221 C1220 1.391 . S
C1221 C1222 1.392 . S
C1221 H1250 0.947 . S
C1222 C1221 1.392 . S
C1222 C1223 1.419 . S
C1222 H1251 0.948 . S
C1223 C1222 1.419 . S
C1223 C1224 1.391 . S
C1223 C1227 1.397 . S
C1224 C1219 1.391 . S
C1224 C1223 1.391 . S
C1224 C1225 1.399 . S
C1225 C1224 1.399 . S
C1225 C1226 1.396 . S
C1225 C1228 1.453 . S
C1225 C1229 1.684 . S
C1226 C1207 1.723 . S
C1226 C1225 1.396 . S
C1226 C1227 1.394 . S
C1227 C1223 1.397 . S
C1227 C1226 1.394 . S
C1227 C1237 1.723 . S
C1228 C1225 1.453 . S
C1228 H1252 0.982 . S
C1228 H1253 0.979 . S
C1228 H1254 0.977 . S
C1229 C1225 1.684 . S
C1229 H1255 0.979 . S
C1229 H1256 0.980 . S
C1229 H1257 0.983 . S
C1230 H1206 0.948 . S
C1230 C1231 1.391 . S
C1230 C1235 1.391 . S
C1231 C1230 1.391 . S
C1231 C1232 1.391 . S
C1232 H1209 0.947 . S
C1232 C1231 1.391 . S
C1232 C1233 1.392 . S
C1233 H1210 0.948 . S
C1233 C1232 1.392 . S
C1233 C1234 1.419 . S
C1234 C1233 1.419 . S
C1234 C1235 1.391 . S
C1234 C1238 1.397 . S
C1235 C1230 1.391 . S
C1235 C1234 1.391 . S
C1235 C1236 1.399 . S
C1236 C1235 1.399 . S
C1236 C1237 1.396 . S
C1236 C1239 1.453 . S
C1236 C1240 1.684 . S
C1237 C1227 1.723 . S
C1237 C1236 1.396 . S
C1237 C1238 1.394 . S
C1238 C1208 1.723 . S
C1238 C1234 1.397 . S
C1238 C1237 1.394 . S
C1239 H1211 0.982 . S
C1239 H1215 0.979 . S
C1239 H1216 0.977 . S
C1239 C1236 1.453 . S
C1240 H1212 0.979 . S
C1240 H1213 0.980 . S
C1240 H1214 0.983 . S
C1240 C1236 1.684 . S
H1241 C1259 0.948 . S
H1242 C1200 0.948 . S
H1243 C1218 0.979 . S
H1244 C1218 0.980 . S
H1245 C1218 0.983 . S
H1246 C1217 0.982 . S
H1247 C1217 0.979 . S
H1248 C1217 0.977 . S
H1249 C1219 0.948 . S
H1250 C1221 0.947 . S
H1251 C1222 0.948 . S
H1252 C1228 0.982 . S
H1253 C1228 0.979 . S
H1254 C1228 0.977 . S
H1255 C1229 0.979 . S
H1256 C1229 0.980 . S
H1257 C1229 0.983 . S
H1258 C1202 0.947 . S
C1259 C1202 1.392 . S
C1259 C1203 1.419 . S
C1259 H1241 0.948 . S
C1260 C1261 1.391 . S
C1260 C1264 1.391 . S
C1260 H1302 0.948 . S
C1261 C1260 1.391 . S
C1261 C1262 1.391 . S
C1262 C1261 1.391 . S
C1262 H1318 0.947 . S
C1262 C1319 1.392 . S
C1263 C1264 1.391 . S
C1263 C1267 1.397 . S
C1263 C1319 1.419 . S
C1264 C1260 1.391 . S
C1264 C1263 1.391 . S
C1264 C1265 1.399 . S
C1265 C1264 1.399 . S
C1265 C1268 1.396 . S
C1265 C1277 1.453 . S
C1265 C1278 1.684 . S
H1266 C1290 0.948 . S
C1267 C1263 1.397 . S
C1267 C1268 1.394 . S
C1267 C1286 1.723 . S
C1268 C1265 1.396 . S
C1268 C1267 1.394 . S
C1268 C1298 1.723 . S
H1269 C1292 0.947 . S
H1270 C1293 0.948 . S
H1271 C1299 0.982 . S
H1272 C1300 0.979 . S
H1273 C1300 0.980 . S
H1274 C1300 0.983 . S
H1275 C1299 0.979 . S
H1276 C1299 0.977 . S
C1277 C1265 1.453 . S
C1277 H1306 0.982 . S
C1277 H1307 0.979 . S
C1277 H1308 0.977 . S
C1278 C1265 1.684 . S
C1278 H1303 0.979 . S
C1278 H1304 0.980 . S
C1278 H1305 0.983 . S
C1279 C1280 1.391 . S
C1279 C1284 1.391 . S
C1279 H1309 0.948 . S
C1280 C1279 1.391 . S
C1280 C1281 1.391 . S
C1281 C1280 1.391 . S
C1281 C1282 1.392 . S
C1281 H1310 0.947 . S
C1282 C1281 1.392 . S
C1282 C1283 1.419 . S
C1282 H1311 0.948 . S
C1283 C1282 1.419 . S
C1283 C1284 1.391 . S
C1283 C1287 1.397 . S
C1284 C1279 1.391 . S
C1284 C1283 1.391 . S
C1284 C1285 1.399 . S
C1285 C1284 1.399 . S
C1285 C1286 1.396 . S
C1285 C1288 1.453 . S
C1285 C1289 1.684 . S
C1286 C1267 1.723 . S
C1286 C1285 1.396 . S
C1286 C1287 1.394 . S
C1287 C1283 1.397 . S
C1287 C1286 1.394 . S
C1287 C1297 1.723 . S
C1288 C1285 1.453 . S
C1288 H1312 0.982 . S
C1288 H1313 0.979 . S
C1288 H1314 0.977 . S
C1289 C1285 1.684 . S
C1289 H1315 0.979 . S
C1289 H1316 0.980 . S
C1289 H1317 0.983 . S
C1290 H1266 0.948 . S
C1290 C1291 1.391 . S
C1290 C1295 1.391 . S
C1291 C1290 1.391 . S
C1291 C1292 1.391 . S
C1292 H1269 0.947 . S
C1292 C1291 1.391 . S
C1292 C1293 1.392 . S
C1293 H1270 0.948 . S
C1293 C1292 1.392 . S
C1293 C1294 1.419 . S
C1294 C1293 1.419 . S
C1294 C1295 1.391 . S
C1294 C1298 1.397 . S
C1295 C1290 1.391 . S
C1295 C1294 1.391 . S
C1295 C1296 1.399 . S
C1296 C1295 1.399 . S
C1296 C1297 1.396 . S
C1296 C1299 1.453 . S
C1296 C1300 1.684 . S
C1297 C1287 1.723 . S
C1297 C1296 1.396 . S
C1297 C1298 1.394 . S
C1298 C1268 1.723 . S
C1298 C1294 1.397 . S
C1298 C1297 1.394 . S
C1299 H1271 0.982 . S
C1299 H1275 0.979 . S
C1299 H1276 0.977 . S
C1299 C1296 1.453 . S
C1300 H1272 0.979 . S
C1300 H1273 0.980 . S
C1300 H1274 0.983 . S
C1300 C1296 1.684 . S
H1301 C1319 0.948 . S
H1302 C1260 0.948 . S
H1303 C1278 0.979 . S
H1304 C1278 0.980 . S
H1305 C1278 0.983 . S
H1306 C1277 0.982 . S
H1307 C1277 0.979 . S
H1308 C1277 0.977 . S
H1309 C1279 0.948 . S
H1310 C1281 0.947 . S
H1311 C1282 0.948 . S
H1312 C1288 0.982 . S
H1313 C1288 0.979 . S
H1314 C1288 0.977 . S
H1315 C1289 0.979 . S
H1316 C1289 0.980 . S
H1317 C1289 0.983 . S
H1318 C1262 0.947 . S
C1319 C1262 1.392 . S
C1319 C1263 1.419 . S
C1319 H1301 0.948 . S
C1320 C1321 1.391 . S
C1320 C1324 1.391 . S
C1320 H1362 0.948 . S
C1321 C1320 1.391 . S
C1321 C1322 1.391 . S
C1322 C1321 1.391 . S
C1322 H1378 0.947 . S
C1322 C1379 1.392 . S
C1323 C1324 1.391 . S
C1323 C1327 1.397 . S
C1323 C1379 1.419 . S
C1324 C1320 1.391 . S
C1324 C1323 1.391 . S
C1324 C1325 1.399 . S
C1325 C1324 1.399 . S
C1325 C1328 1.396 . S
C1325 C1337 1.453 . S
C1325 C1338 1.684 . S
H1326 C1350 0.948 . S
C1327 C1323 1.397 . S
C1327 C1328 1.394 . S
C1327 C1346 1.723 . S
C1328 C1325 1.396 . S
C1328 C1327 1.394 . S
C1328 C1358 1.723 . S
H1329 C1352 0.947 . S
H1330 C1353 0.948 . S
H1331 C1359 0.982 . S
H1332 C1360 0.979 . S
H1333 C1360 0.980 . S
H1334 C1360 0.983 . S
H1335 C1359 0.979 . S
H1336 C1359 0.977 . S
C1337 C1325 1.453 . S
C1337 H1366 0.982 . S
C1337 H1367 0.979 . S
C1337 H1368 0.977 . S
C1338 C1325 1.684 . S
C1338 H1363 0.979 . S
C1338 H1364 0.980 . S
C1338 H1365 0.983 . S
C1339 C1340 1.391 . S
C1339 C1344 1.391 . S
C1339 H1369 0.948 . S
C1340 C1339 1.391 . S
C1340 C1341 1.391 . S
C1341 C1340 1.391 . S
C1341 C1342 1.392 . S
C1341 H1370 0.947 . S
C1342 C1341 1.392 . S
C1342 C1343 1.419 . S
C1342 H1371 0.948 . S
C1343 C1342 1.419 . S
C1343 C1344 1.391 . S
C1343 C1347 1.397 . S
C1344 C1339 1.391 . S
C1344 C1343 1.391 . S
C1344 C1345 1.399 . S
C1345 C1344 1.399 . S
C1345 C1346 1.396 . S
C1345 C1348 1.453 . S
C1345 C1349 1.684 . S
C1346 C1327 1.723 . S
C1346 C1345 1.396 . S
C1346 C1347 1.394 . S
C1347 C1343 1.397 . S
C1347 C1346 1.394 . S
C1347 C1357 1.723 . S
C1348 C1345 1.453 . S
C1348 H1372 0.982 . S
C1348 H1373 0.979 . S
C1348 H1374 0.977 . S
C1349 C1345 1.684 . S
C1349 H1375 0.979 . S
C1349 H1376 0.980 . S
C1349 H1377 0.983 . S
C1350 H1326 0.948 . S
C1350 C1351 1.391 . S
C1350 C1355 1.391 . S
C1351 C1350 1.391 . S
C1351 C1352 1.391 . S
C1352 H1329 0.947 . S
C1352 C1351 1.391 . S
C1352 C1353 1.392 . S
C1353 H1330 0.948 . S
C1353 C1352 1.392 . S
C1353 C1354 1.419 . S
C1354 C1353 1.419 . S
C1354 C1355 1.391 . S
C1354 C1358 1.397 . S
C1355 C1350 1.391 . S
C1355 C1354 1.391 . S
C1355 C1356 1.399 . S
C1356 C1355 1.399 . S
C1356 C1357 1.396 . S
C1356 C1359 1.453 . S
C1356 C1360 1.684 . S
C1357 C1347 1.723 . S
C1357 C1356 1.396 . S
C1357 C1358 1.394 . S
C1358 C1328 1.723 . S
C1358 C1354 1.397 . S
C1358 C1357 1.394 . S
C1359 H1331 0.982 . S
C1359 H1335 0.979 . S
C1359 H1336 0.977 . S
C1359 C1356 1.453 . S
C1360 H1332 0.979 . S
C1360 H1333 0.980 . S
C1360 H1334 0.983 . S
C1360 C1356 1.684 . S
H1361 C1379 0.948 . S
H1362 C1320 0.948 . S
H1363 C1338 0.979 . S
H1364 C1338 0.980 . S
H1365 C1338 0.983 . S
H1366 C1337 0.982 . S
H1367 C1337 0.979 . S
H1368 C1337 0.977 . S
H1369 C1339 0.948 . S
H1370 C1341 0.947 . S
H1371 C1342 0.948 . S
H1372 C1348 0.982 . S
H1373 C1348 0.979 . S
H1374 C1348 0.977 . S
H1375 C1349 0.979 . S
H1376 C1349 0.980 . S
H1377 C1349 0.983 . S
H1378 C1322 0.947 . S
C1379 C1322 1.392 . S
C1379 C1323 1.419 . S
C1379 H1361 0.948 . S
C1380 C1381 1.391 . S
C1380 C1384 1.391 . S
C1380 H1422 0.948 . S
C1381 C1380 1.391 . S
C1381 C1382 1.391 . S
C1382 C1381 1.391 . S
C1382 H1438 0.947 . S
C1382 C1439 1.392 . S
C1383 C1384 1.391 . S
C1383 C1387 1.397 . S
C1383 C1439 1.419 . S
C1384 C1380 1.391 . S
C1384 C1383 1.391 . S
C1384 C1385 1.399 . S
C1385 C1384 1.399 . S
C1385 C1388 1.396 . S
C1385 C1397 1.453 . S
C1385 C1398 1.684 . S
H1386 C1410 0.948 . S
C1387 C1383 1.397 . S
C1387 C1388 1.394 . S
C1387 C1406 1.723 . S
C1388 C1385 1.396 . S
C1388 C1387 1.394 . S
C1388 C1418 1.723 . S
H1389 C1412 0.947 . S
H1390 C1413 0.948 . S
H1391 C1419 0.982 . S
H1392 C1420 0.979 . S
H1393 C1420 0.980 . S
H1394 C1420 0.983 . S
H1395 C1419 0.979 . S
H1396 C1419 0.977 . S
C1397 C1385 1.453 . S
C1397 H1426 0.982 . S
C1397 H1427 0.979 . S
C1397 H1428 0.977 . S
C1398 C1385 1.684 . S
C1398 H1423 0.979 . S
C1398 H1424 0.980 . S
C1398 H1425 0.983 . S
C1399 C1400 1.391 . S
C1399 C1404 1.391 . S
C1399 H1429 0.948 . S
C1400 C1399 1.391 . S
C1400 C1401 1.391 . S
C1401 C1400 1.391 . S
C1401 C1402 1.392 . S
C1401 H1430 0.947 . S
C1402 C1401 1.392 . S
C1402 C1403 1.419 . S
C1402 H1431 0.948 . S
C1403 C1402 1.419 . S
C1403 C1404 1.391 . S
C1403 C1407 1.397 . S
C1404 C1399 1.391 . S
C1404 C1403 1.391 . S
C1404 C1405 1.399 . S
C1405 C1404 1.399 . S
C1405 C1406 1.396 . S
C1405 C1408 1.453 . S
C1405 C1409 1.684 . S
C1406 C1387 1.723 . S
C1406 C1405 1.396 . S
C1406 C1407 1.394 . S
C1407 C1403 1.397 . S
C1407 C1406 1.394 . S
C1407 C1417 1.723 . S
C1408 C1405 1.453 . S
C1408 H1432 0.982 . S
C1408 H1433 0.979 . S
C1408 H1434 0.977 . S
C1409 C1405 1.684 . S
C1409 H1435 0.979 . S
C1409 H1436 0.980 . S
C1409 H1437 0.983 . S
C1410 H1386 0.948 . S
C1410 C1411 1.391 . S
C1410 C1415 1.391 . S
C1411 C1410 1.391 . S
C1411 C1412 1.391 . S
C1412 H1389 0.947 . S
C1412 C1411 1.391 . S
C1412 C1413 1.392 . S
C1413 H1390 0.948 . S
C1413 C1412 1.392 . S
C1413 C1414 1.419 . S
C1414 C1413 1.419 . S
C1414 C1415 1.391 . S
C1414 C1418 1.397 . S
C1415 C1410 1.391 . S
C1415 C1414 1.391 . S
C1415 C1416 1.399 . S
C1416 C1415 1.399 . S
C1416 C1417 1.396 . S
C1416 C1419 1.453 . S
C1416 C1420 1.684 . S
C1417 C1407 1.723 . S
C1417 C1416 1.396 . S
C1417 C1418 1.394 . S
C1418 C1388 1.723 . S
C1418 C1414 1.397 . S
C1418 C1417 1.394 . S
C1419 H1391 0.982 . S
C1419 H1395 0.979 . S
C1419 H1396 0.977 . S
C1419 C1416 1.453 . S
C1420 H1392 0.979 . S
C1420 H1393 0.980 . S
C1420 H1394 0.983 . S
C1420 C1416 1.684 . S
H1421 C1439 0.948 . S
H1422 C1380 0.948 . S
H1423 C1398 0.979 . S
H1424 C1398 0.980 . S
H1425 C1398 0.983 . S
H1426 C1397 0.982 . S
H1427 C1397 0.979 . S
H1428 C1397 0.977 . S
H1429 C1399 0.948 . S
H1430 C1401 0.947 . S
H1431 C1402 0.948 . S
H1432 C1408 0.982 . S
H1433 C1408 0.979 . S
H1434 C1408 0.977 . S
H1435 C1409 0.979 . S
H1436 C1409 0.980 . S
H1437 C1409 0.983 . S
H1438 C1382 0.947 . S
C1439 C1382 1.392 . S
C1439 C1383 1.419 . S
C1439 H1421 0.948 . S
C1440 O1466 1.283 . S
C1440 O1484 1.283 . S
C1441 O1467 1.283 . S
C1441 O1482 1.283 . S
C1442 O1468 1.283 . S
C1442 O1485 1.283 . S
C1443 O1469 1.283 . S
C1443 O1483 1.283 . S
C1444 O1470 1.283 . S
C1444 O1479 1.283 . S
C1445 O1471 1.283 . S
C1445 O1481 1.283 . S
C1446 O1472 1.283 . S
C1446 O1478 1.283 . S
C1447 O1473 1.283 . S
C1447 O1480 1.283 . S
C1448 O1474 1.283 . S
C1448 O1489 1.283 . S
C1449 O1475 1.283 . S
C1449 O1487 1.283 . S
C1450 O1476 1.283 . S
C1450 O1488 1.283 . S
C1451 O1477 1.283 . S
C1451 O1486 1.283 . S
Eu1452 O1453 2.370 1_455 S
Eu1452 O1454 2.370 . S
Eu1452 O1457 2.370 1_455 S
Eu1452 O1458 2.370 . S
Eu1452 O1466 2.363 . S
Eu1452 O1467 2.363 . S
Eu1452 O1480 2.363 . S
Eu1452 O1481 2.363 1_455 S
O1453 Eu1452 2.370 1_655 S
O1453 Eu1455 2.370 1_565 S
O1453 Eu1460 2.370 1_665 S
O1454 Eu1452 2.370 . S
O1454 Eu1456 2.370 1_565 S
O1454 Eu1459 2.370 1_565 S
Eu1455 O1453 2.370 1_545 S
Eu1455 O1457 2.370 1_545 S
Eu1455 O1461 2.370 . S
Eu1455 O1462 2.370 . S
Eu1455 O1470 2.363 . S
Eu1455 O1471 2.363 1_545 S
Eu1455 O1486 2.363 . S
Eu1455 O1487 2.363 . S
Eu1456 O1454 2.370 1_545 S
Eu1456 O1458 2.370 1_545 S
Eu1456 O1463 2.370 . S
Eu1456 O1464 2.370 . S
Eu1456 O1472 2.363 . S
Eu1456 O1473 2.363 1_545 S
Eu1456 O1488 2.363 . S
Eu1456 O1489 2.363 . S
O1457 Eu1452 2.370 1_655 S
O1457 Eu1455 2.370 1_565 S
O1457 Eu1459 2.370 1_665 S
O1458 Eu1452 2.370 . S
O1458 Eu1456 2.370 1_565 S
O1458 Eu1460 2.370 1_565 S
Eu1459 O1454 2.370 1_545 S
Eu1459 O1457 2.370 1_445 S
Eu1459 O1461 2.370 1_455 S
Eu1459 O1464 2.370 . S
Eu1459 O1476 2.363 . S
Eu1459 O1477 2.363 1_455 S
Eu1459 O1484 2.363 1_545 S
Eu1459 O1485 2.363 . S
Eu1460 O1453 2.370 1_445 S
Eu1460 O1458 2.370 1_545 S
Eu1460 O1462 2.370 1_455 S
Eu1460 O1463 2.370 . S
Eu1460 O1474 2.363 . S
Eu1460 O1475 2.363 1_455 S
Eu1460 O1482 2.363 1_545 S
Eu1460 O1483 2.363 . S
O1461 Eu1455 2.370 . S
O1461 Eu1459 2.370 1_655 S
O1461 Eu1465 2.370 1_655 S
O1462 Eu1455 2.370 . S
O1462 Eu1460 2.370 1_655 S
O1462 Eu1465 2.370 1_655 S
O1463 Eu1456 2.370 . S
O1463 Eu1460 2.370 . S
O1463 Eu1465 2.370 . S
O1464 Eu1456 2.370 . S
O1464 Eu1459 2.370 . S
O1464 Eu1465 2.370 . S
Eu1465 O1461 2.370 1_455 S
Eu1465 O1462 2.370 1_455 S
Eu1465 O1463 2.370 . S
Eu1465 O1464 2.370 . S
Eu1465 O1468 2.363 . S
Eu1465 O1469 2.363 . S
Eu1465 O1478 2.363 . S
Eu1465 O1479 2.363 1_455 S
O1466 C1440 1.283 . S
O1466 Eu1452 2.363 . S
O1467 C1441 1.283 . S
O1467 Eu1452 2.363 . S
O1468 C1442 1.283 . S
O1468 Eu1465 2.363 . S
O1469 C1443 1.283 . S
O1469 Eu1465 2.363 . S
O1470 C1444 1.283 . S
O1470 Eu1455 2.363 . S
O1471 C1445 1.283 . S
O1471 Eu1455 2.363 1_565 S
O1472 C1446 1.283 . S
O1472 Eu1456 2.363 . S
O1473 C1447 1.283 . S
O1473 Eu1456 2.363 1_565 S
O1474 C1448 1.283 . S
O1474 Eu1460 2.363 . S
O1475 C1449 1.283 . S
O1475 Eu1460 2.363 1_655 S
O1476 C1450 1.283 . S
O1476 Eu1459 2.363 . S
O1477 C1451 1.283 . S
O1477 Eu1459 2.363 1_655 S
O1478 C1446 1.283 . S
O1478 Eu1465 2.363 . S
O1479 C1444 1.283 . S
O1479 Eu1465 2.363 1_655 S
O1480 C1447 1.283 . S
O1480 Eu1452 2.363 . S
O1481 C1445 1.283 . S
O1481 Eu1452 2.363 1_655 S
O1482 C1441 1.283 . S
O1482 Eu1460 2.363 1_565 S
O1483 C1443 1.283 . S
O1483 Eu1460 2.363 . S
O1484 C1440 1.283 . S
O1484 Eu1459 2.363 1_565 S
O1485 C1442 1.283 . S
O1485 Eu1459 2.363 . S
O1486 C1451 1.283 . S
O1486 Eu1455 2.363 . S
O1487 C1449 1.283 . S
O1487 Eu1455 2.363 . S
O1488 C1450 1.283 . S
O1488 Eu1456 2.363 . S
O1489 C1448 1.283 . S
O1489 Eu1456 2.363 . S
C1490 O1516 1.283 . S
C1490 O1534 1.283 . S
C1491 O1517 1.283 . S
C1491 O1532 1.283 . S
C1492 O1518 1.283 . S
C1492 O1535 1.283 . S
C1493 O1519 1.283 . S
C1493 O1533 1.283 . S
C1494 O1520 1.283 . S
C1494 O1529 1.283 . S
C1495 O1521 1.283 . S
C1495 O1531 1.283 . S
C1496 O1522 1.283 . S
C1496 O1528 1.283 . S
C1497 O1523 1.283 . S
C1497 O1530 1.283 . S
C1498 O1524 1.283 . S
C1498 O1539 1.283 . S
C1499 O1525 1.283 . S
C1499 O1537 1.283 . S
C1500 O1526 1.283 . S
C1500 O1538 1.283 . S
C1501 O1527 1.283 . S
C1501 O1536 1.283 . S
Eu1502 O1503 2.370 . S
Eu1502 O1504 2.370 1_545 S
Eu1502 O1507 2.370 1_545 S
Eu1502 O1508 2.370 . S
Eu1502 O1516 2.363 1_545 S
Eu1502 O1517 2.363 . S
Eu1502 O1530 2.363 . S
Eu1502 O1531 2.363 . S
O1503 Eu1502 2.370 . S
O1503 Eu1505 2.370 . S
O1503 Eu1510 2.370 . S
O1504 Eu1502 2.370 1_565 S
O1504 Eu1506 2.370 1_565 S
O1504 Eu1509 2.370 . S
Eu1505 O1503 2.370 . S
Eu1505 O1507 2.370 1_545 S
Eu1505 O1511 2.370 1_544 S
Eu1505 O1512 2.370 1_554 S
Eu1505 O1520 2.363 1_554 S
Eu1505 O1521 2.363 . S
Eu1505 O1536 2.363 1_545 S
Eu1505 O1537 2.363 . S
Eu1506 O1504 2.370 1_545 S
Eu1506 O1508 2.370 . S
Eu1506 O1513 2.370 1_554 S
Eu1506 O1514 2.370 1_544 S
Eu1506 O1522 2.363 1_554 S
Eu1506 O1523 2.363 . S
Eu1506 O1538 2.363 1_545 S
Eu1506 O1539 2.363 . S
O1507 Eu1502 2.370 1_565 S
O1507 Eu1505 2.370 1_565 S
O1507 Eu1509 2.370 . S
O1508 Eu1502 2.370 . S
O1508 Eu1506 2.370 . S
O1508 Eu1510 2.370 . S
Eu1509 O1504 2.370 . S
Eu1509 O1507 2.370 . S
Eu1509 O1511 2.370 1_554 S
Eu1509 O1514 2.370 1_554 S
Eu1509 O1526 2.363 . S
Eu1509 O1527 2.363 . S
Eu1509 O1534 2.363 . S
Eu1509 O1535 2.363 1_554 S
Eu1510 O1503 2.370 . S
Eu1510 O1508 2.370 . S
Eu1510 O1512 2.370 1_554 S
Eu1510 O1513 2.370 1_554 S
Eu1510 O1524 2.363 . S
Eu1510 O1525 2.363 . S
Eu1510 O1532 2.363 . S
Eu1510 O1533 2.363 1_554 S
O1511 Eu1505 2.370 1_566 S
O1511 Eu1509 2.370 1_556 S
O1511 Eu1515 2.370 1_565 S
O1512 Eu1505 2.370 1_556 S
O1512 Eu1510 2.370 1_556 S
O1512 Eu1515 2.370 . S
O1513 Eu1506 2.370 1_556 S
O1513 Eu1510 2.370 1_556 S
O1513 Eu1515 2.370 . S
O1514 Eu1506 2.370 1_566 S
O1514 Eu1509 2.370 1_556 S
O1514 Eu1515 2.370 1_565 S
Eu1515 O1511 2.370 1_545 S
Eu1515 O1512 2.370 . S
Eu1515 O1513 2.370 . S
Eu1515 O1514 2.370 1_545 S
Eu1515 O1518 2.363 1_545 S
Eu1515 O1519 2.363 . S
Eu1515 O1528 2.363 . S
Eu1515 O1529 2.363 . S
O1516 C1490 1.283 . S
O1516 Eu1502 2.363 1_565 S
O1517 C1491 1.283 . S
O1517 Eu1502 2.363 . S
O1518 C1492 1.283 . S
O1518 Eu1515 2.363 1_565 S
O1519 C1493 1.283 . S
O1519 Eu1515 2.363 . S
O1520 C1494 1.283 . S
O1520 Eu1505 2.363 1_556 S
O1521 C1495 1.283 . S
O1521 Eu1505 2.363 . S
O1522 C1496 1.283 . S
O1522 Eu1506 2.363 1_556 S
O1523 C1497 1.283 . S
O1523 Eu1506 2.363 . S
O1524 C1498 1.283 . S
O1524 Eu1510 2.363 . S
O1525 C1499 1.283 . S
O1525 Eu1510 2.363 . S
O1526 C1500 1.283 . S
O1526 Eu1509 2.363 . S
O1527 C1501 1.283 . S
O1527 Eu1509 2.363 . S
O1528 C1496 1.283 . S
O1528 Eu1515 2.363 . S
O1529 C1494 1.283 . S
O1529 Eu1515 2.363 . S
O1530 C1497 1.283 . S
O1530 Eu1502 2.363 . S
O1531 C1495 1.283 . S
O1531 Eu1502 2.363 . S
O1532 C1491 1.283 . S
O1532 Eu1510 2.363 . S
O1533 C1493 1.283 . S
O1533 Eu1510 2.363 1_556 S
O1534 C1490 1.283 . S
O1534 Eu1509 2.363 . S
O1535 C1492 1.283 . S
O1535 Eu1509 2.363 1_556 S
O1536 C1501 1.283 . S
O1536 Eu1505 2.363 1_565 S
O1537 C1499 1.283 . S
O1537 Eu1505 2.363 . S
O1538 C1500 1.283 . S
O1538 Eu1506 2.363 1_565 S
O1539 C1498 1.283 . S
O1539 Eu1506 2.363 . S
C1540 O1566 1.283 . S
C1540 O1584 1.283 . S
C1541 O1567 1.283 . S
C1541 O1582 1.283 . S
C1542 O1568 1.283 . S
C1542 O1585 1.283 . S
C1543 O1569 1.283 . S
C1543 O1583 1.283 . S
C1544 O1570 1.283 . S
C1544 O1579 1.283 . S
C1545 O1571 1.283 . S
C1545 O1581 1.283 . S
C1546 O1572 1.283 . S
C1546 O1578 1.283 . S
C1547 O1573 1.283 . S
C1547 O1580 1.283 . S
C1548 O1574 1.283 . S
C1548 O1589 1.283 . S
C1549 O1575 1.283 . S
C1549 O1587 1.283 . S
C1550 O1576 1.283 . S
C1550 O1588 1.283 . S
C1551 O1577 1.283 . S
C1551 O1586 1.283 . S
Eu1552 O1553 2.370 1_454 S
Eu1552 O1554 2.370 . S
Eu1552 O1557 2.370 1_455 S
Eu1552 O1558 2.370 1_554 S
Eu1552 O1566 2.363 . S
Eu1552 O1567 2.363 1_554 S
Eu1552 O1580 2.363 . S
Eu1552 O1581 2.363 1_455 S
O1553 Eu1552 2.370 1_656 S
O1553 Eu1555 2.370 1_556 S
O1553 Eu1560 2.370 1_655 S
O1554 Eu1552 2.370 . S
O1554 Eu1556 2.370 . S
O1554 Eu1559 2.370 . S
Eu1555 O1553 2.370 1_554 S
Eu1555 O1557 2.370 . S
Eu1555 O1561 2.370 . S
Eu1555 O1562 2.370 1_554 S
Eu1555 O1570 2.363 . S
Eu1555 O1571 2.363 . S
Eu1555 O1586 2.363 . S
Eu1555 O1587 2.363 1_554 S
Eu1556 O1554 2.370 . S
Eu1556 O1558 2.370 1_554 S
Eu1556 O1563 2.370 1_554 S
Eu1556 O1564 2.370 . S
Eu1556 O1572 2.363 . S
Eu1556 O1573 2.363 . S
Eu1556 O1588 2.363 . S
Eu1556 O1589 2.363 1_554 S
O1557 Eu1552 2.370 1_655 S
O1557 Eu1555 2.370 . S
O1557 Eu1559 2.370 1_655 S
O1558 Eu1552 2.370 1_556 S
O1558 Eu1556 2.370 1_556 S
O1558 Eu1560 2.370 . S
Eu1559 O1554 2.370 . S
Eu1559 O1557 2.370 1_455 S
Eu1559 O1561 2.370 1_455 S
Eu1559 O1564 2.370 . S
Eu1559 O1576 2.363 . S
Eu1559 O1577 2.363 1_455 S
Eu1559 O1584 2.363 . S
Eu1559 O1585 2.363 . S
Eu1560 O1553 2.370 1_455 S
Eu1560 O1558 2.370 . S
Eu1560 O1562 2.370 1_455 S
Eu1560 O1563 2.370 . S
Eu1560 O1574 2.363 . S
Eu1560 O1575 2.363 1_455 S
Eu1560 O1582 2.363 . S
Eu1560 O1583 2.363 . S
O1561 Eu1555 2.370 . S
O1561 Eu1559 2.370 1_655 S
O1561 Eu1565 2.370 1_655 S
O1562 Eu1555 2.370 1_556 S
O1562 Eu1560 2.370 1_655 S
O1562 Eu1565 2.370 1_656 S
O1563 Eu1556 2.370 1_556 S
O1563 Eu1560 2.370 . S
O1563 Eu1565 2.370 1_556 S
O1564 Eu1556 2.370 . S
O1564 Eu1559 2.370 . S
O1564 Eu1565 2.370 . S
Eu1565 O1561 2.370 1_455 S
Eu1565 O1562 2.370 1_454 S
Eu1565 O1563 2.370 1_554 S
Eu1565 O1564 2.370 . S
Eu1565 O1568 2.363 . S
Eu1565 O1569 2.363 1_554 S
Eu1565 O1578 2.363 . S
Eu1565 O1579 2.363 1_455 S
O1566 C1540 1.283 . S
O1566 Eu1552 2.363 . S
O1567 C1541 1.283 . S
O1567 Eu1552 2.363 1_556 S
O1568 C1542 1.283 . S
O1568 Eu1565 2.363 . S
O1569 C1543 1.283 . S
O1569 Eu1565 2.363 1_556 S
O1570 C1544 1.283 . S
O1570 Eu1555 2.363 . S
O1571 C1545 1.283 . S
O1571 Eu1555 2.363 . S
O1572 C1546 1.283 . S
O1572 Eu1556 2.363 . S
O1573 C1547 1.283 . S
O1573 Eu1556 2.363 . S
O1574 C1548 1.283 . S
O1574 Eu1560 2.363 . S
O1575 C1549 1.283 . S
O1575 Eu1560 2.363 1_655 S
O1576 C1550 1.283 . S
O1576 Eu1559 2.363 . S
O1577 C1551 1.283 . S
O1577 Eu1559 2.363 1_655 S
O1578 C1546 1.283 . S
O1578 Eu1565 2.363 . S
O1579 C1544 1.283 . S
O1579 Eu1565 2.363 1_655 S
O1580 C1547 1.283 . S
O1580 Eu1552 2.363 . S
O1581 C1545 1.283 . S
O1581 Eu1552 2.363 1_655 S
O1582 C1541 1.283 . S
O1582 Eu1560 2.363 . S
O1583 C1543 1.283 . S
O1583 Eu1560 2.363 . S
O1584 C1540 1.283 . S
O1584 Eu1559 2.363 . S
O1585 C1542 1.283 . S
O1585 Eu1559 2.363 . S
O1586 C1551 1.283 . S
O1586 Eu1555 2.363 . S
O1587 C1549 1.283 . S
O1587 Eu1555 2.363 1_556 S
O1588 C1550 1.283 . S
O1588 Eu1556 2.363 . S
O1589 C1548 1.283 . S
O1589 Eu1556 2.363 1_556 S
C1590 O1616 1.283 . S
C1590 O1634 1.283 . S
C1591 O1617 1.283 . S
C1591 O1632 1.283 . S
C1592 O1618 1.283 . S
C1592 O1635 1.283 . S
C1593 O1619 1.283 . S
C1593 O1633 1.283 . S
C1594 O1620 1.283 . S
C1594 O1629 1.283 . S
C1595 O1621 1.283 . S
C1595 O1631 1.283 . S
C1596 O1622 1.283 . S
C1596 O1628 1.283 . S
C1597 O1623 1.283 . S
C1597 O1630 1.283 . S
C1598 O1624 1.283 . S
C1598 O1639 1.283 . S
C1599 O1625 1.283 . S
C1599 O1637 1.283 . S
C1600 O1626 1.283 . S
C1600 O1638 1.283 . S
C1601 O1627 1.283 . S
C1601 O1636 1.283 . S
Eu1602 O1603 2.370 . S
Eu1602 O1604 2.370 . S
Eu1602 O1607 2.370 . S
Eu1602 O1608 2.370 . S
Eu1602 O1616 2.363 . S
Eu1602 O1617 2.363 . S
Eu1602 O1630 2.363 . S
Eu1602 O1631 2.363 . S
O1603 Eu1602 2.370 . S
O1603 Eu1605 2.370 . S
O1603 Eu1610 2.370 . S
O1604 Eu1602 2.370 . S
O1604 Eu1606 2.370 . S
O1604 Eu1609 2.370 . S
Eu1605 O1603 2.370 . S
Eu1605 O1607 2.370 . S
Eu1605 O1611 2.370 1_554 S
Eu1605 O1612 2.370 1_554 S
Eu1605 O1620 2.363 1_554 S
Eu1605 O1621 2.363 . S
Eu1605 O1636 2.363 . S
Eu1605 O1637 2.363 . S
Eu1606 O1604 2.370 . S
Eu1606 O1608 2.370 . S
Eu1606 O1613 2.370 1_554 S
Eu1606 O1614 2.370 1_554 S
Eu1606 O1622 2.363 1_554 S
Eu1606 O1623 2.363 . S
Eu1606 O1638 2.363 . S
Eu1606 O1639 2.363 . S
O1607 Eu1602 2.370 . S
O1607 Eu1605 2.370 . S
O1607 Eu1609 2.370 . S
O1608 Eu1602 2.370 . S
O1608 Eu1606 2.370 . S
O1608 Eu1610 2.370 . S
Eu1609 O1604 2.370 . S
Eu1609 O1607 2.370 . S
Eu1609 O1611 2.370 1_554 S
Eu1609 O1614 2.370 1_554 S
Eu1609 O1626 2.363 . S
Eu1609 O1627 2.363 . S
Eu1609 O1634 2.363 . S
Eu1609 O1635 2.363 1_554 S
Eu1610 O1603 2.370 . S
Eu1610 O1608 2.370 . S
Eu1610 O1612 2.370 1_554 S
Eu1610 O1613 2.370 1_554 S
Eu1610 O1624 2.363 . S
Eu1610 O1625 2.363 . S
Eu1610 O1632 2.363 . S
Eu1610 O1633 2.363 1_554 S
O1611 Eu1605 2.370 1_556 S
O1611 Eu1609 2.370 1_556 S
O1611 Eu1615 2.370 . S
O1612 Eu1605 2.370 1_556 S
O1612 Eu1610 2.370 1_556 S
O1612 Eu1615 2.370 . S
O1613 Eu1606 2.370 1_556 S
O1613 Eu1610 2.370 1_556 S
O1613 Eu1615 2.370 . S
O1614 Eu1606 2.370 1_556 S
O1614 Eu1609 2.370 1_556 S
O1614 Eu1615 2.370 . S
Eu1615 O1611 2.370 . S
Eu1615 O1612 2.370 . S
Eu1615 O1613 2.370 . S
Eu1615 O1614 2.370 . S
Eu1615 O1618 2.363 . S
Eu1615 O1619 2.363 . S
Eu1615 O1628 2.363 . S
Eu1615 O1629 2.363 . S
O1616 C1590 1.283 . S
O1616 Eu1602 2.363 . S
O1617 C1591 1.283 . S
O1617 Eu1602 2.363 . S
O1618 C1592 1.283 . S
O1618 Eu1615 2.363 . S
O1619 C1593 1.283 . S
O1619 Eu1615 2.363 . S
O1620 C1594 1.283 . S
O1620 Eu1605 2.363 1_556 S
O1621 C1595 1.283 . S
O1621 Eu1605 2.363 . S
O1622 C1596 1.283 . S
O1622 Eu1606 2.363 1_556 S
O1623 C1597 1.283 . S
O1623 Eu1606 2.363 . S
O1624 C1598 1.283 . S
O1624 Eu1610 2.363 . S
O1625 C1599 1.283 . S
O1625 Eu1610 2.363 . S
O1626 C1600 1.283 . S
O1626 Eu1609 2.363 . S
O1627 C1601 1.283 . S
O1627 Eu1609 2.363 . S
O1628 C1596 1.283 . S
O1628 Eu1615 2.363 . S
O1629 C1594 1.283 . S
O1629 Eu1615 2.363 . S
O1630 C1597 1.283 . S
O1630 Eu1602 2.363 . S
O1631 C1595 1.283 . S
O1631 Eu1602 2.363 . S
O1632 C1591 1.283 . S
O1632 Eu1610 2.363 . S
O1633 C1593 1.283 . S
O1633 Eu1610 2.363 1_556 S
O1634 C1590 1.283 . S
O1634 Eu1609 2.363 . S
O1635 C1592 1.283 . S
O1635 Eu1609 2.363 1_556 S
O1636 C1601 1.283 . S
O1636 Eu1605 2.363 . S
O1637 C1599 1.283 . S
O1637 Eu1605 2.363 . S
O1638 C1600 1.283 . S
O1638 Eu1606 2.363 . S
O1639 C1598 1.283 . S
O1639 Eu1606 2.363 . S
C1640 O1666 1.283 . S
C1640 O1684 1.283 . S
C1641 O1667 1.283 . S
C1641 O1682 1.283 . S
C1642 O1668 1.283 . S
C1642 O1685 1.283 . S
C1643 O1669 1.283 . S
C1643 O1683 1.283 . S
C1644 O1670 1.283 . S
C1644 O1679 1.283 . S
C1645 O1671 1.283 . S
C1645 O1681 1.283 . S
C1646 O1672 1.283 . S
C1646 O1678 1.283 . S
C1647 O1673 1.283 . S
C1647 O1680 1.283 . S
C1648 O1674 1.283 . S
C1648 O1689 1.283 . S
C1649 O1675 1.283 . S
C1649 O1687 1.283 . S
C1650 O1676 1.283 . S
C1650 O1688 1.283 . S
C1651 O1677 1.283 . S
C1651 O1686 1.283 . S
Eu1652 O1653 2.370 1_455 S
Eu1652 O1654 2.370 . S
Eu1652 O1657 2.370 1_455 S
Eu1652 O1658 2.370 . S
Eu1652 O1666 2.363 . S
Eu1652 O1667 2.363 . S
Eu1652 O1680 2.363 . S
Eu1652 O1681 2.363 1_455 S
O1653 Eu1652 2.370 1_655 S
O1653 Eu1655 2.370 . S
O1653 Eu1660 2.370 1_655 S
O1654 Eu1652 2.370 . S
O1654 Eu1656 2.370 . S
O1654 Eu1659 2.370 . S
Eu1655 O1653 2.370 . S
Eu1655 O1657 2.370 . S
Eu1655 O1661 2.370 . S
Eu1655 O1662 2.370 . S
Eu1655 O1670 2.363 . S
Eu1655 O1671 2.363 . S
Eu1655 O1686 2.363 . S
Eu1655 O1687 2.363 . S
Eu1656 O1654 2.370 . S
Eu1656 O1658 2.370 . S
Eu1656 O1663 2.370 . S
Eu1656 O1664 2.370 . S
Eu1656 O1672 2.363 . S
Eu1656 O1673 2.363 . S
Eu1656 O1688 2.363 . S
Eu1656 O1689 2.363 . S
O1657 Eu1652 2.370 1_655 S
O1657 Eu1655 2.370 . S
O1657 Eu1659 2.370 1_655 S
O1658 Eu1652 2.370 . S
O1658 Eu1656 2.370 . S
O1658 Eu1660 2.370 . S
Eu1659 O1654 2.370 . S
Eu1659 O1657 2.370 1_455 S
Eu1659 O1661 2.370 1_455 S
Eu1659 O1664 2.370 . S
Eu1659 O1676 2.363 . S
Eu1659 O1677 2.363 1_455 S
Eu1659 O1684 2.363 . S
Eu1659 O1685 2.363 . S
Eu1660 O1653 2.370 1_455 S
Eu1660 O1658 2.370 . S
Eu1660 O1662 2.370 1_455 S
Eu1660 O1663 2.370 . S
Eu1660 O1674 2.363 . S
Eu1660 O1675 2.363 1_455 S
Eu1660 O1682 2.363 . S
Eu1660 O1683 2.363 . S
O1661 Eu1655 2.370 . S
O1661 Eu1659 2.370 1_655 S
O1661 Eu1665 2.370 1_655 S
O1662 Eu1655 2.370 . S
O1662 Eu1660 2.370 1_655 S
O1662 Eu1665 2.370 1_655 S
O1663 Eu1656 2.370 . S
O1663 Eu1660 2.370 . S
O1663 Eu1665 2.370 . S
O1664 Eu1656 2.370 . S
O1664 Eu1659 2.370 . S
O1664 Eu1665 2.370 . S
Eu1665 O1661 2.370 1_455 S
Eu1665 O1662 2.370 1_455 S
Eu1665 O1663 2.370 . S
Eu1665 O1664 2.370 . S
Eu1665 O1668 2.363 . S
Eu1665 O1669 2.363 . S
Eu1665 O1678 2.363 . S
Eu1665 O1679 2.363 1_455 S
O1666 C1640 1.283 . S
O1666 Eu1652 2.363 . S
O1667 C1641 1.283 . S
O1667 Eu1652 2.363 . S
O1668 C1642 1.283 . S
O1668 Eu1665 2.363 . S
O1669 C1643 1.283 . S
O1669 Eu1665 2.363 . S
O1670 C1644 1.283 . S
O1670 Eu1655 2.363 . S
O1671 C1645 1.283 . S
O1671 Eu1655 2.363 . S
O1672 C1646 1.283 . S
O1672 Eu1656 2.363 . S
O1673 C1647 1.283 . S
O1673 Eu1656 2.363 . S
O1674 C1648 1.283 . S
O1674 Eu1660 2.363 . S
O1675 C1649 1.283 . S
O1675 Eu1660 2.363 1_655 S
O1676 C1650 1.283 . S
O1676 Eu1659 2.363 . S
O1677 C1651 1.283 . S
O1677 Eu1659 2.363 1_655 S
O1678 C1646 1.283 . S
O1678 Eu1665 2.363 . S
O1679 C1644 1.283 . S
O1679 Eu1665 2.363 1_655 S
O1680 C1647 1.283 . S
O1680 Eu1652 2.363 . S
O1681 C1645 1.283 . S
O1681 Eu1652 2.363 1_655 S
O1682 C1641 1.283 . S
O1682 Eu1660 2.363 . S
O1683 C1643 1.283 . S
O1683 Eu1660 2.363 . S
O1684 C1640 1.283 . S
O1684 Eu1659 2.363 . S
O1685 C1642 1.283 . S
O1685 Eu1659 2.363 . S
O1686 C1651 1.283 . S
O1686 Eu1655 2.363 . S
O1687 C1649 1.283 . S
O1687 Eu1655 2.363 . S
O1688 C1650 1.283 . S
O1688 Eu1656 2.363 . S
O1689 C1648 1.283 . S
O1689 Eu1656 2.363 . S
C1690 O1716 1.283 . S
C1690 O1734 1.283 . S
C1691 O1717 1.283 . S
C1691 O1732 1.283 . S
C1692 O1718 1.283 . S
C1692 O1735 1.283 . S
C1693 O1719 1.283 . S
C1693 O1733 1.283 . S
C1694 O1720 1.283 . S
C1694 O1729 1.283 . S
C1695 O1721 1.283 . S
C1695 O1731 1.283 . S
C1696 O1722 1.283 . S
C1696 O1728 1.283 . S
C1697 O1723 1.283 . S
C1697 O1730 1.283 . S
C1698 O1724 1.283 . S
C1698 O1739 1.283 . S
C1699 O1725 1.283 . S
C1699 O1737 1.283 . S
C1700 O1726 1.283 . S
C1700 O1738 1.283 . S
C1701 O1727 1.283 . S
C1701 O1736 1.283 . S
Eu1702 O1703 2.370 . S
Eu1702 O1704 2.370 . S
Eu1702 O1707 2.370 . S
Eu1702 O1708 2.370 . S
Eu1702 O1716 2.363 . S
Eu1702 O1717 2.363 . S
Eu1702 O1730 2.363 . S
Eu1702 O1731 2.363 . S
O1703 Eu1702 2.370 . S
O1703 Eu1705 2.370 1_565 S
O1703 Eu1710 2.370 1_565 S
O1704 Eu1702 2.370 . S
O1704 Eu1706 2.370 1_565 S
O1704 Eu1709 2.370 1_565 S
Eu1705 O1703 2.370 1_545 S
Eu1705 O1707 2.370 1_545 S
Eu1705 O1711 2.370 . S
Eu1705 O1712 2.370 . S
Eu1705 O1720 2.363 . S
Eu1705 O1721 2.363 1_545 S
Eu1705 O1736 2.363 . S
Eu1705 O1737 2.363 . S
Eu1706 O1704 2.370 1_545 S
Eu1706 O1708 2.370 1_545 S
Eu1706 O1713 2.370 . S
Eu1706 O1714 2.370 . S
Eu1706 O1722 2.363 . S
Eu1706 O1723 2.363 1_545 S
Eu1706 O1738 2.363 . S
Eu1706 O1739 2.363 . S
O1707 Eu1702 2.370 . S
O1707 Eu1705 2.370 1_565 S
O1707 Eu1709 2.370 1_565 S
O1708 Eu1702 2.370 . S
O1708 Eu1706 2.370 1_565 S
O1708 Eu1710 2.370 1_565 S
Eu1709 O1704 2.370 1_545 S
Eu1709 O1707 2.370 1_545 S
Eu1709 O1711 2.370 . S
Eu1709 O1714 2.370 . S
Eu1709 O1726 2.363 . S
Eu1709 O1727 2.363 . S
Eu1709 O1734 2.363 1_545 S
Eu1709 O1735 2.363 . S
Eu1710 O1703 2.370 1_545 S
Eu1710 O1708 2.370 1_545 S
Eu1710 O1712 2.370 . S
Eu1710 O1713 2.370 . S
Eu1710 O1724 2.363 . S
Eu1710 O1725 2.363 . S
Eu1710 O1732 2.363 1_545 S
Eu1710 O1733 2.363 . S
O1711 Eu1705 2.370 . S
O1711 Eu1709 2.370 . S
O1711 Eu1715 2.370 . S
O1712 Eu1705 2.370 . S
O1712 Eu1710 2.370 . S
O1712 Eu1715 2.370 . S
O1713 Eu1706 2.370 . S
O1713 Eu1710 2.370 . S
O1713 Eu1715 2.370 . S
O1714 Eu1706 2.370 . S
O1714 Eu1709 2.370 . S
O1714 Eu1715 2.370 . S
Eu1715 O1711 2.370 . S
Eu1715 O1712 2.370 . S
Eu1715 O1713 2.370 . S
Eu1715 O1714 2.370 . S
Eu1715 O1718 2.363 . S
Eu1715 O1719 2.363 . S
Eu1715 O1728 2.363 . S
Eu1715 O1729 2.363 . S
O1716 C1690 1.283 . S
O1716 Eu1702 2.363 . S
O1717 C1691 1.283 . S
O1717 Eu1702 2.363 . S
O1718 C1692 1.283 . S
O1718 Eu1715 2.363 . S
O1719 C1693 1.283 . S
O1719 Eu1715 2.363 . S
O1720 C1694 1.283 . S
O1720 Eu1705 2.363 . S
O1721 C1695 1.283 . S
O1721 Eu1705 2.363 1_565 S
O1722 C1696 1.283 . S
O1722 Eu1706 2.363 . S
O1723 C1697 1.283 . S
O1723 Eu1706 2.363 1_565 S
O1724 C1698 1.283 . S
O1724 Eu1710 2.363 . S
O1725 C1699 1.283 . S
O1725 Eu1710 2.363 . S
O1726 C1700 1.283 . S
O1726 Eu1709 2.363 . S
O1727 C1701 1.283 . S
O1727 Eu1709 2.363 . S
O1728 C1696 1.283 . S
O1728 Eu1715 2.363 . S
O1729 C1694 1.283 . S
O1729 Eu1715 2.363 . S
O1730 C1697 1.283 . S
O1730 Eu1702 2.363 . S
O1731 C1695 1.283 . S
O1731 Eu1702 2.363 . S
O1732 C1691 1.283 . S
O1732 Eu1710 2.363 1_565 S
O1733 C1693 1.283 . S
O1733 Eu1710 2.363 . S
O1734 C1690 1.283 . S
O1734 Eu1709 2.363 1_565 S
O1735 C1692 1.283 . S
O1735 Eu1709 2.363 . S
O1736 C1701 1.283 . S
O1736 Eu1705 2.363 . S
O1737 C1699 1.283 . S
O1737 Eu1705 2.363 . S
O1738 C1700 1.283 . S
O1738 Eu1706 2.363 . S
O1739 C1698 1.283 . S
O1739 Eu1706 2.363 . S
H1740 C1748 0.950 . S
H1741 C1753 0.950 . S
H1742 C1750 0.950 . S
H1743 C1752 0.950 . S
H1744 C1754 0.950 . S
H1745 C1756 0.950 . S
H1746 C1758 0.950 . S
H1747 C1759 0.950 . S
C1748 H1740 0.950 . S
C1748 C1749 1.386 . S
C1748 C1750 1.391 . S
C1749 C1748 1.386 . S
C1749 C1753 1.393 . S
C1750 H1742 0.950 . S
C1750 C1748 1.391 . S
C1750 C1751 1.400 . S
C1751 C1750 1.400 . S
C1751 C1752 1.398 . S
C1751 C1757 1.491 . S
C1752 H1743 0.950 . S
C1752 C1751 1.398 . S
C1752 C1753 1.391 . S
C1753 H1741 0.950 . S
C1753 C1749 1.393 . S
C1753 C1752 1.391 . S
C1754 H1744 0.950 . S
C1754 C1755 1.386 . S
C1754 C1756 1.391 . S
C1755 C1754 1.386 . S
C1755 C1759 1.393 . S
C1756 H1745 0.950 . S
C1756 C1754 1.391 . S
C1756 C1757 1.400 . S
C1757 C1751 1.491 . S
C1757 C1756 1.400 . S
C1757 C1758 1.398 . S
C1758 H1746 0.950 . S
C1758 C1757 1.398 . S
C1758 C1759 1.391 . S
C1759 H1747 0.950 . S
C1759 C1755 1.393 . S
C1759 C1758 1.391 . S
H1760 C1768 0.950 . S
H1761 C1773 0.950 . S
H1762 C1770 0.950 . S
H1763 C1772 0.950 . S
H1764 C1774 0.950 . S
H1765 C1776 0.950 . S
H1766 C1778 0.950 . S
H1767 C1779 0.950 . S
C1768 H1760 0.950 . S
C1768 C1769 1.386 . S
C1768 C1770 1.391 . S
C1769 C1768 1.386 . S
C1769 C1773 1.393 . S
C1770 H1762 0.950 . S
C1770 C1768 1.391 . S
C1770 C1771 1.400 . S
C1771 C1770 1.400 . S
C1771 C1772 1.398 . S
C1771 C1777 1.491 . S
C1772 H1763 0.950 . S
C1772 C1771 1.398 . S
C1772 C1773 1.391 . S
C1773 H1761 0.950 . S
C1773 C1769 1.393 . S
C1773 C1772 1.391 . S
C1774 H1764 0.950 . S
C1774 C1775 1.386 . S
C1774 C1776 1.391 . S
C1775 C1774 1.386 . S
C1775 C1779 1.393 . S
C1776 H1765 0.950 . S
C1776 C1774 1.391 . S
C1776 C1777 1.400 . S
C1777 C1771 1.491 . S
C1777 C1776 1.400 . S
C1777 C1778 1.398 . S
C1778 H1766 0.950 . S
C1778 C1777 1.398 . S
C1778 C1779 1.391 . S
C1779 H1767 0.950 . S
C1779 C1775 1.393 . S
C1779 C1778 1.391 . S
H1780 C1788 0.950 . S
H1781 C1793 0.950 . S
H1782 C1790 0.950 . S
H1783 C1792 0.950 . S
H1784 C1794 0.950 . S
H1785 C1796 0.950 . S
H1786 C1798 0.950 . S
H1787 C1799 0.950 . S
C1788 H1780 0.950 . S
C1788 C1789 1.386 . S
C1788 C1790 1.391 . S
C1789 C1788 1.386 . S
C1789 C1793 1.393 . S
C1790 H1782 0.950 . S
C1790 C1788 1.391 . S
C1790 C1791 1.400 . S
C1791 C1790 1.400 . S
C1791 C1792 1.398 . S
C1791 C1797 1.491 . S
C1792 H1783 0.950 . S
C1792 C1791 1.398 . S
C1792 C1793 1.391 . S
C1793 H1781 0.950 . S
C1793 C1789 1.393 . S
C1793 C1792 1.391 . S
C1794 H1784 0.950 . S
C1794 C1795 1.386 . S
C1794 C1796 1.391 . S
C1795 C1794 1.386 . S
C1795 C1799 1.393 . S
C1796 H1785 0.950 . S
C1796 C1794 1.391 . S
C1796 C1797 1.400 . S
C1797 C1791 1.491 . S
C1797 C1796 1.400 . S
C1797 C1798 1.398 . S
C1798 H1786 0.950 . S
C1798 C1797 1.398 . S
C1798 C1799 1.391 . S
C1799 H1787 0.950 . S
C1799 C1795 1.393 . S
C1799 C1798 1.391 . S
H1800 C1808 0.950 . S
H1801 C1813 0.950 . S
H1802 C1810 0.950 . S
H1803 C1812 0.950 . S
H1804 C1814 0.950 . S
H1805 C1816 0.950 . S
H1806 C1818 0.950 . S
H1807 C1819 0.950 . S
C1808 H1800 0.950 . S
C1808 C1809 1.386 . S
C1808 C1810 1.391 . S
C1809 C1808 1.386 . S
C1809 C1813 1.393 . S
C1810 H1802 0.950 . S
C1810 C1808 1.391 . S
C1810 C1811 1.400 . S
C1811 C1810 1.400 . S
C1811 C1812 1.398 . S
C1811 C1817 1.491 . S
C1812 H1803 0.950 . S
C1812 C1811 1.398 . S
C1812 C1813 1.391 . S
C1813 H1801 0.950 . S
C1813 C1809 1.393 . S
C1813 C1812 1.391 . S
C1814 H1804 0.950 . S
C1814 C1815 1.386 . S
C1814 C1816 1.391 . S
C1815 C1814 1.386 . S
C1815 C1819 1.393 . S
C1816 H1805 0.950 . S
C1816 C1814 1.391 . S
C1816 C1817 1.400 . S
C1817 C1811 1.491 . S
C1817 C1816 1.400 . S
C1817 C1818 1.398 . S
C1818 H1806 0.950 . S
C1818 C1817 1.398 . S
C1818 C1819 1.391 . S
C1819 H1807 0.950 . S
C1819 C1815 1.393 . S
C1819 C1818 1.391 . S
H1820 C1828 0.950 . S
H1821 C1833 0.950 . S
H1822 C1830 0.950 . S
H1823 C1832 0.950 . S
H1824 C1834 0.950 . S
H1825 C1836 0.950 . S
H1826 C1838 0.950 . S
H1827 C1839 0.950 . S
C1828 H1820 0.950 . S
C1828 C1829 1.386 . S
C1828 C1830 1.391 . S
C1829 C1828 1.386 . S
C1829 C1833 1.393 . S
C1830 H1822 0.950 . S
C1830 C1828 1.391 . S
C1830 C1831 1.400 . S
C1831 C1830 1.400 . S
C1831 C1832 1.398 . S
C1831 C1837 1.491 . S
C1832 H1823 0.950 . S
C1832 C1831 1.398 . S
C1832 C1833 1.391 . S
C1833 H1821 0.950 . S
C1833 C1829 1.393 . S
C1833 C1832 1.391 . S
C1834 H1824 0.950 . S
C1834 C1835 1.386 . S
C1834 C1836 1.391 . S
C1835 C1834 1.386 . S
C1835 C1839 1.393 . S
C1836 H1825 0.950 . S
C1836 C1834 1.391 . S
C1836 C1837 1.400 . S
C1837 C1831 1.491 . S
C1837 C1836 1.400 . S
C1837 C1838 1.398 . S
C1838 H1826 0.950 . S
C1838 C1837 1.398 . S
C1838 C1839 1.391 . S
C1839 H1827 0.950 . S
C1839 C1835 1.393 . S
C1839 C1838 1.391 . S
H1840 C1848 0.950 . S
H1841 C1853 0.950 . S
H1842 C1850 0.950 . S
H1843 C1852 0.950 . S
H1844 C1854 0.950 . S
H1845 C1856 0.950 . S
H1846 C1858 0.950 . S
H1847 C1859 0.950 . S
C1848 H1840 0.950 . S
C1848 C1849 1.386 . S
C1848 C1850 1.391 . S
C1849 C1848 1.386 . S
C1849 C1853 1.393 . S
C1850 H1842 0.950 . S
C1850 C1848 1.391 . S
C1850 C1851 1.400 . S
C1851 C1850 1.400 . S
C1851 C1852 1.398 . S
C1851 C1857 1.491 . S
C1852 H1843 0.950 . S
C1852 C1851 1.398 . S
C1852 C1853 1.391 . S
C1853 H1841 0.950 . S
C1853 C1849 1.393 . S
C1853 C1852 1.391 . S
C1854 H1844 0.950 . S
C1854 C1855 1.386 . S
C1854 C1856 1.391 . S
C1855 C1854 1.386 . S
C1855 C1859 1.393 . S
C1856 H1845 0.950 . S
C1856 C1854 1.391 . S
C1856 C1857 1.400 . S
C1857 C1851 1.491 . S
C1857 C1856 1.400 . S
C1857 C1858 1.398 . S
C1858 H1846 0.950 . S
C1858 C1857 1.398 . S
C1858 C1859 1.391 . S
C1859 H1847 0.950 . S
C1859 C1855 1.393 . S
C1859 C1858 1.391 . S
H1860 C1868 0.950 . S
H1861 C1873 0.950 . S
H1862 C1870 0.950 . S
H1863 C1872 0.950 . S
H1864 C1874 0.950 . S
H1865 C1876 0.950 . S
H1866 C1878 0.950 . S
H1867 C1879 0.950 . S
C1868 H1860 0.950 . S
C1868 C1869 1.386 . S
C1868 C1870 1.391 . S
C1869 C1868 1.386 . S
C1869 C1873 1.393 . S
C1870 H1862 0.950 . S
C1870 C1868 1.391 . S
C1870 C1871 1.400 . S
C1871 C1870 1.400 . S
C1871 C1872 1.398 . S
C1871 C1877 1.491 . S
C1872 H1863 0.950 . S
C1872 C1871 1.398 . S
C1872 C1873 1.391 . S
C1873 H1861 0.950 . S
C1873 C1869 1.393 . S
C1873 C1872 1.391 . S
C1874 H1864 0.950 . S
C1874 C1875 1.386 . S
C1874 C1876 1.391 . S
C1875 C1874 1.386 . S
C1875 C1879 1.393 . S
C1876 H1865 0.950 . S
C1876 C1874 1.391 . S
C1876 C1877 1.400 . S
C1877 C1871 1.491 . S
C1877 C1876 1.400 . S
C1877 C1878 1.398 . S
C1878 H1866 0.950 . S
C1878 C1877 1.398 . S
C1878 C1879 1.391 . S
C1879 H1867 0.950 . S
C1879 C1875 1.393 . S
C1879 C1878 1.391 . S
H1880 C1888 0.950 . S
H1881 C1893 0.950 . S
H1882 C1890 0.950 . S
H1883 C1892 0.950 . S
H1884 C1894 0.950 . S
H1885 C1896 0.950 . S
H1886 C1898 0.950 . S
H1887 C1899 0.950 . S
C1888 H1880 0.950 . S
C1888 C1889 1.386 . S
C1888 C1890 1.391 . S
C1889 C1888 1.386 . S
C1889 C1893 1.393 . S
C1890 H1882 0.950 . S
C1890 C1888 1.391 . S
C1890 C1891 1.400 . S
C1891 C1890 1.400 . S
C1891 C1892 1.398 . S
C1891 C1897 1.491 . S
C1892 H1883 0.950 . S
C1892 C1891 1.398 . S
C1892 C1893 1.391 . S
C1893 H1881 0.950 . S
C1893 C1889 1.393 . S
C1893 C1892 1.391 . S
C1894 H1884 0.950 . S
C1894 C1895 1.386 . S
C1894 C1896 1.391 . S
C1895 C1894 1.386 . S
C1895 C1899 1.393 . S
C1896 H1885 0.950 . S
C1896 C1894 1.391 . S
C1896 C1897 1.400 . S
C1897 C1891 1.491 . S
C1897 C1896 1.400 . S
C1897 C1898 1.398 . S
C1898 H1886 0.950 . S
C1898 C1897 1.398 . S
C1898 C1899 1.391 . S
C1899 H1887 0.950 . S
C1899 C1895 1.393 . S
C1899 C1898 1.391 . S
H1900 C1908 0.950 . S
H1901 C1913 0.950 . S
H1902 C1910 0.950 . S
H1903 C1912 0.950 . S
H1904 C1914 0.950 . S
H1905 C1916 0.950 . S
H1906 C1918 0.950 . S
H1907 C1919 0.950 . S
C1908 H1900 0.950 . S
C1908 C1909 1.386 . S
C1908 C1910 1.391 . S
C1909 C1908 1.386 . S
C1909 C1913 1.393 . S
C1910 H1902 0.950 . S
C1910 C1908 1.391 . S
C1910 C1911 1.400 . S
C1911 C1910 1.400 . S
C1911 C1912 1.398 . S
C1911 C1917 1.491 . S
C1912 H1903 0.950 . S
C1912 C1911 1.398 . S
C1912 C1913 1.391 . S
C1913 H1901 0.950 . S
C1913 C1909 1.393 . S
C1913 C1912 1.391 . S
C1914 H1904 0.950 . S
C1914 C1915 1.386 . S
C1914 C1916 1.391 . S
C1915 C1914 1.386 . S
C1915 C1919 1.393 . S
C1916 H1905 0.950 . S
C1916 C1914 1.391 . S
C1916 C1917 1.400 . S
C1917 C1911 1.491 . S
C1917 C1916 1.400 . S
C1917 C1918 1.398 . S
C1918 H1906 0.950 . S
C1918 C1917 1.398 . S
C1918 C1919 1.391 . S
C1919 H1907 0.950 . S
C1919 C1915 1.393 . S
C1919 C1918 1.391 . S
H1920 C1928 0.950 . S
H1921 C1933 0.950 . S
H1922 C1930 0.950 . S
H1923 C1932 0.950 . S
H1924 C1934 0.950 . S
H1925 C1936 0.950 . S
H1926 C1938 0.950 . S
H1927 C1939 0.950 . S
C1928 H1920 0.950 . S
C1928 C1929 1.386 . S
C1928 C1930 1.391 . S
C1929 C1928 1.386 . S
C1929 C1933 1.393 . S
C1930 H1922 0.950 . S
C1930 C1928 1.391 . S
C1930 C1931 1.400 . S
C1931 C1930 1.400 . S
C1931 C1932 1.398 . S
C1931 C1937 1.491 . S
C1932 H1923 0.950 . S
C1932 C1931 1.398 . S
C1932 C1933 1.391 . S
C1933 H1921 0.950 . S
C1933 C1929 1.393 . S
C1933 C1932 1.391 . S
C1934 H1924 0.950 . S
C1934 C1935 1.386 . S
C1934 C1936 1.391 . S
C1935 C1934 1.386 . S
C1935 C1939 1.393 . S
C1936 H1925 0.950 . S
C1936 C1934 1.391 . S
C1936 C1937 1.400 . S
C1937 C1931 1.491 . S
C1937 C1936 1.400 . S
C1937 C1938 1.398 . S
C1938 H1926 0.950 . S
C1938 C1937 1.398 . S
C1938 C1939 1.391 . S
C1939 H1927 0.950 . S
C1939 C1935 1.393 . S
C1939 C1938 1.391 . S
H1940 C1948 0.950 . S
H1941 C1953 0.950 . S
H1942 C1950 0.950 . S
H1943 C1952 0.950 . S
H1944 C1954 0.950 . S
H1945 C1956 0.950 . S
H1946 C1958 0.950 . S
H1947 C1959 0.950 . S
C1948 H1940 0.950 . S
C1948 C1949 1.386 . S
C1948 C1950 1.391 . S
C1949 C1948 1.386 . S
C1949 C1953 1.393 . S
C1950 H1942 0.950 . S
C1950 C1948 1.391 . S
C1950 C1951 1.400 . S
C1951 C1950 1.400 . S
C1951 C1952 1.398 . S
C1951 C1957 1.491 . S
C1952 H1943 0.950 . S
C1952 C1951 1.398 . S
C1952 C1953 1.391 . S
C1953 H1941 0.950 . S
C1953 C1949 1.393 . S
C1953 C1952 1.391 . S
C1954 H1944 0.950 . S
C1954 C1955 1.386 . S
C1954 C1956 1.391 . S
C1955 C1954 1.386 . S
C1955 C1959 1.393 . S
C1956 H1945 0.950 . S
C1956 C1954 1.391 . S
C1956 C1957 1.400 . S
C1957 C1951 1.491 . S
C1957 C1956 1.400 . S
C1957 C1958 1.398 . S
C1958 H1946 0.950 . S
C1958 C1957 1.398 . S
C1958 C1959 1.391 . S
C1959 H1947 0.950 . S
C1959 C1955 1.393 . S
C1959 C1958 1.391 . S
H1960 C1968 0.950 . S
H1961 C1973 0.950 . S
H1962 C1970 0.950 . S
H1963 C1972 0.950 . S
H1964 C1974 0.950 . S
H1965 C1976 0.950 . S
H1966 C1978 0.950 . S
H1967 C1979 0.950 . S
C1968 H1960 0.950 . S
C1968 C1969 1.386 . S
C1968 C1970 1.391 . S
C1969 C1968 1.386 . S
C1969 C1973 1.393 . S
C1970 H1962 0.950 . S
C1970 C1968 1.391 . S
C1970 C1971 1.400 . S
C1971 C1970 1.400 . S
C1971 C1972 1.398 . S
C1971 C1977 1.491 . S
C1972 H1963 0.950 . S
C1972 C1971 1.398 . S
C1972 C1973 1.391 . S
C1973 H1961 0.950 . S
C1973 C1969 1.393 . S
C1973 C1972 1.391 . S
C1974 H1964 0.950 . S
C1974 C1975 1.386 . S
C1974 C1976 1.391 . S
C1975 C1974 1.386 . S
C1975 C1979 1.393 . S
C1976 H1965 0.950 . S
C1976 C1974 1.391 . S
C1976 C1977 1.400 . S
C1977 C1971 1.491 . S
C1977 C1976 1.400 . S
C1977 C1978 1.398 . S
C1978 H1966 0.950 . S
C1978 C1977 1.398 . S
C1978 C1979 1.391 . S
C1979 H1967 0.950 . S
C1979 C1975 1.393 . S
C1979 C1978 1.391 . S
H1980 C1988 0.950 . S
H1981 C1993 0.950 . S
H1982 C1990 0.950 . S
H1983 C1992 0.950 . S
H1984 C1994 0.950 . S
H1985 C1996 0.950 . S
H1986 C1998 0.950 . S
H1987 C1999 0.950 . S
C1988 H1980 0.950 . S
C1988 C1989 1.394 . S
C1988 C1990 1.391 . S
C1989 C1988 1.394 . S
C1989 C1993 1.385 1_556 S
C1990 H1982 0.950 . S
C1990 C1988 1.391 . S
C1990 C1991 1.403 . S
C1991 C1990 1.403 . S
C1991 C1992 1.396 1_556 S
C1991 C1997 1.490 1_556 S
C1992 H1983 0.950 . S
C1992 C1991 1.396 1_554 S
C1992 C1993 1.391 . S
C1993 H1981 0.950 . S
C1993 C1989 1.385 1_554 S
C1993 C1992 1.391 . S
C1994 H1984 0.950 . S
C1994 C1995 1.397 . S
C1994 C1996 1.391 . S
C1995 C1994 1.397 . S
C1995 C1999 1.383 1_554 S
C1996 H1985 0.950 . S
C1996 C1994 1.391 . S
C1996 C1997 1.406 . S
C1997 C1991 1.490 1_554 S
C1997 C1996 1.406 . S
C1997 C1998 1.394 1_554 S
C1998 H1986 0.950 . S
C1998 C1997 1.394 1_556 S
C1998 C1999 1.391 . S
C1999 H1987 0.950 . S
C1999 C1995 1.383 1_556 S
C1999 C1998 1.391 . S
H2000 C2008 0.950 . S
H2001 C2013 0.950 . S
H2002 C2010 0.950 . S
H2003 C2012 0.950 . S
H2004 C2014 0.950 . S
H2005 C2016 0.950 . S
H2006 C2018 0.950 . S
H2007 C2019 0.950 . S
C2008 H2000 0.950 . S
C2008 C2009 1.387 1_556 S
C2008 C2010 1.391 . S
C2009 C2008 1.387 1_554 S
C2009 C2013 1.392 . S
C2010 H2002 0.950 . S
C2010 C2008 1.391 . S
C2010 C2011 1.401 1_556 S
C2011 C2010 1.401 1_554 S
C2011 C2012 1.397 . S
C2011 C2017 1.491 . S
C2012 H2003 0.950 . S
C2012 C2011 1.397 . S
C2012 C2013 1.391 . S
C2013 H2001 0.950 . S
C2013 C2009 1.392 . S
C2013 C2012 1.391 . S
C2014 H2004 0.950 . S
C2014 C2015 1.387 . S
C2014 C2016 1.391 . S
C2015 C2014 1.387 . S
C2015 C2019 1.392 1_554 S
C2016 H2005 0.950 . S
C2016 C2014 1.391 . S
C2016 C2017 1.401 . S
C2017 C2011 1.491 . S
C2017 C2016 1.401 . S
C2017 C2018 1.397 1_554 S
C2018 H2006 0.950 . S
C2018 C2017 1.397 1_556 S
C2018 C2019 1.391 . S
C2019 H2007 0.950 . S
C2019 C2015 1.392 1_556 S
C2019 C2018 1.391 . S
H2020 C2028 0.949 . S
H2021 C2033 0.950 . S
H2022 C2030 0.949 1_556 S
H2023 C2032 0.950 . S
H2024 C2034 0.950 1_554 S
H2025 C2036 0.949 . S
H2026 C2038 0.950 . S
H2027 C2039 0.950 . S
C2028 H2020 0.949 . S
C2028 C2029 1.385 . S
C2028 C2030 1.391 . S
C2029 C2028 1.385 . S
C2029 C2033 1.395 . S
C2030 H2022 0.949 1_554 S
C2030 C2028 1.391 . S
C2030 C2031 1.400 . S
C2031 C2030 1.400 . S
C2031 C2032 1.400 . S
C2031 C2037 1.490 1_554 S
C2032 H2023 0.950 . S
C2032 C2031 1.400 . S
C2032 C2033 1.391 . S
C2033 H2021 0.950 . S
C2033 C2029 1.395 . S
C2033 C2032 1.391 . S
C2034 H2024 0.950 1_556 S
C2034 C2035 1.385 . S
C2034 C2036 1.391 1_556 S
C2035 C2034 1.385 . S
C2035 C2039 1.395 . S
C2036 H2025 0.949 . S
C2036 C2034 1.391 1_554 S
C2036 C2037 1.400 1_554 S
C2037 C2031 1.490 1_556 S
C2037 C2036 1.400 1_556 S
C2037 C2038 1.399 . S
C2038 H2026 0.950 . S
C2038 C2037 1.399 . S
C2038 C2039 1.391 . S
C2039 H2027 0.950 . S
C2039 C2035 1.395 . S
C2039 C2038 1.391 . S
H2040 C2048 0.950 . S
H2041 C2053 0.950 . S
H2042 C2050 0.950 . S
H2043 C2052 0.950 . S
H2044 C2054 0.950 . S
H2045 C2056 0.950 . S
H2046 C2058 0.950 . S
H2047 C2059 0.950 . S
C2048 H2040 0.950 . S
C2048 C2049 1.403 . S
C2048 C2050 1.391 . S
C2049 C2048 1.403 . S
C2049 C2053 1.377 1_554 S
C2050 H2042 0.950 . S
C2050 C2048 1.391 . S
C2050 C2051 1.409 . S
C2051 C2050 1.409 . S
C2051 C2052 1.390 1_554 S
C2051 C2057 1.490 1_554 S
C2052 H2043 0.950 . S
C2052 C2051 1.390 1_556 S
C2052 C2053 1.391 . S
C2053 H2041 0.950 . S
C2053 C2049 1.377 1_556 S
C2053 C2052 1.391 . S
C2054 H2044 0.950 . S
C2054 C2055 1.398 . S
C2054 C2056 1.391 . S
C2055 C2054 1.398 . S
C2055 C2059 1.381 1_556 S
C2056 H2045 0.950 . S
C2056 C2054 1.391 . S
C2056 C2057 1.404 . S
C2057 C2051 1.490 1_556 S
C2057 C2056 1.404 . S
C2057 C2058 1.395 1_556 S
C2058 H2046 0.950 . S
C2058 C2057 1.395 1_554 S
C2058 C2059 1.391 . S
C2059 H2047 0.950 . S
C2059 C2055 1.381 1_554 S
C2059 C2058 1.391 . S
H2060 C2068 0.950 . S
H2061 C2073 0.950 . S
H2062 C2070 0.950 . S
H2063 C2072 0.950 . S
H2064 C2074 0.950 . S
H2065 C2076 0.950 . S
H2066 C2078 0.950 . S
H2067 C2079 0.950 . S
C2068 H2060 0.950 . S
C2068 C2069 1.398 . S
C2068 C2070 1.391 . S
C2069 C2068 1.398 . S
C2069 C2073 1.381 1_655 S
C2070 H2062 0.950 . S
C2070 C2068 1.391 . S
C2070 C2071 1.404 . S
C2071 C2070 1.404 . S
C2071 C2072 1.395 1_655 S
C2071 C2077 1.490 1_655 S
C2072 H2063 0.950 . S
C2072 C2071 1.395 1_455 S
C2072 C2073 1.391 . S
C2073 H2061 0.950 . S
C2073 C2069 1.381 1_455 S
C2073 C2072 1.391 . S
C2074 H2064 0.950 . S
C2074 C2075 1.404 . S
C2074 C2076 1.391 . S
C2075 C2074 1.404 . S
C2075 C2079 1.375 1_455 S
C2076 H2065 0.950 . S
C2076 C2074 1.391 . S
C2076 C2077 1.410 . S
C2077 C2071 1.490 1_455 S
C2077 C2076 1.410 . S
C2077 C2078 1.389 1_455 S
C2078 H2066 0.950 . S
C2078 C2077 1.389 1_655 S
C2078 C2079 1.391 . S
C2079 H2067 0.950 . S
C2079 C2075 1.375 1_655 S
C2079 C2078 1.391 . S
H2080 C2088 0.950 . S
H2081 C2093 0.950 . S
H2082 C2090 0.950 . S
H2083 C2092 0.950 . S
H2084 C2094 0.950 . S
H2085 C2096 0.950 . S
H2086 C2098 0.950 . S
H2087 C2099 0.950 . S
C2088 H2080 0.950 . S
C2088 C2089 1.393 . S
C2088 C2090 1.391 . S
C2089 C2088 1.393 . S
C2089 C2093 1.387 1_565 S
C2090 H2082 0.950 . S
C2090 C2088 1.391 . S
C2090 C2091 1.403 . S
C2091 C2090 1.403 . S
C2091 C2092 1.396 1_565 S
C2091 C2097 1.490 1_565 S
C2092 H2083 0.950 . S
C2092 C2091 1.396 1_545 S
C2092 C2093 1.391 . S
C2093 H2081 0.950 . S
C2093 C2089 1.387 1_545 S
C2093 C2092 1.391 . S
C2094 H2084 0.950 . S
C2094 C2095 1.396 . S
C2094 C2096 1.391 . S
C2095 C2094 1.396 . S
C2095 C2099 1.385 1_545 S
C2096 H2085 0.950 . S
C2096 C2094 1.391 . S
C2096 C2097 1.405 . S
C2097 C2091 1.490 1_545 S
C2097 C2096 1.405 . S
C2097 C2098 1.394 1_545 S
C2098 H2086 0.950 . S
C2098 C2097 1.394 1_565 S
C2098 C2099 1.391 . S
C2099 H2087 0.950 . S
C2099 C2095 1.385 1_565 S
C2099 C2098 1.391 . S
H2100 C2108 0.950 . S
H2101 C2113 0.950 . S
H2102 C2110 0.950 . S
H2103 C2112 0.950 . S
H2104 C2114 0.950 . S
H2105 C2116 0.950 . S
H2106 C2118 0.950 . S
H2107 C2119 0.950 . S
C2108 H2100 0.950 . S
C2108 C2109 1.389 . S
C2108 C2110 1.391 . S
C2109 C2108 1.389 . S
C2109 C2113 1.390 1_655 S
C2110 H2102 0.950 . S
C2110 C2108 1.391 . S
C2110 C2111 1.398 . S
C2111 C2110 1.398 . S
C2111 C2112 1.400 1_655 S
C2111 C2117 1.491 1_655 S
C2112 H2103 0.950 . S
C2112 C2111 1.400 1_455 S
C2112 C2113 1.391 . S
C2113 H2101 0.950 . S
C2113 C2109 1.390 1_455 S
C2113 C2112 1.391 . S
C2114 H2104 0.950 . S
C2114 C2115 1.398 . S
C2114 C2116 1.391 . S
C2115 C2114 1.398 . S
C2115 C2119 1.381 1_455 S
C2116 H2105 0.950 . S
C2116 C2114 1.391 . S
C2116 C2117 1.407 . S
C2117 C2111 1.491 1_455 S
C2117 C2116 1.407 . S
C2117 C2118 1.392 1_455 S
C2118 H2106 0.950 . S
C2118 C2117 1.392 1_655 S
C2118 C2119 1.391 . S
C2119 H2107 0.950 . S
C2119 C2115 1.381 1_655 S
C2119 C2118 1.391 . S
H2120 C2128 0.950 . S
H2121 C2133 0.950 . S
H2122 C2130 0.950 . S
H2123 C2132 0.950 . S
H2124 C2134 0.950 . S
H2125 C2136 0.950 . S
H2126 C2138 0.950 . S
H2127 C2139 0.950 . S
C2128 H2120 0.950 . S
C2128 C2129 1.402 . S
C2128 C2130 1.391 . S
C2129 C2128 1.402 . S
C2129 C2133 1.377 1_545 S
C2130 H2122 0.950 . S
C2130 C2128 1.391 . S
C2130 C2131 1.409 . S
C2131 C2130 1.409 . S
C2131 C2132 1.390 1_545 S
C2131 C2137 1.490 1_545 S
C2132 H2123 0.950 . S
C2132 C2131 1.390 1_565 S
C2132 C2133 1.391 . S
C2133 H2121 0.950 . S
C2133 C2129 1.377 1_565 S
C2133 C2132 1.391 . S
C2134 H2124 0.950 . S
C2134 C2135 1.394 . S
C2134 C2136 1.391 . S
C2135 C2134 1.394 . S
C2135 C2139 1.385 1_565 S
C2136 H2125 0.950 . S
C2136 C2134 1.391 . S
C2136 C2137 1.401 . S
C2137 C2131 1.490 1_565 S
C2137 C2136 1.401 . S
C2137 C2138 1.397 1_565 S
C2138 H2126 0.950 . S
C2138 C2137 1.397 1_545 S
C2138 C2139 1.391 . S
C2139 H2127 0.950 . S
C2139 C2135 1.385 1_545 S
C2139 C2138 1.391 . S
H2140 C2148 0.950 . S
H2141 C2153 0.950 . S
H2142 C2150 0.950 . S
H2143 C2152 0.950 . S
H2144 C2154 0.950 . S
H2145 C2156 0.950 . S
H2146 C2158 0.950 . S
H2147 C2159 0.950 . S
C2148 H2140 0.950 . S
C2148 C2149 1.363 1_655 S
C2148 C2150 1.391 . S
C2149 C2148 1.363 1_455 S
C2149 C2153 1.417 . S
C2150 H2142 0.950 . S
C2150 C2148 1.391 . S
C2150 C2151 1.389 1_655 S
C2151 C2150 1.389 1_455 S
C2151 C2152 1.411 . S
C2151 C2157 1.490 1_455 S
C2152 H2143 0.950 . S
C2152 C2151 1.411 . S
C2152 C2153 1.391 . S
C2153 H2141 0.950 . S
C2153 C2149 1.417 . S
C2153 C2152 1.391 . S
C2154 H2144 0.950 . S
C2154 C2155 1.369 1_455 S
C2154 C2156 1.391 . S
C2155 C2154 1.369 1_655 S
C2155 C2159 1.410 . S
C2156 H2145 0.950 . S
C2156 C2154 1.391 . S
C2156 C2157 1.395 1_455 S
C2157 C2151 1.490 1_655 S
C2157 C2156 1.395 1_655 S
C2157 C2158 1.404 . S
C2158 H2146 0.950 . S
C2158 C2157 1.404 . S
C2158 C2159 1.391 . S
C2159 H2147 0.950 . S
C2159 C2155 1.410 . S
C2159 C2158 1.391 . S
H2160 C2168 0.950 . S
H2161 C2173 0.950 . S
H2162 C2170 0.950 . S
H2163 C2172 0.950 . S
H2164 C2174 0.950 . S
H2165 C2176 0.950 . S
H2166 C2178 0.950 . S
H2167 C2179 0.950 . S
C2168 H2160 0.950 . S
C2168 C2169 1.369 1_545 S
C2168 C2170 1.391 . S
C2169 C2168 1.369 1_565 S
C2169 C2173 1.410 . S
C2170 H2162 0.950 . S
C2170 C2168 1.391 . S
C2170 C2171 1.395 1_545 S
C2171 C2170 1.395 1_565 S
C2171 C2172 1.404 . S
C2171 C2177 1.490 1_565 S
C2172 H2163 0.950 . S
C2172 C2171 1.404 . S
C2172 C2173 1.391 . S
C2173 H2161 0.950 . S
C2173 C2169 1.410 . S
C2173 C2172 1.391 . S
C2174 H2164 0.950 . S
C2174 C2175 1.363 1_565 S
C2174 C2176 1.391 . S
C2175 C2174 1.363 1_545 S
C2175 C2179 1.417 . S
C2176 H2165 0.950 . S
C2176 C2174 1.391 . S
C2176 C2177 1.389 1_565 S
C2177 C2171 1.490 1_545 S
C2177 C2176 1.389 1_545 S
C2177 C2178 1.411 . S
C2178 H2166 0.950 . S
C2178 C2177 1.411 . S
C2178 C2179 1.391 . S
C2179 H2167 0.950 . S
C2179 C2175 1.417 . S
C2179 C2178 1.391 . S
H2180 C2188 0.950 . S
H2181 C2193 0.950 . S
H2182 C2190 0.950 . S
H2183 C2192 0.950 . S
H2184 C2194 0.950 . S
H2185 C2196 0.950 . S
H2186 C2198 0.950 . S
H2187 C2199 0.950 . S
C2188 H2180 0.950 . S
C2188 C2189 1.404 . S
C2188 C2190 1.391 . S
C2189 C2188 1.404 . S
C2189 C2193 1.375 1_455 S
C2190 H2182 0.950 . S
C2190 C2188 1.391 . S
C2190 C2191 1.410 . S
C2191 C2190 1.410 . S
C2191 C2192 1.389 1_455 S
C2191 C2197 1.490 1_455 S
C2192 H2183 0.950 . S
C2192 C2191 1.389 1_655 S
C2192 C2193 1.391 . S
C2193 H2181 0.950 . S
C2193 C2189 1.375 1_655 S
C2193 C2192 1.391 . S
C2194 H2184 0.950 . S
C2194 C2195 1.396 . S
C2194 C2196 1.391 . S
C2195 C2194 1.396 . S
C2195 C2199 1.382 1_655 S
C2196 H2185 0.950 . S
C2196 C2194 1.391 . S
C2196 C2197 1.402 . S
C2197 C2191 1.490 1_655 S
C2197 C2196 1.402 . S
C2197 C2198 1.396 1_655 S
C2198 H2186 0.950 . S
C2198 C2197 1.396 1_455 S
C2198 C2199 1.391 . S
C2199 H2187 0.950 . S
C2199 C2195 1.382 1_455 S
C2199 C2198 1.391 . S
H2200 C2208 0.950 . S
H2201 C2213 0.950 . S
H2202 C2210 0.950 . S
H2203 C2212 0.950 . S
H2204 C2214 0.950 . S
H2205 C2216 0.950 . S
H2206 C2218 0.950 . S
H2207 C2219 0.950 . S
C2208 H2200 0.950 . S
C2208 C2209 1.381 1_565 S
C2208 C2210 1.391 . S
C2209 C2208 1.381 1_545 S
C2209 C2213 1.400 . S
C2210 H2202 0.950 . S
C2210 C2208 1.391 . S
C2210 C2211 1.398 1_565 S
C2211 C2210 1.398 1_545 S
C2211 C2212 1.402 . S
C2211 C2217 1.490 1_545 S
C2212 H2203 0.950 . S
C2212 C2211 1.402 . S
C2212 C2213 1.391 . S
C2213 H2201 0.950 . S
C2213 C2209 1.400 . S
C2213 C2212 1.391 . S
C2214 H2204 0.950 . S
C2214 C2215 1.382 1_545 S
C2214 C2216 1.391 . S
C2215 C2214 1.382 1_565 S
C2215 C2219 1.398 . S
C2216 H2205 0.950 . S
C2216 C2214 1.391 . S
C2216 C2217 1.399 1_545 S
C2217 C2211 1.490 1_565 S
C2217 C2216 1.399 1_565 S
C2217 C2218 1.401 . S
C2218 H2206 0.950 . S
C2218 C2217 1.401 . S
C2218 C2219 1.391 . S
C2219 H2207 0.950 . S
C2219 C2215 1.398 . S
C2219 C2218 1.391 . S
H2220 C2228 0.950 . S
H2221 C2233 0.950 . S
H2222 C2230 0.950 . S
H2223 C2232 0.950 . S
H2224 C2234 0.950 . S
H2225 C2236 0.950 . S
H2226 C2238 0.950 . S
H2227 C2239 0.950 . S
C2228 H2220 0.950 . S
C2228 C2229 1.369 1_655 S
C2228 C2230 1.391 . S
C2229 C2228 1.369 1_455 S
C2229 C2233 1.410 . S
C2230 H2222 0.950 . S
C2230 C2228 1.391 . S
C2230 C2231 1.392 1_655 S
C2231 C2230 1.392 1_455 S
C2231 C2232 1.407 . S
C2231 C2237 1.490 1_455 S
C2232 H2223 0.950 . S
C2232 C2231 1.407 . S
C2232 C2233 1.391 . S
C2233 H2221 0.950 . S
C2233 C2229 1.410 . S
C2233 C2232 1.391 . S
C2234 H2224 0.950 . S
C2234 C2235 1.378 1_455 S
C2234 C2236 1.391 . S
C2235 C2234 1.378 1_655 S
C2235 C2239 1.400 . S
C2236 H2225 0.950 . S
C2236 C2234 1.391 . S
C2236 C2237 1.401 1_455 S
C2237 C2231 1.490 1_655 S
C2237 C2236 1.401 1_655 S
C2237 C2238 1.397 . S
C2238 H2226 0.950 . S
C2238 C2237 1.397 . S
C2238 C2239 1.391 . S
C2239 H2227 0.950 . S
C2239 C2235 1.400 . S
C2239 C2238 1.391 . S
H2240 C2248 0.949 . S
H2241 C2253 0.950 . S
H2242 C2250 0.949 1_565 S
H2243 C2252 0.950 . S
H2244 C2254 0.949 1_545 S
H2245 C2256 0.949 . S
H2246 C2258 0.950 . S
H2247 C2259 0.950 . S
C2248 H2240 0.949 . S
C2248 C2249 1.385 . S
C2248 C2250 1.391 . S
C2249 C2248 1.385 . S
C2249 C2253 1.396 . S
C2250 H2242 0.949 1_545 S
C2250 C2248 1.391 . S
C2250 C2251 1.400 . S
C2251 C2250 1.400 . S
C2251 C2252 1.400 . S
C2251 C2257 1.490 1_545 S
C2252 H2243 0.950 . S
C2252 C2251 1.400 . S
C2252 C2253 1.391 . S
C2253 H2241 0.950 . S
C2253 C2249 1.396 . S
C2253 C2252 1.391 . S
C2254 H2244 0.949 1_565 S
C2254 C2255 1.385 . S
C2254 C2256 1.391 1_565 S
C2255 C2254 1.385 . S
C2255 C2259 1.395 . S
C2256 H2245 0.949 . S
C2256 C2254 1.391 1_545 S
C2256 C2257 1.400 1_545 S
C2257 C2251 1.490 1_565 S
C2257 C2256 1.400 1_565 S
C2257 C2258 1.399 . S
C2258 H2246 0.950 . S
C2258 C2257 1.399 . S
C2258 C2259 1.391 . S
C2259 H2247 0.950 . S
C2259 C2255 1.395 . S
C2259 C2258 1.391 . S
H2260 C2268 0.950 . S
H2261 C2273 0.950 . S
H2262 C2270 0.950 . S
H2263 C2272 0.950 . S
H2264 C2274 0.950 . S
H2265 C2276 0.950 . S
H2266 C2278 0.950 . S
H2267 C2279 0.950 . S
C2268 H2260 0.950 . S
C2268 C2269 1.363 1_655 S
C2268 C2270 1.391 . S
C2269 C2268 1.363 1_455 S
C2269 C2273 1.417 . S
C2270 H2262 0.950 . S
C2270 C2268 1.391 . S
C2270 C2271 1.389 1_655 S
C2271 C2270 1.389 1_455 S
C2271 C2272 1.411 . S
C2271 C2277 1.490 1_455 S
C2272 H2263 0.950 . S
C2272 C2271 1.411 . S
C2272 C2273 1.391 . S
C2273 H2261 0.950 . S
C2273 C2269 1.417 . S
C2273 C2272 1.391 . S
C2274 H2264 0.950 . S
C2274 C2275 1.369 1_455 S
C2274 C2276 1.391 . S
C2275 C2274 1.369 1_655 S
C2275 C2279 1.410 . S
C2276 H2265 0.950 . S
C2276 C2274 1.391 . S
C2276 C2277 1.395 1_455 S
C2277 C2271 1.490 1_655 S
C2277 C2276 1.395 1_655 S
C2277 C2278 1.404 . S
C2278 H2266 0.950 . S
C2278 C2277 1.404 . S
C2278 C2279 1.391 . S
C2279 H2267 0.950 . S
C2279 C2275 1.410 . S
C2279 C2278 1.391 . S
H2280 C2288 0.950 . S
H2281 C2293 0.950 . S
H2282 C2290 0.950 . S
H2283 C2292 0.950 . S
H2284 C2294 0.950 . S
H2285 C2296 0.950 . S
H2286 C2298 0.950 . S
H2287 C2299 0.950 . S
C2288 H2280 0.950 . S
C2288 C2289 1.374 1_565 S
C2288 C2290 1.391 . S
C2289 C2288 1.374 1_545 S
C2289 C2293 1.405 . S
C2290 H2282 0.950 . S
C2290 C2288 1.391 . S
C2290 C2291 1.395 1_565 S
C2291 C2290 1.395 1_545 S
C2291 C2292 1.404 . S
C2291 C2297 1.491 1_545 S
C2292 H2283 0.950 . S
C2292 C2291 1.404 . S
C2292 C2293 1.391 . S
C2293 H2281 0.950 . S
C2293 C2289 1.405 . S
C2293 C2292 1.391 . S
C2294 H2284 0.950 . S
C2294 C2295 1.383 1_545 S
C2294 C2296 1.391 . S
C2295 C2294 1.383 1_565 S
C2295 C2299 1.395 . S
C2296 H2285 0.950 . S
C2296 C2294 1.391 . S
C2296 C2297 1.404 1_545 S
C2297 C2291 1.491 1_565 S
C2297 C2296 1.404 1_565 S
C2297 C2298 1.394 . S
C2298 H2286 0.950 . S
C2298 C2297 1.394 . S
C2298 C2299 1.391 . S
C2299 H2287 0.950 . S
C2299 C2295 1.395 . S
C2299 C2298 1.391 . S
H2300 C2308 0.950 . S
H2301 C2313 0.950 . S
H2302 C2310 0.950 . S
H2303 C2312 0.950 . S
H2304 C2314 0.950 . S
H2305 C2316 0.950 . S
H2306 C2318 0.950 . S
H2307 C2319 0.950 . S
C2308 H2300 0.950 . S
C2308 C2309 1.390 . S
C2308 C2310 1.391 . S
C2309 C2308 1.390 . S
C2309 C2313 1.388 1_655 S
C2310 H2302 0.950 . S
C2310 C2308 1.391 . S
C2310 C2311 1.399 . S
C2311 C2310 1.399 . S
C2311 C2312 1.399 1_655 S
C2311 C2317 1.491 1_655 S
C2312 H2303 0.950 . S
C2312 C2311 1.399 1_455 S
C2312 C2313 1.391 . S
C2313 H2301 0.950 . S
C2313 C2309 1.388 1_455 S
C2313 C2312 1.391 . S
C2314 H2304 0.950 . S
C2314 C2315 1.399 . S
C2314 C2316 1.391 . S
C2315 C2314 1.399 . S
C2315 C2319 1.380 1_455 S
C2316 H2305 0.950 . S
C2316 C2314 1.391 . S
C2316 C2317 1.408 . S
C2317 C2311 1.491 1_455 S
C2317 C2316 1.408 . S
C2317 C2318 1.391 1_455 S
C2318 H2306 0.950 . S
C2318 C2317 1.391 1_655 S
C2318 C2319 1.391 . S
C2319 H2307 0.950 . S
C2319 C2315 1.380 1_655 S
C2319 C2318 1.391 . S
H2320 C2328 0.950 . S
H2321 C2333 0.950 . S
H2322 C2330 0.950 . S
H2323 C2332 0.950 . S
H2324 C2334 0.950 . S
H2325 C2336 0.950 . S
H2326 C2338 0.950 . S
H2327 C2339 0.950 . S
C2328 H2320 0.950 . S
C2328 C2329 1.369 1_545 S
C2328 C2330 1.391 . S
C2329 C2328 1.369 1_565 S
C2329 C2333 1.410 . S
C2330 H2322 0.950 . S
C2330 C2328 1.391 . S
C2330 C2331 1.395 1_545 S
C2331 C2330 1.395 1_565 S
C2331 C2332 1.404 . S
C2331 C2337 1.490 1_565 S
C2332 H2323 0.950 . S
C2332 C2331 1.404 . S
C2332 C2333 1.391 . S
C2333 H2321 0.950 . S
C2333 C2329 1.410 . S
C2333 C2332 1.391 . S
C2334 H2324 0.950 . S
C2334 C2335 1.363 1_565 S
C2334 C2336 1.391 . S
C2335 C2334 1.363 1_545 S
C2335 C2339 1.417 . S
C2336 H2325 0.950 . S
C2336 C2334 1.391 . S
C2336 C2337 1.389 1_565 S
C2337 C2331 1.490 1_545 S
C2337 C2336 1.389 1_545 S
C2337 C2338 1.411 . S
C2338 H2326 0.950 . S
C2338 C2337 1.411 . S
C2338 C2339 1.391 . S
C2339 H2327 0.950 . S
C2339 C2335 1.417 . S
C2339 C2338 1.391 . S
H2340 C2348 0.950 . S
H2341 C2353 0.950 . S
H2342 C2350 0.950 . S
H2343 C2352 0.950 . S
H2344 C2354 0.950 . S
H2345 C2356 0.950 . S
H2346 C2358 0.950 . S
H2347 C2359 0.950 . S
C2348 H2340 0.950 . S
C2348 C2349 1.386 . S
C2348 C2350 1.391 . S
C2349 C2348 1.386 . S
C2349 C2353 1.393 1_455 S
C2350 H2342 0.950 . S
C2350 C2348 1.391 . S
C2350 C2351 1.401 . S
C2351 C2350 1.401 . S
C2351 C2352 1.398 1_455 S
C2351 C2357 1.491 . S
C2352 H2343 0.950 . S
C2352 C2351 1.398 1_655 S
C2352 C2353 1.391 . S
C2353 H2341 0.950 . S
C2353 C2349 1.393 1_655 S
C2353 C2352 1.391 . S
C2354 H2344 0.950 . S
C2354 C2355 1.386 1_655 S
C2354 C2356 1.391 . S
C2355 C2354 1.386 1_455 S
C2355 C2359 1.393 . S
C2356 H2345 0.950 . S
C2356 C2354 1.391 . S
C2356 C2357 1.401 1_655 S
C2357 C2351 1.491 . S
C2357 C2356 1.401 1_455 S
C2357 C2358 1.398 . S
C2358 H2346 0.950 . S
C2358 C2357 1.398 . S
C2358 C2359 1.391 . S
C2359 H2347 0.950 . S
C2359 C2355 1.393 . S
C2359 C2358 1.391 . S
H2360 C2368 0.950 . S
H2361 C2373 0.950 . S
H2362 C2370 0.950 . S
H2363 C2372 0.950 . S
H2364 C2374 0.950 . S
H2365 C2376 0.950 . S
H2366 C2378 0.950 . S
H2367 C2379 0.950 . S
C2368 H2360 0.950 . S
C2368 C2369 1.398 . S
C2368 C2370 1.391 . S
C2369 C2368 1.398 . S
C2369 C2373 1.381 1_565 S
C2370 H2362 0.950 . S
C2370 C2368 1.391 . S
C2370 C2371 1.404 . S
C2371 C2370 1.404 . S
C2371 C2372 1.395 1_565 S
C2371 C2377 1.490 1_565 S
C2372 H2363 0.950 . S
C2372 C2371 1.395 1_545 S
C2372 C2373 1.391 . S
C2373 H2361 0.950 . S
C2373 C2369 1.381 1_545 S
C2373 C2372 1.391 . S
C2374 H2364 0.950 . S
C2374 C2375 1.404 . S
C2374 C2376 1.391 . S
C2375 C2374 1.404 . S
C2375 C2379 1.376 1_545 S
C2376 H2365 0.950 . S
C2376 C2374 1.391 . S
C2376 C2377 1.410 . S
C2377 C2371 1.490 1_545 S
C2377 C2376 1.410 . S
C2377 C2378 1.390 1_545 S
C2378 H2366 0.950 . S
C2378 C2377 1.390 1_565 S
C2378 C2379 1.391 . S
C2379 H2367 0.950 . S
C2379 C2375 1.376 1_565 S
C2379 C2378 1.391 . S
H2380 C2388 0.950 . S
H2381 C2393 0.950 . S
H2382 C2390 0.950 . S
H2383 C2392 0.950 . S
H2384 C2394 0.950 . S
H2385 C2396 0.950 . S
H2386 C2398 0.950 . S
H2387 C2399 0.950 . S
C2388 H2380 0.950 . S
C2388 C2389 1.399 . S
C2388 C2390 1.391 . S
C2389 C2388 1.399 . S
C2389 C2393 1.379 1_545 S
C2390 H2382 0.950 . S
C2390 C2388 1.391 . S
C2390 C2391 1.408 . S
C2391 C2390 1.408 . S
C2391 C2392 1.391 1_545 S
C2391 C2397 1.490 1_545 S
C2392 H2383 0.950 . S
C2392 C2391 1.391 1_565 S
C2392 C2393 1.391 . S
C2393 H2381 0.950 . S
C2393 C2389 1.379 1_565 S
C2393 C2392 1.391 . S
C2394 H2384 0.950 . S
C2394 C2395 1.390 . S
C2394 C2396 1.391 . S
C2395 C2394 1.390 . S
C2395 C2399 1.388 1_565 S
C2396 H2385 0.950 . S
C2396 C2394 1.391 . S
C2396 C2397 1.399 . S
C2397 C2391 1.490 1_565 S
C2397 C2396 1.399 . S
C2397 C2398 1.399 1_565 S
C2398 H2386 0.950 . S
C2398 C2397 1.399 1_545 S
C2398 C2399 1.391 . S
C2399 H2387 0.950 . S
C2399 C2395 1.388 1_545 S
C2399 C2398 1.391 . S
H2400 C2408 0.950 . S
H2401 C2413 0.950 . S
H2402 C2410 0.950 . S
H2403 C2412 0.950 . S
H2404 C2414 0.950 . S
H2405 C2416 0.950 . S
H2406 C2418 0.950 . S
H2407 C2419 0.950 . S
C2408 H2400 0.950 . S
C2408 C2409 1.382 . S
C2408 C2410 1.391 . S
C2409 C2408 1.382 . S
C2409 C2413 1.396 1_455 S
C2410 H2402 0.950 . S
C2410 C2408 1.391 . S
C2410 C2411 1.399 . S
C2411 C2410 1.399 . S
C2411 C2412 1.399 1_455 S
C2411 C2417 1.491 . S
C2412 H2403 0.950 . S
C2412 C2411 1.399 1_655 S
C2412 C2413 1.391 . S
C2413 H2401 0.950 . S
C2413 C2409 1.396 1_655 S
C2413 C2412 1.391 . S
C2414 H2404 0.950 . S
C2414 C2415 1.382 1_655 S
C2414 C2416 1.391 . S
C2415 C2414 1.382 1_455 S
C2415 C2419 1.396 . S
C2416 H2405 0.950 . S
C2416 C2414 1.391 . S
C2416 C2417 1.399 1_655 S
C2417 C2411 1.491 . S
C2417 C2416 1.399 1_455 S
C2417 C2418 1.399 . S
C2418 H2406 0.950 . S
C2418 C2417 1.399 . S
C2418 C2419 1.391 . S
C2419 H2407 0.950 . S
C2419 C2415 1.396 . S
C2419 C2418 1.391 . S
H2420 C2428 0.950 . S
H2421 C2433 0.950 . S
H2422 C2430 0.950 . S
H2423 C2432 0.950 . S
H2424 C2434 0.950 . S
H2425 C2436 0.950 . S
H2426 C2438 0.950 . S
H2427 C2439 0.950 . S
C2428 H2420 0.950 . S
C2428 C2429 1.376 1_545 S
C2428 C2430 1.391 . S
C2429 C2428 1.376 1_565 S
C2429 C2433 1.404 . S
C2430 H2422 0.950 . S
C2430 C2428 1.391 . S
C2430 C2431 1.397 1_545 S
C2431 C2430 1.397 1_565 S
C2431 C2432 1.403 . S
C2431 C2437 1.490 1_565 S
C2432 H2423 0.950 . S
C2432 C2431 1.403 . S
C2432 C2433 1.391 . S
C2433 H2421 0.950 . S
C2433 C2429 1.404 . S
C2433 C2432 1.391 . S
C2434 H2424 0.950 . S
C2434 C2435 1.373 1_565 S
C2434 C2436 1.391 . S
C2435 C2434 1.373 1_545 S
C2435 C2439 1.408 . S
C2436 H2425 0.950 . S
C2436 C2434 1.391 . S
C2436 C2437 1.393 1_565 S
C2437 C2431 1.490 1_545 S
C2437 C2436 1.393 1_545 S
C2437 C2438 1.406 . S
C2438 H2426 0.950 . S
C2438 C2437 1.406 . S
C2438 C2439 1.391 . S
C2439 H2427 0.950 . S
C2439 C2435 1.408 . S
C2439 C2438 1.391 . S
H2440 C2448 0.949 . S
H2441 C2453 0.950 . S
H2442 C2450 0.951 . S
H2443 C2452 0.950 . S
H2444 C2454 0.949 . S
H2445 C2456 0.952 . S
H2446 C2458 0.950 . S
H2447 C2459 0.950 . S
C2448 H2440 0.949 . S
C2448 C2449 1.384 1_655 S
C2448 C2450 1.391 . S
C2449 C2448 1.384 1_455 S
C2449 C2453 1.396 . S
C2450 H2442 0.951 . S
C2450 C2448 1.391 . S
C2450 C2451 1.399 1_655 S
C2451 C2450 1.399 1_455 S
C2451 C2452 1.401 . S
C2451 C2457 1.490 1_455 S
C2452 H2443 0.950 . S
C2452 C2451 1.401 . S
C2452 C2453 1.391 . S
C2453 H2441 0.950 . S
C2453 C2449 1.396 . S
C2453 C2452 1.391 . S
C2454 H2444 0.949 . S
C2454 C2455 1.384 1_455 S
C2454 C2456 1.391 . S
C2455 C2454 1.384 1_655 S
C2455 C2459 1.395 . S
C2456 H2445 0.952 . S
C2456 C2454 1.391 . S
C2456 C2457 1.399 1_455 S
C2457 C2451 1.490 1_655 S
C2457 C2456 1.399 1_655 S
C2457 C2458 1.399 . S
C2458 H2446 0.950 . S
C2458 C2457 1.399 . S
C2458 C2459 1.391 . S
C2459 H2447 0.950 . S
C2459 C2455 1.395 . S
C2459 C2458 1.391 . S
H2460 C2468 0.950 . S
H2461 C2473 0.950 . S
H2462 C2470 0.950 . S
H2463 C2472 0.950 . S
H2464 C2474 0.950 . S
H2465 C2476 0.950 . S
H2466 C2478 0.950 . S
H2467 C2479 0.950 . S
C2468 H2460 0.950 . S
C2468 C2469 1.374 1_545 S
C2468 C2470 1.391 . S
C2469 C2468 1.374 1_565 S
C2469 C2473 1.406 . S
C2470 H2462 0.950 . S
C2470 C2468 1.391 . S
C2470 C2471 1.396 1_545 S
C2471 C2470 1.396 1_565 S
C2471 C2472 1.403 . S
C2471 C2477 1.490 1_565 S
C2472 H2463 0.950 . S
C2472 C2471 1.403 . S
C2472 C2473 1.391 . S
C2473 H2461 0.950 . S
C2473 C2469 1.406 . S
C2473 C2472 1.391 . S
C2474 H2464 0.950 . S
C2474 C2475 1.370 1_565 S
C2474 C2476 1.391 . S
C2475 C2474 1.370 1_545 S
C2475 C2479 1.410 . S
C2476 H2465 0.950 . S
C2476 C2474 1.391 . S
C2476 C2477 1.392 1_565 S
C2477 C2471 1.490 1_545 S
C2477 C2476 1.392 1_545 S
C2477 C2478 1.408 . S
C2478 H2466 0.950 . S
C2478 C2477 1.408 . S
C2478 C2479 1.391 . S
C2479 H2467 0.950 . S
C2479 C2475 1.410 . S
C2479 C2478 1.391 . S
H2480 C2488 0.950 . S
H2481 C2493 0.950 . S
H2482 C2490 0.950 . S
H2483 C2492 0.950 . S
H2484 C2494 0.950 . S
H2485 C2496 0.950 . S
H2486 C2498 0.950 . S
H2487 C2499 0.950 . S
C2488 H2480 0.950 . S
C2488 C2489 1.397 . S
C2488 C2490 1.391 . S
C2489 C2488 1.397 . S
C2489 C2493 1.381 1_655 S
C2490 H2482 0.950 . S
C2490 C2488 1.391 . S
C2490 C2491 1.403 . S
C2491 C2490 1.403 . S
C2491 C2492 1.395 1_655 S
C2491 C2497 1.490 1_655 S
C2492 H2483 0.950 . S
C2492 C2491 1.395 1_455 S
C2492 C2493 1.391 . S
C2493 H2481 0.950 . S
C2493 C2489 1.381 1_455 S
C2493 C2492 1.391 . S
C2494 H2484 0.950 . S
C2494 C2495 1.404 . S
C2494 C2496 1.391 . S
C2495 C2494 1.404 . S
C2495 C2499 1.375 1_455 S
C2496 H2485 0.950 . S
C2496 C2494 1.391 . S
C2496 C2497 1.410 . S
C2497 C2491 1.490 1_455 S
C2497 C2496 1.410 . S
C2497 C2498 1.389 1_455 S
C2498 H2486 0.950 . S
C2498 C2497 1.389 1_655 S
C2498 C2499 1.391 . S
C2499 H2487 0.950 . S
C2499 C2495 1.375 1_655 S
C2499 C2498 1.391 . S
H2500 C2508 0.950 . S
H2501 C2513 0.950 . S
H2502 C2510 0.950 . S
H2503 C2512 0.950 . S
H2504 C2514 0.950 . S
H2505 C2516 0.950 . S
H2506 C2518 0.950 . S
H2507 C2519 0.950 . S
C2508 H2500 0.950 . S
C2508 C2509 1.398 . S
C2508 C2510 1.391 . S
C2509 C2508 1.398 . S
C2509 C2513 1.381 1_565 S
C2510 H2502 0.950 . S
C2510 C2508 1.391 . S
C2510 C2511 1.404 . S
C2511 C2510 1.404 . S
C2511 C2512 1.395 1_565 S
C2511 C2517 1.490 1_565 S
C2512 H2503 0.950 . S
C2512 C2511 1.395 1_545 S
C2512 C2513 1.391 . S
C2513 H2501 0.950 . S
C2513 C2509 1.381 1_545 S
C2513 C2512 1.391 . S
C2514 H2504 0.950 . S
C2514 C2515 1.404 . S
C2514 C2516 1.391 . S
C2515 C2514 1.404 . S
C2515 C2519 1.375 1_545 S
C2516 H2505 0.950 . S
C2516 C2514 1.391 . S
C2516 C2517 1.410 . S
C2517 C2511 1.490 1_545 S
C2517 C2516 1.410 . S
C2517 C2518 1.389 1_545 S
C2518 H2506 0.950 . S
C2518 C2517 1.389 1_565 S
C2518 C2519 1.391 . S
C2519 H2507 0.950 . S
C2519 C2515 1.375 1_565 S
C2519 C2518 1.391 . S
H2520 C2528 0.950 . S
H2521 C2533 0.952 . S
H2522 C2530 0.950 . S
H2523 C2532 0.950 . S
H2524 C2534 0.950 . S
H2525 C2536 0.950 . S
H2526 C2538 0.950 . S
H2527 C2539 0.951 . S
C2528 H2520 0.950 . S
C2528 C2529 1.389 . S
C2528 C2530 1.391 . S
C2529 C2528 1.389 . S
C2529 C2533 1.391 1_655 S
C2530 H2522 0.950 . S
C2530 C2528 1.391 . S
C2530 C2531 1.401 . S
C2531 C2530 1.401 . S
C2531 C2532 1.398 1_655 S
C2531 C2537 1.490 1_655 S
C2532 H2523 0.950 . S
C2532 C2531 1.398 1_455 S
C2532 C2533 1.391 . S
C2533 H2521 0.952 . S
C2533 C2529 1.391 1_455 S
C2533 C2532 1.391 . S
C2534 H2524 0.950 . S
C2534 C2535 1.390 . S
C2534 C2536 1.391 . S
C2535 C2534 1.390 . S
C2535 C2539 1.391 1_455 S
C2536 H2525 0.950 . S
C2536 C2534 1.391 . S
C2536 C2537 1.402 . S
C2537 C2531 1.490 1_455 S
C2537 C2536 1.402 . S
C2537 C2538 1.398 1_455 S
C2538 H2526 0.950 . S
C2538 C2537 1.398 1_655 S
C2538 C2539 1.391 . S
C2539 H2527 0.951 . S
C2539 C2535 1.391 1_655 S
C2539 C2538 1.391 . S
H2540 C2548 0.950 . S
H2541 C2553 0.950 . S
H2542 C2550 0.950 . S
H2543 C2552 0.950 . S
H2544 C2554 0.950 . S
H2545 C2556 0.950 . S
H2546 C2558 0.950 . S
H2547 C2559 0.950 . S
C2548 H2540 0.950 . S
C2548 C2549 1.398 . S
C2548 C2550 1.391 . S
C2549 C2548 1.398 . S
C2549 C2553 1.381 1_556 S
C2550 H2542 0.950 . S
C2550 C2548 1.391 . S
C2550 C2551 1.404 . S
C2551 C2550 1.404 . S
C2551 C2552 1.395 1_556 S
C2551 C2557 1.490 1_556 S
C2552 H2543 0.950 . S
C2552 C2551 1.395 1_554 S
C2552 C2553 1.391 . S
C2553 H2541 0.950 . S
C2553 C2549 1.381 1_554 S
C2553 C2552 1.391 . S
C2554 H2544 0.950 . S
C2554 C2555 1.405 . S
C2554 C2556 1.391 . S
C2555 C2554 1.405 . S
C2555 C2559 1.375 1_554 S
C2556 H2545 0.950 . S
C2556 C2554 1.391 . S
C2556 C2557 1.410 . S
C2557 C2551 1.490 1_554 S
C2557 C2556 1.410 . S
C2557 C2558 1.389 1_554 S
C2558 H2546 0.950 . S
C2558 C2557 1.389 1_556 S
C2558 C2559 1.391 . S
C2559 H2547 0.950 . S
C2559 C2555 1.375 1_556 S
C2559 C2558 1.391 . S
H2560 C2568 0.950 . S
H2561 C2573 0.950 . S
H2562 C2570 0.950 . S
H2563 C2572 0.950 . S
H2564 C2574 0.950 . S
H2565 C2576 0.950 . S
H2566 C2578 0.950 . S
H2567 C2579 0.950 . S
C2568 H2560 0.950 . S
C2568 C2569 1.373 1_556 S
C2568 C2570 1.391 . S
C2569 C2568 1.373 1_554 S
C2569 C2573 1.405 . S
C2570 H2562 0.950 . S
C2570 C2568 1.391 . S
C2570 C2571 1.394 1_556 S
C2571 C2570 1.394 1_554 S
C2571 C2572 1.404 . S
C2571 C2577 1.491 1_554 S
C2572 H2563 0.950 . S
C2572 C2571 1.404 . S
C2572 C2573 1.391 . S
C2573 H2561 0.950 . S
C2573 C2569 1.405 . S
C2573 C2572 1.391 . S
C2574 H2564 0.950 . S
C2574 C2575 1.383 1_554 S
C2574 C2576 1.391 . S
C2575 C2574 1.383 1_556 S
C2575 C2579 1.396 . S
C2576 H2565 0.950 . S
C2576 C2574 1.391 . S
C2576 C2577 1.404 1_554 S
C2577 C2571 1.491 1_556 S
C2577 C2576 1.404 1_556 S
C2577 C2578 1.395 . S
C2578 H2566 0.950 . S
C2578 C2577 1.395 . S
C2578 C2579 1.391 . S
C2579 H2567 0.950 . S
C2579 C2575 1.396 . S
C2579 C2578 1.391 . S
H2580 C2588 0.950 . S
H2581 C2593 0.950 . S
H2582 C2590 0.950 . S
H2583 C2592 0.950 . S
H2584 C2594 0.950 . S
H2585 C2596 0.950 . S
H2586 C2598 0.950 . S
H2587 C2599 0.950 . S
C2588 H2580 0.950 . S
C2588 C2589 1.397 . S
C2588 C2590 1.391 . S
C2589 C2588 1.397 . S
C2589 C2593 1.382 1_556 S
C2590 H2582 0.950 . S
C2590 C2588 1.391 . S
C2590 C2591 1.404 . S
C2591 C2590 1.404 . S
C2591 C2592 1.395 1_556 S
C2591 C2597 1.490 1_556 S
C2592 H2583 0.950 . S
C2592 C2591 1.395 1_554 S
C2592 C2593 1.391 . S
C2593 H2581 0.950 . S
C2593 C2589 1.382 1_554 S
C2593 C2592 1.391 . S
C2594 H2584 0.950 . S
C2594 C2595 1.402 . S
C2594 C2596 1.391 . S
C2595 C2594 1.402 . S
C2595 C2599 1.378 1_554 S
C2596 H2585 0.950 . S
C2596 C2594 1.391 . S
C2596 C2597 1.409 . S
C2597 C2591 1.490 1_554 S
C2597 C2596 1.409 . S
C2597 C2598 1.391 1_554 S
C2598 H2586 0.950 . S
C2598 C2597 1.391 1_556 S
C2598 C2599 1.391 . S
C2599 H2587 0.950 . S
C2599 C2595 1.378 1_556 S
C2599 C2598 1.391 . S
H2600 C2608 0.950 . S
H2601 C2613 0.950 . S
H2602 C2610 0.950 . S
H2603 C2612 0.950 . S
H2604 C2614 0.950 . S
H2605 C2616 0.950 . S
H2606 C2618 0.950 . S
H2607 C2619 0.950 . S
C2608 H2600 0.950 . S
C2608 C2609 1.374 1_556 S
C2608 C2610 1.391 . S
C2609 C2608 1.374 1_554 S
C2609 C2613 1.404 . S
C2610 H2602 0.950 . S
C2610 C2608 1.391 . S
C2610 C2611 1.395 1_556 S
C2611 C2610 1.395 1_554 S
C2611 C2612 1.404 . S
C2611 C2617 1.491 1_554 S
C2612 H2603 0.950 . S
C2612 C2611 1.404 . S
C2612 C2613 1.391 . S
C2613 H2601 0.950 . S
C2613 C2609 1.404 . S
C2613 C2612 1.391 . S
C2614 H2604 0.950 . S
C2614 C2615 1.384 1_554 S
C2614 C2616 1.391 . S
C2615 C2614 1.384 1_556 S
C2615 C2619 1.394 . S
C2616 H2605 0.950 . S
C2616 C2614 1.391 . S
C2616 C2617 1.405 1_554 S
C2617 C2611 1.491 1_556 S
C2617 C2616 1.405 1_556 S
C2617 C2618 1.394 . S
C2618 H2606 0.950 . S
C2618 C2617 1.394 . S
C2618 C2619 1.391 . S
C2619 H2607 0.950 . S
C2619 C2615 1.394 . S
C2619 C2618 1.391 . S
H2620 C2628 0.950 . S
H2621 C2633 0.950 . S
H2622 C2630 0.950 . S
H2623 C2632 0.950 . S
H2624 C2634 0.950 . S
H2625 C2636 0.950 . S
H2626 C2638 0.950 . S
H2627 C2639 0.950 . S
C2628 H2620 0.950 . S
C2628 C2629 1.398 . S
C2628 C2630 1.391 . S
C2629 C2628 1.398 . S
C2629 C2633 1.381 1_556 S
C2630 H2622 0.950 . S
C2630 C2628 1.391 . S
C2630 C2631 1.404 . S
C2631 C2630 1.404 . S
C2631 C2632 1.395 1_556 S
C2631 C2637 1.490 1_556 S
C2632 H2623 0.950 . S
C2632 C2631 1.395 1_554 S
C2632 C2633 1.391 . S
C2633 H2621 0.950 . S
C2633 C2629 1.381 1_554 S
C2633 C2632 1.391 . S
C2634 H2624 0.950 . S
C2634 C2635 1.405 . S
C2634 C2636 1.391 . S
C2635 C2634 1.405 . S
C2635 C2639 1.375 1_554 S
C2636 H2625 0.950 . S
C2636 C2634 1.391 . S
C2636 C2637 1.410 . S
C2637 C2631 1.490 1_554 S
C2637 C2636 1.410 . S
C2637 C2638 1.389 1_554 S
C2638 H2626 0.950 . S
C2638 C2637 1.389 1_556 S
C2638 C2639 1.391 . S
C2639 H2627 0.950 . S
C2639 C2635 1.375 1_556 S
C2639 C2638 1.391 . S
H2640 C2648 0.950 . S
H2641 C2653 0.950 . S
H2642 C2650 0.950 . S
H2643 C2652 0.950 . S
H2644 C2654 0.950 . S
H2645 C2656 0.950 . S
H2646 C2658 0.950 . S
H2647 C2659 0.950 . S
C2648 H2640 0.950 . S
C2648 C2649 1.377 1_556 S
C2648 C2650 1.391 . S
C2649 C2648 1.377 1_554 S
C2649 C2653 1.404 . S
C2650 H2642 0.950 . S
C2650 C2648 1.391 . S
C2650 C2651 1.396 1_556 S
C2651 C2650 1.396 1_554 S
C2651 C2652 1.404 . S
C2651 C2657 1.490 1_554 S
C2652 H2643 0.950 . S
C2652 C2651 1.404 . S
C2652 C2653 1.391 . S
C2653 H2641 0.950 . S
C2653 C2649 1.404 . S
C2653 C2652 1.391 . S
C2654 H2644 0.950 . S
C2654 C2655 1.379 1_554 S
C2654 C2656 1.391 . S
C2655 C2654 1.379 1_556 S
C2655 C2659 1.401 . S
C2656 H2645 0.950 . S
C2656 C2654 1.391 . S
C2656 C2657 1.398 1_554 S
C2657 C2651 1.490 1_556 S
C2657 C2656 1.398 1_556 S
C2657 C2658 1.402 . S
C2658 H2646 0.950 . S
C2658 C2657 1.402 . S
C2658 C2659 1.391 . S
C2659 H2647 0.950 . S
C2659 C2655 1.401 . S
C2659 C2658 1.391 . S
H2660 C2668 0.950 . S
H2661 C2673 0.950 . S
H2662 C2670 0.950 . S
H2663 C2672 0.950 . S
H2664 C2674 0.950 . S
H2665 C2676 0.950 . S
H2666 C2678 0.950 . S
H2667 C2679 0.950 . S
C2668 H2660 0.950 . S
C2668 C2669 1.398 . S
C2668 C2670 1.391 . S
C2669 C2668 1.398 . S
C2669 C2673 1.381 1_556 S
C2670 H2662 0.950 . S
C2670 C2668 1.391 . S
C2670 C2671 1.404 . S
C2671 C2670 1.404 . S
C2671 C2672 1.395 1_556 S
C2671 C2677 1.490 1_556 S
C2672 H2663 0.950 . S
C2672 C2671 1.395 1_554 S
C2672 C2673 1.391 . S
C2673 H2661 0.950 . S
C2673 C2669 1.381 1_554 S
C2673 C2672 1.391 . S
C2674 H2664 0.950 . S
C2674 C2675 1.404 . S
C2674 C2676 1.391 . S
C2675 C2674 1.404 . S
C2675 C2679 1.375 1_554 S
C2676 H2665 0.950 . S
C2676 C2674 1.391 . S
C2676 C2677 1.410 . S
C2677 C2671 1.490 1_554 S
C2677 C2676 1.410 . S
C2677 C2678 1.389 1_554 S
C2678 H2666 0.950 . S
C2678 C2677 1.389 1_556 S
C2678 C2679 1.391 . S
C2679 H2667 0.950 . S
C2679 C2675 1.375 1_556 S
C2679 C2678 1.391 . S
H2680 C2688 0.950 . S
H2681 C2693 0.950 . S
H2682 C2690 0.950 . S
H2683 C2692 0.950 . S
H2684 C2694 0.950 . S
H2685 C2696 0.950 . S
H2686 C2698 0.950 . S
H2687 C2699 0.950 . S
C2688 H2680 0.950 . S
C2688 C2689 1.383 . S
C2688 C2690 1.391 . S
C2689 C2688 1.383 . S
C2689 C2693 1.395 1_554 S
C2690 H2682 0.950 . S
C2690 C2688 1.391 . S
C2690 C2691 1.399 . S
C2691 C2690 1.399 . S
C2691 C2692 1.399 1_554 S
C2691 C2697 1.491 . S
C2692 H2683 0.950 . S
C2692 C2691 1.399 1_556 S
C2692 C2693 1.391 . S
C2693 H2681 0.950 . S
C2693 C2689 1.395 1_556 S
C2693 C2692 1.391 . S
C2694 H2684 0.950 . S
C2694 C2695 1.383 1_556 S
C2694 C2696 1.391 . S
C2695 C2694 1.383 1_554 S
C2695 C2699 1.395 . S
C2696 H2685 0.950 . S
C2696 C2694 1.391 . S
C2696 C2697 1.399 1_556 S
C2697 C2691 1.491 . S
C2697 C2696 1.399 1_554 S
C2697 C2698 1.399 . S
C2698 H2686 0.950 . S
C2698 C2697 1.399 . S
C2698 C2699 1.391 . S
C2699 H2687 0.950 . S
C2699 C2695 1.395 . S
C2699 C2698 1.391 . S
H2700 C2708 0.950 . S
H2701 C2713 0.950 . S
H2702 C2710 0.950 . S
H2703 C2712 0.950 . S
H2704 C2714 0.950 . S
H2705 C2716 0.950 . S
H2706 C2718 0.950 . S
H2707 C2719 0.950 . S
C2708 H2700 0.950 . S
C2708 C2709 1.386 . S
C2708 C2710 1.391 . S
C2709 C2708 1.386 . S
C2709 C2713 1.393 . S
C2710 H2702 0.950 . S
C2710 C2708 1.391 . S
C2710 C2711 1.400 . S
C2711 C2710 1.400 . S
C2711 C2712 1.398 . S
C2711 C2717 1.491 . S
C2712 H2703 0.950 . S
C2712 C2711 1.398 . S
C2712 C2713 1.391 . S
C2713 H2701 0.950 . S
C2713 C2709 1.393 . S
C2713 C2712 1.391 . S
C2714 H2704 0.950 . S
C2714 C2715 1.386 . S
C2714 C2716 1.391 . S
C2715 C2714 1.386 . S
C2715 C2719 1.393 . S
C2716 H2705 0.950 . S
C2716 C2714 1.391 . S
C2716 C2717 1.400 . S
C2717 C2711 1.491 . S
C2717 C2716 1.400 . S
C2717 C2718 1.398 . S
C2718 H2706 0.950 . S
C2718 C2717 1.398 . S
C2718 C2719 1.391 . S
C2719 H2707 0.950 . S
C2719 C2715 1.393 . S
C2719 C2718 1.391 . S
H2720 C2728 0.950 . S
H2721 C2733 0.950 . S
H2722 C2730 0.950 . S
H2723 C2732 0.950 . S
H2724 C2734 0.950 . S
H2725 C2736 0.950 . S
H2726 C2738 0.950 . S
H2727 C2739 0.950 . S
C2728 H2720 0.950 . S
C2728 C2729 1.386 . S
C2728 C2730 1.391 . S
C2729 C2728 1.386 . S
C2729 C2733 1.393 . S
C2730 H2722 0.950 . S
C2730 C2728 1.391 . S
C2730 C2731 1.400 . S
C2731 C2730 1.400 . S
C2731 C2732 1.398 . S
C2731 C2737 1.491 . S
C2732 H2723 0.950 . S
C2732 C2731 1.398 . S
C2732 C2733 1.391 . S
C2733 H2721 0.950 . S
C2733 C2729 1.393 . S
C2733 C2732 1.391 . S
C2734 H2724 0.950 . S
C2734 C2735 1.386 . S
C2734 C2736 1.391 . S
C2735 C2734 1.386 . S
C2735 C2739 1.393 . S
C2736 H2725 0.950 . S
C2736 C2734 1.391 . S
C2736 C2737 1.400 . S
C2737 C2731 1.491 . S
C2737 C2736 1.400 . S
C2737 C2738 1.398 . S
C2738 H2726 0.950 . S
C2738 C2737 1.398 . S
C2738 C2739 1.391 . S
C2739 H2727 0.950 . S
C2739 C2735 1.393 . S
C2739 C2738 1.391 . S
H2740 C2748 0.950 . S
H2741 C2753 0.950 . S
H2742 C2750 0.950 . S
H2743 C2752 0.950 . S
H2744 C2754 0.950 . S
H2745 C2756 0.950 . S
H2746 C2758 0.950 . S
H2747 C2759 0.950 . S
C2748 H2740 0.950 . S
C2748 C2749 1.386 . S
C2748 C2750 1.391 . S
C2749 C2748 1.386 . S
C2749 C2753 1.393 . S
C2750 H2742 0.950 . S
C2750 C2748 1.391 . S
C2750 C2751 1.400 . S
C2751 C2750 1.400 . S
C2751 C2752 1.398 . S
C2751 C2757 1.491 . S
C2752 H2743 0.950 . S
C2752 C2751 1.398 . S
C2752 C2753 1.391 . S
C2753 H2741 0.950 . S
C2753 C2749 1.393 . S
C2753 C2752 1.391 . S
C2754 H2744 0.950 . S
C2754 C2755 1.386 . S
C2754 C2756 1.391 . S
C2755 C2754 1.386 . S
C2755 C2759 1.393 . S
C2756 H2745 0.950 . S
C2756 C2754 1.391 . S
C2756 C2757 1.400 . S
C2757 C2751 1.491 . S
C2757 C2756 1.400 . S
C2757 C2758 1.398 . S
C2758 H2746 0.950 . S
C2758 C2757 1.398 . S
C2758 C2759 1.391 . S
C2759 H2747 0.950 . S
C2759 C2755 1.393 . S
C2759 C2758 1.391 . S
H2760 C2768 0.950 . S
H2761 C2773 0.950 . S
H2762 C2770 0.950 . S
H2763 C2772 0.950 . S
H2764 C2774 0.950 . S
H2765 C2776 0.950 . S
H2766 C2778 0.950 . S
H2767 C2779 0.950 . S
C2768 H2760 0.950 . S
C2768 C2769 1.386 . S
C2768 C2770 1.391 . S
C2769 C2768 1.386 . S
C2769 C2773 1.393 . S
C2770 H2762 0.950 . S
C2770 C2768 1.391 . S
C2770 C2771 1.400 . S
C2771 C2770 1.400 . S
C2771 C2772 1.398 . S
C2771 C2777 1.491 . S
C2772 H2763 0.950 . S
C2772 C2771 1.398 . S
C2772 C2773 1.391 . S
C2773 H2761 0.950 . S
C2773 C2769 1.393 . S
C2773 C2772 1.391 . S
C2774 H2764 0.950 . S
C2774 C2775 1.386 . S
C2774 C2776 1.391 . S
C2775 C2774 1.386 . S
C2775 C2779 1.393 . S
C2776 H2765 0.950 . S
C2776 C2774 1.391 . S
C2776 C2777 1.400 . S
C2777 C2771 1.491 . S
C2777 C2776 1.400 . S
C2777 C2778 1.398 . S
C2778 H2766 0.950 . S
C2778 C2777 1.398 . S
C2778 C2779 1.391 . S
C2779 H2767 0.950 . S
C2779 C2775 1.393 . S
C2779 C2778 1.391 . S
H2780 C2788 0.950 . S
H2781 C2793 0.950 . S
H2782 C2790 0.950 . S
H2783 C2792 0.950 . S
H2784 C2794 0.950 . S
H2785 C2796 0.950 . S
H2786 C2798 0.950 . S
H2787 C2799 0.950 . S
C2788 H2780 0.950 . S
C2788 C2789 1.386 . S
C2788 C2790 1.391 . S
C2789 C2788 1.386 . S
C2789 C2793 1.393 . S
C2790 H2782 0.950 . S
C2790 C2788 1.391 . S
C2790 C2791 1.400 . S
C2791 C2790 1.400 . S
C2791 C2792 1.398 . S
C2791 C2797 1.491 . S
C2792 H2783 0.950 . S
C2792 C2791 1.398 . S
C2792 C2793 1.391 . S
C2793 H2781 0.950 . S
C2793 C2789 1.393 . S
C2793 C2792 1.391 . S
C2794 H2784 0.950 . S
C2794 C2795 1.386 . S
C2794 C2796 1.391 . S
C2795 C2794 1.386 . S
C2795 C2799 1.393 . S
C2796 H2785 0.950 . S
C2796 C2794 1.391 . S
C2796 C2797 1.400 . S
C2797 C2791 1.491 . S
C2797 C2796 1.400 . S
C2797 C2798 1.398 . S
C2798 H2786 0.950 . S
C2798 C2797 1.398 . S
C2798 C2799 1.391 . S
C2799 H2787 0.950 . S
C2799 C2795 1.393 . S
C2799 C2798 1.391 . S
H2800 C2808 0.950 . S
H2801 C2813 0.950 . S
H2802 C2810 0.950 . S
H2803 C2812 0.950 . S
H2804 C2814 0.950 . S
H2805 C2816 0.950 . S
H2806 C2818 0.950 . S
H2807 C2819 0.950 . S
C2808 H2800 0.950 . S
C2808 C2809 1.386 . S
C2808 C2810 1.391 . S
C2809 C2808 1.386 . S
C2809 C2813 1.393 . S
C2810 H2802 0.950 . S
C2810 C2808 1.391 . S
C2810 C2811 1.400 . S
C2811 C2810 1.400 . S
C2811 C2812 1.398 . S
C2811 C2817 1.491 . S
C2812 H2803 0.950 . S
C2812 C2811 1.398 . S
C2812 C2813 1.391 . S
C2813 H2801 0.950 . S
C2813 C2809 1.393 . S
C2813 C2812 1.391 . S
C2814 H2804 0.950 . S
C2814 C2815 1.386 . S
C2814 C2816 1.391 . S
C2815 C2814 1.386 . S
C2815 C2819 1.393 . S
C2816 H2805 0.950 . S
C2816 C2814 1.391 . S
C2816 C2817 1.400 . S
C2817 C2811 1.491 . S
C2817 C2816 1.400 . S
C2817 C2818 1.398 . S
C2818 H2806 0.950 . S
C2818 C2817 1.398 . S
C2818 C2819 1.391 . S
C2819 H2807 0.950 . S
C2819 C2815 1.393 . S
C2819 C2818 1.391 . S
H2820 C2828 0.950 . S
H2821 C2833 0.950 . S
H2822 C2830 0.950 . S
H2823 C2832 0.950 . S
H2824 C2834 0.950 . S
H2825 C2836 0.950 . S
H2826 C2838 0.950 . S
H2827 C2839 0.950 . S
C2828 H2820 0.950 . S
C2828 C2829 1.386 . S
C2828 C2830 1.391 . S
C2829 C2828 1.386 . S
C2829 C2833 1.393 . S
C2830 H2822 0.950 . S
C2830 C2828 1.391 . S
C2830 C2831 1.400 . S
C2831 C2830 1.400 . S
C2831 C2832 1.398 . S
C2831 C2837 1.491 . S
C2832 H2823 0.950 . S
C2832 C2831 1.398 . S
C2832 C2833 1.391 . S
C2833 H2821 0.950 . S
C2833 C2829 1.393 . S
C2833 C2832 1.391 . S
C2834 H2824 0.950 . S
C2834 C2835 1.386 . S
C2834 C2836 1.391 . S
C2835 C2834 1.386 . S
C2835 C2839 1.393 . S
C2836 H2825 0.950 . S
C2836 C2834 1.391 . S
C2836 C2837 1.400 . S
C2837 C2831 1.491 . S
C2837 C2836 1.400 . S
C2837 C2838 1.398 . S
C2838 H2826 0.950 . S
C2838 C2837 1.398 . S
C2838 C2839 1.391 . S
C2839 H2827 0.950 . S
C2839 C2835 1.393 . S
C2839 C2838 1.391 . S
H2840 C2848 0.950 . S
H2841 C2853 0.950 . S
H2842 C2850 0.950 . S
H2843 C2852 0.950 . S
H2844 C2854 0.950 . S
H2845 C2856 0.950 . S
H2846 C2858 0.950 . S
H2847 C2859 0.950 . S
C2848 H2840 0.950 . S
C2848 C2849 1.386 . S
C2848 C2850 1.391 . S
C2849 C2848 1.386 . S
C2849 C2853 1.393 . S
C2850 H2842 0.950 . S
C2850 C2848 1.391 . S
C2850 C2851 1.400 . S
C2851 C2850 1.400 . S
C2851 C2852 1.398 . S
C2851 C2857 1.491 . S
C2852 H2843 0.950 . S
C2852 C2851 1.398 . S
C2852 C2853 1.391 . S
C2853 H2841 0.950 . S
C2853 C2849 1.393 . S
C2853 C2852 1.391 . S
C2854 H2844 0.950 . S
C2854 C2855 1.386 . S
C2854 C2856 1.391 . S
C2855 C2854 1.386 . S
C2855 C2859 1.393 . S
C2856 H2845 0.950 . S
C2856 C2854 1.391 . S
C2856 C2857 1.400 . S
C2857 C2851 1.491 . S
C2857 C2856 1.400 . S
C2857 C2858 1.398 . S
C2858 H2846 0.950 . S
C2858 C2857 1.398 . S
C2858 C2859 1.391 . S
C2859 H2847 0.950 . S
C2859 C2855 1.393 . S
C2859 C2858 1.391 . S
H2860 C2868 0.950 . S
H2861 C2873 0.950 . S
H2862 C2870 0.950 . S
H2863 C2872 0.950 . S
H2864 C2874 0.950 . S
H2865 C2876 0.950 . S
H2866 C2878 0.950 . S
H2867 C2879 0.950 . S
C2868 H2860 0.950 . S
C2868 C2869 1.386 . S
C2868 C2870 1.391 . S
C2869 C2868 1.386 . S
C2869 C2873 1.393 . S
C2870 H2862 0.950 . S
C2870 C2868 1.391 . S
C2870 C2871 1.400 . S
C2871 C2870 1.400 . S
C2871 C2872 1.398 . S
C2871 C2877 1.491 . S
C2872 H2863 0.950 . S
C2872 C2871 1.398 . S
C2872 C2873 1.391 . S
C2873 H2861 0.950 . S
C2873 C2869 1.393 . S
C2873 C2872 1.391 . S
C2874 H2864 0.950 . S
C2874 C2875 1.386 . S
C2874 C2876 1.391 . S
C2875 C2874 1.386 . S
C2875 C2879 1.393 . S
C2876 H2865 0.950 . S
C2876 C2874 1.391 . S
C2876 C2877 1.400 . S
C2877 C2871 1.491 . S
C2877 C2876 1.400 . S
C2877 C2878 1.398 . S
C2878 H2866 0.950 . S
C2878 C2877 1.398 . S
C2878 C2879 1.391 . S
C2879 H2867 0.950 . S
C2879 C2875 1.393 . S
C2879 C2878 1.391 . S
H2880 C2888 0.950 . S
H2881 C2893 0.950 . S
H2882 C2890 0.950 . S
H2883 C2892 0.950 . S
H2884 C2894 0.950 . S
H2885 C2896 0.950 . S
H2886 C2898 0.950 . S
H2887 C2899 0.950 . S
C2888 H2880 0.950 . S
C2888 C2889 1.386 . S
C2888 C2890 1.391 . S
C2889 C2888 1.386 . S
C2889 C2893 1.393 . S
C2890 H2882 0.950 . S
C2890 C2888 1.391 . S
C2890 C2891 1.400 . S
C2891 C2890 1.400 . S
C2891 C2892 1.398 . S
C2891 C2897 1.491 . S
C2892 H2883 0.950 . S
C2892 C2891 1.398 . S
C2892 C2893 1.391 . S
C2893 H2881 0.950 . S
C2893 C2889 1.393 . S
C2893 C2892 1.391 . S
C2894 H2884 0.950 . S
C2894 C2895 1.386 . S
C2894 C2896 1.391 . S
C2895 C2894 1.386 . S
C2895 C2899 1.393 . S
C2896 H2885 0.950 . S
C2896 C2894 1.391 . S
C2896 C2897 1.400 . S
C2897 C2891 1.491 . S
C2897 C2896 1.400 . S
C2897 C2898 1.398 . S
C2898 H2886 0.950 . S
C2898 C2897 1.398 . S
C2898 C2899 1.391 . S
C2899 H2887 0.950 . S
C2899 C2895 1.393 . S
C2899 C2898 1.391 . S
H2900 C2908 0.950 . S
H2901 C2913 0.950 . S
H2902 C2910 0.950 . S
H2903 C2912 0.950 . S
H2904 C2914 0.950 . S
H2905 C2916 0.950 . S
H2906 C2918 0.950 . S
H2907 C2919 0.950 . S
C2908 H2900 0.950 . S
C2908 C2909 1.386 . S
C2908 C2910 1.391 . S
C2909 C2908 1.386 . S
C2909 C2913 1.393 . S
C2910 H2902 0.950 . S
C2910 C2908 1.391 . S
C2910 C2911 1.400 . S
C2911 C2910 1.400 . S
C2911 C2912 1.398 . S
C2911 C2917 1.491 . S
C2912 H2903 0.950 . S
C2912 C2911 1.398 . S
C2912 C2913 1.391 . S
C2913 H2901 0.950 . S
C2913 C2909 1.393 . S
C2913 C2912 1.391 . S
C2914 H2904 0.950 . S
C2914 C2915 1.386 . S
C2914 C2916 1.391 . S
C2915 C2914 1.386 . S
C2915 C2919 1.393 . S
C2916 H2905 0.950 . S
C2916 C2914 1.391 . S
C2916 C2917 1.400 . S
C2917 C2911 1.491 . S
C2917 C2916 1.400 . S
C2917 C2918 1.398 . S
C2918 H2906 0.950 . S
C2918 C2917 1.398 . S
C2918 C2919 1.391 . S
C2919 H2907 0.950 . S
C2919 C2915 1.393 . S
C2919 C2918 1.391 . S
H2920 C2928 0.950 . S
H2921 C2933 0.950 . S
H2922 C2930 0.950 . S
H2923 C2932 0.950 . S
H2924 C2934 0.950 . S
H2925 C2936 0.950 . S
H2926 C2938 0.950 . S
H2927 C2939 0.950 . S
C2928 H2920 0.950 . S
C2928 C2929 1.386 . S
C2928 C2930 1.391 . S
C2929 C2928 1.386 . S
C2929 C2933 1.393 . S
C2930 H2922 0.950 . S
C2930 C2928 1.391 . S
C2930 C2931 1.400 . S
C2931 C2930 1.400 . S
C2931 C2932 1.398 . S
C2931 C2937 1.491 . S
C2932 H2923 0.950 . S
C2932 C2931 1.398 . S
C2932 C2933 1.391 . S
C2933 H2921 0.950 . S
C2933 C2929 1.393 . S
C2933 C2932 1.391 . S
C2934 H2924 0.950 . S
C2934 C2935 1.386 . S
C2934 C2936 1.391 . S
C2935 C2934 1.386 . S
C2935 C2939 1.393 . S
C2936 H2925 0.950 . S
C2936 C2934 1.391 . S
C2936 C2937 1.400 . S
C2937 C2931 1.491 . S
C2937 C2936 1.400 . S
C2937 C2938 1.398 . S
C2938 H2926 0.950 . S
C2938 C2937 1.398 . S
C2938 C2939 1.391 . S
C2939 H2927 0.950 . S
C2939 C2935 1.393 . S
C2939 C2938 1.391 . S
H2940 C2948 0.950 . S
H2941 C2953 0.950 . S
H2942 C2950 0.950 . S
H2943 C2952 0.950 . S
H2944 C2954 0.950 . S
H2945 C2956 0.950 . S
H2946 C2958 0.950 . S
H2947 C2959 0.950 . S
C2948 H2940 0.950 . S
C2948 C2949 1.386 . S
C2948 C2950 1.391 . S
C2949 C2948 1.386 . S
C2949 C2953 1.393 . S
C2950 H2942 0.950 . S
C2950 C2948 1.391 . S
C2950 C2951 1.400 . S
C2951 C2950 1.400 . S
C2951 C2952 1.398 . S
C2951 C2957 1.491 . S
C2952 H2943 0.950 . S
C2952 C2951 1.398 . S
C2952 C2953 1.391 . S
C2953 H2941 0.950 . S
C2953 C2949 1.393 . S
C2953 C2952 1.391 . S
C2954 H2944 0.950 . S
C2954 C2955 1.386 . S
C2954 C2956 1.391 . S
C2955 C2954 1.386 . S
C2955 C2959 1.393 . S
C2956 H2945 0.950 . S
C2956 C2954 1.391 . S
C2956 C2957 1.400 . S
C2957 C2951 1.491 . S
C2957 C2956 1.400 . S
C2957 C2958 1.398 . S
C2958 H2946 0.950 . S
C2958 C2957 1.398 . S
C2958 C2959 1.391 . S
C2959 H2947 0.950 . S
C2959 C2955 1.393 . S
C2959 C2958 1.391 . S
H2960 C2968 0.950 . S
H2961 C2973 0.950 . S
H2962 C2970 0.950 . S
H2963 C2972 0.950 . S
H2964 C2974 0.950 . S
H2965 C2976 0.950 . S
H2966 C2978 0.950 . S
H2967 C2979 0.950 . S
C2968 H2960 0.950 . S
C2968 C2969 1.386 . S
C2968 C2970 1.391 . S
C2969 C2968 1.386 . S
C2969 C2973 1.393 . S
C2970 H2962 0.950 . S
C2970 C2968 1.391 . S
C2970 C2971 1.400 . S
C2971 C2970 1.400 . S
C2971 C2972 1.398 . S
C2971 C2977 1.491 . S
C2972 H2963 0.950 . S
C2972 C2971 1.398 . S
C2972 C2973 1.391 . S
C2973 H2961 0.950 . S
C2973 C2969 1.393 . S
C2973 C2972 1.391 . S
C2974 H2964 0.950 . S
C2974 C2975 1.386 . S
C2974 C2976 1.391 . S
C2975 C2974 1.386 . S
C2975 C2979 1.393 . S
C2976 H2965 0.950 . S
C2976 C2974 1.391 . S
C2976 C2977 1.400 . S
C2977 C2971 1.491 . S
C2977 C2976 1.400 . S
C2977 C2978 1.398 . S
C2978 H2966 0.950 . S
C2978 C2977 1.398 . S
C2978 C2979 1.391 . S
C2979 H2967 0.950 . S
C2979 C2975 1.393 . S
C2979 C2978 1.391 . S
H2980 C2988 0.950 . S
H2981 C2993 0.950 . S
H2982 C2990 0.950 . S
H2983 C2992 0.950 . S
H2984 C2994 0.950 . S
H2985 C2996 0.950 . S
H2986 C2998 0.950 . S
H2987 C2999 0.950 . S
C2988 H2980 0.950 . S
C2988 C2989 1.386 . S
C2988 C2990 1.391 . S
C2989 C2988 1.386 . S
C2989 C2993 1.393 . S
C2990 H2982 0.950 . S
C2990 C2988 1.391 . S
C2990 C2991 1.400 . S
C2991 C2990 1.400 . S
C2991 C2992 1.398 . S
C2991 C2997 1.491 . S
C2992 H2983 0.950 . S
C2992 C2991 1.398 . S
C2992 C2993 1.391 . S
C2993 H2981 0.950 . S
C2993 C2989 1.393 . S
C2993 C2992 1.391 . S
C2994 H2984 0.950 . S
C2994 C2995 1.386 . S
C2994 C2996 1.391 . S
C2995 C2994 1.386 . S
C2995 C2999 1.393 . S
C2996 H2985 0.950 . S
C2996 C2994 1.391 . S
C2996 C2997 1.400 . S
C2997 C2991 1.491 . S
C2997 C2996 1.400 . S
C2997 C2998 1.398 . S
C2998 H2986 0.950 . S
C2998 C2997 1.398 . S
C2998 C2999 1.391 . S
C2999 H2987 0.950 . S
C2999 C2995 1.393 . S
C2999 C2998 1.391 . S
H3000 C3008 0.950 . S
H3001 C3013 0.950 . S
H3002 C3010 0.950 . S
H3003 C3012 0.950 . S
H3004 C3014 0.950 . S
H3005 C3016 0.950 . S
H3006 C3018 0.950 . S
H3007 C3019 0.950 . S
C3008 H3000 0.950 . S
C3008 C3009 1.386 . S
C3008 C3010 1.391 . S
C3009 C3008 1.386 . S
C3009 C3013 1.393 . S
C3010 H3002 0.950 . S
C3010 C3008 1.391 . S
C3010 C3011 1.400 . S
C3011 C3010 1.400 . S
C3011 C3012 1.398 . S
C3011 C3017 1.491 . S
C3012 H3003 0.950 . S
C3012 C3011 1.398 . S
C3012 C3013 1.391 . S
C3013 H3001 0.950 . S
C3013 C3009 1.393 . S
C3013 C3012 1.391 . S
C3014 H3004 0.950 . S
C3014 C3015 1.386 . S
C3014 C3016 1.391 . S
C3015 C3014 1.386 . S
C3015 C3019 1.393 . S
C3016 H3005 0.950 . S
C3016 C3014 1.391 . S
C3016 C3017 1.400 . S
C3017 C3011 1.491 . S
C3017 C3016 1.400 . S
C3017 C3018 1.398 . S
C3018 H3006 0.950 . S
C3018 C3017 1.398 . S
C3018 C3019 1.391 . S
C3019 H3007 0.950 . S
C3019 C3015 1.393 . S
C3019 C3018 1.391 . S
H3020 C3028 0.950 . S
H3021 C3033 0.950 . S
H3022 C3030 0.950 . S
H3023 C3032 0.950 . S
H3024 C3034 0.950 . S
H3025 C3036 0.950 . S
H3026 C3038 0.950 . S
H3027 C3039 0.950 . S
C3028 H3020 0.950 . S
C3028 C3029 1.386 . S
C3028 C3030 1.391 . S
C3029 C3028 1.386 . S
C3029 C3033 1.393 . S
C3030 H3022 0.950 . S
C3030 C3028 1.391 . S
C3030 C3031 1.400 . S
C3031 C3030 1.400 . S
C3031 C3032 1.398 . S
C3031 C3037 1.491 . S
C3032 H3023 0.950 . S
C3032 C3031 1.398 . S
C3032 C3033 1.391 . S
C3033 H3021 0.950 . S
C3033 C3029 1.393 . S
C3033 C3032 1.391 . S
C3034 H3024 0.950 . S
C3034 C3035 1.386 . S
C3034 C3036 1.391 . S
C3035 C3034 1.386 . S
C3035 C3039 1.393 . S
C3036 H3025 0.950 . S
C3036 C3034 1.391 . S
C3036 C3037 1.400 . S
C3037 C3031 1.491 . S
C3037 C3036 1.400 . S
C3037 C3038 1.398 . S
C3038 H3026 0.950 . S
C3038 C3037 1.398 . S
C3038 C3039 1.391 . S
C3039 H3027 0.950 . S
C3039 C3035 1.393 . S
C3039 C3038 1.391 . S
H3040 C3048 0.950 . S
H3041 C3053 0.950 . S
H3042 C3050 0.950 . S
H3043 C3052 0.950 . S
H3044 C3054 0.950 . S
H3045 C3056 0.950 . S
H3046 C3058 0.950 . S
H3047 C3059 0.950 . S
C3048 H3040 0.950 . S
C3048 C3049 1.386 . S
C3048 C3050 1.391 . S
C3049 C3048 1.386 . S
C3049 C3053 1.393 . S
C3050 H3042 0.950 . S
C3050 C3048 1.391 . S
C3050 C3051 1.400 . S
C3051 C3050 1.400 . S
C3051 C3052 1.398 . S
C3051 C3057 1.491 . S
C3052 H3043 0.950 . S
C3052 C3051 1.398 . S
C3052 C3053 1.391 . S
C3053 H3041 0.950 . S
C3053 C3049 1.393 . S
C3053 C3052 1.391 . S
C3054 H3044 0.950 . S
C3054 C3055 1.386 . S
C3054 C3056 1.391 . S
C3055 C3054 1.386 . S
C3055 C3059 1.393 . S
C3056 H3045 0.950 . S
C3056 C3054 1.391 . S
C3056 C3057 1.400 . S
C3057 C3051 1.491 . S
C3057 C3056 1.400 . S
C3057 C3058 1.398 . S
C3058 H3046 0.950 . S
C3058 C3057 1.398 . S
C3058 C3059 1.391 . S
C3059 H3047 0.950 . S
C3059 C3055 1.393 . S
C3059 C3058 1.391 . S
H3060 C3068 0.950 . S
H3061 C3073 0.950 . S
H3062 C3070 0.950 . S
H3063 C3072 0.950 . S
H3064 C3074 0.950 . S
H3065 C3076 0.950 . S
H3066 C3078 0.950 . S
H3067 C3079 0.950 . S
C3068 H3060 0.950 . S
C3068 C3069 1.386 . S
C3068 C3070 1.391 . S
C3069 C3068 1.386 . S
C3069 C3073 1.393 . S
C3070 H3062 0.950 . S
C3070 C3068 1.391 . S
C3070 C3071 1.400 . S
C3071 C3070 1.400 . S
C3071 C3072 1.398 . S
C3071 C3077 1.491 . S
C3072 H3063 0.950 . S
C3072 C3071 1.398 . S
C3072 C3073 1.391 . S
C3073 H3061 0.950 . S
C3073 C3069 1.393 . S
C3073 C3072 1.391 . S
C3074 H3064 0.950 . S
C3074 C3075 1.386 . S
C3074 C3076 1.391 . S
C3075 C3074 1.386 . S
C3075 C3079 1.393 . S
C3076 H3065 0.950 . S
C3076 C3074 1.391 . S
C3076 C3077 1.400 . S
C3077 C3071 1.491 . S
C3077 C3076 1.400 . S
C3077 C3078 1.398 . S
C3078 H3066 0.950 . S
C3078 C3077 1.398 . S
C3078 C3079 1.391 . S
C3079 H3067 0.950 . S
C3079 C3075 1.393 . S
C3079 C3078 1.391 . S
H3080 C3088 0.950 . S
H3081 C3093 0.950 . S
H3082 C3090 0.950 . S
H3083 C3092 0.950 . S
H3084 C3094 0.950 . S
H3085 C3096 0.950 . S
H3086 C3098 0.950 . S
H3087 C3099 0.950 . S
C3088 H3080 0.950 . S
C3088 C3089 1.386 . S
C3088 C3090 1.391 . S
C3089 C3088 1.386 . S
C3089 C3093 1.393 . S
C3090 H3082 0.950 . S
C3090 C3088 1.391 . S
C3090 C3091 1.400 . S
C3091 C3090 1.400 . S
C3091 C3092 1.398 . S
C3091 C3097 1.491 . S
C3092 H3083 0.950 . S
C3092 C3091 1.398 . S
C3092 C3093 1.391 . S
C3093 H3081 0.950 . S
C3093 C3089 1.393 . S
C3093 C3092 1.391 . S
C3094 H3084 0.950 . S
C3094 C3095 1.386 . S
C3094 C3096 1.391 . S
C3095 C3094 1.386 . S
C3095 C3099 1.393 . S
C3096 H3085 0.950 . S
C3096 C3094 1.391 . S
C3096 C3097 1.400 . S
C3097 C3091 1.491 . S
C3097 C3096 1.400 . S
C3097 C3098 1.398 . S
C3098 H3086 0.950 . S
C3098 C3097 1.398 . S
C3098 C3099 1.391 . S
C3099 H3087 0.950 . S
C3099 C3095 1.393 . S
C3099 C3098 1.391 . S
H3100 C3108 0.950 . S
H3101 C3113 0.950 . S
H3102 C3110 0.950 . S
H3103 C3112 0.950 . S
H3104 C3114 0.950 . S
H3105 C3116 0.950 . S
H3106 C3118 0.950 . S
H3107 C3119 0.950 . S
C3108 H3100 0.950 . S
C3108 C3109 1.386 . S
C3108 C3110 1.391 . S
C3109 C3108 1.386 . S
C3109 C3113 1.393 . S
C3110 H3102 0.950 . S
C3110 C3108 1.391 . S
C3110 C3111 1.400 . S
C3111 C3110 1.400 . S
C3111 C3112 1.398 . S
C3111 C3117 1.491 . S
C3112 H3103 0.950 . S
C3112 C3111 1.398 . S
C3112 C3113 1.391 . S
C3113 H3101 0.950 . S
C3113 C3109 1.393 . S
C3113 C3112 1.391 . S
C3114 H3104 0.950 . S
C3114 C3115 1.386 . S
C3114 C3116 1.391 . S
C3115 C3114 1.386 . S
C3115 C3119 1.393 . S
C3116 H3105 0.950 . S
C3116 C3114 1.391 . S
C3116 C3117 1.400 . S
C3117 C3111 1.491 . S
C3117 C3116 1.400 . S
C3117 C3118 1.398 . S
C3118 H3106 0.950 . S
C3118 C3117 1.398 . S
C3118 C3119 1.391 . S
C3119 H3107 0.950 . S
C3119 C3115 1.393 . S
C3119 C3118 1.391 . S
H3120 C3128 0.950 . S
H3121 C3133 0.950 . S
H3122 C3130 0.950 . S
H3123 C3132 0.950 . S
H3124 C3134 0.950 . S
H3125 C3136 0.950 . S
H3126 C3138 0.950 . S
H3127 C3139 0.950 . S
C3128 H3120 0.950 . S
C3128 C3129 1.386 . S
C3128 C3130 1.391 . S
C3129 C3128 1.386 . S
C3129 C3133 1.393 . S
C3130 H3122 0.950 . S
C3130 C3128 1.391 . S
C3130 C3131 1.400 . S
C3131 C3130 1.400 . S
C3131 C3132 1.398 . S
C3131 C3137 1.491 . S
C3132 H3123 0.950 . S
C3132 C3131 1.398 . S
C3132 C3133 1.391 . S
C3133 H3121 0.950 . S
C3133 C3129 1.393 . S
C3133 C3132 1.391 . S
C3134 H3124 0.950 . S
C3134 C3135 1.386 . S
C3134 C3136 1.391 . S
C3135 C3134 1.386 . S
C3135 C3139 1.393 . S
C3136 H3125 0.950 . S
C3136 C3134 1.391 . S
C3136 C3137 1.400 . S
C3137 C3131 1.491 . S
C3137 C3136 1.400 . S
C3137 C3138 1.398 . S
C3138 H3126 0.950 . S
C3138 C3137 1.398 . S
C3138 C3139 1.391 . S
C3139 H3127 0.950 . S
C3139 C3135 1.393 . S
C3139 C3138 1.391 . S
H3140 C3148 0.950 . S
H3141 C3153 0.950 . S
H3142 C3150 0.950 . S
H3143 C3152 0.950 . S
H3144 C3154 0.950 . S
H3145 C3156 0.950 . S
H3146 C3158 0.950 . S
H3147 C3159 0.950 . S
C3148 H3140 0.950 . S
C3148 C3149 1.386 . S
C3148 C3150 1.391 . S
C3149 C3148 1.386 . S
C3149 C3153 1.393 . S
C3150 H3142 0.950 . S
C3150 C3148 1.391 . S
C3150 C3151 1.400 . S
C3151 C3150 1.400 . S
C3151 C3152 1.398 . S
C3151 C3157 1.491 . S
C3152 H3143 0.950 . S
C3152 C3151 1.398 . S
C3152 C3153 1.391 . S
C3153 H3141 0.950 . S
C3153 C3149 1.393 . S
C3153 C3152 1.391 . S
C3154 H3144 0.950 . S
C3154 C3155 1.386 . S
C3154 C3156 1.391 . S
C3155 C3154 1.386 . S
C3155 C3159 1.393 . S
C3156 H3145 0.950 . S
C3156 C3154 1.391 . S
C3156 C3157 1.400 . S
C3157 C3151 1.491 . S
C3157 C3156 1.400 . S
C3157 C3158 1.398 . S
C3158 H3146 0.950 . S
C3158 C3157 1.398 . S
C3158 C3159 1.391 . S
C3159 H3147 0.950 . S
C3159 C3155 1.393 . S
C3159 C3158 1.391 . S
H3160 C3168 0.950 . S
H3161 C3173 0.950 . S
H3162 C3170 0.950 . S
H3163 C3172 0.950 . S
H3164 C3174 0.950 . S
H3165 C3176 0.950 . S
H3166 C3178 0.950 . S
H3167 C3179 0.950 . S
C3168 H3160 0.950 . S
C3168 C3169 1.386 . S
C3168 C3170 1.391 . S
C3169 C3168 1.386 . S
C3169 C3173 1.393 . S
C3170 H3162 0.950 . S
C3170 C3168 1.391 . S
C3170 C3171 1.400 . S
C3171 C3170 1.400 . S
C3171 C3172 1.398 . S
C3171 C3177 1.491 . S
C3172 H3163 0.950 . S
C3172 C3171 1.398 . S
C3172 C3173 1.391 . S
C3173 H3161 0.950 . S
C3173 C3169 1.393 . S
C3173 C3172 1.391 . S
C3174 H3164 0.950 . S
C3174 C3175 1.386 . S
C3174 C3176 1.391 . S
C3175 C3174 1.386 . S
C3175 C3179 1.393 . S
C3176 H3165 0.950 . S
C3176 C3174 1.391 . S
C3176 C3177 1.400 . S
C3177 C3171 1.491 . S
C3177 C3176 1.400 . S
C3177 C3178 1.398 . S
C3178 H3166 0.950 . S
C3178 C3177 1.398 . S
C3178 C3179 1.391 . S
C3179 H3167 0.950 . S
C3179 C3175 1.393 . S
C3179 C3178 1.391 . S
C1755 C1446 1.018 . S
C1749 C1400 1.010 . S
C1769 C1280 1.017 . S
C1775 C1444 1.018 . S
C1795 C1445 1.018 . S
C1789 C1220 1.023 . S
C1809 C1340 1.017 . S
C1815 C1447 1.018 . S
C1835 C1491 1.018 . S
C1829 C980 1.007 . S
C1855 C1551 1.018 . S
C1849 C1040 0.994 . S
C1869 C1100 0.996 . S
C1875 C1490 1.018 . S
C1895 C1550 1.018 . S
C1889 C1160 0.987 . S
C1909 C740 0.994 . S
C1915 C1492 1.026 . S
C1935 C1548 1.018 . S
C1929 C800 0.994 . S
C1949 C860 1.012 . S
C1955 C1493 1.018 . S
C1969 C920 1.003 . S
C1975 C1549 1.026 . S
C1995 C1599 1.017 . S
C1989 C680 1.010 1_556 S
C2009 C560 1.016 . S
C2015 C1598 1.018 . S
C2029 C500 1.005 1_554 S
C2035 C1600 1.017 1_556 S
C2055 C1601 1.017 1_556 S
C2049 C620 1.011 1_554 S
C2069 C260 0.996 . S
C2075 C1642 1.017 . S
C2089 C320 0.999 . S
C2095 C1701 1.017 . S
C2109 C380 0.993 . S
C2115 C1640 1.018 . S
C2129 C440 1.015 1_545 S
C2135 C1700 1.018 1_565 S
C2155 C1641 1.017 1_655 S
C2149 C20 0.998 1_455 S
C2175 C1698 1.017 . S
C2169 C80 1.000 1_565 S
C2189 C140 1.014 1_455 S
C2195 C1643 1.018 1_655 S
C2215 C1699 1.017 1_565 S
C2209 C200 1.004 . S
C2235 C1443 1.951 1_655 S
C2229 C31 1.908 1_455 S
C2249 C61 1.688 . S
C2255 C1449 1.949 1_565 S
C2269 C121 1.679 1_455 S
C2275 C1441 1.947 1_655 S
C2289 C211 1.896 . S
C2295 C1448 1.939 1_565 S
C2309 C271 1.911 . S
C2315 C1440 1.955 . S
C2335 C1450 1.944 . S
C2329 C331 1.894 . S
C2349 C361 1.710 1_455 S
C2355 C1442 1.948 . S
C2375 C1451 1.943 . S
C2369 C421 1.682 . S
C2395 C1497 1.942 1_565 S
C2389 C181 1.669 . S
C2409 C1 1.710 1_455 S
C2415 C1540 1.948 . S
C2435 C1495 1.947 . S
C2429 C91 1.903 1_565 S
C2455 C1542 1.946 1_655 S
C2449 C151 1.899 1_455 S
C2469 C301 1.695 . S
C2475 C1496 1.951 . S
C2495 C1541 1.950 . S
C2489 C391 1.914 . S
C2515 C1494 1.950 . S
C2509 C451 1.913 . S
C2535 C1543 1.945 . S
C2529 C241 1.690 . S
C2555 C1547 1.950 . S
C2549 C511 1.906 . S
C2569 C571 1.896 . S
C2575 C1546 1.939 1_556 S
C2595 C1498 1.944 . S
C2589 C481 1.675 . S
C2615 C1545 1.942 1_556 S
C2609 C601 1.677 1_554 S
C2629 C691 1.898 1_556 S
C2635 C1501 1.946 . S
C2649 C661 1.692 . S
C2655 C1544 1.950 1_556 S
C2675 C1500 1.950 . S
C2669 C541 1.709 1_556 S
C2695 C1499 1.942 . S
C2689 C631 1.892 1_554 S
C2715 C1593 1.951 . S
C2709 C751 1.914 . S
C2735 C1596 1.947 . S
C2729 C781 1.693 . S
C2749 C841 1.710 . S
C2755 C1592 1.956 . S
C2775 C1594 1.945 . S
C2769 C931 1.909 . S
C2795 C1590 1.946 . S
C2789 C991 1.901 . S
C2809 C1051 1.904 . S
C2815 C1595 1.940 . S
C2829 C1081 1.710 . S
C2835 C1591 1.947 . S
C2855 C1597 1.950 . S
C2849 C1141 1.695 . S
C2875 C1651 1.944 . S
C2869 C901 1.681 . S
C2889 C721 1.682 . S
C2895 C1690 1.950 . S
C2915 C1650 1.943 . S
C2909 C811 1.891 . S
C2935 C1692 1.950 . S
C2929 C871 1.903 . S
C2955 C1649 1.944 . S
C2949 C1021 1.681 . S
C2969 C1111 1.910 . S
C2975 C1691 1.956 . S
C2995 C1648 1.943 . S
C2989 C1171 1.891 . S
C3015 C1693 1.946 . S
C3009 C961 1.680 . S
C3035 C1697 1.944 . S
C3029 C1231 1.901 . S
C3049 C1291 1.903 . S
C3055 C1696 1.940 . S
C3075 C1644 1.943 . S
C3069 C1201 1.678 . S
C3089 C1321 1.677 . S
C3095 C1695 1.949 . S
C3115 C1647 1.949 . S
C3109 C1411 1.900 . S
C3135 C1694 1.943 . S
C3129 C1381 1.671 . S
C3155 C1645 1.947 . S
C3149 C1261 1.692 . S
C3169 C1351 1.896 . S
C3175 C1646 1.937 . S
