# Generated by pormake.
# Topology pyr, (3,6)-cn, num edge types: 1
# Building blocks:
#     Node 0, Type 0, BuildingBlock: BELTOD_clean_linker_0, # of connection points: 3
#     Node 1, Type 0, BuildingBlock: BELTOD_clean_linker_0, # of connection points: 3
#     Node 2, Type 0, BuildingBlock: BELTOD_clean_linker_0, # of connection points: 3
#     Node 3, Type 0, BuildingBlock: BELTOD_clean_linker_0, # of connection points: 3
#     Node 4, Type 0, BuildingBlock: BELTOD_clean_linker_0, # of connection points: 3
#     Node 5, Type 0, BuildingBlock: BELTOD_clean_linker_0, # of connection points: 3
#     Node 6, Type 0, BuildingBlock: BELTOD_clean_linker_0, # of connection points: 3
#     Node 7, Type 0, BuildingBlock: BELTOD_clean_linker_0, # of connection points: 3
#     Node 8, Type 1, BuildingBlock: PAMTUU_clean_sbu_0, # of connection points: 6
#     Node 9, Type 1, BuildingBlock: PAMTUU_clean_sbu_0, # of connection points: 6
#     Node 10, Type 1, BuildingBlock: PAMTUU_clean_sbu_0, # of connection points: 6
#     Node 11, Type 1, BuildingBlock: PAMTUU_clean_sbu_0, # of connection points: 6
#     Edge 12, Type (0, 1), BuildingBlock: CIFDUS_clean_linker_0, # of connection points: 2
#     Edge 13, Type (0, 1), BuildingBlock: CIFDUS_clean_linker_0, # of connection points: 2
#     Edge 14, Type (0, 1), BuildingBlock: CIFDUS_clean_linker_0, # of connection points: 2
#     Edge 15, Type (0, 1), BuildingBlock: CIFDUS_clean_linker_0, # of connection points: 2
#     Edge 16, Type (0, 1), BuildingBlock: CIFDUS_clean_linker_0, # of connection points: 2
#     Edge 17, Type (0, 1), BuildingBlock: CIFDUS_clean_linker_0, # of connection points: 2
#     Edge 18, Type (0, 1), BuildingBlock: CIFDUS_clean_linker_0, # of connection points: 2
#     Edge 19, Type (0, 1), BuildingBlock: CIFDUS_clean_linker_0, # of connection points: 2
#     Edge 20, Type (0, 1), BuildingBlock: CIFDUS_clean_linker_0, # of connection points: 2
#     Edge 21, Type (0, 1), BuildingBlock: CIFDUS_clean_linker_0, # of connection points: 2
#     Edge 22, Type (0, 1), BuildingBlock: CIFDUS_clean_linker_0, # of connection points: 2
#     Edge 23, Type (0, 1), BuildingBlock: CIFDUS_clean_linker_0, # of connection points: 2
#     Edge 24, Type (0, 1), BuildingBlock: CIFDUS_clean_linker_0, # of connection points: 2
#     Edge 25, Type (0, 1), BuildingBlock: CIFDUS_clean_linker_0, # of connection points: 2
#     Edge 26, Type (0, 1), BuildingBlock: CIFDUS_clean_linker_0, # of connection points: 2
#     Edge 27, Type (0, 1), BuildingBlock: CIFDUS_clean_linker_0, # of connection points: 2
#     Edge 28, Type (0, 1), BuildingBlock: CIFDUS_clean_linker_0, # of connection points: 2
#     Edge 29, Type (0, 1), BuildingBlock: CIFDUS_clean_linker_0, # of connection points: 2
#     Edge 30, Type (0, 1), BuildingBlock: CIFDUS_clean_linker_0, # of connection points: 2
#     Edge 31, Type (0, 1), BuildingBlock: CIFDUS_clean_linker_0, # of connection points: 2
#     Edge 32, Type (0, 1), BuildingBlock: CIFDUS_clean_linker_0, # of connection points: 2
#     Edge 33, Type (0, 1), BuildingBlock: CIFDUS_clean_linker_0, # of connection points: 2
#     Edge 34, Type (0, 1), BuildingBlock: CIFDUS_clean_linker_0, # of connection points: 2
#     Edge 35, Type (0, 1), BuildingBlock: CIFDUS_clean_linker_0, # of connection points: 2
# Relax obj value: 0.116
# Max RMSD: 0.137
# Mean RMSD: 0.057
data_MOF--net-pyr--node1-PAMTUU_clean_sbu_0--node2-BELTOD_clean_linker_0--edge1-CIFDUS_clean_linker_0
_symmetry_space_group_name_H-M    P1
_symmetry_Int_Tables_number       1
_symmetry_cell_setting            triclinic
loop_
_symmetry_equiv_pos_as_xyz
'x, y, z'
_cell_length_a     38.520299
_cell_length_b     40.223681
_cell_length_c     38.06893
_cell_angle_alpha  89.85561
_cell_angle_beta   89.238616
_cell_angle_gamma 101.13834
loop_
_atom_site_label
_atom_site_type_symbol
_atom_site_fract_x
_atom_site_fract_y
_atom_site_fract_z
_atom_type_partial_charge
P0 P 0.39599 0.32848 0.24785 0.0
H1 H 0.46436 0.30819 0.2349 0.0
H2 H 0.47966 0.25618 0.21206 0.0
H3 H 0.36924 0.21791 0.18995 0.0
H4 H 0.35417 0.2686 0.21548 0.0
H5 H 0.37405 0.39269 0.25914 0.0
H6 H 0.3272 0.41697 0.23266 0.0
H7 H 0.31546 0.3398 0.15242 0.0
H8 H 0.36393 0.31769 0.17728 0.0
H9 H 0.40902 0.29794 0.31491 0.0
H10 H 0.31872 0.31568 0.25689 0.0
O11 O 0.43149 0.35378 0.26423 0.0
H12 H 0.3691 0.26147 0.35612 0.0
H13 H 0.27931 0.28028 0.29796 0.0
C14 C 0.40824 0.29267 0.22604 0.0
C15 C 0.44356 0.2887 0.22479 0.0
C16 C 0.45226 0.25887 0.21156 0.0
C17 C 0.42575 0.23256 0.19901 0.0
C18 C 0.39042 0.2371 0.19991 0.0
C19 C 0.38176 0.26651 0.21386 0.0
C20 C 0.37208 0.35293 0.22072 0.0
C21 C 0.36236 0.38193 0.23498 0.0
C22 C 0.33508 0.39541 0.22012 0.0
C23 C 0.3166 0.37971 0.19103 0.0
C24 C 0.32883 0.35262 0.17485 0.0
C25 C 0.35651 0.33956 0.18942 0.0
C26 C 0.36698 0.30997 0.28308 0.0
C27 C 0.38069 0.29504 0.31177 0.0
C28 C 0.35792 0.27423 0.33525 0.0
C29 C 0.32119 0.26789 0.32997 0.0
C30 C 0.30755 0.28451 0.30242 0.0
C31 C 0.33021 0.30511 0.27905 0.0
P32 P 0.21821 0.83316 0.69844 0.0
H33 H 0.27896 0.86356 0.73804 0.0
H34 H 0.29019 0.87077 0.80046 0.0
H35 H 0.1847 0.81568 0.82434 0.0
H36 H 0.17389 0.80744 0.761 0.0
H37 H 0.26878 0.8275 0.64228 0.0
H38 H 0.30202 0.78379 0.62793 0.0
H39 H 0.24147 0.71752 0.70582 0.0
H40 H 0.20881 0.76228 0.72084 0.0
H41 H 0.15599 0.85434 0.73035 0.0
H42 H 0.1841 0.81089 0.63313 0.0
O43 O 0.24136 0.86867 0.68053 0.0
H44 H 0.10285 0.86638 0.70393 0.0
H45 H 0.13327 0.8262 0.60525 0.0
C46 C 0.22508 0.83636 0.74495 0.0
C47 C 0.25818 0.85294 0.75659 0.0
C48 C 0.26472 0.85668 0.79231 0.0
C49 C 0.23824 0.84383 0.81717 0.0
C50 C 0.20539 0.82601 0.80559 0.0
C51 C 0.19911 0.82165 0.76954 0.0
C52 C 0.23683 0.79826 0.68303 0.0
C53 C 0.26223 0.80342 0.65595 0.0
C54 C 0.28107 0.77819 0.64754 0.0
C55 C 0.27463 0.74717 0.66593 0.0
C56 C 0.24746 0.74133 0.69159 0.0
C57 C 0.22865 0.76675 0.70005 0.0
C58 C 0.17369 0.83092 0.684 0.0
C59 C 0.1501 0.84612 0.70371 0.0
C60 C 0.11999 0.85382 0.68816 0.0
C61 C 0.11407 0.84834 0.65201 0.0
C62 C 0.13642 0.83068 0.63314 0.0
C63 C 0.16582 0.82193 0.6491 0.0
P64 P 0.68326 0.34388 0.84026 0.0
H65 H 0.75072 0.33033 0.86418 0.0
H66 H 0.79904 0.36174 0.89879 0.0
H67 H 0.73984 0.44132 0.91471 0.0
H68 H 0.69069 0.40899 0.88081 0.0
H69 H 0.69907 0.27665 0.85067 0.0
H70 H 0.67276 0.22728 0.88523 0.0
H71 H 0.59044 0.2787 0.92116 0.0
H72 H 0.61709 0.32869 0.88527 0.0
H73 H 0.69424 0.41599 0.81804 0.0
H74 H 0.61731 0.32499 0.80003 0.0
O75 O 0.70619 0.32835 0.80887 0.0
H76 H 0.66592 0.44604 0.77451 0.0
H77 H 0.58968 0.35478 0.75481 0.0
C78 C 0.71728 0.36763 0.86866 0.0
C79 C 0.74787 0.35447 0.87519 0.0
C80 C 0.77558 0.37244 0.89526 0.0
C81 C 0.77373 0.40436 0.90935 0.0
C82 C 0.74252 0.41709 0.90381 0.0
C83 C 0.71436 0.39865 0.88423 0.0
C84 C 0.65995 0.30657 0.86462 0.0
C85 C 0.67507 0.27747 0.86548 0.0
C86 C 0.66007 0.24907 0.88579 0.0
C87 C 0.62945 0.24866 0.90657 0.0
C88 C 0.61384 0.27774 0.90541 0.0
C89 C 0.6291 0.30648 0.8849 0.0
C90 C 0.65692 0.36842 0.81437 0.0
C91 C 0.67038 0.40263 0.80594 0.0
C92 C 0.65443 0.41981 0.78027 0.0
C93 C 0.62531 0.40303 0.76092 0.0
C94 C 0.612 0.36866 0.76904 0.0
C95 C 0.6275 0.35169 0.79543 0.0
P96 P 0.84105 0.69096 0.33049 0.0
H97 H 0.87511 0.75928 0.30797 0.0
H98 H 0.90102 0.81022 0.34006 0.0
H99 H 0.89554 0.75117 0.43567 0.0
H100 H 0.86844 0.70045 0.40329 0.0
H101 H 0.81329 0.6517 0.26971 0.0
H102 H 0.83943 0.62359 0.22237 0.0
H103 H 0.94127 0.64853 0.2717 0.0
H104 H 0.91465 0.67741 0.31943 0.0
H105 H 0.79461 0.7065 0.38678 0.0
H106 H 0.81893 0.6163 0.33969 0.0
O107 O 0.81436 0.71001 0.30675 0.0
H108 H 0.74669 0.67215 0.42108 0.0
H109 H 0.77127 0.5816 0.37428 0.0
C110 C 0.86945 0.72584 0.35307 0.0
C111 C 0.88012 0.75709 0.33572 0.0
C112 C 0.89508 0.78643 0.35429 0.0
C113 C 0.90013 0.78544 0.3909 0.0
C114 C 0.89137 0.75349 0.40778 0.0
C115 C 0.87623 0.72415 0.38913 0.0
C116 C 0.86194 0.66723 0.29809 0.0
C117 C 0.84127 0.65117 0.2706 0.0
C118 C 0.85633 0.63507 0.24334 0.0
C119 C 0.89265 0.63401 0.24276 0.0
C120 C 0.91323 0.64879 0.2712 0.0
C121 C 0.89805 0.66541 0.29851 0.0
C122 C 0.81085 0.66415 0.36082 0.0
C123 C 0.79027 0.67918 0.38448 0.0
C124 C 0.76273 0.6594 0.40419 0.0
C125 C 0.75469 0.6239 0.40054 0.0
C126 C 0.77617 0.60882 0.37756 0.0
C127 C 0.80381 0.6287 0.35789 0.0
P128 P 0.71133 0.82039 0.90864 0.0
H129 H 0.67517 0.83337 0.97266 0.0
H130 H 0.62013 0.85321 0.98273 0.0
H131 H 0.59268 0.83475 0.87388 0.0
H132 H 0.64767 0.81359 0.86425 0.0
H133 H 0.73852 0.79906 0.97408 0.0
H134 H 0.7637 0.74988 0.98905 0.0
H135 H 0.729 0.70387 0.88996 0.0
H136 H 0.70288 0.75321 0.87539 0.0
H137 H 0.69426 0.87061 0.85986 0.0
H138 H 0.76099 0.79591 0.85978 0.0
O139 O 0.73648 0.85052 0.93219 0.0
H140 H 0.71498 0.88816 0.80079 0.0
H141 H 0.7812 0.81286 0.80036 0.0
C142 C 0.6661 0.82343 0.91745 0.0
C143 C 0.65681 0.83249 0.95122 0.0
C144 C 0.62518 0.84369 0.95695 0.0
C145 C 0.60238 0.8461 0.92887 0.0
C146 C 0.61004 0.8336 0.89581 0.0
C147 C 0.6415 0.82168 0.89031 0.0
C148 C 0.72025 0.7803 0.923 0.0
C149 C 0.7355 0.77807 0.9559 0.0
C150 C 0.74966 0.74979 0.96457 0.0
C151 C 0.74885 0.72337 0.94037 0.0
C152 C 0.73037 0.72416 0.90885 0.0
C153 C 0.71554 0.75229 0.90051 0.0
C154 C 0.7242 0.83038 0.86357 0.0
C155 C 0.71225 0.85698 0.84666 0.0
C156 C 0.72421 0.8671 0.81285 0.0
C157 C 0.74917 0.85141 0.79561 0.0
C158 C 0.76166 0.82518 0.81283 0.0
C159 C 0.74963 0.81508 0.84669 0.0
P160 P 0.8876 0.31592 0.32789 0.0
H161 H 0.87713 0.38216 0.35381 0.0
H162 H 0.82603 0.40083 0.38032 0.0
H163 H 0.76848 0.29724 0.38121 0.0
H164 H 0.81889 0.27923 0.35316 0.0
H165 H 0.96116 0.30721 0.32584 0.0
H166 H 0.99069 0.26568 0.35409 0.0
H167 H 0.89742 0.23148 0.4185 0.0
H168 H 0.86808 0.27237 0.39007 0.0
H169 H 0.8305 0.3192 0.279 0.0
H170 H 0.90266 0.25181 0.29942 0.0
O171 O 0.91452 0.34946 0.31024 0.0
H172 H 0.79785 0.27772 0.23877 0.0
H173 H 0.871 0.21098 0.25856 0.0
C174 C 0.85178 0.32934 0.35144 0.0
C175 C 0.85356 0.3635 0.35991 0.0
C176 C 0.82433 0.37409 0.37527 0.0
C177 C 0.7929 0.35059 0.38268 0.0
C178 C 0.79186 0.31618 0.37522 0.0
C179 C 0.82089 0.30575 0.35956 0.0
C180 C 0.91241 0.29309 0.35586 0.0
C181 C 0.9475 0.29149 0.34683 0.0
C182 C 0.96433 0.26767 0.3629 0.0
C183 C 0.94615 0.24495 0.38809 0.0
C184 C 0.91186 0.24819 0.39865 0.0
C185 C 0.8951 0.27189 0.38256 0.0
C186 C 0.86836 0.28827 0.29314 0.0
C187 C 0.8397 0.29577 0.27441 0.0
C188 C 0.8212 0.27211 0.25119 0.0
C189 C 0.83145 0.24074 0.24594 0.0
C190 C 0.86187 0.23452 0.26273 0.0
C191 C 0.88015 0.25805 0.2861 0.0
P192 P 0.37025 0.67234 0.21266 0.0
H193 H 0.34349 0.61387 0.16729 0.0
H194 H 0.28719 0.59357 0.139 0.0
H195 H 0.24203 0.66918 0.19427 0.0
H196 H 0.29942 0.6903 0.22141 0.0
H197 H 0.36122 0.70711 0.14792 0.0
H198 H 0.37768 0.76514 0.12706 0.0
H199 H 0.41864 0.79643 0.2293 0.0
H200 H 0.40217 0.73729 0.25011 0.0
H201 H 0.32992 0.62266 0.26314 0.0
H202 H 0.43203 0.68888 0.25915 0.0
O203 O 0.39867 0.656 0.18773 0.0
H204 H 0.34706 0.59542 0.31594 0.0
H205 H 0.44946 0.66177 0.31201 0.0
C206 C 0.3261 0.65389 0.19652 0.0
C207 C 0.32149 0.62603 0.17366 0.0
C208 C 0.28885 0.61419 0.15748 0.0
C209 C 0.25944 0.62962 0.16383 0.0
C210 C 0.2639 0.65684 0.18787 0.0
C211 C 0.29674 0.66881 0.2039 0.0
C212 C 0.37976 0.71744 0.20085 0.0
C213 C 0.37324 0.72638 0.16622 0.0
C214 C 0.38275 0.75992 0.15423 0.0
C215 C 0.39932 0.7861 0.1764 0.0
C216 C 0.40613 0.77717 0.21125 0.0
C217 C 0.39644 0.74323 0.22335 0.0
C218 C 0.37909 0.65884 0.25731 0.0
C219 C 0.35569 0.63218 0.27412 0.0
C220 C 0.36584 0.61614 0.30428 0.0
C221 C 0.39993 0.62599 0.31863 0.0
C222 C 0.42287 0.65354 0.30241 0.0
C223 C 0.41273 0.66941 0.27209 0.0
P224 P 0.17338 0.33968 0.72647 0.0
H225 H 0.18617 0.27267 0.70789 0.0
H226 H 0.15435 0.22566 0.6739 0.0
H227 H 0.07315 0.28322 0.65246 0.0
H228 H 0.10511 0.3302 0.68779 0.0
H229 H 0.23915 0.38765 0.74181 0.0
H230 H 0.28932 0.41517 0.70527 0.0
H231 H 0.23456 0.37312 0.6126 0.0
H232 H 0.1839 0.34657 0.64912 0.0
H233 H 0.10427 0.32059 0.76246 0.0
H234 H 0.18686 0.40941 0.7559 0.0
O235 O 0.1961 0.32114 0.75512 0.0
H236 H 0.07611 0.34619 0.81031 0.0
H237 H 0.16005 0.43452 0.805 0.0
C238 C 0.14778 0.30489 0.70128 0.0
C239 C 0.16132 0.2752 0.69625 0.0
C240 C 0.14316 0.24827 0.67624 0.0
C241 C 0.11092 0.25021 0.66005 0.0
C242 C 0.09754 0.2803 0.6648 0.0
C243 C 0.11585 0.30736 0.685 0.0
C244 C 0.20719 0.36533 0.69845 0.0
C245 C 0.23728 0.38526 0.71355 0.0
C246 C 0.2662 0.40086 0.69258 0.0
C247 C 0.26617 0.3963 0.65593 0.0
C248 C 0.23565 0.377 0.64074 0.0
C249 C 0.20645 0.36192 0.6617 0.0
C250 C 0.14753 0.36306 0.75462 0.0
C251 C 0.11602 0.34599 0.77065 0.0
C252 C 0.10024 0.36056 0.79877 0.0
C253 C 0.11588 0.39248 0.81253 0.0
C254 C 0.14674 0.41013 0.79541 0.0
C255 C 0.16231 0.39561 0.76702 0.0
Tb256 Tb 0.0453 0.02926 0.48422 0.0
Tb257 Tb 0.97222 0.02544 0.52872 0.0
C258 C 0.98001 0.97048 0.47209 0.0
C259 C 0.13007 0.05898 0.43562 0.0
C260 C 0.18085 0.11087 0.405 0.0
C261 C 0.1769 0.07742 0.39279 0.0
C262 C 0.1517 0.05168 0.40803 0.0
C263 C 0.13445 0.09215 0.4486 0.0
C264 C 0.15987 0.11794 0.43348 0.0
C265 C 0.10176 0.03215 0.44902 0.0
O266 O 0.02449 0.07349 0.46824 0.0
O267 O 0.96643 0.05036 0.47917 0.0
O268 O 1.00394 0.07557 0.54112 0.0
O269 O 0.05877 0.06425 0.52798 0.0
O270 O 0.91677 1.01159 0.53004 0.0
O271 O 0.94527 0.03589 0.57432 0.0
O272 O 1.00702 1.00351 0.56216 0.0
O273 O 0.04049 0.98542 0.51871 0.0
O274 O 1.00443 0.99373 0.4571 0.0
O275 O 0.96819 0.9754 0.50392 0.0
C276 C 0.99075 0.07343 0.46407 0.0
O277 O 0.09956 0.02822 0.48304 0.0
O278 O 0.07086 0.03115 0.43509 0.0
C279 C 0.03873 0.08319 0.54336 0.0
C280 C 0.89546 0.9942 0.58641 0.0
C281 C 0.8615 0.94679 0.63621 0.0
C282 C 0.84806 0.97615 0.62872 0.0
C283 C 0.86499 0.9997 0.604 0.0
C284 C 0.90846 0.96455 0.59298 0.0
C285 C 0.89159 0.94099 0.61772 0.0
C286 C 0.9148 1.02028 0.56283 0.0
C287 C 0.02859 0.98417 0.5512 0.0
H288 H 0.19299 0.07126 0.37111 0.0
H289 H 0.14856 0.02619 0.39775 0.0
H290 H 0.1177 0.09819 0.4698 0.0
H291 H 0.16221 0.14356 0.44316 0.0
H292 H 0.82525 0.98156 0.6429 0.0
H293 H 0.85482 1.02259 0.59928 0.0
H294 H 0.93207 0.96003 0.57953 0.0
H295 H 0.90233 0.91849 0.62273 0.0
Tb296 Tb 0.54462 0.03302 0.07691 0.0
Tb297 Tb 0.46461 0.02813 0.04608 0.0
C298 C 0.51414 0.97997 1.0192 0.0
C299 C 0.63562 0.06576 0.10854 0.0
C300 C 0.69128 0.1177 0.12948 0.0
C301 C 0.69622 0.08401 0.12707 0.0
C302 C 0.66856 0.05825 0.11679 0.0
C303 C 0.63093 0.09948 0.10925 0.0
C304 C 0.65856 0.12529 0.11968 0.0
C305 C 0.60594 0.03802 0.10121 0.0
O306 O 0.55143 0.06645 1.03042 0.0
O307 O 0.49484 0.07629 1.02565 0.0
O308 O 0.46755 0.05698 0.09464 0.0
O309 O 0.52703 0.078 0.09503 0.0
O310 O 0.43061 0.03225 1.0043 0.0
O311 O 0.41011 1.02064 0.05687 0.0
O312 O 0.4622 0.98043 0.07437 0.0
O313 O 0.50932 0.9963 0.11096 0.0
O314 O 0.53399 0.98686 0.04688 0.0
O315 O 0.49032 0.9977 1.0104 0.0
C316 C 0.52893 0.08437 1.01801 0.0
O317 O 0.57759 0.03735 0.12056 0.0
O318 O 0.59847 0.03236 0.06816 0.0
C319 C 0.49469 0.07986 0.10444 0.0
C320 C 0.37746 0.993 1.01017 0.0
C321 C 0.33508 0.93744 0.97695 0.0
C322 C 0.32945 0.9706 0.97123 0.0
C323 C 0.35051 0.99815 0.98773 0.0
C324 C 0.38219 0.95991 1.01723 0.0
C325 C 0.36105 0.93233 1.0009 0.0
C326 C 0.40241 1.02219 1.02375 0.0
C327 C 0.48037 0.97477 0.102 0.0
H328 H 0.72128 0.07744 0.13384 0.0
H329 H 0.67262 0.03234 0.11611 0.0
H330 H 0.6056 0.10568 0.10281 0.0
H331 H 0.6538 0.1509 0.12151 0.0
H332 H 0.31012 0.97551 0.95249 0.0
H333 H 0.3467 1.02356 0.98187 0.0
H334 H 0.40302 0.95546 1.03443 0.0
H335 H 0.36584 0.90713 1.00608 0.0
Tb336 Tb 0.51267 0.482 0.51336 0.0
Tb337 Tb 0.51755 0.54748 0.56374 0.0
C338 C 0.48489 0.54622 0.48699 0.0
C339 C 0.54436 0.41627 0.46229 0.0
C340 C 0.60401 0.39139 0.4379 0.0
C341 C 0.57595 0.39364 0.41521 0.0
C342 C 0.54641 0.40591 0.42734 0.0
C343 C 0.57209 0.41377 0.48514 0.0
C344 C 0.60148 0.40126 0.47313 0.0
C345 C 0.51473 0.43211 0.47383 0.0
O346 O 0.56011 0.51825 0.49649 0.0
O347 O 0.57206 0.54966 0.54647 0.0
O348 O 0.53194 0.50876 0.59827 0.0
O349 O 0.54727 0.47301 0.55655 0.0
O350 O 0.53158 0.60012 0.57089 0.0
O351 O 0.50603 0.56748 0.61242 0.0
O352 O 0.4618 0.52346 0.56339 0.0
O353 O 0.46598 0.46944 0.54801 0.0
O354 O 0.47866 0.51282 0.48776 0.0
O355 O 0.50471 0.56367 0.51115 0.0
C356 C 0.58168 0.54044 0.51529 0.0
O357 O 0.50609 0.42928 0.50707 0.0
O358 O 0.51596 0.46282 0.46235 0.0
C359 C 0.54646 0.48285 0.58956 0.0
C360 C 0.48656 0.61802 0.60342 0.0
C361 C 0.42835 0.65037 0.61059 0.0
C362 C 0.45592 0.65614 0.63509 0.0
C363 C 0.48483 0.64 0.63154 0.0
C364 C 0.45933 0.61248 0.57873 0.0
C365 C 0.43052 0.62855 0.58224 0.0
C366 C 0.51492 0.59854 0.60105 0.0
C367 C 0.44846 0.49087 0.56276 0.0
H368 H 0.5772 0.38677 0.38781 0.0
H369 H 0.52552 0.40807 0.40919 0.0
H370 H 0.57133 0.42194 0.51218 0.0
H371 H 0.62227 0.39941 0.49149 0.0
H372 H 0.45515 0.67315 0.65698 0.0
H373 H 0.50551 0.64427 0.65095 0.0
H374 H 0.46003 0.59516 0.55709 0.0
H375 H 0.40953 0.62326 0.56321 0.0
Tb376 Tb 0.01587 0.54664 1.01659 0.0
Tb377 Tb 0.01964 0.47734 0.05805 0.0
C378 C 0.04872 0.48957 0.98 0.0
C379 C 0.97762 0.61287 0.97285 0.0
C380 C 0.91543 0.63575 0.9541 0.0
C381 C 0.93184 0.61674 0.93037 0.0
C382 C 0.96265 0.60554 0.9396 0.0
C383 C 0.96152 0.63234 0.99638 0.0
C384 C 0.93077 0.64361 0.98711 0.0
C385 C 1.00907 0.59919 0.98321 0.0
O386 O 0.96957 0.50963 0.99914 0.0
O387 O 0.96422 0.46962 0.04315 0.0
O388 O 1.0043 0.51221 0.09716 0.0
O389 O 0.97945 0.54629 0.06116 0.0
O390 O 0.01809 0.42476 0.05938 0.0
O391 O 0.02959 0.45493 0.10582 0.0
O392 O 0.07356 0.50626 0.05533 0.0
O393 O 0.06159 0.55943 0.05182 0.0
O394 O 0.05225 0.52236 0.98545 0.0
O395 O 0.03149 0.46774 1.00292 0.0
C396 C 0.95162 0.48249 1.01529 0.0
O397 O 0.01587 0.59891 1.01666 0.0
O398 O 1.01285 0.571 0.96824 0.0
C399 C 0.98473 0.53534 0.0928 0.0
C400 C 0.06396 0.41424 0.09549 0.0
C401 C 0.13171 0.40117 0.10963 0.0
C402 C 0.10273 0.38846 0.13199 0.0
C403 C 0.06913 0.39506 0.12502 0.0
C404 C 0.09249 0.4259 0.07242 0.0
C405 C 0.12603 0.4194 0.07939 0.0
C406 C 0.03045 0.42596 0.09112 0.0
C407 C 0.08291 0.53894 0.06078 0.0
H408 H 0.92062 0.61011 0.90481 0.0
H409 H 0.9745 0.59074 0.92079 0.0
H410 H 0.97251 0.63872 1.02209 0.0
H411 H 0.91924 0.65884 1.00571 0.0
H412 H 0.10615 0.37392 0.15524 0.0
H413 H 0.04748 0.38615 0.14327 0.0
H414 H 0.08913 0.44118 0.04969 0.0
H415 H 0.1478 0.42991 0.06188 0.0
H416 H 0.27279 0.21743 0.30347 0.0
H417 H 0.31701 0.25788 0.40142 0.0
H418 H 0.27709 0.21277 0.43376 0.0
H419 H 0.22935 0.16171 0.43365 0.0
H420 H 0.18659 0.12189 0.33476 0.0
H421 H 0.22617 0.16707 0.3032 0.0
C422 C 0.2734 0.21661 0.33195 0.0
C423 C 0.29734 0.24111 0.35015 0.0
C424 C 0.25075 0.19069 0.35009 0.0
C425 C 0.29865 0.23926 0.38694 0.0
C426 C 0.27582 0.21357 0.40535 0.0
C427 C 0.2287 0.16312 0.40521 0.0
C428 C 0.20525 0.13849 0.3865 0.0
C429 C 0.25171 0.18915 0.38716 0.0
C430 C 0.20477 0.14032 0.34966 0.0
C431 C 0.22723 0.16621 0.33162 0.0
H432 H 0.29435 0.83452 0.85504 0.0
H433 H 0.19741 0.87265 0.86236 0.0
H434 H 0.21679 0.90116 0.91745 0.0
H435 H 0.26597 0.92359 0.95685 0.0
H436 H 0.36459 0.88838 0.94596 0.0
H437 H 0.33972 0.84993 0.8996 0.0
C438 C 0.27715 0.84837 0.86927 0.0
C439 C 0.24485 0.85203 0.85459 0.0
C440 C 0.28902 0.86562 0.90006 0.0
C441 C 0.22242 0.86955 0.87328 0.0
C442 C 0.23369 0.88616 0.90453 0.0
C443 C 0.2818 0.90712 0.94465 0.0
C444 C 0.31725 0.9093 0.95451 0.0
C445 C 0.26769 0.88575 0.91713 0.0
C446 C 0.3372 0.88722 0.93906 0.0
C447 C 0.32311 0.86539 0.91225 0.0
H448 H 0.60824 0.38302 0.69269 0.0
H449 H 0.607 0.46538 0.76461 0.0
H450 H 0.58276 0.49691 0.71901 0.0
H451 H 0.56189 0.50169 0.65826 0.0
H452 H 0.5659 0.4207 0.58519 0.0
H453 H 0.58889 0.38859 0.63112 0.0
C454 C 0.60245 0.40778 0.69847 0.0
C455 C 0.60943 0.42155 0.73245 0.0
C456 C 0.58905 0.4263 0.67162 0.0
C457 C 0.60214 0.454 0.73894 0.0
C458 C 0.58818 0.47212 0.71276 0.0
C459 C 0.5678 0.47703 0.65224 0.0
C460 C 0.5619 0.46387 0.61788 0.0
C461 C 0.58158 0.45866 0.6789 0.0
C462 C 0.57011 0.43182 0.61103 0.0
C463 C 0.58323 0.41326 0.63748 0.0
H464 H 0.93856 0.58872 0.24118 0.0
H465 H 0.8823 0.64542 0.17338 0.0
H466 H 0.905 0.6203 0.12175 0.0
H467 H 0.94054 0.58175 0.0951 0.0
H468 H 0.99577 0.52366 0.16253 0.0
H469 H 0.97391 0.54945 0.21427 0.0
C470 C 0.93147 0.59574 0.21511 0.0
C471 C 0.90852 0.61903 0.21149 0.0
C472 C 0.94435 0.58068 0.18512 0.0
C473 C 0.89952 0.62742 0.17727 0.0
C474 C 0.91259 0.61306 0.14756 0.0
C475 C 0.94777 0.57457 0.12107 0.0
C476 C 0.96989 0.55052 0.12448 0.0
C477 C 0.93488 0.58948 0.15105 0.0
C478 C 0.97877 0.54185 0.15868 0.0
C479 C 0.9663 0.55674 0.18849 0.0
H480 H 0.48537 0.22405 0.16292 0.0
H481 H 0.3863 0.16804 0.20481 0.0
H482 H 0.39881 0.11611 0.17946 0.0
H483 H 0.43717 0.08654 0.14408 0.0
H484 H 0.53826 0.14168 0.10651 0.0
H485 H 0.52608 0.19364 0.13256 0.0
C486 C 0.46672 0.20048 0.16718 0.0
C487 C 0.43462 0.2004 0.18537 0.0
C488 C 0.4745 0.17035 0.15344 0.0
C489 C 0.41074 0.16937 0.19005 0.0
C490 C 0.41801 0.13944 0.17586 0.0
C491 C 0.45661 0.10989 0.14184 0.0
C492 C 0.48845 0.11027 0.12327 0.0
C493 C 0.44963 0.13968 0.1572 0.0
C494 C 0.51357 0.14064 0.12083 0.0
C495 C 0.50657 0.17045 0.13555 0.0
H496 H 0.09719 0.9095 0.66752 0.0
H497 H 0.07536 0.82768 0.59268 0.0
H498 H 0.0465 0.8627 0.55468 0.0
H499 H 0.03266 0.91865 0.54029 0.0
H500 H 0.04979 0.9978 0.61785 0.0
H501 H 0.07467 0.96114 0.65785 0.0
C502 C 0.08512 0.89854 0.64361 0.0
C503 C 0.08928 0.86601 0.63287 0.0
C504 C 0.06806 0.91852 0.62217 0.0
C505 C 0.07364 0.85294 0.60129 0.0
C506 C 0.05698 0.87291 0.57953 0.0
C507 C 0.04164 0.9276 0.56611 0.0
C508 C 0.04019 0.96086 0.57611 0.0
C509 C 0.05512 0.90613 0.5892 0.0
C510 C 0.05099 0.97224 0.60974 0.0
C511 C 0.06521 0.95135 0.6325 0.0
H512 H 0.81447 0.38269 0.96016 0.0
H513 H 0.80356 0.47166 0.90127 0.0
H514 H 0.85671 0.50383 0.92873 0.0
H515 H 0.90814 0.50628 0.96804 0.0
H516 H 0.91712 0.41758 1.02863 0.0
H517 H 0.86341 0.38614 1.00213 0.0
C518 C 0.82364 0.40915 0.95337 0.0
C519 C 0.80485 0.42454 0.92841 0.0
C520 C 0.8542 0.42769 0.96959 0.0
C521 C 0.81711 0.45907 0.92046 0.0
C522 C 0.84774 0.47749 0.93606 0.0
C523 C 0.89829 0.48012 0.97561 0.0
C524 C 0.91712 0.46448 1.00039 0.0
C525 C 0.86678 0.46203 0.96046 0.0
C526 C 0.90347 0.43055 1.00987 0.0
C527 C 0.87265 0.41238 0.99456 0.0
H528 H 0.72872 0.63137 0.46737 0.0
H529 H 0.70789 0.56955 0.37467 0.0
H530 H 0.65424 0.53748 0.40227 0.0
H531 H 0.61127 0.52839 0.45162 0.0
H532 H 0.63147 0.59071 0.54404 0.0
H533 H 0.68672 0.62097 0.51762 0.0
C534 C 0.71247 0.61095 0.45309 0.0
C535 C 0.72276 0.60312 0.41878 0.0
C536 C 0.68117 0.59261 0.46908 0.0
C537 C 0.7013 0.57608 0.40118 0.0
C538 C 0.67028 0.55778 0.41689 0.0
C539 C 0.62779 0.54844 0.46617 0.0
C540 C 0.6168 0.55715 0.49991 0.0
C541 C 0.65972 0.56599 0.4507 0.0
C542 C 0.63892 0.58326 0.51813 0.0
C543 C 0.67065 0.60073 0.50295 0.0
H544 H 0.28946 0.3804 0.12475 0.0
H545 H 0.26584 0.39802 0.23364 0.0
H546 H 0.20756 0.40722 0.21783 0.0
H547 H 0.16197 0.40761 0.17385 0.0
H548 H 0.18337 0.38614 0.06558 0.0
H549 H 0.24352 0.38062 0.08055 0.0
C550 C 0.27159 0.38615 0.14508 0.0
C551 C 0.28241 0.38862 0.18036 0.0
C552 C 0.23743 0.39035 0.13602 0.0
C553 C 0.25886 0.39668 0.20616 0.0
C554 C 0.22518 0.40151 0.19724 0.0
C555 C 0.17962 0.40131 0.15357 0.0
C556 C 0.16804 0.39702 0.11871 0.0
C557 C 0.21401 0.3979 0.16238 0.0
C558 C 0.19163 0.38973 0.09261 0.0
C559 C 0.22601 0.38649 0.10116 0.0
H560 H 0.55978 0.21745 0.9212 0.0
H561 H 0.66742 0.21108 0.94543 0.0
H562 H 0.64658 0.16028 0.9805 0.0
H563 H 0.59793 0.11661 1.00449 0.0
H564 H 0.49007 0.12318 0.98161 0.0
H565 H 0.51077 0.17425 0.94653 0.0
C566 C 0.57872 0.20517 0.93436 0.0
C567 C 0.61535 0.21834 0.92993 0.0
C568 C 0.56647 0.17553 0.9549 0.0
C569 C 0.63918 0.20155 0.94738 0.0
C570 C 0.62724 0.17237 0.96776 0.0
C571 C 0.57885 0.12905 0.99174 0.0
C572 C 0.54231 0.11549 0.99583 0.0
C573 C 0.59097 0.15886 0.97156 0.0
C574 C 0.5183 0.13259 0.97915 0.0
C575 C 0.53016 0.16202 0.95897 0.0
H576 H 0.9473 0.84329 0.37042 0.0
H577 H 0.88089 0.80112 0.4581 0.0
H578 H 0.89928 0.8535 0.49079 0.0
H579 H 0.93364 0.91246 0.49457 0.0
H580 H 0.99836 0.95443 0.40566 0.0
H581 H 0.98061 0.90174 0.37372 0.0
C582 C 0.93647 0.84544 0.39654 0.0
C583 C 0.91264 0.81764 0.41143 0.0
C584 C 0.94672 0.87609 0.41522 0.0
C585 C 0.89972 0.82139 0.44579 0.0
C586 C 0.90999 0.85168 0.46456 0.0
C587 C 0.94375 0.91018 0.46816 0.0
C588 C 0.96737 0.93787 0.45279 0.0
C589 C 0.9334 0.87936 0.44955 0.0
C590 C 0.98017 0.93395 0.41847 0.0
C591 C 0.97006 0.90362 0.40002 0.0
H592 H 0.30236 0.72948 0.60413 0.0
H593 H 0.30145 0.71059 0.71586 0.0
H594 H 0.34752 0.67723 0.70825 0.0
H595 H 0.39157 0.65751 0.67058 0.0
H596 H 0.39514 0.6797 0.55947 0.0
H597 H 0.34482 0.70799 0.5662 0.0
C598 C 0.3122 0.71803 0.62682 0.0
C599 C 0.29862 0.7228 0.66052 0.0
C600 C 0.33952 0.69983 0.62244 0.0
C601 C 0.31109 0.70709 0.68955 0.0
C602 C 0.33778 0.68832 0.68529 0.0
C603 C 0.38144 0.66872 0.64789 0.0
C604 C 0.39727 0.66679 0.61466 0.0
C605 C 0.35279 0.68528 0.652 0.0
C606 C 0.38333 0.68072 0.58533 0.0
C607 C 0.35464 0.69699 0.58916 0.0
H608 H 0.81811 0.86318 0.77496 0.0
H609 H 0.71378 0.86945 0.73905 0.0
H610 H 0.7393 0.89742 0.685 0.0
H611 H 0.79155 0.92368 0.65009 0.0
H612 H 0.89581 0.91842 0.68702 0.0
H613 H 0.86992 0.88543 0.73803 0.0
C614 C 0.80088 0.86997 0.75498 0.0
C615 C 0.76414 0.86446 0.76108 0.0
C616 C 0.81572 0.88623 0.72418 0.0
C617 C 0.74221 0.87388 0.73515 0.0
C618 C 0.75676 0.88978 0.70423 0.0
C619 C 0.80856 0.91518 0.66926 0.0
C620 C 0.84551 0.92367 0.66491 0.0
C621 C 0.79353 0.89676 0.69886 0.0
C622 C 0.86726 0.91199 0.6896 0.0
C623 C 0.85249 0.89336 0.71893 0.0
H624 H 0.79733 0.24655 0.18426 0.0
H625 H 0.8141 0.17369 0.26266 0.0
H626 H 0.77409 0.12914 0.23228 0.0
H627 H 0.73146 0.11148 0.186 0.0
H628 H 0.71304 0.1837 0.10779 0.0
H629 H 0.75598 0.22805 0.13604 0.0
C630 C 0.79222 0.22092 0.19466 0.0
C631 C 0.80886 0.21353 0.22564 0.0
C632 C 0.76862 0.19537 0.17734 0.0
C633 C 0.80222 0.18007 0.23855 0.0
C634 C 0.77906 0.15457 0.22137 0.0
C635 C 0.7373 0.13674 0.17466 0.0
C636 C 0.71911 0.14422 0.14478 0.0
C637 C 0.76184 0.16201 0.19102 0.0
C638 C 0.72645 0.17734 0.13097 0.0
C639 C 0.75107 0.20267 0.14704 0.0
H640 H 0.44254 0.64984 0.37498 0.0
H641 H 0.3853 0.55707 0.33053 0.0
H642 H 0.40539 0.52452 0.37772 0.0
H643 H 0.44044 0.52163 0.43179 0.0
H644 H 0.49701 0.61481 0.4762 0.0
H645 H 0.47636 0.64713 0.42938 0.0
C646 C 0.43448 0.62249 0.37542 0.0
C647 C 0.41207 0.60632 0.34876 0.0
C648 C 0.44622 0.6036 0.40296 0.0
C649 C 0.4019 0.57069 0.35058 0.0
C650 C 0.41367 0.55184 0.37763 0.0
C651 C 0.44823 0.549 0.43135 0.0
C652 C 0.47059 0.56538 0.45796 0.0
C653 C 0.43595 0.56791 0.40404 0.0
C654 C 0.48002 0.60106 0.45648 0.0
C655 C 0.46817 0.61979 0.42949 0.0
H656 H 0.11553 0.45922 0.83173 0.0
H657 H 0.08397 0.35638 0.86971 0.0
H658 H 0.06067 0.37682 0.92342 0.0
H659 H 0.04924 0.42369 0.96076 0.0
H660 H 0.08226 0.52671 0.92425 0.0
H661 H 0.10529 0.50641 0.86987 0.0
C662 C 0.10381 0.44115 0.85174 0.0
C663 C 0.10137 0.40599 0.84573 0.0
C664 C 0.09073 0.45316 0.88338 0.0
C665 C 0.08564 0.38341 0.87246 0.0
C666 C 0.07251 0.39514 0.90367 0.0
C667 C 0.06152 0.44182 0.94101 0.0
C668 C 0.06384 0.47687 0.94704 0.0
C669 C 0.07483 0.42993 0.90951 0.0
C670 C 0.08 0.49967 0.92078 0.0
C671 C 0.09319 0.48802 0.88944 0.0
H672 H 0.55408 0.84252 0.98186 0.0
H673 H 0.58999 0.89713 0.8865 0.0
H674 H 0.55873 0.94218 0.90321 0.0
H675 H 0.53239 0.97138 0.951 0.0
H676 H 0.50121 0.91803 0.04811 0.0
H677 H 0.5189 0.86724 1.02482 0.0
C678 C 0.55417 0.86385 0.96434 0.0
C679 C 0.57473 0.8668 0.93337 0.0
C680 C 0.53742 0.89026 0.97481 0.0
C681 C 0.5743 0.89426 0.91053 0.0
C682 C 0.55679 0.92028 0.92029 0.0
C683 C 0.52843 0.94819 0.9664 0.0
C684 C 0.51588 0.9482 1.00113 0.0
C685 C 0.53991 0.91941 0.95324 0.0
C686 C 0.51107 0.91835 1.02127 0.0
C687 C 0.52129 0.88941 1.00805 0.0
H688 H 0.91278 0.17969 0.39425 0.0
H689 H 1.01385 0.2453 0.41025 0.0
H690 H 0.03781 0.1972 0.43247 0.0
H691 H 0.02873 0.13687 0.45027 0.0
H692 H 0.9265 0.07259 0.43541 0.0
H693 H 0.90433 0.11983 0.4098 0.0
C694 C 0.93998 0.18357 0.40291 0.0
C695 C 0.96134 0.21609 0.40115 0.0
C696 C 0.95339 0.15599 0.41573 0.0
C697 C 0.99684 0.2205 0.41145 0.0
C698 C 1.01051 0.19303 0.4242 0.0
C699 C 1.00178 0.13314 0.44093 0.0
C700 C 0.97927 0.10128 0.44481 0.0
C701 C 0.9889 0.16068 0.42676 0.0
C702 C 0.94431 0.09688 0.4329 0.0
C703 C 0.93156 0.12389 0.41831 0.0
H704 H 0.22895 0.5651 0.14199 0.0
H705 H 0.21133 0.66788 0.14159 0.0
H706 H 0.15623 0.6497 0.11008 0.0
H707 H 0.11236 0.6044 0.08176 0.0
H708 H 0.13205 0.5023 0.08089 0.0
H709 H 0.18669 0.52067 0.1126 0.0
C710 C 0.21347 0.5838 0.13477 0.0
C711 C 0.22492 0.61803 0.14469 0.0
C712 C 0.18181 0.57328 0.11592 0.0
C713 C 0.20345 0.6413 0.13528 0.0
C714 C 0.17184 0.63095 0.11679 0.0
C715 C 0.12869 0.58619 0.08826 0.0
C716 C 0.11761 0.55187 0.07856 0.0
C717 C 0.16064 0.59697 0.10686 0.0
C718 C 0.13943 0.52884 0.08765 0.0
C719 C 0.17091 0.53933 0.10601 0.0
H720 H 0.30809 0.45979 0.6568 0.0
H721 H 0.29765 0.36284 0.60591 0.0
H722 H 0.35228 0.38306 0.57231 0.0
H723 H 0.40457 0.42798 0.55852 0.0
H724 H 0.41317 0.52567 0.60792 0.0
H725 H 0.35826 0.50557 0.64052 0.0
C726 C 0.31774 0.4431 0.63831 0.0
C727 C 0.29864 0.40974 0.63407 0.0
C728 C 0.34913 0.45506 0.61868 0.0
C729 C 0.31149 0.38869 0.6096 0.0
C730 C 0.34293 0.40021 0.59046 0.0
C731 C 0.39436 0.44495 0.57627 0.0
C732 C 0.4134 0.47836 0.58063 0.0
C733 C 0.36219 0.43331 0.5949 0.0
C734 C 0.39936 0.49989 0.60373 0.0
C735 C 0.36785 0.48837 0.62261 0.0
H736 H 0.79642 0.70683 0.89431 0.0
H737 H 0.7544 0.68574 0.99927 0.0
H738 H 0.8011 0.65406 1.01191 0.0
H739 H 0.85711 0.63746 0.99486 0.0
H740 H 0.9009 0.66208 0.89093 0.0
H741 H 0.84988 0.68665 0.87588 0.0
C742 C 0.79691 0.69446 0.91961 0.0
C743 C 0.77203 0.69848 0.94581 0.0
C744 C 0.8244 0.67728 0.92698 0.0
C745 C 0.77335 0.68295 0.97874 0.0
C746 C 0.80012 0.66502 0.98599 0.0
C747 C 0.85548 0.64821 0.96892 0.0
C748 C 0.88299 0.6482 0.9442 0.0
C749 C 0.82641 0.66297 0.96066 0.0
C750 C 0.88006 0.66154 0.91042 0.0
C751 C 0.85097 0.67578 0.90183 0.0
H752 H 0.45863 0.83609 0.18948 0.0
H753 H 0.361 0.81821 0.13193 0.0
H754 H 0.37699 0.87393 0.10476 0.0
H755 H 0.41918 0.92744 0.09522 0.0
H756 H 0.51629 0.94718 0.15333 0.0
H757 H 0.49979 0.89185 0.18235 0.0
C758 C 0.4406 0.84447 0.17136 0.0
C759 C 0.40875 0.82214 0.16257 0.0
C760 C 0.44988 0.8772 0.15568 0.0
C761 C 0.38605 0.83398 0.13879 0.0
C762 C 0.39508 0.86616 0.12325 0.0
C763 C 0.43677 0.91989 0.11439 0.0
C764 C 0.4691 0.94188 0.12184 0.0
C765 C 0.42708 0.88788 0.1311 0.0
C766 C 0.49122 0.93119 0.14695 0.0
C767 C 0.4818 0.89932 0.16357 0.0
H768 H 0.13896 0.20685 0.61701 0.0
H769 H 0.03885 0.22679 0.65461 0.0
H770 H 1.0077 0.17815 0.62173 0.0
H771 H 1.00867 0.12832 0.58322 0.0
H772 H 0.10959 0.10855 0.5475 0.0
H773 H 0.14006 0.15795 0.57897 0.0
C774 C 0.11032 0.20054 0.61844 0.0
C775 C 0.09159 0.22086 0.63871 0.0
C776 C 0.09244 0.17212 0.59974 0.0
C777 C 0.05431 0.21222 0.63913 0.0
C778 C 0.03635 0.18409 0.62044 0.0
C779 C 0.03732 0.13479 0.58227 0.0
C780 C 0.05654 0.1142 0.56287 0.0
C781 C 0.0551 0.16362 0.60075 0.0
C782 C 0.09377 0.12341 0.56214 0.0
C783 C 0.1114 0.15188 0.58019 0.0
H784 H 0.72403 0.32709 0.36571 0.0
H785 H 0.78974 0.39986 0.4318 0.0
H786 H 0.73735 0.41913 0.45417 0.0
H787 H 0.67297 0.41557 0.45468 0.0
H788 H 0.60722 0.34029 0.39124 0.0
H789 H 0.65967 0.32171 0.36828 0.0
C790 C 0.72697 0.3468 0.38543 0.0
C791 C 0.76094 0.36192 0.39702 0.0
C792 C 0.69672 0.35742 0.3986 0.0
C793 C 0.76408 0.38802 0.42199 0.0
C794 C 0.73408 0.39893 0.43499 0.0
C795 C 0.66999 0.39476 0.43623 0.0
C796 C 0.63605 0.37945 0.42471 0.0
C797 C 0.70027 0.38382 0.42346 0.0
C798 C 0.63294 0.35295 0.40021 0.0
C799 C 0.66294 0.34213 0.3872 0.0
loop_
_geom_bond_atom_site_label_1
_geom_bond_atom_site_label_2
_geom_bond_distance
_geom_bond_site_symmetry_2
_ccdc_geom_bond_type
P0 O11 1.490 . S
P0 C14 1.812 . S
P0 C20 1.803 . S
P0 C26 1.819 . S
H1 C15 0.941 . S
H2 C16 0.939 . S
H3 C18 0.940 . S
H4 C19 0.940 . S
H5 C21 0.939 . S
H6 C22 0.942 . S
H7 C24 0.940 . S
H8 C25 0.939 . S
H9 C27 0.941 . S
H10 C31 0.939 . S
O11 P0 1.490 . S
H12 C28 0.939 . S
H13 C30 0.940 . S
C14 P0 1.812 . S
C14 C15 1.389 . S
C14 C19 1.391 . S
C15 H1 0.941 . S
C15 C14 1.389 . S
C15 C16 1.397 . S
C16 H2 0.939 . S
C16 C15 1.397 . S
C16 C17 1.378 . S
C17 C16 1.378 . S
C17 C18 1.378 . S
C18 H3 0.940 . S
C18 C17 1.378 . S
C18 C19 1.396 . S
C19 H4 0.940 . S
C19 C14 1.391 . S
C19 C18 1.396 . S
C20 P0 1.803 . S
C20 C21 1.378 . S
C20 C25 1.400 . S
C21 H5 0.939 . S
C21 C20 1.378 . S
C21 C22 1.361 . S
C22 H6 0.942 . S
C22 C21 1.361 . S
C22 C23 1.369 . S
C23 C22 1.369 . S
C23 C24 1.404 . S
C24 H7 0.940 . S
C24 C23 1.404 . S
C24 C25 1.389 . S
C25 H8 0.939 . S
C25 C20 1.400 . S
C25 C24 1.389 . S
C26 P0 1.819 . S
C26 C27 1.391 . S
C26 C31 1.391 . S
C27 H9 0.941 . S
C27 C26 1.391 . S
C27 C28 1.396 . S
C28 H12 0.939 . S
C28 C27 1.396 . S
C28 C29 1.397 . S
C29 C28 1.397 . S
C29 C30 1.385 . S
C30 H13 0.940 . S
C30 C29 1.385 . S
C30 C31 1.388 . S
C31 H10 0.939 . S
C31 C26 1.391 . S
C31 C30 1.388 . S
P32 O43 1.490 . S
P32 C46 1.812 . S
P32 C52 1.803 . S
P32 C58 1.819 . S
H33 C47 0.941 . S
H34 C48 0.939 . S
H35 C50 0.940 . S
H36 C51 0.940 . S
H37 C53 0.939 . S
H38 C54 0.942 . S
H39 C56 0.940 . S
H40 C57 0.939 . S
H41 C59 0.941 . S
H42 C63 0.939 . S
O43 P32 1.490 . S
H44 C60 0.939 . S
H45 C62 0.940 . S
C46 P32 1.812 . S
C46 C47 1.389 . S
C46 C51 1.391 . S
C47 H33 0.941 . S
C47 C46 1.389 . S
C47 C48 1.397 . S
C48 H34 0.939 . S
C48 C47 1.397 . S
C48 C49 1.378 . S
C49 C48 1.378 . S
C49 C50 1.378 . S
C50 H35 0.940 . S
C50 C49 1.378 . S
C50 C51 1.396 . S
C51 H36 0.940 . S
C51 C46 1.391 . S
C51 C50 1.396 . S
C52 P32 1.803 . S
C52 C53 1.378 . S
C52 C57 1.400 . S
C53 H37 0.939 . S
C53 C52 1.378 . S
C53 C54 1.361 . S
C54 H38 0.942 . S
C54 C53 1.361 . S
C54 C55 1.369 . S
C55 C54 1.369 . S
C55 C56 1.404 . S
C56 H39 0.940 . S
C56 C55 1.404 . S
C56 C57 1.389 . S
C57 H40 0.939 . S
C57 C52 1.400 . S
C57 C56 1.389 . S
C58 P32 1.819 . S
C58 C59 1.391 . S
C58 C63 1.391 . S
C59 H41 0.941 . S
C59 C58 1.391 . S
C59 C60 1.396 . S
C60 H44 0.939 . S
C60 C59 1.396 . S
C60 C61 1.397 . S
C61 C60 1.397 . S
C61 C62 1.385 . S
C62 H45 0.940 . S
C62 C61 1.385 . S
C62 C63 1.388 . S
C63 H42 0.939 . S
C63 C58 1.391 . S
C63 C62 1.388 . S
P64 O75 1.490 . S
P64 C78 1.812 . S
P64 C84 1.803 . S
P64 C90 1.819 . S
H65 C79 0.941 . S
H66 C80 0.939 . S
H67 C82 0.940 . S
H68 C83 0.940 . S
H69 C85 0.939 . S
H70 C86 0.942 . S
H71 C88 0.940 . S
H72 C89 0.939 . S
H73 C91 0.941 . S
H74 C95 0.939 . S
O75 P64 1.490 . S
H76 C92 0.939 . S
H77 C94 0.940 . S
C78 P64 1.812 . S
C78 C79 1.389 . S
C78 C83 1.391 . S
C79 H65 0.941 . S
C79 C78 1.389 . S
C79 C80 1.397 . S
C80 H66 0.939 . S
C80 C79 1.397 . S
C80 C81 1.378 . S
C81 C80 1.378 . S
C81 C82 1.378 . S
C82 H67 0.940 . S
C82 C81 1.378 . S
C82 C83 1.396 . S
C83 H68 0.940 . S
C83 C78 1.391 . S
C83 C82 1.396 . S
C84 P64 1.803 . S
C84 C85 1.378 . S
C84 C89 1.400 . S
C85 H69 0.939 . S
C85 C84 1.378 . S
C85 C86 1.361 . S
C86 H70 0.942 . S
C86 C85 1.361 . S
C86 C87 1.369 . S
C87 C86 1.369 . S
C87 C88 1.404 . S
C88 H71 0.940 . S
C88 C87 1.404 . S
C88 C89 1.389 . S
C89 H72 0.939 . S
C89 C84 1.400 . S
C89 C88 1.389 . S
C90 P64 1.819 . S
C90 C91 1.391 . S
C90 C95 1.391 . S
C91 H73 0.941 . S
C91 C90 1.391 . S
C91 C92 1.396 . S
C92 H76 0.939 . S
C92 C91 1.396 . S
C92 C93 1.397 . S
C93 C92 1.397 . S
C93 C94 1.385 . S
C94 H77 0.940 . S
C94 C93 1.385 . S
C94 C95 1.388 . S
C95 H74 0.939 . S
C95 C90 1.391 . S
C95 C94 1.388 . S
P96 O107 1.490 . S
P96 C110 1.812 . S
P96 C116 1.803 . S
P96 C122 1.819 . S
H97 C111 0.941 . S
H98 C112 0.939 . S
H99 C114 0.940 . S
H100 C115 0.940 . S
H101 C117 0.939 . S
H102 C118 0.942 . S
H103 C120 0.940 . S
H104 C121 0.939 . S
H105 C123 0.941 . S
H106 C127 0.939 . S
O107 P96 1.490 . S
H108 C124 0.939 . S
H109 C126 0.940 . S
C110 P96 1.812 . S
C110 C111 1.389 . S
C110 C115 1.391 . S
C111 H97 0.941 . S
C111 C110 1.389 . S
C111 C112 1.397 . S
C112 H98 0.939 . S
C112 C111 1.397 . S
C112 C113 1.378 . S
C113 C112 1.378 . S
C113 C114 1.378 . S
C114 H99 0.940 . S
C114 C113 1.378 . S
C114 C115 1.396 . S
C115 H100 0.940 . S
C115 C110 1.391 . S
C115 C114 1.396 . S
C116 P96 1.803 . S
C116 C117 1.378 . S
C116 C121 1.400 . S
C117 H101 0.939 . S
C117 C116 1.378 . S
C117 C118 1.361 . S
C118 H102 0.942 . S
C118 C117 1.361 . S
C118 C119 1.369 . S
C119 C118 1.369 . S
C119 C120 1.404 . S
C120 H103 0.940 . S
C120 C119 1.404 . S
C120 C121 1.389 . S
C121 H104 0.939 . S
C121 C116 1.400 . S
C121 C120 1.389 . S
C122 P96 1.819 . S
C122 C123 1.391 . S
C122 C127 1.391 . S
C123 H105 0.941 . S
C123 C122 1.391 . S
C123 C124 1.396 . S
C124 H108 0.939 . S
C124 C123 1.396 . S
C124 C125 1.397 . S
C125 C124 1.397 . S
C125 C126 1.385 . S
C126 H109 0.940 . S
C126 C125 1.385 . S
C126 C127 1.388 . S
C127 H106 0.939 . S
C127 C122 1.391 . S
C127 C126 1.388 . S
P128 O139 1.490 . S
P128 C142 1.812 . S
P128 C148 1.803 . S
P128 C154 1.819 . S
H129 C143 0.941 . S
H130 C144 0.939 . S
H131 C146 0.940 . S
H132 C147 0.940 . S
H133 C149 0.939 . S
H134 C150 0.942 . S
H135 C152 0.940 . S
H136 C153 0.939 . S
H137 C155 0.941 . S
H138 C159 0.939 . S
O139 P128 1.490 . S
H140 C156 0.939 . S
H141 C158 0.940 . S
C142 P128 1.812 . S
C142 C143 1.389 . S
C142 C147 1.391 . S
C143 H129 0.941 . S
C143 C142 1.389 . S
C143 C144 1.397 . S
C144 H130 0.939 . S
C144 C143 1.397 . S
C144 C145 1.378 . S
C145 C144 1.378 . S
C145 C146 1.378 . S
C146 H131 0.940 . S
C146 C145 1.378 . S
C146 C147 1.396 . S
C147 H132 0.940 . S
C147 C142 1.391 . S
C147 C146 1.396 . S
C148 P128 1.803 . S
C148 C149 1.378 . S
C148 C153 1.400 . S
C149 H133 0.939 . S
C149 C148 1.378 . S
C149 C150 1.361 . S
C150 H134 0.942 . S
C150 C149 1.361 . S
C150 C151 1.369 . S
C151 C150 1.369 . S
C151 C152 1.404 . S
C152 H135 0.940 . S
C152 C151 1.404 . S
C152 C153 1.389 . S
C153 H136 0.939 . S
C153 C148 1.400 . S
C153 C152 1.389 . S
C154 P128 1.819 . S
C154 C155 1.391 . S
C154 C159 1.391 . S
C155 H137 0.941 . S
C155 C154 1.391 . S
C155 C156 1.396 . S
C156 H140 0.939 . S
C156 C155 1.396 . S
C156 C157 1.397 . S
C157 C156 1.397 . S
C157 C158 1.385 . S
C158 H141 0.940 . S
C158 C157 1.385 . S
C158 C159 1.388 . S
C159 H138 0.939 . S
C159 C154 1.391 . S
C159 C158 1.388 . S
P160 O171 1.490 . S
P160 C174 1.812 . S
P160 C180 1.803 . S
P160 C186 1.819 . S
H161 C175 0.941 . S
H162 C176 0.939 . S
H163 C178 0.940 . S
H164 C179 0.940 . S
H165 C181 0.939 . S
H166 C182 0.942 . S
H167 C184 0.940 . S
H168 C185 0.939 . S
H169 C187 0.941 . S
H170 C191 0.939 . S
O171 P160 1.490 . S
H172 C188 0.939 . S
H173 C190 0.940 . S
C174 P160 1.812 . S
C174 C175 1.389 . S
C174 C179 1.391 . S
C175 H161 0.941 . S
C175 C174 1.389 . S
C175 C176 1.397 . S
C176 H162 0.939 . S
C176 C175 1.397 . S
C176 C177 1.378 . S
C177 C176 1.378 . S
C177 C178 1.378 . S
C178 H163 0.940 . S
C178 C177 1.378 . S
C178 C179 1.396 . S
C179 H164 0.940 . S
C179 C174 1.391 . S
C179 C178 1.396 . S
C180 P160 1.803 . S
C180 C181 1.378 . S
C180 C185 1.400 . S
C181 H165 0.939 . S
C181 C180 1.378 . S
C181 C182 1.361 . S
C182 H166 0.942 . S
C182 C181 1.361 . S
C182 C183 1.369 . S
C183 C182 1.369 . S
C183 C184 1.404 . S
C184 H167 0.940 . S
C184 C183 1.404 . S
C184 C185 1.389 . S
C185 H168 0.939 . S
C185 C180 1.400 . S
C185 C184 1.389 . S
C186 P160 1.819 . S
C186 C187 1.391 . S
C186 C191 1.391 . S
C187 H169 0.941 . S
C187 C186 1.391 . S
C187 C188 1.396 . S
C188 H172 0.939 . S
C188 C187 1.396 . S
C188 C189 1.397 . S
C189 C188 1.397 . S
C189 C190 1.385 . S
C190 H173 0.940 . S
C190 C189 1.385 . S
C190 C191 1.388 . S
C191 H170 0.939 . S
C191 C186 1.391 . S
C191 C190 1.388 . S
P192 O203 1.490 . S
P192 C206 1.812 . S
P192 C212 1.803 . S
P192 C218 1.819 . S
H193 C207 0.941 . S
H194 C208 0.939 . S
H195 C210 0.940 . S
H196 C211 0.940 . S
H197 C213 0.939 . S
H198 C214 0.942 . S
H199 C216 0.940 . S
H200 C217 0.939 . S
H201 C219 0.941 . S
H202 C223 0.939 . S
O203 P192 1.490 . S
H204 C220 0.939 . S
H205 C222 0.940 . S
C206 P192 1.812 . S
C206 C207 1.389 . S
C206 C211 1.391 . S
C207 H193 0.941 . S
C207 C206 1.389 . S
C207 C208 1.397 . S
C208 H194 0.939 . S
C208 C207 1.397 . S
C208 C209 1.378 . S
C209 C208 1.378 . S
C209 C210 1.378 . S
C210 H195 0.940 . S
C210 C209 1.378 . S
C210 C211 1.396 . S
C211 H196 0.940 . S
C211 C206 1.391 . S
C211 C210 1.396 . S
C212 P192 1.803 . S
C212 C213 1.378 . S
C212 C217 1.400 . S
C213 H197 0.939 . S
C213 C212 1.378 . S
C213 C214 1.361 . S
C214 H198 0.942 . S
C214 C213 1.361 . S
C214 C215 1.369 . S
C215 C214 1.369 . S
C215 C216 1.404 . S
C216 H199 0.940 . S
C216 C215 1.404 . S
C216 C217 1.389 . S
C217 H200 0.939 . S
C217 C212 1.400 . S
C217 C216 1.389 . S
C218 P192 1.819 . S
C218 C219 1.391 . S
C218 C223 1.391 . S
C219 H201 0.941 . S
C219 C218 1.391 . S
C219 C220 1.396 . S
C220 H204 0.939 . S
C220 C219 1.396 . S
C220 C221 1.397 . S
C221 C220 1.397 . S
C221 C222 1.385 . S
C222 H205 0.940 . S
C222 C221 1.385 . S
C222 C223 1.388 . S
C223 H202 0.939 . S
C223 C218 1.391 . S
C223 C222 1.388 . S
P224 O235 1.490 . S
P224 C238 1.812 . S
P224 C244 1.803 . S
P224 C250 1.819 . S
H225 C239 0.941 . S
H226 C240 0.939 . S
H227 C242 0.940 . S
H228 C243 0.940 . S
H229 C245 0.939 . S
H230 C246 0.942 . S
H231 C248 0.940 . S
H232 C249 0.939 . S
H233 C251 0.941 . S
H234 C255 0.939 . S
O235 P224 1.490 . S
H236 C252 0.939 . S
H237 C254 0.940 . S
C238 P224 1.812 . S
C238 C239 1.389 . S
C238 C243 1.391 . S
C239 H225 0.941 . S
C239 C238 1.389 . S
C239 C240 1.397 . S
C240 H226 0.939 . S
C240 C239 1.397 . S
C240 C241 1.378 . S
C241 C240 1.378 . S
C241 C242 1.378 . S
C242 H227 0.940 . S
C242 C241 1.378 . S
C242 C243 1.396 . S
C243 H228 0.940 . S
C243 C238 1.391 . S
C243 C242 1.396 . S
C244 P224 1.803 . S
C244 C245 1.378 . S
C244 C249 1.400 . S
C245 H229 0.939 . S
C245 C244 1.378 . S
C245 C246 1.361 . S
C246 H230 0.942 . S
C246 C245 1.361 . S
C246 C247 1.369 . S
C247 C246 1.369 . S
C247 C248 1.404 . S
C248 H231 0.940 . S
C248 C247 1.404 . S
C248 C249 1.389 . S
C249 H232 0.939 . S
C249 C244 1.400 . S
C249 C248 1.389 . S
C250 P224 1.819 . S
C250 C251 1.391 . S
C250 C255 1.391 . S
C251 H233 0.941 . S
C251 C250 1.391 . S
C251 C252 1.396 . S
C252 H236 0.939 . S
C252 C251 1.396 . S
C252 C253 1.397 . S
C253 C252 1.397 . S
C253 C254 1.385 . S
C254 H237 0.940 . S
C254 C253 1.385 . S
C254 C255 1.388 . S
C255 H234 0.939 . S
C255 C250 1.391 . S
C255 C254 1.388 . S
Tb256 C265 2.764 . S
Tb256 O266 2.325 1_455 S
Tb256 O269 2.303 . S
Tb256 O273 2.322 1_545 S
Tb256 O274 2.349 1_545 S
Tb256 O277 2.415 . S
Tb256 O278 2.399 . S
Tb257 O267 2.324 1_565 S
Tb257 O268 2.351 1_565 S
Tb257 O270 2.413 . S
Tb257 O271 2.399 . S
Tb257 O272 2.324 1_655 S
Tb257 O275 2.302 . S
Tb257 C286 2.763 . S
C258 O274 1.261 1_655 S
C258 O275 1.257 . S
C259 C262 1.358 . S
C259 C263 1.332 . S
C259 C265 1.504 . S
C260 C261 1.373 . S
C260 C264 1.308 . S
C261 C260 1.373 . S
C261 C262 1.429 . S
C261 H288 0.932 . S
C262 C259 1.358 . S
C262 C261 1.429 . S
C262 H289 0.930 . S
C263 C259 1.332 . S
C263 C264 1.394 . S
C263 H290 0.932 . S
C264 C260 1.308 . S
C264 C263 1.394 . S
C264 H291 0.929 . S
C265 Tb256 2.764 . S
C265 C259 1.504 . S
C265 O277 1.239 . S
C265 O278 1.263 . S
O266 Tb256 2.325 1_655 S
O266 C276 1.236 . S
O267 Tb257 2.324 1_545 S
O267 C276 1.257 . S
O268 Tb257 2.351 1_545 S
O268 C279 1.261 1_655 S
O269 Tb256 2.303 . S
O269 C279 1.257 . S
O270 Tb257 2.413 . S
O270 C286 1.239 . S
O271 Tb257 2.399 . S
O271 C286 1.263 . S
O272 Tb257 2.324 1_455 S
O272 C287 1.236 . S
O273 Tb256 2.322 1_565 S
O273 C287 1.257 . S
O274 Tb256 2.349 1_565 S
O274 C258 1.261 1_455 S
O275 Tb257 2.302 . S
O275 C258 1.257 . S
C276 O266 1.236 . S
C276 O267 1.257 . S
O277 Tb256 2.415 . S
O277 C265 1.239 . S
O278 Tb256 2.399 . S
O278 C265 1.263 . S
C279 O268 1.261 1_455 S
C279 O269 1.257 . S
C280 C283 1.358 . S
C280 C284 1.332 . S
C280 C286 1.504 . S
C281 C282 1.373 . S
C281 C285 1.308 . S
C282 C281 1.373 . S
C282 C283 1.429 . S
C282 H292 0.932 . S
C283 C280 1.358 . S
C283 C282 1.429 . S
C283 H293 0.930 . S
C284 C280 1.332 . S
C284 C285 1.394 . S
C284 H294 0.932 . S
C285 C281 1.308 . S
C285 C284 1.394 . S
C285 H295 0.929 . S
C286 Tb257 2.763 . S
C286 O270 1.239 . S
C286 O271 1.263 . S
C286 C280 1.504 . S
C287 O272 1.236 . S
C287 O273 1.257 . S
H288 C261 0.932 . S
H289 C262 0.930 . S
H290 C263 0.932 . S
H291 C264 0.929 . S
H292 C282 0.932 . S
H293 C283 0.930 . S
H294 C284 0.932 . S
H295 C285 0.929 . S
Tb296 C305 2.764 . S
Tb296 O306 2.329 . S
Tb296 O309 2.303 . S
Tb296 O313 2.322 1_545 S
Tb296 O314 2.349 1_545 S
Tb296 O317 2.415 . S
Tb296 O318 2.399 . S
Tb297 O307 2.322 . S
Tb297 O308 2.349 1_556 S
Tb297 O310 2.415 1_545 S
Tb297 O311 2.399 1_545 S
Tb297 O312 2.325 1_546 S
Tb297 O315 2.303 1_545 S
Tb297 C326 2.764 1_545 S
C298 O314 1.261 1_556 S
C298 O315 1.257 . S
C299 C302 1.358 . S
C299 C303 1.332 . S
C299 C305 1.504 . S
C300 C301 1.373 . S
C300 C304 1.308 . S
C301 C300 1.373 . S
C301 C302 1.429 . S
C301 H328 0.932 . S
C302 C299 1.358 . S
C302 C301 1.429 . S
C302 H329 0.930 . S
C303 C299 1.332 . S
C303 C304 1.394 . S
C303 H330 0.932 . S
C304 C300 1.308 . S
C304 C303 1.394 . S
C304 H331 0.929 . S
C305 Tb296 2.764 . S
C305 C299 1.504 . S
C305 O317 1.239 . S
C305 O318 1.263 . S
O306 Tb296 2.329 . S
O306 C316 1.233 1_554 S
O307 Tb297 2.322 . S
O307 C316 1.257 . S
O308 Tb297 2.349 1_554 S
O308 C319 1.261 . S
O309 Tb296 2.303 . S
O309 C319 1.257 . S
O310 Tb297 2.415 1_565 S
O310 C326 1.239 . S
O311 Tb297 2.399 1_565 S
O311 C326 1.263 . S
O312 Tb297 2.325 1_564 S
O312 C327 1.236 . S
O313 Tb296 2.322 1_565 S
O313 C327 1.257 . S
O314 Tb296 2.349 1_565 S
O314 C298 1.261 1_554 S
O315 Tb297 2.303 1_565 S
O315 C298 1.257 . S
C316 O306 1.233 1_556 S
C316 O307 1.257 . S
O317 Tb296 2.415 . S
O317 C305 1.239 . S
O318 Tb296 2.399 . S
O318 C305 1.263 . S
C319 O308 1.261 . S
C319 O309 1.257 . S
C320 C323 1.358 . S
C320 C324 1.332 . S
C320 C326 1.504 . S
C321 C322 1.373 . S
C321 C325 1.308 . S
C322 C321 1.373 . S
C322 C323 1.429 . S
C322 H332 0.932 . S
C323 C320 1.358 . S
C323 C322 1.429 . S
C323 H333 0.930 . S
C324 C320 1.332 . S
C324 C325 1.394 . S
C324 H334 0.932 . S
C325 C321 1.308 . S
C325 C324 1.394 . S
C325 H335 0.929 . S
C326 Tb297 2.764 1_565 S
C326 O310 1.239 . S
C326 O311 1.263 . S
C326 C320 1.504 . S
C327 O312 1.236 . S
C327 O313 1.257 . S
H328 C301 0.932 . S
H329 C302 0.930 . S
H330 C303 0.932 . S
H331 C304 0.929 . S
H332 C322 0.932 . S
H333 C323 0.930 . S
H334 C324 0.932 . S
H335 C325 0.929 . S
Tb336 C345 2.764 . S
Tb336 O346 2.325 . S
Tb336 O349 2.303 . S
Tb336 O353 2.322 . S
Tb336 O354 2.349 . S
Tb336 O357 2.415 . S
Tb336 O358 2.399 . S
Tb337 O347 2.322 . S
Tb337 O348 2.349 . S
Tb337 O350 2.415 . S
Tb337 O351 2.399 . S
Tb337 O352 2.325 . S
Tb337 O355 2.303 . S
Tb337 C366 2.764 . S
C338 O354 1.261 . S
C338 O355 1.257 . S
C339 C342 1.358 . S
C339 C343 1.332 . S
C339 C345 1.504 . S
C340 C341 1.373 . S
C340 C344 1.308 . S
C341 C340 1.373 . S
C341 C342 1.429 . S
C341 H368 0.932 . S
C342 C339 1.358 . S
C342 C341 1.429 . S
C342 H369 0.930 . S
C343 C339 1.332 . S
C343 C344 1.394 . S
C343 H370 0.932 . S
C344 C340 1.308 . S
C344 C343 1.394 . S
C344 H371 0.929 . S
C345 Tb336 2.764 . S
C345 C339 1.504 . S
C345 O357 1.239 . S
C345 O358 1.263 . S
O346 Tb336 2.325 . S
O346 C356 1.236 . S
O347 Tb337 2.322 . S
O347 C356 1.257 . S
O348 Tb337 2.349 . S
O348 C359 1.261 . S
O349 Tb336 2.303 . S
O349 C359 1.257 . S
O350 Tb337 2.415 . S
O350 C366 1.239 . S
O351 Tb337 2.399 . S
O351 C366 1.263 . S
O352 Tb337 2.325 . S
O352 C367 1.236 . S
O353 Tb336 2.322 . S
O353 C367 1.257 . S
O354 Tb336 2.349 . S
O354 C338 1.261 . S
O355 Tb337 2.303 . S
O355 C338 1.257 . S
C356 O346 1.236 . S
C356 O347 1.257 . S
O357 Tb336 2.415 . S
O357 C345 1.239 . S
O358 Tb336 2.399 . S
O358 C345 1.263 . S
C359 O348 1.261 . S
C359 O349 1.257 . S
C360 C363 1.358 . S
C360 C364 1.332 . S
C360 C366 1.504 . S
C361 C362 1.373 . S
C361 C365 1.308 . S
C362 C361 1.373 . S
C362 C363 1.429 . S
C362 H372 0.932 . S
C363 C360 1.358 . S
C363 C362 1.429 . S
C363 H373 0.930 . S
C364 C360 1.332 . S
C364 C365 1.394 . S
C364 H374 0.932 . S
C365 C361 1.308 . S
C365 C364 1.394 . S
C365 H375 0.929 . S
C366 Tb337 2.764 . S
C366 O350 1.239 . S
C366 O351 1.263 . S
C366 C360 1.504 . S
C367 O352 1.236 . S
C367 O353 1.257 . S
H368 C341 0.932 . S
H369 C342 0.930 . S
H370 C343 0.932 . S
H371 C344 0.929 . S
H372 C362 0.932 . S
H373 C363 0.930 . S
H374 C364 0.932 . S
H375 C365 0.929 . S
Tb376 C385 2.764 . S
Tb376 O386 2.325 . S
Tb376 O389 2.303 1_556 S
Tb376 O393 2.322 1_655 S
Tb376 O394 2.349 1_655 S
Tb376 O397 2.415 . S
Tb376 O398 2.399 . S
Tb377 O387 2.322 1_455 S
Tb377 O388 2.349 1_455 S
Tb377 O390 2.415 . S
Tb377 O391 2.399 . S
Tb377 O392 2.325 . S
Tb377 O395 2.303 1_554 S
Tb377 C406 2.764 . S
C378 O394 1.261 . S
C378 O395 1.257 . S
C379 C382 1.358 . S
C379 C383 1.332 . S
C379 C385 1.504 . S
C380 C381 1.373 . S
C380 C384 1.308 . S
C381 C380 1.373 . S
C381 C382 1.429 . S
C381 H408 0.932 . S
C382 C379 1.358 . S
C382 C381 1.429 . S
C382 H409 0.930 . S
C383 C379 1.332 . S
C383 C384 1.394 . S
C383 H410 0.932 . S
C384 C380 1.308 . S
C384 C383 1.394 . S
C384 H411 0.929 . S
C385 Tb376 2.764 . S
C385 C379 1.504 . S
C385 O397 1.239 . S
C385 O398 1.263 . S
O386 Tb376 2.325 . S
O386 C396 1.236 . S
O387 Tb377 2.322 1_655 S
O387 C396 1.257 1_554 S
O388 Tb377 2.349 1_655 S
O388 C399 1.261 . S
O389 Tb376 2.303 1_554 S
O389 C399 1.257 . S
O390 Tb377 2.415 . S
O390 C406 1.239 . S
O391 Tb377 2.399 . S
O391 C406 1.263 . S
O392 Tb377 2.325 . S
O392 C407 1.236 . S
O393 Tb376 2.322 1_455 S
O393 C407 1.258 1_556 S
O394 Tb376 2.349 1_455 S
O394 C378 1.261 . S
O395 Tb377 2.303 1_556 S
O395 C378 1.257 . S
C396 O386 1.236 . S
C396 O387 1.257 1_556 S
O397 Tb376 2.415 . S
O397 C385 1.239 . S
O398 Tb376 2.399 . S
O398 C385 1.263 . S
C399 O388 1.261 . S
C399 O389 1.257 . S
C400 C403 1.358 . S
C400 C404 1.332 . S
C400 C406 1.504 . S
C401 C402 1.373 . S
C401 C405 1.308 . S
C402 C401 1.373 . S
C402 C403 1.429 . S
C402 H412 0.932 . S
C403 C400 1.358 . S
C403 C402 1.429 . S
C403 H413 0.930 . S
C404 C400 1.332 . S
C404 C405 1.394 . S
C404 H414 0.932 . S
C405 C401 1.308 . S
C405 C404 1.394 . S
C405 H415 0.929 . S
C406 Tb377 2.764 . S
C406 O390 1.239 . S
C406 O391 1.263 . S
C406 C400 1.504 . S
C407 O392 1.236 . S
C407 O393 1.258 1_554 S
H408 C381 0.932 . S
H409 C382 0.930 . S
H410 C383 0.932 . S
H411 C384 0.929 . S
H412 C402 0.932 . S
H413 C403 0.930 . S
H414 C404 0.932 . S
H415 C405 0.929 . S
H416 C422 0.930 . S
H417 C425 0.930 . S
H418 C426 0.930 . S
H419 C427 0.930 . S
H420 C430 0.930 . S
H421 C431 0.930 . S
C422 H416 0.930 . S
C422 C423 1.355 . S
C422 C424 1.415 . S
C423 C422 1.355 . S
C423 C425 1.419 . S
C424 C422 1.415 . S
C424 C429 1.425 . S
C424 C431 1.409 . S
C425 H417 0.930 . S
C425 C423 1.419 . S
C425 C426 1.362 . S
C426 H418 0.930 . S
C426 C425 1.362 . S
C426 C429 1.409 . S
C427 H419 0.930 . S
C427 C428 1.355 . S
C427 C429 1.415 . S
C428 C427 1.355 . S
C428 C430 1.419 . S
C429 C424 1.425 . S
C429 C426 1.409 . S
C429 C427 1.415 . S
C430 H420 0.930 . S
C430 C428 1.419 . S
C430 C431 1.362 . S
C431 H421 0.930 . S
C431 C424 1.409 . S
C431 C430 1.362 . S
H432 C438 0.930 . S
H433 C441 0.930 . S
H434 C442 0.930 . S
H435 C443 0.930 . S
H436 C446 0.930 . S
H437 C447 0.930 . S
C438 H432 0.930 . S
C438 C439 1.355 . S
C438 C440 1.415 . S
C439 C438 1.355 . S
C439 C441 1.419 . S
C440 C438 1.415 . S
C440 C445 1.425 . S
C440 C447 1.409 . S
C441 H433 0.930 . S
C441 C439 1.419 . S
C441 C442 1.362 . S
C442 H434 0.930 . S
C442 C441 1.362 . S
C442 C445 1.409 . S
C443 H435 0.930 . S
C443 C444 1.355 . S
C443 C445 1.415 . S
C444 C443 1.355 . S
C444 C446 1.419 . S
C445 C440 1.425 . S
C445 C442 1.409 . S
C445 C443 1.415 . S
C446 H436 0.930 . S
C446 C444 1.419 . S
C446 C447 1.362 . S
C447 H437 0.930 . S
C447 C440 1.409 . S
C447 C446 1.362 . S
H448 C454 0.930 . S
H449 C457 0.930 . S
H450 C458 0.930 . S
H451 C459 0.930 . S
H452 C462 0.930 . S
H453 C463 0.930 . S
C454 H448 0.930 . S
C454 C455 1.355 . S
C454 C456 1.415 . S
C455 C454 1.355 . S
C455 C457 1.419 . S
C456 C454 1.415 . S
C456 C461 1.425 . S
C456 C463 1.409 . S
C457 H449 0.930 . S
C457 C455 1.419 . S
C457 C458 1.362 . S
C458 H450 0.930 . S
C458 C457 1.362 . S
C458 C461 1.409 . S
C459 H451 0.930 . S
C459 C460 1.355 . S
C459 C461 1.415 . S
C460 C459 1.355 . S
C460 C462 1.419 . S
C461 C456 1.425 . S
C461 C458 1.409 . S
C461 C459 1.415 . S
C462 H452 0.930 . S
C462 C460 1.419 . S
C462 C463 1.362 . S
C463 H453 0.930 . S
C463 C456 1.409 . S
C463 C462 1.362 . S
H464 C470 0.930 . S
H465 C473 0.930 . S
H466 C474 0.930 . S
H467 C475 0.930 . S
H468 C478 0.930 . S
H469 C479 0.930 . S
C470 H464 0.930 . S
C470 C471 1.355 . S
C470 C472 1.415 . S
C471 C470 1.355 . S
C471 C473 1.419 . S
C472 C470 1.415 . S
C472 C477 1.425 . S
C472 C479 1.409 . S
C473 H465 0.930 . S
C473 C471 1.419 . S
C473 C474 1.362 . S
C474 H466 0.930 . S
C474 C473 1.362 . S
C474 C477 1.409 . S
C475 H467 0.930 . S
C475 C476 1.355 . S
C475 C477 1.415 . S
C476 C475 1.355 . S
C476 C478 1.419 . S
C477 C472 1.425 . S
C477 C474 1.409 . S
C477 C475 1.415 . S
C478 H468 0.930 . S
C478 C476 1.419 . S
C478 C479 1.362 . S
C479 H469 0.930 . S
C479 C472 1.409 . S
C479 C478 1.362 . S
H480 C486 0.930 . S
H481 C489 0.930 . S
H482 C490 0.930 . S
H483 C491 0.930 . S
H484 C494 0.930 . S
H485 C495 0.930 . S
C486 H480 0.930 . S
C486 C487 1.355 . S
C486 C488 1.415 . S
C487 C486 1.355 . S
C487 C489 1.419 . S
C488 C486 1.415 . S
C488 C493 1.425 . S
C488 C495 1.409 . S
C489 H481 0.930 . S
C489 C487 1.419 . S
C489 C490 1.362 . S
C490 H482 0.930 . S
C490 C489 1.362 . S
C490 C493 1.409 . S
C491 H483 0.930 . S
C491 C492 1.355 . S
C491 C493 1.415 . S
C492 C491 1.355 . S
C492 C494 1.419 . S
C493 C488 1.425 . S
C493 C490 1.409 . S
C493 C491 1.415 . S
C494 H484 0.930 . S
C494 C492 1.419 . S
C494 C495 1.362 . S
C495 H485 0.930 . S
C495 C488 1.409 . S
C495 C494 1.362 . S
H496 C502 0.930 . S
H497 C505 0.930 . S
H498 C506 0.930 1_655 S
H499 C507 0.930 . S
H500 C510 0.930 . S
H501 C511 0.930 . S
C502 H496 0.930 . S
C502 C503 1.355 . S
C502 C504 1.415 . S
C503 C502 1.355 . S
C503 C505 1.419 . S
C504 C502 1.415 . S
C504 C509 1.425 . S
C504 C511 1.409 . S
C505 H497 0.930 . S
C505 C503 1.419 . S
C505 C506 1.362 . S
C506 H498 0.930 1_455 S
C506 C505 1.362 . S
C506 C509 1.409 . S
C507 H499 0.930 . S
C507 C508 1.355 . S
C507 C509 1.415 . S
C508 C507 1.355 . S
C508 C510 1.419 . S
C509 C504 1.425 . S
C509 C506 1.409 . S
C509 C507 1.415 . S
C510 H500 0.930 . S
C510 C508 1.419 . S
C510 C511 1.362 . S
C511 H501 0.930 . S
C511 C504 1.409 . S
C511 C510 1.362 . S
H512 C518 0.930 . S
H513 C521 0.930 . S
H514 C522 0.930 . S
H515 C523 0.930 . S
H516 C526 0.930 1_554 S
H517 C527 0.930 . S
C518 H512 0.930 . S
C518 C519 1.355 . S
C518 C520 1.415 . S
C519 C518 1.355 . S
C519 C521 1.419 . S
C520 C518 1.415 . S
C520 C525 1.425 . S
C520 C527 1.409 . S
C521 H513 0.930 . S
C521 C519 1.419 . S
C521 C522 1.362 . S
C522 H514 0.930 . S
C522 C521 1.362 . S
C522 C525 1.409 . S
C523 H515 0.930 . S
C523 C524 1.355 . S
C523 C525 1.415 . S
C524 C523 1.355 . S
C524 C526 1.419 . S
C525 C520 1.425 . S
C525 C522 1.409 . S
C525 C523 1.415 . S
C526 H516 0.930 1_556 S
C526 C524 1.419 . S
C526 C527 1.362 . S
C527 H517 0.930 . S
C527 C520 1.409 . S
C527 C526 1.362 . S
H528 C534 0.930 . S
H529 C537 0.930 . S
H530 C538 0.930 . S
H531 C539 0.930 . S
H532 C542 0.930 . S
H533 C543 0.930 . S
C534 H528 0.930 . S
C534 C535 1.355 . S
C534 C536 1.415 . S
C535 C534 1.355 . S
C535 C537 1.419 . S
C536 C534 1.415 . S
C536 C541 1.425 . S
C536 C543 1.409 . S
C537 H529 0.930 . S
C537 C535 1.419 . S
C537 C538 1.362 . S
C538 H530 0.930 . S
C538 C537 1.362 . S
C538 C541 1.409 . S
C539 H531 0.930 . S
C539 C540 1.355 . S
C539 C541 1.415 . S
C540 C539 1.355 . S
C540 C542 1.419 . S
C541 C536 1.425 . S
C541 C538 1.409 . S
C541 C539 1.415 . S
C542 H532 0.930 . S
C542 C540 1.419 . S
C542 C543 1.362 . S
C543 H533 0.930 . S
C543 C536 1.409 . S
C543 C542 1.362 . S
H544 C550 0.930 . S
H545 C553 0.930 . S
H546 C554 0.930 . S
H547 C555 0.930 . S
H548 C558 0.930 . S
H549 C559 0.930 . S
C550 H544 0.930 . S
C550 C551 1.355 . S
C550 C552 1.415 . S
C551 C550 1.355 . S
C551 C553 1.419 . S
C552 C550 1.415 . S
C552 C557 1.425 . S
C552 C559 1.409 . S
C553 H545 0.930 . S
C553 C551 1.419 . S
C553 C554 1.362 . S
C554 H546 0.930 . S
C554 C553 1.362 . S
C554 C557 1.409 . S
C555 H547 0.930 . S
C555 C556 1.355 . S
C555 C557 1.415 . S
C556 C555 1.355 . S
C556 C558 1.419 . S
C557 C552 1.425 . S
C557 C554 1.409 . S
C557 C555 1.415 . S
C558 H548 0.930 . S
C558 C556 1.419 . S
C558 C559 1.362 . S
C559 H549 0.930 . S
C559 C552 1.409 . S
C559 C558 1.362 . S
H560 C566 0.930 . S
H561 C569 0.930 . S
H562 C570 0.930 . S
H563 C571 0.930 . S
H564 C574 0.930 . S
H565 C575 0.930 . S
C566 H560 0.930 . S
C566 C567 1.355 . S
C566 C568 1.415 . S
C567 C566 1.355 . S
C567 C569 1.419 . S
C568 C566 1.415 . S
C568 C573 1.425 . S
C568 C575 1.409 . S
C569 H561 0.930 . S
C569 C567 1.419 . S
C569 C570 1.362 . S
C570 H562 0.930 . S
C570 C569 1.362 . S
C570 C573 1.409 . S
C571 H563 0.930 . S
C571 C572 1.355 . S
C571 C573 1.415 . S
C572 C571 1.355 . S
C572 C574 1.419 . S
C573 C568 1.425 . S
C573 C570 1.409 . S
C573 C571 1.415 . S
C574 H564 0.930 . S
C574 C572 1.419 . S
C574 C575 1.362 . S
C575 H565 0.930 . S
C575 C568 1.409 . S
C575 C574 1.362 . S
H576 C582 0.930 . S
H577 C585 0.930 . S
H578 C586 0.930 . S
H579 C587 0.930 . S
H580 C590 0.930 1_455 S
H581 C591 0.930 1_455 S
C582 H576 0.930 . S
C582 C583 1.355 . S
C582 C584 1.415 . S
C583 C582 1.355 . S
C583 C585 1.419 . S
C584 C582 1.415 . S
C584 C589 1.425 . S
C584 C591 1.409 . S
C585 H577 0.930 . S
C585 C583 1.419 . S
C585 C586 1.362 . S
C586 H578 0.930 . S
C586 C585 1.362 . S
C586 C589 1.409 . S
C587 H579 0.930 . S
C587 C588 1.355 . S
C587 C589 1.415 . S
C588 C587 1.355 . S
C588 C590 1.419 . S
C589 C584 1.425 . S
C589 C586 1.409 . S
C589 C587 1.415 . S
C590 H580 0.930 1_655 S
C590 C588 1.419 . S
C590 C591 1.362 . S
C591 H581 0.930 1_655 S
C591 C584 1.409 . S
C591 C590 1.362 . S
H592 C598 0.930 . S
H593 C601 0.930 . S
H594 C602 0.930 . S
H595 C603 0.930 . S
H596 C606 0.930 . S
H597 C607 0.930 . S
C598 H592 0.930 . S
C598 C599 1.355 . S
C598 C600 1.415 . S
C599 C598 1.355 . S
C599 C601 1.419 . S
C600 C598 1.415 . S
C600 C605 1.425 . S
C600 C607 1.409 . S
C601 H593 0.930 . S
C601 C599 1.419 . S
C601 C602 1.362 . S
C602 H594 0.930 . S
C602 C601 1.362 . S
C602 C605 1.409 . S
C603 H595 0.930 . S
C603 C604 1.355 . S
C603 C605 1.415 . S
C604 C603 1.355 . S
C604 C606 1.419 . S
C605 C600 1.425 . S
C605 C602 1.409 . S
C605 C603 1.415 . S
C606 H596 0.930 . S
C606 C604 1.419 . S
C606 C607 1.362 . S
C607 H597 0.930 . S
C607 C600 1.409 . S
C607 C606 1.362 . S
H608 C614 0.930 . S
H609 C617 0.930 . S
H610 C618 0.930 . S
H611 C619 0.930 . S
H612 C622 0.930 . S
H613 C623 0.930 . S
C614 H608 0.930 . S
C614 C615 1.355 . S
C614 C616 1.415 . S
C615 C614 1.355 . S
C615 C617 1.419 . S
C616 C614 1.415 . S
C616 C621 1.425 . S
C616 C623 1.409 . S
C617 H609 0.930 . S
C617 C615 1.419 . S
C617 C618 1.362 . S
C618 H610 0.930 . S
C618 C617 1.362 . S
C618 C621 1.409 . S
C619 H611 0.930 . S
C619 C620 1.355 . S
C619 C621 1.415 . S
C620 C619 1.355 . S
C620 C622 1.419 . S
C621 C616 1.425 . S
C621 C618 1.409 . S
C621 C619 1.415 . S
C622 H612 0.930 . S
C622 C620 1.419 . S
C622 C623 1.362 . S
C623 H613 0.930 . S
C623 C616 1.409 . S
C623 C622 1.362 . S
H624 C630 0.930 . S
H625 C633 0.930 . S
H626 C634 0.930 . S
H627 C635 0.930 . S
H628 C638 0.930 . S
H629 C639 0.930 . S
C630 H624 0.930 . S
C630 C631 1.355 . S
C630 C632 1.415 . S
C631 C630 1.355 . S
C631 C633 1.419 . S
C632 C630 1.415 . S
C632 C637 1.425 . S
C632 C639 1.409 . S
C633 H625 0.930 . S
C633 C631 1.419 . S
C633 C634 1.362 . S
C634 H626 0.930 . S
C634 C633 1.362 . S
C634 C637 1.409 . S
C635 H627 0.930 . S
C635 C636 1.355 . S
C635 C637 1.415 . S
C636 C635 1.355 . S
C636 C638 1.419 . S
C637 C632 1.425 . S
C637 C634 1.409 . S
C637 C635 1.415 . S
C638 H628 0.930 . S
C638 C636 1.419 . S
C638 C639 1.362 . S
C639 H629 0.930 . S
C639 C632 1.409 . S
C639 C638 1.362 . S
H640 C646 0.930 . S
H641 C649 0.930 . S
H642 C650 0.930 . S
H643 C651 0.930 . S
H644 C654 0.930 . S
H645 C655 0.930 . S
C646 H640 0.930 . S
C646 C647 1.355 . S
C646 C648 1.415 . S
C647 C646 1.355 . S
C647 C649 1.419 . S
C648 C646 1.415 . S
C648 C653 1.425 . S
C648 C655 1.409 . S
C649 H641 0.930 . S
C649 C647 1.419 . S
C649 C650 1.362 . S
C650 H642 0.930 . S
C650 C649 1.362 . S
C650 C653 1.409 . S
C651 H643 0.930 . S
C651 C652 1.355 . S
C651 C653 1.415 . S
C652 C651 1.355 . S
C652 C654 1.419 . S
C653 C648 1.425 . S
C653 C650 1.409 . S
C653 C651 1.415 . S
C654 H644 0.930 . S
C654 C652 1.419 . S
C654 C655 1.362 . S
C655 H645 0.930 . S
C655 C648 1.409 . S
C655 C654 1.362 . S
H656 C662 0.930 . S
H657 C665 0.930 . S
H658 C666 0.930 . S
H659 C667 0.930 . S
H660 C670 0.930 . S
H661 C671 0.930 . S
C662 H656 0.930 . S
C662 C663 1.355 . S
C662 C664 1.415 . S
C663 C662 1.355 . S
C663 C665 1.419 . S
C664 C662 1.415 . S
C664 C669 1.425 . S
C664 C671 1.409 . S
C665 H657 0.930 . S
C665 C663 1.419 . S
C665 C666 1.362 . S
C666 H658 0.930 . S
C666 C665 1.362 . S
C666 C669 1.409 . S
C667 H659 0.930 . S
C667 C668 1.355 . S
C667 C669 1.415 . S
C668 C667 1.355 . S
C668 C670 1.419 . S
C669 C664 1.425 . S
C669 C666 1.409 . S
C669 C667 1.415 . S
C670 H660 0.930 . S
C670 C668 1.419 . S
C670 C671 1.362 . S
C671 H661 0.930 . S
C671 C664 1.409 . S
C671 C670 1.362 . S
H672 C678 0.930 . S
H673 C681 0.930 . S
H674 C682 0.930 . S
H675 C683 0.930 . S
H676 C686 0.930 . S
H677 C687 0.930 . S
C678 H672 0.930 . S
C678 C679 1.355 . S
C678 C680 1.415 . S
C679 C678 1.355 . S
C679 C681 1.419 . S
C680 C678 1.415 . S
C680 C685 1.425 . S
C680 C687 1.409 . S
C681 H673 0.930 . S
C681 C679 1.419 . S
C681 C682 1.362 . S
C682 H674 0.930 . S
C682 C681 1.362 . S
C682 C685 1.409 . S
C683 H675 0.930 . S
C683 C684 1.355 . S
C683 C685 1.415 . S
C684 C683 1.355 . S
C684 C686 1.419 . S
C685 C680 1.425 . S
C685 C682 1.409 . S
C685 C683 1.415 . S
C686 H676 0.930 . S
C686 C684 1.419 . S
C686 C687 1.362 . S
C687 H677 0.930 . S
C687 C680 1.409 . S
C687 C686 1.362 . S
H688 C694 0.930 . S
H689 C697 0.930 . S
H690 C698 0.930 1_455 S
H691 C699 0.930 1_455 S
H692 C702 0.930 . S
H693 C703 0.930 . S
C694 H688 0.930 . S
C694 C695 1.355 . S
C694 C696 1.415 . S
C695 C694 1.355 . S
C695 C697 1.419 . S
C696 C694 1.415 . S
C696 C701 1.425 . S
C696 C703 1.409 . S
C697 H689 0.930 . S
C697 C695 1.419 . S
C697 C698 1.362 . S
C698 H690 0.930 1_655 S
C698 C697 1.362 . S
C698 C701 1.409 . S
C699 H691 0.930 1_655 S
C699 C700 1.355 . S
C699 C701 1.415 . S
C700 C699 1.355 . S
C700 C702 1.419 . S
C701 C696 1.425 . S
C701 C698 1.409 . S
C701 C699 1.415 . S
C702 H692 0.930 . S
C702 C700 1.419 . S
C702 C703 1.362 . S
C703 H693 0.930 . S
C703 C696 1.409 . S
C703 C702 1.362 . S
H704 C710 0.930 . S
H705 C713 0.930 . S
H706 C714 0.930 . S
H707 C715 0.930 . S
H708 C718 0.930 1_556 S
H709 C719 0.930 . S
C710 H704 0.930 . S
C710 C711 1.355 . S
C710 C712 1.415 . S
C711 C710 1.355 . S
C711 C713 1.419 . S
C712 C710 1.415 . S
C712 C717 1.425 . S
C712 C719 1.409 . S
C713 H705 0.930 . S
C713 C711 1.419 . S
C713 C714 1.362 . S
C714 H706 0.930 . S
C714 C713 1.362 . S
C714 C717 1.409 . S
C715 H707 0.930 . S
C715 C716 1.355 . S
C715 C717 1.415 . S
C716 C715 1.355 . S
C716 C718 1.419 . S
C717 C712 1.425 . S
C717 C714 1.409 . S
C717 C715 1.415 . S
C718 H708 0.930 1_554 S
C718 C716 1.419 . S
C718 C719 1.362 . S
C719 H709 0.930 . S
C719 C712 1.409 . S
C719 C718 1.362 . S
H720 C726 0.930 . S
H721 C729 0.930 . S
H722 C730 0.930 . S
H723 C731 0.930 . S
H724 C734 0.930 . S
H725 C735 0.930 . S
C726 H720 0.930 . S
C726 C727 1.355 . S
C726 C728 1.415 . S
C727 C726 1.355 . S
C727 C729 1.419 . S
C728 C726 1.415 . S
C728 C733 1.425 . S
C728 C735 1.409 . S
C729 H721 0.930 . S
C729 C727 1.419 . S
C729 C730 1.362 . S
C730 H722 0.930 . S
C730 C729 1.362 . S
C730 C733 1.409 . S
C731 H723 0.930 . S
C731 C732 1.355 . S
C731 C733 1.415 . S
C732 C731 1.355 . S
C732 C734 1.419 . S
C733 C728 1.425 . S
C733 C730 1.409 . S
C733 C731 1.415 . S
C734 H724 0.930 . S
C734 C732 1.419 . S
C734 C735 1.362 . S
C735 H725 0.930 . S
C735 C728 1.409 . S
C735 C734 1.362 . S
H736 C742 0.930 . S
H737 C745 0.930 . S
H738 C746 0.930 . S
H739 C747 0.930 . S
H740 C750 0.930 . S
H741 C751 0.930 . S
C742 H736 0.930 . S
C742 C743 1.355 . S
C742 C744 1.415 . S
C743 C742 1.355 . S
C743 C745 1.419 . S
C744 C742 1.415 . S
C744 C749 1.425 . S
C744 C751 1.409 . S
C745 H737 0.930 . S
C745 C743 1.419 . S
C745 C746 1.362 . S
C746 H738 0.930 . S
C746 C745 1.362 . S
C746 C749 1.409 . S
C747 H739 0.930 . S
C747 C748 1.355 . S
C747 C749 1.415 . S
C748 C747 1.355 . S
C748 C750 1.419 . S
C749 C744 1.425 . S
C749 C746 1.409 . S
C749 C747 1.415 . S
C750 H740 0.930 . S
C750 C748 1.419 . S
C750 C751 1.362 . S
C751 H741 0.930 . S
C751 C744 1.409 . S
C751 C750 1.362 . S
H752 C758 0.930 . S
H753 C761 0.930 . S
H754 C762 0.930 . S
H755 C763 0.930 . S
H756 C766 0.930 . S
H757 C767 0.930 . S
C758 H752 0.930 . S
C758 C759 1.355 . S
C758 C760 1.415 . S
C759 C758 1.355 . S
C759 C761 1.419 . S
C760 C758 1.415 . S
C760 C765 1.425 . S
C760 C767 1.409 . S
C761 H753 0.930 . S
C761 C759 1.419 . S
C761 C762 1.362 . S
C762 H754 0.930 . S
C762 C761 1.362 . S
C762 C765 1.409 . S
C763 H755 0.930 . S
C763 C764 1.355 . S
C763 C765 1.415 . S
C764 C763 1.355 . S
C764 C766 1.419 . S
C765 C760 1.425 . S
C765 C762 1.409 . S
C765 C763 1.415 . S
C766 H756 0.930 . S
C766 C764 1.419 . S
C766 C767 1.362 . S
C767 H757 0.930 . S
C767 C760 1.409 . S
C767 C766 1.362 . S
H768 C774 0.930 . S
H769 C777 0.930 . S
H770 C778 0.930 . S
H771 C779 0.930 . S
H772 C782 0.930 . S
H773 C783 0.930 . S
C774 H768 0.930 . S
C774 C775 1.355 . S
C774 C776 1.415 . S
C775 C774 1.355 . S
C775 C777 1.419 . S
C776 C774 1.415 . S
C776 C781 1.425 . S
C776 C783 1.409 . S
C777 H769 0.930 . S
C777 C775 1.419 . S
C777 C778 1.362 . S
C778 H770 0.930 . S
C778 C777 1.362 . S
C778 C781 1.409 . S
C779 H771 0.930 . S
C779 C780 1.355 . S
C779 C781 1.415 . S
C780 C779 1.355 . S
C780 C782 1.419 . S
C781 C776 1.425 . S
C781 C778 1.409 . S
C781 C779 1.415 . S
C782 H772 0.930 . S
C782 C780 1.419 . S
C782 C783 1.362 . S
C783 H773 0.930 . S
C783 C776 1.409 . S
C783 C782 1.362 . S
H784 C790 0.930 . S
H785 C793 0.930 . S
H786 C794 0.930 . S
H787 C795 0.930 . S
H788 C798 0.930 . S
H789 C799 0.930 . S
C790 H784 0.930 . S
C790 C791 1.355 . S
C790 C792 1.415 . S
C791 C790 1.355 . S
C791 C793 1.419 . S
C792 C790 1.415 . S
C792 C797 1.425 . S
C792 C799 1.409 . S
C793 H785 0.930 . S
C793 C791 1.419 . S
C793 C794 1.362 . S
C794 H786 0.930 . S
C794 C793 1.362 . S
C794 C797 1.409 . S
C795 H787 0.930 . S
C795 C796 1.355 . S
C795 C797 1.415 . S
C796 C795 1.355 . S
C796 C798 1.419 . S
C797 C792 1.425 . S
C797 C794 1.409 . S
C797 C795 1.415 . S
C798 H788 0.930 . S
C798 C796 1.419 . S
C798 C799 1.362 . S
C799 H789 0.930 . S
C799 C792 1.409 . S
C799 C798 1.362 . S
C423 C29 0.937 . S
C428 C260 0.973 . S
C439 C49 1.104 . S
C444 C321 1.146 . S
C460 C359 2.536 . S
C455 C93 2.531 . S
C471 C119 2.267 . S
C476 C399 2.268 . S
C492 C319 1.234 . S
C487 C17 1.216 . S
C508 C287 2.068 . S
C503 C61 1.832 . S
C524 C396 1.779 . S
C519 C81 1.756 . S
C540 C356 1.913 . S
C535 C125 1.917 . S
C551 C23 1.108 . S
C556 C401 1.106 . S
C572 C316 2.353 . S
C567 C87 2.265 . S
C583 C113 2.191 . S
C588 C258 2.193 . S
C599 C55 1.363 . S
C604 C361 1.532 . S
C620 C281 0.996 . S
C615 C157 0.964 . S
C631 C189 1.165 . S
C636 C300 1.165 . S
C647 C221 2.554 . S
C652 C338 2.538 . S
C663 C253 2.322 . S
C668 C378 2.342 . S
C679 C145 1.206 . S
C684 C298 1.310 . S
C700 C276 2.039 . S
C695 C183 2.024 . S
C716 C407 1.818 . S
C711 C209 1.805 . S
C732 C367 1.858 . S
C727 C247 1.869 . S
C743 C151 1.163 . S
C748 C380 1.208 . S
C764 C327 2.350 . S
C759 C215 2.321 . S
C780 C279 2.196 . S
C775 C241 2.183 . S
C791 C177 1.560 . S
C796 C340 1.552 . S
