# Generated by pormake.
# Topology zzz, (3,6)-cn, num edge types: 1
# Building blocks:
#     Node 0, Type 0, BuildingBlock: ESEHIV_clean_linker_0, # of connection points: 3
#     Node 1, Type 0, BuildingBlock: ESEHIV_clean_linker_0, # of connection points: 3
#     Node 2, Type 0, BuildingBlock: ESEHIV_clean_linker_0, # of connection points: 3
#     Node 3, Type 0, BuildingBlock: ESEHIV_clean_linker_0, # of connection points: 3
#     Node 4, Type 0, BuildingBlock: ESEHIV_clean_linker_0, # of connection points: 3
#     Node 5, Type 0, BuildingBlock: ESEHIV_clean_linker_0, # of connection points: 3
#     Node 6, Type 0, BuildingBlock: ESEHIV_clean_linker_0, # of connection points: 3
#     Node 7, Type 0, BuildingBlock: ESEHIV_clean_linker_0, # of connection points: 3
#     Node 8, Type 1, BuildingBlock: KUMBOL_clean_sbu_1, # of connection points: 6
#     Node 9, Type 1, BuildingBlock: KUMBOL_clean_sbu_1, # of connection points: 6
#     Node 10, Type 1, BuildingBlock: KUMBOL_clean_sbu_1, # of connection points: 6
#     Node 11, Type 1, BuildingBlock: KUMBOL_clean_sbu_1, # of connection points: 6
#     Edge 12, Type (0, 1), BuildingBlock: AJUNOK_clean_linker_0, # of connection points: 2
#     Edge 13, Type (0, 1), BuildingBlock: AJUNOK_clean_linker_0, # of connection points: 2
#     Edge 14, Type (0, 1), BuildingBlock: AJUNOK_clean_linker_0, # of connection points: 2
#     Edge 15, Type (0, 1), BuildingBlock: AJUNOK_clean_linker_0, # of connection points: 2
#     Edge 16, Type (0, 1), BuildingBlock: AJUNOK_clean_linker_0, # of connection points: 2
#     Edge 17, Type (0, 1), BuildingBlock: AJUNOK_clean_linker_0, # of connection points: 2
#     Edge 18, Type (0, 1), BuildingBlock: AJUNOK_clean_linker_0, # of connection points: 2
#     Edge 19, Type (0, 1), BuildingBlock: AJUNOK_clean_linker_0, # of connection points: 2
#     Edge 20, Type (0, 1), BuildingBlock: AJUNOK_clean_linker_0, # of connection points: 2
#     Edge 21, Type (0, 1), BuildingBlock: AJUNOK_clean_linker_0, # of connection points: 2
#     Edge 22, Type (0, 1), BuildingBlock: AJUNOK_clean_linker_0, # of connection points: 2
#     Edge 23, Type (0, 1), BuildingBlock: AJUNOK_clean_linker_0, # of connection points: 2
#     Edge 24, Type (0, 1), BuildingBlock: AJUNOK_clean_linker_0, # of connection points: 2
#     Edge 25, Type (0, 1), BuildingBlock: AJUNOK_clean_linker_0, # of connection points: 2
#     Edge 26, Type (0, 1), BuildingBlock: AJUNOK_clean_linker_0, # of connection points: 2
#     Edge 27, Type (0, 1), BuildingBlock: AJUNOK_clean_linker_0, # of connection points: 2
#     Edge 28, Type (0, 1), BuildingBlock: AJUNOK_clean_linker_0, # of connection points: 2
#     Edge 29, Type (0, 1), BuildingBlock: AJUNOK_clean_linker_0, # of connection points: 2
#     Edge 30, Type (0, 1), BuildingBlock: AJUNOK_clean_linker_0, # of connection points: 2
#     Edge 31, Type (0, 1), BuildingBlock: AJUNOK_clean_linker_0, # of connection points: 2
#     Edge 32, Type (0, 1), BuildingBlock: AJUNOK_clean_linker_0, # of connection points: 2
#     Edge 33, Type (0, 1), BuildingBlock: AJUNOK_clean_linker_0, # of connection points: 2
#     Edge 34, Type (0, 1), BuildingBlock: AJUNOK_clean_linker_0, # of connection points: 2
#     Edge 35, Type (0, 1), BuildingBlock: AJUNOK_clean_linker_0, # of connection points: 2
# Relax obj value: 0.445
# Max RMSD: 0.197
# Mean RMSD: 0.188
data_MOF--net-zzz--node1-KUMBOL_clean_sbu_1--node2-ESEHIV_clean_linker_0--edge1-AJUNOK_clean_linker_0
_symmetry_space_group_name_H-M    P1
_symmetry_Int_Tables_number       1
_symmetry_cell_setting            triclinic
loop_
_symmetry_equiv_pos_as_xyz
'x, y, z'
_cell_length_a     30.407067
_cell_length_b     30.940274
_cell_length_c     11.468893
_cell_angle_alpha  89.924915
_cell_angle_beta   89.947879
_cell_angle_gamma 89.698809
loop_
_atom_site_label
_atom_site_type_symbol
_atom_site_fract_x
_atom_site_fract_y
_atom_site_fract_z
_atom_type_partial_charge
H0 H 0.81935 0.63016 0.31622 0.0
H1 H 0.71995 0.61903 0.0569 0.0
H2 H 0.72292 0.52803 0.33744 0.0
C3 C 0.7897 0.61493 0.28492 0.0
C4 C 0.77461 0.57727 0.34119 0.0
C5 C 0.77035 0.63117 0.18305 0.0
C6 C 0.73274 0.61004 0.14073 0.0
C7 C 0.71299 0.57457 0.19534 0.0
C8 C 0.7356 0.55673 0.29539 0.0
H9 H 0.09048 0.82163 0.33978 0.0
H10 H 0.05944 0.71552 0.1208 0.0
H11 H 0.99949 0.72429 0.46221 0.0
C12 C 0.073 0.7914 0.32954 0.0
C13 C 0.04454 0.77708 0.41784 0.0
C14 C 0.07849 0.76877 0.22528 0.0
C15 C 0.05564 0.73133 0.20488 0.0
C16 C 0.0275 0.71398 0.28786 0.0
C17 C 1.02117 0.73713 0.39642 0.0
H18 H 0.73861 0.08017 0.3594 0.0
H19 H 0.86476 0.085 0.19263 0.0
H20 H 0.81915 0.96624 0.34861 0.0
C21 C 0.76964 0.0649 0.33681 0.0
C22 C 0.77645 0.0222 0.37252 0.0
C23 C 0.80034 0.08718 0.26805 0.0
C24 C 0.84023 0.06696 0.24046 0.0
C25 C 0.84805 0.02312 0.26587 0.0
C26 C 0.81504 1.00019 0.3308 0.0
H27 H 0.49392 0.67801 0.19285 0.0
H28 H 0.53568 0.78972 0.39272 0.0
H29 H 0.52644 0.79325 1.01564 0.0
C30 C 0.50642 0.7106 0.20029 0.0
C31 C 0.50779 0.73512 0.09856 0.0
C32 C 0.51738 0.72808 0.30991 0.0
C33 C 0.53042 0.77335 0.31061 0.0
C34 C 0.53448 0.79733 0.20168 0.0
C35 C 0.52596 0.77568 0.09795 0.0
H36 H 0.21021 0.56559 0.22612 0.0
H37 H 0.33179 0.53391 0.38634 0.0
H38 H 0.29509 0.46848 0.06771 0.0
C39 C 0.24029 0.54667 0.22265 0.0
C40 C 0.2468 0.51585 0.13331 0.0
C41 C 0.27145 0.55355 0.31 0.0
C42 C 0.30876 0.52822 0.31556 0.0
C43 C 0.31896 0.49814 0.22918 0.0
C44 C 0.28753 0.49126 0.13648 0.0
H45 H 0.11919 0.20914 0.2197 0.0
H46 H 0.1214 0.33109 0.38713 0.0
H47 H 1.0056 0.29152 0.197 0.0
C48 C 0.10364 0.23944 0.23921 0.0
C49 C 0.06327 0.24848 0.18433 0.0
C50 C 0.12189 0.2664 0.32543 0.0
C51 C 0.10325 0.30733 0.33805 0.0
C52 C 0.05899 0.3155 0.30911 0.0
C53 C 0.0388 0.28573 0.22726 0.0
H54 H 0.32917 0.09532 0.05531 0.0
H55 H 0.25369 0.10276 0.36959 0.0
H56 H 0.25011 0.98803 0.15875 0.0
C57 C 0.30448 0.08221 0.11354 0.0
C58 C 0.29387 0.03885 0.09935 0.0
C59 C 0.29627 0.1023 0.22061 0.0
C60 C 0.26137 0.0864 0.28849 0.0
C61 C 0.24061 0.04678 0.26161 0.0
C62 C 0.26032 1.02098 0.17179 0.0
H63 H 0.61014 0.31946 0.19049 0.0
H64 H 0.51624 0.22022 0.09506 0.0
H65 H 0.61174 0.20003 0.36854 0.0
C66 C 0.59743 0.28688 0.19475 0.0
C67 C 0.61495 0.26012 0.2802 0.0
C68 C 0.5639 0.27316 0.11855 0.0
C69 C 0.54353 0.23191 0.1462 0.0
C70 C 0.56048 0.20507 0.23996 0.0
C71 C 0.59745 0.21963 0.29999 0.0
C72 C 0.15638 0.09298 0.91752 0.0
C73 C 0.13755 0.11519 0.11379 0.0
C74 C 0.13302 0.08595 1.02081 0.0
C75 C 0.16976 0.14752 0.10778 0.0
C76 C 0.18687 0.12712 0.90943 0.0
C77 C 0.19426 0.15352 1.00623 0.0
N78 N 0.1478 0.06758 0.82341 0.0
C79 C 0.17158 0.07251 0.72328 0.0
C80 C 0.20923 0.13374 0.8044 0.0
C81 C 0.20173 0.10606 0.71102 0.0
Gd82 Gd 0.99514 0.03217 0.68431 0.0
Gd83 Gd 0.10214 1.00808 0.86287 0.0
N84 N 0.10444 0.05214 1.02841 0.0
C85 C 0.10885 0.11147 0.20856 0.0
C86 C 0.08133 0.04496 0.12828 0.0
C87 C 0.08112 0.07584 0.21683 0.0
H88 H 0.06289 1.01577 0.14062 0.0
H89 H 0.06063 0.07143 0.29313 0.0
H90 H 0.03367 0.99149 0.43358 0.0
H91 H 0.17044 0.0484 0.65707 0.0
H92 H 1.01168 0.93819 0.28479 0.0
H93 H 0.10913 0.13483 0.27836 0.0
H94 H 0.17651 0.16819 0.18081 0.0
H95 H 0.90625 0.05034 0.84959 0.0
H96 H 0.23297 0.15952 0.79531 0.0
H97 H 0.22032 0.10954 0.63104 0.0
H98 H 0.86633 0.89596 0.40208 0.0
H99 H 0.21837 0.17915 1.00288 0.0
H100 H 0.80477 0.96369 0.74181 0.0
H101 H 0.83191 1.02025 0.87605 0.0
N102 N 0.92167 1.0101 0.70468 0.0
C103 C 0.90681 0.98028 0.62791 0.0
C104 C 0.89488 0.02544 0.79103 0.0
C105 C 0.83746 0.97677 0.72994 0.0
C106 C 0.85261 1.00871 0.80573 0.0
C107 C 0.86434 0.96269 0.63834 0.0
H108 H 0.81769 0.91777 0.56391 0.0
N109 N 0.97504 0.98486 0.53291 0.0
C110 C 0.93414 0.96773 0.53789 0.0
C111 C 0.9485 0.92629 0.3635 0.0
C112 C 0.91986 0.93761 0.45425 0.0
C113 C 1.00215 0.97595 0.44083 0.0
C114 C 0.98969 0.9459 0.35616 0.0
O115 O 0.07702 0.078 0.82407 0.0
O116 O 1.00368 0.07622 0.84336 0.0
O117 O 1.00857 0.07577 0.54224 0.0
O118 O 0.94882 0.08418 0.64291 0.0
O119 O 0.03984 0.98521 0.96381 0.0
O120 O 0.98264 0.02407 0.87762 0.0
O121 O 1.0096 0.95949 0.67921 0.0
O122 O 0.07411 0.94497 0.78218 0.0
O123 O 0.14025 0.97165 0.99181 0.0
O124 O 0.17077 0.99393 0.83381 0.0
O125 O 0.06487 0.04189 0.6107 0.0
O126 O 0.10765 0.98767 0.67573 0.0
C127 C 0.04081 0.09553 0.86794 0.0
C128 C 0.99808 0.99892 0.96096 0.0
C129 C 0.98903 0.14682 0.59183 0.0
C130 C 0.04769 0.20012 0.61116 0.0
C131 C 0.97125 0.22315 0.59124 0.0
C132 C 0.95788 0.18013 0.58398 0.0
C133 C 1.0159 0.23317 0.60162 0.0
C134 C 0.03339 0.15709 0.6126 0.0
C135 C 0.9763 0.10167 0.56984 0.0
C136 C 0.87782 0.91945 0.46489 0.0
C137 C 0.85017 0.93179 0.5572 0.0
H138 H 0.93885 0.90311 0.29773 0.0
C139 C 0.04 0.93225 0.71748 0.0
C140 C 0.09502 1.01205 0.58962 0.0
C141 C 0.20079 0.93232 0.91408 0.0
C142 C 0.19271 0.85562 0.91021 0.0
C143 C 0.26294 0.88691 0.96396 0.0
C144 C 0.24399 0.92796 0.95442 0.0
C145 C 0.2367 0.85048 0.94734 0.0
C146 C 0.17932 0.89636 0.8703 0.0
C147 C 0.1763 0.97269 0.92938 0.0
H148 H 0.94719 0.24879 0.58191 0.0
H149 H 0.92351 0.1729 0.56903 0.0
H150 H 1.02562 0.26665 0.59416 0.0
H151 H 0.05757 0.13144 0.62062 0.0
H152 H 0.29614 0.88336 0.99682 0.0
H153 H 0.26219 0.95567 0.98267 0.0
H154 H 0.24936 0.81968 0.97704 0.0
H155 H 0.14666 0.90057 0.83443 0.0
C156 C 0.51228 0.86301 0.67306 0.0
C157 C 0.4375 0.83591 0.66917 0.0
C158 C 0.46736 0.87063 0.66306 0.0
C159 C 0.45351 0.79357 0.68064 0.0
C160 C 0.52816 0.82069 0.69158 0.0
C161 C 0.49871 0.78599 0.69215 0.0
N162 N 0.54031 0.89721 0.66907 0.0
C163 C 0.5845 0.89084 0.68431 0.0
C164 C 0.57318 0.81442 0.70969 0.0
C165 C 0.60143 0.84963 0.70618 0.0
Gd166 Gd 0.55157 0.05374 0.82956 0.0
Gd167 Gd 0.50745 0.96448 0.6237 0.0
N168 N 0.4528 0.91178 0.64786 0.0
C169 C 0.39239 0.84477 0.66247 0.0
C170 C 0.40884 0.92052 0.64003 0.0
C171 C 0.37799 0.88734 0.64842 0.0
H172 H 0.3979 0.95267 0.61957 0.0
H173 H 0.34322 0.89451 0.64102 0.0
H174 H 0.64114 0.09522 0.7129 0.0
H175 H 0.6071 0.91725 0.68326 0.0
H176 H 0.66347 0.16089 0.60585 0.0
H177 H 0.36847 0.81895 0.66725 0.0
H178 H 0.4311 0.76652 0.68049 0.0
H179 H 0.45133 0.08103 0.95315 0.0
H180 H 0.58644 0.78276 0.72845 0.0
H181 H 0.63632 0.84505 0.72049 0.0
H182 H 0.52924 0.24325 0.57302 0.0
H183 H 0.51073 0.75326 0.70117 0.0
H184 H 0.40464 0.19497 0.78657 0.0
H185 H 0.39294 0.1341 0.92201 0.0
N186 N 0.49253 0.10435 0.81609 0.0
C187 C 0.50134 0.14002 0.75029 0.0
C188 C 0.45552 0.10417 0.88429 0.0
C189 C 0.42963 0.17007 0.79495 0.0
C190 C 0.42283 0.13568 0.8709 0.0
C191 C 0.46985 0.17345 0.73698 0.0
H192 H 0.45597 0.23551 0.65701 0.0
N193 N 0.57394 0.11365 0.72213 0.0
C194 C 0.54337 0.14518 0.70427 0.0
C195 C 0.59816 0.18811 0.60726 0.0
C196 C 0.55455 0.18307 0.64367 0.0
C197 C 0.61692 0.11945 0.69156 0.0
C198 C 0.62955 0.1565 0.63187 0.0
O199 O 0.51931 0.93786 0.80965 0.0
O200 O 0.55527 0.98833 0.926 0.0
O201 O 0.61019 0.06556 0.93439 0.0
O202 O 0.55032 0.10033 0.97067 0.0
O203 O 0.45375 1.00316 0.71441 0.0
O204 O 0.48784 1.01924 0.88698 0.0
O205 O 0.55522 0.0616 0.63257 0.0
O206 O 0.48999 0.03514 0.57951 0.0
O207 O 0.46662 0.94694 0.47572 0.0
O208 O 0.53649 0.95578 0.45266 0.0
O209 O 0.60952 1.01689 0.74791 0.0
O210 O 0.57967 0.9821 0.58794 0.0
C211 C 0.53957 0.94891 0.90773 0.0
C212 C 0.45189 1.00854 0.82811 0.0
C213 C 0.61665 0.13979 0.9826 0.0
C214 C 0.68332 0.17989 1.02511 0.0
C215 C 0.62214 0.21621 0.93305 0.0
C216 C 0.59754 0.17816 0.93953 0.0
C217 C 0.66474 0.2175 0.97838 0.0
C218 C 0.65985 0.14097 1.02319 0.0
C219 C 0.59242 0.09843 0.98731 0.0
C220 C 0.52223 0.21477 0.62364 0.0
C221 C 0.48008 0.21007 0.67037 0.0
H222 H 0.60854 0.21662 0.56287 0.0
C223 C 0.52151 0.06334 0.56255 0.0
C224 C 0.61399 0.99754 0.64537 0.0
C225 C 0.49043 0.98831 0.31518 0.0
C226 C 0.45561 0.05767 0.26481 0.0
C227 C 0.52196 0.0331 0.16524 0.0
C228 C 0.52249 0.99533 0.23034 0.0
C229 C 0.48936 0.0644 0.1828 0.0
C230 C 0.45627 1.01895 0.3298 0.0
C231 C 0.49817 0.95405 0.40194 0.0
H232 H 0.60768 0.24498 0.8954 0.0
H233 H 0.56367 0.17903 0.91145 0.0
H234 H 0.68278 0.24758 0.97832 0.0
H235 H 0.67481 0.11177 0.0581 0.0
H236 H 0.54824 0.03845 0.10459 0.0
H237 H 0.54955 0.97277 0.21932 0.0
H238 H 0.49155 0.09412 0.13403 0.0
H239 H 0.43097 1.01313 0.39429 0.0
C240 C 0.40392 0.42392 0.8721 0.0
C241 C 0.43002 0.39953 0.06135 0.0
C242 C 0.43425 0.42688 0.96312 0.0
C243 C 0.39416 0.37137 0.06994 0.0
C244 C 0.36803 0.3953 0.8806 0.0
C245 C 0.363 0.3696 0.98056 0.0
N246 N 0.40916 0.44938 0.77597 0.0
C247 C 0.37945 0.44791 0.68653 0.0
C248 C 0.33784 0.39351 0.78879 0.0
C249 C 0.34352 0.42004 0.69167 0.0
Gd250 Gd 0.57229 0.49174 0.60229 0.0
Gd251 Gd 0.46556 0.5009 0.78859 0.0
N252 N 0.46814 0.45552 0.95482 0.0
C253 C 0.46224 0.40088 0.14789 0.0
C254 C 0.49839 0.45816 1.04264 0.0
C255 C 0.49662 0.43011 0.1381 0.0
H256 H 0.52394 0.48167 1.04194 0.0
H257 H 0.5216 0.43137 0.20501 0.0
H258 H 0.52676 0.49133 0.32679 0.0
H259 H 0.38172 0.47012 0.61432 0.0
H260 H 0.51385 0.54445 0.17099 0.0
H261 H 0.4607 0.37966 0.22306 0.0
H262 H 0.39041 0.35045 0.14515 0.0
H263 H 0.65171 0.53246 0.76954 0.0
H264 H 0.30976 0.37216 0.79263 0.0
H265 H 0.31965 0.41971 0.62174 0.0
H266 H 0.60652 0.66305 0.27271 0.0
H267 H 0.33554 0.34765 0.98865 0.0
H268 H 0.70191 0.64481 0.60128 0.0
H269 H 0.70276 0.59115 0.76478 0.0
N270 N 0.61912 0.55098 0.61325 0.0
C271 C 0.61815 0.5786 0.52071 0.0
C272 C 0.64909 0.5558 0.70028 0.0
C273 C 0.67849 0.61856 0.60347 0.0
C274 C 0.67914 0.58922 0.69612 0.0
C275 C 0.6473 0.61378 0.51481 0.0
H276 H 0.66474 0.67157 0.4189 0.0
N277 N 0.56322 0.53456 0.43316 0.0
C278 C 0.58814 0.5712 0.43122 0.0
C279 C 0.55435 0.59289 0.25017 0.0
C280 C 0.58417 0.60138 0.33967 0.0
C281 C 0.54042 0.52305 0.33578 0.0
C282 C 0.5342 0.55264 0.24495 0.0
O283 O 0.4904 0.43142 0.75979 0.0
O284 O 0.565 0.43923 0.74315 0.0
O285 O 0.6011 0.43389 0.52184 0.0
O286 O 0.63906 0.49149 0.53736 0.0
O287 O 0.52931 0.52729 0.8759 0.0
O288 O 0.58693 0.48811 0.79624 0.0
O289 O 0.54823 0.55924 0.66022 0.0
O290 O 0.47457 0.55293 0.6463 0.0
O291 O 0.44817 0.55657 0.89566 0.0
O292 O 0.39756 0.51425 0.83345 0.0
O293 O 0.50987 0.46435 0.51195 0.0
O294 O 0.45324 0.50377 0.59394 0.0
C295 C 0.5305 0.41627 0.77646 0.0
C296 C 0.57085 0.51312 0.87893 0.0
C297 C 0.67752 0.42744 0.56181 0.0
C298 C 0.71965 0.36135 0.55251 0.0
C299 C 0.72316 0.40579 0.72583 0.0
C300 C 0.69266 0.43445 0.67611 0.0
C301 C 0.73551 0.36831 0.66573 0.0
C302 C 0.69539 0.39399 0.49655 0.0
C303 C 0.63993 0.45118 0.51285 0.0
C304 C 0.61063 0.63847 0.33905 0.0
C305 C 0.64349 0.6436 0.42316 0.0
H306 H 0.54856 0.61604 0.18128 0.0
C307 C 0.51014 0.57659 0.63175 0.0
C308 C 0.46863 0.47887 0.5103 0.0
C309 C 0.38417 0.58801 0.8159 0.0
C310 C 0.38767 0.66525 0.79453 0.0
C311 C 0.36372 0.62198 0.63181 0.0
C312 C 0.36974 0.58466 0.69928 0.0
C313 C 0.3745 0.66233 0.67791 0.0
C314 C 0.38839 0.62851 0.86548 0.0
C315 C 0.40618 0.55181 0.87531 0.0
H316 H 0.73396 0.41047 0.81474 0.0
H317 H 0.67973 0.46073 0.72816 0.0
H318 H 0.7533 0.34302 0.71131 0.0
H319 H 0.68218 0.38819 0.40995 0.0
H320 H 0.35443 0.61925 0.54103 0.0
H321 H 0.3661 0.55345 0.65787 0.0
H322 H 0.37533 0.69043 0.62154 0.0
H323 H 0.40099 0.63083 0.95395 0.0
C324 C 1.02052 0.38826 0.90641 0.0
C325 C 0.06982 0.3974 0.06996 0.0
C326 C 0.03793 0.41381 0.99263 0.0
C327 C 0.08571 0.35515 0.05405 0.0
C328 C 0.03389 0.34488 0.89536 0.0
C329 C 0.06757 0.32887 0.96724 0.0
N330 N 0.98945 0.40561 0.83564 0.0
C331 C 0.96847 0.38049 0.75545 0.0
C332 C 1.01279 0.31899 0.81303 0.0
C333 C 0.97968 0.33683 0.74329 0.0
Gd334 Gd 1.02032 0.5759 0.67241 0.0
Gd335 Gd 0.97637 0.48041 0.85277 0.0
N336 N 1.02318 0.45501 1.00113 0.0
C337 C 0.08473 0.42409 0.16006 0.0
C338 C 0.03479 0.48001 0.09372 0.0
C339 C 0.06629 0.46529 0.17367 0.0
H340 H 1.01966 0.51122 0.10513 0.0
H341 H 0.07612 0.48555 0.24583 0.0
H342 H 0.99777 0.52985 0.4112 0.0
H343 H 0.94307 0.39415 0.70053 0.0
H344 H 0.94668 0.54234 0.24865 0.0
H345 H 0.10923 0.41272 0.22151 0.0
H346 H 0.11168 0.34239 0.10883 0.0
H347 H 1.00893 0.66296 0.852 0.0
H348 H 1.0213 0.28514 0.8045 0.0
H349 H 0.9629 0.31715 0.67971 0.0
H350 H 0.88171 0.68094 0.33574 0.0
H351 H 0.0796 0.29623 0.95681 0.0
H352 H 0.9175 0.74929 0.69292 0.0
H353 H 0.96645 0.73032 0.85689 0.0
N354 N 0.98032 0.6405 0.69344 0.0
C355 C 0.9547 0.651 0.59988 0.0
C356 C 0.98552 0.66899 0.7835 0.0
C357 C 0.93528 0.7189 0.69155 0.0
C358 C 0.96246 0.7081 0.78491 0.0
C359 C 0.9319 0.69078 0.59664 0.0
H360 H 0.88908 0.73199 0.49437 0.0
N361 N 0.97611 0.58463 0.50753 0.0
C362 C 0.95229 0.62226 0.50547 0.0
C363 C 0.92146 0.60184 0.31998 0.0
C364 C 0.92487 0.63212 0.41022 0.0
C365 C 0.97595 0.55721 0.41469 0.0
C366 C 0.94765 0.56473 0.32108 0.0
O367 O 0.05338 0.48416 0.84993 0.0
O368 O 0.06938 0.55546 0.81145 0.0
O369 O 0.08304 0.58175 0.57871 0.0
O370 O 0.04266 0.63746 0.60941 0.0
O371 O 0.97182 0.54806 0.93878 0.0
O372 O 0.02815 0.58902 0.86644 0.0
O373 O 0.94542 0.56915 0.70252 0.0
O374 O 0.93445 0.49751 0.69305 0.0
O375 O 0.93314 0.49739 0.99541 0.0
O376 O 0.91684 0.44285 0.88676 0.0
O377 O 0.03366 0.50786 0.58918 0.0
O378 O 0.97688 0.4665 0.65882 0.0
C379 C 0.08146 0.517 0.85008 0.0
C380 C 1.00033 0.57981 0.95063 0.0
C381 C 0.11775 0.64983 0.61734 0.0
C382 C 0.1964 0.66206 0.617 0.0
C383 C 0.14791 0.71628 0.69814 0.0
C384 C 0.11168 0.69032 0.67187 0.0
C385 C 0.19042 0.70242 0.66969 0.0
C386 C 0.16008 0.636 0.59191 0.0
C387 C 0.08043 0.62385 0.57596 0.0
C388 C 0.90239 0.67194 0.40758 0.0
C389 C 0.90656 0.70142 0.49889 0.0
H390 H 0.89988 0.60722 0.24698 0.0
C391 C 0.92087 0.53666 0.66773 0.0
C392 C 1.00921 0.47223 0.58481 0.0
C393 C 0.86012 0.49366 0.9292 0.0
C394 C 0.82088 0.56232 0.90023 0.0
C395 C 0.78057 0.49464 0.91539 0.0
C396 C 0.81997 0.47173 0.93174 0.0
C397 C 0.78084 0.53969 0.90264 0.0
C398 C 0.86007 0.53819 0.90418 0.0
C399 C 0.90211 0.47179 0.95937 0.0
H400 H 0.1428 0.74771 0.73732 0.0
H401 H 0.07906 0.70254 0.69146 0.0
H402 H 0.2182 0.72337 0.68567 0.0
H403 H 0.16474 0.60574 0.54545 0.0
H404 H 0.74949 0.47786 0.92017 0.0
H405 H 0.81903 0.43731 0.94892 0.0
H406 H 0.74973 0.55675 0.90399 0.0
H407 H 0.8909 0.55517 0.8984 0.0
C408 C 0.17239 0.06677 0.3755 0.0
C409 C 0.20087 0.03386 0.33465 0.0
C410 C 0.13609 0.05834 0.44772 0.0
C411 C 0.12709 1.01696 0.48998 0.0
H412 H 0.17828 0.10012 0.3524 0.0
H413 H 0.11633 0.08497 0.47752 0.0
S414 S 0.19079 0.91788 0.41611 0.0
N415 N 0.21622 0.95657 0.34335 0.0
N416 N 0.14953 0.94152 0.48537 0.0
C417 C 0.15478 0.98314 0.45056 0.0
C418 C 0.19119 0.99138 0.37231 0.0
C419 C 0.50428 0.16321 0.36047 0.0
C420 C 0.54201 0.16281 0.28836 0.0
C421 C 0.49615 0.13009 0.44435 0.0
C422 C 0.52424 0.09379 0.45826 0.0
H423 H 0.48317 0.1915 0.36073 0.0
H424 H 0.46985 0.13529 0.50565 0.0
S425 S 0.62915 0.07776 0.29896 0.0
N426 N 0.60915 0.1232 0.24481 0.0
N427 N 0.59239 0.06095 0.39434 0.0
C428 C 0.5614 0.09258 0.38527 0.0
C429 C 0.57023 0.12647 0.30206 0.0
C430 C 0.39922 0.51107 0.24484 0.0
C431 C 0.36509 0.48006 0.24348 0.0
C432 C 0.43357 0.50944 0.3277 0.0
C433 C 0.43962 0.474 0.40344 0.0
H434 H 0.39489 0.54093 0.19654 0.0
H435 H 0.45315 0.53812 0.33895 0.0
S436 S 0.36777 0.37747 0.41157 0.0
N437 N 0.34353 0.4096 0.31559 0.0
N438 N 0.41259 0.40285 0.45495 0.0
C439 C 0.4099 0.43945 0.38998 0.0
C440 C 0.37239 0.44288 0.31253 0.0
C441 C 0.05376 0.3618 0.4924 0.0
C442 C 0.03821 0.35368 0.37749 0.0
C443 C 0.04661 0.4009 0.55249 0.0
C444 C 1.02029 0.43405 0.5065 0.0
H445 H 0.07286 0.3375 0.53692 0.0
H446 H 0.06095 0.40458 0.6384 0.0
S447 S 0.95482 0.42379 0.23355 0.0
N448 N 0.98558 0.37952 0.23382 0.0
N449 N 0.96794 0.45104 0.35242 0.0
C450 C 0.9988 0.42448 0.39951 0.0
C451 C 1.00817 0.3849 0.33462 0.0
C452 C 0.93013 0.02729 0.23126 0.0
C453 C 0.89041 1.00437 0.21532 0.0
C454 C 0.96666 0.0222 0.15595 0.0
C455 C 0.96662 0.99272 0.06232 0.0
H456 H 0.93166 0.05239 0.29691 0.0
H457 H 0.9935 0.04443 0.16609 0.0
S458 S 0.87351 0.92033 0.98937 0.0
N459 N 0.8551 0.94815 0.10245 0.0
N460 N 0.92405 0.9375 0.96437 0.0
C461 C 0.92848 0.96709 0.05084 0.0
C462 C 0.89071 0.97281 0.12664 0.0
C463 C 0.57781 0.8627 0.13411 0.0
C464 C 0.53804 0.84583 0.18021 0.0
C465 C 0.57857 0.89754 0.05217 0.0
C466 C 0.53951 0.9164 1.00802 0.0
H467 H 0.60845 0.84617 0.15317 0.0
H468 H 0.60994 0.90759 1.01683 0.0
S469 S 0.42677 0.8868 0.10231 0.0
N470 N 0.45881 0.85476 0.18058 0.0
N471 N 0.46009 0.91647 1.02191 0.0
C472 C 0.4999 0.90145 0.05731 0.0
C473 C 0.49927 0.86774 0.14478 0.0
C474 C 0.66465 0.5131 0.11048 0.0
C475 C 0.67107 0.55746 0.13466 0.0
C476 C 0.63142 0.49866 1.03161 0.0
C477 C 0.60216 0.52764 0.97441 0.0
H478 H 0.68706 0.48945 0.14725 0.0
H479 H 0.62934 0.46443 1.01292 0.0
S480 S 0.60452 0.64685 0.99982 0.0
N481 N 0.64317 0.6301 0.0902 0.0
N482 N 0.583 0.60256 0.94482 0.0
C483 C 0.60732 0.57157 0.99941 0.0
C484 C 0.64086 0.58643 0.07847 0.0
C485 C 0.97368 0.67254 0.16577 0.0
C486 C 1.00869 0.67139 0.24721 0.0
C487 C 0.96957 0.64147 0.07516 0.0
C488 C 1.00054 0.60781 0.05944 0.0
H489 H 0.95165 0.70016 0.16497 0.0
H490 H 0.94398 0.64613 1.01099 0.0
S491 S 0.09958 0.59074 0.24359 0.0
N492 N 0.07453 0.63245 0.30446 0.0
N493 N 0.0684 0.57652 0.13248 0.0
C494 C 0.03495 0.60555 0.14161 0.0
C495 C 0.03824 0.63616 0.23611 0.0
C496 C 0.14959 0.20299 0.43198 0.0
C497 C 0.15013 0.24828 0.42367 0.0
C498 C 0.11715 0.1844 0.50268 0.0
C499 C 0.09471 0.20971 0.58616 0.0
H500 H 0.16378 0.18354 0.36387 0.0
H501 H 0.10586 0.15277 0.4802 0.0
S502 S 0.13907 0.31342 0.69364 0.0
N503 N 0.16289 0.30615 0.56507 0.0
N504 N 0.10566 0.27192 0.71302 0.0
C505 C 0.11402 0.24951 0.61383 0.0
C506 C 0.14464 0.26792 0.53404 0.0
C507 C 0.36709 0.14128 0.20466 0.0
C508 C 0.33503 0.12269 0.27833 0.0
C509 C 0.40747 0.12015 0.19532 0.0
C510 C 0.41851 0.08923 0.27923 0.0
H511 H 0.35684 0.16149 0.13227 0.0
H512 H 0.42785 0.12661 0.12055 0.0
S513 S 0.37276 0.10019 0.60752 0.0
N514 N 0.38276 0.09638 0.46063 0.0
N515 N 0.40528 0.08881 0.49289 0.0
C516 C 0.39017 0.09136 0.38812 0.0
C517 C 0.34595 0.10241 0.38601 0.0
C518 C 0.69154 0.28236 0.33119 0.0
C519 C 0.64724 0.27719 0.36263 0.0
C520 C 0.72079 0.30305 0.40713 0.0
C521 C 0.7063 0.31799 0.51653 0.0
H522 H 0.70265 0.27337 0.24478 0.0
H523 H 0.75295 0.31212 0.37486 0.0
S524 S 0.59398 0.3117 0.63727 0.0
N525 N 0.59021 0.29138 0.50479 0.0
N526 N 0.64671 0.32128 0.6572 0.0
C527 C 0.66369 0.30724 0.55396 0.0
C528 C 0.63321 0.29059 0.47272 0.0
C529 C 0.26621 0.57693 0.51694 0.0
C530 C 0.26558 0.58765 0.39781 0.0
C531 C 0.25341 0.60727 0.60057 0.0
C532 C 0.23815 0.64825 0.56586 0.0
H533 H 0.27313 0.54411 0.54472 0.0
H534 H 0.24836 0.59632 0.68939 0.0
S535 S 0.24611 0.69609 0.27118 0.0
N536 N 0.26117 0.64512 0.25358 0.0
N537 N 0.23566 0.70191 0.41166 0.0
C538 C 0.24555 0.66155 0.45072 0.0
C539 C 0.25855 0.63082 0.36542 0.0
C540 C 0.09562 0.82931 0.09698 0.0
C541 C 0.10467 0.787 0.13077 0.0
C542 C 0.12162 0.84961 1.01529 0.0
C543 C 0.15802 0.82834 0.96298 0.0
H544 H 0.0692 0.84757 0.13757 0.0
H545 H 0.11457 0.88354 1.00217 0.0
S546 S 0.18757 0.71279 1.00165 0.0
N547 N 0.14662 0.72111 0.09386 0.0
N548 N 0.19582 0.75951 0.93544 0.0
C549 C 0.16426 0.78418 0.98696 0.0
C550 C 0.13754 0.7634 0.07197 0.0
C551 C 0.75662 0.15581 0.26891 0.0
C552 C 0.78668 0.12845 0.21082 0.0
C553 C 0.72585 0.18003 0.20588 0.0
C554 C 0.7261 0.17953 0.08365 0.0
H555 H 0.75261 0.15374 0.36263 0.0
H556 H 0.69817 0.19386 0.25245 0.0
S557 S 0.81018 0.13023 0.89238 0.0
N558 N 0.82302 0.11345 1.02471 0.0
N559 N 0.76663 0.16177 0.90842 0.0
C560 C 0.76185 0.16061 1.02621 0.0
C561 C 0.79226 0.13451 0.08955 0.0
C562 C 0.49179 0.70481 0.90294 0.0
C563 C 0.47735 0.72538 1.00429 0.0
C564 C 0.46134 0.69245 0.81856 0.0
C565 C 0.416 0.6998 0.835 0.0
H566 H 0.52614 0.69641 0.89167 0.0
H567 H 0.47258 0.67241 0.74728 0.0
S568 S 0.36381 0.76039 0.07582 0.0
N569 N 0.41672 0.7594 0.10858 0.0
N570 N 0.35922 0.73454 0.95047 0.0
C571 C 0.40212 0.72475 0.92957 0.0
C572 C 0.43298 0.73758 1.01505 0.0
C573 C 0.83979 0.65398 0.09836 0.0
C574 C 0.79478 0.66338 0.107 0.0
C575 C 0.85241 0.62216 1.01828 0.0
C576 C 0.8223 0.60923 0.93114 0.0
H577 H 0.86155 0.66156 0.16831 0.0
H578 H 0.88227 0.60437 1.03618 0.0
S579 S 0.72682 0.67805 0.84641 0.0
N580 N 0.74129 0.69581 0.97657 0.0
N581 N 0.7611 0.63796 0.81486 0.0
C582 C 0.78724 0.63849 0.90989 0.0
C583 C 0.77669 0.66997 0.99638 0.0
C584 C 0.07931 0.20577 0.99713 0.0
C585 C 0.04967 0.21545 0.08973 0.0
C586 C 0.075 0.1689 0.92372 0.0
C587 C 0.04148 0.13795 0.93928 0.0
H588 H 0.10786 0.22599 0.98438 0.0
H589 H 0.09928 0.16397 0.85591 0.0
S590 S 0.95363 0.14701 0.16484 0.0
N591 N 0.98419 0.19014 0.18859 0.0
N592 N 0.97598 0.12168 0.05247 0.0
C593 C 1.01036 0.14797 1.02803 0.0
C594 C 1.01463 0.18593 0.10268 0.0
C595 C 0.3688 1.0064 0.08221 0.0
C596 C 0.32754 1.01408 1.02963 0.0
C597 C 0.40789 1.00307 1.01612 0.0
C598 C 0.40814 1.00622 0.89325 0.0
H599 H 0.3715 1.00719 0.17639 0.0
H600 H 0.43859 0.99974 0.06271 0.0
S601 S 0.30718 1.0187 0.71165 0.0
N602 N 0.28869 1.02093 0.84674 0.0
N603 N 0.36096 1.01162 0.72207 0.0
C604 C 0.36634 1.00994 0.83919 0.0
C605 C 0.3266 1.01461 0.90715 0.0
C606 C 0.58727 0.33291 0.97607 0.0
C607 C 0.55376 0.30431 1.01574 0.0
C608 C 0.57933 0.36771 0.89937 0.0
C609 C 0.53783 0.37539 0.8495 0.0
H610 H 0.62086 0.32908 1.00538 0.0
H611 H 0.60647 0.3891 0.87988 0.0
S612 S 0.44293 0.30051 0.87997 0.0
N613 N 0.47931 0.28097 0.97331 0.0
N614 N 0.46568 0.34356 0.81987 0.0
C615 C 0.50527 0.34384 0.87425 0.0
C616 C 0.51296 0.30898 0.95766 0.0
C617 C 0.18813 0.5519 1.00634 0.0
C618 C 0.20997 0.51333 1.04106 0.0
C619 C 0.14803 0.55209 0.94414 0.0
C620 C 0.12673 0.51375 0.90922 0.0
H621 H 0.20143 0.58297 1.03111 0.0
H622 H 0.13301 0.58322 0.92623 0.0
S623 S 0.17583 0.40399 0.94439 0.0
N624 N 0.21033 0.43547 1.01566 0.0
N625 N 0.13655 0.43591 0.89289 0.0
C626 C 0.15023 0.47488 0.93233 0.0
C627 C 0.19124 0.47467 0.9984 0.0
C628 C 0.07991 0.82698 0.56832 0.0
C629 C 0.04116 0.80735 0.52401 0.0
C630 C 0.07914 0.86529 0.63635 0.0
C631 C 0.03951 0.88631 0.66706 0.0
H632 H 0.11176 0.81425 0.54295 0.0
H633 H 0.11023 0.87999 0.6584 0.0
S634 S 0.9284 0.84163 0.60689 0.0
N635 N 0.96168 0.80827 0.53664 0.0
N636 N 0.95999 0.87839 0.66872 0.0
C637 C 1.00041 0.8644 0.63508 0.0
C638 C 1.00126 0.8255 0.56389 0.0
C639 C 0.70381 0.98308 0.40652 0.0
C640 C 0.74112 1.00404 0.45252 0.0
C641 C 0.66402 0.97906 0.47115 0.0
C642 C 0.65902 0.99612 0.58534 0.0
H643 H 0.70433 0.97223 0.31679 0.0
H644 H 0.63619 0.96425 0.42833 0.0
S645 S 0.74691 0.05334 0.74704 0.0
N646 N 0.76985 0.04214 0.62003 0.0
N647 N 0.69718 0.03248 0.74271 0.0
C648 C 0.69691 1.01517 0.63404 0.0
C649 C 0.73706 1.01978 0.56762 0.0
C650 C 0.47624 0.66617 0.41264 0.0
C651 C 0.51092 0.69706 0.41505 0.0
C652 C 0.4753 0.62894 0.48503 0.0
C653 C 0.50828 0.6203 0.56808 0.0
H654 H 0.44999 0.66957 0.34953 0.0
H655 H 0.4492 0.60577 0.47205 0.0
S656 S 0.59694 0.6976 0.64508 0.0
N657 N 0.57361 0.72021 0.5297 0.0
N658 N 0.57005 0.65226 0.67007 0.0
C659 C 0.53973 0.65359 0.58339 0.0
C660 C 0.54128 0.69136 0.50729 0.0
C661 C 0.82618 0.52176 0.44119 0.0
C662 C 0.80325 0.5617 0.44331 0.0
C663 C 0.86257 0.51305 0.51691 0.0
C664 C 0.87864 0.54409 0.59724 0.0
H665 H 0.81778 0.49803 0.37572 0.0
H666 H 0.87973 0.48249 0.50779 0.0
S667 S 0.82987 0.65307 0.64032 0.0
N668 N 0.79866 0.6314 0.53897 0.0
N669 N 0.8662 0.61563 0.6764 0.0
C670 C 0.85465 0.58313 0.60348 0.0
C671 C 0.81744 0.59165 0.52849 0.0
loop_
_geom_bond_atom_site_label_1
_geom_bond_atom_site_label_2
_geom_bond_distance
_geom_bond_site_symmetry_2
_ccdc_geom_bond_type
H0 C3 0.931 . S
H1 C6 0.928 . S
H2 C8 0.930 . S
C3 H0 0.931 . S
C3 C4 1.413 . S
C3 C5 1.360 . S
C4 C3 1.413 . S
C4 C8 1.429 . S
C5 C3 1.360 . S
C5 C6 1.372 . S
C6 H1 0.928 . S
C6 C5 1.372 . S
C6 C7 1.404 . S
C7 C6 1.404 . S
C7 C8 1.391 . S
C8 H2 0.930 . S
C8 C4 1.429 . S
C8 C7 1.391 . S
H9 C12 0.931 . S
H10 C15 0.928 . S
H11 C17 0.930 . S
C12 H9 0.931 . S
C12 C13 1.413 . S
C12 C14 1.360 . S
C13 C12 1.413 . S
C13 C17 1.429 . S
C14 C12 1.360 . S
C14 C15 1.372 . S
C15 H10 0.928 . S
C15 C14 1.372 . S
C15 C16 1.404 . S
C16 C15 1.404 . S
C16 C17 1.391 . S
C17 H11 0.930 . S
C17 C13 1.429 . S
C17 C16 1.391 . S
H18 C21 0.931 . S
H19 C24 0.928 . S
H20 C26 0.930 . S
C21 H18 0.931 . S
C21 C22 1.413 . S
C21 C23 1.360 . S
C22 C21 1.413 . S
C22 C26 1.429 . S
C23 C21 1.360 . S
C23 C24 1.372 . S
C24 H19 0.928 . S
C24 C23 1.372 . S
C24 C25 1.404 . S
C25 C24 1.404 . S
C25 C26 1.391 . S
C26 H20 0.930 . S
C26 C22 1.429 . S
C26 C25 1.391 . S
H27 C30 0.931 . S
H28 C33 0.928 . S
H29 C35 0.930 . S
C30 H27 0.931 . S
C30 C31 1.413 . S
C30 C32 1.360 . S
C31 C30 1.413 . S
C31 C35 1.429 . S
C32 C30 1.360 . S
C32 C33 1.372 . S
C33 H28 0.928 . S
C33 C32 1.372 . S
C33 C34 1.404 . S
C34 C33 1.404 . S
C34 C35 1.391 . S
C35 H29 0.930 . S
C35 C31 1.429 . S
C35 C34 1.391 . S
H36 C39 0.931 . S
H37 C42 0.928 . S
H38 C44 0.930 . S
C39 H36 0.931 . S
C39 C40 1.413 . S
C39 C41 1.360 1_556 S
C40 C39 1.413 . S
C40 C44 1.429 . S
C41 C39 1.360 1_554 S
C41 C42 1.372 . S
C42 H37 0.928 . S
C42 C41 1.372 . S
C42 C43 1.404 . S
C43 C42 1.404 . S
C43 C44 1.391 1_554 S
C44 H38 0.930 . S
C44 C40 1.429 . S
C44 C43 1.391 1_556 S
H45 C48 0.931 . S
H46 C51 0.928 . S
H47 C53 0.930 . S
C48 H45 0.931 . S
C48 C49 1.413 . S
C48 C50 1.360 1_556 S
C49 C48 1.413 . S
C49 C53 1.429 . S
C50 C48 1.360 1_554 S
C50 C51 1.372 . S
C51 H46 0.928 . S
C51 C50 1.372 . S
C51 C52 1.404 . S
C52 C51 1.404 . S
C52 C53 1.391 1_554 S
C53 H47 0.930 . S
C53 C49 1.429 . S
C53 C52 1.391 1_556 S
H54 C57 0.931 . S
H55 C60 0.928 . S
H56 C62 0.930 . S
C57 H54 0.931 . S
C57 C58 1.413 . S
C57 C59 1.360 1_556 S
C58 C57 1.413 . S
C58 C62 1.429 . S
C59 C57 1.360 1_554 S
C59 C60 1.372 . S
C60 H55 0.928 . S
C60 C59 1.372 . S
C60 C61 1.404 . S
C61 C60 1.404 . S
C61 C62 1.391 1_554 S
C62 H56 0.930 . S
C62 C58 1.429 . S
C62 C61 1.391 1_556 S
H63 C66 0.931 . S
H64 C69 0.928 . S
H65 C71 0.930 . S
C66 H63 0.931 . S
C66 C67 1.413 1_556 S
C66 C68 1.360 . S
C67 C66 1.413 1_554 S
C67 C71 1.429 . S
C68 C66 1.360 . S
C68 C69 1.372 . S
C69 H64 0.928 . S
C69 C68 1.372 . S
C69 C70 1.404 1_556 S
C70 C69 1.404 1_554 S
C70 C71 1.391 . S
C71 H65 0.930 . S
C71 C67 1.429 . S
C71 C70 1.391 . S
C72 C74 1.422 1_556 S
C72 C76 1.415 . S
C72 N78 1.369 . S
C73 C74 1.421 . S
C73 C75 1.417 . S
C73 C85 1.422 . S
C74 C72 1.422 1_554 S
C74 C73 1.421 . S
C74 N84 1.359 1_554 S
C75 C73 1.417 . S
C75 C77 1.329 . S
C75 H94 0.930 . S
C76 C72 1.415 . S
C76 C77 1.437 1_556 S
C76 C80 1.413 . S
C77 C75 1.329 . S
C77 C76 1.437 1_554 S
C77 H99 0.929 . S
N78 C72 1.369 . S
N78 C79 1.340 . S
N78 Gd83 2.622 1_545 S
C79 N78 1.340 . S
C79 C81 1.387 . S
C79 H91 0.918 1_545 S
C80 C76 1.413 . S
C80 C81 1.348 . S
C80 H96 0.931 . S
C81 C79 1.387 . S
C81 C80 1.348 . S
C81 H97 0.930 . S
Gd82 N102 2.622 . S
Gd82 N109 2.570 . S
Gd82 O116 2.353 . S
Gd82 O117 2.468 . S
Gd82 O118 2.427 . S
Gd82 O120 2.388 . S
Gd82 O121 2.386 1_545 S
Gd82 O125 2.307 1_655 S
Gd82 C135 2.805 . S
Gd83 N78 2.622 1_565 S
Gd83 N84 2.570 1_565 S
Gd83 O115 2.386 1_565 S
Gd83 O119 2.307 1_455 S
Gd83 O122 2.353 . S
Gd83 O123 2.468 . S
Gd83 O124 2.427 . S
Gd83 O126 2.388 . S
Gd83 C147 2.805 . S
N84 C74 1.359 1_556 S
N84 Gd83 2.570 1_545 S
N84 C86 1.343 1_556 S
C85 C73 1.422 . S
C85 C87 1.321 . S
C85 H93 0.931 . S
C86 N84 1.343 1_554 S
C86 C87 1.390 . S
C86 H88 0.931 . S
C87 C85 1.321 . S
C87 C86 1.390 . S
C87 H89 0.930 . S
H88 C86 0.931 . S
H89 C87 0.930 . S
H90 C113 0.931 1_445 S
H91 C79 0.918 1_565 S
H92 C114 0.930 . S
H93 C85 0.931 . S
H94 C75 0.930 . S
H95 C104 0.929 . S
H96 C80 0.931 . S
H97 C81 0.930 . S
H98 C136 0.930 . S
H99 C77 0.929 . S
H100 C105 0.931 . S
H101 C106 0.930 1_545 S
N102 Gd82 2.622 . S
N102 C103 1.369 1_545 S
N102 C104 1.338 . S
C103 N102 1.369 1_565 S
C103 C107 1.415 . S
C103 C110 1.422 . S
C104 H95 0.929 . S
C104 N102 1.338 . S
C104 C106 1.378 1_545 S
C105 H100 0.931 . S
C105 C106 1.348 . S
C105 C107 1.413 . S
C106 H101 0.930 1_565 S
C106 C104 1.378 1_565 S
C106 C105 1.348 . S
C107 C103 1.415 . S
C107 C105 1.413 . S
C107 C137 1.437 . S
H108 C137 0.929 . S
N109 Gd82 2.570 . S
N109 C110 1.359 1_545 S
N109 C113 1.343 1_545 S
C110 C103 1.422 . S
C110 N109 1.359 1_565 S
C110 C112 1.421 . S
C111 C112 1.422 . S
C111 C114 1.321 . S
C111 H138 0.931 . S
C112 C110 1.421 . S
C112 C111 1.422 . S
C112 C136 1.417 . S
C113 H90 0.931 1_665 S
C113 N109 1.343 1_565 S
C113 C114 1.390 . S
C114 H92 0.930 . S
C114 C111 1.321 . S
C114 C113 1.390 . S
O115 Gd83 2.386 1_545 S
O115 C127 1.265 . S
O116 Gd82 2.353 . S
O116 C127 1.242 1_655 S
O117 Gd82 2.468 . S
O117 C135 1.263 . S
O118 Gd82 2.427 . S
O118 C135 1.252 . S
O119 Gd83 2.307 1_655 S
O119 C128 1.261 1_565 S
O120 Gd82 2.388 . S
O120 C128 1.252 . S
O121 Gd82 2.386 1_565 S
O121 C139 1.265 . S
O122 Gd83 2.353 . S
O122 C139 1.242 1_455 S
O123 Gd83 2.468 . S
O123 C147 1.263 . S
O124 Gd83 2.427 . S
O124 C147 1.252 . S
O125 Gd82 2.307 1_455 S
O125 C140 1.261 . S
O126 Gd83 2.388 . S
O126 C140 1.252 1_565 S
C127 O115 1.265 . S
C127 O116 1.242 1_455 S
C128 O119 1.261 1_545 S
C128 O120 1.252 . S
C129 C132 1.394 . S
C129 C134 1.370 . S
C129 C135 1.500 . S
C130 C133 1.383 . S
C130 C134 1.395 . S
C131 C132 1.396 . S
C131 C133 1.365 . S
C131 H148 0.929 . S
C132 C129 1.394 . S
C132 C131 1.396 . S
C132 H149 0.930 . S
C133 C130 1.383 . S
C133 C131 1.365 . S
C133 H150 0.931 . S
C134 C129 1.370 . S
C134 C130 1.395 . S
C134 H151 0.930 . S
C135 Gd82 2.805 . S
C135 O117 1.263 . S
C135 O118 1.252 . S
C135 C129 1.500 . S
C136 H98 0.930 . S
C136 C112 1.417 . S
C136 C137 1.329 . S
C137 C107 1.437 . S
C137 H108 0.929 . S
C137 C136 1.329 . S
H138 C111 0.931 . S
C139 O121 1.265 . S
C139 O122 1.242 1_655 S
C140 O125 1.261 . S
C140 O126 1.252 1_545 S
C141 C144 1.394 . S
C141 C146 1.370 1_556 S
C141 C147 1.500 . S
C142 C145 1.383 . S
C142 C146 1.395 . S
C143 C144 1.396 1_554 S
C143 C145 1.365 . S
C143 H152 0.929 1_554 S
C144 C141 1.394 . S
C144 C143 1.396 1_556 S
C144 H153 0.930 . S
C145 C142 1.383 . S
C145 C143 1.365 . S
C145 H154 0.931 . S
C146 C141 1.370 1_554 S
C146 C142 1.395 . S
C146 H155 0.930 . S
C147 Gd83 2.805 . S
C147 O123 1.263 . S
C147 O124 1.252 . S
C147 C141 1.500 . S
H148 C131 0.929 . S
H149 C132 0.930 . S
H150 C133 0.931 . S
H151 C134 0.930 . S
H152 C143 0.929 1_556 S
H153 C144 0.930 . S
H154 C145 0.931 . S
H155 C146 0.930 . S
C156 C158 1.422 . S
C156 C160 1.415 . S
C156 N162 1.369 . S
C157 C158 1.421 . S
C157 C159 1.417 . S
C157 C169 1.422 . S
C158 C156 1.422 . S
C158 C157 1.421 . S
C158 N168 1.359 . S
C159 C157 1.417 . S
C159 C161 1.329 . S
C159 H178 0.930 . S
C160 C156 1.415 . S
C160 C161 1.437 . S
C160 C164 1.413 . S
C161 C159 1.329 . S
C161 C160 1.437 . S
C161 H183 0.929 . S
N162 C156 1.369 . S
N162 C163 1.338 . S
N162 Gd167 2.622 . S
C163 N162 1.338 . S
C163 C165 1.378 . S
C163 H175 0.929 . S
C164 C160 1.413 . S
C164 C165 1.348 . S
C164 H180 0.931 . S
C165 C163 1.378 . S
C165 C164 1.348 . S
C165 H181 0.930 . S
Gd166 N186 2.622 . S
Gd166 N193 2.570 . S
Gd166 O200 2.353 1_545 S
Gd166 O201 2.468 . S
Gd166 O202 2.427 . S
Gd166 O204 2.388 . S
Gd166 O205 2.386 . S
Gd166 O209 2.307 . S
Gd166 C219 2.805 . S
Gd167 N162 2.622 . S
Gd167 N168 2.570 . S
Gd167 O199 2.386 . S
Gd167 O203 2.321 . S
Gd167 O206 2.353 1_565 S
Gd167 O207 2.468 . S
Gd167 O208 2.427 . S
Gd167 O210 2.388 . S
Gd167 C231 2.805 . S
N168 C158 1.359 . S
N168 Gd167 2.570 . S
N168 C170 1.343 . S
C169 C157 1.422 . S
C169 C171 1.321 . S
C169 H177 0.931 . S
C170 N168 1.343 . S
C170 C171 1.390 . S
C170 H172 0.931 . S
C171 C169 1.321 . S
C171 C170 1.390 . S
C171 H173 0.930 . S
H172 C170 0.931 . S
H173 C171 0.930 . S
H174 C197 0.931 . S
H175 C163 0.929 . S
H176 C198 0.930 . S
H177 C169 0.931 . S
H178 C159 0.930 . S
H179 C188 0.929 . S
H180 C164 0.931 . S
H181 C165 0.930 . S
H182 C220 0.930 . S
H183 C161 0.929 . S
H184 C189 0.931 . S
H185 C190 0.930 . S
N186 Gd166 2.622 . S
N186 C187 1.369 . S
N186 C188 1.338 . S
C187 N186 1.369 . S
C187 C191 1.415 . S
C187 C194 1.422 . S
C188 H179 0.929 . S
C188 N186 1.338 . S
C188 C190 1.378 . S
C189 H184 0.931 . S
C189 C190 1.348 . S
C189 C191 1.413 . S
C190 H185 0.930 . S
C190 C188 1.378 . S
C190 C189 1.348 . S
C191 C187 1.415 . S
C191 C189 1.413 . S
C191 C221 1.437 . S
H192 C221 0.929 . S
N193 Gd166 2.570 . S
N193 C194 1.359 . S
N193 C197 1.343 . S
C194 C187 1.422 . S
C194 N193 1.359 . S
C194 C196 1.421 . S
C195 C196 1.422 . S
C195 C198 1.321 . S
C195 H222 0.931 . S
C196 C194 1.421 . S
C196 C195 1.422 . S
C196 C220 1.417 . S
C197 H174 0.931 . S
C197 N193 1.343 . S
C197 C198 1.390 . S
C198 H176 0.930 . S
C198 C195 1.321 . S
C198 C197 1.390 . S
O199 Gd167 2.386 . S
O199 C211 1.265 . S
O200 Gd166 2.353 1_565 S
O200 C211 1.242 . S
O201 Gd166 2.468 . S
O201 C219 1.263 . S
O202 Gd166 2.427 . S
O202 C219 1.252 . S
O203 Gd167 2.321 . S
O203 C212 1.242 1_565 S
O204 Gd166 2.388 . S
O204 C212 1.252 . S
O205 Gd166 2.386 . S
O205 C223 1.265 . S
O206 Gd167 2.353 1_545 S
O206 C223 1.242 . S
O207 Gd167 2.468 . S
O207 C231 1.263 . S
O208 Gd167 2.427 . S
O208 C231 1.252 . S
O209 Gd166 2.307 . S
O209 C224 1.261 1_545 S
O210 Gd167 2.388 . S
O210 C224 1.252 . S
C211 O199 1.265 . S
C211 O200 1.242 . S
C212 O203 1.242 1_545 S
C212 O204 1.252 . S
C213 C216 1.394 . S
C213 C218 1.370 . S
C213 C219 1.500 1_554 S
C214 C217 1.383 . S
C214 C218 1.395 . S
C215 C216 1.396 . S
C215 C217 1.365 . S
C215 H232 0.929 . S
C216 C213 1.394 . S
C216 C215 1.396 . S
C216 H233 0.930 . S
C217 C214 1.383 . S
C217 C215 1.365 . S
C217 H234 0.931 . S
C218 C213 1.370 . S
C218 C214 1.395 . S
C218 H235 0.930 1_554 S
C219 Gd166 2.805 . S
C219 O201 1.263 . S
C219 O202 1.252 . S
C219 C213 1.500 1_556 S
C220 H182 0.930 . S
C220 C196 1.417 . S
C220 C221 1.329 . S
C221 C191 1.437 . S
C221 H192 0.929 . S
C221 C220 1.329 . S
H222 C195 0.931 . S
C223 O205 1.265 . S
C223 O206 1.242 . S
C224 O209 1.261 1_565 S
C224 O210 1.252 . S
C225 C228 1.394 . S
C225 C230 1.370 . S
C225 C231 1.500 . S
C226 C229 1.383 . S
C226 C230 1.395 . S
C227 C228 1.396 . S
C227 C229 1.365 . S
C227 H236 0.929 . S
C228 C225 1.394 . S
C228 C227 1.396 . S
C228 H237 0.930 . S
C229 C226 1.383 . S
C229 C227 1.365 . S
C229 H238 0.931 . S
C230 C225 1.370 . S
C230 C226 1.395 . S
C230 H239 0.930 . S
C231 Gd167 2.805 . S
C231 O207 1.263 . S
C231 O208 1.252 . S
C231 C225 1.500 . S
H232 C215 0.929 . S
H233 C216 0.930 . S
H234 C217 0.931 . S
H235 C218 0.930 1_556 S
H236 C227 0.929 . S
H237 C228 0.930 . S
H238 C229 0.931 . S
H239 C230 0.930 . S
C240 C242 1.422 1_556 S
C240 C244 1.415 . S
C240 N246 1.369 . S
C241 C242 1.421 . S
C241 C243 1.417 . S
C241 C253 1.422 . S
C242 C240 1.422 1_554 S
C242 C241 1.421 . S
C242 N252 1.359 1_554 S
C243 C241 1.417 . S
C243 C245 1.329 . S
C243 H262 0.930 . S
C244 C240 1.415 . S
C244 C245 1.437 1_556 S
C244 C248 1.413 . S
C245 C243 1.329 . S
C245 C244 1.437 1_554 S
C245 H267 0.929 . S
N246 C240 1.369 . S
N246 C247 1.338 . S
N246 Gd251 2.622 . S
C247 N246 1.338 . S
C247 C249 1.378 . S
C247 H259 0.929 . S
C248 C244 1.413 . S
C248 C249 1.348 . S
C248 H264 0.931 . S
C249 C247 1.378 . S
C249 C248 1.348 . S
C249 H265 0.930 . S
Gd250 N270 2.622 . S
Gd250 N277 2.570 . S
Gd250 O284 2.353 . S
Gd250 O285 2.468 . S
Gd250 O286 2.427 . S
Gd250 O288 2.388 . S
Gd250 O289 2.386 . S
Gd250 O293 2.307 . S
Gd250 C303 2.805 . S
Gd251 N246 2.622 . S
Gd251 N252 2.570 . S
Gd251 O283 2.386 . S
Gd251 O287 2.307 . S
Gd251 O290 2.353 . S
Gd251 O291 2.468 . S
Gd251 O292 2.427 . S
Gd251 O294 2.388 . S
Gd251 C315 2.805 . S
N252 C242 1.359 1_556 S
N252 Gd251 2.570 . S
N252 C254 1.343 1_556 S
C253 C241 1.422 . S
C253 C255 1.321 . S
C253 H261 0.931 . S
C254 N252 1.343 1_554 S
C254 C255 1.390 . S
C254 H256 0.931 . S
C255 C253 1.321 . S
C255 C254 1.390 . S
C255 H257 0.930 . S
H256 C254 0.931 . S
H257 C255 0.930 . S
H258 C281 0.931 . S
H259 C247 0.929 . S
H260 C282 0.930 . S
H261 C253 0.931 . S
H262 C243 0.930 . S
H263 C272 0.929 . S
H264 C248 0.931 . S
H265 C249 0.930 . S
H266 C304 0.930 . S
H267 C245 0.929 . S
H268 C273 0.931 . S
H269 C274 0.930 . S
N270 Gd250 2.622 . S
N270 C271 1.369 . S
N270 C272 1.338 . S
C271 N270 1.369 . S
C271 C275 1.415 . S
C271 C278 1.422 . S
C272 H263 0.929 . S
C272 N270 1.338 . S
C272 C274 1.378 . S
C273 H268 0.931 . S
C273 C274 1.348 . S
C273 C275 1.413 . S
C274 H269 0.930 . S
C274 C272 1.378 . S
C274 C273 1.348 . S
C275 C271 1.415 . S
C275 C273 1.413 . S
C275 C305 1.437 . S
H276 C305 0.929 . S
N277 Gd250 2.570 . S
N277 C278 1.359 . S
N277 C281 1.343 . S
C278 C271 1.422 . S
C278 N277 1.359 . S
C278 C280 1.421 . S
C279 C280 1.422 . S
C279 C282 1.321 . S
C279 H306 0.931 . S
C280 C278 1.421 . S
C280 C279 1.422 . S
C280 C304 1.417 . S
C281 H258 0.931 . S
C281 N277 1.343 . S
C281 C282 1.390 . S
C282 H260 0.930 . S
C282 C279 1.321 . S
C282 C281 1.390 . S
O283 Gd251 2.386 . S
O283 C295 1.265 . S
O284 Gd250 2.353 . S
O284 C295 1.242 . S
O285 Gd250 2.468 . S
O285 C303 1.263 . S
O286 Gd250 2.427 . S
O286 C303 1.252 . S
O287 Gd251 2.307 . S
O287 C296 1.261 . S
O288 Gd250 2.388 . S
O288 C296 1.252 . S
O289 Gd250 2.386 . S
O289 C307 1.265 . S
O290 Gd251 2.353 . S
O290 C307 1.242 . S
O291 Gd251 2.468 . S
O291 C315 1.263 . S
O292 Gd251 2.427 . S
O292 C315 1.252 . S
O293 Gd250 2.307 . S
O293 C308 1.261 . S
O294 Gd251 2.388 . S
O294 C308 1.252 . S
C295 O283 1.265 . S
C295 O284 1.242 . S
C296 O287 1.261 . S
C296 O288 1.252 . S
C297 C300 1.394 . S
C297 C302 1.370 . S
C297 C303 1.500 . S
C298 C301 1.383 . S
C298 C302 1.395 . S
C299 C300 1.396 . S
C299 C301 1.365 . S
C299 H316 0.929 . S
C300 C297 1.394 . S
C300 C299 1.396 . S
C300 H317 0.930 . S
C301 C298 1.383 . S
C301 C299 1.365 . S
C301 H318 0.931 . S
C302 C297 1.370 . S
C302 C298 1.395 . S
C302 H319 0.930 . S
C303 Gd250 2.805 . S
C303 O285 1.263 . S
C303 O286 1.252 . S
C303 C297 1.500 . S
C304 H266 0.930 . S
C304 C280 1.417 . S
C304 C305 1.329 . S
C305 C275 1.437 . S
C305 H276 0.929 . S
C305 C304 1.329 . S
H306 C279 0.931 . S
C307 O289 1.265 . S
C307 O290 1.242 . S
C308 O293 1.261 . S
C308 O294 1.252 . S
C309 C312 1.394 . S
C309 C314 1.370 1_556 S
C309 C315 1.500 . S
C310 C313 1.383 . S
C310 C314 1.395 . S
C311 C312 1.396 1_554 S
C311 C313 1.365 . S
C311 H320 0.929 1_554 S
C312 C309 1.394 . S
C312 C311 1.396 1_556 S
C312 H321 0.930 . S
C313 C310 1.383 . S
C313 C311 1.365 . S
C313 H322 0.931 . S
C314 C309 1.370 1_554 S
C314 C310 1.395 . S
C314 H323 0.930 . S
C315 Gd251 2.805 . S
C315 O291 1.263 . S
C315 O292 1.252 . S
C315 C309 1.500 . S
H316 C299 0.929 . S
H317 C300 0.930 . S
H318 C301 0.931 . S
H319 C302 0.930 . S
H320 C311 0.929 1_556 S
H321 C312 0.930 . S
H322 C313 0.931 . S
H323 C314 0.930 . S
C324 C326 1.422 1_556 S
C324 C328 1.415 . S
C324 N330 1.363 1_455 S
C325 C326 1.421 . S
C325 C327 1.417 . S
C325 C337 1.422 . S
C326 C324 1.422 1_554 S
C326 C325 1.421 . S
C326 N336 1.359 1_554 S
C327 C325 1.417 . S
C327 C329 1.329 . S
C327 H346 0.930 . S
C328 C324 1.415 . S
C328 C329 1.437 1_556 S
C328 C332 1.413 . S
C329 C327 1.329 . S
C329 C328 1.437 1_554 S
C329 H351 0.929 . S
N330 C324 1.363 1_655 S
N330 C331 1.339 . S
N330 Gd335 2.625 . S
C331 N330 1.339 . S
C331 C333 1.378 1_655 S
C331 H343 0.929 . S
C332 C328 1.413 . S
C332 C333 1.348 . S
C332 H348 0.931 . S
C333 C331 1.378 1_455 S
C333 C332 1.348 . S
C333 H349 0.930 . S
Gd334 N354 2.622 . S
Gd334 N361 2.570 . S
Gd334 O368 2.353 . S
Gd334 O369 2.468 . S
Gd334 O370 2.427 . S
Gd334 O372 2.388 . S
Gd334 O373 2.386 1_455 S
Gd334 O377 2.307 . S
Gd334 C387 2.805 . S
Gd335 N330 2.625 . S
Gd335 N336 2.570 1_655 S
Gd335 O367 2.386 1_655 S
Gd335 O371 2.307 . S
Gd335 O374 2.353 . S
Gd335 O375 2.468 . S
Gd335 O376 2.427 . S
Gd335 O378 2.388 . S
Gd335 C399 2.805 . S
N336 C326 1.359 1_556 S
N336 Gd335 2.570 1_455 S
N336 C338 1.343 1_556 S
C337 C325 1.422 . S
C337 C339 1.321 . S
C337 H345 0.931 . S
C338 N336 1.343 1_554 S
C338 C339 1.390 . S
C338 H340 0.931 . S
C339 C337 1.321 . S
C339 C338 1.390 . S
C339 H341 0.930 . S
H340 C338 0.931 . S
H341 C339 0.930 . S
H342 C365 0.931 1_455 S
H343 C331 0.929 . S
H344 C366 0.930 . S
H345 C337 0.931 . S
H346 C327 0.930 . S
H347 C356 0.929 . S
H348 C332 0.931 . S
H349 C333 0.930 . S
H350 C388 0.930 . S
H351 C329 0.929 . S
H352 C357 0.931 . S
H353 C358 0.930 . S
N354 Gd334 2.622 . S
N354 C355 1.369 1_455 S
N354 C356 1.338 . S
C355 N354 1.369 1_655 S
C355 C359 1.415 . S
C355 C362 1.422 . S
C356 H347 0.929 . S
C356 N354 1.338 . S
C356 C358 1.378 . S
C357 H352 0.931 . S
C357 C358 1.348 1_655 S
C357 C359 1.413 . S
C358 H353 0.930 . S
C358 C356 1.378 . S
C358 C357 1.348 1_455 S
C359 C355 1.415 . S
C359 C357 1.413 . S
C359 C389 1.437 . S
H360 C389 0.929 . S
N361 Gd334 2.570 . S
N361 C362 1.359 1_455 S
N361 C365 1.343 1_455 S
C362 C355 1.422 . S
C362 N361 1.359 1_655 S
C362 C364 1.421 . S
C363 C364 1.422 . S
C363 C366 1.321 . S
C363 H390 0.931 . S
C364 C362 1.421 . S
C364 C363 1.422 . S
C364 C388 1.417 . S
C365 H342 0.931 1_655 S
C365 N361 1.343 1_655 S
C365 C366 1.390 . S
C366 H344 0.930 . S
C366 C363 1.321 . S
C366 C365 1.390 . S
O367 Gd335 2.386 1_455 S
O367 C379 1.265 . S
O368 Gd334 2.353 . S
O368 C379 1.242 . S
O369 Gd334 2.468 . S
O369 C387 1.263 . S
O370 Gd334 2.427 . S
O370 C387 1.252 . S
O371 Gd335 2.307 . S
O371 C380 1.261 1_655 S
O372 Gd334 2.388 . S
O372 C380 1.252 . S
O373 Gd334 2.386 1_655 S
O373 C391 1.265 . S
O374 Gd335 2.353 . S
O374 C391 1.242 . S
O375 Gd335 2.468 . S
O375 C399 1.263 . S
O376 Gd335 2.427 . S
O376 C399 1.252 . S
O377 Gd334 2.307 . S
O377 C392 1.261 . S
O378 Gd335 2.388 . S
O378 C392 1.252 1_655 S
C379 O367 1.265 . S
C379 O368 1.242 . S
C380 O371 1.261 1_455 S
C380 O372 1.252 . S
C381 C384 1.394 . S
C381 C386 1.370 . S
C381 C387 1.500 . S
C382 C385 1.383 . S
C382 C386 1.395 . S
C383 C384 1.396 . S
C383 C385 1.365 . S
C383 H400 0.929 . S
C384 C381 1.394 . S
C384 C383 1.396 . S
C384 H401 0.930 . S
C385 C382 1.383 . S
C385 C383 1.365 . S
C385 H402 0.931 . S
C386 C381 1.370 . S
C386 C382 1.395 . S
C386 H403 0.930 . S
C387 Gd334 2.805 . S
C387 O369 1.263 . S
C387 O370 1.252 . S
C387 C381 1.500 . S
C388 H350 0.930 . S
C388 C364 1.417 . S
C388 C389 1.329 . S
C389 C359 1.437 . S
C389 H360 0.929 . S
C389 C388 1.329 . S
H390 C363 0.931 . S
C391 O373 1.265 . S
C391 O374 1.242 . S
C392 O377 1.261 . S
C392 O378 1.252 1_455 S
C393 C396 1.394 . S
C393 C398 1.370 1_556 S
C393 C399 1.500 . S
C394 C397 1.383 . S
C394 C398 1.395 . S
C395 C396 1.396 1_554 S
C395 C397 1.365 . S
C395 H404 0.929 1_554 S
C396 C393 1.394 . S
C396 C395 1.396 1_556 S
C396 H405 0.930 . S
C397 C394 1.383 . S
C397 C395 1.365 . S
C397 H406 0.931 . S
C398 C393 1.370 1_554 S
C398 C394 1.395 . S
C398 H407 0.930 . S
C399 Gd335 2.805 . S
C399 O375 1.263 . S
C399 O376 1.252 . S
C399 C393 1.500 . S
H400 C383 0.929 . S
H401 C384 0.930 . S
H402 C385 0.931 . S
H403 C386 0.930 . S
H404 C395 0.929 1_556 S
H405 C396 0.930 . S
H406 C397 0.931 . S
H407 C398 0.930 . S
C408 C409 1.369 . S
C408 C410 1.419 . S
C408 H412 0.930 . S
C409 C408 1.369 . S
C409 C418 1.429 . S
C410 C408 1.419 . S
C410 C411 1.363 . S
C410 H413 0.929 . S
C411 C410 1.363 . S
C411 C417 1.428 . S
H412 C408 0.930 . S
H413 C410 0.929 . S
S414 N415 1.613 . S
S414 N416 1.610 . S
N415 S414 1.613 . S
N415 C418 1.350 1_565 S
N416 S414 1.610 . S
N416 C417 1.351 1_565 S
C417 C411 1.428 . S
C417 N416 1.351 1_545 S
C417 C418 1.434 . S
C418 C409 1.429 . S
C418 N415 1.350 1_545 S
C418 C417 1.434 . S
C419 C420 1.369 . S
C419 C421 1.419 . S
C419 H423 0.930 . S
C420 C419 1.369 . S
C420 C429 1.429 . S
C421 C419 1.419 . S
C421 C422 1.363 . S
C421 H424 0.929 . S
C422 C421 1.363 . S
C422 C428 1.428 . S
H423 C419 0.930 . S
H424 C421 0.929 . S
S425 N426 1.613 . S
S425 N427 1.610 . S
N426 S425 1.613 . S
N426 C429 1.350 . S
N427 S425 1.610 . S
N427 C428 1.351 . S
C428 C422 1.428 . S
C428 N427 1.351 . S
C428 C429 1.434 . S
C429 C420 1.429 . S
C429 N426 1.350 . S
C429 C428 1.434 . S
C430 C431 1.369 . S
C430 C432 1.419 . S
C430 H434 0.930 . S
C431 C430 1.369 . S
C431 C440 1.429 . S
C432 C430 1.419 . S
C432 C433 1.363 . S
C432 H435 0.929 . S
C433 C432 1.363 . S
C433 C439 1.428 . S
H434 C430 0.930 . S
H435 C432 0.929 . S
S436 N437 1.613 . S
S436 N438 1.610 . S
N437 S436 1.613 . S
N437 C440 1.350 . S
N438 S436 1.610 . S
N438 C439 1.351 . S
C439 C433 1.428 . S
C439 N438 1.351 . S
C439 C440 1.434 . S
C440 C431 1.429 . S
C440 N437 1.350 . S
C440 C439 1.434 . S
C441 C442 1.369 . S
C441 C443 1.419 . S
C441 H445 0.930 . S
C442 C441 1.369 . S
C442 C451 1.429 . S
C443 C441 1.419 . S
C443 C444 1.363 . S
C443 H446 0.929 . S
C444 C443 1.363 . S
C444 C450 1.428 . S
H445 C441 0.930 . S
H446 C443 0.929 . S
S447 N448 1.613 . S
S447 N449 1.610 . S
N448 S447 1.613 . S
N448 C451 1.350 . S
N449 S447 1.610 . S
N449 C450 1.351 . S
C450 C444 1.428 . S
C450 N449 1.351 . S
C450 C451 1.434 . S
C451 C442 1.429 . S
C451 N448 1.350 . S
C451 C450 1.434 . S
C452 C453 1.369 1_545 S
C452 C454 1.419 . S
C452 H456 0.930 . S
C453 C452 1.369 1_565 S
C453 C462 1.429 . S
C454 C452 1.419 . S
C454 C455 1.363 1_544 S
C454 H457 0.929 . S
C455 C454 1.363 1_566 S
C455 C461 1.428 1_556 S
H456 C452 0.930 . S
H457 C454 0.929 . S
S458 N459 1.613 . S
S458 N460 1.610 . S
N459 S458 1.613 . S
N459 C462 1.350 . S
N460 S458 1.610 . S
N460 C461 1.351 . S
C461 C455 1.428 1_554 S
C461 N460 1.351 . S
C461 C462 1.434 . S
C462 C453 1.429 . S
C462 N459 1.350 . S
C462 C461 1.434 . S
C463 C464 1.369 . S
C463 C465 1.419 . S
C463 H467 0.930 . S
C464 C463 1.369 . S
C464 C473 1.429 . S
C465 C463 1.419 . S
C465 C466 1.363 1_554 S
C465 H468 0.929 . S
C466 C465 1.363 1_556 S
C466 C472 1.428 1_556 S
H467 C463 0.930 . S
H468 C465 0.929 . S
S469 N470 1.613 . S
S469 N471 1.610 1_554 S
N470 S469 1.613 . S
N470 C473 1.350 . S
N471 S469 1.610 1_556 S
N471 C472 1.351 1_556 S
C472 C466 1.428 1_554 S
C472 N471 1.351 1_554 S
C472 C473 1.434 . S
C473 C464 1.429 . S
C473 N470 1.350 . S
C473 C472 1.434 . S
C474 C475 1.369 . S
C474 C476 1.419 . S
C474 H478 0.930 . S
C475 C474 1.369 . S
C475 C484 1.429 . S
C476 C474 1.419 . S
C476 C477 1.363 1_554 S
C476 H479 0.929 . S
C477 C476 1.363 1_556 S
C477 C483 1.428 1_556 S
H478 C474 0.930 . S
H479 C476 0.929 . S
S480 N481 1.613 . S
S480 N482 1.610 1_554 S
N481 S480 1.613 . S
N481 C484 1.350 . S
N482 S480 1.610 1_556 S
N482 C483 1.351 1_556 S
C483 C477 1.428 1_554 S
C483 N482 1.351 1_554 S
C483 C484 1.434 . S
C484 C475 1.429 . S
C484 N481 1.350 . S
C484 C483 1.434 . S
C485 C486 1.369 . S
C485 C487 1.419 . S
C485 H489 0.930 . S
C486 C485 1.369 . S
C486 C495 1.429 1_655 S
C487 C485 1.419 . S
C487 C488 1.363 1_554 S
C487 H490 0.929 1_554 S
C488 C487 1.363 1_556 S
C488 C494 1.428 1_656 S
H489 C485 0.930 . S
H490 C487 0.929 1_556 S
S491 N492 1.613 . S
S491 N493 1.610 . S
N492 S491 1.613 . S
N492 C495 1.350 . S
N493 S491 1.610 . S
N493 C494 1.351 . S
C494 C488 1.428 1_454 S
C494 N493 1.351 . S
C494 C495 1.434 . S
C495 C486 1.429 1_455 S
C495 N492 1.350 . S
C495 C494 1.434 . S
C496 C497 1.369 1_655 S
C496 C498 1.419 . S
C496 H500 0.930 . S
C497 C496 1.369 1_455 S
C497 C506 1.429 . S
C498 C496 1.419 . S
C498 C499 1.363 . S
C498 H501 0.929 . S
C499 C498 1.363 . S
C499 C505 1.428 1_655 S
H500 C496 0.930 . S
H501 C498 0.929 . S
S502 N503 1.613 . S
S502 N504 1.610 . S
N503 S502 1.613 . S
N503 C506 1.350 . S
N504 S502 1.610 . S
N504 C505 1.351 . S
C505 C499 1.428 1_455 S
C505 N504 1.351 . S
C505 C506 1.434 . S
C506 C497 1.429 . S
C506 N503 1.350 . S
C506 C505 1.434 . S
C507 C508 1.369 . S
C507 C509 1.419 . S
C507 H511 0.930 . S
C508 C507 1.369 . S
C508 C517 1.429 . S
C509 C507 1.419 . S
C509 C510 1.363 1_545 S
C509 H512 0.929 . S
C510 C509 1.363 1_565 S
C510 C516 1.428 . S
H511 C507 0.930 . S
H512 C509 0.929 . S
S513 N514 1.613 . S
S513 N515 1.610 1_556 S
N514 S513 1.613 . S
N514 C517 1.350 1_566 S
N515 S513 1.610 1_554 S
N515 C516 1.351 . S
C516 C510 1.428 . S
C516 N515 1.351 . S
C516 C517 1.434 1_565 S
C517 C508 1.429 . S
C517 N514 1.350 1_544 S
C517 C516 1.434 1_545 S
C518 C519 1.369 . S
C518 C520 1.419 . S
C518 H522 0.930 . S
C519 C518 1.369 . S
C519 C528 1.429 . S
C520 C518 1.419 . S
C520 C521 1.363 . S
C520 H523 0.929 . S
C521 C520 1.363 . S
C521 C527 1.428 . S
H522 C518 0.930 . S
H523 C520 0.929 . S
S524 N525 1.613 . S
S524 N526 1.610 . S
N525 S524 1.613 . S
N525 C528 1.350 . S
N526 S524 1.610 . S
N526 C527 1.351 . S
C527 C521 1.428 . S
C527 N526 1.351 . S
C527 C528 1.434 . S
C528 C519 1.429 . S
C528 N525 1.350 . S
C528 C527 1.434 . S
C529 C530 1.369 . S
C529 C531 1.419 . S
C529 H533 0.930 . S
C530 C529 1.369 . S
C530 C539 1.429 . S
C531 C529 1.419 . S
C531 C532 1.363 . S
C531 H534 0.929 . S
C532 C531 1.363 . S
C532 C538 1.428 . S
H533 C529 0.930 . S
H534 C531 0.929 . S
S535 N536 1.613 . S
S535 N537 1.610 1_556 S
N536 S535 1.613 . S
N536 C539 1.350 1_556 S
N537 S535 1.610 1_554 S
N537 C538 1.351 . S
C538 C532 1.428 . S
C538 N537 1.351 . S
C538 C539 1.434 . S
C539 C530 1.429 . S
C539 N536 1.350 1_554 S
C539 C538 1.434 . S
C540 C541 1.369 . S
C540 C542 1.419 1_655 S
C540 H544 0.930 . S
C541 C540 1.369 . S
C541 C550 1.429 1_655 S
C542 C540 1.419 1_455 S
C542 C543 1.363 . S
C542 H545 0.929 1_455 S
C543 C542 1.363 . S
C543 C549 1.428 . S
H544 C540 0.930 . S
H545 C542 0.929 1_655 S
S546 N547 1.613 . S
S546 N548 1.610 . S
N547 S546 1.613 . S
N547 C550 1.350 . S
N548 S546 1.610 . S
N548 C549 1.351 . S
C549 C543 1.428 . S
C549 N548 1.351 . S
C549 C550 1.434 . S
C550 C541 1.429 1_455 S
C550 N547 1.350 . S
C550 C549 1.434 . S
C551 C552 1.369 . S
C551 C553 1.419 1_565 S
C551 H555 0.930 . S
C552 C551 1.369 . S
C552 C561 1.429 1_565 S
C553 C551 1.419 1_545 S
C553 C554 1.363 . S
C553 H556 0.929 . S
C554 C553 1.363 . S
C554 C560 1.428 . S
H555 C551 0.930 . S
H556 C553 0.929 . S
S557 N558 1.613 1_556 S
S557 N559 1.610 1_556 S
N558 S557 1.613 1_554 S
N558 C561 1.350 . S
N559 S557 1.610 1_554 S
N559 C560 1.351 . S
C560 C554 1.428 . S
C560 N559 1.351 . S
C560 C561 1.434 . S
C561 C552 1.429 1_545 S
C561 N558 1.350 . S
C561 C560 1.434 . S
C562 C563 1.369 . S
C562 C564 1.419 . S
C562 H566 0.930 . S
C563 C562 1.369 . S
C563 C572 1.429 . S
C564 C562 1.419 . S
C564 C565 1.363 . S
C564 H567 0.929 . S
C565 C564 1.363 . S
C565 C571 1.428 . S
H566 C562 0.930 . S
H567 C564 0.929 . S
S568 N569 1.613 . S
S568 N570 1.610 . S
N569 S568 1.613 . S
N569 C572 1.350 . S
N570 S568 1.610 . S
N570 C571 1.351 . S
C571 C565 1.428 . S
C571 N570 1.351 . S
C571 C572 1.434 . S
C572 C563 1.429 . S
C572 N569 1.350 . S
C572 C571 1.434 . S
C573 C574 1.369 . S
C573 C575 1.419 . S
C573 H577 0.930 . S
C574 C573 1.369 . S
C574 C583 1.429 . S
C575 C573 1.419 . S
C575 C576 1.363 . S
C575 H578 0.929 . S
C576 C575 1.363 . S
C576 C582 1.428 . S
H577 C573 0.930 . S
H578 C575 0.929 . S
S579 N580 1.613 1_556 S
S579 N581 1.610 . S
N580 S579 1.613 1_554 S
N580 C583 1.350 . S
N581 S579 1.610 . S
N581 C582 1.351 1_556 S
C582 C576 1.428 . S
C582 N581 1.351 1_554 S
C582 C583 1.434 . S
C583 C574 1.429 . S
C583 N580 1.350 . S
C583 C582 1.434 . S
C584 C585 1.369 . S
C584 C586 1.419 . S
C584 H588 0.930 . S
C585 C584 1.369 . S
C585 C594 1.429 . S
C586 C584 1.419 . S
C586 C587 1.363 . S
C586 H589 0.929 . S
C587 C586 1.363 . S
C587 C593 1.428 . S
H588 C584 0.930 . S
H589 C586 0.929 . S
S590 N591 1.613 . S
S590 N592 1.610 . S
N591 S590 1.613 . S
N591 C594 1.350 1_655 S
N592 S590 1.610 . S
N592 C593 1.351 1_655 S
C593 C587 1.428 . S
C593 N592 1.351 1_455 S
C593 C594 1.434 . S
C594 C585 1.429 . S
C594 N591 1.350 1_455 S
C594 C593 1.434 . S
C595 C596 1.369 . S
C595 C597 1.419 . S
C595 H599 0.930 . S
C596 C595 1.369 . S
C596 C605 1.429 . S
C597 C595 1.419 . S
C597 C598 1.363 . S
C597 H600 0.929 . S
C598 C597 1.363 . S
C598 C604 1.428 . S
H599 C595 0.930 . S
H600 C597 0.929 . S
S601 N602 1.613 1_565 S
S601 N603 1.610 1_565 S
N602 S601 1.613 1_545 S
N602 C605 1.350 . S
N603 S601 1.610 1_545 S
N603 C604 1.351 . S
C604 C598 1.428 . S
C604 N603 1.351 . S
C604 C605 1.434 . S
C605 C596 1.429 . S
C605 N602 1.350 . S
C605 C604 1.434 . S
C606 C607 1.369 . S
C606 C608 1.419 . S
C606 H610 0.930 . S
C607 C606 1.369 . S
C607 C616 1.429 . S
C608 C606 1.419 . S
C608 C609 1.363 . S
C608 H611 0.929 . S
C609 C608 1.363 . S
C609 C615 1.428 . S
H610 C606 0.930 . S
H611 C608 0.929 . S
S612 N613 1.613 . S
S612 N614 1.610 . S
N613 S612 1.613 . S
N613 C616 1.350 . S
N614 S612 1.610 . S
N614 C615 1.351 . S
C615 C609 1.428 . S
C615 N614 1.351 . S
C615 C616 1.434 . S
C616 C607 1.429 . S
C616 N613 1.350 . S
C616 C615 1.434 . S
C617 C618 1.369 . S
C617 C619 1.419 . S
C617 H621 0.930 . S
C618 C617 1.369 . S
C618 C627 1.429 . S
C619 C617 1.419 . S
C619 C620 1.363 . S
C619 H622 0.929 . S
C620 C619 1.363 . S
C620 C626 1.428 . S
H621 C617 0.930 . S
H622 C619 0.929 . S
S623 N624 1.613 . S
S623 N625 1.610 1_554 S
N624 S623 1.613 . S
N624 C627 1.350 1_554 S
N625 S623 1.610 1_556 S
N625 C626 1.351 . S
C626 C620 1.428 . S
C626 N625 1.351 . S
C626 C627 1.434 . S
C627 C618 1.429 . S
C627 N624 1.350 1_556 S
C627 C626 1.434 . S
C628 C629 1.369 1_455 S
C628 C630 1.419 . S
C628 H632 0.930 . S
C629 C628 1.369 1_655 S
C629 C638 1.429 . S
C630 C628 1.419 . S
C630 C631 1.363 1_455 S
C630 H633 0.929 . S
C631 C630 1.363 1_655 S
C631 C637 1.428 . S
H632 C628 0.930 . S
H633 C630 0.929 . S
S634 N635 1.613 . S
S634 N636 1.610 . S
N635 S634 1.613 . S
N635 C638 1.350 . S
N636 S634 1.610 . S
N636 C637 1.351 . S
C637 C631 1.428 . S
C637 N636 1.351 . S
C637 C638 1.434 . S
C638 C629 1.429 . S
C638 N635 1.350 . S
C638 C637 1.434 . S
C639 C640 1.369 . S
C639 C641 1.419 . S
C639 H643 0.930 . S
C640 C639 1.369 . S
C640 C649 1.429 1_565 S
C641 C639 1.419 . S
C641 C642 1.363 . S
C641 H644 0.929 . S
C642 C641 1.363 . S
C642 C648 1.428 1_565 S
H643 C639 0.930 . S
H644 C641 0.929 . S
S645 N646 1.613 . S
S645 N647 1.610 . S
N646 S645 1.613 . S
N646 C649 1.350 . S
N647 S645 1.610 . S
N647 C648 1.351 . S
C648 C642 1.428 1_545 S
C648 N647 1.351 . S
C648 C649 1.434 . S
C649 C640 1.429 1_545 S
C649 N646 1.350 . S
C649 C648 1.434 . S
C650 C651 1.369 . S
C650 C652 1.419 . S
C650 H654 0.930 . S
C651 C650 1.369 . S
C651 C660 1.429 . S
C652 C650 1.419 . S
C652 C653 1.363 . S
C652 H655 0.929 . S
C653 C652 1.363 . S
C653 C659 1.428 . S
H654 C650 0.930 . S
H655 C652 0.929 . S
S656 N657 1.613 . S
S656 N658 1.610 . S
N657 S656 1.613 . S
N657 C660 1.350 . S
N658 S656 1.610 . S
N658 C659 1.351 . S
C659 C653 1.428 . S
C659 N658 1.351 . S
C659 C660 1.434 . S
C660 C651 1.429 . S
C660 N657 1.350 . S
C660 C659 1.434 . S
C661 C662 1.369 . S
C661 C663 1.419 . S
C661 H665 0.930 . S
C662 C661 1.369 . S
C662 C671 1.429 . S
C663 C661 1.419 . S
C663 C664 1.363 . S
C663 H666 0.929 . S
C664 C663 1.363 . S
C664 C670 1.428 . S
H665 C661 0.930 . S
H666 C663 0.929 . S
S667 N668 1.613 . S
S667 N669 1.610 . S
N668 S667 1.613 . S
N668 C671 1.350 . S
N669 S667 1.610 . S
N669 C670 1.351 . S
C670 C664 1.428 . S
C670 N669 1.351 . S
C670 C671 1.434 . S
C671 C662 1.429 . S
C671 N668 1.350 . S
C671 C670 1.434 . S
C409 C61 2.000 . S
C411 C140 2.209 . S
C422 C223 2.219 . S
C420 C70 2.025 . S
C433 C308 2.212 . S
C431 C43 1.997 . S
C444 C392 2.196 . S
C442 C52 1.998 . S
C455 C128 2.209 1_565 S
C453 C25 2.010 . S
C464 C34 2.015 . S
C466 C211 2.221 . S
C475 C7 2.002 . S
C477 C296 2.211 . S
C486 C16 1.994 . S
C488 C380 2.196 1_655 S
C499 C130 0.768 . S
C497 C50 0.776 . S
C510 C226 0.748 . S
C508 C59 0.740 . S
C521 C298 0.780 . S
C519 C67 0.786 . S
C530 C41 0.748 . S
C532 C382 0.762 . S
C541 C14 0.757 . S
C543 C142 0.767 . S
C554 C214 0.759 . S
C552 C23 0.748 . S
C565 C310 0.782 . S
C563 C31 0.764 . S
C574 C5 0.765 . S
C576 C394 0.757 . S
C585 C49 2.056 . S
C587 C127 2.333 . S
C596 C58 2.057 . S
C598 C212 2.351 . S
C609 C295 2.348 . S
C607 C68 2.062 . S
C620 C379 2.353 . S
C618 C40 2.066 . S
C629 C13 2.049 . S
C631 C139 2.335 . S
C642 C224 2.350 . S
C640 C22 2.050 . S
C653 C307 2.348 . S
C651 C32 2.057 . S
C662 C4 2.064 . S
C664 C391 2.353 . S
