# Generated by pormake.
# Topology ptr, (4,4)-cn, num edge types: 1
# Building blocks:
#     Node 0, Type 0, BuildingBlock: TATPOV_clean_sbu_0, # of connection points: 4
#     Node 1, Type 0, BuildingBlock: TATPOV_clean_sbu_0, # of connection points: 4
#     Node 2, Type 0, BuildingBlock: TATPOV_clean_sbu_0, # of connection points: 4
#     Node 3, Type 0, BuildingBlock: TATPOV_clean_sbu_0, # of connection points: 4
#     Node 4, Type 0, BuildingBlock: TATPOV_clean_sbu_0, # of connection points: 4
#     Node 5, Type 0, BuildingBlock: TATPOV_clean_sbu_0, # of connection points: 4
#     Node 6, Type 0, BuildingBlock: TATPOV_clean_sbu_0, # of connection points: 4
#     Node 7, Type 0, BuildingBlock: TATPOV_clean_sbu_0, # of connection points: 4
#     Node 8, Type 0, BuildingBlock: TATPOV_clean_sbu_0, # of connection points: 4
#     Node 9, Type 0, BuildingBlock: TATPOV_clean_sbu_0, # of connection points: 4
#     Node 10, Type 0, BuildingBlock: TATPOV_clean_sbu_0, # of connection points: 4
#     Node 11, Type 0, BuildingBlock: TATPOV_clean_sbu_0, # of connection points: 4
#     Node 12, Type 0, BuildingBlock: TATPOV_clean_sbu_0, # of connection points: 4
#     Node 13, Type 0, BuildingBlock: TATPOV_clean_sbu_0, # of connection points: 4
#     Node 14, Type 0, BuildingBlock: TATPOV_clean_sbu_0, # of connection points: 4
#     Node 15, Type 0, BuildingBlock: TATPOV_clean_sbu_0, # of connection points: 4
#     Node 16, Type 0, BuildingBlock: TATPOV_clean_sbu_0, # of connection points: 4
#     Node 17, Type 0, BuildingBlock: TATPOV_clean_sbu_0, # of connection points: 4
#     Node 18, Type 1, BuildingBlock: NAWXER_clean_linker_0, # of connection points: 4
#     Node 19, Type 1, BuildingBlock: NAWXER_clean_linker_0, # of connection points: 4
#     Node 20, Type 1, BuildingBlock: NAWXER_clean_linker_0, # of connection points: 4
#     Node 21, Type 1, BuildingBlock: NAWXER_clean_linker_0, # of connection points: 4
#     Node 22, Type 1, BuildingBlock: NAWXER_clean_linker_0, # of connection points: 4
#     Node 23, Type 1, BuildingBlock: NAWXER_clean_linker_0, # of connection points: 4
#     Node 24, Type 1, BuildingBlock: NAWXER_clean_linker_0, # of connection points: 4
#     Node 25, Type 1, BuildingBlock: NAWXER_clean_linker_0, # of connection points: 4
#     Node 26, Type 1, BuildingBlock: NAWXER_clean_linker_0, # of connection points: 4
#     Node 27, Type 1, BuildingBlock: NAWXER_clean_linker_0, # of connection points: 4
#     Node 28, Type 1, BuildingBlock: NAWXER_clean_linker_0, # of connection points: 4
#     Node 29, Type 1, BuildingBlock: NAWXER_clean_linker_0, # of connection points: 4
#     Node 30, Type 1, BuildingBlock: NAWXER_clean_linker_0, # of connection points: 4
#     Node 31, Type 1, BuildingBlock: NAWXER_clean_linker_0, # of connection points: 4
#     Node 32, Type 1, BuildingBlock: NAWXER_clean_linker_0, # of connection points: 4
#     Node 33, Type 1, BuildingBlock: NAWXER_clean_linker_0, # of connection points: 4
#     Node 34, Type 1, BuildingBlock: NAWXER_clean_linker_0, # of connection points: 4
#     Node 35, Type 1, BuildingBlock: NAWXER_clean_linker_0, # of connection points: 4
#     Edge 36, Type (0, 1), BuildingBlock: CIFDUS_clean_linker_0, # of connection points: 2
#     Edge 37, Type (0, 1), BuildingBlock: CIFDUS_clean_linker_0, # of connection points: 2
#     Edge 38, Type (0, 1), BuildingBlock: CIFDUS_clean_linker_0, # of connection points: 2
#     Edge 39, Type (0, 1), BuildingBlock: CIFDUS_clean_linker_0, # of connection points: 2
#     Edge 40, Type (0, 1), BuildingBlock: CIFDUS_clean_linker_0, # of connection points: 2
#     Edge 41, Type (0, 1), BuildingBlock: CIFDUS_clean_linker_0, # of connection points: 2
#     Edge 42, Type (0, 1), BuildingBlock: CIFDUS_clean_linker_0, # of connection points: 2
#     Edge 43, Type (0, 1), BuildingBlock: CIFDUS_clean_linker_0, # of connection points: 2
#     Edge 44, Type (0, 1), BuildingBlock: CIFDUS_clean_linker_0, # of connection points: 2
#     Edge 45, Type (0, 1), BuildingBlock: CIFDUS_clean_linker_0, # of connection points: 2
#     Edge 46, Type (0, 1), BuildingBlock: CIFDUS_clean_linker_0, # of connection points: 2
#     Edge 47, Type (0, 1), BuildingBlock: CIFDUS_clean_linker_0, # of connection points: 2
#     Edge 48, Type (0, 1), BuildingBlock: CIFDUS_clean_linker_0, # of connection points: 2
#     Edge 49, Type (0, 1), BuildingBlock: CIFDUS_clean_linker_0, # of connection points: 2
#     Edge 50, Type (0, 1), BuildingBlock: CIFDUS_clean_linker_0, # of connection points: 2
#     Edge 51, Type (0, 1), BuildingBlock: CIFDUS_clean_linker_0, # of connection points: 2
#     Edge 52, Type (0, 1), BuildingBlock: CIFDUS_clean_linker_0, # of connection points: 2
#     Edge 53, Type (0, 1), BuildingBlock: CIFDUS_clean_linker_0, # of connection points: 2
#     Edge 54, Type (0, 1), BuildingBlock: CIFDUS_clean_linker_0, # of connection points: 2
#     Edge 55, Type (0, 1), BuildingBlock: CIFDUS_clean_linker_0, # of connection points: 2
#     Edge 56, Type (0, 1), BuildingBlock: CIFDUS_clean_linker_0, # of connection points: 2
#     Edge 57, Type (0, 1), BuildingBlock: CIFDUS_clean_linker_0, # of connection points: 2
#     Edge 58, Type (0, 1), BuildingBlock: CIFDUS_clean_linker_0, # of connection points: 2
#     Edge 59, Type (0, 1), BuildingBlock: CIFDUS_clean_linker_0, # of connection points: 2
#     Edge 60, Type (0, 1), BuildingBlock: CIFDUS_clean_linker_0, # of connection points: 2
#     Edge 61, Type (0, 1), BuildingBlock: CIFDUS_clean_linker_0, # of connection points: 2
#     Edge 62, Type (0, 1), BuildingBlock: CIFDUS_clean_linker_0, # of connection points: 2
#     Edge 63, Type (0, 1), BuildingBlock: CIFDUS_clean_linker_0, # of connection points: 2
#     Edge 64, Type (0, 1), BuildingBlock: CIFDUS_clean_linker_0, # of connection points: 2
#     Edge 65, Type (0, 1), BuildingBlock: CIFDUS_clean_linker_0, # of connection points: 2
#     Edge 66, Type (0, 1), BuildingBlock: CIFDUS_clean_linker_0, # of connection points: 2
#     Edge 67, Type (0, 1), BuildingBlock: CIFDUS_clean_linker_0, # of connection points: 2
#     Edge 68, Type (0, 1), BuildingBlock: CIFDUS_clean_linker_0, # of connection points: 2
#     Edge 69, Type (0, 1), BuildingBlock: CIFDUS_clean_linker_0, # of connection points: 2
#     Edge 70, Type (0, 1), BuildingBlock: CIFDUS_clean_linker_0, # of connection points: 2
#     Edge 71, Type (0, 1), BuildingBlock: CIFDUS_clean_linker_0, # of connection points: 2
#     Edge 72, Type (0, 1), BuildingBlock: CIFDUS_clean_linker_0, # of connection points: 2
#     Edge 73, Type (0, 1), BuildingBlock: CIFDUS_clean_linker_0, # of connection points: 2
#     Edge 74, Type (0, 1), BuildingBlock: CIFDUS_clean_linker_0, # of connection points: 2
#     Edge 75, Type (0, 1), BuildingBlock: CIFDUS_clean_linker_0, # of connection points: 2
#     Edge 76, Type (0, 1), BuildingBlock: CIFDUS_clean_linker_0, # of connection points: 2
#     Edge 77, Type (0, 1), BuildingBlock: CIFDUS_clean_linker_0, # of connection points: 2
#     Edge 78, Type (0, 1), BuildingBlock: CIFDUS_clean_linker_0, # of connection points: 2
#     Edge 79, Type (0, 1), BuildingBlock: CIFDUS_clean_linker_0, # of connection points: 2
#     Edge 80, Type (0, 1), BuildingBlock: CIFDUS_clean_linker_0, # of connection points: 2
#     Edge 81, Type (0, 1), BuildingBlock: CIFDUS_clean_linker_0, # of connection points: 2
#     Edge 82, Type (0, 1), BuildingBlock: CIFDUS_clean_linker_0, # of connection points: 2
#     Edge 83, Type (0, 1), BuildingBlock: CIFDUS_clean_linker_0, # of connection points: 2
#     Edge 84, Type (0, 1), BuildingBlock: CIFDUS_clean_linker_0, # of connection points: 2
#     Edge 85, Type (0, 1), BuildingBlock: CIFDUS_clean_linker_0, # of connection points: 2
#     Edge 86, Type (0, 1), BuildingBlock: CIFDUS_clean_linker_0, # of connection points: 2
#     Edge 87, Type (0, 1), BuildingBlock: CIFDUS_clean_linker_0, # of connection points: 2
#     Edge 88, Type (0, 1), BuildingBlock: CIFDUS_clean_linker_0, # of connection points: 2
#     Edge 89, Type (0, 1), BuildingBlock: CIFDUS_clean_linker_0, # of connection points: 2
#     Edge 90, Type (0, 1), BuildingBlock: CIFDUS_clean_linker_0, # of connection points: 2
#     Edge 91, Type (0, 1), BuildingBlock: CIFDUS_clean_linker_0, # of connection points: 2
#     Edge 92, Type (0, 1), BuildingBlock: CIFDUS_clean_linker_0, # of connection points: 2
#     Edge 93, Type (0, 1), BuildingBlock: CIFDUS_clean_linker_0, # of connection points: 2
#     Edge 94, Type (0, 1), BuildingBlock: CIFDUS_clean_linker_0, # of connection points: 2
#     Edge 95, Type (0, 1), BuildingBlock: CIFDUS_clean_linker_0, # of connection points: 2
#     Edge 96, Type (0, 1), BuildingBlock: CIFDUS_clean_linker_0, # of connection points: 2
#     Edge 97, Type (0, 1), BuildingBlock: CIFDUS_clean_linker_0, # of connection points: 2
#     Edge 98, Type (0, 1), BuildingBlock: CIFDUS_clean_linker_0, # of connection points: 2
#     Edge 99, Type (0, 1), BuildingBlock: CIFDUS_clean_linker_0, # of connection points: 2
#     Edge 100, Type (0, 1), BuildingBlock: CIFDUS_clean_linker_0, # of connection points: 2
#     Edge 101, Type (0, 1), BuildingBlock: CIFDUS_clean_linker_0, # of connection points: 2
#     Edge 102, Type (0, 1), BuildingBlock: CIFDUS_clean_linker_0, # of connection points: 2
#     Edge 103, Type (0, 1), BuildingBlock: CIFDUS_clean_linker_0, # of connection points: 2
#     Edge 104, Type (0, 1), BuildingBlock: CIFDUS_clean_linker_0, # of connection points: 2
#     Edge 105, Type (0, 1), BuildingBlock: CIFDUS_clean_linker_0, # of connection points: 2
#     Edge 106, Type (0, 1), BuildingBlock: CIFDUS_clean_linker_0, # of connection points: 2
#     Edge 107, Type (0, 1), BuildingBlock: CIFDUS_clean_linker_0, # of connection points: 2
# Relax obj value: 0.067
# Max RMSD: 0.243
# Mean RMSD: 0.106
data_MOF--net-ptr--node1-TATPOV_clean_sbu_0--node2-NAWXER_clean_linker_0--edge1-CIFDUS_clean_linker_0
_symmetry_space_group_name_H-M    P1
_symmetry_Int_Tables_number       1
_symmetry_cell_setting            triclinic
loop_
_symmetry_equiv_pos_as_xyz
'x, y, z'
_cell_length_a     77.994443
_cell_length_b     79.064023
_cell_length_c     56.547748
_cell_angle_alpha  89.694084
_cell_angle_beta   90.761338
_cell_angle_gamma 121.44111
loop_
_atom_site_label
_atom_site_type_symbol
_atom_site_fract_x
_atom_site_fract_y
_atom_site_fract_z
_atom_type_partial_charge
Zn0 Zn 0.95624 0.34629 0.01567 0.0
Zn1 Zn 0.99417 0.35521 0.01117 0.0
O2 O 0.97648 0.32508 0.00589 0.0
O3 O 0.94565 0.317 0.01423 0.0
O4 O 0.02156 0.35869 0.01465 0.0
O5 O 0.96178 0.35998 0.0472 0.0
O6 O 0.99273 0.3668 0.04317 0.0
C7 C 0.95798 0.31198 0.00841 0.0
C8 C 0.97844 0.3715 0.9746 0.0
O9 O 0.99363 0.37114 0.98258 0.0
O10 O 0.96174 0.36207 0.98518 0.0
C11 C 0.02718 0.34834 0.00392 0.0
O12 O 0.01609 0.33672 0.98645 0.0
C13 C 0.97957 0.36784 0.05513 0.0
Zn14 Zn 0.6647 0.61976 0.00669 0.0
Zn15 Zn 0.66103 0.65101 0.01582 0.0
O16 O 0.6908 0.66384 0.00598 0.0
O17 O 0.69408 0.63803 1.0007 0.0
O18 O 0.65924 0.67429 0.02681 0.0
O19 O 0.65612 0.60873 0.03929 0.0
O20 O 0.6524 0.63399 0.04621 0.0
C21 C 0.70159 0.65658 0.0011 0.0
C22 C 0.63564 0.62259 0.97627 0.0
O23 O 0.64063 0.63816 0.98826 0.0
O24 O 0.64385 0.61265 0.9807 0.0
C25 C 0.66342 0.68956 0.01476 0.0
O26 O 0.66889 0.69071 0.99265 0.0
C27 C 0.65134 0.61809 0.05311 0.0
Zn28 Zn 0.34014 0.94775 0.03431 0.0
Zn29 Zn 0.34244 0.98174 0.02573 0.0
O30 O 0.31386 0.96365 0.03968 0.0
O31 O 0.31249 0.93566 0.04718 0.0
O32 O 0.34173 0.00593 0.01538 0.0
O33 O 0.3439 0.94353 1.00033 0.0
O34 O 0.34885 0.97323 0.99393 0.0
C35 C 0.30435 0.94592 0.04753 0.0
C36 C 0.37194 0.98106 0.06094 0.0
O37 O 0.36529 0.99101 0.05079 0.0
O38 O 0.36401 0.96278 0.05631 0.0
C39 C 0.34919 0.02254 0.02586 0.0
O40 O 0.35892 0.02542 0.04602 0.0
C41 C 0.34831 0.95777 0.98642 0.0
Zn42 Zn 0.06234 0.66503 0.01654 0.0
Zn43 Zn 0.02548 0.65965 0.01314 0.0
O44 O 0.04491 0.68906 0.0226 0.0
O45 O 0.07542 0.69413 0.0234 0.0
O46 O 0.99942 0.65857 0.00531 0.0
O47 O 0.06078 0.65484 0.98349 0.0
O48 O 0.03007 0.64923 0.98186 0.0
C49 C 0.06377 0.70061 0.02599 0.0
C50 C 0.03298 0.63738 0.05124 0.0
O51 O 0.02036 0.64074 0.041 0.0
O52 O 0.05093 0.6458 0.04402 0.0
C53 C 0.99562 0.67142 0.01274 0.0
O54 O 0.00781 0.68466 0.02831 0.0
C55 C 0.04429 0.64826 0.97242 0.0
Zn56 Zn 0.35494 0.39172 0.02148 0.0
Zn57 Zn 0.3503 0.35666 0.01323 0.0
O58 O 0.3217 0.35064 0.02253 0.0
O59 O 0.326 0.38019 0.02779 0.0
O60 O 0.34616 0.32979 0.00483 0.0
O61 O 0.36493 0.40127 0.98894 0.0
O62 O 0.36242 0.37264 0.98218 0.0
C63 C 0.31459 0.36154 0.02746 0.0
C64 C 0.37842 0.38263 0.05312 0.0
O65 O 0.37078 0.36666 0.04107 0.0
O66 O 0.37389 0.39549 0.04822 0.0
C67 C 0.33064 0.3133 0.01028 0.0
O68 O 0.31646 0.31323 0.02264 0.0
C69 C 0.36704 0.3899 0.97527 0.0
Zn70 Zn 0.6284 0.02239 0.98127 0.0
Zn71 Zn 0.63206 0.99427 0.00235 0.0
O72 O 0.66023 0.0146 0.98898 0.0
O73 O 0.6576 0.0389 0.97409 0.0
O74 O 0.63644 0.97353 0.01782 0.0
O75 O 0.6177 0.02638 0.01161 0.0
O76 O 0.6228 0.00469 0.02987 0.0
C77 C 0.66816 0.03144 0.97881 0.0
C78 C 0.60307 0.98423 0.96025 0.0
O79 O 0.60946 0.97844 0.97747 0.0
O80 O 0.60964 0.00248 0.95727 0.0
C81 C 0.65023 0.97066 0.01104 0.0
O82 O 0.66152 0.9809 0.99316 0.0
C83 C 0.61719 0.01723 0.03029 0.0
Zn84 Zn 0.61873 0.67785 0.35356 0.0
Zn85 Zn 0.65711 0.688 0.35214 0.0
O86 O 0.64028 0.65786 0.34643 0.0
O87 O 0.60858 0.64875 0.34971 0.0
O88 O 0.6844 0.69178 0.35762 0.0
O89 O 0.62213 0.6904 0.38574 0.0
O90 O 0.65399 0.69996 0.3829 0.0
C91 C 0.62174 0.64433 0.34593 0.0
C92 C 0.64273 0.70399 0.31383 0.0
O93 O 0.6576 0.70348 0.32264 0.0
O94 O 0.62572 0.69469 0.32377 0.0
C95 C 0.69193 0.68411 0.34492 0.0
O96 O 0.68301 0.67545 0.3249 0.0
C97 C 0.63986 0.69981 0.39411 0.0
Zn98 Zn 0.30256 0.94187 0.31336 0.0
Zn99 Zn 0.30606 0.97254 0.33597 0.0
O100 O 0.33535 0.98239 0.32574 0.0
O101 O 0.3323 0.95536 0.3106 0.0
O102 O 0.30793 0.99591 0.35296 0.0
O103 O 0.28878 0.92428 0.34123 0.0
O104 O 0.29453 0.95044 0.3615 0.0
C105 C 0.34325 0.97339 0.31649 0.0
C106 C 0.28116 0.95717 0.28984 0.0
O107 O 0.28642 0.96806 0.30828 0.0
O108 O 0.28688 0.945 0.2871 0.0
C109 C 0.32379 0.0097 0.36293 0.0
O110 O 0.34029 0.00908 0.36263 0.0
C111 C 0.28791 0.9319 0.36046 0.0
Zn112 Zn 0.01195 0.28933 0.3542 0.0
Zn113 Zn 0.01782 0.32545 0.35526 0.0
O114 O 0.98768 0.30666 0.36379 0.0
O115 O 0.98262 0.27671 0.36007 0.0
O116 O 0.02055 0.35227 0.35118 0.0
O117 O 0.02171 0.29204 0.32108 0.0
O118 O 0.02736 0.32232 0.32234 0.0
C119 C 0.97593 0.28787 0.36449 0.0
C120 C 0.04009 0.31494 0.3911 0.0
O121 O 0.03702 0.32817 0.3827 0.0
O122 O 0.03122 0.29775 0.382 0.0
C123 C 0.00653 0.35267 0.33988 0.0
O124 O 0.99079 0.33585 0.33277 0.0
C125 C 0.02794 0.30862 0.31125 0.0
Zn126 Zn 0.72962 0.9963 0.3516 0.0
Zn127 Zn 0.69483 0.9938 0.33991 0.0
O128 O 0.71363 0.02281 0.35074 0.0
O129 O 0.74294 0.02573 0.357 0.0
O130 O 0.67112 0.99417 0.32613 0.0
O131 O 0.73095 0.98522 0.31979 0.0
O132 O 0.70255 0.98354 0.31126 0.0
C133 C 0.73216 0.03338 0.35652 0.0
C134 C 0.69498 0.9697 0.38126 0.0
O135 O 0.68472 0.97379 0.36723 0.0
O136 O 0.71377 0.97762 0.37861 0.0
C137 C 0.66279 0.00277 0.33511 0.0
O138 O 0.66868 0.01104 0.35609 0.0
C139 C 0.71656 0.98068 0.30547 0.0
Zn140 Zn 0.01746 0.7179 0.37327 0.0
Zn141 Zn 0.01833 0.69154 0.3444 0.0
O142 O 0.98924 0.67707 0.35704 0.0
O143 O 0.98891 0.69843 0.38165 0.0
O144 O 0.01847 0.67029 0.32499 0.0
O145 O 0.02436 0.73584 0.34462 0.0
O146 O 0.02463 0.71395 0.32094 0.0
C147 C 0.98006 0.68161 0.37177 0.0
C148 C 0.04727 0.70941 0.38749 0.0
O149 O 0.04129 0.6988 0.3688 0.0
O150 O 0.03914 0.71892 0.39377 0.0
C151 C 0.00353 0.65849 0.31202 0.0
O152 O 0.98807 0.66083 0.31038 0.0
C153 C 0.02659 0.73082 0.32415 0.0
Zn154 Zn 0.3219 0.37425 0.33597 0.0
Zn155 Zn 0.31504 0.3377 0.33717 0.0
O156 O 0.34476 0.3556 0.32716 0.0
O157 O 0.35097 0.38605 0.329 0.0
O158 O 0.31266 0.31125 0.34286 0.0
O159 O 0.31297 0.3731 0.36926 0.0
O160 O 0.30659 0.34255 0.36984 0.0
C161 C 0.35692 0.37422 0.32508 0.0
C162 C 0.2926 0.34714 0.3007 0.0
O163 O 0.29536 0.33398 0.30999 0.0
O164 O 0.302 0.36471 0.30875 0.0
C165 C 0.32692 0.31209 0.35505 0.0
O166 O 0.34177 0.3295 0.36213 0.0
C167 C 0.30666 0.35691 0.38009 0.0
Zn168 Zn 0.27988 0.0188 0.68247 0.0
Zn169 Zn 0.31321 0.01736 0.68738 0.0
O170 O 0.29178 0.98986 0.67421 0.0
O171 O 0.26452 0.99115 0.66897 0.0
O172 O 0.33685 0.0142 0.69489 0.0
O173 O 0.27929 0.02402 0.71703 0.0
O174 O 0.30831 0.02579 0.72012 0.0
C175 C 0.27354 0.98176 0.66733 0.0
C176 C 0.31372 0.04782 0.65436 0.0
O177 O 0.32277 0.03934 0.66216 0.0
O178 O 0.29608 0.04222 0.66097 0.0
C179 C 0.33954 0.00144 0.68478 0.0
O180 O 0.3275 0.99082 0.66731 0.0
C181 C 0.29444 0.02748 0.72937 0.0
Zn182 Zn 0.98217 0.28267 0.67187 0.0
Zn183 Zn 0.98428 0.31581 0.6843 0.0
O184 O 0.01347 0.32512 0.67382 0.0
O185 O 0.01141 0.29695 0.6655 0.0
O186 O 0.98648 0.34102 0.69589 0.0
O187 O 0.97235 0.27031 0.70353 0.0
O188 O 0.97333 0.2976 0.71391 0.0
C189 C 0.02173 0.31564 0.66717 0.0
C190 C 0.95733 0.29171 0.64268 0.0
O191 O 0.96389 0.30661 0.65644 0.0
O192 O 0.96297 0.27943 0.64563 0.0
C193 C 0.9707 0.34097 0.70144 0.0
O194 O 0.95315 0.3245 0.69889 0.0
C195 C 0.96962 0.28024 0.71884 0.0
Zn196 Zn 0.70381 0.64893 0.69783 0.0
Zn197 Zn 0.70379 0.68092 0.6874 0.0
O198 O 0.67574 0.66236 0.70237 0.0
O199 O 0.67715 0.63636 0.71308 0.0
O200 O 0.70108 0.70354 0.67545 0.0
O201 O 0.70545 0.64233 0.6643 0.0
O202 O 0.70973 0.67148 0.6559 0.0
C203 C 0.66769 0.64535 0.71213 0.0
C204 C 0.73571 0.68377 0.72145 0.0
O205 O 0.72749 0.69251 0.71183 0.0
O206 O 0.72875 0.66558 0.71728 0.0
C207 C 0.70307 0.71819 0.68707 0.0
O208 O 0.70827 0.72013 0.70954 0.0
C209 C 0.70901 0.65569 0.64939 0.0
Zn210 Zn 0.3756 0.30721 0.69061 0.0
Zn211 Zn 0.34202 0.30813 0.68873 0.0
O212 O 0.36438 0.33666 0.69846 0.0
O213 O 0.39228 0.33616 0.69835 0.0
O214 O 0.31792 0.31088 0.68259 0.0
O215 O 0.37248 0.29764 0.65709 0.0
O216 O 0.34402 0.29711 0.65634 0.0
C217 C 0.38337 0.34551 0.70144 0.0
C218 C 0.34551 0.282 0.72554 0.0
O219 O 0.33483 0.28828 0.7163 0.0
O220 O 0.3628 0.28774 0.71748 0.0
C221 C 0.32117 0.32607 0.67089 0.0
O222 O 0.33964 0.33909 0.66456 0.0
C223 C 0.35661 0.29395 0.64621 0.0
Zn224 Zn 0.67518 0.05962 0.69235 0.0
Zn225 Zn 0.67633 0.02736 0.67989 0.0
O226 O 0.6471 0.01595 0.69125 0.0
O227 O 0.6455 0.04263 0.69748 0.0
O228 O 0.67636 0.00337 0.66789 0.0
O229 O 0.68499 0.07178 0.66022 0.0
O230 O 0.68503 0.04495 0.65015 0.0
C231 C 0.63714 0.02398 0.69674 0.0
C232 C 0.70279 0.05316 0.72059 0.0
O233 O 0.69772 0.03885 0.70633 0.0
O234 O 0.69486 0.06363 0.71888 0.0
C235 C 0.67903 0.99152 0.68043 0.0
O236 O 0.68187 0.99446 0.70336 0.0
C237 C 0.68793 0.06195 0.64494 0.0
Zn238 Zn 0.9745 0.70617 0.66069 0.0
Zn239 Zn 0.9793 0.67632 0.67295 0.0
O240 O 0.00592 0.69582 0.65592 0.0
O241 O 0.00148 0.7201 0.64534 0.0
O242 O 0.98303 0.65402 0.68418 0.0
O243 O 0.97183 0.71181 0.6944 0.0
O244 O 0.97423 0.68624 0.7046 0.0
C245 C 0.01228 0.71248 0.64578 0.0
C246 C 0.94472 0.66925 0.63971 0.0
O247 O 0.95466 0.66265 0.65012 0.0
O248 O 0.94984 0.68721 0.64187 0.0
C249 C -0.00012 0.65772 0.69252 0.0
O250 O 0.01504 0.67617 0.69305 0.0
C251 C 0.97182 0.70046 0.71026 0.0
C252 C 0.213 0.32702 0.11017 0.0
C253 C 0.21039 0.31301 0.09308 0.0
C254 C 0.19673 0.32436 0.12319 0.0
C255 C 0.17752 0.30766 0.11932 0.0
C256 C 0.19126 0.29604 0.08955 0.0
C257 C 0.17485 0.29351 0.10241 0.0
C258 C 0.16017 0.3059 0.13178 0.0
C259 C 0.19746 0.29575 0.18575 0.0
C260 C 0.20488 0.30989 0.20406 0.0
C261 C 0.18249 0.29411 0.17016 0.0
C262 C 0.17477 0.30658 0.17275 0.0
C263 C 0.19668 0.32189 0.20689 0.0
C264 C 0.18182 0.32023 0.19149 0.0
C265 C 0.15911 0.30567 0.15672 0.0
C266 C 0.07944 0.29722 0.17558 0.0
C267 C 0.08501 0.3086 0.19645 0.0
C268 C 0.0941 0.2978 0.161 0.0
C269 C 0.11456 0.30975 0.16708 0.0
C270 C 0.10553 0.32121 0.20185 0.0
C271 C 0.12012 0.32168 0.18739 0.0
C272 C 0.13013 0.30845 0.15396 0.0
C273 C 0.11158 0.34058 0.10539 0.0
C274 C 0.09848 0.32861 0.08712 0.0
C275 C 0.12223 0.33423 0.11893 0.0
C276 C 0.12024 0.31586 0.11442 0.0
C277 C 0.0969 0.31037 0.08225 0.0
C278 C 0.10786 0.30415 0.09567 0.0
C279 C 0.13164 0.30947 0.12911 0.0
H280 H 0.22763 0.3402 0.1132 0.0
H281 H 0.19904 0.3356 0.13588 0.0
H282 H 0.18892 0.28515 0.07633 0.0
H283 H 0.16006 0.28064 0.09905 0.0
H284 H 0.20346 0.28625 0.18325 0.0
H285 H 0.17696 0.28311 0.15621 0.0
H286 H 0.20178 0.33265 0.22112 0.0
H287 H 0.17603 0.32992 0.19404 0.0
H288 H 0.06374 0.2874 0.17095 0.0
H289 H 0.08939 0.28821 0.14563 0.0
H290 H 0.11032 0.32994 0.21795 0.0
H291 H 0.13581 0.33098 0.19248 0.0
H292 H 0.11367 0.35494 0.10927 0.0
H293 H 0.13213 0.34374 0.13295 0.0
H294 H 0.08686 0.30068 0.06847 0.0
H295 H 0.1063 0.29 0.09179 0.0
N296 N 0.14647 0.30793 0.11888 0.0
N297 N 0.144 0.30676 0.16673 0.0
C298 C 0.6485 0.88376 0.11314 0.0
C299 C 0.65697 0.89019 0.09064 0.0
C300 C 0.65263 0.87151 0.12674 0.0
C301 C 0.66589 0.86586 0.11864 0.0
C302 C 0.66985 0.88409 0.08224 0.0
C303 C 0.67423 0.87205 0.0961 0.0
C304 C 0.66985 0.85241 0.13294 0.0
C305 C 0.69478 0.9069 0.17999 0.0
C306 C 0.68284 0.90373 0.19986 0.0
C307 C 0.69115 0.89092 0.16569 0.0
C308 C 0.67575 0.87156 0.17134 0.0
C309 C 0.66722 0.8844 0.20516 0.0
C310 C 0.66387 0.86845 0.19119 0.0
C311 C 0.67275 0.8543 0.15772 0.0
C312 C 0.68189 0.78621 0.18821 0.0
C313 C 0.66856 0.77975 0.20734 0.0
C314 C 0.68262 0.80013 0.17211 0.0
C315 C 0.67003 0.80776 0.17496 0.0
C316 C 0.65614 0.78756 0.21009 0.0
C317 C 0.65692 0.80142 0.19415 0.0
C318 C 0.67103 0.82331 0.15933 0.0
C319 C 0.64963 0.76909 0.11446 0.0
C320 C 0.66304 0.77191 0.09629 0.0
C321 C 0.65148 0.78528 0.12671 0.0
C322 C 0.66687 0.80465 0.12117 0.0
C323 C 0.67806 0.7914 0.09033 0.0
C324 C 0.67986 0.8076 0.10257 0.0
C325 C 0.66929 0.82187 0.13441 0.0
H326 H 0.63868 0.88822 0.1204 0.0
H327 H 0.64513 0.86623 0.14351 0.0
H328 H 0.67633 0.88837 0.06482 0.0
H329 H 0.68415 0.86754 0.08918 0.0
H330 H 0.70694 0.92168 0.17563 0.0
H331 H 0.70067 0.89359 0.15062 0.0
H332 H 0.65797 0.88156 0.22055 0.0
H333 H 0.65202 0.85361 0.19594 0.0
H334 H 0.69167 0.78046 0.18569 0.0
H335 H 0.69319 0.80515 0.15772 0.0
H336 H 0.64601 0.78324 0.22488 0.0
H337 H 0.64724 0.80726 0.19689 0.0
H338 H 0.63761 0.75434 0.11917 0.0
H339 H 0.64089 0.78266 0.14053 0.0
H340 H 0.68875 0.79414 0.07659 0.0
H341 H 0.69172 0.82244 0.09787 0.0
N342 N 0.66866 0.83644 0.12215 0.0
N343 N 0.67285 0.83954 0.1699 0.0
C344 C 0.09829 0.79728 0.11976 0.0
C345 C 0.08776 0.79642 0.099 0.0
C346 C 0.10633 0.81382 0.13457 0.0
C347 C 0.10402 0.82981 0.12884 0.0
C348 C 0.08502 0.81222 0.09357 0.0
C349 C 0.09334 0.82893 0.10825 0.0
C350 C 0.11478 0.84825 0.14281 0.0
C351 C 0.06513 0.80165 0.18907 0.0
C352 C 0.07193 0.79993 0.21158 0.0
C353 C 0.07774 0.81765 0.17432 0.0
C354 C 0.09746 0.83178 0.18173 0.0
C355 C 0.09152 0.81406 0.2189 0.0
C356 C 0.10412 0.82969 0.20417 0.0
C357 C 0.11163 0.84915 0.16718 0.0
C358 C 0.18244 0.93229 0.19252 0.0
C359 C 0.18463 0.92707 0.21565 0.0
C360 C 0.1672 0.91826 0.17757 0.0
C361 C 0.15468 0.89851 0.18514 0.0
C362 C 0.17095 0.90797 0.2239 0.0
C363 C 0.15626 0.89385 0.20882 0.0
C364 C 0.14045 0.88216 0.16895 0.0
C365 C 0.1994 0.90628 0.13159 0.0
C366 C 0.20042 0.91472 0.10933 0.0
C367 C 0.18123 0.89598 0.14352 0.0
C368 C 0.16372 0.89409 0.13358 0.0
C369 C 0.18304 0.91332 0.09964 0.0
C370 C 0.16474 0.90286 0.11158 0.0
C371 C 0.14414 0.88079 0.1448 0.0
H372 H 0.10051 0.78523 0.12438 0.0
H373 H 0.11488 0.8144 0.15013 0.0
H374 H 0.07707 0.81193 0.07758 0.0
H375 H 0.09171 0.8413 0.10338 0.0
H376 H 0.04998 0.79093 0.18317 0.0
H377 H 0.07195 0.81909 0.15742 0.0
H378 H 0.09716 0.81292 0.23608 0.0
H379 H 0.11924 0.84016 0.2104 0.0
H380 H 0.19282 0.94702 0.18588 0.0
H381 H 0.16574 0.92274 0.15992 0.0
H382 H 0.17247 0.90356 0.2416 0.0
H383 H 0.14679 0.87894 0.21552 0.0
H384 H 0.2126 0.9072 0.13949 0.0
H385 H 0.18073 0.8889 0.16017 0.0
H386 H 0.1834 0.91952 0.08239 0.0
H387 H 0.15131 0.90123 0.10343 0.0
N388 N 0.1309 0.86409 0.13263 0.0
N389 N 0.12434 0.86623 0.17893 0.0
C390 C 0.31984 0.10355 0.84787 0.0
C391 C 0.2999 0.0877 0.8446 0.0
C392 C 0.32436 0.11867 0.86408 0.0
C393 C 0.30907 0.11824 0.87727 0.0
C394 C 0.28482 0.0869 0.85887 0.0
C395 C 0.28932 0.10219 0.87474 0.0
C396 C 0.31319 0.13591 0.89069 0.0
C397 C 0.3063 0.09025 0.94341 0.0
C398 C 0.32511 0.09509 0.95286 0.0
C399 C 0.30397 0.10452 0.93164 0.0
C400 C 0.32042 0.12387 0.92885 0.0
C401 C 0.34138 0.11473 0.95092 0.0
C402 C 0.33902 0.129 0.93906 0.0
C403 C 0.31844 0.13867 0.91491 0.0
C404 C 0.31401 0.21102 0.93578 0.0
C405 C 0.33099 0.22204 0.95045 0.0
C406 C 0.31093 0.19416 0.92399 0.0
C407 C 0.32475 0.18794 0.92664 0.0
C408 C 0.34461 0.21558 0.95345 0.0
C409 C 0.34139 0.19854 0.94183 0.0
C410 C 0.32183 0.17047 0.91342 0.0
C411 C 0.34121 0.21755 0.85739 0.0
C412 C 0.32812 0.21297 0.83789 0.0
C413 C 0.33735 0.20332 0.87463 0.0
C414 C 0.32008 0.18426 0.87303 0.0
C415 C 0.31041 0.19419 0.8368 0.0
C416 C 0.3065 0.17995 0.85414 0.0
C417 C 0.31769 0.16811 0.88881 0.0
H418 H 0.33182 0.10492 0.837 0.0
H419 H 0.33964 0.13118 0.86549 0.0
H420 H 0.26936 0.07479 0.85719 0.0
H421 H 0.27725 0.10183 0.88446 0.0
H422 H 0.29336 0.07538 0.9451 0.0
H423 H 0.2893 0.10041 0.9247 0.0
H424 H 0.35608 0.11893 0.95791 0.0
H425 H 0.35188 0.14391 0.93725 0.0
H426 H 0.30332 0.21569 0.93302 0.0
H427 H 0.29779 0.18602 0.91267 0.0
H428 H 0.35772 0.22367 0.96484 0.0
H429 H 0.35216 0.19392 0.94426 0.0
H430 H 0.35491 0.23195 0.85886 0.0
H431 H 0.34847 0.20697 0.88848 0.0
H432 H 0.30013 0.19013 0.8219 0.0
H433 H 0.2932 0.16529 0.85234 0.0
N434 N 0.31331 0.1508 0.87852 0.0
N435 N 0.3225 0.15584 0.92548 0.0
C436 C 0.91825 0.20163 0.92432 0.0
C437 C 0.91169 0.21161 0.9387 0.0
C438 C 0.90447 0.18554 0.91024 0.0
C439 C 0.88399 0.17932 0.91029 0.0
C440 C 0.8911 0.20502 0.93883 0.0
C441 C 0.87746 0.18901 0.92499 0.0
C442 C 0.86889 0.16295 0.89522 0.0
C443 C 0.90926 0.21166 0.84437 0.0
C444 C 0.91691 0.20583 0.8258 0.0
C445 C 0.89466 0.19754 0.85939 0.0
C446 C 0.88783 0.1773 0.85669 0.0
C447 C 0.91006 0.18554 0.82324 0.0
C448 C 0.89572 0.17149 0.83851 0.0
C449 C 0.87067 0.16194 0.87047 0.0
C450 C 0.78854 0.11813 0.83593 0.0
C451 C 0.78481 0.10091 0.82402 0.0
C452 C 0.80546 0.12869 0.85043 0.0
C453 C 0.81923 0.1225 0.85313 0.0
C454 C 0.79878 0.09479 0.82673 0.0
C455 C 0.81598 0.10565 0.841 0.0
C456 C 0.83704 0.13413 0.86846 0.0
C457 C 0.78493 0.09191 0.91279 0.0
C458 C 0.77814 0.10167 0.92711 0.0
C459 C 0.80378 0.10256 0.90216 0.0
C460 C 0.81604 0.12314 0.90561 0.0
C461 C 0.79086 0.12207 0.93139 0.0
C462 C 0.80963 0.13267 0.92081 0.0
C463 C 0.8353 0.13515 0.89312 0.0
H464 H 0.93399 0.20626 0.92391 0.0
H465 H 0.9098 0.17807 0.89927 0.0
H466 H 0.8855 0.21261 0.9491 0.0
H467 H 0.86175 0.18457 0.92523 0.0
H468 H 0.91422 0.22711 0.84704 0.0
H469 H 0.88825 0.20245 0.87257 0.0
H470 H 0.91517 0.18034 0.80886 0.0
H471 H 0.89037 0.15595 0.8357 0.0
H472 H 0.77857 0.12373 0.83381 0.0
H473 H 0.80792 0.14186 0.85943 0.0
H474 H 0.79637 0.08154 0.81805 0.0
H475 H 0.82655 0.10073 0.8429 0.0
H476 H 0.77543 0.07619 0.9092 0.0
H477 H 0.80863 0.09478 0.89101 0.0
H478 H 0.78616 0.12991 0.94267 0.0
H479 H 0.81889 0.14849 0.92393 0.0
N480 N 0.85126 0.14953 0.90546 0.0
N481 N 0.85465 0.14747 0.85809 0.0
C482 C 0.81722 0.72468 0.92286 0.0
C483 C 0.80625 0.70784 0.9372 0.0
C484 C 0.83448 0.72805 0.9113 0.0
C485 C 0.84107 0.71464 0.91382 0.0
C486 C 0.8132 0.6947 0.94002 0.0
C487 C 0.83051 0.69818 0.92864 0.0
C488 C 0.85877 0.71744 0.90095 0.0
C489 C 0.81232 0.69917 0.84307 0.0
C490 C 0.81721 0.71253 0.82427 0.0
C491 C 0.82633 0.70288 0.86095 0.0
C492 C 0.84552 0.72014 0.86055 0.0
C493 C 0.83596 0.73032 0.82441 0.0
C494 C 0.85011 0.734 0.84234 0.0
C495 C 0.8616 0.72187 0.87654 0.0
C496 C 0.91859 0.70499 0.83904 0.0
C497 C 0.93382 0.72304 0.8294 0.0
C498 C 0.90607 0.70483 0.85662 0.0
C499 C 0.90844 0.72265 0.86473 0.0
C500 C 0.93709 0.7409 0.83909 0.0
C501 C 0.92428 0.74068 0.85629 0.0
C502 C 0.89237 0.72227 0.87849 0.0
C503 C 0.93577 0.72266 0.93224 0.0
C504 C 0.92764 0.70507 0.94549 0.0
C505 C 0.92336 0.72647 0.918 0.0
C506 C 0.90258 0.71278 0.91678 0.0
C507 C 0.90684 0.69136 0.94416 0.0
C508 C 0.89442 0.69528 0.93011 0.0
C509 C 0.88911 0.71692 0.90255 0.0
H510 H 0.81248 0.73526 0.92058 0.0
H511 H 0.84264 0.74111 0.90033 0.0
H512 H 0.80497 0.68137 0.9505 0.0
H513 H 0.83529 0.68761 0.93083 0.0
H514 H 0.79797 0.68531 0.84326 0.0
H515 H 0.82255 0.69158 0.87422 0.0
H516 H 0.84013 0.74072 0.80993 0.0
H517 H 0.86492 0.74726 0.84144 0.0
H518 H 0.91539 0.69093 0.83194 0.0
H519 H 0.89369 0.69075 0.86274 0.0
H520 H 0.94897 0.75509 0.83261 0.0
H521 H 0.92623 0.75458 0.86231 0.0
H522 H 0.95175 0.73346 0.93283 0.0
H523 H 0.92997 0.74029 0.90832 0.0
H524 H 0.90013 0.67779 0.95435 0.0
H525 H 0.8784 0.68457 0.92958 0.0
N526 N 0.87248 0.71484 0.91292 0.0
N527 N 0.87843 0.72434 0.86637 0.0
C528 C 0.752 0.64214 0.43948 0.0
C529 C 0.7604 0.65697 0.4221 0.0
C530 C 0.7639 0.63642 0.45155 0.0
C531 C 0.78456 0.64587 0.447 0.0
C532 C 0.78074 0.6655 0.41643 0.0
C533 C 0.79273 0.66002 0.42882 0.0
C534 C 0.79786 0.64148 0.46127 0.0
C535 C 0.77242 0.66558 0.51424 0.0
C536 C 0.76209 0.65259 0.53303 0.0
C537 C 0.78351 0.66147 0.49852 0.0
C538 C 0.78419 0.64413 0.50107 0.0
C539 C 0.76282 0.63524 0.53539 0.0
C540 C 0.77373 0.63109 0.51962 0.0
C541 C 0.79733 0.64033 0.48625 0.0
C542 C 0.87456 0.64742 0.51323 0.0
C543 C 0.8686 0.63437 0.53258 0.0
C544 C 0.86025 0.64712 0.49783 0.0
C545 C 0.83968 0.63349 0.50115 0.0
C546 C 0.848 0.62059 0.53572 0.0
C547 C 0.83369 0.62023 0.52021 0.0
C548 C 0.82435 0.63441 0.48636 0.0
C549 C 0.86108 0.6198 0.44262 0.0
C550 C 0.87245 0.63447 0.42586 0.0
C551 C 0.84445 0.61891 0.45293 0.0
C552 C 0.83949 0.63322 0.44731 0.0
C553 C 0.86619 0.6474 0.41843 0.0
C554 C 0.84985 0.6468 0.42911 0.0
C555 C 0.8247 0.63517 0.46136 0.0
H556 H 0.73624 0.63508 0.44383 0.0
H557 H 0.75701 0.62488 0.46479 0.0
H558 H 0.78752 0.67693 0.40305 0.0
H559 H 0.80857 0.66734 0.42474 0.0
H560 H 0.77217 0.67905 0.51187 0.0
H561 H 0.79195 0.67209 0.48476 0.0
H562 H 0.75554 0.62513 0.54997 0.0
H563 H 0.77433 0.61782 0.5222 0.0
H564 H 0.89025 0.65852 0.5106 0.0
H565 H 0.86526 0.65797 0.48376 0.0
H566 H 0.84293 0.6103 0.5504 0.0
H567 H 0.81789 0.60976 0.52329 0.0
H568 H 0.86556 0.60957 0.44843 0.0
H569 H 0.83616 0.60773 0.4662 0.0
H570 H 0.87481 0.65891 0.40559 0.0
H571 H 0.84613 0.65779 0.4242 0.0
N572 N 0.81159 0.63891 0.44982 0.0
N573 N 0.81052 0.63676 0.49771 0.0
C574 C 0.32563 0.21886 0.43384 0.0
C575 C 0.34075 0.22914 0.41705 0.0
C576 C 0.32559 0.20434 0.44805 0.0
C577 C 0.34067 0.1998 0.44573 0.0
C578 C 0.35549 0.22416 0.41428 0.0
C579 C 0.35533 0.20947 0.42835 0.0
C580 C 0.3411 0.18499 0.46141 0.0
C581 C 0.36008 0.23714 0.51075 0.0
C582 C 0.34762 0.2331 0.5304 0.0
C583 C 0.35686 0.2219 0.49542 0.0
C584 C 0.34107 0.20235 0.49938 0.0
C585 C 0.33125 0.21371 0.5336 0.0
C586 C 0.3281 0.19848 0.51834 0.0
C587 C 0.33977 0.18554 0.48624 0.0
C588 C 0.35241 0.12152 0.5227 0.0
C589 C 0.33819 0.11452 0.54088 0.0
C590 C 0.35247 0.13427 0.50532 0.0
C591 C 0.33811 0.13994 0.50573 0.0
C592 C 0.32359 0.11985 0.54079 0.0
C593 C 0.32363 0.13249 0.52351 0.0
C594 C 0.33904 0.15507 0.48939 0.0
C595 C 0.32539 0.10282 0.44479 0.0
C596 C 0.34059 0.10672 0.42865 0.0
C597 C 0.32531 0.11835 0.45635 0.0
C598 C 0.34051 0.1381 0.45214 0.0
C599 C 0.35556 0.12654 0.42412 0.0
C600 C 0.35543 0.14208 0.43564 0.0
C601 C 0.34074 0.15464 0.46459 0.0
H602 H 0.31415 0.22246 0.43649 0.0
H603 H 0.31387 0.19677 0.46101 0.0
H604 H 0.36721 0.23172 0.40132 0.0
H605 H 0.36696 0.20603 0.42611 0.0
H606 H 0.37276 0.25196 0.50776 0.0
H607 H 0.36739 0.22524 0.48128 0.0
H608 H 0.32154 0.21003 0.54872 0.0
H609 H 0.31594 0.18349 0.52189 0.0
H610 H 0.36389 0.11772 0.5224 0.0
H611 H 0.3641 0.14019 0.4921 0.0
H612 H 0.31217 0.11438 0.55426 0.0
H613 H 0.31244 0.13667 0.52421 0.0
H614 H 0.31369 0.08773 0.44876 0.0
H615 H 0.31335 0.11492 0.46859 0.0
H616 H 0.36729 0.13003 0.41151 0.0
H617 H 0.36717 0.15722 0.43192 0.0
N618 N 0.34175 0.16966 0.45151 0.0
N619 N 0.33863 0.17049 0.49915 0.0
C620 C 0.76801 0.13044 0.44672 0.0
C621 C 0.75914 0.13146 0.42545 0.0
C622 C 0.77703 0.14654 0.46213 0.0
C623 C 0.77731 0.16404 0.45671 0.0
C624 C 0.7588 0.14868 0.42023 0.0
C625 C 0.76809 0.165 0.43565 0.0
C626 C 0.78986 0.18191 0.47136 0.0
C627 C 0.73746 0.14282 0.51939 0.0
C628 C 0.74284 0.13443 0.53786 0.0
C629 C 0.75228 0.15768 0.50515 0.0
C630 C 0.77266 0.16456 0.50954 0.0
C631 C 0.76319 0.14094 0.54163 0.0
C632 C 0.77795 0.15597 0.52776 0.0
C633 C 0.78878 0.18138 0.49627 0.0
C634 C 0.86765 0.255 0.5267 0.0
C635 C 0.8736 0.24499 0.54219 0.0
C636 C 0.85028 0.24427 0.51257 0.0
C637 C 0.83865 0.22346 0.51407 0.0
C638 C 0.86163 0.2243 0.54404 0.0
C639 C 0.8443 0.21369 0.53026 0.0
C640 C 0.82088 0.21123 0.49867 0.0
C641 C 0.87376 0.23511 0.44986 0.0
C642 C 0.87477 0.24943 0.43419 0.0
C643 C 0.85661 0.22353 0.4632 0.0
C644 C 0.84014 0.22604 0.46112 0.0
C645 C 0.85849 0.25232 0.43248 0.0
C646 C 0.84112 0.24048 0.44569 0.0
C647 C 0.82151 0.21238 0.47375 0.0
H648 H 0.76844 0.11731 0.45114 0.0
H649 H 0.78465 0.14561 0.47779 0.0
H650 H 0.75213 0.14979 0.40382 0.0
H651 H 0.76851 0.1785 0.4309 0.0
H652 H 0.72184 0.13806 0.51621 0.0
H653 H 0.74791 0.16423 0.49126 0.0
H654 H 0.76778 0.13494 0.55595 0.0
H655 H 0.79358 0.16104 0.53142 0.0
H656 H 0.87668 0.27099 0.52509 0.0
H657 H 0.84605 0.25214 0.50041 0.0
H658 H 0.86581 0.21629 0.55605 0.0
H659 H 0.83561 0.19767 0.53178 0.0
H660 H 0.88617 0.23268 0.45152 0.0
H661 H 0.856 0.21225 0.47475 0.0
H662 H 0.85896 0.26322 0.42039 0.0
H663 H 0.82843 0.24243 0.44372 0.0
N664 N 0.80606 0.1976 0.46103 0.0
N665 N 0.80441 0.19591 0.50888 0.0
C666 C 0.00747 0.55826 0.17236 0.0
C667 C 0.02322 0.56505 0.15611 0.0
C668 C 0.00374 0.54319 0.18844 0.0
C669 C 0.01576 0.53474 0.18855 0.0
C670 C 0.03492 0.55626 0.15606 0.0
C671 C 0.03117 0.54124 0.17201 0.0
C672 C 0.01198 0.51846 0.20486 0.0
C673 C 0.03086 0.57224 0.24895 0.0
C674 C 0.01495 0.57043 0.26238 0.0
C675 C 0.02946 0.55554 0.23862 0.0
C676 C 0.01211 0.53674 0.24153 0.0
C677 C 0.99781 0.55151 0.26574 0.0
C678 C 0.99649 0.53478 0.25555 0.0
C679 C 0.01006 0.5192 0.22958 0.0
C680 C 0.01711 0.45039 0.26175 0.0
C681 C 0.0016 0.44102 0.27829 0.0
C682 C 0.0187 0.46558 0.24743 0.0
C683 C 0.00483 0.47175 0.24936 0.0
C684 C 0.98808 0.44762 0.28069 0.0
C685 C 0.98982 0.463 0.26651 0.0
C686 C 0.00599 0.4872 0.23338 0.0
C687 C 0.98298 0.43353 0.1859 0.0
C688 C 0.9948 0.43616 0.16604 0.0
C689 C 0.98751 0.44958 0.20053 0.0
C690 C 0.00412 0.46852 0.19577 0.0
C691 C 0.01183 0.45498 0.16186 0.0
C692 C 0.01639 0.47098 0.17652 0.0
C693 C 0.00727 0.48624 0.20857 0.0
H694 H 0.99819 0.56473 0.17279 0.0
H695 H 0.99139 0.53805 0.20061 0.0
H696 H 0.04691 0.56087 0.14346 0.0
H697 H 0.04045 0.53476 0.17153 0.0
H698 H 0.04422 0.58663 0.246 0.0
H699 H 0.04182 0.55733 0.22813 0.0
H700 H 0.98545 0.54964 0.27628 0.0
H701 H 0.98305 0.52037 0.25813 0.0
H702 H 0.02766 0.44555 0.25936 0.0
H703 H 0.03066 0.47239 0.23462 0.0
H704 H 0.97608 0.44078 0.29344 0.0
H705 H 0.97909 0.46767 0.26845 0.0
H706 H 0.96983 0.4192 0.18971 0.0
H707 H 0.97745 0.44733 0.21484 0.0
H708 H 0.02109 0.45764 0.14654 0.0
H709 H 0.02916 0.48548 0.17233 0.0
N710 N 0.01046 0.502 0.19539 0.0
N711 N 0.00715 0.50355 0.24297 0.0
C712 C 0.47033 0.42353 0.16676 0.0
C713 C 0.46551 0.4334 0.14966 0.0
C714 C 0.48753 0.43424 0.18116 0.0
C715 C 0.50008 0.4549 0.17846 0.0
C716 C 0.47862 0.45381 0.14628 0.0
C717 C 0.49574 0.4644 0.16041 0.0
C718 C 0.5171 0.46731 0.19483 0.0
C719 C 0.46239 0.44584 0.23996 0.0
C720 C 0.46121 0.43392 0.25911 0.0
C721 C 0.47968 0.45553 0.2264 0.0
C722 C 0.49606 0.45334 0.23158 0.0
C723 C 0.47731 0.43116 0.26386 0.0
C724 C 0.49476 0.44104 0.25033 0.0
C725 C 0.51532 0.46626 0.2197 0.0
C726 C 0.56684 0.54699 0.24973 0.0
C727 C 0.57408 0.54518 0.27183 0.0
C728 C 0.55938 0.5316 0.23333 0.0
C729 C 0.55903 0.51406 0.23868 0.0
C730 C 0.5746 0.52806 0.27693 0.0
C731 C 0.56686 0.51245 0.26054 0.0
C732 C 0.54709 0.49646 0.22343 0.0
C733 C 0.60093 0.53754 0.17865 0.0
C734 C 0.59589 0.54569 0.15957 0.0
C735 C 0.5858 0.52205 0.19195 0.0
C736 C 0.5655 0.51435 0.18604 0.0
C737 C 0.57556 0.53825 0.1542 0.0
C738 C 0.56054 0.52266 0.16717 0.0
C739 C 0.54912 0.49721 0.19863 0.0
H740 H 0.46045 0.40775 0.16957 0.0
H741 H 0.49075 0.4265 0.19469 0.0
H742 H 0.47536 0.4617 0.13299 0.0
H743 H 0.50514 0.48028 0.15785 0.0
H744 H 0.45012 0.44812 0.23591 0.0
H745 H 0.48056 0.46541 0.21248 0.0
H746 H 0.47674 0.42213 0.27866 0.0
H747 H 0.50743 0.43952 0.25486 0.0
H748 H 0.56626 0.56007 0.2455 0.0
H749 H 0.55275 0.53298 0.21705 0.0
H750 H 0.58001 0.52636 0.29399 0.0
H751 H 0.5663 0.49887 0.26523 0.0
H752 H 0.61652 0.54299 0.18306 0.0
H753 H 0.58994 0.51574 0.20636 0.0
H754 H 0.57123 0.54401 0.13936 0.0
H755 H 0.54497 0.517 0.16235 0.0
N756 N 0.53404 0.48266 0.18538 0.0
N757 N 0.5304 0.48084 0.23299 0.0
C758 C 0.46047 0.02448 0.25482 0.0
C759 C 0.45364 0.0093 0.27178 0.0
C760 C 0.47833 0.03066 0.24268 0.0
C761 C 0.48942 0.02151 0.24706 0.0
C762 C 0.46568 0.00142 0.27747 0.0
C763 C 0.48334 0.00744 0.26525 0.0
C764 C 0.50687 0.02564 0.23248 0.0
C765 C 0.45481 0.99875 0.18058 0.0
C766 C 0.45689 0.01028 0.16056 0.0
C767 C 0.47084 0.00462 0.19639 0.0
C768 C 0.4892 0.02242 0.19291 0.0
C769 C 0.47506 0.02839 0.15742 0.0
C770 C 0.49112 0.03432 0.17338 0.0
C771 C 0.50708 0.02708 0.20753 0.0
C772 C 0.56763 0.01176 0.17311 0.0
C773 C 0.57782 0.02708 0.15652 0.0
C774 C 0.55606 0.01329 0.19072 0.0
C775 C 0.55447 0.03015 0.192 0.0
C776 C 0.57712 0.04444 0.1589 0.0
C777 C 0.56532 0.04581 0.17623 0.0
C778 C 0.53928 0.03023 0.20714 0.0
C779 C 0.58877 0.03626 0.25522 0.0
C780 C 0.5823 0.02325 0.27457 0.0
C781 C 0.57489 0.03826 0.24142 0.0
C782 C 0.55421 0.02673 0.24625 0.0
C783 C 0.5618 0.01221 0.27987 0.0
C784 C 0.54791 0.01385 0.26579 0.0
C785 C 0.53885 0.0282 0.23201 0.0
H786 H 0.45156 0.0309 0.25011 0.0
H787 H 0.48306 0.04206 0.22933 0.0
H788 H 0.46107 0.99004 0.29085 0.0
H789 H 0.49176 0.00037 0.26932 0.0
H790 H 0.44096 0.98481 0.18364 0.0
H791 H 0.46909 0.99477 0.21078 0.0
H792 H 0.47722 0.03748 0.14205 0.0
H793 H 0.50526 0.04793 0.17008 0.0
H794 H 0.56764 0.99811 0.17172 0.0
H795 H 0.54749 0.00089 0.2025 0.0
H796 H 0.58515 0.05674 0.14684 0.0
H797 H 0.5642 0.05889 0.1769 0.0
H798 H 0.60459 0.04511 0.25105 0.0
H799 H 0.58045 0.04903 0.22727 0.0
H800 H 0.55648 0.00204 0.29468 0.0
H801 H 0.53213 0.00484 0.27014 0.0
N802 N 0.52271 0.02616 0.24357 0.0
N803 N 0.52343 0.02963 0.19597 0.0
C804 C 0.53643 0.98329 0.7895 0.0
C805 C 0.53539 0.97604 0.76658 0.0
C806 C 0.51906 0.97994 0.80063 0.0
C807 C 0.50021 0.96868 0.78937 0.0
C808 C 0.51665 0.96541 0.75495 0.0
C809 C 0.49919 0.96173 0.76629 0.0
C810 C 0.48164 0.96468 0.80123 0.0
C811 C 0.51203 0.93999 0.84362 0.0
C812 C 0.51719 0.94786 0.8666 0.0
C813 C 0.49766 0.9416 0.83033 0.0
C814 C 0.48904 0.95199 0.83944 0.0
C815 C 0.50705 0.9564 0.87651 0.0
C816 C 0.49316 0.9585 0.86304 0.0
C817 C 0.4766 0.9572 0.82456 0.0
C818 C 0.40931 0.94876 0.8697 0.0
C819 C 0.40758 0.96562 0.86996 0.0
C820 C 0.42184 0.9472 0.85361 0.0
C821 C 0.43306 0.96245 0.83741 0.0
C822 C 0.4183 0.9806 0.85315 0.0
C823 C 0.43111 0.97916 0.83729 0.0
C824 C 0.44868 0.96188 0.82332 0.0
C825 C 0.43881 0.99839 0.76118 0.0
C826 C 0.4179 0.98566 0.75887 0.0
C827 C 0.45023 0.99247 0.77402 0.0
C828 C 0.44087 0.97394 0.78526 0.0
C829 C 0.40863 0.96687 0.76954 0.0
C830 C 0.42001 0.96109 0.78273 0.0
C831 C 0.45306 0.96823 0.79958 0.0
H832 H 0.55077 0.99194 0.79861 0.0
H833 H 0.52035 0.98611 0.81808 0.0
H834 H 0.5155 0.95981 0.73719 0.0
H835 H 0.48486 0.95329 0.75712 0.0
H836 H 0.51959 0.93323 0.8357 0.0
H837 H 0.49407 0.93558 0.81257 0.0
H838 H 0.51086 0.96269 0.89415 0.0
H839 H 0.48652 0.96627 0.8707 0.0
H840 H 0.40172 0.93709 0.88265 0.0
H841 H 0.42329 0.9343 0.85439 0.0
H842 H 0.41727 0.99373 0.85264 0.0
H843 H 0.44012 0.99157 0.82572 0.0
H844 H 0.44632 0.01289 0.75298 0.0
H845 H 0.46632 0.00257 0.77567 0.0
H846 H 0.39251 0.95683 0.76808 0.0
H847 H 0.41253 0.94662 0.79102 0.0
N848 N 0.46948 0.96958 0.78955 0.0
N849 N 0.46049 0.95639 0.83468 0.0
C850 C 0.9803 0.55369 0.77421 0.0
C851 C 0.99364 0.56395 0.7557 0.0
C852 C 0.98238 0.54012 0.78793 0.0
C853 C 0.99789 0.53653 0.78351 0.0
C854 C 0.00897 0.56009 0.75102 0.0
C855 C 0.01094 0.54635 0.76467 0.0
C856 C 0.0002 0.52233 0.79835 0.0
C857 C 0.01923 0.57505 0.84649 0.0
C858 C 0.00707 0.57086 0.86644 0.0
C859 C 0.0168 0.55971 0.83185 0.0
C860 C 0.00214 0.53992 0.83689 0.0
C861 C 0.99208 0.55109 0.87104 0.0
C862 C 0.98974 0.53578 0.85651 0.0
C863 C 0.00085 0.52332 0.8233 0.0
C864 C 0.01418 0.45776 0.8537 0.0
C865 C 0.00057 0.45017 0.87253 0.0
C866 C 0.01416 0.47153 0.83798 0.0
C867 C 0.00049 0.47788 0.84082 0.0
C868 C 0.98711 0.45677 0.87539 0.0
C869 C 0.98714 0.4705 0.8598 0.0
C870 C 0.00056 0.49301 0.82517 0.0
C871 C 0.9821 0.43953 0.78044 0.0
C872 C 0.99542 0.44274 0.76203 0.0
C873 C 0.98346 0.45551 0.79267 0.0
C874 C 0.99838 0.47506 0.78702 0.0
C875 C 0.01 0.46237 0.75599 0.0
C876 C 0.01138 0.47836 0.76829 0.0
C877 C 0.00013 0.49207 0.80018 0.0
H878 H 0.96842 0.55641 0.77836 0.0
H879 H 0.97186 0.53242 0.80206 0.0
H880 H 0.01934 0.56761 0.73671 0.0
H881 H 0.02287 0.54364 0.7608 0.0
H882 H 0.03089 0.59014 0.84248 0.0
H883 H 0.02684 0.56327 0.81711 0.0
H884 H 0.98268 0.54733 0.88646 0.0
H885 H 0.97846 0.52062 0.86087 0.0
H886 H 0.02474 0.45298 0.85105 0.0
H887 H 0.02496 0.47738 0.82381 0.0
H888 H 0.97671 0.45155 0.88998 0.0
H889 H 0.97664 0.47536 0.86256 0.0
H890 H 0.97077 0.42464 0.78569 0.0
H891 H 0.97285 0.45256 0.8066 0.0
H892 H 0.02028 0.46539 0.74165 0.0
H893 H 0.0228 0.49333 0.76338 0.0
N894 N 5e-05 0.50684 0.7877 0.0
N895 N 0.00086 0.50857 0.83566 0.0
C896 C 0.55167 0.58223 0.78305 0.0
C897 C 0.55922 0.57429 0.76696 0.0
C898 C 0.53297 0.56995 0.79356 0.0
C899 C 0.5217 0.54958 0.78818 0.0
C900 C 0.54721 0.55428 0.76035 0.0
C901 C 0.52863 0.54208 0.77078 0.0
C902 C 0.50335 0.53552 0.80132 0.0
C903 C 0.55378 0.55781 0.85473 0.0
C904 C 0.5519 0.56702 0.8749 0.0
C905 C 0.53787 0.54799 0.83863 0.0
C906 C 0.51984 0.5476 0.84189 0.0
C907 C 0.53396 0.56688 0.87802 0.0
C908 C 0.51802 0.55713 0.86173 0.0
C909 C 0.50223 0.53522 0.82625 0.0
C910 C 0.43311 0.45558 0.85063 0.0
C911 C 0.42326 0.46062 0.86731 0.0
C912 C 0.44801 0.47016 0.83622 0.0
C913 C 0.45297 0.48995 0.83784 0.0
C914 C 0.42856 0.48055 0.86902 0.0
C915 C 0.44324 0.49501 0.85447 0.0
C916 C 0.46956 0.50587 0.82406 0.0
C917 C 0.42343 0.46077 0.77374 0.0
C918 C 0.43174 0.45425 0.7567 0.0
C919 C 0.43577 0.47814 0.78677 0.0
C920 C 0.45672 0.48888 0.7836 0.0
C921 C 0.45236 0.46624 0.75192 0.0
C922 C 0.46467 0.48314 0.76533 0.0
C923 C 0.47098 0.50569 0.79912 0.0
H924 H 0.56063 0.59764 0.78835 0.0
H925 H 0.52768 0.57619 0.8065 0.0
H926 H 0.55253 0.54788 0.74765 0.0
H927 H 0.52016 0.5265 0.76609 0.0
H928 H 0.56743 0.55777 0.85164 0.0
H929 H 0.53948 0.54016 0.82401 0.0
H930 H 0.53192 0.5736 0.89353 0.0
H931 H 0.50411 0.55668 0.86487 0.0
H932 H 0.42942 0.44041 0.84878 0.0
H933 H 0.45579 0.46602 0.82401 0.0
H934 H 0.42179 0.48516 0.88209 0.0
H935 H 0.44718 0.51026 0.85641 0.0
H936 H 0.40758 0.45209 0.77773 0.0
H937 H 0.42897 0.48275 0.7998 0.0
H938 H 0.4592 0.46224 0.73824 0.0
H939 H 0.48066 0.49132 0.7619 0.0
N940 N 0.48778 0.52068 0.7889 0.0
N941 N 0.4852 0.52066 0.83653 0.0
C942 C 0.66271 0.77858 0.51389 0.0
C943 C 0.64542 0.76927 0.49929 0.0
C944 C 0.66692 0.79491 0.52789 0.0
C945 C 0.65374 0.80203 0.52784 0.0
C946 C 0.63234 0.77652 0.49932 0.0
C947 C 0.63648 0.7927 0.51338 0.0
C948 C 0.65834 0.82005 0.54113 0.0
C949 C 0.65432 0.7754 0.59376 0.0
C950 C 0.67228 0.78218 0.60672 0.0
C951 C 0.65111 0.78867 0.58082 0.0
C952 C 0.66597 0.80892 0.58026 0.0
C953 C 0.68672 0.80259 0.60696 0.0
C954 C 0.68355 0.81581 0.59392 0.0
C955 C 0.66359 0.82313 0.56549 0.0
C956 C 0.6558 0.89404 0.58373 0.0
C957 C 0.67133 0.90463 0.60036 0.0
C958 C 0.65389 0.87762 0.57212 0.0
C959 C 0.66765 0.87156 0.57655 0.0
C960 C 0.68466 0.89812 0.60553 0.0
C961 C 0.6828 0.88168 0.59374 0.0
C962 C 0.66581 0.8544 0.56357 0.0
C963 C 0.68645 0.9011 0.50748 0.0
C964 C 0.671 0.89892 0.49218 0.0
C965 C 0.68324 0.886 0.52304 0.0
C966 C 0.66463 0.86815 0.52345 0.0
C967 C 0.65222 0.88101 0.49292 0.0
C968 C 0.64918 0.86566 0.50816 0.0
C969 C 0.66195 0.85187 0.539 0.0
H970 H 0.67308 0.77337 0.51438 0.0
H971 H 0.68064 0.80218 0.53838 0.0
H972 H 0.61915 0.77008 0.48793 0.0
H973 H 0.62626 0.7981 0.51276 0.0
H974 H 0.64273 0.75982 0.5936 0.0
H975 H 0.63714 0.78306 0.57105 0.0
H976 H 0.70076 0.80828 0.61662 0.0
H977 H 0.69515 0.8314 0.59394 0.0
H978 H 0.64498 0.89836 0.57981 0.0
H979 H 0.64154 0.86961 0.5597 0.0
H980 H 0.69676 0.90598 0.61829 0.0
H981 H 0.69343 0.87712 0.5977 0.0
H982 H 0.70133 0.91427 0.50709 0.0
H983 H 0.69551 0.88806 0.53435 0.0
H984 H 0.63982 0.87876 0.48176 0.0
H985 H 0.63472 0.85193 0.50818 0.0
N986 N 0.65797 0.83467 0.52882 0.0
N987 N 0.66693 0.84014 0.57582 0.0
C988 C 0.13995 0.74416 0.502 0.0
C989 C 0.13592 0.74963 0.47989 0.0
C990 C 0.15538 0.75836 0.51657 0.0
C991 C 0.16639 0.77839 0.50967 0.0
C992 C 0.1483 0.76919 0.47203 0.0
C993 C 0.16333 0.78343 0.48678 0.0
C994 C 0.17999 0.79454 0.52631 0.0
C995 C 0.11946 0.76507 0.5617 0.0
C996 C 0.11887 0.75661 0.58384 0.0
C997 C 0.13772 0.77713 0.55042 0.0
C998 C 0.15576 0.78071 0.56084 0.0
C999 C 0.1369 0.7599 0.59406 0.0
C1000 C 0.15522 0.77201 0.58273 0.0
C1001 C 0.17522 0.79525 0.55019 0.0
C1002 C 0.21447 0.86648 0.60025 0.0
C1003 C 0.23535 0.87963 0.59883 0.0
C1004 C 0.2047 0.84975 0.58582 0.0
C1005 C 0.21551 0.84552 0.56969 0.0
C1006 C 0.24633 0.87506 0.58329 0.0
C1007 C 0.23654 0.85805 0.56905 0.0
C1008 C 0.20433 0.8278 0.55417 0.0
C1009 C 0.24848 0.85806 0.48551 0.0
C1010 C 0.24658 0.87475 0.48327 0.0
C1011 C 0.23703 0.84323 0.5019 0.0
C1012 C 0.22373 0.84493 0.5167 0.0
C1013 C 0.23402 0.87693 0.49898 0.0
C1014 C 0.22262 0.86209 0.51549 0.0
C1015 C 0.20869 0.8274 0.53006 0.0
H1016 H 0.1307 0.7291 0.50832 0.0
H1017 H 0.158 0.75381 0.53365 0.0
H1018 H 0.14544 0.77382 0.45512 0.0
H1019 H 0.17172 0.79866 0.48077 0.0
H1020 H 0.10581 0.76268 0.5533 0.0
H1021 H 0.1378 0.7841 0.53385 0.0
H1022 H 0.13693 0.75378 0.61123 0.0
H1023 H 0.16902 0.77488 0.59124 0.0
H1024 H 0.20555 0.86913 0.61249 0.0
H1025 H 0.18853 0.84026 0.58705 0.0
H1026 H 0.26244 0.88481 0.58174 0.0
H1027 H 0.24544 0.85482 0.55753 0.0
H1028 H 0.25827 0.8561 0.47395 0.0
H1029 H 0.23798 0.83005 0.50239 0.0
H1030 H 0.23205 0.88947 0.49757 0.0
H1031 H 0.21207 0.8635 0.52631 0.0
N1032 N 0.19652 0.81071 0.51729 0.0
N1033 N 0.18773 0.81166 0.56316 0.0
C1034 C 0.25652 0.37361 0.51382 0.0
C1035 C 0.25108 0.36064 0.49442 0.0
C1036 C 0.24179 0.37259 0.52866 0.0
C1037 C 0.22139 0.35852 0.52438 0.0
C1038 C 0.2307 0.34616 0.49074 0.0
C1039 C 0.21603 0.34519 0.50549 0.0
C1040 C 0.20535 0.35866 0.53789 0.0
C1041 C 0.23581 0.3392 0.58909 0.0
C1042 C 0.24733 0.35351 0.6064 0.0
C1043 C 0.22208 0.34108 0.57495 0.0
C1044 C 0.21958 0.35729 0.57786 0.0
C1045 C 0.24456 0.36956 0.60957 0.0
C1046 C 0.23061 0.37131 0.59558 0.0
C1047 C 0.20504 0.35921 0.5628 0.0
C1048 C 0.12103 0.33244 0.58359 0.0
C1049 C 0.1229 0.34467 0.60261 0.0
C1050 C 0.13746 0.33733 0.56945 0.0
C1051 C 0.15611 0.35462 0.57394 0.0
C1052 C 0.14138 0.36228 0.60676 0.0
C1053 C 0.15797 0.3671 0.59267 0.0
C1054 C 0.17397 0.35833 0.56077 0.0
C1055 C 0.13393 0.36503 0.50753 0.0
C1056 C 0.12716 0.35119 0.48891 0.0
C1057 C 0.14917 0.36724 0.52304 0.0
C1058 C 0.15787 0.35565 0.52014 0.0
C1059 C 0.13617 0.33993 0.48589 0.0
C1060 C 0.15134 0.34217 0.50125 0.0
C1061 C 0.17429 0.35774 0.5358 0.0
H1062 H 0.2721 0.3849 0.51713 0.0
H1063 H 0.24628 0.38328 0.54285 0.0
H1064 H 0.22596 0.33616 0.47576 0.0
H1065 H 0.20038 0.33428 0.50178 0.0
H1066 H 0.23772 0.32676 0.58613 0.0
H1067 H 0.21341 0.32986 0.56169 0.0
H1068 H 0.25314 0.38073 0.6229 0.0
H1069 H 0.22871 0.38378 0.59828 0.0
H1070 H 0.1069 0.31882 0.57998 0.0
H1071 H 0.13577 0.32719 0.55552 0.0
H1072 H 0.14319 0.37185 0.62144 0.0
H1073 H 0.17232 0.38036 0.59661 0.0
H1074 H 0.12729 0.37395 0.51026 0.0
H1075 H 0.15426 0.37811 0.53713 0.0
H1076 H 0.13161 0.32943 0.47145 0.0
H1077 H 0.1579 0.33318 0.49843 0.0
N1078 N 0.18998 0.35792 0.52544 0.0
N1079 N 0.18941 0.35913 0.57332 0.0
H1080 H 0.95518 0.37236 0.08492 0.0
H1081 H 0.01693 0.38898 0.0758 0.0
H1082 H 0.02685 0.41028 0.1107 0.0
H1083 H 0.01834 0.42602 0.14207 0.0
H1084 H 0.95673 0.41022 0.14991 0.0
H1085 H 0.9464 0.38645 0.11764 0.0
C1086 C 0.9708 0.3805 0.09064 0.0
C1087 C 0.9853 0.37921 0.07757 0.0
C1088 C 0.97644 0.39287 0.11056 0.0
C1089 C 0.00544 0.38976 0.08542 0.0
C1090 C 0.01115 0.40198 0.10537 0.0
C1091 C 0.00265 0.41732 0.13677 0.0
C1092 C 0.98838 0.42001 0.14838 0.0
C1093 C 0.99683 0.40395 0.11779 0.0
C1094 C 0.96803 0.40834 0.14154 0.0
C1095 C 0.96211 0.39485 0.12289 0.0
H1096 H 0.65582 0.59098 0.07741 0.0
H1097 H 0.62822 0.62606 0.08134 0.0
H1098 H 0.6103 0.60815 0.11687 0.0
H1099 H 0.59946 0.57987 0.14382 0.0
H1100 H 0.62684 0.54465 0.13948 0.0
H1101 H 0.64822 0.56555 0.10741 0.0
C1102 C 0.64607 0.59487 0.08621 0.0
C1103 C 0.64307 0.60957 0.07653 0.0
C1104 C 0.63577 0.58447 0.10652 0.0
C1105 C 0.6307 0.61472 0.08836 0.0
C1106 C 0.62038 0.60443 0.10862 0.0
C1107 C 0.61035 0.57701 0.13606 0.0
C1108 C 0.61145 0.56065 0.14376 0.0
C1109 C 0.62234 0.58889 0.11741 0.0
C1110 C 0.62579 0.55721 0.13388 0.0
C1111 C 0.63787 0.56904 0.11541 0.0
H1112 H 0.388 0.96298 0.08519 0.0
H1113 H 0.39338 0.01984 0.07665 0.0
H1114 H 0.42033 0.03413 0.10665 0.0
H1115 H 0.44205 0.03009 0.13587 0.0
H1116 H 0.43584 0.97276 0.14329 0.0
H1117 H 0.40938 0.95905 0.11329 0.0
C1118 C 0.39502 0.97854 0.08976 0.0
C1119 C 0.38862 0.99029 0.07862 0.0
C1120 C 0.41031 0.98655 0.107 0.0
C1121 C 0.39799 0.01042 0.08491 0.0
C1122 C 0.41339 0.01859 0.10209 0.0
C1123 C 0.43493 0.01463 0.13082 0.0
C1124 C 0.44077 0.00242 0.14209 0.0
C1125 C 0.41964 0.00676 0.11333 0.0
C1126 C 0.43136 0.9824 0.13536 0.0
C1127 C 0.41631 0.97455 0.11805 0.0
H1128 H 0.37586 0.98816 0.95942 0.0
H1129 H 0.33439 0.9249 0.95915 0.0
H1130 H 0.3474 0.92214 0.92124 0.0
H1131 H 0.37259 0.93718 0.89025 0.0
H1132 H 0.41671 0.99993 0.89295 0.0
H1133 H 0.40026 0.00348 0.92721 0.0
C1134 C 0.36944 0.97385 0.95079 0.0
C1135 C 0.35424 0.95676 0.96202 0.0
C1136 C 0.37753 0.97227 0.92942 0.0
C1137 C 0.34619 0.93826 0.95085 0.0
C1138 C 0.35364 0.93666 0.92921 0.0
C1139 C 0.37869 0.95165 0.89831 0.0
C1140 C 0.39603 0.96818 0.88899 0.0
C1141 C 0.3697 0.95349 0.91869 0.0
C1142 C 0.40328 0.9869 0.89941 0.0
C1143 C 0.39399 0.98895 0.91924 0.0
H1144 H 0.01235 0.40065 0.95257 0.0
H1145 H 0.94749 0.36851 0.94862 0.0
H1146 H 0.94878 0.38899 0.91571 0.0
H1147 H 0.96796 0.41716 0.88956 0.0
H1148 H 0.03269 0.45055 0.89364 0.0
H1149 H 0.03183 0.42824 0.92451 0.0
C1150 C 0.99853 0.39803 0.94434 0.0
C1151 C 0.97986 0.38316 0.95328 0.0
C1152 C 0.99933 0.4101 0.92541 0.0
C1153 C 0.96209 0.37996 0.94235 0.0
C1154 C 0.96277 0.39166 0.92346 0.0
C1155 C 0.9819 0.41958 0.89721 0.0
C1156 C 0.00033 0.43562 0.88951 0.0
C1157 C 0.98126 0.40698 0.91515 0.0
C1158 C 0.01828 0.43826 0.8992 0.0
C1159 C 0.01779 0.42559 0.91697 0.0
H1160 H 0.62096 0.58926 0.94996 0.0
H1161 H 0.61475 0.63985 0.96036 0.0
H1162 H 0.58829 0.62725 0.92985 0.0
H1163 H 0.56679 0.60157 0.9002 0.0
H1164 H 0.57315 0.55089 0.89137 0.0
H1165 H 0.59979 0.56397 0.92115 0.0
C1166 C 0.61391 0.59764 0.94559 0.0
C1167 C 0.6199 0.6155 0.95748 0.0
C1168 C 0.59872 0.59029 0.92821 0.0
C1169 C 0.61047 0.62605 0.95151 0.0
C1170 C 0.59532 0.61884 0.93407 0.0
C1171 C 0.57395 0.59337 0.9049 0.0
C1172 C 0.56808 0.57536 0.89331 0.0
C1173 C 0.58927 0.60092 0.92234 0.0
C1174 C 0.57762 0.56498 0.89956 0.0
C1175 C 0.59278 0.57237 0.91675 0.0
H1176 H 0.00882 0.62528 0.94871 0.0
H1177 H 0.07236 0.64736 0.94501 0.0
H1178 H 0.06656 0.6267 0.91039 0.0
H1179 H 0.04319 0.59998 0.88368 0.0
H1180 H 0.97957 0.57701 0.88802 0.0
H1181 H 0.98567 0.60038 0.91987 0.0
C1182 C 0.02145 0.62582 0.94013 0.0
C1183 C 0.04098 0.63777 0.9496 0.0
C1184 C 0.01798 0.61357 0.92047 0.0
C1185 C 0.05715 0.63821 0.93824 0.0
C1186 C 0.05385 0.62636 0.91844 0.0
C1187 C 0.0307 0.60038 0.89123 0.0
C1188 C 0.01095 0.58671 0.88356 0.0
C1189 C 0.03429 0.61364 0.90976 0.0
C1190 C 0.9949 0.58723 0.8938 0.0
C1191 C 0.99838 0.6006 0.91198 0.0
H1192 H 0.36045 0.41331 0.94683 0.0
H1193 H 0.39387 0.38391 0.95177 0.0
H1194 H 0.41342 0.40217 0.91702 0.0
H1195 H 0.42367 0.4296 0.88869 0.0
H1196 H 0.38876 0.45759 0.88301 0.0
H1197 H 0.36716 0.43678 0.91474 0.0
C1198 C 0.37179 0.41066 0.94001 0.0
C1199 C 0.37595 0.39754 0.9519 0.0
C1200 C 0.38288 0.42116 0.92018 0.0
C1201 C 0.39043 0.39396 0.94282 0.0
C1202 C 0.40169 0.40451 0.92309 0.0
C1203 C 0.41105 0.43084 0.89394 0.0
C1204 C 0.40824 0.44558 0.88382 0.0
C1205 C 0.39845 0.41861 0.91208 0.0
C1206 C 0.39175 0.44688 0.89097 0.0
C1207 C 0.37927 0.43489 0.90903 0.0
H1208 H 0.60208 0.98424 0.91271 0.0
H1209 H 0.56678 0.95329 0.97357 0.0
H1210 H 0.53633 0.93652 0.94875 0.0
H1211 H 0.51936 0.93556 0.91101 0.0
H1212 H 0.5551 0.96607 0.85016 0.0
H1213 H 0.58588 0.97782 0.87348 0.0
C1214 C 0.58779 0.9733 0.92032 0.0
C1215 C 0.58649 0.97002 0.94482 0.0
C1216 C 0.57046 0.96386 0.90598 0.0
C1217 C 0.56804 0.95588 0.95466 0.0
C1218 C 0.55064 0.94648 0.94052 0.0
C1219 C 0.53393 0.94428 0.90279 0.0
C1220 C 0.53506 0.95013 0.87905 0.0
C1221 C 0.55157 0.95105 0.91635 0.0
C1222 C 0.55393 0.96135 0.86841 0.0
C1223 C 0.57152 0.96821 0.88178 0.0
H1224 H 0.61917 0.00573 0.07567 0.0
H1225 H 0.59771 0.03721 0.03419 0.0
H1226 H 0.58417 0.04319 0.06942 0.0
H1227 H 0.57739 0.03877 0.11147 0.0
H1228 H 0.5996 0.00866 0.15417 0.0
H1229 H 0.61357 0.00263 0.11894 0.0
C1230 C 0.61155 0.01391 0.07438 0.0
C1231 C 0.60945 0.02095 0.05224 0.0
C1232 C 0.60384 0.0175 0.09488 0.0
C1233 C 0.59962 0.03163 0.05093 0.0
C1234 C 0.59182 0.03506 0.07109 0.0
C1235 C 0.58565 0.03126 0.1133 0.0
C1236 C 0.58751 0.02432 0.13556 0.0
C1237 C 0.59379 0.02804 0.09311 0.0
C1238 C 0.59777 0.01406 0.13726 0.0
C1239 C 0.60584 0.01067 0.11712 0.0
H1240 H 0.05792 0.6348 0.08252 0.0
H1241 H 0.99498 0.60914 0.06582 0.0
H1242 H 0.98617 0.58505 0.09789 0.0
H1243 H 0.99674 0.57002 0.12908 0.0
H1244 H 0.05993 0.59655 0.14519 0.0
H1245 H 0.06824 0.62155 0.11484 0.0
C1246 C 0.04223 0.62398 0.08586 0.0
C1247 C 0.02714 0.62362 0.07159 0.0
C1248 C 0.03734 0.61027 0.10417 0.0
C1249 C 0.0069 0.6097 0.07649 0.0
C1250 C 0.00187 0.5959 0.09479 0.0
C1251 C 0.01229 0.58146 0.12615 0.0
C1252 C 0.02772 0.58124 0.13916 0.0
C1253 C 0.01701 0.59586 0.10854 0.0
C1254 C 0.0478 0.59613 0.1351 0.0
C1255 C 0.05257 0.61048 0.11782 0.0
H1256 H 0.3886 0.40904 0.0884 0.0
H1257 H 0.4013 0.36589 0.06124 0.0
H1258 H 0.42847 0.37644 0.09063 0.0
H1259 H 0.45074 0.40044 0.12161 0.0
H1260 H 0.43763 0.44372 0.14728 0.0
H1261 H 0.40839 0.43052 0.12101 0.0
C1262 C 0.3972 0.4018 0.08896 0.0
C1263 C 0.39314 0.38692 0.07244 0.0
C1264 C 0.41279 0.40805 0.10561 0.0
C1265 C 0.40419 0.37746 0.07372 0.0
C1266 C 0.41977 0.38354 0.09045 0.0
C1267 C 0.44122 0.40667 0.12166 0.0
C1268 C 0.44638 0.42314 0.13609 0.0
C1269 C 0.42452 0.39917 0.10615 0.0
C1270 C 0.43403 0.43118 0.13606 0.0
C1271 C 0.41734 0.42366 0.12107 0.0
H1272 H 0.61333 0.69941 0.4253 0.0
H1273 H 0.67678 0.72805 0.41134 0.0
H1274 H 0.68424 0.7512 0.44379 0.0
H1275 H 0.67254 0.76526 0.47361 0.0
H1276 H 0.60915 0.73605 0.48831 0.0
H1277 H 0.60193 0.71131 0.45798 0.0
C1278 C 0.62881 0.71058 0.4295 0.0
C1279 C 0.64444 0.7121 0.4157 0.0
C1280 C 0.63302 0.72392 0.44816 0.0
C1281 C 0.66443 0.72654 0.42159 0.0
C1282 C 0.66872 0.73987 0.44011 0.0
C1283 C 0.65718 0.75326 0.4706 0.0
C1284 C 0.6414 0.75277 0.48305 0.0
C1285 C 0.65311 0.73896 0.45318 0.0
C1286 C 0.62157 0.73712 0.47864 0.0
C1287 C 0.61742 0.72288 0.46136 0.0
H1288 H 0.28689 0.94278 0.40625 0.0
H1289 H 0.2696 0.89179 0.36201 0.0
H1290 H 0.25584 0.87005 0.39598 0.0
H1291 H 0.24825 0.86516 0.43791 0.0
H1292 H 0.26546 0.91546 0.48311 0.0
H1293 H 0.27951 0.93775 0.44909 0.0
C1294 C 0.28008 0.92692 0.40406 0.0
C1295 C 0.27933 0.91901 0.38152 0.0
C1296 C 0.27217 0.91433 0.42383 0.0
C1297 C 0.27047 0.89838 0.37907 0.0
C1298 C 0.26256 0.88587 0.39852 0.0
C1299 C 0.25538 0.88103 0.44047 0.0
C1300 C 0.25599 0.88863 0.46309 0.0
C1301 C 0.26337 0.89366 0.42094 0.0
C1302 C 0.26476 0.90921 0.46587 0.0
C1303 C 0.27282 0.92195 0.44643 0.0
H1304 H 0.06802 0.351 0.41074 0.0
H1305 H 0.04323 0.28796 0.41749 0.0
H1306 H 0.06688 0.29369 0.44924 0.0
H1307 H 0.09561 0.31627 0.4738 0.0
H1308 H 0.12184 0.37939 0.4672 0.0
H1309 H 0.09643 0.37396 0.4372 0.0
C1310 C 0.06773 0.33855 0.4193 0.0
C1311 C 0.05395 0.31909 0.41147 0.0
C1312 C 0.08163 0.34193 0.43763 0.0
C1313 C 0.05377 0.30312 0.42285 0.0
C1314 C 0.06728 0.30634 0.44111 0.0
C1315 C 0.0958 0.32887 0.46578 0.0
C1316 C 0.11073 0.34819 0.47249 0.0
C1317 C 0.08146 0.32565 0.44837 0.0
C1318 C 0.11047 0.36434 0.46237 0.0
C1319 C 0.09602 0.36124 0.4451 0.0
H1320 H 0.0233 0.28116 0.27923 0.0
H1321 H 0.05344 0.34434 0.29033 0.0
H1322 H 0.07246 0.35009 0.25404 0.0
H1323 H 0.083 0.33694 0.22151 0.0
H1324 H 0.05297 0.27366 0.21122 0.0
H1325 H 0.03115 0.26821 0.24453 0.0
C1326 C 0.03387 0.29621 0.27358 0.0
C1327 C 0.03719 0.31229 0.28765 0.0
C1328 C 0.0448 0.29939 0.25284 0.0
C1329 C 0.05067 0.3317 0.27988 0.0
C1330 C 0.06162 0.33499 0.25918 0.0
C1331 C 0.07152 0.32198 0.22643 0.0
C1332 C 0.06973 0.30573 0.21401 0.0
C1333 C 0.0592 0.31892 0.24589 0.0
C1334 C 0.05458 0.28643 0.22033 0.0
C1335 C 0.04221 0.28329 0.23953 0.0
H1336 H 0.67726 0.73116 0.29098 0.0
H1337 H 0.61255 0.70217 0.28734 0.0
H1338 H 0.61496 0.72171 0.25292 0.0
H1339 H 0.63512 0.74825 0.22523 0.0
H1340 H 0.69978 0.77871 0.22891 0.0
H1341 H 0.6977 0.75706 0.2614 0.0
C1342 C 0.66371 0.72904 0.28254 0.0
C1343 C 0.64478 0.71534 0.29199 0.0
C1344 C 0.66516 0.74055 0.26267 0.0
C1345 C 0.62736 0.71275 0.28073 0.0
C1346 C 0.62868 0.72389 0.26094 0.0
C1347 C 0.64878 0.75016 0.23312 0.0
C1348 C 0.66756 0.76521 0.22488 0.0
C1349 C 0.64747 0.73804 0.25203 0.0
C1350 C 0.68512 0.76717 0.23489 0.0
C1351 C 0.68393 0.75491 0.2536 0.0
H1352 H 0.24853 0.96021 0.29731 0.0
H1353 H 0.283 0.95444 0.24243 0.0
H1354 H 0.2573 0.9488 0.21306 0.0
H1355 H 0.22277 0.93996 0.20438 0.0
H1356 H 0.18638 0.94145 0.25995 0.0
H1357 H 0.21502 0.95468 0.28757 0.0
C1358 C 0.25058 0.95823 0.2788 0.0
C1359 C 0.2675 0.95763 0.27196 0.0
C1360 C 0.23527 0.95408 0.2622 0.0
C1361 C 0.26997 0.95481 0.24804 0.0
C1362 C 0.25528 0.95156 0.23127 0.0
C1363 C 0.22139 0.94388 0.22232 0.0
C1364 C 0.20268 0.93995 0.23018 0.0
C1365 C 0.23754 0.95038 0.23831 0.0
C1366 C 0.20078 0.94456 0.25358 0.0
C1367 C 0.21708 0.95193 0.26938 0.0
H1368 H 0.68395 0.96159 0.2764 0.0
H1369 H 0.74516 0.97572 0.2846 0.0
H1370 H 0.74072 0.95473 0.25065 0.0
H1371 H 0.71836 0.92974 0.22117 0.0
H1372 H 0.65663 0.9141 0.21502 0.0
H1373 H 0.66236 0.93838 0.24554 0.0
C1374 C 0.69645 0.96034 0.27058 0.0
C1375 C 0.71483 0.97015 0.28314 0.0
C1376 C 0.69362 0.94784 0.25149 0.0
C1377 C 0.73081 0.96827 0.27535 0.0
C1378 C 0.72827 0.95623 0.25596 0.0
C1379 C 0.70632 0.93198 0.22624 0.0
C1380 C 0.68711 0.92021 0.21596 0.0
C1381 C 0.7096 0.94557 0.24426 0.0
C1382 C 0.67151 0.92298 0.22284 0.0
C1383 C 0.67478 0.93682 0.24027 0.0
H1384 H 0.02906 0.72466 0.27695 0.0
H1385 H 0.03753 0.76952 0.3271 0.0
H1386 H 0.05029 0.79432 0.29598 0.0
H1387 H 0.06186 0.80405 0.25545 0.0
H1388 H 0.05367 0.75994 0.20471 0.0
H1389 H 0.03764 0.73399 0.23495 0.0
C1390 C 0.03354 0.73982 0.28101 0.0
C1391 C 0.03256 0.74521 0.30445 0.0
C1392 C 0.04089 0.75415 0.26292 0.0
C1393 C 0.03821 0.76491 0.30931 0.0
C1394 C 0.04555 0.77916 0.29152 0.0
C1395 C 0.05623 0.78868 0.25098 0.0
C1396 C 0.05896 0.78382 0.22807 0.0
C1397 C 0.04733 0.77404 0.26842 0.0
C1398 C 0.05158 0.76392 0.22228 0.0
C1399 C 0.04261 0.74916 0.2396 0.0
H1400 H 0.26346 0.31064 0.28323 0.0
H1401 H 0.29067 0.37363 0.27203 0.0
H1402 H 0.26713 0.36741 0.24001 0.0
H1403 H 0.23774 0.34458 0.21663 0.0
H1404 H 0.20895 0.2816 0.22762 0.0
H1405 H 0.2344 0.28726 0.25776 0.0
C1406 C 0.26429 0.32295 0.27364 0.0
C1407 C 0.2787 0.34257 0.2803 0.0
C1408 C 0.25045 0.31931 0.25515 0.0
C1409 C 0.27961 0.35837 0.2676 0.0
C1410 C 0.26617 0.35487 0.24917 0.0
C1411 C 0.23703 0.33207 0.22561 0.0
C1412 C 0.22137 0.31275 0.22018 0.0
C1413 C 0.25135 0.33546 0.24309 0.0
C1414 C 0.22091 0.29664 0.23151 0.0
C1415 C 0.23536 0.2999 0.24885 0.0
H1416 H 0.31014 0.38575 0.40909 0.0
H1417 H 0.28367 0.32239 0.4046 0.0
H1418 H 0.26567 0.31807 0.44137 0.0
H1419 H 0.25486 0.33212 0.47247 0.0
H1420 H 0.28078 0.39544 0.47586 0.0
H1421 H 0.30192 0.39996 0.44216 0.0
C1422 C 0.3006 0.37099 0.41626 0.0
C1423 C 0.29801 0.3544 0.40392 0.0
C1424 C 0.29018 0.36861 0.43722 0.0
C1425 C 0.28584 0.33541 0.41367 0.0
C1426 C 0.27548 0.33293 0.43465 0.0
C1427 C 0.26528 0.34691 0.46594 0.0
C1428 C 0.2661 0.36339 0.47655 0.0
C1429 C 0.27712 0.34938 0.44621 0.0
C1430 C 0.27993 0.3825 0.46818 0.0
C1431 C 0.2919 0.38509 0.44874 0.0
H1432 H 0.7059 0.97476 0.42719 0.0
H1433 H 0.66271 0.93206 0.37777 0.0
H1434 H 0.65052 0.9062 0.40822 0.0
H1435 H 0.65488 0.89533 0.44753 0.0
H1436 H 0.69585 0.93918 0.49808 0.0
H1437 H 0.70629 0.96495 0.46842 0.0
C1438 C 0.69356 0.95984 0.4233 0.0
C1439 C 0.68525 0.95516 0.40039 0.0
C1440 C 0.68651 0.94524 0.44092 0.0
C1441 C 0.66921 0.93592 0.3954 0.0
C1442 C 0.66237 0.92116 0.41274 0.0
C1443 C 0.66571 0.91054 0.4524 0.0
C1444 C 0.67496 0.915 0.47501 0.0
C1445 C 0.67126 0.92555 0.43542 0.0
C1446 C 0.68902 0.93498 0.48064 0.0
C1447 C 0.6949 0.94986 0.46373 0.0
H1448 H 0.04989 0.70841 0.43487 0.0
H1449 H 0.08313 0.7163 0.37134 0.0
H1450 H 0.11387 0.72749 0.39489 0.0
H1451 H 0.13191 0.73945 0.43327 0.0
H1452 H 0.09805 0.73042 0.49667 0.0
H1453 H 0.0668 0.71482 0.47359 0.0
C1454 C 0.0638 0.71217 0.42629 0.0
C1455 C 0.06444 0.71182 0.40151 0.0
C1456 C 0.08126 0.71845 0.43992 0.0
C1457 C 0.08238 0.71647 0.39045 0.0
C1458 C 0.09995 0.72299 0.40389 0.0
C1459 C 0.11761 0.73359 0.44201 0.0
C1460 C 0.11722 0.73617 0.46655 0.0
C1461 C 0.09968 0.72469 0.42859 0.0
C1462 C 0.09866 0.72847 0.47781 0.0
C1463 C 0.08082 0.71972 0.4646 0.0
H1464 H 0.26923 0.03575 0.752 0.0
H1465 H 0.32521 0.03759 0.76129 0.0
H1466 H 0.331 0.05485 0.79906 0.0
H1467 H 0.32139 0.07176 0.82779 0.0
H1468 H 0.26646 0.07167 0.81611 0.0
H1469 H 0.25891 0.05101 0.78131 0.0
C1470 C 0.28261 0.03968 0.76236 0.0
C1471 C 0.29683 0.03549 0.75367 0.0
C1472 C 0.28607 0.04997 0.78371 0.0
C1473 C 0.31403 0.04068 0.76747 0.0
C1474 C 0.31739 0.05062 0.78905 0.0
C1475 C 0.30776 0.06722 0.81766 0.0
C1476 C 0.29456 0.07336 0.82476 0.0
C1477 C 0.30373 0.05577 0.79706 0.0
C1478 C 0.27678 0.06697 0.81152 0.0
C1479 C 0.27251 0.05529 0.79137 0.0
H1480 H 0.9747 0.25311 0.74169 0.0
H1481 H 0.94529 0.28636 0.74735 0.0
H1482 H 0.92718 0.26701 0.78221 0.0
H1483 H 0.91724 0.23836 0.8082 0.0
H1484 H 0.94828 0.20646 0.80361 0.0
H1485 H 0.96809 0.22751 0.77095 0.0
C1486 C 0.96449 0.25627 0.75075 0.0
C1487 C 0.9611 0.27093 0.74185 0.0
C1488 C 0.95425 0.24517 0.77071 0.0
C1489 C 0.94812 0.27513 0.7539 0.0
C1490 C 0.93769 0.26399 0.77372 0.0
C1491 C 0.92866 0.23626 0.80053 0.0
C1492 C 0.9309 0.22049 0.80818 0.0
C1493 C 0.94029 0.24865 0.78192 0.0
C1494 C 0.94574 0.21804 0.79772 0.0
C1495 C 0.95721 0.23017 0.77911 0.0
H1496 H 0.75832 0.66991 0.73881 0.0
H1497 H 0.7513 0.72046 0.74276 0.0
H1498 H 0.77709 0.73478 0.77422 0.0
H1499 H 0.80001 0.73146 0.80265 0.0
H1500 H 0.80483 0.67963 0.79852 0.0
H1501 H 0.78145 0.66725 0.76507 0.0
C1502 C 0.76241 0.68413 0.74639 0.0
C1503 C 0.75271 0.69399 0.73856 0.0
C1504 C 0.77678 0.69196 0.76461 0.0
C1505 C 0.7585 0.71253 0.74847 0.0
C1506 C 0.77317 0.72066 0.76653 0.0
C1507 C 0.79597 0.71756 0.79422 0.0
C1508 C 0.80387 0.7063 0.80315 0.0
C1509 C 0.78216 0.71031 0.77507 0.0
C1510 C 0.79865 0.68834 0.79214 0.0
C1511 C 0.78536 0.68129 0.77299 0.0
H1512 H 0.7365 0.68382 0.61995 0.0
H1513 H 0.69171 0.62151 0.62441 0.0
H1514 H 0.70241 0.61559 0.58657 0.0
H1515 H 0.72682 0.62736 0.55477 0.0
H1516 H 0.77417 0.68898 0.55238 0.0
H1517 H 0.75982 0.69606 0.58627 0.0
C1518 C 0.72885 0.66906 0.61231 0.0
C1519 C 0.71341 0.6531 0.62488 0.0
C1520 C 0.73563 0.66562 0.59097 0.0
C1521 C 0.70372 0.63398 0.61504 0.0
C1522 C 0.70985 0.63058 0.59346 0.0
C1523 C 0.73402 0.64236 0.56162 0.0
C1524 C 0.75173 0.65752 0.5512 0.0
C1525 C 0.72621 0.64617 0.58169 0.0
C1526 C 0.76047 0.67699 0.55991 0.0
C1527 C 0.75238 0.68104 0.57947 0.0
H1528 H 0.32931 0.04825 0.61144 0.0
H1529 H 0.31827 0.0837 0.65928 0.0
H1530 H 0.32746 0.1089 0.6288 0.0
H1531 H 0.33456 0.11883 0.58753 0.0
H1532 H 0.34289 0.08247 0.53809 0.0
H1533 H 0.33923 0.05984 0.57013 0.0
C1534 C 0.32948 0.06178 0.61523 0.0
C1535 C 0.32327 0.0643 0.63747 0.0
C1536 C 0.334 0.07585 0.59725 0.0
C1537 C 0.3231 0.0816 0.64223 0.0
C1538 C 0.32823 0.09592 0.62481 0.0
C1539 C 0.33563 0.10597 0.58377 0.0
C1540 C 0.33859 0.10211 0.56043 0.0
C1541 C 0.333 0.09286 0.60206 0.0
C1542 C 0.34053 0.08572 0.55592 0.0
C1543 C 0.33834 0.07273 0.57421 0.0
H1544 H 0.95031 0.26952 0.60371 0.0
H1545 H 0.93187 0.30588 0.63825 0.0
H1546 H 0.90532 0.29637 0.60825 0.0
H1547 H 0.88524 0.27479 0.57439 0.0
H1548 H 0.90404 0.23822 0.5412 0.0
H1549 H 0.93273 0.2509 0.56831 0.0
C1550 C 0.94058 0.2755 0.60463 0.0
C1551 C 0.94282 0.28812 0.62337 0.0
C1552 C 0.9254 0.26988 0.58755 0.0
C1553 C 0.93036 0.29605 0.62404 0.0
C1554 C 0.91515 0.29056 0.60694 0.0
C1555 C 0.89591 0.27 0.57288 0.0
C1556 C 0.89255 0.25552 0.55604 0.0
C1557 C 0.91223 0.2771 0.58891 0.0
C1558 C 0.90633 0.24925 0.55421 0.0
C1559 C 0.92267 0.25644 0.56972 0.0
H1560 H 0.38264 0.2919 0.61677 0.0
H1561 H 0.32051 0.27485 0.6224 0.0
H1562 H 0.31245 0.25577 0.58572 0.0
H1563 H 0.32258 0.24156 0.55397 0.0
H1564 H 0.38475 0.25854 0.54907 0.0
H1565 H 0.39328 0.28027 0.58324 0.0
C1566 C 0.36736 0.28417 0.60987 0.0
C1567 C 0.35216 0.28459 0.62249 0.0
C1568 C 0.36282 0.27318 0.58888 0.0
C1569 C 0.3325 0.27473 0.6131 0.0
C1570 C 0.32785 0.26374 0.59217 0.0
C1571 C 0.33802 0.25016 0.56029 0.0
C1572 C 0.35297 0.24833 0.54902 0.0
C1573 C 0.34281 0.26248 0.58021 0.0
C1574 C 0.37296 0.25979 0.55721 0.0
C1575 C 0.37784 0.2721 0.57691 0.0
H1576 H 0.68585 0.09158 0.62341 0.0
H1577 H 0.70837 0.05247 0.61424 0.0
H1578 H 0.72582 0.07033 0.57848 0.0
H1579 H 0.73751 0.09923 0.55233 0.0
H1580 H 0.7148 0.13814 0.5614 0.0
H1581 H 0.69425 0.11797 0.59443 0.0
C1582 C 0.6944 0.08684 0.61343 0.0
C1583 C 0.69609 0.07094 0.62165 0.0
C1584 C 0.70436 0.09715 0.5929 0.0
C1585 C 0.70692 0.06472 0.60834 0.0
C1586 C 0.71696 0.07497 0.58794 0.0
C1587 C 0.7278 0.10307 0.56135 0.0
C1588 C 0.72775 0.12019 0.55465 0.0
C1589 C 0.71621 0.09152 0.58043 0.0
C1590 C 0.71498 0.12495 0.56621 0.0
C1591 C 0.70338 0.11353 0.58521 0.0
H1592 H 0.94552 0.65816 0.59498 0.0
H1593 H 0.9056 0.65365 0.64984 0.0
H1594 H 0.87743 0.63985 0.62157 0.0
H1595 H 0.86554 0.63377 0.5804 0.0
H1596 H 0.90586 0.64006 0.52487 0.0
H1597 H 0.93253 0.64849 0.55411 0.0
C1598 C 0.93047 0.6535 0.60076 0.0
C1599 C 0.92739 0.65653 0.62437 0.0
C1600 C 0.91458 0.64633 0.58419 0.0
C1601 C 0.90809 0.65107 0.63175 0.0
C1602 C 0.89208 0.64338 0.61556 0.0
C1603 C 0.87998 0.63646 0.57472 0.0
C1604 C 0.88374 0.63645 0.55046 0.0
C1605 C 0.89532 0.64161 0.59159 0.0
C1606 C 0.90267 0.64027 0.54341 0.0
C1607 C 0.91791 0.64504 0.56013 0.0
H1608 H 0.96754 0.72999 0.72707 0.0
H1609 H 0.96688 0.67731 0.74918 0.0
H1610 H 0.9569 0.68071 0.78895 0.0
H1611 H 0.94605 0.69743 0.81648 0.0
H1612 H 0.94477 0.74874 0.79229 0.0
H1613 H 0.95835 0.7473 0.7546 0.0
C1614 C 0.96538 0.71927 0.74057 0.0
C1615 C 0.96777 0.7033 0.73503 0.0
C1616 C 0.95936 0.72112 0.76314 0.0
C1617 C 0.96506 0.68971 0.7529 0.0
C1618 C 0.9593 0.69162 0.77563 0.0
C1619 C 0.94876 0.70832 0.803 0.0
C1620 C 0.94435 0.7232 0.80748 0.0
C1621 C 0.95601 0.70706 0.78081 0.0
C1622 C 0.94833 0.73735 0.78979 0.0
C1623 C 0.9559 0.73642 0.76799 0.0
H1624 H 0.36751 0.27183 0.75257 0.0
H1625 H 0.30781 0.262 0.74539 0.0
H1626 H 0.29702 0.23984 0.77976 0.0
H1627 H 0.30479 0.22314 0.81186 0.0
H1628 H 0.36492 0.23382 0.81796 0.0
H1629 H 0.37529 0.25595 0.78412 0.0
C1630 C 0.35208 0.26484 0.75838 0.0
C1631 C 0.33847 0.26851 0.74627 0.0
C1632 C 0.34609 0.25235 0.77811 0.0
C1633 C 0.31861 0.25942 0.75433 0.0
C1634 C 0.31244 0.24675 0.77399 0.0
C1635 C 0.32014 0.23032 0.80573 0.0
C1636 C 0.3341 0.22695 0.81763 0.0
C1637 C 0.32607 0.24308 0.78602 0.0
C1638 C 0.35396 0.23644 0.80951 0.0
C1639 C 0.35989 0.24898 0.79001 0.0
H1640 H 0.70445 0.06705 0.76453 0.0
H1641 H 0.73637 0.05083 0.71712 0.0
H1642 H 0.76445 0.06335 0.74549 0.0
H1643 H 0.78093 0.08156 0.78224 0.0
H1644 H 0.74736 0.09498 0.83095 0.0
H1645 H 0.719 0.08103 0.80346 0.0
C1646 C 0.71749 0.0661 0.76055 0.0
C1647 C 0.71853 0.05831 0.73873 0.0
C1648 C 0.73336 0.07303 0.77702 0.0
C1649 C 0.7353 0.05681 0.73385 0.0
C1650 C 0.75137 0.06405 0.75 0.0
C1651 C 0.76729 0.08108 0.78715 0.0
C1652 C 0.76663 0.08988 0.80848 0.0
C1653 C 0.75072 0.07255 0.77147 0.0
C1654 C 0.7487 0.08904 0.81434 0.0
C1655 C 0.73234 0.08089 0.7987 0.0
H1656 H 0.04288 0.35877 0.04816 0.0
H1657 H 0.04709 0.33195 0.98398 0.0
H1658 H 0.07033 0.32422 0.00371 0.0
H1659 H 0.08795 0.3235 0.03997 0.0
H1660 H 0.08074 0.34784 0.1047 0.0
H1661 H 0.06039 0.35827 0.08385 0.0
C1662 C 0.0491 0.35151 0.0383 0.0
C1663 C 0.0433 0.34602 0.01458 0.0
C1664 C 0.06185 0.34653 0.04994 0.0
C1665 C 0.05134 0.33638 0.00224 0.0
C1666 C 0.06455 0.33187 0.01356 0.0
C1667 C 0.08184 0.33097 0.04957 0.0
C1668 C 0.0861 0.33496 0.07392 0.0
C1669 C 0.0696 0.33652 0.03757 0.0
C1670 C 0.07817 0.3449 0.0859 0.0
C1671 C 0.06636 0.35077 0.07403 0.0
H1672 H 0.65624 0.69293 0.06088 0.0
H1673 H 0.67007 0.72392 0.9942 0.0
H1674 H 0.67077 0.75192 0.01336 0.0
H1675 H 0.66792 0.76781 0.04923 0.0
H1676 H 0.65522 0.73699 0.11598 0.0
H1677 H 0.65335 0.70865 0.09649 0.0
C1678 C 0.65933 0.70576 0.05046 0.0
C1679 C 0.66311 0.70628 0.02611 0.0
C1680 C 0.65987 0.72186 0.0616 0.0
C1681 C 0.66713 0.72309 0.01296 0.0
C1682 C 0.66754 0.73913 0.02392 0.0
C1683 C 0.66488 0.75496 0.05956 0.0
C1684 C 0.66166 0.75458 0.08407 0.0
C1685 C 0.66407 0.73874 0.04827 0.0
C1686 C 0.65744 0.73763 0.09705 0.0
C1687 C 0.65651 0.72144 0.08595 0.0
H1688 H 0.28143 0.96284 0.05228 0.0
H1689 H 0.28183 0.90932 0.06687 0.0
H1690 H 0.24983 0.89514 0.08664 0.0
H1691 H 0.22217 0.89798 0.10101 0.0
H1692 H 0.22049 0.95066 0.08664 0.0
H1693 H 0.25239 0.96503 0.0654 0.0
C1694 C 0.27445 0.94804 0.05967 0.0
C1695 C 0.28418 0.93727 0.05816 0.0
C1696 C 0.25583 0.93982 0.07113 0.0
C1697 C 0.27483 0.91805 0.06777 0.0
C1698 C 0.25648 0.90987 0.07916 0.0
C1699 C 0.22885 0.91266 0.09331 0.0
C1700 C 0.21922 0.92339 0.09563 0.0
C1701 C 0.24698 0.92068 0.08117 0.0
C1702 C 0.22772 0.94217 0.0851 0.0
C1703 C 0.24595 0.95038 0.07303 0.0
H1704 H 0.32851 0.02039 0.98578 0.0
H1705 H 0.36426 0.06039 0.04222 0.0
H1706 H 0.36005 0.08637 0.0247 0.0
H1707 H 0.346 0.09768 0.99334 0.0
H1708 H 0.31042 0.05741 0.93703 0.0
H1709 H 0.31465 0.03158 0.95466 0.0
C1710 C 0.33542 0.03479 0.99429 0.0
C1711 C 0.34671 0.03839 0.01531 0.0
C1712 C 0.33289 0.04962 0.98418 0.0
C1713 C 0.35549 0.05716 0.02605 0.0
C1714 C 0.35309 0.07204 0.01603 0.0
C1715 C 0.33929 0.08329 0.98486 0.0
C1716 C 0.32783 0.07949 0.96394 0.0
C1717 C 0.34182 0.06845 0.99508 0.0
C1718 C 0.31905 0.06067 0.95333 0.0
C1719 C 0.32155 0.04591 0.96332 0.0
H1720 H 0.97193 0.29827 0.97452 0.0
H1721 H 0.92663 0.27917 0.02807 0.0
H1722 H 0.91034 0.24511 0.01352 0.0
H1723 H 0.90651 0.22193 0.98261 0.0
H1724 H 0.94909 0.24194 0.92572 0.0
H1725 H 0.96936 0.27419 0.94499 0.0
C1726 C 0.95875 0.28653 0.98328 0.0
C1727 C 0.95038 0.29114 0.00223 0.0
C1728 C 0.94895 0.26716 0.97413 0.0
C1729 C 0.93321 0.27592 0.01334 0.0
C1730 C 0.9239 0.25648 0.00501 0.0
C1731 C 0.92026 0.23332 0.97442 0.0
C1732 C 0.92602 0.22962 0.95249 0.0
C1733 C 0.93121 0.25211 0.98489 0.0
C1734 C 0.94426 0.24432 0.94259 0.0
C1735 C 0.95576 0.26286 0.95348 0.0
H1736 H 0.71779 0.68255 0.96487 0.0
H1737 H 0.73274 0.65814 0.02429 0.0
H1738 H 0.76759 0.67433 0.01129 0.0
H1739 H 0.79262 0.69217 0.98082 0.0
H1740 H 0.77676 0.71333 0.91873 0.0
H1741 H 0.74375 0.70222 0.93515 0.0
C1742 C 0.72889 0.68128 0.97519 0.0
C1743 C 0.72296 0.66942 0.99556 0.0
C1744 C 0.74867 0.68988 0.96698 0.0
C1745 C 0.73718 0.66738 0.00863 0.0
C1746 C 0.75702 0.67651 0.00113 0.0
C1747 C 0.78196 0.69436 0.97082 0.0
C1748 C 0.78714 0.70335 0.94841 0.0
C1749 C 0.76275 0.68724 0.97993 0.0
C1750 C 0.77329 0.70656 0.93608 0.0
C1751 C 0.75431 0.70005 0.94537 0.0
H1752 H 0.99155 0.70346 0.0136 0.0
H1753 H 0.96422 0.64426 0.98514 0.0
H1754 H 0.94013 0.64912 0.96261 0.0
H1755 H 0.92814 0.67096 0.94919 0.0
H1756 H 0.95665 0.73061 0.97643 0.0
H1757 H 0.97908 0.72486 0.00109 0.0
C1758 C 0.98016 0.6915 0.00273 0.0
C1759 C 0.97967 0.6735 0.00111 0.0
C1760 C 0.96672 0.69458 0.98936 0.0
C1761 C 0.96494 0.65826 0.9867 0.0
C1762 C 0.95119 0.66105 0.97376 0.0
C1763 C 0.93914 0.68261 0.96071 0.0
C1764 C 0.9408 0.70121 0.96091 0.0
C1765 C 0.95215 0.67927 0.97466 0.0
C1766 C 0.95526 0.71625 0.97573 0.0
C1767 C 0.96801 0.71294 0.98992 0.0
H1768 H 0.35848 0.30747 0.98932 0.0
H1769 H 0.29672 0.27651 0.01182 0.0
H1770 H 0.29155 0.24556 0.99588 0.0
H1771 H 0.3042 0.22738 0.97445 0.0
H1772 H 0.36597 0.25804 0.95237 0.0
H1773 H 0.37156 0.28891 0.96945 0.0
C1774 C 0.3439 0.29394 0.9908 0.0
C1775 C 0.32799 0.29438 0.00164 0.0
C1776 C 0.34103 0.27611 0.98169 0.0
C1777 C 0.30925 0.27666 0.00358 0.0
C1778 C 0.30625 0.25892 0.99442 0.0
C1779 C 0.31887 0.24084 0.97338 0.0
C1780 C 0.33462 0.24045 0.96207 0.0
C1781 C 0.32196 0.25851 0.98325 0.0
C1782 C 0.35365 0.25793 0.96113 0.0
C1783 C 0.35681 0.2756 0.97078 0.0
H1784 H 0.68924 0.06803 0.95957 0.0
H1785 H 0.69506 0.01892 0.98183 0.0
H1786 H 0.72974 0.03633 0.9679 0.0
H1787 H 0.75823 0.06541 0.94858 0.0
H1788 H 0.75158 0.11403 0.92639 0.0
H1789 H 0.71738 0.09688 0.94124 0.0
C1790 C 0.69805 0.06108 0.96147 0.0
C1791 C 0.68949 0.04214 0.97164 0.0
C1792 C 0.71785 0.0711 0.95342 0.0
C1793 C 0.70124 0.03348 0.97405 0.0
C1794 C 0.72106 0.04341 0.96604 0.0
C1795 C 0.74923 0.07217 0.94696 0.0
C1796 C 0.75744 0.09099 0.9365 0.0
C1797 C 0.72948 0.06218 0.95552 0.0
C1798 C 0.7457 0.09968 0.93468 0.0
C1799 C 0.72611 0.08985 0.94305 0.0
H1800 H 0.62485 0.94 0.03946 0.0
H1801 H 0.68473 0.96991 0.01106 0.0
H1802 H 0.69209 0.94769 0.03294 0.0
H1803 H 0.68192 0.92048 0.06112 0.0
H1804 H 0.62119 0.88898 0.08725 0.0
H1805 H 0.61395 0.91127 0.06559 0.0
C1806 C 0.6395 0.94163 0.03806 0.0
C1807 C 0.65424 0.95665 0.02377 0.0
C1808 C 0.64355 0.9286 0.05042 0.0
C1809 C 0.67308 0.95844 0.02191 0.0
C1810 C 0.67733 0.94576 0.03446 0.0
C1811 C 0.66698 0.91822 0.06182 0.0
C1812 C 0.65226 0.90313 0.07614 0.0
C1813 C 0.66271 0.93084 0.04885 0.0
C1814 C 0.63306 0.90073 0.07694 0.0
C1815 C 0.6288 0.9134 0.06438 0.0
H1816 H 0.04314 0.71885 0.03663 0.0
H1817 H 0.10271 0.72777 0.03776 0.0
H1818 H 0.11543 0.75861 0.05954 0.0
H1819 H 0.10922 0.78166 0.08112 0.0
H1820 H 0.05 0.77324 0.08018 0.0
H1821 H 0.03754 0.7436 0.05542 0.0
C1822 C 0.05894 0.72764 0.04137 0.0
C1823 C 0.07184 0.72079 0.03579 0.0
C1824 C 0.06618 0.74535 0.05416 0.0
C1825 C 0.09235 0.73254 0.04192 0.0
C1826 C 0.09967 0.75018 0.05449 0.0
C1827 C 0.0936 0.77333 0.07542 0.0
C1828 C 0.08045 0.77936 0.08268 0.0
C1829 C 0.08663 0.75645 0.06121 0.0
C1830 C 0.06035 0.76876 0.07483 0.0
C1831 C 0.05324 0.75183 0.06075 0.0
H1832 H 0.28828 0.32441 0.04494 0.0
H1833 H 0.29336 0.37973 0.02544 0.0
H1834 H 0.26073 0.36874 0.04239 0.0
H1835 H 0.23246 0.34514 0.06631 0.0
H1836 H 0.22655 0.28981 0.08669 0.0
H1837 H 0.25761 0.2989 0.0657 0.0
C1838 C 0.28203 0.33385 0.04402 0.0
C1839 C 0.29338 0.35297 0.03424 0.0
C1840 C 0.26322 0.32754 0.05419 0.0
C1841 C 0.28508 0.36506 0.03317 0.0
C1842 C 0.26641 0.35882 0.04287 0.0
C1843 C 0.23792 0.33502 0.06594 0.0
C1844 C 0.22754 0.31702 0.07819 0.0
C1845 C 0.25567 0.34039 0.05405 0.0
C1846 C 0.23444 0.30381 0.07736 0.0
C1847 C 0.2522 0.30904 0.06546 0.0
H1848 H 0.70243 0.68631 0.39106 0.0
H1849 H 0.71665 0.67491 0.32171 0.0
H1850 H 0.74014 0.66654 0.33941 0.0
H1851 H 0.75498 0.66042 0.375 0.0
H1852 H 0.73842 0.66957 0.44408 0.0
H1853 H 0.71739 0.68077 0.42612 0.0
C1854 C 0.71088 0.68229 0.37974 0.0
C1855 C 0.70788 0.68134 0.35508 0.0
C1856 C 0.72374 0.67685 0.39006 0.0
C1857 C 0.71873 0.6758 0.34074 0.0
C1858 C 0.7321 0.67094 0.35086 0.0
C1859 C 0.74684 0.66501 0.38602 0.0
C1860 C 0.74811 0.66411 0.41079 0.0
C1861 C 0.73445 0.67107 0.37554 0.0
C1862 C 0.73744 0.66995 0.42497 0.0
C1863 C 0.72551 0.67643 0.41472 0.0
H1864 H 0.35559 0.04305 0.38216 0.0
H1865 H 0.29157 0.01385 0.36987 0.0
H1866 H 0.29116 0.04122 0.389 0.0
H1867 H 0.30893 0.07352 0.40908 0.0
H1868 H 0.3729 0.10276 0.4214 0.0
H1869 H 0.37339 0.07543 0.40214 0.0
C1870 C 0.34153 0.04264 0.38369 0.0
C1871 C 0.32364 0.02637 0.37461 0.0
C1872 C 0.3414 0.05849 0.39462 0.0
C1873 C 0.30558 0.02617 0.37667 0.0
C1874 C 0.30531 0.04182 0.38762 0.0
C1875 C 0.32295 0.07383 0.40771 0.0
C1876 C 0.34084 0.09015 0.4167 0.0
C1877 C 0.32312 0.05805 0.39667 0.0
C1878 C 0.35895 0.09049 0.41441 0.0
C1879 C 0.35922 0.07481 0.40352 0.0
H1880 H 0.95801 0.30582 0.38558 0.0
H1881 H 0.94645 0.24912 0.36091 0.0
H1882 H 0.9134 0.23259 0.37866 0.0
H1883 H 0.88917 0.23361 0.4045 0.0
H1884 H 0.89992 0.28961 0.42994 0.0
H1885 H 0.93176 0.3071 0.40839 0.0
C1886 C 0.94811 0.2899 0.38378 0.0
C1887 C 0.95486 0.27872 0.37223 0.0
C1888 C 0.92906 0.28034 0.39433 0.0
C1889 C 0.9418 0.25809 0.36996 0.0
C1890 C 0.92287 0.24858 0.38013 0.0
C1891 C 0.89844 0.24967 0.40509 0.0
C1892 C 0.8925 0.26036 0.41892 0.0
C1893 C 0.9166 0.25946 0.3929 0.0
C1894 C 0.90434 0.28115 0.41937 0.0
C1895 C 0.92253 0.29109 0.40717 0.0
H1896 H 0.97721 0.35829 0.32293 0.0
H1897 H 0.04055 0.38972 0.34012 0.0
H1898 H 0.04448 0.42021 0.32363 0.0
H1899 H 0.03025 0.43734 0.30185 0.0
H1900 H 0.96686 0.40568 0.28497 0.0
H1901 H 0.96258 0.37595 0.30403 0.0
C1902 C 0.99186 0.37185 0.32326 0.0
C1903 C 0.0086 0.37167 0.33254 0.0
C1904 C 0.994 0.38927 0.31373 0.0
C1905 C 0.02742 0.38943 0.33308 0.0
C1906 C 0.02969 0.40685 0.32355 0.0
C1907 C 0.0155 0.42394 0.30246 0.0
C1908 C 0.99891 0.42368 0.29189 0.0
C1909 C 0.01316 0.40685 0.31342 0.0
C1910 C 0.97983 0.40631 0.29311 0.0
C1911 C 0.9774 0.38927 0.30388 0.0
H1912 H 0.58392 0.61424 0.33564 0.0
H1913 H 0.64567 0.62926 0.33672 0.0
H1914 H 0.63595 0.59839 0.31605 0.0
H1915 H 0.6104 0.56904 0.29332 0.0
H1916 H 0.54936 0.55578 0.29029 0.0
H1917 H 0.55823 0.58393 0.31614 0.0
C1918 C 0.59524 0.61064 0.33177 0.0
C1919 C 0.61551 0.62417 0.33754 0.0
C1920 C 0.58967 0.59322 0.31925 0.0
C1921 C 0.62995 0.61918 0.33237 0.0
C1922 C 0.62442 0.60155 0.32044 0.0
C1923 C 0.59907 0.5722 0.29875 0.0
C1924 C 0.57933 0.56057 0.28994 0.0
C1925 C 0.60442 0.58876 0.31312 0.0
C1926 C 0.56468 0.56472 0.29684 0.0
C1927 C 0.56975 0.58078 0.31156 0.0
H1928 H 0.36436 0.95645 0.30533 0.0
H1929 H 0.37102 0.01355 0.31641 0.0
H1930 H 0.40626 0.03 0.30427 0.0
H1931 H 0.43465 0.02784 0.28846 0.0
H1932 H 0.42651 0.97011 0.27699 0.0
H1933 H 0.39237 0.95426 0.29147 0.0
C1934 C 0.37348 0.97252 0.30521 0.0
C1935 C 0.36501 0.98375 0.31153 0.0
C1936 C 0.39348 0.98176 0.2981 0.0
C1937 C 0.37718 0.00455 0.31158 0.0
C1938 C 0.39728 0.01394 0.30454 0.0
C1939 C 0.42537 0.01181 0.28919 0.0
C1940 C 0.4332 0.0002 0.28179 0.0
C1941 C 0.40551 0.00267 0.2974 0.0
C1942 C 0.42104 0.97943 0.28297 0.0
C1943 C 0.40144 0.97031 0.29109 0.0
H1944 H 0.63782 0.01493 0.35008 0.0
H1945 H 0.65486 0.99594 0.2879 0.0
H1946 H 0.63215 0.00141 0.26363 0.0
H1947 H 0.60751 0.01179 0.25982 0.0
H1948 H 0.58893 0.02899 0.32199 0.0
H1949 H 0.61221 0.02417 0.34649 0.0
C1950 C 0.63651 0.01194 0.33124 0.0
C1951 C 0.64807 0.00508 0.32086 0.0
C1952 C 0.62323 0.01492 0.31734 0.0
C1953 C 0.6461 0.00115 0.29642 0.0
C1954 C 0.63317 0.00436 0.28245 0.0
C1955 C 0.60872 0.01459 0.27872 0.0
C1956 C 0.59678 0.0209 0.28916 0.0
C1957 C 0.62174 0.01132 0.29269 0.0
C1958 C 0.5981 0.02417 0.31367 0.0
C1959 C 0.61136 0.0214 0.32763 0.0
H1960 H 0.03299 0.64975 0.3115 0.0
H1961 H 0.97263 0.62884 0.28635 0.0
H1962 H 0.97086 0.5998 0.26887 0.0
H1963 H 0.9862 0.58001 0.26127 0.0
H1964 H 0.04653 0.60093 0.28625 0.0
H1965 H 0.04859 0.63034 0.30315 0.0
C1966 C 0.01946 0.63889 0.30212 0.0
C1967 C 0.00295 0.64147 0.30032 0.0
C1968 C 0.01852 0.62219 0.29212 0.0
C1969 C 0.98558 0.62726 0.28802 0.0
C1970 C 0.98452 0.6106 0.27806 0.0
C1971 C 0.99974 0.59095 0.27057 0.0
C1972 C 0.01615 0.58826 0.27262 0.0
C1973 C 0.00083 0.60784 0.28016 0.0
C1974 C 0.03374 0.60273 0.28432 0.0
C1975 C 0.0349 0.61951 0.29405 0.0
H1976 H 0.38552 0.41273 0.3189 0.0
H1977 H 0.37445 0.35357 0.31076 0.0
H1978 H 0.40684 0.36701 0.29117 0.0
H1979 H 0.43697 0.39555 0.27317 0.0
H1980 H 0.44649 0.45415 0.2803 0.0
H1981 H 0.416 0.44093 0.30351 0.0
C1982 C 0.39021 0.40271 0.31308 0.0
C1983 C 0.37747 0.38216 0.31608 0.0
C1984 C 0.40852 0.41046 0.30145 0.0
C1985 C 0.38393 0.36947 0.30857 0.0
C1986 C 0.40241 0.37713 0.2973 0.0
C1987 C 0.43241 0.40536 0.28011 0.0
C1988 C 0.44372 0.42571 0.27488 0.0
C1989 C 0.41462 0.39758 0.29315 0.0
C1990 C 0.43778 0.43837 0.28386 0.0
C1991 C 0.42041 0.43085 0.29716 0.0
H1992 H 0.35804 0.30953 0.37208 0.0
H1993 H 0.29467 0.27392 0.35557 0.0
H1994 H 0.29349 0.24472 0.37237 0.0
H1995 H 0.31019 0.22987 0.39401 0.0
H1996 H 0.37361 0.26581 0.41008 0.0
H1997 H 0.3751 0.29429 0.39096 0.0
C1998 C 0.34398 0.29536 0.37201 0.0
C1999 C 0.32642 0.29394 0.36282 0.0
C2000 C 0.34343 0.27871 0.38166 0.0
C2001 C 0.30839 0.27541 0.36256 0.0
C2002 C 0.3077 0.25873 0.37225 0.0
C2003 C 0.32432 0.24394 0.39321 0.0
C2004 C 0.34175 0.24577 0.40354 0.0
C2005 C 0.32506 0.26029 0.38222 0.0
C2006 C 0.36003 0.26398 0.40211 0.0
C2007 C 0.36087 0.28031 0.39131 0.0
H2008 H 0.71253 0.05307 0.36499 0.0
H2009 H 0.77131 0.06007 0.36756 0.0
H2010 H 0.78503 0.09191 0.3873 0.0
H2011 H 0.77982 0.11613 0.40739 0.0
H2012 H 0.72149 0.10971 0.40561 0.0
H2013 H 0.70813 0.0794 0.38175 0.0
C2014 C 0.72841 0.0617 0.36953 0.0
C2015 C 0.74079 0.054 0.36506 0.0
C2016 C 0.73625 0.08002 0.38118 0.0
C2017 C 0.76135 0.06548 0.37097 0.0
C2018 C 0.76925 0.0837 0.38232 0.0
C2019 C 0.76423 0.10816 0.40154 0.0
C2020 C 0.75154 0.11487 0.40841 0.0
C2021 C 0.75674 0.09083 0.38809 0.0
C2022 C 0.73147 0.10471 0.4005 0.0
C2023 C 0.72385 0.08738 0.38699 0.0
H2024 H 0.96452 0.66921 0.41482 0.0
H2025 H 0.94845 0.66361 0.34091 0.0
H2026 H 0.91268 0.64641 0.35097 0.0
H2027 H 0.88657 0.63701 0.38134 0.0
H2028 H 0.90309 0.64159 0.45514 0.0
H2029 H 0.93811 0.65483 0.4447 0.0
C2030 C 0.95309 0.66377 0.40097 0.0
C2031 C 0.95887 0.6677 0.37726 0.0
C2032 C 0.93273 0.65386 0.40691 0.0
C2033 C 0.94415 0.6606 0.3593 0.0
C2034 C 0.92378 0.65093 0.36507 0.0
C2035 C 0.89784 0.64051 0.39502 0.0
C2036 C 0.89241 0.63848 0.41893 0.0
C2037 C 0.91796 0.64807 0.38886 0.0
C2038 C 0.90698 0.64294 0.43661 0.0
C2039 C 0.927 0.65065 0.43067 0.0
H2040 H 0.36958 0.02295 0.71679 0.0
H2041 H 0.34264 0.9694 0.67492 0.0
H2042 H 0.36469 0.95993 0.69388 0.0
H2043 H 0.39055 0.96602 0.72379 0.0
H2044 H 0.41813 0.0199 0.76485 0.0
H2045 H 0.39698 0.0301 0.74477 0.0
C2046 C 0.36864 0.00928 0.71168 0.0
C2047 C 0.35438 0.99685 0.69457 0.0
C2048 C 0.38141 0.00392 0.72262 0.0
C2049 C 0.35348 0.97927 0.68802 0.0
C2050 C 0.36602 0.97377 0.69893 0.0
C2051 C 0.39189 0.97999 0.72827 0.0
C2052 C 0.40572 0.99214 0.74584 0.0
C2053 C 0.37983 0.98583 0.7165 0.0
C2054 C 0.4076 0.01035 0.7513 0.0
C2055 C 0.39548 0.01615 0.73989 0.0
H2056 H 0.00457 0.37632 0.71244 0.0
H2057 H 0.93979 0.3459 0.71339 0.0
H2058 H 0.94174 0.37479 0.73151 0.0
H2059 H 0.96173 0.40844 0.74779 0.0
H2060 H 0.02648 0.43858 0.74795 0.0
H2061 H 0.02461 0.4102 0.72836 0.0
C2062 C 0.99087 0.37603 0.71651 0.0
C2063 C 0.97207 0.3589 0.71159 0.0
C2064 C 0.99207 0.39268 0.7271 0.0
C2065 C 0.95448 0.35883 0.71701 0.0
C2066 C 0.95556 0.37536 0.7274 0.0
C2067 C 0.97545 0.40877 0.7437 0.0
C2068 C 0.99422 0.42565 0.74942 0.0
C2069 C 0.97427 0.3923 0.73269 0.0
C2070 C 0.01183 0.42592 0.74353 0.0
C2071 C 0.01077 0.40962 0.73246 0.0
H2072 H 0.64802 0.60989 0.73392 0.0
H2073 H 0.6414 0.6588 0.71304 0.0
H2074 H 0.60726 0.64147 0.72898 0.0
H2075 H 0.57888 0.61165 0.74792 0.0
H2076 H 0.5866 0.56322 0.76779 0.0
H2077 H 0.6208 0.58121 0.75311 0.0
C2078 C 0.63921 0.61689 0.73282 0.0
C2079 C 0.64726 0.6356 0.72219 0.0
C2080 C 0.61974 0.60686 0.74179 0.0
C2081 C 0.63555 0.64437 0.72108 0.0
C2082 C 0.61604 0.63447 0.73018 0.0
C2083 C 0.58816 0.60518 0.74911 0.0
C2084 C 0.58018 0.58605 0.75863 0.0
C2085 C 0.60792 0.61561 0.74045 0.0
C2086 C 0.5923 0.57776 0.76011 0.0
C2087 C 0.61188 0.58806 0.75183 0.0
H2088 H 0.68634 0.71475 0.64358 0.0
H2089 H 0.70967 0.75346 0.70438 0.0
H2090 H 0.70203 0.77657 0.68506 0.0
H2091 H 0.68865 0.78575 0.6508 0.0
H2092 H 0.66521 0.7467 0.59033 0.0
H2093 H 0.67272 0.72365 0.60979 0.0
C2094 C 0.68983 0.72827 0.65263 0.0
C2095 C 0.69867 0.73239 0.67538 0.0
C2096 C 0.68524 0.74138 0.64153 0.0
C2097 C 0.7029 0.74991 0.68686 0.0
C2098 C 0.69852 0.76313 0.67582 0.0
C2099 C 0.68527 0.77223 0.64186 0.0
C2100 C 0.67634 0.76796 0.61914 0.0
C2101 C 0.6897 0.75902 0.65314 0.0
C2102 C 0.67181 0.75024 0.60793 0.0
C2103 C 0.67624 0.73711 0.61898 0.0
H2104 H 0.28822 0.95748 0.65986 0.0
H2105 H 0.23571 0.96173 0.64837 0.0
H2106 H 0.21956 0.93076 0.62627 0.0
H2107 H 0.22079 0.9034 0.60865 0.0
H2108 H 0.27246 0.89796 0.62091 0.0
H2109 H 0.28868 0.92879 0.64371 0.0
C2110 C 0.27319 0.95157 0.65267 0.0
C2111 C 0.26327 0.96203 0.65574 0.0
C2112 C 0.26393 0.93369 0.63983 0.0
C2113 C 0.24376 0.95407 0.64632 0.0
C2114 C 0.2345 0.93636 0.63358 0.0
C2115 C 0.23545 0.90869 0.61663 0.0
C2116 C 0.24532 0.89825 0.61306 0.0
C2117 C 0.24451 0.92618 0.63003 0.0
C2118 C 0.26458 0.90576 0.62307 0.0
C2119 C 0.27381 0.92333 0.63629 0.0
H2120 H 0.0446 0.29962 0.66252 0.0
H2121 H 0.04631 0.35475 0.65426 0.0
H2122 H 0.07918 0.36954 0.63526 0.0
H2123 H 0.10559 0.36529 0.61703 0.0
H2124 H 0.10209 0.30924 0.62442 0.0
H2125 H 0.07169 0.29626 0.64769 0.0
C2126 C 0.05221 0.31496 0.65679 0.0
C2127 C 0.0429 0.32599 0.65949 0.0
C2128 C 0.07069 0.3231 0.64547 0.0
C2129 C 0.05315 0.34593 0.65234 0.0
C2130 C 0.07186 0.35433 0.64133 0.0
C2131 C 0.09826 0.35036 0.62408 0.0
C2132 C 0.10582 0.3381 0.61878 0.0
C2133 C 0.08051 0.34285 0.63719 0.0
C2134 C 0.09629 0.31879 0.62796 0.0
C2135 C 0.07897 0.31139 0.6413 0.0
H2136 H 0.32383 0.35946 0.65401 0.0
H2137 H 0.28097 0.29793 0.6689 0.0
H2138 H 0.25406 0.30119 0.65112 0.0
H2139 H 0.24317 0.32111 0.62909 0.0
H2140 H 0.28618 0.38268 0.61473 0.0
H2141 H 0.31255 0.37988 0.63474 0.0
C2142 C 0.30858 0.34678 0.65353 0.0
C2143 C 0.30445 0.32843 0.66256 0.0
C2144 C 0.29322 0.34877 0.6433 0.0
C2145 C 0.28456 0.31222 0.66206 0.0
C2146 C 0.26918 0.31406 0.6518 0.0
C2147 C 0.25832 0.3339 0.63045 0.0
C2148 C 0.26277 0.35205 0.62033 0.0
C2149 C 0.27341 0.33218 0.64199 0.0
C2150 C 0.28237 0.3686 0.6225 0.0
C2151 C 0.29747 0.36697 0.63382 0.0
H2152 H 0.67435 0.98215 0.63371 0.0
H2153 H 0.68335 0.96269 0.7017 0.0
H2154 H 0.68252 0.93448 0.68291 0.0
H2155 H 0.67829 0.91479 0.64714 0.0
H2156 H 0.66927 0.93459 0.57944 0.0
H2157 H 0.67101 0.96317 0.59818 0.0
C2158 C 0.67616 0.97178 0.64448 0.0
C2159 C 0.67884 0.97454 0.66911 0.0
C2160 C 0.67562 0.95559 0.6336 0.0
C2161 C 0.68122 0.96093 0.68271 0.0
C2162 C 0.68075 0.94478 0.67198 0.0
C2163 C 0.67693 0.92549 0.6365 0.0
C2164 C 0.67353 0.92249 0.61195 0.0
C2165 C 0.67787 0.94191 0.64743 0.0
C2166 C 0.6716 0.93639 0.59841 0.0
C2167 C 0.67267 0.95278 0.60909 0.0
H2168 H 0.04 0.70118 0.64212 0.0
H2169 H 0.02903 0.7477 0.62267 0.0
H2170 H 0.06078 0.76514 0.60208 0.0
H2171 H 0.09156 0.7674 0.58927 0.0
H2172 H 0.10339 0.72148 0.60806 0.0
H2173 H 0.07156 0.70375 0.62942 0.0
C2174 C 0.04459 0.71515 0.63342 0.0
C2175 C 0.03204 0.72303 0.63395 0.0
C2176 C 0.06303 0.72525 0.62147 0.0
C2177 C 0.03829 0.7412 0.62259 0.0
C2178 C 0.05648 0.75124 0.61075 0.0
C2179 C 0.08708 0.75339 0.59781 0.0
C2180 C 0.09968 0.74565 0.59686 0.0
C2181 C 0.0689 0.74337 0.60997 0.0
C2182 C 0.09393 0.72775 0.60857 0.0
C2183 C 0.07572 0.71759 0.62071 0.0
H2184 H 0.97051 0.61934 0.70095 0.0
H2185 H 0.03453 0.66016 0.70743 0.0
H2186 H 0.03837 0.63452 0.72642 0.0
H2187 H 0.02341 0.60095 0.74291 0.0
H2188 H 0.95935 0.56036 0.73724 0.0
H2189 H 0.95568 0.58544 0.71631 0.0
C2190 C 0.98532 0.6226 0.70635 0.0
C2191 C 0.00218 0.6417 0.7028 0.0
C2192 C 0.98742 0.60784 0.71755 0.0
C2193 C 0.02126 0.64564 0.71001 0.0
C2194 C 0.02349 0.63097 0.72089 0.0
C2195 C 0.00869 0.59752 0.73681 0.0
C2196 C 0.99168 0.57883 0.74168 0.0
C2197 C 0.00666 0.61208 0.72497 0.0
C2198 C 0.97266 0.57471 0.73394 0.0
C2199 C 0.97056 0.58902 0.72191 0.0
H2200 H 0.37006 0.37095 0.7098 0.0
H2201 H 0.42311 0.36672 0.71289 0.0
H2202 H 0.44231 0.39965 0.73007 0.0
H2203 H 0.4439 0.42879 0.74599 0.0
H2204 H 0.39202 0.4348 0.74172 0.0
H2205 H 0.3724 0.40178 0.72383 0.0
C2206 C 0.38585 0.3773 0.71408 0.0
C2207 C 0.39505 0.36625 0.71011 0.0
C2208 C 0.39698 0.39645 0.72402 0.0
C2209 C 0.41557 0.37478 0.71572 0.0
C2210 C 0.4266 0.39364 0.72564 0.0
C2211 C 0.42844 0.4232 0.74068 0.0
C2212 C 0.41958 0.43446 0.74507 0.0
C2213 C 0.41743 0.40449 0.73006 0.0
C2214 C 0.39926 0.42646 0.73877 0.0
C2215 C 0.38805 0.40761 0.72839 0.0
H2216 H 0.62184 0.99886 0.73369 0.0
H2217 H 0.60567 0.02352 0.67567 0.0
H2218 H 0.57155 0.0087 0.69093 0.0
H2219 H 0.54771 0.99207 0.72317 0.0
H2220 H 0.56489 0.97027 0.78335 0.0
H2221 H 0.59719 0.98058 0.76507 0.0
C2222 C 0.6106 0.00046 0.72416 0.0
C2223 C 0.61596 0.01192 0.70349 0.0
C2224 C 0.59136 0.99272 0.73368 0.0
C2225 C 0.60163 0.01451 0.6915 0.0
C2226 C 0.58223 0.00618 0.7003 0.0
C2227 C 0.55841 0.98927 0.73203 0.0
C2228 C 0.55402 0.98047 0.75452 0.0
C2229 C 0.57711 0.99575 0.72173 0.0
C2230 C 0.56807 0.97717 0.76606 0.0
C2231 C 0.5865 0.98302 0.75561 0.0
loop_
_geom_bond_atom_site_label_1
_geom_bond_atom_site_label_2
_geom_bond_distance
_geom_bond_site_symmetry_2
_ccdc_geom_bond_type
Zn0 O3 2.031 1_554 S
Zn0 O5 2.049 . S
Zn0 O10 2.067 1_554 S
Zn1 O2 1.962 1_455 S
Zn1 O4 1.986 . S
Zn1 O6 1.996 1_455 S
Zn1 O9 1.943 1_554 S
O2 Zn1 1.962 1_655 S
O2 C7 1.254 1_554 S
O3 Zn0 2.031 1_556 S
O3 C7 1.269 . S
O4 Zn1 1.986 . S
O4 C11 1.262 . S
O5 Zn0 2.049 . S
O5 C13 1.260 . S
O6 Zn1 1.996 1_655 S
O6 C13 1.257 . S
C7 O2 1.254 1_556 S
C7 O3 1.269 . S
C8 O9 1.249 . S
C8 O10 1.270 1_455 S
O9 Zn1 1.943 1_556 S
O9 C8 1.249 . S
O10 Zn0 2.067 1_556 S
O10 C8 1.270 1_655 S
C11 O4 1.262 . S
C11 O12 1.232 . S
O12 C11 1.232 . S
C13 O5 1.260 . S
C13 O6 1.257 . S
Zn14 O17 2.031 1_554 S
Zn14 O19 2.049 . S
Zn14 O24 2.067 1_554 S
Zn15 O16 1.962 . S
Zn15 O18 1.986 . S
Zn15 O20 1.996 . S
Zn15 O23 1.943 1_554 S
O16 Zn15 1.962 . S
O16 C21 1.254 1_554 S
O17 Zn14 2.031 1_556 S
O17 C21 1.269 . S
O18 Zn15 1.986 . S
O18 C25 1.262 . S
O19 Zn14 2.049 . S
O19 C27 1.260 . S
O20 Zn15 1.996 . S
O20 C27 1.257 . S
C21 O16 1.254 1_556 S
C21 O17 1.269 . S
C22 O23 1.249 . S
C22 O24 1.270 . S
O23 Zn15 1.943 1_556 S
O23 C22 1.249 . S
O24 Zn14 2.067 1_556 S
O24 C22 1.270 . S
C25 O18 1.262 . S
C25 O26 1.232 . S
O26 C25 1.232 . S
C27 O19 1.260 . S
C27 O20 1.257 . S
Zn28 O31 2.031 . S
Zn28 O33 2.049 1_554 S
Zn28 O38 2.067 . S
Zn29 O30 1.962 1_545 S
Zn29 O32 1.986 1_554 S
Zn29 O34 1.996 1_544 S
Zn29 O37 1.943 . S
O30 Zn29 1.962 1_565 S
O30 C35 1.254 . S
O31 Zn28 2.031 . S
O31 C35 1.269 . S
O32 Zn29 1.986 1_556 S
O32 C39 1.262 . S
O33 Zn28 2.049 1_556 S
O33 C41 1.260 . S
O34 Zn29 1.996 1_566 S
O34 C41 1.257 . S
C35 O30 1.254 . S
C35 O31 1.269 . S
C36 O37 1.249 . S
C36 O38 1.270 1_545 S
O37 Zn29 1.943 . S
O37 C36 1.249 . S
O38 Zn28 2.067 . S
O38 C36 1.270 1_565 S
C39 O32 1.262 . S
C39 O40 1.232 1_556 S
O40 C39 1.232 1_554 S
C41 O33 1.260 . S
C41 O34 1.257 . S
Zn42 O45 2.031 . S
Zn42 O47 2.049 1_554 S
Zn42 O52 2.067 . S
Zn43 O44 1.962 1_655 S
Zn43 O46 1.986 1_554 S
Zn43 O48 1.996 1_654 S
Zn43 O51 1.943 . S
O44 Zn43 1.962 1_455 S
O44 C49 1.254 . S
O45 Zn42 2.031 . S
O45 C49 1.269 . S
O46 Zn43 1.986 1_556 S
O46 C53 1.262 . S
O47 Zn42 2.049 1_556 S
O47 C55 1.260 . S
O48 Zn43 1.996 1_456 S
O48 C55 1.257 . S
C49 O44 1.254 . S
C49 O45 1.269 . S
C50 O51 1.249 . S
C50 O52 1.270 1_655 S
O51 Zn43 1.943 . S
O51 C50 1.249 . S
O52 Zn42 2.067 . S
O52 C50 1.270 1_455 S
C53 O46 1.262 . S
C53 O54 1.232 1_556 S
O54 C53 1.232 1_554 S
C55 O47 1.260 . S
C55 O48 1.257 . S
Zn56 O59 2.031 . S
Zn56 O61 2.049 1_554 S
Zn56 O66 2.067 . S
Zn57 O58 1.962 . S
Zn57 O60 1.986 1_554 S
Zn57 O62 1.996 1_554 S
Zn57 O65 1.943 . S
O58 Zn57 1.962 . S
O58 C63 1.254 . S
O59 Zn56 2.031 . S
O59 C63 1.269 . S
O60 Zn57 1.986 1_556 S
O60 C67 1.262 . S
O61 Zn56 2.049 1_556 S
O61 C69 1.260 . S
O62 Zn57 1.996 1_556 S
O62 C69 1.257 . S
C63 O58 1.254 . S
C63 O59 1.269 . S
C64 O65 1.249 . S
C64 O66 1.270 . S
O65 Zn57 1.943 . S
O65 C64 1.249 . S
O66 Zn56 2.067 . S
O66 C64 1.270 . S
C67 O60 1.262 . S
C67 O68 1.232 1_556 S
O68 C67 1.232 1_554 S
C69 O61 1.260 . S
C69 O62 1.257 . S
Zn70 O73 2.031 1_554 S
Zn70 O75 2.049 . S
Zn70 O80 2.067 1_554 S
Zn71 O72 1.962 1_565 S
Zn71 O74 1.986 . S
Zn71 O76 1.996 1_565 S
Zn71 O79 1.943 1_554 S
O72 Zn71 1.962 1_545 S
O72 C77 1.250 1_554 S
O73 Zn70 2.031 1_556 S
O73 C77 1.271 . S
O74 Zn71 1.986 . S
O74 C81 1.262 . S
O75 Zn70 2.049 . S
O75 C83 1.260 . S
O76 Zn71 1.996 1_545 S
O76 C83 1.257 . S
C77 O72 1.250 1_556 S
C77 O73 1.271 . S
C78 O79 1.249 . S
C78 O80 1.270 1_565 S
O79 Zn71 1.943 1_556 S
O79 C78 1.249 . S
O80 Zn70 2.067 1_556 S
O80 C78 1.270 1_545 S
C81 O74 1.262 . S
C81 O82 1.232 . S
O82 C81 1.232 . S
C83 O75 1.260 . S
C83 O76 1.257 . S
Zn84 O87 2.031 . S
Zn84 O89 2.049 . S
Zn84 O94 2.067 . S
Zn85 O86 1.962 . S
Zn85 O88 1.986 . S
Zn85 O90 1.996 . S
Zn85 O93 1.943 . S
O86 Zn85 1.962 . S
O86 C91 1.254 . S
O87 Zn84 2.031 . S
O87 C91 1.269 . S
O88 Zn85 1.986 . S
O88 C95 1.262 . S
O89 Zn84 2.049 . S
O89 C97 1.260 . S
O90 Zn85 1.996 . S
O90 C97 1.257 . S
C91 O86 1.254 . S
C91 O87 1.269 . S
C92 O93 1.249 . S
C92 O94 1.270 . S
O93 Zn85 1.943 . S
O93 C92 1.249 . S
O94 Zn84 2.067 . S
O94 C92 1.270 . S
C95 O88 1.262 . S
C95 O96 1.232 . S
O96 C95 1.232 . S
C97 O89 1.260 . S
C97 O90 1.257 . S
Zn98 O101 2.031 . S
Zn98 O103 2.049 . S
Zn98 O108 2.067 . S
Zn99 O100 1.962 . S
Zn99 O102 1.986 1_565 S
Zn99 O104 1.996 . S
Zn99 O107 1.943 . S
O100 Zn99 1.962 . S
O100 C105 1.254 . S
O101 Zn98 2.031 . S
O101 C105 1.269 . S
O102 Zn99 1.986 1_545 S
O102 C109 1.262 . S
O103 Zn98 2.049 . S
O103 C111 1.260 . S
O104 Zn99 1.996 . S
O104 C111 1.257 . S
C105 O100 1.254 . S
C105 O101 1.269 . S
C106 O107 1.249 . S
C106 O108 1.270 . S
O107 Zn99 1.943 . S
O107 C106 1.249 . S
O108 Zn98 2.067 . S
O108 C106 1.270 . S
C109 O102 1.262 . S
C109 O110 1.232 . S
O110 C109 1.232 . S
C111 O103 1.260 . S
C111 O104 1.257 . S
Zn112 O115 2.031 . S
Zn112 O117 2.049 . S
Zn112 O122 2.067 . S
Zn113 O114 1.962 1_455 S
Zn113 O116 1.986 . S
Zn113 O118 1.996 . S
Zn113 O121 1.943 . S
O114 Zn113 1.962 1_655 S
O114 C119 1.254 . S
O115 Zn112 2.031 . S
O115 C119 1.269 1_455 S
O116 Zn113 1.986 . S
O116 C123 1.262 . S
O117 Zn112 2.049 . S
O117 C125 1.260 . S
O118 Zn113 1.996 . S
O118 C125 1.257 . S
C119 O114 1.254 . S
C119 O115 1.269 1_655 S
C120 O121 1.249 . S
C120 O122 1.270 . S
O121 Zn113 1.943 . S
O121 C120 1.249 . S
O122 Zn112 2.067 . S
O122 C120 1.270 . S
C123 O116 1.262 . S
C123 O124 1.232 . S
O124 C123 1.232 . S
C125 O117 1.260 . S
C125 O118 1.257 . S
Zn126 O129 1.998 1_565 S
Zn126 O131 2.049 . S
Zn126 O136 2.067 . S
Zn127 O128 1.962 1_565 S
Zn127 O130 1.986 . S
Zn127 O132 1.996 . S
Zn127 O135 1.943 . S
O128 Zn127 1.962 1_545 S
O128 C133 1.254 . S
O129 Zn126 1.998 1_545 S
O129 C133 1.307 . S
O130 Zn127 1.986 . S
O130 C137 1.262 . S
O131 Zn126 2.049 . S
O131 C139 1.260 . S
O132 Zn127 1.996 . S
O132 C139 1.257 . S
C133 O128 1.254 . S
C133 O129 1.307 . S
C134 O135 1.249 . S
C134 O136 1.270 . S
O135 Zn127 1.943 . S
O135 C134 1.249 . S
O136 Zn126 2.067 . S
O136 C134 1.270 . S
C137 O130 1.262 . S
C137 O138 1.232 . S
O138 C137 1.232 . S
C139 O131 1.260 . S
C139 O132 1.257 . S
Zn140 O143 2.021 1_455 S
Zn140 O145 2.049 . S
Zn140 O150 2.067 . S
Zn141 O142 1.962 1_455 S
Zn141 O144 1.986 . S
Zn141 O146 1.996 . S
Zn141 O149 1.943 . S
O142 Zn141 1.962 1_655 S
O142 C147 1.254 . S
O143 Zn140 2.021 1_655 S
O143 C147 1.284 . S
O144 Zn141 1.986 . S
O144 C151 1.262 . S
O145 Zn140 2.049 . S
O145 C153 1.260 . S
O146 Zn141 1.996 . S
O146 C153 1.257 . S
C147 O142 1.254 . S
C147 O143 1.284 . S
C148 O149 1.249 . S
C148 O150 1.270 . S
O149 Zn141 1.943 . S
O149 C148 1.249 . S
O150 Zn140 2.067 . S
O150 C148 1.270 . S
C151 O144 1.262 . S
C151 O152 1.232 . S
O152 C151 1.232 . S
C153 O145 1.260 . S
C153 O146 1.257 . S
Zn154 O157 2.031 . S
Zn154 O159 2.049 . S
Zn154 O164 2.067 . S
Zn155 O156 1.962 . S
Zn155 O158 1.986 . S
Zn155 O160 1.996 . S
Zn155 O163 1.943 . S
O156 Zn155 1.962 . S
O156 C161 1.254 . S
O157 Zn154 2.031 . S
O157 C161 1.269 . S
O158 Zn155 1.986 . S
O158 C165 1.262 . S
O159 Zn154 2.049 . S
O159 C167 1.260 . S
O160 Zn155 1.996 . S
O160 C167 1.257 . S
C161 O156 1.254 . S
C161 O157 1.269 . S
C162 O163 1.249 . S
C162 O164 1.270 . S
O163 Zn155 1.943 . S
O163 C162 1.249 . S
O164 Zn154 2.067 . S
O164 C162 1.270 . S
C165 O158 1.262 . S
C165 O166 1.232 . S
O166 C165 1.232 . S
C167 O159 1.260 . S
C167 O160 1.257 . S
Zn168 O171 2.031 . S
Zn168 O173 2.049 . S
Zn168 O178 2.067 . S
Zn169 O170 1.962 1_545 S
Zn169 O172 1.986 . S
Zn169 O174 1.996 . S
Zn169 O177 1.943 . S
O170 Zn169 1.962 1_565 S
O170 C175 1.254 . S
O171 Zn168 2.031 . S
O171 C175 1.269 1_545 S
O172 Zn169 1.986 . S
O172 C179 1.262 . S
O173 Zn168 2.049 . S
O173 C181 1.260 . S
O174 Zn169 1.996 . S
O174 C181 1.257 . S
C175 O170 1.254 . S
C175 O171 1.269 1_565 S
C176 O177 1.249 . S
C176 O178 1.270 . S
O177 Zn169 1.943 . S
O177 C176 1.249 . S
O178 Zn168 2.067 . S
O178 C176 1.270 . S
C179 O172 1.262 . S
C179 O180 1.232 . S
O180 C179 1.232 . S
C181 O173 1.260 . S
C181 O174 1.257 . S
Zn182 O185 2.031 1_655 S
Zn182 O187 2.049 . S
Zn182 O192 2.067 . S
Zn183 O184 1.962 1_655 S
Zn183 O186 1.986 . S
Zn183 O188 1.996 . S
Zn183 O191 1.943 . S
O184 Zn183 1.962 1_455 S
O184 C189 1.254 . S
O185 Zn182 2.031 1_455 S
O185 C189 1.269 . S
O186 Zn183 1.986 . S
O186 C193 1.262 . S
O187 Zn182 2.049 . S
O187 C195 1.260 . S
O188 Zn183 1.996 . S
O188 C195 1.257 . S
C189 O184 1.254 . S
C189 O185 1.269 . S
C190 O191 1.249 . S
C190 O192 1.270 . S
O191 Zn183 1.943 . S
O191 C190 1.249 . S
O192 Zn182 2.067 . S
O192 C190 1.270 . S
C193 O186 1.262 . S
C193 O194 1.232 . S
O194 C193 1.232 . S
C195 O187 1.260 . S
C195 O188 1.257 . S
Zn196 O199 2.031 . S
Zn196 O201 2.049 . S
Zn196 O206 2.067 . S
Zn197 O198 1.962 . S
Zn197 O200 1.986 . S
Zn197 O202 1.996 . S
Zn197 O205 1.943 . S
O198 Zn197 1.962 . S
O198 C203 1.254 . S
O199 Zn196 2.031 . S
O199 C203 1.269 . S
O200 Zn197 1.986 . S
O200 C207 1.262 . S
O201 Zn196 2.049 . S
O201 C209 1.260 . S
O202 Zn197 1.996 . S
O202 C209 1.257 . S
C203 O198 1.254 . S
C203 O199 1.269 . S
C204 O205 1.249 . S
C204 O206 1.270 . S
O205 Zn197 1.943 . S
O205 C204 1.249 . S
O206 Zn196 2.067 . S
O206 C204 1.270 . S
C207 O200 1.262 . S
C207 O208 1.232 . S
O208 C207 1.232 . S
C209 O201 1.260 . S
C209 O202 1.257 . S
Zn210 O213 2.031 . S
Zn210 O215 2.049 . S
Zn210 O220 2.067 . S
Zn211 O212 1.962 . S
Zn211 O214 1.986 . S
Zn211 O216 1.996 . S
Zn211 O219 1.943 . S
O212 Zn211 1.962 . S
O212 C217 1.254 . S
O213 Zn210 2.031 . S
O213 C217 1.269 . S
O214 Zn211 1.986 . S
O214 C221 1.262 . S
O215 Zn210 2.049 . S
O215 C223 1.260 . S
O216 Zn211 1.996 . S
O216 C223 1.257 . S
C217 O212 1.254 . S
C217 O213 1.269 . S
C218 O219 1.249 . S
C218 O220 1.270 . S
O219 Zn211 1.943 . S
O219 C218 1.249 . S
O220 Zn210 2.067 . S
O220 C218 1.270 . S
C221 O214 1.262 . S
C221 O222 1.232 . S
O222 C221 1.232 . S
C223 O215 1.260 . S
C223 O216 1.257 . S
Zn224 O227 2.031 . S
Zn224 O229 2.049 . S
Zn224 O234 2.067 . S
Zn225 O226 1.962 . S
Zn225 O228 1.986 1_545 S
Zn225 O230 1.996 . S
Zn225 O233 1.943 . S
O226 Zn225 1.962 . S
O226 C231 1.254 . S
O227 Zn224 2.031 . S
O227 C231 1.269 . S
O228 Zn225 1.986 1_565 S
O228 C235 1.262 . S
O229 Zn224 2.049 . S
O229 C237 1.260 . S
O230 Zn225 1.996 . S
O230 C237 1.257 . S
C231 O226 1.254 . S
C231 O227 1.269 . S
C232 O233 1.249 . S
C232 O234 1.270 . S
O233 Zn225 1.943 . S
O233 C232 1.249 . S
O234 Zn224 2.067 . S
O234 C232 1.270 . S
C235 O228 1.262 . S
C235 O236 1.232 . S
O236 C235 1.232 . S
C237 O229 1.260 . S
C237 O230 1.257 . S
Zn238 O241 2.087 . S
Zn238 O243 2.049 . S
Zn238 O248 2.067 . S
Zn239 O240 1.962 1_655 S
Zn239 O242 1.986 . S
Zn239 O244 1.996 . S
Zn239 O247 1.943 . S
O240 Zn239 1.962 1_455 S
O240 C245 1.254 . S
O241 Zn238 2.087 . S
O241 C245 1.209 1_655 S
O242 Zn239 1.986 . S
O242 C249 1.262 . S
O243 Zn238 2.049 . S
O243 C251 1.260 . S
O244 Zn239 1.996 . S
O244 C251 1.257 . S
C245 O240 1.254 . S
C245 O241 1.209 1_455 S
C246 O247 1.249 . S
C246 O248 1.270 . S
O247 Zn239 1.943 . S
O247 C246 1.249 . S
O248 Zn238 2.067 . S
O248 C246 1.270 . S
C249 O242 1.262 . S
C249 O250 1.232 . S
O250 C249 1.232 . S
C251 O243 1.260 . S
C251 O244 1.257 . S
C252 C253 1.384 . S
C252 C254 1.384 . S
C252 H280 0.931 . S
C253 C252 1.384 . S
C253 C256 1.382 . S
C254 C252 1.384 . S
C254 C255 1.381 . S
C254 H281 0.930 . S
C255 C254 1.381 . S
C255 C257 1.381 . S
C255 C258 1.487 . S
C256 C253 1.382 . S
C256 C257 1.387 . S
C256 H282 0.930 . S
C257 C255 1.381 . S
C257 C256 1.387 . S
C257 H283 0.931 . S
C258 C255 1.487 . S
C258 C265 1.399 . S
C258 N296 1.343 . S
C259 C260 1.384 . S
C259 C261 1.384 . S
C259 H284 0.931 . S
C260 C259 1.384 . S
C260 C263 1.382 . S
C261 C259 1.384 . S
C261 C262 1.381 . S
C261 H285 0.930 . S
C262 C261 1.381 . S
C262 C264 1.381 . S
C262 C265 1.487 . S
C263 C260 1.382 . S
C263 C264 1.387 . S
C263 H286 0.930 . S
C264 C262 1.381 . S
C264 C263 1.387 . S
C264 H287 0.931 . S
C265 C258 1.399 . S
C265 C262 1.487 . S
C265 N297 1.343 . S
C266 C267 1.384 . S
C266 C268 1.384 . S
C266 H288 0.931 . S
C267 C266 1.384 . S
C267 C270 1.382 . S
C268 C266 1.384 . S
C268 C269 1.381 . S
C268 H289 0.930 . S
C269 C268 1.381 . S
C269 C271 1.381 . S
C269 C272 1.487 . S
C270 C267 1.382 . S
C270 C271 1.387 . S
C270 H290 0.930 . S
C271 C269 1.381 . S
C271 C270 1.387 . S
C271 H291 0.931 . S
C272 C269 1.487 . S
C272 C279 1.399 . S
C272 N297 1.343 . S
C273 C274 1.384 . S
C273 C275 1.384 . S
C273 H292 0.931 . S
C274 C273 1.384 . S
C274 C277 1.382 . S
C275 C273 1.384 . S
C275 C276 1.381 . S
C275 H293 0.930 . S
C276 C275 1.381 . S
C276 C278 1.381 . S
C276 C279 1.487 . S
C277 C274 1.382 . S
C277 C278 1.387 . S
C277 H294 0.930 . S
C278 C276 1.381 . S
C278 C277 1.387 . S
C278 H295 0.931 . S
C279 C272 1.399 . S
C279 C276 1.487 . S
C279 N296 1.343 . S
H280 C252 0.931 . S
H281 C254 0.930 . S
H282 C256 0.930 . S
H283 C257 0.931 . S
H284 C259 0.931 . S
H285 C261 0.930 . S
H286 C263 0.930 . S
H287 C264 0.931 . S
H288 C266 0.931 . S
H289 C268 0.930 . S
H290 C270 0.930 . S
H291 C271 0.931 . S
H292 C273 0.931 . S
H293 C275 0.930 . S
H294 C277 0.930 . S
H295 C278 0.931 . S
N296 C258 1.343 . S
N296 C279 1.343 . S
N297 C265 1.343 . S
N297 C272 1.343 . S
C298 C299 1.384 . S
C298 C300 1.384 . S
C298 H326 0.931 . S
C299 C298 1.384 . S
C299 C302 1.382 . S
C300 C298 1.384 . S
C300 C301 1.381 . S
C300 H327 0.930 . S
C301 C300 1.381 . S
C301 C303 1.381 . S
C301 C304 1.487 . S
C302 C299 1.382 . S
C302 C303 1.387 . S
C302 H328 0.930 . S
C303 C301 1.381 . S
C303 C302 1.387 . S
C303 H329 0.931 . S
C304 C301 1.487 . S
C304 C311 1.399 . S
C304 N342 1.343 . S
C305 C306 1.384 . S
C305 C307 1.384 . S
C305 H330 0.931 . S
C306 C305 1.384 . S
C306 C309 1.382 . S
C307 C305 1.384 . S
C307 C308 1.381 . S
C307 H331 0.930 . S
C308 C307 1.381 . S
C308 C310 1.381 . S
C308 C311 1.487 . S
C309 C306 1.382 . S
C309 C310 1.387 . S
C309 H332 0.930 . S
C310 C308 1.381 . S
C310 C309 1.387 . S
C310 H333 0.931 . S
C311 C304 1.399 . S
C311 C308 1.487 . S
C311 N343 1.343 . S
C312 C313 1.384 . S
C312 C314 1.384 . S
C312 H334 0.931 . S
C313 C312 1.384 . S
C313 C316 1.382 . S
C314 C312 1.384 . S
C314 C315 1.381 . S
C314 H335 0.930 . S
C315 C314 1.381 . S
C315 C317 1.381 . S
C315 C318 1.487 . S
C316 C313 1.382 . S
C316 C317 1.387 . S
C316 H336 0.930 . S
C317 C315 1.381 . S
C317 C316 1.387 . S
C317 H337 0.931 . S
C318 C315 1.487 . S
C318 C325 1.399 . S
C318 N343 1.343 . S
C319 C320 1.384 . S
C319 C321 1.384 . S
C319 H338 0.931 . S
C320 C319 1.384 . S
C320 C323 1.382 . S
C321 C319 1.384 . S
C321 C322 1.381 . S
C321 H339 0.930 . S
C322 C321 1.381 . S
C322 C324 1.381 . S
C322 C325 1.487 . S
C323 C320 1.382 . S
C323 C324 1.387 . S
C323 H340 0.930 . S
C324 C322 1.381 . S
C324 C323 1.387 . S
C324 H341 0.931 . S
C325 C318 1.399 . S
C325 C322 1.487 . S
C325 N342 1.343 . S
H326 C298 0.931 . S
H327 C300 0.930 . S
H328 C302 0.930 . S
H329 C303 0.931 . S
H330 C305 0.931 . S
H331 C307 0.930 . S
H332 C309 0.930 . S
H333 C310 0.931 . S
H334 C312 0.931 . S
H335 C314 0.930 . S
H336 C316 0.930 . S
H337 C317 0.931 . S
H338 C319 0.931 . S
H339 C321 0.930 . S
H340 C323 0.930 . S
H341 C324 0.931 . S
N342 C304 1.343 . S
N342 C325 1.343 . S
N343 C311 1.343 . S
N343 C318 1.343 . S
C344 C345 1.384 . S
C344 C346 1.384 . S
C344 H372 0.931 . S
C345 C344 1.384 . S
C345 C348 1.382 . S
C346 C344 1.384 . S
C346 C347 1.381 . S
C346 H373 0.930 . S
C347 C346 1.381 . S
C347 C349 1.381 . S
C347 C350 1.487 . S
C348 C345 1.382 . S
C348 C349 1.387 . S
C348 H374 0.930 . S
C349 C347 1.381 . S
C349 C348 1.387 . S
C349 H375 0.931 . S
C350 C347 1.487 . S
C350 C357 1.399 . S
C350 N388 1.343 . S
C351 C352 1.384 . S
C351 C353 1.384 . S
C351 H376 0.931 . S
C352 C351 1.384 . S
C352 C355 1.382 . S
C353 C351 1.384 . S
C353 C354 1.381 . S
C353 H377 0.930 . S
C354 C353 1.381 . S
C354 C356 1.381 . S
C354 C357 1.487 . S
C355 C352 1.382 . S
C355 C356 1.387 . S
C355 H378 0.930 . S
C356 C354 1.381 . S
C356 C355 1.387 . S
C356 H379 0.931 . S
C357 C350 1.399 . S
C357 C354 1.487 . S
C357 N389 1.343 . S
C358 C359 1.384 . S
C358 C360 1.384 . S
C358 H380 0.931 . S
C359 C358 1.384 . S
C359 C362 1.382 . S
C360 C358 1.384 . S
C360 C361 1.381 . S
C360 H381 0.930 . S
C361 C360 1.381 . S
C361 C363 1.381 . S
C361 C364 1.487 . S
C362 C359 1.382 . S
C362 C363 1.387 . S
C362 H382 0.930 . S
C363 C361 1.381 . S
C363 C362 1.387 . S
C363 H383 0.931 . S
C364 C361 1.487 . S
C364 C371 1.399 . S
C364 N389 1.343 . S
C365 C366 1.384 . S
C365 C367 1.384 . S
C365 H384 0.931 . S
C366 C365 1.384 . S
C366 C369 1.382 . S
C367 C365 1.384 . S
C367 C368 1.381 . S
C367 H385 0.930 . S
C368 C367 1.381 . S
C368 C370 1.381 . S
C368 C371 1.487 . S
C369 C366 1.382 . S
C369 C370 1.387 . S
C369 H386 0.930 . S
C370 C368 1.381 . S
C370 C369 1.387 . S
C370 H387 0.931 . S
C371 C364 1.399 . S
C371 C368 1.487 . S
C371 N388 1.343 . S
H372 C344 0.931 . S
H373 C346 0.930 . S
H374 C348 0.930 . S
H375 C349 0.931 . S
H376 C351 0.931 . S
H377 C353 0.930 . S
H378 C355 0.930 . S
H379 C356 0.931 . S
H380 C358 0.931 . S
H381 C360 0.930 . S
H382 C362 0.930 . S
H383 C363 0.931 . S
H384 C365 0.931 . S
H385 C367 0.930 . S
H386 C369 0.930 . S
H387 C370 0.931 . S
N388 C350 1.343 . S
N388 C371 1.343 . S
N389 C357 1.343 . S
N389 C364 1.343 . S
C390 C391 1.384 . S
C390 C392 1.384 . S
C390 H418 0.931 . S
C391 C390 1.384 . S
C391 C394 1.382 . S
C392 C390 1.384 . S
C392 C393 1.381 . S
C392 H419 0.930 . S
C393 C392 1.381 . S
C393 C395 1.381 . S
C393 C396 1.487 . S
C394 C391 1.382 . S
C394 C395 1.387 . S
C394 H420 0.930 . S
C395 C393 1.381 . S
C395 C394 1.387 . S
C395 H421 0.931 . S
C396 C393 1.487 . S
C396 C403 1.399 . S
C396 N434 1.343 . S
C397 C398 1.384 . S
C397 C399 1.384 . S
C397 H422 0.931 . S
C398 C397 1.384 . S
C398 C401 1.382 . S
C399 C397 1.384 . S
C399 C400 1.381 . S
C399 H423 0.930 . S
C400 C399 1.381 . S
C400 C402 1.381 . S
C400 C403 1.487 . S
C401 C398 1.382 . S
C401 C402 1.387 . S
C401 H424 0.930 . S
C402 C400 1.381 . S
C402 C401 1.387 . S
C402 H425 0.931 . S
C403 C396 1.399 . S
C403 C400 1.487 . S
C403 N435 1.343 . S
C404 C405 1.384 . S
C404 C406 1.384 . S
C404 H426 0.931 . S
C405 C404 1.384 . S
C405 C408 1.382 . S
C406 C404 1.384 . S
C406 C407 1.381 . S
C406 H427 0.930 . S
C407 C406 1.381 . S
C407 C409 1.381 . S
C407 C410 1.487 . S
C408 C405 1.382 . S
C408 C409 1.387 . S
C408 H428 0.930 . S
C409 C407 1.381 . S
C409 C408 1.387 . S
C409 H429 0.931 . S
C410 C407 1.487 . S
C410 C417 1.399 . S
C410 N435 1.343 . S
C411 C412 1.384 . S
C411 C413 1.384 . S
C411 H430 0.931 . S
C412 C411 1.384 . S
C412 C415 1.382 . S
C413 C411 1.384 . S
C413 C414 1.381 . S
C413 H431 0.930 . S
C414 C413 1.381 . S
C414 C416 1.381 . S
C414 C417 1.487 . S
C415 C412 1.382 . S
C415 C416 1.387 . S
C415 H432 0.930 . S
C416 C414 1.381 . S
C416 C415 1.387 . S
C416 H433 0.931 . S
C417 C410 1.399 . S
C417 C414 1.487 . S
C417 N434 1.343 . S
H418 C390 0.931 . S
H419 C392 0.930 . S
H420 C394 0.930 . S
H421 C395 0.931 . S
H422 C397 0.931 . S
H423 C399 0.930 . S
H424 C401 0.930 . S
H425 C402 0.931 . S
H426 C404 0.931 . S
H427 C406 0.930 . S
H428 C408 0.930 . S
H429 C409 0.931 . S
H430 C411 0.931 . S
H431 C413 0.930 . S
H432 C415 0.930 . S
H433 C416 0.931 . S
N434 C396 1.343 . S
N434 C417 1.343 . S
N435 C403 1.343 . S
N435 C410 1.343 . S
C436 C437 1.384 . S
C436 C438 1.384 . S
C436 H464 0.931 . S
C437 C436 1.384 . S
C437 C440 1.382 . S
C438 C436 1.384 . S
C438 C439 1.381 . S
C438 H465 0.930 . S
C439 C438 1.381 . S
C439 C441 1.381 . S
C439 C442 1.487 . S
C440 C437 1.382 . S
C440 C441 1.387 . S
C440 H466 0.930 . S
C441 C439 1.381 . S
C441 C440 1.387 . S
C441 H467 0.931 . S
C442 C439 1.487 . S
C442 C449 1.399 . S
C442 N480 1.343 . S
C443 C444 1.384 . S
C443 C445 1.384 . S
C443 H468 0.931 . S
C444 C443 1.384 . S
C444 C447 1.382 . S
C445 C443 1.384 . S
C445 C446 1.381 . S
C445 H469 0.930 . S
C446 C445 1.381 . S
C446 C448 1.381 . S
C446 C449 1.487 . S
C447 C444 1.382 . S
C447 C448 1.387 . S
C447 H470 0.930 . S
C448 C446 1.381 . S
C448 C447 1.387 . S
C448 H471 0.931 . S
C449 C442 1.399 . S
C449 C446 1.487 . S
C449 N481 1.343 . S
C450 C451 1.384 . S
C450 C452 1.384 . S
C450 H472 0.931 . S
C451 C450 1.384 . S
C451 C454 1.382 . S
C452 C450 1.384 . S
C452 C453 1.381 . S
C452 H473 0.930 . S
C453 C452 1.381 . S
C453 C455 1.381 . S
C453 C456 1.487 . S
C454 C451 1.382 . S
C454 C455 1.387 . S
C454 H474 0.930 . S
C455 C453 1.381 . S
C455 C454 1.387 . S
C455 H475 0.931 . S
C456 C453 1.487 . S
C456 C463 1.399 . S
C456 N481 1.343 . S
C457 C458 1.384 . S
C457 C459 1.384 . S
C457 H476 0.931 . S
C458 C457 1.384 . S
C458 C461 1.382 . S
C459 C457 1.384 . S
C459 C460 1.381 . S
C459 H477 0.930 . S
C460 C459 1.381 . S
C460 C462 1.381 . S
C460 C463 1.487 . S
C461 C458 1.382 . S
C461 C462 1.387 . S
C461 H478 0.930 . S
C462 C460 1.381 . S
C462 C461 1.387 . S
C462 H479 0.931 . S
C463 C456 1.399 . S
C463 C460 1.487 . S
C463 N480 1.343 . S
H464 C436 0.931 . S
H465 C438 0.930 . S
H466 C440 0.930 . S
H467 C441 0.931 . S
H468 C443 0.931 . S
H469 C445 0.930 . S
H470 C447 0.930 . S
H471 C448 0.931 . S
H472 C450 0.931 . S
H473 C452 0.930 . S
H474 C454 0.930 . S
H475 C455 0.931 . S
H476 C457 0.931 . S
H477 C459 0.930 . S
H478 C461 0.930 . S
H479 C462 0.931 . S
N480 C442 1.343 . S
N480 C463 1.343 . S
N481 C449 1.343 . S
N481 C456 1.343 . S
C482 C483 1.384 . S
C482 C484 1.384 . S
C482 H510 0.931 . S
C483 C482 1.384 . S
C483 C486 1.382 . S
C484 C482 1.384 . S
C484 C485 1.381 . S
C484 H511 0.930 . S
C485 C484 1.381 . S
C485 C487 1.381 . S
C485 C488 1.487 . S
C486 C483 1.382 . S
C486 C487 1.387 . S
C486 H512 0.930 . S
C487 C485 1.381 . S
C487 C486 1.387 . S
C487 H513 0.931 . S
C488 C485 1.487 . S
C488 C495 1.399 . S
C488 N526 1.343 . S
C489 C490 1.384 . S
C489 C491 1.384 . S
C489 H514 0.931 . S
C490 C489 1.384 . S
C490 C493 1.382 . S
C491 C489 1.384 . S
C491 C492 1.381 . S
C491 H515 0.930 . S
C492 C491 1.381 . S
C492 C494 1.381 . S
C492 C495 1.487 . S
C493 C490 1.382 . S
C493 C494 1.387 . S
C493 H516 0.930 . S
C494 C492 1.381 . S
C494 C493 1.387 . S
C494 H517 0.931 . S
C495 C488 1.399 . S
C495 C492 1.487 . S
C495 N527 1.343 . S
C496 C497 1.384 . S
C496 C498 1.384 . S
C496 H518 0.931 . S
C497 C496 1.384 . S
C497 C500 1.382 . S
C498 C496 1.384 . S
C498 C499 1.381 . S
C498 H519 0.930 . S
C499 C498 1.381 . S
C499 C501 1.381 . S
C499 C502 1.487 . S
C500 C497 1.382 . S
C500 C501 1.387 . S
C500 H520 0.930 . S
C501 C499 1.381 . S
C501 C500 1.387 . S
C501 H521 0.931 . S
C502 C499 1.487 . S
C502 C509 1.399 . S
C502 N527 1.343 . S
C503 C504 1.384 . S
C503 C505 1.384 . S
C503 H522 0.931 . S
C504 C503 1.384 . S
C504 C507 1.382 . S
C505 C503 1.384 . S
C505 C506 1.381 . S
C505 H523 0.930 . S
C506 C505 1.381 . S
C506 C508 1.381 . S
C506 C509 1.487 . S
C507 C504 1.382 . S
C507 C508 1.387 . S
C507 H524 0.930 . S
C508 C506 1.381 . S
C508 C507 1.387 . S
C508 H525 0.931 . S
C509 C502 1.399 . S
C509 C506 1.487 . S
C509 N526 1.343 . S
H510 C482 0.931 . S
H511 C484 0.930 . S
H512 C486 0.930 . S
H513 C487 0.931 . S
H514 C489 0.931 . S
H515 C491 0.930 . S
H516 C493 0.930 . S
H517 C494 0.931 . S
H518 C496 0.931 . S
H519 C498 0.930 . S
H520 C500 0.930 . S
H521 C501 0.931 . S
H522 C503 0.931 . S
H523 C505 0.930 . S
H524 C507 0.930 . S
H525 C508 0.931 . S
N526 C488 1.343 . S
N526 C509 1.343 . S
N527 C495 1.343 . S
N527 C502 1.343 . S
C528 C529 1.384 . S
C528 C530 1.384 . S
C528 H556 0.931 . S
C529 C528 1.384 . S
C529 C532 1.382 . S
C530 C528 1.384 . S
C530 C531 1.381 . S
C530 H557 0.930 . S
C531 C530 1.381 . S
C531 C533 1.381 . S
C531 C534 1.487 . S
C532 C529 1.382 . S
C532 C533 1.387 . S
C532 H558 0.930 . S
C533 C531 1.381 . S
C533 C532 1.387 . S
C533 H559 0.931 . S
C534 C531 1.487 . S
C534 C541 1.399 . S
C534 N572 1.343 . S
C535 C536 1.384 . S
C535 C537 1.384 . S
C535 H560 0.931 . S
C536 C535 1.384 . S
C536 C539 1.382 . S
C537 C535 1.384 . S
C537 C538 1.381 . S
C537 H561 0.930 . S
C538 C537 1.381 . S
C538 C540 1.381 . S
C538 C541 1.487 . S
C539 C536 1.382 . S
C539 C540 1.387 . S
C539 H562 0.930 . S
C540 C538 1.381 . S
C540 C539 1.387 . S
C540 H563 0.931 . S
C541 C534 1.399 . S
C541 C538 1.487 . S
C541 N573 1.343 . S
C542 C543 1.384 . S
C542 C544 1.384 . S
C542 H564 0.931 . S
C543 C542 1.384 . S
C543 C546 1.382 . S
C544 C542 1.384 . S
C544 C545 1.381 . S
C544 H565 0.930 . S
C545 C544 1.381 . S
C545 C547 1.381 . S
C545 C548 1.487 . S
C546 C543 1.382 . S
C546 C547 1.387 . S
C546 H566 0.930 . S
C547 C545 1.381 . S
C547 C546 1.387 . S
C547 H567 0.931 . S
C548 C545 1.487 . S
C548 C555 1.399 . S
C548 N573 1.343 . S
C549 C550 1.384 . S
C549 C551 1.384 . S
C549 H568 0.931 . S
C550 C549 1.384 . S
C550 C553 1.382 . S
C551 C549 1.384 . S
C551 C552 1.381 . S
C551 H569 0.930 . S
C552 C551 1.381 . S
C552 C554 1.381 . S
C552 C555 1.487 . S
C553 C550 1.382 . S
C553 C554 1.387 . S
C553 H570 0.930 . S
C554 C552 1.381 . S
C554 C553 1.387 . S
C554 H571 0.931 . S
C555 C548 1.399 . S
C555 C552 1.487 . S
C555 N572 1.343 . S
H556 C528 0.931 . S
H557 C530 0.930 . S
H558 C532 0.930 . S
H559 C533 0.931 . S
H560 C535 0.931 . S
H561 C537 0.930 . S
H562 C539 0.930 . S
H563 C540 0.931 . S
H564 C542 0.931 . S
H565 C544 0.930 . S
H566 C546 0.930 . S
H567 C547 0.931 . S
H568 C549 0.931 . S
H569 C551 0.930 . S
H570 C553 0.930 . S
H571 C554 0.931 . S
N572 C534 1.343 . S
N572 C555 1.343 . S
N573 C541 1.343 . S
N573 C548 1.343 . S
C574 C575 1.384 . S
C574 C576 1.384 . S
C574 H602 0.931 . S
C575 C574 1.384 . S
C575 C578 1.382 . S
C576 C574 1.384 . S
C576 C577 1.381 . S
C576 H603 0.930 . S
C577 C576 1.381 . S
C577 C579 1.381 . S
C577 C580 1.487 . S
C578 C575 1.382 . S
C578 C579 1.387 . S
C578 H604 0.930 . S
C579 C577 1.381 . S
C579 C578 1.387 . S
C579 H605 0.931 . S
C580 C577 1.487 . S
C580 C587 1.399 . S
C580 N618 1.343 . S
C581 C582 1.384 . S
C581 C583 1.384 . S
C581 H606 0.931 . S
C582 C581 1.384 . S
C582 C585 1.382 . S
C583 C581 1.384 . S
C583 C584 1.381 . S
C583 H607 0.930 . S
C584 C583 1.381 . S
C584 C586 1.381 . S
C584 C587 1.487 . S
C585 C582 1.382 . S
C585 C586 1.387 . S
C585 H608 0.930 . S
C586 C584 1.381 . S
C586 C585 1.387 . S
C586 H609 0.931 . S
C587 C580 1.399 . S
C587 C584 1.487 . S
C587 N619 1.343 . S
C588 C589 1.384 . S
C588 C590 1.384 . S
C588 H610 0.931 . S
C589 C588 1.384 . S
C589 C592 1.382 . S
C590 C588 1.384 . S
C590 C591 1.381 . S
C590 H611 0.930 . S
C591 C590 1.381 . S
C591 C593 1.381 . S
C591 C594 1.487 . S
C592 C589 1.382 . S
C592 C593 1.387 . S
C592 H612 0.930 . S
C593 C591 1.381 . S
C593 C592 1.387 . S
C593 H613 0.931 . S
C594 C591 1.487 . S
C594 C601 1.399 . S
C594 N619 1.343 . S
C595 C596 1.384 . S
C595 C597 1.384 . S
C595 H614 0.931 . S
C596 C595 1.384 . S
C596 C599 1.382 . S
C597 C595 1.384 . S
C597 C598 1.381 . S
C597 H615 0.930 . S
C598 C597 1.381 . S
C598 C600 1.381 . S
C598 C601 1.487 . S
C599 C596 1.382 . S
C599 C600 1.387 . S
C599 H616 0.930 . S
C600 C598 1.381 . S
C600 C599 1.387 . S
C600 H617 0.931 . S
C601 C594 1.399 . S
C601 C598 1.487 . S
C601 N618 1.343 . S
H602 C574 0.931 . S
H603 C576 0.930 . S
H604 C578 0.930 . S
H605 C579 0.931 . S
H606 C581 0.931 . S
H607 C583 0.930 . S
H608 C585 0.930 . S
H609 C586 0.931 . S
H610 C588 0.931 . S
H611 C590 0.930 . S
H612 C592 0.930 . S
H613 C593 0.931 . S
H614 C595 0.931 . S
H615 C597 0.930 . S
H616 C599 0.930 . S
H617 C600 0.931 . S
N618 C580 1.343 . S
N618 C601 1.343 . S
N619 C587 1.343 . S
N619 C594 1.343 . S
C620 C621 1.384 . S
C620 C622 1.384 . S
C620 H648 0.931 . S
C621 C620 1.384 . S
C621 C624 1.382 . S
C622 C620 1.384 . S
C622 C623 1.381 . S
C622 H649 0.930 . S
C623 C622 1.381 . S
C623 C625 1.381 . S
C623 C626 1.487 . S
C624 C621 1.382 . S
C624 C625 1.387 . S
C624 H650 0.930 . S
C625 C623 1.381 . S
C625 C624 1.387 . S
C625 H651 0.931 . S
C626 C623 1.487 . S
C626 C633 1.399 . S
C626 N664 1.343 . S
C627 C628 1.384 . S
C627 C629 1.384 . S
C627 H652 0.931 . S
C628 C627 1.384 . S
C628 C631 1.382 . S
C629 C627 1.384 . S
C629 C630 1.381 . S
C629 H653 0.930 . S
C630 C629 1.381 . S
C630 C632 1.381 . S
C630 C633 1.487 . S
C631 C628 1.382 . S
C631 C632 1.387 . S
C631 H654 0.930 . S
C632 C630 1.381 . S
C632 C631 1.387 . S
C632 H655 0.931 . S
C633 C626 1.399 . S
C633 C630 1.487 . S
C633 N665 1.343 . S
C634 C635 1.384 . S
C634 C636 1.384 . S
C634 H656 0.931 . S
C635 C634 1.384 . S
C635 C638 1.382 . S
C636 C634 1.384 . S
C636 C637 1.381 . S
C636 H657 0.930 . S
C637 C636 1.381 . S
C637 C639 1.381 . S
C637 C640 1.487 . S
C638 C635 1.382 . S
C638 C639 1.387 . S
C638 H658 0.930 . S
C639 C637 1.381 . S
C639 C638 1.387 . S
C639 H659 0.931 . S
C640 C637 1.487 . S
C640 C647 1.399 . S
C640 N665 1.343 . S
C641 C642 1.384 . S
C641 C643 1.384 . S
C641 H660 0.931 . S
C642 C641 1.384 . S
C642 C645 1.382 . S
C643 C641 1.384 . S
C643 C644 1.381 . S
C643 H661 0.930 . S
C644 C643 1.381 . S
C644 C646 1.381 . S
C644 C647 1.487 . S
C645 C642 1.382 . S
C645 C646 1.387 . S
C645 H662 0.930 . S
C646 C644 1.381 . S
C646 C645 1.387 . S
C646 H663 0.931 . S
C647 C640 1.399 . S
C647 C644 1.487 . S
C647 N664 1.343 . S
H648 C620 0.931 . S
H649 C622 0.930 . S
H650 C624 0.930 . S
H651 C625 0.931 . S
H652 C627 0.931 . S
H653 C629 0.930 . S
H654 C631 0.930 . S
H655 C632 0.931 . S
H656 C634 0.931 . S
H657 C636 0.930 . S
H658 C638 0.930 . S
H659 C639 0.931 . S
H660 C641 0.931 . S
H661 C643 0.930 . S
H662 C645 0.930 . S
H663 C646 0.931 . S
N664 C626 1.343 . S
N664 C647 1.343 . S
N665 C633 1.343 . S
N665 C640 1.343 . S
C666 C667 1.384 . S
C666 C668 1.384 . S
C666 H694 0.931 . S
C667 C666 1.384 . S
C667 C670 1.382 1_655 S
C668 C666 1.384 . S
C668 C669 1.410 . S
C668 H695 0.930 . S
C669 C668 1.410 . S
C669 C671 1.367 1_655 S
C669 C672 1.471 1_655 S
C670 C667 1.382 1_455 S
C670 C671 1.387 . S
C670 H696 0.930 . S
C671 C669 1.367 1_455 S
C671 C670 1.387 . S
C671 H697 0.931 . S
C672 C669 1.471 1_455 S
C672 C679 1.399 1_455 S
C672 N710 1.346 . S
C673 C674 1.384 . S
C673 C675 1.384 . S
C673 H698 0.931 . S
C674 C673 1.384 . S
C674 C677 1.382 1_455 S
C675 C673 1.384 . S
C675 C676 1.381 . S
C675 H699 0.930 . S
C676 C675 1.381 . S
C676 C678 1.382 1_455 S
C676 C679 1.492 1_455 S
C677 C674 1.382 1_655 S
C677 C678 1.387 . S
C677 H700 0.930 . S
C678 C676 1.382 1_655 S
C678 C677 1.387 . S
C678 H701 0.931 . S
C679 C672 1.399 1_655 S
C679 C676 1.492 1_655 S
C679 N711 1.361 . S
C680 C681 1.384 . S
C680 C682 1.384 . S
C680 H702 0.931 . S
C681 C680 1.384 . S
C681 C684 1.382 1_455 S
C682 C680 1.384 . S
C682 C683 1.425 . S
C682 H703 0.930 . S
C683 C682 1.425 . S
C683 C685 1.359 1_455 S
C683 C686 1.464 . S
C684 C681 1.382 1_655 S
C684 C685 1.387 . S
C684 H704 0.930 . S
C685 C683 1.359 1_655 S
C685 C684 1.387 . S
C685 H705 0.931 . S
C686 C683 1.464 . S
C686 C693 1.398 . S
C686 N711 1.320 1_455 S
C687 C688 1.384 . S
C687 C689 1.384 . S
C687 H706 0.931 . S
C688 C687 1.384 . S
C688 C691 1.382 1_655 S
C689 C687 1.384 . S
C689 C690 1.381 1_655 S
C689 H707 0.930 . S
C690 C689 1.381 1_455 S
C690 C692 1.382 . S
C690 C693 1.499 . S
C691 C688 1.382 1_455 S
C691 C692 1.387 . S
C691 H708 0.930 . S
C692 C690 1.382 . S
C692 C691 1.387 . S
C692 H709 0.931 . S
C693 C686 1.398 . S
C693 C690 1.499 . S
C693 N710 1.331 . S
H694 C666 0.931 . S
H695 C668 0.930 . S
H696 C670 0.930 . S
H697 C671 0.931 . S
H698 C673 0.931 . S
H699 C675 0.930 . S
H700 C677 0.930 . S
H701 C678 0.931 . S
H702 C680 0.931 . S
H703 C682 0.930 . S
H704 C684 0.930 . S
H705 C685 0.931 . S
H706 C687 0.931 . S
H707 C689 0.930 . S
H708 C691 0.930 . S
H709 C692 0.931 . S
N710 C672 1.346 . S
N710 C693 1.331 . S
N711 C679 1.361 . S
N711 C686 1.320 1_655 S
C712 C713 1.384 . S
C712 C714 1.384 . S
C712 H740 0.931 . S
C713 C712 1.384 . S
C713 C716 1.382 . S
C714 C712 1.384 . S
C714 C715 1.381 . S
C714 H741 0.930 . S
C715 C714 1.381 . S
C715 C717 1.381 . S
C715 C718 1.487 . S
C716 C713 1.382 . S
C716 C717 1.387 . S
C716 H742 0.930 . S
C717 C715 1.381 . S
C717 C716 1.387 . S
C717 H743 0.931 . S
C718 C715 1.487 . S
C718 C725 1.399 . S
C718 N756 1.343 . S
C719 C720 1.384 . S
C719 C721 1.384 . S
C719 H744 0.931 . S
C720 C719 1.384 . S
C720 C723 1.382 . S
C721 C719 1.384 . S
C721 C722 1.381 . S
C721 H745 0.930 . S
C722 C721 1.381 . S
C722 C724 1.381 . S
C722 C725 1.487 . S
C723 C720 1.382 . S
C723 C724 1.387 . S
C723 H746 0.930 . S
C724 C722 1.381 . S
C724 C723 1.387 . S
C724 H747 0.931 . S
C725 C718 1.399 . S
C725 C722 1.487 . S
C725 N757 1.343 . S
C726 C727 1.384 . S
C726 C728 1.384 . S
C726 H748 0.931 . S
C727 C726 1.384 . S
C727 C730 1.382 . S
C728 C726 1.384 . S
C728 C729 1.381 . S
C728 H749 0.930 . S
C729 C728 1.381 . S
C729 C731 1.381 . S
C729 C732 1.487 . S
C730 C727 1.382 . S
C730 C731 1.387 . S
C730 H750 0.930 . S
C731 C729 1.381 . S
C731 C730 1.387 . S
C731 H751 0.931 . S
C732 C729 1.487 . S
C732 C739 1.399 . S
C732 N757 1.343 . S
C733 C734 1.384 . S
C733 C735 1.384 . S
C733 H752 0.931 . S
C734 C733 1.384 . S
C734 C737 1.382 . S
C735 C733 1.384 . S
C735 C736 1.381 . S
C735 H753 0.930 . S
C736 C735 1.381 . S
C736 C738 1.381 . S
C736 C739 1.487 . S
C737 C734 1.382 . S
C737 C738 1.387 . S
C737 H754 0.930 . S
C738 C736 1.381 . S
C738 C737 1.387 . S
C738 H755 0.931 . S
C739 C732 1.399 . S
C739 C736 1.487 . S
C739 N756 1.343 . S
H740 C712 0.931 . S
H741 C714 0.930 . S
H742 C716 0.930 . S
H743 C717 0.931 . S
H744 C719 0.931 . S
H745 C721 0.930 . S
H746 C723 0.930 . S
H747 C724 0.931 . S
H748 C726 0.931 . S
H749 C728 0.930 . S
H750 C730 0.930 . S
H751 C731 0.931 . S
H752 C733 0.931 . S
H753 C735 0.930 . S
H754 C737 0.930 . S
H755 C738 0.931 . S
N756 C718 1.343 . S
N756 C739 1.343 . S
N757 C725 1.343 . S
N757 C732 1.343 . S
C758 C759 1.384 1_545 S
C758 C760 1.384 . S
C758 H786 0.931 . S
C759 C758 1.384 1_565 S
C759 C762 1.382 . S
C760 C758 1.384 . S
C760 C761 1.381 1_545 S
C760 H787 0.930 . S
C761 C760 1.381 1_565 S
C761 C763 1.381 . S
C761 C764 1.487 . S
C762 C759 1.382 . S
C762 C763 1.387 . S
C762 H788 0.930 . S
C763 C761 1.381 . S
C763 C762 1.387 . S
C763 H789 0.931 . S
C764 C761 1.487 . S
C764 C771 1.399 1_565 S
C764 N802 1.343 . S
C765 C766 1.384 1_565 S
C765 C767 1.384 . S
C765 H790 0.931 . S
C766 C765 1.384 1_545 S
C766 C769 1.382 . S
C767 C765 1.384 . S
C767 C768 1.381 1_565 S
C767 H791 0.930 . S
C768 C767 1.381 1_545 S
C768 C770 1.381 . S
C768 C771 1.487 . S
C769 C766 1.382 . S
C769 C770 1.387 . S
C769 H792 0.930 . S
C770 C768 1.381 . S
C770 C769 1.387 . S
C770 H793 0.931 . S
C771 C764 1.399 1_545 S
C771 C768 1.487 . S
C771 N803 1.343 . S
C772 C773 1.384 1_565 S
C772 C774 1.384 . S
C772 H794 0.931 . S
C773 C772 1.384 1_545 S
C773 C776 1.382 . S
C774 C772 1.384 . S
C774 C775 1.381 1_565 S
C774 H795 0.930 . S
C775 C774 1.381 1_545 S
C775 C777 1.381 . S
C775 C778 1.487 . S
C776 C773 1.382 . S
C776 C777 1.387 . S
C776 H796 0.930 . S
C777 C775 1.381 . S
C777 C776 1.387 . S
C777 H797 0.931 . S
C778 C775 1.487 . S
C778 C785 1.399 1_545 S
C778 N803 1.343 . S
C779 C780 1.384 1_545 S
C779 C781 1.384 . S
C779 H798 0.931 . S
C780 C779 1.384 1_565 S
C780 C783 1.382 . S
C781 C779 1.384 . S
C781 C782 1.381 1_545 S
C781 H799 0.930 . S
C782 C781 1.381 1_565 S
C782 C784 1.381 . S
C782 C785 1.487 . S
C783 C780 1.382 . S
C783 C784 1.387 . S
C783 H800 0.930 . S
C784 C782 1.381 . S
C784 C783 1.387 . S
C784 H801 0.931 . S
C785 C778 1.399 1_565 S
C785 C782 1.487 . S
C785 N802 1.343 . S
H786 C758 0.931 . S
H787 C760 0.930 . S
H788 C762 0.930 . S
H789 C763 0.931 . S
H790 C765 0.931 . S
H791 C767 0.930 . S
H792 C769 0.930 . S
H793 C770 0.931 . S
H794 C772 0.931 . S
H795 C774 0.930 . S
H796 C776 0.930 . S
H797 C777 0.931 . S
H798 C779 0.931 . S
H799 C781 0.930 . S
H800 C783 0.930 . S
H801 C784 0.931 . S
N802 C764 1.343 . S
N802 C785 1.343 . S
N803 C771 1.343 . S
N803 C778 1.343 . S
C804 C805 1.384 . S
C804 C806 1.384 . S
C804 H832 0.931 . S
C805 C804 1.384 . S
C805 C808 1.382 1_545 S
C806 C804 1.384 . S
C806 C807 1.379 1_545 S
C806 H833 0.930 . S
C807 C806 1.379 1_565 S
C807 C809 1.388 . S
C807 C810 1.493 . S
C808 C805 1.382 1_565 S
C808 C809 1.387 . S
C808 H834 0.930 . S
C809 C807 1.388 . S
C809 C808 1.387 . S
C809 H835 0.931 . S
C810 C807 1.493 . S
C810 C817 1.399 1_565 S
C810 N848 1.359 . S
C811 C812 1.384 . S
C811 C813 1.384 . S
C811 H836 0.931 . S
C812 C811 1.384 . S
C812 C815 1.382 1_565 S
C813 C811 1.384 . S
C813 C814 1.421 . S
C813 H837 0.930 . S
C814 C813 1.421 . S
C814 C816 1.362 1_565 S
C814 C817 1.468 1_565 S
C815 C812 1.382 1_545 S
C815 C816 1.387 . S
C815 H838 0.930 . S
C816 C814 1.362 1_545 S
C816 C815 1.387 . S
C816 H839 0.931 . S
C817 C810 1.399 1_545 S
C817 C814 1.468 1_545 S
C817 N849 1.343 . S
C818 C819 1.384 . S
C818 C820 1.384 . S
C818 H840 0.931 . S
C819 C818 1.384 . S
C819 C822 1.382 1_565 S
C820 C818 1.384 . S
C820 C821 1.377 1_565 S
C820 H841 0.930 . S
C821 C820 1.377 1_545 S
C821 C823 1.397 . S
C821 C824 1.493 . S
C822 C819 1.382 1_545 S
C822 C823 1.387 . S
C822 H842 0.930 . S
C823 C821 1.397 . S
C823 C822 1.387 . S
C823 H843 0.931 . S
C824 C821 1.493 . S
C824 C831 1.399 . S
C824 N849 1.325 . S
C825 C826 1.384 . S
C825 C827 1.384 . S
C825 H844 0.931 . S
C826 C825 1.384 . S
C826 C829 1.382 1_545 S
C827 C825 1.384 . S
C827 C828 1.436 . S
C827 H845 0.930 . S
C828 C827 1.436 . S
C828 C830 1.355 1_545 S
C828 C831 1.461 . S
C829 C826 1.382 1_565 S
C829 C830 1.387 . S
C829 H846 0.930 . S
C830 C828 1.355 1_565 S
C830 C829 1.387 . S
C830 H847 0.931 . S
C831 C824 1.399 . S
C831 C828 1.461 . S
C831 N848 1.314 1_545 S
H832 C804 0.931 . S
H833 C806 0.930 . S
H834 C808 0.930 . S
H835 C809 0.931 . S
H836 C811 0.931 . S
H837 C813 0.930 . S
H838 C815 0.930 . S
H839 C816 0.931 . S
H840 C818 0.931 . S
H841 C820 0.930 . S
H842 C822 0.930 . S
H843 C823 0.931 . S
H844 C825 0.931 . S
H845 C827 0.930 . S
H846 C829 0.930 . S
H847 C830 0.931 . S
N848 C810 1.359 . S
N848 C831 1.314 1_565 S
N849 C817 1.343 . S
N849 C824 1.325 . S
C850 C851 1.384 . S
C850 C852 1.384 . S
C850 H878 0.931 . S
C851 C850 1.384 . S
C851 C854 1.382 1_655 S
C852 C850 1.384 . S
C852 C853 1.438 . S
C852 H879 0.930 . S
C853 C852 1.438 . S
C853 C855 1.354 1_655 S
C853 C856 1.461 . S
C854 C851 1.382 1_455 S
C854 C855 1.387 . S
C854 H880 0.930 . S
C855 C853 1.354 1_455 S
C855 C854 1.387 . S
C855 H881 0.931 . S
C856 C853 1.461 . S
C856 C863 1.399 . S
C856 N894 1.322 1_655 S
C857 C858 1.384 . S
C857 C859 1.384 . S
C857 H882 0.931 . S
C858 C857 1.384 . S
C858 C861 1.382 1_455 S
C859 C857 1.384 . S
C859 C860 1.381 . S
C859 H883 0.930 . S
C860 C859 1.381 . S
C860 C862 1.384 1_455 S
C860 C863 1.495 1_455 S
C861 C858 1.382 1_655 S
C861 C862 1.387 . S
C861 H884 0.930 . S
C862 C860 1.384 1_655 S
C862 C861 1.387 . S
C862 H885 0.931 . S
C863 C856 1.399 . S
C863 C860 1.495 1_655 S
C863 N895 1.359 . S
C864 C865 1.384 . S
C864 C866 1.384 . S
C864 H886 0.931 . S
C865 C864 1.384 . S
C865 C868 1.382 1_455 S
C866 C864 1.384 . S
C866 C867 1.423 . S
C866 H887 0.930 . S
C867 C866 1.423 . S
C867 C869 1.361 1_455 S
C867 C870 1.468 1_455 S
C868 C865 1.382 1_655 S
C868 C869 1.387 . S
C868 H888 0.930 . S
C869 C867 1.361 1_655 S
C869 C868 1.387 . S
C869 H889 0.931 . S
C870 C867 1.468 1_655 S
C870 C877 1.399 1_655 S
C870 N895 1.315 . S
C871 C872 1.384 . S
C871 C873 1.384 . S
C871 H890 0.931 . S
C872 C871 1.384 . S
C872 C875 1.382 1_655 S
C873 C871 1.384 . S
C873 C874 1.383 . S
C873 H891 0.930 . S
C874 C873 1.383 . S
C874 C876 1.375 1_655 S
C874 C877 1.495 1_655 S
C875 C872 1.382 1_455 S
C875 C876 1.387 . S
C875 H892 0.930 . S
C876 C874 1.375 1_455 S
C876 C875 1.387 . S
C876 H893 0.931 . S
C877 C870 1.399 1_455 S
C877 C874 1.495 1_455 S
C877 N894 1.359 . S
H878 C850 0.931 . S
H879 C852 0.930 . S
H880 C854 0.930 . S
H881 C855 0.931 . S
H882 C857 0.931 . S
H883 C859 0.930 . S
H884 C861 0.930 . S
H885 C862 0.931 . S
H886 C864 0.931 . S
H887 C866 0.930 . S
H888 C868 0.930 . S
H889 C869 0.931 . S
H890 C871 0.931 . S
H891 C873 0.930 . S
H892 C875 0.930 . S
H893 C876 0.931 . S
N894 C856 1.322 1_455 S
N894 C877 1.359 . S
N895 C863 1.359 . S
N895 C870 1.315 . S
C896 C897 1.384 . S
C896 C898 1.384 . S
C896 H924 0.931 . S
C897 C896 1.384 . S
C897 C900 1.382 . S
C898 C896 1.384 . S
C898 C899 1.381 . S
C898 H925 0.930 . S
C899 C898 1.381 . S
C899 C901 1.381 . S
C899 C902 1.487 . S
C900 C897 1.382 . S
C900 C901 1.387 . S
C900 H926 0.930 . S
C901 C899 1.381 . S
C901 C900 1.387 . S
C901 H927 0.931 . S
C902 C899 1.487 . S
C902 C909 1.399 . S
C902 N940 1.343 . S
C903 C904 1.384 . S
C903 C905 1.384 . S
C903 H928 0.931 . S
C904 C903 1.384 . S
C904 C907 1.382 . S
C905 C903 1.384 . S
C905 C906 1.381 . S
C905 H929 0.930 . S
C906 C905 1.381 . S
C906 C908 1.381 . S
C906 C909 1.487 . S
C907 C904 1.382 . S
C907 C908 1.387 . S
C907 H930 0.930 . S
C908 C906 1.381 . S
C908 C907 1.387 . S
C908 H931 0.931 . S
C909 C902 1.399 . S
C909 C906 1.487 . S
C909 N941 1.343 . S
C910 C911 1.384 . S
C910 C912 1.384 . S
C910 H932 0.931 . S
C911 C910 1.384 . S
C911 C914 1.382 . S
C912 C910 1.384 . S
C912 C913 1.381 . S
C912 H933 0.930 . S
C913 C912 1.381 . S
C913 C915 1.381 . S
C913 C916 1.487 . S
C914 C911 1.382 . S
C914 C915 1.387 . S
C914 H934 0.930 . S
C915 C913 1.381 . S
C915 C914 1.387 . S
C915 H935 0.931 . S
C916 C913 1.487 . S
C916 C923 1.399 . S
C916 N941 1.343 . S
C917 C918 1.384 . S
C917 C919 1.384 . S
C917 H936 0.931 . S
C918 C917 1.384 . S
C918 C921 1.382 . S
C919 C917 1.384 . S
C919 C920 1.381 . S
C919 H937 0.930 . S
C920 C919 1.381 . S
C920 C922 1.381 . S
C920 C923 1.487 . S
C921 C918 1.382 . S
C921 C922 1.387 . S
C921 H938 0.930 . S
C922 C920 1.381 . S
C922 C921 1.387 . S
C922 H939 0.931 . S
C923 C916 1.399 . S
C923 C920 1.487 . S
C923 N940 1.343 . S
H924 C896 0.931 . S
H925 C898 0.930 . S
H926 C900 0.930 . S
H927 C901 0.931 . S
H928 C903 0.931 . S
H929 C905 0.930 . S
H930 C907 0.930 . S
H931 C908 0.931 . S
H932 C910 0.931 . S
H933 C912 0.930 . S
H934 C914 0.930 . S
H935 C915 0.931 . S
H936 C917 0.931 . S
H937 C919 0.930 . S
H938 C921 0.930 . S
H939 C922 0.931 . S
N940 C902 1.343 . S
N940 C923 1.343 . S
N941 C909 1.343 . S
N941 C916 1.343 . S
C942 C943 1.384 . S
C942 C944 1.384 . S
C942 H970 0.931 . S
C943 C942 1.384 . S
C943 C946 1.382 . S
C944 C942 1.384 . S
C944 C945 1.381 . S
C944 H971 0.930 . S
C945 C944 1.381 . S
C945 C947 1.381 . S
C945 C948 1.487 . S
C946 C943 1.382 . S
C946 C947 1.387 . S
C946 H972 0.930 . S
C947 C945 1.381 . S
C947 C946 1.387 . S
C947 H973 0.931 . S
C948 C945 1.487 . S
C948 C955 1.399 . S
C948 N986 1.343 . S
C949 C950 1.384 . S
C949 C951 1.384 . S
C949 H974 0.931 . S
C950 C949 1.384 . S
C950 C953 1.382 . S
C951 C949 1.384 . S
C951 C952 1.381 . S
C951 H975 0.930 . S
C952 C951 1.381 . S
C952 C954 1.381 . S
C952 C955 1.487 . S
C953 C950 1.382 . S
C953 C954 1.387 . S
C953 H976 0.930 . S
C954 C952 1.381 . S
C954 C953 1.387 . S
C954 H977 0.931 . S
C955 C948 1.399 . S
C955 C952 1.487 . S
C955 N987 1.343 . S
C956 C957 1.384 . S
C956 C958 1.384 . S
C956 H978 0.931 . S
C957 C956 1.384 . S
C957 C960 1.382 . S
C958 C956 1.384 . S
C958 C959 1.381 . S
C958 H979 0.930 . S
C959 C958 1.381 . S
C959 C961 1.381 . S
C959 C962 1.487 . S
C960 C957 1.382 . S
C960 C961 1.387 . S
C960 H980 0.930 . S
C961 C959 1.381 . S
C961 C960 1.387 . S
C961 H981 0.931 . S
C962 C959 1.487 . S
C962 C969 1.399 . S
C962 N987 1.343 . S
C963 C964 1.384 . S
C963 C965 1.384 . S
C963 H982 0.931 . S
C964 C963 1.384 . S
C964 C967 1.382 . S
C965 C963 1.384 . S
C965 C966 1.381 . S
C965 H983 0.930 . S
C966 C965 1.381 . S
C966 C968 1.381 . S
C966 C969 1.487 . S
C967 C964 1.382 . S
C967 C968 1.387 . S
C967 H984 0.930 . S
C968 C966 1.381 . S
C968 C967 1.387 . S
C968 H985 0.931 . S
C969 C962 1.399 . S
C969 C966 1.487 . S
C969 N986 1.343 . S
H970 C942 0.931 . S
H971 C944 0.930 . S
H972 C946 0.930 . S
H973 C947 0.931 . S
H974 C949 0.931 . S
H975 C951 0.930 . S
H976 C953 0.930 . S
H977 C954 0.931 . S
H978 C956 0.931 . S
H979 C958 0.930 . S
H980 C960 0.930 . S
H981 C961 0.931 . S
H982 C963 0.931 . S
H983 C965 0.930 . S
H984 C967 0.930 . S
H985 C968 0.931 . S
N986 C948 1.343 . S
N986 C969 1.343 . S
N987 C955 1.343 . S
N987 C962 1.343 . S
C988 C989 1.384 . S
C988 C990 1.384 . S
C988 H1016 0.931 . S
C989 C988 1.384 . S
C989 C992 1.382 . S
C990 C988 1.384 . S
C990 C991 1.381 . S
C990 H1017 0.930 . S
C991 C990 1.381 . S
C991 C993 1.381 . S
C991 C994 1.487 . S
C992 C989 1.382 . S
C992 C993 1.387 . S
C992 H1018 0.930 . S
C993 C991 1.381 . S
C993 C992 1.387 . S
C993 H1019 0.931 . S
C994 C991 1.487 . S
C994 C1001 1.399 . S
C994 N1032 1.343 . S
C995 C996 1.384 . S
C995 C997 1.384 . S
C995 H1020 0.931 . S
C996 C995 1.384 . S
C996 C999 1.382 . S
C997 C995 1.384 . S
C997 C998 1.381 . S
C997 H1021 0.930 . S
C998 C997 1.381 . S
C998 C1000 1.381 . S
C998 C1001 1.487 . S
C999 C996 1.382 . S
C999 C1000 1.387 . S
C999 H1022 0.930 . S
C1000 C998 1.381 . S
C1000 C999 1.387 . S
C1000 H1023 0.931 . S
C1001 C994 1.399 . S
C1001 C998 1.487 . S
C1001 N1033 1.343 . S
C1002 C1003 1.384 . S
C1002 C1004 1.384 . S
C1002 H1024 0.931 . S
C1003 C1002 1.384 . S
C1003 C1006 1.382 . S
C1004 C1002 1.384 . S
C1004 C1005 1.381 . S
C1004 H1025 0.930 . S
C1005 C1004 1.381 . S
C1005 C1007 1.381 . S
C1005 C1008 1.487 . S
C1006 C1003 1.382 . S
C1006 C1007 1.387 . S
C1006 H1026 0.930 . S
C1007 C1005 1.381 . S
C1007 C1006 1.387 . S
C1007 H1027 0.931 . S
C1008 C1005 1.487 . S
C1008 C1015 1.399 . S
C1008 N1033 1.343 . S
C1009 C1010 1.384 . S
C1009 C1011 1.384 . S
C1009 H1028 0.931 . S
C1010 C1009 1.384 . S
C1010 C1013 1.382 . S
C1011 C1009 1.384 . S
C1011 C1012 1.381 . S
C1011 H1029 0.930 . S
C1012 C1011 1.381 . S
C1012 C1014 1.381 . S
C1012 C1015 1.487 . S
C1013 C1010 1.382 . S
C1013 C1014 1.387 . S
C1013 H1030 0.930 . S
C1014 C1012 1.381 . S
C1014 C1013 1.387 . S
C1014 H1031 0.931 . S
C1015 C1008 1.399 . S
C1015 C1012 1.487 . S
C1015 N1032 1.343 . S
H1016 C988 0.931 . S
H1017 C990 0.930 . S
H1018 C992 0.930 . S
H1019 C993 0.931 . S
H1020 C995 0.931 . S
H1021 C997 0.930 . S
H1022 C999 0.930 . S
H1023 C1000 0.931 . S
H1024 C1002 0.931 . S
H1025 C1004 0.930 . S
H1026 C1006 0.930 . S
H1027 C1007 0.931 . S
H1028 C1009 0.931 . S
H1029 C1011 0.930 . S
H1030 C1013 0.930 . S
H1031 C1014 0.931 . S
N1032 C994 1.343 . S
N1032 C1015 1.343 . S
N1033 C1001 1.343 . S
N1033 C1008 1.343 . S
C1034 C1035 1.384 . S
C1034 C1036 1.384 . S
C1034 H1062 0.931 . S
C1035 C1034 1.384 . S
C1035 C1038 1.382 . S
C1036 C1034 1.384 . S
C1036 C1037 1.381 . S
C1036 H1063 0.930 . S
C1037 C1036 1.381 . S
C1037 C1039 1.381 . S
C1037 C1040 1.487 . S
C1038 C1035 1.382 . S
C1038 C1039 1.387 . S
C1038 H1064 0.930 . S
C1039 C1037 1.381 . S
C1039 C1038 1.387 . S
C1039 H1065 0.931 . S
C1040 C1037 1.487 . S
C1040 C1047 1.399 . S
C1040 N1078 1.343 . S
C1041 C1042 1.384 . S
C1041 C1043 1.384 . S
C1041 H1066 0.931 . S
C1042 C1041 1.384 . S
C1042 C1045 1.382 . S
C1043 C1041 1.384 . S
C1043 C1044 1.381 . S
C1043 H1067 0.930 . S
C1044 C1043 1.381 . S
C1044 C1046 1.381 . S
C1044 C1047 1.487 . S
C1045 C1042 1.382 . S
C1045 C1046 1.387 . S
C1045 H1068 0.930 . S
C1046 C1044 1.381 . S
C1046 C1045 1.387 . S
C1046 H1069 0.931 . S
C1047 C1040 1.399 . S
C1047 C1044 1.487 . S
C1047 N1079 1.343 . S
C1048 C1049 1.384 . S
C1048 C1050 1.384 . S
C1048 H1070 0.931 . S
C1049 C1048 1.384 . S
C1049 C1052 1.382 . S
C1050 C1048 1.384 . S
C1050 C1051 1.381 . S
C1050 H1071 0.930 . S
C1051 C1050 1.381 . S
C1051 C1053 1.381 . S
C1051 C1054 1.487 . S
C1052 C1049 1.382 . S
C1052 C1053 1.387 . S
C1052 H1072 0.930 . S
C1053 C1051 1.381 . S
C1053 C1052 1.387 . S
C1053 H1073 0.931 . S
C1054 C1051 1.487 . S
C1054 C1061 1.399 . S
C1054 N1079 1.343 . S
C1055 C1056 1.384 . S
C1055 C1057 1.384 . S
C1055 H1074 0.931 . S
C1056 C1055 1.384 . S
C1056 C1059 1.382 . S
C1057 C1055 1.384 . S
C1057 C1058 1.381 . S
C1057 H1075 0.930 . S
C1058 C1057 1.381 . S
C1058 C1060 1.381 . S
C1058 C1061 1.487 . S
C1059 C1056 1.382 . S
C1059 C1060 1.387 . S
C1059 H1076 0.930 . S
C1060 C1058 1.381 . S
C1060 C1059 1.387 . S
C1060 H1077 0.931 . S
C1061 C1054 1.399 . S
C1061 C1058 1.487 . S
C1061 N1078 1.343 . S
H1062 C1034 0.931 . S
H1063 C1036 0.930 . S
H1064 C1038 0.930 . S
H1065 C1039 0.931 . S
H1066 C1041 0.931 . S
H1067 C1043 0.930 . S
H1068 C1045 0.930 . S
H1069 C1046 0.931 . S
H1070 C1048 0.931 . S
H1071 C1050 0.930 . S
H1072 C1052 0.930 . S
H1073 C1053 0.931 . S
H1074 C1055 0.931 . S
H1075 C1057 0.930 . S
H1076 C1059 0.930 . S
H1077 C1060 0.931 . S
N1078 C1040 1.343 . S
N1078 C1061 1.343 . S
N1079 C1047 1.343 . S
N1079 C1054 1.343 . S
H1080 C1086 0.930 . S
H1081 C1089 0.930 . S
H1082 C1090 0.930 . S
H1083 C1091 0.930 . S
H1084 C1094 0.930 . S
H1085 C1095 0.930 . S
C1086 H1080 0.930 . S
C1086 C1087 1.355 . S
C1086 C1088 1.415 . S
C1087 C1086 1.355 . S
C1087 C1089 1.419 1_655 S
C1088 C1086 1.415 . S
C1088 C1093 1.425 1_655 S
C1088 C1095 1.409 . S
C1089 H1081 0.930 . S
C1089 C1087 1.419 1_455 S
C1089 C1090 1.362 . S
C1090 H1082 0.930 . S
C1090 C1089 1.362 . S
C1090 C1093 1.409 . S
C1091 H1083 0.930 . S
C1091 C1092 1.355 1_455 S
C1091 C1093 1.415 . S
C1092 C1091 1.355 1_655 S
C1092 C1094 1.419 . S
C1093 C1088 1.425 1_455 S
C1093 C1090 1.409 . S
C1093 C1091 1.415 . S
C1094 H1084 0.930 . S
C1094 C1092 1.419 . S
C1094 C1095 1.362 . S
C1095 H1085 0.930 . S
C1095 C1088 1.409 . S
C1095 C1094 1.362 . S
H1096 C1102 0.930 . S
H1097 C1105 0.930 . S
H1098 C1106 0.930 . S
H1099 C1107 0.930 . S
H1100 C1110 0.930 . S
H1101 C1111 0.930 . S
C1102 H1096 0.930 . S
C1102 C1103 1.355 . S
C1102 C1104 1.415 . S
C1103 C1102 1.355 . S
C1103 C1105 1.419 . S
C1104 C1102 1.415 . S
C1104 C1109 1.425 . S
C1104 C1111 1.409 . S
C1105 H1097 0.930 . S
C1105 C1103 1.419 . S
C1105 C1106 1.362 . S
C1106 H1098 0.930 . S
C1106 C1105 1.362 . S
C1106 C1109 1.409 . S
C1107 H1099 0.930 . S
C1107 C1108 1.355 . S
C1107 C1109 1.415 . S
C1108 C1107 1.355 . S
C1108 C1110 1.419 . S
C1109 C1104 1.425 . S
C1109 C1106 1.409 . S
C1109 C1107 1.415 . S
C1110 H1100 0.930 . S
C1110 C1108 1.419 . S
C1110 C1111 1.362 . S
C1111 H1101 0.930 . S
C1111 C1104 1.409 . S
C1111 C1110 1.362 . S
H1112 C1118 0.896 1_565 S
H1113 C1121 0.930 . S
H1114 C1122 0.930 . S
H1115 C1123 0.930 . S
H1116 C1126 0.930 . S
H1117 C1127 0.930 . S
C1118 H1112 0.896 1_545 S
C1118 C1119 1.405 . S
C1118 C1120 1.398 . S
C1119 C1118 1.405 . S
C1119 C1121 1.419 . S
C1120 C1118 1.398 . S
C1120 C1125 1.425 . S
C1120 C1127 1.409 1_545 S
C1121 H1113 0.930 . S
C1121 C1119 1.419 . S
C1121 C1122 1.362 . S
C1122 H1114 0.930 . S
C1122 C1121 1.362 . S
C1122 C1125 1.409 . S
C1123 H1115 0.930 . S
C1123 C1124 1.355 . S
C1123 C1125 1.415 . S
C1124 C1123 1.355 . S
C1124 C1126 1.419 1_545 S
C1125 C1120 1.425 . S
C1125 C1122 1.409 . S
C1125 C1123 1.415 . S
C1126 H1116 0.930 . S
C1126 C1124 1.419 1_565 S
C1126 C1127 1.362 . S
C1127 H1117 0.930 . S
C1127 C1120 1.409 1_565 S
C1127 C1126 1.362 . S
H1128 C1134 0.931 1_545 S
H1129 C1137 0.930 . S
H1130 C1138 0.930 . S
H1131 C1139 0.930 . S
H1132 C1142 0.933 . S
H1133 C1143 0.930 1_545 S
C1134 H1128 0.931 1_565 S
C1134 C1135 1.355 . S
C1134 C1136 1.415 . S
C1135 C1134 1.355 . S
C1135 C1137 1.419 . S
C1136 C1134 1.415 . S
C1136 C1141 1.425 . S
C1136 C1143 1.412 . S
C1137 H1129 0.930 . S
C1137 C1135 1.419 . S
C1137 C1138 1.362 . S
C1138 H1130 0.930 . S
C1138 C1137 1.362 . S
C1138 C1141 1.409 . S
C1139 H1131 0.930 . S
C1139 C1140 1.355 . S
C1139 C1141 1.415 . S
C1140 C1139 1.355 . S
C1140 C1142 1.419 1_565 S
C1141 C1136 1.425 . S
C1141 C1138 1.409 . S
C1141 C1139 1.415 . S
C1142 H1132 0.933 . S
C1142 C1140 1.419 1_545 S
C1142 C1143 1.357 1_545 S
C1143 H1133 0.930 1_565 S
C1143 C1136 1.412 . S
C1143 C1142 1.357 1_565 S
H1144 C1150 0.930 . S
H1145 C1153 0.930 . S
H1146 C1154 0.930 . S
H1147 C1155 0.930 . S
H1148 C1158 0.930 . S
H1149 C1159 0.930 . S
C1150 H1144 0.930 . S
C1150 C1151 1.355 . S
C1150 C1152 1.415 . S
C1151 C1150 1.355 . S
C1151 C1153 1.419 1_455 S
C1152 C1150 1.415 . S
C1152 C1157 1.430 . S
C1152 C1159 1.409 . S
C1153 H1145 0.930 . S
C1153 C1151 1.419 1_655 S
C1153 C1154 1.362 . S
C1154 H1146 0.930 . S
C1154 C1153 1.362 . S
C1154 C1157 1.409 1_655 S
C1155 H1147 0.930 . S
C1155 C1156 1.355 1_655 S
C1155 C1157 1.411 1_655 S
C1156 C1155 1.355 1_455 S
C1156 C1158 1.419 . S
C1157 C1152 1.430 . S
C1157 C1154 1.409 1_455 S
C1157 C1155 1.411 1_455 S
C1158 H1148 0.930 . S
C1158 C1156 1.419 . S
C1158 C1159 1.362 . S
C1159 H1149 0.930 . S
C1159 C1152 1.409 . S
C1159 C1158 1.362 . S
H1160 C1166 0.930 . S
H1161 C1169 0.930 . S
H1162 C1170 0.930 . S
H1163 C1171 0.930 . S
H1164 C1174 0.930 . S
H1165 C1175 0.930 . S
C1166 H1160 0.930 . S
C1166 C1167 1.355 . S
C1166 C1168 1.415 . S
C1167 C1166 1.355 . S
C1167 C1169 1.419 . S
C1168 C1166 1.415 . S
C1168 C1173 1.425 . S
C1168 C1175 1.409 . S
C1169 H1161 0.930 . S
C1169 C1167 1.419 . S
C1169 C1170 1.362 . S
C1170 H1162 0.930 . S
C1170 C1169 1.362 . S
C1170 C1173 1.409 . S
C1171 H1163 0.930 . S
C1171 C1172 1.355 . S
C1171 C1173 1.415 . S
C1172 C1171 1.355 . S
C1172 C1174 1.419 . S
C1173 C1168 1.425 . S
C1173 C1170 1.409 . S
C1173 C1171 1.415 . S
C1174 H1164 0.930 . S
C1174 C1172 1.419 . S
C1174 C1175 1.362 . S
C1175 H1165 0.930 . S
C1175 C1168 1.409 . S
C1175 C1174 1.362 . S
H1176 C1182 0.930 . S
H1177 C1185 0.930 . S
H1178 C1186 0.930 . S
H1179 C1187 0.930 . S
H1180 C1190 0.930 . S
H1181 C1191 0.930 . S
C1182 H1176 0.930 . S
C1182 C1183 1.355 . S
C1182 C1184 1.415 . S
C1183 C1182 1.355 . S
C1183 C1185 1.419 . S
C1184 C1182 1.415 . S
C1184 C1189 1.425 . S
C1184 C1191 1.409 . S
C1185 H1177 0.930 . S
C1185 C1183 1.419 . S
C1185 C1186 1.362 . S
C1186 H1178 0.930 . S
C1186 C1185 1.362 . S
C1186 C1189 1.409 . S
C1187 H1179 0.930 . S
C1187 C1188 1.355 . S
C1187 C1189 1.415 . S
C1188 C1187 1.355 . S
C1188 C1190 1.419 . S
C1189 C1184 1.425 . S
C1189 C1186 1.409 . S
C1189 C1187 1.415 . S
C1190 H1180 0.930 . S
C1190 C1188 1.419 . S
C1190 C1191 1.362 . S
C1191 H1181 0.930 . S
C1191 C1184 1.409 . S
C1191 C1190 1.362 . S
H1192 C1198 0.930 . S
H1193 C1201 0.930 . S
H1194 C1202 0.930 . S
H1195 C1203 0.930 . S
H1196 C1206 0.930 . S
H1197 C1207 0.930 . S
C1198 H1192 0.930 . S
C1198 C1199 1.355 . S
C1198 C1200 1.415 . S
C1199 C1198 1.355 . S
C1199 C1201 1.419 . S
C1200 C1198 1.415 . S
C1200 C1205 1.425 . S
C1200 C1207 1.409 . S
C1201 H1193 0.930 . S
C1201 C1199 1.419 . S
C1201 C1202 1.362 . S
C1202 H1194 0.930 . S
C1202 C1201 1.362 . S
C1202 C1205 1.409 . S
C1203 H1195 0.930 . S
C1203 C1204 1.355 . S
C1203 C1205 1.415 . S
C1204 C1203 1.355 . S
C1204 C1206 1.419 . S
C1205 C1200 1.425 . S
C1205 C1202 1.409 . S
C1205 C1203 1.415 . S
C1206 H1196 0.930 . S
C1206 C1204 1.419 . S
C1206 C1207 1.362 . S
C1207 H1197 0.930 . S
C1207 C1200 1.409 . S
C1207 C1206 1.362 . S
H1208 C1214 0.930 . S
H1209 C1217 0.930 . S
H1210 C1218 0.930 . S
H1211 C1219 0.930 . S
H1212 C1222 0.929 . S
H1213 C1223 0.930 . S
C1214 H1208 0.930 . S
C1214 C1215 1.355 . S
C1214 C1216 1.415 . S
C1215 C1214 1.355 . S
C1215 C1217 1.419 . S
C1216 C1214 1.415 . S
C1216 C1221 1.425 . S
C1216 C1223 1.409 . S
C1217 H1209 0.930 . S
C1217 C1215 1.419 . S
C1217 C1218 1.362 . S
C1218 H1210 0.930 . S
C1218 C1217 1.362 . S
C1218 C1221 1.409 . S
C1219 H1211 0.930 . S
C1219 C1220 1.355 . S
C1219 C1221 1.415 . S
C1220 C1219 1.355 . S
C1220 C1222 1.419 . S
C1221 C1216 1.425 . S
C1221 C1218 1.409 . S
C1221 C1219 1.415 . S
C1222 H1212 0.929 . S
C1222 C1220 1.419 . S
C1222 C1223 1.362 . S
C1223 H1213 0.930 . S
C1223 C1216 1.409 . S
C1223 C1222 1.362 . S
H1224 C1230 0.930 . S
H1225 C1233 0.930 . S
H1226 C1234 0.930 1_565 S
H1227 C1235 0.930 1_565 S
H1228 C1238 0.930 . S
H1229 C1239 0.930 . S
C1230 H1224 0.930 . S
C1230 C1231 1.355 . S
C1230 C1232 1.415 . S
C1231 C1230 1.355 . S
C1231 C1233 1.419 . S
C1232 C1230 1.415 . S
C1232 C1237 1.425 . S
C1232 C1239 1.409 . S
C1233 H1225 0.930 . S
C1233 C1231 1.419 . S
C1233 C1234 1.362 . S
C1234 H1226 0.930 1_545 S
C1234 C1233 1.362 . S
C1234 C1237 1.409 . S
C1235 H1227 0.930 1_545 S
C1235 C1236 1.355 . S
C1235 C1237 1.415 . S
C1236 C1235 1.355 . S
C1236 C1238 1.419 . S
C1237 C1232 1.425 . S
C1237 C1234 1.409 . S
C1237 C1235 1.415 . S
C1238 H1228 0.930 . S
C1238 C1236 1.419 . S
C1238 C1239 1.362 . S
C1239 H1229 0.930 . S
C1239 C1232 1.409 . S
C1239 C1238 1.362 . S
H1240 C1246 0.930 . S
H1241 C1249 0.930 . S
H1242 C1250 0.930 . S
H1243 C1251 0.930 . S
H1244 C1254 0.930 . S
H1245 C1255 0.930 . S
C1246 H1240 0.930 . S
C1246 C1247 1.355 1_455 S
C1246 C1248 1.415 . S
C1247 C1246 1.355 1_655 S
C1247 C1249 1.419 . S
C1248 C1246 1.415 . S
C1248 C1253 1.425 1_455 S
C1248 C1255 1.409 . S
C1249 H1241 0.930 . S
C1249 C1247 1.419 . S
C1249 C1250 1.362 . S
C1250 H1242 0.930 . S
C1250 C1249 1.362 . S
C1250 C1253 1.409 . S
C1251 H1243 0.930 . S
C1251 C1252 1.355 . S
C1251 C1253 1.415 . S
C1252 C1251 1.355 . S
C1252 C1254 1.419 1_655 S
C1253 C1248 1.425 1_655 S
C1253 C1250 1.409 . S
C1253 C1251 1.415 . S
C1254 H1244 0.930 . S
C1254 C1252 1.419 1_455 S
C1254 C1255 1.362 . S
C1255 H1245 0.930 . S
C1255 C1248 1.409 . S
C1255 C1254 1.362 . S
H1256 C1262 0.930 . S
H1257 C1265 0.930 . S
H1258 C1266 0.930 . S
H1259 C1267 0.930 . S
H1260 C1270 0.930 . S
H1261 C1271 0.930 . S
C1262 H1256 0.930 . S
C1262 C1263 1.355 . S
C1262 C1264 1.415 . S
C1263 C1262 1.355 . S
C1263 C1265 1.419 . S
C1264 C1262 1.415 . S
C1264 C1269 1.425 . S
C1264 C1271 1.409 . S
C1265 H1257 0.930 . S
C1265 C1263 1.419 . S
C1265 C1266 1.362 . S
C1266 H1258 0.930 . S
C1266 C1265 1.362 . S
C1266 C1269 1.409 . S
C1267 H1259 0.930 . S
C1267 C1268 1.355 . S
C1267 C1269 1.415 . S
C1268 C1267 1.355 . S
C1268 C1270 1.419 . S
C1269 C1264 1.425 . S
C1269 C1266 1.409 . S
C1269 C1267 1.415 . S
C1270 H1260 0.930 . S
C1270 C1268 1.419 . S
C1270 C1271 1.362 . S
C1271 H1261 0.930 . S
C1271 C1264 1.409 . S
C1271 C1270 1.362 . S
H1272 C1278 0.930 . S
H1273 C1281 0.930 . S
H1274 C1282 0.930 . S
H1275 C1283 0.930 . S
H1276 C1286 0.930 . S
H1277 C1287 0.930 . S
C1278 H1272 0.930 . S
C1278 C1279 1.355 . S
C1278 C1280 1.415 . S
C1279 C1278 1.355 . S
C1279 C1281 1.419 . S
C1280 C1278 1.415 . S
C1280 C1285 1.425 . S
C1280 C1287 1.409 . S
C1281 H1273 0.930 . S
C1281 C1279 1.419 . S
C1281 C1282 1.362 . S
C1282 H1274 0.930 . S
C1282 C1281 1.362 . S
C1282 C1285 1.409 . S
C1283 H1275 0.930 . S
C1283 C1284 1.355 . S
C1283 C1285 1.415 . S
C1284 C1283 1.355 . S
C1284 C1286 1.419 . S
C1285 C1280 1.425 . S
C1285 C1282 1.409 . S
C1285 C1283 1.415 . S
C1286 H1276 0.930 . S
C1286 C1284 1.419 . S
C1286 C1287 1.362 . S
C1287 H1277 0.930 . S
C1287 C1280 1.409 . S
C1287 C1286 1.362 . S
H1288 C1294 0.930 . S
H1289 C1297 0.930 . S
H1290 C1298 0.930 . S
H1291 C1299 0.930 . S
H1292 C1302 0.930 . S
H1293 C1303 0.930 . S
C1294 H1288 0.930 . S
C1294 C1295 1.355 . S
C1294 C1296 1.415 . S
C1295 C1294 1.355 . S
C1295 C1297 1.419 . S
C1296 C1294 1.415 . S
C1296 C1301 1.425 . S
C1296 C1303 1.409 . S
C1297 H1289 0.930 . S
C1297 C1295 1.419 . S
C1297 C1298 1.362 . S
C1298 H1290 0.930 . S
C1298 C1297 1.362 . S
C1298 C1301 1.409 . S
C1299 H1291 0.930 . S
C1299 C1300 1.355 . S
C1299 C1301 1.415 . S
C1300 C1299 1.355 . S
C1300 C1302 1.419 . S
C1301 C1296 1.425 . S
C1301 C1298 1.409 . S
C1301 C1299 1.415 . S
C1302 H1292 0.930 . S
C1302 C1300 1.419 . S
C1302 C1303 1.362 . S
C1303 H1293 0.930 . S
C1303 C1296 1.409 . S
C1303 C1302 1.362 . S
H1304 C1310 0.930 . S
H1305 C1313 0.930 . S
H1306 C1314 0.930 . S
H1307 C1315 0.930 . S
H1308 C1318 0.930 . S
H1309 C1319 0.930 . S
C1310 H1304 0.930 . S
C1310 C1311 1.355 . S
C1310 C1312 1.415 . S
C1311 C1310 1.355 . S
C1311 C1313 1.419 . S
C1312 C1310 1.415 . S
C1312 C1317 1.425 . S
C1312 C1319 1.409 . S
C1313 H1305 0.930 . S
C1313 C1311 1.419 . S
C1313 C1314 1.362 . S
C1314 H1306 0.930 . S
C1314 C1313 1.362 . S
C1314 C1317 1.409 . S
C1315 H1307 0.930 . S
C1315 C1316 1.355 . S
C1315 C1317 1.415 . S
C1316 C1315 1.355 . S
C1316 C1318 1.419 . S
C1317 C1312 1.425 . S
C1317 C1314 1.409 . S
C1317 C1315 1.415 . S
C1318 H1308 0.930 . S
C1318 C1316 1.419 . S
C1318 C1319 1.362 . S
C1319 H1309 0.930 . S
C1319 C1312 1.409 . S
C1319 C1318 1.362 . S
H1320 C1326 0.930 . S
H1321 C1329 0.930 . S
H1322 C1330 0.930 . S
H1323 C1331 0.930 . S
H1324 C1334 0.930 . S
H1325 C1335 0.930 . S
C1326 H1320 0.930 . S
C1326 C1327 1.355 . S
C1326 C1328 1.415 . S
C1327 C1326 1.355 . S
C1327 C1329 1.419 . S
C1328 C1326 1.415 . S
C1328 C1333 1.425 . S
C1328 C1335 1.409 . S
C1329 H1321 0.930 . S
C1329 C1327 1.419 . S
C1329 C1330 1.362 . S
C1330 H1322 0.930 . S
C1330 C1329 1.362 . S
C1330 C1333 1.409 . S
C1331 H1323 0.930 . S
C1331 C1332 1.355 . S
C1331 C1333 1.415 . S
C1332 C1331 1.355 . S
C1332 C1334 1.419 . S
C1333 C1328 1.425 . S
C1333 C1330 1.409 . S
C1333 C1331 1.415 . S
C1334 H1324 0.930 . S
C1334 C1332 1.419 . S
C1334 C1335 1.362 . S
C1335 H1325 0.930 . S
C1335 C1328 1.409 . S
C1335 C1334 1.362 . S
H1336 C1342 0.930 . S
H1337 C1345 0.930 . S
H1338 C1346 0.930 . S
H1339 C1347 0.930 . S
H1340 C1350 0.930 . S
H1341 C1351 0.930 . S
C1342 H1336 0.930 . S
C1342 C1343 1.355 . S
C1342 C1344 1.415 . S
C1343 C1342 1.355 . S
C1343 C1345 1.419 . S
C1344 C1342 1.415 . S
C1344 C1349 1.425 . S
C1344 C1351 1.409 . S
C1345 H1337 0.930 . S
C1345 C1343 1.419 . S
C1345 C1346 1.362 . S
C1346 H1338 0.930 . S
C1346 C1345 1.362 . S
C1346 C1349 1.409 . S
C1347 H1339 0.930 . S
C1347 C1348 1.355 . S
C1347 C1349 1.415 . S
C1348 C1347 1.355 . S
C1348 C1350 1.419 . S
C1349 C1344 1.425 . S
C1349 C1346 1.409 . S
C1349 C1347 1.415 . S
C1350 H1340 0.930 . S
C1350 C1348 1.419 . S
C1350 C1351 1.362 . S
C1351 H1341 0.930 . S
C1351 C1344 1.409 . S
C1351 C1350 1.362 . S
H1352 C1358 0.930 . S
H1353 C1361 0.930 . S
H1354 C1362 0.930 . S
H1355 C1363 0.930 . S
H1356 C1366 0.930 . S
H1357 C1367 0.930 . S
C1358 H1352 0.930 . S
C1358 C1359 1.355 . S
C1358 C1360 1.415 . S
C1359 C1358 1.355 . S
C1359 C1361 1.419 . S
C1360 C1358 1.415 . S
C1360 C1365 1.425 . S
C1360 C1367 1.409 . S
C1361 H1353 0.930 . S
C1361 C1359 1.419 . S
C1361 C1362 1.362 . S
C1362 H1354 0.930 . S
C1362 C1361 1.362 . S
C1362 C1365 1.409 . S
C1363 H1355 0.930 . S
C1363 C1364 1.355 . S
C1363 C1365 1.415 . S
C1364 C1363 1.355 . S
C1364 C1366 1.419 . S
C1365 C1360 1.425 . S
C1365 C1362 1.409 . S
C1365 C1363 1.415 . S
C1366 H1356 0.930 . S
C1366 C1364 1.419 . S
C1366 C1367 1.362 . S
C1367 H1357 0.930 . S
C1367 C1360 1.409 . S
C1367 C1366 1.362 . S
H1368 C1374 0.930 . S
H1369 C1377 0.930 . S
H1370 C1378 0.930 . S
H1371 C1379 0.930 . S
H1372 C1382 0.930 . S
H1373 C1383 0.930 . S
C1374 H1368 0.930 . S
C1374 C1375 1.355 . S
C1374 C1376 1.415 . S
C1375 C1374 1.355 . S
C1375 C1377 1.419 . S
C1376 C1374 1.415 . S
C1376 C1381 1.425 . S
C1376 C1383 1.409 . S
C1377 H1369 0.930 . S
C1377 C1375 1.419 . S
C1377 C1378 1.362 . S
C1378 H1370 0.930 . S
C1378 C1377 1.362 . S
C1378 C1381 1.409 . S
C1379 H1371 0.930 . S
C1379 C1380 1.355 . S
C1379 C1381 1.415 . S
C1380 C1379 1.355 . S
C1380 C1382 1.419 . S
C1381 C1376 1.425 . S
C1381 C1378 1.409 . S
C1381 C1379 1.415 . S
C1382 H1372 0.930 . S
C1382 C1380 1.419 . S
C1382 C1383 1.362 . S
C1383 H1373 0.930 . S
C1383 C1376 1.409 . S
C1383 C1382 1.362 . S
H1384 C1390 0.930 . S
H1385 C1393 0.930 . S
H1386 C1394 0.930 . S
H1387 C1395 0.930 . S
H1388 C1398 0.930 . S
H1389 C1399 0.930 . S
C1390 H1384 0.930 . S
C1390 C1391 1.355 . S
C1390 C1392 1.415 . S
C1391 C1390 1.355 . S
C1391 C1393 1.419 . S
C1392 C1390 1.415 . S
C1392 C1397 1.425 . S
C1392 C1399 1.409 . S
C1393 H1385 0.930 . S
C1393 C1391 1.419 . S
C1393 C1394 1.362 . S
C1394 H1386 0.930 . S
C1394 C1393 1.362 . S
C1394 C1397 1.409 . S
C1395 H1387 0.930 . S
C1395 C1396 1.355 . S
C1395 C1397 1.415 . S
C1396 C1395 1.355 . S
C1396 C1398 1.419 . S
C1397 C1392 1.425 . S
C1397 C1394 1.409 . S
C1397 C1395 1.415 . S
C1398 H1388 0.930 . S
C1398 C1396 1.419 . S
C1398 C1399 1.362 . S
C1399 H1389 0.930 . S
C1399 C1392 1.409 . S
C1399 C1398 1.362 . S
H1400 C1406 0.930 . S
H1401 C1409 0.930 . S
H1402 C1410 0.930 . S
H1403 C1411 0.930 . S
H1404 C1414 0.930 . S
H1405 C1415 0.930 . S
C1406 H1400 0.930 . S
C1406 C1407 1.355 . S
C1406 C1408 1.415 . S
C1407 C1406 1.355 . S
C1407 C1409 1.419 . S
C1408 C1406 1.415 . S
C1408 C1413 1.425 . S
C1408 C1415 1.409 . S
C1409 H1401 0.930 . S
C1409 C1407 1.419 . S
C1409 C1410 1.362 . S
C1410 H1402 0.930 . S
C1410 C1409 1.362 . S
C1410 C1413 1.409 . S
C1411 H1403 0.930 . S
C1411 C1412 1.355 . S
C1411 C1413 1.415 . S
C1412 C1411 1.355 . S
C1412 C1414 1.419 . S
C1413 C1408 1.425 . S
C1413 C1410 1.409 . S
C1413 C1411 1.415 . S
C1414 H1404 0.930 . S
C1414 C1412 1.419 . S
C1414 C1415 1.362 . S
C1415 H1405 0.930 . S
C1415 C1408 1.409 . S
C1415 C1414 1.362 . S
H1416 C1422 0.930 . S
H1417 C1425 0.930 . S
H1418 C1426 0.930 . S
H1419 C1427 0.930 . S
H1420 C1430 0.930 . S
H1421 C1431 0.930 . S
C1422 H1416 0.930 . S
C1422 C1423 1.355 . S
C1422 C1424 1.415 . S
C1423 C1422 1.355 . S
C1423 C1425 1.419 . S
C1424 C1422 1.415 . S
C1424 C1429 1.425 . S
C1424 C1431 1.409 . S
C1425 H1417 0.930 . S
C1425 C1423 1.419 . S
C1425 C1426 1.362 . S
C1426 H1418 0.930 . S
C1426 C1425 1.362 . S
C1426 C1429 1.409 . S
C1427 H1419 0.930 . S
C1427 C1428 1.355 . S
C1427 C1429 1.415 . S
C1428 C1427 1.355 . S
C1428 C1430 1.419 . S
C1429 C1424 1.425 . S
C1429 C1426 1.409 . S
C1429 C1427 1.415 . S
C1430 H1420 0.930 . S
C1430 C1428 1.419 . S
C1430 C1431 1.362 . S
C1431 H1421 0.930 . S
C1431 C1424 1.409 . S
C1431 C1430 1.362 . S
H1432 C1438 0.930 . S
H1433 C1441 0.930 . S
H1434 C1442 0.930 . S
H1435 C1443 0.930 . S
H1436 C1446 0.930 . S
H1437 C1447 0.930 . S
C1438 H1432 0.930 . S
C1438 C1439 1.355 . S
C1438 C1440 1.415 . S
C1439 C1438 1.355 . S
C1439 C1441 1.419 . S
C1440 C1438 1.415 . S
C1440 C1445 1.425 . S
C1440 C1447 1.409 . S
C1441 H1433 0.930 . S
C1441 C1439 1.419 . S
C1441 C1442 1.362 . S
C1442 H1434 0.930 . S
C1442 C1441 1.362 . S
C1442 C1445 1.409 . S
C1443 H1435 0.930 . S
C1443 C1444 1.355 . S
C1443 C1445 1.415 . S
C1444 C1443 1.355 . S
C1444 C1446 1.419 . S
C1445 C1440 1.425 . S
C1445 C1442 1.409 . S
C1445 C1443 1.415 . S
C1446 H1436 0.930 . S
C1446 C1444 1.419 . S
C1446 C1447 1.362 . S
C1447 H1437 0.930 . S
C1447 C1440 1.409 . S
C1447 C1446 1.362 . S
H1448 C1454 0.930 . S
H1449 C1457 0.930 . S
H1450 C1458 0.930 . S
H1451 C1459 0.930 . S
H1452 C1462 0.930 . S
H1453 C1463 0.930 . S
C1454 H1448 0.930 . S
C1454 C1455 1.355 . S
C1454 C1456 1.415 . S
C1455 C1454 1.355 . S
C1455 C1457 1.419 . S
C1456 C1454 1.415 . S
C1456 C1461 1.425 . S
C1456 C1463 1.409 . S
C1457 H1449 0.930 . S
C1457 C1455 1.419 . S
C1457 C1458 1.362 . S
C1458 H1450 0.930 . S
C1458 C1457 1.362 . S
C1458 C1461 1.409 . S
C1459 H1451 0.930 . S
C1459 C1460 1.355 . S
C1459 C1461 1.415 . S
C1460 C1459 1.355 . S
C1460 C1462 1.419 . S
C1461 C1456 1.425 . S
C1461 C1458 1.409 . S
C1461 C1459 1.415 . S
C1462 H1452 0.930 . S
C1462 C1460 1.419 . S
C1462 C1463 1.362 . S
C1463 H1453 0.930 . S
C1463 C1456 1.409 . S
C1463 C1462 1.362 . S
H1464 C1470 0.930 . S
H1465 C1473 0.930 . S
H1466 C1474 0.930 . S
H1467 C1475 0.930 . S
H1468 C1478 0.930 . S
H1469 C1479 0.930 . S
C1470 H1464 0.930 . S
C1470 C1471 1.355 . S
C1470 C1472 1.415 . S
C1471 C1470 1.355 . S
C1471 C1473 1.419 . S
C1472 C1470 1.415 . S
C1472 C1477 1.425 . S
C1472 C1479 1.409 . S
C1473 H1465 0.930 . S
C1473 C1471 1.419 . S
C1473 C1474 1.362 . S
C1474 H1466 0.930 . S
C1474 C1473 1.362 . S
C1474 C1477 1.409 . S
C1475 H1467 0.930 . S
C1475 C1476 1.355 . S
C1475 C1477 1.415 . S
C1476 C1475 1.355 . S
C1476 C1478 1.419 . S
C1477 C1472 1.425 . S
C1477 C1474 1.409 . S
C1477 C1475 1.415 . S
C1478 H1468 0.930 . S
C1478 C1476 1.419 . S
C1478 C1479 1.362 . S
C1479 H1469 0.930 . S
C1479 C1472 1.409 . S
C1479 C1478 1.362 . S
H1480 C1486 0.930 . S
H1481 C1489 0.930 . S
H1482 C1490 0.930 . S
H1483 C1491 0.930 . S
H1484 C1494 0.930 . S
H1485 C1495 0.930 . S
C1486 H1480 0.930 . S
C1486 C1487 1.355 . S
C1486 C1488 1.415 . S
C1487 C1486 1.355 . S
C1487 C1489 1.419 . S
C1488 C1486 1.415 . S
C1488 C1493 1.425 . S
C1488 C1495 1.409 . S
C1489 H1481 0.930 . S
C1489 C1487 1.419 . S
C1489 C1490 1.362 . S
C1490 H1482 0.930 . S
C1490 C1489 1.362 . S
C1490 C1493 1.409 . S
C1491 H1483 0.930 . S
C1491 C1492 1.355 . S
C1491 C1493 1.415 . S
C1492 C1491 1.355 . S
C1492 C1494 1.419 . S
C1493 C1488 1.425 . S
C1493 C1490 1.409 . S
C1493 C1491 1.415 . S
C1494 H1484 0.930 . S
C1494 C1492 1.419 . S
C1494 C1495 1.362 . S
C1495 H1485 0.930 . S
C1495 C1488 1.409 . S
C1495 C1494 1.362 . S
H1496 C1502 0.930 . S
H1497 C1505 0.930 . S
H1498 C1506 0.930 . S
H1499 C1507 0.930 . S
H1500 C1510 0.930 . S
H1501 C1511 0.930 . S
C1502 H1496 0.930 . S
C1502 C1503 1.355 . S
C1502 C1504 1.415 . S
C1503 C1502 1.355 . S
C1503 C1505 1.419 . S
C1504 C1502 1.415 . S
C1504 C1509 1.425 . S
C1504 C1511 1.409 . S
C1505 H1497 0.930 . S
C1505 C1503 1.419 . S
C1505 C1506 1.362 . S
C1506 H1498 0.930 . S
C1506 C1505 1.362 . S
C1506 C1509 1.409 . S
C1507 H1499 0.930 . S
C1507 C1508 1.355 . S
C1507 C1509 1.415 . S
C1508 C1507 1.355 . S
C1508 C1510 1.419 . S
C1509 C1504 1.425 . S
C1509 C1506 1.409 . S
C1509 C1507 1.415 . S
C1510 H1500 0.930 . S
C1510 C1508 1.419 . S
C1510 C1511 1.362 . S
C1511 H1501 0.930 . S
C1511 C1504 1.409 . S
C1511 C1510 1.362 . S
H1512 C1518 0.930 . S
H1513 C1521 0.930 . S
H1514 C1522 0.930 . S
H1515 C1523 0.930 . S
H1516 C1526 0.930 . S
H1517 C1527 0.930 . S
C1518 H1512 0.930 . S
C1518 C1519 1.355 . S
C1518 C1520 1.415 . S
C1519 C1518 1.355 . S
C1519 C1521 1.419 . S
C1520 C1518 1.415 . S
C1520 C1525 1.425 . S
C1520 C1527 1.409 . S
C1521 H1513 0.930 . S
C1521 C1519 1.419 . S
C1521 C1522 1.362 . S
C1522 H1514 0.930 . S
C1522 C1521 1.362 . S
C1522 C1525 1.409 . S
C1523 H1515 0.930 . S
C1523 C1524 1.355 . S
C1523 C1525 1.415 . S
C1524 C1523 1.355 . S
C1524 C1526 1.419 . S
C1525 C1520 1.425 . S
C1525 C1522 1.409 . S
C1525 C1523 1.415 . S
C1526 H1516 0.930 . S
C1526 C1524 1.419 . S
C1526 C1527 1.362 . S
C1527 H1517 0.930 . S
C1527 C1520 1.409 . S
C1527 C1526 1.362 . S
H1528 C1534 0.930 . S
H1529 C1537 0.930 . S
H1530 C1538 0.930 . S
H1531 C1539 0.930 . S
H1532 C1542 0.930 . S
H1533 C1543 0.930 . S
C1534 H1528 0.930 . S
C1534 C1535 1.355 . S
C1534 C1536 1.415 . S
C1535 C1534 1.355 . S
C1535 C1537 1.419 . S
C1536 C1534 1.415 . S
C1536 C1541 1.425 . S
C1536 C1543 1.409 . S
C1537 H1529 0.930 . S
C1537 C1535 1.419 . S
C1537 C1538 1.362 . S
C1538 H1530 0.930 . S
C1538 C1537 1.362 . S
C1538 C1541 1.409 . S
C1539 H1531 0.930 . S
C1539 C1540 1.355 . S
C1539 C1541 1.415 . S
C1540 C1539 1.355 . S
C1540 C1542 1.419 . S
C1541 C1536 1.425 . S
C1541 C1538 1.409 . S
C1541 C1539 1.415 . S
C1542 H1532 0.930 . S
C1542 C1540 1.419 . S
C1542 C1543 1.362 . S
C1543 H1533 0.930 . S
C1543 C1536 1.409 . S
C1543 C1542 1.362 . S
H1544 C1550 0.930 . S
H1545 C1553 0.930 . S
H1546 C1554 0.930 . S
H1547 C1555 0.930 . S
H1548 C1558 0.930 . S
H1549 C1559 0.930 . S
C1550 H1544 0.930 . S
C1550 C1551 1.355 . S
C1550 C1552 1.415 . S
C1551 C1550 1.355 . S
C1551 C1553 1.419 . S
C1552 C1550 1.415 . S
C1552 C1557 1.425 . S
C1552 C1559 1.409 . S
C1553 H1545 0.930 . S
C1553 C1551 1.419 . S
C1553 C1554 1.362 . S
C1554 H1546 0.930 . S
C1554 C1553 1.362 . S
C1554 C1557 1.409 . S
C1555 H1547 0.930 . S
C1555 C1556 1.355 . S
C1555 C1557 1.415 . S
C1556 C1555 1.355 . S
C1556 C1558 1.419 . S
C1557 C1552 1.425 . S
C1557 C1554 1.409 . S
C1557 C1555 1.415 . S
C1558 H1548 0.930 . S
C1558 C1556 1.419 . S
C1558 C1559 1.362 . S
C1559 H1549 0.930 . S
C1559 C1552 1.409 . S
C1559 C1558 1.362 . S
H1560 C1566 0.930 . S
H1561 C1569 0.930 . S
H1562 C1570 0.930 . S
H1563 C1571 0.930 . S
H1564 C1574 0.930 . S
H1565 C1575 0.930 . S
C1566 H1560 0.930 . S
C1566 C1567 1.355 . S
C1566 C1568 1.415 . S
C1567 C1566 1.355 . S
C1567 C1569 1.419 . S
C1568 C1566 1.415 . S
C1568 C1573 1.425 . S
C1568 C1575 1.409 . S
C1569 H1561 0.930 . S
C1569 C1567 1.419 . S
C1569 C1570 1.362 . S
C1570 H1562 0.930 . S
C1570 C1569 1.362 . S
C1570 C1573 1.409 . S
C1571 H1563 0.930 . S
C1571 C1572 1.355 . S
C1571 C1573 1.415 . S
C1572 C1571 1.355 . S
C1572 C1574 1.419 . S
C1573 C1568 1.425 . S
C1573 C1570 1.409 . S
C1573 C1571 1.415 . S
C1574 H1564 0.930 . S
C1574 C1572 1.419 . S
C1574 C1575 1.362 . S
C1575 H1565 0.930 . S
C1575 C1568 1.409 . S
C1575 C1574 1.362 . S
H1576 C1582 0.930 . S
H1577 C1585 0.930 . S
H1578 C1586 0.930 . S
H1579 C1587 0.930 . S
H1580 C1590 0.930 . S
H1581 C1591 0.930 . S
C1582 H1576 0.930 . S
C1582 C1583 1.355 . S
C1582 C1584 1.415 . S
C1583 C1582 1.355 . S
C1583 C1585 1.419 . S
C1584 C1582 1.415 . S
C1584 C1589 1.425 . S
C1584 C1591 1.409 . S
C1585 H1577 0.930 . S
C1585 C1583 1.419 . S
C1585 C1586 1.362 . S
C1586 H1578 0.930 . S
C1586 C1585 1.362 . S
C1586 C1589 1.409 . S
C1587 H1579 0.930 . S
C1587 C1588 1.355 . S
C1587 C1589 1.415 . S
C1588 C1587 1.355 . S
C1588 C1590 1.419 . S
C1589 C1584 1.425 . S
C1589 C1586 1.409 . S
C1589 C1587 1.415 . S
C1590 H1580 0.930 . S
C1590 C1588 1.419 . S
C1590 C1591 1.362 . S
C1591 H1581 0.930 . S
C1591 C1584 1.409 . S
C1591 C1590 1.362 . S
H1592 C1598 0.930 . S
H1593 C1601 0.930 . S
H1594 C1602 0.930 . S
H1595 C1603 0.930 . S
H1596 C1606 0.930 . S
H1597 C1607 0.930 . S
C1598 H1592 0.930 . S
C1598 C1599 1.355 . S
C1598 C1600 1.415 . S
C1599 C1598 1.355 . S
C1599 C1601 1.419 . S
C1600 C1598 1.415 . S
C1600 C1605 1.425 . S
C1600 C1607 1.409 . S
C1601 H1593 0.930 . S
C1601 C1599 1.419 . S
C1601 C1602 1.362 . S
C1602 H1594 0.930 . S
C1602 C1601 1.362 . S
C1602 C1605 1.409 . S
C1603 H1595 0.930 . S
C1603 C1604 1.355 . S
C1603 C1605 1.415 . S
C1604 C1603 1.355 . S
C1604 C1606 1.419 . S
C1605 C1600 1.425 . S
C1605 C1602 1.409 . S
C1605 C1603 1.415 . S
C1606 H1596 0.930 . S
C1606 C1604 1.419 . S
C1606 C1607 1.362 . S
C1607 H1597 0.930 . S
C1607 C1600 1.409 . S
C1607 C1606 1.362 . S
H1608 C1614 0.930 . S
H1609 C1617 0.930 . S
H1610 C1618 0.930 . S
H1611 C1619 0.930 . S
H1612 C1622 0.930 . S
H1613 C1623 0.930 . S
C1614 H1608 0.930 . S
C1614 C1615 1.355 . S
C1614 C1616 1.415 . S
C1615 C1614 1.355 . S
C1615 C1617 1.419 . S
C1616 C1614 1.415 . S
C1616 C1621 1.425 . S
C1616 C1623 1.409 . S
C1617 H1609 0.930 . S
C1617 C1615 1.419 . S
C1617 C1618 1.362 . S
C1618 H1610 0.930 . S
C1618 C1617 1.362 . S
C1618 C1621 1.409 . S
C1619 H1611 0.930 . S
C1619 C1620 1.355 . S
C1619 C1621 1.415 . S
C1620 C1619 1.355 . S
C1620 C1622 1.419 . S
C1621 C1616 1.425 . S
C1621 C1618 1.409 . S
C1621 C1619 1.415 . S
C1622 H1612 0.930 . S
C1622 C1620 1.419 . S
C1622 C1623 1.362 . S
C1623 H1613 0.930 . S
C1623 C1616 1.409 . S
C1623 C1622 1.362 . S
H1624 C1630 0.930 . S
H1625 C1633 0.930 . S
H1626 C1634 0.930 . S
H1627 C1635 0.930 . S
H1628 C1638 0.930 . S
H1629 C1639 0.930 . S
C1630 H1624 0.930 . S
C1630 C1631 1.355 . S
C1630 C1632 1.415 . S
C1631 C1630 1.355 . S
C1631 C1633 1.419 . S
C1632 C1630 1.415 . S
C1632 C1637 1.425 . S
C1632 C1639 1.409 . S
C1633 H1625 0.930 . S
C1633 C1631 1.419 . S
C1633 C1634 1.362 . S
C1634 H1626 0.930 . S
C1634 C1633 1.362 . S
C1634 C1637 1.409 . S
C1635 H1627 0.930 . S
C1635 C1636 1.355 . S
C1635 C1637 1.415 . S
C1636 C1635 1.355 . S
C1636 C1638 1.419 . S
C1637 C1632 1.425 . S
C1637 C1634 1.409 . S
C1637 C1635 1.415 . S
C1638 H1628 0.930 . S
C1638 C1636 1.419 . S
C1638 C1639 1.362 . S
C1639 H1629 0.930 . S
C1639 C1632 1.409 . S
C1639 C1638 1.362 . S
H1640 C1646 0.930 . S
H1641 C1649 0.930 . S
H1642 C1650 0.930 . S
H1643 C1651 0.930 . S
H1644 C1654 0.930 . S
H1645 C1655 0.930 . S
C1646 H1640 0.930 . S
C1646 C1647 1.355 . S
C1646 C1648 1.415 . S
C1647 C1646 1.355 . S
C1647 C1649 1.419 . S
C1648 C1646 1.415 . S
C1648 C1653 1.425 . S
C1648 C1655 1.409 . S
C1649 H1641 0.930 . S
C1649 C1647 1.419 . S
C1649 C1650 1.362 . S
C1650 H1642 0.930 . S
C1650 C1649 1.362 . S
C1650 C1653 1.409 . S
C1651 H1643 0.930 . S
C1651 C1652 1.355 . S
C1651 C1653 1.415 . S
C1652 C1651 1.355 . S
C1652 C1654 1.419 . S
C1653 C1648 1.425 . S
C1653 C1650 1.409 . S
C1653 C1651 1.415 . S
C1654 H1644 0.930 . S
C1654 C1652 1.419 . S
C1654 C1655 1.362 . S
C1655 H1645 0.930 . S
C1655 C1648 1.409 . S
C1655 C1654 1.362 . S
H1656 C1662 0.930 . S
H1657 C1665 0.930 . S
H1658 C1666 0.930 . S
H1659 C1667 0.930 . S
H1660 C1670 0.930 . S
H1661 C1671 0.930 . S
C1662 H1656 0.930 . S
C1662 C1663 1.355 . S
C1662 C1664 1.415 . S
C1663 C1662 1.355 . S
C1663 C1665 1.419 . S
C1664 C1662 1.415 . S
C1664 C1669 1.425 . S
C1664 C1671 1.409 . S
C1665 H1657 0.930 . S
C1665 C1663 1.419 . S
C1665 C1666 1.362 . S
C1666 H1658 0.930 . S
C1666 C1665 1.362 . S
C1666 C1669 1.409 . S
C1667 H1659 0.930 . S
C1667 C1668 1.355 . S
C1667 C1669 1.415 . S
C1668 C1667 1.355 . S
C1668 C1670 1.419 . S
C1669 C1664 1.425 . S
C1669 C1666 1.409 . S
C1669 C1667 1.415 . S
C1670 H1660 0.930 . S
C1670 C1668 1.419 . S
C1670 C1671 1.362 . S
C1671 H1661 0.930 . S
C1671 C1664 1.409 . S
C1671 C1670 1.362 . S
H1672 C1678 0.930 . S
H1673 C1681 0.930 . S
H1674 C1682 0.930 . S
H1675 C1683 0.930 . S
H1676 C1686 0.930 . S
H1677 C1687 0.930 . S
C1678 H1672 0.930 . S
C1678 C1679 1.355 . S
C1678 C1680 1.415 . S
C1679 C1678 1.355 . S
C1679 C1681 1.419 . S
C1680 C1678 1.415 . S
C1680 C1685 1.425 . S
C1680 C1687 1.409 . S
C1681 H1673 0.930 . S
C1681 C1679 1.419 . S
C1681 C1682 1.362 . S
C1682 H1674 0.930 . S
C1682 C1681 1.362 . S
C1682 C1685 1.409 . S
C1683 H1675 0.930 . S
C1683 C1684 1.355 . S
C1683 C1685 1.415 . S
C1684 C1683 1.355 . S
C1684 C1686 1.419 . S
C1685 C1680 1.425 . S
C1685 C1682 1.409 . S
C1685 C1683 1.415 . S
C1686 H1676 0.930 . S
C1686 C1684 1.419 . S
C1686 C1687 1.362 . S
C1687 H1677 0.930 . S
C1687 C1680 1.409 . S
C1687 C1686 1.362 . S
H1688 C1694 0.930 . S
H1689 C1697 0.930 . S
H1690 C1698 0.930 . S
H1691 C1699 0.930 . S
H1692 C1702 0.930 . S
H1693 C1703 0.930 . S
C1694 H1688 0.930 . S
C1694 C1695 1.355 . S
C1694 C1696 1.415 . S
C1695 C1694 1.355 . S
C1695 C1697 1.419 . S
C1696 C1694 1.415 . S
C1696 C1701 1.425 . S
C1696 C1703 1.409 . S
C1697 H1689 0.930 . S
C1697 C1695 1.419 . S
C1697 C1698 1.362 . S
C1698 H1690 0.930 . S
C1698 C1697 1.362 . S
C1698 C1701 1.409 . S
C1699 H1691 0.930 . S
C1699 C1700 1.355 . S
C1699 C1701 1.415 . S
C1700 C1699 1.355 . S
C1700 C1702 1.419 . S
C1701 C1696 1.425 . S
C1701 C1698 1.409 . S
C1701 C1699 1.415 . S
C1702 H1692 0.930 . S
C1702 C1700 1.419 . S
C1702 C1703 1.362 . S
C1703 H1693 0.930 . S
C1703 C1696 1.409 . S
C1703 C1702 1.362 . S
H1704 C1710 0.930 . S
H1705 C1713 0.930 . S
H1706 C1714 0.930 1_554 S
H1707 C1715 0.930 . S
H1708 C1718 0.930 . S
H1709 C1719 0.930 . S
C1710 H1704 0.930 . S
C1710 C1711 1.355 . S
C1710 C1712 1.415 . S
C1711 C1710 1.355 . S
C1711 C1713 1.419 1_556 S
C1712 C1710 1.415 . S
C1712 C1717 1.425 . S
C1712 C1719 1.409 . S
C1713 H1705 0.930 . S
C1713 C1711 1.419 1_554 S
C1713 C1714 1.362 1_554 S
C1714 H1706 0.930 1_556 S
C1714 C1713 1.362 1_556 S
C1714 C1717 1.409 . S
C1715 H1707 0.930 . S
C1715 C1716 1.355 . S
C1715 C1717 1.415 . S
C1716 C1715 1.355 . S
C1716 C1718 1.419 . S
C1717 C1712 1.425 . S
C1717 C1714 1.409 . S
C1717 C1715 1.415 . S
C1718 H1708 0.930 . S
C1718 C1716 1.419 . S
C1718 C1719 1.362 . S
C1719 H1709 0.930 . S
C1719 C1712 1.409 . S
C1719 C1718 1.362 . S
H1720 C1726 0.930 . S
H1721 C1729 0.930 . S
H1722 C1730 0.930 1_554 S
H1723 C1731 0.930 . S
H1724 C1734 0.930 . S
H1725 C1735 0.930 . S
C1726 H1720 0.930 . S
C1726 C1727 1.355 . S
C1726 C1728 1.415 . S
C1727 C1726 1.355 . S
C1727 C1729 1.419 1_556 S
C1728 C1726 1.415 . S
C1728 C1733 1.425 . S
C1728 C1735 1.409 . S
C1729 H1721 0.930 . S
C1729 C1727 1.419 1_554 S
C1729 C1730 1.362 1_554 S
C1730 H1722 0.930 1_556 S
C1730 C1729 1.362 1_556 S
C1730 C1733 1.409 . S
C1731 H1723 0.930 . S
C1731 C1732 1.355 . S
C1731 C1733 1.415 . S
C1732 C1731 1.355 . S
C1732 C1734 1.419 . S
C1733 C1728 1.425 . S
C1733 C1730 1.409 . S
C1733 C1731 1.415 . S
C1734 H1724 0.930 . S
C1734 C1732 1.419 . S
C1734 C1735 1.362 . S
C1735 H1725 0.930 . S
C1735 C1728 1.409 . S
C1735 C1734 1.362 . S
H1736 C1742 0.930 . S
H1737 C1745 0.930 1_554 S
H1738 C1746 0.930 . S
H1739 C1747 0.930 . S
H1740 C1750 0.930 . S
H1741 C1751 0.930 . S
C1742 H1736 0.930 . S
C1742 C1743 1.355 . S
C1742 C1744 1.415 . S
C1743 C1742 1.355 . S
C1743 C1745 1.419 . S
C1744 C1742 1.415 . S
C1744 C1749 1.425 . S
C1744 C1751 1.409 . S
C1745 H1737 0.930 1_556 S
C1745 C1743 1.419 . S
C1745 C1746 1.362 . S
C1746 H1738 0.930 . S
C1746 C1745 1.362 . S
C1746 C1749 1.409 . S
C1747 H1739 0.930 . S
C1747 C1748 1.355 . S
C1747 C1749 1.415 . S
C1748 C1747 1.355 . S
C1748 C1750 1.419 . S
C1749 C1744 1.425 . S
C1749 C1746 1.409 . S
C1749 C1747 1.415 . S
C1750 H1740 0.930 . S
C1750 C1748 1.419 . S
C1750 C1751 1.362 . S
C1751 H1741 0.930 . S
C1751 C1744 1.409 . S
C1751 C1750 1.362 . S
H1752 C1758 0.930 1_554 S
H1753 C1761 0.930 . S
H1754 C1762 0.930 . S
H1755 C1763 0.930 . S
H1756 C1766 0.930 . S
H1757 C1767 0.888 1_554 S
C1758 H1752 0.930 1_556 S
C1758 C1759 1.355 . S
C1758 C1760 1.415 . S
C1759 C1758 1.355 . S
C1759 C1761 1.419 . S
C1760 C1758 1.415 . S
C1760 C1765 1.425 . S
C1760 C1767 1.409 . S
C1761 H1753 0.930 . S
C1761 C1759 1.419 . S
C1761 C1762 1.362 . S
C1762 H1754 0.930 . S
C1762 C1761 1.362 . S
C1762 C1765 1.409 . S
C1763 H1755 0.930 . S
C1763 C1764 1.355 . S
C1763 C1765 1.415 . S
C1764 C1763 1.355 . S
C1764 C1766 1.419 . S
C1765 C1760 1.425 . S
C1765 C1762 1.409 . S
C1765 C1763 1.415 . S
C1766 H1756 0.930 . S
C1766 C1764 1.419 . S
C1766 C1767 1.362 . S
C1767 H1757 0.888 1_556 S
C1767 C1760 1.409 . S
C1767 C1766 1.362 . S
H1768 C1774 0.930 . S
H1769 C1777 0.930 . S
H1770 C1778 0.930 . S
H1771 C1779 0.930 . S
H1772 C1782 0.930 . S
H1773 C1783 0.930 . S
C1774 H1768 0.930 . S
C1774 C1775 1.355 . S
C1774 C1776 1.415 . S
C1775 C1774 1.355 . S
C1775 C1777 1.419 . S
C1776 C1774 1.415 . S
C1776 C1781 1.425 . S
C1776 C1783 1.409 . S
C1777 H1769 0.930 . S
C1777 C1775 1.419 . S
C1777 C1778 1.362 . S
C1778 H1770 0.930 . S
C1778 C1777 1.362 . S
C1778 C1781 1.409 . S
C1779 H1771 0.930 . S
C1779 C1780 1.355 . S
C1779 C1781 1.415 . S
C1780 C1779 1.355 . S
C1780 C1782 1.419 . S
C1781 C1776 1.425 . S
C1781 C1778 1.409 . S
C1781 C1779 1.415 . S
C1782 H1772 0.930 . S
C1782 C1780 1.419 . S
C1782 C1783 1.362 . S
C1783 H1773 0.930 . S
C1783 C1776 1.409 . S
C1783 C1782 1.362 . S
H1784 C1790 0.930 . S
H1785 C1793 0.930 1_554 S
H1786 C1794 0.930 . S
H1787 C1795 0.930 . S
H1788 C1798 0.930 . S
H1789 C1799 0.930 . S
C1790 H1784 0.930 . S
C1790 C1791 1.355 . S
C1790 C1792 1.415 . S
C1791 C1790 1.355 . S
C1791 C1793 1.419 . S
C1792 C1790 1.415 . S
C1792 C1797 1.425 . S
C1792 C1799 1.409 . S
C1793 H1785 0.930 1_556 S
C1793 C1791 1.419 . S
C1793 C1794 1.362 . S
C1794 H1786 0.930 . S
C1794 C1793 1.362 . S
C1794 C1797 1.409 . S
C1795 H1787 0.930 . S
C1795 C1796 1.355 . S
C1795 C1797 1.415 . S
C1796 C1795 1.355 . S
C1796 C1798 1.419 . S
C1797 C1792 1.425 . S
C1797 C1794 1.409 . S
C1797 C1795 1.415 . S
C1798 H1788 0.930 . S
C1798 C1796 1.419 . S
C1798 C1799 1.362 . S
C1799 H1789 0.930 . S
C1799 C1792 1.409 . S
C1799 C1798 1.362 . S
H1800 C1806 0.930 . S
H1801 C1809 0.930 . S
H1802 C1810 0.930 . S
H1803 C1811 0.930 . S
H1804 C1814 0.930 . S
H1805 C1815 0.930 . S
C1806 H1800 0.930 . S
C1806 C1807 1.355 . S
C1806 C1808 1.415 . S
C1807 C1806 1.355 . S
C1807 C1809 1.419 . S
C1808 C1806 1.415 . S
C1808 C1813 1.425 . S
C1808 C1815 1.409 . S
C1809 H1801 0.930 . S
C1809 C1807 1.419 . S
C1809 C1810 1.362 . S
C1810 H1802 0.930 . S
C1810 C1809 1.362 . S
C1810 C1813 1.409 . S
C1811 H1803 0.930 . S
C1811 C1812 1.355 . S
C1811 C1813 1.415 . S
C1812 C1811 1.355 . S
C1812 C1814 1.419 . S
C1813 C1808 1.425 . S
C1813 C1810 1.409 . S
C1813 C1811 1.415 . S
C1814 H1804 0.930 . S
C1814 C1812 1.419 . S
C1814 C1815 1.362 . S
C1815 H1805 0.930 . S
C1815 C1808 1.409 . S
C1815 C1814 1.362 . S
H1816 C1822 0.930 . S
H1817 C1825 0.930 . S
H1818 C1826 0.930 . S
H1819 C1827 0.930 . S
H1820 C1830 0.930 . S
H1821 C1831 0.930 . S
C1822 H1816 0.930 . S
C1822 C1823 1.355 . S
C1822 C1824 1.415 . S
C1823 C1822 1.355 . S
C1823 C1825 1.419 . S
C1824 C1822 1.415 . S
C1824 C1829 1.425 . S
C1824 C1831 1.409 . S
C1825 H1817 0.930 . S
C1825 C1823 1.419 . S
C1825 C1826 1.362 . S
C1826 H1818 0.930 . S
C1826 C1825 1.362 . S
C1826 C1829 1.409 . S
C1827 H1819 0.930 . S
C1827 C1828 1.355 . S
C1827 C1829 1.415 . S
C1828 C1827 1.355 . S
C1828 C1830 1.419 . S
C1829 C1824 1.425 . S
C1829 C1826 1.409 . S
C1829 C1827 1.415 . S
C1830 H1820 0.930 . S
C1830 C1828 1.419 . S
C1830 C1831 1.362 . S
C1831 H1821 0.930 . S
C1831 C1824 1.409 . S
C1831 C1830 1.362 . S
H1832 C1838 0.930 . S
H1833 C1841 0.930 . S
H1834 C1842 0.930 . S
H1835 C1843 0.930 . S
H1836 C1846 0.930 . S
H1837 C1847 0.930 . S
C1838 H1832 0.930 . S
C1838 C1839 1.355 . S
C1838 C1840 1.415 . S
C1839 C1838 1.355 . S
C1839 C1841 1.419 . S
C1840 C1838 1.415 . S
C1840 C1845 1.425 . S
C1840 C1847 1.409 . S
C1841 H1833 0.930 . S
C1841 C1839 1.419 . S
C1841 C1842 1.362 . S
C1842 H1834 0.930 . S
C1842 C1841 1.362 . S
C1842 C1845 1.409 . S
C1843 H1835 0.930 . S
C1843 C1844 1.355 . S
C1843 C1845 1.415 . S
C1844 C1843 1.355 . S
C1844 C1846 1.419 . S
C1845 C1840 1.425 . S
C1845 C1842 1.409 . S
C1845 C1843 1.415 . S
C1846 H1836 0.930 . S
C1846 C1844 1.419 . S
C1846 C1847 1.362 . S
C1847 H1837 0.930 . S
C1847 C1840 1.409 . S
C1847 C1846 1.362 . S
H1848 C1854 0.930 . S
H1849 C1857 0.930 . S
H1850 C1858 0.930 . S
H1851 C1859 0.930 . S
H1852 C1862 0.930 . S
H1853 C1863 0.930 . S
C1854 H1848 0.930 . S
C1854 C1855 1.355 . S
C1854 C1856 1.415 . S
C1855 C1854 1.355 . S
C1855 C1857 1.419 . S
C1856 C1854 1.415 . S
C1856 C1861 1.425 . S
C1856 C1863 1.409 . S
C1857 H1849 0.930 . S
C1857 C1855 1.419 . S
C1857 C1858 1.362 . S
C1858 H1850 0.930 . S
C1858 C1857 1.362 . S
C1858 C1861 1.409 . S
C1859 H1851 0.930 . S
C1859 C1860 1.355 . S
C1859 C1861 1.415 . S
C1860 C1859 1.355 . S
C1860 C1862 1.419 . S
C1861 C1856 1.425 . S
C1861 C1858 1.409 . S
C1861 C1859 1.415 . S
C1862 H1852 0.930 . S
C1862 C1860 1.419 . S
C1862 C1863 1.362 . S
C1863 H1853 0.930 . S
C1863 C1856 1.409 . S
C1863 C1862 1.362 . S
H1864 C1870 0.930 . S
H1865 C1873 0.930 . S
H1866 C1874 0.930 . S
H1867 C1875 0.930 . S
H1868 C1878 0.930 . S
H1869 C1879 0.930 . S
C1870 H1864 0.930 . S
C1870 C1871 1.355 . S
C1870 C1872 1.415 . S
C1871 C1870 1.355 . S
C1871 C1873 1.419 . S
C1872 C1870 1.415 . S
C1872 C1877 1.425 . S
C1872 C1879 1.409 . S
C1873 H1865 0.930 . S
C1873 C1871 1.419 . S
C1873 C1874 1.362 . S
C1874 H1866 0.930 . S
C1874 C1873 1.362 . S
C1874 C1877 1.409 . S
C1875 H1867 0.930 . S
C1875 C1876 1.355 . S
C1875 C1877 1.415 . S
C1876 C1875 1.355 . S
C1876 C1878 1.419 . S
C1877 C1872 1.425 . S
C1877 C1874 1.409 . S
C1877 C1875 1.415 . S
C1878 H1868 0.930 . S
C1878 C1876 1.419 . S
C1878 C1879 1.362 . S
C1879 H1869 0.930 . S
C1879 C1872 1.409 . S
C1879 C1878 1.362 . S
H1880 C1886 0.930 . S
H1881 C1889 0.930 . S
H1882 C1890 0.930 . S
H1883 C1891 0.930 . S
H1884 C1894 0.930 . S
H1885 C1895 0.930 . S
C1886 H1880 0.930 . S
C1886 C1887 1.355 . S
C1886 C1888 1.415 . S
C1887 C1886 1.355 . S
C1887 C1889 1.419 . S
C1888 C1886 1.415 . S
C1888 C1893 1.425 . S
C1888 C1895 1.409 . S
C1889 H1881 0.930 . S
C1889 C1887 1.419 . S
C1889 C1890 1.362 . S
C1890 H1882 0.930 . S
C1890 C1889 1.362 . S
C1890 C1893 1.409 . S
C1891 H1883 0.930 . S
C1891 C1892 1.355 . S
C1891 C1893 1.415 . S
C1892 C1891 1.355 . S
C1892 C1894 1.419 . S
C1893 C1888 1.425 . S
C1893 C1890 1.409 . S
C1893 C1891 1.415 . S
C1894 H1884 0.930 . S
C1894 C1892 1.419 . S
C1894 C1895 1.362 . S
C1895 H1885 0.930 . S
C1895 C1888 1.409 . S
C1895 C1894 1.362 . S
H1896 C1902 0.911 1_655 S
H1897 C1905 0.930 . S
H1898 C1906 0.930 . S
H1899 C1907 0.930 . S
H1900 C1910 0.930 . S
H1901 C1911 0.930 . S
C1902 H1896 0.911 1_455 S
C1902 C1903 1.395 . S
C1902 C1904 1.395 . S
C1903 C1902 1.395 . S
C1903 C1905 1.419 . S
C1904 C1902 1.395 . S
C1904 C1909 1.425 . S
C1904 C1911 1.409 1_455 S
C1905 H1897 0.930 . S
C1905 C1903 1.419 . S
C1905 C1906 1.362 . S
C1906 H1898 0.930 . S
C1906 C1905 1.362 . S
C1906 C1909 1.409 . S
C1907 H1899 0.930 . S
C1907 C1908 1.355 . S
C1907 C1909 1.415 . S
C1908 C1907 1.355 . S
C1908 C1910 1.419 1_455 S
C1909 C1904 1.425 . S
C1909 C1906 1.409 . S
C1909 C1907 1.415 . S
C1910 H1900 0.930 . S
C1910 C1908 1.419 1_655 S
C1910 C1911 1.362 . S
C1911 H1901 0.930 . S
C1911 C1904 1.409 1_655 S
C1911 C1910 1.362 . S
H1912 C1918 0.930 . S
H1913 C1921 0.930 . S
H1914 C1922 0.930 . S
H1915 C1923 0.930 . S
H1916 C1926 0.930 . S
H1917 C1927 0.930 . S
C1918 H1912 0.930 . S
C1918 C1919 1.355 . S
C1918 C1920 1.415 . S
C1919 C1918 1.355 . S
C1919 C1921 1.419 . S
C1920 C1918 1.415 . S
C1920 C1925 1.425 . S
C1920 C1927 1.409 . S
C1921 H1913 0.930 . S
C1921 C1919 1.419 . S
C1921 C1922 1.362 . S
C1922 H1914 0.930 . S
C1922 C1921 1.362 . S
C1922 C1925 1.409 . S
C1923 H1915 0.930 . S
C1923 C1924 1.355 . S
C1923 C1925 1.415 . S
C1924 C1923 1.355 . S
C1924 C1926 1.419 . S
C1925 C1920 1.425 . S
C1925 C1922 1.409 . S
C1925 C1923 1.415 . S
C1926 H1916 0.930 . S
C1926 C1924 1.419 . S
C1926 C1927 1.362 . S
C1927 H1917 0.930 . S
C1927 C1920 1.409 . S
C1927 C1926 1.362 . S
H1928 C1934 0.930 . S
H1929 C1937 0.930 . S
H1930 C1938 0.930 . S
H1931 C1939 0.930 . S
H1932 C1942 0.930 . S
H1933 C1943 0.930 . S
C1934 H1928 0.930 . S
C1934 C1935 1.355 . S
C1934 C1936 1.415 . S
C1935 C1934 1.355 . S
C1935 C1937 1.419 1_565 S
C1936 C1934 1.415 . S
C1936 C1941 1.414 1_565 S
C1936 C1943 1.409 . S
C1937 H1929 0.930 . S
C1937 C1935 1.419 1_545 S
C1937 C1938 1.362 . S
C1938 H1930 0.930 . S
C1938 C1937 1.362 . S
C1938 C1941 1.433 . S
C1939 H1931 0.930 . S
C1939 C1940 1.355 1_545 S
C1939 C1941 1.404 . S
C1940 C1939 1.355 1_565 S
C1940 C1942 1.419 . S
C1941 C1936 1.414 1_545 S
C1941 C1938 1.433 . S
C1941 C1939 1.404 . S
C1942 H1932 0.930 . S
C1942 C1940 1.419 . S
C1942 C1943 1.362 . S
C1943 H1933 0.930 . S
C1943 C1936 1.409 . S
C1943 C1942 1.362 . S
H1944 C1950 0.930 . S
H1945 C1953 0.930 . S
H1946 C1954 0.930 . S
H1947 C1955 0.930 . S
H1948 C1958 0.930 . S
H1949 C1959 0.930 . S
C1950 H1944 0.930 . S
C1950 C1951 1.355 . S
C1950 C1952 1.415 . S
C1951 C1950 1.355 . S
C1951 C1953 1.419 . S
C1952 C1950 1.415 . S
C1952 C1957 1.425 . S
C1952 C1959 1.409 . S
C1953 H1945 0.930 . S
C1953 C1951 1.419 . S
C1953 C1954 1.362 . S
C1954 H1946 0.930 . S
C1954 C1953 1.362 . S
C1954 C1957 1.409 . S
C1955 H1947 0.930 . S
C1955 C1956 1.355 . S
C1955 C1957 1.415 . S
C1956 C1955 1.355 . S
C1956 C1958 1.419 . S
C1957 C1952 1.425 . S
C1957 C1954 1.409 . S
C1957 C1955 1.415 . S
C1958 H1948 0.930 . S
C1958 C1956 1.419 . S
C1958 C1959 1.362 . S
C1959 H1949 0.930 . S
C1959 C1952 1.409 . S
C1959 C1958 1.362 . S
H1960 C1966 0.930 . S
H1961 C1969 0.930 . S
H1962 C1970 0.930 . S
H1963 C1971 0.930 . S
H1964 C1974 0.930 . S
H1965 C1975 0.930 . S
C1966 H1960 0.930 . S
C1966 C1967 1.355 . S
C1966 C1968 1.415 . S
C1967 C1966 1.355 . S
C1967 C1969 1.419 1_455 S
C1968 C1966 1.415 . S
C1968 C1973 1.425 1_455 S
C1968 C1975 1.409 . S
C1969 H1961 0.930 . S
C1969 C1967 1.419 1_655 S
C1969 C1970 1.362 . S
C1970 H1962 0.930 . S
C1970 C1969 1.362 . S
C1970 C1973 1.409 . S
C1971 H1963 0.930 . S
C1971 C1972 1.355 1_655 S
C1971 C1973 1.415 . S
C1972 C1971 1.355 1_455 S
C1972 C1974 1.419 . S
C1973 C1968 1.425 1_655 S
C1973 C1970 1.409 . S
C1973 C1971 1.415 . S
C1974 H1964 0.930 . S
C1974 C1972 1.419 . S
C1974 C1975 1.362 . S
C1975 H1965 0.930 . S
C1975 C1968 1.409 . S
C1975 C1974 1.362 . S
H1976 C1982 0.930 . S
H1977 C1985 0.930 . S
H1978 C1986 0.930 . S
H1979 C1987 0.930 . S
H1980 C1990 0.930 . S
H1981 C1991 0.930 . S
C1982 H1976 0.930 . S
C1982 C1983 1.355 . S
C1982 C1984 1.415 . S
C1983 C1982 1.355 . S
C1983 C1985 1.419 . S
C1984 C1982 1.415 . S
C1984 C1989 1.425 . S
C1984 C1991 1.409 . S
C1985 H1977 0.930 . S
C1985 C1983 1.419 . S
C1985 C1986 1.362 . S
C1986 H1978 0.930 . S
C1986 C1985 1.362 . S
C1986 C1989 1.409 . S
C1987 H1979 0.930 . S
C1987 C1988 1.355 . S
C1987 C1989 1.415 . S
C1988 C1987 1.355 . S
C1988 C1990 1.419 . S
C1989 C1984 1.425 . S
C1989 C1986 1.409 . S
C1989 C1987 1.415 . S
C1990 H1980 0.930 . S
C1990 C1988 1.419 . S
C1990 C1991 1.362 . S
C1991 H1981 0.930 . S
C1991 C1984 1.409 . S
C1991 C1990 1.362 . S
H1992 C1998 0.930 . S
H1993 C2001 0.930 . S
H1994 C2002 0.930 . S
H1995 C2003 0.930 . S
H1996 C2006 0.930 . S
H1997 C2007 0.930 . S
C1998 H1992 0.930 . S
C1998 C1999 1.355 . S
C1998 C2000 1.415 . S
C1999 C1998 1.355 . S
C1999 C2001 1.419 . S
C2000 C1998 1.415 . S
C2000 C2005 1.425 . S
C2000 C2007 1.409 . S
C2001 H1993 0.930 . S
C2001 C1999 1.419 . S
C2001 C2002 1.362 . S
C2002 H1994 0.930 . S
C2002 C2001 1.362 . S
C2002 C2005 1.409 . S
C2003 H1995 0.930 . S
C2003 C2004 1.355 . S
C2003 C2005 1.415 . S
C2004 C2003 1.355 . S
C2004 C2006 1.419 . S
C2005 C2000 1.425 . S
C2005 C2002 1.409 . S
C2005 C2003 1.415 . S
C2006 H1996 0.930 . S
C2006 C2004 1.419 . S
C2006 C2007 1.362 . S
C2007 H1997 0.930 . S
C2007 C2000 1.409 . S
C2007 C2006 1.362 . S
H2008 C2014 0.930 . S
H2009 C2017 0.930 . S
H2010 C2018 0.930 . S
H2011 C2019 0.930 . S
H2012 C2022 0.930 . S
H2013 C2023 0.930 . S
C2014 H2008 0.930 . S
C2014 C2015 1.355 . S
C2014 C2016 1.415 . S
C2015 C2014 1.355 . S
C2015 C2017 1.419 . S
C2016 C2014 1.415 . S
C2016 C2021 1.425 . S
C2016 C2023 1.409 . S
C2017 H2009 0.930 . S
C2017 C2015 1.419 . S
C2017 C2018 1.362 . S
C2018 H2010 0.930 . S
C2018 C2017 1.362 . S
C2018 C2021 1.409 . S
C2019 H2011 0.930 . S
C2019 C2020 1.355 . S
C2019 C2021 1.415 . S
C2020 C2019 1.355 . S
C2020 C2022 1.419 . S
C2021 C2016 1.425 . S
C2021 C2018 1.409 . S
C2021 C2019 1.415 . S
C2022 H2012 0.930 . S
C2022 C2020 1.419 . S
C2022 C2023 1.362 . S
C2023 H2013 0.930 . S
C2023 C2016 1.409 . S
C2023 C2022 1.362 . S
H2024 C2030 0.930 . S
H2025 C2033 0.930 . S
H2026 C2034 0.930 . S
H2027 C2035 0.930 . S
H2028 C2038 0.930 . S
H2029 C2039 0.930 . S
C2030 H2024 0.930 . S
C2030 C2031 1.355 . S
C2030 C2032 1.415 . S
C2031 C2030 1.355 . S
C2031 C2033 1.419 . S
C2032 C2030 1.415 . S
C2032 C2037 1.425 . S
C2032 C2039 1.409 . S
C2033 H2025 0.930 . S
C2033 C2031 1.419 . S
C2033 C2034 1.362 . S
C2034 H2026 0.930 . S
C2034 C2033 1.362 . S
C2034 C2037 1.409 . S
C2035 H2027 0.930 . S
C2035 C2036 1.355 . S
C2035 C2037 1.415 . S
C2036 C2035 1.355 . S
C2036 C2038 1.419 . S
C2037 C2032 1.425 . S
C2037 C2034 1.409 . S
C2037 C2035 1.415 . S
C2038 H2028 0.930 . S
C2038 C2036 1.419 . S
C2038 C2039 1.362 . S
C2039 H2029 0.930 . S
C2039 C2032 1.409 . S
C2039 C2038 1.362 . S
H2040 C2046 0.930 . S
H2041 C2049 0.930 . S
H2042 C2050 0.930 . S
H2043 C2051 0.931 1_565 S
H2044 C2054 0.930 . S
H2045 C2055 0.930 . S
C2046 H2040 0.930 . S
C2046 C2047 1.355 . S
C2046 C2048 1.415 . S
C2047 C2046 1.355 . S
C2047 C2049 1.419 . S
C2048 C2046 1.415 . S
C2048 C2053 1.425 . S
C2048 C2055 1.409 . S
C2049 H2041 0.930 . S
C2049 C2047 1.419 . S
C2049 C2050 1.362 . S
C2050 H2042 0.930 . S
C2050 C2049 1.362 . S
C2050 C2053 1.409 . S
C2051 H2043 0.931 1_545 S
C2051 C2052 1.355 . S
C2051 C2053 1.415 . S
C2052 C2051 1.355 . S
C2052 C2054 1.419 . S
C2053 C2048 1.425 . S
C2053 C2050 1.409 . S
C2053 C2051 1.415 . S
C2054 H2044 0.930 . S
C2054 C2052 1.419 . S
C2054 C2055 1.362 . S
C2055 H2045 0.930 . S
C2055 C2048 1.409 . S
C2055 C2054 1.362 . S
H2056 C2062 0.930 . S
H2057 C2065 0.930 . S
H2058 C2066 0.930 . S
H2059 C2067 0.930 . S
H2060 C2070 0.930 . S
H2061 C2071 0.930 . S
C2062 H2056 0.930 . S
C2062 C2063 1.355 1_455 S
C2062 C2064 1.415 . S
C2063 C2062 1.355 1_655 S
C2063 C2065 1.419 . S
C2064 C2062 1.415 . S
C2064 C2069 1.425 1_455 S
C2064 C2071 1.409 . S
C2065 H2057 0.930 . S
C2065 C2063 1.419 . S
C2065 C2066 1.362 . S
C2066 H2058 0.930 . S
C2066 C2065 1.362 . S
C2066 C2069 1.409 . S
C2067 H2059 0.930 . S
C2067 C2068 1.355 . S
C2067 C2069 1.415 . S
C2068 C2067 1.355 . S
C2068 C2070 1.419 1_655 S
C2069 C2064 1.425 1_655 S
C2069 C2066 1.409 . S
C2069 C2067 1.415 . S
C2070 H2060 0.930 . S
C2070 C2068 1.419 1_455 S
C2070 C2071 1.362 . S
C2071 H2061 0.930 . S
C2071 C2064 1.409 . S
C2071 C2070 1.362 . S
H2072 C2078 0.930 . S
H2073 C2081 0.930 . S
H2074 C2082 0.930 . S
H2075 C2083 0.930 . S
H2076 C2086 0.930 . S
H2077 C2087 0.930 . S
C2078 H2072 0.930 . S
C2078 C2079 1.355 . S
C2078 C2080 1.415 . S
C2079 C2078 1.355 . S
C2079 C2081 1.419 . S
C2080 C2078 1.415 . S
C2080 C2085 1.425 . S
C2080 C2087 1.409 . S
C2081 H2073 0.930 . S
C2081 C2079 1.419 . S
C2081 C2082 1.362 . S
C2082 H2074 0.930 . S
C2082 C2081 1.362 . S
C2082 C2085 1.409 . S
C2083 H2075 0.930 . S
C2083 C2084 1.355 . S
C2083 C2085 1.415 . S
C2084 C2083 1.355 . S
C2084 C2086 1.419 . S
C2085 C2080 1.425 . S
C2085 C2082 1.409 . S
C2085 C2083 1.415 . S
C2086 H2076 0.930 . S
C2086 C2084 1.419 . S
C2086 C2087 1.362 . S
C2087 H2077 0.930 . S
C2087 C2080 1.409 . S
C2087 C2086 1.362 . S
H2088 C2094 0.930 . S
H2089 C2097 0.930 . S
H2090 C2098 0.930 . S
H2091 C2099 0.930 . S
H2092 C2102 0.930 . S
H2093 C2103 0.930 . S
C2094 H2088 0.930 . S
C2094 C2095 1.355 . S
C2094 C2096 1.415 . S
C2095 C2094 1.355 . S
C2095 C2097 1.419 . S
C2096 C2094 1.415 . S
C2096 C2101 1.425 . S
C2096 C2103 1.409 . S
C2097 H2089 0.930 . S
C2097 C2095 1.419 . S
C2097 C2098 1.362 . S
C2098 H2090 0.930 . S
C2098 C2097 1.362 . S
C2098 C2101 1.409 . S
C2099 H2091 0.930 . S
C2099 C2100 1.355 . S
C2099 C2101 1.415 . S
C2100 C2099 1.355 . S
C2100 C2102 1.419 . S
C2101 C2096 1.425 . S
C2101 C2098 1.409 . S
C2101 C2099 1.415 . S
C2102 H2092 0.930 . S
C2102 C2100 1.419 . S
C2102 C2103 1.362 . S
C2103 H2093 0.930 . S
C2103 C2096 1.409 . S
C2103 C2102 1.362 . S
H2104 C2110 0.930 . S
H2105 C2113 0.930 . S
H2106 C2114 0.930 . S
H2107 C2115 0.930 . S
H2108 C2118 0.930 . S
H2109 C2119 0.930 . S
C2110 H2104 0.930 . S
C2110 C2111 1.355 . S
C2110 C2112 1.415 . S
C2111 C2110 1.355 . S
C2111 C2113 1.419 . S
C2112 C2110 1.415 . S
C2112 C2117 1.425 . S
C2112 C2119 1.409 . S
C2113 H2105 0.930 . S
C2113 C2111 1.419 . S
C2113 C2114 1.362 . S
C2114 H2106 0.930 . S
C2114 C2113 1.362 . S
C2114 C2117 1.409 . S
C2115 H2107 0.930 . S
C2115 C2116 1.355 . S
C2115 C2117 1.415 . S
C2116 C2115 1.355 . S
C2116 C2118 1.419 . S
C2117 C2112 1.425 . S
C2117 C2114 1.409 . S
C2117 C2115 1.415 . S
C2118 H2108 0.930 . S
C2118 C2116 1.419 . S
C2118 C2119 1.362 . S
C2119 H2109 0.930 . S
C2119 C2112 1.409 . S
C2119 C2118 1.362 . S
H2120 C2126 0.930 . S
H2121 C2129 0.930 . S
H2122 C2130 0.930 . S
H2123 C2131 0.930 . S
H2124 C2134 0.930 . S
H2125 C2135 0.930 . S
C2126 H2120 0.930 . S
C2126 C2127 1.355 . S
C2126 C2128 1.415 . S
C2127 C2126 1.355 . S
C2127 C2129 1.419 . S
C2128 C2126 1.415 . S
C2128 C2133 1.425 . S
C2128 C2135 1.409 . S
C2129 H2121 0.930 . S
C2129 C2127 1.419 . S
C2129 C2130 1.362 . S
C2130 H2122 0.930 . S
C2130 C2129 1.362 . S
C2130 C2133 1.409 . S
C2131 H2123 0.930 . S
C2131 C2132 1.355 . S
C2131 C2133 1.415 . S
C2132 C2131 1.355 . S
C2132 C2134 1.419 . S
C2133 C2128 1.425 . S
C2133 C2130 1.409 . S
C2133 C2131 1.415 . S
C2134 H2124 0.930 . S
C2134 C2132 1.419 . S
C2134 C2135 1.362 . S
C2135 H2125 0.930 . S
C2135 C2128 1.409 . S
C2135 C2134 1.362 . S
H2136 C2142 0.930 . S
H2137 C2145 0.930 . S
H2138 C2146 0.930 . S
H2139 C2147 0.930 . S
H2140 C2150 0.930 . S
H2141 C2151 0.930 . S
C2142 H2136 0.930 . S
C2142 C2143 1.355 . S
C2142 C2144 1.415 . S
C2143 C2142 1.355 . S
C2143 C2145 1.419 . S
C2144 C2142 1.415 . S
C2144 C2149 1.425 . S
C2144 C2151 1.409 . S
C2145 H2137 0.930 . S
C2145 C2143 1.419 . S
C2145 C2146 1.362 . S
C2146 H2138 0.930 . S
C2146 C2145 1.362 . S
C2146 C2149 1.409 . S
C2147 H2139 0.930 . S
C2147 C2148 1.355 . S
C2147 C2149 1.415 . S
C2148 C2147 1.355 . S
C2148 C2150 1.419 . S
C2149 C2144 1.425 . S
C2149 C2146 1.409 . S
C2149 C2147 1.415 . S
C2150 H2140 0.930 . S
C2150 C2148 1.419 . S
C2150 C2151 1.362 . S
C2151 H2141 0.930 . S
C2151 C2144 1.409 . S
C2151 C2150 1.362 . S
H2152 C2158 0.930 . S
H2153 C2161 0.930 . S
H2154 C2162 0.930 . S
H2155 C2163 0.930 . S
H2156 C2166 0.930 . S
H2157 C2167 0.930 . S
C2158 H2152 0.930 . S
C2158 C2159 1.355 . S
C2158 C2160 1.415 . S
C2159 C2158 1.355 . S
C2159 C2161 1.419 . S
C2160 C2158 1.415 . S
C2160 C2165 1.425 . S
C2160 C2167 1.409 . S
C2161 H2153 0.930 . S
C2161 C2159 1.419 . S
C2161 C2162 1.362 . S
C2162 H2154 0.930 . S
C2162 C2161 1.362 . S
C2162 C2165 1.409 . S
C2163 H2155 0.930 . S
C2163 C2164 1.355 . S
C2163 C2165 1.415 . S
C2164 C2163 1.355 . S
C2164 C2166 1.419 . S
C2165 C2160 1.425 . S
C2165 C2162 1.409 . S
C2165 C2163 1.415 . S
C2166 H2156 0.930 . S
C2166 C2164 1.419 . S
C2166 C2167 1.362 . S
C2167 H2157 0.930 . S
C2167 C2160 1.409 . S
C2167 C2166 1.362 . S
H2168 C2174 0.930 . S
H2169 C2177 0.930 . S
H2170 C2178 0.930 . S
H2171 C2179 0.930 . S
H2172 C2182 0.930 . S
H2173 C2183 0.930 . S
C2174 H2168 0.930 . S
C2174 C2175 1.355 . S
C2174 C2176 1.415 . S
C2175 C2174 1.355 . S
C2175 C2177 1.419 . S
C2176 C2174 1.415 . S
C2176 C2181 1.425 . S
C2176 C2183 1.409 . S
C2177 H2169 0.930 . S
C2177 C2175 1.419 . S
C2177 C2178 1.362 . S
C2178 H2170 0.930 . S
C2178 C2177 1.362 . S
C2178 C2181 1.409 . S
C2179 H2171 0.930 . S
C2179 C2180 1.355 . S
C2179 C2181 1.415 . S
C2180 C2179 1.355 . S
C2180 C2182 1.419 . S
C2181 C2176 1.425 . S
C2181 C2178 1.409 . S
C2181 C2179 1.415 . S
C2182 H2172 0.930 . S
C2182 C2180 1.419 . S
C2182 C2183 1.362 . S
C2183 H2173 0.930 . S
C2183 C2176 1.409 . S
C2183 C2182 1.362 . S
H2184 C2190 0.930 . S
H2185 C2193 0.930 . S
H2186 C2194 0.930 . S
H2187 C2195 0.930 . S
H2188 C2198 0.930 . S
H2189 C2199 0.930 . S
C2190 H2184 0.930 . S
C2190 C2191 1.355 . S
C2190 C2192 1.415 . S
C2191 C2190 1.355 . S
C2191 C2193 1.419 1_655 S
C2192 C2190 1.415 . S
C2192 C2197 1.391 1_655 S
C2192 C2199 1.409 . S
C2193 H2185 0.930 . S
C2193 C2191 1.419 1_455 S
C2193 C2194 1.362 . S
C2194 H2186 0.930 . S
C2194 C2193 1.362 . S
C2194 C2197 1.418 . S
C2195 H2187 0.930 . S
C2195 C2196 1.355 1_455 S
C2195 C2197 1.439 . S
C2196 C2195 1.355 1_655 S
C2196 C2198 1.419 . S
C2197 C2192 1.391 1_455 S
C2197 C2194 1.418 . S
C2197 C2195 1.439 . S
C2198 H2188 0.930 . S
C2198 C2196 1.419 . S
C2198 C2199 1.362 . S
C2199 H2189 0.930 . S
C2199 C2192 1.409 . S
C2199 C2198 1.362 . S
H2200 C2206 0.930 . S
H2201 C2209 0.930 . S
H2202 C2210 0.930 . S
H2203 C2211 0.930 . S
H2204 C2214 0.930 . S
H2205 C2215 0.930 . S
C2206 H2200 0.930 . S
C2206 C2207 1.355 . S
C2206 C2208 1.415 . S
C2207 C2206 1.355 . S
C2207 C2209 1.419 . S
C2208 C2206 1.415 . S
C2208 C2213 1.425 . S
C2208 C2215 1.409 . S
C2209 H2201 0.930 . S
C2209 C2207 1.419 . S
C2209 C2210 1.362 . S
C2210 H2202 0.930 . S
C2210 C2209 1.362 . S
C2210 C2213 1.409 . S
C2211 H2203 0.930 . S
C2211 C2212 1.355 . S
C2211 C2213 1.415 . S
C2212 C2211 1.355 . S
C2212 C2214 1.419 . S
C2213 C2208 1.425 . S
C2213 C2210 1.409 . S
C2213 C2211 1.415 . S
C2214 H2204 0.930 . S
C2214 C2212 1.419 . S
C2214 C2215 1.362 . S
C2215 H2205 0.930 . S
C2215 C2208 1.409 . S
C2215 C2214 1.362 . S
H2216 C2222 0.930 . S
H2217 C2225 0.930 . S
H2218 C2226 0.930 . S
H2219 C2227 0.930 . S
H2220 C2230 0.930 . S
H2221 C2231 0.930 . S
C2222 H2216 0.930 . S
C2222 C2223 1.355 . S
C2222 C2224 1.415 . S
C2223 C2222 1.355 . S
C2223 C2225 1.419 1_545 S
C2224 C2222 1.415 . S
C2224 C2229 1.425 . S
C2224 C2231 1.409 . S
C2225 H2217 0.930 . S
C2225 C2223 1.419 1_565 S
C2225 C2226 1.362 . S
C2226 H2218 0.930 . S
C2226 C2225 1.362 . S
C2226 C2229 1.409 1_565 S
C2227 H2219 0.930 . S
C2227 C2228 1.355 1_565 S
C2227 C2229 1.415 1_565 S
C2228 C2227 1.355 1_545 S
C2228 C2230 1.419 . S
C2229 C2224 1.425 . S
C2229 C2226 1.409 1_545 S
C2229 C2227 1.415 1_545 S
C2230 H2220 0.930 . S
C2230 C2228 1.419 . S
C2230 C2231 1.362 . S
C2231 H2221 0.930 . S
C2231 C2224 1.409 . S
C2231 C2230 1.362 . S
C1087 C13 1.428 . S
C1092 C688 1.488 . S
C1103 C27 1.373 . S
C1108 C734 1.417 . S
C1124 C766 1.466 . S
C1119 C36 1.404 . S
C1135 C41 1.441 . S
C1140 C819 1.478 . S
C1151 C8 1.418 . S
C1156 C865 1.559 . S
C1167 C22 1.480 . S
C1172 C904 1.502 . S
C1183 C55 1.394 . S
C1188 C858 1.482 . S
C1204 C911 1.438 . S
C1199 C69 1.388 . S
C1220 C812 1.481 . S
C1215 C78 1.329 . S
C1231 C83 1.384 . S
C1236 C773 1.461 . S
C1252 C667 1.562 . S
C1247 C50 1.449 . S
C1263 C64 1.449 . S
C1268 C713 1.485 . S
C1279 C97 1.551 . S
C1284 C943 1.656 . S
C1295 C111 1.365 . S
C1300 C1010 1.465 . S
C1316 C1056 1.583 . S
C1311 C120 1.522 . S
C1327 C125 1.495 . S
C1332 C267 1.540 . S
C1343 C92 1.689 . S
C1348 C313 1.698 . S
C1359 C106 1.470 . S
C1364 C359 1.568 . S
C1375 C139 1.437 . S
C1380 C306 1.544 . S
C1391 C153 1.369 . S
C1396 C352 1.469 . S
C1412 C260 1.600 . S
C1407 C162 1.515 . S
C1428 C1035 1.596 . S
C1423 C167 1.537 . S
C1444 C964 1.695 . S
C1439 C134 1.640 . S
C1460 C989 1.552 . S
C1455 C148 1.529 . S
C1471 C181 1.532 . S
C1476 C391 1.589 . S
C1487 C195 1.405 . S
C1492 C444 1.479 . S
C1503 C204 1.557 . S
C1508 C490 1.584 . S
C1519 C209 1.520 . S
C1524 C536 1.600 . S
C1540 C589 1.713 . S
C1535 C176 1.637 . S
C1556 C635 1.575 . S
C1551 C190 1.503 . S
C1572 C582 1.651 . S
C1567 C223 1.595 . S
C1588 C628 1.496 . S
C1583 C237 1.460 . S
C1599 C246 1.492 . S
C1604 C543 1.580 . S
C1620 C497 1.528 . S
C1615 C251 1.448 . S
C1631 C218 1.689 . S
C1636 C412 1.695 . S
C1652 C451 1.565 . S
C1647 C232 1.487 . S
C1668 C274 1.549 . S
C1663 C11 1.546 . S
C1679 C25 1.430 . S
C1684 C320 1.421 . S
C1700 C366 1.537 . S
C1695 C35 1.536 . S
C1716 C398 1.529 . S
C1711 C39 1.543 . S
C1732 C437 1.576 . S
C1727 C7 1.629 . S
C1748 C483 1.470 . S
C1743 C21 1.499 . S
C1759 C53 1.528 . S
C1764 C504 1.558 . S
C1775 C67 1.369 . S
C1780 C405 1.373 . S
C1791 C77 1.513 . S
C1796 C458 1.454 . S
C1807 C81 1.512 . S
C1812 C299 1.550 . S
C1828 C345 1.621 . S
C1823 C49 1.630 . S
C1839 C63 1.490 . S
C1844 C253 1.445 . S
C1860 C529 1.446 . S
C1855 C95 1.466 . S
C1871 C109 1.510 . S
C1876 C596 1.508 . S
C1887 C119 1.565 . S
C1892 C642 1.563 . S
C1908 C681 1.296 . S
C1903 C123 1.304 . S
C1919 C91 1.548 . S
C1924 C727 1.513 . S
C1935 C105 1.282 . S
C1940 C759 1.264 . S
C1951 C137 1.322 . S
C1956 C780 1.331 . S
C1967 C151 1.184 . S
C1972 C674 1.203 . S
C1988 C720 1.456 . S
C1983 C161 1.466 . S
C1999 C165 1.538 . S
C2004 C575 1.534 . S
C2015 C133 1.631 . S
C2020 C621 1.594 . S
C2036 C550 1.523 . S
C2031 C147 1.570 . S
C2052 C826 1.322 . S
C2047 C179 1.334 . S
C2063 C193 1.208 . S
C2068 C872 1.201 . S
C2079 C203 1.460 . S
C2084 C897 1.408 . S
C2100 C950 1.460 . S
C2095 C207 1.483 . S
C2116 C1003 1.624 . S
C2111 C175 1.642 . S
C2127 C189 1.571 . S
C2132 C1049 1.522 . S
C2143 C221 1.510 . S
C2148 C1042 1.504 . S
C2159 C235 1.457 . S
C2164 C957 1.435 . S
C2180 C996 1.547 . S
C2175 C245 1.549 . S
C2196 C851 1.281 . S
C2191 C249 1.257 . S
C2212 C918 1.552 . S
C2207 C217 1.561 . S
C2223 C231 1.302 . S
C2228 C805 1.283 . S
