# Generated by pormake.
# Topology zzz, (3,6)-cn, num edge types: 1
# Building blocks:
#     Node 0, Type 0, BuildingBlock: BETDAH_clean_linker_0, # of connection points: 3
#     Node 1, Type 0, BuildingBlock: BETDAH_clean_linker_0, # of connection points: 3
#     Node 2, Type 0, BuildingBlock: BETDAH_clean_linker_0, # of connection points: 3
#     Node 3, Type 0, BuildingBlock: BETDAH_clean_linker_0, # of connection points: 3
#     Node 4, Type 0, BuildingBlock: BETDAH_clean_linker_0, # of connection points: 3
#     Node 5, Type 0, BuildingBlock: BETDAH_clean_linker_0, # of connection points: 3
#     Node 6, Type 0, BuildingBlock: BETDAH_clean_linker_0, # of connection points: 3
#     Node 7, Type 0, BuildingBlock: BETDAH_clean_linker_0, # of connection points: 3
#     Node 8, Type 1, BuildingBlock: JUFBIX_clean_sbu_0, # of connection points: 6
#     Node 9, Type 1, BuildingBlock: JUFBIX_clean_sbu_0, # of connection points: 6
#     Node 10, Type 1, BuildingBlock: JUFBIX_clean_sbu_0, # of connection points: 6
#     Node 11, Type 1, BuildingBlock: JUFBIX_clean_sbu_0, # of connection points: 6
#     Edge 12, Type (0, 1), BuildingBlock: TEMPAE_clean_linker_10, # of connection points: 2
#     Edge 13, Type (0, 1), BuildingBlock: TEMPAE_clean_linker_10, # of connection points: 2
#     Edge 14, Type (0, 1), BuildingBlock: TEMPAE_clean_linker_10, # of connection points: 2
#     Edge 15, Type (0, 1), BuildingBlock: TEMPAE_clean_linker_10, # of connection points: 2
#     Edge 16, Type (0, 1), BuildingBlock: TEMPAE_clean_linker_10, # of connection points: 2
#     Edge 17, Type (0, 1), BuildingBlock: TEMPAE_clean_linker_10, # of connection points: 2
#     Edge 18, Type (0, 1), BuildingBlock: TEMPAE_clean_linker_10, # of connection points: 2
#     Edge 19, Type (0, 1), BuildingBlock: TEMPAE_clean_linker_10, # of connection points: 2
#     Edge 20, Type (0, 1), BuildingBlock: TEMPAE_clean_linker_10, # of connection points: 2
#     Edge 21, Type (0, 1), BuildingBlock: TEMPAE_clean_linker_10, # of connection points: 2
#     Edge 22, Type (0, 1), BuildingBlock: TEMPAE_clean_linker_10, # of connection points: 2
#     Edge 23, Type (0, 1), BuildingBlock: TEMPAE_clean_linker_10, # of connection points: 2
#     Edge 24, Type (0, 1), BuildingBlock: TEMPAE_clean_linker_10, # of connection points: 2
#     Edge 25, Type (0, 1), BuildingBlock: TEMPAE_clean_linker_10, # of connection points: 2
#     Edge 26, Type (0, 1), BuildingBlock: TEMPAE_clean_linker_10, # of connection points: 2
#     Edge 27, Type (0, 1), BuildingBlock: TEMPAE_clean_linker_10, # of connection points: 2
#     Edge 28, Type (0, 1), BuildingBlock: TEMPAE_clean_linker_10, # of connection points: 2
#     Edge 29, Type (0, 1), BuildingBlock: TEMPAE_clean_linker_10, # of connection points: 2
#     Edge 30, Type (0, 1), BuildingBlock: TEMPAE_clean_linker_10, # of connection points: 2
#     Edge 31, Type (0, 1), BuildingBlock: TEMPAE_clean_linker_10, # of connection points: 2
#     Edge 32, Type (0, 1), BuildingBlock: TEMPAE_clean_linker_10, # of connection points: 2
#     Edge 33, Type (0, 1), BuildingBlock: TEMPAE_clean_linker_10, # of connection points: 2
#     Edge 34, Type (0, 1), BuildingBlock: TEMPAE_clean_linker_10, # of connection points: 2
#     Edge 35, Type (0, 1), BuildingBlock: TEMPAE_clean_linker_10, # of connection points: 2
# Relax obj value: 0.121
# Max RMSD: 0.177
# Mean RMSD: 0.085
data_MOF--net-zzz--node1-JUFBIX_clean_sbu_0--node2-BETDAH_clean_linker_0--edge1-TEMPAE_clean_linker_10
_symmetry_space_group_name_H-M    P1
_symmetry_Int_Tables_number       1
_symmetry_cell_setting            triclinic
loop_
_symmetry_equiv_pos_as_xyz
'x, y, z'
_cell_length_a     52.795875
_cell_length_b     52.538796
_cell_length_c     17.761366
_cell_angle_alpha  81.418451
_cell_angle_beta   89.907777
_cell_angle_gamma 91.489632
loop_
_atom_site_label
_atom_site_type_symbol
_atom_site_fract_x
_atom_site_fract_y
_atom_site_fract_z
_atom_type_partial_charge
H0 H 0.86214 0.50178 0.29049 0.0
H1 H 0.79323 0.51061 0.16153 0.0
H2 H 0.79726 0.53291 0.38575 0.0
C3 C 0.84235 0.50689 0.28624 0.0
C4 C 0.83119 0.51707 0.34614 0.0
C5 C 0.82896 0.50457 0.21945 0.0
C6 C 0.8036 0.51224 0.21323 0.0
C7 C 0.79192 0.52215 0.27398 0.0
C8 C 0.80602 0.52492 0.33957 0.0
N9 N 0.76626 0.52981 0.27123 0.0
C10 C 0.74911 0.52606 0.21417 0.0
H11 H 0.99818 0.82999 0.24035 0.0
H12 H 0.98536 0.75834 0.15733 0.0
H13 H 0.98047 0.7617 0.39881 0.0
C14 C 0.9943 0.80937 0.25206 0.0
C15 C 0.99013 0.79754 0.32695 0.0
C16 C 0.99243 0.79542 0.19132 0.0
C17 C 0.98691 0.76893 0.20504 0.0
C18 C 0.98279 0.75652 0.28045 0.0
C19 C 0.98398 0.77106 0.34101 0.0
N20 N 0.97714 0.72966 0.29711 0.0
C21 C 0.97913 0.71284 0.24395 0.0
H22 H 0.68012 0.98419 0.16374 0.0
H23 H 0.75146 0.00337 0.05014 0.0
H24 H 0.74717 0.99148 0.29594 0.0
C25 C 0.70049 0.98724 0.16668 0.0
C26 C 0.71196 0.98653 0.23772 0.0
C27 C 0.71447 0.99347 0.0992 0.0
C28 C 0.74071 0.99834 0.10246 0.0
C29 C 0.75273 0.99707 0.17389 0.0
C30 C 0.7381 0.99178 0.24112 0.0
N31 N 0.77925 1.00157 0.1807 0.0
C32 C 0.79699 1.002 0.12231 0.0
H33 H 0.52513 0.65678 0.15161 0.0
H34 H 0.51744 0.73531 0.04928 0.0
H35 H 0.52562 0.71661 0.2928 0.0
C36 C 0.52419 0.67692 0.1583 0.0
C37 C 0.52513 0.68407 0.23106 0.0
C38 C 0.52069 0.69507 0.09346 0.0
C39 C 0.52027 0.72134 0.09971 0.0
C40 C 0.5229 0.7292 0.17201 0.0
C41 C 0.52491 0.71047 0.23725 0.0
N42 N 0.52272 0.75554 0.18217 0.0
C43 C 0.52187 0.77643 0.12393 0.0
H44 H 0.15649 0.48541 0.29801 0.0
H45 H 0.22892 0.49226 0.40377 0.0
H46 H 0.22258 0.45811 0.19751 0.0
C47 C 0.17676 0.48239 0.29869 0.0
C48 C 0.18762 0.47046 0.2417 0.0
C49 C 0.19146 0.49057 0.35648 0.0
C50 C 0.21762 0.48627 0.35834 0.0
C51 C 0.22902 0.47463 0.30044 0.0
C52 C 0.21389 0.46702 0.242 0.0
N53 N 0.25548 0.47026 0.29878 0.0
C54 C 0.27277 0.4762 0.35311 0.0
H55 H 0.03554 0.17746 0.31751 0.0
H56 H 0.04722 0.24656 0.41528 0.0
H57 H 0.06296 0.24633 0.17642 0.0
C58 C 0.04086 0.19779 0.31054 0.0
C59 C 0.04881 0.2104 0.23922 0.0
C60 C 0.04047 0.21067 0.37377 0.0
C61 C 0.04753 0.23681 0.36578 0.0
C62 C 0.05556 0.24993 0.29412 0.0
C63 C 0.05658 0.23644 0.23136 0.0
N64 N 0.06296 0.27645 0.28343 0.0
C65 C 0.05895 0.29276 0.33704 0.0
H66 H 0.33602 0.0245 0.41532 0.0
H67 H 0.26453 0.00554 0.52836 0.0
H68 H 0.26905 0.01746 0.28259 0.0
C69 C 0.31563 0.02152 0.41222 0.0
C70 C 0.30422 0.02229 0.34109 0.0
C71 C 0.3016 0.01532 0.4796 0.0
C72 C 0.27534 0.01056 0.47613 0.0
C73 C 0.26338 0.01188 0.40459 0.0
C74 C 0.27807 0.01713 0.33749 0.0
N75 N 0.23686 0.00744 0.3975 0.0
C76 C 0.219 0.00726 0.45544 0.0
H77 H 0.5074 0.35081 0.39278 0.0
H78 H 0.50369 0.27379 0.51454 0.0
H79 H 0.48252 0.28857 0.27735 0.0
C80 C 0.50328 0.33043 0.39335 0.0
C81 C 0.49422 0.32194 0.32737 0.0
C82 C 0.50686 0.31334 0.46056 0.0
C83 C 0.5013 0.28696 0.46216 0.0
C84 C 0.4928 0.27789 0.39528 0.0
C85 C 0.48938 0.2955 0.32828 0.0
N86 N 0.48718 0.25142 0.39275 0.0
C87 C 0.49013 0.23131 0.45244 0.0
Co88 Co 0.01578 0.01215 0.83748 0.0
C89 C 0.96296 0.00606 0.84217 0.0
Co90 Co 0.99952 0.99791 0.73663 0.0
C91 C 0.03939 0.04989 0.91945 0.0
C92 C 0.02444 0.01725 0.99429 0.0
N93 N 0.02829 0.02638 0.92007 0.0
N94 N 0.0421 0.05611 0.99021 0.0
C95 C 0.03288 0.0354 0.03739 0.0
H96 H 0.04433 0.06266 0.8677 0.0
H97 H 0.01461 0.99928 0.01553 0.0
C98 C 0.05237 0.00402 0.73221 0.0
N99 N 0.98684 0.98319 0.65548 0.0
C100 C 0.99466 0.96087 0.63551 0.0
C101 C 0.9664 0.98937 0.61182 0.0
N102 N 0.97965 0.95241 0.58263 0.0
C103 C 0.96197 0.97048 0.56672 0.0
C104 C 1.0031 0.05031 0.71585 0.0
O105 O 0.04921 0.01176 0.79611 0.0
O106 O 0.03307 0.99682 0.69718 0.0
O107 O 0.99642 0.03155 0.68199 0.0
O108 O 0.01149 0.04576 0.78334 0.0
O109 O 0.966 0.99914 0.77713 0.0
H110 H 0.95477 0.00581 0.61532 0.0
H111 H 0.01069 0.95057 0.66131 0.0
O112 O 0.98236 0.01248 0.87809 0.0
O113 O 0.01978 0.97816 0.89072 0.0
O114 O 1.00273 0.96452 0.79146 0.0
C115 C 0.01213 0.95962 0.8574 0.0
H116 H 0.03064 0.03408 0.09842 0.0
H117 H 0.9462 0.96946 0.52833 0.0
Co118 Co 0.50123 0.00898 0.84459 0.0
C119 C 0.51065 0.95674 0.84508 0.0
Co120 Co 0.51489 0.99963 0.73405 0.0
C121 C 0.46377 0.02154 0.9516 0.0
C122 C 0.499 0.01169 0.00599 0.0
N123 N 0.48786 0.01543 0.93714 0.0
N124 N 0.45923 0.02123 0.02663 0.0
C125 C 0.48156 0.0153 0.06087 0.0
H126 H 0.44941 0.02485 0.90824 0.0
H127 H 0.51826 0.00561 0.0163 0.0
C128 C 0.50547 0.05187 0.73358 0.0
N129 N 0.52827 0.99318 0.64151 0.0
C130 C 0.55237 0.98708 0.62709 0.0
C131 C 0.51714 0.9969 0.57264 0.0
N132 N 0.55693 0.98739 0.55207 0.0
C133 C 0.5346 0.9933 0.5178 0.0
C134 C 0.46296 0.99682 0.74522 0.0
O135 O 0.49934 0.0446 0.80302 0.0
O136 O 0.51281 0.03519 0.69371 0.0
O137 O 0.48115 0.99386 0.7006 0.0
O138 O 0.46795 0.00306 0.80991 0.0
O139 O 0.51686 0.96402 0.7757 0.0
H140 H 0.49788 0.00298 0.5623 0.0
H141 H 0.56671 0.98377 0.67049 0.0
O142 O 0.50323 0.97341 0.88486 0.0
O143 O 0.53497 0.01469 0.8781 0.0
O144 O 0.54816 0.00562 0.76864 0.0
C145 C 0.55315 0.0118 0.8334 0.0
H146 H 0.48502 0.01302 0.12148 0.0
H147 H 0.53114 0.99557 0.45719 0.0
Co148 Co 0.53123 0.5034 0.79412 0.0
C149 C 0.50411 0.47198 0.90511 0.0
Co150 Co 0.48985 0.50361 0.77193 0.0
C151 C 0.57997 0.50669 0.86992 0.0
C152 C 0.58344 0.50002 0.75445 0.0
N153 N 0.56617 0.50329 0.8079 0.0
N154 N 0.60521 0.5058 0.85702 0.0
C155 C 0.60734 0.50152 0.7843 0.0
H156 H 0.57163 0.51022 0.92298 0.0
H157 H 0.57892 0.4968 0.69718 0.0
C158 C 0.51659 0.53515 0.6612 0.0
N159 N 0.45493 0.50364 0.75793 0.0
C160 C 0.44138 0.50087 0.69495 0.0
C161 C 0.43746 0.50648 0.81125 0.0
N162 N 0.41611 0.50197 0.70689 0.0
C163 C 0.41368 0.50548 0.78019 0.0
C164 C 0.50747 0.54255 0.85053 0.0
O165 O 0.53561 0.52648 0.69993 0.0
O166 O 0.49446 0.52684 0.68155 0.0
O167 O 0.48778 0.53253 0.82461 0.0
O168 O 0.52883 0.53235 0.84537 0.0
O169 O 0.48553 0.48015 0.8637 0.0
H170 H 0.44176 0.50896 0.86928 0.0
H171 H 0.44994 0.49835 0.64124 0.0
O172 O 0.52636 0.48067 0.887 0.0
O173 O 0.5332 0.47415 0.74354 0.0
O174 O 0.49246 0.47498 0.71854 0.0
C175 C 0.51374 0.46438 0.71574 0.0
H176 H 0.62491 0.49934 0.75476 0.0
H177 H 0.39595 0.50675 0.80992 0.0
Co178 Co 0.01407 0.52257 0.79859 0.0
C179 C 0.04468 0.48594 0.8818 0.0
Co180 Co 0.00874 0.48282 0.77107 0.0
C181 C 0.00454 0.56958 0.86217 0.0
C182 C 0.04206 0.56889 0.81713 0.0
N183 N 0.01988 0.55538 0.82469 0.0
N184 N 0.01633 0.59127 0.87835 0.0
C185 C 0.03992 0.59089 0.84958 0.0
H186 H 0.98529 0.56382 0.87905 0.0
H187 H 0.05919 0.56264 0.79284 0.0
C188 C 0.97809 0.51943 0.68871 0.0
N189 N 1.00309 0.44985 0.74495 0.0
C190 C 0.01792 0.43652 0.70319 0.0
C191 C 0.98166 0.43524 0.75751 0.0
N192 N 0.00649 0.41445 0.6886 0.0
C193 C 0.98373 0.41356 0.72345 0.0
C194 C 0.97608 0.49446 0.88333 0.0
O195 O 0.98907 0.53528 0.72638 0.0
O196 O 0.98436 0.49598 0.69835 0.0
O197 O 0.98248 0.47685 0.84587 0.0
O198 O 0.98827 0.51584 0.87358 0.0
O199 O 0.03351 0.47002 0.84463 0.0
H200 H 0.96508 0.4403 0.78719 0.0
H201 H 0.03632 0.44341 0.68087 0.0
O202 O 0.03853 0.50944 0.87062 0.0
O203 O 0.04015 0.52876 0.72262 0.0
O204 O 0.03463 0.48952 0.69697 0.0
C205 C 0.04657 0.51101 0.68567 0.0
H206 H 0.05504 0.60477 0.85529 0.0
H207 H 0.96929 0.39856 0.72336 0.0
C208 C 0.18244 0.02923 0.49933 0.0
C209 C 0.19758 0.00757 0.50624 0.0
C210 C 0.15975 0.02892 0.54104 0.0
C211 C 0.15205 0.00635 0.59065 0.0
C212 C 0.16787 0.98469 0.59955 0.0
C213 C 0.19046 0.98554 0.55689 0.0
C214 C 0.14351 0.05241 0.52965 0.0
C215 C 0.16045 0.9603 0.65192 0.0
C216 C 0.09957 0.01209 0.7349 0.0
C217 C 0.07808 0.00385 0.69774 0.0
C218 C 0.12382 0.01265 0.70141 0.0
C219 C 0.12669 0.00486 0.62892 0.0
C220 C 0.1051 0.99627 0.5916 0.0
C221 C 0.08114 0.99584 0.62639 0.0
C222 C 0.14633 0.02187 0.74319 0.0
C223 C 0.10725 0.98784 0.51422 0.0
H224 H 0.18797 0.04617 0.45948 0.0
H225 H 0.20218 0.96874 0.56154 0.0
H226 H 0.12535 0.04776 0.50272 0.0
H227 H 0.13884 0.05832 0.58536 0.0
H228 H 0.15295 0.06896 0.49307 0.0
H229 H 0.1757 0.94597 0.65715 0.0
H230 H 0.1558 0.9647 0.70946 0.0
H231 H 0.14319 0.95147 0.62992 0.0
H232 H 0.09745 0.0183 0.79003 0.0
H233 H 0.06472 0.98941 0.59711 0.0
H234 H 0.155 0.03938 0.7093 0.0
H235 H 0.161 0.00697 0.75033 0.0
H236 H 0.1411 0.02642 0.80022 0.0
H237 H 0.11471 0.00407 0.47221 0.0
H238 H 0.08875 0.98113 0.49353 0.0
H239 H 0.12084 0.972 0.51638 0.0
C240 C 0.47105 0.19043 0.51474 0.0
C241 C 0.49184 0.20766 0.50533 0.0
C242 C 0.47307 0.16585 0.55771 0.0
C243 C 0.49651 0.1584 0.59188 0.0
C244 C 0.51731 0.17626 0.58471 0.0
C245 C 0.51474 0.20072 0.54109 0.0
C246 C 0.45045 0.14747 0.56364 0.0
C247 C 0.54256 0.16915 0.62044 0.0
C248 C 0.49633 0.09819 0.74174 0.0
C249 C 0.50382 0.07932 0.6986 0.0
C250 C 0.49427 0.12409 0.70825 0.0
C251 C 0.49972 0.13131 0.6297 0.0
C252 C 0.50751 0.11238 0.58614 0.0
C253 C 0.5095 0.08671 0.62104 0.0
C254 C 0.48599 0.14369 0.75668 0.0
C255 C 0.51341 0.11917 0.50219 0.0
H256 H 0.4534 0.19587 0.48633 0.0
H257 H 0.53084 0.21412 0.53309 0.0
H258 H 0.45459 0.131 0.53348 0.0
H259 H 0.44653 0.13953 0.62408 0.0
H260 H 0.43313 0.15682 0.53861 0.0
H261 H 0.55608 0.18588 0.61549 0.0
H262 H 0.54003 0.16122 0.68154 0.0
H263 H 0.55104 0.1539 0.5922 0.0
H264 H 0.49194 0.09272 0.80169 0.0
H265 H 0.5153 0.07234 0.58708 0.0
H266 H 0.46786 0.15206 0.73499 0.0
H267 H 0.50022 0.15975 0.75307 0.0
H268 H 0.48336 0.13521 0.81742 0.0
H269 H 0.49634 0.12688 0.47135 0.0
H270 H 0.51976 0.10232 0.47672 0.0
H271 H 0.52846 0.13446 0.49298 0.0
C272 C 0.30939 0.50221 0.3866 0.0
C273 C 0.29254 0.48125 0.40554 0.0
C274 C 0.32977 0.5064 0.43453 0.0
C275 C 0.33333 0.4891 0.50275 0.0
C276 C 0.31606 0.46799 0.52218 0.0
C277 C 0.29584 0.46431 0.47314 0.0
C278 C 0.34766 0.52914 0.41179 0.0
C279 C 0.31912 0.44915 0.59434 0.0
C280 C 0.3987 0.485 0.59417 0.0
C281 C 0.39578 0.49949 0.65375 0.0
C282 C 0.37863 0.48162 0.54423 0.0
C283 C 0.35506 0.49307 0.55388 0.0
C284 C 0.35212 0.50804 0.61314 0.0
C285 C 0.37246 0.51106 0.66219 0.0
C286 C 0.38255 0.46548 0.48183 0.0
C287 C 0.32739 0.52072 0.62514 0.0
H288 H 0.30679 0.51516 0.33377 0.0
H289 H 0.28279 0.448 0.48716 0.0
H290 H 0.34829 0.54154 0.45715 0.0
H291 H 0.36714 0.52233 0.40514 0.0
H292 H 0.34205 0.54099 0.35757 0.0
H293 H 0.30396 0.4339 0.60152 0.0
H294 H 0.33774 0.43986 0.59388 0.0
H295 H 0.31882 0.45946 0.64447 0.0
H296 H 0.41651 0.47577 0.5876 0.0
H297 H 0.37012 0.52266 0.70712 0.0
H298 H 0.37846 0.47688 0.42562 0.0
H299 H 0.36915 0.44866 0.48972 0.0
H300 H 0.40217 0.45839 0.48081 0.0
H301 H 0.32218 0.5337 0.57265 0.0
H302 H 0.32828 0.53207 0.67311 0.0
H303 H 0.31199 0.50587 0.63696 0.0
C304 C 0.05201 0.30192 0.4676 0.0
C305 C 0.05403 0.3106 0.38947 0.0
C306 C 0.04585 0.31893 0.51848 0.0
C307 C 0.0417 0.34517 0.49013 0.0
C308 C 0.04443 0.35405 0.4111 0.0
C309 C 0.05052 0.33658 0.36161 0.0
C310 C 0.04311 0.3087 0.60222 0.0
C311 C 0.04024 0.38184 0.37857 0.0
C312 C 0.99827 0.38217 0.60291 0.0
C313 C 0.01552 0.39683 0.63992 0.0
C314 C 0.00657 0.36525 0.55452 0.0
C315 C 0.03285 0.36291 0.54227 0.0
C316 C 0.05044 0.37761 0.57924 0.0
C317 C 0.04157 0.39437 0.62766 0.0
C318 C 0.98716 0.35003 0.51592 0.0
C319 C 0.0786 0.37566 0.56755 0.0
H320 H 0.05487 0.28177 0.48887 0.0
H321 H 0.05217 0.34316 0.3009 0.0
H322 H 0.05516 0.32029 0.6362 0.0
H323 H 0.0232 0.31041 0.62052 0.0
H324 H 0.0484 0.28819 0.61564 0.0
H325 H 0.04472 0.386 0.31674 0.0
H326 H 0.02018 0.38657 0.38713 0.0
H327 H 0.05214 0.39476 0.40878 0.0
H328 H 0.97812 0.38422 0.61051 0.0
H329 H 0.05507 0.40539 0.65642 0.0
H330 H 0.99047 0.32912 0.53078 0.0
H331 H 0.9891 0.35495 0.45319 0.0
H332 H 0.96744 0.35378 0.53229 0.0
H333 H 0.08441 0.35551 0.58516 0.0
H334 H 0.0898 0.38842 0.60032 0.0
H335 H 0.08341 0.38089 0.50627 0.0
C336 C 0.82575 0.02448 0.02276 0.0
C337 C 0.8182 1.00196 0.07061 0.0
C338 C 0.84821 0.02546 0.97945 0.0
C339 C 0.86345 0.00342 0.98481 0.0
C340 C 0.85528 0.98037 0.03144 0.0
C341 C 0.83273 0.97995 0.0739 0.0
C342 C 0.85615 0.05037 0.93036 0.0
C343 C 0.8709 0.95646 0.039 0.0
C344 C 0.91562 0.99914 0.83836 0.0
C345 C 0.93731 0.00614 0.87697 0.0
C346 C 0.89141 0.9985 0.87214 0.0
C347 C 0.88878 0.00495 0.9464 0.0
C348 C 0.91058 0.01228 0.98523 0.0
C349 C 0.93449 0.01282 0.95013 0.0
C350 C 0.86866 0.99065 0.82875 0.0
C351 C 0.9087 0.01926 0.06449 0.0
H352 H 0.81449 0.04153 0.02091 0.0
H353 H 0.82687 0.96261 0.11158 0.0
H354 H 0.87362 0.05833 0.95374 0.0
H355 H 0.86064 0.04688 0.87177 0.0
H356 H 0.84124 0.06502 0.92733 0.0
H357 H 0.86106 0.93964 0.07318 0.0
H358 H 0.87536 0.95153 0.98195 0.0
H359 H 0.88917 0.96009 0.06681 0.0
H360 H 0.91756 0.99398 0.78182 0.0
H361 H 0.95107 0.01826 0.98058 0.0
H362 H 0.85436 0.00591 0.82392 0.0
H363 H 0.8596 0.9729 0.86019 0.0
H364 H 0.87374 0.98702 0.77064 0.0
H365 H 0.89552 0.03535 0.0649 0.0
H366 H 0.92736 0.02505 0.08636 0.0
H367 H 0.90086 1.0026 0.1042 0.0
C368 C 0.49922 0.80765 0.03202 0.0
C369 C 0.52131 0.80039 0.07202 0.0
C370 C 0.4975 0.8323 0.98891 0.0
C371 C 0.51834 0.85001 0.98643 0.0
C372 C 0.541 0.84225 0.02492 0.0
C373 C 0.54218 0.8175 0.06742 0.0
C374 C 0.47304 0.83974 0.94863 0.0
C375 C 0.56363 0.86047 0.02394 0.0
C376 C 0.52079 0.91058 0.83787 0.0
C377 C 0.51221 0.92928 0.88004 0.0
C378 C 0.52266 0.88466 0.87134 0.0
C379 C 0.51582 0.87723 0.94883 0.0
C380 C 0.50697 0.89598 0.99141 0.0
C381 C 0.50528 0.92169 0.95661 0.0
C382 C 0.53217 0.86526 0.82402 0.0
C383 C 0.4995 0.88894 0.07418 0.0
H384 H 0.48305 0.79435 0.03628 0.0
H385 H 0.55918 0.8118 0.09904 0.0
H386 H 0.464 0.85498 0.97555 0.0
H387 H 0.47684 0.84779 0.8882 0.0
H388 H 0.45945 0.82314 0.9507 0.0
H389 H 0.58042 0.85088 0.05183 0.0
H390 H 0.56878 0.86866 0.96452 0.0
H391 H 0.55882 0.87678 0.05398 0.0
H392 H 0.52619 0.91621 0.77871 0.0
H393 H 0.49861 0.93592 0.98981 0.0
H394 H 0.51796 0.84932 0.82411 0.0
H395 H 0.54977 0.85668 0.84922 0.0
H396 H 0.53617 0.87397 0.76413 0.0
H397 H 0.48435 0.87373 0.08035 0.0
H398 H 0.49261 0.9057 0.09901 0.0
H399 H 0.51596 0.88102 0.10776 0.0
C400 C 0.72513 0.49996 0.13249 0.0
C401 C 0.72912 0.52326 0.16027 0.0
C402 C 0.70479 0.49672 0.08335 0.0
C403 C 0.68816 0.5173 0.06192 0.0
C404 C 0.69236 0.54094 0.08994 0.0
C405 C 0.71282 0.5436 0.13893 0.0
C406 C 0.70102 0.47126 0.05465 0.0
C407 C 0.67516 0.56336 0.0685 0.0
C408 C 0.64972 0.5181 0.88059 0.0
C409 C 0.62578 0.50899 0.90883 0.0
C410 C 0.67012 0.5208 0.92966 0.0
C411 C 0.66661 0.51431 0.00928 0.0
C412 C 0.64248 0.50525 0.03839 0.0
C413 C 0.62237 0.50273 0.98788 0.0
C414 C 0.69546 0.53068 0.8962 0.0
C415 C 0.63795 0.49812 0.12293 0.0
H416 H 0.73776 0.48422 0.14973 0.0
H417 H 0.71595 0.56156 0.16118 0.0
H418 H 0.68201 0.46287 0.07184 0.0
H419 H 0.7018 0.47422 0.99151 0.0
H420 H 0.71556 0.45719 0.07676 0.0
H421 H 0.68102 0.58041 0.09513 0.0
H422 H 0.67511 0.56899 0.00576 0.0
H423 H 0.65542 0.55766 0.08631 0.0
H424 H 0.6525 0.52344 0.81984 0.0
H425 H 0.60407 0.49543 0.01028 0.0
H426 H 0.71022 0.51639 0.91392 0.0
H427 H 0.70115 0.54867 0.91814 0.0
H428 H 0.69515 0.53465 0.833 0.0
H429 H 0.65089 0.48265 0.14658 0.0
H430 H 0.61812 0.4914 0.13651 0.0
H431 H 0.64224 0.51497 0.15215 0.0
C432 C 1.00179 0.67752 0.20005 0.0
C433 C 0.98221 0.69507 0.19021 0.0
C434 C 0.00551 0.66038 0.14773 0.0
C435 C 0.9892 0.66091 0.0842 0.0
C436 C 0.96915 0.67853 0.07478 0.0
C437 C 0.96592 0.6955 0.12808 0.0
C438 C 0.02713 0.64198 0.1598 0.0
C439 C 0.95137 0.67967 0.00798 0.0
C440 C 0.01711 0.63478 0.91494 0.0
C441 C 0.00723 0.60945 0.92495 0.0
C442 C 0.0107 0.65198 0.96479 0.0
C443 C 0.99391 0.64371 0.02631 0.0
C444 C 0.983 0.61851 0.03495 0.0
C445 C 0.98978 0.60168 0.98415 0.0
C446 C 0.02264 0.67873 0.95318 0.0
C447 C 0.96496 0.60897 0.09966 0.0
H448 H 0.01433 0.67735 0.24844 0.0
H449 H 0.95078 0.7092 0.12094 0.0
H450 H 0.01988 0.62188 0.16189 0.0
H451 H 0.04062 0.64596 0.11123 0.0
H452 H 0.03761 0.64349 0.21321 0.0
H453 H 0.93617 0.69375 0.01048 0.0
H454 H 0.96214 0.68514 0.95406 0.0
H455 H 0.94248 0.6604 0.00616 0.0
H456 H 0.03025 0.64106 0.86857 0.0
H457 H 0.98221 0.5821 0.99281 0.0
H458 H 0.03517 0.68107 0.00192 0.0
H459 H 0.00781 0.69338 0.95123 0.0
H460 H 0.03405 0.68271 0.89991 0.0
H461 H 0.97521 0.60759 0.15454 0.0
H462 H 0.95642 0.58975 0.0946 0.0
H463 H 0.94952 0.62278 0.10173 0.0
C464 C 0.05235 0.17909 0.48386 0.0
C465 C 0.03407 0.19538 0.44787 0.0
C466 C 0.0453 0.15793 0.53816 0.0
C467 C 0.01934 0.15314 0.5567 0.0
C468 C 1.00112 0.17107 0.52591 0.0
C469 C 0.0087 0.19195 0.47094 0.0
C470 C 0.06536 0.13933 0.56958 0.0
C471 C 0.97337 0.16697 0.54571 0.0
C472 C 1.00215 0.08196 0.59623 0.0
C473 C 1.00337 0.07708 0.67581 0.0
C474 C 0.00621 0.10694 0.55694 0.0
C475 C 0.01119 0.12758 0.59839 0.0
C476 C 0.01077 0.12304 0.67889 0.0
C477 C 0.00711 0.09778 0.71669 0.0
C478 C 0.00663 0.11095 0.47091 0.0
C479 C 0.01542 0.14457 0.7251 0.0
H480 H 0.07189 0.18165 0.46469 0.0
H481 H 0.99459 0.20442 0.44192 0.0
H482 H 0.06333 0.13425 0.63221 0.0
H483 H 0.063 0.12126 0.54463 0.0
H484 H 0.08482 0.1473 0.55633 0.0
H485 H 0.9626 0.18482 0.52931 0.0
H486 H 0.96522 0.15178 0.51507 0.0
H487 H 0.97074 0.16038 0.60761 0.0
H488 H 0.99928 0.06607 0.56437 0.0
H489 H 0.00785 0.09417 0.77837 0.0
H490 H 0.02599 0.11709 0.45005 0.0
H491 H 0.99365 0.12648 0.44813 0.0
H492 H 1.00101 0.09321 0.44737 0.0
H493 H 0.03587 0.15006 0.7229 0.0
H494 H 0.00982 0.13881 0.7857 0.0
H495 H 0.00483 0.16189 0.70131 0.0
C496 C 0.3307 0.0326 0.56954 0.0
C497 C 0.31599 0.01182 0.55136 0.0
C498 C 0.35227 0.02849 0.61519 0.0
C499 C 0.35916 0.00296 0.64323 0.0
C500 C 0.34265 0.98213 0.63248 0.0
C501 C 0.32118 0.98682 0.58627 0.0
C502 C 0.36917 0.0513 0.62573 0.0
C503 C 0.34903 0.95469 0.66271 0.0
C504 C 0.43025 0.99395 0.64471 0.0
C505 C 0.4362 0.99511 0.72096 0.0
C506 C 0.40508 0.99552 0.61946 0.0
C507 C 0.38534 0.9981 0.6719 0.0
C508 C 0.39109 0.99801 0.74966 0.0
C509 C 0.41646 0.9966 0.77322 0.0
C510 C 0.39975 0.99557 0.53587 0.0
C511 C 0.37062 1.00048 0.80741 0.0
H512 H 0.32676 0.05189 0.54173 0.0
H513 H 0.30998 0.97074 0.5713 0.0
H514 H 0.37575 0.04982 0.68544 0.0
H515 H 0.38619 0.05162 0.58881 0.0
H516 H 0.35939 0.06983 0.6105 0.0
H517 H 0.33222 0.9415 0.66314 0.0
H518 H 0.36382 0.94817 0.62599 0.0
H519 H 0.35672 0.95315 0.72126 0.0
H520 H 0.44536 0.9928 0.60405 0.0
H521 H 0.42084 0.99728 0.83249 0.0
H522 H 0.39199 0.01438 0.5109 0.0
H523 H 0.38527 0.98047 0.52851 0.0
H524 H 0.41701 0.9922 0.50325 0.0
H525 H 0.36291 0.02012 0.7966 0.0
H526 H 0.37781 0.99705 0.86674 0.0
H527 H 0.3547 0.98668 0.80205 0.0
C528 C 0.49728 0.32618 0.5863 0.0
C529 C 0.51486 0.32479 0.52808 0.0
C530 C 0.49933 0.346 0.63131 0.0
C531 C 0.51906 0.36491 0.61608 0.0
C532 C 0.53851 0.36155 0.56383 0.0
C533 C 0.53637 0.34119 0.52136 0.0
C534 C 0.47886 0.34824 0.68911 0.0
C535 C 0.55977 0.38128 0.54502 0.0
C536 C 0.50168 0.43404 0.62569 0.0
C537 C 0.51533 0.43922 0.68926 0.0
C538 C 0.5028 0.40987 0.60138 0.0
C539 C 0.51706 0.39015 0.64376 0.0
C540 C 0.53018 0.3951 0.70961 0.0
C541 C 0.52956 0.41978 0.73074 0.0
C542 C 0.48902 0.40558 0.52965 0.0
C543 C 0.54467 0.37433 0.75795 0.0
H544 H 0.48061 0.31354 0.5914 0.0
H545 H 0.54992 0.34004 0.4761 0.0
H546 H 0.48689 0.35508 0.74044 0.0
H547 H 0.46492 0.36248 0.66397 0.0
H548 H 0.46862 0.32954 0.7066 0.0
H549 H 0.57521 0.37395 0.51219 0.0
H550 H 0.55218 0.39873 0.51028 0.0
H551 H 0.5679 0.38721 0.59741 0.0
H552 H 0.49056 0.44908 0.59414 0.0
H553 H 0.53965 0.4237 0.78109 0.0
H554 H 0.47454 0.38987 0.54292 0.0
H555 H 0.50255 0.39953 0.48822 0.0
H556 H 0.47948 0.42314 0.50213 0.0
H557 H 0.53209 0.35719 0.77519 0.0
H558 H 0.55252 0.38089 0.81001 0.0
H559 H 0.56053 0.3681 0.72459 0.0
C560 C 0.17724 0.49016 0.49057 0.0
C561 C 0.17822 0.50254 0.41517 0.0
C562 C 0.1582 0.49589 0.54039 0.0
C563 C 0.1398 0.51422 0.51344 0.0
C564 C 0.14258 0.52875 0.44003 0.0
C565 C 0.16187 0.52279 0.39187 0.0
C566 C 0.15624 0.48042 0.61897 0.0
C567 C 0.1235 0.54848 0.40894 0.0
C568 C 0.0728 0.4971 0.58343 0.0
C569 C 0.06935 0.51399 0.63636 0.0
C570 C 0.09551 0.49735 0.54245 0.0
C571 C 0.11547 0.51471 0.55546 0.0
C572 C 0.11196 0.53219 0.60775 0.0
C573 C 0.08882 0.53175 0.6473 0.0
C574 C 0.09827 0.47866 0.48614 0.0
C575 C 0.1329 0.55071 0.62378 0.0
H576 H 0.18985 0.47446 0.50849 0.0
H577 H 0.16278 0.53244 0.33346 0.0
H578 H 0.15116 0.49287 0.66167 0.0
H579 H 0.14102 0.46541 0.61962 0.0
H580 H 0.17423 0.47075 0.63629 0.0
H581 H 0.13068 0.56108 0.35708 0.0
H582 H 0.10589 0.53843 0.39389 0.0
H583 H 0.11843 0.5607 0.45219 0.0
H584 H 0.0578 0.48335 0.57476 0.0
H585 H 0.08636 0.54461 0.68898 0.0
H586 H 0.11384 0.46534 0.50402 0.0
H587 H 0.10331 0.48926 0.42907 0.0
H588 H 0.08065 0.46703 0.48104 0.0
H589 H 0.14892 0.53975 0.65146 0.0
H590 H 0.12652 0.56435 0.66162 0.0
H591 H 0.14024 0.5619 0.56991 0.0
C592 C 0.01884 0.81598 0.08296 0.0
C593 C 0.99471 0.81015 0.1145 0.0
C594 C 0.02306 0.83798 0.02858 0.0
C595 C 1.00276 0.85458 0.00742 0.0
C596 C 0.97789 0.84718 0.03328 0.0
C597 C 0.97415 0.8249 0.08647 0.0
C598 C 0.04958 0.84467 -0.00085 0.0
C599 C 0.95565 0.86411 0.0107 0.0
C600 C 0.01581 0.92671 0.97393 0.0
C601 C 0.01256 0.93259 0.89513 0.0
C602 C 0.01338 0.90119 0.01075 0.0
C603 C 0.00781 0.88113 0.9675 0.0
C604 C 0.00537 0.88688 0.88761 0.0
C605 C 0.00791 0.91253 0.85239 0.0
C606 C 0.01569 0.89585 0.09641 0.0
C607 C 0.99991 0.86618 0.83888 0.0
H608 H 0.03474 0.80468 0.1057 0.0
H609 H 0.95558 0.82046 0.11205 0.0
H610 H 0.04935 0.85105 0.93671 0.0
H611 H 0.05748 0.86087 0.02612 0.0
H612 H 0.06234 0.8281 0.01177 0.0
H613 H 0.93729 0.85445 0.02991 0.0
H614 H 0.95771 0.88207 0.03631 0.0
H615 H 0.95516 0.86967 0.94797 0.0
H616 H 0.01933 0.94213 0.00719 0.0
H617 H 0.00574 0.9169 0.79121 0.0
H618 H 0.03035 0.88134 0.11285 0.0
H619 H 0.99746 0.88772 0.12183 0.0
H620 H 0.02074 0.91347 0.12138 0.0
H621 H 0.99093 0.87422 0.78428 0.0
H622 H 0.98731 0.85056 0.86818 0.0
H623 H 0.01802 0.85748 0.8257 0.0
C624 C 0.69489 0.02189 0.99237 0.0
C625 C 0.70004 0.99691 0.02751 0.0
C626 C 0.67345 0.02655 0.94605 0.0
C627 C 0.65692 0.00571 0.93543 0.0
C628 C 0.66379 0.9802 0.96371 0.0
C629 C 0.68533 0.97611 0.00948 0.0
C630 C 0.66709 0.05398 0.91557 0.0
C631 C 0.64689 0.95737 0.95329 0.0
C632 C 0.58585 0.01474 0.93385 0.0
C633 C 0.57991 0.01352 0.85763 0.0
C634 C 0.61102 0.0132 0.9591 0.0
C635 C 0.63076 0.01057 0.90671 0.0
C636 C 0.62501 0.01059 0.82898 0.0
C637 C 0.59965 0.012 0.8054 0.0
C638 C 0.61635 0.01321 0.04268 0.0
C639 C 0.64548 0.00806 0.77128 0.0
H640 H 0.7061 0.03798 0.00721 0.0
H641 H 0.68925 0.95684 0.03746 0.0
H642 H 0.65941 0.05547 0.85702 0.0
H643 H 0.6523 0.06055 0.95219 0.0
H644 H 0.68391 0.06716 0.91505 0.0
H645 H 0.65665 0.93885 0.96867 0.0
H646 H 0.62985 0.95709 0.99014 0.0
H647 H 0.64032 0.95881 0.89357 0.0
H648 H 0.57074 0.01593 0.97449 0.0
H649 H 0.59527 0.01127 0.74616 0.0
H650 H 0.63084 0.02831 0.04992 0.0
H651 H 0.62409 0.99441 0.06778 0.0
H652 H 0.59909 0.01663 0.07523 0.0
H653 H 0.66142 0.02185 0.77658 0.0
H654 H 0.63831 0.01146 0.71194 0.0
H655 H 0.65317 0.98842 0.78221 0.0
C656 C 0.49097 0.67274 0.01823 0.0
C657 C 0.51479 0.68477 0.02268 0.0
C658 C 0.48771 0.65212 0.97713 0.0
C659 C 0.50868 0.64394 0.93807 0.0
C660 C 0.53175 0.65852 0.93352 0.0
C661 C 0.53468 0.67863 0.97708 0.0
C662 C 0.46287 0.63702 0.98459 0.0
C663 C 0.55424 0.65108 0.88988 0.0
C664 C 0.516 0.5719 0.94565 0.0
C665 C 0.50632 0.56794 0.87512 0.0
C666 C 0.51637 0.59655 0.96718 0.0
C667 C 0.50795 0.61782 0.91522 0.0
C668 C 0.49862 0.61387 0.84312 0.0
C669 C 0.49745 0.58881 0.82452 0.0
C670 C 0.52579 0.59979 0.04557 0.0
C671 C 0.49048 0.6361 0.78512 0.0
H672 H 0.47575 0.67728 0.05473 0.0
H673 H 0.55318 0.68773 0.98145 0.0
H674 H 0.45718 0.63113 0.92955 0.0
H675 H 0.46512 0.61921 0.02608 0.0
H676 H 0.4474 0.64821 0.00509 0.0
H677 H 0.56838 0.66722 0.87783 0.0
H678 H 0.56362 0.63457 0.92397 0.0
H679 H 0.54822 0.64501 0.83529 0.0
H680 H 0.52305 0.55567 0.98413 0.0
H681 H 0.49049 0.58564 0.76919 0.0
H682 H 0.5113 0.60933 0.07621 0.0
H683 H 0.54312 0.61234 0.04067 0.0
H684 H 0.53029 0.58111 0.08044 0.0
H685 H 0.47482 0.6463 0.80834 0.0
H686 H 0.48412 0.62977 0.73108 0.0
H687 H 0.50648 0.65021 0.77232 0.0
C688 C 0.84488 0.51222 0.0852 0.0
C689 C 0.84305 0.49619 0.15557 0.0
C690 C 0.86422 0.50898 0.03319 0.0
C691 C 0.88213 0.48949 0.05286 0.0
C692 C 0.87866 0.47166 0.12029 0.0
C693 C 0.85898 0.4751 0.17048 0.0
C694 C 0.86684 0.5279 0.96065 0.0
C695 C 0.89723 0.45057 0.14349 0.0
C696 C 0.93256 0.47581 0.91201 0.0
C697 C 0.95285 0.49148 0.93045 0.0
C698 C 0.90923 0.47515 0.9505 0.0
C699 C 0.90639 0.49012 0.00979 0.0
C700 C 0.92704 0.50556 0.02959 0.0
C701 C 0.94991 0.50629 0.98903 0.0
C702 C 0.88747 0.45907 0.92633 0.0
C703 C 0.92495 0.52149 0.09338 0.0
H704 H 0.83261 0.52855 0.07349 0.0
H705 H 0.85735 0.4625 0.22461 0.0
H706 H 0.88231 0.5421 0.9671 0.0
H707 H 0.8719 0.51794 0.91207 0.0
H708 H 0.84912 0.53853 0.94685 0.0
H709 H 0.88998 0.4363 0.19169 0.0
H710 H 0.90162 0.44034 0.09496 0.0
H711 H 0.91526 0.45922 0.1612 0.0
H712 H 0.9346 0.4648 0.86547 0.0
H713 H 0.96552 0.51855 0.00296 0.0
H714 H 0.87189 0.4718 0.90403 0.0
H715 H 0.87978 0.44573 0.97587 0.0
H716 H 0.89311 0.44764 0.88151 0.0
H717 H 0.9099 0.53581 0.08033 0.0
H718 H 0.94297 0.53193 0.1028 0.0
H719 H 0.91949 0.50892 0.14714 0.0
C720 C 0.02742 0.18155 0.15927 0.0
C721 C 0.04937 0.19524 0.17545 0.0
C722 C 0.02856 0.16146 0.1158 0.0
C723 C 0.05227 0.15491 0.0878 0.0
C724 C 0.0741 0.17033 0.09766 0.0
C725 C 0.07242 0.19036 0.14183 0.0
C726 C 0.00472 0.14587 0.10548 0.0
C727 C 0.09951 0.16448 0.06633 0.0
C728 C 0.05587 0.08317 0.08578 0.0
C729 C 0.0488 0.08104 0.01083 0.0
C730 C 0.0585 0.10726 0.11031 0.0
C731 C 0.05445 0.12996 0.05828 0.0
C732 C 0.04937 0.12812 0.98105 0.0
C733 C 0.04636 0.10371 0.95837 0.0
C734 C 0.06404 0.10829 0.19327 0.0
C735 C 0.04546 0.15172 0.92297 0.0
H736 H 0.00959 0.18547 0.18513 0.0
H737 H 0.08941 0.20091 0.1546 0.0
H738 H 1.00234 0.14367 0.04473 0.0
H739 H 0.0062 0.12629 0.13848 0.0
H740 H 0.98753 0.15482 0.12491 0.0
H741 H 0.11354 0.18052 0.06788 0.0
H742 H 0.10694 0.14688 0.10056 0.0
H743 H 0.09763 0.16067 0.00675 0.0
H744 H 0.05853 0.0659 0.12626 0.0
H745 H 0.04088 0.10257 0.90026 0.0
H746 H 0.04731 0.11556 0.22056 0.0
H747 H 0.08018 0.12181 0.19875 0.0
H748 H 0.06857 0.08911 0.22502 0.0
H749 H 0.0565 0.16868 0.93667 0.0
H750 H 0.02509 0.15644 0.92168 0.0
H751 H 0.05097 0.14819 0.86511 0.0
C752 C 0.32312 0.00753 0.22643 0.0
C753 C 0.32077 0.02675 0.27264 0.0
C754 C 0.34367 0.0081 0.17557 0.0
C755 C 0.36214 0.02836 0.17111 0.0
C756 C 0.35847 0.04897 0.21267 0.0
C757 C 0.33785 0.04788 0.26303 0.0
C758 C 0.34674 0.98587 0.13173 0.0
C759 C 0.37751 0.07106 0.20927 0.0
C760 C 0.43075 0.01258 0.13897 0.0
C761 C 0.43492 0.02348 0.06272 0.0
C762 C 0.40712 0.01389 0.17429 0.0
C763 C 0.38692 0.02624 0.13241 0.0
C764 C 0.39082 0.03713 0.05535 0.0
C765 C 0.41477 0.03576 0.02159 0.0
C766 C 0.40381 1.00203 0.25675 0.0
C767 C 0.36975 0.0504 0.00876 0.0
H768 H 0.31005 0.99108 0.23431 0.0
H769 H 0.33599 0.06276 0.29879 0.0
H770 H 0.35252 0.9929 0.07201 0.0
H771 H 0.36192 0.97335 0.15814 0.0
H772 H 0.32901 0.97402 0.13158 0.0
H773 H 0.39498 0.0642 0.23957 0.0
H774 H 0.38288 0.07846 0.14946 0.0
H775 H 0.37014 0.08719 0.23617 0.0
H776 H 0.44583 1.0026 0.17118 0.0
H777 H 0.41771 0.04452 0.96303 0.0
H778 H 0.38824 0.98726 0.26226 0.0
H779 H 0.39845 0.01701 0.29132 0.0
H780 H 0.4213 0.99286 0.28108 0.0
H781 H 0.35275 0.03744 0.0109 0.0
H782 H 0.37534 0.05639 0.94825 0.0
H783 H 0.36423 0.06771 0.03312 0.0
C784 C 0.47876 0.36463 0.26714 0.0
C785 C 0.49025 0.34139 0.25889 0.0
C786 C 0.47927 0.38551 0.20807 0.0
C787 C 0.49108 0.38296 0.13817 0.0
C788 C 0.50105 0.35895 0.12739 0.0
C789 C 0.50062 0.33841 0.18817 0.0
C790 C 0.46845 0.41074 0.22213 0.0
C791 C 0.5133 0.35536 0.053 0.0
C792 C 0.47815 0.43462 0.96992 0.0
C793 C 0.50017 0.45028 0.96782 0.0
C794 C 0.4751 0.4124 0.02413 0.0
C795 C 0.49433 0.40594 0.0785 0.0
C796 C 0.51639 0.42194 0.0776 0.0
C797 C 0.51916 0.44379 0.0218 0.0
C798 C 0.45149 0.39563 0.02254 0.0
C799 C 0.5371 0.41597 0.13561 0.0
H800 H 0.4703 0.36685 0.32139 0.0
H801 H 0.50956 0.32052 0.18158 0.0
H802 H 0.48394 0.4255 0.2205 0.0
H803 H 0.45485 0.41779 0.17672 0.0
H804 H 0.45864 0.40908 0.2781 0.0
H805 H 0.51755 0.33489 0.05082 0.0
H806 H 0.50083 0.36241 0.00453 0.0
H807 H 0.53128 0.36688 0.04518 0.0
H808 H 0.46354 0.43929 0.92768 0.0
H809 H 0.53625 0.45577 0.02029 0.0
H810 H 0.44112 0.39426 0.0774 0.0
H811 H 0.45675 0.37582 0.01541 0.0
H812 H 0.43851 0.40312 0.97573 0.0
H813 H 0.52925 0.41524 0.19391 0.0
H814 H 0.55293 0.43049 0.12762 0.0
H815 H 0.5448 0.39676 0.13175 0.0
C816 C 0.17474 0.47358 0.10522 0.0
C817 C 0.17083 0.46289 0.1815 0.0
C818 C 0.15533 0.47267 0.05145 0.0
C819 C 0.13157 0.46085 0.07497 0.0
C820 C 0.12858 0.44775 0.15018 0.0
C821 C 0.14827 0.44891 0.20249 0.0
C822 C 0.15942 0.48654 0.9715 0.0
C823 C 0.10371 0.43479 0.1778 0.0
C824 C 0.07379 0.49434 0.98596 0.0
C825 C 0.06577 0.47806 0.93439 0.0
C826 C 0.09499 0.48872 0.03214 0.0
C827 C 0.1088 0.46633 0.02637 0.0
C828 C 0.10064 0.44954 0.97528 0.0
C829 C 0.0791 0.45555 0.93002 0.0
C830 C 0.10276 0.507 0.08666 0.0
C831 C 0.11495 0.4256 0.9673 0.0
H832 H 0.19214 0.48444 0.08895 0.0
H833 H 0.14535 0.44042 0.26148 0.0
H834 H 0.15131 0.47512 0.92921 0.0
H835 H 0.1496 0.50516 0.96487 0.0
H836 H 0.17985 0.49056 0.95841 0.0
H837 H 0.10579 0.42183 0.23275 0.0
H838 H 0.08989 0.44971 0.18613 0.0
H839 H 0.09565 0.42348 0.13516 0.0
H840 H 0.06355 0.51172 0.98991 0.0
H841 H 0.07313 0.44302 0.88974 0.0
H842 H 0.12217 0.51489 0.07253 0.0
H843 H 0.10314 0.49655 0.14573 0.0
H844 H 0.08973 0.52334 0.085 0.0
H845 H 0.13437 0.43105 0.9457 0.0
H846 H 0.10549 0.41391 0.92773 0.0
H847 H 0.11691 0.41349 0.02363 0.0
C848 C 0.9697 0.81624 0.43274 0.0
C849 C 0.99107 0.81407 0.38756 0.0
C850 C 0.96785 0.83689 0.47446 0.0
C851 C 0.98772 0.85573 0.4699 0.0
C852 C 0.01019 0.85229 0.42957 0.0
C853 C 0.01164 0.83141 0.38927 0.0
C854 C 0.94405 0.83944 0.5195 0.0
C855 C 0.03207 0.87156 0.42489 0.0
C856 C 0.97219 0.92518 0.48244 0.0
C857 C 0.98093 0.92795 0.55526 0.0
C858 C 0.97382 0.90159 0.45476 0.0
C859 C 0.98435 0.88018 0.5012 0.0
C860 C 0.99296 0.88276 0.57511 0.0
C861 C 0.99098 0.90654 0.60136 0.0
C862 C 0.96488 0.89975 0.37497 0.0
C863 C 0.00407 0.8605 0.62718 0.0
H864 H 0.95376 0.80289 0.43129 0.0
H865 H 0.02828 0.82955 0.35482 0.0
H866 H 0.94895 0.84307 0.57778 0.0
H867 H 0.93336 0.85619 0.49184 0.0
H868 H 0.93153 0.82195 0.52375 0.0
H869 H 0.0488 0.8652 0.39533 0.0
H870 H 0.0261 0.89032 0.39364 0.0
H871 H 0.0378 0.87479 0.48288 0.0
H872 H 0.96458 0.94165 0.44643 0.0
H873 H 0.99718 0.90826 0.65845 0.0
H874 H 0.95048 0.88393 0.37613 0.0
H875 H 0.98103 0.89512 0.33974 0.0
H876 H 0.95652 0.91792 0.34697 0.0
H877 H 0.98841 0.84868 0.6575 0.0
H878 H 0.01666 0.86736 0.67042 0.0
H879 H 0.01509 0.84787 0.59536 0.0
C880 C 0.67846 0.96086 0.3161 0.0
C881 C 0.69546 0.98205 0.30629 0.0
C882 C 0.65784 0.95973 0.36648 0.0
C883 C 0.65409 0.98037 0.40783 0.0
C884 C 0.67249 1.00071 0.40318 0.0
C885 C 0.69304 1.00131 0.35232 0.0
C886 C 0.63888 0.93756 0.37006 0.0
C887 C 0.66933 0.02298 0.44682 0.0
C888 C 0.58541 0.99598 0.43971 0.0
C889 C 0.58125 0.98515 0.51603 0.0
C890 C 0.60905 0.9947 0.40445 0.0
C891 C 0.62928 0.98245 0.44645 0.0
C892 C 0.6254 0.97163 0.52358 0.0
C893 C 0.60142 0.97297 0.55727 0.0
C894 C 0.61235 0.00648 0.32192 0.0
C895 C 0.64649 0.95848 0.5703 0.0
H896 H 0.68038 0.94595 0.28046 0.0
H897 H 0.70604 0.01781 0.34428 0.0
H898 H 0.63352 0.93021 0.42991 0.0
H899 H 0.62139 0.94433 0.33967 0.0
H900 H 0.64632 0.92143 0.34337 0.0
H901 H 0.68702 0.03489 0.44687 0.0
H902 H 0.65411 0.03542 0.4203 0.0
H903 H 0.66356 0.01599 0.50657 0.0
H904 H 0.57032 0.00588 0.4074 0.0
H905 H 0.59851 0.96425 0.61588 0.0
H906 H 0.61779 0.99148 0.28752 0.0
H907 H 0.62786 0.02131 0.3163 0.0
H908 H 0.59483 0.01556 0.29747 0.0
H909 H 0.65207 0.94114 0.54615 0.0
H910 H 0.64091 0.95254 0.63084 0.0
H911 H 0.66346 0.97149 0.56803 0.0
C912 C 0.51085 0.64046 0.2966 0.0
C913 C 0.52479 0.66351 0.29904 0.0
C914 C 0.51143 0.61995 0.35658 0.0
C915 C 0.52529 0.62278 0.42295 0.0
C916 C 0.53864 0.64625 0.4276 0.0
C917 C 0.5385 0.66626 0.36517 0.0
C918 C 0.49709 0.5952 0.34873 0.0
C919 C 0.55292 0.65026 0.49861 0.0
C920 C 0.50149 0.57677 0.59445 0.0
C921 C 0.51956 0.5575 0.60057 0.0
C922 C 0.50404 0.59889 0.53994 0.0
C923 C 0.52466 0.60135 0.48813 0.0
C924 C 0.54312 0.58201 0.4944 0.0
C925 C 0.54061 0.56049 0.55173 0.0
C926 C 0.48438 0.6194 0.53703 0.0
C927 C 0.56496 0.58359 0.43883 0.0
H928 H 0.49933 0.63831 0.24741 0.0
H929 H 0.54934 0.68388 0.36791 0.0
H930 H 0.50981 0.57861 0.36066 0.0
H931 H 0.48139 0.59197 0.39092 0.0
H932 H 0.48897 0.5954 0.29098 0.0
H933 H 0.56178 0.66984 0.49401 0.0
H934 H 0.53989 0.64729 0.54843 0.0
H935 H 0.56796 0.63586 0.50999 0.0
H936 H 0.48547 0.57475 0.63337 0.0
H937 H 0.55468 0.54566 0.557 0.0
H938 H 0.47301 0.61985 0.48442 0.0
H939 H 0.4937 0.63865 0.53522 0.0
H940 H 0.4713 0.61598 0.58679 0.0
H941 H 0.55757 0.58275 0.38076 0.0
H942 H 0.57836 0.56768 0.4537 0.0
H943 H 0.57549 0.60221 0.43685 0.0
C944 C 0.85898 0.49859 0.45195 0.0
C945 C 0.84696 0.5201 0.41318 0.0
C946 C 0.8786 0.50139 0.50337 0.0
C947 C 0.88658 0.52639 0.51564 0.0
C948 C 0.87337 0.5481 0.48036 0.0
C949 C 0.85359 0.54468 0.42948 0.0
C950 C 0.89188 0.47767 0.54053 0.0
C951 C 0.88128 0.57502 0.49206 0.0
C952 C 0.93221 0.52742 0.6803 0.0
C953 C 0.95555 0.52669 0.64324 0.0
C954 C 0.90947 0.52872 0.63914 0.0
C955 C 0.91028 0.5296 0.55907 0.0
C956 C 0.93405 0.53047 0.52119 0.0
C957 C 0.95643 0.52858 0.56402 0.0
C958 C 0.88462 0.52723 0.68192 0.0
C959 C 0.93578 0.5318 0.43583 0.0
H960 H 0.85385 0.4796 0.43897 0.0
H961 H 0.84447 0.56132 0.39868 0.0
H962 H 0.91128 0.4775 0.51653 0.0
H963 H 0.89376 0.47785 0.60265 0.0
H964 H 0.88168 0.45962 0.53145 0.0
H965 H 0.86705 0.58938 0.46943 0.0
H966 H 0.8842 0.57601 0.5534 0.0
H967 H 0.89959 0.5804 0.46246 0.0
H968 H 0.93168 0.52539 0.74199 0.0
H969 H 0.97457 0.52764 0.53592 0.0
H970 H 0.87538 0.50807 0.68093 0.0
H971 H 0.87154 0.54192 0.65424 0.0
H972 H 0.88722 0.52998 0.74229 0.0
H973 H 0.92865 0.51337 0.41937 0.0
H974 H 0.95554 0.53539 0.4145 0.0
H975 H 0.92375 0.5473 0.40709 0.0
loop_
_geom_bond_atom_site_label_1
_geom_bond_atom_site_label_2
_geom_bond_distance
_geom_bond_site_symmetry_2
_ccdc_geom_bond_type
H0 C3 0.929 . S
H1 C6 0.929 . S
H2 C8 0.930 . S
C3 H0 0.929 . S
C3 C4 1.398 . S
C3 C5 1.396 . S
C4 C3 1.398 . S
C4 C8 1.407 . S
C5 C3 1.396 . S
C5 C6 1.394 . S
C6 H1 0.929 . S
C6 C5 1.394 . S
C6 C7 1.382 . S
C7 C6 1.382 . S
C7 C8 1.392 . S
C7 N9 1.420 . S
C8 H2 0.930 . S
C8 C4 1.407 . S
C8 C7 1.392 . S
N9 C7 1.420 . S
N9 C10 1.244 . S
C10 N9 1.244 . S
H11 C14 0.929 . S
H12 C17 0.929 . S
H13 C19 0.930 . S
C14 H11 0.929 . S
C14 C15 1.398 . S
C14 C16 1.396 . S
C15 C14 1.398 . S
C15 C19 1.407 . S
C16 C14 1.396 . S
C16 C17 1.394 . S
C17 H12 0.929 . S
C17 C16 1.394 . S
C17 C18 1.382 . S
C18 C17 1.382 . S
C18 C19 1.392 . S
C18 N20 1.420 . S
C19 H13 0.930 . S
C19 C15 1.407 . S
C19 C18 1.392 . S
N20 C18 1.420 . S
N20 C21 1.244 . S
C21 N20 1.244 . S
H22 C25 0.929 . S
H23 C28 0.929 1_556 S
H24 C30 0.930 . S
C25 H22 0.929 . S
C25 C26 1.392 1_565 S
C25 C27 1.397 1_565 S
C26 C25 1.392 1_545 S
C26 C30 1.412 . S
C27 C25 1.397 1_545 S
C27 C28 1.396 . S
C28 H23 0.929 1_554 S
C28 C27 1.396 . S
C28 C29 1.382 . S
C29 C28 1.382 . S
C29 C30 1.392 . S
C29 N31 1.420 . S
C30 H24 0.930 . S
C30 C26 1.412 . S
C30 C29 1.392 . S
N31 C29 1.420 . S
N31 C32 1.228 1_545 S
C32 N31 1.228 1_565 S
H33 C36 0.929 . S
H34 C39 0.929 . S
H35 C41 0.930 . S
C36 H33 0.929 . S
C36 C37 1.398 . S
C36 C38 1.396 . S
C37 C36 1.398 . S
C37 C41 1.407 . S
C38 C36 1.396 . S
C38 C39 1.394 . S
C39 H34 0.929 . S
C39 C38 1.394 . S
C39 C40 1.382 . S
C40 C39 1.382 . S
C40 C41 1.392 . S
C40 N42 1.420 . S
C41 H35 0.930 . S
C41 C37 1.407 . S
C41 C40 1.392 . S
N42 C40 1.420 . S
N42 C43 1.244 . S
C43 N42 1.244 . S
H44 C47 0.929 . S
H45 C50 0.929 . S
H46 C52 0.930 . S
C47 H44 0.929 . S
C47 C48 1.398 . S
C47 C49 1.396 . S
C48 C47 1.398 . S
C48 C52 1.407 . S
C49 C47 1.396 . S
C49 C50 1.394 . S
C50 H45 0.929 . S
C50 C49 1.394 . S
C50 C51 1.382 . S
C51 C50 1.382 . S
C51 C52 1.392 . S
C51 N53 1.420 . S
C52 H46 0.930 . S
C52 C48 1.407 . S
C52 C51 1.392 . S
N53 C51 1.420 . S
N53 C54 1.244 . S
C54 N53 1.244 . S
H55 C58 0.929 . S
H56 C61 0.929 . S
H57 C63 0.930 . S
C58 H55 0.929 . S
C58 C59 1.398 . S
C58 C60 1.396 . S
C59 C58 1.398 . S
C59 C63 1.407 . S
C60 C58 1.396 . S
C60 C61 1.394 . S
C61 H56 0.929 . S
C61 C60 1.394 . S
C61 C62 1.382 . S
C62 C61 1.382 . S
C62 C63 1.392 . S
C62 N64 1.420 . S
C63 H57 0.930 . S
C63 C59 1.407 . S
C63 C62 1.392 . S
N64 C62 1.420 . S
N64 C65 1.244 . S
C65 N64 1.244 . S
H66 C69 0.929 . S
H67 C72 0.929 . S
H68 C74 0.930 . S
C69 H66 0.929 . S
C69 C70 1.399 1_565 S
C69 C71 1.390 1_565 S
C70 C69 1.399 1_545 S
C70 C74 1.418 . S
C71 C69 1.390 1_545 S
C71 C72 1.400 . S
C72 H67 0.929 . S
C72 C71 1.400 . S
C72 C73 1.382 . S
C73 C72 1.382 . S
C73 C74 1.392 . S
C73 N75 1.420 . S
C74 H68 0.930 . S
C74 C70 1.418 . S
C74 C73 1.392 . S
N75 C73 1.420 . S
N75 C76 1.239 1_545 S
C76 N75 1.239 1_565 S
H77 C80 0.929 . S
H78 C83 0.929 . S
H79 C85 0.930 . S
C80 H77 0.929 . S
C80 C81 1.398 . S
C80 C82 1.396 . S
C81 C80 1.398 . S
C81 C85 1.407 . S
C82 C80 1.396 . S
C82 C83 1.394 . S
C83 H78 0.929 . S
C83 C82 1.394 . S
C83 C84 1.382 . S
C84 C83 1.382 . S
C84 C85 1.392 . S
C84 N86 1.420 . S
C85 H79 0.930 . S
C85 C81 1.407 . S
C85 C84 1.392 . S
N86 C84 1.420 . S
N86 C87 1.244 . S
C87 N86 1.244 . S
Co88 N93 2.057 . S
Co88 O105 2.021 . S
Co88 O108 2.062 . S
Co88 O112 2.117 1_455 S
Co88 O113 2.020 1_545 S
C89 O109 1.259 1_545 S
C89 O112 1.258 . S
Co90 N99 2.057 . S
Co90 O106 2.117 1_655 S
Co90 O107 2.020 1_665 S
Co90 O109 2.021 . S
Co90 O114 2.062 . S
C91 N93 1.316 . S
C91 N94 1.347 1_556 S
C91 H96 0.931 . S
C92 N93 1.375 1_655 S
C92 C95 1.350 1_656 S
C92 H97 0.930 . S
N93 Co88 2.057 . S
N93 C91 1.316 . S
N93 C92 1.375 1_455 S
N94 C91 1.347 1_554 S
N94 C95 1.373 . S
C95 C92 1.350 1_454 S
C95 N94 1.373 . S
C95 H116 0.931 1_455 S
H96 C91 0.931 . S
H97 C92 0.930 . S
C98 O105 1.259 1_565 S
C98 O106 1.258 . S
N99 Co90 2.057 . S
N99 C100 1.316 . S
N99 C101 1.375 1_655 S
C100 N99 1.316 . S
C100 N102 1.347 . S
C100 H111 0.931 . S
C101 N99 1.375 1_455 S
C101 C103 1.350 . S
C101 H110 0.930 . S
N102 C100 1.347 . S
N102 C103 1.373 1_655 S
C103 C101 1.350 . S
C103 N102 1.373 1_455 S
C103 H117 0.931 . S
C104 O107 1.256 . S
C104 O108 1.255 . S
O105 Co88 2.021 . S
O105 C98 1.259 1_545 S
O106 Co90 2.117 1_455 S
O106 C98 1.258 . S
O107 Co90 2.020 1_445 S
O107 C104 1.256 . S
O108 Co88 2.062 . S
O108 C104 1.255 . S
O109 C89 1.259 1_565 S
O109 Co90 2.021 . S
H110 C101 0.930 . S
H111 C100 0.931 . S
O112 Co88 2.117 1_655 S
O112 C89 1.258 . S
O113 Co88 2.020 1_565 S
O113 C115 1.256 . S
O114 Co90 2.062 . S
O114 C115 1.255 1_655 S
C115 O113 1.256 . S
C115 O114 1.255 1_455 S
H116 C95 0.931 1_655 S
H117 C103 0.931 . S
Co118 N123 2.057 1_545 S
Co118 O135 2.021 . S
Co118 O138 2.067 . S
Co118 O142 2.117 1_545 S
Co118 O143 2.020 . S
C119 O139 1.259 . S
C119 O142 1.258 . S
Co120 N129 2.057 1_565 S
Co120 O136 2.117 1_565 S
Co120 O137 2.020 . S
Co120 O139 2.021 . S
Co120 O144 2.065 . S
C121 N123 1.316 1_545 S
C121 N124 1.347 1_556 S
C121 H126 0.931 . S
C122 N123 1.375 1_554 S
C122 C125 1.350 . S
C122 H127 0.928 1_554 S
N123 Co118 2.057 1_565 S
N123 C121 1.316 1_565 S
N123 C122 1.375 1_556 S
N124 C121 1.347 1_554 S
N124 C125 1.373 1_545 S
C125 C122 1.350 . S
C125 N124 1.373 1_565 S
C125 H146 0.931 . S
H126 C121 0.931 . S
H127 C122 0.928 1_556 S
C128 O135 1.259 . S
C128 O136 1.258 . S
N129 Co120 2.057 1_545 S
N129 C130 1.316 1_545 S
N129 C131 1.375 . S
C130 N129 1.316 1_565 S
C130 N132 1.347 . S
C130 H141 0.931 . S
C131 N129 1.375 . S
C131 C133 1.350 . S
C131 H140 0.930 . S
N132 C130 1.347 . S
N132 C133 1.373 1_565 S
C133 C131 1.350 . S
C133 N132 1.373 1_545 S
C133 H147 0.931 . S
C134 O137 1.256 . S
C134 O138 1.245 1_565 S
O135 Co118 2.021 . S
O135 C128 1.259 . S
O136 Co120 2.117 1_545 S
O136 C128 1.258 . S
O137 Co120 2.020 . S
O137 C134 1.256 . S
O138 Co118 2.067 . S
O138 C134 1.245 1_545 S
O139 C119 1.259 . S
O139 Co120 2.021 . S
H140 C131 0.930 . S
H141 C130 0.931 . S
O142 Co118 2.117 1_565 S
O142 C119 1.258 . S
O143 Co118 2.020 . S
O143 C145 1.256 . S
O144 Co120 2.065 . S
O144 C145 1.249 1_565 S
C145 O143 1.256 . S
C145 O144 1.249 1_545 S
H146 C125 0.931 . S
H147 C133 0.931 . S
Co148 N153 2.057 . S
Co148 O165 2.021 . S
Co148 O168 2.062 . S
Co148 O172 2.117 . S
Co148 O173 2.020 . S
C149 O169 1.259 . S
C149 O172 1.258 . S
Co150 N159 2.057 . S
Co150 O166 2.117 . S
Co150 O167 2.020 . S
Co150 O169 2.021 . S
Co150 O174 2.062 . S
C151 N153 1.316 . S
C151 N154 1.347 . S
C151 H156 0.931 . S
C152 N153 1.375 . S
C152 C155 1.350 . S
C152 H157 0.930 . S
N153 Co148 2.057 . S
N153 C151 1.316 . S
N153 C152 1.375 . S
N154 C151 1.347 . S
N154 C155 1.373 . S
C155 C152 1.350 . S
C155 N154 1.373 . S
C155 H176 0.931 . S
H156 C151 0.931 . S
H157 C152 0.930 . S
C158 O165 1.259 . S
C158 O166 1.258 . S
N159 Co150 2.057 . S
N159 C160 1.316 . S
N159 C161 1.375 . S
C160 N159 1.316 . S
C160 N162 1.347 . S
C160 H171 0.931 . S
C161 N159 1.375 . S
C161 C163 1.350 . S
C161 H170 0.930 . S
N162 C160 1.347 . S
N162 C163 1.373 . S
C163 C161 1.350 . S
C163 N162 1.373 . S
C163 H177 0.931 . S
C164 O167 1.256 . S
C164 O168 1.255 . S
O165 Co148 2.021 . S
O165 C158 1.259 . S
O166 Co150 2.117 . S
O166 C158 1.258 . S
O167 Co150 2.020 . S
O167 C164 1.256 . S
O168 Co148 2.062 . S
O168 C164 1.255 . S
O169 C149 1.259 . S
O169 Co150 2.021 . S
H170 C161 0.930 . S
H171 C160 0.931 . S
O172 Co148 2.117 . S
O172 C149 1.258 . S
O173 Co148 2.020 . S
O173 C175 1.256 . S
O174 Co150 2.062 . S
O174 C175 1.255 . S
C175 O173 1.256 . S
C175 O174 1.255 . S
H176 C155 0.931 . S
H177 C163 0.931 . S
Co178 N183 2.057 . S
Co178 O195 2.021 1_455 S
Co178 O198 2.062 1_455 S
Co178 O202 2.117 . S
Co178 O203 2.020 . S
C179 O199 1.259 . S
C179 O202 1.258 . S
Co180 N189 2.057 . S
Co180 O196 2.117 1_455 S
Co180 O197 2.020 1_455 S
Co180 O199 2.021 . S
Co180 O204 2.062 . S
C181 N183 1.316 1_655 S
C181 N184 1.342 1_655 S
C181 H186 0.931 . S
C182 N183 1.375 . S
C182 C185 1.350 . S
C182 H187 0.930 . S
N183 Co178 2.057 . S
N183 C181 1.316 1_455 S
N183 C182 1.375 . S
N184 C181 1.342 1_455 S
N184 C185 1.392 . S
C185 C182 1.350 . S
C185 N184 1.392 . S
C185 H206 0.931 . S
H186 C181 0.931 . S
H187 C182 0.930 . S
C188 O195 1.259 . S
C188 O196 1.258 . S
N189 Co180 2.057 . S
N189 C190 1.316 . S
N189 C191 1.375 1_455 S
C190 N189 1.316 . S
C190 N192 1.347 . S
C190 H201 0.931 . S
C191 N189 1.375 1_655 S
C191 C193 1.350 . S
C191 H200 0.930 . S
N192 C190 1.347 . S
N192 C193 1.373 1_455 S
C193 C191 1.350 . S
C193 N192 1.373 1_655 S
C193 H207 0.931 . S
C194 O197 1.256 . S
C194 O198 1.255 . S
O195 Co178 2.021 1_655 S
O195 C188 1.259 . S
O196 Co180 2.117 1_655 S
O196 C188 1.258 . S
O197 Co180 2.020 1_655 S
O197 C194 1.256 . S
O198 Co178 2.062 1_655 S
O198 C194 1.255 . S
O199 C179 1.259 . S
O199 Co180 2.021 . S
H200 C191 0.930 . S
H201 C190 0.931 . S
O202 Co178 2.117 . S
O202 C179 1.258 . S
O203 Co178 2.020 . S
O203 C205 1.256 . S
O204 Co180 2.062 . S
O204 C205 1.255 . S
C205 O203 1.256 . S
C205 O204 1.255 . S
H206 C185 0.931 . S
H207 C193 0.931 . S
C208 C209 1.358 1_545 S
C208 C210 1.394 . S
C208 H224 0.931 . S
C209 C208 1.358 1_565 S
C209 C213 1.408 . S
C210 C208 1.394 . S
C210 C211 1.369 1_545 S
C210 C214 1.531 . S
C211 C210 1.369 1_565 S
C211 C212 1.410 . S
C211 C219 1.503 . S
C212 C211 1.410 . S
C212 C213 1.392 . S
C212 C215 1.511 . S
C213 C209 1.408 . S
C213 C212 1.392 . S
C213 H225 0.929 . S
C214 C210 1.531 . S
C214 H226 0.960 . S
C214 H227 0.962 . S
C214 H228 0.960 . S
C215 C212 1.511 . S
C215 H229 0.961 . S
C215 H230 0.961 . S
C215 H231 0.961 . S
C216 C217 1.370 . S
C216 C218 1.363 . S
C216 H232 0.919 1_565 S
C217 C216 1.370 . S
C217 C221 1.408 . S
C218 C216 1.363 . S
C218 C219 1.370 . S
C218 C222 1.524 1_565 S
C219 C211 1.503 . S
C219 C218 1.370 . S
C219 C220 1.403 . S
C220 C219 1.403 . S
C220 C221 1.404 . S
C220 C223 1.539 . S
C221 C217 1.408 . S
C221 C220 1.404 . S
C221 H233 0.930 . S
C222 C218 1.524 1_545 S
C222 H234 0.956 . S
C222 H235 0.961 1_545 S
C222 H236 0.961 . S
C223 C220 1.539 . S
C223 H237 0.958 1_565 S
C223 H238 0.961 . S
C223 H239 0.960 . S
H224 C208 0.931 . S
H225 C213 0.929 . S
H226 C214 0.960 . S
H227 C214 0.962 . S
H228 C214 0.960 . S
H229 C215 0.961 . S
H230 C215 0.961 . S
H231 C215 0.961 . S
H232 C216 0.919 1_545 S
H233 C221 0.930 . S
H234 C222 0.956 . S
H235 C222 0.961 1_565 S
H236 C222 0.961 . S
H237 C223 0.958 1_545 S
H238 C223 0.961 . S
H239 C223 0.960 . S
C240 C241 1.391 . S
C240 C242 1.394 . S
C240 H256 0.931 . S
C241 C240 1.391 . S
C241 C245 1.376 . S
C242 C240 1.394 . S
C242 C243 1.369 . S
C242 C246 1.531 . S
C243 C242 1.369 . S
C243 C244 1.410 . S
C243 C251 1.503 . S
C244 C243 1.410 . S
C244 C245 1.392 . S
C244 C247 1.511 . S
C245 C241 1.376 . S
C245 C244 1.392 . S
C245 H257 0.929 . S
C246 C242 1.531 . S
C246 H258 0.960 . S
C246 H259 0.962 . S
C246 H260 0.960 . S
C247 C244 1.511 . S
C247 H261 0.961 . S
C247 H262 0.961 . S
C247 H263 0.961 . S
C248 C249 1.370 . S
C248 C250 1.363 . S
C248 H264 0.931 . S
C249 C248 1.370 . S
C249 C253 1.408 . S
C250 C248 1.363 . S
C250 C251 1.370 . S
C250 C254 1.524 . S
C251 C243 1.503 . S
C251 C250 1.370 . S
C251 C252 1.403 . S
C252 C251 1.403 . S
C252 C253 1.404 . S
C252 C255 1.539 . S
C253 C249 1.408 . S
C253 C252 1.404 . S
C253 H265 0.930 . S
C254 C250 1.524 . S
C254 H266 0.956 . S
C254 H267 0.961 . S
C254 H268 0.961 . S
C255 C252 1.539 . S
C255 H269 0.958 . S
C255 H270 0.961 . S
C255 H271 0.960 . S
H256 C240 0.931 . S
H257 C245 0.929 . S
H258 C246 0.960 . S
H259 C246 0.962 . S
H260 C246 0.960 . S
H261 C247 0.961 . S
H262 C247 0.961 . S
H263 C247 0.961 . S
H264 C248 0.931 . S
H265 C253 0.930 . S
H266 C254 0.956 . S
H267 C254 0.961 . S
H268 C254 0.961 . S
H269 C255 0.958 . S
H270 C255 0.961 . S
H271 C255 0.960 . S
C272 C273 1.391 . S
C272 C274 1.394 . S
C272 H288 0.931 . S
C273 C272 1.391 . S
C273 C277 1.376 . S
C274 C272 1.394 . S
C274 C275 1.369 . S
C274 C278 1.531 . S
C275 C274 1.369 . S
C275 C276 1.410 . S
C275 C283 1.503 . S
C276 C275 1.410 . S
C276 C277 1.392 . S
C276 C279 1.511 . S
C277 C273 1.376 . S
C277 C276 1.392 . S
C277 H289 0.929 . S
C278 C274 1.531 . S
C278 H290 0.960 . S
C278 H291 0.962 . S
C278 H292 0.960 . S
C279 C276 1.511 . S
C279 H293 0.961 . S
C279 H294 0.961 . S
C279 H295 0.961 . S
C280 C281 1.370 . S
C280 C282 1.363 . S
C280 H296 0.931 . S
C281 C280 1.370 . S
C281 C285 1.408 . S
C282 C280 1.363 . S
C282 C283 1.370 . S
C282 C286 1.524 . S
C283 C275 1.503 . S
C283 C282 1.370 . S
C283 C284 1.403 . S
C284 C283 1.403 . S
C284 C285 1.404 . S
C284 C287 1.539 . S
C285 C281 1.408 . S
C285 C284 1.404 . S
C285 H297 0.930 . S
C286 C282 1.524 . S
C286 H298 0.956 . S
C286 H299 0.961 . S
C286 H300 0.961 . S
C287 C284 1.539 . S
C287 H301 0.958 . S
C287 H302 0.961 . S
C287 H303 0.960 . S
H288 C272 0.931 . S
H289 C277 0.929 . S
H290 C278 0.960 . S
H291 C278 0.962 . S
H292 C278 0.960 . S
H293 C279 0.961 . S
H294 C279 0.961 . S
H295 C279 0.961 . S
H296 C280 0.931 . S
H297 C285 0.930 . S
H298 C286 0.956 . S
H299 C286 0.961 . S
H300 C286 0.961 . S
H301 C287 0.958 . S
H302 C287 0.961 . S
H303 C287 0.960 . S
C304 C305 1.391 . S
C304 C306 1.394 . S
C304 H320 0.931 . S
C305 C304 1.391 . S
C305 C309 1.376 . S
C306 C304 1.394 . S
C306 C307 1.369 . S
C306 C310 1.531 . S
C307 C306 1.369 . S
C307 C308 1.410 . S
C307 C315 1.503 . S
C308 C307 1.410 . S
C308 C309 1.392 . S
C308 C311 1.511 . S
C309 C305 1.376 . S
C309 C308 1.392 . S
C309 H321 0.929 . S
C310 C306 1.531 . S
C310 H322 0.960 . S
C310 H323 0.962 . S
C310 H324 0.960 . S
C311 C308 1.511 . S
C311 H325 0.961 . S
C311 H326 0.961 . S
C311 H327 0.961 . S
C312 C313 1.370 . S
C312 C314 1.363 . S
C312 H328 0.931 1_455 S
C313 C312 1.370 . S
C313 C317 1.408 . S
C314 C312 1.363 . S
C314 C315 1.370 . S
C314 C318 1.524 . S
C315 C307 1.503 . S
C315 C314 1.370 . S
C315 C316 1.403 . S
C316 C315 1.403 . S
C316 C317 1.404 . S
C316 C319 1.539 . S
C317 C313 1.408 . S
C317 C316 1.404 . S
C317 H329 0.930 . S
C318 C314 1.524 . S
C318 H330 0.956 1_455 S
C318 H331 0.961 . S
C318 H332 0.961 1_455 S
C319 C316 1.539 . S
C319 H333 0.958 . S
C319 H334 0.961 . S
C319 H335 0.960 . S
H320 C304 0.931 . S
H321 C309 0.929 . S
H322 C310 0.960 . S
H323 C310 0.962 . S
H324 C310 0.960 . S
H325 C311 0.961 . S
H326 C311 0.961 . S
H327 C311 0.961 . S
H328 C312 0.931 1_655 S
H329 C317 0.930 . S
H330 C318 0.956 1_655 S
H331 C318 0.961 . S
H332 C318 0.961 1_655 S
H333 C319 0.958 . S
H334 C319 0.961 . S
H335 C319 0.960 . S
C336 C337 1.391 . S
C336 C338 1.394 . S
C336 H352 0.931 . S
C337 C336 1.391 . S
C337 C341 1.376 1_546 S
C338 C336 1.394 . S
C338 C339 1.369 . S
C338 C342 1.531 . S
C339 C338 1.369 . S
C339 C340 1.410 1_546 S
C339 C347 1.503 . S
C340 C339 1.410 1_564 S
C340 C341 1.392 . S
C340 C343 1.511 . S
C341 C337 1.376 1_564 S
C341 C340 1.392 . S
C341 H353 0.929 . S
C342 C338 1.531 . S
C342 H354 0.960 . S
C342 H355 0.962 . S
C342 H356 0.960 . S
C343 C340 1.511 . S
C343 H357 0.961 . S
C343 H358 0.961 . S
C343 H359 0.961 . S
C344 C345 1.370 1_565 S
C344 C346 1.363 . S
C344 H360 0.931 . S
C345 C344 1.370 1_545 S
C345 C349 1.408 . S
C346 C344 1.363 . S
C346 C347 1.370 1_565 S
C346 C350 1.524 . S
C347 C339 1.503 . S
C347 C346 1.370 1_545 S
C347 C348 1.403 . S
C348 C347 1.403 . S
C348 C349 1.404 . S
C348 C351 1.539 . S
C349 C345 1.408 . S
C349 C348 1.404 . S
C349 H361 0.930 . S
C350 C346 1.524 . S
C350 H362 0.956 . S
C350 H363 0.961 . S
C350 H364 0.961 . S
C351 C348 1.539 . S
C351 H365 0.958 . S
C351 H366 0.961 . S
C351 H367 0.960 1_556 S
H352 C336 0.931 . S
H353 C341 0.929 . S
H354 C342 0.960 . S
H355 C342 0.962 . S
H356 C342 0.960 . S
H357 C343 0.961 . S
H358 C343 0.961 . S
H359 C343 0.961 . S
H360 C344 0.931 . S
H361 C349 0.930 . S
H362 C350 0.956 . S
H363 C350 0.961 . S
H364 C350 0.961 . S
H365 C351 0.958 . S
H366 C351 0.961 . S
H367 C351 0.960 1_554 S
C368 C369 1.391 1_556 S
C368 C370 1.394 . S
C368 H384 0.931 . S
C369 C368 1.391 1_554 S
C369 C373 1.376 . S
C370 C368 1.394 . S
C370 C371 1.369 . S
C370 C374 1.531 . S
C371 C370 1.369 . S
C371 C372 1.410 1_556 S
C371 C379 1.503 . S
C372 C371 1.410 1_554 S
C372 C373 1.392 . S
C372 C375 1.511 . S
C373 C369 1.376 . S
C373 C372 1.392 . S
C373 H385 0.929 . S
C374 C370 1.531 . S
C374 H386 0.960 . S
C374 H387 0.962 . S
C374 H388 0.960 . S
C375 C372 1.511 . S
C375 H389 0.961 . S
C375 H390 0.961 . S
C375 H391 0.961 . S
C376 C377 1.370 . S
C376 C378 1.363 . S
C376 H392 0.931 . S
C377 C376 1.370 . S
C377 C381 1.408 . S
C378 C376 1.363 . S
C378 C379 1.370 . S
C378 C382 1.524 . S
C379 C371 1.503 . S
C379 C378 1.370 . S
C379 C380 1.403 . S
C380 C379 1.403 . S
C380 C381 1.404 . S
C380 C383 1.539 . S
C381 C377 1.408 . S
C381 C380 1.404 . S
C381 H393 0.930 . S
C382 C378 1.524 . S
C382 H394 0.956 . S
C382 H395 0.961 1_556 S
C382 H396 0.961 . S
C383 C380 1.539 . S
C383 H397 0.958 . S
C383 H398 0.961 . S
C383 H399 0.960 . S
H384 C368 0.931 . S
H385 C373 0.929 . S
H386 C374 0.960 . S
H387 C374 0.962 . S
H388 C374 0.960 . S
H389 C375 0.961 . S
H390 C375 0.961 . S
H391 C375 0.961 . S
H392 C376 0.931 . S
H393 C381 0.930 . S
H394 C382 0.956 . S
H395 C382 0.961 1_554 S
H396 C382 0.961 . S
H397 C383 0.958 . S
H398 C383 0.961 . S
H399 C383 0.960 . S
C400 C401 1.391 . S
C400 C402 1.394 . S
C400 H416 0.931 . S
C401 C400 1.391 . S
C401 C405 1.376 . S
C402 C400 1.394 . S
C402 C403 1.369 . S
C402 C406 1.531 . S
C403 C402 1.369 . S
C403 C404 1.410 . S
C403 C411 1.503 1_554 S
C404 C403 1.410 . S
C404 C405 1.392 . S
C404 C407 1.511 1_554 S
C405 C401 1.376 . S
C405 C404 1.392 . S
C405 H417 0.929 . S
C406 C402 1.531 . S
C406 H418 0.960 . S
C406 H419 0.962 . S
C406 H420 0.960 . S
C407 C404 1.511 1_556 S
C407 H421 0.961 . S
C407 H422 0.961 . S
C407 H423 0.961 1_556 S
C408 C409 1.370 . S
C408 C410 1.363 . S
C408 H424 0.931 . S
C409 C408 1.370 . S
C409 C413 1.408 . S
C410 C408 1.363 . S
C410 C411 1.370 . S
C410 C414 1.524 . S
C411 C403 1.503 1_556 S
C411 C410 1.370 . S
C411 C412 1.403 1_556 S
C412 C411 1.403 1_554 S
C412 C413 1.404 1_554 S
C412 C415 1.539 . S
C413 C409 1.408 . S
C413 C412 1.404 1_556 S
C413 H425 0.930 . S
C414 C410 1.524 . S
C414 H426 0.956 . S
C414 H427 0.961 . S
C414 H428 0.961 . S
C415 C412 1.539 . S
C415 H429 0.958 . S
C415 H430 0.961 . S
C415 H431 0.960 . S
H416 C400 0.931 . S
H417 C405 0.929 . S
H418 C406 0.960 . S
H419 C406 0.962 . S
H420 C406 0.960 . S
H421 C407 0.961 . S
H422 C407 0.961 . S
H423 C407 0.961 1_554 S
H424 C408 0.931 . S
H425 C413 0.930 . S
H426 C414 0.956 . S
H427 C414 0.961 . S
H428 C414 0.961 . S
H429 C415 0.958 . S
H430 C415 0.961 . S
H431 C415 0.960 . S
C432 C433 1.391 . S
C432 C434 1.394 . S
C432 H448 0.931 . S
C433 C432 1.391 . S
C433 C437 1.376 . S
C434 C432 1.394 . S
C434 C435 1.369 1_554 S
C434 C438 1.531 1_655 S
C435 C434 1.369 1_556 S
C435 C436 1.410 . S
C435 C443 1.503 . S
C436 C435 1.410 . S
C436 C437 1.392 1_556 S
C436 C439 1.511 . S
C437 C433 1.376 . S
C437 C436 1.392 1_554 S
C437 H449 0.929 1_554 S
C438 C434 1.531 1_455 S
C438 H450 0.960 . S
C438 H451 0.962 . S
C438 H452 0.960 . S
C439 C436 1.511 . S
C439 H453 0.961 . S
C439 H454 0.961 . S
C439 H455 0.961 . S
C440 C441 1.370 . S
C440 C442 1.363 . S
C440 H456 0.931 1_655 S
C441 C440 1.370 . S
C441 C445 1.408 . S
C442 C440 1.363 . S
C442 C443 1.370 . S
C442 C446 1.524 . S
C443 C435 1.503 . S
C443 C442 1.370 . S
C443 C444 1.403 . S
C444 C443 1.403 . S
C444 C445 1.404 . S
C444 C447 1.539 1_556 S
C445 C441 1.408 . S
C445 C444 1.404 . S
C445 H457 0.930 . S
C446 C442 1.524 . S
C446 H458 0.956 1_655 S
C446 H459 0.961 . S
C446 H460 0.972 . S
C447 C444 1.539 1_554 S
C447 H461 0.958 . S
C447 H462 0.961 . S
C447 H463 0.960 . S
H448 C432 0.931 . S
H449 C437 0.929 1_556 S
H450 C438 0.960 . S
H451 C438 0.962 . S
H452 C438 0.960 . S
H453 C439 0.961 . S
H454 C439 0.961 . S
H455 C439 0.961 . S
H456 C440 0.931 1_455 S
H457 C445 0.930 . S
H458 C446 0.956 1_455 S
H459 C446 0.961 . S
H460 C446 0.972 . S
H461 C447 0.958 . S
H462 C447 0.961 . S
H463 C447 0.960 . S
C464 C465 1.391 . S
C464 C466 1.394 . S
C464 H480 0.931 . S
C465 C464 1.391 . S
C465 C469 1.376 . S
C466 C464 1.394 . S
C466 C467 1.369 . S
C466 C470 1.531 . S
C467 C466 1.369 . S
C467 C468 1.410 . S
C467 C475 1.503 . S
C468 C467 1.410 . S
C468 C469 1.392 . S
C468 C471 1.511 . S
C469 C465 1.376 . S
C469 C468 1.392 . S
C469 H481 0.929 . S
C470 C466 1.531 . S
C470 H482 0.960 . S
C470 H483 0.962 . S
C470 H484 0.960 . S
C471 C468 1.511 . S
C471 H485 0.961 1_455 S
C471 H486 0.961 1_455 S
C471 H487 0.961 . S
C472 C473 1.370 . S
C472 C474 1.363 . S
C472 H488 0.931 . S
C473 C472 1.370 . S
C473 C477 1.408 . S
C474 C472 1.363 . S
C474 C475 1.370 . S
C474 C478 1.524 . S
C475 C467 1.503 . S
C475 C474 1.370 . S
C475 C476 1.403 . S
C476 C475 1.403 . S
C476 C477 1.404 . S
C476 C479 1.539 . S
C477 C473 1.408 . S
C477 C476 1.404 . S
C477 H489 0.930 . S
C478 C474 1.524 . S
C478 H490 0.956 . S
C478 H491 0.961 . S
C478 H492 0.961 . S
C479 C476 1.539 . S
C479 H493 0.958 . S
C479 H494 0.961 . S
C479 H495 0.960 . S
H480 C464 0.931 . S
H481 C469 0.929 . S
H482 C470 0.960 . S
H483 C470 0.962 . S
H484 C470 0.960 . S
H485 C471 0.961 1_655 S
H486 C471 0.961 1_655 S
H487 C471 0.961 . S
H488 C472 0.931 . S
H489 C477 0.930 . S
H490 C478 0.956 . S
H491 C478 0.961 . S
H492 C478 0.961 . S
H493 C479 0.958 . S
H494 C479 0.961 . S
H495 C479 0.960 . S
C496 C497 1.365 1_545 S
C496 C498 1.394 . S
C496 H512 0.931 . S
C497 C496 1.365 1_565 S
C497 C501 1.403 . S
C498 C496 1.394 . S
C498 C499 1.369 1_545 S
C498 C502 1.531 . S
C499 C498 1.369 1_565 S
C499 C500 1.410 . S
C499 C507 1.503 . S
C500 C499 1.410 . S
C500 C501 1.392 . S
C500 C503 1.511 . S
C501 C497 1.403 . S
C501 C500 1.392 . S
C501 H513 0.929 . S
C502 C498 1.531 . S
C502 H514 0.960 . S
C502 H515 0.962 . S
C502 H516 0.960 . S
C503 C500 1.511 . S
C503 H517 0.961 . S
C503 H518 0.961 . S
C503 H519 0.961 . S
C504 C505 1.370 1_545 S
C504 C506 1.363 . S
C504 H520 0.931 . S
C505 C504 1.370 1_565 S
C505 C509 1.408 . S
C506 C504 1.363 . S
C506 C507 1.370 1_545 S
C506 C510 1.524 . S
C507 C499 1.503 . S
C507 C506 1.370 1_565 S
C507 C508 1.403 . S
C508 C507 1.403 . S
C508 C509 1.404 . S
C508 C511 1.539 . S
C509 C505 1.408 . S
C509 C508 1.404 . S
C509 H521 0.930 . S
C510 C506 1.524 . S
C510 H522 0.956 . S
C510 H523 0.961 1_545 S
C510 H524 0.961 . S
C511 C508 1.539 . S
C511 H525 0.958 . S
C511 H526 0.961 . S
C511 H527 0.960 . S
H512 C496 0.931 . S
H513 C501 0.929 . S
H514 C502 0.960 . S
H515 C502 0.962 . S
H516 C502 0.960 . S
H517 C503 0.961 . S
H518 C503 0.961 . S
H519 C503 0.961 . S
H520 C504 0.931 . S
H521 C509 0.930 . S
H522 C510 0.956 . S
H523 C510 0.961 1_565 S
H524 C510 0.961 . S
H525 C511 0.958 . S
H526 C511 0.961 . S
H527 C511 0.960 . S
C528 C529 1.391 . S
C528 C530 1.394 . S
C528 H544 0.931 . S
C529 C528 1.391 . S
C529 C533 1.376 . S
C530 C528 1.394 . S
C530 C531 1.369 . S
C530 C534 1.531 . S
C531 C530 1.369 . S
C531 C532 1.410 . S
C531 C539 1.503 . S
C532 C531 1.410 . S
C532 C533 1.392 . S
C532 C535 1.511 . S
C533 C529 1.376 . S
C533 C532 1.392 . S
C533 H545 0.929 . S
C534 C530 1.531 . S
C534 H546 0.960 . S
C534 H547 0.962 . S
C534 H548 0.960 . S
C535 C532 1.511 . S
C535 H549 0.961 . S
C535 H550 0.961 . S
C535 H551 0.961 . S
C536 C537 1.370 . S
C536 C538 1.363 . S
C536 H552 0.931 . S
C537 C536 1.370 . S
C537 C541 1.408 . S
C538 C536 1.363 . S
C538 C539 1.370 . S
C538 C542 1.524 . S
C539 C531 1.503 . S
C539 C538 1.370 . S
C539 C540 1.403 . S
C540 C539 1.403 . S
C540 C541 1.404 . S
C540 C543 1.539 . S
C541 C537 1.408 . S
C541 C540 1.404 . S
C541 H553 0.930 . S
C542 C538 1.524 . S
C542 H554 0.956 . S
C542 H555 0.961 . S
C542 H556 0.961 . S
C543 C540 1.539 . S
C543 H557 0.958 . S
C543 H558 0.961 . S
C543 H559 0.960 . S
H544 C528 0.931 . S
H545 C533 0.929 . S
H546 C534 0.960 . S
H547 C534 0.962 . S
H548 C534 0.960 . S
H549 C535 0.961 . S
H550 C535 0.961 . S
H551 C535 0.961 . S
H552 C536 0.931 . S
H553 C541 0.930 . S
H554 C542 0.956 . S
H555 C542 0.961 . S
H556 C542 0.961 . S
H557 C543 0.958 . S
H558 C543 0.961 . S
H559 C543 0.960 . S
C560 C561 1.391 . S
C560 C562 1.394 . S
C560 H576 0.931 . S
C561 C560 1.391 . S
C561 C565 1.376 . S
C562 C560 1.394 . S
C562 C563 1.369 . S
C562 C566 1.531 . S
C563 C562 1.369 . S
C563 C564 1.410 . S
C563 C571 1.503 . S
C564 C563 1.410 . S
C564 C565 1.392 . S
C564 C567 1.511 . S
C565 C561 1.376 . S
C565 C564 1.392 . S
C565 H577 0.929 . S
C566 C562 1.531 . S
C566 H578 0.960 . S
C566 H579 0.962 . S
C566 H580 0.960 . S
C567 C564 1.511 . S
C567 H581 0.961 . S
C567 H582 0.961 . S
C567 H583 0.961 . S
C568 C569 1.370 . S
C568 C570 1.363 . S
C568 H584 0.931 . S
C569 C568 1.370 . S
C569 C573 1.408 . S
C570 C568 1.363 . S
C570 C571 1.370 . S
C570 C574 1.524 . S
C571 C563 1.503 . S
C571 C570 1.370 . S
C571 C572 1.403 . S
C572 C571 1.403 . S
C572 C573 1.404 . S
C572 C575 1.539 . S
C573 C569 1.408 . S
C573 C572 1.404 . S
C573 H585 0.930 . S
C574 C570 1.524 . S
C574 H586 0.956 . S
C574 H587 0.961 . S
C574 H588 0.961 . S
C575 C572 1.539 . S
C575 H589 0.958 . S
C575 H590 0.961 . S
C575 H591 0.960 . S
H576 C560 0.931 . S
H577 C565 0.929 . S
H578 C566 0.960 . S
H579 C566 0.962 . S
H580 C566 0.960 . S
H581 C567 0.961 . S
H582 C567 0.961 . S
H583 C567 0.961 . S
H584 C568 0.931 . S
H585 C573 0.930 . S
H586 C574 0.956 . S
H587 C574 0.961 . S
H588 C574 0.961 . S
H589 C575 0.958 . S
H590 C575 0.961 . S
H591 C575 0.960 . S
C592 C593 1.391 1_556 S
C592 C594 1.394 . S
C592 H608 0.931 . S
C593 C592 1.391 1_554 S
C593 C597 1.376 . S
C594 C592 1.394 . S
C594 C595 1.369 . S
C594 C598 1.531 . S
C595 C594 1.369 . S
C595 C596 1.410 1_556 S
C595 C603 1.503 . S
C596 C595 1.410 1_554 S
C596 C597 1.392 . S
C596 C599 1.511 . S
C597 C593 1.376 . S
C597 C596 1.392 . S
C597 H609 0.929 . S
C598 C594 1.531 . S
C598 H610 0.960 . S
C598 H611 0.962 . S
C598 H612 0.960 . S
C599 C596 1.511 . S
C599 H613 0.961 . S
C599 H614 0.961 . S
C599 H615 0.961 . S
C600 C601 1.370 . S
C600 C602 1.363 . S
C600 H616 0.931 . S
C601 C600 1.370 . S
C601 C605 1.408 1_455 S
C602 C600 1.363 . S
C602 C603 1.370 1_455 S
C602 C606 1.530 . S
C603 C595 1.503 . S
C603 C602 1.370 1_655 S
C603 C604 1.403 . S
C604 C603 1.403 . S
C604 C605 1.404 . S
C604 C607 1.539 . S
C605 C601 1.408 1_655 S
C605 C604 1.404 . S
C605 H617 0.930 . S
C606 C602 1.530 . S
C606 H618 0.964 . S
C606 H619 0.950 1_556 S
C606 H620 0.958 1_556 S
C607 C604 1.539 . S
C607 H621 0.958 . S
C607 H622 0.961 . S
C607 H623 0.960 . S
H608 C592 0.931 . S
H609 C597 0.929 . S
H610 C598 0.960 . S
H611 C598 0.962 . S
H612 C598 0.960 . S
H613 C599 0.961 . S
H614 C599 0.961 . S
H615 C599 0.961 . S
H616 C600 0.931 . S
H617 C605 0.930 . S
H618 C606 0.964 . S
H619 C606 0.950 1_554 S
H620 C606 0.958 1_554 S
H621 C607 0.958 . S
H622 C607 0.961 . S
H623 C607 0.960 . S
C624 C625 1.391 . S
C624 C626 1.394 . S
C624 H640 0.931 1_556 S
C625 C624 1.391 . S
C625 C629 1.376 1_545 S
C626 C624 1.394 . S
C626 C627 1.369 . S
C626 C630 1.531 . S
C627 C626 1.369 . S
C627 C628 1.410 1_545 S
C627 C635 1.503 . S
C628 C627 1.410 1_565 S
C628 C629 1.392 . S
C628 C631 1.511 . S
C629 C625 1.376 1_565 S
C629 C628 1.392 . S
C629 H641 0.929 . S
C630 C626 1.531 . S
C630 H642 0.960 . S
C630 H643 0.962 1_556 S
C630 H644 0.960 . S
C631 C628 1.511 . S
C631 H645 0.961 . S
C631 H646 0.961 . S
C631 H647 0.961 . S
C632 C633 1.370 1_565 S
C632 C634 1.363 . S
C632 H648 0.931 . S
C633 C632 1.370 1_545 S
C633 C637 1.408 . S
C634 C632 1.363 . S
C634 C635 1.370 1_565 S
C634 C638 1.524 1_556 S
C635 C627 1.503 . S
C635 C634 1.370 1_545 S
C635 C636 1.403 . S
C636 C635 1.403 . S
C636 C637 1.404 . S
C636 C639 1.539 . S
C637 C633 1.408 . S
C637 C636 1.404 . S
C637 H649 0.930 . S
C638 C634 1.524 1_554 S
C638 H650 0.956 . S
C638 H651 0.961 . S
C638 H652 0.961 . S
C639 C636 1.539 . S
C639 H653 0.958 . S
C639 H654 0.961 . S
C639 H655 0.960 . S
H640 C624 0.931 1_554 S
H641 C629 0.929 . S
H642 C630 0.960 . S
H643 C630 0.962 1_554 S
H644 C630 0.960 . S
H645 C631 0.961 . S
H646 C631 0.961 . S
H647 C631 0.961 . S
H648 C632 0.931 . S
H649 C637 0.930 . S
H650 C638 0.956 . S
H651 C638 0.961 . S
H652 C638 0.961 . S
H653 C639 0.958 . S
H654 C639 0.961 . S
H655 C639 0.960 . S
C656 C657 1.391 1_556 S
C656 C658 1.394 . S
C656 H672 0.931 . S
C657 C656 1.391 1_554 S
C657 C661 1.376 . S
C658 C656 1.394 . S
C658 C659 1.369 . S
C658 C662 1.531 . S
C659 C658 1.369 . S
C659 C660 1.410 1_556 S
C659 C667 1.503 . S
C660 C659 1.410 1_554 S
C660 C661 1.392 . S
C660 C663 1.511 . S
C661 C657 1.376 . S
C661 C660 1.392 . S
C661 H673 0.929 . S
C662 C658 1.531 . S
C662 H674 0.960 . S
C662 H675 0.962 . S
C662 H676 0.960 . S
C663 C660 1.511 . S
C663 H677 0.961 . S
C663 H678 0.961 . S
C663 H679 0.961 1_554 S
C664 C665 1.370 . S
C664 C666 1.363 . S
C664 H680 0.931 . S
C665 C664 1.370 . S
C665 C669 1.408 . S
C666 C664 1.363 . S
C666 C667 1.370 . S
C666 C670 1.524 1_556 S
C667 C659 1.503 . S
C667 C666 1.370 . S
C667 C668 1.403 . S
C668 C667 1.403 . S
C668 C669 1.404 . S
C668 C671 1.539 . S
C669 C665 1.408 . S
C669 C668 1.404 . S
C669 H681 0.930 . S
C670 C666 1.524 1_554 S
C670 H682 0.956 . S
C670 H683 0.961 . S
C670 H684 0.961 . S
C671 C668 1.539 . S
C671 H685 0.958 . S
C671 H686 0.961 . S
C671 H687 0.960 . S
H672 C656 0.931 . S
H673 C661 0.929 . S
H674 C662 0.960 . S
H675 C662 0.962 . S
H676 C662 0.960 . S
H677 C663 0.961 . S
H678 C663 0.961 . S
H679 C663 0.961 1_556 S
H680 C664 0.931 . S
H681 C669 0.930 . S
H682 C670 0.956 . S
H683 C670 0.961 . S
H684 C670 0.961 . S
H685 C671 0.958 . S
H686 C671 0.961 . S
H687 C671 0.960 . S
C688 C689 1.391 . S
C688 C690 1.394 . S
C688 H704 0.931 . S
C689 C688 1.391 . S
C689 C693 1.376 . S
C690 C688 1.394 . S
C690 C691 1.369 . S
C690 C694 1.531 . S
C691 C690 1.369 . S
C691 C692 1.410 . S
C691 C699 1.503 1_554 S
C692 C691 1.410 . S
C692 C693 1.392 . S
C692 C695 1.511 . S
C693 C689 1.376 . S
C693 C692 1.392 . S
C693 H705 0.929 . S
C694 C690 1.531 . S
C694 H706 0.960 . S
C694 H707 0.962 1_554 S
C694 H708 0.960 . S
C695 C692 1.511 . S
C695 H709 0.961 . S
C695 H710 0.961 . S
C695 H711 0.961 . S
C696 C697 1.370 . S
C696 C698 1.363 . S
C696 H712 0.931 . S
C697 C696 1.370 . S
C697 C701 1.408 . S
C698 C696 1.363 . S
C698 C699 1.370 . S
C698 C702 1.524 . S
C699 C691 1.503 1_556 S
C699 C698 1.370 . S
C699 C700 1.403 1_556 S
C700 C699 1.403 1_554 S
C700 C701 1.404 1_554 S
C700 C703 1.539 . S
C701 C697 1.408 . S
C701 C700 1.404 1_556 S
C701 H713 0.932 . S
C702 C698 1.524 . S
C702 H714 0.956 . S
C702 H715 0.961 . S
C702 H716 0.961 . S
C703 C700 1.539 . S
C703 H717 0.958 . S
C703 H718 0.961 . S
C703 H719 0.960 . S
H704 C688 0.931 . S
H705 C693 0.929 . S
H706 C694 0.960 . S
H707 C694 0.962 1_556 S
H708 C694 0.960 . S
H709 C695 0.961 . S
H710 C695 0.961 . S
H711 C695 0.961 . S
H712 C696 0.931 . S
H713 C701 0.932 . S
H714 C702 0.956 . S
H715 C702 0.961 . S
H716 C702 0.961 . S
H717 C703 0.958 . S
H718 C703 0.961 . S
H719 C703 0.960 . S
C720 C721 1.391 . S
C720 C722 1.394 . S
C720 H736 0.931 . S
C721 C720 1.391 . S
C721 C725 1.376 . S
C722 C720 1.394 . S
C722 C723 1.369 . S
C722 C726 1.531 . S
C723 C722 1.369 . S
C723 C724 1.410 . S
C723 C731 1.503 . S
C724 C723 1.410 . S
C724 C725 1.392 . S
C724 C727 1.511 . S
C725 C721 1.376 . S
C725 C724 1.392 . S
C725 H737 0.929 . S
C726 C722 1.531 . S
C726 H738 0.960 . S
C726 H739 0.962 . S
C726 H740 0.960 1_455 S
C727 C724 1.511 . S
C727 H741 0.961 . S
C727 H742 0.961 . S
C727 H743 0.961 . S
C728 C729 1.370 . S
C728 C730 1.363 . S
C728 H744 0.931 . S
C729 C728 1.370 . S
C729 C733 1.408 . S
C730 C728 1.363 . S
C730 C731 1.370 . S
C730 C734 1.524 . S
C731 C723 1.503 . S
C731 C730 1.370 . S
C731 C732 1.403 . S
C732 C731 1.403 . S
C732 C733 1.404 . S
C732 C735 1.539 . S
C733 C729 1.408 . S
C733 C732 1.404 . S
C733 H745 0.930 1_554 S
C734 C730 1.524 . S
C734 H746 0.956 . S
C734 H747 0.961 . S
C734 H748 0.961 . S
C735 C732 1.539 . S
C735 H749 0.958 . S
C735 H750 0.961 1_554 S
C735 H751 0.960 . S
H736 C720 0.931 . S
H737 C725 0.929 . S
H738 C726 0.960 . S
H739 C726 0.962 . S
H740 C726 0.960 1_655 S
H741 C727 0.961 . S
H742 C727 0.961 . S
H743 C727 0.961 . S
H744 C728 0.931 . S
H745 C733 0.930 1_556 S
H746 C734 0.956 . S
H747 C734 0.961 . S
H748 C734 0.961 . S
H749 C735 0.958 . S
H750 C735 0.961 1_556 S
H751 C735 0.960 . S
C752 C753 1.391 . S
C752 C754 1.394 . S
C752 H768 0.931 . S
C753 C752 1.391 . S
C753 C757 1.376 . S
C754 C752 1.394 . S
C754 C755 1.369 . S
C754 C758 1.531 . S
C755 C754 1.369 . S
C755 C756 1.410 . S
C755 C763 1.503 . S
C756 C755 1.410 . S
C756 C757 1.392 . S
C756 C759 1.511 . S
C757 C753 1.376 . S
C757 C756 1.392 . S
C757 H769 0.929 . S
C758 C754 1.531 . S
C758 H770 0.960 . S
C758 H771 0.962 1_545 S
C758 H772 0.960 . S
C759 C756 1.511 . S
C759 H773 0.961 . S
C759 H774 0.961 . S
C759 H775 0.961 . S
C760 C761 1.370 1_565 S
C760 C762 1.363 . S
C760 H776 0.931 . S
C761 C760 1.370 1_545 S
C761 C765 1.408 . S
C762 C760 1.363 . S
C762 C763 1.370 1_565 S
C762 C766 1.524 . S
C763 C755 1.503 . S
C763 C762 1.370 1_545 S
C763 C764 1.403 . S
C764 C763 1.403 . S
C764 C765 1.404 . S
C764 C767 1.539 . S
C765 C761 1.408 . S
C765 C764 1.404 . S
C765 H777 0.930 . S
C766 C762 1.524 . S
C766 H778 0.956 . S
C766 H779 0.961 . S
C766 H780 0.961 . S
C767 C764 1.539 . S
C767 H781 0.958 . S
C767 H782 0.961 . S
C767 H783 0.960 . S
H768 C752 0.931 . S
H769 C757 0.929 . S
H770 C758 0.960 . S
H771 C758 0.962 1_565 S
H772 C758 0.960 . S
H773 C759 0.961 . S
H774 C759 0.961 . S
H775 C759 0.961 . S
H776 C760 0.931 . S
H777 C765 0.930 . S
H778 C766 0.956 . S
H779 C766 0.961 . S
H780 C766 0.961 . S
H781 C767 0.958 . S
H782 C767 0.961 . S
H783 C767 0.960 . S
C784 C785 1.391 . S
C784 C786 1.394 . S
C784 H800 0.931 . S
C785 C784 1.391 . S
C785 C789 1.376 . S
C786 C784 1.394 . S
C786 C787 1.369 . S
C786 C790 1.531 . S
C787 C786 1.369 . S
C787 C788 1.410 . S
C787 C795 1.503 . S
C788 C787 1.410 . S
C788 C789 1.392 . S
C788 C791 1.511 . S
C789 C785 1.376 . S
C789 C788 1.392 . S
C789 H801 0.929 . S
C790 C786 1.531 . S
C790 H802 0.960 . S
C790 H803 0.962 . S
C790 H804 0.960 . S
C791 C788 1.511 . S
C791 H805 0.961 . S
C791 H806 0.961 . S
C791 H807 0.961 . S
C792 C793 1.370 . S
C792 C794 1.363 1_556 S
C792 H808 0.931 . S
C793 C792 1.370 . S
C793 C797 1.408 1_556 S
C794 C792 1.363 1_554 S
C794 C795 1.370 . S
C794 C798 1.524 . S
C795 C787 1.503 . S
C795 C794 1.370 . S
C795 C796 1.403 . S
C796 C795 1.403 . S
C796 C797 1.404 . S
C796 C799 1.539 . S
C797 C793 1.408 1_554 S
C797 C796 1.404 . S
C797 H809 0.930 . S
C798 C794 1.524 . S
C798 H810 0.956 . S
C798 H811 0.961 . S
C798 H812 0.961 1_554 S
C799 C796 1.539 . S
C799 H813 0.958 . S
C799 H814 0.961 . S
C799 H815 0.960 . S
H800 C784 0.931 . S
H801 C789 0.929 . S
H802 C790 0.960 . S
H803 C790 0.962 . S
H804 C790 0.960 . S
H805 C791 0.961 . S
H806 C791 0.961 . S
H807 C791 0.961 . S
H808 C792 0.931 . S
H809 C797 0.930 . S
H810 C798 0.956 . S
H811 C798 0.961 . S
H812 C798 0.961 1_556 S
H813 C799 0.958 . S
H814 C799 0.961 . S
H815 C799 0.960 . S
C816 C817 1.391 . S
C816 C818 1.394 . S
C816 H832 0.931 . S
C817 C816 1.391 . S
C817 C821 1.376 . S
C818 C816 1.394 . S
C818 C819 1.369 . S
C818 C822 1.531 . S
C819 C818 1.369 . S
C819 C820 1.410 . S
C819 C827 1.503 . S
C820 C819 1.410 . S
C820 C821 1.392 . S
C820 C823 1.511 . S
C821 C817 1.376 . S
C821 C820 1.392 . S
C821 H833 0.929 . S
C822 C818 1.531 . S
C822 H834 0.960 1_554 S
C822 H835 0.962 . S
C822 H836 0.960 . S
C823 C820 1.511 . S
C823 H837 0.961 . S
C823 H838 0.961 . S
C823 H839 0.961 . S
C824 C825 1.370 1_554 S
C824 C826 1.363 . S
C824 H840 0.931 . S
C825 C824 1.370 1_556 S
C825 C829 1.408 . S
C826 C824 1.363 . S
C826 C827 1.370 . S
C826 C830 1.524 . S
C827 C819 1.503 . S
C827 C826 1.370 . S
C827 C828 1.403 . S
C828 C827 1.403 . S
C828 C829 1.404 1_554 S
C828 C831 1.539 1_554 S
C829 C825 1.408 . S
C829 C828 1.404 1_556 S
C829 H841 0.930 . S
C830 C826 1.524 . S
C830 H842 0.956 . S
C830 H843 0.961 . S
C830 H844 0.961 . S
C831 C828 1.539 1_556 S
C831 H845 0.958 . S
C831 H846 0.961 . S
C831 H847 0.960 1_556 S
H832 C816 0.931 . S
H833 C821 0.929 . S
H834 C822 0.960 1_556 S
H835 C822 0.962 . S
H836 C822 0.960 . S
H837 C823 0.961 . S
H838 C823 0.961 . S
H839 C823 0.961 . S
H840 C824 0.931 . S
H841 C829 0.930 . S
H842 C830 0.956 . S
H843 C830 0.961 . S
H844 C830 0.961 . S
H845 C831 0.958 . S
H846 C831 0.961 . S
H847 C831 0.960 1_554 S
C848 C849 1.391 . S
C848 C850 1.394 . S
C848 H864 0.931 . S
C849 C848 1.391 . S
C849 C853 1.376 . S
C850 C848 1.394 . S
C850 C851 1.369 . S
C850 C854 1.531 . S
C851 C850 1.369 . S
C851 C852 1.410 . S
C851 C859 1.503 . S
C852 C851 1.410 . S
C852 C853 1.392 . S
C852 C855 1.511 1_655 S
C853 C849 1.376 . S
C853 C852 1.392 . S
C853 H865 0.929 . S
C854 C850 1.531 . S
C854 H866 0.960 . S
C854 H867 0.962 . S
C854 H868 0.960 . S
C855 C852 1.511 1_455 S
C855 H869 0.961 . S
C855 H870 0.961 . S
C855 H871 0.961 . S
C856 C857 1.370 . S
C856 C858 1.363 . S
C856 H872 0.931 . S
C857 C856 1.370 . S
C857 C861 1.408 . S
C858 C856 1.363 . S
C858 C859 1.370 . S
C858 C862 1.524 . S
C859 C851 1.503 . S
C859 C858 1.370 . S
C859 C860 1.403 . S
C860 C859 1.403 . S
C860 C861 1.404 . S
C860 C863 1.539 . S
C861 C857 1.408 . S
C861 C860 1.404 . S
C861 H873 0.930 . S
C862 C858 1.524 . S
C862 H874 0.956 . S
C862 H875 0.961 . S
C862 H876 0.961 . S
C863 C860 1.539 . S
C863 H877 0.958 . S
C863 H878 0.961 1_655 S
C863 H879 0.960 . S
H864 C848 0.931 . S
H865 C853 0.929 . S
H866 C854 0.960 . S
H867 C854 0.962 . S
H868 C854 0.960 . S
H869 C855 0.961 . S
H870 C855 0.961 . S
H871 C855 0.961 . S
H872 C856 0.931 . S
H873 C861 0.930 . S
H874 C862 0.956 . S
H875 C862 0.961 . S
H876 C862 0.961 . S
H877 C863 0.958 . S
H878 C863 0.961 1_455 S
H879 C863 0.960 . S
C880 C881 1.391 . S
C880 C882 1.394 . S
C880 H896 0.931 . S
C881 C880 1.391 . S
C881 C885 1.376 1_565 S
C882 C880 1.394 . S
C882 C883 1.369 . S
C882 C886 1.531 . S
C883 C882 1.369 . S
C883 C884 1.410 1_565 S
C883 C891 1.503 . S
C884 C883 1.410 1_545 S
C884 C885 1.392 . S
C884 C887 1.511 . S
C885 C881 1.376 1_545 S
C885 C884 1.392 . S
C885 H897 0.929 . S
C886 C882 1.531 . S
C886 H898 0.960 . S
C886 H899 0.962 . S
C886 H900 0.960 . S
C887 C884 1.511 . S
C887 H901 0.961 . S
C887 H902 0.961 . S
C887 H903 0.961 . S
C888 C889 1.364 1_545 S
C888 C890 1.362 . S
C888 H904 0.939 . S
C889 C888 1.364 1_565 S
C889 C893 1.408 . S
C890 C888 1.362 . S
C890 C891 1.370 1_545 S
C890 C894 1.524 . S
C891 C883 1.503 . S
C891 C890 1.370 1_565 S
C891 C892 1.403 . S
C892 C891 1.403 . S
C892 C893 1.404 . S
C892 C895 1.539 . S
C893 C889 1.408 . S
C893 C892 1.404 . S
C893 H905 0.930 . S
C894 C890 1.524 . S
C894 H906 0.956 . S
C894 H907 0.961 . S
C894 H908 0.961 . S
C895 C892 1.539 . S
C895 H909 0.958 . S
C895 H910 0.961 . S
C895 H911 0.960 . S
H896 C880 0.931 . S
H897 C885 0.929 . S
H898 C886 0.960 . S
H899 C886 0.962 . S
H900 C886 0.960 . S
H901 C887 0.961 . S
H902 C887 0.961 . S
H903 C887 0.961 . S
H904 C888 0.939 . S
H905 C893 0.930 . S
H906 C894 0.956 . S
H907 C894 0.961 . S
H908 C894 0.961 . S
H909 C895 0.958 . S
H910 C895 0.961 . S
H911 C895 0.960 . S
C912 C913 1.391 . S
C912 C914 1.394 . S
C912 H928 0.931 . S
C913 C912 1.391 . S
C913 C917 1.376 . S
C914 C912 1.394 . S
C914 C915 1.369 . S
C914 C918 1.531 . S
C915 C914 1.369 . S
C915 C916 1.410 . S
C915 C923 1.503 . S
C916 C915 1.410 . S
C916 C917 1.392 . S
C916 C919 1.511 . S
C917 C913 1.376 . S
C917 C916 1.392 . S
C917 H929 0.929 . S
C918 C914 1.531 . S
C918 H930 0.960 . S
C918 H931 0.962 . S
C918 H932 0.960 . S
C919 C916 1.511 . S
C919 H933 0.961 . S
C919 H934 0.961 . S
C919 H935 0.961 . S
C920 C921 1.370 . S
C920 C922 1.363 . S
C920 H936 0.931 . S
C921 C920 1.370 . S
C921 C925 1.408 . S
C922 C920 1.363 . S
C922 C923 1.370 . S
C922 C926 1.524 . S
C923 C915 1.503 . S
C923 C922 1.370 . S
C923 C924 1.403 . S
C924 C923 1.403 . S
C924 C925 1.404 . S
C924 C927 1.539 . S
C925 C921 1.408 . S
C925 C924 1.404 . S
C925 H937 0.930 . S
C926 C922 1.524 . S
C926 H938 0.956 . S
C926 H939 0.961 . S
C926 H940 0.961 . S
C927 C924 1.539 . S
C927 H941 0.958 . S
C927 H942 0.961 . S
C927 H943 0.960 . S
H928 C912 0.931 . S
H929 C917 0.929 . S
H930 C918 0.960 . S
H931 C918 0.962 . S
H932 C918 0.960 . S
H933 C919 0.961 . S
H934 C919 0.961 . S
H935 C919 0.961 . S
H936 C920 0.931 . S
H937 C925 0.930 . S
H938 C926 0.956 . S
H939 C926 0.961 . S
H940 C926 0.961 . S
H941 C927 0.958 . S
H942 C927 0.961 . S
H943 C927 0.960 . S
C944 C945 1.391 . S
C944 C946 1.394 . S
C944 H960 0.931 . S
C945 C944 1.391 . S
C945 C949 1.376 . S
C946 C944 1.394 . S
C946 C947 1.369 . S
C946 C950 1.531 . S
C947 C946 1.369 . S
C947 C948 1.410 . S
C947 C955 1.503 . S
C948 C947 1.410 . S
C948 C949 1.392 . S
C948 C951 1.511 . S
C949 C945 1.376 . S
C949 C948 1.392 . S
C949 H961 0.929 . S
C950 C946 1.531 . S
C950 H962 0.960 . S
C950 H963 0.962 . S
C950 H964 0.960 . S
C951 C948 1.511 . S
C951 H965 0.961 . S
C951 H966 0.961 . S
C951 H967 0.961 . S
C952 C953 1.370 . S
C952 C954 1.363 . S
C952 H968 0.931 . S
C953 C952 1.370 . S
C953 C957 1.408 . S
C954 C952 1.363 . S
C954 C955 1.370 . S
C954 C958 1.524 . S
C955 C947 1.503 . S
C955 C954 1.370 . S
C955 C956 1.403 . S
C956 C955 1.403 . S
C956 C957 1.404 . S
C956 C959 1.539 . S
C957 C953 1.408 . S
C957 C956 1.404 . S
C957 H969 0.930 . S
C958 C954 1.524 . S
C958 H970 0.956 . S
C958 H971 0.961 . S
C958 H972 0.961 . S
C959 C956 1.539 . S
C959 H973 0.958 . S
C959 H974 0.961 . S
C959 H975 0.960 . S
H960 C944 0.931 . S
H961 C949 0.929 . S
H962 C950 0.960 . S
H963 C950 0.962 . S
H964 C950 0.960 . S
H965 C951 0.961 . S
H966 C951 0.961 . S
H967 C951 0.961 . S
H968 C952 0.931 . S
H969 C957 0.930 . S
H970 C958 0.956 . S
H971 C958 0.961 . S
H972 C958 0.961 . S
H973 C959 0.958 . S
H974 C959 0.961 . S
H975 C959 0.960 . S
C209 C76 1.672 . S
C217 C98 1.673 . S
C249 C128 1.804 . S
C241 C87 1.778 . S
C281 N162 1.363 . S
C273 C54 1.370 . S
C313 N192 1.416 . S
C305 C65 1.401 . S
C345 C89 1.674 . S
C337 C32 1.667 1_546 S
C369 C43 1.772 . S
C377 C119 1.810 . S
C401 C10 1.414 . S
C409 N154 1.359 . S
C433 C21 1.442 . S
C441 N184 1.387 1_655 S
C473 C104 0.405 . S
C465 C60 0.611 . S
C505 C134 0.753 . S
C497 C71 0.826 1_565 S
C537 C175 1.049 . S
C529 C82 1.017 . S
C561 C49 0.636 . S
C569 C205 0.563 . S
C593 C16 0.613 . S
C601 C115 0.391 . S
C633 C145 0.752 . S
C625 C27 0.808 1_556 S
C665 C164 1.033 . S
C657 C38 1.062 . S
C689 C5 0.528 . S
C697 C194 0.585 . S
C721 C59 1.489 . S
C729 N94 1.469 . S
C753 C70 1.414 . S
C761 N124 1.437 . S
C793 C149 1.659 . S
C785 C81 1.600 . S
C825 C179 1.593 . S
C817 C48 1.567 . S
C849 C15 1.473 . S
C857 N102 1.470 . S
C889 N132 1.431 . S
C881 C26 1.453 1_565 S
C921 C158 1.658 . S
C913 C37 1.602 . S
C945 C4 1.551 . S
C953 C188 1.594 . S
