# Generated by pormake.
# Topology tbo, (3,4)-cn, num edge types: 1
# Building blocks:
#     Node 0, Type 0, BuildingBlock: WUSLED_clean_sbu_0, # of connection points: 3
#     Node 1, Type 0, BuildingBlock: WUSLED_clean_sbu_0, # of connection points: 3
#     Node 2, Type 0, BuildingBlock: WUSLED_clean_sbu_0, # of connection points: 3
#     Node 3, Type 0, BuildingBlock: WUSLED_clean_sbu_0, # of connection points: 3
#     Node 4, Type 0, BuildingBlock: WUSLED_clean_sbu_0, # of connection points: 3
#     Node 5, Type 0, BuildingBlock: WUSLED_clean_sbu_0, # of connection points: 3
#     Node 6, Type 0, BuildingBlock: WUSLED_clean_sbu_0, # of connection points: 3
#     Node 7, Type 0, BuildingBlock: WUSLED_clean_sbu_0, # of connection points: 3
#     Node 8, Type 0, BuildingBlock: WUSLED_clean_sbu_0, # of connection points: 3
#     Node 9, Type 0, BuildingBlock: WUSLED_clean_sbu_0, # of connection points: 3
#     Node 10, Type 0, BuildingBlock: WUSLED_clean_sbu_0, # of connection points: 3
#     Node 11, Type 0, BuildingBlock: WUSLED_clean_sbu_0, # of connection points: 3
#     Node 12, Type 0, BuildingBlock: WUSLED_clean_sbu_0, # of connection points: 3
#     Node 13, Type 0, BuildingBlock: WUSLED_clean_sbu_0, # of connection points: 3
#     Node 14, Type 0, BuildingBlock: WUSLED_clean_sbu_0, # of connection points: 3
#     Node 15, Type 0, BuildingBlock: WUSLED_clean_sbu_0, # of connection points: 3
#     Node 16, Type 0, BuildingBlock: WUSLED_clean_sbu_0, # of connection points: 3
#     Node 17, Type 0, BuildingBlock: WUSLED_clean_sbu_0, # of connection points: 3
#     Node 18, Type 0, BuildingBlock: WUSLED_clean_sbu_0, # of connection points: 3
#     Node 19, Type 0, BuildingBlock: WUSLED_clean_sbu_0, # of connection points: 3
#     Node 20, Type 0, BuildingBlock: WUSLED_clean_sbu_0, # of connection points: 3
#     Node 21, Type 0, BuildingBlock: WUSLED_clean_sbu_0, # of connection points: 3
#     Node 22, Type 0, BuildingBlock: WUSLED_clean_sbu_0, # of connection points: 3
#     Node 23, Type 0, BuildingBlock: WUSLED_clean_sbu_0, # of connection points: 3
#     Node 24, Type 0, BuildingBlock: WUSLED_clean_sbu_0, # of connection points: 3
#     Node 25, Type 0, BuildingBlock: WUSLED_clean_sbu_0, # of connection points: 3
#     Node 26, Type 0, BuildingBlock: WUSLED_clean_sbu_0, # of connection points: 3
#     Node 27, Type 0, BuildingBlock: WUSLED_clean_sbu_0, # of connection points: 3
#     Node 28, Type 0, BuildingBlock: WUSLED_clean_sbu_0, # of connection points: 3
#     Node 29, Type 0, BuildingBlock: WUSLED_clean_sbu_0, # of connection points: 3
#     Node 30, Type 0, BuildingBlock: WUSLED_clean_sbu_0, # of connection points: 3
#     Node 31, Type 0, BuildingBlock: WUSLED_clean_sbu_0, # of connection points: 3
#     Node 32, Type 1, BuildingBlock: MIFKUJ_clean_linker_1, # of connection points: 4
#     Node 33, Type 1, BuildingBlock: MIFKUJ_clean_linker_1, # of connection points: 4
#     Node 34, Type 1, BuildingBlock: MIFKUJ_clean_linker_1, # of connection points: 4
#     Node 35, Type 1, BuildingBlock: MIFKUJ_clean_linker_1, # of connection points: 4
#     Node 36, Type 1, BuildingBlock: MIFKUJ_clean_linker_1, # of connection points: 4
#     Node 37, Type 1, BuildingBlock: MIFKUJ_clean_linker_1, # of connection points: 4
#     Node 38, Type 1, BuildingBlock: MIFKUJ_clean_linker_1, # of connection points: 4
#     Node 39, Type 1, BuildingBlock: MIFKUJ_clean_linker_1, # of connection points: 4
#     Node 40, Type 1, BuildingBlock: MIFKUJ_clean_linker_1, # of connection points: 4
#     Node 41, Type 1, BuildingBlock: MIFKUJ_clean_linker_1, # of connection points: 4
#     Node 42, Type 1, BuildingBlock: MIFKUJ_clean_linker_1, # of connection points: 4
#     Node 43, Type 1, BuildingBlock: MIFKUJ_clean_linker_1, # of connection points: 4
#     Node 44, Type 1, BuildingBlock: MIFKUJ_clean_linker_1, # of connection points: 4
#     Node 45, Type 1, BuildingBlock: MIFKUJ_clean_linker_1, # of connection points: 4
#     Node 46, Type 1, BuildingBlock: MIFKUJ_clean_linker_1, # of connection points: 4
#     Node 47, Type 1, BuildingBlock: MIFKUJ_clean_linker_1, # of connection points: 4
#     Node 48, Type 1, BuildingBlock: MIFKUJ_clean_linker_1, # of connection points: 4
#     Node 49, Type 1, BuildingBlock: MIFKUJ_clean_linker_1, # of connection points: 4
#     Node 50, Type 1, BuildingBlock: MIFKUJ_clean_linker_1, # of connection points: 4
#     Node 51, Type 1, BuildingBlock: MIFKUJ_clean_linker_1, # of connection points: 4
#     Node 52, Type 1, BuildingBlock: MIFKUJ_clean_linker_1, # of connection points: 4
#     Node 53, Type 1, BuildingBlock: MIFKUJ_clean_linker_1, # of connection points: 4
#     Node 54, Type 1, BuildingBlock: MIFKUJ_clean_linker_1, # of connection points: 4
#     Node 55, Type 1, BuildingBlock: MIFKUJ_clean_linker_1, # of connection points: 4
#     Edge 56, Type (0, 1), BuildingBlock: AJUNOK_clean_linker_0, # of connection points: 2
#     Edge 57, Type (0, 1), BuildingBlock: AJUNOK_clean_linker_0, # of connection points: 2
#     Edge 58, Type (0, 1), BuildingBlock: AJUNOK_clean_linker_0, # of connection points: 2
#     Edge 59, Type (0, 1), BuildingBlock: AJUNOK_clean_linker_0, # of connection points: 2
#     Edge 60, Type (0, 1), BuildingBlock: AJUNOK_clean_linker_0, # of connection points: 2
#     Edge 61, Type (0, 1), BuildingBlock: AJUNOK_clean_linker_0, # of connection points: 2
#     Edge 62, Type (0, 1), BuildingBlock: AJUNOK_clean_linker_0, # of connection points: 2
#     Edge 63, Type (0, 1), BuildingBlock: AJUNOK_clean_linker_0, # of connection points: 2
#     Edge 64, Type (0, 1), BuildingBlock: AJUNOK_clean_linker_0, # of connection points: 2
#     Edge 65, Type (0, 1), BuildingBlock: AJUNOK_clean_linker_0, # of connection points: 2
#     Edge 66, Type (0, 1), BuildingBlock: AJUNOK_clean_linker_0, # of connection points: 2
#     Edge 67, Type (0, 1), BuildingBlock: AJUNOK_clean_linker_0, # of connection points: 2
#     Edge 68, Type (0, 1), BuildingBlock: AJUNOK_clean_linker_0, # of connection points: 2
#     Edge 69, Type (0, 1), BuildingBlock: AJUNOK_clean_linker_0, # of connection points: 2
#     Edge 70, Type (0, 1), BuildingBlock: AJUNOK_clean_linker_0, # of connection points: 2
#     Edge 71, Type (0, 1), BuildingBlock: AJUNOK_clean_linker_0, # of connection points: 2
#     Edge 72, Type (0, 1), BuildingBlock: AJUNOK_clean_linker_0, # of connection points: 2
#     Edge 73, Type (0, 1), BuildingBlock: AJUNOK_clean_linker_0, # of connection points: 2
#     Edge 74, Type (0, 1), BuildingBlock: AJUNOK_clean_linker_0, # of connection points: 2
#     Edge 75, Type (0, 1), BuildingBlock: AJUNOK_clean_linker_0, # of connection points: 2
#     Edge 76, Type (0, 1), BuildingBlock: AJUNOK_clean_linker_0, # of connection points: 2
#     Edge 77, Type (0, 1), BuildingBlock: AJUNOK_clean_linker_0, # of connection points: 2
#     Edge 78, Type (0, 1), BuildingBlock: AJUNOK_clean_linker_0, # of connection points: 2
#     Edge 79, Type (0, 1), BuildingBlock: AJUNOK_clean_linker_0, # of connection points: 2
#     Edge 80, Type (0, 1), BuildingBlock: AJUNOK_clean_linker_0, # of connection points: 2
#     Edge 81, Type (0, 1), BuildingBlock: AJUNOK_clean_linker_0, # of connection points: 2
#     Edge 82, Type (0, 1), BuildingBlock: AJUNOK_clean_linker_0, # of connection points: 2
#     Edge 83, Type (0, 1), BuildingBlock: AJUNOK_clean_linker_0, # of connection points: 2
#     Edge 84, Type (0, 1), BuildingBlock: AJUNOK_clean_linker_0, # of connection points: 2
#     Edge 85, Type (0, 1), BuildingBlock: AJUNOK_clean_linker_0, # of connection points: 2
#     Edge 86, Type (0, 1), BuildingBlock: AJUNOK_clean_linker_0, # of connection points: 2
#     Edge 87, Type (0, 1), BuildingBlock: AJUNOK_clean_linker_0, # of connection points: 2
#     Edge 88, Type (0, 1), BuildingBlock: AJUNOK_clean_linker_0, # of connection points: 2
#     Edge 89, Type (0, 1), BuildingBlock: AJUNOK_clean_linker_0, # of connection points: 2
#     Edge 90, Type (0, 1), BuildingBlock: AJUNOK_clean_linker_0, # of connection points: 2
#     Edge 91, Type (0, 1), BuildingBlock: AJUNOK_clean_linker_0, # of connection points: 2
#     Edge 92, Type (0, 1), BuildingBlock: AJUNOK_clean_linker_0, # of connection points: 2
#     Edge 93, Type (0, 1), BuildingBlock: AJUNOK_clean_linker_0, # of connection points: 2
#     Edge 94, Type (0, 1), BuildingBlock: AJUNOK_clean_linker_0, # of connection points: 2
#     Edge 95, Type (0, 1), BuildingBlock: AJUNOK_clean_linker_0, # of connection points: 2
#     Edge 96, Type (0, 1), BuildingBlock: AJUNOK_clean_linker_0, # of connection points: 2
#     Edge 97, Type (0, 1), BuildingBlock: AJUNOK_clean_linker_0, # of connection points: 2
#     Edge 98, Type (0, 1), BuildingBlock: AJUNOK_clean_linker_0, # of connection points: 2
#     Edge 99, Type (0, 1), BuildingBlock: AJUNOK_clean_linker_0, # of connection points: 2
#     Edge 100, Type (0, 1), BuildingBlock: AJUNOK_clean_linker_0, # of connection points: 2
#     Edge 101, Type (0, 1), BuildingBlock: AJUNOK_clean_linker_0, # of connection points: 2
#     Edge 102, Type (0, 1), BuildingBlock: AJUNOK_clean_linker_0, # of connection points: 2
#     Edge 103, Type (0, 1), BuildingBlock: AJUNOK_clean_linker_0, # of connection points: 2
#     Edge 104, Type (0, 1), BuildingBlock: AJUNOK_clean_linker_0, # of connection points: 2
#     Edge 105, Type (0, 1), BuildingBlock: AJUNOK_clean_linker_0, # of connection points: 2
#     Edge 106, Type (0, 1), BuildingBlock: AJUNOK_clean_linker_0, # of connection points: 2
#     Edge 107, Type (0, 1), BuildingBlock: AJUNOK_clean_linker_0, # of connection points: 2
#     Edge 108, Type (0, 1), BuildingBlock: AJUNOK_clean_linker_0, # of connection points: 2
#     Edge 109, Type (0, 1), BuildingBlock: AJUNOK_clean_linker_0, # of connection points: 2
#     Edge 110, Type (0, 1), BuildingBlock: AJUNOK_clean_linker_0, # of connection points: 2
#     Edge 111, Type (0, 1), BuildingBlock: AJUNOK_clean_linker_0, # of connection points: 2
#     Edge 112, Type (0, 1), BuildingBlock: AJUNOK_clean_linker_0, # of connection points: 2
#     Edge 113, Type (0, 1), BuildingBlock: AJUNOK_clean_linker_0, # of connection points: 2
#     Edge 114, Type (0, 1), BuildingBlock: AJUNOK_clean_linker_0, # of connection points: 2
#     Edge 115, Type (0, 1), BuildingBlock: AJUNOK_clean_linker_0, # of connection points: 2
#     Edge 116, Type (0, 1), BuildingBlock: AJUNOK_clean_linker_0, # of connection points: 2
#     Edge 117, Type (0, 1), BuildingBlock: AJUNOK_clean_linker_0, # of connection points: 2
#     Edge 118, Type (0, 1), BuildingBlock: AJUNOK_clean_linker_0, # of connection points: 2
#     Edge 119, Type (0, 1), BuildingBlock: AJUNOK_clean_linker_0, # of connection points: 2
#     Edge 120, Type (0, 1), BuildingBlock: AJUNOK_clean_linker_0, # of connection points: 2
#     Edge 121, Type (0, 1), BuildingBlock: AJUNOK_clean_linker_0, # of connection points: 2
#     Edge 122, Type (0, 1), BuildingBlock: AJUNOK_clean_linker_0, # of connection points: 2
#     Edge 123, Type (0, 1), BuildingBlock: AJUNOK_clean_linker_0, # of connection points: 2
#     Edge 124, Type (0, 1), BuildingBlock: AJUNOK_clean_linker_0, # of connection points: 2
#     Edge 125, Type (0, 1), BuildingBlock: AJUNOK_clean_linker_0, # of connection points: 2
#     Edge 126, Type (0, 1), BuildingBlock: AJUNOK_clean_linker_0, # of connection points: 2
#     Edge 127, Type (0, 1), BuildingBlock: AJUNOK_clean_linker_0, # of connection points: 2
#     Edge 128, Type (0, 1), BuildingBlock: AJUNOK_clean_linker_0, # of connection points: 2
#     Edge 129, Type (0, 1), BuildingBlock: AJUNOK_clean_linker_0, # of connection points: 2
#     Edge 130, Type (0, 1), BuildingBlock: AJUNOK_clean_linker_0, # of connection points: 2
#     Edge 131, Type (0, 1), BuildingBlock: AJUNOK_clean_linker_0, # of connection points: 2
#     Edge 132, Type (0, 1), BuildingBlock: AJUNOK_clean_linker_0, # of connection points: 2
#     Edge 133, Type (0, 1), BuildingBlock: AJUNOK_clean_linker_0, # of connection points: 2
#     Edge 134, Type (0, 1), BuildingBlock: AJUNOK_clean_linker_0, # of connection points: 2
#     Edge 135, Type (0, 1), BuildingBlock: AJUNOK_clean_linker_0, # of connection points: 2
#     Edge 136, Type (0, 1), BuildingBlock: AJUNOK_clean_linker_0, # of connection points: 2
#     Edge 137, Type (0, 1), BuildingBlock: AJUNOK_clean_linker_0, # of connection points: 2
#     Edge 138, Type (0, 1), BuildingBlock: AJUNOK_clean_linker_0, # of connection points: 2
#     Edge 139, Type (0, 1), BuildingBlock: AJUNOK_clean_linker_0, # of connection points: 2
#     Edge 140, Type (0, 1), BuildingBlock: AJUNOK_clean_linker_0, # of connection points: 2
#     Edge 141, Type (0, 1), BuildingBlock: AJUNOK_clean_linker_0, # of connection points: 2
#     Edge 142, Type (0, 1), BuildingBlock: AJUNOK_clean_linker_0, # of connection points: 2
#     Edge 143, Type (0, 1), BuildingBlock: AJUNOK_clean_linker_0, # of connection points: 2
#     Edge 144, Type (0, 1), BuildingBlock: AJUNOK_clean_linker_0, # of connection points: 2
#     Edge 145, Type (0, 1), BuildingBlock: AJUNOK_clean_linker_0, # of connection points: 2
#     Edge 146, Type (0, 1), BuildingBlock: AJUNOK_clean_linker_0, # of connection points: 2
#     Edge 147, Type (0, 1), BuildingBlock: AJUNOK_clean_linker_0, # of connection points: 2
#     Edge 148, Type (0, 1), BuildingBlock: AJUNOK_clean_linker_0, # of connection points: 2
#     Edge 149, Type (0, 1), BuildingBlock: AJUNOK_clean_linker_0, # of connection points: 2
#     Edge 150, Type (0, 1), BuildingBlock: AJUNOK_clean_linker_0, # of connection points: 2
#     Edge 151, Type (0, 1), BuildingBlock: AJUNOK_clean_linker_0, # of connection points: 2
# Relax obj value: 0.000
# Max RMSD: 0.011
# Mean RMSD: 0.006
data_MOF--net-tbo--node1-WUSLED_clean_sbu_0--node2-MIFKUJ_clean_linker_1--edge1-AJUNOK_clean_linker_0
_symmetry_space_group_name_H-M    P1
_symmetry_Int_Tables_number       1
_symmetry_cell_setting            triclinic
loop_
_symmetry_equiv_pos_as_xyz
'x, y, z'
_cell_length_a     89.94086
_cell_length_b     90.226195
_cell_length_c     90.076192
_cell_angle_alpha  89.589792
_cell_angle_beta   90.309683
_cell_angle_gamma 90.888085
loop_
_atom_site_label
_atom_site_type_symbol
_atom_site_fract_x
_atom_site_fract_y
_atom_site_fract_z
_atom_type_partial_charge
C0 C 0.18602 0.13977 0.20015 0.0
C1 C 0.20167 0.1397 0.20007 0.0
C2 C 0.20182 0.11446 0.2105 0.0
C3 C 0.20947 0.12718 0.20515 0.0
C4 C 0.18617 0.11457 0.21034 0.0
C5 C 0.17842 0.127 0.20523 0.0
U6 U 0.17452 0.17558 0.1774 0.0
O7 O 0.15169 0.1825 0.17172 0.0
O8 O 0.16549 0.19626 0.18646 0.0
C9 C 0.15241 0.19438 0.18007 0.0
C10 C 0.17719 0.15317 0.1963 0.0
C11 C 0.13883 0.19823 0.18862 0.0
C12 C 0.12546 0.20285 0.21172 0.0
C13 C 0.13821 0.19793 0.20424 0.0
C14 C 0.1138 0.20845 0.18816 0.0
C15 C 0.11303 0.20817 0.20378 0.0
C16 C 0.12644 0.2035 0.18074 0.0
C17 C 0.19735 0.18797 0.14179 0.0
C18 C 0.20672 0.21079 0.12998 0.0
C19 C 0.20386 0.18854 0.11543 0.0
C20 C 0.19855 0.18088 0.12799 0.0
C21 C 0.20815 0.20359 0.11621 0.0
C22 C 0.20142 0.20309 0.1426 0.0
C23 C 0.19353 0.17886 0.15524 0.0
O24 O 0.18344 0.16629 0.19832 0.0
O25 O 0.16886 0.15259 0.18429 0.0
O26 O 0.18153 0.17038 0.15455 0.0
O27 O 0.19556 0.18478 0.16842 0.0
H28 H 0.20789 0.1494 0.19636 0.0
H29 H 0.22151 0.12763 0.2053 0.0
H30 H 0.17986 0.105 0.21425 0.0
H31 H 0.16637 0.12674 0.20553 0.0
H32 H 0.12532 0.20248 0.22373 0.0
H33 H 0.14761 0.19406 0.21066 0.0
H34 H 0.10474 0.21285 0.18161 0.0
H35 H 0.12667 0.20413 0.16872 0.0
H36 H 0.21015 0.22228 0.13113 0.0
H37 H 0.20473 0.18262 0.10506 0.0
H38 H 0.19572 0.16921 0.127 0.0
H39 H 0.20088 0.20889 0.15306 0.0
C40 C 0.81331 0.18854 0.14288 0.0
C41 C 0.8152 0.20403 0.14209 0.0
C42 C 0.8036 0.2046 0.11739 0.0
C43 C 0.81042 0.21198 0.12947 0.0
C44 C 0.80198 0.18908 0.1182 0.0
C45 C 0.80674 0.18119 0.13076 0.0
U46 U 0.83721 0.17771 0.17782 0.0
O47 O 0.82933 0.16867 0.19924 0.0
O48 O 0.84335 0.15516 0.18502 0.0
C49 C 0.83533 0.15564 0.19716 0.0
C50 C 0.81732 0.17969 0.15626 0.0
C51 C 0.8263 0.14212 0.20093 0.0
C52 C 0.80353 0.13003 0.21001 0.0
C53 C 0.81123 0.1428 0.20502 0.0
C54 C 0.82568 0.11562 0.20675 0.0
C55 C 0.81069 0.11627 0.21104 0.0
C56 C 0.83336 0.12835 0.20178 0.0
C57 C 0.87298 0.20124 0.18792 0.0
C58 C 0.88693 0.20477 0.21102 0.0
C59 C 0.89807 0.2119 0.18762 0.0
C60 C 0.88518 0.20719 0.18012 0.0
C61 C 0.8992 0.21072 0.20317 0.0
C62 C 0.87396 0.20004 0.20348 0.0
C63 C 0.85927 0.1973 0.17942 0.0
O64 O 0.82933 0.17164 0.15538 0.0
O65 O 0.81579 0.18591 0.16931 0.0
O66 O 0.84639 0.19896 0.18602 0.0
O67 O 0.85971 0.18531 0.17125 0.0
H68 H 0.82028 0.21 0.15125 0.0
H69 H 0.81213 0.22388 0.12913 0.0
H70 H 0.79672 0.18302 0.10921 0.0
H71 H 0.80508 0.16927 0.1311 0.0
H72 H 0.79209 0.13105 0.21348 0.0
H73 H 0.80546 0.15325 0.20469 0.0
H74 H 0.83155 0.10523 0.20733 0.0
H75 H 0.84499 0.12747 0.19889 0.0
H76 H 0.8874 0.20371 0.223 0.0
H77 H 0.90708 0.21677 0.18121 0.0
H78 H 0.88465 0.20844 0.16816 0.0
H79 H 0.8647 0.19557 0.2098 0.0
C80 C 0.81493 0.82599 0.14243 0.0
C81 C 0.82505 0.82305 0.13098 0.0
C82 C 0.80546 0.81066 0.11628 0.0
C83 C 0.82038 0.81543 0.11812 0.0
C84 C 0.79552 0.81326 0.12797 0.0
C85 C 0.80018 0.82083 0.1408 0.0
U86 U 0.83786 0.839 0.17772 0.0
O87 O 0.84271 0.86198 0.18477 0.0
O88 O 0.82892 0.84746 0.19883 0.0
C89 C 0.83467 0.86081 0.19689 0.0
C90 C 0.81886 0.83557 0.15542 0.0
C91 C 0.8255 0.87372 0.20132 0.0
C92 C 0.8135 0.89744 0.19623 0.0
C93 C 0.82067 0.88462 0.19119 0.0
C94 C 0.81566 0.88862 0.22151 0.0
C95 C 0.8112 0.89977 0.21152 0.0
C96 C 0.8227 0.87583 0.21649 0.0
C97 C 0.87271 0.81532 0.19037 0.0
C98 C 0.89646 0.82017 0.20302 0.0
C99 C 0.88768 0.79493 0.19992 0.0
C100 C 0.87486 0.8001 0.19276 0.0
C101 C 0.89882 0.80484 0.20492 0.0
C102 C 0.88359 0.82536 0.19573 0.0
C103 C 0.85974 0.81996 0.1811 0.0
O104 O 0.81667 0.82995 0.16875 0.0
O105 O 0.83099 0.84387 0.15464 0.0
O106 O 0.86092 0.83227 0.17324 0.0
O107 O 0.84637 0.81782 0.18662 0.0
H108 H 0.8365 0.82684 0.13182 0.0
H109 H 0.82848 0.81334 0.10956 0.0
H110 H 0.78397 0.80984 0.12701 0.0
H111 H 0.79207 0.82304 0.14932 0.0
H112 H 0.81018 0.90577 0.1882 0.0
H113 H 0.82269 0.88339 0.17942 0.0
H114 H 0.81382 0.88983 0.23331 0.0
H115 H 0.82632 0.86769 0.22459 0.0
H116 H 0.90478 0.82812 0.20677 0.0
H117 H 0.88893 0.7831 0.20144 0.0
H118 H 0.86672 0.79209 0.18873 0.0
H119 H 0.88232 0.83716 0.19402 0.0
C120 C 0.14063 0.81545 0.18878 0.0
C121 C 0.14091 0.81316 0.20427 0.0
C122 C 0.11452 0.80579 0.20416 0.0
C123 C 0.12801 0.80837 0.21185 0.0
C124 C 0.11433 0.80815 0.18869 0.0
C125 C 0.12717 0.81292 0.18115 0.0
U126 U 0.17726 0.83758 0.17795 0.0
O127 O 0.198 0.82846 0.16906 0.0
O128 O 0.18486 0.84365 0.15537 0.0
C129 C 0.19655 0.83511 0.1561 0.0
C130 C 0.15428 0.81905 0.18001 0.0
C131 C 0.20046 0.82671 0.1425 0.0
C132 C 0.20484 0.80372 0.12904 0.0
C133 C 0.19957 0.81114 0.14166 0.0
C134 C 0.21171 0.82725 0.11786 0.0
C135 C 0.21128 0.81168 0.11711 0.0
C136 C 0.2064 0.83463 0.13036 0.0
C137 C 0.19049 0.87202 0.20164 0.0
C138 C 0.20173 0.89632 0.19621 0.0
C139 C 0.20237 0.88666 0.22128 0.0
C140 C 0.19486 0.87375 0.21654 0.0
C141 C 0.20564 0.89829 0.21127 0.0
C142 C 0.19421 0.88338 0.19146 0.0
C143 C 0.1808 0.85908 0.19752 0.0
O144 O 0.15418 0.83123 0.17191 0.0
O145 O 0.16731 0.81659 0.1862 0.0
O146 O 0.18623 0.84574 0.19939 0.0
O147 O 0.17263 0.86024 0.18543 0.0
H148 H 0.15112 0.81486 0.2105 0.0
H149 H 0.12859 0.80666 0.22375 0.0
H150 H 0.10433 0.80592 0.1823 0.0
H151 H 0.12665 0.81431 0.1692 0.0
H152 H 0.20428 0.79172 0.12881 0.0
H153 H 0.19508 0.80471 0.15084 0.0
H154 H 0.21627 0.83377 0.10878 0.0
H155 H 0.20725 0.84662 0.13069 0.0
H156 H 0.20437 0.90485 0.18809 0.0
H157 H 0.20516 0.88774 0.23294 0.0
H158 H 0.19206 0.86527 0.22468 0.0
H159 H 0.19104 0.88243 0.17989 0.0
C160 C 0.14317 0.81287 0.82741 0.0
C161 C 0.13173 0.82284 0.824 0.0
C162 C 0.11743 0.80327 0.81138 0.0
C163 C 0.119 0.81808 0.81611 0.0
C164 C 0.12896 0.7934 0.81471 0.0
C165 C 0.14164 0.79815 0.82259 0.0
U166 U 0.178 0.83676 0.83935 0.0
O167 O 0.18557 0.84235 0.86199 0.0
O168 O 0.19957 0.82878 0.8478 0.0
C169 C 0.19772 0.83449 0.86103 0.0
C170 C 0.15616 0.81701 0.83695 0.0
C171 C 0.20192 0.8251 0.87404 0.0
C172 C 0.19685 0.81407 0.89842 0.0
C173 C 0.19199 0.82174 0.88567 0.0
C174 C 0.22155 0.8128 0.88812 0.0
C175 C 0.21172 0.80952 0.89984 0.0
C176 C 0.21671 0.82045 0.87542 0.0
C177 C 0.18941 0.87145 0.81487 0.0
C178 C 0.20238 0.8949 0.81991 0.0
C179 C 0.19874 0.88695 0.79455 0.0
C180 C 0.19152 0.87403 0.79963 0.0
C181 C 0.20402 0.89772 0.80458 0.0
C182 C 0.19508 0.88193 0.82501 0.0
C183 C 0.18027 0.85834 0.81951 0.0
O184 O 0.16943 0.81518 0.83126 0.0
O185 O 0.15528 0.82912 0.84492 0.0
O186 O 0.17252 0.85934 0.8318 0.0
O187 O 0.18611 0.84522 0.81773 0.0
H188 H 0.13249 0.83425 0.82762 0.0
H189 H 0.11034 0.82597 0.81374 0.0
H190 H 0.12802 0.78185 0.8116 0.0
H191 H 0.15014 0.79016 0.82524 0.0
H192 H 0.18898 0.81175 0.90722 0.0
H193 H 0.18054 0.82525 0.88504 0.0
H194 H 0.23315 0.80984 0.88893 0.0
H195 H 0.22468 0.82308 0.86678 0.0
H196 H 0.20636 0.90295 0.82793 0.0
H197 H 0.2001 0.88857 0.78271 0.0
H198 H 0.18727 0.86615 0.79158 0.0
H199 H 0.19361 0.88026 0.83684 0.0
C200 C 0.14119 0.1877 0.81527 0.0
C201 C 0.13091 0.19318 0.82552 0.0
C202 C 0.11565 0.20349 0.80533 0.0
C203 C 0.11829 0.20097 0.8206 0.0
C204 C 0.12603 0.19798 0.79518 0.0
C205 C 0.1386 0.19028 0.80008 0.0
U206 U 0.17541 0.17437 0.83955 0.0
O207 O 0.18184 0.15121 0.84399 0.0
O208 O 0.19676 0.16589 0.83132 0.0
C209 C 0.19428 0.1524 0.83641 0.0
C210 C 0.154 0.17826 0.81969 0.0
C211 C 0.19864 0.13976 0.82675 0.0
C212 C 0.19414 0.11523 0.81595 0.0
C213 C 0.18901 0.12769 0.82365 0.0
C214 C 0.21854 0.12662 0.81419 0.0
C215 C 0.20901 0.11448 0.81113 0.0
C216 C 0.21342 0.13904 0.82184 0.0
C217 C 0.1869 0.19631 0.87593 0.0
C218 C 0.21036 0.20141 0.889 0.0
C219 C 0.18706 0.20645 0.90104 0.0
C220 C 0.1793 0.2013 0.88849 0.0
C221 C 0.20271 0.20672 0.90148 0.0
C222 C 0.20256 0.1963 0.87636 0.0
C223 C 0.17812 0.19266 0.86228 0.0
O224 O 0.16744 0.18402 0.81834 0.0
O225 O 0.15255 0.1698 0.83156 0.0
O226 O 0.16969 0.18062 0.86254 0.0
O227 O 0.18445 0.19499 0.84933 0.0
H228 H 0.13251 0.19129 0.83731 0.0
H229 H 0.11058 0.20501 0.82877 0.0
H230 H 0.12425 0.19925 0.78334 0.0
H231 H 0.14617 0.18599 0.7919 0.0
H232 H 0.18646 0.10611 0.81382 0.0
H233 H 0.17759 0.12774 0.8274 0.0
H234 H 0.23015 0.12636 0.8111 0.0
H235 H 0.22122 0.14797 0.82432 0.0
H236 H 0.2224 0.20163 0.88882 0.0
H237 H 0.18076 0.21033 0.91042 0.0
H238 H 0.16726 0.20157 0.88846 0.0
H239 H 0.20877 0.19267 0.86682 0.0
C240 C 0.81388 0.14103 0.83019 0.0
C241 C 0.81146 0.14139 0.81473 0.0
C242 C 0.80455 0.11498 0.81469 0.0
C243 C 0.80684 0.12854 0.80709 0.0
C244 C 0.80707 0.11467 0.83013 0.0
C245 C 0.81168 0.12748 0.83774 0.0
U246 U 0.83584 0.17752 0.84114 0.0
O247 O 0.8266 0.19873 0.84879 0.0
O248 O 0.84079 0.18573 0.86367 0.0
C249 C 0.83251 0.19754 0.86212 0.0
C250 C 0.81721 0.15467 0.839 0.0
C251 C 0.82327 0.20198 0.875 0.0
C252 C 0.80969 0.19654 0.89792 0.0
C253 C 0.81716 0.19168 0.88516 0.0
C254 C 0.8142 0.222 0.89051 0.0
C255 C 0.80824 0.2118 0.90085 0.0
C256 C 0.82156 0.21716 0.87778 0.0
C257 C 0.87073 0.18996 0.81732 0.0
C258 C 0.8941 0.2033 0.82235 0.0
C259 C 0.88574 0.20014 0.79701 0.0
C260 C 0.87306 0.19245 0.80209 0.0
C261 C 0.89649 0.20569 0.80704 0.0
C262 C 0.88137 0.19553 0.82744 0.0
C263 C 0.85785 0.18041 0.82194 0.0
O264 O 0.82917 0.15464 0.84746 0.0
O265 O 0.81494 0.1676 0.83262 0.0
O266 O 0.84446 0.18557 0.81954 0.0
O267 O 0.85891 0.17299 0.83452 0.0
H268 H 0.81291 0.15165 0.80855 0.0
H269 H 0.80501 0.12921 0.79521 0.0
H270 H 0.80507 0.1046 0.83646 0.0
H271 H 0.81316 0.12688 0.84967 0.0
H272 H 0.80545 0.18834 0.90572 0.0
H273 H 0.8184 0.1799 0.8834 0.0
H274 H 0.81323 0.2338 0.8923 0.0
H275 H 0.82623 0.22535 0.87021 0.0
H276 H 0.90211 0.2074 0.83041 0.0
H277 H 0.88732 0.20134 0.78516 0.0
H278 H 0.86521 0.18807 0.79401 0.0
H279 H 0.87998 0.19371 0.83925 0.0
C280 C 0.82501 0.87315 0.8147 0.0
C281 C 0.82211 0.88485 0.82448 0.0
C282 C 0.80918 0.89865 0.80481 0.0
C283 C 0.81431 0.89743 0.81959 0.0
C284 C 0.81198 0.88683 0.79513 0.0
C285 C 0.81974 0.8743 0.80001 0.0
U286 U 0.83867 0.83874 0.83827 0.0
O287 O 0.84853 0.81822 0.82978 0.0
O288 O 0.86185 0.83297 0.84399 0.0
C289 C 0.86157 0.82083 0.83599 0.0
C290 C 0.83482 0.8605 0.81883 0.0
C291 C 0.87521 0.81728 0.8274 0.0
C292 C 0.88839 0.8123 0.80427 0.0
C293 C 0.87558 0.81704 0.81177 0.0
C294 C 0.90061 0.80799 0.82782 0.0
C295 C 0.90112 0.8077 0.8122 0.0
C296 C 0.8879 0.81276 0.83526 0.0
C297 C 0.81599 0.82637 0.87401 0.0
C298 C 0.81127 0.80295 0.8872 0.0
C299 C 0.80602 0.82613 0.89922 0.0
C300 C 0.81096 0.83389 0.88658 0.0
C301 C 0.80589 0.81052 0.89971 0.0
C302 C 0.8162 0.81077 0.87448 0.0
C303 C 0.81966 0.83519 0.86037 0.0
O304 O 0.84307 0.86175 0.83087 0.0
O305 O 0.82948 0.84698 0.81695 0.0
O306 O 0.81804 0.82877 0.84739 0.0
O307 O 0.83133 0.84412 0.86098 0.0
H308 H 0.82611 0.88446 0.83584 0.0
H309 H 0.81238 0.90627 0.82738 0.0
H310 H 0.80861 0.88746 0.78359 0.0
H311 H 0.82203 0.86564 0.79211 0.0
H312 H 0.88832 0.81223 0.79225 0.0
H313 H 0.86594 0.82032 0.80536 0.0
H314 H 0.90992 0.80414 0.83438 0.0
H315 H 0.88787 0.81255 0.84729 0.0
H316 H 0.81169 0.79097 0.88723 0.0
H317 H 0.8019 0.83239 0.9085 0.0
H318 H 0.81053 0.84589 0.88651 0.0
H319 H 0.82 0.80461 0.86499 0.0
C320 C 0.1861 0.6398 0.70068 0.0
C321 C 0.20175 0.63928 0.70047 0.0
C322 C 0.20124 0.61379 0.7103 0.0
C323 C 0.20921 0.62644 0.70524 0.0
C324 C 0.1856 0.61443 0.71043 0.0
C325 C 0.17818 0.62719 0.70565 0.0
U326 U 0.17551 0.67637 0.6787 0.0
O327 O 0.15289 0.68442 0.67409 0.0
O328 O 0.16791 0.69745 0.68829 0.0
C329 C 0.15446 0.69613 0.68262 0.0
C330 C 0.17765 0.65352 0.69714 0.0
C331 C 0.14164 0.70036 0.69215 0.0
C332 C 0.11656 0.69608 0.70196 0.0
C333 C 0.12917 0.69098 0.69442 0.0
C334 C 0.1286 0.71994 0.70525 0.0
C335 C 0.11604 0.71068 0.70744 0.0
C336 C 0.14118 0.71485 0.69776 0.0
C337 C 0.19918 0.68896 0.64367 0.0
C338 C 0.19417 0.70197 0.62026 0.0
C339 C 0.21954 0.69899 0.62854 0.0
C340 C 0.21445 0.69149 0.64128 0.0
C341 C 0.20952 0.70426 0.61775 0.0
C342 C 0.18906 0.69438 0.63304 0.0
C343 C 0.19453 0.67946 0.65654 0.0
O344 O 0.18432 0.6664 0.69934 0.0
O345 O 0.16919 0.65342 0.68519 0.0
O346 O 0.18191 0.67198 0.65553 0.0
O347 O 0.19706 0.68464 0.66994 0.0
H348 H 0.20821 0.64885 0.69683 0.0
H349 H 0.22125 0.6264 0.70497 0.0
H350 H 0.17903 0.60517 0.71462 0.0
H351 H 0.16615 0.62732 0.7062 0.0
H352 H 0.10713 0.6886 0.70341 0.0
H353 H 0.12903 0.6798 0.69013 0.0
H354 H 0.12856 0.73135 0.70888 0.0
H355 H 0.15043 0.72246 0.69595 0.0
H356 H 0.1861 0.70565 0.61212 0.0
H357 H 0.23141 0.70059 0.62708 0.0
H358 H 0.22254 0.68734 0.64918 0.0
H359 H 0.17722 0.6925 0.63443 0.0
C360 C 0.81358 0.68821 0.64306 0.0
C361 C 0.81553 0.70369 0.64216 0.0
C362 C 0.80393 0.70411 0.61746 0.0
C363 C 0.81077 0.71155 0.62948 0.0
C364 C 0.80226 0.6886 0.61839 0.0
C365 C 0.80699 0.68079 0.63101 0.0
U366 U 0.83741 0.67759 0.67813 0.0
O367 O 0.82947 0.66867 0.69959 0.0
O368 O 0.84354 0.65509 0.68548 0.0
C369 C 0.83547 0.65563 0.69759 0.0
C370 C 0.81757 0.67944 0.65651 0.0
C371 C 0.82642 0.64213 0.7014 0.0
C372 C 0.80366 0.6301 0.71058 0.0
C373 C 0.81138 0.64285 0.70556 0.0
C374 C 0.82576 0.61563 0.70722 0.0
C375 C 0.81079 0.61632 0.71158 0.0
C376 C 0.83345 0.62834 0.70222 0.0
C377 C 0.87317 0.70118 0.68817 0.0
C378 C 0.88716 0.70464 0.71127 0.0
C379 C 0.89821 0.71196 0.68788 0.0
C380 C 0.88532 0.70724 0.68039 0.0
C381 C 0.89938 0.71069 0.70342 0.0
C382 C 0.87419 0.69989 0.70372 0.0
C383 C 0.85947 0.69718 0.67968 0.0
O384 O 0.82959 0.67139 0.65571 0.0
O385 O 0.81601 0.68575 0.66951 0.0
O386 O 0.84658 0.69889 0.68624 0.0
O387 O 0.85993 0.68515 0.67158 0.0
H388 H 0.82062 0.70971 0.65128 0.0
H389 H 0.81252 0.72345 0.62905 0.0
H390 H 0.79698 0.68248 0.60943 0.0
H391 H 0.80529 0.66887 0.63143 0.0
H392 H 0.79224 0.63115 0.71411 0.0
H393 H 0.80564 0.65331 0.70527 0.0
H394 H 0.8316 0.60523 0.70777 0.0
H395 H 0.84506 0.62743 0.69927 0.0
H396 H 0.88766 0.70351 0.72324 0.0
H397 H 0.90719 0.7169 0.68148 0.0
H398 H 0.88476 0.70855 0.66843 0.0
H399 H 0.86496 0.69533 0.71004 0.0
C400 C 0.81494 0.32512 0.64281 0.0
C401 C 0.82452 0.32271 0.63076 0.0
C402 C 0.8048 0.30932 0.61716 0.0
C403 C 0.81951 0.31492 0.61812 0.0
C404 C 0.79533 0.31164 0.6293 0.0
C405 C 0.80033 0.31939 0.6419 0.0
U406 U 0.83779 0.33888 0.67803 0.0
O407 O 0.84333 0.36207 0.68413 0.0
O408 O 0.82861 0.34868 0.69834 0.0
C409 C 0.83478 0.36178 0.69594 0.0
C410 C 0.8191 0.33498 0.65554 0.0
C411 C 0.82587 0.37527 0.69915 0.0
C412 C 0.8032 0.38708 0.70793 0.0
C413 C 0.8107 0.37444 0.70298 0.0
C414 C 0.82573 0.40171 0.70518 0.0
C415 C 0.81065 0.40089 0.70927 0.0
C416 C 0.8332 0.38912 0.7002 0.0
C417 C 0.87219 0.31571 0.69252 0.0
C418 C 0.89757 0.31997 0.70179 0.0
C419 C 0.88528 0.29642 0.70644 0.0
C420 C 0.87258 0.30143 0.6989 0.0
C421 C 0.89804 0.30554 0.70789 0.0
C422 C 0.88484 0.32498 0.69418 0.0
C423 C 0.85932 0.31971 0.68274 0.0
O424 O 0.81657 0.32992 0.66903 0.0
O425 O 0.83145 0.34292 0.65464 0.0
O426 O 0.86068 0.33142 0.67405 0.0
O427 O 0.84586 0.31807 0.6882 0.0
H428 H 0.83579 0.3271 0.63094 0.0
H429 H 0.82715 0.31337 0.60903 0.0
H430 H 0.78384 0.30793 0.62889 0.0
H431 H 0.79256 0.32131 0.6508 0.0
H432 H 0.79168 0.38588 0.71123 0.0
H433 H 0.8047 0.36395 0.70255 0.0
H434 H 0.83185 0.41211 0.70598 0.0
H435 H 0.84491 0.39014 0.69757 0.0
H436 H 0.90724 0.32724 0.70241 0.0
H437 H 0.88516 0.28529 0.71102 0.0
H438 H 0.86314 0.29392 0.69766 0.0
H439 H 0.88508 0.33596 0.68925 0.0
C440 C 0.14086 0.3145 0.68975 0.0
C441 C 0.14051 0.3142 0.70538 0.0
C442 C 0.11465 0.30505 0.70507 0.0
C443 C 0.12755 0.3095 0.71294 0.0
C444 C 0.11513 0.30539 0.68945 0.0
C445 C 0.128 0.31008 0.68194 0.0
U446 U 0.17693 0.33732 0.6784 0.0
O447 O 0.19825 0.32848 0.67036 0.0
O448 O 0.18461 0.34222 0.65567 0.0
C449 C 0.19653 0.33405 0.65694 0.0
C450 C 0.15459 0.31812 0.68114 0.0
C451 C 0.20048 0.32452 0.64408 0.0
C452 C 0.19496 0.31377 0.61975 0.0
C453 C 0.19031 0.32116 0.6326 0.0
C454 C 0.2199 0.31256 0.62973 0.0
C455 C 0.20991 0.30964 0.61798 0.0
C456 C 0.21526 0.31993 0.64254 0.0
C457 C 0.188 0.37352 0.70066 0.0
C458 C 0.21145 0.38698 0.70491 0.0
C459 C 0.18821 0.39844 0.71113 0.0
C460 C 0.18044 0.3858 0.70618 0.0
C461 C 0.20385 0.3992 0.71076 0.0
C462 C 0.20362 0.37426 0.69997 0.0
C463 C 0.17919 0.35994 0.69682 0.0
O464 O 0.15422 0.32978 0.67233 0.0
O465 O 0.16754 0.31654 0.68778 0.0
O466 O 0.18528 0.34699 0.69934 0.0
O467 O 0.1713 0.36025 0.68451 0.0
H468 H 0.15026 0.31741 0.71176 0.0
H469 H 0.12763 0.30938 0.72497 0.0
H470 H 0.10564 0.30166 0.68296 0.0
H471 H 0.128 0.30994 0.66991 0.0
H472 H 0.18684 0.3114 0.61114 0.0
H473 H 0.17883 0.3245 0.63339 0.0
H474 H 0.23148 0.30959 0.6288 0.0
H475 H 0.2234 0.32246 0.65111 0.0
H476 H 0.22346 0.38725 0.70412 0.0
H477 H 0.18193 0.40751 0.71562 0.0
H478 H 0.16841 0.38551 0.70696 0.0
H479 H 0.20978 0.36498 0.69576 0.0
C480 C 0.14271 0.31361 0.32741 0.0
C481 C 0.12979 0.32219 0.32632 0.0
C482 C 0.11703 0.30274 0.31207 0.0
C483 C 0.11714 0.31684 0.31868 0.0
C484 C 0.13014 0.29444 0.31271 0.0
C485 C 0.14276 0.29977 0.32033 0.0
U486 U 0.17704 0.33802 0.33998 0.0
O487 O 0.1836 0.34435 0.36278 0.0
O488 O 0.19825 0.3305 0.34956 0.0
C489 C 0.19593 0.33673 0.36248 0.0
C490 C 0.15555 0.31796 0.33712 0.0
C491 C 0.19981 0.32811 0.37605 0.0
C492 C 0.20329 0.30484 0.3896 0.0
C493 C 0.19835 0.31258 0.37691 0.0
C494 C 0.21102 0.32802 0.40078 0.0
C495 C 0.20982 0.31247 0.40167 0.0
C496 C 0.20607 0.33571 0.38817 0.0
C497 C 0.18854 0.37326 0.31659 0.0
C498 C 0.212 0.38568 0.31009 0.0
C499 C 0.18899 0.3991 0.30828 0.0
C500 C 0.18114 0.38648 0.31326 0.0
C501 C 0.2045 0.39883 0.30639 0.0
C502 C 0.20411 0.37303 0.3151 0.0
C503 C 0.17955 0.35974 0.3203 0.0
O504 O 0.16898 0.31631 0.33173 0.0
O505 O 0.15435 0.33003 0.3451 0.0
O506 O 0.17097 0.36037 0.33204 0.0
O507 O 0.18587 0.34678 0.31882 0.0
H508 H 0.12927 0.33286 0.3317 0.0
H509 H 0.10725 0.32354 0.3184 0.0
H510 H 0.13061 0.2837 0.30745 0.0
H511 H 0.15247 0.29284 0.32101 0.0
H512 H 0.20238 0.29286 0.3898 0.0
H513 H 0.19365 0.30641 0.36769 0.0
H514 H 0.21586 0.33428 0.40986 0.0
H515 H 0.20738 0.34766 0.38777 0.0
H516 H 0.22397 0.38516 0.30908 0.0
H517 H 0.18284 0.40897 0.30551 0.0
H518 H 0.16915 0.38697 0.31417 0.0
H519 H 0.21018 0.36303 0.31758 0.0
C520 C 0.1416 0.68909 0.31536 0.0
C521 C 0.1287 0.68987 0.32413 0.0
C522 C 0.11579 0.704 0.30471 0.0
C523 C 0.11601 0.69732 0.31891 0.0
C524 C 0.12888 0.70365 0.29623 0.0
C525 C 0.14154 0.69628 0.30144 0.0
U526 U 0.17608 0.67513 0.33893 0.0
O527 O 0.18238 0.65192 0.34323 0.0
O528 O 0.19722 0.66645 0.3303 0.0
C529 C 0.1947 0.65299 0.33546 0.0
C530 C 0.15443 0.67944 0.31942 0.0
C531 C 0.19875 0.64025 0.32581 0.0
C532 C 0.19356 0.61582 0.31507 0.0
C533 C 0.18874 0.62854 0.32254 0.0
C534 C 0.21838 0.62632 0.31367 0.0
C535 C 0.20855 0.61437 0.31079 0.0
C536 C 0.21356 0.63901 0.32109 0.0
C537 C 0.18795 0.69664 0.37547 0.0
C538 C 0.21145 0.70157 0.38851 0.0
C539 C 0.1882 0.7063 0.40077 0.0
C540 C 0.1804 0.70137 0.38816 0.0
C541 C 0.20386 0.70671 0.40111 0.0
C542 C 0.2036 0.69666 0.37582 0.0
C543 C 0.17911 0.69318 0.36181 0.0
O544 O 0.16792 0.68507 0.31794 0.0
O545 O 0.15314 0.6707 0.33111 0.0
O546 O 0.17057 0.68122 0.362 0.0
O547 O 0.18541 0.69556 0.34885 0.0
H548 H 0.12824 0.68439 0.33485 0.0
H549 H 0.10616 0.69737 0.32577 0.0
H550 H 0.12929 0.70894 0.2854 0.0
H551 H 0.1512 0.69581 0.29433 0.0
H552 H 0.18554 0.60706 0.31275 0.0
H553 H 0.17725 0.62906 0.32601 0.0
H554 H 0.22998 0.62566 0.31062 0.0
H555 H 0.22161 0.64772 0.32357 0.0
H556 H 0.22348 0.70135 0.38843 0.0
H557 H 0.18191 0.71022 0.41014 0.0
H558 H 0.16836 0.70162 0.38819 0.0
H559 H 0.20978 0.69309 0.36623 0.0
C560 C 0.81143 0.64352 0.32761 0.0
C561 C 0.822 0.63409 0.3214 0.0
C562 C 0.80222 0.61738 0.31224 0.0
C563 C 0.81744 0.6212 0.31376 0.0
C564 C 0.79173 0.6271 0.31819 0.0
C565 C 0.79628 0.63994 0.32577 0.0
U566 U 0.83594 0.67778 0.34041 0.0
O567 O 0.82817 0.69934 0.34867 0.0
O568 O 0.84071 0.68465 0.36343 0.0
C569 C 0.83341 0.69712 0.36214 0.0
C570 C 0.81565 0.65653 0.33694 0.0
C571 C 0.82396 0.70173 0.37483 0.0
C572 C 0.81019 0.69662 0.39771 0.0
C573 C 0.81788 0.69158 0.38516 0.0
C574 C 0.81443 0.72196 0.38978 0.0
C575 C 0.80836 0.71191 0.40022 0.0
C576 C 0.82205 0.71694 0.37728 0.0
C577 C 0.87264 0.68811 0.31839 0.0
C578 C 0.88654 0.71114 0.31342 0.0
C579 C 0.89801 0.68758 0.30887 0.0
C580 C 0.88507 0.68019 0.3137 0.0
C581 C 0.899 0.70317 0.30865 0.0
C582 C 0.87351 0.70371 0.31824 0.0
C583 C 0.85872 0.67966 0.32202 0.0
O584 O 0.82742 0.65529 0.34556 0.0
O585 O 0.81457 0.66976 0.33086 0.0
O586 O 0.84595 0.68618 0.31962 0.0
O587 O 0.85873 0.67148 0.33416 0.0
H588 H 0.83376 0.63657 0.3226 0.0
H589 H 0.82585 0.61422 0.30904 0.0
H590 H 0.77995 0.62457 0.31735 0.0
H591 H 0.78789 0.64695 0.33052 0.0
H592 H 0.80568 0.68854 0.40548 0.0
H593 H 0.81925 0.67978 0.38367 0.0
H594 H 0.81367 0.73379 0.39146 0.0
H595 H 0.82681 0.72503 0.36966 0.0
H596 H 0.88687 0.72314 0.3134 0.0
H597 H 0.90714 0.68101 0.30491 0.0
H598 H 0.88465 0.66819 0.31344 0.0
H599 H 0.86408 0.71015 0.32166 0.0
C600 C 0.827 0.37485 0.31451 0.0
C601 C 0.81152 0.37589 0.31643 0.0
C602 C 0.81144 0.4002 0.30397 0.0
C603 C 0.80385 0.38848 0.3113 0.0
C604 C 0.82697 0.39921 0.30247 0.0
C605 C 0.83459 0.38674 0.30764 0.0
U606 U 0.83863 0.33928 0.3377 0.0
O607 O 0.8468 0.31811 0.32874 0.0
O608 O 0.86155 0.33212 0.34228 0.0
C609 C 0.86028 0.32011 0.33416 0.0
C610 C 0.83557 0.36132 0.31845 0.0
C611 C 0.87314 0.3161 0.32457 0.0
C612 C 0.89789 0.32123 0.31433 0.0
C613 C 0.88505 0.32602 0.32169 0.0
C614 C 0.88709 0.29667 0.31222 0.0
C615 C 0.89925 0.30639 0.30976 0.0
C616 C 0.87429 0.30144 0.31955 0.0
C617 C 0.81674 0.32811 0.37432 0.0
C618 C 0.81127 0.30493 0.38768 0.0
C619 C 0.80761 0.32836 0.39984 0.0
C620 C 0.81248 0.33588 0.38703 0.0
C621 C 0.80695 0.31276 0.40043 0.0
C622 C 0.81612 0.3125 0.37478 0.0
C623 C 0.82042 0.33677 0.36059 0.0
O624 O 0.84437 0.36202 0.33012 0.0
O625 O 0.82892 0.34831 0.31702 0.0
O626 O 0.81785 0.33055 0.34765 0.0
O627 O 0.83265 0.34494 0.36075 0.0
H628 H 0.80534 0.3669 0.32167 0.0
H629 H 0.79191 0.38888 0.3127 0.0
H630 H 0.83327 0.40812 0.29723 0.0
H631 H 0.8465 0.38627 0.30599 0.0
H632 H 0.90682 0.32917 0.31233 0.0
H633 H 0.88461 0.33739 0.32539 0.0
H634 H 0.88768 0.28517 0.30892 0.0
H635 H 0.86541 0.29348 0.32172 0.0
H636 H 0.81091 0.29293 0.38768 0.0
H637 H 0.80399 0.33484 0.40918 0.0
H638 H 0.81256 0.34789 0.38694 0.0
H639 H 0.81918 0.30617 0.36513 0.0
C640 C 0.68917 0.14213 0.70132 0.0
C641 C 0.69208 0.13065 0.69128 0.0
C642 C 0.7041 0.11597 0.71091 0.0
C643 C 0.6995 0.11778 0.696 0.0
C644 C 0.70155 0.12769 0.72077 0.0
C645 C 0.69418 0.14052 0.71605 0.0
U646 U 0.67615 0.17726 0.67834 0.0
O647 O 0.65308 0.18402 0.67373 0.0
O648 O 0.66755 0.19818 0.6874 0.0
C649 C 0.65414 0.19604 0.68188 0.0
C650 C 0.6797 0.15508 0.69736 0.0
C651 C 0.64119 0.2 0.69137 0.0
C652 C 0.61622 0.19505 0.70115 0.0
C653 C 0.62907 0.19023 0.69383 0.0
C654 C 0.6274 0.21938 0.70401 0.0
C655 C 0.61506 0.20981 0.70608 0.0
C656 C 0.64022 0.21456 0.69673 0.0
C657 C 0.69893 0.1904 0.64292 0.0
C658 C 0.69377 0.20038 0.61809 0.0
C659 C 0.71847 0.20293 0.62849 0.0
C660 C 0.71367 0.19562 0.64147 0.0
C661 C 0.70869 0.20518 0.61645 0.0
C662 C 0.68896 0.19303 0.63111 0.0
C663 C 0.69493 0.18092 0.65604 0.0
O664 O 0.68543 0.16842 0.69936 0.0
O665 O 0.67132 0.1542 0.68538 0.0
O666 O 0.68277 0.17265 0.65528 0.0
O667 O 0.6972 0.18651 0.66932 0.0
H668 H 0.6884 0.13147 0.67984 0.0
H669 H 0.70157 0.1092 0.68796 0.0
H670 H 0.70484 0.12675 0.73232 0.0
H671 H 0.69199 0.14907 0.72411 0.0
H672 H 0.60714 0.18722 0.70286 0.0
H673 H 0.62937 0.17894 0.68985 0.0
H674 H 0.62697 0.2308 0.70757 0.0
H675 H 0.64925 0.22242 0.69487 0.0
H676 H 0.68578 0.20222 0.60926 0.0
H677 H 0.73003 0.20638 0.62769 0.0
H678 H 0.72168 0.19364 0.65027 0.0
H679 H 0.67753 0.18916 0.63178 0.0
C680 C 0.31262 0.19019 0.64474 0.0
C681 C 0.32215 0.19207 0.63249 0.0
C682 C 0.30303 0.20568 0.6188 0.0
C683 C 0.31741 0.19972 0.61969 0.0
C684 C 0.29364 0.20397 0.63116 0.0
C685 C 0.29837 0.19634 0.64392 0.0
U686 U 0.33618 0.17838 0.67954 0.0
O687 O 0.32804 0.16993 0.70115 0.0
O688 O 0.34164 0.1558 0.68712 0.0
C689 C 0.33386 0.15679 0.69939 0.0
C690 C 0.31655 0.18072 0.65779 0.0
C691 C 0.32461 0.14373 0.70388 0.0
C692 C 0.31052 0.12101 0.69845 0.0
C693 C 0.31826 0.13381 0.69357 0.0
C694 C 0.31526 0.12789 0.72395 0.0
C695 C 0.30891 0.11788 0.71373 0.0
C696 C 0.32295 0.14064 0.71908 0.0
C697 C 0.37107 0.2024 0.69124 0.0
C698 C 0.39552 0.19754 0.70206 0.0
C699 C 0.38521 0.22206 0.70372 0.0
C700 C 0.37247 0.21714 0.69607 0.0
C701 C 0.39696 0.21236 0.70678 0.0
C702 C 0.38272 0.1926 0.6944 0.0
C703 C 0.35803 0.19813 0.68183 0.0
O704 O 0.3286 0.17269 0.65694 0.0
O705 O 0.31467 0.18643 0.67102 0.0
O706 O 0.34478 0.19996 0.68758 0.0
O707 O 0.3589 0.18598 0.67392 0.0
H708 H 0.33314 0.18735 0.63263 0.0
H709 H 0.32486 0.20053 0.61031 0.0
H710 H 0.28254 0.20844 0.63092 0.0
H711 H 0.2907 0.19494 0.65308 0.0
H712 H 0.30578 0.11355 0.69027 0.0
H713 H 0.31942 0.13586 0.68176 0.0
H714 H 0.31463 0.12571 0.73577 0.0
H715 H 0.3279 0.14797 0.72727 0.0
H716 H 0.40434 0.18978 0.70424 0.0
H717 H 0.38605 0.23361 0.70682 0.0
H718 H 0.3638 0.22501 0.69359 0.0
H719 H 0.38207 0.1812 0.69076 0.0
C720 C 0.31427 0.82723 0.64276 0.0
C721 C 0.3244 0.82229 0.63206 0.0
C722 C 0.30397 0.81243 0.61665 0.0
C723 C 0.3193 0.81489 0.6192 0.0
C724 C 0.29397 0.81701 0.62761 0.0
C725 C 0.29904 0.82429 0.64042 0.0
U726 U 0.33814 0.83964 0.67778 0.0
O727 O 0.34319 0.86258 0.68484 0.0
O728 O 0.3295 0.84808 0.69901 0.0
C729 C 0.33528 0.86141 0.69705 0.0
C730 C 0.3188 0.83653 0.65573 0.0
C731 C 0.32616 0.87432 0.70157 0.0
C732 C 0.3138 0.89787 0.69655 0.0
C733 C 0.321 0.88508 0.69145 0.0
C734 C 0.31659 0.88926 0.72185 0.0
C735 C 0.31179 0.90029 0.71186 0.0
C736 C 0.32366 0.87652 0.71678 0.0
C737 C 0.37288 0.81582 0.69025 0.0
C738 C 0.39682 0.82063 0.70257 0.0
C739 C 0.38765 0.79545 0.70018 0.0
C740 C 0.37483 0.80062 0.693 0.0
C741 C 0.39898 0.80532 0.70482 0.0
C742 C 0.38396 0.82583 0.69527 0.0
C743 C 0.3599 0.82044 0.68098 0.0
O744 O 0.31674 0.83086 0.66906 0.0
O745 O 0.33111 0.84453 0.65475 0.0
O746 O 0.36109 0.83273 0.67309 0.0
O747 O 0.34655 0.81837 0.68656 0.0
H748 H 0.3362 0.82441 0.63347 0.0
H749 H 0.32733 0.81149 0.61103 0.0
H750 H 0.28214 0.81504 0.62622 0.0
H751 H 0.29096 0.82797 0.64842 0.0
H752 H 0.31022 0.90609 0.68853 0.0
H753 H 0.32278 0.88377 0.67966 0.0
H754 H 0.31496 0.89054 0.73368 0.0
H755 H 0.32752 0.86847 0.72486 0.0
H756 H 0.40529 0.82855 0.70603 0.0
H757 H 0.38875 0.78363 0.70198 0.0
H758 H 0.36654 0.79263 0.68925 0.0
H759 H 0.38285 0.83761 0.69328 0.0
C760 C 0.64255 0.81303 0.69022 0.0
C761 C 0.63236 0.82318 0.69597 0.0
C762 C 0.61631 0.80282 0.70496 0.0
C763 C 0.61943 0.81812 0.70334 0.0
C764 C 0.6268 0.79278 0.69961 0.0
C765 C 0.63968 0.79781 0.69234 0.0
U766 U 0.67755 0.83718 0.67819 0.0
O767 O 0.69842 0.82898 0.66873 0.0
O768 O 0.68421 0.84345 0.65534 0.0
C769 C 0.69631 0.83546 0.65578 0.0
C770 C 0.6555 0.81765 0.68089 0.0
C771 C 0.70024 0.82708 0.64218 0.0
C772 C 0.70474 0.80408 0.62877 0.0
C773 C 0.6994 0.81151 0.64136 0.0
C774 C 0.71158 0.82762 0.61759 0.0
C775 C 0.71121 0.81205 0.61686 0.0
C776 C 0.70619 0.835 0.63006 0.0
C777 C 0.69048 0.8717 0.70189 0.0
C778 C 0.7012 0.8962 0.69634 0.0
C779 C 0.70245 0.88648 0.72137 0.0
C780 C 0.69508 0.87347 0.71672 0.0
C781 C 0.70536 0.89818 0.71134 0.0
C782 C 0.69381 0.88315 0.69168 0.0
C783 C 0.68102 0.85855 0.6979 0.0
O784 O 0.65449 0.83005 0.67321 0.0
O785 O 0.66886 0.81559 0.68643 0.0
O786 O 0.6869 0.84538 0.69944 0.0
O787 O 0.67247 0.85962 0.68606 0.0
H788 H 0.63422 0.83498 0.6945 0.0
H789 H 0.61163 0.82617 0.70736 0.0
H790 H 0.62497 0.78095 0.70094 0.0
H791 H 0.6473 0.78973 0.68803 0.0
H792 H 0.70423 0.79208 0.62856 0.0
H793 H 0.69491 0.80508 0.65053 0.0
H794 H 0.71616 0.83415 0.60852 0.0
H795 H 0.707 0.84699 0.63037 0.0
H796 H 0.70356 0.90479 0.6882 0.0
H797 H 0.70543 0.88757 0.73298 0.0
H798 H 0.69257 0.86492 0.72487 0.0
H799 H 0.69046 0.88217 0.68016 0.0
C800 C 0.64133 0.81454 0.32977 0.0
C801 C 0.64062 0.81622 0.31425 0.0
C802 C 0.61575 0.80469 0.31369 0.0
C803 C 0.62795 0.81137 0.30629 0.0
C804 C 0.61648 0.8033 0.32924 0.0
C805 C 0.62909 0.80813 0.33715 0.0
U806 U 0.67684 0.83817 0.34025 0.0
O807 O 0.68437 0.84472 0.36267 0.0
O808 O 0.69813 0.83014 0.34928 0.0
C809 C 0.69642 0.83669 0.36214 0.0
C810 C 0.65479 0.81857 0.33862 0.0
C811 C 0.70038 0.82826 0.37582 0.0
C812 C 0.70386 0.80524 0.38981 0.0
C813 C 0.69911 0.81272 0.37688 0.0
C814 C 0.71113 0.82867 0.40075 0.0
C815 C 0.70988 0.81314 0.40195 0.0
C816 C 0.70641 0.83609 0.3879 0.0
C817 C 0.68812 0.87325 0.31656 0.0
C818 C 0.71105 0.88517 0.30767 0.0
C819 C 0.68881 0.89962 0.31014 0.0
C820 C 0.68106 0.88699 0.31525 0.0
C821 C 0.70389 0.89889 0.30617 0.0
C822 C 0.70327 0.8725 0.3128 0.0
C823 C 0.67904 0.85982 0.32047 0.0
O824 O 0.66783 0.81673 0.3324 0.0
O825 O 0.65419 0.83073 0.34651 0.0
O826 O 0.67081 0.86055 0.33245 0.0
O827 O 0.68508 0.84675 0.31877 0.0
H828 H 0.64988 0.82117 0.30826 0.0
H829 H 0.62768 0.81291 0.29436 0.0
H830 H 0.60738 0.79816 0.33532 0.0
H831 H 0.62937 0.80663 0.34909 0.0
H832 H 0.70275 0.79328 0.39035 0.0
H833 H 0.69458 0.80636 0.36771 0.0
H834 H 0.71605 0.83511 0.40966 0.0
H835 H 0.7077 0.84804 0.3873 0.0
H836 H 0.72256 0.8841 0.30445 0.0
H837 H 0.68294 0.90998 0.3092 0.0
H838 H 0.66937 0.88791 0.31789 0.0
H839 H 0.70905 0.86208 0.31349 0.0
C840 C 0.63885 0.18568 0.31682 0.0
C841 C 0.63868 0.20129 0.3168 0.0
C842 C 0.61297 0.20122 0.30738 0.0
C843 C 0.6259 0.20896 0.31212 0.0
C844 C 0.61328 0.18562 0.30743 0.0
C845 C 0.62597 0.17801 0.31212 0.0
U846 U 0.675 0.17409 0.33912 0.0
O847 O 0.68199 0.15124 0.34443 0.0
O848 O 0.69572 0.16525 0.32982 0.0
C849 C 0.69385 0.15209 0.33599 0.0
C850 C 0.65241 0.17696 0.32042 0.0
C851 C 0.69762 0.13872 0.32714 0.0
C852 C 0.70267 0.12614 0.30373 0.0
C853 C 0.69764 0.13862 0.31151 0.0
C854 C 0.70755 0.11363 0.327 0.0
C855 C 0.70792 0.11351 0.31137 0.0
C856 C 0.70251 0.12602 0.33472 0.0
C857 C 0.6874 0.19653 0.37499 0.0
C858 C 0.7096 0.20744 0.38679 0.0
C859 C 0.68785 0.20201 0.40158 0.0
C860 C 0.68047 0.19648 0.38895 0.0
C861 C 0.70241 0.2079 0.40064 0.0
C862 C 0.70217 0.20193 0.3741 0.0
C863 C 0.67833 0.19273 0.36149 0.0
O864 O 0.66552 0.18331 0.3184 0.0
O865 O 0.65195 0.16843 0.3323 0.0
O866 O 0.66989 0.18072 0.36209 0.0
O867 O 0.68424 0.19494 0.34832 0.0
H868 H 0.64845 0.20756 0.32023 0.0
H869 H 0.62612 0.22096 0.31224 0.0
H870 H 0.60379 0.17922 0.30347 0.0
H871 H 0.62583 0.166 0.31175 0.0
H872 H 0.70242 0.1264 0.29171 0.0
H873 H 0.69395 0.14822 0.3053 0.0
H874 H 0.71156 0.10424 0.33333 0.0
H875 H 0.70276 0.12579 0.34675 0.0
H876 H 0.72081 0.21184 0.38565 0.0
H877 H 0.68205 0.20185 0.41208 0.0
H878 H 0.66908 0.19255 0.39005 0.0
H879 H 0.70787 0.2023 0.36354 0.0
C880 C 0.3115 0.14331 0.32825 0.0
C881 C 0.322 0.13369 0.3222 0.0
C882 C 0.3021 0.11729 0.3128 0.0
C883 C 0.31735 0.12084 0.31455 0.0
C884 C 0.29169 0.1271 0.31871 0.0
C885 C 0.29633 0.13991 0.32628 0.0
U886 U 0.33593 0.17771 0.3408 0.0
O887 O 0.32806 0.1992 0.34917 0.0
O888 O 0.34096 0.18464 0.36375 0.0
C889 C 0.33352 0.19703 0.36256 0.0
C890 C 0.31578 0.1563 0.33757 0.0
C891 C 0.32421 0.20151 0.37539 0.0
C892 C 0.31039 0.19609 0.39818 0.0
C893 C 0.31792 0.19122 0.38546 0.0
C894 C 0.31516 0.22154 0.39091 0.0
C895 C 0.30902 0.21135 0.40115 0.0
C896 C 0.3226 0.21669 0.37823 0.0
C897 C 0.37218 0.18829 0.31808 0.0
C898 C 0.38583 0.21142 0.31284 0.0
C899 C 0.39698 0.18794 0.30717 0.0
C900 C 0.38436 0.18046 0.31266 0.0
C901 C 0.3978 0.20352 0.30689 0.0
C902 C 0.3731 0.20389 0.31829 0.0
C903 C 0.35841 0.17978 0.32207 0.0
O904 O 0.32768 0.15513 0.34601 0.0
O905 O 0.31448 0.16955 0.33157 0.0
O906 O 0.34555 0.18619 0.31986 0.0
O907 O 0.35871 0.17165 0.33424 0.0
H908 H 0.33379 0.13594 0.32362 0.0
H909 H 0.32571 0.11346 0.31036 0.0
H910 H 0.27988 0.12483 0.31752 0.0
H911 H 0.28798 0.14706 0.33089 0.0
H912 H 0.30602 0.18789 0.40591 0.0
H913 H 0.31907 0.17944 0.38367 0.0
H914 H 0.31427 0.23335 0.39273 0.0
H915 H 0.32741 0.22488 0.37074 0.0
H916 H 0.38611 0.22342 0.31284 0.0
H917 H 0.40609 0.18148 0.30299 0.0
H918 H 0.38398 0.16845 0.31233 0.0
H919 H 0.36388 0.21025 0.32236 0.0
C920 C 0.32549 0.87353 0.3156 0.0
C921 C 0.32242 0.88519 0.32539 0.0
C922 C 0.30972 0.89904 0.3056 0.0
C923 C 0.31465 0.89777 0.32045 0.0
C924 C 0.31273 0.88729 0.29591 0.0
C925 C 0.32046 0.87476 0.30084 0.0
U926 U 0.33838 0.83846 0.33868 0.0
O927 O 0.34803 0.81804 0.32975 0.0
O928 O 0.36138 0.83214 0.34457 0.0
C929 C 0.36101 0.82025 0.33621 0.0
C930 C 0.33521 0.86083 0.31981 0.0
C931 C 0.37467 0.81671 0.32765 0.0
C932 C 0.3879 0.81225 0.30444 0.0
C933 C 0.37524 0.8172 0.31203 0.0
C934 C 0.39966 0.80637 0.32788 0.0
C935 C 0.40025 0.80661 0.31227 0.0
C936 C 0.3871 0.81137 0.33543 0.0
C937 C 0.31417 0.82458 0.37286 0.0
C938 C 0.3194 0.81172 0.39631 0.0
C939 C 0.29402 0.81379 0.38774 0.0
C940 C 0.29898 0.82151 0.37508 0.0
C941 C 0.30412 0.80875 0.39859 0.0
C942 C 0.32438 0.81953 0.3836 0.0
C943 C 0.31861 0.83419 0.36 0.0
O944 O 0.34297 0.86173 0.3322 0.0
O945 O 0.32999 0.84737 0.31733 0.0
O946 O 0.31714 0.82861 0.34662 0.0
O947 O 0.33055 0.84266 0.36143 0.0
H948 H 0.32625 0.88474 0.3368 0.0
H949 H 0.31256 0.90656 0.32825 0.0
H950 H 0.30953 0.88796 0.28432 0.0
H951 H 0.32289 0.86615 0.29293 0.0
H952 H 0.38783 0.81242 0.29242 0.0
H953 H 0.36581 0.82111 0.30568 0.0
H954 H 0.40893 0.80222 0.33431 0.0
H955 H 0.38696 0.81073 0.34744 0.0
H956 H 0.32753 0.80804 0.40438 0.0
H957 H 0.28217 0.81216 0.38922 0.0
H958 H 0.29082 0.82548 0.36716 0.0
H959 H 0.33616 0.82181 0.3823 0.0
C960 C 0.68531 0.64004 0.19998 0.0
C961 C 0.70096 0.63979 0.19969 0.0
C962 C 0.70094 0.61466 0.21039 0.0
C963 C 0.70868 0.62723 0.2048 0.0
C964 C 0.6853 0.61495 0.21044 0.0
C965 C 0.67763 0.62741 0.20529 0.0
U966 U 0.67445 0.67624 0.17756 0.0
O967 O 0.65175 0.68356 0.1718 0.0
O968 O 0.66563 0.69689 0.18685 0.0
C969 C 0.65258 0.69528 0.18037 0.0
C970 C 0.67661 0.6535 0.19612 0.0
C971 C 0.63905 0.69911 0.189 0.0
C972 C 0.62583 0.70324 0.21227 0.0
C973 C 0.63837 0.69814 0.20459 0.0
C974 C 0.61442 0.71022 0.18895 0.0
C975 C 0.61371 0.70949 0.20455 0.0
C976 C 0.62686 0.70509 0.18132 0.0
C977 C 0.69821 0.68951 0.14295 0.0
C978 C 0.69324 0.70011 0.11834 0.0
C979 C 0.71803 0.70179 0.1287 0.0
C980 C 0.71308 0.69436 0.14156 0.0
C981 C 0.70827 0.70452 0.11674 0.0
C982 C 0.68828 0.69265 0.13124 0.0
C983 C 0.69395 0.6799 0.15589 0.0
O984 O 0.68285 0.66655 0.19849 0.0
O985 O 0.66856 0.65314 0.1839 0.0
O986 O 0.68179 0.6717 0.15474 0.0
O987 O 0.69589 0.68535 0.16928 0.0
H988 H 0.70722 0.64938 0.19579 0.0
H989 H 0.72072 0.62754 0.20478 0.0
H990 H 0.67895 0.60549 0.21454 0.0
H991 H 0.66559 0.6273 0.20576 0.0
H992 H 0.62581 0.70268 0.22428 0.0
H993 H 0.64763 0.69372 0.21085 0.0
H994 H 0.60531 0.71484 0.1826 0.0
H995 H 0.62709 0.70609 0.16933 0.0
H996 H 0.68529 0.70232 0.10956 0.0
H997 H 0.72966 0.70496 0.12792 0.0
H998 H 0.72104 0.69199 0.15029 0.0
H999 H 0.67675 0.68909 0.13189 0.0
C1000 C 0.3133 0.68761 0.14349 0.0
C1001 C 0.31479 0.70313 0.14232 0.0
C1002 C 0.30261 0.70285 0.11792 0.0
C1003 C 0.30956 0.71067 0.12962 0.0
C1004 C 0.30158 0.68731 0.11899 0.0
C1005 C 0.30682 0.67982 0.1316 0.0
U1006 U 0.33724 0.67764 0.17875 0.0
O1007 O 0.32915 0.66991 0.20066 0.0
O1008 O 0.34259 0.6553 0.187 0.0
C1009 C 0.33479 0.65665 0.19921 0.0
C1010 C 0.31735 0.67921 0.15715 0.0
C1011 C 0.32531 0.64378 0.20381 0.0
C1012 C 0.31118 0.62106 0.19848 0.0
C1013 C 0.31902 0.63378 0.19355 0.0
C1014 C 0.31562 0.62824 0.22395 0.0
C1015 C 0.3094 0.6181 0.21377 0.0
C1016 C 0.32342 0.6409 0.21903 0.0
C1017 C 0.37319 0.7009 0.18847 0.0
C1018 C 0.38663 0.70442 0.21186 0.0
C1019 C 0.39808 0.71206 0.18876 0.0
C1020 C 0.38544 0.70713 0.18096 0.0
C1021 C 0.39883 0.71094 0.20434 0.0
C1022 C 0.37393 0.69947 0.20402 0.0
C1023 C 0.35966 0.69686 0.17975 0.0
O1024 O 0.32923 0.67093 0.15652 0.0
O1025 O 0.31597 0.68592 0.16997 0.0
O1026 O 0.34669 0.69912 0.18595 0.0
O1027 O 0.36 0.68445 0.17221 0.0
H1028 H 0.31973 0.70944 0.15131 0.0
H1029 H 0.31057 0.72263 0.12912 0.0
H1030 H 0.29663 0.6809 0.11007 0.0
H1031 H 0.30556 0.66787 0.13219 0.0
H1032 H 0.30653 0.61352 0.19033 0.0
H1033 H 0.32034 0.63566 0.18173 0.0
H1034 H 0.31483 0.62619 0.23578 0.0
H1035 H 0.32832 0.64831 0.22718 0.0
H1036 H 0.38692 0.70308 0.22382 0.0
H1037 H 0.40717 0.71708 0.18258 0.0
H1038 H 0.38513 0.70844 0.169 0.0
H1039 H 0.36466 0.69467 0.2101 0.0
C1040 C 0.31436 0.32691 0.14256 0.0
C1041 C 0.32466 0.3211 0.1325 0.0
C1042 C 0.30442 0.31215 0.11631 0.0
C1043 C 0.31973 0.31371 0.11957 0.0
C1044 C 0.29423 0.3176 0.12666 0.0
C1045 C 0.29913 0.32487 0.13954 0.0
U1046 U 0.33843 0.33995 0.17728 0.0
O1047 O 0.34287 0.36309 0.18406 0.0
O1048 O 0.32991 0.34829 0.1986 0.0
C1049 C 0.33521 0.36178 0.19641 0.0
C1050 C 0.31882 0.33616 0.15557 0.0
C1051 C 0.32571 0.37441 0.20094 0.0
C1052 C 0.3127 0.39759 0.19592 0.0
C1053 C 0.32042 0.38512 0.19085 0.0
C1054 C 0.31535 0.38887 0.2212 0.0
C1055 C 0.31006 0.39967 0.2112 0.0
C1056 C 0.32299 0.37645 0.21614 0.0
C1057 C 0.37452 0.31826 0.18937 0.0
C1058 C 0.38629 0.31041 0.21267 0.0
C1059 C 0.4006 0.31087 0.19006 0.0
C1060 C 0.38814 0.31601 0.1822 0.0
C1061 C 0.39982 0.30771 0.20537 0.0
C1062 C 0.37379 0.31556 0.20478 0.0
C1063 C 0.36108 0.32175 0.18021 0.0
O1064 O 0.31725 0.33029 0.16888 0.0
O1065 O 0.33081 0.3446 0.1544 0.0
O1066 O 0.36153 0.33381 0.17192 0.0
O1067 O 0.34792 0.31926 0.18611 0.0
H1068 H 0.33648 0.32251 0.13448 0.0
H1069 H 0.3279 0.30961 0.11189 0.0
H1070 H 0.28238 0.31633 0.12474 0.0
H1071 H 0.29093 0.32923 0.14705 0.0
H1072 H 0.30882 0.40564 0.18787 0.0
H1073 H 0.32243 0.38398 0.17907 0.0
H1074 H 0.31399 0.39021 0.23304 0.0
H1075 H 0.32714 0.36856 0.22422 0.0
H1076 H 0.38531 0.30848 0.2245 0.0
H1077 H 0.41075 0.30892 0.18401 0.0
H1078 H 0.38905 0.31782 0.17033 0.0
H1079 H 0.3635 0.31713 0.2107 0.0
C1080 C 0.64162 0.31355 0.18986 0.0
C1081 C 0.63198 0.32368 0.1965 0.0
C1082 C 0.61545 0.30337 0.2047 0.0
C1083 C 0.61907 0.31863 0.20392 0.0
C1084 C 0.6254 0.29332 0.19844 0.0
C1085 C 0.63826 0.29834 0.19112 0.0
U1086 U 0.67668 0.33777 0.17818 0.0
O1087 O 0.69756 0.32959 0.16873 0.0
O1088 O 0.68344 0.3442 0.1554 0.0
C1089 C 0.69549 0.33614 0.15581 0.0
C1090 C 0.65458 0.31826 0.18061 0.0
C1091 C 0.69936 0.32778 0.14217 0.0
C1092 C 0.70423 0.30482 0.12885 0.0
C1093 C 0.69891 0.31219 0.14147 0.0
C1094 C 0.71024 0.32843 0.11737 0.0
C1095 C 0.71028 0.31285 0.11676 0.0
C1096 C 0.70488 0.33576 0.12988 0.0
C1097 C 0.68974 0.37192 0.20237 0.0
C1098 C 0.70001 0.3968 0.19772 0.0
C1099 C 0.70268 0.38564 0.22202 0.0
C1100 C 0.69509 0.37289 0.21703 0.0
C1101 C 0.70521 0.39784 0.21248 0.0
C1102 C 0.69239 0.38401 0.19271 0.0
C1103 C 0.68018 0.35892 0.19812 0.0
O1104 O 0.65361 0.33076 0.1731 0.0
O1105 O 0.66793 0.31611 0.18616 0.0
O1106 O 0.68593 0.34567 0.19957 0.0
O1107 O 0.67172 0.36017 0.18624 0.0
H1108 H 0.63426 0.33548 0.19572 0.0
H1109 H 0.61169 0.32667 0.20866 0.0
H1110 H 0.62319 0.2815 0.1991 0.0
H1111 H 0.64547 0.29028 0.18612 0.0
H1112 H 0.70405 0.29281 0.12873 0.0
H1113 H 0.69476 0.30571 0.15077 0.0
H1114 H 0.7145 0.335 0.10817 0.0
H1115 H 0.70539 0.34777 0.1301 0.0
H1116 H 0.70175 0.40595 0.19004 0.0
H1117 H 0.70613 0.38611 0.23355 0.0
H1118 H 0.693 0.3639 0.22482 0.0
H1119 H 0.68833 0.38372 0.18137 0.0
C1120 C 0.64108 0.31489 0.82961 0.0
C1121 C 0.64044 0.31658 0.81409 0.0
C1122 C 0.61559 0.30502 0.8134 0.0
C1123 C 0.62781 0.31172 0.80607 0.0
C1124 C 0.61624 0.30363 0.82896 0.0
C1125 C 0.62881 0.30847 0.83693 0.0
U1126 U 0.67693 0.33808 0.83973 0.0
O1127 O 0.68472 0.34478 0.86205 0.0
O1128 O 0.69811 0.3298 0.84873 0.0
C1129 C 0.69657 0.33646 0.86156 0.0
C1130 C 0.65451 0.31889 0.8385 0.0
C1131 C 0.70031 0.32791 0.87523 0.0
C1132 C 0.70361 0.3047 0.88892 0.0
C1133 C 0.69885 0.31238 0.87614 0.0
C1134 C 0.71112 0.32792 0.90014 0.0
C1135 C 0.70999 0.31236 0.90105 0.0
C1136 C 0.70638 0.33556 0.88742 0.0
C1137 C 0.68904 0.37192 0.81471 0.0
C1138 C 0.70345 0.39444 0.82015 0.0
C1139 C 0.69834 0.38779 0.79465 0.0
C1140 C 0.69061 0.37507 0.79951 0.0
C1141 C 0.70479 0.39774 0.80488 0.0
C1142 C 0.69566 0.38167 0.82502 0.0
C1143 C 0.67957 0.35904 0.81928 0.0
O1144 O 0.66754 0.31661 0.83244 0.0
O1145 O 0.6541 0.33129 0.84604 0.0
O1146 O 0.67168 0.36042 0.83142 0.0
O1147 O 0.68525 0.34579 0.8179 0.0
H1148 H 0.64972 0.32154 0.80815 0.0
H1149 H 0.6276 0.31326 0.79414 0.0
H1150 H 0.60712 0.29848 0.83499 0.0
H1151 H 0.62903 0.30697 0.84887 0.0
H1152 H 0.70226 0.29276 0.88933 0.0
H1153 H 0.69417 0.30618 0.86694 0.0
H1154 H 0.71603 0.3342 0.90918 0.0
H1155 H 0.70772 0.34751 0.88698 0.0
H1156 H 0.70806 0.40195 0.82836 0.0
H1157 H 0.69922 0.38989 0.78283 0.0
H1158 H 0.68557 0.36779 0.79133 0.0
H1159 H 0.69455 0.37958 0.83683 0.0
C1160 C 0.63911 0.68597 0.81699 0.0
C1161 C 0.63886 0.70155 0.81758 0.0
C1162 C 0.61358 0.70177 0.8071 0.0
C1163 C 0.62623 0.70935 0.81272 0.0
C1164 C 0.61385 0.68617 0.80678 0.0
C1165 C 0.62639 0.67842 0.81167 0.0
U1166 U 0.67559 0.67477 0.83885 0.0
O1167 O 0.68343 0.65211 0.84337 0.0
O1168 O 0.69668 0.66703 0.82923 0.0
C1169 C 0.69522 0.65361 0.83488 0.0
C1170 C 0.65269 0.67724 0.82048 0.0
C1171 C 0.69944 0.64085 0.82533 0.0
C1172 C 0.69494 0.61602 0.81521 0.0
C1173 C 0.68988 0.62859 0.82278 0.0
C1174 C 0.71912 0.62769 0.81246 0.0
C1175 C 0.70968 0.61534 0.80997 0.0
C1176 C 0.71407 0.64022 0.81997 0.0
C1177 C 0.68849 0.6983 0.87379 0.0
C1178 C 0.70217 0.69315 0.89678 0.0
C1179 C 0.69821 0.71851 0.88916 0.0
C1180 C 0.6906 0.71351 0.87647 0.0
C1181 C 0.70403 0.70844 0.8996 0.0
C1182 C 0.69446 0.68813 0.88405 0.0
C1183 C 0.67892 0.69371 0.86096 0.0
O1184 O 0.66571 0.68365 0.81821 0.0
O1185 O 0.65246 0.66881 0.83244 0.0
O1186 O 0.67133 0.68117 0.86204 0.0
O1187 O 0.68412 0.69617 0.84754 0.0
H1188 H 0.64851 0.70773 0.82149 0.0
H1189 H 0.62656 0.72135 0.81294 0.0
H1190 H 0.60434 0.67992 0.80265 0.0
H1191 H 0.62628 0.66643 0.81097 0.0
H1192 H 0.68732 0.60676 0.81353 0.0
H1193 H 0.67858 0.62858 0.82688 0.0
H1194 H 0.73064 0.62751 0.80904 0.0
H1195 H 0.72181 0.64931 0.82201 0.0
H1196 H 0.70629 0.68504 0.90465 0.0
H1197 H 0.69948 0.73034 0.89085 0.0
H1198 H 0.68604 0.72162 0.86884 0.0
H1199 H 0.69291 0.67632 0.88241 0.0
C1200 C 0.31181 0.64318 0.82778 0.0
C1201 C 0.32241 0.63392 0.82136 0.0
C1202 C 0.30272 0.61706 0.8123 0.0
C1203 C 0.31791 0.62104 0.81367 0.0
C1204 C 0.29219 0.62661 0.81846 0.0
C1205 C 0.29668 0.63944 0.82609 0.0
U1206 U 0.33604 0.67765 0.84052 0.0
O1207 O 0.32801 0.69904 0.849 0.0
O1208 O 0.34099 0.68449 0.86351 0.0
C1209 C 0.33346 0.69683 0.86239 0.0
C1210 C 0.31599 0.65617 0.83714 0.0
C1211 C 0.32408 0.70111 0.87523 0.0
C1212 C 0.31032 0.69532 0.89796 0.0
C1213 C 0.31787 0.69066 0.88518 0.0
C1214 C 0.3148 0.72089 0.89094 0.0
C1215 C 0.3089 0.71054 0.90117 0.0
C1216 C 0.32229 0.71624 0.8782 0.0
C1217 C 0.37237 0.68862 0.81822 0.0
C1218 C 0.3858 0.71193 0.8133 0.0
C1219 C 0.39751 0.68863 0.80805 0.0
C1220 C 0.38482 0.68097 0.81315 0.0
C1221 C 0.39818 0.70423 0.80792 0.0
C1222 C 0.37303 0.70422 0.81836 0.0
C1223 C 0.35863 0.67993 0.82194 0.0
O1224 O 0.32787 0.65502 0.84562 0.0
O1225 O 0.31468 0.66942 0.83115 0.0
O1226 O 0.34574 0.68627 0.81968 0.0
O1227 O 0.35888 0.67171 0.83404 0.0
H1228 H 0.33416 0.63652 0.82243 0.0
H1229 H 0.32635 0.61419 0.8088 0.0
H1230 H 0.28043 0.62395 0.81773 0.0
H1231 H 0.28827 0.64631 0.83099 0.0
H1232 H 0.30563 0.68699 0.90535 0.0
H1233 H 0.31902 0.67891 0.88321 0.0
H1234 H 0.31402 0.73267 0.893 0.0
H1235 H 0.32703 0.72455 0.87081 0.0
H1236 H 0.38581 0.72393 0.81317 0.0
H1237 H 0.40682 0.68231 0.80411 0.0
H1238 H 0.38462 0.66897 0.8128 0.0
H1239 H 0.36357 0.71046 0.82208 0.0
C1240 C 0.32836 0.37525 0.81668 0.0
C1241 C 0.31272 0.37551 0.81721 0.0
C1242 C 0.31258 0.4007 0.80666 0.0
C1243 C 0.30493 0.3881 0.81229 0.0
C1244 C 0.32822 0.4004 0.80636 0.0
C1245 C 0.33596 0.3879 0.81132 0.0
U1246 U 0.33916 0.33881 0.8387 0.0
O1247 O 0.34799 0.31826 0.82918 0.0
O1248 O 0.3618 0.33136 0.84451 0.0
C1249 C 0.36099 0.31973 0.83582 0.0
C1250 C 0.33711 0.36177 0.82039 0.0
C1251 C 0.3746 0.3158 0.82737 0.0
C1252 C 0.38817 0.31156 0.80431 0.0
C1253 C 0.37558 0.31686 0.81179 0.0
C1254 C 0.39904 0.30429 0.82779 0.0
C1255 C 0.39994 0.3049 0.8122 0.0
C1256 C 0.38657 0.30963 0.83523 0.0
C1257 C 0.31477 0.3255 0.87298 0.0
C1258 C 0.31962 0.31289 0.89667 0.0
C1259 C 0.29433 0.31541 0.88794 0.0
C1260 C 0.29951 0.32273 0.87514 0.0
C1261 C 0.30426 0.31065 0.89906 0.0
C1262 C 0.32482 0.32032 0.88382 0.0
C1263 C 0.31946 0.33506 0.86017 0.0
O1264 O 0.3451 0.36198 0.83266 0.0
O1265 O 0.33091 0.34874 0.81782 0.0
O1266 O 0.31762 0.32972 0.84672 0.0
O1267 O 0.33174 0.34304 0.86157 0.0
H1268 H 0.30651 0.3659 0.82116 0.0
H1269 H 0.29289 0.38779 0.8125 0.0
H1270 H 0.33452 0.40987 0.80222 0.0
H1271 H 0.34799 0.38801 0.81067 0.0
H1272 H 0.38851 0.31226 0.79231 0.0
H1273 H 0.36653 0.3215 0.8054 0.0
H1274 H 0.40799 0.29957 0.83428 0.0
H1275 H 0.38615 0.30864 0.84721 0.0
H1276 H 0.32759 0.30934 0.90496 0.0
H1277 H 0.28247 0.31362 0.88922 0.0
H1278 H 0.29149 0.32661 0.86703 0.0
H1279 H 0.33665 0.32232 0.88255 0.0
H1280 H 0.22242 0.24866 0.98691 0.0
H1281 H 0.21134 0.23767 0.96464 0.0
H1282 H 0.25515 0.22849 0.94806 0.0
H1283 H 0.26619 0.23891 0.97068 0.0
H1284 H 0.23761 0.23786 0.00861 0.0
H1285 H 0.24798 0.27454 0.97112 0.0
H1286 H 0.25766 0.28559 0.94823 0.0
H1287 H 0.30246 0.27701 0.96297 0.0
H1288 H 0.29268 0.26528 0.98559 0.0
H1289 H 0.29294 0.26509 0.031 0.0
H1290 H 0.30293 0.27711 0.05337 0.0
H1291 H 0.25831 0.28706 0.06709 0.0
H1292 H 0.24843 0.27551 0.04455 0.0
H1293 H 0.2781 0.2757 0.00799 0.0
H1294 H 0.26696 0.23878 0.04576 0.0
H1295 H 0.25649 0.22815 0.06863 0.0
H1296 H 0.21234 0.23845 0.05313 0.0
H1297 H 0.22285 0.24941 0.0305 0.0
C1298 C 0.24522 0.24479 0.98061 0.0
C1299 C 0.2297 0.2442 0.97856 0.0
C1300 C 0.22334 0.23797 0.96571 0.0
C1301 C 0.23228 0.23204 0.95448 0.0
C1302 C 0.24784 0.23265 0.95652 0.0
C1303 C 0.2542 0.23884 0.96943 0.0
C1304 C 0.25185 0.2513 0.99458 0.0
C1305 C 0.24634 0.24628 0.00846 0.0
C1306 C 0.26359 0.2621 0.99439 0.0
C1307 C 0.26951 0.26883 0.9802 0.0
C1308 C 0.25988 0.27482 0.96941 0.0
C1309 C 0.26548 0.28138 0.95634 0.0
C1310 C 0.28091 0.28245 0.95374 0.0
C1311 C 0.29053 0.27639 0.9645 0.0
C1312 C 0.28492 0.26974 0.97755 0.0
C1313 C 0.26986 0.26922 0.03598 0.0
C1314 C 0.28528 0.26989 0.03879 0.0
C1315 C 0.291 0.27671 0.05166 0.0
C1316 C 0.28148 0.28324 0.06204 0.0
C1317 C 0.26604 0.28244 0.05926 0.0
C1318 C 0.26034 0.27562 0.04641 0.0
C1319 C 0.26379 0.26229 0.02198 0.0
C1320 C 0.26942 0.26723 0.00811 0.0
C1321 C 0.25208 0.2515 0.02215 0.0
C1322 C 0.24578 0.24516 0.03634 0.0
C1323 C 0.25504 0.23897 0.04734 0.0
C1324 C 0.24901 0.23277 0.06041 0.0
C1325 C 0.23355 0.23258 0.06289 0.0
C1326 C 0.2243 0.23868 0.05183 0.0
C1327 C 0.23032 0.24484 0.03876 0.0
H1328 H 0.76351 0.2239 0.98728 0.0
H1329 H 0.77438 0.21363 0.96481 0.0
H1330 H 0.78581 0.25783 0.9497 0.0
H1331 H 0.77554 0.26801 0.97249 0.0
H1332 H 0.77476 0.23828 0.00961 0.0
H1333 H 0.73816 0.25035 0.97235 0.0
H1334 H 0.72792 0.26104 0.94947 0.0
H1335 H 0.74084 0.30477 0.96431 0.0
H1336 H 0.7511 0.29406 0.98714 0.0
H1337 H 0.75134 0.29415 0.03088 0.0
H1338 H 0.74143 0.30523 0.05336 0.0
H1339 H 0.729 0.26177 0.0698 0.0
H1340 H 0.73839 0.25073 0.04695 0.0
H1341 H 0.73909 0.27958 0.00922 0.0
H1342 H 0.77614 0.26734 0.04631 0.0
H1343 H 0.78639 0.25652 0.06913 0.0
H1344 H 0.77237 0.213 0.05459 0.0
H1345 H 0.76215 0.22384 0.03181 0.0
C1346 C 0.76842 0.24681 0.98165 0.0
C1347 C 0.76835 0.23142 0.97916 0.0
C1348 C 0.77444 0.22554 0.96616 0.0
C1349 C 0.78079 0.23488 0.95522 0.0
C1350 C 0.78101 0.25027 0.95781 0.0
C1351 C 0.77498 0.25614 0.97083 0.0
C1352 C 0.76205 0.25301 0.99569 0.0
C1353 C 0.76678 0.24717 0.00951 0.0
C1354 C 0.75184 0.2649 0.99561 0.0
C1355 C 0.74564 0.27133 0.9815 0.0
C1356 C 0.73898 0.26222 0.97063 0.0
C1357 C 0.73313 0.26836 0.9575 0.0
C1358 C 0.73368 0.28377 0.95493 0.0
C1359 C 0.74017 0.29287 0.96591 0.0
C1360 C 0.74606 0.28673 0.979 0.0
C1361 C 0.7459 0.27151 0.03716 0.0
C1362 C 0.74648 0.28695 0.03928 0.0
C1363 C 0.74093 0.29329 0.05228 0.0
C1364 C 0.73465 0.28441 0.06361 0.0
C1365 C 0.7338 0.26898 0.06138 0.0
C1366 C 0.73933 0.26262 0.04833 0.0
C1367 C 0.75186 0.2649 0.02313 0.0
C1368 C 0.74705 0.27067 0.00931 0.0
C1369 C 0.76198 0.25294 0.02321 0.0
C1370 C 0.76814 0.24647 0.03731 0.0
C1371 C 0.77509 0.25548 0.04809 0.0
C1372 C 0.78094 0.24928 0.06118 0.0
C1373 C 0.78008 0.23388 0.06381 0.0
C1374 C 0.77328 0.22488 0.05293 0.0
C1375 C 0.76741 0.23108 0.03988 0.0
H1376 H 0.7638 0.79214 0.02953 0.0
H1377 H 0.77433 0.80339 0.05194 0.0
H1378 H 0.78652 0.76013 0.06818 0.0
H1379 H 0.77593 0.74887 0.04571 0.0
H1380 H 0.77575 0.77755 0.00788 0.0
H1381 H 0.73891 0.76514 0.04519 0.0
H1382 H 0.72816 0.7542 0.06779 0.0
H1383 H 0.74024 0.71069 0.0529 0.0
H1384 H 0.75096 0.72163 0.03037 0.0
H1385 H 0.74988 0.72158 0.98604 0.0
H1386 H 0.73857 0.71107 0.96362 0.0
H1387 H 0.72817 0.75508 0.94811 0.0
H1388 H 0.7389 0.76551 0.97085 0.0
H1389 H 0.73909 0.73602 0.00816 0.0
H1390 H 0.77537 0.74819 0.97065 0.0
H1391 H 0.78581 0.75889 0.94783 0.0
H1392 H 0.77534 0.8027 0.96311 0.0
H1393 H 0.76477 0.79198 0.98583 0.0
C1394 C 0.7689 0.76957 0.0358 0.0
C1395 C 0.76878 0.78502 0.03786 0.0
C1396 C 0.77492 0.79149 0.05069 0.0
C1397 C 0.78152 0.78273 0.06186 0.0
C1398 C 0.78152 0.76724 0.05988 0.0
C1399 C 0.7754 0.76077 0.04699 0.0
C1400 C 0.76264 0.76286 0.02177 0.0
C1401 C 0.76756 0.76859 0.00793 0.0
C1402 C 0.75223 0.75081 0.02185 0.0
C1403 C 0.74592 0.74429 0.03596 0.0
C1404 C 0.7394 0.75325 0.04681 0.0
C1405 C 0.73319 0.74697 0.05976 0.0
C1406 C 0.73311 0.73151 0.06215 0.0
C1407 C 0.73973 0.72258 0.05133 0.0
C1408 C 0.74597 0.72886 0.03843 0.0
C1409 C 0.74553 0.74443 0.98021 0.0
C1410 C 0.74519 0.72901 0.97784 0.0
C1411 C 0.73884 0.72299 0.96486 0.0
C1412 C 0.73263 0.73219 0.95382 0.0
C1413 C 0.73284 0.74761 0.95629 0.0
C1414 C 0.73914 0.75362 0.96929 0.0
C1415 C 0.75212 0.75077 0.99426 0.0
C1416 C 0.74728 0.74497 0.00809 0.0
C1417 C 0.76263 0.76274 0.99418 0.0
C1418 C 0.76899 0.76919 0.98004 0.0
C1419 C 0.77509 0.76009 0.96905 0.0
C1420 C 0.78108 0.76624 0.95594 0.0
C1421 C 0.78131 0.78169 0.95349 0.0
C1422 C 0.77541 0.79077 0.96459 0.0
C1423 C 0.76934 0.78463 0.97764 0.0
H1424 H 0.26369 0.72271 0.98746 0.0
H1425 H 0.27429 0.71232 0.96489 0.0
H1426 H 0.28667 0.75634 0.94999 0.0
H1427 H 0.27616 0.76669 0.97262 0.0
H1428 H 0.27506 0.73692 0.00982 0.0
H1429 H 0.23846 0.74913 0.97285 0.0
H1430 H 0.22837 0.75956 0.94982 0.0
H1431 H 0.24196 0.80338 0.96384 0.0
H1432 H 0.25202 0.79291 0.98691 0.0
H1433 H 0.25247 0.79295 0.03133 0.0
H1434 H 0.24264 0.80402 0.05387 0.0
H1435 H 0.22898 0.76067 0.06966 0.0
H1436 H 0.23834 0.74966 0.04677 0.0
H1437 H 0.23988 0.77865 0.00934 0.0
H1438 H 0.27655 0.76557 0.04683 0.0
H1439 H 0.28576 0.75434 0.06994 0.0
H1440 H 0.27143 0.71124 0.05449 0.0
H1441 H 0.26183 0.72252 0.03169 0.0
C1442 C 0.26893 0.74556 0.98185 0.0
C1443 C 0.26873 0.73016 0.97939 0.0
C1444 C 0.27487 0.72421 0.96646 0.0
C1445 C 0.28148 0.73346 0.95561 0.0
C1446 C 0.2816 0.74887 0.95803 0.0
C1447 C 0.27553 0.75482 0.971 0.0
C1448 C 0.26259 0.75183 0.99587 0.0
C1449 C 0.2672 0.74592 0.0097 0.0
C1450 C 0.25248 0.76381 0.99577 0.0
C1451 C 0.24627 0.77016 0.98163 0.0
C1452 C 0.23944 0.76097 0.97094 0.0
C1453 C 0.23369 0.76696 0.95771 0.0
C1454 C 0.23453 0.78231 0.95483 0.0
C1455 C 0.2411 0.79152 0.96567 0.0
C1456 C 0.24688 0.78552 0.97889 0.0
C1457 C 0.24643 0.77038 0.0373 0.0
C1458 C 0.24736 0.78578 0.0396 0.0
C1459 C 0.24185 0.7921 0.05263 0.0
C1460 C 0.23525 0.78324 0.0638 0.0
C1461 C 0.23404 0.76785 0.06137 0.0
C1462 C 0.23954 0.76152 0.0483 0.0
C1463 C 0.25241 0.76378 0.02328 0.0
C1464 C 0.24773 0.76965 0.00946 0.0
C1465 C 0.26237 0.75169 0.02339 0.0
C1466 C 0.26821 0.74497 0.03751 0.0
C1467 C 0.27521 0.75372 0.04848 0.0
C1468 C 0.2806 0.74727 0.06166 0.0
C1469 C 0.27915 0.7319 0.06422 0.0
C1470 C 0.27242 0.72315 0.0531 0.0
C1471 C 0.26704 0.72959 0.03995 0.0
H1472 H 0.02875 0.25179 0.22288 0.0
H1473 H 0.05072 0.24085 0.21173 0.0
H1474 H 0.06666 0.22837 0.25523 0.0
H1475 H 0.0445 0.23912 0.26639 0.0
H1476 H 0.00671 0.24046 0.23717 0.0
H1477 H 0.04484 0.27663 0.25056 0.0
H1478 H 0.06803 0.28591 0.26188 0.0
H1479 H 0.05231 0.27182 0.30498 0.0
H1480 H 0.0294 0.26219 0.29362 0.0
H1481 H 0.98516 0.26387 0.29339 0.0
H1482 H 0.96281 0.27442 0.30416 0.0
H1483 H 0.94804 0.28779 0.2605 0.0
H1484 H 0.97046 0.27721 0.24972 0.0
H1485 H 0.00775 0.27542 0.27931 0.0
H1486 H 0.96944 0.23978 0.2661 0.0
H1487 H 0.94673 0.22938 0.25479 0.0
H1488 H 0.96259 0.24257 0.21148 0.0
H1489 H 0.98517 0.25303 0.22277 0.0
C1490 C 0.03482 0.24648 0.24557 0.0
C1491 C 0.03691 0.24668 0.23008 0.0
C1492 C 0.04951 0.24035 0.22368 0.0
C1493 C 0.06045 0.23356 0.23254 0.0
C1494 C 0.05851 0.23354 0.24805 0.0
C1495 C 0.04582 0.23978 0.25447 0.0
C1496 C 0.0209 0.25275 0.25219 0.0
C1497 C 0.00696 0.2483 0.24624 0.0
C1498 C 0.02115 0.26268 0.26439 0.0
C1499 C 0.03536 0.26844 0.27116 0.0
C1500 C 0.04644 0.27535 0.26243 0.0
C1501 C 0.05967 0.28078 0.26893 0.0
C1502 C 0.06217 0.27942 0.28432 0.0
C1503 C 0.05095 0.27274 0.29305 0.0
C1504 C 0.03775 0.26734 0.28657 0.0
C1505 C 0.97963 0.26956 0.27066 0.0
C1506 C 0.97719 0.26912 0.28608 0.0
C1507 C 0.96438 0.27526 0.29227 0.0
C1508 C 0.95363 0.28217 0.28326 0.0
C1509 C 0.95601 0.28253 0.26781 0.0
C1510 C 0.96886 0.27641 0.26161 0.0
C1511 C 0.99357 0.26321 0.2642 0.0
C1512 C 0.0075 0.26762 0.2702 0.0
C1513 C 0.99332 0.25323 0.25204 0.0
C1514 C 0.97911 0.24732 0.24535 0.0
C1515 C 0.96799 0.24061 0.25419 0.0
C1516 C 0.955 0.23461 0.2477 0.0
C1517 C 0.95291 0.23495 0.2322 0.0
C1518 C 0.96396 0.24182 0.22342 0.0
C1519 C 0.97688 0.24787 0.22989 0.0
H1520 H 0.7644 0.03034 0.22343 0.0
H1521 H 0.77541 0.0533 0.21347 0.0
H1522 H 0.78673 0.0672 0.25792 0.0
H1523 H 0.77612 0.044 0.26781 0.0
H1524 H 0.77636 0.00794 0.23814 0.0
H1525 H 0.73939 0.04456 0.24922 0.0
H1526 H 0.72876 0.06693 0.25984 0.0
H1527 H 0.73857 0.05061 0.30389 0.0
H1528 H 0.74933 0.02833 0.29325 0.0
H1529 H 0.75027 0.98457 0.29284 0.0
H1530 H 0.73917 0.96178 0.30303 0.0
H1531 H 0.72861 0.94705 0.25867 0.0
H1532 H 0.73929 0.97011 0.24853 0.0
H1533 H 0.73861 0.00655 0.278 0.0
H1534 H 0.77564 0.97048 0.26771 0.0
H1535 H 0.78667 0.94803 0.25793 0.0
H1536 H 0.77807 0.96331 0.21324 0.0
H1537 H 0.76633 0.98548 0.22311 0.0
C1538 C 0.7692 0.03541 0.24643 0.0
C1539 C 0.76922 0.03832 0.23107 0.0
C1540 C 0.7754 0.05156 0.22538 0.0
C1541 C 0.78176 0.06225 0.2349 0.0
C1542 C 0.78189 0.05925 0.25026 0.0
C1543 C 0.77571 0.04601 0.25595 0.0
C1544 C 0.76273 0.02116 0.25241 0.0
C1545 C 0.76793 0.00761 0.2467 0.0
C1546 C 0.75198 0.02081 0.26395 0.0
C1547 C 0.74547 0.03468 0.27035 0.0
C1548 C 0.73949 0.04584 0.26116 0.0
C1549 C 0.73338 0.05869 0.26727 0.0
C1550 C 0.73292 0.06073 0.28276 0.0
C1551 C 0.73868 0.04946 0.29193 0.0
C1552 C 0.74487 0.03666 0.28582 0.0
C1553 C 0.74583 0.9791 0.26986 0.0
C1554 C 0.7456 0.97644 0.28527 0.0
C1555 C 0.73938 0.96329 0.29109 0.0
C1556 C 0.73319 0.95241 0.28168 0.0
C1557 C 0.73331 0.95514 0.26626 0.0
C1558 C 0.73953 0.9683 0.26043 0.0
C1559 C 0.75225 0.99333 0.26376 0.0
C1560 C 0.74702 0.00687 0.26942 0.0
C1561 C 0.76304 0.99367 0.25225 0.0
C1562 C 0.7699 0.97979 0.24624 0.0
C1563 C 0.77591 0.96898 0.2558 0.0
C1564 C 0.78247 0.95617 0.25015 0.0
C1565 C 0.78353 0.95384 0.23473 0.0
C1566 C 0.77747 0.96463 0.22516 0.0
C1567 C 0.77082 0.97742 0.23083 0.0
H1568 H 0.0282 0.72172 0.26434 0.0
H1569 H 0.0508 0.71049 0.27424 0.0
H1570 H 0.06737 0.75369 0.28705 0.0
H1571 H 0.04452 0.7649 0.27742 0.0
H1572 H 0.00664 0.73633 0.27699 0.0
H1573 H 0.04345 0.74829 0.23979 0.0
H1574 H 0.06605 0.75892 0.22864 0.0
H1575 H 0.05226 0.80266 0.24115 0.0
H1576 H 0.0297 0.79202 0.25227 0.0
H1577 H 0.98474 0.79204 0.25109 0.0
H1578 H 0.96244 0.80221 0.23932 0.0
H1579 H 0.947 0.75787 0.22928 0.0
H1580 H 0.96956 0.7478 0.24042 0.0
H1581 H 0.00697 0.77762 0.24046 0.0
H1582 H 0.96918 0.76539 0.27654 0.0
H1583 H 0.94658 0.75437 0.28741 0.0
H1584 H 0.96231 0.71074 0.27711 0.0
H1585 H 0.98473 0.72172 0.26607 0.0
C1586 C 0.03459 0.74425 0.26988 0.0
C1587 C 0.03666 0.72883 0.26927 0.0
C1588 C 0.0497 0.72241 0.27484 0.0
C1589 C 0.06109 0.73118 0.28126 0.0
C1590 C 0.05889 0.74658 0.28215 0.0
C1591 C 0.04584 0.75303 0.27651 0.0
C1592 C 0.02053 0.75096 0.26386 0.0
C1593 C 0.00668 0.74524 0.26885 0.0
C1594 C 0.02063 0.76293 0.2535 0.0
C1595 C 0.03477 0.76928 0.24704 0.0
C1596 C 0.04533 0.76016 0.24031 0.0
C1597 C 0.05828 0.76626 0.23388 0.0
C1598 C 0.06096 0.78169 0.2338 0.0
C1599 C 0.05046 0.79078 0.24068 0.0
C1600 C 0.03754 0.78468 0.24713 0.0
C1601 C 0.97896 0.76907 0.24683 0.0
C1602 C 0.9766 0.78447 0.24631 0.0
C1603 C 0.96375 0.7903 0.23964 0.0
C1604 C 0.9529 0.78093 0.23315 0.0
C1605 C 0.9552 0.76551 0.23383 0.0
C1606 C 0.96807 0.75969 0.24045 0.0
C1607 C 0.99301 0.76292 0.2535 0.0
C1608 C 0.00688 0.76874 0.24864 0.0
C1609 C 0.99292 0.75101 0.26397 0.0
C1610 C 0.97879 0.74446 0.27032 0.0
C1611 C 0.96773 0.75345 0.27642 0.0
C1612 C 0.95479 0.74713 0.28271 0.0
C1613 C 0.95267 0.73164 0.28332 0.0
C1614 C 0.96368 0.72268 0.27712 0.0
C1615 C 0.97653 0.72899 0.27075 0.0
H1616 H 0.22135 0.02861 0.25172 0.0
H1617 H 0.21029 0.05087 0.241 0.0
H1618 H 0.25413 0.06847 0.23145 0.0
H1619 H 0.26512 0.04586 0.24154 0.0
H1620 H 0.23644 0.00742 0.24069 0.0
H1621 H 0.2471 0.04408 0.27782 0.0
H1622 H 0.25687 0.06707 0.28864 0.0
H1623 H 0.30152 0.05379 0.27835 0.0
H1624 H 0.29166 0.03111 0.26697 0.0
H1625 H 0.29233 0.98629 0.26587 0.0
H1626 H 0.30303 0.9635 0.27597 0.0
H1627 H 0.25914 0.94776 0.28795 0.0
H1628 H 0.24849 0.97051 0.27782 0.0
H1629 H 0.27739 0.00817 0.27768 0.0
H1630 H 0.26585 0.97078 0.24085 0.0
H1631 H 0.25515 0.94793 0.23042 0.0
H1632 H 0.21124 0.96238 0.24198 0.0
H1633 H 0.22192 0.98513 0.25246 0.0
C1634 C 0.24415 0.03542 0.24763 0.0
C1635 C 0.22863 0.03719 0.24723 0.0
C1636 C 0.22229 0.05003 0.24116 0.0
C1637 C 0.23125 0.06154 0.2352 0.0
C1638 C 0.2468 0.05979 0.23562 0.0
C1639 C 0.25314 0.04689 0.24164 0.0
C1640 C 0.25079 0.02147 0.25396 0.0
C1641 C 0.24526 0.0076 0.24894 0.0
C1642 C 0.2626 0.02167 0.26456 0.0
C1643 C 0.26856 0.03583 0.27125 0.0
C1644 C 0.25898 0.04618 0.27763 0.0
C1645 C 0.26462 0.05932 0.28398 0.0
C1646 C 0.28002 0.06248 0.28424 0.0
C1647 C 0.2896 0.05199 0.27805 0.0
C1648 C 0.28395 0.03888 0.27166 0.0
C1649 C 0.26951 0.98017 0.27078 0.0
C1650 C 0.28497 0.97796 0.27067 0.0
C1651 C 0.29111 0.96488 0.27648 0.0
C1652 C 0.28198 0.95359 0.28259 0.0
C1653 C 0.26652 0.95595 0.28298 0.0
C1654 C 0.26039 0.96905 0.27719 0.0
C1655 C 0.26301 0.99415 0.26442 0.0
C1656 C 0.26858 0.00802 0.26942 0.0
C1657 C 0.25114 0.99395 0.2539 0.0
C1658 C 0.24476 0.97979 0.2476 0.0
C1659 C 0.25392 0.96902 0.24128 0.0
C1660 C 0.24778 0.95593 0.23526 0.0
C1661 C 0.23229 0.95335 0.23516 0.0
C1662 C 0.22317 0.96411 0.24153 0.0
C1663 C 0.2293 0.97714 0.24761 0.0
H1664 H 0.02987 0.76364 0.7935 0.0
H1665 H 0.05304 0.77346 0.80425 0.0
H1666 H 0.06777 0.78688 0.76059 0.0
H1667 H 0.04462 0.77699 0.74988 0.0
H1668 H 0.00784 0.7762 0.77902 0.0
H1669 H 0.0436 0.73882 0.76717 0.0
H1670 H 0.06628 0.72839 0.75696 0.0
H1671 H 0.05277 0.74217 0.713 0.0
H1672 H 0.02999 0.75245 0.72326 0.0
H1673 H 0.9853 0.75314 0.72289 0.0
H1674 H 0.96274 0.74259 0.71165 0.0
H1675 H 0.94701 0.72937 0.75501 0.0
H1676 H 0.9697 0.73991 0.76627 0.0
H1677 H 0.00696 0.7406 0.73741 0.0
H1678 H 0.9698 0.77661 0.7498 0.0
H1679 H 0.94752 0.78726 0.76083 0.0
H1680 H 0.96394 0.77616 0.80451 0.0
H1681 H 0.98599 0.76524 0.79352 0.0
C1682 C 0.03548 0.76931 0.77081 0.0
C1683 C 0.03807 0.76868 0.78621 0.0
C1684 C 0.05135 0.77433 0.79236 0.0
C1685 C 0.06241 0.78079 0.78329 0.0
C1686 C 0.0597 0.78164 0.76789 0.0
C1687 C 0.04641 0.776 0.76174 0.0
C1688 C 0.02124 0.76328 0.76432 0.0
C1689 C 0.00759 0.76823 0.77006 0.0
C1690 C 0.02104 0.75312 0.75233 0.0
C1691 C 0.03503 0.7467 0.74608 0.0
C1692 C 0.04555 0.73978 0.75535 0.0
C1693 C 0.05861 0.73383 0.74947 0.0
C1694 C 0.06159 0.73462 0.73412 0.0
C1695 C 0.05092 0.74132 0.72484 0.0
C1696 C 0.03785 0.74725 0.73073 0.0
C1697 C 0.9793 0.74744 0.74548 0.0
C1698 C 0.97705 0.74795 0.73003 0.0
C1699 C 0.96413 0.74184 0.72358 0.0
C1700 C 0.95312 0.73494 0.7324 0.0
C1701 C 0.95524 0.73463 0.7479 0.0
C1702 C 0.96822 0.7407 0.75435 0.0
C1703 C 0.99346 0.75349 0.75213 0.0
C1704 C 0.00714 0.74855 0.74639 0.0
C1705 C 0.99366 0.76361 0.76419 0.0
C1706 C 0.97971 0.7699 0.77074 0.0
C1707 C 0.96856 0.77622 0.76174 0.0
C1708 C 0.9558 0.7824 0.76807 0.0
C1709 C 0.95396 0.78273 0.78359 0.0
C1710 C 0.96507 0.77636 0.79255 0.0
C1711 C 0.97773 0.77006 0.78623 0.0
H1712 H 0.2649 0.03037 0.72446 0.0
H1713 H 0.27535 0.05372 0.71471 0.0
H1714 H 0.2862 0.06744 0.75931 0.0
H1715 H 0.27582 0.04412 0.76901 0.0
H1716 H 0.27657 0.00804 0.73914 0.0
H1717 H 0.2387 0.04386 0.75021 0.0
H1718 H 0.22803 0.06625 0.76067 0.0
H1719 H 0.23963 0.05114 0.80474 0.0
H1720 H 0.25018 0.02868 0.79422 0.0
H1721 H 0.24973 0.98411 0.79358 0.0
H1722 H 0.23804 0.96132 0.80323 0.0
H1723 H 0.2287 0.9472 0.75842 0.0
H1724 H 0.23982 0.97022 0.74885 0.0
H1725 H 0.23875 0.00639 0.77894 0.0
H1726 H 0.27589 0.97045 0.76844 0.0
H1727 H 0.28708 0.94813 0.7585 0.0
H1728 H 0.27822 0.96357 0.71392 0.0
H1729 H 0.26642 0.98565 0.72394 0.0
C1730 C 0.26928 0.03547 0.74753 0.0
C1731 C 0.26952 0.03839 0.73217 0.0
C1732 C 0.27551 0.05177 0.72659 0.0
C1733 C 0.28142 0.0626 0.73622 0.0
C1734 C 0.2814 0.05955 0.75158 0.0
C1735 C 0.27546 0.04617 0.75715 0.0
C1736 C 0.26288 0.02115 0.75344 0.0
C1737 C 0.26812 0.00765 0.74768 0.0
C1738 C 0.25213 0.02071 0.76497 0.0
C1739 C 0.24553 0.03453 0.77134 0.0
C1740 C 0.23912 0.04539 0.76212 0.0
C1741 C 0.23304 0.05829 0.76814 0.0
C1742 C 0.23314 0.06072 0.78359 0.0
C1743 C 0.23931 0.0497 0.79281 0.0
C1744 C 0.24539 0.03681 0.78678 0.0
C1745 C 0.24579 0.97898 0.77043 0.0
C1746 C 0.24512 0.97615 0.78581 0.0
C1747 C 0.23851 0.96304 0.79133 0.0
C1748 C 0.23226 0.95244 0.78164 0.0
C1749 C 0.23311 0.95521 0.76625 0.0
C1750 C 0.23967 0.96833 0.76073 0.0
C1751 C 0.2524 0.99325 0.76462 0.0
C1752 C 0.24718 0.00675 0.77038 0.0
C1753 C 0.26322 0.99367 0.75313 0.0
C1754 C 0.27009 0.97985 0.74703 0.0
C1755 C 0.27616 0.96902 0.75652 0.0
C1756 C 0.28279 0.95629 0.75078 0.0
C1757 C 0.2838 0.95405 0.73534 0.0
C1758 C 0.27765 0.96484 0.72585 0.0
C1759 C 0.27097 0.97757 0.7316 0.0
H1760 H 0.98415 0.26366 0.72449 0.0
H1761 H 0.96157 0.27445 0.71395 0.0
H1762 H 0.94713 0.28592 0.75794 0.0
H1763 H 0.96993 0.27549 0.76842 0.0
H1764 H 0.00681 0.27533 0.73917 0.0
H1765 H 0.96901 0.23887 0.75029 0.0
H1766 H 0.94586 0.22861 0.76049 0.0
H1767 H 0.96141 0.23834 0.8048 0.0
H1768 H 0.98454 0.2488 0.79455 0.0
H1769 H 0.02924 0.24798 0.79417 0.0
H1770 H 0.05205 0.23697 0.80402 0.0
H1771 H 0.06601 0.2273 0.75944 0.0
H1772 H 0.04315 0.23809 0.74963 0.0
H1773 H 0.0064 0.2378 0.77959 0.0
H1774 H 0.04507 0.2738 0.76775 0.0
H1775 H 0.06779 0.28432 0.75664 0.0
H1776 H 0.05039 0.27482 0.71297 0.0
H1777 H 0.02786 0.26411 0.72403 0.0
C1778 C 0.97887 0.26861 0.74732 0.0
C1779 C 0.97619 0.26857 0.73191 0.0
C1780 C 0.96319 0.27468 0.72587 0.0
C1781 C 0.9525 0.2812 0.73504 0.0
C1782 C 0.95519 0.28127 0.75048 0.0
C1783 C 0.96819 0.27511 0.75652 0.0
C1784 C 0.99289 0.26208 0.75363 0.0
C1785 C 0.00673 0.26697 0.74788 0.0
C1786 C 0.99277 0.25138 0.76533 0.0
C1787 C 0.97856 0.24496 0.77156 0.0
C1788 C 0.96741 0.23905 0.76219 0.0
C1789 C 0.95412 0.23315 0.76806 0.0
C1790 C 0.95163 0.23283 0.78348 0.0
C1791 C 0.96292 0.23842 0.79288 0.0
C1792 C 0.97618 0.24442 0.787 0.0
C1793 C 0.03443 0.24421 0.77107 0.0
C1794 C 0.03717 0.24348 0.78647 0.0
C1795 C 0.05026 0.23716 0.79213 0.0
C1796 C 0.06105 0.23143 0.78255 0.0
C1797 C 0.05817 0.23193 0.76716 0.0
C1798 C 0.04504 0.23813 0.76152 0.0
C1799 C 0.02039 0.25102 0.76508 0.0
C1800 C 0.00652 0.24619 0.77091 0.0
C1801 C 0.02048 0.26174 0.75339 0.0
C1802 C 0.03462 0.26799 0.7468 0.0
C1803 C 0.04617 0.27379 0.75578 0.0
C1804 C 0.05918 0.27987 0.74942 0.0
C1805 C 0.06087 0.28059 0.73389 0.0
C1806 C 0.04936 0.27473 0.72494 0.0
C1807 C 0.03645 0.26854 0.73129 0.0
H1808 H 0.72122 0.02915 0.75258 0.0
H1809 H 0.71025 0.05155 0.74205 0.0
H1810 H 0.75396 0.06797 0.73032 0.0
H1811 H 0.76494 0.04553 0.74093 0.0
H1812 H 0.73593 0.00761 0.74081 0.0
H1813 H 0.74759 0.04407 0.77815 0.0
H1814 H 0.75801 0.0665 0.78965 0.0
H1815 H 0.80209 0.05329 0.77713 0.0
H1816 H 0.79166 0.03086 0.76574 0.0
H1817 H 0.792 0.98598 0.76519 0.0
H1818 H 0.80263 0.96309 0.77513 0.0
H1819 H 0.75877 0.9477 0.78765 0.0
H1820 H 0.74818 0.97054 0.77764 0.0
H1821 H 0.77741 0.00795 0.77722 0.0
H1822 H 0.76537 0.97099 0.74035 0.0
H1823 H 0.75466 0.94815 0.72993 0.0
H1824 H 0.71081 0.96237 0.74205 0.0
H1825 H 0.72153 0.98512 0.7525 0.0
C1826 C 0.74399 0.03552 0.74772 0.0
C1827 C 0.7285 0.03752 0.74771 0.0
C1828 C 0.72219 0.05035 0.74157 0.0
C1829 C 0.73116 0.06156 0.73509 0.0
C1830 C 0.74668 0.05963 0.73522 0.0
C1831 C 0.753 0.04677 0.74136 0.0
C1832 C 0.75057 0.02151 0.75394 0.0
C1833 C 0.74487 0.00769 0.74894 0.0
C1834 C 0.76254 0.02159 0.76434 0.0
C1835 C 0.76877 0.03566 0.77094 0.0
C1836 C 0.75949 0.04603 0.77773 0.0
C1837 C 0.76548 0.05889 0.78435 0.0
C1838 C 0.78094 0.06168 0.78453 0.0
C1839 C 0.79018 0.05139 0.77756 0.0
C1840 C 0.7842 0.03855 0.77094 0.0
C1841 C 0.7692 0.98003 0.77036 0.0
C1842 C 0.78463 0.9777 0.77006 0.0
C1843 C 0.79073 0.96456 0.77579 0.0
C1844 C 0.78158 0.95335 0.78201 0.0
C1845 C 0.76616 0.95584 0.78258 0.0
C1846 C 0.76007 0.96898 0.77687 0.0
C1847 C 0.76274 0.99408 0.76412 0.0
C1848 C 0.76847 0.00789 0.76909 0.0
C1849 C 0.75075 0.99399 0.75374 0.0
C1850 C 0.74433 0.97988 0.74738 0.0
C1851 C 0.75346 0.96918 0.7409 0.0
C1852 C 0.74731 0.95609 0.73489 0.0
C1853 C 0.73183 0.95344 0.73496 0.0
C1854 C 0.72273 0.96415 0.74147 0.0
C1855 C 0.72888 0.97718 0.74753 0.0
H1856 H 0.29244 0.76563 0.48638 0.0
H1857 H 0.30244 0.77634 0.46334 0.0
H1858 H 0.25784 0.78461 0.44791 0.0
H1859 H 0.24787 0.77415 0.47101 0.0
H1860 H 0.27741 0.77609 0.50831 0.0
H1861 H 0.26643 0.73871 0.47126 0.0
H1862 H 0.25573 0.72792 0.44862 0.0
H1863 H 0.21167 0.73721 0.4644 0.0
H1864 H 0.22237 0.74811 0.48693 0.0
H1865 H 0.22248 0.7482 0.53041 0.0
H1866 H 0.2121 0.73709 0.55299 0.0
H1867 H 0.25645 0.72899 0.56933 0.0
H1868 H 0.26679 0.73956 0.54642 0.0
H1869 H 0.23761 0.73753 0.50885 0.0
H1870 H 0.24771 0.77493 0.54526 0.0
H1871 H 0.25746 0.78638 0.56787 0.0
H1872 H 0.30225 0.77846 0.55329 0.0
H1873 H 0.29241 0.76633 0.53096 0.0
C1874 C 0.26932 0.76874 0.4805 0.0
C1875 C 0.28477 0.76975 0.47808 0.0
C1876 C 0.2905 0.7759 0.46486 0.0
C1877 C 0.28097 0.78115 0.45361 0.0
C1878 C 0.26553 0.78035 0.45613 0.0
C1879 C 0.2598 0.77434 0.4694 0.0
C1880 C 0.26325 0.76216 0.4947 0.0
C1881 C 0.26887 0.76747 0.50843 0.0
C1882 C 0.2517 0.75117 0.49486 0.0
C1883 C 0.24529 0.7445 0.48088 0.0
C1884 C 0.25447 0.73863 0.46981 0.0
C1885 C 0.24832 0.73244 0.4568 0.0
C1886 C 0.2328 0.7318 0.45454 0.0
C1887 C 0.22365 0.73746 0.46573 0.0
C1888 C 0.22979 0.74372 0.47867 0.0
C1889 C 0.2455 0.74499 0.53662 0.0
C1890 C 0.23003 0.74405 0.53882 0.0
C1891 C 0.22407 0.73782 0.55189 0.0
C1892 C 0.23339 0.73232 0.56321 0.0
C1893 C 0.24888 0.73312 0.56093 0.0
C1894 C 0.25484 0.73931 0.54783 0.0
C1895 C 0.25175 0.75146 0.52245 0.0
C1896 C 0.24618 0.74611 0.50873 0.0
C1897 C 0.26327 0.76249 0.5223 0.0
C1898 C 0.26924 0.76952 0.5363 0.0
C1899 C 0.25964 0.77544 0.54695 0.0
C1900 C 0.26527 0.78224 0.55985 0.0
C1901 C 0.28071 0.78361 0.56241 0.0
C1902 C 0.29032 0.77762 0.55178 0.0
C1903 C 0.28467 0.77074 0.53891 0.0
H1904 H 0.7644 0.72366 0.48685 0.0
H1905 H 0.77484 0.71367 0.46397 0.0
H1906 H 0.78651 0.758 0.44951 0.0
H1907 H 0.77628 0.76794 0.47243 0.0
H1908 H 0.77548 0.73781 0.50932 0.0
H1909 H 0.73906 0.75054 0.4719 0.0
H1910 H 0.72856 0.76177 0.44935 0.0
H1911 H 0.74168 0.80511 0.46508 0.0
H1912 H 0.75221 0.79391 0.48751 0.0
H1913 H 0.75254 0.79355 0.53116 0.0
H1914 H 0.7427 0.8045 0.55375 0.0
H1915 H 0.72951 0.76102 0.56956 0.0
H1916 H 0.73892 0.75012 0.54663 0.0
H1917 H 0.73997 0.77924 0.50928 0.0
H1918 H 0.77699 0.7667 0.54614 0.0
H1919 H 0.7871 0.75584 0.56898 0.0
H1920 H 0.77293 0.71238 0.5544 0.0
H1921 H 0.76284 0.72327 0.53157 0.0
C1922 C 0.76922 0.74664 0.48141 0.0
C1923 C 0.76921 0.73127 0.47879 0.0
C1924 C 0.7752 0.72554 0.46567 0.0
C1925 C 0.78132 0.73502 0.45474 0.0
C1926 C 0.78155 0.75038 0.45747 0.0
C1927 C 0.77567 0.75609 0.47063 0.0
C1928 C 0.76284 0.75272 0.49551 0.0
C1929 C 0.76754 0.74673 0.50928 0.0
C1930 C 0.75268 0.76465 0.49553 0.0
C1931 C 0.74654 0.77132 0.4815 0.0
C1932 C 0.73982 0.76245 0.47046 0.0
C1933 C 0.73378 0.76889 0.45756 0.0
C1934 C 0.73409 0.78437 0.45547 0.0
C1935 C 0.74094 0.79319 0.46645 0.0
C1936 C 0.74703 0.78677 0.47929 0.0
C1937 C 0.74674 0.77092 0.53713 0.0
C1938 C 0.74754 0.78632 0.53945 0.0
C1939 C 0.74202 0.79258 0.5525 0.0
C1940 C 0.73553 0.78365 0.56368 0.0
C1941 C 0.73448 0.76825 0.56125 0.0
C1942 C 0.73999 0.76198 0.54816 0.0
C1943 C 0.75267 0.7644 0.52305 0.0
C1944 C 0.74789 0.7703 0.50929 0.0
C1945 C 0.76275 0.75241 0.52304 0.0
C1946 C 0.76891 0.74588 0.53711 0.0
C1947 C 0.77587 0.75485 0.54791 0.0
C1948 C 0.78165 0.74862 0.56102 0.0
C1949 C 0.78069 0.73323 0.56366 0.0
C1950 C 0.77391 0.72426 0.55274 0.0
C1951 C 0.76811 0.73049 0.53966 0.0
H1952 H 0.76375 0.2925 0.53013 0.0
H1953 H 0.77404 0.30293 0.55309 0.0
H1954 H 0.78673 0.25916 0.56745 0.0
H1955 H 0.77629 0.24876 0.54456 0.0
H1956 H 0.77573 0.27835 0.50777 0.0
H1957 H 0.73875 0.26565 0.5446 0.0
H1958 H 0.72808 0.25467 0.5672 0.0
H1959 H 0.74028 0.21121 0.55225 0.0
H1960 H 0.75086 0.2222 0.52968 0.0
H1961 H 0.7505 0.22288 0.48461 0.0
H1962 H 0.73884 0.21272 0.46214 0.0
H1963 H 0.72692 0.25685 0.44827 0.0
H1964 H 0.73822 0.26693 0.47091 0.0
H1965 H 0.73901 0.23687 0.50736 0.0
H1966 H 0.77476 0.24979 0.46959 0.0
H1967 H 0.78547 0.26108 0.44714 0.0
H1968 H 0.77595 0.30451 0.46399 0.0
H1969 H 0.765 0.29325 0.48625 0.0
C1970 C 0.76896 0.26975 0.53556 0.0
C1971 C 0.76872 0.2851 0.53821 0.0
C1972 C 0.77465 0.29109 0.55138 0.0
C1973 C 0.78106 0.28192 0.56233 0.0
C1974 C 0.78153 0.26657 0.55954 0.0
C1975 C 0.77558 0.26058 0.54637 0.0
C1976 C 0.76261 0.26345 0.52139 0.0
C1977 C 0.76752 0.26942 0.50765 0.0
C1978 C 0.75216 0.25144 0.52128 0.0
C1979 C 0.74578 0.24483 0.53532 0.0
C1980 C 0.73925 0.25377 0.54619 0.0
C1981 C 0.73309 0.24745 0.55915 0.0
C1982 C 0.73309 0.232 0.56154 0.0
C1983 C 0.7397 0.2231 0.55068 0.0
C1984 C 0.74587 0.22941 0.53775 0.0
C1985 C 0.74539 0.24574 0.47958 0.0
C1986 C 0.74537 0.23041 0.47677 0.0
C1987 C 0.73875 0.22459 0.46383 0.0
C1988 C 0.73177 0.23391 0.45339 0.0
C1989 C 0.73192 0.24927 0.45614 0.0
C1990 C 0.73857 0.25509 0.46906 0.0
C1991 C 0.75205 0.25184 0.4937 0.0
C1992 C 0.74721 0.24581 0.50744 0.0
C1993 C 0.76255 0.26383 0.49379 0.0
C1994 C 0.76886 0.27058 0.47976 0.0
C1995 C 0.77474 0.26174 0.46842 0.0
C1996 C 0.78095 0.26822 0.45556 0.0
C1997 C 0.78174 0.28373 0.45378 0.0
C1998 C 0.7758 0.29255 0.46507 0.0
C1999 C 0.76948 0.28608 0.47784 0.0
H2000 H 0.26375 0.2233 0.48732 0.0
H2001 H 0.27476 0.21308 0.46489 0.0
H2002 H 0.28629 0.25732 0.44995 0.0
H2003 H 0.27586 0.26744 0.4727 0.0
H2004 H 0.27497 0.23766 0.50972 0.0
H2005 H 0.23846 0.24984 0.47229 0.0
H2006 H 0.2285 0.26065 0.44935 0.0
H2007 H 0.24105 0.30432 0.46469 0.0
H2008 H 0.25146 0.29344 0.48734 0.0
H2009 H 0.25127 0.29328 0.53141 0.0
H2010 H 0.24097 0.30403 0.55391 0.0
H2011 H 0.22793 0.26036 0.56928 0.0
H2012 H 0.23824 0.24961 0.5467 0.0
H2013 H 0.23916 0.27883 0.50931 0.0
H2014 H 0.27576 0.26672 0.54662 0.0
H2015 H 0.28554 0.25604 0.56967 0.0
H2016 H 0.27287 0.2123 0.55462 0.0
H2017 H 0.26257 0.22307 0.53184 0.0
C2018 C 0.26869 0.24623 0.48176 0.0
C2019 C 0.26863 0.23084 0.47924 0.0
C2020 C 0.2748 0.22499 0.46626 0.0
C2021 C 0.28123 0.23435 0.45539 0.0
C2022 C 0.28143 0.24974 0.45801 0.0
C2023 C 0.27531 0.25558 0.47101 0.0
C2024 C 0.26226 0.25239 0.49579 0.0
C2025 C 0.26696 0.24652 0.50961 0.0
C2026 C 0.25203 0.26426 0.49571 0.0
C2027 C 0.24589 0.27076 0.48161 0.0
C2028 C 0.23921 0.26174 0.47068 0.0
C2029 C 0.23332 0.26797 0.45761 0.0
C2030 C 0.23382 0.28341 0.45518 0.0
C2031 C 0.24051 0.2924 0.46612 0.0
C2032 C 0.24641 0.28617 0.47916 0.0
C2033 C 0.2457 0.27056 0.53724 0.0
C2034 C 0.24614 0.28597 0.53955 0.0
C2035 C 0.24016 0.29214 0.55244 0.0
C2036 C 0.23342 0.28311 0.56339 0.0
C2037 C 0.23306 0.26767 0.56114 0.0
C2038 C 0.23902 0.26149 0.5482 0.0
C2039 C 0.25189 0.26413 0.52323 0.0
C2040 C 0.24715 0.26995 0.50941 0.0
C2041 C 0.26207 0.25222 0.52332 0.0
C2042 C 0.26822 0.24577 0.53744 0.0
C2043 C 0.27494 0.25484 0.5483 0.0
C2044 C 0.28074 0.24868 0.56143 0.0
C2045 C 0.28017 0.23325 0.56399 0.0
C2046 C 0.27347 0.22421 0.55308 0.0
C2047 C 0.26764 0.23037 0.53998 0.0
H2048 H 0.75094 0.5293 0.79403 0.0
H2049 H 0.7405 0.55192 0.80434 0.0
H2050 H 0.72799 0.56616 0.76023 0.0
H2051 H 0.73862 0.54365 0.74998 0.0
H2052 H 0.73932 0.50661 0.77918 0.0
H2053 H 0.7764 0.5441 0.76849 0.0
H2054 H 0.78694 0.5673 0.75855 0.0
H2055 H 0.77535 0.55343 0.71416 0.0
H2056 H 0.76441 0.53046 0.72417 0.0
H2057 H 0.76492 0.48569 0.72364 0.0
H2058 H 0.7759 0.46349 0.71307 0.0
H2059 H 0.78728 0.44815 0.7571 0.0
H2060 H 0.77667 0.4706 0.76761 0.0
H2061 H 0.77631 0.50804 0.73859 0.0
H2062 H 0.73938 0.47045 0.74926 0.0
H2063 H 0.72871 0.44734 0.75918 0.0
H2064 H 0.7397 0.46144 0.80364 0.0
H2065 H 0.75088 0.48429 0.79364 0.0
C2066 C 0.74587 0.53473 0.77114 0.0
C2067 C 0.74598 0.53728 0.78654 0.0
C2068 C 0.73996 0.55026 0.79245 0.0
C2069 C 0.73358 0.5611 0.78315 0.0
C2070 C 0.73319 0.55836 0.76775 0.0
C2071 C 0.73924 0.5454 0.76185 0.0
C2072 C 0.75242 0.52086 0.76487 0.0
C2073 C 0.74758 0.50693 0.77045 0.0
C2074 C 0.76298 0.52123 0.75316 0.0
C2075 C 0.76935 0.53551 0.74715 0.0
C2076 C 0.7759 0.54612 0.75663 0.0
C2077 C 0.78204 0.55936 0.75092 0.0
C2078 C 0.78184 0.56237 0.73555 0.0
C2079 C 0.77541 0.55169 0.72607 0.0
C2080 C 0.76927 0.53844 0.73178 0.0
C2081 C 0.7697 0.4799 0.74651 0.0
C2082 C 0.76974 0.47757 0.73107 0.0
C2083 C 0.77591 0.46473 0.72501 0.0
C2084 C 0.7823 0.45382 0.73421 0.0
C2085 C 0.78243 0.45625 0.74965 0.0
C2086 C 0.77623 0.46908 0.7557 0.0
C2087 C 0.76319 0.49376 0.75289 0.0
C2088 C 0.76805 0.5077 0.74733 0.0
C2089 C 0.75265 0.49339 0.76462 0.0
C2090 C 0.74622 0.47913 0.77063 0.0
C2091 C 0.73975 0.4685 0.76113 0.0
C2092 C 0.7335 0.4553 0.76684 0.0
C2093 C 0.73348 0.45239 0.78223 0.0
C2094 C 0.73982 0.46311 0.79173 0.0
C2095 C 0.74609 0.47629 0.78601 0.0
H2096 H 0.29166 0.53113 0.76587 0.0
H2097 H 0.30177 0.55394 0.77681 0.0
H2098 H 0.25748 0.56674 0.78903 0.0
H2099 H 0.24741 0.54391 0.77807 0.0
H2100 H 0.27767 0.50813 0.77738 0.0
H2101 H 0.26455 0.54574 0.7413 0.0
H2102 H 0.25306 0.56794 0.73069 0.0
H2103 H 0.20966 0.55021 0.74171 0.0
H2104 H 0.22113 0.52814 0.75241 0.0
H2105 H 0.22202 0.48474 0.75252 0.0
H2106 H 0.21144 0.46197 0.74195 0.0
H2107 H 0.25543 0.4479 0.73017 0.0
H2108 H 0.266 0.47077 0.74064 0.0
H2109 H 0.23622 0.5071 0.74097 0.0
H2110 H 0.24908 0.46977 0.77729 0.0
H2111 H 0.2602 0.44712 0.78712 0.0
H2112 H 0.30386 0.46441 0.77634 0.0
H2113 H 0.29266 0.48673 0.76588 0.0
C2114 C 0.2687 0.5357 0.77096 0.0
C2115 C 0.28409 0.5388 0.77093 0.0
C2116 C 0.28989 0.55186 0.77728 0.0
C2117 C 0.28048 0.56219 0.78397 0.0
C2118 C 0.26507 0.55913 0.78392 0.0
C2119 C 0.25928 0.54604 0.7776 0.0
C2120 C 0.26263 0.52152 0.76445 0.0
C2121 C 0.26874 0.50791 0.76925 0.0
C2122 C 0.25065 0.52124 0.75405 0.0
C2123 C 0.24379 0.53513 0.74783 0.0
C2124 C 0.25257 0.54665 0.74162 0.0
C2125 C 0.24597 0.55937 0.73549 0.0
C2126 C 0.2304 0.56084 0.73515 0.0
C2127 C 0.22166 0.54937 0.74146 0.0
C2128 C 0.22824 0.53671 0.74766 0.0
C2129 C 0.24489 0.47954 0.74764 0.0
C2130 C 0.22944 0.47679 0.74767 0.0
C2131 C 0.22338 0.46373 0.74159 0.0
C2132 C 0.23256 0.45297 0.73532 0.0
C2133 C 0.24802 0.45575 0.73518 0.0
C2134 C 0.25409 0.46888 0.74119 0.0
C2135 C 0.2512 0.49372 0.75395 0.0
C2136 C 0.24515 0.50733 0.7491 0.0
C2137 C 0.2632 0.49399 0.76433 0.0
C2138 C 0.26994 0.48007 0.7706 0.0
C2139 C 0.26105 0.46867 0.77687 0.0
C2140 C 0.26747 0.45574 0.78273 0.0
C2141 C 0.28301 0.45389 0.78272 0.0
C2142 C 0.29187 0.46533 0.7765 0.0
C2143 C 0.28545 0.47821 0.77059 0.0
H2144 H 0.26539 0.53062 0.22429 0.0
H2145 H 0.27592 0.55396 0.21462 0.0
H2146 H 0.28657 0.56763 0.25928 0.0
H2147 H 0.27617 0.54428 0.2689 0.0
H2148 H 0.27683 0.50823 0.23886 0.0
H2149 H 0.2394 0.54448 0.25029 0.0
H2150 H 0.22856 0.56668 0.26112 0.0
H2151 H 0.23987 0.5507 0.30495 0.0
H2152 H 0.25062 0.52855 0.29411 0.0
H2153 H 0.25082 0.48454 0.29349 0.0
H2154 H 0.23999 0.46153 0.30354 0.0
H2155 H 0.22902 0.44728 0.25913 0.0
H2156 H 0.23981 0.47031 0.24911 0.0
H2157 H 0.2392 0.50659 0.27883 0.0
H2158 H 0.27615 0.47044 0.268 0.0
H2159 H 0.28664 0.44784 0.25783 0.0
H2160 H 0.27737 0.46351 0.21344 0.0
H2161 H 0.26663 0.48607 0.22365 0.0
C2162 C 0.26969 0.53567 0.24739 0.0
C2163 C 0.26999 0.53862 0.23203 0.0
C2164 C 0.27602 0.55199 0.22649 0.0
C2165 C 0.28189 0.5628 0.23617 0.0
C2166 C 0.28181 0.55974 0.25152 0.0
C2167 C 0.27585 0.54635 0.25705 0.0
C2168 C 0.26324 0.52136 0.25325 0.0
C2169 C 0.26842 0.50785 0.24745 0.0
C2170 C 0.25252 0.52092 0.26482 0.0
C2171 C 0.24598 0.53471 0.27131 0.0
C2172 C 0.23965 0.54576 0.26223 0.0
C2173 C 0.23341 0.55849 0.26846 0.0
C2174 C 0.23311 0.56047 0.28396 0.0
C2175 C 0.23951 0.54945 0.293 0.0
C2176 C 0.24577 0.53675 0.28678 0.0
C2177 C 0.24637 0.47919 0.27048 0.0
C2178 C 0.24611 0.47647 0.28588 0.0
C2179 C 0.23991 0.46328 0.29164 0.0
C2180 C 0.2338 0.45242 0.28216 0.0
C2181 C 0.23396 0.4552 0.26675 0.0
C2182 C 0.24011 0.46842 0.26099 0.0
C2183 C 0.25278 0.49346 0.26445 0.0
C2184 C 0.24758 0.50696 0.27022 0.0
C2185 C 0.26353 0.49387 0.25291 0.0
C2186 C 0.27023 0.48001 0.24668 0.0
C2187 C 0.27612 0.46899 0.25607 0.0
C2188 C 0.28216 0.456 0.25023 0.0
C2189 C 0.28267 0.45369 0.23478 0.0
C2190 C 0.27715 0.46488 0.22537 0.0
C2191 C 0.27099 0.47782 0.23123 0.0
H2192 H 0.72029 0.52905 0.25228 0.0
H2193 H 0.70924 0.5513 0.2415 0.0
H2194 H 0.75305 0.56846 0.23113 0.0
H2195 H 0.76402 0.54588 0.24128 0.0
H2196 H 0.73509 0.50762 0.24116 0.0
H2197 H 0.74661 0.54447 0.27796 0.0
H2198 H 0.75677 0.56726 0.28892 0.0
H2199 H 0.80104 0.55413 0.27704 0.0
H2200 H 0.79086 0.53136 0.26606 0.0
H2201 H 0.79151 0.48661 0.26392 0.0
H2202 H 0.8028 0.46385 0.27334 0.0
H2203 H 0.75973 0.44782 0.28762 0.0
H2204 H 0.74847 0.47076 0.2784 0.0
H2205 H 0.77689 0.50845 0.27722 0.0
H2206 H 0.765 0.47194 0.23985 0.0
H2207 H 0.75476 0.44885 0.22966 0.0
H2208 H 0.71083 0.46141 0.24335 0.0
H2209 H 0.72111 0.48455 0.25347 0.0
C2210 C 0.74308 0.53566 0.24779 0.0
C2211 C 0.72757 0.53753 0.24761 0.0
C2212 C 0.72123 0.55036 0.24151 0.0
C2213 C 0.73018 0.56174 0.23529 0.0
C2214 C 0.74572 0.55988 0.23551 0.0
C2215 C 0.75206 0.547 0.24156 0.0
C2216 C 0.74973 0.52171 0.25411 0.0
C2217 C 0.74408 0.50783 0.24923 0.0
C2218 C 0.76176 0.52194 0.26446 0.0
C2219 C 0.76789 0.53609 0.27099 0.0
C2220 C 0.7585 0.54651 0.27755 0.0
C2221 C 0.76434 0.55958 0.28387 0.0
C2222 C 0.77977 0.56254 0.28402 0.0
C2223 C 0.78915 0.55213 0.27742 0.0
C2224 C 0.7833 0.53909 0.27106 0.0
C2225 C 0.76905 0.48046 0.27022 0.0
C2226 C 0.78445 0.47824 0.26909 0.0
C2227 C 0.7909 0.46512 0.27438 0.0
C2228 C 0.78217 0.45384 0.28106 0.0
C2229 C 0.7668 0.45621 0.28251 0.0
C2230 C 0.76033 0.46932 0.27713 0.0
C2231 C 0.76224 0.49444 0.26425 0.0
C2232 C 0.76786 0.5083 0.26918 0.0
C2233 C 0.75015 0.49421 0.25401 0.0
C2234 C 0.74392 0.48001 0.24771 0.0
C2235 C 0.75318 0.46969 0.24085 0.0
C2236 C 0.74729 0.45641 0.23503 0.0
C2237 C 0.73196 0.45308 0.23586 0.0
C2238 C 0.72267 0.46356 0.24248 0.0
C2239 C 0.72857 0.47683 0.24831 0.0
H2240 H 0.52939 0.25285 0.72278 0.0
H2241 H 0.5517 0.24232 0.71189 0.0
H2242 H 0.56648 0.22859 0.75545 0.0
H2243 H 0.54416 0.23924 0.76633 0.0
H2244 H 0.50684 0.24084 0.73708 0.0
H2245 H 0.5449 0.27701 0.74992 0.0
H2246 H 0.56778 0.28718 0.76098 0.0
H2247 H 0.5525 0.27365 0.80442 0.0
H2248 H 0.52967 0.26348 0.79334 0.0
H2249 H 0.48558 0.26377 0.79341 0.0
H2250 H 0.46302 0.27361 0.80445 0.0
H2251 H 0.44753 0.28696 0.76103 0.0
H2252 H 0.47038 0.27748 0.75004 0.0
H2253 H 0.50788 0.27601 0.77907 0.0
H2254 H 0.47064 0.23927 0.76683 0.0
H2255 H 0.44743 0.22913 0.75649 0.0
H2256 H 0.46105 0.24318 0.71267 0.0
H2257 H 0.4843 0.25329 0.72304 0.0
C2258 C 0.53497 0.24701 0.74546 0.0
C2259 C 0.53738 0.24754 0.73004 0.0
C2260 C 0.55015 0.2414 0.72378 0.0
C2261 C 0.56088 0.23436 0.73273 0.0
C2262 C 0.55853 0.23394 0.74819 0.0
C2263 C 0.54573 0.24008 0.75445 0.0
C2264 C 0.52103 0.25329 0.75198 0.0
C2265 C 0.5071 0.24871 0.74612 0.0
C2266 C 0.52129 0.26331 0.76412 0.0
C2267 C 0.53552 0.26925 0.77072 0.0
C2268 C 0.54653 0.27602 0.7618 0.0
C2269 C 0.55966 0.28184 0.76815 0.0
C2270 C 0.56209 0.28113 0.7836 0.0
C2271 C 0.551 0.27446 0.7925 0.0
C2272 C 0.53792 0.26861 0.78615 0.0
C2273 C 0.47975 0.26962 0.7708 0.0
C2274 C 0.47737 0.26882 0.78621 0.0
C2275 C 0.46434 0.27434 0.79253 0.0
C2276 C 0.45324 0.28088 0.78364 0.0
C2277 C 0.45576 0.28196 0.76824 0.0
C2278 C 0.46881 0.27641 0.76191 0.0
C2279 C 0.49373 0.26355 0.76416 0.0
C2280 C 0.50765 0.26817 0.77 0.0
C2281 C 0.49347 0.2535 0.75207 0.0
C2282 C 0.47922 0.24731 0.74579 0.0
C2283 C 0.46859 0.24035 0.75501 0.0
C2284 C 0.45527 0.23457 0.74908 0.0
C2285 C 0.45224 0.23552 0.73375 0.0
C2286 C 0.46301 0.24224 0.72451 0.0
C2287 C 0.47632 0.24805 0.73045 0.0
H2288 H 0.52747 0.722 0.76637 0.0
H2289 H 0.54977 0.71076 0.77691 0.0
H2290 H 0.56756 0.75426 0.78695 0.0
H2291 H 0.54496 0.76545 0.77691 0.0
H2292 H 0.50631 0.73727 0.77784 0.0
H2293 H 0.54311 0.74739 0.7406 0.0
H2294 H 0.56608 0.7569 0.72944 0.0
H2295 H 0.55314 0.8016 0.73935 0.0
H2296 H 0.53042 0.79198 0.75112 0.0
H2297 H 0.48516 0.7926 0.75057 0.0
H2298 H 0.4629 0.80275 0.7387 0.0
H2299 H 0.44696 0.75835 0.72968 0.0
H2300 H 0.46949 0.74829 0.74085 0.0
H2301 H 0.50727 0.77762 0.74026 0.0
H2302 H 0.46924 0.76651 0.77669 0.0
H2303 H 0.44617 0.75593 0.78683 0.0
H2304 H 0.46161 0.71196 0.77738 0.0
H2305 H 0.48432 0.72259 0.76665 0.0
C2306 C 0.5344 0.74466 0.77068 0.0
C2307 C 0.5361 0.72917 0.77092 0.0
C2308 C 0.54896 0.72273 0.77688 0.0
C2309 C 0.56053 0.73154 0.78293 0.0
C2310 C 0.55883 0.74706 0.78269 0.0
C2311 C 0.54593 0.75351 0.77673 0.0
C2312 C 0.52045 0.75138 0.76439 0.0
C2313 C 0.50651 0.74598 0.76947 0.0
C2314 C 0.52072 0.76308 0.75369 0.0
C2315 C 0.53494 0.76889 0.74693 0.0
C2316 C 0.54524 0.75923 0.74058 0.0
C2317 C 0.55834 0.76473 0.73397 0.0
C2318 C 0.56145 0.78008 0.73326 0.0
C2319 C 0.55119 0.78973 0.7397 0.0
C2320 C 0.5381 0.78422 0.74637 0.0
C2321 C 0.47913 0.7696 0.74681 0.0
C2322 C 0.47693 0.78501 0.74597 0.0
C2323 C 0.4641 0.79083 0.73925 0.0
C2324 C 0.4531 0.78143 0.73303 0.0
C2325 C 0.45526 0.766 0.73401 0.0
C2326 C 0.46812 0.76019 0.74065 0.0
C2327 C 0.4931 0.76343 0.75364 0.0
C2328 C 0.50705 0.76896 0.74868 0.0
C2329 C 0.49284 0.75176 0.76437 0.0
C2330 C 0.47862 0.74543 0.7707 0.0
C2331 C 0.46763 0.7546 0.77664 0.0
C2332 C 0.45447 0.74849 0.78266 0.0
C2333 C 0.45199 0.73303 0.78311 0.0
C2334 C 0.46302 0.7239 0.77718 0.0
C2335 C 0.47612 0.72999 0.77111 0.0
H2336 H 0.52908 0.75211 0.22346 0.0
H2337 H 0.55132 0.74142 0.21259 0.0
H2338 H 0.56687 0.72928 0.25636 0.0
H2339 H 0.5443 0.73944 0.26714 0.0
H2340 H 0.5068 0.74046 0.23787 0.0
H2341 H 0.54473 0.77686 0.25048 0.0
H2342 H 0.56766 0.787 0.26148 0.0
H2343 H 0.55243 0.7736 0.30497 0.0
H2344 H 0.52954 0.76349 0.29395 0.0
H2345 H 0.48552 0.76489 0.29391 0.0
H2346 H 0.46322 0.77554 0.30467 0.0
H2347 H 0.44737 0.78671 0.26074 0.0
H2348 H 0.47005 0.77671 0.25008 0.0
H2349 H 0.50773 0.77606 0.27948 0.0
H2350 H 0.46988 0.73965 0.26706 0.0
H2351 H 0.44696 0.72933 0.25619 0.0
H2352 H 0.46205 0.74238 0.21255 0.0
H2353 H 0.48492 0.75271 0.22344 0.0
C2354 C 0.53489 0.74677 0.2462 0.0
C2355 C 0.5372 0.74708 0.23076 0.0
C2356 C 0.55003 0.74102 0.22453 0.0
C2357 C 0.56094 0.73434 0.23353 0.0
C2358 C 0.55864 0.73405 0.249 0.0
C2359 C 0.54577 0.74009 0.25523 0.0
C2360 C 0.52093 0.75305 0.2527 0.0
C2361 C 0.50702 0.74841 0.24684 0.0
C2362 C 0.52116 0.76317 0.26474 0.0
C2363 C 0.53537 0.76918 0.27131 0.0
C2364 C 0.54638 0.77591 0.26236 0.0
C2365 C 0.55954 0.7817 0.26868 0.0
C2366 C 0.56201 0.781 0.28412 0.0
C2367 C 0.55091 0.7744 0.29305 0.0
C2368 C 0.53779 0.76858 0.28674 0.0
C2369 C 0.4796 0.76979 0.2711 0.0
C2370 C 0.47733 0.76972 0.28655 0.0
C2371 C 0.46445 0.77574 0.29271 0.0
C2372 C 0.45342 0.78214 0.28364 0.0
C2373 C 0.45568 0.78219 0.26816 0.0
C2374 C 0.46862 0.77623 0.262 0.0
C2375 C 0.49357 0.76348 0.26465 0.0
C2376 C 0.5075 0.7681 0.27051 0.0
C2377 C 0.49336 0.75331 0.25264 0.0
C2378 C 0.47916 0.74719 0.24614 0.0
C2379 C 0.4682 0.74049 0.25517 0.0
C2380 C 0.45505 0.73459 0.24893 0.0
C2381 C 0.45256 0.73514 0.23349 0.0
C2382 C 0.46361 0.74171 0.22447 0.0
C2383 C 0.47671 0.74765 0.2307 0.0
H2384 H 0.52692 0.22176 0.26629 0.0
H2385 H 0.54905 0.21023 0.27685 0.0
H2386 H 0.56733 0.25343 0.2872 0.0
H2387 H 0.54504 0.26499 0.27678 0.0
H2388 H 0.50601 0.2368 0.27755 0.0
H2389 H 0.54242 0.24773 0.24007 0.0
H2390 H 0.56523 0.25742 0.22867 0.0
H2391 H 0.5531 0.30184 0.24062 0.0
H2392 H 0.53047 0.29203 0.25246 0.0
H2393 H 0.48479 0.29277 0.25243 0.0
H2394 H 0.46228 0.30333 0.24143 0.0
H2395 H 0.44708 0.25947 0.22923 0.0
H2396 H 0.46953 0.24897 0.24025 0.0
H2397 H 0.50702 0.27812 0.24105 0.0
H2398 H 0.46903 0.26589 0.27745 0.0
H2399 H 0.44585 0.2549 0.28708 0.0
H2400 H 0.46125 0.2114 0.27565 0.0
H2401 H 0.48405 0.22243 0.26556 0.0
C2402 C 0.53414 0.24434 0.27058 0.0
C2403 C 0.53561 0.22882 0.27088 0.0
C2404 C 0.54831 0.2222 0.27699 0.0
C2405 C 0.55997 0.23086 0.28306 0.0
C2406 C 0.55863 0.2464 0.28259 0.0
C2407 C 0.54585 0.25304 0.27656 0.0
C2408 C 0.52019 0.25123 0.26445 0.0
C2409 C 0.50625 0.24571 0.26941 0.0
C2410 C 0.52046 0.26318 0.25404 0.0
C2411 C 0.53465 0.26908 0.24731 0.0
C2412 C 0.5447 0.25954 0.24042 0.0
C2413 C 0.5577 0.26514 0.23371 0.0
C2414 C 0.56097 0.28047 0.23352 0.0
C2415 C 0.55099 0.28999 0.24056 0.0
C2416 C 0.53797 0.28438 0.24727 0.0
C2417 C 0.47889 0.26998 0.24748 0.0
C2418 C 0.4766 0.28538 0.24745 0.0
C2419 C 0.4637 0.29144 0.24112 0.0
C2420 C 0.45266 0.28228 0.23462 0.0
C2421 C 0.45506 0.26688 0.2345 0.0
C2422 C 0.46798 0.26083 0.24079 0.0
C2423 C 0.49286 0.26359 0.25406 0.0
C2424 C 0.5068 0.26924 0.24922 0.0
C2425 C 0.49259 0.25163 0.26445 0.0
C2426 C 0.47834 0.24508 0.27048 0.0
C2427 C 0.46736 0.25401 0.2768 0.0
C2428 C 0.45412 0.24768 0.28245 0.0
C2429 C 0.4515 0.23225 0.28195 0.0
C2430 C 0.46264 0.22334 0.27589 0.0
C2431 C 0.47582 0.22965 0.27024 0.0
C2432 C 0.2256 0.20459 0.09425 0.0
C2433 C 0.21458 0.21142 0.10282 0.0
C2434 C 0.23176 0.21155 0.08159 0.0
C2435 C 0.22709 0.22563 0.07674 0.0
H2436 H 0.22961 0.19375 0.09743 0.0
H2437 H 0.24011 0.20571 0.07539 0.0
S2438 S 0.19867 0.24846 0.0952 0.0
N2439 N 0.19931 0.23323 0.10544 0.0
N2440 N 0.21092 0.24631 0.08183 0.0
C2441 C 0.21614 0.23264 0.08523 0.0
C2442 C 0.20993 0.22558 0.0982 0.0
C2443 C 0.80103 0.20745 0.0896 0.0
C2444 C 0.79812 0.21284 0.10393 0.0
C2445 C 0.79533 0.21438 0.07679 0.0
C2446 C 0.78644 0.22707 0.07767 0.0
H2447 H 0.8078 0.19773 0.08825 0.0
H2448 H 0.79794 0.20976 0.06607 0.0
S2449 S 0.77488 0.24533 0.11248 0.0
N2450 N 0.78535 0.2315 0.11818 0.0
N2451 N 0.7747 0.24453 0.09417 0.0
C2452 C 0.78351 0.23267 0.09191 0.0
C2453 C 0.78931 0.22558 0.10499 0.0
C2454 C 0.79064 0.79068 0.1028 0.0
C2455 C 0.80006 0.80333 0.1022 0.0
C2456 C 0.78494 0.78398 0.0898 0.0
C2457 C 0.78823 0.7897 0.07556 0.0
H2458 H 0.78762 0.78587 0.11343 0.0
H2459 H 0.77763 0.77439 0.09094 0.0
S2460 S 0.81256 0.82244 0.06768 0.0
N2461 N 0.81245 0.82122 0.08598 0.0
N2462 N 0.802 0.80857 0.06171 0.0
C2463 C 0.79777 0.80223 0.07479 0.0
C2464 C 0.80363 0.80902 0.08802 0.0
C2465 C 0.20965 0.79294 0.09626 0.0
C2466 C 0.2178 0.80393 0.10399 0.0
C2467 C 0.21539 0.78617 0.08346 0.0
C2468 C 0.22956 0.79007 0.07784 0.0
H2469 H 0.19858 0.7898 0.09992 0.0
H2470 H 0.20851 0.77807 0.07772 0.0
S2471 S 0.2562 0.81673 0.09514 0.0
N2472 N 0.24135 0.81738 0.10578 0.0
N2473 N 0.25211 0.80468 0.08197 0.0
C2474 C 0.23802 0.80065 0.08581 0.0
C2475 C 0.23217 0.80754 0.09878 0.0
C2476 C 0.21379 0.80775 0.92778 0.0
C2477 C 0.21715 0.80197 0.91372 0.0
C2478 C 0.21941 0.80136 0.94094 0.0
C2479 C 0.22852 0.78879 0.94066 0.0
H2480 H 0.207 0.81752 0.92864 0.0
H2481 H 0.21653 0.80629 0.95145 0.0
S2482 S 0.24041 0.7691 0.90677 0.0
N2483 N 0.22994 0.78263 0.90041 0.0
N2484 N 0.24063 0.77081 0.92501 0.0
C2485 C 0.23183 0.78279 0.92668 0.0
C2486 C 0.22615 0.78933 0.91328 0.0
C2487 C 0.20635 0.2266 0.92089 0.0
C2488 C 0.21082 0.21304 0.91474 0.0
C2489 C 0.21341 0.23264 0.93352 0.0
C2490 C 0.22528 0.22544 0.94072 0.0
H2491 H 0.19734 0.23268 0.91582 0.0
H2492 H 0.20955 0.24315 0.93764 0.0
S2493 S 0.24073 0.18919 0.92971 0.0
N2494 N 0.22763 0.19235 0.91721 0.0
N2495 N 0.24077 0.20358 0.94094 0.0
C2496 C 0.22985 0.21185 0.93471 0.0
C2497 C 0.22268 0.20571 0.92178 0.0
C2498 C 0.80798 0.22847 0.92329 0.0
C2499 C 0.80103 0.21723 0.9148 0.0
C2500 C 0.80141 0.23402 0.93624 0.0
C2501 C 0.78754 0.22865 0.94135 0.0
H2502 H 0.81871 0.23294 0.91997 0.0
H2503 H 0.80738 0.24251 0.94239 0.0
S2504 S 0.76411 0.20003 0.92261 0.0
N2505 N 0.7791 0.20139 0.91216 0.0
N2506 N 0.76673 0.21186 0.93633 0.0
C2507 C 0.78039 0.21749 0.93289 0.0
C2508 C 0.78712 0.2118 0.91971 0.0
C2509 C 0.8037 0.80745 0.9276 0.0
C2510 C 0.80001 0.80241 0.91322 0.0
C2511 C 0.79774 0.80065 0.94044 0.0
C2512 C 0.78784 0.78841 0.93958 0.0
H2513 H 0.8113 0.81677 0.92899 0.0
H2514 H 0.80099 0.805 0.95117 0.0
S2515 S 0.77388 0.77127 0.90473 0.0
N2516 N 0.78529 0.78462 0.89901 0.0
N2517 N 0.77428 0.77182 0.92305 0.0
C2518 C 0.78409 0.78319 0.92531 0.0
C2519 C 0.79012 0.79016 0.9122 0.0
C2520 C 0.10085 0.22343 0.22385 0.0
C2521 C 0.09946 0.21382 0.2116 0.0
C2522 C 0.08827 0.22957 0.23069 0.0
C2523 C 0.07371 0.22643 0.22557 0.0
H2524 H 0.11178 0.22656 0.22796 0.0
H2525 H 0.08999 0.23712 0.23985 0.0
S2526 S 0.06373 0.20046 0.19519 0.0
N2527 N 0.08209 0.20042 0.19563 0.0
N2528 N 0.05867 0.21202 0.20829 0.0
C2529 C 0.07215 0.21647 0.21367 0.0
C2530 C 0.08491 0.21017 0.20676 0.0
C2531 C 0.8099 0.09375 0.22783 0.0
C2532 C 0.80287 0.1027 0.21708 0.0
C2533 C 0.80295 0.08088 0.23362 0.0
C2534 C 0.78869 0.07626 0.22883 0.0
H2535 H 0.82088 0.09676 0.23192 0.0
H2536 H 0.80893 0.07436 0.24176 0.0
S2537 S 0.76531 0.09578 0.20102 0.0
N2538 N 0.78071 0.10595 0.20191 0.0
N2539 N 0.76761 0.08196 0.21289 0.0
C2540 C 0.78147 0.08515 0.21815 0.0
C2541 C 0.78853 0.0983 0.2123 0.0
C2542 C 0.91831 0.80446 0.22545 0.0
C2543 C 0.91293 0.79906 0.21175 0.0
C2544 C 0.93119 0.79865 0.23223 0.0
C2545 C 0.93933 0.7872 0.22561 0.0
H2546 H 0.91233 0.81305 0.23113 0.0
H2547 H 0.93464 0.80299 0.2429 0.0
S2548 S 0.93104 0.77051 0.18883 0.0
N2549 N 0.91752 0.78241 0.19127 0.0
N2550 N 0.94163 0.77168 0.20382 0.0
C2551 C 0.93431 0.78206 0.21168 0.0
C2552 C 0.92119 0.78792 0.20483 0.0
C2553 C 0.22497 0.91227 0.22652 0.0
C2554 C 0.21268 0.91251 0.21671 0.0
C2555 C 0.23138 0.92544 0.2322 0.0
C2556 C 0.22568 0.93947 0.2285 0.0
H2557 H 0.2297 0.90178 0.22984 0.0
H2558 H 0.2407 0.9246 0.23981 0.0
S2559 S 0.19379 0.94637 0.20314 0.0
N2560 N 0.19514 0.92815 0.20355 0.0
N2561 N 0.20723 0.95275 0.21401 0.0
C2562 C 0.2135 0.93988 0.2186 0.0
C2563 C 0.20703 0.92649 0.21275 0.0
C2564 C 0.08945 0.80131 0.80928 0.0
C2565 C 0.10356 0.79794 0.80359 0.0
C2566 C 0.07628 0.79577 0.80266 0.0
C2567 C 0.07661 0.78674 0.78996 0.0
H2568 H 0.08856 0.80803 0.81914 0.0
H2569 H 0.06574 0.79865 0.80753 0.0
S2570 S 0.11065 0.77496 0.77041 0.0
N2571 N 0.11698 0.7853 0.78418 0.0
N2572 N 0.09236 0.77475 0.77194 0.0
C2573 C 0.09064 0.78345 0.78404 0.0
C2574 C 0.10405 0.78905 0.79081 0.0
C2575 C 0.21155 0.0866 0.80917 0.0
C2576 C 0.21477 0.1009 0.8035 0.0
C2577 C 0.21747 0.07377 0.8027 0.0
C2578 C 0.22678 0.07459 0.79014 0.0
H2579 H 0.20463 0.08529 0.81891 0.0
H2580 H 0.21465 0.06309 0.80757 0.0
S2581 S 0.23835 0.10929 0.77067 0.0
N2582 N 0.22758 0.11498 0.7842 0.0
N2583 N 0.23888 0.09107 0.77231 0.0
C2584 C 0.22994 0.08881 0.78425 0.0
C2585 C 0.22394 0.10187 0.79086 0.0
C2586 C 0.92445 0.20969 0.80721 0.0
C2587 C 0.91036 0.21339 0.80143 0.0
C2588 C 0.93766 0.21613 0.80152 0.0
C2589 C 0.9374 0.22652 0.78975 0.0
H2590 H 0.92534 0.20147 0.81597 0.0
H2591 H 0.94819 0.21266 0.80616 0.0
S2592 S 0.90343 0.24139 0.77184 0.0
N2593 N 0.89704 0.22917 0.78406 0.0
N2594 N 0.92173 0.24106 0.77335 0.0
C2595 C 0.92339 0.23063 0.78417 0.0
C2596 C 0.90995 0.22414 0.78999 0.0
C2597 C 0.80747 0.92661 0.80269 0.0
C2598 C 0.80157 0.91244 0.79931 0.0
C2599 C 0.80098 0.93967 0.7971 0.0
C2600 C 0.78818 0.93923 0.78798 0.0
H2601 H 0.81739 0.92764 0.80949 0.0
H2602 H 0.80603 0.95024 0.80002 0.0
S2603 S 0.76809 0.90504 0.776 0.0
N2604 N 0.78184 0.89889 0.78647 0.0
N2605 N 0.76989 0.92328 0.77582 0.0
C2606 C 0.78207 0.92515 0.78464 0.0
C2607 C 0.7887 0.91185 0.79029 0.0
C2608 C 0.20539 0.09472 0.23024 0.0
C2609 C 0.20991 0.10126 0.21669 0.0
C2610 C 0.2124 0.08209 0.23613 0.0
C2611 C 0.22428 0.0753 0.22877 0.0
H2612 H 0.19636 0.09946 0.23643 0.0
H2613 H 0.20849 0.07766 0.24664 0.0
S2614 S 0.23987 0.08745 0.19246 0.0
N2615 N 0.22678 0.0996 0.19583 0.0
N2616 N 0.23983 0.0759 0.20676 0.0
C2617 C 0.22891 0.08171 0.21518 0.0
C2618 C 0.22178 0.09463 0.2092 0.0
C2619 C 0.22468 0.9171 0.8045 0.0
C2620 C 0.21089 0.91192 0.79895 0.0
C2621 C 0.23148 0.93017 0.79893 0.0
C2622 C 0.22476 0.93866 0.78758 0.0
H2623 H 0.23041 0.91085 0.81304 0.0
H2624 H 0.24221 0.93353 0.80338 0.0
S2625 S 0.18781 0.93086 0.7705 0.0
N2626 N 0.19026 0.91697 0.78224 0.0
N2627 N 0.20289 0.94144 0.7719 0.0
C2628 C 0.21078 0.93379 0.78224 0.0
C2629 C 0.20389 0.92049 0.78788 0.0
C2630 C 0.08782 0.20783 0.80584 0.0
C2631 C 0.10194 0.21134 0.79989 0.0
C2632 C 0.07475 0.21445 0.80034 0.0
C2633 C 0.07516 0.22485 0.78858 0.0
H2634 H 0.0868 0.19961 0.81462 0.0
H2635 H 0.06419 0.21112 0.80514 0.0
S2636 S 0.10934 0.23931 0.77023 0.0
N2637 N 0.1155 0.227 0.78234 0.0
N2638 N 0.09107 0.23921 0.77199 0.0
C2639 C 0.08922 0.22878 0.78281 0.0
C2640 C 0.10252 0.22211 0.78845 0.0
C2641 C 0.78692 0.10205 0.79676 0.0
C2642 C 0.79907 0.10133 0.80669 0.0
C2643 C 0.78114 0.08927 0.7897 0.0
C2644 C 0.78736 0.07519 0.79208 0.0
H2645 H 0.78161 0.11255 0.79464 0.0
H2646 H 0.77176 0.09046 0.78222 0.0
S2647 S 0.81951 0.06721 0.81679 0.0
N2648 N 0.81734 0.08528 0.81822 0.0
N2649 N 0.80641 0.06139 0.80522 0.0
C2650 C 0.79961 0.07434 0.80187 0.0
C2651 C 0.80545 0.08733 0.8091 0.0
C2652 C 0.91343 0.79209 0.79249 0.0
C2653 C 0.91473 0.80218 0.80436 0.0
C2654 C 0.92607 0.78606 0.78567 0.0
C2655 C 0.94061 0.78977 0.79046 0.0
H2656 H 0.90253 0.78851 0.78866 0.0
H2657 H 0.92444 0.77814 0.77682 0.0
S2658 S 0.95032 0.81708 0.81972 0.0
N2659 N 0.93197 0.81662 0.81956 0.0
N2660 N 0.95551 0.80519 0.80698 0.0
C2661 C 0.94208 0.80019 0.80197 0.0
C2662 C 0.92924 0.8064 0.80884 0.0
C2663 C 0.79114 0.91931 0.21118 0.0
C2664 C 0.80452 0.91385 0.21717 0.0
C2665 C 0.7845 0.9322 0.21681 0.0
C2666 C 0.79095 0.94027 0.22865 0.0
H2667 H 0.78558 0.9134 0.20226 0.0
H2668 H 0.77405 0.9357 0.212 0.0
S2669 S 0.82696 0.93174 0.24699 0.0
N2670 N 0.82456 0.91829 0.23484 0.0
N2671 N 0.81229 0.9424 0.24522 0.0
C2672 C 0.80457 0.93516 0.2344 0.0
C2673 C 0.81128 0.92203 0.22872 0.0
C2674 C 0.10157 0.78817 0.22212 0.0
C2675 C 0.10081 0.80022 0.21208 0.0
C2676 C 0.08872 0.78227 0.22905 0.0
C2677 C 0.07454 0.78825 0.22641 0.0
H2678 H 0.11215 0.78305 0.22442 0.0
H2679 H 0.08993 0.77297 0.2366 0.0
S2680 S 0.06643 0.82002 0.20135 0.0
N2681 N 0.08461 0.81812 0.20019 0.0
N2682 N 0.06061 0.80695 0.21295 0.0
C2683 C 0.07366 0.80039 0.21653 0.0
C2684 C 0.08671 0.80635 0.20943 0.0
C2685 C 0.91211 0.22533 0.22352 0.0
C2686 C 0.91302 0.21603 0.21105 0.0
C2687 C 0.925 0.23121 0.23044 0.0
C2688 C 0.93933 0.22808 0.22516 0.0
H2689 H 0.90135 0.22842 0.22775 0.0
H2690 H 0.9237 0.23858 0.23978 0.0
S2691 S 0.94791 0.20282 0.19411 0.0
N2692 N 0.92957 0.20292 0.19462 0.0
N2693 N 0.95362 0.21398 0.2075 0.0
C2694 C 0.94039 0.21839 0.21303 0.0
C2695 C 0.92731 0.21239 0.20603 0.0
C2696 C 0.22701 0.70535 0.59583 0.0
C2697 C 0.21523 0.71164 0.60379 0.0
C2698 C 0.23275 0.71207 0.58285 0.0
C2699 C 0.22704 0.72544 0.57716 0.0
H2700 H 0.23176 0.69501 0.59957 0.0
H2701 H 0.24166 0.7066 0.5771 0.0
S2702 S 0.197 0.74716 0.59443 0.0
N2703 N 0.19856 0.73248 0.60534 0.0
N2704 N 0.20935 0.74512 0.58113 0.0
C2705 C 0.21537 0.73195 0.58512 0.0
C2706 C 0.20948 0.72507 0.59833 0.0
C2707 C 0.80139 0.70678 0.58964 0.0
C2708 C 0.79848 0.71227 0.60394 0.0
C2709 C 0.79575 0.71367 0.57678 0.0
C2710 C 0.78694 0.72642 0.57757 0.0
H2711 H 0.80812 0.69702 0.58836 0.0
H2712 H 0.79837 0.70899 0.56609 0.0
S2713 S 0.77535 0.7449 0.61225 0.0
N2714 N 0.78575 0.73106 0.61805 0.0
N2715 N 0.77521 0.744 0.59394 0.0
C2716 C 0.78398 0.73209 0.59177 0.0
C2717 C 0.78972 0.72505 0.6049 0.0
C2718 C 0.80212 0.30783 0.58916 0.0
C2719 C 0.79913 0.30172 0.60332 0.0
C2720 C 0.7963 0.30139 0.57608 0.0
C2721 C 0.78732 0.28843 0.57647 0.0
H2722 H 0.80877 0.31789 0.58816 0.0
H2723 H 0.79894 0.3066 0.56554 0.0
S2724 S 0.77637 0.26774 0.61062 0.0
N2725 N 0.78684 0.28159 0.61679 0.0
N2726 N 0.77573 0.26975 0.5924 0.0
C2727 C 0.78438 0.2821 0.59054 0.0
C2728 C 0.79028 0.28868 0.60386 0.0
C2729 C 0.22462 0.29027 0.60436 0.0
C2730 C 0.21527 0.30268 0.60387 0.0
C2731 C 0.23021 0.28389 0.59131 0.0
C2732 C 0.22688 0.28975 0.57714 0.0
H2733 H 0.22764 0.28539 0.61496 0.0
H2734 H 0.23744 0.27445 0.59235 0.0
S2735 S 0.2028 0.32205 0.56957 0.0
N2736 N 0.20296 0.32054 0.58785 0.0
N2737 N 0.21323 0.30851 0.56347 0.0
C2738 C 0.21745 0.30208 0.57648 0.0
C2739 C 0.21169 0.30851 0.58976 0.0
C2740 C 0.22998 0.30817 0.42072 0.0
C2741 C 0.21579 0.30442 0.41502 0.0
C2742 C 0.23572 0.30124 0.43352 0.0
C2743 C 0.22755 0.29023 0.44127 0.0
H2744 H 0.23678 0.31652 0.4152 0.0
H2745 H 0.24672 0.30451 0.43735 0.0
S2746 S 0.18949 0.27688 0.4315 0.0
N2747 N 0.19352 0.28923 0.41845 0.0
N2748 N 0.20424 0.27628 0.44248 0.0
C2749 C 0.21335 0.28635 0.43569 0.0
C2750 C 0.2075 0.29341 0.42261 0.0
C2751 C 0.20717 0.70894 0.42899 0.0
C2752 C 0.21201 0.71271 0.41454 0.0
C2753 C 0.21401 0.71501 0.44174 0.0
C2754 C 0.22607 0.72512 0.44072 0.0
H2755 H 0.19798 0.70119 0.43049 0.0
H2756 H 0.20981 0.71169 0.45252 0.0
S2757 S 0.24265 0.73936 0.40564 0.0
N2758 N 0.22943 0.72773 0.40011 0.0
N2759 N 0.24228 0.73896 0.42397 0.0
C2760 C 0.2311 0.72895 0.42638 0.0
C2761 C 0.22409 0.72281 0.41336 0.0
C2762 C 0.80397 0.71139 0.42802 0.0
C2763 C 0.8007 0.71745 0.41391 0.0
C2764 C 0.79757 0.71697 0.44107 0.0
C2765 C 0.78763 0.72891 0.44065 0.0
H2766 H 0.81184 0.70247 0.42905 0.0
H2767 H 0.8007 0.71209 0.45164 0.0
S2768 S 0.77393 0.74763 0.4065 0.0
N2769 N 0.78577 0.73531 0.40034 0.0
N2770 N 0.77394 0.7458 0.42475 0.0
C2771 C 0.78394 0.73479 0.4266 0.0
C2772 C 0.7904 0.72908 0.41331 0.0
C2773 C 0.79089 0.29304 0.41309 0.0
C2774 C 0.80133 0.30484 0.41416 0.0
C2775 C 0.7848 0.28613 0.42586 0.0
C2776 C 0.78881 0.29074 0.44029 0.0
H2777 H 0.78708 0.28934 0.40229 0.0
H2778 H 0.7766 0.27734 0.42441 0.0
S2779 S 0.81707 0.31976 0.44934 0.0
N2780 N 0.8164 0.31979 0.43102 0.0
N2781 N 0.80488 0.30702 0.4548 0.0
C2782 C 0.79958 0.30218 0.44151 0.0
C2783 C 0.80584 0.30915 0.42855 0.0
C2784 C 0.08809 0.71381 0.7085 0.0
C2785 C 0.10227 0.71644 0.71481 0.0
C2786 C 0.07511 0.71969 0.71477 0.0
C2787 C 0.07563 0.72836 0.72774 0.0
H2788 H 0.087 0.70739 0.69843 0.0
H2789 H 0.06453 0.71732 0.70942 0.0
S2790 S 0.10989 0.73831 0.74889 0.0
N2791 N 0.1159 0.72806 0.73511 0.0
N2792 N 0.09171 0.73929 0.74663 0.0
C2793 C 0.08972 0.73096 0.73425 0.0
C2794 C 0.10294 0.725 0.72785 0.0
C2795 C 0.81002 0.59379 0.72836 0.0
C2796 C 0.80296 0.60277 0.71765 0.0
C2797 C 0.80307 0.58095 0.73418 0.0
C2798 C 0.78877 0.57637 0.72946 0.0
H2799 H 0.82103 0.59678 0.7324 0.0
H2800 H 0.80907 0.5744 0.74229 0.0
S2801 S 0.7653 0.59597 0.70179 0.0
N2802 N 0.78073 0.6061 0.7026 0.0
N2803 N 0.76763 0.58213 0.71363 0.0
C2804 C 0.78152 0.58528 0.71882 0.0
C2805 C 0.78859 0.59842 0.71294 0.0
C2806 C 0.91721 0.28552 0.71133 0.0
C2807 C 0.91194 0.29965 0.71512 0.0
C2808 C 0.93024 0.27973 0.71775 0.0
C2809 C 0.93858 0.28769 0.72844 0.0
H2810 H 0.91131 0.27892 0.70314 0.0
H2811 H 0.93374 0.26883 0.7144 0.0
S2812 S 0.92963 0.32512 0.74243 0.0
N2813 N 0.91613 0.32137 0.73047 0.0
N2814 N 0.94057 0.31059 0.7424 0.0
C2815 C 0.93341 0.3018 0.7324 0.0
C2816 C 0.92018 0.30774 0.72577 0.0
C2817 C 0.20672 0.42703 0.71321 0.0
C2818 C 0.21196 0.41272 0.71657 0.0
C2819 C 0.2135 0.43987 0.71916 0.0
C2820 C 0.22591 0.43907 0.72874 0.0
H2821 H 0.19724 0.42835 0.70587 0.0
H2822 H 0.20898 0.45055 0.71617 0.0
S2823 S 0.24366 0.40441 0.74175 0.0
N2824 N 0.23016 0.39863 0.73061 0.0
N2825 N 0.24292 0.42269 0.74163 0.0
C2826 C 0.23135 0.42488 0.73215 0.0
C2827 C 0.22441 0.41177 0.72612 0.0
C2828 C 0.09488 0.3051 0.29479 0.0
C2829 C 0.10317 0.29653 0.30493 0.0
C2830 C 0.08182 0.29945 0.28803 0.0
C2831 C 0.07634 0.28507 0.29128 0.0
H2832 H 0.09859 0.31624 0.29195 0.0
H2833 H 0.07582 0.30651 0.28037 0.0
S2834 S 0.09379 0.2581 0.3171 0.0
N2835 N 0.10477 0.27291 0.31796 0.0
N2836 N 0.08048 0.2623 0.30517 0.0
C2837 C 0.08454 0.27639 0.30138 0.0
C2838 C 0.09786 0.2821 0.30819 0.0
C2839 C 0.22377 0.60117 0.29141 0.0
C2840 C 0.21413 0.60041 0.30373 0.0
C2841 C 0.22962 0.5883 0.28498 0.0
C2842 C 0.22627 0.57402 0.29066 0.0
H2843 H 0.22683 0.61184 0.28665 0.0
H2844 H 0.23709 0.58957 0.27565 0.0
S2845 S 0.20145 0.56574 0.32259 0.0
N2846 N 0.20153 0.584 0.32128 0.0
N2847 N 0.21224 0.55997 0.30911 0.0
C2848 C 0.21653 0.57309 0.30286 0.0
C2849 C 0.21053 0.58619 0.30937 0.0
C2850 C 0.91189 0.72287 0.29285 0.0
C2851 C 0.91283 0.71095 0.30303 0.0
C2852 C 0.92474 0.72966 0.28673 0.0
C2853 C 0.93912 0.72479 0.29046 0.0
H2854 H 0.90111 0.72676 0.28927 0.0
H2855 H 0.92338 0.73855 0.27872 0.0
S2856 S 0.94789 0.69533 0.31799 0.0
N2857 N 0.92954 0.69557 0.31755 0.0
N2858 N 0.9535 0.70814 0.30599 0.0
C2859 C 0.94023 0.71323 0.30098 0.0
C2860 C 0.92718 0.70638 0.30725 0.0
C2861 C 0.79314 0.42122 0.30636 0.0
C2862 C 0.80337 0.41337 0.29772 0.0
C2863 C 0.78617 0.4341 0.30088 0.0
C2864 C 0.78912 0.43971 0.28651 0.0
H2865 H 0.79078 0.41759 0.31761 0.0
H2866 H 0.77868 0.43992 0.3081 0.0
S2867 S 0.81336 0.42217 0.25864 0.0
N2868 N 0.81492 0.41147 0.27349 0.0
N2869 N 0.80194 0.43549 0.26329 0.0
C2870 C 0.79889 0.43165 0.27758 0.0
C2871 C 0.80596 0.41856 0.28314 0.0
C2872 C 0.22135 0.60135 0.72566 0.0
C2873 C 0.20909 0.60016 0.71587 0.0
C2874 C 0.22828 0.58869 0.73166 0.0
C2875 C 0.22326 0.57422 0.7282 0.0
H2876 H 0.22541 0.61218 0.72903 0.0
H2877 H 0.23745 0.59025 0.73937 0.0
S2878 S 0.19282 0.56485 0.7017 0.0
N2879 N 0.19315 0.58314 0.702 0.0
N2880 N 0.20601 0.55954 0.7133 0.0
C2881 C 0.21132 0.57287 0.71807 0.0
C2882 C 0.2043 0.58574 0.71193 0.0
C2883 C 0.20971 0.42641 0.30604 0.0
C2884 C 0.21264 0.41222 0.3004 0.0
C2885 C 0.21672 0.43924 0.30024 0.0
C2886 C 0.22688 0.4385 0.28841 0.0
H2887 H 0.20191 0.42763 0.31505 0.0
H2888 H 0.21394 0.44987 0.30489 0.0
S2889 S 0.23863 0.4041 0.26971 0.0
N2890 N 0.22652 0.39828 0.28226 0.0
N2891 N 0.2398 0.42228 0.27153 0.0
C2892 C 0.23002 0.42438 0.28274 0.0
C2893 C 0.22293 0.4113 0.2887 0.0
C2894 C 0.09368 0.721 0.30701 0.0
C2895 C 0.10188 0.71088 0.29857 0.0
C2896 C 0.08069 0.72764 0.30131 0.0
C2897 C 0.07515 0.72428 0.28702 0.0
H2898 H 0.09743 0.72395 0.31806 0.0
H2899 H 0.07482 0.73532 0.30826 0.0
S2900 S 0.09228 0.69839 0.26044 0.0
N2901 N 0.10326 0.69774 0.27517 0.0
N2902 N 0.07911 0.71021 0.26452 0.0
C2903 C 0.08322 0.71415 0.2785 0.0
C2904 C 0.09648 0.70749 0.28424 0.0
C2905 C 0.78497 0.60339 0.29475 0.0
C2906 C 0.79713 0.6033 0.30473 0.0
C2907 C 0.77953 0.59028 0.28809 0.0
C2908 C 0.78598 0.57642 0.29105 0.0
H2909 H 0.77961 0.61372 0.29199 0.0
H2910 H 0.77021 0.59103 0.28047 0.0
S2911 S 0.81738 0.56979 0.3171 0.0
N2912 N 0.815 0.58789 0.31769 0.0
N2913 N 0.80487 0.56339 0.30518 0.0
C2914 C 0.79812 0.57614 0.30102 0.0
C2915 C 0.80365 0.5895 0.30783 0.0
C2916 C 0.91274 0.29166 0.29021 0.0
C2917 C 0.91333 0.30084 0.30283 0.0
C2918 C 0.92574 0.28591 0.28385 0.0
C2919 C 0.93996 0.28888 0.28992 0.0
H2920 H 0.90212 0.28891 0.28514 0.0
H2921 H 0.92459 0.27882 0.27425 0.0
S2922 S 0.94781 0.3124 0.32281 0.0
N2923 N 0.92952 0.3126 0.32112 0.0
N2924 N 0.95379 0.30204 0.30911 0.0
C2925 C 0.94072 0.29814 0.30246 0.0
C2926 C 0.92751 0.30406 0.30888 0.0
C2927 C 0.81014 0.42298 0.72645 0.0
C2928 C 0.80305 0.41427 0.71547 0.0
C2929 C 0.80333 0.43555 0.73249 0.0
C2930 C 0.78916 0.44016 0.72775 0.0
H2931 H 0.82103 0.41999 0.73055 0.0
H2932 H 0.80936 0.44184 0.74084 0.0
S2933 S 0.76571 0.42128 0.69931 0.0
N2934 N 0.78093 0.41129 0.70009 0.0
N2935 N 0.76815 0.4347 0.71149 0.0
C2936 C 0.78192 0.43154 0.71679 0.0
C2937 C 0.78882 0.41867 0.71069 0.0
C2938 C 0.10176 0.2893 0.72477 0.0
C2939 C 0.10086 0.29965 0.71297 0.0
C2940 C 0.08887 0.28339 0.73164 0.0
C2941 C 0.07451 0.28751 0.72699 0.0
H2942 H 0.1125 0.28543 0.72847 0.0
H2943 H 0.09016 0.27524 0.74042 0.0
S2944 S 0.06598 0.31561 0.69799 0.0
N2945 N 0.0843 0.31475 0.69799 0.0
N2946 N 0.06027 0.30359 0.71071 0.0
C2947 C 0.07348 0.2982 0.71557 0.0
C2948 C 0.08656 0.30426 0.70864 0.0
C2949 C 0.91232 0.72523 0.72382 0.0
C2950 C 0.91321 0.71599 0.7113 0.0
C2951 C 0.92521 0.73111 0.73072 0.0
C2952 C 0.93954 0.72804 0.72538 0.0
H2953 H 0.90156 0.72826 0.72809 0.0
H2954 H 0.92392 0.73843 0.74009 0.0
S2955 S 0.94809 0.70295 0.69418 0.0
N2956 N 0.92974 0.70301 0.69475 0.0
N2957 N 0.9538 0.71406 0.70761 0.0
C2958 C 0.94058 0.71841 0.71321 0.0
C2959 C 0.92749 0.71241 0.70621 0.0
C2960 C 0.72367 0.22485 0.60256 0.0
C2961 C 0.71426 0.21217 0.60223 0.0
C2962 C 0.72949 0.23126 0.58944 0.0
C2963 C 0.72634 0.22523 0.57535 0.0
H2964 H 0.72655 0.2299 0.61308 0.0
H2965 H 0.73677 0.24089 0.5904 0.0
S2966 S 0.7022 0.19224 0.56817 0.0
N2967 N 0.70212 0.19387 0.58641 0.0
N2968 N 0.71277 0.20602 0.56191 0.0
C2969 C 0.71685 0.21265 0.57484 0.0
C2970 C 0.71088 0.20615 0.58818 0.0
C2971 C 0.28337 0.20926 0.59906 0.0
C2972 C 0.29751 0.21305 0.60487 0.0
C2973 C 0.27792 0.2158 0.58592 0.0
C2974 C 0.28629 0.22655 0.57801 0.0
H2975 H 0.27649 0.20099 0.60461 0.0
H2976 H 0.26697 0.21249 0.582 0.0
S2977 S 0.32394 0.24054 0.58847 0.0
N2978 N 0.31967 0.22847 0.6017 0.0
N2979 N 0.30958 0.24055 0.57696 0.0
C2980 C 0.30042 0.23049 0.58371 0.0
C2981 C 0.306 0.22378 0.59708 0.0
C2982 C 0.30421 0.7921 0.59728 0.0
C2983 C 0.29829 0.80545 0.60254 0.0
C2984 C 0.29857 0.78517 0.58436 0.0
C2985 C 0.28677 0.7913 0.57604 0.0
H2986 H 0.31309 0.78679 0.60339 0.0
H2987 H 0.30333 0.77478 0.58101 0.0
S2988 S 0.2686 0.82707 0.58398 0.0
N2989 N 0.28072 0.82509 0.59765 0.0
N2990 N 0.2703 0.81228 0.57347 0.0
C2991 C 0.28108 0.80488 0.58095 0.0
C2992 C 0.28677 0.81188 0.59412 0.0
C2993 C 0.70977 0.79325 0.59605 0.0
C2994 C 0.71784 0.80429 0.60379 0.0
C2995 C 0.7156 0.78648 0.58328 0.0
C2996 C 0.72977 0.79043 0.57771 0.0
H2997 H 0.6987 0.79006 0.59967 0.0
H2998 H 0.70878 0.77833 0.57752 0.0
S2999 S 0.75622 0.81724 0.59507 0.0
N3000 N 0.74132 0.81785 0.60565 0.0
N3001 N 0.75223 0.80516 0.58191 0.0
C3002 C 0.73814 0.80106 0.5857 0.0
C3003 C 0.73221 0.80796 0.59863 0.0
C3004 C 0.72448 0.79291 0.41479 0.0
C3005 C 0.7152 0.80533 0.41573 0.0
C3006 C 0.73035 0.78606 0.42762 0.0
C3007 C 0.72722 0.79135 0.44195 0.0
H3008 H 0.72755 0.78869 0.40403 0.0
H3009 H 0.7377 0.77677 0.42629 0.0
S3010 S 0.70203 0.82228 0.45064 0.0
N3011 N 0.70213 0.82173 0.43232 0.0
N3012 N 0.71315 0.80897 0.45628 0.0
C3013 C 0.71756 0.80342 0.44305 0.0
C3014 C 0.71157 0.81036 0.43002 0.0
C3015 C 0.72441 0.21095 0.41821 0.0
C3016 C 0.70985 0.21481 0.41399 0.0
C3017 C 0.73137 0.21708 0.43091 0.0
C3018 C 0.72419 0.22756 0.43984 0.0
H3019 H 0.73041 0.20292 0.41177 0.0
H3020 H 0.74255 0.21367 0.43368 0.0
S3021 S 0.68611 0.24173 0.43349 0.0
N3022 N 0.68863 0.23009 0.4197 0.0
N3023 N 0.70157 0.24144 0.44344 0.0
C3024 C 0.70969 0.23162 0.43564 0.0
C3025 C 0.70257 0.2253 0.4228 0.0
C3026 C 0.30863 0.22798 0.42363 0.0
C3027 C 0.30172 0.21678 0.41506 0.0
C3028 C 0.30198 0.23351 0.43654 0.0
C3029 C 0.28806 0.22815 0.44155 0.0
H3030 H 0.31939 0.23244 0.4204 0.0
H3031 H 0.30792 0.24198 0.44276 0.0
S3032 S 0.26472 0.19962 0.42259 0.0
N3033 N 0.27978 0.20099 0.41224 0.0
N3034 N 0.26727 0.2114 0.43635 0.0
C3035 C 0.28096 0.21703 0.43302 0.0
C3036 C 0.28776 0.21136 0.41986 0.0
C3037 C 0.30427 0.8049 0.42655 0.0
C3038 C 0.29861 0.80097 0.41244 0.0
C3039 C 0.29868 0.79836 0.43971 0.0
C3040 C 0.28711 0.78762 0.43942 0.0
H3041 H 0.31287 0.81338 0.42748 0.0
H3042 H 0.30324 0.802 0.45024 0.0
S3043 S 0.26957 0.77208 0.40541 0.0
N3044 N 0.28157 0.7846 0.39908 0.0
N3045 N 0.27103 0.77254 0.42368 0.0
C3046 C 0.28164 0.78329 0.42539 0.0
C3047 C 0.28737 0.78988 0.412 0.0
C3048 C 0.60166 0.22441 0.7258 0.0
C3049 C 0.60101 0.21544 0.71302 0.0
C3050 C 0.58872 0.23026 0.73217 0.0
C3051 C 0.57449 0.22758 0.726 0.0
H3052 H 0.61229 0.22692 0.73097 0.0
H3053 H 0.58992 0.23719 0.74189 0.0
S3054 S 0.56648 0.20469 0.69269 0.0
N3055 N 0.58475 0.20422 0.69446 0.0
N3056 N 0.56058 0.21491 0.70653 0.0
C3057 C 0.57366 0.21852 0.71331 0.0
C3058 C 0.58682 0.21252 0.70685 0.0
C3059 C 0.30433 0.09016 0.7128 0.0
C3060 C 0.30112 0.104 0.71908 0.0
C3061 C 0.29782 0.07691 0.71825 0.0
C3062 C 0.28781 0.07689 0.73025 0.0
H3063 H 0.31225 0.0895 0.70382 0.0
H3064 H 0.30092 0.06654 0.71323 0.0
S3065 S 0.27431 0.11029 0.74953 0.0
N3066 N 0.28626 0.11691 0.73722 0.0
N3067 N 0.27414 0.09212 0.74745 0.0
C3068 C 0.28417 0.0907 0.73635 0.0
C3069 C 0.29077 0.10418 0.73078 0.0
C3070 C 0.41871 0.8052 0.72513 0.0
C3071 C 0.41309 0.79951 0.71165 0.0
C3072 C 0.4316 0.7994 0.7319 0.0
C3073 C 0.43952 0.78768 0.72548 0.0
H3074 H 0.41292 0.81401 0.73065 0.0
H3075 H 0.43524 0.80398 0.74242 0.0
S3076 S 0.43053 0.77012 0.68927 0.0
N3077 N 0.4172 0.78225 0.69156 0.0
N3078 N 0.44134 0.77156 0.70408 0.0
C3079 C 0.43425 0.78223 0.71176 0.0
C3080 C 0.42111 0.78808 0.70492 0.0
C3081 C 0.72476 0.91233 0.72632 0.0
C3082 C 0.71233 0.91247 0.7167 0.0
C3083 C 0.73112 0.92555 0.73194 0.0
C3084 C 0.72522 0.93953 0.72838 0.0
H3085 H 0.72967 0.90189 0.72953 0.0
H3086 H 0.74057 0.92478 0.7394 0.0
S3087 S 0.69288 0.94617 0.70353 0.0
N3088 N 0.69442 0.92795 0.70387 0.0
N3089 N 0.70642 0.95265 0.71421 0.0
C3090 C 0.71288 0.93984 0.71867 0.0
C3091 C 0.70646 0.9264 0.71288 0.0
C3092 C 0.5879 0.80209 0.31073 0.0
C3093 C 0.60226 0.7991 0.30542 0.0
C3094 C 0.57505 0.79635 0.30372 0.0
C3095 C 0.57592 0.78735 0.29104 0.0
H3096 H 0.58655 0.80896 0.32043 0.0
H3097 H 0.56431 0.79904 0.30827 0.0
S3098 S 0.61078 0.7755 0.27304 0.0
N3099 N 0.61651 0.78609 0.28687 0.0
N3100 N 0.59243 0.77538 0.27372 0.0
C3101 C 0.59019 0.78431 0.28555 0.0
C3102 C 0.6033 0.79016 0.29271 0.0
C3103 C 0.71022 0.08574 0.30811 0.0
C3104 C 0.71392 0.10026 0.30332 0.0
C3105 C 0.71627 0.07315 0.30137 0.0
C3106 C 0.7263 0.07439 0.28944 0.0
H3107 H 0.70252 0.08405 0.3172 0.0
H3108 H 0.71299 0.0623 0.30554 0.0
S3109 S 0.74038 0.10975 0.27302 0.0
N3110 N 0.72882 0.11501 0.28608 0.0
N3111 N 0.74 0.09145 0.2734 0.0
C3112 C 0.73007 0.08881 0.28446 0.0
C3113 C 0.72395 0.10167 0.29137 0.0
C3114 C 0.41878 0.22265 0.30777 0.0
C3115 C 0.411 0.21136 0.30008 0.0
C3116 C 0.43167 0.2295 0.30179 0.0
C3117 C 0.43733 0.2254 0.28784 0.0
H3118 H 0.41508 0.22596 0.31866 0.0
H3119 H 0.43745 0.23784 0.30832 0.0
S3120 S 0.41992 0.19792 0.26234 0.0
N3121 N 0.40921 0.1974 0.27717 0.0
N3122 N 0.43317 0.21026 0.26596 0.0
C3123 C 0.4293 0.21453 0.27983 0.0
C3124 C 0.41625 0.20754 0.28592 0.0
C3125 C 0.30779 0.927 0.30357 0.0
C3126 C 0.30206 0.91279 0.30006 0.0
C3127 C 0.30128 0.94002 0.29792 0.0
C3128 C 0.28861 0.93951 0.28861 0.0
H3129 H 0.31761 0.92808 0.31052 0.0
H3130 H 0.30619 0.95062 0.30095 0.0
S3131 S 0.26899 0.9052 0.27622 0.0
N3132 N 0.28264 0.89914 0.28688 0.0
N3133 N 0.27064 0.92345 0.27614 0.0
C3134 C 0.28267 0.9254 0.28514 0.0
C3135 C 0.28933 0.91213 0.29084 0.0
C3136 C 0.72375 0.10245 0.72586 0.0
C3137 C 0.71119 0.10189 0.71639 0.0
C3138 C 0.73023 0.08946 0.73162 0.0
C3139 C 0.72438 0.07525 0.72835 0.0
H3140 H 0.72866 0.11306 0.72885 0.0
H3141 H 0.73975 0.09059 0.73896 0.0
S3142 S 0.6918 0.06747 0.70393 0.0
N3143 N 0.69323 0.08574 0.704 0.0
N3144 N 0.7055 0.06148 0.71455 0.0
C3145 C 0.71193 0.07451 0.71876 0.0
C3146 C 0.70537 0.08774 0.71285 0.0
C3147 C 0.70498 0.92102 0.28887 0.0
C3148 C 0.71181 0.91233 0.29998 0.0
C3149 C 0.71202 0.93376 0.28293 0.0
C3150 C 0.72618 0.93851 0.2879 0.0
H3151 H 0.69408 0.91789 0.28464 0.0
H3152 H 0.70619 0.94009 0.27452 0.0
S3153 S 0.74902 0.91968 0.31663 0.0
N3154 N 0.73366 0.90947 0.31567 0.0
N3155 N 0.74694 0.93322 0.3044 0.0
C3156 C 0.73319 0.92988 0.29893 0.0
C3157 C 0.72604 0.91686 0.30494 0.0
C3158 C 0.6006 0.22135 0.292 0.0
C3159 C 0.59935 0.20926 0.30199 0.0
C3160 C 0.58791 0.2284 0.28613 0.0
C3161 C 0.57339 0.22367 0.28992 0.0
H3162 H 0.61147 0.22517 0.28838 0.0
H3163 H 0.5895 0.23742 0.27827 0.0
S3164 S 0.56391 0.19385 0.31704 0.0
N3165 N 0.58226 0.19386 0.31641 0.0
N3166 N 0.55862 0.20693 0.30533 0.0
C3167 C 0.572 0.21193 0.30025 0.0
C3168 C 0.58488 0.2048 0.30627 0.0
C3169 C 0.28576 0.09425 0.31188 0.0
C3170 C 0.29691 0.10326 0.30531 0.0
C3171 C 0.28045 0.08119 0.30505 0.0
C3172 C 0.28599 0.07647 0.29128 0.0
H3173 H 0.28116 0.09724 0.32251 0.0
H3174 H 0.272 0.07464 0.31072 0.0
S3175 S 0.31448 0.09657 0.26881 0.0
N3176 N 0.31285 0.10678 0.28385 0.0
N3177 N 0.30285 0.08239 0.27099 0.0
C3178 C 0.29707 0.08543 0.28452 0.0
C3179 C 0.30251 0.09874 0.29151 0.0
C3180 C 0.41948 0.78676 0.30881 0.0
C3181 C 0.41354 0.8005 0.30439 0.0
C3182 C 0.43216 0.78093 0.30199 0.0
C3183 C 0.43962 0.78853 0.29041 0.0
H3184 H 0.4142 0.78038 0.3176 0.0
H3185 H 0.4361 0.77026 0.30579 0.0
S3186 S 0.42922 0.82539 0.27524 0.0
N3187 N 0.41649 0.82179 0.28796 0.0
N3188 N 0.44031 0.81097 0.27528 0.0
C3189 C 0.43382 0.80232 0.2859 0.0
C3190 C 0.42084 0.80824 0.29283 0.0
C3191 C 0.2915 0.91959 0.71175 0.0
C3192 C 0.30504 0.91432 0.71755 0.0
C3193 C 0.28477 0.9324 0.71745 0.0
C3194 C 0.2913 0.94058 0.72918 0.0
H3195 H 0.28588 0.91358 0.70293 0.0
H3196 H 0.27422 0.93577 0.71278 0.0
S3197 S 0.32769 0.93258 0.74699 0.0
N3198 N 0.32529 0.91907 0.7349 0.0
N3199 N 0.31284 0.94303 0.74543 0.0
C3200 C 0.30507 0.93566 0.73473 0.0
C3201 C 0.31187 0.92262 0.72898 0.0
C3202 C 0.59723 0.80269 0.72562 0.0
C3203 C 0.60207 0.79725 0.71186 0.0
C3204 C 0.58414 0.79718 0.73242 0.0
C3205 C 0.57525 0.78601 0.72573 0.0
H3206 H 0.60378 0.81108 0.73134 0.0
H3207 H 0.58108 0.80153 0.74313 0.0
S3208 S 0.58202 0.76933 0.68884 0.0
N3209 N 0.59624 0.78087 0.69128 0.0
N3210 N 0.57174 0.77067 0.70388 0.0
C3211 C 0.57977 0.78081 0.71177 0.0
C3212 C 0.5931 0.78638 0.7049 0.0
C3213 C 0.42494 0.21473 0.70826 0.0
C3214 C 0.41091 0.21789 0.71427 0.0
C3215 C 0.43817 0.22044 0.7146 0.0
C3216 C 0.43799 0.22943 0.72734 0.0
H3217 H 0.42571 0.20804 0.69837 0.0
H3218 H 0.44865 0.21772 0.70951 0.0
S3219 S 0.40423 0.24076 0.74763 0.0
N3220 N 0.39774 0.23034 0.73398 0.0
N3221 N 0.42248 0.24119 0.74571 0.0
C3222 C 0.42405 0.23253 0.73356 0.0
C3223 C 0.41058 0.22677 0.72707 0.0
C3224 C 0.72358 0.7241 0.10309 0.0
C3225 C 0.71397 0.71159 0.10261 0.0
C3226 C 0.72949 0.73058 0.09004 0.0
C3227 C 0.72624 0.72474 0.07588 0.0
H3228 H 0.72656 0.72898 0.11367 0.0
H3229 H 0.73691 0.74008 0.09109 0.0
S3230 S 0.70157 0.69223 0.06834 0.0
N3231 N 0.70151 0.69367 0.0866 0.0
N3232 N 0.71237 0.7059 0.06223 0.0
C3233 C 0.71655 0.71232 0.07523 0.0
C3234 C 0.71048 0.70577 0.0885 0.0
C3235 C 0.30467 0.72147 0.09681 0.0
C3236 C 0.29622 0.71077 0.10469 0.0
C3237 C 0.29904 0.7284 0.08391 0.0
C3238 C 0.28471 0.72495 0.07835 0.0
H3239 H 0.31586 0.72424 0.10043 0.0
H3240 H 0.30611 0.73628 0.07805 0.0
S3241 S 0.25736 0.69919 0.09598 0.0
N3242 N 0.27227 0.69809 0.10668 0.0
N3243 N 0.26174 0.71108 0.08263 0.0
C3244 C 0.27598 0.71467 0.08645 0.0
C3245 C 0.2817 0.70761 0.09954 0.0
C3246 C 0.30424 0.29131 0.09746 0.0
C3247 C 0.29896 0.30516 0.10211 0.0
C3248 C 0.29868 0.28437 0.08451 0.0
C3249 C 0.2876 0.29097 0.0756 0.0
H3250 H 0.31252 0.28563 0.10407 0.0
H3251 H 0.30289 0.27359 0.08162 0.0
S3252 S 0.27146 0.32805 0.08178 0.0
N3253 N 0.28291 0.32575 0.09596 0.0
N3254 N 0.2726 0.31285 0.07178 0.0
C3255 C 0.2826 0.30503 0.07989 0.0
C3256 C 0.28824 0.31206 0.09305 0.0
C3257 C 0.70903 0.29382 0.09616 0.0
C3258 C 0.71691 0.30516 0.10366 0.0
C3259 C 0.71487 0.28704 0.08341 0.0
C3260 C 0.72887 0.29127 0.0776 0.0
H3261 H 0.6981 0.29039 0.09998 0.0
H3262 H 0.70819 0.27865 0.07785 0.0
S3263 S 0.75483 0.319 0.09427 0.0
N3264 N 0.74005 0.31936 0.10503 0.0
N3265 N 0.751 0.30663 0.08132 0.0
C3266 C 0.73706 0.30223 0.08534 0.0
C3267 C 0.73111 0.30914 0.09826 0.0
C3268 C 0.71238 0.30968 0.92889 0.0
C3269 C 0.71561 0.30436 0.9146 0.0
C3270 C 0.71813 0.30291 0.94177 0.0
C3271 C 0.72736 0.29047 0.94101 0.0
H3272 H 0.70531 0.3192 0.93015 0.0
H3273 H 0.71525 0.30745 0.95246 0.0
S3274 S 0.73995 0.2726 0.90636 0.0
N3275 N 0.72915 0.28611 0.90052 0.0
N3276 N 0.73986 0.27339 0.92467 0.0
C3277 C 0.73066 0.28498 0.92681 0.0
C3278 C 0.72482 0.2919 0.91366 0.0
C3279 C 0.70497 0.72536 0.92188 0.0
C3280 C 0.71153 0.71405 0.91351 0.0
C3281 C 0.71181 0.73107 0.93479 0.0
C3282 C 0.72559 0.7258 0.93999 0.0
H3283 H 0.69433 0.72977 0.9185 0.0
H3284 H 0.70613 0.73961 0.94084 0.0
S3285 S 0.74804 0.69705 0.9216 0.0
N3286 N 0.73299 0.69826 0.9111 0.0
N3287 N 0.74587 0.70901 0.93518 0.0
C3288 C 0.73234 0.71457 0.93166 0.0
C3289 C 0.72533 0.70872 0.91852 0.0
C3290 C 0.29165 0.72772 0.91475 0.0
C3291 C 0.30157 0.71575 0.91517 0.0
C3292 C 0.28518 0.73328 0.92776 0.0
C3293 C 0.28828 0.72712 0.94185 0.0
H3294 H 0.2888 0.73285 0.90423 0.0
H3295 H 0.2776 0.74246 0.92676 0.0
S3296 S 0.31425 0.69632 0.94936 0.0
N3297 N 0.31464 0.69839 0.93114 0.0
N3298 N 0.30247 0.70872 0.95544 0.0
C3299 C 0.29819 0.71517 0.94246 0.0
C3300 C 0.3048 0.70953 0.92921 0.0
C3301 C 0.30422 0.29034 0.91874 0.0
C3302 C 0.29848 0.30376 0.91322 0.0
C3303 C 0.29856 0.28357 0.93178 0.0
C3304 C 0.28695 0.28994 0.93995 0.0
H3305 H 0.31297 0.28486 0.91278 0.0
H3306 H 0.30318 0.27311 0.93535 0.0
S3307 S 0.26931 0.32597 0.93125 0.0
N3308 N 0.28128 0.32372 0.91765 0.0
N3309 N 0.27085 0.31121 0.94206 0.0
C3310 C 0.28143 0.30359 0.93475 0.0
C3311 C 0.28714 0.31042 0.92147 0.0
C3312 C 0.59495 0.72969 0.20849 0.0
C3313 C 0.60053 0.71569 0.21254 0.0
C3314 C 0.58236 0.73562 0.21539 0.0
C3315 C 0.57465 0.72785 0.22669 0.0
H3316 H 0.60043 0.7362 0.19992 0.0
H3317 H 0.57867 0.74646 0.21186 0.0
S3318 S 0.58405 0.69034 0.24086 0.0
N3319 N 0.59696 0.694 0.22832 0.0
N3320 N 0.57333 0.70503 0.24118 0.0
C3321 C 0.58009 0.71382 0.23085 0.0
C3322 C 0.59297 0.70779 0.22383 0.0
C3323 C 0.305 0.59036 0.21297 0.0
C3324 C 0.30163 0.60422 0.21915 0.0
C3325 C 0.29848 0.5771 0.21839 0.0
C3326 C 0.28831 0.5771 0.23025 0.0
H3327 H 0.31304 0.5897 0.2041 0.0
H3328 H 0.30169 0.56673 0.21345 0.0
S3329 S 0.27437 0.61049 0.2492 0.0
N3330 N 0.28646 0.61713 0.23703 0.0
N3331 N 0.27433 0.59232 0.2472 0.0
C3332 C 0.28453 0.5909 0.23624 0.0
C3333 C 0.29114 0.6044 0.23071 0.0
C3334 C 0.42745 0.30728 0.2111 0.0
C3335 C 0.41303 0.30137 0.21346 0.0
C3336 C 0.44007 0.30122 0.2181 0.0
C3337 C 0.43893 0.28883 0.22768 0.0
H3338 H 0.42902 0.31675 0.20378 0.0
H3339 H 0.45086 0.30615 0.21574 0.0
S3340 S 0.40381 0.26916 0.23785 0.0
N3341 N 0.39848 0.28229 0.22622 0.0
N3342 N 0.42203 0.27113 0.23947 0.0
C3343 C 0.42458 0.28287 0.23026 0.0
C3344 C 0.41171 0.28908 0.22318 0.0
C3345 C 0.70636 0.42575 0.21508 0.0
C3346 C 0.71261 0.4118 0.2181 0.0
C3347 C 0.71265 0.43894 0.22082 0.0
C3348 C 0.72558 0.43885 0.22974 0.0
H3349 H 0.69632 0.42647 0.20844 0.0
H3350 H 0.70734 0.44933 0.21817 0.0
S3351 S 0.74656 0.40535 0.24078 0.0
N3352 N 0.73279 0.39884 0.2304 0.0
N3353 N 0.74439 0.42348 0.24133 0.0
C3354 C 0.73204 0.425 0.23273 0.0
C3355 C 0.72561 0.41156 0.22693 0.0
C3356 C 0.58776 0.30234 0.8103 0.0
C3357 C 0.60216 0.2994 0.80506 0.0
C3358 C 0.57497 0.29655 0.80323 0.0
C3359 C 0.57594 0.28754 0.79057 0.0
H3360 H 0.58635 0.30922 0.81998 0.0
H3361 H 0.5642 0.2992 0.80772 0.0
S3362 S 0.61093 0.2758 0.77274 0.0
N3363 N 0.61656 0.28642 0.7866 0.0
N3364 N 0.59258 0.27561 0.77333 0.0
C3365 C 0.59024 0.28455 0.78515 0.0
C3366 C 0.6033 0.29044 0.79236 0.0
C3367 C 0.71242 0.58744 0.80861 0.0
C3368 C 0.71539 0.60163 0.80254 0.0
C3369 C 0.71828 0.5745 0.80232 0.0
C3370 C 0.7273 0.57508 0.78954 0.0
H3371 H 0.70574 0.58631 0.81853 0.0
H3372 H 0.71565 0.56392 0.8075 0.0
S3373 S 0.73822 0.60939 0.76902 0.0
N3374 N 0.7277 0.61532 0.78264 0.0
N3375 N 0.73891 0.59122 0.77109 0.0
C3376 C 0.73023 0.58918 0.78326 0.0
C3377 C 0.72428 0.60235 0.78968 0.0
C3378 C 0.41768 0.70774 0.78806 0.0
C3379 C 0.41159 0.71221 0.80168 0.0
C3380 C 0.43052 0.71461 0.78213 0.0
C3381 C 0.43798 0.7263 0.78953 0.0
H3382 H 0.41241 0.69884 0.78185 0.0
H3383 H 0.4346 0.71075 0.77157 0.0
S3384 S 0.42714 0.74176 0.82597 0.0
N3385 N 0.41434 0.72888 0.82261 0.0
N3386 N 0.43846 0.74168 0.81159 0.0
C3387 C 0.43201 0.73091 0.80317 0.0
C3388 C 0.41887 0.72392 0.80919 0.0
C3389 C 0.30867 0.42047 0.787 0.0
C3390 C 0.30447 0.41399 0.80069 0.0
C3391 C 0.30163 0.43316 0.78129 0.0
C3392 C 0.29004 0.44008 0.78898 0.0
H3393 H 0.31745 0.41561 0.78055 0.0
H3394 H 0.30527 0.43753 0.77067 0.0
S3395 S 0.27539 0.42817 0.82576 0.0
N3396 N 0.28823 0.41587 0.82203 0.0
N3397 N 0.27513 0.43969 0.81143 0.0
C3398 C 0.28574 0.43375 0.80271 0.0
C3399 C 0.2929 0.42076 0.80851 0.0
C3400 C 0.70458 0.5951 0.2303 0.0
C3401 C 0.70896 0.60143 0.21661 0.0
C3402 C 0.71154 0.58247 0.23624 0.0
C3403 C 0.72324 0.57547 0.22879 0.0
H3404 H 0.6957 0.60003 0.23657 0.0
H3405 H 0.70776 0.57821 0.24686 0.0
S3406 S 0.73838 0.58699 0.19209 0.0
N3407 N 0.72548 0.59933 0.19551 0.0
N3408 N 0.73844 0.57562 0.20654 0.0
C3409 C 0.72771 0.58166 0.21505 0.0
C3410 C 0.72064 0.59458 0.20902 0.0
C3411 C 0.70554 0.42054 0.78851 0.0
C3412 C 0.71236 0.4117 0.79949 0.0
C3413 C 0.71242 0.43358 0.78304 0.0
C3414 C 0.72645 0.43841 0.78829 0.0
H3415 H 0.69469 0.41744 0.78417 0.0
H3416 H 0.70658 0.44003 0.77474 0.0
S3417 S 0.74958 0.41876 0.81623 0.0
N3418 N 0.73432 0.40843 0.81493 0.0
N3419 N 0.74723 0.43283 0.80467 0.0
C3420 C 0.73346 0.42961 0.79919 0.0
C3421 C 0.72644 0.41633 0.80477 0.0
C3422 C 0.59383 0.70573 0.78741 0.0
C3423 C 0.6003 0.7099 0.80109 0.0
C3424 C 0.58118 0.71283 0.78163 0.0
C3425 C 0.5743 0.72446 0.78925 0.0
H3426 H 0.59867 0.69693 0.781 0.0
H3427 H 0.57681 0.70921 0.77101 0.0
S3428 S 0.58617 0.73907 0.82599 0.0
N3429 N 0.59842 0.72615 0.82236 0.0
N3430 N 0.57469 0.73939 0.81162 0.0
C3431 C 0.58062 0.72873 0.80298 0.0
C3432 C 0.59355 0.72151 0.80885 0.0
C3433 C 0.28542 0.60302 0.79489 0.0
C3434 C 0.29769 0.60299 0.80474 0.0
C3435 C 0.28003 0.5899 0.78821 0.0
C3436 C 0.28665 0.57608 0.79101 0.0
H3437 H 0.27993 0.61332 0.79227 0.0
H3438 H 0.27063 0.59061 0.7807 0.0
S3439 S 0.31841 0.56962 0.81666 0.0
N3440 N 0.31586 0.58768 0.8174 0.0
N3441 N 0.30583 0.56317 0.80485 0.0
C3442 C 0.29891 0.57587 0.80085 0.0
C3443 C 0.30438 0.58924 0.80767 0.0
C3444 C 0.421 0.30651 0.79353 0.0
C3445 C 0.41303 0.29836 0.80438 0.0
C3446 C 0.4338 0.30076 0.78674 0.0
C3447 C 0.4392 0.28659 0.79046 0.0
H3448 H 0.41754 0.31758 0.79053 0.0
H3449 H 0.43972 0.30763 0.77875 0.0
S3450 S 0.42121 0.25993 0.81662 0.0
N3451 N 0.41077 0.27478 0.81744 0.0
N3452 N 0.43458 0.26404 0.80472 0.0
C3453 C 0.43099 0.27813 0.80087 0.0
C3454 C 0.41801 0.28398 0.80779 0.0
C3455 C 0.30609 0.42749 0.21127 0.0
C3456 C 0.30233 0.41326 0.21682 0.0
C3457 C 0.2996 0.44041 0.21696 0.0
C3458 C 0.28909 0.43974 0.22853 0.0
H3459 H 0.31439 0.42871 0.20267 0.0
H3460 H 0.30311 0.45106 0.21247 0.0
S3461 S 0.27402 0.40523 0.24582 0.0
N3462 N 0.28634 0.39934 0.23377 0.0
N3463 N 0.27439 0.42349 0.24449 0.0
C3464 C 0.28493 0.42558 0.23389 0.0
C3465 C 0.29146 0.41242 0.22806 0.0
C3466 C 0.59702 0.30263 0.22594 0.0
C3467 C 0.60125 0.29786 0.21172 0.0
C3468 C 0.58401 0.29707 0.23286 0.0
C3469 C 0.57464 0.28651 0.22587 0.0
H3470 H 0.60398 0.3105 0.2319 0.0
H3471 H 0.58142 0.30088 0.24391 0.0
S3472 S 0.57969 0.27181 0.18785 0.0
N3473 N 0.59427 0.28284 0.19043 0.0
N3474 N 0.56998 0.27252 0.20332 0.0
C3475 C 0.57853 0.282 0.21147 0.0
C3476 C 0.59176 0.28764 0.20445 0.0
C3477 C 0.42668 0.71362 0.20723 0.0
C3478 C 0.41232 0.71668 0.2125 0.0
C3479 C 0.43953 0.71949 0.21413 0.0
C3480 C 0.43866 0.72868 0.22667 0.0
H3481 H 0.42803 0.7066 0.19764 0.0
H3482 H 0.45027 0.71674 0.20962 0.0
S3483 S 0.40381 0.74081 0.24449 0.0
N3484 N 0.39807 0.73 0.23083 0.0
N3485 N 0.42215 0.74093 0.2438 0.0
C3486 C 0.42439 0.7318 0.23211 0.0
C3487 C 0.41128 0.72584 0.22506 0.0
loop_
_geom_bond_atom_site_label_1
_geom_bond_atom_site_label_2
_geom_bond_distance
_geom_bond_site_symmetry_2
_ccdc_geom_bond_type
C0 C1 1.264 . S
C0 C5 1.479 . S
C0 C10 1.465 . S
C1 C0 1.264 . S
C1 C3 1.339 . S
C1 H28 0.931 . S
C2 C3 1.395 . S
C2 C4 1.320 . S
C3 C1 1.339 . S
C3 C2 1.395 . S
C3 H29 0.929 . S
C4 C2 1.320 . S
C4 C5 1.405 . S
C4 H30 0.930 . S
C5 C0 1.479 . S
C5 C4 1.405 . S
C5 H31 0.931 . S
U6 O7 2.454 . S
U6 O8 2.458 . S
U6 C9 2.984 . S
U6 C10 2.847 . S
U6 C23 2.882 . S
U6 O24 2.441 . S
U6 O25 2.420 . S
U6 O26 2.455 . S
U6 O27 2.449 . S
O7 U6 2.454 . S
O7 C9 1.353 . S
O8 U6 2.458 . S
O8 C9 1.286 . S
C9 U6 2.984 . S
C9 O7 1.353 . S
C9 O8 1.286 . S
C9 C11 1.363 . S
C10 C0 1.465 . S
C10 U6 2.847 . S
C10 O24 1.249 . S
C10 O25 1.202 . S
C11 C9 1.363 . S
C11 C13 1.408 . S
C11 C16 1.342 . S
C12 C13 1.310 . S
C12 C15 1.461 . S
C12 H32 0.932 . S
C13 C11 1.408 . S
C13 C12 1.310 . S
C13 H33 0.930 . S
C14 C15 1.474 . S
C14 C16 1.285 . S
C14 H34 0.929 . S
C15 C12 1.461 . S
C15 C14 1.474 . S
C16 C11 1.342 . S
C16 C14 1.285 . S
C16 H35 0.930 . S
C17 C20 1.424 . S
C17 C22 1.245 . S
C17 C23 1.428 . S
C18 C21 1.260 . S
C18 C22 1.477 . S
C18 H36 0.932 . S
C19 C20 1.384 . S
C19 C21 1.479 . S
C19 H37 0.929 . S
C20 C17 1.424 . S
C20 C19 1.384 . S
C20 H38 0.928 . S
C21 C18 1.260 . S
C21 C19 1.479 . S
C22 C17 1.245 . S
C22 C18 1.477 . S
C22 H39 0.932 . S
C23 U6 2.882 . S
C23 C17 1.428 . S
C23 O26 1.301 . S
C23 O27 1.282 . S
O24 U6 2.441 . S
O24 C10 1.249 . S
O25 U6 2.420 . S
O25 C10 1.202 . S
O26 U6 2.455 . S
O26 C23 1.301 . S
O27 U6 2.449 . S
O27 C23 1.282 . S
H28 C1 0.931 . S
H29 C3 0.929 . S
H30 C4 0.930 . S
H31 C5 0.931 . S
H32 C12 0.932 . S
H33 C13 0.930 . S
H34 C14 0.929 . S
H35 C16 0.930 . S
H36 C18 0.932 . S
H37 C19 0.929 . S
H38 C20 0.928 . S
H39 C22 0.932 . S
C40 C41 1.264 . S
C40 C45 1.479 . S
C40 C50 1.465 . S
C41 C40 1.264 . S
C41 C43 1.339 . S
C41 H68 0.931 . S
C42 C43 1.395 . S
C42 C44 1.320 . S
C43 C41 1.339 . S
C43 C42 1.395 . S
C43 H69 0.929 . S
C44 C42 1.320 . S
C44 C45 1.405 . S
C44 H70 0.930 . S
C45 C40 1.479 . S
C45 C44 1.405 . S
C45 H71 0.931 . S
U46 O47 2.454 . S
U46 O48 2.458 . S
U46 C49 2.984 . S
U46 C50 2.847 . S
U46 C63 2.882 . S
U46 O64 2.441 . S
U46 O65 2.420 . S
U46 O66 2.455 . S
U46 O67 2.449 . S
O47 U46 2.454 . S
O47 C49 1.353 . S
O48 U46 2.458 . S
O48 C49 1.286 . S
C49 U46 2.984 . S
C49 O47 1.353 . S
C49 O48 1.286 . S
C49 C51 1.363 . S
C50 C40 1.465 . S
C50 U46 2.847 . S
C50 O64 1.249 . S
C50 O65 1.202 . S
C51 C49 1.363 . S
C51 C53 1.408 . S
C51 C56 1.342 . S
C52 C53 1.310 . S
C52 C55 1.461 . S
C52 H72 0.932 . S
C53 C51 1.408 . S
C53 C52 1.310 . S
C53 H73 0.930 . S
C54 C55 1.474 . S
C54 C56 1.285 . S
C54 H74 0.929 . S
C55 C52 1.461 . S
C55 C54 1.474 . S
C56 C51 1.342 . S
C56 C54 1.285 . S
C56 H75 0.930 . S
C57 C60 1.424 . S
C57 C62 1.245 . S
C57 C63 1.428 . S
C58 C61 1.260 . S
C58 C62 1.477 . S
C58 H76 0.932 . S
C59 C60 1.384 . S
C59 C61 1.479 . S
C59 H77 0.929 . S
C60 C57 1.424 . S
C60 C59 1.384 . S
C60 H78 0.928 . S
C61 C58 1.260 . S
C61 C59 1.479 . S
C62 C57 1.245 . S
C62 C58 1.477 . S
C62 H79 0.932 . S
C63 U46 2.882 . S
C63 C57 1.428 . S
C63 O66 1.301 . S
C63 O67 1.282 . S
O64 U46 2.441 . S
O64 C50 1.249 . S
O65 U46 2.420 . S
O65 C50 1.202 . S
O66 U46 2.455 . S
O66 C63 1.301 . S
O67 U46 2.449 . S
O67 C63 1.282 . S
H68 C41 0.931 . S
H69 C43 0.929 . S
H70 C44 0.930 . S
H71 C45 0.931 . S
H72 C52 0.932 . S
H73 C53 0.930 . S
H74 C54 0.929 . S
H75 C56 0.930 . S
H76 C58 0.932 . S
H77 C59 0.929 . S
H78 C60 0.928 . S
H79 C62 0.932 . S
C80 C81 1.264 . S
C80 C85 1.479 . S
C80 C90 1.465 . S
C81 C80 1.264 . S
C81 C83 1.339 . S
C81 H108 0.931 . S
C82 C83 1.395 . S
C82 C84 1.320 . S
C83 C81 1.339 . S
C83 C82 1.395 . S
C83 H109 0.929 . S
C84 C82 1.320 . S
C84 C85 1.405 . S
C84 H110 0.930 . S
C85 C80 1.479 . S
C85 C84 1.405 . S
C85 H111 0.931 . S
U86 O87 2.454 . S
U86 O88 2.458 . S
U86 C89 2.984 . S
U86 C90 2.847 . S
U86 C103 2.882 . S
U86 O104 2.441 . S
U86 O105 2.420 . S
U86 O106 2.455 . S
U86 O107 2.449 . S
O87 U86 2.454 . S
O87 C89 1.353 . S
O88 U86 2.458 . S
O88 C89 1.286 . S
C89 U86 2.984 . S
C89 O87 1.353 . S
C89 O88 1.286 . S
C89 C91 1.363 . S
C90 C80 1.465 . S
C90 U86 2.847 . S
C90 O104 1.249 . S
C90 O105 1.202 . S
C91 C89 1.363 . S
C91 C93 1.408 . S
C91 C96 1.342 . S
C92 C93 1.310 . S
C92 C95 1.461 . S
C92 H112 0.932 . S
C93 C91 1.408 . S
C93 C92 1.310 . S
C93 H113 0.930 . S
C94 C95 1.474 . S
C94 C96 1.285 . S
C94 H114 0.929 . S
C95 C92 1.461 . S
C95 C94 1.474 . S
C96 C91 1.342 . S
C96 C94 1.285 . S
C96 H115 0.930 . S
C97 C100 1.424 . S
C97 C102 1.245 . S
C97 C103 1.428 . S
C98 C101 1.260 . S
C98 C102 1.477 . S
C98 H116 0.932 . S
C99 C100 1.384 . S
C99 C101 1.479 . S
C99 H117 0.929 . S
C100 C97 1.424 . S
C100 C99 1.384 . S
C100 H118 0.928 . S
C101 C98 1.260 . S
C101 C99 1.479 . S
C102 C97 1.245 . S
C102 C98 1.477 . S
C102 H119 0.932 . S
C103 U86 2.882 . S
C103 C97 1.428 . S
C103 O106 1.301 . S
C103 O107 1.282 . S
O104 U86 2.441 . S
O104 C90 1.249 . S
O105 U86 2.420 . S
O105 C90 1.202 . S
O106 U86 2.455 . S
O106 C103 1.301 . S
O107 U86 2.449 . S
O107 C103 1.282 . S
H108 C81 0.931 . S
H109 C83 0.929 . S
H110 C84 0.930 . S
H111 C85 0.931 . S
H112 C92 0.932 . S
H113 C93 0.930 . S
H114 C94 0.929 . S
H115 C96 0.930 . S
H116 C98 0.932 . S
H117 C99 0.929 . S
H118 C100 0.928 . S
H119 C102 0.932 . S
C120 C121 1.264 . S
C120 C125 1.479 . S
C120 C130 1.465 . S
C121 C120 1.264 . S
C121 C123 1.339 . S
C121 H148 0.931 . S
C122 C123 1.395 . S
C122 C124 1.320 . S
C123 C121 1.339 . S
C123 C122 1.395 . S
C123 H149 0.929 . S
C124 C122 1.320 . S
C124 C125 1.405 . S
C124 H150 0.930 . S
C125 C120 1.479 . S
C125 C124 1.405 . S
C125 H151 0.931 . S
U126 O127 2.454 . S
U126 O128 2.458 . S
U126 C129 2.984 . S
U126 C130 2.847 . S
U126 C143 2.882 . S
U126 O144 2.441 . S
U126 O145 2.420 . S
U126 O146 2.455 . S
U126 O147 2.449 . S
O127 U126 2.454 . S
O127 C129 1.353 . S
O128 U126 2.458 . S
O128 C129 1.286 . S
C129 U126 2.984 . S
C129 O127 1.353 . S
C129 O128 1.286 . S
C129 C131 1.363 . S
C130 C120 1.465 . S
C130 U126 2.847 . S
C130 O144 1.249 . S
C130 O145 1.202 . S
C131 C129 1.363 . S
C131 C133 1.408 . S
C131 C136 1.342 . S
C132 C133 1.310 . S
C132 C135 1.461 . S
C132 H152 0.932 . S
C133 C131 1.408 . S
C133 C132 1.310 . S
C133 H153 0.930 . S
C134 C135 1.474 . S
C134 C136 1.285 . S
C134 H154 0.929 . S
C135 C132 1.461 . S
C135 C134 1.474 . S
C136 C131 1.342 . S
C136 C134 1.285 . S
C136 H155 0.930 . S
C137 C140 1.424 . S
C137 C142 1.245 . S
C137 C143 1.428 . S
C138 C141 1.260 . S
C138 C142 1.477 . S
C138 H156 0.932 . S
C139 C140 1.384 . S
C139 C141 1.479 . S
C139 H157 0.929 . S
C140 C137 1.424 . S
C140 C139 1.384 . S
C140 H158 0.928 . S
C141 C138 1.260 . S
C141 C139 1.479 . S
C142 C137 1.245 . S
C142 C138 1.477 . S
C142 H159 0.932 . S
C143 U126 2.882 . S
C143 C137 1.428 . S
C143 O146 1.301 . S
C143 O147 1.282 . S
O144 U126 2.441 . S
O144 C130 1.249 . S
O145 U126 2.420 . S
O145 C130 1.202 . S
O146 U126 2.455 . S
O146 C143 1.301 . S
O147 U126 2.449 . S
O147 C143 1.282 . S
H148 C121 0.931 . S
H149 C123 0.929 . S
H150 C124 0.930 . S
H151 C125 0.931 . S
H152 C132 0.932 . S
H153 C133 0.930 . S
H154 C134 0.929 . S
H155 C136 0.930 . S
H156 C138 0.932 . S
H157 C139 0.929 . S
H158 C140 0.928 . S
H159 C142 0.932 . S
C160 C161 1.264 . S
C160 C165 1.479 . S
C160 C170 1.465 . S
C161 C160 1.264 . S
C161 C163 1.339 . S
C161 H188 0.931 . S
C162 C163 1.395 . S
C162 C164 1.320 . S
C163 C161 1.339 . S
C163 C162 1.395 . S
C163 H189 0.929 . S
C164 C162 1.320 . S
C164 C165 1.405 . S
C164 H190 0.930 . S
C165 C160 1.479 . S
C165 C164 1.405 . S
C165 H191 0.931 . S
U166 O167 2.454 . S
U166 O168 2.458 . S
U166 C169 2.984 . S
U166 C170 2.847 . S
U166 C183 2.882 . S
U166 O184 2.441 . S
U166 O185 2.420 . S
U166 O186 2.455 . S
U166 O187 2.449 . S
O167 U166 2.454 . S
O167 C169 1.353 . S
O168 U166 2.458 . S
O168 C169 1.286 . S
C169 U166 2.984 . S
C169 O167 1.353 . S
C169 O168 1.286 . S
C169 C171 1.363 . S
C170 C160 1.465 . S
C170 U166 2.847 . S
C170 O184 1.249 . S
C170 O185 1.202 . S
C171 C169 1.363 . S
C171 C173 1.408 . S
C171 C176 1.342 . S
C172 C173 1.310 . S
C172 C175 1.461 . S
C172 H192 0.932 . S
C173 C171 1.408 . S
C173 C172 1.310 . S
C173 H193 0.930 . S
C174 C175 1.474 . S
C174 C176 1.285 . S
C174 H194 0.929 . S
C175 C172 1.461 . S
C175 C174 1.474 . S
C176 C171 1.342 . S
C176 C174 1.285 . S
C176 H195 0.930 . S
C177 C180 1.424 . S
C177 C182 1.245 . S
C177 C183 1.428 . S
C178 C181 1.260 . S
C178 C182 1.477 . S
C178 H196 0.932 . S
C179 C180 1.384 . S
C179 C181 1.479 . S
C179 H197 0.929 . S
C180 C177 1.424 . S
C180 C179 1.384 . S
C180 H198 0.928 . S
C181 C178 1.260 . S
C181 C179 1.479 . S
C182 C177 1.245 . S
C182 C178 1.477 . S
C182 H199 0.932 . S
C183 U166 2.882 . S
C183 C177 1.428 . S
C183 O186 1.301 . S
C183 O187 1.282 . S
O184 U166 2.441 . S
O184 C170 1.249 . S
O185 U166 2.420 . S
O185 C170 1.202 . S
O186 U166 2.455 . S
O186 C183 1.301 . S
O187 U166 2.449 . S
O187 C183 1.282 . S
H188 C161 0.931 . S
H189 C163 0.929 . S
H190 C164 0.930 . S
H191 C165 0.931 . S
H192 C172 0.932 . S
H193 C173 0.930 . S
H194 C174 0.929 . S
H195 C176 0.930 . S
H196 C178 0.932 . S
H197 C179 0.929 . S
H198 C180 0.928 . S
H199 C182 0.932 . S
C200 C201 1.264 . S
C200 C205 1.479 . S
C200 C210 1.465 . S
C201 C200 1.264 . S
C201 C203 1.339 . S
C201 H228 0.931 . S
C202 C203 1.395 . S
C202 C204 1.320 . S
C203 C201 1.339 . S
C203 C202 1.395 . S
C203 H229 0.929 . S
C204 C202 1.320 . S
C204 C205 1.405 . S
C204 H230 0.930 . S
C205 C200 1.479 . S
C205 C204 1.405 . S
C205 H231 0.931 . S
U206 O207 2.454 . S
U206 O208 2.458 . S
U206 C209 2.984 . S
U206 C210 2.847 . S
U206 C223 2.882 . S
U206 O224 2.441 . S
U206 O225 2.420 . S
U206 O226 2.455 . S
U206 O227 2.449 . S
O207 U206 2.454 . S
O207 C209 1.353 . S
O208 U206 2.458 . S
O208 C209 1.286 . S
C209 U206 2.984 . S
C209 O207 1.353 . S
C209 O208 1.286 . S
C209 C211 1.363 . S
C210 C200 1.465 . S
C210 U206 2.847 . S
C210 O224 1.249 . S
C210 O225 1.202 . S
C211 C209 1.363 . S
C211 C213 1.408 . S
C211 C216 1.342 . S
C212 C213 1.310 . S
C212 C215 1.461 . S
C212 H232 0.932 . S
C213 C211 1.408 . S
C213 C212 1.310 . S
C213 H233 0.930 . S
C214 C215 1.474 . S
C214 C216 1.285 . S
C214 H234 0.929 . S
C215 C212 1.461 . S
C215 C214 1.474 . S
C216 C211 1.342 . S
C216 C214 1.285 . S
C216 H235 0.930 . S
C217 C220 1.424 . S
C217 C222 1.245 . S
C217 C223 1.428 . S
C218 C221 1.260 . S
C218 C222 1.477 . S
C218 H236 0.932 . S
C219 C220 1.384 . S
C219 C221 1.479 . S
C219 H237 0.929 . S
C220 C217 1.424 . S
C220 C219 1.384 . S
C220 H238 0.928 . S
C221 C218 1.260 . S
C221 C219 1.479 . S
C222 C217 1.245 . S
C222 C218 1.477 . S
C222 H239 0.932 . S
C223 U206 2.882 . S
C223 C217 1.428 . S
C223 O226 1.301 . S
C223 O227 1.282 . S
O224 U206 2.441 . S
O224 C210 1.249 . S
O225 U206 2.420 . S
O225 C210 1.202 . S
O226 U206 2.455 . S
O226 C223 1.301 . S
O227 U206 2.449 . S
O227 C223 1.282 . S
H228 C201 0.931 . S
H229 C203 0.929 . S
H230 C204 0.930 . S
H231 C205 0.931 . S
H232 C212 0.932 . S
H233 C213 0.930 . S
H234 C214 0.929 . S
H235 C216 0.930 . S
H236 C218 0.932 . S
H237 C219 0.929 . S
H238 C220 0.928 . S
H239 C222 0.932 . S
C240 C241 1.264 . S
C240 C245 1.479 . S
C240 C250 1.465 . S
C241 C240 1.264 . S
C241 C243 1.339 . S
C241 H268 0.931 . S
C242 C243 1.395 . S
C242 C244 1.320 . S
C243 C241 1.339 . S
C243 C242 1.395 . S
C243 H269 0.929 . S
C244 C242 1.320 . S
C244 C245 1.405 . S
C244 H270 0.930 . S
C245 C240 1.479 . S
C245 C244 1.405 . S
C245 H271 0.931 . S
U246 O247 2.454 . S
U246 O248 2.458 . S
U246 C249 2.984 . S
U246 C250 2.847 . S
U246 C263 2.882 . S
U246 O264 2.441 . S
U246 O265 2.420 . S
U246 O266 2.455 . S
U246 O267 2.449 . S
O247 U246 2.454 . S
O247 C249 1.353 . S
O248 U246 2.458 . S
O248 C249 1.286 . S
C249 U246 2.984 . S
C249 O247 1.353 . S
C249 O248 1.286 . S
C249 C251 1.363 . S
C250 C240 1.465 . S
C250 U246 2.847 . S
C250 O264 1.249 . S
C250 O265 1.202 . S
C251 C249 1.363 . S
C251 C253 1.408 . S
C251 C256 1.342 . S
C252 C253 1.310 . S
C252 C255 1.461 . S
C252 H272 0.932 . S
C253 C251 1.408 . S
C253 C252 1.310 . S
C253 H273 0.930 . S
C254 C255 1.474 . S
C254 C256 1.285 . S
C254 H274 0.929 . S
C255 C252 1.461 . S
C255 C254 1.474 . S
C256 C251 1.342 . S
C256 C254 1.285 . S
C256 H275 0.930 . S
C257 C260 1.424 . S
C257 C262 1.245 . S
C257 C263 1.428 . S
C258 C261 1.260 . S
C258 C262 1.477 . S
C258 H276 0.932 . S
C259 C260 1.384 . S
C259 C261 1.479 . S
C259 H277 0.929 . S
C260 C257 1.424 . S
C260 C259 1.384 . S
C260 H278 0.928 . S
C261 C258 1.260 . S
C261 C259 1.479 . S
C262 C257 1.245 . S
C262 C258 1.477 . S
C262 H279 0.932 . S
C263 U246 2.882 . S
C263 C257 1.428 . S
C263 O266 1.301 . S
C263 O267 1.282 . S
O264 U246 2.441 . S
O264 C250 1.249 . S
O265 U246 2.420 . S
O265 C250 1.202 . S
O266 U246 2.455 . S
O266 C263 1.301 . S
O267 U246 2.449 . S
O267 C263 1.282 . S
H268 C241 0.931 . S
H269 C243 0.929 . S
H270 C244 0.930 . S
H271 C245 0.931 . S
H272 C252 0.932 . S
H273 C253 0.930 . S
H274 C254 0.929 . S
H275 C256 0.930 . S
H276 C258 0.932 . S
H277 C259 0.929 . S
H278 C260 0.928 . S
H279 C262 0.932 . S
C280 C281 1.264 . S
C280 C285 1.479 . S
C280 C290 1.465 . S
C281 C280 1.264 . S
C281 C283 1.339 . S
C281 H308 0.931 . S
C282 C283 1.395 . S
C282 C284 1.320 . S
C283 C281 1.339 . S
C283 C282 1.395 . S
C283 H309 0.929 . S
C284 C282 1.320 . S
C284 C285 1.405 . S
C284 H310 0.930 . S
C285 C280 1.479 . S
C285 C284 1.405 . S
C285 H311 0.931 . S
U286 O287 2.454 . S
U286 O288 2.458 . S
U286 C289 2.984 . S
U286 C290 2.847 . S
U286 C303 2.882 . S
U286 O304 2.441 . S
U286 O305 2.420 . S
U286 O306 2.455 . S
U286 O307 2.449 . S
O287 U286 2.454 . S
O287 C289 1.353 . S
O288 U286 2.458 . S
O288 C289 1.286 . S
C289 U286 2.984 . S
C289 O287 1.353 . S
C289 O288 1.286 . S
C289 C291 1.363 . S
C290 C280 1.465 . S
C290 U286 2.847 . S
C290 O304 1.249 . S
C290 O305 1.202 . S
C291 C289 1.363 . S
C291 C293 1.408 . S
C291 C296 1.342 . S
C292 C293 1.310 . S
C292 C295 1.461 . S
C292 H312 0.932 . S
C293 C291 1.408 . S
C293 C292 1.310 . S
C293 H313 0.930 . S
C294 C295 1.474 . S
C294 C296 1.285 . S
C294 H314 0.929 . S
C295 C292 1.461 . S
C295 C294 1.474 . S
C296 C291 1.342 . S
C296 C294 1.285 . S
C296 H315 0.930 . S
C297 C300 1.424 . S
C297 C302 1.245 . S
C297 C303 1.428 . S
C298 C301 1.260 . S
C298 C302 1.477 . S
C298 H316 0.932 . S
C299 C300 1.384 . S
C299 C301 1.479 . S
C299 H317 0.929 . S
C300 C297 1.424 . S
C300 C299 1.384 . S
C300 H318 0.928 . S
C301 C298 1.260 . S
C301 C299 1.479 . S
C302 C297 1.245 . S
C302 C298 1.477 . S
C302 H319 0.932 . S
C303 U286 2.882 . S
C303 C297 1.428 . S
C303 O306 1.301 . S
C303 O307 1.282 . S
O304 U286 2.441 . S
O304 C290 1.249 . S
O305 U286 2.420 . S
O305 C290 1.202 . S
O306 U286 2.455 . S
O306 C303 1.301 . S
O307 U286 2.449 . S
O307 C303 1.282 . S
H308 C281 0.931 . S
H309 C283 0.929 . S
H310 C284 0.930 . S
H311 C285 0.931 . S
H312 C292 0.932 . S
H313 C293 0.930 . S
H314 C294 0.929 . S
H315 C296 0.930 . S
H316 C298 0.932 . S
H317 C299 0.929 . S
H318 C300 0.928 . S
H319 C302 0.932 . S
C320 C321 1.264 . S
C320 C325 1.479 . S
C320 C330 1.465 . S
C321 C320 1.264 . S
C321 C323 1.339 . S
C321 H348 0.931 . S
C322 C323 1.395 . S
C322 C324 1.320 . S
C323 C321 1.339 . S
C323 C322 1.395 . S
C323 H349 0.929 . S
C324 C322 1.320 . S
C324 C325 1.405 . S
C324 H350 0.930 . S
C325 C320 1.479 . S
C325 C324 1.405 . S
C325 H351 0.931 . S
U326 O327 2.454 . S
U326 O328 2.458 . S
U326 C329 2.984 . S
U326 C330 2.847 . S
U326 C343 2.882 . S
U326 O344 2.441 . S
U326 O345 2.420 . S
U326 O346 2.455 . S
U326 O347 2.449 . S
O327 U326 2.454 . S
O327 C329 1.353 . S
O328 U326 2.458 . S
O328 C329 1.286 . S
C329 U326 2.984 . S
C329 O327 1.353 . S
C329 O328 1.286 . S
C329 C331 1.363 . S
C330 C320 1.465 . S
C330 U326 2.847 . S
C330 O344 1.249 . S
C330 O345 1.202 . S
C331 C329 1.363 . S
C331 C333 1.408 . S
C331 C336 1.342 . S
C332 C333 1.310 . S
C332 C335 1.461 . S
C332 H352 0.932 . S
C333 C331 1.408 . S
C333 C332 1.310 . S
C333 H353 0.930 . S
C334 C335 1.474 . S
C334 C336 1.285 . S
C334 H354 0.929 . S
C335 C332 1.461 . S
C335 C334 1.474 . S
C336 C331 1.342 . S
C336 C334 1.285 . S
C336 H355 0.930 . S
C337 C340 1.424 . S
C337 C342 1.245 . S
C337 C343 1.428 . S
C338 C341 1.260 . S
C338 C342 1.477 . S
C338 H356 0.932 . S
C339 C340 1.384 . S
C339 C341 1.479 . S
C339 H357 0.929 . S
C340 C337 1.424 . S
C340 C339 1.384 . S
C340 H358 0.928 . S
C341 C338 1.260 . S
C341 C339 1.479 . S
C342 C337 1.245 . S
C342 C338 1.477 . S
C342 H359 0.932 . S
C343 U326 2.882 . S
C343 C337 1.428 . S
C343 O346 1.301 . S
C343 O347 1.282 . S
O344 U326 2.441 . S
O344 C330 1.249 . S
O345 U326 2.420 . S
O345 C330 1.202 . S
O346 U326 2.455 . S
O346 C343 1.301 . S
O347 U326 2.449 . S
O347 C343 1.282 . S
H348 C321 0.931 . S
H349 C323 0.929 . S
H350 C324 0.930 . S
H351 C325 0.931 . S
H352 C332 0.932 . S
H353 C333 0.930 . S
H354 C334 0.929 . S
H355 C336 0.930 . S
H356 C338 0.932 . S
H357 C339 0.929 . S
H358 C340 0.928 . S
H359 C342 0.932 . S
C360 C361 1.264 . S
C360 C365 1.479 . S
C360 C370 1.465 . S
C361 C360 1.264 . S
C361 C363 1.339 . S
C361 H388 0.931 . S
C362 C363 1.395 . S
C362 C364 1.320 . S
C363 C361 1.339 . S
C363 C362 1.395 . S
C363 H389 0.929 . S
C364 C362 1.320 . S
C364 C365 1.405 . S
C364 H390 0.930 . S
C365 C360 1.479 . S
C365 C364 1.405 . S
C365 H391 0.931 . S
U366 O367 2.454 . S
U366 O368 2.458 . S
U366 C369 2.984 . S
U366 C370 2.847 . S
U366 C383 2.882 . S
U366 O384 2.441 . S
U366 O385 2.420 . S
U366 O386 2.455 . S
U366 O387 2.449 . S
O367 U366 2.454 . S
O367 C369 1.353 . S
O368 U366 2.458 . S
O368 C369 1.286 . S
C369 U366 2.984 . S
C369 O367 1.353 . S
C369 O368 1.286 . S
C369 C371 1.363 . S
C370 C360 1.465 . S
C370 U366 2.847 . S
C370 O384 1.249 . S
C370 O385 1.202 . S
C371 C369 1.363 . S
C371 C373 1.408 . S
C371 C376 1.342 . S
C372 C373 1.310 . S
C372 C375 1.461 . S
C372 H392 0.932 . S
C373 C371 1.408 . S
C373 C372 1.310 . S
C373 H393 0.930 . S
C374 C375 1.474 . S
C374 C376 1.285 . S
C374 H394 0.929 . S
C375 C372 1.461 . S
C375 C374 1.474 . S
C376 C371 1.342 . S
C376 C374 1.285 . S
C376 H395 0.930 . S
C377 C380 1.424 . S
C377 C382 1.245 . S
C377 C383 1.428 . S
C378 C381 1.260 . S
C378 C382 1.477 . S
C378 H396 0.932 . S
C379 C380 1.384 . S
C379 C381 1.479 . S
C379 H397 0.929 . S
C380 C377 1.424 . S
C380 C379 1.384 . S
C380 H398 0.928 . S
C381 C378 1.260 . S
C381 C379 1.479 . S
C382 C377 1.245 . S
C382 C378 1.477 . S
C382 H399 0.932 . S
C383 U366 2.882 . S
C383 C377 1.428 . S
C383 O386 1.301 . S
C383 O387 1.282 . S
O384 U366 2.441 . S
O384 C370 1.249 . S
O385 U366 2.420 . S
O385 C370 1.202 . S
O386 U366 2.455 . S
O386 C383 1.301 . S
O387 U366 2.449 . S
O387 C383 1.282 . S
H388 C361 0.931 . S
H389 C363 0.929 . S
H390 C364 0.930 . S
H391 C365 0.931 . S
H392 C372 0.932 . S
H393 C373 0.930 . S
H394 C374 0.929 . S
H395 C376 0.930 . S
H396 C378 0.932 . S
H397 C379 0.929 . S
H398 C380 0.928 . S
H399 C382 0.932 . S
C400 C401 1.264 . S
C400 C405 1.479 . S
C400 C410 1.465 . S
C401 C400 1.264 . S
C401 C403 1.339 . S
C401 H428 0.931 . S
C402 C403 1.395 . S
C402 C404 1.320 . S
C403 C401 1.339 . S
C403 C402 1.395 . S
C403 H429 0.929 . S
C404 C402 1.320 . S
C404 C405 1.405 . S
C404 H430 0.930 . S
C405 C400 1.479 . S
C405 C404 1.405 . S
C405 H431 0.931 . S
U406 O407 2.454 . S
U406 O408 2.458 . S
U406 C409 2.984 . S
U406 C410 2.847 . S
U406 C423 2.882 . S
U406 O424 2.441 . S
U406 O425 2.420 . S
U406 O426 2.455 . S
U406 O427 2.449 . S
O407 U406 2.454 . S
O407 C409 1.353 . S
O408 U406 2.458 . S
O408 C409 1.286 . S
C409 U406 2.984 . S
C409 O407 1.353 . S
C409 O408 1.286 . S
C409 C411 1.363 . S
C410 C400 1.465 . S
C410 U406 2.847 . S
C410 O424 1.249 . S
C410 O425 1.202 . S
C411 C409 1.363 . S
C411 C413 1.408 . S
C411 C416 1.342 . S
C412 C413 1.310 . S
C412 C415 1.461 . S
C412 H432 0.932 . S
C413 C411 1.408 . S
C413 C412 1.310 . S
C413 H433 0.930 . S
C414 C415 1.474 . S
C414 C416 1.285 . S
C414 H434 0.929 . S
C415 C412 1.461 . S
C415 C414 1.474 . S
C416 C411 1.342 . S
C416 C414 1.285 . S
C416 H435 0.930 . S
C417 C420 1.424 . S
C417 C422 1.245 . S
C417 C423 1.428 . S
C418 C421 1.260 . S
C418 C422 1.477 . S
C418 H436 0.932 . S
C419 C420 1.384 . S
C419 C421 1.479 . S
C419 H437 0.929 . S
C420 C417 1.424 . S
C420 C419 1.384 . S
C420 H438 0.928 . S
C421 C418 1.260 . S
C421 C419 1.479 . S
C422 C417 1.245 . S
C422 C418 1.477 . S
C422 H439 0.932 . S
C423 U406 2.882 . S
C423 C417 1.428 . S
C423 O426 1.301 . S
C423 O427 1.282 . S
O424 U406 2.441 . S
O424 C410 1.249 . S
O425 U406 2.420 . S
O425 C410 1.202 . S
O426 U406 2.455 . S
O426 C423 1.301 . S
O427 U406 2.449 . S
O427 C423 1.282 . S
H428 C401 0.931 . S
H429 C403 0.929 . S
H430 C404 0.930 . S
H431 C405 0.931 . S
H432 C412 0.932 . S
H433 C413 0.930 . S
H434 C414 0.929 . S
H435 C416 0.930 . S
H436 C418 0.932 . S
H437 C419 0.929 . S
H438 C420 0.928 . S
H439 C422 0.932 . S
C440 C441 1.264 . S
C440 C445 1.479 . S
C440 C450 1.465 . S
C441 C440 1.264 . S
C441 C443 1.339 . S
C441 H468 0.931 . S
C442 C443 1.395 . S
C442 C444 1.320 . S
C443 C441 1.339 . S
C443 C442 1.395 . S
C443 H469 0.929 . S
C444 C442 1.320 . S
C444 C445 1.405 . S
C444 H470 0.930 . S
C445 C440 1.479 . S
C445 C444 1.405 . S
C445 H471 0.931 . S
U446 O447 2.454 . S
U446 O448 2.458 . S
U446 C449 2.984 . S
U446 C450 2.847 . S
U446 C463 2.882 . S
U446 O464 2.441 . S
U446 O465 2.420 . S
U446 O466 2.455 . S
U446 O467 2.449 . S
O447 U446 2.454 . S
O447 C449 1.353 . S
O448 U446 2.458 . S
O448 C449 1.286 . S
C449 U446 2.984 . S
C449 O447 1.353 . S
C449 O448 1.286 . S
C449 C451 1.363 . S
C450 C440 1.465 . S
C450 U446 2.847 . S
C450 O464 1.249 . S
C450 O465 1.202 . S
C451 C449 1.363 . S
C451 C453 1.408 . S
C451 C456 1.342 . S
C452 C453 1.310 . S
C452 C455 1.461 . S
C452 H472 0.932 . S
C453 C451 1.408 . S
C453 C452 1.310 . S
C453 H473 0.930 . S
C454 C455 1.474 . S
C454 C456 1.285 . S
C454 H474 0.929 . S
C455 C452 1.461 . S
C455 C454 1.474 . S
C456 C451 1.342 . S
C456 C454 1.285 . S
C456 H475 0.930 . S
C457 C460 1.424 . S
C457 C462 1.245 . S
C457 C463 1.428 . S
C458 C461 1.260 . S
C458 C462 1.477 . S
C458 H476 0.932 . S
C459 C460 1.384 . S
C459 C461 1.479 . S
C459 H477 0.929 . S
C460 C457 1.424 . S
C460 C459 1.384 . S
C460 H478 0.928 . S
C461 C458 1.260 . S
C461 C459 1.479 . S
C462 C457 1.245 . S
C462 C458 1.477 . S
C462 H479 0.932 . S
C463 U446 2.882 . S
C463 C457 1.428 . S
C463 O466 1.301 . S
C463 O467 1.282 . S
O464 U446 2.441 . S
O464 C450 1.249 . S
O465 U446 2.420 . S
O465 C450 1.202 . S
O466 U446 2.455 . S
O466 C463 1.301 . S
O467 U446 2.449 . S
O467 C463 1.282 . S
H468 C441 0.931 . S
H469 C443 0.929 . S
H470 C444 0.930 . S
H471 C445 0.931 . S
H472 C452 0.932 . S
H473 C453 0.930 . S
H474 C454 0.929 . S
H475 C456 0.930 . S
H476 C458 0.932 . S
H477 C459 0.929 . S
H478 C460 0.928 . S
H479 C462 0.932 . S
C480 C481 1.264 . S
C480 C485 1.479 . S
C480 C490 1.465 . S
C481 C480 1.264 . S
C481 C483 1.339 . S
C481 H508 0.931 . S
C482 C483 1.395 . S
C482 C484 1.320 . S
C483 C481 1.339 . S
C483 C482 1.395 . S
C483 H509 0.929 . S
C484 C482 1.320 . S
C484 C485 1.405 . S
C484 H510 0.930 . S
C485 C480 1.479 . S
C485 C484 1.405 . S
C485 H511 0.931 . S
U486 O487 2.454 . S
U486 O488 2.458 . S
U486 C489 2.984 . S
U486 C490 2.847 . S
U486 C503 2.882 . S
U486 O504 2.441 . S
U486 O505 2.420 . S
U486 O506 2.455 . S
U486 O507 2.449 . S
O487 U486 2.454 . S
O487 C489 1.353 . S
O488 U486 2.458 . S
O488 C489 1.286 . S
C489 U486 2.984 . S
C489 O487 1.353 . S
C489 O488 1.286 . S
C489 C491 1.363 . S
C490 C480 1.465 . S
C490 U486 2.847 . S
C490 O504 1.249 . S
C490 O505 1.202 . S
C491 C489 1.363 . S
C491 C493 1.408 . S
C491 C496 1.342 . S
C492 C493 1.310 . S
C492 C495 1.461 . S
C492 H512 0.932 . S
C493 C491 1.408 . S
C493 C492 1.310 . S
C493 H513 0.930 . S
C494 C495 1.474 . S
C494 C496 1.285 . S
C494 H514 0.929 . S
C495 C492 1.461 . S
C495 C494 1.474 . S
C496 C491 1.342 . S
C496 C494 1.285 . S
C496 H515 0.930 . S
C497 C500 1.424 . S
C497 C502 1.245 . S
C497 C503 1.428 . S
C498 C501 1.260 . S
C498 C502 1.477 . S
C498 H516 0.932 . S
C499 C500 1.384 . S
C499 C501 1.479 . S
C499 H517 0.929 . S
C500 C497 1.424 . S
C500 C499 1.384 . S
C500 H518 0.928 . S
C501 C498 1.260 . S
C501 C499 1.479 . S
C502 C497 1.245 . S
C502 C498 1.477 . S
C502 H519 0.932 . S
C503 U486 2.882 . S
C503 C497 1.428 . S
C503 O506 1.301 . S
C503 O507 1.282 . S
O504 U486 2.441 . S
O504 C490 1.249 . S
O505 U486 2.420 . S
O505 C490 1.202 . S
O506 U486 2.455 . S
O506 C503 1.301 . S
O507 U486 2.449 . S
O507 C503 1.282 . S
H508 C481 0.931 . S
H509 C483 0.929 . S
H510 C484 0.930 . S
H511 C485 0.931 . S
H512 C492 0.932 . S
H513 C493 0.930 . S
H514 C494 0.929 . S
H515 C496 0.930 . S
H516 C498 0.932 . S
H517 C499 0.929 . S
H518 C500 0.928 . S
H519 C502 0.932 . S
C520 C521 1.264 . S
C520 C525 1.479 . S
C520 C530 1.465 . S
C521 C520 1.264 . S
C521 C523 1.339 . S
C521 H548 0.931 . S
C522 C523 1.395 . S
C522 C524 1.320 . S
C523 C521 1.339 . S
C523 C522 1.395 . S
C523 H549 0.929 . S
C524 C522 1.320 . S
C524 C525 1.405 . S
C524 H550 0.930 . S
C525 C520 1.479 . S
C525 C524 1.405 . S
C525 H551 0.931 . S
U526 O527 2.454 . S
U526 O528 2.458 . S
U526 C529 2.984 . S
U526 C530 2.847 . S
U526 C543 2.882 . S
U526 O544 2.441 . S
U526 O545 2.420 . S
U526 O546 2.455 . S
U526 O547 2.449 . S
O527 U526 2.454 . S
O527 C529 1.353 . S
O528 U526 2.458 . S
O528 C529 1.286 . S
C529 U526 2.984 . S
C529 O527 1.353 . S
C529 O528 1.286 . S
C529 C531 1.363 . S
C530 C520 1.465 . S
C530 U526 2.847 . S
C530 O544 1.249 . S
C530 O545 1.202 . S
C531 C529 1.363 . S
C531 C533 1.408 . S
C531 C536 1.342 . S
C532 C533 1.310 . S
C532 C535 1.461 . S
C532 H552 0.932 . S
C533 C531 1.408 . S
C533 C532 1.310 . S
C533 H553 0.930 . S
C534 C535 1.474 . S
C534 C536 1.285 . S
C534 H554 0.929 . S
C535 C532 1.461 . S
C535 C534 1.474 . S
C536 C531 1.342 . S
C536 C534 1.285 . S
C536 H555 0.930 . S
C537 C540 1.424 . S
C537 C542 1.245 . S
C537 C543 1.428 . S
C538 C541 1.260 . S
C538 C542 1.477 . S
C538 H556 0.932 . S
C539 C540 1.384 . S
C539 C541 1.479 . S
C539 H557 0.929 . S
C540 C537 1.424 . S
C540 C539 1.384 . S
C540 H558 0.928 . S
C541 C538 1.260 . S
C541 C539 1.479 . S
C542 C537 1.245 . S
C542 C538 1.477 . S
C542 H559 0.932 . S
C543 U526 2.882 . S
C543 C537 1.428 . S
C543 O546 1.301 . S
C543 O547 1.282 . S
O544 U526 2.441 . S
O544 C530 1.249 . S
O545 U526 2.420 . S
O545 C530 1.202 . S
O546 U526 2.455 . S
O546 C543 1.301 . S
O547 U526 2.449 . S
O547 C543 1.282 . S
H548 C521 0.931 . S
H549 C523 0.929 . S
H550 C524 0.930 . S
H551 C525 0.931 . S
H552 C532 0.932 . S
H553 C533 0.930 . S
H554 C534 0.929 . S
H555 C536 0.930 . S
H556 C538 0.932 . S
H557 C539 0.929 . S
H558 C540 0.928 . S
H559 C542 0.932 . S
C560 C561 1.264 . S
C560 C565 1.479 . S
C560 C570 1.465 . S
C561 C560 1.264 . S
C561 C563 1.339 . S
C561 H588 0.931 . S
C562 C563 1.395 . S
C562 C564 1.320 . S
C563 C561 1.339 . S
C563 C562 1.395 . S
C563 H589 0.929 . S
C564 C562 1.320 . S
C564 C565 1.405 . S
C564 H590 0.930 . S
C565 C560 1.479 . S
C565 C564 1.405 . S
C565 H591 0.931 . S
U566 O567 2.454 . S
U566 O568 2.458 . S
U566 C569 2.984 . S
U566 C570 2.847 . S
U566 C583 2.882 . S
U566 O584 2.441 . S
U566 O585 2.420 . S
U566 O586 2.455 . S
U566 O587 2.449 . S
O567 U566 2.454 . S
O567 C569 1.353 . S
O568 U566 2.458 . S
O568 C569 1.286 . S
C569 U566 2.984 . S
C569 O567 1.353 . S
C569 O568 1.286 . S
C569 C571 1.363 . S
C570 C560 1.465 . S
C570 U566 2.847 . S
C570 O584 1.249 . S
C570 O585 1.202 . S
C571 C569 1.363 . S
C571 C573 1.408 . S
C571 C576 1.342 . S
C572 C573 1.310 . S
C572 C575 1.461 . S
C572 H592 0.932 . S
C573 C571 1.408 . S
C573 C572 1.310 . S
C573 H593 0.930 . S
C574 C575 1.474 . S
C574 C576 1.285 . S
C574 H594 0.929 . S
C575 C572 1.461 . S
C575 C574 1.474 . S
C576 C571 1.342 . S
C576 C574 1.285 . S
C576 H595 0.930 . S
C577 C580 1.424 . S
C577 C582 1.245 . S
C577 C583 1.428 . S
C578 C581 1.260 . S
C578 C582 1.477 . S
C578 H596 0.932 . S
C579 C580 1.384 . S
C579 C581 1.479 . S
C579 H597 0.929 . S
C580 C577 1.424 . S
C580 C579 1.384 . S
C580 H598 0.928 . S
C581 C578 1.260 . S
C581 C579 1.479 . S
C582 C577 1.245 . S
C582 C578 1.477 . S
C582 H599 0.932 . S
C583 U566 2.882 . S
C583 C577 1.428 . S
C583 O586 1.301 . S
C583 O587 1.282 . S
O584 U566 2.441 . S
O584 C570 1.249 . S
O585 U566 2.420 . S
O585 C570 1.202 . S
O586 U566 2.455 . S
O586 C583 1.301 . S
O587 U566 2.449 . S
O587 C583 1.282 . S
H588 C561 0.931 . S
H589 C563 0.929 . S
H590 C564 0.930 . S
H591 C565 0.931 . S
H592 C572 0.932 . S
H593 C573 0.930 . S
H594 C574 0.929 . S
H595 C576 0.930 . S
H596 C578 0.932 . S
H597 C579 0.929 . S
H598 C580 0.928 . S
H599 C582 0.932 . S
C600 C601 1.264 . S
C600 C605 1.479 . S
C600 C610 1.465 . S
C601 C600 1.264 . S
C601 C603 1.339 . S
C601 H628 0.931 . S
C602 C603 1.395 . S
C602 C604 1.320 . S
C603 C601 1.339 . S
C603 C602 1.395 . S
C603 H629 0.929 . S
C604 C602 1.320 . S
C604 C605 1.405 . S
C604 H630 0.930 . S
C605 C600 1.479 . S
C605 C604 1.405 . S
C605 H631 0.931 . S
U606 O607 2.454 . S
U606 O608 2.458 . S
U606 C609 2.984 . S
U606 C610 2.847 . S
U606 C623 2.882 . S
U606 O624 2.441 . S
U606 O625 2.420 . S
U606 O626 2.455 . S
U606 O627 2.449 . S
O607 U606 2.454 . S
O607 C609 1.353 . S
O608 U606 2.458 . S
O608 C609 1.286 . S
C609 U606 2.984 . S
C609 O607 1.353 . S
C609 O608 1.286 . S
C609 C611 1.363 . S
C610 C600 1.465 . S
C610 U606 2.847 . S
C610 O624 1.249 . S
C610 O625 1.202 . S
C611 C609 1.363 . S
C611 C613 1.408 . S
C611 C616 1.342 . S
C612 C613 1.310 . S
C612 C615 1.461 . S
C612 H632 0.932 . S
C613 C611 1.408 . S
C613 C612 1.310 . S
C613 H633 0.930 . S
C614 C615 1.474 . S
C614 C616 1.285 . S
C614 H634 0.929 . S
C615 C612 1.461 . S
C615 C614 1.474 . S
C616 C611 1.342 . S
C616 C614 1.285 . S
C616 H635 0.930 . S
C617 C620 1.424 . S
C617 C622 1.245 . S
C617 C623 1.428 . S
C618 C621 1.260 . S
C618 C622 1.477 . S
C618 H636 0.932 . S
C619 C620 1.384 . S
C619 C621 1.479 . S
C619 H637 0.929 . S
C620 C617 1.424 . S
C620 C619 1.384 . S
C620 H638 0.928 . S
C621 C618 1.260 . S
C621 C619 1.479 . S
C622 C617 1.245 . S
C622 C618 1.477 . S
C622 H639 0.932 . S
C623 U606 2.882 . S
C623 C617 1.428 . S
C623 O626 1.301 . S
C623 O627 1.282 . S
O624 U606 2.441 . S
O624 C610 1.249 . S
O625 U606 2.420 . S
O625 C610 1.202 . S
O626 U606 2.455 . S
O626 C623 1.301 . S
O627 U606 2.449 . S
O627 C623 1.282 . S
H628 C601 0.931 . S
H629 C603 0.929 . S
H630 C604 0.930 . S
H631 C605 0.931 . S
H632 C612 0.932 . S
H633 C613 0.930 . S
H634 C614 0.929 . S
H635 C616 0.930 . S
H636 C618 0.932 . S
H637 C619 0.929 . S
H638 C620 0.928 . S
H639 C622 0.932 . S
C640 C641 1.264 . S
C640 C645 1.479 . S
C640 C650 1.465 . S
C641 C640 1.264 . S
C641 C643 1.339 . S
C641 H668 0.931 . S
C642 C643 1.395 . S
C642 C644 1.320 . S
C643 C641 1.339 . S
C643 C642 1.395 . S
C643 H669 0.929 . S
C644 C642 1.320 . S
C644 C645 1.405 . S
C644 H670 0.930 . S
C645 C640 1.479 . S
C645 C644 1.405 . S
C645 H671 0.931 . S
U646 O647 2.454 . S
U646 O648 2.458 . S
U646 C649 2.984 . S
U646 C650 2.847 . S
U646 C663 2.882 . S
U646 O664 2.441 . S
U646 O665 2.420 . S
U646 O666 2.455 . S
U646 O667 2.449 . S
O647 U646 2.454 . S
O647 C649 1.353 . S
O648 U646 2.458 . S
O648 C649 1.286 . S
C649 U646 2.984 . S
C649 O647 1.353 . S
C649 O648 1.286 . S
C649 C651 1.363 . S
C650 C640 1.465 . S
C650 U646 2.847 . S
C650 O664 1.249 . S
C650 O665 1.202 . S
C651 C649 1.363 . S
C651 C653 1.408 . S
C651 C656 1.342 . S
C652 C653 1.310 . S
C652 C655 1.461 . S
C652 H672 0.932 . S
C653 C651 1.408 . S
C653 C652 1.310 . S
C653 H673 0.930 . S
C654 C655 1.474 . S
C654 C656 1.285 . S
C654 H674 0.929 . S
C655 C652 1.461 . S
C655 C654 1.474 . S
C656 C651 1.342 . S
C656 C654 1.285 . S
C656 H675 0.930 . S
C657 C660 1.424 . S
C657 C662 1.245 . S
C657 C663 1.428 . S
C658 C661 1.260 . S
C658 C662 1.477 . S
C658 H676 0.932 . S
C659 C660 1.384 . S
C659 C661 1.479 . S
C659 H677 0.929 . S
C660 C657 1.424 . S
C660 C659 1.384 . S
C660 H678 0.928 . S
C661 C658 1.260 . S
C661 C659 1.479 . S
C662 C657 1.245 . S
C662 C658 1.477 . S
C662 H679 0.932 . S
C663 U646 2.882 . S
C663 C657 1.428 . S
C663 O666 1.301 . S
C663 O667 1.282 . S
O664 U646 2.441 . S
O664 C650 1.249 . S
O665 U646 2.420 . S
O665 C650 1.202 . S
O666 U646 2.455 . S
O666 C663 1.301 . S
O667 U646 2.449 . S
O667 C663 1.282 . S
H668 C641 0.931 . S
H669 C643 0.929 . S
H670 C644 0.930 . S
H671 C645 0.931 . S
H672 C652 0.932 . S
H673 C653 0.930 . S
H674 C654 0.929 . S
H675 C656 0.930 . S
H676 C658 0.932 . S
H677 C659 0.929 . S
H678 C660 0.928 . S
H679 C662 0.932 . S
C680 C681 1.264 . S
C680 C685 1.479 . S
C680 C690 1.465 . S
C681 C680 1.264 . S
C681 C683 1.339 . S
C681 H708 0.931 . S
C682 C683 1.395 . S
C682 C684 1.320 . S
C683 C681 1.339 . S
C683 C682 1.395 . S
C683 H709 0.929 . S
C684 C682 1.320 . S
C684 C685 1.405 . S
C684 H710 0.930 . S
C685 C680 1.479 . S
C685 C684 1.405 . S
C685 H711 0.931 . S
U686 O687 2.454 . S
U686 O688 2.458 . S
U686 C689 2.984 . S
U686 C690 2.847 . S
U686 C703 2.882 . S
U686 O704 2.441 . S
U686 O705 2.420 . S
U686 O706 2.455 . S
U686 O707 2.449 . S
O687 U686 2.454 . S
O687 C689 1.353 . S
O688 U686 2.458 . S
O688 C689 1.286 . S
C689 U686 2.984 . S
C689 O687 1.353 . S
C689 O688 1.286 . S
C689 C691 1.363 . S
C690 C680 1.465 . S
C690 U686 2.847 . S
C690 O704 1.249 . S
C690 O705 1.202 . S
C691 C689 1.363 . S
C691 C693 1.408 . S
C691 C696 1.342 . S
C692 C693 1.310 . S
C692 C695 1.461 . S
C692 H712 0.932 . S
C693 C691 1.408 . S
C693 C692 1.310 . S
C693 H713 0.930 . S
C694 C695 1.474 . S
C694 C696 1.285 . S
C694 H714 0.929 . S
C695 C692 1.461 . S
C695 C694 1.474 . S
C696 C691 1.342 . S
C696 C694 1.285 . S
C696 H715 0.930 . S
C697 C700 1.424 . S
C697 C702 1.245 . S
C697 C703 1.428 . S
C698 C701 1.260 . S
C698 C702 1.477 . S
C698 H716 0.932 . S
C699 C700 1.384 . S
C699 C701 1.479 . S
C699 H717 0.929 . S
C700 C697 1.424 . S
C700 C699 1.384 . S
C700 H718 0.928 . S
C701 C698 1.260 . S
C701 C699 1.479 . S
C702 C697 1.245 . S
C702 C698 1.477 . S
C702 H719 0.932 . S
C703 U686 2.882 . S
C703 C697 1.428 . S
C703 O706 1.301 . S
C703 O707 1.282 . S
O704 U686 2.441 . S
O704 C690 1.249 . S
O705 U686 2.420 . S
O705 C690 1.202 . S
O706 U686 2.455 . S
O706 C703 1.301 . S
O707 U686 2.449 . S
O707 C703 1.282 . S
H708 C681 0.931 . S
H709 C683 0.929 . S
H710 C684 0.930 . S
H711 C685 0.931 . S
H712 C692 0.932 . S
H713 C693 0.930 . S
H714 C694 0.929 . S
H715 C696 0.930 . S
H716 C698 0.932 . S
H717 C699 0.929 . S
H718 C700 0.928 . S
H719 C702 0.932 . S
C720 C721 1.264 . S
C720 C725 1.479 . S
C720 C730 1.465 . S
C721 C720 1.264 . S
C721 C723 1.339 . S
C721 H748 0.931 . S
C722 C723 1.395 . S
C722 C724 1.320 . S
C723 C721 1.339 . S
C723 C722 1.395 . S
C723 H749 0.929 . S
C724 C722 1.320 . S
C724 C725 1.405 . S
C724 H750 0.930 . S
C725 C720 1.479 . S
C725 C724 1.405 . S
C725 H751 0.931 . S
U726 O727 2.454 . S
U726 O728 2.458 . S
U726 C729 2.984 . S
U726 C730 2.847 . S
U726 C743 2.882 . S
U726 O744 2.441 . S
U726 O745 2.420 . S
U726 O746 2.455 . S
U726 O747 2.449 . S
O727 U726 2.454 . S
O727 C729 1.353 . S
O728 U726 2.458 . S
O728 C729 1.286 . S
C729 U726 2.984 . S
C729 O727 1.353 . S
C729 O728 1.286 . S
C729 C731 1.363 . S
C730 C720 1.465 . S
C730 U726 2.847 . S
C730 O744 1.249 . S
C730 O745 1.202 . S
C731 C729 1.363 . S
C731 C733 1.408 . S
C731 C736 1.342 . S
C732 C733 1.310 . S
C732 C735 1.461 . S
C732 H752 0.932 . S
C733 C731 1.408 . S
C733 C732 1.310 . S
C733 H753 0.930 . S
C734 C735 1.474 . S
C734 C736 1.285 . S
C734 H754 0.929 . S
C735 C732 1.461 . S
C735 C734 1.474 . S
C736 C731 1.342 . S
C736 C734 1.285 . S
C736 H755 0.930 . S
C737 C740 1.424 . S
C737 C742 1.245 . S
C737 C743 1.428 . S
C738 C741 1.260 . S
C738 C742 1.477 . S
C738 H756 0.932 . S
C739 C740 1.384 . S
C739 C741 1.479 . S
C739 H757 0.929 . S
C740 C737 1.424 . S
C740 C739 1.384 . S
C740 H758 0.928 . S
C741 C738 1.260 . S
C741 C739 1.479 . S
C742 C737 1.245 . S
C742 C738 1.477 . S
C742 H759 0.932 . S
C743 U726 2.882 . S
C743 C737 1.428 . S
C743 O746 1.301 . S
C743 O747 1.282 . S
O744 U726 2.441 . S
O744 C730 1.249 . S
O745 U726 2.420 . S
O745 C730 1.202 . S
O746 U726 2.455 . S
O746 C743 1.301 . S
O747 U726 2.449 . S
O747 C743 1.282 . S
H748 C721 0.931 . S
H749 C723 0.929 . S
H750 C724 0.930 . S
H751 C725 0.931 . S
H752 C732 0.932 . S
H753 C733 0.930 . S
H754 C734 0.929 . S
H755 C736 0.930 . S
H756 C738 0.932 . S
H757 C739 0.929 . S
H758 C740 0.928 . S
H759 C742 0.932 . S
C760 C761 1.264 . S
C760 C765 1.479 . S
C760 C770 1.465 . S
C761 C760 1.264 . S
C761 C763 1.339 . S
C761 H788 0.931 . S
C762 C763 1.395 . S
C762 C764 1.320 . S
C763 C761 1.339 . S
C763 C762 1.395 . S
C763 H789 0.929 . S
C764 C762 1.320 . S
C764 C765 1.405 . S
C764 H790 0.930 . S
C765 C760 1.479 . S
C765 C764 1.405 . S
C765 H791 0.931 . S
U766 O767 2.454 . S
U766 O768 2.458 . S
U766 C769 2.984 . S
U766 C770 2.847 . S
U766 C783 2.882 . S
U766 O784 2.441 . S
U766 O785 2.420 . S
U766 O786 2.455 . S
U766 O787 2.449 . S
O767 U766 2.454 . S
O767 C769 1.353 . S
O768 U766 2.458 . S
O768 C769 1.286 . S
C769 U766 2.984 . S
C769 O767 1.353 . S
C769 O768 1.286 . S
C769 C771 1.363 . S
C770 C760 1.465 . S
C770 U766 2.847 . S
C770 O784 1.249 . S
C770 O785 1.202 . S
C771 C769 1.363 . S
C771 C773 1.408 . S
C771 C776 1.342 . S
C772 C773 1.310 . S
C772 C775 1.461 . S
C772 H792 0.932 . S
C773 C771 1.408 . S
C773 C772 1.310 . S
C773 H793 0.930 . S
C774 C775 1.474 . S
C774 C776 1.285 . S
C774 H794 0.929 . S
C775 C772 1.461 . S
C775 C774 1.474 . S
C776 C771 1.342 . S
C776 C774 1.285 . S
C776 H795 0.930 . S
C777 C780 1.424 . S
C777 C782 1.245 . S
C777 C783 1.428 . S
C778 C781 1.260 . S
C778 C782 1.477 . S
C778 H796 0.932 . S
C779 C780 1.384 . S
C779 C781 1.479 . S
C779 H797 0.929 . S
C780 C777 1.424 . S
C780 C779 1.384 . S
C780 H798 0.928 . S
C781 C778 1.260 . S
C781 C779 1.479 . S
C782 C777 1.245 . S
C782 C778 1.477 . S
C782 H799 0.932 . S
C783 U766 2.882 . S
C783 C777 1.428 . S
C783 O786 1.301 . S
C783 O787 1.282 . S
O784 U766 2.441 . S
O784 C770 1.249 . S
O785 U766 2.420 . S
O785 C770 1.202 . S
O786 U766 2.455 . S
O786 C783 1.301 . S
O787 U766 2.449 . S
O787 C783 1.282 . S
H788 C761 0.931 . S
H789 C763 0.929 . S
H790 C764 0.930 . S
H791 C765 0.931 . S
H792 C772 0.932 . S
H793 C773 0.930 . S
H794 C774 0.929 . S
H795 C776 0.930 . S
H796 C778 0.932 . S
H797 C779 0.929 . S
H798 C780 0.928 . S
H799 C782 0.932 . S
C800 C801 1.264 . S
C800 C805 1.479 . S
C800 C810 1.465 . S
C801 C800 1.264 . S
C801 C803 1.339 . S
C801 H828 0.931 . S
C802 C803 1.395 . S
C802 C804 1.320 . S
C803 C801 1.339 . S
C803 C802 1.395 . S
C803 H829 0.929 . S
C804 C802 1.320 . S
C804 C805 1.405 . S
C804 H830 0.930 . S
C805 C800 1.479 . S
C805 C804 1.405 . S
C805 H831 0.931 . S
U806 O807 2.454 . S
U806 O808 2.458 . S
U806 C809 2.984 . S
U806 C810 2.847 . S
U806 C823 2.882 . S
U806 O824 2.441 . S
U806 O825 2.420 . S
U806 O826 2.455 . S
U806 O827 2.449 . S
O807 U806 2.454 . S
O807 C809 1.353 . S
O808 U806 2.458 . S
O808 C809 1.286 . S
C809 U806 2.984 . S
C809 O807 1.353 . S
C809 O808 1.286 . S
C809 C811 1.363 . S
C810 C800 1.465 . S
C810 U806 2.847 . S
C810 O824 1.249 . S
C810 O825 1.202 . S
C811 C809 1.363 . S
C811 C813 1.408 . S
C811 C816 1.342 . S
C812 C813 1.310 . S
C812 C815 1.461 . S
C812 H832 0.932 . S
C813 C811 1.408 . S
C813 C812 1.310 . S
C813 H833 0.930 . S
C814 C815 1.474 . S
C814 C816 1.285 . S
C814 H834 0.929 . S
C815 C812 1.461 . S
C815 C814 1.474 . S
C816 C811 1.342 . S
C816 C814 1.285 . S
C816 H835 0.930 . S
C817 C820 1.424 . S
C817 C822 1.245 . S
C817 C823 1.428 . S
C818 C821 1.260 . S
C818 C822 1.477 . S
C818 H836 0.932 . S
C819 C820 1.384 . S
C819 C821 1.479 . S
C819 H837 0.929 . S
C820 C817 1.424 . S
C820 C819 1.384 . S
C820 H838 0.928 . S
C821 C818 1.260 . S
C821 C819 1.479 . S
C822 C817 1.245 . S
C822 C818 1.477 . S
C822 H839 0.932 . S
C823 U806 2.882 . S
C823 C817 1.428 . S
C823 O826 1.301 . S
C823 O827 1.282 . S
O824 U806 2.441 . S
O824 C810 1.249 . S
O825 U806 2.420 . S
O825 C810 1.202 . S
O826 U806 2.455 . S
O826 C823 1.301 . S
O827 U806 2.449 . S
O827 C823 1.282 . S
H828 C801 0.931 . S
H829 C803 0.929 . S
H830 C804 0.930 . S
H831 C805 0.931 . S
H832 C812 0.932 . S
H833 C813 0.930 . S
H834 C814 0.929 . S
H835 C816 0.930 . S
H836 C818 0.932 . S
H837 C819 0.929 . S
H838 C820 0.928 . S
H839 C822 0.932 . S
C840 C841 1.264 . S
C840 C845 1.479 . S
C840 C850 1.465 . S
C841 C840 1.264 . S
C841 C843 1.339 . S
C841 H868 0.931 . S
C842 C843 1.395 . S
C842 C844 1.320 . S
C843 C841 1.339 . S
C843 C842 1.395 . S
C843 H869 0.929 . S
C844 C842 1.320 . S
C844 C845 1.405 . S
C844 H870 0.930 . S
C845 C840 1.479 . S
C845 C844 1.405 . S
C845 H871 0.931 . S
U846 O847 2.454 . S
U846 O848 2.458 . S
U846 C849 2.984 . S
U846 C850 2.847 . S
U846 C863 2.882 . S
U846 O864 2.441 . S
U846 O865 2.420 . S
U846 O866 2.455 . S
U846 O867 2.449 . S
O847 U846 2.454 . S
O847 C849 1.353 . S
O848 U846 2.458 . S
O848 C849 1.286 . S
C849 U846 2.984 . S
C849 O847 1.353 . S
C849 O848 1.286 . S
C849 C851 1.363 . S
C850 C840 1.465 . S
C850 U846 2.847 . S
C850 O864 1.249 . S
C850 O865 1.202 . S
C851 C849 1.363 . S
C851 C853 1.408 . S
C851 C856 1.342 . S
C852 C853 1.310 . S
C852 C855 1.461 . S
C852 H872 0.932 . S
C853 C851 1.408 . S
C853 C852 1.310 . S
C853 H873 0.930 . S
C854 C855 1.474 . S
C854 C856 1.285 . S
C854 H874 0.929 . S
C855 C852 1.461 . S
C855 C854 1.474 . S
C856 C851 1.342 . S
C856 C854 1.285 . S
C856 H875 0.930 . S
C857 C860 1.424 . S
C857 C862 1.245 . S
C857 C863 1.428 . S
C858 C861 1.260 . S
C858 C862 1.477 . S
C858 H876 0.932 . S
C859 C860 1.384 . S
C859 C861 1.479 . S
C859 H877 0.929 . S
C860 C857 1.424 . S
C860 C859 1.384 . S
C860 H878 0.928 . S
C861 C858 1.260 . S
C861 C859 1.479 . S
C862 C857 1.245 . S
C862 C858 1.477 . S
C862 H879 0.932 . S
C863 U846 2.882 . S
C863 C857 1.428 . S
C863 O866 1.301 . S
C863 O867 1.282 . S
O864 U846 2.441 . S
O864 C850 1.249 . S
O865 U846 2.420 . S
O865 C850 1.202 . S
O866 U846 2.455 . S
O866 C863 1.301 . S
O867 U846 2.449 . S
O867 C863 1.282 . S
H868 C841 0.931 . S
H869 C843 0.929 . S
H870 C844 0.930 . S
H871 C845 0.931 . S
H872 C852 0.932 . S
H873 C853 0.930 . S
H874 C854 0.929 . S
H875 C856 0.930 . S
H876 C858 0.932 . S
H877 C859 0.929 . S
H878 C860 0.928 . S
H879 C862 0.932 . S
C880 C881 1.264 . S
C880 C885 1.479 . S
C880 C890 1.465 . S
C881 C880 1.264 . S
C881 C883 1.339 . S
C881 H908 0.931 . S
C882 C883 1.395 . S
C882 C884 1.320 . S
C883 C881 1.339 . S
C883 C882 1.395 . S
C883 H909 0.929 . S
C884 C882 1.320 . S
C884 C885 1.405 . S
C884 H910 0.930 . S
C885 C880 1.479 . S
C885 C884 1.405 . S
C885 H911 0.931 . S
U886 O887 2.454 . S
U886 O888 2.458 . S
U886 C889 2.984 . S
U886 C890 2.847 . S
U886 C903 2.882 . S
U886 O904 2.441 . S
U886 O905 2.420 . S
U886 O906 2.455 . S
U886 O907 2.449 . S
O887 U886 2.454 . S
O887 C889 1.353 . S
O888 U886 2.458 . S
O888 C889 1.286 . S
C889 U886 2.984 . S
C889 O887 1.353 . S
C889 O888 1.286 . S
C889 C891 1.363 . S
C890 C880 1.465 . S
C890 U886 2.847 . S
C890 O904 1.249 . S
C890 O905 1.202 . S
C891 C889 1.363 . S
C891 C893 1.408 . S
C891 C896 1.342 . S
C892 C893 1.310 . S
C892 C895 1.461 . S
C892 H912 0.932 . S
C893 C891 1.408 . S
C893 C892 1.310 . S
C893 H913 0.930 . S
C894 C895 1.474 . S
C894 C896 1.285 . S
C894 H914 0.929 . S
C895 C892 1.461 . S
C895 C894 1.474 . S
C896 C891 1.342 . S
C896 C894 1.285 . S
C896 H915 0.930 . S
C897 C900 1.424 . S
C897 C902 1.245 . S
C897 C903 1.428 . S
C898 C901 1.260 . S
C898 C902 1.477 . S
C898 H916 0.932 . S
C899 C900 1.384 . S
C899 C901 1.479 . S
C899 H917 0.929 . S
C900 C897 1.424 . S
C900 C899 1.384 . S
C900 H918 0.928 . S
C901 C898 1.260 . S
C901 C899 1.479 . S
C902 C897 1.245 . S
C902 C898 1.477 . S
C902 H919 0.932 . S
C903 U886 2.882 . S
C903 C897 1.428 . S
C903 O906 1.301 . S
C903 O907 1.282 . S
O904 U886 2.441 . S
O904 C890 1.249 . S
O905 U886 2.420 . S
O905 C890 1.202 . S
O906 U886 2.455 . S
O906 C903 1.301 . S
O907 U886 2.449 . S
O907 C903 1.282 . S
H908 C881 0.931 . S
H909 C883 0.929 . S
H910 C884 0.930 . S
H911 C885 0.931 . S
H912 C892 0.932 . S
H913 C893 0.930 . S
H914 C894 0.929 . S
H915 C896 0.930 . S
H916 C898 0.932 . S
H917 C899 0.929 . S
H918 C900 0.928 . S
H919 C902 0.932 . S
C920 C921 1.264 . S
C920 C925 1.479 . S
C920 C930 1.465 . S
C921 C920 1.264 . S
C921 C923 1.339 . S
C921 H948 0.931 . S
C922 C923 1.395 . S
C922 C924 1.320 . S
C923 C921 1.339 . S
C923 C922 1.395 . S
C923 H949 0.929 . S
C924 C922 1.320 . S
C924 C925 1.405 . S
C924 H950 0.930 . S
C925 C920 1.479 . S
C925 C924 1.405 . S
C925 H951 0.931 . S
U926 O927 2.454 . S
U926 O928 2.458 . S
U926 C929 2.984 . S
U926 C930 2.847 . S
U926 C943 2.882 . S
U926 O944 2.441 . S
U926 O945 2.420 . S
U926 O946 2.455 . S
U926 O947 2.449 . S
O927 U926 2.454 . S
O927 C929 1.353 . S
O928 U926 2.458 . S
O928 C929 1.286 . S
C929 U926 2.984 . S
C929 O927 1.353 . S
C929 O928 1.286 . S
C929 C931 1.363 . S
C930 C920 1.465 . S
C930 U926 2.847 . S
C930 O944 1.249 . S
C930 O945 1.202 . S
C931 C929 1.363 . S
C931 C933 1.408 . S
C931 C936 1.342 . S
C932 C933 1.310 . S
C932 C935 1.461 . S
C932 H952 0.932 . S
C933 C931 1.408 . S
C933 C932 1.310 . S
C933 H953 0.930 . S
C934 C935 1.474 . S
C934 C936 1.285 . S
C934 H954 0.929 . S
C935 C932 1.461 . S
C935 C934 1.474 . S
C936 C931 1.342 . S
C936 C934 1.285 . S
C936 H955 0.930 . S
C937 C940 1.424 . S
C937 C942 1.245 . S
C937 C943 1.428 . S
C938 C941 1.260 . S
C938 C942 1.477 . S
C938 H956 0.932 . S
C939 C940 1.384 . S
C939 C941 1.479 . S
C939 H957 0.929 . S
C940 C937 1.424 . S
C940 C939 1.384 . S
C940 H958 0.928 . S
C941 C938 1.260 . S
C941 C939 1.479 . S
C942 C937 1.245 . S
C942 C938 1.477 . S
C942 H959 0.932 . S
C943 U926 2.882 . S
C943 C937 1.428 . S
C943 O946 1.301 . S
C943 O947 1.282 . S
O944 U926 2.441 . S
O944 C930 1.249 . S
O945 U926 2.420 . S
O945 C930 1.202 . S
O946 U926 2.455 . S
O946 C943 1.301 . S
O947 U926 2.449 . S
O947 C943 1.282 . S
H948 C921 0.931 . S
H949 C923 0.929 . S
H950 C924 0.930 . S
H951 C925 0.931 . S
H952 C932 0.932 . S
H953 C933 0.930 . S
H954 C934 0.929 . S
H955 C936 0.930 . S
H956 C938 0.932 . S
H957 C939 0.929 . S
H958 C940 0.928 . S
H959 C942 0.932 . S
C960 C961 1.264 . S
C960 C965 1.479 . S
C960 C970 1.465 . S
C961 C960 1.264 . S
C961 C963 1.339 . S
C961 H988 0.931 . S
C962 C963 1.395 . S
C962 C964 1.320 . S
C963 C961 1.339 . S
C963 C962 1.395 . S
C963 H989 0.929 . S
C964 C962 1.320 . S
C964 C965 1.405 . S
C964 H990 0.930 . S
C965 C960 1.479 . S
C965 C964 1.405 . S
C965 H991 0.931 . S
U966 O967 2.454 . S
U966 O968 2.458 . S
U966 C969 2.984 . S
U966 C970 2.847 . S
U966 C983 2.882 . S
U966 O984 2.441 . S
U966 O985 2.420 . S
U966 O986 2.455 . S
U966 O987 2.449 . S
O967 U966 2.454 . S
O967 C969 1.353 . S
O968 U966 2.458 . S
O968 C969 1.286 . S
C969 U966 2.984 . S
C969 O967 1.353 . S
C969 O968 1.286 . S
C969 C971 1.363 . S
C970 C960 1.465 . S
C970 U966 2.847 . S
C970 O984 1.249 . S
C970 O985 1.202 . S
C971 C969 1.363 . S
C971 C973 1.408 . S
C971 C976 1.342 . S
C972 C973 1.310 . S
C972 C975 1.461 . S
C972 H992 0.932 . S
C973 C971 1.408 . S
C973 C972 1.310 . S
C973 H993 0.930 . S
C974 C975 1.474 . S
C974 C976 1.285 . S
C974 H994 0.929 . S
C975 C972 1.461 . S
C975 C974 1.474 . S
C976 C971 1.342 . S
C976 C974 1.285 . S
C976 H995 0.930 . S
C977 C980 1.424 . S
C977 C982 1.245 . S
C977 C983 1.428 . S
C978 C981 1.260 . S
C978 C982 1.477 . S
C978 H996 0.932 . S
C979 C980 1.384 . S
C979 C981 1.479 . S
C979 H997 0.929 . S
C980 C977 1.424 . S
C980 C979 1.384 . S
C980 H998 0.928 . S
C981 C978 1.260 . S
C981 C979 1.479 . S
C982 C977 1.245 . S
C982 C978 1.477 . S
C982 H999 0.932 . S
C983 U966 2.882 . S
C983 C977 1.428 . S
C983 O986 1.301 . S
C983 O987 1.282 . S
O984 U966 2.441 . S
O984 C970 1.249 . S
O985 U966 2.420 . S
O985 C970 1.202 . S
O986 U966 2.455 . S
O986 C983 1.301 . S
O987 U966 2.449 . S
O987 C983 1.282 . S
H988 C961 0.931 . S
H989 C963 0.929 . S
H990 C964 0.930 . S
H991 C965 0.931 . S
H992 C972 0.932 . S
H993 C973 0.930 . S
H994 C974 0.929 . S
H995 C976 0.930 . S
H996 C978 0.932 . S
H997 C979 0.929 . S
H998 C980 0.928 . S
H999 C982 0.932 . S
C1000 C1001 1.264 . S
C1000 C1005 1.479 . S
C1000 C1010 1.465 . S
C1001 C1000 1.264 . S
C1001 C1003 1.339 . S
C1001 H1028 0.931 . S
C1002 C1003 1.395 . S
C1002 C1004 1.320 . S
C1003 C1001 1.339 . S
C1003 C1002 1.395 . S
C1003 H1029 0.929 . S
C1004 C1002 1.320 . S
C1004 C1005 1.405 . S
C1004 H1030 0.930 . S
C1005 C1000 1.479 . S
C1005 C1004 1.405 . S
C1005 H1031 0.931 . S
U1006 O1007 2.454 . S
U1006 O1008 2.458 . S
U1006 C1009 2.984 . S
U1006 C1010 2.847 . S
U1006 C1023 2.882 . S
U1006 O1024 2.441 . S
U1006 O1025 2.420 . S
U1006 O1026 2.455 . S
U1006 O1027 2.449 . S
O1007 U1006 2.454 . S
O1007 C1009 1.353 . S
O1008 U1006 2.458 . S
O1008 C1009 1.286 . S
C1009 U1006 2.984 . S
C1009 O1007 1.353 . S
C1009 O1008 1.286 . S
C1009 C1011 1.363 . S
C1010 C1000 1.465 . S
C1010 U1006 2.847 . S
C1010 O1024 1.249 . S
C1010 O1025 1.202 . S
C1011 C1009 1.363 . S
C1011 C1013 1.408 . S
C1011 C1016 1.342 . S
C1012 C1013 1.310 . S
C1012 C1015 1.461 . S
C1012 H1032 0.932 . S
C1013 C1011 1.408 . S
C1013 C1012 1.310 . S
C1013 H1033 0.930 . S
C1014 C1015 1.474 . S
C1014 C1016 1.285 . S
C1014 H1034 0.929 . S
C1015 C1012 1.461 . S
C1015 C1014 1.474 . S
C1016 C1011 1.342 . S
C1016 C1014 1.285 . S
C1016 H1035 0.930 . S
C1017 C1020 1.424 . S
C1017 C1022 1.245 . S
C1017 C1023 1.428 . S
C1018 C1021 1.260 . S
C1018 C1022 1.477 . S
C1018 H1036 0.932 . S
C1019 C1020 1.384 . S
C1019 C1021 1.479 . S
C1019 H1037 0.929 . S
C1020 C1017 1.424 . S
C1020 C1019 1.384 . S
C1020 H1038 0.928 . S
C1021 C1018 1.260 . S
C1021 C1019 1.479 . S
C1022 C1017 1.245 . S
C1022 C1018 1.477 . S
C1022 H1039 0.932 . S
C1023 U1006 2.882 . S
C1023 C1017 1.428 . S
C1023 O1026 1.301 . S
C1023 O1027 1.282 . S
O1024 U1006 2.441 . S
O1024 C1010 1.249 . S
O1025 U1006 2.420 . S
O1025 C1010 1.202 . S
O1026 U1006 2.455 . S
O1026 C1023 1.301 . S
O1027 U1006 2.449 . S
O1027 C1023 1.282 . S
H1028 C1001 0.931 . S
H1029 C1003 0.929 . S
H1030 C1004 0.930 . S
H1031 C1005 0.931 . S
H1032 C1012 0.932 . S
H1033 C1013 0.930 . S
H1034 C1014 0.929 . S
H1035 C1016 0.930 . S
H1036 C1018 0.932 . S
H1037 C1019 0.929 . S
H1038 C1020 0.928 . S
H1039 C1022 0.932 . S
C1040 C1041 1.264 . S
C1040 C1045 1.479 . S
C1040 C1050 1.465 . S
C1041 C1040 1.264 . S
C1041 C1043 1.339 . S
C1041 H1068 0.931 . S
C1042 C1043 1.395 . S
C1042 C1044 1.320 . S
C1043 C1041 1.339 . S
C1043 C1042 1.395 . S
C1043 H1069 0.929 . S
C1044 C1042 1.320 . S
C1044 C1045 1.405 . S
C1044 H1070 0.930 . S
C1045 C1040 1.479 . S
C1045 C1044 1.405 . S
C1045 H1071 0.931 . S
U1046 O1047 2.454 . S
U1046 O1048 2.458 . S
U1046 C1049 2.984 . S
U1046 C1050 2.847 . S
U1046 C1063 2.882 . S
U1046 O1064 2.441 . S
U1046 O1065 2.420 . S
U1046 O1066 2.455 . S
U1046 O1067 2.449 . S
O1047 U1046 2.454 . S
O1047 C1049 1.353 . S
O1048 U1046 2.458 . S
O1048 C1049 1.286 . S
C1049 U1046 2.984 . S
C1049 O1047 1.353 . S
C1049 O1048 1.286 . S
C1049 C1051 1.363 . S
C1050 C1040 1.465 . S
C1050 U1046 2.847 . S
C1050 O1064 1.249 . S
C1050 O1065 1.202 . S
C1051 C1049 1.363 . S
C1051 C1053 1.408 . S
C1051 C1056 1.342 . S
C1052 C1053 1.310 . S
C1052 C1055 1.461 . S
C1052 H1072 0.932 . S
C1053 C1051 1.408 . S
C1053 C1052 1.310 . S
C1053 H1073 0.930 . S
C1054 C1055 1.474 . S
C1054 C1056 1.285 . S
C1054 H1074 0.929 . S
C1055 C1052 1.461 . S
C1055 C1054 1.474 . S
C1056 C1051 1.342 . S
C1056 C1054 1.285 . S
C1056 H1075 0.930 . S
C1057 C1060 1.424 . S
C1057 C1062 1.245 . S
C1057 C1063 1.428 . S
C1058 C1061 1.260 . S
C1058 C1062 1.477 . S
C1058 H1076 0.932 . S
C1059 C1060 1.384 . S
C1059 C1061 1.479 . S
C1059 H1077 0.929 . S
C1060 C1057 1.424 . S
C1060 C1059 1.384 . S
C1060 H1078 0.928 . S
C1061 C1058 1.260 . S
C1061 C1059 1.479 . S
C1062 C1057 1.245 . S
C1062 C1058 1.477 . S
C1062 H1079 0.932 . S
C1063 U1046 2.882 . S
C1063 C1057 1.428 . S
C1063 O1066 1.301 . S
C1063 O1067 1.282 . S
O1064 U1046 2.441 . S
O1064 C1050 1.249 . S
O1065 U1046 2.420 . S
O1065 C1050 1.202 . S
O1066 U1046 2.455 . S
O1066 C1063 1.301 . S
O1067 U1046 2.449 . S
O1067 C1063 1.282 . S
H1068 C1041 0.931 . S
H1069 C1043 0.929 . S
H1070 C1044 0.930 . S
H1071 C1045 0.931 . S
H1072 C1052 0.932 . S
H1073 C1053 0.930 . S
H1074 C1054 0.929 . S
H1075 C1056 0.930 . S
H1076 C1058 0.932 . S
H1077 C1059 0.929 . S
H1078 C1060 0.928 . S
H1079 C1062 0.932 . S
C1080 C1081 1.264 . S
C1080 C1085 1.479 . S
C1080 C1090 1.465 . S
C1081 C1080 1.264 . S
C1081 C1083 1.339 . S
C1081 H1108 0.931 . S
C1082 C1083 1.395 . S
C1082 C1084 1.320 . S
C1083 C1081 1.339 . S
C1083 C1082 1.395 . S
C1083 H1109 0.929 . S
C1084 C1082 1.320 . S
C1084 C1085 1.405 . S
C1084 H1110 0.930 . S
C1085 C1080 1.479 . S
C1085 C1084 1.405 . S
C1085 H1111 0.931 . S
U1086 O1087 2.454 . S
U1086 O1088 2.458 . S
U1086 C1089 2.984 . S
U1086 C1090 2.847 . S
U1086 C1103 2.882 . S
U1086 O1104 2.441 . S
U1086 O1105 2.420 . S
U1086 O1106 2.455 . S
U1086 O1107 2.449 . S
O1087 U1086 2.454 . S
O1087 C1089 1.353 . S
O1088 U1086 2.458 . S
O1088 C1089 1.286 . S
C1089 U1086 2.984 . S
C1089 O1087 1.353 . S
C1089 O1088 1.286 . S
C1089 C1091 1.363 . S
C1090 C1080 1.465 . S
C1090 U1086 2.847 . S
C1090 O1104 1.249 . S
C1090 O1105 1.202 . S
C1091 C1089 1.363 . S
C1091 C1093 1.408 . S
C1091 C1096 1.342 . S
C1092 C1093 1.310 . S
C1092 C1095 1.461 . S
C1092 H1112 0.932 . S
C1093 C1091 1.408 . S
C1093 C1092 1.310 . S
C1093 H1113 0.930 . S
C1094 C1095 1.474 . S
C1094 C1096 1.285 . S
C1094 H1114 0.929 . S
C1095 C1092 1.461 . S
C1095 C1094 1.474 . S
C1096 C1091 1.342 . S
C1096 C1094 1.285 . S
C1096 H1115 0.930 . S
C1097 C1100 1.424 . S
C1097 C1102 1.245 . S
C1097 C1103 1.428 . S
C1098 C1101 1.260 . S
C1098 C1102 1.477 . S
C1098 H1116 0.932 . S
C1099 C1100 1.384 . S
C1099 C1101 1.479 . S
C1099 H1117 0.929 . S
C1100 C1097 1.424 . S
C1100 C1099 1.384 . S
C1100 H1118 0.928 . S
C1101 C1098 1.260 . S
C1101 C1099 1.479 . S
C1102 C1097 1.245 . S
C1102 C1098 1.477 . S
C1102 H1119 0.932 . S
C1103 U1086 2.882 . S
C1103 C1097 1.428 . S
C1103 O1106 1.301 . S
C1103 O1107 1.282 . S
O1104 U1086 2.441 . S
O1104 C1090 1.249 . S
O1105 U1086 2.420 . S
O1105 C1090 1.202 . S
O1106 U1086 2.455 . S
O1106 C1103 1.301 . S
O1107 U1086 2.449 . S
O1107 C1103 1.282 . S
H1108 C1081 0.931 . S
H1109 C1083 0.929 . S
H1110 C1084 0.930 . S
H1111 C1085 0.931 . S
H1112 C1092 0.932 . S
H1113 C1093 0.930 . S
H1114 C1094 0.929 . S
H1115 C1096 0.930 . S
H1116 C1098 0.932 . S
H1117 C1099 0.929 . S
H1118 C1100 0.928 . S
H1119 C1102 0.932 . S
C1120 C1121 1.264 . S
C1120 C1125 1.479 . S
C1120 C1130 1.465 . S
C1121 C1120 1.264 . S
C1121 C1123 1.339 . S
C1121 H1148 0.931 . S
C1122 C1123 1.395 . S
C1122 C1124 1.320 . S
C1123 C1121 1.339 . S
C1123 C1122 1.395 . S
C1123 H1149 0.929 . S
C1124 C1122 1.320 . S
C1124 C1125 1.405 . S
C1124 H1150 0.930 . S
C1125 C1120 1.479 . S
C1125 C1124 1.405 . S
C1125 H1151 0.931 . S
U1126 O1127 2.454 . S
U1126 O1128 2.458 . S
U1126 C1129 2.984 . S
U1126 C1130 2.847 . S
U1126 C1143 2.882 . S
U1126 O1144 2.441 . S
U1126 O1145 2.420 . S
U1126 O1146 2.455 . S
U1126 O1147 2.449 . S
O1127 U1126 2.454 . S
O1127 C1129 1.353 . S
O1128 U1126 2.458 . S
O1128 C1129 1.286 . S
C1129 U1126 2.984 . S
C1129 O1127 1.353 . S
C1129 O1128 1.286 . S
C1129 C1131 1.363 . S
C1130 C1120 1.465 . S
C1130 U1126 2.847 . S
C1130 O1144 1.249 . S
C1130 O1145 1.202 . S
C1131 C1129 1.363 . S
C1131 C1133 1.408 . S
C1131 C1136 1.342 . S
C1132 C1133 1.310 . S
C1132 C1135 1.461 . S
C1132 H1152 0.932 . S
C1133 C1131 1.408 . S
C1133 C1132 1.310 . S
C1133 H1153 0.930 . S
C1134 C1135 1.474 . S
C1134 C1136 1.285 . S
C1134 H1154 0.929 . S
C1135 C1132 1.461 . S
C1135 C1134 1.474 . S
C1136 C1131 1.342 . S
C1136 C1134 1.285 . S
C1136 H1155 0.930 . S
C1137 C1140 1.424 . S
C1137 C1142 1.245 . S
C1137 C1143 1.428 . S
C1138 C1141 1.260 . S
C1138 C1142 1.477 . S
C1138 H1156 0.932 . S
C1139 C1140 1.384 . S
C1139 C1141 1.479 . S
C1139 H1157 0.929 . S
C1140 C1137 1.424 . S
C1140 C1139 1.384 . S
C1140 H1158 0.928 . S
C1141 C1138 1.260 . S
C1141 C1139 1.479 . S
C1142 C1137 1.245 . S
C1142 C1138 1.477 . S
C1142 H1159 0.932 . S
C1143 U1126 2.882 . S
C1143 C1137 1.428 . S
C1143 O1146 1.301 . S
C1143 O1147 1.282 . S
O1144 U1126 2.441 . S
O1144 C1130 1.249 . S
O1145 U1126 2.420 . S
O1145 C1130 1.202 . S
O1146 U1126 2.455 . S
O1146 C1143 1.301 . S
O1147 U1126 2.449 . S
O1147 C1143 1.282 . S
H1148 C1121 0.931 . S
H1149 C1123 0.929 . S
H1150 C1124 0.930 . S
H1151 C1125 0.931 . S
H1152 C1132 0.932 . S
H1153 C1133 0.930 . S
H1154 C1134 0.929 . S
H1155 C1136 0.930 . S
H1156 C1138 0.932 . S
H1157 C1139 0.929 . S
H1158 C1140 0.928 . S
H1159 C1142 0.932 . S
C1160 C1161 1.264 . S
C1160 C1165 1.479 . S
C1160 C1170 1.465 . S
C1161 C1160 1.264 . S
C1161 C1163 1.339 . S
C1161 H1188 0.931 . S
C1162 C1163 1.395 . S
C1162 C1164 1.320 . S
C1163 C1161 1.339 . S
C1163 C1162 1.395 . S
C1163 H1189 0.929 . S
C1164 C1162 1.320 . S
C1164 C1165 1.405 . S
C1164 H1190 0.930 . S
C1165 C1160 1.479 . S
C1165 C1164 1.405 . S
C1165 H1191 0.931 . S
U1166 O1167 2.454 . S
U1166 O1168 2.458 . S
U1166 C1169 2.984 . S
U1166 C1170 2.847 . S
U1166 C1183 2.882 . S
U1166 O1184 2.441 . S
U1166 O1185 2.420 . S
U1166 O1186 2.455 . S
U1166 O1187 2.449 . S
O1167 U1166 2.454 . S
O1167 C1169 1.353 . S
O1168 U1166 2.458 . S
O1168 C1169 1.286 . S
C1169 U1166 2.984 . S
C1169 O1167 1.353 . S
C1169 O1168 1.286 . S
C1169 C1171 1.363 . S
C1170 C1160 1.465 . S
C1170 U1166 2.847 . S
C1170 O1184 1.249 . S
C1170 O1185 1.202 . S
C1171 C1169 1.363 . S
C1171 C1173 1.408 . S
C1171 C1176 1.342 . S
C1172 C1173 1.310 . S
C1172 C1175 1.461 . S
C1172 H1192 0.932 . S
C1173 C1171 1.408 . S
C1173 C1172 1.310 . S
C1173 H1193 0.930 . S
C1174 C1175 1.474 . S
C1174 C1176 1.285 . S
C1174 H1194 0.929 . S
C1175 C1172 1.461 . S
C1175 C1174 1.474 . S
C1176 C1171 1.342 . S
C1176 C1174 1.285 . S
C1176 H1195 0.930 . S
C1177 C1180 1.424 . S
C1177 C1182 1.245 . S
C1177 C1183 1.428 . S
C1178 C1181 1.260 . S
C1178 C1182 1.477 . S
C1178 H1196 0.932 . S
C1179 C1180 1.384 . S
C1179 C1181 1.479 . S
C1179 H1197 0.929 . S
C1180 C1177 1.424 . S
C1180 C1179 1.384 . S
C1180 H1198 0.928 . S
C1181 C1178 1.260 . S
C1181 C1179 1.479 . S
C1182 C1177 1.245 . S
C1182 C1178 1.477 . S
C1182 H1199 0.932 . S
C1183 U1166 2.882 . S
C1183 C1177 1.428 . S
C1183 O1186 1.301 . S
C1183 O1187 1.282 . S
O1184 U1166 2.441 . S
O1184 C1170 1.249 . S
O1185 U1166 2.420 . S
O1185 C1170 1.202 . S
O1186 U1166 2.455 . S
O1186 C1183 1.301 . S
O1187 U1166 2.449 . S
O1187 C1183 1.282 . S
H1188 C1161 0.931 . S
H1189 C1163 0.929 . S
H1190 C1164 0.930 . S
H1191 C1165 0.931 . S
H1192 C1172 0.932 . S
H1193 C1173 0.930 . S
H1194 C1174 0.929 . S
H1195 C1176 0.930 . S
H1196 C1178 0.932 . S
H1197 C1179 0.929 . S
H1198 C1180 0.928 . S
H1199 C1182 0.932 . S
C1200 C1201 1.264 . S
C1200 C1205 1.479 . S
C1200 C1210 1.465 . S
C1201 C1200 1.264 . S
C1201 C1203 1.339 . S
C1201 H1228 0.931 . S
C1202 C1203 1.395 . S
C1202 C1204 1.320 . S
C1203 C1201 1.339 . S
C1203 C1202 1.395 . S
C1203 H1229 0.929 . S
C1204 C1202 1.320 . S
C1204 C1205 1.405 . S
C1204 H1230 0.930 . S
C1205 C1200 1.479 . S
C1205 C1204 1.405 . S
C1205 H1231 0.931 . S
U1206 O1207 2.454 . S
U1206 O1208 2.458 . S
U1206 C1209 2.984 . S
U1206 C1210 2.847 . S
U1206 C1223 2.882 . S
U1206 O1224 2.441 . S
U1206 O1225 2.420 . S
U1206 O1226 2.455 . S
U1206 O1227 2.449 . S
O1207 U1206 2.454 . S
O1207 C1209 1.353 . S
O1208 U1206 2.458 . S
O1208 C1209 1.286 . S
C1209 U1206 2.984 . S
C1209 O1207 1.353 . S
C1209 O1208 1.286 . S
C1209 C1211 1.363 . S
C1210 C1200 1.465 . S
C1210 U1206 2.847 . S
C1210 O1224 1.249 . S
C1210 O1225 1.202 . S
C1211 C1209 1.363 . S
C1211 C1213 1.408 . S
C1211 C1216 1.342 . S
C1212 C1213 1.310 . S
C1212 C1215 1.461 . S
C1212 H1232 0.932 . S
C1213 C1211 1.408 . S
C1213 C1212 1.310 . S
C1213 H1233 0.930 . S
C1214 C1215 1.474 . S
C1214 C1216 1.285 . S
C1214 H1234 0.929 . S
C1215 C1212 1.461 . S
C1215 C1214 1.474 . S
C1216 C1211 1.342 . S
C1216 C1214 1.285 . S
C1216 H1235 0.930 . S
C1217 C1220 1.424 . S
C1217 C1222 1.245 . S
C1217 C1223 1.428 . S
C1218 C1221 1.260 . S
C1218 C1222 1.477 . S
C1218 H1236 0.932 . S
C1219 C1220 1.384 . S
C1219 C1221 1.479 . S
C1219 H1237 0.929 . S
C1220 C1217 1.424 . S
C1220 C1219 1.384 . S
C1220 H1238 0.928 . S
C1221 C1218 1.260 . S
C1221 C1219 1.479 . S
C1222 C1217 1.245 . S
C1222 C1218 1.477 . S
C1222 H1239 0.932 . S
C1223 U1206 2.882 . S
C1223 C1217 1.428 . S
C1223 O1226 1.301 . S
C1223 O1227 1.282 . S
O1224 U1206 2.441 . S
O1224 C1210 1.249 . S
O1225 U1206 2.420 . S
O1225 C1210 1.202 . S
O1226 U1206 2.455 . S
O1226 C1223 1.301 . S
O1227 U1206 2.449 . S
O1227 C1223 1.282 . S
H1228 C1201 0.931 . S
H1229 C1203 0.929 . S
H1230 C1204 0.930 . S
H1231 C1205 0.931 . S
H1232 C1212 0.932 . S
H1233 C1213 0.930 . S
H1234 C1214 0.929 . S
H1235 C1216 0.930 . S
H1236 C1218 0.932 . S
H1237 C1219 0.929 . S
H1238 C1220 0.928 . S
H1239 C1222 0.932 . S
C1240 C1241 1.264 . S
C1240 C1245 1.479 . S
C1240 C1250 1.465 . S
C1241 C1240 1.264 . S
C1241 C1243 1.339 . S
C1241 H1268 0.931 . S
C1242 C1243 1.395 . S
C1242 C1244 1.320 . S
C1243 C1241 1.339 . S
C1243 C1242 1.395 . S
C1243 H1269 0.929 . S
C1244 C1242 1.320 . S
C1244 C1245 1.405 . S
C1244 H1270 0.930 . S
C1245 C1240 1.479 . S
C1245 C1244 1.405 . S
C1245 H1271 0.931 . S
U1246 O1247 2.454 . S
U1246 O1248 2.458 . S
U1246 C1249 2.984 . S
U1246 C1250 2.847 . S
U1246 C1263 2.882 . S
U1246 O1264 2.441 . S
U1246 O1265 2.420 . S
U1246 O1266 2.455 . S
U1246 O1267 2.449 . S
O1247 U1246 2.454 . S
O1247 C1249 1.353 . S
O1248 U1246 2.458 . S
O1248 C1249 1.286 . S
C1249 U1246 2.984 . S
C1249 O1247 1.353 . S
C1249 O1248 1.286 . S
C1249 C1251 1.363 . S
C1250 C1240 1.465 . S
C1250 U1246 2.847 . S
C1250 O1264 1.249 . S
C1250 O1265 1.202 . S
C1251 C1249 1.363 . S
C1251 C1253 1.408 . S
C1251 C1256 1.342 . S
C1252 C1253 1.310 . S
C1252 C1255 1.461 . S
C1252 H1272 0.932 . S
C1253 C1251 1.408 . S
C1253 C1252 1.310 . S
C1253 H1273 0.930 . S
C1254 C1255 1.474 . S
C1254 C1256 1.285 . S
C1254 H1274 0.929 . S
C1255 C1252 1.461 . S
C1255 C1254 1.474 . S
C1256 C1251 1.342 . S
C1256 C1254 1.285 . S
C1256 H1275 0.930 . S
C1257 C1260 1.424 . S
C1257 C1262 1.245 . S
C1257 C1263 1.428 . S
C1258 C1261 1.260 . S
C1258 C1262 1.477 . S
C1258 H1276 0.932 . S
C1259 C1260 1.384 . S
C1259 C1261 1.479 . S
C1259 H1277 0.929 . S
C1260 C1257 1.424 . S
C1260 C1259 1.384 . S
C1260 H1278 0.928 . S
C1261 C1258 1.260 . S
C1261 C1259 1.479 . S
C1262 C1257 1.245 . S
C1262 C1258 1.477 . S
C1262 H1279 0.932 . S
C1263 U1246 2.882 . S
C1263 C1257 1.428 . S
C1263 O1266 1.301 . S
C1263 O1267 1.282 . S
O1264 U1246 2.441 . S
O1264 C1250 1.249 . S
O1265 U1246 2.420 . S
O1265 C1250 1.202 . S
O1266 U1246 2.455 . S
O1266 C1263 1.301 . S
O1267 U1246 2.449 . S
O1267 C1263 1.282 . S
H1268 C1241 0.931 . S
H1269 C1243 0.929 . S
H1270 C1244 0.930 . S
H1271 C1245 0.931 . S
H1272 C1252 0.932 . S
H1273 C1253 0.930 . S
H1274 C1254 0.929 . S
H1275 C1256 0.930 . S
H1276 C1258 0.932 . S
H1277 C1259 0.929 . S
H1278 C1260 0.928 . S
H1279 C1262 0.932 . S
H1280 C1299 0.949 . S
H1281 C1300 0.950 . S
H1282 C1302 0.950 . S
H1283 C1303 0.950 . S
H1284 C1305 0.950 . S
H1285 C1308 0.950 . S
H1286 C1309 0.950 . S
H1287 C1311 0.951 . S
H1288 C1312 0.949 . S
H1289 C1314 0.949 . S
H1290 C1315 0.950 . S
H1291 C1317 0.950 . S
H1292 C1318 0.950 . S
H1293 C1320 0.950 . S
H1294 C1323 0.950 . S
H1295 C1324 0.950 . S
H1296 C1326 0.951 . S
H1297 C1327 0.949 . S
C1298 C1299 1.376 . S
C1298 C1303 1.386 . S
C1298 C1304 1.483 . S
C1299 H1280 0.949 . S
C1299 C1298 1.376 . S
C1299 C1300 1.397 . S
C1300 H1281 0.950 . S
C1300 C1299 1.397 . S
C1300 C1301 1.391 . S
C1301 C1300 1.391 . S
C1301 C1302 1.405 . S
C1302 H1282 0.950 . S
C1302 C1301 1.405 . S
C1302 C1303 1.367 . S
C1303 H1283 0.950 . S
C1303 C1298 1.386 . S
C1303 C1302 1.367 . S
C1304 C1298 1.483 . S
C1304 C1305 1.382 1_556 S
C1304 C1306 1.403 . S
C1305 H1284 0.950 . S
C1305 C1304 1.382 1_554 S
C1305 C1321 1.411 . S
C1306 C1304 1.403 . S
C1306 C1307 1.489 . S
C1306 C1320 1.411 1_556 S
C1307 C1306 1.489 . S
C1307 C1308 1.383 . S
C1307 C1312 1.382 . S
C1308 H1285 0.950 . S
C1308 C1307 1.383 . S
C1308 C1309 1.395 . S
C1309 H1286 0.950 . S
C1309 C1308 1.395 . S
C1309 C1310 1.288 . S
C1310 C1309 1.288 . S
C1310 C1311 1.392 . S
C1311 H1287 0.951 . S
C1311 C1310 1.392 . S
C1311 C1312 1.392 . S
C1312 H1288 0.949 . S
C1312 C1307 1.382 . S
C1312 C1311 1.392 . S
C1313 C1314 1.376 . S
C1313 C1318 1.386 . S
C1313 C1319 1.483 . S
C1314 H1289 0.949 . S
C1314 C1313 1.376 . S
C1314 C1315 1.397 . S
C1315 H1290 0.950 . S
C1315 C1314 1.397 . S
C1315 C1316 1.391 . S
C1316 C1315 1.391 . S
C1316 C1317 1.405 . S
C1317 H1291 0.950 . S
C1317 C1316 1.405 . S
C1317 C1318 1.367 . S
C1318 H1292 0.950 . S
C1318 C1313 1.386 . S
C1318 C1317 1.367 . S
C1319 C1313 1.483 . S
C1319 C1320 1.382 . S
C1319 C1321 1.403 . S
C1320 H1293 0.950 . S
C1320 C1306 1.411 1_554 S
C1320 C1319 1.382 . S
C1321 C1305 1.411 . S
C1321 C1319 1.403 . S
C1321 C1322 1.489 . S
C1322 C1321 1.489 . S
C1322 C1323 1.383 . S
C1322 C1327 1.382 . S
C1323 H1294 0.950 . S
C1323 C1322 1.383 . S
C1323 C1324 1.395 . S
C1324 H1295 0.950 . S
C1324 C1323 1.395 . S
C1324 C1325 1.288 . S
C1325 C1324 1.288 . S
C1325 C1326 1.392 . S
C1326 H1296 0.951 . S
C1326 C1325 1.392 . S
C1326 C1327 1.392 . S
C1327 H1297 0.949 . S
C1327 C1322 1.382 . S
C1327 C1326 1.392 . S
H1328 C1347 0.949 . S
H1329 C1348 0.950 . S
H1330 C1350 0.950 . S
H1331 C1351 0.950 . S
H1332 C1353 0.950 . S
H1333 C1356 0.950 . S
H1334 C1357 0.950 . S
H1335 C1359 0.951 . S
H1336 C1360 0.949 . S
H1337 C1362 0.949 . S
H1338 C1363 0.950 . S
H1339 C1365 0.950 . S
H1340 C1366 0.950 . S
H1341 C1368 0.950 . S
H1342 C1371 0.950 . S
H1343 C1372 0.950 . S
H1344 C1374 0.951 . S
H1345 C1375 0.949 . S
C1346 C1347 1.376 . S
C1346 C1351 1.386 . S
C1346 C1352 1.483 . S
C1347 H1328 0.949 . S
C1347 C1346 1.376 . S
C1347 C1348 1.397 . S
C1348 H1329 0.950 . S
C1348 C1347 1.397 . S
C1348 C1349 1.391 . S
C1349 C1348 1.391 . S
C1349 C1350 1.405 . S
C1350 H1330 0.950 . S
C1350 C1349 1.405 . S
C1350 C1351 1.367 . S
C1351 H1331 0.950 . S
C1351 C1346 1.386 . S
C1351 C1350 1.367 . S
C1352 C1346 1.483 . S
C1352 C1353 1.382 1_556 S
C1352 C1354 1.403 . S
C1353 H1332 0.950 . S
C1353 C1352 1.382 1_554 S
C1353 C1369 1.411 . S
C1354 C1352 1.403 . S
C1354 C1355 1.489 . S
C1354 C1368 1.411 1_556 S
C1355 C1354 1.489 . S
C1355 C1356 1.383 . S
C1355 C1360 1.382 . S
C1356 H1333 0.950 . S
C1356 C1355 1.383 . S
C1356 C1357 1.395 . S
C1357 H1334 0.950 . S
C1357 C1356 1.395 . S
C1357 C1358 1.288 . S
C1358 C1357 1.288 . S
C1358 C1359 1.392 . S
C1359 H1335 0.951 . S
C1359 C1358 1.392 . S
C1359 C1360 1.392 . S
C1360 H1336 0.949 . S
C1360 C1355 1.382 . S
C1360 C1359 1.392 . S
C1361 C1362 1.376 . S
C1361 C1366 1.386 . S
C1361 C1367 1.483 . S
C1362 H1337 0.949 . S
C1362 C1361 1.376 . S
C1362 C1363 1.397 . S
C1363 H1338 0.950 . S
C1363 C1362 1.397 . S
C1363 C1364 1.391 . S
C1364 C1363 1.391 . S
C1364 C1365 1.405 . S
C1365 H1339 0.950 . S
C1365 C1364 1.405 . S
C1365 C1366 1.367 . S
C1366 H1340 0.950 . S
C1366 C1361 1.386 . S
C1366 C1365 1.367 . S
C1367 C1361 1.483 . S
C1367 C1368 1.382 . S
C1367 C1369 1.403 . S
C1368 H1341 0.950 . S
C1368 C1354 1.411 1_554 S
C1368 C1367 1.382 . S
C1369 C1353 1.411 . S
C1369 C1367 1.403 . S
C1369 C1370 1.489 . S
C1370 C1369 1.489 . S
C1370 C1371 1.383 . S
C1370 C1375 1.382 . S
C1371 H1342 0.950 . S
C1371 C1370 1.383 . S
C1371 C1372 1.395 . S
C1372 H1343 0.950 . S
C1372 C1371 1.395 . S
C1372 C1373 1.288 . S
C1373 C1372 1.288 . S
C1373 C1374 1.392 . S
C1374 H1344 0.951 . S
C1374 C1373 1.392 . S
C1374 C1375 1.392 . S
C1375 H1345 0.949 . S
C1375 C1370 1.382 . S
C1375 C1374 1.392 . S
H1376 C1395 0.949 . S
H1377 C1396 0.950 . S
H1378 C1398 0.950 . S
H1379 C1399 0.950 . S
H1380 C1401 0.950 . S
H1381 C1404 0.950 . S
H1382 C1405 0.950 . S
H1383 C1407 0.951 . S
H1384 C1408 0.949 . S
H1385 C1410 0.949 . S
H1386 C1411 0.950 . S
H1387 C1413 0.950 . S
H1388 C1414 0.950 . S
H1389 C1416 0.950 . S
H1390 C1419 0.950 . S
H1391 C1420 0.950 . S
H1392 C1422 0.951 . S
H1393 C1423 0.949 . S
C1394 C1395 1.376 . S
C1394 C1399 1.386 . S
C1394 C1400 1.483 . S
C1395 H1376 0.949 . S
C1395 C1394 1.376 . S
C1395 C1396 1.397 . S
C1396 H1377 0.950 . S
C1396 C1395 1.397 . S
C1396 C1397 1.391 . S
C1397 C1396 1.391 . S
C1397 C1398 1.405 . S
C1398 H1378 0.950 . S
C1398 C1397 1.405 . S
C1398 C1399 1.367 . S
C1399 H1379 0.950 . S
C1399 C1394 1.386 . S
C1399 C1398 1.367 . S
C1400 C1394 1.483 . S
C1400 C1401 1.382 . S
C1400 C1402 1.403 . S
C1401 H1380 0.950 . S
C1401 C1400 1.382 . S
C1401 C1417 1.411 1_554 S
C1402 C1400 1.403 . S
C1402 C1403 1.489 . S
C1402 C1416 1.411 . S
C1403 C1402 1.489 . S
C1403 C1404 1.383 . S
C1403 C1408 1.382 . S
C1404 H1381 0.950 . S
C1404 C1403 1.383 . S
C1404 C1405 1.395 . S
C1405 H1382 0.950 . S
C1405 C1404 1.395 . S
C1405 C1406 1.288 . S
C1406 C1405 1.288 . S
C1406 C1407 1.392 . S
C1407 H1383 0.951 . S
C1407 C1406 1.392 . S
C1407 C1408 1.392 . S
C1408 H1384 0.949 . S
C1408 C1403 1.382 . S
C1408 C1407 1.392 . S
C1409 C1410 1.376 . S
C1409 C1414 1.386 . S
C1409 C1415 1.483 . S
C1410 H1385 0.949 . S
C1410 C1409 1.376 . S
C1410 C1411 1.397 . S
C1411 H1386 0.950 . S
C1411 C1410 1.397 . S
C1411 C1412 1.391 . S
C1412 C1411 1.391 . S
C1412 C1413 1.405 . S
C1413 H1387 0.950 . S
C1413 C1412 1.405 . S
C1413 C1414 1.367 . S
C1414 H1388 0.950 . S
C1414 C1409 1.386 . S
C1414 C1413 1.367 . S
C1415 C1409 1.483 . S
C1415 C1416 1.382 1_556 S
C1415 C1417 1.403 . S
C1416 H1389 0.950 . S
C1416 C1402 1.411 . S
C1416 C1415 1.382 1_554 S
C1417 C1401 1.411 1_556 S
C1417 C1415 1.403 . S
C1417 C1418 1.489 . S
C1418 C1417 1.489 . S
C1418 C1419 1.383 . S
C1418 C1423 1.382 . S
C1419 H1390 0.950 . S
C1419 C1418 1.383 . S
C1419 C1420 1.395 . S
C1420 H1391 0.950 . S
C1420 C1419 1.395 . S
C1420 C1421 1.288 . S
C1421 C1420 1.288 . S
C1421 C1422 1.392 . S
C1422 H1392 0.951 . S
C1422 C1421 1.392 . S
C1422 C1423 1.392 . S
C1423 H1393 0.949 . S
C1423 C1418 1.382 . S
C1423 C1422 1.392 . S
H1424 C1443 0.949 . S
H1425 C1444 0.950 . S
H1426 C1446 0.950 . S
H1427 C1447 0.950 . S
H1428 C1449 0.950 . S
H1429 C1452 0.950 . S
H1430 C1453 0.950 . S
H1431 C1455 0.951 . S
H1432 C1456 0.949 . S
H1433 C1458 0.949 . S
H1434 C1459 0.950 . S
H1435 C1461 0.950 . S
H1436 C1462 0.950 . S
H1437 C1464 0.950 . S
H1438 C1467 0.950 . S
H1439 C1468 0.950 . S
H1440 C1470 0.951 . S
H1441 C1471 0.949 . S
C1442 C1443 1.376 . S
C1442 C1447 1.386 . S
C1442 C1448 1.483 . S
C1443 H1424 0.949 . S
C1443 C1442 1.376 . S
C1443 C1444 1.397 . S
C1444 H1425 0.950 . S
C1444 C1443 1.397 . S
C1444 C1445 1.391 . S
C1445 C1444 1.391 . S
C1445 C1446 1.405 . S
C1446 H1426 0.950 . S
C1446 C1445 1.405 . S
C1446 C1447 1.367 . S
C1447 H1427 0.950 . S
C1447 C1442 1.386 . S
C1447 C1446 1.367 . S
C1448 C1442 1.483 . S
C1448 C1449 1.382 1_556 S
C1448 C1450 1.403 . S
C1449 H1428 0.950 . S
C1449 C1448 1.382 1_554 S
C1449 C1465 1.411 . S
C1450 C1448 1.403 . S
C1450 C1451 1.489 . S
C1450 C1464 1.411 1_556 S
C1451 C1450 1.489 . S
C1451 C1452 1.383 . S
C1451 C1456 1.382 . S
C1452 H1429 0.950 . S
C1452 C1451 1.383 . S
C1452 C1453 1.395 . S
C1453 H1430 0.950 . S
C1453 C1452 1.395 . S
C1453 C1454 1.288 . S
C1454 C1453 1.288 . S
C1454 C1455 1.392 . S
C1455 H1431 0.951 . S
C1455 C1454 1.392 . S
C1455 C1456 1.392 . S
C1456 H1432 0.949 . S
C1456 C1451 1.382 . S
C1456 C1455 1.392 . S
C1457 C1458 1.376 . S
C1457 C1462 1.386 . S
C1457 C1463 1.483 . S
C1458 H1433 0.949 . S
C1458 C1457 1.376 . S
C1458 C1459 1.397 . S
C1459 H1434 0.950 . S
C1459 C1458 1.397 . S
C1459 C1460 1.391 . S
C1460 C1459 1.391 . S
C1460 C1461 1.405 . S
C1461 H1435 0.950 . S
C1461 C1460 1.405 . S
C1461 C1462 1.367 . S
C1462 H1436 0.950 . S
C1462 C1457 1.386 . S
C1462 C1461 1.367 . S
C1463 C1457 1.483 . S
C1463 C1464 1.382 . S
C1463 C1465 1.403 . S
C1464 H1437 0.950 . S
C1464 C1450 1.411 1_554 S
C1464 C1463 1.382 . S
C1465 C1449 1.411 . S
C1465 C1463 1.403 . S
C1465 C1466 1.489 . S
C1466 C1465 1.489 . S
C1466 C1467 1.383 . S
C1466 C1471 1.382 . S
C1467 H1438 0.950 . S
C1467 C1466 1.383 . S
C1467 C1468 1.395 . S
C1468 H1439 0.950 . S
C1468 C1467 1.395 . S
C1468 C1469 1.288 . S
C1469 C1468 1.288 . S
C1469 C1470 1.392 . S
C1470 H1440 0.951 . S
C1470 C1469 1.392 . S
C1470 C1471 1.392 . S
C1471 H1441 0.949 . S
C1471 C1466 1.382 . S
C1471 C1470 1.392 . S
H1472 C1491 0.949 . S
H1473 C1492 0.950 . S
H1474 C1494 0.950 . S
H1475 C1495 0.950 . S
H1476 C1497 0.950 . S
H1477 C1500 0.950 . S
H1478 C1501 0.950 . S
H1479 C1503 0.951 . S
H1480 C1504 0.949 . S
H1481 C1506 0.949 . S
H1482 C1507 0.950 . S
H1483 C1509 0.950 . S
H1484 C1510 0.950 . S
H1485 C1512 0.950 . S
H1486 C1515 0.950 . S
H1487 C1516 0.950 . S
H1488 C1518 0.951 . S
H1489 C1519 0.949 . S
C1490 C1491 1.376 . S
C1490 C1495 1.386 . S
C1490 C1496 1.483 . S
C1491 H1472 0.949 . S
C1491 C1490 1.376 . S
C1491 C1492 1.397 . S
C1492 H1473 0.950 . S
C1492 C1491 1.397 . S
C1492 C1493 1.391 . S
C1493 C1492 1.391 . S
C1493 C1494 1.405 . S
C1494 H1474 0.950 . S
C1494 C1493 1.405 . S
C1494 C1495 1.367 . S
C1495 H1475 0.950 . S
C1495 C1490 1.386 . S
C1495 C1494 1.367 . S
C1496 C1490 1.483 . S
C1496 C1497 1.382 . S
C1496 C1498 1.403 . S
C1497 H1476 0.950 . S
C1497 C1496 1.382 . S
C1497 C1513 1.411 1_455 S
C1498 C1496 1.403 . S
C1498 C1499 1.489 . S
C1498 C1512 1.411 . S
C1499 C1498 1.489 . S
C1499 C1500 1.383 . S
C1499 C1504 1.382 . S
C1500 H1477 0.950 . S
C1500 C1499 1.383 . S
C1500 C1501 1.395 . S
C1501 H1478 0.950 . S
C1501 C1500 1.395 . S
C1501 C1502 1.288 . S
C1502 C1501 1.288 . S
C1502 C1503 1.392 . S
C1503 H1479 0.951 . S
C1503 C1502 1.392 . S
C1503 C1504 1.392 . S
C1504 H1480 0.949 . S
C1504 C1499 1.382 . S
C1504 C1503 1.392 . S
C1505 C1506 1.376 . S
C1505 C1510 1.386 . S
C1505 C1511 1.483 . S
C1506 H1481 0.949 . S
C1506 C1505 1.376 . S
C1506 C1507 1.397 . S
C1507 H1482 0.950 . S
C1507 C1506 1.397 . S
C1507 C1508 1.391 . S
C1508 C1507 1.391 . S
C1508 C1509 1.405 . S
C1509 H1483 0.950 . S
C1509 C1508 1.405 . S
C1509 C1510 1.367 . S
C1510 H1484 0.950 . S
C1510 C1505 1.386 . S
C1510 C1509 1.367 . S
C1511 C1505 1.483 . S
C1511 C1512 1.382 1_655 S
C1511 C1513 1.403 . S
C1512 H1485 0.950 . S
C1512 C1498 1.411 . S
C1512 C1511 1.382 1_455 S
C1513 C1497 1.411 1_655 S
C1513 C1511 1.403 . S
C1513 C1514 1.489 . S
C1514 C1513 1.489 . S
C1514 C1515 1.383 . S
C1514 C1519 1.382 . S
C1515 H1486 0.950 . S
C1515 C1514 1.383 . S
C1515 C1516 1.395 . S
C1516 H1487 0.950 . S
C1516 C1515 1.395 . S
C1516 C1517 1.288 . S
C1517 C1516 1.288 . S
C1517 C1518 1.392 . S
C1518 H1488 0.951 . S
C1518 C1517 1.392 . S
C1518 C1519 1.392 . S
C1519 H1489 0.949 . S
C1519 C1514 1.382 . S
C1519 C1518 1.392 . S
H1520 C1539 0.949 . S
H1521 C1540 0.950 . S
H1522 C1542 0.950 . S
H1523 C1543 0.950 . S
H1524 C1545 0.950 . S
H1525 C1548 0.950 . S
H1526 C1549 0.950 . S
H1527 C1551 0.951 . S
H1528 C1552 0.949 . S
H1529 C1554 0.949 . S
H1530 C1555 0.950 . S
H1531 C1557 0.950 . S
H1532 C1558 0.950 . S
H1533 C1560 0.950 . S
H1534 C1563 0.950 . S
H1535 C1564 0.950 . S
H1536 C1566 0.951 . S
H1537 C1567 0.949 . S
C1538 C1539 1.376 . S
C1538 C1543 1.386 . S
C1538 C1544 1.483 . S
C1539 H1520 0.949 . S
C1539 C1538 1.376 . S
C1539 C1540 1.397 . S
C1540 H1521 0.950 . S
C1540 C1539 1.397 . S
C1540 C1541 1.391 . S
C1541 C1540 1.391 . S
C1541 C1542 1.405 . S
C1542 H1522 0.950 . S
C1542 C1541 1.405 . S
C1542 C1543 1.367 . S
C1543 H1523 0.950 . S
C1543 C1538 1.386 . S
C1543 C1542 1.367 . S
C1544 C1538 1.483 . S
C1544 C1545 1.382 . S
C1544 C1546 1.403 . S
C1545 H1524 0.950 . S
C1545 C1544 1.382 . S
C1545 C1561 1.411 1_545 S
C1546 C1544 1.403 . S
C1546 C1547 1.489 . S
C1546 C1560 1.406 1_545 S
C1547 C1546 1.489 . S
C1547 C1548 1.383 . S
C1547 C1552 1.382 . S
C1548 H1525 0.950 . S
C1548 C1547 1.383 . S
C1548 C1549 1.395 . S
C1549 H1526 0.950 . S
C1549 C1548 1.395 . S
C1549 C1550 1.288 . S
C1550 C1549 1.288 . S
C1550 C1551 1.392 . S
C1551 H1527 0.951 . S
C1551 C1550 1.392 . S
C1551 C1552 1.392 . S
C1552 H1528 0.949 . S
C1552 C1547 1.382 . S
C1552 C1551 1.392 . S
C1553 C1554 1.376 . S
C1553 C1558 1.386 . S
C1553 C1559 1.483 . S
C1554 H1529 0.949 . S
C1554 C1553 1.376 . S
C1554 C1555 1.397 . S
C1555 H1530 0.950 . S
C1555 C1554 1.397 . S
C1555 C1556 1.391 . S
C1556 C1555 1.391 . S
C1556 C1557 1.405 . S
C1557 H1531 0.950 . S
C1557 C1556 1.405 . S
C1557 C1558 1.367 . S
C1558 H1532 0.950 . S
C1558 C1553 1.386 . S
C1558 C1557 1.367 . S
C1559 C1553 1.483 . S
C1559 C1560 1.387 . S
C1559 C1561 1.403 . S
C1560 H1533 0.950 . S
C1560 C1546 1.406 1_565 S
C1560 C1559 1.387 . S
C1561 C1545 1.411 1_565 S
C1561 C1559 1.403 . S
C1561 C1562 1.489 . S
C1562 C1561 1.489 . S
C1562 C1563 1.383 . S
C1562 C1567 1.382 . S
C1563 H1534 0.950 . S
C1563 C1562 1.383 . S
C1563 C1564 1.395 . S
C1564 H1535 0.950 . S
C1564 C1563 1.395 . S
C1564 C1565 1.288 . S
C1565 C1564 1.288 . S
C1565 C1566 1.392 . S
C1566 H1536 0.951 . S
C1566 C1565 1.392 . S
C1566 C1567 1.392 . S
C1567 H1537 0.949 . S
C1567 C1562 1.382 . S
C1567 C1566 1.392 . S
H1568 C1587 0.949 . S
H1569 C1588 0.950 . S
H1570 C1590 0.950 . S
H1571 C1591 0.950 . S
H1572 C1593 0.955 . S
H1573 C1596 0.950 . S
H1574 C1597 0.950 . S
H1575 C1599 0.951 . S
H1576 C1600 0.949 . S
H1577 C1602 0.949 . S
H1578 C1603 0.950 . S
H1579 C1605 0.950 . S
H1580 C1606 0.950 . S
H1581 C1608 0.950 . S
H1582 C1611 0.950 . S
H1583 C1612 0.950 . S
H1584 C1614 0.951 . S
H1585 C1615 0.949 . S
C1586 C1587 1.376 . S
C1586 C1591 1.386 . S
C1586 C1592 1.483 . S
C1587 H1568 0.949 . S
C1587 C1586 1.376 . S
C1587 C1588 1.397 . S
C1588 H1569 0.950 . S
C1588 C1587 1.397 . S
C1588 C1589 1.391 . S
C1589 C1588 1.391 . S
C1589 C1590 1.405 . S
C1590 H1570 0.950 . S
C1590 C1589 1.405 . S
C1590 C1591 1.367 . S
C1591 H1571 0.950 . S
C1591 C1586 1.386 . S
C1591 C1590 1.367 . S
C1592 C1586 1.483 . S
C1592 C1593 1.452 . S
C1592 C1594 1.403 . S
C1593 H1572 0.955 . S
C1593 C1592 1.452 . S
C1593 C1609 1.340 1_455 S
C1594 C1592 1.403 . S
C1594 C1595 1.489 . S
C1594 C1608 1.430 . S
C1595 C1594 1.489 . S
C1595 C1596 1.383 . S
C1595 C1600 1.382 . S
C1596 H1573 0.950 . S
C1596 C1595 1.383 . S
C1596 C1597 1.395 . S
C1597 H1574 0.950 . S
C1597 C1596 1.395 . S
C1597 C1598 1.288 . S
C1598 C1597 1.288 . S
C1598 C1599 1.392 . S
C1599 H1575 0.951 . S
C1599 C1598 1.392 . S
C1599 C1600 1.392 . S
C1600 H1576 0.949 . S
C1600 C1595 1.382 . S
C1600 C1599 1.392 . S
C1601 C1602 1.376 . S
C1601 C1606 1.386 . S
C1601 C1607 1.483 . S
C1602 H1577 0.949 . S
C1602 C1601 1.376 . S
C1602 C1603 1.397 . S
C1603 H1578 0.950 . S
C1603 C1602 1.397 . S
C1603 C1604 1.391 . S
C1604 C1603 1.391 . S
C1604 C1605 1.405 . S
C1605 H1579 0.950 . S
C1605 C1604 1.405 . S
C1605 C1606 1.367 . S
C1606 H1580 0.950 . S
C1606 C1601 1.386 . S
C1606 C1605 1.367 . S
C1607 C1601 1.483 . S
C1607 C1608 1.363 1_655 S
C1607 C1609 1.403 . S
C1608 H1581 0.950 . S
C1608 C1594 1.430 . S
C1608 C1607 1.363 1_455 S
C1609 C1593 1.340 1_655 S
C1609 C1607 1.403 . S
C1609 C1610 1.489 . S
C1610 C1609 1.489 . S
C1610 C1611 1.383 . S
C1610 C1615 1.382 . S
C1611 H1582 0.950 . S
C1611 C1610 1.383 . S
C1611 C1612 1.395 . S
C1612 H1583 0.950 . S
C1612 C1611 1.395 . S
C1612 C1613 1.288 . S
C1613 C1612 1.288 . S
C1613 C1614 1.392 . S
C1614 H1584 0.951 . S
C1614 C1613 1.392 . S
C1614 C1615 1.392 . S
C1615 H1585 0.949 . S
C1615 C1610 1.382 . S
C1615 C1614 1.392 . S
H1616 C1635 0.949 . S
H1617 C1636 0.950 . S
H1618 C1638 0.950 . S
H1619 C1639 0.950 . S
H1620 C1641 0.950 . S
H1621 C1644 0.950 . S
H1622 C1645 0.950 . S
H1623 C1647 0.951 . S
H1624 C1648 0.949 . S
H1625 C1650 0.949 . S
H1626 C1651 0.950 . S
H1627 C1653 0.950 . S
H1628 C1654 0.950 . S
H1629 C1656 0.950 . S
H1630 C1659 0.950 . S
H1631 C1660 0.950 . S
H1632 C1662 0.951 . S
H1633 C1663 0.949 . S
C1634 C1635 1.376 . S
C1634 C1639 1.386 . S
C1634 C1640 1.483 . S
C1635 H1616 0.949 . S
C1635 C1634 1.376 . S
C1635 C1636 1.397 . S
C1636 H1617 0.950 . S
C1636 C1635 1.397 . S
C1636 C1637 1.391 . S
C1637 C1636 1.391 . S
C1637 C1638 1.405 . S
C1638 H1618 0.950 . S
C1638 C1637 1.405 . S
C1638 C1639 1.367 . S
C1639 H1619 0.950 . S
C1639 C1634 1.386 . S
C1639 C1638 1.367 . S
C1640 C1634 1.483 . S
C1640 C1641 1.382 . S
C1640 C1642 1.403 . S
C1641 H1620 0.950 . S
C1641 C1640 1.382 . S
C1641 C1657 1.411 1_545 S
C1642 C1640 1.403 . S
C1642 C1643 1.489 . S
C1642 C1656 1.411 . S
C1643 C1642 1.489 . S
C1643 C1644 1.383 . S
C1643 C1648 1.382 . S
C1644 H1621 0.950 . S
C1644 C1643 1.383 . S
C1644 C1645 1.395 . S
C1645 H1622 0.950 . S
C1645 C1644 1.395 . S
C1645 C1646 1.288 . S
C1646 C1645 1.288 . S
C1646 C1647 1.392 . S
C1647 H1623 0.951 . S
C1647 C1646 1.392 . S
C1647 C1648 1.392 . S
C1648 H1624 0.949 . S
C1648 C1643 1.382 . S
C1648 C1647 1.392 . S
C1649 C1650 1.376 . S
C1649 C1654 1.386 . S
C1649 C1655 1.483 . S
C1650 H1625 0.949 . S
C1650 C1649 1.376 . S
C1650 C1651 1.397 . S
C1651 H1626 0.950 . S
C1651 C1650 1.397 . S
C1651 C1652 1.391 . S
C1652 C1651 1.391 . S
C1652 C1653 1.405 . S
C1653 H1627 0.950 . S
C1653 C1652 1.405 . S
C1653 C1654 1.367 . S
C1654 H1628 0.950 . S
C1654 C1649 1.386 . S
C1654 C1653 1.367 . S
C1655 C1649 1.483 . S
C1655 C1656 1.382 1_565 S
C1655 C1657 1.403 . S
C1656 H1629 0.950 . S
C1656 C1642 1.411 . S
C1656 C1655 1.382 1_545 S
C1657 C1641 1.411 1_565 S
C1657 C1655 1.403 . S
C1657 C1658 1.489 . S
C1658 C1657 1.489 . S
C1658 C1659 1.383 . S
C1658 C1663 1.382 . S
C1659 H1630 0.950 . S
C1659 C1658 1.383 . S
C1659 C1660 1.395 . S
C1660 H1631 0.950 . S
C1660 C1659 1.395 . S
C1660 C1661 1.288 . S
C1661 C1660 1.288 . S
C1661 C1662 1.392 . S
C1662 H1632 0.951 . S
C1662 C1661 1.392 . S
C1662 C1663 1.392 . S
C1663 H1633 0.949 . S
C1663 C1658 1.382 . S
C1663 C1662 1.392 . S
H1664 C1683 0.949 . S
H1665 C1684 0.950 . S
H1666 C1686 0.950 . S
H1667 C1687 0.950 . S
H1668 C1689 0.950 . S
H1669 C1692 0.950 . S
H1670 C1693 0.950 . S
H1671 C1695 0.951 . S
H1672 C1696 0.949 . S
H1673 C1698 0.949 . S
H1674 C1699 0.950 . S
H1675 C1701 0.950 . S
H1676 C1702 0.950 . S
H1677 C1704 0.954 . S
H1678 C1707 0.950 . S
H1679 C1708 0.950 . S
H1680 C1710 0.951 . S
H1681 C1711 0.949 . S
C1682 C1683 1.376 . S
C1682 C1687 1.386 . S
C1682 C1688 1.483 . S
C1683 H1664 0.949 . S
C1683 C1682 1.376 . S
C1683 C1684 1.397 . S
C1684 H1665 0.950 . S
C1684 C1683 1.397 . S
C1684 C1685 1.391 . S
C1685 C1684 1.391 . S
C1685 C1686 1.405 . S
C1686 H1666 0.950 . S
C1686 C1685 1.405 . S
C1686 C1687 1.367 . S
C1687 H1667 0.950 . S
C1687 C1682 1.386 . S
C1687 C1686 1.367 . S
C1688 C1682 1.483 . S
C1688 C1689 1.382 . S
C1688 C1690 1.403 . S
C1689 H1668 0.950 . S
C1689 C1688 1.382 . S
C1689 C1705 1.411 1_455 S
C1690 C1688 1.403 . S
C1690 C1691 1.489 . S
C1690 C1704 1.411 . S
C1691 C1690 1.489 . S
C1691 C1692 1.383 . S
C1691 C1696 1.382 . S
C1692 H1669 0.950 . S
C1692 C1691 1.383 . S
C1692 C1693 1.395 . S
C1693 H1670 0.950 . S
C1693 C1692 1.395 . S
C1693 C1694 1.288 . S
C1694 C1693 1.288 . S
C1694 C1695 1.392 . S
C1695 H1671 0.951 . S
C1695 C1694 1.392 . S
C1695 C1696 1.392 . S
C1696 H1672 0.949 . S
C1696 C1691 1.382 . S
C1696 C1695 1.392 . S
C1697 C1698 1.376 . S
C1697 C1702 1.386 . S
C1697 C1703 1.483 . S
C1698 H1673 0.949 . S
C1698 C1697 1.376 . S
C1698 C1699 1.397 . S
C1699 H1674 0.950 . S
C1699 C1698 1.397 . S
C1699 C1700 1.391 . S
C1700 C1699 1.391 . S
C1700 C1701 1.405 . S
C1701 H1675 0.950 . S
C1701 C1700 1.405 . S
C1701 C1702 1.367 . S
C1702 H1676 0.950 . S
C1702 C1697 1.386 . S
C1702 C1701 1.367 . S
C1703 C1697 1.483 . S
C1703 C1704 1.382 1_655 S
C1703 C1705 1.403 . S
C1704 H1677 0.954 . S
C1704 C1690 1.411 . S
C1704 C1703 1.382 1_455 S
C1705 C1689 1.411 1_655 S
C1705 C1703 1.403 . S
C1705 C1706 1.489 . S
C1706 C1705 1.489 . S
C1706 C1707 1.383 . S
C1706 C1711 1.382 . S
C1707 H1678 0.950 . S
C1707 C1706 1.383 . S
C1707 C1708 1.395 . S
C1708 H1679 0.950 . S
C1708 C1707 1.395 . S
C1708 C1709 1.288 . S
C1709 C1708 1.288 . S
C1709 C1710 1.392 . S
C1710 H1680 0.951 . S
C1710 C1709 1.392 . S
C1710 C1711 1.392 . S
C1711 H1681 0.949 . S
C1711 C1706 1.382 . S
C1711 C1710 1.392 . S
H1712 C1731 0.949 . S
H1713 C1732 0.950 . S
H1714 C1734 0.950 . S
H1715 C1735 0.950 . S
H1716 C1737 0.950 . S
H1717 C1740 0.950 . S
H1718 C1741 0.950 . S
H1719 C1743 0.951 . S
H1720 C1744 0.949 . S
H1721 C1746 0.949 . S
H1722 C1747 0.950 . S
H1723 C1749 0.950 . S
H1724 C1750 0.950 . S
H1725 C1752 0.950 . S
H1726 C1755 0.950 . S
H1727 C1756 0.950 . S
H1728 C1758 0.951 . S
H1729 C1759 0.949 . S
C1730 C1731 1.376 . S
C1730 C1735 1.386 . S
C1730 C1736 1.483 . S
C1731 H1712 0.949 . S
C1731 C1730 1.376 . S
C1731 C1732 1.397 . S
C1732 H1713 0.950 . S
C1732 C1731 1.397 . S
C1732 C1733 1.391 . S
C1733 C1732 1.391 . S
C1733 C1734 1.405 . S
C1734 H1714 0.950 . S
C1734 C1733 1.405 . S
C1734 C1735 1.367 . S
C1735 H1715 0.950 . S
C1735 C1730 1.386 . S
C1735 C1734 1.367 . S
C1736 C1730 1.483 . S
C1736 C1737 1.382 . S
C1736 C1738 1.403 . S
C1737 H1716 0.950 . S
C1737 C1736 1.382 . S
C1737 C1753 1.411 1_545 S
C1738 C1736 1.403 . S
C1738 C1739 1.489 . S
C1738 C1752 1.406 1_545 S
C1739 C1738 1.489 . S
C1739 C1740 1.383 . S
C1739 C1744 1.382 . S
C1740 H1717 0.950 . S
C1740 C1739 1.383 . S
C1740 C1741 1.395 . S
C1741 H1718 0.950 . S
C1741 C1740 1.395 . S
C1741 C1742 1.288 . S
C1742 C1741 1.288 . S
C1742 C1743 1.392 . S
C1743 H1719 0.951 . S
C1743 C1742 1.392 . S
C1743 C1744 1.392 . S
C1744 H1720 0.949 . S
C1744 C1739 1.382 . S
C1744 C1743 1.392 . S
C1745 C1746 1.376 . S
C1745 C1750 1.386 . S
C1745 C1751 1.483 . S
C1746 H1721 0.949 . S
C1746 C1745 1.376 . S
C1746 C1747 1.397 . S
C1747 H1722 0.950 . S
C1747 C1746 1.397 . S
C1747 C1748 1.391 . S
C1748 C1747 1.391 . S
C1748 C1749 1.405 . S
C1749 H1723 0.950 . S
C1749 C1748 1.405 . S
C1749 C1750 1.367 . S
C1750 H1724 0.950 . S
C1750 C1745 1.386 . S
C1750 C1749 1.367 . S
C1751 C1745 1.483 . S
C1751 C1752 1.387 . S
C1751 C1753 1.403 . S
C1752 H1725 0.950 . S
C1752 C1738 1.406 1_565 S
C1752 C1751 1.387 . S
C1753 C1737 1.411 1_565 S
C1753 C1751 1.403 . S
C1753 C1754 1.489 . S
C1754 C1753 1.489 . S
C1754 C1755 1.383 . S
C1754 C1759 1.382 . S
C1755 H1726 0.950 . S
C1755 C1754 1.383 . S
C1755 C1756 1.395 . S
C1756 H1727 0.950 . S
C1756 C1755 1.395 . S
C1756 C1757 1.288 . S
C1757 C1756 1.288 . S
C1757 C1758 1.392 . S
C1758 H1728 0.951 . S
C1758 C1757 1.392 . S
C1758 C1759 1.392 . S
C1759 H1729 0.949 . S
C1759 C1754 1.382 . S
C1759 C1758 1.392 . S
H1760 C1779 0.949 . S
H1761 C1780 0.950 . S
H1762 C1782 0.950 . S
H1763 C1783 0.950 . S
H1764 C1785 0.950 . S
H1765 C1788 0.950 . S
H1766 C1789 0.950 . S
H1767 C1791 0.951 . S
H1768 C1792 0.949 . S
H1769 C1794 0.949 . S
H1770 C1795 0.950 . S
H1771 C1797 0.950 . S
H1772 C1798 0.950 . S
H1773 C1800 0.950 . S
H1774 C1803 0.950 . S
H1775 C1804 0.950 . S
H1776 C1806 0.951 . S
H1777 C1807 0.949 . S
C1778 C1779 1.376 . S
C1778 C1783 1.386 . S
C1778 C1784 1.483 . S
C1779 H1760 0.949 . S
C1779 C1778 1.376 . S
C1779 C1780 1.397 . S
C1780 H1761 0.950 . S
C1780 C1779 1.397 . S
C1780 C1781 1.391 . S
C1781 C1780 1.391 . S
C1781 C1782 1.405 . S
C1782 H1762 0.950 . S
C1782 C1781 1.405 . S
C1782 C1783 1.367 . S
C1783 H1763 0.950 . S
C1783 C1778 1.386 . S
C1783 C1782 1.367 . S
C1784 C1778 1.483 . S
C1784 C1785 1.368 1_655 S
C1784 C1786 1.403 . S
C1785 H1764 0.950 . S
C1785 C1784 1.368 1_455 S
C1785 C1801 1.425 . S
C1786 C1784 1.403 . S
C1786 C1787 1.489 . S
C1786 C1800 1.411 1_655 S
C1787 C1786 1.489 . S
C1787 C1788 1.383 . S
C1787 C1792 1.382 . S
C1788 H1765 0.950 . S
C1788 C1787 1.383 . S
C1788 C1789 1.395 . S
C1789 H1766 0.950 . S
C1789 C1788 1.395 . S
C1789 C1790 1.288 . S
C1790 C1789 1.288 . S
C1790 C1791 1.392 . S
C1791 H1767 0.951 . S
C1791 C1790 1.392 . S
C1791 C1792 1.392 . S
C1792 H1768 0.949 . S
C1792 C1787 1.382 . S
C1792 C1791 1.392 . S
C1793 C1794 1.376 . S
C1793 C1798 1.386 . S
C1793 C1799 1.483 . S
C1794 H1769 0.949 . S
C1794 C1793 1.376 . S
C1794 C1795 1.397 . S
C1795 H1770 0.950 . S
C1795 C1794 1.397 . S
C1795 C1796 1.391 . S
C1796 C1795 1.391 . S
C1796 C1797 1.405 . S
C1797 H1771 0.950 . S
C1797 C1796 1.405 . S
C1797 C1798 1.367 . S
C1798 H1772 0.950 . S
C1798 C1793 1.386 . S
C1798 C1797 1.367 . S
C1799 C1793 1.483 . S
C1799 C1800 1.382 . S
C1799 C1801 1.403 . S
C1800 H1773 0.950 . S
C1800 C1786 1.411 1_455 S
C1800 C1799 1.382 . S
C1801 C1785 1.425 . S
C1801 C1799 1.403 . S
C1801 C1802 1.489 . S
C1802 C1801 1.489 . S
C1802 C1803 1.383 . S
C1802 C1807 1.382 . S
C1803 H1774 0.950 . S
C1803 C1802 1.383 . S
C1803 C1804 1.395 . S
C1804 H1775 0.950 . S
C1804 C1803 1.395 . S
C1804 C1805 1.288 . S
C1805 C1804 1.288 . S
C1805 C1806 1.392 . S
C1806 H1776 0.951 . S
C1806 C1805 1.392 . S
C1806 C1807 1.392 . S
C1807 H1777 0.949 . S
C1807 C1802 1.382 . S
C1807 C1806 1.392 . S
H1808 C1827 0.949 . S
H1809 C1828 0.950 . S
H1810 C1830 0.950 . S
H1811 C1831 0.950 . S
H1812 C1833 0.950 . S
H1813 C1836 0.950 . S
H1814 C1837 0.950 . S
H1815 C1839 0.951 . S
H1816 C1840 0.949 . S
H1817 C1842 0.949 . S
H1818 C1843 0.950 . S
H1819 C1845 0.950 . S
H1820 C1846 0.950 . S
H1821 C1848 0.950 . S
H1822 C1851 0.950 . S
H1823 C1852 0.950 . S
H1824 C1854 0.951 . S
H1825 C1855 0.949 . S
C1826 C1827 1.376 . S
C1826 C1831 1.386 . S
C1826 C1832 1.483 . S
C1827 H1808 0.949 . S
C1827 C1826 1.376 . S
C1827 C1828 1.397 . S
C1828 H1809 0.950 . S
C1828 C1827 1.397 . S
C1828 C1829 1.391 . S
C1829 C1828 1.391 . S
C1829 C1830 1.405 . S
C1830 H1810 0.950 . S
C1830 C1829 1.405 . S
C1830 C1831 1.367 . S
C1831 H1811 0.950 . S
C1831 C1826 1.386 . S
C1831 C1830 1.367 . S
C1832 C1826 1.483 . S
C1832 C1833 1.382 . S
C1832 C1834 1.403 . S
C1833 H1812 0.950 . S
C1833 C1832 1.382 . S
C1833 C1849 1.411 1_545 S
C1834 C1832 1.403 . S
C1834 C1835 1.489 . S
C1834 C1848 1.411 . S
C1835 C1834 1.489 . S
C1835 C1836 1.383 . S
C1835 C1840 1.382 . S
C1836 H1813 0.950 . S
C1836 C1835 1.383 . S
C1836 C1837 1.395 . S
C1837 H1814 0.950 . S
C1837 C1836 1.395 . S
C1837 C1838 1.288 . S
C1838 C1837 1.288 . S
C1838 C1839 1.392 . S
C1839 H1815 0.951 . S
C1839 C1838 1.392 . S
C1839 C1840 1.392 . S
C1840 H1816 0.949 . S
C1840 C1835 1.382 . S
C1840 C1839 1.392 . S
C1841 C1842 1.376 . S
C1841 C1846 1.386 . S
C1841 C1847 1.483 . S
C1842 H1817 0.949 . S
C1842 C1841 1.376 . S
C1842 C1843 1.397 . S
C1843 H1818 0.950 . S
C1843 C1842 1.397 . S
C1843 C1844 1.391 . S
C1844 C1843 1.391 . S
C1844 C1845 1.405 . S
C1845 H1819 0.950 . S
C1845 C1844 1.405 . S
C1845 C1846 1.367 . S
C1846 H1820 0.950 . S
C1846 C1841 1.386 . S
C1846 C1845 1.367 . S
C1847 C1841 1.483 . S
C1847 C1848 1.382 1_565 S
C1847 C1849 1.403 . S
C1848 H1821 0.950 . S
C1848 C1834 1.411 . S
C1848 C1847 1.382 1_545 S
C1849 C1833 1.411 1_565 S
C1849 C1847 1.403 . S
C1849 C1850 1.489 . S
C1850 C1849 1.489 . S
C1850 C1851 1.383 . S
C1850 C1855 1.382 . S
C1851 H1822 0.950 . S
C1851 C1850 1.383 . S
C1851 C1852 1.395 . S
C1852 H1823 0.950 . S
C1852 C1851 1.395 . S
C1852 C1853 1.288 . S
C1853 C1852 1.288 . S
C1853 C1854 1.392 . S
C1854 H1824 0.951 . S
C1854 C1853 1.392 . S
C1854 C1855 1.392 . S
C1855 H1825 0.949 . S
C1855 C1850 1.382 . S
C1855 C1854 1.392 . S
H1856 C1875 0.949 . S
H1857 C1876 0.950 . S
H1858 C1878 0.950 . S
H1859 C1879 0.950 . S
H1860 C1881 0.950 . S
H1861 C1884 0.950 . S
H1862 C1885 0.950 . S
H1863 C1887 0.951 . S
H1864 C1888 0.949 . S
H1865 C1890 0.949 . S
H1866 C1891 0.950 . S
H1867 C1893 0.950 . S
H1868 C1894 0.950 . S
H1869 C1896 0.950 . S
H1870 C1899 0.950 . S
H1871 C1900 0.950 . S
H1872 C1902 0.951 . S
H1873 C1903 0.949 . S
C1874 C1875 1.376 . S
C1874 C1879 1.386 . S
C1874 C1880 1.483 . S
C1875 H1856 0.949 . S
C1875 C1874 1.376 . S
C1875 C1876 1.397 . S
C1876 H1857 0.950 . S
C1876 C1875 1.397 . S
C1876 C1877 1.391 . S
C1877 C1876 1.391 . S
C1877 C1878 1.405 . S
C1878 H1858 0.950 . S
C1878 C1877 1.405 . S
C1878 C1879 1.367 . S
C1879 H1859 0.950 . S
C1879 C1874 1.386 . S
C1879 C1878 1.367 . S
C1880 C1874 1.483 . S
C1880 C1881 1.382 . S
C1880 C1882 1.403 . S
C1881 H1860 0.950 . S
C1881 C1880 1.382 . S
C1881 C1897 1.411 . S
C1882 C1880 1.403 . S
C1882 C1883 1.489 . S
C1882 C1896 1.411 . S
C1883 C1882 1.489 . S
C1883 C1884 1.383 . S
C1883 C1888 1.382 . S
C1884 H1861 0.950 . S
C1884 C1883 1.383 . S
C1884 C1885 1.395 . S
C1885 H1862 0.950 . S
C1885 C1884 1.395 . S
C1885 C1886 1.288 . S
C1886 C1885 1.288 . S
C1886 C1887 1.392 . S
C1887 H1863 0.951 . S
C1887 C1886 1.392 . S
C1887 C1888 1.392 . S
C1888 H1864 0.949 . S
C1888 C1883 1.382 . S
C1888 C1887 1.392 . S
C1889 C1890 1.376 . S
C1889 C1894 1.386 . S
C1889 C1895 1.483 . S
C1890 H1865 0.949 . S
C1890 C1889 1.376 . S
C1890 C1891 1.397 . S
C1891 H1866 0.950 . S
C1891 C1890 1.397 . S
C1891 C1892 1.391 . S
C1892 C1891 1.391 . S
C1892 C1893 1.405 . S
C1893 H1867 0.950 . S
C1893 C1892 1.405 . S
C1893 C1894 1.367 . S
C1894 H1868 0.950 . S
C1894 C1889 1.386 . S
C1894 C1893 1.367 . S
C1895 C1889 1.483 . S
C1895 C1896 1.382 . S
C1895 C1897 1.403 . S
C1896 H1869 0.950 . S
C1896 C1882 1.411 . S
C1896 C1895 1.382 . S
C1897 C1881 1.411 . S
C1897 C1895 1.403 . S
C1897 C1898 1.489 . S
C1898 C1897 1.489 . S
C1898 C1899 1.383 . S
C1898 C1903 1.382 . S
C1899 H1870 0.950 . S
C1899 C1898 1.383 . S
C1899 C1900 1.395 . S
C1900 H1871 0.950 . S
C1900 C1899 1.395 . S
C1900 C1901 1.288 . S
C1901 C1900 1.288 . S
C1901 C1902 1.392 . S
C1902 H1872 0.951 . S
C1902 C1901 1.392 . S
C1902 C1903 1.392 . S
C1903 H1873 0.949 . S
C1903 C1898 1.382 . S
C1903 C1902 1.392 . S
H1904 C1923 0.949 . S
H1905 C1924 0.950 . S
H1906 C1926 0.950 . S
H1907 C1927 0.950 . S
H1908 C1929 0.950 . S
H1909 C1932 0.950 . S
H1910 C1933 0.950 . S
H1911 C1935 0.951 . S
H1912 C1936 0.949 . S
H1913 C1938 0.949 . S
H1914 C1939 0.950 . S
H1915 C1941 0.950 . S
H1916 C1942 0.950 . S
H1917 C1944 0.950 . S
H1918 C1947 0.950 . S
H1919 C1948 0.950 . S
H1920 C1950 0.951 . S
H1921 C1951 0.949 . S
C1922 C1923 1.376 . S
C1922 C1927 1.386 . S
C1922 C1928 1.483 . S
C1923 H1904 0.949 . S
C1923 C1922 1.376 . S
C1923 C1924 1.397 . S
C1924 H1905 0.950 . S
C1924 C1923 1.397 . S
C1924 C1925 1.391 . S
C1925 C1924 1.391 . S
C1925 C1926 1.405 . S
C1926 H1906 0.950 . S
C1926 C1925 1.405 . S
C1926 C1927 1.367 . S
C1927 H1907 0.950 . S
C1927 C1922 1.386 . S
C1927 C1926 1.367 . S
C1928 C1922 1.483 . S
C1928 C1929 1.382 . S
C1928 C1930 1.403 . S
C1929 H1908 0.950 . S
C1929 C1928 1.382 . S
C1929 C1945 1.411 . S
C1930 C1928 1.403 . S
C1930 C1931 1.489 . S
C1930 C1944 1.411 . S
C1931 C1930 1.489 . S
C1931 C1932 1.383 . S
C1931 C1936 1.382 . S
C1932 H1909 0.950 . S
C1932 C1931 1.383 . S
C1932 C1933 1.395 . S
C1933 H1910 0.950 . S
C1933 C1932 1.395 . S
C1933 C1934 1.288 . S
C1934 C1933 1.288 . S
C1934 C1935 1.392 . S
C1935 H1911 0.951 . S
C1935 C1934 1.392 . S
C1935 C1936 1.392 . S
C1936 H1912 0.949 . S
C1936 C1931 1.382 . S
C1936 C1935 1.392 . S
C1937 C1938 1.376 . S
C1937 C1942 1.386 . S
C1937 C1943 1.483 . S
C1938 H1913 0.949 . S
C1938 C1937 1.376 . S
C1938 C1939 1.397 . S
C1939 H1914 0.950 . S
C1939 C1938 1.397 . S
C1939 C1940 1.391 . S
C1940 C1939 1.391 . S
C1940 C1941 1.405 . S
C1941 H1915 0.950 . S
C1941 C1940 1.405 . S
C1941 C1942 1.367 . S
C1942 H1916 0.950 . S
C1942 C1937 1.386 . S
C1942 C1941 1.367 . S
C1943 C1937 1.483 . S
C1943 C1944 1.382 . S
C1943 C1945 1.403 . S
C1944 H1917 0.950 . S
C1944 C1930 1.411 . S
C1944 C1943 1.382 . S
C1945 C1929 1.411 . S
C1945 C1943 1.403 . S
C1945 C1946 1.489 . S
C1946 C1945 1.489 . S
C1946 C1947 1.383 . S
C1946 C1951 1.382 . S
C1947 H1918 0.950 . S
C1947 C1946 1.383 . S
C1947 C1948 1.395 . S
C1948 H1919 0.950 . S
C1948 C1947 1.395 . S
C1948 C1949 1.288 . S
C1949 C1948 1.288 . S
C1949 C1950 1.392 . S
C1950 H1920 0.951 . S
C1950 C1949 1.392 . S
C1950 C1951 1.392 . S
C1951 H1921 0.949 . S
C1951 C1946 1.382 . S
C1951 C1950 1.392 . S
H1952 C1971 0.949 . S
H1953 C1972 0.950 . S
H1954 C1974 0.950 . S
H1955 C1975 0.950 . S
H1956 C1977 0.950 . S
H1957 C1980 0.950 . S
H1958 C1981 0.950 . S
H1959 C1983 0.951 . S
H1960 C1984 0.949 . S
H1961 C1986 0.949 . S
H1962 C1987 0.950 . S
H1963 C1989 0.950 . S
H1964 C1990 0.950 . S
H1965 C1992 0.950 . S
H1966 C1995 0.950 . S
H1967 C1996 0.950 . S
H1968 C1998 0.951 . S
H1969 C1999 0.949 . S
C1970 C1971 1.376 . S
C1970 C1975 1.386 . S
C1970 C1976 1.483 . S
C1971 H1952 0.949 . S
C1971 C1970 1.376 . S
C1971 C1972 1.397 . S
C1972 H1953 0.950 . S
C1972 C1971 1.397 . S
C1972 C1973 1.391 . S
C1973 C1972 1.391 . S
C1973 C1974 1.405 . S
C1974 H1954 0.950 . S
C1974 C1973 1.405 . S
C1974 C1975 1.367 . S
C1975 H1955 0.950 . S
C1975 C1970 1.386 . S
C1975 C1974 1.367 . S
C1976 C1970 1.483 . S
C1976 C1977 1.382 . S
C1976 C1978 1.403 . S
C1977 H1956 0.950 . S
C1977 C1976 1.382 . S
C1977 C1993 1.411 . S
C1978 C1976 1.403 . S
C1978 C1979 1.489 . S
C1978 C1992 1.411 . S
C1979 C1978 1.489 . S
C1979 C1980 1.383 . S
C1979 C1984 1.382 . S
C1980 H1957 0.950 . S
C1980 C1979 1.383 . S
C1980 C1981 1.395 . S
C1981 H1958 0.950 . S
C1981 C1980 1.395 . S
C1981 C1982 1.288 . S
C1982 C1981 1.288 . S
C1982 C1983 1.392 . S
C1983 H1959 0.951 . S
C1983 C1982 1.392 . S
C1983 C1984 1.392 . S
C1984 H1960 0.949 . S
C1984 C1979 1.382 . S
C1984 C1983 1.392 . S
C1985 C1986 1.376 . S
C1985 C1990 1.386 . S
C1985 C1991 1.483 . S
C1986 H1961 0.949 . S
C1986 C1985 1.376 . S
C1986 C1987 1.397 . S
C1987 H1962 0.950 . S
C1987 C1986 1.397 . S
C1987 C1988 1.391 . S
C1988 C1987 1.391 . S
C1988 C1989 1.405 . S
C1989 H1963 0.950 . S
C1989 C1988 1.405 . S
C1989 C1990 1.367 . S
C1990 H1964 0.950 . S
C1990 C1985 1.386 . S
C1990 C1989 1.367 . S
C1991 C1985 1.483 . S
C1991 C1992 1.382 . S
C1991 C1993 1.403 . S
C1992 H1965 0.950 . S
C1992 C1978 1.411 . S
C1992 C1991 1.382 . S
C1993 C1977 1.411 . S
C1993 C1991 1.403 . S
C1993 C1994 1.489 . S
C1994 C1993 1.489 . S
C1994 C1995 1.383 . S
C1994 C1999 1.382 . S
C1995 H1966 0.950 . S
C1995 C1994 1.383 . S
C1995 C1996 1.395 . S
C1996 H1967 0.950 . S
C1996 C1995 1.395 . S
C1996 C1997 1.288 . S
C1997 C1996 1.288 . S
C1997 C1998 1.392 . S
C1998 H1968 0.951 . S
C1998 C1997 1.392 . S
C1998 C1999 1.392 . S
C1999 H1969 0.949 . S
C1999 C1994 1.382 . S
C1999 C1998 1.392 . S
H2000 C2019 0.949 . S
H2001 C2020 0.950 . S
H2002 C2022 0.950 . S
H2003 C2023 0.950 . S
H2004 C2025 0.950 . S
H2005 C2028 0.950 . S
H2006 C2029 0.950 . S
H2007 C2031 0.951 . S
H2008 C2032 0.949 . S
H2009 C2034 0.949 . S
H2010 C2035 0.950 . S
H2011 C2037 0.950 . S
H2012 C2038 0.950 . S
H2013 C2040 0.950 . S
H2014 C2043 0.950 . S
H2015 C2044 0.950 . S
H2016 C2046 0.951 . S
H2017 C2047 0.949 . S
C2018 C2019 1.376 . S
C2018 C2023 1.386 . S
C2018 C2024 1.483 . S
C2019 H2000 0.949 . S
C2019 C2018 1.376 . S
C2019 C2020 1.397 . S
C2020 H2001 0.950 . S
C2020 C2019 1.397 . S
C2020 C2021 1.391 . S
C2021 C2020 1.391 . S
C2021 C2022 1.405 . S
C2022 H2002 0.950 . S
C2022 C2021 1.405 . S
C2022 C2023 1.367 . S
C2023 H2003 0.950 . S
C2023 C2018 1.386 . S
C2023 C2022 1.367 . S
C2024 C2018 1.483 . S
C2024 C2025 1.382 . S
C2024 C2026 1.403 . S
C2025 H2004 0.950 . S
C2025 C2024 1.382 . S
C2025 C2041 1.411 . S
C2026 C2024 1.403 . S
C2026 C2027 1.489 . S
C2026 C2040 1.411 . S
C2027 C2026 1.489 . S
C2027 C2028 1.383 . S
C2027 C2032 1.382 . S
C2028 H2005 0.950 . S
C2028 C2027 1.383 . S
C2028 C2029 1.395 . S
C2029 H2006 0.950 . S
C2029 C2028 1.395 . S
C2029 C2030 1.288 . S
C2030 C2029 1.288 . S
C2030 C2031 1.392 . S
C2031 H2007 0.951 . S
C2031 C2030 1.392 . S
C2031 C2032 1.392 . S
C2032 H2008 0.949 . S
C2032 C2027 1.382 . S
C2032 C2031 1.392 . S
C2033 C2034 1.376 . S
C2033 C2038 1.386 . S
C2033 C2039 1.483 . S
C2034 H2009 0.949 . S
C2034 C2033 1.376 . S
C2034 C2035 1.397 . S
C2035 H2010 0.950 . S
C2035 C2034 1.397 . S
C2035 C2036 1.391 . S
C2036 C2035 1.391 . S
C2036 C2037 1.405 . S
C2037 H2011 0.950 . S
C2037 C2036 1.405 . S
C2037 C2038 1.367 . S
C2038 H2012 0.950 . S
C2038 C2033 1.386 . S
C2038 C2037 1.367 . S
C2039 C2033 1.483 . S
C2039 C2040 1.382 . S
C2039 C2041 1.403 . S
C2040 H2013 0.950 . S
C2040 C2026 1.411 . S
C2040 C2039 1.382 . S
C2041 C2025 1.411 . S
C2041 C2039 1.403 . S
C2041 C2042 1.489 . S
C2042 C2041 1.489 . S
C2042 C2043 1.383 . S
C2042 C2047 1.382 . S
C2043 H2014 0.950 . S
C2043 C2042 1.383 . S
C2043 C2044 1.395 . S
C2044 H2015 0.950 . S
C2044 C2043 1.395 . S
C2044 C2045 1.288 . S
C2045 C2044 1.288 . S
C2045 C2046 1.392 . S
C2046 H2016 0.951 . S
C2046 C2045 1.392 . S
C2046 C2047 1.392 . S
C2047 H2017 0.949 . S
C2047 C2042 1.382 . S
C2047 C2046 1.392 . S
H2048 C2067 0.949 . S
H2049 C2068 0.950 . S
H2050 C2070 0.950 . S
H2051 C2071 0.950 . S
H2052 C2073 0.950 . S
H2053 C2076 0.950 . S
H2054 C2077 0.950 . S
H2055 C2079 0.951 . S
H2056 C2080 0.949 . S
H2057 C2082 0.949 . S
H2058 C2083 0.950 . S
H2059 C2085 0.950 . S
H2060 C2086 0.950 . S
H2061 C2088 0.950 . S
H2062 C2091 0.950 . S
H2063 C2092 0.950 . S
H2064 C2094 0.951 . S
H2065 C2095 0.949 . S
C2066 C2067 1.376 . S
C2066 C2071 1.386 . S
C2066 C2072 1.483 . S
C2067 H2048 0.949 . S
C2067 C2066 1.376 . S
C2067 C2068 1.397 . S
C2068 H2049 0.950 . S
C2068 C2067 1.397 . S
C2068 C2069 1.391 . S
C2069 C2068 1.391 . S
C2069 C2070 1.405 . S
C2070 H2050 0.950 . S
C2070 C2069 1.405 . S
C2070 C2071 1.367 . S
C2071 H2051 0.950 . S
C2071 C2066 1.386 . S
C2071 C2070 1.367 . S
C2072 C2066 1.483 . S
C2072 C2073 1.382 . S
C2072 C2074 1.403 . S
C2073 H2052 0.950 . S
C2073 C2072 1.382 . S
C2073 C2089 1.411 . S
C2074 C2072 1.403 . S
C2074 C2075 1.489 . S
C2074 C2088 1.411 . S
C2075 C2074 1.489 . S
C2075 C2076 1.383 . S
C2075 C2080 1.382 . S
C2076 H2053 0.950 . S
C2076 C2075 1.383 . S
C2076 C2077 1.395 . S
C2077 H2054 0.950 . S
C2077 C2076 1.395 . S
C2077 C2078 1.288 . S
C2078 C2077 1.288 . S
C2078 C2079 1.392 . S
C2079 H2055 0.951 . S
C2079 C2078 1.392 . S
C2079 C2080 1.392 . S
C2080 H2056 0.949 . S
C2080 C2075 1.382 . S
C2080 C2079 1.392 . S
C2081 C2082 1.376 . S
C2081 C2086 1.386 . S
C2081 C2087 1.483 . S
C2082 H2057 0.949 . S
C2082 C2081 1.376 . S
C2082 C2083 1.397 . S
C2083 H2058 0.950 . S
C2083 C2082 1.397 . S
C2083 C2084 1.391 . S
C2084 C2083 1.391 . S
C2084 C2085 1.405 . S
C2085 H2059 0.950 . S
C2085 C2084 1.405 . S
C2085 C2086 1.367 . S
C2086 H2060 0.950 . S
C2086 C2081 1.386 . S
C2086 C2085 1.367 . S
C2087 C2081 1.483 . S
C2087 C2088 1.382 . S
C2087 C2089 1.403 . S
C2088 H2061 0.950 . S
C2088 C2074 1.411 . S
C2088 C2087 1.382 . S
C2089 C2073 1.411 . S
C2089 C2087 1.403 . S
C2089 C2090 1.489 . S
C2090 C2089 1.489 . S
C2090 C2091 1.383 . S
C2090 C2095 1.382 . S
C2091 H2062 0.950 . S
C2091 C2090 1.383 . S
C2091 C2092 1.395 . S
C2092 H2063 0.950 . S
C2092 C2091 1.395 . S
C2092 C2093 1.288 . S
C2093 C2092 1.288 . S
C2093 C2094 1.392 . S
C2094 H2064 0.951 . S
C2094 C2093 1.392 . S
C2094 C2095 1.392 . S
C2095 H2065 0.949 . S
C2095 C2090 1.382 . S
C2095 C2094 1.392 . S
H2096 C2115 0.949 . S
H2097 C2116 0.950 . S
H2098 C2118 0.950 . S
H2099 C2119 0.950 . S
H2100 C2121 0.950 . S
H2101 C2124 0.950 . S
H2102 C2125 0.950 . S
H2103 C2127 0.951 . S
H2104 C2128 0.949 . S
H2105 C2130 0.949 . S
H2106 C2131 0.950 . S
H2107 C2133 0.950 . S
H2108 C2134 0.950 . S
H2109 C2136 0.950 . S
H2110 C2139 0.950 . S
H2111 C2140 0.950 . S
H2112 C2142 0.951 . S
H2113 C2143 0.949 . S
C2114 C2115 1.376 . S
C2114 C2119 1.386 . S
C2114 C2120 1.483 . S
C2115 H2096 0.949 . S
C2115 C2114 1.376 . S
C2115 C2116 1.397 . S
C2116 H2097 0.950 . S
C2116 C2115 1.397 . S
C2116 C2117 1.391 . S
C2117 C2116 1.391 . S
C2117 C2118 1.405 . S
C2118 H2098 0.950 . S
C2118 C2117 1.405 . S
C2118 C2119 1.367 . S
C2119 H2099 0.950 . S
C2119 C2114 1.386 . S
C2119 C2118 1.367 . S
C2120 C2114 1.483 . S
C2120 C2121 1.382 . S
C2120 C2122 1.403 . S
C2121 H2100 0.950 . S
C2121 C2120 1.382 . S
C2121 C2137 1.411 . S
C2122 C2120 1.403 . S
C2122 C2123 1.489 . S
C2122 C2136 1.411 . S
C2123 C2122 1.489 . S
C2123 C2124 1.383 . S
C2123 C2128 1.382 . S
C2124 H2101 0.950 . S
C2124 C2123 1.383 . S
C2124 C2125 1.395 . S
C2125 H2102 0.950 . S
C2125 C2124 1.395 . S
C2125 C2126 1.288 . S
C2126 C2125 1.288 . S
C2126 C2127 1.392 . S
C2127 H2103 0.951 . S
C2127 C2126 1.392 . S
C2127 C2128 1.392 . S
C2128 H2104 0.949 . S
C2128 C2123 1.382 . S
C2128 C2127 1.392 . S
C2129 C2130 1.376 . S
C2129 C2134 1.386 . S
C2129 C2135 1.483 . S
C2130 H2105 0.949 . S
C2130 C2129 1.376 . S
C2130 C2131 1.397 . S
C2131 H2106 0.950 . S
C2131 C2130 1.397 . S
C2131 C2132 1.391 . S
C2132 C2131 1.391 . S
C2132 C2133 1.405 . S
C2133 H2107 0.950 . S
C2133 C2132 1.405 . S
C2133 C2134 1.367 . S
C2134 H2108 0.950 . S
C2134 C2129 1.386 . S
C2134 C2133 1.367 . S
C2135 C2129 1.483 . S
C2135 C2136 1.382 . S
C2135 C2137 1.403 . S
C2136 H2109 0.950 . S
C2136 C2122 1.411 . S
C2136 C2135 1.382 . S
C2137 C2121 1.411 . S
C2137 C2135 1.403 . S
C2137 C2138 1.489 . S
C2138 C2137 1.489 . S
C2138 C2139 1.383 . S
C2138 C2143 1.382 . S
C2139 H2110 0.950 . S
C2139 C2138 1.383 . S
C2139 C2140 1.395 . S
C2140 H2111 0.950 . S
C2140 C2139 1.395 . S
C2140 C2141 1.288 . S
C2141 C2140 1.288 . S
C2141 C2142 1.392 . S
C2142 H2112 0.951 . S
C2142 C2141 1.392 . S
C2142 C2143 1.392 . S
C2143 H2113 0.949 . S
C2143 C2138 1.382 . S
C2143 C2142 1.392 . S
H2144 C2163 0.949 . S
H2145 C2164 0.950 . S
H2146 C2166 0.950 . S
H2147 C2167 0.950 . S
H2148 C2169 0.950 . S
H2149 C2172 0.950 . S
H2150 C2173 0.950 . S
H2151 C2175 0.951 . S
H2152 C2176 0.949 . S
H2153 C2178 0.949 . S
H2154 C2179 0.950 . S
H2155 C2181 0.950 . S
H2156 C2182 0.950 . S
H2157 C2184 0.950 . S
H2158 C2187 0.950 . S
H2159 C2188 0.950 . S
H2160 C2190 0.951 . S
H2161 C2191 0.949 . S
C2162 C2163 1.376 . S
C2162 C2167 1.386 . S
C2162 C2168 1.483 . S
C2163 H2144 0.949 . S
C2163 C2162 1.376 . S
C2163 C2164 1.397 . S
C2164 H2145 0.950 . S
C2164 C2163 1.397 . S
C2164 C2165 1.391 . S
C2165 C2164 1.391 . S
C2165 C2166 1.405 . S
C2166 H2146 0.950 . S
C2166 C2165 1.405 . S
C2166 C2167 1.367 . S
C2167 H2147 0.950 . S
C2167 C2162 1.386 . S
C2167 C2166 1.367 . S
C2168 C2162 1.483 . S
C2168 C2169 1.382 . S
C2168 C2170 1.403 . S
C2169 H2148 0.950 . S
C2169 C2168 1.382 . S
C2169 C2185 1.411 . S
C2170 C2168 1.403 . S
C2170 C2171 1.489 . S
C2170 C2184 1.411 . S
C2171 C2170 1.489 . S
C2171 C2172 1.383 . S
C2171 C2176 1.382 . S
C2172 H2149 0.950 . S
C2172 C2171 1.383 . S
C2172 C2173 1.395 . S
C2173 H2150 0.950 . S
C2173 C2172 1.395 . S
C2173 C2174 1.288 . S
C2174 C2173 1.288 . S
C2174 C2175 1.392 . S
C2175 H2151 0.951 . S
C2175 C2174 1.392 . S
C2175 C2176 1.392 . S
C2176 H2152 0.949 . S
C2176 C2171 1.382 . S
C2176 C2175 1.392 . S
C2177 C2178 1.376 . S
C2177 C2182 1.386 . S
C2177 C2183 1.483 . S
C2178 H2153 0.949 . S
C2178 C2177 1.376 . S
C2178 C2179 1.397 . S
C2179 H2154 0.950 . S
C2179 C2178 1.397 . S
C2179 C2180 1.391 . S
C2180 C2179 1.391 . S
C2180 C2181 1.405 . S
C2181 H2155 0.950 . S
C2181 C2180 1.405 . S
C2181 C2182 1.367 . S
C2182 H2156 0.950 . S
C2182 C2177 1.386 . S
C2182 C2181 1.367 . S
C2183 C2177 1.483 . S
C2183 C2184 1.382 . S
C2183 C2185 1.403 . S
C2184 H2157 0.950 . S
C2184 C2170 1.411 . S
C2184 C2183 1.382 . S
C2185 C2169 1.411 . S
C2185 C2183 1.403 . S
C2185 C2186 1.489 . S
C2186 C2185 1.489 . S
C2186 C2187 1.383 . S
C2186 C2191 1.382 . S
C2187 H2158 0.950 . S
C2187 C2186 1.383 . S
C2187 C2188 1.395 . S
C2188 H2159 0.950 . S
C2188 C2187 1.395 . S
C2188 C2189 1.288 . S
C2189 C2188 1.288 . S
C2189 C2190 1.392 . S
C2190 H2160 0.951 . S
C2190 C2189 1.392 . S
C2190 C2191 1.392 . S
C2191 H2161 0.949 . S
C2191 C2186 1.382 . S
C2191 C2190 1.392 . S
H2192 C2211 0.949 . S
H2193 C2212 0.950 . S
H2194 C2214 0.950 . S
H2195 C2215 0.950 . S
H2196 C2217 0.950 . S
H2197 C2220 0.950 . S
H2198 C2221 0.950 . S
H2199 C2223 0.951 . S
H2200 C2224 0.949 . S
H2201 C2226 0.949 . S
H2202 C2227 0.950 . S
H2203 C2229 0.950 . S
H2204 C2230 0.950 . S
H2205 C2232 0.950 . S
H2206 C2235 0.950 . S
H2207 C2236 0.950 . S
H2208 C2238 0.951 . S
H2209 C2239 0.949 . S
C2210 C2211 1.376 . S
C2210 C2215 1.386 . S
C2210 C2216 1.483 . S
C2211 H2192 0.949 . S
C2211 C2210 1.376 . S
C2211 C2212 1.397 . S
C2212 H2193 0.950 . S
C2212 C2211 1.397 . S
C2212 C2213 1.391 . S
C2213 C2212 1.391 . S
C2213 C2214 1.405 . S
C2214 H2194 0.950 . S
C2214 C2213 1.405 . S
C2214 C2215 1.367 . S
C2215 H2195 0.950 . S
C2215 C2210 1.386 . S
C2215 C2214 1.367 . S
C2216 C2210 1.483 . S
C2216 C2217 1.382 . S
C2216 C2218 1.403 . S
C2217 H2196 0.950 . S
C2217 C2216 1.382 . S
C2217 C2233 1.411 . S
C2218 C2216 1.403 . S
C2218 C2219 1.489 . S
C2218 C2232 1.411 . S
C2219 C2218 1.489 . S
C2219 C2220 1.383 . S
C2219 C2224 1.382 . S
C2220 H2197 0.950 . S
C2220 C2219 1.383 . S
C2220 C2221 1.395 . S
C2221 H2198 0.950 . S
C2221 C2220 1.395 . S
C2221 C2222 1.288 . S
C2222 C2221 1.288 . S
C2222 C2223 1.392 . S
C2223 H2199 0.951 . S
C2223 C2222 1.392 . S
C2223 C2224 1.392 . S
C2224 H2200 0.949 . S
C2224 C2219 1.382 . S
C2224 C2223 1.392 . S
C2225 C2226 1.376 . S
C2225 C2230 1.386 . S
C2225 C2231 1.483 . S
C2226 H2201 0.949 . S
C2226 C2225 1.376 . S
C2226 C2227 1.397 . S
C2227 H2202 0.950 . S
C2227 C2226 1.397 . S
C2227 C2228 1.391 . S
C2228 C2227 1.391 . S
C2228 C2229 1.405 . S
C2229 H2203 0.950 . S
C2229 C2228 1.405 . S
C2229 C2230 1.367 . S
C2230 H2204 0.950 . S
C2230 C2225 1.386 . S
C2230 C2229 1.367 . S
C2231 C2225 1.483 . S
C2231 C2232 1.382 . S
C2231 C2233 1.403 . S
C2232 H2205 0.950 . S
C2232 C2218 1.411 . S
C2232 C2231 1.382 . S
C2233 C2217 1.411 . S
C2233 C2231 1.403 . S
C2233 C2234 1.489 . S
C2234 C2233 1.489 . S
C2234 C2235 1.383 . S
C2234 C2239 1.382 . S
C2235 H2206 0.950 . S
C2235 C2234 1.383 . S
C2235 C2236 1.395 . S
C2236 H2207 0.950 . S
C2236 C2235 1.395 . S
C2236 C2237 1.288 . S
C2237 C2236 1.288 . S
C2237 C2238 1.392 . S
C2238 H2208 0.951 . S
C2238 C2237 1.392 . S
C2238 C2239 1.392 . S
C2239 H2209 0.949 . S
C2239 C2234 1.382 . S
C2239 C2238 1.392 . S
H2240 C2259 0.949 . S
H2241 C2260 0.950 . S
H2242 C2262 0.950 . S
H2243 C2263 0.950 . S
H2244 C2265 0.950 . S
H2245 C2268 0.950 . S
H2246 C2269 0.950 . S
H2247 C2271 0.951 . S
H2248 C2272 0.949 . S
H2249 C2274 0.949 . S
H2250 C2275 0.950 . S
H2251 C2277 0.950 . S
H2252 C2278 0.950 . S
H2253 C2280 0.950 . S
H2254 C2283 0.950 . S
H2255 C2284 0.950 . S
H2256 C2286 0.951 . S
H2257 C2287 0.949 . S
C2258 C2259 1.376 . S
C2258 C2263 1.386 . S
C2258 C2264 1.483 . S
C2259 H2240 0.949 . S
C2259 C2258 1.376 . S
C2259 C2260 1.397 . S
C2260 H2241 0.950 . S
C2260 C2259 1.397 . S
C2260 C2261 1.391 . S
C2261 C2260 1.391 . S
C2261 C2262 1.405 . S
C2262 H2242 0.950 . S
C2262 C2261 1.405 . S
C2262 C2263 1.367 . S
C2263 H2243 0.950 . S
C2263 C2258 1.386 . S
C2263 C2262 1.367 . S
C2264 C2258 1.483 . S
C2264 C2265 1.382 . S
C2264 C2266 1.403 . S
C2265 H2244 0.950 . S
C2265 C2264 1.382 . S
C2265 C2281 1.411 . S
C2266 C2264 1.403 . S
C2266 C2267 1.489 . S
C2266 C2280 1.411 . S
C2267 C2266 1.489 . S
C2267 C2268 1.383 . S
C2267 C2272 1.382 . S
C2268 H2245 0.950 . S
C2268 C2267 1.383 . S
C2268 C2269 1.395 . S
C2269 H2246 0.950 . S
C2269 C2268 1.395 . S
C2269 C2270 1.288 . S
C2270 C2269 1.288 . S
C2270 C2271 1.392 . S
C2271 H2247 0.951 . S
C2271 C2270 1.392 . S
C2271 C2272 1.392 . S
C2272 H2248 0.949 . S
C2272 C2267 1.382 . S
C2272 C2271 1.392 . S
C2273 C2274 1.376 . S
C2273 C2278 1.386 . S
C2273 C2279 1.483 . S
C2274 H2249 0.949 . S
C2274 C2273 1.376 . S
C2274 C2275 1.397 . S
C2275 H2250 0.950 . S
C2275 C2274 1.397 . S
C2275 C2276 1.391 . S
C2276 C2275 1.391 . S
C2276 C2277 1.405 . S
C2277 H2251 0.950 . S
C2277 C2276 1.405 . S
C2277 C2278 1.367 . S
C2278 H2252 0.950 . S
C2278 C2273 1.386 . S
C2278 C2277 1.367 . S
C2279 C2273 1.483 . S
C2279 C2280 1.382 . S
C2279 C2281 1.403 . S
C2280 H2253 0.950 . S
C2280 C2266 1.411 . S
C2280 C2279 1.382 . S
C2281 C2265 1.411 . S
C2281 C2279 1.403 . S
C2281 C2282 1.489 . S
C2282 C2281 1.489 . S
C2282 C2283 1.383 . S
C2282 C2287 1.382 . S
C2283 H2254 0.950 . S
C2283 C2282 1.383 . S
C2283 C2284 1.395 . S
C2284 H2255 0.950 . S
C2284 C2283 1.395 . S
C2284 C2285 1.288 . S
C2285 C2284 1.288 . S
C2285 C2286 1.392 . S
C2286 H2256 0.951 . S
C2286 C2285 1.392 . S
C2286 C2287 1.392 . S
C2287 H2257 0.949 . S
C2287 C2282 1.382 . S
C2287 C2286 1.392 . S
H2288 C2307 0.949 . S
H2289 C2308 0.950 . S
H2290 C2310 0.950 . S
H2291 C2311 0.950 . S
H2292 C2313 0.950 . S
H2293 C2316 0.950 . S
H2294 C2317 0.950 . S
H2295 C2319 0.951 . S
H2296 C2320 0.949 . S
H2297 C2322 0.949 . S
H2298 C2323 0.950 . S
H2299 C2325 0.950 . S
H2300 C2326 0.950 . S
H2301 C2328 0.950 . S
H2302 C2331 0.950 . S
H2303 C2332 0.950 . S
H2304 C2334 0.951 . S
H2305 C2335 0.949 . S
C2306 C2307 1.376 . S
C2306 C2311 1.386 . S
C2306 C2312 1.483 . S
C2307 H2288 0.949 . S
C2307 C2306 1.376 . S
C2307 C2308 1.397 . S
C2308 H2289 0.950 . S
C2308 C2307 1.397 . S
C2308 C2309 1.391 . S
C2309 C2308 1.391 . S
C2309 C2310 1.405 . S
C2310 H2290 0.950 . S
C2310 C2309 1.405 . S
C2310 C2311 1.367 . S
C2311 H2291 0.950 . S
C2311 C2306 1.386 . S
C2311 C2310 1.367 . S
C2312 C2306 1.483 . S
C2312 C2313 1.382 . S
C2312 C2314 1.403 . S
C2313 H2292 0.950 . S
C2313 C2312 1.382 . S
C2313 C2329 1.411 . S
C2314 C2312 1.403 . S
C2314 C2315 1.489 . S
C2314 C2328 1.411 . S
C2315 C2314 1.489 . S
C2315 C2316 1.383 . S
C2315 C2320 1.382 . S
C2316 H2293 0.950 . S
C2316 C2315 1.383 . S
C2316 C2317 1.395 . S
C2317 H2294 0.950 . S
C2317 C2316 1.395 . S
C2317 C2318 1.288 . S
C2318 C2317 1.288 . S
C2318 C2319 1.392 . S
C2319 H2295 0.951 . S
C2319 C2318 1.392 . S
C2319 C2320 1.392 . S
C2320 H2296 0.949 . S
C2320 C2315 1.382 . S
C2320 C2319 1.392 . S
C2321 C2322 1.376 . S
C2321 C2326 1.386 . S
C2321 C2327 1.483 . S
C2322 H2297 0.949 . S
C2322 C2321 1.376 . S
C2322 C2323 1.397 . S
C2323 H2298 0.950 . S
C2323 C2322 1.397 . S
C2323 C2324 1.391 . S
C2324 C2323 1.391 . S
C2324 C2325 1.405 . S
C2325 H2299 0.950 . S
C2325 C2324 1.405 . S
C2325 C2326 1.367 . S
C2326 H2300 0.950 . S
C2326 C2321 1.386 . S
C2326 C2325 1.367 . S
C2327 C2321 1.483 . S
C2327 C2328 1.382 . S
C2327 C2329 1.403 . S
C2328 H2301 0.950 . S
C2328 C2314 1.411 . S
C2328 C2327 1.382 . S
C2329 C2313 1.411 . S
C2329 C2327 1.403 . S
C2329 C2330 1.489 . S
C2330 C2329 1.489 . S
C2330 C2331 1.383 . S
C2330 C2335 1.382 . S
C2331 H2302 0.950 . S
C2331 C2330 1.383 . S
C2331 C2332 1.395 . S
C2332 H2303 0.950 . S
C2332 C2331 1.395 . S
C2332 C2333 1.288 . S
C2333 C2332 1.288 . S
C2333 C2334 1.392 . S
C2334 H2304 0.951 . S
C2334 C2333 1.392 . S
C2334 C2335 1.392 . S
C2335 H2305 0.949 . S
C2335 C2330 1.382 . S
C2335 C2334 1.392 . S
H2336 C2355 0.949 . S
H2337 C2356 0.950 . S
H2338 C2358 0.950 . S
H2339 C2359 0.950 . S
H2340 C2361 0.950 . S
H2341 C2364 0.950 . S
H2342 C2365 0.950 . S
H2343 C2367 0.951 . S
H2344 C2368 0.949 . S
H2345 C2370 0.949 . S
H2346 C2371 0.950 . S
H2347 C2373 0.950 . S
H2348 C2374 0.950 . S
H2349 C2376 0.950 . S
H2350 C2379 0.950 . S
H2351 C2380 0.950 . S
H2352 C2382 0.951 . S
H2353 C2383 0.949 . S
C2354 C2355 1.376 . S
C2354 C2359 1.386 . S
C2354 C2360 1.483 . S
C2355 H2336 0.949 . S
C2355 C2354 1.376 . S
C2355 C2356 1.397 . S
C2356 H2337 0.950 . S
C2356 C2355 1.397 . S
C2356 C2357 1.391 . S
C2357 C2356 1.391 . S
C2357 C2358 1.405 . S
C2358 H2338 0.950 . S
C2358 C2357 1.405 . S
C2358 C2359 1.367 . S
C2359 H2339 0.950 . S
C2359 C2354 1.386 . S
C2359 C2358 1.367 . S
C2360 C2354 1.483 . S
C2360 C2361 1.382 . S
C2360 C2362 1.403 . S
C2361 H2340 0.950 . S
C2361 C2360 1.382 . S
C2361 C2377 1.411 . S
C2362 C2360 1.403 . S
C2362 C2363 1.489 . S
C2362 C2376 1.411 . S
C2363 C2362 1.489 . S
C2363 C2364 1.383 . S
C2363 C2368 1.382 . S
C2364 H2341 0.950 . S
C2364 C2363 1.383 . S
C2364 C2365 1.395 . S
C2365 H2342 0.950 . S
C2365 C2364 1.395 . S
C2365 C2366 1.288 . S
C2366 C2365 1.288 . S
C2366 C2367 1.392 . S
C2367 H2343 0.951 . S
C2367 C2366 1.392 . S
C2367 C2368 1.392 . S
C2368 H2344 0.949 . S
C2368 C2363 1.382 . S
C2368 C2367 1.392 . S
C2369 C2370 1.376 . S
C2369 C2374 1.386 . S
C2369 C2375 1.483 . S
C2370 H2345 0.949 . S
C2370 C2369 1.376 . S
C2370 C2371 1.397 . S
C2371 H2346 0.950 . S
C2371 C2370 1.397 . S
C2371 C2372 1.391 . S
C2372 C2371 1.391 . S
C2372 C2373 1.405 . S
C2373 H2347 0.950 . S
C2373 C2372 1.405 . S
C2373 C2374 1.367 . S
C2374 H2348 0.950 . S
C2374 C2369 1.386 . S
C2374 C2373 1.367 . S
C2375 C2369 1.483 . S
C2375 C2376 1.382 . S
C2375 C2377 1.403 . S
C2376 H2349 0.950 . S
C2376 C2362 1.411 . S
C2376 C2375 1.382 . S
C2377 C2361 1.411 . S
C2377 C2375 1.403 . S
C2377 C2378 1.489 . S
C2378 C2377 1.489 . S
C2378 C2379 1.383 . S
C2378 C2383 1.382 . S
C2379 H2350 0.950 . S
C2379 C2378 1.383 . S
C2379 C2380 1.395 . S
C2380 H2351 0.950 . S
C2380 C2379 1.395 . S
C2380 C2381 1.288 . S
C2381 C2380 1.288 . S
C2381 C2382 1.392 . S
C2382 H2352 0.951 . S
C2382 C2381 1.392 . S
C2382 C2383 1.392 . S
C2383 H2353 0.949 . S
C2383 C2378 1.382 . S
C2383 C2382 1.392 . S
H2384 C2403 0.949 . S
H2385 C2404 0.950 . S
H2386 C2406 0.950 . S
H2387 C2407 0.950 . S
H2388 C2409 0.950 . S
H2389 C2412 0.950 . S
H2390 C2413 0.950 . S
H2391 C2415 0.951 . S
H2392 C2416 0.949 . S
H2393 C2418 0.949 . S
H2394 C2419 0.950 . S
H2395 C2421 0.950 . S
H2396 C2422 0.950 . S
H2397 C2424 0.950 . S
H2398 C2427 0.950 . S
H2399 C2428 0.950 . S
H2400 C2430 0.951 . S
H2401 C2431 0.949 . S
C2402 C2403 1.376 . S
C2402 C2407 1.386 . S
C2402 C2408 1.483 . S
C2403 H2384 0.949 . S
C2403 C2402 1.376 . S
C2403 C2404 1.397 . S
C2404 H2385 0.950 . S
C2404 C2403 1.397 . S
C2404 C2405 1.391 . S
C2405 C2404 1.391 . S
C2405 C2406 1.405 . S
C2406 H2386 0.950 . S
C2406 C2405 1.405 . S
C2406 C2407 1.367 . S
C2407 H2387 0.950 . S
C2407 C2402 1.386 . S
C2407 C2406 1.367 . S
C2408 C2402 1.483 . S
C2408 C2409 1.382 . S
C2408 C2410 1.403 . S
C2409 H2388 0.950 . S
C2409 C2408 1.382 . S
C2409 C2425 1.411 . S
C2410 C2408 1.403 . S
C2410 C2411 1.489 . S
C2410 C2424 1.411 . S
C2411 C2410 1.489 . S
C2411 C2412 1.383 . S
C2411 C2416 1.382 . S
C2412 H2389 0.950 . S
C2412 C2411 1.383 . S
C2412 C2413 1.395 . S
C2413 H2390 0.950 . S
C2413 C2412 1.395 . S
C2413 C2414 1.288 . S
C2414 C2413 1.288 . S
C2414 C2415 1.392 . S
C2415 H2391 0.951 . S
C2415 C2414 1.392 . S
C2415 C2416 1.392 . S
C2416 H2392 0.949 . S
C2416 C2411 1.382 . S
C2416 C2415 1.392 . S
C2417 C2418 1.376 . S
C2417 C2422 1.386 . S
C2417 C2423 1.483 . S
C2418 H2393 0.949 . S
C2418 C2417 1.376 . S
C2418 C2419 1.397 . S
C2419 H2394 0.950 . S
C2419 C2418 1.397 . S
C2419 C2420 1.391 . S
C2420 C2419 1.391 . S
C2420 C2421 1.405 . S
C2421 H2395 0.950 . S
C2421 C2420 1.405 . S
C2421 C2422 1.367 . S
C2422 H2396 0.950 . S
C2422 C2417 1.386 . S
C2422 C2421 1.367 . S
C2423 C2417 1.483 . S
C2423 C2424 1.382 . S
C2423 C2425 1.403 . S
C2424 H2397 0.950 . S
C2424 C2410 1.411 . S
C2424 C2423 1.382 . S
C2425 C2409 1.411 . S
C2425 C2423 1.403 . S
C2425 C2426 1.489 . S
C2426 C2425 1.489 . S
C2426 C2427 1.383 . S
C2426 C2431 1.382 . S
C2427 H2398 0.950 . S
C2427 C2426 1.383 . S
C2427 C2428 1.395 . S
C2428 H2399 0.950 . S
C2428 C2427 1.395 . S
C2428 C2429 1.288 . S
C2429 C2428 1.288 . S
C2429 C2430 1.392 . S
C2430 H2400 0.951 . S
C2430 C2429 1.392 . S
C2430 C2431 1.392 . S
C2431 H2401 0.949 . S
C2431 C2426 1.382 . S
C2431 C2430 1.392 . S
C2432 C2433 1.369 . S
C2432 C2434 1.419 . S
C2432 H2436 0.930 . S
C2433 C2432 1.369 . S
C2433 C2442 1.429 . S
C2434 C2432 1.419 . S
C2434 C2435 1.363 . S
C2434 H2437 0.929 . S
C2435 C2434 1.363 . S
C2435 C2441 1.428 . S
H2436 C2432 0.930 . S
H2437 C2434 0.929 . S
S2438 N2439 1.613 . S
S2438 N2440 1.610 . S
N2439 S2438 1.613 . S
N2439 C2442 1.350 . S
N2440 S2438 1.610 . S
N2440 C2441 1.351 . S
C2441 C2435 1.428 . S
C2441 N2440 1.351 . S
C2441 C2442 1.434 . S
C2442 C2433 1.429 . S
C2442 N2439 1.350 . S
C2442 C2441 1.434 . S
C2443 C2444 1.369 . S
C2443 C2445 1.419 . S
C2443 H2447 0.930 . S
C2444 C2443 1.369 . S
C2444 C2453 1.429 . S
C2445 C2443 1.419 . S
C2445 C2446 1.363 . S
C2445 H2448 0.929 . S
C2446 C2445 1.363 . S
C2446 C2452 1.428 . S
H2447 C2443 0.930 . S
H2448 C2445 0.929 . S
S2449 N2450 1.613 . S
S2449 N2451 1.610 . S
N2450 S2449 1.613 . S
N2450 C2453 1.350 . S
N2451 S2449 1.610 . S
N2451 C2452 1.351 . S
C2452 C2446 1.428 . S
C2452 N2451 1.351 . S
C2452 C2453 1.434 . S
C2453 C2444 1.429 . S
C2453 N2450 1.350 . S
C2453 C2452 1.434 . S
C2454 C2455 1.369 . S
C2454 C2456 1.419 . S
C2454 H2458 0.930 . S
C2455 C2454 1.369 . S
C2455 C2464 1.429 . S
C2456 C2454 1.419 . S
C2456 C2457 1.363 . S
C2456 H2459 0.929 . S
C2457 C2456 1.363 . S
C2457 C2463 1.428 . S
H2458 C2454 0.930 . S
H2459 C2456 0.929 . S
S2460 N2461 1.613 . S
S2460 N2462 1.610 . S
N2461 S2460 1.613 . S
N2461 C2464 1.350 . S
N2462 S2460 1.610 . S
N2462 C2463 1.351 . S
C2463 C2457 1.428 . S
C2463 N2462 1.351 . S
C2463 C2464 1.434 . S
C2464 C2455 1.429 . S
C2464 N2461 1.350 . S
C2464 C2463 1.434 . S
C2465 C2466 1.369 . S
C2465 C2467 1.419 . S
C2465 H2469 0.930 . S
C2466 C2465 1.369 . S
C2466 C2475 1.429 . S
C2467 C2465 1.419 . S
C2467 C2468 1.363 . S
C2467 H2470 0.929 . S
C2468 C2467 1.363 . S
C2468 C2474 1.428 . S
H2469 C2465 0.930 . S
H2470 C2467 0.929 . S
S2471 N2472 1.613 . S
S2471 N2473 1.610 . S
N2472 S2471 1.613 . S
N2472 C2475 1.350 . S
N2473 S2471 1.610 . S
N2473 C2474 1.351 . S
C2474 C2468 1.428 . S
C2474 N2473 1.351 . S
C2474 C2475 1.434 . S
C2475 C2466 1.429 . S
C2475 N2472 1.350 . S
C2475 C2474 1.434 . S
C2476 C2477 1.369 . S
C2476 C2478 1.419 . S
C2476 H2480 0.930 . S
C2477 C2476 1.369 . S
C2477 C2486 1.429 . S
C2478 C2476 1.419 . S
C2478 C2479 1.363 . S
C2478 H2481 0.929 . S
C2479 C2478 1.363 . S
C2479 C2485 1.428 . S
H2480 C2476 0.930 . S
H2481 C2478 0.929 . S
S2482 N2483 1.613 . S
S2482 N2484 1.610 . S
N2483 S2482 1.613 . S
N2483 C2486 1.350 . S
N2484 S2482 1.610 . S
N2484 C2485 1.351 . S
C2485 C2479 1.428 . S
C2485 N2484 1.351 . S
C2485 C2486 1.434 . S
C2486 C2477 1.429 . S
C2486 N2483 1.350 . S
C2486 C2485 1.434 . S
C2487 C2488 1.369 . S
C2487 C2489 1.419 . S
C2487 H2491 0.930 . S
C2488 C2487 1.369 . S
C2488 C2497 1.429 . S
C2489 C2487 1.419 . S
C2489 C2490 1.363 . S
C2489 H2492 0.929 . S
C2490 C2489 1.363 . S
C2490 C2496 1.428 . S
H2491 C2487 0.930 . S
H2492 C2489 0.929 . S
S2493 N2494 1.613 . S
S2493 N2495 1.610 . S
N2494 S2493 1.613 . S
N2494 C2497 1.350 . S
N2495 S2493 1.610 . S
N2495 C2496 1.351 . S
C2496 C2490 1.428 . S
C2496 N2495 1.351 . S
C2496 C2497 1.434 . S
C2497 C2488 1.429 . S
C2497 N2494 1.350 . S
C2497 C2496 1.434 . S
C2498 C2499 1.369 . S
C2498 C2500 1.419 . S
C2498 H2502 0.930 . S
C2499 C2498 1.369 . S
C2499 C2508 1.429 . S
C2500 C2498 1.419 . S
C2500 C2501 1.363 . S
C2500 H2503 0.929 . S
C2501 C2500 1.363 . S
C2501 C2507 1.428 . S
H2502 C2498 0.930 . S
H2503 C2500 0.929 . S
S2504 N2505 1.613 . S
S2504 N2506 1.610 . S
N2505 S2504 1.613 . S
N2505 C2508 1.350 . S
N2506 S2504 1.610 . S
N2506 C2507 1.351 . S
C2507 C2501 1.428 . S
C2507 N2506 1.351 . S
C2507 C2508 1.434 . S
C2508 C2499 1.429 . S
C2508 N2505 1.350 . S
C2508 C2507 1.434 . S
C2509 C2510 1.369 . S
C2509 C2511 1.419 . S
C2509 H2513 0.930 . S
C2510 C2509 1.369 . S
C2510 C2519 1.429 . S
C2511 C2509 1.419 . S
C2511 C2512 1.363 . S
C2511 H2514 0.929 . S
C2512 C2511 1.363 . S
C2512 C2518 1.428 . S
H2513 C2509 0.930 . S
H2514 C2511 0.929 . S
S2515 N2516 1.613 . S
S2515 N2517 1.610 . S
N2516 S2515 1.613 . S
N2516 C2519 1.350 . S
N2517 S2515 1.610 . S
N2517 C2518 1.351 . S
C2518 C2512 1.428 . S
C2518 N2517 1.351 . S
C2518 C2519 1.434 . S
C2519 C2510 1.429 . S
C2519 N2516 1.350 . S
C2519 C2518 1.434 . S
C2520 C2521 1.369 . S
C2520 C2522 1.419 . S
C2520 H2524 0.930 . S
C2521 C2520 1.369 . S
C2521 C2530 1.429 . S
C2522 C2520 1.419 . S
C2522 C2523 1.363 . S
C2522 H2525 0.929 . S
C2523 C2522 1.363 . S
C2523 C2529 1.428 . S
H2524 C2520 0.930 . S
H2525 C2522 0.929 . S
S2526 N2527 1.613 . S
S2526 N2528 1.610 . S
N2527 S2526 1.613 . S
N2527 C2530 1.350 . S
N2528 S2526 1.610 . S
N2528 C2529 1.351 . S
C2529 C2523 1.428 . S
C2529 N2528 1.351 . S
C2529 C2530 1.434 . S
C2530 C2521 1.429 . S
C2530 N2527 1.350 . S
C2530 C2529 1.434 . S
C2531 C2532 1.369 . S
C2531 C2533 1.419 . S
C2531 H2535 0.930 . S
C2532 C2531 1.369 . S
C2532 C2541 1.429 . S
C2533 C2531 1.419 . S
C2533 C2534 1.363 . S
C2533 H2536 0.929 . S
C2534 C2533 1.363 . S
C2534 C2540 1.428 . S
H2535 C2531 0.930 . S
H2536 C2533 0.929 . S
S2537 N2538 1.613 . S
S2537 N2539 1.610 . S
N2538 S2537 1.613 . S
N2538 C2541 1.350 . S
N2539 S2537 1.610 . S
N2539 C2540 1.351 . S
C2540 C2534 1.428 . S
C2540 N2539 1.351 . S
C2540 C2541 1.434 . S
C2541 C2532 1.429 . S
C2541 N2538 1.350 . S
C2541 C2540 1.434 . S
C2542 C2543 1.369 . S
C2542 C2544 1.419 . S
C2542 H2546 0.930 . S
C2543 C2542 1.369 . S
C2543 C2552 1.429 . S
C2544 C2542 1.419 . S
C2544 C2545 1.363 . S
C2544 H2547 0.929 . S
C2545 C2544 1.363 . S
C2545 C2551 1.428 . S
H2546 C2542 0.930 . S
H2547 C2544 0.929 . S
S2548 N2549 1.613 . S
S2548 N2550 1.610 . S
N2549 S2548 1.613 . S
N2549 C2552 1.350 . S
N2550 S2548 1.610 . S
N2550 C2551 1.351 . S
C2551 C2545 1.428 . S
C2551 N2550 1.351 . S
C2551 C2552 1.434 . S
C2552 C2543 1.429 . S
C2552 N2549 1.350 . S
C2552 C2551 1.434 . S
C2553 C2554 1.369 . S
C2553 C2555 1.419 . S
C2553 H2557 0.930 . S
C2554 C2553 1.369 . S
C2554 C2563 1.429 . S
C2555 C2553 1.419 . S
C2555 C2556 1.363 . S
C2555 H2558 0.929 . S
C2556 C2555 1.363 . S
C2556 C2562 1.428 . S
H2557 C2553 0.930 . S
H2558 C2555 0.929 . S
S2559 N2560 1.613 . S
S2559 N2561 1.610 . S
N2560 S2559 1.613 . S
N2560 C2563 1.350 . S
N2561 S2559 1.610 . S
N2561 C2562 1.351 . S
C2562 C2556 1.428 . S
C2562 N2561 1.351 . S
C2562 C2563 1.434 . S
C2563 C2554 1.429 . S
C2563 N2560 1.350 . S
C2563 C2562 1.434 . S
C2564 C2565 1.369 . S
C2564 C2566 1.419 . S
C2564 H2568 0.930 . S
C2565 C2564 1.369 . S
C2565 C2574 1.429 . S
C2566 C2564 1.419 . S
C2566 C2567 1.363 . S
C2566 H2569 0.929 . S
C2567 C2566 1.363 . S
C2567 C2573 1.428 . S
H2568 C2564 0.930 . S
H2569 C2566 0.929 . S
S2570 N2571 1.613 . S
S2570 N2572 1.610 . S
N2571 S2570 1.613 . S
N2571 C2574 1.350 . S
N2572 S2570 1.610 . S
N2572 C2573 1.351 . S
C2573 C2567 1.428 . S
C2573 N2572 1.351 . S
C2573 C2574 1.434 . S
C2574 C2565 1.429 . S
C2574 N2571 1.350 . S
C2574 C2573 1.434 . S
C2575 C2576 1.369 . S
C2575 C2577 1.419 . S
C2575 H2579 0.930 . S
C2576 C2575 1.369 . S
C2576 C2585 1.429 . S
C2577 C2575 1.419 . S
C2577 C2578 1.363 . S
C2577 H2580 0.929 . S
C2578 C2577 1.363 . S
C2578 C2584 1.428 . S
H2579 C2575 0.930 . S
H2580 C2577 0.929 . S
S2581 N2582 1.613 . S
S2581 N2583 1.610 . S
N2582 S2581 1.613 . S
N2582 C2585 1.350 . S
N2583 S2581 1.610 . S
N2583 C2584 1.351 . S
C2584 C2578 1.428 . S
C2584 N2583 1.351 . S
C2584 C2585 1.434 . S
C2585 C2576 1.429 . S
C2585 N2582 1.350 . S
C2585 C2584 1.434 . S
C2586 C2587 1.369 . S
C2586 C2588 1.419 . S
C2586 H2590 0.930 . S
C2587 C2586 1.369 . S
C2587 C2596 1.429 . S
C2588 C2586 1.419 . S
C2588 C2589 1.363 . S
C2588 H2591 0.929 . S
C2589 C2588 1.363 . S
C2589 C2595 1.428 . S
H2590 C2586 0.930 . S
H2591 C2588 0.929 . S
S2592 N2593 1.613 . S
S2592 N2594 1.610 . S
N2593 S2592 1.613 . S
N2593 C2596 1.350 . S
N2594 S2592 1.610 . S
N2594 C2595 1.351 . S
C2595 C2589 1.428 . S
C2595 N2594 1.351 . S
C2595 C2596 1.434 . S
C2596 C2587 1.429 . S
C2596 N2593 1.350 . S
C2596 C2595 1.434 . S
C2597 C2598 1.369 . S
C2597 C2599 1.419 . S
C2597 H2601 0.930 . S
C2598 C2597 1.369 . S
C2598 C2607 1.429 . S
C2599 C2597 1.419 . S
C2599 C2600 1.363 . S
C2599 H2602 0.929 . S
C2600 C2599 1.363 . S
C2600 C2606 1.428 . S
H2601 C2597 0.930 . S
H2602 C2599 0.929 . S
S2603 N2604 1.613 . S
S2603 N2605 1.610 . S
N2604 S2603 1.613 . S
N2604 C2607 1.350 . S
N2605 S2603 1.610 . S
N2605 C2606 1.351 . S
C2606 C2600 1.428 . S
C2606 N2605 1.351 . S
C2606 C2607 1.434 . S
C2607 C2598 1.429 . S
C2607 N2604 1.350 . S
C2607 C2606 1.434 . S
C2608 C2609 1.369 . S
C2608 C2610 1.419 . S
C2608 H2612 0.930 . S
C2609 C2608 1.369 . S
C2609 C2618 1.429 . S
C2610 C2608 1.419 . S
C2610 C2611 1.363 . S
C2610 H2613 0.929 . S
C2611 C2610 1.363 . S
C2611 C2617 1.428 . S
H2612 C2608 0.930 . S
H2613 C2610 0.929 . S
S2614 N2615 1.613 . S
S2614 N2616 1.610 . S
N2615 S2614 1.613 . S
N2615 C2618 1.350 . S
N2616 S2614 1.610 . S
N2616 C2617 1.351 . S
C2617 C2611 1.428 . S
C2617 N2616 1.351 . S
C2617 C2618 1.434 . S
C2618 C2609 1.429 . S
C2618 N2615 1.350 . S
C2618 C2617 1.434 . S
C2619 C2620 1.369 . S
C2619 C2621 1.419 . S
C2619 H2623 0.930 . S
C2620 C2619 1.369 . S
C2620 C2629 1.429 . S
C2621 C2619 1.419 . S
C2621 C2622 1.363 . S
C2621 H2624 0.929 . S
C2622 C2621 1.363 . S
C2622 C2628 1.428 . S
H2623 C2619 0.930 . S
H2624 C2621 0.929 . S
S2625 N2626 1.613 . S
S2625 N2627 1.610 . S
N2626 S2625 1.613 . S
N2626 C2629 1.350 . S
N2627 S2625 1.610 . S
N2627 C2628 1.351 . S
C2628 C2622 1.428 . S
C2628 N2627 1.351 . S
C2628 C2629 1.434 . S
C2629 C2620 1.429 . S
C2629 N2626 1.350 . S
C2629 C2628 1.434 . S
C2630 C2631 1.369 . S
C2630 C2632 1.419 . S
C2630 H2634 0.930 . S
C2631 C2630 1.369 . S
C2631 C2640 1.429 . S
C2632 C2630 1.419 . S
C2632 C2633 1.363 . S
C2632 H2635 0.929 . S
C2633 C2632 1.363 . S
C2633 C2639 1.428 . S
H2634 C2630 0.930 . S
H2635 C2632 0.929 . S
S2636 N2637 1.613 . S
S2636 N2638 1.610 . S
N2637 S2636 1.613 . S
N2637 C2640 1.350 . S
N2638 S2636 1.610 . S
N2638 C2639 1.351 . S
C2639 C2633 1.428 . S
C2639 N2638 1.351 . S
C2639 C2640 1.434 . S
C2640 C2631 1.429 . S
C2640 N2637 1.350 . S
C2640 C2639 1.434 . S
C2641 C2642 1.369 . S
C2641 C2643 1.419 . S
C2641 H2645 0.930 . S
C2642 C2641 1.369 . S
C2642 C2651 1.429 . S
C2643 C2641 1.419 . S
C2643 C2644 1.363 . S
C2643 H2646 0.929 . S
C2644 C2643 1.363 . S
C2644 C2650 1.428 . S
H2645 C2641 0.930 . S
H2646 C2643 0.929 . S
S2647 N2648 1.613 . S
S2647 N2649 1.610 . S
N2648 S2647 1.613 . S
N2648 C2651 1.350 . S
N2649 S2647 1.610 . S
N2649 C2650 1.351 . S
C2650 C2644 1.428 . S
C2650 N2649 1.351 . S
C2650 C2651 1.434 . S
C2651 C2642 1.429 . S
C2651 N2648 1.350 . S
C2651 C2650 1.434 . S
C2652 C2653 1.369 . S
C2652 C2654 1.419 . S
C2652 H2656 0.930 . S
C2653 C2652 1.369 . S
C2653 C2662 1.429 . S
C2654 C2652 1.419 . S
C2654 C2655 1.363 . S
C2654 H2657 0.929 . S
C2655 C2654 1.363 . S
C2655 C2661 1.428 . S
H2656 C2652 0.930 . S
H2657 C2654 0.929 . S
S2658 N2659 1.613 . S
S2658 N2660 1.610 . S
N2659 S2658 1.613 . S
N2659 C2662 1.350 . S
N2660 S2658 1.610 . S
N2660 C2661 1.351 . S
C2661 C2655 1.428 . S
C2661 N2660 1.351 . S
C2661 C2662 1.434 . S
C2662 C2653 1.429 . S
C2662 N2659 1.350 . S
C2662 C2661 1.434 . S
C2663 C2664 1.369 . S
C2663 C2665 1.419 . S
C2663 H2667 0.930 . S
C2664 C2663 1.369 . S
C2664 C2673 1.429 . S
C2665 C2663 1.419 . S
C2665 C2666 1.363 . S
C2665 H2668 0.929 . S
C2666 C2665 1.363 . S
C2666 C2672 1.428 . S
H2667 C2663 0.930 . S
H2668 C2665 0.929 . S
S2669 N2670 1.613 . S
S2669 N2671 1.610 . S
N2670 S2669 1.613 . S
N2670 C2673 1.350 . S
N2671 S2669 1.610 . S
N2671 C2672 1.351 . S
C2672 C2666 1.428 . S
C2672 N2671 1.351 . S
C2672 C2673 1.434 . S
C2673 C2664 1.429 . S
C2673 N2670 1.350 . S
C2673 C2672 1.434 . S
C2674 C2675 1.369 . S
C2674 C2676 1.419 . S
C2674 H2678 0.930 . S
C2675 C2674 1.369 . S
C2675 C2684 1.429 . S
C2676 C2674 1.419 . S
C2676 C2677 1.363 . S
C2676 H2679 0.929 . S
C2677 C2676 1.363 . S
C2677 C2683 1.428 . S
H2678 C2674 0.930 . S
H2679 C2676 0.929 . S
S2680 N2681 1.613 . S
S2680 N2682 1.610 . S
N2681 S2680 1.613 . S
N2681 C2684 1.350 . S
N2682 S2680 1.610 . S
N2682 C2683 1.351 . S
C2683 C2677 1.428 . S
C2683 N2682 1.351 . S
C2683 C2684 1.434 . S
C2684 C2675 1.429 . S
C2684 N2681 1.350 . S
C2684 C2683 1.434 . S
C2685 C2686 1.369 . S
C2685 C2687 1.419 . S
C2685 H2689 0.930 . S
C2686 C2685 1.369 . S
C2686 C2695 1.429 . S
C2687 C2685 1.419 . S
C2687 C2688 1.363 . S
C2687 H2690 0.929 . S
C2688 C2687 1.363 . S
C2688 C2694 1.428 . S
H2689 C2685 0.930 . S
H2690 C2687 0.929 . S
S2691 N2692 1.613 . S
S2691 N2693 1.610 . S
N2692 S2691 1.613 . S
N2692 C2695 1.350 . S
N2693 S2691 1.610 . S
N2693 C2694 1.351 . S
C2694 C2688 1.428 . S
C2694 N2693 1.351 . S
C2694 C2695 1.434 . S
C2695 C2686 1.429 . S
C2695 N2692 1.350 . S
C2695 C2694 1.434 . S
C2696 C2697 1.369 . S
C2696 C2698 1.419 . S
C2696 H2700 0.930 . S
C2697 C2696 1.369 . S
C2697 C2706 1.429 . S
C2698 C2696 1.419 . S
C2698 C2699 1.363 . S
C2698 H2701 0.929 . S
C2699 C2698 1.363 . S
C2699 C2705 1.428 . S
H2700 C2696 0.930 . S
H2701 C2698 0.929 . S
S2702 N2703 1.613 . S
S2702 N2704 1.610 . S
N2703 S2702 1.613 . S
N2703 C2706 1.350 . S
N2704 S2702 1.610 . S
N2704 C2705 1.351 . S
C2705 C2699 1.428 . S
C2705 N2704 1.351 . S
C2705 C2706 1.434 . S
C2706 C2697 1.429 . S
C2706 N2703 1.350 . S
C2706 C2705 1.434 . S
C2707 C2708 1.369 . S
C2707 C2709 1.419 . S
C2707 H2711 0.930 . S
C2708 C2707 1.369 . S
C2708 C2717 1.429 . S
C2709 C2707 1.419 . S
C2709 C2710 1.363 . S
C2709 H2712 0.929 . S
C2710 C2709 1.363 . S
C2710 C2716 1.428 . S
H2711 C2707 0.930 . S
H2712 C2709 0.929 . S
S2713 N2714 1.613 . S
S2713 N2715 1.610 . S
N2714 S2713 1.613 . S
N2714 C2717 1.350 . S
N2715 S2713 1.610 . S
N2715 C2716 1.351 . S
C2716 C2710 1.428 . S
C2716 N2715 1.351 . S
C2716 C2717 1.434 . S
C2717 C2708 1.429 . S
C2717 N2714 1.350 . S
C2717 C2716 1.434 . S
C2718 C2719 1.369 . S
C2718 C2720 1.419 . S
C2718 H2722 0.930 . S
C2719 C2718 1.369 . S
C2719 C2728 1.429 . S
C2720 C2718 1.419 . S
C2720 C2721 1.363 . S
C2720 H2723 0.929 . S
C2721 C2720 1.363 . S
C2721 C2727 1.428 . S
H2722 C2718 0.930 . S
H2723 C2720 0.929 . S
S2724 N2725 1.613 . S
S2724 N2726 1.610 . S
N2725 S2724 1.613 . S
N2725 C2728 1.350 . S
N2726 S2724 1.610 . S
N2726 C2727 1.351 . S
C2727 C2721 1.428 . S
C2727 N2726 1.351 . S
C2727 C2728 1.434 . S
C2728 C2719 1.429 . S
C2728 N2725 1.350 . S
C2728 C2727 1.434 . S
C2729 C2730 1.369 . S
C2729 C2731 1.419 . S
C2729 H2733 0.930 . S
C2730 C2729 1.369 . S
C2730 C2739 1.429 . S
C2731 C2729 1.419 . S
C2731 C2732 1.363 . S
C2731 H2734 0.929 . S
C2732 C2731 1.363 . S
C2732 C2738 1.428 . S
H2733 C2729 0.930 . S
H2734 C2731 0.929 . S
S2735 N2736 1.613 . S
S2735 N2737 1.610 . S
N2736 S2735 1.613 . S
N2736 C2739 1.350 . S
N2737 S2735 1.610 . S
N2737 C2738 1.351 . S
C2738 C2732 1.428 . S
C2738 N2737 1.351 . S
C2738 C2739 1.434 . S
C2739 C2730 1.429 . S
C2739 N2736 1.350 . S
C2739 C2738 1.434 . S
C2740 C2741 1.369 . S
C2740 C2742 1.419 . S
C2740 H2744 0.930 . S
C2741 C2740 1.369 . S
C2741 C2750 1.429 . S
C2742 C2740 1.419 . S
C2742 C2743 1.363 . S
C2742 H2745 0.929 . S
C2743 C2742 1.363 . S
C2743 C2749 1.428 . S
H2744 C2740 0.930 . S
H2745 C2742 0.929 . S
S2746 N2747 1.613 . S
S2746 N2748 1.610 . S
N2747 S2746 1.613 . S
N2747 C2750 1.350 . S
N2748 S2746 1.610 . S
N2748 C2749 1.351 . S
C2749 C2743 1.428 . S
C2749 N2748 1.351 . S
C2749 C2750 1.434 . S
C2750 C2741 1.429 . S
C2750 N2747 1.350 . S
C2750 C2749 1.434 . S
C2751 C2752 1.369 . S
C2751 C2753 1.419 . S
C2751 H2755 0.930 . S
C2752 C2751 1.369 . S
C2752 C2761 1.429 . S
C2753 C2751 1.419 . S
C2753 C2754 1.363 . S
C2753 H2756 0.929 . S
C2754 C2753 1.363 . S
C2754 C2760 1.428 . S
H2755 C2751 0.930 . S
H2756 C2753 0.929 . S
S2757 N2758 1.613 . S
S2757 N2759 1.610 . S
N2758 S2757 1.613 . S
N2758 C2761 1.350 . S
N2759 S2757 1.610 . S
N2759 C2760 1.351 . S
C2760 C2754 1.428 . S
C2760 N2759 1.351 . S
C2760 C2761 1.434 . S
C2761 C2752 1.429 . S
C2761 N2758 1.350 . S
C2761 C2760 1.434 . S
C2762 C2763 1.369 . S
C2762 C2764 1.419 . S
C2762 H2766 0.930 . S
C2763 C2762 1.369 . S
C2763 C2772 1.429 . S
C2764 C2762 1.419 . S
C2764 C2765 1.363 . S
C2764 H2767 0.929 . S
C2765 C2764 1.363 . S
C2765 C2771 1.428 . S
H2766 C2762 0.930 . S
H2767 C2764 0.929 . S
S2768 N2769 1.613 . S
S2768 N2770 1.610 . S
N2769 S2768 1.613 . S
N2769 C2772 1.350 . S
N2770 S2768 1.610 . S
N2770 C2771 1.351 . S
C2771 C2765 1.428 . S
C2771 N2770 1.351 . S
C2771 C2772 1.434 . S
C2772 C2763 1.429 . S
C2772 N2769 1.350 . S
C2772 C2771 1.434 . S
C2773 C2774 1.369 . S
C2773 C2775 1.419 . S
C2773 H2777 0.930 . S
C2774 C2773 1.369 . S
C2774 C2783 1.429 . S
C2775 C2773 1.419 . S
C2775 C2776 1.363 . S
C2775 H2778 0.929 . S
C2776 C2775 1.363 . S
C2776 C2782 1.428 . S
H2777 C2773 0.930 . S
H2778 C2775 0.929 . S
S2779 N2780 1.613 . S
S2779 N2781 1.610 . S
N2780 S2779 1.613 . S
N2780 C2783 1.350 . S
N2781 S2779 1.610 . S
N2781 C2782 1.351 . S
C2782 C2776 1.428 . S
C2782 N2781 1.351 . S
C2782 C2783 1.434 . S
C2783 C2774 1.429 . S
C2783 N2780 1.350 . S
C2783 C2782 1.434 . S
C2784 C2785 1.369 . S
C2784 C2786 1.419 . S
C2784 H2788 0.930 . S
C2785 C2784 1.369 . S
C2785 C2794 1.429 . S
C2786 C2784 1.419 . S
C2786 C2787 1.363 . S
C2786 H2789 0.929 . S
C2787 C2786 1.363 . S
C2787 C2793 1.428 . S
H2788 C2784 0.930 . S
H2789 C2786 0.929 . S
S2790 N2791 1.613 . S
S2790 N2792 1.610 . S
N2791 S2790 1.613 . S
N2791 C2794 1.350 . S
N2792 S2790 1.610 . S
N2792 C2793 1.351 . S
C2793 C2787 1.428 . S
C2793 N2792 1.351 . S
C2793 C2794 1.434 . S
C2794 C2785 1.429 . S
C2794 N2791 1.350 . S
C2794 C2793 1.434 . S
C2795 C2796 1.369 . S
C2795 C2797 1.419 . S
C2795 H2799 0.930 . S
C2796 C2795 1.369 . S
C2796 C2805 1.429 . S
C2797 C2795 1.419 . S
C2797 C2798 1.363 . S
C2797 H2800 0.929 . S
C2798 C2797 1.363 . S
C2798 C2804 1.428 . S
H2799 C2795 0.930 . S
H2800 C2797 0.929 . S
S2801 N2802 1.613 . S
S2801 N2803 1.610 . S
N2802 S2801 1.613 . S
N2802 C2805 1.350 . S
N2803 S2801 1.610 . S
N2803 C2804 1.351 . S
C2804 C2798 1.428 . S
C2804 N2803 1.351 . S
C2804 C2805 1.434 . S
C2805 C2796 1.429 . S
C2805 N2802 1.350 . S
C2805 C2804 1.434 . S
C2806 C2807 1.369 . S
C2806 C2808 1.419 . S
C2806 H2810 0.930 . S
C2807 C2806 1.369 . S
C2807 C2816 1.429 . S
C2808 C2806 1.419 . S
C2808 C2809 1.363 . S
C2808 H2811 0.929 . S
C2809 C2808 1.363 . S
C2809 C2815 1.428 . S
H2810 C2806 0.930 . S
H2811 C2808 0.929 . S
S2812 N2813 1.613 . S
S2812 N2814 1.610 . S
N2813 S2812 1.613 . S
N2813 C2816 1.350 . S
N2814 S2812 1.610 . S
N2814 C2815 1.351 . S
C2815 C2809 1.428 . S
C2815 N2814 1.351 . S
C2815 C2816 1.434 . S
C2816 C2807 1.429 . S
C2816 N2813 1.350 . S
C2816 C2815 1.434 . S
C2817 C2818 1.369 . S
C2817 C2819 1.419 . S
C2817 H2821 0.930 . S
C2818 C2817 1.369 . S
C2818 C2827 1.429 . S
C2819 C2817 1.419 . S
C2819 C2820 1.363 . S
C2819 H2822 0.929 . S
C2820 C2819 1.363 . S
C2820 C2826 1.428 . S
H2821 C2817 0.930 . S
H2822 C2819 0.929 . S
S2823 N2824 1.613 . S
S2823 N2825 1.610 . S
N2824 S2823 1.613 . S
N2824 C2827 1.350 . S
N2825 S2823 1.610 . S
N2825 C2826 1.351 . S
C2826 C2820 1.428 . S
C2826 N2825 1.351 . S
C2826 C2827 1.434 . S
C2827 C2818 1.429 . S
C2827 N2824 1.350 . S
C2827 C2826 1.434 . S
C2828 C2829 1.369 . S
C2828 C2830 1.419 . S
C2828 H2832 0.930 . S
C2829 C2828 1.369 . S
C2829 C2838 1.429 . S
C2830 C2828 1.419 . S
C2830 C2831 1.363 . S
C2830 H2833 0.929 . S
C2831 C2830 1.363 . S
C2831 C2837 1.428 . S
H2832 C2828 0.930 . S
H2833 C2830 0.929 . S
S2834 N2835 1.613 . S
S2834 N2836 1.610 . S
N2835 S2834 1.613 . S
N2835 C2838 1.350 . S
N2836 S2834 1.610 . S
N2836 C2837 1.351 . S
C2837 C2831 1.428 . S
C2837 N2836 1.351 . S
C2837 C2838 1.434 . S
C2838 C2829 1.429 . S
C2838 N2835 1.350 . S
C2838 C2837 1.434 . S
C2839 C2840 1.369 . S
C2839 C2841 1.419 . S
C2839 H2843 0.930 . S
C2840 C2839 1.369 . S
C2840 C2849 1.429 . S
C2841 C2839 1.419 . S
C2841 C2842 1.363 . S
C2841 H2844 0.929 . S
C2842 C2841 1.363 . S
C2842 C2848 1.428 . S
H2843 C2839 0.930 . S
H2844 C2841 0.929 . S
S2845 N2846 1.613 . S
S2845 N2847 1.610 . S
N2846 S2845 1.613 . S
N2846 C2849 1.350 . S
N2847 S2845 1.610 . S
N2847 C2848 1.351 . S
C2848 C2842 1.428 . S
C2848 N2847 1.351 . S
C2848 C2849 1.434 . S
C2849 C2840 1.429 . S
C2849 N2846 1.350 . S
C2849 C2848 1.434 . S
C2850 C2851 1.369 . S
C2850 C2852 1.419 . S
C2850 H2854 0.930 . S
C2851 C2850 1.369 . S
C2851 C2860 1.429 . S
C2852 C2850 1.419 . S
C2852 C2853 1.363 . S
C2852 H2855 0.929 . S
C2853 C2852 1.363 . S
C2853 C2859 1.428 . S
H2854 C2850 0.930 . S
H2855 C2852 0.929 . S
S2856 N2857 1.613 . S
S2856 N2858 1.610 . S
N2857 S2856 1.613 . S
N2857 C2860 1.350 . S
N2858 S2856 1.610 . S
N2858 C2859 1.351 . S
C2859 C2853 1.428 . S
C2859 N2858 1.351 . S
C2859 C2860 1.434 . S
C2860 C2851 1.429 . S
C2860 N2857 1.350 . S
C2860 C2859 1.434 . S
C2861 C2862 1.369 . S
C2861 C2863 1.419 . S
C2861 H2865 0.930 . S
C2862 C2861 1.369 . S
C2862 C2871 1.429 . S
C2863 C2861 1.419 . S
C2863 C2864 1.363 . S
C2863 H2866 0.929 . S
C2864 C2863 1.363 . S
C2864 C2870 1.428 . S
H2865 C2861 0.930 . S
H2866 C2863 0.929 . S
S2867 N2868 1.613 . S
S2867 N2869 1.610 . S
N2868 S2867 1.613 . S
N2868 C2871 1.350 . S
N2869 S2867 1.610 . S
N2869 C2870 1.351 . S
C2870 C2864 1.428 . S
C2870 N2869 1.351 . S
C2870 C2871 1.434 . S
C2871 C2862 1.429 . S
C2871 N2868 1.350 . S
C2871 C2870 1.434 . S
C2872 C2873 1.369 . S
C2872 C2874 1.419 . S
C2872 H2876 0.930 . S
C2873 C2872 1.369 . S
C2873 C2882 1.429 . S
C2874 C2872 1.419 . S
C2874 C2875 1.363 . S
C2874 H2877 0.929 . S
C2875 C2874 1.363 . S
C2875 C2881 1.428 . S
H2876 C2872 0.930 . S
H2877 C2874 0.929 . S
S2878 N2879 1.613 . S
S2878 N2880 1.610 . S
N2879 S2878 1.613 . S
N2879 C2882 1.350 . S
N2880 S2878 1.610 . S
N2880 C2881 1.351 . S
C2881 C2875 1.428 . S
C2881 N2880 1.351 . S
C2881 C2882 1.434 . S
C2882 C2873 1.429 . S
C2882 N2879 1.350 . S
C2882 C2881 1.434 . S
C2883 C2884 1.369 . S
C2883 C2885 1.419 . S
C2883 H2887 0.930 . S
C2884 C2883 1.369 . S
C2884 C2893 1.429 . S
C2885 C2883 1.419 . S
C2885 C2886 1.363 . S
C2885 H2888 0.929 . S
C2886 C2885 1.363 . S
C2886 C2892 1.428 . S
H2887 C2883 0.930 . S
H2888 C2885 0.929 . S
S2889 N2890 1.613 . S
S2889 N2891 1.610 . S
N2890 S2889 1.613 . S
N2890 C2893 1.350 . S
N2891 S2889 1.610 . S
N2891 C2892 1.351 . S
C2892 C2886 1.428 . S
C2892 N2891 1.351 . S
C2892 C2893 1.434 . S
C2893 C2884 1.429 . S
C2893 N2890 1.350 . S
C2893 C2892 1.434 . S
C2894 C2895 1.369 . S
C2894 C2896 1.419 . S
C2894 H2898 0.930 . S
C2895 C2894 1.369 . S
C2895 C2904 1.429 . S
C2896 C2894 1.419 . S
C2896 C2897 1.363 . S
C2896 H2899 0.929 . S
C2897 C2896 1.363 . S
C2897 C2903 1.428 . S
H2898 C2894 0.930 . S
H2899 C2896 0.929 . S
S2900 N2901 1.613 . S
S2900 N2902 1.610 . S
N2901 S2900 1.613 . S
N2901 C2904 1.350 . S
N2902 S2900 1.610 . S
N2902 C2903 1.351 . S
C2903 C2897 1.428 . S
C2903 N2902 1.351 . S
C2903 C2904 1.434 . S
C2904 C2895 1.429 . S
C2904 N2901 1.350 . S
C2904 C2903 1.434 . S
C2905 C2906 1.369 . S
C2905 C2907 1.419 . S
C2905 H2909 0.930 . S
C2906 C2905 1.369 . S
C2906 C2915 1.429 . S
C2907 C2905 1.419 . S
C2907 C2908 1.363 . S
C2907 H2910 0.929 . S
C2908 C2907 1.363 . S
C2908 C2914 1.428 . S
H2909 C2905 0.930 . S
H2910 C2907 0.929 . S
S2911 N2912 1.613 . S
S2911 N2913 1.610 . S
N2912 S2911 1.613 . S
N2912 C2915 1.350 . S
N2913 S2911 1.610 . S
N2913 C2914 1.351 . S
C2914 C2908 1.428 . S
C2914 N2913 1.351 . S
C2914 C2915 1.434 . S
C2915 C2906 1.429 . S
C2915 N2912 1.350 . S
C2915 C2914 1.434 . S
C2916 C2917 1.369 . S
C2916 C2918 1.419 . S
C2916 H2920 0.930 . S
C2917 C2916 1.369 . S
C2917 C2926 1.429 . S
C2918 C2916 1.419 . S
C2918 C2919 1.363 . S
C2918 H2921 0.929 . S
C2919 C2918 1.363 . S
C2919 C2925 1.428 . S
H2920 C2916 0.930 . S
H2921 C2918 0.929 . S
S2922 N2923 1.613 . S
S2922 N2924 1.610 . S
N2923 S2922 1.613 . S
N2923 C2926 1.350 . S
N2924 S2922 1.610 . S
N2924 C2925 1.351 . S
C2925 C2919 1.428 . S
C2925 N2924 1.351 . S
C2925 C2926 1.434 . S
C2926 C2917 1.429 . S
C2926 N2923 1.350 . S
C2926 C2925 1.434 . S
C2927 C2928 1.369 . S
C2927 C2929 1.419 . S
C2927 H2931 0.930 . S
C2928 C2927 1.369 . S
C2928 C2937 1.429 . S
C2929 C2927 1.419 . S
C2929 C2930 1.363 . S
C2929 H2932 0.929 . S
C2930 C2929 1.363 . S
C2930 C2936 1.428 . S
H2931 C2927 0.930 . S
H2932 C2929 0.929 . S
S2933 N2934 1.613 . S
S2933 N2935 1.610 . S
N2934 S2933 1.613 . S
N2934 C2937 1.350 . S
N2935 S2933 1.610 . S
N2935 C2936 1.351 . S
C2936 C2930 1.428 . S
C2936 N2935 1.351 . S
C2936 C2937 1.434 . S
C2937 C2928 1.429 . S
C2937 N2934 1.350 . S
C2937 C2936 1.434 . S
C2938 C2939 1.369 . S
C2938 C2940 1.419 . S
C2938 H2942 0.930 . S
C2939 C2938 1.369 . S
C2939 C2948 1.429 . S
C2940 C2938 1.419 . S
C2940 C2941 1.363 . S
C2940 H2943 0.929 . S
C2941 C2940 1.363 . S
C2941 C2947 1.428 . S
H2942 C2938 0.930 . S
H2943 C2940 0.929 . S
S2944 N2945 1.613 . S
S2944 N2946 1.610 . S
N2945 S2944 1.613 . S
N2945 C2948 1.350 . S
N2946 S2944 1.610 . S
N2946 C2947 1.351 . S
C2947 C2941 1.428 . S
C2947 N2946 1.351 . S
C2947 C2948 1.434 . S
C2948 C2939 1.429 . S
C2948 N2945 1.350 . S
C2948 C2947 1.434 . S
C2949 C2950 1.369 . S
C2949 C2951 1.419 . S
C2949 H2953 0.930 . S
C2950 C2949 1.369 . S
C2950 C2959 1.429 . S
C2951 C2949 1.419 . S
C2951 C2952 1.363 . S
C2951 H2954 0.929 . S
C2952 C2951 1.363 . S
C2952 C2958 1.428 . S
H2953 C2949 0.930 . S
H2954 C2951 0.929 . S
S2955 N2956 1.613 . S
S2955 N2957 1.610 . S
N2956 S2955 1.613 . S
N2956 C2959 1.350 . S
N2957 S2955 1.610 . S
N2957 C2958 1.351 . S
C2958 C2952 1.428 . S
C2958 N2957 1.351 . S
C2958 C2959 1.434 . S
C2959 C2950 1.429 . S
C2959 N2956 1.350 . S
C2959 C2958 1.434 . S
C2960 C2961 1.369 . S
C2960 C2962 1.419 . S
C2960 H2964 0.930 . S
C2961 C2960 1.369 . S
C2961 C2970 1.429 . S
C2962 C2960 1.419 . S
C2962 C2963 1.363 . S
C2962 H2965 0.929 . S
C2963 C2962 1.363 . S
C2963 C2969 1.428 . S
H2964 C2960 0.930 . S
H2965 C2962 0.929 . S
S2966 N2967 1.613 . S
S2966 N2968 1.610 . S
N2967 S2966 1.613 . S
N2967 C2970 1.350 . S
N2968 S2966 1.610 . S
N2968 C2969 1.351 . S
C2969 C2963 1.428 . S
C2969 N2968 1.351 . S
C2969 C2970 1.434 . S
C2970 C2961 1.429 . S
C2970 N2967 1.350 . S
C2970 C2969 1.434 . S
C2971 C2972 1.369 . S
C2971 C2973 1.419 . S
C2971 H2975 0.930 . S
C2972 C2971 1.369 . S
C2972 C2981 1.429 . S
C2973 C2971 1.419 . S
C2973 C2974 1.363 . S
C2973 H2976 0.929 . S
C2974 C2973 1.363 . S
C2974 C2980 1.428 . S
H2975 C2971 0.930 . S
H2976 C2973 0.929 . S
S2977 N2978 1.613 . S
S2977 N2979 1.610 . S
N2978 S2977 1.613 . S
N2978 C2981 1.350 . S
N2979 S2977 1.610 . S
N2979 C2980 1.351 . S
C2980 C2974 1.428 . S
C2980 N2979 1.351 . S
C2980 C2981 1.434 . S
C2981 C2972 1.429 . S
C2981 N2978 1.350 . S
C2981 C2980 1.434 . S
C2982 C2983 1.369 . S
C2982 C2984 1.419 . S
C2982 H2986 0.930 . S
C2983 C2982 1.369 . S
C2983 C2992 1.429 . S
C2984 C2982 1.419 . S
C2984 C2985 1.363 . S
C2984 H2987 0.929 . S
C2985 C2984 1.363 . S
C2985 C2991 1.428 . S
H2986 C2982 0.930 . S
H2987 C2984 0.929 . S
S2988 N2989 1.613 . S
S2988 N2990 1.610 . S
N2989 S2988 1.613 . S
N2989 C2992 1.350 . S
N2990 S2988 1.610 . S
N2990 C2991 1.351 . S
C2991 C2985 1.428 . S
C2991 N2990 1.351 . S
C2991 C2992 1.434 . S
C2992 C2983 1.429 . S
C2992 N2989 1.350 . S
C2992 C2991 1.434 . S
C2993 C2994 1.369 . S
C2993 C2995 1.419 . S
C2993 H2997 0.930 . S
C2994 C2993 1.369 . S
C2994 C3003 1.429 . S
C2995 C2993 1.419 . S
C2995 C2996 1.363 . S
C2995 H2998 0.929 . S
C2996 C2995 1.363 . S
C2996 C3002 1.428 . S
H2997 C2993 0.930 . S
H2998 C2995 0.929 . S
S2999 N3000 1.613 . S
S2999 N3001 1.610 . S
N3000 S2999 1.613 . S
N3000 C3003 1.350 . S
N3001 S2999 1.610 . S
N3001 C3002 1.351 . S
C3002 C2996 1.428 . S
C3002 N3001 1.351 . S
C3002 C3003 1.434 . S
C3003 C2994 1.429 . S
C3003 N3000 1.350 . S
C3003 C3002 1.434 . S
C3004 C3005 1.369 . S
C3004 C3006 1.419 . S
C3004 H3008 0.930 . S
C3005 C3004 1.369 . S
C3005 C3014 1.429 . S
C3006 C3004 1.419 . S
C3006 C3007 1.363 . S
C3006 H3009 0.929 . S
C3007 C3006 1.363 . S
C3007 C3013 1.428 . S
H3008 C3004 0.930 . S
H3009 C3006 0.929 . S
S3010 N3011 1.613 . S
S3010 N3012 1.610 . S
N3011 S3010 1.613 . S
N3011 C3014 1.350 . S
N3012 S3010 1.610 . S
N3012 C3013 1.351 . S
C3013 C3007 1.428 . S
C3013 N3012 1.351 . S
C3013 C3014 1.434 . S
C3014 C3005 1.429 . S
C3014 N3011 1.350 . S
C3014 C3013 1.434 . S
C3015 C3016 1.369 . S
C3015 C3017 1.419 . S
C3015 H3019 0.930 . S
C3016 C3015 1.369 . S
C3016 C3025 1.429 . S
C3017 C3015 1.419 . S
C3017 C3018 1.363 . S
C3017 H3020 0.929 . S
C3018 C3017 1.363 . S
C3018 C3024 1.428 . S
H3019 C3015 0.930 . S
H3020 C3017 0.929 . S
S3021 N3022 1.613 . S
S3021 N3023 1.610 . S
N3022 S3021 1.613 . S
N3022 C3025 1.350 . S
N3023 S3021 1.610 . S
N3023 C3024 1.351 . S
C3024 C3018 1.428 . S
C3024 N3023 1.351 . S
C3024 C3025 1.434 . S
C3025 C3016 1.429 . S
C3025 N3022 1.350 . S
C3025 C3024 1.434 . S
C3026 C3027 1.369 . S
C3026 C3028 1.419 . S
C3026 H3030 0.930 . S
C3027 C3026 1.369 . S
C3027 C3036 1.429 . S
C3028 C3026 1.419 . S
C3028 C3029 1.363 . S
C3028 H3031 0.929 . S
C3029 C3028 1.363 . S
C3029 C3035 1.428 . S
H3030 C3026 0.930 . S
H3031 C3028 0.929 . S
S3032 N3033 1.613 . S
S3032 N3034 1.610 . S
N3033 S3032 1.613 . S
N3033 C3036 1.350 . S
N3034 S3032 1.610 . S
N3034 C3035 1.351 . S
C3035 C3029 1.428 . S
C3035 N3034 1.351 . S
C3035 C3036 1.434 . S
C3036 C3027 1.429 . S
C3036 N3033 1.350 . S
C3036 C3035 1.434 . S
C3037 C3038 1.369 . S
C3037 C3039 1.419 . S
C3037 H3041 0.930 . S
C3038 C3037 1.369 . S
C3038 C3047 1.429 . S
C3039 C3037 1.419 . S
C3039 C3040 1.363 . S
C3039 H3042 0.929 . S
C3040 C3039 1.363 . S
C3040 C3046 1.428 . S
H3041 C3037 0.930 . S
H3042 C3039 0.929 . S
S3043 N3044 1.613 . S
S3043 N3045 1.610 . S
N3044 S3043 1.613 . S
N3044 C3047 1.350 . S
N3045 S3043 1.610 . S
N3045 C3046 1.351 . S
C3046 C3040 1.428 . S
C3046 N3045 1.351 . S
C3046 C3047 1.434 . S
C3047 C3038 1.429 . S
C3047 N3044 1.350 . S
C3047 C3046 1.434 . S
C3048 C3049 1.369 . S
C3048 C3050 1.419 . S
C3048 H3052 0.930 . S
C3049 C3048 1.369 . S
C3049 C3058 1.429 . S
C3050 C3048 1.419 . S
C3050 C3051 1.363 . S
C3050 H3053 0.929 . S
C3051 C3050 1.363 . S
C3051 C3057 1.428 . S
H3052 C3048 0.930 . S
H3053 C3050 0.929 . S
S3054 N3055 1.613 . S
S3054 N3056 1.610 . S
N3055 S3054 1.613 . S
N3055 C3058 1.350 . S
N3056 S3054 1.610 . S
N3056 C3057 1.351 . S
C3057 C3051 1.428 . S
C3057 N3056 1.351 . S
C3057 C3058 1.434 . S
C3058 C3049 1.429 . S
C3058 N3055 1.350 . S
C3058 C3057 1.434 . S
C3059 C3060 1.369 . S
C3059 C3061 1.419 . S
C3059 H3063 0.930 . S
C3060 C3059 1.369 . S
C3060 C3069 1.429 . S
C3061 C3059 1.419 . S
C3061 C3062 1.363 . S
C3061 H3064 0.929 . S
C3062 C3061 1.363 . S
C3062 C3068 1.428 . S
H3063 C3059 0.930 . S
H3064 C3061 0.929 . S
S3065 N3066 1.613 . S
S3065 N3067 1.610 . S
N3066 S3065 1.613 . S
N3066 C3069 1.350 . S
N3067 S3065 1.610 . S
N3067 C3068 1.351 . S
C3068 C3062 1.428 . S
C3068 N3067 1.351 . S
C3068 C3069 1.434 . S
C3069 C3060 1.429 . S
C3069 N3066 1.350 . S
C3069 C3068 1.434 . S
C3070 C3071 1.369 . S
C3070 C3072 1.419 . S
C3070 H3074 0.930 . S
C3071 C3070 1.369 . S
C3071 C3080 1.429 . S
C3072 C3070 1.419 . S
C3072 C3073 1.363 . S
C3072 H3075 0.929 . S
C3073 C3072 1.363 . S
C3073 C3079 1.428 . S
H3074 C3070 0.930 . S
H3075 C3072 0.929 . S
S3076 N3077 1.613 . S
S3076 N3078 1.610 . S
N3077 S3076 1.613 . S
N3077 C3080 1.350 . S
N3078 S3076 1.610 . S
N3078 C3079 1.351 . S
C3079 C3073 1.428 . S
C3079 N3078 1.351 . S
C3079 C3080 1.434 . S
C3080 C3071 1.429 . S
C3080 N3077 1.350 . S
C3080 C3079 1.434 . S
C3081 C3082 1.369 . S
C3081 C3083 1.419 . S
C3081 H3085 0.930 . S
C3082 C3081 1.369 . S
C3082 C3091 1.429 . S
C3083 C3081 1.419 . S
C3083 C3084 1.363 . S
C3083 H3086 0.929 . S
C3084 C3083 1.363 . S
C3084 C3090 1.428 . S
H3085 C3081 0.930 . S
H3086 C3083 0.929 . S
S3087 N3088 1.613 . S
S3087 N3089 1.610 . S
N3088 S3087 1.613 . S
N3088 C3091 1.350 . S
N3089 S3087 1.610 . S
N3089 C3090 1.351 . S
C3090 C3084 1.428 . S
C3090 N3089 1.351 . S
C3090 C3091 1.434 . S
C3091 C3082 1.429 . S
C3091 N3088 1.350 . S
C3091 C3090 1.434 . S
C3092 C3093 1.369 . S
C3092 C3094 1.419 . S
C3092 H3096 0.930 . S
C3093 C3092 1.369 . S
C3093 C3102 1.429 . S
C3094 C3092 1.419 . S
C3094 C3095 1.363 . S
C3094 H3097 0.929 . S
C3095 C3094 1.363 . S
C3095 C3101 1.428 . S
H3096 C3092 0.930 . S
H3097 C3094 0.929 . S
S3098 N3099 1.613 . S
S3098 N3100 1.610 . S
N3099 S3098 1.613 . S
N3099 C3102 1.350 . S
N3100 S3098 1.610 . S
N3100 C3101 1.351 . S
C3101 C3095 1.428 . S
C3101 N3100 1.351 . S
C3101 C3102 1.434 . S
C3102 C3093 1.429 . S
C3102 N3099 1.350 . S
C3102 C3101 1.434 . S
C3103 C3104 1.369 . S
C3103 C3105 1.419 . S
C3103 H3107 0.930 . S
C3104 C3103 1.369 . S
C3104 C3113 1.429 . S
C3105 C3103 1.419 . S
C3105 C3106 1.363 . S
C3105 H3108 0.929 . S
C3106 C3105 1.363 . S
C3106 C3112 1.428 . S
H3107 C3103 0.930 . S
H3108 C3105 0.929 . S
S3109 N3110 1.613 . S
S3109 N3111 1.610 . S
N3110 S3109 1.613 . S
N3110 C3113 1.350 . S
N3111 S3109 1.610 . S
N3111 C3112 1.351 . S
C3112 C3106 1.428 . S
C3112 N3111 1.351 . S
C3112 C3113 1.434 . S
C3113 C3104 1.429 . S
C3113 N3110 1.350 . S
C3113 C3112 1.434 . S
C3114 C3115 1.369 . S
C3114 C3116 1.419 . S
C3114 H3118 0.930 . S
C3115 C3114 1.369 . S
C3115 C3124 1.429 . S
C3116 C3114 1.419 . S
C3116 C3117 1.363 . S
C3116 H3119 0.929 . S
C3117 C3116 1.363 . S
C3117 C3123 1.428 . S
H3118 C3114 0.930 . S
H3119 C3116 0.929 . S
S3120 N3121 1.613 . S
S3120 N3122 1.610 . S
N3121 S3120 1.613 . S
N3121 C3124 1.350 . S
N3122 S3120 1.610 . S
N3122 C3123 1.351 . S
C3123 C3117 1.428 . S
C3123 N3122 1.351 . S
C3123 C3124 1.434 . S
C3124 C3115 1.429 . S
C3124 N3121 1.350 . S
C3124 C3123 1.434 . S
C3125 C3126 1.369 . S
C3125 C3127 1.419 . S
C3125 H3129 0.930 . S
C3126 C3125 1.369 . S
C3126 C3135 1.429 . S
C3127 C3125 1.419 . S
C3127 C3128 1.363 . S
C3127 H3130 0.929 . S
C3128 C3127 1.363 . S
C3128 C3134 1.428 . S
H3129 C3125 0.930 . S
H3130 C3127 0.929 . S
S3131 N3132 1.613 . S
S3131 N3133 1.610 . S
N3132 S3131 1.613 . S
N3132 C3135 1.350 . S
N3133 S3131 1.610 . S
N3133 C3134 1.351 . S
C3134 C3128 1.428 . S
C3134 N3133 1.351 . S
C3134 C3135 1.434 . S
C3135 C3126 1.429 . S
C3135 N3132 1.350 . S
C3135 C3134 1.434 . S
C3136 C3137 1.369 . S
C3136 C3138 1.419 . S
C3136 H3140 0.930 . S
C3137 C3136 1.369 . S
C3137 C3146 1.429 . S
C3138 C3136 1.419 . S
C3138 C3139 1.363 . S
C3138 H3141 0.929 . S
C3139 C3138 1.363 . S
C3139 C3145 1.428 . S
H3140 C3136 0.930 . S
H3141 C3138 0.929 . S
S3142 N3143 1.613 . S
S3142 N3144 1.610 . S
N3143 S3142 1.613 . S
N3143 C3146 1.350 . S
N3144 S3142 1.610 . S
N3144 C3145 1.351 . S
C3145 C3139 1.428 . S
C3145 N3144 1.351 . S
C3145 C3146 1.434 . S
C3146 C3137 1.429 . S
C3146 N3143 1.350 . S
C3146 C3145 1.434 . S
C3147 C3148 1.369 . S
C3147 C3149 1.419 . S
C3147 H3151 0.930 . S
C3148 C3147 1.369 . S
C3148 C3157 1.429 . S
C3149 C3147 1.419 . S
C3149 C3150 1.363 . S
C3149 H3152 0.929 . S
C3150 C3149 1.363 . S
C3150 C3156 1.428 . S
H3151 C3147 0.930 . S
H3152 C3149 0.929 . S
S3153 N3154 1.613 . S
S3153 N3155 1.610 . S
N3154 S3153 1.613 . S
N3154 C3157 1.350 . S
N3155 S3153 1.610 . S
N3155 C3156 1.351 . S
C3156 C3150 1.428 . S
C3156 N3155 1.351 . S
C3156 C3157 1.434 . S
C3157 C3148 1.429 . S
C3157 N3154 1.350 . S
C3157 C3156 1.434 . S
C3158 C3159 1.369 . S
C3158 C3160 1.419 . S
C3158 H3162 0.930 . S
C3159 C3158 1.369 . S
C3159 C3168 1.429 . S
C3160 C3158 1.419 . S
C3160 C3161 1.363 . S
C3160 H3163 0.929 . S
C3161 C3160 1.363 . S
C3161 C3167 1.428 . S
H3162 C3158 0.930 . S
H3163 C3160 0.929 . S
S3164 N3165 1.613 . S
S3164 N3166 1.610 . S
N3165 S3164 1.613 . S
N3165 C3168 1.350 . S
N3166 S3164 1.610 . S
N3166 C3167 1.351 . S
C3167 C3161 1.428 . S
C3167 N3166 1.351 . S
C3167 C3168 1.434 . S
C3168 C3159 1.429 . S
C3168 N3165 1.350 . S
C3168 C3167 1.434 . S
C3169 C3170 1.369 . S
C3169 C3171 1.419 . S
C3169 H3173 0.930 . S
C3170 C3169 1.369 . S
C3170 C3179 1.429 . S
C3171 C3169 1.419 . S
C3171 C3172 1.363 . S
C3171 H3174 0.929 . S
C3172 C3171 1.363 . S
C3172 C3178 1.428 . S
H3173 C3169 0.930 . S
H3174 C3171 0.929 . S
S3175 N3176 1.613 . S
S3175 N3177 1.610 . S
N3176 S3175 1.613 . S
N3176 C3179 1.350 . S
N3177 S3175 1.610 . S
N3177 C3178 1.351 . S
C3178 C3172 1.428 . S
C3178 N3177 1.351 . S
C3178 C3179 1.434 . S
C3179 C3170 1.429 . S
C3179 N3176 1.350 . S
C3179 C3178 1.434 . S
C3180 C3181 1.369 . S
C3180 C3182 1.419 . S
C3180 H3184 0.930 . S
C3181 C3180 1.369 . S
C3181 C3190 1.429 . S
C3182 C3180 1.419 . S
C3182 C3183 1.363 . S
C3182 H3185 0.929 . S
C3183 C3182 1.363 . S
C3183 C3189 1.428 . S
H3184 C3180 0.930 . S
H3185 C3182 0.929 . S
S3186 N3187 1.613 . S
S3186 N3188 1.610 . S
N3187 S3186 1.613 . S
N3187 C3190 1.350 . S
N3188 S3186 1.610 . S
N3188 C3189 1.351 . S
C3189 C3183 1.428 . S
C3189 N3188 1.351 . S
C3189 C3190 1.434 . S
C3190 C3181 1.429 . S
C3190 N3187 1.350 . S
C3190 C3189 1.434 . S
C3191 C3192 1.369 . S
C3191 C3193 1.419 . S
C3191 H3195 0.930 . S
C3192 C3191 1.369 . S
C3192 C3201 1.429 . S
C3193 C3191 1.419 . S
C3193 C3194 1.363 . S
C3193 H3196 0.929 . S
C3194 C3193 1.363 . S
C3194 C3200 1.428 . S
H3195 C3191 0.930 . S
H3196 C3193 0.929 . S
S3197 N3198 1.613 . S
S3197 N3199 1.610 . S
N3198 S3197 1.613 . S
N3198 C3201 1.350 . S
N3199 S3197 1.610 . S
N3199 C3200 1.351 . S
C3200 C3194 1.428 . S
C3200 N3199 1.351 . S
C3200 C3201 1.434 . S
C3201 C3192 1.429 . S
C3201 N3198 1.350 . S
C3201 C3200 1.434 . S
C3202 C3203 1.369 . S
C3202 C3204 1.419 . S
C3202 H3206 0.930 . S
C3203 C3202 1.369 . S
C3203 C3212 1.429 . S
C3204 C3202 1.419 . S
C3204 C3205 1.363 . S
C3204 H3207 0.929 . S
C3205 C3204 1.363 . S
C3205 C3211 1.428 . S
H3206 C3202 0.930 . S
H3207 C3204 0.929 . S
S3208 N3209 1.613 . S
S3208 N3210 1.610 . S
N3209 S3208 1.613 . S
N3209 C3212 1.350 . S
N3210 S3208 1.610 . S
N3210 C3211 1.351 . S
C3211 C3205 1.428 . S
C3211 N3210 1.351 . S
C3211 C3212 1.434 . S
C3212 C3203 1.429 . S
C3212 N3209 1.350 . S
C3212 C3211 1.434 . S
C3213 C3214 1.369 . S
C3213 C3215 1.419 . S
C3213 H3217 0.930 . S
C3214 C3213 1.369 . S
C3214 C3223 1.429 . S
C3215 C3213 1.419 . S
C3215 C3216 1.363 . S
C3215 H3218 0.929 . S
C3216 C3215 1.363 . S
C3216 C3222 1.428 . S
H3217 C3213 0.930 . S
H3218 C3215 0.929 . S
S3219 N3220 1.613 . S
S3219 N3221 1.610 . S
N3220 S3219 1.613 . S
N3220 C3223 1.350 . S
N3221 S3219 1.610 . S
N3221 C3222 1.351 . S
C3222 C3216 1.428 . S
C3222 N3221 1.351 . S
C3222 C3223 1.434 . S
C3223 C3214 1.429 . S
C3223 N3220 1.350 . S
C3223 C3222 1.434 . S
C3224 C3225 1.369 . S
C3224 C3226 1.419 . S
C3224 H3228 0.930 . S
C3225 C3224 1.369 . S
C3225 C3234 1.429 . S
C3226 C3224 1.419 . S
C3226 C3227 1.363 . S
C3226 H3229 0.929 . S
C3227 C3226 1.363 . S
C3227 C3233 1.428 . S
H3228 C3224 0.930 . S
H3229 C3226 0.929 . S
S3230 N3231 1.613 . S
S3230 N3232 1.610 . S
N3231 S3230 1.613 . S
N3231 C3234 1.350 . S
N3232 S3230 1.610 . S
N3232 C3233 1.351 . S
C3233 C3227 1.428 . S
C3233 N3232 1.351 . S
C3233 C3234 1.434 . S
C3234 C3225 1.429 . S
C3234 N3231 1.350 . S
C3234 C3233 1.434 . S
C3235 C3236 1.369 . S
C3235 C3237 1.419 . S
C3235 H3239 0.930 . S
C3236 C3235 1.369 . S
C3236 C3245 1.429 . S
C3237 C3235 1.419 . S
C3237 C3238 1.363 . S
C3237 H3240 0.929 . S
C3238 C3237 1.363 . S
C3238 C3244 1.428 . S
H3239 C3235 0.930 . S
H3240 C3237 0.929 . S
S3241 N3242 1.613 . S
S3241 N3243 1.610 . S
N3242 S3241 1.613 . S
N3242 C3245 1.350 . S
N3243 S3241 1.610 . S
N3243 C3244 1.351 . S
C3244 C3238 1.428 . S
C3244 N3243 1.351 . S
C3244 C3245 1.434 . S
C3245 C3236 1.429 . S
C3245 N3242 1.350 . S
C3245 C3244 1.434 . S
C3246 C3247 1.369 . S
C3246 C3248 1.419 . S
C3246 H3250 0.930 . S
C3247 C3246 1.369 . S
C3247 C3256 1.429 . S
C3248 C3246 1.419 . S
C3248 C3249 1.363 . S
C3248 H3251 0.929 . S
C3249 C3248 1.363 . S
C3249 C3255 1.428 . S
H3250 C3246 0.930 . S
H3251 C3248 0.929 . S
S3252 N3253 1.613 . S
S3252 N3254 1.610 . S
N3253 S3252 1.613 . S
N3253 C3256 1.350 . S
N3254 S3252 1.610 . S
N3254 C3255 1.351 . S
C3255 C3249 1.428 . S
C3255 N3254 1.351 . S
C3255 C3256 1.434 . S
C3256 C3247 1.429 . S
C3256 N3253 1.350 . S
C3256 C3255 1.434 . S
C3257 C3258 1.369 . S
C3257 C3259 1.419 . S
C3257 H3261 0.930 . S
C3258 C3257 1.369 . S
C3258 C3267 1.429 . S
C3259 C3257 1.419 . S
C3259 C3260 1.363 . S
C3259 H3262 0.929 . S
C3260 C3259 1.363 . S
C3260 C3266 1.428 . S
H3261 C3257 0.930 . S
H3262 C3259 0.929 . S
S3263 N3264 1.613 . S
S3263 N3265 1.610 . S
N3264 S3263 1.613 . S
N3264 C3267 1.350 . S
N3265 S3263 1.610 . S
N3265 C3266 1.351 . S
C3266 C3260 1.428 . S
C3266 N3265 1.351 . S
C3266 C3267 1.434 . S
C3267 C3258 1.429 . S
C3267 N3264 1.350 . S
C3267 C3266 1.434 . S
C3268 C3269 1.369 . S
C3268 C3270 1.419 . S
C3268 H3272 0.930 . S
C3269 C3268 1.369 . S
C3269 C3278 1.429 . S
C3270 C3268 1.419 . S
C3270 C3271 1.363 . S
C3270 H3273 0.929 . S
C3271 C3270 1.363 . S
C3271 C3277 1.428 . S
H3272 C3268 0.930 . S
H3273 C3270 0.929 . S
S3274 N3275 1.613 . S
S3274 N3276 1.610 . S
N3275 S3274 1.613 . S
N3275 C3278 1.350 . S
N3276 S3274 1.610 . S
N3276 C3277 1.351 . S
C3277 C3271 1.428 . S
C3277 N3276 1.351 . S
C3277 C3278 1.434 . S
C3278 C3269 1.429 . S
C3278 N3275 1.350 . S
C3278 C3277 1.434 . S
C3279 C3280 1.369 . S
C3279 C3281 1.419 . S
C3279 H3283 0.930 . S
C3280 C3279 1.369 . S
C3280 C3289 1.429 . S
C3281 C3279 1.419 . S
C3281 C3282 1.363 . S
C3281 H3284 0.929 . S
C3282 C3281 1.363 . S
C3282 C3288 1.428 . S
H3283 C3279 0.930 . S
H3284 C3281 0.929 . S
S3285 N3286 1.613 . S
S3285 N3287 1.610 . S
N3286 S3285 1.613 . S
N3286 C3289 1.350 . S
N3287 S3285 1.610 . S
N3287 C3288 1.351 . S
C3288 C3282 1.428 . S
C3288 N3287 1.351 . S
C3288 C3289 1.434 . S
C3289 C3280 1.429 . S
C3289 N3286 1.350 . S
C3289 C3288 1.434 . S
C3290 C3291 1.369 . S
C3290 C3292 1.419 . S
C3290 H3294 0.930 . S
C3291 C3290 1.369 . S
C3291 C3300 1.429 . S
C3292 C3290 1.419 . S
C3292 C3293 1.363 . S
C3292 H3295 0.929 . S
C3293 C3292 1.363 . S
C3293 C3299 1.428 . S
H3294 C3290 0.930 . S
H3295 C3292 0.929 . S
S3296 N3297 1.613 . S
S3296 N3298 1.610 . S
N3297 S3296 1.613 . S
N3297 C3300 1.350 . S
N3298 S3296 1.610 . S
N3298 C3299 1.351 . S
C3299 C3293 1.428 . S
C3299 N3298 1.351 . S
C3299 C3300 1.434 . S
C3300 C3291 1.429 . S
C3300 N3297 1.350 . S
C3300 C3299 1.434 . S
C3301 C3302 1.369 . S
C3301 C3303 1.419 . S
C3301 H3305 0.930 . S
C3302 C3301 1.369 . S
C3302 C3311 1.429 . S
C3303 C3301 1.419 . S
C3303 C3304 1.363 . S
C3303 H3306 0.929 . S
C3304 C3303 1.363 . S
C3304 C3310 1.428 . S
H3305 C3301 0.930 . S
H3306 C3303 0.929 . S
S3307 N3308 1.613 . S
S3307 N3309 1.610 . S
N3308 S3307 1.613 . S
N3308 C3311 1.350 . S
N3309 S3307 1.610 . S
N3309 C3310 1.351 . S
C3310 C3304 1.428 . S
C3310 N3309 1.351 . S
C3310 C3311 1.434 . S
C3311 C3302 1.429 . S
C3311 N3308 1.350 . S
C3311 C3310 1.434 . S
C3312 C3313 1.369 . S
C3312 C3314 1.419 . S
C3312 H3316 0.930 . S
C3313 C3312 1.369 . S
C3313 C3322 1.429 . S
C3314 C3312 1.419 . S
C3314 C3315 1.363 . S
C3314 H3317 0.929 . S
C3315 C3314 1.363 . S
C3315 C3321 1.428 . S
H3316 C3312 0.930 . S
H3317 C3314 0.929 . S
S3318 N3319 1.613 . S
S3318 N3320 1.610 . S
N3319 S3318 1.613 . S
N3319 C3322 1.350 . S
N3320 S3318 1.610 . S
N3320 C3321 1.351 . S
C3321 C3315 1.428 . S
C3321 N3320 1.351 . S
C3321 C3322 1.434 . S
C3322 C3313 1.429 . S
C3322 N3319 1.350 . S
C3322 C3321 1.434 . S
C3323 C3324 1.369 . S
C3323 C3325 1.419 . S
C3323 H3327 0.930 . S
C3324 C3323 1.369 . S
C3324 C3333 1.429 . S
C3325 C3323 1.419 . S
C3325 C3326 1.363 . S
C3325 H3328 0.929 . S
C3326 C3325 1.363 . S
C3326 C3332 1.428 . S
H3327 C3323 0.930 . S
H3328 C3325 0.929 . S
S3329 N3330 1.613 . S
S3329 N3331 1.610 . S
N3330 S3329 1.613 . S
N3330 C3333 1.350 . S
N3331 S3329 1.610 . S
N3331 C3332 1.351 . S
C3332 C3326 1.428 . S
C3332 N3331 1.351 . S
C3332 C3333 1.434 . S
C3333 C3324 1.429 . S
C3333 N3330 1.350 . S
C3333 C3332 1.434 . S
C3334 C3335 1.369 . S
C3334 C3336 1.419 . S
C3334 H3338 0.930 . S
C3335 C3334 1.369 . S
C3335 C3344 1.429 . S
C3336 C3334 1.419 . S
C3336 C3337 1.363 . S
C3336 H3339 0.929 . S
C3337 C3336 1.363 . S
C3337 C3343 1.428 . S
H3338 C3334 0.930 . S
H3339 C3336 0.929 . S
S3340 N3341 1.613 . S
S3340 N3342 1.610 . S
N3341 S3340 1.613 . S
N3341 C3344 1.350 . S
N3342 S3340 1.610 . S
N3342 C3343 1.351 . S
C3343 C3337 1.428 . S
C3343 N3342 1.351 . S
C3343 C3344 1.434 . S
C3344 C3335 1.429 . S
C3344 N3341 1.350 . S
C3344 C3343 1.434 . S
C3345 C3346 1.369 . S
C3345 C3347 1.419 . S
C3345 H3349 0.930 . S
C3346 C3345 1.369 . S
C3346 C3355 1.429 . S
C3347 C3345 1.419 . S
C3347 C3348 1.363 . S
C3347 H3350 0.929 . S
C3348 C3347 1.363 . S
C3348 C3354 1.428 . S
H3349 C3345 0.930 . S
H3350 C3347 0.929 . S
S3351 N3352 1.613 . S
S3351 N3353 1.610 . S
N3352 S3351 1.613 . S
N3352 C3355 1.350 . S
N3353 S3351 1.610 . S
N3353 C3354 1.351 . S
C3354 C3348 1.428 . S
C3354 N3353 1.351 . S
C3354 C3355 1.434 . S
C3355 C3346 1.429 . S
C3355 N3352 1.350 . S
C3355 C3354 1.434 . S
C3356 C3357 1.369 . S
C3356 C3358 1.419 . S
C3356 H3360 0.930 . S
C3357 C3356 1.369 . S
C3357 C3366 1.429 . S
C3358 C3356 1.419 . S
C3358 C3359 1.363 . S
C3358 H3361 0.929 . S
C3359 C3358 1.363 . S
C3359 C3365 1.428 . S
H3360 C3356 0.930 . S
H3361 C3358 0.929 . S
S3362 N3363 1.613 . S
S3362 N3364 1.610 . S
N3363 S3362 1.613 . S
N3363 C3366 1.350 . S
N3364 S3362 1.610 . S
N3364 C3365 1.351 . S
C3365 C3359 1.428 . S
C3365 N3364 1.351 . S
C3365 C3366 1.434 . S
C3366 C3357 1.429 . S
C3366 N3363 1.350 . S
C3366 C3365 1.434 . S
C3367 C3368 1.369 . S
C3367 C3369 1.419 . S
C3367 H3371 0.930 . S
C3368 C3367 1.369 . S
C3368 C3377 1.429 . S
C3369 C3367 1.419 . S
C3369 C3370 1.363 . S
C3369 H3372 0.929 . S
C3370 C3369 1.363 . S
C3370 C3376 1.428 . S
H3371 C3367 0.930 . S
H3372 C3369 0.929 . S
S3373 N3374 1.613 . S
S3373 N3375 1.610 . S
N3374 S3373 1.613 . S
N3374 C3377 1.350 . S
N3375 S3373 1.610 . S
N3375 C3376 1.351 . S
C3376 C3370 1.428 . S
C3376 N3375 1.351 . S
C3376 C3377 1.434 . S
C3377 C3368 1.429 . S
C3377 N3374 1.350 . S
C3377 C3376 1.434 . S
C3378 C3379 1.369 . S
C3378 C3380 1.419 . S
C3378 H3382 0.930 . S
C3379 C3378 1.369 . S
C3379 C3388 1.429 . S
C3380 C3378 1.419 . S
C3380 C3381 1.363 . S
C3380 H3383 0.929 . S
C3381 C3380 1.363 . S
C3381 C3387 1.428 . S
H3382 C3378 0.930 . S
H3383 C3380 0.929 . S
S3384 N3385 1.613 . S
S3384 N3386 1.610 . S
N3385 S3384 1.613 . S
N3385 C3388 1.350 . S
N3386 S3384 1.610 . S
N3386 C3387 1.351 . S
C3387 C3381 1.428 . S
C3387 N3386 1.351 . S
C3387 C3388 1.434 . S
C3388 C3379 1.429 . S
C3388 N3385 1.350 . S
C3388 C3387 1.434 . S
C3389 C3390 1.369 . S
C3389 C3391 1.419 . S
C3389 H3393 0.930 . S
C3390 C3389 1.369 . S
C3390 C3399 1.429 . S
C3391 C3389 1.419 . S
C3391 C3392 1.363 . S
C3391 H3394 0.929 . S
C3392 C3391 1.363 . S
C3392 C3398 1.428 . S
H3393 C3389 0.930 . S
H3394 C3391 0.929 . S
S3395 N3396 1.613 . S
S3395 N3397 1.610 . S
N3396 S3395 1.613 . S
N3396 C3399 1.350 . S
N3397 S3395 1.610 . S
N3397 C3398 1.351 . S
C3398 C3392 1.428 . S
C3398 N3397 1.351 . S
C3398 C3399 1.434 . S
C3399 C3390 1.429 . S
C3399 N3396 1.350 . S
C3399 C3398 1.434 . S
C3400 C3401 1.369 . S
C3400 C3402 1.419 . S
C3400 H3404 0.930 . S
C3401 C3400 1.369 . S
C3401 C3410 1.429 . S
C3402 C3400 1.419 . S
C3402 C3403 1.363 . S
C3402 H3405 0.929 . S
C3403 C3402 1.363 . S
C3403 C3409 1.428 . S
H3404 C3400 0.930 . S
H3405 C3402 0.929 . S
S3406 N3407 1.613 . S
S3406 N3408 1.610 . S
N3407 S3406 1.613 . S
N3407 C3410 1.350 . S
N3408 S3406 1.610 . S
N3408 C3409 1.351 . S
C3409 C3403 1.428 . S
C3409 N3408 1.351 . S
C3409 C3410 1.434 . S
C3410 C3401 1.429 . S
C3410 N3407 1.350 . S
C3410 C3409 1.434 . S
C3411 C3412 1.369 . S
C3411 C3413 1.419 . S
C3411 H3415 0.930 . S
C3412 C3411 1.369 . S
C3412 C3421 1.429 . S
C3413 C3411 1.419 . S
C3413 C3414 1.363 . S
C3413 H3416 0.929 . S
C3414 C3413 1.363 . S
C3414 C3420 1.428 . S
H3415 C3411 0.930 . S
H3416 C3413 0.929 . S
S3417 N3418 1.613 . S
S3417 N3419 1.610 . S
N3418 S3417 1.613 . S
N3418 C3421 1.350 . S
N3419 S3417 1.610 . S
N3419 C3420 1.351 . S
C3420 C3414 1.428 . S
C3420 N3419 1.351 . S
C3420 C3421 1.434 . S
C3421 C3412 1.429 . S
C3421 N3418 1.350 . S
C3421 C3420 1.434 . S
C3422 C3423 1.369 . S
C3422 C3424 1.419 . S
C3422 H3426 0.930 . S
C3423 C3422 1.369 . S
C3423 C3432 1.429 . S
C3424 C3422 1.419 . S
C3424 C3425 1.363 . S
C3424 H3427 0.929 . S
C3425 C3424 1.363 . S
C3425 C3431 1.428 . S
H3426 C3422 0.930 . S
H3427 C3424 0.929 . S
S3428 N3429 1.613 . S
S3428 N3430 1.610 . S
N3429 S3428 1.613 . S
N3429 C3432 1.350 . S
N3430 S3428 1.610 . S
N3430 C3431 1.351 . S
C3431 C3425 1.428 . S
C3431 N3430 1.351 . S
C3431 C3432 1.434 . S
C3432 C3423 1.429 . S
C3432 N3429 1.350 . S
C3432 C3431 1.434 . S
C3433 C3434 1.369 . S
C3433 C3435 1.419 . S
C3433 H3437 0.930 . S
C3434 C3433 1.369 . S
C3434 C3443 1.429 . S
C3435 C3433 1.419 . S
C3435 C3436 1.363 . S
C3435 H3438 0.929 . S
C3436 C3435 1.363 . S
C3436 C3442 1.428 . S
H3437 C3433 0.930 . S
H3438 C3435 0.929 . S
S3439 N3440 1.613 . S
S3439 N3441 1.610 . S
N3440 S3439 1.613 . S
N3440 C3443 1.350 . S
N3441 S3439 1.610 . S
N3441 C3442 1.351 . S
C3442 C3436 1.428 . S
C3442 N3441 1.351 . S
C3442 C3443 1.434 . S
C3443 C3434 1.429 . S
C3443 N3440 1.350 . S
C3443 C3442 1.434 . S
C3444 C3445 1.369 . S
C3444 C3446 1.419 . S
C3444 H3448 0.930 . S
C3445 C3444 1.369 . S
C3445 C3454 1.429 . S
C3446 C3444 1.419 . S
C3446 C3447 1.363 . S
C3446 H3449 0.929 . S
C3447 C3446 1.363 . S
C3447 C3453 1.428 . S
H3448 C3444 0.930 . S
H3449 C3446 0.929 . S
S3450 N3451 1.613 . S
S3450 N3452 1.610 . S
N3451 S3450 1.613 . S
N3451 C3454 1.350 . S
N3452 S3450 1.610 . S
N3452 C3453 1.351 . S
C3453 C3447 1.428 . S
C3453 N3452 1.351 . S
C3453 C3454 1.434 . S
C3454 C3445 1.429 . S
C3454 N3451 1.350 . S
C3454 C3453 1.434 . S
C3455 C3456 1.369 . S
C3455 C3457 1.419 . S
C3455 H3459 0.930 . S
C3456 C3455 1.369 . S
C3456 C3465 1.429 . S
C3457 C3455 1.419 . S
C3457 C3458 1.363 . S
C3457 H3460 0.929 . S
C3458 C3457 1.363 . S
C3458 C3464 1.428 . S
H3459 C3455 0.930 . S
H3460 C3457 0.929 . S
S3461 N3462 1.613 . S
S3461 N3463 1.610 . S
N3462 S3461 1.613 . S
N3462 C3465 1.350 . S
N3463 S3461 1.610 . S
N3463 C3464 1.351 . S
C3464 C3458 1.428 . S
C3464 N3463 1.351 . S
C3464 C3465 1.434 . S
C3465 C3456 1.429 . S
C3465 N3462 1.350 . S
C3465 C3464 1.434 . S
C3466 C3467 1.369 . S
C3466 C3468 1.419 . S
C3466 H3470 0.930 . S
C3467 C3466 1.369 . S
C3467 C3476 1.429 . S
C3468 C3466 1.419 . S
C3468 C3469 1.363 . S
C3468 H3471 0.929 . S
C3469 C3468 1.363 . S
C3469 C3475 1.428 . S
H3470 C3466 0.930 . S
H3471 C3468 0.929 . S
S3472 N3473 1.613 . S
S3472 N3474 1.610 . S
N3473 S3472 1.613 . S
N3473 C3476 1.350 . S
N3474 S3472 1.610 . S
N3474 C3475 1.351 . S
C3475 C3469 1.428 . S
C3475 N3474 1.351 . S
C3475 C3476 1.434 . S
C3476 C3467 1.429 . S
C3476 N3473 1.350 . S
C3476 C3475 1.434 . S
C3477 C3478 1.369 . S
C3477 C3479 1.419 . S
C3477 H3481 0.930 . S
C3478 C3477 1.369 . S
C3478 C3487 1.429 . S
C3479 C3477 1.419 . S
C3479 C3480 1.363 . S
C3479 H3482 0.929 . S
C3480 C3479 1.363 . S
C3480 C3486 1.428 . S
H3481 C3477 0.930 . S
H3482 C3479 0.929 . S
S3483 N3484 1.613 . S
S3483 N3485 1.610 . S
N3484 S3483 1.613 . S
N3484 C3487 1.350 . S
N3485 S3483 1.610 . S
N3485 C3486 1.351 . S
C3486 C3480 1.428 . S
C3486 N3485 1.351 . S
C3486 C3487 1.434 . S
C3487 C3478 1.429 . S
C3487 N3484 1.350 . S
C3487 C3486 1.434 . S
C2435 C1325 1.538 . S
C2433 C21 1.527 . S
C2446 C1373 1.445 . S
C2444 C42 1.446 . S
C2455 C82 1.507 . S
C2457 C1397 1.526 . S
C2468 C1460 1.496 . S
C2466 C135 1.499 . S
C2477 C175 1.443 . S
C2479 C1454 1.443 . S
C2488 C221 1.522 . S
C2490 C1301 1.537 . S
C2499 C255 1.490 . S
C2501 C1349 1.483 . S
C2512 C1421 1.548 . S
C2510 C301 1.545 . S
C2523 C1493 1.516 . S
C2521 C15 1.517 . S
C2532 C55 1.452 . S
C2534 C1541 1.448 . S
C2543 C101 1.530 . S
C2545 C1604 1.546 . S
C2556 C1661 1.502 . S
C2554 C141 1.502 . S
C2565 C162 1.452 . S
C2567 C1685 1.466 . S
C2578 C1742 1.512 . S
C2576 C215 1.516 . S
C2587 C261 1.501 . S
C2589 C1790 1.504 . S
C2600 C1844 1.519 . S
C2598 C282 1.510 . S
C2609 C2 1.509 . S
C2611 C1637 1.528 . S
C2620 C181 1.434 . S
C2622 C1748 1.453 . S
C2633 C1796 1.539 . S
C2631 C202 1.525 . S
C2642 C242 1.504 . S
C2644 C1838 1.505 . S
C2655 C1709 1.505 . S
C2653 C295 1.511 . S
C2666 C1565 1.515 . S
C2664 C95 1.519 . S
C2675 C122 1.495 . S
C2677 C1598 1.497 . S
C2688 C1517 1.462 . S
C2686 C61 1.462 . S
C2699 C1892 1.540 . S
C2697 C341 1.528 . S
C2708 C362 1.447 . S
C2710 C1949 1.445 . S
C2719 C402 1.513 . S
C2721 C1973 1.525 . S
C2732 C2036 1.497 . S
C2730 C455 1.499 . S
C2741 C495 1.440 . S
C2743 C2030 1.443 . S
C2752 C541 1.524 . S
C2754 C1886 1.532 . S
C2763 C575 1.490 . S
C2765 C1925 1.484 . S
C2774 C621 1.549 . S
C2776 C1997 1.547 . S
C2787 C1694 1.512 . S
C2785 C335 1.516 . S
C2796 C375 1.452 . S
C2798 C2078 1.448 . S
C2809 C1781 1.546 . S
C2807 C421 1.532 . S
C2818 C461 1.500 . S
C2820 C2132 1.503 . S
C2829 C482 1.448 . S
C2831 C1502 1.463 . S
C2842 C2174 1.511 . S
C2840 C535 1.513 . S
C2851 C581 1.502 . S
C2853 C1613 1.501 . S
C2864 C2228 1.520 . S
C2862 C602 1.511 . S
C2873 C322 1.506 . S
C2875 C2126 1.526 . S
C2886 C2180 1.451 . S
C2884 C501 1.436 . S
C2895 C522 1.521 . S
C2897 C1589 1.537 . S
C2908 C2222 1.504 . S
C2906 C562 1.504 . S
C2917 C615 1.513 . S
C2919 C1508 1.510 . S
C2928 C415 1.519 . S
C2930 C2084 1.518 . S
C2939 C442 1.497 . S
C2941 C1805 1.500 . S
C2950 C381 1.463 . S
C2952 C1700 1.463 . S
C2961 C661 1.525 . S
C2963 C1982 1.541 . S
C2974 C2045 1.446 . S
C2972 C682 1.448 . S
C2983 C722 1.508 . S
C2985 C1901 1.523 . S
C2994 C775 1.498 . S
C2996 C1940 1.496 . S
C3005 C815 1.440 . S
C3007 C1934 1.441 . S
C3016 C861 1.526 . S
C3018 C1988 1.539 . S
C3029 C2021 1.484 . S
C3027 C895 1.490 . S
C3038 C941 1.546 . S
C3040 C1877 1.554 . S
C3051 C2261 1.515 . S
C3049 C655 1.515 . S
C3060 C695 1.453 . S
C3062 C1733 1.448 . S
C3073 C2324 1.545 . S
C3071 C741 1.532 . S
C3082 C781 1.502 . S
C3084 C1853 1.502 . S
C3093 C802 1.451 . S
C3095 C2366 1.466 . S
C3104 C855 1.516 . S
C3106 C1550 1.513 . S
C3117 C2429 1.501 . S
C3115 C901 1.502 . S
C3126 C922 1.511 . S
C3128 C1652 1.520 . S
C3139 C1829 1.528 . S
C3137 C642 1.505 . S
C3150 C1556 1.452 . S
C3148 C821 1.431 . S
C3159 C842 1.521 . S
C3161 C2405 1.539 . S
C3170 C882 1.503 . S
C3172 C1646 1.504 . S
C3183 C2372 1.510 . S
C3181 C935 1.513 . S
C3194 C1757 1.515 . S
C3192 C735 1.518 . S
C3205 C2318 1.498 . S
C3203 C762 1.495 . S
C3216 C2285 1.462 . S
C3214 C701 1.460 . S
C3225 C981 1.525 . S
C3227 C1406 1.541 . S
C3236 C1002 1.448 . S
C3238 C1469 1.444 . S
C3249 C1316 1.525 . S
C3247 C1042 1.506 . S
C3260 C1364 1.496 . S
C3258 C1095 1.498 . S
C3271 C1358 1.441 . S
C3269 C1135 1.442 . S
C3282 C1412 1.538 . S
C3280 C1181 1.525 . S
C3293 C1445 1.486 . S
C3291 C1215 1.490 . S
C3302 C1261 1.548 . S
C3304 C1310 1.552 . S
C3313 C975 1.516 . S
C3315 C2357 1.516 . S
C3326 C2165 1.448 . S
C3324 C1015 1.453 . S
C3337 C2420 1.545 . S
C3335 C1061 1.533 . S
C3348 C2237 1.500 . S
C3346 C1101 1.499 . S
C3357 C1122 1.450 . S
C3359 C2270 1.465 . S
C3370 C2069 1.514 . S
C3368 C1175 1.517 . S
C3381 C2333 1.503 . S
C3379 C1221 1.501 . S
C3390 C1242 1.513 . S
C3392 C2141 1.519 . S
C3403 C2213 1.529 . S
C3401 C962 1.509 . S
C3414 C2093 1.451 . S
C3412 C1141 1.433 . S
C3425 C2309 1.540 . S
C3423 C1162 1.522 . S
C3434 C1202 1.505 . S
C3436 C2117 1.509 . S
C3445 C1255 1.512 . S
C3447 C2276 1.507 . S
C3456 C1055 1.519 . S
C3458 C2189 1.513 . S
C3467 C1082 1.495 . S
C3469 C2414 1.497 . S
C3480 C2381 1.463 . S
C3478 C1021 1.461 . S
