# Generated by pormake.
# Topology zzz, (3,6)-cn, num edge types: 1
# Building blocks:
#     Node 0, Type 0, BuildingBlock: PAMTOO_clean_linker_0, # of connection points: 3
#     Node 1, Type 0, BuildingBlock: PAMTOO_clean_linker_0, # of connection points: 3
#     Node 2, Type 0, BuildingBlock: PAMTOO_clean_linker_0, # of connection points: 3
#     Node 3, Type 0, BuildingBlock: PAMTOO_clean_linker_0, # of connection points: 3
#     Node 4, Type 0, BuildingBlock: PAMTOO_clean_linker_0, # of connection points: 3
#     Node 5, Type 0, BuildingBlock: PAMTOO_clean_linker_0, # of connection points: 3
#     Node 6, Type 0, BuildingBlock: PAMTOO_clean_linker_0, # of connection points: 3
#     Node 7, Type 0, BuildingBlock: PAMTOO_clean_linker_0, # of connection points: 3
#     Node 8, Type 1, BuildingBlock: BETFAJ_clean_sbu_0, # of connection points: 6
#     Node 9, Type 1, BuildingBlock: BETFAJ_clean_sbu_0, # of connection points: 6
#     Node 10, Type 1, BuildingBlock: BETFAJ_clean_sbu_0, # of connection points: 6
#     Node 11, Type 1, BuildingBlock: BETFAJ_clean_sbu_0, # of connection points: 6
#     Edge 12, Type (0, 1), BuildingBlock: XIVTED_clean_linker_0, # of connection points: 2
#     Edge 13, Type (0, 1), BuildingBlock: XIVTED_clean_linker_0, # of connection points: 2
#     Edge 14, Type (0, 1), BuildingBlock: XIVTED_clean_linker_0, # of connection points: 2
#     Edge 15, Type (0, 1), BuildingBlock: XIVTED_clean_linker_0, # of connection points: 2
#     Edge 16, Type (0, 1), BuildingBlock: XIVTED_clean_linker_0, # of connection points: 2
#     Edge 17, Type (0, 1), BuildingBlock: XIVTED_clean_linker_0, # of connection points: 2
#     Edge 18, Type (0, 1), BuildingBlock: XIVTED_clean_linker_0, # of connection points: 2
#     Edge 19, Type (0, 1), BuildingBlock: XIVTED_clean_linker_0, # of connection points: 2
#     Edge 20, Type (0, 1), BuildingBlock: XIVTED_clean_linker_0, # of connection points: 2
#     Edge 21, Type (0, 1), BuildingBlock: XIVTED_clean_linker_0, # of connection points: 2
#     Edge 22, Type (0, 1), BuildingBlock: XIVTED_clean_linker_0, # of connection points: 2
#     Edge 23, Type (0, 1), BuildingBlock: XIVTED_clean_linker_0, # of connection points: 2
#     Edge 24, Type (0, 1), BuildingBlock: XIVTED_clean_linker_0, # of connection points: 2
#     Edge 25, Type (0, 1), BuildingBlock: XIVTED_clean_linker_0, # of connection points: 2
#     Edge 26, Type (0, 1), BuildingBlock: XIVTED_clean_linker_0, # of connection points: 2
#     Edge 27, Type (0, 1), BuildingBlock: XIVTED_clean_linker_0, # of connection points: 2
#     Edge 28, Type (0, 1), BuildingBlock: XIVTED_clean_linker_0, # of connection points: 2
#     Edge 29, Type (0, 1), BuildingBlock: XIVTED_clean_linker_0, # of connection points: 2
#     Edge 30, Type (0, 1), BuildingBlock: XIVTED_clean_linker_0, # of connection points: 2
#     Edge 31, Type (0, 1), BuildingBlock: XIVTED_clean_linker_0, # of connection points: 2
#     Edge 32, Type (0, 1), BuildingBlock: XIVTED_clean_linker_0, # of connection points: 2
#     Edge 33, Type (0, 1), BuildingBlock: XIVTED_clean_linker_0, # of connection points: 2
#     Edge 34, Type (0, 1), BuildingBlock: XIVTED_clean_linker_0, # of connection points: 2
#     Edge 35, Type (0, 1), BuildingBlock: XIVTED_clean_linker_0, # of connection points: 2
# Relax obj value: 0.274
# Max RMSD: 0.191
# Mean RMSD: 0.162
data_MOF--net-zzz--node1-BETFAJ_clean_sbu_0--node2-PAMTOO_clean_linker_0--edge1-XIVTED_clean_linker_0
_symmetry_space_group_name_H-M    P1
_symmetry_Int_Tables_number       1
_symmetry_cell_setting            triclinic
loop_
_symmetry_equiv_pos_as_xyz
'x, y, z'
_cell_length_a     52.541908
_cell_length_b     52.566544
_cell_length_c     13.367387
_cell_angle_alpha  89.962575
_cell_angle_beta   89.825387
_cell_angle_gamma 90.112236
loop_
_atom_site_label
_atom_site_type_symbol
_atom_site_fract_x
_atom_site_fract_y
_atom_site_fract_z
_atom_type_partial_charge
H0 H 0.80886 0.47224 0.4043 0.0
H1 H 0.73895 0.47752 0.23943 0.0
H2 H 0.76235 0.53894 0.4319 0.0
H3 H 0.69812 0.53307 0.40302 0.0
C4 C 0.70202 0.51816 0.34613 0.0
O5 O 0.72627 0.52223 0.30751 0.0
H6 H 0.70081 0.49933 0.38409 0.0
C7 C 0.79115 0.48202 0.38845 0.0
C8 C 0.78754 0.5063 0.42843 0.0
C9 C 0.77401 0.47151 0.31961 0.0
C10 C 0.752 0.48512 0.2945 0.0
C11 C 0.74718 0.50903 0.33728 0.0
C12 C 0.76527 0.5199 0.40321 0.0
H13 H 0.06373 0.80783 0.4077 0.0
H14 H 0.06056 0.73894 0.23485 0.0
H15 H 0.99688 0.76084 0.41928 0.0
H16 H 1.00327 0.69764 0.38896 0.0
C17 C 0.01848 0.70132 0.3328 0.0
O18 O 1.01509 0.72564 0.29451 0.0
H19 H 0.03716 0.69974 0.37141 0.0
C20 C 0.0542 0.79017 0.38837 0.0
C21 C 0.02947 0.78618 0.42387 0.0
C22 C 0.06558 0.77353 0.31956 0.0
C23 C 0.05231 0.75161 0.28993 0.0
C24 C 0.02791 0.74643 0.32824 0.0
C25 C 0.01623 0.76404 0.39406 0.0
H26 H 0.72324 0.06252 0.38304 0.0
H27 H 0.79318 0.05139 0.22165 0.0
H28 H 0.77073 0.9984 0.45155 0.0
H29 H 0.83556 1.00304 0.41217 0.0
C30 C 0.83065 0.01628 0.35038 0.0
O31 O 0.80641 1.01019 0.31661 0.0
H32 H 0.83121 0.03598 0.38091 0.0
C33 C 0.74104 0.05237 0.37313 0.0
C34 C 0.74508 0.03013 0.42842 0.0
C35 C 0.75802 0.06008 0.29773 0.0
C36 C 0.78019 0.0459 0.28094 0.0
C37 C 0.78533 0.02414 0.33817 0.0
C38 C 0.76748 0.01593 0.411 0.0
H39 H 0.4711 0.72457 0.42207 0.0
H40 H 0.47692 0.79433 0.25511 0.0
H41 H 0.53835 0.7706 0.44603 0.0
H42 H 0.53524 0.83347 0.41898 0.0
C43 C 0.51922 0.83047 0.36626 0.0
O44 O 0.52178 0.8067 0.32242 0.0
H45 H 0.50121 0.83148 0.41035 0.0
C46 C 0.48102 0.74222 0.40552 0.0
C47 C 0.5054 0.74574 0.44468 0.0
C48 C 0.47061 0.75931 0.3362 0.0
C49 C 0.48439 0.78125 0.31039 0.0
C50 C 0.50842 0.78587 0.3523 0.0
C51 C 0.51923 0.76778 0.41806 0.0
H52 H 0.22505 0.55881 0.10658 0.0
H53 H 0.29921 0.55665 0.24151 0.0
H54 H 0.27367 0.49443 0.05656 0.0
H55 H 0.3191 0.47698 0.2089 0.0
C56 C 0.31783 0.49655 0.23981 0.0
O57 O 0.31255 0.51319 0.1621 0.0
H58 H 0.30203 0.49629 0.29565 0.0
C59 C 0.24334 0.54955 0.11609 0.0
C60 C 0.24705 0.52563 0.07329 0.0
C61 C 0.26184 0.56086 0.17705 0.0
C62 C 0.28493 0.54823 0.19339 0.0
C63 C 0.28954 0.5245 0.14874 0.0
C64 C 0.27039 0.51297 0.08934 0.0
H65 H 0.97079 0.22443 0.08694 0.0
H66 H 0.97791 0.29281 0.26051 0.0
H67 H 0.03864 0.26981 0.06322 0.0
H68 H 1.00026 0.33139 0.11542 0.0
C69 C 0.01902 0.32984 0.15346 0.0
O70 O 0.02265 0.30546 0.19084 0.0
H71 H 0.03408 0.33373 0.09693 0.0
C72 C 0.98106 0.24181 0.10441 0.0
C73 C 1.00546 0.2452 0.06461 0.0
C74 C 0.97104 0.25859 0.17572 0.0
C75 C 0.98514 0.28012 0.20329 0.0
C76 C 1.00907 0.28487 0.16 0.0
C77 C 0.01954 0.26704 0.09198 0.0
H78 H 0.3057 0.9698 0.12238 0.0
H79 H 0.23456 0.97925 0.27729 0.0
H80 H 0.25794 0.03372 0.05413 0.0
H81 H 0.19736 0.99485 0.11603 0.0
C82 C 0.19752 1.0145 0.14704 0.0
O83 O 0.22143 0.02075 0.18377 0.0
H84 H 0.19293 0.02781 0.08507 0.0
C85 C 0.28772 0.97969 0.13128 0.0
C86 C 0.28381 1.00221 0.07776 0.0
C87 C 0.27029 0.97134 0.20393 0.0
C88 C 0.24786 0.98518 0.2197 0.0
C89 C 0.24283 1.00717 0.16356 0.0
C90 C 0.26109 0.016 0.0935 0.0
H91 H 0.56078 0.30722 0.10145 0.0
H92 H 0.55399 0.23831 0.27279 0.0
H93 H 0.49286 0.26195 0.08018 0.0
H94 H 0.52952 0.20099 0.11666 0.0
C95 C 0.51162 0.20208 0.16143 0.0
O96 O 0.50917 0.22593 0.20475 0.0
H97 H 0.49548 0.199 0.10936 0.0
C98 C 0.55056 0.28978 0.11882 0.0
C99 C 0.52608 0.28648 0.08024 0.0
C100 C 0.5607 0.27283 0.18911 0.0
C101 C 0.54669 0.25118 0.21644 0.0
C102 C 0.52265 0.24663 0.17445 0.0
C103 C 0.51202 0.26465 0.10794 0.0
Sm104 Sm 0.02897 1.0063 0.85195 0.0
Sm105 Sm 0.99969 0.02374 0.64706 0.0
C106 C 0.0418 0.98711 0.026 0.0
C107 C 0.0576 0.96457 0.04773 0.0
C108 C 0.0521 0.94121 1.00167 0.0
C109 C 0.068 0.92036 0.01499 0.0
C110 C 0.08999 0.92225 0.07425 0.0
C111 C 0.09556 0.94566 0.12057 0.0
C112 C 0.07951 0.96667 0.10717 0.0
C113 C 0.06313 1.00998 0.69241 0.0
C114 C 1.01123 0.96265 0.68536 0.0
C115 C 0.98667 0.04232 0.47171 0.0
C116 C 0.96859 0.06266 0.44793 0.0
C117 C 0.96768 0.07317 0.35185 0.0
C118 C 0.9528 0.09472 0.33368 0.0
C119 C 0.93867 0.10608 0.41157 0.0
C120 C 0.93864 0.09455 0.5064 0.0
C121 C 0.95357 0.07313 0.52447 0.0
C122 C 0.96557 0.01961 0.80691 0.0
C123 C 0.01855 0.06747 0.81163 0.0
O124 O 0.01962 0.98268 0.98425 0.0
O125 O 0.05392 1.00644 0.98597 0.0
O126 O 0.03948 1.014 0.6913 0.0
O127 O 0.06948 1.00378 0.78278 0.0
O128 O 0.01805 0.96777 0.77887 0.0
O129 O 1.00588 0.98075 0.61932 0.0
O130 O 1.00706 0.04984 0.51994 0.0
O131 O 0.97659 0.02149 0.50878 0.0
O132 O 0.98924 0.01586 0.80722 0.0
O133 O 0.95904 0.02557 0.71655 0.0
O134 O 1.01118 0.0622 0.71894 0.0
O135 O 0.02401 0.04951 0.87809 0.0
H136 H 0.0355 0.93895 0.95473 0.0
H137 H 0.0626 0.90253 0.98046 0.0
H138 H 0.11232 0.94777 0.1668 0.0
H139 H 0.08433 0.9846 0.14232 0.0
H140 H 0.97926 0.06538 0.29211 0.0
H141 H 0.9536 0.10333 0.26011 0.0
H142 H 0.92784 0.10266 0.56767 0.0
H143 H 0.95415 0.06536 0.59939 0.0
Sm144 Sm 0.52059 0.03369 0.84343 0.0
Sm145 Sm 0.51027 0.99936 0.68774 0.0
C146 C 0.54021 0.06091 0.99091 0.0
C147 C 0.5632 0.07668 0.99543 0.0
C148 C 0.57655 0.08253 0.90724 0.0
C149 C 0.60022 0.09458 0.91183 0.0
C150 C 0.61096 0.10088 1.00479 0.0
C151 C 0.59677 0.09622 0.09262 0.0
C152 C 0.57308 0.08416 0.08788 0.0
C153 C 0.50761 0.05923 0.66988 0.0
C154 C 0.5688 1.01442 0.7015 0.0
C155 C 0.49012 0.9725 0.54015 0.0
C156 C 0.46455 0.96155 0.52583 0.0
C157 C 0.44281 0.97606 0.54693 0.0
C158 C 0.41867 0.96521 0.54079 0.0
C159 C 0.41565 0.93959 0.51309 0.0
C160 C 0.43741 0.92508 0.49086 0.0
C161 C 0.46171 0.93598 0.49768 0.0
C162 C 0.52379 0.9741 0.86108 0.0
C163 C 0.46239 0.01846 0.83047 0.0
O164 O 0.54425 0.03653 0.98044 0.0
O165 O 0.52225 0.06928 0.93238 0.0
O166 O 0.52277 0.04058 0.67423 0.0
O167 O 0.49816 0.064 0.7573 0.0
O168 O 0.56166 0.02361 0.78915 0.0
O169 O 0.55157 1.00599 0.63847 0.0
O170 O 0.49183 0.99733 0.53871 0.0
O171 O 0.50348 0.96232 0.61173 0.0
O172 O 0.50828 0.99248 0.85679 0.0
O173 O 0.5335 0.9696 0.77371 0.0
O174 O 0.46938 1.01077 0.74043 0.0
O175 O 0.47987 0.02523 0.89541 0.0
H176 H 0.56911 0.07689 0.83503 0.0
H177 H 0.61054 0.09807 0.84289 0.0
H178 H 0.60462 0.10041 0.16559 0.0
H179 H 0.563 0.07971 0.15658 0.0
H180 H 0.44438 0.99584 0.56855 0.0
H181 H 0.40231 0.97714 0.5556 0.0
H182 H 0.43566 0.90534 0.46872 0.0
H183 H 0.47827 0.9244 0.48172 0.0
Sm184 Sm 0.50034 0.52432 0.86393 0.0
Sm185 Sm 0.52965 0.50782 0.65884 0.0
C186 C 0.4872 0.54304 0.03907 0.0
C187 C 0.46937 0.56383 0.06023 0.0
C188 C 0.46718 0.57407 0.15643 0.0
C189 C 0.45249 0.59591 0.17226 0.0
C190 C 0.43986 0.60779 0.09186 0.0
C191 C 0.44113 0.59656 0.99671 0.0
C192 C 0.45587 0.57491 0.98101 0.0
C193 C 0.46598 0.5214 0.70534 0.0
C194 C 0.51873 0.56862 0.70107 0.0
C195 C 0.54272 0.48945 0.48297 0.0
C196 C 0.56078 0.46904 0.45935 0.0
C197 C 0.56193 0.45858 0.36326 0.0
C198 C 0.57683 0.43701 0.34527 0.0
C199 C 0.59077 0.42561 0.42336 0.0
C200 C 0.59051 0.43706 0.51826 0.0
C201 C 0.57554 0.45846 0.53615 0.0
C202 C 0.56403 0.5114 0.81727 0.0
C203 C 0.51144 0.46349 0.82212 0.0
O204 O 0.50798 0.55002 0.99177 0.0
O205 O 0.47693 0.52232 1.00214 0.0
O206 O 0.48959 0.51711 0.70287 0.0
O207 O 0.45982 0.52724 0.79623 0.0
O208 O 0.5119 0.56296 0.7941 0.0
O209 O 0.52385 0.55092 0.63319 0.0
O210 O 0.52224 0.48199 0.53121 0.0
O211 O 0.55279 0.51023 0.5201 0.0
O212 O 0.54035 0.5152 0.81946 0.0
O213 O 0.57031 0.5057 0.72631 0.0
O214 O 0.51849 0.46913 0.72929 0.0
O215 O 0.50598 0.48119 0.88962 0.0
H216 H 0.4776 0.56584 0.21827 0.0
H217 H 0.45226 0.6043 0.24624 0.0
H218 H 0.43151 0.60508 0.93347 0.0
H219 H 0.45752 0.56742 0.90593 0.0
H220 H 0.55053 0.46642 0.30333 0.0
H221 H 0.57625 0.42846 0.27163 0.0
H222 H 0.60114 0.42892 0.57971 0.0
H223 H 0.57473 0.46615 0.61112 0.0
Sm224 Sm 1.00888 0.50091 0.84638 0.0
Sm225 Sm 0.02685 0.52984 0.64107 0.0
C226 C 0.98931 0.48805 0.02057 0.0
C227 C 0.96857 0.47006 0.04126 0.0
C228 C 0.95824 0.4677 0.13741 0.0
C229 C 0.93651 0.45275 0.15296 0.0
C230 C 0.92481 0.44002 0.07233 0.0
C231 C 0.93614 0.44144 0.97722 0.0
C232 C 0.95772 0.45643 0.9618 0.0
C233 C 1.01292 0.46649 0.68809 0.0
C234 C 0.96551 0.51987 0.67995 0.0
C235 C 0.04743 0.54186 0.46822 0.0
C236 C 0.07107 0.55636 0.44874 0.0
C237 C 0.09414 0.54838 0.49113 0.0
C238 C 0.11597 0.56324 0.48219 0.0
C239 C 0.11541 0.58656 0.43072 0.0
C240 C 0.0924 0.59448 0.387 0.0
C241 C 0.07039 0.57953 0.39626 0.0
C242 C 0.02354 0.56417 0.79977 0.0
C243 C 0.07014 0.51189 0.80882 0.0
O244 O 0.9824 0.5086 0.97205 0.0
O245 O 1.01028 0.47788 0.98532 0.0
O246 O 0.0169 0.49014 0.68666 0.0
O247 O 1.00681 0.46019 0.77868 0.0
O248 O 0.97063 0.51241 0.77273 0.0
O249 O 0.98361 0.52541 0.61376 0.0
O250 O 0.05025 0.51937 0.50954 0.0
O251 O 0.02862 0.55493 0.5072 0.0
O252 O 0.01912 0.54058 0.8014 0.0
O253 O 0.02991 0.57038 0.70925 0.0
O254 O 0.06509 0.51867 0.71522 0.0
O255 O 0.05196 0.50668 0.87507 0.0
H256 H 0.96634 0.47818 0.19943 0.0
H257 H 0.92804 0.4524 0.22691 0.0
H258 H 0.92776 0.43175 0.91384 0.0
H259 H 0.96534 0.45816 0.88681 0.0
H260 H 0.09541 0.53069 0.53229 0.0
H261 H 0.13348 0.5561 0.51417 0.0
H262 H 0.09138 0.61228 0.34643 0.0
H263 H 0.05276 0.58622 0.36376 0.0
H264 H 0.14628 0.02304 0.12402 0.0
H265 H 0.11391 1.0041 0.70625 0.0
H266 H 0.2018 1.00773 0.35287 0.0
H267 H 0.05552 0.02017 0.48934 0.0
H268 H 0.14583 1.00615 0.57507 0.0
H269 H 0.11264 0.02273 0.2525 0.0
C270 C 0.15144 0.01997 0.20148 0.0
C271 C 0.17706 0.01605 0.22773 0.0
C272 C 0.12611 1.00929 0.55536 0.0
C273 C 0.13856 1.0152 0.37515 0.0
C274 C 0.10774 1.00812 0.63062 0.0
C275 C 0.0819 1.01198 0.60908 0.0
C276 C 0.11885 1.01431 0.45639 0.0
C277 C 0.07522 0.01713 0.50937 0.0
C278 C 0.13221 0.01969 0.27465 0.0
C279 C 0.18251 1.01138 0.32885 0.0
N280 N 0.0936 0.0181 0.43652 0.0
N281 N 0.16351 1.01119 0.39838 0.0
H282 H 0.47932 0.19614 0.32319 0.0
H283 H 0.53685 0.06136 0.49792 0.0
H284 H 0.54219 0.15961 0.17405 0.0
H285 H 0.47779 0.10143 0.65721 0.0
H286 H 0.53787 0.09584 0.37344 0.0
H287 H 0.47756 0.16075 0.44274 0.0
C288 C 0.49295 0.1808 0.31642 0.0
C289 C 0.51131 0.18116 0.23996 0.0
C290 C 0.52462 0.09703 0.43546 0.0
C291 C 0.50906 0.14011 0.37518 0.0
C292 C 0.52395 0.07727 0.50623 0.0
C293 C 0.50725 0.07852 0.5883 0.0
C294 C 0.50842 0.11818 0.44665 0.0
C295 C 0.49103 0.09968 0.59541 0.0
C296 C 0.49187 0.1605 0.38431 0.0
C297 C 0.52805 0.16038 0.23303 0.0
N298 N 0.49207 0.11861 0.52598 0.0
N299 N 0.52657 0.14078 0.29967 0.0
H300 H 0.36601 0.47599 0.21568 0.0
H301 H 0.42084 0.5454 0.70209 0.0
H302 H 0.32555 0.53276 0.38481 0.0
H303 H 0.46756 0.4961 0.52135 0.0
H304 H 0.387 0.54221 0.57938 0.0
H305 H 0.40418 0.48421 0.31725 0.0
C306 C 0.36527 0.49041 0.27344 0.0
C307 C 0.34246 0.50353 0.29266 0.0
C308 C 0.40463 0.53218 0.5654 0.0
C309 C 0.38604 0.51295 0.40954 0.0
C310 C 0.42407 0.53398 0.63581 0.0
C311 C 0.44711 0.52091 0.62243 0.0
C312 C 0.40781 0.51683 0.48043 0.0
C313 C 0.45014 0.50654 0.53458 0.0
C314 C 0.38706 0.49505 0.33149 0.0
C315 C 0.34263 0.52209 0.36793 0.0
N316 N 0.43058 0.50463 0.46737 0.0
N317 N 0.3639 0.52604 0.42398 0.0
H318 H 1.00456 0.32592 0.35309 0.0
H319 H 0.02534 0.47395 0.48698 0.0
H320 H 0.0337 0.37993 0.13861 0.0
H321 H 1.00475 0.41589 0.70043 0.0
H322 H 0.02774 0.4409 0.35592 0.0
H323 H 1.00365 0.3595 0.47937 0.0
C324 C 1.01111 0.34477 0.33283 0.0
C325 C 0.01992 0.34988 0.23562 0.0
C326 C 0.02277 0.43547 0.43165 0.0
C327 C 0.01827 0.38893 0.37993 0.0
C328 C 0.02144 0.45434 0.50635 0.0
C329 C 1.01495 0.44772 0.605 0.0
C330 C 0.01745 0.40987 0.45594 0.0
C331 C 1.00988 0.42197 0.62563 0.0
C332 C 1.01048 0.36406 0.40498 0.0
C333 C 0.02735 0.37501 0.21329 0.0
N334 N 1.0112 0.40415 0.55224 0.0
N335 N 0.02641 0.39355 0.28466 0.0
H336 H 0.82506 0.02313 0.14504 0.0
H337 H 0.97407 1.01027 0.00948 0.0
H338 H 0.88186 1.00692 0.36799 0.0
H339 H 0.91454 0.02445 0.79542 0.0
H340 H 0.94147 1.00824 0.14298 0.0
H341 H 0.8582 0.02298 0.01677 0.0
C342 C 0.84447 0.01923 0.16704 0.0
C343 C 0.85052 1.01443 0.2675 0.0
C344 C 0.93561 1.0117 0.06659 0.0
C345 C 0.88904 1.01479 0.12019 0.0
C346 C 0.95422 1.0128 0.99051 0.0
C347 C 0.94705 0.01746 0.89105 0.0
C348 C 0.90972 1.01529 0.04274 0.0
C349 C 0.92103 0.0208 0.87086 0.0
C350 C 0.86351 0.01924 0.09357 0.0
C351 C 0.87626 1.01016 0.29118 0.0
N352 N 0.90347 0.01966 0.94552 0.0
N353 N 0.89454 1.0104 0.21834 0.0
H354 H 0.55163 0.83649 0.20471 0.0
H355 H 0.49453 0.97167 0.03271 0.0
H356 H 0.48898 0.87318 0.3547 0.0
H357 H 0.55376 0.93191 0.87318 0.0
H358 H 0.49345 0.93703 0.15633 0.0
H359 H 0.55362 0.87206 0.08599 0.0
C360 C 0.5381 0.8519 0.21184 0.0
C361 C 0.51972 0.85153 0.28826 0.0
C362 C 0.50676 0.93594 0.09448 0.0
C363 C 0.52223 0.89278 0.154 0.0
C364 C 0.50746 0.95579 0.02418 0.0
C365 C 0.52422 0.9547 0.94225 0.0
C366 C 0.52298 0.91482 0.08301 0.0
C367 C 0.54048 0.93357 0.93489 0.0
C368 C 0.5393 0.8723 0.14442 0.0
C369 C 0.50312 0.87241 0.2957 0.0
N370 N 0.5394 0.91452 1.00388 0.0
N371 N 0.50472 0.8921 0.2295 0.0
H372 H 0.70522 0.50284 0.14764 0.0
H373 H 0.55709 0.52492 0.01761 0.0
H374 H 0.65205 0.53324 0.36228 0.0
H375 H 0.61435 0.5017 0.80494 0.0
H376 H 0.59043 0.52731 0.14755 0.0
H377 H 0.67126 0.50152 0.02318 0.0
C378 C 0.68648 0.50958 0.16829 0.0
C379 C 0.68173 0.51886 0.26497 0.0
C380 C 0.59561 0.52173 0.07226 0.0
C381 C 0.64222 0.51677 0.12278 0.0
C382 C 0.57657 0.52036 0.99825 0.0
C383 C 0.5829 0.51317 0.90009 0.0
C384 C 0.62106 0.51577 0.04775 0.0
C385 C 0.60849 0.50739 0.87933 0.0
C386 C 0.66696 0.50872 0.09719 0.0
C387 C 0.65671 0.52653 0.28791 0.0
N388 N 0.62646 0.5088 0.952 0.0
N389 N 0.63794 0.52538 0.21757 0.0
H390 H 0.03569 0.70422 0.13674 0.0
H391 H 1.00874 0.55732 0.99876 0.0
H392 H 1.00122 0.65193 0.34554 0.0
H393 H 0.03508 0.61416 0.78984 0.0
H394 H 1.00682 0.59047 0.12976 0.0
H395 H 0.03661 0.67046 0.01103 0.0
C396 C 0.02797 0.68572 0.15574 0.0
C397 C 0.01765 0.68117 0.25105 0.0
C398 C 1.01298 0.5956 0.05506 0.0
C399 C 0.01929 0.64189 0.10767 0.0
C400 C 1.01409 0.57667 0.98046 0.0
C401 C 0.02203 0.58294 0.88306 0.0
C402 C 0.01997 0.62087 0.03193 0.0
C403 C 0.0288 0.60836 0.86363 0.0
C404 C 0.0286 0.66633 0.084 0.0
C405 C 1.00875 0.65645 0.27217 0.0
N406 N 0.02764 0.62623 0.93688 0.0
N407 N 1.00971 0.63778 0.20126 0.0
H408 H 0.9239 0.24403 0.10919 0.0
H409 H 0.91241 0.12427 0.24897 0.0
H410 H 0.96882 0.25119 0.37658 0.0
H411 H 0.9391 0.14636 0.54125 0.0
H412 H 0.90449 0.16862 0.21024 0.0
H413 H 0.89944 0.21 0.18836 0.0
C414 C 0.92791 0.23906 0.18623 0.0
C415 C 0.94904 0.24961 0.23515 0.0
C416 C 0.91115 0.16397 0.28441 0.0
C417 C 0.92259 0.20956 0.32337 0.0
C418 C 0.91598 0.13845 0.30601 0.0
C419 C 0.92717 0.13161 0.39721 0.0
C420 C 0.91788 0.18285 0.35432 0.0
C421 C 0.93073 0.15069 0.46937 0.0
C422 C 0.91435 0.21917 0.23074 0.0
C423 C 0.95309 0.24303 0.33534 0.0
N424 N 0.92673 0.17546 0.4454 0.0
N425 N 0.94061 0.22276 0.37504 0.0
H426 H 0.28989 0.92439 0.1605 0.0
H427 H 0.37387 0.94589 0.63409 0.0
H428 H 0.2711 0.97357 0.40759 0.0
H429 H 0.39798 0.90988 0.35991 0.0
H430 H 0.32955 0.93966 0.58479 0.0
H431 H 0.32055 0.90232 0.26654 0.0
C432 C 0.29144 0.9298 0.23845 0.0
C433 C 0.27869 0.95138 0.27453 0.0
C434 C 0.34452 0.93246 0.53675 0.0
C435 C 0.31405 0.92677 0.39501 0.0
C436 C 0.36982 0.93613 0.56456 0.0
C437 C 0.38961 0.92924 0.49915 0.0
C438 C 0.33904 0.92207 0.44251 0.0
C439 C 0.38334 0.9159 0.41179 0.0
C440 C 0.30907 0.91733 0.29878 0.0
C441 C 0.28097 0.95735 0.3763 0.0
N442 N 0.35857 0.91333 0.38476 0.0
N443 N 0.29901 0.94564 0.43232 0.0
H444 H 0.60781 0.28778 0.12204 0.0
H445 H 0.61749 0.40767 0.26092 0.0
H446 H 0.56283 0.27985 0.39007 0.0
H447 H 0.59036 0.38525 0.55298 0.0
H448 H 0.62611 0.36343 0.22267 0.0
H449 H 0.63168 0.32215 0.20082 0.0
C450 C 0.60369 0.29264 0.19916 0.0
C451 C 0.58266 0.28179 0.2483 0.0
C452 C 0.61919 0.36799 0.29667 0.0
C453 C 0.60841 0.32222 0.33608 0.0
C454 C 0.61395 0.39345 0.31798 0.0
C455 C 0.60246 0.40015 0.40901 0.0
C456 C 0.61258 0.34903 0.3667 0.0
C457 C 0.59896 0.38103 0.48124 0.0
C458 C 0.61689 0.31274 0.24343 0.0
C459 C 0.57847 0.28824 0.3486 0.0
N460 N 0.60338 0.35632 0.45756 0.0
N461 N 0.59059 0.30871 0.38808 0.0
H462 H 0.24413 0.60618 0.10574 0.0
H463 H 0.15368 0.59502 0.56651 0.0
H464 H 0.26049 0.56628 0.37943 0.0
H465 H 0.13234 0.61088 0.26133 0.0
H466 H 0.19769 0.60603 0.52528 0.0
H467 H 0.211 0.63018 0.19255 0.0
C468 C 0.24168 0.6035 0.18558 0.0
C469 C 0.25422 0.58357 0.23485 0.0
C470 C 0.1832 0.60792 0.4683 0.0
C471 C 0.21612 0.61028 0.33335 0.0
C472 C 0.15811 0.60144 0.49142 0.0
C473 C 0.13952 0.60092 0.41602 0.0
C474 C 0.18969 0.61387 0.36915 0.0
C475 C 0.14611 0.61043 0.32135 0.0
C476 C 0.2226 0.61702 0.23487 0.0
C477 C 0.2507 0.58106 0.33829 0.0
N478 N 0.17081 0.61589 0.2999 0.0
N479 N 0.23126 0.5936 0.38364 0.0
H480 H 0.07295 0.77603 0.11762 0.0
H481 H 0.1119 0.90723 0.25098 0.0
H482 H 0.10975 0.79326 0.39714 0.0
H483 H 0.10292 0.88392 0.9436 0.0
H484 H 0.12445 0.86413 0.29385 0.0
H485 H 0.0971 0.80995 0.03787 0.0
C486 C 0.08707 0.78611 0.16132 0.0
C487 C 0.08846 0.78272 0.26519 0.0
C488 C 0.12046 0.8685 0.21629 0.0
C489 C 0.11522 0.82238 0.17569 0.0
C490 C 0.11332 0.89328 0.19167 0.0
C491 C 0.10519 0.89897 0.09435 0.0
C492 C 0.11876 0.8492 0.14371 0.0
C493 C 0.1078 0.88005 0.02073 0.0
C494 C 0.10074 0.80579 0.11587 0.0
C495 C 0.10739 0.79607 0.31745 0.0
N496 N 0.11352 0.85581 0.04745 0.0
N497 N 0.11926 0.81612 0.27324 0.0
H498 H 0.75745 0.05741 0.09389 0.0
H499 H 0.63276 0.13613 0.13063 0.0
H500 H 0.73808 0.1071 0.33884 0.0
H501 H 0.65129 0.08275 0.89634 0.0
H502 H 0.67789 0.13884 0.17297 0.0
H503 H 0.72765 0.08033 0.98771 0.0
C504 C 0.74774 0.07386 0.12424 0.0
C505 C 0.74947 0.07981 0.22624 0.0
C506 C 0.67216 0.12708 0.11045 0.0
C507 C 0.71464 0.10544 0.10648 0.0
C508 C 0.64637 0.12543 0.08661 0.0
C509 C 0.63812 0.10854 0.0121 0.0
C510 C 0.68973 0.11143 0.06036 0.0
C511 C 0.65665 0.09577 0.95535 0.0
C512 C 0.73047 0.08681 0.06377 0.0
C513 C 0.73659 0.10142 0.26122 0.0
N514 N 0.6815 0.09699 0.98231 0.0
N515 N 0.71906 0.11297 0.20236 0.0
H516 H 0.46624 0.75759 0.13313 0.0
H517 H 0.41099 0.62612 0.24818 0.0
H518 H 0.42526 0.73962 0.40383 0.0
H519 H 0.44343 0.64833 0.9642 0.0
H520 H 0.40242 0.67083 0.28453 0.0
H521 H 0.44308 0.72413 0.04679 0.0
C522 C 0.45144 0.74744 0.17337 0.0
C523 C 0.4485 0.7505 0.27693 0.0
C524 C 0.41077 0.6659 0.21298 0.0
C525 C 0.4229 0.71133 0.18013 0.0
C526 C 0.41583 0.64035 0.19261 0.0
C527 C 0.42865 0.63352 0.10445 0.0
C528 C 0.41911 0.68475 0.14564 0.0
C529 C 0.4338 0.65266 0.03378 0.0
C530 C 0.43841 0.72798 0.12427 0.0
C531 C 0.42877 0.73708 0.3246 0.0
N532 N 0.4296 0.67742 0.057 0.0
N533 N 0.41744 0.71728 0.27698 0.0
H534 H 0.7755 0.4668 0.11653 0.0
H535 H 0.9065 0.41087 0.22799 0.0
H536 H 0.79359 0.42632 0.38744 0.0
H537 H 0.88433 0.44341 0.94495 0.0
H538 H 0.86174 0.40235 0.26514 0.0
H539 H 0.80852 0.44318 0.0292 0.0
C540 C 0.78558 0.45203 0.15667 0.0
C541 C 0.7827 0.44933 0.26042 0.0
C542 C 0.86669 0.4107 0.1936 0.0
C543 C 0.82136 0.4232 0.16243 0.0
C544 C 0.89227 0.41573 0.17276 0.0
C545 C 0.89912 0.42861 0.08474 0.0
C546 C 0.84784 0.41916 0.12692 0.0
C547 C 0.87998 0.43376 0.01446 0.0
C548 C 0.80478 0.43872 0.10698 0.0
C549 C 0.79602 0.42964 0.30802 0.0
N550 N 0.85519 0.42962 0.03819 0.0
N551 N 0.81555 0.41802 0.25972 0.0
H552 H 0.99244 0.2296 0.87694 0.0
H553 H 0.03852 0.08749 0.98535 0.0
H554 H 0.03978 0.20976 0.12713 0.0
H555 H 1.00316 0.11015 0.70835 0.0
H556 H 0.04064 0.13225 0.03531 0.0
H557 H 0.99871 0.18684 0.8079 0.0
C558 C 1.00502 0.21653 0.91519 0.0
C559 C 0.01612 0.22348 0.00665 0.0
C560 C 0.03258 0.12746 0.96327 0.0
C561 C 0.0223 0.17386 0.93098 0.0
C562 C 0.03124 0.10181 0.93475 0.0
C563 C 0.02054 0.0948 0.8424 0.0
C564 C 0.02295 0.14646 0.89967 0.0
C565 C 1.01156 0.11445 0.78022 0.0
C566 C 1.0083 0.19196 0.8766 0.0
C567 C 0.03143 0.20542 0.05516 0.0
N568 N 1.0128 0.13923 0.81022 0.0
N569 N 0.03377 0.18139 0.01761 0.0
H570 H 0.30189 0.98326 0.90134 0.0
H571 H 0.44031 0.04136 0.99401 0.0
H572 H 0.31699 0.04038 0.12395 0.0
H573 H 0.42141 0.99754 0.73199 0.0
H574 H 0.39518 0.04195 0.04053 0.0
H575 H 0.34474 0.98982 0.83234 0.0
C576 C 0.31393 0.99791 0.93319 0.0
C577 C 0.30564 1.01174 0.01696 0.0
C578 C 0.40085 0.03236 0.9724 0.0
C579 C 0.35534 0.01845 0.94187 0.0
C580 C 0.4267 0.03189 0.94597 0.0
C581 C 0.43484 0.01934 0.85873 0.0
C582 C 0.38283 0.01992 0.91198 0.0
C583 C 0.41615 1.00753 0.79952 0.0
C584 C 0.33854 1.00142 0.89472 0.0
C585 C 0.32239 0.02979 0.05778 0.0
N586 N 0.39116 1.00794 0.82753 0.0
N587 N 0.3465 0.03237 0.02085 0.0
H588 H 0.48982 0.32023 0.14125 0.0
H589 H 0.52785 0.42174 0.71628 0.0
H590 H 0.54031 0.30369 0.89574 0.0
H591 H 0.49157 0.44232 0.99477 0.0
H592 H 0.52628 0.37706 0.76677 0.0
H593 H 0.48303 0.36305 0.07225 0.0
C594 C 0.49862 0.32526 0.07055 0.0
C595 C 0.51526 0.30821 0.02308 0.0
C596 C 0.51853 0.39132 0.81668 0.0
C597 C 0.50837 0.3575 0.94543 0.0
C598 C 0.51941 0.41693 0.78789 0.0
C599 C 0.50995 0.43605 0.85144 0.0
C600 C 0.50794 0.3845 0.90962 0.0
C601 C 0.49927 0.42839 0.94339 0.0
C602 C 0.49512 0.34986 0.03209 0.0
C603 C 0.52696 0.31608 0.93358 0.0
N604 N 0.49859 0.4033 0.96964 0.0
N605 N 0.52344 0.34013 0.89813 0.0
H606 H 0.211 0.49295 0.14513 0.0
H607 H 0.11292 0.52696 0.70473 0.0
H608 H 0.23142 0.53612 0.8833 0.0
H609 H 0.09005 0.49341 0.98571 0.0
H610 H 0.15727 0.52517 0.7586 0.0
H611 H 0.16815 0.48662 0.07606 0.0
C612 C 0.20677 0.50016 0.07109 0.0
C613 C 0.22503 0.51449 0.01864 0.0
C614 C 0.1426 0.51807 0.80839 0.0
C615 C 0.17561 0.50834 0.9407 0.0
C616 C 0.11714 0.51907 0.77758 0.0
C617 C 0.09744 0.51039 0.84059 0.0
C618 C 0.14871 0.50821 0.9031 0.0
C619 C 0.10441 0.50046 0.93445 0.0
C620 C 0.18216 0.49695 0.0324 0.0
C621 C 0.21814 0.52439 0.92492 0.0
N622 N 0.12935 0.49969 0.96274 0.0
N623 N 0.19403 0.52128 0.88937 0.0
H624 H 0.03965 0.80099 0.61514 0.0
H625 H 0.99279 0.94305 0.50838 0.0
H626 H 0.99572 0.82161 0.35647 0.0
H627 H 0.02655 0.91973 0.78754 0.0
H628 H 0.99177 0.89851 0.45519 0.0
H629 H 0.03203 0.84336 0.68574 0.0
C630 C 0.0275 0.81413 0.57516 0.0
C631 C 0.01776 0.80752 0.48095 0.0
C632 C 0.99924 0.90309 0.52841 0.0
C633 C 1.01006 0.85673 0.5587 0.0
C634 C 0.99994 0.92863 0.55883 0.0
C635 C 1.00986 0.93541 0.6528 0.0
C636 C 1.00872 0.88397 0.59178 0.0
C637 C 0.01871 0.91563 0.71458 0.0
C638 C 0.02347 0.83849 0.6147 0.0
C639 C 1.003 0.82568 0.43046 0.0
N640 N 0.01809 0.89097 0.68281 0.0
N641 N 0.9999 0.8495 0.46918 0.0
H642 H 0.71401 0.98897 0.40078 0.0
H643 H 0.60894 0.03864 0.79349 0.0
H644 H 0.72591 0.05297 0.59597 0.0
H645 H 0.59175 0.98917 0.54522 0.0
H646 H 0.65381 0.03866 0.7425 0.0
H647 H 0.67173 0.98257 0.47617 0.0
C648 C 0.70812 1.00104 0.46224 0.0
C649 C 0.72368 0.02126 0.4933 0.0
C650 C 0.64025 0.02768 0.6995 0.0
C651 C 0.67495 1.01462 0.57794 0.0
C652 C 0.61457 0.02764 0.72862 0.0
C653 C 0.59636 1.01399 0.67334 0.0
C654 C 0.64801 1.01372 0.61502 0.0
C655 C 0.60497 1.00013 0.58985 0.0
C656 C 0.6838 0.99767 0.50415 0.0
C657 C 0.71468 0.0369 0.57098 0.0
N658 N 0.63007 1.00035 0.56339 0.0
N659 N 0.69094 0.03336 0.6101 0.0
H660 H 0.5411 0.71165 0.38185 0.0
H661 H 0.50295 0.61047 0.8078 0.0
H662 H 0.49183 0.72889 0.63039 0.0
H663 H 0.53849 0.58968 0.5281 0.0
H664 H 0.50498 0.65518 0.75778 0.0
H665 H 0.54761 0.66876 0.4505 0.0
C666 C 0.53254 0.70675 0.45315 0.0
C667 C 0.51633 0.72403 0.50161 0.0
C668 C 0.51246 0.64086 0.70751 0.0
C669 C 0.52284 0.67465 0.57883 0.0
C670 C 0.51132 0.61524 0.73602 0.0
C671 C 0.52044 0.59606 0.67199 0.0
C672 C 0.52298 0.64763 0.61437 0.0
C673 C 0.53104 0.60366 0.57985 0.0
C674 C 0.53587 0.68212 0.49143 0.0
C675 C 0.50489 0.71633 0.59184 0.0
N676 N 0.53198 0.62876 0.55388 0.0
N677 N 0.5082 0.69223 0.62705 0.0
H678 H 0.80284 0.49474 0.61795 0.0
H679 H 0.94573 0.53929 0.5047 0.0
H680 H 0.82355 0.53968 0.36113 0.0
H681 H 0.92257 0.50493 0.78388 0.0
H682 H 0.901 0.54132 0.45432 0.0
H683 H 0.84569 0.50107 0.68606 0.0
C684 C 0.81612 0.50685 0.57796 0.0
C685 C 0.80936 0.51727 0.48502 0.0
C686 C 0.90567 0.53349 0.52691 0.0
C687 C 0.85911 0.52348 0.55973 0.0
C688 C 0.93131 0.53222 0.55572 0.0
C689 C 0.93819 0.52184 0.64883 0.0
C690 C 0.88654 0.52413 0.59105 0.0
C691 C 0.9184 0.5131 0.71142 0.0
C692 C 0.84075 0.51014 0.61603 0.0
C693 C 0.82772 0.53191 0.43429 0.0
N694 N 0.89364 0.51429 0.68121 0.0
N695 N 0.85178 0.53429 0.47149 0.0
loop_
_geom_bond_atom_site_label_1
_geom_bond_atom_site_label_2
_geom_bond_distance
_geom_bond_site_symmetry_2
_ccdc_geom_bond_type
H0 C7 0.929 . S
H1 C10 0.930 . S
H2 C12 0.929 . S
H3 C4 0.969 . S
C4 H3 0.969 . S
C4 O5 1.550 . S
C4 H6 0.973 . S
O5 C4 1.550 . S
O5 C11 1.412 . S
H6 C4 0.973 . S
C7 H0 0.929 . S
C7 C8 1.400 . S
C7 C9 1.364 . S
C8 C7 1.400 . S
C8 C12 1.377 . S
C9 C7 1.364 . S
C9 C10 1.374 . S
C10 H1 0.930 . S
C10 C9 1.374 . S
C10 C11 1.383 . S
C11 O5 1.412 . S
C11 C10 1.383 . S
C11 C12 1.394 . S
C12 H2 0.929 . S
C12 C8 1.377 . S
C12 C11 1.394 . S
H13 C20 0.928 1_655 S
H14 C23 0.930 . S
H15 C25 0.928 1_655 S
H16 C17 0.969 . S
C17 H16 0.969 . S
C17 O18 1.550 1_455 S
C17 H19 0.973 1_455 S
O18 C17 1.550 1_655 S
O18 C24 1.405 1_655 S
H19 C17 0.973 1_655 S
C20 H13 0.928 1_455 S
C20 C21 1.400 . S
C20 C22 1.364 . S
C21 C20 1.400 . S
C21 C25 1.377 . S
C22 C20 1.364 . S
C22 C23 1.374 1_455 S
C23 H14 0.930 . S
C23 C22 1.374 1_655 S
C23 C24 1.382 1_655 S
C24 O18 1.405 1_455 S
C24 C23 1.382 1_455 S
C24 C25 1.394 . S
C25 H15 0.928 1_455 S
C25 C21 1.377 . S
C25 C24 1.394 . S
H26 C33 0.928 1_565 S
H27 C36 0.930 . S
H28 C38 0.928 1_565 S
H29 C30 0.969 . S
C30 H29 0.969 . S
C30 O31 1.550 1_545 S
C30 H32 0.973 1_545 S
O31 C30 1.550 1_565 S
O31 C37 1.405 1_565 S
H32 C30 0.973 1_565 S
C33 H26 0.928 1_545 S
C33 C34 1.399 . S
C33 C35 1.364 . S
C34 C33 1.399 . S
C34 C38 1.377 . S
C35 C33 1.364 . S
C35 C36 1.374 1_545 S
C36 H27 0.930 . S
C36 C35 1.374 1_565 S
C36 C37 1.382 1_565 S
C37 O31 1.405 1_545 S
C37 C36 1.382 1_545 S
C37 C38 1.394 . S
C38 H28 0.928 1_545 S
C38 C34 1.377 . S
C38 C37 1.394 . S
H39 C46 0.929 . S
H40 C49 0.930 . S
H41 C51 0.929 . S
H42 C43 0.969 . S
C43 H42 0.969 . S
C43 O44 1.550 . S
C43 H45 0.973 . S
O44 C43 1.550 . S
O44 C50 1.412 . S
H45 C43 0.973 . S
C46 H39 0.929 . S
C46 C47 1.400 . S
C46 C48 1.364 . S
C47 C46 1.400 . S
C47 C51 1.377 . S
C48 C46 1.364 . S
C48 C49 1.374 . S
C49 H40 0.930 . S
C49 C48 1.374 . S
C49 C50 1.383 . S
C50 O44 1.412 . S
C50 C49 1.383 . S
C50 C51 1.394 . S
C51 H41 0.929 . S
C51 C47 1.377 . S
C51 C50 1.394 . S
H52 C59 0.929 . S
H53 C62 0.930 . S
H54 C64 0.929 . S
H55 C56 0.969 . S
C56 H55 0.969 . S
C56 O57 1.550 . S
C56 H58 0.973 . S
O57 C56 1.550 . S
O57 C63 1.412 . S
H58 C56 0.973 . S
C59 H52 0.929 . S
C59 C60 1.400 1_554 S
C59 C61 1.364 . S
C60 C59 1.400 1_556 S
C60 C64 1.377 . S
C61 C59 1.364 . S
C61 C62 1.374 . S
C62 H53 0.930 . S
C62 C61 1.374 . S
C62 C63 1.383 . S
C63 O57 1.412 . S
C63 C62 1.383 . S
C63 C64 1.394 1_554 S
C64 H54 0.929 . S
C64 C60 1.377 . S
C64 C63 1.394 1_556 S
H65 C72 0.928 1_655 S
H66 C75 0.930 . S
H67 C77 0.928 1_655 S
H68 C69 0.969 . S
C69 H68 0.969 . S
C69 O70 1.550 1_455 S
C69 H71 0.973 1_455 S
O70 C69 1.550 1_655 S
O70 C76 1.402 1_655 S
H71 C69 0.973 1_655 S
C72 H65 0.928 1_455 S
C72 C73 1.400 1_554 S
C72 C74 1.364 . S
C73 C72 1.400 1_556 S
C73 C77 1.377 . S
C74 C72 1.364 . S
C74 C75 1.374 1_455 S
C75 H66 0.930 . S
C75 C74 1.374 1_655 S
C75 C76 1.382 1_655 S
C76 O70 1.402 1_455 S
C76 C75 1.382 1_455 S
C76 C77 1.394 1_554 S
C77 H67 0.928 1_455 S
C77 C73 1.377 . S
C77 C76 1.394 1_556 S
H78 C85 0.928 1_565 S
H79 C88 0.930 . S
H80 C90 0.928 1_565 S
H81 C82 0.969 . S
C82 H81 0.969 . S
C82 O83 1.550 1_545 S
C82 H84 0.973 1_545 S
O83 C82 1.550 1_565 S
O83 C89 1.402 1_565 S
H84 C82 0.973 1_565 S
C85 H78 0.928 1_545 S
C85 C86 1.400 1_554 S
C85 C87 1.364 . S
C86 C85 1.400 1_556 S
C86 C90 1.377 . S
C87 C85 1.364 . S
C87 C88 1.374 1_545 S
C88 H79 0.930 . S
C88 C87 1.374 1_565 S
C88 C89 1.382 1_565 S
C89 O83 1.402 1_545 S
C89 C88 1.382 1_545 S
C89 C90 1.394 1_554 S
C90 H80 0.928 1_545 S
C90 C86 1.377 . S
C90 C89 1.394 1_556 S
H91 C98 0.929 . S
H92 C101 0.930 . S
H93 C103 0.929 . S
H94 C95 0.969 . S
C95 H94 0.969 . S
C95 O96 1.550 . S
C95 H97 0.973 . S
O96 C95 1.550 . S
O96 C102 1.412 . S
H97 C95 0.973 . S
C98 H91 0.929 . S
C98 C99 1.400 1_554 S
C98 C100 1.364 . S
C99 C98 1.400 1_556 S
C99 C103 1.377 . S
C100 C98 1.364 . S
C100 C101 1.374 . S
C101 H92 0.930 . S
C101 C100 1.374 . S
C101 C102 1.383 . S
C102 O96 1.412 . S
C102 C101 1.383 . S
C102 C103 1.394 1_554 S
C103 H93 0.929 . S
C103 C99 1.377 . S
C103 C102 1.394 1_556 S
Sm104 C106 2.846 . S
Sm104 O124 2.543 . S
Sm104 O125 2.450 . S
Sm104 O126 2.681 1_565 S
Sm104 O127 2.464 . S
Sm104 O128 2.396 . S
Sm104 O132 2.386 1_455 S
Sm104 O135 2.408 1_565 S
Sm105 C115 2.846 . S
Sm105 O126 2.386 1_655 S
Sm105 O129 2.408 1_545 S
Sm105 O130 2.543 . S
Sm105 O131 2.450 . S
Sm105 O132 2.681 1_545 S
Sm105 O133 2.464 . S
Sm105 O134 2.396 . S
C106 Sm104 2.846 . S
C106 C107 1.506 1_556 S
C106 O124 1.261 . S
C106 O125 1.242 . S
C107 C106 1.506 1_554 S
C107 C108 1.358 . S
C107 C112 1.382 . S
C108 C107 1.358 . S
C108 C109 1.385 . S
C108 H136 0.930 1_455 S
C109 C108 1.385 . S
C109 C110 1.395 . S
C109 H137 0.929 1_455 S
C110 C109 1.395 . S
C110 C111 1.335 . S
C111 C110 1.335 . S
C111 C112 1.398 . S
C111 H138 0.930 . S
C112 C107 1.382 . S
C112 C111 1.398 . S
C112 H139 0.929 1_554 S
C113 O126 1.271 1_565 S
C113 O127 1.251 . S
C114 O128 1.252 1_655 S
C114 O129 1.272 . S
C115 Sm105 2.846 . S
C115 C116 1.506 . S
C115 O130 1.261 . S
C115 O131 1.242 . S
C116 C115 1.506 . S
C116 C117 1.358 . S
C116 C121 1.382 . S
C117 C116 1.358 . S
C117 C118 1.385 . S
C117 H140 0.930 1_655 S
C118 C117 1.385 . S
C118 C119 1.395 . S
C118 H141 0.929 1_655 S
C119 C118 1.395 . S
C119 C120 1.335 . S
C120 C119 1.335 . S
C120 C121 1.398 . S
C120 H142 0.930 . S
C121 C116 1.382 . S
C121 C120 1.398 . S
C121 H143 0.929 . S
C122 O132 1.271 1_545 S
C122 O133 1.251 . S
C123 O134 1.252 1_455 S
C123 O135 1.272 . S
O124 Sm104 2.543 . S
O124 C106 1.261 . S
O125 Sm104 2.450 . S
O125 C106 1.242 . S
O126 Sm104 2.681 1_545 S
O126 Sm105 2.386 1_455 S
O126 C113 1.271 1_545 S
O127 Sm104 2.464 . S
O127 C113 1.251 . S
O128 Sm104 2.396 . S
O128 C114 1.252 1_455 S
O129 Sm105 2.408 1_565 S
O129 C114 1.272 . S
O130 Sm105 2.543 . S
O130 C115 1.261 . S
O131 Sm105 2.450 . S
O131 C115 1.242 . S
O132 Sm104 2.386 1_655 S
O132 Sm105 2.681 1_565 S
O132 C122 1.271 1_565 S
O133 Sm105 2.464 . S
O133 C122 1.251 . S
O134 Sm105 2.396 . S
O134 C123 1.252 1_655 S
O135 Sm104 2.408 1_545 S
O135 C123 1.272 . S
H136 C108 0.930 1_655 S
H137 C109 0.929 1_655 S
H138 C111 0.930 . S
H139 C112 0.929 1_556 S
H140 C117 0.930 1_455 S
H141 C118 0.929 1_455 S
H142 C120 0.930 . S
H143 C121 0.929 . S
Sm144 C146 2.846 . S
Sm144 O164 2.543 . S
Sm144 O165 2.450 . S
Sm144 O166 2.681 . S
Sm144 O167 2.464 . S
Sm144 O168 2.396 . S
Sm144 O172 2.386 1_545 S
Sm144 O175 2.408 . S
Sm145 C155 2.846 . S
Sm145 O166 2.386 1_565 S
Sm145 O169 2.408 . S
Sm145 O170 2.543 . S
Sm145 O171 2.450 . S
Sm145 O172 2.681 . S
Sm145 O173 2.464 . S
Sm145 O174 2.396 . S
C146 Sm144 2.846 . S
C146 C147 1.506 1_556 S
C146 O164 1.261 . S
C146 O165 1.242 . S
C147 C146 1.506 1_554 S
C147 C148 1.358 . S
C147 C152 1.382 . S
C148 C147 1.358 . S
C148 C149 1.385 . S
C148 H176 0.930 1_545 S
C149 C148 1.385 . S
C149 C150 1.395 . S
C149 H177 0.929 1_545 S
C150 C149 1.395 . S
C150 C151 1.335 . S
C151 C150 1.335 . S
C151 C152 1.398 . S
C151 H178 0.930 . S
C152 C147 1.382 . S
C152 C151 1.398 . S
C152 H179 0.929 1_554 S
C153 O166 1.271 . S
C153 O167 1.251 . S
C154 O168 1.252 1_565 S
C154 O169 1.272 . S
C155 Sm145 2.846 . S
C155 C156 1.506 . S
C155 O170 1.261 . S
C155 O171 1.242 . S
C156 C155 1.506 . S
C156 C157 1.358 . S
C156 C161 1.382 . S
C157 C156 1.358 . S
C157 C158 1.385 . S
C157 H180 0.930 1_565 S
C158 C157 1.385 . S
C158 C159 1.395 . S
C158 H181 0.929 1_565 S
C159 C158 1.395 . S
C159 C160 1.335 . S
C160 C159 1.335 . S
C160 C161 1.398 . S
C160 H182 0.930 . S
C161 C156 1.382 . S
C161 C160 1.398 . S
C161 H183 0.929 . S
C162 O172 1.271 . S
C162 O173 1.251 . S
C163 O174 1.252 1_545 S
C163 O175 1.272 . S
O164 Sm144 2.543 . S
O164 C146 1.261 . S
O165 Sm144 2.450 . S
O165 C146 1.242 . S
O166 Sm144 2.681 . S
O166 Sm145 2.386 1_545 S
O166 C153 1.271 . S
O167 Sm144 2.464 . S
O167 C153 1.251 . S
O168 Sm144 2.396 . S
O168 C154 1.252 1_545 S
O169 Sm145 2.408 . S
O169 C154 1.272 . S
O170 Sm145 2.543 . S
O170 C155 1.261 . S
O171 Sm145 2.450 . S
O171 C155 1.242 . S
O172 Sm144 2.386 1_565 S
O172 Sm145 2.681 . S
O172 C162 1.271 . S
O173 Sm145 2.464 . S
O173 C162 1.251 . S
O174 Sm145 2.396 . S
O174 C163 1.252 1_565 S
O175 Sm144 2.408 . S
O175 C163 1.272 . S
H176 C148 0.930 1_565 S
H177 C149 0.929 1_565 S
H178 C151 0.930 . S
H179 C152 0.929 1_556 S
H180 C157 0.930 1_545 S
H181 C158 0.929 1_545 S
H182 C160 0.930 . S
H183 C161 0.929 . S
Sm184 C186 2.846 . S
Sm184 O204 2.543 . S
Sm184 O205 2.450 . S
Sm184 O206 2.681 . S
Sm184 O207 2.464 . S
Sm184 O208 2.396 . S
Sm184 O212 2.386 . S
Sm184 O215 2.408 . S
Sm185 C195 2.846 . S
Sm185 O206 2.386 . S
Sm185 O209 2.408 . S
Sm185 O210 2.543 . S
Sm185 O211 2.450 . S
Sm185 O212 2.681 . S
Sm185 O213 2.464 . S
Sm185 O214 2.396 . S
C186 Sm184 2.846 . S
C186 C187 1.506 1_556 S
C186 O204 1.261 . S
C186 O205 1.242 . S
C187 C186 1.506 1_554 S
C187 C188 1.358 . S
C187 C192 1.382 . S
C188 C187 1.358 . S
C188 C189 1.385 . S
C188 H216 0.930 . S
C189 C188 1.385 . S
C189 C190 1.395 . S
C189 H217 0.929 . S
C190 C189 1.395 . S
C190 C191 1.335 . S
C191 C190 1.335 . S
C191 C192 1.398 . S
C191 H218 0.930 . S
C192 C187 1.382 . S
C192 C191 1.398 . S
C192 H219 0.927 1_554 S
C193 O206 1.271 . S
C193 O207 1.251 . S
C194 O208 1.252 . S
C194 O209 1.272 . S
C195 Sm185 2.846 . S
C195 C196 1.506 . S
C195 O210 1.261 . S
C195 O211 1.242 . S
C196 C195 1.506 . S
C196 C197 1.358 . S
C196 C201 1.382 . S
C197 C196 1.358 . S
C197 C198 1.385 . S
C197 H220 0.930 . S
C198 C197 1.385 . S
C198 C199 1.395 . S
C198 H221 0.929 . S
C199 C198 1.395 . S
C199 C200 1.335 . S
C200 C199 1.335 . S
C200 C201 1.398 . S
C200 H222 0.930 . S
C201 C196 1.382 . S
C201 C200 1.398 . S
C201 H223 0.929 . S
C202 O212 1.271 . S
C202 O213 1.251 . S
C203 O214 1.252 . S
C203 O215 1.272 . S
O204 Sm184 2.543 . S
O204 C186 1.261 . S
O205 Sm184 2.450 . S
O205 C186 1.242 . S
O206 Sm184 2.681 . S
O206 Sm185 2.386 . S
O206 C193 1.271 . S
O207 Sm184 2.464 . S
O207 C193 1.251 . S
O208 Sm184 2.396 . S
O208 C194 1.252 . S
O209 Sm185 2.408 . S
O209 C194 1.272 . S
O210 Sm185 2.543 . S
O210 C195 1.261 . S
O211 Sm185 2.450 . S
O211 C195 1.242 . S
O212 Sm184 2.386 . S
O212 Sm185 2.681 . S
O212 C202 1.271 . S
O213 Sm185 2.464 . S
O213 C202 1.251 . S
O214 Sm185 2.396 . S
O214 C203 1.252 . S
O215 Sm184 2.408 . S
O215 C203 1.272 . S
H216 C188 0.930 . S
H217 C189 0.929 . S
H218 C191 0.930 . S
H219 C192 0.927 1_556 S
H220 C197 0.930 . S
H221 C198 0.929 . S
H222 C200 0.930 . S
H223 C201 0.929 . S
Sm224 C226 2.846 . S
Sm224 O244 2.543 . S
Sm224 O245 2.450 . S
Sm224 O246 2.681 1_655 S
Sm224 O247 2.464 . S
Sm224 O248 2.396 . S
Sm224 O252 2.386 . S
Sm224 O255 2.408 1_655 S
Sm225 C235 2.846 . S
Sm225 O246 2.386 . S
Sm225 O249 2.408 1_455 S
Sm225 O250 2.543 . S
Sm225 O251 2.450 . S
Sm225 O252 2.681 1_455 S
Sm225 O253 2.464 . S
Sm225 O254 2.396 . S
C226 Sm224 2.846 . S
C226 C227 1.506 1_556 S
C226 O244 1.261 . S
C226 O245 1.242 . S
C227 C226 1.506 1_554 S
C227 C228 1.358 . S
C227 C232 1.382 . S
C228 C227 1.358 . S
C228 C229 1.385 . S
C228 H256 0.930 . S
C229 C228 1.385 . S
C229 C230 1.395 . S
C229 H257 0.929 . S
C230 C229 1.395 . S
C230 C231 1.335 . S
C231 C230 1.335 . S
C231 C232 1.398 . S
C231 H258 0.930 . S
C232 C227 1.382 . S
C232 C231 1.398 . S
C232 H259 0.927 1_554 S
C233 O246 1.260 1_655 S
C233 O247 1.270 . S
C234 O248 1.252 . S
C234 O249 1.272 . S
C235 Sm225 2.846 . S
C235 C236 1.506 . S
C235 O250 1.261 . S
C235 O251 1.242 . S
C236 C235 1.506 . S
C236 C237 1.358 . S
C236 C241 1.382 . S
C237 C236 1.358 . S
C237 C238 1.385 . S
C237 H260 0.930 . S
C238 C237 1.385 . S
C238 C239 1.395 . S
C238 H261 0.929 . S
C239 C238 1.395 . S
C239 C240 1.335 . S
C240 C239 1.335 . S
C240 C241 1.398 . S
C240 H262 0.930 . S
C241 C236 1.382 . S
C241 C240 1.398 . S
C241 H263 0.929 . S
C242 O252 1.271 1_455 S
C242 O253 1.251 . S
C243 O254 1.252 . S
C243 O255 1.272 . S
O244 Sm224 2.543 . S
O244 C226 1.261 . S
O245 Sm224 2.450 . S
O245 C226 1.242 . S
O246 Sm224 2.681 1_455 S
O246 Sm225 2.386 . S
O246 C233 1.260 1_455 S
O247 Sm224 2.464 . S
O247 C233 1.270 . S
O248 Sm224 2.396 . S
O248 C234 1.252 . S
O249 Sm225 2.408 1_655 S
O249 C234 1.272 . S
O250 Sm225 2.543 . S
O250 C235 1.261 . S
O251 Sm225 2.450 . S
O251 C235 1.242 . S
O252 Sm224 2.386 . S
O252 Sm225 2.681 1_655 S
O252 C242 1.271 1_655 S
O253 Sm225 2.464 . S
O253 C242 1.251 . S
O254 Sm225 2.396 . S
O254 C243 1.252 . S
O255 Sm224 2.408 1_455 S
O255 C243 1.272 . S
H256 C228 0.930 . S
H257 C229 0.929 . S
H258 C231 0.930 . S
H259 C232 0.927 1_556 S
H260 C237 0.930 . S
H261 C238 0.929 . S
H262 C240 0.930 . S
H263 C241 0.929 . S
H264 C270 0.930 . S
H265 C274 0.930 . S
H266 C279 0.929 . S
H267 C277 0.929 . S
H268 C272 0.929 . S
H269 C278 0.929 . S
C270 H264 0.930 . S
C270 C271 1.368 1_565 S
C270 C278 1.378 . S
C271 C270 1.368 1_545 S
C271 C279 1.432 . S
C272 H268 0.929 . S
C272 C274 1.378 . S
C272 C276 1.350 . S
C273 C276 1.463 . S
C273 C278 1.346 1_545 S
C273 N281 1.431 . S
C274 H265 0.930 . S
C274 C272 1.378 . S
C274 C275 1.367 . S
C275 C274 1.367 . S
C275 C277 1.433 1_545 S
C276 C272 1.350 . S
C276 C273 1.463 . S
C276 N280 1.427 1_545 S
C277 H267 0.929 . S
C277 C275 1.433 1_565 S
C277 N280 1.384 . S
C278 H269 0.929 . S
C278 C270 1.378 . S
C278 C273 1.346 1_565 S
C279 H266 0.929 . S
C279 C271 1.432 . S
C279 N281 1.384 . S
N280 C276 1.427 1_565 S
N280 C277 1.384 . S
N281 C273 1.431 . S
N281 C279 1.384 . S
H282 C288 0.930 . S
H283 C292 0.930 . S
H284 C297 0.929 . S
H285 C295 0.929 . S
H286 C290 0.929 . S
H287 C296 0.929 . S
C288 H282 0.930 . S
C288 C289 1.367 . S
C288 C296 1.378 . S
C289 C288 1.367 . S
C289 C297 1.433 . S
C290 H286 0.929 . S
C290 C292 1.378 . S
C290 C294 1.350 . S
C291 C294 1.463 . S
C291 C296 1.350 . S
C291 N299 1.427 . S
C292 H283 0.930 . S
C292 C290 1.378 . S
C292 C293 1.367 . S
C293 C292 1.367 . S
C293 C295 1.433 . S
C294 C290 1.350 . S
C294 C291 1.463 . S
C294 N298 1.427 . S
C295 H285 0.929 . S
C295 C293 1.433 . S
C295 N298 1.384 . S
C296 H287 0.929 . S
C296 C288 1.378 . S
C296 C291 1.350 . S
C297 H284 0.929 . S
C297 C289 1.433 . S
C297 N299 1.384 . S
N298 C294 1.427 . S
N298 C295 1.384 . S
N299 C291 1.427 . S
N299 C297 1.384 . S
H300 C306 0.930 . S
H301 C310 0.930 . S
H302 C315 0.929 . S
H303 C313 0.929 . S
H304 C308 0.929 . S
H305 C314 0.929 . S
C306 H300 0.930 . S
C306 C307 1.367 . S
C306 C314 1.378 . S
C307 C306 1.367 . S
C307 C315 1.433 . S
C308 H304 0.929 . S
C308 C310 1.378 . S
C308 C312 1.350 . S
C309 C312 1.463 . S
C309 C314 1.350 . S
C309 N317 1.427 . S
C310 H301 0.930 . S
C310 C308 1.378 . S
C310 C311 1.367 . S
C311 C310 1.367 . S
C311 C313 1.433 . S
C312 C308 1.350 . S
C312 C309 1.463 . S
C312 N316 1.427 . S
C313 H303 0.929 . S
C313 C311 1.433 . S
C313 N316 1.384 . S
C314 H305 0.929 . S
C314 C306 1.378 . S
C314 C309 1.350 . S
C315 H302 0.929 . S
C315 C307 1.433 . S
C315 N317 1.384 . S
N316 C312 1.427 . S
N316 C313 1.384 . S
N317 C309 1.427 . S
N317 C315 1.384 . S
H318 C324 0.930 . S
H319 C328 0.930 . S
H320 C333 0.929 . S
H321 C331 0.929 . S
H322 C326 0.929 . S
H323 C332 0.929 . S
C324 H318 0.930 . S
C324 C325 1.381 . S
C324 C332 1.378 . S
C325 C324 1.381 . S
C325 C333 1.419 1_455 S
C326 H322 0.929 . S
C326 C328 1.378 . S
C326 C330 1.336 1_655 S
C327 C330 1.463 . S
C327 C332 1.350 . S
C327 N335 1.427 1_455 S
C328 H319 0.930 . S
C328 C326 1.378 . S
C328 C329 1.367 1_655 S
C329 C328 1.367 1_455 S
C329 C331 1.433 . S
C330 C326 1.336 1_455 S
C330 C327 1.463 . S
C330 N334 1.442 . S
C331 H321 0.929 . S
C331 C329 1.433 . S
C331 N334 1.384 . S
C332 H323 0.929 . S
C332 C324 1.378 . S
C332 C327 1.350 . S
C333 H320 0.929 . S
C333 C325 1.419 1_655 S
C333 N335 1.384 . S
N334 C330 1.442 . S
N334 C331 1.384 . S
N335 C327 1.427 1_655 S
N335 C333 1.384 . S
H336 C342 0.930 . S
H337 C346 0.930 . S
H338 C351 0.929 . S
H339 C349 0.929 . S
H340 C344 0.929 . S
H341 C350 0.929 . S
C342 H336 0.930 . S
C342 C343 1.377 . S
C342 C350 1.378 . S
C343 C342 1.377 . S
C343 C351 1.423 1_565 S
C344 H340 0.929 . S
C344 C346 1.378 . S
C344 C348 1.352 1_545 S
C345 C348 1.462 . S
C345 C350 1.376 . S
C345 N353 1.401 1_565 S
C346 H337 0.930 . S
C346 C344 1.378 . S
C346 C347 1.352 1_544 S
C347 C346 1.352 1_566 S
C347 C349 1.448 . S
C348 C344 1.352 1_565 S
C348 C345 1.462 . S
C348 N352 1.426 . S
C349 H339 0.929 . S
C349 C347 1.448 . S
C349 N352 1.384 1_556 S
C350 H341 0.929 . S
C350 C342 1.378 . S
C350 C345 1.376 . S
C351 H338 0.929 . S
C351 C343 1.423 1_545 S
C351 N353 1.384 . S
N352 C348 1.426 . S
N352 C349 1.384 1_554 S
N353 C345 1.401 1_545 S
N353 C351 1.384 . S
H354 C360 0.930 . S
H355 C364 0.930 . S
H356 C369 0.929 . S
H357 C367 0.929 1_556 S
H358 C362 0.929 . S
H359 C368 0.929 . S
C360 H354 0.930 . S
C360 C361 1.367 . S
C360 C368 1.378 . S
C361 C360 1.367 . S
C361 C369 1.433 . S
C362 H358 0.929 . S
C362 C364 1.378 1_554 S
C362 C366 1.350 . S
C363 C366 1.463 . S
C363 C368 1.350 . S
C363 N371 1.427 . S
C364 H355 0.930 . S
C364 C362 1.378 1_556 S
C364 C365 1.367 . S
C365 C364 1.367 . S
C365 C367 1.431 1_556 S
C366 C362 1.350 . S
C366 C363 1.463 . S
C366 N370 1.427 . S
C367 H357 0.929 1_554 S
C367 C365 1.431 1_554 S
C367 N370 1.386 . S
C368 H359 0.929 . S
C368 C360 1.378 . S
C368 C363 1.350 . S
C369 H356 0.929 . S
C369 C361 1.433 . S
C369 N371 1.384 . S
N370 C366 1.427 . S
N370 C367 1.386 . S
N371 C363 1.427 . S
N371 C369 1.384 . S
H372 C378 0.930 . S
H373 C382 0.930 . S
H374 C387 0.929 . S
H375 C385 0.929 . S
H376 C380 0.929 . S
H377 C386 0.929 . S
C378 H372 0.930 . S
C378 C379 1.367 . S
C378 C386 1.378 . S
C379 C378 1.367 . S
C379 C387 1.433 . S
C380 H376 0.929 . S
C380 C382 1.378 1_554 S
C380 C384 1.350 . S
C381 C384 1.463 . S
C381 C386 1.350 . S
C381 N389 1.427 . S
C382 H373 0.930 . S
C382 C380 1.378 1_556 S
C382 C383 1.367 . S
C383 C382 1.367 . S
C383 C385 1.433 . S
C384 C380 1.350 . S
C384 C381 1.463 . S
C384 N388 1.427 . S
C385 H375 0.929 . S
C385 C383 1.433 . S
C385 N388 1.384 1_556 S
C386 H377 0.929 . S
C386 C378 1.378 . S
C386 C381 1.350 . S
C387 H374 0.929 . S
C387 C379 1.433 . S
C387 N389 1.384 . S
N388 C384 1.427 . S
N388 C385 1.384 1_554 S
N389 C381 1.427 . S
N389 C387 1.384 . S
H390 C396 0.930 . S
H391 C400 0.930 . S
H392 C405 0.929 . S
H393 C403 0.929 . S
H394 C398 0.929 . S
H395 C404 0.929 . S
C396 H390 0.930 . S
C396 C397 1.384 . S
C396 C404 1.378 . S
C397 C396 1.384 . S
C397 C405 1.416 1_655 S
C398 H394 0.929 . S
C398 C400 1.378 . S
C398 C402 1.336 1_455 S
C399 C402 1.463 . S
C399 C404 1.350 . S
C399 N407 1.427 1_655 S
C400 H391 0.930 . S
C400 C398 1.378 . S
C400 C401 1.367 1_454 S
C401 C400 1.367 1_656 S
C401 C403 1.433 . S
C402 C398 1.336 1_655 S
C402 C399 1.463 . S
C402 N406 1.442 . S
C403 H393 0.929 . S
C403 C401 1.433 . S
C403 N406 1.384 1_556 S
C404 H395 0.929 . S
C404 C396 1.378 . S
C404 C399 1.350 . S
C405 H392 0.929 . S
C405 C397 1.416 1_455 S
C405 N407 1.384 . S
N406 C402 1.442 . S
N406 C403 1.384 1_554 S
N407 C399 1.427 1_455 S
N407 C405 1.384 . S
H408 C414 0.930 . S
H409 C418 0.930 . S
H410 C423 0.932 . S
H411 C421 0.929 . S
H412 C416 0.929 . S
H413 C422 0.929 . S
C414 H408 0.930 . S
C414 C415 1.367 1_655 S
C414 C422 1.378 . S
C415 C414 1.367 1_455 S
C415 C423 1.434 . S
C416 H412 0.929 . S
C416 C418 1.378 . S
C416 C420 1.350 . S
C417 C420 1.463 . S
C417 C422 1.350 . S
C417 N425 1.427 . S
C418 H409 0.930 . S
C418 C416 1.378 . S
C418 C419 1.367 . S
C419 C418 1.367 . S
C419 C421 1.433 . S
C420 C416 1.350 . S
C420 C417 1.463 . S
C420 N424 1.427 . S
C421 H411 0.929 . S
C421 C419 1.433 . S
C421 N424 1.384 . S
C422 H413 0.929 . S
C422 C414 1.378 . S
C422 C417 1.350 . S
C423 H410 0.932 . S
C423 C415 1.434 . S
C423 N425 1.380 1_455 S
N424 C420 1.427 . S
N424 C421 1.384 . S
N425 C417 1.427 . S
N425 C423 1.380 1_655 S
H426 C432 0.930 . S
H427 C436 0.948 . S
H428 C441 0.929 . S
H429 C439 0.929 . S
H430 C434 0.929 1_545 S
H431 C440 0.929 . S
C432 H426 0.930 . S
C432 C433 1.367 1_565 S
C432 C440 1.378 . S
C433 C432 1.367 1_545 S
C433 C441 1.433 . S
C434 H430 0.929 1_565 S
C434 C436 1.378 . S
C434 C438 1.350 . S
C435 C438 1.463 . S
C435 C440 1.350 . S
C435 N443 1.427 1_565 S
C436 H427 0.948 . S
C436 C434 1.378 . S
C436 C437 1.367 . S
C437 C436 1.367 . S
C437 C439 1.433 . S
C438 C434 1.350 . S
C438 C435 1.463 . S
C438 N442 1.427 . S
C439 H429 0.929 . S
C439 C437 1.433 . S
C439 N442 1.384 . S
C440 H431 0.929 . S
C440 C432 1.378 . S
C440 C435 1.350 . S
C441 H428 0.929 . S
C441 C433 1.433 . S
C441 N443 1.384 . S
N442 C438 1.427 . S
N442 C439 1.384 . S
N443 C435 1.427 1_545 S
N443 C441 1.384 . S
H444 C450 0.930 . S
H445 C454 0.930 . S
H446 C459 0.929 . S
H447 C457 0.929 . S
H448 C452 0.929 . S
H449 C458 0.929 . S
C450 H444 0.930 . S
C450 C451 1.367 . S
C450 C458 1.378 . S
C451 C450 1.367 . S
C451 C459 1.433 . S
C452 H448 0.929 . S
C452 C454 1.378 . S
C452 C456 1.350 . S
C453 C456 1.463 . S
C453 C458 1.350 . S
C453 N461 1.427 . S
C454 H445 0.930 . S
C454 C452 1.378 . S
C454 C455 1.367 . S
C455 C454 1.367 . S
C455 C457 1.433 . S
C456 C452 1.350 . S
C456 C453 1.463 . S
C456 N460 1.427 . S
C457 H447 0.929 . S
C457 C455 1.433 . S
C457 N460 1.384 . S
C458 H449 0.929 . S
C458 C450 1.378 . S
C458 C453 1.350 . S
C459 H446 0.929 . S
C459 C451 1.433 . S
C459 N461 1.384 . S
N460 C456 1.427 . S
N460 C457 1.384 . S
N461 C453 1.427 . S
N461 C459 1.384 . S
H462 C468 0.930 . S
H463 C472 0.930 . S
H464 C477 0.929 . S
H465 C475 0.929 . S
H466 C470 0.929 . S
H467 C476 0.929 . S
C468 H462 0.930 . S
C468 C469 1.367 . S
C468 C476 1.378 . S
C469 C468 1.367 . S
C469 C477 1.433 . S
C470 H466 0.929 . S
C470 C472 1.378 . S
C470 C474 1.350 . S
C471 C474 1.463 . S
C471 C476 1.350 . S
C471 N479 1.427 . S
C472 H463 0.930 . S
C472 C470 1.378 . S
C472 C473 1.367 . S
C473 C472 1.367 . S
C473 C475 1.433 . S
C474 C470 1.350 . S
C474 C471 1.463 . S
C474 N478 1.427 . S
C475 H465 0.929 . S
C475 C473 1.433 . S
C475 N478 1.384 . S
C476 H467 0.929 . S
C476 C468 1.378 . S
C476 C471 1.350 . S
C477 H464 0.929 . S
C477 C469 1.433 . S
C477 N479 1.384 . S
N478 C474 1.427 . S
N478 C475 1.384 . S
N479 C471 1.427 . S
N479 C477 1.384 . S
H480 C486 0.930 . S
H481 C490 0.930 . S
H482 C495 0.929 . S
H483 C493 0.929 . S
H484 C488 0.929 . S
H485 C494 0.929 . S
C486 H480 0.930 . S
C486 C487 1.367 . S
C486 C494 1.378 . S
C487 C486 1.367 . S
C487 C495 1.433 1_655 S
C488 H484 0.929 . S
C488 C490 1.378 . S
C488 C492 1.350 . S
C489 C492 1.463 . S
C489 C494 1.350 1_455 S
C489 N497 1.427 . S
C490 H481 0.930 . S
C490 C488 1.378 . S
C490 C491 1.367 . S
C491 C490 1.367 . S
C491 C493 1.433 . S
C492 C488 1.350 . S
C492 C489 1.463 . S
C492 N496 1.427 . S
C493 H483 0.929 . S
C493 C491 1.433 . S
C493 N496 1.384 . S
C494 H485 0.929 . S
C494 C486 1.378 . S
C494 C489 1.350 1_655 S
C495 H482 0.929 . S
C495 C487 1.433 1_455 S
C495 N497 1.384 . S
N496 C492 1.427 . S
N496 C493 1.384 . S
N497 C489 1.427 . S
N497 C495 1.384 . S
H498 C504 0.930 . S
H499 C508 0.930 . S
H500 C513 0.929 . S
H501 C511 0.913 1_565 S
H502 C506 0.929 . S
H503 C512 0.929 . S
C504 H498 0.930 . S
C504 C505 1.367 . S
C504 C512 1.378 . S
C505 C504 1.367 . S
C505 C513 1.433 1_565 S
C506 H502 0.929 . S
C506 C508 1.378 . S
C506 C510 1.350 . S
C507 C510 1.463 . S
C507 C512 1.350 1_545 S
C507 N515 1.427 . S
C508 H499 0.930 . S
C508 C506 1.378 . S
C508 C509 1.367 . S
C509 C508 1.367 . S
C509 C511 1.433 . S
C510 C506 1.350 . S
C510 C507 1.463 . S
C510 N514 1.427 . S
C511 H501 0.913 1_545 S
C511 C509 1.433 . S
C511 N514 1.384 . S
C512 H503 0.929 . S
C512 C504 1.378 . S
C512 C507 1.350 1_565 S
C513 H500 0.929 . S
C513 C505 1.433 1_545 S
C513 N515 1.384 . S
N514 C510 1.427 . S
N514 C511 1.384 . S
N515 C507 1.427 . S
N515 C513 1.384 . S
H516 C522 0.930 . S
H517 C526 0.930 . S
H518 C531 0.929 . S
H519 C529 0.929 . S
H520 C524 0.929 . S
H521 C530 0.929 . S
C522 H516 0.930 . S
C522 C523 1.367 . S
C522 C530 1.378 . S
C523 C522 1.367 . S
C523 C531 1.433 . S
C524 H520 0.929 . S
C524 C526 1.378 . S
C524 C528 1.350 . S
C525 C528 1.463 . S
C525 C530 1.350 . S
C525 N533 1.427 . S
C526 H517 0.930 . S
C526 C524 1.378 . S
C526 C527 1.367 . S
C527 C526 1.367 . S
C527 C529 1.433 . S
C528 C524 1.350 . S
C528 C525 1.463 . S
C528 N532 1.427 . S
C529 H519 0.929 . S
C529 C527 1.433 . S
C529 N532 1.384 . S
C530 H521 0.929 . S
C530 C522 1.378 . S
C530 C525 1.350 . S
C531 H518 0.929 . S
C531 C523 1.433 . S
C531 N533 1.384 . S
N532 C528 1.427 . S
N532 C529 1.384 . S
N533 C525 1.427 . S
N533 C531 1.384 . S
H534 C540 0.930 . S
H535 C544 0.930 . S
H536 C549 0.929 . S
H537 C547 0.929 . S
H538 C542 0.929 . S
H539 C548 0.929 . S
C540 H534 0.930 . S
C540 C541 1.367 . S
C540 C548 1.378 . S
C541 C540 1.367 . S
C541 C549 1.433 . S
C542 H538 0.929 . S
C542 C544 1.378 . S
C542 C546 1.350 . S
C543 C546 1.463 . S
C543 C548 1.350 . S
C543 N551 1.427 . S
C544 H535 0.930 . S
C544 C542 1.378 . S
C544 C545 1.367 . S
C545 C544 1.367 . S
C545 C547 1.433 . S
C546 C542 1.350 . S
C546 C543 1.463 . S
C546 N550 1.427 . S
C547 H537 0.929 . S
C547 C545 1.433 . S
C547 N550 1.384 . S
C548 H539 0.929 . S
C548 C540 1.378 . S
C548 C543 1.350 . S
C549 H536 0.929 . S
C549 C541 1.433 . S
C549 N551 1.384 . S
N550 C546 1.427 . S
N550 C547 1.384 . S
N551 C543 1.427 . S
N551 C549 1.384 . S
H552 C558 0.930 . S
H553 C562 0.930 . S
H554 C567 0.929 . S
H555 C565 0.929 . S
H556 C560 0.929 . S
H557 C566 0.929 . S
C558 H552 0.930 . S
C558 C559 1.367 1_655 S
C558 C566 1.378 . S
C559 C558 1.367 1_455 S
C559 C567 1.433 . S
C560 H556 0.929 . S
C560 C562 1.378 . S
C560 C564 1.350 . S
C561 C564 1.463 . S
C561 C566 1.350 1_455 S
C561 N569 1.427 . S
C562 H553 0.930 . S
C562 C560 1.378 . S
C562 C563 1.367 . S
C563 C562 1.367 . S
C563 C565 1.433 1_455 S
C564 C560 1.350 . S
C564 C561 1.463 . S
C564 N568 1.427 1_455 S
C565 H555 0.929 . S
C565 C563 1.433 1_655 S
C565 N568 1.384 . S
C566 H557 0.929 . S
C566 C558 1.378 . S
C566 C561 1.350 1_655 S
C567 H554 0.929 . S
C567 C559 1.433 . S
C567 N569 1.384 . S
N568 C564 1.427 1_655 S
N568 C565 1.384 . S
N569 C561 1.427 . S
N569 C567 1.384 . S
H570 C576 0.930 . S
H571 C580 0.930 . S
H572 C585 0.929 . S
H573 C583 0.929 . S
H574 C578 0.929 . S
H575 C584 0.929 . S
C576 H570 0.930 . S
C576 C577 1.367 1_565 S
C576 C584 1.378 . S
C577 C576 1.367 1_545 S
C577 C585 1.433 . S
C578 H574 0.929 . S
C578 C580 1.378 . S
C578 C582 1.350 . S
C579 C582 1.463 . S
C579 C584 1.350 1_545 S
C579 N587 1.427 . S
C580 H571 0.930 . S
C580 C578 1.378 . S
C580 C581 1.367 . S
C581 C580 1.367 . S
C581 C583 1.433 1_545 S
C582 C578 1.350 . S
C582 C579 1.463 . S
C582 N586 1.427 1_545 S
C583 H573 0.929 . S
C583 C581 1.433 1_565 S
C583 N586 1.384 . S
C584 H575 0.929 . S
C584 C576 1.378 . S
C584 C579 1.350 1_565 S
C585 H572 0.929 . S
C585 C577 1.433 . S
C585 N587 1.384 . S
N586 C582 1.427 1_565 S
N586 C583 1.384 . S
N587 C579 1.427 . S
N587 C585 1.384 . S
H588 C594 0.930 . S
H589 C598 0.930 . S
H590 C603 0.929 . S
H591 C601 0.929 . S
H592 C596 0.929 . S
H593 C602 0.929 . S
C594 H588 0.930 . S
C594 C595 1.367 . S
C594 C602 1.378 . S
C595 C594 1.367 . S
C595 C603 1.433 . S
C596 H592 0.929 . S
C596 C598 1.378 . S
C596 C600 1.350 . S
C597 C600 1.463 . S
C597 C602 1.350 . S
C597 N605 1.427 . S
C598 H589 0.930 . S
C598 C596 1.378 . S
C598 C599 1.367 . S
C599 C598 1.367 . S
C599 C601 1.433 . S
C600 C596 1.350 . S
C600 C597 1.463 . S
C600 N604 1.427 . S
C601 H591 0.929 . S
C601 C599 1.433 . S
C601 N604 1.384 . S
C602 H593 0.929 . S
C602 C594 1.378 . S
C602 C597 1.350 . S
C603 H590 0.929 . S
C603 C595 1.433 . S
C603 N605 1.384 . S
N604 C600 1.427 . S
N604 C601 1.384 . S
N605 C597 1.427 . S
N605 C603 1.384 . S
H606 C612 0.930 . S
H607 C616 0.930 . S
H608 C621 0.929 . S
H609 C619 0.929 . S
H610 C614 0.929 . S
H611 C620 0.929 . S
C612 H606 0.930 . S
C612 C613 1.367 . S
C612 C620 1.378 . S
C613 C612 1.367 . S
C613 C621 1.433 . S
C614 H610 0.929 . S
C614 C616 1.378 . S
C614 C618 1.350 . S
C615 C618 1.463 . S
C615 C620 1.350 . S
C615 N623 1.427 . S
C616 H607 0.930 . S
C616 C614 1.378 . S
C616 C617 1.367 . S
C617 C616 1.367 . S
C617 C619 1.433 . S
C618 C614 1.350 . S
C618 C615 1.463 . S
C618 N622 1.427 . S
C619 H609 0.929 . S
C619 C617 1.433 . S
C619 N622 1.384 . S
C620 H611 0.929 . S
C620 C612 1.378 . S
C620 C615 1.350 . S
C621 H608 0.929 . S
C621 C613 1.433 . S
C621 N623 1.384 . S
N622 C618 1.427 . S
N622 C619 1.384 . S
N623 C615 1.427 . S
N623 C621 1.384 . S
H624 C630 0.930 . S
H625 C634 0.930 . S
H626 C639 0.929 . S
H627 C637 0.929 1_455 S
H628 C632 0.929 . S
H629 C638 0.929 . S
C630 H624 0.930 . S
C630 C631 1.367 1_455 S
C630 C638 1.378 . S
C631 C630 1.367 1_655 S
C631 C639 1.433 . S
C632 H628 0.929 . S
C632 C634 1.378 . S
C632 C636 1.350 . S
C633 C636 1.463 . S
C633 C638 1.350 1_655 S
C633 N641 1.427 . S
C634 H625 0.930 . S
C634 C632 1.378 . S
C634 C635 1.367 . S
C635 C634 1.367 . S
C635 C637 1.433 . S
C636 C632 1.350 . S
C636 C633 1.463 . S
C636 N640 1.421 1_655 S
C637 H627 0.929 1_655 S
C637 C635 1.433 . S
C637 N640 1.382 1_655 S
C638 H629 0.929 . S
C638 C630 1.378 . S
C638 C633 1.350 1_455 S
C639 H626 0.929 . S
C639 C631 1.433 . S
C639 N641 1.384 . S
N640 C636 1.421 1_455 S
N640 C637 1.382 1_455 S
N641 C633 1.427 . S
N641 C639 1.384 . S
H642 C648 0.930 . S
H643 C652 0.939 . S
H644 C657 0.929 . S
H645 C655 0.929 . S
H646 C650 0.929 . S
H647 C656 0.929 . S
C648 H642 0.930 . S
C648 C649 1.367 . S
C648 C656 1.378 . S
C649 C648 1.367 . S
C649 C657 1.433 1_565 S
C650 H646 0.929 . S
C650 C652 1.380 . S
C650 C654 1.350 1_545 S
C651 C654 1.463 . S
C651 C656 1.350 . S
C651 N659 1.427 1_565 S
C652 H643 0.939 . S
C652 C650 1.380 . S
C652 C653 1.357 1_545 S
C653 C652 1.357 1_565 S
C653 C655 1.433 . S
C654 C650 1.350 1_565 S
C654 C651 1.463 . S
C654 N658 1.427 . S
C655 H645 0.929 . S
C655 C653 1.433 . S
C655 N658 1.384 . S
C656 H647 0.929 . S
C656 C648 1.378 . S
C656 C651 1.350 . S
C657 H644 0.929 . S
C657 C649 1.433 1_545 S
C657 N659 1.384 . S
N658 C654 1.427 . S
N658 C655 1.384 . S
N659 C651 1.427 1_545 S
N659 C657 1.384 . S
H660 C666 0.930 . S
H661 C670 0.930 . S
H662 C675 0.929 . S
H663 C673 0.929 . S
H664 C668 0.929 . S
H665 C674 0.929 . S
C666 H660 0.930 . S
C666 C667 1.367 . S
C666 C674 1.378 . S
C667 C666 1.367 . S
C667 C675 1.433 . S
C668 H664 0.929 . S
C668 C670 1.378 . S
C668 C672 1.350 . S
C669 C672 1.463 . S
C669 C674 1.350 . S
C669 N677 1.427 . S
C670 H661 0.930 . S
C670 C668 1.378 . S
C670 C671 1.367 . S
C671 C670 1.367 . S
C671 C673 1.433 . S
C672 C668 1.350 . S
C672 C669 1.463 . S
C672 N676 1.427 . S
C673 H663 0.929 . S
C673 C671 1.433 . S
C673 N676 1.384 . S
C674 H665 0.929 . S
C674 C666 1.378 . S
C674 C669 1.350 . S
C675 H662 0.929 . S
C675 C667 1.433 . S
C675 N677 1.384 . S
N676 C672 1.427 . S
N676 C673 1.384 . S
N677 C669 1.427 . S
N677 C675 1.384 . S
H678 C684 0.930 . S
H679 C688 0.930 . S
H680 C693 0.929 . S
H681 C691 0.929 . S
H682 C686 0.929 . S
H683 C692 0.929 . S
C684 H678 0.930 . S
C684 C685 1.367 . S
C684 C692 1.378 . S
C685 C684 1.367 . S
C685 C693 1.433 . S
C686 H682 0.929 . S
C686 C688 1.378 . S
C686 C690 1.350 . S
C687 C690 1.463 . S
C687 C692 1.350 . S
C687 N695 1.427 . S
C688 H679 0.930 . S
C688 C686 1.378 . S
C688 C689 1.367 . S
C689 C688 1.367 . S
C689 C691 1.433 . S
C690 C686 1.350 . S
C690 C687 1.463 . S
C690 N694 1.427 . S
C691 H681 0.929 . S
C691 C689 1.433 . S
C691 N694 1.384 . S
C692 H683 0.929 . S
C692 C684 1.378 . S
C692 C687 1.350 . S
C693 H680 0.929 . S
C693 C685 1.433 . S
C693 N695 1.384 . S
N694 C690 1.427 . S
N694 C691 1.384 . S
N695 C687 1.427 . S
N695 C693 1.384 . S
C271 C82 1.680 . S
C275 C113 1.943 1_545 S
C293 C153 1.954 . S
C289 C95 1.660 . S
C311 C193 1.958 . S
C307 C56 1.682 . S
C329 C233 1.950 1_455 S
C325 C69 1.668 . S
C347 C122 1.946 1_565 S
C343 C30 1.668 1_565 S
C361 C43 1.690 . S
C365 C162 1.955 . S
C379 C4 1.692 . S
C383 C202 1.957 . S
C397 C17 1.669 1_655 S
C401 C242 1.954 1_655 S
C419 C119 0.514 . S
C415 C74 0.542 . S
C437 C159 0.503 . S
C433 C87 0.528 . S
C455 C199 0.519 . S
C451 C100 0.547 . S
C469 C61 0.514 . S
C473 C239 0.497 . S
C487 C22 0.550 1_655 S
C491 C110 0.524 . S
C509 C150 0.538 . S
C505 C35 0.543 1_565 S
C527 C190 0.540 . S
C523 C48 0.548 . S
C541 C9 0.546 . S
C545 C230 0.538 . S
C559 C73 2.049 . S
C563 C123 2.272 . S
C577 C86 2.023 . S
C581 C163 2.257 . S
C599 C203 2.240 . S
C595 C99 2.013 . S
C617 C243 2.262 . S
C613 C60 2.020 . S
C631 C21 2.053 1_655 S
C635 C114 2.283 . S
C653 C154 2.252 . S
C649 C34 2.015 1_565 S
C671 C194 2.241 . S
C667 C47 2.007 . S
C685 C8 2.036 . S
C689 C234 2.273 . S
