# Generated by pormake.
# Topology eea, (3,6)-cn, num edge types: 1
# Building blocks:
#     Node 0, Type 0, BuildingBlock: CUQRIR_clean_linker_1, # of connection points: 3
#     Node 1, Type 0, BuildingBlock: CUQRIR_clean_linker_1, # of connection points: 3
#     Node 2, Type 0, BuildingBlock: CUQRIR_clean_linker_1, # of connection points: 3
#     Node 3, Type 0, BuildingBlock: CUQRIR_clean_linker_1, # of connection points: 3
#     Node 4, Type 0, BuildingBlock: CUQRIR_clean_linker_1, # of connection points: 3
#     Node 5, Type 0, BuildingBlock: CUQRIR_clean_linker_1, # of connection points: 3
#     Node 6, Type 0, BuildingBlock: CUQRIR_clean_linker_1, # of connection points: 3
#     Node 7, Type 0, BuildingBlock: CUQRIR_clean_linker_1, # of connection points: 3
#     Node 8, Type 0, BuildingBlock: CUQRIR_clean_linker_1, # of connection points: 3
#     Node 9, Type 0, BuildingBlock: CUQRIR_clean_linker_1, # of connection points: 3
#     Node 10, Type 0, BuildingBlock: CUQRIR_clean_linker_1, # of connection points: 3
#     Node 11, Type 0, BuildingBlock: CUQRIR_clean_linker_1, # of connection points: 3
#     Node 12, Type 0, BuildingBlock: CUQRIR_clean_linker_1, # of connection points: 3
#     Node 13, Type 0, BuildingBlock: CUQRIR_clean_linker_1, # of connection points: 3
#     Node 14, Type 0, BuildingBlock: CUQRIR_clean_linker_1, # of connection points: 3
#     Node 15, Type 0, BuildingBlock: CUQRIR_clean_linker_1, # of connection points: 3
#     Node 16, Type 0, BuildingBlock: CUQRIR_clean_linker_1, # of connection points: 3
#     Node 17, Type 0, BuildingBlock: CUQRIR_clean_linker_1, # of connection points: 3
#     Node 18, Type 1, BuildingBlock: HISSIN_clean_sbu_0, # of connection points: 6
#     Node 19, Type 1, BuildingBlock: HISSIN_clean_sbu_0, # of connection points: 6
#     Node 20, Type 1, BuildingBlock: HISSIN_clean_sbu_0, # of connection points: 6
#     Node 21, Type 1, BuildingBlock: HISSIN_clean_sbu_0, # of connection points: 6
#     Node 22, Type 1, BuildingBlock: HISSIN_clean_sbu_0, # of connection points: 6
#     Node 23, Type 1, BuildingBlock: HISSIN_clean_sbu_0, # of connection points: 6
#     Node 24, Type 1, BuildingBlock: HISSIN_clean_sbu_0, # of connection points: 6
#     Node 25, Type 1, BuildingBlock: HISSIN_clean_sbu_0, # of connection points: 6
#     Node 26, Type 1, BuildingBlock: HISSIN_clean_sbu_0, # of connection points: 6
#     Edge 27, Type (0, 1), None
#     Edge 28, Type (0, 1), None
#     Edge 29, Type (0, 1), None
#     Edge 30, Type (0, 1), None
#     Edge 31, Type (0, 1), None
#     Edge 32, Type (0, 1), None
#     Edge 33, Type (0, 1), None
#     Edge 34, Type (0, 1), None
#     Edge 35, Type (0, 1), None
#     Edge 36, Type (0, 1), None
#     Edge 37, Type (0, 1), None
#     Edge 38, Type (0, 1), None
#     Edge 39, Type (0, 1), None
#     Edge 40, Type (0, 1), None
#     Edge 41, Type (0, 1), None
#     Edge 42, Type (0, 1), None
#     Edge 43, Type (0, 1), None
#     Edge 44, Type (0, 1), None
#     Edge 45, Type (0, 1), None
#     Edge 46, Type (0, 1), None
#     Edge 47, Type (0, 1), None
#     Edge 48, Type (0, 1), None
#     Edge 49, Type (0, 1), None
#     Edge 50, Type (0, 1), None
#     Edge 51, Type (0, 1), None
#     Edge 52, Type (0, 1), None
#     Edge 53, Type (0, 1), None
#     Edge 54, Type (0, 1), None
#     Edge 55, Type (0, 1), None
#     Edge 56, Type (0, 1), None
#     Edge 57, Type (0, 1), None
#     Edge 58, Type (0, 1), None
#     Edge 59, Type (0, 1), None
#     Edge 60, Type (0, 1), None
#     Edge 61, Type (0, 1), None
#     Edge 62, Type (0, 1), None
#     Edge 63, Type (0, 1), None
#     Edge 64, Type (0, 1), None
#     Edge 65, Type (0, 1), None
#     Edge 66, Type (0, 1), None
#     Edge 67, Type (0, 1), None
#     Edge 68, Type (0, 1), None
#     Edge 69, Type (0, 1), None
#     Edge 70, Type (0, 1), None
#     Edge 71, Type (0, 1), None
#     Edge 72, Type (0, 1), None
#     Edge 73, Type (0, 1), None
#     Edge 74, Type (0, 1), None
#     Edge 75, Type (0, 1), None
#     Edge 76, Type (0, 1), None
#     Edge 77, Type (0, 1), None
#     Edge 78, Type (0, 1), None
#     Edge 79, Type (0, 1), None
#     Edge 80, Type (0, 1), None
# Relax obj value: 0.108
# Max RMSD: 0.333
# Mean RMSD: 0.246
data_MOF--net-eea--node1-HISSIN_clean_sbu_0--node2-CUQRIR_clean_linker_1--edge1-none
_symmetry_space_group_name_H-M    P1
_symmetry_Int_Tables_number       1
_symmetry_cell_setting            triclinic
loop_
_symmetry_equiv_pos_as_xyz
'x, y, z'
_cell_length_a     19.962251
_cell_length_b     20.19566
_cell_length_c     32.958013
_cell_angle_alpha  83.719396
_cell_angle_beta   90.587183
_cell_angle_gamma 119.82455
loop_
_atom_site_label
_atom_site_type_symbol
_atom_site_fract_x
_atom_site_fract_y
_atom_site_fract_z
_atom_type_partial_charge
C0 C 0.14169 0.07146 0.42138 0.0
N1 N 0.16547 0.13343 0.44243 0.0
N2 N 0.14837 0.01442 0.44399 0.0
C3 C 0.12399 0.07129 0.37656 0.0
C4 C 0.17986 0.04534 0.47876 0.0
N5 N 0.19043 0.11714 0.47763 0.0
C6 C 0.20395 0.00703 0.51329 0.0
H7 H 0.06045 0.03885 0.37364 0.0
H8 H 0.15075 0.04443 0.36026 0.0
H9 H 0.14822 0.12985 0.36022 0.0
H10 H 0.24652 -0.00707 0.50131 0.0
H11 H 0.15266 0.95277 0.52665 0.0
H12 H 0.23087 0.04341 0.53806 0.0
C13 C 0.86838 0.09252 0.42004 0.0
N14 N 0.91198 0.14856 0.44399 0.0
N15 N 0.80518 0.03448 0.44185 0.0
C16 C 0.89519 0.08698 0.37833 0.0
C17 C 0.81187 0.05667 0.47975 0.0
N18 N 0.87655 0.12589 0.48123 0.0
C19 C 0.75003 0.0149 0.51398 0.0
H20 H 0.86299 0.0284 0.36911 0.0
H21 H 0.95678 0.10217 0.37821 0.0
H22 H 0.8892 0.12763 0.35513 0.0
H23 H 0.75562 0.96635 0.52936 0.0
H24 H 0.69159 -0.00877 0.50171 0.0
H25 H 0.75409 0.0521 0.53728 0.0
C26 C 0.8416 0.7726 0.39998 0.0
N27 N 0.88214 0.74922 0.4254 0.0
N28 N 0.76974 0.74698 0.41692 0.0
C29 C 0.87204 0.82062 0.35891 0.0
C30 C 0.76591 0.70157 0.45137 0.0
N31 N 0.83483 0.70631 0.45763 0.0
C32 C 0.69736 0.65768 0.48179 0.0
H33 H 0.919 0.87922 0.36335 0.0
H34 H 0.8266 0.82437 0.34104 0.0
H35 H 0.89591 0.7944 0.33992 0.0
H36 H 0.64281 0.62695 0.46597 0.0
H37 H 0.69432 0.69869 0.50036 0.0
H38 H 0.70232 0.61388 0.50288 0.0
C39 C 0.05687 0.20174 0.7511 0.0
N40 N 0.11974 0.22446 0.72555 0.0
N41 N 0.01001 0.22697 0.73399 0.0
C42 C 0.0409 0.15464 0.79243 0.0
C43 C 0.05024 0.27138 0.69919 0.0
N44 N 0.11415 0.26657 0.69309 0.0
C45 C 0.02471 0.31475 0.66852 0.0
H46 H 0.02859 0.09583 0.78837 0.0
H47 H -0.00743 0.15134 0.81034 0.0
H48 H 0.09208 0.1813 0.81117 0.0
H49 H 0.00229 0.34629 0.68409 0.0
H50 H -0.0208 0.27324 0.65042 0.0
H51 H 0.0728 0.35772 0.64702 0.0
C52 C 0.76477 0.88267 0.73181 0.0
N53 N 0.75218 0.82707 0.70774 0.0
N54 N 0.75824 0.94023 0.71009 0.0
C55 C 0.79834 0.8883 0.77357 0.0
C56 C 0.74185 0.91814 0.67212 0.0
N57 N 0.73816 0.84959 0.67056 0.0
C58 C 0.72028 0.95927 0.63784 0.0
H59 H 0.82569 0.94704 0.78259 0.0
H60 H 0.84431 0.87263 0.77394 0.0
H61 H 0.75198 0.84806 0.79675 0.0
H62 H 0.77382 0.00948 0.62318 0.0
H63 H 0.68372 0.98048 0.65001 0.0
H64 H 0.68831 0.92241 0.61399 0.0
C65 C 0.05863 0.90199 0.72926 0.0
N66 N 0.01988 0.83982 0.70832 0.0
N67 N 0.12139 0.95944 0.70653 0.0
C68 C 0.04307 0.90175 0.77421 0.0
C69 C 0.12113 0.92851 0.67186 0.0
N70 N 0.06003 0.85631 0.67306 0.0
C71 C 0.18281 0.96722 0.63745 0.0
H72 H 0.01101 0.93286 0.77747 0.0
H73 H 0.09765 0.92973 0.79023 0.0
H74 H 0.01024 0.84301 0.79057 0.0
H75 H 0.24005 0.98218 0.64961 0.0
H76 H 0.18499 0.02106 0.62389 0.0
H77 H 0.17314 0.93082 0.6128 0.0
C78 C 0.80836 0.40479 0.75472 0.0
N79 N 0.83214 0.46677 0.77577 0.0
N80 N 0.81504 0.34775 0.77733 0.0
C81 C 0.79066 0.40462 0.70989 0.0
C82 C 0.84653 0.37868 0.81209 0.0
N83 N 0.8571 0.45047 0.81097 0.0
C84 C 0.87061 0.34036 0.84662 0.0
H85 H 0.72712 0.37218 0.70697 0.0
H86 H 0.81742 0.37777 0.69359 0.0
H87 H 0.81489 0.46318 0.69355 0.0
H88 H 0.91318 0.32626 0.83464 0.0
H89 H 0.81932 0.2861 0.85999 0.0
H90 H 0.89754 0.37674 0.87139 0.0
C91 C 0.53505 0.42586 0.75337 0.0
N92 N 0.57865 0.4819 0.77732 0.0
N93 N 0.47184 0.36782 0.77518 0.0
C94 C 0.56186 0.42031 0.71167 0.0
C95 C 0.47854 0.39001 0.81308 0.0
N96 N 0.54321 0.45922 0.81456 0.0
C97 C 0.41669 0.34823 0.84732 0.0
H98 H 0.52965 0.36174 0.70244 0.0
H99 H 0.62344 0.43551 0.71154 0.0
H100 H 0.55587 0.46097 0.68847 0.0
H101 H 0.42229 0.29968 0.8627 0.0
H102 H 0.35826 0.32457 0.83504 0.0
H103 H 0.42076 0.38543 0.87061 0.0
C104 C 0.50826 0.10593 0.73332 0.0
N105 N 0.54881 0.08256 0.75874 0.0
N106 N 0.43641 0.08032 0.75025 0.0
C107 C 0.53871 0.15395 0.69224 0.0
C108 C 0.43258 0.03491 0.78471 0.0
N109 N 0.5015 0.03965 0.79096 0.0
C110 C 0.36402 -0.00899 0.81512 0.0
H111 H 0.58566 0.21256 0.69669 0.0
H112 H 0.49327 0.1577 0.67438 0.0
H113 H 0.56258 0.12774 0.67326 0.0
H114 H 0.30948 0.96028 0.79931 0.0
H115 H 0.36099 0.03203 0.8337 0.0
H116 H 0.36899 0.94721 0.83621 0.0
C117 C 0.72354 0.53508 0.08443 0.0
N118 N 0.78641 0.55779 1.05888 0.0
N119 N 0.67668 0.56031 1.06732 0.0
C120 C 0.70757 0.48797 0.12576 0.0
C121 C 0.7169 0.60471 1.03252 0.0
N122 N 0.78082 0.59991 1.02642 0.0
C123 C 0.69138 0.64808 1.00185 0.0
H124 H 0.69526 0.42917 0.1217 0.0
H125 H 0.65924 0.48467 0.14367 0.0
H126 H 0.75875 0.51463 0.14451 0.0
H127 H 0.66896 0.67963 1.01742 0.0
H128 H 0.64587 0.60658 0.98375 0.0
H129 H 0.73947 0.69105 0.98035 0.0
C130 C 0.43144 0.21601 1.06514 0.0
N131 N 0.41885 0.16041 1.04108 0.0
N132 N 0.4249 0.27357 1.04343 0.0
C133 C 0.46501 0.22164 0.1069 0.0
C134 C 0.40852 0.25148 1.00546 0.0
N135 N 0.40483 0.18292 1.00389 0.0
C136 C 0.38695 0.29261 0.97118 0.0
H137 H 0.49235 0.28037 0.11592 0.0
H138 H 0.51098 0.20597 0.10728 0.0
H139 H 0.41864 0.18139 0.13009 0.0
H140 H 0.44049 0.34282 0.95651 0.0
H141 H 0.35039 0.31382 0.98334 0.0
H142 H 0.35497 0.25575 0.94732 0.0
C143 C 0.72529 0.23532 1.06259 0.0
N144 N 0.68655 0.17315 1.04165 0.0
N145 N 0.78805 0.29278 1.03986 0.0
C146 C 0.70974 0.23509 0.10755 0.0
C147 C 0.78779 0.26185 1.00519 0.0
N148 N 0.72669 0.18964 1.0064 0.0
C149 C 0.84948 0.30056 0.97078 0.0
H150 H 0.67767 0.26619 0.1108 0.0
H151 H 0.76432 0.26306 0.12357 0.0
H152 H 0.6769 0.17635 0.1239 0.0
H153 H 0.90672 0.31551 0.98294 0.0
H154 H 0.85166 0.35439 0.95722 0.0
H155 H 0.8398 0.26415 0.94613 0.0
C156 C 0.47503 0.73812 0.08805 0.0
N157 N 0.49881 0.8001 0.1091 0.0
N158 N 0.48171 0.68109 0.11066 0.0
C159 C 0.45733 0.73796 1.04323 0.0
C160 C 0.5132 0.71201 0.14543 0.0
N161 N 0.52377 0.78381 0.1443 0.0
C162 C 0.53728 0.6737 0.17995 0.0
H163 H 0.39379 0.70551 1.04031 0.0
H164 H 0.48409 0.7111 1.02693 0.0
H165 H 0.48155 0.79652 1.02688 0.0
H166 H 0.57985 0.6596 0.16797 0.0
H167 H 0.48599 0.61943 0.19332 0.0
H168 H 0.56421 0.71008 0.20472 0.0
C169 C 0.20171 0.75919 0.08671 0.0
N170 N 0.24532 0.81523 0.11066 0.0
N171 N 0.13851 0.70115 0.10852 0.0
C172 C 0.22853 0.75364 1.045 0.0
C173 C 0.1452 0.72334 0.14642 0.0
N174 N 0.20988 0.79256 0.14789 0.0
C175 C 0.08336 0.68156 0.18065 0.0
H176 H 0.19632 0.69507 1.03578 0.0
H177 H 0.29011 0.76884 1.04488 0.0
H178 H 0.22254 0.7943 1.0218 0.0
H179 H 0.08895 0.63302 0.19603 0.0
H180 H 0.02492 0.6579 0.16837 0.0
H181 H 0.08743 0.71877 0.20394 0.0
C182 C 0.17493 0.43927 1.06665 0.0
N183 N 0.21547 0.41589 0.09207 0.0
N184 N 0.10308 0.41365 0.08358 0.0
C185 C 0.20538 0.48729 1.02557 0.0
C186 C 0.09924 0.36824 0.11804 0.0
N187 N 0.16817 0.37298 0.12429 0.0
C188 C 0.03069 0.32435 0.14846 0.0
H189 H 0.25233 0.54589 1.03002 0.0
H190 H 0.15994 0.49104 1.00771 0.0
H191 H 0.22925 0.46107 1.00659 0.0
H192 H -0.02385 0.29362 0.13264 0.0
H193 H 0.02765 0.36536 0.16703 0.0
H194 H 0.03565 0.28055 0.16954 0.0
C195 C 0.39021 0.86841 0.41776 0.0
N196 N 0.45307 0.89113 0.39221 0.0
N197 N 0.34335 0.89364 0.40066 0.0
C198 C 0.37423 0.8213 0.45909 0.0
C199 C 0.38357 0.93804 0.36585 0.0
N200 N 0.44749 0.93324 0.35976 0.0
C201 C 0.35805 0.98142 0.33518 0.0
H202 H 0.36193 0.7625 0.45503 0.0
H203 H 0.32591 0.81801 0.477 0.0
H204 H 0.42542 0.84796 0.47784 0.0
H205 H 0.33562 0.01296 0.35075 0.0
H206 H 0.31254 0.93991 0.31708 0.0
H207 H 0.40613 0.02438 0.31368 0.0
C208 C 0.09811 0.54934 0.39848 0.0
N209 N 0.08551 0.49374 0.37441 0.0
N210 N 0.09157 0.6069 0.37676 0.0
C211 C 0.13168 0.55497 0.44023 0.0
C212 C 0.07519 0.58481 0.33879 0.0
N213 N 0.0715 0.51625 0.33722 0.0
C214 C 0.05361 0.62594 0.30451 0.0
H215 H 0.15902 0.61371 0.44926 0.0
H216 H 0.17764 0.5393 0.44061 0.0
H217 H 0.08531 0.51473 0.46342 0.0
H218 H 0.10715 0.67615 0.28984 0.0
H219 H 0.01706 0.64715 0.31668 0.0
H220 H 0.02164 0.58908 0.28065 0.0
C221 C 0.39196 0.56865 0.39593 0.0
N222 N 0.35322 0.50648 0.37498 0.0
N223 N 0.45472 0.62611 0.3732 0.0
C224 C 0.37641 0.56842 0.44088 0.0
C225 C 0.45446 0.59518 0.33852 0.0
N226 N 0.39336 0.52298 0.33973 0.0
C227 C 0.51615 0.63389 0.30411 0.0
H228 H 0.34434 0.59952 0.44413 0.0
H229 H 0.43099 0.59639 0.4569 0.0
H230 H 0.34357 0.50968 0.45723 0.0
H231 H 0.57338 0.64885 0.31627 0.0
H232 H 0.51832 0.68773 0.29056 0.0
H233 H 0.50647 0.59748 0.27946 0.0
Eu234 Eu 0.45985 0.96469 1.02867 0.0
Eu235 Eu 0.48447 0.00986 0.12248 0.0
C236 C 0.42965 0.09889 1.05131 0.0
C237 C 0.48779 0.96183 0.91382 0.0
C238 C 0.51168 0.03948 0.90204 0.0
C239 C 0.5064 0.94679 0.84338 0.0
C240 C 0.5292 0.06944 0.86087 0.0
C241 C 0.48937 0.91682 0.88468 0.0
C242 C 0.52189 0.02192 0.83101 0.0
C243 C 0.45472 0.92537 0.95525 0.0
O244 O 0.3652 0.90657 0.12949 0.0
O245 O 0.34039 0.89949 1.06117 0.0
C246 C 0.31775 0.87669 0.10033 0.0
O247 O 0.4469 0.86216 0.06875 0.0
O248 O 0.45646 0.03644 0.17999 0.0
O249 O 0.56883 0.04711 0.16972 0.0
O250 O 0.52542 0.92397 0.11814 0.0
C251 C 0.49173 0.86374 0.09809 0.0
O252 O 0.58781 0.04931 1.03278 0.0
O253 O 0.57388 0.11154 0.08216 0.0
O254 O 0.43011 0.07566 0.0904 0.0
O255 O 0.5029 0.92445 0.98196 0.0
O256 O 0.40513 0.94178 0.97038 0.0
O257 O 0.44585 0.06894 1.0221 0.0
C258 C 0.51626 0.01279 0.23742 0.0
C259 C 0.46087 0.93539 0.24855 0.0
C260 C 0.5466 0.02692 0.30858 0.0
C261 C 0.4461 0.90509 0.28969 0.0
C262 C 0.56181 0.05724 0.26733 0.0
C263 C 0.48582 0.95199 0.32008 0.0
C264 C 0.52172 0.04969 0.19576 0.0
C265 C 0.61586 0.10956 1.05279 0.0
H266 H 0.51176 0.0754 0.9242 0.0
H267 H 0.49888 0.90897 0.82072 0.0
H268 H 0.53968 0.12711 0.85172 0.0
H269 H 0.47177 0.85689 0.89339 0.0
H270 H 0.42564 0.90002 0.22579 0.0
H271 H 0.57647 0.0642 0.3317 0.0
H272 H 0.39801 0.84762 0.29819 0.0
H273 H 0.60519 0.11702 0.25911 0.0
Eu274 Eu -0.00981 0.53549 1.02301 0.0
Eu275 Eu 0.92915 0.46507 0.1209 0.0
C276 C 0.84127 0.3638 1.05004 0.0
C277 C -0.01853 0.56232 0.90897 0.0
C278 C 0.90085 0.51507 0.91364 0.0
C279 C -0.02501 0.55247 0.83623 0.0
C280 C 0.85786 0.48495 0.87995 0.0
C281 C 0.01804 0.58323 0.86991 0.0
C282 C 0.8952 0.50091 0.8414 0.0
C283 C 0.02751 0.58205 0.94524 0.0
O284 O -0.01363 0.40681 0.09494 0.0
O285 O 0.07591 0.50548 1.05137 0.0
C286 C 0.05367 0.44107 0.07517 0.0
O287 O 0.06353 0.63576 1.05706 0.0
O288 O 0.90644 0.37517 0.17131 0.0
O289 O 0.89912 0.47458 0.18274 0.0
O290 O 0.04249 0.57462 0.12252 0.0
C291 C 0.08033 0.63566 0.09563 0.0
O292 O 0.88583 0.54745 1.03162 0.0
O293 O 0.85396 0.51448 0.10058 0.0
O294 O 0.83222 0.38489 0.08494 0.0
O295 O 0.01184 0.61938 0.96987 0.0
O296 O 0.03413 0.52605 0.96489 0.0
O297 O 0.90191 0.40907 1.02505 0.0
C298 C 0.94751 0.42298 0.23513 0.0
C299 C 0.02859 0.46777 0.23119 0.0
C300 C 0.95475 0.41746 0.30913 0.0
C301 C 0.07191 0.49043 0.26596 0.0
C302 C 0.91136 0.39506 0.27441 0.0
C303 C 0.03483 0.46865 0.30511 0.0
C304 C 0.9 0.41319 0.19905 0.0
C305 C 0.84356 0.53962 1.06392 0.0
H306 H 0.87188 0.49775 0.94371 0.0
H307 H 0.00458 0.56387 0.80676 0.0
H308 H 0.79662 0.44389 0.88448 0.0
H309 H 0.08026 0.61936 0.86586 0.0
H310 H 0.0578 0.4898 0.20118 0.0
H311 H 0.92486 0.40137 0.33888 0.0
H312 H 0.13331 0.53118 0.26208 0.0
H313 H 0.84897 0.36034 0.27818 0.0
Eu314 Eu 0.44327 0.43934 0.12846 0.0
Eu315 Eu 0.45007 0.5089 1.03002 0.0
C316 C 0.4644 0.61044 0.1004 0.0
C317 C 0.40838 0.41306 0.24245 0.0
C318 C 0.37363 0.45889 0.23718 0.0
C319 C 0.41039 0.42188 0.3153 0.0
C320 C 0.35945 0.48788 0.27063 0.0
C321 C 0.42398 0.39224 0.28186 0.0
C322 C 0.38094 0.47228 0.30958 0.0
C323 C 0.43572 0.39438 0.20655 0.0
O324 O 0.56662 0.5675 1.05617 0.0
O325 O 0.55862 0.46966 0.10042 0.0
C326 C 0.60017 0.53344 0.07608 0.0
O327 O 0.41774 0.33909 0.095 0.0
O328 O 0.5157 0.5986 0.97941 0.0
O329 O 0.40994 0.49715 0.96784 0.0
O330 O 0.45265 0.39903 1.02915 0.0
C331 C 0.4321 0.33873 1.05629 0.0
O332 O 0.32544 0.42407 0.11919 0.0
O333 O 0.32605 0.4613 1.05058 0.0
O334 O 0.43417 0.58943 1.06525 0.0
O335 O 0.38289 0.35546 0.18171 0.0
O336 O 0.49755 0.45142 0.18705 0.0
O337 O 0.48047 0.56555 0.12564 0.0
C338 C 0.50996 0.55026 0.91594 0.0
C339 C 0.54733 0.50662 0.92049 0.0
C340 C 0.52399 0.55698 0.84197 0.0
C341 C 0.56929 0.48524 0.88603 0.0
C342 C 0.50184 0.57822 0.87638 0.0
C343 C 0.55404 0.50689 0.8465 0.0
C344 C 0.47151 0.55921 0.95158 0.0
C345 C 0.2908 0.43407 0.08706 0.0
H346 H 0.36196 0.47613 0.20686 0.0
H347 H 0.42878 0.4108 0.34506 0.0
H348 H 0.33841 0.52812 0.26564 0.0
H349 H 0.45105 0.35712 0.28641 0.0
H350 H 0.55447 0.48449 0.95069 0.0
H351 H 0.51007 0.57293 0.81197 0.0
H352 H 0.59072 0.44526 0.89037 0.0
H353 H 0.4734 0.6121 0.87208 0.0
Eu354 Eu 0.12652 0.29802 0.362 0.0
Eu355 Eu 0.15113 0.34319 0.45582 0.0
C356 C 0.09631 0.43222 0.38465 0.0
C357 C 0.15446 0.29516 0.24715 0.0
C358 C 0.17834 0.37281 0.23538 0.0
C359 C 0.17306 0.28013 0.17672 0.0
C360 C 0.19587 0.40278 0.19421 0.0
C361 C 0.15604 0.25016 0.21801 0.0
C362 C 0.18855 0.35525 0.16434 0.0
C363 C 0.12138 0.25871 0.28858 0.0
O364 O 0.03187 0.23991 0.46282 0.0
O365 O 0.00705 0.23282 0.3945 0.0
C366 C -0.01559 0.21002 0.43366 0.0
O367 O 0.11357 0.19549 0.40208 0.0
O368 O 0.12312 0.36977 0.51332 0.0
O369 O 0.23549 0.38044 0.50305 0.0
O370 O 0.19209 0.2573 0.45147 0.0
C371 C 0.1584 0.19707 0.43143 0.0
O372 O 0.25448 0.38264 0.36611 0.0
O373 O 0.24055 0.44487 0.4155 0.0
O374 O 0.09678 0.40899 0.42373 0.0
O375 O 0.16957 0.25779 0.3153 0.0
O376 O 0.0718 0.27511 0.30371 0.0
O377 O 0.11252 0.40227 0.35544 0.0
C378 C 0.18293 0.34612 0.57075 0.0
C379 C 0.12753 0.26873 0.58188 0.0
C380 C 0.21326 0.36025 0.64192 0.0
C381 C 0.11277 0.23842 0.62302 0.0
C382 C 0.22848 0.39057 0.60067 0.0
C383 C 0.15248 0.28532 0.65341 0.0
C384 C 0.18839 0.38302 0.52909 0.0
C385 C 0.28253 0.4429 0.38613 0.0
H386 H 0.17843 0.40874 0.25753 0.0
H387 H 0.16555 0.24231 0.15405 0.0
H388 H 0.20634 0.46044 0.18506 0.0
H389 H 0.13844 0.19023 0.22673 0.0
H390 H 0.0923 0.23335 0.55912 0.0
H391 H 0.24314 0.39753 0.66503 0.0
H392 H 0.06468 0.18096 0.63153 0.0
H393 H 0.27185 0.45035 0.59245 0.0
Eu394 Eu 0.65686 0.86882 0.35634 0.0
Eu395 Eu 0.59582 0.7984 0.45424 0.0
C396 C 0.50794 0.69714 0.38338 0.0
C397 C 0.64813 0.89566 0.2423 0.0
C398 C 0.56752 0.8484 0.24697 0.0
C399 C 0.64165 0.88581 0.16956 0.0
C400 C 0.52453 0.81828 0.21328 0.0
C401 C 0.68471 0.91656 0.20324 0.0
C402 C 0.56186 0.83424 0.17474 0.0
C403 C 0.69417 0.91538 0.27858 0.0
O404 O 0.65303 0.74014 0.42827 0.0
O405 O 0.74258 0.83882 0.38471 0.0
C406 C 0.72033 0.7744 0.4085 0.0
O407 O 0.7302 0.96909 0.39039 0.0
O408 O 0.57311 0.7085 0.50464 0.0
O409 O 0.56578 0.80792 0.51608 0.0
O410 O 0.70915 0.90795 0.45585 0.0
C411 C 0.747 0.969 0.42897 0.0
O412 O 0.5525 0.88078 0.36495 0.0
O413 O 0.52063 0.84781 0.43392 0.0
O414 O 0.49889 0.71822 0.41827 0.0
O415 O 0.67851 0.95272 0.3032 0.0
O416 O 0.70079 0.85938 0.29823 0.0
O417 O 0.56857 0.7424 0.35838 0.0
C418 C 0.61417 0.75631 0.56846 0.0
C419 C 0.69525 0.8011 0.56452 0.0
C420 C 0.62141 0.75079 0.64246 0.0
C421 C 0.73857 0.82376 0.59929 0.0
C422 C 0.57802 0.7284 0.60774 0.0
C423 C 0.7015 0.80198 0.63845 0.0
C424 C 0.56667 0.74652 0.53238 0.0
C425 C 0.51023 0.87295 0.39725 0.0
H426 H 0.53855 0.83108 0.27705 0.0
H427 H 0.67125 0.8972 0.1401 0.0
H428 H 0.46328 0.77723 0.21781 0.0
H429 H 0.74693 0.95269 0.1992 0.0
H430 H 0.72447 0.82313 0.53451 0.0
H431 H 0.59152 0.7347 0.67222 0.0
H432 H 0.79997 0.86451 0.59542 0.0
H433 H 0.51563 0.69368 0.61151 0.0
Eu434 Eu 0.10993 0.77268 0.4618 0.0
Eu435 Eu 0.11673 0.84223 0.36336 0.0
C436 C 0.13106 0.94377 0.43374 0.0
C437 C 0.07504 0.74639 0.57578 0.0
C438 C 0.04029 0.79223 0.57051 0.0
C439 C 0.07705 0.75521 0.64864 0.0
C440 C 0.02612 0.82121 0.60397 0.0
C441 C 0.09064 0.72557 0.61519 0.0
C442 C 0.04761 0.80562 0.64291 0.0
C443 C 0.10239 0.72771 0.53989 0.0
O444 O 0.23328 0.90083 0.3895 0.0
O445 O 0.22529 0.803 0.43375 0.0
C446 C 0.26684 0.86677 0.40941 0.0
O447 O 0.08441 0.67242 0.42834 0.0
O448 O 0.18237 0.93193 0.31274 0.0
O449 O 0.0766 0.83048 0.30117 0.0
O450 O 0.11932 0.73236 0.36248 0.0
C451 C 0.09876 0.67207 0.38962 0.0
O452 O -0.00789 0.7574 0.45252 0.0
O453 O -0.00728 0.79463 0.38391 0.0
O454 O 0.10084 0.92277 0.39859 0.0
O455 O 0.04956 0.68879 0.51505 0.0
O456 O 0.16422 0.78475 0.52038 0.0
O457 O 0.14713 0.89888 0.45897 0.0
C458 C 0.17663 0.88359 0.24928 0.0
C459 C 0.214 0.83996 0.25383 0.0
C460 C 0.19066 0.89032 0.17531 0.0
C461 C 0.23596 0.81858 0.21937 0.0
C462 C 0.1685 0.91155 0.20972 0.0
C463 C 0.22071 0.84023 0.17983 0.0
C464 C 0.13817 0.89255 0.28491 0.0
C465 C 0.95746 0.7674 0.42039 0.0
H466 H 0.02862 0.80946 0.54019 0.0
H467 H 0.09545 0.74414 0.67839 0.0
H468 H 0.00508 0.86145 0.59897 0.0
H469 H 0.11771 0.69045 0.61974 0.0
H470 H 0.22113 0.81783 0.28402 0.0
H471 H 0.17674 0.90627 0.1453 0.0
H472 H 0.25739 0.77859 0.2237 0.0
H473 H 0.14007 0.94543 0.20541 0.0
Eu474 Eu 0.79319 0.63135 0.69533 0.0
Eu475 Eu 0.8178 0.67652 0.78915 0.0
C476 C 0.76298 0.76556 0.71798 0.0
C477 C 0.82113 0.62849 0.58048 0.0
C478 C 0.84501 0.70614 0.56871 0.0
C479 C 0.83973 0.61346 0.51005 0.0
C480 C 0.86254 0.73611 0.52754 0.0
C481 C 0.82271 0.58349 0.55135 0.0
C482 C 0.85522 0.68859 0.49768 0.0
C483 C 0.78805 0.59204 0.62192 0.0
O484 O 0.69853 0.57324 0.79615 0.0
O485 O 0.67372 0.56616 0.72784 0.0
C486 C 0.65108 0.54336 0.767 0.0
O487 O 0.78023 0.52882 0.73541 0.0
O488 O 0.78979 0.7031 0.84666 0.0
O489 O 0.90216 0.71377 0.83638 0.0
O490 O 0.85875 0.59064 0.78481 0.0
C491 C 0.82507 0.53041 0.76476 0.0
O492 O 0.92115 0.71598 0.69944 0.0
O493 O 0.90722 0.7782 0.74883 0.0
O494 O 0.76344 0.74233 0.75707 0.0
O495 O 0.83624 0.59112 0.64863 0.0
O496 O 0.73846 0.60844 0.63704 0.0
O497 O 0.77919 0.73561 0.68877 0.0
C498 C 0.8496 0.67945 0.90409 0.0
C499 C 0.7942 0.60206 0.91522 0.0
C500 C 0.87993 0.69358 0.97525 0.0
C501 C 0.77944 0.57176 0.95635 0.0
C502 C 0.89515 0.72391 0.934 0.0
C503 C 0.81915 0.61866 0.98674 0.0
C504 C 0.85506 0.71635 0.86242 0.0
C505 C 0.9492 0.77623 0.71946 0.0
H506 H 0.8451 0.74207 0.59087 0.0
H507 H 0.83221 0.57564 0.48739 0.0
H508 H 0.87301 0.79378 0.51839 0.0
H509 H 0.8051 0.52356 0.56006 0.0
H510 H 0.75897 0.56669 0.89245 0.0
H511 H 0.90981 0.73086 0.99836 0.0
H512 H 0.73135 0.51429 0.96486 0.0
H513 H 0.93852 0.78369 0.92578 0.0
Eu514 Eu 0.32352 0.20216 0.68968 0.0
Eu515 Eu 0.26249 0.13174 0.78757 0.0
C516 C 0.1746 0.03047 0.71671 0.0
C517 C 0.3148 0.22899 0.57564 0.0
C518 C 0.23418 0.18173 0.5803 0.0
C519 C 0.30832 0.21914 0.5029 0.0
C520 C 0.19119 0.15161 0.54661 0.0
C521 C 0.35137 0.2499 0.53657 0.0
C522 C 0.22853 0.16757 0.50807 0.0
C523 C 0.36084 0.24872 0.61191 0.0
O524 O 0.3197 0.07347 0.7616 0.0
O525 O 0.40925 0.17215 0.71804 0.0
C526 C 0.387 0.10773 0.74184 0.0
O527 O 0.39686 0.30242 0.72372 0.0
O528 O 0.23978 0.04183 0.83797 0.0
O529 O 0.23245 0.14125 0.84941 0.0
O530 O 0.37582 0.24129 0.78918 0.0
C531 C 0.41367 0.30233 0.7623 0.0
O532 O 0.21916 0.21412 0.69829 0.0
O533 O 0.18729 0.18115 0.76725 0.0
O534 O 0.16555 0.05155 0.7516 0.0
O535 O 0.34517 0.28605 0.63654 0.0
O536 O 0.36746 0.19271 0.63156 0.0
O537 O 0.23524 0.07574 0.69172 0.0
C538 C 0.28084 0.08964 0.9018 0.0
C539 C 0.36192 0.13444 0.89786 0.0
C540 C 0.28808 0.08412 0.97579 0.0
C541 C 0.40524 0.15709 0.93262 0.0
C542 C 0.24469 0.06173 0.94107 0.0
C543 C 0.36817 0.13532 0.97178 0.0
C544 C 0.23333 0.07986 0.86572 0.0
C545 C 0.1769 0.20629 0.73058 0.0
H546 H 0.20522 0.16441 0.61038 0.0
H547 H 0.33791 0.23053 0.47343 0.0
H548 H 0.12995 0.11056 0.55114 0.0
H549 H 0.4136 0.28603 0.53253 0.0
H550 H 0.39113 0.15646 0.86784 0.0
H551 H 0.25819 0.06804 1.00555 0.0
H552 H 0.46664 0.19784 0.92875 0.0
H553 H 0.1823 0.02701 0.94485 0.0
Eu554 Eu 0.7766 0.10601 0.79513 0.0
Eu555 Eu 0.7834 0.17557 0.69669 0.0
C556 C 0.79773 0.2771 0.76707 0.0
C557 C 0.74171 0.07972 0.90912 0.0
C558 C 0.70696 0.12556 0.90385 0.0
C559 C 0.74372 0.08854 0.98197 0.0
C560 C 0.69278 0.15454 0.9373 0.0
C561 C 0.75731 0.0589 0.94853 0.0
C562 C 0.71428 0.13895 0.97625 0.0
C563 C 0.76906 0.06105 0.87322 0.0
O564 O 0.89995 0.23416 0.72283 0.0
O565 O 0.89195 0.13633 0.76709 0.0
C566 C 0.9335 0.2001 0.74275 0.0
O567 O 0.75107 0.00575 0.76167 0.0
O568 O 0.84903 0.26526 0.64607 0.0
O569 O 0.74327 0.16381 0.63451 0.0
O570 O 0.78598 0.06569 0.69582 0.0
C571 C 0.76543 0.0054 0.72296 0.0
O572 O 0.65877 0.09073 0.78586 0.0
O573 O 0.65939 0.12797 0.71725 0.0
O574 O 0.76751 0.2561 0.73192 0.0
O575 O 0.71623 0.02212 0.84838 0.0
O576 O 0.83088 0.11808 0.85372 0.0
O577 O 0.8138 0.23221 0.79231 0.0
C578 C 0.84329 0.21692 0.58261 0.0
C579 C 0.88066 0.17329 0.58716 0.0
C580 C 0.85733 0.22365 0.50864 0.0
C581 C 0.90263 0.15191 0.5527 0.0
C582 C 0.83517 0.24489 0.54305 0.0
C583 C 0.88738 0.17356 0.51317 0.0
C584 C 0.80484 0.22588 0.61824 0.0
C585 C 0.62413 0.10074 0.75373 0.0
H586 H 0.69529 0.14279 0.87353 0.0
H587 H 0.76211 0.07747 1.01172 0.0
H588 H 0.67175 0.19479 0.93231 0.0
H589 H 0.78438 0.02379 0.95308 0.0
H590 H 0.8878 0.15116 0.61736 0.0
H591 H 0.84341 0.2396 0.47863 0.0
H592 H 0.92406 0.11192 0.55703 0.0
H593 H 0.80674 0.27876 0.53875 0.0
loop_
_geom_bond_atom_site_label_1
_geom_bond_atom_site_label_2
_geom_bond_distance
_geom_bond_site_symmetry_2
_ccdc_geom_bond_type
C0 N1 1.317 . S
C0 N2 1.348 . S
C0 C3 1.485 . S
N1 C0 1.317 . S
N1 N5 1.370 . S
N2 C0 1.348 . S
N2 C4 1.346 . S
C3 C0 1.485 . S
C3 H7 0.960 . S
C3 H8 0.961 . S
C3 H9 0.960 . S
C4 N2 1.346 . S
C4 N5 1.307 . S
C4 C6 1.486 . S
N5 N1 1.370 . S
N5 C4 1.307 . S
C6 C4 1.486 . S
C6 H10 0.960 . S
C6 H11 0.960 1_545 S
C6 H12 0.959 . S
H7 C3 0.960 . S
H8 C3 0.961 . S
H9 C3 0.960 . S
H10 C6 0.960 . S
H11 C6 0.960 1_565 S
H12 C6 0.959 . S
C13 N14 1.317 . S
C13 N15 1.348 . S
C13 C16 1.485 . S
N14 C13 1.317 . S
N14 N18 1.370 . S
N15 C13 1.348 . S
N15 C17 1.346 . S
C16 C13 1.485 . S
C16 H20 0.960 . S
C16 H21 0.961 . S
C16 H22 0.960 . S
C17 N15 1.346 . S
C17 N18 1.307 . S
C17 C19 1.486 . S
N18 N14 1.370 . S
N18 C17 1.307 . S
C19 C17 1.486 . S
C19 H23 0.960 1_545 S
C19 H24 0.960 . S
C19 H25 0.959 . S
H20 C16 0.960 . S
H21 C16 0.961 . S
H22 C16 0.960 . S
H23 C19 0.960 1_565 S
H24 C19 0.960 . S
H25 C19 0.959 . S
C26 N27 1.317 . S
C26 N28 1.348 . S
C26 C29 1.485 . S
N27 C26 1.317 . S
N27 N31 1.370 . S
N28 C26 1.348 . S
N28 C30 1.346 . S
C29 C26 1.485 . S
C29 H33 0.960 . S
C29 H34 0.961 . S
C29 H35 0.960 . S
C30 N28 1.346 . S
C30 N31 1.307 . S
C30 C32 1.486 . S
N31 N27 1.370 . S
N31 C30 1.307 . S
C32 C30 1.486 . S
C32 H36 0.960 . S
C32 H37 0.960 . S
C32 H38 0.959 . S
H33 C29 0.960 . S
H34 C29 0.961 . S
H35 C29 0.960 . S
H36 C32 0.960 . S
H37 C32 0.960 . S
H38 C32 0.959 . S
C39 N40 1.317 . S
C39 N41 1.348 1_455 S
C39 C42 1.485 . S
N40 C39 1.317 . S
N40 N44 1.370 . S
N41 C39 1.348 1_655 S
N41 C43 1.346 1_655 S
C42 C39 1.485 . S
C42 H46 0.960 . S
C42 H47 0.961 . S
C42 H48 0.960 . S
C43 N41 1.346 1_455 S
C43 N44 1.307 . S
C43 C45 1.486 1_455 S
N44 N40 1.370 . S
N44 C43 1.307 . S
C45 C43 1.486 1_655 S
C45 H49 0.960 . S
C45 H50 0.960 . S
C45 H51 0.959 . S
H46 C42 0.960 . S
H47 C42 0.961 . S
H48 C42 0.960 . S
H49 C45 0.960 . S
H50 C45 0.960 . S
H51 C45 0.959 . S
C52 N53 1.317 . S
C52 N54 1.348 . S
C52 C55 1.485 . S
N53 C52 1.317 . S
N53 N57 1.370 . S
N54 C52 1.348 . S
N54 C56 1.346 . S
C55 C52 1.485 . S
C55 H59 0.960 . S
C55 H60 0.961 . S
C55 H61 0.960 . S
C56 N54 1.346 . S
C56 N57 1.307 . S
C56 C58 1.486 . S
N57 N53 1.370 . S
N57 C56 1.307 . S
C58 C56 1.486 . S
C58 H62 0.960 1_565 S
C58 H63 0.960 . S
C58 H64 0.959 . S
H59 C55 0.960 . S
H60 C55 0.961 . S
H61 C55 0.960 . S
H62 C58 0.960 1_545 S
H63 C58 0.960 . S
H64 C58 0.959 . S
C65 N66 1.317 . S
C65 N67 1.348 . S
C65 C68 1.485 . S
N66 C65 1.317 . S
N66 N70 1.370 . S
N67 C65 1.348 . S
N67 C69 1.346 . S
C68 C65 1.485 . S
C68 H72 0.960 . S
C68 H73 0.961 . S
C68 H74 0.960 . S
C69 N67 1.346 . S
C69 N70 1.307 . S
C69 C71 1.486 . S
N70 N66 1.370 . S
N70 C69 1.307 . S
C71 C69 1.486 . S
C71 H75 0.960 . S
C71 H76 0.960 1_565 S
C71 H77 0.959 . S
H72 C68 0.960 . S
H73 C68 0.961 . S
H74 C68 0.960 . S
H75 C71 0.960 . S
H76 C71 0.960 1_545 S
H77 C71 0.959 . S
C78 N79 1.317 . S
C78 N80 1.348 . S
C78 C81 1.485 . S
N79 C78 1.317 . S
N79 N83 1.370 . S
N80 C78 1.348 . S
N80 C82 1.346 . S
C81 C78 1.485 . S
C81 H85 0.960 . S
C81 H86 0.961 . S
C81 H87 0.960 . S
C82 N80 1.346 . S
C82 N83 1.307 . S
C82 C84 1.486 . S
N83 N79 1.370 . S
N83 C82 1.307 . S
C84 C82 1.486 . S
C84 H88 0.960 1_655 S
C84 H89 0.960 . S
C84 H90 0.959 . S
H85 C81 0.960 . S
H86 C81 0.961 . S
H87 C81 0.960 . S
H88 C84 0.960 1_455 S
H89 C84 0.960 . S
H90 C84 0.959 . S
C91 N92 1.317 . S
C91 N93 1.348 . S
C91 C94 1.485 . S
N92 C91 1.317 . S
N92 N96 1.370 . S
N93 C91 1.348 . S
N93 C95 1.346 . S
C94 C91 1.485 . S
C94 H98 0.960 . S
C94 H99 0.961 . S
C94 H100 0.960 . S
C95 N93 1.346 . S
C95 N96 1.307 . S
C95 C97 1.486 . S
N96 N92 1.370 . S
N96 C95 1.307 . S
C97 C95 1.486 . S
C97 H101 0.960 . S
C97 H102 0.960 . S
C97 H103 0.959 . S
H98 C94 0.960 . S
H99 C94 0.961 . S
H100 C94 0.960 . S
H101 C97 0.960 . S
H102 C97 0.960 . S
H103 C97 0.959 . S
C104 N105 1.317 . S
C104 N106 1.348 . S
C104 C107 1.485 . S
N105 C104 1.317 . S
N105 N109 1.370 . S
N106 C104 1.348 . S
N106 C108 1.346 . S
C107 C104 1.485 . S
C107 H111 0.960 . S
C107 H112 0.961 . S
C107 H113 0.960 . S
C108 N106 1.346 . S
C108 N109 1.307 . S
C108 C110 1.486 . S
N109 N105 1.370 . S
N109 C108 1.307 . S
C110 C108 1.486 . S
C110 H114 0.960 . S
C110 H115 0.960 . S
C110 H116 0.959 . S
H111 C107 0.960 . S
H112 C107 0.961 . S
H113 C107 0.960 . S
H114 C110 0.960 . S
H115 C110 0.960 . S
H116 C110 0.959 . S
C117 N118 1.317 . S
C117 N119 1.348 . S
C117 C120 1.485 1_556 S
N118 C117 1.317 . S
N118 N122 1.370 . S
N119 C117 1.348 . S
N119 C121 1.346 . S
C120 C117 1.485 1_554 S
C120 H124 0.960 . S
C120 H125 0.961 . S
C120 H126 0.960 . S
C121 N119 1.346 . S
C121 N122 1.307 . S
C121 C123 1.486 . S
N122 N118 1.370 . S
N122 C121 1.307 . S
C123 C121 1.486 . S
C123 H127 0.960 . S
C123 H128 0.960 . S
C123 H129 0.959 . S
H124 C120 0.960 . S
H125 C120 0.961 . S
H126 C120 0.960 . S
H127 C123 0.960 . S
H128 C123 0.960 . S
H129 C123 0.959 . S
C130 N131 1.317 1_554 S
C130 N132 1.348 1_554 S
C130 C133 1.485 . S
N131 C130 1.317 1_556 S
N131 N135 1.370 . S
N132 C130 1.348 1_556 S
N132 C134 1.346 . S
C133 C130 1.485 . S
C133 H137 0.960 . S
C133 H138 0.961 . S
C133 H139 0.960 . S
C134 N132 1.346 . S
C134 N135 1.307 . S
C134 C136 1.486 . S
N135 N131 1.370 . S
N135 C134 1.307 . S
C136 C134 1.486 . S
C136 H140 0.960 . S
C136 H141 0.960 . S
C136 H142 0.959 . S
H137 C133 0.960 . S
H138 C133 0.961 . S
H139 C133 0.960 . S
H140 C136 0.960 . S
H141 C136 0.960 . S
H142 C136 0.959 . S
C143 N144 1.317 1_554 S
C143 N145 1.348 1_554 S
C143 C146 1.485 . S
N144 C143 1.317 1_556 S
N144 N148 1.370 . S
N145 C143 1.348 1_556 S
N145 C147 1.346 . S
C146 C143 1.485 . S
C146 H150 0.960 . S
C146 H151 0.961 . S
C146 H152 0.960 . S
C147 N145 1.346 . S
C147 N148 1.307 . S
C147 C149 1.486 . S
N148 N144 1.370 . S
N148 C147 1.307 . S
C149 C147 1.486 . S
C149 H153 0.960 . S
C149 H154 0.960 . S
C149 H155 0.959 . S
H150 C146 0.960 . S
H151 C146 0.961 . S
H152 C146 0.960 . S
H153 C149 0.960 . S
H154 C149 0.960 . S
H155 C149 0.959 . S
C156 N157 1.317 . S
C156 N158 1.348 . S
C156 C159 1.485 1_554 S
N157 C156 1.317 . S
N157 N161 1.370 . S
N158 C156 1.348 . S
N158 C160 1.346 . S
C159 C156 1.485 1_556 S
C159 H163 0.960 . S
C159 H164 0.961 . S
C159 H165 0.960 . S
C160 N158 1.346 . S
C160 N161 1.307 . S
C160 C162 1.486 . S
N161 N157 1.370 . S
N161 C160 1.307 . S
C162 C160 1.486 . S
C162 H166 0.960 . S
C162 H167 0.960 . S
C162 H168 0.959 . S
H163 C159 0.960 . S
H164 C159 0.961 . S
H165 C159 0.960 . S
H166 C162 0.960 . S
H167 C162 0.960 . S
H168 C162 0.959 . S
C169 N170 1.317 . S
C169 N171 1.348 . S
C169 C172 1.485 1_554 S
N170 C169 1.317 . S
N170 N174 1.370 . S
N171 C169 1.348 . S
N171 C173 1.346 . S
C172 C169 1.485 1_556 S
C172 H176 0.960 . S
C172 H177 0.961 . S
C172 H178 0.960 . S
C173 N171 1.346 . S
C173 N174 1.307 . S
C173 C175 1.486 . S
N174 N170 1.370 . S
N174 C173 1.307 . S
C175 C173 1.486 . S
C175 H179 0.960 . S
C175 H180 0.960 . S
C175 H181 0.959 . S
H176 C172 0.960 . S
H177 C172 0.961 . S
H178 C172 0.960 . S
H179 C175 0.960 . S
H180 C175 0.960 . S
H181 C175 0.959 . S
C182 N183 1.317 . S
C182 N184 1.348 . S
C182 C185 1.485 1_554 S
N183 C182 1.317 . S
N183 N187 1.370 . S
N184 C182 1.348 . S
N184 C186 1.346 . S
C185 C182 1.485 1_556 S
C185 H189 0.960 . S
C185 H190 0.961 . S
C185 H191 0.960 . S
C186 N184 1.346 . S
C186 N187 1.307 . S
C186 C188 1.486 . S
N187 N183 1.370 . S
N187 C186 1.307 . S
C188 C186 1.486 . S
C188 H192 0.960 . S
C188 H193 0.960 . S
C188 H194 0.959 . S
H189 C185 0.960 . S
H190 C185 0.961 . S
H191 C185 0.960 . S
H192 C188 0.960 . S
H193 C188 0.960 . S
H194 C188 0.959 . S
C195 N196 1.317 . S
C195 N197 1.348 . S
C195 C198 1.485 . S
N196 C195 1.317 . S
N196 N200 1.370 . S
N197 C195 1.348 . S
N197 C199 1.346 . S
C198 C195 1.485 . S
C198 H202 0.960 . S
C198 H203 0.961 . S
C198 H204 0.960 . S
C199 N197 1.346 . S
C199 N200 1.307 . S
C199 C201 1.486 . S
N200 N196 1.370 . S
N200 C199 1.307 . S
C201 C199 1.486 . S
C201 H205 0.960 . S
C201 H206 0.960 . S
C201 H207 0.959 . S
H202 C198 0.960 . S
H203 C198 0.961 . S
H204 C198 0.960 . S
H205 C201 0.960 . S
H206 C201 0.960 . S
H207 C201 0.959 . S
C208 N209 1.317 . S
C208 N210 1.348 . S
C208 C211 1.485 . S
N209 C208 1.317 . S
N209 N213 1.370 . S
N210 C208 1.348 . S
N210 C212 1.346 . S
C211 C208 1.485 . S
C211 H215 0.960 . S
C211 H216 0.961 . S
C211 H217 0.960 . S
C212 N210 1.346 . S
C212 N213 1.307 . S
C212 C214 1.486 . S
N213 N209 1.370 . S
N213 C212 1.307 . S
C214 C212 1.486 . S
C214 H218 0.960 . S
C214 H219 0.960 1_455 S
C214 H220 0.959 . S
H215 C211 0.960 . S
H216 C211 0.961 . S
H217 C211 0.960 . S
H218 C214 0.960 . S
H219 C214 0.960 1_655 S
H220 C214 0.959 . S
C221 N222 1.317 . S
C221 N223 1.348 . S
C221 C224 1.485 . S
N222 C221 1.317 . S
N222 N226 1.370 . S
N223 C221 1.348 . S
N223 C225 1.346 . S
C224 C221 1.485 . S
C224 H228 0.960 . S
C224 H229 0.961 . S
C224 H230 0.960 . S
C225 N223 1.346 . S
C225 N226 1.307 . S
C225 C227 1.486 . S
N226 N222 1.370 . S
N226 C225 1.307 . S
C227 C225 1.486 . S
C227 H231 0.960 . S
C227 H232 0.960 . S
C227 H233 0.959 . S
H228 C224 0.960 . S
H229 C224 0.961 . S
H230 C224 0.960 . S
H231 C227 0.960 . S
H232 C227 0.960 . S
H233 C227 0.959 . S
Eu234 C243 2.828 1_565 S
Eu234 O245 2.392 1_556 S
Eu234 O247 2.418 . S
Eu234 O252 2.373 1_565 S
Eu234 O255 2.488 . S
Eu234 O256 2.471 1_565 S
Eu234 O257 2.349 1_565 S
Eu235 O244 2.373 1_545 S
Eu235 O248 2.488 . S
Eu235 O249 2.471 1_545 S
Eu235 O250 2.349 1_545 S
Eu235 O253 2.392 . S
Eu235 O254 2.418 . S
Eu235 C264 2.828 1_545 S
C236 O254 1.244 . S
C236 O257 1.265 1_554 S
C237 C238 1.379 . S
C237 C241 1.373 1_545 S
C237 C243 1.505 . S
C238 C237 1.379 . S
C238 C240 1.369 . S
C238 H266 0.930 . S
C239 C241 1.383 1_545 S
C239 C242 1.382 . S
C239 H267 0.930 1_545 S
C240 C238 1.369 . S
C240 C242 1.392 . S
C240 H268 0.930 . S
C241 C237 1.373 1_565 S
C241 C239 1.383 1_565 S
C241 H269 0.931 . S
C242 C239 1.382 . S
C242 C240 1.392 . S
C243 Eu234 2.828 1_545 S
C243 C237 1.505 . S
C243 O255 1.249 1_545 S
C243 O256 1.244 . S
O244 Eu235 2.373 1_565 S
O244 C246 1.258 . S
O245 Eu234 2.392 1_554 S
O245 C246 1.242 . S
C246 O244 1.258 . S
C246 O245 1.242 . S
O247 Eu234 2.418 . S
O247 C251 1.244 1_556 S
O248 Eu235 2.488 . S
O248 C264 1.249 1_545 S
O249 Eu235 2.471 1_565 S
O249 C264 1.244 . S
O250 Eu235 2.349 1_565 S
O250 C251 1.265 . S
C251 O247 1.244 1_554 S
C251 O250 1.265 . S
O252 Eu234 2.373 1_545 S
O252 C265 1.258 . S
O253 Eu235 2.392 . S
O253 C265 1.242 1_554 S
O254 Eu235 2.418 . S
O254 C236 1.244 . S
O255 Eu234 2.488 . S
O255 C243 1.249 1_565 S
O256 Eu234 2.471 1_545 S
O256 C243 1.244 . S
O257 Eu234 2.349 1_545 S
O257 C236 1.265 1_556 S
C258 C259 1.379 . S
C258 C262 1.373 1_565 S
C258 C264 1.505 . S
C259 C258 1.379 . S
C259 C261 1.369 . S
C259 H270 0.930 . S
C260 C262 1.383 1_565 S
C260 C263 1.382 . S
C260 H271 0.930 1_565 S
C261 C259 1.369 . S
C261 C263 1.392 . S
C261 H272 0.930 . S
C262 C258 1.373 1_545 S
C262 C260 1.383 1_545 S
C262 H273 0.931 . S
C263 C260 1.382 . S
C263 C261 1.392 . S
C264 Eu235 2.828 1_565 S
C264 O248 1.249 1_565 S
C264 O249 1.244 . S
C264 C258 1.505 . S
C265 O252 1.258 . S
C265 O253 1.242 1_556 S
H266 C238 0.930 . S
H267 C239 0.930 1_565 S
H268 C240 0.930 . S
H269 C241 0.931 . S
H270 C259 0.930 . S
H271 C260 0.930 1_545 S
H272 C261 0.930 . S
H273 C262 0.931 . S
Eu274 C283 2.828 . S
Eu274 O285 2.392 1_556 S
Eu274 O287 2.418 . S
Eu274 O292 2.373 1_455 S
Eu274 O295 2.488 . S
Eu274 O296 2.471 1_455 S
Eu274 O297 2.349 1_455 S
Eu275 O284 2.373 1_655 S
Eu275 O288 2.488 . S
Eu275 O289 2.471 1_655 S
Eu275 O290 2.349 1_655 S
Eu275 O293 2.392 1_554 S
Eu275 O294 2.418 . S
Eu275 C304 2.828 . S
C276 O294 1.218 1_556 S
C276 O297 1.276 . S
C277 C278 1.379 . S
C277 C281 1.373 1_655 S
C277 C283 1.505 1_655 S
C278 C277 1.379 . S
C278 C280 1.369 . S
C278 H306 0.930 . S
C279 C281 1.383 . S
C279 C282 1.382 1_455 S
C279 H307 0.930 . S
C280 C278 1.369 . S
C280 C282 1.392 . S
C280 H308 0.930 . S
C281 C277 1.373 1_455 S
C281 C279 1.383 . S
C281 H309 0.931 . S
C282 C279 1.382 1_655 S
C282 C280 1.392 . S
C283 Eu274 2.828 . S
C283 C277 1.505 1_455 S
C283 O295 1.249 . S
C283 O296 1.244 1_455 S
O284 Eu275 2.373 1_455 S
O284 C286 1.258 . S
O285 Eu274 2.392 1_554 S
O285 C286 1.242 . S
C286 O284 1.258 . S
C286 O285 1.242 . S
O287 Eu274 2.418 . S
O287 C291 1.244 1_556 S
O288 Eu275 2.488 . S
O288 C304 1.249 . S
O289 Eu275 2.471 1_455 S
O289 C304 1.244 1_455 S
O290 Eu275 2.349 1_455 S
O290 C291 1.265 . S
C291 O287 1.244 1_554 S
C291 O290 1.265 . S
O292 Eu274 2.373 1_655 S
O292 C305 1.258 . S
O293 Eu275 2.392 1_556 S
O293 C305 1.242 . S
O294 Eu275 2.418 . S
O294 C276 1.218 1_554 S
O295 Eu274 2.488 . S
O295 C283 1.249 . S
O296 Eu274 2.471 1_655 S
O296 C283 1.244 1_655 S
O297 Eu274 2.349 1_655 S
O297 C276 1.276 . S
C298 C299 1.379 . S
C298 C302 1.373 1_455 S
C298 C304 1.505 1_455 S
C299 C298 1.379 . S
C299 C301 1.369 . S
C299 H310 0.930 . S
C300 C302 1.383 . S
C300 C303 1.382 1_655 S
C300 H311 0.930 . S
C301 C299 1.369 . S
C301 C303 1.392 . S
C301 H312 0.930 . S
C302 C298 1.373 1_655 S
C302 C300 1.383 . S
C302 H313 0.931 . S
C303 C300 1.382 1_455 S
C303 C301 1.392 . S
C304 Eu275 2.828 . S
C304 O288 1.249 . S
C304 O289 1.244 1_655 S
C304 C298 1.505 1_655 S
C305 O292 1.258 . S
C305 O293 1.242 . S
H306 C278 0.930 . S
H307 C279 0.930 . S
H308 C280 0.930 . S
H309 C281 0.931 . S
H310 C299 0.930 . S
H311 C300 0.930 . S
H312 C301 0.930 . S
H313 C302 0.931 . S
Eu314 C323 2.828 . S
Eu314 O325 2.392 . S
Eu314 O327 2.418 . S
Eu314 O332 2.373 . S
Eu314 O335 2.488 . S
Eu314 O336 2.471 . S
Eu314 O337 2.349 . S
Eu315 O324 2.373 . S
Eu315 O328 2.488 . S
Eu315 O329 2.471 . S
Eu315 O330 2.349 . S
Eu315 O333 2.392 1_556 S
Eu315 O334 2.418 . S
Eu315 C344 2.828 . S
C316 O334 1.244 1_554 S
C316 O337 1.265 . S
C317 C318 1.379 . S
C317 C321 1.373 . S
C317 C323 1.505 . S
C318 C317 1.379 . S
C318 C320 1.369 . S
C318 H346 0.930 . S
C319 C321 1.383 . S
C319 C322 1.382 . S
C319 H347 0.930 . S
C320 C318 1.369 . S
C320 C322 1.392 . S
C320 H348 0.930 . S
C321 C317 1.373 . S
C321 C319 1.383 . S
C321 H349 0.931 . S
C322 C319 1.382 . S
C322 C320 1.392 . S
C323 Eu314 2.828 . S
C323 C317 1.505 . S
C323 O335 1.249 . S
C323 O336 1.244 . S
O324 Eu315 2.373 . S
O324 C326 1.258 . S
O325 Eu314 2.392 . S
O325 C326 1.242 1_554 S
C326 O324 1.258 . S
C326 O325 1.242 1_556 S
O327 Eu314 2.418 . S
O327 C331 1.244 . S
O328 Eu315 2.488 . S
O328 C344 1.249 . S
O329 Eu315 2.471 . S
O329 C344 1.244 . S
O330 Eu315 2.349 . S
O330 C331 1.265 1_556 S
C331 O327 1.244 . S
C331 O330 1.265 1_554 S
O332 Eu314 2.373 . S
O332 C345 1.258 . S
O333 Eu315 2.392 1_554 S
O333 C345 1.242 . S
O334 Eu315 2.418 . S
O334 C316 1.244 1_556 S
O335 Eu314 2.488 . S
O335 C323 1.249 . S
O336 Eu314 2.471 . S
O336 C323 1.244 . S
O337 Eu314 2.349 . S
O337 C316 1.265 . S
C338 C339 1.379 . S
C338 C342 1.373 . S
C338 C344 1.505 . S
C339 C338 1.379 . S
C339 C341 1.369 . S
C339 H350 0.930 . S
C340 C342 1.383 . S
C340 C343 1.382 . S
C340 H351 0.930 . S
C341 C339 1.369 . S
C341 C343 1.392 . S
C341 H352 0.930 . S
C342 C338 1.373 . S
C342 C340 1.383 . S
C342 H353 0.931 . S
C343 C340 1.382 . S
C343 C341 1.392 . S
C344 Eu315 2.828 . S
C344 O328 1.249 . S
C344 O329 1.244 . S
C344 C338 1.505 . S
C345 O332 1.258 . S
C345 O333 1.242 . S
H346 C318 0.930 . S
H347 C319 0.930 . S
H348 C320 0.930 . S
H349 C321 0.931 . S
H350 C339 0.930 . S
H351 C340 0.930 . S
H352 C341 0.930 . S
H353 C342 0.931 . S
Eu354 C363 2.828 . S
Eu354 O365 2.392 . S
Eu354 O367 2.418 . S
Eu354 O372 2.373 . S
Eu354 O375 2.488 . S
Eu354 O376 2.471 . S
Eu354 O377 2.349 . S
Eu355 O364 2.373 . S
Eu355 O368 2.488 . S
Eu355 O369 2.471 . S
Eu355 O370 2.349 . S
Eu355 O373 2.392 . S
Eu355 O374 2.418 . S
Eu355 C384 2.828 . S
C356 O374 1.244 . S
C356 O377 1.265 . S
C357 C358 1.379 . S
C357 C361 1.373 . S
C357 C363 1.505 . S
C358 C357 1.379 . S
C358 C360 1.369 . S
C358 H386 0.930 . S
C359 C361 1.383 . S
C359 C362 1.382 . S
C359 H387 0.930 . S
C360 C358 1.369 . S
C360 C362 1.392 . S
C360 H388 0.930 . S
C361 C357 1.373 . S
C361 C359 1.383 . S
C361 H389 0.931 . S
C362 C359 1.382 . S
C362 C360 1.392 . S
C363 Eu354 2.828 . S
C363 C357 1.505 . S
C363 O375 1.249 . S
C363 O376 1.244 . S
O364 Eu355 2.373 . S
O364 C366 1.258 . S
O365 Eu354 2.392 . S
O365 C366 1.242 . S
C366 O364 1.258 . S
C366 O365 1.242 . S
O367 Eu354 2.418 . S
O367 C371 1.244 . S
O368 Eu355 2.488 . S
O368 C384 1.249 . S
O369 Eu355 2.471 . S
O369 C384 1.244 . S
O370 Eu355 2.349 . S
O370 C371 1.265 . S
C371 O367 1.244 . S
C371 O370 1.265 . S
O372 Eu354 2.373 . S
O372 C385 1.258 . S
O373 Eu355 2.392 . S
O373 C385 1.242 . S
O374 Eu355 2.418 . S
O374 C356 1.244 . S
O375 Eu354 2.488 . S
O375 C363 1.249 . S
O376 Eu354 2.471 . S
O376 C363 1.244 . S
O377 Eu354 2.349 . S
O377 C356 1.265 . S
C378 C379 1.379 . S
C378 C382 1.373 . S
C378 C384 1.505 . S
C379 C378 1.379 . S
C379 C381 1.369 . S
C379 H390 0.930 . S
C380 C382 1.383 . S
C380 C383 1.382 . S
C380 H391 0.930 . S
C381 C379 1.369 . S
C381 C383 1.392 . S
C381 H392 0.930 . S
C382 C378 1.373 . S
C382 C380 1.383 . S
C382 H393 0.931 . S
C383 C380 1.382 . S
C383 C381 1.392 . S
C384 Eu355 2.828 . S
C384 O368 1.249 . S
C384 O369 1.244 . S
C384 C378 1.505 . S
C385 O372 1.258 . S
C385 O373 1.242 . S
H386 C358 0.930 . S
H387 C359 0.930 . S
H388 C360 0.930 . S
H389 C361 0.931 . S
H390 C379 0.930 . S
H391 C380 0.930 . S
H392 C381 0.930 . S
H393 C382 0.931 . S
Eu394 C403 2.828 . S
Eu394 O405 2.392 . S
Eu394 O407 2.418 1_565 S
Eu394 O412 2.373 . S
Eu394 O415 2.488 . S
Eu394 O416 2.471 . S
Eu394 O417 2.349 . S
Eu395 O404 2.373 . S
Eu395 O408 2.488 . S
Eu395 O409 2.471 . S
Eu395 O410 2.349 . S
Eu395 O413 2.392 . S
Eu395 O414 2.418 . S
Eu395 C424 2.828 . S
C396 O414 1.244 . S
C396 O417 1.265 . S
C397 C398 1.379 . S
C397 C401 1.373 . S
C397 C403 1.505 . S
C398 C397 1.379 . S
C398 C400 1.369 . S
C398 H426 0.930 . S
C399 C401 1.383 . S
C399 C402 1.382 . S
C399 H427 0.930 . S
C400 C398 1.369 . S
C400 C402 1.392 . S
C400 H428 0.930 . S
C401 C397 1.373 . S
C401 C399 1.383 . S
C401 H429 0.931 . S
C402 C399 1.382 . S
C402 C400 1.392 . S
C403 Eu394 2.828 . S
C403 C397 1.505 . S
C403 O415 1.249 . S
C403 O416 1.244 . S
O404 Eu395 2.373 . S
O404 C406 1.258 . S
O405 Eu394 2.392 . S
O405 C406 1.242 . S
C406 O404 1.258 . S
C406 O405 1.242 . S
O407 Eu394 2.418 1_545 S
O407 C411 1.244 . S
O408 Eu395 2.488 . S
O408 C424 1.249 . S
O409 Eu395 2.471 . S
O409 C424 1.244 . S
O410 Eu395 2.349 . S
O410 C411 1.265 1_565 S
C411 O407 1.244 . S
C411 O410 1.265 1_545 S
O412 Eu394 2.373 . S
O412 C425 1.258 . S
O413 Eu395 2.392 . S
O413 C425 1.242 . S
O414 Eu395 2.418 . S
O414 C396 1.244 . S
O415 Eu394 2.488 . S
O415 C403 1.249 . S
O416 Eu394 2.471 . S
O416 C403 1.244 . S
O417 Eu394 2.349 . S
O417 C396 1.265 . S
C418 C419 1.379 . S
C418 C422 1.373 . S
C418 C424 1.505 . S
C419 C418 1.379 . S
C419 C421 1.369 . S
C419 H430 0.930 . S
C420 C422 1.383 . S
C420 C423 1.382 . S
C420 H431 0.930 . S
C421 C419 1.369 . S
C421 C423 1.392 . S
C421 H432 0.930 . S
C422 C418 1.373 . S
C422 C420 1.383 . S
C422 H433 0.931 . S
C423 C420 1.382 . S
C423 C421 1.392 . S
C424 Eu395 2.828 . S
C424 O408 1.249 . S
C424 O409 1.244 . S
C424 C418 1.505 . S
C425 O412 1.258 . S
C425 O413 1.242 . S
H426 C398 0.930 . S
H427 C399 0.930 . S
H428 C400 0.930 . S
H429 C401 0.931 . S
H430 C419 0.930 . S
H431 C420 0.930 . S
H432 C421 0.930 . S
H433 C422 0.931 . S
Eu434 C443 2.828 . S
Eu434 O445 2.392 . S
Eu434 O447 2.418 . S
Eu434 O452 2.373 . S
Eu434 O455 2.488 . S
Eu434 O456 2.471 . S
Eu434 O457 2.349 . S
Eu435 O444 2.373 . S
Eu435 O448 2.488 . S
Eu435 O449 2.471 . S
Eu435 O450 2.349 . S
Eu435 O453 2.392 . S
Eu435 O454 2.418 . S
Eu435 C464 2.828 . S
C436 O454 1.244 . S
C436 O457 1.265 . S
C437 C438 1.379 . S
C437 C441 1.373 . S
C437 C443 1.505 . S
C438 C437 1.379 . S
C438 C440 1.369 . S
C438 H466 0.930 . S
C439 C441 1.383 . S
C439 C442 1.382 . S
C439 H467 0.930 . S
C440 C438 1.369 . S
C440 C442 1.392 . S
C440 H468 0.930 . S
C441 C437 1.373 . S
C441 C439 1.383 . S
C441 H469 0.931 . S
C442 C439 1.382 . S
C442 C440 1.392 . S
C443 Eu434 2.828 . S
C443 C437 1.505 . S
C443 O455 1.249 . S
C443 O456 1.244 . S
O444 Eu435 2.373 . S
O444 C446 1.258 . S
O445 Eu434 2.392 . S
O445 C446 1.242 . S
C446 O444 1.258 . S
C446 O445 1.242 . S
O447 Eu434 2.418 . S
O447 C451 1.244 . S
O448 Eu435 2.488 . S
O448 C464 1.249 . S
O449 Eu435 2.471 . S
O449 C464 1.244 . S
O450 Eu435 2.349 . S
O450 C451 1.265 . S
C451 O447 1.244 . S
C451 O450 1.265 . S
O452 Eu434 2.373 . S
O452 C465 1.258 . S
O453 Eu435 2.392 . S
O453 C465 1.242 . S
O454 Eu435 2.418 . S
O454 C436 1.244 . S
O455 Eu434 2.488 . S
O455 C443 1.249 . S
O456 Eu434 2.471 . S
O456 C443 1.244 . S
O457 Eu434 2.349 . S
O457 C436 1.265 . S
C458 C459 1.379 . S
C458 C462 1.373 . S
C458 C464 1.505 . S
C459 C458 1.379 . S
C459 C461 1.369 . S
C459 H470 0.930 . S
C460 C462 1.383 . S
C460 C463 1.382 . S
C460 H471 0.930 . S
C461 C459 1.369 . S
C461 C463 1.392 . S
C461 H472 0.930 . S
C462 C458 1.373 . S
C462 C460 1.383 . S
C462 H473 0.931 . S
C463 C460 1.382 . S
C463 C461 1.392 . S
C464 Eu435 2.828 . S
C464 O448 1.249 . S
C464 O449 1.244 . S
C464 C458 1.505 . S
C465 O452 1.258 . S
C465 O453 1.242 . S
H466 C438 0.930 . S
H467 C439 0.930 . S
H468 C440 0.930 . S
H469 C441 0.931 . S
H470 C459 0.930 . S
H471 C460 0.930 . S
H472 C461 0.930 . S
H473 C462 0.931 . S
Eu474 C483 2.828 . S
Eu474 O485 2.392 . S
Eu474 O487 2.418 . S
Eu474 O492 2.373 . S
Eu474 O495 2.488 . S
Eu474 O496 2.471 . S
Eu474 O497 2.349 . S
Eu475 O484 2.373 . S
Eu475 O488 2.488 . S
Eu475 O489 2.471 . S
Eu475 O490 2.349 . S
Eu475 O493 2.392 . S
Eu475 O494 2.418 . S
Eu475 C504 2.828 . S
C476 O494 1.244 . S
C476 O497 1.265 . S
C477 C478 1.379 . S
C477 C481 1.373 . S
C477 C483 1.505 . S
C478 C477 1.379 . S
C478 C480 1.369 . S
C478 H506 0.930 . S
C479 C481 1.383 . S
C479 C482 1.382 . S
C479 H507 0.930 . S
C480 C478 1.369 . S
C480 C482 1.392 . S
C480 H508 0.930 . S
C481 C477 1.373 . S
C481 C479 1.383 . S
C481 H509 0.931 . S
C482 C479 1.382 . S
C482 C480 1.392 . S
C483 Eu474 2.828 . S
C483 C477 1.505 . S
C483 O495 1.249 . S
C483 O496 1.244 . S
O484 Eu475 2.373 . S
O484 C486 1.258 . S
O485 Eu474 2.392 . S
O485 C486 1.242 . S
C486 O484 1.258 . S
C486 O485 1.242 . S
O487 Eu474 2.418 . S
O487 C491 1.244 . S
O488 Eu475 2.488 . S
O488 C504 1.249 . S
O489 Eu475 2.471 . S
O489 C504 1.244 . S
O490 Eu475 2.349 . S
O490 C491 1.265 . S
C491 O487 1.244 . S
C491 O490 1.265 . S
O492 Eu474 2.373 . S
O492 C505 1.258 1_655 S
O493 Eu475 2.392 . S
O493 C505 1.242 1_655 S
O494 Eu475 2.418 . S
O494 C476 1.244 . S
O495 Eu474 2.488 . S
O495 C483 1.249 . S
O496 Eu474 2.471 . S
O496 C483 1.244 . S
O497 Eu474 2.349 . S
O497 C476 1.265 . S
C498 C499 1.379 . S
C498 C502 1.373 . S
C498 C504 1.505 . S
C499 C498 1.379 . S
C499 C501 1.369 . S
C499 H510 0.930 . S
C500 C502 1.383 . S
C500 C503 1.382 . S
C500 H511 0.930 . S
C501 C499 1.369 . S
C501 C503 1.392 . S
C501 H512 0.930 . S
C502 C498 1.373 . S
C502 C500 1.383 . S
C502 H513 0.931 . S
C503 C500 1.382 . S
C503 C501 1.392 . S
C504 Eu475 2.828 . S
C504 O488 1.249 . S
C504 O489 1.244 . S
C504 C498 1.505 . S
C505 O492 1.258 1_455 S
C505 O493 1.242 1_455 S
H506 C478 0.930 . S
H507 C479 0.930 . S
H508 C480 0.930 . S
H509 C481 0.931 . S
H510 C499 0.930 . S
H511 C500 0.930 . S
H512 C501 0.930 . S
H513 C502 0.931 . S
Eu514 C523 2.828 . S
Eu514 O525 2.392 . S
Eu514 O527 2.418 . S
Eu514 O532 2.373 . S
Eu514 O535 2.488 . S
Eu514 O536 2.471 . S
Eu514 O537 2.349 . S
Eu515 O524 2.373 . S
Eu515 O528 2.488 . S
Eu515 O529 2.471 . S
Eu515 O530 2.349 . S
Eu515 O533 2.392 . S
Eu515 O534 2.418 . S
Eu515 C544 2.828 . S
C516 O534 1.244 . S
C516 O537 1.265 . S
C517 C518 1.379 . S
C517 C521 1.373 . S
C517 C523 1.505 . S
C518 C517 1.379 . S
C518 C520 1.369 . S
C518 H546 0.930 . S
C519 C521 1.383 . S
C519 C522 1.382 . S
C519 H547 0.930 . S
C520 C518 1.369 . S
C520 C522 1.392 . S
C520 H548 0.930 . S
C521 C517 1.373 . S
C521 C519 1.383 . S
C521 H549 0.931 . S
C522 C519 1.382 . S
C522 C520 1.392 . S
C523 Eu514 2.828 . S
C523 C517 1.505 . S
C523 O535 1.249 . S
C523 O536 1.244 . S
O524 Eu515 2.373 . S
O524 C526 1.258 . S
O525 Eu514 2.392 . S
O525 C526 1.242 . S
C526 O524 1.258 . S
C526 O525 1.242 . S
O527 Eu514 2.418 . S
O527 C531 1.244 . S
O528 Eu515 2.488 . S
O528 C544 1.249 . S
O529 Eu515 2.471 . S
O529 C544 1.244 . S
O530 Eu515 2.349 . S
O530 C531 1.265 . S
C531 O527 1.244 . S
C531 O530 1.265 . S
O532 Eu514 2.373 . S
O532 C545 1.258 . S
O533 Eu515 2.392 . S
O533 C545 1.242 . S
O534 Eu515 2.418 . S
O534 C516 1.244 . S
O535 Eu514 2.488 . S
O535 C523 1.249 . S
O536 Eu514 2.471 . S
O536 C523 1.244 . S
O537 Eu514 2.349 . S
O537 C516 1.265 . S
C538 C539 1.379 . S
C538 C542 1.373 . S
C538 C544 1.505 . S
C539 C538 1.379 . S
C539 C541 1.369 . S
C539 H550 0.930 . S
C540 C542 1.383 . S
C540 C543 1.382 . S
C540 H551 0.930 . S
C541 C539 1.369 . S
C541 C543 1.392 . S
C541 H552 0.930 . S
C542 C538 1.373 . S
C542 C540 1.383 . S
C542 H553 0.931 . S
C543 C540 1.382 . S
C543 C541 1.392 . S
C544 Eu515 2.828 . S
C544 O528 1.249 . S
C544 O529 1.244 . S
C544 C538 1.505 . S
C545 O532 1.258 . S
C545 O533 1.242 . S
H546 C518 0.930 . S
H547 C519 0.930 . S
H548 C520 0.930 . S
H549 C521 0.931 . S
H550 C539 0.930 . S
H551 C540 0.930 . S
H552 C541 0.930 . S
H553 C542 0.931 . S
Eu554 C563 2.828 . S
Eu554 O565 2.392 . S
Eu554 O567 2.418 1_545 S
Eu554 O572 2.373 . S
Eu554 O575 2.488 . S
Eu554 O576 2.471 . S
Eu554 O577 2.349 . S
Eu555 O564 2.373 . S
Eu555 O568 2.488 . S
Eu555 O569 2.471 . S
Eu555 O570 2.349 . S
Eu555 O573 2.392 . S
Eu555 O574 2.418 . S
Eu555 C584 2.828 . S
C556 O574 1.244 . S
C556 O577 1.265 . S
C557 C558 1.379 . S
C557 C561 1.373 . S
C557 C563 1.505 . S
C558 C557 1.379 . S
C558 C560 1.369 . S
C558 H586 0.930 . S
C559 C561 1.383 . S
C559 C562 1.382 . S
C559 H587 0.930 . S
C560 C558 1.369 . S
C560 C562 1.392 . S
C560 H588 0.930 . S
C561 C557 1.373 . S
C561 C559 1.383 . S
C561 H589 0.931 . S
C562 C559 1.382 . S
C562 C560 1.392 . S
C563 Eu554 2.828 . S
C563 C557 1.505 . S
C563 O575 1.249 . S
C563 O576 1.244 . S
O564 Eu555 2.373 . S
O564 C566 1.258 . S
O565 Eu554 2.392 . S
O565 C566 1.242 . S
C566 O564 1.258 . S
C566 O565 1.242 . S
O567 Eu554 2.418 1_565 S
O567 C571 1.244 1_565 S
O568 Eu555 2.488 . S
O568 C584 1.249 . S
O569 Eu555 2.471 . S
O569 C584 1.244 . S
O570 Eu555 2.349 . S
O570 C571 1.265 . S
C571 O567 1.244 1_545 S
C571 O570 1.265 . S
O572 Eu554 2.373 . S
O572 C585 1.258 . S
O573 Eu555 2.392 . S
O573 C585 1.242 . S
O574 Eu555 2.418 . S
O574 C556 1.244 . S
O575 Eu554 2.488 . S
O575 C563 1.249 . S
O576 Eu554 2.471 . S
O576 C563 1.244 . S
O577 Eu554 2.349 . S
O577 C556 1.265 . S
C578 C579 1.379 . S
C578 C582 1.373 . S
C578 C584 1.505 . S
C579 C578 1.379 . S
C579 C581 1.369 . S
C579 H590 0.930 . S
C580 C582 1.383 . S
C580 C583 1.382 . S
C580 H591 0.930 . S
C581 C579 1.369 . S
C581 C583 1.392 . S
C581 H592 0.930 . S
C582 C578 1.373 . S
C582 C580 1.383 . S
C582 H593 0.931 . S
C583 C580 1.382 . S
C583 C581 1.392 . S
C584 Eu555 2.828 . S
C584 O568 1.249 . S
C584 O569 1.244 . S
C584 C578 1.505 . S
C585 O572 1.258 . S
C585 O573 1.242 . S
H586 C558 0.930 . S
H587 C559 0.930 . S
H588 C560 0.930 . S
H589 C561 0.931 . S
H590 C579 0.930 . S
H591 C580 0.930 . S
H592 C581 0.930 . S
H593 C582 0.931 . S
N170 C246 2.304 . S
N184 C286 1.118 . S
N158 C316 1.738 . S
N145 C276 1.614 . S
C326 N119 0.711 . S
N131 C236 2.054 1_556 S
C265 N144 1.902 . S
C305 N118 1.792 . S
N132 C331 1.602 1_556 S
N171 C291 1.520 . S
N183 C345 1.349 . S
C251 N157 1.507 . S
C366 N14 2.304 1_455 S
N28 C406 1.118 . S
N2 C436 1.738 1_545 S
N223 C396 1.608 . S
N197 C446 0.712 . S
N209 C356 2.054 . S
N222 C385 1.902 . S
N196 C425 1.792 . S
C451 N210 1.602 . S
N15 C411 1.520 . S
C465 N27 1.349 1_455 S
N1 C371 1.507 . S
C486 N92 2.304 . S
N106 C526 1.117 . S
C556 N80 1.738 . S
C516 N67 1.608 1_545 S
C566 N41 0.711 . S
N53 C476 2.054 . S
N66 C505 1.902 . S
N40 C545 1.793 . S
C571 N54 1.602 1_545 S
N93 C531 1.520 . S
N105 C585 1.350 . S
N79 C491 1.507 . S
N200 C263 1.161 . S
C303 N213 2.035 . S
N226 C322 1.839 . S
N83 C282 2.258 . S
N96 C343 1.764 . S
C242 N109 1.835 . S
N44 C383 1.161 . S
N57 C423 2.035 . S
N70 C442 1.839 . S
N161 C402 2.258 . S
C463 N174 1.764 . S
N187 C362 1.835 . S
N122 C503 1.161 . S
N135 C543 2.035 . S
C562 N148 1.839 . S
N5 C522 2.258 . S
N18 C583 1.764 . S
N31 C482 1.835 . S
