# Generated by pormake.
# Topology anh, (6,3)-cn, num edge types: 1
# Building blocks:
#     Node 0, Type 0, BuildingBlock: MIFKUJ_clean_sbu_0, # of connection points: 6
#     Node 1, Type 0, BuildingBlock: MIFKUJ_clean_sbu_0, # of connection points: 6
#     Node 2, Type 0, BuildingBlock: MIFKUJ_clean_sbu_0, # of connection points: 6
#     Node 3, Type 1, BuildingBlock: INOVEN_clean_linker_0, # of connection points: 3
#     Node 4, Type 1, BuildingBlock: INOVEN_clean_linker_0, # of connection points: 3
#     Node 5, Type 1, BuildingBlock: INOVEN_clean_linker_0, # of connection points: 3
#     Node 6, Type 1, BuildingBlock: INOVEN_clean_linker_0, # of connection points: 3
#     Node 7, Type 1, BuildingBlock: INOVEN_clean_linker_0, # of connection points: 3
#     Node 8, Type 1, BuildingBlock: INOVEN_clean_linker_0, # of connection points: 3
#     Edge 9, Type (0, 1), BuildingBlock: TEMPAE_clean_linker_10, # of connection points: 2
#     Edge 10, Type (0, 1), BuildingBlock: TEMPAE_clean_linker_10, # of connection points: 2
#     Edge 11, Type (0, 1), BuildingBlock: TEMPAE_clean_linker_10, # of connection points: 2
#     Edge 12, Type (0, 1), BuildingBlock: TEMPAE_clean_linker_10, # of connection points: 2
#     Edge 13, Type (0, 1), BuildingBlock: TEMPAE_clean_linker_10, # of connection points: 2
#     Edge 14, Type (0, 1), BuildingBlock: TEMPAE_clean_linker_10, # of connection points: 2
#     Edge 15, Type (0, 1), BuildingBlock: TEMPAE_clean_linker_10, # of connection points: 2
#     Edge 16, Type (0, 1), BuildingBlock: TEMPAE_clean_linker_10, # of connection points: 2
#     Edge 17, Type (0, 1), BuildingBlock: TEMPAE_clean_linker_10, # of connection points: 2
#     Edge 18, Type (0, 1), BuildingBlock: TEMPAE_clean_linker_10, # of connection points: 2
#     Edge 19, Type (0, 1), BuildingBlock: TEMPAE_clean_linker_10, # of connection points: 2
#     Edge 20, Type (0, 1), BuildingBlock: TEMPAE_clean_linker_10, # of connection points: 2
#     Edge 21, Type (0, 1), BuildingBlock: TEMPAE_clean_linker_10, # of connection points: 2
#     Edge 22, Type (0, 1), BuildingBlock: TEMPAE_clean_linker_10, # of connection points: 2
#     Edge 23, Type (0, 1), BuildingBlock: TEMPAE_clean_linker_10, # of connection points: 2
#     Edge 24, Type (0, 1), BuildingBlock: TEMPAE_clean_linker_10, # of connection points: 2
#     Edge 25, Type (0, 1), BuildingBlock: TEMPAE_clean_linker_10, # of connection points: 2
#     Edge 26, Type (0, 1), BuildingBlock: TEMPAE_clean_linker_10, # of connection points: 2
# Relax obj value: 0.067
# Max RMSD: 0.134
# Mean RMSD: 0.093
data_MOF--net-anh--node1-MIFKUJ_clean_sbu_0--node2-INOVEN_clean_linker_0--edge1-TEMPAE_clean_linker_10
_symmetry_space_group_name_H-M    P1
_symmetry_Int_Tables_number       1
_symmetry_cell_setting            triclinic
loop_
_symmetry_equiv_pos_as_xyz
'x, y, z'
_cell_length_a     32.084763
_cell_length_b     32.188125
_cell_length_c     47.239655
_cell_angle_alpha  96.440879
_cell_angle_beta   93.244968
_cell_angle_gamma 120.14885
loop_
_atom_site_label
_atom_site_type_symbol
_atom_site_fract_x
_atom_site_fract_y
_atom_site_fract_z
_atom_type_partial_charge
Zn0 Zn 0.05527 0.62241 0.16333 0.0
Zn1 Zn 0.92096 0.51354 0.15792 0.0
C2 C 0.13292 0.60902 0.1702 0.0
O3 O 0.13888 0.64043 0.19267 0.0
C4 C 0.85042 0.54168 0.13885 0.0
O5 O 0.86557 0.54119 0.11362 0.0
O6 O 0.10162 0.69285 0.16276 0.0
O7 O 0.99557 0.60208 0.13644 0.0
O8 O 0.95082 0.5241 0.12122 0.0
C9 C 0.12241 0.70161 0.14022 0.0
O10 O 0.10839 0.66562 0.11886 0.0
O11 O 0.09443 0.59076 0.15231 0.0
C12 C 0.85044 0.41527 0.13829 0.0
O13 O 0.83912 0.4355 0.11893 0.0
O14 O 0.8862 0.44198 0.15772 0.0
O15 O 0.96603 0.54617 0.19527 0.0
O16 O 0.04083 0.61074 0.20337 0.0
O17 O 0.86957 0.53239 0.15965 0.0
C18 C 0.98175 0.56613 0.11675 0.0
C19 C 0.0041 0.57708 0.21233 0.0
Zn20 Zn 0.53425 0.08808 0.50105 0.0
Zn21 Zn 0.5024 0.95484 0.50338 0.0
C22 C 0.64034 0.14154 0.50729 0.0
O23 O 0.63659 0.13553 0.53425 0.0
C24 C 0.39832 0.883 0.48272 0.0
O25 O 0.40995 0.89246 0.45702 0.0
O26 O 0.51764 0.13961 0.49793 0.0
O27 O 0.48515 0.02804 0.47398 0.0
O28 O 0.51537 0.98072 0.4662 0.0
C29 C 0.52582 0.15722 0.47468 0.0
O30 O 0.53787 0.13651 0.45373 0.0
O31 O 0.60211 0.12027 0.48902 0.0
C32 C 0.52281 0.88103 0.48538 0.0
O33 O 0.48923 0.87156 0.46431 0.0
O34 O 0.53601 0.91683 0.5053 0.0
O35 O 0.52591 0.00368 0.53977 0.0
O36 O 0.53807 0.07859 0.54226 0.0
O37 O 0.43077 0.90609 0.50442 0.0
C38 C 0.50278 0.00903 0.45738 0.0
C39 C 0.53729 0.04464 0.55411 0.0
Zn40 Zn 0.61145 0.49288 0.83137 0.0
Zn41 Zn 0.5025 0.53096 0.82903 0.0
C42 C 0.60547 0.41242 0.85321 0.0
O43 O 0.63129 0.44731 0.8751 0.0
C44 C 0.49655 0.61436 0.82418 0.0
O45 O 0.45496 0.58054 0.8092 0.0
O46 O 0.68196 0.52858 0.8263 0.0
O47 O 0.56835 0.49952 0.7995 0.0
O48 O 0.50875 0.51337 0.7882 0.0
C49 C 0.69928 0.5165 0.80556 0.0
O50 O 0.66983 0.48074 0.7849 0.0
O51 O 0.59169 0.42281 0.83062 0.0
C52 C 0.42568 0.51458 0.86006 0.0
O53 O 0.46195 0.55502 0.875 0.0
O54 O 0.43426 0.49348 0.83876 0.0
O55 O 0.55018 0.52176 0.85012 0.0
O56 O 0.60703 0.51656 0.8723 0.0
O57 O 0.52475 0.60192 0.83527 0.0
C58 C 0.54106 0.50385 0.78063 0.0
C59 C 0.57286 0.52506 0.87364 0.0
H60 H 0.49465 0.00168 0.16164 0.0
H61 H 0.42982 0.94863 0.23671 0.0
H62 H 0.57478 0.0726 0.24563 0.0
N63 N 0.57648 0.07697 0.18914 0.0
N64 N 0.60807 0.11666 0.20361 0.0
C65 C 0.49709 0.00382 0.18479 0.0
C66 C 0.45811 0.96989 0.19728 0.0
C67 C 0.53886 0.04128 0.20217 0.0
C68 C 0.54192 0.04425 0.23225 0.0
C69 C 0.50293 0.01077 0.24507 0.0
C70 C 0.46108 0.97375 0.22728 0.0
H71 H 0.61322 0.53537 0.49409 0.0
H72 H 0.61082 0.46189 0.56525 0.0
H73 H 0.60664 0.59364 0.57919 0.0
N74 N 0.60768 0.60687 0.52386 0.0
N75 N 0.59426 0.63191 0.53824 0.0
C76 C 0.61339 0.53389 0.51691 0.0
C77 C 0.61341 0.49495 0.52762 0.0
C78 C 0.61138 0.56984 0.53543 0.0
C79 C 0.60967 0.56678 0.5649 0.0
C80 C 0.60931 0.52786 0.57579 0.0
C81 C 0.61199 0.49258 0.55707 0.0
H82 H 0.05073 0.54585 0.83014 0.0
H83 H 0.99803 0.60053 0.89771 0.0
H84 H 0.09744 0.55225 0.91837 0.0
N85 N 0.10836 0.53011 0.86399 0.0
N86 N 0.12042 0.508 0.87952 0.0
C87 C 0.05085 0.55601 0.85283 0.0
C88 C 0.02153 0.57449 0.86166 0.0
C89 C 0.07861 0.54845 0.87324 0.0
C90 C 0.07697 0.55948 0.90267 0.0
C91 C 0.0482 0.57854 0.91184 0.0
C92 C 0.02129 0.58682 0.89108 0.0
H93 H 0.047 0.55024 0.50416 0.0
H94 H 0.08729 0.62265 0.43041 0.0
H95 H 0.9617 0.47946 0.42092 0.0
N96 N 0.96664 0.46925 0.47645 0.0
N97 N 0.94114 0.42827 0.46124 0.0
C98 C 0.04029 0.55051 0.48146 0.0
C99 C 0.07189 0.59131 0.4692 0.0
C100 C 0.00019 0.50978 0.46411 0.0
C101 C 0.99253 0.51031 0.4345 0.0
C102 C 0.02335 0.55121 0.42246 0.0
C103 C 0.06264 0.59146 0.43991 0.0
H104 H 0.58842 0.06081 0.85042 0.0
H105 H 0.5946 0.13344 0.77817 0.0
H106 H 0.57653 0.99123 0.76438 0.0
N107 N 0.57998 0.9812 0.82015 0.0
N108 N 0.58693 0.95143 0.80508 0.0
C109 C 0.58791 0.06133 0.82751 0.0
C110 C 0.59284 0.102 0.81642 0.0
C111 C 0.58342 0.02172 0.80891 0.0
C112 C 0.58145 0.02219 0.77908 0.0
C113 C 0.58543 0.06233 0.76798 0.0
C114 C 0.59198 0.10243 0.78676 0.0
H115 H 0.51754 0.56826 0.1606 0.0
H116 H 0.58317 0.55695 0.08545 0.0
H117 H 0.45537 0.56779 0.07698 0.0
N118 N 0.44482 0.57305 0.13301 0.0
N119 N 0.42192 0.58883 0.12016 0.0
C120 C 0.51807 0.56675 0.13761 0.0
C121 C 0.55457 0.56241 0.12484 0.0
C122 C 0.48241 0.56949 0.12044 0.0
C123 C 0.48337 0.56711 0.09051 0.0
C124 C 0.51904 0.56171 0.07774 0.0
C125 C 0.55472 0.56 0.09511 0.0
C126 C 0.21768 0.62743 0.18286 0.0
C127 C 0.17309 0.60005 0.16486 0.0
C128 C 0.25793 0.62325 0.17716 0.0
C129 C 0.25355 0.59042 0.15302 0.0
C130 C 0.20818 0.56127 0.13533 0.0
C131 C 0.16851 0.56665 0.14135 0.0
C132 C 0.30576 0.65564 0.19629 0.0
C133 C 0.202 0.52553 0.10953 0.0
C134 C 0.36762 0.62021 0.11888 0.0
C135 C 0.38171 0.59023 0.1302 0.0
C136 C 0.3263 0.62094 0.12635 0.0
C137 C 0.2975 0.58968 0.14506 0.0
C138 C 0.31147 0.55893 0.15653 0.0
C139 C 0.35381 0.55986 0.14916 0.0
C140 C 0.31349 0.65518 0.11421 0.0
C141 C 0.28133 0.52468 0.17623 0.0
H142 H 0.22177 0.65346 0.20107 0.0
H143 H 0.13421 0.5453 0.12739 0.0
H144 H 0.32064 0.63365 0.20377 0.0
H145 H 0.33262 0.68177 0.18391 0.0
H146 H 0.30224 0.67665 0.21538 0.0
H147 H 0.1635 0.50249 0.09952 0.0
H148 H 0.22415 0.54556 0.09318 0.0
H149 H 0.21528 0.50155 0.11577 0.0
H150 H 0.38927 0.64323 0.10407 0.0
H151 H 0.36427 0.53596 0.15754 0.0
H152 H 0.31193 0.67988 0.13194 0.0
H153 H 0.27697 0.63416 0.10135 0.0
H154 H 0.34018 0.67768 0.10033 0.0
H155 H 0.27874 0.54558 0.19569 0.0
H156 H 0.29677 0.50269 0.18302 0.0
H157 H 0.24378 0.49961 0.16523 0.0
C158 C 0.73113 0.19376 0.5156 0.0
C159 C 0.68674 0.18029 0.4997 0.0
C160 C 0.77495 0.23375 0.51057 0.0
C161 C 0.77419 0.26184 0.48971 0.0
C162 C 0.72936 0.24836 0.47361 0.0
C163 C 0.68633 0.20736 0.47851 0.0
C164 C 0.82201 0.2462 0.52773 0.0
C165 C 0.72661 0.27792 0.45169 0.0
C166 C 0.87903 0.39254 0.4938 0.0
C167 C 0.90348 0.38736 0.47122 0.0
C168 C 0.83723 0.35185 0.5004 0.0
C169 C 0.82023 0.30499 0.4844 0.0
C170 C 0.84614 0.29966 0.46238 0.0
C171 C 0.88697 0.34103 0.45582 0.0
C172 C 0.81007 0.35929 0.52362 0.0
C173 C 0.82998 0.25041 0.44517 0.0
H174 H 0.73154 0.17306 0.5321 0.0
H175 H 0.652 0.19773 0.46654 0.0
H176 H 0.84809 0.24702 0.51301 0.0
H177 H 0.83889 0.28304 0.54073 0.0
H178 H 0.81665 0.21972 0.54239 0.0
H179 H 0.68877 0.26336 0.44156 0.0
H180 H 0.74159 0.31619 0.46204 0.0
H181 H 0.74906 0.27842 0.43457 0.0
H182 H 0.89122 0.42855 0.50539 0.0
H183 H 0.90581 0.33744 0.43823 0.0
H184 H 0.80512 0.33501 0.53963 0.0
H185 H 0.77328 0.34951 0.51402 0.0
H186 H 0.82915 0.39753 0.53494 0.0
H187 H 0.82534 0.22411 0.45978 0.0
H188 H 0.85628 0.25195 0.4304 0.0
H189 H 0.79418 0.23612 0.43224 0.0
C190 C 0.55662 0.70261 0.84162 0.0
C191 C 0.51089 0.66615 0.82726 0.0
C192 C 0.57197 0.75202 0.84266 0.0
C193 C 0.54085 0.76505 0.82895 0.0
C194 C 0.49378 0.72841 0.81565 0.0
C195 C 0.47937 0.67938 0.81497 0.0
C196 C 0.62228 0.79015 0.85721 0.0
C197 C 0.45947 0.74092 0.80087 0.0
C198 C 0.56175 0.89303 0.83924 0.0
C199 C 0.58104 0.90844 0.81392 0.0
C200 C 0.5507 0.84711 0.84533 0.0
C201 C 0.55899 0.81637 0.82556 0.0
C202 C 0.58072 0.83309 0.80078 0.0
C203 C 0.5914 0.879 0.79532 0.0
C204 C 0.52802 0.83057 0.87209 0.0
C205 C 0.59029 0.80152 0.7792 0.0
H206 H 0.58101 0.69262 0.85141 0.0
H207 H 0.44377 0.65141 0.80412 0.0
H208 H 0.64583 0.80758 0.84073 0.0
H209 H 0.62102 0.81918 0.87151 0.0
H210 H 0.63933 0.77441 0.87006 0.0
H211 H 0.42279 0.70839 0.79365 0.0
H212 H 0.45564 0.76791 0.8155 0.0
H213 H 0.47455 0.75774 0.78183 0.0
H214 H 0.55374 0.91596 0.85369 0.0
H215 H 0.60631 0.89144 0.77585 0.0
H216 H 0.54627 0.8146 0.88358 0.0
H217 H 0.48925 0.80173 0.86604 0.0
H218 H 0.52993 0.86088 0.88703 0.0
H219 H 0.61122 0.78765 0.79012 0.0
H220 H 0.61074 0.82143 0.76225 0.0
H221 H 0.55523 0.76947 0.76871 0.0
C222 C 0.79165 0.54813 0.16939 0.0
C223 C 0.80883 0.5491 0.1426 0.0
C224 C 0.75042 0.55206 0.17275 0.0
C225 C 0.72564 0.55687 0.14875 0.0
C226 C 0.74348 0.55899 0.12184 0.0
C227 C 0.78483 0.55517 0.11912 0.0
C228 C 0.73273 0.54994 0.20178 0.0
C229 C 0.71817 0.56414 0.09566 0.0
C230 C 0.59184 0.51551 0.13901 0.0
C231 C 0.59374 0.56017 0.14122 0.0
C232 C 0.6344 0.51366 0.14393 0.0
C233 C 0.67985 0.55764 0.15104 0.0
C234 C 0.68124 0.60259 0.15603 0.0
C235 C 0.63804 0.60333 0.1509 0.0
C236 C 0.6311 0.46491 0.13854 0.0
C237 C 0.72879 0.65026 0.16393 0.0
H238 H 0.80999 0.54358 0.18771 0.0
H239 H 0.79779 0.55604 0.09838 0.0
H240 H 0.7282 0.58153 0.20818 0.0
H241 H 0.69658 0.51656 0.20062 0.0
H242 H 0.75803 0.54972 0.21874 0.0
H243 H 0.73742 0.56659 0.07654 0.0
H244 H 0.68057 0.53241 0.09042 0.0
H245 H 0.71546 0.59722 0.10012 0.0
H246 H 0.55764 0.48226 0.13092 0.0
H247 H 0.63956 0.63791 0.15198 0.0
H248 H 0.65434 0.46214 0.15563 0.0
H249 H 0.64447 0.46106 0.11782 0.0
H250 H 0.59318 0.43418 0.13749 0.0
H251 H 0.75286 0.64765 0.18054 0.0
H252 H 0.7232 0.68064 0.17202 0.0
H253 H 0.7479 0.65916 0.14466 0.0
C254 C 0.33614 0.83267 0.51359 0.0
C255 C 0.34917 0.8428 0.48618 0.0
C256 C 0.29071 0.79295 0.51693 0.0
C257 C 0.25761 0.76237 0.49229 0.0
C258 C 0.27031 0.77286 0.46461 0.0
C259 C 0.31572 0.81293 0.46192 0.0
C260 C 0.27835 0.78336 0.54677 0.0
C261 C 0.23616 0.74121 0.43772 0.0
C262 C 0.15884 0.63033 0.48891 0.0
C263 C 0.11699 0.63352 0.48528 0.0
C264 C 0.20533 0.67253 0.49369 0.0
C265 C 0.2098 0.71886 0.49494 0.0
C266 C 0.16741 0.72224 0.49422 0.0
C267 C 0.12146 0.67945 0.48913 0.0
C268 C 0.24943 0.66713 0.49439 0.0
C269 C 0.17036 0.77076 0.49596 0.0
H270 H 0.36165 0.85555 0.53251 0.0
H271 H 0.32532 0.82029 0.44066 0.0
H272 H 0.24344 0.78158 0.54966 0.0
H273 H 0.27347 0.74757 0.54977 0.0
H274 H 0.30701 0.81185 0.56375 0.0
H275 H 0.25139 0.75435 0.41783 0.0
H276 H 0.22818 0.70329 0.43693 0.0
H277 H 0.20111 0.7402 0.43796 0.0
H278 H 0.15536 0.59478 0.48535 0.0
H279 H 0.08904 0.68183 0.48585 0.0
H280 H 0.2783 0.69417 0.51171 0.0
H281 H 0.26446 0.67405 0.47369 0.0
H282 H 0.2405 0.63004 0.49766 0.0
H283 H 0.19962 0.79815 0.513 0.0
H284 H 0.13545 0.76798 0.50034 0.0
H285 H 0.17921 0.78429 0.47524 0.0
C286 C 0.60919 0.35126 0.87981 0.0
C287 C 0.5963 0.36285 0.85421 0.0
C288 C 0.60583 0.30621 0.88036 0.0
C289 C 0.58974 0.27237 0.85464 0.0
C290 C 0.57395 0.28273 0.82915 0.0
C291 C 0.57726 0.32784 0.82928 0.0
C292 C 0.62202 0.29602 0.90805 0.0
C293 C 0.55626 0.24736 0.80126 0.0
C294 C 0.63856 0.18997 0.83534 0.0
C295 C 0.59719 0.14427 0.83484 0.0
C296 C 0.63808 0.23255 0.84446 0.0
C297 C 0.59498 0.22899 0.85305 0.0
C298 C 0.55483 0.18292 0.85543 0.0
C299 C 0.55638 0.14077 0.84615 0.0
C300 C 0.68192 0.281 0.84194 0.0
C301 C 0.50863 0.17773 0.86502 0.0
H302 H 0.62327 0.37792 0.89931 0.0
H303 H 0.56683 0.33638 0.8095 0.0
H304 H 0.59642 0.25821 0.91127 0.0
H305 H 0.6582 0.29978 0.90703 0.0
H306 H 0.62493 0.32163 0.92696 0.0
H307 H 0.54189 0.25933 0.78397 0.0
H308 H 0.58666 0.24362 0.79394 0.0
H309 H 0.52722 0.2108 0.80446 0.0
H310 H 0.66995 0.19226 0.82644 0.0
H311 H 0.5243 0.10519 0.84548 0.0
H312 H 0.69109 0.30795 0.86154 0.0
H313 H 0.67356 0.29534 0.82349 0.0
H314 H 0.71431 0.27795 0.83849 0.0
H315 H 0.51669 0.20703 0.88304 0.0
H316 H 0.48573 0.14186 0.87183 0.0
H317 H 0.4873 0.18084 0.84691 0.0
C318 C 0.51209 0.79854 0.47412 0.0
C319 C 0.54051 0.84708 0.48774 0.0
C320 C 0.52471 0.76402 0.4794 0.0
C321 C 0.56733 0.77878 0.49825 0.0
C322 C 0.59808 0.82848 0.51032 0.0
C323 C 0.58394 0.86201 0.50522 0.0
C324 C 0.49053 0.71124 0.4665 0.0
C325 C 0.64448 0.84578 0.52992 0.0
C326 C 0.56448 0.68728 0.54298 0.0
C327 C 0.5893 0.66891 0.52776 0.0
C328 C 0.55702 0.72294 0.53349 0.0
C329 C 0.57602 0.74148 0.50843 0.0
C330 C 0.60223 0.72378 0.49319 0.0
C331 C 0.60822 0.68716 0.5029 0.0
C332 C 0.52819 0.74025 0.55011 0.0
C333 C 0.62386 0.74355 0.46676 0.0
H334 H 0.47845 0.78687 0.46058 0.0
H335 H 0.60633 0.89971 0.51546 0.0
H336 H 0.51081 0.69511 0.45665 0.0
H337 H 0.4726 0.69037 0.48372 0.0
H338 H 0.46189 0.70658 0.44991 0.0
H339 H 0.66784 0.88612 0.53382 0.0
H340 H 0.63557 0.83337 0.55091 0.0
H341 H 0.66548 0.83 0.52065 0.0
H342 H 0.55013 0.67283 0.56216 0.0
H343 H 0.6279 0.67316 0.49126 0.0
H344 H 0.49628 0.73411 0.53582 0.0
H345 H 0.55089 0.77994 0.55805 0.0
H346 H 0.51509 0.72127 0.5688 0.0
H347 H 0.59462 0.73644 0.44983 0.0
H348 H 0.6446 0.72707 0.45795 0.0
H349 H 0.64849 0.78362 0.47195 0.0
C350 C 0.77794 0.54588 0.8351 0.0
C351 C 0.75189 0.53532 0.80793 0.0
C352 C 0.82615 0.55681 0.83803 0.0
C353 C 0.84952 0.55915 0.81318 0.0
C354 C 0.8244 0.55185 0.78576 0.0
C355 C 0.77528 0.53877 0.78339 0.0
C356 C 0.85105 0.56308 0.86768 0.0
C357 C 0.84852 0.55605 0.75887 0.0
C358 C 0.98237 0.61486 0.83896 0.0
C359 C 0.98437 0.57284 0.84102 0.0
C360 C 0.94 0.61138 0.82607 0.0
C361 C 0.89846 0.56478 0.81639 0.0
C362 C 0.90213 0.52266 0.81595 0.0
C363 C 0.94545 0.52734 0.82802 0.0
C364 C 0.93823 0.6572 0.82536 0.0
C365 C 0.85866 0.47223 0.80608 0.0
H366 H 0.75972 0.54277 0.85408 0.0
H367 H 0.75508 0.53085 0.76235 0.0
H368 H 0.86191 0.5354 0.86829 0.0
H369 H 0.8846 0.59944 0.87293 0.0
H370 H 0.82738 0.5594 0.88466 0.0
H371 H 0.83038 0.56435 0.7415 0.0
H372 H 0.88759 0.58477 0.76305 0.0
H373 H 0.84596 0.52096 0.751 0.0
H374 H 0.01277 0.65006 0.84895 0.0
H375 H 0.94717 0.49492 0.82984 0.0
H376 H 0.92041 0.66282 0.84365 0.0
H377 H 0.91663 0.65421 0.80523 0.0
H378 H 0.97527 0.6897 0.82712 0.0
H379 H 0.83216 0.46376 0.8218 0.0
H380 H 0.86891 0.44389 0.80411 0.0
H381 H 0.84009 0.4702 0.78503 0.0
C382 C 0.18548 0.78498 0.16449 0.0
C383 C 0.16828 0.74795 0.14065 0.0
C384 C 0.23329 0.82441 0.16824 0.0
C385 C 0.26448 0.82669 0.14765 0.0
C386 C 0.24605 0.79177 0.12229 0.0
C387 C 0.19797 0.75272 0.11905 0.0
C388 C 0.2515 0.86141 0.19543 0.0
C389 C 0.27803 0.79324 0.09972 0.0
C390 C 0.38629 0.94412 0.16126 0.0
C391 C 0.41267 0.93163 0.17955 0.0
C392 C 0.33859 0.90931 0.14887 0.0
C393 C 0.31743 0.86126 0.15496 0.0
C394 C 0.34557 0.84771 0.17148 0.0
C395 C 0.39287 0.88326 0.18373 0.0
C396 C 0.30982 0.92483 0.13109 0.0
C397 C 0.32462 0.79651 0.17797 0.0
H398 H 0.16249 0.78183 0.18106 0.0
H399 H 0.18476 0.72446 0.10038 0.0
H400 H 0.27716 0.85665 0.20953 0.0
H401 H 0.27157 0.89892 0.19039 0.0
H402 H 0.22145 0.85765 0.20757 0.0
H403 H 0.25623 0.7705 0.07895 0.0
H404 H 0.30247 0.83108 0.09609 0.0
H405 H 0.30121 0.77908 0.10717 0.0
H406 H 0.40177 0.98169 0.15814 0.0
H407 H 0.41373 0.87377 0.19769 0.0
H408 H 0.2837 0.92851 0.14402 0.0
H409 H 0.28844 0.89703 0.1118 0.0
H410 H 0.33367 0.96032 0.12411 0.0
H411 H 0.29621 0.78891 0.1923 0.0
H412 H 0.35273 0.79088 0.18865 0.0
H413 H 0.30707 0.76957 0.15792 0.0
C414 C 0.55719 0.23284 0.45269 0.0
C415 C 0.53191 0.20562 0.4736 0.0
C416 C 0.57118 0.28206 0.45451 0.0
C417 C 0.55947 0.3043 0.47774 0.0
C418 C 0.53094 0.27602 0.49771 0.0
C419 C 0.51758 0.22702 0.49541 0.0
C420 C 0.60129 0.31077 0.4327 0.0
C421 C 0.51714 0.29827 0.52264 0.0
C422 C 0.63784 0.43389 0.51485 0.0
C423 C 0.60831 0.45288 0.50826 0.0
C424 C 0.62483 0.38665 0.50258 0.0
C425 C 0.58107 0.35788 0.4835 0.0
C426 C 0.55416 0.37891 0.47431 0.0
C427 C 0.56815 0.42643 0.48687 0.0
C428 C 0.65524 0.36595 0.51238 0.0
C429 C 0.50802 0.34975 0.45344 0.0
H430 H 0.56841 0.21655 0.43572 0.0
H431 H 0.49765 0.20602 0.51145 0.0
H432 H 0.59165 0.33786 0.42738 0.0
H433 H 0.64027 0.33089 0.44178 0.0
H434 H 0.59672 0.28659 0.41258 0.0
H435 H 0.49173 0.27051 0.53487 0.0
H436 H 0.55034 0.32513 0.53755 0.0
H437 H 0.49983 0.318 0.51486 0.0
H438 H 0.66921 0.45473 0.53119 0.0
H439 H 0.54528 0.44116 0.48179 0.0
H440 H 0.66092 0.34587 0.49381 0.0
H441 H 0.63587 0.33974 0.52706 0.0
H442 H 0.6913 0.39476 0.52396 0.0
H443 H 0.51236 0.32711 0.4357 0.0
H444 H 0.49705 0.3736 0.44416 0.0
H445 H 0.47819 0.32479 0.4648 0.0
C446 C 0.3355 0.45942 0.84735 0.0
C447 C 0.3753 0.49945 0.86496 0.0
C448 C 0.28807 0.45026 0.84884 0.0
C449 C 0.28074 0.48242 0.86797 0.0
C450 C 0.32043 0.52092 0.88704 0.0
C451 C 0.36711 0.52859 0.88551 0.0
C452 C 0.24635 0.4079 0.82885 0.0
C453 C 0.31425 0.55621 0.90775 0.0
C454 C 0.18434 0.51359 0.85112 0.0
C455 C 0.15429 0.49392 0.87226 0.0
C456 C 0.22394 0.50704 0.84806 0.0
C457 C 0.2331 0.47969 0.86633 0.0
C458 C 0.20034 0.45633 0.88594 0.0
C459 C 0.16156 0.46432 0.88891 0.0
C460 C 0.25822 0.53283 0.82699 0.0
C461 C 0.20812 0.42578 0.90518 0.0
H462 H 0.34152 0.43638 0.83164 0.0
H463 H 0.39758 0.55921 0.89946 0.0
H464 H 0.21423 0.38875 0.84025 0.0
H465 H 0.23549 0.42153 0.81097 0.0
H466 H 0.25635 0.38136 0.81951 0.0
H467 H 0.34837 0.58257 0.92215 0.0
H468 H 0.30258 0.57694 0.89552 0.0
H469 H 0.28553 0.53625 0.92121 0.0
H470 H 0.17879 0.5366 0.8382 0.0
H471 H 0.138 0.44915 0.90512 0.0
H472 H 0.26591 0.50744 0.81368 0.0
H473 H 0.29335 0.56274 0.83896 0.0
H474 H 0.24343 0.54861 0.81251 0.0
H475 H 0.21883 0.40183 0.89301 0.0
H476 H 0.17497 0.40288 0.915 0.0
H477 H 0.23807 0.44992 0.92274 0.0
C478 C 0.76772 0.34185 0.13101 0.0
C479 C 0.81742 0.36389 0.14055 0.0
C480 C 0.73433 0.29657 0.13799 0.0
C481 C 0.75143 0.27245 0.15421 0.0
C482 C 0.80199 0.2925 0.16151 0.0
C483 C 0.83447 0.33851 0.15497 0.0
C484 C 0.68064 0.27681 0.13026 0.0
C485 C 0.82161 0.26701 0.17794 0.0
C486 C 0.66992 0.20086 0.2067 0.0
C487 C 0.64544 0.15372 0.19129 0.0
C488 C 0.70486 0.23978 0.1949 0.0
C489 C 0.71649 0.23074 0.16727 0.0
C490 C 0.69329 0.18261 0.15202 0.0
C491 C 0.65735 0.14448 0.16409 0.0
C492 C 0.72819 0.29072 0.21166 0.0
C493 C 0.70601 0.1716 0.12295 0.0
H494 H 0.7545 0.3615 0.11986 0.0
H495 H 0.87306 0.35534 0.16199 0.0
H496 H 0.66161 0.23774 0.12068 0.0
H497 H 0.66459 0.27975 0.15005 0.0
H498 H 0.67354 0.29699 0.11492 0.0
H499 H 0.86117 0.28252 0.17714 0.0
H500 H 0.81578 0.2709 0.20078 0.0
H501 H 0.80217 0.2275 0.16927 0.0
H502 H 0.66033 0.20733 0.22771 0.0
H503 H 0.63867 0.10765 0.15233 0.0
H504 H 0.7209 0.31397 0.19902 0.0
H505 H 0.76819 0.30723 0.2156 0.0
H506 H 0.71453 0.29137 0.2327 0.0
H507 H 0.69531 0.18857 0.10707 0.0
H508 H 0.68759 0.13185 0.11504 0.0
H509 H 0.7459 0.18749 0.12398 0.0
C510 C 0.01286 0.61776 0.07848 0.0
C511 C 0.99776 0.57329 0.08812 0.0
C512 C 0.02496 0.62381 0.05054 0.0
C513 C 0.02205 0.58449 0.03198 0.0
C514 C 0.00832 0.54004 0.04196 0.0
C515 C 0.99597 0.53486 0.06986 0.0
C516 C 0.03911 0.6716 0.04059 0.0
C517 C 0.00548 0.4975 0.02292 0.0
C518 C 0.99685 0.57095 0.9512 0.0
C519 C 0.04285 0.58534 0.94283 0.0
C520 C 0.99011 0.57267 0.98025 0.0
C521 C 0.03016 0.58837 0.00151 0.0
C522 C 0.07699 0.60445 0.99336 0.0
C523 C 0.08283 0.60302 0.96411 0.0
C524 C 0.93966 0.55573 0.98812 0.0
C525 C 0.12052 0.6213 0.01545 0.0
H526 H 0.01397 0.64745 0.09252 0.0
H527 H 0.98459 0.50055 0.07735 0.0
H528 H 0.07374 0.68557 0.03123 0.0
H529 H 0.01083 0.66597 0.02343 0.0
H530 H 0.04333 0.69974 0.05833 0.0
H531 H 0.99741 0.46669 0.03458 0.0
H532 H 0.97659 0.4843 0.00445 0.0
H533 H 0.04029 0.50906 0.01406 0.0
H534 H 0.96555 0.55647 0.935 0.0
H535 H 0.11863 0.61495 0.95786 0.0
H536 H 0.94042 0.58331 0.00483 0.0
H537 H 0.9263 0.5216 0.99725 0.0
H538 H 0.91336 0.54881 0.96929 0.0
H539 H 0.12364 0.64965 0.03257 0.0
H540 H 0.155 0.63619 0.00582 0.0
H541 H 0.11578 0.59025 0.02589 0.0
C542 C 0.47242 0.02422 0.41225 0.0
C543 C 0.50691 0.01778 0.4275 0.0
C544 C 0.47305 0.02715 0.38285 0.0
C545 C 0.50987 0.02491 0.36878 0.0
C546 C 0.54649 0.02142 0.38459 0.0
C547 C 0.54412 0.01714 0.41371 0.0
C548 C 0.43286 0.02989 0.36657 0.0
C549 C 0.58718 0.02046 0.37052 0.0
C550 C 0.48354 0.97266 0.28964 0.0
C551 C 0.50524 0.0148 0.27689 0.0
C552 C 0.48387 0.9756 0.31945 0.0
C553 C 0.50779 0.02183 0.33712 0.0
C554 C 0.53046 0.06458 0.32458 0.0
C555 C 0.52837 0.06057 0.29458 0.0
C556 C 0.45867 0.92913 0.33204 0.0
C557 C 0.55716 0.11446 0.34286 0.0
H558 H 0.4436 0.02464 0.42298 0.0
H559 H 0.57121 0.01285 0.42567 0.0
H560 H 0.44822 0.06024 0.354 0.0
H561 H 0.41008 0.99573 0.35105 0.0
H562 H 0.40916 0.03504 0.38105 0.0
H563 H 0.61564 0.02322 0.38646 0.0
H564 H 0.57234 0.98601 0.3552 0.0
H565 H 0.60436 0.05086 0.35807 0.0
H566 H 0.46645 0.93713 0.27632 0.0
H567 H 0.5445 0.09341 0.285 0.0
H568 H 0.43198 0.92983 0.34574 0.0
H569 H 0.48565 0.92595 0.34593 0.0
H570 H 0.43934 0.89622 0.31521 0.0
H571 H 0.53194 0.11994 0.35572 0.0
H572 H 0.57363 0.1441 0.32978 0.0
H573 H 0.5864 0.11754 0.35825 0.0
C574 C 0.58394 0.49105 0.74084 0.0
C575 C 0.54882 0.50132 0.75 0.0
C576 C 0.59498 0.49341 0.71253 0.0
C577 C 0.5699 0.50594 0.69283 0.0
C578 C 0.53323 0.51477 0.70163 0.0
C579 C 0.52316 0.51238 0.73009 0.0
C580 C 0.63423 0.48361 0.70389 0.0
C581 C 0.50544 0.52794 0.68117 0.0
C582 C 0.62702 0.56157 0.62836 0.0
C583 C 0.60174 0.52174 0.60609 0.0
C584 C 0.61785 0.55665 0.65685 0.0
C585 C 0.58248 0.51083 0.66314 0.0
C586 C 0.55756 0.47028 0.64084 0.0
C587 C 0.56745 0.47624 0.61257 0.0
C588 C 0.64527 0.60068 0.68013 0.0
C589 C 0.51943 0.42094 0.64669 0.0
H590 H 0.60335 0.48191 0.75594 0.0
H591 H 0.49584 0.52032 0.73687 0.0
H592 H 0.61967 0.45428 0.68494 0.0
H593 H 0.66439 0.51673 0.69754 0.0
H594 H 0.64924 0.47279 0.72151 0.0
H595 H 0.4768 0.53193 0.6911 0.0
H596 H 0.53084 0.56273 0.67404 0.0
H597 H 0.48809 0.49961 0.66171 0.0
H598 H 0.65383 0.59667 0.62345 0.0
H599 H 0.54722 0.4455 0.59538 0.0
H600 H 0.66354 0.59269 0.69754 0.0
H601 H 0.61947 0.60966 0.6898 0.0
H602 H 0.67308 0.63314 0.67187 0.0
H603 H 0.53465 0.40946 0.66379 0.0
H604 H 0.50533 0.39253 0.62723 0.0
H605 H 0.48851 0.42304 0.65457 0.0
C606 C 0.53619 0.0807 0.60352 0.0
C607 C 0.54841 0.05186 0.58557 0.0
C608 C 0.54339 0.08454 0.63351 0.0
C609 C 0.56452 0.06003 0.64565 0.0
C610 C 0.57869 0.03246 0.62758 0.0
C611 C 0.56984 0.02817 0.59773 0.0
C612 C 0.52684 0.11335 0.65213 0.0
C613 C 0.60244 0.00682 0.63977 0.0
C614 C 0.61698 0.09893 0.72447 0.0
C615 C 0.58062 0.06164 0.73669 0.0
C616 C 0.61236 0.09888 0.69477 0.0
C617 C 0.56986 0.06125 0.67717 0.0
C618 C 0.53274 0.0239 0.68957 0.0
C619 C 0.53885 0.02428 0.71921 0.0
C620 C 0.65313 0.13864 0.68218 0.0
C621 C 0.4865 0.98369 0.67155 0.0
H622 H 0.51936 0.09879 0.59409 0.0
H623 H 0.57978 0.00626 0.58383 0.0
H624 H 0.49799 0.08881 0.66419 0.0
H625 H 0.55742 0.14157 0.6682 0.0
H626 H 0.51237 0.13141 0.63937 0.0
H627 H 0.61456 0.98996 0.62286 0.0
H628 H 0.63436 0.03287 0.65578 0.0
H629 H 0.57649 0.97787 0.65109 0.0
H630 H 0.64929 0.12772 0.73816 0.0
H631 H 0.51056 0.99584 0.72887 0.0
H632 H 0.63949 0.15869 0.67084 0.0
H633 H 0.66695 0.12239 0.66607 0.0
H634 H 0.68387 0.16505 0.69883 0.0
H635 H 0.46862 -0.0005 0.65954 0.0
H636 H 0.46036 0.95863 0.68474 0.0
H637 H 0.49507 0.96215 0.65547 0.0
C638 C 0.59779 0.57039 0.92342 0.0
C639 C 0.56072 0.53803 0.9014 0.0
C640 C 0.5872 0.57797 0.95122 0.0
C641 C 0.53846 0.55191 0.95703 0.0
C642 C 0.50068 0.52078 0.93448 0.0
C643 C 0.51244 0.51381 0.90691 0.0
C644 C 0.6285 0.61149 0.97472 0.0
C645 C 0.4483 0.4925 0.93981 0.0
C646 C 0.52658 0.52093 0.03201 0.0
C647 C 0.51909 0.55677 0.04622 0.0
C648 C 0.53137 0.51812 0.00274 0.0
C649 C 0.52831 0.55187 0.98724 0.0
C650 C 0.51858 0.58682 0.00112 0.0
C651 C 0.5141 0.5889 0.03058 0.0
C652 C 0.54139 0.48005 0.98867 0.0
C653 C 0.51483 0.62312 0.98515 0.0
H654 H 0.63521 0.58869 0.91904 0.0
H655 H 0.48419 0.48739 0.89001 0.0
H656 H 0.62 0.63684 0.98737 0.0
H657 H 0.63351 0.58965 0.98968 0.0
H658 H 0.66332 0.63315 0.96606 0.0
H659 H 0.4229 0.47478 0.91947 0.0
H660 H 0.44328 0.46386 0.95265 0.0
H661 H 0.43838 0.51676 0.95237 0.0
H662 H 0.52947 0.49544 0.04397 0.0
H663 H 0.50842 0.61672 0.04158 0.0
H664 H 0.57778 0.49807 0.9813 0.0
H665 H 0.51427 0.45798 0.96946 0.0
H666 H 0.54041 0.45516 0.00347 0.0
H667 H 0.55098 0.64879 0.97925 0.0
H668 H 0.50208 0.64444 -0.0018 0.0
H669 H 0.48954 0.6043 0.96487 0.0
C670 C 0.04992 0.59546 0.26109 0.0
C671 C 0.0054 0.57335 0.24324 0.0
C672 C 0.05159 0.59052 0.2902 0.0
C673 C 0.00766 0.56353 0.30179 0.0
C674 C 0.9626 0.5416 0.28397 0.0
C675 C 0.96202 0.54645 0.25485 0.0
C676 C 0.10037 0.61383 0.3085 0.0
C677 C 0.91501 0.51323 0.2957 0.0
C678 C 0.01313 0.5158 0.371 0.0
C679 C 0.01555 0.55218 0.39149 0.0
C680 C 0.01024 0.51883 0.34162 0.0
C681 C 0.00889 0.55874 0.33267 0.0
C682 C 0.00979 0.59475 0.3533 0.0
C683 C 0.01355 0.59124 0.38252 0.0
C684 C 0.01006 0.48013 0.32026 0.0
C685 C 0.00751 0.63734 0.34454 0.0
H686 H 0.08357 0.61591 0.25219 0.0
H687 H 0.92746 0.52943 0.24119 0.0
H688 H 0.10305 0.64068 0.32652 0.0
H689 H 0.10415 0.58575 0.31807 0.0
H690 H 0.13116 0.63266 0.29604 0.0
H691 H 0.88307 0.4989 0.27905 0.0
H692 H 0.91357 0.48218 0.30464 0.0
H693 H 0.91212 0.53682 0.31355 0.0
H694 H 0.01519 0.4859 0.37807 0.0
H695 H 0.01518 0.61919 0.39847 0.0
H696 H 0.04246 0.49691 0.30879 0.0
H697 H 0.97751 0.46333 0.30387 0.0
H698 H 0.01029 0.45097 0.33069 0.0
H699 H 0.0399 0.65992 0.3341 0.0
H700 H 0.00609 0.6608 0.36313 0.0
H701 H 0.97499 0.6241 0.32857 0.0
loop_
_geom_bond_atom_site_label_1
_geom_bond_atom_site_label_2
_geom_bond_distance
_geom_bond_site_symmetry_2
_ccdc_geom_bond_type
Zn0 O6 1.969 . S
Zn0 O7 1.965 . S
Zn0 O11 2.024 . S
Zn0 O16 1.969 . S
Zn1 O8 1.969 . S
Zn1 O14 1.969 . S
Zn1 O15 1.965 . S
Zn1 O17 2.024 . S
C2 O3 1.229 . S
C2 O11 1.058 . S
O3 C2 1.229 . S
C4 O5 1.229 . S
C4 O17 1.058 . S
O5 C4 1.229 . S
O6 Zn0 1.969 . S
O6 C9 1.267 . S
O7 Zn0 1.965 . S
O7 C18 1.260 . S
O8 Zn1 1.969 . S
O8 C18 1.258 1_655 S
C9 O6 1.267 . S
C9 O10 1.228 . S
O10 C9 1.228 . S
O11 Zn0 2.024 . S
O11 C2 1.058 . S
C12 O13 1.228 . S
C12 O14 1.267 . S
O13 C12 1.228 . S
O14 Zn1 1.969 . S
O14 C12 1.267 . S
O15 Zn1 1.965 . S
O15 C19 1.260 1_655 S
O16 Zn0 1.969 . S
O16 C19 1.258 . S
O17 Zn1 2.024 . S
O17 C4 1.058 . S
C18 O7 1.260 . S
C18 O8 1.258 1_455 S
C19 O15 1.260 1_455 S
C19 O16 1.258 . S
Zn20 O26 1.969 . S
Zn20 O27 1.965 . S
Zn20 O31 2.024 . S
Zn20 O36 1.969 . S
Zn21 O28 1.969 . S
Zn21 O34 1.969 . S
Zn21 O35 1.965 1_565 S
Zn21 O37 2.024 . S
C22 O23 1.229 . S
C22 O31 1.058 . S
O23 C22 1.229 . S
C24 O25 1.229 . S
C24 O37 1.058 . S
O25 C24 1.229 . S
O26 Zn20 1.969 . S
O26 C29 1.267 . S
O27 Zn20 1.965 . S
O27 C38 1.260 . S
O28 Zn21 1.969 . S
O28 C38 1.258 1_565 S
C29 O26 1.267 . S
C29 O30 1.228 . S
O30 C29 1.228 . S
O31 Zn20 2.024 . S
O31 C22 1.058 . S
C32 O33 1.228 . S
C32 O34 1.267 . S
O33 C32 1.228 . S
O34 Zn21 1.969 . S
O34 C32 1.267 . S
O35 Zn21 1.965 1_545 S
O35 C39 1.260 . S
O36 Zn20 1.969 . S
O36 C39 1.258 . S
O37 Zn21 2.024 . S
O37 C24 1.058 . S
C38 O27 1.260 . S
C38 O28 1.258 1_545 S
C39 O35 1.260 . S
C39 O36 1.258 . S
Zn40 O46 1.969 . S
Zn40 O47 1.965 . S
Zn40 O51 2.024 . S
Zn40 O56 1.969 . S
Zn41 O48 1.969 . S
Zn41 O54 1.969 . S
Zn41 O55 1.965 . S
Zn41 O57 2.024 . S
C42 O43 1.229 . S
C42 O51 1.058 . S
O43 C42 1.229 . S
C44 O45 1.229 . S
C44 O57 1.058 . S
O45 C44 1.229 . S
O46 Zn40 1.969 . S
O46 C49 1.267 . S
O47 Zn40 1.965 . S
O47 C58 1.260 . S
O48 Zn41 1.969 . S
O48 C58 1.258 . S
C49 O46 1.267 . S
C49 O50 1.228 . S
O50 C49 1.228 . S
O51 Zn40 2.024 . S
O51 C42 1.058 . S
C52 O53 1.228 . S
C52 O54 1.267 . S
O53 C52 1.228 . S
O54 Zn41 1.969 . S
O54 C52 1.267 . S
O55 Zn41 1.965 . S
O55 C59 1.260 . S
O56 Zn40 1.969 . S
O56 C59 1.258 . S
O57 Zn41 2.024 . S
O57 C44 1.058 . S
C58 O47 1.260 . S
C58 O48 1.258 . S
C59 O55 1.260 . S
C59 O56 1.258 . S
H60 C65 0.929 . S
H61 C70 0.931 1_565 S
H62 C68 0.930 . S
N63 N64 1.234 . S
N63 C67 1.453 . S
N64 N63 1.234 . S
C65 H60 0.929 . S
C65 C66 1.373 1_545 S
C65 C67 1.368 . S
C66 C65 1.373 1_565 S
C66 C70 1.397 1_565 S
C67 N63 1.453 . S
C67 C65 1.368 . S
C67 C68 1.373 . S
C68 H62 0.930 . S
C68 C67 1.373 . S
C68 C69 1.371 . S
C69 C68 1.371 . S
C69 C70 1.383 . S
C70 H61 0.931 1_545 S
C70 C66 1.397 1_545 S
C70 C69 1.383 . S
H71 C76 0.929 . S
H72 C81 0.931 . S
H73 C79 0.930 . S
N74 N75 1.234 . S
N74 C78 1.453 . S
N75 N74 1.234 . S
C76 H71 0.929 . S
C76 C77 1.373 . S
C76 C78 1.368 . S
C77 C76 1.373 . S
C77 C81 1.397 . S
C78 N74 1.453 . S
C78 C76 1.368 . S
C78 C79 1.373 . S
C79 H73 0.930 . S
C79 C78 1.373 . S
C79 C80 1.371 . S
C80 C79 1.371 . S
C80 C81 1.383 . S
C81 H72 0.931 . S
C81 C77 1.397 . S
C81 C80 1.383 . S
H82 C87 0.929 . S
H83 C92 0.931 1_655 S
H84 C90 0.930 . S
N85 N86 1.234 . S
N85 C89 1.453 . S
N86 N85 1.234 . S
C87 H82 0.929 . S
C87 C88 1.373 1_455 S
C87 C89 1.368 . S
C88 C87 1.373 1_655 S
C88 C92 1.397 1_655 S
C89 N85 1.453 . S
C89 C87 1.368 . S
C89 C90 1.373 . S
C90 H84 0.930 . S
C90 C89 1.373 . S
C90 C91 1.371 . S
C91 C90 1.371 . S
C91 C92 1.383 . S
C92 H83 0.931 1_455 S
C92 C88 1.397 1_455 S
C92 C91 1.383 . S
H93 C98 0.929 . S
H94 C103 0.931 . S
H95 C101 0.930 1_655 S
N96 N97 1.234 . S
N96 C100 1.453 1_655 S
N97 N96 1.234 . S
C98 H93 0.929 . S
C98 C99 1.373 . S
C98 C100 1.368 . S
C99 C98 1.373 . S
C99 C103 1.397 . S
C100 N96 1.453 1_455 S
C100 C98 1.368 . S
C100 C101 1.373 . S
C101 H95 0.930 1_455 S
C101 C100 1.373 . S
C101 C102 1.371 . S
C102 C101 1.371 . S
C102 C103 1.383 . S
C103 H94 0.931 . S
C103 C99 1.397 . S
C103 C102 1.383 . S
H104 C109 0.929 . S
H105 C114 0.931 . S
H106 C112 0.930 1_565 S
N107 N108 1.234 . S
N107 C111 1.453 1_565 S
N108 N107 1.234 . S
C109 H104 0.929 . S
C109 C110 1.373 . S
C109 C111 1.368 . S
C110 C109 1.373 . S
C110 C114 1.397 . S
C111 N107 1.453 1_545 S
C111 C109 1.368 . S
C111 C112 1.373 . S
C112 H106 0.930 1_545 S
C112 C111 1.373 . S
C112 C113 1.371 . S
C113 C112 1.371 . S
C113 C114 1.383 . S
C114 H105 0.931 . S
C114 C110 1.397 . S
C114 C113 1.383 . S
H115 C120 0.929 . S
H116 C125 0.931 . S
H117 C123 0.930 . S
N118 N119 1.234 . S
N118 C122 1.453 . S
N119 N118 1.234 . S
C120 H115 0.929 . S
C120 C121 1.373 . S
C120 C122 1.368 . S
C121 C120 1.373 . S
C121 C125 1.397 . S
C122 N118 1.453 . S
C122 C120 1.368 . S
C122 C123 1.373 . S
C123 H117 0.930 . S
C123 C122 1.373 . S
C123 C124 1.371 . S
C124 C123 1.371 . S
C124 C125 1.383 . S
C125 H116 0.931 . S
C125 C121 1.397 . S
C125 C124 1.383 . S
C126 C127 1.391 . S
C126 C128 1.394 . S
C126 H142 0.931 . S
C127 C126 1.391 . S
C127 C131 1.376 . S
C128 C126 1.394 . S
C128 C129 1.369 . S
C128 C132 1.531 . S
C129 C128 1.369 . S
C129 C130 1.410 . S
C129 C137 1.503 . S
C130 C129 1.410 . S
C130 C131 1.392 . S
C130 C133 1.511 . S
C131 C127 1.376 . S
C131 C130 1.392 . S
C131 H143 0.929 . S
C132 C128 1.531 . S
C132 H144 0.960 . S
C132 H145 0.962 . S
C132 H146 0.960 . S
C133 C130 1.511 . S
C133 H147 0.961 . S
C133 H148 0.961 . S
C133 H149 0.961 . S
C134 C135 1.370 . S
C134 C136 1.363 . S
C134 H150 0.931 . S
C135 C134 1.370 . S
C135 C139 1.408 . S
C136 C134 1.363 . S
C136 C137 1.370 . S
C136 C140 1.524 . S
C137 C129 1.503 . S
C137 C136 1.370 . S
C137 C138 1.403 . S
C138 C137 1.403 . S
C138 C139 1.404 . S
C138 C141 1.539 . S
C139 C135 1.408 . S
C139 C138 1.404 . S
C139 H151 0.930 . S
C140 C136 1.524 . S
C140 H152 0.956 . S
C140 H153 0.961 . S
C140 H154 0.961 . S
C141 C138 1.539 . S
C141 H155 0.958 . S
C141 H156 0.961 . S
C141 H157 0.960 . S
H142 C126 0.931 . S
H143 C131 0.929 . S
H144 C132 0.960 . S
H145 C132 0.962 . S
H146 C132 0.960 . S
H147 C133 0.961 . S
H148 C133 0.961 . S
H149 C133 0.961 . S
H150 C134 0.931 . S
H151 C139 0.930 . S
H152 C140 0.956 . S
H153 C140 0.961 . S
H154 C140 0.961 . S
H155 C141 0.958 . S
H156 C141 0.961 . S
H157 C141 0.960 . S
C158 C159 1.391 . S
C158 C160 1.394 . S
C158 H174 0.931 . S
C159 C158 1.391 . S
C159 C163 1.376 . S
C160 C158 1.394 . S
C160 C161 1.369 . S
C160 C164 1.531 . S
C161 C160 1.369 . S
C161 C162 1.410 . S
C161 C169 1.503 . S
C162 C161 1.410 . S
C162 C163 1.392 . S
C162 C165 1.511 . S
C163 C159 1.376 . S
C163 C162 1.392 . S
C163 H175 0.929 . S
C164 C160 1.531 . S
C164 H176 0.960 . S
C164 H177 0.962 . S
C164 H178 0.960 . S
C165 C162 1.511 . S
C165 H179 0.961 . S
C165 H180 0.961 . S
C165 H181 0.961 . S
C166 C167 1.370 . S
C166 C168 1.363 . S
C166 H182 0.931 . S
C167 C166 1.370 . S
C167 C171 1.408 . S
C168 C166 1.363 . S
C168 C169 1.370 . S
C168 C172 1.524 . S
C169 C161 1.503 . S
C169 C168 1.370 . S
C169 C170 1.403 . S
C170 C169 1.403 . S
C170 C171 1.404 . S
C170 C173 1.539 . S
C171 C167 1.408 . S
C171 C170 1.404 . S
C171 H183 0.930 . S
C172 C168 1.524 . S
C172 H184 0.956 . S
C172 H185 0.961 . S
C172 H186 0.961 . S
C173 C170 1.539 . S
C173 H187 0.958 . S
C173 H188 0.961 . S
C173 H189 0.960 . S
H174 C158 0.931 . S
H175 C163 0.929 . S
H176 C164 0.960 . S
H177 C164 0.962 . S
H178 C164 0.960 . S
H179 C165 0.961 . S
H180 C165 0.961 . S
H181 C165 0.961 . S
H182 C166 0.931 . S
H183 C171 0.930 . S
H184 C172 0.956 . S
H185 C172 0.961 . S
H186 C172 0.961 . S
H187 C173 0.958 . S
H188 C173 0.961 . S
H189 C173 0.960 . S
C190 C191 1.391 . S
C190 C192 1.394 . S
C190 H206 0.931 . S
C191 C190 1.391 . S
C191 C195 1.376 . S
C192 C190 1.394 . S
C192 C193 1.369 . S
C192 C196 1.531 . S
C193 C192 1.369 . S
C193 C194 1.410 . S
C193 C201 1.503 . S
C194 C193 1.410 . S
C194 C195 1.392 . S
C194 C197 1.511 . S
C195 C191 1.376 . S
C195 C194 1.392 . S
C195 H207 0.929 . S
C196 C192 1.531 . S
C196 H208 0.960 . S
C196 H209 0.962 . S
C196 H210 0.960 . S
C197 C194 1.511 . S
C197 H211 0.961 . S
C197 H212 0.961 . S
C197 H213 0.961 . S
C198 C199 1.370 . S
C198 C200 1.363 . S
C198 H214 0.931 . S
C199 C198 1.370 . S
C199 C203 1.408 . S
C200 C198 1.363 . S
C200 C201 1.370 . S
C200 C204 1.524 . S
C201 C193 1.503 . S
C201 C200 1.370 . S
C201 C202 1.403 . S
C202 C201 1.403 . S
C202 C203 1.404 . S
C202 C205 1.539 . S
C203 C199 1.408 . S
C203 C202 1.404 . S
C203 H215 0.930 . S
C204 C200 1.524 . S
C204 H216 0.956 . S
C204 H217 0.961 . S
C204 H218 0.961 . S
C205 C202 1.539 . S
C205 H219 0.958 . S
C205 H220 0.961 . S
C205 H221 0.960 . S
H206 C190 0.931 . S
H207 C195 0.929 . S
H208 C196 0.960 . S
H209 C196 0.962 . S
H210 C196 0.960 . S
H211 C197 0.961 . S
H212 C197 0.961 . S
H213 C197 0.961 . S
H214 C198 0.931 . S
H215 C203 0.930 . S
H216 C204 0.956 . S
H217 C204 0.961 . S
H218 C204 0.961 . S
H219 C205 0.958 . S
H220 C205 0.961 . S
H221 C205 0.960 . S
C222 C223 1.391 . S
C222 C224 1.394 . S
C222 H238 0.931 . S
C223 C222 1.391 . S
C223 C227 1.376 . S
C224 C222 1.394 . S
C224 C225 1.369 . S
C224 C228 1.531 . S
C225 C224 1.369 . S
C225 C226 1.410 . S
C225 C233 1.503 . S
C226 C225 1.410 . S
C226 C227 1.392 . S
C226 C229 1.511 . S
C227 C223 1.376 . S
C227 C226 1.392 . S
C227 H239 0.929 . S
C228 C224 1.531 . S
C228 H240 0.960 . S
C228 H241 0.962 . S
C228 H242 0.960 . S
C229 C226 1.511 . S
C229 H243 0.961 . S
C229 H244 0.961 . S
C229 H245 0.961 . S
C230 C231 1.370 . S
C230 C232 1.363 . S
C230 H246 0.931 . S
C231 C230 1.370 . S
C231 C235 1.408 . S
C232 C230 1.363 . S
C232 C233 1.370 . S
C232 C236 1.524 . S
C233 C225 1.503 . S
C233 C232 1.370 . S
C233 C234 1.403 . S
C234 C233 1.403 . S
C234 C235 1.404 . S
C234 C237 1.539 . S
C235 C231 1.408 . S
C235 C234 1.404 . S
C235 H247 0.930 . S
C236 C232 1.524 . S
C236 H248 0.956 . S
C236 H249 0.961 . S
C236 H250 0.961 . S
C237 C234 1.539 . S
C237 H251 0.958 . S
C237 H252 0.961 . S
C237 H253 0.960 . S
H238 C222 0.931 . S
H239 C227 0.929 . S
H240 C228 0.960 . S
H241 C228 0.962 . S
H242 C228 0.960 . S
H243 C229 0.961 . S
H244 C229 0.961 . S
H245 C229 0.961 . S
H246 C230 0.931 . S
H247 C235 0.930 . S
H248 C236 0.956 . S
H249 C236 0.961 . S
H250 C236 0.961 . S
H251 C237 0.958 . S
H252 C237 0.961 . S
H253 C237 0.960 . S
C254 C255 1.391 . S
C254 C256 1.394 . S
C254 H270 0.931 . S
C255 C254 1.391 . S
C255 C259 1.376 . S
C256 C254 1.394 . S
C256 C257 1.369 . S
C256 C260 1.531 . S
C257 C256 1.369 . S
C257 C258 1.410 . S
C257 C265 1.503 . S
C258 C257 1.410 . S
C258 C259 1.392 . S
C258 C261 1.511 . S
C259 C255 1.376 . S
C259 C258 1.392 . S
C259 H271 0.929 . S
C260 C256 1.531 . S
C260 H272 0.960 . S
C260 H273 0.962 . S
C260 H274 0.960 . S
C261 C258 1.511 . S
C261 H275 0.961 . S
C261 H276 0.961 . S
C261 H277 0.961 . S
C262 C263 1.370 . S
C262 C264 1.363 . S
C262 H278 0.931 . S
C263 C262 1.370 . S
C263 C267 1.408 . S
C264 C262 1.363 . S
C264 C265 1.370 . S
C264 C268 1.524 . S
C265 C257 1.503 . S
C265 C264 1.370 . S
C265 C266 1.403 . S
C266 C265 1.403 . S
C266 C267 1.404 . S
C266 C269 1.539 . S
C267 C263 1.408 . S
C267 C266 1.404 . S
C267 H279 0.930 . S
C268 C264 1.524 . S
C268 H280 0.956 . S
C268 H281 0.961 . S
C268 H282 0.961 . S
C269 C266 1.539 . S
C269 H283 0.958 . S
C269 H284 0.961 . S
C269 H285 0.960 . S
H270 C254 0.931 . S
H271 C259 0.929 . S
H272 C260 0.960 . S
H273 C260 0.962 . S
H274 C260 0.960 . S
H275 C261 0.961 . S
H276 C261 0.961 . S
H277 C261 0.961 . S
H278 C262 0.931 . S
H279 C267 0.930 . S
H280 C268 0.956 . S
H281 C268 0.961 . S
H282 C268 0.961 . S
H283 C269 0.958 . S
H284 C269 0.961 . S
H285 C269 0.960 . S
C286 C287 1.391 . S
C286 C288 1.394 . S
C286 H302 0.931 . S
C287 C286 1.391 . S
C287 C291 1.376 . S
C288 C286 1.394 . S
C288 C289 1.369 . S
C288 C292 1.531 . S
C289 C288 1.369 . S
C289 C290 1.410 . S
C289 C297 1.503 . S
C290 C289 1.410 . S
C290 C291 1.392 . S
C290 C293 1.511 . S
C291 C287 1.376 . S
C291 C290 1.392 . S
C291 H303 0.929 . S
C292 C288 1.531 . S
C292 H304 0.960 . S
C292 H305 0.962 . S
C292 H306 0.960 . S
C293 C290 1.511 . S
C293 H307 0.961 . S
C293 H308 0.961 . S
C293 H309 0.961 . S
C294 C295 1.370 . S
C294 C296 1.363 . S
C294 H310 0.931 . S
C295 C294 1.370 . S
C295 C299 1.408 . S
C296 C294 1.363 . S
C296 C297 1.370 . S
C296 C300 1.524 . S
C297 C289 1.503 . S
C297 C296 1.370 . S
C297 C298 1.403 . S
C298 C297 1.403 . S
C298 C299 1.404 . S
C298 C301 1.539 . S
C299 C295 1.408 . S
C299 C298 1.404 . S
C299 H311 0.930 . S
C300 C296 1.524 . S
C300 H312 0.956 . S
C300 H313 0.961 . S
C300 H314 0.961 . S
C301 C298 1.539 . S
C301 H315 0.958 . S
C301 H316 0.961 . S
C301 H317 0.960 . S
H302 C286 0.931 . S
H303 C291 0.929 . S
H304 C292 0.960 . S
H305 C292 0.962 . S
H306 C292 0.960 . S
H307 C293 0.961 . S
H308 C293 0.961 . S
H309 C293 0.961 . S
H310 C294 0.931 . S
H311 C299 0.930 . S
H312 C300 0.956 . S
H313 C300 0.961 . S
H314 C300 0.961 . S
H315 C301 0.958 . S
H316 C301 0.961 . S
H317 C301 0.960 . S
C318 C319 1.391 . S
C318 C320 1.394 . S
C318 H334 0.931 . S
C319 C318 1.391 . S
C319 C323 1.376 . S
C320 C318 1.394 . S
C320 C321 1.369 . S
C320 C324 1.531 . S
C321 C320 1.369 . S
C321 C322 1.410 . S
C321 C329 1.503 . S
C322 C321 1.410 . S
C322 C323 1.392 . S
C322 C325 1.511 . S
C323 C319 1.376 . S
C323 C322 1.392 . S
C323 H335 0.929 . S
C324 C320 1.531 . S
C324 H336 0.960 . S
C324 H337 0.962 . S
C324 H338 0.960 . S
C325 C322 1.511 . S
C325 H339 0.961 . S
C325 H340 0.961 . S
C325 H341 0.961 . S
C326 C327 1.370 . S
C326 C328 1.363 . S
C326 H342 0.931 . S
C327 C326 1.370 . S
C327 C331 1.408 . S
C328 C326 1.363 . S
C328 C329 1.370 . S
C328 C332 1.524 . S
C329 C321 1.503 . S
C329 C328 1.370 . S
C329 C330 1.403 . S
C330 C329 1.403 . S
C330 C331 1.404 . S
C330 C333 1.539 . S
C331 C327 1.408 . S
C331 C330 1.404 . S
C331 H343 0.930 . S
C332 C328 1.524 . S
C332 H344 0.956 . S
C332 H345 0.961 . S
C332 H346 0.961 . S
C333 C330 1.539 . S
C333 H347 0.958 . S
C333 H348 0.961 . S
C333 H349 0.960 . S
H334 C318 0.931 . S
H335 C323 0.929 . S
H336 C324 0.960 . S
H337 C324 0.962 . S
H338 C324 0.960 . S
H339 C325 0.961 . S
H340 C325 0.961 . S
H341 C325 0.961 . S
H342 C326 0.931 . S
H343 C331 0.930 . S
H344 C332 0.956 . S
H345 C332 0.961 . S
H346 C332 0.961 . S
H347 C333 0.958 . S
H348 C333 0.961 . S
H349 C333 0.960 . S
C350 C351 1.391 . S
C350 C352 1.394 . S
C350 H366 0.931 . S
C351 C350 1.391 . S
C351 C355 1.376 . S
C352 C350 1.394 . S
C352 C353 1.369 . S
C352 C356 1.531 . S
C353 C352 1.369 . S
C353 C354 1.410 . S
C353 C361 1.503 . S
C354 C353 1.410 . S
C354 C355 1.392 . S
C354 C357 1.511 . S
C355 C351 1.376 . S
C355 C354 1.392 . S
C355 H367 0.929 . S
C356 C352 1.531 . S
C356 H368 0.960 . S
C356 H369 0.962 . S
C356 H370 0.960 . S
C357 C354 1.511 . S
C357 H371 0.961 . S
C357 H372 0.961 . S
C357 H373 0.961 . S
C358 C359 1.370 . S
C358 C360 1.363 . S
C358 H374 0.931 . S
C359 C358 1.370 . S
C359 C363 1.408 . S
C360 C358 1.363 . S
C360 C361 1.370 . S
C360 C364 1.524 . S
C361 C353 1.503 . S
C361 C360 1.370 . S
C361 C362 1.403 . S
C362 C361 1.403 . S
C362 C363 1.404 . S
C362 C365 1.539 . S
C363 C359 1.408 . S
C363 C362 1.404 . S
C363 H375 0.930 . S
C364 C360 1.524 . S
C364 H376 0.956 . S
C364 H377 0.961 . S
C364 H378 0.961 . S
C365 C362 1.539 . S
C365 H379 0.958 . S
C365 H380 0.961 . S
C365 H381 0.960 . S
H366 C350 0.931 . S
H367 C355 0.929 . S
H368 C356 0.960 . S
H369 C356 0.962 . S
H370 C356 0.960 . S
H371 C357 0.961 . S
H372 C357 0.961 . S
H373 C357 0.961 . S
H374 C358 0.931 . S
H375 C363 0.930 . S
H376 C364 0.956 . S
H377 C364 0.961 . S
H378 C364 0.961 . S
H379 C365 0.958 . S
H380 C365 0.961 . S
H381 C365 0.960 . S
C382 C383 1.391 . S
C382 C384 1.394 . S
C382 H398 0.931 . S
C383 C382 1.391 . S
C383 C387 1.376 . S
C384 C382 1.394 . S
C384 C385 1.369 . S
C384 C388 1.531 . S
C385 C384 1.369 . S
C385 C386 1.410 . S
C385 C393 1.503 . S
C386 C385 1.410 . S
C386 C387 1.392 . S
C386 C389 1.511 . S
C387 C383 1.376 . S
C387 C386 1.392 . S
C387 H399 0.929 . S
C388 C384 1.531 . S
C388 H400 0.960 . S
C388 H401 0.962 . S
C388 H402 0.960 . S
C389 C386 1.511 . S
C389 H403 0.961 . S
C389 H404 0.961 . S
C389 H405 0.961 . S
C390 C391 1.370 . S
C390 C392 1.363 . S
C390 H406 0.931 . S
C391 C390 1.370 . S
C391 C395 1.408 . S
C392 C390 1.363 . S
C392 C393 1.370 . S
C392 C396 1.524 . S
C393 C385 1.503 . S
C393 C392 1.370 . S
C393 C394 1.403 . S
C394 C393 1.403 . S
C394 C395 1.404 . S
C394 C397 1.539 . S
C395 C391 1.408 . S
C395 C394 1.404 . S
C395 H407 0.930 . S
C396 C392 1.524 . S
C396 H408 0.956 . S
C396 H409 0.961 . S
C396 H410 0.961 . S
C397 C394 1.539 . S
C397 H411 0.958 . S
C397 H412 0.961 . S
C397 H413 0.960 . S
H398 C382 0.931 . S
H399 C387 0.929 . S
H400 C388 0.960 . S
H401 C388 0.962 . S
H402 C388 0.960 . S
H403 C389 0.961 . S
H404 C389 0.961 . S
H405 C389 0.961 . S
H406 C390 0.931 . S
H407 C395 0.930 . S
H408 C396 0.956 . S
H409 C396 0.961 . S
H410 C396 0.961 . S
H411 C397 0.958 . S
H412 C397 0.961 . S
H413 C397 0.960 . S
C414 C415 1.391 . S
C414 C416 1.394 . S
C414 H430 0.931 . S
C415 C414 1.391 . S
C415 C419 1.376 . S
C416 C414 1.394 . S
C416 C417 1.369 . S
C416 C420 1.531 . S
C417 C416 1.369 . S
C417 C418 1.410 . S
C417 C425 1.503 . S
C418 C417 1.410 . S
C418 C419 1.392 . S
C418 C421 1.511 . S
C419 C415 1.376 . S
C419 C418 1.392 . S
C419 H431 0.929 . S
C420 C416 1.531 . S
C420 H432 0.960 . S
C420 H433 0.962 . S
C420 H434 0.960 . S
C421 C418 1.511 . S
C421 H435 0.961 . S
C421 H436 0.961 . S
C421 H437 0.961 . S
C422 C423 1.370 . S
C422 C424 1.363 . S
C422 H438 0.931 . S
C423 C422 1.370 . S
C423 C427 1.408 . S
C424 C422 1.363 . S
C424 C425 1.370 . S
C424 C428 1.524 . S
C425 C417 1.503 . S
C425 C424 1.370 . S
C425 C426 1.403 . S
C426 C425 1.403 . S
C426 C427 1.404 . S
C426 C429 1.539 . S
C427 C423 1.408 . S
C427 C426 1.404 . S
C427 H439 0.930 . S
C428 C424 1.524 . S
C428 H440 0.956 . S
C428 H441 0.961 . S
C428 H442 0.961 . S
C429 C426 1.539 . S
C429 H443 0.958 . S
C429 H444 0.961 . S
C429 H445 0.960 . S
H430 C414 0.931 . S
H431 C419 0.929 . S
H432 C420 0.960 . S
H433 C420 0.962 . S
H434 C420 0.960 . S
H435 C421 0.961 . S
H436 C421 0.961 . S
H437 C421 0.961 . S
H438 C422 0.931 . S
H439 C427 0.930 . S
H440 C428 0.956 . S
H441 C428 0.961 . S
H442 C428 0.961 . S
H443 C429 0.958 . S
H444 C429 0.961 . S
H445 C429 0.960 . S
C446 C447 1.391 . S
C446 C448 1.394 . S
C446 H462 0.931 . S
C447 C446 1.391 . S
C447 C451 1.376 . S
C448 C446 1.394 . S
C448 C449 1.369 . S
C448 C452 1.531 . S
C449 C448 1.369 . S
C449 C450 1.410 . S
C449 C457 1.503 . S
C450 C449 1.410 . S
C450 C451 1.392 . S
C450 C453 1.511 . S
C451 C447 1.376 . S
C451 C450 1.392 . S
C451 H463 0.929 . S
C452 C448 1.531 . S
C452 H464 0.960 . S
C452 H465 0.962 . S
C452 H466 0.960 . S
C453 C450 1.511 . S
C453 H467 0.961 . S
C453 H468 0.961 . S
C453 H469 0.961 . S
C454 C455 1.370 . S
C454 C456 1.363 . S
C454 H470 0.931 . S
C455 C454 1.370 . S
C455 C459 1.408 . S
C456 C454 1.363 . S
C456 C457 1.370 . S
C456 C460 1.524 . S
C457 C449 1.503 . S
C457 C456 1.370 . S
C457 C458 1.403 . S
C458 C457 1.403 . S
C458 C459 1.404 . S
C458 C461 1.539 . S
C459 C455 1.408 . S
C459 C458 1.404 . S
C459 H471 0.930 . S
C460 C456 1.524 . S
C460 H472 0.956 . S
C460 H473 0.961 . S
C460 H474 0.961 . S
C461 C458 1.539 . S
C461 H475 0.958 . S
C461 H476 0.961 . S
C461 H477 0.960 . S
H462 C446 0.931 . S
H463 C451 0.929 . S
H464 C452 0.960 . S
H465 C452 0.962 . S
H466 C452 0.960 . S
H467 C453 0.961 . S
H468 C453 0.961 . S
H469 C453 0.961 . S
H470 C454 0.931 . S
H471 C459 0.930 . S
H472 C460 0.956 . S
H473 C460 0.961 . S
H474 C460 0.961 . S
H475 C461 0.958 . S
H476 C461 0.961 . S
H477 C461 0.960 . S
C478 C479 1.391 . S
C478 C480 1.394 . S
C478 H494 0.931 . S
C479 C478 1.391 . S
C479 C483 1.376 . S
C480 C478 1.394 . S
C480 C481 1.369 . S
C480 C484 1.531 . S
C481 C480 1.369 . S
C481 C482 1.410 . S
C481 C489 1.503 . S
C482 C481 1.410 . S
C482 C483 1.392 . S
C482 C485 1.511 . S
C483 C479 1.376 . S
C483 C482 1.392 . S
C483 H495 0.929 . S
C484 C480 1.531 . S
C484 H496 0.960 . S
C484 H497 0.962 . S
C484 H498 0.960 . S
C485 C482 1.511 . S
C485 H499 0.961 . S
C485 H500 0.961 . S
C485 H501 0.961 . S
C486 C487 1.370 . S
C486 C488 1.363 . S
C486 H502 0.931 . S
C487 C486 1.370 . S
C487 C491 1.408 . S
C488 C486 1.363 . S
C488 C489 1.370 . S
C488 C492 1.524 . S
C489 C481 1.503 . S
C489 C488 1.370 . S
C489 C490 1.403 . S
C490 C489 1.403 . S
C490 C491 1.404 . S
C490 C493 1.539 . S
C491 C487 1.408 . S
C491 C490 1.404 . S
C491 H503 0.930 . S
C492 C488 1.524 . S
C492 H504 0.956 . S
C492 H505 0.961 . S
C492 H506 0.961 . S
C493 C490 1.539 . S
C493 H507 0.958 . S
C493 H508 0.961 . S
C493 H509 0.960 . S
H494 C478 0.931 . S
H495 C483 0.929 . S
H496 C484 0.960 . S
H497 C484 0.962 . S
H498 C484 0.960 . S
H499 C485 0.961 . S
H500 C485 0.961 . S
H501 C485 0.961 . S
H502 C486 0.931 . S
H503 C491 0.930 . S
H504 C492 0.956 . S
H505 C492 0.961 . S
H506 C492 0.961 . S
H507 C493 0.958 . S
H508 C493 0.961 . S
H509 C493 0.960 . S
C510 C511 1.391 . S
C510 C512 1.394 . S
C510 H526 0.931 1_455 S
C511 C510 1.391 . S
C511 C515 1.376 . S
C512 C510 1.394 . S
C512 C513 1.369 . S
C512 C516 1.531 1_455 S
C513 C512 1.369 . S
C513 C514 1.410 . S
C513 C521 1.503 . S
C514 C513 1.410 . S
C514 C515 1.392 . S
C514 C517 1.511 . S
C515 C511 1.376 . S
C515 C514 1.392 . S
C515 H527 0.929 . S
C516 C512 1.531 1_655 S
C516 H528 0.960 1_655 S
C516 H529 0.962 . S
C516 H530 0.960 . S
C517 C514 1.511 . S
C517 H531 0.961 . S
C517 H532 0.961 . S
C517 H533 0.961 . S
C518 C519 1.370 . S
C518 C520 1.363 . S
C518 H534 0.931 1_455 S
C519 C518 1.370 . S
C519 C523 1.408 . S
C520 C518 1.363 . S
C520 C521 1.370 1_556 S
C520 C524 1.524 1_455 S
C521 C513 1.503 . S
C521 C520 1.370 1_554 S
C521 C522 1.403 1_554 S
C522 C521 1.403 1_556 S
C522 C523 1.404 . S
C522 C525 1.539 1_556 S
C523 C519 1.408 . S
C523 C522 1.404 . S
C523 H535 0.930 . S
C524 C520 1.524 1_655 S
C524 H536 0.956 1_556 S
C524 H537 0.961 1_556 S
C524 H538 0.961 . S
C525 C522 1.539 1_554 S
C525 H539 0.958 . S
C525 H540 0.961 . S
C525 H541 0.960 . S
H526 C510 0.931 1_655 S
H527 C515 0.929 . S
H528 C516 0.960 1_455 S
H529 C516 0.962 . S
H530 C516 0.960 . S
H531 C517 0.961 . S
H532 C517 0.961 . S
H533 C517 0.961 . S
H534 C518 0.931 1_655 S
H535 C523 0.930 . S
H536 C524 0.956 1_554 S
H537 C524 0.961 1_554 S
H538 C524 0.961 . S
H539 C525 0.958 . S
H540 C525 0.961 . S
H541 C525 0.960 . S
C542 C543 1.391 . S
C542 C544 1.394 . S
C542 H558 0.931 . S
C543 C542 1.391 . S
C543 C547 1.376 . S
C544 C542 1.394 . S
C544 C545 1.369 . S
C544 C548 1.531 . S
C545 C544 1.369 . S
C545 C546 1.410 . S
C545 C553 1.503 . S
C546 C545 1.410 . S
C546 C547 1.392 . S
C546 C549 1.511 1_545 S
C547 C543 1.376 . S
C547 C546 1.392 . S
C547 H559 0.929 1_545 S
C548 C544 1.531 . S
C548 H560 0.960 . S
C548 H561 0.962 . S
C548 H562 0.960 . S
C549 C546 1.511 1_565 S
C549 H563 0.961 . S
C549 H564 0.961 . S
C549 H565 0.961 1_565 S
C550 C551 1.370 . S
C550 C552 1.363 . S
C550 H566 0.931 1_545 S
C551 C550 1.370 . S
C551 C555 1.408 . S
C552 C550 1.363 . S
C552 C553 1.370 . S
C552 C556 1.524 1_545 S
C553 C545 1.503 . S
C553 C552 1.370 . S
C553 C554 1.403 . S
C554 C553 1.403 . S
C554 C555 1.404 . S
C554 C557 1.539 . S
C555 C551 1.408 . S
C555 C554 1.404 . S
C555 H567 0.930 . S
C556 C552 1.524 1_565 S
C556 H568 0.956 . S
C556 H569 0.961 . S
C556 H570 0.961 . S
C557 C554 1.539 . S
C557 H571 0.958 . S
C557 H572 0.961 . S
C557 H573 0.960 . S
H558 C542 0.931 . S
H559 C547 0.929 1_565 S
H560 C548 0.960 . S
H561 C548 0.962 . S
H562 C548 0.960 . S
H563 C549 0.961 . S
H564 C549 0.961 . S
H565 C549 0.961 1_545 S
H566 C550 0.931 1_565 S
H567 C555 0.930 . S
H568 C556 0.956 . S
H569 C556 0.961 . S
H570 C556 0.961 . S
H571 C557 0.958 . S
H572 C557 0.961 . S
H573 C557 0.960 . S
C574 C575 1.391 . S
C574 C576 1.394 . S
C574 H590 0.931 . S
C575 C574 1.391 . S
C575 C579 1.376 . S
C576 C574 1.394 . S
C576 C577 1.369 . S
C576 C580 1.531 . S
C577 C576 1.369 . S
C577 C578 1.410 . S
C577 C585 1.503 . S
C578 C577 1.410 . S
C578 C579 1.392 . S
C578 C581 1.511 . S
C579 C575 1.376 . S
C579 C578 1.392 . S
C579 H591 0.929 . S
C580 C576 1.531 . S
C580 H592 0.960 . S
C580 H593 0.962 . S
C580 H594 0.960 . S
C581 C578 1.511 . S
C581 H595 0.961 . S
C581 H596 0.961 . S
C581 H597 0.961 . S
C582 C583 1.370 . S
C582 C584 1.363 . S
C582 H598 0.931 . S
C583 C582 1.370 . S
C583 C587 1.408 . S
C584 C582 1.363 . S
C584 C585 1.370 . S
C584 C588 1.524 . S
C585 C577 1.503 . S
C585 C584 1.370 . S
C585 C586 1.403 . S
C586 C585 1.403 . S
C586 C587 1.404 . S
C586 C589 1.539 . S
C587 C583 1.408 . S
C587 C586 1.404 . S
C587 H599 0.930 . S
C588 C584 1.524 . S
C588 H600 0.956 . S
C588 H601 0.961 . S
C588 H602 0.961 . S
C589 C586 1.539 . S
C589 H603 0.958 . S
C589 H604 0.961 . S
C589 H605 0.960 . S
H590 C574 0.931 . S
H591 C579 0.929 . S
H592 C580 0.960 . S
H593 C580 0.962 . S
H594 C580 0.960 . S
H595 C581 0.961 . S
H596 C581 0.961 . S
H597 C581 0.961 . S
H598 C582 0.931 . S
H599 C587 0.930 . S
H600 C588 0.956 . S
H601 C588 0.961 . S
H602 C588 0.961 . S
H603 C589 0.958 . S
H604 C589 0.961 . S
H605 C589 0.960 . S
C606 C607 1.391 . S
C606 C608 1.394 . S
C606 H622 0.931 . S
C607 C606 1.391 . S
C607 C611 1.376 . S
C608 C606 1.394 . S
C608 C609 1.369 . S
C608 C612 1.531 . S
C609 C608 1.369 . S
C609 C610 1.410 . S
C609 C617 1.503 . S
C610 C609 1.410 . S
C610 C611 1.392 . S
C610 C613 1.511 . S
C611 C607 1.376 . S
C611 C610 1.392 . S
C611 H623 0.929 . S
C612 C608 1.531 . S
C612 H624 0.960 . S
C612 H625 0.962 . S
C612 H626 0.960 . S
C613 C610 1.511 . S
C613 H627 0.961 . S
C613 H628 0.961 . S
C613 H629 0.961 1_545 S
C614 C615 1.370 . S
C614 C616 1.363 . S
C614 H630 0.931 . S
C615 C614 1.370 . S
C615 C619 1.408 1_545 S
C616 C614 1.363 . S
C616 C617 1.370 . S
C616 C620 1.524 . S
C617 C609 1.503 . S
C617 C616 1.370 . S
C617 C618 1.403 1_545 S
C618 C617 1.403 1_565 S
C618 C619 1.404 . S
C618 C621 1.539 . S
C619 C615 1.408 1_565 S
C619 C618 1.404 . S
C619 H631 0.930 . S
C620 C616 1.524 . S
C620 H632 0.956 . S
C620 H633 0.961 . S
C620 H634 0.961 . S
C621 C618 1.539 . S
C621 H635 0.958 . S
C621 H636 0.961 . S
C621 H637 0.960 . S
H622 C606 0.931 . S
H623 C611 0.929 . S
H624 C612 0.960 . S
H625 C612 0.962 . S
H626 C612 0.960 . S
H627 C613 0.961 . S
H628 C613 0.961 . S
H629 C613 0.961 1_565 S
H630 C614 0.931 . S
H631 C619 0.930 . S
H632 C620 0.956 . S
H633 C620 0.961 . S
H634 C620 0.961 . S
H635 C621 0.958 . S
H636 C621 0.961 . S
H637 C621 0.960 . S
C638 C639 1.391 . S
C638 C640 1.394 . S
C638 H654 0.931 . S
C639 C638 1.391 . S
C639 C643 1.376 . S
C640 C638 1.394 . S
C640 C641 1.369 . S
C640 C644 1.531 . S
C641 C640 1.369 . S
C641 C642 1.410 . S
C641 C649 1.503 . S
C642 C641 1.410 . S
C642 C643 1.392 . S
C642 C645 1.511 . S
C643 C639 1.376 . S
C643 C642 1.392 . S
C643 H655 0.929 . S
C644 C640 1.531 . S
C644 H656 0.960 . S
C644 H657 0.962 . S
C644 H658 0.960 . S
C645 C642 1.511 . S
C645 H659 0.961 . S
C645 H660 0.961 . S
C645 H661 0.961 . S
C646 C647 1.370 . S
C646 C648 1.363 . S
C646 H662 0.931 . S
C647 C646 1.370 . S
C647 C651 1.408 . S
C648 C646 1.363 . S
C648 C649 1.370 1_554 S
C648 C652 1.524 1_554 S
C649 C641 1.503 . S
C649 C648 1.370 1_556 S
C649 C650 1.403 1_556 S
C650 C649 1.403 1_554 S
C650 C651 1.404 . S
C650 C653 1.539 1_554 S
C651 C647 1.408 . S
C651 C650 1.404 . S
C651 H663 0.930 . S
C652 C648 1.524 1_556 S
C652 H664 0.956 . S
C652 H665 0.961 . S
C652 H666 0.961 1_556 S
C653 C650 1.539 1_556 S
C653 H667 0.958 . S
C653 H668 0.961 1_556 S
C653 H669 0.960 . S
H654 C638 0.931 . S
H655 C643 0.929 . S
H656 C644 0.960 . S
H657 C644 0.962 . S
H658 C644 0.960 . S
H659 C645 0.961 . S
H660 C645 0.961 . S
H661 C645 0.961 . S
H662 C646 0.931 . S
H663 C651 0.930 . S
H664 C652 0.956 . S
H665 C652 0.961 . S
H666 C652 0.961 1_554 S
H667 C653 0.958 . S
H668 C653 0.961 1_554 S
H669 C653 0.960 . S
C670 C671 1.391 . S
C670 C672 1.394 . S
C670 H686 0.931 . S
C671 C670 1.391 . S
C671 C675 1.376 1_455 S
C672 C670 1.394 . S
C672 C673 1.369 . S
C672 C676 1.531 . S
C673 C672 1.369 . S
C673 C674 1.410 1_455 S
C673 C681 1.503 . S
C674 C673 1.410 1_655 S
C674 C675 1.392 . S
C674 C677 1.511 . S
C675 C671 1.376 1_655 S
C675 C674 1.392 . S
C675 H687 0.929 . S
C676 C672 1.531 . S
C676 H688 0.960 . S
C676 H689 0.962 . S
C676 H690 0.960 . S
C677 C674 1.511 . S
C677 H691 0.961 . S
C677 H692 0.961 . S
C677 H693 0.961 . S
C678 C679 1.370 . S
C678 C680 1.363 . S
C678 H694 0.931 . S
C679 C678 1.370 . S
C679 C683 1.408 . S
C680 C678 1.363 . S
C680 C681 1.370 . S
C680 C684 1.524 . S
C681 C673 1.503 . S
C681 C680 1.370 . S
C681 C682 1.403 . S
C682 C681 1.403 . S
C682 C683 1.404 . S
C682 C685 1.539 1_455 S
C683 C679 1.408 . S
C683 C682 1.404 . S
C683 H695 0.930 . S
C684 C680 1.524 . S
C684 H696 0.956 . S
C684 H697 0.961 . S
C684 H698 0.961 . S
C685 C682 1.539 1_655 S
C685 H699 0.958 1_655 S
C685 H700 0.961 . S
C685 H701 0.960 . S
H686 C670 0.931 . S
H687 C675 0.929 . S
H688 C676 0.960 . S
H689 C676 0.962 . S
H690 C676 0.960 . S
H691 C677 0.961 . S
H692 C677 0.961 . S
H693 C677 0.961 . S
H694 C678 0.931 . S
H695 C683 0.930 . S
H696 C684 0.956 . S
H697 C684 0.961 . S
H698 C684 0.961 . S
H699 C685 0.958 1_455 S
H700 C685 0.961 . S
H701 C685 0.960 . S
C127 C2 1.483 . S
C135 N119 1.492 . S
C159 C22 1.449 . S
C167 N97 1.485 . S
C191 C44 1.424 . S
C199 N108 1.491 . S
C223 C4 1.465 . S
C231 C121 1.520 . S
C263 C99 1.519 . S
C255 C24 1.478 . S
C295 C110 1.497 . S
C287 C42 1.440 . S
C319 C32 1.416 . S
C327 N75 1.392 . S
C351 C49 1.132 . S
C359 C88 1.186 . S
C383 C9 1.119 . S
C391 C66 1.171 . S
C423 C77 1.205 . S
C415 C29 1.153 . S
C455 N86 1.306 . S
C447 C52 1.284 . S
C479 C12 1.339 . S
C487 N64 1.331 . S
C519 C91 1.494 . S
C511 C18 1.499 . S
C543 C38 1.477 . S
C551 C69 1.472 . S
C575 C58 1.478 . S
C583 C80 1.486 . S
C615 C113 1.517 . S
C607 C39 1.514 . S
C647 C124 1.525 . S
C639 C59 1.527 . S
C671 C19 1.525 . S
C679 C102 1.530 . S
