# Generated by pormake.
# Topology dag, (6,3)-cn, num edge types: 1
# Building blocks:
#     Node 0, Type 0, BuildingBlock: IZENUY_clean_sbu_0, # of connection points: 6
#     Node 1, Type 0, BuildingBlock: IZENUY_clean_sbu_0, # of connection points: 6
#     Node 2, Type 0, BuildingBlock: IZENUY_clean_sbu_0, # of connection points: 6
#     Node 3, Type 0, BuildingBlock: IZENUY_clean_sbu_0, # of connection points: 6
#     Node 4, Type 1, BuildingBlock: INOVEN_clean_linker_0, # of connection points: 3
#     Node 5, Type 1, BuildingBlock: INOVEN_clean_linker_0, # of connection points: 3
#     Node 6, Type 1, BuildingBlock: INOVEN_clean_linker_0, # of connection points: 3
#     Node 7, Type 1, BuildingBlock: INOVEN_clean_linker_0, # of connection points: 3
#     Node 8, Type 1, BuildingBlock: INOVEN_clean_linker_0, # of connection points: 3
#     Node 9, Type 1, BuildingBlock: INOVEN_clean_linker_0, # of connection points: 3
#     Node 10, Type 1, BuildingBlock: INOVEN_clean_linker_0, # of connection points: 3
#     Node 11, Type 1, BuildingBlock: INOVEN_clean_linker_0, # of connection points: 3
#     Edge 12, Type (0, 1), BuildingBlock: XIVTED_clean_linker_0, # of connection points: 2
#     Edge 13, Type (0, 1), BuildingBlock: XIVTED_clean_linker_0, # of connection points: 2
#     Edge 14, Type (0, 1), BuildingBlock: XIVTED_clean_linker_0, # of connection points: 2
#     Edge 15, Type (0, 1), BuildingBlock: XIVTED_clean_linker_0, # of connection points: 2
#     Edge 16, Type (0, 1), BuildingBlock: XIVTED_clean_linker_0, # of connection points: 2
#     Edge 17, Type (0, 1), BuildingBlock: XIVTED_clean_linker_0, # of connection points: 2
#     Edge 18, Type (0, 1), BuildingBlock: XIVTED_clean_linker_0, # of connection points: 2
#     Edge 19, Type (0, 1), BuildingBlock: XIVTED_clean_linker_0, # of connection points: 2
#     Edge 20, Type (0, 1), BuildingBlock: XIVTED_clean_linker_0, # of connection points: 2
#     Edge 21, Type (0, 1), BuildingBlock: XIVTED_clean_linker_0, # of connection points: 2
#     Edge 22, Type (0, 1), BuildingBlock: XIVTED_clean_linker_0, # of connection points: 2
#     Edge 23, Type (0, 1), BuildingBlock: XIVTED_clean_linker_0, # of connection points: 2
#     Edge 24, Type (0, 1), BuildingBlock: XIVTED_clean_linker_0, # of connection points: 2
#     Edge 25, Type (0, 1), BuildingBlock: XIVTED_clean_linker_0, # of connection points: 2
#     Edge 26, Type (0, 1), BuildingBlock: XIVTED_clean_linker_0, # of connection points: 2
#     Edge 27, Type (0, 1), BuildingBlock: XIVTED_clean_linker_0, # of connection points: 2
#     Edge 28, Type (0, 1), BuildingBlock: XIVTED_clean_linker_0, # of connection points: 2
#     Edge 29, Type (0, 1), BuildingBlock: XIVTED_clean_linker_0, # of connection points: 2
#     Edge 30, Type (0, 1), BuildingBlock: XIVTED_clean_linker_0, # of connection points: 2
#     Edge 31, Type (0, 1), BuildingBlock: XIVTED_clean_linker_0, # of connection points: 2
#     Edge 32, Type (0, 1), BuildingBlock: XIVTED_clean_linker_0, # of connection points: 2
#     Edge 33, Type (0, 1), BuildingBlock: XIVTED_clean_linker_0, # of connection points: 2
#     Edge 34, Type (0, 1), BuildingBlock: XIVTED_clean_linker_0, # of connection points: 2
#     Edge 35, Type (0, 1), BuildingBlock: XIVTED_clean_linker_0, # of connection points: 2
# Relax obj value: 0.098
# Max RMSD: 0.107
# Mean RMSD: 0.091
data_MOF--net-dag--node1-IZENUY_clean_sbu_0--node2-INOVEN_clean_linker_0--edge1-XIVTED_clean_linker_0
_symmetry_space_group_name_H-M    P1
_symmetry_Int_Tables_number       1
_symmetry_cell_setting            triclinic
loop_
_symmetry_equiv_pos_as_xyz
'x, y, z'
_cell_length_a     38.409239
_cell_length_b     41.252391
_cell_length_c     35.453684
_cell_angle_alpha  93.755605
_cell_angle_beta   90.081018
_cell_angle_gamma 89.97097
loop_
_atom_site_label
_atom_site_type_symbol
_atom_site_fract_x
_atom_site_fract_y
_atom_site_fract_z
_atom_type_partial_charge
Fe0 Fe 0.19245 0.86171 0.07064 0.0
Fe1 Fe 0.12242 0.88062 0.03764 0.0
O2 O 0.15094 0.85019 0.05201 0.0
Fe3 Fe 0.1384 0.80858 0.04755 0.0
O4 O 0.14443 0.80431 0.09788 0.0
O5 O 0.19544 0.82831 0.10183 0.0
O6 O 0.17301 0.88576 0.10986 0.0
C7 C 0.15098 0.90795 0.10585 0.0
C8 C 0.20914 0.8085 0.02411 0.0
O9 O 0.13657 0.91128 0.07419 0.0
C10 C 0.11283 0.82993 0.98112 0.0
O11 O 0.19755 0.89752 0.04282 0.0
O12 O 0.15358 0.89354 0.00353 0.0
O13 O 0.18274 0.79382 0.03622 0.0
O14 O 0.21406 0.83834 0.03267 0.0
C15 C 0.07611 0.84161 0.07141 0.0
O16 O 0.10286 0.85572 -0.00105 0.0
O17 O 0.13124 0.80932 0.99675 0.0
C18 C 0.18379 0.90346 0.01161 0.0
O19 O 0.08929 0.86948 0.07024 0.0
O20 O 0.09193 0.81648 0.0578 0.0
C21 C 0.17213 0.81115 0.11582 0.0
Fe22 Fe 0.69479 0.63414 0.487 0.0
Fe23 Fe 0.64109 0.68901 0.50414 0.0
O24 O 0.65339 0.64744 0.50372 0.0
Fe25 Fe 0.62416 0.61856 0.52014 0.0
O26 O 0.65381 0.60914 0.55757 0.0
O27 O 0.69885 0.60159 0.51993 0.0
O28 O 0.71648 0.66018 0.52238 0.0
C29 C 0.71172 0.69027 0.52873 0.0
C30 C 0.65513 0.58426 0.45746 0.0
O31 O 0.68518 0.70436 0.51592 0.0
C32 C 0.58101 0.65427 0.47774 0.0
O33 O 0.69858 0.66439 0.45179 0.0
O34 O 0.64854 0.6903 0.45376 0.0
O35 O 0.6401 0.58458 0.48915 0.0
O36 O 0.6755 0.60694 0.4501 0.0
C37 C 0.61277 0.67262 0.571 0.0
O38 O 0.59491 0.68015 0.49231 0.0
O39 O 0.59344 0.6267 0.48348 0.0
C40 C 0.67623 0.682 0.43673 0.0
O41 O 0.63269 0.69147 0.55478 0.0
O42 O 0.60227 0.64653 0.55432 0.0
C43 C 0.68425 0.59854 0.55158 0.0
Fe44 Fe 0.86346 0.19043 0.00594 0.0
Fe45 Fe 0.87434 0.11793 0.01676 0.0
O46 O 0.84748 0.14996 0.00347 0.0
Fe47 Fe 0.80463 0.14125 0.98747 0.0
O48 O 0.80332 0.17384 0.95498 0.0
O49 O 0.85638 0.19373 0.95567 0.0
O50 O 0.90869 0.17886 0.99419 0.0
C51 C 0.92077 0.15303 0.97774 0.0
C52 C 0.79398 0.19676 0.03223 0.0
O53 O 0.90583 0.1261 0.98072 0.0
C54 C 0.81319 0.09976 0.0475 0.0
O55 O 0.87168 0.18999 0.05644 0.0
O56 O 0.89799 0.14255 0.05294 0.0
O57 O 0.78643 0.16716 0.0256 0.0
O58 O 0.82101 0.20886 0.01816 0.0
C59 C 0.83983 0.09075 0.95219 0.0
O60 O 0.84437 0.108 0.05359 0.0
O61 O 0.79806 0.10679 0.01729 0.0
C62 C 0.88935 0.16852 0.07142 0.0
O63 O 0.85549 0.08721 0.98301 0.0
O64 O 0.82061 0.11501 0.9481 0.0
C65 C 0.82773 0.18828 0.93903 0.0
Fe66 Fe 0.37676 0.37378 0.53276 0.0
Fe67 Fe 0.30608 0.35698 0.56533 0.0
O68 O 0.34843 0.34489 0.5506 0.0
Fe69 Fe 0.3625 0.30411 0.5535 0.0
O70 O 0.40833 0.31488 0.56385 0.0
O71 O 0.40767 0.36829 0.57024 0.0
O72 O 0.35938 0.40831 0.56179 0.0
C73 C 0.34317 0.40954 0.59286 0.0
C74 C 0.38924 0.31798 0.48513 0.0
O75 O 0.3232 0.38672 0.60086 0.0
C76 C 0.29286 0.29809 0.52793 0.0
O77 O 0.34724 0.38085 0.49434 0.0
O78 O 0.30102 0.3878 0.53029 0.0
O79 O 0.37034 0.29925 0.50285 0.0
O80 O 0.39945 0.34483 0.50028 0.0
C81 C 0.32698 0.31383 0.62007 0.0
O82 O 0.28652 0.32816 0.53091 0.0
O83 O 0.31927 0.28645 0.54374 0.0
C84 C 0.31651 0.39103 0.49918 0.0
O85 O 0.30351 0.32846 0.60269 0.0
O86 O 0.35539 0.30597 0.60416 0.0
C87 C 0.42137 0.34152 0.57708 0.0
H88 H 0.0561 0.18205 0.31398 0.0
H89 H 0.04075 0.09379 0.24511 0.0
H90 H 0.129 0.10314 0.31985 0.0
N91 N 0.11379 0.16459 0.34698 0.0
N92 N 0.14067 0.15478 0.36237 0.0
C93 C 0.06417 0.15753 0.30517 0.0
C94 C 0.04436 0.13892 0.27864 0.0
C95 C 0.09444 0.14469 0.32044 0.0
C96 C 0.10538 0.11303 0.30845 0.0
C97 C 0.08596 0.09427 0.28142 0.0
C98 C 0.05534 0.10744 0.26702 0.0
H99 H 0.35725 0.61309 0.79475 0.0
H100 H 0.44822 0.60992 0.72411 0.0
H101 H 0.43351 0.68975 0.80647 0.0
N102 N 0.37176 0.66781 0.8331 0.0
N103 N 0.3788 0.69478 0.84924 0.0
C104 C 0.38197 0.62325 0.7867 0.0
C105 C 0.40128 0.60799 0.7571 0.0
C106 C 0.39335 0.65261 0.80474 0.0
C107 C 0.42474 0.66676 0.79328 0.0
C108 C 0.4448 0.65102 0.76455 0.0
C109 C 0.43302 0.62167 0.74688 0.0
H110 H 0.74088 0.88569 0.19677 0.0
H111 H 0.83204 0.90176 0.13095 0.0
H112 H 0.81815 0.8102 0.18045 0.0
N113 N 0.75734 0.82665 0.21549 0.0
N114 N 0.76645 0.79862 0.22236 0.0
C115 C 0.76509 0.87679 0.1843 0.0
C116 C 0.78489 0.89677 0.16223 0.0
C117 C 0.77695 0.84555 0.19109 0.0
C118 C 0.80881 0.83428 0.17528 0.0
C119 C 0.82882 0.85424 0.15309 0.0
C120 C 0.81651 0.88551 0.14691 0.0
H121 H 0.75808 0.38901 0.70305 0.0
H122 H 0.6569 0.41292 0.66142 0.0
H123 H 0.67582 0.31768 0.69926 0.0
N124 N 0.74246 0.32982 0.72149 0.0
N125 N 0.73433 0.30119 0.72656 0.0
C126 C 0.73158 0.38194 0.69593 0.0
C127 C 0.70871 0.40443 0.68144 0.0
C128 C 0.71992 0.35064 0.70257 0.0
C129 C 0.68526 0.34163 0.69364 0.0
C130 C 0.66221 0.36418 0.67926 0.0
C131 C 0.67428 0.39544 0.67317 0.0
H132 H 0.55478 0.30901 0.24147 0.0
H133 H 0.54305 0.38938 0.32373 0.0
H134 H 0.6319 0.38499 0.25008 0.0
N135 N 0.61403 0.32771 0.21295 0.0
N136 N 0.6421 0.33779 0.20053 0.0
C137 C 0.56376 0.33218 0.25403 0.0
C138 C 0.5448 0.34813 0.2834 0.0
C139 C 0.59475 0.34564 0.24128 0.0
C140 C 0.60721 0.37513 0.25864 0.0
C141 C 0.58887 0.39077 0.28881 0.0
C142 C 0.55725 0.37753 0.30026 0.0
H143 H 0.26264 0.1169 0.86518 0.0
H144 H 0.16251 0.09053 0.90723 0.0
H145 H 0.17627 0.18364 0.86182 0.0
N146 N 0.24386 0.17392 0.84187 0.0
N147 N 0.23364 0.20122 0.83347 0.0
C148 C 0.23573 0.12304 0.87142 0.0
C149 C 0.21402 0.10049 0.88752 0.0
C150 C 0.22233 0.15311 0.86199 0.0
C151 C 0.18707 0.16074 0.8696 0.0
C152 C 0.16522 0.13806 0.88548 0.0
C153 C 0.17905 0.10812 0.8945 0.0
H154 H 0.24755 0.60175 0.34718 0.0
H155 H 0.34875 0.58211 0.39206 0.0
H156 H 0.32705 0.67582 0.35147 0.0
N157 N 0.26135 0.6611 0.32756 0.0
N158 N 0.2688 0.68975 0.32167 0.0
C159 C 0.27359 0.60985 0.35489 0.0
C160 C 0.29695 0.58843 0.37068 0.0
C161 C 0.28423 0.64137 0.34764 0.0
C162 C 0.31833 0.65172 0.35742 0.0
C163 C 0.34186 0.63026 0.37303 0.0
C164 C 0.33086 0.59875 0.37958 0.0
H165 H 0.8591 0.88976 0.74983 0.0
H166 H 0.95129 0.90108 0.81792 0.0
H167 H 0.93716 0.81465 0.74452 0.0
N168 N 0.87462 0.83378 0.71608 0.0
N169 N 0.88212 0.80661 0.70081 0.0
C170 C 0.88418 0.88075 0.75859 0.0
C171 C 0.90401 0.89904 0.78532 0.0
C172 C 0.8961 0.85072 0.74322 0.0
C173 C 0.9281 0.83829 0.75549 0.0
C174 C 0.94838 0.85667 0.78216 0.0
C175 C 0.93635 0.88724 0.79643 0.0
H176 H 0.08829 0.93529 0.12108 0.0
H177 H 0.15285 0.0753 0.26263 0.0
H178 H 0.19387 0.93371 0.16253 0.0
H179 H 0.04722 0.03963 0.26379 0.0
H180 H 0.17025 0.02547 0.22592 0.0
H181 H 0.0737 0.97623 0.17133 0.0
C182 C 0.10839 0.9436 0.14091 0.0
C183 C 0.14236 0.93138 0.13761 0.0
C184 C 0.14342 0.02841 0.23486 0.0
C185 C 0.12595 0.97844 0.19496 0.0
C186 C 0.13346 0.05675 0.25596 0.0
C187 C 0.09834 0.06198 0.26569 0.0
C188 C 0.11798 0.00552 0.22305 0.0
C189 C 0.07437 0.03711 0.25598 0.0
C190 C 0.1 0.96675 0.16973 0.0
C191 C 0.16737 0.94264 0.16424 0.0
N192 N 0.0845 0.01029 0.23462 0.0
N193 N 0.15882 0.96607 0.19156 0.0
H194 H 0.62613 0.64168 0.63387 0.0
H195 H 0.45197 0.70816 0.73052 0.0
H196 H 0.56703 0.72098 0.59322 0.0
H197 H 0.50989 0.62538 0.76414 0.0
H198 H 0.50139 0.72308 0.69128 0.0
H199 H 0.59242 0.64559 0.69231 0.0
C200 C 0.60662 0.66057 0.6379 0.0
C201 C 0.59924 0.68108 0.60904 0.0
C202 C 0.50367 0.70216 0.70804 0.0
C203 C 0.55949 0.68493 0.675 0.0
C204 C 0.47562 0.69384 0.73064 0.0
C205 C 0.47699 0.66544 0.75025 0.0
C206 C 0.53308 0.6818 0.70514 0.0
C207 C 0.5079 0.64738 0.7492 0.0
C208 C 0.5872 0.66271 0.67112 0.0
C209 C 0.57353 0.70493 0.61516 0.0
N210 N 0.53451 0.6556 0.72659 0.0
N211 N 0.55401 0.70582 0.64727 0.0
H212 H 0.75735 0.05967 0.03166 0.0
H213 H 0.80353 0.95174 0.20313 0.0
H214 H 0.83294 0.08557 0.11866 0.0
H215 H 0.74477 0.91708 0.10516 0.0
H216 H 0.80008 0.00705 0.18204 0.0
H217 H 0.73885 0.01395 0.06742 0.0
C218 C 0.76958 0.05616 0.05863 0.0
C219 C 0.79726 0.07605 0.07183 0.0
C220 C 0.78713 0.98753 0.16561 0.0
C221 C 0.77624 0.02382 0.11275 0.0
C222 C 0.78885 0.95612 0.17784 0.0
C223 C 0.77424 0.9302 0.15582 0.0
C224 C 0.77113 0.9928 0.13086 0.0
C225 C 0.75608 0.9367 0.12291 0.0
C226 C 0.75906 0.03 0.07896 0.0
C227 C 0.81199 0.07046 0.10706 0.0
N228 N 0.75543 0.96738 0.11107 0.0
N229 N 0.8016 0.04463 0.12606 0.0
H230 H 0.44871 0.39101 0.62221 0.0
H231 H 0.63552 0.30952 0.64101 0.0
H232 H 0.47034 0.29287 0.57875 0.0
H233 H 0.60492 0.40039 0.69865 0.0
H234 H 0.57486 0.30067 0.62078 0.0
H235 H 0.50552 0.39317 0.65262 0.0
C236 C 0.46542 0.36983 0.61915 0.0
C237 C 0.45491 0.34184 0.59758 0.0
C238 C 0.58141 0.32235 0.63821 0.0
C239 C 0.52034 0.34417 0.63233 0.0
C240 C 0.61594 0.32732 0.64988 0.0
C241 C 0.62528 0.35597 0.67098 0.0
C242 C 0.55625 0.34626 0.64776 0.0
C243 C 0.59897 0.3783 0.68167 0.0
C244 C 0.49787 0.37102 0.63668 0.0
C245 C 0.4775 0.31499 0.59504 0.0
N246 N 0.56581 0.37312 0.66965 0.0
N247 N 0.50939 0.31693 0.61187 0.0
H248 H 0.63694 0.52404 0.47607 0.0
H249 H 0.61735 0.44714 0.26419 0.0
H250 H 0.66459 0.57769 0.37999 0.0
H251 H 0.59541 0.39768 0.36495 0.0
H252 H 0.63873 0.49417 0.30416 0.0
H253 H 0.62573 0.47656 0.43417 0.0
C254 C 0.64074 0.52581 0.44599 0.0
C255 C 0.65139 0.55499 0.43146 0.0
C256 C 0.62938 0.47291 0.31737 0.0
C257 C 0.63821 0.50029 0.38279 0.0
C258 C 0.61727 0.44614 0.29464 0.0
C259 C 0.60402 0.41881 0.3114 0.0
C260 C 0.62836 0.472 0.35694 0.0
C261 C 0.60461 0.41856 0.35088 0.0
C262 C 0.63438 0.49855 0.42196 0.0
C263 C 0.65636 0.55561 0.39227 0.0
N264 N 0.61636 0.44472 0.37218 0.0
N265 N 0.64934 0.52867 0.36911 0.0
H266 H 0.94982 0.10509 0.93128 0.0
H267 H 0.13454 0.19277 0.91919 0.0
H268 H 0.96916 0.20222 0.97963 0.0
H269 H 0.11065 0.09808 0.86674 0.0
H270 H 0.07296 0.19948 0.93663 0.0
H271 H 0.00751 0.10452 0.90295 0.0
C272 C 0.96618 0.12637 0.93586 0.0
C273 C 0.95478 0.15358 0.95828 0.0
C274 C 0.08118 0.17739 0.92097 0.0
C275 C 0.02116 0.15309 0.92589 0.0
C276 C 0.11623 0.17364 0.91088 0.0
C277 C 0.1277 0.14463 0.89205 0.0
C278 C 0.05761 0.15193 0.91205 0.0
C279 C 0.103 0.12056 0.88197 0.0
C280 C 0.99915 0.12608 0.91955 0.0
C281 C 0.97698 0.18064 0.96274 0.0
N282 N 0.06925 0.12463 0.89237 0.0
N283 N 0.00929 0.17958 0.94701 0.0
H284 H 0.26049 0.4322 0.50828 0.0
H285 H 0.32429 0.53284 0.33837 0.0
H286 H 0.33982 0.40056 0.42791 0.0
H287 H 0.24872 0.56841 0.42066 0.0
H288 H 0.3189 0.47857 0.36148 0.0
H289 H 0.24504 0.47597 0.46806 0.0
C290 C 0.27419 0.434 0.48181 0.0
C291 C 0.30206 0.41311 0.47187 0.0
C292 C 0.30288 0.49799 0.37406 0.0
C293 C 0.28459 0.46323 0.42589 0.0
C294 C 0.30586 0.52887 0.36072 0.0
C295 C 0.28707 0.5549 0.37791 0.0
C296 C 0.28152 0.49332 0.40539 0.0
C297 C 0.26359 0.54878 0.40678 0.0
C298 C 0.26538 0.45907 0.45891 0.0
C299 C 0.31864 0.41647 0.4371 0.0
N300 N 0.26196 0.51866 0.42019 0.0
N301 N 0.31 0.44135 0.41568 0.0
H302 H 0.07582 0.77765 0.95045 0.0
H303 H 0.0124 0.88482 0.78457 0.0
H304 H 0.11917 0.86986 0.92457 0.0
H305 H 0.95748 0.79998 0.817 0.0
H306 H 0.06149 0.87038 0.82396 0.0
H307 H 0.04217 0.77656 0.89114 0.0
C308 C 0.07913 0.79704 0.93158 0.0
C309 C 0.10006 0.82395 0.94218 0.0
C310 C 0.03904 0.85449 0.82201 0.0
C311 C 0.06168 0.82317 0.87511 0.0
C312 C 0.01111 0.86269 0.79938 0.0
C313 C 0.98085 0.84373 0.79795 0.0
C314 C 0.03644 0.82746 0.84401 0.0
C315 C 0.98044 0.81522 0.81749 0.0
C316 C 0.05977 0.79658 0.89798 0.0
C317 C 0.10315 0.84877 0.9173 0.0
N318 N 0.00756 0.80826 0.84041 0.0
N319 N 0.08392 0.84794 0.88516 0.0
H320 H 0.86122 0.09504 0.87955 0.0
H321 H 0.84354 0.90548 0.82452 0.0
H322 H 0.82484 0.02724 0.95814 0.0
H323 H 0.93209 0.9601 0.78936 0.0
H324 H 0.82231 0.95411 0.86105 0.0
H325 H 0.87338 0.04909 0.83334 0.0
C326 C 0.85505 0.07052 0.88658 0.0
C327 C 0.84203 0.06458 0.92235 0.0
C328 C 0.84613 0.95547 0.84489 0.0
C329 C 0.85533 0.01267 0.87023 0.0
C330 C 0.85813 0.92792 0.82405 0.0
C331 C 0.88958 0.929 0.8042 0.0
C332 C 0.86539 0.98435 0.84518 0.0
C333 C 0.9078 0.95846 0.80458 0.0
C334 C 0.86219 0.04449 0.8605 0.0
C335 C 0.83489 0.03256 0.93069 0.0
N336 N 0.8954 0.98513 0.82481 0.0
N337 N 0.84155 0.00771 0.90473 0.0
H338 H 0.36709 0.34373 0.42173 0.0
H339 H 0.54073 0.28912 0.3136 0.0
H340 H 0.43944 0.27416 0.46215 0.0
H341 H 0.47976 0.37367 0.29208 0.0
H342 H 0.49422 0.27108 0.35484 0.0
H343 H 0.39778 0.34167 0.36126 0.0
C344 C 0.38884 0.3272 0.41724 0.0
C345 C 0.40092 0.30907 0.44657 0.0
C346 C 0.49065 0.29313 0.3403 0.0
C347 C 0.43687 0.30738 0.3783 0.0
C348 C 0.51701 0.30328 0.31662 0.0
C349 C 0.514 0.33302 0.29986 0.0
C350 C 0.46119 0.31287 0.34695 0.0
C351 C 0.48305 0.35073 0.30485 0.0
C352 C 0.40649 0.32617 0.38291 0.0
C353 C 0.42936 0.28828 0.43987 0.0
N354 N 0.45801 0.34058 0.32831 0.0
N355 N 0.44688 0.28841 0.40653 0.0
H356 H 0.17095 0.91072 0.93709 0.0
H357 H 0.25572 0.08521 0.94601 0.0
H358 H 0.23439 0.94865 0.03034 0.0
H359 H 0.19806 0.04294 0.85085 0.0
H360 H 0.26002 0.03138 0.97133 0.0
H361 H 0.19156 0.95419 0.89956 0.0
C362 C 0.18954 0.92805 0.94952 0.0
C363 C 0.20037 0.92655 0.98713 0.0
C364 C 0.24732 0.03366 0.94434 0.0
C365 C 0.22384 0.97671 0.94449 0.0
C366 C 0.24517 0.06429 0.92981 0.0
C367 C 0.22646 0.06819 0.89652 0.0
C368 C 0.23019 0.00713 0.92551 0.0
C369 C 0.21269 0.04066 0.87669 0.0
C370 C 0.20144 0.95284 0.92804 0.0
C371 C 0.22504 0.9492 0.00157 0.0
N372 N 0.21432 0.01135 0.89181 0.0
N373 N 0.23543 0.9738 0.98047 0.0
H374 H 0.55694 0.60913 0.42522 0.0
H375 H 0.36636 0.68487 0.41337 0.0
H376 H 0.53018 0.70175 0.48133 0.0
H377 H 0.40036 0.59675 0.35222 0.0
H378 H 0.4268 0.6952 0.43403 0.0
H379 H 0.50065 0.60761 0.39393 0.0
C380 C 0.53917 0.62928 0.43083 0.0
C381 C 0.54807 0.65541 0.45628 0.0
C382 C 0.42103 0.67384 0.41571 0.0
C383 C 0.48303 0.65375 0.42061 0.0
C384 C 0.38665 0.66803 0.40382 0.0
C385 C 0.3784 0.63967 0.38157 0.0
C386 C 0.44712 0.65112 0.40509 0.0
C387 C 0.40553 0.61858 0.36997 0.0
C388 C 0.50698 0.62846 0.41284 0.0
C389 C 0.52423 0.68109 0.46199 0.0
N390 N 0.43851 0.62459 0.38212 0.0
N391 N 0.4925 0.67942 0.44466 0.0
H392 H 0.36189 0.46913 0.57236 0.0
H393 H 0.37213 0.55218 0.78217 0.0
H394 H 0.33043 0.41857 0.66952 0.0
H395 H 0.39851 0.59891 0.68069 0.0
H396 H 0.35271 0.5041 0.74288 0.0
H397 H 0.37124 0.51791 0.6128 0.0
C398 C 0.35684 0.46832 0.60234 0.0
C399 C 0.34569 0.43963 0.61766 0.0
C400 C 0.3626 0.52499 0.72934 0.0
C401 C 0.3567 0.49579 0.6646 0.0
C402 C 0.37359 0.55237 0.75168 0.0
C403 C 0.38748 0.57928 0.73461 0.0
C404 C 0.36539 0.5248 0.68979 0.0
C405 C 0.38875 0.57841 0.69506 0.0
C406 C 0.36214 0.49631 0.62551 0.0
C407 C 0.3391 0.44024 0.65665 0.0
N408 N 0.37805 0.55163 0.67412 0.0
N409 N 0.34507 0.46787 0.67898 0.0
H410 H 0.02587 0.88627 0.06195 0.0
H411 H 0.88023 0.81968 0.18739 0.0
H412 H 0.0425 0.79235 0.10587 0.0
H413 H 0.85663 0.86523 0.0841 0.0
H414 H 0.94041 0.81133 0.16532 0.0
H415 H 0.96458 0.88329 0.07879 0.0
C416 C 0.01663 0.86506 0.0754 0.0
C417 C 0.03927 0.83955 0.08269 0.0
C418 C 0.92174 0.82266 0.1474 0.0
C419 C 0.96909 0.83615 0.10219 0.0
C420 C 0.8874 0.82734 0.15982 0.0
C421 C 0.86345 0.84383 0.13791 0.0
C422 C 0.93211 0.83506 0.11328 0.0
C423 C 0.87439 0.85336 0.10251 0.0
C424 C 0.9816 0.86327 0.08466 0.0
C425 C 0.02576 0.81248 0.09979 0.0
N426 N 0.90804 0.84942 0.09167 0.0
N427 N 0.99143 0.81162 0.10951 0.0
H428 H 0.74067 0.55812 0.54116 0.0
H429 H 0.68534 0.46051 0.71646 0.0
H430 H 0.66316 0.58956 0.62376 0.0
H431 H 0.75537 0.4232 0.62931 0.0
H432 H 0.69056 0.51462 0.69286 0.0
H433 H 0.75888 0.51575 0.58207 0.0
C434 C 0.72788 0.55651 0.56818 0.0
C435 C 0.6997 0.57685 0.57862 0.0
C436 C 0.7055 0.49484 0.67935 0.0
C437 C 0.72043 0.5285 0.62546 0.0
C438 C 0.70266 0.46408 0.69299 0.0
C439 C 0.71975 0.43763 0.67448 0.0
C440 C 0.72493 0.49891 0.64646 0.0
C441 C 0.74181 0.44318 0.64418 0.0
C442 C 0.73831 0.5323 0.59151 0.0
C443 C 0.68444 0.57393 0.61416 0.0
N444 N 0.74321 0.47319 0.63051 0.0
N445 N 0.69466 0.54987 0.63602 0.0
H446 H 0.92511 0.2206 0.10472 0.0
H447 H 0.97942 0.11296 0.274 0.0
H448 H 0.88309 0.12669 0.12584 0.0
H449 H 0.03938 0.19488 0.24156 0.0
H450 H 0.93258 0.1283 0.23209 0.0
H451 H 0.95613 0.22129 0.16574 0.0
C452 C 0.92167 0.20064 0.12276 0.0
C453 C 0.90198 0.17339 0.11044 0.0
C454 C 0.95568 0.14334 0.23457 0.0
C455 C 0.9369 0.17393 0.17949 0.0
C456 C 0.98231 0.13461 0.25855 0.0
C457 C 0.01334 0.15243 0.26063 0.0
C458 C 0.9604 0.16972 0.21196 0.0
C459 C 0.01581 0.18047 0.24045 0.0
C460 C 0.93942 0.20094 0.15735 0.0
C461 C 0.89838 0.14797 0.13439 0.0
N462 N 0.98992 0.18793 0.21623 0.0
N463 N 0.9159 0.14874 0.1676 0.0
H464 H 0.2183 0.83257 0.16978 0.0
H465 H 0.21041 0.67132 0.2815 0.0
H466 H 0.14366 0.75619 0.14366 0.0
H467 H 0.27998 0.75131 0.30904 0.0
H468 H 0.18078 0.70393 0.23577 0.0
H469 H 0.23621 0.80548 0.2255 0.0
C470 C 0.20552 0.81011 0.17593 0.0
C471 C 0.17982 0.79634 0.15173 0.0
C472 C 0.20219 0.71454 0.2522 0.0
C473 C 0.20046 0.76491 0.2156 0.0
C474 C 0.21905 0.69597 0.27834 0.0
C475 C 0.2478 0.70886 0.2988 0.0
C476 C 0.21434 0.74597 0.24647 0.0
C477 C 0.25797 0.74073 0.29363 0.0
C478 C 0.21571 0.79466 0.20787 0.0
C479 C 0.16374 0.76751 0.16147 0.0
N480 N 0.2415 0.75813 0.26774 0.0
N481 N 0.17468 0.75246 0.19244 0.0
H482 H 0.71 0.75482 0.55344 0.0
H483 H 0.89018 0.74731 0.66746 0.0
H484 H 0.77397 0.66877 0.55511 0.0
H485 H 0.82195 0.83049 0.67264 0.0
H486 H 0.85 0.71916 0.6223 0.0
H487 H 0.75305 0.78434 0.59327 0.0
C488 C 0.73316 0.74218 0.56194 0.0
C489 C 0.73826 0.70923 0.55099 0.0
C490 C 0.84389 0.74362 0.63327 0.0
C491 C 0.78758 0.74281 0.59668 0.0
C492 C 0.8668 0.75956 0.65891 0.0
C493 C 0.85928 0.79096 0.67384 0.0
C494 C 0.8133 0.75939 0.6225 0.0
C495 C 0.8287 0.80612 0.66198 0.0
C496 C 0.7577 0.75902 0.58476 0.0
C497 C 0.7688 0.69411 0.56294 0.0
N498 N 0.80683 0.79014 0.63709 0.0
N499 N 0.79221 0.71098 0.5852 0.0
H500 H 0.73081 0.18097 0.0618 0.0
H501 H 0.7018 0.35525 0.17015 0.0
H502 H 0.8022 0.26119 0.05447 0.0
H503 H 0.62752 0.27697 0.16984 0.0
H504 H 0.73858 0.32177 0.12638 0.0
H505 H 0.69217 0.21626 0.10047 0.0
C506 C 0.73834 0.20603 0.06821 0.0
C507 C 0.76986 0.2181 0.05487 0.0
C508 C 0.71413 0.31199 0.13571 0.0
C509 C 0.72569 0.25866 0.0993 0.0
C510 C 0.69326 0.33109 0.16054 0.0
C511 C 0.66187 0.31884 0.17349 0.0
C512 C 0.70344 0.28033 0.124 0.0
C513 C 0.65164 0.28737 0.16053 0.0
C514 C 0.71622 0.2262 0.09028 0.0
C515 C 0.77818 0.25081 0.06411 0.0
N516 N 0.67248 0.26915 0.13661 0.0
N517 N 0.75628 0.26992 0.08587 0.0
H518 H 0.27477 0.33453 0.6677 0.0
H519 H 0.29664 0.1875 0.80039 0.0
H520 H 0.36039 0.26667 0.65789 0.0
H521 H 0.21549 0.2595 0.81337 0.0
H522 H 0.32473 0.21962 0.7534 0.0
H523 H 0.25703 0.31114 0.72596 0.0
C524 C 0.29 0.31481 0.67796 0.0
C525 C 0.31877 0.30218 0.65756 0.0
C526 C 0.30107 0.22868 0.76691 0.0
C527 C 0.29844 0.27508 0.7243 0.0
C528 C 0.28507 0.21038 0.79377 0.0
C529 C 0.25355 0.221 0.81042 0.0
C530 C 0.28526 0.25753 0.75654 0.0
C531 C 0.2397 0.25068 0.80091 0.0
C532 C 0.2799 0.30151 0.71133 0.0
C533 C 0.33787 0.27698 0.67256 0.0
N534 N 0.2554 0.26779 0.77428 0.0
N535 N 0.32707 0.26394 0.70479 0.0
H536 H 0.72724 0.66231 0.38695 0.0
H537 H 0.70833 0.81603 0.26329 0.0
H538 H 0.64511 0.73324 0.40393 0.0
H539 H 0.7833 0.7395 0.24072 0.0
H540 H 0.68193 0.78451 0.31197 0.0
H541 H 0.74523 0.68835 0.33048 0.0
C542 C 0.71283 0.68329 0.37867 0.0
C543 C 0.68488 0.69585 0.40049 0.0
C544 C 0.70392 0.77442 0.29612 0.0
C545 C 0.70552 0.72599 0.33578 0.0
C546 C 0.71898 0.7924 0.26835 0.0
C547 C 0.74818 0.78017 0.24827 0.0
C548 C 0.71833 0.74425 0.30391 0.0
C549 C 0.76089 0.74955 0.25583 0.0
C550 C 0.72309 0.69813 0.34633 0.0
C551 C 0.66692 0.72284 0.38807 0.0
N552 N 0.7461 0.73271 0.28327 0.0
N553 N 0.67781 0.73725 0.35674 0.0
H554 H 0.86242 0.23694 0.90499 0.0
H555 H 0.72121 0.23993 0.73913 0.0
H556 H 0.77724 0.16921 0.88872 0.0
H557 H 0.79395 0.31766 0.76533 0.0
H558 H 0.75022 0.20765 0.78555 0.0
H559 H 0.84581 0.26118 0.84616 0.0
C560 C 0.8405 0.22697 0.88886 0.0
C561 C 0.82075 0.20146 0.90207 0.0
C562 C 0.76017 0.2316 0.78082 0.0
C563 C 0.80186 0.22877 0.83495 0.0
C564 C 0.74373 0.24983 0.75427 0.0
C565 C 0.75501 0.28132 0.74881 0.0
C566 C 0.78799 0.24522 0.80224 0.0
C567 C 0.78429 0.29343 0.76896 0.0
C568 C 0.83103 0.24081 0.85537 0.0
C569 C 0.79277 0.18929 0.87997 0.0
N570 N 0.79955 0.27544 0.79519 0.0
N571 N 0.78404 0.20318 0.84769 0.0
H572 H 0.29872 0.23222 0.51383 0.0
H573 H 0.1274 0.218 0.38515 0.0
H574 H 0.23194 0.3134 0.49285 0.0
H575 H 0.19804 0.1383 0.39841 0.0
H576 H 0.16325 0.25237 0.42829 0.0
H577 H 0.26001 0.19653 0.47553 0.0
C578 C 0.27581 0.24254 0.50138 0.0
C579 C 0.26863 0.27592 0.50653 0.0
C580 C 0.17093 0.22736 0.42192 0.0
C581 C 0.22428 0.23514 0.4625 0.0
C582 C 0.15045 0.20771 0.39731 0.0
C583 C 0.16005 0.17527 0.38829 0.0
C584 C 0.20116 0.2145 0.43757 0.0
C585 C 0.19004 0.16322 0.40481 0.0
C586 C 0.25376 0.22213 0.47944 0.0
C587 C 0.23857 0.28787 0.48964 0.0
N588 N 0.20966 0.18285 0.42864 0.0
N589 N 0.21757 0.2675 0.46831 0.0
H590 H 0.20743 0.74446 0.99785 0.0
H591 H 0.38717 0.75324 0.88416 0.0
H592 H 0.27095 0.83081 0.99729 0.0
H593 H 0.31883 0.67023 0.87706 0.0
H594 H 0.34714 0.78085 0.92974 0.0
H595 H 0.25025 0.7155 0.95744 0.0
C596 C 0.23044 0.75731 0.98942 0.0
C597 C 0.23551 0.79017 0.00096 0.0
C598 C 0.34096 0.75655 0.91831 0.0
C599 C 0.28463 0.75713 0.95458 0.0
C600 C 0.3638 0.74089 0.89245 0.0
C601 C 0.3562 0.70971 0.87686 0.0
C602 C 0.31033 0.74073 0.92861 0.0
C603 C 0.32564 0.69442 0.88831 0.0
C604 C 0.25487 0.74075 0.96628 0.0
C605 C 0.26586 0.80552 0.98907 0.0
N606 N 0.30379 0.71015 0.91343 0.0
N607 N 0.2892 0.78889 0.96648 0.0
loop_
_geom_bond_atom_site_label_1
_geom_bond_atom_site_label_2
_geom_bond_distance
_geom_bond_site_symmetry_2
_ccdc_geom_bond_type
Fe0 O2 1.918 . S
Fe0 O5 1.997 . S
Fe0 O6 2.002 . S
Fe0 O11 1.976 . S
Fe0 O14 1.996 . S
Fe1 O2 1.918 . S
Fe1 O9 1.997 . S
Fe1 O12 1.996 . S
Fe1 O16 1.976 1_554 S
Fe1 O19 2.002 . S
O2 Fe0 1.918 . S
O2 Fe1 1.918 . S
O2 Fe3 1.918 . S
Fe3 O2 1.918 . S
Fe3 O4 2.002 . S
Fe3 O13 1.976 . S
Fe3 O17 1.996 1_554 S
Fe3 O20 1.997 . S
O4 Fe3 2.002 . S
O4 C21 1.295 . S
O5 Fe0 1.997 . S
O5 C21 1.235 . S
O6 Fe0 2.002 . S
O6 C7 1.295 . S
C7 O6 1.295 . S
C7 O9 1.235 . S
C8 O13 1.287 . S
C8 O14 1.255 . S
O9 Fe1 1.997 . S
O9 C7 1.235 . S
C10 O16 1.287 . S
C10 O17 1.255 . S
O11 Fe0 1.976 . S
O11 C18 1.287 . S
O12 Fe1 1.996 . S
O12 C18 1.255 . S
O13 Fe3 1.976 . S
O13 C8 1.287 . S
O14 Fe0 1.996 . S
O14 C8 1.255 . S
C15 O19 1.295 . S
C15 O20 1.235 . S
O16 Fe1 1.976 1_556 S
O16 C10 1.287 . S
O17 Fe3 1.996 1_556 S
O17 C10 1.255 . S
C18 O11 1.287 . S
C18 O12 1.255 . S
O19 Fe1 2.002 . S
O19 C15 1.295 . S
O20 Fe3 1.997 . S
O20 C15 1.235 . S
C21 O4 1.295 . S
C21 O5 1.235 . S
Fe22 O24 1.918 . S
Fe22 O27 1.997 . S
Fe22 O28 2.002 . S
Fe22 O33 1.976 . S
Fe22 O36 1.996 . S
Fe23 O24 1.918 . S
Fe23 O31 1.997 . S
Fe23 O34 1.996 . S
Fe23 O38 1.976 . S
Fe23 O41 2.002 . S
O24 Fe22 1.918 . S
O24 Fe23 1.918 . S
O24 Fe25 1.918 . S
Fe25 O24 1.918 . S
Fe25 O26 2.002 . S
Fe25 O35 1.976 . S
Fe25 O39 1.996 . S
Fe25 O42 1.997 . S
O26 Fe25 2.002 . S
O26 C43 1.295 . S
O27 Fe22 1.997 . S
O27 C43 1.235 . S
O28 Fe22 2.002 . S
O28 C29 1.295 . S
C29 O28 1.295 . S
C29 O31 1.235 . S
C30 O35 1.287 . S
C30 O36 1.255 . S
O31 Fe23 1.997 . S
O31 C29 1.235 . S
C32 O38 1.287 . S
C32 O39 1.255 . S
O33 Fe22 1.976 . S
O33 C40 1.287 . S
O34 Fe23 1.996 . S
O34 C40 1.255 . S
O35 Fe25 1.976 . S
O35 C30 1.287 . S
O36 Fe22 1.996 . S
O36 C30 1.255 . S
C37 O41 1.295 . S
C37 O42 1.235 . S
O38 Fe23 1.976 . S
O38 C32 1.287 . S
O39 Fe25 1.996 . S
O39 C32 1.255 . S
C40 O33 1.287 . S
C40 O34 1.255 . S
O41 Fe23 2.002 . S
O41 C37 1.295 . S
O42 Fe25 1.997 . S
O42 C37 1.235 . S
C43 O26 1.295 . S
C43 O27 1.235 . S
Fe44 O46 1.918 . S
Fe44 O49 1.997 1_554 S
Fe44 O50 2.002 1_554 S
Fe44 O55 1.976 . S
Fe44 O58 1.996 . S
Fe45 O46 1.918 . S
Fe45 O53 1.997 1_554 S
Fe45 O56 1.996 . S
Fe45 O60 1.976 . S
Fe45 O63 2.002 1_554 S
O46 Fe44 1.918 . S
O46 Fe45 1.918 . S
O46 Fe47 1.918 1_554 S
Fe47 O46 1.918 1_556 S
Fe47 O48 2.002 . S
Fe47 O57 1.976 1_556 S
Fe47 O61 1.996 1_556 S
Fe47 O64 1.997 . S
O48 Fe47 2.002 . S
O48 C65 1.295 . S
O49 Fe44 1.997 1_556 S
O49 C65 1.235 . S
O50 Fe44 2.002 1_556 S
O50 C51 1.295 . S
C51 O50 1.295 . S
C51 O53 1.235 . S
C52 O57 1.287 . S
C52 O58 1.255 . S
O53 Fe45 1.997 1_556 S
O53 C51 1.235 . S
C54 O60 1.287 . S
C54 O61 1.255 . S
O55 Fe44 1.976 . S
O55 C62 1.287 . S
O56 Fe45 1.996 . S
O56 C62 1.255 . S
O57 Fe47 1.976 1_554 S
O57 C52 1.287 . S
O58 Fe44 1.996 . S
O58 C52 1.255 . S
C59 O63 1.295 . S
C59 O64 1.235 . S
O60 Fe45 1.976 . S
O60 C54 1.287 . S
O61 Fe47 1.996 1_554 S
O61 C54 1.255 . S
C62 O55 1.287 . S
C62 O56 1.255 . S
O63 Fe45 2.002 1_556 S
O63 C59 1.295 . S
O64 Fe47 1.997 . S
O64 C59 1.235 . S
C65 O48 1.295 . S
C65 O49 1.235 . S
Fe66 O68 1.918 . S
Fe66 O71 1.997 . S
Fe66 O72 2.002 . S
Fe66 O77 1.976 . S
Fe66 O80 1.996 . S
Fe67 O68 1.918 . S
Fe67 O75 1.997 . S
Fe67 O78 1.996 . S
Fe67 O82 1.976 . S
Fe67 O85 2.002 . S
O68 Fe66 1.918 . S
O68 Fe67 1.918 . S
O68 Fe69 1.918 . S
Fe69 O68 1.918 . S
Fe69 O70 2.002 . S
Fe69 O79 1.976 . S
Fe69 O83 1.996 . S
Fe69 O86 1.997 . S
O70 Fe69 2.002 . S
O70 C87 1.295 . S
O71 Fe66 1.997 . S
O71 C87 1.235 . S
O72 Fe66 2.002 . S
O72 C73 1.295 . S
C73 O72 1.295 . S
C73 O75 1.235 . S
C74 O79 1.287 . S
C74 O80 1.255 . S
O75 Fe67 1.997 . S
O75 C73 1.235 . S
C76 O82 1.287 . S
C76 O83 1.255 . S
O77 Fe66 1.976 . S
O77 C84 1.287 . S
O78 Fe67 1.996 . S
O78 C84 1.255 . S
O79 Fe69 1.976 . S
O79 C74 1.287 . S
O80 Fe66 1.996 . S
O80 C74 1.255 . S
C81 O85 1.295 . S
C81 O86 1.235 . S
O82 Fe67 1.976 . S
O82 C76 1.287 . S
O83 Fe69 1.996 . S
O83 C76 1.255 . S
C84 O77 1.287 . S
C84 O78 1.255 . S
O85 Fe67 2.002 . S
O85 C81 1.295 . S
O86 Fe69 1.997 . S
O86 C81 1.235 . S
C87 O70 1.295 . S
C87 O71 1.235 . S
H88 C93 0.929 . S
H89 C98 0.931 . S
H90 C96 0.930 . S
N91 N92 1.234 . S
N91 C95 1.453 . S
N92 N91 1.234 . S
C93 H88 0.929 . S
C93 C94 1.373 . S
C93 C95 1.368 . S
C94 C93 1.373 . S
C94 C98 1.397 . S
C95 N91 1.453 . S
C95 C93 1.368 . S
C95 C96 1.373 . S
C96 H90 0.930 . S
C96 C95 1.373 . S
C96 C97 1.371 . S
C97 C96 1.371 . S
C97 C98 1.383 . S
C98 H89 0.931 . S
C98 C94 1.397 . S
C98 C97 1.383 . S
H99 C104 0.929 . S
H100 C109 0.931 . S
H101 C107 0.930 . S
N102 N103 1.234 . S
N102 C106 1.453 . S
N103 N102 1.234 . S
C104 H99 0.929 . S
C104 C105 1.373 . S
C104 C106 1.368 . S
C105 C104 1.373 . S
C105 C109 1.397 . S
C106 N102 1.453 . S
C106 C104 1.368 . S
C106 C107 1.373 . S
C107 H101 0.930 . S
C107 C106 1.373 . S
C107 C108 1.371 . S
C108 C107 1.371 . S
C108 C109 1.383 . S
C109 H100 0.931 . S
C109 C105 1.397 . S
C109 C108 1.383 . S
H110 C115 0.929 . S
H111 C120 0.931 . S
H112 C118 0.930 . S
N113 N114 1.234 . S
N113 C117 1.453 . S
N114 N113 1.234 . S
C115 H110 0.929 . S
C115 C116 1.373 . S
C115 C117 1.368 . S
C116 C115 1.373 . S
C116 C120 1.397 . S
C117 N113 1.453 . S
C117 C115 1.368 . S
C117 C118 1.373 . S
C118 H112 0.930 . S
C118 C117 1.373 . S
C118 C119 1.371 . S
C119 C118 1.371 . S
C119 C120 1.383 . S
C120 H111 0.931 . S
C120 C116 1.397 . S
C120 C119 1.383 . S
H121 C126 0.929 . S
H122 C131 0.931 . S
H123 C129 0.930 . S
N124 N125 1.234 . S
N124 C128 1.453 . S
N125 N124 1.234 . S
C126 H121 0.929 . S
C126 C127 1.373 . S
C126 C128 1.368 . S
C127 C126 1.373 . S
C127 C131 1.397 . S
C128 N124 1.453 . S
C128 C126 1.368 . S
C128 C129 1.373 . S
C129 H123 0.930 . S
C129 C128 1.373 . S
C129 C130 1.371 . S
C130 C129 1.371 . S
C130 C131 1.383 . S
C131 H122 0.931 . S
C131 C127 1.397 . S
C131 C130 1.383 . S
H132 C137 0.929 . S
H133 C142 0.931 . S
H134 C140 0.930 . S
N135 N136 1.234 . S
N135 C139 1.453 . S
N136 N135 1.234 . S
C137 H132 0.929 . S
C137 C138 1.373 . S
C137 C139 1.368 . S
C138 C137 1.373 . S
C138 C142 1.397 . S
C139 N135 1.453 . S
C139 C137 1.368 . S
C139 C140 1.373 . S
C140 H134 0.930 . S
C140 C139 1.373 . S
C140 C141 1.371 . S
C141 C140 1.371 . S
C141 C142 1.383 . S
C142 H133 0.931 . S
C142 C138 1.397 . S
C142 C141 1.383 . S
H143 C148 0.929 . S
H144 C153 0.931 . S
H145 C151 0.930 . S
N146 N147 1.234 . S
N146 C150 1.453 . S
N147 N146 1.234 . S
C148 H143 0.929 . S
C148 C149 1.373 . S
C148 C150 1.368 . S
C149 C148 1.373 . S
C149 C153 1.397 . S
C150 N146 1.453 . S
C150 C148 1.368 . S
C150 C151 1.373 . S
C151 H145 0.930 . S
C151 C150 1.373 . S
C151 C152 1.371 . S
C152 C151 1.371 . S
C152 C153 1.383 . S
C153 H144 0.931 . S
C153 C149 1.397 . S
C153 C152 1.383 . S
H154 C159 0.929 . S
H155 C164 0.931 . S
H156 C162 0.930 . S
N157 N158 1.234 . S
N157 C161 1.453 . S
N158 N157 1.234 . S
C159 H154 0.929 . S
C159 C160 1.373 . S
C159 C161 1.368 . S
C160 C159 1.373 . S
C160 C164 1.397 . S
C161 N157 1.453 . S
C161 C159 1.368 . S
C161 C162 1.373 . S
C162 H156 0.930 . S
C162 C161 1.373 . S
C162 C163 1.371 . S
C163 C162 1.371 . S
C163 C164 1.383 . S
C164 H155 0.931 . S
C164 C160 1.397 . S
C164 C163 1.383 . S
H165 C170 0.929 . S
H166 C175 0.931 . S
H167 C173 0.930 . S
N168 N169 1.234 . S
N168 C172 1.453 . S
N169 N168 1.234 . S
C170 H165 0.929 . S
C170 C171 1.373 . S
C170 C172 1.368 . S
C171 C170 1.373 . S
C171 C175 1.397 . S
C172 N168 1.453 . S
C172 C170 1.368 . S
C172 C173 1.373 . S
C173 H167 0.930 . S
C173 C172 1.373 . S
C173 C174 1.371 . S
C174 C173 1.371 . S
C174 C175 1.383 . S
C175 H166 0.931 . S
C175 C171 1.397 . S
C175 C174 1.383 . S
H176 C182 0.930 . S
H177 C186 0.930 . S
H178 C191 0.929 . S
H179 C189 0.929 . S
H180 C184 0.929 . S
H181 C190 0.929 1_545 S
C182 H176 0.930 . S
C182 C183 1.367 . S
C182 C190 1.378 . S
C183 C182 1.367 . S
C183 C191 1.433 . S
C184 H180 0.929 . S
C184 C186 1.378 . S
C184 C188 1.350 . S
C185 C188 1.463 1_565 S
C185 C190 1.350 . S
C185 N193 1.427 . S
C186 H177 0.930 . S
C186 C184 1.378 . S
C186 C187 1.367 . S
C187 C186 1.367 . S
C187 C189 1.433 . S
C188 C184 1.350 . S
C188 C185 1.463 1_545 S
C188 N192 1.427 . S
C189 H179 0.929 . S
C189 C187 1.433 . S
C189 N192 1.384 . S
C190 H181 0.929 1_565 S
C190 C182 1.378 . S
C190 C185 1.350 . S
C191 H178 0.929 . S
C191 C183 1.433 . S
C191 N193 1.384 . S
N192 C188 1.427 . S
N192 C189 1.384 . S
N193 C185 1.427 . S
N193 C191 1.384 . S
H194 C200 0.930 . S
H195 C204 0.930 . S
H196 C209 0.929 . S
H197 C207 0.929 . S
H198 C202 0.929 . S
H199 C208 0.929 . S
C200 H194 0.930 . S
C200 C201 1.367 . S
C200 C208 1.378 . S
C201 C200 1.367 . S
C201 C209 1.433 . S
C202 H198 0.929 . S
C202 C204 1.378 . S
C202 C206 1.350 . S
C203 C206 1.463 . S
C203 C208 1.350 . S
C203 N211 1.427 . S
C204 H195 0.930 . S
C204 C202 1.378 . S
C204 C205 1.367 . S
C205 C204 1.367 . S
C205 C207 1.433 . S
C206 C202 1.350 . S
C206 C203 1.463 . S
C206 N210 1.427 . S
C207 H197 0.929 . S
C207 C205 1.433 . S
C207 N210 1.384 . S
C208 H199 0.929 . S
C208 C200 1.378 . S
C208 C203 1.350 . S
C209 H196 0.929 . S
C209 C201 1.433 . S
C209 N211 1.384 . S
N210 C206 1.427 . S
N210 C207 1.384 . S
N211 C203 1.427 . S
N211 C209 1.384 . S
H212 C218 0.930 . S
H213 C222 0.930 . S
H214 C227 0.929 . S
H215 C225 0.929 . S
H216 C220 0.929 . S
H217 C226 0.929 . S
C218 H212 0.930 . S
C218 C219 1.367 . S
C218 C226 1.378 1_545 S
C219 C218 1.367 . S
C219 C227 1.433 . S
C220 H216 0.929 . S
C220 C222 1.378 . S
C220 C224 1.350 . S
C221 C224 1.463 . S
C221 C226 1.350 . S
C221 N229 1.427 1_565 S
C222 H213 0.930 . S
C222 C220 1.378 . S
C222 C223 1.367 . S
C223 C222 1.367 . S
C223 C225 1.433 . S
C224 C220 1.350 . S
C224 C221 1.463 . S
C224 N228 1.427 . S
C225 H215 0.929 . S
C225 C223 1.433 . S
C225 N228 1.384 . S
C226 H217 0.929 . S
C226 C218 1.378 1_565 S
C226 C221 1.350 . S
C227 H214 0.929 . S
C227 C219 1.433 . S
C227 N229 1.384 . S
N228 C224 1.427 . S
N228 C225 1.384 . S
N229 C221 1.427 1_545 S
N229 C227 1.384 . S
H230 C236 0.930 . S
H231 C240 0.930 . S
H232 C245 0.929 . S
H233 C243 0.929 . S
H234 C238 0.929 . S
H235 C244 0.929 . S
C236 H230 0.930 . S
C236 C237 1.367 . S
C236 C244 1.378 . S
C237 C236 1.367 . S
C237 C245 1.433 . S
C238 H234 0.929 . S
C238 C240 1.378 . S
C238 C242 1.350 . S
C239 C242 1.463 . S
C239 C244 1.350 . S
C239 N247 1.427 . S
C240 H231 0.930 . S
C240 C238 1.378 . S
C240 C241 1.367 . S
C241 C240 1.367 . S
C241 C243 1.433 . S
C242 C238 1.350 . S
C242 C239 1.463 . S
C242 N246 1.427 . S
C243 H233 0.929 . S
C243 C241 1.433 . S
C243 N246 1.384 . S
C244 H235 0.929 . S
C244 C236 1.378 . S
C244 C239 1.350 . S
C245 H232 0.929 . S
C245 C237 1.433 . S
C245 N247 1.384 . S
N246 C242 1.427 . S
N246 C243 1.384 . S
N247 C239 1.427 . S
N247 C245 1.384 . S
H248 C254 0.930 . S
H249 C258 0.930 . S
H250 C263 0.929 . S
H251 C261 0.929 . S
H252 C256 0.929 . S
H253 C262 0.929 . S
C254 H248 0.930 . S
C254 C255 1.367 . S
C254 C262 1.378 . S
C255 C254 1.367 . S
C255 C263 1.433 . S
C256 H252 0.929 . S
C256 C258 1.378 . S
C256 C260 1.350 . S
C257 C260 1.463 . S
C257 C262 1.350 . S
C257 N265 1.427 . S
C258 H249 0.930 . S
C258 C256 1.378 . S
C258 C259 1.367 . S
C259 C258 1.367 . S
C259 C261 1.433 . S
C260 C256 1.350 . S
C260 C257 1.463 . S
C260 N264 1.427 . S
C261 H251 0.929 . S
C261 C259 1.433 . S
C261 N264 1.384 . S
C262 H253 0.929 . S
C262 C254 1.378 . S
C262 C257 1.350 . S
C263 H250 0.929 . S
C263 C255 1.433 . S
C263 N265 1.384 . S
N264 C260 1.427 . S
N264 C261 1.384 . S
N265 C257 1.427 . S
N265 C263 1.384 . S
H266 C272 0.930 . S
H267 C276 0.930 . S
H268 C281 0.929 1_654 S
H269 C279 0.929 . S
H270 C274 0.929 . S
H271 C280 0.929 . S
C272 H266 0.930 . S
C272 C273 1.367 . S
C272 C280 1.378 1_655 S
C273 C272 1.367 . S
C273 C281 1.433 1_655 S
C274 H270 0.929 . S
C274 C276 1.378 . S
C274 C278 1.350 . S
C275 C278 1.463 . S
C275 C280 1.350 . S
C275 N283 1.427 . S
C276 H267 0.930 . S
C276 C274 1.378 . S
C276 C277 1.367 . S
C277 C276 1.367 . S
C277 C279 1.433 . S
C278 C274 1.350 . S
C278 C275 1.463 . S
C278 N282 1.427 . S
C279 H269 0.929 . S
C279 C277 1.433 . S
C279 N282 1.384 . S
C280 H271 0.929 . S
C280 C272 1.378 1_455 S
C280 C275 1.350 . S
C281 H268 0.929 1_456 S
C281 C273 1.433 1_455 S
C281 N283 1.384 . S
N282 C278 1.427 . S
N282 C279 1.384 . S
N283 C275 1.427 . S
N283 C281 1.384 . S
H284 C290 0.930 . S
H285 C294 0.930 . S
H286 C299 0.929 . S
H287 C297 0.929 . S
H288 C292 0.929 . S
H289 C298 0.929 . S
C290 H284 0.930 . S
C290 C291 1.367 . S
C290 C298 1.378 . S
C291 C290 1.367 . S
C291 C299 1.433 . S
C292 H288 0.929 . S
C292 C294 1.378 . S
C292 C296 1.350 . S
C293 C296 1.463 . S
C293 C298 1.350 . S
C293 N301 1.427 . S
C294 H285 0.930 . S
C294 C292 1.378 . S
C294 C295 1.367 . S
C295 C294 1.367 . S
C295 C297 1.433 . S
C296 C292 1.350 . S
C296 C293 1.463 . S
C296 N300 1.427 . S
C297 H287 0.929 . S
C297 C295 1.433 . S
C297 N300 1.384 . S
C298 H289 0.929 . S
C298 C290 1.378 . S
C298 C293 1.350 . S
C299 H286 0.929 . S
C299 C291 1.433 . S
C299 N301 1.384 . S
N300 C296 1.427 . S
N300 C297 1.384 . S
N301 C293 1.427 . S
N301 C299 1.384 . S
H302 C308 0.930 . S
H303 C312 0.930 . S
H304 C317 0.929 . S
H305 C315 0.929 . S
H306 C310 0.929 . S
H307 C316 0.929 1_655 S
C308 H302 0.930 . S
C308 C309 1.367 . S
C308 C316 1.378 . S
C309 C308 1.367 . S
C309 C317 1.433 . S
C310 H306 0.929 . S
C310 C312 1.378 1_455 S
C310 C314 1.350 1_455 S
C311 C314 1.463 1_455 S
C311 C316 1.350 . S
C311 N319 1.427 . S
C312 H303 0.930 . S
C312 C310 1.378 1_655 S
C312 C313 1.367 . S
C313 C312 1.367 . S
C313 C315 1.433 . S
C314 C310 1.350 1_655 S
C314 C311 1.463 1_655 S
C314 N318 1.427 . S
C315 H305 0.929 . S
C315 C313 1.433 . S
C315 N318 1.384 . S
C316 H307 0.929 1_455 S
C316 C308 1.378 . S
C316 C311 1.350 . S
C317 H304 0.929 . S
C317 C309 1.433 . S
C317 N319 1.384 . S
N318 C314 1.427 . S
N318 C315 1.384 . S
N319 C311 1.427 . S
N319 C317 1.384 . S
H320 C326 0.930 . S
H321 C330 0.930 . S
H322 C335 0.929 . S
H323 C333 0.929 . S
H324 C328 0.929 . S
H325 C334 0.929 . S
C326 H320 0.930 . S
C326 C327 1.367 . S
C326 C334 1.378 . S
C327 C326 1.367 . S
C327 C335 1.433 . S
C328 H324 0.929 . S
C328 C330 1.378 . S
C328 C332 1.350 . S
C329 C332 1.463 1_545 S
C329 C334 1.350 . S
C329 N337 1.434 . S
C330 H321 0.930 . S
C330 C328 1.378 . S
C330 C331 1.367 . S
C331 C330 1.367 . S
C331 C333 1.433 . S
C332 C328 1.350 . S
C332 C329 1.463 1_565 S
C332 N336 1.427 . S
C333 H323 0.929 . S
C333 C331 1.433 . S
C333 N336 1.384 . S
C334 H325 0.929 . S
C334 C326 1.378 . S
C334 C329 1.350 . S
C335 H322 0.929 . S
C335 C327 1.433 . S
C335 N337 1.404 . S
N336 C332 1.427 . S
N336 C333 1.384 . S
N337 C329 1.434 . S
N337 C335 1.404 . S
H338 C344 0.930 . S
H339 C348 0.930 . S
H340 C353 0.929 . S
H341 C351 0.929 . S
H342 C346 0.929 . S
H343 C352 0.929 . S
C344 H338 0.930 . S
C344 C345 1.367 . S
C344 C352 1.378 . S
C345 C344 1.367 . S
C345 C353 1.433 . S
C346 H342 0.929 . S
C346 C348 1.378 . S
C346 C350 1.350 . S
C347 C350 1.463 . S
C347 C352 1.350 . S
C347 N355 1.427 . S
C348 H339 0.930 . S
C348 C346 1.378 . S
C348 C349 1.367 . S
C349 C348 1.367 . S
C349 C351 1.433 . S
C350 C346 1.350 . S
C350 C347 1.463 . S
C350 N354 1.427 . S
C351 H341 0.929 . S
C351 C349 1.433 . S
C351 N354 1.384 . S
C352 H343 0.929 . S
C352 C344 1.378 . S
C352 C347 1.350 . S
C353 H340 0.929 . S
C353 C345 1.433 . S
C353 N355 1.384 . S
N354 C350 1.427 . S
N354 C351 1.384 . S
N355 C347 1.427 . S
N355 C353 1.384 . S
H356 C362 0.930 . S
H357 C366 0.930 . S
H358 C371 0.929 . S
H359 C369 0.929 . S
H360 C364 0.929 . S
H361 C370 0.929 . S
C362 H356 0.930 . S
C362 C363 1.367 . S
C362 C370 1.378 . S
C363 C362 1.367 . S
C363 C371 1.433 1_556 S
C364 H360 0.929 . S
C364 C366 1.378 . S
C364 C368 1.350 . S
C365 C368 1.463 . S
C365 C370 1.350 1_545 S
C365 N373 1.427 1_556 S
C366 H357 0.930 . S
C366 C364 1.378 . S
C366 C367 1.367 . S
C367 C366 1.367 . S
C367 C369 1.433 . S
C368 C364 1.350 . S
C368 C365 1.463 . S
C368 N372 1.427 . S
C369 H359 0.929 . S
C369 C367 1.433 . S
C369 N372 1.384 . S
C370 H361 0.929 . S
C370 C362 1.378 . S
C370 C365 1.350 1_565 S
C371 H358 0.929 . S
C371 C363 1.433 1_554 S
C371 N373 1.384 1_565 S
N372 C368 1.427 . S
N372 C369 1.384 . S
N373 C365 1.427 1_554 S
N373 C371 1.384 1_545 S
H374 C380 0.930 . S
H375 C384 0.930 . S
H376 C389 0.929 . S
H377 C387 0.929 . S
H378 C382 0.929 . S
H379 C388 0.929 . S
C380 H374 0.930 . S
C380 C381 1.367 . S
C380 C388 1.378 . S
C381 C380 1.367 . S
C381 C389 1.433 . S
C382 H378 0.929 . S
C382 C384 1.378 . S
C382 C386 1.350 . S
C383 C386 1.463 . S
C383 C388 1.350 . S
C383 N391 1.427 . S
C384 H375 0.930 . S
C384 C382 1.378 . S
C384 C385 1.367 . S
C385 C384 1.367 . S
C385 C387 1.433 . S
C386 C382 1.350 . S
C386 C383 1.463 . S
C386 N390 1.427 . S
C387 H377 0.929 . S
C387 C385 1.433 . S
C387 N390 1.384 . S
C388 H379 0.929 . S
C388 C380 1.378 . S
C388 C383 1.350 . S
C389 H376 0.929 . S
C389 C381 1.433 . S
C389 N391 1.384 . S
N390 C386 1.427 . S
N390 C387 1.384 . S
N391 C383 1.427 . S
N391 C389 1.384 . S
H392 C398 0.930 . S
H393 C402 0.930 . S
H394 C407 0.929 . S
H395 C405 0.929 . S
H396 C400 0.929 . S
H397 C406 0.929 . S
C398 H392 0.930 . S
C398 C399 1.367 . S
C398 C406 1.378 . S
C399 C398 1.367 . S
C399 C407 1.433 . S
C400 H396 0.929 . S
C400 C402 1.378 . S
C400 C404 1.350 . S
C401 C404 1.463 . S
C401 C406 1.350 . S
C401 N409 1.427 . S
C402 H393 0.930 . S
C402 C400 1.378 . S
C402 C403 1.367 . S
C403 C402 1.367 . S
C403 C405 1.433 . S
C404 C400 1.350 . S
C404 C401 1.463 . S
C404 N408 1.427 . S
C405 H395 0.929 . S
C405 C403 1.433 . S
C405 N408 1.384 . S
C406 H397 0.929 . S
C406 C398 1.378 . S
C406 C401 1.350 . S
C407 H394 0.929 . S
C407 C399 1.433 . S
C407 N409 1.384 . S
N408 C404 1.427 . S
N408 C405 1.384 . S
N409 C401 1.427 . S
N409 C407 1.384 . S
H410 C416 0.935 . S
H411 C420 0.930 . S
H412 C425 0.929 . S
H413 C423 0.929 . S
H414 C418 0.929 . S
H415 C424 0.929 . S
C416 H410 0.935 . S
C416 C417 1.367 1_655 S
C416 C424 1.378 . S
C417 C416 1.367 1_455 S
C417 C425 1.433 . S
C418 H414 0.929 . S
C418 C420 1.378 . S
C418 C422 1.350 . S
C419 C422 1.463 . S
C419 C424 1.350 . S
C419 N427 1.427 . S
C420 H411 0.930 . S
C420 C418 1.378 . S
C420 C421 1.367 . S
C421 C420 1.367 . S
C421 C423 1.433 . S
C422 C418 1.350 . S
C422 C419 1.463 . S
C422 N426 1.427 . S
C423 H413 0.929 . S
C423 C421 1.433 . S
C423 N426 1.384 . S
C424 H415 0.929 . S
C424 C416 1.378 . S
C424 C419 1.350 . S
C425 H412 0.929 . S
C425 C417 1.433 . S
C425 N427 1.384 1_455 S
N426 C422 1.427 . S
N426 C423 1.384 . S
N427 C419 1.427 . S
N427 C425 1.384 1_655 S
H428 C434 0.930 . S
H429 C438 0.930 . S
H430 C443 0.929 . S
H431 C441 0.929 . S
H432 C436 0.929 . S
H433 C442 0.929 . S
C434 H428 0.930 . S
C434 C435 1.367 . S
C434 C442 1.378 . S
C435 C434 1.367 . S
C435 C443 1.433 . S
C436 H432 0.929 . S
C436 C438 1.378 . S
C436 C440 1.350 . S
C437 C440 1.463 . S
C437 C442 1.350 . S
C437 N445 1.427 . S
C438 H429 0.930 . S
C438 C436 1.378 . S
C438 C439 1.367 . S
C439 C438 1.367 . S
C439 C441 1.433 . S
C440 C436 1.350 . S
C440 C437 1.463 . S
C440 N444 1.427 . S
C441 H431 0.929 . S
C441 C439 1.433 . S
C441 N444 1.384 . S
C442 H433 0.929 . S
C442 C434 1.378 . S
C442 C437 1.350 . S
C443 H430 0.929 . S
C443 C435 1.433 . S
C443 N445 1.384 . S
N444 C440 1.427 . S
N444 C441 1.384 . S
N445 C437 1.427 . S
N445 C443 1.384 . S
H446 C452 0.930 . S
H447 C456 0.930 . S
H448 C461 0.929 . S
H449 C459 0.929 . S
H450 C454 0.929 . S
H451 C460 0.929 1_455 S
C452 H446 0.930 . S
C452 C453 1.367 . S
C452 C460 1.378 . S
C453 C452 1.367 . S
C453 C461 1.433 . S
C454 H450 0.929 . S
C454 C456 1.378 1_655 S
C454 C458 1.350 1_655 S
C455 C458 1.463 1_655 S
C455 C460 1.350 . S
C455 N463 1.427 . S
C456 H447 0.930 . S
C456 C454 1.378 1_455 S
C456 C457 1.367 . S
C457 C456 1.367 . S
C457 C459 1.433 . S
C458 C454 1.350 1_455 S
C458 C455 1.463 1_455 S
C458 N462 1.427 . S
C459 H449 0.929 . S
C459 C457 1.433 . S
C459 N462 1.384 . S
C460 H451 0.929 1_655 S
C460 C452 1.378 . S
C460 C455 1.350 . S
C461 H448 0.929 . S
C461 C453 1.433 . S
C461 N463 1.384 . S
N462 C458 1.427 . S
N462 C459 1.384 . S
N463 C455 1.427 . S
N463 C461 1.384 . S
H464 C470 0.930 . S
H465 C474 0.930 . S
H466 C479 0.929 . S
H467 C477 0.929 . S
H468 C472 0.929 . S
H469 C478 0.929 . S
C470 H464 0.930 . S
C470 C471 1.367 . S
C470 C478 1.378 . S
C471 C470 1.367 . S
C471 C479 1.433 . S
C472 H468 0.929 . S
C472 C474 1.378 . S
C472 C476 1.350 . S
C473 C476 1.463 . S
C473 C478 1.350 . S
C473 N481 1.427 . S
C474 H465 0.930 . S
C474 C472 1.378 . S
C474 C475 1.367 . S
C475 C474 1.367 . S
C475 C477 1.433 . S
C476 C472 1.350 . S
C476 C473 1.463 . S
C476 N480 1.427 . S
C477 H467 0.929 . S
C477 C475 1.433 . S
C477 N480 1.384 . S
C478 H469 0.929 . S
C478 C470 1.378 . S
C478 C473 1.350 . S
C479 H466 0.929 . S
C479 C471 1.433 . S
C479 N481 1.384 . S
N480 C476 1.427 . S
N480 C477 1.384 . S
N481 C473 1.427 . S
N481 C479 1.384 . S
H482 C488 0.930 . S
H483 C492 0.930 . S
H484 C497 0.929 . S
H485 C495 0.929 . S
H486 C490 0.929 . S
H487 C496 0.929 . S
C488 H482 0.930 . S
C488 C489 1.367 . S
C488 C496 1.378 . S
C489 C488 1.367 . S
C489 C497 1.433 . S
C490 H486 0.929 . S
C490 C492 1.378 . S
C490 C494 1.350 . S
C491 C494 1.463 . S
C491 C496 1.350 . S
C491 N499 1.427 . S
C492 H483 0.930 . S
C492 C490 1.378 . S
C492 C493 1.367 . S
C493 C492 1.367 . S
C493 C495 1.433 . S
C494 C490 1.350 . S
C494 C491 1.463 . S
C494 N498 1.427 . S
C495 H485 0.929 . S
C495 C493 1.433 . S
C495 N498 1.384 . S
C496 H487 0.929 . S
C496 C488 1.378 . S
C496 C491 1.350 . S
C497 H484 0.929 . S
C497 C489 1.433 . S
C497 N499 1.384 . S
N498 C494 1.427 . S
N498 C495 1.384 . S
N499 C491 1.427 . S
N499 C497 1.384 . S
H500 C506 0.930 . S
H501 C510 0.930 . S
H502 C515 0.929 . S
H503 C513 0.929 . S
H504 C508 0.929 . S
H505 C514 0.929 . S
C506 H500 0.930 . S
C506 C507 1.367 . S
C506 C514 1.378 . S
C507 C506 1.367 . S
C507 C515 1.433 . S
C508 H504 0.929 . S
C508 C510 1.378 . S
C508 C512 1.350 . S
C509 C512 1.463 . S
C509 C514 1.350 . S
C509 N517 1.427 . S
C510 H501 0.930 . S
C510 C508 1.378 . S
C510 C511 1.367 . S
C511 C510 1.367 . S
C511 C513 1.433 . S
C512 C508 1.350 . S
C512 C509 1.463 . S
C512 N516 1.427 . S
C513 H503 0.929 . S
C513 C511 1.433 . S
C513 N516 1.384 . S
C514 H505 0.929 . S
C514 C506 1.378 . S
C514 C509 1.350 . S
C515 H502 0.929 . S
C515 C507 1.433 . S
C515 N517 1.384 . S
N516 C512 1.427 . S
N516 C513 1.384 . S
N517 C509 1.427 . S
N517 C515 1.384 . S
H518 C524 0.930 . S
H519 C528 0.930 . S
H520 C533 0.929 . S
H521 C531 0.929 . S
H522 C526 0.929 . S
H523 C532 0.929 . S
C524 H518 0.930 . S
C524 C525 1.367 . S
C524 C532 1.378 . S
C525 C524 1.367 . S
C525 C533 1.433 . S
C526 H522 0.929 . S
C526 C528 1.378 . S
C526 C530 1.350 . S
C527 C530 1.463 . S
C527 C532 1.350 . S
C527 N535 1.427 . S
C528 H519 0.930 . S
C528 C526 1.378 . S
C528 C529 1.367 . S
C529 C528 1.367 . S
C529 C531 1.433 . S
C530 C526 1.350 . S
C530 C527 1.463 . S
C530 N534 1.427 . S
C531 H521 0.929 . S
C531 C529 1.433 . S
C531 N534 1.384 . S
C532 H523 0.929 . S
C532 C524 1.378 . S
C532 C527 1.350 . S
C533 H520 0.929 . S
C533 C525 1.433 . S
C533 N535 1.384 . S
N534 C530 1.427 . S
N534 C531 1.384 . S
N535 C527 1.427 . S
N535 C533 1.384 . S
H536 C542 0.930 . S
H537 C546 0.930 . S
H538 C551 0.929 . S
H539 C549 0.929 . S
H540 C544 0.929 . S
H541 C550 0.929 . S
C542 H536 0.930 . S
C542 C543 1.367 . S
C542 C550 1.378 . S
C543 C542 1.367 . S
C543 C551 1.433 . S
C544 H540 0.929 . S
C544 C546 1.378 . S
C544 C548 1.350 . S
C545 C548 1.463 . S
C545 C550 1.350 . S
C545 N553 1.427 . S
C546 H537 0.930 . S
C546 C544 1.378 . S
C546 C547 1.367 . S
C547 C546 1.367 . S
C547 C549 1.433 . S
C548 C544 1.350 . S
C548 C545 1.463 . S
C548 N552 1.427 . S
C549 H539 0.929 . S
C549 C547 1.433 . S
C549 N552 1.384 . S
C550 H541 0.929 . S
C550 C542 1.378 . S
C550 C545 1.350 . S
C551 H538 0.929 . S
C551 C543 1.433 . S
C551 N553 1.384 . S
N552 C548 1.427 . S
N552 C549 1.384 . S
N553 C545 1.427 . S
N553 C551 1.384 . S
H554 C560 0.930 . S
H555 C564 0.930 . S
H556 C569 0.929 . S
H557 C567 0.929 . S
H558 C562 0.929 . S
H559 C568 0.929 . S
C560 H554 0.930 . S
C560 C561 1.367 . S
C560 C568 1.378 . S
C561 C560 1.367 . S
C561 C569 1.433 . S
C562 H558 0.929 . S
C562 C564 1.378 . S
C562 C566 1.350 . S
C563 C566 1.463 . S
C563 C568 1.350 . S
C563 N571 1.427 . S
C564 H555 0.930 . S
C564 C562 1.378 . S
C564 C565 1.367 . S
C565 C564 1.367 . S
C565 C567 1.433 . S
C566 C562 1.350 . S
C566 C563 1.463 . S
C566 N570 1.427 . S
C567 H557 0.929 . S
C567 C565 1.433 . S
C567 N570 1.384 . S
C568 H559 0.929 . S
C568 C560 1.378 . S
C568 C563 1.350 . S
C569 H556 0.929 . S
C569 C561 1.433 . S
C569 N571 1.384 . S
N570 C566 1.427 . S
N570 C567 1.384 . S
N571 C563 1.427 . S
N571 C569 1.384 . S
H572 C578 0.930 . S
H573 C582 0.930 . S
H574 C587 0.929 . S
H575 C585 0.929 . S
H576 C580 0.929 . S
H577 C586 0.929 . S
C578 H572 0.930 . S
C578 C579 1.367 . S
C578 C586 1.378 . S
C579 C578 1.367 . S
C579 C587 1.433 . S
C580 H576 0.929 . S
C580 C582 1.378 . S
C580 C584 1.350 . S
C581 C584 1.463 . S
C581 C586 1.350 . S
C581 N589 1.427 . S
C582 H573 0.930 . S
C582 C580 1.378 . S
C582 C583 1.367 . S
C583 C582 1.367 . S
C583 C585 1.433 . S
C584 C580 1.350 . S
C584 C581 1.463 . S
C584 N588 1.427 . S
C585 H575 0.929 . S
C585 C583 1.433 . S
C585 N588 1.384 . S
C586 H577 0.929 . S
C586 C578 1.378 . S
C586 C581 1.350 . S
C587 H574 0.929 . S
C587 C579 1.433 . S
C587 N589 1.384 . S
N588 C584 1.427 . S
N588 C585 1.384 . S
N589 C581 1.427 . S
N589 C587 1.384 . S
H590 C596 0.930 1_554 S
H591 C600 0.930 . S
H592 C605 0.929 . S
H593 C603 0.929 . S
H594 C598 0.929 . S
H595 C604 0.929 . S
C596 H590 0.930 1_556 S
C596 C597 1.367 . S
C596 C604 1.378 . S
C597 C596 1.367 . S
C597 C605 1.433 . S
C598 H594 0.929 . S
C598 C600 1.378 . S
C598 C602 1.350 . S
C599 C602 1.463 . S
C599 C604 1.350 . S
C599 N607 1.427 . S
C600 H591 0.930 . S
C600 C598 1.378 . S
C600 C601 1.367 . S
C601 C600 1.367 . S
C601 C603 1.433 . S
C602 C598 1.350 . S
C602 C599 1.463 . S
C602 N606 1.427 . S
C603 H593 0.929 . S
C603 C601 1.433 . S
C603 N606 1.384 . S
C604 H595 0.929 . S
C604 C596 1.378 . S
C604 C599 1.350 . S
C605 H592 0.929 . S
C605 C597 1.433 . S
C605 N607 1.384 . S
N606 C602 1.427 . S
N606 C603 1.384 . S
N607 C599 1.427 . S
N607 C605 1.384 . S
C183 C7 1.460 . S
C187 C97 1.406 . S
C201 C37 1.407 . S
C205 C108 1.327 . S
C219 C54 1.346 . S
C223 C116 1.297 . S
C241 C130 1.383 . S
C237 C87 1.402 . S
C259 C141 1.373 . S
C255 C30 1.430 . S
C273 C51 1.415 . S
C277 C152 1.389 . S
C291 C84 1.386 . S
C295 C160 1.319 . S
C309 C10 1.374 . S
C313 C174 1.302 . S
C327 C59 1.332 . S
C331 C171 1.300 . S
C349 C138 1.137 . S
C345 C74 1.184 . S
C367 C149 1.302 . S
C363 C18 1.345 1_556 S
C381 C32 1.409 . S
C385 C163 1.377 . S
C403 C105 1.305 . S
C399 C73 1.315 . S
C417 C15 1.409 . S
C421 C119 1.393 . S
C439 C127 1.332 . S
C435 C43 1.357 . S
C457 C94 1.159 . S
C453 C62 1.181 . S
C475 N158 1.454 . S
C471 C21 1.481 . S
C493 N169 1.435 . S
C489 C29 1.431 . S
C507 C52 1.357 . S
C511 N136 1.343 . S
C529 N147 1.393 . S
C525 C81 1.421 . S
C547 N114 1.421 . S
C543 C40 1.450 . S
C561 C65 1.425 . S
C565 N125 1.385 . S
C583 N92 1.357 . S
C579 C76 1.363 . S
C601 N103 1.437 . S
C597 C8 1.446 1_556 S
