# Generated by pormake.
# Topology pto, (3,4)-cn, num edge types: 1
# Building blocks:
#     Node 0, Type 0, BuildingBlock: WUSLED_clean_sbu_0, # of connection points: 3
#     Node 1, Type 0, BuildingBlock: WUSLED_clean_sbu_0, # of connection points: 3
#     Node 2, Type 0, BuildingBlock: WUSLED_clean_sbu_0, # of connection points: 3
#     Node 3, Type 0, BuildingBlock: WUSLED_clean_sbu_0, # of connection points: 3
#     Node 4, Type 0, BuildingBlock: WUSLED_clean_sbu_0, # of connection points: 3
#     Node 5, Type 0, BuildingBlock: WUSLED_clean_sbu_0, # of connection points: 3
#     Node 6, Type 0, BuildingBlock: WUSLED_clean_sbu_0, # of connection points: 3
#     Node 7, Type 0, BuildingBlock: WUSLED_clean_sbu_0, # of connection points: 3
#     Node 8, Type 1, BuildingBlock: KUFVIS_clean_linker_0, # of connection points: 4
#     Node 9, Type 1, BuildingBlock: KUFVIS_clean_linker_0, # of connection points: 4
#     Node 10, Type 1, BuildingBlock: KUFVIS_clean_linker_0, # of connection points: 4
#     Node 11, Type 1, BuildingBlock: KUFVIS_clean_linker_0, # of connection points: 4
#     Node 12, Type 1, BuildingBlock: KUFVIS_clean_linker_0, # of connection points: 4
#     Node 13, Type 1, BuildingBlock: KUFVIS_clean_linker_0, # of connection points: 4
#     Edge 14, Type (0, 1), BuildingBlock: XUDNAN_clean_linker_2, # of connection points: 2
#     Edge 15, Type (0, 1), BuildingBlock: XUDNAN_clean_linker_2, # of connection points: 2
#     Edge 16, Type (0, 1), BuildingBlock: XUDNAN_clean_linker_2, # of connection points: 2
#     Edge 17, Type (0, 1), BuildingBlock: XUDNAN_clean_linker_2, # of connection points: 2
#     Edge 18, Type (0, 1), BuildingBlock: XUDNAN_clean_linker_2, # of connection points: 2
#     Edge 19, Type (0, 1), BuildingBlock: XUDNAN_clean_linker_2, # of connection points: 2
#     Edge 20, Type (0, 1), BuildingBlock: XUDNAN_clean_linker_2, # of connection points: 2
#     Edge 21, Type (0, 1), BuildingBlock: XUDNAN_clean_linker_2, # of connection points: 2
#     Edge 22, Type (0, 1), BuildingBlock: XUDNAN_clean_linker_2, # of connection points: 2
#     Edge 23, Type (0, 1), BuildingBlock: XUDNAN_clean_linker_2, # of connection points: 2
#     Edge 24, Type (0, 1), BuildingBlock: XUDNAN_clean_linker_2, # of connection points: 2
#     Edge 25, Type (0, 1), BuildingBlock: XUDNAN_clean_linker_2, # of connection points: 2
#     Edge 26, Type (0, 1), BuildingBlock: XUDNAN_clean_linker_2, # of connection points: 2
#     Edge 27, Type (0, 1), BuildingBlock: XUDNAN_clean_linker_2, # of connection points: 2
#     Edge 28, Type (0, 1), BuildingBlock: XUDNAN_clean_linker_2, # of connection points: 2
#     Edge 29, Type (0, 1), BuildingBlock: XUDNAN_clean_linker_2, # of connection points: 2
#     Edge 30, Type (0, 1), BuildingBlock: XUDNAN_clean_linker_2, # of connection points: 2
#     Edge 31, Type (0, 1), BuildingBlock: XUDNAN_clean_linker_2, # of connection points: 2
#     Edge 32, Type (0, 1), BuildingBlock: XUDNAN_clean_linker_2, # of connection points: 2
#     Edge 33, Type (0, 1), BuildingBlock: XUDNAN_clean_linker_2, # of connection points: 2
#     Edge 34, Type (0, 1), BuildingBlock: XUDNAN_clean_linker_2, # of connection points: 2
#     Edge 35, Type (0, 1), BuildingBlock: XUDNAN_clean_linker_2, # of connection points: 2
#     Edge 36, Type (0, 1), BuildingBlock: XUDNAN_clean_linker_2, # of connection points: 2
#     Edge 37, Type (0, 1), BuildingBlock: XUDNAN_clean_linker_2, # of connection points: 2
# Relax obj value: 0.002
# Max RMSD: 0.051
# Mean RMSD: 0.028
data_MOF--net-pto--node1-WUSLED_clean_sbu_0--node2-KUFVIS_clean_linker_0--edge1-XUDNAN_clean_linker_2
_symmetry_space_group_name_H-M    P1
_symmetry_Int_Tables_number       1
_symmetry_cell_setting            triclinic
loop_
_symmetry_equiv_pos_as_xyz
'x, y, z'
_cell_length_a     40.306831
_cell_length_b     64.335336
_cell_length_c     51.716562
_cell_angle_alpha  89.93936
_cell_angle_beta   90.565033
_cell_angle_gamma 90.606633
loop_
_atom_site_label
_atom_site_type_symbol
_atom_site_fract_x
_atom_site_fract_y
_atom_site_fract_z
_atom_type_partial_charge
C0 C 0.20249 0.24621 0.38041 0.0
C1 C 0.20702 0.23002 0.36263 0.0
C2 C 0.20486 0.20461 0.39749 0.0
C3 C 0.20801 0.20938 0.37109 0.0
C4 C 0.20036 0.22092 0.4152 0.0
C5 C 0.19917 0.24154 0.40671 0.0
U6 U 0.22373 0.2865 0.32989 0.0
O7 O 0.19609 0.31322 0.31461 0.0
O8 O 0.2447 0.31808 0.33339 0.0
C9 C 0.21808 0.32677 0.3234 0.0
C10 C 0.20233 0.26799 0.37179 0.0
C11 C 0.20446 0.34472 0.33732 0.0
C12 C 0.19925 0.36621 0.37576 0.0
C13 C 0.21231 0.3488 0.36339 0.0
C14 C 0.17013 0.37552 0.3363 0.0
C15 C 0.17799 0.3798 0.36235 0.0
C16 C 0.18335 0.35825 0.32394 0.0
C17 C 0.26631 0.26839 0.26866 0.0
C18 C 0.29063 0.29254 0.2379 0.0
C19 C 0.28992 0.25557 0.2289 0.0
C20 C 0.27373 0.25185 0.25222 0.0
C21 C 0.2991 0.27591 0.22167 0.0
C22 C 0.27433 0.2888 0.26123 0.0
C23 C 0.25121 0.26406 0.2938 0.0
O24 O 0.23178 0.27685 0.37028 0.0
O25 O 0.18311 0.27197 0.35173 0.0
O26 O 0.21907 0.26705 0.29502 0.0
O27 O 0.26764 0.27146 0.31391 0.0
H28 H 0.21 0.23338 0.34224 0.0
H29 H 0.21182 0.19718 0.35703 0.0
H30 H 0.19744 0.21772 0.43563 0.0
H31 H 0.19577 0.25385 0.42069 0.0
H32 H 0.206 0.3691 0.39576 0.0
H33 H 0.22855 0.3386 0.3742 0.0
H34 H 0.15325 0.3853 0.32549 0.0
H35 H 0.1769 0.35538 0.30386 0.0
H36 H 0.29761 0.30836 0.23303 0.0
H37 H 0.2956 0.24246 0.21664 0.0
H38 H 0.26747 0.23602 0.25762 0.0
H39 H 0.26864 0.30176 0.27373 0.0
C40 C 0.21349 0.82331 0.66878 0.0
C41 C 0.1834 0.83349 0.66419 0.0
C42 C 0.21308 0.86535 0.65261 0.0
C43 C 0.18316 0.8543 0.65632 0.0
C44 C 0.24321 0.85514 0.65747 0.0
C45 C 0.24343 0.8344 0.66555 0.0
U46 U 0.23697 0.78105 0.71685 0.0
O47 O 0.20944 0.754 0.73172 0.0
O48 O 0.25603 0.74948 0.71086 0.0
C49 C 0.22996 0.74061 0.72147 0.0
C50 C 0.21314 0.80123 0.67688 0.0
C51 C 0.21511 0.72272 0.70741 0.0
C52 C 0.16699 0.70214 0.69389 0.0
C53 C 0.18057 0.72039 0.7044 0.0
C54 C 0.2222 0.68852 0.68824 0.0
C55 C 0.18762 0.6858 0.68613 0.0
C56 C 0.23576 0.70673 0.69887 0.0
C57 C 0.28586 0.79692 0.77773 0.0
C58 C 0.28527 0.78393 0.82197 0.0
C59 C 0.33595 0.79827 0.8042 0.0
C60 C 0.31953 0.80211 0.78083 0.0
C61 C 0.31895 0.78935 0.82518 0.0
C62 C 0.26888 0.78764 0.79847 0.0
C63 C 0.26899 0.80182 0.75302 0.0
O64 O 0.24183 0.79167 0.67668 0.0
O65 O 0.19537 0.79687 0.69741 0.0
O66 O 0.23651 0.79966 0.75241 0.0
O67 O 0.28338 0.79491 0.73205 0.0
H68 H 0.15999 0.82533 0.66666 0.0
H69 H 0.15947 0.86171 0.65315 0.0
H70 H 0.26675 0.863 0.65445 0.0
H71 H 0.2671 0.82704 0.66902 0.0
H72 H 0.14025 0.70051 0.69292 0.0
H73 H 0.1639 0.73236 0.7109 0.0
H74 H 0.23883 0.6764 0.68215 0.0
H75 H 0.26246 0.70808 0.70106 0.0
H76 H 0.27134 0.77722 0.83778 0.0
H77 H 0.36206 0.80225 0.80577 0.0
H78 H 0.33317 0.80924 0.76513 0.0
H79 H 0.24287 0.78344 0.7967 0.0
C80 C 0.72063 0.79974 0.2751 0.0
C81 C 0.73779 0.7925 0.25338 0.0
C82 C 0.68678 0.79274 0.22772 0.0
C83 C 0.72102 0.78905 0.22993 0.0
C84 C 0.66971 0.79985 0.24954 0.0
C85 C 0.68648 0.80343 0.27288 0.0
U86 U 0.76667 0.78145 0.33593 0.0
O87 O 0.80934 0.7954 0.35659 0.0
O88 O 0.76171 0.79154 0.3763 0.0
C89 C 0.79165 0.79982 0.37705 0.0
C90 C 0.73774 0.80386 0.30003 0.0
C91 C 0.79309 0.82164 0.3854 0.0
C92 C 0.78319 0.85826 0.37703 0.0
C93 C 0.7827 0.83757 0.36871 0.0
C94 C 0.80445 0.84726 0.41879 0.0
C95 C 0.79402 0.86336 0.40221 0.0
C96 C 0.804 0.82659 0.41043 0.0
C97 C 0.78205 0.72286 0.34379 0.0
C98 C 0.81811 0.7075 0.37633 0.0
C99 C 0.78568 0.68535 0.3476 0.0
C100 C 0.77233 0.70292 0.33571 0.0
C101 C 0.8091 0.68741 0.36781 0.0
C102 C 0.80467 0.7251 0.36441 0.0
C103 C 0.76909 0.74098 0.32985 0.0
O104 O 0.72232 0.79712 0.32074 0.0
O105 O 0.76992 0.80071 0.30089 0.0
O106 O 0.79151 0.75391 0.3206 0.0
O107 O 0.74401 0.75041 0.34066 0.0
H108 H 0.76418 0.78959 0.25438 0.0
H109 H 0.73501 0.78381 0.21344 0.0
H110 H 0.64323 0.8025 0.24872 0.0
H111 H 0.67267 0.80906 0.28927 0.0
H112 H 0.77529 0.87026 0.3637 0.0
H113 H 0.77409 0.83397 0.3493 0.0
H114 H 0.81237 0.85055 0.43845 0.0
H115 H 0.81184 0.81446 0.42361 0.0
H116 H 0.83635 0.70964 0.39164 0.0
H117 H 0.77788 0.67013 0.34081 0.0
H118 H 0.75474 0.70093 0.3199 0.0
H119 H 0.81241 0.74042 0.3709 0.0
C120 C 0.77771 0.24282 0.67331 0.0
C121 C 0.79038 0.23825 0.6489 0.0
C122 C 0.77811 0.20141 0.6554 0.0
C123 C 0.79057 0.21774 0.63999 0.0
C124 C 0.76532 0.20614 0.67989 0.0
C125 C 0.76514 0.22667 0.68877 0.0
U126 U 0.75435 0.28168 0.72445 0.0
O127 O 0.75768 0.26121 0.75841 0.0
O128 O 0.7096 0.26592 0.7391 0.0
C129 C 0.72534 0.25844 0.7594 0.0
C130 C 0.77738 0.26443 0.68249 0.0
C131 C 0.7095 0.26225 0.7846 0.0
C132 C 0.65974 0.26194 0.81075 0.0
C133 C 0.67544 0.25827 0.78728 0.0
C134 C 0.71206 0.27333 0.82961 0.0
C135 C 0.67786 0.26944 0.83225 0.0
C136 C 0.72773 0.2698 0.80603 0.0
C137 C 0.77268 0.34061 0.72063 0.0
C138 C 0.78621 0.37735 0.72382 0.0
C139 C 0.80086 0.35817 0.68534 0.0
C140 C 0.78682 0.34009 0.69596 0.0
C141 C 0.8011 0.37692 0.69936 0.0
C142 C 0.77215 0.35936 0.73433 0.0
C143 C 0.75916 0.32183 0.73295 0.0
O144 O 0.79584 0.26821 0.70309 0.0
O145 O 0.74782 0.27279 0.68365 0.0
O146 O 0.78118 0.30841 0.74129 0.0
O147 O 0.73347 0.31305 0.72135 0.0
H148 H 0.79999 0.25056 0.63667 0.0
H149 H 0.80007 0.21472 0.62086 0.0
H150 H 0.75583 0.19394 0.69233 0.0
H151 H 0.75523 0.22997 0.70772 0.0
H152 H 0.63326 0.25913 0.81189 0.0
H153 H 0.66083 0.25243 0.77109 0.0
H154 H 0.72684 0.27886 0.84584 0.0
H155 H 0.75408 0.27299 0.80465 0.0
H156 H 0.78564 0.39159 0.73495 0.0
H157 H 0.81242 0.35732 0.66656 0.0
H158 H 0.78746 0.32568 0.68516 0.0
H159 H 0.76122 0.36003 0.75337 0.0
C160 C 0.80679 0.73292 0.74185 0.0
C161 C 0.83867 0.73152 0.73131 0.0
C162 C 0.8319 0.69393 0.72683 0.0
C163 C 0.85111 0.71219 0.72388 0.0
C164 C 0.79954 0.6956 0.7365 0.0
C165 C 0.78719 0.71488 0.74396 0.0
U166 U 0.79383 0.79262 0.74281 0.0
O167 O 0.74924 0.80971 0.75387 0.0
O168 O 0.79524 0.81358 0.77642 0.0
C169 C 0.76325 0.8173 0.77496 0.0
C170 C 0.79415 0.75253 0.75251 0.0
C171 C 0.74427 0.81494 0.79923 0.0
C172 C 0.74209 0.81549 0.84631 0.0
C173 C 0.76013 0.81725 0.82343 0.0
C174 C 0.69184 0.8094 0.82132 0.0
C175 C 0.70772 0.81158 0.84551 0.0
C176 C 0.70986 0.81113 0.79847 0.0
C177 C 0.82529 0.82991 0.69175 0.0
C178 C 0.82436 0.86735 0.69826 0.0
C179 C 0.82984 0.85335 0.65508 0.0
C180 C 0.82877 0.83316 0.66513 0.0
C181 C 0.82755 0.87074 0.6715 0.0
C182 C 0.82308 0.84714 0.70827 0.0
C183 C 0.82238 0.80857 0.70189 0.0
O184 O 0.81636 0.76567 0.76195 0.0
O185 O 0.77034 0.76161 0.7393 0.0
O186 O 0.79217 0.80069 0.70145 0.0
O187 O 0.83843 0.80488 0.72366 0.0
H188 H 0.85427 0.74524 0.72945 0.0
H189 H 0.87623 0.71148 0.71671 0.0
H190 H 0.78385 0.68195 0.73859 0.0
H191 H 0.76249 0.71563 0.75198 0.0
H192 H 0.75497 0.81753 0.86462 0.0
H193 H 0.78651 0.82054 0.82472 0.0
H194 H 0.66546 0.80613 0.82001 0.0
H195 H 0.69672 0.8095 0.7802 0.0
H196 H 0.82288 0.88031 0.71153 0.0
H197 H 0.83164 0.85529 0.63434 0.0
H198 H 0.83013 0.82006 0.65205 0.0
H199 H 0.82009 0.84497 0.7289 0.0
C200 C 0.74323 0.24544 0.25795 0.0
C201 C 0.73683 0.26495 0.24697 0.0
C202 C 0.7049 0.24845 0.21224 0.0
C203 C 0.71778 0.26645 0.2243 0.0
C204 C 0.71167 0.22893 0.2233 0.0
C205 C 0.73067 0.22747 0.24597 0.0
U206 U 0.79464 0.26961 0.31262 0.0
O207 O 0.79536 0.26263 0.3542 0.0
O208 O 0.84021 0.25794 0.3313 0.0
C209 C 0.82523 0.25462 0.35341 0.0
C210 C 0.76287 0.2436 0.28186 0.0
C211 C 0.82804 0.23336 0.36383 0.0
C212 C 0.80514 0.19857 0.36979 0.0
C213 C 0.80265 0.21862 0.35955 0.0
C214 C 0.85899 0.20746 0.38805 0.0
C215 C 0.83329 0.19271 0.38428 0.0
C216 C 0.85632 0.2276 0.37797 0.0
C217 C 0.80706 0.32951 0.31173 0.0
C218 C 0.8508 0.35097 0.33092 0.0
C219 C 0.80021 0.36688 0.31535 0.0
C220 C 0.78792 0.34734 0.30802 0.0
C221 C 0.83203 0.369 0.3265 0.0
C222 C 0.83842 0.33138 0.32362 0.0
C223 C 0.79431 0.3095 0.30169 0.0
O224 O 0.7946 0.24804 0.27966 0.0
O225 O 0.74952 0.25176 0.30253 0.0
O226 O 0.77109 0.30029 0.31536 0.0
O227 O 0.81634 0.29655 0.29254 0.0
H228 H 0.7465 0.27899 0.25598 0.0
H229 H 0.7133 0.28168 0.21614 0.0
H230 H 0.70173 0.2148 0.21474 0.0
H231 H 0.73538 0.21229 0.25425 0.0
H232 H 0.78459 0.18784 0.36679 0.0
H233 H 0.78067 0.22266 0.34849 0.0
H234 H 0.88125 0.20345 0.39874 0.0
H235 H 0.87633 0.23869 0.38126 0.0
H236 H 0.87551 0.35203 0.33925 0.0
H237 H 0.78484 0.38036 0.31208 0.0
H238 H 0.7636 0.34621 0.29897 0.0
H239 H 0.85362 0.3178 0.32672 0.0
C240 C 0.20115 0.21761 0.72064 0.0
C241 C 0.20234 0.21997 0.69367 0.0
C242 C 0.1899 0.18305 0.68795 0.0
C243 C 0.19687 0.20282 0.67747 0.0
C244 C 0.18804 0.18091 0.71496 0.0
C245 C 0.1937 0.19802 0.73111 0.0
U246 U 0.20105 0.27554 0.73999 0.0
O247 O 0.20477 0.29153 0.70241 0.0
O248 O 0.15612 0.28674 0.72026 0.0
C249 C 0.17309 0.29618 0.70201 0.0
C250 C 0.20854 0.23506 0.73829 0.0
C251 C 0.16581 0.31839 0.69852 0.0
C252 C 0.15372 0.34763 0.67031 0.0
C253 C 0.16113 0.32658 0.67365 0.0
C254 C 0.15601 0.35259 0.71672 0.0
C255 C 0.15071 0.36088 0.69183 0.0
C256 C 0.16364 0.3316 0.72 0.0
C257 C 0.23954 0.29167 0.8049 0.0
C258 C 0.26889 0.30397 0.84316 0.0
C259 C 0.2655 0.26703 0.8342 0.0
C260 C 0.24692 0.27111 0.81178 0.0
C261 C 0.27712 0.28346 0.8499 0.0
C262 C 0.25027 0.30802 0.82084 0.0
C263 C 0.2222 0.29645 0.78058 0.0
O264 O 0.18274 0.24394 0.74879 0.0
O265 O 0.23144 0.24842 0.73079 0.0
O266 O 0.23989 0.29399 0.75963 0.0
O267 O 0.19178 0.28909 0.77828 0.0
H268 H 0.20781 0.23499 0.68514 0.0
H269 H 0.19804 0.20503 0.65674 0.0
H270 H 0.18306 0.16589 0.72365 0.0
H271 H 0.19272 0.19589 0.75188 0.0
H272 H 0.15032 0.35351 0.65085 0.0
H273 H 0.16307 0.31666 0.65682 0.0
H274 H 0.15343 0.36215 0.73378 0.0
H275 H 0.16743 0.3256 0.73939 0.0
H276 H 0.27713 0.31693 0.85502 0.0
H277 H 0.27172 0.25109 0.83874 0.0
H278 H 0.23891 0.25831 0.79955 0.0
H279 H 0.24474 0.32397 0.81578 0.0
C280 C 0.15938 0.74992 0.35005 0.0
C281 C 0.18009 0.73455 0.33996 0.0
C282 C 0.14301 0.70733 0.35592 0.0
C283 C 0.17208 0.71348 0.34298 0.0
C284 C 0.12243 0.72286 0.36604 0.0
C285 C 0.1306 0.74392 0.36317 0.0
U286 U 0.19766 0.79267 0.30946 0.0
O287 O 0.17991 0.82397 0.29926 0.0
O288 O 0.22752 0.82025 0.3197 0.0
C289 C 0.20509 0.83326 0.31094 0.0
C290 C 0.16679 0.77217 0.34604 0.0
C291 C 0.1969 0.85075 0.32807 0.0
C292 C 0.18348 0.88731 0.33277 0.0
C293 C 0.18913 0.87004 0.31706 0.0
C294 C 0.19274 0.8661 0.37084 0.0
C295 C 0.18571 0.88561 0.35983 0.0
C296 C 0.19818 0.8488 0.3551 0.0
C297 C 0.24082 0.77637 0.2473 0.0
C298 C 0.26894 0.80103 0.21921 0.0
C299 C 0.27152 0.7641 0.21034 0.0
C300 C 0.25178 0.76003 0.23184 0.0
C301 C 0.28067 0.78462 0.20395 0.0
C302 C 0.24921 0.79693 0.24079 0.0
C303 C 0.2218 0.77159 0.27064 0.0
O304 O 0.19831 0.77758 0.34762 0.0
O305 O 0.15124 0.78074 0.32635 0.0
O306 O 0.19127 0.77855 0.27097 0.0
O307 O 0.23789 0.77451 0.29257 0.0
H308 H 0.20234 0.73884 0.32956 0.0
H309 H 0.18871 0.70201 0.33518 0.0
H310 H 0.09952 0.71879 0.37567 0.0
H311 H 0.11414 0.75554 0.37086 0.0
H312 H 0.17839 0.90213 0.32369 0.0
H313 H 0.18808 0.87186 0.29624 0.0
H314 H 0.19415 0.86422 0.39163 0.0
H315 H 0.20389 0.83402 0.36406 0.0
H316 H 0.27583 0.81698 0.21494 0.0
H317 H 0.2798 0.75114 0.19879 0.0
H318 H 0.24545 0.74408 0.2366 0.0
H319 H 0.241 0.80972 0.25265 0.0
H320 H 0.00149 0.4612 0.38582 0.0
H321 H 0.94581 0.51702 0.37431 0.0
H322 H 0.04743 0.51998 0.40217 0.0
H323 H 0.04582 0.55048 0.37942 0.0
H324 H 0.98896 0.60526 0.39346 0.0
H325 H 0.94196 0.54562 0.39978 0.0
C326 C -0.00049 0.47797 0.38711 0.0
C327 C 0.02735 0.48958 0.39476 0.0
C328 C 0.96986 0.48767 0.37998 0.0
C329 C 0.96848 0.50953 0.38045 0.0
C330 C -0.00379 0.52162 0.38862 0.0
C331 C 0.02574 0.5113 0.39569 0.0
C332 C -0.00567 0.54486 0.38986 0.0
C333 C 0.02262 0.55746 0.38493 0.0
C334 C 0.02105 0.57924 0.3869 0.0
C335 C -0.00917 0.58844 0.39298 0.0
C336 C 0.96243 0.57638 0.39713 0.0
C337 C 0.96415 0.55468 0.39591 0.0
H338 H 0.00337 0.60326 0.67356 0.0
H339 H 0.04599 0.54498 0.65298 0.0
H340 H 0.94527 0.54774 0.68104 0.0
H341 H 0.93913 0.51819 0.66046 0.0
H342 H 0.98544 0.45918 0.66842 0.0
H343 H 0.04576 0.51432 0.67175 0.0
C344 C 0.00076 0.58664 0.67061 0.0
C345 C 0.97054 0.57692 0.67647 0.0
C346 C 0.02816 0.57522 0.66255 0.0
C347 C 0.02503 0.55352 0.66013 0.0
C348 C -0.00471 0.54305 0.66687 0.0
C349 C 0.96821 0.55512 0.6752 0.0
C350 C -0.00714 0.51967 0.66605 0.0
C351 C 0.9617 0.50948 0.66322 0.0
C352 C 0.95921 0.48778 0.6646 0.0
C353 C 0.98784 0.47596 0.6671 0.0
C354 C 0.01922 0.48539 0.66875 0.0
C355 C 0.02155 0.50723 0.669 0.0
H356 H 0.19628 0.10682 0.52894 0.0
H357 H 0.18394 0.04779 0.56557 0.0
H358 H 0.20865 0.05168 0.48422 0.0
H359 H 0.18412 1.02159 0.48124 0.0
H360 H 0.19423 0.96231 0.51753 0.0
H361 H 0.20535 1.01714 0.56348 0.0
C362 C 0.19712 0.09 0.52783 0.0
C363 C 0.20279 0.08049 0.50401 0.0
C364 C 0.19167 0.0783 0.55019 0.0
C365 C 0.18978 0.05651 0.54832 0.0
C366 C 0.19565 0.04627 0.52453 0.0
C367 C 0.20265 0.05869 0.50255 0.0
C368 C 0.19489 1.02284 0.52265 0.0
C369 C 0.18907 1.01275 0.4986 0.0
C370 C 0.19004 0.99099 0.49658 0.0
C371 C 0.1943 0.97912 0.51898 0.0
C372 C 0.19869 0.98847 0.54318 0.0
C373 C 0.2002 1.01026 0.54481 0.0
H374 H 0.49301 0.78934 0.11809 0.0
H375 H 0.55087 0.78317 0.04976 0.0
H376 H 0.44567 0.7959 0.04415 0.0
H377 H 0.44973 0.78141 1.00614 0.0
H378 H 0.50754 0.79242 0.93864 0.0
H379 H 0.553 0.80013 1.01321 0.0
C380 C 0.49448 0.78933 0.09716 0.0
C381 C 0.46561 0.79193 0.08231 0.0
C382 C 0.52526 0.78674 0.08543 0.0
C383 C 0.52705 0.78613 0.05838 0.0
C384 C 0.49864 0.7897 0.0428 0.0
C385 C 0.46796 0.79285 0.05525 0.0
C386 C 0.50113 0.79038 1.01382 0.0
C387 C 0.47325 0.78594 0.99786 0.0
C388 C 0.47526 0.78763 0.97088 0.0
C389 C 0.5058 0.79229 0.95955 0.0
C390 C 0.5341 0.79627 0.97472 0.0
C391 C 0.53141 0.79581 1.00178 0.0
H392 H 0.81201 0.10498 0.52647 0.0
H393 H 0.79752 0.04864 0.56878 0.0
H394 H 0.83097 0.04684 0.48939 0.0
H395 H 0.80358 1.01646 0.48928 0.0
H396 H 0.81767 0.96059 0.5327 0.0
H397 H 0.826 1.01921 0.57141 0.0
C398 C 0.81345 0.08817 0.52723 0.0
C399 C 0.82227 0.07709 0.50511 0.0
C400 C 0.8057 0.07803 0.55033 0.0
C401 C 0.80489 0.05623 0.55103 0.0
C402 C 0.8139 0.04447 0.5291 0.0
C403 C 0.82284 0.05525 0.50624 0.0
C404 C 0.81467 1.02111 0.53019 0.0
C405 C 0.80938 1.00908 0.50756 0.0
C406 C 0.81175 0.98733 0.5083 0.0
C407 C 0.81765 0.97745 0.53196 0.0
C408 C 0.82228 0.98879 0.55476 0.0
C409 C 0.82114 1.01061 0.55379 0.0
H410 H 0.50025 0.27432 0.12023 0.0
H411 H 0.54654 0.26702 0.04677 0.0
H412 H 0.44423 0.28639 0.05128 0.0
H413 H 0.43949 0.27166 1.01359 0.0
H414 H 0.48751 0.27673 0.94045 0.0
H415 H 0.54558 0.28294 1.00965 0.0
C416 C 0.49897 0.27521 0.09931 0.0
C417 C 0.46883 0.28015 0.08724 0.0
C418 C 0.52726 0.27102 0.08481 0.0
C419 C 0.52493 0.27127 0.05769 0.0
C420 C 0.49513 0.27689 0.0449 0.0
C421 C 0.46737 0.28174 0.06018 0.0
C422 C 0.49286 0.27724 1.01585 0.0
C423 C 0.46204 0.27432 1.00289 0.0
C424 C 0.45985 0.27496 0.97579 0.0
C425 C 0.48892 0.27697 0.96141 0.0
C426 C 0.51982 0.27923 0.97364 0.0
C427 C 0.52158 0.2802 1.0007 0.0
H428 H 0.16636 0.41858 0.34207 0.0
H429 H 0.15455 0.382 0.41201 0.0
H430 H 0.12379 0.41073 0.43179 0.0
H431 H 0.16996 0.47123 0.37336 0.0
H432 H 0.14586 0.48256 0.34752 0.0
H433 H 0.17307 0.46117 0.34096 0.0
H434 H 0.12378 0.44025 0.32102 0.0
H435 H 0.09667 0.46158 0.32731 0.0
H436 H 0.08689 0.43611 0.33986 0.0
H437 H 0.08586 0.44017 0.44087 0.0
H438 H 0.04279 0.46721 0.43766 0.0
H439 H 0.07853 0.48469 0.36205 0.0
C440 C 0.15783 0.41672 0.36173 0.0
C441 C 0.16304 0.398 0.37547 0.0
C442 C 0.15148 0.39628 0.40119 0.0
C443 C 0.13391 0.41255 0.41261 0.0
C444 C 0.12833 0.43052 0.39819 0.0
C445 C 0.1401 0.43272 0.37332 0.0
C446 C 0.12723 0.45233 0.36068 0.0
C447 C 0.15574 0.46774 0.35532 0.0
C448 C 0.10746 0.44725 0.33577 0.0
C449 C 0.10495 0.46028 0.3818 0.0
C450 C 0.1065 0.44774 0.40354 0.0
C451 C 0.08518 0.45048 0.42433 0.0
C452 C 0.06093 0.4659 0.42245 0.0
C453 C 0.05833 0.47834 0.4 0.0
C454 C 0.08118 0.47592 0.37983 0.0
H455 H 0.13206 0.6789 0.65581 0.0
H456 H 0.20918 0.64674 0.69863 0.0
H457 H 0.18125 0.61328 0.68953 0.0
H458 H 0.06714 0.65102 0.68051 0.0
H459 H 0.04231 0.65042 0.65134 0.0
H460 H 0.07167 0.67122 0.65656 0.0
H461 H 0.09979 0.66271 0.61301 0.0
H462 H 0.07043 0.64177 0.60768 0.0
H463 H 0.11433 0.63675 0.60712 0.0
H464 H 0.14039 0.58425 0.68253 0.0
H465 H 0.08962 0.56262 0.6791 0.0
H466 H 0.03946 0.61316 0.63985 0.0
C467 C 0.14345 0.66479 0.66284 0.0
C468 C 0.17299 0.66551 0.67778 0.0
C469 C 0.18698 0.64664 0.68667 0.0
C470 C 0.17123 0.6275 0.68164 0.0
C471 C 0.14165 0.62741 0.66747 0.0
C472 C 0.12802 0.64557 0.65802 0.0
C473 C 0.09422 0.64155 0.64589 0.0
C474 C 0.06727 0.6543 0.65939 0.0
C475 C 0.09474 0.64596 0.61669 0.0
C476 C 0.09022 0.61852 0.65124 0.0
C477 C 0.11808 0.61054 0.66325 0.0
C478 C 0.11874 0.59018 0.67256 0.0
C479 C 0.0898 0.57794 0.67038 0.0
C480 C 0.06055 0.58616 0.65916 0.0
C481 C 0.06143 0.60641 0.64851 0.0
H482 H 0.83179 0.65359 0.34159 0.0
H483 H 0.82449 0.67933 0.4188 0.0
H484 H 0.85594 0.64955 0.43622 0.0
H485 H 0.82648 0.59768 0.36056 0.0
H486 H 0.8562 0.5904 0.33647 0.0
H487 H 0.82918 0.61211 0.33074 0.0
H488 H 0.88026 0.636 0.32259 0.0
H489 H 0.90728 0.61438 0.32808 0.0
H490 H 0.91257 0.63778 0.34687 0.0
H491 H 0.89446 0.61964 0.44416 0.0
H492 H 0.93841 0.59308 0.4414 0.0
H493 H 0.91864 0.58627 0.3595 0.0
C494 C 0.83583 0.65265 0.36229 0.0
C495 C 0.82542 0.66872 0.37886 0.0
C496 C 0.83232 0.66725 0.40571 0.0
C497 C 0.84987 0.65028 0.41581 0.0
C498 C 0.86012 0.63483 0.39885 0.0
C499 C 0.85324 0.63586 0.37265 0.0
C500 C 0.86981 0.61848 0.3581 0.0
C501 C 0.84386 0.6038 0.34574 0.0
C502 C 0.8939 0.62719 0.33773 0.0
C503 C 0.88813 0.60791 0.38005 0.0
C504 C 0.88185 0.61735 0.4035 0.0
C505 C 0.89883 0.61174 0.42606 0.0
C506 C 0.92354 0.59659 0.42441 0.0
C507 C 0.93081 0.58726 0.40044 0.0
C508 C 0.91234 0.59259 0.3782 0.0
H509 H 0.84294 0.40287 0.72599 0.0
H510 H 0.79913 0.39309 0.65001 0.0
H511 H 0.82983 0.42392 0.63362 0.0
H512 H 0.84412 0.45992 0.72476 0.0
H513 H 0.8836 0.46141 0.74138 0.0
H514 H 0.85572 0.43991 0.74744 0.0
H515 H 0.90187 0.41392 0.73542 0.0
H516 H 0.92987 0.43531 0.7296 0.0
H517 H 0.92201 0.41636 0.70457 0.0
H518 H 0.86895 0.45454 0.62508 0.0
H519 H 0.91568 0.48006 0.62468 0.0
H520 H 0.93257 0.46931 0.70632 0.0
C521 C 0.83915 0.40748 0.70604 0.0
C522 C 0.81835 0.39575 0.68934 0.0
C523 C 0.81497 0.40188 0.66313 0.0
C524 C 0.83207 0.41945 0.65373 0.0
C525 C 0.8524 0.43069 0.6708 0.0
C526 C 0.85605 0.42483 0.6964 0.0
C527 C 0.88138 0.43829 0.71038 0.0
C528 C 0.86523 0.45061 0.73228 0.0
C529 C 0.91049 0.42519 0.72057 0.0
C530 C 0.89199 0.45245 0.68858 0.0
C531 C 0.87476 0.44809 0.66594 0.0
C532 C 0.88216 0.45831 0.64281 0.0
C533 C 0.90849 0.47285 0.64274 0.0
C534 C 0.92696 0.47682 0.66559 0.0
C535 C 0.91808 0.46686 0.68881 0.0
H536 H 0.23808 0.18953 0.43983 0.0
H537 H 0.17406 0.17037 0.37611 0.0
H538 H 0.1732 0.13445 0.39322 0.0
H539 H 0.28523 0.14054 0.44524 0.0
H540 H 0.28712 0.14211 0.48002 0.0
H541 H 0.28604 0.16555 0.46093 0.0
H542 H 0.23437 0.17779 0.48601 0.0
H543 H 0.23543 0.15449 0.5052 0.0
H544 H 0.19827 0.16105 0.48746 0.0
H545 H 0.17371 0.10171 0.42047 0.0
H546 H 0.17469 0.07568 0.45573 0.0
H547 H 0.24021 0.11606 0.50041 0.0
C548 C 0.22416 0.17773 0.42932 0.0
C549 C 0.20614 0.18273 0.40664 0.0
C550 C 0.18836 0.16682 0.39336 0.0
C551 C 0.18773 0.14638 0.40294 0.0
C552 C 0.20538 0.14205 0.4256 0.0
C553 C 0.22345 0.15728 0.4385 0.0
C554 C 0.23835 0.14908 0.46339 0.0
C555 C 0.27645 0.14933 0.46232 0.0
C556 C 0.22584 0.16132 0.48689 0.0
C557 C 0.22474 0.12709 0.46306 0.0
C558 C 0.20613 0.12317 0.44099 0.0
C559 C 0.18876 0.10446 0.43759 0.0
C560 C 0.1896 0.0897 0.45765 0.0
C561 C 0.20751 0.09383 0.48081 0.0
C562 C 0.22625 0.11245 0.48296 0.0
H563 H 0.36456 0.81514 0.84862 0.0
H564 H 0.31295 0.75617 0.85868 0.0
H565 H 0.34367 0.75055 0.89968 0.0
H566 H 0.44275 0.79762 0.8694 0.0
H567 H 0.45436 0.82168 0.88504 0.0
H568 H 0.42581 0.82184 0.85809 0.0
H569 H 0.38259 0.84089 0.88606 0.0
H570 H 0.41102 0.84072 0.91317 0.0
H571 H 0.36998 0.82968 0.91643 0.0
H572 H 0.38319 0.75057 0.93856 0.0
H573 H 0.4292 0.75571 0.97029 0.0
H574 H 0.45499 0.81405 0.9332 0.0
C575 C 0.35964 0.801 0.85936 0.0
C576 C 0.33632 0.7861 0.85035 0.0
C577 C 0.33037 0.76797 0.86531 0.0
C578 C 0.34778 0.76461 0.8886 0.0
C579 C 0.37095 0.77954 0.89668 0.0
C580 C 0.37686 0.79737 0.88243 0.0
C581 C 0.40429 0.81049 0.89432 0.0
C582 C 0.43352 0.81304 0.8756 0.0
C583 C 0.39117 0.8317 0.90301 0.0
C584 C 0.41345 0.79708 0.91722 0.0
C585 C 0.39376 0.77941 0.91857 0.0
C586 C 0.39858 0.76444 0.93778 0.0
C587 C 0.42462 0.76749 0.95574 0.0
C588 C 0.44556 0.78522 0.95404 0.0
C589 C 0.43939 0.8003 0.93482 0.0
H590 H 0.84081 0.88311 0.43251 0.0
H591 H 0.74663 0.89307 0.39331 0.0
H592 H 0.74475 0.92859 0.41135 0.0
H593 H 0.81937 0.90688 0.49013 0.0
H594 H 0.85987 0.91796 0.4965 0.0
H595 H 0.85587 0.89466 0.47753 0.0
H596 H 0.8879 0.91249 0.44015 0.0
H597 H 0.89183 0.93594 0.45903 0.0
H598 H 0.87328 0.93679 0.4272 0.0
H599 H 0.75018 0.96166 0.43799 0.0
H600 H 0.76167 0.98821 0.47178 0.0
H601 H 0.8521 0.95627 0.49292 0.0
C602 C 0.8199 0.8928 0.42749 0.0
C603 C 0.79392 0.88527 0.41142 0.0
C604 C 0.76712 0.89856 0.40525 0.0
C605 C 0.7658 0.91877 0.41545 0.0
C606 C 0.79159 0.92554 0.43162 0.0
C607 C 0.81819 0.91292 0.4375 0.0
C608 C 0.84139 0.92308 0.45697 0.0
C609 C 0.84427 0.90986 0.48174 0.0
C610 C 0.87563 0.92733 0.44512 0.0
C611 C 0.82316 0.94309 0.46182 0.0
C612 C 0.79472 0.94446 0.4468 0.0
C613 C 0.77268 0.96092 0.44953 0.0
C614 C 0.77944 0.97598 0.46863 0.0
C615 C 0.80778 0.97427 0.48483 0.0
C616 C 0.83032 0.95798 0.48069 0.0
H617 H 0.62855 0.24594 0.8543 0.0
H618 H 0.68843 0.30161 0.86661 0.0
H619 H 0.65805 0.30854 0.90692 0.0
H620 H 0.55324 0.26789 0.87302 0.0
H621 H 0.53752 0.24453 0.88802 0.0
H622 H 0.5666 0.24279 0.86197 0.0
H623 H 0.60583 0.22098 0.89106 0.0
H624 H 0.57684 0.2227 0.91726 0.0
H625 H 0.61925 0.23116 0.92195 0.0
H626 H 0.61799 0.31058 0.94459 0.0
H627 H 0.57061 0.3081 0.97481 0.0
H628 H 0.53663 0.25193 0.93619 0.0
C629 C 0.6354 0.2596 0.86543 0.0
C630 C 0.66095 0.2732 0.85723 0.0
C631 C 0.66931 0.29075 0.87265 0.0
C632 C 0.65211 0.29487 0.89555 0.0
C633 C 0.62668 0.28128 0.90278 0.0
C634 C 0.6184 0.26401 0.88811 0.0
C635 C 0.58876 0.25253 0.89899 0.0
C636 C 0.55983 0.25191 0.87933 0.0
C637 C 0.59825 0.23054 0.90784 0.0
C638 C 0.58111 0.26629 0.92176 0.0
C639 C 0.60346 0.28265 0.92395 0.0
C640 C 0.60051 0.29774 0.94316 0.0
C641 C 0.57367 0.2962 0.96026 0.0
C642 C 0.55008 0.27988 0.95768 0.0
C643 C 0.5543 0.26462 0.93847 0.0
H644 H 0.17135 0.88196 0.61604 0.0
H645 H 0.25496 0.89792 0.66598 0.0
H646 H 0.25722 0.93297 0.64645 0.0
H647 H 0.19927 0.90674 0.56101 0.0
H648 H 0.1591 0.91557 0.55039 0.0
H649 H 0.16229 0.89259 0.57001 0.0
H650 H 0.12255 0.90857 0.60356 0.0
H651 H 0.11917 0.93165 0.58396 0.0
H652 H 0.1322 0.93368 0.61731 0.0
H653 H 0.25345 0.96532 0.61807 0.0
H654 H 0.24406 0.99131 0.58339 0.0
H655 H 0.1608 0.9545 0.55475 0.0
C656 C 0.18958 0.89295 0.62348 0.0
C657 C 0.21293 0.88709 0.64261 0.0
C658 C 0.237 0.90189 0.65113 0.0
C659 C 0.2383 0.92193 0.64032 0.0
C660 C 0.21511 0.92706 0.62124 0.0
C661 C 0.19104 0.91299 0.61309 0.0
C662 C 0.1702 0.92174 0.5913 0.0
C663 C 0.1729 0.90837 0.56674 0.0
C664 C 0.13388 0.92405 0.59954 0.0
C665 C 0.18687 0.94271 0.5879 0.0
C666 C 0.21257 0.94565 0.60542 0.0
C667 C 0.233 0.96332 0.60455 0.0
C668 C 0.22742 0.97805 0.58489 0.0
C669 C 0.20176 0.97491 0.56637 0.0
C670 C 0.18074 0.9573 0.56855 0.0
H671 H 0.63751 0.81661 0.20666 0.0
H672 H 0.69499 0.76116 0.19246 0.0
H673 H 0.66307 0.75502 0.15207 0.0
H674 H 0.56061 0.79523 0.18719 0.0
H675 H 0.54559 0.81897 0.17296 0.0
H676 H 0.5753 0.82003 0.19912 0.0
H677 H 0.61487 0.84232 0.17087 0.0
H678 H 0.58525 0.8413 0.14457 0.0
H679 H 0.62718 0.83278 0.13968 0.0
H680 H 0.62201 0.75393 0.11429 0.0
H681 H 0.57441 0.75745 0.08381 0.0
H682 H 0.54365 0.81284 0.12432 0.0
C683 C 0.64348 0.80314 0.19512 0.0
C684 C 0.6688 0.78938 0.20279 0.0
C685 C 0.67603 0.77212 0.18684 0.0
C686 C 0.65795 0.76845 0.1639 0.0
C687 C 0.6328 0.78221 0.15716 0.0
C688 C 0.62562 0.7992 0.17237 0.0
C689 C 0.59625 0.81102 0.16183 0.0
C690 C 0.56776 0.81131 0.18144 0.0
C691 C 0.60651 0.83317 0.15375 0.0
C692 C 0.58751 0.7978 0.13858 0.0
C693 C 0.60906 0.78139 0.13591 0.0
C694 C 0.60513 0.76681 0.11611 0.0
C695 C 0.57818 0.76893 0.09888 0.0
C696 C 0.55543 0.78535 0.10187 0.0
C697 C 0.56059 0.80007 0.12173 0.0
H698 H 0.82738 0.18219 0.62859 0.0
H699 H 0.72927 0.17144 0.66001 0.0
H700 H 0.72867 0.136 0.6415 0.0
H701 H 0.81192 0.15846 0.56923 0.0
H702 H 0.85281 0.14773 0.5662 0.0
H703 H 0.84699 0.17095 0.58484 0.0
H704 H 0.87455 0.15329 0.62461 0.0
H705 H 0.88024 0.12991 0.60607 0.0
H706 H 0.85824 0.12884 0.63623 0.0
H707 H 0.73657 0.10296 0.61517 0.0
H708 H 0.75161 0.07653 0.58245 0.0
H709 H 0.84426 0.10936 0.56905 0.0
C710 C 0.80583 0.17236 0.63178 0.0
C711 C 0.77839 0.17962 0.64579 0.0
C712 C 0.7508 0.16614 0.64965 0.0
C713 C 0.75021 0.14599 0.63918 0.0
C714 C 0.77752 0.13946 0.62509 0.0
C715 C 0.80485 0.15229 0.6215 0.0
C716 C 0.82996 0.14236 0.60401 0.0
C717 C 0.83573 0.15566 0.57964 0.0
C718 C 0.86268 0.13836 0.61861 0.0
C719 C 0.81209 0.12223 0.59761 0.0
C720 C 0.78207 0.12059 0.61016 0.0
C721 C 0.76028 0.10393 0.60557 0.0
C722 C 0.76903 0.08893 0.5871 0.0
C723 C 0.79909 0.09094 0.57339 0.0
C724 C 0.8212 0.10743 0.57942 0.0
H725 H 0.35116 0.25296 0.20482 0.0
H726 H 0.29308 0.30736 0.18573 0.0
H727 H 0.32874 0.31393 0.14779 0.0
H728 H 0.42906 0.27401 0.18885 0.0
H729 H 0.44481 0.25016 0.17574 0.0
H730 H 0.41366 0.24932 0.20042 0.0
H731 H 0.37554 0.22686 0.17068 0.0
H732 H 0.40667 0.22753 0.14593 0.0
H733 H 0.36516 0.2361 0.13871 0.0
H734 H 0.37269 0.31494 0.11252 0.0
H735 H 0.42128 0.3106 0.08402 0.0
H736 H 0.44848 0.25507 0.12651 0.0
C737 C 0.34543 0.26603 0.19241 0.0
C738 C 0.31917 0.27956 0.19814 0.0
C739 C 0.31319 0.29684 0.18177 0.0
C740 C 0.33318 0.30062 0.16012 0.0
C741 C 0.35897 0.28696 0.15512 0.0
C742 C 0.36502 0.27 0.17084 0.0
C743 C 0.39487 0.25803 0.162 0.0
C744 C 0.42221 0.25789 0.183 0.0
C745 C 0.38496 0.23582 0.15384 0.0
C746 C 0.40501 0.27101 0.13901 0.0
C747 C 0.384 0.28758 0.13515 0.0
C748 C 0.38916 0.30193 0.11529 0.0
C749 C 0.4167 0.29933 0.09916 0.0
C750 C 0.43872 0.28259 0.10318 0.0
C751 C 0.43235 0.26819 0.12318 0.0
H752 H 0.87208 0.68296 0.68634 0.0
H753 H 0.82456 0.65795 0.75479 0.0
H754 H 0.85025 0.62396 0.74682 0.0
H755 H 0.86687 0.63537 0.64726 0.0
H756 H 0.90706 0.63972 0.63315 0.0
H757 H 0.88236 0.66151 0.64281 0.0
H758 H 0.93088 0.67507 0.67167 0.0
H759 H 0.95569 0.65337 0.66207 0.0
H760 H 0.94851 0.65817 0.69588 0.0
H761 H 0.88524 0.59349 0.73359 0.0
H762 H 0.92723 0.5695 0.71644 0.0
H763 H 0.95083 0.61421 0.65629 0.0
C764 C 0.86689 0.67032 0.69958 0.0
C765 C 0.84606 0.67316 0.7211 0.0
C766 C 0.83988 0.65612 0.73788 0.0
C767 C 0.85448 0.63674 0.73358 0.0
C768 C 0.8751 0.63454 0.71233 0.0
C769 C 0.88121 0.65086 0.69556 0.0
C770 C 0.90572 0.64479 0.67497 0.0
C771 C 0.88952 0.64538 0.64795 0.0
C772 C 0.93705 0.65867 0.67624 0.0
C773 C 0.91311 0.62272 0.68321 0.0
C774 C 0.89502 0.61698 0.70464 0.0
C775 C 0.89919 0.59769 0.71656 0.0
C776 C 0.92296 0.5841 0.7066 0.0
C777 C 0.94233 0.58992 0.685 0.0
C778 C 0.93657 0.60931 0.6729 0.0
H779 H 0.86982 0.38104 0.3687 0.0
H780 H 0.82675 0.40445 0.29728 0.0
H781 H 0.85212 0.43886 0.30578 0.0
H782 H 0.86268 0.4293 0.4063 0.0
H783 H 0.90193 0.42556 0.42256 0.0
H784 H 0.87754 0.40338 0.41224 0.0
H785 H 0.92749 0.38973 0.38626 0.0
H786 H 0.95199 0.41179 0.39656 0.0
H787 H 0.94678 0.40638 0.36257 0.0
H788 H 0.88657 0.46988 0.32001 0.0
H789 H 0.92826 0.49436 0.33834 0.0
H790 H 0.9478 0.45091 0.40076 0.0
C791 C 0.86552 0.39342 0.35492 0.0
C792 C 0.84605 0.39001 0.3324 0.0
C793 C 0.84101 0.40672 0.31492 0.0
C794 C 0.85542 0.42634 0.31953 0.0
C795 C 0.87468 0.4291 0.34179 0.0
C796 C 0.87966 0.41311 0.35924 0.0
C797 C 0.903 0.41974 0.38088 0.0
C798 C 0.88521 0.41948 0.40704 0.0
C799 C 0.93416 0.40611 0.38159 0.0
C800 C 0.91116 0.44174 0.37246 0.0
C801 C 0.89433 0.44698 0.35004 0.0
C802 C 0.89951 0.46607 0.3378 0.0
C803 C 0.92309 0.47995 0.34843 0.0
C804 C 0.94131 0.4746 0.37099 0.0
C805 C 0.93442 0.45545 0.38343 0.0
H806 H 0.10534 0.3765 0.65718 0.0
H807 H 0.17213 0.39526 0.71944 0.0
H808 H 0.15044 0.43097 0.71686 0.0
H809 H 0.11044 0.42623 0.62028 0.0
H810 H 0.06728 0.4245 0.61097 0.0
H811 H 0.09086 0.40115 0.61586 0.0
H812 H 0.04756 0.38814 0.64908 0.0
H813 H 0.02398 0.41141 0.64437 0.0
H814 H 0.03782 0.40429 0.67639 0.0
H815 H 0.11625 0.46363 0.71089 0.0
H816 H 0.07274 0.48968 0.70208 0.0
H817 H 0.03169 0.44995 0.64183 0.0
C818 C 0.11626 0.38821 0.66975 0.0
C819 C 0.14048 0.38295 0.68852 0.0
C820 C 0.15326 0.39875 0.70509 0.0
C821 C 0.14132 0.41916 0.70361 0.0
C822 C 0.11695 0.42367 0.6852 0.0
C823 C 0.10485 0.40864 0.66839 0.0
C824 C 0.07707 0.41695 0.6516 0.0
C825 C 0.08702 0.41723 0.62298 0.0
C826 C 0.04471 0.40446 0.65562 0.0
C827 C 0.07453 0.43876 0.66223 0.0
C828 C 0.09791 0.44251 0.68142 0.0
C829 C 0.09828 0.46102 0.69552 0.0
C830 C 0.07359 0.47579 0.69031 0.0
C831 C 0.04882 0.47187 0.67127 0.0
C832 C 0.05022 0.4534 0.65656 0.0
H833 H 0.11335 0.68749 0.39697 0.0
H834 H 0.15029 0.67644 0.31968 0.0
H835 H 0.13083 0.64002 0.32222 0.0
H836 H 0.12928 0.63506 0.42371 0.0
H837 H 0.09131 0.63497 0.44183 0.0
H838 H 0.11283 0.65914 0.43561 0.0
H839 H 0.05949 0.67418 0.41467 0.0
H840 H 0.03786 0.65018 0.42099 0.0
H841 H 0.03944 0.66028 0.3885 0.0
H842 H 0.10124 0.60592 0.33111 0.0
H843 H 0.06174 0.57832 0.3447 0.0
H844 H 0.04375 0.61195 0.41566 0.0
C845 C 0.11768 0.67741 0.38063 0.0
C846 C 0.13357 0.68492 0.35817 0.0
C847 C 0.1388 0.67105 0.33733 0.0
C848 C 0.12775 0.6503 0.33856 0.0
C849 C 0.11165 0.64354 0.36081 0.0
C850 C 0.10668 0.65672 0.38148 0.0
C851 C 0.08594 0.64635 0.40214 0.0
C852 C 0.10605 0.64372 0.42731 0.0
C853 C 0.05379 0.65846 0.40682 0.0
C854 C 0.0789 0.62557 0.38944 0.0
C855 C 0.09443 0.62402 0.36583 0.0
C856 C 0.08943 0.60681 0.34977 0.0
C857 C 0.06713 0.59115 0.35768 0.0
C858 C 0.04989 0.59299 0.38125 0.0
C859 C 0.05681 0.61009 0.39762 0.0
H860 H 0.86411 0.88604 0.63089 0.0
H861 H 0.79019 0.90402 0.68686 0.0
H862 H 0.78749 0.93883 0.66694 0.0
H863 H 0.90547 0.93724 0.62434 0.0
H864 H 0.91098 0.93403 0.59003 0.0
H865 H 0.91069 0.91162 0.61099 0.0
H866 H 0.86325 0.89499 0.5835 0.0
H867 H 0.86362 0.91722 0.56242 0.0
H868 H 0.82567 0.90936 0.57796 0.0
H869 H 0.78809 0.97039 0.63769 0.0
H870 H 0.78986 0.99468 0.60052 0.0
H871 H 0.86313 0.95596 0.56391 0.0
C872 C 0.84753 0.89732 0.63915 0.0
C873 C 0.82752 0.89222 0.6606 0.0
C874 C 0.8063 0.90758 0.67079 0.0
C875 C 0.80452 0.92743 0.65955 0.0
C876 C 0.82424 0.93179 0.63819 0.0
C877 C 0.84536 0.91713 0.62812 0.0
C878 C 0.86171 0.92494 0.60371 0.0
C879 C 0.89945 0.92709 0.60751 0.0
C880 C 0.85302 0.91079 0.58054 0.0
C881 C 0.84565 0.94601 0.60109 0.0
C882 C 0.82451 0.94988 0.62136 0.0
C883 C 0.80501 0.96768 0.62196 0.0
C884 C 0.80631 0.98147 0.60086 0.0
C885 C 0.82669 0.97722 0.57942 0.0
C886 C 0.84743 0.95965 0.58012 0.0
H887 H 0.6557 0.27654 0.20231 0.0
H888 H 0.70564 0.2236 0.16907 0.0
H889 H 0.66788 0.2249 0.13117 0.0
H890 H 0.57502 0.26202 0.18369 0.0
H891 H 0.56143 0.28804 0.17669 0.0
H892 H 0.59389 0.28388 0.2002 0.0
H893 H 0.63286 0.30878 0.17495 0.0
H894 H 0.60042 0.3131 0.15139 0.0
H895 H 0.64038 0.30407 0.14117 0.0
H896 H 0.62212 0.23071 0.09817 0.0
H897 H 0.57191 0.24036 0.07321 0.0
H898 H 0.55377 0.29024 0.12753 0.0
C899 C 0.65921 0.26549 0.18683 0.0
C900 C 0.68368 0.24999 0.18866 0.0
C901 C 0.68686 0.2355 0.16821 0.0
C902 C 0.66569 0.2362 0.14653 0.0
C903 C 0.64159 0.25155 0.1455 0.0
C904 C 0.63836 0.26599 0.16508 0.0
C905 C 0.60949 0.2803 0.15994 0.0
C906 C 0.58342 0.27843 0.1814 0.0
C907 C 0.62152 0.3029 0.15666 0.0
C908 C 0.59658 0.27143 0.13467 0.0
C909 C 0.6155 0.25495 0.12651 0.0
C910 C 0.60736 0.24375 0.1042 0.0
C911 C 0.5789 0.24941 0.09008 0.0
C912 C 0.5589 0.26606 0.09839 0.0
C913 C 0.56836 0.27734 0.12076 0.0
H914 H 0.22691 0.17262 0.64586 0.0
H915 H 0.14314 0.15177 0.69146 0.0
H916 H 0.1364 0.12103 0.66306 0.0
H917 H 0.1936 0.15816 0.58443 0.0
H918 H 0.23291 0.15015 0.57172 0.0
H919 H 0.2316 0.16989 0.59631 0.0
H920 H 0.27129 0.14821 0.62515 0.0
H921 H 0.27255 0.12833 0.60068 0.0
H922 H 0.26031 0.12175 0.63313 0.0
H923 H 0.13756 0.09317 0.6279 0.0
H924 H 0.1459 0.07155 0.58884 0.0
H925 H 0.22983 0.11058 0.56785 0.0
C926 C 0.20702 0.16166 0.64982 0.0
C927 C 0.18551 0.16463 0.67085 0.0
C928 C 0.16011 0.14972 0.67558 0.0
C929 C 0.15605 0.13224 0.65954 0.0
C930 C 0.17776 0.1298 0.63896 0.0
C931 C 0.20277 0.14413 0.63414 0.0
C932 C 0.22244 0.13825 0.61057 0.0
C933 C 0.21997 0.15511 0.58952 0.0
C934 C 0.2588 0.13387 0.61783 0.0
C935 C 0.20429 0.11856 0.60258 0.0
C936 C 0.17867 0.1138 0.61917 0.0
C937 C 0.15774 0.09667 0.6149 0.0
C938 C 0.16276 0.0844 0.59278 0.0
C939 C 0.1884 0.08941 0.57525 0.0
C940 C 0.20979 0.10644 0.58073 0.0
H941 H 0.33683 0.76337 0.19226 0.0
H942 H 0.27684 0.81526 0.16686 0.0
H943 H 0.3162 0.82209 0.13126 0.0
H944 H 0.41487 0.78692 0.18054 0.0
H945 H 0.434 0.76327 0.16987 0.0
H946 H 0.40031 0.76213 0.19242 0.0
H947 H 0.36763 0.73744 0.16157 0.0
H948 H 0.40126 0.7385 0.1389 0.0
H949 H 0.35993 0.74532 0.12861 0.0
H950 H 0.36352 0.82341 0.09874 0.0
H951 H 0.41549 0.82004 0.07384 0.0
H952 H 0.44288 0.767 0.12094 0.0
C953 C 0.33162 0.77597 0.17897 0.0
C954 C 0.30363 0.78868 0.18219 0.0
C955 C 0.29822 0.80537 0.16479 0.0
C956 C 0.32032 0.80928 0.14444 0.0
C957 C 0.34767 0.79638 0.14183 0.0
C958 C 0.35336 0.7801 0.15872 0.0
C959 C 0.38511 0.76895 0.1525 0.0
C960 C 0.41004 0.77042 0.17518 0.0
C961 C 0.37804 0.74621 0.14494 0.0
C962 C 0.39662 0.78157 0.12957 0.0
C963 C 0.37471 0.79725 0.12351 0.0
C964 C 0.38075 0.81112 0.10326 0.0
C965 C 0.41019 0.80904 0.08915 0.0
C966 C 0.43321 0.79332 0.09555 0.0
C967 C 0.4259 0.7793 0.11577 0.0
H968 H 0.85914 0.18211 0.43185 0.0
H969 H 0.81092 0.15541 0.364 0.0
H970 H 0.80897 0.12123 0.38568 0.0
H971 H 0.90954 0.13563 0.44829 0.0
H972 H 0.90485 0.13991 0.4825 0.0
H973 H 0.90543 0.16169 0.46055 0.0
H974 H 0.84873 0.17366 0.47815 0.0
H975 H 0.84797 0.15196 0.50005 0.0
H976 H 0.81399 0.15578 0.4777 0.0
H977 H 0.80612 0.09096 0.41706 0.0
H978 H 0.80273 0.06781 0.45522 0.0
H979 H 0.8574 0.11359 0.50065 0.0
C980 C 0.84908 0.169 0.42115 0.0
C981 C 0.83513 0.17159 0.39617 0.0
C982 C 0.82135 0.15399 0.38328 0.0
C983 C 0.82043 0.13442 0.39534 0.0
C984 C 0.83389 0.13255 0.42014 0.0
C985 C 0.84829 0.14935 0.43276 0.0
C986 C 0.85908 0.14364 0.45993 0.0
C987 C 0.89698 0.14531 0.46299 0.0
C988 C 0.84138 0.15705 0.48013 0.0
C989 C 0.8474 0.12123 0.46098 0.0
C990 C 0.83316 0.11499 0.43782 0.0
C991 C 0.81786 0.09552 0.43512 0.0
C992 C 0.81621 0.0824 0.45686 0.0
C993 C 0.82971 0.08886 0.48097 0.0
C994 C 0.84662 0.1082 0.48256 0.0
H995 H 0.33379 0.30459 0.86321 0.0
H996 H 0.27103 0.25298 0.88702 0.0
H997 H 0.30936 0.24605 0.92372 0.0
H998 H 0.4103 0.28064 0.87676 0.0
H999 H 0.4305 0.30415 0.8879 0.0
H1000 H 0.39714 0.30554 0.86461 0.0
H1001 H 0.36537 0.33041 0.89479 0.0
H1002 H 0.39868 0.3291 0.9182 0.0
H1003 H 0.3569 0.32255 0.92756 0.0
H1004 H 0.35611 0.24446 0.95739 0.0
H1005 H 0.40808 0.24737 0.98334 0.0
H1006 H 0.4388 0.30017 0.93686 0.0
C1007 C 0.32773 0.29205 0.8764 0.0
C1008 C 0.29927 0.27944 0.87242 0.0
C1009 C 0.29277 0.2628 0.8897 0.0
C1010 C 0.31427 0.25884 0.91066 0.0
C1011 C 0.34216 0.27162 0.91399 0.0
C1012 C 0.34889 0.28786 0.89724 0.0
C1013 C 0.38113 0.29877 0.90418 0.0
C1014 C 0.40624 0.29717 0.88205 0.0
C1015 C 0.37515 0.32156 0.91163 0.0
C1016 C 0.39174 0.28606 0.92733 0.0
C1017 C 0.36892 0.27056 0.93292 0.0
C1018 C 0.37404 0.25662 0.95325 0.0
C1019 C 0.40349 0.25843 0.96794 0.0
C1020 C 0.42743 0.27393 0.96201 0.0
C1021 C 0.42106 0.28805 0.94169 0.0
H1022 H 0.22389 0.897 0.40162 0.0
H1023 H 0.13915 0.91644 0.35561 0.0
H1024 H 0.13333 0.94745 0.38346 0.0
H1025 H 0.19221 0.91155 0.4626 0.0
H1026 H 0.23184 0.92013 0.47529 0.0
H1027 H 0.22993 0.90024 0.45088 0.0
H1028 H 0.26901 0.92227 0.42193 0.0
H1029 H 0.27081 0.94232 0.44621 0.0
H1030 H 0.25785 0.94854 0.41368 0.0
H1031 H 0.13536 0.97561 0.41833 0.0
H1032 H 0.14423 0.99736 0.45745 0.0
H1033 H 0.2284 0.95947 0.47912 0.0
C1034 C 0.20401 0.90772 0.39743 0.0
C1035 C 0.18192 0.90426 0.37648 0.0
C1036 C 0.15654 0.91886 0.37144 0.0
C1037 C 0.15302 0.9365 0.38717 0.0
C1038 C 0.17527 0.93942 0.4077 0.0
C1039 C 0.20029 0.9254 0.41278 0.0
C1040 C 0.22049 0.93168 0.43633 0.0
C1041 C 0.21847 0.9149 0.45752 0.0
C1042 C 0.25668 0.93649 0.42909 0.0
C1043 C 0.20253 0.95118 0.4441 0.0
C1044 C 0.17665 0.95556 0.42733 0.0
C1045 C 0.15577 0.97241 0.43144 0.0
C1046 C 0.16108 0.98476 0.45359 0.0
C1047 C 0.18692 0.98007 0.47133 0.0
C1048 C 0.20828 0.96337 0.46601 0.0
H1049 H 0.64619 0.82737 0.85532 0.0
H1050 H 0.72522 0.79135 0.89032 0.0
H1051 H 0.6916 0.78678 0.92968 0.0
H1052 H 0.61828 0.85278 0.91467 0.0
H1053 H 0.5752 0.85118 0.90513 0.0
H1054 H 0.60687 0.85337 0.88089 0.0
H1055 H 0.58445 0.81983 0.85879 0.0
H1056 H 0.55272 0.81758 0.88288 0.0
H1057 H 0.58054 0.7963 0.87753 0.0
H1058 H 0.64704 0.78341 0.96356 0.0
H1059 H 0.5951 0.78095 0.98847 0.0
H1060 H 0.54601 0.8198 0.93144 0.0
C1061 C 0.65654 0.81861 0.8713 0.0
C1062 C 0.68837 0.80974 0.86974 0.0
C1063 C 0.70109 0.79853 0.8912 0.0
C1064 C 0.68214 0.79581 0.91362 0.0
C1065 C 0.65067 0.80455 0.91436 0.0
C1066 C 0.63804 0.81579 0.89377 0.0
C1067 C 0.60285 0.82257 0.89872 0.0
C1068 C 0.60069 0.84639 0.89993 0.0
C1069 C 0.57873 0.81352 0.87827 0.0
C1070 C 0.59727 0.81289 0.925 0.0
C1071 C 0.6252 0.80274 0.93387 0.0
C1072 C 0.62518 0.79157 0.957 0.0
C1073 C 0.59562 0.79036 0.9711 0.0
C1074 C 0.56646 0.80018 0.96193 0.0
C1075 C 0.56778 0.81202 0.93892 0.0
loop_
_geom_bond_atom_site_label_1
_geom_bond_atom_site_label_2
_geom_bond_distance
_geom_bond_site_symmetry_2
_ccdc_geom_bond_type
C0 C1 1.264 . S
C0 C5 1.479 . S
C0 C10 1.465 . S
C1 C0 1.264 . S
C1 C3 1.339 . S
C1 H28 0.931 . S
C2 C3 1.395 . S
C2 C4 1.320 . S
C3 C1 1.339 . S
C3 C2 1.395 . S
C3 H29 0.929 . S
C4 C2 1.320 . S
C4 C5 1.405 . S
C4 H30 0.930 . S
C5 C0 1.479 . S
C5 C4 1.405 . S
C5 H31 0.931 . S
U6 O7 2.454 . S
U6 O8 2.458 . S
U6 C9 2.984 . S
U6 C10 2.847 . S
U6 C23 2.882 . S
U6 O24 2.441 . S
U6 O25 2.420 . S
U6 O26 2.455 . S
U6 O27 2.449 . S
O7 U6 2.454 . S
O7 C9 1.353 . S
O8 U6 2.458 . S
O8 C9 1.286 . S
C9 U6 2.984 . S
C9 O7 1.353 . S
C9 O8 1.286 . S
C9 C11 1.363 . S
C10 C0 1.465 . S
C10 U6 2.847 . S
C10 O24 1.249 . S
C10 O25 1.202 . S
C11 C9 1.363 . S
C11 C13 1.408 . S
C11 C16 1.342 . S
C12 C13 1.310 . S
C12 C15 1.461 . S
C12 H32 0.932 . S
C13 C11 1.408 . S
C13 C12 1.310 . S
C13 H33 0.930 . S
C14 C15 1.474 . S
C14 C16 1.285 . S
C14 H34 0.929 . S
C15 C12 1.461 . S
C15 C14 1.474 . S
C16 C11 1.342 . S
C16 C14 1.285 . S
C16 H35 0.930 . S
C17 C20 1.424 . S
C17 C22 1.245 . S
C17 C23 1.428 . S
C18 C21 1.260 . S
C18 C22 1.477 . S
C18 H36 0.932 . S
C19 C20 1.384 . S
C19 C21 1.479 . S
C19 H37 0.929 . S
C20 C17 1.424 . S
C20 C19 1.384 . S
C20 H38 0.928 . S
C21 C18 1.260 . S
C21 C19 1.479 . S
C22 C17 1.245 . S
C22 C18 1.477 . S
C22 H39 0.932 . S
C23 U6 2.882 . S
C23 C17 1.428 . S
C23 O26 1.301 . S
C23 O27 1.282 . S
O24 U6 2.441 . S
O24 C10 1.249 . S
O25 U6 2.420 . S
O25 C10 1.202 . S
O26 U6 2.455 . S
O26 C23 1.301 . S
O27 U6 2.449 . S
O27 C23 1.282 . S
H28 C1 0.931 . S
H29 C3 0.929 . S
H30 C4 0.930 . S
H31 C5 0.931 . S
H32 C12 0.932 . S
H33 C13 0.930 . S
H34 C14 0.929 . S
H35 C16 0.930 . S
H36 C18 0.932 . S
H37 C19 0.929 . S
H38 C20 0.928 . S
H39 C22 0.932 . S
C40 C41 1.264 . S
C40 C45 1.479 . S
C40 C50 1.465 . S
C41 C40 1.264 . S
C41 C43 1.339 . S
C41 H68 0.931 . S
C42 C43 1.395 . S
C42 C44 1.320 . S
C43 C41 1.339 . S
C43 C42 1.395 . S
C43 H69 0.929 . S
C44 C42 1.320 . S
C44 C45 1.405 . S
C44 H70 0.930 . S
C45 C40 1.479 . S
C45 C44 1.405 . S
C45 H71 0.931 . S
U46 O47 2.454 . S
U46 O48 2.458 . S
U46 C49 2.984 . S
U46 C50 2.847 . S
U46 C63 2.882 . S
U46 O64 2.441 . S
U46 O65 2.420 . S
U46 O66 2.455 . S
U46 O67 2.449 . S
O47 U46 2.454 . S
O47 C49 1.353 . S
O48 U46 2.458 . S
O48 C49 1.286 . S
C49 U46 2.984 . S
C49 O47 1.353 . S
C49 O48 1.286 . S
C49 C51 1.363 . S
C50 C40 1.465 . S
C50 U46 2.847 . S
C50 O64 1.249 . S
C50 O65 1.202 . S
C51 C49 1.363 . S
C51 C53 1.408 . S
C51 C56 1.342 . S
C52 C53 1.310 . S
C52 C55 1.461 . S
C52 H72 0.932 . S
C53 C51 1.408 . S
C53 C52 1.310 . S
C53 H73 0.930 . S
C54 C55 1.474 . S
C54 C56 1.285 . S
C54 H74 0.929 . S
C55 C52 1.461 . S
C55 C54 1.474 . S
C56 C51 1.342 . S
C56 C54 1.285 . S
C56 H75 0.930 . S
C57 C60 1.424 . S
C57 C62 1.245 . S
C57 C63 1.428 . S
C58 C61 1.260 . S
C58 C62 1.477 . S
C58 H76 0.932 . S
C59 C60 1.384 . S
C59 C61 1.479 . S
C59 H77 0.929 . S
C60 C57 1.424 . S
C60 C59 1.384 . S
C60 H78 0.928 . S
C61 C58 1.260 . S
C61 C59 1.479 . S
C62 C57 1.245 . S
C62 C58 1.477 . S
C62 H79 0.932 . S
C63 U46 2.882 . S
C63 C57 1.428 . S
C63 O66 1.301 . S
C63 O67 1.282 . S
O64 U46 2.441 . S
O64 C50 1.249 . S
O65 U46 2.420 . S
O65 C50 1.202 . S
O66 U46 2.455 . S
O66 C63 1.301 . S
O67 U46 2.449 . S
O67 C63 1.282 . S
H68 C41 0.931 . S
H69 C43 0.929 . S
H70 C44 0.930 . S
H71 C45 0.931 . S
H72 C52 0.932 . S
H73 C53 0.930 . S
H74 C54 0.929 . S
H75 C56 0.930 . S
H76 C58 0.932 . S
H77 C59 0.929 . S
H78 C60 0.928 . S
H79 C62 0.932 . S
C80 C81 1.264 . S
C80 C85 1.479 . S
C80 C90 1.465 . S
C81 C80 1.264 . S
C81 C83 1.339 . S
C81 H108 0.931 . S
C82 C83 1.395 . S
C82 C84 1.320 . S
C83 C81 1.339 . S
C83 C82 1.395 . S
C83 H109 0.929 . S
C84 C82 1.320 . S
C84 C85 1.405 . S
C84 H110 0.930 . S
C85 C80 1.479 . S
C85 C84 1.405 . S
C85 H111 0.931 . S
U86 O87 2.454 . S
U86 O88 2.458 . S
U86 C89 2.984 . S
U86 C90 2.847 . S
U86 C103 2.882 . S
U86 O104 2.441 . S
U86 O105 2.420 . S
U86 O106 2.455 . S
U86 O107 2.449 . S
O87 U86 2.454 . S
O87 C89 1.353 . S
O88 U86 2.458 . S
O88 C89 1.286 . S
C89 U86 2.984 . S
C89 O87 1.353 . S
C89 O88 1.286 . S
C89 C91 1.363 . S
C90 C80 1.465 . S
C90 U86 2.847 . S
C90 O104 1.249 . S
C90 O105 1.202 . S
C91 C89 1.363 . S
C91 C93 1.408 . S
C91 C96 1.342 . S
C92 C93 1.310 . S
C92 C95 1.461 . S
C92 H112 0.932 . S
C93 C91 1.408 . S
C93 C92 1.310 . S
C93 H113 0.930 . S
C94 C95 1.474 . S
C94 C96 1.285 . S
C94 H114 0.929 . S
C95 C92 1.461 . S
C95 C94 1.474 . S
C96 C91 1.342 . S
C96 C94 1.285 . S
C96 H115 0.930 . S
C97 C100 1.424 . S
C97 C102 1.245 . S
C97 C103 1.428 . S
C98 C101 1.260 . S
C98 C102 1.477 . S
C98 H116 0.932 . S
C99 C100 1.384 . S
C99 C101 1.479 . S
C99 H117 0.929 . S
C100 C97 1.424 . S
C100 C99 1.384 . S
C100 H118 0.928 . S
C101 C98 1.260 . S
C101 C99 1.479 . S
C102 C97 1.245 . S
C102 C98 1.477 . S
C102 H119 0.932 . S
C103 U86 2.882 . S
C103 C97 1.428 . S
C103 O106 1.301 . S
C103 O107 1.282 . S
O104 U86 2.441 . S
O104 C90 1.249 . S
O105 U86 2.420 . S
O105 C90 1.202 . S
O106 U86 2.455 . S
O106 C103 1.301 . S
O107 U86 2.449 . S
O107 C103 1.282 . S
H108 C81 0.931 . S
H109 C83 0.929 . S
H110 C84 0.930 . S
H111 C85 0.931 . S
H112 C92 0.932 . S
H113 C93 0.930 . S
H114 C94 0.929 . S
H115 C96 0.930 . S
H116 C98 0.932 . S
H117 C99 0.929 . S
H118 C100 0.928 . S
H119 C102 0.932 . S
C120 C121 1.264 . S
C120 C125 1.479 . S
C120 C130 1.465 . S
C121 C120 1.264 . S
C121 C123 1.339 . S
C121 H148 0.931 . S
C122 C123 1.395 . S
C122 C124 1.320 . S
C123 C121 1.339 . S
C123 C122 1.395 . S
C123 H149 0.929 . S
C124 C122 1.320 . S
C124 C125 1.405 . S
C124 H150 0.930 . S
C125 C120 1.479 . S
C125 C124 1.405 . S
C125 H151 0.931 . S
U126 O127 2.454 . S
U126 O128 2.458 . S
U126 C129 2.984 . S
U126 C130 2.847 . S
U126 C143 2.882 . S
U126 O144 2.441 . S
U126 O145 2.420 . S
U126 O146 2.455 . S
U126 O147 2.449 . S
O127 U126 2.454 . S
O127 C129 1.353 . S
O128 U126 2.458 . S
O128 C129 1.286 . S
C129 U126 2.984 . S
C129 O127 1.353 . S
C129 O128 1.286 . S
C129 C131 1.363 . S
C130 C120 1.465 . S
C130 U126 2.847 . S
C130 O144 1.249 . S
C130 O145 1.202 . S
C131 C129 1.363 . S
C131 C133 1.408 . S
C131 C136 1.342 . S
C132 C133 1.310 . S
C132 C135 1.461 . S
C132 H152 0.932 . S
C133 C131 1.408 . S
C133 C132 1.310 . S
C133 H153 0.930 . S
C134 C135 1.474 . S
C134 C136 1.285 . S
C134 H154 0.929 . S
C135 C132 1.461 . S
C135 C134 1.474 . S
C136 C131 1.342 . S
C136 C134 1.285 . S
C136 H155 0.930 . S
C137 C140 1.424 . S
C137 C142 1.245 . S
C137 C143 1.428 . S
C138 C141 1.260 . S
C138 C142 1.477 . S
C138 H156 0.932 . S
C139 C140 1.384 . S
C139 C141 1.479 . S
C139 H157 0.929 . S
C140 C137 1.424 . S
C140 C139 1.384 . S
C140 H158 0.928 . S
C141 C138 1.260 . S
C141 C139 1.479 . S
C142 C137 1.245 . S
C142 C138 1.477 . S
C142 H159 0.932 . S
C143 U126 2.882 . S
C143 C137 1.428 . S
C143 O146 1.301 . S
C143 O147 1.282 . S
O144 U126 2.441 . S
O144 C130 1.249 . S
O145 U126 2.420 . S
O145 C130 1.202 . S
O146 U126 2.455 . S
O146 C143 1.301 . S
O147 U126 2.449 . S
O147 C143 1.282 . S
H148 C121 0.931 . S
H149 C123 0.929 . S
H150 C124 0.930 . S
H151 C125 0.931 . S
H152 C132 0.932 . S
H153 C133 0.930 . S
H154 C134 0.929 . S
H155 C136 0.930 . S
H156 C138 0.932 . S
H157 C139 0.929 . S
H158 C140 0.928 . S
H159 C142 0.932 . S
C160 C161 1.264 . S
C160 C165 1.479 . S
C160 C170 1.465 . S
C161 C160 1.264 . S
C161 C163 1.339 . S
C161 H188 0.931 . S
C162 C163 1.395 . S
C162 C164 1.320 . S
C163 C161 1.339 . S
C163 C162 1.395 . S
C163 H189 0.929 . S
C164 C162 1.320 . S
C164 C165 1.405 . S
C164 H190 0.930 . S
C165 C160 1.479 . S
C165 C164 1.405 . S
C165 H191 0.931 . S
U166 O167 2.454 . S
U166 O168 2.458 . S
U166 C169 2.984 . S
U166 C170 2.847 . S
U166 C183 2.882 . S
U166 O184 2.441 . S
U166 O185 2.420 . S
U166 O186 2.455 . S
U166 O187 2.449 . S
O167 U166 2.454 . S
O167 C169 1.353 . S
O168 U166 2.458 . S
O168 C169 1.286 . S
C169 U166 2.984 . S
C169 O167 1.353 . S
C169 O168 1.286 . S
C169 C171 1.363 . S
C170 C160 1.465 . S
C170 U166 2.847 . S
C170 O184 1.249 . S
C170 O185 1.202 . S
C171 C169 1.363 . S
C171 C173 1.408 . S
C171 C176 1.342 . S
C172 C173 1.310 . S
C172 C175 1.461 . S
C172 H192 0.932 . S
C173 C171 1.408 . S
C173 C172 1.310 . S
C173 H193 0.930 . S
C174 C175 1.474 . S
C174 C176 1.285 . S
C174 H194 0.929 . S
C175 C172 1.461 . S
C175 C174 1.474 . S
C176 C171 1.342 . S
C176 C174 1.285 . S
C176 H195 0.930 . S
C177 C180 1.424 . S
C177 C182 1.245 . S
C177 C183 1.428 . S
C178 C181 1.260 . S
C178 C182 1.477 . S
C178 H196 0.932 . S
C179 C180 1.384 . S
C179 C181 1.479 . S
C179 H197 0.929 . S
C180 C177 1.424 . S
C180 C179 1.384 . S
C180 H198 0.928 . S
C181 C178 1.260 . S
C181 C179 1.479 . S
C182 C177 1.245 . S
C182 C178 1.477 . S
C182 H199 0.932 . S
C183 U166 2.882 . S
C183 C177 1.428 . S
C183 O186 1.301 . S
C183 O187 1.282 . S
O184 U166 2.441 . S
O184 C170 1.249 . S
O185 U166 2.420 . S
O185 C170 1.202 . S
O186 U166 2.455 . S
O186 C183 1.301 . S
O187 U166 2.449 . S
O187 C183 1.282 . S
H188 C161 0.931 . S
H189 C163 0.929 . S
H190 C164 0.930 . S
H191 C165 0.931 . S
H192 C172 0.932 . S
H193 C173 0.930 . S
H194 C174 0.929 . S
H195 C176 0.930 . S
H196 C178 0.932 . S
H197 C179 0.929 . S
H198 C180 0.928 . S
H199 C182 0.932 . S
C200 C201 1.264 . S
C200 C205 1.479 . S
C200 C210 1.465 . S
C201 C200 1.264 . S
C201 C203 1.339 . S
C201 H228 0.931 . S
C202 C203 1.395 . S
C202 C204 1.320 . S
C203 C201 1.339 . S
C203 C202 1.395 . S
C203 H229 0.929 . S
C204 C202 1.320 . S
C204 C205 1.405 . S
C204 H230 0.930 . S
C205 C200 1.479 . S
C205 C204 1.405 . S
C205 H231 0.931 . S
U206 O207 2.454 . S
U206 O208 2.458 . S
U206 C209 2.984 . S
U206 C210 2.847 . S
U206 C223 2.882 . S
U206 O224 2.441 . S
U206 O225 2.420 . S
U206 O226 2.455 . S
U206 O227 2.449 . S
O207 U206 2.454 . S
O207 C209 1.353 . S
O208 U206 2.458 . S
O208 C209 1.286 . S
C209 U206 2.984 . S
C209 O207 1.353 . S
C209 O208 1.286 . S
C209 C211 1.363 . S
C210 C200 1.465 . S
C210 U206 2.847 . S
C210 O224 1.249 . S
C210 O225 1.202 . S
C211 C209 1.363 . S
C211 C213 1.408 . S
C211 C216 1.342 . S
C212 C213 1.310 . S
C212 C215 1.461 . S
C212 H232 0.932 . S
C213 C211 1.408 . S
C213 C212 1.310 . S
C213 H233 0.930 . S
C214 C215 1.474 . S
C214 C216 1.285 . S
C214 H234 0.929 . S
C215 C212 1.461 . S
C215 C214 1.474 . S
C216 C211 1.342 . S
C216 C214 1.285 . S
C216 H235 0.930 . S
C217 C220 1.424 . S
C217 C222 1.245 . S
C217 C223 1.428 . S
C218 C221 1.260 . S
C218 C222 1.477 . S
C218 H236 0.932 . S
C219 C220 1.384 . S
C219 C221 1.479 . S
C219 H237 0.929 . S
C220 C217 1.424 . S
C220 C219 1.384 . S
C220 H238 0.928 . S
C221 C218 1.260 . S
C221 C219 1.479 . S
C222 C217 1.245 . S
C222 C218 1.477 . S
C222 H239 0.932 . S
C223 U206 2.882 . S
C223 C217 1.428 . S
C223 O226 1.301 . S
C223 O227 1.282 . S
O224 U206 2.441 . S
O224 C210 1.249 . S
O225 U206 2.420 . S
O225 C210 1.202 . S
O226 U206 2.455 . S
O226 C223 1.301 . S
O227 U206 2.449 . S
O227 C223 1.282 . S
H228 C201 0.931 . S
H229 C203 0.929 . S
H230 C204 0.930 . S
H231 C205 0.931 . S
H232 C212 0.932 . S
H233 C213 0.930 . S
H234 C214 0.929 . S
H235 C216 0.930 . S
H236 C218 0.932 . S
H237 C219 0.929 . S
H238 C220 0.928 . S
H239 C222 0.932 . S
C240 C241 1.264 . S
C240 C245 1.479 . S
C240 C250 1.465 . S
C241 C240 1.264 . S
C241 C243 1.339 . S
C241 H268 0.931 . S
C242 C243 1.395 . S
C242 C244 1.320 . S
C243 C241 1.339 . S
C243 C242 1.395 . S
C243 H269 0.929 . S
C244 C242 1.320 . S
C244 C245 1.405 . S
C244 H270 0.930 . S
C245 C240 1.479 . S
C245 C244 1.405 . S
C245 H271 0.931 . S
U246 O247 2.454 . S
U246 O248 2.458 . S
U246 C249 2.984 . S
U246 C250 2.847 . S
U246 C263 2.882 . S
U246 O264 2.441 . S
U246 O265 2.420 . S
U246 O266 2.455 . S
U246 O267 2.449 . S
O247 U246 2.454 . S
O247 C249 1.353 . S
O248 U246 2.458 . S
O248 C249 1.286 . S
C249 U246 2.984 . S
C249 O247 1.353 . S
C249 O248 1.286 . S
C249 C251 1.363 . S
C250 C240 1.465 . S
C250 U246 2.847 . S
C250 O264 1.249 . S
C250 O265 1.202 . S
C251 C249 1.363 . S
C251 C253 1.408 . S
C251 C256 1.342 . S
C252 C253 1.310 . S
C252 C255 1.461 . S
C252 H272 0.932 . S
C253 C251 1.408 . S
C253 C252 1.310 . S
C253 H273 0.930 . S
C254 C255 1.474 . S
C254 C256 1.285 . S
C254 H274 0.929 . S
C255 C252 1.461 . S
C255 C254 1.474 . S
C256 C251 1.342 . S
C256 C254 1.285 . S
C256 H275 0.930 . S
C257 C260 1.424 . S
C257 C262 1.245 . S
C257 C263 1.428 . S
C258 C261 1.260 . S
C258 C262 1.477 . S
C258 H276 0.932 . S
C259 C260 1.384 . S
C259 C261 1.479 . S
C259 H277 0.929 . S
C260 C257 1.424 . S
C260 C259 1.384 . S
C260 H278 0.928 . S
C261 C258 1.260 . S
C261 C259 1.479 . S
C262 C257 1.245 . S
C262 C258 1.477 . S
C262 H279 0.932 . S
C263 U246 2.882 . S
C263 C257 1.428 . S
C263 O266 1.301 . S
C263 O267 1.282 . S
O264 U246 2.441 . S
O264 C250 1.249 . S
O265 U246 2.420 . S
O265 C250 1.202 . S
O266 U246 2.455 . S
O266 C263 1.301 . S
O267 U246 2.449 . S
O267 C263 1.282 . S
H268 C241 0.931 . S
H269 C243 0.929 . S
H270 C244 0.930 . S
H271 C245 0.931 . S
H272 C252 0.932 . S
H273 C253 0.930 . S
H274 C254 0.929 . S
H275 C256 0.930 . S
H276 C258 0.932 . S
H277 C259 0.929 . S
H278 C260 0.928 . S
H279 C262 0.932 . S
C280 C281 1.264 . S
C280 C285 1.479 . S
C280 C290 1.465 . S
C281 C280 1.264 . S
C281 C283 1.339 . S
C281 H308 0.931 . S
C282 C283 1.395 . S
C282 C284 1.320 . S
C283 C281 1.339 . S
C283 C282 1.395 . S
C283 H309 0.929 . S
C284 C282 1.320 . S
C284 C285 1.405 . S
C284 H310 0.930 . S
C285 C280 1.479 . S
C285 C284 1.405 . S
C285 H311 0.931 . S
U286 O287 2.454 . S
U286 O288 2.458 . S
U286 C289 2.984 . S
U286 C290 2.847 . S
U286 C303 2.882 . S
U286 O304 2.441 . S
U286 O305 2.420 . S
U286 O306 2.455 . S
U286 O307 2.449 . S
O287 U286 2.454 . S
O287 C289 1.353 . S
O288 U286 2.458 . S
O288 C289 1.286 . S
C289 U286 2.984 . S
C289 O287 1.353 . S
C289 O288 1.286 . S
C289 C291 1.363 . S
C290 C280 1.465 . S
C290 U286 2.847 . S
C290 O304 1.249 . S
C290 O305 1.202 . S
C291 C289 1.363 . S
C291 C293 1.408 . S
C291 C296 1.342 . S
C292 C293 1.310 . S
C292 C295 1.461 . S
C292 H312 0.932 . S
C293 C291 1.408 . S
C293 C292 1.310 . S
C293 H313 0.930 . S
C294 C295 1.474 . S
C294 C296 1.285 . S
C294 H314 0.929 . S
C295 C292 1.461 . S
C295 C294 1.474 . S
C296 C291 1.342 . S
C296 C294 1.285 . S
C296 H315 0.930 . S
C297 C300 1.424 . S
C297 C302 1.245 . S
C297 C303 1.428 . S
C298 C301 1.260 . S
C298 C302 1.477 . S
C298 H316 0.932 . S
C299 C300 1.384 . S
C299 C301 1.479 . S
C299 H317 0.929 . S
C300 C297 1.424 . S
C300 C299 1.384 . S
C300 H318 0.928 . S
C301 C298 1.260 . S
C301 C299 1.479 . S
C302 C297 1.245 . S
C302 C298 1.477 . S
C302 H319 0.932 . S
C303 U286 2.882 . S
C303 C297 1.428 . S
C303 O306 1.301 . S
C303 O307 1.282 . S
O304 U286 2.441 . S
O304 C290 1.249 . S
O305 U286 2.420 . S
O305 C290 1.202 . S
O306 U286 2.455 . S
O306 C303 1.301 . S
O307 U286 2.449 . S
O307 C303 1.282 . S
H308 C281 0.931 . S
H309 C283 0.929 . S
H310 C284 0.930 . S
H311 C285 0.931 . S
H312 C292 0.932 . S
H313 C293 0.930 . S
H314 C294 0.929 . S
H315 C296 0.930 . S
H316 C298 0.932 . S
H317 C299 0.929 . S
H318 C300 0.928 . S
H319 C302 0.932 . S
H320 C326 0.930 . S
H321 C329 0.931 . S
H322 C331 0.931 . S
H323 C333 0.930 . S
H324 C335 0.930 . S
H325 C337 0.931 . S
C326 H320 0.930 . S
C326 C327 1.380 . S
C326 C328 1.394 1_455 S
C327 C326 1.380 . S
C327 C331 1.382 . S
C328 C326 1.394 1_655 S
C328 C329 1.400 . S
C329 H321 0.931 . S
C329 C328 1.400 . S
C329 C330 1.375 1_655 S
C330 C329 1.375 1_455 S
C330 C331 1.415 . S
C330 C332 1.501 . S
C331 H322 0.931 . S
C331 C327 1.382 . S
C331 C330 1.415 . S
C332 C330 1.501 . S
C332 C333 1.384 . S
C332 C337 1.408 1_455 S
C333 H323 0.930 . S
C333 C332 1.384 . S
C333 C334 1.389 . S
C334 C333 1.389 . S
C334 C335 1.405 . S
C335 H324 0.930 . S
C335 C334 1.405 . S
C335 C336 1.364 1_455 S
C336 C335 1.364 1_655 S
C336 C337 1.400 . S
C337 H325 0.931 . S
C337 C332 1.408 1_655 S
C337 C336 1.400 . S
H338 C344 0.930 . S
H339 C347 0.931 . S
H340 C349 0.931 . S
H341 C351 0.930 . S
H342 C353 0.930 . S
H343 C355 0.931 . S
C344 H338 0.930 . S
C344 C345 1.380 1_455 S
C344 C346 1.394 . S
C345 C344 1.380 1_655 S
C345 C349 1.382 . S
C346 C344 1.394 . S
C346 C347 1.400 . S
C347 H339 0.931 . S
C347 C346 1.400 . S
C347 C348 1.375 . S
C348 C347 1.375 . S
C348 C349 1.415 1_455 S
C348 C350 1.501 . S
C349 H340 0.931 . S
C349 C345 1.382 . S
C349 C348 1.415 1_655 S
C350 C348 1.501 . S
C350 C351 1.384 1_455 S
C350 C355 1.408 . S
C351 H341 0.930 . S
C351 C350 1.384 1_655 S
C351 C352 1.389 . S
C352 C351 1.389 . S
C352 C353 1.405 1_655 S
C353 H342 0.930 . S
C353 C352 1.405 1_455 S
C353 C354 1.364 . S
C354 C353 1.364 . S
C354 C355 1.400 . S
C355 H343 0.931 . S
C355 C350 1.408 . S
C355 C354 1.400 . S
H356 C362 0.930 . S
H357 C365 0.931 . S
H358 C367 0.931 . S
H359 C369 0.930 . S
H360 C371 0.930 . S
H361 C373 0.931 . S
C362 H356 0.930 . S
C362 C363 1.380 . S
C362 C364 1.394 . S
C363 C362 1.380 . S
C363 C367 1.382 . S
C364 C362 1.394 . S
C364 C365 1.400 . S
C365 H357 0.931 . S
C365 C364 1.400 . S
C365 C366 1.375 . S
C366 C365 1.375 . S
C366 C367 1.415 . S
C366 C368 1.501 1_545 S
C367 H358 0.931 . S
C367 C363 1.382 . S
C367 C366 1.415 . S
C368 C366 1.501 1_565 S
C368 C369 1.384 . S
C368 C373 1.408 . S
C369 H359 0.930 . S
C369 C368 1.384 . S
C369 C370 1.389 . S
C370 C369 1.389 . S
C370 C371 1.405 . S
C371 H360 0.930 . S
C371 C370 1.405 . S
C371 C372 1.364 . S
C372 C371 1.364 . S
C372 C373 1.400 . S
C373 H361 0.931 . S
C373 C368 1.408 . S
C373 C372 1.400 . S
H374 C380 0.930 . S
H375 C383 0.931 . S
H376 C385 0.931 . S
H377 C387 0.930 . S
H378 C389 0.930 . S
H379 C391 0.931 . S
C380 H374 0.930 . S
C380 C381 1.380 . S
C380 C382 1.394 . S
C381 C380 1.380 . S
C381 C385 1.382 . S
C382 C380 1.394 . S
C382 C383 1.400 . S
C383 H375 0.931 . S
C383 C382 1.400 . S
C383 C384 1.375 . S
C384 C383 1.375 . S
C384 C385 1.415 . S
C384 C386 1.501 1_554 S
C385 H376 0.931 . S
C385 C381 1.382 . S
C385 C384 1.415 . S
C386 C384 1.501 1_556 S
C386 C387 1.384 . S
C386 C391 1.408 . S
C387 H377 0.930 . S
C387 C386 1.384 . S
C387 C388 1.389 . S
C388 C387 1.389 . S
C388 C389 1.405 . S
C389 H378 0.930 . S
C389 C388 1.405 . S
C389 C390 1.364 . S
C390 C389 1.364 . S
C390 C391 1.400 . S
C391 H379 0.931 . S
C391 C386 1.408 . S
C391 C390 1.400 . S
H392 C398 0.930 . S
H393 C401 0.931 . S
H394 C403 0.931 . S
H395 C405 0.930 . S
H396 C407 0.930 . S
H397 C409 0.931 . S
C398 H392 0.930 . S
C398 C399 1.380 . S
C398 C400 1.394 . S
C399 C398 1.380 . S
C399 C403 1.382 . S
C400 C398 1.394 . S
C400 C401 1.400 . S
C401 H393 0.931 . S
C401 C400 1.400 . S
C401 C402 1.375 . S
C402 C401 1.375 . S
C402 C403 1.415 . S
C402 C404 1.501 1_545 S
C403 H394 0.931 . S
C403 C399 1.382 . S
C403 C402 1.415 . S
C404 C402 1.501 1_565 S
C404 C405 1.384 . S
C404 C409 1.408 . S
C405 H395 0.930 . S
C405 C404 1.384 . S
C405 C406 1.389 . S
C406 C405 1.389 . S
C406 C407 1.405 . S
C407 H396 0.930 . S
C407 C406 1.405 . S
C407 C408 1.364 . S
C408 C407 1.364 . S
C408 C409 1.400 . S
C409 H397 0.931 . S
C409 C404 1.408 . S
C409 C408 1.400 . S
H410 C416 0.930 . S
H411 C419 0.931 . S
H412 C421 0.931 . S
H413 C423 0.930 . S
H414 C425 0.930 . S
H415 C427 0.931 . S
C416 H410 0.930 . S
C416 C417 1.380 . S
C416 C418 1.394 . S
C417 C416 1.380 . S
C417 C421 1.382 . S
C418 C416 1.394 . S
C418 C419 1.400 . S
C419 H411 0.931 . S
C419 C418 1.400 . S
C419 C420 1.375 . S
C420 C419 1.375 . S
C420 C421 1.415 . S
C420 C422 1.501 1_554 S
C421 H412 0.931 . S
C421 C417 1.382 . S
C421 C420 1.415 . S
C422 C420 1.501 1_556 S
C422 C423 1.384 . S
C422 C427 1.408 . S
C423 H413 0.930 . S
C423 C422 1.384 . S
C423 C424 1.389 . S
C424 C423 1.389 . S
C424 C425 1.405 . S
C425 H414 0.930 . S
C425 C424 1.405 . S
C425 C426 1.364 . S
C426 C425 1.364 . S
C426 C427 1.400 . S
C427 H415 0.931 . S
C427 C422 1.408 . S
C427 C426 1.400 . S
H428 C440 0.930 . S
H429 C442 0.930 . S
H430 C443 0.930 . S
H431 C447 0.959 . S
H432 C447 0.959 . S
H433 C447 0.961 . S
H434 C448 0.960 . S
H435 C448 0.961 . S
H436 C448 0.959 . S
H437 C451 0.929 . S
H438 C452 0.931 . S
H439 C454 0.930 . S
C440 H428 0.930 . S
C440 C441 1.399 . S
C440 C445 1.399 . S
C441 C440 1.399 . S
C441 C442 1.376 . S
C442 H429 0.930 . S
C442 C441 1.376 . S
C442 C443 1.388 . S
C443 H430 0.930 . S
C443 C442 1.388 . S
C443 C444 1.390 . S
C444 C443 1.390 . S
C444 C445 1.394 . S
C444 C450 1.465 . S
C445 C440 1.399 . S
C445 C444 1.394 . S
C445 C446 1.516 . S
C446 C445 1.516 . S
C446 C447 1.502 . S
C446 C448 1.561 . S
C446 C449 1.526 . S
C447 H431 0.959 . S
C447 H432 0.959 . S
C447 H433 0.961 . S
C447 C446 1.502 . S
C448 H434 0.960 . S
C448 H435 0.961 . S
C448 H436 0.959 . S
C448 C446 1.561 . S
C449 C446 1.526 . S
C449 C450 1.396 . S
C449 C454 1.390 . S
C450 C444 1.465 . S
C450 C449 1.396 . S
C450 C451 1.399 . S
C451 H437 0.929 . S
C451 C450 1.399 . S
C451 C452 1.385 . S
C452 H438 0.931 . S
C452 C451 1.385 . S
C452 C453 1.389 . S
C453 C452 1.389 . S
C453 C454 1.387 . S
C454 H439 0.930 . S
C454 C449 1.390 . S
C454 C453 1.387 . S
H455 C467 0.930 . S
H456 C469 0.930 . S
H457 C470 0.930 . S
H458 C474 0.959 . S
H459 C474 0.959 . S
H460 C474 0.961 . S
H461 C475 0.960 . S
H462 C475 0.961 . S
H463 C475 0.959 . S
H464 C478 0.929 . S
H465 C479 0.931 . S
H466 C481 0.930 . S
C467 H455 0.930 . S
C467 C468 1.399 . S
C467 C472 1.399 . S
C468 C467 1.399 . S
C468 C469 1.376 . S
C469 H456 0.930 . S
C469 C468 1.376 . S
C469 C470 1.388 . S
C470 H457 0.930 . S
C470 C469 1.388 . S
C470 C471 1.390 . S
C471 C470 1.390 . S
C471 C472 1.394 . S
C471 C477 1.465 . S
C472 C467 1.399 . S
C472 C471 1.394 . S
C472 C473 1.516 . S
C473 C472 1.516 . S
C473 C474 1.502 . S
C473 C475 1.561 . S
C473 C476 1.526 . S
C474 H458 0.959 . S
C474 H459 0.959 . S
C474 H460 0.961 . S
C474 C473 1.502 . S
C475 H461 0.960 . S
C475 H462 0.961 . S
C475 H463 0.959 . S
C475 C473 1.561 . S
C476 C473 1.526 . S
C476 C477 1.396 . S
C476 C481 1.390 . S
C477 C471 1.465 . S
C477 C476 1.396 . S
C477 C478 1.399 . S
C478 H464 0.929 . S
C478 C477 1.399 . S
C478 C479 1.385 . S
C479 H465 0.931 . S
C479 C478 1.385 . S
C479 C480 1.389 . S
C480 C479 1.389 . S
C480 C481 1.387 . S
C481 H466 0.930 . S
C481 C476 1.390 . S
C481 C480 1.387 . S
H482 C494 0.930 . S
H483 C496 0.930 . S
H484 C497 0.930 . S
H485 C501 0.959 . S
H486 C501 0.959 . S
H487 C501 0.961 . S
H488 C502 0.960 . S
H489 C502 0.961 . S
H490 C502 0.959 . S
H491 C505 0.929 . S
H492 C506 0.931 . S
H493 C508 0.930 . S
C494 H482 0.930 . S
C494 C495 1.399 . S
C494 C499 1.399 . S
C495 C494 1.399 . S
C495 C496 1.376 . S
C496 H483 0.930 . S
C496 C495 1.376 . S
C496 C497 1.388 . S
C497 H484 0.930 . S
C497 C496 1.388 . S
C497 C498 1.390 . S
C498 C497 1.390 . S
C498 C499 1.394 . S
C498 C504 1.465 . S
C499 C494 1.399 . S
C499 C498 1.394 . S
C499 C500 1.516 . S
C500 C499 1.516 . S
C500 C501 1.502 . S
C500 C502 1.561 . S
C500 C503 1.526 . S
C501 H485 0.959 . S
C501 H486 0.959 . S
C501 H487 0.961 . S
C501 C500 1.502 . S
C502 H488 0.960 . S
C502 H489 0.961 . S
C502 H490 0.959 . S
C502 C500 1.561 . S
C503 C500 1.526 . S
C503 C504 1.396 . S
C503 C508 1.390 . S
C504 C498 1.465 . S
C504 C503 1.396 . S
C504 C505 1.399 . S
C505 H491 0.929 . S
C505 C504 1.399 . S
C505 C506 1.385 . S
C506 H492 0.931 . S
C506 C505 1.385 . S
C506 C507 1.389 . S
C507 C506 1.389 . S
C507 C508 1.387 . S
C508 H493 0.930 . S
C508 C503 1.390 . S
C508 C507 1.387 . S
H509 C521 0.930 . S
H510 C523 0.930 . S
H511 C524 0.930 . S
H512 C528 0.959 . S
H513 C528 0.959 . S
H514 C528 0.961 . S
H515 C529 0.960 . S
H516 C529 0.961 . S
H517 C529 0.959 . S
H518 C532 0.929 . S
H519 C533 0.931 . S
H520 C535 0.930 . S
C521 H509 0.930 . S
C521 C522 1.399 . S
C521 C526 1.399 . S
C522 C521 1.399 . S
C522 C523 1.376 . S
C523 H510 0.930 . S
C523 C522 1.376 . S
C523 C524 1.388 . S
C524 H511 0.930 . S
C524 C523 1.388 . S
C524 C525 1.390 . S
C525 C524 1.390 . S
C525 C526 1.394 . S
C525 C531 1.465 . S
C526 C521 1.399 . S
C526 C525 1.394 . S
C526 C527 1.516 . S
C527 C526 1.516 . S
C527 C528 1.502 . S
C527 C529 1.561 . S
C527 C530 1.526 . S
C528 H512 0.959 . S
C528 H513 0.959 . S
C528 H514 0.961 . S
C528 C527 1.502 . S
C529 H515 0.960 . S
C529 H516 0.961 . S
C529 H517 0.959 . S
C529 C527 1.561 . S
C530 C527 1.526 . S
C530 C531 1.396 . S
C530 C535 1.390 . S
C531 C525 1.465 . S
C531 C530 1.396 . S
C531 C532 1.399 . S
C532 H518 0.929 . S
C532 C531 1.399 . S
C532 C533 1.385 . S
C533 H519 0.931 . S
C533 C532 1.385 . S
C533 C534 1.389 . S
C534 C533 1.389 . S
C534 C535 1.387 . S
C535 H520 0.930 . S
C535 C530 1.390 . S
C535 C534 1.387 . S
H536 C548 0.930 . S
H537 C550 0.930 . S
H538 C551 0.930 . S
H539 C555 0.959 . S
H540 C555 0.959 . S
H541 C555 0.961 . S
H542 C556 0.960 . S
H543 C556 0.961 . S
H544 C556 0.959 . S
H545 C559 0.929 . S
H546 C560 0.931 . S
H547 C562 0.930 . S
C548 H536 0.930 . S
C548 C549 1.399 . S
C548 C553 1.399 . S
C549 C548 1.399 . S
C549 C550 1.376 . S
C550 H537 0.930 . S
C550 C549 1.376 . S
C550 C551 1.388 . S
C551 H538 0.930 . S
C551 C550 1.388 . S
C551 C552 1.390 . S
C552 C551 1.390 . S
C552 C553 1.394 . S
C552 C558 1.465 . S
C553 C548 1.399 . S
C553 C552 1.394 . S
C553 C554 1.516 . S
C554 C553 1.516 . S
C554 C555 1.502 . S
C554 C556 1.561 . S
C554 C557 1.526 . S
C555 H539 0.959 . S
C555 H540 0.959 . S
C555 H541 0.961 . S
C555 C554 1.502 . S
C556 H542 0.960 . S
C556 H543 0.961 . S
C556 H544 0.959 . S
C556 C554 1.561 . S
C557 C554 1.526 . S
C557 C558 1.396 . S
C557 C562 1.390 . S
C558 C552 1.465 . S
C558 C557 1.396 . S
C558 C559 1.399 . S
C559 H545 0.929 . S
C559 C558 1.399 . S
C559 C560 1.385 . S
C560 H546 0.931 . S
C560 C559 1.385 . S
C560 C561 1.389 . S
C561 C560 1.389 . S
C561 C562 1.387 . S
C562 H547 0.930 . S
C562 C557 1.390 . S
C562 C561 1.387 . S
H563 C575 0.930 . S
H564 C577 0.930 . S
H565 C578 0.930 . S
H566 C582 0.959 . S
H567 C582 0.959 . S
H568 C582 0.961 . S
H569 C583 0.960 . S
H570 C583 0.961 . S
H571 C583 0.959 . S
H572 C586 0.929 . S
H573 C587 0.931 . S
H574 C589 0.930 . S
C575 H563 0.930 . S
C575 C576 1.399 . S
C575 C580 1.399 . S
C576 C575 1.399 . S
C576 C577 1.376 . S
C577 H564 0.930 . S
C577 C576 1.376 . S
C577 C578 1.388 . S
C578 H565 0.930 . S
C578 C577 1.388 . S
C578 C579 1.390 . S
C579 C578 1.390 . S
C579 C580 1.394 . S
C579 C585 1.465 . S
C580 C575 1.399 . S
C580 C579 1.394 . S
C580 C581 1.516 . S
C581 C580 1.516 . S
C581 C582 1.502 . S
C581 C583 1.561 . S
C581 C584 1.526 . S
C582 H566 0.959 . S
C582 H567 0.959 . S
C582 H568 0.961 . S
C582 C581 1.502 . S
C583 H569 0.960 . S
C583 H570 0.961 . S
C583 H571 0.959 . S
C583 C581 1.561 . S
C584 C581 1.526 . S
C584 C585 1.396 . S
C584 C589 1.390 . S
C585 C579 1.465 . S
C585 C584 1.396 . S
C585 C586 1.399 . S
C586 H572 0.929 . S
C586 C585 1.399 . S
C586 C587 1.385 . S
C587 H573 0.931 . S
C587 C586 1.385 . S
C587 C588 1.389 . S
C588 C587 1.389 . S
C588 C589 1.387 . S
C589 H574 0.930 . S
C589 C584 1.390 . S
C589 C588 1.387 . S
H590 C602 0.930 . S
H591 C604 0.930 . S
H592 C605 0.930 . S
H593 C609 0.959 . S
H594 C609 0.959 . S
H595 C609 0.961 . S
H596 C610 0.960 . S
H597 C610 0.961 . S
H598 C610 0.959 . S
H599 C613 0.929 . S
H600 C614 0.931 . S
H601 C616 0.930 . S
C602 H590 0.930 . S
C602 C603 1.399 . S
C602 C607 1.399 . S
C603 C602 1.399 . S
C603 C604 1.376 . S
C604 H591 0.930 . S
C604 C603 1.376 . S
C604 C605 1.388 . S
C605 H592 0.930 . S
C605 C604 1.388 . S
C605 C606 1.390 . S
C606 C605 1.390 . S
C606 C607 1.394 . S
C606 C612 1.465 . S
C607 C602 1.399 . S
C607 C606 1.394 . S
C607 C608 1.516 . S
C608 C607 1.516 . S
C608 C609 1.502 . S
C608 C610 1.561 . S
C608 C611 1.526 . S
C609 H593 0.959 . S
C609 H594 0.959 . S
C609 H595 0.961 . S
C609 C608 1.502 . S
C610 H596 0.960 . S
C610 H597 0.961 . S
C610 H598 0.959 . S
C610 C608 1.561 . S
C611 C608 1.526 . S
C611 C612 1.396 . S
C611 C616 1.390 . S
C612 C606 1.465 . S
C612 C611 1.396 . S
C612 C613 1.399 . S
C613 H599 0.929 . S
C613 C612 1.399 . S
C613 C614 1.385 . S
C614 H600 0.931 . S
C614 C613 1.385 . S
C614 C615 1.389 . S
C615 C614 1.389 . S
C615 C616 1.387 . S
C616 H601 0.930 . S
C616 C611 1.390 . S
C616 C615 1.387 . S
H617 C629 0.930 . S
H618 C631 0.930 . S
H619 C632 0.930 . S
H620 C636 0.959 . S
H621 C636 0.959 . S
H622 C636 0.961 . S
H623 C637 0.960 . S
H624 C637 0.961 . S
H625 C637 0.959 . S
H626 C640 0.929 . S
H627 C641 0.931 . S
H628 C643 0.930 . S
C629 H617 0.930 . S
C629 C630 1.399 . S
C629 C634 1.399 . S
C630 C629 1.399 . S
C630 C631 1.376 . S
C631 H618 0.930 . S
C631 C630 1.376 . S
C631 C632 1.388 . S
C632 H619 0.930 . S
C632 C631 1.388 . S
C632 C633 1.390 . S
C633 C632 1.390 . S
C633 C634 1.394 . S
C633 C639 1.465 . S
C634 C629 1.399 . S
C634 C633 1.394 . S
C634 C635 1.516 . S
C635 C634 1.516 . S
C635 C636 1.502 . S
C635 C637 1.561 . S
C635 C638 1.526 . S
C636 H620 0.959 . S
C636 H621 0.959 . S
C636 H622 0.961 . S
C636 C635 1.502 . S
C637 H623 0.960 . S
C637 H624 0.961 . S
C637 H625 0.959 . S
C637 C635 1.561 . S
C638 C635 1.526 . S
C638 C639 1.396 . S
C638 C643 1.390 . S
C639 C633 1.465 . S
C639 C638 1.396 . S
C639 C640 1.399 . S
C640 H626 0.929 . S
C640 C639 1.399 . S
C640 C641 1.385 . S
C641 H627 0.931 . S
C641 C640 1.385 . S
C641 C642 1.389 . S
C642 C641 1.389 . S
C642 C643 1.387 . S
C643 H628 0.930 . S
C643 C638 1.390 . S
C643 C642 1.387 . S
H644 C656 0.930 . S
H645 C658 0.930 . S
H646 C659 0.930 . S
H647 C663 0.959 . S
H648 C663 0.959 . S
H649 C663 0.961 . S
H650 C664 0.960 . S
H651 C664 0.961 . S
H652 C664 0.959 . S
H653 C667 0.929 . S
H654 C668 0.931 . S
H655 C670 0.930 . S
C656 H644 0.930 . S
C656 C657 1.399 . S
C656 C661 1.399 . S
C657 C656 1.399 . S
C657 C658 1.376 . S
C658 H645 0.930 . S
C658 C657 1.376 . S
C658 C659 1.388 . S
C659 H646 0.930 . S
C659 C658 1.388 . S
C659 C660 1.390 . S
C660 C659 1.390 . S
C660 C661 1.394 . S
C660 C666 1.465 . S
C661 C656 1.399 . S
C661 C660 1.394 . S
C661 C662 1.516 . S
C662 C661 1.516 . S
C662 C663 1.502 . S
C662 C664 1.561 . S
C662 C665 1.526 . S
C663 H647 0.959 . S
C663 H648 0.959 . S
C663 H649 0.961 . S
C663 C662 1.502 . S
C664 H650 0.960 . S
C664 H651 0.961 . S
C664 H652 0.959 . S
C664 C662 1.561 . S
C665 C662 1.526 . S
C665 C666 1.396 . S
C665 C670 1.390 . S
C666 C660 1.465 . S
C666 C665 1.396 . S
C666 C667 1.399 . S
C667 H653 0.929 . S
C667 C666 1.399 . S
C667 C668 1.385 . S
C668 H654 0.931 . S
C668 C667 1.385 . S
C668 C669 1.389 . S
C669 C668 1.389 . S
C669 C670 1.387 . S
C670 H655 0.930 . S
C670 C665 1.390 . S
C670 C669 1.387 . S
H671 C683 0.930 . S
H672 C685 0.930 . S
H673 C686 0.930 . S
H674 C690 0.959 . S
H675 C690 0.959 . S
H676 C690 0.961 . S
H677 C691 0.960 . S
H678 C691 0.961 . S
H679 C691 0.959 . S
H680 C694 0.929 . S
H681 C695 0.931 . S
H682 C697 0.930 . S
C683 H671 0.930 . S
C683 C684 1.399 . S
C683 C688 1.399 . S
C684 C683 1.399 . S
C684 C685 1.376 . S
C685 H672 0.930 . S
C685 C684 1.376 . S
C685 C686 1.388 . S
C686 H673 0.930 . S
C686 C685 1.388 . S
C686 C687 1.390 . S
C687 C686 1.390 . S
C687 C688 1.394 . S
C687 C693 1.465 . S
C688 C683 1.399 . S
C688 C687 1.394 . S
C688 C689 1.516 . S
C689 C688 1.516 . S
C689 C690 1.502 . S
C689 C691 1.561 . S
C689 C692 1.526 . S
C690 H674 0.959 . S
C690 H675 0.959 . S
C690 H676 0.961 . S
C690 C689 1.502 . S
C691 H677 0.960 . S
C691 H678 0.961 . S
C691 H679 0.959 . S
C691 C689 1.561 . S
C692 C689 1.526 . S
C692 C693 1.396 . S
C692 C697 1.390 . S
C693 C687 1.465 . S
C693 C692 1.396 . S
C693 C694 1.399 . S
C694 H680 0.929 . S
C694 C693 1.399 . S
C694 C695 1.385 . S
C695 H681 0.931 . S
C695 C694 1.385 . S
C695 C696 1.389 . S
C696 C695 1.389 . S
C696 C697 1.387 . S
C697 H682 0.930 . S
C697 C692 1.390 . S
C697 C696 1.387 . S
H698 C710 0.930 . S
H699 C712 0.930 . S
H700 C713 0.930 . S
H701 C717 0.959 . S
H702 C717 0.959 . S
H703 C717 0.961 . S
H704 C718 0.960 . S
H705 C718 0.961 . S
H706 C718 0.959 . S
H707 C721 0.929 . S
H708 C722 0.931 . S
H709 C724 0.930 . S
C710 H698 0.930 . S
C710 C711 1.399 . S
C710 C715 1.399 . S
C711 C710 1.399 . S
C711 C712 1.376 . S
C712 H699 0.930 . S
C712 C711 1.376 . S
C712 C713 1.388 . S
C713 H700 0.930 . S
C713 C712 1.388 . S
C713 C714 1.390 . S
C714 C713 1.390 . S
C714 C715 1.394 . S
C714 C720 1.465 . S
C715 C710 1.399 . S
C715 C714 1.394 . S
C715 C716 1.516 . S
C716 C715 1.516 . S
C716 C717 1.502 . S
C716 C718 1.561 . S
C716 C719 1.526 . S
C717 H701 0.959 . S
C717 H702 0.959 . S
C717 H703 0.961 . S
C717 C716 1.502 . S
C718 H704 0.960 . S
C718 H705 0.961 . S
C718 H706 0.959 . S
C718 C716 1.561 . S
C719 C716 1.526 . S
C719 C720 1.396 . S
C719 C724 1.390 . S
C720 C714 1.465 . S
C720 C719 1.396 . S
C720 C721 1.399 . S
C721 H707 0.929 . S
C721 C720 1.399 . S
C721 C722 1.385 . S
C722 H708 0.931 . S
C722 C721 1.385 . S
C722 C723 1.389 . S
C723 C722 1.389 . S
C723 C724 1.387 . S
C724 H709 0.930 . S
C724 C719 1.390 . S
C724 C723 1.387 . S
H725 C737 0.930 . S
H726 C739 0.930 . S
H727 C740 0.930 . S
H728 C744 0.959 . S
H729 C744 0.959 . S
H730 C744 0.961 . S
H731 C745 0.960 . S
H732 C745 0.961 . S
H733 C745 0.959 . S
H734 C748 0.929 . S
H735 C749 0.931 . S
H736 C751 0.930 . S
C737 H725 0.930 . S
C737 C738 1.399 . S
C737 C742 1.399 . S
C738 C737 1.399 . S
C738 C739 1.376 . S
C739 H726 0.930 . S
C739 C738 1.376 . S
C739 C740 1.388 . S
C740 H727 0.930 . S
C740 C739 1.388 . S
C740 C741 1.390 . S
C741 C740 1.390 . S
C741 C742 1.394 . S
C741 C747 1.465 . S
C742 C737 1.399 . S
C742 C741 1.394 . S
C742 C743 1.516 . S
C743 C742 1.516 . S
C743 C744 1.502 . S
C743 C745 1.561 . S
C743 C746 1.526 . S
C744 H728 0.959 . S
C744 H729 0.959 . S
C744 H730 0.961 . S
C744 C743 1.502 . S
C745 H731 0.960 . S
C745 H732 0.961 . S
C745 H733 0.959 . S
C745 C743 1.561 . S
C746 C743 1.526 . S
C746 C747 1.396 . S
C746 C751 1.390 . S
C747 C741 1.465 . S
C747 C746 1.396 . S
C747 C748 1.399 . S
C748 H734 0.929 . S
C748 C747 1.399 . S
C748 C749 1.385 . S
C749 H735 0.931 . S
C749 C748 1.385 . S
C749 C750 1.389 . S
C750 C749 1.389 . S
C750 C751 1.387 . S
C751 H736 0.930 . S
C751 C746 1.390 . S
C751 C750 1.387 . S
H752 C764 0.930 . S
H753 C766 0.930 . S
H754 C767 0.930 . S
H755 C771 0.959 . S
H756 C771 0.959 . S
H757 C771 0.961 . S
H758 C772 0.960 . S
H759 C772 0.961 . S
H760 C772 0.959 . S
H761 C775 0.929 . S
H762 C776 0.931 . S
H763 C778 0.930 . S
C764 H752 0.930 . S
C764 C765 1.399 . S
C764 C769 1.399 . S
C765 C764 1.399 . S
C765 C766 1.376 . S
C766 H753 0.930 . S
C766 C765 1.376 . S
C766 C767 1.388 . S
C767 H754 0.930 . S
C767 C766 1.388 . S
C767 C768 1.390 . S
C768 C767 1.390 . S
C768 C769 1.394 . S
C768 C774 1.465 . S
C769 C764 1.399 . S
C769 C768 1.394 . S
C769 C770 1.516 . S
C770 C769 1.516 . S
C770 C771 1.502 . S
C770 C772 1.561 . S
C770 C773 1.526 . S
C771 H755 0.959 . S
C771 H756 0.959 . S
C771 H757 0.961 . S
C771 C770 1.502 . S
C772 H758 0.960 . S
C772 H759 0.961 . S
C772 H760 0.959 . S
C772 C770 1.561 . S
C773 C770 1.526 . S
C773 C774 1.396 . S
C773 C778 1.390 . S
C774 C768 1.465 . S
C774 C773 1.396 . S
C774 C775 1.399 . S
C775 H761 0.929 . S
C775 C774 1.399 . S
C775 C776 1.385 . S
C776 H762 0.931 . S
C776 C775 1.385 . S
C776 C777 1.389 . S
C777 C776 1.389 . S
C777 C778 1.387 . S
C778 H763 0.930 . S
C778 C773 1.390 . S
C778 C777 1.387 . S
H779 C791 0.930 . S
H780 C793 0.930 . S
H781 C794 0.930 . S
H782 C798 0.959 . S
H783 C798 0.959 . S
H784 C798 0.961 . S
H785 C799 0.960 . S
H786 C799 0.961 . S
H787 C799 0.959 . S
H788 C802 0.929 . S
H789 C803 0.931 . S
H790 C805 0.930 . S
C791 H779 0.930 . S
C791 C792 1.399 . S
C791 C796 1.399 . S
C792 C791 1.399 . S
C792 C793 1.376 . S
C793 H780 0.930 . S
C793 C792 1.376 . S
C793 C794 1.388 . S
C794 H781 0.930 . S
C794 C793 1.388 . S
C794 C795 1.390 . S
C795 C794 1.390 . S
C795 C796 1.394 . S
C795 C801 1.465 . S
C796 C791 1.399 . S
C796 C795 1.394 . S
C796 C797 1.516 . S
C797 C796 1.516 . S
C797 C798 1.502 . S
C797 C799 1.561 . S
C797 C800 1.526 . S
C798 H782 0.959 . S
C798 H783 0.959 . S
C798 H784 0.961 . S
C798 C797 1.502 . S
C799 H785 0.960 . S
C799 H786 0.961 . S
C799 H787 0.959 . S
C799 C797 1.561 . S
C800 C797 1.526 . S
C800 C801 1.396 . S
C800 C805 1.390 . S
C801 C795 1.465 . S
C801 C800 1.396 . S
C801 C802 1.399 . S
C802 H788 0.929 . S
C802 C801 1.399 . S
C802 C803 1.385 . S
C803 H789 0.931 . S
C803 C802 1.385 . S
C803 C804 1.389 . S
C804 C803 1.389 . S
C804 C805 1.387 . S
C805 H790 0.930 . S
C805 C800 1.390 . S
C805 C804 1.387 . S
H806 C818 0.930 . S
H807 C820 0.930 . S
H808 C821 0.930 . S
H809 C825 0.959 . S
H810 C825 0.959 . S
H811 C825 0.961 . S
H812 C826 0.960 . S
H813 C826 0.961 . S
H814 C826 0.959 . S
H815 C829 0.929 . S
H816 C830 0.931 . S
H817 C832 0.930 . S
C818 H806 0.930 . S
C818 C819 1.399 . S
C818 C823 1.399 . S
C819 C818 1.399 . S
C819 C820 1.376 . S
C820 H807 0.930 . S
C820 C819 1.376 . S
C820 C821 1.388 . S
C821 H808 0.930 . S
C821 C820 1.388 . S
C821 C822 1.390 . S
C822 C821 1.390 . S
C822 C823 1.394 . S
C822 C828 1.465 . S
C823 C818 1.399 . S
C823 C822 1.394 . S
C823 C824 1.516 . S
C824 C823 1.516 . S
C824 C825 1.502 . S
C824 C826 1.561 . S
C824 C827 1.526 . S
C825 H809 0.959 . S
C825 H810 0.959 . S
C825 H811 0.961 . S
C825 C824 1.502 . S
C826 H812 0.960 . S
C826 H813 0.961 . S
C826 H814 0.959 . S
C826 C824 1.561 . S
C827 C824 1.526 . S
C827 C828 1.396 . S
C827 C832 1.390 . S
C828 C822 1.465 . S
C828 C827 1.396 . S
C828 C829 1.399 . S
C829 H815 0.929 . S
C829 C828 1.399 . S
C829 C830 1.385 . S
C830 H816 0.931 . S
C830 C829 1.385 . S
C830 C831 1.389 . S
C831 C830 1.389 . S
C831 C832 1.387 . S
C832 H817 0.930 . S
C832 C827 1.390 . S
C832 C831 1.387 . S
H833 C845 0.930 . S
H834 C847 0.930 . S
H835 C848 0.930 . S
H836 C852 0.959 . S
H837 C852 0.959 . S
H838 C852 0.961 . S
H839 C853 0.960 . S
H840 C853 0.961 . S
H841 C853 0.959 . S
H842 C856 0.929 . S
H843 C857 0.931 . S
H844 C859 0.930 . S
C845 H833 0.930 . S
C845 C846 1.399 . S
C845 C850 1.399 . S
C846 C845 1.399 . S
C846 C847 1.376 . S
C847 H834 0.930 . S
C847 C846 1.376 . S
C847 C848 1.388 . S
C848 H835 0.930 . S
C848 C847 1.388 . S
C848 C849 1.390 . S
C849 C848 1.390 . S
C849 C850 1.394 . S
C849 C855 1.465 . S
C850 C845 1.399 . S
C850 C849 1.394 . S
C850 C851 1.516 . S
C851 C850 1.516 . S
C851 C852 1.502 . S
C851 C853 1.561 . S
C851 C854 1.526 . S
C852 H836 0.959 . S
C852 H837 0.959 . S
C852 H838 0.961 . S
C852 C851 1.502 . S
C853 H839 0.960 . S
C853 H840 0.961 . S
C853 H841 0.959 . S
C853 C851 1.561 . S
C854 C851 1.526 . S
C854 C855 1.396 . S
C854 C859 1.390 . S
C855 C849 1.465 . S
C855 C854 1.396 . S
C855 C856 1.399 . S
C856 H842 0.929 . S
C856 C855 1.399 . S
C856 C857 1.385 . S
C857 H843 0.931 . S
C857 C856 1.385 . S
C857 C858 1.389 . S
C858 C857 1.389 . S
C858 C859 1.387 . S
C859 H844 0.930 . S
C859 C854 1.390 . S
C859 C858 1.387 . S
H860 C872 0.930 . S
H861 C874 0.930 . S
H862 C875 0.930 . S
H863 C879 0.959 . S
H864 C879 0.959 . S
H865 C879 0.961 . S
H866 C880 0.960 . S
H867 C880 0.961 . S
H868 C880 0.959 . S
H869 C883 0.929 . S
H870 C884 0.931 . S
H871 C886 0.930 . S
C872 H860 0.930 . S
C872 C873 1.399 . S
C872 C877 1.399 . S
C873 C872 1.399 . S
C873 C874 1.376 . S
C874 H861 0.930 . S
C874 C873 1.376 . S
C874 C875 1.388 . S
C875 H862 0.930 . S
C875 C874 1.388 . S
C875 C876 1.390 . S
C876 C875 1.390 . S
C876 C877 1.394 . S
C876 C882 1.465 . S
C877 C872 1.399 . S
C877 C876 1.394 . S
C877 C878 1.516 . S
C878 C877 1.516 . S
C878 C879 1.502 . S
C878 C880 1.561 . S
C878 C881 1.526 . S
C879 H863 0.959 . S
C879 H864 0.959 . S
C879 H865 0.961 . S
C879 C878 1.502 . S
C880 H866 0.960 . S
C880 H867 0.961 . S
C880 H868 0.959 . S
C880 C878 1.561 . S
C881 C878 1.526 . S
C881 C882 1.396 . S
C881 C886 1.390 . S
C882 C876 1.465 . S
C882 C881 1.396 . S
C882 C883 1.399 . S
C883 H869 0.929 . S
C883 C882 1.399 . S
C883 C884 1.385 . S
C884 H870 0.931 . S
C884 C883 1.385 . S
C884 C885 1.389 . S
C885 C884 1.389 . S
C885 C886 1.387 . S
C886 H871 0.930 . S
C886 C881 1.390 . S
C886 C885 1.387 . S
H887 C899 0.930 . S
H888 C901 0.930 . S
H889 C902 0.930 . S
H890 C906 0.959 . S
H891 C906 0.959 . S
H892 C906 0.961 . S
H893 C907 0.960 . S
H894 C907 0.961 . S
H895 C907 0.959 . S
H896 C910 0.929 . S
H897 C911 0.931 . S
H898 C913 0.930 . S
C899 H887 0.930 . S
C899 C900 1.399 . S
C899 C904 1.399 . S
C900 C899 1.399 . S
C900 C901 1.376 . S
C901 H888 0.930 . S
C901 C900 1.376 . S
C901 C902 1.388 . S
C902 H889 0.930 . S
C902 C901 1.388 . S
C902 C903 1.390 . S
C903 C902 1.390 . S
C903 C904 1.394 . S
C903 C909 1.465 . S
C904 C899 1.399 . S
C904 C903 1.394 . S
C904 C905 1.516 . S
C905 C904 1.516 . S
C905 C906 1.502 . S
C905 C907 1.561 . S
C905 C908 1.526 . S
C906 H890 0.959 . S
C906 H891 0.959 . S
C906 H892 0.961 . S
C906 C905 1.502 . S
C907 H893 0.960 . S
C907 H894 0.961 . S
C907 H895 0.959 . S
C907 C905 1.561 . S
C908 C905 1.526 . S
C908 C909 1.396 . S
C908 C913 1.390 . S
C909 C903 1.465 . S
C909 C908 1.396 . S
C909 C910 1.399 . S
C910 H896 0.929 . S
C910 C909 1.399 . S
C910 C911 1.385 . S
C911 H897 0.931 . S
C911 C910 1.385 . S
C911 C912 1.389 . S
C912 C911 1.389 . S
C912 C913 1.387 . S
C913 H898 0.930 . S
C913 C908 1.390 . S
C913 C912 1.387 . S
H914 C926 0.930 . S
H915 C928 0.930 . S
H916 C929 0.930 . S
H917 C933 0.959 . S
H918 C933 0.959 . S
H919 C933 0.961 . S
H920 C934 0.960 . S
H921 C934 0.961 . S
H922 C934 0.959 . S
H923 C937 0.929 . S
H924 C938 0.931 . S
H925 C940 0.930 . S
C926 H914 0.930 . S
C926 C927 1.399 . S
C926 C931 1.399 . S
C927 C926 1.399 . S
C927 C928 1.376 . S
C928 H915 0.930 . S
C928 C927 1.376 . S
C928 C929 1.388 . S
C929 H916 0.930 . S
C929 C928 1.388 . S
C929 C930 1.390 . S
C930 C929 1.390 . S
C930 C931 1.394 . S
C930 C936 1.465 . S
C931 C926 1.399 . S
C931 C930 1.394 . S
C931 C932 1.516 . S
C932 C931 1.516 . S
C932 C933 1.502 . S
C932 C934 1.561 . S
C932 C935 1.526 . S
C933 H917 0.959 . S
C933 H918 0.959 . S
C933 H919 0.961 . S
C933 C932 1.502 . S
C934 H920 0.960 . S
C934 H921 0.961 . S
C934 H922 0.959 . S
C934 C932 1.561 . S
C935 C932 1.526 . S
C935 C936 1.396 . S
C935 C940 1.390 . S
C936 C930 1.465 . S
C936 C935 1.396 . S
C936 C937 1.399 . S
C937 H923 0.929 . S
C937 C936 1.399 . S
C937 C938 1.385 . S
C938 H924 0.931 . S
C938 C937 1.385 . S
C938 C939 1.389 . S
C939 C938 1.389 . S
C939 C940 1.387 . S
C940 H925 0.930 . S
C940 C935 1.390 . S
C940 C939 1.387 . S
H941 C953 0.930 . S
H942 C955 0.930 . S
H943 C956 0.930 . S
H944 C960 0.959 . S
H945 C960 0.959 . S
H946 C960 0.961 . S
H947 C961 0.960 . S
H948 C961 0.961 . S
H949 C961 0.959 . S
H950 C964 0.929 . S
H951 C965 0.931 . S
H952 C967 0.930 . S
C953 H941 0.930 . S
C953 C954 1.399 . S
C953 C958 1.399 . S
C954 C953 1.399 . S
C954 C955 1.376 . S
C955 H942 0.930 . S
C955 C954 1.376 . S
C955 C956 1.388 . S
C956 H943 0.930 . S
C956 C955 1.388 . S
C956 C957 1.390 . S
C957 C956 1.390 . S
C957 C958 1.394 . S
C957 C963 1.465 . S
C958 C953 1.399 . S
C958 C957 1.394 . S
C958 C959 1.516 . S
C959 C958 1.516 . S
C959 C960 1.502 . S
C959 C961 1.561 . S
C959 C962 1.526 . S
C960 H944 0.959 . S
C960 H945 0.959 . S
C960 H946 0.961 . S
C960 C959 1.502 . S
C961 H947 0.960 . S
C961 H948 0.961 . S
C961 H949 0.959 . S
C961 C959 1.561 . S
C962 C959 1.526 . S
C962 C963 1.396 . S
C962 C967 1.390 . S
C963 C957 1.465 . S
C963 C962 1.396 . S
C963 C964 1.399 . S
C964 H950 0.929 . S
C964 C963 1.399 . S
C964 C965 1.385 . S
C965 H951 0.931 . S
C965 C964 1.385 . S
C965 C966 1.389 . S
C966 C965 1.389 . S
C966 C967 1.387 . S
C967 H952 0.930 . S
C967 C962 1.390 . S
C967 C966 1.387 . S
H968 C980 0.930 . S
H969 C982 0.930 . S
H970 C983 0.930 . S
H971 C987 0.959 . S
H972 C987 0.959 . S
H973 C987 0.961 . S
H974 C988 0.960 . S
H975 C988 0.961 . S
H976 C988 0.959 . S
H977 C991 0.929 . S
H978 C992 0.931 . S
H979 C994 0.930 . S
C980 H968 0.930 . S
C980 C981 1.399 . S
C980 C985 1.399 . S
C981 C980 1.399 . S
C981 C982 1.376 . S
C982 H969 0.930 . S
C982 C981 1.376 . S
C982 C983 1.388 . S
C983 H970 0.930 . S
C983 C982 1.388 . S
C983 C984 1.390 . S
C984 C983 1.390 . S
C984 C985 1.394 . S
C984 C990 1.465 . S
C985 C980 1.399 . S
C985 C984 1.394 . S
C985 C986 1.516 . S
C986 C985 1.516 . S
C986 C987 1.502 . S
C986 C988 1.561 . S
C986 C989 1.526 . S
C987 H971 0.959 . S
C987 H972 0.959 . S
C987 H973 0.961 . S
C987 C986 1.502 . S
C988 H974 0.960 . S
C988 H975 0.961 . S
C988 H976 0.959 . S
C988 C986 1.561 . S
C989 C986 1.526 . S
C989 C990 1.396 . S
C989 C994 1.390 . S
C990 C984 1.465 . S
C990 C989 1.396 . S
C990 C991 1.399 . S
C991 H977 0.929 . S
C991 C990 1.399 . S
C991 C992 1.385 . S
C992 H978 0.931 . S
C992 C991 1.385 . S
C992 C993 1.389 . S
C993 C992 1.389 . S
C993 C994 1.387 . S
C994 H979 0.930 . S
C994 C989 1.390 . S
C994 C993 1.387 . S
H995 C1007 0.930 . S
H996 C1009 0.930 . S
H997 C1010 0.930 . S
H998 C1014 0.959 . S
H999 C1014 0.959 . S
H1000 C1014 0.961 . S
H1001 C1015 0.960 . S
H1002 C1015 0.961 . S
H1003 C1015 0.959 . S
H1004 C1018 0.929 . S
H1005 C1019 0.931 . S
H1006 C1021 0.930 . S
C1007 H995 0.930 . S
C1007 C1008 1.399 . S
C1007 C1012 1.399 . S
C1008 C1007 1.399 . S
C1008 C1009 1.376 . S
C1009 H996 0.930 . S
C1009 C1008 1.376 . S
C1009 C1010 1.388 . S
C1010 H997 0.930 . S
C1010 C1009 1.388 . S
C1010 C1011 1.390 . S
C1011 C1010 1.390 . S
C1011 C1012 1.394 . S
C1011 C1017 1.465 . S
C1012 C1007 1.399 . S
C1012 C1011 1.394 . S
C1012 C1013 1.516 . S
C1013 C1012 1.516 . S
C1013 C1014 1.502 . S
C1013 C1015 1.561 . S
C1013 C1016 1.526 . S
C1014 H998 0.959 . S
C1014 H999 0.959 . S
C1014 H1000 0.961 . S
C1014 C1013 1.502 . S
C1015 H1001 0.960 . S
C1015 H1002 0.961 . S
C1015 H1003 0.959 . S
C1015 C1013 1.561 . S
C1016 C1013 1.526 . S
C1016 C1017 1.396 . S
C1016 C1021 1.390 . S
C1017 C1011 1.465 . S
C1017 C1016 1.396 . S
C1017 C1018 1.399 . S
C1018 H1004 0.929 . S
C1018 C1017 1.399 . S
C1018 C1019 1.385 . S
C1019 H1005 0.931 . S
C1019 C1018 1.385 . S
C1019 C1020 1.389 . S
C1020 C1019 1.389 . S
C1020 C1021 1.387 . S
C1021 H1006 0.930 . S
C1021 C1016 1.390 . S
C1021 C1020 1.387 . S
H1022 C1034 0.930 . S
H1023 C1036 0.930 . S
H1024 C1037 0.930 . S
H1025 C1041 0.959 . S
H1026 C1041 0.959 . S
H1027 C1041 0.961 . S
H1028 C1042 0.960 . S
H1029 C1042 0.961 . S
H1030 C1042 0.959 . S
H1031 C1045 0.929 . S
H1032 C1046 0.931 . S
H1033 C1048 0.930 . S
C1034 H1022 0.930 . S
C1034 C1035 1.399 . S
C1034 C1039 1.399 . S
C1035 C1034 1.399 . S
C1035 C1036 1.376 . S
C1036 H1023 0.930 . S
C1036 C1035 1.376 . S
C1036 C1037 1.388 . S
C1037 H1024 0.930 . S
C1037 C1036 1.388 . S
C1037 C1038 1.390 . S
C1038 C1037 1.390 . S
C1038 C1039 1.394 . S
C1038 C1044 1.465 . S
C1039 C1034 1.399 . S
C1039 C1038 1.394 . S
C1039 C1040 1.516 . S
C1040 C1039 1.516 . S
C1040 C1041 1.502 . S
C1040 C1042 1.561 . S
C1040 C1043 1.526 . S
C1041 H1025 0.959 . S
C1041 H1026 0.959 . S
C1041 H1027 0.961 . S
C1041 C1040 1.502 . S
C1042 H1028 0.960 . S
C1042 H1029 0.961 . S
C1042 H1030 0.959 . S
C1042 C1040 1.561 . S
C1043 C1040 1.526 . S
C1043 C1044 1.396 . S
C1043 C1048 1.390 . S
C1044 C1038 1.465 . S
C1044 C1043 1.396 . S
C1044 C1045 1.399 . S
C1045 H1031 0.929 . S
C1045 C1044 1.399 . S
C1045 C1046 1.385 . S
C1046 H1032 0.931 . S
C1046 C1045 1.385 . S
C1046 C1047 1.389 . S
C1047 C1046 1.389 . S
C1047 C1048 1.387 . S
C1048 H1033 0.930 . S
C1048 C1043 1.390 . S
C1048 C1047 1.387 . S
H1049 C1061 0.930 . S
H1050 C1063 0.930 . S
H1051 C1064 0.930 . S
H1052 C1068 0.959 . S
H1053 C1068 0.959 . S
H1054 C1068 0.961 . S
H1055 C1069 0.960 . S
H1056 C1069 0.961 . S
H1057 C1069 0.959 . S
H1058 C1072 0.929 . S
H1059 C1073 0.931 . S
H1060 C1075 0.930 . S
C1061 H1049 0.930 . S
C1061 C1062 1.399 . S
C1061 C1066 1.399 . S
C1062 C1061 1.399 . S
C1062 C1063 1.376 . S
C1063 H1050 0.930 . S
C1063 C1062 1.376 . S
C1063 C1064 1.388 . S
C1064 H1051 0.930 . S
C1064 C1063 1.388 . S
C1064 C1065 1.390 . S
C1065 C1064 1.390 . S
C1065 C1066 1.394 . S
C1065 C1071 1.465 . S
C1066 C1061 1.399 . S
C1066 C1065 1.394 . S
C1066 C1067 1.516 . S
C1067 C1066 1.516 . S
C1067 C1068 1.502 . S
C1067 C1069 1.561 . S
C1067 C1070 1.526 . S
C1068 H1052 0.959 . S
C1068 H1053 0.959 . S
C1068 H1054 0.961 . S
C1068 C1067 1.502 . S
C1069 H1055 0.960 . S
C1069 H1056 0.961 . S
C1069 H1057 0.959 . S
C1069 C1067 1.561 . S
C1070 C1067 1.526 . S
C1070 C1071 1.396 . S
C1070 C1075 1.390 . S
C1071 C1065 1.465 . S
C1071 C1070 1.396 . S
C1071 C1072 1.399 . S
C1072 H1058 0.929 . S
C1072 C1071 1.399 . S
C1072 C1073 1.385 . S
C1073 H1059 0.931 . S
C1073 C1072 1.385 . S
C1073 C1074 1.389 . S
C1074 C1073 1.389 . S
C1074 C1075 1.387 . S
C1075 H1060 0.930 . S
C1075 C1070 1.390 . S
C1075 C1074 1.387 . S
C453 C327 1.507 . S
C441 C15 1.566 . S
C480 C346 1.532 . S
C468 C55 1.580 . S
C507 C336 1.569 . S
C495 C101 1.596 . S
C534 C352 1.619 . S
C522 C141 1.646 . S
C561 C363 1.546 . S
C549 C2 1.514 . S
C588 C388 1.486 . S
C576 C61 1.503 . S
C603 C95 1.659 . S
C615 C406 1.529 . S
C642 C426 1.491 . S
C630 C135 1.531 . S
C669 C372 1.464 . S
C657 C42 1.548 . S
C684 C82 1.524 . S
C696 C382 1.483 . S
C723 C400 1.573 . S
C711 C122 1.650 . S
C750 C417 1.497 . S
C738 C21 1.505 . S
C765 C162 1.696 . S
C777 C345 1.584 . S
C804 C328 1.567 . S
C792 C221 1.665 . S
C819 C255 1.631 . S
C831 C354 1.561 . S
C846 C282 1.569 . S
C858 C334 1.529 . S
C885 C408 1.608 . S
C873 C181 1.740 . S
C912 C418 1.504 . S
C900 C202 1.546 . S
C939 C364 1.511 . S
C927 C242 1.598 . S
C954 C301 1.508 . S
C966 C381 1.517 . S
C993 C399 1.622 . S
C981 C215 1.706 . S
C1020 C424 1.513 . S
C1008 C261 1.563 . S
C1047 C370 1.512 . S
C1035 C295 1.608 . S
C1062 C175 1.566 . S
C1074 C390 1.438 . S
