# Generated by pormake.
# Topology eea, (3,6)-cn, num edge types: 1
# Building blocks:
#     Node 0, Type 0, BuildingBlock: KAKCAD_clean_linker_0, # of connection points: 3
#     Node 1, Type 0, BuildingBlock: KAKCAD_clean_linker_0, # of connection points: 3
#     Node 2, Type 0, BuildingBlock: KAKCAD_clean_linker_0, # of connection points: 3
#     Node 3, Type 0, BuildingBlock: KAKCAD_clean_linker_0, # of connection points: 3
#     Node 4, Type 0, BuildingBlock: KAKCAD_clean_linker_0, # of connection points: 3
#     Node 5, Type 0, BuildingBlock: KAKCAD_clean_linker_0, # of connection points: 3
#     Node 6, Type 0, BuildingBlock: KAKCAD_clean_linker_0, # of connection points: 3
#     Node 7, Type 0, BuildingBlock: KAKCAD_clean_linker_0, # of connection points: 3
#     Node 8, Type 0, BuildingBlock: KAKCAD_clean_linker_0, # of connection points: 3
#     Node 9, Type 0, BuildingBlock: KAKCAD_clean_linker_0, # of connection points: 3
#     Node 10, Type 0, BuildingBlock: KAKCAD_clean_linker_0, # of connection points: 3
#     Node 11, Type 0, BuildingBlock: KAKCAD_clean_linker_0, # of connection points: 3
#     Node 12, Type 0, BuildingBlock: KAKCAD_clean_linker_0, # of connection points: 3
#     Node 13, Type 0, BuildingBlock: KAKCAD_clean_linker_0, # of connection points: 3
#     Node 14, Type 0, BuildingBlock: KAKCAD_clean_linker_0, # of connection points: 3
#     Node 15, Type 0, BuildingBlock: KAKCAD_clean_linker_0, # of connection points: 3
#     Node 16, Type 0, BuildingBlock: KAKCAD_clean_linker_0, # of connection points: 3
#     Node 17, Type 0, BuildingBlock: KAKCAD_clean_linker_0, # of connection points: 3
#     Node 18, Type 1, BuildingBlock: KUMBUR_clean_sbu_0, # of connection points: 6
#     Node 19, Type 1, BuildingBlock: KUMBUR_clean_sbu_0, # of connection points: 6
#     Node 20, Type 1, BuildingBlock: KUMBUR_clean_sbu_0, # of connection points: 6
#     Node 21, Type 1, BuildingBlock: KUMBUR_clean_sbu_0, # of connection points: 6
#     Node 22, Type 1, BuildingBlock: KUMBUR_clean_sbu_0, # of connection points: 6
#     Node 23, Type 1, BuildingBlock: KUMBUR_clean_sbu_0, # of connection points: 6
#     Node 24, Type 1, BuildingBlock: KUMBUR_clean_sbu_0, # of connection points: 6
#     Node 25, Type 1, BuildingBlock: KUMBUR_clean_sbu_0, # of connection points: 6
#     Node 26, Type 1, BuildingBlock: KUMBUR_clean_sbu_0, # of connection points: 6
#     Edge 27, Type (0, 1), BuildingBlock: ZUJKAS_clean_linker_0, # of connection points: 2
#     Edge 28, Type (0, 1), BuildingBlock: ZUJKAS_clean_linker_0, # of connection points: 2
#     Edge 29, Type (0, 1), BuildingBlock: ZUJKAS_clean_linker_0, # of connection points: 2
#     Edge 30, Type (0, 1), BuildingBlock: ZUJKAS_clean_linker_0, # of connection points: 2
#     Edge 31, Type (0, 1), BuildingBlock: ZUJKAS_clean_linker_0, # of connection points: 2
#     Edge 32, Type (0, 1), BuildingBlock: ZUJKAS_clean_linker_0, # of connection points: 2
#     Edge 33, Type (0, 1), BuildingBlock: ZUJKAS_clean_linker_0, # of connection points: 2
#     Edge 34, Type (0, 1), BuildingBlock: ZUJKAS_clean_linker_0, # of connection points: 2
#     Edge 35, Type (0, 1), BuildingBlock: ZUJKAS_clean_linker_0, # of connection points: 2
#     Edge 36, Type (0, 1), BuildingBlock: ZUJKAS_clean_linker_0, # of connection points: 2
#     Edge 37, Type (0, 1), BuildingBlock: ZUJKAS_clean_linker_0, # of connection points: 2
#     Edge 38, Type (0, 1), BuildingBlock: ZUJKAS_clean_linker_0, # of connection points: 2
#     Edge 39, Type (0, 1), BuildingBlock: ZUJKAS_clean_linker_0, # of connection points: 2
#     Edge 40, Type (0, 1), BuildingBlock: ZUJKAS_clean_linker_0, # of connection points: 2
#     Edge 41, Type (0, 1), BuildingBlock: ZUJKAS_clean_linker_0, # of connection points: 2
#     Edge 42, Type (0, 1), BuildingBlock: ZUJKAS_clean_linker_0, # of connection points: 2
#     Edge 43, Type (0, 1), BuildingBlock: ZUJKAS_clean_linker_0, # of connection points: 2
#     Edge 44, Type (0, 1), BuildingBlock: ZUJKAS_clean_linker_0, # of connection points: 2
#     Edge 45, Type (0, 1), BuildingBlock: ZUJKAS_clean_linker_0, # of connection points: 2
#     Edge 46, Type (0, 1), BuildingBlock: ZUJKAS_clean_linker_0, # of connection points: 2
#     Edge 47, Type (0, 1), BuildingBlock: ZUJKAS_clean_linker_0, # of connection points: 2
#     Edge 48, Type (0, 1), BuildingBlock: ZUJKAS_clean_linker_0, # of connection points: 2
#     Edge 49, Type (0, 1), BuildingBlock: ZUJKAS_clean_linker_0, # of connection points: 2
#     Edge 50, Type (0, 1), BuildingBlock: ZUJKAS_clean_linker_0, # of connection points: 2
#     Edge 51, Type (0, 1), BuildingBlock: ZUJKAS_clean_linker_0, # of connection points: 2
#     Edge 52, Type (0, 1), BuildingBlock: ZUJKAS_clean_linker_0, # of connection points: 2
#     Edge 53, Type (0, 1), BuildingBlock: ZUJKAS_clean_linker_0, # of connection points: 2
#     Edge 54, Type (0, 1), BuildingBlock: ZUJKAS_clean_linker_0, # of connection points: 2
#     Edge 55, Type (0, 1), BuildingBlock: ZUJKAS_clean_linker_0, # of connection points: 2
#     Edge 56, Type (0, 1), BuildingBlock: ZUJKAS_clean_linker_0, # of connection points: 2
#     Edge 57, Type (0, 1), BuildingBlock: ZUJKAS_clean_linker_0, # of connection points: 2
#     Edge 58, Type (0, 1), BuildingBlock: ZUJKAS_clean_linker_0, # of connection points: 2
#     Edge 59, Type (0, 1), BuildingBlock: ZUJKAS_clean_linker_0, # of connection points: 2
#     Edge 60, Type (0, 1), BuildingBlock: ZUJKAS_clean_linker_0, # of connection points: 2
#     Edge 61, Type (0, 1), BuildingBlock: ZUJKAS_clean_linker_0, # of connection points: 2
#     Edge 62, Type (0, 1), BuildingBlock: ZUJKAS_clean_linker_0, # of connection points: 2
#     Edge 63, Type (0, 1), BuildingBlock: ZUJKAS_clean_linker_0, # of connection points: 2
#     Edge 64, Type (0, 1), BuildingBlock: ZUJKAS_clean_linker_0, # of connection points: 2
#     Edge 65, Type (0, 1), BuildingBlock: ZUJKAS_clean_linker_0, # of connection points: 2
#     Edge 66, Type (0, 1), BuildingBlock: ZUJKAS_clean_linker_0, # of connection points: 2
#     Edge 67, Type (0, 1), BuildingBlock: ZUJKAS_clean_linker_0, # of connection points: 2
#     Edge 68, Type (0, 1), BuildingBlock: ZUJKAS_clean_linker_0, # of connection points: 2
#     Edge 69, Type (0, 1), BuildingBlock: ZUJKAS_clean_linker_0, # of connection points: 2
#     Edge 70, Type (0, 1), BuildingBlock: ZUJKAS_clean_linker_0, # of connection points: 2
#     Edge 71, Type (0, 1), BuildingBlock: ZUJKAS_clean_linker_0, # of connection points: 2
#     Edge 72, Type (0, 1), BuildingBlock: ZUJKAS_clean_linker_0, # of connection points: 2
#     Edge 73, Type (0, 1), BuildingBlock: ZUJKAS_clean_linker_0, # of connection points: 2
#     Edge 74, Type (0, 1), BuildingBlock: ZUJKAS_clean_linker_0, # of connection points: 2
#     Edge 75, Type (0, 1), BuildingBlock: ZUJKAS_clean_linker_0, # of connection points: 2
#     Edge 76, Type (0, 1), BuildingBlock: ZUJKAS_clean_linker_0, # of connection points: 2
#     Edge 77, Type (0, 1), BuildingBlock: ZUJKAS_clean_linker_0, # of connection points: 2
#     Edge 78, Type (0, 1), BuildingBlock: ZUJKAS_clean_linker_0, # of connection points: 2
#     Edge 79, Type (0, 1), BuildingBlock: ZUJKAS_clean_linker_0, # of connection points: 2
#     Edge 80, Type (0, 1), BuildingBlock: ZUJKAS_clean_linker_0, # of connection points: 2
# Relax obj value: 0.010
# Max RMSD: 0.098
# Mean RMSD: 0.055
data_MOF--net-eea--node1-KUMBUR_clean_sbu_0--node2-KAKCAD_clean_linker_0--edge1-ZUJKAS_clean_linker_0
_symmetry_space_group_name_H-M    P1
_symmetry_Int_Tables_number       1
_symmetry_cell_setting            triclinic
loop_
_symmetry_equiv_pos_as_xyz
'x, y, z'
_cell_length_a     78.308619
_cell_length_b     79.677674
_cell_length_c     106.85101
_cell_angle_alpha  90.417778
_cell_angle_beta   90.230773
_cell_angle_gamma 120.0043
loop_
_atom_site_label
_atom_site_type_symbol
_atom_site_fract_x
_atom_site_fract_y
_atom_site_fract_z
_atom_type_partial_charge
C0 C 0.26633 0.14434 0.47976 0.0
C1 C 0.28065 0.13927 0.48276 0.0
C2 C 0.25771 0.14045 0.46782 0.0
C3 C 0.26326 0.13143 0.45861 0.0
C4 C 0.27779 0.12662 0.46158 0.0
C5 C 0.28636 0.13047 0.47351 0.0
C6 C 0.2537 0.12672 0.44604 0.0
C7 C 0.24968 0.13991 0.43986 0.0
C8 C 0.24049 0.13542 0.42801 0.0
C9 C 0.23533 0.1175 0.42236 0.0
C10 C 0.23933 0.10421 0.42835 0.0
C11 C 0.24847 0.10891 0.44018 0.0
C12 C 0.23402 0.08543 0.42219 0.0
C13 C 0.21574 0.07451 0.41605 0.0
C14 C 0.24732 0.07844 0.42227 0.0
C15 C 0.2425 0.06098 0.41626 0.0
C16 C 0.22426 0.05009 0.41007 0.0
C17 C 0.23623 0.14937 0.42148 0.0
C18 C 0.22912 0.15988 0.42814 0.0
C19 C 0.23885 0.15197 0.40848 0.0
C20 C 0.23415 0.1645 0.40225 0.0
C21 C 0.22686 0.17484 0.40889 0.0
C22 C 0.22454 0.17252 0.42191 0.0
C23 C 0.2109 0.05701 0.41007 0.0
H24 H 0.26146 0.15094 0.48672 0.0
H25 H 0.24638 0.14411 0.4659 0.0
H26 H 0.28267 0.11999 0.45464 0.0
H27 H 0.2976 0.12669 0.47546 0.0
H28 H 0.25414 0.15388 0.44416 0.0
H29 H 0.25107 0.09846 0.44499 0.0
H30 H 0.22818 0.11387 0.41325 0.0
H31 H 0.2051 0.07942 0.41593 0.0
H32 H 0.26158 0.08662 0.42684 0.0
H33 H 0.25302 0.05592 0.41655 0.0
H34 H 0.22668 0.15803 0.43813 0.0
H35 H 0.24467 0.14441 0.4031 0.0
H36 H 0.1968 0.04904 0.40529 0.0
H37 H 0.21876 0.18016 0.42725 0.0
H38 H 0.23639 0.16624 0.39224 0.0
C39 C 0.88983 0.15126 0.47462 0.0
C40 C 0.88052 0.13614 0.48324 0.0
C41 C 0.89372 0.14752 0.46245 0.0
C42 C 0.88852 0.12859 0.45866 0.0
C43 C 0.87966 0.11357 0.46742 0.0
C44 C 0.87563 0.11729 0.47954 0.0
C45 C 0.89177 0.12435 0.44554 0.0
C46 C 0.90888 0.13732 0.43902 0.0
C47 C 0.91183 0.13345 0.42658 0.0
C48 C 0.89745 0.11623 0.42073 0.0
C49 C 0.88035 0.103 0.4271 0.0
C50 C 0.87759 0.10728 0.43945 0.0
C51 C 0.86542 0.08463 0.42092 0.0
C52 C 0.85992 0.08437 0.40834 0.0
C53 C 0.85664 0.06714 0.42756 0.0
C54 C 0.84276 0.04981 0.42176 0.0
C55 C 0.83732 0.04952 0.40917 0.0
C56 C 0.92984 0.14739 0.41966 0.0
C57 C 0.93753 0.16748 0.42097 0.0
C58 C 0.9393 0.14072 0.41151 0.0
C59 C 0.95586 0.15379 0.40475 0.0
C60 C 0.96349 0.17388 0.406 0.0
C61 C 0.95417 0.18055 0.41427 0.0
C62 C 0.84603 0.06702 0.40254 0.0
H63 H 0.89361 0.16591 0.47717 0.0
H64 H 0.90033 0.1594 0.45592 0.0
H65 H 0.87584 0.09889 0.46494 0.0
H66 H 0.86874 0.10539 0.48604 0.0
H67 H 0.92013 0.15026 0.44374 0.0
H68 H 0.86409 0.09745 0.44423 0.0
H69 H 0.89955 0.11308 0.41116 0.0
H70 H 0.86624 0.09761 0.403 0.0
H71 H 0.86068 0.06679 0.43722 0.0
H72 H 0.83618 0.03665 0.42719 0.0
H73 H 0.93054 0.17315 0.42705 0.0
H74 H 0.93398 0.12536 0.41039 0.0
H75 H 0.84231 0.06729 0.39279 0.0
H76 H 0.95978 0.19591 0.41564 0.0
H77 H 0.96252 0.14809 0.3984 0.0
C78 C 0.89528 0.7638 0.47909 0.0
C79 C 0.8764 0.7488 0.48244 0.0
C80 C 0.89915 0.7708 0.46682 0.0
C81 C 0.88421 0.7631 0.4576 0.0
C82 C 0.86539 0.7481 0.46093 0.0
C83 C 0.86156 0.74099 0.47314 0.0
C84 C 0.88812 0.77061 0.44456 0.0
C85 C 0.90529 0.77394 0.4383 0.0
C86 C 0.90873 0.78039 0.42584 0.0
C87 C 0.89458 0.78342 0.41965 0.0
C88 C 0.87736 0.78044 0.42575 0.0
C89 C 0.87443 0.77414 0.43826 0.0
C90 C 0.86245 0.7839 0.41915 0.0
C91 C 0.86824 0.79848 0.41005 0.0
C92 C 0.84222 0.77273 0.42195 0.0
C93 C 0.82835 0.77632 0.4161 0.0
C94 C 0.83424 0.7908 0.40706 0.0
C95 C 0.92706 0.78392 0.41929 0.0
C96 C 0.94531 0.79261 0.42566 0.0
C97 C 0.92652 0.77874 0.4066 0.0
C98 C 0.94374 0.7822 0.40047 0.0
C99 C 0.96197 0.79085 0.40685 0.0
C100 C 0.96251 0.796 0.41953 0.0
C101 C 0.85427 0.80172 0.40398 0.0
H102 H 0.90703 0.7704 0.48599 0.0
H103 H 0.91376 0.7825 0.46459 0.0
H104 H 0.85364 0.74162 0.45401 0.0
H105 H 0.84697 0.72915 0.47523 0.0
H106 H 0.91571 0.77094 0.44304 0.0
H107 H 0.86164 0.77231 0.44328 0.0
H108 H 0.89706 0.78815 0.41002 0.0
H109 H 0.88362 0.8077 0.40775 0.0
H110 H 0.83695 0.76105 0.42861 0.0
H111 H 0.81294 0.7676 0.41854 0.0
H112 H 0.94639 0.7971 0.43536 0.0
H113 H 0.91272 0.77172 0.40143 0.0
H114 H 0.85915 0.81308 0.39709 0.0
H115 H 0.97632 0.80295 0.4247 0.0
H116 H 0.94271 0.77778 0.39075 0.0
C117 C 0.13514 0.24002 0.54021 0.0
C118 C 0.13099 0.25462 0.53672 0.0
C119 C 0.13126 0.23255 0.55235 0.0
C120 C 0.12312 0.23947 0.56134 0.0
C121 C 0.11883 0.25396 0.55782 0.0
C122 C 0.12271 0.26143 0.54568 0.0
C123 C 0.11931 0.23173 0.57435 0.0
C124 C 0.13296 0.22798 0.58051 0.0
C125 C 0.1296 0.22067 0.59276 0.0
C126 C 0.11224 0.21716 0.59888 0.0
C127 C 0.0984 0.22089 0.59295 0.0
C128 C 0.10209 0.22815 0.58068 0.0
C129 C 0.08008 0.21721 0.59956 0.0
C130 C 0.06937 0.20052 0.60683 0.0
C131 C 0.07316 0.2304 0.59865 0.0
C132 C 0.05598 0.22698 0.60481 0.0
C133 C 0.0452 0.21025 0.61204 0.0
C134 C 0.14434 0.21689 0.59917 0.0
C135 C 0.15406 0.20884 0.59251 0.0
C136 C 0.14898 0.22146 0.61193 0.0
C137 C 0.16305 0.2182 0.61785 0.0
C138 C 0.1729 0.21035 0.61115 0.0
C139 C 0.16815 0.20565 0.59842 0.0
C140 C 0.05216 0.19708 0.61298 0.0
H141 H 0.14121 0.23418 0.53352 0.0
H142 H 0.13445 0.22118 0.55465 0.0
H143 H 0.11283 0.25984 0.56453 0.0
H144 H 0.1196 0.27286 0.54341 0.0
H145 H 0.14654 0.23127 0.57586 0.0
H146 H 0.09128 0.23056 0.57592 0.0
H147 H 0.1095 0.21155 0.60831 0.0
H148 H 0.07409 0.1899 0.6076 0.0
H149 H 0.08119 0.24356 0.59331 0.0
H150 H 0.05131 0.23763 0.60403 0.0
H151 H 0.15063 0.20481 0.58274 0.0
H152 H 0.14204 0.22794 0.61732 0.0
H153 H 0.04412 0.1839 0.6183 0.0
H154 H 0.17519 0.19927 0.59302 0.0
H155 H 0.16651 0.22222 0.62762 0.0
C156 C 0.72271 0.84652 0.54456 0.0
C157 C 0.72786 0.86129 0.53575 0.0
C158 C 0.73108 0.85084 0.55657 0.0
C159 C 0.74478 0.87005 0.56005 0.0
C160 C 0.74995 0.8848 0.55123 0.0
C161 C 0.74157 0.88048 0.53925 0.0
C162 C 0.75378 0.87476 0.57279 0.0
C163 C 0.75991 0.86283 0.57853 0.0
C164 C 0.76894 0.86752 0.59042 0.0
C165 C 0.77209 0.88457 0.59647 0.0
C166 C 0.766 0.8967 0.59094 0.0
C167 C 0.75661 0.89147 0.57916 0.0
C168 C 0.7698 0.91498 0.59735 0.0
C169 C 0.76935 0.91616 0.61048 0.0
C170 C 0.77433 0.93159 0.59037 0.0
C171 C 0.77832 0.94884 0.59634 0.0
C172 C 0.77839 0.95018 0.60949 0.0
C173 C 0.77504 0.85462 0.59656 0.0
C174 C 0.76291 0.83436 0.59585 0.0
C175 C 0.79279 0.86245 0.60344 0.0
C176 C 0.79809 0.85033 0.60965 0.0
C177 C 0.78585 0.83011 0.60902 0.0
C178 C 0.76829 0.82224 0.60197 0.0
C179 C 0.77381 0.93355 0.61646 0.0
H180 H 0.71234 0.83156 0.54213 0.0
H181 H 0.72666 0.83916 0.56317 0.0
H182 H 0.76063 0.89971 0.55355 0.0
H183 H 0.74569 0.89226 0.53276 0.0
H184 H 0.75814 0.85013 0.57358 0.0
H185 H 0.7512 0.90027 0.57496 0.0
H186 H 0.77934 0.88839 0.60554 0.0
H187 H 0.76556 0.90364 0.61621 0.0
H188 H 0.77513 0.93145 0.58027 0.0
H189 H 0.78134 0.96113 0.59058 0.0
H190 H 0.749 0.82785 0.59079 0.0
H191 H 0.80269 0.87796 0.60399 0.0
H192 H 0.77393 0.93395 0.62659 0.0
H193 H 0.75847 0.8067 0.60144 0.0
H194 H 0.81186 0.85678 0.61486 0.0
C195 C 0.10974 0.85861 0.54062 0.0
C196 C 0.12877 0.86265 0.53727 0.0
C197 C 0.10589 0.86229 0.55282 0.0
C198 C 0.12102 0.8702 0.5619 0.0
C199 C 0.14 0.87414 0.55855 0.0
C200 C 0.14383 0.8704 0.5464 0.0
C201 C 0.11718 0.87462 0.57479 0.0
C202 C 0.10004 0.86147 0.58119 0.0
C203 C 0.09661 0.86548 0.59347 0.0
C204 C 0.11053 0.88294 0.5993 0.0
C205 C 0.12767 0.89634 0.59304 0.0
C206 C 0.13082 0.89204 0.58078 0.0
C207 C 0.14225 0.91486 0.59926 0.0
C208 C 0.13595 0.92535 0.60669 0.0
C209 C 0.16262 0.92223 0.59779 0.0
C210 C 0.17632 0.9397 0.60353 0.0
C211 C 0.16999 0.95016 0.61094 0.0
C212 C 0.07855 0.85146 0.60026 0.0
C213 C 0.06009 0.84217 0.59417 0.0
C214 C 0.0796 0.84747 0.61295 0.0
C215 C 0.06258 0.83463 0.61942 0.0
C216 C 0.04409 0.82545 0.61336 0.0
C217 C 0.04307 0.82933 0.60064 0.0
C218 C 0.14966 0.94277 0.61249 0.0
H219 H 0.09778 0.85248 0.53384 0.0
H220 H 0.09114 0.85922 0.55508 0.0
H221 H 0.15193 0.88004 0.56536 0.0
H222 H 0.1587 0.87388 0.54411 0.0
H223 H 0.08963 0.84784 0.57673 0.0
H224 H 0.14374 0.9025 0.57575 0.0
H225 H 0.10798 0.8861 0.60877 0.0
H226 H 0.12039 0.92028 0.60786 0.0
H227 H 0.168 0.91437 0.59231 0.0
H228 H 0.19189 0.94488 0.6023 0.0
H229 H 0.05875 0.84512 0.58444 0.0
H230 H 0.09363 0.85413 0.61787 0.0
H231 H 0.14432 0.95064 0.618 0.0
H232 H 0.02904 0.82272 0.59573 0.0
H233 H 0.06396 0.83171 0.62915 0.0
C234 C 0.93328 0.47828 0.81285 0.0
C235 C 0.94781 0.4735 0.81591 0.0
C236 C 0.92477 0.47431 0.80089 0.0
C237 C 0.93052 0.46541 0.79174 0.0
C238 C 0.94524 0.46088 0.79475 0.0
C239 C 0.9538 0.4649 0.80669 0.0
C240 C 0.92079 0.46032 0.77922 0.0
C241 C 0.91682 0.47338 0.77283 0.0
C242 C 0.90703 0.46838 0.76115 0.0
C243 C 0.90128 0.45003 0.75593 0.0
C244 C 0.90547 0.43696 0.76206 0.0
C245 C 0.91517 0.4422 0.77371 0.0
C246 C 0.89988 0.41793 0.75619 0.0
C247 C 0.8814 0.40681 0.75032 0.0
C248 C 0.9132 0.41096 0.75616 0.0
C249 C 0.90825 0.39339 0.75024 0.0
C250 C 0.88985 0.38237 0.74425 0.0
C251 C 0.90276 0.48221 0.75438 0.0
C252 C 0.89782 0.49453 0.76096 0.0
C253 C 0.90325 0.48297 0.74122 0.0
C254 C 0.89842 0.49527 0.73482 0.0
C255 C 0.8934 0.50754 0.74138 0.0
C256 C 0.89339 0.50714 0.75455 0.0
C257 C 0.87643 0.38922 0.74442 0.0
H258 H 0.92849 0.4851 0.81971 0.0
H259 H 0.91336 0.47784 0.79889 0.0
H260 H 0.95014 0.45419 0.78786 0.0
H261 H 0.96482 0.46087 0.80877 0.0
H262 H 0.92177 0.4876 0.77687 0.0
H263 H 0.91787 0.43192 0.77866 0.0
H264 H 0.89356 0.44585 0.74702 0.0
H265 H 0.87073 0.41169 0.7503 0.0
H266 H 0.92762 0.41927 0.76052 0.0
H267 H 0.91882 0.3884 0.7504 0.0
H268 H 0.89706 0.49427 0.77107 0.0
H269 H 0.90738 0.47405 0.73579 0.0
H270 H 0.8622 0.38115 0.73981 0.0
H271 H 0.88999 0.5166 0.75999 0.0
H272 H 0.89837 0.49487 0.72469 0.0
C273 C 0.55401 0.48563 0.80767 0.0
C274 C 0.54635 0.47103 0.81675 0.0
C275 C 0.55776 0.48165 0.79554 0.0
C276 C 0.55386 0.46296 0.79218 0.0
C277 C 0.5464 0.44841 0.8013 0.0
C278 C 0.5427 0.4524 0.81344 0.0
C279 C 0.55723 0.45851 0.77917 0.0
C280 C 0.57422 0.4716 0.77262 0.0
C281 C 0.57744 0.46744 0.76032 0.0
C282 C 0.56336 0.44996 0.75459 0.0
C283 C 0.54628 0.43669 0.76098 0.0
C284 C 0.54336 0.44112 0.77325 0.0
C285 C 0.53152 0.4182 0.75484 0.0
C286 C 0.5261 0.41779 0.74223 0.0
C287 C 0.52279 0.40077 0.76154 0.0
C288 C 0.50903 0.38336 0.75576 0.0
C289 C 0.50366 0.38294 0.74314 0.0
C290 C 0.59554 0.48127 0.75346 0.0
C291 C 0.60275 0.50134 0.75421 0.0
C292 C 0.60565 0.47449 0.74601 0.0
C293 C 0.62249 0.48744 0.73943 0.0
C294 C 0.62967 0.5075 0.74016 0.0
C295 C 0.61962 0.5143 0.74765 0.0
C296 C 0.51234 0.40038 0.73645 0.0
H297 H 0.55719 0.50018 0.80995 0.0
H298 H 0.56337 0.49315 0.78871 0.0
H299 H 0.54344 0.43391 0.79907 0.0
H300 H 0.53662 0.44076 0.82015 0.0
H301 H 0.58521 0.48481 0.77722 0.0
H302 H 0.52997 0.43121 0.77811 0.0
H303 H 0.5657 0.44664 0.74512 0.0
H304 H 0.53238 0.43099 0.73683 0.0
H305 H 0.52676 0.40054 0.77123 0.0
H306 H 0.50248 0.37024 0.76123 0.0
H307 H 0.59516 0.50704 0.7597 0.0
H308 H 0.60071 0.45915 0.74539 0.0
H309 H 0.50868 0.40055 0.72668 0.0
H310 H 0.62461 0.52964 0.74828 0.0
H311 H 0.63006 0.48174 0.73392 0.0
C312 C 0.56139 0.09463 0.81256 0.0
C313 C 0.54247 0.07962 0.81577 0.0
C314 C 0.56531 0.10209 0.80041 0.0
C315 C 0.55038 0.09481 0.79118 0.0
C316 C 0.53146 0.07983 0.79441 0.0
C317 C 0.52757 0.07231 0.80652 0.0
C318 C 0.55445 0.1028 0.77825 0.0
C319 C 0.57193 0.10678 0.77212 0.0
C320 C 0.57577 0.11405 0.75984 0.0
C321 C 0.56173 0.11732 0.75373 0.0
C322 C 0.54412 0.11347 0.75967 0.0
C323 C 0.54072 0.10628 0.77195 0.0
C324 C 0.52923 0.11683 0.75306 0.0
C325 C 0.53513 0.13291 0.74523 0.0
C326 C 0.50892 0.10394 0.75454 0.0
C327 C 0.49493 0.10709 0.74845 0.0
C328 C 0.5008 0.12315 0.7406 0.0
C329 C 0.59431 0.11801 0.75338 0.0
C330 C 0.61236 0.12617 0.75995 0.0
C331 C 0.59412 0.11363 0.74057 0.0
C332 C 0.61147 0.1173 0.73453 0.0
C333 C 0.62952 0.12538 0.74111 0.0
C334 C 0.6297 0.12978 0.75391 0.0
C335 C 0.52112 0.136 0.73907 0.0
H336 H 0.57325 0.10049 0.81941 0.0
H337 H 0.58 0.11372 0.79829 0.0
H338 H 0.51966 0.07375 0.78751 0.0
H339 H 0.51279 0.06089 0.80868 0.0
H340 H 0.58232 0.10366 0.77679 0.0
H341 H 0.52751 0.10376 0.77677 0.0
H342 H 0.5645 0.12284 0.74428 0.0
H343 H 0.55061 0.1433 0.74395 0.0
H344 H 0.50375 0.09125 0.76034 0.0
H345 H 0.47946 0.097 0.75004 0.0
H346 H 0.61316 0.12995 0.76978 0.0
H347 H 0.5805 0.10712 0.73522 0.0
H348 H 0.52627 0.14841 0.73301 0.0
H349 H 0.64322 0.13579 0.75935 0.0
H350 H 0.61073 0.11392 0.72464 0.0
C351 C 0.79986 0.57093 0.87345 0.0
C352 C 0.79526 0.5851 0.86965 0.0
C353 C 0.79617 0.56388 0.88569 0.0
C354 C 0.78776 0.57079 0.89449 0.0
C355 C 0.78294 0.58478 0.89066 0.0
C356 C 0.78664 0.59184 0.87842 0.0
C357 C 0.78443 0.56375 0.90767 0.0
C358 C 0.79865 0.56106 0.91398 0.0
C359 C 0.79592 0.55475 0.92645 0.0
C360 C 0.77872 0.55146 0.93271 0.0
C361 C 0.76411 0.5539 0.9266 0.0
C362 C 0.76715 0.55992 0.91401 0.0
C363 C 0.74571 0.55014 0.93329 0.0
C364 C 0.73727 0.53579 0.94257 0.0
C365 C 0.73633 0.56084 0.93043 0.0
C366 C 0.71894 0.55708 0.93646 0.0
C367 C 0.71073 0.54288 0.94573 0.0
C368 C 0.81102 0.55153 0.93288 0.0
C369 C 0.82045 0.54305 0.92637 0.0
C370 C 0.81618 0.55686 0.94552 0.0
C371 C 0.83044 0.55389 0.95144 0.0
C372 C 0.83997 0.54558 0.94487 0.0
C373 C 0.83474 0.54016 0.93227 0.0
C374 C 0.72014 0.53239 0.94881 0.0
H375 H 0.80619 0.56513 0.86692 0.0
H376 H 0.79979 0.55289 0.88824 0.0
H377 H 0.7767 0.59064 0.89722 0.0
H378 H 0.78317 0.60295 0.87591 0.0
H379 H 0.81218 0.56437 0.90925 0.0
H380 H 0.75585 0.56124 0.90899 0.0
H381 H 0.77674 0.54691 0.94237 0.0
H382 H 0.74366 0.5269 0.94491 0.0
H383 H 0.74246 0.57232 0.92361 0.0
H384 H 0.71204 0.56549 0.93401 0.0
H385 H 0.81662 0.5384 0.91671 0.0
H386 H 0.80946 0.56367 0.95079 0.0
H387 H 0.71397 0.52124 0.95586 0.0
H388 H 0.84152 0.53341 0.92698 0.0
H389 H 0.83427 0.55845 0.96111 0.0
C390 C 0.39225 0.18307 0.87798 0.0
C391 C 0.39921 0.19763 0.86888 0.0
C392 C 0.40037 0.18714 0.89006 0.0
C393 C 0.41554 0.20587 0.8933 0.0
C394 C 0.42267 0.22035 0.88415 0.0
C395 C 0.41463 0.21627 0.87207 0.0
C396 C 0.42358 0.21043 0.90627 0.0
C397 C 0.42784 0.19765 0.91275 0.0
C398 C 0.43529 0.20184 0.92508 0.0
C399 C 0.43828 0.21898 0.93092 0.0
C400 C 0.43426 0.23197 0.92455 0.0
C401 C 0.42693 0.2276 0.91224 0.0
C402 C 0.43793 0.25023 0.93072 0.0
C403 C 0.43203 0.25022 0.94312 0.0
C404 C 0.4476 0.26785 0.92428 0.0
C405 C 0.45145 0.28513 0.93015 0.0
C406 C 0.4456 0.28517 0.94258 0.0
C407 C 0.44027 0.18852 0.93179 0.0
C408 C 0.42812 0.1683 0.93064 0.0
C409 C 0.45725 0.19597 0.93941 0.0
C410 C 0.46192 0.18352 0.94578 0.0
C411 C 0.4498 0.16334 0.94461 0.0
C412 C 0.43288 0.15585 0.93695 0.0
C413 C 0.43578 0.26749 0.94898 0.0
H414 H 0.38052 0.16852 0.87577 0.0
H415 H 0.39447 0.17571 0.89693 0.0
H416 H 0.4345 0.23488 0.88634 0.0
H417 H 0.4202 0.22784 0.8653 0.0
H418 H 0.42586 0.18469 0.90804 0.0
H419 H 0.42336 0.23738 0.90739 0.0
H420 H 0.44389 0.22231 0.94044 0.0
H421 H 0.42431 0.23681 0.94826 0.0
H422 H 0.45255 0.26834 0.91477 0.0
H423 H 0.45934 0.29851 0.92502 0.0
H424 H 0.41478 0.16208 0.92501 0.0
H425 H 0.46715 0.21145 0.94032 0.0
H426 H 0.43078 0.26694 0.95848 0.0
H427 H 0.42315 0.14035 0.93598 0.0
H428 H 0.47521 0.18971 0.95147 0.0
C429 C 0.77705 0.19317 0.87309 0.0
C430 C 0.79635 0.19823 0.86965 0.0
C431 C 0.773 0.19666 0.88528 0.0
C432 C 0.78817 0.20526 0.89432 0.0
C433 C 0.8074 0.21006 0.8909 0.0
C434 C 0.81144 0.20662 0.87873 0.0
C435 C 0.78411 0.20944 0.90723 0.0
C436 C 0.76703 0.19604 0.91358 0.0
C437 C 0.76345 0.19984 0.92588 0.0
C438 C 0.77717 0.2173 0.9318 0.0
C439 C 0.79427 0.23093 0.9256 0.0
C440 C 0.79753 0.22689 0.9133 0.0
C441 C 0.80876 0.24937 0.93194 0.0
C442 C 0.80238 0.25969 0.93948 0.0
C443 C 0.82914 0.25684 0.93046 0.0
C444 C 0.84278 0.27424 0.93629 0.0
C445 C 0.83639 0.28456 0.9438 0.0
C446 C 0.74543 0.18558 0.9326 0.0
C447 C 0.727 0.17622 0.92647 0.0
C448 C 0.74647 0.18142 0.94525 0.0
C449 C 0.72949 0.16834 0.95165 0.0
C450 C 0.71102 0.15909 0.94556 0.0
C451 C 0.71 0.16315 0.93288 0.0
C452 C 0.81604 0.27705 0.94537 0.0
H453 H 0.76512 0.18685 0.86628 0.0
H454 H 0.75807 0.19298 0.88755 0.0
H455 H 0.81936 0.21634 0.89768 0.0
H456 H 0.82639 0.21033 0.87648 0.0
H457 H 0.7568 0.18239 0.90908 0.0
H458 H 0.81038 0.23756 0.90832 0.0
H459 H 0.77454 0.22027 0.94129 0.0
H460 H 0.78681 0.25452 0.94067 0.0
H461 H 0.83459 0.24911 0.9249 0.0
H462 H 0.85836 0.2795 0.93506 0.0
H463 H 0.72565 0.17929 0.91677 0.0
H464 H 0.76048 0.18814 0.9502 0.0
H465 H 0.81065 0.28479 0.95097 0.0
H466 H 0.69599 0.1565 0.92794 0.0
H467 H 0.73087 0.16529 0.96135 0.0
C468 C 0.59712 0.81059 0.14629 0.0
C469 C 0.61229 0.8067 0.14931 0.0
C470 C 0.58876 0.80658 0.13427 0.0
C471 C 0.59534 0.79852 0.12504 0.0
C472 C 0.61058 0.79474 0.12805 0.0
C473 C 0.61895 0.79879 0.14004 0.0
C474 C 0.58628 0.7939 0.11232 0.0
C475 C 0.58203 0.8069 0.10612 0.0
C476 C 0.57387 0.80273 0.09399 0.0
C477 C 0.56985 0.78531 0.08809 0.0
C478 C 0.5737 0.77198 0.0942 0.0
C479 C 0.58194 0.77643 0.10631 0.0
C480 C 0.56895 0.75336 0.08798 0.0
C481 C 0.55153 0.74291 0.08087 0.0
C482 C 0.58178 0.74588 0.08911 0.0
C483 C 0.57727 0.72836 0.08329 0.0
C484 C 0.55989 0.71799 0.07615 0.0
C485 C 0.5694 0.81646 0.08745 0.0
C486 C 0.55948 0.82463 0.09366 0.0
C487 C 0.57459 0.8211 0.07486 0.0
C488 C 0.5698 0.83352 0.06856 0.0
C489 C 0.55958 0.84149 0.07469 0.0
C490 C 0.55455 0.83695 0.08734 0.0
C491 C 0.54709 0.72546 0.07498 0.0
H492 H 0.59177 0.81684 0.15319 0.0
H493 H 0.57695 0.80953 0.13227 0.0
H494 H 0.61612 0.78874 0.12111 0.0
H495 H 0.63047 0.79543 0.14209 0.0
H496 H 0.58557 0.82053 0.11059 0.0
H497 H 0.58454 0.76606 0.11122 0.0
H498 H 0.56361 0.78209 0.07872 0.0
H499 H 0.54114 0.74806 0.07998 0.0
H500 H 0.59547 0.75369 0.09435 0.0
H501 H 0.58753 0.72306 0.08422 0.0
H502 H 0.55509 0.82112 0.10332 0.0
H503 H 0.58249 0.81521 0.06989 0.0
H504 H 0.53345 0.71765 0.06969 0.0
H505 H 0.54642 0.84257 0.09231 0.0
H506 H 0.57426 0.837 0.05891 0.0
C507 C 0.22386 0.8184 0.14184 0.0
C508 C 0.21442 0.80337 0.15053 0.0
C509 C 0.22765 0.81452 0.12969 0.0
C510 C 0.22216 0.79551 0.12592 0.0
C511 C 0.21315 0.78056 0.13471 0.0
C512 C 0.20929 0.78442 0.14684 0.0
C513 C 0.22516 0.79121 0.11277 0.0
C514 C 0.24236 0.80396 0.10625 0.0
C515 C 0.24489 0.80045 0.09363 0.0
C516 C 0.22993 0.78367 0.08765 0.0
C517 C 0.21292 0.77047 0.09411 0.0
C518 C 0.2106 0.77445 0.10661 0.0
C519 C 0.19767 0.75234 0.08787 0.0
C520 C 0.19146 0.75255 0.07554 0.0
C521 C 0.18945 0.7346 0.09418 0.0
C522 C 0.17544 0.71744 0.08828 0.0
C523 C 0.16924 0.71759 0.07593 0.0
C524 C 0.2631 0.81424 0.08672 0.0
C525 C 0.27269 0.83431 0.08928 0.0
C526 C 0.27105 0.8075 0.07744 0.0
C527 C 0.28788 0.82045 0.07084 0.0
C528 C 0.29742 0.84034 0.07357 0.0
C529 C 0.28978 0.84717 0.08288 0.0
C530 C 0.17738 0.73538 0.06964 0.0
H531 H 0.22829 0.83321 0.14439 0.0
H532 H 0.23446 0.82638 0.12316 0.0
H533 H 0.20897 0.76579 0.1322 0.0
H534 H 0.20184 0.77244 0.15322 0.0
H535 H 0.25396 0.81645 0.11114 0.0
H536 H 0.19713 0.76467 0.11144 0.0
H537 H 0.23149 0.78075 0.07794 0.0
H538 H 0.19733 0.76603 0.07049 0.0
H539 H 0.19415 0.73391 0.10361 0.0
H540 H 0.16976 0.70398 0.09333 0.0
H541 H 0.2669 0.84019 0.09613 0.0
H542 H 0.26447 0.79218 0.07534 0.0
H543 H 0.17272 0.73609 0.0602 0.0
H544 H 0.2969 0.86252 0.08506 0.0
H545 H 0.29368 0.8149 0.06375 0.0
C546 C 0.22729 0.4279 0.14614 0.0
C547 C 0.20835 0.41295 0.14937 0.0
C548 C 0.23121 0.43538 0.134 0.0
C549 C 0.21625 0.4282 0.12479 0.0
C550 C 0.19731 0.41329 0.12803 0.0
C551 C 0.19342 0.40574 0.14014 0.0
C552 C 0.22033 0.43619 0.11185 0.0
C553 C 0.23779 0.44011 0.10571 0.0
C554 C 0.24165 0.4474 0.09345 0.0
C555 C 0.22765 0.45073 0.08733 0.0
C556 C 0.21006 0.44692 0.09327 0.0
C557 C 0.20664 0.43973 0.10556 0.0
C558 C 0.19519 0.45033 0.08666 0.0
C559 C 0.20112 0.46641 0.07882 0.0
C560 C 0.17487 0.4375 0.08816 0.0
C561 C 0.1609 0.4407 0.08208 0.0
C562 C 0.16681 0.45675 0.07422 0.0
C563 C 0.26019 0.45131 0.08699 0.0
C564 C 0.27821 0.45934 0.09359 0.0
C565 C 0.26003 0.447 0.07417 0.0
C566 C 0.27737 0.45059 0.06814 0.0
C567 C 0.29538 0.45853 0.07476 0.0
C568 C 0.29554 0.46286 0.08757 0.0
C569 C 0.18714 0.46954 0.07266 0.0
H570 H 0.23919 0.43368 0.15297 0.0
H571 H 0.24592 0.44696 0.13186 0.0
H572 H 0.18548 0.40728 0.12115 0.0
H573 H 0.17862 0.39438 0.14231 0.0
H574 H 0.24813 0.43692 0.11038 0.0
H575 H 0.19345 0.43726 0.11038 0.0
H576 H 0.23044 0.45626 0.07789 0.0
H577 H 0.21661 0.47675 0.07752 0.0
H578 H 0.16967 0.42483 0.09398 0.0
H579 H 0.14543 0.43066 0.08369 0.0
H580 H 0.279 0.46306 0.10342 0.0
H581 H 0.24643 0.44059 0.06879 0.0
H582 H 0.19232 0.48194 0.06659 0.0
H583 H 0.30903 0.46875 0.09304 0.0
H584 H 0.27665 0.44727 0.05825 0.0
C585 C 0.46981 0.90746 0.20666 0.0
C586 C 0.4642 0.92081 0.2027 0.0
C587 C 0.46587 0.90018 0.21883 0.0
C588 C 0.45636 0.90618 0.22744 0.0
C589 C 0.45065 0.91947 0.22343 0.0
C590 C 0.45445 0.92663 0.21121 0.0
C591 C 0.4526 0.89873 0.24055 0.0
C592 C 0.46654 0.89563 0.24692 0.0
C593 C 0.46319 0.88844 0.2592 0.0
C594 C 0.44567 0.88465 0.26521 0.0
C595 C 0.43154 0.88777 0.2591 0.0
C596 C 0.43513 0.8947 0.24674 0.0
C597 C 0.41304 0.88381 0.2656 0.0
C598 C 0.40292 0.86755 0.27333 0.0
C599 C 0.40536 0.89633 0.26417 0.0
C600 C 0.38806 0.89269 0.27027 0.0
C601 C 0.37797 0.87645 0.27801 0.0
C602 C 0.47803 0.88489 0.26568 0.0
C603 C 0.48791 0.87696 0.25909 0.0
C604 C 0.48255 0.88946 0.27846 0.0
C605 C 0.49665 0.88631 0.28444 0.0
C606 C 0.50666 0.87858 0.27779 0.0
C607 C 0.50204 0.87388 0.26505 0.0
C608 C 0.38565 0.86395 0.27947 0.0
H609 H 0.47708 0.90245 0.20028 0.0
H610 H 0.47013 0.88968 0.22145 0.0
H611 H 0.44358 0.92468 0.22981 0.0
H612 H 0.45014 0.93707 0.2085 0.0
H613 H 0.48032 0.89926 0.24242 0.0
H614 H 0.42405 0.89651 0.24182 0.0
H615 H 0.44301 0.87923 0.27469 0.0
H616 H 0.40818 0.85741 0.27451 0.0
H617 H 0.41289 0.90916 0.25847 0.0
H618 H 0.38276 0.9028 0.26908 0.0
H619 H 0.48457 0.87291 0.24931 0.0
H620 H 0.47546 0.89584 0.28381 0.0
H621 H 0.37813 0.85116 0.2852 0.0
H622 H 0.50918 0.86759 0.25968 0.0
H623 H 0.50001 0.89032 0.29423 0.0
C624 C 0.05374 0.51412 0.2121 0.0
C625 C 0.06056 0.52874 0.20304 0.0
C626 C 0.06195 0.51816 0.22416 0.0
C627 C 0.07703 0.53693 0.22742 0.0
C628 C 0.08376 0.55155 0.21837 0.0
C629 C 0.07565 0.54749 0.20632 0.0
C630 C 0.08599 0.54134 0.24015 0.0
C631 C 0.09126 0.52877 0.24592 0.0
C632 C 0.10084 0.5335 0.25762 0.0
C633 C 0.1051 0.55096 0.26356 0.0
C634 C 0.09954 0.56354 0.2581 0.0
C635 C 0.08988 0.55849 0.2464 0.0
C636 C 0.10404 0.582 0.26455 0.0
C637 C 0.10372 0.58313 0.27769 0.0
C638 C 0.10893 0.59875 0.25763 0.0
C639 C 0.11329 0.61607 0.26366 0.0
C640 C 0.11336 0.61731 0.27681 0.0
C641 C 0.10658 0.52031 0.26365 0.0
C642 C 0.0932 0.50031 0.26417 0.0
C643 C 0.12534 0.52771 0.26915 0.0
C644 C 0.13056 0.51539 0.27514 0.0
C645 C 0.11711 0.49539 0.27582 0.0
C646 C 0.09838 0.48799 0.27022 0.0
C647 C 0.10853 0.60057 0.28373 0.0
H648 H 0.04221 0.4995 0.20982 0.0
H649 H 0.05639 0.50663 0.23096 0.0
H650 H 0.09551 0.5661 0.22057 0.0
H651 H 0.08107 0.55911 0.19959 0.0
H652 H 0.08853 0.51562 0.24111 0.0
H653 H 0.08509 0.56776 0.24215 0.0
H654 H 0.1128 0.55471 0.27249 0.0
H655 H 0.09968 0.57052 0.28337 0.0
H656 H 0.10965 0.59863 0.24751 0.0
H657 H 0.11653 0.62845 0.25794 0.0
H658 H 0.07855 0.49425 0.26013 0.0
H659 H 0.13607 0.54303 0.26873 0.0
H660 H 0.10867 0.6009 0.29386 0.0
H661 H 0.08756 0.47271 0.27072 0.0
H662 H 0.14524 0.52153 0.27914 0.0
C663 C 0.44449 0.52493 0.20637 0.0
C664 C 0.46383 0.53006 0.20299 0.0
C665 C 0.44035 0.5284 0.21855 0.0
C666 C 0.45546 0.53704 0.22761 0.0
C667 C 0.47472 0.54184 0.22426 0.0
C668 C 0.47885 0.53842 0.21211 0.0
C669 C 0.45136 0.54138 0.24047 0.0
C670 C 0.43426 0.52807 0.24684 0.0
C671 C 0.43062 0.53205 0.25909 0.0
C672 C 0.44431 0.54962 0.26492 0.0
C673 C 0.46141 0.56316 0.25869 0.0
C674 C 0.46473 0.55893 0.24645 0.0
C675 C 0.47583 0.58174 0.26492 0.0
C676 C 0.46935 0.59212 0.27232 0.0
C677 C 0.49623 0.58929 0.26348 0.0
C678 C 0.50979 0.60682 0.26922 0.0
C679 C 0.5033 0.61718 0.27659 0.0
C680 C 0.41257 0.5179 0.26584 0.0
C681 C 0.39417 0.50842 0.25969 0.0
C682 C 0.41358 0.51402 0.27856 0.0
C683 C 0.39657 0.50111 0.285 0.0
C684 C 0.37811 0.49176 0.2789 0.0
C685 C 0.37714 0.49552 0.26615 0.0
C686 C 0.48293 0.6096 0.27811 0.0
H687 H 0.43261 0.51863 0.19953 0.0
H688 H 0.4254 0.52471 0.22078 0.0
H689 H 0.48664 0.54814 0.23107 0.0
H690 H 0.49382 0.54218 0.2099 0.0
H691 H 0.42405 0.51434 0.24241 0.0
H692 H 0.47759 0.56954 0.24145 0.0
H693 H 0.44162 0.55274 0.27436 0.0
H694 H 0.45376 0.58691 0.27347 0.0
H695 H 0.50175 0.58152 0.25804 0.0
H696 H 0.5254 0.61213 0.26802 0.0
H697 H 0.39285 0.51129 0.24995 0.0
H698 H 0.42758 0.52083 0.28352 0.0
H699 H 0.47747 0.61738 0.2836 0.0
H700 H 0.36314 0.48878 0.26119 0.0
H701 H 0.39792 0.49829 0.29475 0.0
Tb702 Tb 0.49385 0.988 0.99482 0.0
C703 C 0.53828 0.05981 0.0292 0.0
C704 C 0.5726 0.06875 0.02805 0.0
C705 C 0.56377 0.09349 0.03213 0.0
C706 C 0.55241 0.05468 0.02725 0.0
C707 C 0.54371 0.0792 0.03189 0.0
C708 C 0.5782 0.08826 0.03022 0.0
C709 C 0.50925 0.06858 0.03493 0.0
N710 N 0.51916 0.04553 0.02905 0.0
C711 C 0.50465 0.04953 0.03232 0.0
C712 C 0.52886 0.08353 0.03459 0.0
Tb713 Tb 0.51287 0.01484 0.02417 0.0
N714 N 0.54633 0.03567 0.0253 0.0
C715 C 0.55988 0.0296 0.0249 0.0
C716 C 0.5865 0.0627 0.02702 0.0
C717 C 0.58009 0.04301 0.02557 0.0
H718 H 0.48943 0.03814 0.03255 0.0
H719 H 0.59071 0.03813 0.02495 0.0
H720 H 0.59364 0.09932 0.03074 0.0
H721 H 0.49767 0.07171 0.03721 0.0
H722 H 0.55532 0.01449 0.02374 0.0
H723 H 0.41604 0.96489 0.99457 0.0
H724 H 0.60214 0.07305 0.02763 0.0
H725 H 0.51683 0.96449 0.98593 0.0
H726 H 0.4515 0.98854 0.99493 0.0
H727 H 0.50838 0.93074 0.98168 0.0
H728 H 0.56826 0.10851 0.03408 0.0
H729 H 0.40447 0.9298 0.99315 0.0
H730 H 0.41285 0.90333 0.99038 0.0
H731 H 0.5324 0.09826 0.03668 0.0
H732 H 0.43805 0.894 0.98671 0.0
N733 N 0.46036 0.96723 0.994 0.0
C734 C 0.44686 0.97336 0.99421 0.0
C735 C 0.42014 0.94015 0.99328 0.0
C736 C 0.43398 0.93403 0.99223 0.0
C737 C 0.42662 0.95994 0.99404 0.0
C738 C 0.45419 0.94813 0.9925 0.0
H739 H 0.47376 0.90418 0.9832 0.0
N740 N 0.48732 0.95719 0.9901 0.0
C741 C 0.49693 0.93394 0.98418 0.0
C742 C 0.46821 0.9429 0.99042 0.0
C743 C 0.50165 0.95309 0.98655 0.0
C744 C 0.47738 0.91899 0.98508 0.0
C745 C 0.46267 0.9234 0.98805 0.0
O746 O 0.50733 0.99241 0.97718 0.0
O747 O 0.51789 0.0118 0.00471 0.0
O748 O 0.50984 0.03398 0.01095 0.0
O749 O 0.48615 0.01099 0.99731 0.0
O750 O 0.52515 0.99786 0.99163 0.0
O751 O 0.48296 0.99728 0.97998 0.0
O752 O 0.49934 0.01038 0.0418 0.0
O753 O 0.48888 0.99111 0.01425 0.0
O754 O 0.49712 0.96895 0.00802 0.0
O755 O 0.52078 0.99204 0.02161 0.0
O756 O 0.48155 0.005 0.02728 0.0
O757 O 0.52347 0.00514 0.03894 0.0
C758 C 0.53239 0.01204 0.9995 0.0
C759 C 0.48691 0.98782 0.95969 0.0
C760 C 0.48588 0.99033 0.93689 0.0
C761 C 0.49395 0.99873 0.94868 0.0
C762 C 0.4708 0.97079 0.93634 0.0
C763 C 0.47188 0.9684 0.95888 0.0
C764 C 0.46391 0.95995 0.94726 0.0
C765 C 0.49613 0.02881 1.00212 0.0
C766 C 0.49524 0.997 0.97191 0.0
C767 C 0.44263 0.9091 0.98838 0.0
C768 C 0.42829 0.91441 0.99048 0.0
C769 C 0.47434 0.99088 0.01937 0.0
C770 C 0.51966 0.01448 0.05929 0.0
C771 C 0.51236 0.00353 0.07026 0.0
C772 C 0.52066 0.01166 0.08205 0.0
C773 C 0.53621 0.03098 0.08266 0.0
C774 C 0.53513 0.03371 0.06016 0.0
C775 C 0.54332 0.0419 0.07179 0.0
C776 C 0.51087 0.9742 0.01683 0.0
C777 C 0.51126 0.00551 0.04703 0.0
H778 H 0.50544 0.01381 0.94933 0.0
H779 H 0.46447 0.96379 0.92744 0.0
H780 H 0.46628 0.95979 0.96722 0.0
H781 H 0.45234 0.94492 0.9467 0.0
H782 H 0.5005 0.98861 0.06958 0.0
H783 H 0.54276 0.03774 0.09158 0.0
H784 H 0.54095 0.04235 0.05186 0.0
H785 H 0.55525 0.05676 0.07239 0.0
Tb786 Tb 0.0195 0.5048 0.99659 0.0
C787 C 0.94069 0.47748 0.02332 0.0
C788 C 0.93231 0.50239 0.0196 0.0
C789 C 0.90628 0.46904 0.02245 0.0
C790 C 0.94648 0.49653 0.02095 0.0
C791 C 0.92055 0.46353 0.02437 0.0
C792 C 0.91216 0.48846 0.02006 0.0
C793 C 0.93025 0.44022 0.03017 0.0
N794 N 0.95494 0.47284 0.02521 0.0
C795 C 0.95005 0.45464 0.02909 0.0
C796 C 0.91542 0.44462 0.02765 0.0
Tb797 Tb 0.98695 0.49721 0.0228 0.0
N798 N 0.96608 0.50949 0.02068 0.0
C799 C 0.97248 0.52889 0.02001 0.0
C800 C 0.93883 0.52211 0.01818 0.0
C801 C 0.959 0.53544 0.01858 0.0
H802 H 0.96137 0.45103 0.03098 0.0
H803 H 0.96422 0.55078 0.01771 0.0
H804 H 0.90103 0.49264 0.0189 0.0
H805 H 0.92646 0.42573 0.03293 0.0
H806 H 0.98798 0.53946 0.02021 0.0
H807 H 0.04185 0.45091 1.00143 0.0
H808 H 0.92844 0.52722 0.01705 0.0
H809 H 0.04534 0.55094 0.98843 0.0
H810 H 0.01824 0.46241 0.99889 0.0
H811 H 0.08033 0.57619 0.98671 0.0
H812 H 0.89071 0.45851 0.0231 0.0
H813 H 0.07764 0.47436 1.00248 0.0
H814 H 0.10518 0.50895 1.00103 0.0
H815 H 0.9001 0.43345 0.02854 0.0
H816 H 0.11572 0.54316 0.99692 0.0
N817 N 0.04024 0.49236 0.99873 0.0
C818 C 0.03376 0.47293 0.99924 0.0
C819 C 0.06732 0.47955 1.00133 0.0
C820 C 0.07395 0.49931 1.00007 0.0
C821 C 0.04714 0.46628 1.00071 0.0
C822 C 0.05986 0.50527 0.99864 0.0
H823 H 0.10653 0.56834 0.99134 0.0
N824 N 0.05159 0.52905 0.99429 0.0
C825 C 0.07644 0.56167 0.98947 0.0
C826 C 0.06576 0.52435 0.9963 0.0
C827 C 0.05661 0.54729 0.99041 0.0
C828 C 0.09119 0.5572 0.99212 0.0
C829 C 0.08594 0.53826 0.9954 0.0
O830 O 0.01873 0.51368 0.97819 0.0
O831 O 0.99375 0.50486 1.00349 0.0
O832 O 0.96998 0.47498 0.00872 0.0
O833 O 0.9955 0.47426 0.99794 0.0
O834 O 0.01021 0.52556 0.99088 0.0
O835 O 0.01318 0.48481 0.98189 0.0
O836 O 0.98837 0.48858 0.04115 0.0
O837 O 0.01271 0.49717 0.01589 0.0
O838 O 0.03641 0.52701 0.01071 0.0
O839 O 0.01085 0.52777 0.02139 0.0
O840 O 0.99621 0.4764 0.02844 0.0
O841 O 0.99276 0.51705 0.03752 0.0
C842 C 0.99445 0.51866 0.99742 0.0
C843 C 0.0274 0.49855 0.96247 0.0
C844 C 0.03064 0.49802 0.93977 0.0
C845 C 0.01957 0.4969 0.9504 0.0
C846 C 0.04975 0.50087 0.94144 0.0
C847 C 0.04646 0.50139 0.96395 0.0
C848 C 0.05757 0.50255 0.95347 0.0
C849 C 0.97661 0.46647 1.00101 0.0
C850 C 0.01537 0.49728 0.97332 0.0
C851 C 0.10012 0.53266 0.99745 0.0
C852 C 0.09412 0.5132 0.99979 0.0
C853 C 0.01197 0.4833 0.0219 0.0
C854 C 0.97905 0.50295 0.05698 0.0
C855 C 0.98705 0.50463 0.069 0.0
C856 C 0.97581 0.50264 0.07971 0.0
C857 C 0.95637 0.49895 0.07817 0.0
C858 C 0.95968 0.49932 0.05563 0.0
C859 C 0.94841 0.49732 0.06619 0.0
C860 C 0.02974 0.53557 0.01835 0.0
C861 C 0.99116 0.50476 0.04606 0.0
H862 H 0.00472 0.49446 0.94931 0.0
H863 H 0.05874 0.50202 0.93346 0.0
H864 H 0.05273 0.50265 0.97315 0.0
H865 H 0.0723 0.50479 0.95466 0.0
H866 H 1.00214 0.50771 0.06997 0.0
H867 H 0.94722 0.49708 0.0862 0.0
H868 H 0.95328 0.49805 0.04647 0.0
H869 H 0.93343 0.49445 0.0651 0.0
Tb870 Tb 0.51254 0.49626 0.02315 0.0
C871 C 0.46852 0.52826 0.99232 0.0
C872 C 0.43402 0.50383 0.99289 0.0
C873 C 0.44352 0.53766 0.99028 0.0
C874 C 0.4541 0.5092 0.99366 0.0
C875 C 0.46347 0.54274 0.99042 0.0
C876 C 0.4288 0.51821 0.99147 0.0
C877 C 0.49808 0.56573 0.98775 0.0
N878 N 0.48755 0.53243 0.99221 0.0
C879 C 0.5023 0.5508 0.9895 0.0
C880 C 0.47859 0.56173 0.98833 0.0
Tb881 Tb 0.49312 0.50712 0.99537 0.0
N882 N 0.45979 0.49577 0.99491 0.0
C883 C 0.44594 0.47647 0.99484 0.0
C884 C 0.41985 0.48415 0.99315 0.0
C885 C 0.42584 0.47041 0.99411 0.0
H886 H 0.51743 0.55411 0.98905 0.0
H887 H 0.41498 0.45512 0.99421 0.0
H888 H 0.41344 0.51439 0.991 0.0
H889 H 0.50986 0.58031 0.98592 0.0
H890 H 0.45018 0.46557 0.99552 0.0
H891 H 0.59076 0.54825 0.0231 0.0
H892 H 0.40429 0.4794 0.9923 0.0
H893 H 0.48885 0.44953 0.03018 0.0
H894 H 0.55551 0.53787 0.02369 0.0
H895 H 0.49657 0.42325 0.0324 0.0
H896 H 0.43931 0.54858 0.98891 0.0
H897 H 0.60148 0.52385 0.02247 0.0
H898 H 0.59229 0.48875 0.0234 0.0
H899 H 0.47534 0.57329 0.98686 0.0
H900 H 0.56659 0.45461 0.02609 0.0
N901 N 0.54591 0.50766 0.02316 0.0
C902 C 0.55978 0.52695 0.02352 0.0
C903 C 0.5859 0.51916 0.02277 0.0
C904 C 0.57172 0.49948 0.02322 0.0
C905 C 0.5799 0.53296 0.02317 0.0
C906 C 0.55164 0.49419 0.02353 0.0
H907 H 0.53083 0.43006 0.0297 0.0
N908 N 0.51839 0.47104 0.02599 0.0
C909 C 0.50818 0.43778 0.03028 0.0
C910 C 0.53734 0.47514 0.02505 0.0
C911 C 0.50388 0.45275 0.02906 0.0
C912 C 0.52752 0.44166 0.02872 0.0
C913 C 0.54246 0.46061 0.02626 0.0
O914 O 0.49949 0.48631 0.04074 0.0
O915 O 0.48845 0.4979 0.01454 0.0
O916 O 0.49702 0.52835 0.00974 0.0
O917 O 0.52089 0.52718 0.02228 0.0
O918 O 0.48117 0.47565 0.02645 0.0
O919 O 0.52484 0.5148 0.03877 0.0
O920 O 0.50634 0.51692 0.97781 0.0
O921 O 0.51714 0.50557 1.00405 0.0
O922 O 0.50845 0.47496 0.00879 0.0
O923 O 0.48452 0.47616 0.99637 0.0
O924 O 0.52452 0.52774 0.9921 0.0
O925 O 0.48121 0.4883 0.97985 0.0
C926 C 0.47391 0.48367 0.01951 0.0
C927 C 0.52085 0.4992 0.05813 0.0
C928 C 0.52141 0.49879 0.08099 0.0
C929 C 0.51386 0.50158 0.0697 0.0
C930 C 0.5361 0.49355 0.08047 0.0
C931 C 0.53552 0.49403 0.05782 0.0
C932 C 0.54308 0.49121 0.06895 0.0
C933 C 0.51109 0.53585 0.01841 0.0
C934 C 0.51248 0.502 0.04654 0.0
C935 C 0.56233 0.46558 0.02532 0.0
C936 C 0.57696 0.48501 0.02378 0.0
C937 C 0.53172 0.51979 0.99914 0.0
C938 C 0.48545 0.50332 0.96024 0.0
C939 C 0.49239 0.5001 0.94889 0.0
C940 C 0.48489 0.50221 0.93737 0.0
C941 C 0.47034 0.50765 0.93743 0.0
C942 C 0.47092 0.50868 0.96009 0.0
C943 C 0.46343 0.51084 0.94872 0.0
C944 C 0.49432 0.46748 1.00017 0.0
C945 C 0.49364 0.50101 0.97207 0.0
H946 H 0.50235 0.50537 0.06989 0.0
H947 H 0.54242 0.49155 0.08897 0.0
H948 H 0.54113 0.49219 0.04901 0.0
H949 H 0.55444 0.48726 0.06866 0.0
H950 H 0.50344 0.49571 0.94907 0.0
H951 H 0.46445 0.50967 0.92874 0.0
H952 H 0.46538 0.51118 0.96871 0.0
H953 H 0.45226 0.51506 0.94866 0.0
Tb954 Tb 0.16155 0.32114 0.32857 0.0
C955 C 0.20471 0.39326 0.36284 0.0
C956 C 0.23913 0.40252 0.36185 0.0
C957 C 0.22993 0.42703 0.36578 0.0
C958 C 0.219 0.3883 0.361 0.0
C959 C 0.20993 0.4126 0.36551 0.0
C960 C 0.24452 0.42199 0.36395 0.0
C961 C 0.17539 0.40163 0.36856 0.0
N962 N 0.18564 0.37884 0.36267 0.0
C963 C 0.171 0.38264 0.36593 0.0
C964 C 0.19493 0.41672 0.3682 0.0
Tb965 Tb 0.17972 0.34825 0.3579 0.0
N966 N 0.21312 0.36931 0.35915 0.0
C967 C 0.22681 0.36342 0.35893 0.0
C968 C 0.25318 0.39665 0.36095 0.0
C969 C 0.24697 0.37698 0.35963 0.0
H970 H 0.15582 0.37114 0.36619 0.0
H971 H 0.25772 0.37224 0.35913 0.0
H972 H 0.25991 0.43316 0.3645 0.0
H973 H 0.1637 0.4046 0.37085 0.0
H974 H 0.22238 0.34832 0.35787 0.0
H975 H 0.08371 0.29794 0.32767 0.0
H976 H 0.26879 0.40711 0.3616 0.0
H977 H 0.18473 0.29774 0.31998 0.0
H978 H 0.11914 0.32163 0.32825 0.0
H979 H 0.1764 0.26403 0.31566 0.0
H980 H 0.23427 0.44201 0.36771 0.0
H981 H 0.0722 0.26287 0.32623 0.0
H982 H 0.08068 0.23645 0.3236 0.0
H983 H 0.19831 0.4314 0.3703 0.0
H984 H 0.10598 0.22717 0.32018 0.0
N985 N 0.12806 0.30035 0.3275 0.0
C986 C 0.11454 0.30645 0.32756 0.0
C987 C 0.08787 0.27324 0.32648 0.0
C988 C 0.10175 0.26714 0.32557 0.0
C989 C 0.09431 0.29302 0.32725 0.0
C990 C 0.12194 0.28125 0.32601 0.0
H991 H 0.14176 0.23743 0.31694 0.0
N992 N 0.15514 0.29035 0.32394 0.0
C993 C 0.16489 0.26719 0.31808 0.0
C994 C 0.13603 0.27605 0.32412 0.0
C995 C 0.16954 0.28631 0.3205 0.0
C996 C 0.14534 0.25221 0.31885 0.0
C997 C 0.13055 0.25658 0.32171 0.0
O998 O 0.17542 0.3255 0.31107 0.0
O999 O 0.18525 0.34512 0.33855 0.0
O1000 O 0.17669 0.36724 0.34455 0.0
O1001 O 0.1537 0.34406 0.33068 0.0
O1002 O 0.19294 0.33112 0.32576 0.0
O1003 O 0.15095 0.3303 0.3135 0.0
O1004 O 0.16536 0.3431 0.37527 0.0
O1005 O 0.15607 0.32424 0.34792 0.0
O1006 O 0.16485 0.30228 0.34193 0.0
O1007 O 0.18784 0.32555 0.35575 0.0
O1008 O 0.14833 0.33831 0.36059 0.0
O1009 O 0.19068 0.33962 0.37307 0.0
C1010 C 0.19992 0.3454 0.33355 0.0
C1011 C 0.15529 0.32071 0.29336 0.0
C1012 C 0.15413 0.3231 0.27056 0.0
C1013 C 0.16205 0.33165 0.28234 0.0
C1014 C 0.1395 0.30338 0.27003 0.0
C1015 C 0.14069 0.30112 0.29257 0.0
C1016 C 0.13289 0.29252 0.28096 0.0
C1017 C 0.16339 0.36193 0.33543 0.0
C1018 C 0.16341 0.33001 0.30559 0.0
C1019 C 0.11052 0.24226 0.32187 0.0
C1020 C 0.09611 0.24754 0.32382 0.0
C1021 C 0.14138 0.32402 0.35281 0.0
C1022 C 0.18531 0.34864 0.39316 0.0
C1023 C 0.1777 0.33793 0.40419 0.0
C1024 C 0.18456 0.34678 0.41604 0.0
C1025 C 0.19923 0.36648 0.41661 0.0
C1026 C 0.19991 0.36822 0.394 0.0
C1027 C 0.20682 0.37706 0.40567 0.0
C1028 C 0.17828 0.30769 0.35097 0.0
C1029 C 0.17776 0.33924 0.38087 0.0
H1030 H 0.1732 0.34685 0.28298 0.0
H1031 H 0.13331 0.29626 0.26114 0.0
H1032 H 0.13528 0.2925 0.30091 0.0
H1033 H 0.12165 0.27737 0.28042 0.0
H1034 H 0.16629 0.32282 0.40353 0.0
H1035 H 0.20509 0.37368 0.42553 0.0
H1036 H 0.206 0.37666 0.38566 0.0
H1037 H 0.21815 0.39218 0.40624 0.0
Tb1038 Tb 0.68604 0.83797 0.32951 0.0
C1039 C 0.60706 0.80967 0.35622 0.0
C1040 C 0.59868 0.83466 0.35287 0.0
C1041 C 0.57265 0.80121 0.35534 0.0
C1042 C 0.61285 0.82878 0.35409 0.0
C1043 C 0.58691 0.79566 0.35713 0.0
C1044 C 0.57853 0.8207 0.35321 0.0
C1045 C 0.59661 0.77221 0.36253 0.0
N1046 N 0.62131 0.805 0.35799 0.0
C1047 C 0.6164 0.78668 0.3616 0.0
C1048 C 0.58178 0.77666 0.36015 0.0
Tb1049 Tb 0.65333 0.82944 0.35578 0.0
N1050 N 0.63245 0.84176 0.35394 0.0
C1051 C 0.63884 0.86118 0.35354 0.0
C1052 C 0.6052 0.85442 0.35171 0.0
C1053 C 0.62537 0.86776 0.35225 0.0
H1054 H 0.62774 0.78304 0.36338 0.0
H1055 H 0.63058 0.88312 0.35159 0.0
H1056 H 0.5674 0.8249 0.35215 0.0
H1057 H 0.59281 0.75763 0.36508 0.0
H1058 H 0.65434 0.87175 0.35384 0.0
H1059 H 0.70907 0.78447 0.33343 0.0
H1060 H 0.59481 0.85956 0.3507 0.0
H1061 H 0.7116 0.88432 0.32175 0.0
H1062 H 0.68523 0.79574 0.33105 0.0
H1063 H 0.74652 0.90984 0.32025 0.0
H1064 H 0.55707 0.79065 0.35589 0.0
H1065 H 0.74477 0.80816 0.33494 0.0
H1066 H 0.77209 0.84292 0.33396 0.0
H1067 H 0.56646 0.76545 0.36092 0.0
H1068 H 0.78235 0.87716 0.33022 0.0
N1069 N 0.70701 0.82576 0.3314 0.0
C1070 C 0.70071 0.80635 0.33158 0.0
C1071 C 0.73434 0.81324 0.33384 0.0
C1072 C 0.7408 0.83301 0.33286 0.0
C1073 C 0.71422 0.79984 0.33295 0.0
C1074 C 0.72659 0.83882 0.3315 0.0
H1075 H 0.7729 0.90222 0.32483 0.0
N1076 N 0.71806 0.86248 0.3274 0.0
C1077 C 0.74274 0.89529 0.32288 0.0
C1078 C 0.73234 0.85791 0.32937 0.0
C1079 C 0.72295 0.88076 0.3237 0.0
C1080 C 0.75759 0.89095 0.3255 0.0
C1081 C 0.75248 0.87199 0.32861 0.0
O1082 O 0.68512 0.84729 0.31127 0.0
O1083 O 0.66016 0.83765 0.33655 0.0
O1084 O 0.63653 0.80761 0.34146 0.0
O1085 O 0.66215 0.80732 0.33051 0.0
O1086 O 0.67665 0.85881 0.32421 0.0
O1087 O 0.68009 0.81849 0.31454 0.0
O1088 O 0.65421 0.82014 0.37403 0.0
O1089 O 0.6791 0.82965 0.34869 0.0
O1090 O 0.70284 0.85976 0.34387 0.0
O1091 O 0.67719 0.86006 0.35474 0.0
O1092 O 0.66271 0.80857 0.36108 0.0
O1093 O 0.65953 0.84903 0.37071 0.0
C1094 C 0.66084 0.85163 0.33071 0.0
C1095 C 0.69421 0.83296 0.29526 0.0
C1096 C 0.69748 0.83308 0.27254 0.0
C1097 C 0.6863 0.83138 0.28323 0.0
C1098 C 0.7168 0.83643 0.27412 0.0
C1099 C 0.71348 0.83631 0.29665 0.0
C1100 C 0.7247 0.83804 0.28611 0.0
C1101 C 0.64325 0.79935 0.33361 0.0
C1102 C 0.68207 0.83113 0.30616 0.0
C1103 C 0.76678 0.86653 0.33062 0.0
C1104 C 0.76094 0.84705 0.33276 0.0
C1105 C 0.67843 0.81566 0.35449 0.0
C1106 C 0.64539 0.83475 0.39002 0.0
C1107 C 0.6532 0.83599 0.40205 0.0
C1108 C 0.64213 0.83455 0.41275 0.0
C1109 C 0.623 0.8317 0.41118 0.0
C1110 C 0.62633 0.83195 0.38865 0.0
C1111 C 0.61519 0.8304 0.3992 0.0
C1112 C 0.6961 0.86799 0.35173 0.0
C1113 C 0.65744 0.83638 0.37911 0.0
H1114 H 0.6713 0.82854 0.28221 0.0
H1115 H 0.72587 0.83802 0.2661 0.0
H1116 H 0.71982 0.83753 0.30583 0.0
H1117 H 0.73959 0.84067 0.28724 0.0
H1118 H 0.66785 0.83789 0.40304 0.0
H1119 H 0.61418 0.83078 0.41921 0.0
H1120 H 0.62008 0.83103 0.37948 0.0
H1121 H 0.6005 0.8283 0.39809 0.0
Tb1122 Tb 0.18109 0.83054 0.35752 0.0
C1123 C 0.13544 0.85934 0.32597 0.0
C1124 C 0.10123 0.83464 0.32809 0.0
C1125 C 0.10989 0.8681 0.32464 0.0
C1126 C 0.12141 0.84032 0.32799 0.0
C1127 C 0.12989 0.87343 0.32399 0.0
C1128 C 0.09557 0.84871 0.3267 0.0
C1129 C 0.16406 0.89653 0.31987 0.0
N1130 N 0.15453 0.86381 0.32534 0.0
C1131 C 0.16878 0.88198 0.32186 0.0
C1132 C 0.14455 0.8923 0.32109 0.0
Tb1133 Tb 0.16102 0.83926 0.32919 0.0
N1134 N 0.12753 0.82721 0.32916 0.0
C1135 C 0.11396 0.80784 0.32949 0.0
C1136 C 0.08736 0.81495 0.32922 0.0
C1137 C 0.09376 0.80147 0.32973 0.0
H1138 H 0.18392 0.88544 0.32098 0.0
H1139 H 0.08314 0.78616 0.33035 0.0
H1140 H 0.08015 0.84468 0.32688 0.0
H1141 H 0.17546 0.91099 0.31741 0.0
H1142 H 0.11853 0.79715 0.32996 0.0
H1143 H 0.25932 0.88208 0.35609 0.0
H1144 H 0.07171 0.80998 0.3294 0.0
H1145 H 0.15729 0.78491 0.36698 0.0
H1146 H 0.22409 0.87185 0.35604 0.0
H1147 H 0.16497 0.75919 0.37173 0.0
H1148 H 0.10532 0.87874 0.32326 0.0
H1149 H 0.26994 0.85772 0.3581 0.0
H1150 H 0.26067 0.82297 0.36132 0.0
H1151 H 0.14092 0.90357 0.31951 0.0
H1152 H 0.23491 0.78939 0.36563 0.0
N1153 N 0.21441 0.84171 0.35747 0.0
C1154 C 0.22832 0.86095 0.35687 0.0
C1155 C 0.25436 0.85309 0.35795 0.0
C1156 C 0.24014 0.83357 0.35929 0.0
C1157 C 0.24843 0.86687 0.35689 0.0
C1158 C 0.22007 0.82833 0.35911 0.0
H1159 H 0.19917 0.76554 0.36981 0.0
N1160 N 0.1868 0.80568 0.36211 0.0
C1161 C 0.17657 0.77329 0.36881 0.0
C1162 C 0.20572 0.8096 0.36155 0.0
C1163 C 0.17229 0.78796 0.36612 0.0
C1164 C 0.19588 0.7769 0.36768 0.0
C1165 C 0.21081 0.79535 0.36421 0.0
O1166 O 0.16833 0.82271 0.37539 0.0
O1167 O 0.1568 0.83136 0.34858 0.0
O1168 O 0.16522 0.86151 0.34286 0.0
O1169 O 0.18948 0.86131 0.3555 0.0
O1170 O 0.14984 0.81015 0.36128 0.0
O1171 O 0.19391 0.85066 0.37232 0.0
O1172 O 0.17375 0.84834 0.31142 0.0
O1173 O 0.18529 0.83829 0.33805 0.0
O1174 O 0.17641 0.80765 0.34421 0.0
O1175 O 0.15313 0.80861 0.33091 0.0
O1176 O 0.19225 0.85981 0.32556 0.0
O1177 O 0.1489 0.81973 0.31406 0.0
C1178 C 0.1424 0.81748 0.35391 0.0
C1179 C 0.19026 0.83714 0.3924 0.0
C1180 C 0.19077 0.83802 0.41527 0.0
C1181 C 0.18269 0.8394 0.40378 0.0
C1182 C 0.20646 0.83418 0.41515 0.0
C1183 C 0.20595 0.83339 0.3925 0.0
C1184 C 0.21396 0.83188 0.40384 0.0
C1185 C 0.17939 0.86956 0.35143 0.0
C1186 C 0.18165 0.83885 0.38056 0.0
C1187 C 0.23068 0.80017 0.36374 0.0
C1188 C 0.24534 0.81928 0.36128 0.0
C1189 C 0.19968 0.85222 0.33274 0.0
C1190 C 0.15224 0.83383 0.29421 0.0
C1191 C 0.15999 0.83192 0.2828 0.0
C1192 C 0.15185 0.83326 0.27132 0.0
C1193 C 0.13583 0.83663 0.2715 0.0
C1194 C 0.1363 0.8372 0.29417 0.0
C1195 C 0.12818 0.83861 0.28285 0.0
C1196 C 0.16272 0.80002 0.33529 0.0
C1197 C 0.16096 0.83215 0.306 0.0
H1198 H 0.17073 0.84255 0.40366 0.0
H1199 H 0.21283 0.83276 0.42382 0.0
H1200 H 0.21205 0.8317 0.38387 0.0
H1201 H 0.22603 0.82892 0.40386 0.0
H1202 H 0.17247 0.82957 0.2829 0.0
H1203 H 0.12897 0.83743 0.26288 0.0
H1204 H 0.13009 0.83863 0.30283 0.0
H1205 H 0.11581 0.84112 0.28287 0.0
Tb1206 Tb 0.82719 0.65465 0.66139 0.0
C1207 C 0.86959 0.72545 0.69643 0.0
C1208 C 0.90401 0.7346 0.69582 0.0
C1209 C 0.89482 0.75915 0.69963 0.0
C1210 C 0.88389 0.72044 0.69476 0.0
C1211 C 0.87481 0.74478 0.69914 0.0
C1212 C 0.90942 0.75406 0.69798 0.0
C1213 C 0.8402 0.73389 0.70177 0.0
N1214 N 0.8505 0.71109 0.69605 0.0
C1215 C 0.83581 0.71491 0.69915 0.0
C1216 C 0.85978 0.74895 0.70162 0.0
Tb1217 Tb 0.84463 0.68055 0.69118 0.0
N1218 N 0.878 0.70147 0.69281 0.0
C1219 C 0.89165 0.69552 0.69269 0.0
C1220 C 0.91804 0.72868 0.69506 0.0
C1221 C 0.91181 0.70902 0.69362 0.0
H1222 H 0.82062 0.70341 0.69923 0.0
H1223 H 0.92253 0.70424 0.69322 0.0
H1224 H 0.92481 0.76519 0.69869 0.0
H1225 H 0.82849 0.7369 0.7039 0.0
H1226 H 0.8872 0.68042 0.69156 0.0
H1227 H 0.74912 0.63034 0.66032 0.0
H1228 H 0.93364 0.73909 0.69588 0.0
H1229 H 0.85119 0.63256 0.65179 0.0
H1230 H 0.78441 0.65432 0.66176 0.0
H1231 H 0.8435 0.59948 0.64604 0.0
H1232 H 0.89916 0.77413 0.70159 0.0
H1233 H 0.7382 0.5956 0.65721 0.0
H1234 H 0.74725 0.56982 0.65354 0.0
H1235 H 0.86316 0.76362 0.70372 0.0
H1236 H 0.77303 0.56137 0.6496 0.0
N1237 N 0.79381 0.63348 0.66001 0.0
C1238 C 0.78006 0.63928 0.66044 0.0
C1239 C 0.75379 0.60609 0.65796 0.0
C1240 C 0.76791 0.60035 0.65679 0.0
C1241 C 0.75991 0.62568 0.65964 0.0
C1242 C 0.78802 0.6146 0.65777 0.0
H1243 H 0.80901 0.57243 0.64651 0.0
N1244 N 0.82139 0.62438 0.65578 0.0
C1245 C 0.83178 0.60218 0.64875 0.0
C1246 C 0.80237 0.60987 0.65555 0.0
C1247 C 0.83607 0.62094 0.652 0.0
C1248 C 0.81231 0.58694 0.64907 0.0
C1249 C 0.79726 0.59073 0.6523 0.0
O1250 O 0.84126 0.66016 0.64387 0.0
O1251 O 0.85064 0.67816 0.67183 0.0
O1252 O 0.84208 0.69995 0.67797 0.0
O1253 O 0.81887 0.67717 0.66407 0.0
O1254 O 0.85867 0.66498 0.65868 0.0
O1255 O 0.8167 0.66466 0.64675 0.0
O1256 O 0.83 0.67529 0.70846 0.0
O1257 O 0.82129 0.65672 0.68085 0.0
O1258 O 0.83078 0.63528 0.67419 0.0
O1259 O 0.85271 0.65786 0.68883 0.0
O1260 O 0.81313 0.67027 0.69369 0.0
O1261 O 0.85523 0.67161 0.70638 0.0
C1262 C 0.86545 0.67876 0.66683 0.0
C1263 C 0.821 0.65602 0.62632 0.0
C1264 C 0.82 0.65906 0.60358 0.0
C1265 C 0.82832 0.66709 0.61539 0.0
C1266 C 0.8045 0.63972 0.6029 0.0
C1267 C 0.80557 0.63678 0.62537 0.0
C1268 C 0.79743 0.62869 0.61371 0.0
C1269 C 0.82868 0.69492 0.66897 0.0
C1270 C 0.82918 0.66483 0.63867 0.0
C1271 C 0.77729 0.57621 0.65195 0.0
C1272 C 0.76262 0.58102 0.6542 0.0
C1273 C 0.80644 0.65614 0.68578 0.0
C1274 C 0.84964 0.68048 0.72646 0.0
C1275 C 0.84219 0.66955 0.73743 0.0
C1276 C 0.84892 0.67827 0.74933 0.0
C1277 C 0.86332 0.69806 0.75001 0.0
C1278 C 0.86397 0.70015 0.72742 0.0
C1279 C 0.87075 0.70886 0.73913 0.0
C1280 C 0.84365 0.64031 0.68357 0.0
C1281 C 0.84223 0.67124 0.71411 0.0
H1282 H 0.84014 0.68203 0.61611 0.0
H1283 H 0.79796 0.63305 0.59396 0.0
H1284 H 0.79972 0.62806 0.63362 0.0
H1285 H 0.78552 0.61381 0.61306 0.0
H1286 H 0.83099 0.65437 0.73668 0.0
H1287 H 0.86907 0.70517 0.75897 0.0
H1288 H 0.86994 0.70876 0.71914 0.0
H1289 H 0.88187 0.72405 0.73979 0.0
Tb1290 Tb 0.35291 0.17097 0.66339 0.0
C1291 C 0.2741 0.14303 0.69023 0.0
C1292 C 0.26563 0.16791 0.68665 0.0
C1293 C 0.23966 0.13449 0.68937 0.0
C1294 C 0.27984 0.16209 0.68796 0.0
C1295 C 0.25397 0.12902 0.69124 0.0
C1296 C 0.24549 0.15393 0.68708 0.0
C1297 C 0.26377 0.10572 0.6969 0.0
N1298 N 0.28839 0.13843 0.69207 0.0
C1299 C 0.28355 0.1202 0.69586 0.0
C1300 C 0.2489 0.11009 0.69443 0.0
Tb1301 Tb 0.32037 0.16287 0.68969 0.0
N1302 N 0.29943 0.1751 0.68772 0.0
C1303 C 0.30578 0.1945 0.68714 0.0
C1304 C 0.2721 0.18763 0.68532 0.0
C1305 C 0.29227 0.20101 0.68576 0.0
H1306 H 0.29491 0.11662 0.69771 0.0
H1307 H 0.29744 0.21634 0.68496 0.0
H1308 H 0.23434 0.15807 0.68595 0.0
H1309 H 0.26002 0.09121 0.69959 0.0
H1310 H 0.32128 0.20509 0.68737 0.0
H1311 H 0.37581 0.11745 0.66784 0.0
H1312 H 0.26168 0.19271 0.68423 0.0
H1313 H 0.37842 0.21719 0.65535 0.0
H1314 H 0.352 0.12873 0.66546 0.0
H1315 H 0.41333 0.24261 0.65354 0.0
H1316 H 0.2241 0.12392 0.68999 0.0
H1317 H 0.41156 0.14108 0.66885 0.0
H1318 H 0.43891 0.17577 0.66744 0.0
H1319 H 0.23359 0.09887 0.69528 0.0
H1320 H 0.44919 0.20994 0.66345 0.0
N1321 N 0.37384 0.15874 0.66537 0.0
C1322 C 0.36749 0.13933 0.6658 0.0
C1323 C 0.40115 0.14618 0.66778 0.0
C1324 C 0.40763 0.16593 0.66659 0.0
C1325 C 0.38099 0.1328 0.66717 0.0
C1326 C 0.39343 0.17175 0.66526 0.0
H1327 H 0.43973 0.23497 0.65801 0.0
N1328 N 0.3849 0.19541 0.66109 0.0
C1329 C 0.40956 0.22811 0.65627 0.0
C1330 C 0.39919 0.19082 0.66301 0.0
C1331 C 0.38977 0.21363 0.65726 0.0
C1332 C 0.42442 0.22376 0.65883 0.0
C1333 C 0.41932 0.20483 0.66205 0.0
O1334 O 0.35168 0.17994 0.64511 0.0
O1335 O 0.32706 0.17074 0.6704 0.0
O1336 O 0.30347 0.14074 0.67555 0.0
O1337 O 0.32903 0.14035 0.6646 0.0
O1338 O 0.34346 0.19172 0.65795 0.0
O1339 O 0.34705 0.15133 0.64854 0.0
O1340 O 0.32184 0.15404 0.70797 0.0
O1341 O 0.34616 0.16304 0.68266 0.0
O1342 O 0.36982 0.19306 0.67759 0.0
O1343 O 0.34421 0.19347 0.68844 0.0
O1344 O 0.32975 0.14208 0.69513 0.0
O1345 O 0.3262 0.18255 0.70452 0.0
C1346 C 0.32767 0.18461 0.66447 0.0
C1347 C 0.36094 0.16567 0.62917 0.0
C1348 C 0.36432 0.16621 0.60646 0.0
C1349 C 0.35302 0.16413 0.61715 0.0
C1350 C 0.38376 0.1699 0.60801 0.0
C1351 C 0.3803 0.16926 0.63054 0.0
C1352 C 0.39164 0.17138 0.61999 0.0
C1353 C 0.31016 0.1324 0.66775 0.0
C1354 C 0.3488 0.16379 0.64009 0.0
C1355 C 0.43362 0.19936 0.664 0.0
C1356 C 0.42777 0.17991 0.66628 0.0
C1357 C 0.34549 0.14913 0.68856 0.0
C1358 C 0.31265 0.16828 0.72396 0.0
C1359 C 0.3209 0.1703 0.73593 0.0
C1360 C 0.30976 0.16824 0.74671 0.0
C1361 C 0.29017 0.16414 0.74527 0.0
C1362 C 0.29313 0.16425 0.72272 0.0
C1363 C 0.28196 0.16218 0.73334 0.0
C1364 C 0.36311 0.20138 0.68539 0.0
C1365 C 0.32466 0.17018 0.71298 0.0
H1366 H 0.33812 0.16159 0.61614 0.0
H1367 H 0.39276 0.17137 0.59997 0.0
H1368 H 0.38664 0.17042 0.63971 0.0
H1369 H 0.40657 0.17413 0.6211 0.0
H1370 H 0.33611 0.1737 0.73682 0.0
H1371 H 0.28109 0.1622 0.75336 0.0
H1372 H 0.28654 0.16269 0.71359 0.0
H1373 H 0.26686 0.15899 0.73233 0.0
Tb1374 Tb 0.84675 0.16366 0.68995 0.0
C1375 C 0.80183 0.19315 0.65801 0.0
C1376 C 0.76752 0.16826 0.65894 0.0
C1377 C 0.77629 0.20177 0.65567 0.0
C1378 C 0.78771 0.17405 0.65968 0.0
C1379 C 0.79635 0.20724 0.65577 0.0
C1380 C 0.76188 0.18228 0.65721 0.0
C1381 C 0.83077 0.23059 0.65268 0.0
N1382 N 0.82097 0.19771 0.65789 0.0
C1383 C 0.83542 0.21602 0.65481 0.0
C1384 C 0.81116 0.22623 0.6533 0.0
Tb1385 Tb 0.82725 0.173 0.66163 0.0
N1386 N 0.7938 0.16095 0.66118 0.0
C1387 C 0.78026 0.14156 0.66132 0.0
C1388 C 0.75366 0.1485 0.65948 0.0
C1389 C 0.76006 0.1351 0.66064 0.0
H1390 H 0.85062 0.21956 0.65434 0.0
H1391 H 0.74945 0.11975 0.66092 0.0
H1392 H 0.74644 0.17814 0.65675 0.0
H1393 H 0.8423 0.24515 0.65055 0.0
H1394 H 0.78481 0.1309 0.66214 0.0
H1395 H 0.92492 0.21564 0.68829 0.0
H1396 H 0.73803 0.14343 0.65867 0.0
H1397 H 0.82346 0.11813 0.6995 0.0
H1398 H 0.88967 0.20526 0.68885 0.0
H1399 H 0.83141 0.09246 0.70389 0.0
H1400 H 0.77176 0.21239 0.65405 0.0
H1401 H 0.93575 0.19136 0.68942 0.0
H1402 H 0.92671 0.15658 0.69247 0.0
H1403 H 0.80758 0.2375 0.65155 0.0
H1404 H 0.90118 0.12293 0.69685 0.0
N1405 N 0.88015 0.1751 0.68985 0.0
C1406 C 0.89398 0.19439 0.68939 0.0
C1407 C 0.92016 0.18666 0.68965 0.0
C1408 C 0.90604 0.1671 0.69102 0.0
C1409 C 0.91411 0.2004 0.68905 0.0
C1410 C 0.88595 0.16178 0.69117 0.0
H1411 H 0.8656 0.09895 0.70144 0.0
N1412 N 0.85279 0.13896 0.69435 0.0
C1413 C 0.84289 0.10659 0.70092 0.0
C1414 C 0.87172 0.14299 0.69357 0.0
C1415 C 0.83845 0.12122 0.69844 0.0
C1416 C 0.86219 0.11029 0.69949 0.0
C1417 C 0.87697 0.12877 0.69596 0.0
O1418 O 0.83351 0.15545 0.70766 0.0
O1419 O 0.82258 0.16471 0.68096 0.0
O1420 O 0.83098 0.19482 0.67552 0.0
O1421 O 0.85508 0.19445 0.6882 0.0
O1422 O 0.81545 0.14305 0.69333 0.0
O1423 O 0.8595 0.18324 0.70504 0.0
O1424 O 0.8401 0.18262 0.64393 0.0
O1425 O 0.85129 0.17173 0.67055 0.0
O1426 O 0.84202 0.14081 0.6766 0.0
O1427 O 0.81926 0.14227 0.66306 0.0
O1428 O 0.85858 0.19357 0.65828 0.0
O1429 O 0.81574 0.15365 0.64637 0.0
C1430 C 0.80809 0.1506 0.68606 0.0
C1431 C 0.85513 0.16884 0.72488 0.0
C1432 C 0.85462 0.16799 0.74774 0.0
C1433 C 0.84724 0.17052 0.7363 0.0
C1434 C 0.87002 0.16373 0.74756 0.0
C1435 C 0.87054 0.16468 0.72492 0.0
C1436 C 0.87791 0.16212 0.73621 0.0
C1437 C 0.84503 0.20275 0.68418 0.0
C1438 C 0.84693 0.17128 0.71308 0.0
C1439 C 0.89684 0.13368 0.69518 0.0
C1440 C 0.91137 0.15283 0.69269 0.0
C1441 C 0.86581 0.18573 0.6654 0.0
C1442 C 0.81896 0.16781 0.62656 0.0
C1443 C 0.82656 0.16551 0.61521 0.0
C1444 C 0.81805 0.16615 0.60371 0.0
C1445 C 0.80194 0.16934 0.60377 0.0
C1446 C 0.80292 0.17102 0.62642 0.0
C1447 C 0.7945 0.17183 0.61506 0.0
C1448 C 0.82855 0.13343 0.66754 0.0
C1449 C 0.82772 0.16636 0.63841 0.0
H1450 H 0.83521 0.17357 0.73624 0.0
H1451 H 0.8762 0.16194 0.75619 0.0
H1452 H 0.8769 0.16347 0.71626 0.0
H1453 H 0.88983 0.15894 0.73617 0.0
H1454 H 0.83883 0.1628 0.61534 0.0
H1455 H 0.7952 0.17009 0.59508 0.0
H1456 H 0.79682 0.17277 0.63503 0.0
H1457 H 0.78212 0.17431 0.61501 0.0
H1458 H 0.30098 0.84886 0.04876 0.0
H1459 H 0.33054 0.87297 0.03784 0.0
H1460 H 0.36404 0.88588 0.07228 0.0
H1461 H 0.33419 0.86264 0.08329 0.0
H1462 H 0.37218 0.91752 0.06201 0.0
H1463 H 0.37688 0.87148 0.02478 0.0
H1464 H 0.35374 0.87093 0.02423 0.0
H1465 H 0.36001 0.86143 0.03765 0.0
C1466 C 0.31475 0.85681 0.05392 0.0
C1467 C 0.31545 0.854 0.06682 0.0
C1468 C 0.33168 0.87043 0.04766 0.0
C1469 C 0.34972 0.88103 0.05414 0.0
C1470 C 0.35037 0.8779 0.06704 0.0
H1471 H 0.46562 0.95321 0.02183 0.0
H1472 H 0.43466 0.92607 0.02932 0.0
C1473 C 0.33336 0.86464 0.07333 0.0
C1474 C 0.36762 0.89633 0.04779 0.0
H1475 H 0.39714 0.90576 0.02225 0.0
C1476 C 0.37767 0.91484 0.05336 0.0
C1477 C 0.37503 0.89289 0.03656 0.0
C1478 C 0.36597 0.87305 0.03054 0.0
C1479 C 0.3948 0.92994 0.0481 0.0
C1480 C 0.40162 0.9268 0.03654 0.0
C1481 C 0.39171 0.90827 0.03098 0.0
C1482 C 0.41944 0.94245 0.03039 0.0
C1483 C 0.4057 0.9489 0.05525 0.0
C1484 C 0.42095 0.96045 0.02798 0.0
C1485 C 0.43872 0.97602 0.02393 0.0
C1486 C 0.45501 0.97364 0.02164 0.0
C1487 C 0.45317 0.95533 0.02328 0.0
C1488 C 0.43549 0.93984 0.0276 0.0
H1489 H 0.40221 0.94693 0.06538 0.0
H1490 H 0.42191 0.95558 0.05421 0.0
H1491 H 0.40116 0.95911 0.05163 0.0
H1492 H 0.40859 0.96267 0.02967 0.0
H1493 H 0.43986 0.99004 0.02275 0.0
H1494 H 0.13102 0.42972 0.06408 0.0
H1495 H 0.1059 0.43523 0.05445 0.0
H1496 H 0.14337 0.49683 0.05971 0.0
H1497 H 0.16839 0.49151 0.06974 0.0
H1498 H 0.08812 0.45616 0.06655 0.0
H1499 H 0.12554 0.48921 0.02181 0.0
H1500 H 0.1321 0.47444 0.03117 0.0
H1501 H 0.13982 0.49885 0.03597 0.0
C1502 C 0.13394 0.44446 0.0633 0.0
C1503 C 0.15181 0.46015 0.06777 0.0
C1504 C 0.11959 0.44758 0.05768 0.0
C1505 C 0.12285 0.46643 0.05624 0.0
C1506 C 0.14069 0.48216 0.06053 0.0
H1507 H 0.05045 0.51183 0.02584 0.0
H1508 H 0.0775 0.5079 0.03404 0.0
C1509 C 0.15502 0.47907 0.06624 0.0
C1510 C 0.10712 0.46952 0.05085 0.0
H1511 H 0.09522 0.48791 0.02561 0.0
C1512 C 0.08962 0.46305 0.05759 0.0
C1513 C 0.10922 0.4787 0.03922 0.0
C1514 C 0.12761 0.48563 0.03153 0.0
C1515 C 0.07422 0.46563 0.05307 0.0
C1516 C 0.0761 0.47442 0.04129 0.0
C1517 C 0.09371 0.48108 0.0346 0.0
C1518 C 0.05991 0.47673 0.03577 0.0
C1519 C 0.05629 0.45933 0.06114 0.0
C1520 C 0.0411 0.46051 0.03377 0.0
C1521 C 0.02565 0.46276 0.0291 0.0
C1522 C 0.02885 0.48118 0.02595 0.0
C1523 C 0.04769 0.4974 0.02783 0.0
C1524 C 0.06313 0.49517 0.03259 0.0
H1525 H 0.05965 0.4585 0.07116 0.0
H1526 H 0.05045 0.46943 0.06032 0.0
H1527 H 0.04458 0.44468 0.05811 0.0
H1528 H 0.03831 0.44609 0.03588 0.0
H1529 H 0.01119 0.45007 0.02786 0.0
H1530 H 0.56262 0.68789 0.08606 0.0
H1531 H 0.55459 0.65715 0.07582 0.0
H1532 H 0.53804 0.67521 0.04216 0.0
H1533 H 0.54622 0.70608 0.05229 0.0
H1534 H 0.51609 0.62929 0.0642 0.0
H1535 H 0.57933 0.65859 0.03136 0.0
H1536 H 0.57943 0.67143 0.04539 0.0
H1537 H 0.56539 0.67095 0.03195 0.0
C1538 C 0.55744 0.68538 0.07644 0.0
C1539 C 0.5551 0.6994 0.06996 0.0
C1540 C 0.55276 0.6678 0.07065 0.0
C1541 C 0.54589 0.66405 0.05823 0.0
C1542 C 0.54351 0.67796 0.05172 0.0
H1543 H 0.49026 0.55495 0.01686 0.0
H1544 H 0.49861 0.58616 0.0264 0.0
C1545 C 0.54804 0.69549 0.05754 0.0
C1546 C 0.54092 0.64541 0.05216 0.0
H1547 H 0.55541 0.62538 0.02915 0.0
C1548 C 0.52465 0.62839 0.05654 0.0
C1549 C 0.55225 0.64438 0.04223 0.0
C1550 C 0.57018 0.66225 0.03746 0.0
C1551 C 0.51927 0.61029 0.05113 0.0
C1552 C 0.53044 0.60929 0.0411 0.0
C1553 C 0.54683 0.62629 0.0368 0.0
C1554 C 0.52556 0.59062 0.03513 0.0
C1555 C 0.50188 0.59231 0.05628 0.0
C1556 C 0.53813 0.58301 0.03675 0.0
C1557 C 0.53344 0.5652 0.03132 0.0
C1558 C 0.51618 0.55481 0.02404 0.0
C1559 C 0.50373 0.56263 0.02233 0.0
C1560 C 0.5084 0.5804 0.02783 0.0
H1561 H 0.49693 0.59516 0.06538 0.0
H1562 H 0.48938 0.58688 0.04952 0.0
H1563 H 0.50561 0.58069 0.05755 0.0
H1564 H 0.55147 0.59077 0.04234 0.0
H1565 H 0.54337 0.55963 0.03281 0.0
H1566 H 0.86953 0.31446 0.93359 0.0
H1567 H 0.89356 0.34501 0.9437 0.0
H1568 H 0.85999 0.32746 0.97776 0.0
H1569 H 0.83603 0.29672 0.96779 0.0
H1570 H 0.88579 0.37353 0.955 0.0
H1571 H 0.91737 0.34312 0.98859 0.0
H1572 H 0.90336 0.3299 0.9749 0.0
H1573 H 0.89092 0.33181 0.98844 0.0
C1574 C 0.86736 0.31701 0.94328 0.0
C1575 C 0.85092 0.30314 0.94992 0.0
C1576 C 0.88104 0.33451 0.949 0.0
C1577 C 0.87864 0.33837 0.9615 0.0
C1578 C 0.86222 0.32463 0.96815 0.0
H1579 H 0.93636 0.44897 1.00101 0.0
H1580 H 0.91262 0.41781 0.99158 0.0
C1581 C 0.84847 0.30716 0.96241 0.0
C1582 C 0.89316 0.35697 0.96748 0.0
H1583 H 0.92792 0.37653 0.99075 0.0
C1584 C 0.89501 0.37421 0.96281 0.0
C1585 C 0.90527 0.35778 0.97758 0.0
C1586 C 0.90433 0.33971 0.98265 0.0
C1587 C 0.90853 0.39228 0.96809 0.0
C1588 C 0.92036 0.39305 0.97836 0.0
C1589 C 0.9187 0.37584 0.98293 0.0
C1590 C 0.93473 0.41167 0.98438 0.0
C1591 C 0.91027 0.41043 0.96255 0.0
C1592 C 0.95501 0.41833 0.98369 0.0
C1593 C 0.96865 0.43611 0.98913 0.0
C1594 C 0.96222 0.44744 0.99548 0.0
C1595 C 0.94184 0.44056 0.99629 0.0
C1596 C 0.92823 0.42282 0.99082 0.0
H1597 H 0.90328 0.4077 0.95313 0.0
H1598 H 0.90281 0.41596 0.96876 0.0
H1599 H 0.92598 0.42192 0.96181 0.0
H1600 H 0.96028 0.40987 0.97878 0.0
H1601 H 0.98421 0.44094 0.98833 0.0
H1602 H 0.70489 0.54518 0.97071 0.0
H1603 H 0.6748 0.54033 0.98095 0.0
H1604 H 0.64469 0.52593 0.94518 0.0
H1605 H 0.67513 0.53199 0.93492 0.0
H1606 H 0.63605 0.54841 0.95656 0.0
H1607 H 0.62651 0.49312 0.99108 0.0
H1608 H 0.64989 0.51479 0.99308 0.0
H1609 H 0.64457 0.50071 0.97883 0.0
C1610 C 0.69176 0.54085 0.9651 0.0
C1611 C 0.69226 0.53893 0.95205 0.0
C1612 C 0.67449 0.53788 0.97096 0.0
C1613 C 0.65719 0.53231 0.96393 0.0
C1614 C 0.65773 0.53017 0.95087 0.0
H1615 H 0.53954 0.49032 0.99461 0.0
H1616 H 0.57024 0.49339 0.98664 0.0
C1617 C 0.67511 0.5336 0.94499 0.0
C1618 C 0.63887 0.52984 0.96997 0.0
H1619 H 0.60696 0.50818 0.99419 0.0
C1620 C 0.62966 0.53946 0.96473 0.0
C1621 C 0.63021 0.51798 0.98055 0.0
C1622 C 0.63819 0.5059 0.98612 0.0
C1623 C 0.61227 0.53766 0.96973 0.0
C1624 C 0.60422 0.52667 0.98071 0.0
C1625 C 0.61327 0.51688 0.98591 0.0
C1626 C 0.58616 0.5248 0.98668 0.0
C1627 C 0.60242 0.5471 0.96287 0.0
C1628 C 0.58497 0.54135 0.98979 0.0
C1629 C 0.56733 0.53959 0.99415 0.0
C1630 C 0.55078 0.52124 0.99604 0.0
C1631 C 0.55218 0.50464 0.99351 0.0
C1632 C 0.56973 0.50641 0.9889 0.0
H1633 H 0.60658 0.5493 0.95284 0.0
H1634 H 0.58611 0.53826 0.96343 0.0
H1635 H 0.60724 0.56157 0.9671 0.0
H1636 H 0.59756 0.5557 0.98859 0.0
H1637 H 0.56657 0.55259 0.996 0.0
H1638 H 0.46181 0.16589 0.96895 0.0
H1639 H 0.47079 0.14438 0.97984 0.0
H1640 H 0.45818 0.10957 0.94632 0.0
H1641 H 0.44932 0.13106 0.93533 0.0
H1642 H 0.44566 0.10181 0.98253 0.0
H1643 H 0.51599 0.12485 0.95752 0.0
H1644 H 0.50439 0.13955 0.95817 0.0
H1645 H 0.49489 0.11895 0.94779 0.0
C1646 C 0.46107 0.15372 0.96389 0.0
C1647 C 0.45492 0.15018 0.95128 0.0
C1648 C 0.46611 0.14143 0.97013 0.0
C1649 C 0.46532 0.12556 0.96382 0.0
C1650 C 0.45906 0.12189 0.95128 0.0
H1651 H 0.46448 0.02283 0.98787 0.0
H1652 H 0.45737 0.04719 0.97962 0.0
C1653 C 0.45387 0.13407 0.94506 0.0
C1654 C 0.47077 0.11263 0.97039 0.0
H1655 H 0.50437 0.09726 0.9705 0.0
C1656 C 0.45855 0.10088 0.97998 0.0
C1657 C 0.48771 0.11166 0.96709 0.0
C1658 C 0.50164 0.12451 0.95715 0.0
C1659 C 0.46252 0.08767 0.98611 0.0
C1660 C 0.47908 0.0862 0.98249 0.0
C1661 C 0.49164 0.09839 0.97318 0.0
C1662 C 0.48317 0.07156 0.98792 0.0
C1663 C 0.44899 0.07531 0.99636 0.0
C1664 C 0.50018 0.07727 0.9952 0.0
C1665 C 0.5043 0.06337 0.99997 0.0
C1666 C 0.49157 0.04355 0.99741 0.0
C1667 C 0.47458 0.03794 0.99006 0.0
C1668 C 0.47042 0.05183 0.98538 0.0
H1669 H 0.43967 0.08116 0.99992 0.0
H1670 H 0.43911 0.06046 0.99265 0.0
H1671 H 0.45759 0.07422 1.00429 0.0
H1672 H 0.51026 0.09247 0.99717 0.0
H1673 H 0.51763 0.0682 0.00547 0.0
H1674 H 0.6803 0.12454 0.93707 0.0
H1675 H 0.65048 0.10202 0.9483 0.0
H1676 H 0.67094 0.13951 0.98082 0.0
H1677 H 0.70076 0.16229 0.96962 0.0
H1678 H 0.65674 0.10023 0.98621 0.0
H1679 H 0.60367 0.10967 0.95685 0.0
H1680 H 0.61951 0.10384 0.94802 0.0
H1681 H 0.62991 0.12639 0.95657 0.0
C1682 C 0.67837 0.12815 0.94656 0.0
C1683 C 0.6929 0.14529 0.95241 0.0
C1684 C 0.66131 0.11524 0.95297 0.0
C1685 C 0.65837 0.11924 0.96533 0.0
C1686 C 0.67291 0.13619 0.97127 0.0
H1687 H 0.54254 0.0504 0.99942 0.0
H1688 H 0.57415 0.07796 0.99326 0.0
C1689 C 0.68998 0.14913 0.96487 0.0
C1690 C 0.64028 0.10548 0.97211 0.0
H1691 H 0.59005 0.08259 0.97053 0.0
C1692 C 0.64214 0.0965 0.98287 0.0
C1693 C 0.62129 0.10087 0.96786 0.0
C1694 C 0.61841 0.11082 0.95676 0.0
C1695 C 0.62546 0.08243 0.98921 0.0
C1696 C 0.60643 0.07706 0.98455 0.0
C1697 C 0.60462 0.08662 0.97407 0.0
C1698 C 0.5882 0.06086 0.98991 0.0
C1699 C 0.62845 0.07345 1.00078 0.0
C1700 C 0.5856 0.0421 0.99021 0.0
C1701 C 0.56764 0.02641 0.99391 0.0
C1702 C 0.55194 0.02916 0.9974 0.0
C1703 C 0.55455 0.04792 0.99719 0.0
C1704 C 0.57257 0.06366 0.99355 0.0
H1705 H 0.64268 0.08349 0.00552 0.0
H1706 H 0.61633 0.06938 0.00754 0.0
H1707 H 0.62883 0.06017 0.99807 0.0
H1708 H 0.59719 0.03945 0.98709 0.0
H1709 H 0.56581 0.01201 0.99374 0.0
H1710 H 0.83974 0.53221 0.96854 0.0
H1711 H 0.86493 0.52699 0.97847 0.0
H1712 H 0.90027 0.54709 0.94519 0.0
H1713 H 0.87514 0.55224 0.9352 0.0
H1714 H 0.89767 0.51392 0.95382 0.0
H1715 H 0.91801 0.56703 0.99287 0.0
H1716 H 0.89224 0.54929 0.99209 0.0
H1717 H 0.90328 0.56645 0.97966 0.0
C1718 C 0.85298 0.53573 0.96339 0.0
C1719 C 0.85541 0.54268 0.95107 0.0
C1720 C 0.8674 0.53277 0.96909 0.0
C1721 C 0.88466 0.5369 0.96266 0.0
C1722 C 0.8871 0.5438 0.95036 0.0
H1723 H 0.99524 0.55164 0.99064 0.0
H1724 H 0.96793 0.55532 0.98256 0.0
C1725 C 0.87267 0.54667 0.94464 0.0
C1726 C 0.90001 0.53359 0.96853 0.0
H1727 H 0.93222 0.54684 0.99326 0.0
C1728 C 0.90521 0.52112 0.96245 0.0
C1729 C 0.90999 0.5431 0.97974 0.0
C1730 C 0.90577 0.55736 0.98643 0.0
C1731 C 0.92009 0.51793 0.96722 0.0
C1732 C 0.92985 0.52719 0.97853 0.0
C1733 C 0.92463 0.53963 0.98464 0.0
C1734 C 0.94613 0.52487 0.98384 0.0
C1735 C 0.92563 0.5051 0.9599 0.0
C1736 C 0.94295 0.50656 0.98734 0.0
C1737 C 0.95856 0.50446 0.9919 0.0
C1738 C 0.97752 0.52069 0.99334 0.0
C1739 C 0.98068 0.53896 0.98982 0.0
C1740 C 0.9651 0.54107 0.98523 0.0
H1741 H 0.92028 0.50303 0.95005 0.0
H1742 H 0.94187 0.51128 0.95987 0.0
H1743 H 0.91886 0.49064 0.96432 0.0
H1744 H 0.92841 0.49388 0.9865 0.0
H1745 H 0.95578 0.49012 0.99417 0.0
H1746 H 0.45765 0.29657 0.96683 0.0
H1747 H 0.46514 0.32712 0.97702 0.0
H1748 H 0.45146 0.34631 0.94275 0.0
H1749 H 0.44347 0.31564 0.93254 0.0
H1750 H 0.48891 0.37343 0.95486 0.0
H1751 H 0.42473 0.34488 0.98689 0.0
H1752 H 0.43849 0.33233 0.98689 0.0
H1753 H 0.42504 0.33177 0.9731 0.0
C1754 C 0.45593 0.30714 0.9615 0.0
C1755 C 0.44991 0.30361 0.94886 0.0
C1756 C 0.46027 0.32461 0.96734 0.0
C1757 C 0.45869 0.33885 0.96065 0.0
C1758 C 0.45275 0.33545 0.94805 0.0
H1759 H 0.46171 0.44355 0.98607 0.0
H1760 H 0.45338 0.41231 0.97661 0.0
C1761 C 0.44831 0.31796 0.94222 0.0
C1762 C 0.46373 0.35753 0.96668 0.0
H1763 H 0.44911 0.37792 0.98938 0.0
C1764 C 0.48024 0.37445 0.96241 0.0
C1765 C 0.45225 0.35873 0.97645 0.0
C1766 C 0.43403 0.34101 0.98108 0.0
C1767 C 0.48571 0.3926 0.96776 0.0
C1768 C 0.47442 0.39377 0.97765 0.0
C1769 C 0.45779 0.37688 0.98184 0.0
C1770 C 0.47943 0.41251 0.98359 0.0
C1771 C 0.50335 0.41045 0.96267 0.0
C1772 C 0.49676 0.42281 0.99073 0.0
C1773 C 0.50158 0.44066 0.99616 0.0
C1774 C 0.48909 0.44846 0.99457 0.0
C1775 C 0.47167 0.43799 0.98747 0.0
C1776 C 0.46684 0.42012 0.98208 0.0
H1777 H 0.50812 0.40755 0.95352 0.0
H1778 H 0.5 0.42235 0.96152 0.0
H1779 H 0.51584 0.4155 0.9694 0.0
H1780 H 0.50657 0.41706 0.99208 0.0
H1781 H 0.5152 0.44842 1.00147 0.0
H1782 H 0.13616 0.68715 0.08597 0.0
H1783 H 0.11272 0.65652 0.07577 0.0
H1784 H 0.14517 0.67582 0.04137 0.0
H1785 H 0.16894 0.70639 0.05154 0.0
H1786 H 0.10301 0.65864 0.03879 0.0
H1787 H 0.12478 0.61294 0.06591 0.0
H1788 H 0.11899 0.62834 0.07517 0.0
H1789 H 0.14006 0.63897 0.0651 0.0
C1790 C 0.13845 0.68484 0.07627 0.0
C1791 C 0.15454 0.69922 0.06961 0.0
C1792 C 0.12501 0.66734 0.07045 0.0
C1793 C 0.12737 0.66384 0.05787 0.0
C1794 C 0.14312 0.67826 0.0511 0.0
H1795 H 0.07001 0.55323 0.01839 0.0
H1796 H 0.09365 0.58477 0.0274 0.0
C1797 C 0.15663 0.69575 0.05692 0.0
C1798 C 0.11338 0.64512 0.05178 0.0
H1799 H 0.0965 0.59649 0.05284 0.0
C1800 C 0.10159 0.64504 0.04183 0.0
C1801 C 0.11176 0.62746 0.05568 0.0
C1802 C 0.12467 0.62683 0.06598 0.0
C1803 C 0.08791 0.62767 0.03582 0.0
C1804 C 0.08591 0.60996 0.03996 0.0
C1805 C 0.09797 0.61009 0.04976 0.0
C1806 C 0.07148 0.5911 0.0342 0.0
C1807 C 0.07589 0.6284 0.02499 0.0
C1808 C 0.05116 0.58415 0.03513 0.0
C1809 C 0.03757 0.56614 0.02994 0.0
C1810 C 0.04408 0.55474 0.02374 0.0
C1811 C 0.06447 0.56174 0.02291 0.0
C1812 C 0.07802 0.57972 0.02812 0.0
H1813 H 0.08235 0.64324 0.02113 0.0
H1814 H 0.0747 0.6183 0.01737 0.0
H1815 H 0.06077 0.6239 0.02824 0.0
H1816 H 0.0458 0.59257 0.03998 0.0
H1817 H 0.02199 0.56116 0.03082 0.0
H1818 H 0.29967 0.43619 0.05668 0.0
H1819 H 0.32993 0.44198 0.04637 0.0
H1820 H 0.36336 0.49442 0.06808 0.0
H1821 H 0.33312 0.48906 0.07825 0.0
H1822 H 0.35795 0.47545 0.0323 0.0
H1823 H 0.39129 0.46235 0.0745 0.0
H1824 H 0.36535 0.45458 0.07336 0.0
H1825 H 0.38303 0.4796 0.0764 0.0
C1826 C 0.31338 0.4491 0.05918 0.0
C1827 C 0.31386 0.46211 0.06836 0.0
C1828 C 0.33071 0.45232 0.05331 0.0
C1829 C 0.34893 0.46851 0.05655 0.0
C1830 C 0.3495 0.48166 0.06558 0.0
H1831 H 0.46419 0.51248 0.02126 0.0
H1832 H 0.43333 0.50927 0.02914 0.0
C1833 C 0.33217 0.47851 0.07143 0.0
C1834 C 0.36732 0.47156 0.05048 0.0
H1835 H 0.41072 0.4724 0.05626 0.0
C1836 C 0.36955 0.47491 0.03754 0.0
C1837 C 0.38233 0.47062 0.05732 0.0
C1838 C 0.38043 0.46645 0.07115 0.0
C1839 C 0.38646 0.47746 0.03129 0.0
C1840 C 0.40146 0.47657 0.03813 0.0
C1841 C 0.39922 0.47319 0.05105 0.0
C1842 C 0.41929 0.47833 0.032 0.0
C1843 C 0.38793 0.48035 0.01735 0.0
C1844 C 0.42155 0.46201 0.03084 0.0
C1845 C 0.43903 0.46377 0.02617 0.0
C1846 C 0.45463 0.4819 0.02257 0.0
C1847 C 0.45227 0.49823 0.02358 0.0
C1848 C 0.43467 0.49643 0.02817 0.0
H1849 H 0.37476 0.4802 0.01331 0.0
H1850 H 0.4012 0.4944 0.01514 0.0
H1851 H 0.38956 0.46865 0.01285 0.0
H1852 H 0.40992 0.44794 0.03382 0.0
H1853 H 0.44057 0.451 0.02567 0.0
H1854 H 0.55996 0.87408 0.08356 0.0
H1855 H 0.55026 0.89478 0.07244 0.0
H1856 H 0.53766 0.8593 0.03927 0.0
H1857 H 0.54665 0.83806 0.05039 0.0
H1858 H 0.56396 0.90383 0.03739 0.0
H1859 H 0.4909 0.87662 0.05989 0.0
H1860 H 0.51144 0.88158 0.06996 0.0
H1861 H 0.50277 0.8622 0.05868 0.0
C1862 C 0.55488 0.87048 0.07396 0.0
C1863 C 0.55404 0.85434 0.0679 0.0
C1864 C 0.54944 0.88239 0.06761 0.0
C1865 C 0.54317 0.87844 0.05509 0.0
C1866 C 0.54248 0.86253 0.04894 0.0
H1867 H 0.49005 0.93483 0.01315 0.0
H1868 H 0.49787 0.9108 0.02131 0.0
C1869 C 0.54776 0.85051 0.0553 0.0
C1870 C 0.53755 0.89114 0.0484 0.0
H1871 H 0.50232 0.90435 0.04718 0.0
C1872 C 0.55044 0.90389 0.03944 0.0
C1873 C 0.51981 0.89096 0.05105 0.0
C1874 C 0.50529 0.87704 0.06036 0.0
C1875 C 0.54629 0.91698 0.0333 0.0
C1876 C 0.52889 0.91732 0.03629 0.0
C1877 C 0.51569 0.9041 0.04496 0.0
C1878 C 0.52453 0.93184 0.03093 0.0
C1879 C 0.56057 0.93038 0.02369 0.0
C1880 C 0.53684 0.95157 0.03373 0.0
C1881 C 0.53245 0.96531 0.02908 0.0
C1882 C 0.51563 0.95959 0.02153 0.0
C1883 C 0.50327 0.93977 0.01877 0.0
C1884 C 0.50766 0.92601 0.02347 0.0
H1885 H 0.5703 0.92498 0.02015 0.0
H1886 H 0.55261 0.93215 0.01564 0.0
H1887 H 0.57006 0.94486 0.02803 0.0
H1888 H 0.54972 0.95631 0.03967 0.0
H1889 H 0.54225 0.98042 0.03146 0.0
H1890 H 0.9704 0.20781 0.39516 0.0
H1891 H 0.99996 0.23146 0.38419 0.0
H1892 H 0.02583 0.19524 0.38907 0.0
H1893 H 0.99659 0.17171 0.40043 0.0
H1894 H 0.04038 0.24911 0.39572 0.0
H1895 H 0.03204 0.21048 0.35048 0.0
H1896 H 0.01122 0.2052 0.3603 0.0
H1897 H 0.02795 0.19703 0.3647 0.0
C1898 C 0.98239 0.20486 0.39398 0.0
C1899 C 0.9811 0.18785 0.39876 0.0
C1900 C 0.99919 0.21833 0.3876 0.0
C1901 C 0.01494 0.21496 0.38571 0.0
C1902 C 0.01366 0.19791 0.39026 0.0
H1903 H 0.13212 0.28601 0.35452 0.0
H1904 H 0.10082 0.25874 0.36159 0.0
C1905 C 0.99691 0.18448 0.39673 0.0
C1906 C 0.03326 0.23 0.37981 0.0
H1907 H 0.0612 0.24068 0.35343 0.0
C1908 C 0.04493 0.24731 0.38647 0.0
C1909 C 0.0392 0.22744 0.36781 0.0
C1910 C 0.02697 0.2091 0.36031 0.0
C1911 C 0.0625 0.26217 0.38147 0.0
C1912 C 0.06823 0.25989 0.36931 0.0
C1913 C 0.05668 0.24244 0.3627 0.0
C1914 C 0.08619 0.27558 0.36341 0.0
C1915 C 0.07495 0.28003 0.38939 0.0
C1916 C 0.08808 0.29387 0.36163 0.0
C1917 C 0.10591 0.30941 0.35765 0.0
C1918 C 0.12198 0.30682 0.35502 0.0
C1919 C 0.11983 0.28831 0.35621 0.0
C1920 C 0.10199 0.27275 0.36031 0.0
H1921 H 0.07153 0.2772 0.3995 0.0
H1922 H 0.09091 0.28538 0.38809 0.0
H1923 H 0.0719 0.29167 0.38661 0.0
H1924 H 0.07594 0.29627 0.36373 0.0
H1925 H 0.10729 0.32359 0.35686 0.0
H1926 H 0.82444 0.78767 0.38227 0.0
H1927 H 0.79878 0.79243 0.37252 0.0
H1928 H 0.78591 0.80827 0.40852 0.0
H1929 H 0.81067 0.80229 0.41832 0.0
H1930 H 0.75358 0.78574 0.39782 0.0
H1931 H 0.79867 0.83969 0.36226 0.0
H1932 H 0.79949 0.81775 0.36031 0.0
H1933 H 0.80955 0.83224 0.37433 0.0
C1934 C 0.81616 0.79229 0.38803 0.0
C1935 C 0.81949 0.79467 0.40102 0.0
C1936 C 0.80163 0.7952 0.38245 0.0
C1937 C 0.79059 0.80116 0.38969 0.0
C1938 C 0.79417 0.80373 0.40268 0.0
H1939 H 0.71634 0.84447 0.35948 0.0
H1940 H 0.74343 0.84078 0.36778 0.0
C1941 C 0.80833 0.80035 0.40829 0.0
C1942 C 0.77458 0.80371 0.38396 0.0
H1943 H 0.76373 0.82508 0.35992 0.0
C1944 C 0.75592 0.7945 0.38959 0.0
C1945 C 0.77752 0.81532 0.37329 0.0
C1946 C 0.79745 0.82697 0.36729 0.0
C1947 C 0.74024 0.79648 0.38491 0.0
C1948 C 0.74288 0.80725 0.37387 0.0
C1949 C 0.76155 0.81658 0.36826 0.0
C1950 C 0.72663 0.8094 0.36822 0.0
C1951 C 0.72122 0.78749 0.39215 0.0
C1952 C 0.70821 0.79305 0.36544 0.0
C1953 C 0.69265 0.79519 0.36087 0.0
C1954 C 0.69542 0.81367 0.35844 0.0
C1955 C 0.71393 0.83003 0.36093 0.0
C1956 C 0.7294 0.82791 0.36574 0.0
H1957 H 0.72371 0.78553 0.40215 0.0
H1958 H 0.71407 0.7965 0.39172 0.0
H1959 H 0.71092 0.77295 0.38815 0.0
H1960 H 0.70579 0.77859 0.36688 0.0
H1961 H 0.67845 0.78238 0.3591 0.0
H1962 H 0.24804 0.04237 0.39532 0.0
H1963 H 0.23977 0.01175 0.38489 0.0
H1964 H 0.18079 0.98557 0.39951 0.0
H1965 H 0.18908 0.01599 0.41024 0.0
H1966 H 0.19913 0.96316 0.40267 0.0
H1967 H 0.20436 0.98789 0.35366 0.0
H1968 H 0.22569 0.00282 0.36321 0.0
H1969 H 0.20253 0.0012 0.36684 0.0
C1970 C 0.23334 0.03007 0.39637 0.0
C1971 C 0.2192 0.0316 0.40359 0.0
C1972 C 0.22858 0.01266 0.39029 0.0
C1973 C 0.20959 0.99652 0.39129 0.0
C1974 C 0.19548 0.99794 0.39855 0.0
H1975 H 0.15893 0.88886 0.34845 0.0
H1976 H 0.16617 0.9197 0.35801 0.0
C1977 C 0.20021 0.01535 0.40461 0.0
C1978 C 0.20464 0.97795 0.38508 0.0
H1979 H 0.20123 0.95691 0.35653 0.0
C1980 C 0.19951 0.96175 0.39258 0.0
C1981 C 0.20495 0.97615 0.37192 0.0
C1982 C 0.2095 0.99288 0.3634 0.0
C1983 C 0.19506 0.94385 0.38727 0.0
C1984 C 0.19601 0.94223 0.37414 0.0
C1985 C 0.20072 0.9583 0.36661 0.0
C1986 C 0.19208 0.9239 0.36805 0.0
C1987 C 0.18918 0.92676 0.39573 0.0
C1988 C 0.20448 0.91626 0.37037 0.0
C1989 C 0.2005 0.89871 0.36485 0.0
C1990 C 0.18406 0.88853 0.35687 0.0
C1991 C 0.17184 0.8964 0.35443 0.0
C1992 C 0.17588 0.91399 0.35992 0.0
H1993 H 0.18463 0.92915 0.40511 0.0
H1994 H 0.17687 0.91333 0.39153 0.0
H1995 H 0.20194 0.92448 0.39704 0.0
H1996 H 0.21724 0.92387 0.37647 0.0
H1997 H 0.21027 0.89313 0.3669 0.0
H1998 H 0.50285 0.62955 0.30049 0.0
H1999 H 0.52656 0.66056 0.3103 0.0
H2000 H 0.56017 0.67787 0.27625 0.0
H2001 H 0.53642 0.64704 0.26631 0.0
H2002 H 0.56896 0.6766 0.3132 0.0
H2003 H 0.54923 0.72287 0.28494 0.0
H2004 H 0.53319 0.69699 0.28621 0.0
H2005 H 0.55426 0.70649 0.27618 0.0
C2006 C 0.5152 0.64003 0.29506 0.0
C2007 C 0.51773 0.63588 0.28261 0.0
C2008 C 0.52877 0.65767 0.3007 0.0
C2009 C 0.54497 0.67154 0.29395 0.0
C2010 C 0.54763 0.66742 0.28156 0.0
H2011 H 0.65099 0.77395 0.32086 0.0
H2012 H 0.62712 0.74268 0.31151 0.0
C2013 C 0.53414 0.64975 0.27594 0.0
C2014 C 0.55921 0.69027 0.29991 0.0
H2015 H 0.57707 0.73904 0.29837 0.0
C2016 C 0.57075 0.69027 0.30999 0.0
C2017 C 0.56132 0.708 0.29574 0.0
C2018 C 0.54876 0.70871 0.28524 0.0
C2019 C 0.58461 0.70763 0.31591 0.0
C2020 C 0.58702 0.7254 0.31156 0.0
C2021 C 0.57526 0.72537 0.30161 0.0
C2022 C 0.6015 0.7442 0.31733 0.0
C2023 C 0.59638 0.70686 0.32687 0.0
C2024 C 0.59498 0.75552 0.32351 0.0
C2025 C 0.60855 0.77339 0.32884 0.0
C2026 C 0.62893 0.78033 0.32803 0.0
C2027 C 0.63542 0.76902 0.32171 0.0
C2028 C 0.6218 0.75109 0.31642 0.0
H2029 H 0.58989 0.692 0.33071 0.0
H2030 H 0.61161 0.71149 0.3238 0.0
H2031 H 0.59731 0.71688 0.33447 0.0
H2032 H 0.57935 0.7505 0.32424 0.0
H2033 H 0.60303 0.78184 0.33347 0.0
H2034 H 0.36682 0.8641 0.30208 0.0
H2035 H 0.33658 0.85793 0.31271 0.0
H2036 H 0.31743 0.87445 0.27949 0.0
H2037 H 0.34736 0.88022 0.26871 0.0
H2038 H 0.32298 0.88394 0.31742 0.0
H2039 H 0.26944 0.82187 0.28817 0.0
H2040 H 0.29557 0.83033 0.28814 0.0
H2041 H 0.28585 0.84287 0.27932 0.0
C2042 C 0.35606 0.86618 0.29697 0.0
C2043 C 0.35953 0.8726 0.28451 0.0
C2044 C 0.33883 0.86276 0.30309 0.0
C2045 C 0.3246 0.86547 0.29685 0.0
C2046 C 0.32803 0.87194 0.28443 0.0
H2047 H 0.23296 0.88444 0.3259 0.0
H2048 H 0.26365 0.88709 0.31833 0.0
C2049 C 0.34528 0.87544 0.27833 0.0
C2050 C 0.30645 0.86213 0.30341 0.0
H2051 H 0.25612 0.83627 0.3017 0.0
C2052 C 0.30836 0.8734 0.31405 0.0
C2053 C 0.28736 0.8482 0.29913 0.0
C2054 C 0.28435 0.83498 0.28814 0.0
C2055 C 0.29172 0.87159 0.32027 0.0
C2056 C 0.27261 0.85828 0.31564 0.0
C2057 C 0.27073 0.84655 0.30524 0.0
C2058 C 0.2544 0.85683 0.32106 0.0
C2059 C 0.2949 0.88401 0.33173 0.0
C2060 C 0.23872 0.83886 0.32488 0.0
C2061 C 0.22104 0.8373 0.32907 0.0
C2062 C 0.2188 0.85373 0.32964 0.0
C2063 C 0.23447 0.87164 0.32581 0.0
C2064 C 0.25207 0.87319 0.32157 0.0
H2065 H 0.30903 0.88788 0.33652 0.0
H2066 H 0.29559 0.89769 0.32886 0.0
H2067 H 0.28273 0.87662 0.33849 0.0
H2068 H 0.24005 0.82598 0.32445 0.0
H2069 H 0.20903 0.82319 0.33157 0.0
H2070 H 0.13805 0.50236 0.29772 0.0
H2071 H 0.1476 0.48111 0.30824 0.0
H2072 H 0.11728 0.43732 0.27972 0.0
H2073 H 0.10843 0.45878 0.26884 0.0
H2074 H 0.12458 0.44517 0.31812 0.0
H2075 H 0.17107 0.44169 0.28037 0.0
H2076 H 0.16291 0.45924 0.28048 0.0
H2077 H 0.14663 0.43481 0.27509 0.0
C2078 C 0.13367 0.48833 0.29357 0.0
C2079 C 0.12261 0.48235 0.28237 0.0
C2080 C 0.13902 0.47615 0.29965 0.0
C2081 C 0.13345 0.45778 0.29464 0.0
C2082 C 0.12211 0.45161 0.2836 0.0
H2083 H 0.1349 0.35608 0.31826 0.0
H2084 H 0.12843 0.38031 0.30905 0.0
C2085 C 0.11684 0.46381 0.27748 0.0
C2086 C 0.13911 0.44488 0.3011 0.0
H2087 H 0.16217 0.41854 0.29673 0.0
C2088 C 0.13297 0.43951 0.31349 0.0
C2089 C 0.1502 0.43762 0.29507 0.0
C2090 C 0.15827 0.44378 0.28207 0.0
C2091 C 0.13708 0.42655 0.31985 0.0
C2092 C 0.14755 0.41885 0.31365 0.0
C2093 C 0.15403 0.42446 0.30139 0.0
C2094 C 0.15132 0.40435 0.3196 0.0
C2095 C 0.1298 0.42072 0.33303 0.0
C2096 C 0.16641 0.40998 0.32853 0.0
C2097 C 0.1703 0.3962 0.33377 0.0
C2098 C 0.15904 0.37655 0.3302 0.0
C2099 C 0.14385 0.37104 0.32127 0.0
C2100 C 0.14009 0.38484 0.31599 0.0
H2101 H 0.12067 0.42699 0.33624 0.0
H2102 H 0.12093 0.40468 0.33362 0.0
H2103 H 0.14259 0.42568 0.3395 0.0
H2104 H 0.17532 0.42506 0.33132 0.0
H2105 H 0.18231 0.40102 0.34045 0.0
H2106 H 0.34736 0.45703 0.27069 0.0
H2107 H 0.31755 0.43481 0.28203 0.0
H2108 H 0.338 0.47317 0.31414 0.0
H2109 H 0.36782 0.49563 0.30282 0.0
H2110 H 0.32393 0.43426 0.32009 0.0
H2111 H 0.27059 0.44231 0.29011 0.0
H2112 H 0.28644 0.43626 0.28148 0.0
H2113 H 0.29681 0.45909 0.28971 0.0
C2114 C 0.34543 0.46089 0.2801 0.0
C2115 C 0.35996 0.47818 0.28581 0.0
C2116 C 0.32837 0.44816 0.28657 0.0
C2117 C 0.32543 0.45248 0.29886 0.0
C2118 C 0.33996 0.4696 0.30465 0.0
H2119 H 0.20958 0.38363 0.33307 0.0
H2120 H 0.24105 0.4113 0.32678 0.0
C2121 C 0.35704 0.48236 0.29818 0.0
C2122 C 0.30737 0.43887 0.30573 0.0
H2123 H 0.25712 0.41556 0.30409 0.0
C2124 C 0.30931 0.4303 0.31668 0.0
C2125 C 0.28834 0.43398 0.30139 0.0
C2126 C 0.28535 0.44352 0.2901 0.0
C2127 C 0.29268 0.41635 0.3231 0.0
C2128 C 0.27361 0.41065 0.31835 0.0
C2129 C 0.27172 0.41983 0.3077 0.0
C2130 C 0.25546 0.39445 0.32378 0.0
C2131 C 0.29574 0.40782 0.33487 0.0
C2132 C 0.25312 0.37581 0.32432 0.0
C2133 C 0.23524 0.36006 0.32809 0.0
C2134 C 0.21937 0.36264 0.33141 0.0
C2135 C 0.22173 0.3813 0.33097 0.0
C2136 C 0.23967 0.39709 0.32726 0.0
H2137 H 0.30992 0.41808 0.33956 0.0
H2138 H 0.28358 0.40388 0.34159 0.0
H2139 H 0.29625 0.39452 0.33242 0.0
H2140 H 0.26484 0.37327 0.32134 0.0
H2141 H 0.23362 0.34574 0.32809 0.0
H2142 H 0.50568 0.8641 0.30121 0.0
H2143 H 0.53076 0.85883 0.31125 0.0
H2144 H 0.56734 0.8809 0.27861 0.0
H2145 H 0.54235 0.88614 0.26851 0.0
H2146 H 0.56477 0.8474 0.28675 0.0
H2147 H 0.58318 0.89884 0.32662 0.0
H2148 H 0.55749 0.88094 0.32535 0.0
H2149 H 0.5689 0.89865 0.31327 0.0
C2150 C 0.51916 0.86804 0.29622 0.0
C2151 C 0.52198 0.87557 0.28405 0.0
C2152 C 0.53351 0.86504 0.30199 0.0
C2153 C 0.55109 0.86972 0.29577 0.0
C2154 C 0.55392 0.87719 0.28361 0.0
H2155 H 0.66141 0.88467 0.32436 0.0
H2156 H 0.63406 0.8883 0.3163 0.0
C2157 C 0.53956 0.88011 0.27783 0.0
C2158 C 0.56638 0.86639 0.30171 0.0
H2159 H 0.59783 0.87902 0.32681 0.0
C2160 C 0.57198 0.8543 0.29552 0.0
C2161 C 0.57592 0.87553 0.31311 0.0
C2162 C 0.57123 0.88936 0.31994 0.0
C2163 C 0.58685 0.85115 0.30035 0.0
C2164 C 0.59617 0.86004 0.31184 0.0
C2165 C 0.59056 0.87209 0.31806 0.0
C2166 C 0.61243 0.85776 0.31722 0.0
C2167 C 0.59283 0.83875 0.29293 0.0
C2168 C 0.60935 0.83942 0.32053 0.0
C2169 C 0.62497 0.83734 0.32509 0.0
C2170 C 0.64385 0.85362 0.32671 0.0
C2171 C 0.64691 0.87194 0.32339 0.0
C2172 C 0.63131 0.87402 0.31882 0.0
H2173 H 0.58771 0.83691 0.28304 0.0
H2174 H 0.6091 0.84516 0.29305 0.0
H2175 H 0.58615 0.82417 0.29717 0.0
H2176 H 0.59488 0.82668 0.31952 0.0
H2177 H 0.62227 0.82298 0.32719 0.0
H2178 H 0.09887 0.6228 0.29899 0.0
H2179 H 0.108 0.65327 0.30963 0.0
H2180 H 0.14734 0.68477 0.27952 0.0
H2181 H 0.13986 0.65437 0.26942 0.0
H2182 H 0.16415 0.70068 0.30031 0.0
H2183 H 0.08841 0.6891 0.30204 0.0
H2184 H 0.09021 0.6704 0.31009 0.0
H2185 H 0.09425 0.67311 0.29345 0.0
C2186 C 0.10973 0.63614 0.29469 0.0
C2187 C 0.11851 0.63596 0.28324 0.0
C2188 C 0.11464 0.65364 0.3007 0.0
C2189 C 0.12795 0.67138 0.29523 0.0
C2190 C 0.13687 0.67128 0.28389 0.0
H2191 H 0.13747 0.78084 0.3158 0.0
H2192 H 0.13014 0.75017 0.30621 0.0
C2193 C 0.13234 0.65381 0.27801 0.0
C2194 C 0.13293 0.69008 0.3014 0.0
H2195 H 0.11275 0.71553 0.31414 0.0
C2196 C 0.1529 0.70398 0.30325 0.0
C2197 C 0.11828 0.69454 0.30509 0.0
C2198 C 0.09662 0.68108 0.30244 0.0
C2199 C 0.15865 0.72217 0.30865 0.0
C2200 C 0.14398 0.72627 0.31287 0.0
C2201 C 0.12401 0.71235 0.31104 0.0
C2202 C 0.1489 0.74515 0.31875 0.0
C2203 C 0.18037 0.73696 0.30932 0.0
C2204 C 0.16187 0.75263 0.32904 0.0
C2205 C 0.16659 0.77056 0.33432 0.0
C2206 C 0.15782 0.781 0.32976 0.0
C2207 C 0.14449 0.77324 0.31963 0.0
C2208 C 0.14021 0.75561 0.31414 0.0
H2209 H 0.18882 0.73394 0.3022 0.0
H2210 H 0.18305 0.75187 0.30786 0.0
H2211 H 0.18625 0.73635 0.31866 0.0
H2212 H 0.16836 0.74464 0.33302 0.0
H2213 H 0.17715 0.77619 0.34194 0.0
H2214 H 0.83408 0.01382 0.4114 0.0
H2215 H 0.80987 0.98334 0.40138 0.0
H2216 H 0.78337 0.01272 0.38287 0.0
H2217 H 0.80739 0.04326 0.39296 0.0
H2218 H 0.7684 0.96407 0.40301 0.0
H2219 H 0.79381 0.98432 0.3541 0.0
H2220 H 0.80862 0.99777 0.36748 0.0
H2221 H 0.78862 0.00102 0.36229 0.0
C2222 C 0.82303 0.0138 0.40527 0.0
C2223 C 0.82271 0.03101 0.40297 0.0
C2224 C 0.80927 0.99638 0.3995 0.0
C2225 C 0.795 0.99583 0.39127 0.0
C2226 C 0.79452 0.01292 0.389 0.0
H2227 H 0.68825 0.89259 0.36538 0.0
H2228 H 0.71201 0.92364 0.37499 0.0
C2229 C 0.80827 0.03036 0.39477 0.0
C2230 C 0.78038 0.97726 0.38527 0.0
H2231 H 0.76429 0.95441 0.35693 0.0
C2232 C 0.76748 0.96194 0.39294 0.0
C2233 C 0.77939 0.97449 0.37214 0.0
C2234 C 0.79344 0.99019 0.36349 0.0
C2235 C 0.75346 0.94394 0.38781 0.0
C2236 C 0.75218 0.94131 0.37467 0.0
C2237 C 0.76521 0.95656 0.367 0.0
C2238 C 0.73773 0.92265 0.3687 0.0
C2239 C 0.7404 0.92776 0.39651 0.0
C2240 C 0.74432 0.91199 0.36178 0.0
C2241 C 0.7308 0.89425 0.35627 0.0
C2242 C 0.71039 0.88692 0.35745 0.0
C2243 C 0.70384 0.89775 0.3643 0.0
C2244 C 0.7174 0.91548 0.36984 0.0
H2245 H 0.74625 0.93067 0.40625 0.0
H2246 H 0.72552 0.92625 0.39661 0.0
H2247 H 0.73878 0.91376 0.39327 0.0
H2248 H 0.75996 0.91728 0.3608 0.0
H2249 H 0.7364 0.8862 0.35124 0.0
H2250 H 0.97402 0.80456 0.38311 0.0
H2251 H 0.00419 0.81042 0.37256 0.0
H2252 H 0.02163 0.79112 0.40527 0.0
H2253 H 0.99158 0.7853 0.41589 0.0
H2254 H 0.05196 0.82447 0.39606 0.0
H2255 H 0.01622 0.77059 0.35757 0.0
H2256 H 0.00823 0.78809 0.35871 0.0
H2257 H 0.0029 0.77115 0.37116 0.0
C2258 C 0.98418 0.80136 0.38802 0.0
C2259 C 0.98031 0.79439 0.40035 0.0
C2260 C 1.00142 0.8047 0.38195 0.0
C2261 C 0.01508 0.80094 0.38803 0.0
C2262 C 0.01132 0.79412 0.40037 0.0
H2263 H 0.10875 0.78498 0.35982 0.0
H2264 H 0.07782 0.7821 0.36718 0.0
C2265 C 0.99415 0.79086 0.40645 0.0
C2266 C 0.03349 0.80443 0.38171 0.0
H2267 H 0.05088 0.7908 0.35658 0.0
C2268 C 0.05172 0.81715 0.38741 0.0
C2269 C 0.03319 0.79476 0.37045 0.0
C2270 C 0.01411 0.78025 0.36415 0.0
C2271 C 0.06959 0.82034 0.38227 0.0
C2272 C 0.06931 0.81083 0.37095 0.0
C2273 C 0.0511 0.79823 0.36518 0.0
C2274 C 0.08761 0.81264 0.3655 0.0
C2275 C 0.08857 0.83332 0.38926 0.0
C2276 C 0.10331 0.8307 0.36185 0.0
C2277 C 0.12104 0.83236 0.3577 0.0
C2278 C 0.1232 0.81591 0.35683 0.0
C2279 C 0.10735 0.79783 0.36023 0.0
C2280 C 0.08968 0.79618 0.36442 0.0
H2281 H 0.08588 0.8359 0.3991 0.0
H2282 H 0.09836 0.82696 0.38929 0.0
H2283 H 0.09645 0.84756 0.38456 0.0
H2284 H 0.10198 0.84357 0.36243 0.0
H2285 H 0.13314 0.84656 0.35546 0.0
H2286 H 0.23569 0.21147 0.4157 0.0
H2287 H 0.22672 0.23287 0.40465 0.0
H2288 H 0.1972 0.18914 0.37602 0.0
H2289 H 0.206 0.16758 0.38702 0.0
H2290 H 0.2351 0.24248 0.37546 0.0
H2291 H 0.1572 0.20754 0.39157 0.0
H2292 H 0.1762 0.20678 0.40079 0.0
H2293 H 0.16726 0.19254 0.38672 0.0
C2294 C 0.22718 0.20637 0.40709 0.0
C2295 C 0.22153 0.18785 0.40222 0.0
C2296 C 0.22217 0.21862 0.40078 0.0
C2297 C 0.21127 0.21248 0.38959 0.0
C2298 C 0.20559 0.19405 0.38468 0.0
H2299 H 0.15959 0.26859 0.34609 0.0
H2300 H 0.16804 0.24508 0.35433 0.0
C2301 C 0.21072 0.18183 0.39093 0.0
C2302 C 0.20597 0.22546 0.38299 0.0
H2303 H 0.16822 0.23454 0.37845 0.0
C2304 C 0.22049 0.24077 0.37606 0.0
C2305 C 0.18684 0.22293 0.38371 0.0
C2306 C 0.17088 0.20662 0.39111 0.0
C2307 C 0.21637 0.25382 0.36985 0.0
C2308 C 0.19739 0.25175 0.37093 0.0
C2309 C 0.18277 0.23613 0.37767 0.0
C2310 C 0.19266 0.26606 0.36558 0.0
C2311 C 0.23233 0.26957 0.3621 0.0
C2312 C 0.20352 0.2856 0.36928 0.0
C2313 C 0.19892 0.29909 0.36447 0.0
C2314 C 0.18318 0.2933 0.35593 0.0
C2315 C 0.17207 0.27363 0.35241 0.0
C2316 C 0.17678 0.26014 0.35718 0.0
H2317 H 0.24333 0.26551 0.359 0.0
H2318 H 0.22607 0.27274 0.3537 0.0
H2319 H 0.24023 0.28301 0.36784 0.0
H2320 H 0.21546 0.29039 0.37603 0.0
H2321 H 0.20769 0.31406 0.36751 0.0
H2322 H 0.63974 0.50391 0.71615 0.0
H2323 H 0.66951 0.52653 0.70481 0.0
H2324 H 0.68963 0.56501 0.73686 0.0
H2325 H 0.6602 0.54232 0.74836 0.0
H2326 H 0.68301 0.56562 0.69895 0.0
H2327 H 0.737 0.55805 0.72858 0.0
H2328 H 0.71085 0.54096 0.72894 0.0
H2329 H 0.72089 0.56365 0.7373 0.0
C2330 C 0.65061 0.51709 0.72084 0.0
C2331 C 0.64763 0.52127 0.73319 0.0
C2332 C 0.66755 0.53003 0.71431 0.0
C2333 C 0.6819 0.5473 0.72006 0.0
C2334 C 0.6789 0.55161 0.73233 0.0
H2335 H 0.77247 0.65505 0.69156 0.0
H2336 H 0.7415 0.62702 0.69812 0.0
C2337 C 0.66196 0.53872 0.73884 0.0
C2338 C 0.69983 0.56109 0.71316 0.0
H2339 H 0.7501 0.58493 0.71471 0.0
C2340 C 0.6977 0.56971 0.7023 0.0
C2341 C 0.71895 0.56615 0.71743 0.0
C2342 C 0.72213 0.55659 0.72863 0.0
C2343 C 0.71421 0.5839 0.69591 0.0
C2344 C 0.73334 0.58977 0.70059 0.0
C2345 C 0.73545 0.58052 0.71114 0.0
C2346 C 0.75135 0.60628 0.69526 0.0
C2347 C 0.71096 0.59253 0.68425 0.0
C2348 C 0.76731 0.60403 0.69159 0.0
C2349 C 0.78511 0.62011 0.68798 0.0
C2350 C 0.78715 0.63865 0.68785 0.0
C2351 C 0.7711 0.64082 0.69135 0.0
C2352 C 0.75337 0.6248 0.695 0.0
H2353 H 0.6968 0.58222 0.67955 0.0
H2354 H 0.71026 0.60568 0.68686 0.0
H2355 H 0.72312 0.59674 0.6775 0.0
H2356 H 0.76617 0.58992 0.69185 0.0
H2357 H 0.7974 0.61808 0.6857 0.0
H2358 H 0.4651 0.09607 0.7304 0.0
H2359 H 0.43992 0.10149 0.72078 0.0
H2360 H 0.47715 0.16309 0.72619 0.0
H2361 H 0.50224 0.15786 0.7362 0.0
H2362 H 0.42197 0.12219 0.73296 0.0
H2363 H 0.45938 0.15564 0.68828 0.0
H2364 H 0.46603 0.14089 0.6976 0.0
H2365 H 0.47362 0.16524 0.70246 0.0
C2366 C 0.46796 0.11079 0.72965 0.0
C2367 C 0.48578 0.12651 0.73416 0.0
C2368 C 0.45358 0.11385 0.72404 0.0
C2369 C 0.45674 0.13269 0.72265 0.0
C2370 C 0.47454 0.14845 0.72697 0.0
H2371 H 0.38391 0.17776 0.69256 0.0
H2372 H 0.41106 0.17394 0.70068 0.0
C2373 C 0.4889 0.1454 0.73268 0.0
C2374 C 0.44097 0.13572 0.71728 0.0
H2375 H 0.42897 0.15415 0.69211 0.0
C2376 C 0.42345 0.12913 0.72401 0.0
C2377 C 0.44305 0.14495 0.70567 0.0
C2378 C 0.46145 0.15202 0.69799 0.0
C2379 C 0.408 0.13164 0.71952 0.0
C2380 C 0.40986 0.14049 0.70776 0.0
C2381 C 0.42748 0.14727 0.70108 0.0
C2382 C 0.39362 0.14274 0.70227 0.0
C2383 C 0.39005 0.12521 0.72759 0.0
C2384 C 0.37486 0.12648 0.70022 0.0
C2385 C 0.35935 0.12866 0.6956 0.0
C2386 C 0.36244 0.14707 0.69256 0.0
C2387 C 0.38124 0.16335 0.69447 0.0
C2388 C 0.39674 0.16118 0.69919 0.0
H2389 H 0.39339 0.12431 0.7376 0.0
H2390 H 0.38414 0.13526 0.72681 0.0
H2391 H 0.37838 0.11056 0.7245 0.0
H2392 H 0.37216 0.11206 0.70227 0.0
H2393 H 0.34493 0.11593 0.69433 0.0
H2394 H 0.91345 0.37477 0.72924 0.0
H2395 H 0.90507 0.34427 0.71861 0.0
H2396 H 0.84631 0.31787 0.73361 0.0
H2397 H 0.85473 0.34818 0.74456 0.0
H2398 H 0.86441 0.29533 0.73626 0.0
H2399 H 0.86947 0.32092 0.68751 0.0
H2400 H 0.89095 0.33562 0.69699 0.0
H2401 H 0.86791 0.33411 0.70085 0.0
C2402 C 0.89878 0.36244 0.73034 0.0
C2403 C 0.88474 0.3639 0.73773 0.0
C2404 C 0.89395 0.3451 0.72415 0.0
C2405 C 0.87498 0.32894 0.72518 0.0
C2406 C 0.86098 0.33026 0.73262 0.0
H2407 H 0.82463 0.22214 0.68126 0.0
H2408 H 0.83168 0.25275 0.69112 0.0
C2409 C 0.86578 0.3476 0.73881 0.0
C2410 C 0.86993 0.31045 0.71881 0.0
H2411 H 0.86647 0.28991 0.69006 0.0
C2412 C 0.86478 0.2941 0.72616 0.0
C2413 C 0.87021 0.30888 0.70562 0.0
C2414 C 0.87475 0.32575 0.69725 0.0
C2415 C 0.86029 0.27629 0.72069 0.0
C2416 C 0.86124 0.2749 0.70754 0.0
C2417 C 0.86596 0.29112 0.70016 0.0
C2418 C 0.8574 0.2567 0.70128 0.0
C2419 C 0.85438 0.25904 0.72901 0.0
C2420 C 0.86976 0.249 0.70357 0.0
C2421 C 0.86587 0.23159 0.6979 0.0
C2422 C 0.84958 0.22159 0.68978 0.0
C2423 C 0.83741 0.22953 0.68735 0.0
C2424 C 0.84135 0.24699 0.69301 0.0
H2425 H 0.84967 0.26122 0.73839 0.0
H2426 H 0.84218 0.24566 0.7247 0.0
H2427 H 0.86718 0.25683 0.73033 0.0
H2428 H 0.88241 0.25648 0.70976 0.0
H2429 H 0.87561 0.22596 0.69993 0.0
H2430 H 0.16971 0.96252 0.63487 0.0
H2431 H 0.19351 0.99349 0.64467 0.0
H2432 H 0.22708 0.01069 0.6106 0.0
H2433 H 0.20322 0.9799 0.60067 0.0
H2434 H 0.23593 0.00951 0.64755 0.0
H2435 H 0.21613 0.05571 0.61926 0.0
H2436 H 0.20009 0.02983 0.62057 0.0
H2437 H 0.22115 0.0393 0.61052 0.0
C2438 C 0.18208 0.97296 0.62944 0.0
C2439 C 0.18455 0.9688 0.61698 0.0
C2440 C 0.1957 0.99057 0.63507 0.0
C2441 C 0.21191 0.00441 0.62831 0.0
C2442 C 0.21454 0.00026 0.61592 0.0
H2443 H 0.31789 0.10694 0.65507 0.0
H2444 H 0.29402 0.07561 0.64581 0.0
C2445 C 0.20099 0.98261 0.6103 0.0
C2446 C 0.22615 0.02314 0.63425 0.0
H2447 H 0.24394 0.0719 0.63271 0.0
C2448 C 0.2377 0.02316 0.64433 0.0
C2449 C 0.22823 0.04087 0.63008 0.0
C2450 C 0.21566 0.04154 0.61958 0.0
C2451 C 0.25154 0.04054 0.65025 0.0
C2452 C 0.25392 0.0583 0.6459 0.0
C2453 C 0.24216 0.05825 0.63594 0.0
C2454 C 0.26839 0.07711 0.65166 0.0
C2455 C 0.26333 0.03979 0.66121 0.0
C2456 C 0.26187 0.08843 0.65784 0.0
C2457 C 0.27544 0.10634 0.66312 0.0
C2458 C 0.29583 0.11331 0.66226 0.0
C2459 C 0.30231 0.10198 0.65596 0.0
C2460 C 0.2887 0.08402 0.65071 0.0
H2461 H 0.25687 0.02494 0.66505 0.0
H2462 H 0.27857 0.04444 0.65814 0.0
H2463 H 0.26425 0.04981 0.66881 0.0
H2464 H 0.24624 0.08339 0.65858 0.0
H2465 H 0.26992 0.11479 0.66774 0.0
H2466 H 0.0161 0.21683 0.60326 0.0
H2467 H 0.98623 0.21134 0.61395 0.0
H2468 H 1.00198 0.18899 0.64588 0.0
H2469 H 0.03229 0.19508 0.63544 0.0
H2470 H 0.95503 0.17734 0.62254 0.0
H2471 H 0.99138 0.22948 0.66188 0.0
H2472 H 0.00456 0.22933 0.6481 0.0
H2473 H 0.99888 0.21167 0.66012 0.0
C2474 C 0.0134 0.211 0.61263 0.0
C2475 C 0.02676 0.20656 0.6185 0.0
C2476 C 0.9962 0.20772 0.61869 0.0
C2477 C 0.99195 0.2 0.63079 0.0
C2478 C 0.00508 0.19528 0.63664 0.0
H2479 H 0.87427 0.15614 0.66361 0.0
H2480 H 0.90506 0.15847 0.65641 0.0
C2481 C 0.02232 0.19857 0.63058 0.0
C2482 C 0.97363 0.19668 0.63714 0.0
H2483 H 0.95662 0.21023 0.66249 0.0
C2484 C 0.95537 0.18447 0.63131 0.0
C2485 C 0.97409 0.2061 0.64854 0.0
C2486 C 0.99326 0.22002 0.655 0.0
C2487 C 0.93761 0.18156 0.63646 0.0
C2488 C 0.93805 0.19088 0.64789 0.0
C2489 C 0.95629 0.20296 0.6538 0.0
C2490 C 0.91991 0.18943 0.65335 0.0
C2491 C 0.91858 0.16908 0.62939 0.0
C2492 C 0.91822 0.20611 0.65445 0.0
C2493 C 0.90075 0.20482 0.65871 0.0
C2494 C 0.88473 0.18689 0.66218 0.0
C2495 C 0.8865 0.17021 0.66128 0.0
C2496 C 0.90402 0.17151 0.65702 0.0
H2497 H 0.92121 0.16645 0.61955 0.0
H2498 H 0.91027 0.15483 0.63404 0.0
H2499 H 0.9092 0.1759 0.62936 0.0
H2500 H 0.93025 0.22008 0.65166 0.0
H2501 H 0.89967 0.21784 0.65918 0.0
H2502 H 0.79934 0.83404 0.63309 0.0
H2503 H 0.80797 0.81257 0.64436 0.0
H2504 H 0.79304 0.7757 0.61167 0.0
H2505 H 0.78447 0.79712 0.6003 0.0
H2506 H 0.78118 0.76995 0.64778 0.0
H2507 H 0.85083 0.78975 0.62277 0.0
H2508 H 0.84023 0.80535 0.62324 0.0
H2509 H 0.82981 0.78445 0.6131 0.0
C2510 C 0.79807 0.82145 0.62827 0.0
C2511 C 0.79129 0.81726 0.61581 0.0
C2512 C 0.80291 0.80918 0.63474 0.0
C2513 C 0.80128 0.7927 0.62879 0.0
C2514 C 0.79454 0.78848 0.61635 0.0
H2515 H 0.79741 0.68923 0.65443 0.0
H2516 H 0.79106 0.71386 0.64571 0.0
C2517 C 0.78954 0.80063 0.60992 0.0
C2518 C 0.80619 0.77962 0.63565 0.0
H2519 H 0.83859 0.76278 0.63632 0.0
C2520 C 0.79379 0.76844 0.64535 0.0
C2521 C 0.82275 0.77789 0.63249 0.0
C2522 C 0.83681 0.79008 0.6224 0.0
C2523 C 0.79722 0.75507 0.65175 0.0
C2524 C 0.8134 0.75288 0.64831 0.0
C2525 C 0.82615 0.76448 0.63887 0.0
C2526 C 0.81693 0.73808 0.65407 0.0
C2527 C 0.7835 0.74331 0.66211 0.0
C2528 C 0.83368 0.74361 0.66158 0.0
C2529 C 0.83735 0.72957 0.66662 0.0
C2530 C 0.82442 0.70977 0.6641 0.0
C2531 C 0.80765 0.70433 0.65657 0.0
C2532 C 0.80393 0.71837 0.65162 0.0
H2533 H 0.77435 0.74952 0.66537 0.0
H2534 H 0.77348 0.72834 0.65864 0.0
H2535 H 0.79196 0.74242 0.6702 0.0
H2536 H 0.84393 0.7588 0.66349 0.0
H2537 H 0.85051 0.73427 0.67227 0.0
H2538 H 0.01322 0.79084 0.60511 0.0
H2539 H 0.98339 0.76868 0.61646 0.0
H2540 H 0.0041 0.80686 0.64865 0.0
H2541 H 0.03395 0.82926 0.63733 0.0
H2542 H 0.98973 0.76791 0.65453 0.0
H2543 H 0.93671 0.77653 0.6246 0.0
H2544 H 0.95242 0.77035 0.61593 0.0
H2545 H 0.96296 0.79316 0.62421 0.0
C2546 C 0.01134 0.79467 0.61455 0.0
C2547 C 0.02595 0.8119 0.62028 0.0
C2548 C 0.99428 0.78198 0.62102 0.0
C2549 C 0.99139 0.78627 0.63333 0.0
C2550 C 0.00601 0.80331 0.63915 0.0
H2551 H 0.87507 0.71698 0.6668 0.0
H2552 H 0.90668 0.74484 0.66095 0.0
C2553 C 0.0231 0.81604 0.63268 0.0
C2554 C 0.9733 0.77271 0.64018 0.0
H2555 H 0.92307 0.74955 0.63842 0.0
C2556 C 0.97514 0.76403 0.6511 0.0
C2557 C 0.9543 0.76793 0.63582 0.0
C2558 C 0.95142 0.77762 0.62457 0.0
C2559 C 0.95845 0.75005 0.65746 0.0
C2560 C 0.93943 0.74443 0.65268 0.0
C2561 C 0.93763 0.75375 0.64206 0.0
C2562 C 0.92123 0.72813 0.65797 0.0
C2563 C 0.96141 0.74138 0.66921 0.0
C2564 C 0.91892 0.7095 0.65839 0.0
C2565 C 0.90097 0.69364 0.66192 0.0
C2566 C 0.88498 0.69609 0.6651 0.0
C2567 C 0.8873 0.71474 0.66481 0.0
C2568 C 0.90533 0.73065 0.66135 0.0
H2569 H 0.97553 0.75162 0.67397 0.0
H2570 H 0.94917 0.73732 0.67587 0.0
H2571 H 0.962 0.72815 0.66669 0.0
H2572 H 0.93074 0.70705 0.65548 0.0
H2573 H 0.89937 0.67932 0.6618 0.0
H2574 H 0.17208 0.19603 0.6346 0.0
H2575 H 0.19726 0.19092 0.64464 0.0
H2576 H 0.23352 0.21251 0.61183 0.0
H2577 H 0.20844 0.2176 0.60174 0.0
H2578 H 0.23121 0.17921 0.62027 0.0
H2579 H 0.24974 0.23141 0.65969 0.0
H2580 H 0.22407 0.21343 0.65856 0.0
H2581 H 0.23532 0.2309 0.64632 0.0
C2582 C 0.18551 0.19989 0.62957 0.0
C2583 C 0.18823 0.20727 0.61736 0.0
C2584 C 0.19992 0.19698 0.63534 0.0
C2585 C 0.21745 0.20159 0.62908 0.0
C2586 C 0.22014 0.20886 0.61687 0.0
H2587 H 0.32811 0.21746 0.65778 0.0
H2588 H 0.30067 0.22084 0.64959 0.0
C2589 C 0.20573 0.21169 0.61108 0.0
C2590 C 0.23285 0.19847 0.63506 0.0
H2591 H 0.26448 0.21168 0.66011 0.0
C2592 C 0.23847 0.18631 0.62899 0.0
C2593 C 0.24245 0.20784 0.64639 0.0
C2594 C 0.23776 0.22177 0.65309 0.0
C2595 C 0.25341 0.1833 0.63388 0.0
C2596 C 0.26279 0.19244 0.64531 0.0
C2597 C 0.25716 0.20457 0.65141 0.0
C2598 C 0.27911 0.19031 0.65075 0.0
C2599 C 0.25939 0.1708 0.62659 0.0
C2600 C 0.27609 0.17206 0.65423 0.0
C2601 C 0.29177 0.17012 0.65887 0.0
C2602 C 0.31063 0.18647 0.66039 0.0
C2603 C 0.31362 0.20469 0.65689 0.0
C2604 C 0.29797 0.20663 0.65225 0.0
H2605 H 0.25421 0.16875 0.6167 0.0
H2606 H 0.27567 0.17725 0.62668 0.0
H2607 H 0.25278 0.15631 0.63095 0.0
H2608 H 0.26164 0.15928 0.65331 0.0
H2609 H 0.28912 0.15582 0.66111 0.0
H2610 H 0.76402 0.95578 0.63171 0.0
H2611 H 0.77312 0.98633 0.64225 0.0
H2612 H 0.812 0.01765 0.61191 0.0
H2613 H 0.80457 0.98722 0.6019 0.0
H2614 H 0.82912 0.03371 0.63255 0.0
H2615 H 0.7534 0.02211 0.63486 0.0
H2616 H 0.7554 0.00351 0.64291 0.0
H2617 H 0.75909 0.00604 0.62623 0.0
C2618 C 0.77476 0.96911 0.62732 0.0
C2619 C 0.78343 0.96886 0.61585 0.0
C2620 C 0.77966 0.98664 0.63328 0.0
C2621 C 0.79284 0.00436 0.62773 0.0
C2622 C 0.80162 0.00419 0.61634 0.0
H2623 H 0.80301 0.11423 0.64816 0.0
H2624 H 0.79538 0.08342 0.63863 0.0
C2625 C 0.79711 0.98669 0.61053 0.0
C2626 C 0.79792 0.02311 0.63386 0.0
H2627 H 0.77798 0.04873 0.64671 0.0
C2628 C 0.81792 0.03704 0.63557 0.0
C2629 C 0.78334 0.02762 0.63765 0.0
C2630 C 0.76163 0.01411 0.6352 0.0
C2631 C 0.82377 0.05529 0.64089 0.0
C2632 C 0.80919 0.05945 0.64521 0.0
C2633 C 0.78919 0.04551 0.64354 0.0
C2634 C 0.81424 0.07838 0.65106 0.0
C2635 C 0.8455 0.07009 0.6414 0.0
C2636 C 0.82735 0.08589 0.66128 0.0
C2637 C 0.83223 0.10387 0.66653 0.0
C2638 C 0.82349 0.11437 0.66201 0.0
C2639 C 0.81003 0.10659 0.65195 0.0
C2640 C 0.80556 0.08888 0.6465 0.0
H2641 H 0.85382 0.06699 0.63422 0.0
H2642 H 0.84815 0.08498 0.63991 0.0
H2643 H 0.85155 0.06958 0.6507 0.0
H2644 H 0.83384 0.07787 0.66523 0.0
H2645 H 0.84289 0.10951 0.6741 0.0
H2646 H 0.50059 0.34731 0.74551 0.0
H2647 H 0.47663 0.31678 0.73542 0.0
H2648 H 0.45001 0.34588 0.7167 0.0
H2649 H 0.47378 0.37646 0.72685 0.0
H2650 H 0.43524 0.29718 0.73682 0.0
H2651 H 0.46096 0.31784 0.68801 0.0
H2652 H 0.47555 0.33136 0.70145 0.0
H2653 H 0.45546 0.33437 0.69614 0.0
C2654 C 0.48956 0.34721 0.73931 0.0
C2655 C 0.48915 0.36436 0.73697 0.0
C2656 C 0.47595 0.32977 0.73351 0.0
C2657 C 0.46173 0.32913 0.72519 0.0
C2658 C 0.46113 0.34614 0.72289 0.0
H2659 H 0.35529 0.22594 0.6991 0.0
H2660 H 0.37906 0.25694 0.70875 0.0
C2661 C 0.47474 0.36361 0.72869 0.0
C2662 C 0.44727 0.31054 0.71913 0.0
H2663 H 0.43138 0.2879 0.69071 0.0
C2664 C 0.43439 0.29512 0.72674 0.0
C2665 C 0.44636 0.30787 0.70599 0.0
C2666 C 0.46042 0.32366 0.6974 0.0
C2667 C 0.42045 0.27714 0.72155 0.0
C2668 C 0.41922 0.27463 0.7084 0.0
C2669 C 0.43225 0.28996 0.70079 0.0
C2670 C 0.40477 0.25602 0.70237 0.0
C2671 C 0.4074 0.26088 0.73019 0.0
C2672 C 0.41136 0.24544 0.69536 0.0
C2673 C 0.39783 0.22772 0.68982 0.0
C2674 C 0.37742 0.22035 0.69107 0.0
C2675 C 0.37088 0.23113 0.69798 0.0
C2676 C 0.38444 0.24883 0.70354 0.0
H2677 H 0.41327 0.26369 0.73993 0.0
H2678 H 0.39252 0.25936 0.73035 0.0
H2679 H 0.40577 0.2469 0.72688 0.0
H2680 H 0.42699 0.25075 0.69434 0.0
H2681 H 0.40341 0.21971 0.68473 0.0
H2682 H 0.63393 0.10299 0.72314 0.0
H2683 H 0.66422 0.10892 0.71279 0.0
H2684 H 0.6974 0.16172 0.73422 0.0
H2685 H 0.66713 0.15618 0.74444 0.0
H2686 H 0.69188 0.14205 0.69851 0.0
H2687 H 0.72591 0.13039 0.74091 0.0
H2688 H 0.69993 0.12247 0.73985 0.0
H2689 H 0.71755 0.14759 0.74262 0.0
C2690 C 0.6476 0.116 0.72557 0.0
C2691 C 0.648 0.12906 0.73469 0.0
C2692 C 0.66494 0.11931 0.71968 0.0
C2693 C 0.6831 0.13564 0.72283 0.0
C2694 C 0.68359 0.14884 0.73179 0.0
H2695 H 0.79823 0.17935 0.68728 0.0
H2696 H 0.76736 0.17624 0.69507 0.0
C2697 C 0.66625 0.1456 0.73766 0.0
C2698 C 0.70152 0.13876 0.71676 0.0
H2699 H 0.74518 0.14017 0.72261 0.0
C2700 C 0.7036 0.14177 0.70378 0.0
C2701 C 0.71669 0.13816 0.72363 0.0
C2702 C 0.71496 0.13433 0.73751 0.0
C2703 C 0.7205 0.14431 0.69753 0.0
C2704 C 0.73565 0.14374 0.70441 0.0
C2705 C 0.73357 0.14072 0.71737 0.0
C2706 C 0.75343 0.1454 0.69829 0.0
C2707 C 0.72179 0.14678 0.68356 0.0
C2708 C 0.75575 0.12909 0.69737 0.0
C2709 C 0.77324 0.13079 0.69277 0.0
C2710 C 0.78878 0.14884 0.68898 0.0
C2711 C 0.78635 0.16515 0.68974 0.0
C2712 C 0.76875 0.16341 0.69428 0.0
H2713 H 0.70865 0.14668 0.67951 0.0
H2714 H 0.73513 0.16066 0.68115 0.0
H2715 H 0.72317 0.13483 0.67921 0.0
H2716 H 0.74418 0.11509 0.70049 0.0
H2717 H 0.77484 0.11805 0.69247 0.0
H2718 H 0.86646 0.51855 0.74805 0.0
H2719 H 0.85822 0.54016 0.737 0.0
H2720 H 0.89837 0.54632 0.70752 0.0
H2721 H 0.90815 0.52622 0.71908 0.0
H2722 H 0.90251 0.57947 0.71231 0.0
H2723 H 0.82246 0.52873 0.70804 0.0
H2724 H 0.82992 0.53235 0.72416 0.0
H2725 H 0.83928 0.52114 0.71361 0.0
C2726 C 0.87382 0.52469 0.73932 0.0
C2727 C 0.88799 0.52048 0.7345 0.0
C2728 C 0.86873 0.53676 0.73285 0.0
C2729 C 0.87721 0.54446 0.72123 0.0
C2730 C 0.89142 0.54039 0.7164 0.0
H2731 H 0.82907 0.60254 0.67583 0.0
H2732 H 0.83819 0.57932 0.6836 0.0
C2733 C 0.89684 0.52866 0.72299 0.0
C2734 C 0.872 0.55749 0.71439 0.0
H2735 H 0.83311 0.56239 0.70475 0.0
C2736 C 0.88732 0.5756 0.71053 0.0
C2737 C 0.85222 0.55236 0.71176 0.0
C2738 C 0.83508 0.53249 0.71448 0.0
C2739 C 0.88342 0.58893 0.70451 0.0
C2740 C 0.86362 0.58441 0.7028 0.0
C2741 C 0.8483 0.56604 0.70625 0.0
C2742 C 0.85848 0.59868 0.69777 0.0
C2743 C 0.90064 0.60756 0.69989 0.0
C2744 C 0.86656 0.6172 0.70323 0.0
C2745 C 0.86188 0.6307 0.69853 0.0
C2746 C 0.84854 0.62583 0.68845 0.0
C2747 C 0.83984 0.60701 0.68331 0.0
C2748 C 0.84489 0.59363 0.68785 0.0
H2749 H 0.91346 0.60569 0.69774 0.0
H2750 H 0.89671 0.61281 0.69136 0.0
H2751 H 0.90537 0.61885 0.70733 0.0
H2752 H 0.87644 0.62123 0.71122 0.0
H2753 H 0.86864 0.64491 0.70291 0.0
H2754 H 0.44011 0.92605 0.1864 0.0
H2755 H 0.4477 0.93915 0.16519 0.0
H2756 H 0.50625 0.94728 0.16875 0.0
H2757 H 0.49864 0.93389 0.18982 0.0
H2758 H 0.47453 0.97399 0.15697 0.0
H2759 H 0.48985 0.91942 0.1357 0.0
H2760 H 0.4786 0.91614 0.15085 0.0
H2761 H 0.50496 0.93073 0.14926 0.0
C2762 C 0.4546 0.93061 0.18265 0.0
C2763 C 0.46872 0.92878 0.18978 0.0
C2764 C 0.4589 0.93804 0.1705 0.0
C2765 C 0.47742 0.94384 0.16522 0.0
C2766 C 0.49165 0.94234 0.17242 0.0
H2767 H 0.54247 0.00927 0.10127 0.0
H2768 H 0.53063 0.99189 0.121 0.0
C2769 C 0.4873 0.93474 0.1845 0.0
C2770 C 0.48215 0.95217 0.1524 0.0
H2771 H 0.50047 0.9486 0.1241 0.0
C2772 C 0.47997 0.96826 0.14975 0.0
C2773 C 0.48916 0.94469 0.1429 0.0
C2774 C 0.49059 0.92667 0.14477 0.0
C2775 C 0.48524 0.97743 0.13806 0.0
C2776 C 0.49286 0.97033 0.12876 0.0
C2777 C 0.49472 0.95406 0.13129 0.0
C2778 C 0.49974 0.98015 0.11655 0.0
C2779 C 0.4832 0.99501 0.13581 0.0
C2780 C 0.48627 0.97904 0.10741 0.0
C2781 C 0.49299 0.9889 0.09607 0.0
C2782 C 0.51333 0.00018 0.09373 0.0
C2783 C 0.52673 0.00093 0.10284 0.0
C2784 C 0.52 0.99094 0.1141 0.0
H2785 H 0.47925 9e-05 0.14446 0.0
H2786 H 0.49718 0.00705 0.13212 0.0
H2787 H 0.47151 0.99143 0.12867 0.0
H2788 H 0.47056 0.97068 0.1091 0.0
H2789 H 0.4823 0.98811 0.08928 0.0
H2790 H 0.02161 0.50785 0.19627 0.0
H2791 H 0.00747 0.50221 0.17514 0.0
H2792 H 0.06589 0.53462 0.15975 0.0
H2793 H 0.08011 0.54041 0.18085 0.0
H2794 H 0.04101 0.54587 0.15022 0.0
H2795 H 0.00595 0.46583 0.14778 0.0
H2796 H 0.9985 0.47434 0.16113 0.0
H2797 H 0.02379 0.48025 0.15972 0.0
C2798 C 0.03144 0.51353 0.18836 0.0
C2799 C 0.05197 0.52456 0.19021 0.0
C2800 C 0.02335 0.51026 0.1763 0.0
C2801 C 0.03565 0.51777 0.16586 0.0
C2802 C 0.05614 0.52867 0.16768 0.0
H2803 H 0.99943 0.4886 0.08794 0.0
H2804 H 0.01444 0.4927 0.10867 0.0
C2805 C 0.06423 0.53202 0.17973 0.0
C2806 C 0.02714 0.51508 0.15308 0.0
H2807 H 0.99713 0.48076 0.1317 0.0
C2808 C 0.03149 0.53163 0.14615 0.0
C2809 C 0.01494 0.4965 0.14772 0.0
C2810 C 0.01066 0.47821 0.15441 0.0
C2811 C 0.02369 0.53012 0.13408 0.0
C2812 C 0.01084 0.51154 0.12892 0.0
C2813 C 0.0068 0.49498 0.13574 0.0
C2814 C 1.00159 0.50901 0.1164 0.0
C2815 C 0.02955 0.54843 0.1269 0.0
C2816 C 0.98917 0.51659 0.11392 0.0
C2817 C 0.98074 0.51446 0.10204 0.0
C2818 C 0.98442 0.50454 0.09244 0.0
C2819 C 0.99656 0.49662 0.09505 0.0
C2820 C 0.00503 0.49881 0.10692 0.0
H2821 H 0.04345 0.56084 0.13062 0.0
H2822 H 0.03153 0.54646 0.11681 0.0
H2823 H 0.01777 0.55223 0.12774 0.0
H2824 H 0.986 0.52418 0.12117 0.0
H2825 H 0.97158 0.52086 0.10034 0.0
H2826 H 0.49554 0.55462 0.18888 0.0
H2827 H 0.50386 0.54907 0.16782 0.0
H2828 H 0.45114 0.4929 0.16657 0.0
H2829 H 0.4427 0.49834 0.18769 0.0
H2830 H 0.51088 0.52018 0.15997 0.0
H2831 H 0.44804 0.51667 0.13349 0.0
H2832 H 0.45415 0.52601 0.14931 0.0
H2833 H 0.44092 0.5003 0.14641 0.0
C2834 C 0.48571 0.54106 0.18414 0.0
C2835 C 0.46846 0.5269 0.18999 0.0
C2836 C 0.49044 0.53795 0.17208 0.0
C2837 C 0.47801 0.52067 0.16556 0.0
C2838 C 0.46073 0.50652 0.17131 0.0
H2839 H 0.51287 0.47627 0.10185 0.0
H2840 H 0.50202 0.48133 0.12225 0.0
C2841 C 0.45594 0.50964 0.18339 0.0
C2842 C 0.48368 0.51721 0.15296 0.0
H2843 H 0.46877 0.50803 0.12235 0.0
C2844 C 0.50169 0.51755 0.15174 0.0
C2845 C 0.47177 0.514 0.14221 0.0
C2846 C 0.45272 0.51439 0.14285 0.0
C2847 C 0.50804 0.51459 0.14009 0.0
C2848 C 0.49588 0.51083 0.1294 0.0
C2849 C 0.47797 0.51072 0.13058 0.0
C2850 C 0.50171 0.50731 0.11689 0.0
C2851 C 0.5279 0.51588 0.1393 0.0
C2852 C 0.50459 0.51992 0.10699 0.0
C2853 C 0.51078 0.51705 0.0953 0.0
C2854 C 0.51415 0.50147 0.09328 0.0
C2855 C 0.5108 0.48862 0.10316 0.0
C2856 C 0.50457 0.49148 0.11482 0.0
H2857 H 0.53742 0.52365 0.14752 0.0
H2858 H 0.52579 0.50103 0.13905 0.0
H2859 H 0.53572 0.52342 0.13066 0.0
H2860 H 0.50242 0.5322 0.10838 0.0
H2861 H 0.51337 0.52731 0.08794 0.0
H2862 H 0.98647 0.48785 0.82266 0.0
H2863 H 1.00026 0.49228 0.84383 0.0
H2864 H 0.94255 0.4721 0.85934 0.0
H2865 H 0.92853 0.46716 0.83822 0.0
H2866 H 0.99938 0.51541 0.86391 0.0
H2867 H 0.96131 0.43714 0.87556 0.0
H2868 H 0.96322 0.44563 0.85973 0.0
H2869 H 0.94543 0.44588 0.87018 0.0
C2870 C 0.97668 0.48422 0.83058 0.0
C2871 C 0.95638 0.47704 0.82875 0.0
C2872 C 0.98461 0.48688 0.84265 0.0
C2873 C 0.97238 0.48228 0.85313 0.0
C2874 C 0.95219 0.47547 0.85137 0.0
H2875 H 0.00913 0.51398 0.93085 0.0
H2876 H 0.99495 0.51037 0.90987 0.0
C2877 C 0.94425 0.47285 0.8393 0.0
C2878 C 0.98079 0.48458 0.86589 0.0
H2879 H 0.97927 0.45931 0.89193 0.0
C2880 C 0.995 0.50317 0.87005 0.0
C2881 C 0.97518 0.46852 0.8738 0.0
C2882 C 0.96058 0.44812 0.86959 0.0
C2883 C 0.00364 0.50618 0.882 0.0
C2884 C 0.99773 0.49017 0.89001 0.0
C2885 C 0.98366 0.47156 0.88579 0.0
C2886 C 0.00625 0.49237 0.90273 0.0
C2887 C 0.01929 0.52638 0.88587 0.0
C2888 C 0.01694 0.48311 0.90573 0.0
C2889 C 0.02493 0.48501 0.91773 0.0
C2890 C 0.02224 0.4961 0.92699 0.0
C2891 C 0.01136 0.50523 0.92396 0.0
C2892 C 0.00341 0.50335 0.91195 0.0
H2893 H 0.02541 0.5361 0.8777 0.0
H2894 H 0.01273 0.53262 0.89226 0.0
H2895 H 0.03156 0.52612 0.89095 0.0
H2896 H 0.01917 0.47446 0.89877 0.0
H2897 H 0.03297 0.47756 0.91981 0.0
H2898 H 0.52906 0.49232 0.82337 0.0
H2899 H 0.52067 0.49811 0.84436 0.0
H2900 H 0.54455 0.46444 0.86013 0.0
H2901 H 0.55308 0.45864 0.83915 0.0
H2902 H 0.50782 0.45428 0.86934 0.0
H2903 H 0.55712 0.53393 0.87195 0.0
H2904 H 0.54145 0.52601 0.85832 0.0
H2905 H 0.55983 0.51897 0.86026 0.0
C2906 C 0.53282 0.4864 0.83131 0.0
C2907 C 0.54181 0.47507 0.82957 0.0
C2908 C 0.52802 0.48973 0.84331 0.0
C2909 C 0.53224 0.48195 0.85383 0.0
C2910 C 0.54121 0.47064 0.85214 0.0
H2911 H 0.52296 0.51307 0.93108 0.0
H2912 H 0.53484 0.50736 0.91124 0.0
C2913 C 0.546 0.46727 0.84014 0.0
C2914 C 0.52654 0.48493 0.86653 0.0
H2915 H 0.53229 0.51991 0.88757 0.0
C2916 C 0.51327 0.46862 0.87337 0.0
C2917 C 0.53388 0.50364 0.87185 0.0
C2918 C 0.54901 0.52164 0.86528 0.0
C2919 C 0.5067 0.47053 0.88522 0.0
C2920 C 0.51333 0.48927 0.89028 0.0
C2921 C 0.52705 0.50556 0.88362 0.0
C2922 C 0.50603 0.4923 0.90241 0.0
C2923 C 0.49285 0.45245 0.89226 0.0
C2924 C 0.48591 0.48587 0.904 0.0
C2925 C 0.47905 0.48899 0.91535 0.0
C2926 C 0.4922 0.49874 0.92533 0.0
C2927 C 0.51239 0.50527 0.92367 0.0
C2928 C 0.51923 0.50213 0.9123 0.0
H2929 H 0.49365 0.43966 0.88884 0.0
H2930 H 0.4962 0.45432 0.90245 0.0
H2931 H 0.47749 0.44936 0.89086 0.0
H2932 H 0.4755 0.47856 0.89641 0.0
H2933 H 0.46341 0.48363 0.91633 0.0
H2934 H 0.55461 0.09947 0.83815 0.0
H2935 H 0.54732 0.08618 0.85933 0.0
H2936 H 0.51308 0.02847 0.84387 0.0
H2937 H 0.52061 0.04156 0.8227 0.0
H2938 H 0.50995 0.06388 0.8705 0.0
H2939 H 0.55073 0.02362 0.86873 0.0
H2940 H 0.55474 0.04221 0.85763 0.0
H2941 H 0.53378 0.01824 0.85591 0.0
C2942 C 0.54573 0.08392 0.83925 0.0
C2943 C 0.53825 0.07159 0.8287 0.0
C2944 C 0.54148 0.07636 0.85137 0.0
C2945 C 0.52986 0.05631 0.8532 0.0
C2946 C 0.52234 0.04396 0.8427 0.0
H2947 H 0.46386 0.99081 0.91708 0.0
H2948 H 0.47551 0.00811 0.89735 0.0
C2949 C 0.5265 0.0515 0.83059 0.0
C2950 C 0.52506 0.04829 0.86607 0.0
H2951 H 0.52886 0.01675 0.88584 0.0
C2952 C 0.5142 0.05368 0.87389 0.0
C2953 C 0.53083 0.03518 0.87056 0.0
C2954 C 0.54333 0.02958 0.86283 0.0
C2955 C 0.5084 0.04582 0.8859 0.0
C2956 C 0.51343 0.03206 0.89018 0.0
C2957 C 0.52486 0.02717 0.88253 0.0
C2958 C 0.50644 0.02212 0.90239 0.0
C2959 C 0.49695 0.05233 0.89394 0.0
C2960 C 0.51996 0.02402 0.91176 0.0
C2961 C 0.51332 0.01405 0.92307 0.0
C2962 C 0.49304 0.00177 0.92516 0.0
C2963 C 0.47957 -0.0 0.91575 0.0
C2964 C 0.48621 0.01003 0.9045 0.0
H2965 H 0.49886 0.06643 0.8908 0.0
H2966 H 0.48102 0.04139 0.8933 0.0
H2967 H 0.50159 0.05374 0.90391 0.0
H2968 H 0.53565 0.03316 0.9103 0.0
H2969 H 0.52409 0.01559 0.93005 0.0
H2970 H 0.16334 0.26321 0.52238 0.0
H2971 H 0.17103 0.27725 0.50148 0.0
H2972 H 0.11711 0.27938 0.50104 0.0
H2973 H 0.10896 0.26476 0.5218 0.0
H2974 H 0.12413 0.26581 0.47842 0.0
H2975 H 0.19005 0.33422 0.49404 0.0
H2976 H 0.19054 0.31269 0.49825 0.0
H2977 H 0.17221 0.31732 0.50486 0.0
C2978 C 0.15298 0.26645 0.51781 0.0
C2979 C 0.13555 0.26291 0.52385 0.0
C2980 C 0.15752 0.27469 0.50589 0.0
C2981 C 0.14481 0.27967 0.49976 0.0
C2982 C 0.12721 0.27579 0.50562 0.0
H2983 H 0.1749 0.35872 0.43762 0.0
H2984 H 0.16428 0.34162 0.45747 0.0
C2985 C 0.12265 0.26756 0.51755 0.0
C2986 C 0.14995 0.28909 0.48728 0.0
H2987 H 0.18451 0.32943 0.47216 0.0
C2988 C 0.13732 0.27973 0.47704 0.0
C2989 C 0.16703 0.30737 0.48552 0.0
C2990 C 0.18067 0.31861 0.49626 0.0
C2991 C 0.14144 0.28805 0.46506 0.0
C2992 C 0.15879 0.3061 0.46324 0.0
C2993 C 0.17129 0.31552 0.47352 0.0
C2994 C 0.16412 0.31581 0.45085 0.0
C2995 C 0.12696 0.27763 0.45453 0.0
C2996 C 0.1675 0.307 0.44044 0.0
C2997 C 0.17362 0.31679 0.42904 0.0
C2998 C 0.17668 0.33568 0.42785 0.0
C2999 C 0.17297 0.34431 0.43824 0.0
C3000 C 0.16682 0.33451 0.4496 0.0
H3001 H 0.11222 0.26677 0.45809 0.0
H3002 H 0.12526 0.28802 0.44851 0.0
H3003 H 0.13249 0.26987 0.44864 0.0
H3004 H 0.16592 0.29275 0.44123 0.0
H3005 H 0.17658 0.30982 0.42128 0.0
H3006 H 0.68943 0.83596 0.52916 0.0
H3007 H 0.67461 0.82929 0.5082 0.0
H3008 H 0.73083 0.87046 0.49267 0.0
H3009 H 0.74594 0.87665 0.51347 0.0
H3010 H 0.67218 0.85505 0.49241 0.0
H3011 H 0.7137 0.82371 0.46982 0.0
H3012 H 0.71343 0.82667 0.48657 0.0
H3013 H 0.72933 0.84697 0.47698 0.0
C3014 C 0.69873 0.84332 0.52125 0.0
C3015 C 0.71889 0.85681 0.523 0.0
C3016 C 0.6902 0.83959 0.5093 0.0
C3017 C 0.70167 0.84917 0.49886 0.0
C3018 C 0.72178 0.86261 0.50055 0.0
H3019 H 0.67985 0.8595 0.42084 0.0
H3020 H 0.6937 0.86222 0.44181 0.0
C3021 C 0.73034 0.86632 0.51249 0.0
C3022 C 0.69241 0.84586 0.48628 0.0
H3023 H 0.69522 0.83247 0.45625 0.0
C3024 C 0.67708 0.84994 0.48453 0.0
C3025 C 0.69886 0.83922 0.47601 0.0
C3026 C 0.7146 0.8337 0.47744 0.0
C3027 C 0.66837 0.84804 0.47271 0.0
C3028 C 0.67502 0.84167 0.46242 0.0
C3029 C 0.69021 0.83741 0.46418 0.0
C3030 C 0.66658 0.83963 0.44971 0.0
C3031 C 0.65249 0.85336 0.47124 0.0
C3032 C 0.64681 0.82584 0.44719 0.0
C3033 C 0.63887 0.82414 0.4352 0.0
C3034 C 0.65059 0.83618 0.42549 0.0
C3035 C 0.67047 0.84985 0.42805 0.0
C3036 C 0.6784 0.85149 0.44003 0.0
H3037 H 0.65204 0.86188 0.47939 0.0
H3038 H 0.65478 0.86189 0.46261 0.0
H3039 H 0.63793 0.83992 0.47043 0.0
H3040 H 0.63756 0.81632 0.4545 0.0
H3041 H 0.62362 0.81324 0.4335 0.0
H3042 H 0.15125 0.84692 0.52993 0.0
H3043 H 0.15977 0.84261 0.50861 0.0
H3044 H 0.12422 0.8654 0.49388 0.0
H3045 H 0.116 0.87023 0.51521 0.0
H3046 H 0.1349 0.82081 0.48834 0.0
H3047 H 0.17872 0.89945 0.47783 0.0
H3048 H 0.17183 0.89051 0.49355 0.0
H3049 H 0.15403 0.89104 0.48316 0.0
C3050 C 0.14534 0.85114 0.52216 0.0
C3051 C 0.13308 0.85907 0.52428 0.0
C3052 C 0.15012 0.84855 0.50999 0.0
C3053 C 0.14284 0.85393 0.49968 0.0
C3054 C 0.13023 0.86142 0.50172 0.0
H3055 H 0.15213 0.82388 0.42184 0.0
H3056 H 0.13948 0.82778 0.44193 0.0
C3057 C 0.12539 0.86399 0.51391 0.0
C3058 C 0.14867 0.85181 0.48683 0.0
H3059 H 0.17465 0.87766 0.46146 0.0
C3060 C 0.1435 0.83321 0.48242 0.0
C3061 C 0.16007 0.86805 0.47921 0.0
C3062 C 0.16667 0.88843 0.48367 0.0
C3063 C 0.14949 0.83042 0.47059 0.0
C3064 C 0.16077 0.84665 0.46292 0.0
C3065 C 0.16587 0.86524 0.46732 0.0
C3066 C 0.16827 0.84475 0.45058 0.0
C3067 C 0.14421 0.8102 0.46652 0.0
C3068 C 0.18865 0.85342 0.44868 0.0
C3069 C 0.19592 0.85134 0.43721 0.0
C3070 C 0.18295 0.84063 0.42735 0.0
C3071 C 0.16252 0.83229 0.42921 0.0
C3072 C 0.15525 0.83435 0.44072 0.0
H3073 H 0.13916 0.79998 0.47449 0.0
H3074 H 0.1321 0.80475 0.45949 0.0
H3075 H 0.15703 0.8102 0.46211 0.0
H3076 H 0.19894 0.86162 0.45615 0.0
H3077 H 0.21173 0.85821 0.43603 0.0
H3078 H 0.6512 0.82275 0.15591 0.0
H3079 H 0.66532 0.82766 0.177 0.0
H3080 H 0.60739 0.80497 0.19277 0.0
H3081 H 0.59306 0.79951 0.1717 0.0
H3082 H 0.66358 0.84991 0.19723 0.0
H3083 H 0.62845 0.77166 0.20857 0.0
H3084 H 0.62973 0.78017 0.19279 0.0
H3085 H 0.61174 0.77956 0.20345 0.0
C3086 C 0.64144 0.81867 0.16386 0.0
C3087 C 0.62099 0.81059 0.16212 0.0
C3088 C 0.64955 0.82161 0.1759 0.0
C3089 C 0.63736 0.81643 0.18642 0.0
C3090 C 0.61701 0.80878 0.18476 0.0
H3091 H 0.67505 0.84826 0.26402 0.0
H3092 H 0.66043 0.8445 0.24317 0.0
C3093 C 0.60888 0.80586 0.17272 0.0
C3094 C 0.64601 0.81895 0.19913 0.0
H3095 H 0.64615 0.79397 0.22492 0.0
C3096 C 0.65978 0.8377 0.2033 0.0
C3097 C 0.64117 0.80295 0.20694 0.0
C3098 C 0.6271 0.78242 0.20271 0.0
C3099 C 0.66874 0.84091 0.21516 0.0
C3100 C 0.66359 0.82495 0.22307 0.0
C3101 C 0.64995 0.80618 0.21885 0.0
C3102 C 0.67248 0.82734 0.23569 0.0
C3103 C 0.68391 0.86129 0.21903 0.0
C3104 C 0.68377 0.8186 0.23846 0.0
C3105 C 0.69199 0.82057 0.25039 0.0
C3106 C 0.68896 0.83121 0.25981 0.0
C3107 C 0.67754 0.83986 0.25701 0.0
C3108 C 0.66935 0.8379 0.24507 0.0
H3109 H 0.68958 0.87111 0.21087 0.0
H3110 H 0.67708 0.86709 0.22555 0.0
H3111 H 0.69655 0.86152 0.22395 0.0
H3112 H 0.68624 0.81028 0.23137 0.0
H3113 H 0.70046 0.8135 0.25229 0.0
H3114 H 0.21626 0.78748 0.1729 0.0
H3115 H 0.20619 0.79271 0.19354 0.0
H3116 H 0.192 0.83396 0.17778 0.0
H3117 H 0.20114 0.82819 0.15705 0.0
H3118 H 0.21992 0.82563 0.2081 0.0
H3119 H 0.14134 0.7972 0.19551 0.0
H3120 H 0.15795 0.79373 0.1856 0.0
H3121 H 0.15808 0.81638 0.18554 0.0
C3122 C 0.21078 0.79751 0.17379 0.0
C3123 C 0.20937 0.80729 0.16326 0.0
C3124 C 0.20518 0.80059 0.18562 0.0
C3125 C 0.198 0.81346 0.18717 0.0
C3126 C 0.19709 0.82364 0.17677 0.0
H3127 H 0.1572 0.85353 0.24965 0.0
H3128 H 0.16905 0.84881 0.22953 0.0
C3129 C 0.2026 0.82052 0.16493 0.0
C3130 C 0.19148 0.81625 0.19967 0.0
H3131 H 0.15203 0.81327 0.21522 0.0
C3132 C 0.20505 0.82283 0.20968 0.0
C3133 C 0.17204 0.81251 0.20173 0.0
C3134 C 0.15645 0.80439 0.19157 0.0
C3135 C 0.19982 0.82619 0.22162 0.0
C3136 C 0.18048 0.82271 0.22361 0.0
C3137 C 0.16689 0.81603 0.21364 0.0
C3138 C 0.17397 0.82589 0.23598 0.0
C3139 C 0.21512 0.83383 0.23196 0.0
C3140 C 0.17269 0.81448 0.24626 0.0
C3141 C 0.16572 0.81699 0.25776 0.0
C3142 C 0.15985 0.83096 0.25919 0.0
C3143 C 0.16131 0.84245 0.24886 0.0
C3144 C 0.1682 0.83987 0.23736 0.0
H3145 H 0.23028 0.83969 0.22827 0.0
H3146 H 0.21445 0.8454 0.23741 0.0
H3147 H 0.21214 0.82187 0.23845 0.0
H3148 H 0.17672 0.80336 0.24532 0.0
H3149 H 0.16449 0.80766 0.26543 0.0
H3150 H 0.18636 0.37489 0.15623 0.0
H3151 H 0.17874 0.36171 0.17739 0.0
H3152 H 0.21347 0.4193 0.19293 0.0
H3153 H 0.22085 0.43267 0.17178 0.0
H3154 H 0.20513 0.36491 0.19695 0.0
H3155 H 0.15952 0.3976 0.21044 0.0
H3156 H 0.16563 0.39591 0.19438 0.0
H3157 H 0.18368 0.4142 0.20463 0.0
C3158 C 0.19225 0.38479 0.16414 0.0
C3159 C 0.20412 0.40487 0.16228 0.0
C3160 C 0.18798 0.37721 0.17624 0.0
C3161 C 0.19534 0.38952 0.18676 0.0
C3162 C 0.20741 0.40954 0.18496 0.0
H3163 H 0.19206 0.3494 0.26369 0.0
H3164 H 0.20309 0.36672 0.24382 0.0
C3165 C 0.21176 0.41714 0.17285 0.0
C3166 C 0.19037 0.38131 0.19957 0.0
H3167 H 0.1654 0.38016 0.22602 0.0
C3168 C 0.19652 0.36831 0.20334 0.0
C3169 C 0.17899 0.38563 0.20785 0.0
C3170 C 0.1714 0.39897 0.20414 0.0
C3171 C 0.19158 0.35949 0.21514 0.0
C3172 C 0.18032 0.3639 0.22345 0.0
C3173 C 0.17418 0.37693 0.21969 0.0
C3174 C 0.17378 0.35428 0.23579 0.0
C3175 C 0.19797 0.34507 0.21849 0.0
C3176 C 0.15363 0.34199 0.23804 0.0
C3177 C 0.14729 0.33216 0.24937 0.0
C3178 C 0.16096 0.33451 0.25879 0.0
C3179 C 0.18113 0.34731 0.25667 0.0
C3180 C 0.18748 0.35708 0.24527 0.0
H3181 H 0.20308 0.3404 0.21018 0.0
H3182 H 0.21033 0.35183 0.22535 0.0
H3183 H 0.1857 0.33206 0.22288 0.0
H3184 H 0.14278 0.33971 0.2309 0.0
H3185 H 0.13163 0.32267 0.25076 0.0
H3186 H 0.77298 0.5945 0.85439 0.0
H3187 H 0.78107 0.60865 0.83351 0.0
H3188 H 0.83553 0.60753 0.83451 0.0
H3189 H 0.82791 0.59402 0.85556 0.0
H3190 H 0.84091 0.64234 0.82673 0.0
H3191 H 0.77912 0.58284 0.80011 0.0
H3192 H 0.77127 0.59157 0.81315 0.0
H3193 H 0.78551 0.57987 0.81587 0.0
C3194 C 0.78672 0.5973 0.8502 0.0
C3195 C 0.79976 0.59305 0.8567 0.0
C3196 C 0.7912 0.60518 0.83817 0.0
C3197 C 0.80877 0.60887 0.83232 0.0
C3198 C 0.82181 0.60466 0.83877 0.0
H3199 H 0.84154 0.64139 0.75424 0.0
H3200 H 0.83142 0.62407 0.77415 0.0
C3201 C 0.81735 0.59679 0.85079 0.0
C3202 C 0.81403 0.61799 0.81975 0.0
H3203 H 0.79818 0.61258 0.78933 0.0
C3204 C 0.83159 0.63578 0.81855 0.0
C3205 C 0.80202 0.60933 0.80901 0.0
C3206 C 0.78352 0.58976 0.80953 0.0
C3207 C 0.83728 0.64532 0.80702 0.0
C3208 C 0.8249 0.63705 0.79639 0.0
C3209 C 0.80755 0.61904 0.7975 0.0
C3210 C 0.82977 0.64698 0.78408 0.0
C3211 C 0.85665 0.66409 0.80629 0.0
C3212 C 0.83164 0.66535 0.78292 0.0
C3213 C 0.83737 0.67525 0.77158 0.0
C3214 C 0.84126 0.66695 0.76108 0.0
C3215 C 0.83859 0.64818 0.76211 0.0
C3216 C 0.83288 0.63829 0.7735 0.0
H3217 H 0.86669 0.6657 0.81416 0.0
H3218 H 0.86423 0.66505 0.79734 0.0
H3219 H 0.85385 0.67643 0.80681 0.0
H3220 H 0.82882 0.67215 0.79085 0.0
H3221 H 0.83885 0.68948 0.77105 0.0
H3222 H 0.41783 0.209 0.84632 0.0
H3223 H 0.40264 0.20337 0.8255 0.0
H3224 H 0.34493 0.17155 0.84194 0.0
H3225 H 0.36 0.17707 0.86277 0.0
H3226 H 0.34894 0.15338 0.82094 0.0
H3227 H 0.37457 0.23083 0.81165 0.0
H3228 H 0.39403 0.22601 0.81551 0.0
H3229 H 0.37574 0.22217 0.827 0.0
C3230 C 0.4019 0.20089 0.8455 0.0
C3231 C 0.39011 0.19357 0.85619 0.0
C3232 C 0.39325 0.19771 0.83361 0.0
C3233 C 0.37265 0.18733 0.8322 0.0
C3234 C 0.36086 0.17965 0.84282 0.0
H3235 H 0.30548 0.18648 0.76729 0.0
H3236 H 0.32013 0.19015 0.78809 0.0
C3237 C 0.36949 0.18275 0.85471 0.0
C3238 C 0.36335 0.18446 0.81967 0.0
H3239 H 0.35923 0.20877 0.79472 0.0
C3240 C 0.35115 0.16548 0.8152 0.0
C3241 C 0.36606 0.20028 0.8123 0.0
C3242 C 0.37815 0.22097 0.81688 0.0
C3243 C 0.34174 0.16186 0.80347 0.0
C3244 C 0.34492 0.17769 0.79594 0.0
C3245 C 0.35695 0.19667 0.80047 0.0
C3246 C 0.33568 0.17492 0.78339 0.0
C3247 C 0.32817 0.14114 0.79938 0.0
C3248 C 0.33965 0.16523 0.77382 0.0
C3249 C 0.33113 0.16292 0.76196 0.0
C3250 C 0.31861 0.17043 0.75939 0.0
C3251 C 0.31478 0.18025 0.76899 0.0
C3252 C 0.32327 0.18249 0.78086 0.0
H3253 H 0.32319 0.13112 0.80745 0.0
H3254 H 0.31499 0.13961 0.79439 0.0
H3255 H 0.33617 0.13659 0.79288 0.0
H3256 H 0.34948 0.1596 0.7755 0.0
H3257 H 0.33426 0.15514 0.75482 0.0
H3258 H 0.77489 0.16637 0.85452 0.0
H3259 H 0.78323 0.16044 0.83348 0.0
H3260 H 0.83615 0.21644 0.83439 0.0
H3261 H 0.82793 0.22251 0.85535 0.0
H3262 H 0.78992 0.18111 0.81114 0.0
H3263 H 0.8567 0.17931 0.8266 0.0
H3264 H 0.83845 0.17799 0.83743 0.0
H3265 H 0.85659 0.20096 0.83121 0.0
C3266 C 0.78822 0.17749 0.8502 0.0
C3267 C 0.80085 0.19483 0.85667 0.0
C3268 C 0.79299 0.17405 0.8382 0.0
C3269 C 0.81048 0.18785 0.83247 0.0
C3270 C 0.82281 0.2054 0.83875 0.0
H3271 H 0.84508 0.19548 0.75461 0.0
H3272 H 0.83308 0.19944 0.77491 0.0
C3273 C 0.8181 0.20883 0.85074 0.0
C3274 C 0.81598 0.18388 0.81998 0.0
H3275 H 0.85198 0.17987 0.80467 0.0
C3276 C 0.80344 0.18075 0.80972 0.0
C3277 C 0.83349 0.18314 0.81818 0.0
C3278 C 0.84701 0.18534 0.82895 0.0
C3279 C 0.80816 0.17732 0.79764 0.0
C3280 C 0.82604 0.1773 0.79577 0.0
C3281 C 0.83836 0.18005 0.80609 0.0
C3282 C 0.83231 0.17438 0.78323 0.0
C3283 C 0.79384 0.17346 0.78703 0.0
C3284 C 0.83615 0.15916 0.7812 0.0
C3285 C 0.8431 0.15693 0.76964 0.0
C3286 C 0.84643 0.16992 0.75986 0.0
C3287 C 0.84239 0.18505 0.76188 0.0
C3288 C 0.83549 0.18732 0.77347 0.0
H3289 H 0.77876 0.16869 0.79052 0.0
H3290 H 0.79881 0.18701 0.7817 0.0
H3291 H 0.79314 0.16221 0.78051 0.0
H3292 H 0.83383 0.14903 0.7886 0.0
H3293 H 0.84585 0.14499 0.76835 0.0
H3294 H 0.29314 0.17166 0.49753 0.0
H3295 H 0.30796 0.17761 0.51849 0.0
H3296 H 0.30269 0.12108 0.51781 0.0
H3297 H 0.2879 0.11502 0.4969 0.0
H3298 H 0.29292 0.15741 0.54045 0.0
H3299 H 0.36074 0.15665 0.52671 0.0
H3300 H 0.34448 0.15838 0.51543 0.0
H3301 H 0.33845 0.13527 0.52186 0.0
C3302 C 0.29507 0.16047 0.50187 0.0
C3303 C 0.28949 0.14293 0.49551 0.0
C3304 C 0.3036 0.16392 0.51382 0.0
C3305 C 0.30675 0.14993 0.51961 0.0
C3306 C 0.30086 0.13227 0.51339 0.0
H3307 H 0.32753 0.13938 0.59799 0.0
H3308 H 0.31363 0.13642 0.57702 0.0
C3309 C 0.2924 0.12883 0.50144 0.0
C3310 C 0.31586 0.15362 0.53225 0.0
H3311 H 0.35442 0.15563 0.54857 0.0
C3312 C 0.30643 0.15714 0.54223 0.0
C3313 C 0.33364 0.15354 0.5345 0.0
C3314 C 0.34504 0.15095 0.52404 0.0
C3315 C 0.31405 0.1601 0.55447 0.0
C3316 C 0.33135 0.15916 0.55681 0.0
C3317 C 0.34104 0.15614 0.54678 0.0
C3318 C 0.33963 0.16119 0.5696 0.0
C3319 C 0.3036 0.16441 0.56476 0.0
C3320 C 0.35903 0.17579 0.57231 0.0
C3321 C 0.36705 0.17745 0.58427 0.0
C3322 C 0.35583 0.16449 0.59374 0.0
C3323 C 0.33643 0.1498 0.59097 0.0
C3324 C 0.32845 0.14811 0.57899 0.0
H3325 H 0.29425 0.17006 0.56096 0.0
H3326 H 0.29388 0.15085 0.56984 0.0
H3327 H 0.3143 0.17515 0.57157 0.0
H3328 H 0.36793 0.18599 0.56518 0.0
H3329 H 0.38197 0.18902 0.58615 0.0
H3330 H 0.84583 0.115 0.49562 0.0
H3331 H 0.83717 0.12117 0.51643 0.0
H3332 H 0.89505 0.17153 0.52054 0.0
H3333 H 0.90368 0.16561 0.49959 0.0
H3334 H 0.85291 0.12229 0.53906 0.0
H3335 H 0.86054 0.19404 0.52923 0.0
H3336 H 0.86049 0.1783 0.51699 0.0
H3337 H 0.88245 0.19289 0.52615 0.0
C3338 C 0.85674 0.12736 0.50097 0.0
C3339 C 0.87542 0.13986 0.49595 0.0
C3340 C 0.85175 0.13091 0.51285 0.0
C3341 C 0.86533 0.14699 0.51999 0.0
C3342 C 0.88413 0.15933 0.51509 0.0
H3343 H 0.85655 0.18247 0.5964 0.0
H3344 H 0.86902 0.17786 0.57636 0.0
C3345 C 0.88908 0.15589 0.50314 0.0
C3346 C 0.85979 0.15054 0.53262 0.0
H3347 H 0.85453 0.1836 0.5503 0.0
C3348 C 0.85327 0.1357 0.5415 0.0
C3349 C 0.86024 0.16805 0.53581 0.0
C3350 C 0.86612 0.18417 0.52652 0.0
C3351 C 0.84716 0.13787 0.55344 0.0
C3352 C 0.84757 0.15531 0.55658 0.0
C3353 C 0.85436 0.17028 0.54783 0.0
C3354 C 0.84015 0.15791 0.56873 0.0
C3355 C 0.84026 0.12154 0.56265 0.0
C3356 C 0.81982 0.14827 0.57099 0.0
C3357 C 0.81267 0.15095 0.58235 0.0
C3358 C 0.82574 0.16323 0.59169 0.0
C3359 C 0.84614 0.17278 0.58942 0.0
C3360 C 0.85328 0.17024 0.57798 0.0
H3361 H 0.84379 0.11029 0.55955 0.0
H3362 H 0.84713 0.12719 0.57198 0.0
H3363 H 0.82404 0.11461 0.56372 0.0
H3364 H 0.80948 0.13876 0.56392 0.0
H3365 H 0.7969 0.14325 0.58387 0.0
H3366 H 0.84232 0.73658 0.49583 0.0
H3367 H 0.83481 0.72284 0.5168 0.0
H3368 H 0.89318 0.73061 0.52004 0.0
H3369 H 0.90071 0.74377 0.49886 0.0
H3370 H 0.83938 0.68846 0.52471 0.0
H3371 H 0.88325 0.75609 0.55281 0.0
H3372 H 0.8745 0.75637 0.53717 0.0
H3373 H 0.89462 0.75198 0.5394 0.0
C3374 C 0.85357 0.73525 0.5009 0.0
C3375 C 0.87213 0.74124 0.49553 0.0
C3376 C 0.84927 0.72752 0.51296 0.0
C3377 C 0.86347 0.72584 0.52001 0.0
C3378 C 0.88209 0.73202 0.51481 0.0
H3379 H 0.85823 0.68214 0.5959 0.0
H3380 H 0.8695 0.6986 0.57574 0.0
C3381 C 0.88638 0.73961 0.5027 0.0
C3382 C 0.85842 0.7168 0.53256 0.0
H3383 H 0.86602 0.72688 0.56391 0.0
C3384 C 0.8452 0.69683 0.53329 0.0
C3385 C 0.86623 0.72774 0.54371 0.0
C3386 C 0.88039 0.74927 0.54336 0.0
C3387 C 0.83954 0.68745 0.54488 0.0
C3388 C 0.8468 0.69847 0.5561 0.0
C3389 C 0.86034 0.71844 0.55535 0.0
C3390 C 0.84017 0.68952 0.56865 0.0
C3391 C 0.82612 0.66574 0.54494 0.0
C3392 C 0.82002 0.67949 0.57158 0.0
C3393 C 0.81359 0.67 0.58301 0.0
C3394 C 0.82716 0.67058 0.5919 0.0
C3395 C 0.84742 0.68144 0.58925 0.0
C3396 C 0.85386 0.6908 0.57772 0.0
H3397 H 0.82706 0.65896 0.53605 0.0
H3398 H 0.82976 0.65903 0.55282 0.0
H3399 H 0.81063 0.66238 0.54597 0.0
H3400 H 0.8092 0.67882 0.56494 0.0
H3401 H 0.79791 0.66209 0.58487 0.0
loop_
_geom_bond_atom_site_label_1
_geom_bond_atom_site_label_2
_geom_bond_distance
_geom_bond_site_symmetry_2
_ccdc_geom_bond_type
C0 C1 1.386 . S
C0 C2 1.397 . S
C0 H24 0.931 . S
C1 C0 1.386 . S
C1 C5 1.397 . S
C2 C0 1.397 . S
C2 C3 1.384 . S
C2 H25 0.930 . S
C3 C2 1.384 . S
C3 C4 1.377 . S
C3 C6 1.481 . S
C4 C3 1.377 . S
C4 C5 1.389 . S
C4 H26 0.929 . S
C5 C1 1.397 . S
C5 C4 1.389 . S
C5 H27 0.931 . S
C6 C3 1.481 . S
C6 C7 1.387 . S
C6 C11 1.390 . S
C7 C6 1.387 . S
C7 C8 1.401 . S
C7 H28 0.930 . S
C8 C7 1.401 . S
C8 C9 1.376 . S
C8 C17 1.511 . S
C9 C8 1.376 . S
C9 C10 1.392 . S
C9 H30 0.931 . S
C10 C9 1.392 . S
C10 C11 1.361 . S
C10 C12 1.500 . S
C11 C6 1.390 . S
C11 C10 1.361 . S
C11 H29 0.931 . S
C12 C10 1.500 . S
C12 C13 1.371 . S
C12 C14 1.365 . S
C13 C12 1.371 . S
C13 C23 1.386 . S
C13 H31 0.931 . S
C14 C12 1.365 . S
C14 C15 1.409 . S
C14 H32 0.929 . S
C15 C14 1.409 . S
C15 C16 1.380 . S
C15 H33 0.930 . S
C16 C15 1.380 . S
C16 C23 1.357 . S
C17 C8 1.511 . S
C17 C18 1.341 . S
C17 C19 1.371 . S
C18 C17 1.341 . S
C18 C22 1.394 . S
C18 H34 0.930 . S
C19 C17 1.371 . S
C19 C20 1.392 . S
C19 H35 0.931 . S
C20 C19 1.392 . S
C20 C21 1.331 . S
C20 H38 0.932 . S
C21 C20 1.331 . S
C21 C22 1.336 . S
C22 C18 1.394 . S
C22 C21 1.336 . S
C22 H37 0.929 . S
C23 C13 1.386 . S
C23 C16 1.357 . S
C23 H36 0.928 . S
H24 C0 0.931 . S
H25 C2 0.930 . S
H26 C4 0.929 . S
H27 C5 0.931 . S
H28 C7 0.930 . S
H29 C11 0.931 . S
H30 C9 0.931 . S
H31 C13 0.931 . S
H32 C14 0.929 . S
H33 C15 0.930 . S
H34 C18 0.930 . S
H35 C19 0.931 . S
H36 C23 0.928 . S
H37 C22 0.929 . S
H38 C20 0.932 . S
C39 C40 1.386 . S
C39 C41 1.397 . S
C39 H63 0.931 . S
C40 C39 1.386 . S
C40 C44 1.397 . S
C41 C39 1.397 . S
C41 C42 1.384 . S
C41 H64 0.930 . S
C42 C41 1.384 . S
C42 C43 1.377 . S
C42 C45 1.481 . S
C43 C42 1.377 . S
C43 C44 1.389 . S
C43 H65 0.929 . S
C44 C40 1.397 . S
C44 C43 1.389 . S
C44 H66 0.931 . S
C45 C42 1.481 . S
C45 C46 1.387 . S
C45 C50 1.390 . S
C46 C45 1.387 . S
C46 C47 1.401 . S
C46 H67 0.930 . S
C47 C46 1.401 . S
C47 C48 1.376 . S
C47 C56 1.511 . S
C48 C47 1.376 . S
C48 C49 1.392 . S
C48 H69 0.931 . S
C49 C48 1.392 . S
C49 C50 1.361 . S
C49 C51 1.500 . S
C50 C45 1.390 . S
C50 C49 1.361 . S
C50 H68 0.931 . S
C51 C49 1.500 . S
C51 C52 1.371 . S
C51 C53 1.365 . S
C52 C51 1.371 . S
C52 C62 1.386 . S
C52 H70 0.931 . S
C53 C51 1.365 . S
C53 C54 1.409 . S
C53 H71 0.929 . S
C54 C53 1.409 . S
C54 C55 1.380 . S
C54 H72 0.930 . S
C55 C54 1.380 . S
C55 C62 1.357 . S
C56 C47 1.511 . S
C56 C57 1.341 . S
C56 C58 1.371 . S
C57 C56 1.341 . S
C57 C61 1.394 . S
C57 H73 0.930 . S
C58 C56 1.371 . S
C58 C59 1.392 . S
C58 H74 0.931 . S
C59 C58 1.392 . S
C59 C60 1.331 . S
C59 H77 0.932 . S
C60 C59 1.331 . S
C60 C61 1.336 . S
C61 C57 1.394 . S
C61 C60 1.336 . S
C61 H76 0.929 . S
C62 C52 1.386 . S
C62 C55 1.357 . S
C62 H75 0.928 . S
H63 C39 0.931 . S
H64 C41 0.930 . S
H65 C43 0.929 . S
H66 C44 0.931 . S
H67 C46 0.930 . S
H68 C50 0.931 . S
H69 C48 0.931 . S
H70 C52 0.931 . S
H71 C53 0.929 . S
H72 C54 0.930 . S
H73 C57 0.930 . S
H74 C58 0.931 . S
H75 C62 0.928 . S
H76 C61 0.929 . S
H77 C59 0.932 . S
C78 C79 1.386 . S
C78 C80 1.397 . S
C78 H102 0.931 . S
C79 C78 1.386 . S
C79 C83 1.397 . S
C80 C78 1.397 . S
C80 C81 1.384 . S
C80 H103 0.930 . S
C81 C80 1.384 . S
C81 C82 1.377 . S
C81 C84 1.481 . S
C82 C81 1.377 . S
C82 C83 1.389 . S
C82 H104 0.929 . S
C83 C79 1.397 . S
C83 C82 1.389 . S
C83 H105 0.931 . S
C84 C81 1.481 . S
C84 C85 1.387 . S
C84 C89 1.390 . S
C85 C84 1.387 . S
C85 C86 1.401 . S
C85 H106 0.930 . S
C86 C85 1.401 . S
C86 C87 1.376 . S
C86 C95 1.511 . S
C87 C86 1.376 . S
C87 C88 1.392 . S
C87 H108 0.931 . S
C88 C87 1.392 . S
C88 C89 1.361 . S
C88 C90 1.500 . S
C89 C84 1.390 . S
C89 C88 1.361 . S
C89 H107 0.931 . S
C90 C88 1.500 . S
C90 C91 1.371 . S
C90 C92 1.365 . S
C91 C90 1.371 . S
C91 C101 1.386 . S
C91 H109 0.931 . S
C92 C90 1.365 . S
C92 C93 1.409 . S
C92 H110 0.929 . S
C93 C92 1.409 . S
C93 C94 1.380 . S
C93 H111 0.930 . S
C94 C93 1.380 . S
C94 C101 1.357 . S
C95 C86 1.511 . S
C95 C96 1.341 . S
C95 C97 1.371 . S
C96 C95 1.341 . S
C96 C100 1.394 . S
C96 H112 0.930 . S
C97 C95 1.371 . S
C97 C98 1.392 . S
C97 H113 0.931 . S
C98 C97 1.392 . S
C98 C99 1.331 . S
C98 H116 0.932 . S
C99 C98 1.331 . S
C99 C100 1.336 . S
C100 C96 1.394 . S
C100 C99 1.336 . S
C100 H115 0.929 . S
C101 C91 1.386 . S
C101 C94 1.357 . S
C101 H114 0.928 . S
H102 C78 0.931 . S
H103 C80 0.930 . S
H104 C82 0.929 . S
H105 C83 0.931 . S
H106 C85 0.930 . S
H107 C89 0.931 . S
H108 C87 0.931 . S
H109 C91 0.931 . S
H110 C92 0.929 . S
H111 C93 0.930 . S
H112 C96 0.930 . S
H113 C97 0.931 . S
H114 C101 0.928 . S
H115 C100 0.929 . S
H116 C98 0.932 . S
C117 C118 1.386 . S
C117 C119 1.397 . S
C117 H141 0.931 . S
C118 C117 1.386 . S
C118 C122 1.397 . S
C119 C117 1.397 . S
C119 C120 1.384 . S
C119 H142 0.930 . S
C120 C119 1.384 . S
C120 C121 1.377 . S
C120 C123 1.481 . S
C121 C120 1.377 . S
C121 C122 1.389 . S
C121 H143 0.929 . S
C122 C118 1.397 . S
C122 C121 1.389 . S
C122 H144 0.931 . S
C123 C120 1.481 . S
C123 C124 1.387 . S
C123 C128 1.390 . S
C124 C123 1.387 . S
C124 C125 1.401 . S
C124 H145 0.930 . S
C125 C124 1.401 . S
C125 C126 1.376 . S
C125 C134 1.511 . S
C126 C125 1.376 . S
C126 C127 1.392 . S
C126 H147 0.931 . S
C127 C126 1.392 . S
C127 C128 1.361 . S
C127 C129 1.500 . S
C128 C123 1.390 . S
C128 C127 1.361 . S
C128 H146 0.931 . S
C129 C127 1.500 . S
C129 C130 1.371 . S
C129 C131 1.365 . S
C130 C129 1.371 . S
C130 C140 1.386 . S
C130 H148 0.931 . S
C131 C129 1.365 . S
C131 C132 1.409 . S
C131 H149 0.929 . S
C132 C131 1.409 . S
C132 C133 1.380 . S
C132 H150 0.930 . S
C133 C132 1.380 . S
C133 C140 1.357 . S
C134 C125 1.511 . S
C134 C135 1.341 . S
C134 C136 1.371 . S
C135 C134 1.341 . S
C135 C139 1.394 . S
C135 H151 0.930 . S
C136 C134 1.371 . S
C136 C137 1.392 . S
C136 H152 0.931 . S
C137 C136 1.392 . S
C137 C138 1.331 . S
C137 H155 0.932 . S
C138 C137 1.331 . S
C138 C139 1.336 . S
C139 C135 1.394 . S
C139 C138 1.336 . S
C139 H154 0.929 . S
C140 C130 1.386 . S
C140 C133 1.357 . S
C140 H153 0.928 . S
H141 C117 0.931 . S
H142 C119 0.930 . S
H143 C121 0.929 . S
H144 C122 0.931 . S
H145 C124 0.930 . S
H146 C128 0.931 . S
H147 C126 0.931 . S
H148 C130 0.931 . S
H149 C131 0.929 . S
H150 C132 0.930 . S
H151 C135 0.930 . S
H152 C136 0.931 . S
H153 C140 0.928 . S
H154 C139 0.929 . S
H155 C137 0.932 . S
C156 C157 1.386 . S
C156 C158 1.397 . S
C156 H180 0.931 . S
C157 C156 1.386 . S
C157 C161 1.397 . S
C158 C156 1.397 . S
C158 C159 1.384 . S
C158 H181 0.930 . S
C159 C158 1.384 . S
C159 C160 1.377 . S
C159 C162 1.481 . S
C160 C159 1.377 . S
C160 C161 1.389 . S
C160 H182 0.929 . S
C161 C157 1.397 . S
C161 C160 1.389 . S
C161 H183 0.931 . S
C162 C159 1.481 . S
C162 C163 1.387 . S
C162 C167 1.390 . S
C163 C162 1.387 . S
C163 C164 1.401 . S
C163 H184 0.930 . S
C164 C163 1.401 . S
C164 C165 1.376 . S
C164 C173 1.511 . S
C165 C164 1.376 . S
C165 C166 1.392 . S
C165 H186 0.931 . S
C166 C165 1.392 . S
C166 C167 1.361 . S
C166 C168 1.500 . S
C167 C162 1.390 . S
C167 C166 1.361 . S
C167 H185 0.931 . S
C168 C166 1.500 . S
C168 C169 1.371 . S
C168 C170 1.365 . S
C169 C168 1.371 . S
C169 C179 1.386 . S
C169 H187 0.931 . S
C170 C168 1.365 . S
C170 C171 1.409 . S
C170 H188 0.929 . S
C171 C170 1.409 . S
C171 C172 1.380 . S
C171 H189 0.930 . S
C172 C171 1.380 . S
C172 C179 1.357 . S
C173 C164 1.511 . S
C173 C174 1.341 . S
C173 C175 1.371 . S
C174 C173 1.341 . S
C174 C178 1.394 . S
C174 H190 0.930 . S
C175 C173 1.371 . S
C175 C176 1.392 . S
C175 H191 0.931 . S
C176 C175 1.392 . S
C176 C177 1.331 . S
C176 H194 0.932 . S
C177 C176 1.331 . S
C177 C178 1.336 . S
C178 C174 1.394 . S
C178 C177 1.336 . S
C178 H193 0.929 . S
C179 C169 1.386 . S
C179 C172 1.357 . S
C179 H192 0.928 . S
H180 C156 0.931 . S
H181 C158 0.930 . S
H182 C160 0.929 . S
H183 C161 0.931 . S
H184 C163 0.930 . S
H185 C167 0.931 . S
H186 C165 0.931 . S
H187 C169 0.931 . S
H188 C170 0.929 . S
H189 C171 0.930 . S
H190 C174 0.930 . S
H191 C175 0.931 . S
H192 C179 0.928 . S
H193 C178 0.929 . S
H194 C176 0.932 . S
C195 C196 1.386 . S
C195 C197 1.397 . S
C195 H219 0.931 . S
C196 C195 1.386 . S
C196 C200 1.397 . S
C197 C195 1.397 . S
C197 C198 1.384 . S
C197 H220 0.930 . S
C198 C197 1.384 . S
C198 C199 1.377 . S
C198 C201 1.481 . S
C199 C198 1.377 . S
C199 C200 1.389 . S
C199 H221 0.929 . S
C200 C196 1.397 . S
C200 C199 1.389 . S
C200 H222 0.931 . S
C201 C198 1.481 . S
C201 C202 1.387 . S
C201 C206 1.390 . S
C202 C201 1.387 . S
C202 C203 1.401 . S
C202 H223 0.930 . S
C203 C202 1.401 . S
C203 C204 1.376 . S
C203 C212 1.511 . S
C204 C203 1.376 . S
C204 C205 1.392 . S
C204 H225 0.931 . S
C205 C204 1.392 . S
C205 C206 1.361 . S
C205 C207 1.500 . S
C206 C201 1.390 . S
C206 C205 1.361 . S
C206 H224 0.931 . S
C207 C205 1.500 . S
C207 C208 1.371 . S
C207 C209 1.365 . S
C208 C207 1.371 . S
C208 C218 1.386 . S
C208 H226 0.931 . S
C209 C207 1.365 . S
C209 C210 1.409 . S
C209 H227 0.929 . S
C210 C209 1.409 . S
C210 C211 1.380 . S
C210 H228 0.930 . S
C211 C210 1.380 . S
C211 C218 1.357 . S
C212 C203 1.511 . S
C212 C213 1.341 . S
C212 C214 1.371 . S
C213 C212 1.341 . S
C213 C217 1.394 . S
C213 H229 0.930 . S
C214 C212 1.371 . S
C214 C215 1.392 . S
C214 H230 0.931 . S
C215 C214 1.392 . S
C215 C216 1.331 . S
C215 H233 0.932 . S
C216 C215 1.331 . S
C216 C217 1.336 . S
C217 C213 1.394 . S
C217 C216 1.336 . S
C217 H232 0.929 . S
C218 C208 1.386 . S
C218 C211 1.357 . S
C218 H231 0.928 . S
H219 C195 0.931 . S
H220 C197 0.930 . S
H221 C199 0.929 . S
H222 C200 0.931 . S
H223 C202 0.930 . S
H224 C206 0.931 . S
H225 C204 0.931 . S
H226 C208 0.931 . S
H227 C209 0.929 . S
H228 C210 0.930 . S
H229 C213 0.930 . S
H230 C214 0.931 . S
H231 C218 0.928 . S
H232 C217 0.929 . S
H233 C215 0.932 . S
C234 C235 1.386 . S
C234 C236 1.397 . S
C234 H258 0.931 . S
C235 C234 1.386 . S
C235 C239 1.397 . S
C236 C234 1.397 . S
C236 C237 1.384 . S
C236 H259 0.930 . S
C237 C236 1.384 . S
C237 C238 1.377 . S
C237 C240 1.481 . S
C238 C237 1.377 . S
C238 C239 1.389 . S
C238 H260 0.929 . S
C239 C235 1.397 . S
C239 C238 1.389 . S
C239 H261 0.931 . S
C240 C237 1.481 . S
C240 C241 1.387 . S
C240 C245 1.390 . S
C241 C240 1.387 . S
C241 C242 1.401 . S
C241 H262 0.930 . S
C242 C241 1.401 . S
C242 C243 1.376 . S
C242 C251 1.511 . S
C243 C242 1.376 . S
C243 C244 1.392 . S
C243 H264 0.931 . S
C244 C243 1.392 . S
C244 C245 1.361 . S
C244 C246 1.500 . S
C245 C240 1.390 . S
C245 C244 1.361 . S
C245 H263 0.931 . S
C246 C244 1.500 . S
C246 C247 1.371 . S
C246 C248 1.365 . S
C247 C246 1.371 . S
C247 C257 1.386 . S
C247 H265 0.931 . S
C248 C246 1.365 . S
C248 C249 1.409 . S
C248 H266 0.929 . S
C249 C248 1.409 . S
C249 C250 1.380 . S
C249 H267 0.930 . S
C250 C249 1.380 . S
C250 C257 1.357 . S
C251 C242 1.511 . S
C251 C252 1.341 . S
C251 C253 1.371 . S
C252 C251 1.341 . S
C252 C256 1.394 . S
C252 H268 0.930 . S
C253 C251 1.371 . S
C253 C254 1.392 . S
C253 H269 0.931 . S
C254 C253 1.392 . S
C254 C255 1.331 . S
C254 H272 0.932 . S
C255 C254 1.331 . S
C255 C256 1.336 . S
C256 C252 1.394 . S
C256 C255 1.336 . S
C256 H271 0.929 . S
C257 C247 1.386 . S
C257 C250 1.357 . S
C257 H270 0.928 . S
H258 C234 0.931 . S
H259 C236 0.930 . S
H260 C238 0.929 . S
H261 C239 0.931 . S
H262 C241 0.930 . S
H263 C245 0.931 . S
H264 C243 0.931 . S
H265 C247 0.931 . S
H266 C248 0.929 . S
H267 C249 0.930 . S
H268 C252 0.930 . S
H269 C253 0.931 . S
H270 C257 0.928 . S
H271 C256 0.929 . S
H272 C254 0.932 . S
C273 C274 1.386 . S
C273 C275 1.397 . S
C273 H297 0.931 . S
C274 C273 1.386 . S
C274 C278 1.397 . S
C275 C273 1.397 . S
C275 C276 1.384 . S
C275 H298 0.930 . S
C276 C275 1.384 . S
C276 C277 1.377 . S
C276 C279 1.481 . S
C277 C276 1.377 . S
C277 C278 1.389 . S
C277 H299 0.929 . S
C278 C274 1.397 . S
C278 C277 1.389 . S
C278 H300 0.931 . S
C279 C276 1.481 . S
C279 C280 1.387 . S
C279 C284 1.390 . S
C280 C279 1.387 . S
C280 C281 1.401 . S
C280 H301 0.930 . S
C281 C280 1.401 . S
C281 C282 1.376 . S
C281 C290 1.511 . S
C282 C281 1.376 . S
C282 C283 1.392 . S
C282 H303 0.931 . S
C283 C282 1.392 . S
C283 C284 1.361 . S
C283 C285 1.500 . S
C284 C279 1.390 . S
C284 C283 1.361 . S
C284 H302 0.931 . S
C285 C283 1.500 . S
C285 C286 1.371 . S
C285 C287 1.365 . S
C286 C285 1.371 . S
C286 C296 1.386 . S
C286 H304 0.931 . S
C287 C285 1.365 . S
C287 C288 1.409 . S
C287 H305 0.929 . S
C288 C287 1.409 . S
C288 C289 1.380 . S
C288 H306 0.930 . S
C289 C288 1.380 . S
C289 C296 1.357 . S
C290 C281 1.511 . S
C290 C291 1.341 . S
C290 C292 1.371 . S
C291 C290 1.341 . S
C291 C295 1.394 . S
C291 H307 0.930 . S
C292 C290 1.371 . S
C292 C293 1.392 . S
C292 H308 0.931 . S
C293 C292 1.392 . S
C293 C294 1.331 . S
C293 H311 0.932 . S
C294 C293 1.331 . S
C294 C295 1.336 . S
C295 C291 1.394 . S
C295 C294 1.336 . S
C295 H310 0.929 . S
C296 C286 1.386 . S
C296 C289 1.357 . S
C296 H309 0.928 . S
H297 C273 0.931 . S
H298 C275 0.930 . S
H299 C277 0.929 . S
H300 C278 0.931 . S
H301 C280 0.930 . S
H302 C284 0.931 . S
H303 C282 0.931 . S
H304 C286 0.931 . S
H305 C287 0.929 . S
H306 C288 0.930 . S
H307 C291 0.930 . S
H308 C292 0.931 . S
H309 C296 0.928 . S
H310 C295 0.929 . S
H311 C293 0.932 . S
C312 C313 1.386 . S
C312 C314 1.397 . S
C312 H336 0.931 . S
C313 C312 1.386 . S
C313 C317 1.397 . S
C314 C312 1.397 . S
C314 C315 1.384 . S
C314 H337 0.930 . S
C315 C314 1.384 . S
C315 C316 1.377 . S
C315 C318 1.481 . S
C316 C315 1.377 . S
C316 C317 1.389 . S
C316 H338 0.929 . S
C317 C313 1.397 . S
C317 C316 1.389 . S
C317 H339 0.931 . S
C318 C315 1.481 . S
C318 C319 1.387 . S
C318 C323 1.390 . S
C319 C318 1.387 . S
C319 C320 1.401 . S
C319 H340 0.930 . S
C320 C319 1.401 . S
C320 C321 1.376 . S
C320 C329 1.511 . S
C321 C320 1.376 . S
C321 C322 1.392 . S
C321 H342 0.931 . S
C322 C321 1.392 . S
C322 C323 1.361 . S
C322 C324 1.500 . S
C323 C318 1.390 . S
C323 C322 1.361 . S
C323 H341 0.931 . S
C324 C322 1.500 . S
C324 C325 1.371 . S
C324 C326 1.365 . S
C325 C324 1.371 . S
C325 C335 1.386 . S
C325 H343 0.931 . S
C326 C324 1.365 . S
C326 C327 1.409 . S
C326 H344 0.929 . S
C327 C326 1.409 . S
C327 C328 1.380 . S
C327 H345 0.930 . S
C328 C327 1.380 . S
C328 C335 1.357 . S
C329 C320 1.511 . S
C329 C330 1.341 . S
C329 C331 1.371 . S
C330 C329 1.341 . S
C330 C334 1.394 . S
C330 H346 0.930 . S
C331 C329 1.371 . S
C331 C332 1.392 . S
C331 H347 0.931 . S
C332 C331 1.392 . S
C332 C333 1.331 . S
C332 H350 0.932 . S
C333 C332 1.331 . S
C333 C334 1.336 . S
C334 C330 1.394 . S
C334 C333 1.336 . S
C334 H349 0.929 . S
C335 C325 1.386 . S
C335 C328 1.357 . S
C335 H348 0.928 . S
H336 C312 0.931 . S
H337 C314 0.930 . S
H338 C316 0.929 . S
H339 C317 0.931 . S
H340 C319 0.930 . S
H341 C323 0.931 . S
H342 C321 0.931 . S
H343 C325 0.931 . S
H344 C326 0.929 . S
H345 C327 0.930 . S
H346 C330 0.930 . S
H347 C331 0.931 . S
H348 C335 0.928 . S
H349 C334 0.929 . S
H350 C332 0.932 . S
C351 C352 1.386 . S
C351 C353 1.397 . S
C351 H375 0.931 . S
C352 C351 1.386 . S
C352 C356 1.397 . S
C353 C351 1.397 . S
C353 C354 1.384 . S
C353 H376 0.930 . S
C354 C353 1.384 . S
C354 C355 1.377 . S
C354 C357 1.481 . S
C355 C354 1.377 . S
C355 C356 1.389 . S
C355 H377 0.929 . S
C356 C352 1.397 . S
C356 C355 1.389 . S
C356 H378 0.931 . S
C357 C354 1.481 . S
C357 C358 1.387 . S
C357 C362 1.390 . S
C358 C357 1.387 . S
C358 C359 1.401 . S
C358 H379 0.930 . S
C359 C358 1.401 . S
C359 C360 1.376 . S
C359 C368 1.511 . S
C360 C359 1.376 . S
C360 C361 1.392 . S
C360 H381 0.931 . S
C361 C360 1.392 . S
C361 C362 1.361 . S
C361 C363 1.500 . S
C362 C357 1.390 . S
C362 C361 1.361 . S
C362 H380 0.931 . S
C363 C361 1.500 . S
C363 C364 1.371 . S
C363 C365 1.365 . S
C364 C363 1.371 . S
C364 C374 1.386 . S
C364 H382 0.931 . S
C365 C363 1.365 . S
C365 C366 1.409 . S
C365 H383 0.929 . S
C366 C365 1.409 . S
C366 C367 1.380 . S
C366 H384 0.930 . S
C367 C366 1.380 . S
C367 C374 1.357 . S
C368 C359 1.511 . S
C368 C369 1.341 . S
C368 C370 1.371 . S
C369 C368 1.341 . S
C369 C373 1.394 . S
C369 H385 0.930 . S
C370 C368 1.371 . S
C370 C371 1.392 . S
C370 H386 0.931 . S
C371 C370 1.392 . S
C371 C372 1.331 . S
C371 H389 0.932 . S
C372 C371 1.331 . S
C372 C373 1.336 . S
C373 C369 1.394 . S
C373 C372 1.336 . S
C373 H388 0.929 . S
C374 C364 1.386 . S
C374 C367 1.357 . S
C374 H387 0.928 . S
H375 C351 0.931 . S
H376 C353 0.930 . S
H377 C355 0.929 . S
H378 C356 0.931 . S
H379 C358 0.930 . S
H380 C362 0.931 . S
H381 C360 0.931 . S
H382 C364 0.931 . S
H383 C365 0.929 . S
H384 C366 0.930 . S
H385 C369 0.930 . S
H386 C370 0.931 . S
H387 C374 0.928 . S
H388 C373 0.929 . S
H389 C371 0.932 . S
C390 C391 1.386 . S
C390 C392 1.397 . S
C390 H414 0.931 . S
C391 C390 1.386 . S
C391 C395 1.397 . S
C392 C390 1.397 . S
C392 C393 1.384 . S
C392 H415 0.930 . S
C393 C392 1.384 . S
C393 C394 1.377 . S
C393 C396 1.481 . S
C394 C393 1.377 . S
C394 C395 1.389 . S
C394 H416 0.929 . S
C395 C391 1.397 . S
C395 C394 1.389 . S
C395 H417 0.931 . S
C396 C393 1.481 . S
C396 C397 1.387 . S
C396 C401 1.390 . S
C397 C396 1.387 . S
C397 C398 1.401 . S
C397 H418 0.930 . S
C398 C397 1.401 . S
C398 C399 1.376 . S
C398 C407 1.511 . S
C399 C398 1.376 . S
C399 C400 1.392 . S
C399 H420 0.931 . S
C400 C399 1.392 . S
C400 C401 1.361 . S
C400 C402 1.500 . S
C401 C396 1.390 . S
C401 C400 1.361 . S
C401 H419 0.931 . S
C402 C400 1.500 . S
C402 C403 1.371 . S
C402 C404 1.365 . S
C403 C402 1.371 . S
C403 C413 1.386 . S
C403 H421 0.931 . S
C404 C402 1.365 . S
C404 C405 1.409 . S
C404 H422 0.929 . S
C405 C404 1.409 . S
C405 C406 1.380 . S
C405 H423 0.930 . S
C406 C405 1.380 . S
C406 C413 1.357 . S
C407 C398 1.511 . S
C407 C408 1.341 . S
C407 C409 1.371 . S
C408 C407 1.341 . S
C408 C412 1.394 . S
C408 H424 0.930 . S
C409 C407 1.371 . S
C409 C410 1.392 . S
C409 H425 0.931 . S
C410 C409 1.392 . S
C410 C411 1.331 . S
C410 H428 0.932 . S
C411 C410 1.331 . S
C411 C412 1.336 . S
C412 C408 1.394 . S
C412 C411 1.336 . S
C412 H427 0.929 . S
C413 C403 1.386 . S
C413 C406 1.357 . S
C413 H426 0.928 . S
H414 C390 0.931 . S
H415 C392 0.930 . S
H416 C394 0.929 . S
H417 C395 0.931 . S
H418 C397 0.930 . S
H419 C401 0.931 . S
H420 C399 0.931 . S
H421 C403 0.931 . S
H422 C404 0.929 . S
H423 C405 0.930 . S
H424 C408 0.930 . S
H425 C409 0.931 . S
H426 C413 0.928 . S
H427 C412 0.929 . S
H428 C410 0.932 . S
C429 C430 1.386 . S
C429 C431 1.397 . S
C429 H453 0.931 . S
C430 C429 1.386 . S
C430 C434 1.397 . S
C431 C429 1.397 . S
C431 C432 1.384 . S
C431 H454 0.930 . S
C432 C431 1.384 . S
C432 C433 1.377 . S
C432 C435 1.481 . S
C433 C432 1.377 . S
C433 C434 1.389 . S
C433 H455 0.929 . S
C434 C430 1.397 . S
C434 C433 1.389 . S
C434 H456 0.931 . S
C435 C432 1.481 . S
C435 C436 1.387 . S
C435 C440 1.390 . S
C436 C435 1.387 . S
C436 C437 1.401 . S
C436 H457 0.930 . S
C437 C436 1.401 . S
C437 C438 1.376 . S
C437 C446 1.511 . S
C438 C437 1.376 . S
C438 C439 1.392 . S
C438 H459 0.931 . S
C439 C438 1.392 . S
C439 C440 1.361 . S
C439 C441 1.500 . S
C440 C435 1.390 . S
C440 C439 1.361 . S
C440 H458 0.931 . S
C441 C439 1.500 . S
C441 C442 1.371 . S
C441 C443 1.365 . S
C442 C441 1.371 . S
C442 C452 1.386 . S
C442 H460 0.931 . S
C443 C441 1.365 . S
C443 C444 1.409 . S
C443 H461 0.929 . S
C444 C443 1.409 . S
C444 C445 1.380 . S
C444 H462 0.930 . S
C445 C444 1.380 . S
C445 C452 1.357 . S
C446 C437 1.511 . S
C446 C447 1.341 . S
C446 C448 1.371 . S
C447 C446 1.341 . S
C447 C451 1.394 . S
C447 H463 0.930 . S
C448 C446 1.371 . S
C448 C449 1.392 . S
C448 H464 0.931 . S
C449 C448 1.392 . S
C449 C450 1.331 . S
C449 H467 0.932 . S
C450 C449 1.331 . S
C450 C451 1.336 . S
C451 C447 1.394 . S
C451 C450 1.336 . S
C451 H466 0.929 . S
C452 C442 1.386 . S
C452 C445 1.357 . S
C452 H465 0.928 . S
H453 C429 0.931 . S
H454 C431 0.930 . S
H455 C433 0.929 . S
H456 C434 0.931 . S
H457 C436 0.930 . S
H458 C440 0.931 . S
H459 C438 0.931 . S
H460 C442 0.931 . S
H461 C443 0.929 . S
H462 C444 0.930 . S
H463 C447 0.930 . S
H464 C448 0.931 . S
H465 C452 0.928 . S
H466 C451 0.929 . S
H467 C449 0.932 . S
C468 C469 1.386 . S
C468 C470 1.397 . S
C468 H492 0.931 . S
C469 C468 1.386 . S
C469 C473 1.397 . S
C470 C468 1.397 . S
C470 C471 1.384 . S
C470 H493 0.930 . S
C471 C470 1.384 . S
C471 C472 1.377 . S
C471 C474 1.481 . S
C472 C471 1.377 . S
C472 C473 1.389 . S
C472 H494 0.929 . S
C473 C469 1.397 . S
C473 C472 1.389 . S
C473 H495 0.931 . S
C474 C471 1.481 . S
C474 C475 1.387 . S
C474 C479 1.390 . S
C475 C474 1.387 . S
C475 C476 1.401 . S
C475 H496 0.930 . S
C476 C475 1.401 . S
C476 C477 1.376 . S
C476 C485 1.511 . S
C477 C476 1.376 . S
C477 C478 1.392 . S
C477 H498 0.931 . S
C478 C477 1.392 . S
C478 C479 1.361 . S
C478 C480 1.500 . S
C479 C474 1.390 . S
C479 C478 1.361 . S
C479 H497 0.931 . S
C480 C478 1.500 . S
C480 C481 1.371 . S
C480 C482 1.365 . S
C481 C480 1.371 . S
C481 C491 1.386 . S
C481 H499 0.931 . S
C482 C480 1.365 . S
C482 C483 1.409 . S
C482 H500 0.929 . S
C483 C482 1.409 . S
C483 C484 1.380 . S
C483 H501 0.930 . S
C484 C483 1.380 . S
C484 C491 1.357 . S
C485 C476 1.511 . S
C485 C486 1.341 . S
C485 C487 1.371 . S
C486 C485 1.341 . S
C486 C490 1.394 . S
C486 H502 0.930 . S
C487 C485 1.371 . S
C487 C488 1.392 . S
C487 H503 0.931 . S
C488 C487 1.392 . S
C488 C489 1.331 . S
C488 H506 0.932 . S
C489 C488 1.331 . S
C489 C490 1.336 . S
C490 C486 1.394 . S
C490 C489 1.336 . S
C490 H505 0.929 . S
C491 C481 1.386 . S
C491 C484 1.357 . S
C491 H504 0.928 . S
H492 C468 0.931 . S
H493 C470 0.930 . S
H494 C472 0.929 . S
H495 C473 0.931 . S
H496 C475 0.930 . S
H497 C479 0.931 . S
H498 C477 0.931 . S
H499 C481 0.931 . S
H500 C482 0.929 . S
H501 C483 0.930 . S
H502 C486 0.930 . S
H503 C487 0.931 . S
H504 C491 0.928 . S
H505 C490 0.929 . S
H506 C488 0.932 . S
C507 C508 1.386 . S
C507 C509 1.397 . S
C507 H531 0.931 . S
C508 C507 1.386 . S
C508 C512 1.397 . S
C509 C507 1.397 . S
C509 C510 1.384 . S
C509 H532 0.930 . S
C510 C509 1.384 . S
C510 C511 1.377 . S
C510 C513 1.481 . S
C511 C510 1.377 . S
C511 C512 1.389 . S
C511 H533 0.929 . S
C512 C508 1.397 . S
C512 C511 1.389 . S
C512 H534 0.931 . S
C513 C510 1.481 . S
C513 C514 1.387 . S
C513 C518 1.390 . S
C514 C513 1.387 . S
C514 C515 1.401 . S
C514 H535 0.930 . S
C515 C514 1.401 . S
C515 C516 1.376 . S
C515 C524 1.511 . S
C516 C515 1.376 . S
C516 C517 1.392 . S
C516 H537 0.931 . S
C517 C516 1.392 . S
C517 C518 1.361 . S
C517 C519 1.500 . S
C518 C513 1.390 . S
C518 C517 1.361 . S
C518 H536 0.931 . S
C519 C517 1.500 . S
C519 C520 1.371 . S
C519 C521 1.365 . S
C520 C519 1.371 . S
C520 C530 1.386 . S
C520 H538 0.931 . S
C521 C519 1.365 . S
C521 C522 1.409 . S
C521 H539 0.929 . S
C522 C521 1.409 . S
C522 C523 1.380 . S
C522 H540 0.930 . S
C523 C522 1.380 . S
C523 C530 1.357 . S
C524 C515 1.511 . S
C524 C525 1.341 . S
C524 C526 1.371 . S
C525 C524 1.341 . S
C525 C529 1.394 . S
C525 H541 0.930 . S
C526 C524 1.371 . S
C526 C527 1.392 . S
C526 H542 0.931 . S
C527 C526 1.392 . S
C527 C528 1.331 . S
C527 H545 0.932 . S
C528 C527 1.331 . S
C528 C529 1.336 . S
C529 C525 1.394 . S
C529 C528 1.336 . S
C529 H544 0.929 . S
C530 C520 1.386 . S
C530 C523 1.357 . S
C530 H543 0.928 . S
H531 C507 0.931 . S
H532 C509 0.930 . S
H533 C511 0.929 . S
H534 C512 0.931 . S
H535 C514 0.930 . S
H536 C518 0.931 . S
H537 C516 0.931 . S
H538 C520 0.931 . S
H539 C521 0.929 . S
H540 C522 0.930 . S
H541 C525 0.930 . S
H542 C526 0.931 . S
H543 C530 0.928 . S
H544 C529 0.929 . S
H545 C527 0.932 . S
C546 C547 1.386 . S
C546 C548 1.397 . S
C546 H570 0.931 . S
C547 C546 1.386 . S
C547 C551 1.397 . S
C548 C546 1.397 . S
C548 C549 1.384 . S
C548 H571 0.930 . S
C549 C548 1.384 . S
C549 C550 1.377 . S
C549 C552 1.481 . S
C550 C549 1.377 . S
C550 C551 1.389 . S
C550 H572 0.929 . S
C551 C547 1.397 . S
C551 C550 1.389 . S
C551 H573 0.931 . S
C552 C549 1.481 . S
C552 C553 1.387 . S
C552 C557 1.390 . S
C553 C552 1.387 . S
C553 C554 1.401 . S
C553 H574 0.930 . S
C554 C553 1.401 . S
C554 C555 1.376 . S
C554 C563 1.511 . S
C555 C554 1.376 . S
C555 C556 1.392 . S
C555 H576 0.931 . S
C556 C555 1.392 . S
C556 C557 1.361 . S
C556 C558 1.500 . S
C557 C552 1.390 . S
C557 C556 1.361 . S
C557 H575 0.931 . S
C558 C556 1.500 . S
C558 C559 1.371 . S
C558 C560 1.365 . S
C559 C558 1.371 . S
C559 C569 1.386 . S
C559 H577 0.931 . S
C560 C558 1.365 . S
C560 C561 1.409 . S
C560 H578 0.929 . S
C561 C560 1.409 . S
C561 C562 1.380 . S
C561 H579 0.930 . S
C562 C561 1.380 . S
C562 C569 1.357 . S
C563 C554 1.511 . S
C563 C564 1.341 . S
C563 C565 1.371 . S
C564 C563 1.341 . S
C564 C568 1.394 . S
C564 H580 0.930 . S
C565 C563 1.371 . S
C565 C566 1.392 . S
C565 H581 0.931 . S
C566 C565 1.392 . S
C566 C567 1.331 . S
C566 H584 0.932 . S
C567 C566 1.331 . S
C567 C568 1.336 . S
C568 C564 1.394 . S
C568 C567 1.336 . S
C568 H583 0.929 . S
C569 C559 1.386 . S
C569 C562 1.357 . S
C569 H582 0.928 . S
H570 C546 0.931 . S
H571 C548 0.930 . S
H572 C550 0.929 . S
H573 C551 0.931 . S
H574 C553 0.930 . S
H575 C557 0.931 . S
H576 C555 0.931 . S
H577 C559 0.931 . S
H578 C560 0.929 . S
H579 C561 0.930 . S
H580 C564 0.930 . S
H581 C565 0.931 . S
H582 C569 0.928 . S
H583 C568 0.929 . S
H584 C566 0.932 . S
C585 C586 1.386 . S
C585 C587 1.397 . S
C585 H609 0.931 . S
C586 C585 1.386 . S
C586 C590 1.397 . S
C587 C585 1.397 . S
C587 C588 1.384 . S
C587 H610 0.930 . S
C588 C587 1.384 . S
C588 C589 1.377 . S
C588 C591 1.481 . S
C589 C588 1.377 . S
C589 C590 1.389 . S
C589 H611 0.929 . S
C590 C586 1.397 . S
C590 C589 1.389 . S
C590 H612 0.931 . S
C591 C588 1.481 . S
C591 C592 1.387 . S
C591 C596 1.390 . S
C592 C591 1.387 . S
C592 C593 1.401 . S
C592 H613 0.930 . S
C593 C592 1.401 . S
C593 C594 1.376 . S
C593 C602 1.511 . S
C594 C593 1.376 . S
C594 C595 1.392 . S
C594 H615 0.931 . S
C595 C594 1.392 . S
C595 C596 1.361 . S
C595 C597 1.500 . S
C596 C591 1.390 . S
C596 C595 1.361 . S
C596 H614 0.931 . S
C597 C595 1.500 . S
C597 C598 1.371 . S
C597 C599 1.365 . S
C598 C597 1.371 . S
C598 C608 1.386 . S
C598 H616 0.931 . S
C599 C597 1.365 . S
C599 C600 1.409 . S
C599 H617 0.929 . S
C600 C599 1.409 . S
C600 C601 1.380 . S
C600 H618 0.930 . S
C601 C600 1.380 . S
C601 C608 1.357 . S
C602 C593 1.511 . S
C602 C603 1.341 . S
C602 C604 1.371 . S
C603 C602 1.341 . S
C603 C607 1.394 . S
C603 H619 0.930 . S
C604 C602 1.371 . S
C604 C605 1.392 . S
C604 H620 0.931 . S
C605 C604 1.392 . S
C605 C606 1.331 . S
C605 H623 0.932 . S
C606 C605 1.331 . S
C606 C607 1.336 . S
C607 C603 1.394 . S
C607 C606 1.336 . S
C607 H622 0.929 . S
C608 C598 1.386 . S
C608 C601 1.357 . S
C608 H621 0.928 . S
H609 C585 0.931 . S
H610 C587 0.930 . S
H611 C589 0.929 . S
H612 C590 0.931 . S
H613 C592 0.930 . S
H614 C596 0.931 . S
H615 C594 0.931 . S
H616 C598 0.931 . S
H617 C599 0.929 . S
H618 C600 0.930 . S
H619 C603 0.930 . S
H620 C604 0.931 . S
H621 C608 0.928 . S
H622 C607 0.929 . S
H623 C605 0.932 . S
C624 C625 1.386 . S
C624 C626 1.397 . S
C624 H648 0.931 . S
C625 C624 1.386 . S
C625 C629 1.397 . S
C626 C624 1.397 . S
C626 C627 1.384 . S
C626 H649 0.930 . S
C627 C626 1.384 . S
C627 C628 1.377 . S
C627 C630 1.481 . S
C628 C627 1.377 . S
C628 C629 1.389 . S
C628 H650 0.929 . S
C629 C625 1.397 . S
C629 C628 1.389 . S
C629 H651 0.931 . S
C630 C627 1.481 . S
C630 C631 1.387 . S
C630 C635 1.390 . S
C631 C630 1.387 . S
C631 C632 1.401 . S
C631 H652 0.930 . S
C632 C631 1.401 . S
C632 C633 1.376 . S
C632 C641 1.511 . S
C633 C632 1.376 . S
C633 C634 1.392 . S
C633 H654 0.931 . S
C634 C633 1.392 . S
C634 C635 1.361 . S
C634 C636 1.500 . S
C635 C630 1.390 . S
C635 C634 1.361 . S
C635 H653 0.931 . S
C636 C634 1.500 . S
C636 C637 1.371 . S
C636 C638 1.365 . S
C637 C636 1.371 . S
C637 C647 1.386 . S
C637 H655 0.931 . S
C638 C636 1.365 . S
C638 C639 1.409 . S
C638 H656 0.929 . S
C639 C638 1.409 . S
C639 C640 1.380 . S
C639 H657 0.930 . S
C640 C639 1.380 . S
C640 C647 1.357 . S
C641 C632 1.511 . S
C641 C642 1.341 . S
C641 C643 1.371 . S
C642 C641 1.341 . S
C642 C646 1.394 . S
C642 H658 0.930 . S
C643 C641 1.371 . S
C643 C644 1.392 . S
C643 H659 0.931 . S
C644 C643 1.392 . S
C644 C645 1.331 . S
C644 H662 0.932 . S
C645 C644 1.331 . S
C645 C646 1.336 . S
C646 C642 1.394 . S
C646 C645 1.336 . S
C646 H661 0.929 . S
C647 C637 1.386 . S
C647 C640 1.357 . S
C647 H660 0.928 . S
H648 C624 0.931 . S
H649 C626 0.930 . S
H650 C628 0.929 . S
H651 C629 0.931 . S
H652 C631 0.930 . S
H653 C635 0.931 . S
H654 C633 0.931 . S
H655 C637 0.931 . S
H656 C638 0.929 . S
H657 C639 0.930 . S
H658 C642 0.930 . S
H659 C643 0.931 . S
H660 C647 0.928 . S
H661 C646 0.929 . S
H662 C644 0.932 . S
C663 C664 1.386 . S
C663 C665 1.397 . S
C663 H687 0.931 . S
C664 C663 1.386 . S
C664 C668 1.397 . S
C665 C663 1.397 . S
C665 C666 1.384 . S
C665 H688 0.930 . S
C666 C665 1.384 . S
C666 C667 1.377 . S
C666 C669 1.481 . S
C667 C666 1.377 . S
C667 C668 1.389 . S
C667 H689 0.929 . S
C668 C664 1.397 . S
C668 C667 1.389 . S
C668 H690 0.931 . S
C669 C666 1.481 . S
C669 C670 1.387 . S
C669 C674 1.390 . S
C670 C669 1.387 . S
C670 C671 1.401 . S
C670 H691 0.930 . S
C671 C670 1.401 . S
C671 C672 1.376 . S
C671 C680 1.511 . S
C672 C671 1.376 . S
C672 C673 1.392 . S
C672 H693 0.931 . S
C673 C672 1.392 . S
C673 C674 1.361 . S
C673 C675 1.500 . S
C674 C669 1.390 . S
C674 C673 1.361 . S
C674 H692 0.931 . S
C675 C673 1.500 . S
C675 C676 1.371 . S
C675 C677 1.365 . S
C676 C675 1.371 . S
C676 C686 1.386 . S
C676 H694 0.931 . S
C677 C675 1.365 . S
C677 C678 1.409 . S
C677 H695 0.929 . S
C678 C677 1.409 . S
C678 C679 1.380 . S
C678 H696 0.930 . S
C679 C678 1.380 . S
C679 C686 1.357 . S
C680 C671 1.511 . S
C680 C681 1.341 . S
C680 C682 1.371 . S
C681 C680 1.341 . S
C681 C685 1.394 . S
C681 H697 0.930 . S
C682 C680 1.371 . S
C682 C683 1.392 . S
C682 H698 0.931 . S
C683 C682 1.392 . S
C683 C684 1.331 . S
C683 H701 0.932 . S
C684 C683 1.331 . S
C684 C685 1.336 . S
C685 C681 1.394 . S
C685 C684 1.336 . S
C685 H700 0.929 . S
C686 C676 1.386 . S
C686 C679 1.357 . S
C686 H699 0.928 . S
H687 C663 0.931 . S
H688 C665 0.930 . S
H689 C667 0.929 . S
H690 C668 0.931 . S
H691 C670 0.930 . S
H692 C674 0.931 . S
H693 C672 0.931 . S
H694 C676 0.931 . S
H695 C677 0.929 . S
H696 C678 0.930 . S
H697 C681 0.930 . S
H698 C682 0.931 . S
H699 C686 0.928 . S
H700 C685 0.929 . S
H701 C683 0.932 . S
Tb702 N733 2.660 . S
Tb702 N740 2.600 . S
Tb702 O746 2.546 . S
Tb702 O747 2.610 1_566 S
Tb702 O749 2.320 1_565 S
Tb702 O750 2.552 1_565 S
Tb702 O751 2.413 . S
Tb702 O753 2.362 1_556 S
Tb702 O754 2.385 1_556 S
Tb702 C766 2.833 . S
C703 C706 1.432 . S
C703 C707 1.414 . S
C703 N710 1.359 . S
C704 C706 1.417 . S
C704 C708 1.432 . S
C704 C716 1.410 . S
C705 C707 1.444 . S
C705 C708 1.317 . S
C705 H728 0.929 . S
C706 C703 1.432 . S
C706 C704 1.417 . S
C706 N714 1.360 . S
C707 C703 1.414 . S
C707 C705 1.444 . S
C707 C712 1.385 . S
C708 C704 1.432 . S
C708 C705 1.317 . S
C708 H720 0.930 . S
C709 C711 1.392 . S
C709 C712 1.370 . S
C709 H721 0.931 . S
N710 C703 1.359 . S
N710 C711 1.327 . S
N710 Tb713 2.600 . S
C711 C709 1.392 . S
C711 N710 1.327 . S
C711 H718 0.930 . S
C712 C707 1.385 . S
C712 C709 1.370 . S
C712 H731 0.930 . S
Tb713 N710 2.600 . S
Tb713 N714 2.660 . S
Tb713 O747 2.362 . S
Tb713 O748 2.421 . S
Tb713 O752 2.546 . S
Tb713 O753 2.610 1_545 S
Tb713 O755 2.320 1_545 S
Tb713 O756 2.552 1_545 S
Tb713 O757 2.413 . S
Tb713 C777 2.833 . S
N714 C706 1.360 . S
N714 Tb713 2.660 . S
N714 C715 1.305 . S
C715 N714 1.305 . S
C715 C717 1.407 . S
C715 H722 0.930 . S
C716 C704 1.410 . S
C716 C717 1.345 . S
C716 H724 0.930 . S
C717 C715 1.407 . S
C717 C716 1.345 . S
C717 H719 0.930 . S
H718 C711 0.930 . S
H719 C717 0.930 . S
H720 C708 0.930 . S
H721 C709 0.931 . S
H722 C715 0.930 . S
H723 C737 0.930 . S
H724 C716 0.930 . S
H725 C743 0.930 . S
H726 C734 0.930 . S
H727 C741 0.931 . S
H728 C705 0.929 . S
H729 C735 0.930 . S
H730 C768 0.930 . S
H731 C712 0.930 . S
H732 C767 0.929 . S
N733 Tb702 2.660 . S
N733 C734 1.305 . S
N733 C738 1.360 . S
C734 H726 0.930 . S
C734 N733 1.305 . S
C734 C737 1.407 . S
C735 H729 0.930 . S
C735 C736 1.410 . S
C735 C737 1.345 . S
C736 C735 1.410 . S
C736 C738 1.417 . S
C736 C768 1.432 . S
C737 H723 0.930 . S
C737 C734 1.407 . S
C737 C735 1.345 . S
C738 N733 1.360 . S
C738 C736 1.417 . S
C738 C742 1.432 . S
H739 C744 0.930 . S
N740 Tb702 2.600 . S
N740 C742 1.359 . S
N740 C743 1.327 . S
C741 H727 0.931 . S
C741 C743 1.392 . S
C741 C744 1.370 . S
C742 C738 1.432 . S
C742 N740 1.359 . S
C742 C745 1.414 . S
C743 H725 0.930 . S
C743 N740 1.327 . S
C743 C741 1.392 . S
C744 H739 0.930 . S
C744 C741 1.370 . S
C744 C745 1.385 . S
C745 C742 1.414 . S
C745 C744 1.385 . S
C745 C767 1.444 . S
O746 Tb702 2.546 . S
O746 C766 1.251 . S
O747 Tb702 2.610 1_544 S
O747 Tb713 2.362 . S
O747 C758 1.283 1_554 S
O748 Tb713 2.421 . S
O748 C765 1.262 1_554 S
O749 Tb702 2.320 1_545 S
O749 C765 1.260 . S
O750 Tb702 2.552 1_545 S
O750 C758 1.243 . S
O751 Tb702 2.413 . S
O751 C766 1.256 . S
O752 Tb713 2.546 . S
O752 C777 1.251 . S
O753 Tb702 2.362 1_554 S
O753 Tb713 2.610 1_565 S
O753 C769 1.283 . S
O754 Tb702 2.385 1_554 S
O754 C776 1.326 . S
O755 Tb713 2.320 1_565 S
O755 C776 1.260 . S
O756 Tb713 2.552 1_565 S
O756 C769 1.243 . S
O757 Tb713 2.413 . S
O757 C777 1.256 . S
C758 O747 1.283 1_556 S
C758 O750 1.243 . S
C759 C761 1.382 1_565 S
C759 C763 1.393 . S
C759 C766 1.500 . S
C760 C761 1.400 . S
C760 C762 1.384 1_545 S
C761 C759 1.382 1_545 S
C761 C760 1.400 . S
C761 H778 0.930 . S
C762 C760 1.384 1_565 S
C762 C764 1.392 . S
C762 H779 0.931 . S
C763 C759 1.393 . S
C763 C764 1.401 . S
C763 H780 0.930 . S
C764 C762 1.392 . S
C764 C763 1.401 . S
C764 H781 0.930 . S
C765 O748 1.262 1_556 S
C765 O749 1.260 . S
C766 Tb702 2.833 . S
C766 O746 1.251 . S
C766 O751 1.256 . S
C766 C759 1.500 . S
C767 H732 0.929 . S
C767 C745 1.444 . S
C767 C768 1.317 . S
C768 H730 0.930 . S
C768 C736 1.432 . S
C768 C767 1.317 . S
C769 O753 1.283 . S
C769 O756 1.243 . S
C770 C771 1.382 1_545 S
C770 C774 1.393 . S
C770 C777 1.500 . S
C771 C770 1.382 1_565 S
C771 C772 1.400 . S
C771 H782 0.930 . S
C772 C771 1.400 . S
C772 C773 1.384 1_565 S
C773 C772 1.384 1_545 S
C773 C775 1.392 . S
C773 H783 0.931 . S
C774 C770 1.393 . S
C774 C775 1.401 . S
C774 H784 0.930 . S
C775 C773 1.392 . S
C775 C774 1.401 . S
C775 H785 0.930 . S
C776 O754 1.326 . S
C776 O755 1.260 . S
C777 Tb713 2.833 . S
C777 O752 1.251 . S
C777 O757 1.256 . S
C777 C770 1.500 . S
H778 C761 0.930 . S
H779 C762 0.931 . S
H780 C763 0.930 . S
H781 C764 0.930 . S
H782 C771 0.930 . S
H783 C773 0.931 . S
H784 C774 0.930 . S
H785 C775 0.930 . S
Tb786 N817 2.660 . S
Tb786 N824 2.600 . S
Tb786 O830 2.546 . S
Tb786 O831 2.610 1_456 S
Tb786 O833 2.320 1_455 S
Tb786 O834 2.552 1_455 S
Tb786 O835 2.413 . S
Tb786 O837 2.362 1_556 S
Tb786 O838 2.421 1_556 S
Tb786 C850 2.833 . S
C787 C790 1.432 . S
C787 C791 1.414 . S
C787 N794 1.359 . S
C788 C790 1.417 . S
C788 C792 1.432 . S
C788 C800 1.410 . S
C789 C791 1.444 . S
C789 C792 1.317 . S
C789 H812 0.929 . S
C790 C787 1.432 . S
C790 C788 1.417 . S
C790 N798 1.360 . S
C791 C787 1.414 . S
C791 C789 1.444 . S
C791 C796 1.385 . S
C792 C788 1.432 . S
C792 C789 1.317 . S
C792 H804 0.930 . S
C793 C795 1.392 . S
C793 C796 1.370 . S
C793 H805 0.931 . S
N794 C787 1.359 . S
N794 C795 1.327 . S
N794 Tb797 2.600 . S
C795 C793 1.392 . S
C795 N794 1.327 . S
C795 H802 0.930 . S
C796 C791 1.385 . S
C796 C793 1.370 . S
C796 H815 0.930 . S
Tb797 N794 2.600 . S
Tb797 N798 2.660 . S
Tb797 O831 2.362 . S
Tb797 O832 2.421 . S
Tb797 O836 2.546 . S
Tb797 O837 2.610 1_655 S
Tb797 O839 2.320 1_655 S
Tb797 O840 2.552 1_655 S
Tb797 O841 2.413 . S
Tb797 C861 2.833 . S
N798 C790 1.360 . S
N798 Tb797 2.660 . S
N798 C799 1.305 . S
C799 N798 1.305 . S
C799 C801 1.407 . S
C799 H806 0.930 . S
C800 C788 1.410 . S
C800 C801 1.345 . S
C800 H808 0.930 . S
C801 C799 1.407 . S
C801 C800 1.345 . S
C801 H803 0.930 . S
H802 C795 0.930 . S
H803 C801 0.930 . S
H804 C792 0.930 . S
H805 C793 0.931 . S
H806 C799 0.930 . S
H807 C821 0.930 . S
H808 C800 0.930 . S
H809 C827 0.930 . S
H810 C818 0.930 . S
H811 C825 0.931 . S
H812 C789 0.929 . S
H813 C819 0.930 . S
H814 C852 0.930 . S
H815 C796 0.930 . S
H816 C851 0.929 . S
N817 Tb786 2.660 . S
N817 C818 1.305 . S
N817 C822 1.360 . S
C818 H810 0.930 . S
C818 N817 1.305 . S
C818 C821 1.407 . S
C819 H813 0.930 . S
C819 C820 1.410 . S
C819 C821 1.345 . S
C820 C819 1.410 . S
C820 C822 1.417 . S
C820 C852 1.432 . S
C821 H807 0.930 . S
C821 C818 1.407 . S
C821 C819 1.345 . S
C822 N817 1.360 . S
C822 C820 1.417 . S
C822 C826 1.432 . S
H823 C828 0.930 . S
N824 Tb786 2.600 . S
N824 C826 1.359 . S
N824 C827 1.327 . S
C825 H811 0.931 . S
C825 C827 1.392 . S
C825 C828 1.370 . S
C826 C822 1.432 . S
C826 N824 1.359 . S
C826 C829 1.414 . S
C827 H809 0.930 . S
C827 N824 1.327 . S
C827 C825 1.392 . S
C828 H823 0.930 . S
C828 C825 1.370 . S
C828 C829 1.385 . S
C829 C826 1.414 . S
C829 C828 1.385 . S
C829 C851 1.444 . S
O830 Tb786 2.546 . S
O830 C850 1.251 . S
O831 Tb786 2.610 1_654 S
O831 Tb797 2.362 . S
O831 C842 1.283 1_554 S
O832 Tb797 2.421 . S
O832 C849 1.262 1_554 S
O833 Tb786 2.320 1_655 S
O833 C849 1.260 . S
O834 Tb786 2.552 1_655 S
O834 C842 1.243 . S
O835 Tb786 2.413 . S
O835 C850 1.256 . S
O836 Tb797 2.546 . S
O836 C861 1.251 . S
O837 Tb786 2.362 1_554 S
O837 Tb797 2.610 1_455 S
O837 C853 1.283 . S
O838 Tb786 2.421 1_554 S
O838 C860 1.262 . S
O839 Tb797 2.320 1_455 S
O839 C860 1.260 . S
O840 Tb797 2.552 1_455 S
O840 C853 1.243 . S
O841 Tb797 2.413 . S
O841 C861 1.256 . S
C842 O831 1.283 1_556 S
C842 O834 1.243 . S
C843 C845 1.382 1_455 S
C843 C847 1.393 . S
C843 C850 1.500 . S
C844 C845 1.400 . S
C844 C846 1.384 1_655 S
C845 C843 1.382 1_655 S
C845 C844 1.400 . S
C845 H862 0.930 . S
C846 C844 1.384 1_455 S
C846 C848 1.392 . S
C846 H863 0.931 . S
C847 C843 1.393 . S
C847 C848 1.401 . S
C847 H864 0.930 . S
C848 C846 1.392 . S
C848 C847 1.401 . S
C848 H865 0.930 . S
C849 O832 1.262 1_556 S
C849 O833 1.260 . S
C850 Tb786 2.833 . S
C850 O830 1.251 . S
C850 O835 1.256 . S
C850 C843 1.500 . S
C851 H816 0.929 . S
C851 C829 1.444 . S
C851 C852 1.317 . S
C852 H814 0.930 . S
C852 C820 1.432 . S
C852 C851 1.317 . S
C853 O837 1.283 . S
C853 O840 1.243 . S
C854 C855 1.382 1_655 S
C854 C858 1.393 . S
C854 C861 1.500 . S
C855 C854 1.382 1_455 S
C855 C856 1.400 . S
C855 H866 0.930 . S
C856 C855 1.400 . S
C856 C857 1.384 1_455 S
C857 C856 1.384 1_655 S
C857 C859 1.392 . S
C857 H867 0.931 . S
C858 C854 1.393 . S
C858 C859 1.401 . S
C858 H868 0.930 . S
C859 C857 1.392 . S
C859 C858 1.401 . S
C859 H869 0.930 . S
C860 O838 1.262 . S
C860 O839 1.260 . S
C861 Tb797 2.833 . S
C861 O836 1.251 . S
C861 O841 1.256 . S
C861 C854 1.500 . S
H862 C845 0.930 . S
H863 C846 0.931 . S
H864 C847 0.930 . S
H865 C848 0.930 . S
H866 C855 0.930 . S
H867 C857 0.931 . S
H868 C858 0.930 . S
H869 C859 0.930 . S
Tb870 N901 2.660 . S
Tb870 N908 2.600 . S
Tb870 O914 2.546 . S
Tb870 O915 2.610 . S
Tb870 O917 2.320 . S
Tb870 O918 2.552 . S
Tb870 O919 2.413 . S
Tb870 O921 2.362 . S
Tb870 O922 2.421 . S
Tb870 C934 2.833 . S
C871 C874 1.432 . S
C871 C875 1.414 . S
C871 N878 1.359 . S
C872 C874 1.417 . S
C872 C876 1.432 . S
C872 C884 1.410 . S
C873 C875 1.444 . S
C873 C876 1.317 . S
C873 H896 0.929 . S
C874 C871 1.432 . S
C874 C872 1.417 . S
C874 N882 1.360 . S
C875 C871 1.414 . S
C875 C873 1.444 . S
C875 C880 1.385 . S
C876 C872 1.432 . S
C876 C873 1.317 . S
C876 H888 0.930 . S
C877 C879 1.392 . S
C877 C880 1.370 . S
C877 H889 0.931 . S
N878 C871 1.359 . S
N878 C879 1.327 . S
N878 Tb881 2.600 . S
C879 C877 1.392 . S
C879 N878 1.327 . S
C879 H886 0.930 . S
C880 C875 1.385 . S
C880 C877 1.370 . S
C880 H899 0.930 . S
Tb881 N878 2.600 . S
Tb881 N882 2.660 . S
Tb881 O915 2.362 1_556 S
Tb881 O916 2.378 1_556 S
Tb881 O920 2.546 . S
Tb881 O921 2.610 1_556 S
Tb881 O923 2.320 . S
Tb881 O924 2.552 . S
Tb881 O925 2.413 . S
Tb881 C945 2.833 . S
N882 C874 1.360 . S
N882 Tb881 2.660 . S
N882 C883 1.305 . S
C883 N882 1.305 . S
C883 C885 1.407 . S
C883 H890 0.930 . S
C884 C872 1.410 . S
C884 C885 1.345 . S
C884 H892 0.930 . S
C885 C883 1.407 . S
C885 C884 1.345 . S
C885 H887 0.930 . S
H886 C879 0.930 . S
H887 C885 0.930 . S
H888 C876 0.930 . S
H889 C877 0.931 . S
H890 C883 0.930 . S
H891 C905 0.930 . S
H892 C884 0.930 . S
H893 C911 0.930 . S
H894 C902 0.930 . S
H895 C909 0.931 . S
H896 C873 0.929 . S
H897 C903 0.930 . S
H898 C936 0.930 . S
H899 C880 0.930 . S
H900 C935 0.929 . S
N901 Tb870 2.660 . S
N901 C902 1.305 . S
N901 C906 1.360 . S
C902 H894 0.930 . S
C902 N901 1.305 . S
C902 C905 1.407 . S
C903 H897 0.930 . S
C903 C904 1.410 . S
C903 C905 1.345 . S
C904 C903 1.410 . S
C904 C906 1.417 . S
C904 C936 1.432 . S
C905 H891 0.930 . S
C905 C902 1.407 . S
C905 C903 1.345 . S
C906 N901 1.360 . S
C906 C904 1.417 . S
C906 C910 1.432 . S
H907 C912 0.930 . S
N908 Tb870 2.600 . S
N908 C910 1.359 . S
N908 C911 1.327 . S
C909 H895 0.931 . S
C909 C911 1.392 . S
C909 C912 1.370 . S
C910 C906 1.432 . S
C910 N908 1.359 . S
C910 C913 1.414 . S
C911 H893 0.930 . S
C911 N908 1.327 . S
C911 C909 1.392 . S
C912 H907 0.930 . S
C912 C909 1.370 . S
C912 C913 1.385 . S
C913 C910 1.414 . S
C913 C912 1.385 . S
C913 C935 1.444 . S
O914 Tb870 2.546 . S
O914 C934 1.251 . S
O915 Tb870 2.610 . S
O915 Tb881 2.362 1_554 S
O915 C926 1.283 . S
O916 Tb881 2.378 1_554 S
O916 C933 1.341 . S
O917 Tb870 2.320 . S
O917 C933 1.260 . S
O918 Tb870 2.552 . S
O918 C926 1.243 . S
O919 Tb870 2.413 . S
O919 C934 1.256 . S
O920 Tb881 2.546 . S
O920 C945 1.251 . S
O921 Tb870 2.362 . S
O921 Tb881 2.610 1_554 S
O921 C937 1.283 1_554 S
O922 Tb870 2.421 . S
O922 C944 1.262 1_554 S
O923 Tb881 2.320 . S
O923 C944 1.260 . S
O924 Tb881 2.552 . S
O924 C937 1.243 . S
O925 Tb881 2.413 . S
O925 C945 1.256 . S
C926 O915 1.283 . S
C926 O918 1.243 . S
C927 C929 1.382 . S
C927 C931 1.393 . S
C927 C934 1.500 . S
C928 C929 1.400 . S
C928 C930 1.384 . S
C929 C927 1.382 . S
C929 C928 1.400 . S
C929 H946 0.930 . S
C930 C928 1.384 . S
C930 C932 1.392 . S
C930 H947 0.931 . S
C931 C927 1.393 . S
C931 C932 1.401 . S
C931 H948 0.930 . S
C932 C930 1.392 . S
C932 C931 1.401 . S
C932 H949 0.930 . S
C933 O916 1.341 . S
C933 O917 1.260 . S
C934 Tb870 2.833 . S
C934 O914 1.251 . S
C934 O919 1.256 . S
C934 C927 1.500 . S
C935 H900 0.929 . S
C935 C913 1.444 . S
C935 C936 1.317 . S
C936 H898 0.930 . S
C936 C904 1.432 . S
C936 C935 1.317 . S
C937 O921 1.283 1_556 S
C937 O924 1.243 . S
C938 C939 1.382 . S
C938 C942 1.393 . S
C938 C945 1.500 . S
C939 C938 1.382 . S
C939 C940 1.400 . S
C939 H950 0.930 . S
C940 C939 1.400 . S
C940 C941 1.384 . S
C941 C940 1.384 . S
C941 C943 1.392 . S
C941 H951 0.931 . S
C942 C938 1.393 . S
C942 C943 1.401 . S
C942 H952 0.930 . S
C943 C941 1.392 . S
C943 C942 1.401 . S
C943 H953 0.930 . S
C944 O922 1.262 1_556 S
C944 O923 1.260 . S
C945 Tb881 2.833 . S
C945 O920 1.251 . S
C945 O925 1.256 . S
C945 C938 1.500 . S
H946 C929 0.930 . S
H947 C930 0.931 . S
H948 C931 0.930 . S
H949 C932 0.930 . S
H950 C939 0.930 . S
H951 C941 0.931 . S
H952 C942 0.930 . S
H953 C943 0.930 . S
Tb954 N985 2.660 . S
Tb954 N992 2.600 . S
Tb954 O998 2.546 . S
Tb954 O999 2.610 . S
Tb954 O1001 2.320 . S
Tb954 O1002 2.552 . S
Tb954 O1003 2.413 . S
Tb954 O1005 2.362 . S
Tb954 O1006 2.421 . S
Tb954 C1018 2.833 . S
C955 C958 1.432 . S
C955 C959 1.414 . S
C955 N962 1.359 . S
C956 C958 1.417 . S
C956 C960 1.432 . S
C956 C968 1.410 . S
C957 C959 1.444 . S
C957 C960 1.317 . S
C957 H980 0.929 . S
C958 C955 1.432 . S
C958 C956 1.417 . S
C958 N966 1.360 . S
C959 C955 1.414 . S
C959 C957 1.444 . S
C959 C964 1.385 . S
C960 C956 1.432 . S
C960 C957 1.317 . S
C960 H972 0.930 . S
C961 C963 1.392 . S
C961 C964 1.370 . S
C961 H973 0.931 . S
N962 C955 1.359 . S
N962 C963 1.327 . S
N962 Tb965 2.600 . S
C963 C961 1.392 . S
C963 N962 1.327 . S
C963 H970 0.930 . S
C964 C959 1.385 . S
C964 C961 1.370 . S
C964 H983 0.930 . S
Tb965 N962 2.600 . S
Tb965 N966 2.660 . S
Tb965 O999 2.362 . S
Tb965 O1000 2.421 . S
Tb965 O1004 2.546 . S
Tb965 O1005 2.610 . S
Tb965 O1007 2.320 . S
Tb965 O1008 2.552 . S
Tb965 O1009 2.413 . S
Tb965 C1029 2.833 . S
N966 C958 1.360 . S
N966 Tb965 2.660 . S
N966 C967 1.305 . S
C967 N966 1.305 . S
C967 C969 1.407 . S
C967 H974 0.930 . S
C968 C956 1.410 . S
C968 C969 1.345 . S
C968 H976 0.930 . S
C969 C967 1.407 . S
C969 C968 1.345 . S
C969 H971 0.930 . S
H970 C963 0.930 . S
H971 C969 0.930 . S
H972 C960 0.930 . S
H973 C961 0.931 . S
H974 C967 0.930 . S
H975 C989 0.930 . S
H976 C968 0.930 . S
H977 C995 0.930 . S
H978 C986 0.930 . S
H979 C993 0.931 . S
H980 C957 0.929 . S
H981 C987 0.930 . S
H982 C1020 0.930 . S
H983 C964 0.930 . S
H984 C1019 0.929 . S
N985 Tb954 2.660 . S
N985 C986 1.305 . S
N985 C990 1.360 . S
C986 H978 0.930 . S
C986 N985 1.305 . S
C986 C989 1.407 . S
C987 H981 0.930 . S
C987 C988 1.410 . S
C987 C989 1.345 . S
C988 C987 1.410 . S
C988 C990 1.417 . S
C988 C1020 1.432 . S
C989 H975 0.930 . S
C989 C986 1.407 . S
C989 C987 1.345 . S
C990 N985 1.360 . S
C990 C988 1.417 . S
C990 C994 1.432 . S
H991 C996 0.930 . S
N992 Tb954 2.600 . S
N992 C994 1.359 . S
N992 C995 1.327 . S
C993 H979 0.931 . S
C993 C995 1.392 . S
C993 C996 1.370 . S
C994 C990 1.432 . S
C994 N992 1.359 . S
C994 C997 1.414 . S
C995 H977 0.930 . S
C995 N992 1.327 . S
C995 C993 1.392 . S
C996 H991 0.930 . S
C996 C993 1.370 . S
C996 C997 1.385 . S
C997 C994 1.414 . S
C997 C996 1.385 . S
C997 C1019 1.444 . S
O998 Tb954 2.546 . S
O998 C1018 1.251 . S
O999 Tb954 2.610 . S
O999 Tb965 2.362 . S
O999 C1010 1.283 . S
O1000 Tb965 2.421 . S
O1000 C1017 1.262 . S
O1001 Tb954 2.320 . S
O1001 C1017 1.260 . S
O1002 Tb954 2.552 . S
O1002 C1010 1.243 . S
O1003 Tb954 2.413 . S
O1003 C1018 1.256 . S
O1004 Tb965 2.546 . S
O1004 C1029 1.251 . S
O1005 Tb954 2.362 . S
O1005 Tb965 2.610 . S
O1005 C1021 1.283 . S
O1006 Tb954 2.421 . S
O1006 C1028 1.262 . S
O1007 Tb965 2.320 . S
O1007 C1028 1.260 . S
O1008 Tb965 2.552 . S
O1008 C1021 1.243 . S
O1009 Tb965 2.413 . S
O1009 C1029 1.256 . S
C1010 O999 1.283 . S
C1010 O1002 1.243 . S
C1011 C1013 1.382 . S
C1011 C1015 1.393 . S
C1011 C1018 1.500 . S
C1012 C1013 1.400 . S
C1012 C1014 1.384 . S
C1013 C1011 1.382 . S
C1013 C1012 1.400 . S
C1013 H1030 0.930 . S
C1014 C1012 1.384 . S
C1014 C1016 1.392 . S
C1014 H1031 0.931 . S
C1015 C1011 1.393 . S
C1015 C1016 1.401 . S
C1015 H1032 0.930 . S
C1016 C1014 1.392 . S
C1016 C1015 1.401 . S
C1016 H1033 0.930 . S
C1017 O1000 1.262 . S
C1017 O1001 1.260 . S
C1018 Tb954 2.833 . S
C1018 O998 1.251 . S
C1018 O1003 1.256 . S
C1018 C1011 1.500 . S
C1019 H984 0.929 . S
C1019 C997 1.444 . S
C1019 C1020 1.317 . S
C1020 H982 0.930 . S
C1020 C988 1.432 . S
C1020 C1019 1.317 . S
C1021 O1005 1.283 . S
C1021 O1008 1.243 . S
C1022 C1023 1.382 . S
C1022 C1026 1.393 . S
C1022 C1029 1.500 . S
C1023 C1022 1.382 . S
C1023 C1024 1.400 . S
C1023 H1034 0.930 . S
C1024 C1023 1.400 . S
C1024 C1025 1.384 . S
C1025 C1024 1.384 . S
C1025 C1027 1.392 . S
C1025 H1035 0.931 . S
C1026 C1022 1.393 . S
C1026 C1027 1.401 . S
C1026 H1036 0.930 . S
C1027 C1025 1.392 . S
C1027 C1026 1.401 . S
C1027 H1037 0.930 . S
C1028 O1006 1.262 . S
C1028 O1007 1.260 . S
C1029 Tb965 2.833 . S
C1029 O1004 1.251 . S
C1029 O1009 1.256 . S
C1029 C1022 1.500 . S
H1030 C1013 0.930 . S
H1031 C1014 0.931 . S
H1032 C1015 0.930 . S
H1033 C1016 0.930 . S
H1034 C1023 0.930 . S
H1035 C1025 0.931 . S
H1036 C1026 0.930 . S
H1037 C1027 0.930 . S
Tb1038 N1069 2.660 . S
Tb1038 N1076 2.600 . S
Tb1038 O1082 2.546 . S
Tb1038 O1083 2.610 . S
Tb1038 O1085 2.320 . S
Tb1038 O1086 2.552 . S
Tb1038 O1087 2.413 . S
Tb1038 O1089 2.362 . S
Tb1038 O1090 2.421 . S
Tb1038 C1102 2.833 . S
C1039 C1042 1.432 . S
C1039 C1043 1.414 . S
C1039 N1046 1.359 . S
C1040 C1042 1.417 . S
C1040 C1044 1.432 . S
C1040 C1052 1.410 . S
C1041 C1043 1.444 . S
C1041 C1044 1.317 . S
C1041 H1064 0.929 . S
C1042 C1039 1.432 . S
C1042 C1040 1.417 . S
C1042 N1050 1.360 . S
C1043 C1039 1.414 . S
C1043 C1041 1.444 . S
C1043 C1048 1.385 . S
C1044 C1040 1.432 . S
C1044 C1041 1.317 . S
C1044 H1056 0.930 . S
C1045 C1047 1.392 . S
C1045 C1048 1.370 . S
C1045 H1057 0.931 . S
N1046 C1039 1.359 . S
N1046 C1047 1.327 . S
N1046 Tb1049 2.600 . S
C1047 C1045 1.392 . S
C1047 N1046 1.327 . S
C1047 H1054 0.930 . S
C1048 C1043 1.385 . S
C1048 C1045 1.370 . S
C1048 H1067 0.930 . S
Tb1049 N1046 2.600 . S
Tb1049 N1050 2.660 . S
Tb1049 O1083 2.362 . S
Tb1049 O1084 2.421 . S
Tb1049 O1088 2.546 . S
Tb1049 O1089 2.610 . S
Tb1049 O1091 2.320 . S
Tb1049 O1092 2.552 . S
Tb1049 O1093 2.413 . S
Tb1049 C1113 2.833 . S
N1050 C1042 1.360 . S
N1050 Tb1049 2.660 . S
N1050 C1051 1.305 . S
C1051 N1050 1.305 . S
C1051 C1053 1.407 . S
C1051 H1058 0.930 . S
C1052 C1040 1.410 . S
C1052 C1053 1.345 . S
C1052 H1060 0.930 . S
C1053 C1051 1.407 . S
C1053 C1052 1.345 . S
C1053 H1055 0.930 . S
H1054 C1047 0.930 . S
H1055 C1053 0.930 . S
H1056 C1044 0.930 . S
H1057 C1045 0.931 . S
H1058 C1051 0.930 . S
H1059 C1073 0.930 . S
H1060 C1052 0.930 . S
H1061 C1079 0.930 . S
H1062 C1070 0.930 . S
H1063 C1077 0.931 . S
H1064 C1041 0.929 . S
H1065 C1071 0.930 . S
H1066 C1104 0.930 . S
H1067 C1048 0.930 . S
H1068 C1103 0.929 . S
N1069 Tb1038 2.660 . S
N1069 C1070 1.305 . S
N1069 C1074 1.360 . S
C1070 H1062 0.930 . S
C1070 N1069 1.305 . S
C1070 C1073 1.407 . S
C1071 H1065 0.930 . S
C1071 C1072 1.410 . S
C1071 C1073 1.345 . S
C1072 C1071 1.410 . S
C1072 C1074 1.417 . S
C1072 C1104 1.432 . S
C1073 H1059 0.930 . S
C1073 C1070 1.407 . S
C1073 C1071 1.345 . S
C1074 N1069 1.360 . S
C1074 C1072 1.417 . S
C1074 C1078 1.432 . S
H1075 C1080 0.930 . S
N1076 Tb1038 2.600 . S
N1076 C1078 1.359 . S
N1076 C1079 1.327 . S
C1077 H1063 0.931 . S
C1077 C1079 1.392 . S
C1077 C1080 1.370 . S
C1078 C1074 1.432 . S
C1078 N1076 1.359 . S
C1078 C1081 1.414 . S
C1079 H1061 0.930 . S
C1079 N1076 1.327 . S
C1079 C1077 1.392 . S
C1080 H1075 0.930 . S
C1080 C1077 1.370 . S
C1080 C1081 1.385 . S
C1081 C1078 1.414 . S
C1081 C1080 1.385 . S
C1081 C1103 1.444 . S
O1082 Tb1038 2.546 . S
O1082 C1102 1.251 . S
O1083 Tb1038 2.610 . S
O1083 Tb1049 2.362 . S
O1083 C1094 1.283 . S
O1084 Tb1049 2.421 . S
O1084 C1101 1.262 . S
O1085 Tb1038 2.320 . S
O1085 C1101 1.260 . S
O1086 Tb1038 2.552 . S
O1086 C1094 1.243 . S
O1087 Tb1038 2.413 . S
O1087 C1102 1.256 . S
O1088 Tb1049 2.546 . S
O1088 C1113 1.251 . S
O1089 Tb1038 2.362 . S
O1089 Tb1049 2.610 . S
O1089 C1105 1.283 . S
O1090 Tb1038 2.421 . S
O1090 C1112 1.262 . S
O1091 Tb1049 2.320 . S
O1091 C1112 1.260 . S
O1092 Tb1049 2.552 . S
O1092 C1105 1.243 . S
O1093 Tb1049 2.413 . S
O1093 C1113 1.256 . S
C1094 O1083 1.283 . S
C1094 O1086 1.243 . S
C1095 C1097 1.382 . S
C1095 C1099 1.393 . S
C1095 C1102 1.500 . S
C1096 C1097 1.400 . S
C1096 C1098 1.384 . S
C1097 C1095 1.382 . S
C1097 C1096 1.400 . S
C1097 H1114 0.930 . S
C1098 C1096 1.384 . S
C1098 C1100 1.392 . S
C1098 H1115 0.931 . S
C1099 C1095 1.393 . S
C1099 C1100 1.401 . S
C1099 H1116 0.930 . S
C1100 C1098 1.392 . S
C1100 C1099 1.401 . S
C1100 H1117 0.930 . S
C1101 O1084 1.262 . S
C1101 O1085 1.260 . S
C1102 Tb1038 2.833 . S
C1102 O1082 1.251 . S
C1102 O1087 1.256 . S
C1102 C1095 1.500 . S
C1103 H1068 0.929 . S
C1103 C1081 1.444 . S
C1103 C1104 1.317 . S
C1104 H1066 0.930 . S
C1104 C1072 1.432 . S
C1104 C1103 1.317 . S
C1105 O1089 1.283 . S
C1105 O1092 1.243 . S
C1106 C1107 1.382 . S
C1106 C1110 1.393 . S
C1106 C1113 1.500 . S
C1107 C1106 1.382 . S
C1107 C1108 1.400 . S
C1107 H1118 0.930 . S
C1108 C1107 1.400 . S
C1108 C1109 1.384 . S
C1109 C1108 1.384 . S
C1109 C1111 1.392 . S
C1109 H1119 0.931 . S
C1110 C1106 1.393 . S
C1110 C1111 1.401 . S
C1110 H1120 0.930 . S
C1111 C1109 1.392 . S
C1111 C1110 1.401 . S
C1111 H1121 0.930 . S
C1112 O1090 1.262 . S
C1112 O1091 1.260 . S
C1113 Tb1049 2.833 . S
C1113 O1088 1.251 . S
C1113 O1093 1.256 . S
C1113 C1106 1.500 . S
H1114 C1097 0.930 . S
H1115 C1098 0.931 . S
H1116 C1099 0.930 . S
H1117 C1100 0.930 . S
H1118 C1107 0.930 . S
H1119 C1109 0.931 . S
H1120 C1110 0.930 . S
H1121 C1111 0.930 . S
Tb1122 N1153 2.660 . S
Tb1122 N1160 2.600 . S
Tb1122 O1166 2.546 . S
Tb1122 O1167 2.610 . S
Tb1122 O1169 2.320 . S
Tb1122 O1170 2.552 . S
Tb1122 O1171 2.413 . S
Tb1122 O1173 2.362 . S
Tb1122 O1174 2.421 . S
Tb1122 C1186 2.833 . S
C1123 C1126 1.432 . S
C1123 C1127 1.414 . S
C1123 N1130 1.359 . S
C1124 C1126 1.417 . S
C1124 C1128 1.432 . S
C1124 C1136 1.410 . S
C1125 C1127 1.444 . S
C1125 C1128 1.317 . S
C1125 H1148 0.929 . S
C1126 C1123 1.432 . S
C1126 C1124 1.417 . S
C1126 N1134 1.360 . S
C1127 C1123 1.414 . S
C1127 C1125 1.444 . S
C1127 C1132 1.385 . S
C1128 C1124 1.432 . S
C1128 C1125 1.317 . S
C1128 H1140 0.930 . S
C1129 C1131 1.392 . S
C1129 C1132 1.370 . S
C1129 H1141 0.931 . S
N1130 C1123 1.359 . S
N1130 C1131 1.327 . S
N1130 Tb1133 2.600 . S
C1131 C1129 1.392 . S
C1131 N1130 1.327 . S
C1131 H1138 0.930 . S
C1132 C1127 1.385 . S
C1132 C1129 1.370 . S
C1132 H1151 0.930 . S
Tb1133 N1130 2.600 . S
Tb1133 N1134 2.660 . S
Tb1133 O1167 2.362 . S
Tb1133 O1168 2.421 . S
Tb1133 O1172 2.546 . S
Tb1133 O1173 2.610 . S
Tb1133 O1175 2.320 . S
Tb1133 O1176 2.552 . S
Tb1133 O1177 2.413 . S
Tb1133 C1197 2.833 . S
N1134 C1126 1.360 . S
N1134 Tb1133 2.660 . S
N1134 C1135 1.305 . S
C1135 N1134 1.305 . S
C1135 C1137 1.407 . S
C1135 H1142 0.930 . S
C1136 C1124 1.410 . S
C1136 C1137 1.345 . S
C1136 H1144 0.930 . S
C1137 C1135 1.407 . S
C1137 C1136 1.345 . S
C1137 H1139 0.930 . S
H1138 C1131 0.930 . S
H1139 C1137 0.930 . S
H1140 C1128 0.930 . S
H1141 C1129 0.931 . S
H1142 C1135 0.930 . S
H1143 C1157 0.930 . S
H1144 C1136 0.930 . S
H1145 C1163 0.930 . S
H1146 C1154 0.930 . S
H1147 C1161 0.931 . S
H1148 C1125 0.929 . S
H1149 C1155 0.930 . S
H1150 C1188 0.930 . S
H1151 C1132 0.930 . S
H1152 C1187 0.929 . S
N1153 Tb1122 2.660 . S
N1153 C1154 1.305 . S
N1153 C1158 1.360 . S
C1154 H1146 0.930 . S
C1154 N1153 1.305 . S
C1154 C1157 1.407 . S
C1155 H1149 0.930 . S
C1155 C1156 1.410 . S
C1155 C1157 1.345 . S
C1156 C1155 1.410 . S
C1156 C1158 1.417 . S
C1156 C1188 1.432 . S
C1157 H1143 0.930 . S
C1157 C1154 1.407 . S
C1157 C1155 1.345 . S
C1158 N1153 1.360 . S
C1158 C1156 1.417 . S
C1158 C1162 1.432 . S
H1159 C1164 0.930 . S
N1160 Tb1122 2.600 . S
N1160 C1162 1.359 . S
N1160 C1163 1.327 . S
C1161 H1147 0.931 . S
C1161 C1163 1.392 . S
C1161 C1164 1.370 . S
C1162 C1158 1.432 . S
C1162 N1160 1.359 . S
C1162 C1165 1.414 . S
C1163 H1145 0.930 . S
C1163 N1160 1.327 . S
C1163 C1161 1.392 . S
C1164 H1159 0.930 . S
C1164 C1161 1.370 . S
C1164 C1165 1.385 . S
C1165 C1162 1.414 . S
C1165 C1164 1.385 . S
C1165 C1187 1.444 . S
O1166 Tb1122 2.546 . S
O1166 C1186 1.251 . S
O1167 Tb1122 2.610 . S
O1167 Tb1133 2.362 . S
O1167 C1178 1.283 . S
O1168 Tb1133 2.421 . S
O1168 C1185 1.262 . S
O1169 Tb1122 2.320 . S
O1169 C1185 1.260 . S
O1170 Tb1122 2.552 . S
O1170 C1178 1.243 . S
O1171 Tb1122 2.413 . S
O1171 C1186 1.256 . S
O1172 Tb1133 2.546 . S
O1172 C1197 1.251 . S
O1173 Tb1122 2.362 . S
O1173 Tb1133 2.610 . S
O1173 C1189 1.283 . S
O1174 Tb1122 2.421 . S
O1174 C1196 1.262 . S
O1175 Tb1133 2.320 . S
O1175 C1196 1.260 . S
O1176 Tb1133 2.552 . S
O1176 C1189 1.243 . S
O1177 Tb1133 2.413 . S
O1177 C1197 1.256 . S
C1178 O1167 1.283 . S
C1178 O1170 1.243 . S
C1179 C1181 1.382 . S
C1179 C1183 1.393 . S
C1179 C1186 1.500 . S
C1180 C1181 1.400 . S
C1180 C1182 1.384 . S
C1181 C1179 1.382 . S
C1181 C1180 1.400 . S
C1181 H1198 0.930 . S
C1182 C1180 1.384 . S
C1182 C1184 1.392 . S
C1182 H1199 0.931 . S
C1183 C1179 1.393 . S
C1183 C1184 1.401 . S
C1183 H1200 0.930 . S
C1184 C1182 1.392 . S
C1184 C1183 1.401 . S
C1184 H1201 0.930 . S
C1185 O1168 1.262 . S
C1185 O1169 1.260 . S
C1186 Tb1122 2.833 . S
C1186 O1166 1.251 . S
C1186 O1171 1.256 . S
C1186 C1179 1.500 . S
C1187 H1152 0.929 . S
C1187 C1165 1.444 . S
C1187 C1188 1.317 . S
C1188 H1150 0.930 . S
C1188 C1156 1.432 . S
C1188 C1187 1.317 . S
C1189 O1173 1.283 . S
C1189 O1176 1.243 . S
C1190 C1191 1.382 . S
C1190 C1194 1.393 . S
C1190 C1197 1.500 . S
C1191 C1190 1.382 . S
C1191 C1192 1.400 . S
C1191 H1202 0.930 . S
C1192 C1191 1.400 . S
C1192 C1193 1.384 . S
C1193 C1192 1.384 . S
C1193 C1195 1.392 . S
C1193 H1203 0.931 . S
C1194 C1190 1.393 . S
C1194 C1195 1.401 . S
C1194 H1204 0.930 . S
C1195 C1193 1.392 . S
C1195 C1194 1.401 . S
C1195 H1205 0.930 . S
C1196 O1174 1.262 . S
C1196 O1175 1.260 . S
C1197 Tb1133 2.833 . S
C1197 O1172 1.251 . S
C1197 O1177 1.256 . S
C1197 C1190 1.500 . S
H1198 C1181 0.930 . S
H1199 C1182 0.931 . S
H1200 C1183 0.930 . S
H1201 C1184 0.930 . S
H1202 C1191 0.930 . S
H1203 C1193 0.931 . S
H1204 C1194 0.930 . S
H1205 C1195 0.930 . S
Tb1206 N1237 2.660 . S
Tb1206 N1244 2.600 . S
Tb1206 O1250 2.546 . S
Tb1206 O1251 2.610 . S
Tb1206 O1253 2.320 . S
Tb1206 O1254 2.552 . S
Tb1206 O1255 2.413 . S
Tb1206 O1257 2.362 . S
Tb1206 O1258 2.421 . S
Tb1206 C1270 2.833 . S
C1207 C1210 1.432 . S
C1207 C1211 1.414 . S
C1207 N1214 1.359 . S
C1208 C1210 1.417 . S
C1208 C1212 1.432 . S
C1208 C1220 1.410 . S
C1209 C1211 1.444 . S
C1209 C1212 1.317 . S
C1209 H1232 0.929 . S
C1210 C1207 1.432 . S
C1210 C1208 1.417 . S
C1210 N1218 1.360 . S
C1211 C1207 1.414 . S
C1211 C1209 1.444 . S
C1211 C1216 1.385 . S
C1212 C1208 1.432 . S
C1212 C1209 1.317 . S
C1212 H1224 0.930 . S
C1213 C1215 1.392 . S
C1213 C1216 1.370 . S
C1213 H1225 0.931 . S
N1214 C1207 1.359 . S
N1214 C1215 1.327 . S
N1214 Tb1217 2.600 . S
C1215 C1213 1.392 . S
C1215 N1214 1.327 . S
C1215 H1222 0.930 . S
C1216 C1211 1.385 . S
C1216 C1213 1.370 . S
C1216 H1235 0.930 . S
Tb1217 N1214 2.600 . S
Tb1217 N1218 2.660 . S
Tb1217 O1251 2.362 . S
Tb1217 O1252 2.421 . S
Tb1217 O1256 2.546 . S
Tb1217 O1257 2.610 . S
Tb1217 O1259 2.320 . S
Tb1217 O1260 2.552 . S
Tb1217 O1261 2.413 . S
Tb1217 C1281 2.833 . S
N1218 C1210 1.360 . S
N1218 Tb1217 2.660 . S
N1218 C1219 1.305 . S
C1219 N1218 1.305 . S
C1219 C1221 1.407 . S
C1219 H1226 0.930 . S
C1220 C1208 1.410 . S
C1220 C1221 1.345 . S
C1220 H1228 0.930 . S
C1221 C1219 1.407 . S
C1221 C1220 1.345 . S
C1221 H1223 0.930 . S
H1222 C1215 0.930 . S
H1223 C1221 0.930 . S
H1224 C1212 0.930 . S
H1225 C1213 0.931 . S
H1226 C1219 0.930 . S
H1227 C1241 0.930 . S
H1228 C1220 0.930 . S
H1229 C1247 0.930 . S
H1230 C1238 0.930 . S
H1231 C1245 0.931 . S
H1232 C1209 0.929 . S
H1233 C1239 0.930 . S
H1234 C1272 0.930 . S
H1235 C1216 0.930 . S
H1236 C1271 0.929 . S
N1237 Tb1206 2.660 . S
N1237 C1238 1.305 . S
N1237 C1242 1.360 . S
C1238 H1230 0.930 . S
C1238 N1237 1.305 . S
C1238 C1241 1.407 . S
C1239 H1233 0.930 . S
C1239 C1240 1.410 . S
C1239 C1241 1.345 . S
C1240 C1239 1.410 . S
C1240 C1242 1.417 . S
C1240 C1272 1.432 . S
C1241 H1227 0.930 . S
C1241 C1238 1.407 . S
C1241 C1239 1.345 . S
C1242 N1237 1.360 . S
C1242 C1240 1.417 . S
C1242 C1246 1.432 . S
H1243 C1248 0.930 . S
N1244 Tb1206 2.600 . S
N1244 C1246 1.359 . S
N1244 C1247 1.327 . S
C1245 H1231 0.931 . S
C1245 C1247 1.392 . S
C1245 C1248 1.370 . S
C1246 C1242 1.432 . S
C1246 N1244 1.359 . S
C1246 C1249 1.414 . S
C1247 H1229 0.930 . S
C1247 N1244 1.327 . S
C1247 C1245 1.392 . S
C1248 H1243 0.930 . S
C1248 C1245 1.370 . S
C1248 C1249 1.385 . S
C1249 C1246 1.414 . S
C1249 C1248 1.385 . S
C1249 C1271 1.444 . S
O1250 Tb1206 2.546 . S
O1250 C1270 1.251 . S
O1251 Tb1206 2.610 . S
O1251 Tb1217 2.362 . S
O1251 C1262 1.283 . S
O1252 Tb1217 2.421 . S
O1252 C1269 1.262 . S
O1253 Tb1206 2.320 . S
O1253 C1269 1.260 . S
O1254 Tb1206 2.552 . S
O1254 C1262 1.243 . S
O1255 Tb1206 2.413 . S
O1255 C1270 1.256 . S
O1256 Tb1217 2.546 . S
O1256 C1281 1.251 . S
O1257 Tb1206 2.362 . S
O1257 Tb1217 2.610 . S
O1257 C1273 1.283 . S
O1258 Tb1206 2.421 . S
O1258 C1280 1.262 . S
O1259 Tb1217 2.320 . S
O1259 C1280 1.260 . S
O1260 Tb1217 2.552 . S
O1260 C1273 1.243 . S
O1261 Tb1217 2.413 . S
O1261 C1281 1.256 . S
C1262 O1251 1.283 . S
C1262 O1254 1.243 . S
C1263 C1265 1.382 . S
C1263 C1267 1.393 . S
C1263 C1270 1.500 . S
C1264 C1265 1.400 . S
C1264 C1266 1.384 . S
C1265 C1263 1.382 . S
C1265 C1264 1.400 . S
C1265 H1282 0.930 . S
C1266 C1264 1.384 . S
C1266 C1268 1.392 . S
C1266 H1283 0.931 . S
C1267 C1263 1.393 . S
C1267 C1268 1.401 . S
C1267 H1284 0.930 . S
C1268 C1266 1.392 . S
C1268 C1267 1.401 . S
C1268 H1285 0.930 . S
C1269 O1252 1.262 . S
C1269 O1253 1.260 . S
C1270 Tb1206 2.833 . S
C1270 O1250 1.251 . S
C1270 O1255 1.256 . S
C1270 C1263 1.500 . S
C1271 H1236 0.929 . S
C1271 C1249 1.444 . S
C1271 C1272 1.317 . S
C1272 H1234 0.930 . S
C1272 C1240 1.432 . S
C1272 C1271 1.317 . S
C1273 O1257 1.283 . S
C1273 O1260 1.243 . S
C1274 C1275 1.382 . S
C1274 C1278 1.393 . S
C1274 C1281 1.500 . S
C1275 C1274 1.382 . S
C1275 C1276 1.400 . S
C1275 H1286 0.930 . S
C1276 C1275 1.400 . S
C1276 C1277 1.384 . S
C1277 C1276 1.384 . S
C1277 C1279 1.392 . S
C1277 H1287 0.931 . S
C1278 C1274 1.393 . S
C1278 C1279 1.401 . S
C1278 H1288 0.930 . S
C1279 C1277 1.392 . S
C1279 C1278 1.401 . S
C1279 H1289 0.930 . S
C1280 O1258 1.262 . S
C1280 O1259 1.260 . S
C1281 Tb1217 2.833 . S
C1281 O1256 1.251 . S
C1281 O1261 1.256 . S
C1281 C1274 1.500 . S
H1282 C1265 0.930 . S
H1283 C1266 0.931 . S
H1284 C1267 0.930 . S
H1285 C1268 0.930 . S
H1286 C1275 0.930 . S
H1287 C1277 0.931 . S
H1288 C1278 0.930 . S
H1289 C1279 0.930 . S
Tb1290 N1321 2.660 . S
Tb1290 N1328 2.600 . S
Tb1290 O1334 2.546 . S
Tb1290 O1335 2.610 . S
Tb1290 O1337 2.320 . S
Tb1290 O1338 2.552 . S
Tb1290 O1339 2.413 . S
Tb1290 O1341 2.362 . S
Tb1290 O1342 2.421 . S
Tb1290 C1354 2.833 . S
C1291 C1294 1.432 . S
C1291 C1295 1.414 . S
C1291 N1298 1.359 . S
C1292 C1294 1.417 . S
C1292 C1296 1.432 . S
C1292 C1304 1.410 . S
C1293 C1295 1.444 . S
C1293 C1296 1.317 . S
C1293 H1316 0.929 . S
C1294 C1291 1.432 . S
C1294 C1292 1.417 . S
C1294 N1302 1.360 . S
C1295 C1291 1.414 . S
C1295 C1293 1.444 . S
C1295 C1300 1.385 . S
C1296 C1292 1.432 . S
C1296 C1293 1.317 . S
C1296 H1308 0.930 . S
C1297 C1299 1.392 . S
C1297 C1300 1.370 . S
C1297 H1309 0.931 . S
N1298 C1291 1.359 . S
N1298 C1299 1.327 . S
N1298 Tb1301 2.600 . S
C1299 C1297 1.392 . S
C1299 N1298 1.327 . S
C1299 H1306 0.930 . S
C1300 C1295 1.385 . S
C1300 C1297 1.370 . S
C1300 H1319 0.930 . S
Tb1301 N1298 2.600 . S
Tb1301 N1302 2.660 . S
Tb1301 O1335 2.362 . S
Tb1301 O1336 2.421 . S
Tb1301 O1340 2.546 . S
Tb1301 O1341 2.610 . S
Tb1301 O1343 2.320 . S
Tb1301 O1344 2.552 . S
Tb1301 O1345 2.413 . S
Tb1301 C1365 2.833 . S
N1302 C1294 1.360 . S
N1302 Tb1301 2.660 . S
N1302 C1303 1.305 . S
C1303 N1302 1.305 . S
C1303 C1305 1.407 . S
C1303 H1310 0.930 . S
C1304 C1292 1.410 . S
C1304 C1305 1.345 . S
C1304 H1312 0.930 . S
C1305 C1303 1.407 . S
C1305 C1304 1.345 . S
C1305 H1307 0.930 . S
H1306 C1299 0.930 . S
H1307 C1305 0.930 . S
H1308 C1296 0.930 . S
H1309 C1297 0.931 . S
H1310 C1303 0.930 . S
H1311 C1325 0.930 . S
H1312 C1304 0.930 . S
H1313 C1331 0.930 . S
H1314 C1322 0.930 . S
H1315 C1329 0.931 . S
H1316 C1293 0.929 . S
H1317 C1323 0.930 . S
H1318 C1356 0.930 . S
H1319 C1300 0.930 . S
H1320 C1355 0.929 . S
N1321 Tb1290 2.660 . S
N1321 C1322 1.305 . S
N1321 C1326 1.360 . S
C1322 H1314 0.930 . S
C1322 N1321 1.305 . S
C1322 C1325 1.407 . S
C1323 H1317 0.930 . S
C1323 C1324 1.410 . S
C1323 C1325 1.345 . S
C1324 C1323 1.410 . S
C1324 C1326 1.417 . S
C1324 C1356 1.432 . S
C1325 H1311 0.930 . S
C1325 C1322 1.407 . S
C1325 C1323 1.345 . S
C1326 N1321 1.360 . S
C1326 C1324 1.417 . S
C1326 C1330 1.432 . S
H1327 C1332 0.930 . S
N1328 Tb1290 2.600 . S
N1328 C1330 1.359 . S
N1328 C1331 1.327 . S
C1329 H1315 0.931 . S
C1329 C1331 1.392 . S
C1329 C1332 1.370 . S
C1330 C1326 1.432 . S
C1330 N1328 1.359 . S
C1330 C1333 1.414 . S
C1331 H1313 0.930 . S
C1331 N1328 1.327 . S
C1331 C1329 1.392 . S
C1332 H1327 0.930 . S
C1332 C1329 1.370 . S
C1332 C1333 1.385 . S
C1333 C1330 1.414 . S
C1333 C1332 1.385 . S
C1333 C1355 1.444 . S
O1334 Tb1290 2.546 . S
O1334 C1354 1.251 . S
O1335 Tb1290 2.610 . S
O1335 Tb1301 2.362 . S
O1335 C1346 1.283 . S
O1336 Tb1301 2.421 . S
O1336 C1353 1.262 . S
O1337 Tb1290 2.320 . S
O1337 C1353 1.260 . S
O1338 Tb1290 2.552 . S
O1338 C1346 1.243 . S
O1339 Tb1290 2.413 . S
O1339 C1354 1.256 . S
O1340 Tb1301 2.546 . S
O1340 C1365 1.251 . S
O1341 Tb1290 2.362 . S
O1341 Tb1301 2.610 . S
O1341 C1357 1.283 . S
O1342 Tb1290 2.421 . S
O1342 C1364 1.262 . S
O1343 Tb1301 2.320 . S
O1343 C1364 1.260 . S
O1344 Tb1301 2.552 . S
O1344 C1357 1.243 . S
O1345 Tb1301 2.413 . S
O1345 C1365 1.256 . S
C1346 O1335 1.283 . S
C1346 O1338 1.243 . S
C1347 C1349 1.382 . S
C1347 C1351 1.393 . S
C1347 C1354 1.500 . S
C1348 C1349 1.400 . S
C1348 C1350 1.384 . S
C1349 C1347 1.382 . S
C1349 C1348 1.400 . S
C1349 H1366 0.930 . S
C1350 C1348 1.384 . S
C1350 C1352 1.392 . S
C1350 H1367 0.931 . S
C1351 C1347 1.393 . S
C1351 C1352 1.401 . S
C1351 H1368 0.930 . S
C1352 C1350 1.392 . S
C1352 C1351 1.401 . S
C1352 H1369 0.930 . S
C1353 O1336 1.262 . S
C1353 O1337 1.260 . S
C1354 Tb1290 2.833 . S
C1354 O1334 1.251 . S
C1354 O1339 1.256 . S
C1354 C1347 1.500 . S
C1355 H1320 0.929 . S
C1355 C1333 1.444 . S
C1355 C1356 1.317 . S
C1356 H1318 0.930 . S
C1356 C1324 1.432 . S
C1356 C1355 1.317 . S
C1357 O1341 1.283 . S
C1357 O1344 1.243 . S
C1358 C1359 1.382 . S
C1358 C1362 1.393 . S
C1358 C1365 1.500 . S
C1359 C1358 1.382 . S
C1359 C1360 1.400 . S
C1359 H1370 0.930 . S
C1360 C1359 1.400 . S
C1360 C1361 1.384 . S
C1361 C1360 1.384 . S
C1361 C1363 1.392 . S
C1361 H1371 0.931 . S
C1362 C1358 1.393 . S
C1362 C1363 1.401 . S
C1362 H1372 0.930 . S
C1363 C1361 1.392 . S
C1363 C1362 1.401 . S
C1363 H1373 0.930 . S
C1364 O1342 1.262 . S
C1364 O1343 1.260 . S
C1365 Tb1301 2.833 . S
C1365 O1340 1.251 . S
C1365 O1345 1.256 . S
C1365 C1358 1.500 . S
H1366 C1349 0.930 . S
H1367 C1350 0.931 . S
H1368 C1351 0.930 . S
H1369 C1352 0.930 . S
H1370 C1359 0.930 . S
H1371 C1361 0.931 . S
H1372 C1362 0.930 . S
H1373 C1363 0.930 . S
Tb1374 N1405 2.660 . S
Tb1374 N1412 2.600 . S
Tb1374 O1418 2.546 . S
Tb1374 O1419 2.610 . S
Tb1374 O1421 2.320 . S
Tb1374 O1422 2.552 . S
Tb1374 O1423 2.413 . S
Tb1374 O1425 2.362 . S
Tb1374 O1426 2.421 . S
Tb1374 C1438 2.833 . S
C1375 C1378 1.432 . S
C1375 C1379 1.414 . S
C1375 N1382 1.359 . S
C1376 C1378 1.417 . S
C1376 C1380 1.432 . S
C1376 C1388 1.410 . S
C1377 C1379 1.444 . S
C1377 C1380 1.317 . S
C1377 H1400 0.929 . S
C1378 C1375 1.432 . S
C1378 C1376 1.417 . S
C1378 N1386 1.360 . S
C1379 C1375 1.414 . S
C1379 C1377 1.444 . S
C1379 C1384 1.385 . S
C1380 C1376 1.432 . S
C1380 C1377 1.317 . S
C1380 H1392 0.930 . S
C1381 C1383 1.392 . S
C1381 C1384 1.370 . S
C1381 H1393 0.931 . S
N1382 C1375 1.359 . S
N1382 C1383 1.327 . S
N1382 Tb1385 2.600 . S
C1383 C1381 1.392 . S
C1383 N1382 1.327 . S
C1383 H1390 0.930 . S
C1384 C1379 1.385 . S
C1384 C1381 1.370 . S
C1384 H1403 0.930 . S
Tb1385 N1382 2.600 . S
Tb1385 N1386 2.660 . S
Tb1385 O1419 2.362 . S
Tb1385 O1420 2.421 . S
Tb1385 O1424 2.546 . S
Tb1385 O1425 2.610 . S
Tb1385 O1427 2.320 . S
Tb1385 O1428 2.552 . S
Tb1385 O1429 2.413 . S
Tb1385 C1449 2.833 . S
N1386 C1378 1.360 . S
N1386 Tb1385 2.660 . S
N1386 C1387 1.305 . S
C1387 N1386 1.305 . S
C1387 C1389 1.407 . S
C1387 H1394 0.930 . S
C1388 C1376 1.410 . S
C1388 C1389 1.345 . S
C1388 H1396 0.930 . S
C1389 C1387 1.407 . S
C1389 C1388 1.345 . S
C1389 H1391 0.930 . S
H1390 C1383 0.930 . S
H1391 C1389 0.930 . S
H1392 C1380 0.930 . S
H1393 C1381 0.931 . S
H1394 C1387 0.930 . S
H1395 C1409 0.930 . S
H1396 C1388 0.930 . S
H1397 C1415 0.930 . S
H1398 C1406 0.930 . S
H1399 C1413 0.931 . S
H1400 C1377 0.929 . S
H1401 C1407 0.930 . S
H1402 C1440 0.930 . S
H1403 C1384 0.930 . S
H1404 C1439 0.929 . S
N1405 Tb1374 2.660 . S
N1405 C1406 1.305 . S
N1405 C1410 1.360 . S
C1406 H1398 0.930 . S
C1406 N1405 1.305 . S
C1406 C1409 1.407 . S
C1407 H1401 0.930 . S
C1407 C1408 1.410 . S
C1407 C1409 1.345 . S
C1408 C1407 1.410 . S
C1408 C1410 1.417 . S
C1408 C1440 1.432 . S
C1409 H1395 0.930 . S
C1409 C1406 1.407 . S
C1409 C1407 1.345 . S
C1410 N1405 1.360 . S
C1410 C1408 1.417 . S
C1410 C1414 1.432 . S
H1411 C1416 0.930 . S
N1412 Tb1374 2.600 . S
N1412 C1414 1.359 . S
N1412 C1415 1.327 . S
C1413 H1399 0.931 . S
C1413 C1415 1.392 . S
C1413 C1416 1.370 . S
C1414 C1410 1.432 . S
C1414 N1412 1.359 . S
C1414 C1417 1.414 . S
C1415 H1397 0.930 . S
C1415 N1412 1.327 . S
C1415 C1413 1.392 . S
C1416 H1411 0.930 . S
C1416 C1413 1.370 . S
C1416 C1417 1.385 . S
C1417 C1414 1.414 . S
C1417 C1416 1.385 . S
C1417 C1439 1.444 . S
O1418 Tb1374 2.546 . S
O1418 C1438 1.251 . S
O1419 Tb1374 2.610 . S
O1419 Tb1385 2.362 . S
O1419 C1430 1.283 . S
O1420 Tb1385 2.421 . S
O1420 C1437 1.262 . S
O1421 Tb1374 2.320 . S
O1421 C1437 1.260 . S
O1422 Tb1374 2.552 . S
O1422 C1430 1.243 . S
O1423 Tb1374 2.413 . S
O1423 C1438 1.256 . S
O1424 Tb1385 2.546 . S
O1424 C1449 1.251 . S
O1425 Tb1374 2.362 . S
O1425 Tb1385 2.610 . S
O1425 C1441 1.283 . S
O1426 Tb1374 2.421 . S
O1426 C1448 1.262 . S
O1427 Tb1385 2.320 . S
O1427 C1448 1.260 . S
O1428 Tb1385 2.552 . S
O1428 C1441 1.243 . S
O1429 Tb1385 2.413 . S
O1429 C1449 1.256 . S
C1430 O1419 1.283 . S
C1430 O1422 1.243 . S
C1431 C1433 1.382 . S
C1431 C1435 1.393 . S
C1431 C1438 1.500 . S
C1432 C1433 1.400 . S
C1432 C1434 1.384 . S
C1433 C1431 1.382 . S
C1433 C1432 1.400 . S
C1433 H1450 0.930 . S
C1434 C1432 1.384 . S
C1434 C1436 1.392 . S
C1434 H1451 0.931 . S
C1435 C1431 1.393 . S
C1435 C1436 1.401 . S
C1435 H1452 0.930 . S
C1436 C1434 1.392 . S
C1436 C1435 1.401 . S
C1436 H1453 0.930 . S
C1437 O1420 1.262 . S
C1437 O1421 1.260 . S
C1438 Tb1374 2.833 . S
C1438 O1418 1.251 . S
C1438 O1423 1.256 . S
C1438 C1431 1.500 . S
C1439 H1404 0.929 . S
C1439 C1417 1.444 . S
C1439 C1440 1.317 . S
C1440 H1402 0.930 . S
C1440 C1408 1.432 . S
C1440 C1439 1.317 . S
C1441 O1425 1.283 . S
C1441 O1428 1.243 . S
C1442 C1443 1.382 . S
C1442 C1446 1.393 . S
C1442 C1449 1.500 . S
C1443 C1442 1.382 . S
C1443 C1444 1.400 . S
C1443 H1454 0.930 . S
C1444 C1443 1.400 . S
C1444 C1445 1.384 . S
C1445 C1444 1.384 . S
C1445 C1447 1.392 . S
C1445 H1455 0.931 . S
C1446 C1442 1.393 . S
C1446 C1447 1.401 . S
C1446 H1456 0.930 . S
C1447 C1445 1.392 . S
C1447 C1446 1.401 . S
C1447 H1457 0.930 . S
C1448 O1426 1.262 . S
C1448 O1427 1.260 . S
C1449 Tb1385 2.833 . S
C1449 O1424 1.251 . S
C1449 O1429 1.256 . S
C1449 C1442 1.500 . S
H1450 C1433 0.930 . S
H1451 C1434 0.931 . S
H1452 C1435 0.930 . S
H1453 C1436 0.930 . S
H1454 C1443 0.930 . S
H1455 C1445 0.931 . S
H1456 C1446 0.930 . S
H1457 C1447 0.930 . S
H1458 C1466 0.929 . S
H1459 C1468 0.930 . S
H1460 C1470 0.930 . S
H1461 C1473 0.929 . S
H1462 C1476 0.930 . S
H1463 C1478 0.960 . S
H1464 C1478 0.960 . S
H1465 C1478 0.960 . S
C1466 H1458 0.929 . S
C1466 C1467 1.377 . S
C1466 C1468 1.384 . S
C1467 C1466 1.377 . S
C1467 C1473 1.390 . S
C1468 H1459 0.930 . S
C1468 C1466 1.384 . S
C1468 C1469 1.372 . S
C1469 C1468 1.372 . S
C1469 C1470 1.400 . S
C1469 C1474 1.490 . S
C1470 H1460 0.930 . S
C1470 C1469 1.400 . S
C1470 C1473 1.386 . S
H1471 C1487 0.930 . S
H1472 C1488 0.931 . S
C1473 H1461 0.929 . S
C1473 C1467 1.390 . S
C1473 C1470 1.386 . S
C1474 C1469 1.490 . S
C1474 C1476 1.395 . S
C1474 C1477 1.403 . S
H1475 C1481 0.930 . S
C1476 H1462 0.930 . S
C1476 C1474 1.395 . S
C1476 C1479 1.403 . S
C1477 C1474 1.403 . S
C1477 C1478 1.524 . S
C1477 C1481 1.400 . S
C1478 H1463 0.960 . S
C1478 H1464 0.960 . S
C1478 H1465 0.960 . S
C1478 C1477 1.524 . S
C1479 C1476 1.403 . S
C1479 C1480 1.392 . S
C1479 C1483 1.495 . S
C1480 C1479 1.392 . S
C1480 C1481 1.385 . S
C1480 C1482 1.478 . S
C1481 H1475 0.930 . S
C1481 C1477 1.400 . S
C1481 C1480 1.385 . S
C1482 C1480 1.478 . S
C1482 C1484 1.381 . S
C1482 C1488 1.383 . S
C1483 C1479 1.495 . S
C1483 H1489 0.959 . S
C1483 H1490 0.961 . S
C1483 H1491 0.960 . S
C1484 C1482 1.381 . S
C1484 C1485 1.394 . S
C1484 H1492 0.930 . S
C1485 C1484 1.394 . S
C1485 C1486 1.383 . S
C1485 H1493 0.929 . S
C1486 C1485 1.383 . S
C1486 C1487 1.377 . S
C1487 H1471 0.930 . S
C1487 C1486 1.377 . S
C1487 C1488 1.379 . S
C1488 H1472 0.931 . S
C1488 C1482 1.383 . S
C1488 C1487 1.379 . S
H1489 C1483 0.959 . S
H1490 C1483 0.961 . S
H1491 C1483 0.960 . S
H1492 C1484 0.930 . S
H1493 C1485 0.929 . S
H1494 C1502 0.929 . S
H1495 C1504 0.930 . S
H1496 C1506 0.930 . S
H1497 C1509 0.929 . S
H1498 C1512 0.930 . S
H1499 C1514 0.960 . S
H1500 C1514 0.960 . S
H1501 C1514 0.960 . S
C1502 H1494 0.929 . S
C1502 C1503 1.377 . S
C1502 C1504 1.384 . S
C1503 C1502 1.377 . S
C1503 C1509 1.390 . S
C1504 H1495 0.930 . S
C1504 C1502 1.384 . S
C1504 C1505 1.372 . S
C1505 C1504 1.372 . S
C1505 C1506 1.400 . S
C1505 C1510 1.490 . S
C1506 H1496 0.930 . S
C1506 C1505 1.400 . S
C1506 C1509 1.386 . S
H1507 C1523 0.930 . S
H1508 C1524 0.931 . S
C1509 H1497 0.929 . S
C1509 C1503 1.390 . S
C1509 C1506 1.386 . S
C1510 C1505 1.490 . S
C1510 C1512 1.395 . S
C1510 C1513 1.403 . S
H1511 C1517 0.930 . S
C1512 H1498 0.930 . S
C1512 C1510 1.395 . S
C1512 C1515 1.403 . S
C1513 C1510 1.403 . S
C1513 C1514 1.524 . S
C1513 C1517 1.400 . S
C1514 H1499 0.960 . S
C1514 H1500 0.960 . S
C1514 H1501 0.960 . S
C1514 C1513 1.524 . S
C1515 C1512 1.403 . S
C1515 C1516 1.392 . S
C1515 C1519 1.495 . S
C1516 C1515 1.392 . S
C1516 C1517 1.385 . S
C1516 C1518 1.478 . S
C1517 H1511 0.930 . S
C1517 C1513 1.400 . S
C1517 C1516 1.385 . S
C1518 C1516 1.478 . S
C1518 C1520 1.381 . S
C1518 C1524 1.383 . S
C1519 C1515 1.495 . S
C1519 H1525 0.959 . S
C1519 H1526 0.961 . S
C1519 H1527 0.960 . S
C1520 C1518 1.381 . S
C1520 C1521 1.394 . S
C1520 H1528 0.930 . S
C1521 C1520 1.394 . S
C1521 C1522 1.383 . S
C1521 H1529 0.929 . S
C1522 C1521 1.383 . S
C1522 C1523 1.377 . S
C1523 H1507 0.930 . S
C1523 C1522 1.377 . S
C1523 C1524 1.379 . S
C1524 H1508 0.931 . S
C1524 C1518 1.383 . S
C1524 C1523 1.379 . S
H1525 C1519 0.959 . S
H1526 C1519 0.961 . S
H1527 C1519 0.960 . S
H1528 C1520 0.930 . S
H1529 C1521 0.929 . S
H1530 C1538 0.929 . S
H1531 C1540 0.930 . S
H1532 C1542 0.930 . S
H1533 C1545 0.929 . S
H1534 C1548 0.930 . S
H1535 C1550 0.960 . S
H1536 C1550 0.960 . S
H1537 C1550 0.960 . S
C1538 H1530 0.929 . S
C1538 C1539 1.377 . S
C1538 C1540 1.384 . S
C1539 C1538 1.377 . S
C1539 C1545 1.390 . S
C1540 H1531 0.930 . S
C1540 C1538 1.384 . S
C1540 C1541 1.372 . S
C1541 C1540 1.372 . S
C1541 C1542 1.400 . S
C1541 C1546 1.490 . S
C1542 H1532 0.930 . S
C1542 C1541 1.400 . S
C1542 C1545 1.386 . S
H1543 C1559 0.930 . S
H1544 C1560 0.931 . S
C1545 H1533 0.929 . S
C1545 C1539 1.390 . S
C1545 C1542 1.386 . S
C1546 C1541 1.490 . S
C1546 C1548 1.395 . S
C1546 C1549 1.403 . S
H1547 C1553 0.930 . S
C1548 H1534 0.930 . S
C1548 C1546 1.395 . S
C1548 C1551 1.403 . S
C1549 C1546 1.403 . S
C1549 C1550 1.524 . S
C1549 C1553 1.400 . S
C1550 H1535 0.960 . S
C1550 H1536 0.960 . S
C1550 H1537 0.960 . S
C1550 C1549 1.524 . S
C1551 C1548 1.403 . S
C1551 C1552 1.392 . S
C1551 C1555 1.495 . S
C1552 C1551 1.392 . S
C1552 C1553 1.385 . S
C1552 C1554 1.478 . S
C1553 H1547 0.930 . S
C1553 C1549 1.400 . S
C1553 C1552 1.385 . S
C1554 C1552 1.478 . S
C1554 C1556 1.381 . S
C1554 C1560 1.383 . S
C1555 C1551 1.495 . S
C1555 H1561 0.959 . S
C1555 H1562 0.961 . S
C1555 H1563 0.960 . S
C1556 C1554 1.381 . S
C1556 C1557 1.394 . S
C1556 H1564 0.930 . S
C1557 C1556 1.394 . S
C1557 C1558 1.383 . S
C1557 H1565 0.929 . S
C1558 C1557 1.383 . S
C1558 C1559 1.377 . S
C1559 H1543 0.930 . S
C1559 C1558 1.377 . S
C1559 C1560 1.379 . S
C1560 H1544 0.931 . S
C1560 C1554 1.383 . S
C1560 C1559 1.379 . S
H1561 C1555 0.959 . S
H1562 C1555 0.961 . S
H1563 C1555 0.960 . S
H1564 C1556 0.930 . S
H1565 C1557 0.929 . S
H1566 C1574 0.929 . S
H1567 C1576 0.930 . S
H1568 C1578 0.930 . S
H1569 C1581 0.929 . S
H1570 C1584 0.930 . S
H1571 C1586 0.960 . S
H1572 C1586 0.960 . S
H1573 C1586 0.960 . S
C1574 H1566 0.929 . S
C1574 C1575 1.377 . S
C1574 C1576 1.384 . S
C1575 C1574 1.377 . S
C1575 C1581 1.390 . S
C1576 H1567 0.930 . S
C1576 C1574 1.384 . S
C1576 C1577 1.372 . S
C1577 C1576 1.372 . S
C1577 C1578 1.400 . S
C1577 C1582 1.490 . S
C1578 H1568 0.930 . S
C1578 C1577 1.400 . S
C1578 C1581 1.386 . S
H1579 C1595 0.930 1_554 S
H1580 C1596 0.931 . S
C1581 H1569 0.929 . S
C1581 C1575 1.390 . S
C1581 C1578 1.386 . S
C1582 C1577 1.490 . S
C1582 C1584 1.395 . S
C1582 C1585 1.403 . S
H1583 C1589 0.930 . S
C1584 H1570 0.930 . S
C1584 C1582 1.395 . S
C1584 C1587 1.403 . S
C1585 C1582 1.403 . S
C1585 C1586 1.524 . S
C1585 C1589 1.400 . S
C1586 H1571 0.960 . S
C1586 H1572 0.960 . S
C1586 H1573 0.960 . S
C1586 C1585 1.524 . S
C1587 C1584 1.403 . S
C1587 C1588 1.392 . S
C1587 C1591 1.495 . S
C1588 C1587 1.392 . S
C1588 C1589 1.385 . S
C1588 C1590 1.478 . S
C1589 H1583 0.930 . S
C1589 C1585 1.400 . S
C1589 C1588 1.385 . S
C1590 C1588 1.478 . S
C1590 C1592 1.381 . S
C1590 C1596 1.383 . S
C1591 C1587 1.495 . S
C1591 H1597 0.959 . S
C1591 H1598 0.961 . S
C1591 H1599 0.960 . S
C1592 C1590 1.381 . S
C1592 C1593 1.394 . S
C1592 H1600 0.930 . S
C1593 C1592 1.394 . S
C1593 C1594 1.383 . S
C1593 H1601 0.929 . S
C1594 C1593 1.383 . S
C1594 C1595 1.377 . S
C1595 H1579 0.930 1_556 S
C1595 C1594 1.377 . S
C1595 C1596 1.379 . S
C1596 H1580 0.931 . S
C1596 C1590 1.383 . S
C1596 C1595 1.379 . S
H1597 C1591 0.959 . S
H1598 C1591 0.961 . S
H1599 C1591 0.960 . S
H1600 C1592 0.930 . S
H1601 C1593 0.929 . S
H1602 C1610 0.929 . S
H1603 C1612 0.930 . S
H1604 C1614 0.930 . S
H1605 C1617 0.929 . S
H1606 C1620 0.930 . S
H1607 C1622 0.960 . S
H1608 C1622 0.960 . S
H1609 C1622 0.960 . S
C1610 H1602 0.929 . S
C1610 C1611 1.377 . S
C1610 C1612 1.384 . S
C1611 C1610 1.377 . S
C1611 C1617 1.390 . S
C1612 H1603 0.930 . S
C1612 C1610 1.384 . S
C1612 C1613 1.372 . S
C1613 C1612 1.372 . S
C1613 C1614 1.400 . S
C1613 C1618 1.490 . S
C1614 H1604 0.930 . S
C1614 C1613 1.400 . S
C1614 C1617 1.386 . S
H1615 C1631 0.930 . S
H1616 C1632 0.931 . S
C1617 H1605 0.929 . S
C1617 C1611 1.390 . S
C1617 C1614 1.386 . S
C1618 C1613 1.490 . S
C1618 C1620 1.395 . S
C1618 C1621 1.403 . S
H1619 C1625 0.930 . S
C1620 H1606 0.930 . S
C1620 C1618 1.395 . S
C1620 C1623 1.403 . S
C1621 C1618 1.403 . S
C1621 C1622 1.524 . S
C1621 C1625 1.400 . S
C1622 H1607 0.960 . S
C1622 H1608 0.960 . S
C1622 H1609 0.960 . S
C1622 C1621 1.524 . S
C1623 C1620 1.403 . S
C1623 C1624 1.392 . S
C1623 C1627 1.495 . S
C1624 C1623 1.392 . S
C1624 C1625 1.385 . S
C1624 C1626 1.478 . S
C1625 H1619 0.930 . S
C1625 C1621 1.400 . S
C1625 C1624 1.385 . S
C1626 C1624 1.478 . S
C1626 C1628 1.381 . S
C1626 C1632 1.383 . S
C1627 C1623 1.495 . S
C1627 H1633 0.959 . S
C1627 H1634 0.961 . S
C1627 H1635 0.960 . S
C1628 C1626 1.381 . S
C1628 C1629 1.394 . S
C1628 H1636 0.930 . S
C1629 C1628 1.394 . S
C1629 C1630 1.383 . S
C1629 H1637 0.929 1_556 S
C1630 C1629 1.383 . S
C1630 C1631 1.377 . S
C1631 H1615 0.930 . S
C1631 C1630 1.377 . S
C1631 C1632 1.379 . S
C1632 H1616 0.931 . S
C1632 C1626 1.383 . S
C1632 C1631 1.379 . S
H1633 C1627 0.959 . S
H1634 C1627 0.961 . S
H1635 C1627 0.960 . S
H1636 C1628 0.930 . S
H1637 C1629 0.929 1_554 S
H1638 C1646 0.929 . S
H1639 C1648 0.930 . S
H1640 C1650 0.930 . S
H1641 C1653 0.929 . S
H1642 C1656 0.930 . S
H1643 C1658 0.960 . S
H1644 C1658 0.960 . S
H1645 C1658 0.960 . S
C1646 H1638 0.929 . S
C1646 C1647 1.377 . S
C1646 C1648 1.384 . S
C1647 C1646 1.377 . S
C1647 C1653 1.390 . S
C1648 H1639 0.930 . S
C1648 C1646 1.384 . S
C1648 C1649 1.372 . S
C1649 C1648 1.372 . S
C1649 C1650 1.400 . S
C1649 C1654 1.490 . S
C1650 H1640 0.930 . S
C1650 C1649 1.400 . S
C1650 C1653 1.386 . S
H1651 C1667 0.930 . S
H1652 C1668 0.931 . S
C1653 H1641 0.929 . S
C1653 C1647 1.390 . S
C1653 C1650 1.386 . S
C1654 C1649 1.490 . S
C1654 C1656 1.395 . S
C1654 C1657 1.403 . S
H1655 C1661 0.930 . S
C1656 H1642 0.930 . S
C1656 C1654 1.395 . S
C1656 C1659 1.403 . S
C1657 C1654 1.403 . S
C1657 C1658 1.524 . S
C1657 C1661 1.400 . S
C1658 H1643 0.960 . S
C1658 H1644 0.960 . S
C1658 H1645 0.960 . S
C1658 C1657 1.524 . S
C1659 C1656 1.403 . S
C1659 C1660 1.392 . S
C1659 C1663 1.495 . S
C1660 C1659 1.392 . S
C1660 C1661 1.385 . S
C1660 C1662 1.478 . S
C1661 H1655 0.930 . S
C1661 C1657 1.400 . S
C1661 C1660 1.385 . S
C1662 C1660 1.478 . S
C1662 C1664 1.381 . S
C1662 C1668 1.383 . S
C1663 C1659 1.495 . S
C1663 H1669 0.959 . S
C1663 H1670 0.961 . S
C1663 H1671 0.924 1_556 S
C1664 C1662 1.381 . S
C1664 C1665 1.371 1_556 S
C1664 H1672 0.930 1_556 S
C1665 C1664 1.371 1_554 S
C1665 C1666 1.337 1_554 S
C1665 H1673 1.002 . S
C1666 C1665 1.337 1_556 S
C1666 C1667 1.377 . S
C1667 H1651 0.930 . S
C1667 C1666 1.377 . S
C1667 C1668 1.379 . S
C1668 H1652 0.931 . S
C1668 C1662 1.383 . S
C1668 C1667 1.379 . S
H1669 C1663 0.959 . S
H1670 C1663 0.961 . S
H1671 C1663 0.924 1_554 S
H1672 C1664 0.930 1_554 S
H1673 C1665 1.002 . S
H1674 C1682 0.929 . S
H1675 C1684 0.930 . S
H1676 C1686 0.930 . S
H1677 C1689 0.929 . S
H1678 C1692 0.930 . S
H1679 C1694 0.960 . S
H1680 C1694 0.960 . S
H1681 C1694 0.960 . S
C1682 H1674 0.929 . S
C1682 C1683 1.377 . S
C1682 C1684 1.384 . S
C1683 C1682 1.377 . S
C1683 C1689 1.390 . S
C1684 H1675 0.930 . S
C1684 C1682 1.384 . S
C1684 C1685 1.372 . S
C1685 C1684 1.372 . S
C1685 C1686 1.400 . S
C1685 C1690 1.490 . S
C1686 H1676 0.930 . S
C1686 C1685 1.400 . S
C1686 C1689 1.386 . S
H1687 C1703 0.930 1_554 S
H1688 C1704 0.931 . S
C1689 H1677 0.929 . S
C1689 C1683 1.390 . S
C1689 C1686 1.386 . S
C1690 C1685 1.490 . S
C1690 C1692 1.395 . S
C1690 C1693 1.403 . S
H1691 C1697 0.930 . S
C1692 H1678 0.930 . S
C1692 C1690 1.395 . S
C1692 C1695 1.403 . S
C1693 C1690 1.403 . S
C1693 C1694 1.524 . S
C1693 C1697 1.400 . S
C1694 H1679 0.960 . S
C1694 H1680 0.960 . S
C1694 H1681 0.960 . S
C1694 C1693 1.524 . S
C1695 C1692 1.403 . S
C1695 C1696 1.392 . S
C1695 C1699 1.495 . S
C1696 C1695 1.392 . S
C1696 C1697 1.385 . S
C1696 C1698 1.478 . S
C1697 H1691 0.930 . S
C1697 C1693 1.400 . S
C1697 C1696 1.385 . S
C1698 C1696 1.478 . S
C1698 C1700 1.381 . S
C1698 C1704 1.383 . S
C1699 C1695 1.495 . S
C1699 H1705 0.959 . S
C1699 H1706 0.961 . S
C1699 H1707 0.960 . S
C1700 C1698 1.381 . S
C1700 C1701 1.394 . S
C1700 H1708 0.930 . S
C1701 C1700 1.394 . S
C1701 C1702 1.383 . S
C1701 H1709 0.929 . S
C1702 C1701 1.383 . S
C1702 C1703 1.377 . S
C1703 H1687 0.930 1_556 S
C1703 C1702 1.377 . S
C1703 C1704 1.379 . S
C1704 H1688 0.931 . S
C1704 C1698 1.383 . S
C1704 C1703 1.379 . S
H1705 C1699 0.959 . S
H1706 C1699 0.961 . S
H1707 C1699 0.960 . S
H1708 C1700 0.930 . S
H1709 C1701 0.929 . S
H1710 C1718 0.929 . S
H1711 C1720 0.930 . S
H1712 C1722 0.930 . S
H1713 C1725 0.929 . S
H1714 C1728 0.930 . S
H1715 C1730 0.960 . S
H1716 C1730 0.960 . S
H1717 C1730 0.960 . S
C1718 H1710 0.929 . S
C1718 C1719 1.377 . S
C1718 C1720 1.384 . S
C1719 C1718 1.377 . S
C1719 C1725 1.390 . S
C1720 H1711 0.930 . S
C1720 C1718 1.384 . S
C1720 C1721 1.372 . S
C1721 C1720 1.372 . S
C1721 C1722 1.400 . S
C1721 C1726 1.490 . S
C1722 H1712 0.930 . S
C1722 C1721 1.400 . S
C1722 C1725 1.386 . S
H1723 C1739 0.930 . S
H1724 C1740 0.931 . S
C1725 H1713 0.929 . S
C1725 C1719 1.390 . S
C1725 C1722 1.386 . S
C1726 C1721 1.490 . S
C1726 C1728 1.395 . S
C1726 C1729 1.403 . S
H1727 C1733 0.930 . S
C1728 H1714 0.930 . S
C1728 C1726 1.395 . S
C1728 C1731 1.403 . S
C1729 C1726 1.403 . S
C1729 C1730 1.524 . S
C1729 C1733 1.400 . S
C1730 H1715 0.960 . S
C1730 H1716 0.960 . S
C1730 H1717 0.960 . S
C1730 C1729 1.524 . S
C1731 C1728 1.403 . S
C1731 C1732 1.392 . S
C1731 C1735 1.495 . S
C1732 C1731 1.392 . S
C1732 C1733 1.385 . S
C1732 C1734 1.478 . S
C1733 H1727 0.930 . S
C1733 C1729 1.400 . S
C1733 C1732 1.385 . S
C1734 C1732 1.478 . S
C1734 C1736 1.381 . S
C1734 C1740 1.383 . S
C1735 C1731 1.495 . S
C1735 H1741 0.959 . S
C1735 H1742 0.961 . S
C1735 H1743 0.960 . S
C1736 C1734 1.381 . S
C1736 C1737 1.394 . S
C1736 H1744 0.930 . S
C1737 C1736 1.394 . S
C1737 C1738 1.383 . S
C1737 H1745 0.929 1_556 S
C1738 C1737 1.383 . S
C1738 C1739 1.377 . S
C1739 H1723 0.930 . S
C1739 C1738 1.377 . S
C1739 C1740 1.379 . S
C1740 H1724 0.931 . S
C1740 C1734 1.383 . S
C1740 C1739 1.379 . S
H1741 C1735 0.959 . S
H1742 C1735 0.961 . S
H1743 C1735 0.960 . S
H1744 C1736 0.930 . S
H1745 C1737 0.929 1_554 S
H1746 C1754 0.929 . S
H1747 C1756 0.930 . S
H1748 C1758 0.930 . S
H1749 C1761 0.929 . S
H1750 C1764 0.930 . S
H1751 C1766 0.960 . S
H1752 C1766 0.960 . S
H1753 C1766 0.960 . S
C1754 H1746 0.929 . S
C1754 C1755 1.377 . S
C1754 C1756 1.384 . S
C1755 C1754 1.377 . S
C1755 C1761 1.390 . S
C1756 H1747 0.930 . S
C1756 C1754 1.384 . S
C1756 C1757 1.372 . S
C1757 C1756 1.372 . S
C1757 C1758 1.400 . S
C1757 C1762 1.490 . S
C1758 H1748 0.930 . S
C1758 C1757 1.400 . S
C1758 C1761 1.386 . S
H1759 C1775 0.930 . S
H1760 C1776 0.931 . S
C1761 H1749 0.929 . S
C1761 C1755 1.390 . S
C1761 C1758 1.386 . S
C1762 C1757 1.490 . S
C1762 C1764 1.395 . S
C1762 C1765 1.403 . S
H1763 C1769 0.930 . S
C1764 H1750 0.930 . S
C1764 C1762 1.395 . S
C1764 C1767 1.403 . S
C1765 C1762 1.403 . S
C1765 C1766 1.524 . S
C1765 C1769 1.400 . S
C1766 H1751 0.960 . S
C1766 H1752 0.960 . S
C1766 H1753 0.960 . S
C1766 C1765 1.524 . S
C1767 C1764 1.403 . S
C1767 C1768 1.392 . S
C1767 C1771 1.495 . S
C1768 C1767 1.392 . S
C1768 C1769 1.385 . S
C1768 C1770 1.478 . S
C1769 H1763 0.930 . S
C1769 C1765 1.400 . S
C1769 C1768 1.385 . S
C1770 C1768 1.478 . S
C1770 C1772 1.381 . S
C1770 C1776 1.383 . S
C1771 C1767 1.495 . S
C1771 H1777 0.959 . S
C1771 H1778 0.961 . S
C1771 H1779 0.960 . S
C1772 C1770 1.381 . S
C1772 C1773 1.394 . S
C1772 H1780 0.930 . S
C1773 C1772 1.394 . S
C1773 C1774 1.383 . S
C1773 H1781 0.929 1_556 S
C1774 C1773 1.383 . S
C1774 C1775 1.377 . S
C1775 H1759 0.930 . S
C1775 C1774 1.377 . S
C1775 C1776 1.379 . S
C1776 H1760 0.931 . S
C1776 C1770 1.383 . S
C1776 C1775 1.379 . S
H1777 C1771 0.959 . S
H1778 C1771 0.961 . S
H1779 C1771 0.960 . S
H1780 C1772 0.930 . S
H1781 C1773 0.929 1_554 S
H1782 C1790 0.929 . S
H1783 C1792 0.930 . S
H1784 C1794 0.930 . S
H1785 C1797 0.929 . S
H1786 C1800 0.930 . S
H1787 C1802 0.960 . S
H1788 C1802 0.960 . S
H1789 C1802 0.960 . S
C1790 H1782 0.929 . S
C1790 C1791 1.377 . S
C1790 C1792 1.384 . S
C1791 C1790 1.377 . S
C1791 C1797 1.390 . S
C1792 H1783 0.930 . S
C1792 C1790 1.384 . S
C1792 C1793 1.372 . S
C1793 C1792 1.372 . S
C1793 C1794 1.400 . S
C1793 C1798 1.490 . S
C1794 H1784 0.930 . S
C1794 C1793 1.400 . S
C1794 C1797 1.386 . S
H1795 C1811 0.930 . S
H1796 C1812 0.931 . S
C1797 H1785 0.929 . S
C1797 C1791 1.390 . S
C1797 C1794 1.386 . S
C1798 C1793 1.490 . S
C1798 C1800 1.395 . S
C1798 C1801 1.403 . S
H1799 C1805 0.930 . S
C1800 H1786 0.930 . S
C1800 C1798 1.395 . S
C1800 C1803 1.403 . S
C1801 C1798 1.403 . S
C1801 C1802 1.524 . S
C1801 C1805 1.400 . S
C1802 H1787 0.960 . S
C1802 H1788 0.960 . S
C1802 H1789 0.960 . S
C1802 C1801 1.524 . S
C1803 C1800 1.403 . S
C1803 C1804 1.392 . S
C1803 C1807 1.495 . S
C1804 C1803 1.392 . S
C1804 C1805 1.385 . S
C1804 C1806 1.478 . S
C1805 H1799 0.930 . S
C1805 C1801 1.400 . S
C1805 C1804 1.385 . S
C1806 C1804 1.478 . S
C1806 C1808 1.381 . S
C1806 C1812 1.383 . S
C1807 C1803 1.495 . S
C1807 H1813 0.959 . S
C1807 H1814 0.961 . S
C1807 H1815 0.960 . S
C1808 C1806 1.381 . S
C1808 C1809 1.394 . S
C1808 H1816 0.930 . S
C1809 C1808 1.394 . S
C1809 C1810 1.383 . S
C1809 H1817 0.929 . S
C1810 C1809 1.383 . S
C1810 C1811 1.377 . S
C1811 H1795 0.930 . S
C1811 C1810 1.377 . S
C1811 C1812 1.379 . S
C1812 H1796 0.931 . S
C1812 C1806 1.383 . S
C1812 C1811 1.379 . S
H1813 C1807 0.959 . S
H1814 C1807 0.961 . S
H1815 C1807 0.960 . S
H1816 C1808 0.930 . S
H1817 C1809 0.929 . S
H1818 C1826 0.929 . S
H1819 C1828 0.930 . S
H1820 C1830 0.930 . S
H1821 C1833 0.929 . S
H1822 C1836 0.930 . S
H1823 C1838 0.960 . S
H1824 C1838 0.960 . S
H1825 C1838 0.960 . S
C1826 H1818 0.929 . S
C1826 C1827 1.377 . S
C1826 C1828 1.384 . S
C1827 C1826 1.377 . S
C1827 C1833 1.390 . S
C1828 H1819 0.930 . S
C1828 C1826 1.384 . S
C1828 C1829 1.372 . S
C1829 C1828 1.372 . S
C1829 C1830 1.400 . S
C1829 C1834 1.490 . S
C1830 H1820 0.930 . S
C1830 C1829 1.400 . S
C1830 C1833 1.386 . S
H1831 C1847 0.930 . S
H1832 C1848 0.931 . S
C1833 H1821 0.929 . S
C1833 C1827 1.390 . S
C1833 C1830 1.386 . S
C1834 C1829 1.490 . S
C1834 C1836 1.395 . S
C1834 C1837 1.403 . S
H1835 C1841 0.930 . S
C1836 H1822 0.930 . S
C1836 C1834 1.395 . S
C1836 C1839 1.403 . S
C1837 C1834 1.403 . S
C1837 C1838 1.524 . S
C1837 C1841 1.400 . S
C1838 H1823 0.960 . S
C1838 H1824 0.960 . S
C1838 H1825 0.960 . S
C1838 C1837 1.524 . S
C1839 C1836 1.403 . S
C1839 C1840 1.392 . S
C1839 C1843 1.495 . S
C1840 C1839 1.392 . S
C1840 C1841 1.385 . S
C1840 C1842 1.478 . S
C1841 H1835 0.930 . S
C1841 C1837 1.400 . S
C1841 C1840 1.385 . S
C1842 C1840 1.478 . S
C1842 C1844 1.381 . S
C1842 C1848 1.383 . S
C1843 C1839 1.495 . S
C1843 H1849 0.959 . S
C1843 H1850 0.961 . S
C1843 H1851 0.960 . S
C1844 C1842 1.381 . S
C1844 C1845 1.394 . S
C1844 H1852 0.930 . S
C1845 C1844 1.394 . S
C1845 C1846 1.383 . S
C1845 H1853 0.929 . S
C1846 C1845 1.383 . S
C1846 C1847 1.377 . S
C1847 H1831 0.930 . S
C1847 C1846 1.377 . S
C1847 C1848 1.379 . S
C1848 H1832 0.931 . S
C1848 C1842 1.383 . S
C1848 C1847 1.379 . S
H1849 C1843 0.959 . S
H1850 C1843 0.961 . S
H1851 C1843 0.960 . S
H1852 C1844 0.930 . S
H1853 C1845 0.929 . S
H1854 C1862 0.929 . S
H1855 C1864 0.930 . S
H1856 C1866 0.930 . S
H1857 C1869 0.929 . S
H1858 C1872 0.930 . S
H1859 C1874 0.960 . S
H1860 C1874 0.960 . S
H1861 C1874 0.960 . S
C1862 H1854 0.929 . S
C1862 C1863 1.377 . S
C1862 C1864 1.384 . S
C1863 C1862 1.377 . S
C1863 C1869 1.390 . S
C1864 H1855 0.930 . S
C1864 C1862 1.384 . S
C1864 C1865 1.372 . S
C1865 C1864 1.372 . S
C1865 C1866 1.400 . S
C1865 C1870 1.490 . S
C1866 H1856 0.930 . S
C1866 C1865 1.400 . S
C1866 C1869 1.386 . S
H1867 C1883 0.930 . S
H1868 C1884 0.931 . S
C1869 H1857 0.929 . S
C1869 C1863 1.390 . S
C1869 C1866 1.386 . S
C1870 C1865 1.490 . S
C1870 C1872 1.395 . S
C1870 C1873 1.403 . S
H1871 C1877 0.930 . S
C1872 H1858 0.930 . S
C1872 C1870 1.395 . S
C1872 C1875 1.403 . S
C1873 C1870 1.403 . S
C1873 C1874 1.524 . S
C1873 C1877 1.400 . S
C1874 H1859 0.960 . S
C1874 H1860 0.960 . S
C1874 H1861 0.960 . S
C1874 C1873 1.524 . S
C1875 C1872 1.403 . S
C1875 C1876 1.392 . S
C1875 C1879 1.495 . S
C1876 C1875 1.392 . S
C1876 C1877 1.385 . S
C1876 C1878 1.478 . S
C1877 H1871 0.930 . S
C1877 C1873 1.400 . S
C1877 C1876 1.385 . S
C1878 C1876 1.478 . S
C1878 C1880 1.381 . S
C1878 C1884 1.383 . S
C1879 C1875 1.495 . S
C1879 H1885 0.959 . S
C1879 H1886 0.961 . S
C1879 H1887 0.960 . S
C1880 C1878 1.381 . S
C1880 C1881 1.394 . S
C1880 H1888 0.930 . S
C1881 C1880 1.394 . S
C1881 C1882 1.383 . S
C1881 H1889 0.929 . S
C1882 C1881 1.383 . S
C1882 C1883 1.377 . S
C1883 H1867 0.930 . S
C1883 C1882 1.377 . S
C1883 C1884 1.379 . S
C1884 H1868 0.931 . S
C1884 C1878 1.383 . S
C1884 C1883 1.379 . S
H1885 C1879 0.959 . S
H1886 C1879 0.961 . S
H1887 C1879 0.960 . S
H1888 C1880 0.930 . S
H1889 C1881 0.929 . S
H1890 C1898 0.929 . S
H1891 C1900 0.930 . S
H1892 C1902 0.930 . S
H1893 C1905 0.929 . S
H1894 C1908 0.930 . S
H1895 C1910 0.960 . S
H1896 C1910 0.960 . S
H1897 C1910 0.960 . S
C1898 H1890 0.929 . S
C1898 C1899 1.377 . S
C1898 C1900 1.384 . S
C1899 C1898 1.377 . S
C1899 C1905 1.390 . S
C1900 H1891 0.930 . S
C1900 C1898 1.384 . S
C1900 C1901 1.372 1_655 S
C1901 C1900 1.372 1_455 S
C1901 C1902 1.400 . S
C1901 C1906 1.490 . S
C1902 H1892 0.930 . S
C1902 C1901 1.400 . S
C1902 C1905 1.386 1_455 S
H1903 C1919 0.930 . S
H1904 C1920 0.931 . S
C1905 H1893 0.929 . S
C1905 C1899 1.390 . S
C1905 C1902 1.386 1_655 S
C1906 C1901 1.490 . S
C1906 C1908 1.395 . S
C1906 C1909 1.403 . S
H1907 C1913 0.930 . S
C1908 H1894 0.930 . S
C1908 C1906 1.395 . S
C1908 C1911 1.403 . S
C1909 C1906 1.403 . S
C1909 C1910 1.524 . S
C1909 C1913 1.400 . S
C1910 H1895 0.960 . S
C1910 H1896 0.960 . S
C1910 H1897 0.960 . S
C1910 C1909 1.524 . S
C1911 C1908 1.403 . S
C1911 C1912 1.392 . S
C1911 C1915 1.495 . S
C1912 C1911 1.392 . S
C1912 C1913 1.385 . S
C1912 C1914 1.478 . S
C1913 H1907 0.930 . S
C1913 C1909 1.400 . S
C1913 C1912 1.385 . S
C1914 C1912 1.478 . S
C1914 C1916 1.381 . S
C1914 C1920 1.383 . S
C1915 C1911 1.495 . S
C1915 H1921 0.959 . S
C1915 H1922 0.961 . S
C1915 H1923 0.960 . S
C1916 C1914 1.381 . S
C1916 C1917 1.394 . S
C1916 H1924 0.930 . S
C1917 C1916 1.394 . S
C1917 C1918 1.383 . S
C1917 H1925 0.929 . S
C1918 C1917 1.383 . S
C1918 C1919 1.377 . S
C1919 H1903 0.930 . S
C1919 C1918 1.377 . S
C1919 C1920 1.379 . S
C1920 H1904 0.931 . S
C1920 C1914 1.383 . S
C1920 C1919 1.379 . S
H1921 C1915 0.959 . S
H1922 C1915 0.961 . S
H1923 C1915 0.960 . S
H1924 C1916 0.930 . S
H1925 C1917 0.929 . S
H1926 C1934 0.929 . S
H1927 C1936 0.930 . S
H1928 C1938 0.930 . S
H1929 C1941 0.929 . S
H1930 C1944 0.930 . S
H1931 C1946 0.960 . S
H1932 C1946 0.960 . S
H1933 C1946 0.960 . S
C1934 H1926 0.929 . S
C1934 C1935 1.377 . S
C1934 C1936 1.384 . S
C1935 C1934 1.377 . S
C1935 C1941 1.390 . S
C1936 H1927 0.930 . S
C1936 C1934 1.384 . S
C1936 C1937 1.372 . S
C1937 C1936 1.372 . S
C1937 C1938 1.400 . S
C1937 C1942 1.490 . S
C1938 H1928 0.930 . S
C1938 C1937 1.400 . S
C1938 C1941 1.386 . S
H1939 C1955 0.930 . S
H1940 C1956 0.931 . S
C1941 H1929 0.929 . S
C1941 C1935 1.390 . S
C1941 C1938 1.386 . S
C1942 C1937 1.490 . S
C1942 C1944 1.395 . S
C1942 C1945 1.403 . S
H1943 C1949 0.930 . S
C1944 H1930 0.930 . S
C1944 C1942 1.395 . S
C1944 C1947 1.403 . S
C1945 C1942 1.403 . S
C1945 C1946 1.524 . S
C1945 C1949 1.400 . S
C1946 H1931 0.960 . S
C1946 H1932 0.960 . S
C1946 H1933 0.960 . S
C1946 C1945 1.524 . S
C1947 C1944 1.403 . S
C1947 C1948 1.392 . S
C1947 C1951 1.495 . S
C1948 C1947 1.392 . S
C1948 C1949 1.385 . S
C1948 C1950 1.478 . S
C1949 H1943 0.930 . S
C1949 C1945 1.400 . S
C1949 C1948 1.385 . S
C1950 C1948 1.478 . S
C1950 C1952 1.381 . S
C1950 C1956 1.383 . S
C1951 C1947 1.495 . S
C1951 H1957 0.959 . S
C1951 H1958 0.961 . S
C1951 H1959 0.960 . S
C1952 C1950 1.381 . S
C1952 C1953 1.394 . S
C1952 H1960 0.930 . S
C1953 C1952 1.394 . S
C1953 C1954 1.383 . S
C1953 H1961 0.929 . S
C1954 C1953 1.383 . S
C1954 C1955 1.377 . S
C1955 H1939 0.930 . S
C1955 C1954 1.377 . S
C1955 C1956 1.379 . S
C1956 H1940 0.931 . S
C1956 C1950 1.383 . S
C1956 C1955 1.379 . S
H1957 C1951 0.959 . S
H1958 C1951 0.961 . S
H1959 C1951 0.960 . S
H1960 C1952 0.930 . S
H1961 C1953 0.929 . S
H1962 C1970 0.929 . S
H1963 C1972 0.930 . S
H1964 C1974 0.930 . S
H1965 C1977 0.929 . S
H1966 C1980 0.930 . S
H1967 C1982 0.960 . S
H1968 C1982 0.960 1_545 S
H1969 C1982 0.960 . S
C1970 H1962 0.929 . S
C1970 C1971 1.377 . S
C1970 C1972 1.384 . S
C1971 C1970 1.377 . S
C1971 C1977 1.390 . S
C1972 H1963 0.930 . S
C1972 C1970 1.384 . S
C1972 C1973 1.372 . S
C1973 C1972 1.372 . S
C1973 C1974 1.400 . S
C1973 C1978 1.490 1_545 S
C1974 H1964 0.930 . S
C1974 C1973 1.400 . S
C1974 C1977 1.386 . S
H1975 C1991 0.930 . S
H1976 C1992 0.931 . S
C1977 H1965 0.929 . S
C1977 C1971 1.390 . S
C1977 C1974 1.386 . S
C1978 C1973 1.490 1_565 S
C1978 C1980 1.395 . S
C1978 C1981 1.403 . S
H1979 C1985 0.930 . S
C1980 H1966 0.930 . S
C1980 C1978 1.395 . S
C1980 C1983 1.403 . S
C1981 C1978 1.403 . S
C1981 C1982 1.524 . S
C1981 C1985 1.400 . S
C1982 H1967 0.960 . S
C1982 H1968 0.960 1_565 S
C1982 H1969 0.960 . S
C1982 C1981 1.524 . S
C1983 C1980 1.403 . S
C1983 C1984 1.392 . S
C1983 C1987 1.495 . S
C1984 C1983 1.392 . S
C1984 C1985 1.385 . S
C1984 C1986 1.478 . S
C1985 H1979 0.930 . S
C1985 C1981 1.400 . S
C1985 C1984 1.385 . S
C1986 C1984 1.478 . S
C1986 C1988 1.381 . S
C1986 C1992 1.383 . S
C1987 C1983 1.495 . S
C1987 H1993 0.959 . S
C1987 H1994 0.961 . S
C1987 H1995 0.960 . S
C1988 C1986 1.381 . S
C1988 C1989 1.394 . S
C1988 H1996 0.930 . S
C1989 C1988 1.394 . S
C1989 C1990 1.383 . S
C1989 H1997 0.929 . S
C1990 C1989 1.383 . S
C1990 C1991 1.377 . S
C1991 H1975 0.930 . S
C1991 C1990 1.377 . S
C1991 C1992 1.379 . S
C1992 H1976 0.931 . S
C1992 C1986 1.383 . S
C1992 C1991 1.379 . S
H1993 C1987 0.959 . S
H1994 C1987 0.961 . S
H1995 C1987 0.960 . S
H1996 C1988 0.930 . S
H1997 C1989 0.929 . S
H1998 C2006 0.929 . S
H1999 C2008 0.930 . S
H2000 C2010 0.930 . S
H2001 C2013 0.929 . S
H2002 C2016 0.930 . S
H2003 C2018 0.960 . S
H2004 C2018 0.960 . S
H2005 C2018 0.960 . S
C2006 H1998 0.929 . S
C2006 C2007 1.377 . S
C2006 C2008 1.384 . S
C2007 C2006 1.377 . S
C2007 C2013 1.390 . S
C2008 H1999 0.930 . S
C2008 C2006 1.384 . S
C2008 C2009 1.372 . S
C2009 C2008 1.372 . S
C2009 C2010 1.400 . S
C2009 C2014 1.490 . S
C2010 H2000 0.930 . S
C2010 C2009 1.400 . S
C2010 C2013 1.386 . S
H2011 C2027 0.930 . S
H2012 C2028 0.931 . S
C2013 H2001 0.929 . S
C2013 C2007 1.390 . S
C2013 C2010 1.386 . S
C2014 C2009 1.490 . S
C2014 C2016 1.395 . S
C2014 C2017 1.403 . S
H2015 C2021 0.930 . S
C2016 H2002 0.930 . S
C2016 C2014 1.395 . S
C2016 C2019 1.403 . S
C2017 C2014 1.403 . S
C2017 C2018 1.524 . S
C2017 C2021 1.400 . S
C2018 H2003 0.960 . S
C2018 H2004 0.960 . S
C2018 H2005 0.960 . S
C2018 C2017 1.524 . S
C2019 C2016 1.403 . S
C2019 C2020 1.392 . S
C2019 C2023 1.495 . S
C2020 C2019 1.392 . S
C2020 C2021 1.385 . S
C2020 C2022 1.478 . S
C2021 H2015 0.930 . S
C2021 C2017 1.400 . S
C2021 C2020 1.385 . S
C2022 C2020 1.478 . S
C2022 C2024 1.381 . S
C2022 C2028 1.383 . S
C2023 C2019 1.495 . S
C2023 H2029 0.959 . S
C2023 H2030 0.961 . S
C2023 H2031 0.960 . S
C2024 C2022 1.381 . S
C2024 C2025 1.394 . S
C2024 H2032 0.930 . S
C2025 C2024 1.394 . S
C2025 C2026 1.383 . S
C2025 H2033 0.929 . S
C2026 C2025 1.383 . S
C2026 C2027 1.377 . S
C2027 H2011 0.930 . S
C2027 C2026 1.377 . S
C2027 C2028 1.379 . S
C2028 H2012 0.931 . S
C2028 C2022 1.383 . S
C2028 C2027 1.379 . S
H2029 C2023 0.959 . S
H2030 C2023 0.961 . S
H2031 C2023 0.960 . S
H2032 C2024 0.930 . S
H2033 C2025 0.929 . S
H2034 C2042 0.929 . S
H2035 C2044 0.930 . S
H2036 C2046 0.930 . S
H2037 C2049 0.929 . S
H2038 C2052 0.930 . S
H2039 C2054 0.960 . S
H2040 C2054 0.960 . S
H2041 C2054 0.960 . S
C2042 H2034 0.929 . S
C2042 C2043 1.377 . S
C2042 C2044 1.384 . S
C2043 C2042 1.377 . S
C2043 C2049 1.390 . S
C2044 H2035 0.930 . S
C2044 C2042 1.384 . S
C2044 C2045 1.372 . S
C2045 C2044 1.372 . S
C2045 C2046 1.400 . S
C2045 C2050 1.490 . S
C2046 H2036 0.930 . S
C2046 C2045 1.400 . S
C2046 C2049 1.386 . S
H2047 C2063 0.930 . S
H2048 C2064 0.931 . S
C2049 H2037 0.929 . S
C2049 C2043 1.390 . S
C2049 C2046 1.386 . S
C2050 C2045 1.490 . S
C2050 C2052 1.395 . S
C2050 C2053 1.403 . S
H2051 C2057 0.930 . S
C2052 H2038 0.930 . S
C2052 C2050 1.395 . S
C2052 C2055 1.403 . S
C2053 C2050 1.403 . S
C2053 C2054 1.524 . S
C2053 C2057 1.400 . S
C2054 H2039 0.960 . S
C2054 H2040 0.960 . S
C2054 H2041 0.960 . S
C2054 C2053 1.524 . S
C2055 C2052 1.403 . S
C2055 C2056 1.392 . S
C2055 C2059 1.495 . S
C2056 C2055 1.392 . S
C2056 C2057 1.385 . S
C2056 C2058 1.478 . S
C2057 H2051 0.930 . S
C2057 C2053 1.400 . S
C2057 C2056 1.385 . S
C2058 C2056 1.478 . S
C2058 C2060 1.381 . S
C2058 C2064 1.383 . S
C2059 C2055 1.495 . S
C2059 H2065 0.959 . S
C2059 H2066 0.961 . S
C2059 H2067 0.960 . S
C2060 C2058 1.381 . S
C2060 C2061 1.394 . S
C2060 H2068 0.930 . S
C2061 C2060 1.394 . S
C2061 C2062 1.383 . S
C2061 H2069 0.929 . S
C2062 C2061 1.383 . S
C2062 C2063 1.377 . S
C2063 H2047 0.930 . S
C2063 C2062 1.377 . S
C2063 C2064 1.379 . S
C2064 H2048 0.931 . S
C2064 C2058 1.383 . S
C2064 C2063 1.379 . S
H2065 C2059 0.959 . S
H2066 C2059 0.961 . S
H2067 C2059 0.960 . S
H2068 C2060 0.930 . S
H2069 C2061 0.929 . S
H2070 C2078 0.929 . S
H2071 C2080 0.930 . S
H2072 C2082 0.930 . S
H2073 C2085 0.929 . S
H2074 C2088 0.930 . S
H2075 C2090 0.960 . S
H2076 C2090 0.960 . S
H2077 C2090 0.960 . S
C2078 H2070 0.929 . S
C2078 C2079 1.377 . S
C2078 C2080 1.384 . S
C2079 C2078 1.377 . S
C2079 C2085 1.390 . S
C2080 H2071 0.930 . S
C2080 C2078 1.384 . S
C2080 C2081 1.372 . S
C2081 C2080 1.372 . S
C2081 C2082 1.400 . S
C2081 C2086 1.490 . S
C2082 H2072 0.930 . S
C2082 C2081 1.400 . S
C2082 C2085 1.386 . S
H2083 C2099 0.930 . S
H2084 C2100 0.931 . S
C2085 H2073 0.929 . S
C2085 C2079 1.390 . S
C2085 C2082 1.386 . S
C2086 C2081 1.490 . S
C2086 C2088 1.395 . S
C2086 C2089 1.403 . S
H2087 C2093 0.930 . S
C2088 H2074 0.930 . S
C2088 C2086 1.395 . S
C2088 C2091 1.403 . S
C2089 C2086 1.403 . S
C2089 C2090 1.524 . S
C2089 C2093 1.400 . S
C2090 H2075 0.960 . S
C2090 H2076 0.960 . S
C2090 H2077 0.960 . S
C2090 C2089 1.524 . S
C2091 C2088 1.403 . S
C2091 C2092 1.392 . S
C2091 C2095 1.495 . S
C2092 C2091 1.392 . S
C2092 C2093 1.385 . S
C2092 C2094 1.478 . S
C2093 H2087 0.930 . S
C2093 C2089 1.400 . S
C2093 C2092 1.385 . S
C2094 C2092 1.478 . S
C2094 C2096 1.381 . S
C2094 C2100 1.383 . S
C2095 C2091 1.495 . S
C2095 H2101 0.959 . S
C2095 H2102 0.961 . S
C2095 H2103 0.960 . S
C2096 C2094 1.381 . S
C2096 C2097 1.394 . S
C2096 H2104 0.930 . S
C2097 C2096 1.394 . S
C2097 C2098 1.383 . S
C2097 H2105 0.929 . S
C2098 C2097 1.383 . S
C2098 C2099 1.377 . S
C2099 H2083 0.930 . S
C2099 C2098 1.377 . S
C2099 C2100 1.379 . S
C2100 H2084 0.931 . S
C2100 C2094 1.383 . S
C2100 C2099 1.379 . S
H2101 C2095 0.959 . S
H2102 C2095 0.961 . S
H2103 C2095 0.960 . S
H2104 C2096 0.930 . S
H2105 C2097 0.929 . S
H2106 C2114 0.929 . S
H2107 C2116 0.930 . S
H2108 C2118 0.930 . S
H2109 C2121 0.929 . S
H2110 C2124 0.930 . S
H2111 C2126 0.960 . S
H2112 C2126 0.960 . S
H2113 C2126 0.960 . S
C2114 H2106 0.929 . S
C2114 C2115 1.377 . S
C2114 C2116 1.384 . S
C2115 C2114 1.377 . S
C2115 C2121 1.390 . S
C2116 H2107 0.930 . S
C2116 C2114 1.384 . S
C2116 C2117 1.372 . S
C2117 C2116 1.372 . S
C2117 C2118 1.400 . S
C2117 C2122 1.490 . S
C2118 H2108 0.930 . S
C2118 C2117 1.400 . S
C2118 C2121 1.386 . S
H2119 C2135 0.930 . S
H2120 C2136 0.931 . S
C2121 H2109 0.929 . S
C2121 C2115 1.390 . S
C2121 C2118 1.386 . S
C2122 C2117 1.490 . S
C2122 C2124 1.395 . S
C2122 C2125 1.403 . S
H2123 C2129 0.930 . S
C2124 H2110 0.930 . S
C2124 C2122 1.395 . S
C2124 C2127 1.403 . S
C2125 C2122 1.403 . S
C2125 C2126 1.524 . S
C2125 C2129 1.400 . S
C2126 H2111 0.960 . S
C2126 H2112 0.960 . S
C2126 H2113 0.960 . S
C2126 C2125 1.524 . S
C2127 C2124 1.403 . S
C2127 C2128 1.392 . S
C2127 C2131 1.495 . S
C2128 C2127 1.392 . S
C2128 C2129 1.385 . S
C2128 C2130 1.478 . S
C2129 H2123 0.930 . S
C2129 C2125 1.400 . S
C2129 C2128 1.385 . S
C2130 C2128 1.478 . S
C2130 C2132 1.381 . S
C2130 C2136 1.383 . S
C2131 C2127 1.495 . S
C2131 H2137 0.959 . S
C2131 H2138 0.961 . S
C2131 H2139 0.960 . S
C2132 C2130 1.381 . S
C2132 C2133 1.394 . S
C2132 H2140 0.930 . S
C2133 C2132 1.394 . S
C2133 C2134 1.383 . S
C2133 H2141 0.929 . S
C2134 C2133 1.383 . S
C2134 C2135 1.377 . S
C2135 H2119 0.930 . S
C2135 C2134 1.377 . S
C2135 C2136 1.379 . S
C2136 H2120 0.931 . S
C2136 C2130 1.383 . S
C2136 C2135 1.379 . S
H2137 C2131 0.959 . S
H2138 C2131 0.961 . S
H2139 C2131 0.960 . S
H2140 C2132 0.930 . S
H2141 C2133 0.929 . S
H2142 C2150 0.929 . S
H2143 C2152 0.930 . S
H2144 C2154 0.930 . S
H2145 C2157 0.929 . S
H2146 C2160 0.930 . S
H2147 C2162 0.960 . S
H2148 C2162 0.960 . S
H2149 C2162 0.960 . S
C2150 H2142 0.929 . S
C2150 C2151 1.377 . S
C2150 C2152 1.384 . S
C2151 C2150 1.377 . S
C2151 C2157 1.390 . S
C2152 H2143 0.930 . S
C2152 C2150 1.384 . S
C2152 C2153 1.372 . S
C2153 C2152 1.372 . S
C2153 C2154 1.400 . S
C2153 C2158 1.490 . S
C2154 H2144 0.930 . S
C2154 C2153 1.400 . S
C2154 C2157 1.386 . S
H2155 C2171 0.930 . S
H2156 C2172 0.931 . S
C2157 H2145 0.929 . S
C2157 C2151 1.390 . S
C2157 C2154 1.386 . S
C2158 C2153 1.490 . S
C2158 C2160 1.395 . S
C2158 C2161 1.403 . S
H2159 C2165 0.930 . S
C2160 H2146 0.930 . S
C2160 C2158 1.395 . S
C2160 C2163 1.403 . S
C2161 C2158 1.403 . S
C2161 C2162 1.524 . S
C2161 C2165 1.400 . S
C2162 H2147 0.960 . S
C2162 H2148 0.960 . S
C2162 H2149 0.960 . S
C2162 C2161 1.524 . S
C2163 C2160 1.403 . S
C2163 C2164 1.392 . S
C2163 C2167 1.495 . S
C2164 C2163 1.392 . S
C2164 C2165 1.385 . S
C2164 C2166 1.478 . S
C2165 H2159 0.930 . S
C2165 C2161 1.400 . S
C2165 C2164 1.385 . S
C2166 C2164 1.478 . S
C2166 C2168 1.381 . S
C2166 C2172 1.383 . S
C2167 C2163 1.495 . S
C2167 H2173 0.959 . S
C2167 H2174 0.961 . S
C2167 H2175 0.960 . S
C2168 C2166 1.381 . S
C2168 C2169 1.394 . S
C2168 H2176 0.930 . S
C2169 C2168 1.394 . S
C2169 C2170 1.383 . S
C2169 H2177 0.929 . S
C2170 C2169 1.383 . S
C2170 C2171 1.377 . S
C2171 H2155 0.930 . S
C2171 C2170 1.377 . S
C2171 C2172 1.379 . S
C2172 H2156 0.931 . S
C2172 C2166 1.383 . S
C2172 C2171 1.379 . S
H2173 C2167 0.959 . S
H2174 C2167 0.961 . S
H2175 C2167 0.960 . S
H2176 C2168 0.930 . S
H2177 C2169 0.929 . S
H2178 C2186 0.929 . S
H2179 C2188 0.930 . S
H2180 C2190 0.930 . S
H2181 C2193 0.929 . S
H2182 C2196 0.930 . S
H2183 C2198 0.960 . S
H2184 C2198 0.960 . S
H2185 C2198 0.960 . S
C2186 H2178 0.929 . S
C2186 C2187 1.377 . S
C2186 C2188 1.384 . S
C2187 C2186 1.377 . S
C2187 C2193 1.390 . S
C2188 H2179 0.930 . S
C2188 C2186 1.384 . S
C2188 C2189 1.372 . S
C2189 C2188 1.372 . S
C2189 C2190 1.400 . S
C2189 C2194 1.490 . S
C2190 H2180 0.930 . S
C2190 C2189 1.400 . S
C2190 C2193 1.386 . S
H2191 C2207 0.930 . S
H2192 C2208 0.931 . S
C2193 H2181 0.929 . S
C2193 C2187 1.390 . S
C2193 C2190 1.386 . S
C2194 C2189 1.490 . S
C2194 C2196 1.395 . S
C2194 C2197 1.403 . S
H2195 C2201 0.930 . S
C2196 H2182 0.930 . S
C2196 C2194 1.395 . S
C2196 C2199 1.403 . S
C2197 C2194 1.403 . S
C2197 C2198 1.524 . S
C2197 C2201 1.400 . S
C2198 H2183 0.960 . S
C2198 H2184 0.960 . S
C2198 H2185 0.960 . S
C2198 C2197 1.524 . S
C2199 C2196 1.403 . S
C2199 C2200 1.392 . S
C2199 C2203 1.495 . S
C2200 C2199 1.392 . S
C2200 C2201 1.385 . S
C2200 C2202 1.478 . S
C2201 H2195 0.930 . S
C2201 C2197 1.400 . S
C2201 C2200 1.385 . S
C2202 C2200 1.478 . S
C2202 C2204 1.381 . S
C2202 C2208 1.383 . S
C2203 C2199 1.495 . S
C2203 H2209 0.959 . S
C2203 H2210 0.961 . S
C2203 H2211 0.960 . S
C2204 C2202 1.381 . S
C2204 C2205 1.394 . S
C2204 H2212 0.930 . S
C2205 C2204 1.394 . S
C2205 C2206 1.383 . S
C2205 H2213 0.929 . S
C2206 C2205 1.383 . S
C2206 C2207 1.377 . S
C2207 H2191 0.930 . S
C2207 C2206 1.377 . S
C2207 C2208 1.379 . S
C2208 H2192 0.931 . S
C2208 C2202 1.383 . S
C2208 C2207 1.379 . S
H2209 C2203 0.959 . S
H2210 C2203 0.961 . S
H2211 C2203 0.960 . S
H2212 C2204 0.930 . S
H2213 C2205 0.929 . S
H2214 C2222 0.929 . S
H2215 C2224 0.930 1_565 S
H2216 C2226 0.930 . S
H2217 C2229 0.929 . S
H2218 C2232 0.930 . S
H2219 C2234 0.960 . S
H2220 C2234 0.960 . S
H2221 C2234 0.904 1_545 S
C2222 H2214 0.929 . S
C2222 C2223 1.377 . S
C2222 C2224 1.384 . S
C2223 C2222 1.377 . S
C2223 C2229 1.390 . S
C2224 H2215 0.930 1_545 S
C2224 C2222 1.384 . S
C2224 C2225 1.372 1_545 S
C2225 C2224 1.372 1_565 S
C2225 C2226 1.400 1_565 S
C2225 C2230 1.490 . S
C2226 H2216 0.930 . S
C2226 C2225 1.400 1_545 S
C2226 C2229 1.386 . S
H2227 C2243 0.930 . S
H2228 C2244 0.931 . S
C2229 H2217 0.929 . S
C2229 C2223 1.390 . S
C2229 C2226 1.386 . S
C2230 C2225 1.490 . S
C2230 C2232 1.395 . S
C2230 C2233 1.403 . S
H2231 C2237 0.930 . S
C2232 H2218 0.930 . S
C2232 C2230 1.395 . S
C2232 C2235 1.403 . S
C2233 C2230 1.403 . S
C2233 C2234 1.524 . S
C2233 C2237 1.400 . S
C2234 H2219 0.960 . S
C2234 H2220 0.960 . S
C2234 H2221 0.904 1_565 S
C2234 C2233 1.524 . S
C2235 C2232 1.403 . S
C2235 C2236 1.392 . S
C2235 C2239 1.495 . S
C2236 C2235 1.392 . S
C2236 C2237 1.385 . S
C2236 C2238 1.478 . S
C2237 H2231 0.930 . S
C2237 C2233 1.400 . S
C2237 C2236 1.385 . S
C2238 C2236 1.478 . S
C2238 C2240 1.381 . S
C2238 C2244 1.383 . S
C2239 C2235 1.495 . S
C2239 H2245 0.959 . S
C2239 H2246 0.961 . S
C2239 H2247 0.960 . S
C2240 C2238 1.381 . S
C2240 C2241 1.394 . S
C2240 H2248 0.930 . S
C2241 C2240 1.394 . S
C2241 C2242 1.383 . S
C2241 H2249 0.929 . S
C2242 C2241 1.383 . S
C2242 C2243 1.377 . S
C2243 H2227 0.930 . S
C2243 C2242 1.377 . S
C2243 C2244 1.379 . S
C2244 H2228 0.931 . S
C2244 C2238 1.383 . S
C2244 C2243 1.379 . S
H2245 C2239 0.959 . S
H2246 C2239 0.961 . S
H2247 C2239 0.960 . S
H2248 C2240 0.930 . S
H2249 C2241 0.929 . S
H2250 C2258 0.929 . S
H2251 C2260 0.930 . S
H2252 C2262 0.930 . S
H2253 C2265 0.929 . S
H2254 C2268 0.930 . S
H2255 C2270 0.960 . S
H2256 C2270 0.960 . S
H2257 C2270 0.960 . S
C2258 H2250 0.929 . S
C2258 C2259 1.377 . S
C2258 C2260 1.384 . S
C2259 C2258 1.377 . S
C2259 C2265 1.390 . S
C2260 H2251 0.930 . S
C2260 C2258 1.384 . S
C2260 C2261 1.372 1_655 S
C2261 C2260 1.372 1_455 S
C2261 C2262 1.400 . S
C2261 C2266 1.490 . S
C2262 H2252 0.930 . S
C2262 C2261 1.400 . S
C2262 C2265 1.386 1_455 S
H2263 C2279 0.930 . S
H2264 C2280 0.931 . S
C2265 H2253 0.929 . S
C2265 C2259 1.390 . S
C2265 C2262 1.386 1_655 S
C2266 C2261 1.490 . S
C2266 C2268 1.395 . S
C2266 C2269 1.403 . S
H2267 C2273 0.930 . S
C2268 H2254 0.930 . S
C2268 C2266 1.395 . S
C2268 C2271 1.403 . S
C2269 C2266 1.403 . S
C2269 C2270 1.524 . S
C2269 C2273 1.400 . S
C2270 H2255 0.960 . S
C2270 H2256 0.960 . S
C2270 H2257 0.960 . S
C2270 C2269 1.524 . S
C2271 C2268 1.403 . S
C2271 C2272 1.392 . S
C2271 C2275 1.495 . S
C2272 C2271 1.392 . S
C2272 C2273 1.385 . S
C2272 C2274 1.478 . S
C2273 H2267 0.930 . S
C2273 C2269 1.400 . S
C2273 C2272 1.385 . S
C2274 C2272 1.478 . S
C2274 C2276 1.381 . S
C2274 C2280 1.383 . S
C2275 C2271 1.495 . S
C2275 H2281 0.959 . S
C2275 H2282 0.961 . S
C2275 H2283 0.960 . S
C2276 C2274 1.381 . S
C2276 C2277 1.394 . S
C2276 H2284 0.930 . S
C2277 C2276 1.394 . S
C2277 C2278 1.383 . S
C2277 H2285 0.929 . S
C2278 C2277 1.383 . S
C2278 C2279 1.377 . S
C2279 H2263 0.930 . S
C2279 C2278 1.377 . S
C2279 C2280 1.379 . S
C2280 H2264 0.931 . S
C2280 C2274 1.383 . S
C2280 C2279 1.379 . S
H2281 C2275 0.959 . S
H2282 C2275 0.961 . S
H2283 C2275 0.960 . S
H2284 C2276 0.930 . S
H2285 C2277 0.929 . S
H2286 C2294 0.929 . S
H2287 C2296 0.930 . S
H2288 C2298 0.930 . S
H2289 C2301 0.929 . S
H2290 C2304 0.930 . S
H2291 C2306 0.960 . S
H2292 C2306 0.960 . S
H2293 C2306 0.960 . S
C2294 H2286 0.929 . S
C2294 C2295 1.377 . S
C2294 C2296 1.384 . S
C2295 C2294 1.377 . S
C2295 C2301 1.390 . S
C2296 H2287 0.930 . S
C2296 C2294 1.384 . S
C2296 C2297 1.372 . S
C2297 C2296 1.372 . S
C2297 C2298 1.400 . S
C2297 C2302 1.490 . S
C2298 H2288 0.930 . S
C2298 C2297 1.400 . S
C2298 C2301 1.386 . S
H2299 C2315 0.930 . S
H2300 C2316 0.931 . S
C2301 H2289 0.929 . S
C2301 C2295 1.390 . S
C2301 C2298 1.386 . S
C2302 C2297 1.490 . S
C2302 C2304 1.395 . S
C2302 C2305 1.403 . S
H2303 C2309 0.930 . S
C2304 H2290 0.930 . S
C2304 C2302 1.395 . S
C2304 C2307 1.403 . S
C2305 C2302 1.403 . S
C2305 C2306 1.524 . S
C2305 C2309 1.400 . S
C2306 H2291 0.960 . S
C2306 H2292 0.960 . S
C2306 H2293 0.960 . S
C2306 C2305 1.524 . S
C2307 C2304 1.403 . S
C2307 C2308 1.392 . S
C2307 C2311 1.495 . S
C2308 C2307 1.392 . S
C2308 C2309 1.385 . S
C2308 C2310 1.478 . S
C2309 H2303 0.930 . S
C2309 C2305 1.400 . S
C2309 C2308 1.385 . S
C2310 C2308 1.478 . S
C2310 C2312 1.381 . S
C2310 C2316 1.383 . S
C2311 C2307 1.495 . S
C2311 H2317 0.959 . S
C2311 H2318 0.961 . S
C2311 H2319 0.960 . S
C2312 C2310 1.381 . S
C2312 C2313 1.394 . S
C2312 H2320 0.930 . S
C2313 C2312 1.394 . S
C2313 C2314 1.383 . S
C2313 H2321 0.929 . S
C2314 C2313 1.383 . S
C2314 C2315 1.377 . S
C2315 H2299 0.930 . S
C2315 C2314 1.377 . S
C2315 C2316 1.379 . S
C2316 H2300 0.931 . S
C2316 C2310 1.383 . S
C2316 C2315 1.379 . S
H2317 C2311 0.959 . S
H2318 C2311 0.961 . S
H2319 C2311 0.960 . S
H2320 C2312 0.930 . S
H2321 C2313 0.929 . S
H2322 C2330 0.929 . S
H2323 C2332 0.930 . S
H2324 C2334 0.930 . S
H2325 C2337 0.929 . S
H2326 C2340 0.930 . S
H2327 C2342 0.960 . S
H2328 C2342 0.960 . S
H2329 C2342 0.960 . S
C2330 H2322 0.929 . S
C2330 C2331 1.377 . S
C2330 C2332 1.384 . S
C2331 C2330 1.377 . S
C2331 C2337 1.390 . S
C2332 H2323 0.930 . S
C2332 C2330 1.384 . S
C2332 C2333 1.372 . S
C2333 C2332 1.372 . S
C2333 C2334 1.400 . S
C2333 C2338 1.490 . S
C2334 H2324 0.930 . S
C2334 C2333 1.400 . S
C2334 C2337 1.386 . S
H2335 C2351 0.930 . S
H2336 C2352 0.931 . S
C2337 H2325 0.929 . S
C2337 C2331 1.390 . S
C2337 C2334 1.386 . S
C2338 C2333 1.490 . S
C2338 C2340 1.395 . S
C2338 C2341 1.403 . S
H2339 C2345 0.930 . S
C2340 H2326 0.930 . S
C2340 C2338 1.395 . S
C2340 C2343 1.403 . S
C2341 C2338 1.403 . S
C2341 C2342 1.524 . S
C2341 C2345 1.400 . S
C2342 H2327 0.960 . S
C2342 H2328 0.960 . S
C2342 H2329 0.960 . S
C2342 C2341 1.524 . S
C2343 C2340 1.403 . S
C2343 C2344 1.392 . S
C2343 C2347 1.495 . S
C2344 C2343 1.392 . S
C2344 C2345 1.385 . S
C2344 C2346 1.478 . S
C2345 H2339 0.930 . S
C2345 C2341 1.400 . S
C2345 C2344 1.385 . S
C2346 C2344 1.478 . S
C2346 C2348 1.381 . S
C2346 C2352 1.383 . S
C2347 C2343 1.495 . S
C2347 H2353 0.959 . S
C2347 H2354 0.961 . S
C2347 H2355 0.960 . S
C2348 C2346 1.381 . S
C2348 C2349 1.394 . S
C2348 H2356 0.930 . S
C2349 C2348 1.394 . S
C2349 C2350 1.383 . S
C2349 H2357 0.929 . S
C2350 C2349 1.383 . S
C2350 C2351 1.377 . S
C2351 H2335 0.930 . S
C2351 C2350 1.377 . S
C2351 C2352 1.379 . S
C2352 H2336 0.931 . S
C2352 C2346 1.383 . S
C2352 C2351 1.379 . S
H2353 C2347 0.959 . S
H2354 C2347 0.961 . S
H2355 C2347 0.960 . S
H2356 C2348 0.930 . S
H2357 C2349 0.929 . S
H2358 C2366 0.929 . S
H2359 C2368 0.930 . S
H2360 C2370 0.930 . S
H2361 C2373 0.929 . S
H2362 C2376 0.930 . S
H2363 C2378 0.960 . S
H2364 C2378 0.960 . S
H2365 C2378 0.960 . S
C2366 H2358 0.929 . S
C2366 C2367 1.377 . S
C2366 C2368 1.384 . S
C2367 C2366 1.377 . S
C2367 C2373 1.390 . S
C2368 H2359 0.930 . S
C2368 C2366 1.384 . S
C2368 C2369 1.372 . S
C2369 C2368 1.372 . S
C2369 C2370 1.400 . S
C2369 C2374 1.490 . S
C2370 H2360 0.930 . S
C2370 C2369 1.400 . S
C2370 C2373 1.386 . S
H2371 C2387 0.930 . S
H2372 C2388 0.931 . S
C2373 H2361 0.929 . S
C2373 C2367 1.390 . S
C2373 C2370 1.386 . S
C2374 C2369 1.490 . S
C2374 C2376 1.395 . S
C2374 C2377 1.403 . S
H2375 C2381 0.930 . S
C2376 H2362 0.930 . S
C2376 C2374 1.395 . S
C2376 C2379 1.403 . S
C2377 C2374 1.403 . S
C2377 C2378 1.524 . S
C2377 C2381 1.400 . S
C2378 H2363 0.960 . S
C2378 H2364 0.960 . S
C2378 H2365 0.960 . S
C2378 C2377 1.524 . S
C2379 C2376 1.403 . S
C2379 C2380 1.392 . S
C2379 C2383 1.495 . S
C2380 C2379 1.392 . S
C2380 C2381 1.385 . S
C2380 C2382 1.478 . S
C2381 H2375 0.930 . S
C2381 C2377 1.400 . S
C2381 C2380 1.385 . S
C2382 C2380 1.478 . S
C2382 C2384 1.381 . S
C2382 C2388 1.383 . S
C2383 C2379 1.495 . S
C2383 H2389 0.959 . S
C2383 H2390 0.961 . S
C2383 H2391 0.960 . S
C2384 C2382 1.381 . S
C2384 C2385 1.394 . S
C2384 H2392 0.930 . S
C2385 C2384 1.394 . S
C2385 C2386 1.383 . S
C2385 H2393 0.929 . S
C2386 C2385 1.383 . S
C2386 C2387 1.377 . S
C2387 H2371 0.930 . S
C2387 C2386 1.377 . S
C2387 C2388 1.379 . S
C2388 H2372 0.931 . S
C2388 C2382 1.383 . S
C2388 C2387 1.379 . S
H2389 C2383 0.959 . S
H2390 C2383 0.961 . S
H2391 C2383 0.960 . S
H2392 C2384 0.930 . S
H2393 C2385 0.929 . S
H2394 C2402 0.929 . S
H2395 C2404 0.930 . S
H2396 C2406 0.930 . S
H2397 C2409 0.929 . S
H2398 C2412 0.930 . S
H2399 C2414 0.960 . S
H2400 C2414 0.960 . S
H2401 C2414 0.960 . S
C2402 H2394 0.929 . S
C2402 C2403 1.377 . S
C2402 C2404 1.384 . S
C2403 C2402 1.377 . S
C2403 C2409 1.390 . S
C2404 H2395 0.930 . S
C2404 C2402 1.384 . S
C2404 C2405 1.372 . S
C2405 C2404 1.372 . S
C2405 C2406 1.400 . S
C2405 C2410 1.490 . S
C2406 H2396 0.930 . S
C2406 C2405 1.400 . S
C2406 C2409 1.386 . S
H2407 C2423 0.930 . S
H2408 C2424 0.931 . S
C2409 H2397 0.929 . S
C2409 C2403 1.390 . S
C2409 C2406 1.386 . S
C2410 C2405 1.490 . S
C2410 C2412 1.395 . S
C2410 C2413 1.403 . S
H2411 C2417 0.930 . S
C2412 H2398 0.930 . S
C2412 C2410 1.395 . S
C2412 C2415 1.403 . S
C2413 C2410 1.403 . S
C2413 C2414 1.524 . S
C2413 C2417 1.400 . S
C2414 H2399 0.960 . S
C2414 H2400 0.960 . S
C2414 H2401 0.960 . S
C2414 C2413 1.524 . S
C2415 C2412 1.403 . S
C2415 C2416 1.392 . S
C2415 C2419 1.495 . S
C2416 C2415 1.392 . S
C2416 C2417 1.385 . S
C2416 C2418 1.478 . S
C2417 H2411 0.930 . S
C2417 C2413 1.400 . S
C2417 C2416 1.385 . S
C2418 C2416 1.478 . S
C2418 C2420 1.381 . S
C2418 C2424 1.383 . S
C2419 C2415 1.495 . S
C2419 H2425 0.959 . S
C2419 H2426 0.961 . S
C2419 H2427 0.960 . S
C2420 C2418 1.381 . S
C2420 C2421 1.394 . S
C2420 H2428 0.930 . S
C2421 C2420 1.394 . S
C2421 C2422 1.383 . S
C2421 H2429 0.929 . S
C2422 C2421 1.383 . S
C2422 C2423 1.377 . S
C2423 H2407 0.930 . S
C2423 C2422 1.377 . S
C2423 C2424 1.379 . S
C2424 H2408 0.931 . S
C2424 C2418 1.383 . S
C2424 C2423 1.379 . S
H2425 C2419 0.959 . S
H2426 C2419 0.961 . S
H2427 C2419 0.960 . S
H2428 C2420 0.930 . S
H2429 C2421 0.929 . S
H2430 C2438 0.929 . S
H2431 C2440 0.930 . S
H2432 C2442 0.932 1_545 S
H2433 C2445 0.929 . S
H2434 C2448 0.930 . S
H2435 C2450 0.960 . S
H2436 C2450 0.960 . S
H2437 C2450 0.960 . S
C2438 H2430 0.929 . S
C2438 C2439 1.377 . S
C2438 C2440 1.384 . S
C2439 C2438 1.377 . S
C2439 C2445 1.390 . S
C2440 H2431 0.930 . S
C2440 C2438 1.384 . S
C2440 C2441 1.372 1_565 S
C2441 C2440 1.372 1_545 S
C2441 C2442 1.400 1_545 S
C2441 C2446 1.490 . S
C2442 H2432 0.932 1_565 S
C2442 C2441 1.400 1_565 S
C2442 C2445 1.384 . S
H2443 C2459 0.930 . S
H2444 C2460 0.931 . S
C2445 H2433 0.929 . S
C2445 C2439 1.390 . S
C2445 C2442 1.384 . S
C2446 C2441 1.490 . S
C2446 C2448 1.395 . S
C2446 C2449 1.403 . S
H2447 C2453 0.930 . S
C2448 H2434 0.930 . S
C2448 C2446 1.395 . S
C2448 C2451 1.403 . S
C2449 C2446 1.403 . S
C2449 C2450 1.524 . S
C2449 C2453 1.400 . S
C2450 H2435 0.960 . S
C2450 H2436 0.960 . S
C2450 H2437 0.960 . S
C2450 C2449 1.524 . S
C2451 C2448 1.403 . S
C2451 C2452 1.392 . S
C2451 C2455 1.495 . S
C2452 C2451 1.392 . S
C2452 C2453 1.385 . S
C2452 C2454 1.478 . S
C2453 H2447 0.930 . S
C2453 C2449 1.400 . S
C2453 C2452 1.385 . S
C2454 C2452 1.478 . S
C2454 C2456 1.381 . S
C2454 C2460 1.383 . S
C2455 C2451 1.495 . S
C2455 H2461 0.959 . S
C2455 H2462 0.961 . S
C2455 H2463 0.960 . S
C2456 C2454 1.381 . S
C2456 C2457 1.394 . S
C2456 H2464 0.930 . S
C2457 C2456 1.394 . S
C2457 C2458 1.383 . S
C2457 H2465 0.929 . S
C2458 C2457 1.383 . S
C2458 C2459 1.377 . S
C2459 H2443 0.930 . S
C2459 C2458 1.377 . S
C2459 C2460 1.379 . S
C2460 H2444 0.931 . S
C2460 C2454 1.383 . S
C2460 C2459 1.379 . S
H2461 C2455 0.959 . S
H2462 C2455 0.961 . S
H2463 C2455 0.960 . S
H2464 C2456 0.930 . S
H2465 C2457 0.929 . S
H2466 C2474 0.929 . S
H2467 C2476 0.930 1_655 S
H2468 C2478 0.930 1_655 S
H2469 C2481 0.929 . S
H2470 C2484 0.930 . S
H2471 C2486 0.960 . S
H2472 C2486 0.960 . S
H2473 C2486 0.960 . S
C2474 H2466 0.929 . S
C2474 C2475 1.377 . S
C2474 C2476 1.384 . S
C2475 C2474 1.377 . S
C2475 C2481 1.390 . S
C2476 H2467 0.930 1_455 S
C2476 C2474 1.384 . S
C2476 C2477 1.372 1_455 S
C2477 C2476 1.372 1_655 S
C2477 C2478 1.400 1_655 S
C2477 C2482 1.490 . S
C2478 H2468 0.930 1_455 S
C2478 C2477 1.400 1_455 S
C2478 C2481 1.386 . S
H2479 C2495 0.930 . S
H2480 C2496 0.931 . S
C2481 H2469 0.929 . S
C2481 C2475 1.390 . S
C2481 C2478 1.386 . S
C2482 C2477 1.490 . S
C2482 C2484 1.395 . S
C2482 C2485 1.403 . S
H2483 C2489 0.930 . S
C2484 H2470 0.930 . S
C2484 C2482 1.395 . S
C2484 C2487 1.403 . S
C2485 C2482 1.403 . S
C2485 C2486 1.524 . S
C2485 C2489 1.400 . S
C2486 H2471 0.960 . S
C2486 H2472 0.960 . S
C2486 H2473 0.960 . S
C2486 C2485 1.524 . S
C2487 C2484 1.403 . S
C2487 C2488 1.392 . S
C2487 C2491 1.495 . S
C2488 C2487 1.392 . S
C2488 C2489 1.385 . S
C2488 C2490 1.478 . S
C2489 H2483 0.930 . S
C2489 C2485 1.400 . S
C2489 C2488 1.385 . S
C2490 C2488 1.478 . S
C2490 C2492 1.381 . S
C2490 C2496 1.383 . S
C2491 C2487 1.495 . S
C2491 H2497 0.959 . S
C2491 H2498 0.961 . S
C2491 H2499 0.960 . S
C2492 C2490 1.381 . S
C2492 C2493 1.394 . S
C2492 H2500 0.930 . S
C2493 C2492 1.394 . S
C2493 C2494 1.383 . S
C2493 H2501 0.929 . S
C2494 C2493 1.383 . S
C2494 C2495 1.377 . S
C2495 H2479 0.930 . S
C2495 C2494 1.377 . S
C2495 C2496 1.379 . S
C2496 H2480 0.931 . S
C2496 C2490 1.383 . S
C2496 C2495 1.379 . S
H2497 C2491 0.959 . S
H2498 C2491 0.961 . S
H2499 C2491 0.960 . S
H2500 C2492 0.930 . S
H2501 C2493 0.929 . S
H2502 C2510 0.929 . S
H2503 C2512 0.930 . S
H2504 C2514 0.930 . S
H2505 C2517 0.929 . S
H2506 C2520 0.930 . S
H2507 C2522 0.960 . S
H2508 C2522 0.960 . S
H2509 C2522 0.960 . S
C2510 H2502 0.929 . S
C2510 C2511 1.377 . S
C2510 C2512 1.384 . S
C2511 C2510 1.377 . S
C2511 C2517 1.390 . S
C2512 H2503 0.930 . S
C2512 C2510 1.384 . S
C2512 C2513 1.372 . S
C2513 C2512 1.372 . S
C2513 C2514 1.400 . S
C2513 C2518 1.490 . S
C2514 H2504 0.930 . S
C2514 C2513 1.400 . S
C2514 C2517 1.386 . S
H2515 C2531 0.930 . S
H2516 C2532 0.931 . S
C2517 H2505 0.929 . S
C2517 C2511 1.390 . S
C2517 C2514 1.386 . S
C2518 C2513 1.490 . S
C2518 C2520 1.395 . S
C2518 C2521 1.403 . S
H2519 C2525 0.930 . S
C2520 H2506 0.930 . S
C2520 C2518 1.395 . S
C2520 C2523 1.403 . S
C2521 C2518 1.403 . S
C2521 C2522 1.524 . S
C2521 C2525 1.400 . S
C2522 H2507 0.960 . S
C2522 H2508 0.960 . S
C2522 H2509 0.960 . S
C2522 C2521 1.524 . S
C2523 C2520 1.403 . S
C2523 C2524 1.392 . S
C2523 C2527 1.495 . S
C2524 C2523 1.392 . S
C2524 C2525 1.385 . S
C2524 C2526 1.478 . S
C2525 H2519 0.930 . S
C2525 C2521 1.400 . S
C2525 C2524 1.385 . S
C2526 C2524 1.478 . S
C2526 C2528 1.381 . S
C2526 C2532 1.383 . S
C2527 C2523 1.495 . S
C2527 H2533 0.959 . S
C2527 H2534 0.961 . S
C2527 H2535 0.960 . S
C2528 C2526 1.381 . S
C2528 C2529 1.394 . S
C2528 H2536 0.930 . S
C2529 C2528 1.394 . S
C2529 C2530 1.383 . S
C2529 H2537 0.929 . S
C2530 C2529 1.383 . S
C2530 C2531 1.377 . S
C2531 H2515 0.930 . S
C2531 C2530 1.377 . S
C2531 C2532 1.379 . S
C2532 H2516 0.931 . S
C2532 C2526 1.383 . S
C2532 C2531 1.379 . S
H2533 C2527 0.959 . S
H2534 C2527 0.961 . S
H2535 C2527 0.960 . S
H2536 C2528 0.930 . S
H2537 C2529 0.929 . S
H2538 C2546 0.929 . S
H2539 C2548 0.930 . S
H2540 C2550 0.930 1_655 S
H2541 C2553 0.929 . S
H2542 C2556 0.930 . S
H2543 C2558 0.960 . S
H2544 C2558 0.960 . S
H2545 C2558 0.960 . S
C2546 H2538 0.929 . S
C2546 C2547 1.377 . S
C2546 C2548 1.384 . S
C2547 C2546 1.377 . S
C2547 C2553 1.390 . S
C2548 H2539 0.930 . S
C2548 C2546 1.384 . S
C2548 C2549 1.372 1_455 S
C2549 C2548 1.372 1_655 S
C2549 C2550 1.400 1_655 S
C2549 C2554 1.490 . S
C2550 H2540 0.930 1_455 S
C2550 C2549 1.400 1_455 S
C2550 C2553 1.386 . S
H2551 C2567 0.930 . S
H2552 C2568 0.931 . S
C2553 H2541 0.929 . S
C2553 C2547 1.390 . S
C2553 C2550 1.386 . S
C2554 C2549 1.490 . S
C2554 C2556 1.395 . S
C2554 C2557 1.403 . S
H2555 C2561 0.930 . S
C2556 H2542 0.930 . S
C2556 C2554 1.395 . S
C2556 C2559 1.403 . S
C2557 C2554 1.403 . S
C2557 C2558 1.524 . S
C2557 C2561 1.400 . S
C2558 H2543 0.960 . S
C2558 H2544 0.960 . S
C2558 H2545 0.960 . S
C2558 C2557 1.524 . S
C2559 C2556 1.403 . S
C2559 C2560 1.392 . S
C2559 C2563 1.495 . S
C2560 C2559 1.392 . S
C2560 C2561 1.385 . S
C2560 C2562 1.478 . S
C2561 H2555 0.930 . S
C2561 C2557 1.400 . S
C2561 C2560 1.385 . S
C2562 C2560 1.478 . S
C2562 C2564 1.381 . S
C2562 C2568 1.383 . S
C2563 C2559 1.495 . S
C2563 H2569 0.959 . S
C2563 H2570 0.961 . S
C2563 H2571 0.960 . S
C2564 C2562 1.381 . S
C2564 C2565 1.394 . S
C2564 H2572 0.930 . S
C2565 C2564 1.394 . S
C2565 C2566 1.383 . S
C2565 H2573 0.929 . S
C2566 C2565 1.383 . S
C2566 C2567 1.377 . S
C2567 H2551 0.930 . S
C2567 C2566 1.377 . S
C2567 C2568 1.379 . S
C2568 H2552 0.931 . S
C2568 C2562 1.383 . S
C2568 C2567 1.379 . S
H2569 C2563 0.959 . S
H2570 C2563 0.961 . S
H2571 C2563 0.960 . S
H2572 C2564 0.930 . S
H2573 C2565 0.929 . S
H2574 C2582 0.929 . S
H2575 C2584 0.930 . S
H2576 C2586 0.930 . S
H2577 C2589 0.929 . S
H2578 C2592 0.930 . S
H2579 C2594 0.960 . S
H2580 C2594 0.960 . S
H2581 C2594 0.960 . S
C2582 H2574 0.929 . S
C2582 C2583 1.377 . S
C2582 C2584 1.384 . S
C2583 C2582 1.377 . S
C2583 C2589 1.390 . S
C2584 H2575 0.930 . S
C2584 C2582 1.384 . S
C2584 C2585 1.372 . S
C2585 C2584 1.372 . S
C2585 C2586 1.400 . S
C2585 C2590 1.490 . S
C2586 H2576 0.930 . S
C2586 C2585 1.400 . S
C2586 C2589 1.386 . S
H2587 C2603 0.930 . S
H2588 C2604 0.931 . S
C2589 H2577 0.929 . S
C2589 C2583 1.390 . S
C2589 C2586 1.386 . S
C2590 C2585 1.490 . S
C2590 C2592 1.395 . S
C2590 C2593 1.403 . S
H2591 C2597 0.930 . S
C2592 H2578 0.930 . S
C2592 C2590 1.395 . S
C2592 C2595 1.403 . S
C2593 C2590 1.403 . S
C2593 C2594 1.524 . S
C2593 C2597 1.400 . S
C2594 H2579 0.960 . S
C2594 H2580 0.960 . S
C2594 H2581 0.960 . S
C2594 C2593 1.524 . S
C2595 C2592 1.403 . S
C2595 C2596 1.392 . S
C2595 C2599 1.495 . S
C2596 C2595 1.392 . S
C2596 C2597 1.385 . S
C2596 C2598 1.478 . S
C2597 H2591 0.930 . S
C2597 C2593 1.400 . S
C2597 C2596 1.385 . S
C2598 C2596 1.478 . S
C2598 C2600 1.381 . S
C2598 C2604 1.383 . S
C2599 C2595 1.495 . S
C2599 H2605 0.959 . S
C2599 H2606 0.961 . S
C2599 H2607 0.960 . S
C2600 C2598 1.381 . S
C2600 C2601 1.394 . S
C2600 H2608 0.930 . S
C2601 C2600 1.394 . S
C2601 C2602 1.383 . S
C2601 H2609 0.929 . S
C2602 C2601 1.383 . S
C2602 C2603 1.377 . S
C2603 H2587 0.930 . S
C2603 C2602 1.377 . S
C2603 C2604 1.379 . S
C2604 H2588 0.931 . S
C2604 C2598 1.383 . S
C2604 C2603 1.379 . S
H2605 C2599 0.959 . S
H2606 C2599 0.961 . S
H2607 C2599 0.960 . S
H2608 C2600 0.930 . S
H2609 C2601 0.929 . S
H2610 C2618 0.929 . S
H2611 C2620 0.930 . S
H2612 C2622 0.930 1_545 S
H2613 C2625 0.929 . S
H2614 C2628 0.930 . S
H2615 C2630 0.960 . S
H2616 C2630 0.960 . S
H2617 C2630 0.960 . S
C2618 H2610 0.929 . S
C2618 C2619 1.377 . S
C2618 C2620 1.384 . S
C2619 C2618 1.377 . S
C2619 C2625 1.390 . S
C2620 H2611 0.930 . S
C2620 C2618 1.384 . S
C2620 C2621 1.354 1_565 S
C2621 C2620 1.354 1_545 S
C2621 C2622 1.395 1_545 S
C2621 C2626 1.512 . S
C2622 H2612 0.930 1_565 S
C2622 C2621 1.395 1_565 S
C2622 C2625 1.386 . S
H2623 C2639 0.930 . S
H2624 C2640 0.931 . S
C2625 H2613 0.929 . S
C2625 C2619 1.390 . S
C2625 C2622 1.386 . S
C2626 C2621 1.512 . S
C2626 C2628 1.395 . S
C2626 C2629 1.403 . S
H2627 C2633 0.930 . S
C2628 H2614 0.930 . S
C2628 C2626 1.395 . S
C2628 C2631 1.403 . S
C2629 C2626 1.403 . S
C2629 C2630 1.524 . S
C2629 C2633 1.400 . S
C2630 H2615 0.960 . S
C2630 H2616 0.960 . S
C2630 H2617 0.960 . S
C2630 C2629 1.524 . S
C2631 C2628 1.403 . S
C2631 C2632 1.392 . S
C2631 C2635 1.495 . S
C2632 C2631 1.392 . S
C2632 C2633 1.385 . S
C2632 C2634 1.478 . S
C2633 H2627 0.930 . S
C2633 C2629 1.400 . S
C2633 C2632 1.385 . S
C2634 C2632 1.478 . S
C2634 C2636 1.381 . S
C2634 C2640 1.383 . S
C2635 C2631 1.495 . S
C2635 H2641 0.959 . S
C2635 H2642 0.961 . S
C2635 H2643 0.960 . S
C2636 C2634 1.381 . S
C2636 C2637 1.394 . S
C2636 H2644 0.930 . S
C2637 C2636 1.394 . S
C2637 C2638 1.383 . S
C2637 H2645 0.929 . S
C2638 C2637 1.383 . S
C2638 C2639 1.377 . S
C2639 H2623 0.930 . S
C2639 C2638 1.377 . S
C2639 C2640 1.379 . S
C2640 H2624 0.931 . S
C2640 C2634 1.383 . S
C2640 C2639 1.379 . S
H2641 C2635 0.959 . S
H2642 C2635 0.961 . S
H2643 C2635 0.960 . S
H2644 C2636 0.930 . S
H2645 C2637 0.929 . S
H2646 C2654 0.929 . S
H2647 C2656 0.930 . S
H2648 C2658 0.930 . S
H2649 C2661 0.929 . S
H2650 C2664 0.930 . S
H2651 C2666 0.960 . S
H2652 C2666 0.960 . S
H2653 C2666 0.960 . S
C2654 H2646 0.929 . S
C2654 C2655 1.377 . S
C2654 C2656 1.384 . S
C2655 C2654 1.377 . S
C2655 C2661 1.390 . S
C2656 H2647 0.930 . S
C2656 C2654 1.384 . S
C2656 C2657 1.372 . S
C2657 C2656 1.372 . S
C2657 C2658 1.400 . S
C2657 C2662 1.490 . S
C2658 H2648 0.930 . S
C2658 C2657 1.400 . S
C2658 C2661 1.386 . S
H2659 C2675 0.930 . S
H2660 C2676 0.931 . S
C2661 H2649 0.929 . S
C2661 C2655 1.390 . S
C2661 C2658 1.386 . S
C2662 C2657 1.490 . S
C2662 C2664 1.395 . S
C2662 C2665 1.403 . S
H2663 C2669 0.930 . S
C2664 H2650 0.930 . S
C2664 C2662 1.395 . S
C2664 C2667 1.403 . S
C2665 C2662 1.403 . S
C2665 C2666 1.524 . S
C2665 C2669 1.400 . S
C2666 H2651 0.960 . S
C2666 H2652 0.960 . S
C2666 H2653 0.960 . S
C2666 C2665 1.524 . S
C2667 C2664 1.403 . S
C2667 C2668 1.392 . S
C2667 C2671 1.495 . S
C2668 C2667 1.392 . S
C2668 C2669 1.385 . S
C2668 C2670 1.478 . S
C2669 H2663 0.930 . S
C2669 C2665 1.400 . S
C2669 C2668 1.385 . S
C2670 C2668 1.478 . S
C2670 C2672 1.381 . S
C2670 C2676 1.383 . S
C2671 C2667 1.495 . S
C2671 H2677 0.959 . S
C2671 H2678 0.961 . S
C2671 H2679 0.960 . S
C2672 C2670 1.381 . S
C2672 C2673 1.394 . S
C2672 H2680 0.930 . S
C2673 C2672 1.394 . S
C2673 C2674 1.383 . S
C2673 H2681 0.929 . S
C2674 C2673 1.383 . S
C2674 C2675 1.377 . S
C2675 H2659 0.930 . S
C2675 C2674 1.377 . S
C2675 C2676 1.379 . S
C2676 H2660 0.931 . S
C2676 C2670 1.383 . S
C2676 C2675 1.379 . S
H2677 C2671 0.959 . S
H2678 C2671 0.961 . S
H2679 C2671 0.960 . S
H2680 C2672 0.930 . S
H2681 C2673 0.929 . S
H2682 C2690 0.929 . S
H2683 C2692 0.930 . S
H2684 C2694 0.930 . S
H2685 C2697 0.929 . S
H2686 C2700 0.930 . S
H2687 C2702 0.960 . S
H2688 C2702 0.960 . S
H2689 C2702 0.960 . S
C2690 H2682 0.929 . S
C2690 C2691 1.377 . S
C2690 C2692 1.384 . S
C2691 C2690 1.377 . S
C2691 C2697 1.390 . S
C2692 H2683 0.930 . S
C2692 C2690 1.384 . S
C2692 C2693 1.372 . S
C2693 C2692 1.372 . S
C2693 C2694 1.400 . S
C2693 C2698 1.490 . S
C2694 H2684 0.930 . S
C2694 C2693 1.400 . S
C2694 C2697 1.386 . S
H2695 C2711 0.930 . S
H2696 C2712 0.931 . S
C2697 H2685 0.929 . S
C2697 C2691 1.390 . S
C2697 C2694 1.386 . S
C2698 C2693 1.490 . S
C2698 C2700 1.395 . S
C2698 C2701 1.403 . S
H2699 C2705 0.930 . S
C2700 H2686 0.930 . S
C2700 C2698 1.395 . S
C2700 C2703 1.403 . S
C2701 C2698 1.403 . S
C2701 C2702 1.524 . S
C2701 C2705 1.400 . S
C2702 H2687 0.960 . S
C2702 H2688 0.960 . S
C2702 H2689 0.960 . S
C2702 C2701 1.524 . S
C2703 C2700 1.403 . S
C2703 C2704 1.392 . S
C2703 C2707 1.495 . S
C2704 C2703 1.392 . S
C2704 C2705 1.385 . S
C2704 C2706 1.478 . S
C2705 H2699 0.930 . S
C2705 C2701 1.400 . S
C2705 C2704 1.385 . S
C2706 C2704 1.478 . S
C2706 C2708 1.381 . S
C2706 C2712 1.383 . S
C2707 C2703 1.495 . S
C2707 H2713 0.959 . S
C2707 H2714 0.961 . S
C2707 H2715 0.960 . S
C2708 C2706 1.381 . S
C2708 C2709 1.394 . S
C2708 H2716 0.930 . S
C2709 C2708 1.394 . S
C2709 C2710 1.383 . S
C2709 H2717 0.929 . S
C2710 C2709 1.383 . S
C2710 C2711 1.377 . S
C2711 H2695 0.930 . S
C2711 C2710 1.377 . S
C2711 C2712 1.379 . S
C2712 H2696 0.931 . S
C2712 C2706 1.383 . S
C2712 C2711 1.379 . S
H2713 C2707 0.959 . S
H2714 C2707 0.961 . S
H2715 C2707 0.960 . S
H2716 C2708 0.930 . S
H2717 C2709 0.929 . S
H2718 C2726 0.929 . S
H2719 C2728 0.930 . S
H2720 C2730 0.930 . S
H2721 C2733 0.929 . S
H2722 C2736 0.930 . S
H2723 C2738 0.960 . S
H2724 C2738 0.960 . S
H2725 C2738 0.960 . S
C2726 H2718 0.929 . S
C2726 C2727 1.377 . S
C2726 C2728 1.384 . S
C2727 C2726 1.377 . S
C2727 C2733 1.390 . S
C2728 H2719 0.930 . S
C2728 C2726 1.384 . S
C2728 C2729 1.372 . S
C2729 C2728 1.372 . S
C2729 C2730 1.400 . S
C2729 C2734 1.490 . S
C2730 H2720 0.930 . S
C2730 C2729 1.400 . S
C2730 C2733 1.386 . S
H2731 C2747 0.930 . S
H2732 C2748 0.931 . S
C2733 H2721 0.929 . S
C2733 C2727 1.390 . S
C2733 C2730 1.386 . S
C2734 C2729 1.490 . S
C2734 C2736 1.395 . S
C2734 C2737 1.403 . S
H2735 C2741 0.930 . S
C2736 H2722 0.930 . S
C2736 C2734 1.395 . S
C2736 C2739 1.403 . S
C2737 C2734 1.403 . S
C2737 C2738 1.524 . S
C2737 C2741 1.400 . S
C2738 H2723 0.960 . S
C2738 H2724 0.960 . S
C2738 H2725 0.960 . S
C2738 C2737 1.524 . S
C2739 C2736 1.403 . S
C2739 C2740 1.392 . S
C2739 C2743 1.495 . S
C2740 C2739 1.392 . S
C2740 C2741 1.385 . S
C2740 C2742 1.478 . S
C2741 H2735 0.930 . S
C2741 C2737 1.400 . S
C2741 C2740 1.385 . S
C2742 C2740 1.478 . S
C2742 C2744 1.381 . S
C2742 C2748 1.383 . S
C2743 C2739 1.495 . S
C2743 H2749 0.959 . S
C2743 H2750 0.961 . S
C2743 H2751 0.960 . S
C2744 C2742 1.381 . S
C2744 C2745 1.394 . S
C2744 H2752 0.930 . S
C2745 C2744 1.394 . S
C2745 C2746 1.383 . S
C2745 H2753 0.929 . S
C2746 C2745 1.383 . S
C2746 C2747 1.377 . S
C2747 H2731 0.930 . S
C2747 C2746 1.377 . S
C2747 C2748 1.379 . S
C2748 H2732 0.931 . S
C2748 C2742 1.383 . S
C2748 C2747 1.379 . S
H2749 C2743 0.959 . S
H2750 C2743 0.961 . S
H2751 C2743 0.960 . S
H2752 C2744 0.930 . S
H2753 C2745 0.929 . S
H2754 C2762 0.929 . S
H2755 C2764 0.930 . S
H2756 C2766 0.930 . S
H2757 C2769 0.929 . S
H2758 C2772 0.930 . S
H2759 C2774 0.960 . S
H2760 C2774 0.960 . S
H2761 C2774 0.960 . S
C2762 H2754 0.929 . S
C2762 C2763 1.377 . S
C2762 C2764 1.384 . S
C2763 C2762 1.377 . S
C2763 C2769 1.390 . S
C2764 H2755 0.930 . S
C2764 C2762 1.384 . S
C2764 C2765 1.372 . S
C2765 C2764 1.372 . S
C2765 C2766 1.400 . S
C2765 C2770 1.490 . S
C2766 H2756 0.930 . S
C2766 C2765 1.400 . S
C2766 C2769 1.386 . S
H2767 C2783 0.930 . S
H2768 C2784 0.931 . S
C2769 H2757 0.929 . S
C2769 C2763 1.390 . S
C2769 C2766 1.386 . S
C2770 C2765 1.490 . S
C2770 C2772 1.395 . S
C2770 C2773 1.403 . S
H2771 C2777 0.930 . S
C2772 H2758 0.930 . S
C2772 C2770 1.395 . S
C2772 C2775 1.403 . S
C2773 C2770 1.403 . S
C2773 C2774 1.524 . S
C2773 C2777 1.400 . S
C2774 H2759 0.960 . S
C2774 H2760 0.960 . S
C2774 H2761 0.960 . S
C2774 C2773 1.524 . S
C2775 C2772 1.403 . S
C2775 C2776 1.392 . S
C2775 C2779 1.495 . S
C2776 C2775 1.392 . S
C2776 C2777 1.385 . S
C2776 C2778 1.478 . S
C2777 H2771 0.930 . S
C2777 C2773 1.400 . S
C2777 C2776 1.385 . S
C2778 C2776 1.478 . S
C2778 C2780 1.381 . S
C2778 C2784 1.383 . S
C2779 C2775 1.495 . S
C2779 H2785 0.928 1_565 S
C2779 H2786 0.961 1_565 S
C2779 H2787 0.960 . S
C2780 C2778 1.381 . S
C2780 C2781 1.394 . S
C2780 H2788 0.930 . S
C2781 C2780 1.394 . S
C2781 C2782 1.383 . S
C2781 H2789 0.929 . S
C2782 C2781 1.383 . S
C2782 C2783 1.377 . S
C2783 H2767 0.930 . S
C2783 C2782 1.377 . S
C2783 C2784 1.379 . S
C2784 H2768 0.931 . S
C2784 C2778 1.383 . S
C2784 C2783 1.379 . S
H2785 C2779 0.928 1_545 S
H2786 C2779 0.961 1_545 S
H2787 C2779 0.960 . S
H2788 C2780 0.930 . S
H2789 C2781 0.929 . S
H2790 C2798 0.929 . S
H2791 C2800 0.930 . S
H2792 C2802 0.930 . S
H2793 C2805 0.929 . S
H2794 C2808 0.930 . S
H2795 C2810 0.960 . S
H2796 C2810 0.960 . S
H2797 C2810 0.960 . S
C2798 H2790 0.929 . S
C2798 C2799 1.377 . S
C2798 C2800 1.384 . S
C2799 C2798 1.377 . S
C2799 C2805 1.390 . S
C2800 H2791 0.930 . S
C2800 C2798 1.384 . S
C2800 C2801 1.372 . S
C2801 C2800 1.372 . S
C2801 C2802 1.400 . S
C2801 C2806 1.490 . S
C2802 H2792 0.930 . S
C2802 C2801 1.400 . S
C2802 C2805 1.386 . S
H2803 C2819 0.930 . S
H2804 C2820 0.931 . S
C2805 H2793 0.929 . S
C2805 C2799 1.390 . S
C2805 C2802 1.386 . S
C2806 C2801 1.490 . S
C2806 C2808 1.395 . S
C2806 C2809 1.403 . S
H2807 C2813 0.930 . S
C2808 H2794 0.930 . S
C2808 C2806 1.395 . S
C2808 C2811 1.403 . S
C2809 C2806 1.403 . S
C2809 C2810 1.524 . S
C2809 C2813 1.400 . S
C2810 H2795 0.960 . S
C2810 H2796 0.960 . S
C2810 H2797 0.960 . S
C2810 C2809 1.524 . S
C2811 C2808 1.403 . S
C2811 C2812 1.392 . S
C2811 C2815 1.495 . S
C2812 C2811 1.392 . S
C2812 C2813 1.385 . S
C2812 C2814 1.478 . S
C2813 H2807 0.930 . S
C2813 C2809 1.400 . S
C2813 C2812 1.385 . S
C2814 C2812 1.478 . S
C2814 C2816 1.381 . S
C2814 C2820 1.383 . S
C2815 C2811 1.495 . S
C2815 H2821 0.959 . S
C2815 H2822 0.961 . S
C2815 H2823 0.960 . S
C2816 C2814 1.381 . S
C2816 C2817 1.394 . S
C2816 H2824 0.930 . S
C2817 C2816 1.394 . S
C2817 C2818 1.383 . S
C2817 H2825 0.929 1_455 S
C2818 C2817 1.383 . S
C2818 C2819 1.377 . S
C2819 H2803 0.930 . S
C2819 C2818 1.377 . S
C2819 C2820 1.379 . S
C2820 H2804 0.931 . S
C2820 C2814 1.383 . S
C2820 C2819 1.379 . S
H2821 C2815 0.959 . S
H2822 C2815 0.961 . S
H2823 C2815 0.960 . S
H2824 C2816 0.930 . S
H2825 C2817 0.929 1_655 S
H2826 C2834 0.929 . S
H2827 C2836 0.930 . S
H2828 C2838 0.930 . S
H2829 C2841 0.929 . S
H2830 C2844 0.930 . S
H2831 C2846 0.960 . S
H2832 C2846 0.960 . S
H2833 C2846 0.960 . S
C2834 H2826 0.929 . S
C2834 C2835 1.377 . S
C2834 C2836 1.384 . S
C2835 C2834 1.377 . S
C2835 C2841 1.390 . S
C2836 H2827 0.930 . S
C2836 C2834 1.384 . S
C2836 C2837 1.372 . S
C2837 C2836 1.372 . S
C2837 C2838 1.400 . S
C2837 C2842 1.490 . S
C2838 H2828 0.930 . S
C2838 C2837 1.400 . S
C2838 C2841 1.386 . S
H2839 C2855 0.930 . S
H2840 C2856 0.931 . S
C2841 H2829 0.929 . S
C2841 C2835 1.390 . S
C2841 C2838 1.386 . S
C2842 C2837 1.490 . S
C2842 C2844 1.395 . S
C2842 C2845 1.403 . S
H2843 C2849 0.930 . S
C2844 H2830 0.930 . S
C2844 C2842 1.395 . S
C2844 C2847 1.403 . S
C2845 C2842 1.403 . S
C2845 C2846 1.524 . S
C2845 C2849 1.400 . S
C2846 H2831 0.960 . S
C2846 H2832 0.960 . S
C2846 H2833 0.960 . S
C2846 C2845 1.524 . S
C2847 C2844 1.403 . S
C2847 C2848 1.392 . S
C2847 C2851 1.495 . S
C2848 C2847 1.392 . S
C2848 C2849 1.385 . S
C2848 C2850 1.478 . S
C2849 H2843 0.930 . S
C2849 C2845 1.400 . S
C2849 C2848 1.385 . S
C2850 C2848 1.478 . S
C2850 C2852 1.381 . S
C2850 C2856 1.383 . S
C2851 C2847 1.495 . S
C2851 H2857 0.959 . S
C2851 H2858 0.961 . S
C2851 H2859 0.960 . S
C2852 C2850 1.381 . S
C2852 C2853 1.394 . S
C2852 H2860 0.930 . S
C2853 C2852 1.394 . S
C2853 C2854 1.383 . S
C2853 H2861 0.929 . S
C2854 C2853 1.383 . S
C2854 C2855 1.377 . S
C2855 H2839 0.930 . S
C2855 C2854 1.377 . S
C2855 C2856 1.379 . S
C2856 H2840 0.931 . S
C2856 C2850 1.383 . S
C2856 C2855 1.379 . S
H2857 C2851 0.959 . S
H2858 C2851 0.961 . S
H2859 C2851 0.960 . S
H2860 C2852 0.930 . S
H2861 C2853 0.929 . S
H2862 C2870 0.929 . S
H2863 C2872 0.930 . S
H2864 C2874 0.930 . S
H2865 C2877 0.929 . S
H2866 C2880 0.930 . S
H2867 C2882 0.960 . S
H2868 C2882 0.960 . S
H2869 C2882 0.960 . S
C2870 H2862 0.929 . S
C2870 C2871 1.377 . S
C2870 C2872 1.384 . S
C2871 C2870 1.377 . S
C2871 C2877 1.390 . S
C2872 H2863 0.930 . S
C2872 C2870 1.384 . S
C2872 C2873 1.372 . S
C2873 C2872 1.372 . S
C2873 C2874 1.400 . S
C2873 C2878 1.490 . S
C2874 H2864 0.930 . S
C2874 C2873 1.400 . S
C2874 C2877 1.386 . S
H2875 C2891 0.930 . S
H2876 C2892 0.931 . S
C2877 H2865 0.929 . S
C2877 C2871 1.390 . S
C2877 C2874 1.386 . S
C2878 C2873 1.490 . S
C2878 C2880 1.395 . S
C2878 C2881 1.403 . S
H2879 C2885 0.930 . S
C2880 H2866 0.930 . S
C2880 C2878 1.395 . S
C2880 C2883 1.403 . S
C2881 C2878 1.403 . S
C2881 C2882 1.524 . S
C2881 C2885 1.400 . S
C2882 H2867 0.960 . S
C2882 H2868 0.960 . S
C2882 H2869 0.960 . S
C2882 C2881 1.524 . S
C2883 C2880 1.403 . S
C2883 C2884 1.392 . S
C2883 C2887 1.495 1_655 S
C2884 C2883 1.392 . S
C2884 C2885 1.385 . S
C2884 C2886 1.478 . S
C2885 H2879 0.930 . S
C2885 C2881 1.400 . S
C2885 C2884 1.385 . S
C2886 C2884 1.478 . S
C2886 C2888 1.381 . S
C2886 C2892 1.383 . S
C2887 C2883 1.495 1_455 S
C2887 H2893 0.959 . S
C2887 H2894 0.961 . S
C2887 H2895 0.960 . S
C2888 C2886 1.381 . S
C2888 C2889 1.394 . S
C2888 H2896 0.930 . S
C2889 C2888 1.394 . S
C2889 C2890 1.383 . S
C2889 H2897 0.912 1_655 S
C2890 C2889 1.383 . S
C2890 C2891 1.377 . S
C2891 H2875 0.930 . S
C2891 C2890 1.377 . S
C2891 C2892 1.379 . S
C2892 H2876 0.931 . S
C2892 C2886 1.383 . S
C2892 C2891 1.379 . S
H2893 C2887 0.959 . S
H2894 C2887 0.961 . S
H2895 C2887 0.960 . S
H2896 C2888 0.930 . S
H2897 C2889 0.912 1_455 S
H2898 C2906 0.929 . S
H2899 C2908 0.930 . S
H2900 C2910 0.930 . S
H2901 C2913 0.929 . S
H2902 C2916 0.930 . S
H2903 C2918 0.960 . S
H2904 C2918 0.960 . S
H2905 C2918 0.960 . S
C2906 H2898 0.929 . S
C2906 C2907 1.377 . S
C2906 C2908 1.384 . S
C2907 C2906 1.377 . S
C2907 C2913 1.390 . S
C2908 H2899 0.930 . S
C2908 C2906 1.384 . S
C2908 C2909 1.372 . S
C2909 C2908 1.372 . S
C2909 C2910 1.400 . S
C2909 C2914 1.490 . S
C2910 H2900 0.930 . S
C2910 C2909 1.400 . S
C2910 C2913 1.386 . S
H2911 C2927 0.930 . S
H2912 C2928 0.931 . S
C2913 H2901 0.929 . S
C2913 C2907 1.390 . S
C2913 C2910 1.386 . S
C2914 C2909 1.490 . S
C2914 C2916 1.395 . S
C2914 C2917 1.403 . S
H2915 C2921 0.930 . S
C2916 H2902 0.930 . S
C2916 C2914 1.395 . S
C2916 C2919 1.403 . S
C2917 C2914 1.403 . S
C2917 C2918 1.524 . S
C2917 C2921 1.400 . S
C2918 H2903 0.960 . S
C2918 H2904 0.960 . S
C2918 H2905 0.960 . S
C2918 C2917 1.524 . S
C2919 C2916 1.403 . S
C2919 C2920 1.392 . S
C2919 C2923 1.495 . S
C2920 C2919 1.392 . S
C2920 C2921 1.385 . S
C2920 C2922 1.478 . S
C2921 H2915 0.930 . S
C2921 C2917 1.400 . S
C2921 C2920 1.385 . S
C2922 C2920 1.478 . S
C2922 C2924 1.381 . S
C2922 C2928 1.383 . S
C2923 C2919 1.495 . S
C2923 H2929 0.959 . S
C2923 H2930 0.961 . S
C2923 H2931 0.960 . S
C2924 C2922 1.381 . S
C2924 C2925 1.394 . S
C2924 H2932 0.930 . S
C2925 C2924 1.394 . S
C2925 C2926 1.383 . S
C2925 H2933 0.929 . S
C2926 C2925 1.383 . S
C2926 C2927 1.377 . S
C2927 H2911 0.930 . S
C2927 C2926 1.377 . S
C2927 C2928 1.379 . S
C2928 H2912 0.931 . S
C2928 C2922 1.383 . S
C2928 C2927 1.379 . S
H2929 C2923 0.959 . S
H2930 C2923 0.961 . S
H2931 C2923 0.960 . S
H2932 C2924 0.930 . S
H2933 C2925 0.929 . S
H2934 C2942 0.929 . S
H2935 C2944 0.930 . S
H2936 C2946 0.930 . S
H2937 C2949 0.929 . S
H2938 C2952 0.930 . S
H2939 C2954 0.960 . S
H2940 C2954 0.960 . S
H2941 C2954 0.960 . S
C2942 H2934 0.929 . S
C2942 C2943 1.377 . S
C2942 C2944 1.384 . S
C2943 C2942 1.377 . S
C2943 C2949 1.390 . S
C2944 H2935 0.930 . S
C2944 C2942 1.384 . S
C2944 C2945 1.372 . S
C2945 C2944 1.372 . S
C2945 C2946 1.400 . S
C2945 C2950 1.490 . S
C2946 H2936 0.930 . S
C2946 C2945 1.400 . S
C2946 C2949 1.386 . S
H2947 C2963 0.930 1_565 S
H2948 C2964 0.931 . S
C2949 H2937 0.929 . S
C2949 C2943 1.390 . S
C2949 C2946 1.386 . S
C2950 C2945 1.490 . S
C2950 C2952 1.395 . S
C2950 C2953 1.403 . S
H2951 C2957 0.930 . S
C2952 H2938 0.930 . S
C2952 C2950 1.395 . S
C2952 C2955 1.403 . S
C2953 C2950 1.403 . S
C2953 C2954 1.524 . S
C2953 C2957 1.400 . S
C2954 H2939 0.960 . S
C2954 H2940 0.960 . S
C2954 H2941 0.960 . S
C2954 C2953 1.524 . S
C2955 C2952 1.403 . S
C2955 C2956 1.392 . S
C2955 C2959 1.495 . S
C2956 C2955 1.392 . S
C2956 C2957 1.385 . S
C2956 C2958 1.478 . S
C2957 H2951 0.930 . S
C2957 C2953 1.400 . S
C2957 C2956 1.385 . S
C2958 C2956 1.478 . S
C2958 C2960 1.381 . S
C2958 C2964 1.383 . S
C2959 C2955 1.495 . S
C2959 H2965 0.959 . S
C2959 H2966 0.961 . S
C2959 H2967 0.960 . S
C2960 C2958 1.381 . S
C2960 C2961 1.394 . S
C2960 H2968 0.930 . S
C2961 C2960 1.394 . S
C2961 C2962 1.383 . S
C2961 H2969 0.929 . S
C2962 C2961 1.383 . S
C2962 C2963 1.377 . S
C2963 H2947 0.930 1_545 S
C2963 C2962 1.377 . S
C2963 C2964 1.379 . S
C2964 H2948 0.931 . S
C2964 C2958 1.383 . S
C2964 C2963 1.379 . S
H2965 C2959 0.959 . S
H2966 C2959 0.961 . S
H2967 C2959 0.960 . S
H2968 C2960 0.930 . S
H2969 C2961 0.929 . S
H2970 C2978 0.929 . S
H2971 C2980 0.930 . S
H2972 C2982 0.930 . S
H2973 C2985 0.929 . S
H2974 C2988 0.930 . S
H2975 C2990 0.960 . S
H2976 C2990 0.960 . S
H2977 C2990 0.960 . S
C2978 H2970 0.929 . S
C2978 C2979 1.377 . S
C2978 C2980 1.384 . S
C2979 C2978 1.377 . S
C2979 C2985 1.390 . S
C2980 H2971 0.930 . S
C2980 C2978 1.384 . S
C2980 C2981 1.372 . S
C2981 C2980 1.372 . S
C2981 C2982 1.400 . S
C2981 C2986 1.490 . S
C2982 H2972 0.930 . S
C2982 C2981 1.400 . S
C2982 C2985 1.386 . S
H2983 C2999 0.930 . S
H2984 C3000 0.931 . S
C2985 H2973 0.929 . S
C2985 C2979 1.390 . S
C2985 C2982 1.386 . S
C2986 C2981 1.490 . S
C2986 C2988 1.395 . S
C2986 C2989 1.403 . S
H2987 C2993 0.930 . S
C2988 H2974 0.930 . S
C2988 C2986 1.395 . S
C2988 C2991 1.403 . S
C2989 C2986 1.403 . S
C2989 C2990 1.524 . S
C2989 C2993 1.400 . S
C2990 H2975 0.960 . S
C2990 H2976 0.960 . S
C2990 H2977 0.960 . S
C2990 C2989 1.524 . S
C2991 C2988 1.403 . S
C2991 C2992 1.392 . S
C2991 C2995 1.495 . S
C2992 C2991 1.392 . S
C2992 C2993 1.385 . S
C2992 C2994 1.478 . S
C2993 H2987 0.930 . S
C2993 C2989 1.400 . S
C2993 C2992 1.385 . S
C2994 C2992 1.478 . S
C2994 C2996 1.381 . S
C2994 C3000 1.383 . S
C2995 C2991 1.495 . S
C2995 H3001 0.959 . S
C2995 H3002 0.961 . S
C2995 H3003 0.960 . S
C2996 C2994 1.381 . S
C2996 C2997 1.394 . S
C2996 H3004 0.930 . S
C2997 C2996 1.394 . S
C2997 C2998 1.383 . S
C2997 H3005 0.929 . S
C2998 C2997 1.383 . S
C2998 C2999 1.377 . S
C2999 H2983 0.930 . S
C2999 C2998 1.377 . S
C2999 C3000 1.379 . S
C3000 H2984 0.931 . S
C3000 C2994 1.383 . S
C3000 C2999 1.379 . S
H3001 C2995 0.959 . S
H3002 C2995 0.961 . S
H3003 C2995 0.960 . S
H3004 C2996 0.930 . S
H3005 C2997 0.929 . S
H3006 C3014 0.929 . S
H3007 C3016 0.930 . S
H3008 C3018 0.930 . S
H3009 C3021 0.929 . S
H3010 C3024 0.930 . S
H3011 C3026 0.960 . S
H3012 C3026 0.960 . S
H3013 C3026 0.960 . S
C3014 H3006 0.929 . S
C3014 C3015 1.377 . S
C3014 C3016 1.384 . S
C3015 C3014 1.377 . S
C3015 C3021 1.390 . S
C3016 H3007 0.930 . S
C3016 C3014 1.384 . S
C3016 C3017 1.372 . S
C3017 C3016 1.372 . S
C3017 C3018 1.400 . S
C3017 C3022 1.490 . S
C3018 H3008 0.930 . S
C3018 C3017 1.400 . S
C3018 C3021 1.386 . S
H3019 C3035 0.930 . S
H3020 C3036 0.931 . S
C3021 H3009 0.929 . S
C3021 C3015 1.390 . S
C3021 C3018 1.386 . S
C3022 C3017 1.490 . S
C3022 C3024 1.395 . S
C3022 C3025 1.403 . S
H3023 C3029 0.930 . S
C3024 H3010 0.930 . S
C3024 C3022 1.395 . S
C3024 C3027 1.403 . S
C3025 C3022 1.403 . S
C3025 C3026 1.524 . S
C3025 C3029 1.400 . S
C3026 H3011 0.960 . S
C3026 H3012 0.960 . S
C3026 H3013 0.960 . S
C3026 C3025 1.524 . S
C3027 C3024 1.403 . S
C3027 C3028 1.392 . S
C3027 C3031 1.495 . S
C3028 C3027 1.392 . S
C3028 C3029 1.385 . S
C3028 C3030 1.478 . S
C3029 H3023 0.930 . S
C3029 C3025 1.400 . S
C3029 C3028 1.385 . S
C3030 C3028 1.478 . S
C3030 C3032 1.381 . S
C3030 C3036 1.383 . S
C3031 C3027 1.495 . S
C3031 H3037 0.959 . S
C3031 H3038 0.961 . S
C3031 H3039 0.960 . S
C3032 C3030 1.381 . S
C3032 C3033 1.394 . S
C3032 H3040 0.930 . S
C3033 C3032 1.394 . S
C3033 C3034 1.383 . S
C3033 H3041 0.929 . S
C3034 C3033 1.383 . S
C3034 C3035 1.377 . S
C3035 H3019 0.930 . S
C3035 C3034 1.377 . S
C3035 C3036 1.379 . S
C3036 H3020 0.931 . S
C3036 C3030 1.383 . S
C3036 C3035 1.379 . S
H3037 C3031 0.959 . S
H3038 C3031 0.961 . S
H3039 C3031 0.960 . S
H3040 C3032 0.930 . S
H3041 C3033 0.929 . S
H3042 C3050 0.929 . S
H3043 C3052 0.930 . S
H3044 C3054 0.930 . S
H3045 C3057 0.929 . S
H3046 C3060 0.930 . S
H3047 C3062 0.960 . S
H3048 C3062 0.960 . S
H3049 C3062 0.960 . S
C3050 H3042 0.929 . S
C3050 C3051 1.377 . S
C3050 C3052 1.384 . S
C3051 C3050 1.377 . S
C3051 C3057 1.390 . S
C3052 H3043 0.930 . S
C3052 C3050 1.384 . S
C3052 C3053 1.372 . S
C3053 C3052 1.372 . S
C3053 C3054 1.400 . S
C3053 C3058 1.490 . S
C3054 H3044 0.930 . S
C3054 C3053 1.400 . S
C3054 C3057 1.386 . S
H3055 C3071 0.930 . S
H3056 C3072 0.931 . S
C3057 H3045 0.929 . S
C3057 C3051 1.390 . S
C3057 C3054 1.386 . S
C3058 C3053 1.490 . S
C3058 C3060 1.395 . S
C3058 C3061 1.403 . S
H3059 C3065 0.930 . S
C3060 H3046 0.930 . S
C3060 C3058 1.395 . S
C3060 C3063 1.403 . S
C3061 C3058 1.403 . S
C3061 C3062 1.524 . S
C3061 C3065 1.400 . S
C3062 H3047 0.960 . S
C3062 H3048 0.960 . S
C3062 H3049 0.960 . S
C3062 C3061 1.524 . S
C3063 C3060 1.403 . S
C3063 C3064 1.392 . S
C3063 C3067 1.495 . S
C3064 C3063 1.392 . S
C3064 C3065 1.385 . S
C3064 C3066 1.478 . S
C3065 H3059 0.930 . S
C3065 C3061 1.400 . S
C3065 C3064 1.385 . S
C3066 C3064 1.478 . S
C3066 C3068 1.381 . S
C3066 C3072 1.383 . S
C3067 C3063 1.495 . S
C3067 H3073 0.959 . S
C3067 H3074 0.961 . S
C3067 H3075 0.960 . S
C3068 C3066 1.381 . S
C3068 C3069 1.394 . S
C3068 H3076 0.930 . S
C3069 C3068 1.394 . S
C3069 C3070 1.383 . S
C3069 H3077 0.929 . S
C3070 C3069 1.383 . S
C3070 C3071 1.377 . S
C3071 H3055 0.930 . S
C3071 C3070 1.377 . S
C3071 C3072 1.379 . S
C3072 H3056 0.931 . S
C3072 C3066 1.383 . S
C3072 C3071 1.379 . S
H3073 C3067 0.959 . S
H3074 C3067 0.961 . S
H3075 C3067 0.960 . S
H3076 C3068 0.930 . S
H3077 C3069 0.929 . S
H3078 C3086 0.929 . S
H3079 C3088 0.930 . S
H3080 C3090 0.930 . S
H3081 C3093 0.929 . S
H3082 C3096 0.930 . S
H3083 C3098 0.960 . S
H3084 C3098 0.960 . S
H3085 C3098 0.960 . S
C3086 H3078 0.929 . S
C3086 C3087 1.377 . S
C3086 C3088 1.384 . S
C3087 C3086 1.377 . S
C3087 C3093 1.390 . S
C3088 H3079 0.930 . S
C3088 C3086 1.384 . S
C3088 C3089 1.372 . S
C3089 C3088 1.372 . S
C3089 C3090 1.400 . S
C3089 C3094 1.490 . S
C3090 H3080 0.930 . S
C3090 C3089 1.400 . S
C3090 C3093 1.386 . S
H3091 C3107 0.930 . S
H3092 C3108 0.931 . S
C3093 H3081 0.929 . S
C3093 C3087 1.390 . S
C3093 C3090 1.386 . S
C3094 C3089 1.490 . S
C3094 C3096 1.395 . S
C3094 C3097 1.403 . S
H3095 C3101 0.930 . S
C3096 H3082 0.930 . S
C3096 C3094 1.395 . S
C3096 C3099 1.403 . S
C3097 C3094 1.403 . S
C3097 C3098 1.524 . S
C3097 C3101 1.400 . S
C3098 H3083 0.960 . S
C3098 H3084 0.960 . S
C3098 H3085 0.960 . S
C3098 C3097 1.524 . S
C3099 C3096 1.403 . S
C3099 C3100 1.392 . S
C3099 C3103 1.495 . S
C3100 C3099 1.392 . S
C3100 C3101 1.385 . S
C3100 C3102 1.478 . S
C3101 H3095 0.930 . S
C3101 C3097 1.400 . S
C3101 C3100 1.385 . S
C3102 C3100 1.478 . S
C3102 C3104 1.381 . S
C3102 C3108 1.383 . S
C3103 C3099 1.495 . S
C3103 H3109 0.959 . S
C3103 H3110 0.961 . S
C3103 H3111 0.960 . S
C3104 C3102 1.381 . S
C3104 C3105 1.394 . S
C3104 H3112 0.930 . S
C3105 C3104 1.394 . S
C3105 C3106 1.383 . S
C3105 H3113 0.929 . S
C3106 C3105 1.383 . S
C3106 C3107 1.377 . S
C3107 H3091 0.930 . S
C3107 C3106 1.377 . S
C3107 C3108 1.379 . S
C3108 H3092 0.931 . S
C3108 C3102 1.383 . S
C3108 C3107 1.379 . S
H3109 C3103 0.959 . S
H3110 C3103 0.961 . S
H3111 C3103 0.960 . S
H3112 C3104 0.930 . S
H3113 C3105 0.929 . S
H3114 C3122 0.929 . S
H3115 C3124 0.930 . S
H3116 C3126 0.930 . S
H3117 C3129 0.929 . S
H3118 C3132 0.930 . S
H3119 C3134 0.960 . S
H3120 C3134 0.960 . S
H3121 C3134 0.960 . S
C3122 H3114 0.929 . S
C3122 C3123 1.377 . S
C3122 C3124 1.384 . S
C3123 C3122 1.377 . S
C3123 C3129 1.390 . S
C3124 H3115 0.930 . S
C3124 C3122 1.384 . S
C3124 C3125 1.372 . S
C3125 C3124 1.372 . S
C3125 C3126 1.400 . S
C3125 C3130 1.490 . S
C3126 H3116 0.930 . S
C3126 C3125 1.400 . S
C3126 C3129 1.386 . S
H3127 C3143 0.930 . S
H3128 C3144 0.931 . S
C3129 H3117 0.929 . S
C3129 C3123 1.390 . S
C3129 C3126 1.386 . S
C3130 C3125 1.490 . S
C3130 C3132 1.395 . S
C3130 C3133 1.403 . S
H3131 C3137 0.930 . S
C3132 H3118 0.930 . S
C3132 C3130 1.395 . S
C3132 C3135 1.403 . S
C3133 C3130 1.403 . S
C3133 C3134 1.524 . S
C3133 C3137 1.400 . S
C3134 H3119 0.960 . S
C3134 H3120 0.960 . S
C3134 H3121 0.960 . S
C3134 C3133 1.524 . S
C3135 C3132 1.403 . S
C3135 C3136 1.392 . S
C3135 C3139 1.495 . S
C3136 C3135 1.392 . S
C3136 C3137 1.385 . S
C3136 C3138 1.478 . S
C3137 H3131 0.930 . S
C3137 C3133 1.400 . S
C3137 C3136 1.385 . S
C3138 C3136 1.478 . S
C3138 C3140 1.381 . S
C3138 C3144 1.383 . S
C3139 C3135 1.495 . S
C3139 H3145 0.959 . S
C3139 H3146 0.961 . S
C3139 H3147 0.960 . S
C3140 C3138 1.381 . S
C3140 C3141 1.394 . S
C3140 H3148 0.930 . S
C3141 C3140 1.394 . S
C3141 C3142 1.383 . S
C3141 H3149 0.929 . S
C3142 C3141 1.383 . S
C3142 C3143 1.377 . S
C3143 H3127 0.930 . S
C3143 C3142 1.377 . S
C3143 C3144 1.379 . S
C3144 H3128 0.931 . S
C3144 C3138 1.383 . S
C3144 C3143 1.379 . S
H3145 C3139 0.959 . S
H3146 C3139 0.961 . S
H3147 C3139 0.960 . S
H3148 C3140 0.930 . S
H3149 C3141 0.929 . S
H3150 C3158 0.929 . S
H3151 C3160 0.930 . S
H3152 C3162 0.930 . S
H3153 C3165 0.929 . S
H3154 C3168 0.930 . S
H3155 C3170 0.960 . S
H3156 C3170 0.960 . S
H3157 C3170 0.960 . S
C3158 H3150 0.929 . S
C3158 C3159 1.377 . S
C3158 C3160 1.384 . S
C3159 C3158 1.377 . S
C3159 C3165 1.390 . S
C3160 H3151 0.930 . S
C3160 C3158 1.384 . S
C3160 C3161 1.372 . S
C3161 C3160 1.372 . S
C3161 C3162 1.400 . S
C3161 C3166 1.490 . S
C3162 H3152 0.930 . S
C3162 C3161 1.400 . S
C3162 C3165 1.386 . S
H3163 C3179 0.930 . S
H3164 C3180 0.931 . S
C3165 H3153 0.929 . S
C3165 C3159 1.390 . S
C3165 C3162 1.386 . S
C3166 C3161 1.490 . S
C3166 C3168 1.395 . S
C3166 C3169 1.403 . S
H3167 C3173 0.930 . S
C3168 H3154 0.930 . S
C3168 C3166 1.395 . S
C3168 C3171 1.403 . S
C3169 C3166 1.403 . S
C3169 C3170 1.524 . S
C3169 C3173 1.400 . S
C3170 H3155 0.960 . S
C3170 H3156 0.960 . S
C3170 H3157 0.960 . S
C3170 C3169 1.524 . S
C3171 C3168 1.403 . S
C3171 C3172 1.392 . S
C3171 C3175 1.495 . S
C3172 C3171 1.392 . S
C3172 C3173 1.385 . S
C3172 C3174 1.478 . S
C3173 H3167 0.930 . S
C3173 C3169 1.400 . S
C3173 C3172 1.385 . S
C3174 C3172 1.478 . S
C3174 C3176 1.381 . S
C3174 C3180 1.383 . S
C3175 C3171 1.495 . S
C3175 H3181 0.959 . S
C3175 H3182 0.961 . S
C3175 H3183 0.960 . S
C3176 C3174 1.381 . S
C3176 C3177 1.394 . S
C3176 H3184 0.930 . S
C3177 C3176 1.394 . S
C3177 C3178 1.383 . S
C3177 H3185 0.929 . S
C3178 C3177 1.383 . S
C3178 C3179 1.377 . S
C3179 H3163 0.930 . S
C3179 C3178 1.377 . S
C3179 C3180 1.379 . S
C3180 H3164 0.931 . S
C3180 C3174 1.383 . S
C3180 C3179 1.379 . S
H3181 C3175 0.959 . S
H3182 C3175 0.961 . S
H3183 C3175 0.960 . S
H3184 C3176 0.930 . S
H3185 C3177 0.929 . S
H3186 C3194 0.929 . S
H3187 C3196 0.930 . S
H3188 C3198 0.930 . S
H3189 C3201 0.929 . S
H3190 C3204 0.930 . S
H3191 C3206 0.960 . S
H3192 C3206 0.960 . S
H3193 C3206 0.960 . S
C3194 H3186 0.929 . S
C3194 C3195 1.377 . S
C3194 C3196 1.384 . S
C3195 C3194 1.377 . S
C3195 C3201 1.390 . S
C3196 H3187 0.930 . S
C3196 C3194 1.384 . S
C3196 C3197 1.372 . S
C3197 C3196 1.372 . S
C3197 C3198 1.400 . S
C3197 C3202 1.490 . S
C3198 H3188 0.930 . S
C3198 C3197 1.400 . S
C3198 C3201 1.386 . S
H3199 C3215 0.930 . S
H3200 C3216 0.931 . S
C3201 H3189 0.929 . S
C3201 C3195 1.390 . S
C3201 C3198 1.386 . S
C3202 C3197 1.490 . S
C3202 C3204 1.395 . S
C3202 C3205 1.403 . S
H3203 C3209 0.930 . S
C3204 H3190 0.930 . S
C3204 C3202 1.395 . S
C3204 C3207 1.403 . S
C3205 C3202 1.403 . S
C3205 C3206 1.524 . S
C3205 C3209 1.400 . S
C3206 H3191 0.960 . S
C3206 H3192 0.960 . S
C3206 H3193 0.960 . S
C3206 C3205 1.524 . S
C3207 C3204 1.403 . S
C3207 C3208 1.392 . S
C3207 C3211 1.495 . S
C3208 C3207 1.392 . S
C3208 C3209 1.385 . S
C3208 C3210 1.478 . S
C3209 H3203 0.930 . S
C3209 C3205 1.400 . S
C3209 C3208 1.385 . S
C3210 C3208 1.478 . S
C3210 C3212 1.381 . S
C3210 C3216 1.383 . S
C3211 C3207 1.495 . S
C3211 H3217 0.959 . S
C3211 H3218 0.961 . S
C3211 H3219 0.960 . S
C3212 C3210 1.381 . S
C3212 C3213 1.394 . S
C3212 H3220 0.930 . S
C3213 C3212 1.394 . S
C3213 C3214 1.383 . S
C3213 H3221 0.929 . S
C3214 C3213 1.383 . S
C3214 C3215 1.377 . S
C3215 H3199 0.930 . S
C3215 C3214 1.377 . S
C3215 C3216 1.379 . S
C3216 H3200 0.931 . S
C3216 C3210 1.383 . S
C3216 C3215 1.379 . S
H3217 C3211 0.959 . S
H3218 C3211 0.961 . S
H3219 C3211 0.960 . S
H3220 C3212 0.930 . S
H3221 C3213 0.929 . S
H3222 C3230 0.929 . S
H3223 C3232 0.930 . S
H3224 C3234 0.930 . S
H3225 C3237 0.929 . S
H3226 C3240 0.930 . S
H3227 C3242 0.960 . S
H3228 C3242 0.960 . S
H3229 C3242 0.960 . S
C3230 H3222 0.929 . S
C3230 C3231 1.377 . S
C3230 C3232 1.384 . S
C3231 C3230 1.377 . S
C3231 C3237 1.390 . S
C3232 H3223 0.930 . S
C3232 C3230 1.384 . S
C3232 C3233 1.372 . S
C3233 C3232 1.372 . S
C3233 C3234 1.400 . S
C3233 C3238 1.490 . S
C3234 H3224 0.930 . S
C3234 C3233 1.400 . S
C3234 C3237 1.386 . S
H3235 C3251 0.930 . S
H3236 C3252 0.931 . S
C3237 H3225 0.929 . S
C3237 C3231 1.390 . S
C3237 C3234 1.386 . S
C3238 C3233 1.490 . S
C3238 C3240 1.395 . S
C3238 C3241 1.403 . S
H3239 C3245 0.930 . S
C3240 H3226 0.930 . S
C3240 C3238 1.395 . S
C3240 C3243 1.403 . S
C3241 C3238 1.403 . S
C3241 C3242 1.524 . S
C3241 C3245 1.400 . S
C3242 H3227 0.960 . S
C3242 H3228 0.960 . S
C3242 H3229 0.960 . S
C3242 C3241 1.524 . S
C3243 C3240 1.403 . S
C3243 C3244 1.392 . S
C3243 C3247 1.495 . S
C3244 C3243 1.392 . S
C3244 C3245 1.385 . S
C3244 C3246 1.478 . S
C3245 H3239 0.930 . S
C3245 C3241 1.400 . S
C3245 C3244 1.385 . S
C3246 C3244 1.478 . S
C3246 C3248 1.381 . S
C3246 C3252 1.383 . S
C3247 C3243 1.495 . S
C3247 H3253 0.959 . S
C3247 H3254 0.961 . S
C3247 H3255 0.960 . S
C3248 C3246 1.381 . S
C3248 C3249 1.394 . S
C3248 H3256 0.930 . S
C3249 C3248 1.394 . S
C3249 C3250 1.383 . S
C3249 H3257 0.929 . S
C3250 C3249 1.383 . S
C3250 C3251 1.377 . S
C3251 H3235 0.930 . S
C3251 C3250 1.377 . S
C3251 C3252 1.379 . S
C3252 H3236 0.931 . S
C3252 C3246 1.383 . S
C3252 C3251 1.379 . S
H3253 C3247 0.959 . S
H3254 C3247 0.961 . S
H3255 C3247 0.960 . S
H3256 C3248 0.930 . S
H3257 C3249 0.929 . S
H3258 C3266 0.929 . S
H3259 C3268 0.930 . S
H3260 C3270 0.930 . S
H3261 C3273 0.929 . S
H3262 C3276 0.930 . S
H3263 C3278 0.960 . S
H3264 C3278 0.960 . S
H3265 C3278 0.960 . S
C3266 H3258 0.929 . S
C3266 C3267 1.377 . S
C3266 C3268 1.384 . S
C3267 C3266 1.377 . S
C3267 C3273 1.390 . S
C3268 H3259 0.930 . S
C3268 C3266 1.384 . S
C3268 C3269 1.372 . S
C3269 C3268 1.372 . S
C3269 C3270 1.400 . S
C3269 C3274 1.490 . S
C3270 H3260 0.930 . S
C3270 C3269 1.400 . S
C3270 C3273 1.386 . S
H3271 C3287 0.930 . S
H3272 C3288 0.931 . S
C3273 H3261 0.929 . S
C3273 C3267 1.390 . S
C3273 C3270 1.386 . S
C3274 C3269 1.490 . S
C3274 C3276 1.395 . S
C3274 C3277 1.403 . S
H3275 C3281 0.930 . S
C3276 H3262 0.930 . S
C3276 C3274 1.395 . S
C3276 C3279 1.403 . S
C3277 C3274 1.403 . S
C3277 C3278 1.524 . S
C3277 C3281 1.400 . S
C3278 H3263 0.960 . S
C3278 H3264 0.960 . S
C3278 H3265 0.960 . S
C3278 C3277 1.524 . S
C3279 C3276 1.403 . S
C3279 C3280 1.392 . S
C3279 C3283 1.495 . S
C3280 C3279 1.392 . S
C3280 C3281 1.385 . S
C3280 C3282 1.478 . S
C3281 H3275 0.930 . S
C3281 C3277 1.400 . S
C3281 C3280 1.385 . S
C3282 C3280 1.478 . S
C3282 C3284 1.381 . S
C3282 C3288 1.383 . S
C3283 C3279 1.495 . S
C3283 H3289 0.959 . S
C3283 H3290 0.961 . S
C3283 H3291 0.960 . S
C3284 C3282 1.381 . S
C3284 C3285 1.394 . S
C3284 H3292 0.930 . S
C3285 C3284 1.394 . S
C3285 C3286 1.383 . S
C3285 H3293 0.929 . S
C3286 C3285 1.383 . S
C3286 C3287 1.377 . S
C3287 H3271 0.930 . S
C3287 C3286 1.377 . S
C3287 C3288 1.379 . S
C3288 H3272 0.931 . S
C3288 C3282 1.383 . S
C3288 C3287 1.379 . S
H3289 C3283 0.959 . S
H3290 C3283 0.961 . S
H3291 C3283 0.960 . S
H3292 C3284 0.930 . S
H3293 C3285 0.929 . S
H3294 C3302 0.929 . S
H3295 C3304 0.930 . S
H3296 C3306 0.930 . S
H3297 C3309 0.929 . S
H3298 C3312 0.930 . S
H3299 C3314 0.960 . S
H3300 C3314 0.960 . S
H3301 C3314 0.960 . S
C3302 H3294 0.929 . S
C3302 C3303 1.377 . S
C3302 C3304 1.384 . S
C3303 C3302 1.377 . S
C3303 C3309 1.390 . S
C3304 H3295 0.930 . S
C3304 C3302 1.384 . S
C3304 C3305 1.372 . S
C3305 C3304 1.372 . S
C3305 C3306 1.400 . S
C3305 C3310 1.490 . S
C3306 H3296 0.930 . S
C3306 C3305 1.400 . S
C3306 C3309 1.386 . S
H3307 C3323 0.930 . S
H3308 C3324 0.931 . S
C3309 H3297 0.929 . S
C3309 C3303 1.390 . S
C3309 C3306 1.386 . S
C3310 C3305 1.490 . S
C3310 C3312 1.395 . S
C3310 C3313 1.403 . S
H3311 C3317 0.930 . S
C3312 H3298 0.930 . S
C3312 C3310 1.395 . S
C3312 C3315 1.403 . S
C3313 C3310 1.403 . S
C3313 C3314 1.524 . S
C3313 C3317 1.400 . S
C3314 H3299 0.960 . S
C3314 H3300 0.960 . S
C3314 H3301 0.960 . S
C3314 C3313 1.524 . S
C3315 C3312 1.403 . S
C3315 C3316 1.392 . S
C3315 C3319 1.495 . S
C3316 C3315 1.392 . S
C3316 C3317 1.385 . S
C3316 C3318 1.478 . S
C3317 H3311 0.930 . S
C3317 C3313 1.400 . S
C3317 C3316 1.385 . S
C3318 C3316 1.478 . S
C3318 C3320 1.381 . S
C3318 C3324 1.383 . S
C3319 C3315 1.495 . S
C3319 H3325 0.959 . S
C3319 H3326 0.961 . S
C3319 H3327 0.960 . S
C3320 C3318 1.381 . S
C3320 C3321 1.394 . S
C3320 H3328 0.930 . S
C3321 C3320 1.394 . S
C3321 C3322 1.383 . S
C3321 H3329 0.929 . S
C3322 C3321 1.383 . S
C3322 C3323 1.377 . S
C3323 H3307 0.930 . S
C3323 C3322 1.377 . S
C3323 C3324 1.379 . S
C3324 H3308 0.931 . S
C3324 C3318 1.383 . S
C3324 C3323 1.379 . S
H3325 C3319 0.959 . S
H3326 C3319 0.961 . S
H3327 C3319 0.960 . S
H3328 C3320 0.930 . S
H3329 C3321 0.929 . S
H3330 C3338 0.929 . S
H3331 C3340 0.930 . S
H3332 C3342 0.930 . S
H3333 C3345 0.929 . S
H3334 C3348 0.930 . S
H3335 C3350 0.960 . S
H3336 C3350 0.960 . S
H3337 C3350 0.960 . S
C3338 H3330 0.929 . S
C3338 C3339 1.377 . S
C3338 C3340 1.384 . S
C3339 C3338 1.377 . S
C3339 C3345 1.390 . S
C3340 H3331 0.930 . S
C3340 C3338 1.384 . S
C3340 C3341 1.372 . S
C3341 C3340 1.372 . S
C3341 C3342 1.400 . S
C3341 C3346 1.490 . S
C3342 H3332 0.930 . S
C3342 C3341 1.400 . S
C3342 C3345 1.386 . S
H3343 C3359 0.930 . S
H3344 C3360 0.931 . S
C3345 H3333 0.929 . S
C3345 C3339 1.390 . S
C3345 C3342 1.386 . S
C3346 C3341 1.490 . S
C3346 C3348 1.395 . S
C3346 C3349 1.403 . S
H3347 C3353 0.930 . S
C3348 H3334 0.930 . S
C3348 C3346 1.395 . S
C3348 C3351 1.403 . S
C3349 C3346 1.403 . S
C3349 C3350 1.524 . S
C3349 C3353 1.400 . S
C3350 H3335 0.960 . S
C3350 H3336 0.960 . S
C3350 H3337 0.960 . S
C3350 C3349 1.524 . S
C3351 C3348 1.403 . S
C3351 C3352 1.392 . S
C3351 C3355 1.495 . S
C3352 C3351 1.392 . S
C3352 C3353 1.385 . S
C3352 C3354 1.478 . S
C3353 H3347 0.930 . S
C3353 C3349 1.400 . S
C3353 C3352 1.385 . S
C3354 C3352 1.478 . S
C3354 C3356 1.381 . S
C3354 C3360 1.383 . S
C3355 C3351 1.495 . S
C3355 H3361 0.959 . S
C3355 H3362 0.961 . S
C3355 H3363 0.960 . S
C3356 C3354 1.381 . S
C3356 C3357 1.394 . S
C3356 H3364 0.930 . S
C3357 C3356 1.394 . S
C3357 C3358 1.383 . S
C3357 H3365 0.929 . S
C3358 C3357 1.383 . S
C3358 C3359 1.377 . S
C3359 H3343 0.930 . S
C3359 C3358 1.377 . S
C3359 C3360 1.379 . S
C3360 H3344 0.931 . S
C3360 C3354 1.383 . S
C3360 C3359 1.379 . S
H3361 C3355 0.959 . S
H3362 C3355 0.961 . S
H3363 C3355 0.960 . S
H3364 C3356 0.930 . S
H3365 C3357 0.929 . S
H3366 C3374 0.929 . S
H3367 C3376 0.930 . S
H3368 C3378 0.930 . S
H3369 C3381 0.929 . S
H3370 C3384 0.930 . S
H3371 C3386 0.960 . S
H3372 C3386 0.960 . S
H3373 C3386 0.960 . S
C3374 H3366 0.929 . S
C3374 C3375 1.377 . S
C3374 C3376 1.384 . S
C3375 C3374 1.377 . S
C3375 C3381 1.390 . S
C3376 H3367 0.930 . S
C3376 C3374 1.384 . S
C3376 C3377 1.372 . S
C3377 C3376 1.372 . S
C3377 C3378 1.400 . S
C3377 C3382 1.490 . S
C3378 H3368 0.930 . S
C3378 C3377 1.400 . S
C3378 C3381 1.386 . S
H3379 C3395 0.930 . S
H3380 C3396 0.931 . S
C3381 H3369 0.929 . S
C3381 C3375 1.390 . S
C3381 C3378 1.386 . S
C3382 C3377 1.490 . S
C3382 C3384 1.395 . S
C3382 C3385 1.403 . S
H3383 C3389 0.930 . S
C3384 H3370 0.930 . S
C3384 C3382 1.395 . S
C3384 C3387 1.403 . S
C3385 C3382 1.403 . S
C3385 C3386 1.524 . S
C3385 C3389 1.400 . S
C3386 H3371 0.960 . S
C3386 H3372 0.960 . S
C3386 H3373 0.960 . S
C3386 C3385 1.524 . S
C3387 C3384 1.403 . S
C3387 C3388 1.392 . S
C3387 C3391 1.495 . S
C3388 C3387 1.392 . S
C3388 C3389 1.385 . S
C3388 C3390 1.478 . S
C3389 H3383 0.930 . S
C3389 C3385 1.400 . S
C3389 C3388 1.385 . S
C3390 C3388 1.478 . S
C3390 C3392 1.381 . S
C3390 C3396 1.383 . S
C3391 C3387 1.495 . S
C3391 H3397 0.959 . S
C3391 H3398 0.961 . S
C3391 H3399 0.960 . S
C3392 C3390 1.381 . S
C3392 C3393 1.394 . S
C3392 H3400 0.930 . S
C3393 C3392 1.394 . S
C3393 C3394 1.383 . S
C3393 H3401 0.929 . S
C3394 C3393 1.383 . S
C3394 C3395 1.377 . S
C3395 H3379 0.930 . S
C3395 C3394 1.377 . S
C3395 C3396 1.379 . S
C3396 H3380 0.931 . S
C3396 C3390 1.383 . S
C3396 C3395 1.379 . S
H3397 C3391 0.959 . S
H3398 C3391 0.961 . S
H3399 C3391 0.960 . S
H3400 C3392 0.930 . S
H3401 C3393 0.929 . S
C1467 C528 1.388 . S
C1486 C769 1.290 . S
C1503 C562 1.472 . S
C1522 C853 1.364 . S
C1539 C484 1.448 . S
C1558 C933 1.427 . S
C1575 C445 1.399 . S
C1594 C849 1.386 . S
C1630 C937 1.302 . S
C1611 C367 1.397 . S
C1647 C411 1.352 . S
C1666 C765 1.286 . S
C1702 C758 1.303 . S
C1683 C450 1.405 . S
C1738 C842 1.388 . S
C1719 C372 1.451 . S
C1755 C406 1.446 . S
C1774 C944 1.430 . S
C1791 C523 1.396 . S
C1810 C860 1.337 . S
C1827 C567 1.378 . S
C1846 C926 1.337 . S
C1882 C776 1.306 . S
C1863 C489 1.368 . S
C1918 C1021 1.276 . S
C1899 C60 1.389 . S
C1935 C94 1.470 . S
C1954 C1105 1.382 . S
C1971 C16 1.448 . S
C1990 C1185 1.418 . S
C2007 C679 1.399 . S
C2026 C1101 1.336 . S
C2043 C601 1.397 . S
C2062 C1189 1.323 . S
C2079 C645 1.352 . S
C2098 C1017 1.293 . S
C2115 C684 1.407 . S
C2134 C1010 1.340 . S
C2151 C606 1.451 . S
C2170 C1094 1.399 . S
C2206 C1196 1.408 . S
C2187 C640 1.447 . S
C2223 C55 1.397 . S
C2242 C1112 1.377 . S
C2278 C1178 1.324 . S
C2259 C99 1.377 . S
C2295 C21 1.368 . S
C2314 C1028 1.306 . S
C2350 C1273 1.304 . S
C2331 C294 1.388 . S
C2367 C328 1.471 . S
C2386 C1357 1.364 . S
C2422 C1437 1.399 . S
C2403 C250 1.448 . S
C2458 C1353 1.336 . S
C2439 C211 1.399 . S
C2494 C1441 1.296 . S
C2475 C133 1.399 . S
C2511 C177 1.352 . S
C2530 C1269 1.285 . S
C2547 C216 1.407 . S
C2566 C1262 1.338 . S
C2583 C138 1.451 . S
C2602 C1346 1.399 . S
C2638 C1448 1.419 . S
C2619 C172 1.447 . S
C2655 C289 1.398 . S
C2674 C1364 1.382 . S
C2691 C333 1.378 . S
C2710 C1430 1.337 . S
C2727 C255 1.368 . S
C2746 C1280 1.325 . S
C2763 C586 1.432 . S
C2782 C772 1.267 . S
C2818 C856 1.362 . S
C2799 C625 1.483 . S
C2835 C664 1.455 . S
C2854 C928 1.304 . S
C2871 C235 1.499 . S
C2890 C844 1.306 . S
C2907 C274 1.440 . S
C2926 C940 1.305 . S
C2962 C760 1.337 . S
C2943 C313 1.432 . S
C2979 C118 1.432 . S
C2998 C1024 1.349 . S
C3015 C157 1.483 . S
C3034 C1108 1.308 . S
C3051 C196 1.457 . S
C3070 C1180 1.282 . S
C3087 C469 1.499 . S
C3106 C1096 1.306 . S
C3142 C1192 1.328 . S
C3123 C508 1.440 . S
C3159 C547 1.432 . S
C3178 C1012 1.285 . S
C3195 C352 1.432 . S
C3214 C1276 1.268 . S
C3231 C391 1.482 . S
C3250 C1360 1.317 . S
C3286 C1432 1.325 . S
C3267 C430 1.457 . S
C3303 C1 1.499 . S
C3322 C1348 1.376 . S
C3339 C40 1.440 . S
C3358 C1444 1.348 . S
C3375 C79 1.432 . S
C3394 C1264 1.277 . S
