# Generated by pormake.
# Topology ssc, (4,4)-cn, num edge types: 1
# Building blocks:
#     Node 0, Type 0, BuildingBlock: QUQFOY_clean_sbu_3, # of connection points: 4
#     Node 1, Type 0, BuildingBlock: QUQFOY_clean_sbu_3, # of connection points: 4
#     Node 2, Type 0, BuildingBlock: QUQFOY_clean_sbu_3, # of connection points: 4
#     Node 3, Type 0, BuildingBlock: QUQFOY_clean_sbu_3, # of connection points: 4
#     Node 4, Type 0, BuildingBlock: QUQFOY_clean_sbu_3, # of connection points: 4
#     Node 5, Type 0, BuildingBlock: QUQFOY_clean_sbu_3, # of connection points: 4
#     Node 6, Type 0, BuildingBlock: QUQFOY_clean_sbu_3, # of connection points: 4
#     Node 7, Type 0, BuildingBlock: QUQFOY_clean_sbu_3, # of connection points: 4
#     Node 8, Type 0, BuildingBlock: QUQFOY_clean_sbu_3, # of connection points: 4
#     Node 9, Type 0, BuildingBlock: QUQFOY_clean_sbu_3, # of connection points: 4
#     Node 10, Type 0, BuildingBlock: QUQFOY_clean_sbu_3, # of connection points: 4
#     Node 11, Type 0, BuildingBlock: QUQFOY_clean_sbu_3, # of connection points: 4
#     Node 12, Type 1, BuildingBlock: KUFVIS_clean_linker_0, # of connection points: 4
#     Node 13, Type 1, BuildingBlock: KUFVIS_clean_linker_0, # of connection points: 4
#     Node 14, Type 1, BuildingBlock: KUFVIS_clean_linker_0, # of connection points: 4
#     Node 15, Type 1, BuildingBlock: KUFVIS_clean_linker_0, # of connection points: 4
#     Node 16, Type 1, BuildingBlock: KUFVIS_clean_linker_0, # of connection points: 4
#     Node 17, Type 1, BuildingBlock: KUFVIS_clean_linker_0, # of connection points: 4
#     Node 18, Type 1, BuildingBlock: KUFVIS_clean_linker_0, # of connection points: 4
#     Node 19, Type 1, BuildingBlock: KUFVIS_clean_linker_0, # of connection points: 4
#     Node 20, Type 1, BuildingBlock: KUFVIS_clean_linker_0, # of connection points: 4
#     Node 21, Type 1, BuildingBlock: KUFVIS_clean_linker_0, # of connection points: 4
#     Node 22, Type 1, BuildingBlock: KUFVIS_clean_linker_0, # of connection points: 4
#     Node 23, Type 1, BuildingBlock: KUFVIS_clean_linker_0, # of connection points: 4
#     Edge 24, Type (0, 1), BuildingBlock: ZUJKAS_clean_linker_0, # of connection points: 2
#     Edge 25, Type (0, 1), BuildingBlock: ZUJKAS_clean_linker_0, # of connection points: 2
#     Edge 26, Type (0, 1), BuildingBlock: ZUJKAS_clean_linker_0, # of connection points: 2
#     Edge 27, Type (0, 1), BuildingBlock: ZUJKAS_clean_linker_0, # of connection points: 2
#     Edge 28, Type (0, 1), BuildingBlock: ZUJKAS_clean_linker_0, # of connection points: 2
#     Edge 29, Type (0, 1), BuildingBlock: ZUJKAS_clean_linker_0, # of connection points: 2
#     Edge 30, Type (0, 1), BuildingBlock: ZUJKAS_clean_linker_0, # of connection points: 2
#     Edge 31, Type (0, 1), BuildingBlock: ZUJKAS_clean_linker_0, # of connection points: 2
#     Edge 32, Type (0, 1), BuildingBlock: ZUJKAS_clean_linker_0, # of connection points: 2
#     Edge 33, Type (0, 1), BuildingBlock: ZUJKAS_clean_linker_0, # of connection points: 2
#     Edge 34, Type (0, 1), BuildingBlock: ZUJKAS_clean_linker_0, # of connection points: 2
#     Edge 35, Type (0, 1), BuildingBlock: ZUJKAS_clean_linker_0, # of connection points: 2
#     Edge 36, Type (0, 1), BuildingBlock: ZUJKAS_clean_linker_0, # of connection points: 2
#     Edge 37, Type (0, 1), BuildingBlock: ZUJKAS_clean_linker_0, # of connection points: 2
#     Edge 38, Type (0, 1), BuildingBlock: ZUJKAS_clean_linker_0, # of connection points: 2
#     Edge 39, Type (0, 1), BuildingBlock: ZUJKAS_clean_linker_0, # of connection points: 2
#     Edge 40, Type (0, 1), BuildingBlock: ZUJKAS_clean_linker_0, # of connection points: 2
#     Edge 41, Type (0, 1), BuildingBlock: ZUJKAS_clean_linker_0, # of connection points: 2
#     Edge 42, Type (0, 1), BuildingBlock: ZUJKAS_clean_linker_0, # of connection points: 2
#     Edge 43, Type (0, 1), BuildingBlock: ZUJKAS_clean_linker_0, # of connection points: 2
#     Edge 44, Type (0, 1), BuildingBlock: ZUJKAS_clean_linker_0, # of connection points: 2
#     Edge 45, Type (0, 1), BuildingBlock: ZUJKAS_clean_linker_0, # of connection points: 2
#     Edge 46, Type (0, 1), BuildingBlock: ZUJKAS_clean_linker_0, # of connection points: 2
#     Edge 47, Type (0, 1), BuildingBlock: ZUJKAS_clean_linker_0, # of connection points: 2
#     Edge 48, Type (0, 1), BuildingBlock: ZUJKAS_clean_linker_0, # of connection points: 2
#     Edge 49, Type (0, 1), BuildingBlock: ZUJKAS_clean_linker_0, # of connection points: 2
#     Edge 50, Type (0, 1), BuildingBlock: ZUJKAS_clean_linker_0, # of connection points: 2
#     Edge 51, Type (0, 1), BuildingBlock: ZUJKAS_clean_linker_0, # of connection points: 2
#     Edge 52, Type (0, 1), BuildingBlock: ZUJKAS_clean_linker_0, # of connection points: 2
#     Edge 53, Type (0, 1), BuildingBlock: ZUJKAS_clean_linker_0, # of connection points: 2
#     Edge 54, Type (0, 1), BuildingBlock: ZUJKAS_clean_linker_0, # of connection points: 2
#     Edge 55, Type (0, 1), BuildingBlock: ZUJKAS_clean_linker_0, # of connection points: 2
#     Edge 56, Type (0, 1), BuildingBlock: ZUJKAS_clean_linker_0, # of connection points: 2
#     Edge 57, Type (0, 1), BuildingBlock: ZUJKAS_clean_linker_0, # of connection points: 2
#     Edge 58, Type (0, 1), BuildingBlock: ZUJKAS_clean_linker_0, # of connection points: 2
#     Edge 59, Type (0, 1), BuildingBlock: ZUJKAS_clean_linker_0, # of connection points: 2
#     Edge 60, Type (0, 1), BuildingBlock: ZUJKAS_clean_linker_0, # of connection points: 2
#     Edge 61, Type (0, 1), BuildingBlock: ZUJKAS_clean_linker_0, # of connection points: 2
#     Edge 62, Type (0, 1), BuildingBlock: ZUJKAS_clean_linker_0, # of connection points: 2
#     Edge 63, Type (0, 1), BuildingBlock: ZUJKAS_clean_linker_0, # of connection points: 2
#     Edge 64, Type (0, 1), BuildingBlock: ZUJKAS_clean_linker_0, # of connection points: 2
#     Edge 65, Type (0, 1), BuildingBlock: ZUJKAS_clean_linker_0, # of connection points: 2
#     Edge 66, Type (0, 1), BuildingBlock: ZUJKAS_clean_linker_0, # of connection points: 2
#     Edge 67, Type (0, 1), BuildingBlock: ZUJKAS_clean_linker_0, # of connection points: 2
#     Edge 68, Type (0, 1), BuildingBlock: ZUJKAS_clean_linker_0, # of connection points: 2
#     Edge 69, Type (0, 1), BuildingBlock: ZUJKAS_clean_linker_0, # of connection points: 2
#     Edge 70, Type (0, 1), BuildingBlock: ZUJKAS_clean_linker_0, # of connection points: 2
#     Edge 71, Type (0, 1), BuildingBlock: ZUJKAS_clean_linker_0, # of connection points: 2
# Relax obj value: 0.126
# Max RMSD: 0.298
# Mean RMSD: 0.275
data_MOF--net-ssc--node1-QUQFOY_clean_sbu_3--node2-KUFVIS_clean_linker_0--edge1-ZUJKAS_clean_linker_0
_symmetry_space_group_name_H-M    P1
_symmetry_Int_Tables_number       1
_symmetry_cell_setting            triclinic
loop_
_symmetry_equiv_pos_as_xyz
'x, y, z'
_cell_length_a     40.293047
_cell_length_b     40.468496
_cell_length_c     40.356858
_cell_angle_alpha  92.577123
_cell_angle_beta   90.133633
_cell_angle_gamma 90.781815
loop_
_atom_site_label
_atom_site_type_symbol
_atom_site_fract_x
_atom_site_fract_y
_atom_site_fract_z
_atom_type_partial_charge
C0 C 0.05686 0.20492 0.21275 0.0
O1 O 0.05546 0.17362 0.20886 0.0
Cd2 Cd 0.02638 0.14502 0.16476 0.0
O3 O 0.04172 0.22322 0.19279 0.0
Cd4 Cd 0.00611 0.21594 0.1421 0.0
C5 C 0.94738 0.17101 0.18122 0.0
O6 O 0.04296 0.17413 0.11744 0.0
O7 O -0.00268 0.18114 0.09112 0.0
O8 O 0.02991 0.26893 0.12496 0.0
C9 C 0.02553 0.16775 0.09185 0.0
O10 O 0.96781 0.14731 0.17897 0.0
C11 C 0.00334 0.27902 0.11205 0.0
O12 O 0.95554 0.19957 0.17169 0.0
O13 O 0.97783 0.26056 0.11449 0.0
C14 C 0.07854 0.7016 0.30161 0.0
O15 O 0.07764 0.73219 0.29591 0.0
Cd16 Cd 0.04348 0.77076 0.32609 0.0
O17 O 0.06001 0.68958 0.32379 0.0
Cd18 Cd 0.01805 0.70909 0.36522 0.0
C19 C 0.96499 0.73998 0.30892 0.0
O20 O 0.05202 0.75771 0.38274 0.0
O21 O 0.00441 0.75364 0.40639 0.0
O22 O 0.03975 0.66584 0.39931 0.0
C23 C 0.03201 0.76882 0.40448 0.0
O24 O 0.98682 0.76263 0.30571 0.0
C25 C 0.01171 0.65416 0.40751 0.0
O26 O 0.97035 0.71623 0.32779 0.0
O27 O 0.98635 0.66757 0.39547 0.0
C28 C 0.53197 0.73428 0.7132 0.0
O29 O 0.52892 0.7032 0.70825 0.0
Cd30 Cd 0.49462 0.67568 0.66757 0.0
O31 O 0.51647 0.75401 0.69493 0.0
Cd32 Cd 0.47751 0.74787 0.64593 0.0
C33 C 0.41979 0.70981 0.69128 0.0
O34 O 0.50525 0.70167 0.6172 0.0
O35 O 0.45417 0.70794 0.60358 0.0
O36 O 0.50481 0.79309 0.61713 0.0
C37 C 0.48141 0.69343 0.59804 0.0
O38 O 0.43791 0.68444 0.68676 0.0
C39 C 0.47842 0.80812 0.61015 0.0
O40 O 0.4293 0.73793 0.68156 0.0
O41 O 0.45154 0.79609 0.62113 0.0
C42 C 0.54748 0.2512 0.78663 0.0
O43 O 0.54264 0.28214 0.78791 0.0
Cd44 Cd 0.50532 0.30904 0.82551 0.0
O45 O 0.53237 0.23252 0.80651 0.0
Cd46 Cd 0.49203 0.24037 0.85327 0.0
C47 C 0.43297 0.26731 0.80385 0.0
O48 O 0.51795 0.28995 0.87895 0.0
O49 O 0.46663 0.28237 0.89125 0.0
O50 O 0.52058 0.19769 0.88325 0.0
C51 C 0.49356 0.29814 0.89697 0.0
O52 O 0.44878 0.29476 0.80696 0.0
C53 C 0.49432 0.18418 0.89392 0.0
O54 O 0.44477 0.24117 0.81535 0.0
O55 O 0.46698 0.19591 0.88455 0.0
C56 C 0.09184 0.0526 0.20371 0.0
O57 O 0.09694 0.0824 0.21379 0.0
Cd58 Cd 0.13217 0.09653 0.26027 0.0
O59 O 0.10862 0.02936 0.21559 0.0
Cd60 Cd 0.15607 0.02329 0.25482 0.0
C61 C 0.10332 0.04151 0.31702 0.0
O62 O 0.18671 0.07587 0.24961 0.0
O63 O 0.19617 0.04874 0.29339 0.0
O64 O 0.18802 0.9893 0.21528 0.0
C65 C 0.20376 0.07281 0.27573 0.0
O66 O 0.10497 0.07105 0.30739 0.0
C67 C 0.19073 0.9648 0.23364 0.0
O68 O 0.11883 0.01831 0.30173 0.0
O69 O 0.17632 0.96699 0.26159 0.0
C70 C 0.19796 0.90694 0.47543 0.0
O71 O 0.21798 0.90297 0.45136 0.0
Cd72 Cd 0.26701 0.87053 0.44949 0.0
O73 O 0.20254 0.89232 0.50247 0.0
Cd74 Cd 0.24439 0.85202 0.52247 0.0
C75 C 0.3086 0.90604 0.51667 0.0
O76 O 0.24997 0.81968 0.4706 0.0
O77 O 0.28797 0.81164 0.50645 0.0
O78 O 0.20259 0.81931 0.5511 0.0
C79 C 0.27538 0.80379 0.47835 0.0
O80 O 0.30872 0.89824 0.48574 0.0
C81 C 0.2184 0.81901 0.57837 0.0
O82 O 0.28581 0.89566 0.53555 0.0
O83 O 0.24542 0.8355 0.58015 0.0
C84 C 0.40599 0.9783 0.70493 0.0
O85 O 0.39595 0.95203 0.71795 0.0
Cd86 Cd 0.36513 0.95259 0.76814 0.0
O87 O 0.39713 0.00668 0.71667 0.0
Cd88 Cd 0.35852 0.0307 0.76006 0.0
C89 C 0.4128 0.00755 0.81802 0.0
O90 O 0.31822 0.98548 0.75781 0.0
O91 O 0.31457 0.01865 0.80067 0.0
O92 O 0.33475 0.0647 0.71813 0.0
C93 C 0.30279 0.99387 0.78402 0.0
O94 O 0.40246 0.97828 0.81029 0.0
C95 C 0.33565 0.09178 0.73525 0.0
O96 O 0.40188 0.0322 0.80294 0.0
O97 O 0.34842 0.09099 0.76403 0.0
C98 C 0.19501 0.10341 0.07089 0.0
O99 O 0.21255 0.111 0.09637 0.0
Cd100 Cd 0.2627 0.14332 0.0963 0.0
O101 O 0.20248 0.11424 0.04259 0.0
Cd102 Cd 0.24554 0.15169 0.01975 0.0
C103 C 0.30525 0.09733 0.03749 0.0
O104 O 0.24789 0.19093 0.06746 0.0
O105 O 0.28697 0.19604 0.03178 0.0
O106 O 0.20599 0.17571 0.98158 0.0
C107 C 0.2728 0.20721 0.05786 0.0
O108 O 0.30433 0.10878 0.0674 0.0
C109 C 0.22466 0.17247 0.9563 0.0
O110 O 0.28491 0.10691 0.01592 0.0
O111 O 0.25221 0.15836 0.96041 0.0
C112 C 0.7058 0.39489 0.98537 0.0
O113 O 0.71648 0.38743 0.95648 0.0
Cd114 Cd 0.76692 0.35806 0.94912 0.0
O115 O 0.71869 0.38227 0.01078 0.0
Cd116 Cd 0.76032 0.33916 0.02475 0.0
C117 C 0.81518 0.39955 0.01035 0.0
O118 O 0.75925 0.30566 0.9727 0.0
O119 O 0.80208 0.30003 0.00389 0.0
O120 O 0.71781 0.31084 0.05638 0.0
C121 C 0.78608 0.29074 0.97796 0.0
O122 O 0.80681 0.39406 0.98009 0.0
C123 C 0.73567 0.30709 0.08188 0.0
O124 O 0.8021 0.3831 0.03323 0.0
O125 O 0.76493 0.31916 0.08135 0.0
C126 C 0.908 0.46439 0.19413 0.0
O127 O 0.90408 0.43857 0.21049 0.0
Cd128 Cd 0.87682 0.43883 0.26273 0.0
O129 O 0.89576 0.49191 0.20447 0.0
Cd130 Cd 0.85994 0.51395 0.2508 0.0
C131 C 0.92097 0.50074 0.30609 0.0
O132 O 0.8252 0.46457 0.252 0.0
O133 O 0.8183 0.49937 0.29314 0.0
O134 O 0.82954 0.54652 0.21183 0.0
C135 C 0.80903 0.4728 0.27781 0.0
O136 O 0.91409 0.47005 0.30138 0.0
C137 C 0.83328 0.57399 0.22796 0.0
O138 O 0.90566 0.52223 0.2901 0.0
O139 O 0.84985 0.57371 0.25473 0.0
C140 C 0.70335 0.61042 0.53634 0.0
O141 O 0.71903 0.62144 0.56192 0.0
Cd142 Cd 0.76638 0.65729 0.5602 0.0
O143 O 0.71099 0.6199 0.50754 0.0
Cd144 Cd 0.75045 0.66064 0.48328 0.0
C145 C 0.8144 0.61238 0.50414 0.0
O146 O 0.74766 0.70205 0.52892 0.0
O147 O 0.78778 0.70861 0.49477 0.0
O148 O 0.70649 0.67702 0.44551 0.0
C149 C 0.77146 0.71994 0.51945 0.0
O150 O 0.8106 0.62401 0.53375 0.0
C151 C 0.72508 0.67807 0.42018 0.0
O152 O 0.79469 0.62023 0.48118 0.0
O153 O 0.75506 0.66971 0.42391 0.0
C154 C 0.61582 0.54926 0.6936 0.0
O155 O 0.6219 0.57762 0.70713 0.0
Cd156 Cd 0.65706 0.58548 0.75474 0.0
O157 O 0.63073 0.52376 0.70326 0.0
Cd158 Cd 0.67583 0.5102 0.74293 0.0
C159 C 0.62385 0.52763 0.80651 0.0
O160 O 0.70895 0.5612 0.73998 0.0
O161 O 0.71946 0.53059 0.78094 0.0
O162 O 0.70232 0.47613 0.69938 0.0
C163 C 0.72718 0.55561 0.76466 0.0
O164 O 0.62843 0.55783 0.79977 0.0
C165 C 0.70664 0.45122 0.71687 0.0
O166 O 0.6371 0.50455 0.78882 0.0
O167 O 0.6953 0.45313 0.74622 0.0
H168 H 0.94206 0.33682 0.53508 0.0
H169 H -0.00142 0.26346 0.58313 0.0
H170 H 0.04154 0.31638 0.50281 0.0
H171 H 0.03954 0.23539 0.50331 0.0
H172 H 0.12605 0.20721 0.55766 0.0
H173 H 0.07276 0.29408 0.58906 0.0
C174 C 0.96441 0.32231 0.53669 0.0
C175 C 0.9911 0.32892 0.51568 0.0
C176 C 0.96673 0.29893 0.5611 0.0
C177 C -0.00353 0.28172 0.56441 0.0
C178 C 0.02332 0.28755 0.54308 0.0
C179 C 0.02072 0.31144 0.5189 0.0
C180 C 0.0534 0.2674 0.54534 0.0
C181 C 0.05746 0.24001 0.5231 0.0
C182 C 0.08378 0.21804 0.5271 0.0
C183 C 0.10627 0.22441 0.55335 0.0
C184 C 0.10278 0.25188 0.57539 0.0
C185 C 0.07623 0.27342 0.57142 0.0
H186 H 0.95405 0.66373 0.96882 0.0
H187 H 0.02479 0.71564 0.03246 0.0
H188 H -0.00095 0.75358 0.93738 0.0
H189 H 0.05886 0.76165 0.94143 0.0
H190 H 0.09455 0.84473 0.00134 0.0
H191 H 0.02189 0.77885 0.04115 0.0
C192 C 0.97104 0.68448 0.97345 0.0
C193 C 0.97497 0.70805 0.94946 0.0
C194 C 0.98854 0.68724 0.00345 0.0
C195 C 0.01073 0.71386 0.00951 0.0
C196 C 0.01485 0.73796 0.98558 0.0
C197 C -0.00353 0.73503 0.95579 0.0
C198 C 0.03838 0.76617 0.99108 0.0
C199 C 0.05909 0.77571 0.96494 0.0
C200 C 0.07894 0.80429 0.96846 0.0
C201 C 0.07938 0.82238 -0.00125 0.0
C202 C 0.05932 0.81317 0.02517 0.0
C203 C 0.03852 0.78516 0.02126 0.0
H204 H 0.42564 0.82581 0.07514 0.0
H205 H 0.48322 0.75478 0.12515 0.0
H206 H 0.51698 0.79138 0.03195 0.0
H207 H 0.5182 0.71594 0.03944 0.0
H208 H 0.61111 0.69565 0.08676 0.0
H209 H 0.55397 0.77881 0.12149 0.0
C210 C 0.44685 0.80956 0.07545 0.0
C211 C 0.47022 0.8103 0.04986 0.0
C212 C 0.45141 0.78989 0.10262 0.0
C213 C 0.47938 0.76981 0.10394 0.0
C214 C 0.50284 0.76988 0.07812 0.0
C215 C 0.49834 0.79036 0.05122 0.0
C216 C 0.5329 0.74974 0.08003 0.0
C217 C 0.53709 0.72221 0.05792 0.0
C218 C 0.56548 0.70263 0.06 0.0
C219 C 0.58945 0.71102 0.08429 0.0
C220 C 0.58552 0.73833 0.10635 0.0
C221 C 0.5572 0.75777 0.10427 0.0
H222 H 0.43708 0.17165 0.47497 0.0
H223 H 0.5203 0.2137 0.52959 0.0
H224 H 0.49162 0.25317 0.43627 0.0
H225 H 0.55754 0.24456 0.43861 0.0
H226 H 0.60739 0.32652 0.48897 0.0
H227 H 0.52039 0.28388 0.53237 0.0
C228 C 0.45686 0.19006 0.47754 0.0
C229 C 0.46187 0.21233 0.45241 0.0
C230 C 0.47764 0.19044 0.50544 0.0
C231 C 0.50368 0.21376 0.50843 0.0
C232 C 0.50865 0.23666 0.48358 0.0
C233 C 0.48759 0.23589 0.45567 0.0
C234 C 0.53658 0.26065 0.48591 0.0
C235 C 0.55985 0.26168 0.45997 0.0
C236 C 0.58599 0.28489 0.46151 0.0
C237 C 0.58836 0.30729 0.48886 0.0
C238 C 0.56486 0.30737 0.51443 0.0
C239 C 0.53905 0.28369 0.51306 0.0
H240 H 0.55894 0.90288 0.32373 0.0
H241 H 0.57873 0.93974 0.2273 0.0
H242 H 0.52959 0.00107 0.30193 0.0
H243 H 0.52636 0.97363 0.20002 0.0
H244 H 0.55668 0.07207 0.17742 0.0
H245 H 0.58313 0.03379 0.27148 0.0
C246 C 0.55703 0.92224 0.30611 0.0
C247 C 0.54231 0.95211 0.31633 0.0
C248 C 0.57003 0.91727 0.27406 0.0
C249 C 0.56832 0.94303 0.25195 0.0
C250 C 0.55383 0.97338 0.26184 0.0
C251 C 0.54064 0.97774 0.29408 0.0
C252 C 0.55384 0.00092 0.23885 0.0
C253 C 0.53862 -0.00318 0.20739 0.0
C254 C 0.53905 0.02289 0.18563 0.0
C255 C 0.55536 0.05258 0.19501 0.0
C256 C 0.57156 0.0568 0.2257 0.0
C257 C 0.57049 0.03091 0.24776 0.0
H258 H 0.17647 0.4413 0.42657 0.0
H259 H 0.22987 0.49485 0.50481 0.0
H260 H 0.24526 0.39028 0.48625 0.0
H261 H 0.23748 0.40013 0.54758 0.0
H262 H 0.32552 0.43331 0.59967 0.0
H263 H 0.29386 0.48297 0.5132 0.0
C264 C 0.19489 0.44195 0.44625 0.0
C265 C 0.21012 0.41252 0.45426 0.0
C266 C 0.20205 0.47187 0.46395 0.0
C267 C 0.22496 0.47213 0.49025 0.0
C268 C 0.24068 0.44267 0.49837 0.0
C269 C 0.23347 0.41309 0.47993 0.0
C270 C 0.26315 0.4418 0.52728 0.0
C271 C 0.25843 0.41715 0.55032 0.0
C272 C 0.28053 0.41421 0.57676 0.0
C273 C 0.30747 0.43648 0.58016 0.0
C274 C 0.31251 0.46152 0.55755 0.0
C275 C 0.29005 0.46414 0.53112 0.0
H276 H 0.00761 0.09269 0.81701 0.0
H277 H 0.9547 0.05297 0.73184 0.0
H278 H 0.04614 0.00844 0.76198 0.0
H279 H 0.04758 0.00386 0.70028 0.0
H280 H 0.98391 0.93589 0.64453 0.0
H281 H 0.94362 -0.00565 0.72549 0.0
C282 C 0.00644 0.07555 0.79558 0.0
C283 C 0.03096 0.05143 0.79124 0.0
C284 C 0.97885 0.07618 0.77452 0.0
C285 C 0.97599 0.05247 0.74826 0.0
C286 C 0.00036 0.02809 0.74324 0.0
C287 C 0.02783 0.02771 0.76493 0.0
C288 C -0.00382 0.00219 0.7163 0.0
C289 C 0.02335 0.9924 0.6963 0.0
C290 C 0.01901 0.968 0.67083 0.0
C291 C 0.98744 0.95419 0.66478 0.0
C292 C 0.96022 0.9639 0.68402 0.0
C293 C 0.9647 0.9874 0.7102 0.0
H294 H 0.32462 0.54775 0.89969 0.0
H295 H 0.30701 0.49224 0.98666 0.0
H296 H 0.23307 0.55889 0.95266 0.0
H297 H 0.28144 0.53707 0.03762 0.0
H298 H 0.1887 0.50146 0.07561 0.0
H299 H 0.20536 0.49821 0.97063 0.0
C300 C 0.30849 0.54034 0.91957 0.0
C301 C 0.27737 0.55516 0.92299 0.0
C302 C 0.31959 0.51744 0.94218 0.0
C303 C 0.29903 0.50986 0.96894 0.0
C304 C 0.26774 0.52452 0.97262 0.0
C305 C 0.257 0.54721 0.94962 0.0
C306 C 0.24655 0.51674 0.00102 0.0
C307 C 0.25751 0.52496 0.03353 0.0
C308 C 0.23677 0.51928 0.06062 0.0
C309 C 0.20547 0.50464 0.05494 0.0
C310 C 0.19399 0.49723 0.02272 0.0
C311 C 0.21451 0.50323 -0.00434 0.0
H312 H 0.6576 0.91777 0.96315 0.0
H313 H 0.69551 0.9657 0.05285 0.0
H314 H 0.71914 0.86367 0.02765 0.0
H315 H 0.7113 0.86868 0.09149 0.0
H316 H 0.79562 0.90982 0.14509 0.0
H317 H 0.7583 0.95842 0.06061 0.0
C318 C 0.67247 0.91719 0.98558 0.0
C319 C 0.6882 0.88787 0.99287 0.0
C320 C 0.67493 0.94538 0.00688 0.0
C321 C 0.69341 0.94394 0.03627 0.0
C322 C 0.70961 0.91452 0.04396 0.0
C323 C 0.70647 0.88629 0.0223 0.0
C324 C 0.73181 0.91402 0.07324 0.0
C325 C 0.73003 0.88799 0.0952 0.0
C326 C 0.75241 0.88686 0.12187 0.0
C327 C 0.77698 0.91173 0.12589 0.0
C328 C 0.77946 0.93755 0.10393 0.0
C329 C 0.75641 0.93877 0.07793 0.0
H330 H 0.49411 0.60747 0.32266 0.0
H331 H 0.46077 0.59461 0.22174 0.0
H332 H 0.5067 0.5141 0.26994 0.0
H333 H 0.51108 0.55597 0.17956 0.0
H334 H 0.44976 0.47898 0.13419 0.0
H335 H 0.44147 0.50201 0.23874 0.0
C336 C 0.49324 0.5929 0.29942 0.0
C337 C 0.5042 0.56014 0.29889 0.0
C338 C 0.47684 0.60536 0.2721 0.0
C339 C 0.47402 0.58552 0.24283 0.0
C340 C 0.48542 0.55285 0.2417 0.0
C341 C 0.49987 0.53993 0.27003 0.0
C342 C 0.47744 0.53116 0.21248 0.0
C343 C 0.49206 0.53697 0.18159 0.0
C344 C 0.48192 0.51804 0.1534 0.0
C345 C 0.45705 0.49389 0.15609 0.0
C346 C 0.44231 0.48785 0.1866 0.0
C347 C 0.45298 0.50622 0.215 0.0
H348 H 0.82167 0.02262 0.4012 0.0
H349 H 0.79452 -0.00518 0.49918 0.0
H350 H 0.7303 0.05677 0.44437 0.0
H351 H 0.75497 0.07806 0.51722 0.0
H352 H 0.68213 0.03676 0.58138 0.0
H353 H 0.71461 0.98029 0.49491 0.0
C354 C 0.80369 0.02212 0.42112 0.0
C355 C 0.77449 0.04041 0.41861 0.0
C356 C 0.81141 0.00575 0.45008 0.0
C357 C 0.78885 0.00701 0.4765 0.0
C358 C 0.75959 0.02521 0.47435 0.0
C359 C 0.75257 0.04212 0.44558 0.0
C360 C 0.73772 0.02848 0.50334 0.0
C361 C 0.73883 0.05766 0.52358 0.0
C362 C 0.71935 0.06027 0.55224 0.0
C363 C 0.69841 0.03391 0.56009 0.0
C364 C 0.69614 0.00515 0.53946 0.0
C365 C 0.71614 0.00238 0.51109 0.0
H366 H 0.09116 0.40037 0.84175 0.0
H367 H 0.12413 0.44962 0.75534 0.0
H368 H 0.04191 0.48809 0.81296 0.0
H369 H 0.04475 0.47179 0.72542 0.0
H370 H 0.06875 0.57104 0.69952 0.0
H371 H 0.11394 0.53104 0.78536 0.0
C372 C 0.08841 0.42008 0.8246 0.0
C373 C 0.06358 0.44346 0.83012 0.0
C374 C 0.11062 0.42232 0.79814 0.0
C375 C 0.10712 0.44776 0.77596 0.0
C376 C 0.08219 0.47147 0.78121 0.0
C377 C 0.06072 0.46952 0.80856 0.0
C378 C 0.0789 0.49875 0.75852 0.0
C379 C 0.05785 0.49502 0.73071 0.0
C380 C 0.05398 0.52131 0.70966 0.0
C381 C 0.07108 0.55114 0.7165 0.0
C382 C 0.09295 0.55485 0.74347 0.0
C383 C 0.09694 0.52848 0.76451 0.0
H384 H 0.05021 0.32854 0.11033 0.0
H385 H 0.05341 0.37282 0.07131 0.0
H386 H 0.96013 0.33951 0.02784 0.0
H387 H 0.9562 0.29633 0.06772 0.0
H388 H 0.06247 0.36838 0.01195 0.0
H389 H 0.9452 0.43365 0.02254 0.0
H390 H 0.95543 0.40278 0.05136 0.0
H391 H 0.93392 0.39139 0.01307 0.0
C392 C 0.02993 0.33131 0.09305 0.0
C393 C 0.00296 0.30891 0.09212 0.0
C394 C 0.03173 0.35672 0.07069 0.0
C395 C 0.00672 0.36027 0.04675 0.0
C396 C 0.97923 0.33845 0.04664 0.0
H397 H 0.02398 0.39204 0.8466 0.0
H398 H 0.00574 0.38 0.90266 0.0
C399 C 0.97715 0.31339 0.06935 0.0
C400 C 0.01159 0.38317 0.01906 0.0
H401 H 0.96965 0.43096 0.96545 0.0
C402 C 0.04234 0.38285 0.0026 0.0
C403 C 0.98569 0.40259 0.00653 0.0
C404 C 0.95341 0.40778 0.02467 0.0
C405 C 0.04701 0.39914 0.973 0.0
C406 C 0.02012 0.41561 0.95894 0.0
C407 C 0.99003 0.41782 0.97613 0.0
C408 C 0.02239 0.42703 0.92469 0.0
C409 C 0.0802 0.39716 0.95581 0.0
C410 C 0.03616 0.45814 0.91828 0.0
C411 C 0.04635 0.46518 0.88618 0.0
C412 C 0.0431 0.44103 0.86027 0.0
C413 C 0.02653 0.41111 0.8662 0.0
C414 C 0.01618 0.40421 0.89817 0.0
H415 H 0.09919 0.38496 0.97087 0.0
H416 H 0.07745 0.38304 0.93171 0.0
H417 H 0.08926 0.42242 0.95054 0.0
H418 H 0.04133 0.476 0.93832 0.0
H419 H 0.05945 0.48823 0.88227 0.0
H420 H 0.90822 0.70151 0.31443 0.0
H421 H 0.85579 0.70632 0.28362 0.0
H422 H 0.89789 0.78728 0.23112 0.0
H423 H 0.9497 0.78278 0.26131 0.0
H424 H 0.81314 0.76271 0.27993 0.0
H425 H 0.86047 0.72338 0.15691 0.0
H426 H 0.8808 0.71309 0.19499 0.0
H427 H 0.88898 0.75233 0.17696 0.0
C428 C 0.9063 0.72018 0.29615 0.0
C429 C 0.93326 0.74171 0.2903 0.0
C430 C 0.87634 0.72289 0.27864 0.0
C431 C 0.87317 0.74682 0.25474 0.0
C432 C 0.9 0.76823 0.24901 0.0
H433 H 0.76031 0.88892 0.18904 0.0
H434 H 0.77746 0.8439 0.22243 0.0
C435 C 0.92963 0.76572 0.26649 0.0
C436 C 0.8419 0.75111 0.23608 0.0
H437 H 0.81812 0.76601 0.15741 0.0
C438 C 0.81371 0.76267 0.25306 0.0
C439 C 0.84167 0.74928 0.20106 0.0
C440 C 0.86949 0.73342 0.18144 0.0
C441 C 0.7873 0.77664 0.2359 0.0
C442 C 0.79005 0.78038 0.20124 0.0
C443 C 0.81607 0.76441 0.18406 0.0
C444 C 0.77092 0.80556 0.18351 0.0
C445 C 0.75737 0.78816 0.25532 0.0
C446 C 0.7609 0.7996 0.15033 0.0
C447 C 0.75191 0.82577 0.13076 0.0
C448 C 0.75291 0.85847 0.14402 0.0
C449 C 0.75975 0.86402 0.17799 0.0
C450 C 0.76901 0.83798 0.19738 0.0
H451 H 0.75073 0.76991 0.274 0.0
H452 H 0.76339 0.81182 0.26913 0.0
H453 H 0.7355 0.79163 0.23911 0.0
H454 H 0.76252 0.77506 0.13878 0.0
H455 H 0.74686 0.82064 0.10464 0.0
H456 H 0.43143 0.65305 0.57346 0.0
H457 H 0.43595 0.60746 0.53181 0.0
H458 H 0.54168 0.62514 0.52632 0.0
H459 H 0.53742 0.66941 0.56914 0.0
H460 H 0.45195 0.61498 0.47201 0.0
H461 H 0.53572 0.52695 0.52205 0.0
H462 H 0.52812 0.56479 0.54554 0.0
H463 H 0.56265 0.56197 0.51714 0.0
C464 C 0.45566 0.64686 0.56362 0.0
C465 C 0.48403 0.665 0.57409 0.0
C466 C 0.45827 0.62068 0.54002 0.0
C467 C 0.48921 0.61256 0.52606 0.0
C468 C 0.51765 0.63024 0.53723 0.0
H469 H 0.55557 0.57965 0.33915 0.0
H470 H 0.55352 0.57834 0.39955 0.0
C471 C 0.51515 0.65586 0.56139 0.0
C472 C 0.49115 0.58962 0.49636 0.0
H473 H 0.54 0.53102 0.45804 0.0
C474 C 0.47051 0.5959 0.46937 0.0
C475 C 0.51539 0.56466 0.4927 0.0
C476 C 0.53646 0.55431 0.52121 0.0
C477 C 0.47514 0.57999 0.43826 0.0
C478 C 0.50099 0.55687 0.43401 0.0
C479 C 0.52032 0.54889 0.46136 0.0
C480 C 0.51087 0.54536 0.40023 0.0
C481 C 0.45384 0.58984 0.40952 0.0
C482 C 0.48945 0.52484 0.38078 0.0
C483 C 0.49075 0.52542 0.34617 0.0
C484 C 0.51339 0.54663 0.33097 0.0
C485 C 0.53801 0.56303 0.3504 0.0
C486 C 0.5368 0.56233 0.38492 0.0
H487 H 0.43684 0.61037 0.41653 0.0
H488 H 0.46968 0.59767 0.38872 0.0
H489 H 0.43858 0.56829 0.40036 0.0
H490 H 0.46929 0.51159 0.39225 0.0
H491 H 0.47134 0.51279 0.3317 0.0
H492 H 0.58942 0.28459 0.74635 0.0
H493 H 0.6261 0.26139 0.70336 0.0
H494 H 0.59473 0.1629 0.72675 0.0
H495 H 0.55793 0.18578 0.76994 0.0
H496 H 0.6792 0.21209 0.70988 0.0
H497 H 0.57654 0.17188 0.62456 0.0
H498 H 0.57126 0.20251 0.65803 0.0
H499 H 0.57193 0.15932 0.6665 0.0
C500 C 0.59031 0.25796 0.74244 0.0
C501 C 0.57056 0.23701 0.76146 0.0
C502 C 0.61137 0.24481 0.71792 0.0
C503 C 0.61279 0.21054 0.71177 0.0
C504 C 0.59363 0.18949 0.73101 0.0
H505 H 0.7314 0.06796 0.61823 0.0
H506 H 0.71181 0.11311 0.655 0.0
C507 C 0.57272 0.20259 0.75571 0.0
C508 C 0.63393 0.19664 0.68488 0.0
H509 H 0.63006 0.15061 0.61216 0.0
C510 C 0.66857 0.19898 0.68827 0.0
C511 C 0.61991 0.18026 0.65644 0.0
C512 C 0.58287 0.17851 0.65086 0.0
C513 C 0.68959 0.18355 0.66474 0.0
C514 C 0.67547 0.16528 0.63742 0.0
C515 C 0.64087 0.16463 0.63314 0.0
C516 C 0.69531 0.14318 0.61527 0.0
C517 C 0.72665 0.18637 0.66961 0.0
C518 C 0.69359 0.14561 0.58068 0.0
C519 C 0.70496 0.11981 0.55962 0.0
C520 C 0.7177 0.09116 0.57299 0.0
C521 C 0.72189 0.08999 0.60746 0.0
C522 C 0.71081 0.11583 0.62844 0.0
H523 H 0.73359 0.20913 0.6846 0.0
H524 H 0.7353 0.16479 0.68312 0.0
H525 H 0.73978 0.18658 0.64546 0.0
H526 H 0.68144 0.1664 0.57008 0.0
H527 H 0.70109 0.12099 0.53313 0.0
H528 H 0.95504 0.62549 0.43145 0.0
H529 H 0.95073 0.59051 0.47944 0.0
H530 H 0.05734 0.58975 0.48751 0.0
H531 H 0.06199 0.62497 0.44012 0.0
H532 H -0.00479 0.52311 0.499 0.0
H533 H 0.00572 0.64261 0.5727 0.0
H534 H 0.98818 0.63989 0.53143 0.0
H535 H 0.03218 0.63688 0.53704 0.0
C536 C 0.97758 0.61731 0.44302 0.0
C537 C 0.00887 0.62839 0.4323 0.0
C538 C 0.97504 0.59717 0.47025 0.0
C539 C 0.00372 0.58761 0.48681 0.0
C540 C 0.03496 0.59681 0.47484 0.0
H541 H 0.0725 0.48884 0.6529 0.0
H542 H 0.05226 0.49981 0.59738 0.0
C543 C 0.03753 0.61703 0.44783 0.0
C544 C 0.00139 0.57283 0.51951 0.0
H545 H 0.01047 0.59385 0.60171 0.0
C546 C -0.00192 0.53846 0.52159 0.0
C547 C 0.00469 0.59305 0.54878 0.0
C548 C 0.00773 0.63021 0.54768 0.0
C549 C -0.00057 0.52367 0.55249 0.0
C550 C 0.00457 0.5438 0.5817 0.0
C551 C 0.00637 0.57831 0.57944 0.0
C552 C 0.01124 0.53008 0.61457 0.0
C553 C -0.00436 0.48669 0.55354 0.0
C554 C -0.00549 0.54265 0.64285 0.0
C555 C 0.00645 0.53679 0.67455 0.0
C556 C 0.03498 0.51785 0.67845 0.0
C557 C 0.04995 0.50282 0.6504 0.0
C558 C 0.03833 0.50909 0.61865 0.0
H559 H 0.98431 0.47917 0.57714 0.0
H560 H 0.98003 0.47692 0.5327 0.0
H561 H 0.02041 0.47522 0.55093 0.0
H562 H 0.97367 0.559 0.64036 0.0
H563 H -0.00504 0.54909 0.6959 0.0
H564 H 0.54496 0.79907 0.73326 0.0
H565 H 0.57792 0.81922 0.78136 0.0
H566 H 0.59839 0.7187 0.80522 0.0
H567 H 0.56628 0.6984 0.7572 0.0
H568 H 0.56626 0.80721 0.84664 0.0
H569 H 0.69034 0.76084 0.80996 0.0
H570 H 0.65632 0.76273 0.78095 0.0
H571 H 0.65854 0.72932 0.80876 0.0
C572 C 0.55679 0.78128 0.74853 0.0
C573 C 0.553 0.74713 0.74126 0.0
C574 C 0.57559 0.79281 0.77601 0.0
C575 C 0.59103 0.77045 0.79658 0.0
C576 C 0.58739 0.73642 0.78928 0.0
H577 H 0.65142 0.8315 -0.00145 0.0
H578 H 0.63034 0.79624 0.95173 0.0
C579 C 0.56876 0.72488 0.76186 0.0
C580 C 0.60931 0.78256 0.82677 0.0
H581 H 0.68465 0.7815 0.86578 0.0
C582 C 0.59214 0.80161 0.85083 0.0
C583 C 0.64313 0.77528 0.83209 0.0
C584 C 0.66329 0.75619 0.80645 0.0
C585 C 0.60783 0.81371 0.88006 0.0
C586 C 0.64146 0.80586 0.88574 0.0
C587 C 0.65869 0.78684 0.86167 0.0
C588 C 0.65986 0.82036 0.91485 0.0
C589 C 0.58855 0.83575 0.90405 0.0
C590 C 0.68526 0.84363 0.90987 0.0
C591 C 0.69758 0.86327 0.93653 0.0
C592 C 0.68482 0.85978 0.96854 0.0
C593 C 0.66189 0.83425 0.9741 0.0
C594 C 0.64956 0.81448 0.94736 0.0
H595 H 0.56542 0.84484 0.89274 0.0
H596 H 0.58152 0.82161 0.92594 0.0
H597 H 0.60385 0.85746 0.91283 0.0
H598 H 0.69363 0.84847 0.88504 0.0
H599 H 0.71497 0.88315 0.93171 0.0
H600 H 0.44364 0.34156 0.90959 0.0
H601 H 0.44666 0.39336 0.94304 0.0
H602 H 0.54871 0.37369 0.96741 0.0
H603 H 0.54634 0.32319 0.93205 0.0
H604 H 0.45321 0.4054 0.00214 0.0
H605 H 0.5637 0.46552 0.94941 0.0
H606 H 0.54468 0.42909 0.92962 0.0
H607 H 0.57374 0.4256 0.9633 0.0
C608 C 0.46679 0.34859 0.92185 0.0
C609 C 0.49484 0.32862 0.91819 0.0
C610 C 0.46861 0.3783 0.94077 0.0
C611 C 0.49834 0.38839 0.95677 0.0
C612 C 0.52604 0.36771 0.95392 0.0
H613 H 0.53879 0.48948 0.13306 0.0
H614 H 0.54655 0.46735 0.07634 0.0
C615 C 0.52451 0.33848 0.9342 0.0
C616 C 0.49928 0.41881 0.97889 0.0
H617 H 0.54757 0.48531 0.00428 0.0
C618 C 0.47349 0.42328 0.00191 0.0
C619 C 0.52575 0.4423 0.97888 0.0
C620 C 0.55328 0.44054 0.95368 0.0
C621 C 0.47433 0.44919 0.02603 0.0
C622 C 0.50168 0.47153 0.02712 0.0
C623 C 0.52677 0.46811 0.00335 0.0
C624 C 0.50638 0.495 0.05589 0.0
C625 C 0.44692 0.45116 0.05152 0.0
C626 C 0.4834 0.52019 0.06232 0.0
C627 C 0.47894 0.5328 0.09479 0.0
C628 C 0.49773 0.52055 0.12079 0.0
C629 C 0.52431 0.49952 0.1133 0.0
C630 C 0.52856 0.48667 0.08092 0.0
H631 H 0.42959 0.42957 0.04934 0.0
H632 H 0.45755 0.45251 0.07695 0.0
H633 H 0.43235 0.47387 0.04828 0.0
H634 H 0.46625 0.52704 0.04317 0.0
H635 H 0.45803 0.54871 0.10015 0.0
H636 H 0.90019 0.21692 0.19938 0.0
H637 H 0.85018 0.20768 0.23261 0.0
H638 H 0.87126 0.10354 0.23261 0.0
H639 H 0.92115 0.11243 0.20017 0.0
H640 H 0.79837 0.12415 0.22431 0.0
H641 H 0.86767 0.18198 0.33247 0.0
H642 H 0.8648 0.20338 0.2944 0.0
H643 H 0.88946 0.16694 0.29592 0.0
C644 C 0.89384 0.19197 0.20597 0.0
C645 C 0.91484 0.16544 0.1973 0.0
C646 C 0.86524 0.18677 0.22487 0.0
C647 C 0.85715 0.15495 0.23504 0.0
C648 C 0.877 0.12825 0.22482 0.0
H649 H 0.78127 0.02003 0.35381 0.0
H650 H 0.78839 0.05511 0.30691 0.0
C651 C 0.90563 0.13344 0.20634 0.0
C652 C 0.83092 0.14938 0.25981 0.0
H653 H 0.82202 0.14836 0.34363 0.0
C654 C 0.8029 0.1302 0.2504 0.0
C655 C 0.83659 0.15778 0.29373 0.0
C656 C 0.86622 0.17862 0.30503 0.0
C657 C 0.78186 0.11697 0.27433 0.0
C658 C 0.78983 0.12218 0.30837 0.0
C659 C 0.81594 0.14409 0.31758 0.0
C660 C 0.77634 0.1007 0.33422 0.0
C661 C 0.75213 0.09649 0.26283 0.0
C662 C 0.76643 0.11432 0.36526 0.0
C663 C 0.76291 0.09419 0.39241 0.0
C664 C 0.76943 0.06017 0.38893 0.0
C665 C 0.77637 0.04622 0.35724 0.0
C666 C 0.77999 0.06628 0.33024 0.0
H667 H 0.74113 0.10661 0.24019 0.0
H668 H 0.76009 0.0709 0.25623 0.0
H669 H 0.73274 0.09561 0.28229 0.0
H670 H 0.76368 0.14081 0.36902 0.0
H671 H 0.7577 0.10565 0.41657 0.0
H672 H 0.04668 0.07266 0.33516 0.0
H673 H 0.00695 0.05684 0.37691 0.0
H674 H 0.07092 0.97798 0.40496 0.0
H675 H 0.10972 0.99231 0.36084 0.0
H676 H 0.01419 0.95446 0.40297 0.0
H677 H 0.00069 0.07194 0.47193 0.0
H678 H 0.98778 0.08075 0.43092 0.0
H679 H 0.03002 0.0687 0.4383 0.0
C680 C 0.05255 0.05227 0.35055 0.0
C681 C 0.08133 0.0338 0.34491 0.0
C682 C 0.02995 0.04341 0.37479 0.0
C683 C 0.03629 0.01683 0.39509 0.0
C684 C 0.06555 -0.0012 0.38998 0.0
H685 H 0.85321 0.01203 0.5037 0.0
H686 H 0.91297 0.0028 0.50341 0.0
C687 C 0.08772 0.00701 0.36486 0.0
C688 C 0.01043 0.00603 0.41876 0.0
H689 H 0.94769 0.03772 0.46615 0.0
C690 C 0.00024 0.97259 0.41757 0.0
C691 C 0.99269 0.02899 0.43921 0.0
C692 C 0.00381 0.06447 0.44531 0.0
C693 C 0.97057 0.96258 0.43259 0.0
C694 C 0.9502 0.98673 0.44828 0.0
C695 C 0.96266 0.01913 0.45333 0.0
C696 C 0.91403 0.98128 0.45333 0.0
C697 C 0.9607 0.92649 0.43014 0.0
C698 C 0.89433 0.97032 0.42613 0.0
C699 C 0.86011 0.97509 0.42645 0.0
C700 C 0.84496 0.99152 0.45371 0.0
C701 C 0.86409 -0.00072 0.48228 0.0
C702 C 0.89835 -0.00586 0.4821 0.0
H703 H 0.98285 0.91076 0.43286 0.0
H704 H 0.94224 0.92022 0.44934 0.0
H705 H 0.94993 0.92041 0.40523 0.0
H706 H 0.9056 0.96093 0.40334 0.0
H707 H 0.84592 0.96831 0.40428 0.0
H708 H 0.25001 0.80958 0.63734 0.0
H709 H 0.23644 0.76807 0.67783 0.0
H710 H 0.14948 0.73858 0.62092 0.0
H711 H 0.16283 0.77976 0.58032 0.0
H712 H 0.17621 0.75415 0.71673 0.0
H713 H 0.20836 0.65426 0.6243 0.0
H714 H 0.22079 0.69688 0.61991 0.0
H715 H 0.17931 0.68333 0.60915 0.0
C716 C 0.2277 0.79462 0.63373 0.0
C717 C 0.20766 0.79773 0.60542 0.0
C718 C 0.22002 0.77094 0.65689 0.0
C719 C 0.1923 0.74995 0.65202 0.0
C720 C 0.17127 0.75426 0.62482 0.0
H721 H 0.07138 0.61805 0.74972 0.0
H722 H 0.10297 0.66751 0.73623 0.0
C723 C 0.17888 0.77789 0.60171 0.0
C724 C 0.1862 0.72212 0.67396 0.0
H725 H 0.17762 0.63815 0.67149 0.0
C726 C 0.17694 0.72872 0.70708 0.0
C727 C 0.18813 0.68896 0.66161 0.0
C728 C 0.20001 0.6803 0.62689 0.0
C729 C 0.16726 0.70299 0.72746 0.0
C730 C 0.16648 0.67002 0.71414 0.0
C731 C 0.178 0.66339 0.68175 0.0
C732 C 0.15001 0.64252 0.73125 0.0
C733 C 0.1574 0.7114 0.76282 0.0
C734 C 0.16602 0.6121 0.73402 0.0
C735 C 0.14792 0.58377 0.74194 0.0
C736 C 0.11346 0.58541 0.74662 0.0
C737 C 0.098 0.6163 0.74653 0.0
C738 C 0.11611 0.64461 0.73893 0.0
H739 H 0.17088 0.73388 0.77271 0.0
H740 H 0.13045 0.71668 0.76366 0.0
H741 H 0.16239 0.69069 0.77918 0.0
H742 H 0.19205 0.6098 0.72781 0.0
H743 H 0.16027 0.56014 0.74138 0.0
H744 H 0.4506 0.96026 0.84477 0.0
H745 H 0.49427 0.96746 0.88617 0.0
H746 H 0.47737 0.07259 0.89268 0.0
H747 H 0.43394 0.06568 0.85001 0.0
H748 H 0.54216 0.0602 0.8901 0.0
H749 H 0.48573 0.98277 0.98361 0.0
H750 H 0.49309 0.95711 0.94718 0.0
H751 H 0.46428 0.99063 0.94554 0.0
C752 C 0.45587 0.98495 0.8551 0.0
C753 C 0.4386 0.01238 0.84415 0.0
C754 C 0.48079 0.98899 0.879 0.0
C755 C 0.48859 0.02044 0.89321 0.0
C756 C 0.47154 0.04802 0.88231 0.0
H757 H 0.63169 0.98222 0.04519 0.0
H758 H 0.58797 0.01701 0.02368 0.0
C759 C 0.44674 0.04404 0.85795 0.0
C760 C 0.51576 0.02418 0.91811 0.0
H761 H 0.5465 0.98836 0.98625 0.0
C762 C 0.54291 0.04498 0.91153 0.0
C763 C 0.5166 0.00497 0.94656 0.0
C764 C 0.48813 0.98289 0.95618 0.0
C765 C 0.5719 0.04494 0.93098 0.0
C766 C 0.57379 0.02338 0.95761 0.0
C767 C 0.54545 0.00495 0.96591 0.0
C768 C 0.60581 0.01434 0.97304 0.0
C769 C 0.60043 0.0674 0.92214 0.0
C770 C 0.63186 0.00348 0.95243 0.0
C771 C 0.6573 0.98467 0.9649 0.0
C772 C 0.65654 0.97517 -0.00207 0.0
C773 C 0.63281 0.98913 0.01959 0.0
C774 C 0.60769 0.00882 0.00722 0.0
H775 H 0.59123 0.09083 0.91237 0.0
H776 H 0.61681 0.07336 0.94381 0.0
H777 H 0.61524 0.05522 0.90206 0.0
H778 H 0.63092 0.0063 0.92592 0.0
H779 H 0.67559 0.97451 0.94779 0.0
H780 H 0.25601 0.227 0.12116 0.0
H781 H 0.28032 0.2727 0.15526 0.0
H782 H 0.34508 0.2967 0.07455 0.0
H783 H 0.32162 0.25047 0.0407 0.0
H784 H 0.37789 0.29624 0.13315 0.0
H785 H 0.26317 0.37027 0.14766 0.0
H786 H 0.26011 0.32884 0.16165 0.0
H787 H 0.26613 0.33548 0.11833 0.0
C788 C 0.27535 0.24213 0.11064 0.0
C789 C 0.28685 0.23527 0.0782 0.0
C790 C 0.28908 0.26831 0.13012 0.0
C791 C 0.31415 0.2884 0.11729 0.0
C792 C 0.32571 0.28152 0.08493 0.0
H793 H 0.38838 0.47973 0.14664 0.0
H794 H 0.35423 0.42988 0.13849 0.0
C795 C 0.31225 0.25516 0.06558 0.0
C796 C 0.32891 0.31644 0.13741 0.0
H797 H 0.31157 0.39217 0.17346 0.0
C798 C 0.36339 0.31709 0.14231 0.0
C799 C 0.30982 0.34355 0.14932 0.0
C800 C 0.2728 0.34479 0.14381 0.0
C801 C 0.37962 0.34479 0.15727 0.0
C802 C 0.36064 0.37225 0.16856 0.0
C803 C 0.32596 0.37093 0.16513 0.0
C804 C 0.3767 0.4043 0.17865 0.0
C805 C 0.41708 0.34522 0.15881 0.0
C806 C 0.39944 0.4072 0.20513 0.0
C807 C 0.41934 0.43573 0.20963 0.0
C808 C 0.41646 0.46162 0.1878 0.0
C809 C 0.39142 0.45986 0.16347 0.0
C810 C 0.37179 0.43145 0.1589 0.0
H811 H 0.428 0.32444 0.14376 0.0
H812 H 0.42727 0.36881 0.14981 0.0
H813 H 0.42521 0.34304 0.18489 0.0
H814 H 0.40305 0.38678 0.22113 0.0
H815 H 0.43841 0.43656 0.22862 0.0
H816 H 0.05984 0.99318 0.19323 0.0
H817 H 0.00766 0.98266 0.16385 0.0
H818 H 0.00744 0.08352 0.13334 0.0
H819 H 0.05979 0.09426 0.16331 0.0
H820 H 0.94951 0.06821 0.16036 0.0
H821 H 0.98076 0.96823 0.06913 0.0
H822 H -0.00484 0.9584 0.10956 0.0
H823 H 0.01166 -0.00569 0.09006 0.0
C824 C 0.04915 0.01293 0.17964 0.0
C825 C 0.06364 0.04472 0.181 0.0
C826 C 0.01929 0.00685 0.16267 0.0
C827 C 0.00358 0.03225 0.1462 0.0
C828 C 0.01896 0.06358 0.146 0.0
H829 H 0.81821 0.95995 0.05374 0.0
H830 H 0.87036 0.99133 0.05898 0.0
C831 C 0.04877 0.06972 0.16319 0.0
C832 C 0.96971 0.02663 0.1322 0.0
H833 H 0.92333 0.96956 0.08715 0.0
C834 C 0.94386 0.047 0.14382 0.0
C835 C 0.96221 -0.00034 0.10983 0.0
C836 C 0.98899 0.9791 0.09361 0.0
C837 C 0.91058 0.0395 0.13572 0.0
C838 C 0.90296 0.01037 0.11632 0.0
C839 C 0.92898 0.99155 0.10261 0.0
C840 C 0.86859 -0.00299 0.11254 0.0
C841 C 0.88405 0.06271 0.1484 0.0
C842 C 0.84975 0.99049 0.1408 0.0
C843 C 0.81975 0.97292 0.13784 0.0
C844 C 0.80814 0.96107 0.10658 0.0
C845 C 0.82622 0.96901 0.07816 0.0
C846 C 0.85618 0.98676 0.08113 0.0
H847 H 0.89299 0.08877 0.14796 0.0
H848 H 0.86091 0.06026 0.13347 0.0
H849 H 0.87828 0.05745 0.17454 0.0
H850 H 0.85902 -0.00245 0.16536 0.0
H851 H 0.80624 0.96751 0.16018 0.0
H852 H 0.26032 0.79428 0.41264 0.0
H853 H 0.29269 0.76455 0.36994 0.0
H854 H 0.36434 0.73906 0.44373 0.0
H855 H 0.33221 0.76888 0.48672 0.0
H856 H 0.36431 0.77699 0.35465 0.0
H857 H 0.33429 0.6498 0.39333 0.0
H858 H 0.30915 0.68503 0.40509 0.0
H859 H 0.34791 0.67882 0.42579 0.0
C860 C 0.28283 0.78213 0.41988 0.0
C861 C 0.29369 0.78382 0.45308 0.0
C862 C 0.30133 0.76534 0.39541 0.0
C863 C 0.33076 0.74966 0.40378 0.0
C864 C 0.34152 0.75091 0.43691 0.0
H865 H 0.49537 0.66488 0.30205 0.0
H866 H 0.45752 0.7052 0.32777 0.0
C867 C 0.32315 0.76789 0.4614 0.0
C868 C 0.35032 0.73198 0.37786 0.0
H869 H 0.37593 0.65505 0.35259 0.0
C870 C 0.36673 0.75031 0.35395 0.0
C871 C 0.35302 0.69722 0.37695 0.0
C872 C 0.33499 0.6764 0.40146 0.0
C873 C 0.38674 0.73468 0.32963 0.0
C874 C 0.39026 0.70001 0.32942 0.0
C875 C 0.37307 0.68168 0.35279 0.0
C876 C 0.41313 0.68197 0.30672 0.0
C877 C 0.40408 0.75522 0.30448 0.0
C878 C 0.40076 0.6565 0.28523 0.0
C879 C 0.4223 0.63347 0.27055 0.0
C880 C 0.45651 0.63537 0.27749 0.0
C881 C 0.46911 0.66282 0.29636 0.0
C882 C 0.44753 0.68592 0.31096 0.0
H883 H 0.39284 0.78004 0.30302 0.0
H884 H 0.43053 0.75868 0.3117 0.0
H885 H 0.40323 0.74252 0.27951 0.0
H886 H 0.37424 0.65301 0.28181 0.0
H887 H 0.41176 0.61242 0.25648 0.0
H888 H 0.45327 0.02351 0.68906 0.0
H889 H 0.4988 0.01557 0.65007 0.0
H890 H 0.45891 0.91948 0.6193 0.0
H891 H 0.41423 0.92655 0.65999 0.0
H892 H 0.52244 0.91508 0.63117 0.0
H893 H 0.50725 0.02345 0.5538 0.0
H894 H 0.50492 0.03443 0.59702 0.0
H895 H 0.47426 0.00659 0.57827 0.0
C896 C 0.4538 0.00098 0.67352 0.0
C897 C 0.43025 0.97566 0.67759 0.0
C898 C 0.47972 -0.00345 0.65095 0.0
C899 C 0.48198 0.96719 0.63112 0.0
C900 C 0.45765 0.94237 0.63421 0.0
H901 H 0.64842 0.98065 0.49677 0.0
H902 H 0.59448 0.95821 0.51318 0.0
C903 C 0.43213 0.94648 0.65739 0.0
C904 C 0.51133 0.96148 0.60953 0.0
H905 H 0.56137 -8e-05 0.55479 0.0
C906 C 0.53062 0.93329 0.61393 0.0
C907 C 0.52184 0.98483 0.58658 0.0
C908 C 0.50084 0.01385 0.57832 0.0
C909 C 0.56125 0.92917 0.59781 0.0
C910 C 0.57287 0.95395 0.57698 0.0
C911 C 0.55258 0.98095 0.57091 0.0
C912 C 0.60754 0.95539 0.56498 0.0
C913 C 0.58138 0.89892 0.60396 0.0
C914 C 0.63342 0.95904 0.58824 0.0
C915 C 0.6643 0.97134 0.57884 0.0
C916 C 0.6696 0.98075 0.54616 0.0
C917 C 0.64503 0.97346 0.52209 0.0
C918 C 0.61413 0.96087 0.53149 0.0
H919 H 0.56552 0.87834 0.6125 0.0
H920 H 0.59481 0.89045 0.5812 0.0
H921 H 0.59993 0.90496 0.62373 0.0
H922 H 0.62887 0.95568 0.61432 0.0
H923 H 0.68294 0.97665 0.59781 0.0
H924 H 0.16816 0.20487 0.94062 0.0
H925 H 0.15898 0.23801 0.89257 0.0
H926 H 0.25348 0.20792 0.85221 0.0
H927 H 0.26307 0.17494 0.90062 0.0
H928 H 0.24895 0.27351 0.85604 0.0
H929 H 0.1356 0.22335 0.79579 0.0
H930 H 0.12832 0.22858 0.83949 0.0
H931 H 0.15934 0.19993 0.82442 0.0
C932 C 0.18664 0.20462 0.92117 0.0
C933 C 0.21643 0.18749 0.92458 0.0
C934 C 0.18124 0.22337 0.89349 0.0
C935 C 0.20538 0.22517 0.86851 0.0
C936 C 0.23443 0.20672 0.87104 0.0
H937 H 0.12368 0.37666 0.74771 0.0
H938 H 0.15788 0.32715 0.75253 0.0
C939 C 0.23984 0.18789 0.89874 0.0
C940 C 0.20207 0.25008 0.84285 0.0
H941 H 0.14323 0.28383 0.79458 0.0
C942 C 0.22627 0.2753 0.84174 0.0
C943 C 0.17312 0.25207 0.82325 0.0
C944 C 0.14786 0.22425 0.82051 0.0
C945 C 0.2204 0.30426 0.8249 0.0
C946 C 0.18926 0.30827 0.80933 0.0
C947 C 0.16687 0.28131 0.80705 0.0
C948 C 0.17666 0.34143 0.80154 0.0
C949 C 0.24691 0.33096 0.82574 0.0
C950 C 0.17696 0.36657 0.8267 0.0
C951 C 0.15812 0.39482 0.82365 0.0
C952 C 0.13788 0.39829 0.79574 0.0
C953 C 0.1394 0.3746 0.7693 0.0
C954 C 0.15873 0.34628 0.77219 0.0
H955 H 0.27202 0.31996 0.82546 0.0
H956 H 0.24456 0.34728 0.80448 0.0
H957 H 0.24496 0.34618 0.84919 0.0
H958 H 0.18936 0.36322 0.8501 0.0
H959 H 0.15711 0.41269 0.84444 0.0
H960 H 0.36851 0.09087 0.05997 0.0
H961 H 0.40652 0.0457 0.04676 0.0
H962 H 0.33194 -0.00171 0.98314 0.0
H963 H 0.29504 0.04468 -0.00557 0.0
H964 H 0.40255 0.98797 0.06166 0.0
H965 H 0.40657 0.97981 0.92485 0.0
H966 H 0.38852 0.01457 0.94737 0.0
H967 H 0.36453 0.97716 0.93864 0.0
C968 C 0.36063 0.07109 0.04262 0.0
C969 C 0.32901 0.07124 0.02808 0.0
C970 C 0.38232 0.04524 0.03502 0.0
C971 C 0.37258 0.01865 0.01329 0.0
C972 C 0.34086 0.01897 -0.00124 0.0
H973 H 0.41776 0.81843 0.0088 0.0
H974 H 0.40029 0.87197 0.98986 0.0
C975 C 0.31954 0.04534 0.00557 0.0
C976 C 0.39402 0.98907 0.00897 0.0
H977 H 0.42223 0.93039 0.95253 0.0
C978 C 0.40745 0.97598 0.03763 0.0
C979 C 0.40041 0.97304 0.97765 0.0
C980 C 0.38953 0.98715 0.94543 0.0
C981 C 0.42589 0.94693 0.03616 0.0
C982 C 0.43111 0.93025 0.00509 0.0
C983 C 0.41822 0.94336 0.97626 0.0
C984 C 0.44634 0.89719 0.00335 0.0
C985 C 0.43823 0.93345 0.06821 0.0
C986 C 0.47909 0.89312 0.01429 0.0
C987 C 0.4891 0.86247 0.02524 0.0
C988 C 0.46641 0.83581 0.02511 0.0
C989 C 0.43559 0.83874 0.00922 0.0
C990 C 0.42558 0.86933 -0.00157 0.0
H991 H 0.42746 0.94653 0.09039 0.0
H992 H 0.4321 0.90668 0.06926 0.0
H993 H 0.46562 0.93644 0.06962 0.0
H994 H 0.49556 0.91437 0.01786 0.0
H995 H 0.51294 0.86083 0.03747 0.0
H996 H 0.82337 0.45591 0.9777 0.0
H997 H 0.86166 0.50169 0.9905 0.0
H998 H 0.89951 0.45099 0.07417 0.0
H999 H 0.85944 0.40546 0.06242 0.0
H1000 H 0.89351 0.51584 0.08902 0.0
H1001 H 0.95638 0.50297 0.96728 0.0
H1002 H 0.91288 0.50858 0.96277 0.0
H1003 H 0.9277 0.47192 0.98129 0.0
C1004 C 0.83996 0.45435 -0.00128 0.0
C1005 C 0.83884 0.42688 0.01872 0.0
C1006 C 0.86204 0.48047 0.0059 0.0
C1007 C 0.88444 0.47923 0.03248 0.0
C1008 C 0.88278 0.45225 0.05321 0.0
H1009 H 0.0302 0.63739 0.01716 0.0
H1010 H 0.01211 0.58333 0.03622 0.0
C1011 C 0.86 0.42627 0.04646 0.0
C1012 C 0.90903 0.50654 0.03842 0.0
H1013 H 0.96397 0.55495 -0.00228 0.0
C1014 C 0.90941 0.52406 0.06929 0.0
C1015 C 0.9302 0.51705 0.01284 0.0
C1016 C 0.93206 0.49887 0.97938 0.0
C1017 C 0.92842 0.55328 0.07434 0.0
C1018 C 0.94773 0.56494 0.04798 0.0
C1019 C 0.94925 0.54601 0.01803 0.0
C1020 C 0.96223 0.59887 0.0484 0.0
C1021 C 0.92684 0.57208 0.10739 0.0
C1022 C 0.94087 0.626 0.05078 0.0
C1023 C 0.95134 0.65683 0.04034 0.0
C1024 C 0.98319 0.66095 0.02705 0.0
C1025 C 0.00574 0.63489 0.02793 0.0
C1026 C -0.00469 0.60397 0.03856 0.0
H1027 H 0.91842 0.55597 0.12733 0.0
H1028 H 0.95141 0.58318 0.11421 0.0
H1029 H 0.90869 0.59233 0.10594 0.0
H1030 H 0.91503 0.62264 0.05726 0.0
H1031 H 0.93338 0.67645 0.03922 0.0
H1032 H 0.84289 0.63793 0.25224 0.0
H1033 H 0.81236 0.68691 0.2368 0.0
H1034 H 0.75637 0.62705 0.16469 0.0
H1035 H 0.78742 0.5786 0.17901 0.0
H1036 H 0.77108 0.68505 0.14084 0.0
H1037 H 0.72028 0.70458 0.26813 0.0
H1038 H 0.76457 0.70699 0.2642 0.0
H1039 H 0.7432 0.66821 0.25607 0.0
C1040 C 0.82431 0.63539 0.23283 0.0
C1041 C 0.81729 0.60434 0.21705 0.0
C1042 C 0.8068 0.6634 0.22412 0.0
C1043 C 0.78165 0.66068 0.19997 0.0
C1044 C 0.77567 0.6299 0.18338 0.0
H1045 H 0.59491 0.7041 0.16116 0.0
H1046 H 0.6477 0.69909 0.19 0.0
C1047 C 0.79338 0.6021 0.19169 0.0
C1048 C 0.75966 0.6887 0.19285 0.0
H1049 H 0.69563 0.73336 0.22628 0.0
C1050 C 0.75498 0.69622 0.15958 0.0
C1051 C 0.7388 0.70333 0.21743 0.0
C1052 C 0.74169 0.69533 0.25344 0.0
C1053 C 0.72776 0.71468 0.14971 0.0
C1054 C 0.70577 0.72783 0.17413 0.0
C1055 C 0.71262 0.7234 0.20773 0.0
C1056 C 0.67215 0.73883 0.16487 0.0
C1057 C 0.72082 0.71668 0.11302 0.0
C1058 C 0.66752 0.76454 0.1431 0.0
C1059 C 0.63723 0.76722 0.12638 0.0
C1060 C 0.61126 0.74467 0.1319 0.0
C1061 C 0.61459 0.72188 0.15679 0.0
C1062 C 0.64481 0.71902 0.17322 0.0
H1063 H 0.73866 0.70216 0.09752 0.0
H1064 H 0.69536 0.70729 0.10713 0.0
H1065 H 0.72242 0.74276 0.10581 0.0
H1066 H 0.68808 0.78058 0.13689 0.0
H1067 H 0.63516 0.7848 0.10704 0.0
H1068 H 0.66208 0.60267 0.58896 0.0
H1069 H 0.62403 0.55632 0.59777 0.0
H1070 H 0.65068 0.51236 0.50234 0.0
H1071 H 0.6871 0.55964 0.49255 0.0
H1072 H 0.58929 0.50239 0.51148 0.0
H1073 H 0.65294 0.46976 0.6275 0.0
H1074 H 0.63733 0.51099 0.62844 0.0
H1075 H 0.66975 0.49952 0.59995 0.0
C1076 C 0.65942 0.58326 0.56972 0.0
C1077 C 0.67769 0.58454 0.54016 0.0
C1078 C 0.63792 0.55663 0.57495 0.0
C1079 C 0.63519 0.53025 0.55129 0.0
C1080 C 0.65243 0.53228 0.52115 0.0
H1081 H 0.61775 0.33031 0.55091 0.0
H1082 H 0.62605 0.38762 0.5699 0.0
C1083 C 0.67324 0.55931 0.51551 0.0
C1084 C 0.61525 0.50005 0.55783 0.0
H1085 H 0.60857 0.43577 0.60958 0.0
C1086 C 0.59297 0.4881 0.53325 0.0
C1087 C 0.62063 0.48111 0.58602 0.0
C1088 C 0.64664 0.4907 0.61184 0.0
C1089 C 0.57743 0.45702 0.53485 0.0
C1090 C 0.5833 0.43768 0.56271 0.0
C1091 C 0.60371 0.45074 0.58851 0.0
C1092 C 0.57502 0.4017 0.56186 0.0
C1093 C 0.5574 0.44422 0.50514 0.0
C1094 C 0.54294 0.38955 0.55408 0.0
C1095 C 0.53836 0.35669 0.54231 0.0
C1096 C 0.5657 0.33559 0.53914 0.0
C1097 C 0.59642 0.34631 0.5525 0.0
C1098 C 0.60114 0.37918 0.56342 0.0
H1099 H 0.55997 0.46033 0.48368 0.0
H1100 H 0.56526 0.41894 0.49708 0.0
H1101 H 0.53074 0.44323 0.51176 0.0
H1102 H 0.52209 0.40611 0.55415 0.0
H1103 H 0.51429 0.34897 0.5325 0.0
H1104 H 0.19961 0.90768 0.26656 0.0
H1105 H 0.23869 0.86326 0.25268 0.0
H1106 H 0.26918 0.91383 0.16572 0.0
H1107 H 0.22967 0.95754 0.17879 0.0
H1108 H 0.263 0.84789 0.15314 0.0
H1109 H 0.33763 0.87317 0.26799 0.0
H1110 H 0.29479 0.86213 0.27385 0.0
H1111 H 0.30539 0.90045 0.2554 0.0
C1112 C 0.21442 0.9091 0.24429 0.0
C1113 C 0.21176 0.93627 0.22391 0.0
C1114 C 0.23691 0.88382 0.23654 0.0
C1115 C 0.25738 0.88555 0.20854 0.0
C1116 C 0.25374 0.912 0.18753 0.0
H1117 H 0.44548 0.84249 0.14518 0.0
H1118 H 0.39637 0.85703 0.17764 0.0
C1119 C 0.23114 0.93704 0.19506 0.0
C1120 C 0.2836 0.86083 0.20125 0.0
H1121 H 0.35886 0.83498 0.22853 0.0
C1122 C 0.28373 0.84455 0.16981 0.0
C1123 C 0.3106 0.85656 0.22312 0.0
C1124 C 0.31242 0.87412 0.25689 0.0
C1125 C 0.31104 0.82601 0.1587 0.0
C1126 C 0.33866 0.82283 0.18006 0.0
C1127 C 0.33756 0.83724 0.21234 0.0
C1128 C 0.37087 0.81023 0.16732 0.0
C1129 C 0.31108 0.81227 0.12327 0.0
C1130 C 0.37378 0.77831 0.1524 0.0
C1131 C 0.40198 0.77002 0.13367 0.0
C1132 C 0.42762 0.79342 0.1302 0.0
C1133 C 0.42607 0.824 0.14786 0.0
C1134 C 0.39796 0.83232 0.1663 0.0
H1135 H 0.29006 0.82154 0.10861 0.0
H1136 H 0.3346 0.81888 0.11073 0.0
H1137 H 0.30896 0.7849 0.12305 0.0
H1138 H 0.35344 0.76063 0.15345 0.0
H1139 H 0.40262 0.74643 0.11992 0.0
H1140 H 0.16477 0.94069 0.52525 0.0
H1141 H 0.12976 0.98877 0.51954 0.0
H1142 H 0.13497 0.97581 0.41291 0.0
H1143 H 0.17079 0.92846 0.41859 0.0
H1144 H 0.14911 0.03416 0.42558 0.0
H1145 H 0.0383 0.01304 0.49872 0.0
H1146 H 0.07226 0.00528 0.52563 0.0
H1147 H 0.06625 0.97977 0.48808 0.0
C1148 C 0.15768 0.94756 0.50061 0.0
C1149 C 0.17099 0.93113 0.4724 0.0
C1150 C 0.13736 0.97501 0.49728 0.0
C1151 C 0.12937 0.98612 0.46568 0.0
C1152 C 0.14067 0.96801 0.43754 0.0
H1153 H 0.03362 0.17658 0.50337 0.0
H1154 H 0.0391 0.12143 0.47729 0.0
C1155 C 0.16126 0.94088 0.44085 0.0
C1156 C 0.11377 0.01904 0.46235 0.0
H1157 H 0.06034 0.07122 0.50279 0.0
C1158 C 0.12901 0.04194 0.44182 0.0
C1159 C 0.08637 0.02936 0.48179 0.0
C1160 C 0.06462 0.00525 0.4993 0.0
C1161 C 0.11993 0.07535 0.4431 0.0
C1162 C 0.0967 0.08666 0.46717 0.0
C1163 C 0.0792 0.06317 0.4852 0.0
C1164 C 0.09286 0.12244 0.47669 0.0
C1165 C 0.13584 0.09808 0.41894 0.0
C1166 C 0.1211 0.14216 0.48411 0.0
C1167 C 0.118 0.17412 0.49812 0.0
C1168 C 0.08659 0.18688 0.50618 0.0
C1169 C 0.05823 0.16778 0.49732 0.0
C1170 C 0.06135 0.13596 0.48264 0.0
H1171 H 0.13935 0.08489 0.39447 0.0
H1172 H 0.12071 0.12035 0.41529 0.0
H1173 H 0.1608 0.10592 0.42824 0.0
H1174 H 0.14577 0.13233 0.48074 0.0
H1175 H 0.14041 0.1883 0.50401 0.0
H1176 H 0.77812 0.47784 0.33817 0.0
H1177 H 0.73872 0.43836 0.36113 0.0
H1178 H 0.7429 0.37781 0.27054 0.0
H1179 H 0.78282 0.41665 0.24775 0.0
H1180 H 0.67733 0.41738 0.33948 0.0
H1181 H 0.76363 0.31147 0.33992 0.0
H1182 H 0.77757 0.35318 0.33319 0.0
H1183 H 0.75795 0.32881 0.30016 0.0
C1184 C 0.77061 0.45611 0.32312 0.0
C1185 C 0.78377 0.45019 0.29125 0.0
C1186 C 0.74812 0.4336 0.33627 0.0
C1187 C 0.73836 0.40484 0.31777 0.0
C1188 C 0.75071 0.3994 0.28557 0.0
H1189 H 0.57062 0.29156 0.39617 0.0
H1190 H 0.6072 0.31481 0.35431 0.0
C1191 C 0.77337 0.42175 0.2725 0.0
C1192 C 0.71514 0.38075 0.33233 0.0
H1193 H 0.70872 0.30141 0.35747 0.0
C1194 C 0.68404 0.39194 0.34318 0.0
C1195 C 0.7241 0.34761 0.33723 0.0
C1196 C 0.75772 0.33452 0.32731 0.0
C1197 C 0.66199 0.37122 0.35966 0.0
C1198 C 0.67097 0.33809 0.3647 0.0
C1199 C 0.70173 0.32663 0.35309 0.0
C1200 C 0.65075 0.31669 0.38589 0.0
C1201 C 0.63003 0.38554 0.37307 0.0
C1202 C 0.6638 0.30766 0.41638 0.0
C1203 C 0.64316 0.29398 0.43999 0.0
C1204 C 0.60912 0.28915 0.43351 0.0
C1205 C 0.59678 0.29499 0.40174 0.0
C1206 C 0.61755 0.30863 0.378 0.0
H1207 H 0.62985 0.41296 0.37245 0.0
H1208 H 0.60892 0.37562 0.3578 0.0
H1209 H 0.62594 0.3785 0.39904 0.0
H1210 H 0.6894 0.31341 0.42288 0.0
H1211 H 0.65329 0.28943 0.46423 0.0
H1212 H 0.76378 0.55361 0.82127 0.0
H1213 H 0.80628 0.59309 0.84151 0.0
H1214 H 0.79327 0.64997 0.75472 0.0
H1215 H 0.75033 0.61047 0.73415 0.0
H1216 H 0.86269 0.63498 0.7741 0.0
H1217 H 0.78751 0.6907 0.87634 0.0
H1218 H 0.78602 0.64626 0.87421 0.0
H1219 H 0.76923 0.66869 0.84068 0.0
C1220 C 0.76989 0.57448 0.80642 0.0
C1221 C 0.75359 0.57904 0.7762 0.0
C1222 C 0.79407 0.59708 0.81809 0.0
C1223 C 0.80246 0.6246 0.79978 0.0
C1224 C 0.78685 0.62896 0.76925 0.0
H1225 H 0.93474 0.75296 0.92134 0.0
H1226 H 0.89488 0.74166 0.87591 0.0
C1227 C 0.76239 0.60642 0.7576 0.0
C1228 C 0.82802 0.64821 0.81286 0.0
H1229 H 0.84681 0.6956 0.88238 0.0
C1230 C 0.85912 0.64895 0.79736 0.0
C1231 C 0.82302 0.66696 0.84274 0.0
C1232 C 0.78953 0.66845 0.85934 0.0
C1233 C 0.88623 0.66564 0.81267 0.0
C1234 C 0.88202 0.68147 0.84433 0.0
C1235 C 0.85015 0.68326 0.85822 0.0
C1236 C 0.91056 0.69124 0.86594 0.0
C1237 C 0.9194 0.66498 0.79545 0.0
C1238 C 0.93304 0.66694 0.87478 0.0
C1239 C 0.95556 0.6733 0.90057 0.0
C1240 C 0.95593 0.70403 0.91816 0.0
C1241 C 0.93501 0.72914 0.90797 0.0
C1242 C 0.91227 0.7227 0.88213 0.0
H1243 H 0.91619 0.66409 0.76807 0.0
H1244 H 0.93496 0.68692 0.80297 0.0
H1245 H 0.93276 0.64235 0.80196 0.0
H1246 H 0.9317 0.64225 0.86327 0.0
H1247 H 0.97158 0.65361 0.90794 0.0
H1248 H 0.42549 0.84323 0.58801 0.0
H1249 H 0.42578 0.88324 0.54421 0.0
H1250 H 0.53218 0.87612 0.53705 0.0
H1251 H 0.5321 0.83605 0.58051 0.0
H1252 H 0.50725 0.94192 0.53057 0.0
H1253 H 0.44125 0.84846 0.44795 0.0
H1254 H 0.42186 0.86054 0.48662 0.0
H1255 H 0.45968 0.83762 0.4867 0.0
C1256 C 0.44901 0.85058 0.57748 0.0
C1257 C 0.47877 0.83616 0.58758 0.0
C1258 C 0.4491 0.87343 0.55236 0.0
C1259 C 0.47892 0.88226 0.5369 0.0
C1260 C 0.50883 0.86957 0.54848 0.0
H1261 H 0.57777 0.94805 0.37291 0.0
H1262 H 0.55629 0.93948 0.42836 0.0
C1263 C 0.50875 0.84665 0.5734 0.0
C1264 C 0.47924 0.90203 0.50669 0.0
H1265 H 0.46313 0.89514 0.42349 0.0
C1266 C 0.49714 0.93205 0.50727 0.0
C1267 C 0.46551 0.88937 0.47629 0.0
C1268 C 0.44611 0.85717 0.47403 0.0
C1269 C 0.50328 0.94874 0.47804 0.0
C1270 C 0.492 0.93459 0.44729 0.0
C1271 C 0.47197 0.90592 0.44703 0.0
C1272 C 0.50475 0.94602 0.41507 0.0
C1273 C 0.52233 0.98107 0.48016 0.0
C1274 C 0.48307 0.95292 0.38896 0.0
C1275 C 0.49547 0.95786 0.35704 0.0
C1276 C 0.52966 0.95555 0.35077 0.0
C1277 C 0.55136 0.95036 0.37725 0.0
C1278 C 0.53905 0.9456 0.409 0.0
H1279 H 0.5147 -0.0025 0.46027 0.0
H1280 H 0.51855 -0.0058 0.50449 0.0
H1281 H 0.54922 0.9762 0.4775 0.0
H1282 H 0.45649 0.95304 0.39296 0.0
H1283 H 0.47824 0.9613 0.33688 0.0
H1284 H 0.388 0.31611 0.80013 0.0
H1285 H 0.34113 0.31819 0.76221 0.0
H1286 H 0.36072 0.21852 0.7258 0.0
H1287 H 0.40754 0.21603 0.76463 0.0
H1288 H 0.36275 0.26395 0.67799 0.0
H1289 H 0.24717 0.284 0.74878 0.0
H1290 H 0.28179 0.30609 0.76729 0.0
H1291 H 0.28193 0.26157 0.7647 0.0
C1292 C 0.38168 0.29425 0.78481 0.0
C1293 C 0.40146 0.26601 0.78513 0.0
C1294 C 0.35455 0.29526 0.76345 0.0
C1295 C 0.34678 0.26818 0.74171 0.0
C1296 C 0.36565 0.23932 0.743 0.0
H1297 H 0.26551 0.34889 0.56148 0.0
H1298 H 0.2691 0.30263 0.59853 0.0
C1299 C 0.39251 0.23803 0.765 0.0
C1300 C 0.32402 0.27339 0.71362 0.0
H1301 H 0.25266 0.31427 0.6979 0.0
C1302 C 0.33807 0.27372 0.6819 0.0
C1303 C 0.29169 0.2857 0.71868 0.0
C1304 C 0.27458 0.28395 0.75168 0.0
C1305 C 0.32281 0.29047 0.65644 0.0
C1306 C 0.29233 0.3065 0.66284 0.0
C1307 C 0.27622 0.30231 0.69319 0.0
C1308 C 0.28156 0.33354 0.64201 0.0
C1309 C 0.34128 0.29414 0.62426 0.0
C1310 C 0.28546 0.36622 0.65469 0.0
C1311 C 0.28319 0.39258 0.63379 0.0
C1312 C 0.27703 0.38676 0.59976 0.0
C1313 C 0.2704 0.35415 0.58759 0.0
C1314 C 0.27257 0.32769 0.60865 0.0
H1315 H 0.36547 0.28129 0.62398 0.0
H1316 H 0.32608 0.28367 0.60328 0.0
H1317 H 0.34591 0.32073 0.62002 0.0
H1318 H 0.29235 0.37125 0.68042 0.0
H1319 H 0.28769 0.41746 0.644 0.0
H1320 H 0.08033 0.1284 0.09132 0.0
H1321 H 0.1001 0.09233 0.04536 0.0
H1322 H 0.01737 0.12063 0.98546 0.0
H1323 H -0.00288 0.15614 0.03121 0.0
H1324 H 0.02717 0.05381 0.9834 0.0
H1325 H 0.1465 0.12049 0.96147 0.0
H1326 H 0.13841 0.10638 0.00232 0.0
H1327 H 0.11402 0.1389 0.98652 0.0
C1328 C 0.06639 0.12691 0.0683 0.0
C1329 C 0.03722 0.14522 0.06473 0.0
C1330 C 0.07786 0.10641 0.04206 0.0
C1331 C 0.0605 0.10407 0.0119 0.0
C1332 C 0.03119 0.12204 0.00856 0.0
H1333 H 0.06814 0.10183 0.81955 0.0
H1334 H 0.08901 0.10319 0.87598 0.0
C1335 C 0.01961 0.14234 0.03471 0.0
C1336 C 0.072 0.08302 0.98334 0.0
H1337 H 0.1284 0.08178 0.92044 0.0
C1338 C 0.04963 0.0593 0.96979 0.0
C1339 C 0.10172 0.08989 0.96624 0.0
C1340 C 0.12661 0.11535 0.97963 0.0
C1341 C 0.05382 0.04534 0.93771 0.0
C1342 C 0.08215 0.05447 0.91911 0.0
C1343 C 0.10669 0.07495 0.93455 0.0
C1344 C 0.08215 0.05058 0.88225 0.0
C1345 C 0.02587 0.02403 0.92309 0.0
C1346 C 0.07477 0.02013 0.8655 0.0
C1347 C 0.06146 0.01954 0.83335 0.0
C1348 C 0.0567 0.04932 0.81741 0.0
C1349 C 0.07046 0.07867 0.83177 0.0
C1350 C 0.08268 0.07939 0.86409 0.0
H1351 H 0.00415 0.0228 0.93993 0.0
H1352 H 0.01724 0.0338 0.89933 0.0
H1353 H 0.03465 -0.00158 0.9183 0.0
H1354 H 0.07589 -0.00271 0.87839 0.0
H1355 H 0.05171 -0.00362 0.82264 0.0
H1356 H 0.11697 0.7173 0.24868 0.0
H1357 H 0.15595 0.68184 0.21809 0.0
H1358 H 0.13383 0.60235 0.28259 0.0
H1359 H 0.09424 0.63752 0.31301 0.0
H1360 H 0.21282 0.64839 0.23871 0.0
H1361 H 0.11412 0.56137 0.19022 0.0
H1362 H 0.10476 0.60106 0.20983 0.0
H1363 H 0.11625 0.56718 0.23456 0.0
C1364 C 0.1203 0.69226 0.25637 0.0
C1365 C 0.10216 0.68008 0.28306 0.0
C1366 C 0.14276 0.6721 0.23897 0.0
C1367 C 0.14756 0.63941 0.2479 0.0
C1368 C 0.1301 0.62736 0.27498 0.0
H1369 H 0.23572 0.48858 0.11938 0.0
H1370 H 0.22416 0.51608 0.17326 0.0
C1371 C 0.10746 0.64746 0.2923 0.0
C1372 C 0.1697 0.61772 0.2277 0.0
H1373 H 0.16846 0.55108 0.17302 0.0
C1374 C 0.20329 0.62684 0.22461 0.0
C1375 C 0.1572 0.58959 0.20947 0.0
C1376 C 0.12109 0.57924 0.21086 0.0
C1377 C 0.22453 0.60905 0.203 0.0
C1378 C 0.21165 0.58175 0.18377 0.0
C1379 C 0.17844 0.57183 0.18802 0.0
C1380 C 0.23019 0.56563 0.15591 0.0
C1381 C 0.26034 0.61995 0.2006 0.0
C1382 C 0.23973 0.5843 0.12892 0.0
C1383 C 0.24674 0.56859 0.09825 0.0
C1384 C 0.24379 0.53404 0.0941 0.0
C1385 C 0.23818 0.51526 0.12205 0.0
C1386 C 0.23144 0.53096 0.15277 0.0
H1387 H 0.2691 0.63217 0.22429 0.0
H1388 H 0.27669 0.59877 0.19414 0.0
H1389 H 0.26272 0.63823 0.18102 0.0
H1390 H 0.23837 0.61103 0.13049 0.0
H1391 H 0.25057 0.58362 0.077 0.0
H1392 H 0.54751 0.14694 0.9099 0.0
H1393 H 0.55106 0.10794 0.95404 0.0
H1394 H 0.44859 0.12526 0.9788 0.0
H1395 H 0.44452 0.16334 0.93399 0.0
H1396 H 0.54852 0.11414 0.01395 0.0
H1397 H 0.44199 0.03075 0.98362 0.0
H1398 H 0.45713 0.06002 0.95481 0.0
H1399 H 0.42956 0.07274 0.98798 0.0
C1400 C 0.52547 0.14171 0.92416 0.0
C1401 C 0.4956 0.15786 0.91814 0.0
C1402 C 0.52749 0.11921 0.94932 0.0
C1403 C 0.49975 0.11212 0.96895 0.0
C1404 C 0.46992 0.12852 0.96301 0.0
H1405 H 0.48287 0.05127 0.16455 0.0
H1406 H 0.47073 0.06433 0.10714 0.0
C1407 C 0.4677 0.15071 0.93753 0.0
C1408 C 0.50311 0.08987 -0.00272 0.0
H1409 H 0.46491 0.0275 0.0381 0.0
C1410 C 0.53048 0.09481 0.01868 0.0
C1411 C 0.47959 0.06462 0.0039 0.0
C1412 C 0.45064 0.05653 0.98112 0.0
C1413 C 0.53428 0.07632 0.04696 0.0
C1414 C 0.51015 0.05201 0.05416 0.0
C1415 C 0.48327 0.04625 0.03247 0.0
C1416 C 0.51098 0.03551 0.08617 0.0
C1417 C 0.56333 0.08403 0.06988 0.0
C1418 C 0.53628 0.01326 0.09306 0.0
C1419 C 0.54303 0.00555 0.12587 0.0
C1420 C 0.52449 0.01996 0.15201 0.0
C1421 C 0.49711 0.03947 0.1447 0.0
C1422 C 0.49027 0.04703 0.11195 0.0
H1423 H 0.57782 0.10608 0.06258 0.0
H1424 H 0.55456 0.08841 0.09576 0.0
H1425 H 0.58021 0.06258 0.06956 0.0
H1426 H 0.5525 0.00411 0.07346 0.0
H1427 H 0.56462 0.99095 0.13103 0.0
H1428 H 0.06658 0.27077 0.22869 0.0
H1429 H 0.1011 0.29555 0.27325 0.0
H1430 H 0.12794 0.19848 0.3032 0.0
H1431 H 0.09316 0.17333 0.25892 0.0
H1432 H 0.10991 0.24071 0.35597 0.0
H1433 H 0.20265 0.30059 0.2767 0.0
H1434 H 0.16099 0.31069 0.26553 0.0
H1435 H 0.17445 0.26849 0.26096 0.0
C1436 C 0.07983 0.25464 0.24468 0.0
C1437 C 0.07716 0.22008 0.24015 0.0
C1438 C 0.09976 0.26885 0.26997 0.0
C1439 C 0.11756 0.2488 0.29104 0.0
C1440 C 0.11461 0.21433 0.28697 0.0
H1441 H 0.25018 0.36535 0.42538 0.0
H1442 H 0.23258 0.31722 0.38996 0.0
C1443 C 0.09468 0.20006 0.26167 0.0
C1444 C 0.13816 0.26416 0.31806 0.0
H1445 H 0.1981 0.3232 0.33286 0.0
C1446 C 0.12965 0.25828 0.351 0.0
C1447 C 0.16452 0.28631 0.31154 0.0
C1448 C 0.17646 0.29163 0.27675 0.0
C1449 C 0.14501 0.27612 0.37754 0.0
C1450 C 0.169 0.30075 0.37079 0.0
C1451 C 0.17942 0.30458 0.33801 0.0
C1452 C 0.18003 0.32588 0.39634 0.0
C1453 C 0.13467 0.26916 0.41247 0.0
C1454 C 0.15633 0.34633 0.41188 0.0
C1455 C 0.16628 0.37362 0.43187 0.0
C1456 C 0.20013 0.38119 0.43651 0.0
C1457 C 0.22394 0.35992 0.42222 0.0
C1458 C 0.21393 0.33255 0.40203 0.0
H1459 H 0.12665 0.24292 0.41432 0.0
H1460 H 0.15514 0.27459 0.43045 0.0
H1461 H 0.11324 0.28487 0.41957 0.0
H1462 H 0.13008 0.34216 0.40726 0.0
H1463 H 0.14745 0.38946 0.44291 0.0
H1464 H 0.08538 0.81118 0.40041 0.0
H1465 H 0.10045 0.85771 0.43883 0.0
H1466 H 0.0142 0.83696 0.49798 0.0
H1467 H -0.00149 0.79138 0.45929 0.0
H1468 H 0.02193 0.90236 0.4885 0.0
H1469 H 0.14195 0.85058 0.52964 0.0
H1470 H 0.13669 0.85686 0.48616 0.0
H1471 H 0.11215 0.82589 0.50561 0.0
C1472 C 0.06962 0.81666 0.4216 0.0
C1473 C 0.04082 0.79752 0.42695 0.0
C1474 C 0.0784 0.84312 0.44362 0.0
C1475 C 0.05877 0.85051 0.47159 0.0
C1476 C 0.02976 0.83172 0.47657 0.0
H1477 H 0.04279 0.90622 0.66064 0.0
H1478 H 0.06646 0.88504 0.60847 0.0
C1479 C 0.02081 0.80561 0.45446 0.0
C1480 C 0.06787 0.87741 0.49632 0.0
H1481 H 0.12099 0.89558 0.56095 0.0
C1482 C 0.04403 0.90152 0.50383 0.0
C1483 C 0.09688 0.87632 0.51614 0.0
C1484 C 0.12341 0.85099 0.50925 0.0
C1485 C 0.04657 0.92221 0.53253 0.0
C1486 C 0.07444 0.91956 0.55367 0.0
C1487 C 0.09986 0.89766 0.54451 0.0
C1488 C 0.07324 0.93329 0.58826 0.0
C1489 C 0.01744 0.94377 0.54202 0.0
C1490 C 0.07211 0.96754 0.59536 0.0
C1491 C 0.05826 0.97972 0.62519 0.0
C1492 C 0.04597 0.95762 0.64816 0.0
C1493 C 0.05204 0.92368 0.64315 0.0
C1494 C 0.06554 0.91157 0.61333 0.0
H1495 H -0.00233 0.94279 0.52274 0.0
H1496 H 0.00658 0.93569 0.56565 0.0
H1497 H 0.02565 0.96987 0.54608 0.0
H1498 H 0.07877 0.98468 0.57667 0.0
H1499 H 0.05381 0.006 0.62856 0.0
H1500 H 0.38376 0.75841 0.72409 0.0
H1501 H 0.33728 0.75016 0.76236 0.0
H1502 H 0.33928 0.64515 0.73917 0.0
H1503 H 0.38518 0.65307 0.70113 0.0
H1504 H 0.27266 0.67332 0.74851 0.0
H1505 H 0.36231 0.70678 0.85073 0.0
H1506 H 0.35514 0.73557 0.81884 0.0
H1507 H 0.37665 0.69787 0.80902 0.0
C1508 C 0.37376 0.73368 0.72665 0.0
C1509 C 0.38851 0.7063 0.71006 0.0
C1510 C 0.34727 0.72903 0.74852 0.0
C1511 C 0.33513 0.69701 0.75382 0.0
C1512 C 0.34826 0.67007 0.73542 0.0
H1513 H 0.27415 0.54713 0.85608 0.0
H1514 H 0.2742 0.59079 0.81649 0.0
C1515 C 0.37471 0.67462 0.71387 0.0
C1516 C 0.31223 0.6901 0.78138 0.0
H1517 H 0.31614 0.67476 0.8636 0.0
C1518 C 0.28159 0.67454 0.77393 0.0
C1519 C 0.3236 0.69221 0.81461 0.0
C1520 C 0.35622 0.70892 0.82406 0.0
C1521 C 0.26368 0.65821 0.79829 0.0
C1522 C 0.27725 0.65673 0.83053 0.0
C1523 C 0.30584 0.67559 0.83881 0.0
C1524 C 0.2672 0.63066 0.8534 0.0
C1525 C 0.23135 0.64119 0.78876 0.0
C1526 C 0.26237 0.63823 0.88739 0.0
C1527 C 0.26247 0.61308 0.91015 0.0
C1528 C 0.26782 0.58015 0.8992 0.0
C1529 C 0.26991 0.57236 0.86505 0.0
C1530 C 0.2696 0.59735 0.84237 0.0
H1531 H 0.21777 0.65569 0.77049 0.0
H1532 H 0.23651 0.61657 0.77679 0.0
H1533 H 0.21521 0.63778 0.81065 0.0
H1534 H 0.26083 0.66375 0.89651 0.0
H1535 H 0.26111 0.61967 0.93643 0.0
H1536 H 0.58027 0.56854 0.83891 0.0
H1537 H 0.53686 0.55342 0.87722 0.0
H1538 H 0.57221 0.45315 0.87506 0.0
H1539 H 0.61512 0.46792 0.83529 0.0
H1540 H 0.51022 0.45146 0.86351 0.0
H1541 H 0.52647 0.53641 0.97217 0.0
H1542 H 0.5268 0.56065 0.93617 0.0
H1543 H 0.55859 0.53032 0.94147 0.0
C1544 C 0.57932 0.5434 0.84704 0.0
C1545 C 0.60092 0.51935 0.83368 0.0
C1546 C 0.55462 0.53484 0.86938 0.0
C1547 C 0.55139 0.5022 0.87953 0.0
C1548 C 0.57417 0.47851 0.86767 0.0
H1549 H 0.36564 0.50349 0.99025 0.0
H1550 H 0.42336 0.48716 0.98157 0.0
C1551 C 0.59865 0.48697 0.84487 0.0
C1552 C 0.52138 0.49225 0.89821 0.0
H1553 H 0.46839 0.5213 0.95802 0.0
C1554 C 0.50146 0.46624 0.88472 0.0
C1555 C 0.5102 0.51041 0.92673 0.0
C1556 C 0.53192 0.53572 0.94517 0.0
C1557 C 0.46933 0.46044 0.89656 0.0
C1558 C 0.45633 0.48195 0.92184 0.0
C1559 C 0.47768 0.50533 0.93793 0.0
C1560 C 0.42002 0.48463 0.92792 0.0
C1561 C 0.44938 0.4322 0.88054 0.0
C1562 C 0.39849 0.48771 0.90085 0.0
C1563 C 0.36539 0.49588 0.90576 0.0
C1564 C 0.3531 0.50275 0.93786 0.0
C1565 C 0.37416 0.49828 0.96516 0.0
C1566 C 0.4073 0.48917 0.96022 0.0
H1567 H 0.46539 0.41036 0.87578 0.0
H1568 H 0.42802 0.42483 0.89599 0.0
H1569 H 0.44006 0.43953 0.85607 0.0
H1570 H 0.40758 0.48558 0.87564 0.0
H1571 H 0.34977 0.49825 0.88413 0.0
H1572 H 0.77145 0.28442 0.13394 0.0
H1573 H 0.75198 0.24696 0.17625 0.0
H1574 H 0.65327 0.24837 0.13501 0.0
H1575 H 0.6724 0.28546 0.09266 0.0
H1576 H 0.66218 0.25392 0.21183 0.0
H1577 H 0.72342 0.14769 0.14493 0.0
H1578 H 0.74646 0.18555 0.15377 0.0
H1579 H 0.71348 0.18473 0.12385 0.0
C1580 C 0.74549 0.27713 0.1342 0.0
C1581 C 0.7235 0.28771 0.1098 0.0
C1582 C 0.73446 0.25573 0.15835 0.0
C1583 C 0.70125 0.24487 0.1586 0.0
C1584 C 0.67898 0.25657 0.13524 0.0
H1585 H 0.55279 0.1203 0.21795 0.0
H1586 H 0.58931 0.16803 0.21252 0.0
C1587 C 0.69 0.27767 0.11099 0.0
C1588 C 0.68981 0.21924 0.18119 0.0
H1589 H 0.68503 0.13545 0.18602 0.0
C1590 C 0.66764 0.22802 0.20673 0.0
C1591 C 0.69748 0.18558 0.17487 0.0
C1592 C 0.72145 0.17502 0.14787 0.0
C1593 C 0.6514 0.20377 0.22486 0.0
C1594 C 0.65661 0.16989 0.21636 0.0
C1595 C 0.68078 0.16133 0.19253 0.0
C1596 C 0.63392 0.14325 0.22746 0.0
C1597 C 0.62824 0.2148 0.25237 0.0
C1598 C 0.64645 0.11326 0.23824 0.0
C1599 C 0.62548 0.08555 0.24079 0.0
C1600 C 0.59169 0.08741 0.23242 0.0
C1601 C 0.57876 0.11814 0.22442 0.0
C1602 C 0.59966 0.14563 0.22167 0.0
H1603 H 0.63763 0.23797 0.26516 0.0
H1604 H 0.60361 0.22019 0.24166 0.0
H1605 H 0.62509 0.19562 0.27098 0.0
H1606 H 0.6728 0.11071 0.24272 0.0
H1607 H 0.63618 0.06213 0.24675 0.0
H1608 H 0.93688 0.56365 0.33024 0.0
H1609 H 0.98281 0.58039 0.36757 0.0
H1610 H 0.01259 0.47853 0.37058 0.0
H1611 H 0.96636 0.4616 0.33465 0.0
H1612 H 0.01405 0.50695 0.43022 0.0
H1613 H 0.0788 0.58957 0.34416 0.0
H1614 H 0.03746 0.60129 0.35582 0.0
H1615 H 0.04392 0.56392 0.33103 0.0
C1616 C 0.95326 0.54486 0.33891 0.0
C1617 C 0.94804 0.51127 0.32932 0.0
C1618 C 0.97968 0.55453 0.36001 0.0
C1619 C 0.00162 0.53083 0.37137 0.0
C1620 C -0.00392 0.49732 0.3621 0.0
H1621 H 0.19097 0.49615 0.40341 0.0
H1622 H 0.14164 0.52562 0.38822 0.0
C1623 C 0.96957 0.48764 0.3415 0.0
C1624 C 0.03036 0.53999 0.39317 0.0
H1625 H 0.10655 0.57783 0.39293 0.0
C1626 C 0.03402 0.52299 0.42245 0.0
C1627 C 0.05629 0.56121 0.38316 0.0
C1628 C 0.05417 0.57994 0.35175 0.0
C1629 C 0.06398 0.52368 0.44013 0.0
C1630 C 0.09098 0.54296 0.4287 0.0
C1631 C 0.08601 0.5629 0.40151 0.0
C1632 C 0.1257 0.5363 0.43885 0.0
C1633 C 0.06698 0.50123 0.46891 0.0
C1634 C 0.13525 0.53533 0.47234 0.0
C1635 C 0.16316 0.51728 0.4811 0.0
C1636 C 0.18224 0.50116 0.45631 0.0
C1637 C 0.17608 0.5076 0.42298 0.0
C1638 C 0.14785 0.52466 0.4143 0.0
H1639 H 0.0448 0.48493 0.47144 0.0
H1640 H 0.08901 0.48523 0.46588 0.0
H1641 H 0.06963 0.51643 0.49235 0.0
H1642 H 0.11949 0.54566 0.49175 0.0
H1643 H 0.16768 0.51317 0.50705 0.0
H1644 H 0.82799 0.75665 0.51135 0.0
H1645 H 0.84895 0.80256 0.5474 0.0
H1646 H 0.76201 0.79575 0.60888 0.0
H1647 H 0.74083 0.74959 0.57308 0.0
H1648 H 0.78687 0.86488 0.58831 0.0
H1649 H 0.87916 0.78532 0.64764 0.0
H1650 H 0.87712 0.78154 0.60307 0.0
H1651 H 0.8422 0.76878 0.62716 0.0
C1652 C 0.81318 0.76506 0.53237 0.0
C1653 C 0.78289 0.74935 0.53954 0.0
C1654 C 0.8252 0.79123 0.55292 0.0
C1655 C 0.80708 0.80221 0.58082 0.0
C1656 C 0.7763 0.78746 0.58745 0.0
H1657 H 0.92068 0.92707 0.72338 0.0
H1658 H 0.87425 0.89084 0.70451 0.0
C1659 C 0.76433 0.76111 0.56702 0.0
C1660 C 0.82122 0.82822 0.60367 0.0
H1661 H 0.88642 0.84343 0.65627 0.0
C1662 C 0.80831 0.86022 0.60363 0.0
C1663 C 0.8487 0.82178 0.62404 0.0
C1664 C 0.86256 0.78745 0.62584 0.0
C1665 C 0.82365 0.88654 0.62198 0.0
C1666 C 0.85267 0.88053 0.64046 0.0
C1667 C 0.86416 0.84805 0.64212 0.0
C1668 C 0.87429 0.90765 0.65432 0.0
C1669 C 0.8092 0.92063 0.62071 0.0
C1670 C 0.88889 0.92975 0.63267 0.0
C1671 C 0.91523 0.95022 0.64337 0.0
C1672 C 0.92747 0.94891 0.67587 0.0
C1673 C 0.91135 0.92868 0.69831 0.0
C1674 C 0.88499 0.90797 0.68752 0.0
H1675 H 0.78198 0.91928 0.61623 0.0
H1676 H 0.81407 0.93548 0.64407 0.0
H1677 H 0.82064 0.93365 0.59989 0.0
H1678 H 0.88164 0.92942 0.60679 0.0
H1679 H 0.92749 0.96556 0.62563 0.0
H1680 H 0.59413 0.59596 0.65193 0.0
H1681 H 0.54793 0.59084 0.61245 0.0
H1682 H 0.53096 0.49009 0.63982 0.0
H1683 H 0.57865 0.49429 0.67705 0.0
H1684 H 0.51882 0.49368 0.57815 0.0
H1685 H 0.45572 0.60106 0.64062 0.0
H1686 H 0.49472 0.61036 0.62181 0.0
H1687 H 0.4933 0.58445 0.65691 0.0
C1688 C 0.58061 0.57266 0.64927 0.0
C1689 C 0.58961 0.54566 0.66796 0.0
C1690 C 0.55402 0.56986 0.62691 0.0
C1691 C 0.53496 0.54055 0.6241 0.0
C1692 C 0.54497 0.51314 0.6417 0.0
H1693 H 0.33801 0.49106 0.61418 0.0
H1694 H 0.39257 0.51683 0.62182 0.0
C1695 C 0.57218 0.51557 0.66315 0.0
C1696 C 0.50358 0.53831 0.60456 0.0
H1697 H 0.4256 0.57009 0.60063 0.0
C1698 C 0.49849 0.51055 0.58288 0.0
C1699 C 0.4772 0.56075 0.61016 0.0
C1700 C 0.48029 0.59068 0.63378 0.0
C1701 C 0.4672 0.50301 0.56898 0.0
C1702 C 0.4404 0.52441 0.57616 0.0
C1703 C 0.44619 0.55371 0.59534 0.0
C1704 C 0.40546 0.51379 0.56971 0.0
C1705 C 0.46267 0.47088 0.54889 0.0
C1706 C 0.39386 0.50474 0.53768 0.0
C1707 C 0.36268 0.48934 0.53331 0.0
C1708 C 0.34258 0.48312 0.5609 0.0
C1709 C 0.35321 0.4948 0.59252 0.0
C1710 C 0.38433 0.50983 0.59688 0.0
H1711 H 0.48446 0.45458 0.55084 0.0
H1712 H 0.4404 0.45713 0.5572 0.0
H1713 H 0.45927 0.47624 0.52239 0.0
H1714 H 0.40944 0.50826 0.51626 0.0
H1715 H 0.35516 0.48069 0.5086 0.0
H1716 H 0.84515 0.25888 0.98109 0.0
H1717 H 0.86979 0.22167 0.93895 0.0
H1718 H 0.78373 0.23113 0.87653 0.0
H1719 H 0.75902 0.26892 0.91845 0.0
H1720 H 0.84591 0.16158 0.91199 0.0
H1721 H 0.86096 0.25413 0.81509 0.0
H1722 H 0.85205 0.2658 0.85781 0.0
H1723 H 0.8197 0.24906 0.8311 0.0
C1724 C 0.83141 0.25307 0.95843 0.0
C1725 C 0.80021 0.267 0.95303 0.0
C1726 C 0.84552 0.23177 0.93437 0.0
C1727 C 0.8288 0.22401 0.90443 0.0
C1728 C 0.79733 0.2373 0.89919 0.0
H1729 H 0.91218 0.06302 0.77812 0.0
H1730 H 0.87 0.09886 0.80393 0.0
C1731 C 0.78318 0.25871 0.92326 0.0
C1732 C 0.84458 0.20184 0.87901 0.0
H1733 H 0.87932 0.20014 0.80181 0.0
C1734 C 0.85289 0.16982 0.88774 0.0
C1735 C 0.8538 0.21284 0.84749 0.0
C1736 C 0.84646 0.2474 0.83724 0.0
C1737 C 0.87111 0.14881 0.86625 0.0
C1738 C 0.88068 0.15991 0.83485 0.0
C1739 C 0.87156 0.1916 0.82571 0.0
C1740 C 0.90356 0.14049 0.81314 0.0
C1741 C 0.88146 0.1156 0.87809 0.0
C1742 C 0.93571 0.15282 0.80783 0.0
C1743 C 0.95964 0.13262 0.79277 0.0
C1744 C 0.95184 0.0997 0.78276 0.0
C1745 C 0.91888 0.08829 0.78553 0.0
C1746 C 0.89488 0.10861 0.80058 0.0
H1747 H 0.87733 0.11347 0.90513 0.0
H1748 H 0.86673 0.09577 0.86479 0.0
H1749 H 0.90812 0.11124 0.87278 0.0
H1750 H 0.94287 0.17744 0.81711 0.0
H1751 H 0.98475 0.14216 0.79057 0.0
H1752 H 0.92537 0.4093 0.15678 0.0
H1753 H 0.96574 0.40604 0.11164 0.0
H1754 H 0.97845 0.51213 0.11868 0.0
H1755 H 0.93811 0.51557 0.16381 0.0
H1756 H 0.97925 0.48537 0.05296 0.0
H1757 H 0.06368 0.4185 0.13566 0.0
H1758 H 0.02267 0.40137 0.12951 0.0
H1759 H 0.02803 0.4407 0.15126 0.0
C1760 C 0.93644 0.43198 0.1484 0.0
C1761 C 0.92881 0.46273 0.16401 0.0
C1762 C 0.95946 0.43006 0.1226 0.0
C1763 C 0.97542 0.45879 0.11222 0.0
C1764 C 0.96638 0.48966 0.12637 0.0
H1765 H 0.14261 0.53858 0.02485 0.0
H1766 H 0.0854 0.52405 0.03784 0.0
C1767 C 0.94329 0.49161 0.15209 0.0
C1768 C 0.00382 0.45684 0.08913 0.0
H1769 H 0.08486 0.43408 0.08506 0.0
C1770 C 0.00221 0.47372 0.05963 0.0
C1771 C 0.03375 0.44163 0.098 0.0
C1772 C 0.03747 0.42469 0.13038 0.0
C1773 C 0.03014 0.47691 0.03929 0.0
C1774 C 0.06052 0.46287 0.04878 0.0
C1775 C 0.06153 0.44447 0.07744 0.0
C1776 C 0.09261 0.47106 0.0329 0.0
C1777 C 0.02664 0.4961 0.00843 0.0
C1778 C 0.11581 0.44622 0.02523 0.0
C1779 C 0.1488 0.45464 0.01824 0.0
C1780 C 0.15878 0.48797 0.01859 0.0
C1781 C 0.13511 0.51273 0.02368 0.0
C1782 C 0.10239 0.50438 0.03108 0.0
H1783 H 0.00414 0.48752 -0.00541 0.0
H1784 H 0.02332 0.52267 0.0155 0.0
H1785 H 0.04828 0.49355 0.99176 0.0
H1786 H 0.10896 0.42037 0.02692 0.0
H1787 H 0.16694 0.43524 0.01512 0.0
H1788 H 0.66102 0.68788 0.4011 0.0
H1789 H 0.64218 0.71876 0.35409 0.0
H1790 H 0.74359 0.73149 0.32259 0.0
H1791 H 0.76256 0.70003 0.36917 0.0
H1792 H 0.71147 0.78947 0.33289 0.0
H1793 H 0.63408 0.70536 0.25326 0.0
H1794 H 0.62157 0.70374 0.29577 0.0
H1795 H 0.66242 0.69039 0.28376 0.0
C1796 C 0.67922 0.69642 0.3836 0.0
C1797 C 0.71326 0.69162 0.38889 0.0
C1798 C 0.66841 0.71384 0.35655 0.0
C1799 C 0.69141 0.72697 0.33442 0.0
C1800 C 0.72534 0.72107 0.33894 0.0
H1801 H 0.62963 0.90844 0.24181 0.0
H1802 H 0.66375 0.8587 0.24161 0.0
C1803 C 0.73614 0.70316 0.36566 0.0
C1804 C 0.68029 0.75121 0.31036 0.0
H1805 H 0.62007 0.76398 0.25296 0.0
C1806 C 0.69204 0.78387 0.31477 0.0
C1807 C 0.65528 0.74369 0.28649 0.0
C1808 C 0.6429 0.70877 0.27931 0.0
C1809 C 0.67709 0.80983 0.29864 0.0
C1810 C 0.65003 0.80273 0.27677 0.0
C1811 C 0.64054 0.76955 0.2699 0.0
C1812 C 0.62726 0.82921 0.26684 0.0
C1813 C 0.68858 0.84478 0.30769 0.0
C1814 C 0.5942 0.82801 0.27768 0.0
C1815 C 0.57438 0.8559 0.27678 0.0
C1816 C 0.58734 0.8858 0.26554 0.0
C1817 C 0.61907 0.8859 0.25103 0.0
C1818 C 0.63877 0.8576 0.25133 0.0
H1819 H 0.70642 0.84593 0.32876 0.0
H1820 H 0.70122 0.8553 0.28609 0.0
H1821 H 0.66716 0.86061 0.31457 0.0
H1822 H 0.58443 0.80631 0.28928 0.0
H1823 H 0.54965 0.85474 0.28717 0.0
H1824 H 0.86727 0.59731 0.54319 0.0
H1825 H 0.90742 0.55314 0.53319 0.0
H1826 H 0.86048 0.52703 0.43933 0.0
H1827 H 0.82074 0.57158 0.44869 0.0
H1828 H 0.88743 0.48726 0.52557 0.0
H1829 H 0.96313 0.535 0.42983 0.0
H1830 H 0.92198 0.55036 0.43313 0.0
H1831 H 0.93102 0.51624 0.40441 0.0
C1832 C 0.86579 0.58251 0.52018 0.0
C1833 C 0.84069 0.58788 0.49681 0.0
C1834 C 0.88878 0.55734 0.51449 0.0
C1835 C 0.88707 0.53702 0.48541 0.0
C1836 C 0.86257 0.54281 0.46168 0.0
H1837 H 0.94397 0.33576 0.46839 0.0
H1838 H 0.92326 0.38888 0.45137 0.0
C1839 C 0.83981 0.56822 0.46715 0.0
C1840 C 0.9083 0.50749 0.48171 0.0
H1841 H 0.96607 0.46856 0.4323 0.0
C1842 C 0.90476 0.48331 0.50529 0.0
C1843 C 0.93075 0.50229 0.45508 0.0
C1844 C 0.93662 0.52757 0.42937 0.0
C1845 C 0.92265 0.45392 0.50284 0.0
C1846 C 0.94494 0.44854 0.47616 0.0
C1847 C 0.94891 0.47277 0.45267 0.0
C1848 C 0.96394 0.41752 0.47338 0.0
C1849 C 0.91789 0.4288 0.52909 0.0
C1850 C -0.00492 0.4159 0.48888 0.0
C1851 C 0.00687 0.38551 0.49891 0.0
C1852 C 0.98764 0.3566 0.49322 0.0
C1853 C 0.95915 0.35778 0.47314 0.0
C1854 C 0.9473 0.3881 0.46337 0.0
H1855 H 0.90265 0.43848 0.55019 0.0
H1856 H 0.9053 0.40638 0.51797 0.0
H1857 H 0.94227 0.4212 0.53886 0.0
H1858 H 0.0085 0.43834 0.4964 0.0
H1859 H 0.02886 0.38525 0.51439 0.0
H1860 H 0.29908 0.96231 0.55428 0.0
H1861 H 0.34021 0.00595 0.56768 0.0
H1862 H 0.41724 0.94439 0.52506 0.0
H1863 H 0.37543 0.90209 0.50883 0.0
H1864 H 0.39428 0.01722 0.6013 0.0
H1865 H 0.42797 0.01894 0.46762 0.0
H1866 H 0.39428 0.99378 0.48194 0.0
H1867 H 0.4366 0.98071 0.48625 0.0
C1868 C 0.32487 0.9581 0.54808 0.0
C1869 C 0.33416 0.9293 0.53004 0.0
C1870 C 0.34842 0.98295 0.55583 0.0
C1871 C 0.38175 0.97902 0.54635 0.0
C1872 C 0.3915 0.94869 0.5313 0.0
H1873 H 0.52047 0.14138 0.51846 0.0
H1874 H 0.50461 0.0876 0.53974 0.0
C1875 C 0.36773 0.92441 0.52234 0.0
C1876 C 0.4051 0.00782 0.5494 0.0
H1877 H 0.45309 0.05844 0.50325 0.0
C1878 C 0.40728 0.02611 0.57987 0.0
C1879 C 0.42249 0.01939 0.52155 0.0
C1880 C 0.42006 0.0024 0.48747 0.0
C1881 C 0.42519 0.05618 0.58284 0.0
C1882 C 0.44139 0.06816 0.5547 0.0
C1883 C 0.44081 0.04902 0.52486 0.0
C1884 C 0.45491 0.10232 0.55358 0.0
C1885 C 0.4265 0.07502 0.61589 0.0
C1886 C 0.43287 0.12887 0.55599 0.0
C1887 C 0.44187 0.15944 0.54375 0.0
C1888 C 0.47307 0.16392 0.52906 0.0
C1889 C 0.49644 0.13859 0.53007 0.0
C1890 C 0.48735 0.10786 0.54211 0.0
H1891 H 0.42183 0.05847 0.63666 0.0
H1892 H 0.45097 0.08758 0.61976 0.0
H1893 H 0.40705 0.09418 0.61658 0.0
H1894 H 0.40755 0.12507 0.56409 0.0
H1895 H 0.42337 0.17858 0.54289 0.0
H1896 H 0.30552 0.09841 0.67567 0.0
H1897 H 0.27447 0.14516 0.65724 0.0
H1898 H 0.29931 0.20064 0.74789 0.0
H1899 H 0.33002 0.15309 0.76711 0.0
H1900 H 0.23624 0.20581 0.73594 0.0
H1901 H 0.29873 0.22968 0.6182 0.0
H1902 H 0.28955 0.1865 0.61967 0.0
H1903 H 0.31783 0.20579 0.64968 0.0
C1904 C 0.30501 0.12072 0.69152 0.0
C1905 C 0.32035 0.12199 0.72285 0.0
C1906 C 0.28749 0.14771 0.68073 0.0
C1907 C 0.28533 0.17696 0.70065 0.0
C1908 C 0.30106 0.17857 0.73182 0.0
H1909 H 0.15409 0.29629 0.58425 0.0
H1910 H 0.20092 0.29164 0.62298 0.0
C1911 C 0.31862 0.15138 0.74276 0.0
C1912 C 0.26355 0.20394 0.68998 0.0
H1913 H 0.2393 0.241 0.61988 0.0
C1914 C 0.2374 0.21419 0.71081 0.0
C1915 C 0.26553 0.21623 0.65774 0.0
C1916 C 0.29472 0.20926 0.63528 0.0
C1917 C 0.21128 0.23306 0.69891 0.0
C1918 C 0.21084 0.24097 0.6651 0.0
C1919 C 0.23897 0.23424 0.64558 0.0
C1920 C 0.17974 0.25005 0.64795 0.0
C1921 C 0.18379 0.24315 0.72238 0.0
C1922 C 0.1518 0.22904 0.64976 0.0
C1923 C 0.12521 0.23184 0.62793 0.0
C1924 C 0.126 0.25561 0.60372 0.0
C1925 C 0.15278 0.27815 0.60316 0.0
C1926 C 0.17954 0.27536 0.62513 0.0
H1927 H 0.19379 0.24831 0.74777 0.0
H1928 H 0.17083 0.26543 0.71422 0.0
H1929 H 0.16553 0.22249 0.72381 0.0
H1930 H 0.1516 0.20863 0.66621 0.0
H1931 H 0.10505 0.21386 0.62835 0.0
H1932 H 0.1747 0.05646 0.0249 0.0
H1933 H 0.135 0.01158 0.03245 0.0
H1934 H 0.11338 0.0511 0.13104 0.0
H1935 H 0.15454 0.09527 0.1241 0.0
H1936 H 0.12132 0.98985 0.13481 0.0
H1937 H 0.03833 0.00149 0.02832 0.0
H1938 H 0.07987 0.00146 0.01284 0.0
H1939 H 0.06678 0.03421 0.0416 0.0
C1940 C 0.16093 0.05598 0.0479 0.0
C1941 C 0.16752 0.07937 0.07384 0.0
C1942 C 0.13794 0.03044 0.05215 0.0
C1943 C 0.12034 0.0283 0.08206 0.0
C1944 C 0.12626 0.05234 0.10765 0.0
H1945 H 0.00666 0.84918 0.04707 0.0
H1946 H 0.0118 0.90341 0.07612 0.0
C1947 C 0.14979 0.07755 0.10367 0.0
C1948 C 0.09881 -0.00107 0.0875 0.0
H1949 H 0.04754 0.94459 0.04495 0.0
C1950 C 0.10438 0.98041 0.11561 0.0
C1951 C 0.07572 0.98688 0.06329 0.0
C1952 C 0.06457 0.00736 0.0351 0.0
C1953 C 0.09023 0.94872 0.11825 0.0
C1954 C 0.07098 0.93485 0.09164 0.0
C1955 C 0.06288 0.9547 0.06518 0.0
C1956 C 0.06409 0.89876 0.08728 0.0
C1957 C 0.0973 0.92996 0.14886 0.0
C1958 C 0.09098 0.877 0.08635 0.0
C1959 C 0.08786 0.84589 0.07027 0.0
C1960 C 0.05798 0.83626 0.05448 0.0
C1961 C 0.02988 0.85598 0.05933 0.0
C1962 C 0.03291 0.88712 0.07569 0.0
H1963 H 0.09889 0.94709 0.17111 0.0
H1964 H 0.07793 0.91082 0.15302 0.0
H1965 H 0.1217 0.91775 0.14613 0.0
H1966 H 0.11545 0.88537 0.0944 0.0
H1967 H 0.10991 0.83114 0.06657 0.0
H1968 H 0.72847 0.3991 0.75176 0.0
H1969 H 0.7696 0.3579 0.7337 0.0
H1970 H 0.77217 0.39866 0.6369 0.0
H1971 H 0.73127 0.43985 0.65457 0.0
H1972 H 0.7724 0.31231 0.66003 0.0
H1973 H 0.8688 0.4075 0.69541 0.0
H1974 H 0.8293 0.40528 0.71637 0.0
H1975 H 0.83154 0.42109 0.67563 0.0
C1976 C 0.73722 0.3988 0.72639 0.0
C1977 C 0.72686 0.42294 0.70467 0.0
C1978 C 0.76065 0.37523 0.71615 0.0
C1979 C 0.77383 0.37541 0.68405 0.0
C1980 C 0.76212 0.39817 0.66176 0.0
H1981 H 0.90144 0.29115 0.54482 0.0
H1982 H 0.85429 0.30074 0.58137 0.0
C1983 C 0.73883 0.42173 0.67195 0.0
C1984 C 0.80259 0.35479 0.67467 0.0
H1985 H 0.88594 0.3614 0.66239 0.0
C1986 C 0.79738 0.32266 0.66103 0.0
C1987 C 0.83508 0.3682 0.67665 0.0
C1988 C 0.84182 0.40235 0.69195 0.0
C1989 C 0.82386 0.30426 0.64748 0.0
C1990 C 0.85606 0.31879 0.64699 0.0
C1991 C 0.86138 0.35012 0.66269 0.0
C1992 C 0.88351 0.30464 0.62654 0.0
C1993 C 0.8169 0.26975 0.63328 0.0
C1994 C 0.91582 0.30288 0.63962 0.0
C1995 C 0.94304 0.29796 0.61852 0.0
C1996 C 0.93833 0.2949 0.58401 0.0
C1997 C 0.90579 0.2937 0.57132 0.0
C1998 C 0.87871 0.29879 0.59231 0.0
H1999 H 0.79659 0.25768 0.64711 0.0
H2000 H 0.80861 0.2711 0.60714 0.0
H2001 H 0.83927 0.25407 0.63395 0.0
H2002 H 0.92018 0.30748 0.66594 0.0
H2003 H 0.96784 0.29917 0.62897 0.0
H2004 H 0.65961 0.41369 0.9404 0.0
H2005 H 0.62431 0.46224 0.94462 0.0
H2006 H 0.66281 0.4859 0.04293 0.0
H2007 H 0.69671 0.4365 0.03939 0.0
H2008 H 0.60281 0.49994 0.04362 0.0
H2009 H 0.65247 0.55203 0.92844 0.0
H2010 H 0.63031 0.51375 0.92117 0.0
H2011 H 0.66857 0.51475 0.94458 0.0
C2012 C 0.66008 0.42902 0.96311 0.0
C2013 C 0.68103 0.42138 0.98952 0.0
C2014 C 0.6401 0.45703 0.96538 0.0
C2015 C 0.64135 0.47847 0.99375 0.0
C2016 C 0.66128 0.46995 0.02067 0.0
H2017 H 0.62144 0.68287 0.02754 0.0
H2018 H 0.63355 0.62727 0.00563 0.0
C2019 C 0.68068 0.44159 0.01869 0.0
C2020 C 0.62288 0.5102 -0.00434 0.0
H2021 H 0.61274 0.58338 0.95782 0.0
C2022 C 0.60493 0.51808 0.02472 0.0
C2023 C 0.62547 0.53406 0.971 0.0
C2024 C 0.64548 0.52838 0.93971 0.0
C2025 C 0.59095 0.54934 0.03057 0.0
C2026 C 0.59368 0.57313 0.00603 0.0
C2027 C 0.61038 0.56493 0.97639 0.0
C2028 C 0.58384 0.60798 0.01286 0.0
C2029 C 0.57562 0.5574 0.06403 0.0
C2030 C 0.55135 0.6162 0.02245 0.0
C2031 C 0.54448 0.64803 0.03555 0.0
C2032 C 0.56995 0.67207 0.03883 0.0
C2033 C 0.6015 0.66463 0.02594 0.0
C2034 C 0.6084 0.63289 0.01322 0.0
H2035 H 0.58157 0.53867 0.08235 0.0
H2036 H 0.58446 0.58194 0.07414 0.0
H2037 H 0.54826 0.55829 0.06138 0.0
H2038 H 0.5318 0.59755 0.02153 0.0
H2039 H 0.5199 0.65308 0.04517 0.0
H2040 H 0.27323 -0.00068 0.84489 0.0
H2041 H 0.23347 0.96067 0.86848 0.0
H2042 H 0.23388 0.9008 0.77738 0.0
H2043 H 0.27368 0.93929 0.75351 0.0
H2044 H 0.16852 0.91398 0.80668 0.0
H2045 H 0.25987 0.86523 0.89474 0.0
H2046 H 0.2575 0.90959 0.89545 0.0
H2047 H 0.27205 0.8875 0.85881 0.0
C2048 C 0.2647 0.97807 0.82978 0.0
C2049 C 0.27675 0.97221 0.79743 0.0
C2050 C 0.24214 0.95595 0.84334 0.0
C2051 C 0.23123 0.92771 0.82478 0.0
C2052 C 0.24225 0.92238 0.7921 0.0
H2053 H 0.12507 0.77257 0.92922 0.0
H2054 H 0.16095 0.79767 0.88759 0.0
C2055 C 0.26495 0.94438 0.77856 0.0
C2056 C 0.20864 0.90357 0.83981 0.0
H2057 H 0.20298 0.85169 0.90389 0.0
C2058 C 0.17608 0.9 0.82767 0.0
C2059 C 0.21887 0.88493 0.8667 0.0
C2060 C 0.25407 0.88668 0.87958 0.0
C2061 C 0.15286 0.8796 0.84305 0.0
C2062 C 0.16253 0.86264 0.87133 0.0
C2063 C 0.1956 0.86478 0.88224 0.0
C2064 C 0.13812 0.84577 0.89231 0.0
C2065 C 0.11803 0.87689 0.82934 0.0
C2066 C 0.11334 0.86443 0.90833 0.0
C2067 C 0.0932 0.8503 0.932 0.0
C2068 C 0.09749 0.81725 0.94019 0.0
C2069 C 0.12127 0.79805 0.92314 0.0
C2070 C 0.14171 0.81235 0.89951 0.0
H2071 H 0.11745 0.882 0.80252 0.0
H2072 H 0.1071 0.85195 0.83278 0.0
H2073 H 0.10227 0.89544 0.8426 0.0
H2074 H 0.11058 0.8904 0.90366 0.0
H2075 H 0.07488 0.86553 0.94474 0.0
H2076 H 0.23556 0.07707 0.33522 0.0
H2077 H 0.27841 0.11674 0.3538 0.0
H2078 H 0.27322 0.16397 0.26028 0.0
H2079 H 0.22983 0.12409 0.24131 0.0
H2080 H 0.33898 0.14802 0.28179 0.0
H2081 H 0.26969 0.21626 0.38037 0.0
H2082 H 0.26454 0.17232 0.38285 0.0
H2083 H 0.24932 0.19244 0.34704 0.0
C2084 C 0.2433 0.09598 0.3186 0.0
C2085 C 0.2293 0.09747 0.2868 0.0
C2086 C 0.26762 0.11881 0.32937 0.0
C2087 C 0.27852 0.14361 0.30863 0.0
C2088 C 0.2648 0.1452 0.27676 0.0
H2089 H 0.42572 0.26097 0.42481 0.0
H2090 H 0.38336 0.25344 0.38097 0.0
C2091 C 0.24012 0.12242 0.26599 0.0
C2092 C 0.30584 0.1661 0.32009 0.0
H2093 H 0.32946 0.21382 0.38799 0.0
C2094 C 0.3368 0.16323 0.3045 0.0
C2095 C 0.30281 0.18655 0.34921 0.0
C2096 C 0.26968 0.19239 0.36564 0.0
C2097 C 0.36547 0.17751 0.31926 0.0
C2098 C 0.36299 0.19454 0.35053 0.0
C2099 C 0.3315 0.20038 0.36423 0.0
C2100 C 0.3924 0.20118 0.37204 0.0
C2101 C 0.39833 0.17281 0.30202 0.0
C2102 C 0.41177 0.17448 0.38115 0.0
C2103 C 0.43563 0.1787 0.40606 0.0
C2104 C 0.44052 0.20968 0.42252 0.0
C2105 C 0.42247 0.23689 0.4123 0.0
C2106 C 0.39831 0.2326 0.38737 0.0
H2107 H 0.39507 0.17172 0.27464 0.0
H2108 H 0.41622 0.19305 0.30907 0.0
H2109 H 0.40904 0.14895 0.30896 0.0
H2110 H 0.40715 0.14985 0.37036 0.0
H2111 H 0.44936 0.15739 0.41343 0.0
loop_
_geom_bond_atom_site_label_1
_geom_bond_atom_site_label_2
_geom_bond_distance
_geom_bond_site_symmetry_2
_ccdc_geom_bond_type
C0 O1 1.306 . S
C0 O3 1.160 . S
O1 C0 1.306 . S
O1 Cd2 2.228 . S
Cd2 O1 2.228 . S
Cd2 O6 2.273 . S
Cd2 O10 2.277 1_455 S
O3 C0 1.160 . S
O3 Cd4 2.203 1_455 S
Cd4 O3 2.203 1_655 S
Cd4 O6 2.411 1_655 S
Cd4 O7 2.333 . S
Cd4 O8 2.352 1_655 S
Cd4 O12 2.277 . S
Cd4 O13 2.356 . S
C5 O10 1.209 . S
C5 O12 1.226 . S
O6 Cd2 2.273 . S
O6 Cd4 2.411 1_455 S
O6 C9 1.320 . S
O7 Cd4 2.333 . S
O7 C9 1.214 1_655 S
O8 Cd4 2.352 1_455 S
O8 C11 1.258 1_455 S
C9 O6 1.320 . S
C9 O7 1.214 1_455 S
O10 Cd2 2.277 1_655 S
O10 C5 1.209 . S
C11 O8 1.258 1_655 S
C11 O13 1.282 . S
O12 Cd4 2.277 . S
O12 C5 1.226 . S
O13 Cd4 2.356 . S
O13 C11 1.282 . S
C14 O15 1.306 . S
C14 O17 1.160 . S
O15 C14 1.306 . S
O15 Cd16 2.228 . S
Cd16 O15 2.228 . S
Cd16 O20 2.273 . S
Cd16 O24 2.277 1_455 S
O17 C14 1.160 . S
O17 Cd18 2.203 1_455 S
Cd18 O17 2.203 1_655 S
Cd18 O20 2.411 1_655 S
Cd18 O21 2.333 . S
Cd18 O22 2.352 1_655 S
Cd18 O26 2.277 . S
Cd18 O27 2.356 . S
C19 O24 1.209 . S
C19 O26 1.226 . S
O20 Cd16 2.273 . S
O20 Cd18 2.411 1_455 S
O20 C23 1.320 . S
O21 Cd18 2.333 . S
O21 C23 1.214 1_655 S
O22 Cd18 2.352 1_455 S
O22 C25 1.258 1_455 S
C23 O20 1.320 . S
C23 O21 1.214 1_455 S
O24 Cd16 2.277 1_655 S
O24 C19 1.209 . S
C25 O22 1.258 1_655 S
C25 O27 1.282 . S
O26 Cd18 2.277 . S
O26 C19 1.226 . S
O27 Cd18 2.356 . S
O27 C25 1.282 . S
C28 O29 1.306 . S
C28 O31 1.160 . S
O29 C28 1.306 . S
O29 Cd30 2.228 . S
Cd30 O29 2.228 . S
Cd30 O34 2.273 . S
Cd30 O38 2.277 . S
O31 C28 1.160 . S
O31 Cd32 2.203 . S
Cd32 O31 2.203 . S
Cd32 O34 2.411 . S
Cd32 O35 2.333 . S
Cd32 O36 2.352 . S
Cd32 O40 2.277 . S
Cd32 O41 2.356 . S
C33 O38 1.209 . S
C33 O40 1.226 . S
O34 Cd30 2.273 . S
O34 Cd32 2.411 . S
O34 C37 1.320 . S
O35 Cd32 2.333 . S
O35 C37 1.214 . S
O36 Cd32 2.352 . S
O36 C39 1.258 . S
C37 O34 1.320 . S
C37 O35 1.214 . S
O38 Cd30 2.277 . S
O38 C33 1.209 . S
C39 O36 1.258 . S
C39 O41 1.282 . S
O40 Cd32 2.277 . S
O40 C33 1.226 . S
O41 Cd32 2.356 . S
O41 C39 1.282 . S
C42 O43 1.306 . S
C42 O45 1.160 . S
O43 C42 1.306 . S
O43 Cd44 2.228 . S
Cd44 O43 2.228 . S
Cd44 O48 2.273 . S
Cd44 O52 2.277 . S
O45 C42 1.160 . S
O45 Cd46 2.203 . S
Cd46 O45 2.203 . S
Cd46 O48 2.411 . S
Cd46 O49 2.333 . S
Cd46 O50 2.352 . S
Cd46 O54 2.277 . S
Cd46 O55 2.356 . S
C47 O52 1.209 . S
C47 O54 1.226 . S
O48 Cd44 2.273 . S
O48 Cd46 2.411 . S
O48 C51 1.320 . S
O49 Cd46 2.333 . S
O49 C51 1.214 . S
O50 Cd46 2.352 . S
O50 C53 1.258 . S
C51 O48 1.320 . S
C51 O49 1.214 . S
O52 Cd44 2.277 . S
O52 C47 1.209 . S
C53 O50 1.258 . S
C53 O55 1.282 . S
O54 Cd46 2.277 . S
O54 C47 1.226 . S
O55 Cd46 2.356 . S
O55 C53 1.282 . S
C56 O57 1.306 . S
C56 O59 1.160 1_545 S
O57 C56 1.306 . S
O57 Cd58 2.228 . S
Cd58 O57 2.228 . S
Cd58 O62 2.273 . S
Cd58 O66 2.277 . S
O59 C56 1.160 1_565 S
O59 Cd60 2.203 . S
Cd60 O59 2.203 . S
Cd60 O62 2.411 1_565 S
Cd60 O63 2.333 1_565 S
Cd60 O64 2.352 . S
Cd60 O68 2.277 . S
Cd60 O69 2.356 . S
C61 O66 1.209 . S
C61 O68 1.226 1_545 S
O62 Cd58 2.273 . S
O62 Cd60 2.411 1_545 S
O62 C65 1.320 . S
O63 Cd60 2.333 1_545 S
O63 C65 1.214 . S
O64 Cd60 2.352 . S
O64 C67 1.258 . S
C65 O62 1.320 . S
C65 O63 1.214 . S
O66 Cd58 2.277 . S
O66 C61 1.209 . S
C67 O64 1.258 . S
C67 O69 1.282 . S
O68 Cd60 2.277 . S
O68 C61 1.226 1_565 S
O69 Cd60 2.356 . S
O69 C67 1.282 . S
C70 O71 1.306 . S
C70 O73 1.160 . S
O71 C70 1.306 . S
O71 Cd72 2.228 . S
Cd72 O71 2.228 . S
Cd72 O76 2.273 . S
Cd72 O80 2.277 . S
O73 C70 1.160 . S
O73 Cd74 2.203 . S
Cd74 O73 2.203 . S
Cd74 O76 2.411 . S
Cd74 O77 2.333 . S
Cd74 O78 2.352 . S
Cd74 O82 2.277 . S
Cd74 O83 2.356 . S
C75 O80 1.209 . S
C75 O82 1.226 . S
O76 Cd72 2.273 . S
O76 Cd74 2.411 . S
O76 C79 1.320 . S
O77 Cd74 2.333 . S
O77 C79 1.214 . S
O78 Cd74 2.352 . S
O78 C81 1.258 . S
C79 O76 1.320 . S
C79 O77 1.214 . S
O80 Cd72 2.277 . S
O80 C75 1.209 . S
C81 O78 1.258 . S
C81 O83 1.282 . S
O82 Cd74 2.277 . S
O82 C75 1.226 . S
O83 Cd74 2.356 . S
O83 C81 1.282 . S
C84 O85 1.306 . S
C84 O87 1.160 1_565 S
O85 C84 1.306 . S
O85 Cd86 2.228 . S
Cd86 O85 2.228 . S
Cd86 O90 2.273 . S
Cd86 O94 2.277 . S
O87 C84 1.160 1_545 S
O87 Cd88 2.203 . S
Cd88 O87 2.203 . S
Cd88 O90 2.411 1_545 S
Cd88 O91 2.333 1_545 S
Cd88 O92 2.352 . S
Cd88 O96 2.277 . S
Cd88 O97 2.356 . S
C89 O94 1.209 1_545 S
C89 O96 1.226 . S
O90 Cd86 2.273 . S
O90 Cd88 2.411 1_565 S
O90 C93 1.320 . S
O91 Cd88 2.333 1_565 S
O91 C93 1.214 . S
O92 Cd88 2.352 . S
O92 C95 1.258 . S
C93 O90 1.320 . S
C93 O91 1.214 . S
O94 Cd86 2.277 . S
O94 C89 1.209 1_565 S
C95 O92 1.258 . S
C95 O97 1.282 . S
O96 Cd88 2.277 . S
O96 C89 1.226 . S
O97 Cd88 2.356 . S
O97 C95 1.282 . S
C98 O99 1.306 . S
C98 O101 1.160 1_554 S
O99 C98 1.306 . S
O99 Cd100 2.228 . S
Cd100 O99 2.228 . S
Cd100 O104 2.273 . S
Cd100 O108 2.277 . S
O101 C98 1.160 1_556 S
O101 Cd102 2.203 . S
Cd102 O101 2.203 . S
Cd102 O104 2.411 1_556 S
Cd102 O105 2.333 1_556 S
Cd102 O106 2.352 . S
Cd102 O110 2.277 . S
Cd102 O111 2.356 . S
C103 O108 1.209 1_556 S
C103 O110 1.226 . S
O104 Cd100 2.273 . S
O104 Cd102 2.411 1_554 S
O104 C107 1.320 . S
O105 Cd102 2.333 1_554 S
O105 C107 1.214 . S
O106 Cd102 2.352 . S
O106 C109 1.258 . S
C107 O104 1.320 . S
C107 O105 1.214 . S
O108 Cd100 2.277 . S
O108 C103 1.209 1_554 S
C109 O106 1.258 . S
C109 O111 1.282 . S
O110 Cd102 2.277 . S
O110 C103 1.226 . S
O111 Cd102 2.356 . S
O111 C109 1.282 . S
C112 O113 1.306 1_554 S
C112 O115 1.160 . S
O113 C112 1.306 1_556 S
O113 Cd114 2.228 . S
Cd114 O113 2.228 . S
Cd114 O118 2.273 . S
Cd114 O122 2.277 . S
O115 C112 1.160 . S
O115 Cd116 2.203 . S
Cd116 O115 2.203 . S
Cd116 O118 2.411 1_554 S
Cd116 O119 2.333 . S
Cd116 O120 2.352 . S
Cd116 O124 2.277 . S
Cd116 O125 2.356 . S
C117 O122 1.209 1_554 S
C117 O124 1.226 . S
O118 Cd114 2.273 . S
O118 Cd116 2.411 1_556 S
O118 C121 1.320 . S
O119 Cd116 2.333 . S
O119 C121 1.214 1_554 S
O120 Cd116 2.352 . S
O120 C123 1.258 . S
C121 O118 1.320 . S
C121 O119 1.214 1_556 S
O122 Cd114 2.277 . S
O122 C117 1.209 1_556 S
C123 O120 1.258 . S
C123 O125 1.282 . S
O124 Cd116 2.277 . S
O124 C117 1.226 . S
O125 Cd116 2.356 . S
O125 C123 1.282 . S
C126 O127 1.306 . S
C126 O129 1.160 . S
O127 C126 1.306 . S
O127 Cd128 2.228 . S
Cd128 O127 2.228 . S
Cd128 O132 2.273 . S
Cd128 O136 2.277 . S
O129 C126 1.160 . S
O129 Cd130 2.203 . S
Cd130 O129 2.203 . S
Cd130 O132 2.411 . S
Cd130 O133 2.333 . S
Cd130 O134 2.352 . S
Cd130 O138 2.277 . S
Cd130 O139 2.356 . S
C131 O136 1.209 . S
C131 O138 1.226 . S
O132 Cd128 2.273 . S
O132 Cd130 2.411 . S
O132 C135 1.320 . S
O133 Cd130 2.333 . S
O133 C135 1.214 . S
O134 Cd130 2.352 . S
O134 C137 1.258 . S
C135 O132 1.320 . S
C135 O133 1.214 . S
O136 Cd128 2.277 . S
O136 C131 1.209 . S
C137 O134 1.258 . S
C137 O139 1.282 . S
O138 Cd130 2.277 . S
O138 C131 1.226 . S
O139 Cd130 2.356 . S
O139 C137 1.282 . S
C140 O141 1.306 . S
C140 O143 1.160 . S
O141 C140 1.306 . S
O141 Cd142 2.228 . S
Cd142 O141 2.228 . S
Cd142 O146 2.273 . S
Cd142 O150 2.277 . S
O143 C140 1.160 . S
O143 Cd144 2.203 . S
Cd144 O143 2.203 . S
Cd144 O146 2.411 . S
Cd144 O147 2.333 . S
Cd144 O148 2.352 . S
Cd144 O152 2.277 . S
Cd144 O153 2.356 . S
C145 O150 1.209 . S
C145 O152 1.226 . S
O146 Cd142 2.273 . S
O146 Cd144 2.411 . S
O146 C149 1.320 . S
O147 Cd144 2.333 . S
O147 C149 1.214 . S
O148 Cd144 2.352 . S
O148 C151 1.258 . S
C149 O146 1.320 . S
C149 O147 1.214 . S
O150 Cd142 2.277 . S
O150 C145 1.209 . S
C151 O148 1.258 . S
C151 O153 1.282 . S
O152 Cd144 2.277 . S
O152 C145 1.226 . S
O153 Cd144 2.356 . S
O153 C151 1.282 . S
C154 O155 1.306 . S
C154 O157 1.160 . S
O155 C154 1.306 . S
O155 Cd156 2.228 . S
Cd156 O155 2.228 . S
Cd156 O160 2.273 . S
Cd156 O164 2.277 . S
O157 C154 1.160 . S
O157 Cd158 2.203 . S
Cd158 O157 2.203 . S
Cd158 O160 2.411 . S
Cd158 O161 2.333 . S
Cd158 O162 2.352 . S
Cd158 O166 2.277 . S
Cd158 O167 2.356 . S
C159 O164 1.209 . S
C159 O166 1.226 . S
O160 Cd156 2.273 . S
O160 Cd158 2.411 . S
O160 C163 1.320 . S
O161 Cd158 2.333 . S
O161 C163 1.214 . S
O162 Cd158 2.352 . S
O162 C165 1.258 . S
C163 O160 1.320 . S
C163 O161 1.214 . S
O164 Cd156 2.277 . S
O164 C159 1.209 . S
C165 O162 1.258 . S
C165 O167 1.282 . S
O166 Cd158 2.277 . S
O166 C159 1.226 . S
O167 Cd158 2.356 . S
O167 C165 1.282 . S
H168 C174 0.930 . S
H169 C177 0.931 . S
H170 C179 0.931 1_455 S
H171 C181 0.930 . S
H172 C183 0.930 . S
H173 C185 0.931 . S
C174 H168 0.930 . S
C174 C175 1.380 . S
C174 C176 1.394 . S
C175 C174 1.380 . S
C175 C179 1.382 . S
C176 C174 1.394 . S
C176 C177 1.400 . S
C177 H169 0.931 . S
C177 C176 1.400 . S
C177 C178 1.375 1_655 S
C178 C177 1.375 1_455 S
C178 C179 1.415 1_455 S
C178 C180 1.501 . S
C179 H170 0.931 1_655 S
C179 C175 1.382 . S
C179 C178 1.415 1_655 S
C180 C178 1.501 . S
C180 C181 1.384 . S
C180 C185 1.408 . S
C181 H171 0.930 . S
C181 C180 1.384 . S
C181 C182 1.389 . S
C182 C181 1.389 . S
C182 C183 1.405 . S
C183 H172 0.930 . S
C183 C182 1.405 . S
C183 C184 1.364 . S
C184 C183 1.364 . S
C184 C185 1.400 . S
C185 H173 0.931 . S
C185 C180 1.408 . S
C185 C184 1.400 . S
H186 C192 0.930 . S
H187 C195 0.931 1_454 S
H188 C197 0.931 . S
H189 C199 0.930 . S
H190 C201 0.930 . S
H191 C203 0.931 1_554 S
C192 H186 0.930 . S
C192 C193 1.380 . S
C192 C194 1.394 . S
C193 C192 1.380 . S
C193 C197 1.382 . S
C194 C192 1.394 . S
C194 C195 1.400 . S
C195 H187 0.931 1_656 S
C195 C194 1.400 . S
C195 C196 1.375 1_655 S
C196 C195 1.375 1_455 S
C196 C197 1.415 1_455 S
C196 C198 1.501 . S
C197 H188 0.931 . S
C197 C193 1.382 . S
C197 C196 1.415 1_655 S
C198 C196 1.501 . S
C198 C199 1.384 . S
C198 C203 1.408 . S
C199 H189 0.930 . S
C199 C198 1.384 . S
C199 C200 1.389 . S
C200 C199 1.389 . S
C200 C201 1.405 . S
C201 H190 0.930 . S
C201 C200 1.405 . S
C201 C202 1.364 . S
C202 C201 1.364 . S
C202 C203 1.400 . S
C203 H191 0.931 1_556 S
C203 C198 1.408 . S
C203 C202 1.400 . S
H204 C210 0.930 . S
H205 C213 0.931 . S
H206 C215 0.931 . S
H207 C217 0.930 . S
H208 C219 0.930 . S
H209 C221 0.931 . S
C210 H204 0.930 . S
C210 C211 1.380 . S
C210 C212 1.394 . S
C211 C210 1.380 . S
C211 C215 1.382 . S
C212 C210 1.394 . S
C212 C213 1.400 . S
C213 H205 0.931 . S
C213 C212 1.400 . S
C213 C214 1.375 . S
C214 C213 1.375 . S
C214 C215 1.415 . S
C214 C216 1.501 . S
C215 H206 0.931 . S
C215 C211 1.382 . S
C215 C214 1.415 . S
C216 C214 1.501 . S
C216 C217 1.384 . S
C216 C221 1.408 . S
C217 H207 0.930 . S
C217 C216 1.384 . S
C217 C218 1.389 . S
C218 C217 1.389 . S
C218 C219 1.405 . S
C219 H208 0.930 . S
C219 C218 1.405 . S
C219 C220 1.364 . S
C220 C219 1.364 . S
C220 C221 1.400 . S
C221 H209 0.931 . S
C221 C216 1.408 . S
C221 C220 1.400 . S
H222 C228 0.930 . S
H223 C231 0.931 . S
H224 C233 0.931 . S
H225 C235 0.930 . S
H226 C237 0.930 . S
H227 C239 0.931 . S
C228 H222 0.930 . S
C228 C229 1.380 . S
C228 C230 1.394 . S
C229 C228 1.380 . S
C229 C233 1.382 . S
C230 C228 1.394 . S
C230 C231 1.400 . S
C231 H223 0.931 . S
C231 C230 1.400 . S
C231 C232 1.375 . S
C232 C231 1.375 . S
C232 C233 1.415 . S
C232 C234 1.501 . S
C233 H224 0.931 . S
C233 C229 1.382 . S
C233 C232 1.415 . S
C234 C232 1.501 . S
C234 C235 1.384 . S
C234 C239 1.408 . S
C235 H225 0.930 . S
C235 C234 1.384 . S
C235 C236 1.389 . S
C236 C235 1.389 . S
C236 C237 1.405 . S
C237 H226 0.930 . S
C237 C236 1.405 . S
C237 C238 1.364 . S
C238 C237 1.364 . S
C238 C239 1.400 . S
C239 H227 0.931 . S
C239 C234 1.408 . S
C239 C238 1.400 . S
H240 C246 0.930 . S
H241 C249 0.931 . S
H242 C251 0.931 . S
H243 C253 0.930 . S
H244 C255 0.930 . S
H245 C257 0.931 . S
C246 H240 0.930 . S
C246 C247 1.380 . S
C246 C248 1.394 . S
C247 C246 1.380 . S
C247 C251 1.382 . S
C248 C246 1.394 . S
C248 C249 1.400 . S
C249 H241 0.931 . S
C249 C248 1.400 . S
C249 C250 1.375 . S
C250 C249 1.375 . S
C250 C251 1.415 . S
C250 C252 1.501 1_565 S
C251 H242 0.931 . S
C251 C247 1.382 . S
C251 C250 1.415 . S
C252 C250 1.501 1_545 S
C252 C253 1.384 . S
C252 C257 1.408 . S
C253 H243 0.930 . S
C253 C252 1.384 . S
C253 C254 1.389 . S
C254 C253 1.389 . S
C254 C255 1.405 . S
C255 H244 0.930 . S
C255 C254 1.405 . S
C255 C256 1.364 . S
C256 C255 1.364 . S
C256 C257 1.400 . S
C257 H245 0.931 . S
C257 C252 1.408 . S
C257 C256 1.400 . S
H258 C264 0.930 . S
H259 C267 0.931 . S
H260 C269 0.931 . S
H261 C271 0.930 . S
H262 C273 0.930 . S
H263 C275 0.931 . S
C264 H258 0.930 . S
C264 C265 1.380 . S
C264 C266 1.394 . S
C265 C264 1.380 . S
C265 C269 1.382 . S
C266 C264 1.394 . S
C266 C267 1.400 . S
C267 H259 0.931 . S
C267 C266 1.400 . S
C267 C268 1.375 . S
C268 C267 1.375 . S
C268 C269 1.415 . S
C268 C270 1.501 . S
C269 H260 0.931 . S
C269 C265 1.382 . S
C269 C268 1.415 . S
C270 C268 1.501 . S
C270 C271 1.384 . S
C270 C275 1.408 . S
C271 H261 0.930 . S
C271 C270 1.384 . S
C271 C272 1.389 . S
C272 C271 1.389 . S
C272 C273 1.405 . S
C273 H262 0.930 . S
C273 C272 1.405 . S
C273 C274 1.364 . S
C274 C273 1.364 . S
C274 C275 1.400 . S
C275 H263 0.931 . S
C275 C270 1.408 . S
C275 C274 1.400 . S
H276 C282 0.930 . S
H277 C285 0.931 . S
H278 C287 0.931 . S
H279 C289 0.930 . S
H280 C291 0.930 . S
H281 C293 0.931 . S
C282 H276 0.930 . S
C282 C283 1.380 1_655 S
C282 C284 1.394 . S
C283 C282 1.380 1_455 S
C283 C287 1.382 . S
C284 C282 1.394 . S
C284 C285 1.400 . S
C285 H277 0.931 . S
C285 C284 1.400 . S
C285 C286 1.375 . S
C286 C285 1.375 . S
C286 C287 1.415 1_655 S
C286 C288 1.501 1_545 S
C287 H278 0.931 . S
C287 C283 1.382 . S
C287 C286 1.415 1_455 S
C288 C286 1.501 1_565 S
C288 C289 1.384 1_655 S
C288 C293 1.408 . S
C289 H279 0.930 . S
C289 C288 1.384 1_455 S
C289 C290 1.389 . S
C290 C289 1.389 . S
C290 C291 1.405 1_455 S
C291 H280 0.930 . S
C291 C290 1.405 1_655 S
C291 C292 1.364 . S
C292 C291 1.364 . S
C292 C293 1.400 . S
C293 H281 0.931 . S
C293 C288 1.408 . S
C293 C292 1.400 . S
H294 C300 0.930 . S
H295 C303 0.931 1_554 S
H296 C305 0.931 . S
H297 C307 0.930 . S
H298 C309 0.930 . S
H299 C311 0.931 . S
C300 H294 0.930 . S
C300 C301 1.380 . S
C300 C302 1.394 . S
C301 C300 1.380 . S
C301 C305 1.382 . S
C302 C300 1.394 . S
C302 C303 1.400 . S
C303 H295 0.931 1_556 S
C303 C302 1.400 . S
C303 C304 1.375 1_556 S
C304 C303 1.375 1_554 S
C304 C305 1.415 1_554 S
C304 C306 1.501 . S
C305 H296 0.931 . S
C305 C301 1.382 . S
C305 C304 1.415 1_556 S
C306 C304 1.501 . S
C306 C307 1.384 . S
C306 C311 1.408 . S
C307 H297 0.930 . S
C307 C306 1.384 . S
C307 C308 1.389 . S
C308 C307 1.389 . S
C308 C309 1.405 . S
C309 H298 0.930 . S
C309 C308 1.405 . S
C309 C310 1.364 . S
C310 C309 1.364 . S
C310 C311 1.400 . S
C311 H299 0.931 . S
C311 C306 1.408 . S
C311 C310 1.400 . S
H312 C318 0.930 . S
H313 C321 0.931 1_545 S
H314 C323 0.931 1_554 S
H315 C325 0.930 . S
H316 C327 0.930 . S
H317 C329 0.921 1_545 S
C318 H312 0.930 . S
C318 C319 1.380 . S
C318 C320 1.394 . S
C319 C318 1.380 . S
C319 C323 1.382 . S
C320 C318 1.394 . S
C320 C321 1.400 1_556 S
C321 H313 0.931 1_565 S
C321 C320 1.400 1_554 S
C321 C322 1.375 . S
C322 C321 1.375 . S
C322 C323 1.415 1_554 S
C322 C324 1.501 . S
C323 H314 0.931 1_556 S
C323 C319 1.382 . S
C323 C322 1.415 1_556 S
C324 C322 1.501 . S
C324 C325 1.384 . S
C324 C329 1.408 . S
C325 H315 0.930 . S
C325 C324 1.384 . S
C325 C326 1.389 . S
C326 C325 1.389 . S
C326 C327 1.405 . S
C327 H316 0.930 . S
C327 C326 1.405 . S
C327 C328 1.364 . S
C328 C327 1.364 . S
C328 C329 1.400 . S
C329 H317 0.921 1_565 S
C329 C324 1.408 . S
C329 C328 1.400 . S
H330 C336 0.930 . S
H331 C339 0.931 . S
H332 C341 0.931 . S
H333 C343 0.930 . S
H334 C345 0.930 . S
H335 C347 0.931 . S
C336 H330 0.930 . S
C336 C337 1.380 . S
C336 C338 1.394 . S
C337 C336 1.380 . S
C337 C341 1.382 . S
C338 C336 1.394 . S
C338 C339 1.400 . S
C339 H331 0.931 . S
C339 C338 1.400 . S
C339 C340 1.375 . S
C340 C339 1.375 . S
C340 C341 1.415 . S
C340 C342 1.501 . S
C341 H332 0.931 . S
C341 C337 1.382 . S
C341 C340 1.415 . S
C342 C340 1.501 . S
C342 C343 1.384 . S
C342 C347 1.408 . S
C343 H333 0.930 . S
C343 C342 1.384 . S
C343 C344 1.389 . S
C344 C343 1.389 . S
C344 C345 1.405 . S
C345 H334 0.930 . S
C345 C344 1.405 . S
C345 C346 1.364 . S
C346 C345 1.364 . S
C346 C347 1.400 . S
C347 H335 0.931 . S
C347 C342 1.408 . S
C347 C346 1.400 . S
H348 C354 0.930 . S
H349 C357 0.931 . S
H350 C359 0.931 . S
H351 C361 0.930 . S
H352 C363 0.930 . S
H353 C365 0.931 . S
C354 H348 0.930 . S
C354 C355 1.380 . S
C354 C356 1.394 . S
C355 C354 1.380 . S
C355 C359 1.382 . S
C356 C354 1.394 . S
C356 C357 1.400 . S
C357 H349 0.931 . S
C357 C356 1.400 . S
C357 C358 1.375 . S
C358 C357 1.375 . S
C358 C359 1.415 . S
C358 C360 1.501 . S
C359 H350 0.931 . S
C359 C355 1.382 . S
C359 C358 1.415 . S
C360 C358 1.501 . S
C360 C361 1.384 . S
C360 C365 1.408 . S
C361 H351 0.930 . S
C361 C360 1.384 . S
C361 C362 1.389 . S
C362 C361 1.389 . S
C362 C363 1.405 . S
C363 H352 0.930 . S
C363 C362 1.405 . S
C363 C364 1.364 . S
C364 C363 1.364 . S
C364 C365 1.400 . S
C365 H353 0.931 . S
C365 C360 1.408 . S
C365 C364 1.400 . S
H366 C372 0.930 . S
H367 C375 0.931 . S
H368 C377 0.931 . S
H369 C379 0.930 . S
H370 C381 0.930 . S
H371 C383 0.931 . S
C372 H366 0.930 . S
C372 C373 1.380 . S
C372 C374 1.394 . S
C373 C372 1.380 . S
C373 C377 1.382 . S
C374 C372 1.394 . S
C374 C375 1.400 . S
C375 H367 0.931 . S
C375 C374 1.400 . S
C375 C376 1.375 . S
C376 C375 1.375 . S
C376 C377 1.415 . S
C376 C378 1.501 . S
C377 H368 0.931 . S
C377 C373 1.382 . S
C377 C376 1.415 . S
C378 C376 1.501 . S
C378 C379 1.384 . S
C378 C383 1.408 . S
C379 H369 0.930 . S
C379 C378 1.384 . S
C379 C380 1.389 . S
C380 C379 1.389 . S
C380 C381 1.405 . S
C381 H370 0.930 . S
C381 C380 1.405 . S
C381 C382 1.364 . S
C382 C381 1.364 . S
C382 C383 1.400 . S
C383 H371 0.931 . S
C383 C378 1.408 . S
C383 C382 1.400 . S
H384 C392 0.929 . S
H385 C394 0.930 . S
H386 C396 0.930 . S
H387 C399 0.929 . S
H388 C402 0.930 . S
H389 C404 0.954 1_556 S
H390 C404 0.972 . S
H391 C404 0.960 . S
C392 H384 0.929 . S
C392 C393 1.377 1_455 S
C392 C394 1.384 . S
C393 C392 1.377 1_655 S
C393 C399 1.390 . S
C394 H385 0.930 . S
C394 C392 1.384 . S
C394 C395 1.372 . S
C395 C394 1.372 . S
C395 C396 1.400 1_455 S
C395 C400 1.490 1_554 S
C396 H386 0.930 . S
C396 C395 1.400 1_655 S
C396 C399 1.386 . S
H397 C413 0.930 . S
H398 C414 0.931 . S
C399 H387 0.929 . S
C399 C393 1.390 . S
C399 C396 1.386 . S
C400 C395 1.490 1_556 S
C400 C402 1.395 . S
C400 C403 1.398 1_455 S
H401 C407 0.930 1_655 S
C402 H388 0.930 . S
C402 C400 1.395 . S
C402 C405 1.403 . S
C403 C400 1.398 1_655 S
C403 C404 1.530 1_556 S
C403 C407 1.398 1_655 S
C404 H389 0.954 1_554 S
C404 H390 0.972 . S
C404 H391 0.960 . S
C404 C403 1.530 1_554 S
C405 C402 1.403 . S
C405 C406 1.392 . S
C405 C409 1.495 . S
C406 C405 1.392 . S
C406 C407 1.385 . S
C406 C408 1.478 . S
C407 H401 0.930 1_455 S
C407 C403 1.398 1_455 S
C407 C406 1.385 . S
C408 C406 1.478 . S
C408 C410 1.381 . S
C408 C414 1.383 1_455 S
C409 C405 1.495 . S
C409 H415 0.959 . S
C409 H416 0.961 . S
C409 H417 0.960 . S
C410 C408 1.381 . S
C410 C411 1.394 . S
C410 H418 0.930 . S
C411 C410 1.394 . S
C411 C412 1.383 . S
C411 H419 0.929 . S
C412 C411 1.383 . S
C412 C413 1.377 1_455 S
C413 H397 0.930 . S
C413 C412 1.377 1_655 S
C413 C414 1.379 . S
C414 H398 0.931 . S
C414 C408 1.383 1_655 S
C414 C413 1.379 . S
H415 C409 0.959 . S
H416 C409 0.961 . S
H417 C409 0.960 . S
H418 C410 0.930 . S
H419 C411 0.929 . S
H420 C428 0.929 . S
H421 C430 0.930 . S
H422 C432 0.930 . S
H423 C435 0.929 . S
H424 C438 0.930 . S
H425 C440 0.960 . S
H426 C440 0.960 . S
H427 C440 0.960 . S
C428 H420 0.929 . S
C428 C429 1.377 . S
C428 C430 1.384 . S
C429 C428 1.377 . S
C429 C435 1.390 . S
C430 H421 0.930 . S
C430 C428 1.384 . S
C430 C431 1.372 . S
C431 C430 1.372 . S
C431 C432 1.400 . S
C431 C436 1.490 . S
C432 H422 0.930 . S
C432 C431 1.400 . S
C432 C435 1.386 . S
H433 C449 0.930 . S
H434 C450 0.931 . S
C435 H423 0.929 . S
C435 C429 1.390 . S
C435 C432 1.386 . S
C436 C431 1.490 . S
C436 C438 1.395 . S
C436 C439 1.403 . S
H437 C443 0.930 . S
C438 H424 0.930 . S
C438 C436 1.395 . S
C438 C441 1.403 . S
C439 C436 1.403 . S
C439 C440 1.524 . S
C439 C443 1.400 . S
C440 H425 0.960 . S
C440 H426 0.960 . S
C440 H427 0.960 . S
C440 C439 1.524 . S
C441 C438 1.403 . S
C441 C442 1.392 . S
C441 C445 1.495 . S
C442 C441 1.392 . S
C442 C443 1.385 . S
C442 C444 1.478 . S
C443 H437 0.930 . S
C443 C439 1.400 . S
C443 C442 1.385 . S
C444 C442 1.478 . S
C444 C446 1.381 . S
C444 C450 1.383 . S
C445 C441 1.495 . S
C445 H451 0.959 . S
C445 H452 0.961 . S
C445 H453 0.960 . S
C446 C444 1.381 . S
C446 C447 1.394 . S
C446 H454 0.930 . S
C447 C446 1.394 . S
C447 C448 1.383 . S
C447 H455 0.929 . S
C448 C447 1.383 . S
C448 C449 1.377 . S
C449 H433 0.930 . S
C449 C448 1.377 . S
C449 C450 1.379 . S
C450 H434 0.931 . S
C450 C444 1.383 . S
C450 C449 1.379 . S
H451 C445 0.959 . S
H452 C445 0.961 . S
H453 C445 0.960 . S
H454 C446 0.930 . S
H455 C447 0.929 . S
H456 C464 0.929 . S
H457 C466 0.930 . S
H458 C468 0.930 . S
H459 C471 0.929 . S
H460 C474 0.930 . S
H461 C476 0.960 . S
H462 C476 0.960 . S
H463 C476 0.960 . S
C464 H456 0.929 . S
C464 C465 1.377 . S
C464 C466 1.384 . S
C465 C464 1.377 . S
C465 C471 1.390 . S
C466 H457 0.930 . S
C466 C464 1.384 . S
C466 C467 1.372 . S
C467 C466 1.372 . S
C467 C468 1.400 . S
C467 C472 1.490 . S
C468 H458 0.930 . S
C468 C467 1.400 . S
C468 C471 1.386 . S
H469 C485 0.930 . S
H470 C486 0.931 . S
C471 H459 0.929 . S
C471 C465 1.390 . S
C471 C468 1.386 . S
C472 C467 1.490 . S
C472 C474 1.395 . S
C472 C475 1.403 . S
H473 C479 0.930 . S
C474 H460 0.930 . S
C474 C472 1.395 . S
C474 C477 1.403 . S
C475 C472 1.403 . S
C475 C476 1.524 . S
C475 C479 1.400 . S
C476 H461 0.960 . S
C476 H462 0.960 . S
C476 H463 0.960 . S
C476 C475 1.524 . S
C477 C474 1.403 . S
C477 C478 1.392 . S
C477 C481 1.495 . S
C478 C477 1.392 . S
C478 C479 1.385 . S
C478 C480 1.478 . S
C479 H473 0.930 . S
C479 C475 1.400 . S
C479 C478 1.385 . S
C480 C478 1.478 . S
C480 C482 1.381 . S
C480 C486 1.383 . S
C481 C477 1.495 . S
C481 H487 0.959 . S
C481 H488 0.961 . S
C481 H489 0.960 . S
C482 C480 1.381 . S
C482 C483 1.394 . S
C482 H490 0.930 . S
C483 C482 1.394 . S
C483 C484 1.383 . S
C483 H491 0.929 . S
C484 C483 1.383 . S
C484 C485 1.377 . S
C485 H469 0.930 . S
C485 C484 1.377 . S
C485 C486 1.379 . S
C486 H470 0.931 . S
C486 C480 1.383 . S
C486 C485 1.379 . S
H487 C481 0.959 . S
H488 C481 0.961 . S
H489 C481 0.960 . S
H490 C482 0.930 . S
H491 C483 0.929 . S
H492 C500 0.929 . S
H493 C502 0.930 . S
H494 C504 0.930 . S
H495 C507 0.929 . S
H496 C510 0.930 . S
H497 C512 0.960 . S
H498 C512 0.960 . S
H499 C512 0.960 . S
C500 H492 0.929 . S
C500 C501 1.377 . S
C500 C502 1.384 . S
C501 C500 1.377 . S
C501 C507 1.390 . S
C502 H493 0.930 . S
C502 C500 1.384 . S
C502 C503 1.372 . S
C503 C502 1.372 . S
C503 C504 1.400 . S
C503 C508 1.490 . S
C504 H494 0.930 . S
C504 C503 1.400 . S
C504 C507 1.386 . S
H505 C521 0.930 . S
H506 C522 0.931 . S
C507 H495 0.929 . S
C507 C501 1.390 . S
C507 C504 1.386 . S
C508 C503 1.490 . S
C508 C510 1.395 . S
C508 C511 1.403 . S
H509 C515 0.930 . S
C510 H496 0.930 . S
C510 C508 1.395 . S
C510 C513 1.403 . S
C511 C508 1.403 . S
C511 C512 1.524 . S
C511 C515 1.400 . S
C512 H497 0.960 . S
C512 H498 0.960 . S
C512 H499 0.960 . S
C512 C511 1.524 . S
C513 C510 1.403 . S
C513 C514 1.392 . S
C513 C517 1.495 . S
C514 C513 1.392 . S
C514 C515 1.385 . S
C514 C516 1.478 . S
C515 H509 0.930 . S
C515 C511 1.400 . S
C515 C514 1.385 . S
C516 C514 1.478 . S
C516 C518 1.381 . S
C516 C522 1.383 . S
C517 C513 1.495 . S
C517 H523 0.959 . S
C517 H524 0.961 . S
C517 H525 0.960 . S
C518 C516 1.381 . S
C518 C519 1.394 . S
C518 H526 0.930 . S
C519 C518 1.394 . S
C519 C520 1.383 . S
C519 H527 0.929 . S
C520 C519 1.383 . S
C520 C521 1.377 . S
C521 H505 0.930 . S
C521 C520 1.377 . S
C521 C522 1.379 . S
C522 H506 0.931 . S
C522 C516 1.383 . S
C522 C521 1.379 . S
H523 C517 0.959 . S
H524 C517 0.961 . S
H525 C517 0.960 . S
H526 C518 0.930 . S
H527 C519 0.929 . S
H528 C536 0.929 . S
H529 C538 0.930 . S
H530 C540 0.930 . S
H531 C543 0.929 . S
H532 C546 0.930 . S
H533 C548 0.960 . S
H534 C548 0.960 . S
H535 C548 0.960 . S
C536 H528 0.929 . S
C536 C537 1.377 . S
C536 C538 1.384 . S
C537 C536 1.377 . S
C537 C543 1.390 1_655 S
C538 H529 0.930 . S
C538 C536 1.384 . S
C538 C539 1.372 1_655 S
C539 C538 1.372 1_455 S
C539 C540 1.400 . S
C539 C544 1.490 . S
C540 H530 0.930 . S
C540 C539 1.400 . S
C540 C543 1.386 . S
H541 C557 0.930 . S
H542 C558 0.931 . S
C543 H531 0.929 . S
C543 C537 1.390 1_455 S
C543 C540 1.386 . S
C544 C539 1.490 . S
C544 C546 1.395 1_455 S
C544 C547 1.403 . S
H545 C551 0.930 . S
C546 H532 0.930 . S
C546 C544 1.395 1_655 S
C546 C549 1.403 . S
C547 C544 1.403 . S
C547 C548 1.524 . S
C547 C551 1.400 . S
C548 H533 0.960 . S
C548 H534 0.960 . S
C548 H535 0.960 . S
C548 C547 1.524 . S
C549 C546 1.403 . S
C549 C550 1.392 1_655 S
C549 C553 1.495 . S
C550 C549 1.392 1_455 S
C550 C551 1.385 . S
C550 C552 1.478 . S
C551 H545 0.930 . S
C551 C547 1.400 . S
C551 C550 1.385 . S
C552 C550 1.478 . S
C552 C554 1.381 . S
C552 C558 1.383 . S
C553 C549 1.495 . S
C553 H559 0.959 . S
C553 H560 0.961 . S
C553 H561 0.960 . S
C554 C552 1.381 . S
C554 C555 1.394 . S
C554 H562 0.930 1_455 S
C555 C554 1.394 . S
C555 C556 1.383 . S
C555 H563 0.929 . S
C556 C555 1.383 . S
C556 C557 1.377 . S
C557 H541 0.930 . S
C557 C556 1.377 . S
C557 C558 1.379 . S
C558 H542 0.931 . S
C558 C552 1.383 . S
C558 C557 1.379 . S
H559 C553 0.959 . S
H560 C553 0.961 . S
H561 C553 0.960 . S
H562 C554 0.930 1_655 S
H563 C555 0.929 . S
H564 C572 0.929 . S
H565 C574 0.930 . S
H566 C576 0.930 . S
H567 C579 0.929 . S
H568 C582 0.930 . S
H569 C584 0.960 . S
H570 C584 0.960 . S
H571 C584 0.960 . S
C572 H564 0.929 . S
C572 C573 1.377 . S
C572 C574 1.384 . S
C573 C572 1.377 . S
C573 C579 1.390 . S
C574 H565 0.930 . S
C574 C572 1.384 . S
C574 C575 1.372 . S
C575 C574 1.372 . S
C575 C576 1.400 . S
C575 C580 1.490 . S
C576 H566 0.930 . S
C576 C575 1.400 . S
C576 C579 1.386 . S
H577 C593 0.930 . S
H578 C594 0.931 . S
C579 H567 0.929 . S
C579 C573 1.390 . S
C579 C576 1.386 . S
C580 C575 1.490 . S
C580 C582 1.395 . S
C580 C583 1.403 . S
H581 C587 0.930 . S
C582 H568 0.930 . S
C582 C580 1.395 . S
C582 C585 1.403 . S
C583 C580 1.403 . S
C583 C584 1.524 . S
C583 C587 1.400 . S
C584 H569 0.960 . S
C584 H570 0.960 . S
C584 H571 0.960 . S
C584 C583 1.524 . S
C585 C582 1.403 . S
C585 C586 1.392 . S
C585 C589 1.495 . S
C586 C585 1.392 . S
C586 C587 1.385 . S
C586 C588 1.478 . S
C587 H581 0.930 . S
C587 C583 1.400 . S
C587 C586 1.385 . S
C588 C586 1.478 . S
C588 C590 1.381 . S
C588 C594 1.383 . S
C589 C585 1.495 . S
C589 H595 0.959 . S
C589 H596 0.961 . S
C589 H597 0.960 . S
C590 C588 1.381 . S
C590 C591 1.394 . S
C590 H598 0.930 . S
C591 C590 1.394 . S
C591 C592 1.383 . S
C591 H599 0.929 . S
C592 C591 1.383 . S
C592 C593 1.377 . S
C593 H577 0.930 . S
C593 C592 1.377 . S
C593 C594 1.379 . S
C594 H578 0.931 . S
C594 C588 1.383 . S
C594 C593 1.379 . S
H595 C589 0.959 . S
H596 C589 0.961 . S
H597 C589 0.960 . S
H598 C590 0.930 . S
H599 C591 0.929 . S
H600 C608 0.929 . S
H601 C610 0.930 . S
H602 C612 0.930 . S
H603 C615 0.929 . S
H604 C618 0.930 . S
H605 C620 0.960 . S
H606 C620 0.960 . S
H607 C620 0.960 . S
C608 H600 0.929 . S
C608 C609 1.377 . S
C608 C610 1.384 . S
C609 C608 1.377 . S
C609 C615 1.390 . S
C610 H601 0.930 . S
C610 C608 1.384 . S
C610 C611 1.372 1_556 S
C611 C610 1.372 1_554 S
C611 C612 1.400 . S
C611 C616 1.490 . S
C612 H602 0.930 . S
C612 C611 1.400 . S
C612 C615 1.386 1_554 S
H613 C629 0.930 . S
H614 C630 0.931 . S
C615 H603 0.929 . S
C615 C609 1.390 . S
C615 C612 1.386 1_556 S
C616 C611 1.490 . S
C616 C618 1.395 . S
C616 C619 1.403 . S
H617 C623 0.930 . S
C618 H604 0.930 . S
C618 C616 1.395 . S
C618 C621 1.403 . S
C619 C616 1.403 . S
C619 C620 1.524 . S
C619 C623 1.400 . S
C620 H605 0.960 . S
C620 H606 0.960 . S
C620 H607 0.960 . S
C620 C619 1.524 . S
C621 C618 1.403 . S
C621 C622 1.392 . S
C621 C625 1.495 . S
C622 C621 1.392 . S
C622 C623 1.385 . S
C622 C624 1.478 . S
C623 H617 0.930 . S
C623 C619 1.400 . S
C623 C622 1.385 . S
C624 C622 1.478 . S
C624 C626 1.381 . S
C624 C630 1.383 . S
C625 C621 1.495 . S
C625 H631 0.959 . S
C625 H632 0.961 . S
C625 H633 0.960 . S
C626 C624 1.381 . S
C626 C627 1.394 . S
C626 H634 0.930 . S
C627 C626 1.394 . S
C627 C628 1.383 . S
C627 H635 0.929 . S
C628 C627 1.383 . S
C628 C629 1.377 . S
C629 H613 0.930 . S
C629 C628 1.377 . S
C629 C630 1.379 . S
C630 H614 0.931 . S
C630 C624 1.383 . S
C630 C629 1.379 . S
H631 C625 0.959 . S
H632 C625 0.961 . S
H633 C625 0.960 . S
H634 C626 0.930 . S
H635 C627 0.929 . S
H636 C644 0.929 . S
H637 C646 0.930 . S
H638 C648 0.930 . S
H639 C651 0.929 . S
H640 C654 0.930 . S
H641 C656 0.960 . S
H642 C656 0.960 . S
H643 C656 0.960 . S
C644 H636 0.929 . S
C644 C645 1.377 . S
C644 C646 1.384 . S
C645 C644 1.377 . S
C645 C651 1.390 . S
C646 H637 0.930 . S
C646 C644 1.384 . S
C646 C647 1.372 . S
C647 C646 1.372 . S
C647 C648 1.400 . S
C647 C652 1.490 . S
C648 H638 0.930 . S
C648 C647 1.400 . S
C648 C651 1.386 . S
H649 C665 0.930 . S
H650 C666 0.931 . S
C651 H639 0.929 . S
C651 C645 1.390 . S
C651 C648 1.386 . S
C652 C647 1.490 . S
C652 C654 1.395 . S
C652 C655 1.403 . S
H653 C659 0.930 . S
C654 H640 0.930 . S
C654 C652 1.395 . S
C654 C657 1.403 . S
C655 C652 1.403 . S
C655 C656 1.524 . S
C655 C659 1.400 . S
C656 H641 0.960 . S
C656 H642 0.960 . S
C656 H643 0.960 . S
C656 C655 1.524 . S
C657 C654 1.403 . S
C657 C658 1.392 . S
C657 C661 1.495 . S
C658 C657 1.392 . S
C658 C659 1.385 . S
C658 C660 1.478 . S
C659 H653 0.930 . S
C659 C655 1.400 . S
C659 C658 1.385 . S
C660 C658 1.478 . S
C660 C662 1.381 . S
C660 C666 1.383 . S
C661 C657 1.495 . S
C661 H667 0.959 . S
C661 H668 0.961 . S
C661 H669 0.960 . S
C662 C660 1.381 . S
C662 C663 1.394 . S
C662 H670 0.930 . S
C663 C662 1.394 . S
C663 C664 1.383 . S
C663 H671 0.929 . S
C664 C663 1.383 . S
C664 C665 1.377 . S
C665 H649 0.930 . S
C665 C664 1.377 . S
C665 C666 1.379 . S
C666 H650 0.931 . S
C666 C660 1.383 . S
C666 C665 1.379 . S
H667 C661 0.959 . S
H668 C661 0.961 . S
H669 C661 0.960 . S
H670 C662 0.930 . S
H671 C663 0.929 . S
H672 C680 0.929 . S
H673 C682 0.930 . S
H674 C684 0.930 . S
H675 C687 0.929 . S
H676 C690 0.930 . S
H677 C692 0.960 . S
H678 C692 0.960 . S
H679 C692 0.960 . S
C680 H672 0.929 . S
C680 C681 1.377 . S
C680 C682 1.384 . S
C681 C680 1.377 . S
C681 C687 1.390 1_545 S
C682 H673 0.930 . S
C682 C680 1.384 . S
C682 C683 1.372 . S
C683 C682 1.372 . S
C683 C684 1.400 1_545 S
C683 C688 1.490 1_455 S
C684 H674 0.930 . S
C684 C683 1.400 1_565 S
C684 C687 1.386 . S
H685 C701 0.930 . S
H686 C702 0.931 . S
C687 H675 0.929 . S
C687 C681 1.390 1_565 S
C687 C684 1.386 . S
C688 C683 1.490 1_655 S
C688 C690 1.395 1_545 S
C688 C691 1.403 . S
H689 C695 0.930 . S
C690 H676 0.930 . S
C690 C688 1.395 1_565 S
C690 C693 1.403 . S
C691 C688 1.403 . S
C691 C692 1.524 1_655 S
C691 C695 1.400 . S
C692 H677 0.960 . S
C692 H678 0.960 . S
C692 H679 0.960 . S
C692 C691 1.524 1_455 S
C693 C690 1.403 . S
C693 C694 1.392 1_565 S
C693 C697 1.495 . S
C694 C693 1.392 1_545 S
C694 C695 1.385 . S
C694 C696 1.478 . S
C695 H689 0.930 . S
C695 C691 1.400 . S
C695 C694 1.385 . S
C696 C694 1.478 . S
C696 C698 1.381 . S
C696 C702 1.383 1_545 S
C697 C693 1.495 . S
C697 H703 0.959 . S
C697 H704 0.961 . S
C697 H705 0.960 . S
C698 C696 1.381 . S
C698 C699 1.394 . S
C698 H706 0.930 . S
C699 C698 1.394 . S
C699 C700 1.383 . S
C699 H707 0.929 . S
C700 C699 1.383 . S
C700 C701 1.377 1_545 S
C701 H685 0.930 . S
C701 C700 1.377 1_565 S
C701 C702 1.379 . S
C702 H686 0.931 . S
C702 C696 1.383 1_565 S
C702 C701 1.379 . S
H703 C697 0.959 . S
H704 C697 0.961 . S
H705 C697 0.960 . S
H706 C698 0.930 . S
H707 C699 0.929 . S
H708 C716 0.929 . S
H709 C718 0.930 . S
H710 C720 0.930 . S
H711 C723 0.929 . S
H712 C726 0.930 . S
H713 C728 0.960 . S
H714 C728 0.960 . S
H715 C728 0.960 . S
C716 H708 0.929 . S
C716 C717 1.377 . S
C716 C718 1.384 . S
C717 C716 1.377 . S
C717 C723 1.390 . S
C718 H709 0.930 . S
C718 C716 1.384 . S
C718 C719 1.372 . S
C719 C718 1.372 . S
C719 C720 1.400 . S
C719 C724 1.490 . S
C720 H710 0.930 . S
C720 C719 1.400 . S
C720 C723 1.386 . S
H721 C737 0.930 . S
H722 C738 0.931 . S
C723 H711 0.929 . S
C723 C717 1.390 . S
C723 C720 1.386 . S
C724 C719 1.490 . S
C724 C726 1.395 . S
C724 C727 1.403 . S
H725 C731 0.930 . S
C726 H712 0.930 . S
C726 C724 1.395 . S
C726 C729 1.403 . S
C727 C724 1.403 . S
C727 C728 1.524 . S
C727 C731 1.400 . S
C728 H713 0.960 . S
C728 H714 0.960 . S
C728 H715 0.960 . S
C728 C727 1.524 . S
C729 C726 1.403 . S
C729 C730 1.392 . S
C729 C733 1.495 . S
C730 C729 1.392 . S
C730 C731 1.385 . S
C730 C732 1.478 . S
C731 H725 0.930 . S
C731 C727 1.400 . S
C731 C730 1.385 . S
C732 C730 1.478 . S
C732 C734 1.381 . S
C732 C738 1.383 . S
C733 C729 1.495 . S
C733 H739 0.959 . S
C733 H740 0.961 . S
C733 H741 0.960 . S
C734 C732 1.381 . S
C734 C735 1.394 . S
C734 H742 0.930 . S
C735 C734 1.394 . S
C735 C736 1.383 . S
C735 H743 0.929 . S
C736 C735 1.383 . S
C736 C737 1.377 . S
C737 H721 0.930 . S
C737 C736 1.377 . S
C737 C738 1.379 . S
C738 H722 0.931 . S
C738 C732 1.383 . S
C738 C737 1.379 . S
H739 C733 0.959 . S
H740 C733 0.961 . S
H741 C733 0.960 . S
H742 C734 0.930 . S
H743 C735 0.929 . S
H744 C752 0.929 . S
H745 C754 0.930 . S
H746 C756 0.930 . S
H747 C759 0.929 . S
H748 C762 0.930 . S
H749 C764 0.960 . S
H750 C764 0.960 . S
H751 C764 0.960 . S
C752 H744 0.929 . S
C752 C753 1.377 1_565 S
C752 C754 1.384 . S
C753 C752 1.377 1_545 S
C753 C759 1.390 . S
C754 H745 0.930 . S
C754 C752 1.384 . S
C754 C755 1.372 1_565 S
C755 C754 1.372 1_545 S
C755 C756 1.400 . S
C755 C760 1.490 . S
C756 H746 0.930 . S
C756 C755 1.400 . S
C756 C759 1.386 . S
H757 C773 0.930 1_554 S
H758 C774 0.931 . S
C759 H747 0.929 . S
C759 C753 1.390 . S
C759 C756 1.386 . S
C760 C755 1.490 . S
C760 C762 1.395 . S
C760 C763 1.403 1_545 S
H761 C767 0.930 . S
C762 H748 0.930 . S
C762 C760 1.395 . S
C762 C765 1.403 . S
C763 C760 1.403 1_565 S
C763 C764 1.524 . S
C763 C767 1.400 . S
C764 H749 0.960 . S
C764 H750 0.960 . S
C764 H751 0.960 . S
C764 C763 1.524 . S
C765 C762 1.403 . S
C765 C766 1.392 . S
C765 C769 1.495 . S
C766 C765 1.392 . S
C766 C767 1.385 1_545 S
C766 C768 1.478 . S
C767 H761 0.930 . S
C767 C763 1.400 . S
C767 C766 1.385 1_565 S
C768 C766 1.478 . S
C768 C770 1.381 1_545 S
C768 C774 1.383 . S
C769 C765 1.495 . S
C769 H775 0.959 . S
C769 H776 0.961 . S
C769 H777 0.960 . S
C770 C768 1.381 1_565 S
C770 C771 1.394 . S
C770 H778 0.930 . S
C771 C770 1.394 . S
C771 C772 1.381 1_565 S
C771 H779 0.929 . S
C772 C771 1.381 1_545 S
C772 C773 1.380 . S
C773 H757 0.930 1_556 S
C773 C772 1.380 . S
C773 C774 1.379 . S
C774 H758 0.931 . S
C774 C768 1.383 . S
C774 C773 1.379 . S
H775 C769 0.959 . S
H776 C769 0.961 . S
H777 C769 0.960 . S
H778 C770 0.930 . S
H779 C771 0.929 . S
H780 C788 0.929 . S
H781 C790 0.930 . S
H782 C792 0.930 . S
H783 C795 0.929 . S
H784 C798 0.930 . S
H785 C800 0.960 . S
H786 C800 0.960 . S
H787 C800 0.960 . S
C788 H780 0.929 . S
C788 C789 1.377 . S
C788 C790 1.384 . S
C789 C788 1.377 . S
C789 C795 1.390 . S
C790 H781 0.930 . S
C790 C788 1.384 . S
C790 C791 1.372 . S
C791 C790 1.372 . S
C791 C792 1.400 . S
C791 C796 1.490 . S
C792 H782 0.930 . S
C792 C791 1.400 . S
C792 C795 1.386 . S
H793 C809 0.930 . S
H794 C810 0.931 . S
C795 H783 0.929 . S
C795 C789 1.390 . S
C795 C792 1.386 . S
C796 C791 1.490 . S
C796 C798 1.395 . S
C796 C799 1.403 . S
H797 C803 0.930 . S
C798 H784 0.930 . S
C798 C796 1.395 . S
C798 C801 1.403 . S
C799 C796 1.403 . S
C799 C800 1.524 . S
C799 C803 1.400 . S
C800 H785 0.960 . S
C800 H786 0.960 . S
C800 H787 0.960 . S
C800 C799 1.524 . S
C801 C798 1.403 . S
C801 C802 1.392 . S
C801 C805 1.495 . S
C802 C801 1.392 . S
C802 C803 1.385 . S
C802 C804 1.478 . S
C803 H797 0.930 . S
C803 C799 1.400 . S
C803 C802 1.385 . S
C804 C802 1.478 . S
C804 C806 1.381 . S
C804 C810 1.383 . S
C805 C801 1.495 . S
C805 H811 0.959 . S
C805 H812 0.961 . S
C805 H813 0.960 . S
C806 C804 1.381 . S
C806 C807 1.394 . S
C806 H814 0.930 . S
C807 C806 1.394 . S
C807 C808 1.383 . S
C807 H815 0.929 . S
C808 C807 1.383 . S
C808 C809 1.377 . S
C809 H793 0.930 . S
C809 C808 1.377 . S
C809 C810 1.379 . S
C810 H794 0.931 . S
C810 C804 1.383 . S
C810 C809 1.379 . S
H811 C805 0.959 . S
H812 C805 0.961 . S
H813 C805 0.960 . S
H814 C806 0.930 . S
H815 C807 0.929 . S
H816 C824 0.929 . S
H817 C826 0.930 . S
H818 C828 0.930 . S
H819 C831 0.929 . S
H820 C834 0.930 . S
H821 C836 0.951 1_655 S
H822 C836 0.960 . S
H823 C836 0.960 . S
C824 H816 0.929 . S
C824 C825 1.377 1_565 S
C824 C826 1.384 . S
C825 C824 1.377 1_545 S
C825 C831 1.390 . S
C826 H817 0.930 . S
C826 C824 1.384 . S
C826 C827 1.372 1_565 S
C827 C826 1.372 1_545 S
C827 C828 1.400 . S
C827 C832 1.490 1_455 S
C828 H818 0.930 . S
C828 C827 1.400 . S
C828 C831 1.386 . S
H829 C845 0.930 . S
H830 C846 0.931 . S
C831 H819 0.929 . S
C831 C825 1.390 . S
C831 C828 1.386 . S
C832 C827 1.490 1_655 S
C832 C834 1.395 . S
C832 C835 1.403 1_545 S
H833 C839 0.930 . S
C834 H820 0.930 . S
C834 C832 1.395 . S
C834 C837 1.403 . S
C835 C832 1.403 1_565 S
C835 C836 1.524 1_655 S
C835 C839 1.400 . S
C836 H821 0.951 1_455 S
C836 H822 0.960 . S
C836 H823 0.960 . S
C836 C835 1.524 1_455 S
C837 C834 1.403 . S
C837 C838 1.392 . S
C837 C841 1.495 . S
C838 C837 1.392 . S
C838 C839 1.385 1_545 S
C838 C840 1.478 . S
C839 H833 0.930 . S
C839 C835 1.400 . S
C839 C838 1.385 1_565 S
C840 C838 1.478 . S
C840 C842 1.381 1_545 S
C840 C846 1.383 . S
C841 C837 1.495 . S
C841 H847 0.959 . S
C841 H848 0.961 . S
C841 H849 0.960 . S
C842 C840 1.381 1_565 S
C842 C843 1.394 . S
C842 H850 0.930 . S
C843 C842 1.394 . S
C843 C844 1.383 . S
C843 H851 0.929 . S
C844 C843 1.383 . S
C844 C845 1.377 1_565 S
C845 H829 0.930 . S
C845 C844 1.377 1_545 S
C845 C846 1.379 . S
C846 H830 0.931 . S
C846 C840 1.383 . S
C846 C845 1.379 . S
H847 C841 0.959 . S
H848 C841 0.961 . S
H849 C841 0.960 . S
H850 C842 0.930 . S
H851 C843 0.929 . S
H852 C860 0.929 . S
H853 C862 0.930 . S
H854 C864 0.930 . S
H855 C867 0.929 . S
H856 C870 0.930 . S
H857 C872 0.960 . S
H858 C872 0.960 . S
H859 C872 0.960 . S
C860 H852 0.929 . S
C860 C861 1.377 . S
C860 C862 1.384 . S
C861 C860 1.377 . S
C861 C867 1.390 . S
C862 H853 0.930 . S
C862 C860 1.384 . S
C862 C863 1.372 . S
C863 C862 1.372 . S
C863 C864 1.400 . S
C863 C868 1.490 . S
C864 H854 0.930 . S
C864 C863 1.400 . S
C864 C867 1.386 . S
H865 C881 0.930 . S
H866 C882 0.931 . S
C867 H855 0.929 . S
C867 C861 1.390 . S
C867 C864 1.386 . S
C868 C863 1.490 . S
C868 C870 1.395 . S
C868 C871 1.403 . S
H869 C875 0.930 . S
C870 H856 0.930 . S
C870 C868 1.395 . S
C870 C873 1.403 . S
C871 C868 1.403 . S
C871 C872 1.524 . S
C871 C875 1.400 . S
C872 H857 0.960 . S
C872 H858 0.960 . S
C872 H859 0.960 . S
C872 C871 1.524 . S
C873 C870 1.403 . S
C873 C874 1.392 . S
C873 C877 1.495 . S
C874 C873 1.392 . S
C874 C875 1.385 . S
C874 C876 1.478 . S
C875 H869 0.930 . S
C875 C871 1.400 . S
C875 C874 1.385 . S
C876 C874 1.478 . S
C876 C878 1.381 . S
C876 C882 1.383 . S
C877 C873 1.495 . S
C877 H883 0.959 . S
C877 H884 0.961 . S
C877 H885 0.960 . S
C878 C876 1.381 . S
C878 C879 1.394 . S
C878 H886 0.930 . S
C879 C878 1.394 . S
C879 C880 1.383 . S
C879 H887 0.929 . S
C880 C879 1.383 . S
C880 C881 1.377 . S
C881 H865 0.930 . S
C881 C880 1.377 . S
C881 C882 1.379 . S
C882 H866 0.931 . S
C882 C876 1.383 . S
C882 C881 1.379 . S
H883 C877 0.959 . S
H884 C877 0.961 . S
H885 C877 0.960 . S
H886 C878 0.930 . S
H887 C879 0.929 . S
H888 C896 0.929 . S
H889 C898 0.930 . S
H890 C900 0.930 . S
H891 C903 0.929 . S
H892 C906 0.930 . S
H893 C908 0.960 . S
H894 C908 0.960 . S
H895 C908 0.960 . S
C896 H888 0.929 . S
C896 C897 1.377 . S
C896 C898 1.384 . S
C897 C896 1.377 . S
C897 C903 1.390 1_565 S
C898 H889 0.930 . S
C898 C896 1.384 . S
C898 C899 1.364 1_565 S
C899 C898 1.364 1_545 S
C899 C900 1.407 . S
C899 C904 1.491 . S
C900 H890 0.930 . S
C900 C899 1.407 . S
C900 C903 1.386 . S
H901 C917 0.930 . S
H902 C918 0.931 . S
C903 H891 0.929 . S
C903 C897 1.390 1_545 S
C903 C900 1.386 . S
C904 C899 1.491 . S
C904 C906 1.395 1_545 S
C904 C907 1.403 . S
H905 C911 0.930 . S
C906 H892 0.930 . S
C906 C904 1.395 1_565 S
C906 C909 1.403 . S
C907 C904 1.403 . S
C907 C908 1.524 . S
C907 C911 1.400 . S
C908 H893 0.960 . S
C908 H894 0.960 . S
C908 H895 0.960 . S
C908 C907 1.524 . S
C909 C906 1.403 . S
C909 C910 1.386 1_565 S
C909 C913 1.495 . S
C910 C909 1.386 1_545 S
C910 C911 1.392 . S
C910 C912 1.478 . S
C911 H905 0.930 . S
C911 C907 1.400 . S
C911 C910 1.392 . S
C912 C910 1.478 . S
C912 C914 1.381 1_545 S
C912 C918 1.383 . S
C913 C909 1.495 . S
C913 H919 0.959 . S
C913 H920 0.961 . S
C913 H921 0.960 . S
C914 C912 1.381 1_565 S
C914 C915 1.394 1_565 S
C914 H922 0.930 . S
C915 C914 1.394 1_545 S
C915 C916 1.383 . S
C915 H923 0.931 . S
C916 C915 1.383 . S
C916 C917 1.377 . S
C917 H901 0.930 . S
C917 C916 1.377 . S
C917 C918 1.379 . S
C918 H902 0.931 . S
C918 C912 1.383 . S
C918 C917 1.379 . S
H919 C913 0.959 . S
H920 C913 0.961 . S
H921 C913 0.960 . S
H922 C914 0.930 . S
H923 C915 0.931 . S
H924 C932 0.929 . S
H925 C934 0.930 . S
H926 C936 0.930 . S
H927 C939 0.929 . S
H928 C942 0.930 . S
H929 C944 0.960 . S
H930 C944 0.960 . S
H931 C944 0.960 . S
C932 H924 0.929 . S
C932 C933 1.377 . S
C932 C934 1.384 . S
C933 C932 1.377 . S
C933 C939 1.390 . S
C934 H925 0.930 . S
C934 C932 1.384 . S
C934 C935 1.372 . S
C935 C934 1.372 . S
C935 C936 1.400 . S
C935 C940 1.490 . S
C936 H926 0.930 . S
C936 C935 1.400 . S
C936 C939 1.386 . S
H937 C953 0.930 . S
H938 C954 0.931 . S
C939 H927 0.929 . S
C939 C933 1.390 . S
C939 C936 1.386 . S
C940 C935 1.490 . S
C940 C942 1.395 . S
C940 C943 1.403 . S
H941 C947 0.930 . S
C942 H928 0.930 . S
C942 C940 1.395 . S
C942 C945 1.403 . S
C943 C940 1.403 . S
C943 C944 1.524 . S
C943 C947 1.400 . S
C944 H929 0.960 . S
C944 H930 0.960 . S
C944 H931 0.960 . S
C944 C943 1.524 . S
C945 C942 1.403 . S
C945 C946 1.392 . S
C945 C949 1.495 . S
C946 C945 1.392 . S
C946 C947 1.385 . S
C946 C948 1.478 . S
C947 H941 0.930 . S
C947 C943 1.400 . S
C947 C946 1.385 . S
C948 C946 1.478 . S
C948 C950 1.381 . S
C948 C954 1.383 . S
C949 C945 1.495 . S
C949 H955 0.959 . S
C949 H956 0.961 . S
C949 H957 0.960 . S
C950 C948 1.381 . S
C950 C951 1.394 . S
C950 H958 0.930 . S
C951 C950 1.394 . S
C951 C952 1.383 . S
C951 H959 0.929 . S
C952 C951 1.383 . S
C952 C953 1.377 . S
C953 H937 0.930 . S
C953 C952 1.377 . S
C953 C954 1.379 . S
C954 H938 0.931 . S
C954 C948 1.383 . S
C954 C953 1.379 . S
H955 C949 0.959 . S
H956 C949 0.961 . S
H957 C949 0.960 . S
H958 C950 0.930 . S
H959 C951 0.929 . S
H960 C968 0.929 . S
H961 C970 0.930 . S
H962 C972 0.930 . S
H963 C975 0.929 . S
H964 C978 0.930 . S
H965 C980 0.960 . S
H966 C980 0.960 1_545 S
H967 C980 0.960 . S
C968 H960 0.929 . S
C968 C969 1.377 1_554 S
C968 C970 1.384 . S
C969 C968 1.377 1_556 S
C969 C975 1.390 . S
C970 H961 0.930 . S
C970 C968 1.384 . S
C970 C971 1.372 . S
C971 C970 1.372 . S
C971 C972 1.400 1_554 S
C971 C976 1.490 1_545 S
C972 H962 0.930 . S
C972 C971 1.400 1_556 S
C972 C975 1.386 . S
H973 C989 0.930 . S
H974 C990 0.931 . S
C975 H963 0.929 . S
C975 C969 1.390 . S
C975 C972 1.386 . S
C976 C971 1.490 1_565 S
C976 C978 1.395 . S
C976 C979 1.403 1_554 S
H977 C983 0.930 . S
C978 H964 0.930 . S
C978 C976 1.395 . S
C978 C981 1.403 . S
C979 C976 1.403 1_556 S
C979 C980 1.524 . S
C979 C983 1.400 . S
C980 H965 0.960 . S
C980 H966 0.960 1_565 S
C980 H967 0.960 . S
C980 C979 1.524 . S
C981 C978 1.403 . S
C981 C982 1.392 . S
C981 C985 1.495 . S
C982 C981 1.392 . S
C982 C983 1.385 1_554 S
C982 C984 1.478 . S
C983 H977 0.930 . S
C983 C979 1.400 . S
C983 C982 1.385 1_556 S
C984 C982 1.478 . S
C984 C986 1.381 . S
C984 C990 1.383 1_554 S
C985 C981 1.495 . S
C985 H991 0.959 . S
C985 H992 0.961 . S
C985 H993 0.960 . S
C986 C984 1.381 . S
C986 C987 1.394 . S
C986 H994 0.930 . S
C987 C986 1.394 . S
C987 C988 1.383 . S
C987 H995 0.929 . S
C988 C987 1.383 . S
C988 C989 1.377 1_554 S
C989 H973 0.930 . S
C989 C988 1.377 1_556 S
C989 C990 1.379 . S
C990 H974 0.931 . S
C990 C984 1.383 1_556 S
C990 C989 1.379 . S
H991 C985 0.959 . S
H992 C985 0.961 . S
H993 C985 0.960 . S
H994 C986 0.930 . S
H995 C987 0.929 . S
H996 C1004 0.927 . S
H997 C1006 0.930 . S
H998 C1008 0.930 . S
H999 C1011 0.929 . S
H1000 C1014 0.930 . S
H1001 C1016 0.960 . S
H1002 C1016 0.960 . S
H1003 C1016 0.960 1_554 S
C1004 H996 0.927 . S
C1004 C1005 1.380 1_556 S
C1004 C1006 1.383 . S
C1005 C1004 1.380 1_554 S
C1005 C1011 1.390 . S
C1006 H997 0.930 . S
C1006 C1004 1.383 . S
C1006 C1007 1.372 1_556 S
C1007 C1006 1.372 1_554 S
C1007 C1008 1.400 . S
C1007 C1012 1.490 . S
C1008 H998 0.930 . S
C1008 C1007 1.400 . S
C1008 C1011 1.386 . S
H1009 C1025 0.930 . S
H1010 C1026 0.931 . S
C1011 H999 0.929 . S
C1011 C1005 1.390 . S
C1011 C1008 1.386 . S
C1012 C1007 1.490 . S
C1012 C1014 1.395 . S
C1012 C1015 1.403 . S
H1013 C1019 0.929 1_556 S
C1014 H1000 0.930 . S
C1014 C1012 1.395 . S
C1014 C1017 1.403 . S
C1015 C1012 1.403 . S
C1015 C1016 1.524 1_554 S
C1015 C1019 1.400 . S
C1016 H1001 0.960 . S
C1016 H1002 0.960 . S
C1016 H1003 0.960 1_556 S
C1016 C1015 1.524 1_556 S
C1017 C1014 1.403 . S
C1017 C1018 1.392 . S
C1017 C1021 1.495 . S
C1018 C1017 1.392 . S
C1018 C1019 1.385 . S
C1018 C1020 1.478 . S
C1019 H1013 0.929 1_554 S
C1019 C1015 1.400 . S
C1019 C1018 1.385 . S
C1020 C1018 1.478 . S
C1020 C1022 1.381 1_554 S
C1020 C1026 1.383 . S
C1021 C1017 1.495 . S
C1021 H1027 0.959 . S
C1021 H1028 0.961 . S
C1021 H1029 0.960 . S
C1022 C1020 1.381 1_556 S
C1022 C1023 1.394 . S
C1022 H1030 0.930 . S
C1023 C1022 1.394 . S
C1023 C1024 1.383 1_556 S
C1023 H1031 0.929 . S
C1024 C1023 1.383 1_554 S
C1024 C1025 1.377 . S
C1025 H1009 0.930 . S
C1025 C1024 1.377 . S
C1025 C1026 1.379 . S
C1026 H1010 0.931 . S
C1026 C1020 1.383 . S
C1026 C1025 1.379 . S
H1027 C1021 0.959 . S
H1028 C1021 0.961 . S
H1029 C1021 0.960 . S
H1030 C1022 0.930 . S
H1031 C1023 0.929 . S
H1032 C1040 0.929 . S
H1033 C1042 0.930 . S
H1034 C1044 0.930 . S
H1035 C1047 0.929 . S
H1036 C1050 0.930 . S
H1037 C1052 0.960 . S
H1038 C1052 0.960 . S
H1039 C1052 0.960 . S
C1040 H1032 0.929 . S
C1040 C1041 1.377 . S
C1040 C1042 1.384 . S
C1041 C1040 1.377 . S
C1041 C1047 1.390 . S
C1042 H1033 0.930 . S
C1042 C1040 1.384 . S
C1042 C1043 1.372 . S
C1043 C1042 1.372 . S
C1043 C1044 1.400 . S
C1043 C1048 1.490 . S
C1044 H1034 0.930 . S
C1044 C1043 1.400 . S
C1044 C1047 1.386 . S
H1045 C1061 0.930 . S
H1046 C1062 0.931 . S
C1047 H1035 0.929 . S
C1047 C1041 1.390 . S
C1047 C1044 1.386 . S
C1048 C1043 1.490 . S
C1048 C1050 1.395 . S
C1048 C1051 1.403 . S
H1049 C1055 0.930 . S
C1050 H1036 0.930 . S
C1050 C1048 1.395 . S
C1050 C1053 1.403 . S
C1051 C1048 1.403 . S
C1051 C1052 1.524 . S
C1051 C1055 1.400 . S
C1052 H1037 0.960 . S
C1052 H1038 0.960 . S
C1052 H1039 0.960 . S
C1052 C1051 1.524 . S
C1053 C1050 1.403 . S
C1053 C1054 1.392 . S
C1053 C1057 1.495 . S
C1054 C1053 1.392 . S
C1054 C1055 1.385 . S
C1054 C1056 1.478 . S
C1055 H1049 0.930 . S
C1055 C1051 1.400 . S
C1055 C1054 1.385 . S
C1056 C1054 1.478 . S
C1056 C1058 1.381 . S
C1056 C1062 1.383 . S
C1057 C1053 1.495 . S
C1057 H1063 0.959 . S
C1057 H1064 0.961 . S
C1057 H1065 0.960 . S
C1058 C1056 1.381 . S
C1058 C1059 1.394 . S
C1058 H1066 0.930 . S
C1059 C1058 1.394 . S
C1059 C1060 1.383 . S
C1059 H1067 0.929 . S
C1060 C1059 1.383 . S
C1060 C1061 1.377 . S
C1061 H1045 0.930 . S
C1061 C1060 1.377 . S
C1061 C1062 1.379 . S
C1062 H1046 0.931 . S
C1062 C1056 1.383 . S
C1062 C1061 1.379 . S
H1063 C1057 0.959 . S
H1064 C1057 0.961 . S
H1065 C1057 0.960 . S
H1066 C1058 0.930 . S
H1067 C1059 0.929 . S
H1068 C1076 0.929 . S
H1069 C1078 0.930 . S
H1070 C1080 0.930 . S
H1071 C1083 0.929 . S
H1072 C1086 0.930 . S
H1073 C1088 0.960 . S
H1074 C1088 0.960 . S
H1075 C1088 0.960 . S
C1076 H1068 0.929 . S
C1076 C1077 1.377 . S
C1076 C1078 1.384 . S
C1077 C1076 1.377 . S
C1077 C1083 1.390 . S
C1078 H1069 0.930 . S
C1078 C1076 1.384 . S
C1078 C1079 1.372 . S
C1079 C1078 1.372 . S
C1079 C1080 1.400 . S
C1079 C1084 1.490 . S
C1080 H1070 0.930 . S
C1080 C1079 1.400 . S
C1080 C1083 1.386 . S
H1081 C1097 0.930 . S
H1082 C1098 0.931 . S
C1083 H1071 0.929 . S
C1083 C1077 1.390 . S
C1083 C1080 1.386 . S
C1084 C1079 1.490 . S
C1084 C1086 1.395 . S
C1084 C1087 1.403 . S
H1085 C1091 0.930 . S
C1086 H1072 0.930 . S
C1086 C1084 1.395 . S
C1086 C1089 1.403 . S
C1087 C1084 1.403 . S
C1087 C1088 1.524 . S
C1087 C1091 1.400 . S
C1088 H1073 0.960 . S
C1088 H1074 0.960 . S
C1088 H1075 0.960 . S
C1088 C1087 1.524 . S
C1089 C1086 1.403 . S
C1089 C1090 1.392 . S
C1089 C1093 1.495 . S
C1090 C1089 1.392 . S
C1090 C1091 1.385 . S
C1090 C1092 1.478 . S
C1091 H1085 0.930 . S
C1091 C1087 1.400 . S
C1091 C1090 1.385 . S
C1092 C1090 1.478 . S
C1092 C1094 1.381 . S
C1092 C1098 1.383 . S
C1093 C1089 1.495 . S
C1093 H1099 0.959 . S
C1093 H1100 0.961 . S
C1093 H1101 0.960 . S
C1094 C1092 1.381 . S
C1094 C1095 1.394 . S
C1094 H1102 0.930 . S
C1095 C1094 1.394 . S
C1095 C1096 1.383 . S
C1095 H1103 0.929 . S
C1096 C1095 1.383 . S
C1096 C1097 1.377 . S
C1097 H1081 0.930 . S
C1097 C1096 1.377 . S
C1097 C1098 1.379 . S
C1098 H1082 0.931 . S
C1098 C1092 1.383 . S
C1098 C1097 1.379 . S
H1099 C1093 0.959 . S
H1100 C1093 0.961 . S
H1101 C1093 0.960 . S
H1102 C1094 0.930 . S
H1103 C1095 0.929 . S
H1104 C1112 0.929 . S
H1105 C1114 0.930 . S
H1106 C1116 0.930 . S
H1107 C1119 0.929 . S
H1108 C1122 0.930 . S
H1109 C1124 0.960 . S
H1110 C1124 0.960 . S
H1111 C1124 0.960 . S
C1112 H1104 0.929 . S
C1112 C1113 1.377 . S
C1112 C1114 1.384 . S
C1113 C1112 1.377 . S
C1113 C1119 1.390 . S
C1114 H1105 0.930 . S
C1114 C1112 1.384 . S
C1114 C1115 1.372 . S
C1115 C1114 1.372 . S
C1115 C1116 1.400 . S
C1115 C1120 1.490 . S
C1116 H1106 0.930 . S
C1116 C1115 1.400 . S
C1116 C1119 1.386 . S
H1117 C1133 0.930 . S
H1118 C1134 0.931 . S
C1119 H1107 0.929 . S
C1119 C1113 1.390 . S
C1119 C1116 1.386 . S
C1120 C1115 1.490 . S
C1120 C1122 1.395 . S
C1120 C1123 1.403 . S
H1121 C1127 0.930 . S
C1122 H1108 0.930 . S
C1122 C1120 1.395 . S
C1122 C1125 1.403 . S
C1123 C1120 1.403 . S
C1123 C1124 1.524 . S
C1123 C1127 1.400 . S
C1124 H1109 0.960 . S
C1124 H1110 0.960 . S
C1124 H1111 0.960 . S
C1124 C1123 1.524 . S
C1125 C1122 1.403 . S
C1125 C1126 1.392 . S
C1125 C1129 1.495 . S
C1126 C1125 1.392 . S
C1126 C1127 1.385 . S
C1126 C1128 1.478 . S
C1127 H1121 0.930 . S
C1127 C1123 1.400 . S
C1127 C1126 1.385 . S
C1128 C1126 1.478 . S
C1128 C1130 1.381 . S
C1128 C1134 1.383 . S
C1129 C1125 1.495 . S
C1129 H1135 0.959 . S
C1129 H1136 0.961 . S
C1129 H1137 0.960 . S
C1130 C1128 1.381 . S
C1130 C1131 1.394 . S
C1130 H1138 0.930 . S
C1131 C1130 1.394 . S
C1131 C1132 1.383 . S
C1131 H1139 0.929 . S
C1132 C1131 1.383 . S
C1132 C1133 1.377 . S
C1133 H1117 0.930 . S
C1133 C1132 1.377 . S
C1133 C1134 1.379 . S
C1134 H1118 0.931 . S
C1134 C1128 1.383 . S
C1134 C1133 1.379 . S
H1135 C1129 0.959 . S
H1136 C1129 0.961 . S
H1137 C1129 0.960 . S
H1138 C1130 0.930 . S
H1139 C1131 0.929 . S
H1140 C1148 0.929 . S
H1141 C1150 0.930 . S
H1142 C1152 0.930 . S
H1143 C1155 0.929 . S
H1144 C1158 0.930 . S
H1145 C1160 0.950 1_545 S
H1146 C1160 0.977 . S
H1147 C1160 0.977 . S
C1148 H1140 0.929 . S
C1148 C1149 1.377 . S
C1148 C1150 1.384 . S
C1149 C1148 1.377 . S
C1149 C1155 1.390 . S
C1150 H1141 0.930 . S
C1150 C1148 1.384 . S
C1150 C1151 1.372 . S
C1151 C1150 1.372 . S
C1151 C1152 1.400 . S
C1151 C1156 1.490 1_565 S
C1152 H1142 0.930 . S
C1152 C1151 1.400 . S
C1152 C1155 1.386 . S
H1153 C1169 0.930 . S
H1154 C1170 0.931 . S
C1155 H1143 0.929 . S
C1155 C1149 1.390 . S
C1155 C1152 1.386 . S
C1156 C1151 1.490 1_545 S
C1156 C1158 1.395 . S
C1156 C1159 1.403 . S
H1157 C1163 0.930 . S
C1158 H1144 0.930 . S
C1158 C1156 1.395 . S
C1158 C1161 1.403 . S
C1159 C1156 1.403 . S
C1159 C1160 1.500 1_545 S
C1159 C1163 1.400 . S
C1160 H1145 0.950 1_565 S
C1160 H1146 0.977 . S
C1160 H1147 0.977 . S
C1160 C1159 1.500 1_565 S
C1161 C1158 1.403 . S
C1161 C1162 1.392 . S
C1161 C1165 1.495 . S
C1162 C1161 1.392 . S
C1162 C1163 1.385 . S
C1162 C1164 1.478 . S
C1163 H1157 0.930 . S
C1163 C1159 1.400 . S
C1163 C1162 1.385 . S
C1164 C1162 1.478 . S
C1164 C1166 1.381 . S
C1164 C1170 1.383 . S
C1165 C1161 1.495 . S
C1165 H1171 0.959 . S
C1165 H1172 0.961 . S
C1165 H1173 0.960 . S
C1166 C1164 1.381 . S
C1166 C1167 1.394 . S
C1166 H1174 0.930 . S
C1167 C1166 1.394 . S
C1167 C1168 1.383 . S
C1167 H1175 0.929 . S
C1168 C1167 1.383 . S
C1168 C1169 1.377 . S
C1169 H1153 0.930 . S
C1169 C1168 1.377 . S
C1169 C1170 1.379 . S
C1170 H1154 0.931 . S
C1170 C1164 1.383 . S
C1170 C1169 1.379 . S
H1171 C1165 0.959 . S
H1172 C1165 0.961 . S
H1173 C1165 0.960 . S
H1174 C1166 0.930 . S
H1175 C1167 0.929 . S
H1176 C1184 0.929 . S
H1177 C1186 0.930 . S
H1178 C1188 0.930 . S
H1179 C1191 0.929 . S
H1180 C1194 0.930 . S
H1181 C1196 0.960 . S
H1182 C1196 0.960 . S
H1183 C1196 0.960 . S
C1184 H1176 0.929 . S
C1184 C1185 1.377 . S
C1184 C1186 1.384 . S
C1185 C1184 1.377 . S
C1185 C1191 1.390 . S
C1186 H1177 0.930 . S
C1186 C1184 1.384 . S
C1186 C1187 1.372 . S
C1187 C1186 1.372 . S
C1187 C1188 1.400 . S
C1187 C1192 1.490 . S
C1188 H1178 0.930 . S
C1188 C1187 1.400 . S
C1188 C1191 1.386 . S
H1189 C1205 0.930 . S
H1190 C1206 0.931 . S
C1191 H1179 0.929 . S
C1191 C1185 1.390 . S
C1191 C1188 1.386 . S
C1192 C1187 1.490 . S
C1192 C1194 1.395 . S
C1192 C1195 1.403 . S
H1193 C1199 0.930 . S
C1194 H1180 0.930 . S
C1194 C1192 1.395 . S
C1194 C1197 1.403 . S
C1195 C1192 1.403 . S
C1195 C1196 1.524 . S
C1195 C1199 1.400 . S
C1196 H1181 0.960 . S
C1196 H1182 0.960 . S
C1196 H1183 0.960 . S
C1196 C1195 1.524 . S
C1197 C1194 1.403 . S
C1197 C1198 1.392 . S
C1197 C1201 1.495 . S
C1198 C1197 1.392 . S
C1198 C1199 1.385 . S
C1198 C1200 1.478 . S
C1199 H1193 0.930 . S
C1199 C1195 1.400 . S
C1199 C1198 1.385 . S
C1200 C1198 1.478 . S
C1200 C1202 1.381 . S
C1200 C1206 1.383 . S
C1201 C1197 1.495 . S
C1201 H1207 0.959 . S
C1201 H1208 0.961 . S
C1201 H1209 0.960 . S
C1202 C1200 1.381 . S
C1202 C1203 1.394 . S
C1202 H1210 0.930 . S
C1203 C1202 1.394 . S
C1203 C1204 1.383 . S
C1203 H1211 0.929 . S
C1204 C1203 1.383 . S
C1204 C1205 1.377 . S
C1205 H1189 0.930 . S
C1205 C1204 1.377 . S
C1205 C1206 1.379 . S
C1206 H1190 0.931 . S
C1206 C1200 1.383 . S
C1206 C1205 1.379 . S
H1207 C1201 0.959 . S
H1208 C1201 0.961 . S
H1209 C1201 0.960 . S
H1210 C1202 0.930 . S
H1211 C1203 0.929 . S
H1212 C1220 0.929 . S
H1213 C1222 0.930 . S
H1214 C1224 0.930 . S
H1215 C1227 0.929 . S
H1216 C1230 0.930 . S
H1217 C1232 0.960 . S
H1218 C1232 0.960 . S
H1219 C1232 0.960 . S
C1220 H1212 0.929 . S
C1220 C1221 1.377 . S
C1220 C1222 1.384 . S
C1221 C1220 1.377 . S
C1221 C1227 1.390 . S
C1222 H1213 0.930 . S
C1222 C1220 1.384 . S
C1222 C1223 1.372 . S
C1223 C1222 1.372 . S
C1223 C1224 1.400 . S
C1223 C1228 1.490 . S
C1224 H1214 0.930 . S
C1224 C1223 1.400 . S
C1224 C1227 1.386 . S
H1225 C1241 0.930 . S
H1226 C1242 0.931 . S
C1227 H1215 0.929 . S
C1227 C1221 1.390 . S
C1227 C1224 1.386 . S
C1228 C1223 1.490 . S
C1228 C1230 1.395 . S
C1228 C1231 1.403 . S
H1229 C1235 0.930 . S
C1230 H1216 0.930 . S
C1230 C1228 1.395 . S
C1230 C1233 1.403 . S
C1231 C1228 1.403 . S
C1231 C1232 1.524 . S
C1231 C1235 1.400 . S
C1232 H1217 0.960 . S
C1232 H1218 0.960 . S
C1232 H1219 0.960 . S
C1232 C1231 1.524 . S
C1233 C1230 1.403 . S
C1233 C1234 1.392 . S
C1233 C1237 1.495 . S
C1234 C1233 1.392 . S
C1234 C1235 1.385 . S
C1234 C1236 1.478 . S
C1235 H1229 0.930 . S
C1235 C1231 1.400 . S
C1235 C1234 1.385 . S
C1236 C1234 1.478 . S
C1236 C1238 1.381 . S
C1236 C1242 1.383 . S
C1237 C1233 1.495 . S
C1237 H1243 0.959 . S
C1237 H1244 0.961 . S
C1237 H1245 0.960 . S
C1238 C1236 1.381 . S
C1238 C1239 1.394 . S
C1238 H1246 0.930 . S
C1239 C1238 1.394 . S
C1239 C1240 1.383 . S
C1239 H1247 0.929 . S
C1240 C1239 1.383 . S
C1240 C1241 1.377 . S
C1241 H1225 0.930 . S
C1241 C1240 1.377 . S
C1241 C1242 1.379 . S
C1242 H1226 0.931 . S
C1242 C1236 1.383 . S
C1242 C1241 1.379 . S
H1243 C1237 0.959 . S
H1244 C1237 0.961 . S
H1245 C1237 0.960 . S
H1246 C1238 0.930 . S
H1247 C1239 0.929 . S
H1248 C1256 0.929 . S
H1249 C1258 0.930 . S
H1250 C1260 0.930 . S
H1251 C1263 0.929 . S
H1252 C1266 0.930 . S
H1253 C1268 0.960 . S
H1254 C1268 0.960 . S
H1255 C1268 0.960 . S
C1256 H1248 0.929 . S
C1256 C1257 1.377 . S
C1256 C1258 1.384 . S
C1257 C1256 1.377 . S
C1257 C1263 1.390 . S
C1258 H1249 0.930 . S
C1258 C1256 1.384 . S
C1258 C1259 1.372 . S
C1259 C1258 1.372 . S
C1259 C1260 1.400 . S
C1259 C1264 1.490 . S
C1260 H1250 0.930 . S
C1260 C1259 1.400 . S
C1260 C1263 1.386 . S
H1261 C1277 0.930 . S
H1262 C1278 0.931 . S
C1263 H1251 0.929 . S
C1263 C1257 1.390 . S
C1263 C1260 1.386 . S
C1264 C1259 1.490 . S
C1264 C1266 1.395 . S
C1264 C1267 1.403 . S
H1265 C1271 0.930 . S
C1266 H1252 0.930 . S
C1266 C1264 1.395 . S
C1266 C1269 1.403 . S
C1267 C1264 1.403 . S
C1267 C1268 1.524 . S
C1267 C1271 1.400 . S
C1268 H1253 0.960 . S
C1268 H1254 0.960 . S
C1268 H1255 0.960 . S
C1268 C1267 1.524 . S
C1269 C1266 1.403 . S
C1269 C1270 1.392 . S
C1269 C1273 1.495 . S
C1270 C1269 1.392 . S
C1270 C1271 1.385 . S
C1270 C1272 1.478 . S
C1271 H1265 0.930 . S
C1271 C1267 1.400 . S
C1271 C1270 1.385 . S
C1272 C1270 1.478 . S
C1272 C1274 1.381 . S
C1272 C1278 1.383 . S
C1273 C1269 1.495 . S
C1273 H1279 0.959 . S
C1273 H1280 0.961 . S
C1273 H1281 0.960 . S
C1274 C1272 1.381 . S
C1274 C1275 1.394 . S
C1274 H1282 0.930 . S
C1275 C1274 1.394 . S
C1275 C1276 1.383 . S
C1275 H1283 0.929 . S
C1276 C1275 1.383 . S
C1276 C1277 1.377 . S
C1277 H1261 0.930 . S
C1277 C1276 1.377 . S
C1277 C1278 1.379 . S
C1278 H1262 0.931 . S
C1278 C1272 1.383 . S
C1278 C1277 1.379 . S
H1279 C1273 0.959 . S
H1280 C1273 0.961 . S
H1281 C1273 0.960 . S
H1282 C1274 0.930 . S
H1283 C1275 0.929 . S
H1284 C1292 0.929 . S
H1285 C1294 0.930 . S
H1286 C1296 0.930 . S
H1287 C1299 0.929 . S
H1288 C1302 0.930 . S
H1289 C1304 0.960 . S
H1290 C1304 0.960 . S
H1291 C1304 0.960 . S
C1292 H1284 0.929 . S
C1292 C1293 1.377 . S
C1292 C1294 1.384 . S
C1293 C1292 1.377 . S
C1293 C1299 1.390 . S
C1294 H1285 0.930 . S
C1294 C1292 1.384 . S
C1294 C1295 1.372 . S
C1295 C1294 1.372 . S
C1295 C1296 1.400 . S
C1295 C1300 1.490 . S
C1296 H1286 0.930 . S
C1296 C1295 1.400 . S
C1296 C1299 1.386 . S
H1297 C1313 0.930 . S
H1298 C1314 0.931 . S
C1299 H1287 0.929 . S
C1299 C1293 1.390 . S
C1299 C1296 1.386 . S
C1300 C1295 1.490 . S
C1300 C1302 1.395 . S
C1300 C1303 1.403 . S
H1301 C1307 0.930 . S
C1302 H1288 0.930 . S
C1302 C1300 1.395 . S
C1302 C1305 1.403 . S
C1303 C1300 1.403 . S
C1303 C1304 1.524 . S
C1303 C1307 1.400 . S
C1304 H1289 0.960 . S
C1304 H1290 0.960 . S
C1304 H1291 0.960 . S
C1304 C1303 1.524 . S
C1305 C1302 1.403 . S
C1305 C1306 1.392 . S
C1305 C1309 1.495 . S
C1306 C1305 1.392 . S
C1306 C1307 1.385 . S
C1306 C1308 1.478 . S
C1307 H1301 0.930 . S
C1307 C1303 1.400 . S
C1307 C1306 1.385 . S
C1308 C1306 1.478 . S
C1308 C1310 1.381 . S
C1308 C1314 1.383 . S
C1309 C1305 1.495 . S
C1309 H1315 0.959 . S
C1309 H1316 0.961 . S
C1309 H1317 0.960 . S
C1310 C1308 1.381 . S
C1310 C1311 1.394 . S
C1310 H1318 0.930 . S
C1311 C1310 1.394 . S
C1311 C1312 1.383 . S
C1311 H1319 0.929 . S
C1312 C1311 1.383 . S
C1312 C1313 1.377 . S
C1313 H1297 0.930 . S
C1313 C1312 1.377 . S
C1313 C1314 1.379 . S
C1314 H1298 0.931 . S
C1314 C1308 1.383 . S
C1314 C1313 1.379 . S
H1315 C1309 0.959 . S
H1316 C1309 0.961 . S
H1317 C1309 0.960 . S
H1318 C1310 0.930 . S
H1319 C1311 0.929 . S
H1320 C1328 0.929 . S
H1321 C1330 0.930 . S
H1322 C1332 0.930 . S
H1323 C1335 0.929 . S
H1324 C1338 0.930 1_554 S
H1325 C1340 0.960 . S
H1326 C1340 0.960 . S
H1327 C1340 0.960 1_655 S
C1328 H1320 0.929 . S
C1328 C1329 1.377 . S
C1328 C1330 1.384 . S
C1329 C1328 1.377 . S
C1329 C1335 1.390 1_455 S
C1330 H1321 0.930 . S
C1330 C1328 1.384 . S
C1330 C1331 1.372 . S
C1331 C1330 1.372 . S
C1331 C1332 1.400 1_455 S
C1331 C1336 1.490 1_554 S
C1332 H1322 0.930 . S
C1332 C1331 1.400 1_655 S
C1332 C1335 1.386 . S
H1333 C1349 0.930 . S
H1334 C1350 0.931 . S
C1335 H1323 0.929 . S
C1335 C1329 1.390 1_655 S
C1335 C1332 1.386 . S
C1336 C1331 1.490 1_556 S
C1336 C1338 1.395 . S
C1336 C1339 1.403 . S
H1337 C1343 0.930 . S
C1338 H1324 0.930 1_556 S
C1338 C1336 1.395 . S
C1338 C1341 1.403 . S
C1339 C1336 1.403 . S
C1339 C1340 1.524 . S
C1339 C1343 1.400 . S
C1340 H1325 0.960 . S
C1340 H1326 0.960 . S
C1340 H1327 0.960 1_455 S
C1340 C1339 1.524 . S
C1341 C1338 1.403 . S
C1341 C1342 1.392 . S
C1341 C1345 1.495 . S
C1342 C1341 1.392 . S
C1342 C1343 1.385 . S
C1342 C1344 1.478 . S
C1343 H1337 0.930 . S
C1343 C1339 1.400 . S
C1343 C1342 1.385 . S
C1344 C1342 1.478 . S
C1344 C1346 1.381 . S
C1344 C1350 1.383 1_455 S
C1345 C1341 1.495 . S
C1345 H1351 0.959 . S
C1345 H1352 0.961 1_455 S
C1345 H1353 0.960 . S
C1346 C1344 1.381 . S
C1346 C1347 1.394 . S
C1346 H1354 0.930 . S
C1347 C1346 1.394 . S
C1347 C1348 1.383 . S
C1347 H1355 0.929 . S
C1348 C1347 1.383 . S
C1348 C1349 1.377 1_455 S
C1349 H1333 0.930 . S
C1349 C1348 1.377 1_655 S
C1349 C1350 1.379 . S
C1350 H1334 0.931 . S
C1350 C1344 1.383 1_655 S
C1350 C1349 1.379 . S
H1351 C1345 0.959 . S
H1352 C1345 0.961 1_655 S
H1353 C1345 0.960 . S
H1354 C1346 0.930 . S
H1355 C1347 0.929 . S
H1356 C1364 0.929 . S
H1357 C1366 0.930 . S
H1358 C1368 0.930 . S
H1359 C1371 0.929 . S
H1360 C1374 0.930 . S
H1361 C1376 0.960 . S
H1362 C1376 0.960 . S
H1363 C1376 0.960 . S
C1364 H1356 0.929 . S
C1364 C1365 1.377 . S
C1364 C1366 1.384 . S
C1365 C1364 1.377 . S
C1365 C1371 1.390 . S
C1366 H1357 0.930 . S
C1366 C1364 1.384 . S
C1366 C1367 1.372 . S
C1367 C1366 1.372 . S
C1367 C1368 1.400 . S
C1367 C1372 1.490 . S
C1368 H1358 0.930 . S
C1368 C1367 1.400 . S
C1368 C1371 1.386 . S
H1369 C1385 0.930 . S
H1370 C1386 0.931 . S
C1371 H1359 0.929 . S
C1371 C1365 1.390 . S
C1371 C1368 1.386 . S
C1372 C1367 1.490 . S
C1372 C1374 1.395 . S
C1372 C1375 1.403 . S
H1373 C1379 0.930 . S
C1374 H1360 0.930 . S
C1374 C1372 1.395 . S
C1374 C1377 1.403 . S
C1375 C1372 1.403 . S
C1375 C1376 1.524 . S
C1375 C1379 1.400 . S
C1376 H1361 0.960 . S
C1376 H1362 0.960 . S
C1376 H1363 0.960 . S
C1376 C1375 1.524 . S
C1377 C1374 1.403 . S
C1377 C1378 1.392 . S
C1377 C1381 1.495 . S
C1378 C1377 1.392 . S
C1378 C1379 1.385 . S
C1378 C1380 1.478 . S
C1379 H1373 0.930 . S
C1379 C1375 1.400 . S
C1379 C1378 1.385 . S
C1380 C1378 1.478 . S
C1380 C1382 1.381 . S
C1380 C1386 1.383 . S
C1381 C1377 1.495 . S
C1381 H1387 0.959 . S
C1381 H1388 0.961 . S
C1381 H1389 0.960 . S
C1382 C1380 1.381 . S
C1382 C1383 1.394 . S
C1382 H1390 0.930 . S
C1383 C1382 1.394 . S
C1383 C1384 1.383 . S
C1383 H1391 0.929 . S
C1384 C1383 1.383 . S
C1384 C1385 1.377 . S
C1385 H1369 0.930 . S
C1385 C1384 1.377 . S
C1385 C1386 1.379 . S
C1386 H1370 0.931 . S
C1386 C1380 1.383 . S
C1386 C1385 1.379 . S
H1387 C1381 0.959 . S
H1388 C1381 0.961 . S
H1389 C1381 0.960 . S
H1390 C1382 0.930 . S
H1391 C1383 0.929 . S
H1392 C1400 0.929 . S
H1393 C1402 0.930 . S
H1394 C1404 0.930 . S
H1395 C1407 0.929 . S
H1396 C1410 0.930 . S
H1397 C1412 0.960 . S
H1398 C1412 0.960 . S
H1399 C1412 0.960 . S
C1400 H1392 0.929 . S
C1400 C1401 1.377 . S
C1400 C1402 1.384 . S
C1401 C1400 1.377 . S
C1401 C1407 1.390 . S
C1402 H1393 0.930 . S
C1402 C1400 1.384 . S
C1402 C1403 1.372 1_556 S
C1403 C1402 1.372 1_554 S
C1403 C1404 1.400 . S
C1403 C1408 1.490 . S
C1404 H1394 0.930 . S
C1404 C1403 1.400 . S
C1404 C1407 1.386 1_554 S
H1405 C1421 0.930 . S
H1406 C1422 0.931 . S
C1407 H1395 0.929 . S
C1407 C1401 1.390 . S
C1407 C1404 1.386 1_556 S
C1408 C1403 1.490 . S
C1408 C1410 1.395 . S
C1408 C1411 1.403 . S
H1409 C1415 0.930 . S
C1410 H1396 0.930 . S
C1410 C1408 1.395 . S
C1410 C1413 1.403 . S
C1411 C1408 1.403 . S
C1411 C1412 1.524 . S
C1411 C1415 1.400 . S
C1412 H1397 0.960 . S
C1412 H1398 0.960 . S
C1412 H1399 0.960 . S
C1412 C1411 1.524 . S
C1413 C1410 1.403 . S
C1413 C1414 1.392 . S
C1413 C1417 1.495 . S
C1414 C1413 1.392 . S
C1414 C1415 1.385 . S
C1414 C1416 1.478 . S
C1415 H1409 0.930 . S
C1415 C1411 1.400 . S
C1415 C1414 1.385 . S
C1416 C1414 1.478 . S
C1416 C1418 1.381 . S
C1416 C1422 1.383 . S
C1417 C1413 1.495 . S
C1417 H1423 0.959 . S
C1417 H1424 0.961 . S
C1417 H1425 0.960 . S
C1418 C1416 1.381 . S
C1418 C1419 1.394 . S
C1418 H1426 0.930 . S
C1419 C1418 1.394 . S
C1419 C1420 1.383 . S
C1419 H1427 0.929 . S
C1420 C1419 1.383 . S
C1420 C1421 1.377 . S
C1421 H1405 0.930 . S
C1421 C1420 1.377 . S
C1421 C1422 1.379 . S
C1422 H1406 0.931 . S
C1422 C1416 1.383 . S
C1422 C1421 1.379 . S
H1423 C1417 0.959 . S
H1424 C1417 0.961 . S
H1425 C1417 0.960 . S
H1426 C1418 0.930 . S
H1427 C1419 0.929 . S
H1428 C1436 0.929 . S
H1429 C1438 0.930 . S
H1430 C1440 0.930 . S
H1431 C1443 0.929 . S
H1432 C1446 0.930 . S
H1433 C1448 0.960 . S
H1434 C1448 0.960 . S
H1435 C1448 0.960 . S
C1436 H1428 0.929 . S
C1436 C1437 1.377 . S
C1436 C1438 1.384 . S
C1437 C1436 1.377 . S
C1437 C1443 1.390 . S
C1438 H1429 0.930 . S
C1438 C1436 1.384 . S
C1438 C1439 1.372 . S
C1439 C1438 1.372 . S
C1439 C1440 1.400 . S
C1439 C1444 1.490 . S
C1440 H1430 0.930 . S
C1440 C1439 1.400 . S
C1440 C1443 1.386 . S
H1441 C1457 0.930 . S
H1442 C1458 0.931 . S
C1443 H1431 0.929 . S
C1443 C1437 1.390 . S
C1443 C1440 1.386 . S
C1444 C1439 1.490 . S
C1444 C1446 1.395 . S
C1444 C1447 1.403 . S
H1445 C1451 0.930 . S
C1446 H1432 0.930 . S
C1446 C1444 1.395 . S
C1446 C1449 1.403 . S
C1447 C1444 1.403 . S
C1447 C1448 1.524 . S
C1447 C1451 1.400 . S
C1448 H1433 0.960 . S
C1448 H1434 0.960 . S
C1448 H1435 0.960 . S
C1448 C1447 1.524 . S
C1449 C1446 1.403 . S
C1449 C1450 1.392 . S
C1449 C1453 1.495 . S
C1450 C1449 1.392 . S
C1450 C1451 1.385 . S
C1450 C1452 1.478 . S
C1451 H1445 0.930 . S
C1451 C1447 1.400 . S
C1451 C1450 1.385 . S
C1452 C1450 1.478 . S
C1452 C1454 1.381 . S
C1452 C1458 1.383 . S
C1453 C1449 1.495 . S
C1453 H1459 0.959 . S
C1453 H1460 0.961 . S
C1453 H1461 0.960 . S
C1454 C1452 1.381 . S
C1454 C1455 1.394 . S
C1454 H1462 0.930 . S
C1455 C1454 1.394 . S
C1455 C1456 1.383 . S
C1455 H1463 0.929 . S
C1456 C1455 1.383 . S
C1456 C1457 1.377 . S
C1457 H1441 0.930 . S
C1457 C1456 1.377 . S
C1457 C1458 1.379 . S
C1458 H1442 0.931 . S
C1458 C1452 1.383 . S
C1458 C1457 1.379 . S
H1459 C1453 0.959 . S
H1460 C1453 0.961 . S
H1461 C1453 0.960 . S
H1462 C1454 0.930 . S
H1463 C1455 0.929 . S
H1464 C1472 0.929 . S
H1465 C1474 0.930 . S
H1466 C1476 0.930 . S
H1467 C1479 0.929 . S
H1468 C1482 0.930 1_655 S
H1469 C1484 0.960 . S
H1470 C1484 0.960 . S
H1471 C1484 0.960 . S
C1472 H1464 0.929 . S
C1472 C1473 1.377 . S
C1472 C1474 1.384 . S
C1473 C1472 1.377 . S
C1473 C1479 1.390 1_455 S
C1474 H1465 0.930 . S
C1474 C1472 1.384 . S
C1474 C1475 1.372 . S
C1475 C1474 1.372 . S
C1475 C1476 1.400 1_455 S
C1475 C1480 1.490 . S
C1476 H1466 0.930 . S
C1476 C1475 1.400 1_655 S
C1476 C1479 1.386 . S
H1477 C1493 0.930 . S
H1478 C1494 0.931 . S
C1479 H1467 0.929 . S
C1479 C1473 1.390 1_655 S
C1479 C1476 1.386 . S
C1480 C1475 1.490 . S
C1480 C1482 1.395 . S
C1480 C1483 1.403 . S
H1481 C1487 0.930 . S
C1482 H1468 0.930 1_455 S
C1482 C1480 1.395 . S
C1482 C1485 1.403 . S
C1483 C1480 1.403 . S
C1483 C1484 1.524 . S
C1483 C1487 1.400 . S
C1484 H1469 0.960 . S
C1484 H1470 0.960 . S
C1484 H1471 0.960 . S
C1484 C1483 1.524 . S
C1485 C1482 1.403 . S
C1485 C1486 1.392 . S
C1485 C1489 1.495 1_455 S
C1486 C1485 1.392 . S
C1486 C1487 1.385 . S
C1486 C1488 1.478 . S
C1487 H1481 0.930 . S
C1487 C1483 1.400 . S
C1487 C1486 1.385 . S
C1488 C1486 1.478 . S
C1488 C1490 1.381 . S
C1488 C1494 1.383 1_455 S
C1489 C1485 1.495 1_655 S
C1489 H1495 0.959 . S
C1489 H1496 0.961 . S
C1489 H1497 0.960 1_655 S
C1490 C1488 1.381 . S
C1490 C1491 1.394 . S
C1490 H1498 0.930 . S
C1491 C1490 1.394 . S
C1491 C1492 1.383 . S
C1491 H1499 0.929 . S
C1492 C1491 1.383 . S
C1492 C1493 1.377 1_455 S
C1493 H1477 0.930 . S
C1493 C1492 1.377 1_655 S
C1493 C1494 1.379 . S
C1494 H1478 0.931 . S
C1494 C1488 1.383 1_655 S
C1494 C1493 1.379 . S
H1495 C1489 0.959 . S
H1496 C1489 0.961 . S
H1497 C1489 0.960 1_455 S
H1498 C1490 0.930 . S
H1499 C1491 0.929 . S
H1500 C1508 0.929 . S
H1501 C1510 0.930 . S
H1502 C1512 0.930 . S
H1503 C1515 0.929 . S
H1504 C1518 0.930 . S
H1505 C1520 0.960 . S
H1506 C1520 0.960 . S
H1507 C1520 0.960 . S
C1508 H1500 0.929 . S
C1508 C1509 1.377 . S
C1508 C1510 1.384 . S
C1509 C1508 1.377 . S
C1509 C1515 1.390 . S
C1510 H1501 0.930 . S
C1510 C1508 1.384 . S
C1510 C1511 1.372 . S
C1511 C1510 1.372 . S
C1511 C1512 1.400 . S
C1511 C1516 1.490 . S
C1512 H1502 0.930 . S
C1512 C1511 1.400 . S
C1512 C1515 1.386 . S
H1513 C1529 0.930 . S
H1514 C1530 0.931 . S
C1515 H1503 0.929 . S
C1515 C1509 1.390 . S
C1515 C1512 1.386 . S
C1516 C1511 1.490 . S
C1516 C1518 1.395 . S
C1516 C1519 1.403 . S
H1517 C1523 0.930 . S
C1518 H1504 0.930 . S
C1518 C1516 1.395 . S
C1518 C1521 1.403 . S
C1519 C1516 1.403 . S
C1519 C1520 1.524 . S
C1519 C1523 1.400 . S
C1520 H1505 0.960 . S
C1520 H1506 0.960 . S
C1520 H1507 0.960 . S
C1520 C1519 1.524 . S
C1521 C1518 1.403 . S
C1521 C1522 1.392 . S
C1521 C1525 1.495 . S
C1522 C1521 1.392 . S
C1522 C1523 1.385 . S
C1522 C1524 1.478 . S
C1523 H1517 0.930 . S
C1523 C1519 1.400 . S
C1523 C1522 1.385 . S
C1524 C1522 1.478 . S
C1524 C1526 1.381 . S
C1524 C1530 1.383 . S
C1525 C1521 1.495 . S
C1525 H1531 0.959 . S
C1525 H1532 0.961 . S
C1525 H1533 0.960 . S
C1526 C1524 1.381 . S
C1526 C1527 1.394 . S
C1526 H1534 0.930 . S
C1527 C1526 1.394 . S
C1527 C1528 1.383 . S
C1527 H1535 0.929 . S
C1528 C1527 1.383 . S
C1528 C1529 1.377 . S
C1529 H1513 0.930 . S
C1529 C1528 1.377 . S
C1529 C1530 1.379 . S
C1530 H1514 0.931 . S
C1530 C1524 1.383 . S
C1530 C1529 1.379 . S
H1531 C1525 0.959 . S
H1532 C1525 0.961 . S
H1533 C1525 0.960 . S
H1534 C1526 0.930 . S
H1535 C1527 0.929 . S
H1536 C1544 0.929 . S
H1537 C1546 0.930 . S
H1538 C1548 0.930 . S
H1539 C1551 0.929 . S
H1540 C1554 0.930 . S
H1541 C1556 0.960 . S
H1542 C1556 0.960 . S
H1543 C1556 0.960 . S
C1544 H1536 0.929 . S
C1544 C1545 1.377 . S
C1544 C1546 1.384 . S
C1545 C1544 1.377 . S
C1545 C1551 1.390 . S
C1546 H1537 0.930 . S
C1546 C1544 1.384 . S
C1546 C1547 1.372 . S
C1547 C1546 1.372 . S
C1547 C1548 1.400 . S
C1547 C1552 1.490 . S
C1548 H1538 0.930 . S
C1548 C1547 1.400 . S
C1548 C1551 1.386 . S
H1549 C1565 0.930 . S
H1550 C1566 0.931 . S
C1551 H1539 0.929 . S
C1551 C1545 1.390 . S
C1551 C1548 1.386 . S
C1552 C1547 1.490 . S
C1552 C1554 1.395 . S
C1552 C1555 1.403 . S
H1553 C1559 0.930 . S
C1554 H1540 0.930 . S
C1554 C1552 1.395 . S
C1554 C1557 1.403 . S
C1555 C1552 1.403 . S
C1555 C1556 1.524 . S
C1555 C1559 1.400 . S
C1556 H1541 0.960 . S
C1556 H1542 0.960 . S
C1556 H1543 0.960 . S
C1556 C1555 1.524 . S
C1557 C1554 1.403 . S
C1557 C1558 1.392 . S
C1557 C1561 1.495 . S
C1558 C1557 1.392 . S
C1558 C1559 1.385 . S
C1558 C1560 1.478 . S
C1559 H1553 0.930 . S
C1559 C1555 1.400 . S
C1559 C1558 1.385 . S
C1560 C1558 1.478 . S
C1560 C1562 1.381 . S
C1560 C1566 1.383 . S
C1561 C1557 1.495 . S
C1561 H1567 0.959 . S
C1561 H1568 0.961 . S
C1561 H1569 0.960 . S
C1562 C1560 1.381 . S
C1562 C1563 1.394 . S
C1562 H1570 0.930 . S
C1563 C1562 1.394 . S
C1563 C1564 1.383 . S
C1563 H1571 0.929 . S
C1564 C1563 1.383 . S
C1564 C1565 1.377 . S
C1565 H1549 0.930 . S
C1565 C1564 1.377 . S
C1565 C1566 1.379 . S
C1566 H1550 0.931 . S
C1566 C1560 1.383 . S
C1566 C1565 1.379 . S
H1567 C1561 0.959 . S
H1568 C1561 0.961 . S
H1569 C1561 0.960 . S
H1570 C1562 0.930 . S
H1571 C1563 0.929 . S
H1572 C1580 0.929 . S
H1573 C1582 0.930 . S
H1574 C1584 0.930 . S
H1575 C1587 0.929 . S
H1576 C1590 0.930 . S
H1577 C1592 0.960 . S
H1578 C1592 0.960 . S
H1579 C1592 0.960 . S
C1580 H1572 0.929 . S
C1580 C1581 1.377 . S
C1580 C1582 1.384 . S
C1581 C1580 1.377 . S
C1581 C1587 1.390 . S
C1582 H1573 0.930 . S
C1582 C1580 1.384 . S
C1582 C1583 1.372 . S
C1583 C1582 1.372 . S
C1583 C1584 1.400 . S
C1583 C1588 1.490 . S
C1584 H1574 0.930 . S
C1584 C1583 1.400 . S
C1584 C1587 1.386 . S
H1585 C1601 0.930 . S
H1586 C1602 0.931 . S
C1587 H1575 0.929 . S
C1587 C1581 1.390 . S
C1587 C1584 1.386 . S
C1588 C1583 1.490 . S
C1588 C1590 1.395 . S
C1588 C1591 1.403 . S
H1589 C1595 0.930 . S
C1590 H1576 0.930 . S
C1590 C1588 1.395 . S
C1590 C1593 1.403 . S
C1591 C1588 1.403 . S
C1591 C1592 1.524 . S
C1591 C1595 1.400 . S
C1592 H1577 0.960 . S
C1592 H1578 0.960 . S
C1592 H1579 0.960 . S
C1592 C1591 1.524 . S
C1593 C1590 1.403 . S
C1593 C1594 1.392 . S
C1593 C1597 1.495 . S
C1594 C1593 1.392 . S
C1594 C1595 1.385 . S
C1594 C1596 1.478 . S
C1595 H1589 0.930 . S
C1595 C1591 1.400 . S
C1595 C1594 1.385 . S
C1596 C1594 1.478 . S
C1596 C1598 1.381 . S
C1596 C1602 1.383 . S
C1597 C1593 1.495 . S
C1597 H1603 0.959 . S
C1597 H1604 0.961 . S
C1597 H1605 0.960 . S
C1598 C1596 1.381 . S
C1598 C1599 1.394 . S
C1598 H1606 0.930 . S
C1599 C1598 1.394 . S
C1599 C1600 1.383 . S
C1599 H1607 0.929 . S
C1600 C1599 1.383 . S
C1600 C1601 1.377 . S
C1601 H1585 0.930 . S
C1601 C1600 1.377 . S
C1601 C1602 1.379 . S
C1602 H1586 0.931 . S
C1602 C1596 1.383 . S
C1602 C1601 1.379 . S
H1603 C1597 0.959 . S
H1604 C1597 0.961 . S
H1605 C1597 0.960 . S
H1606 C1598 0.930 . S
H1607 C1599 0.929 . S
H1608 C1616 0.929 . S
H1609 C1618 0.930 . S
H1610 C1620 0.930 1_455 S
H1611 C1623 0.929 . S
H1612 C1626 0.930 . S
H1613 C1628 0.960 . S
H1614 C1628 0.960 . S
H1615 C1628 0.960 . S
C1616 H1608 0.929 . S
C1616 C1617 1.377 . S
C1616 C1618 1.384 . S
C1617 C1616 1.377 . S
C1617 C1623 1.390 . S
C1618 H1609 0.930 . S
C1618 C1616 1.384 . S
C1618 C1619 1.372 1_655 S
C1619 C1618 1.372 1_455 S
C1619 C1620 1.400 1_455 S
C1619 C1624 1.490 . S
C1620 H1610 0.930 1_655 S
C1620 C1619 1.400 1_655 S
C1620 C1623 1.386 . S
H1621 C1637 0.930 . S
H1622 C1638 0.931 . S
C1623 H1611 0.929 . S
C1623 C1617 1.390 . S
C1623 C1620 1.386 . S
C1624 C1619 1.490 . S
C1624 C1626 1.395 . S
C1624 C1627 1.403 . S
H1625 C1631 0.930 . S
C1626 H1612 0.930 . S
C1626 C1624 1.395 . S
C1626 C1629 1.403 . S
C1627 C1624 1.403 . S
C1627 C1628 1.524 . S
C1627 C1631 1.400 . S
C1628 H1613 0.960 . S
C1628 H1614 0.960 . S
C1628 H1615 0.960 . S
C1628 C1627 1.524 . S
C1629 C1626 1.403 . S
C1629 C1630 1.392 . S
C1629 C1633 1.495 . S
C1630 C1629 1.392 . S
C1630 C1631 1.385 . S
C1630 C1632 1.478 . S
C1631 H1625 0.930 . S
C1631 C1627 1.400 . S
C1631 C1630 1.385 . S
C1632 C1630 1.478 . S
C1632 C1634 1.381 . S
C1632 C1638 1.383 . S
C1633 C1629 1.495 . S
C1633 H1639 0.959 . S
C1633 H1640 0.961 . S
C1633 H1641 0.960 . S
C1634 C1632 1.381 . S
C1634 C1635 1.394 . S
C1634 H1642 0.930 . S
C1635 C1634 1.394 . S
C1635 C1636 1.383 . S
C1635 H1643 0.929 . S
C1636 C1635 1.383 . S
C1636 C1637 1.377 . S
C1637 H1621 0.930 . S
C1637 C1636 1.377 . S
C1637 C1638 1.379 . S
C1638 H1622 0.931 . S
C1638 C1632 1.383 . S
C1638 C1637 1.379 . S
H1639 C1633 0.959 . S
H1640 C1633 0.961 . S
H1641 C1633 0.960 . S
H1642 C1634 0.930 . S
H1643 C1635 0.929 . S
H1644 C1652 0.929 . S
H1645 C1654 0.930 . S
H1646 C1656 0.930 . S
H1647 C1659 0.929 . S
H1648 C1662 0.930 . S
H1649 C1664 0.960 . S
H1650 C1664 0.960 . S
H1651 C1664 0.960 . S
C1652 H1644 0.929 . S
C1652 C1653 1.377 . S
C1652 C1654 1.384 . S
C1653 C1652 1.377 . S
C1653 C1659 1.390 . S
C1654 H1645 0.930 . S
C1654 C1652 1.384 . S
C1654 C1655 1.372 . S
C1655 C1654 1.372 . S
C1655 C1656 1.400 . S
C1655 C1660 1.490 . S
C1656 H1646 0.930 . S
C1656 C1655 1.400 . S
C1656 C1659 1.386 . S
H1657 C1673 0.930 . S
H1658 C1674 0.931 . S
C1659 H1647 0.929 . S
C1659 C1653 1.390 . S
C1659 C1656 1.386 . S
C1660 C1655 1.490 . S
C1660 C1662 1.395 . S
C1660 C1663 1.403 . S
H1661 C1667 0.930 . S
C1662 H1648 0.930 . S
C1662 C1660 1.395 . S
C1662 C1665 1.403 . S
C1663 C1660 1.403 . S
C1663 C1664 1.524 . S
C1663 C1667 1.400 . S
C1664 H1649 0.960 . S
C1664 H1650 0.960 . S
C1664 H1651 0.960 . S
C1664 C1663 1.524 . S
C1665 C1662 1.403 . S
C1665 C1666 1.392 . S
C1665 C1669 1.495 . S
C1666 C1665 1.392 . S
C1666 C1667 1.385 . S
C1666 C1668 1.478 . S
C1667 H1661 0.930 . S
C1667 C1663 1.400 . S
C1667 C1666 1.385 . S
C1668 C1666 1.478 . S
C1668 C1670 1.381 . S
C1668 C1674 1.383 . S
C1669 C1665 1.495 . S
C1669 H1675 0.959 . S
C1669 H1676 0.961 . S
C1669 H1677 0.960 . S
C1670 C1668 1.381 . S
C1670 C1671 1.394 . S
C1670 H1678 0.930 . S
C1671 C1670 1.394 . S
C1671 C1672 1.383 . S
C1671 H1679 0.929 . S
C1672 C1671 1.383 . S
C1672 C1673 1.377 . S
C1673 H1657 0.930 . S
C1673 C1672 1.377 . S
C1673 C1674 1.379 . S
C1674 H1658 0.931 . S
C1674 C1668 1.383 . S
C1674 C1673 1.379 . S
H1675 C1669 0.959 . S
H1676 C1669 0.961 . S
H1677 C1669 0.960 . S
H1678 C1670 0.930 . S
H1679 C1671 0.929 . S
H1680 C1688 0.929 . S
H1681 C1690 0.930 . S
H1682 C1692 0.930 . S
H1683 C1695 0.929 . S
H1684 C1698 0.930 . S
H1685 C1700 0.960 . S
H1686 C1700 0.960 . S
H1687 C1700 0.960 . S
C1688 H1680 0.929 . S
C1688 C1689 1.377 . S
C1688 C1690 1.384 . S
C1689 C1688 1.377 . S
C1689 C1695 1.390 . S
C1690 H1681 0.930 . S
C1690 C1688 1.384 . S
C1690 C1691 1.372 . S
C1691 C1690 1.372 . S
C1691 C1692 1.400 . S
C1691 C1696 1.490 . S
C1692 H1682 0.930 . S
C1692 C1691 1.400 . S
C1692 C1695 1.386 . S
H1693 C1709 0.930 . S
H1694 C1710 0.931 . S
C1695 H1683 0.929 . S
C1695 C1689 1.390 . S
C1695 C1692 1.386 . S
C1696 C1691 1.490 . S
C1696 C1698 1.395 . S
C1696 C1699 1.403 . S
H1697 C1703 0.930 . S
C1698 H1684 0.930 . S
C1698 C1696 1.395 . S
C1698 C1701 1.403 . S
C1699 C1696 1.403 . S
C1699 C1700 1.524 . S
C1699 C1703 1.400 . S
C1700 H1685 0.960 . S
C1700 H1686 0.960 . S
C1700 H1687 0.960 . S
C1700 C1699 1.524 . S
C1701 C1698 1.403 . S
C1701 C1702 1.392 . S
C1701 C1705 1.495 . S
C1702 C1701 1.392 . S
C1702 C1703 1.385 . S
C1702 C1704 1.478 . S
C1703 H1697 0.930 . S
C1703 C1699 1.400 . S
C1703 C1702 1.385 . S
C1704 C1702 1.478 . S
C1704 C1706 1.381 . S
C1704 C1710 1.383 . S
C1705 C1701 1.495 . S
C1705 H1711 0.959 . S
C1705 H1712 0.961 . S
C1705 H1713 0.960 . S
C1706 C1704 1.381 . S
C1706 C1707 1.394 . S
C1706 H1714 0.930 . S
C1707 C1706 1.394 . S
C1707 C1708 1.383 . S
C1707 H1715 0.929 . S
C1708 C1707 1.383 . S
C1708 C1709 1.377 . S
C1709 H1693 0.930 . S
C1709 C1708 1.377 . S
C1709 C1710 1.379 . S
C1710 H1694 0.931 . S
C1710 C1704 1.383 . S
C1710 C1709 1.379 . S
H1711 C1705 0.959 . S
H1712 C1705 0.961 . S
H1713 C1705 0.960 . S
H1714 C1706 0.930 . S
H1715 C1707 0.929 . S
H1716 C1724 0.929 . S
H1717 C1726 0.930 . S
H1718 C1728 0.930 . S
H1719 C1731 0.929 . S
H1720 C1734 0.930 . S
H1721 C1736 0.960 . S
H1722 C1736 0.960 . S
H1723 C1736 0.960 . S
C1724 H1716 0.929 . S
C1724 C1725 1.377 . S
C1724 C1726 1.384 . S
C1725 C1724 1.377 . S
C1725 C1731 1.390 . S
C1726 H1717 0.930 . S
C1726 C1724 1.384 . S
C1726 C1727 1.372 . S
C1727 C1726 1.372 . S
C1727 C1728 1.400 . S
C1727 C1732 1.490 . S
C1728 H1718 0.930 . S
C1728 C1727 1.400 . S
C1728 C1731 1.386 . S
H1729 C1745 0.930 . S
H1730 C1746 0.931 . S
C1731 H1719 0.929 . S
C1731 C1725 1.390 . S
C1731 C1728 1.386 . S
C1732 C1727 1.490 . S
C1732 C1734 1.395 . S
C1732 C1735 1.403 . S
H1733 C1739 0.930 . S
C1734 H1720 0.930 . S
C1734 C1732 1.395 . S
C1734 C1737 1.403 . S
C1735 C1732 1.403 . S
C1735 C1736 1.524 . S
C1735 C1739 1.400 . S
C1736 H1721 0.960 . S
C1736 H1722 0.960 . S
C1736 H1723 0.960 . S
C1736 C1735 1.524 . S
C1737 C1734 1.403 . S
C1737 C1738 1.392 . S
C1737 C1741 1.495 . S
C1738 C1737 1.392 . S
C1738 C1739 1.385 . S
C1738 C1740 1.478 . S
C1739 H1733 0.930 . S
C1739 C1735 1.400 . S
C1739 C1738 1.385 . S
C1740 C1738 1.478 . S
C1740 C1742 1.381 . S
C1740 C1746 1.383 . S
C1741 C1737 1.495 . S
C1741 H1747 0.959 . S
C1741 H1748 0.961 . S
C1741 H1749 0.960 . S
C1742 C1740 1.381 . S
C1742 C1743 1.394 . S
C1742 H1750 0.930 . S
C1743 C1742 1.394 . S
C1743 C1744 1.383 . S
C1743 H1751 0.929 . S
C1744 C1743 1.383 . S
C1744 C1745 1.377 . S
C1745 H1729 0.930 . S
C1745 C1744 1.377 . S
C1745 C1746 1.379 . S
C1746 H1730 0.931 . S
C1746 C1740 1.383 . S
C1746 C1745 1.379 . S
H1747 C1741 0.959 . S
H1748 C1741 0.961 . S
H1749 C1741 0.960 . S
H1750 C1742 0.930 . S
H1751 C1743 0.929 . S
H1752 C1760 0.929 . S
H1753 C1762 0.930 1_455 S
H1754 C1764 0.930 . S
H1755 C1767 0.929 . S
H1756 C1770 0.930 . S
H1757 C1772 0.960 . S
H1758 C1772 0.960 . S
H1759 C1772 0.960 . S
C1760 H1752 0.929 . S
C1760 C1761 1.377 . S
C1760 C1762 1.384 . S
C1761 C1760 1.377 . S
C1761 C1767 1.390 . S
C1762 H1753 0.930 1_655 S
C1762 C1760 1.384 . S
C1762 C1763 1.372 1_655 S
C1763 C1762 1.372 1_455 S
C1763 C1764 1.400 1_455 S
C1763 C1768 1.490 . S
C1764 H1754 0.930 . S
C1764 C1763 1.400 1_655 S
C1764 C1767 1.386 . S
H1765 C1781 0.930 . S
H1766 C1782 0.931 . S
C1767 H1755 0.929 . S
C1767 C1761 1.390 . S
C1767 C1764 1.386 . S
C1768 C1763 1.490 . S
C1768 C1770 1.395 . S
C1768 C1771 1.403 . S
H1769 C1775 0.930 . S
C1770 H1756 0.930 . S
C1770 C1768 1.395 . S
C1770 C1773 1.403 . S
C1771 C1768 1.403 . S
C1771 C1772 1.524 . S
C1771 C1775 1.400 . S
C1772 H1757 0.960 . S
C1772 H1758 0.960 . S
C1772 H1759 0.960 . S
C1772 C1771 1.524 . S
C1773 C1770 1.403 . S
C1773 C1774 1.392 . S
C1773 C1777 1.495 . S
C1774 C1773 1.392 . S
C1774 C1775 1.385 . S
C1774 C1776 1.478 . S
C1775 H1769 0.930 . S
C1775 C1771 1.400 . S
C1775 C1774 1.385 . S
C1776 C1774 1.478 . S
C1776 C1778 1.381 . S
C1776 C1782 1.383 . S
C1777 C1773 1.495 . S
C1777 H1783 0.959 . S
C1777 H1784 0.961 . S
C1777 H1785 0.960 . S
C1778 C1776 1.381 . S
C1778 C1779 1.394 . S
C1778 H1786 0.930 . S
C1779 C1778 1.394 . S
C1779 C1780 1.383 . S
C1779 H1787 0.929 . S
C1780 C1779 1.383 . S
C1780 C1781 1.377 . S
C1781 H1765 0.930 . S
C1781 C1780 1.377 . S
C1781 C1782 1.379 . S
C1782 H1766 0.931 . S
C1782 C1776 1.383 . S
C1782 C1781 1.379 . S
H1783 C1777 0.959 . S
H1784 C1777 0.961 . S
H1785 C1777 0.960 . S
H1786 C1778 0.930 . S
H1787 C1779 0.929 . S
H1788 C1796 0.929 . S
H1789 C1798 0.930 . S
H1790 C1800 0.930 . S
H1791 C1803 0.929 . S
H1792 C1806 0.930 . S
H1793 C1808 0.960 . S
H1794 C1808 0.960 . S
H1795 C1808 0.960 . S
C1796 H1788 0.929 . S
C1796 C1797 1.377 . S
C1796 C1798 1.384 . S
C1797 C1796 1.377 . S
C1797 C1803 1.390 . S
C1798 H1789 0.930 . S
C1798 C1796 1.384 . S
C1798 C1799 1.372 . S
C1799 C1798 1.372 . S
C1799 C1800 1.400 . S
C1799 C1804 1.490 . S
C1800 H1790 0.930 . S
C1800 C1799 1.400 . S
C1800 C1803 1.386 . S
H1801 C1817 0.930 . S
H1802 C1818 0.931 . S
C1803 H1791 0.929 . S
C1803 C1797 1.390 . S
C1803 C1800 1.386 . S
C1804 C1799 1.490 . S
C1804 C1806 1.395 . S
C1804 C1807 1.403 . S
H1805 C1811 0.930 . S
C1806 H1792 0.930 . S
C1806 C1804 1.395 . S
C1806 C1809 1.403 . S
C1807 C1804 1.403 . S
C1807 C1808 1.524 . S
C1807 C1811 1.400 . S
C1808 H1793 0.960 . S
C1808 H1794 0.960 . S
C1808 H1795 0.960 . S
C1808 C1807 1.524 . S
C1809 C1806 1.403 . S
C1809 C1810 1.392 . S
C1809 C1813 1.495 . S
C1810 C1809 1.392 . S
C1810 C1811 1.385 . S
C1810 C1812 1.478 . S
C1811 H1805 0.930 . S
C1811 C1807 1.400 . S
C1811 C1810 1.385 . S
C1812 C1810 1.478 . S
C1812 C1814 1.381 . S
C1812 C1818 1.383 . S
C1813 C1809 1.495 . S
C1813 H1819 0.959 . S
C1813 H1820 0.961 . S
C1813 H1821 0.960 . S
C1814 C1812 1.381 . S
C1814 C1815 1.394 . S
C1814 H1822 0.930 . S
C1815 C1814 1.394 . S
C1815 C1816 1.383 . S
C1815 H1823 0.929 . S
C1816 C1815 1.383 . S
C1816 C1817 1.377 . S
C1817 H1801 0.930 . S
C1817 C1816 1.377 . S
C1817 C1818 1.379 . S
C1818 H1802 0.931 . S
C1818 C1812 1.383 . S
C1818 C1817 1.379 . S
H1819 C1813 0.959 . S
H1820 C1813 0.961 . S
H1821 C1813 0.960 . S
H1822 C1814 0.930 . S
H1823 C1815 0.929 . S
H1824 C1832 0.929 . S
H1825 C1834 0.930 . S
H1826 C1836 0.930 . S
H1827 C1839 0.929 . S
H1828 C1842 0.930 . S
H1829 C1844 0.960 . S
H1830 C1844 0.960 . S
H1831 C1844 0.960 . S
C1832 H1824 0.929 . S
C1832 C1833 1.377 . S
C1832 C1834 1.384 . S
C1833 C1832 1.377 . S
C1833 C1839 1.390 . S
C1834 H1825 0.930 . S
C1834 C1832 1.384 . S
C1834 C1835 1.372 . S
C1835 C1834 1.372 . S
C1835 C1836 1.400 . S
C1835 C1840 1.490 . S
C1836 H1826 0.930 . S
C1836 C1835 1.400 . S
C1836 C1839 1.386 . S
H1837 C1853 0.930 . S
H1838 C1854 0.931 . S
C1839 H1827 0.929 . S
C1839 C1833 1.390 . S
C1839 C1836 1.386 . S
C1840 C1835 1.490 . S
C1840 C1842 1.395 . S
C1840 C1843 1.403 . S
H1841 C1847 0.930 . S
C1842 H1828 0.930 . S
C1842 C1840 1.395 . S
C1842 C1845 1.403 . S
C1843 C1840 1.403 . S
C1843 C1844 1.524 . S
C1843 C1847 1.400 . S
C1844 H1829 0.960 . S
C1844 H1830 0.960 . S
C1844 H1831 0.960 . S
C1844 C1843 1.524 . S
C1845 C1842 1.403 . S
C1845 C1846 1.392 . S
C1845 C1849 1.495 . S
C1846 C1845 1.392 . S
C1846 C1847 1.385 . S
C1846 C1848 1.478 . S
C1847 H1841 0.930 . S
C1847 C1843 1.400 . S
C1847 C1846 1.385 . S
C1848 C1846 1.478 . S
C1848 C1850 1.381 . S
C1848 C1854 1.383 . S
C1849 C1845 1.495 . S
C1849 H1855 0.959 . S
C1849 H1856 0.961 . S
C1849 H1857 0.960 . S
C1850 C1848 1.381 . S
C1850 C1851 1.394 . S
C1850 H1858 0.930 . S
C1851 C1850 1.394 . S
C1851 C1852 1.383 . S
C1851 H1859 0.929 . S
C1852 C1851 1.383 . S
C1852 C1853 1.377 . S
C1853 H1837 0.930 . S
C1853 C1852 1.377 . S
C1853 C1854 1.379 . S
C1854 H1838 0.931 . S
C1854 C1848 1.383 . S
C1854 C1853 1.379 . S
H1855 C1849 0.959 . S
H1856 C1849 0.961 . S
H1857 C1849 0.960 . S
H1858 C1850 0.930 . S
H1859 C1851 0.929 . S
H1860 C1868 0.929 . S
H1861 C1870 0.930 1_545 S
H1862 C1872 0.930 . S
H1863 C1875 0.929 . S
H1864 C1878 0.930 . S
H1865 C1880 0.960 . S
H1866 C1880 0.960 . S
H1867 C1880 0.960 . S
C1868 H1860 0.929 . S
C1868 C1869 1.377 . S
C1868 C1870 1.384 . S
C1869 C1868 1.377 . S
C1869 C1875 1.390 . S
C1870 H1861 0.930 1_565 S
C1870 C1868 1.384 . S
C1870 C1871 1.369 1_565 S
C1871 C1870 1.369 1_545 S
C1871 C1872 1.395 1_545 S
C1871 C1876 1.498 . S
C1872 H1862 0.930 . S
C1872 C1871 1.395 1_565 S
C1872 C1875 1.386 . S
H1873 C1889 0.930 . S
H1874 C1890 0.931 . S
C1875 H1863 0.929 . S
C1875 C1869 1.390 . S
C1875 C1872 1.386 . S
C1876 C1871 1.498 . S
C1876 C1878 1.395 . S
C1876 C1879 1.403 . S
H1877 C1883 0.930 . S
C1878 H1864 0.930 . S
C1878 C1876 1.395 . S
C1878 C1881 1.403 . S
C1879 C1876 1.403 . S
C1879 C1880 1.524 . S
C1879 C1883 1.400 . S
C1880 H1865 0.960 . S
C1880 H1866 0.960 . S
C1880 H1867 0.960 . S
C1880 C1879 1.524 . S
C1881 C1878 1.403 . S
C1881 C1882 1.392 . S
C1881 C1885 1.495 . S
C1882 C1881 1.392 . S
C1882 C1883 1.385 . S
C1882 C1884 1.478 . S
C1883 H1877 0.930 . S
C1883 C1879 1.400 . S
C1883 C1882 1.385 . S
C1884 C1882 1.478 . S
C1884 C1886 1.381 . S
C1884 C1890 1.383 . S
C1885 C1881 1.495 . S
C1885 H1891 0.959 . S
C1885 H1892 0.961 . S
C1885 H1893 0.960 . S
C1886 C1884 1.381 . S
C1886 C1887 1.394 . S
C1886 H1894 0.930 . S
C1887 C1886 1.394 . S
C1887 C1888 1.383 . S
C1887 H1895 0.929 . S
C1888 C1887 1.383 . S
C1888 C1889 1.377 . S
C1889 H1873 0.930 . S
C1889 C1888 1.377 . S
C1889 C1890 1.379 . S
C1890 H1874 0.931 . S
C1890 C1884 1.383 . S
C1890 C1889 1.379 . S
H1891 C1885 0.959 . S
H1892 C1885 0.961 . S
H1893 C1885 0.960 . S
H1894 C1886 0.930 . S
H1895 C1887 0.929 . S
H1896 C1904 0.929 . S
H1897 C1906 0.930 . S
H1898 C1908 0.930 . S
H1899 C1911 0.929 . S
H1900 C1914 0.930 . S
H1901 C1916 0.960 . S
H1902 C1916 0.960 . S
H1903 C1916 0.960 . S
C1904 H1896 0.929 . S
C1904 C1905 1.377 . S
C1904 C1906 1.384 . S
C1905 C1904 1.377 . S
C1905 C1911 1.390 . S
C1906 H1897 0.930 . S
C1906 C1904 1.384 . S
C1906 C1907 1.372 . S
C1907 C1906 1.372 . S
C1907 C1908 1.400 . S
C1907 C1912 1.490 . S
C1908 H1898 0.930 . S
C1908 C1907 1.400 . S
C1908 C1911 1.386 . S
H1909 C1925 0.930 . S
H1910 C1926 0.931 . S
C1911 H1899 0.929 . S
C1911 C1905 1.390 . S
C1911 C1908 1.386 . S
C1912 C1907 1.490 . S
C1912 C1914 1.395 . S
C1912 C1915 1.403 . S
H1913 C1919 0.930 . S
C1914 H1900 0.930 . S
C1914 C1912 1.395 . S
C1914 C1917 1.403 . S
C1915 C1912 1.403 . S
C1915 C1916 1.524 . S
C1915 C1919 1.400 . S
C1916 H1901 0.960 . S
C1916 H1902 0.960 . S
C1916 H1903 0.960 . S
C1916 C1915 1.524 . S
C1917 C1914 1.403 . S
C1917 C1918 1.392 . S
C1917 C1921 1.495 . S
C1918 C1917 1.392 . S
C1918 C1919 1.385 . S
C1918 C1920 1.478 . S
C1919 H1913 0.930 . S
C1919 C1915 1.400 . S
C1919 C1918 1.385 . S
C1920 C1918 1.478 . S
C1920 C1922 1.381 . S
C1920 C1926 1.383 . S
C1921 C1917 1.495 . S
C1921 H1927 0.959 . S
C1921 H1928 0.961 . S
C1921 H1929 0.960 . S
C1922 C1920 1.381 . S
C1922 C1923 1.394 . S
C1922 H1930 0.930 . S
C1923 C1922 1.394 . S
C1923 C1924 1.383 . S
C1923 H1931 0.929 . S
C1924 C1923 1.383 . S
C1924 C1925 1.377 . S
C1925 H1909 0.930 . S
C1925 C1924 1.377 . S
C1925 C1926 1.379 . S
C1926 H1910 0.931 . S
C1926 C1920 1.383 . S
C1926 C1925 1.379 . S
H1927 C1921 0.959 . S
H1928 C1921 0.961 . S
H1929 C1921 0.960 . S
H1930 C1922 0.930 . S
H1931 C1923 0.929 . S
H1932 C1940 0.929 . S
H1933 C1942 0.930 1_565 S
H1934 C1944 0.930 . S
H1935 C1947 0.929 . S
H1936 C1950 0.930 . S
H1937 C1952 0.963 . S
H1938 C1952 0.958 1_545 S
H1939 C1952 0.954 1_545 S
C1940 H1932 0.929 . S
C1940 C1941 1.377 1_556 S
C1940 C1942 1.384 . S
C1941 C1940 1.377 1_554 S
C1941 C1947 1.390 . S
C1942 H1933 0.930 1_545 S
C1942 C1940 1.384 . S
C1942 C1943 1.372 1_556 S
C1943 C1942 1.372 1_554 S
C1943 C1944 1.400 . S
C1943 C1948 1.490 1_545 S
C1944 H1934 0.930 . S
C1944 C1943 1.400 . S
C1944 C1947 1.386 . S
H1945 C1961 0.930 . S
H1946 C1962 0.931 . S
C1947 H1935 0.929 . S
C1947 C1941 1.390 . S
C1947 C1944 1.386 . S
C1948 C1943 1.490 1_565 S
C1948 C1950 1.395 . S
C1948 C1951 1.403 1_554 S
H1949 C1955 0.930 . S
C1950 H1936 0.930 . S
C1950 C1948 1.395 . S
C1950 C1953 1.403 . S
C1951 C1948 1.403 1_556 S
C1951 C1952 1.529 . S
C1951 C1955 1.400 . S
C1952 H1937 0.963 . S
C1952 H1938 0.958 1_565 S
C1952 H1939 0.954 1_565 S
C1952 C1951 1.529 . S
C1953 C1950 1.403 . S
C1953 C1954 1.392 . S
C1953 C1957 1.495 . S
C1954 C1953 1.392 . S
C1954 C1955 1.385 1_554 S
C1954 C1956 1.478 . S
C1955 H1949 0.930 . S
C1955 C1951 1.400 . S
C1955 C1954 1.385 1_556 S
C1956 C1954 1.478 . S
C1956 C1958 1.381 1_554 S
C1956 C1962 1.383 . S
C1957 C1953 1.495 . S
C1957 H1963 0.959 . S
C1957 H1964 0.961 . S
C1957 H1965 0.960 . S
C1958 C1956 1.381 1_556 S
C1958 C1959 1.394 . S
C1958 H1966 0.930 . S
C1959 C1958 1.394 . S
C1959 C1960 1.383 1_556 S
C1959 H1967 0.929 . S
C1960 C1959 1.383 1_554 S
C1960 C1961 1.377 . S
C1961 H1945 0.930 . S
C1961 C1960 1.377 . S
C1961 C1962 1.379 . S
C1962 H1946 0.931 . S
C1962 C1956 1.383 . S
C1962 C1961 1.379 . S
H1963 C1957 0.959 . S
H1964 C1957 0.961 . S
H1965 C1957 0.960 . S
H1966 C1958 0.930 . S
H1967 C1959 0.929 . S
H1968 C1976 0.929 . S
H1969 C1978 0.930 . S
H1970 C1980 0.930 . S
H1971 C1983 0.929 . S
H1972 C1986 0.930 . S
H1973 C1988 0.960 . S
H1974 C1988 0.960 . S
H1975 C1988 0.960 . S
C1976 H1968 0.929 . S
C1976 C1977 1.377 . S
C1976 C1978 1.384 . S
C1977 C1976 1.377 . S
C1977 C1983 1.390 . S
C1978 H1969 0.930 . S
C1978 C1976 1.384 . S
C1978 C1979 1.372 . S
C1979 C1978 1.372 . S
C1979 C1980 1.400 . S
C1979 C1984 1.490 . S
C1980 H1970 0.930 . S
C1980 C1979 1.400 . S
C1980 C1983 1.386 . S
H1981 C1997 0.930 . S
H1982 C1998 0.931 . S
C1983 H1971 0.929 . S
C1983 C1977 1.390 . S
C1983 C1980 1.386 . S
C1984 C1979 1.490 . S
C1984 C1986 1.395 . S
C1984 C1987 1.403 . S
H1985 C1991 0.930 . S
C1986 H1972 0.930 . S
C1986 C1984 1.395 . S
C1986 C1989 1.403 . S
C1987 C1984 1.403 . S
C1987 C1988 1.524 . S
C1987 C1991 1.400 . S
C1988 H1973 0.960 . S
C1988 H1974 0.960 . S
C1988 H1975 0.960 . S
C1988 C1987 1.524 . S
C1989 C1986 1.403 . S
C1989 C1990 1.392 . S
C1989 C1993 1.495 . S
C1990 C1989 1.392 . S
C1990 C1991 1.385 . S
C1990 C1992 1.478 . S
C1991 H1985 0.930 . S
C1991 C1987 1.400 . S
C1991 C1990 1.385 . S
C1992 C1990 1.478 . S
C1992 C1994 1.381 . S
C1992 C1998 1.383 . S
C1993 C1989 1.495 . S
C1993 H1999 0.959 . S
C1993 H2000 0.961 . S
C1993 H2001 0.960 . S
C1994 C1992 1.381 . S
C1994 C1995 1.394 . S
C1994 H2002 0.930 . S
C1995 C1994 1.394 . S
C1995 C1996 1.383 . S
C1995 H2003 0.929 . S
C1996 C1995 1.383 . S
C1996 C1997 1.377 . S
C1997 H1981 0.930 . S
C1997 C1996 1.377 . S
C1997 C1998 1.379 . S
C1998 H1982 0.931 . S
C1998 C1992 1.383 . S
C1998 C1997 1.379 . S
H1999 C1993 0.959 . S
H2000 C1993 0.961 . S
H2001 C1993 0.960 . S
H2002 C1994 0.930 . S
H2003 C1995 0.929 . S
H2004 C2012 0.929 . S
H2005 C2014 0.930 . S
H2006 C2016 0.930 . S
H2007 C2019 0.929 . S
H2008 C2022 0.930 . S
H2009 C2024 0.960 . S
H2010 C2024 0.960 . S
H2011 C2024 0.960 1_554 S
C2012 H2004 0.929 . S
C2012 C2013 1.377 1_556 S
C2012 C2014 1.384 . S
C2013 C2012 1.377 1_554 S
C2013 C2019 1.390 . S
C2014 H2005 0.930 . S
C2014 C2012 1.384 . S
C2014 C2015 1.372 1_556 S
C2015 C2014 1.372 1_554 S
C2015 C2016 1.400 . S
C2015 C2020 1.490 . S
C2016 H2006 0.930 . S
C2016 C2015 1.400 . S
C2016 C2019 1.386 . S
H2017 C2033 0.930 . S
H2018 C2034 0.931 . S
C2019 H2007 0.929 . S
C2019 C2013 1.390 . S
C2019 C2016 1.386 . S
C2020 C2015 1.490 . S
C2020 C2022 1.395 . S
C2020 C2023 1.403 . S
H2021 C2027 0.930 1_556 S
C2022 H2008 0.930 . S
C2022 C2020 1.395 . S
C2022 C2025 1.403 . S
C2023 C2020 1.403 . S
C2023 C2024 1.524 1_554 S
C2023 C2027 1.400 . S
C2024 H2009 0.960 . S
C2024 H2010 0.960 . S
C2024 H2011 0.960 1_556 S
C2024 C2023 1.524 1_556 S
C2025 C2022 1.403 . S
C2025 C2026 1.392 . S
C2025 C2029 1.495 . S
C2026 C2025 1.392 . S
C2026 C2027 1.385 . S
C2026 C2028 1.478 . S
C2027 H2021 0.930 1_554 S
C2027 C2023 1.400 . S
C2027 C2026 1.385 . S
C2028 C2026 1.478 . S
C2028 C2030 1.381 1_554 S
C2028 C2034 1.383 . S
C2029 C2025 1.495 . S
C2029 H2035 0.959 . S
C2029 H2036 0.961 . S
C2029 H2037 0.960 . S
C2030 C2028 1.381 1_556 S
C2030 C2031 1.394 . S
C2030 H2038 0.930 . S
C2031 C2030 1.394 . S
C2031 C2032 1.383 1_556 S
C2031 H2039 0.929 . S
C2032 C2031 1.383 1_554 S
C2032 C2033 1.377 . S
C2033 H2017 0.930 . S
C2033 C2032 1.377 . S
C2033 C2034 1.379 . S
C2034 H2018 0.931 . S
C2034 C2028 1.383 . S
C2034 C2033 1.379 . S
H2035 C2029 0.959 . S
H2036 C2029 0.961 . S
H2037 C2029 0.960 . S
H2038 C2030 0.930 . S
H2039 C2031 0.929 . S
H2040 C2048 0.929 . S
H2041 C2050 0.930 . S
H2042 C2052 0.930 . S
H2043 C2055 0.929 . S
H2044 C2058 0.930 . S
H2045 C2060 0.960 . S
H2046 C2060 0.960 . S
H2047 C2060 0.960 . S
C2048 H2040 0.929 . S
C2048 C2049 1.377 . S
C2048 C2050 1.384 . S
C2049 C2048 1.377 . S
C2049 C2055 1.390 . S
C2050 H2041 0.930 . S
C2050 C2048 1.384 . S
C2050 C2051 1.372 . S
C2051 C2050 1.372 . S
C2051 C2052 1.400 . S
C2051 C2056 1.490 . S
C2052 H2042 0.930 . S
C2052 C2051 1.400 . S
C2052 C2055 1.386 . S
H2053 C2069 0.930 . S
H2054 C2070 0.931 . S
C2055 H2043 0.929 . S
C2055 C2049 1.390 . S
C2055 C2052 1.386 . S
C2056 C2051 1.490 . S
C2056 C2058 1.395 . S
C2056 C2059 1.403 . S
H2057 C2063 0.930 . S
C2058 H2044 0.930 . S
C2058 C2056 1.395 . S
C2058 C2061 1.403 . S
C2059 C2056 1.403 . S
C2059 C2060 1.524 . S
C2059 C2063 1.400 . S
C2060 H2045 0.960 . S
C2060 H2046 0.960 . S
C2060 H2047 0.960 . S
C2060 C2059 1.524 . S
C2061 C2058 1.403 . S
C2061 C2062 1.392 . S
C2061 C2065 1.495 . S
C2062 C2061 1.392 . S
C2062 C2063 1.385 . S
C2062 C2064 1.478 . S
C2063 H2057 0.930 . S
C2063 C2059 1.400 . S
C2063 C2062 1.385 . S
C2064 C2062 1.478 . S
C2064 C2066 1.381 . S
C2064 C2070 1.383 . S
C2065 C2061 1.495 . S
C2065 H2071 0.959 . S
C2065 H2072 0.961 . S
C2065 H2073 0.960 . S
C2066 C2064 1.381 . S
C2066 C2067 1.394 . S
C2066 H2074 0.930 . S
C2067 C2066 1.394 . S
C2067 C2068 1.383 . S
C2067 H2075 0.929 . S
C2068 C2067 1.383 . S
C2068 C2069 1.377 . S
C2069 H2053 0.930 . S
C2069 C2068 1.377 . S
C2069 C2070 1.379 . S
C2070 H2054 0.931 . S
C2070 C2064 1.383 . S
C2070 C2069 1.379 . S
H2071 C2065 0.959 . S
H2072 C2065 0.961 . S
H2073 C2065 0.960 . S
H2074 C2066 0.930 . S
H2075 C2067 0.929 . S
H2076 C2084 0.929 . S
H2077 C2086 0.930 . S
H2078 C2088 0.930 . S
H2079 C2091 0.929 . S
H2080 C2094 0.930 . S
H2081 C2096 0.960 . S
H2082 C2096 0.960 . S
H2083 C2096 0.960 . S
C2084 H2076 0.929 . S
C2084 C2085 1.377 . S
C2084 C2086 1.384 . S
C2085 C2084 1.377 . S
C2085 C2091 1.390 . S
C2086 H2077 0.930 . S
C2086 C2084 1.384 . S
C2086 C2087 1.372 . S
C2087 C2086 1.372 . S
C2087 C2088 1.400 . S
C2087 C2092 1.490 . S
C2088 H2078 0.930 . S
C2088 C2087 1.400 . S
C2088 C2091 1.386 . S
H2089 C2105 0.930 . S
H2090 C2106 0.931 . S
C2091 H2079 0.929 . S
C2091 C2085 1.390 . S
C2091 C2088 1.386 . S
C2092 C2087 1.490 . S
C2092 C2094 1.395 . S
C2092 C2095 1.403 . S
H2093 C2099 0.930 . S
C2094 H2080 0.930 . S
C2094 C2092 1.395 . S
C2094 C2097 1.403 . S
C2095 C2092 1.403 . S
C2095 C2096 1.524 . S
C2095 C2099 1.400 . S
C2096 H2081 0.960 . S
C2096 H2082 0.960 . S
C2096 H2083 0.960 . S
C2096 C2095 1.524 . S
C2097 C2094 1.403 . S
C2097 C2098 1.392 . S
C2097 C2101 1.495 . S
C2098 C2097 1.392 . S
C2098 C2099 1.385 . S
C2098 C2100 1.478 . S
C2099 H2093 0.930 . S
C2099 C2095 1.400 . S
C2099 C2098 1.385 . S
C2100 C2098 1.478 . S
C2100 C2102 1.381 . S
C2100 C2106 1.383 . S
C2101 C2097 1.495 . S
C2101 H2107 0.959 . S
C2101 H2108 0.961 . S
C2101 H2109 0.960 . S
C2102 C2100 1.381 . S
C2102 C2103 1.394 . S
C2102 H2110 0.930 . S
C2103 C2102 1.394 . S
C2103 C2104 1.383 . S
C2103 H2111 0.929 . S
C2104 C2103 1.383 . S
C2104 C2105 1.377 . S
C2105 H2089 0.930 . S
C2105 C2104 1.377 . S
C2105 C2106 1.379 . S
C2106 H2090 0.931 . S
C2106 C2100 1.383 . S
C2106 C2105 1.379 . S
H2107 C2101 0.959 . S
H2108 C2101 0.961 . S
H2109 C2101 0.960 . S
H2110 C2102 0.930 . S
H2111 C2103 0.929 . S
C412 C373 0.862 . S
C393 C11 0.943 . S
C429 C19 1.299 . S
C448 C326 1.258 . S
C465 C37 0.971 . S
C484 C337 0.841 . S
C520 C362 1.181 . S
C501 C42 1.229 . S
C537 C25 0.940 . S
C556 C380 0.952 . S
C592 C319 1.094 . S
C573 C28 1.193 . S
C628 C344 0.810 . S
C609 C51 0.987 . S
C664 C355 1.247 . S
C645 C5 1.258 . S
C681 C61 0.952 . S
C700 C356 0.944 . S
C736 C382 1.223 . S
C717 C81 1.251 . S
C772 C320 0.978 1_545 S
C753 C89 1.018 . S
C808 C346 1.148 . S
C789 C107 1.196 . S
C825 C56 0.917 . S
C844 C328 0.904 . S
C861 C79 1.216 . S
C880 C338 1.206 . S
C897 C84 0.974 . S
C916 C364 0.978 . S
C952 C374 1.278 . S
C933 C109 1.294 . S
C988 C211 0.916 . S
C969 C103 1.066 . S
C1024 C194 0.958 1_554 S
C1005 C117 1.003 . S
C1060 C220 1.156 . S
C1041 C137 1.224 . S
C1096 C238 0.838 . S
C1077 C140 0.920 . S
C1113 C67 1.184 . S
C1132 C212 1.098 . S
C1149 C70 0.978 . S
C1168 C182 0.903 . S
C1185 C135 1.282 . S
C1204 C236 1.207 . S
C1221 C163 1.237 . S
C1240 C193 1.240 . S
C1276 C247 0.934 . S
C1257 C39 0.930 . S
C1312 C272 1.262 . S
C1293 C47 1.302 . S
C1329 C9 0.963 . S
C1348 C283 0.874 . S
C1365 C14 1.229 . S
C1384 C308 1.186 . S
C1420 C254 0.844 . S
C1401 C53 0.953 . S
C1456 C265 1.166 . S
C1437 C0 1.190 . S
C1473 C23 0.978 . S
C1492 C290 0.845 . S
C1528 C301 1.242 . S
C1509 C33 1.258 . S
C1545 C159 0.949 . S
C1564 C302 0.958 . S
C1581 C123 1.250 . S
C1600 C256 1.237 . S
C1636 C266 0.903 . S
C1617 C131 1.021 . S
C1653 C149 1.193 . S
C1672 C292 1.203 . S
C1708 C274 0.851 . S
C1689 C154 0.914 . S
C1725 C121 1.227 . S
C1744 C284 1.157 . S
C1780 C310 0.950 . S
C1761 C126 0.974 . S
C1816 C248 1.237 . S
C1797 C151 1.297 . S
C1852 C175 0.945 . S
C1833 C145 1.064 . S
C1888 C230 0.966 . S
C1869 C75 0.999 . S
C1905 C95 1.226 . S
C1924 C184 1.183 . S
C1960 C202 0.914 1_554 S
C1941 C98 0.923 . S
C1996 C176 1.170 . S
C1977 C165 1.178 . S
C2013 C112 0.971 . S
C2032 C218 0.845 . S
C2049 C93 1.278 . S
C2068 C200 1.248 . S
C2085 C65 1.240 . S
C2104 C229 1.227 . S
