# Generated by pormake.
# Topology ftw, (4,12)-cn, num edge types: 1
# Building blocks:
#     Node 0, Type 0, BuildingBlock: KUFVIS_clean_linker_0, # of connection points: 4
#     Node 1, Type 0, BuildingBlock: KUFVIS_clean_linker_0, # of connection points: 4
#     Node 2, Type 0, BuildingBlock: KUFVIS_clean_linker_0, # of connection points: 4
#     Node 3, Type 1, BuildingBlock: EZIPEK_clean_sbu_0, # of connection points: 12
#     Edge 4, Type (0, 1), BuildingBlock: MIFKUJ_clean_linker_0, # of connection points: 2
#     Edge 5, Type (0, 1), BuildingBlock: MIFKUJ_clean_linker_0, # of connection points: 2
#     Edge 6, Type (0, 1), BuildingBlock: MIFKUJ_clean_linker_0, # of connection points: 2
#     Edge 7, Type (0, 1), BuildingBlock: MIFKUJ_clean_linker_0, # of connection points: 2
#     Edge 8, Type (0, 1), BuildingBlock: MIFKUJ_clean_linker_0, # of connection points: 2
#     Edge 9, Type (0, 1), BuildingBlock: MIFKUJ_clean_linker_0, # of connection points: 2
#     Edge 10, Type (0, 1), BuildingBlock: MIFKUJ_clean_linker_0, # of connection points: 2
#     Edge 11, Type (0, 1), BuildingBlock: MIFKUJ_clean_linker_0, # of connection points: 2
#     Edge 12, Type (0, 1), BuildingBlock: MIFKUJ_clean_linker_0, # of connection points: 2
#     Edge 13, Type (0, 1), BuildingBlock: MIFKUJ_clean_linker_0, # of connection points: 2
#     Edge 14, Type (0, 1), BuildingBlock: MIFKUJ_clean_linker_0, # of connection points: 2
#     Edge 15, Type (0, 1), BuildingBlock: MIFKUJ_clean_linker_0, # of connection points: 2
# Relax obj value: 0.081
# Max RMSD: 0.235
# Mean RMSD: 0.179
data_MOF--net-ftw--node1-EZIPEK_clean_sbu_0--node2-KUFVIS_clean_linker_0--edge1-MIFKUJ_clean_linker_0
_symmetry_space_group_name_H-M    P1
_symmetry_Int_Tables_number       1
_symmetry_cell_setting            triclinic
loop_
_symmetry_equiv_pos_as_xyz
'x, y, z'
_cell_length_a     29.570858
_cell_length_b     31.712835
_cell_length_c     30.346471
_cell_angle_alpha  89.784363
_cell_angle_beta   89.993857
_cell_angle_gamma 90.066499
loop_
_atom_site_label
_atom_site_type_symbol
_atom_site_fract_x
_atom_site_fract_y
_atom_site_fract_z
_atom_type_partial_charge
H0 H 0.9815 0.38222 0.51362 0.0
H1 H -0.00742 0.49667 0.58579 0.0
H2 H 0.97299 0.49902 0.44389 0.0
H3 H -0.00464 0.56204 0.44385 0.0
H4 H -0.00668 0.67752 0.51513 0.0
H5 H 0.98426 0.56202 0.58677 0.0
C6 C 0.98085 0.41638 0.51398 0.0
C7 C 0.97671 0.43843 0.47412 0.0
C8 C 0.98486 0.43731 0.55432 0.0
C9 C -0.01196 0.48169 0.55434 0.0
C10 C 0.9848 0.50578 0.51476 0.0
C11 C 0.97817 0.48294 0.47482 0.0
C12 C -0.01216 0.55404 0.51515 0.0
C13 C -0.00767 0.57752 0.47527 0.0
C14 C -0.00548 0.6219 0.47512 0.0
C15 C -0.00678 0.64334 0.51528 0.0
C16 C -0.00872 0.62185 0.55559 0.0
C17 C -0.01275 0.57747 0.55527 0.0
H18 H 0.51303 0.0904 0.64256 0.0
H19 H 0.56043 1.02576 0.52833 0.0
H20 H 0.41726 0.04134 0.54982 0.0
H21 H 0.41227 0.98733 0.50553 0.0
H22 H 0.45187 0.97009 0.37115 0.0
H23 H 0.54069 0.0348 0.45933 0.0
C24 C 0.50569 0.07461 0.61176 0.0
C25 C 0.4608 0.06575 0.6003 0.0
C26 C 0.5415 0.06012 0.58588 0.0
C27 C 0.53231 0.03847 0.54683 0.0
C28 C 0.48748 0.03292 0.53215 0.0
C29 C 0.45192 0.04659 0.55951 0.0
C30 C 0.47813 1.01322 0.48842 0.0
C31 C 0.43727 0.99178 0.47991 0.0
C32 C 0.42768 0.97647 0.43767 0.0
C33 C 0.45992 0.98077 0.40409 0.0
C34 C 0.50089 1.00157 0.4118 0.0
C35 C 0.5095 1.01785 0.45387 0.0
H36 H 0.49018 0.67786 0.03279 0.0
H37 H 0.55937 0.5623 0.059 0.0
H38 H 0.4229 0.5608 1.00731 0.0
H39 H 0.41972 0.50019 0.04415 0.0
H40 H 0.49339 0.38492 0.03159 0.0
H41 H 0.5646 0.50225 0.02419 0.0
C42 C 0.49031 0.64368 0.03292 0.0
C43 C 0.45153 0.62169 0.01983 0.0
C44 C 0.52946 0.62231 0.04589 0.0
C45 C 0.52944 0.57815 0.04692 0.0
C46 C 0.4912 0.55497 0.03319 0.0
C47 C 0.45237 0.57741 0.01933 0.0
C48 C 0.49195 0.50769 0.0332 0.0
C49 C 0.4516 0.48436 0.0386 0.0
C50 C 0.45211 0.44017 0.03817 0.0
C51 C 0.49329 0.41906 0.03329 0.0
C52 C 0.53415 0.44116 0.02998 0.0
C53 C 0.53311 0.48542 0.02854 0.0
C54 C -0.0001 0.13327 0.90843 0.0
C55 C 0.98331 0.13378 0.12133 0.0
C56 C -0.00703 0.9273 0.90837 0.0
C57 C 0.98409 0.92817 0.12238 0.0
C58 C 0.09698 0.92612 0.01965 0.0
C59 C 0.10132 0.13047 0.02126 0.0
C60 C 0.87848 0.93002 1.0106 0.0
C61 C 0.88405 0.13454 1.0054 0.0
C62 C 0.8724 0.02998 0.11228 0.0
C63 C 0.08968 1.02207 0.12949 0.0
C64 C 0.89039 0.0336 0.89993 0.0
C65 C 0.10755 1.02613 0.91698 0.0
Eu66 Eu -0.00792 0.10964 0.01493 0.0
O67 O 0.02857 0.06748 0.05777 0.0
O68 O 0.9545 0.06801 0.97289 0.0
Eu69 Eu 0.07531 1.02871 0.02141 0.0
Eu70 Eu 0.90499 0.03168 1.00817 0.0
O71 O 0.03428 0.06688 0.9786 0.0
O72 O 0.94746 0.06859 0.05098 0.0
Eu73 Eu -0.00303 0.03016 0.93152 0.0
Eu74 Eu 0.98335 0.03093 0.0985 0.0
O75 O 0.03223 0.99205 0.97909 0.0
O76 O 0.02536 0.9928 0.05668 0.0
O77 O 0.94633 0.99384 0.05122 0.0
O78 O 0.95224 0.99321 0.97242 0.0
Eu79 Eu -0.01191 0.95051 0.01516 0.0
O80 O -0.00412 0.14535 0.95034 0.0
O81 O -0.01217 0.14599 0.07933 0.0
O82 O -0.01093 0.91491 0.95034 0.0
O83 O 0.98496 0.91529 0.0805 0.0
O84 O 0.11168 0.96592 0.02086 0.0
O85 O 0.11447 0.09032 0.02518 0.0
O86 O 0.86551 0.97029 1.00809 0.0
O87 O 0.86875 0.09486 1.0055 0.0
O88 O 0.91381 0.03059 0.12972 0.0
O89 O 0.04649 1.02826 0.14015 0.0
O90 O 0.93422 0.03389 0.8899 0.0
O91 O 0.06583 1.02678 0.90046 0.0
O92 O 0.92107 0.91649 1.01309 0.0
O93 O 0.05377 0.91405 0.01806 0.0
O94 O 0.92721 0.14622 1.00844 0.0
O95 O 0.05885 0.14371 0.01673 0.0
O96 O 0.98091 0.09366 0.13501 0.0
O97 O 0.9832 0.96834 0.13568 0.0
O98 O 0.00212 0.0932 0.8947 0.0
O99 O -0.00308 0.96737 0.89474 0.0
O100 O 0.11825 1.02751 0.95968 0.0
O101 O 0.10677 1.02068 0.08883 0.0
O102 O 0.87278 0.03178 0.94041 0.0
O103 O 0.86225 0.03045 0.06951 0.0
H104 H 0.9256 0.3674 0.46072 0.0
H105 H 0.92594 0.32063 0.39712 0.0
H106 H 0.01367 0.40663 0.32766 0.0
H107 H 0.01526 0.45318 0.39233 0.0
H108 H 0.93149 0.36406 0.27753 0.0
H109 H 0.06654 0.33528 0.36434 0.0
H110 H 0.10618 0.32057 0.43421 0.0
H111 H 0.02516 0.20958 0.45356 0.0
H112 H 0.9845 0.22405 0.38413 0.0
H113 H -0.00075 0.21879 0.11126 0.0
H114 H -0.0044 0.27382 0.16717 0.0
H115 H 0.95688 0.18123 0.26461 0.0
H116 H 0.96147 0.12581 0.20912 0.0
H117 H 0.01577 0.23038 0.29942 0.0
H118 H 0.88011 0.25442 0.21902 0.0
H119 H 0.83145 0.26697 0.15427 0.0
H120 H 0.90229 0.38239 0.1269 0.0
H121 H 0.95171 0.37031 0.19125 0.0
C122 C 0.94508 0.3766 0.43203 0.0
C123 C 0.97119 0.41386 0.43223 0.0
C124 C 0.94489 0.34986 0.39549 0.0
C125 C 0.97008 0.3599 0.35776 0.0
C126 C -0.00608 0.39828 0.35647 0.0
C127 C -0.00534 0.42495 0.39344 0.0
C128 C 0.97395 0.32848 0.32151 0.0
C129 C 0.95061 0.33517 0.28181 0.0
C130 C -0.00267 0.29003 0.32785 0.0
C131 C 0.02219 0.28099 0.36927 0.0
C132 C 0.05691 0.30795 0.38369 0.0
C133 C 0.07961 0.29962 0.42318 0.0
C134 C 0.06812 0.26422 0.44837 0.0
C135 C 0.03399 0.23701 0.43404 0.0
C136 C 0.01113 0.24525 0.39461 0.0
C137 C -0.01021 0.21 0.14453 0.0
C138 C 0.98066 0.16759 0.15544 0.0
C139 C -0.01253 0.24171 0.17655 0.0
C140 C 0.97537 0.23205 0.22026 0.0
C141 C 0.96632 0.18973 0.23124 0.0
C142 C 0.96894 0.15794 0.19933 0.0
C143 C 0.97341 0.26569 0.25479 0.0
C144 C -0.00304 0.25936 0.29451 0.0
C145 C 0.94929 0.304 0.24872 0.0
C146 C 0.91997 0.31121 0.2097 0.0
C147 C 0.8856 0.28229 0.19896 0.0
C148 C 0.8578 0.28936 0.16239 0.0
C149 C 0.86385 0.32538 0.13642 0.0
C150 C 0.89767 0.35445 0.14701 0.0
C151 C 0.92556 0.34754 0.18356 0.0
H152 H 0.84225 0.33082 0.10816 0.0
H153 H 0.08573 0.25782 0.47893 0.0
H154 H 0.52258 0.94591 0.34615 0.0
H155 H 0.58172 0.95326 0.29074 0.0
H156 H 0.6162 0.07582 0.34229 0.0
H157 H 0.55452 0.07048 0.39503 0.0
H158 H 0.62678 0.07802 0.25888 0.0
H159 H 0.67391 0.98286 0.37294 0.0
H160 H 0.66894 0.92094 0.42212 0.0
H161 H 0.6697 0.83867 0.31005 0.0
H162 H 0.67406 0.90016 0.26016 0.0
H163 H 0.8638 0.06747 0.19262 0.0
H164 H 0.79755 0.06442 0.24161 0.0
H165 H 0.72969 0.98254 0.14965 0.0
H166 H 0.79481 0.98655 0.10011 0.0
H167 H 0.73765 0.96073 0.25266 0.0
H168 H 0.68997 0.06205 0.13959 0.0
H169 H 0.70358 0.12614 0.09523 0.0
H170 H 0.71201 0.19997 0.21325 0.0
H171 H 0.69946 0.13602 0.2584 0.0
C172 C 0.54199 0.97487 0.3451 0.0
C173 C 0.53445 1.00717 0.37586 0.0
C174 C 0.5762 0.97879 0.31372 0.0
C175 C 0.60432 1.01451 0.31332 0.0
C176 C 0.59533 0.04772 0.34235 0.0
C177 C 0.56047 0.04427 0.37302 0.0
C178 C 0.64444 1.01646 0.28426 0.0
C179 C 0.6511 0.05246 0.25785 0.0
C180 C 0.67638 0.98319 0.28289 0.0
C181 C 0.67383 0.94613 0.31282 0.0
C182 C 0.67269 0.95158 0.35878 0.0
C183 C 0.67003 0.91656 0.38678 0.0
C184 C 0.66888 0.8759 0.36922 0.0
C185 C 0.67051 0.87018 0.32361 0.0
C186 C 0.6731 0.9051 0.29545 0.0
C187 C 0.83471 0.04882 0.18306 0.0
C188 C 0.83401 1.02741 0.14267 0.0
C189 C 0.7971 0.0472 0.21084 0.0
C190 C 0.7591 1.02344 0.19878 0.0
C191 C 0.75886 1.00114 0.15911 0.0
C192 C 0.79586 1.00359 0.13093 0.0
C193 C 0.71926 1.0218 0.22749 0.0
C194 C 0.71298 0.98602 0.25383 0.0
C195 C 0.68832 0.05554 0.22947 0.0
C196 C 0.69438 0.09417 0.20237 0.0
C197 C 0.69517 0.09186 0.1561 0.0
C198 C 0.70262 0.12816 0.13082 0.0
C199 C 0.70885 0.16706 0.15142 0.0
C200 C 0.70732 0.16978 0.19736 0.0
C201 C 0.70003 0.13352 0.22281 0.0
H202 H 0.71482 0.19506 0.13176 0.0
H203 H 0.66683 0.84883 0.39095 0.0
H204 H 0.94809 0.61146 0.397 0.0
H205 H 0.94737 0.65945 0.33314 0.0
H206 H 0.04735 0.73781 0.39607 0.0
H207 H 0.04914 0.6898 0.45902 0.0
H208 H 0.97066 0.78224 0.36842 0.0
H209 H 0.07627 0.67979 0.31026 0.0
H210 H 0.09981 0.60845 0.28786 0.0
H211 H -0.00981 0.60308 0.19525 0.0
H212 H 0.9656 0.6742 0.21756 0.0
H213 H 0.02216 0.9326 0.20438 0.0
H214 H 0.02592 0.87701 0.26042 0.0
H215 H 0.9517 0.79349 0.17534 0.0
H216 H 0.94979 0.8481 0.11814 0.0
H217 H 0.01016 0.74949 0.21351 0.0
H218 H 0.90382 0.84937 0.26688 0.0
H219 H 0.87382 0.91848 0.28949 0.0
H220 H 0.97381 0.92613 0.39173 0.0
H221 H 0.00541 0.85775 0.36883 0.0
C222 C 0.97066 0.63838 0.39674 0.0
C223 C -0.00177 0.64702 0.43345 0.0
C224 C 0.97005 0.66591 0.36032 0.0
C225 C -0.00298 0.70249 0.36 0.0
C226 C 0.0259 0.71009 0.39575 0.0
C227 C 0.02679 0.68258 0.43179 0.0
C228 C -0.00625 0.7343 0.32387 0.0
C229 C 0.97979 0.77529 0.33459 0.0
C230 C 0.00388 0.72476 0.27947 0.0
C231 C 0.0188 0.68211 0.26595 0.0
C232 C 0.05694 0.66324 0.28541 0.0
C233 C 0.07052 0.62288 0.27267 0.0
C234 C 0.04642 0.60119 0.24025 0.0
C235 C 0.00877 0.61988 0.22041 0.0
C236 C -0.00498 0.66023 0.23307 0.0
C237 C 0.00628 0.90248 0.19773 0.0
C238 C 0.98513 0.89496 0.157 0.0
C239 C 0.00825 0.87076 0.22993 0.0
C240 C -0.01224 0.8313 0.22287 0.0
C241 C 0.96729 0.82365 0.18188 0.0
C242 C 0.96616 0.85499 0.14923 0.0
C243 C -0.01226 0.79806 0.25805 0.0
C244 C 0.00087 0.7567 0.24723 0.0
C245 C 0.97584 0.80703 0.30234 0.0
C246 C 0.9573 0.84856 0.31581 0.0
C247 C 0.91979 0.86601 0.29384 0.0
C248 C 0.90251 0.9051 0.30669 0.0
C249 C 0.92206 0.9268 0.34186 0.0
C250 C 0.95886 0.90941 0.36432 0.0
C251 C 0.97654 0.87053 0.35136 0.0
H252 H 0.90858 0.95702 0.35183 0.0
H253 H 0.057 0.56994 0.23043 0.0
H254 H 0.40297 0.90497 0.39385 0.0
H255 H 0.33286 0.89634 0.35194 0.0
H256 H 0.28001 1.00999 0.41018 0.0
H257 H 0.34932 1.01803 0.45287 0.0
H258 H 0.21166 0.95779 0.38461 0.0
H259 H 0.34912 1.01771 0.32248 0.0
H260 H 0.42986 1.01691 0.30194 0.0
H261 H 0.40752 0.90768 0.22156 0.0
H262 H 0.32666 0.90771 0.24191 0.0
H263 H 0.09543 0.06012 0.20965 0.0
H264 H 0.14528 0.04031 0.27081 0.0
H265 H 0.19905 0.93826 0.19289 0.0
H266 H 0.15188 0.96003 0.13091 0.0
H267 H 0.26357 0.97471 0.23003 0.0
H268 H 0.11735 0.92827 0.28291 0.0
H269 H 0.03704 0.93953 0.30166 0.0
H270 H 0.07486 0.03033 0.39936 0.0
H271 H 0.15524 1.0207 0.38051 0.0
C272 C 0.37546 0.92691 0.39917 0.0
C273 C 0.38165 0.96257 0.4258 0.0
C274 C 0.33552 0.92202 0.37524 0.0
C275 C 0.30199 0.95329 0.37701 0.0
C276 C 0.30565 0.98569 0.40814 0.0
C277 C 0.3453 0.99025 0.43254 0.0
C278 C 0.26888 0.95765 0.3408 0.0
C279 C 0.22271 0.96122 0.35069 0.0
C280 C 0.28356 0.96228 0.29664 0.0
C281 C 0.33208 0.96235 0.28421 0.0
C282 C 0.36153 0.99338 0.30065 0.0
C283 C 0.40726 0.99312 0.28898 0.0
C284 C 0.42387 0.96212 0.26068 0.0
C285 C 0.39467 0.93154 0.24367 0.0
C286 C 0.34888 0.93169 0.25521 0.0
C287 C 0.11828 0.03371 0.20574 0.0
C288 C 0.12045 1.01183 0.16574 0.0
C289 C 0.14622 1.02199 0.24079 0.0
C290 C 0.17518 0.98706 0.23688 0.0
C291 C 0.17698 0.96519 0.19676 0.0
C292 C 0.15025 0.97776 0.16134 0.0
C293 C 0.20574 0.97461 0.27338 0.0
C294 C 0.25181 0.96996 0.26357 0.0
C295 C 0.19077 0.96962 0.31751 0.0
C296 C 0.14243 0.9739 0.3301 0.0
C297 C 0.10859 0.9507 0.30834 0.0
C298 C 0.06303 0.95682 0.31894 0.0
C299 C 0.05092 0.98556 0.35163 0.0
C300 C 0.08431 1.00809 0.37402 0.0
C301 C 0.12987 1.00233 0.36339 0.0
H302 H 0.01564 0.99047 0.35955 0.0
H303 H 0.45933 0.96188 0.25183 0.0
H304 H 0.94468 0.611 0.63435 0.0
H305 H 0.94654 0.65674 0.69935 0.0
H306 H 0.04493 0.73662 0.6352 0.0
H307 H 0.0457 0.68975 0.57219 0.0
H308 H 0.06618 0.73443 0.71499 0.0
H309 H 0.92382 0.75794 0.64124 0.0
H310 H 0.84973 0.73793 0.61029 0.0
H311 H 0.80636 0.69418 0.73756 0.0
H312 H 0.88042 0.71349 0.76915 0.0
H313 H 0.02689 0.93047 0.82406 0.0
H314 H 0.02747 0.87404 0.76902 0.0
H315 H 0.95845 0.79151 0.86003 0.0
H316 H 0.9582 0.84744 0.91541 0.0
H317 H 0.92169 0.79121 0.77264 0.0
H318 H 0.06492 0.77514 0.84602 0.0
H319 H 0.13823 0.80015 0.87463 0.0
H320 H 0.1791 0.83557 0.74383 0.0
H321 H 0.10577 0.81125 0.71451 0.0
C322 C 0.96732 0.63785 0.63445 0.0
C323 C -0.00564 0.64694 0.5974 0.0
C324 C 0.96792 0.66444 0.67149 0.0
C325 C -0.005 0.70109 0.67207 0.0
C326 C 0.02339 0.70898 0.63587 0.0
C327 C 0.02335 0.68222 0.59939 0.0
C328 C -0.00652 0.73204 0.70938 0.0
C329 C 0.03446 0.74697 0.72716 0.0
C330 C 0.95229 0.74828 0.72633 0.0
C331 C 0.9078 0.73669 0.70742 0.0
C332 C 0.89857 0.74378 0.66254 0.0
C333 C 0.85658 0.73261 0.6449 0.0
C334 C 0.82341 0.71467 0.67191 0.0
C335 C 0.83212 0.70799 0.71666 0.0
C336 C 0.87408 0.71905 0.73445 0.0
C337 C 0.01172 0.90037 0.83237 0.0
C338 C -0.00734 0.89354 0.87431 0.0
C339 C 0.01222 0.86806 0.8009 0.0
C340 C -0.00681 0.82841 0.81044 0.0
C341 C 0.97338 0.82177 0.85192 0.0
C342 C 0.97349 0.85379 0.88363 0.0
C343 C -0.00578 0.79384 0.77722 0.0
C344 C 0.95324 0.77831 0.76043 0.0
C345 C 0.03535 0.77756 0.76067 0.0
C346 C 0.0797 0.79169 0.77813 0.0
C347 C 0.08942 0.78853 0.8234 0.0
C348 C 0.131 0.80252 0.83974 0.0
C349 C 0.16326 0.81952 0.81108 0.0
C350 C 0.15406 0.82242 0.76599 0.0
C351 C 0.11252 0.80848 0.74949 0.0
H352 H 0.19541 0.83038 0.82378 0.0
H353 H 0.79092 0.70605 0.6582 0.0
H354 H 0.46724 0.05454 0.68942 0.0
H355 H 0.40669 0.05205 0.7427 0.0
H356 H 0.30972 0.08061 0.64075 0.0
H357 H 0.37112 0.08726 0.58711 0.0
H358 H 0.28388 0.11452 0.71706 0.0
H359 H 0.33171 0.97879 0.66917 0.0
H360 H 0.38587 0.92205 0.65232 0.0
H361 H 0.42496 0.91607 0.78847 0.0
H362 H 0.3715 0.97328 0.80604 0.0
H363 H 0.10077 1.02101 0.82745 0.0
H364 H 0.16164 1.02546 0.77382 0.0
H365 H 0.25964 0.03212 0.87874 0.0
H366 H 0.19887 1.0277 0.9333 0.0
H367 H 0.28195 0.97848 0.79903 0.0
H368 H 0.23395 0.11932 0.84287 0.0
H369 H 0.16972 0.16633 0.85923 0.0
H370 H 0.12307 0.15468 0.72586 0.0
H371 H 0.18689 0.10714 0.70892 0.0
C372 C 0.43347 0.06212 0.67819 0.0
C373 C 0.42427 0.07077 0.63352 0.0
C374 C 0.39867 0.05992 0.70882 0.0
C375 C 0.3537 0.06472 0.69533 0.0
C376 C 0.3443 0.07619 0.6516 0.0
C377 C 0.37939 0.07946 0.62092 0.0
C378 C 0.31683 0.05442 0.72634 0.0
C379 C 0.28332 0.08465 0.73459 0.0
C380 C 0.31594 1.01529 0.74918 0.0
C381 C 0.34786 0.98058 0.73885 0.0
C382 C 0.35206 0.96558 0.69547 0.0
C383 C 0.38262 0.93331 0.6858 0.0
C384 C 0.40891 0.91553 0.71929 0.0
C385 C 0.4046 0.92991 0.76256 0.0
C386 C 0.37415 0.96223 0.7724 0.0
C387 C 0.1352 1.02297 0.83942 0.0
C388 C 0.14487 1.02474 0.88479 0.0
C389 C 0.16989 1.02524 0.80861 0.0
C390 C 0.21474 1.02935 0.82258 0.0
C391 C 0.225 1.02881 0.86764 0.0
C392 C 0.19022 1.02662 0.89865 0.0
C393 C 0.25016 0.0388 0.7901 0.0
C394 C 0.283 1.00834 0.78147 0.0
C395 C 0.24996 0.07722 0.76639 0.0
C396 C 0.21501 0.10966 0.77475 0.0
C397 C 0.21016 0.12709 0.81701 0.0
C398 C 0.1737 0.1535 0.82645 0.0
C399 C 0.14207 0.16292 0.79374 0.0
C400 C 0.14745 0.14693 0.75122 0.0
C401 C 0.18387 0.1204 0.74163 0.0
H402 H 0.11371 0.18307 0.80125 0.0
H403 H 0.43255 0.89055 0.71173 0.0
H404 H 0.93338 0.36797 0.57398 0.0
H405 H 0.93746 0.32231 0.63827 0.0
H406 H 0.03811 0.40394 0.69571 0.0
H407 H 0.03634 0.44859 0.62962 0.0
H408 H 0.0635 0.32891 0.70896 0.0
H409 H 0.92436 0.39733 0.73329 0.0
H410 H 0.84762 0.42447 0.71917 0.0
H411 H 0.79874 0.29814 0.70134 0.0
H412 H 0.87535 0.27025 0.7145 0.0
H413 H 0.97032 0.21427 0.9179 0.0
H414 H 0.97047 0.27103 0.86347 0.0
H415 H 0.03162 0.18821 0.76834 0.0
H416 H 0.0313 0.1306 0.82279 0.0
H417 H 0.92684 0.27144 0.78248 0.0
H418 H 0.11135 0.2626 0.70911 0.0
H419 H 0.18958 0.25126 0.73454 0.0
H420 H 0.14891 0.27522 0.86791 0.0
H421 H 0.07085 0.28822 0.8432 0.0
C422 C 0.95673 0.37623 0.60005 0.0
C423 C 0.98493 0.41192 0.59612 0.0
C424 C 0.9585 0.35027 0.63732 0.0
C425 C -0.01232 0.35968 0.67244 0.0
C426 C 0.01523 0.39583 0.66919 0.0
C427 C 0.01386 0.42167 0.63149 0.0
C428 C -0.00925 0.33057 0.71129 0.0
C429 C 0.03356 0.31629 0.7249 0.0
C430 C 0.95183 0.31503 0.73342 0.0
C431 C 0.90581 0.33172 0.72443 0.0
C432 C 0.89739 0.37535 0.72584 0.0
C433 C 0.85386 0.39086 0.7181 0.0
C434 C 0.81835 0.36306 0.70924 0.0
C435 C 0.82629 0.31966 0.70811 0.0
C436 C 0.86977 0.30398 0.7157 0.0
C437 C 0.98415 0.20796 0.88555 0.0
C438 C 0.00088 0.16768 0.87485 0.0
C439 C 0.9841 0.24057 0.8544 0.0
C440 C 0.00151 0.23407 0.81199 0.0
C441 C 0.01851 0.19407 0.80109 0.0
C442 C 0.01802 0.16109 0.83215 0.0
C443 C -0.00063 0.26853 0.77856 0.0
C444 C 0.9567 0.28383 0.76615 0.0
C445 C 0.0385 0.28608 0.75874 0.0
C446 C 0.08486 0.27567 0.77428 0.0
C447 C 0.11903 0.26545 0.74388 0.0
C448 C 0.16349 0.25911 0.75813 0.0
C449 C 0.17423 0.26264 0.8028 0.0
C450 C 0.14053 0.27245 0.83332 0.0
C451 C 0.09611 0.27923 0.81919 0.0
H452 H 0.20861 0.25749 0.81379 0.0
H453 H 0.78467 0.37513 0.70334 0.0
H454 H 0.58348 0.13013 0.61769 0.0
H455 H 0.65305 0.13191 0.66135 0.0
H456 H 0.67236 0.99893 0.63823 0.0
H457 H 0.60318 0.99714 0.59436 0.0
H458 H 0.65854 0.08937 0.73627 0.0
H459 H 0.78301 0.97334 0.65142 0.0
H460 H 0.80708 0.95401 0.57637 0.0
H461 H 0.76826 0.0764 0.5288 0.0
H462 H 0.74457 0.09671 0.60367 0.0
H463 H 0.80484 1.00178 0.89435 0.0
H464 H 0.75229 1.00905 0.83247 0.0
H465 H 0.85206 0.0814 0.7608 0.0
H466 H 0.90523 0.07272 0.82161 0.0
H467 H 0.81067 0.02997 0.70712 0.0
H468 H 0.76554 0.12635 0.82109 0.0
H469 H 0.74296 0.14467 0.89691 0.0
H470 H 0.62377 0.06832 0.88457 0.0
H471 H 0.64654 0.04798 0.80946 0.0
C472 C 0.60336 0.10162 0.621 0.0
C473 C 0.58802 0.06345 0.60304 0.0
C474 C 0.64295 0.10265 0.64587 0.0
C475 C 0.66768 0.06555 0.65309 0.0
C476 C 0.6541 1.02804 0.63255 0.0
C477 C 0.61461 1.02704 0.60748 0.0
C478 C 0.70358 0.0646 0.68688 0.0
C479 C 0.692 0.0768 0.72982 0.0
C480 C 0.74707 0.04818 0.6783 0.0
C481 C 0.76167 0.03641 0.63317 0.0
C482 C 0.7798 0.99621 0.62501 0.0
C483 C 0.79334 0.98506 0.58247 0.0
C484 C 0.78908 1.01392 0.54782 0.0
C485 C 0.77138 0.05403 0.55565 0.0
C486 C 0.75783 0.06535 0.59812 0.0
C487 C 0.81549 1.01907 0.86528 0.0
C488 C 0.85886 0.03688 0.86273 0.0
C489 C 0.78554 1.02324 0.83004 0.0
C490 C 0.79809 0.04639 0.79241 0.0
C491 C 0.84175 0.06341 0.78952 0.0
C492 C 0.87199 0.05852 0.82431 0.0
C493 C 0.76533 0.05414 0.75657 0.0
C494 C 0.77741 0.04306 0.71339 0.0
C495 C 0.72235 0.07202 0.76484 0.0
C496 C 0.70795 0.08541 0.80962 0.0
C497 C 0.73464 0.11327 0.83459 0.0
C498 C 0.72183 0.12398 0.87748 0.0
C499 C 0.68187 0.10787 0.89543 0.0
C500 C 0.6547 0.08084 0.87061 0.0
C501 C 0.66762 0.06958 0.82792 0.0
H502 H 0.672 0.11629 0.92859 0.0
H503 H 0.79956 1.00521 0.51491 0.0
H504 H 0.3717 0.45209 0.99506 0.0
H505 H 0.30714 0.40332 0.99323 0.0
H506 H 0.37402 0.32261 0.0875 0.0
H507 H 0.43795 0.37132 0.0901 0.0
H508 H 0.34837 0.2821 1.00888 0.0
H509 H 0.28486 0.37586 0.1188 0.0
H510 H 0.25934 0.44488 0.14643 0.0
H511 H 0.16434 0.45447 0.03987 0.0
H512 H 0.18975 0.38573 1.01125 0.0
H513 H 0.18544 0.12705 0.05862 0.0
H514 H 0.24188 0.18342 0.06115 0.0
H515 H 0.15322 0.26438 0.98599 0.0
H516 H 0.09621 0.20878 0.98462 0.0
H517 H 0.18832 0.30753 0.04969 0.0
H518 H 0.24679 0.21712 0.93904 0.0
H519 H 0.27118 0.15016 0.90574 0.0
H520 H 0.37461 0.13693 1.00403 0.0
H521 H 0.35043 0.20358 0.03843 0.0
C522 C 0.372 0.4245 0.0162 0.0
C523 C 0.41001 0.41513 0.04227 0.0
C524 C 0.33529 0.39665 0.01499 0.0
C525 C 0.3362 0.35927 0.03993 0.0
C526 C 0.373 0.35112 0.06772 0.0
C527 C 0.40943 0.37891 0.06912 0.0
C528 C 0.30068 0.32689 0.03482 0.0
C529 C 0.31343 0.2874 0.01826 0.0
C530 C 0.25492 0.33464 0.04529 0.0
C531 C 0.23956 0.37587 0.06263 0.0
C532 C 0.25882 0.39286 0.10104 0.0
C533 C 0.24431 0.43189 0.11693 0.0
C534 C 0.21033 0.45411 0.09485 0.0
C535 C 0.1907 0.43726 0.0569 0.0
C536 C 0.20512 0.39825 0.04086 0.0
C537 C 0.17813 0.15679 0.04248 0.0
C538 C 0.13642 0.16354 0.02156 0.0
C539 C 0.21041 0.18896 0.04383 0.0
C540 C 0.20194 0.22802 0.02337 0.0
C541 C 0.16042 0.23462 1.00217 0.0
C542 C 0.12791 0.20275 1.00138 0.0
C543 C 0.23613 0.2622 0.02464 0.0
C544 C 0.22318 0.30211 0.04016 0.0
C545 C 0.28162 0.25517 1.01228 0.0
C546 C 0.29651 0.21518 0.99156 0.0
C547 C 0.27453 0.19979 0.95377 0.0
C548 C 0.28834 0.1619 0.93466 0.0
C549 C 0.32433 0.13924 0.9528 0.0
C550 C 0.34669 0.15449 0.99005 0.0
C551 C 0.33298 0.19235 1.00935 0.0
H552 H 0.33495 0.1099 0.93793 0.0
H553 H 0.19914 0.48432 0.1072 0.0
H554 H 0.36427 0.60475 0.04464 0.0
H555 H 0.29914 0.65222 0.03854 0.0
H556 H 0.38055 0.74142 0.96598 0.0
H557 H 0.44514 0.69369 0.97032 0.0
H558 H 0.3394 0.77083 0.0486 0.0
H559 H 0.30284 0.69924 0.91241 0.0
H560 H 0.28529 0.63696 0.86709 0.0
H561 H 0.16957 0.61016 0.94802 0.0
H562 H 0.18682 0.67199 0.99422 0.0
H563 H 0.18677 0.93381 0.99988 0.0
H564 H 0.24334 0.87807 0.99714 0.0
H565 H 0.1426 0.78665 0.03603 0.0
H566 H 0.08539 0.84215 0.03778 0.0
H567 H 0.19167 0.75533 0.9729 0.0
H568 H 0.22425 0.82106 0.1097 0.0
H569 H 0.24026 0.87834 0.16208 0.0
H570 H 0.36011 0.91113 0.08975 0.0
H571 H 0.34477 0.85398 0.0368 0.0
C572 C 0.36786 0.63381 0.02611 0.0
C573 C 0.41004 0.6458 1.00862 0.0
C574 C 0.33073 0.66095 0.02287 0.0
C575 C 0.33539 0.70039 1.00225 0.0
C576 C 0.37654 0.71121 0.98233 0.0
C577 C 0.41339 0.68397 0.98502 0.0
C578 C 0.29919 0.73225 1.00545 0.0
C579 C 0.30727 0.76783 0.0316 0.0
C580 C 0.25676 0.72713 0.98482 0.0
C581 C 0.24644 0.68996 0.95707 0.0
C582 C 0.27393 0.67982 0.92083 0.0
C583 C 0.26397 0.64466 0.89491 0.0
C584 C 0.22642 0.61954 0.90475 0.0
C585 C 0.19869 0.6296 0.94047 0.0
C586 C 0.20852 0.66472 0.96651 0.0
C587 C 0.17663 0.90192 1.00816 0.0
C588 C 0.13157 0.89249 0.01924 0.0
C589 C 0.20908 0.87006 1.00668 0.0
C590 C 0.19738 0.82824 0.01699 0.0
C591 C 0.15241 0.81869 0.02795 0.0
C592 C 0.11977 0.85049 0.02901 0.0
C593 C 0.23203 0.79451 0.01559 0.0
C594 C 0.2237 0.75847 0.99 0.0
C595 C 0.27396 0.79864 0.03767 0.0
C596 C 0.28308 0.8335 0.06901 0.0
C597 C 0.2538 0.84073 0.10471 0.0
C598 C 0.2628 0.87313 0.13457 0.0
C599 C 0.30103 0.89856 0.12913 0.0
C600 C 0.33045 0.89148 0.09388 0.0
C601 C 0.32168 0.85901 0.06399 0.0
H602 H 0.30792 0.92362 0.15231 0.0
H603 H 0.21876 0.59234 0.88464 0.0
H604 H 0.55503 0.37022 0.07671 0.0
H605 H 0.62151 0.3264 0.0706 0.0
H606 H 0.68078 0.41538 0.97925 0.0
H607 H 0.61169 0.45776 0.98196 0.0
H608 H 0.69649 0.344 0.94944 0.0
H609 H 0.72198 0.3992 0.09007 0.0
H610 H 0.70803 0.42216 0.16638 0.0
H611 H 0.67894 0.29447 0.2046 0.0
H612 H 0.69188 0.27086 0.12837 0.0
H613 H 0.898 0.21458 0.97533 0.0
H614 H 0.8449 0.27357 0.97666 0.0
H615 H 0.74217 0.19204 0.0312 0.0
H616 H 0.79501 0.13262 0.0298 0.0
H617 H 0.76111 0.26957 0.07892 0.0
H618 H 0.73477 0.22159 0.92623 0.0
H619 H 0.76088 0.20707 0.85039 0.0
H620 H 0.80891 0.33422 0.83794 0.0
H621 H 0.78345 0.34952 0.91367 0.0
C622 C 0.58188 0.38045 0.05486 0.0
C623 C 0.57748 0.41728 0.02923 0.0
C624 C 0.62055 0.35568 0.05216 0.0
C625 C 0.65684 0.36782 0.02513 0.0
C626 C 0.65335 0.40534 1.0005 0.0
C627 C 0.61397 0.4298 1.00241 0.0
C628 C 0.69648 0.33933 0.02047 0.0
C629 C 0.71115 0.32845 0.97793 0.0
C630 C 0.7164 0.31918 0.05747 0.0
C631 C 0.70771 0.33328 0.10335 0.0
C632 C 0.71221 0.37606 0.11464 0.0
C633 C 0.70454 0.38919 0.15792 0.0
C634 C 0.69256 0.35981 0.19031 0.0
C635 C 0.68823 0.31721 0.17948 0.0
C636 C 0.6958 0.30392 0.13624 0.0
C637 C 0.86398 0.20908 0.98729 0.0
C638 C 0.85068 0.16901 1.00269 0.0
C639 C 0.8337 0.24278 0.98777 0.0
C640 C 0.78976 0.237 1.00389 0.0
C641 C 0.77603 0.19692 0.01849 0.0
C642 C 0.80614 0.16303 0.01753 0.0
C643 C 0.75884 0.27321 1.0082 0.0
C644 C 0.7464 0.28565 0.05073 0.0
C645 C 0.74266 0.29601 0.97136 0.0
C646 C 0.75761 0.28656 0.92578 0.0
C647 C 0.75122 0.24633 0.90745 0.0
C648 C 0.76582 0.23799 0.86449 0.0
C649 C 0.78668 0.2696 0.83952 0.0
C650 C 0.79282 0.30973 0.85735 0.0
C651 C 0.77824 0.31828 0.90023 0.0
H652 H 0.79797 0.26303 0.80631 0.0
H653 H 0.68667 0.37004 0.22381 0.0
H654 H 0.53779 0.69325 0.09608 0.0
H655 H 0.60141 0.74256 0.09583 0.0
H656 H 0.67848 0.65647 0.01588 0.0
H657 H 0.61463 0.60722 0.01531 0.0
H658 H 0.73021 0.70257 0.08161 0.0
H659 H 0.62201 0.72519 0.96406 0.0
H660 H 0.54446 0.73532 0.93614 0.0
H661 H 0.53162 0.84823 1.01276 0.0
H662 H 0.60882 0.83826 0.04187 0.0
H663 H 0.88555 0.84669 0.98949 0.0
H664 H 0.82849 0.79181 0.99913 0.0
H665 H 0.73465 0.88433 0.04891 0.0
H666 H 0.79082 0.93969 0.03707 0.0
H667 H 0.69127 0.83349 0.99984 0.0
H668 H 0.79691 0.81304 0.11826 0.0
H669 H 0.87091 0.80138 0.15345 0.0
H670 H 0.88704 0.68603 0.08141 0.0
H671 H 0.81311 0.69719 0.04558 0.0
C672 C 0.56862 0.68448 0.07918 0.0
C673 C 0.57105 0.6468 0.05503 0.0
C674 C 0.6049 0.71257 0.07919 0.0
C675 C 0.64412 0.70333 0.05516 0.0
C676 C 0.64832 0.66407 0.03449 0.0
C677 C 0.61191 0.63596 0.03431 0.0
C678 C 0.67815 0.73655 0.04718 0.0
C679 C 0.72204 0.73106 0.06338 0.0
C680 C 0.66685 0.77393 0.02415 0.0
C681 C 0.62104 0.78077 1.00545 0.0
C682 C 0.60256 0.75205 0.97515 0.0
C683 C 0.55866 0.75774 0.95912 0.0
C684 C 0.53308 0.79234 0.97275 0.0
C685 C 0.55145 0.82141 1.00228 0.0
C686 C 0.59528 0.81576 0.01855 0.0
C687 C 0.85266 0.85538 1.00226 0.0
C688 C 0.84283 0.89746 1.01303 0.0
C689 C 0.82017 0.8239 1.00809 0.0
C690 C 0.77765 0.83367 0.02594 0.0
C691 C 0.76731 0.87591 0.03539 0.0
C692 C 0.79948 0.90756 0.02867 0.0
C693 C 0.74386 0.79998 0.0346 0.0
C694 C 0.69979 0.8052 0.01826 0.0
C695 C 0.75494 0.76257 0.05799 0.0
C696 C 0.7997 0.75616 0.07896 0.0
C697 C 0.81642 0.78538 0.10965 0.0
C698 C 0.85835 0.7788 0.12977 0.0
C699 C 0.88379 0.74301 0.11956 0.0
C700 C 0.86733 0.71374 0.08924 0.0
C701 C 0.82539 0.72014 0.06908 0.0
H702 H 0.91616 0.73776 0.13522 0.0
H703 H 0.49907 0.79666 0.96036 0.0
loop_
_geom_bond_atom_site_label_1
_geom_bond_atom_site_label_2
_geom_bond_distance
_geom_bond_site_symmetry_2
_ccdc_geom_bond_type
H0 C6 0.929 1_655 S
H1 C9 0.931 . S
H2 C11 0.929 1_655 S
H3 C13 0.930 . S
H4 C15 0.930 . S
H5 C17 0.931 1_655 S
C6 H0 0.929 1_455 S
C6 C7 1.379 1_455 S
C6 C8 1.394 . S
C7 C6 1.379 1_655 S
C7 C11 1.381 1_655 S
C8 C6 1.394 . S
C8 C9 1.400 . S
C9 H1 0.931 . S
C9 C8 1.400 . S
C9 C10 1.375 . S
C10 C9 1.375 . S
C10 C11 1.418 . S
C10 C12 1.501 . S
C11 H2 0.929 1_455 S
C11 C7 1.381 1_455 S
C11 C10 1.418 . S
C12 C10 1.501 . S
C12 C13 1.384 . S
C12 C17 1.408 . S
C13 H3 0.930 . S
C13 C12 1.384 . S
C13 C14 1.389 . S
C14 C13 1.389 . S
C14 C15 1.405 . S
C15 H4 0.930 . S
C15 C14 1.405 . S
C15 C16 1.366 . S
C16 C15 1.366 . S
C16 C17 1.401 . S
C17 H5 0.931 1_455 S
C17 C12 1.408 . S
C17 C16 1.401 . S
H18 C24 0.930 . S
H19 C27 0.931 . S
H20 C29 0.931 . S
H21 C31 0.930 . S
H22 C33 0.930 . S
H23 C35 0.931 . S
C24 H18 0.930 . S
C24 C25 1.380 . S
C24 C26 1.394 1_545 S
C25 C24 1.380 . S
C25 C29 1.382 . S
C26 C24 1.394 1_565 S
C26 C27 1.400 . S
C27 H19 0.931 . S
C27 C26 1.400 . S
C27 C28 1.375 . S
C28 C27 1.375 . S
C28 C29 1.415 1_565 S
C28 C30 1.501 . S
C29 H20 0.931 . S
C29 C25 1.382 . S
C29 C28 1.415 1_545 S
C30 C28 1.501 . S
C30 C31 1.384 . S
C30 C35 1.408 1_565 S
C31 H21 0.930 . S
C31 C30 1.384 . S
C31 C32 1.389 . S
C32 C31 1.389 . S
C32 C33 1.405 . S
C33 H22 0.930 . S
C33 C32 1.405 . S
C33 C34 1.364 1_565 S
C34 C33 1.364 1_545 S
C34 C35 1.400 . S
C35 H23 0.931 . S
C35 C30 1.408 1_545 S
C35 C34 1.400 . S
H36 C42 0.929 1_556 S
H37 C45 0.931 . S
H38 C47 0.929 1_556 S
H39 C49 0.930 . S
H40 C51 0.930 . S
H41 C53 0.928 1_556 S
C42 H36 0.929 1_554 S
C42 C43 1.379 1_554 S
C42 C44 1.394 . S
C43 C42 1.379 1_556 S
C43 C47 1.381 1_556 S
C44 C42 1.394 . S
C44 C45 1.400 . S
C45 H37 0.931 . S
C45 C44 1.400 . S
C45 C46 1.375 . S
C46 C45 1.375 . S
C46 C47 1.417 . S
C46 C48 1.501 . S
C47 H38 0.929 1_554 S
C47 C43 1.381 1_554 S
C47 C46 1.417 . S
C48 C46 1.501 . S
C48 C49 1.384 . S
C48 C53 1.411 . S
C49 H39 0.930 . S
C49 C48 1.384 . S
C49 C50 1.389 . S
C50 C49 1.389 . S
C50 C51 1.405 . S
C51 H40 0.930 . S
C51 C50 1.405 . S
C51 C52 1.366 . S
C52 C51 1.366 . S
C52 C53 1.400 . S
C53 H41 0.928 1_554 S
C53 C48 1.411 . S
C53 C52 1.400 . S
C54 O80 1.283 . S
C54 O98 1.283 . S
C55 O81 1.283 . S
C55 O96 1.283 . S
C56 O82 1.283 . S
C56 O99 1.283 . S
C57 O83 1.283 . S
C57 O97 1.283 . S
C58 O84 1.283 . S
C58 O93 1.283 . S
C59 O85 1.283 . S
C59 O95 1.283 . S
C60 O86 1.283 . S
C60 O92 1.283 . S
C61 O87 1.283 . S
C61 O94 1.283 . S
C62 O88 1.283 . S
C62 O103 1.283 . S
C63 O89 1.283 . S
C63 O101 1.283 . S
C64 O90 1.283 . S
C64 O102 1.283 . S
C65 O91 1.283 . S
C65 O100 1.283 . S
Eu66 O67 2.370 . S
Eu66 O68 2.370 1_454 S
Eu66 O71 2.370 1_554 S
Eu66 O72 2.370 1_455 S
Eu66 O80 2.363 1_554 S
Eu66 O81 2.363 . S
Eu66 O94 2.363 1_455 S
Eu66 O95 2.363 . S
O67 Eu66 2.370 . S
O67 Eu69 2.370 . S
O67 Eu74 2.370 . S
O68 Eu66 2.370 1_656 S
O68 Eu70 2.370 1_556 S
O68 Eu73 2.370 1_655 S
Eu69 O67 2.370 . S
Eu69 O71 2.370 1_554 S
Eu69 O75 2.370 1_544 S
Eu69 O76 2.370 1_545 S
Eu69 O84 2.364 1_545 S
Eu69 O85 2.362 . S
Eu69 O100 2.363 1_554 S
Eu69 O101 2.363 . S
Eu70 O68 2.370 1_554 S
Eu70 O72 2.370 . S
Eu70 O77 2.370 1_545 S
Eu70 O78 2.370 1_544 S
Eu70 O86 2.362 1_545 S
Eu70 O87 2.364 . S
Eu70 O102 2.363 1_554 S
Eu70 O103 2.363 . S
O71 Eu66 2.370 1_556 S
O71 Eu69 2.370 1_556 S
O71 Eu73 2.370 . S
O72 Eu66 2.370 1_655 S
O72 Eu70 2.370 . S
O72 Eu74 2.370 1_655 S
Eu73 O68 2.370 1_455 S
Eu73 O71 2.370 . S
Eu73 O75 2.370 1_545 S
Eu73 O78 2.370 1_445 S
Eu73 O90 2.363 1_455 S
Eu73 O91 2.363 . S
Eu73 O98 2.362 . S
Eu73 O99 2.364 1_545 S
Eu74 O67 2.370 . S
Eu74 O72 2.370 1_455 S
Eu74 O76 2.370 1_545 S
Eu74 O77 2.370 1_445 S
Eu74 O88 2.363 1_455 S
Eu74 O89 2.363 . S
Eu74 O96 2.364 . S
Eu74 O97 2.362 1_545 S
O75 Eu69 2.370 1_566 S
O75 Eu73 2.370 1_565 S
O75 Eu79 2.370 1_556 S
O76 Eu69 2.370 1_565 S
O76 Eu74 2.370 1_565 S
O76 Eu79 2.370 . S
O77 Eu70 2.370 1_565 S
O77 Eu74 2.370 1_665 S
O77 Eu79 2.370 1_655 S
O78 Eu70 2.370 1_566 S
O78 Eu73 2.370 1_665 S
O78 Eu79 2.370 1_656 S
Eu79 O75 2.370 1_554 S
Eu79 O76 2.370 . S
Eu79 O77 2.370 1_455 S
Eu79 O78 2.370 1_454 S
Eu79 O82 2.363 1_554 S
Eu79 O83 2.363 . S
Eu79 O92 2.363 1_455 S
Eu79 O93 2.363 . S
O80 C54 1.283 . S
O80 Eu66 2.363 1_556 S
O81 C55 1.283 . S
O81 Eu66 2.363 . S
O82 C56 1.283 . S
O82 Eu79 2.363 1_556 S
O83 C57 1.283 . S
O83 Eu79 2.363 . S
O84 C58 1.283 . S
O84 Eu69 2.364 1_565 S
O85 C59 1.283 . S
O85 Eu69 2.362 . S
O86 C60 1.283 . S
O86 Eu70 2.362 1_565 S
O87 C61 1.283 . S
O87 Eu70 2.364 . S
O88 C62 1.283 . S
O88 Eu74 2.363 1_655 S
O89 C63 1.283 . S
O89 Eu74 2.363 . S
O90 C64 1.283 . S
O90 Eu73 2.363 1_655 S
O91 C65 1.283 . S
O91 Eu73 2.363 . S
O92 C60 1.283 . S
O92 Eu79 2.363 1_655 S
O93 C58 1.283 . S
O93 Eu79 2.363 . S
O94 C61 1.283 . S
O94 Eu66 2.363 1_655 S
O95 C59 1.283 . S
O95 Eu66 2.363 . S
O96 C55 1.283 . S
O96 Eu74 2.364 . S
O97 C57 1.283 . S
O97 Eu74 2.362 1_565 S
O98 C54 1.283 . S
O98 Eu73 2.362 . S
O99 C56 1.283 . S
O99 Eu73 2.364 1_565 S
O100 C65 1.283 . S
O100 Eu69 2.363 1_556 S
O101 C63 1.283 . S
O101 Eu69 2.363 . S
O102 C64 1.283 . S
O102 Eu70 2.363 1_556 S
O103 C62 1.283 . S
O103 Eu70 2.363 . S
H104 C122 0.951 . S
H105 C124 0.951 . S
H106 C126 0.950 . S
H107 C127 0.950 . S
H108 C129 0.950 . S
H109 C132 0.950 . S
H110 C133 0.950 . S
H111 C135 0.950 . S
H112 C136 0.950 . S
H113 C137 0.951 . S
H114 C139 0.951 . S
H115 C141 0.950 . S
H116 C142 0.950 . S
H117 C144 0.950 . S
H118 C147 0.950 . S
H119 C148 0.950 . S
H120 C150 0.950 . S
H121 C151 0.950 . S
C122 H104 0.951 . S
C122 C123 1.366 . S
C122 C124 1.388 . S
C123 C122 1.366 . S
C123 C127 1.385 1_655 S
C124 H105 0.951 . S
C124 C122 1.388 . S
C124 C125 1.359 1_655 S
C125 C124 1.359 1_455 S
C125 C126 1.420 . S
C125 C128 1.499 . S
C126 H106 0.950 . S
C126 C125 1.420 . S
C126 C127 1.374 . S
C127 H107 0.950 . S
C127 C123 1.385 1_455 S
C127 C126 1.374 . S
C128 C125 1.499 . S
C128 C129 1.373 1_455 S
C128 C130 1.389 . S
C129 H108 0.950 . S
C129 C128 1.373 1_655 S
C129 C145 1.377 . S
C130 C128 1.389 . S
C130 C131 1.524 . S
C130 C144 1.377 . S
C131 C130 1.524 . S
C131 C132 1.397 . S
C131 C136 1.363 1_455 S
C132 H109 0.950 . S
C132 C131 1.397 . S
C132 C133 1.334 . S
C133 H110 0.950 . S
C133 C132 1.334 . S
C133 C134 1.287 . S
C134 C133 1.287 . S
C134 C135 1.524 1_455 S
C134 H153 0.913 . S
C135 H111 0.950 . S
C135 C134 1.524 1_655 S
C135 C136 1.415 . S
C136 H112 0.950 . S
C136 C131 1.363 1_655 S
C136 C135 1.415 . S
C137 H113 0.951 . S
C137 C138 1.366 . S
C137 C139 1.388 . S
C138 C137 1.366 . S
C138 C142 1.385 1_455 S
C139 H114 0.951 . S
C139 C137 1.388 . S
C139 C140 1.357 1_455 S
C140 C139 1.357 1_655 S
C140 C141 1.422 . S
C140 C143 1.499 . S
C141 H115 0.950 . S
C141 C140 1.422 . S
C141 C142 1.374 . S
C142 H116 0.950 . S
C142 C138 1.385 1_655 S
C142 C141 1.374 . S
C143 C140 1.499 . S
C143 C144 1.373 1_655 S
C143 C145 1.389 . S
C144 H117 0.950 . S
C144 C130 1.377 . S
C144 C143 1.373 1_455 S
C145 C129 1.377 . S
C145 C143 1.389 . S
C145 C146 1.524 . S
C146 C145 1.524 . S
C146 C147 1.397 . S
C146 C151 1.363 1_655 S
C147 H118 0.950 . S
C147 C146 1.397 . S
C147 C148 1.334 . S
C148 H119 0.950 . S
C148 C147 1.334 . S
C148 C149 1.287 . S
C149 C148 1.287 . S
C149 C150 1.524 1_655 S
C149 H152 0.999 . S
C150 H120 0.950 . S
C150 C149 1.524 1_455 S
C150 C151 1.415 . S
C151 H121 0.950 . S
C151 C146 1.363 1_455 S
C151 C150 1.415 . S
H152 C149 0.999 . S
H153 C134 0.913 . S
H154 C172 0.951 . S
H155 C174 0.951 . S
H156 C176 0.950 . S
H157 C177 0.950 . S
H158 C179 0.950 . S
H159 C182 0.950 . S
H160 C183 0.950 . S
H161 C185 0.950 . S
H162 C186 0.950 . S
H163 C187 0.951 . S
H164 C189 0.951 . S
H165 C191 0.950 . S
H166 C192 0.950 . S
H167 C194 0.950 . S
H168 C197 0.950 . S
H169 C198 0.950 . S
H170 C200 0.950 . S
H171 C201 0.950 . S
C172 H154 0.951 . S
C172 C173 1.366 1_565 S
C172 C174 1.388 . S
C173 C172 1.366 1_545 S
C173 C177 1.385 . S
C174 H155 0.951 . S
C174 C172 1.388 . S
C174 C175 1.366 1_565 S
C175 C174 1.366 1_545 S
C175 C176 1.414 . S
C175 C178 1.499 . S
C176 H156 0.950 . S
C176 C175 1.414 . S
C176 C177 1.374 . S
C177 H157 0.950 . S
C177 C173 1.385 . S
C177 C176 1.374 . S
C178 C175 1.499 . S
C178 C179 1.373 . S
C178 C180 1.389 1_545 S
C179 H158 0.950 . S
C179 C178 1.373 . S
C179 C195 1.377 . S
C180 C178 1.389 1_565 S
C180 C181 1.524 . S
C180 C194 1.377 . S
C181 C180 1.524 . S
C181 C182 1.397 . S
C181 C186 1.363 . S
C182 H159 0.950 . S
C182 C181 1.397 . S
C182 C183 1.334 . S
C183 H160 0.950 . S
C183 C182 1.334 . S
C183 C184 1.287 . S
C184 C183 1.287 . S
C184 C185 1.524 . S
C184 H203 0.913 . S
C185 H161 0.950 . S
C185 C184 1.524 . S
C185 C186 1.415 . S
C186 H162 0.950 . S
C186 C181 1.363 . S
C186 C185 1.415 . S
C187 H163 0.951 . S
C187 C188 1.367 . S
C187 C189 1.388 . S
C188 C187 1.367 . S
C188 C192 1.384 1_545 S
C189 H164 0.951 . S
C189 C187 1.388 . S
C189 C190 1.366 . S
C190 C189 1.366 . S
C190 C191 1.414 1_545 S
C190 C193 1.499 . S
C191 H165 0.950 . S
C191 C190 1.414 1_565 S
C191 C192 1.374 . S
C192 H166 0.950 . S
C192 C188 1.384 1_565 S
C192 C191 1.374 . S
C193 C190 1.499 . S
C193 C194 1.373 1_545 S
C193 C195 1.389 . S
C194 H167 0.950 . S
C194 C180 1.377 . S
C194 C193 1.373 1_565 S
C195 C179 1.377 . S
C195 C193 1.389 . S
C195 C196 1.524 . S
C196 C195 1.524 . S
C196 C197 1.397 . S
C196 C201 1.363 . S
C197 H168 0.950 . S
C197 C196 1.397 . S
C197 C198 1.334 . S
C198 H169 0.950 . S
C198 C197 1.334 . S
C198 C199 1.287 . S
C199 C198 1.287 . S
C199 C200 1.524 . S
C199 H202 0.999 . S
C200 H170 0.950 . S
C200 C199 1.524 . S
C200 C201 1.415 . S
C201 H171 0.950 . S
C201 C196 1.363 . S
C201 C200 1.415 . S
H202 C199 0.999 . S
H203 C184 0.913 . S
H204 C222 0.951 . S
H205 C224 0.951 . S
H206 C226 0.950 . S
H207 C227 0.950 . S
H208 C229 0.950 . S
H209 C232 0.950 . S
H210 C233 0.950 . S
H211 C235 0.950 . S
H212 C236 0.950 . S
H213 C237 0.951 . S
H214 C239 0.951 . S
H215 C241 0.950 . S
H216 C242 0.950 . S
H217 C244 0.950 1_655 S
H218 C247 0.950 . S
H219 C248 0.950 . S
H220 C250 0.950 . S
H221 C251 0.950 . S
C222 H204 0.951 . S
C222 C223 1.366 1_655 S
C222 C224 1.388 . S
C223 C222 1.366 1_455 S
C223 C227 1.385 . S
C224 H205 0.951 . S
C224 C222 1.388 . S
C224 C225 1.366 1_655 S
C225 C224 1.366 1_455 S
C225 C226 1.414 . S
C225 C228 1.499 . S
C226 H206 0.950 . S
C226 C225 1.414 . S
C226 C227 1.374 . S
C227 H207 0.950 . S
C227 C223 1.385 . S
C227 C226 1.374 . S
C228 C225 1.499 . S
C228 C229 1.373 . S
C228 C230 1.389 . S
C229 H208 0.950 . S
C229 C228 1.373 . S
C229 C245 1.377 . S
C230 C228 1.389 . S
C230 C231 1.524 . S
C230 C244 1.377 . S
C231 C230 1.524 . S
C231 C232 1.397 . S
C231 C236 1.363 1_455 S
C232 H209 0.950 . S
C232 C231 1.397 . S
C232 C233 1.334 . S
C233 H210 0.950 . S
C233 C232 1.334 . S
C233 C234 1.287 . S
C234 C233 1.287 . S
C234 C235 1.524 1_455 S
C234 H253 0.913 . S
C235 H211 0.950 . S
C235 C234 1.524 1_655 S
C235 C236 1.415 . S
C236 H212 0.950 . S
C236 C231 1.363 1_655 S
C236 C235 1.415 . S
C237 H213 0.951 . S
C237 C238 1.366 . S
C237 C239 1.388 . S
C238 C237 1.366 . S
C238 C242 1.385 1_455 S
C239 H214 0.951 . S
C239 C237 1.388 . S
C239 C240 1.366 . S
C240 C239 1.366 . S
C240 C241 1.414 1_455 S
C240 C243 1.499 . S
C241 H215 0.950 . S
C241 C240 1.414 1_655 S
C241 C242 1.374 . S
C242 H216 0.950 . S
C242 C238 1.385 1_655 S
C242 C241 1.374 . S
C243 C240 1.499 . S
C243 C244 1.373 . S
C243 C245 1.389 . S
C244 H217 0.950 1_455 S
C244 C230 1.377 . S
C244 C243 1.373 . S
C245 C229 1.377 . S
C245 C243 1.389 . S
C245 C246 1.524 . S
C246 C245 1.524 . S
C246 C247 1.397 1_455 S
C246 C251 1.363 . S
C247 H218 0.950 . S
C247 C246 1.397 1_655 S
C247 C248 1.334 . S
C248 H219 0.950 . S
C248 C247 1.334 . S
C248 C249 1.287 . S
C249 C248 1.287 . S
C249 C250 1.524 1_655 S
C249 H252 0.999 . S
C250 H220 0.950 . S
C250 C249 1.524 1_455 S
C250 C251 1.415 . S
C251 H221 0.950 . S
C251 C246 1.363 . S
C251 C250 1.415 . S
H252 C249 0.999 . S
H253 C234 0.913 . S
H254 C272 0.951 . S
H255 C274 0.951 . S
H256 C276 0.950 . S
H257 C277 0.950 . S
H258 C279 0.950 . S
H259 C282 0.950 . S
H260 C283 0.950 1_545 S
H261 C285 0.950 . S
H262 C286 0.950 . S
H263 C287 0.951 . S
H264 C289 0.951 . S
H265 C291 0.950 . S
H266 C292 0.950 . S
H267 C294 0.950 . S
H268 C297 0.950 . S
H269 C298 0.950 . S
H270 C300 0.950 . S
H271 C301 0.950 . S
C272 H254 0.951 . S
C272 C273 1.366 . S
C272 C274 1.388 . S
C273 C272 1.366 . S
C273 C277 1.385 1_565 S
C274 H255 0.951 . S
C274 C272 1.388 . S
C274 C275 1.366 . S
C275 C274 1.366 . S
C275 C276 1.414 1_565 S
C275 C278 1.499 . S
C276 H256 0.950 . S
C276 C275 1.414 1_545 S
C276 C277 1.374 . S
C277 H257 0.950 . S
C277 C273 1.385 1_545 S
C277 C276 1.374 . S
C278 C275 1.499 . S
C278 C279 1.373 1_565 S
C278 C280 1.389 . S
C279 H258 0.950 . S
C279 C278 1.373 1_545 S
C279 C295 1.377 . S
C280 C278 1.389 . S
C280 C281 1.524 . S
C280 C294 1.377 . S
C281 C280 1.524 . S
C281 C282 1.397 1_565 S
C281 C286 1.363 . S
C282 H259 0.950 . S
C282 C281 1.397 1_545 S
C282 C283 1.334 1_545 S
C283 H260 0.950 1_565 S
C283 C282 1.334 1_565 S
C283 C284 1.287 . S
C284 C283 1.287 . S
C284 C285 1.524 . S
C284 H303 0.913 . S
C285 H261 0.950 . S
C285 C284 1.524 . S
C285 C286 1.415 . S
C286 H262 0.950 . S
C286 C281 1.363 . S
C286 C285 1.415 . S
C287 H263 0.951 . S
C287 C288 1.367 1_545 S
C287 C289 1.388 . S
C288 C287 1.367 1_565 S
C288 C292 1.384 . S
C289 H264 0.951 . S
C289 C287 1.388 . S
C289 C290 1.366 1_545 S
C290 C289 1.366 1_565 S
C290 C291 1.414 . S
C290 C293 1.499 . S
C291 H265 0.950 . S
C291 C290 1.414 . S
C291 C292 1.374 . S
C292 H266 0.950 . S
C292 C288 1.384 . S
C292 C291 1.374 . S
C293 C290 1.499 . S
C293 C294 1.373 . S
C293 C295 1.389 1_565 S
C294 H267 0.950 . S
C294 C280 1.377 . S
C294 C293 1.373 . S
C295 C279 1.377 . S
C295 C293 1.389 1_545 S
C295 C296 1.524 . S
C296 C295 1.524 . S
C296 C297 1.397 1_545 S
C296 C301 1.363 . S
C297 H268 0.950 . S
C297 C296 1.397 1_565 S
C297 C298 1.334 . S
C298 H269 0.950 . S
C298 C297 1.334 . S
C298 C299 1.287 1_565 S
C299 C298 1.287 1_545 S
C299 C300 1.524 . S
C299 H302 0.999 . S
C300 H270 0.950 . S
C300 C299 1.524 . S
C300 C301 1.415 . S
C301 H271 0.950 . S
C301 C296 1.363 . S
C301 C300 1.415 . S
H302 C299 0.999 . S
H303 C284 0.913 . S
H304 C322 0.951 . S
H305 C324 0.951 . S
H306 C326 0.950 . S
H307 C327 0.950 . S
H308 C329 0.950 . S
H309 C332 0.950 . S
H310 C333 0.950 . S
H311 C335 0.950 . S
H312 C336 0.950 . S
H313 C337 0.951 . S
H314 C339 0.951 . S
H315 C341 0.950 . S
H316 C342 0.950 . S
H317 C344 0.950 . S
H318 C347 0.950 . S
H319 C348 0.950 . S
H320 C350 0.950 . S
H321 C351 0.950 . S
C322 H304 0.951 . S
C322 C323 1.366 . S
C322 C324 1.388 . S
C323 C322 1.366 . S
C323 C327 1.385 1_655 S
C324 H305 0.951 . S
C324 C322 1.388 . S
C324 C325 1.366 . S
C325 C324 1.366 . S
C325 C326 1.414 1_655 S
C325 C328 1.500 . S
C326 H306 0.950 . S
C326 C325 1.414 1_455 S
C326 C327 1.374 . S
C327 H307 0.950 . S
C327 C323 1.385 1_455 S
C327 C326 1.374 . S
C328 C325 1.500 . S
C328 C329 1.352 1_655 S
C328 C330 1.410 . S
C329 H308 0.950 . S
C329 C328 1.352 1_455 S
C329 C345 1.377 . S
C330 C328 1.410 . S
C330 C331 1.524 . S
C330 C344 1.377 . S
C331 C330 1.524 . S
C331 C332 1.397 . S
C331 C336 1.363 . S
C332 H309 0.950 . S
C332 C331 1.397 . S
C332 C333 1.334 . S
C333 H310 0.950 . S
C333 C332 1.334 . S
C333 C334 1.287 . S
C334 C333 1.287 . S
C334 C335 1.524 . S
C334 H353 0.913 . S
C335 H311 0.950 . S
C335 C334 1.524 . S
C335 C336 1.415 . S
C336 H312 0.950 . S
C336 C331 1.363 . S
C336 C335 1.415 . S
C337 H313 0.951 . S
C337 C338 1.366 . S
C337 C339 1.388 . S
C338 C337 1.366 . S
C338 C342 1.385 1_455 S
C339 H314 0.951 . S
C339 C337 1.388 . S
C339 C340 1.366 . S
C340 C339 1.366 . S
C340 C341 1.414 1_455 S
C340 C343 1.500 . S
C341 H315 0.950 . S
C341 C340 1.414 1_655 S
C341 C342 1.374 . S
C342 H316 0.950 . S
C342 C338 1.385 1_655 S
C342 C341 1.374 . S
C343 C340 1.500 . S
C343 C344 1.353 1_455 S
C343 C345 1.409 . S
C344 H317 0.950 . S
C344 C330 1.377 . S
C344 C343 1.353 1_655 S
C345 C329 1.377 . S
C345 C343 1.409 . S
C345 C346 1.524 . S
C346 C345 1.524 . S
C346 C347 1.397 . S
C346 C351 1.363 . S
C347 H318 0.950 . S
C347 C346 1.397 . S
C347 C348 1.334 . S
C348 H319 0.950 . S
C348 C347 1.334 . S
C348 C349 1.287 . S
C349 C348 1.287 . S
C349 C350 1.524 . S
C349 H352 0.999 . S
C350 H320 0.950 . S
C350 C349 1.524 . S
C350 C351 1.415 . S
C351 H321 0.950 . S
C351 C346 1.363 . S
C351 C350 1.415 . S
H352 C349 0.999 . S
H353 C334 0.913 . S
H354 C372 0.951 . S
H355 C374 0.951 . S
H356 C376 0.950 . S
H357 C377 0.950 . S
H358 C379 0.950 . S
H359 C382 0.950 . S
H360 C383 0.950 . S
H361 C385 0.950 . S
H362 C386 0.950 . S
H363 C387 0.951 . S
H364 C389 0.951 . S
H365 C391 0.950 . S
H366 C392 0.950 . S
H367 C394 0.950 . S
H368 C397 0.950 . S
H369 C398 0.950 . S
H370 C400 0.950 . S
H371 C401 0.950 . S
C372 H354 0.951 . S
C372 C373 1.366 . S
C372 C374 1.388 . S
C373 C372 1.366 . S
C373 C377 1.385 . S
C374 H355 0.951 . S
C374 C372 1.388 . S
C374 C375 1.366 . S
C375 C374 1.366 . S
C375 C376 1.414 . S
C375 C378 1.499 . S
C376 H356 0.950 . S
C376 C375 1.414 . S
C376 C377 1.374 . S
C377 H357 0.950 . S
C377 C373 1.385 . S
C377 C376 1.374 . S
C378 C375 1.499 . S
C378 C379 1.373 . S
C378 C380 1.389 1_545 S
C379 H358 0.950 . S
C379 C378 1.373 . S
C379 C395 1.377 . S
C380 C378 1.389 1_565 S
C380 C381 1.524 . S
C380 C394 1.377 . S
C381 C380 1.524 . S
C381 C382 1.397 . S
C381 C386 1.363 . S
C382 H359 0.950 . S
C382 C381 1.397 . S
C382 C383 1.334 . S
C383 H360 0.950 . S
C383 C382 1.334 . S
C383 C384 1.287 . S
C384 C383 1.287 . S
C384 C385 1.524 . S
C384 H403 0.913 . S
C385 H361 0.950 . S
C385 C384 1.524 . S
C385 C386 1.415 . S
C386 H362 0.950 . S
C386 C381 1.363 . S
C386 C385 1.415 . S
C387 H363 0.951 . S
C387 C388 1.366 . S
C387 C389 1.388 . S
C388 C387 1.366 . S
C388 C392 1.385 1_545 S
C389 H364 0.951 . S
C389 C387 1.388 . S
C389 C390 1.366 . S
C390 C389 1.366 . S
C390 C391 1.414 . S
C390 C393 1.499 . S
C391 H365 0.950 . S
C391 C390 1.414 . S
C391 C392 1.374 1_545 S
C392 H366 0.950 . S
C392 C388 1.385 1_565 S
C392 C391 1.374 1_565 S
C393 C390 1.499 . S
C393 C394 1.373 1_545 S
C393 C395 1.389 . S
C394 H367 0.950 . S
C394 C380 1.377 . S
C394 C393 1.373 1_565 S
C395 C379 1.377 . S
C395 C393 1.389 . S
C395 C396 1.524 . S
C396 C395 1.524 . S
C396 C397 1.397 . S
C396 C401 1.363 . S
C397 H368 0.950 . S
C397 C396 1.397 . S
C397 C398 1.334 . S
C398 H369 0.950 . S
C398 C397 1.334 . S
C398 C399 1.287 . S
C399 C398 1.287 . S
C399 C400 1.524 . S
C399 H402 0.999 . S
C400 H370 0.950 . S
C400 C399 1.524 . S
C400 C401 1.415 . S
C401 H371 0.950 . S
C401 C396 1.363 . S
C401 C400 1.415 . S
H402 C399 0.999 . S
H403 C384 0.913 . S
H404 C422 0.951 . S
H405 C424 0.951 . S
H406 C426 0.950 . S
H407 C427 0.950 . S
H408 C429 0.950 . S
H409 C432 0.950 . S
H410 C433 0.950 . S
H411 C435 0.950 . S
H412 C436 0.950 . S
H413 C437 0.951 . S
H414 C439 0.951 . S
H415 C441 0.950 . S
H416 C442 0.950 . S
H417 C444 0.950 . S
H418 C447 0.950 . S
H419 C448 0.950 . S
H420 C450 0.950 . S
H421 C451 0.950 . S
C422 H404 0.951 . S
C422 C423 1.366 1_655 S
C422 C424 1.388 . S
C423 C422 1.366 1_455 S
C423 C427 1.385 . S
C424 H405 0.951 . S
C424 C422 1.388 . S
C424 C425 1.366 1_655 S
C425 C424 1.366 1_455 S
C425 C426 1.414 . S
C425 C428 1.499 . S
C426 H406 0.950 . S
C426 C425 1.414 . S
C426 C427 1.374 . S
C427 H407 0.950 . S
C427 C423 1.385 . S
C427 C426 1.374 . S
C428 C425 1.499 . S
C428 C429 1.373 . S
C428 C430 1.389 1_455 S
C429 H408 0.950 . S
C429 C428 1.373 . S
C429 C445 1.377 . S
C430 C428 1.389 1_655 S
C430 C431 1.524 . S
C430 C444 1.377 . S
C431 C430 1.524 . S
C431 C432 1.397 . S
C431 C436 1.363 . S
C432 H409 0.950 . S
C432 C431 1.397 . S
C432 C433 1.334 . S
C433 H410 0.950 . S
C433 C432 1.334 . S
C433 C434 1.287 . S
C434 C433 1.287 . S
C434 C435 1.524 . S
C434 H453 0.913 . S
C435 H411 0.950 . S
C435 C434 1.524 . S
C435 C436 1.415 . S
C436 H412 0.950 . S
C436 C431 1.363 . S
C436 C435 1.415 . S
C437 H413 0.951 . S
C437 C438 1.366 . S
C437 C439 1.388 . S
C438 C437 1.366 . S
C438 C442 1.385 1_455 S
C439 H414 0.951 . S
C439 C437 1.388 . S
C439 C440 1.366 . S
C440 C439 1.366 . S
C440 C441 1.414 1_455 S
C440 C443 1.499 . S
C441 H415 0.950 . S
C441 C440 1.414 1_655 S
C441 C442 1.374 . S
C442 H416 0.950 . S
C442 C438 1.385 1_655 S
C442 C441 1.374 . S
C443 C440 1.499 . S
C443 C444 1.373 1_455 S
C443 C445 1.389 . S
C444 H417 0.950 . S
C444 C430 1.377 . S
C444 C443 1.373 1_655 S
C445 C429 1.377 . S
C445 C443 1.389 . S
C445 C446 1.524 . S
C446 C445 1.524 . S
C446 C447 1.397 . S
C446 C451 1.363 . S
C447 H418 0.950 . S
C447 C446 1.397 . S
C447 C448 1.334 . S
C448 H419 0.950 . S
C448 C447 1.334 . S
C448 C449 1.287 . S
C449 C448 1.287 . S
C449 C450 1.524 . S
C449 H452 0.999 . S
C450 H420 0.950 . S
C450 C449 1.524 . S
C450 C451 1.415 . S
C451 H421 0.950 . S
C451 C446 1.363 . S
C451 C450 1.415 . S
H452 C449 0.999 . S
H453 C434 0.913 . S
H454 C472 0.951 . S
H455 C474 0.951 . S
H456 C476 0.950 . S
H457 C477 0.950 . S
H458 C479 0.950 . S
H459 C482 0.950 . S
H460 C483 0.950 . S
H461 C485 0.950 . S
H462 C486 0.950 . S
H463 C487 0.951 . S
H464 C489 0.951 . S
H465 C491 0.950 . S
H466 C492 0.950 . S
H467 C494 0.950 . S
H468 C497 0.950 . S
H469 C498 0.950 . S
H470 C500 0.950 . S
H471 C501 0.950 . S
C472 H454 0.951 . S
C472 C473 1.366 1_545 S
C472 C474 1.388 . S
C473 C472 1.366 1_565 S
C473 C477 1.385 . S
C474 H455 0.951 . S
C474 C472 1.388 . S
C474 C475 1.366 1_545 S
C475 C474 1.366 1_565 S
C475 C476 1.414 . S
C475 C478 1.499 . S
C476 H456 0.950 . S
C476 C475 1.414 . S
C476 C477 1.374 . S
C477 H457 0.950 . S
C477 C473 1.385 . S
C477 C476 1.374 . S
C478 C475 1.499 . S
C478 C479 1.373 . S
C478 C480 1.388 1_565 S
C479 H458 0.950 . S
C479 C478 1.373 . S
C479 C495 1.377 . S
C480 C478 1.388 1_545 S
C480 C481 1.524 . S
C480 C494 1.377 . S
C481 C480 1.524 . S
C481 C482 1.376 1_545 S
C481 C486 1.382 . S
C482 H459 0.950 . S
C482 C481 1.376 1_565 S
C482 C483 1.334 . S
C483 H460 0.950 . S
C483 C482 1.334 . S
C483 C484 1.287 . S
C484 C483 1.287 . S
C484 C485 1.524 1_565 S
C484 H503 0.913 . S
C485 H461 0.950 . S
C485 C484 1.524 1_545 S
C485 C486 1.415 . S
C486 H462 0.950 . S
C486 C481 1.382 . S
C486 C485 1.415 . S
C487 H463 0.951 . S
C487 C488 1.365 . S
C487 C489 1.388 . S
C488 C487 1.365 . S
C488 C492 1.385 1_565 S
C489 H464 0.951 . S
C489 C487 1.388 . S
C489 C490 1.365 . S
C490 C489 1.365 . S
C490 C491 1.415 1_565 S
C490 C493 1.499 1_565 S
C491 H465 0.950 . S
C491 C490 1.415 1_545 S
C491 C492 1.374 . S
C492 H466 0.950 . S
C492 C488 1.385 1_545 S
C492 C491 1.374 . S
C493 C490 1.499 1_545 S
C493 C494 1.374 . S
C493 C495 1.388 1_545 S
C494 H467 0.950 . S
C494 C480 1.377 . S
C494 C493 1.374 . S
C495 C479 1.377 . S
C495 C493 1.388 1_565 S
C495 C496 1.524 . S
C496 C495 1.524 . S
C496 C497 1.397 1_565 S
C496 C501 1.363 . S
C497 H468 0.950 . S
C497 C496 1.397 1_545 S
C497 C498 1.334 . S
C498 H469 0.950 . S
C498 C497 1.334 . S
C498 C499 1.287 . S
C499 C498 1.287 . S
C499 C500 1.524 1_545 S
C499 H502 0.999 . S
C500 H470 0.950 . S
C500 C499 1.524 1_565 S
C500 C501 1.415 . S
C501 H471 0.950 . S
C501 C496 1.363 . S
C501 C500 1.415 . S
H502 C499 0.999 . S
H503 C484 0.913 . S
H504 C522 0.951 . S
H505 C524 0.951 . S
H506 C526 0.950 . S
H507 C527 0.950 . S
H508 C529 0.950 . S
H509 C532 0.950 . S
H510 C533 0.950 . S
H511 C535 0.950 . S
H512 C536 0.950 . S
H513 C537 0.951 . S
H514 C539 0.951 . S
H515 C541 0.950 . S
H516 C542 0.950 . S
H517 C544 0.950 . S
H518 C547 0.950 . S
H519 C548 0.950 . S
H520 C550 0.950 . S
H521 C551 0.950 . S
C522 H504 0.951 . S
C522 C523 1.366 1_556 S
C522 C524 1.388 . S
C523 C522 1.366 1_554 S
C523 C527 1.385 . S
C524 H505 0.951 . S
C524 C522 1.388 . S
C524 C525 1.366 1_556 S
C525 C524 1.366 1_554 S
C525 C526 1.414 . S
C525 C528 1.499 . S
C526 H506 0.950 . S
C526 C525 1.414 . S
C526 C527 1.374 . S
C527 H507 0.950 . S
C527 C523 1.385 . S
C527 C526 1.374 . S
C528 C525 1.499 . S
C528 C529 1.373 . S
C528 C530 1.389 1_554 S
C529 H508 0.950 . S
C529 C528 1.373 . S
C529 C545 1.377 . S
C530 C528 1.389 1_556 S
C530 C531 1.524 . S
C530 C544 1.377 . S
C531 C530 1.524 . S
C531 C532 1.397 1_556 S
C531 C536 1.363 . S
C532 H509 0.950 . S
C532 C531 1.397 1_554 S
C532 C533 1.334 . S
C533 H510 0.950 . S
C533 C532 1.334 . S
C533 C534 1.287 1_554 S
C534 C533 1.287 1_556 S
C534 C535 1.524 . S
C534 H553 0.913 . S
C535 H511 0.950 . S
C535 C534 1.524 . S
C535 C536 1.415 . S
C536 H512 0.950 . S
C536 C531 1.363 . S
C536 C535 1.415 . S
C537 H513 0.951 . S
C537 C538 1.366 . S
C537 C539 1.388 . S
C538 C537 1.366 . S
C538 C542 1.385 1_554 S
C539 H514 0.951 . S
C539 C537 1.388 . S
C539 C540 1.366 . S
C540 C539 1.366 . S
C540 C541 1.414 1_554 S
C540 C543 1.499 . S
C541 H515 0.950 . S
C541 C540 1.414 1_556 S
C541 C542 1.374 . S
C542 H516 0.950 . S
C542 C538 1.385 1_556 S
C542 C541 1.374 . S
C543 C540 1.499 . S
C543 C544 1.373 1_554 S
C543 C545 1.389 . S
C544 H517 0.950 . S
C544 C530 1.377 . S
C544 C543 1.373 1_556 S
C545 C529 1.377 . S
C545 C543 1.389 . S
C545 C546 1.524 . S
C546 C545 1.524 . S
C546 C547 1.397 1_554 S
C546 C551 1.363 . S
C547 H518 0.950 . S
C547 C546 1.397 1_556 S
C547 C548 1.334 . S
C548 H519 0.950 . S
C548 C547 1.334 . S
C548 C549 1.287 1_556 S
C549 C548 1.287 1_554 S
C549 C550 1.524 . S
C549 H552 0.999 . S
C550 H520 0.950 . S
C550 C549 1.524 . S
C550 C551 1.415 . S
C551 H521 0.950 . S
C551 C546 1.363 . S
C551 C550 1.415 . S
H552 C549 0.999 . S
H553 C534 0.913 . S
H554 C572 0.951 . S
H555 C574 0.951 . S
H556 C576 0.950 . S
H557 C577 0.950 . S
H558 C579 0.950 . S
H559 C582 0.950 . S
H560 C583 0.950 . S
H561 C585 0.950 . S
H562 C586 0.950 1_554 S
H563 C587 0.951 . S
H564 C589 0.951 . S
H565 C591 0.950 . S
H566 C592 0.950 . S
H567 C594 0.950 . S
H568 C597 0.950 . S
H569 C598 0.950 . S
H570 C600 0.950 . S
H571 C601 0.950 1_556 S
C572 H554 0.951 . S
C572 C573 1.366 1_554 S
C572 C574 1.388 . S
C573 C572 1.366 1_556 S
C573 C577 1.385 . S
C574 H555 0.951 . S
C574 C572 1.388 . S
C574 C575 1.366 1_554 S
C575 C574 1.366 1_556 S
C575 C576 1.414 . S
C575 C578 1.499 . S
C576 H556 0.950 . S
C576 C575 1.414 . S
C576 C577 1.374 . S
C577 H557 0.950 . S
C577 C573 1.385 . S
C577 C576 1.374 . S
C578 C575 1.499 . S
C578 C579 1.373 1_556 S
C578 C580 1.389 . S
C579 H558 0.950 . S
C579 C578 1.373 1_554 S
C579 C595 1.377 . S
C580 C578 1.389 . S
C580 C581 1.524 . S
C580 C594 1.377 . S
C581 C580 1.524 . S
C581 C582 1.397 . S
C581 C586 1.363 . S
C582 H559 0.950 . S
C582 C581 1.397 . S
C582 C583 1.334 . S
C583 H560 0.950 . S
C583 C582 1.334 . S
C583 C584 1.287 . S
C584 C583 1.287 . S
C584 C585 1.524 . S
C584 H603 0.913 . S
C585 H561 0.950 . S
C585 C584 1.524 . S
C585 C586 1.415 . S
C586 H562 0.950 1_556 S
C586 C581 1.363 . S
C586 C585 1.415 . S
C587 H563 0.951 . S
C587 C588 1.366 1_556 S
C587 C589 1.388 . S
C588 C587 1.366 1_554 S
C588 C592 1.385 . S
C589 H564 0.951 . S
C589 C587 1.388 . S
C589 C590 1.366 1_556 S
C590 C589 1.366 1_554 S
C590 C591 1.414 . S
C590 C593 1.499 . S
C591 H565 0.950 . S
C591 C590 1.414 . S
C591 C592 1.374 . S
C592 H566 0.950 . S
C592 C588 1.385 . S
C592 C591 1.374 . S
C593 C590 1.499 . S
C593 C594 1.373 1_554 S
C593 C595 1.389 . S
C594 H567 0.950 . S
C594 C580 1.377 . S
C594 C593 1.373 1_556 S
C595 C579 1.377 . S
C595 C593 1.389 . S
C595 C596 1.524 . S
C596 C595 1.524 . S
C596 C597 1.397 . S
C596 C601 1.363 . S
C597 H568 0.950 . S
C597 C596 1.397 . S
C597 C598 1.334 . S
C598 H569 0.950 . S
C598 C597 1.334 . S
C598 C599 1.287 . S
C599 C598 1.287 . S
C599 C600 1.524 . S
C599 H602 0.999 . S
C600 H570 0.950 . S
C600 C599 1.524 . S
C600 C601 1.415 . S
C601 H571 0.950 1_554 S
C601 C596 1.363 . S
C601 C600 1.415 . S
H602 C599 0.999 . S
H603 C584 0.913 . S
H604 C622 0.951 . S
H605 C624 0.951 . S
H606 C626 0.950 . S
H607 C627 0.950 . S
H608 C629 0.950 . S
H609 C632 0.950 . S
H610 C633 0.950 . S
H611 C635 0.950 . S
H612 C636 0.950 . S
H613 C637 0.951 . S
H614 C639 0.951 . S
H615 C641 0.950 . S
H616 C642 0.950 . S
H617 C644 0.950 . S
H618 C647 0.950 . S
H619 C648 0.950 . S
H620 C650 0.950 . S
H621 C651 0.950 . S
C622 H604 0.951 . S
C622 C623 1.366 1_554 S
C622 C624 1.388 . S
C623 C622 1.366 1_556 S
C623 C627 1.385 . S
C624 H605 0.951 . S
C624 C622 1.388 . S
C624 C625 1.364 . S
C625 C624 1.364 . S
C625 C626 1.415 1_554 S
C625 C628 1.499 1_554 S
C626 H606 0.950 . S
C626 C625 1.415 1_556 S
C626 C627 1.374 . S
C627 H607 0.950 . S
C627 C623 1.385 . S
C627 C626 1.374 . S
C628 C625 1.499 1_556 S
C628 C629 1.373 . S
C628 C630 1.390 1_556 S
C629 H608 0.950 . S
C629 C628 1.373 . S
C629 C645 1.377 . S
C630 C628 1.390 1_554 S
C630 C631 1.524 . S
C630 C644 1.377 . S
C631 C630 1.524 . S
C631 C632 1.397 . S
C631 C636 1.363 . S
C632 H609 0.950 . S
C632 C631 1.397 . S
C632 C633 1.334 . S
C633 H610 0.950 . S
C633 C632 1.334 . S
C633 C634 1.287 . S
C634 C633 1.287 . S
C634 C635 1.524 . S
C634 H653 0.913 . S
C635 H611 0.950 . S
C635 C634 1.524 . S
C635 C636 1.415 . S
C636 H612 0.950 . S
C636 C631 1.363 . S
C636 C635 1.415 . S
C637 H613 0.951 . S
C637 C638 1.366 1_556 S
C637 C639 1.388 . S
C638 C637 1.366 1_554 S
C638 C642 1.385 . S
C639 H614 0.951 . S
C639 C637 1.388 . S
C639 C640 1.369 . S
C640 C639 1.369 . S
C640 C641 1.410 1_556 S
C640 C643 1.499 . S
C641 H615 0.950 . S
C641 C640 1.410 1_554 S
C641 C642 1.374 . S
C642 H616 0.950 . S
C642 C638 1.385 . S
C642 C641 1.374 . S
C643 C640 1.499 . S
C643 C644 1.372 1_556 S
C643 C645 1.391 . S
C644 H617 0.950 . S
C644 C630 1.377 . S
C644 C643 1.372 1_554 S
C645 C629 1.377 . S
C645 C643 1.391 . S
C645 C646 1.524 . S
C646 C645 1.524 . S
C646 C647 1.397 . S
C646 C651 1.363 . S
C647 H618 0.950 . S
C647 C646 1.397 . S
C647 C648 1.334 . S
C648 H619 0.950 . S
C648 C647 1.334 . S
C648 C649 1.287 . S
C649 C648 1.287 . S
C649 C650 1.524 . S
C649 H652 0.999 . S
C650 H620 0.950 . S
C650 C649 1.524 . S
C650 C651 1.415 . S
C651 H621 0.950 . S
C651 C646 1.363 . S
C651 C650 1.415 . S
H652 C649 0.999 . S
H653 C634 0.913 . S
H654 C672 0.951 . S
H655 C674 0.951 . S
H656 C676 0.950 . S
H657 C677 0.950 . S
H658 C679 0.950 . S
H659 C682 0.950 . S
H660 C683 0.950 . S
H661 C685 0.950 . S
H662 C686 0.950 1_554 S
H663 C687 0.951 . S
H664 C689 0.951 . S
H665 C691 0.950 . S
H666 C692 0.950 . S
H667 C694 0.950 . S
H668 C697 0.950 . S
H669 C698 0.950 . S
H670 C700 0.950 . S
H671 C701 0.950 . S
C672 H654 0.951 . S
C672 C673 1.366 . S
C672 C674 1.388 . S
C673 C672 1.366 . S
C673 C677 1.385 1_554 S
C674 H655 0.951 . S
C674 C672 1.388 . S
C674 C675 1.366 . S
C675 C674 1.366 . S
C675 C676 1.414 1_554 S
C675 C678 1.499 . S
C676 H656 0.950 . S
C676 C675 1.414 1_556 S
C676 C677 1.374 . S
C677 H657 0.950 . S
C677 C673 1.385 1_556 S
C677 C676 1.374 . S
C678 C675 1.499 . S
C678 C679 1.373 . S
C678 C680 1.389 1_554 S
C679 H658 0.950 . S
C679 C678 1.373 . S
C679 C695 1.377 . S
C680 C678 1.389 1_556 S
C680 C681 1.524 . S
C680 C694 1.377 . S
C681 C680 1.524 . S
C681 C682 1.397 . S
C681 C686 1.363 . S
C682 H659 0.950 . S
C682 C681 1.397 . S
C682 C683 1.334 . S
C683 H660 0.950 . S
C683 C682 1.334 . S
C683 C684 1.287 . S
C684 C683 1.287 . S
C684 C685 1.524 . S
C684 H703 0.913 . S
C685 H661 0.950 . S
C685 C684 1.524 . S
C685 C686 1.415 . S
C686 H662 0.950 1_556 S
C686 C681 1.363 . S
C686 C685 1.415 . S
C687 H663 0.951 . S
C687 C688 1.366 1_556 S
C687 C689 1.388 . S
C688 C687 1.366 1_554 S
C688 C692 1.385 . S
C689 H664 0.951 . S
C689 C687 1.388 . S
C689 C690 1.366 1_556 S
C690 C689 1.366 1_554 S
C690 C691 1.414 . S
C690 C693 1.499 . S
C691 H665 0.950 . S
C691 C690 1.414 . S
C691 C692 1.374 . S
C692 H666 0.950 . S
C692 C688 1.385 . S
C692 C691 1.374 . S
C693 C690 1.499 . S
C693 C694 1.373 1_554 S
C693 C695 1.389 . S
C694 H667 0.950 . S
C694 C680 1.377 . S
C694 C693 1.373 1_556 S
C695 C679 1.377 . S
C695 C693 1.389 . S
C695 C696 1.524 . S
C696 C695 1.524 . S
C696 C697 1.397 . S
C696 C701 1.363 . S
C697 H668 0.950 . S
C697 C696 1.397 . S
C697 C698 1.334 . S
C698 H669 0.950 . S
C698 C697 1.334 . S
C698 C699 1.287 . S
C699 C698 1.287 . S
C699 C700 1.524 . S
C699 H702 0.999 . S
C700 H670 0.950 . S
C700 C699 1.524 . S
C700 C701 1.415 . S
C701 H671 0.950 . S
C701 C696 1.363 . S
C701 C700 1.415 . S
H702 C699 0.999 . S
H703 C684 0.913 . S
C138 C55 1.984 . S
C123 C7 1.964 . S
C188 C62 1.116 . S
C173 C34 1.104 . S
C238 C57 1.984 . S
C223 C14 1.969 . S
C288 C63 1.119 1_565 S
C273 C32 1.111 . S
C323 C16 1.959 1_655 S
C338 C56 1.982 . S
C388 C65 1.118 . S
C373 C25 1.107 . S
C423 C8 1.961 . S
C438 C54 1.976 . S
C473 C26 1.102 . S
C488 C64 1.111 1_565 S
C523 C50 1.524 . S
C538 C59 1.544 . S
C573 C43 1.521 . S
C588 C58 1.545 . S
C638 C61 1.541 . S
C623 C52 1.515 1_556 S
C688 C60 1.536 . S
C673 C44 1.518 . S
