# Generated by pormake.
# Topology pyr, (3,6)-cn, num edge types: 1
# Building blocks:
#     Node 0, Type 0, BuildingBlock: ESEHIV_clean_linker_0, # of connection points: 3
#     Node 1, Type 0, BuildingBlock: ESEHIV_clean_linker_0, # of connection points: 3
#     Node 2, Type 0, BuildingBlock: ESEHIV_clean_linker_0, # of connection points: 3
#     Node 3, Type 0, BuildingBlock: ESEHIV_clean_linker_0, # of connection points: 3
#     Node 4, Type 0, BuildingBlock: ESEHIV_clean_linker_0, # of connection points: 3
#     Node 5, Type 0, BuildingBlock: ESEHIV_clean_linker_0, # of connection points: 3
#     Node 6, Type 0, BuildingBlock: ESEHIV_clean_linker_0, # of connection points: 3
#     Node 7, Type 0, BuildingBlock: ESEHIV_clean_linker_0, # of connection points: 3
#     Node 8, Type 1, BuildingBlock: MIDCAF_clean_sbu_0, # of connection points: 6
#     Node 9, Type 1, BuildingBlock: MIDCAF_clean_sbu_0, # of connection points: 6
#     Node 10, Type 1, BuildingBlock: MIDCAF_clean_sbu_0, # of connection points: 6
#     Node 11, Type 1, BuildingBlock: MIDCAF_clean_sbu_0, # of connection points: 6
#     Edge 12, Type (0, 1), BuildingBlock: XUDNAN_clean_linker_2, # of connection points: 2
#     Edge 13, Type (0, 1), BuildingBlock: XUDNAN_clean_linker_2, # of connection points: 2
#     Edge 14, Type (0, 1), BuildingBlock: XUDNAN_clean_linker_2, # of connection points: 2
#     Edge 15, Type (0, 1), BuildingBlock: XUDNAN_clean_linker_2, # of connection points: 2
#     Edge 16, Type (0, 1), BuildingBlock: XUDNAN_clean_linker_2, # of connection points: 2
#     Edge 17, Type (0, 1), BuildingBlock: XUDNAN_clean_linker_2, # of connection points: 2
#     Edge 18, Type (0, 1), BuildingBlock: XUDNAN_clean_linker_2, # of connection points: 2
#     Edge 19, Type (0, 1), BuildingBlock: XUDNAN_clean_linker_2, # of connection points: 2
#     Edge 20, Type (0, 1), BuildingBlock: XUDNAN_clean_linker_2, # of connection points: 2
#     Edge 21, Type (0, 1), BuildingBlock: XUDNAN_clean_linker_2, # of connection points: 2
#     Edge 22, Type (0, 1), BuildingBlock: XUDNAN_clean_linker_2, # of connection points: 2
#     Edge 23, Type (0, 1), BuildingBlock: XUDNAN_clean_linker_2, # of connection points: 2
#     Edge 24, Type (0, 1), BuildingBlock: XUDNAN_clean_linker_2, # of connection points: 2
#     Edge 25, Type (0, 1), BuildingBlock: XUDNAN_clean_linker_2, # of connection points: 2
#     Edge 26, Type (0, 1), BuildingBlock: XUDNAN_clean_linker_2, # of connection points: 2
#     Edge 27, Type (0, 1), BuildingBlock: XUDNAN_clean_linker_2, # of connection points: 2
#     Edge 28, Type (0, 1), BuildingBlock: XUDNAN_clean_linker_2, # of connection points: 2
#     Edge 29, Type (0, 1), BuildingBlock: XUDNAN_clean_linker_2, # of connection points: 2
#     Edge 30, Type (0, 1), BuildingBlock: XUDNAN_clean_linker_2, # of connection points: 2
#     Edge 31, Type (0, 1), BuildingBlock: XUDNAN_clean_linker_2, # of connection points: 2
#     Edge 32, Type (0, 1), BuildingBlock: XUDNAN_clean_linker_2, # of connection points: 2
#     Edge 33, Type (0, 1), BuildingBlock: XUDNAN_clean_linker_2, # of connection points: 2
#     Edge 34, Type (0, 1), BuildingBlock: XUDNAN_clean_linker_2, # of connection points: 2
#     Edge 35, Type (0, 1), BuildingBlock: XUDNAN_clean_linker_2, # of connection points: 2
# Relax obj value: 0.019
# Max RMSD: 0.063
# Mean RMSD: 0.024
data_MOF--net-pry--node1-MIDCAF_clean_sbu_0--node2-ESEHIV_clean_linker_0--edge1-XUDNAN_clean_linker_2
_symmetry_space_group_name_H-M    P1
_symmetry_Int_Tables_number       1
_symmetry_cell_setting            triclinic
loop_
_symmetry_equiv_pos_as_xyz
'x, y, z'
_cell_length_a     33.621304
_cell_length_b     33.665075
_cell_length_c     33.620177
_cell_angle_alpha  89.957934
_cell_angle_beta   89.959624
_cell_angle_gamma 90.597401
loop_
_atom_site_label
_atom_site_type_symbol
_atom_site_fract_x
_atom_site_fract_y
_atom_site_fract_z
_atom_type_partial_charge
H0 H 0.18532 0.27047 0.23552 0.0
H1 H 0.24606 0.15901 0.22294 0.0
H2 H 0.28243 0.25928 0.15336 0.0
C3 C 0.20857 0.25305 0.22225 0.0
C4 C 0.23163 0.26962 0.19122 0.0
C5 C 0.21428 0.21353 0.23535 0.0
C6 C 0.24325 0.19027 0.21599 0.0
C7 C 0.26682 0.20674 0.18556 0.0
C8 C 0.26264 0.24683 0.17563 0.0
H9 H 0.27961 0.88529 0.758 0.0
H10 H 0.36417 0.79135 0.76884 0.0
H11 H 0.26 0.77496 0.69619 0.0
C12 C 0.28832 0.85518 0.75125 0.0
C13 C 0.2648 0.83195 0.72547 0.0
C14 C 0.32403 0.84088 0.76725 0.0
C15 C 0.33599 0.80217 0.75781 0.0
C16 C 0.31323 0.77857 0.73161 0.0
C17 C 0.27755 0.79345 0.71602 0.0
H18 H 0.75544 0.25284 0.8518 0.0
H19 H 0.76008 0.37075 0.80322 0.0
H20 H 0.65642 0.29833 0.7857 0.0
C21 C 0.74146 0.27699 0.83618 0.0
C22 C 0.70281 0.27118 0.82087 0.0
C23 C 0.76177 0.31369 0.83242 0.0
C24 C 0.74484 0.34278 0.80773 0.0
C25 C 0.70762 0.33678 0.78932 0.0
C26 C 0.68641 0.30138 0.79702 0.0
H27 H 0.7616 0.76527 0.35432 0.0
H28 H 0.84234 0.78142 0.2564 0.0
H29 H 0.76211 0.68221 0.25619 0.0
C30 C 0.77223 0.75572 0.32551 0.0
C31 C 0.75691 0.72068 0.30776 0.0
C32 C 0.80207 0.77847 0.30646 0.0
C33 C 0.81778 0.76536 0.27012 0.0
C34 C 0.80415 0.72999 0.25296 0.0
C35 C 0.77303 0.70868 0.27101 0.0
H36 H 0.89936 0.96424 0.85573 0.0
H37 H 0.97864 0.8687 0.88266 0.0
H38 H 0.87663 0.88793 0.95672 0.0
C39 C 0.90723 0.93938 0.87454 0.0
C40 C 0.88367 0.9295 0.90779 0.0
C41 C 0.94121 0.91735 0.86533 0.0
C42 C 0.95239 0.88574 0.8898 0.0
C43 C 0.92923 0.87554 0.92301 0.0
C44 C 0.89484 0.89703 0.93164 0.0
H45 H 0.57742 0.19953 0.3881 0.0
H46 H 0.64899 0.10006 0.35342 0.0
H47 H 0.68114 0.16927 0.45612 0.0
C48 C 0.60276 0.18048 0.39296 0.0
C49 C 0.62823 0.18762 0.42541 0.0
C50 C 0.60955 0.14826 0.36738 0.0
C51 C 0.64293 0.1243 0.37368 0.0
C52 C 0.66902 0.13163 0.40536 0.0
C53 C 0.66102 0.16297 0.43169 0.0
H54 H 0.36116 0.64218 0.07104 0.0
H55 H 0.36819 0.57189 0.17753 0.0
H56 H 0.44144 0.67707 0.16415 0.0
C57 C 0.37402 0.63701 0.10014 0.0
C58 C 0.40235 0.6638 0.11522 0.0
C59 C 0.36199 0.60361 0.12228 0.0
C60 C 0.37818 0.59727 0.16025 0.0
C61 C 0.4072 0.62361 0.17571 0.0
C62 C 0.41916 0.6566 0.15272 0.0
H63 H 0.06351 0.36486 0.6548 0.0
H64 H 0.17111 0.39022 0.58993 0.0
H65 H 0.13031 0.47128 0.68001 0.0
C66 C 0.08887 0.38409 0.64867 0.0
C67 C 0.09369 0.41928 0.67032 0.0
C68 C 0.11643 0.37375 0.6191 0.0
C69 C 0.14903 0.39901 0.61163 0.0
C70 C 0.1546 0.43419 0.63365 0.0
C71 C 0.12649 0.44428 0.6628 0.0
Zn72 Zn 0.97192 0.05831 0.55367 0.0
Zn73 Zn 0.06155 0.97508 0.46148 0.0
Zn74 Zn 0.01618 0.02346 0.50752 0.0
C75 C 0.07871 0.05675 0.44281 0.0
C76 C 0.98049 0.96109 0.44328 0.0
O77 O 0.0231 0.00129 0.57055 0.0
O78 O 0.96932 0.02406 0.60035 0.0
C79 C 0.03289 0.11151 0.53155 0.0
O80 O 0.05429 0.06366 0.47156 0.0
O81 O 0.08662 0.02146 0.43287 0.0
O82 O 0.01459 0.94695 0.437 0.0
O83 O 0.97587 0.99073 0.46703 0.0
O84 O 0.00709 0.10522 0.55815 0.0
O85 O 0.03875 0.0853 0.50437 0.0
O86 O 0.95299 0.01943 0.48613 0.0
O87 O 0.92254 0.06296 0.52437 0.0
C88 C 0.92158 0.03905 0.4956 0.0
O89 O 0.05216 0.98354 0.54558 0.0
O90 O 0.09121 0.94914 0.50547 0.0
C91 C 0.99998 0.00303 0.60124 0.0
C92 C 0.0804 0.95831 0.54023 0.0
Zn93 Zn 0.46145 0.08514 0.94259 0.0
Zn94 Zn 0.57867 0.96742 0.07687 0.0
Zn95 Zn 0.5369 0.00722 0.0294 0.0
C96 C 0.63088 0.00146 0.02016 0.0
C97 C 0.52216 0.91522 0.0408 0.0
O98 O 0.49906 0.04944 0.06001 0.0
O99 O 0.48239 0.06611 0.99975 0.0
C100 C 0.55266 0.06343 0.96335 0.0
O101 O 0.59805 0.01637 0.0078 0.0
O102 O 0.63082 0.97879 0.05017 0.0
O103 O 0.55017 0.91616 0.06589 0.0
O104 O 0.5126 0.94698 0.02195 0.0
O105 O 0.5148 0.06196 0.96697 0.0
O106 O 0.57265 0.04142 0.9869 0.0
O107 O 0.49624 0.972 0.99165 0.0
O108 O 0.48082 0.03081 0.96984 0.0
C109 C 0.47717 0.99307 0.9664 0.0
O110 O 0.52543 0.03419 0.08798 0.0
O111 O 0.5645 0.99784 0.12588 0.0
C112 C 0.47641 0.06959 0.03725 0.0
C113 C 0.54038 0.02617 0.12224 0.0
Zn114 Zn 0.54467 0.58573 0.56289 0.0
Zn115 Zn 0.47082 0.4712 0.48997 0.0
Zn116 Zn 0.51058 0.52415 0.53092 0.0
C117 C 0.53428 0.43212 0.52645 0.0
C118 C 0.49396 0.52649 0.43466 0.0
O119 O 0.46827 0.55443 0.57211 0.0
O120 O 0.49858 0.61085 0.58841 0.0
C121 C 0.57877 0.51368 0.59431 0.0
O122 O 0.5412 0.46676 0.54143 0.0
O123 O 0.50531 0.42646 0.50326 0.0
O124 O 0.47512 0.49395 0.43623 0.0
O125 O 0.50985 0.54108 0.46652 0.0
O126 O 0.57779 0.55111 0.5973 0.0
O127 O 0.55677 0.49599 0.56826 0.0
O128 O 0.5402 0.56345 0.48557 0.0
O129 O 0.57031 0.61268 0.51747 0.0
C130 C 0.56275 0.5948 0.48538 0.0
O131 O 0.44806 0.52325 0.55265 0.0
O132 O 0.41894 0.47641 0.51651 0.0
C133 C 0.46855 0.58822 0.59024 0.0
C134 C 0.41698 0.50249 0.54334 0.0
Zn135 Zn 0.05792 0.564 0.95872 0.0
Zn136 Zn 0.98841 0.4819 0.07031 0.0
Zn137 Zn 0.01913 0.5229 0.0112 0.0
C138 C 0.06745 0.47238 0.08018 0.0
C139 C 0.96243 0.44703 0.99722 0.0
O140 O 1.00035 0.58591 0.01678 0.0
O141 O 0.04238 0.61723 0.97646 0.0
C142 C 0.11627 0.53039 0.00204 0.0
O143 O 0.06557 0.49356 0.04818 0.0
O144 O 0.03613 0.4636 0.09901 0.0
O145 O 0.96086 0.44339 0.03462 0.0
O146 O 0.98277 0.47577 0.98162 0.0
O147 O 0.11325 0.54804 0.96912 0.0
O148 O 0.08471 0.5201 0.02156 0.0
O149 O 0.00252 0.49845 0.95203 0.0
O150 O 0.03079 0.54237 0.91161 0.0
C151 C 0.00921 0.51195 0.91674 0.0
O152 O 0.97952 0.56325 0.04577 0.0
O153 O 0.9572 0.52472 0.09437 0.0
C154 C 0.01451 0.61826 1.00148 0.0
C155 C 0.95821 0.55814 0.07736 0.0
H156 H 0.23312 0.15657 0.2918 0.0
H157 H 0.13512 0.22922 0.25076 0.0
H158 H 0.09304 0.20253 0.30427 0.0
H159 H 0.17218 0.07087 0.31096 0.0
H160 H 0.20042 0.05531 0.35367 0.0
H161 H 0.22436 0.08322 0.31457 0.0
H162 H 0.24775 0.13564 0.36614 0.0
H163 H 0.22344 0.10807 0.40536 0.0
H164 H 0.21153 0.15954 0.39735 0.0
H165 H 0.06031 0.16689 0.36143 0.0
H166 H 0.03757 0.11901 0.41276 0.0
H167 H 0.15425 0.06558 0.4135 0.0
C168 C 0.20282 0.16693 0.29384 0.0
C169 C 0.1882 0.19606 0.26726 0.0
C170 C 0.14806 0.20833 0.27137 0.0
C171 C 0.12358 0.19305 0.30164 0.0
C172 C 0.13916 0.16489 0.32746 0.0
C173 C 0.17763 0.15142 0.32348 0.0
C174 C 0.18603 0.11865 0.35324 0.0
C175 C 0.19634 0.07971 0.33183 0.0
C176 C 0.21916 0.13125 0.38224 0.0
C177 C 0.14614 0.11558 0.37421 0.0
C178 C 0.11974 0.14305 0.35937 0.0
C179 C 0.08081 0.14544 0.37349 0.0
C180 C 0.06824 0.11841 0.40286 0.0
C181 C 0.09442 0.08933 0.41766 0.0
C182 C 0.1339 0.08811 0.40323 0.0
H183 H 0.3647 0.82503 0.8372 0.0
H184 H 0.34204 0.91824 0.75098 0.0
H185 H 0.379 0.96597 0.79245 0.0
H186 H 0.35543 0.88417 0.92396 0.0
H187 H 0.39567 0.86166 0.95089 0.0
H188 H 0.36875 0.83336 0.9141 0.0
H189 H 0.43447 0.81864 0.87698 0.0
H190 H 0.46159 0.84642 0.9141 0.0
H191 H 0.46657 0.8593 0.86225 0.0
H192 H 0.41363 0.00467 0.84402 0.0
H193 H 0.44969 0.03195 0.90121 0.0
H194 H 0.45518 0.91432 0.95368 0.0
C195 C 0.36808 0.85535 0.82685 0.0
C196 C 0.34976 0.86805 0.79115 0.0
C197 C 0.35483 0.90801 0.77866 0.0
C198 C 0.37602 0.93534 0.80188 0.0
C199 C 0.39262 0.92226 0.83734 0.0
C200 C 0.38958 0.88318 0.84965 0.0
C201 C 0.41032 0.87751 0.88942 0.0
C202 C 0.38076 0.86334 0.92148 0.0
C203 C 0.44533 0.84876 0.88543 0.0
C204 C 0.4248 0.91963 0.89755 0.0
C205 C 0.41396 0.9448 0.86708 0.0
C206 C 0.42248 0.98527 0.86804 0.0
C207 C 0.44275 1.00056 0.901 0.0
C208 C 0.4546 0.97556 0.93269 0.0
C209 C 0.44587 0.93438 0.93054 0.0
H210 H 0.66243 0.32864 0.72053 0.0
H211 H 0.71216 0.41749 0.80067 0.0
H212 H 0.68859 0.47028 0.75664 0.0
H213 H 0.68116 0.37988 0.62867 0.0
H214 H 0.63441 0.36695 0.60576 0.0
H215 H 0.65595 0.33429 0.64216 0.0
H216 H 0.59235 0.33682 0.68507 0.0
H217 H 0.56964 0.36852 0.64862 0.0
H218 H 0.57272 0.38426 0.69972 0.0
H219 H 0.66256 0.51344 0.70425 0.0
H220 H 0.62687 0.54641 0.65049 0.0
H221 H 0.58685 0.43179 0.6056 0.0
C222 C 0.66813 0.35919 0.72901 0.0
C223 C 0.69032 0.3686 0.76375 0.0
C224 C 0.69676 0.40912 0.77363 0.0
C225 C 0.6832 0.4395 0.7489 0.0
C226 C 0.66243 0.42917 0.71462 0.0
C227 C 0.65411 0.39017 0.70489 0.0
C228 C 0.62918 0.38784 0.66716 0.0
C229 C 0.65151 0.36592 0.63398 0.0
C230 C 0.58856 0.3682 0.67565 0.0
C231 C 0.62493 0.43172 0.65738 0.0
C232 C 0.645 0.45471 0.68502 0.0
C233 C 0.6464 0.49584 0.68259 0.0
C234 C 0.62594 0.51426 0.65167 0.0
C235 C 0.60363 0.4918 0.62354 0.0
C236 C 0.60361 0.4498 0.6263 0.0
H237 H 0.84459 0.66151 0.25535 0.0
H238 H 0.81398 0.75827 0.1766 0.0
H239 H 0.85124 0.72579 0.12164 0.0
H240 H 0.94458 0.64942 0.2186 0.0
H241 H 0.94338 0.59627 0.22505 0.0
H242 H 0.91408 0.62737 0.257 0.0
H243 H 0.85046 0.58777 0.23742 0.0
H244 H 0.87956 0.55655 0.20546 0.0
H245 H 0.83752 0.58278 0.18562 0.0
H246 H 0.88903 0.6786 0.07434 0.0
H247 H 0.92658 0.62445 0.0417 0.0
H248 H 0.93657 0.56396 0.15475 0.0
C249 C 0.84566 0.67573 0.22644 0.0
C250 C 0.82618 0.7119 0.21971 0.0
C251 C 0.82866 0.73028 0.18193 0.0
C252 C 0.84968 0.71207 0.15073 0.0
C253 C 0.86849 0.67602 0.15832 0.0
C254 C 0.86697 0.65845 0.19551 0.0
C255 C 0.89011 0.62033 0.19678 0.0
C256 C 0.92511 0.62357 0.22609 0.0
C257 C 0.86277 0.58477 0.2069 0.0
C258 C 0.90446 0.61858 0.1543 0.0
C259 C 0.89173 0.65072 0.1323 0.0
C260 C 0.89996 0.65391 0.09167 0.0
C261 C 0.92188 0.6235 0.0734 0.0
C262 C 0.93588 0.59099 0.09583 0.0
C263 C 0.9268 0.58871 0.13675 0.0
H264 H 0.33142 0.15934 0.20405 0.0
H265 H 0.25778 0.19958 0.10639 0.0
H266 H 0.30317 0.16856 0.05839 0.0
H267 H 0.42416 0.17565 0.15738 0.0
H268 H 0.44761 0.1317 0.1765 0.0
H269 H 0.40792 0.15436 0.20396 0.0
H270 H 0.36892 0.08748 0.20372 0.0
H271 H 0.40897 0.06488 0.17654 0.0
H272 H 0.35903 0.0629 0.15708 0.0
H273 H 0.35894 0.14007 0.0207 0.0
H274 H 0.41876 0.10742 0.99492 0.0
H275 H 0.45594 0.0816 0.11576 0.0
C276 C 0.32452 0.16062 0.17262 0.0
C277 C 0.29128 0.18195 0.15879 0.0
C278 C 0.28328 0.18352 0.11745 0.0
C279 C 0.30886 0.16608 0.08997 0.0
C280 C 0.34221 0.14666 0.10423 0.0
C281 C 0.34985 0.143 0.14451 0.0
C282 C 0.3885 0.12105 0.15131 0.0
C283 C 0.41883 0.14729 0.1736 0.0
C284 C 0.38088 0.08173 0.17347 0.0
C285 C 0.40148 0.11381 0.10864 0.0
C286 C 0.37435 0.12909 0.0821 0.0
C287 C 0.38026 0.12752 0.04113 0.0
C288 C 0.41453 0.10911 0.02676 0.0
C289 C 0.44238 0.09219 0.05322 0.0
C290 C 0.43562 0.0947 0.09474 0.0
H291 H 0.23575 0.81878 0.6495 0.0
H292 H 0.21206 0.8853 0.75763 0.0
H293 H 0.16054 0.92287 0.7225 0.0
H294 H 0.22401 0.89362 0.58154 0.0
H295 H 0.19796 0.86475 0.54449 0.0
H296 H 0.23133 0.84072 0.57846 0.0
H297 H 0.17491 0.79288 0.60119 0.0
H298 H 0.14141 0.81632 0.56677 0.0
H299 H 0.1286 0.81295 0.61874 0.0
H300 H 0.12227 0.96185 0.67236 0.0
H301 H 0.08906 0.99043 0.61367 0.0
H302 H 0.12586 0.89074 0.54227 0.0
C303 C 0.21899 0.84024 0.66639 0.0
C304 C 0.22894 0.84951 0.7063 0.0
C305 C 0.20625 0.87841 0.72673 0.0
C306 C 0.17655 0.89974 0.70715 0.0
C307 C 0.16876 0.89092 0.66748 0.0
C308 C 0.18834 0.86101 0.64766 0.0
C309 C 0.17433 0.8578 0.6049 0.0
C310 C 0.20898 0.86464 0.57565 0.0
C311 C 0.15357 0.8176 0.59747 0.0
C312 C 0.14498 0.89163 0.60345 0.0
C313 C 0.14257 0.91057 0.63981 0.0
C314 C 0.12186 0.94585 0.64445 0.0
C315 C 0.10222 0.96149 0.61133 0.0
C316 C 0.10168 0.94116 0.57463 0.0
C317 C 0.12403 0.90603 0.57053 0.0
H318 H 0.82176 0.37181 0.82071 0.0
H319 H 0.78452 0.27861 0.90339 0.0
H320 H 0.83919 0.29668 0.94711 0.0
H321 H 0.92964 0.37193 0.84241 0.0
H322 H 0.93284 0.42536 0.84109 0.0
H323 H 0.89676 0.39969 0.81071 0.0
H324 H 0.84083 0.44168 0.84252 0.0
H325 H 0.87712 0.46712 0.87274 0.0
H326 H 0.83539 0.44217 0.89588 0.0
H327 H 0.89268 0.32775 0.98607 0.0
H328 H 0.93757 0.37393 0.02076 0.0
H329 H 0.93455 0.45397 0.91954 0.0
C330 C 0.82464 0.35476 0.84775 0.0
C331 C 0.79817 0.3228 0.85723 0.0
C332 C 0.80455 0.30187 0.89343 0.0
C333 C 0.83565 0.31222 0.91916 0.0
C334 C 0.86006 0.34427 0.90924 0.0
C335 C 0.8547 0.36566 0.87472 0.0
C336 C 0.88168 0.40223 0.87403 0.0
C337 C 0.91204 0.3996 0.84001 0.0
C338 C 0.85729 0.44056 0.87114 0.0
C339 C 0.90192 0.39862 0.91425 0.0
C340 C 0.88971 0.36422 0.93334 0.0
C341 C 0.90268 0.35465 0.97135 0.0
C342 C 0.9281 0.3813 0.99088 0.0
C343 C 0.93995 0.41765 0.97284 0.0
C344 C 0.92709 0.42606 0.93367 0.0
H345 H 0.69802 0.7441 0.36094 0.0
H346 H 0.74495 0.63923 0.30239 0.0
H347 H 0.69254 0.59865 0.33292 0.0
H348 H 0.68372 0.69456 0.45277 0.0
H349 H 0.63984 0.72191 0.46603 0.0
H350 H 0.6768 0.74425 0.43416 0.0
H351 H 0.62261 0.75692 0.38091 0.0
H352 H 0.58559 0.73401 0.4125 0.0
H353 H 0.59304 0.71584 0.36267 0.0
H354 H 0.63614 0.56805 0.37142 0.0
H355 H 0.5891 0.54827 0.42462 0.0
H356 H 0.5849 0.67046 0.46499 0.0
C357 C 0.6976 0.71268 0.35431 0.0
C358 C 0.72544 0.6957 0.32775 0.0
C359 C 0.72323 0.65404 0.3207 0.0
C360 C 0.69354 0.63035 0.33826 0.0
C361 C 0.66655 0.64821 0.36377 0.0
C362 C 0.66891 0.68823 0.37258 0.0
C363 C 0.63957 0.69905 0.40497 0.0
C364 C 0.66128 0.71592 0.44165 0.0
C365 C 0.60835 0.72818 0.38931 0.0
C366 C 0.62108 0.65867 0.41352 0.0
C367 C 0.63613 0.62997 0.38851 0.0
C368 C 0.6241 0.59026 0.39117 0.0
C369 C 0.5972 0.57932 0.42129 0.0
C370 C 0.5835 0.60783 0.44883 0.0
C371 C 0.59487 0.64811 0.4442 0.0
H372 H 0.19051 0.33471 0.22214 0.0
H373 H 0.244 0.29101 0.11273 0.0
H374 H 0.22063 0.34906 0.07757 0.0
H375 H 0.10294 0.35691 0.17753 0.0
H376 H 0.09203 0.40054 0.20646 0.0
H377 H 0.12293 0.36249 0.22699 0.0
H378 H 0.17848 0.4147 0.23969 0.0
H379 H 0.14808 0.45314 0.21848 0.0
H380 H 0.19717 0.44438 0.19901 0.0
H381 H 0.1821 0.4033 0.04993 0.0
H382 H 0.12598 0.44582 0.03163 0.0
H383 H 0.09131 0.4533 0.15555 0.0
C384 C 0.19808 0.33739 0.191 0.0
C385 C 0.22056 0.30793 0.17121 0.0
C386 C 0.22897 0.31336 0.13002 0.0
C387 C 0.21541 0.34648 0.10924 0.0
C388 C 0.19258 0.37407 0.12937 0.0
C389 C 0.18358 0.36981 0.16927 0.0
C390 C 0.1525 0.39965 0.1819 0.0
C391 C 0.11542 0.37863 0.19921 0.0
C392 C 0.17012 0.42976 0.21153 0.0
C393 C 0.14366 0.41928 0.14227 0.0
C394 C 0.16832 0.40512 0.11273 0.0
C395 C 0.16335 0.41555 0.07293 0.0
C396 C 0.13152 0.43999 0.0628 0.0
C397 C 0.10509 0.4538 0.09229 0.0
C398 C 0.11179 0.44394 0.1326 0.0
H399 H 0.70779 0.22668 0.89018 0.0
H400 H 0.64204 0.23329 0.77895 0.0
H401 H 0.59785 0.1794 0.80231 0.0
H402 H 0.70241 0.11644 0.89645 0.0
H403 H 0.69927 0.11754 0.94993 0.0
H404 H 0.72653 0.15591 0.92384 0.0
H405 H 0.6837 0.20939 0.95841 0.0
H406 H 0.65608 0.17128 0.98424 0.0
H407 H 0.63028 0.20691 0.95395 0.0
H408 H 0.55594 0.12993 0.84146 0.0
H409 H 0.52485 0.08364 0.88997 0.0
H410 H 0.62343 0.1032 0.97084 0.0
C411 C 0.68512 0.21629 0.86978 0.0
C412 C 0.67865 0.23517 0.83258 0.0
C413 C 0.64741 0.22058 0.80799 0.0
C414 C 0.62225 0.18951 0.82081 0.0
C415 C 0.62926 0.1723 0.85783 0.0
C416 C 0.66059 0.18453 0.88149 0.0
C417 C 0.66176 0.16123 0.92009 0.0
C418 C 0.69975 0.13631 0.92272 0.0
C419 C 0.6577 0.18886 0.95629 0.0
C420 C 0.6253 0.13496 0.91511 0.0
C421 C 0.6068 0.1419 0.87907 0.0
C422 C 0.57069 0.1236 0.86932 0.0
C423 C 0.55317 0.09754 0.89706 0.0
C424 C 0.57211 0.08954 0.93374 0.0
C425 C 0.60882 0.10818 0.94259 0.0
H426 H 0.83339 0.78588 0.3814 0.0
H427 H 0.81149 0.85158 0.27285 0.0
H428 H 0.84849 0.90926 0.3001 0.0
H429 H 0.83043 0.87283 0.45127 0.0
H430 H 0.87034 0.85343 0.48106 0.0
H431 H 0.8367 0.81989 0.4558 0.0
H432 H 0.89658 0.78634 0.42138 0.0
H433 H 0.93029 0.81986 0.44624 0.0
H434 H 0.93093 0.81632 0.39275 0.0
H435 H 0.89498 0.9559 0.33486 0.0
H436 H 0.94758 0.9884 0.37523 0.0
H437 H 0.93955 0.89329 0.46163 0.0
C438 C 0.8353 0.81294 0.36403 0.0
C439 C 0.81923 0.81461 0.32526 0.0
C440 C 0.82342 0.84994 0.30272 0.0
C441 C 0.84425 0.88283 0.318 0.0
C442 C 0.86072 0.87993 0.35591 0.0
C443 C 0.85633 0.84598 0.37877 0.0
C444 C 0.88029 0.84913 0.41687 0.0
C445 C 0.85279 0.84881 0.45341 0.0
C446 C 0.91136 0.81595 0.41943 0.0
C447 C 0.89986 0.88951 0.41122 0.0
C448 C 0.88769 0.90703 0.37611 0.0
C449 C 0.90395 0.94298 0.3629 0.0
C450 C 0.93361 0.96131 0.38599 0.0
C451 C 0.94632 0.94389 0.42194 0.0
C452 C 0.92924 0.90766 0.43476 0.0
H453 H 0.32157 0.75483 0.65473 0.0
H454 H 0.34168 0.71674 0.77612 0.0
H455 H 0.37321 0.65536 0.75128 0.0
H456 H 0.30589 0.65369 0.60962 0.0
H457 H 0.3326 0.66774 0.56521 0.0
H458 H 0.3048 0.70438 0.59235 0.0
H459 H 0.3682 0.74855 0.59814 0.0
H460 H 0.39595 0.71224 0.57096 0.0
H461 H 0.41263 0.72792 0.61947 0.0
H462 H 0.40989 0.60302 0.71355 0.0
H463 H 0.45398 0.56772 0.66666 0.0
H464 H 0.41159 0.64081 0.57005 0.0
C465 C 0.33142 0.73287 0.67603 0.0
C466 C 0.32866 0.74004 0.71731 0.0
C467 C 0.34329 0.71151 0.74438 0.0
C468 C 0.36091 0.6765 0.73051 0.0
C469 C 0.36372 0.67056 0.68952 0.0
C470 C 0.34948 0.6981 0.66267 0.0
C471 C 0.36091 0.68758 0.62041 0.0
C472 C 0.32383 0.67776 0.59543 0.0
C473 C 0.38592 0.72104 0.60115 0.0
C474 C 0.38536 0.6508 0.62775 0.0
C475 C 0.38567 0.64077 0.66769 0.0
C476 C 0.4091 0.61001 0.68214 0.0
C477 C 0.43388 0.59 0.65537 0.0
C478 C 0.435 0.60095 0.61482 0.0
C479 C 0.4099 0.63106 0.60072 0.0
H480 H 0.92852 0.88871 0.79101 0.0
H481 H 0.00364 0.96884 0.85878 0.0
H482 H 0.03695 0.99088 0.79663 0.0
H483 H 0.00431 0.8639 0.71163 0.0
H484 H 0.9667 0.86312 0.67345 0.0
H485 H 0.9542 0.84845 0.72357 0.0
H486 H 0.89804 0.90065 0.72505 0.0
H487 H 0.91027 0.91526 0.6751 0.0
H488 H 0.90992 0.95188 0.71419 0.0
H489 H 0.05243 0.01277 0.72773 0.0
H490 H 0.04938 0.03283 0.65715 0.0
H491 H 0.96694 0.93644 0.633 0.0
C492 C 0.95288 0.90996 0.7926 0.0
C493 C 0.96417 0.92688 0.82925 0.0
C494 C 0.99522 0.95538 0.83073 0.0
C495 C 0.01429 0.96784 0.79568 0.0
C496 C 0.00208 0.95114 0.75966 0.0
C497 C 0.97227 0.92255 0.75789 0.0
C498 C 0.96163 0.9126 0.71524 0.0
C499 C 0.97236 0.86945 0.7054 0.0
C500 C 0.91737 0.92061 0.70693 0.0
C501 C 0.9885 0.94158 0.69327 0.0
C502 C 0.01213 0.96303 0.71944 0.0
C503 C 0.0354 0.99512 0.70679 0.0
C504 C 0.03374 0.00616 0.66664 0.0
C505 C 0.00987 0.98457 0.63945 0.0
C506 C 0.98731 0.95171 0.65287 0.0
H507 H 0.57975 0.07628 0.34514 0.0
H508 H 0.58196 0.20043 0.31119 0.0
H509 H 0.55016 0.18305 0.24702 0.0
H510 H 0.61165 0.04089 0.25832 0.0
H511 H 0.58206 0.99592 0.25784 0.0
H512 H 0.59459 0.01898 0.30431 0.0
H513 H 0.51985 0.02282 0.3228 0.0
H514 H 0.50702 0.99942 0.27624 0.0
H515 H 0.48569 0.04657 0.28924 0.0
H516 H 0.53157 0.15055 0.18192 0.0
H517 H 0.52833 0.10654 0.12305 0.0
H518 H 0.53956 0.0038 0.19968 0.0
C519 C 0.57233 0.09994 0.32468 0.0
C520 C 0.58319 0.13965 0.33302 0.0
C521 C 0.57335 0.16986 0.30554 0.0
C522 C 0.55533 0.16021 0.26903 0.0
C523 C 0.54687 0.12034 0.26083 0.0
C524 C 0.55462 0.09076 0.28825 0.0
C525 C 0.54819 0.04988 0.27064 0.0
C526 C 0.58639 0.02501 0.27289 0.0
C527 C 0.51309 0.02842 0.29094 0.0
C528 C 0.53812 0.06087 0.22827 0.0
C529 C 0.53639 0.10162 0.22329 0.0
C530 C 0.53177 0.11863 0.18571 0.0
C531 C 0.5298 0.09343 0.15244 0.0
C532 C 0.53311 0.05181 0.15702 0.0
C533 C 0.5362 0.03549 0.1955 0.0
H534 H 0.4284 0.55267 0.21033 0.0
H535 H 0.42622 0.67975 0.23217 0.0
H536 H 0.45732 0.6693 0.29764 0.0
H537 H 0.40035 0.52461 0.30767 0.0
H538 H 0.43109 0.48107 0.30881 0.0
H539 H 0.41258 0.49927 0.26212 0.0
H540 H 0.48479 0.50341 0.23511 0.0
H541 H 0.50353 0.48573 0.28204 0.0
H542 H 0.52165 0.53209 0.26179 0.0
H543 H 0.48473 0.64468 0.36289 0.0
H544 H 0.49975 0.60729 0.42424 0.0
H545 H 0.48329 0.49658 0.36015 0.0
C546 C 0.4344 0.57836 0.22881 0.0
C547 C 0.4252 0.61709 0.21569 0.0
C548 C 0.43377 0.64983 0.24098 0.0
C549 C 0.45142 0.64422 0.27834 0.0
C550 C 0.46034 0.60569 0.29018 0.0
C551 C 0.45182 0.5733 0.26627 0.0
C552 C 0.4616 0.53477 0.28712 0.0
C553 C 0.42418 0.5084 0.29171 0.0
C554 C 0.49487 0.51271 0.2652 0.0
C555 C 0.47591 0.55049 0.32686 0.0
C556 C 0.47569 0.5915 0.32786 0.0
C557 C 0.48556 0.61256 0.36227 0.0
C558 C 0.4945 0.59108 0.39693 0.0
C559 C 0.49333 0.54904 0.39687 0.0
C560 C 0.48492 0.52871 0.36101 0.0
H561 H 0.08941 0.38724 0.74429 0.0
H562 H 0.03599 0.47506 0.66765 0.0
H563 H 0.99279 0.49668 0.72308 0.0
H564 H 0.99823 0.36673 0.80915 0.0
H565 H 0.02812 0.36315 0.85347 0.0
H566 H 0.0479 0.34738 0.8062 0.0
H567 H 0.1084 0.39483 0.81401 0.0
H568 H 0.08986 0.40983 0.86165 0.0
H569 H 0.10011 0.44672 0.824 0.0
H570 H 0.96577 0.51702 0.78788 0.0
H571 H 0.96292 0.5396 0.85756 0.0
H572 H 0.03313 0.43907 0.89397 0.0
C573 C 0.06752 0.41005 0.73912 0.0
C574 C 0.06524 0.42926 0.70196 0.0
C575 C 0.03753 0.45988 0.69602 0.0
C576 C 0.01275 0.472 0.72719 0.0
C577 C 0.01611 0.45307 0.76398 0.0
C578 C 0.04289 0.42273 0.77012 0.0
C579 C 0.04549 0.41187 0.8138 0.0
C580 C 0.02894 0.36978 0.82108 0.0
C581 C 0.08849 0.41611 0.82925 0.0
C582 C 0.01839 0.44284 0.83162 0.0
C583 C 1.00056 0.4653 0.80219 0.0
C584 C 0.97856 0.499 0.81116 0.0
C585 C 0.97682 0.5115 0.85082 0.0
C586 C 0.99693 0.49037 0.88089 0.0
C587 C 0.01614 0.45457 0.87155 0.0
H588 H 0.85415 0.9482 0.98153 0.0
H589 H 0.82937 0.96127 0.8555 0.0
H590 H 0.76602 0.99382 0.87169 0.0
H591 H 0.76005 0.9171 0.00668 0.0
H592 H 0.75906 0.94123 0.05452 0.0
H593 H 0.80573 0.92704 0.0331 0.0
H594 H 0.83139 0.99972 0.03919 0.0
H595 H 0.78448 0.01419 0.06046 0.0
H596 H 0.80341 0.03934 0.01693 0.0
H597 H 0.70131 0.01703 0.90153 0.0
H598 H 0.63993 0.02242 0.94157 0.0
H599 H 0.7061 0.99071 0.04743 0.0
C600 C 0.83571 0.95824 0.95722 0.0
C601 C 0.84705 0.95222 0.91722 0.0
C602 C 0.82193 0.96617 0.88643 0.0
C603 C 0.78577 0.98471 0.89533 0.0
C604 C 0.7751 0.9892 0.93514 0.0
C605 C 0.79941 0.97624 0.96555 0.0
C606 C 0.77919 0.97966 0.00556 0.0
C607 C 0.7758 0.93884 0.02614 0.0
C608 C 0.80092 0.01005 0.03209 0.0
C609 C 0.739 0.9948 0.99279 0.0
C610 C 0.73747 0.00129 0.95222 0.0
C611 C 0.70236 0.01258 0.93339 0.0
C612 C 0.66763 0.01575 0.95641 0.0
C613 C 0.66828 0.007 0.99761 0.0
C614 C 0.70475 0.99778 0.01603 0.0
H615 H 0.69978 0.09996 0.47365 0.0
H616 H 0.72121 0.11031 0.34685 0.0
H617 H 0.78461 0.07479 0.35456 0.0
H618 H 0.7948 0.12139 0.50329 0.0
H619 H 0.79557 0.08725 0.54461 0.0
H620 H 0.74913 0.10694 0.52773 0.0
H621 H 0.72165 0.03528 0.51822 0.0
H622 H 0.76839 0.01537 0.53478 0.0
H623 H 0.74829 0.00093 0.48718 0.0
H624 H 0.85043 0.04873 0.37767 0.0
H625 H 0.91271 0.03672 0.41487 0.0
H626 H 0.84735 0.04018 0.52562 0.0
C627 C 0.71753 0.09411 0.44744 0.0
C628 C 0.70553 0.10766 0.40967 0.0
C629 C 0.72957 0.09961 0.37603 0.0
C630 C 0.7656 0.0794 0.38009 0.0
C631 C 0.77692 0.06692 0.4179 0.0
C632 C 0.7534 0.07377 0.45095 0.0
C633 C 0.77395 0.06109 0.48876 0.0
C634 C 0.77866 0.09626 0.51776 0.0
C635 C 0.75174 0.02608 0.50838 0.0
C636 C 0.81357 0.04819 0.4721 0.0
C637 C 0.81455 0.05091 0.43108 0.0
C638 C 0.84964 0.0451 0.40965 0.0
C639 C 0.88481 0.03771 0.43084 0.0
C640 C 0.88439 0.03612 0.47278 0.0
C641 C 0.84812 0.04018 0.4934 0.0
H642 H 0.28798 0.58458 0.15116 0.0
H643 H 0.3684 0.56315 0.05304 0.0
H644 H 0.31481 0.52821 0.01671 0.0
H645 H 0.22387 0.48862 0.13656 0.0
H646 H 0.17938 0.51501 0.1495 0.0
H647 H 0.22608 0.52817 0.17265 0.0
H648 H 0.21738 0.60112 0.14947 0.0
H649 H 0.17105 0.58806 0.12617 0.0
H650 H 0.21007 0.61132 0.09732 0.0
H651 H 0.25146 0.50982 0.98543 0.0
H652 H 0.18216 0.50855 0.96139 0.0
H653 H 0.14076 0.54098 0.07889 0.0
C654 C 0.29453 0.57078 0.12285 0.0
C655 C 0.33226 0.57594 0.10495 0.0
C656 C 0.33971 0.55904 0.06724 0.0
C657 C 0.30952 0.53899 0.04654 0.0
C658 C 0.27205 0.53582 0.06408 0.0
C659 C 0.26445 0.55073 0.10166 0.0
C660 C 0.22027 0.5485 0.11107 0.0
C661 C 0.21193 0.51829 0.14443 0.0
C662 C 0.20375 0.5897 0.12159 0.0
C663 C 0.20408 0.53345 0.07172 0.0
C664 C 0.23462 0.52506 0.04555 0.0
C665 C 0.2273 0.51513 0.00597 0.0
C666 C 0.18791 0.5147 0.9925 0.0
C667 C 0.15633 0.52409 0.01849 0.0
C668 C 0.16442 0.53256 0.05882 0.0
H669 H 0.18948 0.45488 0.56311 0.0
H670 H 0.20319 0.46688 0.69076 0.0
H671 H 0.26938 0.49794 0.6807 0.0
H672 H 0.28247 0.42248 0.54499 0.0
H673 H 0.28931 0.44753 0.49804 0.0
H674 H 0.24008 0.43496 0.51481 0.0
H675 H 0.2194 0.5087 0.50855 0.0
H676 H 0.26876 0.52153 0.49156 0.0
H677 H 0.24785 0.54663 0.53392 0.0
H678 H 0.33869 0.51615 0.65712 0.0
H679 H 0.40361 0.51869 0.62218 0.0
H680 H 0.34405 0.49492 0.51048 0.0
C681 C 0.206 0.46495 0.58891 0.0
C682 C 0.19116 0.45859 0.62767 0.0
C683 C 0.2137 0.47204 0.66072 0.0
C684 C 0.25137 0.48967 0.65529 0.0
C685 C 0.26582 0.49408 0.61662 0.0
C686 C 0.24353 0.48244 0.58398 0.0
C687 C 0.26726 0.48577 0.54593 0.0
C688 C 0.26995 0.44529 0.52474 0.0
C689 C 0.24977 0.51756 0.51837 0.0
C690 C 0.30707 0.49894 0.56239 0.0
C691 C 0.30561 0.50455 0.6031 0.0
C692 C 0.33991 0.51298 0.62512 0.0
C693 C 0.37662 0.51474 0.60509 0.0
C694 C 0.37857 0.5079 0.56367 0.0
C695 C 0.34323 0.50087 0.54214 0.0
H696 H 0.8988 0.80066 0.91987 0.0
H697 H 0.98581 0.87417 0.98064 0.0
H698 H 0.00842 0.81562 0.01894 0.0
H699 H 0.87786 0.72958 0.00475 0.0
H700 H 0.87412 0.68789 0.97133 0.0
H701 H 0.85934 0.73658 0.95494 0.0
H702 H 0.90794 0.73211 0.89514 0.0
H703 H 0.92238 0.68346 0.91112 0.0
H704 H 0.95966 0.72175 0.90425 0.0
H705 H 0.02756 0.74832 0.04316 0.0
H706 H 0.04564 0.6773 0.04683 0.0
H707 H 0.94758 0.64727 0.96894 0.0
C708 C 0.92182 0.80436 0.94213 0.0
C709 C 0.94039 0.84157 0.94802 0.0
C710 C 0.97116 0.84569 0.97632 0.0
C711 C 0.98389 0.81274 0.99829 0.0
C712 C 0.96539 0.77606 0.99152 0.0
C713 C 0.93503 0.77169 0.96402 0.0
C714 C 0.92377 0.72841 0.95837 0.0
C715 C 0.88124 0.72015 0.97324 0.0
C716 C 0.92878 0.71571 0.91465 0.0
C717 C 0.95404 0.70895 0.98515 0.0
C718 C 0.9769 0.73695 0.00507 0.0
C719 C 0.00917 0.72611 0.02863 0.0
C720 C 0.01913 0.6858 0.03076 0.0
C721 C 0.99694 0.65707 0.00941 0.0
C722 C 0.9637 0.6687 0.98694 0.0
H723 H 0.47722 0.69375 0.1021 0.0
H724 H 0.35275 0.71612 0.07816 0.0
H725 H 0.37103 0.78006 0.04645 0.0
H726 H 0.50232 0.78864 0.1308 0.0
H727 H 0.55119 0.78919 0.10871 0.0
H728 H 0.52872 0.74286 0.12359 0.0
H729 H 0.53772 0.71546 0.05211 0.0
H730 H 0.5602 0.76191 0.03696 0.0
H731 H 0.51763 0.74248 0.01053 0.0
H732 H 0.402 0.84595 0.02755 0.0
H733 H 0.44313 0.90703 0.02204 0.0
H734 H 0.54748 0.84028 0.05535 0.0
C735 C 0.45389 0.71182 0.08956 0.0
C736 C 0.41361 0.70002 0.09249 0.0
C737 C 0.38387 0.72441 0.07577 0.0
C738 C 0.39397 0.76077 0.05774 0.0
C739 C 0.43397 0.77199 0.05615 0.0
C740 C 0.46349 0.74797 0.07126 0.0
C741 C 0.50384 0.76807 0.06886 0.0
C742 C 0.52259 0.77246 0.11045 0.0
C743 C 0.53147 0.74564 0.04041 0.0
C744 C 0.49224 0.80787 0.05176 0.0
C745 C 0.45191 0.80948 0.04407 0.0
C746 C 0.43382 0.84465 0.03212 0.0
C747 C 0.45746 0.87915 0.02865 0.0
C748 C 0.49869 0.87809 0.03693 0.0
C749 C 0.51621 0.84175 0.04784 0.0
H750 H 0.0997 0.3011 0.65076 0.0
H751 H 0.12328 0.36057 0.53868 0.0
H752 H 0.11247 0.29695 0.5029 0.0
H753 H 0.14523 0.20575 0.62494 0.0
H754 H 0.10778 0.1778 0.65163 0.0
H755 H 0.12163 0.22698 0.66803 0.0
H756 H 0.04793 0.2487 0.66381 0.0
H757 H 0.0339 0.19964 0.64771 0.0
H758 H 0.02117 0.2421 0.61779 0.0
H759 H 0.0918 0.22711 0.47934 0.0
H760 H 0.0622 0.15972 0.47128 0.0
H761 H 0.05455 0.14791 0.59926 0.0
C762 C 0.10283 0.30071 0.6187 0.0
C763 C 0.11209 0.33565 0.59742 0.0
C764 C 0.11638 0.33393 0.55551 0.0
C765 C 0.11035 0.29798 0.535 0.0
C766 C 0.10063 0.26406 0.55695 0.0
C767 C 0.0972 0.26526 0.59796 0.0
C768 C 0.08415 0.22569 0.61477 0.0
C769 C 0.11665 0.20802 0.64141 0.0
C770 C 0.04443 0.22927 0.63732 0.0
C771 C 0.07937 0.20226 0.5768 0.0
C772 C 0.08944 0.22444 0.54363 0.0
C773 C 0.08455 0.20929 0.5052 0.0
C774 C 0.06804 0.1709 0.50076 0.0
C775 C 0.05645 0.14859 0.53452 0.0
C776 C 0.06328 0.16427 0.57283 0.0
H777 H 0.63558 0.26603 0.40737 0.0
H778 H 0.60509 0.18529 0.50313 0.0
H779 H 0.58934 0.24259 0.54662 0.0
H780 H 0.67996 0.34571 0.47229 0.0
H781 H 0.66075 0.38453 0.44099 0.0
H782 H 0.67426 0.33745 0.41961 0.0
H783 H 0.6035 0.32955 0.38967 0.0
H784 H 0.59021 0.37673 0.41034 0.0
H785 H 0.56086 0.33312 0.42197 0.0
H786 H 0.56518 0.30779 0.57428 0.0
H787 H 0.53596 0.37446 0.58331 0.0
H788 H 0.58943 0.41334 0.47293 0.0
C789 C 0.62628 0.26066 0.43777 0.0
C790 C 0.62131 0.22162 0.45214 0.0
C791 C 0.60902 0.21524 0.49187 0.0
C792 C 0.60028 0.24754 0.51673 0.0
C793 C 0.60506 0.28592 0.50159 0.0
C794 C 0.61832 0.29254 0.46314 0.0
C795 C 0.61829 0.33629 0.45294 0.0
C796 C 0.66086 0.35191 0.44606 0.0
C797 C 0.59161 0.34437 0.41662 0.0
C798 C 0.60086 0.35317 0.49078 0.0
C799 C 0.59377 0.32377 0.51878 0.0
C800 C 0.57207 0.33133 0.55338 0.0
C801 C 0.55598 0.36936 0.55863 0.0
C802 C 0.56245 0.39937 0.52991 0.0
C803 C 0.58625 0.39145 0.49641 0.0
loop_
_geom_bond_atom_site_label_1
_geom_bond_atom_site_label_2
_geom_bond_distance
_geom_bond_site_symmetry_2
_ccdc_geom_bond_type
H0 C3 0.931 . S
H1 C6 0.928 . S
H2 C8 0.930 . S
C3 H0 0.931 . S
C3 C4 1.413 . S
C3 C5 1.360 . S
C4 C3 1.413 . S
C4 C8 1.429 . S
C5 C3 1.360 . S
C5 C6 1.372 . S
C6 H1 0.928 . S
C6 C5 1.372 . S
C6 C7 1.404 . S
C7 C6 1.404 . S
C7 C8 1.391 . S
C8 H2 0.930 . S
C8 C4 1.429 . S
C8 C7 1.391 . S
H9 C12 0.931 . S
H10 C15 0.928 . S
H11 C17 0.930 . S
C12 H9 0.931 . S
C12 C13 1.413 . S
C12 C14 1.360 . S
C13 C12 1.413 . S
C13 C17 1.429 . S
C14 C12 1.360 . S
C14 C15 1.372 . S
C15 H10 0.928 . S
C15 C14 1.372 . S
C15 C16 1.404 . S
C16 C15 1.404 . S
C16 C17 1.391 . S
C17 H11 0.930 . S
C17 C13 1.429 . S
C17 C16 1.391 . S
H18 C21 0.931 . S
H19 C24 0.928 . S
H20 C26 0.930 . S
C21 H18 0.931 . S
C21 C22 1.413 . S
C21 C23 1.360 . S
C22 C21 1.413 . S
C22 C26 1.429 . S
C23 C21 1.360 . S
C23 C24 1.372 . S
C24 H19 0.928 . S
C24 C23 1.372 . S
C24 C25 1.404 . S
C25 C24 1.404 . S
C25 C26 1.391 . S
C26 H20 0.930 . S
C26 C22 1.429 . S
C26 C25 1.391 . S
H27 C30 0.931 . S
H28 C33 0.928 . S
H29 C35 0.930 . S
C30 H27 0.931 . S
C30 C31 1.413 . S
C30 C32 1.360 . S
C31 C30 1.413 . S
C31 C35 1.429 . S
C32 C30 1.360 . S
C32 C33 1.372 . S
C33 H28 0.928 . S
C33 C32 1.372 . S
C33 C34 1.404 . S
C34 C33 1.404 . S
C34 C35 1.391 . S
C35 H29 0.930 . S
C35 C31 1.429 . S
C35 C34 1.391 . S
H36 C39 0.931 . S
H37 C42 0.928 . S
H38 C44 0.930 . S
C39 H36 0.931 . S
C39 C40 1.413 . S
C39 C41 1.360 . S
C40 C39 1.413 . S
C40 C44 1.429 . S
C41 C39 1.360 . S
C41 C42 1.372 . S
C42 H37 0.928 . S
C42 C41 1.372 . S
C42 C43 1.404 . S
C43 C42 1.404 . S
C43 C44 1.391 . S
C44 H38 0.930 . S
C44 C40 1.429 . S
C44 C43 1.391 . S
H45 C48 0.931 . S
H46 C51 0.928 . S
H47 C53 0.930 . S
C48 H45 0.931 . S
C48 C49 1.413 . S
C48 C50 1.360 . S
C49 C48 1.413 . S
C49 C53 1.429 . S
C50 C48 1.360 . S
C50 C51 1.372 . S
C51 H46 0.928 . S
C51 C50 1.372 . S
C51 C52 1.404 . S
C52 C51 1.404 . S
C52 C53 1.391 . S
C53 H47 0.930 . S
C53 C49 1.429 . S
C53 C52 1.391 . S
H54 C57 0.931 . S
H55 C60 0.928 . S
H56 C62 0.930 . S
C57 H54 0.931 . S
C57 C58 1.413 . S
C57 C59 1.360 . S
C58 C57 1.413 . S
C58 C62 1.429 . S
C59 C57 1.360 . S
C59 C60 1.372 . S
C60 H55 0.928 . S
C60 C59 1.372 . S
C60 C61 1.404 . S
C61 C60 1.404 . S
C61 C62 1.391 . S
C62 H56 0.930 . S
C62 C58 1.429 . S
C62 C61 1.391 . S
H63 C66 0.931 . S
H64 C69 0.928 . S
H65 C71 0.930 . S
C66 H63 0.931 . S
C66 C67 1.413 . S
C66 C68 1.360 . S
C67 C66 1.413 . S
C67 C71 1.429 . S
C68 C66 1.360 . S
C68 C69 1.372 . S
C69 H64 0.928 . S
C69 C68 1.372 . S
C69 C70 1.404 . S
C70 C69 1.404 . S
C70 C71 1.391 . S
C71 H65 0.930 . S
C71 C67 1.429 . S
C71 C70 1.391 . S
Zn72 O78 1.920 . S
Zn72 O84 1.898 . S
Zn72 O87 1.905 . S
Zn73 O81 1.905 1_565 S
Zn73 O82 1.898 . S
Zn73 O90 1.920 . S
Zn74 O77 2.080 1_455 S
Zn74 O80 2.114 . S
Zn74 O83 2.120 1_445 S
Zn74 O85 2.120 . S
Zn74 O86 2.114 1_455 S
Zn74 O89 2.080 . S
C75 O80 1.166 . S
C75 O81 1.182 . S
C76 O82 1.167 1_655 S
C76 O83 1.299 . S
O77 Zn74 2.080 1_655 S
O77 C91 1.305 . S
O78 Zn72 1.920 . S
O78 C91 1.234 . S
C79 O84 1.167 1_455 S
C79 O85 1.299 . S
O80 Zn74 2.114 . S
O80 C75 1.166 . S
O81 Zn73 1.905 1_545 S
O81 C75 1.182 . S
O82 Zn73 1.898 . S
O82 C76 1.167 1_455 S
O83 Zn74 2.120 1_665 S
O83 C76 1.299 . S
O84 Zn72 1.898 . S
O84 C79 1.167 1_655 S
O85 Zn74 2.120 . S
O85 C79 1.299 . S
O86 Zn74 2.114 1_655 S
O86 C88 1.166 . S
O87 Zn72 1.905 . S
O87 C88 1.182 . S
C88 O86 1.166 . S
C88 O87 1.182 . S
O89 Zn74 2.080 . S
O89 C92 1.305 1_545 S
O90 Zn73 1.920 . S
O90 C92 1.234 . S
C91 O77 1.305 . S
C91 O78 1.234 . S
C92 O89 1.305 1_565 S
C92 O90 1.234 . S
Zn93 O99 1.920 1_556 S
Zn93 O105 1.898 . S
Zn93 O108 1.905 . S
Zn94 O102 1.905 . S
Zn94 O103 1.898 . S
Zn94 O111 1.920 . S
Zn95 O98 2.080 . S
Zn95 O101 2.114 1_545 S
Zn95 O104 2.120 1_545 S
Zn95 O106 2.120 . S
Zn95 O107 2.114 1_544 S
Zn95 O110 2.080 . S
C96 O101 1.166 . S
C96 O102 1.182 . S
C97 O103 1.167 . S
C97 O104 1.299 . S
O98 Zn95 2.080 . S
O98 C112 1.305 . S
O99 Zn93 1.920 1_554 S
O99 C112 1.234 . S
C100 O105 1.167 . S
C100 O106 1.299 1_556 S
O101 Zn95 2.114 1_565 S
O101 C96 1.166 . S
O102 Zn94 1.905 . S
O102 C96 1.182 . S
O103 Zn94 1.898 . S
O103 C97 1.167 . S
O104 Zn95 2.120 1_565 S
O104 C97 1.299 . S
O105 Zn93 1.898 . S
O105 C100 1.167 . S
O106 Zn95 2.120 . S
O106 C100 1.299 1_554 S
O107 Zn95 2.114 1_566 S
O107 C109 1.166 . S
O108 Zn93 1.905 . S
O108 C109 1.182 1_545 S
C109 O107 1.166 . S
C109 O108 1.182 1_565 S
O110 Zn95 2.080 . S
O110 C113 1.305 . S
O111 Zn94 1.920 . S
O111 C113 1.234 1_565 S
C112 O98 1.305 . S
C112 O99 1.234 . S
C113 O110 1.305 . S
C113 O111 1.234 1_545 S
Zn114 O120 1.920 . S
Zn114 O126 1.898 . S
Zn114 O129 1.905 . S
Zn115 O123 1.905 . S
Zn115 O124 1.898 . S
Zn115 O132 1.920 . S
Zn116 O119 2.080 . S
Zn116 O122 2.114 . S
Zn116 O125 2.120 . S
Zn116 O127 2.120 . S
Zn116 O128 2.114 . S
Zn116 O131 2.080 . S
C117 O122 1.166 . S
C117 O123 1.182 . S
C118 O124 1.167 . S
C118 O125 1.299 . S
O119 Zn116 2.080 . S
O119 C133 1.305 . S
O120 Zn114 1.920 . S
O120 C133 1.234 . S
C121 O126 1.167 . S
C121 O127 1.299 . S
O122 Zn116 2.114 . S
O122 C117 1.166 . S
O123 Zn115 1.905 . S
O123 C117 1.182 . S
O124 Zn115 1.898 . S
O124 C118 1.167 . S
O125 Zn116 2.120 . S
O125 C118 1.299 . S
O126 Zn114 1.898 . S
O126 C121 1.167 . S
O127 Zn116 2.120 . S
O127 C121 1.299 . S
O128 Zn116 2.114 . S
O128 C130 1.166 . S
O129 Zn114 1.905 . S
O129 C130 1.182 . S
C130 O128 1.166 . S
C130 O129 1.182 . S
O131 Zn116 2.080 . S
O131 C134 1.305 . S
O132 Zn115 1.920 . S
O132 C134 1.234 . S
C133 O119 1.305 . S
C133 O120 1.234 . S
C134 O131 1.305 . S
C134 O132 1.234 . S
Zn135 O141 1.920 . S
Zn135 O147 1.898 . S
Zn135 O150 1.905 . S
Zn136 O144 1.905 1_655 S
Zn136 O145 1.898 . S
Zn136 O153 1.920 . S
Zn137 O140 2.080 1_554 S
Zn137 O143 2.114 . S
Zn137 O146 2.120 1_454 S
Zn137 O148 2.120 . S
Zn137 O149 2.114 1_554 S
Zn137 O152 2.080 . S
C138 O143 1.166 . S
C138 O144 1.182 . S
C139 O145 1.167 1_556 S
C139 O146 1.299 . S
O140 Zn137 2.080 1_556 S
O140 C154 1.305 . S
O141 Zn135 1.920 . S
O141 C154 1.234 . S
C142 O147 1.167 1_554 S
C142 O148 1.299 . S
O143 Zn137 2.114 . S
O143 C138 1.166 . S
O144 Zn136 1.905 1_455 S
O144 C138 1.182 . S
O145 Zn136 1.898 . S
O145 C139 1.167 1_554 S
O146 Zn137 2.120 1_656 S
O146 C139 1.299 . S
O147 Zn135 1.898 . S
O147 C142 1.167 1_556 S
O148 Zn137 2.120 . S
O148 C142 1.299 . S
O149 Zn137 2.114 1_556 S
O149 C151 1.166 . S
O150 Zn135 1.905 . S
O150 C151 1.182 . S
C151 O149 1.166 . S
C151 O150 1.182 . S
O152 Zn137 2.080 . S
O152 C155 1.305 1_455 S
O153 Zn136 1.920 . S
O153 C155 1.234 . S
C154 O140 1.305 . S
C154 O141 1.234 . S
C155 O152 1.305 1_655 S
C155 O153 1.234 . S
H156 C168 0.930 . S
H157 C170 0.930 . S
H158 C171 0.930 . S
H159 C175 0.959 . S
H160 C175 0.959 . S
H161 C175 0.961 . S
H162 C176 0.960 . S
H163 C176 0.961 . S
H164 C176 0.959 . S
H165 C179 0.929 . S
H166 C180 0.931 . S
H167 C182 0.930 . S
C168 H156 0.930 . S
C168 C169 1.399 . S
C168 C173 1.399 . S
C169 C168 1.399 . S
C169 C170 1.376 . S
C170 H157 0.930 . S
C170 C169 1.376 . S
C170 C171 1.388 . S
C171 H158 0.930 . S
C171 C170 1.388 . S
C171 C172 1.390 . S
C172 C171 1.390 . S
C172 C173 1.394 . S
C172 C178 1.465 . S
C173 C168 1.399 . S
C173 C172 1.394 . S
C173 C174 1.516 . S
C174 C173 1.516 . S
C174 C175 1.502 . S
C174 C176 1.561 . S
C174 C177 1.526 . S
C175 H159 0.959 . S
C175 H160 0.959 . S
C175 H161 0.961 . S
C175 C174 1.502 . S
C176 H162 0.960 . S
C176 H163 0.961 . S
C176 H164 0.959 . S
C176 C174 1.561 . S
C177 C174 1.526 . S
C177 C178 1.396 . S
C177 C182 1.390 . S
C178 C172 1.465 . S
C178 C177 1.396 . S
C178 C179 1.399 . S
C179 H165 0.929 . S
C179 C178 1.399 . S
C179 C180 1.385 . S
C180 H166 0.931 . S
C180 C179 1.385 . S
C180 C181 1.389 . S
C181 C180 1.389 . S
C181 C182 1.387 . S
C182 H167 0.930 . S
C182 C177 1.390 . S
C182 C181 1.387 . S
H183 C195 0.930 . S
H184 C197 0.930 . S
H185 C198 0.930 . S
H186 C202 0.959 . S
H187 C202 0.959 . S
H188 C202 0.961 . S
H189 C203 0.960 . S
H190 C203 0.961 . S
H191 C203 0.959 . S
H192 C206 0.929 1_545 S
H193 C207 0.931 1_545 S
H194 C209 0.930 . S
C195 H183 0.930 . S
C195 C196 1.399 . S
C195 C200 1.399 . S
C196 C195 1.399 . S
C196 C197 1.376 . S
C197 H184 0.930 . S
C197 C196 1.376 . S
C197 C198 1.388 . S
C198 H185 0.930 . S
C198 C197 1.388 . S
C198 C199 1.390 . S
C199 C198 1.390 . S
C199 C200 1.394 . S
C199 C205 1.465 . S
C200 C195 1.399 . S
C200 C199 1.394 . S
C200 C201 1.516 . S
C201 C200 1.516 . S
C201 C202 1.502 . S
C201 C203 1.561 . S
C201 C204 1.526 . S
C202 H186 0.959 . S
C202 H187 0.959 . S
C202 H188 0.961 . S
C202 C201 1.502 . S
C203 H189 0.960 . S
C203 H190 0.961 . S
C203 H191 0.959 . S
C203 C201 1.561 . S
C204 C201 1.526 . S
C204 C205 1.396 . S
C204 C209 1.390 . S
C205 C199 1.465 . S
C205 C204 1.396 . S
C205 C206 1.399 . S
C206 H192 0.929 1_565 S
C206 C205 1.399 . S
C206 C207 1.385 . S
C207 H193 0.931 1_565 S
C207 C206 1.385 . S
C207 C208 1.389 . S
C208 C207 1.389 . S
C208 C209 1.387 . S
C209 H194 0.930 . S
C209 C204 1.390 . S
C209 C208 1.387 . S
H210 C222 0.930 . S
H211 C224 0.930 . S
H212 C225 0.930 . S
H213 C229 0.959 . S
H214 C229 0.959 . S
H215 C229 0.961 . S
H216 C230 0.960 . S
H217 C230 0.961 . S
H218 C230 0.959 . S
H219 C233 0.929 . S
H220 C234 0.931 . S
H221 C236 0.930 . S
C222 H210 0.930 . S
C222 C223 1.399 . S
C222 C227 1.399 . S
C223 C222 1.399 . S
C223 C224 1.376 . S
C224 H211 0.930 . S
C224 C223 1.376 . S
C224 C225 1.388 . S
C225 H212 0.930 . S
C225 C224 1.388 . S
C225 C226 1.390 . S
C226 C225 1.390 . S
C226 C227 1.394 . S
C226 C232 1.465 . S
C227 C222 1.399 . S
C227 C226 1.394 . S
C227 C228 1.516 . S
C228 C227 1.516 . S
C228 C229 1.502 . S
C228 C230 1.561 . S
C228 C231 1.526 . S
C229 H213 0.959 . S
C229 H214 0.959 . S
C229 H215 0.961 . S
C229 C228 1.502 . S
C230 H216 0.960 . S
C230 H217 0.961 . S
C230 H218 0.959 . S
C230 C228 1.561 . S
C231 C228 1.526 . S
C231 C232 1.396 . S
C231 C236 1.390 . S
C232 C226 1.465 . S
C232 C231 1.396 . S
C232 C233 1.399 . S
C233 H219 0.929 . S
C233 C232 1.399 . S
C233 C234 1.385 . S
C234 H220 0.931 . S
C234 C233 1.385 . S
C234 C235 1.389 . S
C235 C234 1.389 . S
C235 C236 1.387 . S
C236 H221 0.930 . S
C236 C231 1.390 . S
C236 C235 1.387 . S
H237 C249 0.930 . S
H238 C251 0.930 . S
H239 C252 0.930 . S
H240 C256 0.959 . S
H241 C256 0.959 . S
H242 C256 0.961 . S
H243 C257 0.960 . S
H244 C257 0.961 . S
H245 C257 0.959 . S
H246 C260 0.929 . S
H247 C261 0.931 . S
H248 C263 0.930 . S
C249 H237 0.930 . S
C249 C250 1.399 . S
C249 C254 1.399 . S
C250 C249 1.399 . S
C250 C251 1.376 . S
C251 H238 0.930 . S
C251 C250 1.376 . S
C251 C252 1.388 . S
C252 H239 0.930 . S
C252 C251 1.388 . S
C252 C253 1.390 . S
C253 C252 1.390 . S
C253 C254 1.394 . S
C253 C259 1.465 . S
C254 C249 1.399 . S
C254 C253 1.394 . S
C254 C255 1.516 . S
C255 C254 1.516 . S
C255 C256 1.502 . S
C255 C257 1.561 . S
C255 C258 1.526 . S
C256 H240 0.959 . S
C256 H241 0.959 . S
C256 H242 0.961 . S
C256 C255 1.502 . S
C257 H243 0.960 . S
C257 H244 0.961 . S
C257 H245 0.959 . S
C257 C255 1.561 . S
C258 C255 1.526 . S
C258 C259 1.396 . S
C258 C263 1.390 . S
C259 C253 1.465 . S
C259 C258 1.396 . S
C259 C260 1.399 . S
C260 H246 0.929 . S
C260 C259 1.399 . S
C260 C261 1.385 . S
C261 H247 0.931 . S
C261 C260 1.385 . S
C261 C262 1.389 . S
C262 C261 1.389 . S
C262 C263 1.387 . S
C263 H248 0.930 . S
C263 C258 1.390 . S
C263 C262 1.387 . S
H264 C276 0.930 . S
H265 C278 0.930 . S
H266 C279 0.930 . S
H267 C283 0.959 . S
H268 C283 0.959 . S
H269 C283 0.961 . S
H270 C284 0.960 . S
H271 C284 0.961 . S
H272 C284 0.959 . S
H273 C287 0.929 . S
H274 C288 0.931 . S
H275 C290 0.930 . S
C276 H264 0.930 . S
C276 C277 1.399 . S
C276 C281 1.399 . S
C277 C276 1.399 . S
C277 C278 1.376 . S
C278 H265 0.930 . S
C278 C277 1.376 . S
C278 C279 1.388 . S
C279 H266 0.930 . S
C279 C278 1.388 . S
C279 C280 1.390 . S
C280 C279 1.390 . S
C280 C281 1.394 . S
C280 C286 1.465 . S
C281 C276 1.399 . S
C281 C280 1.394 . S
C281 C282 1.516 . S
C282 C281 1.516 . S
C282 C283 1.502 . S
C282 C284 1.561 . S
C282 C285 1.526 . S
C283 H267 0.959 . S
C283 H268 0.959 . S
C283 H269 0.961 . S
C283 C282 1.502 . S
C284 H270 0.960 . S
C284 H271 0.961 . S
C284 H272 0.959 . S
C284 C282 1.561 . S
C285 C282 1.526 . S
C285 C286 1.396 . S
C285 C290 1.390 . S
C286 C280 1.465 . S
C286 C285 1.396 . S
C286 C287 1.399 . S
C287 H273 0.929 . S
C287 C286 1.399 . S
C287 C288 1.385 . S
C288 H274 0.931 . S
C288 C287 1.385 . S
C288 C289 1.389 . S
C289 C288 1.389 . S
C289 C290 1.387 . S
C290 H275 0.930 . S
C290 C285 1.390 . S
C290 C289 1.387 . S
H291 C303 0.930 . S
H292 C305 0.930 . S
H293 C306 0.930 . S
H294 C310 0.959 . S
H295 C310 0.959 . S
H296 C310 0.961 . S
H297 C311 0.960 . S
H298 C311 0.961 . S
H299 C311 0.959 . S
H300 C314 0.929 . S
H301 C315 0.931 1_545 S
H302 C317 0.930 . S
C303 H291 0.930 . S
C303 C304 1.399 . S
C303 C308 1.399 . S
C304 C303 1.399 . S
C304 C305 1.376 . S
C305 H292 0.930 . S
C305 C304 1.376 . S
C305 C306 1.388 . S
C306 H293 0.930 . S
C306 C305 1.388 . S
C306 C307 1.390 . S
C307 C306 1.390 . S
C307 C308 1.394 . S
C307 C313 1.465 . S
C308 C303 1.399 . S
C308 C307 1.394 . S
C308 C309 1.516 . S
C309 C308 1.516 . S
C309 C310 1.502 . S
C309 C311 1.561 . S
C309 C312 1.526 . S
C310 H294 0.959 . S
C310 H295 0.959 . S
C310 H296 0.961 . S
C310 C309 1.502 . S
C311 H297 0.960 . S
C311 H298 0.961 . S
C311 H299 0.959 . S
C311 C309 1.561 . S
C312 C309 1.526 . S
C312 C313 1.396 . S
C312 C317 1.390 . S
C313 C307 1.465 . S
C313 C312 1.396 . S
C313 C314 1.399 . S
C314 H300 0.929 . S
C314 C313 1.399 . S
C314 C315 1.385 . S
C315 H301 0.931 1_565 S
C315 C314 1.385 . S
C315 C316 1.389 . S
C316 C315 1.389 . S
C316 C317 1.387 . S
C317 H302 0.930 . S
C317 C312 1.390 . S
C317 C316 1.387 . S
H318 C330 0.930 . S
H319 C332 0.930 . S
H320 C333 0.930 . S
H321 C337 0.959 . S
H322 C337 0.959 . S
H323 C337 0.961 . S
H324 C338 0.960 . S
H325 C338 0.961 . S
H326 C338 0.959 . S
H327 C341 0.929 1_554 S
H328 C342 0.931 1_554 S
H329 C344 0.930 . S
C330 H318 0.930 . S
C330 C331 1.399 . S
C330 C335 1.399 . S
C331 C330 1.399 . S
C331 C332 1.376 . S
C332 H319 0.930 . S
C332 C331 1.376 . S
C332 C333 1.388 . S
C333 H320 0.930 . S
C333 C332 1.388 . S
C333 C334 1.390 . S
C334 C333 1.390 . S
C334 C335 1.394 . S
C334 C340 1.465 . S
C335 C330 1.399 . S
C335 C334 1.394 . S
C335 C336 1.516 . S
C336 C335 1.516 . S
C336 C337 1.502 . S
C336 C338 1.561 . S
C336 C339 1.526 . S
C337 H321 0.959 . S
C337 H322 0.959 . S
C337 H323 0.961 . S
C337 C336 1.502 . S
C338 H324 0.960 . S
C338 H325 0.961 . S
C338 H326 0.959 . S
C338 C336 1.561 . S
C339 C336 1.526 . S
C339 C340 1.396 . S
C339 C344 1.390 . S
C340 C334 1.465 . S
C340 C339 1.396 . S
C340 C341 1.399 . S
C341 H327 0.929 1_556 S
C341 C340 1.399 . S
C341 C342 1.385 . S
C342 H328 0.931 1_556 S
C342 C341 1.385 . S
C342 C343 1.389 . S
C343 C342 1.389 . S
C343 C344 1.387 . S
C344 H329 0.930 . S
C344 C339 1.390 . S
C344 C343 1.387 . S
H345 C357 0.930 . S
H346 C359 0.930 . S
H347 C360 0.930 . S
H348 C364 0.959 . S
H349 C364 0.959 . S
H350 C364 0.961 . S
H351 C365 0.960 . S
H352 C365 0.961 . S
H353 C365 0.959 . S
H354 C368 0.929 . S
H355 C369 0.931 . S
H356 C371 0.930 . S
C357 H345 0.930 . S
C357 C358 1.399 . S
C357 C362 1.399 . S
C358 C357 1.399 . S
C358 C359 1.376 . S
C359 H346 0.930 . S
C359 C358 1.376 . S
C359 C360 1.388 . S
C360 H347 0.930 . S
C360 C359 1.388 . S
C360 C361 1.390 . S
C361 C360 1.390 . S
C361 C362 1.394 . S
C361 C367 1.465 . S
C362 C357 1.399 . S
C362 C361 1.394 . S
C362 C363 1.516 . S
C363 C362 1.516 . S
C363 C364 1.502 . S
C363 C365 1.561 . S
C363 C366 1.526 . S
C364 H348 0.959 . S
C364 H349 0.959 . S
C364 H350 0.961 . S
C364 C363 1.502 . S
C365 H351 0.960 . S
C365 H352 0.961 . S
C365 H353 0.959 . S
C365 C363 1.561 . S
C366 C363 1.526 . S
C366 C367 1.396 . S
C366 C371 1.390 . S
C367 C361 1.465 . S
C367 C366 1.396 . S
C367 C368 1.399 . S
C368 H354 0.929 . S
C368 C367 1.399 . S
C368 C369 1.385 . S
C369 H355 0.931 . S
C369 C368 1.385 . S
C369 C370 1.389 . S
C370 C369 1.389 . S
C370 C371 1.387 . S
C371 H356 0.930 . S
C371 C366 1.390 . S
C371 C370 1.387 . S
H372 C384 0.930 . S
H373 C386 0.930 . S
H374 C387 0.930 . S
H375 C391 0.959 . S
H376 C391 0.959 . S
H377 C391 0.961 . S
H378 C392 0.960 . S
H379 C392 0.961 . S
H380 C392 0.959 . S
H381 C395 0.929 . S
H382 C396 0.931 . S
H383 C398 0.930 . S
C384 H372 0.930 . S
C384 C385 1.399 . S
C384 C389 1.399 . S
C385 C384 1.399 . S
C385 C386 1.376 . S
C386 H373 0.930 . S
C386 C385 1.376 . S
C386 C387 1.388 . S
C387 H374 0.930 . S
C387 C386 1.388 . S
C387 C388 1.390 . S
C388 C387 1.390 . S
C388 C389 1.394 . S
C388 C394 1.465 . S
C389 C384 1.399 . S
C389 C388 1.394 . S
C389 C390 1.516 . S
C390 C389 1.516 . S
C390 C391 1.502 . S
C390 C392 1.561 . S
C390 C393 1.526 . S
C391 H375 0.959 . S
C391 H376 0.959 . S
C391 H377 0.961 . S
C391 C390 1.502 . S
C392 H378 0.960 . S
C392 H379 0.961 . S
C392 H380 0.959 . S
C392 C390 1.561 . S
C393 C390 1.526 . S
C393 C394 1.396 . S
C393 C398 1.390 . S
C394 C388 1.465 . S
C394 C393 1.396 . S
C394 C395 1.399 . S
C395 H381 0.929 . S
C395 C394 1.399 . S
C395 C396 1.385 . S
C396 H382 0.931 . S
C396 C395 1.385 . S
C396 C397 1.389 . S
C397 C396 1.389 . S
C397 C398 1.387 . S
C398 H383 0.930 . S
C398 C393 1.390 . S
C398 C397 1.387 . S
H399 C411 0.930 . S
H400 C413 0.930 . S
H401 C414 0.930 . S
H402 C418 0.959 . S
H403 C418 0.959 . S
H404 C418 0.961 . S
H405 C419 0.960 . S
H406 C419 0.961 1_554 S
H407 C419 0.959 . S
H408 C422 0.929 . S
H409 C423 0.931 . S
H410 C425 0.930 . S
C411 H399 0.930 . S
C411 C412 1.399 . S
C411 C416 1.399 . S
C412 C411 1.399 . S
C412 C413 1.376 . S
C413 H400 0.930 . S
C413 C412 1.376 . S
C413 C414 1.388 . S
C414 H401 0.930 . S
C414 C413 1.388 . S
C414 C415 1.390 . S
C415 C414 1.390 . S
C415 C416 1.394 . S
C415 C421 1.465 . S
C416 C411 1.399 . S
C416 C415 1.394 . S
C416 C417 1.516 . S
C417 C416 1.516 . S
C417 C418 1.502 . S
C417 C419 1.561 . S
C417 C420 1.526 . S
C418 H402 0.959 . S
C418 H403 0.959 . S
C418 H404 0.961 . S
C418 C417 1.502 . S
C419 H405 0.960 . S
C419 H406 0.961 1_556 S
C419 H407 0.959 . S
C419 C417 1.561 . S
C420 C417 1.526 . S
C420 C421 1.396 . S
C420 C425 1.390 . S
C421 C415 1.465 . S
C421 C420 1.396 . S
C421 C422 1.399 . S
C422 H408 0.929 . S
C422 C421 1.399 . S
C422 C423 1.385 . S
C423 H409 0.931 . S
C423 C422 1.385 . S
C423 C424 1.389 . S
C424 C423 1.389 . S
C424 C425 1.387 . S
C425 H410 0.930 . S
C425 C420 1.390 . S
C425 C424 1.387 . S
H426 C438 0.930 . S
H427 C440 0.930 . S
H428 C441 0.930 . S
H429 C445 0.959 . S
H430 C445 0.959 . S
H431 C445 0.961 . S
H432 C446 0.960 . S
H433 C446 0.961 . S
H434 C446 0.959 . S
H435 C449 0.929 . S
H436 C450 0.931 . S
H437 C452 0.930 . S
C438 H426 0.930 . S
C438 C439 1.399 . S
C438 C443 1.399 . S
C439 C438 1.399 . S
C439 C440 1.376 . S
C440 H427 0.930 . S
C440 C439 1.376 . S
C440 C441 1.388 . S
C441 H428 0.930 . S
C441 C440 1.388 . S
C441 C442 1.390 . S
C442 C441 1.390 . S
C442 C443 1.394 . S
C442 C448 1.465 . S
C443 C438 1.399 . S
C443 C442 1.394 . S
C443 C444 1.516 . S
C444 C443 1.516 . S
C444 C445 1.502 . S
C444 C446 1.561 . S
C444 C447 1.526 . S
C445 H429 0.959 . S
C445 H430 0.959 . S
C445 H431 0.961 . S
C445 C444 1.502 . S
C446 H432 0.960 . S
C446 H433 0.961 . S
C446 H434 0.959 . S
C446 C444 1.561 . S
C447 C444 1.526 . S
C447 C448 1.396 . S
C447 C452 1.390 . S
C448 C442 1.465 . S
C448 C447 1.396 . S
C448 C449 1.399 . S
C449 H435 0.929 . S
C449 C448 1.399 . S
C449 C450 1.385 . S
C450 H436 0.931 . S
C450 C449 1.385 . S
C450 C451 1.389 . S
C451 C450 1.389 . S
C451 C452 1.387 . S
C452 H437 0.930 . S
C452 C447 1.390 . S
C452 C451 1.387 . S
H453 C465 0.930 . S
H454 C467 0.930 . S
H455 C468 0.930 . S
H456 C472 0.959 . S
H457 C472 0.959 . S
H458 C472 0.961 . S
H459 C473 0.960 . S
H460 C473 0.961 . S
H461 C473 0.959 . S
H462 C476 0.929 . S
H463 C477 0.931 . S
H464 C479 0.930 . S
C465 H453 0.930 . S
C465 C466 1.399 . S
C465 C470 1.399 . S
C466 C465 1.399 . S
C466 C467 1.376 . S
C467 H454 0.930 . S
C467 C466 1.376 . S
C467 C468 1.388 . S
C468 H455 0.930 . S
C468 C467 1.388 . S
C468 C469 1.390 . S
C469 C468 1.390 . S
C469 C470 1.394 . S
C469 C475 1.465 . S
C470 C465 1.399 . S
C470 C469 1.394 . S
C470 C471 1.516 . S
C471 C470 1.516 . S
C471 C472 1.502 . S
C471 C473 1.561 . S
C471 C474 1.526 . S
C472 H456 0.959 . S
C472 H457 0.959 . S
C472 H458 0.961 . S
C472 C471 1.502 . S
C473 H459 0.960 . S
C473 H460 0.961 . S
C473 H461 0.959 . S
C473 C471 1.561 . S
C474 C471 1.526 . S
C474 C475 1.396 . S
C474 C479 1.390 . S
C475 C469 1.465 . S
C475 C474 1.396 . S
C475 C476 1.399 . S
C476 H462 0.929 . S
C476 C475 1.399 . S
C476 C477 1.385 . S
C477 H463 0.931 . S
C477 C476 1.385 . S
C477 C478 1.389 . S
C478 C477 1.389 . S
C478 C479 1.387 . S
C479 H464 0.930 . S
C479 C474 1.390 . S
C479 C478 1.387 . S
H480 C492 0.930 . S
H481 C494 0.930 . S
H482 C495 0.930 . S
H483 C499 0.959 . S
H484 C499 0.959 . S
H485 C499 0.961 . S
H486 C500 0.960 . S
H487 C500 0.961 . S
H488 C500 0.959 . S
H489 C503 0.929 . S
H490 C504 0.931 . S
H491 C506 0.930 . S
C492 H480 0.930 . S
C492 C493 1.399 . S
C492 C497 1.399 . S
C493 C492 1.399 . S
C493 C494 1.376 1_565 S
C494 H481 0.930 . S
C494 C493 1.376 1_545 S
C494 C495 1.388 . S
C495 H482 0.930 . S
C495 C494 1.388 . S
C495 C496 1.390 . S
C496 C495 1.390 . S
C496 C497 1.394 1_545 S
C496 C502 1.465 . S
C497 C492 1.399 . S
C497 C496 1.394 1_565 S
C497 C498 1.516 . S
C498 C497 1.516 . S
C498 C499 1.502 1_655 S
C498 C500 1.561 . S
C498 C501 1.526 . S
C499 H483 0.959 . S
C499 H484 0.959 . S
C499 H485 0.961 . S
C499 C498 1.502 1_455 S
C500 H486 0.960 . S
C500 H487 0.961 . S
C500 H488 0.959 . S
C500 C498 1.561 . S
C501 C498 1.526 . S
C501 C502 1.396 1_565 S
C501 C506 1.390 . S
C502 C496 1.465 . S
C502 C501 1.396 1_545 S
C502 C503 1.399 . S
C503 H489 0.929 . S
C503 C502 1.399 . S
C503 C504 1.385 . S
C504 H490 0.931 . S
C504 C503 1.385 . S
C504 C505 1.389 . S
C505 C504 1.389 . S
C505 C506 1.387 1_545 S
C506 H491 0.930 . S
C506 C501 1.390 . S
C506 C505 1.387 1_565 S
H507 C519 0.930 . S
H508 C521 0.930 . S
H509 C522 0.930 . S
H510 C526 0.958 1_545 S
H511 C526 0.961 . S
H512 C526 0.961 . S
H513 C527 0.960 . S
H514 C527 0.961 . S
H515 C527 0.959 . S
H516 C530 0.929 . S
H517 C531 0.931 . S
H518 C533 0.930 1_565 S
C519 H507 0.930 . S
C519 C520 1.399 . S
C519 C524 1.399 . S
C520 C519 1.399 . S
C520 C521 1.376 . S
C521 H508 0.930 . S
C521 C520 1.376 . S
C521 C522 1.388 . S
C522 H509 0.930 . S
C522 C521 1.388 . S
C522 C523 1.390 . S
C523 C522 1.390 . S
C523 C524 1.394 . S
C523 C529 1.465 . S
C524 C519 1.399 . S
C524 C523 1.394 . S
C524 C525 1.516 . S
C525 C524 1.516 . S
C525 C526 1.501 1_545 S
C525 C527 1.561 1_545 S
C525 C528 1.526 . S
C526 H510 0.958 1_565 S
C526 H511 0.961 . S
C526 H512 0.961 . S
C526 C525 1.501 1_565 S
C527 H513 0.960 . S
C527 H514 0.961 . S
C527 H515 0.959 . S
C527 C525 1.561 1_565 S
C528 C525 1.526 . S
C528 C529 1.396 . S
C528 C533 1.390 . S
C529 C523 1.465 . S
C529 C528 1.396 . S
C529 C530 1.399 . S
C530 H516 0.929 . S
C530 C529 1.399 . S
C530 C531 1.385 . S
C531 H517 0.931 . S
C531 C530 1.385 . S
C531 C532 1.389 . S
C532 C531 1.389 . S
C532 C533 1.387 . S
C533 H518 0.930 1_545 S
C533 C528 1.390 . S
C533 C532 1.387 . S
H534 C546 0.930 . S
H535 C548 0.930 . S
H536 C549 0.930 . S
H537 C553 0.959 . S
H538 C553 0.959 . S
H539 C553 0.961 . S
H540 C554 0.960 . S
H541 C554 0.961 . S
H542 C554 0.959 . S
H543 C557 0.929 . S
H544 C558 0.931 . S
H545 C560 0.930 . S
C546 H534 0.930 . S
C546 C547 1.399 . S
C546 C551 1.399 . S
C547 C546 1.399 . S
C547 C548 1.376 . S
C548 H535 0.930 . S
C548 C547 1.376 . S
C548 C549 1.388 . S
C549 H536 0.930 . S
C549 C548 1.388 . S
C549 C550 1.390 . S
C550 C549 1.390 . S
C550 C551 1.394 . S
C550 C556 1.465 . S
C551 C546 1.399 . S
C551 C550 1.394 . S
C551 C552 1.516 . S
C552 C551 1.516 . S
C552 C553 1.502 . S
C552 C554 1.561 . S
C552 C555 1.526 . S
C553 H537 0.959 . S
C553 H538 0.959 . S
C553 H539 0.961 . S
C553 C552 1.502 . S
C554 H540 0.960 . S
C554 H541 0.961 . S
C554 H542 0.959 . S
C554 C552 1.561 . S
C555 C552 1.526 . S
C555 C556 1.396 . S
C555 C560 1.390 . S
C556 C550 1.465 . S
C556 C555 1.396 . S
C556 C557 1.399 . S
C557 H543 0.929 . S
C557 C556 1.399 . S
C557 C558 1.385 . S
C558 H544 0.931 . S
C558 C557 1.385 . S
C558 C559 1.389 . S
C559 C558 1.389 . S
C559 C560 1.387 . S
C560 H545 0.930 . S
C560 C555 1.390 . S
C560 C559 1.387 . S
H561 C573 0.930 . S
H562 C575 0.930 . S
H563 C576 0.930 . S
H564 C580 0.959 1_655 S
H565 C580 0.959 . S
H566 C580 0.961 . S
H567 C581 0.960 . S
H568 C581 0.961 . S
H569 C581 0.959 . S
H570 C584 0.929 . S
H571 C585 0.931 . S
H572 C587 0.930 . S
C573 H561 0.930 . S
C573 C574 1.399 . S
C573 C578 1.399 . S
C574 C573 1.399 . S
C574 C575 1.376 . S
C575 H562 0.930 . S
C575 C574 1.376 . S
C575 C576 1.388 . S
C576 H563 0.930 . S
C576 C575 1.388 . S
C576 C577 1.390 . S
C577 C576 1.390 . S
C577 C578 1.394 . S
C577 C583 1.465 . S
C578 C573 1.399 . S
C578 C577 1.394 . S
C578 C579 1.516 . S
C579 C578 1.516 . S
C579 C580 1.502 . S
C579 C581 1.561 . S
C579 C582 1.526 . S
C580 H564 0.959 1_455 S
C580 H565 0.959 . S
C580 H566 0.961 . S
C580 C579 1.502 . S
C581 H567 0.960 . S
C581 H568 0.961 . S
C581 H569 0.959 . S
C581 C579 1.561 . S
C582 C579 1.526 . S
C582 C583 1.396 . S
C582 C587 1.390 . S
C583 C577 1.465 . S
C583 C582 1.396 . S
C583 C584 1.399 . S
C584 H570 0.929 . S
C584 C583 1.399 . S
C584 C585 1.385 . S
C585 H571 0.931 . S
C585 C584 1.385 . S
C585 C586 1.389 . S
C586 C585 1.389 . S
C586 C587 1.387 . S
C587 H572 0.930 . S
C587 C582 1.390 . S
C587 C586 1.387 . S
H588 C600 0.930 1_545 S
H589 C602 0.930 . S
H590 C603 0.930 . S
H591 C607 0.959 . S
H592 C607 0.959 . S
H593 C607 0.961 1_556 S
H594 C608 0.960 . S
H595 C608 0.961 . S
H596 C608 0.959 . S
H597 C611 0.929 . S
H598 C612 0.931 . S
H599 C614 0.930 . S
C600 H588 0.930 1_565 S
C600 C601 1.399 . S
C600 C605 1.399 . S
C601 C600 1.399 . S
C601 C602 1.376 . S
C602 H589 0.930 . S
C602 C601 1.376 . S
C602 C603 1.388 . S
C603 H590 0.930 . S
C603 C602 1.388 . S
C603 C604 1.390 . S
C604 C603 1.390 . S
C604 C605 1.394 . S
C604 C610 1.465 . S
C605 C600 1.399 . S
C605 C604 1.394 . S
C605 C606 1.516 1_565 S
C606 C605 1.516 1_545 S
C606 C607 1.502 1_556 S
C606 C608 1.561 . S
C606 C609 1.526 1_545 S
C607 H591 0.959 . S
C607 H592 0.959 . S
C607 H593 0.961 1_554 S
C607 C606 1.502 1_554 S
C608 H594 0.960 . S
C608 H595 0.961 . S
C608 H596 0.959 . S
C608 C606 1.561 . S
C609 C606 1.526 1_565 S
C609 C610 1.396 . S
C609 C614 1.390 1_565 S
C610 C604 1.465 . S
C610 C609 1.396 . S
C610 C611 1.399 . S
C611 H597 0.929 . S
C611 C610 1.399 . S
C611 C612 1.385 1_556 S
C612 H598 0.931 . S
C612 C611 1.385 1_554 S
C612 C613 1.389 . S
C613 C612 1.389 . S
C613 C614 1.387 1_564 S
C614 H599 0.930 . S
C614 C609 1.390 1_545 S
C614 C613 1.387 1_546 S
H615 C627 0.930 . S
H616 C629 0.930 . S
H617 C630 0.930 . S
H618 C634 0.959 1_545 S
H619 C634 0.959 . S
H620 C634 0.961 . S
H621 C635 0.960 1_565 S
H622 C635 0.961 1_565 S
H623 C635 0.959 . S
H624 C638 0.929 . S
H625 C639 0.931 . S
H626 C641 0.930 . S
C627 H615 0.930 . S
C627 C628 1.399 . S
C627 C632 1.399 . S
C628 C627 1.399 . S
C628 C629 1.376 . S
C629 H616 0.930 . S
C629 C628 1.376 . S
C629 C630 1.388 . S
C630 H617 0.930 . S
C630 C629 1.388 . S
C630 C631 1.390 . S
C631 C630 1.390 . S
C631 C632 1.394 . S
C631 C637 1.465 . S
C632 C627 1.399 . S
C632 C631 1.394 . S
C632 C633 1.516 . S
C633 C632 1.516 . S
C633 C634 1.502 1_545 S
C633 C635 1.561 . S
C633 C636 1.526 . S
C634 H618 0.959 1_565 S
C634 H619 0.959 . S
C634 H620 0.961 . S
C634 C633 1.502 1_565 S
C635 H621 0.960 1_545 S
C635 H622 0.961 1_545 S
C635 H623 0.959 . S
C635 C633 1.561 . S
C636 C633 1.526 . S
C636 C637 1.396 . S
C636 C641 1.390 . S
C637 C631 1.465 . S
C637 C636 1.396 . S
C637 C638 1.399 . S
C638 H624 0.929 . S
C638 C637 1.399 . S
C638 C639 1.385 . S
C639 H625 0.931 . S
C639 C638 1.385 . S
C639 C640 1.389 . S
C640 C639 1.389 . S
C640 C641 1.387 . S
C641 H626 0.930 . S
C641 C636 1.390 . S
C641 C640 1.387 . S
H642 C654 0.930 . S
H643 C656 0.930 . S
H644 C657 0.930 1_556 S
H645 C661 0.959 . S
H646 C661 0.959 . S
H647 C661 0.961 . S
H648 C662 0.960 . S
H649 C662 0.961 . S
H650 C662 0.959 . S
H651 C665 0.929 . S
H652 C666 0.931 . S
H653 C668 0.930 . S
C654 H642 0.930 . S
C654 C655 1.399 . S
C654 C659 1.399 . S
C655 C654 1.399 . S
C655 C656 1.376 . S
C656 H643 0.930 . S
C656 C655 1.376 . S
C656 C657 1.388 . S
C657 H644 0.930 1_554 S
C657 C656 1.388 . S
C657 C658 1.390 . S
C658 C657 1.390 . S
C658 C659 1.394 . S
C658 C664 1.465 . S
C659 C654 1.399 . S
C659 C658 1.394 . S
C659 C660 1.516 . S
C660 C659 1.516 . S
C660 C661 1.502 . S
C660 C662 1.561 . S
C660 C663 1.526 . S
C661 H645 0.959 . S
C661 H646 0.959 . S
C661 H647 0.961 . S
C661 C660 1.502 . S
C662 H648 0.960 . S
C662 H649 0.961 . S
C662 H650 0.959 . S
C662 C660 1.561 . S
C663 C660 1.526 . S
C663 C664 1.396 . S
C663 C668 1.390 . S
C664 C658 1.465 . S
C664 C663 1.396 . S
C664 C665 1.399 1_554 S
C665 H651 0.929 . S
C665 C664 1.399 1_556 S
C665 C666 1.385 . S
C666 H652 0.931 . S
C666 C665 1.385 . S
C666 C667 1.389 1_556 S
C667 C666 1.389 1_554 S
C667 C668 1.387 . S
C668 H653 0.930 . S
C668 C663 1.390 . S
C668 C667 1.387 . S
H669 C681 0.930 . S
H670 C683 0.930 . S
H671 C684 0.930 . S
H672 C688 0.959 . S
H673 C688 0.959 . S
H674 C688 0.961 . S
H675 C689 0.960 . S
H676 C689 0.961 . S
H677 C689 0.959 . S
H678 C692 0.929 . S
H679 C693 0.931 . S
H680 C695 0.930 . S
C681 H669 0.930 . S
C681 C682 1.399 . S
C681 C686 1.399 . S
C682 C681 1.399 . S
C682 C683 1.376 . S
C683 H670 0.930 . S
C683 C682 1.376 . S
C683 C684 1.388 . S
C684 H671 0.930 . S
C684 C683 1.388 . S
C684 C685 1.390 . S
C685 C684 1.390 . S
C685 C686 1.394 . S
C685 C691 1.465 . S
C686 C681 1.399 . S
C686 C685 1.394 . S
C686 C687 1.516 . S
C687 C686 1.516 . S
C687 C688 1.502 . S
C687 C689 1.561 . S
C687 C690 1.526 . S
C688 H672 0.959 . S
C688 H673 0.959 . S
C688 H674 0.961 . S
C688 C687 1.502 . S
C689 H675 0.960 . S
C689 H676 0.961 . S
C689 H677 0.959 . S
C689 C687 1.561 . S
C690 C687 1.526 . S
C690 C691 1.396 . S
C690 C695 1.390 . S
C691 C685 1.465 . S
C691 C690 1.396 . S
C691 C692 1.399 . S
C692 H678 0.929 . S
C692 C691 1.399 . S
C692 C693 1.385 . S
C693 H679 0.931 . S
C693 C692 1.385 . S
C693 C694 1.389 . S
C694 C693 1.389 . S
C694 C695 1.387 . S
C695 H680 0.930 . S
C695 C690 1.390 . S
C695 C694 1.387 . S
H696 C708 0.930 . S
H697 C710 0.930 1_455 S
H698 C711 0.930 . S
H699 C715 0.959 . S
H700 C715 0.959 . S
H701 C715 0.961 . S
H702 C716 0.960 . S
H703 C716 0.961 . S
H704 C716 0.959 . S
H705 C719 0.929 . S
H706 C720 0.931 . S
H707 C722 0.930 1_554 S
C708 H696 0.930 . S
C708 C709 1.399 . S
C708 C713 1.399 . S
C709 C708 1.399 . S
C709 C710 1.376 . S
C710 H697 0.930 1_655 S
C710 C709 1.376 . S
C710 C711 1.388 1_655 S
C711 H698 0.930 . S
C711 C710 1.388 1_455 S
C711 C712 1.390 1_455 S
C712 C711 1.390 1_655 S
C712 C713 1.394 . S
C712 C718 1.465 1_655 S
C713 C708 1.399 . S
C713 C712 1.394 . S
C713 C714 1.516 . S
C714 C713 1.516 . S
C714 C715 1.502 1_556 S
C714 C716 1.561 . S
C714 C717 1.526 . S
C715 H699 0.959 . S
C715 H700 0.959 . S
C715 H701 0.961 . S
C715 C714 1.502 1_554 S
C716 H702 0.960 . S
C716 H703 0.961 . S
C716 H704 0.959 . S
C716 C714 1.561 . S
C717 C714 1.526 . S
C717 C718 1.396 1_655 S
C717 C722 1.390 . S
C718 C712 1.465 1_455 S
C718 C717 1.396 1_455 S
C718 C719 1.399 . S
C719 H705 0.929 . S
C719 C718 1.399 . S
C719 C720 1.385 . S
C720 H706 0.931 . S
C720 C719 1.385 . S
C720 C721 1.389 . S
C721 C720 1.389 . S
C721 C722 1.387 1_455 S
C722 H707 0.930 1_556 S
C722 C717 1.390 . S
C722 C721 1.387 1_655 S
H723 C735 0.930 . S
H724 C737 0.930 . S
H725 C738 0.930 . S
H726 C742 0.959 1_554 S
H727 C742 0.959 . S
H728 C742 0.961 . S
H729 C743 0.960 . S
H730 C743 0.961 . S
H731 C743 0.959 1_554 S
H732 C746 0.929 . S
H733 C747 0.931 . S
H734 C749 0.927 1_556 S
C735 H723 0.930 . S
C735 C736 1.399 . S
C735 C740 1.399 . S
C736 C735 1.399 . S
C736 C737 1.376 . S
C737 H724 0.930 . S
C737 C736 1.376 . S
C737 C738 1.388 . S
C738 H725 0.930 . S
C738 C737 1.388 . S
C738 C739 1.390 . S
C739 C738 1.390 . S
C739 C740 1.394 . S
C739 C745 1.465 . S
C740 C735 1.399 . S
C740 C739 1.394 . S
C740 C741 1.516 . S
C741 C740 1.516 . S
C741 C742 1.502 1_554 S
C741 C743 1.561 1_554 S
C741 C744 1.526 . S
C742 H726 0.959 1_556 S
C742 H727 0.959 . S
C742 H728 0.961 . S
C742 C741 1.502 1_556 S
C743 H729 0.960 . S
C743 H730 0.961 . S
C743 H731 0.959 1_556 S
C743 C741 1.561 1_556 S
C744 C741 1.526 . S
C744 C745 1.396 . S
C744 C749 1.390 . S
C745 C739 1.465 . S
C745 C744 1.396 . S
C745 C746 1.399 . S
C746 H732 0.929 . S
C746 C745 1.399 . S
C746 C747 1.385 . S
C747 H733 0.931 . S
C747 C746 1.385 . S
C747 C748 1.389 . S
C748 C747 1.389 . S
C748 C749 1.387 . S
C749 H734 0.927 1_554 S
C749 C744 1.390 . S
C749 C748 1.387 . S
H750 C762 0.930 . S
H751 C764 0.930 . S
H752 C765 0.930 . S
H753 C769 0.959 . S
H754 C769 0.959 . S
H755 C769 0.961 . S
H756 C770 0.960 . S
H757 C770 0.961 . S
H758 C770 0.959 . S
H759 C773 0.929 . S
H760 C774 0.931 . S
H761 C776 0.930 . S
C762 H750 0.930 . S
C762 C763 1.399 . S
C762 C767 1.399 . S
C763 C762 1.399 . S
C763 C764 1.376 . S
C764 H751 0.930 . S
C764 C763 1.376 . S
C764 C765 1.388 . S
C765 H752 0.930 . S
C765 C764 1.388 . S
C765 C766 1.390 . S
C766 C765 1.390 . S
C766 C767 1.394 . S
C766 C772 1.465 . S
C767 C762 1.399 . S
C767 C766 1.394 . S
C767 C768 1.516 . S
C768 C767 1.516 . S
C768 C769 1.502 . S
C768 C770 1.561 1_455 S
C768 C771 1.526 . S
C769 H753 0.959 . S
C769 H754 0.959 . S
C769 H755 0.961 . S
C769 C768 1.502 . S
C770 H756 0.960 . S
C770 H757 0.961 . S
C770 H758 0.959 . S
C770 C768 1.561 1_655 S
C771 C768 1.526 . S
C771 C772 1.396 . S
C771 C776 1.390 . S
C772 C766 1.465 . S
C772 C771 1.396 . S
C772 C773 1.399 . S
C773 H759 0.929 . S
C773 C772 1.399 . S
C773 C774 1.385 . S
C774 H760 0.931 . S
C774 C773 1.385 . S
C774 C775 1.389 . S
C775 C774 1.389 . S
C775 C776 1.387 . S
C776 H761 0.930 . S
C776 C771 1.390 . S
C776 C775 1.387 . S
H777 C789 0.930 . S
H778 C791 0.930 . S
H779 C792 0.930 . S
H780 C796 0.959 . S
H781 C796 0.959 . S
H782 C796 0.961 . S
H783 C797 0.960 . S
H784 C797 0.961 . S
H785 C797 0.959 . S
H786 C800 0.929 . S
H787 C801 0.931 . S
H788 C803 0.930 . S
C789 H777 0.930 . S
C789 C790 1.399 . S
C789 C794 1.399 . S
C790 C789 1.399 . S
C790 C791 1.376 . S
C791 H778 0.930 . S
C791 C790 1.376 . S
C791 C792 1.388 . S
C792 H779 0.930 . S
C792 C791 1.388 . S
C792 C793 1.390 . S
C793 C792 1.390 . S
C793 C794 1.394 . S
C793 C799 1.465 . S
C794 C789 1.399 . S
C794 C793 1.394 . S
C794 C795 1.516 . S
C795 C794 1.516 . S
C795 C796 1.502 . S
C795 C797 1.561 . S
C795 C798 1.526 . S
C796 H780 0.959 . S
C796 H781 0.959 . S
C796 H782 0.961 . S
C796 C795 1.502 . S
C797 H783 0.960 . S
C797 H784 0.961 . S
C797 H785 0.959 . S
C797 C795 1.561 . S
C798 C795 1.526 . S
C798 C799 1.396 . S
C798 C803 1.390 . S
C799 C793 1.465 . S
C799 C798 1.396 . S
C799 C800 1.399 . S
C800 H786 0.929 . S
C800 C799 1.399 . S
C800 C801 1.385 . S
C801 H787 0.931 . S
C801 C800 1.385 . S
C801 C802 1.389 . S
C802 C801 1.389 . S
C802 C803 1.387 . S
C803 H788 0.930 . S
C803 C798 1.390 . S
C803 C802 1.387 . S
C169 C5 1.542 . S
C181 C75 1.396 . S
C196 C14 1.504 . S
C208 C109 1.351 . S
C235 C121 1.350 . S
C223 C25 1.485 . S
C250 C34 1.493 . S
C262 C155 1.422 . S
C289 C112 1.357 . S
C277 C7 1.513 . S
C316 C92 1.459 . S
C304 C13 1.520 . S
C343 C139 1.325 . S
C331 C23 1.481 . S
C370 C130 1.427 . S
C358 C31 1.502 . S
C385 C4 1.526 . S
C397 C138 1.443 . S
C424 C100 1.337 . S
C412 C22 1.488 . S
C439 C32 1.504 . S
C451 C76 1.399 . S
C466 C16 1.499 . S
C478 C133 1.350 . S
C505 C91 1.400 . S
C493 C41 1.546 . S
C520 C50 1.556 . S
C532 C113 1.505 . S
C547 C61 1.537 . S
C559 C118 1.494 . S
C574 C67 1.557 . S
C586 C151 1.422 . S
C601 C40 1.535 . S
C613 C96 1.441 . S
C640 C88 1.437 . S
C628 C52 1.538 . S
C667 C142 1.399 . S
C655 C59 1.546 . S
C694 C134 1.431 . S
C682 C70 1.499 . S
C709 C43 1.525 . S
C721 C154 1.392 . S
C748 C97 1.433 . S
C736 C58 1.525 . S
C775 C79 1.467 . S
C763 C68 1.555 . S
C790 C49 1.578 . S
C802 C117 1.474 . S
