# Generated by pormake.
# Topology pto, (3,4)-cn, num edge types: 1
# Building blocks:
#     Node 0, Type 0, BuildingBlock: OLANEW_clean_sbu_2, # of connection points: 3
#     Node 1, Type 0, BuildingBlock: OLANEW_clean_sbu_2, # of connection points: 3
#     Node 2, Type 0, BuildingBlock: OLANEW_clean_sbu_2, # of connection points: 3
#     Node 3, Type 0, BuildingBlock: OLANEW_clean_sbu_2, # of connection points: 3
#     Node 4, Type 0, BuildingBlock: OLANEW_clean_sbu_2, # of connection points: 3
#     Node 5, Type 0, BuildingBlock: OLANEW_clean_sbu_2, # of connection points: 3
#     Node 6, Type 0, BuildingBlock: OLANEW_clean_sbu_2, # of connection points: 3
#     Node 7, Type 0, BuildingBlock: OLANEW_clean_sbu_2, # of connection points: 3
#     Node 8, Type 1, BuildingBlock: AZAVOO_clean_linker_0, # of connection points: 4
#     Node 9, Type 1, BuildingBlock: AZAVOO_clean_linker_0, # of connection points: 4
#     Node 10, Type 1, BuildingBlock: AZAVOO_clean_linker_0, # of connection points: 4
#     Node 11, Type 1, BuildingBlock: AZAVOO_clean_linker_0, # of connection points: 4
#     Node 12, Type 1, BuildingBlock: AZAVOO_clean_linker_0, # of connection points: 4
#     Node 13, Type 1, BuildingBlock: AZAVOO_clean_linker_0, # of connection points: 4
#     Edge 14, Type (0, 1), BuildingBlock: EZIPEK_clean_linker_0, # of connection points: 2
#     Edge 15, Type (0, 1), BuildingBlock: EZIPEK_clean_linker_0, # of connection points: 2
#     Edge 16, Type (0, 1), BuildingBlock: EZIPEK_clean_linker_0, # of connection points: 2
#     Edge 17, Type (0, 1), BuildingBlock: EZIPEK_clean_linker_0, # of connection points: 2
#     Edge 18, Type (0, 1), BuildingBlock: EZIPEK_clean_linker_0, # of connection points: 2
#     Edge 19, Type (0, 1), BuildingBlock: EZIPEK_clean_linker_0, # of connection points: 2
#     Edge 20, Type (0, 1), BuildingBlock: EZIPEK_clean_linker_0, # of connection points: 2
#     Edge 21, Type (0, 1), BuildingBlock: EZIPEK_clean_linker_0, # of connection points: 2
#     Edge 22, Type (0, 1), BuildingBlock: EZIPEK_clean_linker_0, # of connection points: 2
#     Edge 23, Type (0, 1), BuildingBlock: EZIPEK_clean_linker_0, # of connection points: 2
#     Edge 24, Type (0, 1), BuildingBlock: EZIPEK_clean_linker_0, # of connection points: 2
#     Edge 25, Type (0, 1), BuildingBlock: EZIPEK_clean_linker_0, # of connection points: 2
#     Edge 26, Type (0, 1), BuildingBlock: EZIPEK_clean_linker_0, # of connection points: 2
#     Edge 27, Type (0, 1), BuildingBlock: EZIPEK_clean_linker_0, # of connection points: 2
#     Edge 28, Type (0, 1), BuildingBlock: EZIPEK_clean_linker_0, # of connection points: 2
#     Edge 29, Type (0, 1), BuildingBlock: EZIPEK_clean_linker_0, # of connection points: 2
#     Edge 30, Type (0, 1), BuildingBlock: EZIPEK_clean_linker_0, # of connection points: 2
#     Edge 31, Type (0, 1), BuildingBlock: EZIPEK_clean_linker_0, # of connection points: 2
#     Edge 32, Type (0, 1), BuildingBlock: EZIPEK_clean_linker_0, # of connection points: 2
#     Edge 33, Type (0, 1), BuildingBlock: EZIPEK_clean_linker_0, # of connection points: 2
#     Edge 34, Type (0, 1), BuildingBlock: EZIPEK_clean_linker_0, # of connection points: 2
#     Edge 35, Type (0, 1), BuildingBlock: EZIPEK_clean_linker_0, # of connection points: 2
#     Edge 36, Type (0, 1), BuildingBlock: EZIPEK_clean_linker_0, # of connection points: 2
#     Edge 37, Type (0, 1), BuildingBlock: EZIPEK_clean_linker_0, # of connection points: 2
# Relax obj value: 0.074
# Max RMSD: 0.224
# Mean RMSD: 0.131
data_MOF--net-pto--node1-OLANEW_clean_sbu_2--node2-AZAVOO_clean_linker_0--edge1-EZIPEK_clean_linker_0
_symmetry_space_group_name_H-M    P1
_symmetry_Int_Tables_number       1
_symmetry_cell_setting            triclinic
loop_
_symmetry_equiv_pos_as_xyz
'x, y, z'
_cell_length_a     35.494759
_cell_length_b     39.18875
_cell_length_c     39.772292
_cell_angle_alpha  92.894322
_cell_angle_beta   90.674137
_cell_angle_gamma 116.99238
loop_
_atom_site_label
_atom_site_type_symbol
_atom_site_fract_x
_atom_site_fract_y
_atom_site_fract_z
_atom_type_partial_charge
O0 O 0.32942 0.44855 0.20352 0.0
Cd1 Cd 0.32091 0.48016 0.25508 0.0
O2 O 0.33153 0.49136 0.16875 0.0
Cd3 Cd 0.3138 0.52195 0.2079 0.0
O4 O 0.27572 0.54252 0.23738 0.0
C5 C 0.24564 0.54451 0.22141 0.0
O6 O 0.24003 0.53555 0.18886 0.0
C7 C 0.33375 0.46061 0.17408 0.0
C8 C 0.35516 0.45809 0.30789 0.0
O9 O 0.3165 0.43795 0.29775 0.0
O10 O 0.37767 0.48922 0.29369 0.0
O11 O 0.34035 0.0745 0.83657 0.0
Cd12 Cd 0.293 0.05962 0.78702 0.0
O13 O 0.30686 0.01691 0.85631 0.0
Cd14 Cd 0.25657 0.98911 0.81738 0.0
O15 O 0.20824 0.93333 0.79657 0.0
C16 C 0.2206 0.90841 0.78824 0.0
O17 O 0.26121 0.91805 0.79018 0.0
C18 C 0.33685 0.0509 0.85859 0.0
C19 C 0.33088 0.1099 0.7363 0.0
O20 O 0.30813 0.11651 0.75793 0.0
O21 O 0.3361 0.07982 0.73875 0.0
O22 O 0.89537 0.95756 0.33804 0.0
Cd23 Cd 0.93546 0.94774 0.29238 0.0
O24 O 0.85791 0.96289 0.29642 0.0
Cd25 Cd 0.80781 0.97409 0.2752 0.0
O26 O 0.77085 0.99132 0.24207 0.0
C27 C 0.73397 0.9676 0.23092 0.0
O28 O 0.71677 0.93229 0.24052 0.0
C29 C 0.86439 0.96272 0.32789 0.0
C30 C 0.94916 0.88374 0.29867 0.0
O31 O 0.97884 0.91761 0.3061 0.0
O32 O 0.91308 0.88028 0.28865 0.0
O33 O 0.7907 0.25663 0.80692 0.0
Cd34 Cd 0.75768 0.18995 0.82312 0.0
O35 O 0.73236 0.26272 0.79962 0.0
Cd36 Cd 0.68772 0.20657 0.81511 0.0
O37 O 0.62432 0.1748 0.8335 0.0
C38 C 0.61436 0.19553 0.85333 0.0
O39 O 0.64287 0.23074 0.86207 0.0
C40 C 0.77234 0.27657 0.79896 0.0
C41 C 0.71996 0.1407 0.76637 0.0
O42 O 0.76009 0.15648 0.77198 0.0
O43 O 0.69729 0.14685 0.78833 0.0
O44 O 0.85252 0.9164 0.65647 0.0
Cd45 Cd 0.89535 0.91099 0.70278 0.0
O46 O 0.83864 0.94973 0.69568 0.0
Cd47 Cd 0.80759 0.98291 0.71584 0.0
O48 O 0.77646 0.00447 0.75191 0.0
C49 C 0.76172 0.9845 0.77714 0.0
O50 O 0.76544 0.95285 0.77958 0.0
C51 C 0.83419 0.9366 0.66524 0.0
C52 C 0.90489 0.8444 0.7043 0.0
O53 O 0.87285 0.8461 0.71727 0.0
O54 O 0.9316 0.8735 0.68955 0.0
O55 O 0.61811 0.32891 0.31455 0.0
Cd56 Cd 0.54556 0.27688 0.30892 0.0
O57 O 0.60254 0.37683 0.32404 0.0
Cd58 Cd 0.53533 0.33747 0.318 0.0
O59 O 0.48624 0.30337 0.28003 0.0
C60 C 0.48198 0.32176 0.25614 0.0
O61 O 0.50369 0.35931 0.25755 0.0
C62 C 0.62992 0.36463 0.32002 0.0
C63 C 0.5384 0.2157 0.34583 0.0
O64 O 0.55619 0.22201 0.31741 0.0
O65 O 0.5227 0.23772 0.35648 0.0
O66 O 0.32377 0.51644 0.87615 0.0
Cd67 Cd 0.34597 0.56685 0.83613 0.0
O68 O 0.3422 0.48091 0.84197 0.0
Cd69 Cd 0.36398 0.51489 0.79834 0.0
O70 O 0.37974 0.49037 0.75353 0.0
C71 C 0.39944 0.47094 0.75926 0.0
O72 O 0.41163 0.46986 0.79034 0.0
C73 C 0.32766 0.48613 0.8697 0.0
C74 C 0.28094 0.5852 0.82083 0.0
O75 O 0.28484 0.5584 0.80381 0.0
O76 O 0.30785 0.60362 0.84502 0.0
O77 O 0.45133 0.02295 0.28069 0.0
Cd78 Cd 0.41468 0.99696 0.33226 0.0
O79 O 0.39927 0.98051 0.24734 0.0
Cd80 Cd 0.3565 0.94927 0.28626 0.0
O81 O 0.29958 0.90098 0.3026 0.0
C82 C 0.28825 0.86916 0.28583 0.0
O83 O 0.31177 0.86683 0.26144 0.0
C84 C 0.43581 0.00895 0.2513 0.0
C85 C 0.42229 0.05518 0.37925 0.0
O86 O 0.45045 0.04327 0.37812 0.0
O87 O 0.39034 0.03935 0.35845 0.0
H88 H 0.97363 0.37399 0.29326 0.0
H89 H 0.74482 0.64464 0.29598 0.0
H90 H 0.07397 0.60834 0.33838 0.0
H91 H 0.13612 0.59862 0.32457 0.0
H92 H 0.08591 0.56114 0.22272 0.0
H93 H 0.024 0.57081 0.23644 0.0
H94 H 0.9979 0.52735 0.33794 0.0
H95 H 0.994 0.46367 0.32808 0.0
H96 H 0.92228 0.4475 0.23485 0.0
H97 H 0.92703 0.51148 0.24474 0.0
H98 H 0.90263 0.51653 0.35092 0.0
H99 H 0.83061 0.46455 0.35627 0.0
H100 H 0.79097 0.49454 0.26412 0.0
H101 H 0.86314 0.54547 0.25815 0.0
H102 H 0.88191 0.5893 0.35931 0.0
H103 H 0.81769 0.5972 0.36488 0.0
H104 H 0.83573 0.64371 0.26666 0.0
H105 H 0.89935 0.6349 0.26111 0.0
H106 H 0.9533 0.6743 0.35729 0.0
H107 H 0.9491 0.7351 0.3565 0.0
H108 H 0.0007 0.75237 0.25755 0.0
H109 H 0.00164 0.69025 0.25719 0.0
H110 H 0.05467 0.68247 0.35387 0.0
H111 H 0.12329 0.74024 0.35297 0.0
H112 H 0.12904 0.7172 0.24648 0.0
H113 H 0.06063 0.65939 0.24738 0.0
O114 O 0.97455 0.39898 0.29677 0.0
O115 O 0.93706 0.39177 0.2494 0.0
O116 O 0.76192 0.61665 0.34463 0.0
O117 O 0.77005 0.64115 0.29443 0.0
C118 C 0.00676 0.59553 0.29639 0.0
C119 C 0.96662 0.56329 0.29746 0.0
C120 C 0.93025 0.56857 0.3027 0.0
C121 C 0.93393 0.60609 0.30622 0.0
C122 C 0.97416 0.63833 0.30542 0.0
C123 C 0.01062 0.63297 0.30101 0.0
C124 C 0.04449 0.59008 0.28841 0.0
C125 C 0.0765 0.59812 0.3131 0.0
C126 C 0.11176 0.59262 0.30528 0.0
C127 C 0.11533 0.57922 0.27267 0.0
C128 C 0.08353 0.57153 0.24797 0.0
C129 C 0.04831 0.5769 0.2558 0.0
C130 C 0.96267 0.52398 0.29211 0.0
C131 C 0.98135 0.50998 0.31542 0.0
C132 C 0.97904 0.4736 0.30973 0.0
C133 C 0.95782 0.45048 0.28067 0.0
C134 C 0.93883 0.46453 0.2575 0.0
C135 C 0.94133 0.50099 0.26315 0.0
C136 C 0.888 0.5349 0.30426 0.0
C137 C 0.87856 0.51144 0.33162 0.0
C138 C 0.83759 0.48208 0.33478 0.0
C139 C 0.80552 0.47616 0.31081 0.0
C140 C 0.81528 0.49892 0.28297 0.0
C141 C 0.85631 0.52787 0.27958 0.0
C142 C 0.89531 0.61156 0.30984 0.0
C143 C 0.87185 0.60108 0.339 0.0
C144 C 0.83524 0.6057 0.34214 0.0
C145 C 0.82159 0.62113 0.31621 0.0
C146 C 0.84533 0.63175 0.28709 0.0
C147 C 0.88176 0.62687 0.2839 0.0
C148 C 0.97759 0.67768 0.30724 0.0
C149 C 0.96385 0.69126 0.3355 0.0
C150 C 0.96163 0.72593 0.33512 0.0
C151 C 0.97443 0.74807 0.3069 0.0
C152 C 0.9906 0.73561 0.27951 0.0
C153 C 0.99149 0.70038 0.27944 0.0
C154 C 0.05284 0.66678 0.30072 0.0
C155 C 0.07091 0.68977 0.33043 0.0
C156 C 0.10985 0.72254 0.32993 0.0
C157 C 0.13087 0.73276 0.29965 0.0
C158 C 0.11308 0.70959 0.27002 0.0
C159 C 0.07432 0.6767 0.27056 0.0
C160 C 0.95573 0.41197 0.27456 0.0
C161 C 0.78273 0.62611 0.31941 0.0
H162 H 0.02974 0.41071 0.83197 0.0
H163 H 0.71384 0.5203 0.66809 0.0
H164 H 0.05415 0.61792 0.82177 0.0
H165 H 0.12201 0.61962 0.83833 0.0
H166 H 0.14728 0.60811 0.73368 0.0
H167 H 0.0794 0.60632 0.71717 0.0
H168 H 0.97921 0.53241 0.81925 0.0
H169 H 0.99717 0.48162 0.83439 0.0
H170 H 0.03974 0.47684 0.73362 0.0
H171 H 0.0217 0.52774 0.71889 0.0
H172 H 0.88725 0.52306 0.79996 0.0
H173 H 0.84349 0.4548 0.80881 0.0
H174 H 0.88809 0.42418 0.71733 0.0
H175 H 0.93076 0.49257 0.70787 0.0
H176 H 0.8708 0.58058 0.78502 0.0
H177 H 0.79685 0.56253 0.76969 0.0
H178 H 0.81923 0.54013 0.66612 0.0
H179 H 0.89315 0.5584 0.68187 0.0
H180 H 0.92482 0.65233 0.78524 0.0
H181 H 0.90886 0.70562 0.7739 0.0
H182 H 0.95847 0.71092 0.67479 0.0
H183 H 0.97423 0.6574 0.68608 0.0
H184 H 0.0134 0.68386 0.80162 0.0
H185 H 0.06569 0.75182 0.80741 0.0
H186 H 0.12168 0.7377 0.71544 0.0
H187 H 0.06864 0.6697 0.70926 0.0
O188 O 0.0231 0.43091 0.8255 0.0
O189 O 0.04545 0.43013 0.7736 0.0
O190 O 0.73314 0.53976 0.72839 0.0
O191 O 0.74293 0.52764 0.67485 0.0
C192 C 0.01772 0.60226 0.75887 0.0
C193 C 0.9869 0.56354 0.75872 0.0
C194 C 0.94396 0.55331 0.7513 0.0
C195 C 0.93189 0.58184 0.74375 0.0
C196 C 0.96269 0.62066 0.7441 0.0
C197 C 0.00563 0.63093 0.75194 0.0
C198 C 0.06216 0.61226 0.7683 0.0
C199 C 0.07502 0.6171 0.80243 0.0
C200 C 0.1135 0.61795 0.81183 0.0
C201 C 0.1394 0.61396 0.78716 0.0
C202 C 0.12772 0.61149 0.75297 0.0
C203 C 0.08922 0.6106 0.74358 0.0
C204 C 0.99927 0.5337 0.76804 0.0
C205 C 0.99259 0.52043 0.80057 0.0
C206 C 0.0028 0.49139 0.8091 0.0
C207 C 0.01972 0.47505 0.78517 0.0
C208 C 0.02663 0.4887 0.75261 0.0
C209 C 0.01653 0.51785 0.74416 0.0
C210 C 0.91187 0.51272 0.75313 0.0
C211 C 0.88644 0.50168 0.78122 0.0
C212 C 0.86186 0.46285 0.78641 0.0
C213 C 0.86284 0.43461 0.7638 0.0
C214 C 0.88693 0.44563 0.73498 0.0
C215 C 0.91107 0.48449 0.72955 0.0
C216 C 0.88718 0.57089 0.7345 0.0
C217 C 0.85963 0.57185 0.75904 0.0
C218 C 0.81744 0.56149 0.75021 0.0
C219 C 0.80212 0.54991 0.71664 0.0
C220 C 0.82997 0.54893 0.69217 0.0
C221 C 0.87217 0.55933 0.70106 0.0
C222 C 0.95022 0.65082 0.73633 0.0
C223 C 0.9315 0.6645 0.76087 0.0
C224 C 0.92258 0.69486 0.75448 0.0
C225 C 0.93236 0.71188 0.72349 0.0
C226 C 0.9505 0.69786 0.69873 0.0
C227 C 0.95945 0.66749 0.70515 0.0
C228 C 0.03735 0.67192 0.75507 0.0
C229 C 0.03672 0.69548 0.78258 0.0
C230 C 0.0664 0.7341 0.78586 0.0
C231 C 0.09728 0.74961 0.76177 0.0
C232 C 0.09788 0.72614 0.73414 0.0
C233 C 0.06794 0.68748 0.73075 0.0
C234 C 0.03024 0.44402 0.79426 0.0
C235 C 0.75732 0.53884 0.70712 0.0
H236 H 0.38404 0.23053 0.30647 0.0
H237 H 0.47267 0.55456 0.5651 0.0
H238 H 0.36498 0.20686 0.50687 0.0
H239 H 0.36646 0.15027 0.47851 0.0
H240 H 0.50169 0.21383 0.47135 0.0
H241 H 0.50041 0.26989 0.50065 0.0
H242 H 0.36179 0.26458 0.44763 0.0
H243 H 0.35799 0.24436 0.38792 0.0
H244 H 0.49418 0.28989 0.38971 0.0
H245 H 0.49751 0.31048 0.44936 0.0
H246 H 0.35822 0.34018 0.4788 0.0
H247 H 0.34598 0.37328 0.43235 0.0
H248 H 0.47579 0.41403 0.40475 0.0
H249 H 0.48829 0.38122 0.4518 0.0
H250 H 0.36368 0.36375 0.5459 0.0
H251 H 0.36529 0.42613 0.55887 0.0
H252 H 0.49995 0.48221 0.54363 0.0
H253 H 0.49784 0.41955 0.53091 0.0
H254 H 0.35643 0.31061 0.59007 0.0
H255 H 0.35179 0.34444 0.64232 0.0
H256 H 0.48803 0.40456 0.65198 0.0
H257 H 0.49259 0.37109 0.59933 0.0
H258 H 0.34881 0.24135 0.56766 0.0
H259 H 0.33004 0.19799 0.61383 0.0
H260 H 0.46225 0.23219 0.63485 0.0
H261 H 0.48111 0.27615 0.58857 0.0
O262 O 0.38627 0.23891 0.33005 0.0
O263 O 0.4548 0.25471 0.33428 0.0
O264 O 0.4018 0.49931 0.56736 0.0
O265 O 0.47108 0.52954 0.55991 0.0
C266 C 0.43082 0.27874 0.5147 0.0
C267 C 0.43177 0.30225 0.48853 0.0
C268 C 0.43025 0.33711 0.49615 0.0
C269 C 0.42978 0.34941 0.52993 0.0
C270 C 0.42745 0.32545 0.55601 0.0
C271 C 0.42657 0.28951 0.54834 0.0
C272 C 0.43261 0.24233 0.50594 0.0
C273 C 0.39511 0.208 0.50055 0.0
C274 C 0.39596 0.17588 0.48431 0.0
C275 C 0.43424 0.178 0.47296 0.0
C276 C 0.47203 0.21156 0.48028 0.0
C277 C 0.47126 0.24345 0.49695 0.0
C278 C 0.42986 0.28862 0.45277 0.0
C279 C 0.39072 0.27 0.43506 0.0
C280 C 0.38868 0.25867 0.40096 0.0
C281 C 0.42578 0.26551 0.38406 0.0
C282 C 0.46501 0.28409 0.40201 0.0
C283 C 0.46701 0.29572 0.43607 0.0
C284 C 0.42418 0.35855 0.46869 0.0
C285 C 0.38417 0.35661 0.46299 0.0
C286 C 0.37716 0.37531 0.43656 0.0
C287 C 0.41001 0.39597 0.41535 0.0
C288 C 0.45019 0.39819 0.42105 0.0
C289 C 0.45727 0.37955 0.4477 0.0
C290 C 0.43072 0.38722 0.53782 0.0
C291 C 0.3935 0.38955 0.54559 0.0
C292 C 0.3945 0.42521 0.55283 0.0
C293 C 0.43279 0.45918 0.5523 0.0
C294 C 0.46996 0.45664 0.54428 0.0
C295 C 0.46888 0.42093 0.53704 0.0
C296 C 0.42483 0.33832 0.59114 0.0
C297 C 0.38524 0.33013 0.60404 0.0
C298 C 0.38261 0.34956 0.63362 0.0
C299 C 0.41958 0.37717 0.65068 0.0
C300 C 0.45924 0.38339 0.63902 0.0
C301 C 0.46183 0.36419 0.60925 0.0
C302 C 0.41626 0.26177 0.57485 0.0
C303 C 0.37373 0.23936 0.5821 0.0
C304 C 0.36306 0.21477 0.60839 0.0
C305 C 0.39478 0.21214 0.62778 0.0
C306 C 0.43742 0.23405 0.62018 0.0
C307 C 0.44813 0.25889 0.59385 0.0
C308 C 0.42335 0.25284 0.34798 0.0
C309 C 0.4341 0.49712 0.56029 0.0
H310 H 0.55579 0.09682 0.79412 0.0
H311 H 0.79861 0.96676 0.01492 0.0
H312 H 0.55615 0.11701 0.99867 0.0
H313 H 0.49805 0.12537 0.97231 0.0
H314 H 0.42513 0.00274 0.95693 0.0
H315 H 0.48167 0.99423 0.98533 0.0
H316 H 0.61978 0.11045 0.93303 0.0
H317 H 0.60244 0.11566 0.87436 0.0
H318 H 0.50169 0.9995 0.87135 0.0
H319 H 0.52019 0.99428 0.92962 0.0
H320 H 0.69562 0.0912 0.9513 0.0
H321 H 0.73185 0.08186 0.90178 0.0
H322 H 0.6273 0.9696 0.87973 0.0
H323 H 0.59119 0.97899 0.92897 0.0
H324 H 0.70839 0.08288 0.03593 0.0
H325 H 0.76971 0.07082 0.04384 0.0
H326 H 0.70011 0.95849 0.99283 0.0
H327 H 0.63889 0.97074 0.9855 0.0
H328 H 0.64451 0.08291 0.09098 0.0
H329 H 0.67114 0.06702 0.14238 0.0
H330 H 0.625 0.95027 0.10196 0.0
H331 H 0.59774 0.96587 0.05107 0.0
H332 H 0.57388 0.10467 0.06677 0.0
H333 H 0.54181 0.10379 0.1216 0.0
H334 H 0.48753 0.9803 0.11666 0.0
H335 H 0.51925 0.98118 0.062 0.0
O336 O 0.56225 0.09407 0.81723 0.0
O337 O 0.51127 0.03403 0.81694 0.0
O338 O 0.80895 0.02999 0.03878 0.0
O339 O 0.77493 0.97237 0.01196 0.0
C340 C 0.56148 0.04972 0.99859 0.0
C341 C 0.58413 0.04782 0.97008 0.0
C342 C 0.61925 0.04044 0.97381 0.0
C343 C 0.63197 0.03502 0.00596 0.0
C344 C 0.60868 0.03579 0.03433 0.0
C345 C 0.57364 0.04353 0.03073 0.0
C346 C 0.52314 0.05499 0.99351 0.0
C347 C 0.52678 0.09196 0.99116 0.0
C348 C 0.49391 0.09677 0.97596 0.0
C349 C 0.45814 0.06474 0.9618 0.0
C350 C 0.45277 0.02778 0.96738 0.0
C351 C 0.48491 0.02294 0.98362 0.0
C352 C 0.57066 0.05229 0.93576 0.0
C353 C 0.59367 0.08635 0.91974 0.0
C354 C 0.58383 0.08918 0.88619 0.0
C355 C 0.55064 0.05804 0.86816 0.0
C356 C 0.52741 0.02404 0.88449 0.0
C357 C 0.53756 0.02114 0.91791 0.0
C358 C 0.6409 0.03573 0.9436 0.0
C359 C 0.68053 0.06474 0.93563 0.0
C360 C 0.70101 0.05949 0.90748 0.0
C361 C 0.68209 0.02507 0.88726 0.0
C362 C 0.6422 0.99636 0.89503 0.0
C363 C 0.62172 0.00168 0.92301 0.0
C364 C 0.66938 0.02781 0.00993 0.0
C365 C 0.70653 0.05574 0.02642 0.0
C366 C 0.74148 0.04878 0.03088 0.0
C367 C 0.73982 0.01368 0.01892 0.0
C368 C 0.70249 0.98582 0.00231 0.0
C369 C 0.66754 0.9928 0.99794 0.0
C370 C 0.61957 0.0256 0.06726 0.0
C371 C 0.63929 0.05373 0.09361 0.0
C372 C 0.6544 0.04471 0.12279 0.0
C373 C 0.65002 0.00754 0.1257 0.0
C374 C 0.62849 0.97903 0.10007 0.0
C375 C 0.61315 0.98796 0.07111 0.0
C376 C 0.54877 0.04297 0.06051 0.0
C377 C 0.55422 0.07743 0.07719 0.0
C378 C 0.53621 0.07696 0.10839 0.0
C379 C 0.51257 0.04198 0.12305 0.0
C380 C 0.50568 0.0075 0.10563 0.0
C381 C 0.52356 0.00798 0.07452 0.0
C382 C 0.54012 0.06115 0.83257 0.0
C383 C 0.77673 0.006 0.02387 0.0
H384 H 0.60931 0.02033 0.26869 0.0
H385 H 0.51835 0.17181 0.56895 0.0
H386 H 0.64742 0.95383 0.43348 0.0
H387 H 0.69543 0.93829 0.39908 0.0
H388 H 0.80263 0.0361 0.44655 0.0
H389 H 0.75483 0.05222 0.48019 0.0
H390 H 0.5807 0.98954 0.41091 0.0
H391 H 0.58099 0.9914 0.34952 0.0
H392 H 0.71439 0.07088 0.35621 0.0
H393 H 0.71344 0.06969 0.41762 0.0
H394 H 0.53781 0.0258 0.46126 0.0
H395 H 0.50607 0.06027 0.43084 0.0
H396 H 0.6305 0.14573 0.4074 0.0
H397 H 0.66221 0.11177 0.43793 0.0
H398 H 0.55083 0.01772 0.543 0.0
H399 H 0.50875 0.04735 0.56718 0.0
H400 H 0.59802 0.15678 0.53248 0.0
H401 H 0.64012 0.12697 0.50897 0.0
H402 H 0.61458 0.99004 0.57859 0.0
H403 H 0.62665 0.00771 0.6397 0.0
H404 H 0.70238 0.12623 0.61865 0.0
H405 H 0.69025 0.10874 0.55811 0.0
H406 H 0.65214 0.94708 0.51985 0.0
H407 H 0.6914 0.92404 0.55613 0.0
H408 H 0.77963 0.04101 0.58644 0.0
H409 H 0.74084 0.06403 0.54988 0.0
O410 O 0.61033 0.01821 0.29279 0.0
O411 O 0.68058 0.05041 0.2965 0.0
O412 O 0.49178 0.10343 0.58013 0.0
O413 O 0.53508 0.15964 0.5606 0.0
C414 C 0.6691 0.01752 0.476 0.0
C415 C 0.64568 0.03088 0.4562 0.0
C416 C 0.6223 0.04783 0.47203 0.0
C417 C 0.62217 0.05145 0.50752 0.0
C418 C 0.64585 0.0385 0.52726 0.0
C419 C 0.6688 0.02099 0.51157 0.0
C420 C 0.69764 0.00408 0.4594 0.0
C421 C 0.68128 0.97145 0.4369 0.0
C422 C 0.70854 0.96263 0.41735 0.0
C423 C 0.7524 0.98617 0.42035 0.0
C424 C 0.76885 0.01763 0.44405 0.0
C425 C 0.74164 0.02662 0.46335 0.0
C426 C 0.6471 0.02922 0.41876 0.0
C427 C 0.61003 0.00711 0.39906 0.0
C428 C 0.61026 0.0083 0.36401 0.0
C429 C 0.64769 0.03136 0.34798 0.0
C430 C 0.68505 0.05275 0.36776 0.0
C431 C 0.68466 0.05191 0.40284 0.0
C432 C 0.60226 0.06623 0.45156 0.0
C433 C 0.5581 0.05172 0.44921 0.0
C434 C 0.54004 0.07123 0.43192 0.0
C435 C 0.56605 0.10532 0.41691 0.0
C436 C 0.61006 0.11934 0.41877 0.0
C437 C 0.62806 0.09995 0.43599 0.0
C438 C 0.59828 0.07012 0.52401 0.0
C439 C 0.5614 0.04815 0.54093 0.0
C440 C 0.53738 0.06512 0.55461 0.0
C441 C 0.54987 0.10441 0.55155 0.0
C442 C 0.58737 0.12645 0.53515 0.0
C443 C 0.61146 0.10949 0.52166 0.0
C444 C 0.65132 0.04821 0.56407 0.0
C445 C 0.63359 0.01978 0.58729 0.0
C446 C 0.64053 0.02978 0.62193 0.0
C447 C 0.66555 0.06821 0.63344 0.0
C448 C 0.6831 0.09645 0.61013 0.0
C449 C 0.67602 0.08654 0.57573 0.0
C450 C 0.69346 0.00719 0.53247 0.0
C451 C 0.68005 0.9677 0.53419 0.0
C452 C 0.70227 0.95461 0.55486 0.0
C453 C 0.73815 0.9809 0.57398 0.0
C454 C 0.7519 0.02039 0.57191 0.0
C455 C 0.72978 0.03345 0.5512 0.0
C456 C 0.64739 0.03383 0.31088 0.0
C457 C 0.52379 0.12233 0.56508 0.0
H458 H 0.35418 0.26266 0.75831 0.0
H459 H 0.46708 0.0935 0.05812 0.0
H460 H 0.40636 0.34154 0.93512 0.0
H461 H 0.38573 0.38948 0.9167 0.0
H462 H 0.26216 0.32604 0.9566 0.0
H463 H 0.28233 0.27672 0.97376 0.0
H464 H 0.42077 0.29912 0.89773 0.0
H465 H 0.40455 0.29237 0.83715 0.0
H466 H 0.28332 0.19578 0.85213 0.0
H467 H 0.2999 0.20303 0.9128 0.0
H468 H 0.46286 0.27599 0.9295 0.0
H469 H 0.50843 0.25358 0.90019 0.0
H470 H 0.4189 0.13676 0.9146 0.0
H471 H 0.37149 0.15885 0.94228 0.0
H472 H 0.47872 0.25837 0.00903 0.0
H473 H 0.51379 0.22185 0.02992 0.0
H474 H 0.3923 0.12163 0.03239 0.0
H475 H 0.35766 0.15867 0.01183 0.0
H476 H 0.45125 0.31135 0.05046 0.0
H477 H 0.46716 0.31984 0.11141 0.0
H478 H 0.35313 0.21609 0.12601 0.0
H479 H 0.33711 0.20759 0.06465 0.0
H480 H 0.41527 0.35621 0.00862 0.0
H481 H 0.40834 0.40325 0.048 0.0
H482 H 0.29958 0.31221 0.08952 0.0
H483 H 0.30597 0.26518 0.04961 0.0
O484 O 0.36017 0.26467 0.78233 0.0
O485 O 0.29996 0.21302 0.79102 0.0
O486 O 0.51546 0.16122 0.04899 0.0
O487 O 0.45387 0.10882 0.05073 0.0
C488 C 0.35983 0.27818 0.96829 0.0
C489 C 0.3711 0.25502 0.94644 0.0
C490 C 0.39043 0.23385 0.95977 0.0
C491 C 0.39485 0.2329 0.99502 0.0
C492 C 0.38291 0.25547 0.0168 0.0
C493 C 0.36667 0.27903 0.00344 0.0
C494 C 0.34534 0.3049 0.95458 0.0
C495 C 0.37432 0.33712 0.93876 0.0
C496 C 0.36281 0.36475 0.92883 0.0
C497 C 0.32238 0.36101 0.93509 0.0
C498 C 0.29335 0.32908 0.95131 0.0
C499 C 0.30473 0.30099 0.96084 0.0
C500 C 0.36139 0.2517 0.90969 0.0
C501 C 0.39065 0.27665 0.88795 0.0
C502 C 0.38132 0.27268 0.8533 0.0
C503 C 0.34261 0.24354 0.83977 0.0
C504 C 0.31342 0.21853 0.8617 0.0
C505 C 0.32276 0.22264 0.89636 0.0
C506 C 0.41348 0.21905 0.93741 0.0
C507 C 0.45201 0.24542 0.925 0.0
C508 C 0.47814 0.2327 0.90858 0.0
C509 C 0.46659 0.19344 0.90502 0.0
C510 C 0.42766 0.16692 0.91668 0.0
C511 C 0.40088 0.17959 0.93249 0.0
C512 C 0.41573 0.21112 0.00903 0.0
C513 C 0.45977 0.22861 0.01438 0.0
C514 C 0.47968 0.20767 0.02624 0.0
C515 C 0.45584 0.16876 0.03277 0.0
C516 C 0.4116 0.15149 0.0276 0.0
C517 C 0.39172 0.17256 0.01594 0.0
C518 C 0.39313 0.25887 0.05335 0.0
C519 C 0.42983 0.29036 0.06678 0.0
C520 C 0.43878 0.29524 0.10138 0.0
C521 C 0.41115 0.26867 0.12293 0.0
C522 C 0.37458 0.23686 0.10956 0.0
C523 C 0.36563 0.23195 0.07479 0.0
C524 C 0.3609 0.30738 0.02616 0.0
C525 C 0.38957 0.3465 0.02586 0.0
C526 C 0.38579 0.3732 0.04832 0.0
C527 C 0.35353 0.361 0.07152 0.0
C528 C 0.32459 0.32197 0.07165 0.0
C529 C 0.32823 0.29527 0.04903 0.0
C530 C 0.33283 0.23934 0.80294 0.0
C531 C 0.47698 0.1462 0.0447 0.0
C532 C 0.18328 0.5281 0.25762 0.0
C533 C 0.21601 0.55555 0.23912 0.0
C534 C 0.18737 0.60139 0.24942 0.0
C535 C 0.15189 0.57227 0.26413 0.0
N536 N 0.11408 0.50751 0.28123 0.0
N537 N 0.24966 0.61783 0.21633 0.0
C538 C 0.14951 0.53561 0.26832 0.0
C539 C 0.21835 0.59221 0.23491 0.0
N540 N 0.18449 0.49485 0.26485 0.0
N541 N 0.1915 0.63786 0.24973 0.0
H542 H 0.27416 0.61285 0.20691 0.0
H543 H 0.25045 0.64319 0.20882 0.0
H544 H 0.169 0.6453 0.25974 0.0
H545 H 0.2185 0.66139 0.2425 0.0
H546 H 0.16419 0.47548 0.28121 0.0
H547 H 0.20791 0.48777 0.25642 0.0
H548 H 0.10784 0.47888 0.2812 0.0
H549 H 0.08935 0.51232 0.29037 0.0
C550 C 0.16 0.85748 0.75283 0.0
C551 C 0.18941 0.86775 0.78058 0.0
C552 C 0.16255 0.79994 0.792 0.0
C553 C 0.13023 0.7901 0.76672 0.0
N554 N 0.09477 0.80932 0.72523 0.0
N555 N 0.21321 0.84957 0.83069 0.0
C556 C 0.12802 0.81882 0.74764 0.0
C557 C 0.18936 0.83919 0.80123 0.0
N558 N 0.16359 0.88435 0.73077 0.0
N559 N 0.16819 0.77171 0.80673 0.0
H560 H 0.23222 0.87804 0.83915 0.0
H561 H 0.21089 0.83014 0.84845 0.0
H562 H 0.1492 0.74255 0.80057 0.0
H563 H 0.19408 0.7772 0.82265 0.0
H564 H 0.14599 0.87782 0.70814 0.0
H565 H 0.18678 0.91285 0.73365 0.0
H566 H 0.08867 0.82951 0.71342 0.0
H567 H 0.07135 0.78119 0.72018 0.0
C568 C 0.97887 0.84562 0.3291 0.0
C569 C 0.95642 0.84939 0.30083 0.0
C570 C 0.94101 0.78454 0.27948 0.0
C571 C 0.96834 0.78304 0.30503 0.0
N572 N 0.02063 0.81605 0.35002 0.0
N573 N 0.92633 0.82582 0.24441 0.0
C574 C 0.98954 0.81478 0.32864 0.0
C575 C 0.94033 0.81981 0.27463 0.0
N576 N 0.98811 0.87006 0.35714 0.0
N577 N 0.91461 0.75211 0.26051 0.0
H578 H 0.9281 0.85215 0.23866 0.0
H579 H 0.91785 0.80608 0.22368 0.0
H580 H 0.91273 0.72521 0.26414 0.0
H581 H 0.89136 0.75126 0.24374 0.0
H582 H 0.00097 0.86612 0.37943 0.0
H583 H 0.97856 0.89155 0.35959 0.0
H584 H 0.0398 0.8403 0.36544 0.0
H585 H 0.03007 0.79443 0.34988 0.0
C586 C 0.78635 0.3277 0.75838 0.0
C587 C 0.79742 0.31645 0.78887 0.0
C588 C 0.85588 0.38112 0.79937 0.0
C589 C 0.84092 0.39359 0.77164 0.0
N590 N 0.78806 0.38002 0.72741 0.0
N591 N 0.83816 0.33465 0.84168 0.0
C592 C 0.80509 0.36722 0.7518 0.0
C593 C 0.83113 0.34368 0.81024 0.0
N594 N 0.75921 0.30054 0.73507 0.0
N595 N 0.89425 0.40471 0.81486 0.0
H596 H 0.81987 0.30807 0.85133 0.0
H597 H 0.85944 0.35481 0.85949 0.0
H598 H 0.9136 0.43221 0.80736 0.0
H599 H 0.90868 0.39562 0.83288 0.0
H600 H 0.75326 0.30687 0.71105 0.0
H601 H 0.74607 0.27118 0.73833 0.0
H602 H 0.75928 0.36266 0.71468 0.0
H603 H 0.80077 0.4088 0.72195 0.0
C604 C 0.38425 0.46416 0.36692 0.0
C605 C 0.37366 0.44466 0.33453 0.0
C606 C 0.39 0.39451 0.35448 0.0
C607 C 0.40139 0.41441 0.38667 0.0
N608 N 0.41746 0.47122 0.4223 0.0
N609 N 0.37497 0.39641 0.29514 0.0
C610 C 0.40114 0.45031 0.39246 0.0
C611 C 0.37911 0.41132 0.3276 0.0
N612 N 0.37629 0.49479 0.37367 0.0
N613 N 0.38816 0.35893 0.34994 0.0
H614 H 0.36721 0.40813 0.27479 0.0
H615 H 0.38278 0.3746 0.28788 0.0
H616 H 0.39708 0.34613 0.36876 0.0
H617 H 0.37532 0.34097 0.32827 0.0
H618 H 0.3787 0.50756 0.39772 0.0
H619 H 0.36432 0.50597 0.3555 0.0
H620 H 0.42219 0.49929 0.42693 0.0
H621 H 0.42962 0.46162 0.44165 0.0
C622 C 0.41138 0.06805 0.87687 0.0
C623 C 0.37002 0.06136 0.88553 0.0
C624 C 0.38828 0.06241 0.94546 0.0
C625 C 0.42957 0.06912 0.93672 0.0
N626 N 0.48367 0.0874 0.89548 0.0
N627 N 0.32163 0.06066 0.92773 0.0
C628 C 0.4422 0.07513 0.90288 0.0
C629 C 0.35919 0.06105 0.91981 0.0
N630 N 0.42051 0.06503 0.84384 0.0
N631 N 0.37676 0.05657 0.97815 0.0
H632 H 0.30007 0.06023 0.90944 0.0
H633 H 0.3134 0.06413 0.95223 0.0
H634 H 0.3981 0.05945 0.99767 0.0
H635 H 0.34588 0.04728 0.98577 0.0
H636 H 0.44833 0.06476 0.83621 0.0
H637 H 0.39903 0.05974 0.8238 0.0
H638 H 0.49556 0.09692 0.87211 0.0
H639 H 0.50721 0.09138 0.91331 0.0
C640 C 0.81522 0.9413 0.37607 0.0
C641 C 0.83649 0.96896 0.35224 0.0
C642 C 0.79882 0.00524 0.37078 0.0
C643 C 0.78102 0.97984 0.39682 0.0
N644 N 0.7775 0.9274 0.42805 0.0
N645 N 0.85546 0.03154 0.33192 0.0
C646 C 0.79077 0.94892 0.40061 0.0
C647 C 0.83021 0.00216 0.35096 0.0
N648 N 0.81664 0.90697 0.37428 0.0
N649 N 0.78484 0.03162 0.36429 0.0
H650 H 0.87976 0.03097 0.31779 0.0
H651 H 0.8551 0.058 0.33277 0.0
H652 H 0.76167 0.03469 0.37813 0.0
H653 H 0.79334 0.04795 0.34325 0.0
H654 H 0.79813 0.88422 0.38871 0.0
H655 H 0.83325 0.89976 0.35618 0.0
H656 H 0.78752 0.90718 0.43407 0.0
H657 H 0.75928 0.93202 0.44642 0.0
C658 C 0.53658 0.17505 0.84397 0.0
C659 C 0.57124 0.18165 0.86613 0.0
C660 C 0.53156 0.18529 0.91478 0.0
C661 C 0.49811 0.18135 0.89257 0.0
N662 N 0.46267 0.16132 0.83799 0.0
N663 N 0.59666 0.18008 0.92203 0.0
C664 C 0.49849 0.17217 0.85775 0.0
C665 C 0.56689 0.18233 0.90143 0.0
N666 N 0.54102 0.17427 0.80989 0.0
N667 N 0.53053 0.19395 0.94837 0.0
H668 H 0.62283 0.17783 0.91262 0.0
H669 H 0.59331 0.17661 0.94779 0.0
H670 H 0.50411 0.19431 0.95924 0.0
H671 H 0.55622 0.20198 0.96524 0.0
H672 H 0.51884 0.17427 0.79255 0.0
H673 H 0.56803 0.17553 0.7988 0.0
H674 H 0.45948 0.15081 0.81301 0.0
H675 H 0.43464 0.15952 0.8476 0.0
C676 C 0.3421 0.1211 0.67462 0.0
C677 C 0.34993 0.13602 0.70872 0.0
C678 C 0.38799 0.20143 0.68983 0.0
C679 C 0.3826 0.18615 0.656 0.0
N680 N 0.36312 0.1314 0.61677 0.0
N681 N 0.38821 0.18948 0.74904 0.0
C682 C 0.36241 0.14592 0.64862 0.0
C683 C 0.3752 0.17598 0.71643 0.0
N684 N 0.3133 0.08378 0.66679 0.0
N685 N 0.40395 0.24015 0.6965 0.0
H686 H 0.38052 0.17165 0.7691 0.0
H687 H 0.40997 0.21773 0.75586 0.0
H688 H 0.41379 0.25974 0.67776 0.0
H689 H 0.40452 0.2527 0.72033 0.0
H690 H 0.30306 0.07263 0.64219 0.0
H691 H 0.29629 0.06484 0.68481 0.0
H692 H 0.35278 0.10228 0.61069 0.0
H693 H 0.37781 0.14879 0.5971 0.0
C694 C 0.67223 0.97687 0.21018 0.0
C695 C 0.71248 0.97859 0.20451 0.0
C696 C 0.71348 0.00375 0.14916 0.0
C697 C 0.6719 0.99916 0.15368 0.0
N698 N 0.60929 0.97767 0.18618 0.0
N699 N 0.7676 0.98608 0.16615 0.0
C700 C 0.65051 0.98462 0.18358 0.0
C701 C 0.73224 0.99019 0.1734 0.0
N702 N 0.65545 0.96895 0.24129 0.0
N703 N 0.73519 0.02134 0.12173 0.0
H704 H 0.78176 0.97513 0.18272 0.0
H705 H 0.78064 0.98993 0.14248 0.0
H706 H 0.72213 0.03064 0.10281 0.0
H707 H 0.76724 0.0295 0.11899 0.0
H708 H 0.62766 0.96982 0.24795 0.0
H709 H 0.6709 0.96398 0.26151 0.0
H710 H 0.5903 0.9635 0.20572 0.0
H711 H 0.59299 0.984 0.16748 0.0
C712 C 0.6721 0.12472 0.7145 0.0
C713 C 0.70079 0.11734 0.73449 0.0
C714 C 0.7033 0.0738 0.68897 0.0
C715 C 0.67322 0.08001 0.66987 0.0
N716 N 0.62036 0.1024 0.66793 0.0
N717 N 0.73534 0.07779 0.74414 0.0
C718 C 0.6546 0.10234 0.68397 0.0
C719 C 0.71376 0.08957 0.72277 0.0
N720 N 0.66414 0.15505 0.72294 0.0
N721 N 0.72306 0.0542 0.67443 0.0
H722 H 0.74134 0.08704 0.76958 0.0
H723 H 0.74363 0.05612 0.73763 0.0
H724 H 0.71574 0.04171 0.64992 0.0
H725 H 0.74872 0.05252 0.68575 0.0
H726 H 0.64699 0.16386 0.70721 0.0
H727 H 0.67828 0.17417 0.74374 0.0
H728 H 0.60292 0.11524 0.67867 0.0
H729 H 0.60683 0.08625 0.64541 0.0
C730 C 0.37596 0.42994 0.14857 0.0
C731 C 0.34103 0.43819 0.14606 0.0
C732 C 0.31911 0.40129 0.09159 0.0
C733 C 0.35057 0.38901 0.09641 0.0
N734 N 0.40643 0.38804 0.13088 0.0
N735 N 0.27568 0.42741 0.11756 0.0
C736 C 0.37846 0.40244 0.12524 0.0
C737 C 0.31176 0.42302 0.11805 0.0
N738 N 0.40745 0.44935 0.17259 0.0
N739 N 0.29673 0.39267 0.06151 0.0
H740 H 0.26849 0.44245 0.13668 0.0
H741 H 0.25102 0.41332 0.09967 0.0
H742 H 0.30107 0.3765 0.04166 0.0
H743 H 0.27665 0.40434 0.05514 0.0
H744 H 0.43574 0.44741 0.17359 0.0
H745 H 0.40718 0.47036 0.18963 0.0
H746 H 0.4242 0.39344 0.1533 0.0
H747 H 0.40957 0.36815 0.1142 0.0
C748 C 0.8837 0.77429 0.69284 0.0
C749 C 0.91234 0.81053 0.70828 0.0
C750 C 0.95608 0.7826 0.7308 0.0
C751 C 0.92563 0.74585 0.71771 0.0
N752 N 0.85795 0.70522 0.69004 0.0
N753 N 0.97192 0.8484 0.74647 0.0
C754 C 0.8887 0.74125 0.69973 0.0
C755 C 0.94764 0.81455 0.72837 0.0
N756 N 0.85265 0.77174 0.67068 0.0
N757 N 0.99341 0.78703 0.74509 0.0
H758 H 0.96665 0.87246 0.74569 0.0
H759 H 0.99504 0.8518 0.76452 0.0
H760 H 0.00035 0.76416 0.74806 0.0
H761 H 0.01885 0.81363 0.75169 0.0
H762 H 0.83354 0.747 0.65585 0.0
H763 H 0.84816 0.79538 0.665 0.0
H764 H 0.82824 0.69956 0.68022 0.0
H765 H 0.86095 0.68045 0.69411 0.0
C766 C 0.69898 0.39013 0.29073 0.0
C767 C 0.67548 0.39224 0.3188 0.0
C768 C 0.73685 0.45096 0.34088 0.0
C769 C 0.76138 0.44635 0.31474 0.0
N770 N 0.76829 0.40666 0.26932 0.0
N771 N 0.675 0.4201 0.37425 0.0
C772 C 0.74321 0.41434 0.29111 0.0
C773 C 0.69526 0.42137 0.34498 0.0
N774 N 0.67887 0.36684 0.26273 0.0
N775 N 0.75252 0.4842 0.36092 0.0
H776 H 0.64503 0.39824 0.37862 0.0
H777 H 0.68963 0.43848 0.3954 0.0
H778 H 0.78258 0.50685 0.35844 0.0
H779 H 0.73427 0.49069 0.37794 0.0
H780 H 0.69415 0.36728 0.24042 0.0
H781 H 0.64617 0.35022 0.26026 0.0
H782 H 0.75723 0.38149 0.25387 0.0
H783 H 0.80099 0.42354 0.26911 0.0
C784 C 0.20311 0.56427 0.81675 0.0
C785 C 0.24501 0.59346 0.8135 0.0
C786 C 0.2176 0.63785 0.79718 0.0
C787 C 0.17591 0.60745 0.79708 0.0
N788 N 0.12867 0.54035 0.80214 0.0
N789 N 0.29276 0.6565 0.79657 0.0
C790 C 0.16856 0.57025 0.80561 0.0
C791 C 0.2525 0.62999 0.80281 0.0
N792 N 0.19626 0.53142 0.83178 0.0
N793 N 0.22371 0.67429 0.79246 0.0
H794 H 0.31908 0.6517 0.80016 0.0
H795 H 0.29982 0.682 0.78528 0.0
H796 H 0.19879 0.68083 0.78776 0.0
H797 H 0.25299 0.69842 0.79578 0.0
H798 H 0.16646 0.51095 0.8382 0.0
H799 H 0.22072 0.52616 0.84083 0.0
H800 H 0.12215 0.5118 0.80401 0.0
H801 H 0.10229 0.54364 0.79476 0.0
C802 C 0.2089 0.83638 0.28719 0.0
C803 C 0.24799 0.83526 0.29233 0.0
C804 C 0.21019 0.76666 0.30201 0.0
C805 C 0.17127 0.76834 0.29865 0.0
N806 N 0.13293 0.8054 0.29365 0.0
N807 N 0.28638 0.80182 0.31086 0.0
C808 C 0.17046 0.80348 0.29313 0.0
C809 C 0.24879 0.80105 0.3015 0.0
N810 N 0.2083 0.86803 0.27468 0.0
N811 N 0.21022 0.73204 0.30497 0.0
H812 H 0.31519 0.82668 0.3113 0.0
H813 H 0.28871 0.77888 0.32108 0.0
H814 H 0.1826 0.70645 0.30678 0.0
H815 H 0.23731 0.72819 0.30339 0.0
H816 H 0.18071 0.86888 0.26672 0.0
H817 H 0.23562 0.89259 0.26951 0.0
H818 H 0.13083 0.83105 0.2937 0.0
H819 H 0.10389 0.78158 0.29662 0.0
C820 C 0.76645 0.93775 0.648 0.0
C821 C 0.80846 0.94526 0.64054 0.0
C822 C 0.80113 0.9701 0.58674 0.0
C823 C 0.76153 0.96724 0.59636 0.0
N824 N 0.70912 0.95397 0.63848 0.0
N825 N 0.8686 0.97497 0.60533 0.0
C826 C 0.74484 0.95257 0.62765 0.0
C827 C 0.82655 0.96292 0.61045 0.0
N828 N 0.74662 0.91527 0.67379 0.0
N829 N 0.81421 0.97917 0.55476 0.0
H830 H 0.8889 0.97156 0.62246 0.0
H831 H 0.88433 0.99169 0.58564 0.0
H832 H 0.7965 0.98483 0.53675 0.0
H833 H 0.84065 0.97766 0.54519 0.0
H834 H 0.71468 0.90583 0.67831 0.0
H835 H 0.76094 0.9029 0.68863 0.0
H836 H 0.69834 0.94781 0.66276 0.0
H837 H 0.69225 0.96448 0.62423 0.0
C838 C 0.47212 0.27925 0.20411 0.0
C839 C 0.45778 0.30129 0.22482 0.0
C840 C 0.40692 0.29617 0.18024 0.0
C841 C 0.4217 0.2746 0.15953 0.0
N842 N 0.45949 0.23699 0.154 0.0
N843 N 0.40564 0.32321 0.23631 0.0
C844 C 0.45126 0.26312 0.17237 0.0
C845 C 0.42315 0.3073 0.21403 0.0
N846 N 0.50748 0.276 0.21358 0.0
N847 N 0.37862 0.30717 0.16714 0.0
H848 H 0.41676 0.33123 0.26131 0.0
H849 H 0.37808 0.32545 0.23108 0.0
H850 H 0.36506 0.29837 0.14285 0.0
H851 H 0.37008 0.32648 0.17958 0.0
H852 H 0.52231 0.26429 0.19771 0.0
H853 H 0.52424 0.28762 0.23641 0.0
H854 H 0.47748 0.22446 0.16337 0.0
H855 H 0.44504 0.22508 0.1304 0.0
C856 C 0.42613 0.46445 0.70224 0.0
C857 C 0.40569 0.44725 0.73173 0.0
C858 C 0.40059 0.3855 0.71004 0.0
C859 C 0.41648 0.40169 0.67909 0.0
N860 N 0.43737 0.45491 0.64335 0.0
N861 N 0.36553 0.38953 0.76073 0.0
C862 C 0.42736 0.44075 0.6745 0.0
C863 C 0.39088 0.40726 0.73495 0.0
N864 N 0.44579 0.5035 0.70115 0.0
N865 N 0.39548 0.34959 0.71586 0.0
H866 H 0.35588 0.40391 0.77872 0.0
H867 H 0.35042 0.35986 0.7623 0.0
H868 H 0.40236 0.33285 0.69815 0.0
H869 H 0.38824 0.33791 0.73929 0.0
H870 H 0.46494 0.51769 0.68166 0.0
H871 H 0.44645 0.52195 0.72124 0.0
H872 H 0.44089 0.48186 0.63776 0.0
H873 H 0.43849 0.43853 0.62227 0.0
C874 C 0.49851 0.02265 0.21545 0.0
C875 C 0.46018 0.02485 0.22101 0.0
C876 C 0.45872 0.04304 0.16306 0.0
C877 C 0.49701 0.04094 0.15762 0.0
N878 N 0.55911 0.03898 0.18048 0.0
N879 N 0.40996 0.04669 0.20364 0.0
C880 C 0.51884 0.03419 0.18453 0.0
C881 C 0.44225 0.03813 0.19586 0.0
N882 N 0.51405 0.00718 0.23863 0.0
N883 N 0.43722 0.04812 0.1366 0.0
H884 H 0.39779 0.04403 0.22767 0.0
H885 H 0.39807 0.05985 0.18744 0.0
H886 H 0.44885 0.05269 0.11241 0.0
H887 H 0.40673 0.04541 0.13808 0.0
H888 H 0.53876 0.0004 0.23399 0.0
H889 H 0.50028 0.99826 0.26163 0.0
H890 H 0.57835 0.03843 0.20021 0.0
H891 H 0.57477 0.04709 0.158 0.0
C892 C 0.52816 0.14823 0.34886 0.0
C893 C 0.53711 0.1841 0.3658 0.0
C894 C 0.54859 0.16003 0.41873 0.0
C895 C 0.54825 0.12806 0.40036 0.0
N896 N 0.53916 0.09149 0.34776 0.0
N897 N 0.5618 0.22591 0.41691 0.0
C898 C 0.53804 0.12186 0.36538 0.0
C899 C 0.54809 0.19034 0.40095 0.0
N900 N 0.50911 0.13892 0.31737 0.0
N901 N 0.55051 0.16177 0.45315 0.0
H902 H 0.56515 0.25004 0.40491 0.0
H903 H 0.57435 0.23258 0.44155 0.0
H904 H 0.55118 0.13996 0.46676 0.0
H905 H 0.54717 0.18276 0.46807 0.0
H906 H 0.49855 0.1119 0.30505 0.0
H907 H 0.49911 0.15656 0.30527 0.0
H908 H 0.53704 0.08806 0.32155 0.0
H909 H 0.54455 0.07073 0.35937 0.0
C910 C 0.33709 0.46093 0.92453 0.0
C911 C 0.31445 0.45519 0.89342 0.0
C912 C 0.28695 0.38566 0.89473 0.0
C913 C 0.31173 0.39147 0.92466 0.0
N914 N 0.34883 0.432 0.97366 0.0
N915 N 0.25698 0.41309 0.85553 0.0
C916 C 0.33268 0.42836 0.94157 0.0
C917 C 0.28545 0.41771 0.88093 0.0
N918 N 0.365 0.49714 0.93649 0.0
N919 N 0.26733 0.35015 0.87825 0.0
H920 H 0.25526 0.43643 0.84537 0.0
H921 H 0.23263 0.38654 0.84704 0.0
H922 H 0.26728 0.32582 0.88774 0.0
H923 H 0.25321 0.34519 0.85422 0.0
H924 H 0.38625 0.50281 0.95677 0.0
H925 H 0.36842 0.52169 0.92509 0.0
H926 H 0.36142 0.45762 0.98853 0.0
H927 H 0.34588 0.40836 0.98649 0.0
C928 C 0.42591 0.12013 0.391 0.0
C929 C 0.42708 0.08723 0.40334 0.0
C930 C 0.43988 0.11688 0.46097 0.0
C931 C 0.43373 0.14748 0.44902 0.0
N932 N 0.41723 0.17723 0.40329 0.0
N933 N 0.42839 0.05138 0.45062 0.0
C934 C 0.42577 0.14884 0.41418 0.0
C935 C 0.43264 0.08492 0.43847 0.0
N936 N 0.42666 0.12478 0.35712 0.0
N937 N 0.45295 0.11852 0.49373 0.0
H938 H 0.42172 0.02687 0.43517 0.0
H939 H 0.42776 0.0467 0.47619 0.0
H940 H 0.45747 0.14108 0.51104 0.0
H941 H 0.46269 0.09927 0.50294 0.0
H942 H 0.43102 0.15017 0.34684 0.0
H943 H 0.42713 0.10469 0.33917 0.0
H944 H 0.40576 0.17702 0.37903 0.0
H945 H 0.41872 0.19983 0.41917 0.0
C946 C 0.70646 0.00274 0.79848 0.0
C947 C 0.74307 0.9978 0.80479 0.0
C948 C 0.73927 0.0101 0.86535 0.0
C949 C 0.7047 0.01795 0.85877 0.0
N950 N 0.661 0.02978 0.81881 0.0
N951 N 0.80003 0.00546 0.84308 0.0
C952 C 0.69004 0.0168 0.8252 0.0
C953 C 0.76119 0.00405 0.83792 0.0
N954 N 0.68606 0.99213 0.76751 0.0
N955 N 0.75012 0.00685 0.89771 0.0
H956 H 0.81761 0.00208 0.82352 0.0
H957 H 0.81666 0.0138 0.86624 0.0
H958 H 0.7348 0.01089 0.91862 0.0
H959 H 0.7719 0.99689 0.90366 0.0
H960 H 0.65678 0.99134 0.76254 0.0
H961 H 0.69675 0.98124 0.74737 0.0
H962 H 0.65252 0.03343 0.79459 0.0
H963 H 0.64834 0.0403 0.83784 0.0
loop_
_geom_bond_atom_site_label_1
_geom_bond_atom_site_label_2
_geom_bond_distance
_geom_bond_site_symmetry_2
_ccdc_geom_bond_type
O0 Cd1 2.300 . S
O0 C7 1.275 . S
Cd1 O0 2.300 . S
Cd1 O9 2.381 . S
Cd1 O10 2.378 . S
O2 Cd3 2.385 . S
O2 C7 1.255 . S
Cd3 O2 2.385 . S
Cd3 O4 2.317 . S
O4 Cd3 2.317 . S
O4 C5 1.232 . S
C5 O4 1.232 . S
C5 O6 1.218 . S
O6 C5 1.218 . S
C7 O0 1.275 . S
C7 O2 1.255 . S
C8 O9 1.258 . S
C8 O10 1.256 . S
O9 Cd1 2.381 . S
O9 C8 1.258 . S
O10 Cd1 2.378 . S
O10 C8 1.256 . S
O11 Cd12 2.300 . S
O11 C18 1.275 . S
Cd12 O11 2.300 . S
Cd12 O20 2.381 . S
Cd12 O21 2.378 . S
O13 Cd14 2.385 . S
O13 C18 1.255 1_565 S
Cd14 O13 2.385 . S
Cd14 O15 2.317 . S
O15 Cd14 2.317 . S
O15 C16 1.232 . S
C16 O15 1.232 . S
C16 O17 1.218 . S
O17 C16 1.218 . S
C18 O11 1.275 . S
C18 O13 1.255 1_545 S
C19 O20 1.258 . S
C19 O21 1.256 . S
O20 Cd12 2.381 . S
O20 C19 1.258 . S
O21 Cd12 2.378 . S
O21 C19 1.256 . S
O22 Cd23 2.300 . S
O22 C29 1.275 . S
Cd23 O22 2.300 . S
Cd23 O31 2.381 . S
Cd23 O32 2.378 . S
O24 Cd25 2.385 . S
O24 C29 1.255 . S
Cd25 O24 2.385 . S
Cd25 O26 2.317 . S
O26 Cd25 2.317 . S
O26 C27 1.232 . S
C27 O26 1.232 . S
C27 O28 1.218 . S
O28 C27 1.218 . S
C29 O22 1.275 . S
C29 O24 1.255 . S
C30 O31 1.258 . S
C30 O32 1.256 . S
O31 Cd23 2.381 . S
O31 C30 1.258 . S
O32 Cd23 2.378 . S
O32 C30 1.256 . S
O33 Cd34 2.300 . S
O33 C40 1.275 . S
Cd34 O33 2.300 . S
Cd34 O42 2.381 . S
Cd34 O43 2.378 . S
O35 Cd36 2.385 . S
O35 C40 1.255 . S
Cd36 O35 2.385 . S
Cd36 O37 2.317 . S
O37 Cd36 2.317 . S
O37 C38 1.232 . S
C38 O37 1.232 . S
C38 O39 1.218 . S
O39 C38 1.218 . S
C40 O33 1.275 . S
C40 O35 1.255 . S
C41 O42 1.258 . S
C41 O43 1.256 . S
O42 Cd34 2.381 . S
O42 C41 1.258 . S
O43 Cd34 2.378 . S
O43 C41 1.256 . S
O44 Cd45 2.300 . S
O44 C51 1.275 . S
Cd45 O44 2.300 . S
Cd45 O53 2.381 . S
Cd45 O54 2.378 . S
O46 Cd47 2.385 . S
O46 C51 1.255 . S
Cd47 O46 2.385 . S
Cd47 O48 2.317 . S
O48 Cd47 2.317 . S
O48 C49 1.232 . S
C49 O48 1.232 . S
C49 O50 1.218 . S
O50 C49 1.218 . S
C51 O44 1.275 . S
C51 O46 1.255 . S
C52 O53 1.258 . S
C52 O54 1.256 . S
O53 Cd45 2.381 . S
O53 C52 1.258 . S
O54 Cd45 2.378 . S
O54 C52 1.256 . S
O55 Cd56 2.300 . S
O55 C62 1.275 . S
Cd56 O55 2.300 . S
Cd56 O64 2.381 . S
Cd56 O65 2.378 . S
O57 Cd58 2.385 . S
O57 C62 1.255 . S
Cd58 O57 2.385 . S
Cd58 O59 2.317 . S
O59 Cd58 2.317 . S
O59 C60 1.232 . S
C60 O59 1.232 . S
C60 O61 1.218 . S
O61 C60 1.218 . S
C62 O55 1.275 . S
C62 O57 1.255 . S
C63 O64 1.258 . S
C63 O65 1.256 . S
O64 Cd56 2.381 . S
O64 C63 1.258 . S
O65 Cd56 2.378 . S
O65 C63 1.256 . S
O66 Cd67 2.300 . S
O66 C73 1.275 . S
Cd67 O66 2.300 . S
Cd67 O75 2.381 . S
Cd67 O76 2.378 . S
O68 Cd69 2.385 . S
O68 C73 1.255 . S
Cd69 O68 2.385 . S
Cd69 O70 2.317 . S
O70 Cd69 2.317 . S
O70 C71 1.232 . S
C71 O70 1.232 . S
C71 O72 1.218 . S
O72 C71 1.218 . S
C73 O66 1.275 . S
C73 O68 1.255 . S
C74 O75 1.258 . S
C74 O76 1.256 . S
O75 Cd67 2.381 . S
O75 C74 1.258 . S
O76 Cd67 2.378 . S
O76 C74 1.256 . S
O77 Cd78 2.300 1_565 S
O77 C84 1.275 . S
Cd78 O77 2.300 1_545 S
Cd78 O86 2.381 . S
Cd78 O87 2.378 . S
O79 Cd80 2.385 . S
O79 C84 1.255 . S
Cd80 O79 2.385 . S
Cd80 O81 2.317 . S
O81 Cd80 2.317 . S
O81 C82 1.232 . S
C82 O81 1.232 . S
C82 O83 1.218 . S
O83 C82 1.218 . S
C84 O77 1.275 . S
C84 O79 1.255 . S
C85 O86 1.258 . S
C85 O87 1.256 . S
O86 Cd78 2.381 . S
O86 C85 1.258 . S
O87 Cd78 2.378 . S
O87 C85 1.256 . S
H88 O114 0.856 . S
H89 O117 0.854 . S
H90 C125 0.930 . S
H91 C126 0.930 . S
H92 C128 0.930 . S
H93 C129 0.930 . S
H94 C131 0.931 . S
H95 C132 0.930 . S
H96 C134 0.930 . S
H97 C135 0.929 . S
H98 C137 0.930 . S
H99 C138 0.931 . S
H100 C140 0.930 . S
H101 C141 0.929 . S
H102 C143 0.931 . S
H103 C144 0.930 . S
H104 C146 0.930 . S
H105 C147 0.932 . S
H106 C149 0.930 . S
H107 C150 0.929 . S
H108 C152 0.931 . S
H109 C153 0.930 . S
H110 C155 0.929 . S
H111 C156 0.931 . S
H112 C158 0.930 . S
H113 C159 0.929 . S
O114 H88 0.856 . S
O114 C160 1.300 . S
O115 C160 1.209 . S
O116 C161 1.199 . S
O117 H89 0.854 . S
O117 C161 1.297 . S
C118 C119 1.405 1_455 S
C118 C123 1.398 1_455 S
C118 C124 1.491 . S
C119 C118 1.405 1_655 S
C119 C120 1.396 . S
C119 C130 1.492 . S
C120 C119 1.396 . S
C120 C121 1.397 . S
C120 C136 1.509 . S
C121 C120 1.397 . S
C121 C122 1.412 . S
C121 C142 1.485 . S
C122 C121 1.412 . S
C122 C123 1.388 . S
C122 C148 1.490 . S
C123 C118 1.398 1_655 S
C123 C122 1.388 . S
C123 C154 1.519 1_655 S
C124 C118 1.491 . S
C124 C125 1.363 . S
C124 C129 1.390 . S
C125 H90 0.930 . S
C125 C124 1.363 . S
C125 C126 1.372 . S
C126 H91 0.930 . S
C126 C125 1.372 . S
C126 C127 1.383 . S
C127 C126 1.383 . S
C127 C128 1.395 . S
C128 H92 0.930 . S
C128 C127 1.395 . S
C128 C129 1.362 . S
C129 H93 0.930 . S
C129 C124 1.390 . S
C129 C128 1.362 . S
C130 C119 1.492 . S
C130 C131 1.377 . S
C130 C135 1.397 . S
C131 H94 0.931 . S
C131 C130 1.377 . S
C131 C132 1.376 . S
C132 H95 0.930 . S
C132 C131 1.376 . S
C132 C133 1.376 . S
C133 C132 1.376 . S
C133 C134 1.378 . S
C133 C160 1.486 . S
C134 H96 0.930 . S
C134 C133 1.378 . S
C134 C135 1.376 . S
C135 H97 0.929 . S
C135 C130 1.397 . S
C135 C134 1.376 . S
C136 C120 1.509 . S
C136 C137 1.391 . S
C136 C141 1.386 . S
C137 H98 0.930 . S
C137 C136 1.391 . S
C137 C138 1.375 . S
C138 H99 0.931 . S
C138 C137 1.375 . S
C138 C139 1.375 . S
C139 C138 1.375 . S
C139 C140 1.361 . S
C140 H100 0.930 . S
C140 C139 1.361 . S
C140 C141 1.399 . S
C141 H101 0.929 . S
C141 C136 1.386 . S
C141 C140 1.399 . S
C142 C121 1.485 . S
C142 C143 1.394 . S
C142 C147 1.360 . S
C143 H102 0.931 . S
C143 C142 1.394 . S
C143 C144 1.372 . S
C144 H103 0.930 . S
C144 C143 1.372 . S
C144 C145 1.397 . S
C145 C144 1.397 . S
C145 C146 1.390 . S
C145 C161 1.476 . S
C146 H104 0.930 . S
C146 C145 1.390 . S
C146 C147 1.366 . S
C147 H105 0.932 . S
C147 C142 1.360 . S
C147 C146 1.366 . S
C148 C122 1.490 . S
C148 C149 1.380 . S
C148 C153 1.386 . S
C149 H106 0.930 . S
C149 C148 1.380 . S
C149 C150 1.381 . S
C150 H107 0.929 . S
C150 C149 1.381 . S
C150 C151 1.371 . S
C151 C150 1.371 . S
C151 C152 1.380 . S
C152 H108 0.931 . S
C152 C151 1.380 . S
C152 C153 1.387 . S
C153 H109 0.930 . S
C153 C148 1.386 . S
C153 C152 1.387 . S
C154 C123 1.519 1_455 S
C154 C155 1.377 . S
C154 C159 1.361 . S
C155 H110 0.929 . S
C155 C154 1.377 . S
C155 C156 1.386 . S
C156 H111 0.931 . S
C156 C155 1.386 . S
C156 C157 1.363 . S
C157 C156 1.363 . S
C157 C158 1.385 . S
C158 H112 0.930 . S
C158 C157 1.385 . S
C158 C159 1.396 . S
C159 H113 0.929 . S
C159 C154 1.361 . S
C159 C158 1.396 . S
C160 O114 1.300 . S
C160 O115 1.209 . S
C160 C133 1.486 . S
C161 O116 1.199 . S
C161 O117 1.297 . S
C161 C145 1.476 . S
H162 O188 0.856 . S
H163 O191 0.854 . S
H164 C199 0.930 . S
H165 C200 0.930 . S
H166 C202 0.930 . S
H167 C203 0.930 . S
H168 C205 0.931 . S
H169 C206 0.930 . S
H170 C208 0.930 . S
H171 C209 0.929 . S
H172 C211 0.930 . S
H173 C212 0.931 . S
H174 C214 0.930 . S
H175 C215 0.929 . S
H176 C217 0.931 . S
H177 C218 0.930 . S
H178 C220 0.930 . S
H179 C221 0.932 . S
H180 C223 0.930 . S
H181 C224 0.929 . S
H182 C226 0.931 . S
H183 C227 0.930 . S
H184 C229 0.929 . S
H185 C230 0.931 . S
H186 C232 0.930 . S
H187 C233 0.929 . S
O188 H162 0.856 . S
O188 C234 1.300 . S
O189 C234 1.209 . S
O190 C235 1.199 . S
O191 H163 0.854 . S
O191 C235 1.297 . S
C192 C193 1.404 1_455 S
C192 C197 1.397 1_455 S
C192 C198 1.492 . S
C193 C192 1.404 1_655 S
C193 C194 1.396 . S
C193 C204 1.492 . S
C194 C193 1.396 . S
C194 C195 1.397 . S
C194 C210 1.509 . S
C195 C194 1.397 . S
C195 C196 1.412 . S
C195 C216 1.485 . S
C196 C195 1.412 . S
C196 C197 1.388 . S
C196 C222 1.490 . S
C197 C192 1.397 1_655 S
C197 C196 1.388 . S
C197 C228 1.519 1_655 S
C198 C192 1.492 . S
C198 C199 1.363 . S
C198 C203 1.390 . S
C199 H164 0.930 . S
C199 C198 1.363 . S
C199 C200 1.372 . S
C200 H165 0.930 . S
C200 C199 1.372 . S
C200 C201 1.383 . S
C201 C200 1.383 . S
C201 C202 1.395 . S
C202 H166 0.930 . S
C202 C201 1.395 . S
C202 C203 1.362 . S
C203 H167 0.930 . S
C203 C198 1.390 . S
C203 C202 1.362 . S
C204 C193 1.492 . S
C204 C205 1.377 . S
C204 C209 1.397 1_655 S
C205 H168 0.931 . S
C205 C204 1.377 . S
C205 C206 1.376 . S
C206 H169 0.930 . S
C206 C205 1.376 . S
C206 C207 1.376 1_655 S
C207 C206 1.376 1_455 S
C207 C208 1.378 . S
C207 C234 1.486 . S
C208 H170 0.930 . S
C208 C207 1.378 . S
C208 C209 1.376 . S
C209 H171 0.929 . S
C209 C204 1.397 1_455 S
C209 C208 1.376 . S
C210 C194 1.509 . S
C210 C211 1.391 . S
C210 C215 1.386 . S
C211 H172 0.930 . S
C211 C210 1.391 . S
C211 C212 1.375 . S
C212 H173 0.931 . S
C212 C211 1.375 . S
C212 C213 1.375 . S
C213 C212 1.375 . S
C213 C214 1.361 . S
C214 H174 0.930 . S
C214 C213 1.361 . S
C214 C215 1.399 . S
C215 H175 0.929 . S
C215 C210 1.386 . S
C215 C214 1.399 . S
C216 C195 1.485 . S
C216 C217 1.394 . S
C216 C221 1.360 . S
C217 H176 0.931 . S
C217 C216 1.394 . S
C217 C218 1.372 . S
C218 H177 0.930 . S
C218 C217 1.372 . S
C218 C219 1.397 . S
C219 C218 1.397 . S
C219 C220 1.390 . S
C219 C235 1.476 . S
C220 H178 0.930 . S
C220 C219 1.390 . S
C220 C221 1.366 . S
C221 H179 0.932 . S
C221 C216 1.360 . S
C221 C220 1.366 . S
C222 C196 1.490 . S
C222 C223 1.380 . S
C222 C227 1.386 . S
C223 H180 0.930 . S
C223 C222 1.380 . S
C223 C224 1.381 . S
C224 H181 0.929 . S
C224 C223 1.381 . S
C224 C225 1.371 . S
C225 C224 1.371 . S
C225 C226 1.380 . S
C226 H182 0.931 . S
C226 C225 1.380 . S
C226 C227 1.387 . S
C227 H183 0.930 . S
C227 C222 1.386 . S
C227 C226 1.387 . S
C228 C197 1.519 1_455 S
C228 C229 1.377 . S
C228 C233 1.361 . S
C229 H184 0.929 . S
C229 C228 1.377 . S
C229 C230 1.386 . S
C230 H185 0.931 . S
C230 C229 1.386 . S
C230 C231 1.363 . S
C231 C230 1.363 . S
C231 C232 1.385 . S
C232 H186 0.930 . S
C232 C231 1.385 . S
C232 C233 1.396 . S
C233 H187 0.929 . S
C233 C228 1.361 . S
C233 C232 1.396 . S
C234 O188 1.300 . S
C234 O189 1.209 . S
C234 C207 1.486 . S
C235 O190 1.199 . S
C235 O191 1.297 . S
C235 C219 1.476 . S
H236 O262 0.856 . S
H237 O265 0.854 . S
H238 C273 0.930 . S
H239 C274 0.930 . S
H240 C276 0.930 . S
H241 C277 0.930 . S
H242 C279 0.931 . S
H243 C280 0.930 . S
H244 C282 0.930 . S
H245 C283 0.929 . S
H246 C285 0.930 . S
H247 C286 0.931 . S
H248 C288 0.930 . S
H249 C289 0.929 . S
H250 C291 0.931 . S
H251 C292 0.930 . S
H252 C294 0.930 . S
H253 C295 0.932 . S
H254 C297 0.930 . S
H255 C298 0.929 . S
H256 C300 0.931 . S
H257 C301 0.930 . S
H258 C303 0.929 . S
H259 C304 0.931 . S
H260 C306 0.930 . S
H261 C307 0.929 . S
O262 H236 0.856 . S
O262 C308 1.300 . S
O263 C308 1.209 . S
O264 C309 1.199 . S
O265 H237 0.854 . S
O265 C309 1.297 . S
C266 C267 1.404 . S
C266 C271 1.397 . S
C266 C272 1.492 . S
C267 C266 1.404 . S
C267 C268 1.396 . S
C267 C278 1.492 . S
C268 C267 1.396 . S
C268 C269 1.397 . S
C268 C284 1.509 . S
C269 C268 1.397 . S
C269 C270 1.412 . S
C269 C290 1.485 . S
C270 C269 1.412 . S
C270 C271 1.388 . S
C270 C296 1.490 . S
C271 C266 1.397 . S
C271 C270 1.388 . S
C271 C302 1.519 . S
C272 C266 1.492 . S
C272 C273 1.363 . S
C272 C277 1.390 . S
C273 H238 0.930 . S
C273 C272 1.363 . S
C273 C274 1.372 . S
C274 H239 0.930 . S
C274 C273 1.372 . S
C274 C275 1.383 . S
C275 C274 1.383 . S
C275 C276 1.395 . S
C276 H240 0.930 . S
C276 C275 1.395 . S
C276 C277 1.362 . S
C277 H241 0.930 . S
C277 C272 1.390 . S
C277 C276 1.362 . S
C278 C267 1.492 . S
C278 C279 1.377 . S
C278 C283 1.397 . S
C279 H242 0.931 . S
C279 C278 1.377 . S
C279 C280 1.376 . S
C280 H243 0.930 . S
C280 C279 1.376 . S
C280 C281 1.376 . S
C281 C280 1.376 . S
C281 C282 1.378 . S
C281 C308 1.486 . S
C282 H244 0.930 . S
C282 C281 1.378 . S
C282 C283 1.376 . S
C283 H245 0.929 . S
C283 C278 1.397 . S
C283 C282 1.376 . S
C284 C268 1.509 . S
C284 C285 1.391 . S
C284 C289 1.386 . S
C285 H246 0.930 . S
C285 C284 1.391 . S
C285 C286 1.375 . S
C286 H247 0.931 . S
C286 C285 1.375 . S
C286 C287 1.375 . S
C287 C286 1.375 . S
C287 C288 1.361 . S
C288 H248 0.930 . S
C288 C287 1.361 . S
C288 C289 1.399 . S
C289 H249 0.929 . S
C289 C284 1.386 . S
C289 C288 1.399 . S
C290 C269 1.485 . S
C290 C291 1.394 . S
C290 C295 1.360 . S
C291 H250 0.931 . S
C291 C290 1.394 . S
C291 C292 1.372 . S
C292 H251 0.930 . S
C292 C291 1.372 . S
C292 C293 1.397 . S
C293 C292 1.397 . S
C293 C294 1.390 . S
C293 C309 1.476 . S
C294 H252 0.930 . S
C294 C293 1.390 . S
C294 C295 1.366 . S
C295 H253 0.932 . S
C295 C290 1.360 . S
C295 C294 1.366 . S
C296 C270 1.490 . S
C296 C297 1.380 . S
C296 C301 1.386 . S
C297 H254 0.930 . S
C297 C296 1.380 . S
C297 C298 1.381 . S
C298 H255 0.929 . S
C298 C297 1.381 . S
C298 C299 1.371 . S
C299 C298 1.371 . S
C299 C300 1.380 . S
C300 H256 0.931 . S
C300 C299 1.380 . S
C300 C301 1.387 . S
C301 H257 0.930 . S
C301 C296 1.386 . S
C301 C300 1.387 . S
C302 C271 1.519 . S
C302 C303 1.377 . S
C302 C307 1.361 . S
C303 H258 0.929 . S
C303 C302 1.377 . S
C303 C304 1.386 . S
C304 H259 0.931 . S
C304 C303 1.386 . S
C304 C305 1.363 . S
C305 C304 1.363 . S
C305 C306 1.385 . S
C306 H260 0.930 . S
C306 C305 1.385 . S
C306 C307 1.396 . S
C307 H261 0.929 . S
C307 C302 1.361 . S
C307 C306 1.396 . S
C308 O262 1.300 . S
C308 O263 1.209 . S
C308 C281 1.486 . S
C309 O264 1.199 . S
C309 O265 1.297 . S
C309 C293 1.476 . S
H310 O336 0.856 1_565 S
H311 O339 0.854 . S
H312 C347 0.930 . S
H313 C348 0.930 . S
H314 C350 0.925 1_554 S
H315 C351 0.930 . S
H316 C353 0.931 . S
H317 C354 0.930 . S
H318 C356 0.930 . S
H319 C357 0.929 . S
H320 C359 0.930 1_545 S
H321 C360 0.931 1_545 S
H322 C362 0.930 . S
H323 C363 0.929 . S
H324 C365 0.931 . S
H325 C366 0.930 1_545 S
H326 C368 0.930 . S
H327 C369 0.932 . S
H328 C371 0.930 . S
H329 C372 0.929 . S
H330 C374 0.931 . S
H331 C375 0.930 . S
H332 C377 0.929 . S
H333 C378 0.931 . S
H334 C380 0.930 . S
H335 C381 0.929 . S
O336 H310 0.856 1_545 S
O336 C382 1.300 1_545 S
O337 C382 1.209 . S
O338 C383 1.199 . S
O339 H311 0.854 . S
O339 C383 1.297 . S
C340 C341 1.404 1_554 S
C340 C345 1.397 . S
C340 C346 1.492 1_564 S
C341 C340 1.404 1_556 S
C341 C342 1.396 . S
C341 C352 1.492 . S
C342 C341 1.396 . S
C342 C343 1.397 1_556 S
C342 C358 1.509 . S
C343 C342 1.397 1_554 S
C343 C344 1.412 . S
C343 C364 1.485 . S
C344 C343 1.412 . S
C344 C345 1.388 . S
C344 C370 1.490 . S
C345 C340 1.397 . S
C345 C344 1.388 . S
C345 C376 1.519 1_565 S
C346 C340 1.492 1_546 S
C346 C347 1.363 . S
C346 C351 1.390 1_546 S
C347 H312 0.930 . S
C347 C346 1.363 . S
C347 C348 1.372 . S
C348 H313 0.930 . S
C348 C347 1.372 . S
C348 C349 1.383 . S
C349 C348 1.383 . S
C349 C350 1.404 1_545 S
C350 H314 0.925 1_556 S
C350 C349 1.404 1_565 S
C350 C351 1.358 1_556 S
C351 H315 0.930 . S
C351 C346 1.390 1_564 S
C351 C350 1.358 1_554 S
C352 C341 1.492 . S
C352 C353 1.377 1_565 S
C352 C357 1.397 . S
C353 H316 0.931 . S
C353 C352 1.377 1_545 S
C353 C354 1.376 . S
C354 H317 0.930 . S
C354 C353 1.376 . S
C354 C355 1.376 1_545 S
C355 C354 1.376 1_565 S
C355 C356 1.378 . S
C355 C382 1.486 . S
C356 H318 0.930 . S
C356 C355 1.378 . S
C356 C357 1.376 . S
C357 H319 0.929 . S
C357 C352 1.397 . S
C357 C356 1.376 . S
C358 C342 1.509 . S
C358 C359 1.391 . S
C358 C363 1.386 . S
C359 H320 0.930 1_565 S
C359 C358 1.391 . S
C359 C360 1.375 . S
C360 H321 0.931 1_565 S
C360 C359 1.375 . S
C360 C361 1.375 . S
C361 C360 1.375 . S
C361 C362 1.361 . S
C362 H322 0.930 . S
C362 C361 1.361 . S
C362 C363 1.399 . S
C363 H323 0.929 . S
C363 C358 1.386 . S
C363 C362 1.399 . S
C364 C343 1.485 . S
C364 C365 1.394 1_565 S
C364 C369 1.360 . S
C365 H324 0.931 . S
C365 C364 1.394 1_545 S
C365 C366 1.372 1_545 S
C366 H325 0.930 1_565 S
C366 C365 1.372 1_565 S
C366 C367 1.397 . S
C367 C366 1.397 . S
C367 C368 1.390 . S
C367 C383 1.476 . S
C368 H326 0.930 . S
C368 C367 1.390 . S
C368 C369 1.366 . S
C369 H327 0.932 . S
C369 C364 1.360 . S
C369 C368 1.366 . S
C370 C344 1.490 . S
C370 C371 1.380 1_565 S
C370 C375 1.386 . S
C371 H328 0.930 . S
C371 C370 1.380 1_545 S
C371 C372 1.381 . S
C372 H329 0.929 . S
C372 C371 1.381 . S
C372 C373 1.371 . S
C373 C372 1.371 . S
C373 C374 1.380 1_545 S
C374 H330 0.931 . S
C374 C373 1.380 1_565 S
C374 C375 1.387 . S
C375 H331 0.930 . S
C375 C370 1.386 . S
C375 C374 1.387 . S
C376 C345 1.519 1_545 S
C376 C377 1.377 . S
C376 C381 1.361 1_545 S
C377 H332 0.929 . S
C377 C376 1.377 . S
C377 C378 1.386 . S
C378 H333 0.931 . S
C378 C377 1.386 . S
C378 C379 1.363 . S
C379 C378 1.363 . S
C379 C380 1.385 1_545 S
C380 H334 0.930 . S
C380 C379 1.385 1_565 S
C380 C381 1.396 . S
C381 H335 0.929 . S
C381 C376 1.361 1_565 S
C381 C380 1.396 . S
C382 O336 1.300 1_565 S
C382 O337 1.209 . S
C382 C355 1.486 . S
C383 O338 1.199 . S
C383 O339 1.297 . S
C383 C367 1.476 . S
H384 O410 0.856 . S
H385 O413 0.854 . S
H386 C421 0.930 . S
H387 C422 0.930 . S
H388 C424 0.930 . S
H389 C425 0.930 . S
H390 C427 0.931 . S
H391 C428 0.930 . S
H392 C430 0.930 . S
H393 C431 0.929 . S
H394 C433 0.930 . S
H395 C434 0.931 . S
H396 C436 0.930 . S
H397 C437 0.929 . S
H398 C439 0.931 . S
H399 C440 0.930 . S
H400 C442 0.930 . S
H401 C443 0.932 . S
H402 C445 0.930 . S
H403 C446 0.929 . S
H404 C448 0.931 . S
H405 C449 0.930 . S
H406 C451 0.929 . S
H407 C452 0.931 . S
H408 C454 0.930 . S
H409 C455 0.929 . S
O410 H384 0.856 . S
O410 C456 1.300 . S
O411 C456 1.209 . S
O412 C457 1.199 . S
O413 H385 0.854 . S
O413 C457 1.297 . S
C414 C415 1.404 . S
C414 C419 1.397 . S
C414 C420 1.492 1_545 S
C415 C414 1.404 . S
C415 C416 1.396 . S
C415 C426 1.492 . S
C416 C415 1.396 . S
C416 C417 1.397 . S
C416 C432 1.509 . S
C417 C416 1.397 . S
C417 C418 1.412 . S
C417 C438 1.485 . S
C418 C417 1.412 . S
C418 C419 1.388 . S
C418 C444 1.490 . S
C419 C414 1.397 . S
C419 C418 1.388 . S
C419 C450 1.519 1_545 S
C420 C414 1.492 1_565 S
C420 C421 1.363 . S
C420 C425 1.390 . S
C421 H386 0.930 . S
C421 C420 1.363 . S
C421 C422 1.372 . S
C422 H387 0.930 . S
C422 C421 1.372 . S
C422 C423 1.383 . S
C423 C422 1.383 . S
C423 C424 1.395 . S
C424 H388 0.930 . S
C424 C423 1.395 . S
C424 C425 1.362 . S
C425 H389 0.930 . S
C425 C420 1.390 . S
C425 C424 1.362 . S
C426 C415 1.492 . S
C426 C427 1.377 . S
C426 C431 1.397 . S
C427 H390 0.931 . S
C427 C426 1.377 . S
C427 C428 1.376 . S
C428 H391 0.930 . S
C428 C427 1.376 . S
C428 C429 1.376 . S
C429 C428 1.376 . S
C429 C430 1.378 . S
C429 C456 1.486 . S
C430 H392 0.930 . S
C430 C429 1.378 . S
C430 C431 1.376 . S
C431 H393 0.929 . S
C431 C426 1.397 . S
C431 C430 1.376 . S
C432 C416 1.509 . S
C432 C433 1.391 . S
C432 C437 1.386 . S
C433 H394 0.930 . S
C433 C432 1.391 . S
C433 C434 1.375 . S
C434 H395 0.931 . S
C434 C433 1.375 . S
C434 C435 1.375 . S
C435 C434 1.375 . S
C435 C436 1.361 . S
C436 H396 0.930 . S
C436 C435 1.361 . S
C436 C437 1.399 . S
C437 H397 0.929 . S
C437 C432 1.386 . S
C437 C436 1.399 . S
C438 C417 1.485 . S
C438 C439 1.394 . S
C438 C443 1.360 . S
C439 H398 0.931 . S
C439 C438 1.394 . S
C439 C440 1.372 . S
C440 H399 0.930 . S
C440 C439 1.372 . S
C440 C441 1.397 . S
C441 C440 1.397 . S
C441 C442 1.390 . S
C441 C457 1.476 . S
C442 H400 0.930 . S
C442 C441 1.390 . S
C442 C443 1.366 . S
C443 H401 0.932 . S
C443 C438 1.360 . S
C443 C442 1.366 . S
C444 C418 1.490 . S
C444 C445 1.380 1_545 S
C444 C449 1.386 . S
C445 H402 0.930 . S
C445 C444 1.380 1_565 S
C445 C446 1.381 . S
C446 H403 0.929 . S
C446 C445 1.381 . S
C446 C447 1.371 1_565 S
C447 C446 1.371 1_545 S
C447 C448 1.380 . S
C448 H404 0.931 . S
C448 C447 1.380 . S
C448 C449 1.387 . S
C449 H405 0.930 . S
C449 C444 1.386 . S
C449 C448 1.387 . S
C450 C419 1.519 1_565 S
C450 C451 1.377 . S
C450 C455 1.361 1_565 S
C451 H406 0.929 . S
C451 C450 1.377 . S
C451 C452 1.386 . S
C452 H407 0.931 . S
C452 C451 1.386 . S
C452 C453 1.363 . S
C453 C452 1.363 . S
C453 C454 1.385 . S
C454 H408 0.930 . S
C454 C453 1.385 . S
C454 C455 1.396 1_565 S
C455 H409 0.929 . S
C455 C450 1.361 1_545 S
C455 C454 1.396 1_545 S
C456 O410 1.300 . S
C456 O411 1.209 . S
C456 C429 1.486 . S
C457 O412 1.199 . S
C457 O413 1.297 . S
C457 C441 1.476 . S
H458 O484 0.856 . S
H459 O487 0.854 . S
H460 C495 0.930 . S
H461 C496 0.930 . S
H462 C498 0.930 . S
H463 C499 0.930 . S
H464 C501 0.931 . S
H465 C502 0.930 . S
H466 C504 0.930 . S
H467 C505 0.929 . S
H468 C507 0.930 . S
H469 C508 0.931 . S
H470 C510 0.930 . S
H471 C511 0.929 . S
H472 C513 0.931 . S
H473 C514 0.930 . S
H474 C516 0.930 . S
H475 C517 0.932 . S
H476 C519 0.930 . S
H477 C520 0.929 . S
H478 C522 0.931 . S
H479 C523 0.930 . S
H480 C525 0.929 . S
H481 C526 0.931 . S
H482 C528 0.930 . S
H483 C529 0.929 . S
O484 H458 0.856 . S
O484 C530 1.300 . S
O485 C530 1.209 . S
O486 C531 1.199 . S
O487 H459 0.854 . S
O487 C531 1.297 . S
C488 C489 1.404 . S
C488 C493 1.397 1_556 S
C488 C494 1.492 . S
C489 C488 1.404 . S
C489 C490 1.396 . S
C489 C500 1.492 . S
C490 C489 1.396 . S
C490 C491 1.397 1_556 S
C490 C506 1.509 . S
C491 C490 1.397 1_554 S
C491 C492 1.412 . S
C491 C512 1.485 . S
C492 C491 1.412 . S
C492 C493 1.388 . S
C492 C518 1.490 . S
C493 C488 1.397 1_554 S
C493 C492 1.388 . S
C493 C524 1.519 . S
C494 C488 1.492 . S
C494 C495 1.363 . S
C494 C499 1.390 . S
C495 H460 0.930 . S
C495 C494 1.363 . S
C495 C496 1.372 . S
C496 H461 0.930 . S
C496 C495 1.372 . S
C496 C497 1.383 . S
C497 C496 1.383 . S
C497 C498 1.395 . S
C498 H462 0.930 . S
C498 C497 1.395 . S
C498 C499 1.362 . S
C499 H463 0.930 . S
C499 C494 1.390 . S
C499 C498 1.362 . S
C500 C489 1.492 . S
C500 C501 1.377 . S
C500 C505 1.397 . S
C501 H464 0.931 . S
C501 C500 1.377 . S
C501 C502 1.376 . S
C502 H465 0.930 . S
C502 C501 1.376 . S
C502 C503 1.376 . S
C503 C502 1.376 . S
C503 C504 1.378 . S
C503 C530 1.486 . S
C504 H466 0.930 . S
C504 C503 1.378 . S
C504 C505 1.376 . S
C505 H467 0.929 . S
C505 C500 1.397 . S
C505 C504 1.376 . S
C506 C490 1.509 . S
C506 C507 1.391 . S
C506 C511 1.386 . S
C507 H468 0.930 . S
C507 C506 1.391 . S
C507 C508 1.375 . S
C508 H469 0.931 . S
C508 C507 1.375 . S
C508 C509 1.375 . S
C509 C508 1.375 . S
C509 C510 1.361 . S
C510 H470 0.930 . S
C510 C509 1.361 . S
C510 C511 1.399 . S
C511 H471 0.929 . S
C511 C506 1.386 . S
C511 C510 1.399 . S
C512 C491 1.485 . S
C512 C513 1.394 . S
C512 C517 1.360 . S
C513 H472 0.931 . S
C513 C512 1.394 . S
C513 C514 1.372 . S
C514 H473 0.930 . S
C514 C513 1.372 . S
C514 C515 1.397 . S
C515 C514 1.397 . S
C515 C516 1.390 . S
C515 C531 1.476 . S
C516 H474 0.930 . S
C516 C515 1.390 . S
C516 C517 1.366 . S
C517 H475 0.932 . S
C517 C512 1.360 . S
C517 C516 1.366 . S
C518 C492 1.490 . S
C518 C519 1.380 . S
C518 C523 1.386 . S
C519 H476 0.930 . S
C519 C518 1.380 . S
C519 C520 1.381 . S
C520 H477 0.929 . S
C520 C519 1.381 . S
C520 C521 1.371 . S
C521 C520 1.371 . S
C521 C522 1.380 . S
C522 H478 0.931 . S
C522 C521 1.380 . S
C522 C523 1.387 . S
C523 H479 0.930 . S
C523 C518 1.386 . S
C523 C522 1.387 . S
C524 C493 1.519 . S
C524 C525 1.377 . S
C524 C529 1.361 . S
C525 H480 0.929 . S
C525 C524 1.377 . S
C525 C526 1.386 . S
C526 H481 0.931 . S
C526 C525 1.386 . S
C526 C527 1.363 . S
C527 C526 1.363 . S
C527 C528 1.385 . S
C528 H482 0.930 . S
C528 C527 1.385 . S
C528 C529 1.396 . S
C529 H483 0.929 . S
C529 C524 1.361 . S
C529 C528 1.396 . S
C530 O484 1.300 . S
C530 O485 1.209 . S
C530 C503 1.486 . S
C531 O486 1.199 . S
C531 O487 1.297 . S
C531 C515 1.476 . S
C532 C533 1.363 . S
C532 C538 1.379 . S
C532 N540 1.356 . S
C533 C532 1.363 . S
C533 C539 1.363 . S
C534 C535 1.363 . S
C534 C539 1.379 . S
C534 N541 1.356 . S
C535 C534 1.363 . S
C535 C538 1.363 . S
N536 C538 1.356 . S
N536 H548 0.984 . S
N536 H549 0.985 . S
N537 C539 1.356 . S
N537 H542 0.984 . S
N537 H543 0.985 . S
C538 C532 1.379 . S
C538 C535 1.363 . S
C538 N536 1.356 . S
C539 C533 1.363 . S
C539 C534 1.379 . S
C539 N537 1.356 . S
N540 C532 1.356 . S
N540 H546 0.984 . S
N540 H547 0.984 . S
N541 C534 1.356 . S
N541 H544 0.984 . S
N541 H545 0.985 . S
H542 N537 0.984 . S
H543 N537 0.985 . S
H544 N541 0.984 . S
H545 N541 0.985 . S
H546 N540 0.984 . S
H547 N540 0.984 . S
H548 N536 0.984 . S
H549 N536 0.985 . S
C550 C551 1.363 . S
C550 C556 1.379 . S
C550 N558 1.356 . S
C551 C550 1.363 . S
C551 C557 1.363 . S
C552 C553 1.363 . S
C552 C557 1.379 . S
C552 N559 1.356 . S
C553 C552 1.363 . S
C553 C556 1.363 . S
N554 C556 1.356 . S
N554 H566 0.984 . S
N554 H567 0.985 . S
N555 C557 1.356 . S
N555 H560 0.984 . S
N555 H561 0.985 . S
C556 C550 1.379 . S
C556 C553 1.363 . S
C556 N554 1.356 . S
C557 C551 1.363 . S
C557 C552 1.379 . S
C557 N555 1.356 . S
N558 C550 1.356 . S
N558 H564 0.984 . S
N558 H565 0.984 . S
N559 C552 1.356 . S
N559 H562 0.984 . S
N559 H563 0.985 . S
H560 N555 0.984 . S
H561 N555 0.985 . S
H562 N559 0.984 . S
H563 N559 0.985 . S
H564 N558 0.984 . S
H565 N558 0.984 . S
H566 N554 0.984 . S
H567 N554 0.985 . S
C568 C569 1.363 . S
C568 C574 1.379 . S
C568 N576 1.356 . S
C569 C568 1.363 . S
C569 C575 1.363 . S
C570 C571 1.363 . S
C570 C575 1.379 . S
C570 N577 1.356 . S
C571 C570 1.363 . S
C571 C574 1.363 . S
N572 C574 1.356 1_455 S
N572 H584 0.984 . S
N572 H585 0.985 . S
N573 C575 1.356 . S
N573 H578 0.984 . S
N573 H579 0.985 . S
C574 C568 1.379 . S
C574 C571 1.363 . S
C574 N572 1.356 1_655 S
C575 C569 1.363 . S
C575 C570 1.379 . S
C575 N573 1.356 . S
N576 C568 1.356 . S
N576 H582 0.984 . S
N576 H583 0.984 . S
N577 C570 1.356 . S
N577 H580 0.984 . S
N577 H581 0.985 . S
H578 N573 0.984 . S
H579 N573 0.985 . S
H580 N577 0.984 . S
H581 N577 0.985 . S
H582 N576 0.984 . S
H583 N576 0.984 . S
H584 N572 0.984 . S
H585 N572 0.985 . S
C586 C587 1.363 . S
C586 C592 1.379 . S
C586 N594 1.356 . S
C587 C586 1.363 . S
C587 C593 1.363 . S
C588 C589 1.363 . S
C588 C593 1.379 . S
C588 N595 1.356 . S
C589 C588 1.363 . S
C589 C592 1.363 . S
N590 C592 1.356 . S
N590 H602 0.984 . S
N590 H603 0.985 . S
N591 C593 1.356 . S
N591 H596 0.984 . S
N591 H597 0.985 . S
C592 C586 1.379 . S
C592 C589 1.363 . S
C592 N590 1.356 . S
C593 C587 1.363 . S
C593 C588 1.379 . S
C593 N591 1.356 . S
N594 C586 1.356 . S
N594 H600 0.984 . S
N594 H601 0.984 . S
N595 C588 1.356 . S
N595 H598 0.984 . S
N595 H599 0.985 . S
H596 N591 0.984 . S
H597 N591 0.985 . S
H598 N595 0.984 . S
H599 N595 0.985 . S
H600 N594 0.984 . S
H601 N594 0.984 . S
H602 N590 0.984 . S
H603 N590 0.985 . S
C604 C605 1.363 . S
C604 C610 1.379 . S
C604 N612 1.356 . S
C605 C604 1.363 . S
C605 C611 1.363 . S
C606 C607 1.363 . S
C606 C611 1.379 . S
C606 N613 1.356 . S
C607 C606 1.363 . S
C607 C610 1.363 . S
N608 C610 1.356 . S
N608 H620 0.984 . S
N608 H621 0.985 . S
N609 C611 1.356 . S
N609 H614 0.984 . S
N609 H615 0.985 . S
C610 C604 1.379 . S
C610 C607 1.363 . S
C610 N608 1.356 . S
C611 C605 1.363 . S
C611 C606 1.379 . S
C611 N609 1.356 . S
N612 C604 1.356 . S
N612 H618 0.984 . S
N612 H619 0.984 . S
N613 C606 1.356 . S
N613 H616 0.984 . S
N613 H617 0.985 . S
H614 N609 0.984 . S
H615 N609 0.985 . S
H616 N613 0.984 . S
H617 N613 0.985 . S
H618 N612 0.984 . S
H619 N612 0.984 . S
H620 N608 0.984 . S
H621 N608 0.985 . S
C622 C623 1.363 . S
C622 C628 1.379 . S
C622 N630 1.356 . S
C623 C622 1.363 . S
C623 C629 1.363 1_545 S
C624 C625 1.363 1_565 S
C624 C629 1.379 . S
C624 N631 1.356 . S
C625 C624 1.363 1_545 S
C625 C628 1.363 . S
N626 C628 1.356 . S
N626 H638 0.984 . S
N626 H639 0.985 . S
N627 C629 1.356 . S
N627 H632 0.984 . S
N627 H633 0.985 . S
C628 C622 1.379 . S
C628 C625 1.363 . S
C628 N626 1.356 . S
C629 C623 1.363 1_565 S
C629 C624 1.379 . S
C629 N627 1.356 . S
N630 C622 1.356 . S
N630 H636 0.984 . S
N630 H637 0.984 . S
N631 C624 1.356 . S
N631 H634 0.984 . S
N631 H635 0.985 . S
H632 N627 0.984 . S
H633 N627 0.985 . S
H634 N631 0.984 . S
H635 N631 0.985 . S
H636 N630 0.984 . S
H637 N630 0.984 . S
H638 N626 0.984 . S
H639 N626 0.985 . S
C640 C641 1.363 . S
C640 C646 1.379 . S
C640 N648 1.356 . S
C641 C640 1.363 . S
C641 C647 1.363 . S
C642 C643 1.363 . S
C642 C647 1.379 . S
C642 N649 1.356 . S
C643 C642 1.363 . S
C643 C646 1.363 . S
N644 C646 1.356 . S
N644 H656 0.984 . S
N644 H657 0.985 . S
N645 C647 1.337 1_545 S
N645 H650 0.979 . S
N645 H651 1.010 . S
C646 C640 1.379 . S
C646 C643 1.363 . S
C646 N644 1.356 . S
C647 C641 1.363 . S
C647 C642 1.379 . S
C647 N645 1.337 1_565 S
N648 C640 1.356 . S
N648 H654 0.984 . S
N648 H655 0.984 . S
N649 C642 1.356 . S
N649 H652 0.984 . S
N649 H653 0.985 . S
H650 N645 0.979 . S
H651 N645 1.010 . S
H652 N649 0.984 . S
H653 N649 0.985 . S
H654 N648 0.984 . S
H655 N648 0.984 . S
H656 N644 0.984 . S
H657 N644 0.985 . S
C658 C659 1.363 . S
C658 C664 1.379 . S
C658 N666 1.356 . S
C659 C658 1.363 . S
C659 C665 1.363 . S
C660 C661 1.363 . S
C660 C665 1.379 . S
C660 N667 1.356 . S
C661 C660 1.363 . S
C661 C664 1.363 . S
N662 C664 1.356 . S
N662 H674 0.984 . S
N662 H675 0.985 . S
N663 C665 1.356 . S
N663 H668 0.984 . S
N663 H669 0.985 . S
C664 C658 1.379 . S
C664 C661 1.363 . S
C664 N662 1.356 . S
C665 C659 1.363 . S
C665 C660 1.379 . S
C665 N663 1.356 . S
N666 C658 1.356 . S
N666 H672 0.984 . S
N666 H673 0.984 . S
N667 C660 1.356 . S
N667 H670 0.984 . S
N667 H671 0.985 . S
H668 N663 0.984 . S
H669 N663 0.985 . S
H670 N667 0.984 . S
H671 N667 0.985 . S
H672 N666 0.984 . S
H673 N666 0.984 . S
H674 N662 0.984 . S
H675 N662 0.985 . S
C676 C677 1.363 . S
C676 C682 1.379 . S
C676 N684 1.356 . S
C677 C676 1.363 . S
C677 C683 1.363 . S
C678 C679 1.363 . S
C678 C683 1.379 . S
C678 N685 1.356 . S
C679 C678 1.363 . S
C679 C682 1.363 . S
N680 C682 1.356 . S
N680 H692 0.984 . S
N680 H693 0.985 . S
N681 C683 1.356 . S
N681 H686 0.984 . S
N681 H687 0.985 . S
C682 C676 1.379 . S
C682 C679 1.363 . S
C682 N680 1.356 . S
C683 C677 1.363 . S
C683 C678 1.379 . S
C683 N681 1.356 . S
N684 C676 1.356 . S
N684 H690 0.984 . S
N684 H691 0.984 . S
N685 C678 1.356 . S
N685 H688 0.984 . S
N685 H689 0.985 . S
H686 N681 0.984 . S
H687 N681 0.985 . S
H688 N685 0.984 . S
H689 N685 0.985 . S
H690 N684 0.984 . S
H691 N684 0.984 . S
H692 N680 0.984 . S
H693 N680 0.985 . S
C694 C695 1.363 . S
C694 C700 1.379 . S
C694 N702 1.356 . S
C695 C694 1.363 . S
C695 C701 1.363 . S
C696 C697 1.365 . S
C696 C701 1.373 1_545 S
C696 N703 1.360 . S
C697 C696 1.365 . S
C697 C700 1.362 1_545 S
N698 C700 1.356 . S
N698 H710 0.984 . S
N698 H711 0.965 1_565 S
N699 C701 1.356 . S
N699 H704 0.984 . S
N699 H705 0.985 . S
C700 C694 1.379 . S
C700 C697 1.362 1_565 S
C700 N698 1.356 . S
C701 C695 1.363 . S
C701 C696 1.373 1_565 S
C701 N699 1.356 . S
N702 C694 1.356 . S
N702 H708 0.984 . S
N702 H709 0.984 . S
N703 C696 1.360 . S
N703 H706 0.984 . S
N703 H707 0.985 . S
H704 N699 0.984 . S
H705 N699 0.985 . S
H706 N703 0.984 . S
H707 N703 0.985 . S
H708 N702 0.984 . S
H709 N702 0.984 . S
H710 N698 0.984 . S
H711 N698 0.965 1_545 S
C712 C713 1.363 . S
C712 C718 1.379 . S
C712 N720 1.356 . S
C713 C712 1.363 . S
C713 C719 1.363 . S
C714 C715 1.363 . S
C714 C719 1.379 . S
C714 N721 1.356 1_545 S
C715 C714 1.363 . S
C715 C718 1.363 . S
N716 C718 1.356 . S
N716 H728 0.984 . S
N716 H729 0.985 . S
N717 C719 1.356 . S
N717 H722 0.984 . S
N717 H723 0.985 . S
C718 C712 1.379 . S
C718 C715 1.363 . S
C718 N716 1.356 . S
C719 C713 1.363 . S
C719 C714 1.379 . S
C719 N717 1.356 . S
N720 C712 1.356 . S
N720 H726 0.984 . S
N720 H727 0.984 . S
N721 C714 1.356 1_565 S
N721 H724 0.984 . S
N721 H725 0.985 . S
H722 N717 0.984 . S
H723 N717 0.985 . S
H724 N721 0.984 . S
H725 N721 0.985 . S
H726 N720 0.984 . S
H727 N720 0.984 . S
H728 N716 0.984 . S
H729 N716 0.985 . S
C730 C731 1.363 . S
C730 C736 1.379 . S
C730 N738 1.356 . S
C731 C730 1.363 . S
C731 C737 1.363 . S
C732 C733 1.363 . S
C732 C737 1.379 . S
C732 N739 1.356 . S
C733 C732 1.363 . S
C733 C736 1.363 . S
N734 C736 1.356 . S
N734 H746 0.984 . S
N734 H747 0.985 . S
N735 C737 1.356 . S
N735 H740 0.984 . S
N735 H741 0.985 . S
C736 C730 1.379 . S
C736 C733 1.363 . S
C736 N734 1.356 . S
C737 C731 1.363 . S
C737 C732 1.379 . S
C737 N735 1.356 . S
N738 C730 1.356 . S
N738 H744 0.984 . S
N738 H745 0.984 . S
N739 C732 1.356 . S
N739 H742 0.984 . S
N739 H743 0.985 . S
H740 N735 0.984 . S
H741 N735 0.985 . S
H742 N739 0.984 . S
H743 N739 0.985 . S
H744 N738 0.984 . S
H745 N738 0.984 . S
H746 N734 0.984 . S
H747 N734 0.985 . S
C748 C749 1.363 . S
C748 C754 1.379 . S
C748 N756 1.356 . S
C749 C748 1.363 . S
C749 C755 1.363 . S
C750 C751 1.363 . S
C750 C755 1.379 . S
C750 N757 1.356 . S
C751 C750 1.363 . S
C751 C754 1.363 . S
N752 C754 1.356 . S
N752 H764 0.984 . S
N752 H765 0.985 . S
N753 C755 1.356 . S
N753 H758 0.984 . S
N753 H759 0.985 . S
C754 C748 1.379 . S
C754 C751 1.363 . S
C754 N752 1.356 . S
C755 C749 1.363 . S
C755 C750 1.379 . S
C755 N753 1.356 . S
N756 C748 1.356 . S
N756 H762 0.984 . S
N756 H763 0.984 . S
N757 C750 1.356 . S
N757 H760 0.984 . S
N757 H761 0.985 . S
H758 N753 0.984 . S
H759 N753 0.985 . S
H760 N757 0.984 . S
H761 N757 0.985 . S
H762 N756 0.984 . S
H763 N756 0.984 . S
H764 N752 0.984 . S
H765 N752 0.985 . S
C766 C767 1.363 . S
C766 C772 1.379 . S
C766 N774 1.356 . S
C767 C766 1.363 . S
C767 C773 1.363 . S
C768 C769 1.363 . S
C768 C773 1.379 . S
C768 N775 1.356 . S
C769 C768 1.363 . S
C769 C772 1.363 . S
N770 C772 1.356 . S
N770 H782 0.984 . S
N770 H783 0.985 . S
N771 C773 1.356 . S
N771 H776 0.984 . S
N771 H777 0.985 . S
C772 C766 1.379 . S
C772 C769 1.363 . S
C772 N770 1.356 . S
C773 C767 1.363 . S
C773 C768 1.379 . S
C773 N771 1.356 . S
N774 C766 1.356 . S
N774 H780 0.984 . S
N774 H781 0.984 . S
N775 C768 1.356 . S
N775 H778 0.984 . S
N775 H779 0.985 . S
H776 N771 0.984 . S
H777 N771 0.985 . S
H778 N775 0.984 . S
H779 N775 0.985 . S
H780 N774 0.984 . S
H781 N774 0.984 . S
H782 N770 0.984 . S
H783 N770 0.985 . S
C784 C785 1.363 . S
C784 C790 1.379 . S
C784 N792 1.356 . S
C785 C784 1.363 . S
C785 C791 1.363 . S
C786 C787 1.363 . S
C786 C791 1.379 . S
C786 N793 1.356 . S
C787 C786 1.363 . S
C787 C790 1.363 . S
N788 C790 1.356 . S
N788 H800 0.984 . S
N788 H801 0.985 . S
N789 C791 1.356 . S
N789 H794 0.984 . S
N789 H795 0.985 . S
C790 C784 1.379 . S
C790 C787 1.363 . S
C790 N788 1.356 . S
C791 C785 1.363 . S
C791 C786 1.379 . S
C791 N789 1.356 . S
N792 C784 1.356 . S
N792 H798 0.984 . S
N792 H799 0.984 . S
N793 C786 1.356 . S
N793 H796 0.984 . S
N793 H797 0.985 . S
H794 N789 0.984 . S
H795 N789 0.985 . S
H796 N793 0.984 . S
H797 N793 0.985 . S
H798 N792 0.984 . S
H799 N792 0.984 . S
H800 N788 0.984 . S
H801 N788 0.985 . S
C802 C803 1.363 . S
C802 C808 1.379 . S
C802 N810 1.356 . S
C803 C802 1.363 . S
C803 C809 1.363 . S
C804 C805 1.363 . S
C804 C809 1.379 . S
C804 N811 1.356 . S
C805 C804 1.363 . S
C805 C808 1.363 . S
N806 C808 1.356 . S
N806 H818 0.984 . S
N806 H819 0.985 . S
N807 C809 1.356 . S
N807 H812 0.984 . S
N807 H813 0.985 . S
C808 C802 1.379 . S
C808 C805 1.363 . S
C808 N806 1.356 . S
C809 C803 1.363 . S
C809 C804 1.379 . S
C809 N807 1.356 . S
N810 C802 1.356 . S
N810 H816 0.984 . S
N810 H817 0.984 . S
N811 C804 1.356 . S
N811 H814 0.984 . S
N811 H815 0.985 . S
H812 N807 0.984 . S
H813 N807 0.985 . S
H814 N811 0.984 . S
H815 N811 0.985 . S
H816 N810 0.984 . S
H817 N810 0.984 . S
H818 N806 0.984 . S
H819 N806 0.985 . S
C820 C821 1.363 . S
C820 C826 1.379 . S
C820 N828 1.356 . S
C821 C820 1.363 . S
C821 C827 1.363 . S
C822 C823 1.363 . S
C822 C827 1.379 . S
C822 N829 1.356 . S
C823 C822 1.363 . S
C823 C826 1.363 . S
N824 C826 1.356 . S
N824 H836 0.984 . S
N824 H837 0.985 . S
N825 C827 1.356 . S
N825 H830 0.984 . S
N825 H831 0.985 . S
C826 C820 1.379 . S
C826 C823 1.363 . S
C826 N824 1.356 . S
C827 C821 1.363 . S
C827 C822 1.379 . S
C827 N825 1.356 . S
N828 C820 1.356 . S
N828 H834 0.984 . S
N828 H835 0.984 . S
N829 C822 1.356 . S
N829 H832 0.984 . S
N829 H833 0.985 . S
H830 N825 0.984 . S
H831 N825 0.985 . S
H832 N829 0.984 . S
H833 N829 0.985 . S
H834 N828 0.984 . S
H835 N828 0.984 . S
H836 N824 0.984 . S
H837 N824 0.985 . S
C838 C839 1.363 . S
C838 C844 1.379 . S
C838 N846 1.356 . S
C839 C838 1.363 . S
C839 C845 1.363 . S
C840 C841 1.363 . S
C840 C845 1.379 . S
C840 N847 1.356 . S
C841 C840 1.363 . S
C841 C844 1.363 . S
N842 C844 1.356 . S
N842 H854 0.984 . S
N842 H855 0.985 . S
N843 C845 1.356 . S
N843 H848 0.984 . S
N843 H849 0.985 . S
C844 C838 1.379 . S
C844 C841 1.363 . S
C844 N842 1.356 . S
C845 C839 1.363 . S
C845 C840 1.379 . S
C845 N843 1.356 . S
N846 C838 1.356 . S
N846 H852 0.984 . S
N846 H853 0.984 . S
N847 C840 1.356 . S
N847 H850 0.984 . S
N847 H851 0.985 . S
H848 N843 0.984 . S
H849 N843 0.985 . S
H850 N847 0.984 . S
H851 N847 0.985 . S
H852 N846 0.984 . S
H853 N846 0.984 . S
H854 N842 0.984 . S
H855 N842 0.985 . S
C856 C857 1.363 . S
C856 C862 1.379 . S
C856 N864 1.356 . S
C857 C856 1.363 . S
C857 C863 1.363 . S
C858 C859 1.363 . S
C858 C863 1.379 . S
C858 N865 1.356 . S
C859 C858 1.363 . S
C859 C862 1.363 . S
N860 C862 1.356 . S
N860 H872 0.984 . S
N860 H873 0.985 . S
N861 C863 1.356 . S
N861 H866 0.984 . S
N861 H867 0.985 . S
C862 C856 1.379 . S
C862 C859 1.363 . S
C862 N860 1.356 . S
C863 C857 1.363 . S
C863 C858 1.379 . S
C863 N861 1.356 . S
N864 C856 1.356 . S
N864 H870 0.984 . S
N864 H871 0.984 . S
N865 C858 1.356 . S
N865 H868 0.984 . S
N865 H869 0.985 . S
H866 N861 0.984 . S
H867 N861 0.985 . S
H868 N865 0.984 . S
H869 N865 0.985 . S
H870 N864 0.984 . S
H871 N864 0.984 . S
H872 N860 0.984 . S
H873 N860 0.985 . S
C874 C875 1.363 . S
C874 C880 1.379 . S
C874 N882 1.356 . S
C875 C874 1.363 . S
C875 C881 1.363 1_565 S
C876 C877 1.363 1_545 S
C876 C881 1.379 . S
C876 N883 1.356 . S
C877 C876 1.363 1_565 S
C877 C880 1.363 . S
N878 C880 1.356 . S
N878 H890 0.984 . S
N878 H891 0.985 . S
N879 C881 1.356 . S
N879 H884 0.984 . S
N879 H885 0.985 . S
C880 C874 1.379 . S
C880 C877 1.363 . S
C880 N878 1.356 . S
C881 C875 1.363 1_545 S
C881 C876 1.379 . S
C881 N879 1.356 . S
N882 C874 1.356 . S
N882 H888 0.984 . S
N882 H889 0.984 . S
N883 C876 1.356 . S
N883 H886 0.984 . S
N883 H887 0.985 . S
H884 N879 0.984 . S
H885 N879 0.985 . S
H886 N883 0.984 . S
H887 N883 0.985 . S
H888 N882 0.984 . S
H889 N882 0.984 . S
H890 N878 0.984 . S
H891 N878 0.985 . S
C892 C893 1.363 . S
C892 C898 1.379 . S
C892 N900 1.356 . S
C893 C892 1.363 . S
C893 C899 1.363 . S
C894 C895 1.363 . S
C894 C899 1.379 . S
C894 N901 1.356 . S
C895 C894 1.363 . S
C895 C898 1.363 . S
N896 C898 1.356 . S
N896 H908 0.984 . S
N896 H909 0.985 . S
N897 C899 1.356 . S
N897 H902 0.984 . S
N897 H903 0.985 . S
C898 C892 1.379 . S
C898 C895 1.363 . S
C898 N896 1.356 . S
C899 C893 1.363 . S
C899 C894 1.379 . S
C899 N897 1.356 . S
N900 C892 1.356 . S
N900 H906 0.984 . S
N900 H907 0.984 . S
N901 C894 1.356 . S
N901 H904 0.984 . S
N901 H905 0.985 . S
H902 N897 0.984 . S
H903 N897 0.985 . S
H904 N901 0.984 . S
H905 N901 0.985 . S
H906 N900 0.984 . S
H907 N900 0.984 . S
H908 N896 0.984 . S
H909 N896 0.985 . S
C910 C911 1.363 . S
C910 C916 1.379 . S
C910 N918 1.356 . S
C911 C910 1.363 . S
C911 C917 1.363 . S
C912 C913 1.363 . S
C912 C917 1.379 . S
C912 N919 1.356 . S
C913 C912 1.363 . S
C913 C916 1.363 . S
N914 C916 1.356 . S
N914 H926 0.984 . S
N914 H927 0.985 . S
N915 C917 1.356 . S
N915 H920 0.984 . S
N915 H921 0.985 . S
C916 C910 1.379 . S
C916 C913 1.363 . S
C916 N914 1.356 . S
C917 C911 1.363 . S
C917 C912 1.379 . S
C917 N915 1.356 . S
N918 C910 1.356 . S
N918 H924 0.984 . S
N918 H925 0.984 . S
N919 C912 1.356 . S
N919 H922 0.984 . S
N919 H923 0.985 . S
H920 N915 0.984 . S
H921 N915 0.985 . S
H922 N919 0.984 . S
H923 N919 0.985 . S
H924 N918 0.984 . S
H925 N918 0.984 . S
H926 N914 0.984 . S
H927 N914 0.985 . S
C928 C929 1.363 . S
C928 C934 1.379 . S
C928 N936 1.356 . S
C929 C928 1.363 . S
C929 C935 1.363 . S
C930 C931 1.363 . S
C930 C935 1.379 . S
C930 N937 1.356 . S
C931 C930 1.363 . S
C931 C934 1.363 . S
N932 C934 1.356 . S
N932 H944 0.984 . S
N932 H945 0.985 . S
N933 C935 1.356 . S
N933 H938 0.984 . S
N933 H939 0.985 . S
C934 C928 1.379 . S
C934 C931 1.363 . S
C934 N932 1.356 . S
C935 C929 1.363 . S
C935 C930 1.379 . S
C935 N933 1.356 . S
N936 C928 1.356 . S
N936 H942 0.984 . S
N936 H943 0.984 . S
N937 C930 1.356 . S
N937 H940 0.984 . S
N937 H941 0.985 . S
H938 N933 0.984 . S
H939 N933 0.985 . S
H940 N937 0.984 . S
H941 N937 0.985 . S
H942 N936 0.984 . S
H943 N936 0.984 . S
H944 N932 0.984 . S
H945 N932 0.985 . S
C946 C947 1.363 . S
C946 C952 1.379 . S
C946 N954 1.356 . S
C947 C946 1.363 . S
C947 C953 1.363 . S
C948 C949 1.363 . S
C948 C953 1.379 . S
C948 N955 1.356 . S
C949 C948 1.363 . S
C949 C952 1.363 . S
N950 C952 1.356 . S
N950 H962 0.984 . S
N950 H963 0.985 . S
N951 C953 1.356 . S
N951 H956 0.984 . S
N951 H957 0.985 . S
C952 C946 1.379 . S
C952 C949 1.363 . S
C952 N950 1.356 . S
C953 C947 1.363 . S
C953 C948 1.379 . S
C953 N951 1.356 . S
N954 C946 1.356 . S
N954 H960 0.984 . S
N954 H961 0.984 . S
N955 C948 1.356 . S
N955 H958 0.984 . S
N955 H959 0.985 . S
H956 N951 0.984 . S
H957 N951 0.985 . S
H958 N955 0.984 . S
H959 N955 0.985 . S
H960 N954 0.984 . S
H961 N954 0.984 . S
H962 N950 0.984 . S
H963 N950 0.985 . S
C535 C127 1.790 . S
C533 C5 1.709 . S
C553 C231 1.902 . S
C551 C16 1.509 . S
C571 C151 1.595 . S
C569 C30 1.557 . S
C589 C213 1.708 . S
C587 C40 1.713 . S
C607 C287 1.713 . S
C605 C8 1.764 . S
C625 C349 1.841 . S
C623 C18 1.937 . S
C641 C29 1.761 . S
C643 C423 1.731 . S
C661 C509 1.714 . S
C659 C38 1.850 . S
C679 C305 2.505 . S
C677 C19 2.524 . S
C695 C27 1.522 . S
C697 C373 1.769 . S
C715 C447 1.421 . S
C713 C41 1.561 . S
C733 C527 2.002 . S
C731 C7 2.093 . S
C749 C52 1.575 . S
C751 C225 1.558 . S
C769 C139 2.016 . S
C767 C62 2.180 . S
C785 C74 1.575 . S
C787 C201 1.554 . S
C803 C82 1.595 . S
C805 C157 1.987 . S
C823 C453 1.727 . S
C821 C51 1.719 . S
C841 C521 1.383 . S
C839 C60 1.299 . S
C859 C299 1.868 . S
C857 C71 1.902 . S
C875 C84 2.182 . S
C877 C379 2.300 1_565 S
C895 C435 1.335 . S
C893 C63 1.342 . S
C913 C497 1.494 . S
C911 C73 1.574 . S
C931 C275 1.855 . S
C929 C85 1.935 . S
C947 C49 1.232 . S
C949 C361 1.447 . S
