# Generated by pormake.
# Topology dag, (6,3)-cn, num edge types: 1
# Building blocks:
#     Node 0, Type 0, BuildingBlock: MIDCAF_clean_sbu_0, # of connection points: 6
#     Node 1, Type 0, BuildingBlock: MIDCAF_clean_sbu_0, # of connection points: 6
#     Node 2, Type 0, BuildingBlock: MIDCAF_clean_sbu_0, # of connection points: 6
#     Node 3, Type 0, BuildingBlock: MIDCAF_clean_sbu_0, # of connection points: 6
#     Node 4, Type 1, BuildingBlock: BETDIP_clean_linker_0, # of connection points: 3
#     Node 5, Type 1, BuildingBlock: BETDIP_clean_linker_0, # of connection points: 3
#     Node 6, Type 1, BuildingBlock: BETDIP_clean_linker_0, # of connection points: 3
#     Node 7, Type 1, BuildingBlock: BETDIP_clean_linker_0, # of connection points: 3
#     Node 8, Type 1, BuildingBlock: BETDIP_clean_linker_0, # of connection points: 3
#     Node 9, Type 1, BuildingBlock: BETDIP_clean_linker_0, # of connection points: 3
#     Node 10, Type 1, BuildingBlock: BETDIP_clean_linker_0, # of connection points: 3
#     Node 11, Type 1, BuildingBlock: BETDIP_clean_linker_0, # of connection points: 3
#     Edge 12, Type (0, 1), BuildingBlock: AJUNOK_clean_linker_0, # of connection points: 2
#     Edge 13, Type (0, 1), BuildingBlock: AJUNOK_clean_linker_0, # of connection points: 2
#     Edge 14, Type (0, 1), BuildingBlock: AJUNOK_clean_linker_0, # of connection points: 2
#     Edge 15, Type (0, 1), BuildingBlock: AJUNOK_clean_linker_0, # of connection points: 2
#     Edge 16, Type (0, 1), BuildingBlock: AJUNOK_clean_linker_0, # of connection points: 2
#     Edge 17, Type (0, 1), BuildingBlock: AJUNOK_clean_linker_0, # of connection points: 2
#     Edge 18, Type (0, 1), BuildingBlock: AJUNOK_clean_linker_0, # of connection points: 2
#     Edge 19, Type (0, 1), BuildingBlock: AJUNOK_clean_linker_0, # of connection points: 2
#     Edge 20, Type (0, 1), BuildingBlock: AJUNOK_clean_linker_0, # of connection points: 2
#     Edge 21, Type (0, 1), BuildingBlock: AJUNOK_clean_linker_0, # of connection points: 2
#     Edge 22, Type (0, 1), BuildingBlock: AJUNOK_clean_linker_0, # of connection points: 2
#     Edge 23, Type (0, 1), BuildingBlock: AJUNOK_clean_linker_0, # of connection points: 2
#     Edge 24, Type (0, 1), BuildingBlock: AJUNOK_clean_linker_0, # of connection points: 2
#     Edge 25, Type (0, 1), BuildingBlock: AJUNOK_clean_linker_0, # of connection points: 2
#     Edge 26, Type (0, 1), BuildingBlock: AJUNOK_clean_linker_0, # of connection points: 2
#     Edge 27, Type (0, 1), BuildingBlock: AJUNOK_clean_linker_0, # of connection points: 2
#     Edge 28, Type (0, 1), BuildingBlock: AJUNOK_clean_linker_0, # of connection points: 2
#     Edge 29, Type (0, 1), BuildingBlock: AJUNOK_clean_linker_0, # of connection points: 2
#     Edge 30, Type (0, 1), BuildingBlock: AJUNOK_clean_linker_0, # of connection points: 2
#     Edge 31, Type (0, 1), BuildingBlock: AJUNOK_clean_linker_0, # of connection points: 2
#     Edge 32, Type (0, 1), BuildingBlock: AJUNOK_clean_linker_0, # of connection points: 2
#     Edge 33, Type (0, 1), BuildingBlock: AJUNOK_clean_linker_0, # of connection points: 2
#     Edge 34, Type (0, 1), BuildingBlock: AJUNOK_clean_linker_0, # of connection points: 2
#     Edge 35, Type (0, 1), BuildingBlock: AJUNOK_clean_linker_0, # of connection points: 2
# Relax obj value: 0.125
# Max RMSD: 0.136
# Mean RMSD: 0.112
data_MOF--net-dag--node1-MIDCAF_clean_sbu_0--node2-BETDIP_clean_linker_0--edge1-AJUNOK_clean_linker_0
_symmetry_space_group_name_H-M    P1
_symmetry_Int_Tables_number       1
_symmetry_cell_setting            triclinic
loop_
_symmetry_equiv_pos_as_xyz
'x, y, z'
_cell_length_a     31.021696
_cell_length_b     29.90953
_cell_length_c     22.677116
_cell_angle_alpha  87.395088
_cell_angle_beta   90.603815
_cell_angle_gamma 90.858795
loop_
_atom_site_label
_atom_site_type_symbol
_atom_site_fract_x
_atom_site_fract_y
_atom_site_fract_z
_atom_type_partial_charge
Zn0 Zn 0.18745 0.86731 0.11633 0.0
Zn1 Zn 0.13744 0.83566 0.91192 0.0
Zn2 Zn 0.15994 0.85424 1.01271 0.0
C3 C 0.14369 0.92761 0.90724 0.0
C4 C 0.06908 0.8076 0.97747 0.0
O5 O 0.21891 0.8127 0.0327 0.0
O6 O 0.23832 0.83077 0.1228 0.0
C7 C 0.18653 0.95115 0.06044 0.0
O8 O 0.15598 0.91907 0.96104 0.0
O9 O 0.13365 0.89596 0.87469 0.0
O10 O 0.08301 0.80445 0.92595 0.0
O11 O 0.09293 0.82584 1.0169 0.0
O12 O 0.19761 0.93188 0.10869 0.0
O13 O 0.17197 0.92786 1.01785 0.0
O14 O 0.10616 0.83751 0.07384 0.0
O15 O 0.13548 0.84814 0.16135 0.0
C16 C 0.10299 0.83808 0.13048 0.0
O17 O 0.20739 0.80685 0.97379 0.0
O18 O 0.18126 0.79834 0.88388 0.0
C19 C 0.24478 0.80894 0.07766 0.0
C20 C 0.20943 0.78952 0.92269 0.0
Zn21 Zn 0.69401 0.62829 0.46791 0.0
Zn22 Zn 0.66612 0.60908 0.68728 0.0
Zn23 Zn 0.67304 0.62272 0.5771 0.0
C24 C 0.67833 0.52714 0.65758 0.0
C25 C 0.58581 0.63813 0.63891 0.0
O26 O 0.72754 0.67255 0.56471 0.0
O27 O 0.74107 0.6718 0.46906 0.0
C28 C 0.69906 0.53913 0.49851 0.0
O29 O 0.67483 0.55053 0.60846 0.0
O30 O 0.68242 0.54658 0.70547 0.0
O31 O 0.6035 0.62161 0.68518 0.0
O32 O 0.6073 0.64319 0.59084 0.0
O33 O 0.70857 0.56572 0.45576 0.0
O34 O 0.68649 0.55462 0.54748 0.0
O35 O 0.61371 0.64235 0.52798 0.0
O36 O 0.63671 0.64696 0.43596 0.0
C37 C 0.60622 0.64871 0.47222 0.0
O38 O 0.71681 0.67088 0.62472 0.0
O39 O 0.70103 0.65636 0.71865 0.0
C40 C 0.74927 0.68662 0.51909 0.0
C41 C 0.72089 0.67964 0.67984 0.0
Zn42 Zn 0.76206 0.10659 0.98143 0.0
Zn43 Zn 0.85047 0.18451 0.15033 0.0
Zn44 Zn 0.8092 0.14298 0.06551 0.0
C45 C 0.90279 0.19413 0.05398 0.0
C46 C 0.84228 0.09094 0.18197 0.0
O47 O 0.74984 0.18228 0.04829 0.0
O48 O 0.71373 0.14856 0.97797 0.0
C49 C 0.8436 0.1358 0.93502 0.0
O50 O 0.87289 0.16835 0.03404 0.0
O51 O 0.89944 0.2099 0.10434 0.0
O52 O 0.85916 0.12713 0.19843 0.0
O53 O 0.82063 0.09038 0.13331 0.0
O54 O 0.80939 0.1149 0.92159 0.0
O55 O 0.8487 0.15059 0.98703 0.0
O56 O 0.80167 0.06973 0.08312 0.0
O57 O 0.75431 0.04568 1.01787 0.0
C58 C 0.77972 0.03758 0.06072 0.0
O59 O 0.76669 0.19269 0.10463 0.0
O60 O 0.80543 0.22511 0.17376 0.0
C61 C 0.71742 0.1804 1.01239 0.0
C62 C 0.77031 0.22072 0.14604 0.0
Zn63 Zn 0.27242 0.35465 0.60011 0.0
Zn64 Zn 0.33713 0.30917 0.40799 0.0
Zn65 Zn 0.30457 0.34123 0.50009 0.0
C66 C 0.4002 0.29536 0.48588 0.0
C67 C 0.32819 0.40508 0.39289 0.0
O68 O 0.24506 0.29869 0.51424 0.0
O69 O 0.2197 0.31884 0.59971 0.0
C70 C 0.35329 0.32382 0.62631 0.0
O71 O 0.37203 0.31715 0.51418 0.0
O72 O 0.39148 0.28211 0.43516 0.0
O73 O 0.34146 0.37035 0.36948 0.0
O74 O 0.31068 0.4021 0.44415 0.0
O75 O 0.32012 0.33495 0.65344 0.0
O76 O 0.35283 0.3238 0.5695 0.0
O77 O 0.29532 0.4156 0.50072 0.0
O78 O 0.26662 0.41918 0.58887 0.0
C79 C 0.27991 0.43882 0.54205 0.0
O80 O 0.25774 0.29485 0.45455 0.0
O81 O 0.29275 0.26968 0.37845 0.0
C82 C 0.2165 0.2952 0.5553 0.0
C83 C 0.25894 0.27105 0.40838 0.0
H84 H 0.07114 0.23432 0.12238 0.0
H85 H 0.17862 0.14843 0.15231 0.0
H86 H 0.0986 0.13308 0.99887 0.0
H87 H 0.14248 0.15125 0.24703 0.0
C88 C 0.14475 0.18748 0.24864 0.0
C89 C 0.09226 0.2094 0.10574 0.0
C90 C 0.08137 0.18715 0.05388 0.0
C91 C 0.12704 0.19558 0.14133 0.0
C92 C 0.15258 0.16039 0.12381 0.0
C93 C 0.14227 0.13756 0.07268 0.0
C94 C 0.10775 0.15218 0.03665 0.0
N95 N 0.13315 0.21418 0.19752 0.0
H96 H 0.27663 0.64526 0.6445 0.0
H97 H 0.39752 0.70053 0.70014 0.0
H98 H 0.39707 0.59558 0.58029 0.0
H99 H 0.36589 0.71442 0.78217 0.0
C100 C 0.33126 0.71034 0.77787 0.0
C101 C 0.31133 0.64473 0.64257 0.0
C102 C 0.33301 0.61486 0.60661 0.0
C103 C 0.33433 0.67314 0.67979 0.0
C104 C 0.37905 0.67764 0.67394 0.0
C105 C 0.40084 0.65097 0.63572 0.0
C106 C 0.37834 0.61886 0.60411 0.0
N107 N 0.31192 0.69333 0.72587 0.0
H108 H 0.93779 0.79838 0.31065 0.0
H109 H 0.84929 0.90247 0.3492 0.0
H110 H 0.93998 0.92359 0.20916 0.0
H111 H 0.84244 0.86515 0.43671 0.0
C112 C 0.85197 0.83072 0.43229 0.0
C113 C 0.92576 0.83181 0.30145 0.0
C114 C 0.9436 0.85909 0.25555 0.0
C115 C 0.89283 0.84742 0.33682 0.0
C116 C 0.87543 0.89004 0.32367 0.0
C117 C 0.89235 0.91716 0.27711 0.0
C118 C 0.92632 0.90166 0.24373 0.0
N119 N 0.87822 0.8188 0.38453 0.0
H120 H 0.50789 0.28898 0.81734 0.0
H121 H 0.62681 0.36358 0.81124 0.0
H122 H 0.5456 0.35811 0.65601 0.0
H123 H 0.62414 0.35475 0.91098 0.0
C124 C 0.6114 0.32083 0.91636 0.0
C125 C 0.53157 0.30868 0.79226 0.0
C126 C 0.52274 0.3222 0.73365 0.0
C127 C 0.56962 0.32235 0.81995 0.0
C128 C 0.59892 0.35062 0.78852 0.0
C129 C 0.59104 0.3639 0.72881 0.0
C130 C 0.55319 0.34793 0.70137 0.0
N131 N 0.57731 0.30645 0.87909 0.0
H132 H 0.56928 0.26199 0.40516 0.0
H133 H 0.68076 0.34634 0.38255 0.0
H134 H 0.59959 0.36125 0.53227 0.0
H135 H 0.64853 0.34479 0.28576 0.0
C136 C 0.64777 0.30852 0.2839 0.0
C137 C 0.59113 0.28655 0.42322 0.0
C138 C 0.58088 0.30793 0.47536 0.0
C139 C 0.62663 0.30046 0.38949 0.0
C140 C 0.6536 0.3348 0.40911 0.0
C141 C 0.64357 0.35728 0.46 0.0
C142 C 0.60815 0.34272 0.4942 0.0
N143 N 0.63252 0.28227 0.33342 0.0
H144 H -0.00524 0.18123 0.73624 0.0
H145 H 0.11669 0.11469 0.7436 0.0
H146 H 0.01742 0.07645 0.86796 0.0
H147 H 0.10745 0.12501 0.63978 0.0
C148 C 0.09923 0.1602 0.63949 0.0
C149 C 0.01598 0.15649 0.75679 0.0
C150 C 0.00209 0.13024 0.80585 0.0
C151 C 0.0565 0.14944 0.73242 0.0
C152 C 0.08432 0.11791 0.75999 0.0
C153 C 0.07057 0.09094 0.8089 0.0
C154 C 0.02922 0.09752 0.83127 0.0
N155 N 0.06883 0.17487 0.68073 0.0
H156 H 0.44017 0.69918 0.30136 0.0
H157 H 0.34432 0.60362 0.24693 0.0
H158 H 0.43679 0.56475 0.37895 0.0
H159 H 0.35302 0.63997 0.15759 0.0
C160 C 0.3578 0.67475 0.16816 0.0
C161 C 0.42607 0.66587 0.30566 0.0
C162 C 0.4421 0.63434 0.3484 0.0
C163 C 0.39252 0.65434 0.26664 0.0
C164 C 0.37182 0.61233 0.27406 0.0
C165 C 0.38727 0.58088 0.31617 0.0
C166 C 0.42325 0.59126 0.35088 0.0
N167 N 0.3801 0.68582 0.22093 0.0
H168 H 0.77652 0.8673 0.95251 0.0
H169 H 0.87367 0.7736 0.91198 0.0
H170 H 0.88531 0.84562 0.07034 0.0
H171 H 0.85467 0.79974 0.81787 0.0
C172 C 0.81983 0.79708 0.82139 0.0
C173 C 0.80519 0.84909 0.9659 0.0
C174 C 0.82831 0.86025 1.01736 0.0
C175 C 0.82114 0.81779 0.92782 0.0
C176 C 0.8599 0.79635 0.94221 0.0
C177 C 0.88372 0.80763 0.99241 0.0
C178 C 0.86646 0.83715 0.03185 0.0
N179 N 0.79925 0.81076 0.87345 0.0
C180 C 0.16095 0.01605 0.1118 0.0
C181 C 0.17982 -0.00019 0.06106 0.0
C182 C 0.15046 0.06087 0.11506 0.0
C183 C 0.15834 0.09162 0.06772 0.0
H184 H 0.15283 -0.00644 0.149 0.0
H185 H 0.13464 0.07125 0.15448 0.0
S186 S 0.21125 0.06752 0.92711 0.0
N187 N 0.20959 0.0186 0.96421 0.0
N188 N 0.18821 0.10368 0.96949 0.0
C189 C 0.17817 0.07642 1.017 0.0
C190 C 0.18947 0.03031 1.01396 0.0
C191 C 0.51352 0.61726 0.67678 0.0
C192 C 0.53909 0.64562 0.63976 0.0
C193 C 0.46871 0.61977 0.67538 0.0
C194 C 0.44802 0.65086 0.63725 0.0
H195 H 0.52811 0.59178 0.70568 0.0
H196 H 0.45002 0.59675 0.70357 0.0
S197 S 0.49961 0.7349 0.53497 0.0
N198 N 0.54037 0.70778 0.5667 0.0
N199 N 0.45534 0.71195 0.56372 0.0
C200 C 0.47282 0.68049 0.60146 0.0
C201 C 0.51867 0.67804 0.60287 0.0
C202 C 0.82342 0.01173 0.21459 0.0
C203 C 0.8523 0.0485 0.21509 0.0
C204 C 0.83539 0.96945 0.23833 0.0
C205 C 0.87652 0.96284 0.26347 0.0
H206 H 0.79191 0.01534 0.19413 0.0
H207 H 0.81324 0.94137 0.23436 0.0
S208 S 0.96255 0.04858 0.28057 0.0
N209 N 0.92284 0.07578 0.24661 0.0
N210 N 0.94485 -0.00342 0.29146 0.0
C211 C 0.90466 -0.00026 0.26726 0.0
C212 C 0.89261 0.04259 0.24322 0.0
C213 C 0.42488 0.2872 0.64397 0.0
C214 C 0.39437 0.31891 0.65923 0.0
C215 C 0.46662 0.28742 0.66877 0.0
C216 C 0.47829 0.31859 0.71079 0.0
H217 H 0.41656 0.26255 0.61214 0.0
H218 H 0.48993 0.26366 0.65453 0.0
S219 S 0.40965 0.40647 0.76868 0.0
N220 N 0.37848 0.38108 0.72073 0.0
N221 N 0.45613 0.38032 0.76865 0.0
C222 C 0.44748 0.34887 0.72853 0.0
C223 C 0.40553 0.34913 0.70276 0.0
C224 C 0.69812 0.45718 0.52979 0.0
C225 C 0.69151 0.49148 0.4863 0.0
C226 C 0.6834 0.41315 0.52128 0.0
C227 C 0.66283 0.40213 0.46819 0.0
H228 H 0.71434 0.46457 0.57066 0.0
H229 H 0.6877 0.38781 0.55643 0.0
S230 S 0.63866 0.47937 0.33992 0.0
N231 N 0.66347 0.51094 0.38786 0.0
N232 N 0.63705 0.42863 0.3715 0.0
C233 C 0.65764 0.43577 0.42359 0.0
C234 C 0.67196 0.4803 0.43251 0.0
C235 C 0.90874 0.17437 0.89105 0.0
C236 C 0.8802 0.13734 0.89386 0.0
C237 C 0.94734 0.1731 0.85938 0.0
C238 C 0.9584 0.1347 0.8298 0.0
H239 H 0.9018 0.20393 0.91489 0.0
H240 H 0.96955 0.20136 0.86043 0.0
S241 S 0.89338 0.03044 0.81956 0.0
N242 N 0.86456 0.06239 0.86113 0.0
N243 N 0.93692 0.06024 0.8017 0.0
C244 C 0.92916 0.0985 0.82971 0.0
C245 C 0.88996 0.09982 0.86157 0.0
C246 C 0.31373 0.48684 0.37228 0.0
C247 C 0.33911 0.44909 0.36404 0.0
C248 C 0.32791 0.52978 0.35261 0.0
C249 C 0.36756 0.53588 0.32368 0.0
H250 H 0.28384 0.48344 0.39643 0.0
H251 H 0.30903 0.55851 0.36306 0.0
S252 S 0.44353 0.44792 0.28506 0.0
N253 N 0.40419 0.42065 0.32027 0.0
N254 N 0.42995 0.5011 0.28299 0.0
C255 C 0.39159 0.49826 0.31149 0.0
C256 C 0.37747 0.45483 0.33154 0.0
C257 C -0.00313 0.8248 0.94006 0.0
C258 C 0.02216 0.80342 0.98428 0.0
C259 C 0.95228 0.82447 0.94321 0.0
C260 C 0.93085 0.80276 0.99077 0.0
H261 H 0.01175 0.84304 0.90299 0.0
H262 H 0.93437 0.84252 0.90864 0.0
S263 S 0.98176 0.73959 0.11668 0.0
N264 N 0.02283 0.75765 0.07568 0.0
N265 N 0.93768 0.7585 0.08291 0.0
C266 C 0.95539 0.78081 0.03544 0.0
C267 C 0.00144 0.78063 0.03177 0.0
C268 C 0.76095 0.95629 0.06583 0.0
C269 C 0.79198 -0.00955 0.07261 0.0
C270 C 0.77315 0.91258 0.05443 0.0
C271 C 0.81682 0.90164 0.04798 0.0
H272 H 0.72697 0.96419 0.0647 0.0
H273 H 0.74803 0.88806 0.04607 0.0
S274 S 0.91071 0.97825 0.07074 0.0
N275 N 0.86815 0.00933 0.08047 0.0
N276 N 0.89138 0.92815 0.05665 0.0
C277 C 0.84825 0.93466 0.06069 0.0
C278 C 0.8357 0.97888 0.07354 0.0
C279 C 0.46684 0.33557 0.51386 0.0
C280 C 0.44551 0.29466 0.50519 0.0
C281 C 0.51185 0.33888 0.51107 0.0
C282 C 0.53691 0.30114 0.50046 0.0
H283 H 0.44858 0.36601 0.51652 0.0
H284 H 0.52633 0.37203 0.51111 0.0
S285 S 0.49613 0.1842 0.49413 0.0
N286 N 0.45221 0.21448 0.49774 0.0
N287 N 0.53718 0.21991 0.49667 0.0
C288 C 0.51595 0.25902 0.50101 0.0
C289 C 0.47008 0.25596 0.50204 0.0
C290 C 0.11424 0.00363 0.92022 0.0
C291 C 0.1348 0.97359 0.88436 0.0
C292 C 0.09662 0.04337 0.89606 0.0
C293 C 0.09732 0.05371 0.8347 0.0
H294 H 0.10968 -0.00468 0.96673 0.0
H295 H 0.08052 0.0651 0.92548 0.0
S296 S 0.14928 0.98621 0.72233 0.0
N297 N 0.15799 0.9581 0.78552 0.0
N298 N 0.122 0.03074 0.73915 0.0
C299 C 0.11944 0.02462 0.79878 0.0
C300 C 0.13854 0.98493 0.82379 0.0
C301 C 0.55411 0.67545 0.39415 0.0
C302 C 0.56172 0.65159 0.44804 0.0
C303 C 0.51465 0.67167 0.36384 0.0
C304 C 0.48065 0.64442 0.3866 0.0
H305 H 0.5797 0.69549 0.37364 0.0
H306 H 0.51199 0.68833 0.32062 0.0
S307 S 0.48381 0.57653 0.52819 0.0
N308 N 0.53262 0.59875 0.52212 0.0
N309 N 0.45631 0.59722 0.47087 0.0
C310 C 0.48698 0.62304 0.44296 0.0
C311 C 0.52797 0.62513 0.47216 0.0
C312 C 0.31853 0.51124 0.51529 0.0
C313 C 0.28372 0.48846 0.54245 0.0
C314 C 0.33053 0.55466 0.53092 0.0
C315 C 0.31064 0.57581 0.57816 0.0
H316 H 0.339 0.49423 0.48545 0.0
H317 H 0.35777 0.57015 0.50825 0.0
S318 S 0.21221 0.53208 0.65606 0.0
N319 N 0.22349 0.49353 0.60919 0.0
N320 N 0.24975 0.57114 0.64599 0.0
C321 C 0.27325 0.55448 0.60201 0.0
C322 C 0.25921 0.51175 0.5827 0.0
C323 C 0.02389 0.85217 0.13096 0.0
C324 C 0.06055 0.83423 0.15964 0.0
C325 C 0.98521 0.8569 0.16127 0.0
C326 C 0.98204 0.84538 0.2221 0.0
H327 H 0.02558 0.86461 0.08544 0.0
H328 H 0.95809 0.8715 0.1373 0.0
S329 S 0.06882 0.79552 0.31699 0.0
N330 N 0.09068 0.80219 0.25109 0.0
N331 N 0.01909 0.81388 0.30928 0.0
C332 C 0.01813 0.82591 0.25076 0.0
C333 C 0.05716 0.82002 0.21938 0.0
C334 C 0.61955 0.47249 0.64367 0.0
C335 C 0.66229 0.48061 0.66131 0.0
C336 C 0.59763 0.43333 0.66258 0.0
C337 C 0.618 0.39995 0.69856 0.0
H338 H 0.60159 0.49839 0.61964 0.0
H339 H 0.56354 0.43126 0.6524 0.0
S340 S 0.7337 0.40108 0.74313 0.0
N341 N 0.7264 0.45046 0.70915 0.0
N342 N 0.68676 0.37441 0.73998 0.0
C343 C 0.66251 0.4057 0.71039 0.0
C344 C 0.68427 0.44661 0.69304 0.0
C345 C 0.96654 0.15583 1.01825 0.0
C346 C 0.94568 0.19627 0.02698 0.0
C347 C 0.01161 0.15386 1.01927 0.0
C348 C 0.03715 0.19248 0.02824 0.0
H349 H 0.9482 0.1247 1.01803 0.0
H350 H 0.02589 0.12103 1.01995 0.0
S351 S -0.00291 0.30848 0.03214 0.0
N352 N 0.95296 0.27691 0.03093 0.0
N353 N 0.03791 0.27382 0.02917 0.0
C354 C 0.01638 0.23405 0.02656 0.0
C355 C 0.97049 0.23581 0.027 0.0
C356 C 0.27138 0.73102 0.07326 0.0
C357 C 0.28006 0.77655 0.08142 0.0
C358 C 0.29874 0.698 0.09809 0.0
C359 C 0.33523 0.70972 0.13187 0.0
H360 H 0.24144 0.72076 0.05249 0.0
H361 H 0.2895 0.66314 0.09463 0.0
S362 S 0.37707 0.82475 0.15283 0.0
N363 N 0.33138 0.83187 0.1158 0.0
N364 N 0.38276 0.77007 0.16218 0.0
C365 C 0.34664 0.7552 0.13435 0.0
C366 C 0.31902 0.78859 0.109 0.0
C367 C 0.7256 0.74547 0.74073 0.0
C368 C 0.7458 0.71822 0.70062 0.0
C369 C 0.74956 0.77313 0.77719 0.0
C370 C 0.79477 0.77455 0.77494 0.0
H371 H 0.69101 0.74305 0.74686 0.0
H372 H 0.73252 0.79164 0.80939 0.0
S373 S 0.86273 0.7147 0.67121 0.0
N374 N 0.81303 0.69776 0.65616 0.0
N375 N 0.8586 0.75066 0.72406 0.0
C376 C 0.81518 0.75059 0.73123 0.0
C377 C 0.79056 0.72215 0.69409 0.0
C378 C 0.73871 0.29047 0.17977 0.0
C379 C 0.73307 0.24539 0.16617 0.0
C380 C 0.70877 0.31164 0.21435 0.0
C381 C 0.67307 0.28793 0.23793 0.0
H382 H 0.76768 0.30871 0.16632 0.0
H383 H 0.71534 0.34578 0.22627 0.0
S384 S 0.64068 0.17126 0.20809 0.0
N385 N 0.68649 0.1794 0.17239 0.0
N386 N 0.63074 0.2188 0.23942 0.0
C387 C 0.66534 0.24388 0.22105 0.0
C388 C 0.69528 0.22269 0.18444 0.0
C389 C 0.14156 0.27144 0.57692 0.0
C390 C 0.18254 0.26035 0.5566 0.0
C391 C 0.11317 0.23844 0.59988 0.0
C392 C 0.12495 0.1932 0.60358 0.0
H393 H 0.13272 0.30623 0.57926 0.0
H394 H 0.08298 0.24888 0.61804 0.0
S395 S 0.22667 0.14633 0.55058 0.0
N396 N 0.23202 0.20086 0.53696 0.0
N397 N 0.17832 0.13846 0.5794 0.0
C398 C 0.16417 0.18126 0.57852 0.0
C399 C 0.19312 0.21498 0.55509 0.0
C400 C 0.76727 0.76728 0.52265 0.0
C401 C 0.78148 0.72297 0.5211 0.0
C402 C 0.79222 0.8029 0.498 0.0
C403 C 0.83179 0.79501 0.47077 0.0
H404 H 0.73497 0.77393 0.53737 0.0
H405 H 0.77877 0.83616 0.49576 0.0
S406 S 0.88712 0.68597 0.46858 0.0
N407 N 0.84025 0.67396 0.49978 0.0
N408 N 0.88754 0.74062 0.45437 0.0
C409 C 0.84841 0.75148 0.47549 0.0
C410 C 0.82307 0.71547 0.50053 0.0
C411 C 0.64503 0.20878 0.98414 0.0
C412 C 0.68706 0.21781 1.00455 0.0
C413 C 0.61923 0.24292 0.95964 0.0
C414 C 0.63469 0.28736 0.95428 0.0
H415 H 0.63294 0.17461 0.98371 0.0
H416 H 0.58798 0.23378 0.94173 0.0
S417 S 0.73998 0.32968 1.00884 0.0
N418 N 0.7412 0.27515 0.02372 0.0
N419 N 0.69235 0.33955 0.9781 0.0
C420 C 0.67502 0.29752 0.97948 0.0
C421 C 0.70136 0.26266 1.00458 0.0
C422 C 0.19028 0.2732 0.35218 0.0
C423 C 0.22075 0.24795 0.38508 0.0
C424 C 0.16388 0.25321 0.30973 0.0
C425 C 0.16678 0.20725 0.29975 0.0
H426 H 0.1896 0.30922 0.35539 0.0
H427 H 0.14267 0.27425 0.28271 0.0
S428 S 0.23825 0.12606 0.37916 0.0
N429 N 0.25052 0.17459 0.40748 0.0
N430 N 0.19929 0.13644 0.33047 0.0
C431 C 0.19443 0.18113 0.33611 0.0
C432 C 0.22192 0.20166 0.3781 0.0
C433 C 0.23254 0.72423 0.87042 0.0
C434 C 0.24429 0.76029 0.90525 0.0
C435 C 0.2616 0.7066 0.83142 0.0
C436 C 0.30373 0.72396 0.82654 0.0
H437 H 0.19938 0.71227 0.86934 0.0
H438 H 0.25021 0.68076 0.80287 0.0
S439 S 0.35303 0.81183 0.91694 0.0
N440 N 0.30236 0.80844 0.93872 0.0
N441 N 0.35804 0.774 0.8666 0.0
C442 C 0.31747 0.75627 0.86617 0.0
C443 C 0.28748 0.77472 0.90554 0.0
loop_
_geom_bond_atom_site_label_1
_geom_bond_atom_site_label_2
_geom_bond_distance
_geom_bond_site_symmetry_2
_ccdc_geom_bond_type
Zn0 O6 1.920 . S
Zn0 O12 1.898 . S
Zn0 O15 1.905 . S
Zn1 O9 1.905 . S
Zn1 O10 1.898 . S
Zn1 O18 1.920 . S
Zn2 O5 2.081 . S
Zn2 O8 2.114 1_554 S
Zn2 O11 2.120 1_554 S
Zn2 O13 2.120 . S
Zn2 O14 2.114 . S
Zn2 O17 2.080 1_554 S
C3 O8 1.166 . S
C3 O9 1.182 . S
C4 O10 1.167 . S
C4 O11 1.299 . S
O5 Zn2 2.081 . S
O5 C19 1.305 . S
O6 Zn0 1.920 . S
O6 C19 1.234 . S
C7 O12 1.167 . S
C7 O13 1.299 . S
O8 Zn2 2.114 1_556 S
O8 C3 1.166 . S
O9 Zn1 1.905 . S
O9 C3 1.182 . S
O10 Zn1 1.898 . S
O10 C4 1.167 . S
O11 Zn2 2.120 1_556 S
O11 C4 1.299 . S
O12 Zn0 1.898 . S
O12 C7 1.167 . S
O13 Zn2 2.120 . S
O13 C7 1.299 . S
O14 Zn2 2.114 . S
O14 C16 1.166 . S
O15 Zn0 1.905 . S
O15 C16 1.182 . S
C16 O14 1.166 . S
C16 O15 1.182 . S
O17 Zn2 2.080 1_556 S
O17 C20 1.305 . S
O18 Zn1 1.920 . S
O18 C20 1.234 . S
C19 O5 1.305 . S
C19 O6 1.234 . S
C20 O17 1.305 . S
C20 O18 1.234 . S
Zn21 O27 1.920 . S
Zn21 O33 1.898 . S
Zn21 O36 1.905 . S
Zn22 O30 1.905 . S
Zn22 O31 1.898 . S
Zn22 O39 1.920 . S
Zn23 O26 2.080 . S
Zn23 O29 2.114 . S
Zn23 O32 2.120 . S
Zn23 O34 2.120 . S
Zn23 O35 2.114 . S
Zn23 O38 2.080 . S
C24 O29 1.166 . S
C24 O30 1.182 . S
C25 O31 1.167 . S
C25 O32 1.299 . S
O26 Zn23 2.080 . S
O26 C40 1.305 . S
O27 Zn21 1.920 . S
O27 C40 1.234 . S
C28 O33 1.167 . S
C28 O34 1.299 . S
O29 Zn23 2.114 . S
O29 C24 1.166 . S
O30 Zn22 1.905 . S
O30 C24 1.182 . S
O31 Zn22 1.898 . S
O31 C25 1.167 . S
O32 Zn23 2.120 . S
O32 C25 1.299 . S
O33 Zn21 1.898 . S
O33 C28 1.167 . S
O34 Zn23 2.120 . S
O34 C28 1.299 . S
O35 Zn23 2.114 . S
O35 C37 1.166 . S
O36 Zn21 1.905 . S
O36 C37 1.182 . S
C37 O35 1.166 . S
C37 O36 1.182 . S
O38 Zn23 2.080 . S
O38 C41 1.305 . S
O39 Zn22 1.920 . S
O39 C41 1.234 . S
C40 O26 1.305 . S
C40 O27 1.234 . S
C41 O38 1.305 . S
C41 O39 1.234 . S
Zn42 O48 1.920 . S
Zn42 O54 1.898 . S
Zn42 O57 1.905 . S
Zn43 O51 1.905 . S
Zn43 O52 1.898 . S
Zn43 O60 1.920 . S
Zn44 O47 2.080 1_554 S
Zn44 O50 2.114 . S
Zn44 O53 2.120 . S
Zn44 O55 2.120 1_554 S
Zn44 O56 2.114 1_554 S
Zn44 O59 2.080 . S
C45 O50 1.166 . S
C45 O51 1.182 . S
C46 O52 1.167 . S
C46 O53 1.299 . S
O47 Zn44 2.080 1_556 S
O47 C61 1.305 . S
O48 Zn42 1.920 . S
O48 C61 1.234 . S
C49 O54 1.167 . S
C49 O55 1.299 . S
O50 Zn44 2.114 . S
O50 C45 1.166 . S
O51 Zn43 1.905 . S
O51 C45 1.182 . S
O52 Zn43 1.898 . S
O52 C46 1.167 . S
O53 Zn44 2.120 . S
O53 C46 1.299 . S
O54 Zn42 1.898 . S
O54 C49 1.167 . S
O55 Zn44 2.120 1_556 S
O55 C49 1.299 . S
O56 Zn44 2.114 1_556 S
O56 C58 1.166 . S
O57 Zn42 1.905 . S
O57 C58 1.182 . S
C58 O56 1.166 . S
C58 O57 1.182 . S
O59 Zn44 2.080 . S
O59 C62 1.305 . S
O60 Zn43 1.920 . S
O60 C62 1.234 . S
C61 O47 1.305 . S
C61 O48 1.234 . S
C62 O59 1.305 . S
C62 O60 1.234 . S
Zn63 O69 1.920 . S
Zn63 O75 1.898 . S
Zn63 O78 1.905 . S
Zn64 O72 1.905 . S
Zn64 O73 1.898 . S
Zn64 O81 1.920 . S
Zn65 O68 2.080 . S
Zn65 O71 2.114 . S
Zn65 O74 2.120 . S
Zn65 O76 2.120 . S
Zn65 O77 2.114 . S
Zn65 O80 2.080 . S
C66 O71 1.166 . S
C66 O72 1.182 . S
C67 O73 1.167 . S
C67 O74 1.299 . S
O68 Zn65 2.080 . S
O68 C82 1.305 . S
O69 Zn63 1.920 . S
O69 C82 1.234 . S
C70 O75 1.167 . S
C70 O76 1.299 . S
O71 Zn65 2.114 . S
O71 C66 1.166 . S
O72 Zn64 1.905 . S
O72 C66 1.182 . S
O73 Zn64 1.898 . S
O73 C67 1.167 . S
O74 Zn65 2.120 . S
O74 C67 1.299 . S
O75 Zn63 1.898 . S
O75 C70 1.167 . S
O76 Zn65 2.120 . S
O76 C70 1.299 . S
O77 Zn65 2.114 . S
O77 C79 1.166 . S
O78 Zn63 1.905 . S
O78 C79 1.182 . S
C79 O77 1.166 . S
C79 O78 1.182 . S
O80 Zn65 2.080 . S
O80 C83 1.305 . S
O81 Zn64 1.920 . S
O81 C83 1.234 . S
C82 O68 1.305 . S
C82 O69 1.234 . S
C83 O80 1.305 . S
C83 O81 1.234 . S
H84 C89 0.930 . S
H85 C92 0.930 . S
H86 C94 0.930 . S
H87 C88 1.016 . S
C88 H87 1.016 . S
C88 N95 1.286 . S
C89 H84 0.930 . S
C89 C90 1.397 . S
C89 C91 1.361 . S
C90 C89 1.397 . S
C90 C94 1.390 . S
C91 C89 1.361 . S
C91 C92 1.393 . S
C91 N95 1.413 . S
C92 H85 0.930 . S
C92 C91 1.393 . S
C92 C93 1.399 . S
C93 C92 1.399 . S
C93 C94 1.381 . S
C94 H86 0.930 . S
C94 C90 1.390 . S
C94 C93 1.381 . S
N95 C88 1.286 . S
N95 C91 1.413 . S
H96 C101 0.930 . S
H97 C104 0.930 . S
H98 C106 0.930 . S
H99 C100 1.016 . S
C100 H99 1.016 . S
C100 N107 1.286 . S
C101 H96 0.930 . S
C101 C102 1.397 . S
C101 C103 1.361 . S
C102 C101 1.397 . S
C102 C106 1.390 . S
C103 C101 1.361 . S
C103 C104 1.393 . S
C103 N107 1.413 . S
C104 H97 0.930 . S
C104 C103 1.393 . S
C104 C105 1.399 . S
C105 C104 1.399 . S
C105 C106 1.381 . S
C106 H98 0.930 . S
C106 C102 1.390 . S
C106 C105 1.381 . S
N107 C100 1.286 . S
N107 C103 1.413 . S
H108 C113 0.930 . S
H109 C116 0.930 . S
H110 C118 0.930 . S
H111 C112 1.016 . S
C112 H111 1.016 . S
C112 N119 1.286 . S
C113 H108 0.930 . S
C113 C114 1.397 . S
C113 C115 1.361 . S
C114 C113 1.397 . S
C114 C118 1.390 . S
C115 C113 1.361 . S
C115 C116 1.393 . S
C115 N119 1.413 . S
C116 H109 0.930 . S
C116 C115 1.393 . S
C116 C117 1.399 . S
C117 C116 1.399 . S
C117 C118 1.381 . S
C118 H110 0.930 . S
C118 C114 1.390 . S
C118 C117 1.381 . S
N119 C112 1.286 . S
N119 C115 1.413 . S
H120 C125 0.930 . S
H121 C128 0.930 . S
H122 C130 0.930 . S
H123 C124 1.016 . S
C124 H123 1.016 . S
C124 N131 1.286 . S
C125 H120 0.930 . S
C125 C126 1.397 . S
C125 C127 1.361 . S
C126 C125 1.397 . S
C126 C130 1.390 . S
C127 C125 1.361 . S
C127 C128 1.393 . S
C127 N131 1.413 . S
C128 H121 0.930 . S
C128 C127 1.393 . S
C128 C129 1.399 . S
C129 C128 1.399 . S
C129 C130 1.381 . S
C130 H122 0.930 . S
C130 C126 1.390 . S
C130 C129 1.381 . S
N131 C124 1.286 . S
N131 C127 1.413 . S
H132 C137 0.930 . S
H133 C140 0.930 . S
H134 C142 0.930 . S
H135 C136 1.016 . S
C136 H135 1.016 . S
C136 N143 1.286 . S
C137 H132 0.930 . S
C137 C138 1.397 . S
C137 C139 1.361 . S
C138 C137 1.397 . S
C138 C142 1.390 . S
C139 C137 1.361 . S
C139 C140 1.393 . S
C139 N143 1.413 . S
C140 H133 0.930 . S
C140 C139 1.393 . S
C140 C141 1.399 . S
C141 C140 1.399 . S
C141 C142 1.381 . S
C142 H134 0.930 . S
C142 C138 1.390 . S
C142 C141 1.381 . S
N143 C136 1.286 . S
N143 C139 1.413 . S
H144 C149 0.930 . S
H145 C152 0.930 . S
H146 C154 0.930 . S
H147 C148 1.016 . S
C148 H147 1.016 . S
C148 N155 1.286 . S
C149 H144 0.930 . S
C149 C150 1.397 . S
C149 C151 1.361 . S
C150 C149 1.397 . S
C150 C154 1.390 . S
C151 C149 1.361 . S
C151 C152 1.393 . S
C151 N155 1.413 . S
C152 H145 0.930 . S
C152 C151 1.393 . S
C152 C153 1.399 . S
C153 C152 1.399 . S
C153 C154 1.381 . S
C154 H146 0.930 . S
C154 C150 1.390 . S
C154 C153 1.381 . S
N155 C148 1.286 . S
N155 C151 1.413 . S
H156 C161 0.930 . S
H157 C164 0.930 . S
H158 C166 0.930 . S
H159 C160 1.016 . S
C160 H159 1.016 . S
C160 N167 1.286 . S
C161 H156 0.930 . S
C161 C162 1.397 . S
C161 C163 1.361 . S
C162 C161 1.397 . S
C162 C166 1.390 . S
C163 C161 1.361 . S
C163 C164 1.393 . S
C163 N167 1.413 . S
C164 H157 0.930 . S
C164 C163 1.393 . S
C164 C165 1.399 . S
C165 C164 1.399 . S
C165 C166 1.381 . S
C166 H158 0.930 . S
C166 C162 1.390 . S
C166 C165 1.381 . S
N167 C160 1.286 . S
N167 C163 1.413 . S
H168 C173 0.930 . S
H169 C176 0.930 . S
H170 C178 0.930 . S
H171 C172 1.016 . S
C172 H171 1.016 . S
C172 N179 1.286 . S
C173 H168 0.930 . S
C173 C174 1.397 . S
C173 C175 1.361 . S
C174 C173 1.397 . S
C174 C178 1.390 . S
C175 C173 1.361 . S
C175 C176 1.393 . S
C175 N179 1.413 . S
C176 H169 0.930 . S
C176 C175 1.393 . S
C176 C177 1.399 . S
C177 C176 1.399 . S
C177 C178 1.381 . S
C178 H170 0.930 . S
C178 C174 1.390 . S
C178 C177 1.381 . S
N179 C172 1.286 . S
N179 C175 1.413 . S
C180 C181 1.369 . S
C180 C182 1.419 1_565 S
C180 H184 0.930 . S
C181 C180 1.369 . S
C181 C190 1.429 1_565 S
C182 C180 1.419 1_545 S
C182 C183 1.363 . S
C182 H185 0.929 . S
C183 C182 1.363 . S
C183 C189 1.428 . S
H184 C180 0.930 . S
H185 C182 0.929 . S
S186 N187 1.613 1_556 S
S186 N188 1.610 1_556 S
N187 S186 1.613 1_554 S
N187 C190 1.354 . S
N188 S186 1.610 1_554 S
N188 C189 1.351 . S
C189 C183 1.428 . S
C189 N188 1.351 . S
C189 C190 1.434 . S
C190 C181 1.429 1_545 S
C190 N187 1.354 . S
C190 C189 1.434 . S
C191 C192 1.369 . S
C191 C193 1.419 . S
C191 H195 0.930 . S
C192 C191 1.369 . S
C192 C201 1.429 . S
C193 C191 1.419 . S
C193 C194 1.363 . S
C193 H196 0.929 . S
C194 C193 1.363 . S
C194 C200 1.428 . S
H195 C191 0.930 . S
H196 C193 0.929 . S
S197 N198 1.613 . S
S197 N199 1.610 . S
N198 S197 1.613 . S
N198 C201 1.350 . S
N199 S197 1.610 . S
N199 C200 1.351 . S
C200 C194 1.428 . S
C200 N199 1.351 . S
C200 C201 1.434 . S
C201 C192 1.429 . S
C201 N198 1.350 . S
C201 C200 1.434 . S
C202 C203 1.369 1_565 S
C202 C204 1.419 . S
C202 H206 0.930 . S
C203 C202 1.369 1_545 S
C203 C212 1.429 . S
C204 C202 1.419 . S
C204 C205 1.363 . S
C204 H207 0.929 . S
C205 C204 1.363 . S
C205 C211 1.428 . S
H206 C202 0.930 . S
H207 C204 0.929 . S
S208 N209 1.613 . S
S208 N210 1.610 . S
N209 S208 1.613 . S
N209 C212 1.350 . S
N210 S208 1.610 . S
N210 C211 1.351 1_545 S
C211 C205 1.428 . S
C211 N210 1.351 1_565 S
C211 C212 1.434 1_565 S
C212 C203 1.429 . S
C212 N209 1.350 . S
C212 C211 1.434 1_545 S
C213 C214 1.369 . S
C213 C215 1.419 . S
C213 H217 0.930 . S
C214 C213 1.369 . S
C214 C223 1.429 . S
C215 C213 1.419 . S
C215 C216 1.363 . S
C215 H218 0.929 . S
C216 C215 1.363 . S
C216 C222 1.428 . S
H217 C213 0.930 . S
H218 C215 0.929 . S
S219 N220 1.613 . S
S219 N221 1.610 . S
N220 S219 1.613 . S
N220 C223 1.350 . S
N221 S219 1.610 . S
N221 C222 1.351 . S
C222 C216 1.428 . S
C222 N221 1.351 . S
C222 C223 1.434 . S
C223 C214 1.429 . S
C223 N220 1.350 . S
C223 C222 1.434 . S
C224 C225 1.369 . S
C224 C226 1.419 . S
C224 H228 0.930 . S
C225 C224 1.369 . S
C225 C234 1.429 . S
C226 C224 1.419 . S
C226 C227 1.363 . S
C226 H229 0.929 . S
C227 C226 1.363 . S
C227 C233 1.428 . S
H228 C224 0.930 . S
H229 C226 0.929 . S
S230 N231 1.613 . S
S230 N232 1.610 . S
N231 S230 1.613 . S
N231 C234 1.350 . S
N232 S230 1.610 . S
N232 C233 1.351 . S
C233 C227 1.428 . S
C233 N232 1.351 . S
C233 C234 1.434 . S
C234 C225 1.429 . S
C234 N231 1.350 . S
C234 C233 1.434 . S
C235 C236 1.369 . S
C235 C237 1.419 1_655 S
C235 H239 0.933 . S
C236 C235 1.369 . S
C236 C245 1.429 . S
C237 C235 1.419 1_455 S
C237 C238 1.363 . S
C237 H240 0.929 . S
C238 C237 1.363 . S
C238 C244 1.428 1_455 S
H239 C235 0.933 . S
H240 C237 0.929 . S
S241 N242 1.613 . S
S241 N243 1.610 . S
N242 S241 1.613 . S
N242 C245 1.350 . S
N243 S241 1.610 . S
N243 C244 1.351 . S
C244 C238 1.428 1_655 S
C244 N243 1.351 . S
C244 C245 1.434 . S
C245 C236 1.429 . S
C245 N242 1.350 . S
C245 C244 1.434 . S
C246 C247 1.369 . S
C246 C248 1.419 . S
C246 H250 0.930 . S
C247 C246 1.369 . S
C247 C256 1.429 . S
C248 C246 1.419 . S
C248 C249 1.363 . S
C248 H251 0.929 . S
C249 C248 1.363 . S
C249 C255 1.428 . S
H250 C246 0.930 . S
H251 C248 0.929 . S
S252 N253 1.613 . S
S252 N254 1.610 . S
N253 S252 1.613 . S
N253 C256 1.350 . S
N254 S252 1.610 . S
N254 C255 1.351 . S
C255 C249 1.428 . S
C255 N254 1.351 . S
C255 C256 1.434 . S
C256 C247 1.429 . S
C256 N253 1.350 . S
C256 C255 1.434 . S
C257 C258 1.369 . S
C257 C259 1.419 1_455 S
C257 H261 0.930 . S
C258 C257 1.369 . S
C258 C267 1.429 1_455 S
C259 C257 1.419 1_655 S
C259 C260 1.363 . S
C259 H262 0.929 . S
C260 C259 1.363 . S
C260 C266 1.428 . S
H261 C257 0.930 . S
H262 C259 0.929 . S
S263 N264 1.613 1_554 S
S263 N265 1.610 1_554 S
N264 S263 1.613 1_556 S
N264 C267 1.350 . S
N265 S263 1.610 1_556 S
N265 C266 1.351 . S
C266 C260 1.428 . S
C266 N265 1.351 . S
C266 C267 1.434 . S
C267 C258 1.429 1_655 S
C267 N264 1.350 . S
C267 C266 1.434 . S
C268 C269 1.369 . S
C268 C270 1.419 . S
C268 H272 0.930 1_556 S
C269 C268 1.369 . S
C269 C278 1.429 . S
C270 C268 1.419 . S
C270 C271 1.363 . S
C270 H273 0.929 . S
C271 C270 1.363 . S
C271 C277 1.428 . S
H272 C268 0.930 1_554 S
H273 C270 0.929 . S
S274 N275 1.613 1_565 S
S274 N276 1.610 . S
N275 S274 1.613 1_545 S
N275 C278 1.350 1_545 S
N276 S274 1.610 . S
N276 C277 1.351 . S
C277 C271 1.428 . S
C277 N276 1.351 . S
C277 C278 1.434 . S
C278 C269 1.429 . S
C278 N275 1.350 1_565 S
C278 C277 1.434 . S
C279 C280 1.369 . S
C279 C281 1.419 . S
C279 H283 0.930 . S
C280 C279 1.369 . S
C280 C289 1.429 . S
C281 C279 1.419 . S
C281 C282 1.363 . S
C281 H284 0.929 . S
C282 C281 1.363 . S
C282 C288 1.428 . S
H283 C279 0.930 . S
H284 C281 0.929 . S
S285 N286 1.613 . S
S285 N287 1.610 . S
N286 S285 1.613 . S
N286 C289 1.350 . S
N287 S285 1.610 . S
N287 C288 1.351 . S
C288 C282 1.428 . S
C288 N287 1.351 . S
C288 C289 1.434 . S
C289 C280 1.429 . S
C289 N286 1.350 . S
C289 C288 1.434 . S
C290 C291 1.369 . S
C290 C292 1.419 . S
C290 H294 0.930 . S
C291 C290 1.369 . S
C291 C300 1.429 . S
C292 C290 1.419 . S
C292 C293 1.363 . S
C292 H295 0.929 . S
C293 C292 1.363 . S
C293 C299 1.428 . S
H294 C290 0.930 . S
H295 C292 0.929 . S
S296 N297 1.613 . S
S296 N298 1.610 1_565 S
N297 S296 1.613 . S
N297 C300 1.350 1_565 S
N298 S296 1.610 1_545 S
N298 C299 1.351 . S
C299 C293 1.428 . S
C299 N298 1.351 . S
C299 C300 1.434 . S
C300 C291 1.429 . S
C300 N297 1.350 1_545 S
C300 C299 1.434 . S
C301 C302 1.369 . S
C301 C303 1.419 . S
C301 H305 0.930 . S
C302 C301 1.369 . S
C302 C311 1.429 . S
C303 C301 1.419 . S
C303 C304 1.363 . S
C303 H306 0.929 . S
C304 C303 1.363 . S
C304 C310 1.428 . S
H305 C301 0.930 . S
H306 C303 0.929 . S
S307 N308 1.613 . S
S307 N309 1.610 . S
N308 S307 1.613 . S
N308 C311 1.350 . S
N309 S307 1.610 . S
N309 C310 1.351 . S
C310 C304 1.428 . S
C310 N309 1.351 . S
C310 C311 1.434 . S
C311 C302 1.429 . S
C311 N308 1.350 . S
C311 C310 1.434 . S
C312 C313 1.369 . S
C312 C314 1.419 . S
C312 H316 0.930 . S
C313 C312 1.369 . S
C313 C322 1.429 . S
C314 C312 1.419 . S
C314 C315 1.363 . S
C314 H317 0.929 . S
C315 C314 1.363 . S
C315 C321 1.428 . S
H316 C312 0.930 . S
H317 C314 0.929 . S
S318 N319 1.613 . S
S318 N320 1.610 . S
N319 S318 1.613 . S
N319 C322 1.350 . S
N320 S318 1.610 . S
N320 C321 1.351 . S
C321 C315 1.428 . S
C321 N320 1.351 . S
C321 C322 1.434 . S
C322 C313 1.429 . S
C322 N319 1.350 . S
C322 C321 1.434 . S
C323 C324 1.369 1_655 S
C323 C325 1.419 . S
C323 H327 0.930 . S
C324 C323 1.369 1_455 S
C324 C333 1.429 . S
C325 C323 1.419 . S
C325 C326 1.363 . S
C325 H328 0.929 . S
C326 C325 1.363 . S
C326 C332 1.428 . S
H327 C323 0.930 . S
H328 C325 0.929 . S
S329 N330 1.613 . S
S329 N331 1.610 1_455 S
N330 S329 1.613 . S
N330 C333 1.350 . S
N331 S329 1.610 1_655 S
N331 C332 1.351 . S
C332 C326 1.428 . S
C332 N331 1.351 . S
C332 C333 1.434 1_655 S
C333 C324 1.429 . S
C333 N330 1.350 . S
C333 C332 1.434 1_455 S
C334 C335 1.369 . S
C334 C336 1.419 . S
C334 H338 0.930 . S
C335 C334 1.369 . S
C335 C344 1.429 . S
C336 C334 1.419 . S
C336 C337 1.363 . S
C336 H339 0.929 . S
C337 C336 1.363 . S
C337 C343 1.428 . S
H338 C334 0.930 . S
H339 C336 0.929 . S
S340 N341 1.613 . S
S340 N342 1.610 . S
N341 S340 1.613 . S
N341 C344 1.350 . S
N342 S340 1.610 . S
N342 C343 1.351 . S
C343 C337 1.428 . S
C343 N342 1.351 . S
C343 C344 1.434 . S
C344 C335 1.429 . S
C344 N341 1.350 . S
C344 C343 1.434 . S
C345 C346 1.369 . S
C345 C347 1.419 . S
C345 H349 0.930 . S
C346 C345 1.369 . S
C346 C355 1.429 . S
C347 C345 1.419 . S
C347 C348 1.363 . S
C347 H350 0.929 . S
C348 C347 1.363 . S
C348 C354 1.428 . S
H349 C345 0.930 . S
H350 C347 0.929 . S
S351 N352 1.613 . S
S351 N353 1.610 . S
N352 S351 1.613 . S
N352 C355 1.350 . S
N353 S351 1.610 . S
N353 C354 1.351 . S
C354 C348 1.428 . S
C354 N353 1.351 . S
C354 C355 1.434 . S
C355 C346 1.429 . S
C355 N352 1.350 . S
C355 C354 1.434 . S
C356 C357 1.369 . S
C356 C358 1.419 . S
C356 H360 0.930 . S
C357 C356 1.369 . S
C357 C366 1.429 . S
C358 C356 1.419 . S
C358 C359 1.363 . S
C358 H361 0.929 . S
C359 C358 1.363 . S
C359 C365 1.428 . S
H360 C356 0.930 . S
H361 C358 0.929 . S
S362 N363 1.613 . S
S362 N364 1.610 . S
N363 S362 1.613 . S
N363 C366 1.350 . S
N364 S362 1.610 . S
N364 C365 1.351 . S
C365 C359 1.428 . S
C365 N364 1.351 . S
C365 C366 1.434 . S
C366 C357 1.429 . S
C366 N363 1.350 . S
C366 C365 1.434 . S
C367 C368 1.369 . S
C367 C369 1.419 . S
C367 H371 0.930 . S
C368 C367 1.369 . S
C368 C377 1.429 . S
C369 C367 1.419 . S
C369 C370 1.363 . S
C369 H372 0.929 . S
C370 C369 1.363 . S
C370 C376 1.428 . S
H371 C367 0.930 . S
H372 C369 0.929 . S
S373 N374 1.613 . S
S373 N375 1.610 . S
N374 S373 1.613 . S
N374 C377 1.350 . S
N375 S373 1.610 . S
N375 C376 1.351 . S
C376 C370 1.428 . S
C376 N375 1.351 . S
C376 C377 1.434 . S
C377 C368 1.429 . S
C377 N374 1.350 . S
C377 C376 1.434 . S
C378 C379 1.369 . S
C378 C380 1.419 . S
C378 H382 0.930 . S
C379 C378 1.369 . S
C379 C388 1.429 . S
C380 C378 1.419 . S
C380 C381 1.363 . S
C380 H383 0.929 . S
C381 C380 1.363 . S
C381 C387 1.428 . S
H382 C378 0.930 . S
H383 C380 0.929 . S
S384 N385 1.613 . S
S384 N386 1.610 . S
N385 S384 1.613 . S
N385 C388 1.350 . S
N386 S384 1.610 . S
N386 C387 1.351 . S
C387 C381 1.428 . S
C387 N386 1.351 . S
C387 C388 1.434 . S
C388 C379 1.429 . S
C388 N385 1.350 . S
C388 C387 1.434 . S
C389 C390 1.369 . S
C389 C391 1.419 . S
C389 H393 0.930 . S
C390 C389 1.369 . S
C390 C399 1.429 . S
C391 C389 1.419 . S
C391 C392 1.363 . S
C391 H394 0.929 . S
C392 C391 1.363 . S
C392 C398 1.428 . S
H393 C389 0.930 . S
H394 C391 0.929 . S
S395 N396 1.613 . S
S395 N397 1.610 . S
N396 S395 1.613 . S
N396 C399 1.350 . S
N397 S395 1.610 . S
N397 C398 1.351 . S
C398 C392 1.428 . S
C398 N397 1.351 . S
C398 C399 1.434 . S
C399 C390 1.429 . S
C399 N396 1.350 . S
C399 C398 1.434 . S
C400 C401 1.369 . S
C400 C402 1.419 . S
C400 H404 0.930 . S
C401 C400 1.369 . S
C401 C410 1.429 . S
C402 C400 1.419 . S
C402 C403 1.363 . S
C402 H405 0.929 . S
C403 C402 1.363 . S
C403 C409 1.428 . S
H404 C400 0.930 . S
H405 C402 0.929 . S
S406 N407 1.613 . S
S406 N408 1.610 . S
N407 S406 1.613 . S
N407 C410 1.350 . S
N408 S406 1.610 . S
N408 C409 1.351 . S
C409 C403 1.428 . S
C409 N408 1.351 . S
C409 C410 1.434 . S
C410 C401 1.429 . S
C410 N407 1.350 . S
C410 C409 1.434 . S
C411 C412 1.369 . S
C411 C413 1.419 . S
C411 H415 0.930 . S
C412 C411 1.369 . S
C412 C421 1.429 . S
C413 C411 1.419 . S
C413 C414 1.363 . S
C413 H416 0.929 . S
C414 C413 1.363 . S
C414 C420 1.428 . S
H415 C411 0.930 . S
H416 C413 0.929 . S
S417 N418 1.613 . S
S417 N419 1.610 . S
N418 S417 1.613 . S
N418 C421 1.350 . S
N419 S417 1.610 . S
N419 C420 1.351 . S
C420 C414 1.428 . S
C420 N419 1.351 . S
C420 C421 1.434 . S
C421 C412 1.429 . S
C421 N418 1.350 . S
C421 C420 1.434 . S
C422 C423 1.369 . S
C422 C424 1.419 . S
C422 H426 0.930 . S
C423 C422 1.369 . S
C423 C432 1.429 . S
C424 C422 1.419 . S
C424 C425 1.363 . S
C424 H427 0.929 . S
C425 C424 1.363 . S
C425 C431 1.428 . S
H426 C422 0.930 . S
H427 C424 0.929 . S
S428 N429 1.613 . S
S428 N430 1.610 . S
N429 S428 1.613 . S
N429 C432 1.350 . S
N430 S428 1.610 . S
N430 C431 1.351 . S
C431 C425 1.428 . S
C431 N430 1.351 . S
C431 C432 1.434 . S
C432 C423 1.429 . S
C432 N429 1.350 . S
C432 C431 1.434 . S
C433 C434 1.369 . S
C433 C435 1.419 . S
C433 H437 0.930 . S
C434 C433 1.369 . S
C434 C443 1.429 . S
C435 C433 1.419 . S
C435 C436 1.363 . S
C435 H438 0.929 . S
C436 C435 1.363 . S
C436 C442 1.428 . S
H437 C433 0.930 . S
H438 C435 0.929 . S
S439 N440 1.613 . S
S439 N441 1.610 . S
N440 S439 1.613 . S
N440 C443 1.350 . S
N441 S439 1.610 . S
N441 C442 1.351 . S
C442 C436 1.428 . S
C442 N441 1.351 . S
C442 C443 1.434 . S
C443 C434 1.429 . S
C443 N440 1.350 . S
C443 C442 1.434 . S
C181 C7 0.996 . S
C183 C93 1.006 . S
C192 C25 1.042 . S
C194 C105 1.046 . S
C203 C46 0.890 . S
C205 C117 0.936 . S
C216 C126 1.019 . S
C214 C70 0.955 . S
C227 C141 0.998 . S
C225 C28 0.987 . S
C236 C49 0.956 . S
C238 C150 1.016 . S
C247 C67 0.889 . S
C249 C165 0.932 . S
C258 C4 1.047 . S
C260 C177 1.037 . S
C269 C58 1.540 1_565 S
C271 C174 1.608 . S
C282 C138 1.628 . S
C280 C66 1.546 . S
C293 C153 1.677 . S
C291 C3 1.587 1_545 S
C302 C37 1.521 . S
C304 C162 1.597 . S
C315 C102 1.607 . S
C313 C79 1.541 . S
C324 C16 1.513 . S
C326 C114 1.600 . S
C337 C129 1.676 . S
C335 C24 1.594 . S
C348 C90 1.627 . S
C346 C45 1.551 1_455 S
C359 C160 1.397 . S
C357 C19 1.275 . S
C370 C172 1.444 . S
C368 C41 1.292 . S
C379 C62 1.285 . S
C381 C136 1.457 . S
C392 C148 1.427 . S
C390 C82 1.321 . S
C403 C112 1.397 . S
C401 C40 1.283 . S
C412 C61 1.316 . S
C414 C124 1.423 . S
C425 C88 1.457 . S
C423 C83 1.281 . S
C436 C100 1.444 . S
C434 C20 1.291 . S
