# Generated by pormake.
# Topology wbl, (4,4)-cn, num edge types: 1
# Building blocks:
#     Node 0, Type 0, BuildingBlock: MUDLON_clean_linker_0, # of connection points: 4
#     Node 1, Type 0, BuildingBlock: MUDLON_clean_linker_0, # of connection points: 4
#     Node 2, Type 0, BuildingBlock: MUDLON_clean_linker_0, # of connection points: 4
#     Node 3, Type 0, BuildingBlock: MUDLON_clean_linker_0, # of connection points: 4
#     Node 4, Type 0, BuildingBlock: MUDLON_clean_linker_0, # of connection points: 4
#     Node 5, Type 0, BuildingBlock: MUDLON_clean_linker_0, # of connection points: 4
#     Node 6, Type 0, BuildingBlock: MUDLON_clean_linker_0, # of connection points: 4
#     Node 7, Type 0, BuildingBlock: MUDLON_clean_linker_0, # of connection points: 4
#     Node 8, Type 1, BuildingBlock: GALJAG_clean_sbu_0, # of connection points: 4
#     Node 9, Type 1, BuildingBlock: GALJAG_clean_sbu_0, # of connection points: 4
#     Node 10, Type 1, BuildingBlock: GALJAG_clean_sbu_0, # of connection points: 4
#     Node 11, Type 1, BuildingBlock: GALJAG_clean_sbu_0, # of connection points: 4
#     Node 12, Type 1, BuildingBlock: GALJAG_clean_sbu_0, # of connection points: 4
#     Node 13, Type 1, BuildingBlock: GALJAG_clean_sbu_0, # of connection points: 4
#     Node 14, Type 1, BuildingBlock: GALJAG_clean_sbu_0, # of connection points: 4
#     Node 15, Type 1, BuildingBlock: GALJAG_clean_sbu_0, # of connection points: 4
#     Edge 16, Type (0, 1), BuildingBlock: KIFKEQ_clean_linker_1, # of connection points: 2
#     Edge 17, Type (0, 1), BuildingBlock: KIFKEQ_clean_linker_1, # of connection points: 2
#     Edge 18, Type (0, 1), BuildingBlock: KIFKEQ_clean_linker_1, # of connection points: 2
#     Edge 19, Type (0, 1), BuildingBlock: KIFKEQ_clean_linker_1, # of connection points: 2
#     Edge 20, Type (0, 1), BuildingBlock: KIFKEQ_clean_linker_1, # of connection points: 2
#     Edge 21, Type (0, 1), BuildingBlock: KIFKEQ_clean_linker_1, # of connection points: 2
#     Edge 22, Type (0, 1), BuildingBlock: KIFKEQ_clean_linker_1, # of connection points: 2
#     Edge 23, Type (0, 1), BuildingBlock: KIFKEQ_clean_linker_1, # of connection points: 2
#     Edge 24, Type (0, 1), BuildingBlock: KIFKEQ_clean_linker_1, # of connection points: 2
#     Edge 25, Type (0, 1), BuildingBlock: KIFKEQ_clean_linker_1, # of connection points: 2
#     Edge 26, Type (0, 1), BuildingBlock: KIFKEQ_clean_linker_1, # of connection points: 2
#     Edge 27, Type (0, 1), BuildingBlock: KIFKEQ_clean_linker_1, # of connection points: 2
#     Edge 28, Type (0, 1), BuildingBlock: KIFKEQ_clean_linker_1, # of connection points: 2
#     Edge 29, Type (0, 1), BuildingBlock: KIFKEQ_clean_linker_1, # of connection points: 2
#     Edge 30, Type (0, 1), BuildingBlock: KIFKEQ_clean_linker_1, # of connection points: 2
#     Edge 31, Type (0, 1), BuildingBlock: KIFKEQ_clean_linker_1, # of connection points: 2
#     Edge 32, Type (0, 1), BuildingBlock: KIFKEQ_clean_linker_1, # of connection points: 2
#     Edge 33, Type (0, 1), BuildingBlock: KIFKEQ_clean_linker_1, # of connection points: 2
#     Edge 34, Type (0, 1), BuildingBlock: KIFKEQ_clean_linker_1, # of connection points: 2
#     Edge 35, Type (0, 1), BuildingBlock: KIFKEQ_clean_linker_1, # of connection points: 2
#     Edge 36, Type (0, 1), BuildingBlock: KIFKEQ_clean_linker_1, # of connection points: 2
#     Edge 37, Type (0, 1), BuildingBlock: KIFKEQ_clean_linker_1, # of connection points: 2
#     Edge 38, Type (0, 1), BuildingBlock: KIFKEQ_clean_linker_1, # of connection points: 2
#     Edge 39, Type (0, 1), BuildingBlock: KIFKEQ_clean_linker_1, # of connection points: 2
#     Edge 40, Type (0, 1), BuildingBlock: KIFKEQ_clean_linker_1, # of connection points: 2
#     Edge 41, Type (0, 1), BuildingBlock: KIFKEQ_clean_linker_1, # of connection points: 2
#     Edge 42, Type (0, 1), BuildingBlock: KIFKEQ_clean_linker_1, # of connection points: 2
#     Edge 43, Type (0, 1), BuildingBlock: KIFKEQ_clean_linker_1, # of connection points: 2
#     Edge 44, Type (0, 1), BuildingBlock: KIFKEQ_clean_linker_1, # of connection points: 2
#     Edge 45, Type (0, 1), BuildingBlock: KIFKEQ_clean_linker_1, # of connection points: 2
#     Edge 46, Type (0, 1), BuildingBlock: KIFKEQ_clean_linker_1, # of connection points: 2
#     Edge 47, Type (0, 1), BuildingBlock: KIFKEQ_clean_linker_1, # of connection points: 2
# Relax obj value: 0.117
# Max RMSD: 0.152
# Mean RMSD: 0.139
data_MOF--net-wbl--node1-GALJAG_clean_sbu_0--node2-MUDLON_clean_linker_0--edge1-KIFKEQ_clean_linker_1
_symmetry_space_group_name_H-M    P1
_symmetry_Int_Tables_number       1
_symmetry_cell_setting            triclinic
loop_
_symmetry_equiv_pos_as_xyz
'x, y, z'
_cell_length_a     53.095529
_cell_length_b     53.223768
_cell_length_c     86.442589
_cell_angle_alpha  89.984676
_cell_angle_beta   90.000254
_cell_angle_gamma 89.996495
loop_
_atom_site_label
_atom_site_type_symbol
_atom_site_fract_x
_atom_site_fract_y
_atom_site_fract_z
_atom_type_partial_charge
H0 H 0.10351 0.94357 0.33952 0.0
N1 N 0.06044 0.92821 0.3249 0.0
H2 H 0.11705 0.93197 0.36556 0.0
H3 H 0.03523 0.90088 0.34552 0.0
H4 H 0.04886 0.88873 0.37156 0.0
H5 H 0.07665 0.88285 0.31712 0.0
H6 H 0.11345 0.87205 0.3018 0.0
H7 H 0.08848 0.96135 0.30689 0.0
H8 H 0.12405 0.95062 0.29073 0.0
H9 H 0.07436 0.97629 0.33255 0.0
H10 H 0.01371 0.93166 0.31408 0.0
H11 H 0.04792 0.01357 0.33154 0.0
H12 H 0.98653 0.96883 0.31361 0.0
H13 H 0.95069 0.12557 0.34039 0.0
H14 H 0.93494 0.13729 0.36598 0.0
H15 H 0.91291 0.06017 0.37407 0.0
H16 H 0.92793 0.04892 0.3483 0.0
H17 H 0.90866 0.04893 0.32323 0.0
H18 H 0.87062 0.05753 0.30823 0.0
H19 H 0.90327 0.12736 0.2924 0.0
H20 H 0.94144 0.11826 0.30722 0.0
H21 H 0.98636 0.06723 0.34628 0.0
H22 H 0.01357 0.03083 0.34489 0.0
H23 H 0.97832 0.00882 0.30195 0.0
N24 N 0.94888 0.08067 0.32691 0.0
H25 H 0.95036 0.0447 0.30357 0.0
C26 C 0.06828 0.923 0.34058 0.0
C27 C 0.09132 0.93186 0.3465 0.0
C28 C 0.09915 0.92503 0.36135 0.0
C29 C 0.08411 0.90928 0.3706 0.0
C30 C 0.06077 0.90106 0.3648 0.0
C31 C 0.05299 0.90787 0.34992 0.0
C32 C 0.07967 0.92284 0.31346 0.0
C33 C 0.08675 0.89771 0.31122 0.0
C34 C 0.10782 0.89157 0.30232 0.0
C35 C 0.12214 0.91045 0.29506 0.0
C36 C 0.11405 0.93556 0.29648 0.0
C37 C 0.0933 0.94175 0.3057 0.0
C38 C 0.04601 0.95108 0.3233 0.0
C39 C 0.05534 0.97449 0.32823 0.0
C40 C 0.04005 0.99584 0.32776 0.0
C41 C 0.01492 0.99426 0.32265 0.0
C42 C 0.00584 0.97089 0.31745 0.0
C43 C 0.02128 0.94958 0.31775 0.0
C44 C 0.94061 0.08648 0.34245 0.0
C45 C 0.94256 0.11125 0.34776 0.0
C46 C 0.93367 0.11783 0.36242 0.0
C47 C 0.92269 0.09966 0.37214 0.0
C48 C 0.92091 0.07473 0.36683 0.0
C49 C 0.92962 0.06822 0.35211 0.0
C50 C 0.92796 0.08301 0.3163 0.0
C51 C 0.90778 0.06587 0.31633 0.0
C52 C 0.88597 0.07091 0.30781 0.0
C53 C 0.88375 0.09327 0.29922 0.0
C54 C 0.90439 0.10983 0.29872 0.0
C55 C 0.92622 0.10471 0.30719 0.0
C56 C 0.96475 0.05835 0.32568 0.0
C57 C 0.98388 0.05434 0.33671 0.0
C58 C 0.99989 0.03362 0.33576 0.0
C59 C 0.99802 0.01661 0.32339 0.0
C60 C 0.97981 0.0211 0.3119 0.0
C61 C 0.96359 0.04179 0.31291 0.0
H62 H 0.94449 0.40349 0.59342 0.0
N63 N 0.92949 0.44613 0.57823 0.0
H64 H 0.93283 0.39108 0.61959 0.0
H65 H 0.90314 0.47265 0.59865 0.0
H66 H 0.89182 0.46067 0.62512 0.0
H67 H 0.88339 0.43758 0.56773 0.0
H68 H 0.86873 0.4015 0.55274 0.0
H69 H 0.95984 0.41089 0.56374 0.0
H70 H 0.94554 0.37557 0.54844 0.0
H71 H 0.97776 0.43086 0.58481 0.0
H72 H 0.93361 0.49263 0.56743 0.0
H73 H 0.0158 0.45571 0.58234 0.0
H74 H 0.97145 0.51866 0.56612 0.0
H75 H 0.13118 0.55403 0.58917 0.0
H76 H 0.14329 0.57029 0.61456 0.0
H77 H 0.06517 0.58712 0.62429 0.0
H78 H 0.05356 0.57199 0.59866 0.0
H79 H 0.05874 0.5971 0.57506 0.0
H80 H 0.06944 0.63373 0.55952 0.0
H81 H 0.12858 0.59124 0.53714 0.0
H82 H 0.11855 0.55509 0.55353 0.0
H83 H 0.07433 0.51366 0.59458 0.0
H84 H 0.03705 0.48753 0.59423 0.0
H85 H 0.00952 0.52817 0.55434 0.0
N86 N 0.08542 0.55313 0.57658 0.0
H87 H 0.04589 0.55546 0.55538 0.0
C88 C 0.9245 0.43903 0.59404 0.0
C89 C 0.93318 0.41619 0.60028 0.0
C90 C 0.92659 0.40916 0.61531 0.0
C91 C 0.91129 0.42482 0.62446 0.0
C92 C 0.90328 0.44798 0.61832 0.0
C93 C 0.90984 0.45495 0.60326 0.0
C94 C 0.92264 0.42719 0.56699 0.0
C95 C 0.89709 0.42435 0.56327 0.0
C96 C 0.88876 0.40371 0.55467 0.0
C97 C 0.90592 0.38541 0.54953 0.0
C98 C 0.93172 0.389 0.55251 0.0
C99 C 0.94001 0.40953 0.56121 0.0
C100 C 0.95274 0.45974 0.57599 0.0
C101 C 0.97623 0.44975 0.58031 0.0
C102 C 0.99806 0.46427 0.57915 0.0
C103 C 0.99692 0.48946 0.57417 0.0
C104 C 0.97335 0.49928 0.56974 0.0
C105 C 0.9516 0.48449 0.57056 0.0
C106 C 0.09156 0.56157 0.59204 0.0
C107 C 0.11674 0.56115 0.59686 0.0
C108 C 0.12355 0.57034 0.61141 0.0
C109 C 0.10521 0.58001 0.62155 0.0
C110 C 0.07988 0.58022 0.61673 0.0
C111 C 0.07315 0.57133 0.6021 0.0
C112 C 0.08815 0.57342 0.56559 0.0
C113 C 0.07388 0.59563 0.56674 0.0
C114 C 0.07991 0.61654 0.55769 0.0
C115 C 0.10014 0.61566 0.54715 0.0
C116 C 0.1133 0.59286 0.54538 0.0
C117 C 0.10743 0.57206 0.55457 0.0
C118 C 0.06287 0.53759 0.57557 0.0
C119 C 0.06008 0.51734 0.5859 0.0
C120 C 0.03879 0.50201 0.5855 0.0
C121 C 0.01994 0.50566 0.57429 0.0
C122 C 0.02318 0.52515 0.56344 0.0
C123 C 0.04429 0.54091 0.56405 0.0
H124 H 0.60059 0.44096 0.83945 0.0
N125 N 0.55531 0.43148 0.82532 0.0
H126 H 0.6123 0.42997 0.86571 0.0
H127 H 0.52584 0.41194 0.84712 0.0
H128 H 0.53679 0.40244 0.87397 0.0
H129 H 0.56121 0.3849 0.81511 0.0
H130 H 0.59622 0.36812 0.79982 0.0
H131 H 0.59199 0.45953 0.81044 0.0
H132 H 0.62681 0.44295 0.79542 0.0
H133 H 0.57309 0.47871 0.83173 0.0
H134 H 0.50902 0.43781 0.81445 0.0
H135 H 0.54976 0.51786 0.82969 0.0
H136 H 0.48459 0.47665 0.81355 0.0
H137 H 0.45232 0.63507 0.83999 0.0
H138 H 0.43687 0.64601 0.86574 0.0
H139 H 0.42191 0.56746 0.87479 0.0
H140 H 0.43596 0.55704 0.84876 0.0
H141 H 0.40925 0.5629 0.82568 0.0
H142 H 0.37142 0.57396 0.81125 0.0
H143 H 0.41167 0.63509 0.78943 0.0
H144 H 0.44909 0.62457 0.80465 0.0
H145 H 0.49335 0.57732 0.84379 0.0
H146 H 0.51885 0.53972 0.84226 0.0
H147 H 0.47626 0.51537 0.80235 0.0
N148 N 0.45309 0.58994 0.82671 0.0
H149 H 0.44968 0.55207 0.80452 0.0
C150 C 0.56238 0.42675 0.84119 0.0
C151 C 0.58657 0.4324 0.84684 0.0
C152 C 0.59316 0.42636 0.86203 0.0
C153 C 0.57557 0.41515 0.87209 0.0
C154 C 0.55108 0.41046 0.86653 0.0
C155 C 0.54467 0.41606 0.85122 0.0
C156 C 0.57371 0.42342 0.81401 0.0
C157 C 0.57516 0.39773 0.81051 0.0
C158 C 0.59528 0.38816 0.80191 0.0
C159 C 0.61442 0.40418 0.79653 0.0
C160 C 0.61228 0.43013 0.79929 0.0
C161 C 0.59222 0.43967 0.80798 0.0
C162 C 0.54291 0.4553 0.82292 0.0
C163 C 0.55406 0.47819 0.82728 0.0
C164 C 0.54043 0.50061 0.82638 0.0
C165 C 0.51504 0.50063 0.8216 0.0
C166 C 0.50415 0.47766 0.81702 0.0
C167 C 0.51802 0.45534 0.81759 0.0
C168 C 0.44557 0.59533 0.84247 0.0
C169 C 0.44582 0.62027 0.84761 0.0
C170 C 0.4371 0.62642 0.86239 0.0
C171 C 0.42814 0.60763 0.87246 0.0
C172 C 0.42823 0.58252 0.86733 0.0
C173 C 0.43655 0.57646 0.85246 0.0
C174 C 0.43196 0.59315 0.81634 0.0
C175 C 0.40998 0.57855 0.8177 0.0
C176 C 0.38837 0.58481 0.80931 0.0
C177 C 0.3883 0.60564 0.79925 0.0
C178 C 0.4108 0.61929 0.7973 0.0
C179 C 0.43232 0.61315 0.80583 0.0
C180 C 0.46842 0.56739 0.82492 0.0
C181 C 0.4891 0.56371 0.83485 0.0
C182 C 0.50408 0.54224 0.83377 0.0
C183 C 0.49961 0.52412 0.82225 0.0
C184 C 0.47986 0.5284 0.8117 0.0
C185 C 0.46448 0.54969 0.81298 0.0
H186 H 0.47634 0.87709 0.10076 0.0
N187 N 0.47302 0.91485 0.08092 0.0
H188 H 0.45373 0.87202 0.12524 0.0
H189 H 0.44189 0.94958 0.09421 0.0
H190 H 0.41899 0.94467 0.11871 0.0
H191 H 0.42534 0.9252 0.07078 0.0
H192 H 0.40061 0.89909 0.05302 0.0
H193 H 0.49026 0.87837 0.06295 0.0
H194 H 0.4659 0.85244 0.04502 0.0
H195 H 0.52062 0.9194 0.08927 0.0
H196 H 0.46057 0.95863 0.06612 0.0
H197 H 0.54842 0.9553 0.08553 0.0
H198 H 0.48862 0.99457 0.06162 0.0
H199 H 0.63706 0.06029 0.08419 0.0
H200 H 0.65059 0.07219 0.11034 0.0
H201 H 0.57314 0.08612 0.1229 0.0
H202 H 0.55985 0.07476 0.09681 0.0
H203 H 0.56063 0.1021 0.07303 0.0
H204 H 0.56698 0.13989 0.0574 0.0
H205 H 0.62847 0.10346 0.03359 0.0
H206 H 0.62186 0.06565 0.04927 0.0
H207 H 0.60083 0.01253 0.06718 0.0
H208 H 0.57157 0.97715 0.06678 0.0
H209 H 0.50956 0.02832 0.0745 0.0
N210 N 0.59056 0.06023 0.07288 0.0
H211 H 0.53888 0.06361 0.0739 0.0
C212 C 0.46085 0.91363 0.09577 0.0
C213 C 0.46402 0.89197 0.10473 0.0
C214 C 0.45096 0.88906 0.1186 0.0
C215 C 0.43442 0.90786 0.12382 0.0
C216 C 0.43171 0.92994 0.11501 0.0
C217 C 0.44474 0.93276 0.10103 0.0
C218 C 0.45961 0.90346 0.06827 0.0
C219 C 0.43443 0.90967 0.06495 0.0
C220 C 0.4203 0.8947 0.05485 0.0
C221 C 0.43126 0.87361 0.04772 0.0
C222 C 0.45696 0.86866 0.05022 0.0
C223 C 0.47092 0.88341 0.06045 0.0
C224 C 0.48876 0.93627 0.07787 0.0
C225 C 0.51362 0.93575 0.08316 0.0
C226 C 0.52952 0.95625 0.08087 0.0
C227 C 0.52096 0.97783 0.07306 0.0
C228 C 0.49585 0.97836 0.06775 0.0
C229 C 0.47982 0.95777 0.0702 0.0
C230 C 0.59752 0.0663 0.08856 0.0
C231 C 0.62305 0.06579 0.09264 0.0
C232 C 0.63072 0.07266 0.10751 0.0
C233 C 0.61287 0.07995 0.11864 0.0
C234 C 0.58724 0.08025 0.1146 0.0
C235 C 0.57963 0.07373 0.09965 0.0
C236 C 0.59073 0.08097 0.0622 0.0
C237 C 0.57493 0.10193 0.06413 0.0
C238 C 0.57864 0.12357 0.0552 0.0
C239 C 0.59836 0.12469 0.04435 0.0
C240 C 0.6133 0.10324 0.04197 0.0
C241 C 0.60944 0.0816 0.0508 0.0
C242 C 0.5722 0.0406 0.0708 0.0
C243 C 0.58086 0.01607 0.06849 0.0
C244 C 0.56409 0.99588 0.06844 0.0
C245 C 0.53818 0.99973 0.07098 0.0
C246 C 0.52933 0.02456 0.07249 0.0
C247 C 0.54617 0.04484 0.0723 0.0
H248 H 0.13028 0.52167 0.90189 0.0
N249 N 0.09278 0.52737 0.9218 0.0
H250 H 0.13533 0.54178 0.87665 0.0
H251 H 0.05881 0.55864 0.90791 0.0
H252 H 0.06333 0.57854 0.88247 0.0
H253 H 0.0829 0.5757 0.93078 0.0
H254 H 0.10843 0.60078 0.94866 0.0
H255 H 0.12872 0.51078 0.94046 0.0
H256 H 0.15412 0.53553 0.95849 0.0
H257 H 0.08675 0.47988 0.91382 0.0
H258 H 0.04936 0.54132 0.93665 0.0
H259 H 0.04987 0.45341 0.91763 0.0
H260 H 0.01252 0.51458 0.94132 0.0
H261 H 0.94244 0.36997 0.9177 0.0
H262 H 0.92799 0.35812 0.89186 0.0
H263 H 0.91271 0.43626 0.88176 0.0
H264 H 0.92581 0.44754 0.90778 0.0
H265 H 0.90219 0.44667 0.93273 0.0
H266 H 0.86544 0.43986 0.94927 0.0
H267 H 0.90174 0.37503 0.96944 0.0
H268 H 0.93843 0.382 0.95279 0.0
H269 H 0.9904 0.40322 0.93555 0.0
H270 H 0.02697 0.43101 0.93597 0.0
H271 H 0.97797 0.49493 0.92893 0.0
N272 N 0.94291 0.41544 0.93028 0.0
H273 H 0.94151 0.46707 0.92966 0.0
C274 C 0.09424 0.53859 0.90668 0.0
C275 C 0.11556 0.53393 0.89762 0.0
C276 C 0.1183 0.54534 0.88318 0.0
C277 C 0.09966 0.5617 0.87749 0.0
C278 C 0.07812 0.56622 0.88658 0.0
C279 C 0.07542 0.55476 0.90106 0.0
C280 C 0.10418 0.54138 0.9342 0.0
C281 C 0.09813 0.56671 0.93699 0.0
C282 C 0.11277 0.58105 0.94716 0.0
C283 C 0.13338 0.57018 0.9549 0.0
C284 C 0.13824 0.54442 0.95283 0.0
C285 C 0.12381 0.53024 0.94253 0.0
C286 C 0.0709 0.51234 0.92507 0.0
C287 C 0.07062 0.48746 0.91991 0.0
C288 C 0.04954 0.47232 0.92224 0.0
C289 C 0.02818 0.48165 0.93 0.0
C290 C 0.02851 0.50675 0.93522 0.0
C291 C 0.04964 0.52204 0.93269 0.0
C292 C 0.93551 0.40957 0.91466 0.0
C293 C 0.93605 0.38447 0.90984 0.0
C294 C 0.92792 0.3778 0.89502 0.0
C295 C 0.91922 0.39623 0.88462 0.0
C296 C 0.91892 0.42148 0.88948 0.0
C297 C 0.92676 0.42806 0.90438 0.0
C298 C 0.92311 0.41483 0.94161 0.0
C299 C 0.90257 0.43145 0.94101 0.0
C300 C 0.88153 0.4275 0.95048 0.0
C301 C 0.88062 0.40677 0.96057 0.0
C302 C 0.90176 0.39098 0.96166 0.0
C303 C 0.92279 0.39504 0.95228 0.0
C304 C 0.96335 0.43292 0.93228 0.0
C305 C 0.98761 0.4233 0.93438 0.0
C306 C 0.00849 0.43923 0.93443 0.0
C307 C 0.0056 0.46526 0.93208 0.0
C308 C 0.98103 0.47505 0.93078 0.0
C309 C 0.96007 0.45904 0.93101 0.0
H310 H 0.56746 0.40846 0.16787 0.0
N311 N 0.57703 0.45388 0.1816 0.0
H312 H 0.57794 0.39632 0.14158 0.0
H313 H 0.59594 0.48303 0.15939 0.0
H314 H 0.60495 0.47164 0.13255 0.0
H315 H 0.62398 0.43978 0.18757 0.0
H316 H 0.63796 0.40285 0.20176 0.0
H317 H 0.54716 0.42429 0.2009 0.0
H318 H 0.56111 0.38854 0.21581 0.0
H319 H 0.52991 0.43586 0.17495 0.0
H320 H 0.57016 0.49997 0.19266 0.0
H321 H 0.49045 0.45905 0.17656 0.0
H322 H 0.53085 0.52392 0.19365 0.0
H323 H 0.37134 0.55274 0.16806 0.0
H324 H 0.35908 0.56794 0.14231 0.0
H325 H 0.43629 0.58844 0.13311 0.0
H326 H 0.44836 0.57376 0.1589 0.0
H327 H 0.44653 0.59594 0.18349 0.0
H328 H 0.43684 0.63373 0.1984 0.0
H329 H 0.37026 0.59763 0.21662 0.0
H330 H 0.37995 0.55997 0.20142 0.0
H331 H 0.43155 0.51633 0.16218 0.0
H332 H 0.46965 0.49142 0.16348 0.0
H333 H 0.49093 0.52944 0.20564 0.0
N334 N 0.41688 0.55404 0.18097 0.0
H335 H 0.45341 0.55513 0.20406 0.0
C336 C 0.58141 0.44662 0.16571 0.0
C337 C 0.57575 0.42235 0.16027 0.0
C338 C 0.58151 0.41551 0.14509 0.0
C339 C 0.59245 0.43293 0.13482 0.0
C340 C 0.59713 0.4575 0.14016 0.0
C341 C 0.5918 0.46416 0.15546 0.0
C342 C 0.58453 0.43488 0.19275 0.0
C343 C 0.6102 0.42886 0.19391 0.0
C344 C 0.61817 0.40772 0.20214 0.0
C345 C 0.60065 0.39225 0.20979 0.0
C346 C 0.57512 0.39943 0.20966 0.0
C347 C 0.56707 0.42027 0.20113 0.0
C348 C 0.55304 0.46619 0.18381 0.0
C349 C 0.53023 0.45493 0.17928 0.0
C350 C 0.50765 0.46836 0.18007 0.0
C351 C 0.50738 0.49353 0.18509 0.0
C352 C 0.53019 0.50451 0.18993 0.0
C353 C 0.55272 0.49092 0.18932 0.0
C354 C 0.4107 0.56181 0.16536 0.0
C355 C 0.3856 0.56037 0.16043 0.0
C356 C 0.37863 0.56915 0.1458 0.0
C357 C 0.39679 0.57926 0.13576 0.0
C358 C 0.42201 0.58049 0.1406 0.0
C359 C 0.42888 0.57216 0.15534 0.0
C360 C 0.41391 0.57508 0.19139 0.0
C361 C 0.43006 0.59604 0.19086 0.0
C362 C 0.42455 0.61758 0.19946 0.0
C363 C 0.4027 0.61872 0.20864 0.0
C364 C 0.38708 0.59743 0.20953 0.0
C365 C 0.39268 0.57585 0.20099 0.0
C366 C 0.4399 0.53918 0.18233 0.0
C367 C 0.44459 0.51986 0.17156 0.0
C368 C 0.46633 0.50518 0.17247 0.0
C369 C 0.4837 0.5086 0.18455 0.0
C370 C 0.47842 0.52683 0.19588 0.0
C371 C 0.45675 0.54174 0.19489 0.0
H372 H 0.40433 0.94021 0.41238 0.0
N373 N 0.44677 0.92831 0.42891 0.0
H374 H 0.39387 0.92615 0.38637 0.0
H375 H 0.47405 0.89874 0.41054 0.0
H376 H 0.46358 0.88444 0.3843 0.0
H377 H 0.43708 0.88434 0.44201 0.0
H378 H 0.39997 0.87255 0.45701 0.0
H379 H 0.41118 0.96115 0.44079 0.0
H380 H 0.37481 0.94977 0.45621 0.0
H381 H 0.43166 0.9742 0.41751 0.0
H382 H 0.49149 0.93636 0.4419 0.0
H383 H 0.45582 0.01283 0.41752 0.0
H384 H 0.51645 0.97515 0.4415 0.0
H385 H 0.53456 0.13142 0.40947 0.0
H386 H 0.54924 0.14515 0.38385 0.0
H387 H 0.59064 0.0758 0.37887 0.0
H388 H 0.57541 0.06195 0.40414 0.0
H389 H 0.58851 0.06069 0.42947 0.0
H390 H 0.62544 0.07372 0.44408 0.0
H391 H 0.58605 0.14077 0.45872 0.0
H392 H 0.54968 0.12817 0.44318 0.0
H393 H 0.51537 0.06768 0.40275 0.0
H394 H 0.49179 0.02907 0.40472 0.0
H395 H 0.51948 0.01809 0.45119 0.0
N396 N 0.54611 0.08898 0.42425 0.0
H397 H 0.54395 0.05649 0.44916 0.0
C398 C 0.44017 0.92063 0.41341 0.0
C399 C 0.41753 0.92824 0.40635 0.0
C400 C 0.41156 0.92021 0.39143 0.0
C401 C 0.42795 0.90427 0.38327 0.0
C402 C 0.45051 0.89658 0.39035 0.0
C403 C 0.45657 0.90481 0.40526 0.0
C404 C 0.42716 0.92352 0.44016 0.0
C405 C 0.42379 0.89879 0.44536 0.0
C406 C 0.40255 0.89211 0.45398 0.0
C407 C 0.38417 0.91015 0.4577 0.0
C408 C 0.38829 0.93526 0.45327 0.0
C409 C 0.40941 0.94188 0.44451 0.0
C410 C 0.45974 0.95217 0.42976 0.0
C411 C 0.44997 0.97412 0.42294 0.0
C412 C 0.46399 0.9963 0.42283 0.0
C413 C 0.48827 0.99708 0.42933 0.0
C414 C 0.49776 0.9753 0.43649 0.0
C415 C 0.48358 0.95311 0.4367 0.0
C416 C 0.55409 0.09589 0.40881 0.0
C417 C 0.54663 0.11917 0.40276 0.0
C418 C 0.55496 0.12691 0.38817 0.0
C419 C 0.57121 0.11158 0.37948 0.0
C420 C 0.57841 0.08811 0.38545 0.0
C421 C 0.56982 0.08024 0.39992 0.0
C422 C 0.56637 0.09369 0.43506 0.0
C423 C 0.58778 0.07816 0.43583 0.0
C424 C 0.60886 0.08555 0.44439 0.0
C425 C 0.60895 0.10851 0.45249 0.0
C426 C 0.58694 0.12327 0.45236 0.0
C427 C 0.56599 0.11598 0.44366 0.0
C428 C 0.53325 0.06478 0.42535 0.0
C429 C 0.51726 0.05679 0.41327 0.0
C430 C 0.50321 0.03475 0.4145 0.0
C431 C 0.50383 0.02029 0.42808 0.0
C432 C 0.51906 0.02843 0.4404 0.0
C433 C 0.53328 0.05052 0.43915 0.0
H434 H 0.05712 0.90176 0.66168 0.0
N435 N 0.0717 0.94483 0.67651 0.0
H436 H 0.06907 0.88879 0.63564 0.0
H437 H 0.09859 0.97076 0.65606 0.0
H438 H 0.1102 0.95824 0.62973 0.0
H439 H 0.11748 0.9349 0.68705 0.0
H440 H 0.13084 0.89904 0.70263 0.0
H441 H 0.04009 0.91135 0.69163 0.0
H442 H 0.0531 0.87634 0.70763 0.0
H443 H 0.02358 0.92985 0.66942 0.0
H444 H 0.06769 0.99177 0.6866 0.0
H445 H 0.98575 0.95529 0.67079 0.0
H446 H 0.03013 0.01829 0.68686 0.0
H447 H 0.86995 0.0526 0.66291 0.0
H448 H 0.8567 0.06755 0.6373 0.0
H449 H 0.93401 0.08499 0.62615 0.0
H450 H 0.94708 0.07052 0.65181 0.0
H451 H 0.94231 0.09704 0.67507 0.0
H452 H 0.93169 0.13431 0.69008 0.0
H453 H 0.87388 0.09221 0.714 0.0
H454 H 0.88377 0.05543 0.69815 0.0
H455 H 0.92825 0.01313 0.65698 0.0
H456 H 0.9655 0.98702 0.65805 0.0
H457 H 0.9916 0.02847 0.69796 0.0
N458 N 0.91622 0.05267 0.67479 0.0
H459 H 0.95527 0.05573 0.69622 0.0
C460 C 0.07715 0.93725 0.66084 0.0
C461 C 0.06856 0.91428 0.65476 0.0
C462 C 0.07531 0.90694 0.63981 0.0
C463 C 0.09068 0.92243 0.6306 0.0
C464 C 0.09868 0.94567 0.63659 0.0
C465 C 0.09197 0.95295 0.65157 0.0
C466 C 0.07787 0.92606 0.68802 0.0
C467 C 0.10331 0.92242 0.69177 0.0
C468 C 0.11089 0.9019 0.70073 0.0
C469 C 0.09308 0.88455 0.70629 0.0
C470 C 0.06741 0.88898 0.70325 0.0
C471 C 0.05988 0.90935 0.69414 0.0
C472 C 0.04854 0.95877 0.67823 0.0
C473 C 0.02513 0.9489 0.67364 0.0
C474 C 0.00345 0.96374 0.67417 0.0
C475 C 0.00469 0.98911 0.67879 0.0
C476 C 0.02816 0.99881 0.68349 0.0
C477 C 0.04974 0.98372 0.68329 0.0
C478 C 0.90942 0.06016 0.65924 0.0
C479 C 0.88401 0.05948 0.65488 0.0
C480 C 0.87649 0.06812 0.64033 0.0
C481 C 0.89437 0.07734 0.62978 0.0
C482 C 0.9199 0.07772 0.63402 0.0
C483 C 0.92736 0.0695 0.64868 0.0
C484 C 0.91351 0.07353 0.68536 0.0
C485 C 0.92747 0.09582 0.68361 0.0
C486 C 0.92148 0.1171 0.69234 0.0
C487 C 0.90164 0.11649 0.70317 0.0
C488 C 0.88882 0.09364 0.70552 0.0
C489 C 0.89462 0.07248 0.69663 0.0
C490 C 0.93902 0.0375 0.67593 0.0
C491 C 0.94221 0.01707 0.66578 0.0
C492 C 0.96347 0.00172 0.6666 0.0
C493 C 0.98186 0.00554 0.67807 0.0
C494 C 0.97829 0.0253 0.68868 0.0
C495 C 0.95721 0.04105 0.68766 0.0
In496 In 0.33483 0.66875 0.00359 0.0
O497 O 0.32735 0.71047 0.009 0.0
O498 O 0.36517 0.69832 0.006 0.0
C499 C 0.28755 0.65255 0.99773 0.0
C500 C 0.34763 0.64887 0.03125 0.0
C501 C 0.3558 0.65558 0.97631 0.0
O502 O 0.29316 0.67564 0.99756 0.0
O503 O 0.3056 0.6381 0.00097 0.0
O504 O 0.35665 0.64163 0.98811 0.0
O505 O 0.34441 0.67613 0.97827 0.0
C506 C 0.35045 0.7163 0.00886 0.0
O507 O 0.36189 0.64785 0.01959 0.0
O508 O 0.3269 0.65985 0.02896 0.0
In509 In 0.34138 0.83965 0.25181 0.0
O510 O 0.33341 0.79722 0.25185 0.0
O511 O 0.3691 0.80965 0.24391 0.0
C512 C 0.29409 0.8562 0.25783 0.0
C513 C 0.35404 0.86313 0.22515 0.0
C514 C 0.36549 0.84933 0.27861 0.0
O515 O 0.29826 0.837 0.24966 0.0
O516 O 0.31361 0.86698 0.26276 0.0
O517 O 0.36794 0.86285 0.2667 0.0
O518 O 0.35104 0.83066 0.27697 0.0
C519 C 0.35467 0.79131 0.24643 0.0
O520 O 0.36631 0.86581 0.23753 0.0
O521 O 0.33505 0.84902 0.22629 0.0
In522 In 0.16776 0.83351 0.50138 0.0
O523 O 0.13784 0.85335 0.51601 0.0
O524 O 0.17286 0.84488 0.52662 0.0
C525 C 0.14769 0.84794 0.4741 0.0
C526 C 0.15628 0.78474 0.50708 0.0
C527 C 0.21533 0.84939 0.49585 0.0
O528 O 0.14284 0.85898 0.48668 0.0
O529 O 0.16242 0.82942 0.47532 0.0
O530 O 0.20914 0.82652 0.49515 0.0
O531 O 0.19766 0.86407 0.49947 0.0
C532 C 0.1512 0.85428 0.52806 0.0
O533 O 0.17651 0.79478 0.51156 0.0
O534 O 0.14204 0.79912 0.49949 0.0
In535 In 0.16892 0.6703 0.75306 0.0
O536 O 0.14892 0.63818 0.76558 0.0
O537 O 0.15743 0.67094 0.77854 0.0
C538 C 0.15549 0.65081 0.72544 0.0
C539 C 0.21754 0.65982 0.75984 0.0
C540 C 0.15457 0.71844 0.74778 0.0
O541 O 0.14042 0.65238 0.73668 0.0
O542 O 0.17735 0.65904 0.72812 0.0
O543 O 0.17679 0.71092 0.74548 0.0
O544 O 0.13989 0.70188 0.75298 0.0
C545 C 0.14802 0.64919 0.77848 0.0
O546 O 0.20678 0.67965 0.76438 0.0
O547 O 0.20391 0.64556 0.75174 0.0
In548 In 0.82718 0.17293 0.50035 0.0
O549 O 0.81913 0.21368 0.50778 0.0
O550 O 0.85707 0.20289 0.50396 0.0
C551 C 0.77833 0.16402 0.49325 0.0
C552 C 0.8409 0.15013 0.52695 0.0
C553 C 0.84878 0.15604 0.47399 0.0
O554 O 0.79029 0.18257 0.48787 0.0
O555 O 0.79085 0.15035 0.50233 0.0
O556 O 0.84234 0.14149 0.48481 0.0
O557 O 0.84437 0.17894 0.47649 0.0
C558 C 0.84203 0.22009 0.50778 0.0
O559 O 0.85463 0.14999 0.51503 0.0
O560 O 0.82025 0.16161 0.52542 0.0
In561 In 0.83233 0.33241 0.75226 0.0
O562 O 0.86226 0.35351 0.73828 0.0
O563 O 0.82776 0.34473 0.72715 0.0
C564 C 0.85258 0.34567 0.77972 0.0
C565 C 0.84483 0.28456 0.74498 0.0
C566 C 0.78398 0.34525 0.75846 0.0
O567 O 0.85164 0.36044 0.76832 0.0
O568 O 0.84343 0.32415 0.77726 0.0
O569 O 0.79179 0.32291 0.75947 0.0
O570 O 0.80042 0.36087 0.75422 0.0
C571 C 0.84925 0.35464 0.72609 0.0
O572 O 0.82377 0.29404 0.74154 0.0
O573 O 0.85939 0.29906 0.75227 0.0
In574 In 0.66028 0.34589 0.00362 0.0
O575 O 0.66775 0.30346 0.00326 0.0
O576 O 0.63054 0.31591 0.00804 0.0
C577 C 0.70886 0.36045 0.00077 0.0
C578 C 0.64827 0.36736 0.03098 0.0
C579 C 0.63913 0.35808 0.97617 0.0
O580 O 0.70274 0.33804 0.0038 0.0
O581 O 0.69057 0.37544 0.99957 0.0
O582 O 0.62796 0.36152 0.98887 0.0
O583 O 0.66057 0.34812 0.97732 0.0
C584 C 0.64534 0.29753 0.00657 0.0
O585 O 0.64459 0.37825 0.01821 0.0
O586 O 0.65835 0.346 0.02994 0.0
In587 In 0.67059 0.17131 0.25041 0.0
O588 O 0.64013 0.15165 0.26473 0.0
O589 O 0.66266 0.17912 0.27588 0.0
C590 C 0.6608 0.14659 0.22387 0.0
C591 C 0.71687 0.15319 0.25715 0.0
C592 C 0.65854 0.2193 0.24282 0.0
O593 O 0.64553 0.14715 0.23507 0.0
O594 O 0.68122 0.15823 0.22613 0.0
O595 O 0.67711 0.21416 0.25136 0.0
O596 O 0.64639 0.20045 0.2382 0.0
C597 C 0.64515 0.16326 0.27707 0.0
O598 O 0.71358 0.17503 0.25176 0.0
O599 O 0.69694 0.14062 0.25892 0.0
H600 H 0.16538 0.93877 0.2934 0.0
H601 H 0.13425 0.86759 0.27866 0.0
H602 H 0.20558 0.92731 0.28236 0.0
H603 H 0.17528 0.8551 0.26902 0.0
H604 H 0.2494 0.84397 0.24391 0.0
H605 H 0.20732 0.85882 0.25081 0.0
H606 H 0.23939 0.90205 0.28834 0.0
H607 H 0.28119 0.88838 0.28082 0.0
C608 C 0.16691 0.92072 0.28772 0.0
C609 C 0.14632 0.9041 0.2871 0.0
C610 C 0.1903 0.9139 0.28163 0.0
C611 C 0.19405 0.89001 0.27505 0.0
C612 C 0.17326 0.8737 0.27392 0.0
C613 C 0.1497 0.88074 0.27973 0.0
C614 C 0.24733 0.8568 0.25356 0.0
C615 C 0.26854 0.86508 0.2618 0.0
C616 C 0.2232 0.86522 0.25759 0.0
C617 C 0.21975 0.88177 0.27015 0.0
C618 C 0.24115 0.88988 0.27837 0.0
C619 C 0.2652 0.88184 0.27416 0.0
H620 H 0.14848 0.63025 0.54045 0.0
H621 H 0.07106 0.65402 0.5354 0.0
H622 H 0.16256 0.66926 0.5288 0.0
H623 H 0.08526 0.69388 0.52478 0.0
H624 H 0.11673 0.75734 0.49596 0.0
H625 H 0.10381 0.71516 0.50369 0.0
H626 H 0.16633 0.71181 0.53569 0.0
H627 H 0.17971 0.75343 0.52745 0.0
C628 C 0.13438 0.64364 0.53673 0.0
C629 C 0.10856 0.63886 0.53895 0.0
C630 C 0.14253 0.6663 0.53026 0.0
C631 C 0.12512 0.68497 0.52599 0.0
C632 C 0.09926 0.67992 0.5278 0.0
C633 C 0.0911 0.65713 0.53412 0.0
C634 C 0.12781 0.74743 0.50454 0.0
C635 C 0.14922 0.75867 0.51111 0.0
C636 C 0.12032 0.72332 0.50906 0.0
C637 C 0.13392 0.71 0.52038 0.0
C638 C 0.15559 0.72121 0.52675 0.0
C639 C 0.16321 0.74519 0.52211 0.0
H640 H 0.37214 0.65388 0.79409 0.0
H641 H 0.35021 0.57645 0.78734 0.0
H642 H 0.33244 0.66766 0.78302 0.0
H643 H 0.30976 0.59023 0.77726 0.0
H644 H 0.24633 0.62171 0.74836 0.0
H645 H 0.28861 0.60942 0.75633 0.0
H646 H 0.28941 0.66992 0.7897 0.0
H647 H 0.24756 0.68274 0.78124 0.0
C648 C 0.35898 0.63974 0.79013 0.0
C649 C 0.36451 0.61399 0.79165 0.0
C650 C 0.33596 0.64768 0.784 0.0
C651 C 0.31768 0.63011 0.77934 0.0
C652 C 0.3234 0.60436 0.78056 0.0
C653 C 0.34654 0.59642 0.78656 0.0
C654 C 0.25566 0.63249 0.75731 0.0
C655 C 0.24364 0.65317 0.76419 0.0
C656 C 0.27984 0.62534 0.76197 0.0
C657 C 0.29249 0.63855 0.77374 0.0
C658 C 0.2805 0.6595 0.78044 0.0
C659 C 0.25642 0.66679 0.77566 0.0
H660 H 0.44185 0.8509 0.02008 0.0
H661 H 0.38574 0.85419 0.05616 0.0
H662 H 0.41978 0.81548 0.00836 0.0
H663 H 0.36394 0.81847 0.04468 0.0
H664 H 0.3235 0.75852 0.01673 0.0
H665 H 0.34033 0.79992 0.0236 0.0
H666 H 0.41589 0.77243 0.01582 0.0
H667 H 0.39914 0.73169 0.00867 0.0
C668 C 0.42462 0.84422 0.02539 0.0
C669 C 0.41564 0.85518 0.0391 0.0
C670 C 0.41202 0.82386 0.01873 0.0
C671 C 0.39029 0.81382 0.02572 0.0
C672 C 0.38047 0.8258 0.03891 0.0
C673 C 0.39299 0.8463 0.0455 0.0
C674 C 0.34367 0.76151 0.01634 0.0
C675 C 0.35999 0.74184 0.01221 0.0
C676 C 0.35333 0.78516 0.02033 0.0
C677 C 0.37948 0.78958 0.02023 0.0
C678 C 0.39564 0.76995 0.01575 0.0
C679 C 0.38603 0.74645 0.01178 0.0
H680 H 0.15426 0.56003 0.98316 0.0
H681 H 0.15352 0.61544 0.94669 0.0
H682 H 0.18875 0.58237 0.99576 0.0
H683 H 0.18829 0.63753 0.95907 0.0
H684 H 0.24557 0.67887 0.98858 0.0
H685 H 0.20484 0.66155 0.98059 0.0
H686 H 0.23245 0.58659 0.98969 0.0
H687 H 0.27253 0.60383 0.99794 0.0
C688 C 0.16131 0.57714 0.97793 0.0
C689 C 0.15133 0.58585 0.96387 0.0
C690 C 0.18113 0.5899 0.98511 0.0
C691 C 0.1916 0.61155 0.97831 0.0
C692 C 0.1806 0.62107 0.96472 0.0
C693 C 0.16065 0.60839 0.9576 0.0
C694 C 0.24274 0.65873 0.98903 0.0
C695 C 0.26227 0.64271 0.99383 0.0
C696 C 0.21947 0.64879 0.98439 0.0
C697 C 0.2153 0.62265 0.98451 0.0
C698 C 0.23474 0.60681 0.9897 0.0
C699 C 0.25787 0.6167 0.99431 0.0
H700 H 0.35606 0.64028 0.20982 0.0
H701 H 0.43288 0.65127 0.22475 0.0
H702 H 0.34459 0.681 0.22052 0.0
H703 H 0.42137 0.69198 0.23566 0.0
H704 H 0.3986 0.77529 0.23356 0.0
H705 H 0.41004 0.73276 0.22605 0.0
H706 H 0.33899 0.70546 0.24374 0.0
H707 H 0.32727 0.74832 0.25091 0.0
C708 C 0.3704 0.65118 0.21567 0.0
C709 C 0.39541 0.64257 0.21639 0.0
C710 C 0.36382 0.67456 0.22183 0.0
C711 C 0.38207 0.68988 0.2289 0.0
C712 C 0.40693 0.68089 0.23004 0.0
C713 C 0.41354 0.65754 0.22382 0.0
C714 C 0.38547 0.76019 0.23594 0.0
C715 C 0.36199 0.76516 0.24277 0.0
C716 C 0.39211 0.73575 0.23172 0.0
C717 C 0.37546 0.71562 0.23429 0.0
C718 C 0.35214 0.72055 0.24142 0.0
C719 C 0.34546 0.74507 0.2456 0.0
H720 H 0.33684 0.92771 0.45141 0.0
H721 H 0.37651 0.87476 0.48047 0.0
H722 H 0.29699 0.91356 0.46213 0.0
H723 H 0.33633 0.8602 0.49097 0.0
H724 H 0.25707 0.82147 0.48885 0.0
H725 H 0.29859 0.83689 0.48108 0.0
H726 H 0.27281 0.91331 0.48665 0.0
H727 H 0.23135 0.89795 0.49431 0.0
C728 C 0.33716 0.91337 0.46029 0.0
C729 C 0.36 0.90248 0.4651 0.0
C730 C 0.31424 0.90518 0.4664 0.0
C731 C 0.31351 0.88575 0.47739 0.0
C732 C 0.33629 0.87502 0.48238 0.0
C733 C 0.3593 0.88335 0.47634 0.0
C734 C 0.26036 0.84155 0.48852 0.0
C735 C 0.24093 0.85851 0.4921 0.0
C736 C 0.28416 0.85037 0.48416 0.0
C737 C 0.28892 0.87632 0.48319 0.0
C738 C 0.26962 0.89322 0.48711 0.0
C739 C 0.24591 0.88442 0.49156 0.0
H740 H 0.07314 0.83734 0.70341 0.0
H741 H 0.13217 0.87825 0.72691 0.0
H742 H 0.08785 0.7985 0.71509 0.0
H743 H 0.14728 0.83901 0.7383 0.0
H744 H 0.18273 0.75798 0.73724 0.0
H745 H 0.16752 0.79912 0.72871 0.0
H746 H 0.09156 0.77771 0.74077 0.0
H747 H 0.10669 0.73667 0.74921 0.0
C748 C 0.08898 0.8382 0.71128 0.0
C749 C 0.10136 0.86108 0.71424 0.0
C750 C 0.09749 0.81584 0.71793 0.0
C751 C 0.11872 0.81569 0.72762 0.0
C752 C 0.13102 0.83852 0.73074 0.0
C753 C 0.12236 0.86098 0.72419 0.0
C754 C 0.16283 0.76218 0.7382 0.0
C755 C 0.14589 0.74406 0.74381 0.0
C756 C 0.15414 0.78577 0.7334 0.0
C757 C 0.12832 0.79158 0.73399 0.0
C758 C 0.11151 0.77366 0.73999 0.0
C759 C 0.12021 0.7502 0.7449 0.0
H760 H 0.63972 0.42184 0.77109 0.0
H761 H 0.64153 0.36319 0.80559 0.0
H762 H 0.6794 0.40645 0.76041 0.0
H763 H 0.68129 0.34807 0.79516 0.0
H764 H 0.74438 0.315 0.76647 0.0
H765 H 0.70195 0.32794 0.77396 0.0
H766 H 0.72288 0.40571 0.76742 0.0
H767 H 0.76486 0.3927 0.75949 0.0
C768 C 0.64858 0.40563 0.77637 0.0
C769 C 0.63747 0.39374 0.78918 0.0
C770 C 0.67136 0.39684 0.77029 0.0
C771 C 0.68368 0.37606 0.77696 0.0
C772 C 0.6722 0.36384 0.78955 0.0
C773 C 0.64937 0.37253 0.79555 0.0
C774 C 0.7398 0.33483 0.76652 0.0
C775 C 0.75796 0.35283 0.76243 0.0
C776 C 0.71553 0.34228 0.7709 0.0
C777 C 0.70894 0.3679 0.77134 0.0
C778 C 0.72708 0.38581 0.76699 0.0
C779 C 0.75126 0.37836 0.76254 0.0
H780 H 0.64473 0.14588 0.04127 0.0
H781 H 0.56643 0.15803 0.03017 0.0
H782 H 0.65534 0.18666 0.03045 0.0
H783 H 0.57705 0.19871 0.0188 0.0
H784 H 0.60098 0.28177 0.01903 0.0
H785 H 0.58925 0.23933 0.02654 0.0
H786 H 0.65964 0.21148 0.00812 0.0
H787 H 0.67178 0.25428 0.00125 0.0
C788 C 0.62984 0.15709 0.03619 0.0
C789 C 0.60474 0.14874 0.03656 0.0
C790 C 0.63593 0.1805 0.02992 0.0
C791 C 0.61709 0.19613 0.02371 0.0
C792 C 0.59203 0.18743 0.02371 0.0
C793 C 0.5859 0.16408 0.03016 0.0
C794 C 0.61386 0.26655 0.01647 0.0
C795 C 0.63738 0.27137 0.00965 0.0
C796 C 0.60706 0.24212 0.02069 0.0
C797 C 0.62351 0.22184 0.01803 0.0
C798 C 0.64668 0.22663 0.01065 0.0
C799 C 0.65359 0.25114 0.00659 0.0
H800 H 0.83619 0.08661 0.31059 0.0
H801 H 0.87622 0.11613 0.27104 0.0
H802 H 0.79651 0.10003 0.29927 0.0
H803 H 0.83632 0.12979 0.25973 0.0
H804 H 0.76256 0.17696 0.25557 0.0
H805 H 0.80322 0.16125 0.26469 0.0
H806 H 0.76814 0.0912 0.27785 0.0
H807 H 0.72757 0.10701 0.26899 0.0
C808 C 0.83652 0.09557 0.29934 0.0
C809 C 0.85945 0.10018 0.29171 0.0
C810 C 0.81373 0.10333 0.29286 0.0
C811 C 0.81322 0.11598 0.27858 0.0
C812 C 0.83609 0.12037 0.27084 0.0
C813 C 0.85895 0.11253 0.27732 0.0
C814 C 0.76361 0.15815 0.26032 0.0
C815 C 0.74185 0.14329 0.26166 0.0
C816 C 0.78691 0.1491 0.26547 0.0
C817 C 0.7889 0.12501 0.27209 0.0
C818 C 0.7672 0.10997 0.27304 0.0
C819 C 0.74396 0.11899 0.26789 0.0
H820 H 0.8674 0.37952 0.52848 0.0
H821 H 0.92342 0.33769 0.55404 0.0
H822 H 0.85148 0.34029 0.51746 0.0
H823 H 0.9078 0.29881 0.5429 0.0
H824 H 0.89044 0.23658 0.50902 0.0
H825 H 0.90578 0.2772 0.51788 0.0
H826 H 0.82928 0.30135 0.52611 0.0
H827 H 0.81382 0.26058 0.51703 0.0
C828 C 0.87633 0.36202 0.53176 0.0
C829 C 0.89682 0.36184 0.54209 0.0
C830 C 0.86719 0.33956 0.52544 0.0
C831 C 0.87845 0.31646 0.52926 0.0
C832 C 0.899 0.31632 0.53949 0.0
C833 C 0.90803 0.33868 0.54585 0.0
C834 C 0.87685 0.25058 0.51263 0.0
C835 C 0.85091 0.24533 0.51241 0.0
C836 C 0.88566 0.27383 0.51778 0.0
C837 C 0.86877 0.29243 0.52281 0.0
C838 C 0.84276 0.28746 0.5222 0.0
C839 C 0.83391 0.26409 0.51708 0.0
H840 H 0.64458 0.08093 0.46817 0.0
H841 H 0.62667 0.15687 0.45423 0.0
H842 H 0.68456 0.09539 0.47853 0.0
H843 H 0.66578 0.17159 0.46562 0.0
H844 H 0.75101 0.18393 0.46946 0.0
H845 H 0.70934 0.17117 0.46065 0.0
H846 H 0.70468 0.11797 0.49837 0.0
H847 H 0.74681 0.13003 0.50669 0.0
C848 C 0.64903 0.10075 0.46742 0.0
C849 C 0.63234 0.11764 0.46024 0.0
C850 C 0.67187 0.10914 0.47359 0.0
C851 C 0.67856 0.13471 0.47291 0.0
C852 C 0.66152 0.15171 0.46615 0.0
C853 C 0.63881 0.14328 0.45983 0.0
C854 C 0.74097 0.16964 0.47591 0.0
C855 C 0.7522 0.15789 0.4887 0.0
C856 C 0.71698 0.16239 0.47092 0.0
C857 C 0.70354 0.14341 0.47874 0.0
C858 C 0.71459 0.13225 0.49185 0.0
C859 C 0.73869 0.1393 0.49671 0.0
H860 H 0.85345 0.13083 0.71047 0.0
H861 H 0.93079 0.15561 0.71384 0.0
H862 H 0.83949 0.16982 0.72218 0.0
H863 H 0.91664 0.19545 0.7245 0.0
H864 H 0.88589 0.2579 0.75454 0.0
H865 H 0.89919 0.21627 0.74604 0.0
H866 H 0.83457 0.21236 0.71567 0.0
H867 H 0.82083 0.25344 0.72472 0.0
C868 C 0.86756 0.14446 0.71381 0.0
C869 C 0.89332 0.13992 0.71116 0.0
C870 C 0.85947 0.16711 0.72031 0.0
C871 C 0.87686 0.18603 0.72417 0.0
C872 C 0.90266 0.1813 0.72183 0.0
C873 C 0.91079 0.15852 0.71548 0.0
C874 C 0.87446 0.248 0.74614 0.0
C875 C 0.85232 0.25891 0.74029 0.0
C876 C 0.88216 0.2242 0.74117 0.0
C877 C 0.86805 0.21086 0.7301 0.0
C878 C 0.84573 0.22178 0.7244 0.0
C879 C 0.83789 0.24544 0.72951 0.0
H880 H 0.85843 0.3608 0.96282 0.0
H881 H 0.84911 0.43814 0.9767 0.0
H882 H 0.81814 0.35028 0.97444 0.0
H883 H 0.80889 0.42755 0.98881 0.0
H884 H 0.72496 0.40539 0.98942 0.0
H885 H 0.76736 0.41687 0.98149 0.0
H886 H 0.79475 0.34485 0.99741 0.0
H887 H 0.75197 0.33304 0.00474 0.0
C888 C 0.84798 0.37547 0.96868 0.0
C889 C 0.85696 0.40031 0.96885 0.0
C890 C 0.82485 0.36943 0.9754 0.0
C891 C 0.81013 0.38803 0.98261 0.0
C892 C 0.81947 0.41279 0.98315 0.0
C893 C 0.84256 0.41888 0.97626 0.0
C894 C 0.74008 0.3921 0.99136 0.0
C895 C 0.73511 0.36824 0.9976 0.0
C896 C 0.76449 0.39875 0.9869 0.0
C897 C 0.78459 0.38177 0.9887 0.0
C898 C 0.7797 0.35824 0.99555 0.0
C899 C 0.75521 0.3515 -0.00014 0.0
H900 H 0.64553 0.38046 0.22428 0.0
H901 H 0.57413 0.34804 0.21081 0.0
H902 H 0.66016 0.3392 0.23239 0.0
H903 H 0.58788 0.30754 0.22018 0.0
H904 H 0.62789 0.23332 0.2193 0.0
H905 H 0.61439 0.27536 0.21232 0.0
H906 H 0.65775 0.30585 0.2503 0.0
H907 H 0.67233 0.26351 0.25674 0.0
C908 C 0.63281 0.36467 0.22317 0.0
C909 C 0.60867 0.36777 0.21669 0.0
C910 C 0.64111 0.34098 0.22806 0.0
C911 C 0.62537 0.31981 0.22678 0.0
C912 C 0.60084 0.32318 0.22099 0.0
C913 C 0.59271 0.3467 0.21588 0.0
C914 C 0.63461 0.24902 0.22613 0.0
C915 C 0.6511 0.24515 0.23859 0.0
C916 C 0.62667 0.27318 0.22223 0.0
C917 C 0.63461 0.29415 0.23087 0.0
C918 C 0.65138 0.29026 0.24328 0.0
C919 C 0.65968 0.266 0.24703 0.0
H920 H 0.05717 0.90524 0.39754 0.0
H921 H 0.13147 0.89376 0.37845 0.0
H922 H 0.07188 0.88981 0.42258 0.0
H923 H 0.14634 0.87914 0.40355 0.0
H924 H 0.1569 0.82819 0.44554 0.0
H925 H 0.14103 0.84297 0.42066 0.0
H926 H 0.09995 0.90206 0.44383 0.0
H927 H 0.11553 0.88702 0.46874 0.0
C928 C 0.07664 0.89945 0.3987 0.0
C929 C 0.09315 0.90074 0.386 0.0
C930 C 0.08512 0.89084 0.41307 0.0
C931 C 0.11027 0.88319 0.41505 0.0
C932 C 0.12679 0.8846 0.40237 0.0
C933 C 0.11834 0.89328 0.38803 0.0
C934 C 0.1444 0.84427 0.44532 0.0
C935 C 0.13747 0.85646 0.45908 0.0
C936 C 0.13544 0.85284 0.43106 0.0
C937 C 0.11931 0.87376 0.43026 0.0
C938 C 0.11214 0.88575 0.44406 0.0
C939 C 0.12116 0.87721 0.45833 0.0
H940 H 0.14161 0.56238 0.64138 0.0
H941 H 0.08543 0.62076 0.63678 0.0
H942 H 0.15398 0.57959 0.6664 0.0
H943 H 0.09729 0.63725 0.66205 0.0
H944 H 0.10811 0.63986 0.71531 0.0
H945 H 0.09588 0.62253 0.69021 0.0
H946 H 0.174 0.62027 0.67642 0.0
H947 H 0.18625 0.63779 0.70147 0.0
C948 C 0.13197 0.57893 0.64562 0.0
C949 C 0.1125 0.59015 0.63699 0.0
C950 C 0.13902 0.5887 0.65999 0.0
C951 C 0.12656 0.6097 0.66615 0.0
C952 C 0.107 0.62083 0.65764 0.0
C953 C 0.10015 0.61128 0.64319 0.0
C954 C 0.12265 0.63565 0.70692 0.0
C955 C 0.14812 0.64018 0.71032 0.0
C956 C 0.11565 0.62585 0.69255 0.0
C957 C 0.134 0.62007 0.6814 0.0
C958 C 0.15949 0.62438 0.68486 0.0
C959 C 0.16647 0.63451 0.69915 0.0
H960 H 0.38868 0.58602 0.88817 0.0
H961 H 0.44499 0.6444 0.89229 0.0
H962 H 0.37237 0.59709 0.91362 0.0
H963 H 0.4277 0.6561 0.91742 0.0
H964 H 0.36605 0.68604 0.95177 0.0
H965 H 0.38448 0.67414 0.92689 0.0
H966 H 0.38908 0.59703 0.94212 0.0
H967 H 0.37103 0.60896 0.96713 0.0
C968 C 0.39778 0.60104 0.8945 0.0
C969 C 0.41826 0.61426 0.88809 0.0
C970 C 0.3883 0.60743 0.90905 0.0
C971 C 0.39876 0.62745 0.91742 0.0
C972 C 0.41914 0.64073 0.9111 0.0
C973 C 0.42893 0.63409 0.89666 0.0
C974 C 0.37107 0.66657 0.94981 0.0
C975 C 0.36712 0.64841 0.96136 0.0
C976 C 0.3817 0.65981 0.93562 0.0
C977 C 0.38817 0.63469 0.93262 0.0
C978 C 0.38413 0.6165 0.94414 0.0
C979 C 0.37391 0.62334 0.95844 0.0
H980 H 0.42652 0.94115 0.14753 0.0
H981 H 0.4091 0.86571 0.13258 0.0
H982 H 0.40408 0.9335 0.17184 0.0
H983 H 0.38727 0.85791 0.15688 0.0
H984 H 0.33301 0.85639 0.19666 0.0
H985 H 0.34978 0.87007 0.17174 0.0
H986 H 0.41136 0.90716 0.19509 0.0
H987 H 0.39442 0.89374 0.22001 0.0
C988 C 0.41771 0.92304 0.14939 0.0
C989 C 0.41973 0.90396 0.13822 0.0
C990 C 0.40504 0.91861 0.16333 0.0
C991 C 0.39392 0.8951 0.16628 0.0
C992 C 0.39538 0.87631 0.1549 0.0
C993 C 0.40815 0.88067 0.14106 0.0
C994 C 0.34992 0.86777 0.19648 0.0
C995 C 0.36252 0.87383 0.21026 0.0
C996 C 0.3596 0.87549 0.18221 0.0
C997 C 0.38201 0.8895 0.18144 0.0
C998 C 0.39395 0.89655 0.1953 0.0
C999 C 0.38432 0.88874 0.20956 0.0
H1000 H 0.1186 0.54167 0.85077 0.0
H1001 H 0.08895 0.61058 0.8699 0.0
H1002 H 0.12811 0.56334 0.82669 0.0
H1003 H 0.09738 0.63203 0.8455 0.0
H1004 H 0.14794 0.66769 0.80791 0.0
H1005 H 0.13367 0.64667 0.83138 0.0
H1006 H 0.11003 0.58271 0.80422 0.0
H1007 H 0.12498 0.60351 0.7808 0.0
C1008 C 0.11394 0.56142 0.84979 0.0
C1009 C 0.10322 0.57443 0.86233 0.0
C1010 C 0.1191 0.57379 0.8359 0.0
C1011 C 0.11358 0.59947 0.83415 0.0
C1012 C 0.10218 0.61232 0.84653 0.0
C1013 C 0.09705 0.59994 0.86045 0.0
C1014 C 0.13954 0.64921 0.80696 0.0
C1015 C 0.13772 0.63718 0.79254 0.0
C1016 C 0.1312 0.63721 0.8204 0.0
C1017 C 0.12076 0.61294 0.81971 0.0
C1018 C 0.11834 0.60122 0.8052 0.0
C1019 C 0.12677 0.61319 0.79177 0.0
H1020 H 0.35932 0.61246 0.12913 0.0
H1021 H 0.41763 0.56795 0.1078 0.0
H1022 H 0.34767 0.62942 0.10394 0.0
H1023 H 0.40532 0.5838 0.08242 0.0
H1024 H 0.39447 0.63546 0.04113 0.0
H1025 H 0.40636 0.61894 0.06637 0.0
H1026 H 0.32819 0.62041 0.08049 0.0
H1027 H 0.31669 0.63825 0.05553 0.0
C1028 C 0.3694 0.60608 0.11897 0.0
C1029 C 0.38936 0.58895 0.12037 0.0
C1030 C 0.36267 0.61566 0.1045 0.0
C1031 C 0.37547 0.608 0.09103 0.0
C1032 C 0.39531 0.59058 0.0925 0.0
C1033 C 0.40231 0.58134 0.10702 0.0
C1034 C 0.37988 0.63225 0.04967 0.0
C1035 C 0.35469 0.6382 0.04641 0.0
C1036 C 0.38664 0.62259 0.06413 0.0
C1037 C 0.36827 0.61824 0.07558 0.0
C1038 C 0.34297 0.62394 0.07215 0.0
C1039 C 0.33631 0.63401 0.05779 0.0
H1040 H 0.4091 0.9323 0.35953 0.0
H1041 H 0.43159 0.85673 0.37138 0.0
H1042 H 0.39592 0.91791 0.33402 0.0
H1043 H 0.41889 0.84237 0.34565 0.0
H1044 H 0.36182 0.82416 0.30609 0.0
H1045 H 0.37901 0.8368 0.33113 0.0
H1046 H 0.41353 0.90159 0.30976 0.0
H1047 H 0.39609 0.88916 0.28481 0.0
C1048 C 0.4113 0.91262 0.35665 0.0
C1049 C 0.42127 0.89562 0.36747 0.0
C1050 C 0.40399 0.90442 0.34198 0.0
C1051 C 0.40639 0.879 0.33781 0.0
C1052 C 0.41664 0.86203 0.34857 0.0
C1053 C 0.42412 0.87028 0.36323 0.0
C1054 C 0.37326 0.84098 0.30673 0.0
C1055 C 0.37749 0.85576 0.29352 0.0
C1056 C 0.38321 0.84815 0.32105 0.0
C1057 C 0.3975 0.87028 0.32243 0.0
C1058 C 0.40228 0.88465 0.30911 0.0
C1059 C 0.3924 0.87745 0.2948 0.0
H1060 H 0.06315 0.89763 0.60851 0.0
H1061 H 0.13726 0.92785 0.61747 0.0
H1062 H 0.07771 0.88165 0.58364 0.0
H1063 H 0.15146 0.91292 0.59233 0.0
H1064 H 0.17609 0.85626 0.55559 0.0
H1065 H 0.16109 0.87349 0.58001 0.0
H1066 H 0.09111 0.89481 0.55811 0.0
H1067 H 0.10595 0.87697 0.53372 0.0
C1068 C 0.08251 0.90096 0.60515 0.0
C1069 C 0.09905 0.91395 0.61502 0.0
C1070 C 0.09078 0.89205 0.59081 0.0
C1071 C 0.11578 0.89594 0.58599 0.0
C1072 C 0.13218 0.90931 0.59576 0.0
C1073 C 0.12393 0.91817 0.6101 0.0
C1074 C 0.15752 0.86467 0.55598 0.0
C1075 C 0.14219 0.86525 0.54275 0.0
C1076 C 0.14897 0.87469 0.56996 0.0
C1077 C 0.12491 0.88561 0.57102 0.0
C1078 C 0.10961 0.88628 0.55774 0.0
C1079 C 0.11816 0.87619 0.54375 0.0
H1080 H 0.60864 0.43908 0.89169 0.0
H1081 H 0.55954 0.37429 0.88899 0.0
H1082 H 0.62334 0.42496 0.91696 0.0
H1083 H 0.57331 0.36129 0.9147 0.0
H1084 H 0.58991 0.36789 0.96904 0.0
H1085 H 0.57303 0.38217 0.94408 0.0
H1086 H 0.648 0.38157 0.92484 0.0
H1087 H 0.6648 0.36669 0.94953 0.0
C1088 C 0.60092 0.42189 0.89641 0.0
C1089 C 0.58302 0.40775 0.88811 0.0
C1090 C 0.60923 0.41396 0.91094 0.0
C1091 C 0.59944 0.39207 0.91767 0.0
C1092 C 0.58096 0.37836 0.90975 0.0
C1093 C 0.573 0.38597 0.89505 0.0
C1094 C 0.60271 0.37071 0.95944 0.0
C1095 C 0.62862 0.36615 0.96117 0.0
C1096 C 0.59307 0.3788 0.94521 0.0
C1097 C 0.6093 0.38304 0.93266 0.0
C1098 C 0.63518 0.37858 0.93441 0.0
C1099 C 0.64473 0.36995 0.94849 0.0
H1100 H 0.64991 0.11324 0.12608 0.0
H1101 H 0.59399 0.06461 0.14644 0.0
H1102 H 0.66202 0.1279 0.15171 0.0
H1103 H 0.60668 0.07839 0.17221 0.0
H1104 H 0.61494 0.13017 0.21405 0.0
H1105 H 0.60404 0.11307 0.18883 0.0
H1106 H 0.68221 0.1176 0.175 0.0
H1107 H 0.69276 0.13588 0.20004 0.0
C1108 C 0.6405 0.10541 0.1361 0.0
C1109 C 0.62098 0.08787 0.1343 0.0
C1110 C 0.6475 0.1137 0.15082 0.0
C1111 C 0.63536 0.10438 0.16412 0.0
C1112 C 0.61614 0.08639 0.16226 0.0
C1113 C 0.60891 0.07838 0.14752 0.0
C1114 C 0.62979 0.12738 0.20564 0.0
C1115 C 0.65467 0.13446 0.20898 0.0
C1116 C 0.62359 0.11741 0.19118 0.0
C1117 C 0.64221 0.11395 0.17978 0.0
C1118 C 0.66726 0.12044 0.18334 0.0
C1119 C 0.67338 0.13075 0.19773 0.0
H1120 H 0.87983 0.0827 0.38649 0.0
H1121 H 0.94295 0.13293 0.39294 0.0
H1122 H 0.86296 0.0954 0.41153 0.0
H1123 H 0.92567 0.146 0.4178 0.0
H1124 H 0.86912 0.18443 0.45096 0.0
H1125 H 0.88775 0.16996 0.42674 0.0
H1126 H 0.87334 0.09303 0.43994 0.0
H1127 H 0.85464 0.10753 0.46424 0.0
C1128 C 0.89028 0.09622 0.3933 0.0
C1129 C 0.91275 0.10683 0.38764 0.0
C1130 C 0.88056 0.10353 0.40764 0.0
C1131 C 0.89295 0.12175 0.41659 0.0
C1132 C 0.91553 0.13216 0.41104 0.0
C1133 C 0.92537 0.12472 0.39677 0.0
C1134 C 0.86999 0.16443 0.44871 0.0
C1135 C 0.86042 0.1471 0.45947 0.0
C1136 C 0.88078 0.15615 0.43489 0.0
C1137 C 0.88203 0.13037 0.43147 0.0
C1138 C 0.87245 0.11302 0.44223 0.0
C1139 C 0.86187 0.12131 0.45615 0.0
H1140 H 0.86464 0.43043 0.63745 0.0
H1141 H 0.93864 0.40016 0.64671 0.0
H1142 H 0.8501 0.4153 0.66247 0.0
H1143 H 0.92374 0.384 0.67147 0.0
H1144 H 0.82495 0.35741 0.6984 0.0
H1145 H 0.84038 0.37547 0.67432 0.0
H1146 H 0.90971 0.3966 0.69705 0.0
H1147 H 0.89443 0.37794 0.72111 0.0
C1148 C 0.87788 0.42072 0.64487 0.0
C1149 C 0.90282 0.41651 0.64005 0.0
C1150 C 0.86944 0.41175 0.65914 0.0
C1151 C 0.88569 0.39827 0.66894 0.0
C1152 C 0.91078 0.39448 0.66427 0.0
C1153 C 0.91924 0.40349 0.64999 0.0
C1154 C 0.84346 0.36597 0.69827 0.0
C1155 C 0.85849 0.36625 0.71164 0.0
C1156 C 0.85226 0.37647 0.68449 0.0
C1157 C 0.87627 0.38756 0.68375 0.0
C1158 C 0.89125 0.38795 0.69717 0.0
C1159 C 0.88245 0.3774 0.71097 0.0
H1160 H 0.54491 0.13123 0.35511 0.0
H1161 H 0.62 0.11148 0.36993 0.0
H1162 H 0.56172 0.14518 0.3301 0.0
H1163 H 0.63676 0.12546 0.34504 0.0
H1164 H 0.65928 0.17889 0.30576 0.0
H1165 H 0.64047 0.16743 0.33057 0.0
H1166 H 0.58398 0.12368 0.30683 0.0
H1167 H 0.60294 0.13494 0.28194 0.0
C1168 C 0.56499 0.13 0.35302 0.0
C1169 C 0.58118 0.12024 0.36439 0.0
C1170 C 0.57456 0.13782 0.33872 0.0
C1171 C 0.60052 0.13644 0.33569 0.0
C1172 C 0.6167 0.12692 0.34714 0.0
C1173 C 0.6071 0.11875 0.36131 0.0
C1174 C 0.64273 0.16699 0.30582 0.0
C1175 C 0.63262 0.15772 0.29193 0.0
C1176 C 0.63207 0.16035 0.32001 0.0
C1177 C 0.61086 0.1446 0.32059 0.0
C1178 C 0.60024 0.13596 0.30668 0.0
C1179 C 0.61114 0.14232 0.29248 0.0
H1180 H 0.85733 0.11136 0.62393 0.0
H1181 H 0.91338 0.06557 0.60135 0.0
H1182 H 0.84462 0.12855 0.59902 0.0
H1183 H 0.89999 0.08177 0.57625 0.0
H1184 H 0.88794 0.13495 0.53551 0.0
H1185 H 0.90086 0.11724 0.56027 0.0
H1186 H 0.82355 0.11969 0.57601 0.0
H1187 H 0.81105 0.13863 0.55156 0.0
C1188 C 0.86667 0.10474 0.61356 0.0
C1189 C 0.88631 0.08716 0.61453 0.0
C1190 C 0.85932 0.11447 0.59925 0.0
C1191 C 0.87117 0.10654 0.58551 0.0
C1192 C 0.89071 0.08871 0.58654 0.0
C1193 C 0.89832 0.07929 0.60091 0.0
C1194 C 0.87376 0.13165 0.54429 0.0
C1195 C 0.84853 0.13826 0.54166 0.0
C1196 C 0.88111 0.12133 0.55847 0.0
C1197 C 0.8633 0.11702 0.57025 0.0
C1198 C 0.83793 0.12321 0.5674 0.0
C1199 C 0.83069 0.1339 0.55333 0.0
H1200 H 0.93775 0.35956 0.86533 0.0
H1201 H 0.87988 0.41658 0.86822 0.0
H1202 H 0.92195 0.34719 0.83995 0.0
H1203 H 0.86487 0.40472 0.8426 0.0
H1204 H 0.86471 0.39287 0.78948 0.0
H1205 H 0.88138 0.40529 0.81472 0.0
H1206 H 0.88123 0.32769 0.82927 0.0
H1207 H 0.86434 0.31525 0.80408 0.0
C1208 C 0.92163 0.36941 0.86063 0.0
C1209 C 0.91011 0.38908 0.86891 0.0
C1210 C 0.91268 0.36236 0.84606 0.0
C1211 C 0.89223 0.37503 0.83932 0.0
C1212 C 0.88087 0.39485 0.84745 0.0
C1213 C 0.88959 0.40169 0.86211 0.0
C1214 C 0.86829 0.37847 0.79806 0.0
C1215 C 0.86321 0.3531 0.79484 0.0
C1216 C 0.87771 0.38559 0.81251 0.0
C1217 C 0.88257 0.36744 0.82393 0.0
C1218 C 0.87783 0.34203 0.82063 0.0
C1219 C 0.86806 0.33494 0.80626 0.0
H1220 H 0.63303 0.44875 0.11752 0.0
H1221 H 0.56829 0.3994 0.11565 0.0
H1222 H 0.64574 0.43445 0.09187 0.0
H1223 H 0.58212 0.38418 0.09045 0.0
H1224 H 0.64014 0.3423 0.05789 0.0
H1225 H 0.62555 0.35957 0.08252 0.0
H1226 H 0.6244 0.43392 0.06263 0.0
H1227 H 0.63838 0.41656 0.03774 0.0
C1228 C 0.6213 0.43512 0.11165 0.0
C1229 C 0.59962 0.42519 0.11881 0.0
C1230 C 0.62874 0.42685 0.09699 0.0
C1231 C 0.61497 0.40815 0.08932 0.0
C1232 C 0.59317 0.39846 0.09626 0.0
C1233 C 0.58541 0.40707 0.11076 0.0
C1234 C 0.63682 0.36234 0.05877 0.0
C1235 C 0.64037 0.37813 0.04593 0.0
C1236 C 0.62836 0.37215 0.07282 0.0
C1237 C 0.62383 0.398 0.07438 0.0
C1238 C 0.62783 0.41391 0.06166 0.0
C1239 C 0.63575 0.404 0.04747 0.0
loop_
_geom_bond_atom_site_label_1
_geom_bond_atom_site_label_2
_geom_bond_distance
_geom_bond_site_symmetry_2
_ccdc_geom_bond_type
H0 C27 0.929 . S
N1 C26 1.433 . S
N1 C32 1.435 . S
N1 C38 1.423 . S
H2 C28 0.930 . S
H3 C31 0.931 . S
H4 C30 0.929 . S
H5 C33 0.930 . S
H6 C34 0.932 . S
H7 C37 0.929 . S
H8 C36 0.931 . S
H9 C39 0.929 . S
H10 C43 0.932 . S
H11 C40 0.931 . S
H12 C42 0.929 . S
H13 C45 0.929 . S
H14 C46 0.930 . S
H15 C48 0.929 . S
H16 C49 0.931 . S
H17 C51 0.930 . S
H18 C52 0.932 . S
H19 C54 0.931 . S
H20 C55 0.929 . S
H21 C57 0.929 . S
H22 C58 0.931 1_455 S
H23 C60 0.929 . S
N24 C44 1.433 . S
N24 C50 1.435 . S
N24 C56 1.423 . S
H25 C61 0.932 . S
C26 N1 1.433 . S
C26 C27 1.363 . S
C26 C31 1.370 . S
C27 H0 0.929 . S
C27 C26 1.363 . S
C27 C28 1.385 . S
C28 H2 0.930 . S
C28 C27 1.385 . S
C28 C29 1.357 . S
C29 C28 1.357 . S
C29 C30 1.406 . S
C30 H4 0.929 . S
C30 C29 1.406 . S
C30 C31 1.391 . S
C31 H3 0.931 . S
C31 C26 1.370 . S
C31 C30 1.391 . S
C32 N1 1.435 . S
C32 C33 1.358 . S
C32 C37 1.371 . S
C33 H5 0.930 . S
C33 C32 1.358 . S
C33 C34 1.405 . S
C34 H6 0.932 . S
C34 C33 1.405 . S
C34 C35 1.383 . S
C35 C34 1.383 . S
C35 C36 1.393 . S
C36 H8 0.931 . S
C36 C35 1.393 . S
C36 C37 1.382 . S
C37 H7 0.929 . S
C37 C32 1.371 . S
C37 C36 1.382 . S
C38 N1 1.423 . S
C38 C39 1.362 . S
C38 C43 1.388 . S
C39 H9 0.929 . S
C39 C38 1.362 . S
C39 C40 1.376 1_565 S
C40 H11 0.931 . S
C40 C39 1.376 1_545 S
C40 C41 1.396 . S
C41 C40 1.396 . S
C41 C42 1.348 1_545 S
C41 C59 1.472 . S
C42 H12 0.929 . S
C42 C41 1.348 1_565 S
C42 C43 1.443 . S
C43 H10 0.932 . S
C43 C38 1.388 . S
C43 C42 1.443 . S
C44 N24 1.433 . S
C44 C45 1.363 . S
C44 C49 1.370 . S
C45 H13 0.929 . S
C45 C44 1.363 . S
C45 C46 1.385 . S
C46 H14 0.930 . S
C46 C45 1.385 . S
C46 C47 1.357 . S
C47 C46 1.357 . S
C47 C48 1.406 . S
C48 H15 0.929 . S
C48 C47 1.406 . S
C48 C49 1.391 . S
C49 H16 0.931 . S
C49 C44 1.370 . S
C49 C48 1.391 . S
C50 N24 1.435 . S
C50 C51 1.358 . S
C50 C55 1.371 . S
C51 H17 0.930 . S
C51 C50 1.358 . S
C51 C52 1.405 . S
C52 H18 0.932 . S
C52 C51 1.405 . S
C52 C53 1.383 . S
C53 C52 1.383 . S
C53 C54 1.393 . S
C54 H19 0.931 . S
C54 C53 1.393 . S
C54 C55 1.382 . S
C55 H20 0.929 . S
C55 C50 1.371 . S
C55 C54 1.382 . S
C56 N24 1.423 . S
C56 C57 1.362 . S
C56 C61 1.388 . S
C57 H21 0.929 . S
C57 C56 1.362 . S
C57 C58 1.376 . S
C58 H22 0.931 1_655 S
C58 C57 1.376 . S
C58 C59 1.396 1_655 S
C59 C41 1.472 . S
C59 C58 1.396 1_455 S
C59 C60 1.348 1_455 S
C60 H23 0.929 . S
C60 C59 1.348 1_655 S
C60 C61 1.443 . S
C61 H25 0.932 . S
C61 C56 1.388 . S
C61 C60 1.443 . S
H62 C89 0.929 . S
N63 C88 1.433 . S
N63 C94 1.435 . S
N63 C100 1.423 . S
H64 C90 0.930 . S
H65 C93 0.931 . S
H66 C92 0.929 . S
H67 C95 0.930 . S
H68 C96 0.932 . S
H69 C99 0.929 . S
H70 C98 0.931 . S
H71 C101 0.929 . S
H72 C105 0.932 . S
H73 C102 0.931 . S
H74 C104 0.929 . S
H75 C107 0.929 . S
H76 C108 0.930 . S
H77 C110 0.929 . S
H78 C111 0.931 . S
H79 C113 0.930 . S
H80 C114 0.932 . S
H81 C116 0.931 . S
H82 C117 0.929 . S
H83 C119 0.929 . S
H84 C120 0.931 . S
H85 C122 0.929 . S
N86 C106 1.433 . S
N86 C112 1.435 . S
N86 C118 1.423 . S
H87 C123 0.932 . S
C88 N63 1.433 . S
C88 C89 1.363 . S
C88 C93 1.370 . S
C89 H62 0.929 . S
C89 C88 1.363 . S
C89 C90 1.385 . S
C90 H64 0.930 . S
C90 C89 1.385 . S
C90 C91 1.357 . S
C91 C90 1.357 . S
C91 C92 1.406 . S
C92 H66 0.929 . S
C92 C91 1.406 . S
C92 C93 1.391 . S
C93 H65 0.931 . S
C93 C88 1.370 . S
C93 C92 1.391 . S
C94 N63 1.435 . S
C94 C95 1.358 . S
C94 C99 1.371 . S
C95 H67 0.930 . S
C95 C94 1.358 . S
C95 C96 1.405 . S
C96 H68 0.932 . S
C96 C95 1.405 . S
C96 C97 1.383 . S
C97 C96 1.383 . S
C97 C98 1.393 . S
C98 H70 0.931 . S
C98 C97 1.393 . S
C98 C99 1.382 . S
C99 H69 0.929 . S
C99 C94 1.371 . S
C99 C98 1.382 . S
C100 N63 1.423 . S
C100 C101 1.362 . S
C100 C105 1.388 . S
C101 H71 0.929 . S
C101 C100 1.362 . S
C101 C102 1.376 1_655 S
C102 H73 0.931 . S
C102 C101 1.376 1_455 S
C102 C103 1.396 . S
C103 C102 1.396 . S
C103 C104 1.348 1_455 S
C103 C121 1.472 . S
C104 H74 0.929 . S
C104 C103 1.348 1_655 S
C104 C105 1.443 . S
C105 H72 0.932 . S
C105 C100 1.388 . S
C105 C104 1.443 . S
C106 N86 1.433 . S
C106 C107 1.363 . S
C106 C111 1.370 . S
C107 H75 0.929 . S
C107 C106 1.363 . S
C107 C108 1.385 . S
C108 H76 0.930 . S
C108 C107 1.385 . S
C108 C109 1.357 . S
C109 C108 1.357 . S
C109 C110 1.406 . S
C110 H77 0.929 . S
C110 C109 1.406 . S
C110 C111 1.391 . S
C111 H78 0.931 . S
C111 C106 1.370 . S
C111 C110 1.391 . S
C112 N86 1.435 . S
C112 C113 1.358 . S
C112 C117 1.371 . S
C113 H79 0.930 . S
C113 C112 1.358 . S
C113 C114 1.405 . S
C114 H80 0.932 . S
C114 C113 1.405 . S
C114 C115 1.383 . S
C115 C114 1.383 . S
C115 C116 1.393 . S
C116 H81 0.931 . S
C116 C115 1.393 . S
C116 C117 1.382 . S
C117 H82 0.929 . S
C117 C112 1.371 . S
C117 C116 1.382 . S
C118 N86 1.423 . S
C118 C119 1.362 . S
C118 C123 1.388 . S
C119 H83 0.929 . S
C119 C118 1.362 . S
C119 C120 1.376 . S
C120 H84 0.931 . S
C120 C119 1.376 . S
C120 C121 1.396 . S
C121 C103 1.472 . S
C121 C120 1.396 . S
C121 C122 1.348 . S
C122 H85 0.929 . S
C122 C121 1.348 . S
C122 C123 1.443 . S
C123 H87 0.932 . S
C123 C118 1.388 . S
C123 C122 1.443 . S
H124 C151 0.929 . S
N125 C150 1.433 . S
N125 C156 1.435 . S
N125 C162 1.423 . S
H126 C152 0.930 . S
H127 C155 0.931 . S
H128 C154 0.929 . S
H129 C157 0.930 . S
H130 C158 0.932 . S
H131 C161 0.929 . S
H132 C160 0.931 . S
H133 C163 0.929 . S
H134 C167 0.932 . S
H135 C164 0.931 . S
H136 C166 0.929 . S
H137 C169 0.929 . S
H138 C170 0.930 . S
H139 C172 0.929 . S
H140 C173 0.931 . S
H141 C175 0.930 . S
H142 C176 0.932 . S
H143 C178 0.931 . S
H144 C179 0.929 . S
H145 C181 0.929 . S
H146 C182 0.931 . S
H147 C184 0.929 . S
N148 C168 1.433 . S
N148 C174 1.435 . S
N148 C180 1.423 . S
H149 C185 0.932 . S
C150 N125 1.433 . S
C150 C151 1.363 . S
C150 C155 1.370 . S
C151 H124 0.929 . S
C151 C150 1.363 . S
C151 C152 1.385 . S
C152 H126 0.930 . S
C152 C151 1.385 . S
C152 C153 1.357 . S
C153 C152 1.357 . S
C153 C154 1.406 . S
C154 H128 0.929 . S
C154 C153 1.406 . S
C154 C155 1.391 . S
C155 H127 0.931 . S
C155 C150 1.370 . S
C155 C154 1.391 . S
C156 N125 1.435 . S
C156 C157 1.358 . S
C156 C161 1.371 . S
C157 H129 0.930 . S
C157 C156 1.358 . S
C157 C158 1.405 . S
C158 H130 0.932 . S
C158 C157 1.405 . S
C158 C159 1.383 . S
C159 C158 1.383 . S
C159 C160 1.393 . S
C160 H132 0.931 . S
C160 C159 1.393 . S
C160 C161 1.382 . S
C161 H131 0.929 . S
C161 C156 1.371 . S
C161 C160 1.382 . S
C162 N125 1.423 . S
C162 C163 1.362 . S
C162 C167 1.388 . S
C163 H133 0.929 . S
C163 C162 1.362 . S
C163 C164 1.376 . S
C164 H135 0.931 . S
C164 C163 1.376 . S
C164 C165 1.396 . S
C165 C164 1.396 . S
C165 C166 1.348 . S
C165 C183 1.472 . S
C166 H136 0.929 . S
C166 C165 1.348 . S
C166 C167 1.443 . S
C167 H134 0.932 . S
C167 C162 1.388 . S
C167 C166 1.443 . S
C168 N148 1.433 . S
C168 C169 1.363 . S
C168 C173 1.370 . S
C169 H137 0.929 . S
C169 C168 1.363 . S
C169 C170 1.385 . S
C170 H138 0.930 . S
C170 C169 1.385 . S
C170 C171 1.357 . S
C171 C170 1.357 . S
C171 C172 1.406 . S
C172 H139 0.929 . S
C172 C171 1.406 . S
C172 C173 1.391 . S
C173 H140 0.931 . S
C173 C168 1.370 . S
C173 C172 1.391 . S
C174 N148 1.435 . S
C174 C175 1.358 . S
C174 C179 1.371 . S
C175 H141 0.930 . S
C175 C174 1.358 . S
C175 C176 1.405 . S
C176 H142 0.932 . S
C176 C175 1.405 . S
C176 C177 1.383 . S
C177 C176 1.383 . S
C177 C178 1.393 . S
C178 H143 0.931 . S
C178 C177 1.393 . S
C178 C179 1.382 . S
C179 H144 0.929 . S
C179 C174 1.371 . S
C179 C178 1.382 . S
C180 N148 1.423 . S
C180 C181 1.362 . S
C180 C185 1.388 . S
C181 H145 0.929 . S
C181 C180 1.362 . S
C181 C182 1.376 . S
C182 H146 0.931 . S
C182 C181 1.376 . S
C182 C183 1.396 . S
C183 C165 1.472 . S
C183 C182 1.396 . S
C183 C184 1.348 . S
C184 H147 0.929 . S
C184 C183 1.348 . S
C184 C185 1.443 . S
C185 H149 0.932 . S
C185 C180 1.388 . S
C185 C184 1.443 . S
H186 C213 0.929 . S
N187 C212 1.433 . S
N187 C218 1.435 . S
N187 C224 1.423 . S
H188 C214 0.930 . S
H189 C217 0.931 . S
H190 C216 0.929 . S
H191 C219 0.930 . S
H192 C220 0.932 . S
H193 C223 0.929 . S
H194 C222 0.931 . S
H195 C225 0.929 . S
H196 C229 0.932 . S
H197 C226 0.931 . S
H198 C228 0.929 . S
H199 C231 0.929 . S
H200 C232 0.930 . S
H201 C234 0.929 . S
H202 C235 0.931 . S
H203 C237 0.930 . S
H204 C238 0.932 . S
H205 C240 0.931 . S
H206 C241 0.929 . S
H207 C243 0.929 . S
H208 C244 0.931 1_565 S
H209 C246 0.929 . S
N210 C230 1.433 . S
N210 C236 1.435 . S
N210 C242 1.423 . S
H211 C247 0.932 . S
C212 N187 1.433 . S
C212 C213 1.363 . S
C212 C217 1.370 . S
C213 H186 0.929 . S
C213 C212 1.363 . S
C213 C214 1.385 . S
C214 H188 0.930 . S
C214 C213 1.385 . S
C214 C215 1.357 . S
C215 C214 1.357 . S
C215 C216 1.406 . S
C216 H190 0.929 . S
C216 C215 1.406 . S
C216 C217 1.391 . S
C217 H189 0.931 . S
C217 C212 1.370 . S
C217 C216 1.391 . S
C218 N187 1.435 . S
C218 C219 1.358 . S
C218 C223 1.371 . S
C219 H191 0.930 . S
C219 C218 1.358 . S
C219 C220 1.405 . S
C220 H192 0.932 . S
C220 C219 1.405 . S
C220 C221 1.383 . S
C221 C220 1.383 . S
C221 C222 1.393 . S
C222 H194 0.931 . S
C222 C221 1.393 . S
C222 C223 1.382 . S
C223 H193 0.929 . S
C223 C218 1.371 . S
C223 C222 1.382 . S
C224 N187 1.423 . S
C224 C225 1.362 . S
C224 C229 1.388 . S
C225 H195 0.929 . S
C225 C224 1.362 . S
C225 C226 1.376 . S
C226 H197 0.931 . S
C226 C225 1.376 . S
C226 C227 1.396 . S
C227 C226 1.396 . S
C227 C228 1.348 . S
C227 C245 1.445 1_565 S
C228 H198 0.929 . S
C228 C227 1.348 . S
C228 C229 1.443 . S
C229 H196 0.932 . S
C229 C224 1.388 . S
C229 C228 1.443 . S
C230 N210 1.433 . S
C230 C231 1.363 . S
C230 C235 1.370 . S
C231 H199 0.929 . S
C231 C230 1.363 . S
C231 C232 1.385 . S
C232 H200 0.930 . S
C232 C231 1.385 . S
C232 C233 1.357 . S
C233 C232 1.357 . S
C233 C234 1.406 . S
C234 H201 0.929 . S
C234 C233 1.406 . S
C234 C235 1.391 . S
C235 H202 0.931 . S
C235 C230 1.370 . S
C235 C234 1.391 . S
C236 N210 1.435 . S
C236 C237 1.358 . S
C236 C241 1.371 . S
C237 H203 0.930 . S
C237 C236 1.358 . S
C237 C238 1.405 . S
C238 H204 0.932 . S
C238 C237 1.405 . S
C238 C239 1.383 . S
C239 C238 1.383 . S
C239 C240 1.393 . S
C240 H205 0.931 . S
C240 C239 1.393 . S
C240 C241 1.382 . S
C241 H206 0.929 . S
C241 C236 1.371 . S
C241 C240 1.382 . S
C242 N210 1.423 . S
C242 C243 1.362 . S
C242 C247 1.388 . S
C243 H207 0.929 . S
C243 C242 1.362 . S
C243 C244 1.376 . S
C244 H208 0.931 1_545 S
C244 C243 1.376 . S
C244 C245 1.400 . S
C245 C227 1.445 1_545 S
C245 C244 1.400 . S
C245 C246 1.374 . S
C246 H209 0.929 . S
C246 C245 1.374 . S
C246 C247 1.443 . S
C247 H211 0.932 . S
C247 C242 1.388 . S
C247 C246 1.443 . S
H248 C275 0.929 . S
N249 C274 1.433 . S
N249 C280 1.435 . S
N249 C286 1.423 . S
H250 C276 0.930 . S
H251 C279 0.931 . S
H252 C278 0.929 . S
H253 C281 0.930 . S
H254 C282 0.932 . S
H255 C285 0.929 . S
H256 C284 0.931 . S
H257 C287 0.929 . S
H258 C291 0.932 . S
H259 C288 0.931 . S
H260 C290 0.929 . S
H261 C293 0.929 . S
H262 C294 0.930 . S
H263 C296 0.929 . S
H264 C297 0.931 . S
H265 C299 0.930 . S
H266 C300 0.932 . S
H267 C302 0.931 . S
H268 C303 0.929 . S
H269 C305 0.929 . S
H270 C306 0.931 1_455 S
H271 C308 0.929 . S
N272 C292 1.433 . S
N272 C298 1.435 . S
N272 C304 1.423 . S
H273 C309 0.932 . S
C274 N249 1.433 . S
C274 C275 1.363 . S
C274 C279 1.370 . S
C275 H248 0.929 . S
C275 C274 1.363 . S
C275 C276 1.385 . S
C276 H250 0.930 . S
C276 C275 1.385 . S
C276 C277 1.357 . S
C277 C276 1.357 . S
C277 C278 1.406 . S
C278 H252 0.929 . S
C278 C277 1.406 . S
C278 C279 1.391 . S
C279 H251 0.931 . S
C279 C274 1.370 . S
C279 C278 1.391 . S
C280 N249 1.435 . S
C280 C281 1.358 . S
C280 C285 1.371 . S
C281 H253 0.930 . S
C281 C280 1.358 . S
C281 C282 1.405 . S
C282 H254 0.932 . S
C282 C281 1.405 . S
C282 C283 1.383 . S
C283 C282 1.383 . S
C283 C284 1.393 . S
C284 H256 0.931 . S
C284 C283 1.393 . S
C284 C285 1.382 . S
C285 H255 0.929 . S
C285 C280 1.371 . S
C285 C284 1.382 . S
C286 N249 1.423 . S
C286 C287 1.362 . S
C286 C291 1.388 . S
C287 H257 0.929 . S
C287 C286 1.362 . S
C287 C288 1.376 . S
C288 H259 0.931 . S
C288 C287 1.376 . S
C288 C289 1.396 . S
C289 C288 1.396 . S
C289 C290 1.348 . S
C289 C307 1.509 . S
C290 H260 0.929 . S
C290 C289 1.348 . S
C290 C291 1.443 . S
C291 H258 0.932 . S
C291 C286 1.388 . S
C291 C290 1.443 . S
C292 N272 1.433 . S
C292 C293 1.363 . S
C292 C297 1.370 . S
C293 H261 0.929 . S
C293 C292 1.363 . S
C293 C294 1.385 . S
C294 H262 0.930 . S
C294 C293 1.385 . S
C294 C295 1.357 . S
C295 C294 1.357 . S
C295 C296 1.406 . S
C296 H263 0.929 . S
C296 C295 1.406 . S
C296 C297 1.391 . S
C297 H264 0.931 . S
C297 C292 1.370 . S
C297 C296 1.391 . S
C298 N272 1.435 . S
C298 C299 1.358 . S
C298 C303 1.371 . S
C299 H265 0.930 . S
C299 C298 1.358 . S
C299 C300 1.405 . S
C300 H266 0.932 . S
C300 C299 1.405 . S
C300 C301 1.383 . S
C301 C300 1.383 . S
C301 C302 1.393 . S
C302 H267 0.931 . S
C302 C301 1.393 . S
C302 C303 1.382 . S
C303 H268 0.929 . S
C303 C298 1.371 . S
C303 C302 1.382 . S
C304 N272 1.423 . S
C304 C305 1.362 . S
C304 C309 1.388 . S
C305 H269 0.929 . S
C305 C304 1.362 . S
C305 C306 1.376 . S
C306 H270 0.931 1_655 S
C306 C305 1.376 . S
C306 C307 1.392 1_655 S
C307 C289 1.509 . S
C307 C306 1.392 1_455 S
C307 C308 1.313 1_455 S
C308 H271 0.929 . S
C308 C307 1.313 1_655 S
C308 C309 1.443 . S
C309 H273 0.932 . S
C309 C304 1.388 . S
C309 C308 1.443 . S
H310 C337 0.929 . S
N311 C336 1.433 . S
N311 C342 1.435 . S
N311 C348 1.423 . S
H312 C338 0.930 . S
H313 C341 0.931 . S
H314 C340 0.929 . S
H315 C343 0.930 . S
H316 C344 0.932 . S
H317 C347 0.929 . S
H318 C346 0.931 . S
H319 C349 0.929 . S
H320 C353 0.932 . S
H321 C350 0.931 . S
H322 C352 0.929 . S
H323 C355 0.929 . S
H324 C356 0.930 . S
H325 C358 0.929 . S
H326 C359 0.931 . S
H327 C361 0.930 . S
H328 C362 0.932 . S
H329 C364 0.931 . S
H330 C365 0.929 . S
H331 C367 0.929 . S
H332 C368 0.931 . S
H333 C370 0.929 . S
N334 C354 1.433 . S
N334 C360 1.435 . S
N334 C366 1.423 . S
H335 C371 0.932 . S
C336 N311 1.433 . S
C336 C337 1.363 . S
C336 C341 1.370 . S
C337 H310 0.929 . S
C337 C336 1.363 . S
C337 C338 1.385 . S
C338 H312 0.930 . S
C338 C337 1.385 . S
C338 C339 1.357 . S
C339 C338 1.357 . S
C339 C340 1.406 . S
C340 H314 0.929 . S
C340 C339 1.406 . S
C340 C341 1.391 . S
C341 H313 0.931 . S
C341 C336 1.370 . S
C341 C340 1.391 . S
C342 N311 1.435 . S
C342 C343 1.358 . S
C342 C347 1.371 . S
C343 H315 0.930 . S
C343 C342 1.358 . S
C343 C344 1.405 . S
C344 H316 0.932 . S
C344 C343 1.405 . S
C344 C345 1.383 . S
C345 C344 1.383 . S
C345 C346 1.393 . S
C346 H318 0.931 . S
C346 C345 1.393 . S
C346 C347 1.382 . S
C347 H317 0.929 . S
C347 C342 1.371 . S
C347 C346 1.382 . S
C348 N311 1.423 . S
C348 C349 1.362 . S
C348 C353 1.388 . S
C349 H319 0.929 . S
C349 C348 1.362 . S
C349 C350 1.376 . S
C350 H321 0.931 . S
C350 C349 1.376 . S
C350 C351 1.396 . S
C351 C350 1.396 . S
C351 C352 1.348 . S
C351 C369 1.472 . S
C352 H322 0.929 . S
C352 C351 1.348 . S
C352 C353 1.443 . S
C353 H320 0.932 . S
C353 C348 1.388 . S
C353 C352 1.443 . S
C354 N334 1.433 . S
C354 C355 1.363 . S
C354 C359 1.370 . S
C355 H323 0.929 . S
C355 C354 1.363 . S
C355 C356 1.385 . S
C356 H324 0.930 . S
C356 C355 1.385 . S
C356 C357 1.357 . S
C357 C356 1.357 . S
C357 C358 1.406 . S
C358 H325 0.929 . S
C358 C357 1.406 . S
C358 C359 1.391 . S
C359 H326 0.931 . S
C359 C354 1.370 . S
C359 C358 1.391 . S
C360 N334 1.435 . S
C360 C361 1.358 . S
C360 C365 1.371 . S
C361 H327 0.930 . S
C361 C360 1.358 . S
C361 C362 1.405 . S
C362 H328 0.932 . S
C362 C361 1.405 . S
C362 C363 1.383 . S
C363 C362 1.383 . S
C363 C364 1.393 . S
C364 H329 0.931 . S
C364 C363 1.393 . S
C364 C365 1.382 . S
C365 H330 0.929 . S
C365 C360 1.371 . S
C365 C364 1.382 . S
C366 N334 1.423 . S
C366 C367 1.362 . S
C366 C371 1.388 . S
C367 H331 0.929 . S
C367 C366 1.362 . S
C367 C368 1.376 . S
C368 H332 0.931 . S
C368 C367 1.376 . S
C368 C369 1.396 . S
C369 C351 1.472 . S
C369 C368 1.396 . S
C369 C370 1.348 . S
C370 H333 0.929 . S
C370 C369 1.348 . S
C370 C371 1.443 . S
C371 H335 0.932 . S
C371 C366 1.388 . S
C371 C370 1.443 . S
H372 C399 0.929 . S
N373 C398 1.433 . S
N373 C404 1.435 . S
N373 C410 1.423 . S
H374 C400 0.930 . S
H375 C403 0.931 . S
H376 C402 0.929 . S
H377 C405 0.930 . S
H378 C406 0.932 . S
H379 C409 0.929 . S
H380 C408 0.931 . S
H381 C411 0.929 . S
H382 C415 0.932 . S
H383 C412 0.931 . S
H384 C414 0.929 . S
H385 C417 0.929 . S
H386 C418 0.930 . S
H387 C420 0.929 . S
H388 C421 0.931 . S
H389 C423 0.930 . S
H390 C424 0.932 . S
H391 C426 0.931 . S
H392 C427 0.929 . S
H393 C429 0.929 . S
H394 C430 0.931 . S
H395 C432 0.929 . S
N396 C416 1.433 . S
N396 C422 1.435 . S
N396 C428 1.423 . S
H397 C433 0.932 . S
C398 N373 1.433 . S
C398 C399 1.363 . S
C398 C403 1.370 . S
C399 H372 0.929 . S
C399 C398 1.363 . S
C399 C400 1.385 . S
C400 H374 0.930 . S
C400 C399 1.385 . S
C400 C401 1.357 . S
C401 C400 1.357 . S
C401 C402 1.406 . S
C402 H376 0.929 . S
C402 C401 1.406 . S
C402 C403 1.391 . S
C403 H375 0.931 . S
C403 C398 1.370 . S
C403 C402 1.391 . S
C404 N373 1.435 . S
C404 C405 1.358 . S
C404 C409 1.371 . S
C405 H377 0.930 . S
C405 C404 1.358 . S
C405 C406 1.405 . S
C406 H378 0.932 . S
C406 C405 1.405 . S
C406 C407 1.383 . S
C407 C406 1.383 . S
C407 C408 1.393 . S
C408 H380 0.931 . S
C408 C407 1.393 . S
C408 C409 1.382 . S
C409 H379 0.929 . S
C409 C404 1.371 . S
C409 C408 1.382 . S
C410 N373 1.423 . S
C410 C411 1.362 . S
C410 C415 1.388 . S
C411 H381 0.929 . S
C411 C410 1.362 . S
C411 C412 1.376 1_565 S
C412 H383 0.931 . S
C412 C411 1.376 1_545 S
C412 C413 1.396 . S
C413 C412 1.396 . S
C413 C414 1.348 1_545 S
C413 C431 1.472 . S
C414 H384 0.929 . S
C414 C413 1.348 1_565 S
C414 C415 1.443 . S
C415 H382 0.932 . S
C415 C410 1.388 . S
C415 C414 1.443 . S
C416 N396 1.433 . S
C416 C417 1.363 . S
C416 C421 1.370 . S
C417 H385 0.929 . S
C417 C416 1.363 . S
C417 C418 1.385 . S
C418 H386 0.930 . S
C418 C417 1.385 . S
C418 C419 1.357 . S
C419 C418 1.357 . S
C419 C420 1.406 . S
C420 H387 0.929 . S
C420 C419 1.406 . S
C420 C421 1.391 . S
C421 H388 0.931 . S
C421 C416 1.370 . S
C421 C420 1.391 . S
C422 N396 1.435 . S
C422 C423 1.358 . S
C422 C427 1.371 . S
C423 H389 0.930 . S
C423 C422 1.358 . S
C423 C424 1.405 . S
C424 H390 0.932 . S
C424 C423 1.405 . S
C424 C425 1.383 . S
C425 C424 1.383 . S
C425 C426 1.393 . S
C426 H391 0.931 . S
C426 C425 1.393 . S
C426 C427 1.382 . S
C427 H392 0.929 . S
C427 C422 1.371 . S
C427 C426 1.382 . S
C428 N396 1.423 . S
C428 C429 1.362 . S
C428 C433 1.388 . S
C429 H393 0.929 . S
C429 C428 1.362 . S
C429 C430 1.376 . S
C430 H394 0.931 . S
C430 C429 1.376 . S
C430 C431 1.396 . S
C431 C413 1.472 . S
C431 C430 1.396 . S
C431 C432 1.348 . S
C432 H395 0.929 . S
C432 C431 1.348 . S
C432 C433 1.443 . S
C433 H397 0.932 . S
C433 C428 1.388 . S
C433 C432 1.443 . S
H434 C461 0.929 . S
N435 C460 1.433 . S
N435 C466 1.435 . S
N435 C472 1.423 . S
H436 C462 0.930 . S
H437 C465 0.931 . S
H438 C464 0.929 . S
H439 C467 0.930 . S
H440 C468 0.932 . S
H441 C471 0.929 . S
H442 C470 0.931 . S
H443 C473 0.929 . S
H444 C477 0.932 . S
H445 C474 0.931 . S
H446 C476 0.929 . S
H447 C479 0.929 . S
H448 C480 0.930 . S
H449 C482 0.929 . S
H450 C483 0.931 . S
H451 C485 0.930 . S
H452 C486 0.932 . S
H453 C488 0.931 . S
H454 C489 0.929 . S
H455 C491 0.929 . S
H456 C492 0.931 1_565 S
H457 C494 0.929 . S
N458 C478 1.433 . S
N458 C484 1.435 . S
N458 C490 1.423 . S
H459 C495 0.932 . S
C460 N435 1.433 . S
C460 C461 1.363 . S
C460 C465 1.370 . S
C461 H434 0.929 . S
C461 C460 1.363 . S
C461 C462 1.385 . S
C462 H436 0.930 . S
C462 C461 1.385 . S
C462 C463 1.357 . S
C463 C462 1.357 . S
C463 C464 1.406 . S
C464 H438 0.929 . S
C464 C463 1.406 . S
C464 C465 1.391 . S
C465 H437 0.931 . S
C465 C460 1.370 . S
C465 C464 1.391 . S
C466 N435 1.435 . S
C466 C467 1.358 . S
C466 C471 1.371 . S
C467 H439 0.930 . S
C467 C466 1.358 . S
C467 C468 1.405 . S
C468 H440 0.932 . S
C468 C467 1.405 . S
C468 C469 1.383 . S
C469 C468 1.383 . S
C469 C470 1.393 . S
C470 H442 0.931 . S
C470 C469 1.393 . S
C470 C471 1.382 . S
C471 H441 0.929 . S
C471 C466 1.371 . S
C471 C470 1.382 . S
C472 N435 1.423 . S
C472 C473 1.362 . S
C472 C477 1.388 . S
C473 H443 0.929 . S
C473 C472 1.362 . S
C473 C474 1.376 1_455 S
C474 H445 0.931 . S
C474 C473 1.376 1_655 S
C474 C475 1.396 . S
C475 C474 1.396 . S
C475 C476 1.348 1_655 S
C475 C493 1.474 1_565 S
C476 H446 0.929 . S
C476 C475 1.348 1_455 S
C476 C477 1.443 . S
C477 H444 0.932 . S
C477 C472 1.388 . S
C477 C476 1.443 . S
C478 N458 1.433 . S
C478 C479 1.363 . S
C478 C483 1.370 . S
C479 H447 0.929 . S
C479 C478 1.363 . S
C479 C480 1.385 . S
C480 H448 0.930 . S
C480 C479 1.385 . S
C480 C481 1.357 . S
C481 C480 1.357 . S
C481 C482 1.406 . S
C482 H449 0.929 . S
C482 C481 1.406 . S
C482 C483 1.391 . S
C483 H450 0.931 . S
C483 C478 1.370 . S
C483 C482 1.391 . S
C484 N458 1.435 . S
C484 C485 1.358 . S
C484 C489 1.371 . S
C485 H451 0.930 . S
C485 C484 1.358 . S
C485 C486 1.405 . S
C486 H452 0.932 . S
C486 C485 1.405 . S
C486 C487 1.383 . S
C487 C486 1.383 . S
C487 C488 1.393 . S
C488 H453 0.931 . S
C488 C487 1.393 . S
C488 C489 1.382 . S
C489 H454 0.929 . S
C489 C484 1.371 . S
C489 C488 1.382 . S
C490 N458 1.423 . S
C490 C491 1.362 . S
C490 C495 1.388 . S
C491 H455 0.929 . S
C491 C490 1.362 . S
C491 C492 1.376 . S
C492 H456 0.931 1_545 S
C492 C491 1.376 . S
C492 C493 1.396 . S
C493 C475 1.474 1_545 S
C493 C492 1.396 . S
C493 C494 1.346 . S
C494 H457 0.929 . S
C494 C493 1.346 . S
C494 C495 1.443 . S
C495 H459 0.932 . S
C495 C490 1.388 . S
C495 C494 1.443 . S
In496 O497 2.294 . S
In496 O498 2.326 . S
In496 O502 2.266 1_554 S
In496 O503 2.326 1_554 S
In496 O504 2.266 1_554 S
In496 O505 2.326 1_554 S
In496 O507 2.294 . S
In496 O508 2.326 . S
O497 In496 2.294 . S
O497 C506 1.240 . S
O498 In496 2.326 . S
O498 C506 1.252 . S
C499 O502 1.252 . S
C499 O503 1.260 . S
C500 O507 1.240 . S
C500 O508 1.252 . S
C501 O504 1.252 . S
C501 O505 1.260 . S
O502 In496 2.266 1_556 S
O502 C499 1.252 . S
O503 In496 2.326 1_556 S
O503 C499 1.260 . S
O504 In496 2.266 1_556 S
O504 C501 1.252 . S
O505 In496 2.326 1_556 S
O505 C501 1.260 . S
C506 O497 1.240 . S
C506 O498 1.252 . S
O507 In496 2.294 . S
O507 C500 1.240 . S
O508 In496 2.326 . S
O508 C500 1.252 . S
In509 O510 2.294 . S
In509 O511 2.326 . S
In509 O515 2.266 . S
In509 O516 2.326 . S
In509 O517 2.266 . S
In509 O518 2.326 . S
In509 O520 2.294 . S
In509 O521 2.326 . S
O510 In509 2.294 . S
O510 C519 1.240 . S
O511 In509 2.326 . S
O511 C519 1.252 . S
C512 O515 1.252 . S
C512 O516 1.260 . S
C513 O520 1.240 . S
C513 O521 1.252 . S
C514 O517 1.252 . S
C514 O518 1.260 . S
O515 In509 2.266 . S
O515 C512 1.252 . S
O516 In509 2.326 . S
O516 C512 1.260 . S
O517 In509 2.266 . S
O517 C514 1.252 . S
O518 In509 2.326 . S
O518 C514 1.260 . S
C519 O510 1.240 . S
C519 O511 1.252 . S
O520 In509 2.294 . S
O520 C513 1.240 . S
O521 In509 2.326 . S
O521 C513 1.252 . S
In522 O523 2.294 . S
In522 O524 2.326 . S
In522 O528 2.266 . S
In522 O529 2.326 . S
In522 O530 2.266 . S
In522 O531 2.326 . S
In522 O533 2.294 . S
In522 O534 2.326 . S
O523 In522 2.294 . S
O523 C532 1.240 . S
O524 In522 2.326 . S
O524 C532 1.252 . S
C525 O528 1.252 . S
C525 O529 1.260 . S
C526 O533 1.240 . S
C526 O534 1.252 . S
C527 O530 1.252 . S
C527 O531 1.260 . S
O528 In522 2.266 . S
O528 C525 1.252 . S
O529 In522 2.326 . S
O529 C525 1.260 . S
O530 In522 2.266 . S
O530 C527 1.252 . S
O531 In522 2.326 . S
O531 C527 1.260 . S
C532 O523 1.240 . S
C532 O524 1.252 . S
O533 In522 2.294 . S
O533 C526 1.240 . S
O534 In522 2.326 . S
O534 C526 1.252 . S
In535 O536 2.294 . S
In535 O537 2.326 . S
In535 O541 2.266 . S
In535 O542 2.326 . S
In535 O543 2.266 . S
In535 O544 2.326 . S
In535 O546 2.294 . S
In535 O547 2.326 . S
O536 In535 2.294 . S
O536 C545 1.240 . S
O537 In535 2.326 . S
O537 C545 1.252 . S
C538 O541 1.252 . S
C538 O542 1.260 . S
C539 O546 1.240 . S
C539 O547 1.252 . S
C540 O543 1.252 . S
C540 O544 1.260 . S
O541 In535 2.266 . S
O541 C538 1.252 . S
O542 In535 2.326 . S
O542 C538 1.260 . S
O543 In535 2.266 . S
O543 C540 1.252 . S
O544 In535 2.326 . S
O544 C540 1.260 . S
C545 O536 1.240 . S
C545 O537 1.252 . S
O546 In535 2.294 . S
O546 C539 1.240 . S
O547 In535 2.326 . S
O547 C539 1.252 . S
In548 O549 2.294 . S
In548 O550 2.326 . S
In548 O554 2.266 . S
In548 O555 2.326 . S
In548 O556 2.266 . S
In548 O557 2.326 . S
In548 O559 2.294 . S
In548 O560 2.326 . S
O549 In548 2.294 . S
O549 C558 1.240 . S
O550 In548 2.326 . S
O550 C558 1.252 . S
C551 O554 1.252 . S
C551 O555 1.260 . S
C552 O559 1.240 . S
C552 O560 1.252 . S
C553 O556 1.252 . S
C553 O557 1.260 . S
O554 In548 2.266 . S
O554 C551 1.252 . S
O555 In548 2.326 . S
O555 C551 1.260 . S
O556 In548 2.266 . S
O556 C553 1.252 . S
O557 In548 2.326 . S
O557 C553 1.260 . S
C558 O549 1.240 . S
C558 O550 1.252 . S
O559 In548 2.294 . S
O559 C552 1.240 . S
O560 In548 2.326 . S
O560 C552 1.252 . S
In561 O562 2.294 . S
In561 O563 2.326 . S
In561 O567 2.266 . S
In561 O568 2.326 . S
In561 O569 2.266 . S
In561 O570 2.326 . S
In561 O572 2.294 . S
In561 O573 2.326 . S
O562 In561 2.294 . S
O562 C571 1.240 . S
O563 In561 2.326 . S
O563 C571 1.252 . S
C564 O567 1.252 . S
C564 O568 1.260 . S
C565 O572 1.240 . S
C565 O573 1.252 . S
C566 O569 1.252 . S
C566 O570 1.260 . S
O567 In561 2.266 . S
O567 C564 1.252 . S
O568 In561 2.326 . S
O568 C564 1.260 . S
O569 In561 2.266 . S
O569 C566 1.252 . S
O570 In561 2.326 . S
O570 C566 1.260 . S
C571 O562 1.240 . S
C571 O563 1.252 . S
O572 In561 2.294 . S
O572 C565 1.240 . S
O573 In561 2.326 . S
O573 C565 1.252 . S
In574 O575 2.294 . S
In574 O576 2.326 . S
In574 O580 2.266 1_554 S
In574 O581 2.326 1_554 S
In574 O582 2.266 1_554 S
In574 O583 2.326 1_554 S
In574 O585 2.294 . S
In574 O586 2.326 . S
O575 In574 2.294 . S
O575 C584 1.240 . S
O576 In574 2.326 . S
O576 C584 1.252 . S
C577 O580 1.252 . S
C577 O581 1.260 . S
C578 O585 1.240 . S
C578 O586 1.252 . S
C579 O582 1.252 . S
C579 O583 1.260 . S
O580 In574 2.266 1_556 S
O580 C577 1.252 . S
O581 In574 2.326 1_556 S
O581 C577 1.260 . S
O582 In574 2.266 1_556 S
O582 C579 1.252 . S
O583 In574 2.326 1_556 S
O583 C579 1.260 . S
C584 O575 1.240 . S
C584 O576 1.252 . S
O585 In574 2.294 . S
O585 C578 1.240 . S
O586 In574 2.326 . S
O586 C578 1.252 . S
In587 O588 2.294 . S
In587 O589 2.326 . S
In587 O593 2.266 . S
In587 O594 2.326 . S
In587 O595 2.266 . S
In587 O596 2.326 . S
In587 O598 2.294 . S
In587 O599 2.326 . S
O588 In587 2.294 . S
O588 C597 1.240 . S
O589 In587 2.326 . S
O589 C597 1.252 . S
C590 O593 1.252 . S
C590 O594 1.260 . S
C591 O598 1.240 . S
C591 O599 1.252 . S
C592 O595 1.252 . S
C592 O596 1.260 . S
O593 In587 2.266 . S
O593 C590 1.252 . S
O594 In587 2.326 . S
O594 C590 1.260 . S
O595 In587 2.266 . S
O595 C592 1.252 . S
O596 In587 2.326 . S
O596 C592 1.260 . S
C597 O588 1.240 . S
C597 O589 1.252 . S
O598 In587 2.294 . S
O598 C591 1.240 . S
O599 In587 2.326 . S
O599 C591 1.252 . S
H600 C608 0.950 . S
H601 C613 0.950 . S
H602 C610 0.950 . S
H603 C612 0.950 . S
H604 C614 0.950 . S
H605 C616 0.950 . S
H606 C618 0.950 . S
H607 C619 0.950 . S
C608 H600 0.950 . S
C608 C609 1.386 . S
C608 C610 1.391 . S
C609 C608 1.386 . S
C609 C613 1.393 . S
C610 H602 0.950 . S
C610 C608 1.391 . S
C610 C611 1.400 . S
C611 C610 1.400 . S
C611 C612 1.398 . S
C611 C617 1.491 . S
C612 H603 0.950 . S
C612 C611 1.398 . S
C612 C613 1.391 . S
C613 H601 0.950 . S
C613 C609 1.393 . S
C613 C612 1.391 . S
C614 H604 0.950 . S
C614 C615 1.386 . S
C614 C616 1.391 . S
C615 C614 1.386 . S
C615 C619 1.393 . S
C616 H605 0.950 . S
C616 C614 1.391 . S
C616 C617 1.400 . S
C617 C611 1.491 . S
C617 C616 1.400 . S
C617 C618 1.398 . S
C618 H606 0.950 . S
C618 C617 1.398 . S
C618 C619 1.391 . S
C619 H607 0.950 . S
C619 C615 1.393 . S
C619 C618 1.391 . S
H620 C628 0.950 . S
H621 C633 0.950 . S
H622 C630 0.950 . S
H623 C632 0.950 . S
H624 C634 0.950 . S
H625 C636 0.950 . S
H626 C638 0.950 . S
H627 C639 0.950 . S
C628 H620 0.950 . S
C628 C629 1.386 . S
C628 C630 1.391 . S
C629 C628 1.386 . S
C629 C633 1.393 . S
C630 H622 0.950 . S
C630 C628 1.391 . S
C630 C631 1.400 . S
C631 C630 1.400 . S
C631 C632 1.398 . S
C631 C637 1.491 . S
C632 H623 0.950 . S
C632 C631 1.398 . S
C632 C633 1.391 . S
C633 H621 0.950 . S
C633 C629 1.393 . S
C633 C632 1.391 . S
C634 H624 0.950 . S
C634 C635 1.386 . S
C634 C636 1.391 . S
C635 C634 1.386 . S
C635 C639 1.393 . S
C636 H625 0.950 . S
C636 C634 1.391 . S
C636 C637 1.400 . S
C637 C631 1.491 . S
C637 C636 1.400 . S
C637 C638 1.398 . S
C638 H626 0.950 . S
C638 C637 1.398 . S
C638 C639 1.391 . S
C639 H627 0.950 . S
C639 C635 1.393 . S
C639 C638 1.391 . S
H640 C648 0.950 . S
H641 C653 0.950 . S
H642 C650 0.950 . S
H643 C652 0.950 . S
H644 C654 0.950 . S
H645 C656 0.950 . S
H646 C658 0.950 . S
H647 C659 0.950 . S
C648 H640 0.950 . S
C648 C649 1.386 . S
C648 C650 1.391 . S
C649 C648 1.386 . S
C649 C653 1.393 . S
C650 H642 0.950 . S
C650 C648 1.391 . S
C650 C651 1.400 . S
C651 C650 1.400 . S
C651 C652 1.398 . S
C651 C657 1.491 . S
C652 H643 0.950 . S
C652 C651 1.398 . S
C652 C653 1.391 . S
C653 H641 0.950 . S
C653 C649 1.393 . S
C653 C652 1.391 . S
C654 H644 0.950 . S
C654 C655 1.386 . S
C654 C656 1.391 . S
C655 C654 1.386 . S
C655 C659 1.393 . S
C656 H645 0.950 . S
C656 C654 1.391 . S
C656 C657 1.400 . S
C657 C651 1.491 . S
C657 C656 1.400 . S
C657 C658 1.398 . S
C658 H646 0.950 . S
C658 C657 1.398 . S
C658 C659 1.391 . S
C659 H647 0.950 . S
C659 C655 1.393 . S
C659 C658 1.391 . S
H660 C668 0.950 . S
H661 C673 0.950 . S
H662 C670 0.950 . S
H663 C672 0.950 . S
H664 C674 0.950 . S
H665 C676 0.950 . S
H666 C678 0.950 1_556 S
H667 C679 0.950 1_556 S
C668 H660 0.950 . S
C668 C669 1.386 . S
C668 C670 1.391 . S
C669 C668 1.386 . S
C669 C673 1.393 . S
C670 H662 0.950 . S
C670 C668 1.391 . S
C670 C671 1.400 . S
C671 C670 1.400 . S
C671 C672 1.398 . S
C671 C677 1.491 . S
C672 H663 0.950 . S
C672 C671 1.398 . S
C672 C673 1.391 . S
C673 H661 0.950 . S
C673 C669 1.393 . S
C673 C672 1.391 . S
C674 H664 0.950 . S
C674 C675 1.386 . S
C674 C676 1.391 . S
C675 C674 1.386 . S
C675 C679 1.393 . S
C676 H665 0.950 . S
C676 C674 1.391 . S
C676 C677 1.400 . S
C677 C671 1.491 . S
C677 C676 1.400 . S
C677 C678 1.398 . S
C678 H666 0.950 1_554 S
C678 C677 1.398 . S
C678 C679 1.391 . S
C679 H667 0.950 1_554 S
C679 C675 1.393 . S
C679 C678 1.391 . S
H680 C688 0.950 . S
H681 C693 0.950 . S
H682 C690 0.950 1_554 S
H683 C692 0.950 . S
H684 C694 0.950 . S
H685 C696 0.950 . S
H686 C698 0.950 1_554 S
H687 C699 0.950 . S
C688 H680 0.950 . S
C688 C689 1.386 . S
C688 C690 1.391 . S
C689 C688 1.386 . S
C689 C693 1.393 . S
C690 H682 0.950 1_556 S
C690 C688 1.391 . S
C690 C691 1.400 . S
C691 C690 1.400 . S
C691 C692 1.398 . S
C691 C697 1.491 . S
C692 H683 0.950 . S
C692 C691 1.398 . S
C692 C693 1.391 . S
C693 H681 0.950 . S
C693 C689 1.393 . S
C693 C692 1.391 . S
C694 H684 0.950 . S
C694 C695 1.386 . S
C694 C696 1.391 . S
C695 C694 1.386 . S
C695 C699 1.393 1_556 S
C696 H685 0.950 . S
C696 C694 1.391 . S
C696 C697 1.400 . S
C697 C691 1.491 . S
C697 C696 1.400 . S
C697 C698 1.398 . S
C698 H686 0.950 1_556 S
C698 C697 1.398 . S
C698 C699 1.391 1_556 S
C699 H687 0.950 . S
C699 C695 1.393 1_554 S
C699 C698 1.391 1_554 S
H700 C708 0.950 . S
H701 C713 0.950 . S
H702 C710 0.950 . S
H703 C712 0.950 . S
H704 C714 0.950 . S
H705 C716 0.950 . S
H706 C718 0.950 . S
H707 C719 0.950 . S
C708 H700 0.950 . S
C708 C709 1.386 . S
C708 C710 1.391 . S
C709 C708 1.386 . S
C709 C713 1.393 . S
C710 H702 0.950 . S
C710 C708 1.391 . S
C710 C711 1.400 . S
C711 C710 1.400 . S
C711 C712 1.398 . S
C711 C717 1.491 . S
C712 H703 0.950 . S
C712 C711 1.398 . S
C712 C713 1.391 . S
C713 H701 0.950 . S
C713 C709 1.393 . S
C713 C712 1.391 . S
C714 H704 0.950 . S
C714 C715 1.386 . S
C714 C716 1.391 . S
C715 C714 1.386 . S
C715 C719 1.393 . S
C716 H705 0.950 . S
C716 C714 1.391 . S
C716 C717 1.400 . S
C717 C711 1.491 . S
C717 C716 1.400 . S
C717 C718 1.398 . S
C718 H706 0.950 . S
C718 C717 1.398 . S
C718 C719 1.391 . S
C719 H707 0.950 . S
C719 C715 1.393 . S
C719 C718 1.391 . S
H720 C728 0.950 . S
H721 C733 0.950 . S
H722 C730 0.950 . S
H723 C732 0.950 . S
H724 C734 0.950 . S
H725 C736 0.950 . S
H726 C738 0.950 . S
H727 C739 0.950 . S
C728 H720 0.950 . S
C728 C729 1.386 . S
C728 C730 1.391 . S
C729 C728 1.386 . S
C729 C733 1.393 . S
C730 H722 0.950 . S
C730 C728 1.391 . S
C730 C731 1.400 . S
C731 C730 1.400 . S
C731 C732 1.398 . S
C731 C737 1.491 . S
C732 H723 0.950 . S
C732 C731 1.398 . S
C732 C733 1.391 . S
C733 H721 0.950 . S
C733 C729 1.393 . S
C733 C732 1.391 . S
C734 H724 0.950 . S
C734 C735 1.386 . S
C734 C736 1.391 . S
C735 C734 1.386 . S
C735 C739 1.393 . S
C736 H725 0.950 . S
C736 C734 1.391 . S
C736 C737 1.400 . S
C737 C731 1.491 . S
C737 C736 1.400 . S
C737 C738 1.398 . S
C738 H726 0.950 . S
C738 C737 1.398 . S
C738 C739 1.391 . S
C739 H727 0.950 . S
C739 C735 1.393 . S
C739 C738 1.391 . S
H740 C748 0.950 . S
H741 C753 0.950 . S
H742 C750 0.950 . S
H743 C752 0.950 . S
H744 C754 0.950 . S
H745 C756 0.950 . S
H746 C758 0.950 . S
H747 C759 0.950 . S
C748 H740 0.950 . S
C748 C749 1.386 . S
C748 C750 1.391 . S
C749 C748 1.386 . S
C749 C753 1.393 . S
C750 H742 0.950 . S
C750 C748 1.391 . S
C750 C751 1.400 . S
C751 C750 1.400 . S
C751 C752 1.398 . S
C751 C757 1.491 . S
C752 H743 0.950 . S
C752 C751 1.398 . S
C752 C753 1.391 . S
C753 H741 0.950 . S
C753 C749 1.393 . S
C753 C752 1.391 . S
C754 H744 0.950 . S
C754 C755 1.386 . S
C754 C756 1.391 . S
C755 C754 1.386 . S
C755 C759 1.393 . S
C756 H745 0.950 . S
C756 C754 1.391 . S
C756 C757 1.400 . S
C757 C751 1.491 . S
C757 C756 1.400 . S
C757 C758 1.398 . S
C758 H746 0.950 . S
C758 C757 1.398 . S
C758 C759 1.391 . S
C759 H747 0.950 . S
C759 C755 1.393 . S
C759 C758 1.391 . S
H760 C768 0.950 . S
H761 C773 0.950 . S
H762 C770 0.950 . S
H763 C772 0.950 . S
H764 C774 0.950 . S
H765 C776 0.950 . S
H766 C778 0.950 . S
H767 C779 0.950 . S
C768 H760 0.950 . S
C768 C769 1.386 . S
C768 C770 1.391 . S
C769 C768 1.386 . S
C769 C773 1.393 . S
C770 H762 0.950 . S
C770 C768 1.391 . S
C770 C771 1.400 . S
C771 C770 1.400 . S
C771 C772 1.398 . S
C771 C777 1.491 . S
C772 H763 0.950 . S
C772 C771 1.398 . S
C772 C773 1.391 . S
C773 H761 0.950 . S
C773 C769 1.393 . S
C773 C772 1.391 . S
C774 H764 0.950 . S
C774 C775 1.386 . S
C774 C776 1.391 . S
C775 C774 1.386 . S
C775 C779 1.393 . S
C776 H765 0.950 . S
C776 C774 1.391 . S
C776 C777 1.400 . S
C777 C771 1.491 . S
C777 C776 1.400 . S
C777 C778 1.398 . S
C778 H766 0.950 . S
C778 C777 1.398 . S
C778 C779 1.391 . S
C779 H767 0.950 . S
C779 C775 1.393 . S
C779 C778 1.391 . S
H780 C788 0.950 . S
H781 C793 0.950 . S
H782 C790 0.950 . S
H783 C792 0.950 . S
H784 C794 0.950 . S
H785 C796 0.950 . S
H786 C798 0.950 . S
H787 C799 0.949 1_556 S
C788 H780 0.950 . S
C788 C789 1.386 . S
C788 C790 1.391 . S
C789 C788 1.386 . S
C789 C793 1.393 . S
C790 H782 0.950 . S
C790 C788 1.391 . S
C790 C791 1.400 . S
C791 C790 1.400 . S
C791 C792 1.398 . S
C791 C797 1.491 . S
C792 H783 0.950 . S
C792 C791 1.398 . S
C792 C793 1.391 . S
C793 H781 0.950 . S
C793 C789 1.393 . S
C793 C792 1.391 . S
C794 H784 0.950 . S
C794 C795 1.386 . S
C794 C796 1.391 . S
C795 C794 1.386 . S
C795 C799 1.393 . S
C796 H785 0.950 . S
C796 C794 1.391 . S
C796 C797 1.400 . S
C797 C791 1.491 . S
C797 C796 1.400 . S
C797 C798 1.398 . S
C798 H786 0.950 . S
C798 C797 1.398 . S
C798 C799 1.391 . S
C799 H787 0.949 1_554 S
C799 C795 1.393 . S
C799 C798 1.391 . S
H800 C808 0.950 . S
H801 C813 0.950 . S
H802 C810 0.950 . S
H803 C812 0.950 . S
H804 C814 0.950 . S
H805 C816 0.950 . S
H806 C818 0.950 . S
H807 C819 0.950 . S
C808 H800 0.950 . S
C808 C809 1.386 . S
C808 C810 1.391 . S
C809 C808 1.386 . S
C809 C813 1.393 . S
C810 H802 0.950 . S
C810 C808 1.391 . S
C810 C811 1.400 . S
C811 C810 1.400 . S
C811 C812 1.398 . S
C811 C817 1.491 . S
C812 H803 0.950 . S
C812 C811 1.398 . S
C812 C813 1.391 . S
C813 H801 0.950 . S
C813 C809 1.393 . S
C813 C812 1.391 . S
C814 H804 0.950 . S
C814 C815 1.386 . S
C814 C816 1.391 . S
C815 C814 1.386 . S
C815 C819 1.393 . S
C816 H805 0.950 . S
C816 C814 1.391 . S
C816 C817 1.400 . S
C817 C811 1.491 . S
C817 C816 1.400 . S
C817 C818 1.398 . S
C818 H806 0.950 . S
C818 C817 1.398 . S
C818 C819 1.391 . S
C819 H807 0.950 . S
C819 C815 1.393 . S
C819 C818 1.391 . S
H820 C828 0.950 . S
H821 C833 0.950 . S
H822 C830 0.950 . S
H823 C832 0.950 . S
H824 C834 0.950 . S
H825 C836 0.950 . S
H826 C838 0.950 . S
H827 C839 0.950 . S
C828 H820 0.950 . S
C828 C829 1.386 . S
C828 C830 1.391 . S
C829 C828 1.386 . S
C829 C833 1.393 . S
C830 H822 0.950 . S
C830 C828 1.391 . S
C830 C831 1.400 . S
C831 C830 1.400 . S
C831 C832 1.398 . S
C831 C837 1.491 . S
C832 H823 0.950 . S
C832 C831 1.398 . S
C832 C833 1.391 . S
C833 H821 0.950 . S
C833 C829 1.393 . S
C833 C832 1.391 . S
C834 H824 0.950 . S
C834 C835 1.386 . S
C834 C836 1.391 . S
C835 C834 1.386 . S
C835 C839 1.393 . S
C836 H825 0.950 . S
C836 C834 1.391 . S
C836 C837 1.400 . S
C837 C831 1.491 . S
C837 C836 1.400 . S
C837 C838 1.398 . S
C838 H826 0.950 . S
C838 C837 1.398 . S
C838 C839 1.391 . S
C839 H827 0.950 . S
C839 C835 1.393 . S
C839 C838 1.391 . S
H840 C848 0.950 . S
H841 C853 0.950 . S
H842 C850 0.950 . S
H843 C852 0.950 . S
H844 C854 0.950 . S
H845 C856 0.950 . S
H846 C858 0.950 . S
H847 C859 0.950 . S
C848 H840 0.950 . S
C848 C849 1.386 . S
C848 C850 1.391 . S
C849 C848 1.386 . S
C849 C853 1.393 . S
C850 H842 0.950 . S
C850 C848 1.391 . S
C850 C851 1.400 . S
C851 C850 1.400 . S
C851 C852 1.398 . S
C851 C857 1.491 . S
C852 H843 0.950 . S
C852 C851 1.398 . S
C852 C853 1.391 . S
C853 H841 0.950 . S
C853 C849 1.393 . S
C853 C852 1.391 . S
C854 H844 0.950 . S
C854 C855 1.386 . S
C854 C856 1.391 . S
C855 C854 1.386 . S
C855 C859 1.393 . S
C856 H845 0.950 . S
C856 C854 1.391 . S
C856 C857 1.400 . S
C857 C851 1.491 . S
C857 C856 1.400 . S
C857 C858 1.398 . S
C858 H846 0.950 . S
C858 C857 1.398 . S
C858 C859 1.391 . S
C859 H847 0.950 . S
C859 C855 1.393 . S
C859 C858 1.391 . S
H860 C868 0.950 . S
H861 C873 0.950 . S
H862 C870 0.950 . S
H863 C872 0.950 . S
H864 C874 0.950 . S
H865 C876 0.950 . S
H866 C878 0.950 . S
H867 C879 0.950 . S
C868 H860 0.950 . S
C868 C869 1.386 . S
C868 C870 1.391 . S
C869 C868 1.386 . S
C869 C873 1.393 . S
C870 H862 0.950 . S
C870 C868 1.391 . S
C870 C871 1.400 . S
C871 C870 1.400 . S
C871 C872 1.398 . S
C871 C877 1.491 . S
C872 H863 0.950 . S
C872 C871 1.398 . S
C872 C873 1.391 . S
C873 H861 0.950 . S
C873 C869 1.393 . S
C873 C872 1.391 . S
C874 H864 0.950 . S
C874 C875 1.386 . S
C874 C876 1.391 . S
C875 C874 1.386 . S
C875 C879 1.393 . S
C876 H865 0.950 . S
C876 C874 1.391 . S
C876 C877 1.400 . S
C877 C871 1.491 . S
C877 C876 1.400 . S
C877 C878 1.398 . S
C878 H866 0.950 . S
C878 C877 1.398 . S
C878 C879 1.391 . S
C879 H867 0.950 . S
C879 C875 1.393 . S
C879 C878 1.391 . S
H880 C888 0.950 . S
H881 C893 0.950 . S
H882 C890 0.950 . S
H883 C892 0.950 . S
H884 C894 0.950 . S
H885 C896 0.950 . S
H886 C898 0.918 1_554 S
H887 C899 0.950 1_554 S
C888 H880 0.950 . S
C888 C889 1.386 . S
C888 C890 1.391 . S
C889 C888 1.386 . S
C889 C893 1.393 . S
C890 H882 0.950 . S
C890 C888 1.391 . S
C890 C891 1.400 . S
C891 C890 1.400 . S
C891 C892 1.398 . S
C891 C897 1.491 . S
C892 H883 0.950 . S
C892 C891 1.398 . S
C892 C893 1.391 . S
C893 H881 0.950 . S
C893 C889 1.393 . S
C893 C892 1.391 . S
C894 H884 0.950 . S
C894 C895 1.386 . S
C894 C896 1.391 . S
C895 C894 1.386 . S
C895 C899 1.393 . S
C896 H885 0.950 . S
C896 C894 1.391 . S
C896 C897 1.400 . S
C897 C891 1.491 . S
C897 C896 1.400 . S
C897 C898 1.398 . S
C898 H886 0.918 1_556 S
C898 C897 1.398 . S
C898 C899 1.391 . S
C899 H887 0.950 1_556 S
C899 C895 1.393 . S
C899 C898 1.391 . S
H900 C908 0.950 . S
H901 C913 0.950 . S
H902 C910 0.950 . S
H903 C912 0.950 . S
H904 C914 0.950 . S
H905 C916 0.950 . S
H906 C918 0.950 . S
H907 C919 0.950 . S
C908 H900 0.950 . S
C908 C909 1.386 . S
C908 C910 1.391 . S
C909 C908 1.386 . S
C909 C913 1.393 . S
C910 H902 0.950 . S
C910 C908 1.391 . S
C910 C911 1.400 . S
C911 C910 1.400 . S
C911 C912 1.398 . S
C911 C917 1.491 . S
C912 H903 0.950 . S
C912 C911 1.398 . S
C912 C913 1.391 . S
C913 H901 0.950 . S
C913 C909 1.393 . S
C913 C912 1.391 . S
C914 H904 0.950 . S
C914 C915 1.386 . S
C914 C916 1.391 . S
C915 C914 1.386 . S
C915 C919 1.393 . S
C916 H905 0.950 . S
C916 C914 1.391 . S
C916 C917 1.400 . S
C917 C911 1.491 . S
C917 C916 1.400 . S
C917 C918 1.398 . S
C918 H906 0.950 . S
C918 C917 1.398 . S
C918 C919 1.391 . S
C919 H907 0.950 . S
C919 C915 1.393 . S
C919 C918 1.391 . S
H920 C928 0.950 . S
H921 C933 0.950 . S
H922 C930 0.950 . S
H923 C932 0.950 . S
H924 C934 0.950 . S
H925 C936 0.950 . S
H926 C938 0.950 . S
H927 C939 0.950 . S
C928 H920 0.950 . S
C928 C929 1.386 . S
C928 C930 1.391 . S
C929 C928 1.386 . S
C929 C933 1.393 . S
C930 H922 0.950 . S
C930 C928 1.391 . S
C930 C931 1.400 . S
C931 C930 1.400 . S
C931 C932 1.398 . S
C931 C937 1.491 . S
C932 H923 0.950 . S
C932 C931 1.398 . S
C932 C933 1.391 . S
C933 H921 0.950 . S
C933 C929 1.393 . S
C933 C932 1.391 . S
C934 H924 0.950 . S
C934 C935 1.386 . S
C934 C936 1.391 . S
C935 C934 1.386 . S
C935 C939 1.393 . S
C936 H925 0.950 . S
C936 C934 1.391 . S
C936 C937 1.400 . S
C937 C931 1.491 . S
C937 C936 1.400 . S
C937 C938 1.398 . S
C938 H926 0.950 . S
C938 C937 1.398 . S
C938 C939 1.391 . S
C939 H927 0.950 . S
C939 C935 1.393 . S
C939 C938 1.391 . S
H940 C948 0.950 . S
H941 C953 0.950 . S
H942 C950 0.950 . S
H943 C952 0.950 . S
H944 C954 0.950 . S
H945 C956 0.950 . S
H946 C958 0.950 . S
H947 C959 0.950 . S
C948 H940 0.950 . S
C948 C949 1.386 . S
C948 C950 1.391 . S
C949 C948 1.386 . S
C949 C953 1.393 . S
C950 H942 0.950 . S
C950 C948 1.391 . S
C950 C951 1.400 . S
C951 C950 1.400 . S
C951 C952 1.398 . S
C951 C957 1.491 . S
C952 H943 0.950 . S
C952 C951 1.398 . S
C952 C953 1.391 . S
C953 H941 0.950 . S
C953 C949 1.393 . S
C953 C952 1.391 . S
C954 H944 0.950 . S
C954 C955 1.386 . S
C954 C956 1.391 . S
C955 C954 1.386 . S
C955 C959 1.393 . S
C956 H945 0.950 . S
C956 C954 1.391 . S
C956 C957 1.400 . S
C957 C951 1.491 . S
C957 C956 1.400 . S
C957 C958 1.398 . S
C958 H946 0.950 . S
C958 C957 1.398 . S
C958 C959 1.391 . S
C959 H947 0.950 . S
C959 C955 1.393 . S
C959 C958 1.391 . S
H960 C968 0.950 . S
H961 C973 0.950 . S
H962 C970 0.950 . S
H963 C972 0.950 . S
H964 C974 0.950 . S
H965 C976 0.950 . S
H966 C978 0.950 . S
H967 C979 0.950 . S
C968 H960 0.950 . S
C968 C969 1.386 . S
C968 C970 1.391 . S
C969 C968 1.386 . S
C969 C973 1.393 . S
C970 H962 0.950 . S
C970 C968 1.391 . S
C970 C971 1.400 . S
C971 C970 1.400 . S
C971 C972 1.398 . S
C971 C977 1.491 . S
C972 H963 0.950 . S
C972 C971 1.398 . S
C972 C973 1.391 . S
C973 H961 0.950 . S
C973 C969 1.393 . S
C973 C972 1.391 . S
C974 H964 0.950 . S
C974 C975 1.386 . S
C974 C976 1.391 . S
C975 C974 1.386 . S
C975 C979 1.393 . S
C976 H965 0.950 . S
C976 C974 1.391 . S
C976 C977 1.400 . S
C977 C971 1.491 . S
C977 C976 1.400 . S
C977 C978 1.398 . S
C978 H966 0.950 . S
C978 C977 1.398 . S
C978 C979 1.391 . S
C979 H967 0.950 . S
C979 C975 1.393 . S
C979 C978 1.391 . S
H980 C988 0.950 . S
H981 C993 0.950 . S
H982 C990 0.950 . S
H983 C992 0.950 . S
H984 C994 0.950 . S
H985 C996 0.950 . S
H986 C998 0.950 . S
H987 C999 0.950 . S
C988 H980 0.950 . S
C988 C989 1.386 . S
C988 C990 1.391 . S
C989 C988 1.386 . S
C989 C993 1.393 . S
C990 H982 0.950 . S
C990 C988 1.391 . S
C990 C991 1.400 . S
C991 C990 1.400 . S
C991 C992 1.398 . S
C991 C997 1.491 . S
C992 H983 0.950 . S
C992 C991 1.398 . S
C992 C993 1.391 . S
C993 H981 0.950 . S
C993 C989 1.393 . S
C993 C992 1.391 . S
C994 H984 0.950 . S
C994 C995 1.386 . S
C994 C996 1.391 . S
C995 C994 1.386 . S
C995 C999 1.393 . S
C996 H985 0.950 . S
C996 C994 1.391 . S
C996 C997 1.400 . S
C997 C991 1.491 . S
C997 C996 1.400 . S
C997 C998 1.398 . S
C998 H986 0.950 . S
C998 C997 1.398 . S
C998 C999 1.391 . S
C999 H987 0.950 . S
C999 C995 1.393 . S
C999 C998 1.391 . S
H1000 C1008 0.950 . S
H1001 C1013 0.950 . S
H1002 C1010 0.950 . S
H1003 C1012 0.950 . S
H1004 C1014 0.950 . S
H1005 C1016 0.950 . S
H1006 C1018 0.950 . S
H1007 C1019 0.950 . S
C1008 H1000 0.950 . S
C1008 C1009 1.386 . S
C1008 C1010 1.391 . S
C1009 C1008 1.386 . S
C1009 C1013 1.393 . S
C1010 H1002 0.950 . S
C1010 C1008 1.391 . S
C1010 C1011 1.400 . S
C1011 C1010 1.400 . S
C1011 C1012 1.398 . S
C1011 C1017 1.491 . S
C1012 H1003 0.950 . S
C1012 C1011 1.398 . S
C1012 C1013 1.391 . S
C1013 H1001 0.950 . S
C1013 C1009 1.393 . S
C1013 C1012 1.391 . S
C1014 H1004 0.950 . S
C1014 C1015 1.386 . S
C1014 C1016 1.391 . S
C1015 C1014 1.386 . S
C1015 C1019 1.393 . S
C1016 H1005 0.950 . S
C1016 C1014 1.391 . S
C1016 C1017 1.400 . S
C1017 C1011 1.491 . S
C1017 C1016 1.400 . S
C1017 C1018 1.398 . S
C1018 H1006 0.950 . S
C1018 C1017 1.398 . S
C1018 C1019 1.391 . S
C1019 H1007 0.950 . S
C1019 C1015 1.393 . S
C1019 C1018 1.391 . S
H1020 C1028 0.950 . S
H1021 C1033 0.950 . S
H1022 C1030 0.950 . S
H1023 C1032 0.950 . S
H1024 C1034 0.950 . S
H1025 C1036 0.950 . S
H1026 C1038 0.950 . S
H1027 C1039 0.950 . S
C1028 H1020 0.950 . S
C1028 C1029 1.386 . S
C1028 C1030 1.391 . S
C1029 C1028 1.386 . S
C1029 C1033 1.393 . S
C1030 H1022 0.950 . S
C1030 C1028 1.391 . S
C1030 C1031 1.400 . S
C1031 C1030 1.400 . S
C1031 C1032 1.398 . S
C1031 C1037 1.491 . S
C1032 H1023 0.950 . S
C1032 C1031 1.398 . S
C1032 C1033 1.391 . S
C1033 H1021 0.950 . S
C1033 C1029 1.393 . S
C1033 C1032 1.391 . S
C1034 H1024 0.950 . S
C1034 C1035 1.386 . S
C1034 C1036 1.391 . S
C1035 C1034 1.386 . S
C1035 C1039 1.393 . S
C1036 H1025 0.950 . S
C1036 C1034 1.391 . S
C1036 C1037 1.400 . S
C1037 C1031 1.491 . S
C1037 C1036 1.400 . S
C1037 C1038 1.398 . S
C1038 H1026 0.950 . S
C1038 C1037 1.398 . S
C1038 C1039 1.391 . S
C1039 H1027 0.950 . S
C1039 C1035 1.393 . S
C1039 C1038 1.391 . S
H1040 C1048 0.950 . S
H1041 C1053 0.950 . S
H1042 C1050 0.950 . S
H1043 C1052 0.950 . S
H1044 C1054 0.950 . S
H1045 C1056 0.950 . S
H1046 C1058 0.950 . S
H1047 C1059 0.950 . S
C1048 H1040 0.950 . S
C1048 C1049 1.386 . S
C1048 C1050 1.391 . S
C1049 C1048 1.386 . S
C1049 C1053 1.393 . S
C1050 H1042 0.950 . S
C1050 C1048 1.391 . S
C1050 C1051 1.400 . S
C1051 C1050 1.400 . S
C1051 C1052 1.398 . S
C1051 C1057 1.491 . S
C1052 H1043 0.950 . S
C1052 C1051 1.398 . S
C1052 C1053 1.391 . S
C1053 H1041 0.950 . S
C1053 C1049 1.393 . S
C1053 C1052 1.391 . S
C1054 H1044 0.950 . S
C1054 C1055 1.386 . S
C1054 C1056 1.391 . S
C1055 C1054 1.386 . S
C1055 C1059 1.393 . S
C1056 H1045 0.950 . S
C1056 C1054 1.391 . S
C1056 C1057 1.400 . S
C1057 C1051 1.491 . S
C1057 C1056 1.400 . S
C1057 C1058 1.398 . S
C1058 H1046 0.950 . S
C1058 C1057 1.398 . S
C1058 C1059 1.391 . S
C1059 H1047 0.950 . S
C1059 C1055 1.393 . S
C1059 C1058 1.391 . S
H1060 C1068 0.950 . S
H1061 C1073 0.950 . S
H1062 C1070 0.950 . S
H1063 C1072 0.950 . S
H1064 C1074 0.950 . S
H1065 C1076 0.950 . S
H1066 C1078 0.950 . S
H1067 C1079 0.950 . S
C1068 H1060 0.950 . S
C1068 C1069 1.386 . S
C1068 C1070 1.391 . S
C1069 C1068 1.386 . S
C1069 C1073 1.393 . S
C1070 H1062 0.950 . S
C1070 C1068 1.391 . S
C1070 C1071 1.400 . S
C1071 C1070 1.400 . S
C1071 C1072 1.398 . S
C1071 C1077 1.491 . S
C1072 H1063 0.950 . S
C1072 C1071 1.398 . S
C1072 C1073 1.391 . S
C1073 H1061 0.950 . S
C1073 C1069 1.393 . S
C1073 C1072 1.391 . S
C1074 H1064 0.950 . S
C1074 C1075 1.386 . S
C1074 C1076 1.391 . S
C1075 C1074 1.386 . S
C1075 C1079 1.393 . S
C1076 H1065 0.950 . S
C1076 C1074 1.391 . S
C1076 C1077 1.400 . S
C1077 C1071 1.491 . S
C1077 C1076 1.400 . S
C1077 C1078 1.398 . S
C1078 H1066 0.950 . S
C1078 C1077 1.398 . S
C1078 C1079 1.391 . S
C1079 H1067 0.950 . S
C1079 C1075 1.393 . S
C1079 C1078 1.391 . S
H1080 C1088 0.950 . S
H1081 C1093 0.950 . S
H1082 C1090 0.950 . S
H1083 C1092 0.950 . S
H1084 C1094 0.950 . S
H1085 C1096 0.950 . S
H1086 C1098 0.950 . S
H1087 C1099 0.950 . S
C1088 H1080 0.950 . S
C1088 C1089 1.386 . S
C1088 C1090 1.391 . S
C1089 C1088 1.386 . S
C1089 C1093 1.393 . S
C1090 H1082 0.950 . S
C1090 C1088 1.391 . S
C1090 C1091 1.400 . S
C1091 C1090 1.400 . S
C1091 C1092 1.398 . S
C1091 C1097 1.491 . S
C1092 H1083 0.950 . S
C1092 C1091 1.398 . S
C1092 C1093 1.391 . S
C1093 H1081 0.950 . S
C1093 C1089 1.393 . S
C1093 C1092 1.391 . S
C1094 H1084 0.950 . S
C1094 C1095 1.386 . S
C1094 C1096 1.391 . S
C1095 C1094 1.386 . S
C1095 C1099 1.393 . S
C1096 H1085 0.950 . S
C1096 C1094 1.391 . S
C1096 C1097 1.400 . S
C1097 C1091 1.491 . S
C1097 C1096 1.400 . S
C1097 C1098 1.398 . S
C1098 H1086 0.950 . S
C1098 C1097 1.398 . S
C1098 C1099 1.391 . S
C1099 H1087 0.950 . S
C1099 C1095 1.393 . S
C1099 C1098 1.391 . S
H1100 C1108 0.950 . S
H1101 C1113 0.950 . S
H1102 C1110 0.950 . S
H1103 C1112 0.950 . S
H1104 C1114 0.950 . S
H1105 C1116 0.950 . S
H1106 C1118 0.950 . S
H1107 C1119 0.950 . S
C1108 H1100 0.950 . S
C1108 C1109 1.386 . S
C1108 C1110 1.391 . S
C1109 C1108 1.386 . S
C1109 C1113 1.393 . S
C1110 H1102 0.950 . S
C1110 C1108 1.391 . S
C1110 C1111 1.400 . S
C1111 C1110 1.400 . S
C1111 C1112 1.398 . S
C1111 C1117 1.491 . S
C1112 H1103 0.950 . S
C1112 C1111 1.398 . S
C1112 C1113 1.391 . S
C1113 H1101 0.950 . S
C1113 C1109 1.393 . S
C1113 C1112 1.391 . S
C1114 H1104 0.950 . S
C1114 C1115 1.386 . S
C1114 C1116 1.391 . S
C1115 C1114 1.386 . S
C1115 C1119 1.393 . S
C1116 H1105 0.950 . S
C1116 C1114 1.391 . S
C1116 C1117 1.400 . S
C1117 C1111 1.491 . S
C1117 C1116 1.400 . S
C1117 C1118 1.398 . S
C1118 H1106 0.950 . S
C1118 C1117 1.398 . S
C1118 C1119 1.391 . S
C1119 H1107 0.950 . S
C1119 C1115 1.393 . S
C1119 C1118 1.391 . S
H1120 C1128 0.950 . S
H1121 C1133 0.950 . S
H1122 C1130 0.950 . S
H1123 C1132 0.950 . S
H1124 C1134 0.950 . S
H1125 C1136 0.950 . S
H1126 C1138 0.950 . S
H1127 C1139 0.950 . S
C1128 H1120 0.950 . S
C1128 C1129 1.386 . S
C1128 C1130 1.391 . S
C1129 C1128 1.386 . S
C1129 C1133 1.393 . S
C1130 H1122 0.950 . S
C1130 C1128 1.391 . S
C1130 C1131 1.400 . S
C1131 C1130 1.400 . S
C1131 C1132 1.398 . S
C1131 C1137 1.491 . S
C1132 H1123 0.950 . S
C1132 C1131 1.398 . S
C1132 C1133 1.391 . S
C1133 H1121 0.950 . S
C1133 C1129 1.393 . S
C1133 C1132 1.391 . S
C1134 H1124 0.950 . S
C1134 C1135 1.386 . S
C1134 C1136 1.391 . S
C1135 C1134 1.386 . S
C1135 C1139 1.393 . S
C1136 H1125 0.950 . S
C1136 C1134 1.391 . S
C1136 C1137 1.400 . S
C1137 C1131 1.491 . S
C1137 C1136 1.400 . S
C1137 C1138 1.398 . S
C1138 H1126 0.950 . S
C1138 C1137 1.398 . S
C1138 C1139 1.391 . S
C1139 H1127 0.950 . S
C1139 C1135 1.393 . S
C1139 C1138 1.391 . S
H1140 C1148 0.950 . S
H1141 C1153 0.950 . S
H1142 C1150 0.950 . S
H1143 C1152 0.950 . S
H1144 C1154 0.950 . S
H1145 C1156 0.950 . S
H1146 C1158 0.950 . S
H1147 C1159 0.950 . S
C1148 H1140 0.950 . S
C1148 C1149 1.386 . S
C1148 C1150 1.391 . S
C1149 C1148 1.386 . S
C1149 C1153 1.393 . S
C1150 H1142 0.950 . S
C1150 C1148 1.391 . S
C1150 C1151 1.400 . S
C1151 C1150 1.400 . S
C1151 C1152 1.398 . S
C1151 C1157 1.491 . S
C1152 H1143 0.950 . S
C1152 C1151 1.398 . S
C1152 C1153 1.391 . S
C1153 H1141 0.950 . S
C1153 C1149 1.393 . S
C1153 C1152 1.391 . S
C1154 H1144 0.950 . S
C1154 C1155 1.386 . S
C1154 C1156 1.391 . S
C1155 C1154 1.386 . S
C1155 C1159 1.393 . S
C1156 H1145 0.950 . S
C1156 C1154 1.391 . S
C1156 C1157 1.400 . S
C1157 C1151 1.491 . S
C1157 C1156 1.400 . S
C1157 C1158 1.398 . S
C1158 H1146 0.950 . S
C1158 C1157 1.398 . S
C1158 C1159 1.391 . S
C1159 H1147 0.950 . S
C1159 C1155 1.393 . S
C1159 C1158 1.391 . S
H1160 C1168 0.950 . S
H1161 C1173 0.950 . S
H1162 C1170 0.950 . S
H1163 C1172 0.950 . S
H1164 C1174 0.950 . S
H1165 C1176 0.950 . S
H1166 C1178 0.950 . S
H1167 C1179 0.950 . S
C1168 H1160 0.950 . S
C1168 C1169 1.386 . S
C1168 C1170 1.391 . S
C1169 C1168 1.386 . S
C1169 C1173 1.393 . S
C1170 H1162 0.950 . S
C1170 C1168 1.391 . S
C1170 C1171 1.400 . S
C1171 C1170 1.400 . S
C1171 C1172 1.398 . S
C1171 C1177 1.491 . S
C1172 H1163 0.950 . S
C1172 C1171 1.398 . S
C1172 C1173 1.391 . S
C1173 H1161 0.950 . S
C1173 C1169 1.393 . S
C1173 C1172 1.391 . S
C1174 H1164 0.950 . S
C1174 C1175 1.386 . S
C1174 C1176 1.391 . S
C1175 C1174 1.386 . S
C1175 C1179 1.393 . S
C1176 H1165 0.950 . S
C1176 C1174 1.391 . S
C1176 C1177 1.400 . S
C1177 C1171 1.491 . S
C1177 C1176 1.400 . S
C1177 C1178 1.398 . S
C1178 H1166 0.950 . S
C1178 C1177 1.398 . S
C1178 C1179 1.391 . S
C1179 H1167 0.950 . S
C1179 C1175 1.393 . S
C1179 C1178 1.391 . S
H1180 C1188 0.950 . S
H1181 C1193 0.950 . S
H1182 C1190 0.950 . S
H1183 C1192 0.950 . S
H1184 C1194 0.950 . S
H1185 C1196 0.950 . S
H1186 C1198 0.950 . S
H1187 C1199 0.950 . S
C1188 H1180 0.950 . S
C1188 C1189 1.386 . S
C1188 C1190 1.391 . S
C1189 C1188 1.386 . S
C1189 C1193 1.393 . S
C1190 H1182 0.950 . S
C1190 C1188 1.391 . S
C1190 C1191 1.400 . S
C1191 C1190 1.400 . S
C1191 C1192 1.398 . S
C1191 C1197 1.491 . S
C1192 H1183 0.950 . S
C1192 C1191 1.398 . S
C1192 C1193 1.391 . S
C1193 H1181 0.950 . S
C1193 C1189 1.393 . S
C1193 C1192 1.391 . S
C1194 H1184 0.950 . S
C1194 C1195 1.386 . S
C1194 C1196 1.391 . S
C1195 C1194 1.386 . S
C1195 C1199 1.393 . S
C1196 H1185 0.950 . S
C1196 C1194 1.391 . S
C1196 C1197 1.400 . S
C1197 C1191 1.491 . S
C1197 C1196 1.400 . S
C1197 C1198 1.398 . S
C1198 H1186 0.950 . S
C1198 C1197 1.398 . S
C1198 C1199 1.391 . S
C1199 H1187 0.950 . S
C1199 C1195 1.393 . S
C1199 C1198 1.391 . S
H1200 C1208 0.950 . S
H1201 C1213 0.950 . S
H1202 C1210 0.950 . S
H1203 C1212 0.950 . S
H1204 C1214 0.950 . S
H1205 C1216 0.950 . S
H1206 C1218 0.950 . S
H1207 C1219 0.950 . S
C1208 H1200 0.950 . S
C1208 C1209 1.386 . S
C1208 C1210 1.391 . S
C1209 C1208 1.386 . S
C1209 C1213 1.393 . S
C1210 H1202 0.950 . S
C1210 C1208 1.391 . S
C1210 C1211 1.400 . S
C1211 C1210 1.400 . S
C1211 C1212 1.398 . S
C1211 C1217 1.491 . S
C1212 H1203 0.950 . S
C1212 C1211 1.398 . S
C1212 C1213 1.391 . S
C1213 H1201 0.950 . S
C1213 C1209 1.393 . S
C1213 C1212 1.391 . S
C1214 H1204 0.950 . S
C1214 C1215 1.386 . S
C1214 C1216 1.391 . S
C1215 C1214 1.386 . S
C1215 C1219 1.393 . S
C1216 H1205 0.950 . S
C1216 C1214 1.391 . S
C1216 C1217 1.400 . S
C1217 C1211 1.491 . S
C1217 C1216 1.400 . S
C1217 C1218 1.398 . S
C1218 H1206 0.950 . S
C1218 C1217 1.398 . S
C1218 C1219 1.391 . S
C1219 H1207 0.950 . S
C1219 C1215 1.393 . S
C1219 C1218 1.391 . S
H1220 C1228 0.950 . S
H1221 C1233 0.950 . S
H1222 C1230 0.950 . S
H1223 C1232 0.950 . S
H1224 C1234 0.950 . S
H1225 C1236 0.950 . S
H1226 C1238 0.950 . S
H1227 C1239 0.950 . S
C1228 H1220 0.950 . S
C1228 C1229 1.386 . S
C1228 C1230 1.391 . S
C1229 C1228 1.386 . S
C1229 C1233 1.393 . S
C1230 H1222 0.950 . S
C1230 C1228 1.391 . S
C1230 C1231 1.400 . S
C1231 C1230 1.400 . S
C1231 C1232 1.398 . S
C1231 C1237 1.491 . S
C1232 H1223 0.950 . S
C1232 C1231 1.398 . S
C1232 C1233 1.391 . S
C1233 H1221 0.950 . S
C1233 C1229 1.393 . S
C1233 C1232 1.391 . S
C1234 H1224 0.950 . S
C1234 C1235 1.386 . S
C1234 C1236 1.391 . S
C1235 C1234 1.386 . S
C1235 C1239 1.393 . S
C1236 H1225 0.950 . S
C1236 C1234 1.391 . S
C1236 C1237 1.400 . S
C1237 C1231 1.491 . S
C1237 C1236 1.400 . S
C1237 C1238 1.398 . S
C1238 H1226 0.950 . S
C1238 C1237 1.398 . S
C1238 C1239 1.391 . S
C1239 H1227 0.950 . S
C1239 C1235 1.393 . S
C1239 C1238 1.391 . S
C615 C512 1.420 . S
C609 C35 1.303 . S
C635 C526 1.413 . S
C629 C115 1.328 . S
C655 C539 1.420 . S
C649 C177 1.347 . S
C669 C221 1.307 . S
C675 C506 1.429 . S
C689 C283 1.317 . S
C695 C499 1.435 . S
C709 C363 1.345 . S
C715 C519 1.429 . S
C735 C527 1.422 . S
C729 C407 1.301 . S
C755 C540 1.426 . S
C749 C469 1.306 . S
C769 C159 1.304 . S
C775 C566 1.423 . S
C795 C584 1.418 . S
C789 C239 1.337 . S
C809 C53 1.331 . S
C815 C591 1.419 . S
C835 C558 1.426 . S
C829 C97 1.342 . S
C849 C425 1.325 . S
C855 C551 1.433 . S
C869 C487 1.344 . S
C875 C565 1.425 . S
C895 C577 1.425 . S
C889 C301 1.342 . S
C909 C345 1.331 . S
C915 C592 1.430 . S
C935 C525 1.952 . S
C929 C29 1.951 . S
C955 C538 1.956 . S
C949 C109 1.916 . S
C969 C171 1.914 . S
C975 C501 1.952 . S
C989 C215 1.941 . S
C995 C513 1.934 . S
C1009 C277 1.929 . S
C1015 C545 1.925 . S
C1035 C500 1.940 . S
C1029 C357 1.910 . S
C1055 C514 1.944 . S
C1049 C401 1.942 . S
C1075 C532 1.939 . S
C1069 C463 1.946 . S
C1095 C579 1.960 . S
C1089 C153 1.955 . S
C1115 C590 1.962 . S
C1109 C233 1.926 . S
C1129 C47 1.919 . S
C1135 C553 1.955 . S
C1155 C571 1.933 . S
C1149 C91 1.933 . S
C1175 C597 1.925 . S
C1169 C419 1.890 . S
C1189 C481 1.912 . S
C1195 C552 1.942 . S
C1215 C564 1.951 . S
C1209 C295 1.913 . S
C1235 C578 1.933 . S
C1229 C339 1.934 . S
