# Generated by pormake.
# Topology pto, (3,4)-cn, num edge types: 1
# Building blocks:
#     Node 0, Type 0, BuildingBlock: WUSLED_clean_sbu_0, # of connection points: 3
#     Node 1, Type 0, BuildingBlock: WUSLED_clean_sbu_0, # of connection points: 3
#     Node 2, Type 0, BuildingBlock: WUSLED_clean_sbu_0, # of connection points: 3
#     Node 3, Type 0, BuildingBlock: WUSLED_clean_sbu_0, # of connection points: 3
#     Node 4, Type 0, BuildingBlock: WUSLED_clean_sbu_0, # of connection points: 3
#     Node 5, Type 0, BuildingBlock: WUSLED_clean_sbu_0, # of connection points: 3
#     Node 6, Type 0, BuildingBlock: WUSLED_clean_sbu_0, # of connection points: 3
#     Node 7, Type 0, BuildingBlock: WUSLED_clean_sbu_0, # of connection points: 3
#     Node 8, Type 1, BuildingBlock: NAWXER_clean_linker_0, # of connection points: 4
#     Node 9, Type 1, BuildingBlock: NAWXER_clean_linker_0, # of connection points: 4
#     Node 10, Type 1, BuildingBlock: NAWXER_clean_linker_0, # of connection points: 4
#     Node 11, Type 1, BuildingBlock: NAWXER_clean_linker_0, # of connection points: 4
#     Node 12, Type 1, BuildingBlock: NAWXER_clean_linker_0, # of connection points: 4
#     Node 13, Type 1, BuildingBlock: NAWXER_clean_linker_0, # of connection points: 4
#     Edge 14, Type (0, 1), BuildingBlock: KIFKEQ_clean_linker_1, # of connection points: 2
#     Edge 15, Type (0, 1), BuildingBlock: KIFKEQ_clean_linker_1, # of connection points: 2
#     Edge 16, Type (0, 1), BuildingBlock: KIFKEQ_clean_linker_1, # of connection points: 2
#     Edge 17, Type (0, 1), BuildingBlock: KIFKEQ_clean_linker_1, # of connection points: 2
#     Edge 18, Type (0, 1), BuildingBlock: KIFKEQ_clean_linker_1, # of connection points: 2
#     Edge 19, Type (0, 1), BuildingBlock: KIFKEQ_clean_linker_1, # of connection points: 2
#     Edge 20, Type (0, 1), BuildingBlock: KIFKEQ_clean_linker_1, # of connection points: 2
#     Edge 21, Type (0, 1), BuildingBlock: KIFKEQ_clean_linker_1, # of connection points: 2
#     Edge 22, Type (0, 1), BuildingBlock: KIFKEQ_clean_linker_1, # of connection points: 2
#     Edge 23, Type (0, 1), BuildingBlock: KIFKEQ_clean_linker_1, # of connection points: 2
#     Edge 24, Type (0, 1), BuildingBlock: KIFKEQ_clean_linker_1, # of connection points: 2
#     Edge 25, Type (0, 1), BuildingBlock: KIFKEQ_clean_linker_1, # of connection points: 2
#     Edge 26, Type (0, 1), BuildingBlock: KIFKEQ_clean_linker_1, # of connection points: 2
#     Edge 27, Type (0, 1), BuildingBlock: KIFKEQ_clean_linker_1, # of connection points: 2
#     Edge 28, Type (0, 1), BuildingBlock: KIFKEQ_clean_linker_1, # of connection points: 2
#     Edge 29, Type (0, 1), BuildingBlock: KIFKEQ_clean_linker_1, # of connection points: 2
#     Edge 30, Type (0, 1), BuildingBlock: KIFKEQ_clean_linker_1, # of connection points: 2
#     Edge 31, Type (0, 1), BuildingBlock: KIFKEQ_clean_linker_1, # of connection points: 2
#     Edge 32, Type (0, 1), BuildingBlock: KIFKEQ_clean_linker_1, # of connection points: 2
#     Edge 33, Type (0, 1), BuildingBlock: KIFKEQ_clean_linker_1, # of connection points: 2
#     Edge 34, Type (0, 1), BuildingBlock: KIFKEQ_clean_linker_1, # of connection points: 2
#     Edge 35, Type (0, 1), BuildingBlock: KIFKEQ_clean_linker_1, # of connection points: 2
#     Edge 36, Type (0, 1), BuildingBlock: KIFKEQ_clean_linker_1, # of connection points: 2
#     Edge 37, Type (0, 1), BuildingBlock: KIFKEQ_clean_linker_1, # of connection points: 2
# Relax obj value: 0.000
# Max RMSD: 0.010
# Mean RMSD: 0.005
data_MOF--net-pto--node1-WUSLED_clean_sbu_0--node2-NAWXER_clean_linker_0--edge1-KIFKEQ_clean_linker_1
_symmetry_space_group_name_H-M    P1
_symmetry_Int_Tables_number       1
_symmetry_cell_setting            triclinic
loop_
_symmetry_equiv_pos_as_xyz
'x, y, z'
_cell_length_a     52.65369
_cell_length_b     71.556899
_cell_length_c     62.19671
_cell_angle_alpha  89.534262
_cell_angle_beta   90.623239
_cell_angle_gamma 90.569809
loop_
_atom_site_label
_atom_site_type_symbol
_atom_site_fract_x
_atom_site_fract_y
_atom_site_fract_z
_atom_type_partial_charge
C0 C 0.24433 0.23233 0.34581 0.0
C1 C 0.25396 0.21591 0.33693 0.0
C2 C 0.24911 0.19968 0.3713 0.0
C3 C 0.25623 0.1997 0.34954 0.0
C4 C 0.23967 0.21624 0.38011 0.0
C5 C 0.23727 0.23239 0.36747 0.0
U6 U 0.26202 0.26284 0.29745 0.0
O7 O 0.23816 0.27985 0.27588 0.0
O8 O 0.26816 0.29332 0.29527 0.0
C9 C 0.24866 0.29567 0.28218 0.0
C10 C 0.24167 0.24951 0.33283 0.0
C11 C 0.23115 0.31085 0.28764 0.0
C12 C 0.18993 0.3219 0.29917 0.0
C13 C 0.20669 0.30719 0.29555 0.0
C14 C 0.22216 0.34409 0.28771 0.0
C15 C 0.19735 0.34054 0.29502 0.0
C16 C 0.23881 0.3294 0.28401 0.0
C17 C 0.31147 0.24548 0.25778 0.0
C18 C 0.33032 0.26496 0.22986 0.0
C19 C 0.33736 0.23155 0.23022 0.0
C20 C 0.32251 0.22974 0.24863 0.0
C21 C 0.3415 0.24918 0.22063 0.0
C22 C 0.31534 0.26312 0.24825 0.0
C23 C 0.29608 0.2432 0.27726 0.0
O24 O 0.26161 0.2607 0.33279 0.0
O25 O 0.23127 0.24743 0.31366 0.0
O26 O 0.27151 0.24119 0.27397 0.0
O27 O 0.30172 0.25455 0.29316 0.0
H28 H 0.25972 0.21564 0.32027 0.0
H29 H 0.26384 0.18725 0.34234 0.0
H30 H 0.23375 0.21664 0.39673 0.0
H31 H 0.22982 0.24494 0.3746 0.0
H32 H 0.17094 0.31862 0.30465 0.0
H33 H 0.20035 0.29297 0.29856 0.0
H34 H 0.22873 0.35826 0.28475 0.0
H35 H 0.25764 0.33254 0.27802 0.0
H36 H 0.33291 0.2787 0.22273 0.0
H37 H 0.34594 0.21916 0.2237 0.0
H38 H 0.31973 0.21603 0.25579 0.0
H39 H 0.30682 0.27543 0.25504 0.0
C40 C 0.24147 0.79871 0.68314 0.0
C41 C 0.24887 0.81586 0.69217 0.0
C42 C 0.24524 0.83118 0.65707 0.0
C43 C 0.25064 0.83195 0.67929 0.0
C44 C 0.23824 0.81384 0.6481 0.0
C45 C 0.23632 0.79781 0.66102 0.0
U46 U 0.26038 0.76864 0.73172 0.0
O47 O 0.23667 0.75219 0.75402 0.0
O48 O 0.26535 0.73825 0.73461 0.0
C49 C 0.24651 0.73624 0.74818 0.0
C50 C 0.23888 0.78167 0.69646 0.0
C51 C 0.22823 0.72102 0.74368 0.0
C52 C 0.20226 0.7025 0.71907 0.0
C53 C 0.219 0.71751 0.72282 0.0
C54 C 0.2035 0.69465 0.75703 0.0
C55 C 0.19447 0.69077 0.73613 0.0
C56 C 0.22021 0.70958 0.76072 0.0
C57 C 0.31226 0.7857 0.77043 0.0
C58 C 0.33238 0.76574 0.79733 0.0
C59 C 0.33907 0.79927 0.79836 0.0
C60 C 0.32345 0.80136 0.78018 0.0
C61 C 0.34388 0.78142 0.80711 0.0
C62 C 0.31666 0.76787 0.7792 0.0
C63 C 0.29618 0.78821 0.75113 0.0
O64 O 0.25838 0.77034 0.69634 0.0
O65 O 0.22944 0.78397 0.71574 0.0
O66 O 0.27186 0.79051 0.75469 0.0
O67 O 0.30058 0.77675 0.7352 0.0
H68 H 0.25306 0.81686 0.70922 0.0
H69 H 0.2558 0.84505 0.68683 0.0
H70 H 0.23441 0.8126 0.63103 0.0
H71 H 0.23077 0.78467 0.65372 0.0
H72 H 0.19583 0.69986 0.70277 0.0
H73 H 0.22492 0.72625 0.70944 0.0
H74 H 0.19754 0.68619 0.77061 0.0
H75 H 0.22701 0.71215 0.77695 0.0
H76 H 0.33585 0.75178 0.80345 0.0
H77 H 0.34718 0.81168 0.80566 0.0
H78 H 0.32012 0.81524 0.77372 0.0
H79 H 0.30809 0.7556 0.77192 0.0
C80 C 0.72298 0.78574 0.26114 0.0
C81 C 0.71965 0.76808 0.25178 0.0
C82 C 0.6917 0.78145 0.22431 0.0
C83 C 0.70405 0.76594 0.23357 0.0
C84 C 0.69517 0.7991 0.23379 0.0
C85 C 0.71064 0.8012 0.25204 0.0
U86 U 0.7763 0.76952 0.2988 0.0
O87 O 0.80772 0.78572 0.31341 0.0
O88 O 0.78007 0.77125 0.33398 0.0
C89 C 0.79933 0.78306 0.33303 0.0
C90 C 0.73955 0.78838 0.2801 0.0
C91 C 0.79728 0.80004 0.34614 0.0
C92 C 0.77277 0.82572 0.36034 0.0
C93 C 0.77426 0.80966 0.34771 0.0
C94 C 0.81737 0.8229 0.36966 0.0
C95 C 0.79433 0.83254 0.37146 0.0
C96 C 0.81879 0.8068 0.35715 0.0
C97 C 0.80901 0.72281 0.28698 0.0
C98 C 0.83519 0.70449 0.3116 0.0
C99 C 0.83544 0.69799 0.27344 0.0
C100 C 0.81803 0.71231 0.26981 0.0
C101 C 0.84417 0.69383 0.29438 0.0
C102 C 0.81783 0.71892 0.30792 0.0
C103 C 0.79016 0.73747 0.28255 0.0
O104 O 0.73585 0.77666 0.29618 0.0
O105 O 0.76369 0.79125 0.27594 0.0
O106 O 0.79936 0.75367 0.27605 0.0
O107 O 0.77177 0.73902 0.29655 0.0
H108 H 0.72921 0.756 0.2585 0.0
H109 H 0.70201 0.75221 0.22652 0.0
H110 H 0.68571 0.81128 0.22722 0.0
H111 H 0.71301 0.81493 0.25904 0.0
H112 H 0.75483 0.83294 0.36119 0.0
H113 H 0.75746 0.80477 0.33916 0.0
H114 H 0.83424 0.82766 0.37818 0.0
H115 H 0.83672 0.79958 0.35612 0.0
H116 H 0.84174 0.70177 0.32788 0.0
H117 H 0.84167 0.68991 0.25986 0.0
H118 H 0.8114 0.71508 0.25355 0.0
H119 H 0.81121 0.72696 0.32141 0.0
C120 C 0.75731 0.21284 0.70481 0.0
C121 C 0.78174 0.20867 0.69746 0.0
C122 C 0.76389 0.18547 0.67289 0.0
C123 C 0.785 0.19504 0.68171 0.0
C124 C 0.73949 0.18988 0.68017 0.0
C125 C 0.73626 0.20339 0.69599 0.0
U126 U 0.77265 0.25926 0.733 0.0
O127 O 0.74646 0.28004 0.74605 0.0
O128 O 0.77382 0.26597 0.76741 0.0
C129 C 0.75432 0.27726 0.76594 0.0
C130 C 0.7532 0.22682 0.72171 0.0
C131 C 0.73427 0.27445 0.78201 0.0
C132 C 0.70775 0.25427 0.80426 0.0
C133 C 0.72618 0.25649 0.78833 0.0
C134 C 0.70492 0.28792 0.80732 0.0
C135 C 0.69697 0.26998 0.81399 0.0
C136 C 0.72341 0.29011 0.79152 0.0
C137 C 0.82534 0.29163 0.71243 0.0
C138 C 0.82929 0.32468 0.72081 0.0
C139 C 0.86504 0.30827 0.70605 0.0
C140 C 0.85055 0.29179 0.70543 0.0
C141 C 0.85456 0.32499 0.7136 0.0
C142 C 0.81486 0.30815 0.72032 0.0
C143 C 0.81029 0.27418 0.71124 0.0
O144 O 0.77131 0.22864 0.7363 0.0
O145 O 0.74395 0.24287 0.71507 0.0
O146 O 0.78629 0.27604 0.70565 0.0
O147 O 0.81373 0.2623 0.72721 0.0
H148 H 0.79827 0.2159 0.7039 0.0
H149 H 0.80401 0.1921 0.67629 0.0
H150 H 0.72287 0.18263 0.67391 0.0
H151 H 0.71727 0.20639 0.70146 0.0
H152 H 0.70184 0.24028 0.80887 0.0
H153 H 0.73423 0.24421 0.78108 0.0
H154 H 0.69727 0.30029 0.81466 0.0
H155 H 0.72945 0.30407 0.78687 0.0
H156 H 0.82045 0.33729 0.7265 0.0
H157 H 0.88455 0.30786 0.70075 0.0
H158 H 0.85903 0.27915 0.69944 0.0
H159 H 0.79545 0.30833 0.72591 0.0
C160 C 0.80385 0.71784 0.74257 0.0
C161 C 0.82805 0.72181 0.73427 0.0
C162 C 0.83729 0.68852 0.73286 0.0
C163 C 0.84467 0.70727 0.72956 0.0
C164 C 0.81288 0.68464 0.74082 0.0
C165 C 0.79638 0.69917 0.74567 0.0
U166 U 0.77351 0.76591 0.73364 0.0
O167 O 0.73381 0.77442 0.73735 0.0
O168 O 0.76369 0.78736 0.75726 0.0
C169 C 0.73918 0.7856 0.75347 0.0
C170 C 0.78628 0.73283 0.7485 0.0
C171 C 0.72317 0.7833 0.77256 0.0
C172 C 0.70357 0.76384 0.80012 0.0
C173 C 0.71933 0.76572 0.78222 0.0
C174 C 0.69569 0.79714 0.79905 0.0
C175 C 0.69143 0.77953 0.8087 0.0
C176 C 0.71137 0.79898 0.78115 0.0
C177 C 0.79254 0.7966 0.68577 0.0
C178 C 0.78101 0.82929 0.68196 0.0
C179 C 0.79796 0.81271 0.65158 0.0
C180 C 0.79999 0.79654 0.66422 0.0
C181 C 0.78849 0.8293 0.6603 0.0
C182 C 0.78291 0.81305 0.69457 0.0
C183 C 0.79474 0.77936 0.69871 0.0
O184 O 0.79676 0.7485 0.75528 0.0
O185 O 0.76692 0.73546 0.73535 0.0
O186 O 0.77469 0.76828 0.69835 0.0
O187 O 0.80471 0.7813 0.71805 0.0
H188 H 0.83419 0.73612 0.73157 0.0
H189 H 0.86324 0.71069 0.72323 0.0
H190 H 0.80672 0.67038 0.74378 0.0
H191 H 0.77781 0.69581 0.75208 0.0
H192 H 0.70056 0.75006 0.807 0.0
H193 H 0.72836 0.75345 0.7758 0.0
H194 H 0.68706 0.80957 0.80543 0.0
H195 H 0.71425 0.81267 0.77398 0.0
H196 H 0.77338 0.84177 0.68909 0.0
H197 H 0.80414 0.8123 0.63504 0.0
H198 H 0.80743 0.78395 0.65715 0.0
H199 H 0.77685 0.81333 0.71115 0.0
C200 C 0.72186 0.24266 0.25999 0.0
C201 C 0.71703 0.26057 0.25162 0.0
C202 C 0.69099 0.24706 0.22293 0.0
C203 C 0.70162 0.26276 0.23329 0.0
C204 C 0.69602 0.22916 0.23138 0.0
C205 C 0.71129 0.227 0.24975 0.0
U206 U 0.77315 0.25975 0.29926 0.0
O207 O 0.77593 0.25695 0.33442 0.0
O208 O 0.80495 0.24438 0.31417 0.0
C209 C 0.79581 0.24601 0.33363 0.0
C210 C 0.73809 0.24 0.27917 0.0
C211 C 0.79416 0.22855 0.34631 0.0
C212 C 0.77023 0.20176 0.35983 0.0
C213 C 0.77149 0.21808 0.3473 0.0
C214 C 0.8144 0.20597 0.37014 0.0
C215 C 0.79168 0.19553 0.37143 0.0
C216 C 0.81559 0.22234 0.35774 0.0
C217 C 0.8031 0.30857 0.29002 0.0
C218 C 0.84524 0.3204 0.29945 0.0
C219 C 0.81113 0.34202 0.29196 0.0
C220 C 0.79451 0.327 0.28833 0.0
C221 C 0.83682 0.33895 0.29724 0.0
C222 C 0.82854 0.30535 0.29591 0.0
C223 C 0.78542 0.29312 0.28461 0.0
O224 O 0.76247 0.23843 0.2754 0.0
O225 O 0.73326 0.25083 0.29558 0.0
O226 O 0.76672 0.29015 0.29808 0.0
O227 O 0.79563 0.27764 0.27762 0.0
H228 H 0.72522 0.27283 0.25922 0.0
H229 H 0.69834 0.27671 0.22705 0.0
H230 H 0.68789 0.21681 0.22394 0.0
H231 H 0.71484 0.21307 0.25598 0.0
H232 H 0.75255 0.19391 0.36028 0.0
H233 H 0.75476 0.22255 0.33844 0.0
H234 H 0.83118 0.20166 0.37904 0.0
H235 H 0.83325 0.23023 0.35717 0.0
H236 H 0.86492 0.31748 0.30331 0.0
H237 H 0.80382 0.35608 0.29055 0.0
H238 H 0.77495 0.3298 0.2839 0.0
H239 H 0.83564 0.29124 0.29739 0.0
C240 C 0.24022 0.23027 0.68245 0.0
C241 C 0.26335 0.22075 0.68119 0.0
C242 C 0.24378 0.1976 0.65751 0.0
C243 C 0.26514 0.20461 0.66874 0.0
C244 C 0.22064 0.20715 0.65897 0.0
C245 C 0.21891 0.22334 0.67129 0.0
U246 U 0.26029 0.26075 0.72999 0.0
O247 O 0.26478 0.29124 0.7324 0.0
O248 O 0.2369 0.27653 0.75255 0.0
C249 C 0.24617 0.29274 0.7462 0.0
C250 C 0.23783 0.24727 0.69548 0.0
C251 C 0.22735 0.30737 0.74157 0.0
C252 C 0.20119 0.32546 0.7167 0.0
C253 C 0.21863 0.31111 0.72057 0.0
C254 C 0.20072 0.3322 0.75481 0.0
C255 C 0.19205 0.33619 0.7338 0.0
C256 C 0.21819 0.31796 0.75862 0.0
C257 C 0.31305 0.24422 0.76812 0.0
C258 C 0.33159 0.26371 0.79616 0.0
C259 C 0.34077 0.23061 0.79536 0.0
C260 C 0.32545 0.2287 0.77699 0.0
C261 C 0.34401 0.24813 0.80519 0.0
C262 C 0.31615 0.26176 0.77782 0.0
C263 C 0.29672 0.24177 0.74899 0.0
O264 O 0.22909 0.24461 0.71498 0.0
O265 O 0.25708 0.25911 0.69477 0.0
O266 O 0.3007 0.25358 0.73304 0.0
O267 O 0.27251 0.23893 0.75289 0.0
H268 H 0.27999 0.22576 0.68986 0.0
H269 H 0.28315 0.19745 0.66814 0.0
H270 H 0.20391 0.20224 0.65036 0.0
H271 H 0.2009 0.23048 0.6721 0.0
H272 H 0.1947 0.32806 0.70038 0.0
H273 H 0.22535 0.303 0.70718 0.0
H274 H 0.19436 0.34033 0.7683 0.0
H275 H 0.22474 0.3153 0.77493 0.0
H276 H 0.33348 0.27734 0.80347 0.0
H277 H 0.3503 0.21838 0.80173 0.0
H278 H 0.32326 0.21506 0.76972 0.0
H279 H 0.30654 0.27389 0.77127 0.0
C280 C 0.21218 0.73572 0.31928 0.0
C281 C 0.20863 0.7263 0.29973 0.0
C282 C 0.18439 0.70178 0.31792 0.0
C283 C 0.19475 0.70953 0.29904 0.0
C284 C 0.18833 0.71115 0.33749 0.0
C285 C 0.20204 0.72798 0.33813 0.0
U286 U 0.26202 0.7699 0.29759 0.0
O287 O 0.26067 0.80055 0.29391 0.0
O288 O 0.28979 0.78768 0.31461 0.0
C289 C 0.27903 0.80326 0.30807 0.0
C290 C 0.2262 0.75361 0.32027 0.0
C291 C 0.27407 0.81727 0.32475 0.0
C292 C 0.26589 0.82573 0.36185 0.0
C293 C 0.26938 0.81206 0.34619 0.0
C294 C 0.27099 0.84994 0.33476 0.0
C295 C 0.26679 0.84484 0.35633 0.0
C296 C 0.27466 0.83629 0.31917 0.0
C297 C 0.3003 0.75603 0.24796 0.0
C298 C 0.3224 0.77659 0.22288 0.0
C299 C 0.33285 0.74373 0.22472 0.0
C300 C 0.31476 0.74103 0.24076 0.0
C301 C 0.33677 0.76151 0.21547 0.0
C302 C 0.30439 0.7739 0.23906 0.0
C303 C 0.28083 0.75253 0.26442 0.0
O304 O 0.25047 0.75242 0.32522 0.0
O305 O 0.22156 0.76549 0.30451 0.0
O306 O 0.26037 0.7629 0.26326 0.0
O307 O 0.28939 0.75017 0.28417 0.0
H308 H 0.21651 0.73196 0.285 0.0
H309 H 0.19233 0.70253 0.28377 0.0
H310 H 0.18039 0.70565 0.35226 0.0
H311 H 0.2046 0.73504 0.35336 0.0
H312 H 0.2624 0.82135 0.37828 0.0
H313 H 0.26862 0.79746 0.35088 0.0
H314 H 0.27207 0.86452 0.33001 0.0
H315 H 0.27828 0.84061 0.30274 0.0
H316 H 0.32516 0.79049 0.21623 0.0
H317 H 0.34336 0.73178 0.21921 0.0
H318 H 0.31187 0.72713 0.2474 0.0
H319 H 0.29358 0.78573 0.24449 0.0
C320 C 0.97798 0.45223 0.29648 0.0
C321 C 0.9581 0.44936 0.31113 0.0
C322 C 0.99342 0.46821 0.29765 0.0
C323 C 0.98967 0.48154 0.31374 0.0
C324 C 0.95427 0.46282 0.32712 0.0
C325 C 0.96981 0.47876 0.32833 0.0
C326 C 1.00522 0.49894 0.31465 0.0
C327 C 0.05974 0.45141 0.32577 0.0
C328 C 0.07799 0.44986 0.30954 0.0
C329 C 0.0447 0.46739 0.3271 0.0
C330 C 0.0476 0.4821 0.31218 0.0
C331 C 0.08107 0.46475 0.29487 0.0
C332 C 0.06616 0.48072 0.29627 0.0
C333 C 0.03203 0.49921 0.31327 0.0
C334 C 0.05767 0.58052 0.32969 0.0
C335 C 0.07787 0.58293 0.31526 0.0
C336 C 0.04281 0.56421 0.32944 0.0
C337 C 0.0475 0.55006 0.31448 0.0
C338 C 0.08285 0.56855 0.30063 0.0
C339 C 0.06789 0.5523 0.3003 0.0
C340 C 0.03198 0.53262 0.31402 0.0
C341 C 0.97852 0.5789 0.29632 0.0
C342 C 0.95876 0.58163 0.31099 0.0
C343 C 0.99364 0.56298 0.29766 0.0
C344 C 0.98957 0.54952 0.31386 0.0
C345 C 0.95458 0.56803 0.32708 0.0
C346 C 0.96972 0.55208 0.32839 0.0
C347 C 1.00514 0.53236 0.31503 0.0
H348 H 0.98162 0.44213 0.28404 0.0
H349 H 1.00806 0.47025 0.28574 0.0
H350 H 0.93888 0.46128 0.33842 0.0
H351 H 0.96627 0.48898 0.34068 0.0
H352 H 0.05689 0.44018 0.3373 0.0
H353 H 0.0309 0.46828 0.33982 0.0
H354 H 0.09526 0.46415 0.28242 0.0
H355 H 0.06895 0.49197 0.28474 0.0
H356 H 0.05315 0.5913 0.3411 0.0
H357 H 0.02773 0.56264 0.34103 0.0
H358 H 0.09854 0.56973 0.28957 0.0
H359 H 0.07215 0.54149 0.28882 0.0
H360 H 0.98238 0.58912 0.28381 0.0
H361 H 1.00839 0.56112 0.28589 0.0
H362 H 0.93929 0.56955 0.33842 0.0
H363 H 0.96599 0.54176 0.34083 0.0
N364 N 0.99287 0.51553 0.31554 0.0
N365 N 0.04429 0.51603 0.31297 0.0
C366 C 0.97676 0.44854 0.69803 0.0
C367 C 0.95824 0.44525 0.71378 0.0
C368 C 0.99121 0.46506 0.69811 0.0
C369 C 0.98748 0.47859 0.71398 0.0
C370 C 0.95434 0.45893 0.72948 0.0
C371 C 0.96867 0.4755 0.72947 0.0
C372 C 1.00261 0.49618 0.71423 0.0
C373 C 0.05669 0.45027 0.73133 0.0
C374 C 0.07637 0.44768 0.71656 0.0
C375 C 0.04137 0.46608 0.73007 0.0
C376 C 0.04513 0.47957 0.71385 0.0
C377 C 0.08023 0.46128 0.70041 0.0
C378 C 0.06487 0.47713 0.69918 0.0
C379 C 0.0294 0.49665 0.71287 0.0
C380 C 0.05579 0.57649 0.73246 0.0
C381 C 0.07524 0.57989 0.71754 0.0
C382 C 0.04048 0.56047 0.73097 0.0
C383 C 0.04406 0.54758 0.71439 0.0
C384 C 0.07878 0.56695 0.70095 0.0
C385 C 0.06347 0.5509 0.6995 0.0
C386 C 0.02882 0.53005 0.71332 0.0
C387 C 0.97346 0.57692 0.70162 0.0
C388 C 0.95445 0.57819 0.71728 0.0
C389 C 0.98909 0.56123 0.70083 0.0
C390 C 0.98619 0.54656 0.71579 0.0
C391 C 0.95158 0.56341 0.73215 0.0
C392 C 0.96715 0.54774 0.73131 0.0
C393 C 1.00203 0.52956 0.7149 0.0
H394 H 0.98029 0.43826 0.68577 0.0
H395 H 1.00522 0.46728 0.68571 0.0
H396 H 0.93997 0.45693 0.74164 0.0
H397 H 0.96528 0.48582 0.74173 0.0
H398 H 0.05307 0.44004 0.74387 0.0
H399 H 0.02676 0.46785 0.74198 0.0
H400 H 0.09545 0.45986 0.68898 0.0
H401 H 0.06836 0.48747 0.68671 0.0
H402 H 0.05245 0.58621 0.74537 0.0
H403 H 0.02611 0.55802 0.74303 0.0
H404 H 0.09382 0.56898 0.6894 0.0
H405 H 0.06683 0.54103 0.68675 0.0
H406 H 0.97592 0.58787 0.68969 0.0
H407 H 1.00318 0.56045 0.68832 0.0
H408 H 0.93742 0.564 0.74462 0.0
H409 H 0.96447 0.53658 0.74296 0.0
N410 N 0.99002 0.51264 0.71536 0.0
N411 N 0.04142 0.51357 0.71229 0.0
C412 C 0.23861 0.07971 0.48004 0.0
C413 C 0.25757 0.08296 0.46462 0.0
C414 C 0.23882 0.06351 0.49278 0.0
C415 C 0.25811 0.05026 0.49054 0.0
C416 C 0.27671 0.06955 0.46229 0.0
C417 C 0.27686 0.05334 0.47501 0.0
C418 C 0.25807 0.03276 0.50349 0.0
C419 C 0.27206 0.07953 0.55014 0.0
C420 C 0.25255 0.08178 0.56515 0.0
C421 C 0.27288 0.06354 0.53738 0.0
C422 C 0.25416 0.04951 0.53929 0.0
C423 C 0.23403 0.0676 0.56721 0.0
C424 C 0.23495 0.05157 0.55452 0.0
C425 C 0.25495 0.03238 0.52604 0.0
C426 C 0.27125 0.95092 0.54839 0.0
C427 C 0.25282 0.94861 0.56445 0.0
C428 C 0.27212 0.96721 0.5358 0.0
C429 C 0.25427 0.98143 0.53867 0.0
C430 C 0.23534 0.96308 0.56759 0.0
C431 C 0.23612 0.97929 0.55489 0.0
C432 C 0.25509 0.99896 0.5257 0.0
C433 C 0.23983 0.95293 0.47789 0.0
C434 C 0.25928 0.95067 0.46282 0.0
C435 C 0.23954 0.96862 0.49118 0.0
C436 C 0.25875 0.98233 0.48972 0.0
C437 C 0.27838 0.9645 0.46133 0.0
C438 C 0.27799 0.98021 0.47453 0.0
C439 C 0.25826 0.99936 0.50312 0.0
H440 H 0.22326 0.08949 0.48197 0.0
H441 H 0.22365 0.06121 0.50414 0.0
H442 H 0.29175 0.07165 0.45075 0.0
H443 H 0.29181 0.04324 0.47286 0.0
H444 H 0.28656 0.09022 0.54811 0.0
H445 H 0.28827 0.06209 0.52611 0.0
H446 H 0.21899 0.06877 0.57885 0.0
H447 H 0.22047 0.04084 0.55647 0.0
H448 H 0.28495 0.94009 0.5454 0.0
H449 H 0.28691 0.96871 0.52393 0.0
H450 H 0.22122 0.96201 0.58008 0.0
H451 H 0.2224 0.99017 0.5577 0.0
H452 H 0.22489 0.94251 0.47948 0.0
H453 H 0.22415 0.97013 0.50242 0.0
H454 H 0.29338 0.96334 0.44966 0.0
H455 H 0.29282 0.99072 0.47292 0.0
N456 N 0.25978 0.01624 0.49297 0.0
N457 N 0.25341 0.01551 0.53621 0.0
C458 C 0.47864 0.78305 0.94119 0.0
C459 C 0.4586 0.77011 0.93848 0.0
C460 C 0.49396 0.78258 0.95969 0.0
C461 C 0.48992 0.76892 0.9757 0.0
C462 C 0.45434 0.75663 0.95466 0.0
C463 C 0.4698 0.75608 0.97309 0.0
C464 C 0.50545 0.76864 0.99578 0.0
C465 C 0.56003 0.75785 0.9421 0.0
C466 C 0.57877 0.77182 0.93956 0.0
C467 C 0.54481 0.75737 0.96042 0.0
C468 C 0.54792 0.77092 0.97649 0.0
C469 C 0.58209 0.78518 0.95585 0.0
C470 C 0.56694 0.78465 0.97417 0.0
C471 C 0.53222 0.77051 0.99614 0.0
C472 C 0.56009 0.75782 0.08931 0.0
C473 C 0.57896 0.77174 0.09179 0.0
C474 C 0.54461 0.75739 0.07087 0.0
C475 C 0.54751 0.77098 0.05462 0.0
C476 C 0.58184 0.78525 0.07541 0.0
C477 C 0.56641 0.78479 0.057 0.0
C478 C 0.53198 0.77044 0.03459 0.0
C479 C 0.47696 0.78138 0.08808 0.0
C480 C 0.45712 0.76818 0.08993 0.0
C481 C 0.49279 0.78146 0.07014 0.0
C482 C 0.48942 0.76809 0.05388 0.0
C483 C 0.45364 0.75495 0.07353 0.0
C484 C 0.46956 0.75496 0.05569 0.0
C485 C 0.50522 0.76841 0.03425 0.0
H486 H 0.48209 0.79385 0.92925 0.0
H487 H 0.50868 0.79312 0.96162 0.0
H488 H 0.43915 0.74641 0.953 0.0
H489 H 0.46609 0.74555 0.9853 0.0
H490 H 0.55693 0.7474 0.92983 0.0
H491 H 0.53071 0.74635 0.96206 0.0
H492 H 0.59663 0.79593 0.95457 0.0
H493 H 0.56993 0.7951 0.98647 0.0
H494 H 0.55762 0.74701 0.10142 0.0
H495 H 0.53066 0.74626 0.06916 0.0
H496 H 0.59591 0.79632 0.07687 0.0
H497 H 0.56911 0.79536 0.04464 0.0
H498 H 0.47985 0.79196 0.10024 0.0
H499 H 0.50733 0.7922 0.06882 0.0
H500 H 0.43868 0.74449 0.07455 0.0
H501 H 0.46639 0.74462 0.04329 0.0
N502 N 0.49309 0.76752 0.01485 0.0
N503 N 0.54435 0.77149 0.01552 0.0
C504 C 0.7663 0.07668 0.48117 0.0
C505 C 0.78606 0.07983 0.4665 0.0
C506 C 0.76585 0.06054 0.49403 0.0
C507 C 0.78522 0.04726 0.49254 0.0
C508 C 0.80529 0.06641 0.46492 0.0
C509 C 0.80475 0.05024 0.47769 0.0
C510 C 0.78467 0.02982 0.50558 0.0
C511 C 0.796 0.07696 0.55255 0.0
C512 C 0.77711 0.07824 0.5683 0.0
C513 C 0.7973 0.06124 0.53936 0.0
C514 C 0.7795 0.04657 0.54141 0.0
C515 C 0.75959 0.06339 0.5705 0.0
C516 C 0.76083 0.04773 0.55726 0.0
C517 C 0.781 0.02948 0.52809 0.0
C518 C 0.80108 0.94919 0.5516 0.0
C519 C 0.78194 0.94597 0.56686 0.0
C520 C 0.801 0.96536 0.53882 0.0
C521 C 0.78168 0.97861 0.54086 0.0
C522 C 0.76275 0.95937 0.56899 0.0
C523 C 0.76274 0.97556 0.55623 0.0
C524 C 0.78182 0.99607 0.52785 0.0
C525 C 0.76814 0.94939 0.48097 0.0
C526 C 0.7876 0.94719 0.46591 0.0
C527 C 0.76742 0.96529 0.4939 0.0
C528 C 0.78623 0.97927 0.49212 0.0
C529 C 0.80626 0.96131 0.46403 0.0
C530 C 0.80545 0.97724 0.47689 0.0
C531 C 0.78532 0.99642 0.50535 0.0
H532 H 0.75125 0.08676 0.48283 0.0
H533 H 0.75023 0.05835 0.50499 0.0
H534 H 0.82056 0.06826 0.45355 0.0
H535 H 0.81972 0.04008 0.47606 0.0
H536 H 0.80975 0.08814 0.55032 0.0
H537 H 0.81243 0.06048 0.52776 0.0
H538 H 0.74512 0.06368 0.58273 0.0
H539 H 0.74713 0.03649 0.55942 0.0
H540 H 0.81645 0.93941 0.54983 0.0
H541 H 0.8163 0.96764 0.52757 0.0
H542 H 0.74757 0.95728 0.5804 0.0
H543 H 0.74775 0.98565 0.55822 0.0
H544 H 0.75354 0.93876 0.48288 0.0
H545 H 0.75201 0.96672 0.50514 0.0
H546 H 0.82128 0.96018 0.45237 0.0
H547 H 0.81998 0.98795 0.47503 0.0
N548 N 0.78681 0.01328 0.49515 0.0
N549 N 0.77961 0.01261 0.53828 0.0
C550 C 0.47497 0.27137 0.94067 0.0
C551 C 0.4568 0.25702 0.93782 0.0
C552 C 0.48999 0.27207 0.95937 0.0
C553 C 0.48724 0.25836 0.97551 0.0
C554 C 0.45388 0.2435 0.95417 0.0
C555 C 0.46883 0.24424 0.97285 0.0
C556 C 0.50262 0.25898 0.99561 0.0
C557 C 0.55758 0.24876 0.94203 0.0
C558 C 0.57653 0.26263 0.93975 0.0
C559 C 0.54216 0.24824 0.96021 0.0
C560 C 0.54511 0.26172 0.97638 0.0
C561 C 0.57969 0.2759 0.95616 0.0
C562 C 0.56423 0.27539 0.9743 0.0
C563 C 0.52935 0.26115 0.99603 0.0
C564 C 0.55589 0.24525 0.08869 0.0
C565 C 0.57598 0.25811 0.09172 0.0
C566 C 0.54049 0.2461 0.07025 0.0
C567 C 0.5445 0.26005 0.05459 0.0
C568 C 0.58008 0.27196 0.0759 0.0
C569 C 0.56458 0.27286 0.05751 0.0
C570 C 0.52903 0.2606 0.03449 0.0
C571 C 0.47416 0.27079 0.08816 0.0
C572 C 0.4552 0.25693 0.09035 0.0
C573 C 0.48958 0.27138 0.06997 0.0
C574 C 0.48647 0.25804 0.05367 0.0
C575 C 0.45193 0.24377 0.07384 0.0
C576 C 0.46729 0.2444 0.05566 0.0
C577 C 0.50226 0.25865 0.03405 0.0
H578 H 0.47774 0.28198 0.92837 0.0
H579 H 0.50362 0.28338 0.96126 0.0
H580 H 0.43977 0.23246 0.95266 0.0
H581 H 0.46613 0.23366 0.9852 0.0
H582 H 0.55453 0.23836 0.92969 0.0
H583 H 0.52808 0.23718 0.96169 0.0
H584 H 0.5944 0.28655 0.95517 0.0
H585 H 0.56716 0.28576 0.9867 0.0
H586 H 0.55203 0.23447 0.10056 0.0
H587 H 0.5257 0.23564 0.06813 0.0
H588 H 0.59563 0.28189 0.07748 0.0
H589 H 0.56833 0.28356 0.04551 0.0
H590 H 0.47724 0.2811 0.1006 0.0
H591 H 0.5038 0.28235 0.06859 0.0
H592 H 0.43723 0.23312 0.07483 0.0
H593 H 0.46429 0.23412 0.04317 0.0
N594 N 0.49019 0.25775 0.01464 0.0
N595 N 0.54144 0.26194 0.01545 0.0
H596 H 0.16201 0.34532 0.32675 0.0
H597 H 0.19129 0.37123 0.269 0.0
H598 H 0.13188 0.37081 0.33034 0.0
H599 H 0.16218 0.39703 0.27316 0.0
H600 H 0.09028 0.4309 0.27322 0.0
H601 H 0.11801 0.40405 0.27006 0.0
H602 H 0.12991 0.40368 0.33891 0.0
H603 H 0.10182 0.43045 0.34206 0.0
C604 C 0.16205 0.35643 0.31482 0.0
C605 C 0.17916 0.35619 0.2976 0.0
C606 C 0.14496 0.37116 0.31702 0.0
C607 C 0.14453 0.386 0.30203 0.0
C608 C 0.16168 0.38574 0.28486 0.0
C609 C 0.17868 0.37104 0.28264 0.0
C610 C 0.09887 0.42511 0.28768 0.0
C611 C 0.09398 0.4329 0.30787 0.0
C612 C 0.11483 0.40973 0.28588 0.0
C613 C 0.12644 0.40176 0.30421 0.0
C614 C 0.12111 0.40931 0.32447 0.0
C615 C 0.10502 0.42468 0.32629 0.0
H616 H 0.19722 0.65591 0.75436 0.0
H617 H 0.15281 0.6885 0.70917 0.0
H618 H 0.16834 0.62951 0.74942 0.0
H619 H 0.12394 0.66191 0.70409 0.0
H620 H 0.09296 0.60324 0.68569 0.0
H621 H 0.122 0.62992 0.68942 0.0
H622 H 0.12462 0.62101 0.75817 0.0
H623 H 0.09629 0.5941 0.7544 0.0
C624 C 0.18119 0.65751 0.74348 0.0
C625 C 0.17725 0.67443 0.73232 0.0
C626 C 0.16462 0.64234 0.74063 0.0
C627 C 0.1437 0.64363 0.72649 0.0
C628 C 0.14 0.6604 0.71497 0.0
C629 C 0.15657 0.67564 0.71787 0.0
C630 C 0.09986 0.60692 0.70158 0.0
C631 C 0.0923 0.59651 0.71974 0.0
C632 C 0.11631 0.62232 0.70374 0.0
C633 C 0.1257 0.62757 0.72409 0.0
C634 C 0.11799 0.61722 0.74223 0.0
C635 C 0.10149 0.60191 0.74009 0.0
H636 H 0.88588 0.68509 0.27078 0.0
H637 H 0.84329 0.66721 0.32634 0.0
H638 H 0.91401 0.6585 0.27546 0.0
H639 H 0.87134 0.64047 0.33095 0.0
H640 H 0.94102 0.60354 0.34348 0.0
H641 H 0.91426 0.63114 0.34035 0.0
H642 H 0.91239 0.62509 0.27129 0.0
H643 H 0.93914 0.59765 0.27443 0.0
C644 C 0.88247 0.67543 0.28396 0.0
C645 C 0.86222 0.67822 0.2981 0.0
C646 C 0.89857 0.66016 0.28662 0.0
C647 C 0.89484 0.64722 0.30347 0.0
C648 C 0.87495 0.65025 0.31794 0.0
C649 C 0.85885 0.66558 0.31529 0.0
C650 C 0.93475 0.60805 0.32765 0.0
C651 C 0.94233 0.59841 0.3092 0.0
C652 C 0.9194 0.62387 0.32585 0.0
C653 C 0.91124 0.63042 0.30555 0.0
C654 C 0.91873 0.62069 0.28714 0.0
C655 C 0.93407 0.60492 0.28894 0.0
H656 H 0.88864 0.33749 0.68352 0.0
H657 H 0.85516 0.35268 0.74397 0.0
H658 H 0.914 0.36607 0.68394 0.0
H659 H 0.87944 0.3818 0.74375 0.0
H660 H 0.94621 0.42293 0.74819 0.0
H661 H 0.92146 0.39394 0.74824 0.0
H662 H 0.9106 0.399 0.67946 0.0
H663 H 0.93577 0.42777 0.67943 0.0
C664 C 0.88668 0.34689 0.69694 0.0
C665 C 0.86985 0.34267 0.71375 0.0
C666 C 0.90099 0.36346 0.69702 0.0
C667 C 0.89877 0.37634 0.71384 0.0
C668 C 0.88191 0.37215 0.73064 0.0
C669 C 0.86768 0.35552 0.73062 0.0
C670 C 0.9384 0.41788 0.7331 0.0
C671 C 0.94298 0.42764 0.7138 0.0
C672 C 0.92415 0.40127 0.73312 0.0
C673 C 0.91397 0.39406 0.71385 0.0
C674 C 0.91849 0.40391 0.69456 0.0
C675 C 0.93289 0.42044 0.69453 0.0
H676 H 0.23641 0.16376 0.36036 0.0
H677 H 0.26684 0.19664 0.4127 0.0
H678 H 0.23893 0.13569 0.38275 0.0
H679 H 0.26972 0.16857 0.43503 0.0
H680 H 0.24529 0.11861 0.47628 0.0
H681 H 0.24334 0.14647 0.45362 0.0
H682 H 0.26813 0.11434 0.39934 0.0
H683 H 0.26883 0.08628 0.42175 0.0
C684 C 0.24392 0.16495 0.37657 0.0
C685 C 0.25135 0.18245 0.38476 0.0
C686 C 0.24541 0.14885 0.38942 0.0
C687 C 0.25448 0.14982 0.41076 0.0
C688 C 0.26219 0.16732 0.41883 0.0
C689 C 0.26059 0.18342 0.40602 0.0
C690 C 0.25007 0.11743 0.45946 0.0
C691 C 0.25714 0.10014 0.45087 0.0
C692 C 0.24928 0.13349 0.4465 0.0
C693 C 0.25562 0.13272 0.42461 0.0
C694 C 0.26284 0.11545 0.41605 0.0
C695 C 0.26357 0.09937 0.429 0.0
H696 H 0.38801 0.80055 0.81631 0.0
H697 H 0.33849 0.75726 0.84136 0.0
H698 H 0.41528 0.79759 0.84794 0.0
H699 H 0.36654 0.7536 0.87248 0.0
H700 H 0.40679 0.76695 0.93642 0.0
H701 H 0.37931 0.76927 0.90473 0.0
H702 H 0.44528 0.77727 0.86481 0.0
H703 H 0.47267 0.77524 0.8966 0.0
C704 C 0.3829 0.79039 0.82856 0.0
C705 C 0.36092 0.77921 0.82626 0.0
C706 C 0.39878 0.7885 0.84659 0.0
C707 C 0.3932 0.77532 0.86281 0.0
C708 C 0.37131 0.76405 0.86046 0.0
C709 C 0.35537 0.76599 0.84244 0.0
C710 C 0.41542 0.76904 0.92085 0.0
C711 C 0.44191 0.77095 0.91904 0.0
C712 C 0.39967 0.77034 0.90264 0.0
C713 C 0.41002 0.7735 0.88215 0.0
C714 C 0.43657 0.77518 0.88035 0.0
C715 C 0.4523 0.77398 0.89857 0.0
H716 H 0.75707 0.84198 0.39967 0.0
H717 H 0.82831 0.86165 0.37376 0.0
H718 H 0.7553 0.86949 0.42248 0.0
H719 H 0.82641 0.88931 0.39627 0.0
H720 H 0.8289 0.92627 0.45566 0.0
H721 H 0.83023 0.89873 0.43291 0.0
H722 H 0.74928 0.9026 0.42179 0.0
H723 H 0.74797 0.92998 0.44483 0.0
C724 C 0.77221 0.85229 0.39867 0.0
C725 C 0.79287 0.84958 0.38494 0.0
C726 C 0.7712 0.8681 0.41173 0.0
C727 C 0.79075 0.88165 0.41131 0.0
C728 C 0.81126 0.87901 0.39737 0.0
C729 C 0.81233 0.86316 0.38441 0.0
C730 C 0.81142 0.92129 0.44825 0.0
C731 C 0.78834 0.93033 0.45207 0.0
C732 C 0.81217 0.90551 0.43515 0.0
C733 C 0.78987 0.89841 0.42541 0.0
C734 C 0.76677 0.90746 0.42927 0.0
C735 C 0.76601 0.92319 0.44246 0.0
H736 H 0.65326 0.2897 0.81944 0.0
H737 H 0.69767 0.24537 0.84796 0.0
H738 H 0.62328 0.28733 0.84895 0.0
H739 H 0.66784 0.2431 0.87762 0.0
H740 H 0.59766 0.23312 0.91864 0.0
H741 H 0.62516 0.23413 0.88735 0.0
H742 H 0.62147 0.29443 0.88657 0.0
H743 H 0.59309 0.29337 0.91719 0.0
C744 C 0.65667 0.27949 0.83207 0.0
C745 C 0.67793 0.26779 0.83139 0.0
C746 C 0.6395 0.27815 0.84902 0.0
C747 C 0.64319 0.26511 0.86578 0.0
C748 C 0.66419 0.25314 0.86487 0.0
C749 C 0.68133 0.25444 0.84786 0.0
C750 C 0.60242 0.24659 0.91161 0.0
C751 C 0.59313 0.26317 0.92048 0.0
C752 C 0.61846 0.24718 0.89381 0.0
C753 C 0.62561 0.26436 0.88441 0.0
C754 C 0.61615 0.28092 0.8932 0.0
C755 C 0.60011 0.28033 0.91097 0.0
H756 H 0.27985 0.86014 0.65937 0.0
H757 H 0.21371 0.8413 0.62363 0.0
H758 H 0.2814 0.88849 0.63748 0.0
H759 H 0.21617 0.86909 0.60096 0.0
H760 H 0.21073 0.92961 0.57891 0.0
H761 H 0.20912 0.90179 0.60158 0.0
H762 H 0.29112 0.89978 0.60233 0.0
H763 H 0.29276 0.92825 0.58068 0.0
C764 C 0.26563 0.86201 0.64685 0.0
C765 C 0.24663 0.84837 0.64335 0.0
C766 C 0.26673 0.87819 0.63407 0.0
C767 C 0.24893 0.88114 0.61738 0.0
C768 C 0.23001 0.86746 0.61382 0.0
C769 C 0.22883 0.85134 0.62666 0.0
C770 C 0.22845 0.9234 0.58412 0.0
C771 C 0.25188 0.93128 0.57795 0.0
C772 C 0.22752 0.90725 0.59691 0.0
C773 C 0.24998 0.89843 0.6038 0.0
C774 C 0.27342 0.90627 0.59757 0.0
C775 C 0.27435 0.92249 0.58487 0.0
H776 H 0.68995 0.80429 0.18888 0.0
H777 H 0.6567 0.75386 0.21544 0.0
H778 H 0.66272 0.80135 0.15711 0.0
H779 H 0.62985 0.75065 0.18333 0.0
H780 H 0.5661 0.7648 0.1338 0.0
H781 H 0.59354 0.76638 0.16565 0.0
H782 H 0.65725 0.78127 0.12564 0.0
H783 H 0.62997 0.77952 0.09383 0.0
C784 C 0.67679 0.79258 0.18794 0.0
C785 C 0.67545 0.77934 0.20473 0.0
C786 C 0.66138 0.79079 0.16963 0.0
C787 C 0.64413 0.77575 0.16766 0.0
C788 C 0.64278 0.76248 0.18443 0.0
C789 C 0.65834 0.76422 0.20272 0.0
C790 C 0.58603 0.76819 0.13176 0.0
C791 C 0.59576 0.77215 0.11123 0.0
C792 C 0.60175 0.76911 0.15003 0.0
C793 C 0.62756 0.77406 0.14821 0.0
C794 C 0.63736 0.77775 0.12766 0.0
C795 C 0.62169 0.77677 0.10941 0.0
H796 H 0.73602 0.17999 0.63607 0.0
H797 H 0.79914 0.15759 0.67253 0.0
H798 H 0.74002 0.15501 0.60995 0.0
H799 H 0.80293 0.13238 0.64662 0.0
H800 H 0.81663 0.09798 0.58673 0.0
H801 H 0.81438 0.12476 0.61057 0.0
H802 H 0.73242 0.12221 0.60711 0.0
H803 H 0.73469 0.09612 0.58243 0.0
C804 C 0.75069 0.16966 0.63855 0.0
C805 C 0.76718 0.17073 0.65643 0.0
C806 C 0.75296 0.1553 0.6236 0.0
C807 C 0.77169 0.14155 0.6262 0.0
C808 C 0.78849 0.14283 0.64391 0.0
C809 C 0.78631 0.15728 0.6588 0.0
C810 C 0.79813 0.10331 0.59078 0.0
C811 C 0.77584 0.09482 0.58263 0.0
C812 C 0.79683 0.11854 0.6047 0.0
C813 C 0.77322 0.12567 0.61087 0.0
C814 C 0.75096 0.11728 0.60255 0.0
C815 C 0.75225 0.10211 0.58859 0.0
H816 H 0.34171 0.22658 0.18537 0.0
H817 H 0.37768 0.27591 0.21182 0.0
H818 H 0.36895 0.22884 0.15403 0.0
H819 H 0.40515 0.27811 0.18052 0.0
H820 H 0.43302 0.28612 0.11116 0.0
H821 H 0.40527 0.28472 0.14232 0.0
H822 H 0.41264 0.22465 0.14449 0.0
H823 H 0.44018 0.22606 0.1133 0.0
C824 C 0.35556 0.23785 0.18456 0.0
C825 C 0.35758 0.25101 0.20116 0.0
C826 C 0.37123 0.23913 0.16659 0.0
C827 C 0.3894 0.25359 0.16478 0.0
C828 C 0.39118 0.26692 0.18125 0.0
C829 C 0.37543 0.26566 0.19921 0.0
C830 C 0.42888 0.27264 0.11841 0.0
C831 C 0.43876 0.25619 0.10967 0.0
C832 C 0.41297 0.27183 0.13629 0.0
C833 C 0.40658 0.25457 0.14589 0.0
C834 C 0.41671 0.23816 0.13727 0.0
C835 C 0.43255 0.23896 0.11939 0.0
H836 H 0.82695 0.65543 0.7127 0.0
H837 H 0.88784 0.68649 0.74332 0.0
H838 H 0.85545 0.62927 0.70734 0.0
H839 H 0.91631 0.66023 0.73831 0.0
H840 H 0.96685 0.6152 0.71082 0.0
H841 H 0.93894 0.64215 0.71253 0.0
H842 H 0.87591 0.60555 0.72815 0.0
H843 H 0.90343 0.57863 0.72538 0.0
C844 C 0.84643 0.65663 0.71835 0.0
C845 C 0.85509 0.673 0.72853 0.0
C846 C 0.86277 0.64162 0.71533 0.0
C847 C 0.88818 0.64254 0.72253 0.0
C848 C 0.89698 0.65909 0.7323 0.0
C849 C 0.88065 0.67415 0.73521 0.0
C850 C 0.94695 0.61288 0.71432 0.0
C851 C 0.93745 0.59471 0.71803 0.0
C852 C 0.931 0.62837 0.71555 0.0
C853 C 0.90514 0.62608 0.72053 0.0
C854 C 0.89562 0.60788 0.72402 0.0
C855 C 0.91153 0.59242 0.72274 0.0
H856 H 0.83873 0.37125 0.2734 0.0
H857 H 0.87589 0.3431 0.32661 0.0
H858 H 0.86776 0.39763 0.27736 0.0
H859 H 0.90586 0.36918 0.32988 0.0
H860 H 0.93797 0.42792 0.34373 0.0
H861 H 0.90868 0.40143 0.3407 0.0
H862 H 0.91113 0.40604 0.27145 0.0
H863 H 0.9393 0.43304 0.27448 0.0
C864 C 0.85304 0.37069 0.28601 0.0
C865 C 0.85483 0.35503 0.29974 0.0
C866 C 0.86998 0.38574 0.28808 0.0
C867 C 0.8893 0.38554 0.30387 0.0
C868 C 0.89109 0.3699 0.31766 0.0
C869 C 0.87407 0.35484 0.31562 0.0
C870 C 0.93207 0.42339 0.32786 0.0
C871 C 0.94099 0.43269 0.30936 0.0
C872 C 0.91551 0.40803 0.32612 0.0
C873 C 0.90745 0.40158 0.30583 0.0
C874 C 0.91662 0.41076 0.28735 0.0
C875 C 0.9331 0.42612 0.28909 0.0
H876 H 0.15014 0.34481 0.75718 0.0
H877 H 0.19281 0.36264 0.70165 0.0
H878 H 0.1218 0.37124 0.75228 0.0
H879 H 0.16453 0.38923 0.6968 0.0
H880 H 0.09435 0.42581 0.68409 0.0
H881 H 0.12142 0.39837 0.68732 0.0
H882 H 0.12343 0.4047 0.75633 0.0
H883 H 0.09641 0.43198 0.75311 0.0
C884 C 0.15352 0.35442 0.74396 0.0
C885 C 0.17386 0.35168 0.72991 0.0
C886 C 0.1373 0.36961 0.74116 0.0
C887 C 0.141 0.38249 0.72426 0.0
C888 C 0.16095 0.37949 0.70986 0.0
C889 C 0.17718 0.36425 0.71264 0.0
C890 C 0.10072 0.4214 0.69994 0.0
C891 C 0.09308 0.43105 0.71835 0.0
C892 C 0.11624 0.40567 0.70179 0.0
C893 C 0.1245 0.39923 0.7221 0.0
C894 C 0.11701 0.409 0.74047 0.0
C895 C 0.1015 0.42468 0.73862 0.0
H896 H 0.18686 0.67192 0.34561 0.0
H897 H 0.14771 0.69171 0.28862 0.0
H898 H 0.16168 0.64316 0.34477 0.0
H899 H 0.12215 0.66312 0.28794 0.0
H900 H 0.09749 0.60231 0.28087 0.0
H901 H 0.12399 0.63037 0.28134 0.0
H902 H 0.11965 0.63163 0.35066 0.0
H903 H 0.09435 0.60299 0.35026 0.0
C904 C 0.17272 0.67018 0.33299 0.0
C905 C 0.16928 0.68411 0.31719 0.0
C906 C 0.15821 0.6537 0.33253 0.0
C907 C 0.13977 0.65078 0.31632 0.0
C908 C 0.13643 0.66472 0.30047 0.0
C909 C 0.15106 0.68114 0.30086 0.0
C910 C 0.10245 0.60842 0.29625 0.0
C911 C 0.09377 0.60031 0.31553 0.0
C912 C 0.1174 0.62469 0.2965 0.0
C913 C 0.12398 0.63335 0.31604 0.0
C914 C 0.11526 0.62525 0.33531 0.0
C915 C 0.10041 0.60894 0.33507 0.0
H916 H 0.80134 0.86516 0.67137 0.0
H917 H 0.77134 0.8324 0.61875 0.0
H918 H 0.79936 0.89324 0.64895 0.0
H919 H 0.769 0.86048 0.59638 0.0
H920 H 0.79431 0.9103 0.55536 0.0
H921 H 0.79585 0.88245 0.57807 0.0
H922 H 0.77048 0.91468 0.63208 0.0
H923 H 0.77018 0.94273 0.60963 0.0
C924 C 0.79404 0.864 0.65509 0.0
C925 C 0.78658 0.84653 0.64683 0.0
C926 C 0.79286 0.8801 0.64222 0.0
C927 C 0.78407 0.87916 0.6208 0.0
C928 C 0.77632 0.8617 0.61265 0.0
C929 C 0.77762 0.84559 0.62549 0.0
C930 C 0.78931 0.91151 0.57213 0.0
C931 C 0.78218 0.92882 0.58064 0.0
C932 C 0.78987 0.89546 0.58511 0.0
C933 C 0.78324 0.89626 0.60694 0.0
C934 C 0.77599 0.91355 0.61542 0.0
C935 C 0.77549 0.92962 0.60245 0.0
H936 H 0.69176 0.22655 0.18604 0.0
H937 H 0.65333 0.27258 0.21564 0.0
H938 H 0.66445 0.22959 0.15436 0.0
H939 H 0.6257 0.27549 0.18406 0.0
H940 H 0.5964 0.28674 0.1157 0.0
H941 H 0.62489 0.2845 0.14676 0.0
H942 H 0.62147 0.22425 0.14314 0.0
H943 H 0.59412 0.2265 0.11149 0.0
C944 C 0.67733 0.23724 0.18584 0.0
C945 C 0.67467 0.24927 0.20341 0.0
C946 C 0.66162 0.23897 0.16769 0.0
C947 C 0.64273 0.25273 0.16665 0.0
C948 C 0.64025 0.2649 0.18415 0.0
C949 C 0.65607 0.26322 0.20228 0.0
C950 C 0.60195 0.27301 0.12139 0.0
C951 C 0.59292 0.25681 0.11103 0.0
C952 C 0.61806 0.27172 0.13938 0.0
C953 C 0.62553 0.25419 0.14751 0.0
C954 C 0.61642 0.23799 0.13719 0.0
C955 C 0.60039 0.23929 0.11918 0.0
H956 H 0.28141 0.18805 0.62971 0.0
H957 H 0.21012 0.16829 0.65545 0.0
H958 H 0.2837 0.16025 0.60739 0.0
H959 H 0.21256 0.14035 0.63346 0.0
H960 H 0.21097 0.1026 0.57479 0.0
H961 H 0.20917 0.13044 0.59701 0.0
H962 H 0.29008 0.12719 0.60864 0.0
H963 H 0.29187 0.09951 0.5861 0.0
C964 C 0.26636 0.17766 0.63077 0.0
C965 C 0.24554 0.18042 0.6443 0.0
C966 C 0.26768 0.16169 0.618 0.0
C967 C 0.24828 0.14802 0.61853 0.0
C968 C 0.22761 0.15072 0.63228 0.0
C969 C 0.22622 0.16673 0.64494 0.0
C970 C 0.22834 0.10778 0.5822 0.0
C971 C 0.25155 0.09882 0.57869 0.0
C972 C 0.22732 0.12373 0.595 0.0
C973 C 0.24947 0.13109 0.60473 0.0
C974 C 0.2727 0.12212 0.60116 0.0
C975 C 0.27373 0.10622 0.58826 0.0
H976 H 0.33072 0.78152 0.1781 0.0
H977 H 0.38467 0.74723 0.21274 0.0
H978 H 0.36027 0.78441 0.14823 0.0
H979 H 0.41397 0.74977 0.18268 0.0
H980 H 0.46963 0.77263 0.13248 0.0
H981 H 0.4411 0.7725 0.16324 0.0
H982 H 0.37702 0.76362 0.12047 0.0
H983 H 0.40542 0.76418 0.08975 0.0
C984 C 0.34898 0.77474 0.17942 0.0
C985 C 0.35531 0.7641 0.19777 0.0
C986 C 0.3658 0.77624 0.16222 0.0
C987 C 0.38943 0.76724 0.16303 0.0
C988 C 0.39601 0.75698 0.1816 0.0
C989 C 0.37912 0.75538 0.19874 0.0
C990 C 0.44942 0.77083 0.12965 0.0
C991 C 0.4398 0.76836 0.10868 0.0
C992 C 0.43311 0.77059 0.14728 0.0
C993 C 0.40679 0.76804 0.14431 0.0
C994 C 0.39716 0.7658 0.1233 0.0
C995 C 0.41347 0.76591 0.10572 0.0
H996 H 0.75388 0.18463 0.39885 0.0
H997 H 0.82654 0.16751 0.37472 0.0
H998 H 0.75232 0.1569 0.42188 0.0
H999 H 0.82486 0.13962 0.39743 0.0
H1000 H 0.82684 0.10233 0.45716 0.0
H1001 H 0.82787 0.13011 0.43425 0.0
H1002 H 0.74745 0.12361 0.4214 0.0
H1003 H 0.74642 0.09597 0.44461 0.0
C1004 C 0.76938 0.17482 0.39828 0.0
C1005 C 0.79036 0.17831 0.38499 0.0
C1006 C 0.76849 0.15889 0.41147 0.0
C1007 C 0.7885 0.14599 0.41161 0.0
C1008 C 0.80934 0.14941 0.39809 0.0
C1009 C 0.81028 0.16538 0.38501 0.0
C1010 C 0.80941 0.10679 0.44935 0.0
C1011 C 0.78656 0.09692 0.4527 0.0
C1012 C 0.81 0.1227 0.43615 0.0
C1013 C 0.78777 0.12912 0.42586 0.0
C1014 C 0.76488 0.11927 0.42929 0.0
C1015 C 0.76427 0.1034 0.44259 0.0
H1016 H 0.34596 0.22479 0.84017 0.0
H1017 H 0.37871 0.27577 0.81464 0.0
H1018 H 0.37318 0.22733 0.87193 0.0
H1019 H 0.40621 0.27825 0.84637 0.0
H1020 H 0.43329 0.28587 0.91649 0.0
H1021 H 0.40594 0.28415 0.8846 0.0
H1022 H 0.41703 0.22445 0.88231 0.0
H1023 H 0.44411 0.22618 0.91423 0.0
C1024 C 0.35913 0.23647 0.84126 0.0
C1025 C 0.36024 0.25003 0.82481 0.0
C1026 C 0.37479 0.23792 0.85948 0.0
C1027 C 0.39205 0.25293 0.86169 0.0
C1028 C 0.39295 0.26662 0.84534 0.0
C1029 C 0.3772 0.2652 0.82713 0.0
C1030 C 0.43005 0.27241 0.90905 0.0
C1031 C 0.44079 0.25615 0.91797 0.0
C1032 C 0.41438 0.27142 0.89075 0.0
C1033 C 0.40913 0.25414 0.88091 0.0
C1034 C 0.42021 0.23794 0.8897 0.0
C1035 C 0.43579 0.23892 0.90799 0.0
H1036 H 0.2391 0.87698 0.35379 0.0
H1037 H 0.2884 0.84581 0.39654 0.0
H1038 H 0.23661 0.90184 0.38032 0.0
H1039 H 0.28547 0.8705 0.42328 0.0
H1040 H 0.29985 0.92924 0.45193 0.0
H1041 H 0.30056 0.90311 0.42697 0.0
H1042 H 0.21975 0.90844 0.41638 0.0
H1043 H 0.21914 0.93487 0.44099 0.0
C1044 C 0.24932 0.87541 0.36889 0.0
C1045 C 0.26402 0.85945 0.37301 0.0
C1046 C 0.2477 0.88957 0.38418 0.0
C1047 C 0.26089 0.88817 0.4039 0.0
C1048 C 0.27529 0.87208 0.40816 0.0
C1049 C 0.27676 0.85786 0.39292 0.0
C1050 C 0.28225 0.92487 0.44423 0.0
C1051 C 0.25946 0.93419 0.44839 0.0
C1052 C 0.28261 0.90977 0.4301 0.0
C1053 C 0.26022 0.90369 0.41967 0.0
C1054 C 0.23737 0.91288 0.424 0.0
C1055 C 0.23698 0.92791 0.43826 0.0
H1056 H 0.69768 0.75755 0.84476 0.0
H1057 H 0.64629 0.79718 0.81534 0.0
H1058 H 0.67008 0.75519 0.87597 0.0
H1059 H 0.6189 0.79493 0.84658 0.0
H1060 H 0.59276 0.80259 0.91598 0.0
H1061 H 0.61982 0.80394 0.88444 0.0
H1062 H 0.62773 0.74393 0.88696 0.0
H1063 H 0.6012 0.74264 0.91894 0.0
C1064 C 0.68039 0.76562 0.84483 0.0
C1065 C 0.67432 0.77764 0.82755 0.0
C1066 C 0.66458 0.76427 0.86274 0.0
C1067 C 0.64235 0.77495 0.86383 0.0
C1068 C 0.63611 0.78677 0.84644 0.0
C1069 C 0.65186 0.78807 0.82853 0.0
C1070 C 0.60042 0.78969 0.90991 0.0
C1071 C 0.59486 0.77252 0.92002 0.0
C1072 C 0.61571 0.79044 0.89169 0.0
C1073 C 0.62591 0.77404 0.88314 0.0
C1074 C 0.62035 0.75684 0.89324 0.0
C1075 C 0.60493 0.75608 0.91143 0.0
loop_
_geom_bond_atom_site_label_1
_geom_bond_atom_site_label_2
_geom_bond_distance
_geom_bond_site_symmetry_2
_ccdc_geom_bond_type
C0 C1 1.264 . S
C0 C5 1.479 . S
C0 C10 1.465 . S
C1 C0 1.264 . S
C1 C3 1.339 . S
C1 H28 0.931 . S
C2 C3 1.395 . S
C2 C4 1.320 . S
C3 C1 1.339 . S
C3 C2 1.395 . S
C3 H29 0.929 . S
C4 C2 1.320 . S
C4 C5 1.405 . S
C4 H30 0.930 . S
C5 C0 1.479 . S
C5 C4 1.405 . S
C5 H31 0.931 . S
U6 O7 2.454 . S
U6 O8 2.458 . S
U6 C9 2.984 . S
U6 C10 2.847 . S
U6 C23 2.882 . S
U6 O24 2.441 . S
U6 O25 2.420 . S
U6 O26 2.455 . S
U6 O27 2.449 . S
O7 U6 2.454 . S
O7 C9 1.353 . S
O8 U6 2.458 . S
O8 C9 1.286 . S
C9 U6 2.984 . S
C9 O7 1.353 . S
C9 O8 1.286 . S
C9 C11 1.363 . S
C10 C0 1.465 . S
C10 U6 2.847 . S
C10 O24 1.249 . S
C10 O25 1.202 . S
C11 C9 1.363 . S
C11 C13 1.408 . S
C11 C16 1.342 . S
C12 C13 1.310 . S
C12 C15 1.461 . S
C12 H32 0.932 . S
C13 C11 1.408 . S
C13 C12 1.310 . S
C13 H33 0.930 . S
C14 C15 1.474 . S
C14 C16 1.285 . S
C14 H34 0.929 . S
C15 C12 1.461 . S
C15 C14 1.474 . S
C16 C11 1.342 . S
C16 C14 1.285 . S
C16 H35 0.930 . S
C17 C20 1.424 . S
C17 C22 1.245 . S
C17 C23 1.428 . S
C18 C21 1.260 . S
C18 C22 1.477 . S
C18 H36 0.932 . S
C19 C20 1.384 . S
C19 C21 1.479 . S
C19 H37 0.929 . S
C20 C17 1.424 . S
C20 C19 1.384 . S
C20 H38 0.928 . S
C21 C18 1.260 . S
C21 C19 1.479 . S
C22 C17 1.245 . S
C22 C18 1.477 . S
C22 H39 0.932 . S
C23 U6 2.882 . S
C23 C17 1.428 . S
C23 O26 1.301 . S
C23 O27 1.282 . S
O24 U6 2.441 . S
O24 C10 1.249 . S
O25 U6 2.420 . S
O25 C10 1.202 . S
O26 U6 2.455 . S
O26 C23 1.301 . S
O27 U6 2.449 . S
O27 C23 1.282 . S
H28 C1 0.931 . S
H29 C3 0.929 . S
H30 C4 0.930 . S
H31 C5 0.931 . S
H32 C12 0.932 . S
H33 C13 0.930 . S
H34 C14 0.929 . S
H35 C16 0.930 . S
H36 C18 0.932 . S
H37 C19 0.929 . S
H38 C20 0.928 . S
H39 C22 0.932 . S
C40 C41 1.264 . S
C40 C45 1.479 . S
C40 C50 1.465 . S
C41 C40 1.264 . S
C41 C43 1.339 . S
C41 H68 0.931 . S
C42 C43 1.395 . S
C42 C44 1.320 . S
C43 C41 1.339 . S
C43 C42 1.395 . S
C43 H69 0.929 . S
C44 C42 1.320 . S
C44 C45 1.405 . S
C44 H70 0.930 . S
C45 C40 1.479 . S
C45 C44 1.405 . S
C45 H71 0.931 . S
U46 O47 2.454 . S
U46 O48 2.458 . S
U46 C49 2.984 . S
U46 C50 2.847 . S
U46 C63 2.882 . S
U46 O64 2.441 . S
U46 O65 2.420 . S
U46 O66 2.455 . S
U46 O67 2.449 . S
O47 U46 2.454 . S
O47 C49 1.353 . S
O48 U46 2.458 . S
O48 C49 1.286 . S
C49 U46 2.984 . S
C49 O47 1.353 . S
C49 O48 1.286 . S
C49 C51 1.363 . S
C50 C40 1.465 . S
C50 U46 2.847 . S
C50 O64 1.249 . S
C50 O65 1.202 . S
C51 C49 1.363 . S
C51 C53 1.408 . S
C51 C56 1.342 . S
C52 C53 1.310 . S
C52 C55 1.461 . S
C52 H72 0.932 . S
C53 C51 1.408 . S
C53 C52 1.310 . S
C53 H73 0.930 . S
C54 C55 1.474 . S
C54 C56 1.285 . S
C54 H74 0.929 . S
C55 C52 1.461 . S
C55 C54 1.474 . S
C56 C51 1.342 . S
C56 C54 1.285 . S
C56 H75 0.930 . S
C57 C60 1.424 . S
C57 C62 1.245 . S
C57 C63 1.428 . S
C58 C61 1.260 . S
C58 C62 1.477 . S
C58 H76 0.932 . S
C59 C60 1.384 . S
C59 C61 1.479 . S
C59 H77 0.929 . S
C60 C57 1.424 . S
C60 C59 1.384 . S
C60 H78 0.928 . S
C61 C58 1.260 . S
C61 C59 1.479 . S
C62 C57 1.245 . S
C62 C58 1.477 . S
C62 H79 0.932 . S
C63 U46 2.882 . S
C63 C57 1.428 . S
C63 O66 1.301 . S
C63 O67 1.282 . S
O64 U46 2.441 . S
O64 C50 1.249 . S
O65 U46 2.420 . S
O65 C50 1.202 . S
O66 U46 2.455 . S
O66 C63 1.301 . S
O67 U46 2.449 . S
O67 C63 1.282 . S
H68 C41 0.931 . S
H69 C43 0.929 . S
H70 C44 0.930 . S
H71 C45 0.931 . S
H72 C52 0.932 . S
H73 C53 0.930 . S
H74 C54 0.929 . S
H75 C56 0.930 . S
H76 C58 0.932 . S
H77 C59 0.929 . S
H78 C60 0.928 . S
H79 C62 0.932 . S
C80 C81 1.264 . S
C80 C85 1.479 . S
C80 C90 1.465 . S
C81 C80 1.264 . S
C81 C83 1.339 . S
C81 H108 0.931 . S
C82 C83 1.395 . S
C82 C84 1.320 . S
C83 C81 1.339 . S
C83 C82 1.395 . S
C83 H109 0.929 . S
C84 C82 1.320 . S
C84 C85 1.405 . S
C84 H110 0.930 . S
C85 C80 1.479 . S
C85 C84 1.405 . S
C85 H111 0.931 . S
U86 O87 2.454 . S
U86 O88 2.458 . S
U86 C89 2.984 . S
U86 C90 2.847 . S
U86 C103 2.882 . S
U86 O104 2.441 . S
U86 O105 2.420 . S
U86 O106 2.455 . S
U86 O107 2.449 . S
O87 U86 2.454 . S
O87 C89 1.353 . S
O88 U86 2.458 . S
O88 C89 1.286 . S
C89 U86 2.984 . S
C89 O87 1.353 . S
C89 O88 1.286 . S
C89 C91 1.363 . S
C90 C80 1.465 . S
C90 U86 2.847 . S
C90 O104 1.249 . S
C90 O105 1.202 . S
C91 C89 1.363 . S
C91 C93 1.408 . S
C91 C96 1.342 . S
C92 C93 1.310 . S
C92 C95 1.461 . S
C92 H112 0.932 . S
C93 C91 1.408 . S
C93 C92 1.310 . S
C93 H113 0.930 . S
C94 C95 1.474 . S
C94 C96 1.285 . S
C94 H114 0.929 . S
C95 C92 1.461 . S
C95 C94 1.474 . S
C96 C91 1.342 . S
C96 C94 1.285 . S
C96 H115 0.930 . S
C97 C100 1.424 . S
C97 C102 1.245 . S
C97 C103 1.428 . S
C98 C101 1.260 . S
C98 C102 1.477 . S
C98 H116 0.932 . S
C99 C100 1.384 . S
C99 C101 1.479 . S
C99 H117 0.929 . S
C100 C97 1.424 . S
C100 C99 1.384 . S
C100 H118 0.928 . S
C101 C98 1.260 . S
C101 C99 1.479 . S
C102 C97 1.245 . S
C102 C98 1.477 . S
C102 H119 0.932 . S
C103 U86 2.882 . S
C103 C97 1.428 . S
C103 O106 1.301 . S
C103 O107 1.282 . S
O104 U86 2.441 . S
O104 C90 1.249 . S
O105 U86 2.420 . S
O105 C90 1.202 . S
O106 U86 2.455 . S
O106 C103 1.301 . S
O107 U86 2.449 . S
O107 C103 1.282 . S
H108 C81 0.931 . S
H109 C83 0.929 . S
H110 C84 0.930 . S
H111 C85 0.931 . S
H112 C92 0.932 . S
H113 C93 0.930 . S
H114 C94 0.929 . S
H115 C96 0.930 . S
H116 C98 0.932 . S
H117 C99 0.929 . S
H118 C100 0.928 . S
H119 C102 0.932 . S
C120 C121 1.264 . S
C120 C125 1.479 . S
C120 C130 1.465 . S
C121 C120 1.264 . S
C121 C123 1.339 . S
C121 H148 0.931 . S
C122 C123 1.395 . S
C122 C124 1.320 . S
C123 C121 1.339 . S
C123 C122 1.395 . S
C123 H149 0.929 . S
C124 C122 1.320 . S
C124 C125 1.405 . S
C124 H150 0.930 . S
C125 C120 1.479 . S
C125 C124 1.405 . S
C125 H151 0.931 . S
U126 O127 2.454 . S
U126 O128 2.458 . S
U126 C129 2.984 . S
U126 C130 2.847 . S
U126 C143 2.882 . S
U126 O144 2.441 . S
U126 O145 2.420 . S
U126 O146 2.455 . S
U126 O147 2.449 . S
O127 U126 2.454 . S
O127 C129 1.353 . S
O128 U126 2.458 . S
O128 C129 1.286 . S
C129 U126 2.984 . S
C129 O127 1.353 . S
C129 O128 1.286 . S
C129 C131 1.363 . S
C130 C120 1.465 . S
C130 U126 2.847 . S
C130 O144 1.249 . S
C130 O145 1.202 . S
C131 C129 1.363 . S
C131 C133 1.408 . S
C131 C136 1.342 . S
C132 C133 1.310 . S
C132 C135 1.461 . S
C132 H152 0.932 . S
C133 C131 1.408 . S
C133 C132 1.310 . S
C133 H153 0.930 . S
C134 C135 1.474 . S
C134 C136 1.285 . S
C134 H154 0.929 . S
C135 C132 1.461 . S
C135 C134 1.474 . S
C136 C131 1.342 . S
C136 C134 1.285 . S
C136 H155 0.930 . S
C137 C140 1.424 . S
C137 C142 1.245 . S
C137 C143 1.428 . S
C138 C141 1.260 . S
C138 C142 1.477 . S
C138 H156 0.932 . S
C139 C140 1.384 . S
C139 C141 1.479 . S
C139 H157 0.929 . S
C140 C137 1.424 . S
C140 C139 1.384 . S
C140 H158 0.928 . S
C141 C138 1.260 . S
C141 C139 1.479 . S
C142 C137 1.245 . S
C142 C138 1.477 . S
C142 H159 0.932 . S
C143 U126 2.882 . S
C143 C137 1.428 . S
C143 O146 1.301 . S
C143 O147 1.282 . S
O144 U126 2.441 . S
O144 C130 1.249 . S
O145 U126 2.420 . S
O145 C130 1.202 . S
O146 U126 2.455 . S
O146 C143 1.301 . S
O147 U126 2.449 . S
O147 C143 1.282 . S
H148 C121 0.931 . S
H149 C123 0.929 . S
H150 C124 0.930 . S
H151 C125 0.931 . S
H152 C132 0.932 . S
H153 C133 0.930 . S
H154 C134 0.929 . S
H155 C136 0.930 . S
H156 C138 0.932 . S
H157 C139 0.929 . S
H158 C140 0.928 . S
H159 C142 0.932 . S
C160 C161 1.264 . S
C160 C165 1.479 . S
C160 C170 1.465 . S
C161 C160 1.264 . S
C161 C163 1.339 . S
C161 H188 0.931 . S
C162 C163 1.395 . S
C162 C164 1.320 . S
C163 C161 1.339 . S
C163 C162 1.395 . S
C163 H189 0.929 . S
C164 C162 1.320 . S
C164 C165 1.405 . S
C164 H190 0.930 . S
C165 C160 1.479 . S
C165 C164 1.405 . S
C165 H191 0.931 . S
U166 O167 2.454 . S
U166 O168 2.458 . S
U166 C169 2.984 . S
U166 C170 2.847 . S
U166 C183 2.882 . S
U166 O184 2.441 . S
U166 O185 2.420 . S
U166 O186 2.455 . S
U166 O187 2.449 . S
O167 U166 2.454 . S
O167 C169 1.353 . S
O168 U166 2.458 . S
O168 C169 1.286 . S
C169 U166 2.984 . S
C169 O167 1.353 . S
C169 O168 1.286 . S
C169 C171 1.363 . S
C170 C160 1.465 . S
C170 U166 2.847 . S
C170 O184 1.249 . S
C170 O185 1.202 . S
C171 C169 1.363 . S
C171 C173 1.408 . S
C171 C176 1.342 . S
C172 C173 1.310 . S
C172 C175 1.461 . S
C172 H192 0.932 . S
C173 C171 1.408 . S
C173 C172 1.310 . S
C173 H193 0.930 . S
C174 C175 1.474 . S
C174 C176 1.285 . S
C174 H194 0.929 . S
C175 C172 1.461 . S
C175 C174 1.474 . S
C176 C171 1.342 . S
C176 C174 1.285 . S
C176 H195 0.930 . S
C177 C180 1.424 . S
C177 C182 1.245 . S
C177 C183 1.428 . S
C178 C181 1.260 . S
C178 C182 1.477 . S
C178 H196 0.932 . S
C179 C180 1.384 . S
C179 C181 1.479 . S
C179 H197 0.929 . S
C180 C177 1.424 . S
C180 C179 1.384 . S
C180 H198 0.928 . S
C181 C178 1.260 . S
C181 C179 1.479 . S
C182 C177 1.245 . S
C182 C178 1.477 . S
C182 H199 0.932 . S
C183 U166 2.882 . S
C183 C177 1.428 . S
C183 O186 1.301 . S
C183 O187 1.282 . S
O184 U166 2.441 . S
O184 C170 1.249 . S
O185 U166 2.420 . S
O185 C170 1.202 . S
O186 U166 2.455 . S
O186 C183 1.301 . S
O187 U166 2.449 . S
O187 C183 1.282 . S
H188 C161 0.931 . S
H189 C163 0.929 . S
H190 C164 0.930 . S
H191 C165 0.931 . S
H192 C172 0.932 . S
H193 C173 0.930 . S
H194 C174 0.929 . S
H195 C176 0.930 . S
H196 C178 0.932 . S
H197 C179 0.929 . S
H198 C180 0.928 . S
H199 C182 0.932 . S
C200 C201 1.264 . S
C200 C205 1.479 . S
C200 C210 1.465 . S
C201 C200 1.264 . S
C201 C203 1.339 . S
C201 H228 0.931 . S
C202 C203 1.395 . S
C202 C204 1.320 . S
C203 C201 1.339 . S
C203 C202 1.395 . S
C203 H229 0.929 . S
C204 C202 1.320 . S
C204 C205 1.405 . S
C204 H230 0.930 . S
C205 C200 1.479 . S
C205 C204 1.405 . S
C205 H231 0.931 . S
U206 O207 2.454 . S
U206 O208 2.458 . S
U206 C209 2.984 . S
U206 C210 2.847 . S
U206 C223 2.882 . S
U206 O224 2.441 . S
U206 O225 2.420 . S
U206 O226 2.455 . S
U206 O227 2.449 . S
O207 U206 2.454 . S
O207 C209 1.353 . S
O208 U206 2.458 . S
O208 C209 1.286 . S
C209 U206 2.984 . S
C209 O207 1.353 . S
C209 O208 1.286 . S
C209 C211 1.363 . S
C210 C200 1.465 . S
C210 U206 2.847 . S
C210 O224 1.249 . S
C210 O225 1.202 . S
C211 C209 1.363 . S
C211 C213 1.408 . S
C211 C216 1.342 . S
C212 C213 1.310 . S
C212 C215 1.461 . S
C212 H232 0.932 . S
C213 C211 1.408 . S
C213 C212 1.310 . S
C213 H233 0.930 . S
C214 C215 1.474 . S
C214 C216 1.285 . S
C214 H234 0.929 . S
C215 C212 1.461 . S
C215 C214 1.474 . S
C216 C211 1.342 . S
C216 C214 1.285 . S
C216 H235 0.930 . S
C217 C220 1.424 . S
C217 C222 1.245 . S
C217 C223 1.428 . S
C218 C221 1.260 . S
C218 C222 1.477 . S
C218 H236 0.932 . S
C219 C220 1.384 . S
C219 C221 1.479 . S
C219 H237 0.929 . S
C220 C217 1.424 . S
C220 C219 1.384 . S
C220 H238 0.928 . S
C221 C218 1.260 . S
C221 C219 1.479 . S
C222 C217 1.245 . S
C222 C218 1.477 . S
C222 H239 0.932 . S
C223 U206 2.882 . S
C223 C217 1.428 . S
C223 O226 1.301 . S
C223 O227 1.282 . S
O224 U206 2.441 . S
O224 C210 1.249 . S
O225 U206 2.420 . S
O225 C210 1.202 . S
O226 U206 2.455 . S
O226 C223 1.301 . S
O227 U206 2.449 . S
O227 C223 1.282 . S
H228 C201 0.931 . S
H229 C203 0.929 . S
H230 C204 0.930 . S
H231 C205 0.931 . S
H232 C212 0.932 . S
H233 C213 0.930 . S
H234 C214 0.929 . S
H235 C216 0.930 . S
H236 C218 0.932 . S
H237 C219 0.929 . S
H238 C220 0.928 . S
H239 C222 0.932 . S
C240 C241 1.264 . S
C240 C245 1.479 . S
C240 C250 1.465 . S
C241 C240 1.264 . S
C241 C243 1.339 . S
C241 H268 0.931 . S
C242 C243 1.395 . S
C242 C244 1.320 . S
C243 C241 1.339 . S
C243 C242 1.395 . S
C243 H269 0.929 . S
C244 C242 1.320 . S
C244 C245 1.405 . S
C244 H270 0.930 . S
C245 C240 1.479 . S
C245 C244 1.405 . S
C245 H271 0.931 . S
U246 O247 2.454 . S
U246 O248 2.458 . S
U246 C249 2.984 . S
U246 C250 2.847 . S
U246 C263 2.882 . S
U246 O264 2.441 . S
U246 O265 2.420 . S
U246 O266 2.455 . S
U246 O267 2.449 . S
O247 U246 2.454 . S
O247 C249 1.353 . S
O248 U246 2.458 . S
O248 C249 1.286 . S
C249 U246 2.984 . S
C249 O247 1.353 . S
C249 O248 1.286 . S
C249 C251 1.363 . S
C250 C240 1.465 . S
C250 U246 2.847 . S
C250 O264 1.249 . S
C250 O265 1.202 . S
C251 C249 1.363 . S
C251 C253 1.408 . S
C251 C256 1.342 . S
C252 C253 1.310 . S
C252 C255 1.461 . S
C252 H272 0.932 . S
C253 C251 1.408 . S
C253 C252 1.310 . S
C253 H273 0.930 . S
C254 C255 1.474 . S
C254 C256 1.285 . S
C254 H274 0.929 . S
C255 C252 1.461 . S
C255 C254 1.474 . S
C256 C251 1.342 . S
C256 C254 1.285 . S
C256 H275 0.930 . S
C257 C260 1.424 . S
C257 C262 1.245 . S
C257 C263 1.428 . S
C258 C261 1.260 . S
C258 C262 1.477 . S
C258 H276 0.932 . S
C259 C260 1.384 . S
C259 C261 1.479 . S
C259 H277 0.929 . S
C260 C257 1.424 . S
C260 C259 1.384 . S
C260 H278 0.928 . S
C261 C258 1.260 . S
C261 C259 1.479 . S
C262 C257 1.245 . S
C262 C258 1.477 . S
C262 H279 0.932 . S
C263 U246 2.882 . S
C263 C257 1.428 . S
C263 O266 1.301 . S
C263 O267 1.282 . S
O264 U246 2.441 . S
O264 C250 1.249 . S
O265 U246 2.420 . S
O265 C250 1.202 . S
O266 U246 2.455 . S
O266 C263 1.301 . S
O267 U246 2.449 . S
O267 C263 1.282 . S
H268 C241 0.931 . S
H269 C243 0.929 . S
H270 C244 0.930 . S
H271 C245 0.931 . S
H272 C252 0.932 . S
H273 C253 0.930 . S
H274 C254 0.929 . S
H275 C256 0.930 . S
H276 C258 0.932 . S
H277 C259 0.929 . S
H278 C260 0.928 . S
H279 C262 0.932 . S
C280 C281 1.264 . S
C280 C285 1.479 . S
C280 C290 1.465 . S
C281 C280 1.264 . S
C281 C283 1.339 . S
C281 H308 0.931 . S
C282 C283 1.395 . S
C282 C284 1.320 . S
C283 C281 1.339 . S
C283 C282 1.395 . S
C283 H309 0.929 . S
C284 C282 1.320 . S
C284 C285 1.405 . S
C284 H310 0.930 . S
C285 C280 1.479 . S
C285 C284 1.405 . S
C285 H311 0.931 . S
U286 O287 2.454 . S
U286 O288 2.458 . S
U286 C289 2.984 . S
U286 C290 2.847 . S
U286 C303 2.882 . S
U286 O304 2.441 . S
U286 O305 2.420 . S
U286 O306 2.455 . S
U286 O307 2.449 . S
O287 U286 2.454 . S
O287 C289 1.353 . S
O288 U286 2.458 . S
O288 C289 1.286 . S
C289 U286 2.984 . S
C289 O287 1.353 . S
C289 O288 1.286 . S
C289 C291 1.363 . S
C290 C280 1.465 . S
C290 U286 2.847 . S
C290 O304 1.249 . S
C290 O305 1.202 . S
C291 C289 1.363 . S
C291 C293 1.408 . S
C291 C296 1.342 . S
C292 C293 1.310 . S
C292 C295 1.461 . S
C292 H312 0.932 . S
C293 C291 1.408 . S
C293 C292 1.310 . S
C293 H313 0.930 . S
C294 C295 1.474 . S
C294 C296 1.285 . S
C294 H314 0.929 . S
C295 C292 1.461 . S
C295 C294 1.474 . S
C296 C291 1.342 . S
C296 C294 1.285 . S
C296 H315 0.930 . S
C297 C300 1.424 . S
C297 C302 1.245 . S
C297 C303 1.428 . S
C298 C301 1.260 . S
C298 C302 1.477 . S
C298 H316 0.932 . S
C299 C300 1.384 . S
C299 C301 1.479 . S
C299 H317 0.929 . S
C300 C297 1.424 . S
C300 C299 1.384 . S
C300 H318 0.928 . S
C301 C298 1.260 . S
C301 C299 1.479 . S
C302 C297 1.245 . S
C302 C298 1.477 . S
C302 H319 0.932 . S
C303 U286 2.882 . S
C303 C297 1.428 . S
C303 O306 1.301 . S
C303 O307 1.282 . S
O304 U286 2.441 . S
O304 C290 1.249 . S
O305 U286 2.420 . S
O305 C290 1.202 . S
O306 U286 2.455 . S
O306 C303 1.301 . S
O307 U286 2.449 . S
O307 C303 1.282 . S
H308 C281 0.931 . S
H309 C283 0.929 . S
H310 C284 0.930 . S
H311 C285 0.931 . S
H312 C292 0.932 . S
H313 C293 0.930 . S
H314 C294 0.929 . S
H315 C296 0.930 . S
H316 C298 0.932 . S
H317 C299 0.929 . S
H318 C300 0.928 . S
H319 C302 0.932 . S
C320 C321 1.384 . S
C320 C322 1.384 . S
C320 H348 0.931 . S
C321 C320 1.384 . S
C321 C324 1.382 . S
C322 C320 1.384 . S
C322 C323 1.381 . S
C322 H349 0.930 . S
C323 C322 1.381 . S
C323 C325 1.381 . S
C323 C326 1.487 . S
C324 C321 1.382 . S
C324 C325 1.387 . S
C324 H350 0.930 . S
C325 C323 1.381 . S
C325 C324 1.387 . S
C325 H351 0.931 . S
C326 C323 1.487 . S
C326 C333 1.399 1_655 S
C326 N364 1.343 . S
C327 C328 1.384 . S
C327 C329 1.384 . S
C327 H352 0.931 . S
C328 C327 1.384 . S
C328 C331 1.382 . S
C329 C327 1.384 . S
C329 C330 1.381 . S
C329 H353 0.930 . S
C330 C329 1.381 . S
C330 C332 1.381 . S
C330 C333 1.487 . S
C331 C328 1.382 . S
C331 C332 1.387 . S
C331 H354 0.930 . S
C332 C330 1.381 . S
C332 C331 1.387 . S
C332 H355 0.931 . S
C333 C326 1.399 1_455 S
C333 C330 1.487 . S
C333 N365 1.343 . S
C334 C335 1.384 . S
C334 C336 1.384 . S
C334 H356 0.931 . S
C335 C334 1.384 . S
C335 C338 1.382 . S
C336 C334 1.384 . S
C336 C337 1.381 . S
C336 H357 0.930 . S
C337 C336 1.381 . S
C337 C339 1.381 . S
C337 C340 1.487 . S
C338 C335 1.382 . S
C338 C339 1.387 . S
C338 H358 0.930 . S
C339 C337 1.381 . S
C339 C338 1.387 . S
C339 H359 0.931 . S
C340 C337 1.487 . S
C340 C347 1.399 1_455 S
C340 N365 1.343 . S
C341 C342 1.384 . S
C341 C343 1.384 . S
C341 H360 0.931 . S
C342 C341 1.384 . S
C342 C345 1.382 . S
C343 C341 1.384 . S
C343 C344 1.381 . S
C343 H361 0.930 . S
C344 C343 1.381 . S
C344 C346 1.381 . S
C344 C347 1.487 . S
C345 C342 1.382 . S
C345 C346 1.387 . S
C345 H362 0.930 . S
C346 C344 1.381 . S
C346 C345 1.387 . S
C346 H363 0.931 . S
C347 C340 1.399 1_655 S
C347 C344 1.487 . S
C347 N364 1.343 . S
H348 C320 0.931 . S
H349 C322 0.930 . S
H350 C324 0.930 . S
H351 C325 0.931 . S
H352 C327 0.931 . S
H353 C329 0.930 . S
H354 C331 0.930 . S
H355 C332 0.931 . S
H356 C334 0.931 . S
H357 C336 0.930 . S
H358 C338 0.930 . S
H359 C339 0.931 . S
H360 C341 0.931 . S
H361 C343 0.930 . S
H362 C345 0.930 . S
H363 C346 0.931 . S
N364 C326 1.343 . S
N364 C347 1.343 . S
N365 C333 1.343 . S
N365 C340 1.343 . S
C366 C367 1.384 . S
C366 C368 1.384 . S
C366 H394 0.931 . S
C367 C366 1.384 . S
C367 C370 1.382 . S
C368 C366 1.384 . S
C368 C369 1.381 . S
C368 H395 0.930 . S
C369 C368 1.381 . S
C369 C371 1.381 . S
C369 C372 1.487 . S
C370 C367 1.382 . S
C370 C371 1.387 . S
C370 H396 0.930 . S
C371 C369 1.381 . S
C371 C370 1.387 . S
C371 H397 0.931 . S
C372 C369 1.487 . S
C372 C379 1.399 1_655 S
C372 N410 1.343 . S
C373 C374 1.384 . S
C373 C375 1.384 . S
C373 H398 0.931 . S
C374 C373 1.384 . S
C374 C377 1.382 . S
C375 C373 1.384 . S
C375 C376 1.381 . S
C375 H399 0.930 . S
C376 C375 1.381 . S
C376 C378 1.381 . S
C376 C379 1.487 . S
C377 C374 1.382 . S
C377 C378 1.387 . S
C377 H400 0.930 . S
C378 C376 1.381 . S
C378 C377 1.387 . S
C378 H401 0.931 . S
C379 C372 1.399 1_455 S
C379 C376 1.487 . S
C379 N411 1.343 . S
C380 C381 1.384 . S
C380 C382 1.384 . S
C380 H402 0.931 . S
C381 C380 1.384 . S
C381 C384 1.382 . S
C382 C380 1.384 . S
C382 C383 1.381 . S
C382 H403 0.930 . S
C383 C382 1.381 . S
C383 C385 1.381 . S
C383 C386 1.487 . S
C384 C381 1.382 . S
C384 C385 1.387 . S
C384 H404 0.930 . S
C385 C383 1.381 . S
C385 C384 1.387 . S
C385 H405 0.931 . S
C386 C383 1.487 . S
C386 C393 1.399 1_455 S
C386 N411 1.343 . S
C387 C388 1.384 . S
C387 C389 1.384 . S
C387 H406 0.931 . S
C388 C387 1.384 . S
C388 C391 1.382 . S
C389 C387 1.384 . S
C389 C390 1.381 . S
C389 H407 0.930 . S
C390 C389 1.381 . S
C390 C392 1.381 . S
C390 C393 1.487 . S
C391 C388 1.382 . S
C391 C392 1.387 . S
C391 H408 0.930 . S
C392 C390 1.381 . S
C392 C391 1.387 . S
C392 H409 0.931 . S
C393 C386 1.399 1_655 S
C393 C390 1.487 . S
C393 N410 1.343 . S
H394 C366 0.931 . S
H395 C368 0.930 . S
H396 C370 0.930 . S
H397 C371 0.931 . S
H398 C373 0.931 . S
H399 C375 0.930 . S
H400 C377 0.930 . S
H401 C378 0.931 . S
H402 C380 0.931 . S
H403 C382 0.930 . S
H404 C384 0.930 . S
H405 C385 0.931 . S
H406 C387 0.931 . S
H407 C389 0.930 . S
H408 C391 0.930 . S
H409 C392 0.931 . S
N410 C372 1.343 . S
N410 C393 1.343 . S
N411 C379 1.343 . S
N411 C386 1.343 . S
C412 C413 1.384 . S
C412 C414 1.384 . S
C412 H440 0.931 . S
C413 C412 1.384 . S
C413 C416 1.382 . S
C414 C412 1.384 . S
C414 C415 1.381 . S
C414 H441 0.930 . S
C415 C414 1.381 . S
C415 C417 1.381 . S
C415 C418 1.487 . S
C416 C413 1.382 . S
C416 C417 1.387 . S
C416 H442 0.930 . S
C417 C415 1.381 . S
C417 C416 1.387 . S
C417 H443 0.931 . S
C418 C415 1.487 . S
C418 C425 1.399 . S
C418 N456 1.343 . S
C419 C420 1.384 . S
C419 C421 1.384 . S
C419 H444 0.931 . S
C420 C419 1.384 . S
C420 C423 1.382 . S
C421 C419 1.384 . S
C421 C422 1.381 . S
C421 H445 0.930 . S
C422 C421 1.381 . S
C422 C424 1.381 . S
C422 C425 1.487 . S
C423 C420 1.382 . S
C423 C424 1.387 . S
C423 H446 0.930 . S
C424 C422 1.381 . S
C424 C423 1.387 . S
C424 H447 0.931 . S
C425 C418 1.399 . S
C425 C422 1.487 . S
C425 N457 1.343 . S
C426 C427 1.384 . S
C426 C428 1.384 . S
C426 H448 0.931 . S
C427 C426 1.384 . S
C427 C430 1.382 . S
C428 C426 1.384 . S
C428 C429 1.381 . S
C428 H449 0.930 . S
C429 C428 1.381 . S
C429 C431 1.381 . S
C429 C432 1.487 . S
C430 C427 1.382 . S
C430 C431 1.387 . S
C430 H450 0.930 . S
C431 C429 1.381 . S
C431 C430 1.387 . S
C431 H451 0.931 . S
C432 C429 1.487 . S
C432 C439 1.399 . S
C432 N457 1.343 1_565 S
C433 C434 1.384 . S
C433 C435 1.384 . S
C433 H452 0.931 . S
C434 C433 1.384 . S
C434 C437 1.382 . S
C435 C433 1.384 . S
C435 C436 1.381 . S
C435 H453 0.930 . S
C436 C435 1.381 . S
C436 C438 1.381 . S
C436 C439 1.487 . S
C437 C434 1.382 . S
C437 C438 1.387 . S
C437 H454 0.930 . S
C438 C436 1.381 . S
C438 C437 1.387 . S
C438 H455 0.931 . S
C439 C432 1.399 . S
C439 C436 1.487 . S
C439 N456 1.343 1_565 S
H440 C412 0.931 . S
H441 C414 0.930 . S
H442 C416 0.930 . S
H443 C417 0.931 . S
H444 C419 0.931 . S
H445 C421 0.930 . S
H446 C423 0.930 . S
H447 C424 0.931 . S
H448 C426 0.931 . S
H449 C428 0.930 . S
H450 C430 0.930 . S
H451 C431 0.931 . S
H452 C433 0.931 . S
H453 C435 0.930 . S
H454 C437 0.930 . S
H455 C438 0.931 . S
N456 C418 1.343 . S
N456 C439 1.343 1_545 S
N457 C425 1.343 . S
N457 C432 1.343 1_545 S
C458 C459 1.384 . S
C458 C460 1.384 . S
C458 H486 0.931 . S
C459 C458 1.384 . S
C459 C462 1.382 . S
C460 C458 1.384 . S
C460 C461 1.381 . S
C460 H487 0.930 . S
C461 C460 1.381 . S
C461 C463 1.381 . S
C461 C464 1.487 . S
C462 C459 1.382 . S
C462 C463 1.387 . S
C462 H488 0.930 . S
C463 C461 1.381 . S
C463 C462 1.387 . S
C463 H489 0.931 . S
C464 C461 1.487 . S
C464 C471 1.399 . S
C464 N502 1.343 1_556 S
C465 C466 1.384 . S
C465 C467 1.384 . S
C465 H490 0.931 . S
C466 C465 1.384 . S
C466 C469 1.382 . S
C467 C465 1.384 . S
C467 C468 1.381 . S
C467 H491 0.930 . S
C468 C467 1.381 . S
C468 C470 1.381 . S
C468 C471 1.487 . S
C469 C466 1.382 . S
C469 C470 1.387 . S
C469 H492 0.930 . S
C470 C468 1.381 . S
C470 C469 1.387 . S
C470 H493 0.931 . S
C471 C464 1.399 . S
C471 C468 1.487 . S
C471 N503 1.343 1_556 S
C472 C473 1.384 . S
C472 C474 1.384 . S
C472 H494 0.931 . S
C473 C472 1.384 . S
C473 C476 1.382 . S
C474 C472 1.384 . S
C474 C475 1.381 . S
C474 H495 0.930 . S
C475 C474 1.381 . S
C475 C477 1.381 . S
C475 C478 1.487 . S
C476 C473 1.382 . S
C476 C477 1.387 . S
C476 H496 0.930 . S
C477 C475 1.381 . S
C477 C476 1.387 . S
C477 H497 0.931 . S
C478 C475 1.487 . S
C478 C485 1.399 . S
C478 N503 1.343 . S
C479 C480 1.384 . S
C479 C481 1.384 . S
C479 H498 0.931 . S
C480 C479 1.384 . S
C480 C483 1.382 . S
C481 C479 1.384 . S
C481 C482 1.381 . S
C481 H499 0.930 . S
C482 C481 1.381 . S
C482 C484 1.381 . S
C482 C485 1.487 . S
C483 C480 1.382 . S
C483 C484 1.387 . S
C483 H500 0.930 . S
C484 C482 1.381 . S
C484 C483 1.387 . S
C484 H501 0.931 . S
C485 C478 1.399 . S
C485 C482 1.487 . S
C485 N502 1.343 . S
H486 C458 0.931 . S
H487 C460 0.930 . S
H488 C462 0.930 . S
H489 C463 0.931 . S
H490 C465 0.931 . S
H491 C467 0.930 . S
H492 C469 0.930 . S
H493 C470 0.931 . S
H494 C472 0.931 . S
H495 C474 0.930 . S
H496 C476 0.930 . S
H497 C477 0.931 . S
H498 C479 0.931 . S
H499 C481 0.930 . S
H500 C483 0.930 . S
H501 C484 0.931 . S
N502 C464 1.343 1_554 S
N502 C485 1.343 . S
N503 C471 1.343 1_554 S
N503 C478 1.343 . S
C504 C505 1.384 . S
C504 C506 1.384 . S
C504 H532 0.931 . S
C505 C504 1.384 . S
C505 C508 1.382 . S
C506 C504 1.384 . S
C506 C507 1.381 . S
C506 H533 0.930 . S
C507 C506 1.381 . S
C507 C509 1.381 . S
C507 C510 1.487 . S
C508 C505 1.382 . S
C508 C509 1.387 . S
C508 H534 0.930 . S
C509 C507 1.381 . S
C509 C508 1.387 . S
C509 H535 0.931 . S
C510 C507 1.487 . S
C510 C517 1.399 . S
C510 N548 1.343 . S
C511 C512 1.384 . S
C511 C513 1.384 . S
C511 H536 0.931 . S
C512 C511 1.384 . S
C512 C515 1.382 . S
C513 C511 1.384 . S
C513 C514 1.381 . S
C513 H537 0.930 . S
C514 C513 1.381 . S
C514 C516 1.381 . S
C514 C517 1.487 . S
C515 C512 1.382 . S
C515 C516 1.387 . S
C515 H538 0.930 . S
C516 C514 1.381 . S
C516 C515 1.387 . S
C516 H539 0.931 . S
C517 C510 1.399 . S
C517 C514 1.487 . S
C517 N549 1.399 . S
C518 C519 1.384 . S
C518 C520 1.384 . S
C518 H540 0.931 . S
C519 C518 1.384 . S
C519 C522 1.382 . S
C520 C518 1.384 . S
C520 C521 1.381 . S
C520 H541 0.930 . S
C521 C520 1.381 . S
C521 C523 1.381 . S
C521 C524 1.487 . S
C522 C519 1.382 . S
C522 C523 1.387 . S
C522 H542 0.930 . S
C523 C521 1.381 . S
C523 C522 1.387 . S
C523 H543 0.931 . S
C524 C521 1.487 . S
C524 C531 1.399 . S
C524 N549 1.288 1_565 S
C525 C526 1.384 . S
C525 C527 1.384 . S
C525 H544 0.931 . S
C526 C525 1.384 . S
C526 C529 1.382 . S
C527 C525 1.384 . S
C527 C528 1.381 . S
C527 H545 0.930 . S
C528 C527 1.381 . S
C528 C530 1.381 . S
C528 C531 1.487 . S
C529 C526 1.382 . S
C529 C530 1.387 . S
C529 H546 0.930 . S
C530 C528 1.381 . S
C530 C529 1.387 . S
C530 H547 0.931 . S
C531 C524 1.399 . S
C531 C528 1.487 . S
C531 N548 1.343 1_565 S
H532 C504 0.931 . S
H533 C506 0.930 . S
H534 C508 0.930 . S
H535 C509 0.931 . S
H536 C511 0.931 . S
H537 C513 0.930 . S
H538 C515 0.930 . S
H539 C516 0.931 . S
H540 C518 0.931 . S
H541 C520 0.930 . S
H542 C522 0.930 . S
H543 C523 0.931 . S
H544 C525 0.931 . S
H545 C527 0.930 . S
H546 C529 0.930 . S
H547 C530 0.931 . S
N548 C510 1.343 . S
N548 C531 1.343 1_545 S
N549 C517 1.399 . S
N549 C524 1.288 1_545 S
C550 C551 1.384 . S
C550 C552 1.384 . S
C550 H578 0.931 . S
C551 C550 1.384 . S
C551 C554 1.382 . S
C552 C550 1.384 . S
C552 C553 1.381 . S
C552 H579 0.930 . S
C553 C552 1.381 . S
C553 C555 1.381 . S
C553 C556 1.487 . S
C554 C551 1.382 . S
C554 C555 1.387 . S
C554 H580 0.930 . S
C555 C553 1.381 . S
C555 C554 1.387 . S
C555 H581 0.931 . S
C556 C553 1.487 . S
C556 C563 1.399 . S
C556 N594 1.343 1_556 S
C557 C558 1.384 . S
C557 C559 1.384 . S
C557 H582 0.931 . S
C558 C557 1.384 . S
C558 C561 1.382 . S
C559 C557 1.384 . S
C559 C560 1.381 . S
C559 H583 0.930 . S
C560 C559 1.381 . S
C560 C562 1.381 . S
C560 C563 1.487 . S
C561 C558 1.382 . S
C561 C562 1.387 . S
C561 H584 0.930 . S
C562 C560 1.381 . S
C562 C561 1.387 . S
C562 H585 0.931 . S
C563 C556 1.399 . S
C563 C560 1.487 . S
C563 N595 1.343 1_556 S
C564 C565 1.384 . S
C564 C566 1.384 . S
C564 H586 0.931 . S
C565 C564 1.384 . S
C565 C568 1.382 . S
C566 C564 1.384 . S
C566 C567 1.381 . S
C566 H587 0.930 . S
C567 C566 1.381 . S
C567 C569 1.381 . S
C567 C570 1.487 . S
C568 C565 1.382 . S
C568 C569 1.387 . S
C568 H588 0.930 . S
C569 C567 1.381 . S
C569 C568 1.387 . S
C569 H589 0.931 . S
C570 C567 1.487 . S
C570 C577 1.399 . S
C570 N595 1.343 . S
C571 C572 1.384 . S
C571 C573 1.384 . S
C571 H590 0.931 . S
C572 C571 1.384 . S
C572 C575 1.382 . S
C573 C571 1.384 . S
C573 C574 1.381 . S
C573 H591 0.930 . S
C574 C573 1.381 . S
C574 C576 1.381 . S
C574 C577 1.487 . S
C575 C572 1.382 . S
C575 C576 1.387 . S
C575 H592 0.930 . S
C576 C574 1.381 . S
C576 C575 1.387 . S
C576 H593 0.931 . S
C577 C570 1.399 . S
C577 C574 1.487 . S
C577 N594 1.343 . S
H578 C550 0.931 . S
H579 C552 0.930 . S
H580 C554 0.930 . S
H581 C555 0.931 . S
H582 C557 0.931 . S
H583 C559 0.930 . S
H584 C561 0.930 . S
H585 C562 0.931 . S
H586 C564 0.931 . S
H587 C566 0.930 . S
H588 C568 0.930 . S
H589 C569 0.931 . S
H590 C571 0.931 . S
H591 C573 0.930 . S
H592 C575 0.930 . S
H593 C576 0.931 . S
N594 C556 1.343 1_554 S
N594 C577 1.343 . S
N595 C563 1.343 1_554 S
N595 C570 1.343 . S
H596 C604 0.950 . S
H597 C609 0.950 . S
H598 C606 0.950 . S
H599 C608 0.950 . S
H600 C610 0.950 . S
H601 C612 0.950 . S
H602 C614 0.950 . S
H603 C615 0.950 . S
C604 H596 0.950 . S
C604 C605 1.386 . S
C604 C606 1.391 . S
C605 C604 1.386 . S
C605 C609 1.393 . S
C606 H598 0.950 . S
C606 C604 1.391 . S
C606 C607 1.400 . S
C607 C606 1.400 . S
C607 C608 1.398 . S
C607 C613 1.491 . S
C608 H599 0.950 . S
C608 C607 1.398 . S
C608 C609 1.391 . S
C609 H597 0.950 . S
C609 C605 1.393 . S
C609 C608 1.391 . S
C610 H600 0.950 . S
C610 C611 1.386 . S
C610 C612 1.391 . S
C611 C610 1.386 . S
C611 C615 1.393 . S
C612 H601 0.950 . S
C612 C610 1.391 . S
C612 C613 1.400 . S
C613 C607 1.491 . S
C613 C612 1.400 . S
C613 C614 1.398 . S
C614 H602 0.950 . S
C614 C613 1.398 . S
C614 C615 1.391 . S
C615 H603 0.950 . S
C615 C611 1.393 . S
C615 C614 1.391 . S
H616 C624 0.950 . S
H617 C629 0.950 . S
H618 C626 0.950 . S
H619 C628 0.950 . S
H620 C630 0.950 . S
H621 C632 0.950 . S
H622 C634 0.950 . S
H623 C635 0.950 . S
C624 H616 0.950 . S
C624 C625 1.386 . S
C624 C626 1.391 . S
C625 C624 1.386 . S
C625 C629 1.393 . S
C626 H618 0.950 . S
C626 C624 1.391 . S
C626 C627 1.400 . S
C627 C626 1.400 . S
C627 C628 1.398 . S
C627 C633 1.491 . S
C628 H619 0.950 . S
C628 C627 1.398 . S
C628 C629 1.391 . S
C629 H617 0.950 . S
C629 C625 1.393 . S
C629 C628 1.391 . S
C630 H620 0.950 . S
C630 C631 1.386 . S
C630 C632 1.391 . S
C631 C630 1.386 . S
C631 C635 1.393 . S
C632 H621 0.950 . S
C632 C630 1.391 . S
C632 C633 1.400 . S
C633 C627 1.491 . S
C633 C632 1.400 . S
C633 C634 1.398 . S
C634 H622 0.950 . S
C634 C633 1.398 . S
C634 C635 1.391 . S
C635 H623 0.950 . S
C635 C631 1.393 . S
C635 C634 1.391 . S
H636 C644 0.950 . S
H637 C649 0.950 . S
H638 C646 0.950 . S
H639 C648 0.950 . S
H640 C650 0.950 . S
H641 C652 0.950 . S
H642 C654 0.950 . S
H643 C655 0.950 . S
C644 H636 0.950 . S
C644 C645 1.386 . S
C644 C646 1.391 . S
C645 C644 1.386 . S
C645 C649 1.393 . S
C646 H638 0.950 . S
C646 C644 1.391 . S
C646 C647 1.400 . S
C647 C646 1.400 . S
C647 C648 1.398 . S
C647 C653 1.491 . S
C648 H639 0.950 . S
C648 C647 1.398 . S
C648 C649 1.391 . S
C649 H637 0.950 . S
C649 C645 1.393 . S
C649 C648 1.391 . S
C650 H640 0.950 . S
C650 C651 1.386 . S
C650 C652 1.391 . S
C651 C650 1.386 . S
C651 C655 1.393 . S
C652 H641 0.950 . S
C652 C650 1.391 . S
C652 C653 1.400 . S
C653 C647 1.491 . S
C653 C652 1.400 . S
C653 C654 1.398 . S
C654 H642 0.950 . S
C654 C653 1.398 . S
C654 C655 1.391 . S
C655 H643 0.950 . S
C655 C651 1.393 . S
C655 C654 1.391 . S
H656 C664 0.950 . S
H657 C669 0.950 . S
H658 C666 0.950 . S
H659 C668 0.950 . S
H660 C670 0.950 . S
H661 C672 0.950 . S
H662 C674 0.950 . S
H663 C675 0.950 . S
C664 H656 0.950 . S
C664 C665 1.386 . S
C664 C666 1.391 . S
C665 C664 1.386 . S
C665 C669 1.393 . S
C666 H658 0.950 . S
C666 C664 1.391 . S
C666 C667 1.400 . S
C667 C666 1.400 . S
C667 C668 1.398 . S
C667 C673 1.491 . S
C668 H659 0.950 . S
C668 C667 1.398 . S
C668 C669 1.391 . S
C669 H657 0.950 . S
C669 C665 1.393 . S
C669 C668 1.391 . S
C670 H660 0.950 . S
C670 C671 1.386 . S
C670 C672 1.391 . S
C671 C670 1.386 . S
C671 C675 1.393 . S
C672 H661 0.950 . S
C672 C670 1.391 . S
C672 C673 1.400 . S
C673 C667 1.491 . S
C673 C672 1.400 . S
C673 C674 1.398 . S
C674 H662 0.950 . S
C674 C673 1.398 . S
C674 C675 1.391 . S
C675 H663 0.950 . S
C675 C671 1.393 . S
C675 C674 1.391 . S
H676 C684 0.950 . S
H677 C689 0.950 . S
H678 C686 0.950 . S
H679 C688 0.950 . S
H680 C690 0.950 . S
H681 C692 0.950 . S
H682 C694 0.950 . S
H683 C695 0.950 . S
C684 H676 0.950 . S
C684 C685 1.386 . S
C684 C686 1.391 . S
C685 C684 1.386 . S
C685 C689 1.393 . S
C686 H678 0.950 . S
C686 C684 1.391 . S
C686 C687 1.400 . S
C687 C686 1.400 . S
C687 C688 1.398 . S
C687 C693 1.491 . S
C688 H679 0.950 . S
C688 C687 1.398 . S
C688 C689 1.391 . S
C689 H677 0.950 . S
C689 C685 1.393 . S
C689 C688 1.391 . S
C690 H680 0.950 . S
C690 C691 1.386 . S
C690 C692 1.391 . S
C691 C690 1.386 . S
C691 C695 1.393 . S
C692 H681 0.950 . S
C692 C690 1.391 . S
C692 C693 1.400 . S
C693 C687 1.491 . S
C693 C692 1.400 . S
C693 C694 1.398 . S
C694 H682 0.950 . S
C694 C693 1.398 . S
C694 C695 1.391 . S
C695 H683 0.950 . S
C695 C691 1.393 . S
C695 C694 1.391 . S
H696 C704 0.950 . S
H697 C709 0.950 . S
H698 C706 0.950 . S
H699 C708 0.950 . S
H700 C710 0.950 . S
H701 C712 0.950 . S
H702 C714 0.950 . S
H703 C715 0.950 . S
C704 H696 0.950 . S
C704 C705 1.386 . S
C704 C706 1.391 . S
C705 C704 1.386 . S
C705 C709 1.393 . S
C706 H698 0.950 . S
C706 C704 1.391 . S
C706 C707 1.400 . S
C707 C706 1.400 . S
C707 C708 1.398 . S
C707 C713 1.491 . S
C708 H699 0.950 . S
C708 C707 1.398 . S
C708 C709 1.391 . S
C709 H697 0.950 . S
C709 C705 1.393 . S
C709 C708 1.391 . S
C710 H700 0.950 . S
C710 C711 1.386 . S
C710 C712 1.391 . S
C711 C710 1.386 . S
C711 C715 1.393 . S
C712 H701 0.950 . S
C712 C710 1.391 . S
C712 C713 1.400 . S
C713 C707 1.491 . S
C713 C712 1.400 . S
C713 C714 1.398 . S
C714 H702 0.950 . S
C714 C713 1.398 . S
C714 C715 1.391 . S
C715 H703 0.950 . S
C715 C711 1.393 . S
C715 C714 1.391 . S
H716 C724 0.950 . S
H717 C729 0.950 . S
H718 C726 0.950 . S
H719 C728 0.950 . S
H720 C730 0.950 . S
H721 C732 0.950 . S
H722 C734 0.950 . S
H723 C735 0.950 . S
C724 H716 0.950 . S
C724 C725 1.386 . S
C724 C726 1.391 . S
C725 C724 1.386 . S
C725 C729 1.393 . S
C726 H718 0.950 . S
C726 C724 1.391 . S
C726 C727 1.400 . S
C727 C726 1.400 . S
C727 C728 1.398 . S
C727 C733 1.491 . S
C728 H719 0.950 . S
C728 C727 1.398 . S
C728 C729 1.391 . S
C729 H717 0.950 . S
C729 C725 1.393 . S
C729 C728 1.391 . S
C730 H720 0.950 . S
C730 C731 1.386 . S
C730 C732 1.391 . S
C731 C730 1.386 . S
C731 C735 1.393 . S
C732 H721 0.950 . S
C732 C730 1.391 . S
C732 C733 1.400 . S
C733 C727 1.491 . S
C733 C732 1.400 . S
C733 C734 1.398 . S
C734 H722 0.950 . S
C734 C733 1.398 . S
C734 C735 1.391 . S
C735 H723 0.950 . S
C735 C731 1.393 . S
C735 C734 1.391 . S
H736 C744 0.950 . S
H737 C749 0.950 . S
H738 C746 0.950 . S
H739 C748 0.950 . S
H740 C750 0.950 . S
H741 C752 0.950 . S
H742 C754 0.950 . S
H743 C755 0.950 . S
C744 H736 0.950 . S
C744 C745 1.386 . S
C744 C746 1.391 . S
C745 C744 1.386 . S
C745 C749 1.393 . S
C746 H738 0.950 . S
C746 C744 1.391 . S
C746 C747 1.400 . S
C747 C746 1.400 . S
C747 C748 1.398 . S
C747 C753 1.491 . S
C748 H739 0.950 . S
C748 C747 1.398 . S
C748 C749 1.391 . S
C749 H737 0.950 . S
C749 C745 1.393 . S
C749 C748 1.391 . S
C750 H740 0.950 . S
C750 C751 1.386 . S
C750 C752 1.391 . S
C751 C750 1.386 . S
C751 C755 1.393 . S
C752 H741 0.950 . S
C752 C750 1.391 . S
C752 C753 1.400 . S
C753 C747 1.491 . S
C753 C752 1.400 . S
C753 C754 1.398 . S
C754 H742 0.950 . S
C754 C753 1.398 . S
C754 C755 1.391 . S
C755 H743 0.950 . S
C755 C751 1.393 . S
C755 C754 1.391 . S
H756 C764 0.950 . S
H757 C769 0.950 . S
H758 C766 0.950 . S
H759 C768 0.950 . S
H760 C770 0.950 . S
H761 C772 0.950 . S
H762 C774 0.950 . S
H763 C775 0.950 . S
C764 H756 0.950 . S
C764 C765 1.386 . S
C764 C766 1.391 . S
C765 C764 1.386 . S
C765 C769 1.393 . S
C766 H758 0.950 . S
C766 C764 1.391 . S
C766 C767 1.400 . S
C767 C766 1.400 . S
C767 C768 1.398 . S
C767 C773 1.491 . S
C768 H759 0.950 . S
C768 C767 1.398 . S
C768 C769 1.391 . S
C769 H757 0.950 . S
C769 C765 1.393 . S
C769 C768 1.391 . S
C770 H760 0.950 . S
C770 C771 1.386 . S
C770 C772 1.391 . S
C771 C770 1.386 . S
C771 C775 1.393 . S
C772 H761 0.950 . S
C772 C770 1.391 . S
C772 C773 1.400 . S
C773 C767 1.491 . S
C773 C772 1.400 . S
C773 C774 1.398 . S
C774 H762 0.950 . S
C774 C773 1.398 . S
C774 C775 1.391 . S
C775 H763 0.950 . S
C775 C771 1.393 . S
C775 C774 1.391 . S
H776 C784 0.950 . S
H777 C789 0.950 . S
H778 C786 0.950 . S
H779 C788 0.950 . S
H780 C790 0.950 . S
H781 C792 0.950 . S
H782 C794 0.950 . S
H783 C795 0.950 . S
C784 H776 0.950 . S
C784 C785 1.386 . S
C784 C786 1.391 . S
C785 C784 1.386 . S
C785 C789 1.393 . S
C786 H778 0.950 . S
C786 C784 1.391 . S
C786 C787 1.400 . S
C787 C786 1.400 . S
C787 C788 1.398 . S
C787 C793 1.491 . S
C788 H779 0.950 . S
C788 C787 1.398 . S
C788 C789 1.391 . S
C789 H777 0.950 . S
C789 C785 1.393 . S
C789 C788 1.391 . S
C790 H780 0.950 . S
C790 C791 1.386 . S
C790 C792 1.391 . S
C791 C790 1.386 . S
C791 C795 1.393 . S
C792 H781 0.950 . S
C792 C790 1.391 . S
C792 C793 1.400 . S
C793 C787 1.491 . S
C793 C792 1.400 . S
C793 C794 1.398 . S
C794 H782 0.950 . S
C794 C793 1.398 . S
C794 C795 1.391 . S
C795 H783 0.950 . S
C795 C791 1.393 . S
C795 C794 1.391 . S
H796 C804 0.950 . S
H797 C809 0.950 . S
H798 C806 0.950 . S
H799 C808 0.950 . S
H800 C810 0.950 . S
H801 C812 0.950 . S
H802 C814 0.950 . S
H803 C815 0.950 . S
C804 H796 0.950 . S
C804 C805 1.386 . S
C804 C806 1.391 . S
C805 C804 1.386 . S
C805 C809 1.393 . S
C806 H798 0.950 . S
C806 C804 1.391 . S
C806 C807 1.400 . S
C807 C806 1.400 . S
C807 C808 1.398 . S
C807 C813 1.491 . S
C808 H799 0.950 . S
C808 C807 1.398 . S
C808 C809 1.391 . S
C809 H797 0.950 . S
C809 C805 1.393 . S
C809 C808 1.391 . S
C810 H800 0.950 . S
C810 C811 1.386 . S
C810 C812 1.391 . S
C811 C810 1.386 . S
C811 C815 1.393 . S
C812 H801 0.950 . S
C812 C810 1.391 . S
C812 C813 1.400 . S
C813 C807 1.491 . S
C813 C812 1.400 . S
C813 C814 1.398 . S
C814 H802 0.950 . S
C814 C813 1.398 . S
C814 C815 1.391 . S
C815 H803 0.950 . S
C815 C811 1.393 . S
C815 C814 1.391 . S
H816 C824 0.950 . S
H817 C829 0.950 . S
H818 C826 0.950 . S
H819 C828 0.950 . S
H820 C830 0.950 . S
H821 C832 0.950 . S
H822 C834 0.950 . S
H823 C835 0.950 . S
C824 H816 0.950 . S
C824 C825 1.386 . S
C824 C826 1.391 . S
C825 C824 1.386 . S
C825 C829 1.393 . S
C826 H818 0.950 . S
C826 C824 1.391 . S
C826 C827 1.400 . S
C827 C826 1.400 . S
C827 C828 1.398 . S
C827 C833 1.491 . S
C828 H819 0.950 . S
C828 C827 1.398 . S
C828 C829 1.391 . S
C829 H817 0.950 . S
C829 C825 1.393 . S
C829 C828 1.391 . S
C830 H820 0.950 . S
C830 C831 1.386 . S
C830 C832 1.391 . S
C831 C830 1.386 . S
C831 C835 1.393 . S
C832 H821 0.950 . S
C832 C830 1.391 . S
C832 C833 1.400 . S
C833 C827 1.491 . S
C833 C832 1.400 . S
C833 C834 1.398 . S
C834 H822 0.950 . S
C834 C833 1.398 . S
C834 C835 1.391 . S
C835 H823 0.950 . S
C835 C831 1.393 . S
C835 C834 1.391 . S
H836 C844 0.950 . S
H837 C849 0.950 . S
H838 C846 0.950 . S
H839 C848 0.950 . S
H840 C850 0.950 . S
H841 C852 0.950 . S
H842 C854 0.950 . S
H843 C855 0.950 . S
C844 H836 0.950 . S
C844 C845 1.386 . S
C844 C846 1.391 . S
C845 C844 1.386 . S
C845 C849 1.393 . S
C846 H838 0.950 . S
C846 C844 1.391 . S
C846 C847 1.400 . S
C847 C846 1.400 . S
C847 C848 1.398 . S
C847 C853 1.491 . S
C848 H839 0.950 . S
C848 C847 1.398 . S
C848 C849 1.391 . S
C849 H837 0.950 . S
C849 C845 1.393 . S
C849 C848 1.391 . S
C850 H840 0.950 . S
C850 C851 1.386 . S
C850 C852 1.391 . S
C851 C850 1.386 . S
C851 C855 1.393 . S
C852 H841 0.950 . S
C852 C850 1.391 . S
C852 C853 1.400 . S
C853 C847 1.491 . S
C853 C852 1.400 . S
C853 C854 1.398 . S
C854 H842 0.950 . S
C854 C853 1.398 . S
C854 C855 1.391 . S
C855 H843 0.950 . S
C855 C851 1.393 . S
C855 C854 1.391 . S
H856 C864 0.950 . S
H857 C869 0.950 . S
H858 C866 0.950 . S
H859 C868 0.950 . S
H860 C870 0.950 . S
H861 C872 0.950 . S
H862 C874 0.950 . S
H863 C875 0.950 . S
C864 H856 0.950 . S
C864 C865 1.386 . S
C864 C866 1.391 . S
C865 C864 1.386 . S
C865 C869 1.393 . S
C866 H858 0.950 . S
C866 C864 1.391 . S
C866 C867 1.400 . S
C867 C866 1.400 . S
C867 C868 1.398 . S
C867 C873 1.491 . S
C868 H859 0.950 . S
C868 C867 1.398 . S
C868 C869 1.391 . S
C869 H857 0.950 . S
C869 C865 1.393 . S
C869 C868 1.391 . S
C870 H860 0.950 . S
C870 C871 1.386 . S
C870 C872 1.391 . S
C871 C870 1.386 . S
C871 C875 1.393 . S
C872 H861 0.950 . S
C872 C870 1.391 . S
C872 C873 1.400 . S
C873 C867 1.491 . S
C873 C872 1.400 . S
C873 C874 1.398 . S
C874 H862 0.950 . S
C874 C873 1.398 . S
C874 C875 1.391 . S
C875 H863 0.950 . S
C875 C871 1.393 . S
C875 C874 1.391 . S
H876 C884 0.950 . S
H877 C889 0.950 . S
H878 C886 0.950 . S
H879 C888 0.950 . S
H880 C890 0.950 . S
H881 C892 0.950 . S
H882 C894 0.950 . S
H883 C895 0.950 . S
C884 H876 0.950 . S
C884 C885 1.386 . S
C884 C886 1.391 . S
C885 C884 1.386 . S
C885 C889 1.393 . S
C886 H878 0.950 . S
C886 C884 1.391 . S
C886 C887 1.400 . S
C887 C886 1.400 . S
C887 C888 1.398 . S
C887 C893 1.491 . S
C888 H879 0.950 . S
C888 C887 1.398 . S
C888 C889 1.391 . S
C889 H877 0.950 . S
C889 C885 1.393 . S
C889 C888 1.391 . S
C890 H880 0.950 . S
C890 C891 1.386 . S
C890 C892 1.391 . S
C891 C890 1.386 . S
C891 C895 1.393 . S
C892 H881 0.950 . S
C892 C890 1.391 . S
C892 C893 1.400 . S
C893 C887 1.491 . S
C893 C892 1.400 . S
C893 C894 1.398 . S
C894 H882 0.950 . S
C894 C893 1.398 . S
C894 C895 1.391 . S
C895 H883 0.950 . S
C895 C891 1.393 . S
C895 C894 1.391 . S
H896 C904 0.950 . S
H897 C909 0.950 . S
H898 C906 0.950 . S
H899 C908 0.950 . S
H900 C910 0.950 . S
H901 C912 0.950 . S
H902 C914 0.950 . S
H903 C915 0.950 . S
C904 H896 0.950 . S
C904 C905 1.386 . S
C904 C906 1.391 . S
C905 C904 1.386 . S
C905 C909 1.393 . S
C906 H898 0.950 . S
C906 C904 1.391 . S
C906 C907 1.400 . S
C907 C906 1.400 . S
C907 C908 1.398 . S
C907 C913 1.491 . S
C908 H899 0.950 . S
C908 C907 1.398 . S
C908 C909 1.391 . S
C909 H897 0.950 . S
C909 C905 1.393 . S
C909 C908 1.391 . S
C910 H900 0.950 . S
C910 C911 1.386 . S
C910 C912 1.391 . S
C911 C910 1.386 . S
C911 C915 1.393 . S
C912 H901 0.950 . S
C912 C910 1.391 . S
C912 C913 1.400 . S
C913 C907 1.491 . S
C913 C912 1.400 . S
C913 C914 1.398 . S
C914 H902 0.950 . S
C914 C913 1.398 . S
C914 C915 1.391 . S
C915 H903 0.950 . S
C915 C911 1.393 . S
C915 C914 1.391 . S
H916 C924 0.950 . S
H917 C929 0.950 . S
H918 C926 0.950 . S
H919 C928 0.950 . S
H920 C930 0.950 . S
H921 C932 0.950 . S
H922 C934 0.950 . S
H923 C935 0.950 . S
C924 H916 0.950 . S
C924 C925 1.386 . S
C924 C926 1.391 . S
C925 C924 1.386 . S
C925 C929 1.393 . S
C926 H918 0.950 . S
C926 C924 1.391 . S
C926 C927 1.400 . S
C927 C926 1.400 . S
C927 C928 1.398 . S
C927 C933 1.491 . S
C928 H919 0.950 . S
C928 C927 1.398 . S
C928 C929 1.391 . S
C929 H917 0.950 . S
C929 C925 1.393 . S
C929 C928 1.391 . S
C930 H920 0.950 . S
C930 C931 1.386 . S
C930 C932 1.391 . S
C931 C930 1.386 . S
C931 C935 1.393 . S
C932 H921 0.950 . S
C932 C930 1.391 . S
C932 C933 1.400 . S
C933 C927 1.491 . S
C933 C932 1.400 . S
C933 C934 1.398 . S
C934 H922 0.950 . S
C934 C933 1.398 . S
C934 C935 1.391 . S
C935 H923 0.950 . S
C935 C931 1.393 . S
C935 C934 1.391 . S
H936 C944 0.950 . S
H937 C949 0.950 . S
H938 C946 0.950 . S
H939 C948 0.950 . S
H940 C950 0.950 . S
H941 C952 0.950 . S
H942 C954 0.950 . S
H943 C955 0.950 . S
C944 H936 0.950 . S
C944 C945 1.386 . S
C944 C946 1.391 . S
C945 C944 1.386 . S
C945 C949 1.393 . S
C946 H938 0.950 . S
C946 C944 1.391 . S
C946 C947 1.400 . S
C947 C946 1.400 . S
C947 C948 1.398 . S
C947 C953 1.491 . S
C948 H939 0.950 . S
C948 C947 1.398 . S
C948 C949 1.391 . S
C949 H937 0.950 . S
C949 C945 1.393 . S
C949 C948 1.391 . S
C950 H940 0.950 . S
C950 C951 1.386 . S
C950 C952 1.391 . S
C951 C950 1.386 . S
C951 C955 1.393 . S
C952 H941 0.950 . S
C952 C950 1.391 . S
C952 C953 1.400 . S
C953 C947 1.491 . S
C953 C952 1.400 . S
C953 C954 1.398 . S
C954 H942 0.950 . S
C954 C953 1.398 . S
C954 C955 1.391 . S
C955 H943 0.950 . S
C955 C951 1.393 . S
C955 C954 1.391 . S
H956 C964 0.950 . S
H957 C969 0.950 . S
H958 C966 0.950 . S
H959 C968 0.950 . S
H960 C970 0.950 . S
H961 C972 0.950 . S
H962 C974 0.950 . S
H963 C975 0.950 . S
C964 H956 0.950 . S
C964 C965 1.386 . S
C964 C966 1.391 . S
C965 C964 1.386 . S
C965 C969 1.393 . S
C966 H958 0.950 . S
C966 C964 1.391 . S
C966 C967 1.400 . S
C967 C966 1.400 . S
C967 C968 1.398 . S
C967 C973 1.491 . S
C968 H959 0.950 . S
C968 C967 1.398 . S
C968 C969 1.391 . S
C969 H957 0.950 . S
C969 C965 1.393 . S
C969 C968 1.391 . S
C970 H960 0.950 . S
C970 C971 1.386 . S
C970 C972 1.391 . S
C971 C970 1.386 . S
C971 C975 1.393 . S
C972 H961 0.950 . S
C972 C970 1.391 . S
C972 C973 1.400 . S
C973 C967 1.491 . S
C973 C972 1.400 . S
C973 C974 1.398 . S
C974 H962 0.950 . S
C974 C973 1.398 . S
C974 C975 1.391 . S
C975 H963 0.950 . S
C975 C971 1.393 . S
C975 C974 1.391 . S
H976 C984 0.950 . S
H977 C989 0.950 . S
H978 C986 0.950 . S
H979 C988 0.950 . S
H980 C990 0.950 . S
H981 C992 0.950 . S
H982 C994 0.950 . S
H983 C995 0.950 . S
C984 H976 0.950 . S
C984 C985 1.386 . S
C984 C986 1.391 . S
C985 C984 1.386 . S
C985 C989 1.393 . S
C986 H978 0.950 . S
C986 C984 1.391 . S
C986 C987 1.400 . S
C987 C986 1.400 . S
C987 C988 1.398 . S
C987 C993 1.491 . S
C988 H979 0.950 . S
C988 C987 1.398 . S
C988 C989 1.391 . S
C989 H977 0.950 . S
C989 C985 1.393 . S
C989 C988 1.391 . S
C990 H980 0.950 . S
C990 C991 1.386 . S
C990 C992 1.391 . S
C991 C990 1.386 . S
C991 C995 1.393 . S
C992 H981 0.950 . S
C992 C990 1.391 . S
C992 C993 1.400 . S
C993 C987 1.491 . S
C993 C992 1.400 . S
C993 C994 1.398 . S
C994 H982 0.950 . S
C994 C993 1.398 . S
C994 C995 1.391 . S
C995 H983 0.950 . S
C995 C991 1.393 . S
C995 C994 1.391 . S
H996 C1004 0.950 . S
H997 C1009 0.950 . S
H998 C1006 0.950 . S
H999 C1008 0.950 . S
H1000 C1010 0.950 . S
H1001 C1012 0.950 . S
H1002 C1014 0.950 . S
H1003 C1015 0.950 . S
C1004 H996 0.950 . S
C1004 C1005 1.386 . S
C1004 C1006 1.391 . S
C1005 C1004 1.386 . S
C1005 C1009 1.393 . S
C1006 H998 0.950 . S
C1006 C1004 1.391 . S
C1006 C1007 1.400 . S
C1007 C1006 1.400 . S
C1007 C1008 1.398 . S
C1007 C1013 1.491 . S
C1008 H999 0.950 . S
C1008 C1007 1.398 . S
C1008 C1009 1.391 . S
C1009 H997 0.950 . S
C1009 C1005 1.393 . S
C1009 C1008 1.391 . S
C1010 H1000 0.950 . S
C1010 C1011 1.386 . S
C1010 C1012 1.391 . S
C1011 C1010 1.386 . S
C1011 C1015 1.393 . S
C1012 H1001 0.950 . S
C1012 C1010 1.391 . S
C1012 C1013 1.400 . S
C1013 C1007 1.491 . S
C1013 C1012 1.400 . S
C1013 C1014 1.398 . S
C1014 H1002 0.950 . S
C1014 C1013 1.398 . S
C1014 C1015 1.391 . S
C1015 H1003 0.950 . S
C1015 C1011 1.393 . S
C1015 C1014 1.391 . S
H1016 C1024 0.950 . S
H1017 C1029 0.950 . S
H1018 C1026 0.950 . S
H1019 C1028 0.950 . S
H1020 C1030 0.950 . S
H1021 C1032 0.950 . S
H1022 C1034 0.950 . S
H1023 C1035 0.950 . S
C1024 H1016 0.950 . S
C1024 C1025 1.386 . S
C1024 C1026 1.391 . S
C1025 C1024 1.386 . S
C1025 C1029 1.393 . S
C1026 H1018 0.950 . S
C1026 C1024 1.391 . S
C1026 C1027 1.400 . S
C1027 C1026 1.400 . S
C1027 C1028 1.398 . S
C1027 C1033 1.491 . S
C1028 H1019 0.950 . S
C1028 C1027 1.398 . S
C1028 C1029 1.391 . S
C1029 H1017 0.950 . S
C1029 C1025 1.393 . S
C1029 C1028 1.391 . S
C1030 H1020 0.950 . S
C1030 C1031 1.386 . S
C1030 C1032 1.391 . S
C1031 C1030 1.386 . S
C1031 C1035 1.393 . S
C1032 H1021 0.950 . S
C1032 C1030 1.391 . S
C1032 C1033 1.400 . S
C1033 C1027 1.491 . S
C1033 C1032 1.400 . S
C1033 C1034 1.398 . S
C1034 H1022 0.950 . S
C1034 C1033 1.398 . S
C1034 C1035 1.391 . S
C1035 H1023 0.950 . S
C1035 C1031 1.393 . S
C1035 C1034 1.391 . S
H1036 C1044 0.950 . S
H1037 C1049 0.950 . S
H1038 C1046 0.950 . S
H1039 C1048 0.950 . S
H1040 C1050 0.950 . S
H1041 C1052 0.950 . S
H1042 C1054 0.950 . S
H1043 C1055 0.950 . S
C1044 H1036 0.950 . S
C1044 C1045 1.386 . S
C1044 C1046 1.391 . S
C1045 C1044 1.386 . S
C1045 C1049 1.393 . S
C1046 H1038 0.950 . S
C1046 C1044 1.391 . S
C1046 C1047 1.400 . S
C1047 C1046 1.400 . S
C1047 C1048 1.398 . S
C1047 C1053 1.491 . S
C1048 H1039 0.950 . S
C1048 C1047 1.398 . S
C1048 C1049 1.391 . S
C1049 H1037 0.950 . S
C1049 C1045 1.393 . S
C1049 C1048 1.391 . S
C1050 H1040 0.950 . S
C1050 C1051 1.386 . S
C1050 C1052 1.391 . S
C1051 C1050 1.386 . S
C1051 C1055 1.393 . S
C1052 H1041 0.950 . S
C1052 C1050 1.391 . S
C1052 C1053 1.400 . S
C1053 C1047 1.491 . S
C1053 C1052 1.400 . S
C1053 C1054 1.398 . S
C1054 H1042 0.950 . S
C1054 C1053 1.398 . S
C1054 C1055 1.391 . S
C1055 H1043 0.950 . S
C1055 C1051 1.393 . S
C1055 C1054 1.391 . S
H1056 C1064 0.950 . S
H1057 C1069 0.950 . S
H1058 C1066 0.950 . S
H1059 C1068 0.950 . S
H1060 C1070 0.950 . S
H1061 C1072 0.950 . S
H1062 C1074 0.950 . S
H1063 C1075 0.950 . S
C1064 H1056 0.950 . S
C1064 C1065 1.386 . S
C1064 C1066 1.391 . S
C1065 C1064 1.386 . S
C1065 C1069 1.393 . S
C1066 H1058 0.950 . S
C1066 C1064 1.391 . S
C1066 C1067 1.400 . S
C1067 C1066 1.400 . S
C1067 C1068 1.398 . S
C1067 C1073 1.491 . S
C1068 H1059 0.950 . S
C1068 C1067 1.398 . S
C1068 C1069 1.391 . S
C1069 H1057 0.950 . S
C1069 C1065 1.393 . S
C1069 C1068 1.391 . S
C1070 H1060 0.950 . S
C1070 C1071 1.386 . S
C1070 C1072 1.391 . S
C1071 C1070 1.386 . S
C1071 C1075 1.393 . S
C1072 H1061 0.950 . S
C1072 C1070 1.391 . S
C1072 C1073 1.400 . S
C1073 C1067 1.491 . S
C1073 C1072 1.400 . S
C1073 C1074 1.398 . S
C1074 H1062 0.950 . S
C1074 C1073 1.398 . S
C1074 C1075 1.391 . S
C1075 H1063 0.950 . S
C1075 C1071 1.393 . S
C1075 C1074 1.391 . S
C611 C328 1.534 . S
C605 C15 1.546 . S
C631 C381 1.560 . S
C625 C55 1.560 . S
C651 C342 1.583 . S
C645 C101 1.557 . S
C671 C367 1.589 . S
C665 C141 1.590 . S
C691 C413 1.521 . S
C685 C2 1.506 . S
C711 C459 1.514 . S
C705 C61 1.495 . S
C725 C95 1.621 . S
C731 C526 1.618 . S
C751 C558 1.517 . S
C745 C135 1.521 . S
C771 C427 1.515 . S
C765 C42 1.489 . S
C785 C82 1.515 . S
C791 C473 1.540 . S
C811 C512 1.607 . S
C805 C122 1.620 . S
C831 C572 1.529 . S
C825 C21 1.503 . S
C845 C162 1.593 . S
C851 C388 1.583 . S
C871 C321 1.577 . S
C865 C221 1.571 . S
C885 C255 1.561 . S
C891 C374 1.555 . S
C905 C282 1.519 . S
C911 C335 1.540 . S
C931 C519 1.607 . S
C925 C181 1.634 . S
C951 C565 1.532 . S
C945 C202 1.525 . S
C971 C420 1.516 . S
C965 C242 1.518 . S
C985 C301 1.514 . S
C991 C480 1.525 . S
C1011 C505 1.613 . S
C1005 C215 1.620 . S
C1031 C551 1.528 . S
C1025 C261 1.520 . S
C1051 C434 1.512 . S
C1045 C295 1.517 . S
C1065 C175 1.522 . S
C1071 C466 1.520 . S
