# Generated by pormake.
# Topology ctn, (3,4)-cn, num edge types: 1
# Building blocks:
#     Node 0, Type 0, BuildingBlock: MIDCAF_clean_linker_0, # of connection points: 3
#     Node 1, Type 0, BuildingBlock: MIDCAF_clean_linker_0, # of connection points: 3
#     Node 2, Type 0, BuildingBlock: MIDCAF_clean_linker_0, # of connection points: 3
#     Node 3, Type 0, BuildingBlock: MIDCAF_clean_linker_0, # of connection points: 3
#     Node 4, Type 0, BuildingBlock: MIDCAF_clean_linker_0, # of connection points: 3
#     Node 5, Type 0, BuildingBlock: MIDCAF_clean_linker_0, # of connection points: 3
#     Node 6, Type 0, BuildingBlock: MIDCAF_clean_linker_0, # of connection points: 3
#     Node 7, Type 0, BuildingBlock: MIDCAF_clean_linker_0, # of connection points: 3
#     Node 8, Type 0, BuildingBlock: MIDCAF_clean_linker_0, # of connection points: 3
#     Node 9, Type 0, BuildingBlock: MIDCAF_clean_linker_0, # of connection points: 3
#     Node 10, Type 0, BuildingBlock: MIDCAF_clean_linker_0, # of connection points: 3
#     Node 11, Type 0, BuildingBlock: MIDCAF_clean_linker_0, # of connection points: 3
#     Node 12, Type 0, BuildingBlock: MIDCAF_clean_linker_0, # of connection points: 3
#     Node 13, Type 0, BuildingBlock: MIDCAF_clean_linker_0, # of connection points: 3
#     Node 14, Type 0, BuildingBlock: MIDCAF_clean_linker_0, # of connection points: 3
#     Node 15, Type 0, BuildingBlock: MIDCAF_clean_linker_0, # of connection points: 3
#     Node 16, Type 1, BuildingBlock: TATPOV_clean_sbu_0, # of connection points: 4
#     Node 17, Type 1, BuildingBlock: TATPOV_clean_sbu_0, # of connection points: 4
#     Node 18, Type 1, BuildingBlock: TATPOV_clean_sbu_0, # of connection points: 4
#     Node 19, Type 1, BuildingBlock: TATPOV_clean_sbu_0, # of connection points: 4
#     Node 20, Type 1, BuildingBlock: TATPOV_clean_sbu_0, # of connection points: 4
#     Node 21, Type 1, BuildingBlock: TATPOV_clean_sbu_0, # of connection points: 4
#     Node 22, Type 1, BuildingBlock: TATPOV_clean_sbu_0, # of connection points: 4
#     Node 23, Type 1, BuildingBlock: TATPOV_clean_sbu_0, # of connection points: 4
#     Node 24, Type 1, BuildingBlock: TATPOV_clean_sbu_0, # of connection points: 4
#     Node 25, Type 1, BuildingBlock: TATPOV_clean_sbu_0, # of connection points: 4
#     Node 26, Type 1, BuildingBlock: TATPOV_clean_sbu_0, # of connection points: 4
#     Node 27, Type 1, BuildingBlock: TATPOV_clean_sbu_0, # of connection points: 4
#     Edge 28, Type (0, 1), BuildingBlock: ZUJKAS_clean_linker_0, # of connection points: 2
#     Edge 29, Type (0, 1), BuildingBlock: ZUJKAS_clean_linker_0, # of connection points: 2
#     Edge 30, Type (0, 1), BuildingBlock: ZUJKAS_clean_linker_0, # of connection points: 2
#     Edge 31, Type (0, 1), BuildingBlock: ZUJKAS_clean_linker_0, # of connection points: 2
#     Edge 32, Type (0, 1), BuildingBlock: ZUJKAS_clean_linker_0, # of connection points: 2
#     Edge 33, Type (0, 1), BuildingBlock: ZUJKAS_clean_linker_0, # of connection points: 2
#     Edge 34, Type (0, 1), BuildingBlock: ZUJKAS_clean_linker_0, # of connection points: 2
#     Edge 35, Type (0, 1), BuildingBlock: ZUJKAS_clean_linker_0, # of connection points: 2
#     Edge 36, Type (0, 1), BuildingBlock: ZUJKAS_clean_linker_0, # of connection points: 2
#     Edge 37, Type (0, 1), BuildingBlock: ZUJKAS_clean_linker_0, # of connection points: 2
#     Edge 38, Type (0, 1), BuildingBlock: ZUJKAS_clean_linker_0, # of connection points: 2
#     Edge 39, Type (0, 1), BuildingBlock: ZUJKAS_clean_linker_0, # of connection points: 2
#     Edge 40, Type (0, 1), BuildingBlock: ZUJKAS_clean_linker_0, # of connection points: 2
#     Edge 41, Type (0, 1), BuildingBlock: ZUJKAS_clean_linker_0, # of connection points: 2
#     Edge 42, Type (0, 1), BuildingBlock: ZUJKAS_clean_linker_0, # of connection points: 2
#     Edge 43, Type (0, 1), BuildingBlock: ZUJKAS_clean_linker_0, # of connection points: 2
#     Edge 44, Type (0, 1), BuildingBlock: ZUJKAS_clean_linker_0, # of connection points: 2
#     Edge 45, Type (0, 1), BuildingBlock: ZUJKAS_clean_linker_0, # of connection points: 2
#     Edge 46, Type (0, 1), BuildingBlock: ZUJKAS_clean_linker_0, # of connection points: 2
#     Edge 47, Type (0, 1), BuildingBlock: ZUJKAS_clean_linker_0, # of connection points: 2
#     Edge 48, Type (0, 1), BuildingBlock: ZUJKAS_clean_linker_0, # of connection points: 2
#     Edge 49, Type (0, 1), BuildingBlock: ZUJKAS_clean_linker_0, # of connection points: 2
#     Edge 50, Type (0, 1), BuildingBlock: ZUJKAS_clean_linker_0, # of connection points: 2
#     Edge 51, Type (0, 1), BuildingBlock: ZUJKAS_clean_linker_0, # of connection points: 2
#     Edge 52, Type (0, 1), BuildingBlock: ZUJKAS_clean_linker_0, # of connection points: 2
#     Edge 53, Type (0, 1), BuildingBlock: ZUJKAS_clean_linker_0, # of connection points: 2
#     Edge 54, Type (0, 1), BuildingBlock: ZUJKAS_clean_linker_0, # of connection points: 2
#     Edge 55, Type (0, 1), BuildingBlock: ZUJKAS_clean_linker_0, # of connection points: 2
#     Edge 56, Type (0, 1), BuildingBlock: ZUJKAS_clean_linker_0, # of connection points: 2
#     Edge 57, Type (0, 1), BuildingBlock: ZUJKAS_clean_linker_0, # of connection points: 2
#     Edge 58, Type (0, 1), BuildingBlock: ZUJKAS_clean_linker_0, # of connection points: 2
#     Edge 59, Type (0, 1), BuildingBlock: ZUJKAS_clean_linker_0, # of connection points: 2
#     Edge 60, Type (0, 1), BuildingBlock: ZUJKAS_clean_linker_0, # of connection points: 2
#     Edge 61, Type (0, 1), BuildingBlock: ZUJKAS_clean_linker_0, # of connection points: 2
#     Edge 62, Type (0, 1), BuildingBlock: ZUJKAS_clean_linker_0, # of connection points: 2
#     Edge 63, Type (0, 1), BuildingBlock: ZUJKAS_clean_linker_0, # of connection points: 2
#     Edge 64, Type (0, 1), BuildingBlock: ZUJKAS_clean_linker_0, # of connection points: 2
#     Edge 65, Type (0, 1), BuildingBlock: ZUJKAS_clean_linker_0, # of connection points: 2
#     Edge 66, Type (0, 1), BuildingBlock: ZUJKAS_clean_linker_0, # of connection points: 2
#     Edge 67, Type (0, 1), BuildingBlock: ZUJKAS_clean_linker_0, # of connection points: 2
#     Edge 68, Type (0, 1), BuildingBlock: ZUJKAS_clean_linker_0, # of connection points: 2
#     Edge 69, Type (0, 1), BuildingBlock: ZUJKAS_clean_linker_0, # of connection points: 2
#     Edge 70, Type (0, 1), BuildingBlock: ZUJKAS_clean_linker_0, # of connection points: 2
#     Edge 71, Type (0, 1), BuildingBlock: ZUJKAS_clean_linker_0, # of connection points: 2
#     Edge 72, Type (0, 1), BuildingBlock: ZUJKAS_clean_linker_0, # of connection points: 2
#     Edge 73, Type (0, 1), BuildingBlock: ZUJKAS_clean_linker_0, # of connection points: 2
#     Edge 74, Type (0, 1), BuildingBlock: ZUJKAS_clean_linker_0, # of connection points: 2
#     Edge 75, Type (0, 1), BuildingBlock: ZUJKAS_clean_linker_0, # of connection points: 2
# Relax obj value: 0.003
# Max RMSD: 0.049
# Mean RMSD: 0.022
data_MOF--net-ctn--node1-TATPOV_clean_sbu_0--node2-MIDCAF_clean_linker_0--edge1-ZUJKAS_clean_linker_0
_symmetry_space_group_name_H-M    P1
_symmetry_Int_Tables_number       1
_symmetry_cell_setting            triclinic
loop_
_symmetry_equiv_pos_as_xyz
'x, y, z'
_cell_length_a     83.584959
_cell_length_b     83.585204
_cell_length_c     83.572169
_cell_angle_alpha  90.935423
_cell_angle_beta   90.940275
_cell_angle_gamma 90.998513
loop_
_atom_site_label
_atom_site_type_symbol
_atom_site_fract_x
_atom_site_fract_y
_atom_site_fract_z
_atom_type_partial_charge
C0 C 0.9883 0.04022 0.07675 0.0
C1 C 0.98985 0.02774 0.08773 0.0
C2 C 0.0025 0.01702 0.08592 0.0
C3 C 0.01333 0.01872 0.07345 0.0
H4 H 0.05362 0.99907 0.05472 0.0
H5 H 0.07553 0.98049 0.05192 0.0
H6 H 0.09062 0.00462 0.00927 0.0
H7 H 0.06893 0.02343 0.0122 0.0
H8 H 0.05159 0.05456 0.00143 0.0
H9 H 0.04845 0.07616 0.98249 0.0
H10 H 0.00548 0.09079 0.00626 0.0
H11 H 0.00841 0.06907 0.02507 0.0
H12 H 0.99755 0.05172 0.05611 0.0
H13 H 0.97883 0.04881 0.07791 0.0
H14 H 0.00393 0.00716 0.09403 0.0
H15 H 0.02287 0.01019 0.07244 0.0
N16 N 0.03554 0.02266 0.04753 0.0
N17 N 0.0443 0.03633 0.02492 0.0
N18 N 0.02167 0.04504 0.03855 0.0
C19 C 0.04611 0.02422 0.03543 0.0
C20 C 0.03212 0.0468 0.02638 0.0
C21 C 0.02328 0.03301 0.04919 0.0
C22 C 0.05945 0.01282 0.0337 0.0
C23 C 0.06159 0.00046 0.04473 0.0
C24 C 0.07412 0.98972 0.04308 0.0
C25 C 0.08484 0.99104 0.03036 0.0
C26 C 0.08272 0.00338 0.01933 0.0
C27 C 0.07019 0.01413 0.02098 0.0
C28 C 0.03025 0.06001 0.01483 0.0
C29 C 0.04144 0.06234 0.00265 0.0
C30 C 0.0397 0.07481 0.99182 0.0
C31 C 0.02672 0.08522 0.99286 0.0
C32 C 0.01551 0.08287 0.005 0.0
C33 C 0.01726 0.07044 0.01586 0.0
C34 C 0.01178 0.0312 0.06245 0.0
C35 C 0.99913 0.04193 0.06428 0.0
C36 C 0.24287 0.66572 0.24105 0.0
C37 C 0.22904 0.66438 0.23129 0.0
C38 C 0.22602 0.67637 0.22009 0.0
C39 C 0.23668 0.68933 0.21858 0.0
H40 H 0.24334 0.73147 0.19482 0.0
H41 H 0.23867 0.75166 0.17469 0.0
H42 H 0.28391 0.7746 0.18739 0.0
H43 H 0.28879 0.75429 0.20736 0.0
H44 H 0.3104 0.74002 0.23481 0.0
H45 H 0.33538 0.74005 0.25027 0.0
H46 H 0.32252 0.69409 0.26962 0.0
H47 H 0.29767 0.69387 0.25406 0.0
H48 H 0.26404 0.6792 0.24728 0.0
H49 H 0.24541 0.65684 0.25 0.0
H50 H 0.21555 0.67561 0.21228 0.0
H51 H 0.23404 0.69827 0.20973 0.0
N52 N 0.2591 0.71604 0.2161 0.0
N53 N 0.28357 0.72862 0.22321 0.0
N54 N 0.276 0.70458 0.23523 0.0
C55 C 0.26975 0.72835 0.21438 0.0
C56 C 0.28678 0.71676 0.23367 0.0
C57 C 0.26213 0.70412 0.22652 0.0
C58 C 0.2665 0.74114 0.20268 0.0
C59 C 0.25229 0.74084 0.1934 0.0
C60 C 0.24954 0.75249 0.18192 0.0
C61 C 0.26094 0.76471 0.1794 0.0
C62 C 0.27499 0.76521 0.18888 0.0
C63 C 0.27774 0.75358 0.20039 0.0
C64 C 0.30196 0.71694 0.24315 0.0
C65 C 0.31287 0.72989 0.24234 0.0
C66 C 0.32717 0.72997 0.25127 0.0
C67 C 0.33093 0.71707 0.26117 0.0
C68 C 0.32006 0.70412 0.26196 0.0
C69 C 0.30574 0.70406 0.25309 0.0
C70 C 0.2506 0.69058 0.22825 0.0
C71 C 0.25351 0.67863 0.23954 0.0
C72 C 0.97063 0.39112 0.02986 0.0
C73 C 0.96052 0.38783 0.01659 0.0
C74 C 0.94732 0.39767 0.01386 0.0
C75 C 0.94455 0.41081 0.02395 0.0
H76 H 0.9117 0.44598 0.03458 0.0
H77 H 0.88908 0.4634 0.02998 0.0
H78 H 0.90978 0.49831 0.06331 0.0
H79 H 0.93217 0.48083 0.06823 0.0
H80 H 0.96345 0.47288 0.08749 0.0
H81 H 0.98514 0.48174 0.10556 0.0
H82 H 0.01479 0.44397 0.08743 0.0
H83 H 0.99325 0.43513 0.06926 0.0
H84 H 0.9762 0.40666 0.04979 0.0
H85 H 0.98099 0.38385 0.03219 0.0
H86 H 0.93922 0.39532 0.00381 0.0
H87 H 0.93444 0.41832 0.02132 0.0
N88 N 0.93966 0.43812 0.04519 0.0
N89 N 0.95003 0.4566 0.06424 0.0
N90 N 0.96476 0.43406 0.05721 0.0
C91 C 0.93808 0.45187 0.05391 0.0
C92 C 0.9634 0.44777 0.06596 0.0
C93 C 0.95295 0.42911 0.04684 0.0
C94 C 0.92385 0.46201 0.0517 0.0
C95 C 0.9114 0.45731 0.04103 0.0
C96 C 0.89845 0.46734 0.03833 0.0
C97 C 0.89767 0.48229 0.04621 0.0
C98 C 0.90991 0.4868 0.05718 0.0
C99 C 0.92283 0.47678 0.05991 0.0
C100 C 0.97656 0.45324 0.07693 0.0
C101 C 0.9746 0.46647 0.0873 0.0
C102 C 0.987 0.47154 0.09769 0.0
C103 C 0.00166 0.46357 0.09787 0.0
C104 C 0.0037 0.45047 0.08741 0.0
C105 C 0.99128 0.44533 0.07709 0.0
C106 C 0.95501 0.41445 0.0369 0.0
C107 C 0.96793 0.4043 0.03988 0.0
C108 C 0.7451 0.73959 0.16916 0.0
C109 C 0.73498 0.72606 0.16729 0.0
C110 C 0.72306 0.72337 0.17866 0.0
C111 C 0.72115 0.73411 0.19147 0.0
H112 H 0.69617 0.74096 0.23294 0.0
H113 H 0.67462 0.73688 0.25177 0.0
H114 H 0.68466 0.78352 0.27295 0.0
H115 H 0.70608 0.78778 0.25401 0.0
H116 H 0.73427 0.80903 0.24096 0.0
H117 H 0.74945 0.83417 0.24115 0.0
H118 H 0.7729 0.81958 0.19775 0.0
H119 H 0.75759 0.79455 0.19735 0.0
H120 H 0.75117 0.76066 0.18288 0.0
H121 H 0.75458 0.74187 0.16078 0.0
H122 H 0.71497 0.71314 0.17748 0.0
H123 H 0.71171 0.73177 0.19988 0.0
N124 N 0.7177 0.75677 0.21779 0.0
N125 N 0.72413 0.78152 0.23013 0.0
N126 N 0.73749 0.77342 0.20703 0.0
C127 C 0.71531 0.76768 0.22972 0.0
C128 C 0.73526 0.78447 0.21883 0.0
C129 C 0.72879 0.75954 0.20641 0.0
C130 C 0.70283 0.76477 0.24183 0.0
C131 C 0.69388 0.75034 0.24165 0.0
C132 C 0.68158 0.74793 0.25253 0.0
C133 C 0.67789 0.7599 0.26382 0.0
C134 C 0.68707 0.77416 0.26426 0.0
C135 C 0.69941 0.77655 0.25342 0.0
C136 C 0.74467 0.79971 0.21914 0.0
C137 C 0.74266 0.81114 0.23144 0.0
C138 C 0.75143 0.82554 0.23161 0.0
C139 C 0.76239 0.82887 0.21947 0.0
C140 C 0.76441 0.81746 0.20717 0.0
C141 C 0.75568 0.80305 0.20702 0.0
C142 C 0.73112 0.74779 0.19318 0.0
C143 C 0.74318 0.75033 0.18192 0.0
C144 C 0.0638 0.91385 0.48976 0.0
C145 C 0.05135 0.90234 0.48899 0.0
C146 C 0.03981 0.90319 0.47658 0.0
C147 C 0.04043 0.91557 0.46555 0.0
H148 H 0.01945 0.9325 0.42349 0.0
H149 H 0.00131 0.93405 0.40038 0.0
H150 H 0.02468 0.97804 0.38646 0.0
H151 H 0.04287 0.97648 0.40932 0.0
H152 H 0.06152 0.99675 0.43574 0.0
H153 H 0.07668 0.0208 0.44363 0.0
H154 H 0.09567 0.99654 0.48485 0.0
H155 H 0.08031 0.97257 0.47721 0.0
H156 H 0.07395 0.93512 0.47999 0.0
H157 H 0.07306 0.91338 0.49895 0.0
H158 H 0.02993 0.89466 0.47573 0.0
H159 H 0.03111 0.91611 0.45642 0.0
N160 N 0.04319 0.94126 0.44249 0.0
N161 N 0.05155 0.96758 0.43733 0.0
N162 N 0.06106 0.95477 0.46018 0.0
C163 C 0.04282 0.95431 0.43299 0.0
C164 C 0.06066 0.96794 0.45091 0.0
C165 C 0.0524 0.94139 0.45607 0.0
C166 C 0.03255 0.95444 0.41836 0.0
C167 C 0.02085 0.94241 0.4154 0.0
C168 C 0.01041 0.94332 0.40221 0.0
C169 C 0.01155 0.95618 0.39163 0.0
C170 C 0.0236 0.96788 0.39428 0.0
C171 C 0.03395 0.96704 0.4075 0.0
C172 C 0.06975 0.98265 0.45578 0.0
C173 C 0.06887 0.99652 0.44653 0.0
C174 C 0.07758 0.01032 0.45102 0.0
C175 C 0.08737 0.01058 0.46486 0.0
C176 C 0.08805 0.99681 0.47425 0.0
C177 C 0.07934 0.983 0.46977 0.0
C178 C 0.05251 0.92744 0.46676 0.0
C179 C 0.06433 0.92629 0.47883 0.0
C180 C 0.23016 0.74787 0.83075 0.0
C181 C 0.21817 0.75885 0.8345 0.0
C182 C 0.20562 0.76104 0.82342 0.0
C183 C 0.20509 0.75253 0.80888 0.0
H184 H 0.18168 0.75071 0.76541 0.0
H185 H 0.15935 0.75463 0.74688 0.0
H186 H 0.17378 0.71366 0.71886 0.0
H187 H 0.19608 0.70959 0.73741 0.0
H188 H 0.23366 0.69927 0.74309 0.0
H189 H 0.25267 0.67832 0.73738 0.0
H190 H 0.26644 0.67757 0.78744 0.0
H191 H 0.24787 0.69895 0.79305 0.0
H192 H 0.23906 0.73095 0.81377 0.0
H193 H 0.2399 0.74576 0.83912 0.0
H194 H 0.1963 0.76954 0.82587 0.0
H195 H 0.19525 0.75461 0.80063 0.0
N196 N 0.20469 0.73526 0.77871 0.0
N197 N 0.21521 0.71599 0.76135 0.0
N198 N 0.22769 0.7214 0.78624 0.0
C199 C 0.20393 0.72704 0.76456 0.0
C200 C 0.22715 0.71311 0.7721 0.0
C201 C 0.21652 0.73254 0.78962 0.0
C202 C 0.19069 0.7298 0.75296 0.0
C203 C 0.18015 0.74254 0.75529 0.0
C204 C 0.1674 0.74486 0.74462 0.0
C205 C 0.16481 0.73444 0.73143 0.0
C206 C 0.17539 0.72178 0.72901 0.0
C207 C 0.18822 0.71952 0.73961 0.0
C208 C 0.23917 0.70076 0.76855 0.0
C209 C 0.2408 0.6947 0.75288 0.0
C210 C 0.25167 0.68261 0.74961 0.0
C211 C 0.26107 0.67614 0.76194 0.0
C212 C 0.25961 0.6824 0.77758 0.0
C213 C 0.24886 0.69462 0.78083 0.0
C214 C 0.2171 0.74156 0.80509 0.0
C215 C 0.22962 0.73931 0.81623 0.0
C216 C 0.97279 0.59578 0.48831 0.0
C217 C 0.96423 0.59662 0.50261 0.0
C218 C 0.95127 0.58599 0.50476 0.0
C219 C 0.94678 0.57493 0.49273 0.0
H220 H 0.9079 0.54718 0.47598 0.0
H221 H 0.88485 0.52968 0.48016 0.0
H222 H 0.90142 0.49735 0.44333 0.0
H223 H 0.92412 0.51516 0.43873 0.0
H224 H 0.94924 0.53165 0.41358 0.0
H225 H 0.9666 0.52771 0.3908 0.0
H226 H 0.00198 0.55977 0.41272 0.0
H227 H 0.98452 0.56407 0.43528 0.0
H228 H 0.9752 0.58443 0.46541 0.0
H229 H 0.98293 0.60373 0.48639 0.0
H230 H 0.94434 0.58649 0.51558 0.0
H231 H 0.93663 0.56704 0.49473 0.0
N232 N 0.93683 0.55354 0.46681 0.0
N233 N 0.94167 0.54109 0.44205 0.0
N234 N 0.95945 0.56086 0.45227 0.0
C235 C 0.9324 0.54276 0.45516 0.0
C236 C 0.9552 0.55016 0.44049 0.0
C237 C 0.95035 0.56263 0.46546 0.0
C238 C 0.91793 0.53254 0.45708 0.0
C239 C 0.90657 0.53639 0.46869 0.0
C240 C 0.89338 0.5263 0.47115 0.0
C241 C 0.8913 0.51201 0.46218 0.0
C242 C 0.90247 0.50835 0.45031 0.0
C243 C 0.91558 0.51854 0.44774 0.0
C244 C 0.96548 0.54812 0.42634 0.0
C245 C 0.96068 0.53793 0.41353 0.0
C246 C 0.97067 0.53561 0.40048 0.0
C247 C 0.98571 0.54336 0.39996 0.0
C248 C 0.99039 0.55377 0.41263 0.0
C249 C 0.98039 0.55615 0.42564 0.0
C250 C 0.95523 0.5742 0.47832 0.0
C251 C 0.96837 0.58467 0.47631 0.0
C252 C 0.86278 0.79888 0.78926 0.0
C253 C 0.86343 0.80628 0.7743 0.0
C254 C 0.85168 0.81745 0.77032 0.0
C255 C 0.83951 0.82102 0.78096 0.0
H256 H 0.80533 0.85505 0.79127 0.0
H257 H 0.78582 0.87506 0.78405 0.0
H258 H 0.75278 0.85513 0.81797 0.0
H259 H 0.77248 0.8355 0.82559 0.0
H260 H 0.78969 0.81464 0.85428 0.0
H261 H 0.78473 0.79703 0.87666 0.0
H262 H 0.82002 0.76439 0.8587 0.0
H263 H 0.82536 0.78219 0.8367 0.0
H264 H 0.85035 0.79637 0.81127 0.0
H265 H 0.87176 0.79038 0.7928 0.0
H266 H 0.85164 0.82318 0.75879 0.0
H267 H 0.83056 0.82953 0.77736 0.0
N268 N 0.8148 0.82845 0.80345 0.0
N269 N 0.80011 0.82197 0.82618 0.0
N270 N 0.82308 0.8076 0.81988 0.0
C271 C 0.80218 0.83117 0.81309 0.0
C272 C 0.81054 0.81019 0.82968 0.0
C273 C 0.82532 0.8167 0.80676 0.0
C274 C 0.79049 0.84364 0.80902 0.0
C275 C 0.79393 0.85497 0.79725 0.0
C276 C 0.78269 0.86641 0.79303 0.0
C277 C 0.76769 0.86671 0.80038 0.0
C278 C 0.7643 0.85544 0.81224 0.0
C279 C 0.77559 0.8441 0.81656 0.0
C280 C 0.8079 0.79983 0.84365 0.0
C281 C 0.79647 0.80376 0.85516 0.0
C282 C 0.79356 0.79362 0.86797 0.0
C283 C 0.80195 0.77926 0.8695 0.0
C284 C 0.81353 0.77547 0.85809 0.0
C285 C 0.81653 0.78566 0.84538 0.0
C286 C 0.83869 0.81343 0.79582 0.0
C287 C 0.85053 0.80238 0.79989 0.0
C288 C 0.36952 0.30059 0.29158 0.0
C289 C 0.37408 0.31258 0.28089 0.0
C290 C 0.36668 0.32752 0.2818 0.0
C291 C 0.35461 0.33026 0.29282 0.0
H292 H 0.31888 0.36194 0.30345 0.0
H293 H 0.30021 0.3832 0.29763 0.0
H294 H 0.26537 0.36098 0.32823 0.0
H295 H 0.28414 0.34006 0.33445 0.0
H296 H 0.29849 0.31372 0.35946 0.0
H297 H 0.2914 0.29327 0.37863 0.0
H298 H 0.3242 0.26077 0.35615 0.0
H299 H 0.33169 0.28135 0.33737 0.0
H300 H 0.35415 0.29375 0.31056 0.0
H301 H 0.37514 0.28901 0.29125 0.0
H302 H 0.36985 0.33693 0.27361 0.0
H303 H 0.34894 0.34181 0.29296 0.0
N304 N 0.32677 0.33362 0.31256 0.0
N305 N 0.31043 0.32451 0.33317 0.0
N306 N 0.33257 0.30962 0.32537 0.0
C307 C 0.31385 0.33563 0.32199 0.0
C308 C 0.31977 0.31151 0.33498 0.0
C309 C 0.33621 0.32066 0.31419 0.0
C310 C 0.303 0.34921 0.31936 0.0
C311 C 0.30729 0.36166 0.30906 0.0
C312 C 0.29655 0.37382 0.30565 0.0
C313 C 0.28124 0.37377 0.31238 0.0
C314 C 0.27713 0.36155 0.32301 0.0
C315 C 0.2879 0.34947 0.32651 0.0
C316 C 0.31567 0.2992 0.34686 0.0
C317 C 0.30424 0.30223 0.35864 0.0
C318 C 0.30011 0.29046 0.36959 0.0
C319 C 0.30721 0.27534 0.36894 0.0
C320 C 0.31869 0.27236 0.3572 0.0
C321 C 0.32293 0.28416 0.34635 0.0
C322 C 0.34975 0.31814 0.30326 0.0
C323 C 0.35754 0.30336 0.30269 0.0
C324 C 0.47468 0.89681 0.52093 0.0
C325 C 0.46231 0.89063 0.51094 0.0
C326 C 0.44741 0.89817 0.51091 0.0
C327 C 0.44507 0.91187 0.52037 0.0
H328 H 0.41512 0.951 0.52547 0.0
H329 H 0.39214 0.96811 0.52154 0.0
H330 H 0.40778 0.99763 0.56195 0.0
H331 H 0.43092 0.98081 0.56567 0.0
H332 H 0.46553 0.97773 0.57939 0.0
H333 H 0.4871 0.98732 0.59707 0.0
H334 H 0.51846 0.95193 0.57704 0.0
H335 H 0.49676 0.942 0.55961 0.0
H336 H 0.48224 0.91491 0.53783 0.0
H337 H 0.48622 0.89113 0.52137 0.0
H338 H 0.43769 0.89376 0.50322 0.0
H339 H 0.43353 0.91754 0.51986 0.0
N340 N 0.44159 0.94141 0.53869 0.0
N341 N 0.45206 0.96074 0.55682 0.0
N342 N 0.46759 0.93895 0.54923 0.0
C343 C 0.4398 0.95521 0.54728 0.0
C344 C 0.46599 0.95272 0.55785 0.0
C345 C 0.45545 0.93317 0.53967 0.0
C346 C 0.425 0.96462 0.54576 0.0
C347 C 0.41359 0.96104 0.53362 0.0
C348 C 0.40035 0.97081 0.53141 0.0
C349 C 0.39819 0.98432 0.54135 0.0
C350 C 0.40925 0.9875 0.55389 0.0
C351 C 0.42251 0.9778 0.55604 0.0
C352 C 0.47934 0.95898 0.56815 0.0
C353 C 0.47703 0.97201 0.57867 0.0
C354 C 0.48946 0.97762 0.58874 0.0
C355 C 0.50452 0.9704 0.58848 0.0
C356 C 0.50694 0.95762 0.5777 0.0
C357 C 0.49449 0.95195 0.56768 0.0
C358 C 0.45757 0.91826 0.53012 0.0
C359 C 0.47234 0.91043 0.53042 0.0
C360 C 0.24163 0.24391 0.6639 0.0
C361 C 0.23165 0.23024 0.6623 0.0
C362 C 0.21978 0.22765 0.67374 0.0
C363 C 0.21787 0.23852 0.68643 0.0
H364 H 0.19028 0.24753 0.72547 0.0
H365 H 0.16995 0.24276 0.74535 0.0
H366 H 0.18789 0.28347 0.77315 0.0
H367 H 0.208 0.28855 0.75301 0.0
H368 H 0.23178 0.31312 0.73625 0.0
H369 H 0.24761 0.33786 0.73686 0.0
H370 H 0.2708 0.32328 0.69331 0.0
H371 H 0.25523 0.29841 0.69279 0.0
H372 H 0.24763 0.26517 0.67737 0.0
H373 H 0.25106 0.24614 0.65545 0.0
H374 H 0.21177 0.21735 0.67275 0.0
H375 H 0.20852 0.23619 0.69495 0.0
N376 N 0.21482 0.26104 0.71287 0.0
N377 N 0.22174 0.28547 0.72559 0.0
N378 N 0.23449 0.27773 0.70199 0.0
C379 C 0.2128 0.27172 0.72509 0.0
C380 C 0.23261 0.28858 0.71406 0.0
C381 C 0.22567 0.26393 0.7013 0.0
C382 C 0.20077 0.26848 0.73756 0.0
C383 C 0.18997 0.25545 0.73584 0.0
C384 C 0.17834 0.25264 0.74732 0.0
C385 C 0.17726 0.26271 0.76089 0.0
C386 C 0.18822 0.2756 0.76274 0.0
C387 C 0.19981 0.27847 0.7512 0.0
C388 C 0.24221 0.3037 0.71449 0.0
C389 C 0.24025 0.31515 0.72679 0.0
C390 C 0.24925 0.32941 0.72709 0.0
C391 C 0.26045 0.33256 0.71512 0.0
C392 C 0.26241 0.32114 0.70282 0.0
C393 C 0.2534 0.30689 0.7025 0.0
C394 C 0.22778 0.25226 0.68797 0.0
C395 C 0.2397 0.25479 0.67655 0.0
C396 C 0.74853 0.16274 0.74122 0.0
C397 C 0.73616 0.15985 0.7299 0.0
C398 C 0.73413 0.17064 0.71734 0.0
C399 C 0.74427 0.18401 0.71611 0.0
H400 H 0.75135 0.22413 0.69 0.0
H401 H 0.74645 0.24359 0.66923 0.0
H402 H 0.78616 0.27266 0.68731 0.0
H403 H 0.79106 0.25328 0.70826 0.0
H404 H 0.81618 0.23668 0.73208 0.0
H405 H 0.84041 0.23831 0.7486 0.0
H406 H 0.82363 0.19817 0.77602 0.0
H407 H 0.79958 0.19624 0.75928 0.0
H408 H 0.7682 0.17783 0.74883 0.0
H409 H 0.75049 0.15455 0.75094 0.0
H410 H 0.72459 0.16882 0.70853 0.0
H411 H 0.74237 0.19205 0.70625 0.0
N412 N 0.76483 0.21215 0.71474 0.0
N413 N 0.78816 0.22626 0.72282 0.0
N414 N 0.78098 0.20239 0.73544 0.0
C415 C 0.77493 0.22492 0.71316 0.0
C416 C 0.79127 0.21503 0.73399 0.0
C417 C 0.76774 0.20085 0.72586 0.0
C418 C 0.77167 0.23706 0.70081 0.0
C419 C 0.75903 0.23469 0.68965 0.0
C420 C 0.75624 0.24581 0.67767 0.0
C421 C 0.76595 0.25962 0.6766 0.0
C422 C 0.77838 0.2622 0.68792 0.0
C423 C 0.78125 0.25102 0.69986 0.0
C424 C 0.80588 0.21632 0.7443 0.0
C425 C 0.81761 0.2282 0.74164 0.0
C426 C 0.8315 0.22919 0.75117 0.0
C427 C 0.83399 0.21837 0.76365 0.0
C428 C 0.82223 0.20654 0.76636 0.0
C429 C 0.80837 0.20551 0.75679 0.0
C430 C 0.75676 0.18685 0.72735 0.0
C431 C 0.75874 0.17605 0.73994 0.0
C432 C 0.49001 0.53782 0.57331 0.0
C433 C 0.49078 0.52473 0.58362 0.0
C434 C 0.50303 0.51361 0.58154 0.0
C435 C 0.51424 0.51553 0.56945 0.0
H436 H 0.55509 0.49623 0.55179 0.0
H437 H 0.57703 0.47764 0.54941 0.0
H438 H 0.59408 0.50292 0.50819 0.0
H439 H 0.57233 0.52174 0.5107 0.0
H440 H 0.55435 0.55213 0.49882 0.0
H441 H 0.55165 0.5739 0.48003 0.0
H442 H 0.50866 0.5889 0.50356 0.0
H443 H 0.51148 0.56735 0.52257 0.0
H444 H 0.50015 0.54993 0.55343 0.0
H445 H 0.48062 0.54651 0.57447 0.0
H446 H 0.5041 0.50349 0.58941 0.0
H447 H 0.52352 0.50672 0.56826 0.0
N448 N 0.5376 0.52025 0.54471 0.0
N449 N 0.54698 0.53418 0.52251 0.0
N450 N 0.524 0.54275 0.53565 0.0
C451 C 0.5485 0.52195 0.53293 0.0
C452 C 0.53477 0.54464 0.52377 0.0
C453 C 0.52532 0.53059 0.54617 0.0
C454 C 0.56188 0.51055 0.53145 0.0
C455 C 0.5635 0.49788 0.54221 0.0
C456 C 0.57605 0.48713 0.5408 0.0
C457 C 0.58732 0.48876 0.5286 0.0
C458 C 0.58573 0.50143 0.51785 0.0
C459 C 0.57317 0.51218 0.51925 0.0
C460 C 0.53315 0.55792 0.51227 0.0
C461 C 0.54432 0.56006 0.50004 0.0
C462 C 0.54272 0.57251 0.48917 0.0
C463 C 0.52993 0.58315 0.49026 0.0
C464 C 0.51878 0.58105 0.5025 0.0
C465 C 0.52036 0.56861 0.51336 0.0
C466 C 0.51345 0.5286 0.55908 0.0
C467 C 0.50118 0.53972 0.56117 0.0
C468 C 0.56019 0.41071 0.98268 0.0
C469 C 0.54974 0.39792 0.97849 0.0
C470 C 0.54232 0.39767 0.96326 0.0
C471 C 0.54496 0.41013 0.95263 0.0
H472 H 0.52547 0.43046 0.91215 0.0
H473 H 0.50764 0.43403 0.88914 0.0
H474 H 0.53454 0.47635 0.87628 0.0
H475 H 0.55249 0.47275 0.89907 0.0
H476 H 0.57477 0.48961 0.92437 0.0
H477 H 0.59198 0.51215 0.93247 0.0
H478 H 0.60399 0.48843 0.97648 0.0
H479 H 0.58656 0.46591 0.96857 0.0
H480 H 0.57076 0.43295 0.97584 0.0
H481 H 0.56595 0.41137 0.99438 0.0
H482 H 0.53439 0.38786 0.95958 0.0
H483 H 0.53887 0.40963 0.94109 0.0
N484 N 0.5487 0.43747 0.93213 0.0
N485 N 0.56025 0.46255 0.92689 0.0
N486 N 0.56715 0.44927 0.9504 0.0
C487 C 0.55022 0.45028 0.92241 0.0
C488 C 0.56876 0.46216 0.94084 0.0
C489 C 0.55719 0.43685 0.94612 0.0
C490 C 0.54033 0.45141 0.9076 0.0
C491 C 0.52773 0.44041 0.90432 0.0
C492 C 0.51746 0.44248 0.89117 0.0
C493 C 0.51963 0.45552 0.88097 0.0
C494 C 0.53263 0.4661 0.88383 0.0
C495 C 0.54285 0.46409 0.897 0.0
C496 C 0.5793 0.47587 0.94578 0.0
C497 C 0.58103 0.48915 0.9358 0.0
C498 C 0.59095 0.50208 0.9404 0.0
C499 C 0.59935 0.50205 0.95509 0.0
C500 C 0.59751 0.48887 0.96517 0.0
C501 C 0.58761 0.47591 0.96055 0.0
C502 C 0.5551 0.42314 0.95698 0.0
C503 C 0.56286 0.42316 0.97205 0.0
C504 C 0.72967 0.24934 0.32833 0.0
C505 C 0.71708 0.25968 0.33193 0.0
C506 C 0.70436 0.26097 0.32087 0.0
C507 C 0.70422 0.25215 0.30653 0.0
H508 H 0.6788 0.24614 0.26525 0.0
H509 H 0.6568 0.24952 0.24631 0.0
H510 H 0.67678 0.21374 0.21496 0.0
H511 H 0.69872 0.21007 0.23405 0.0
H512 H 0.72804 0.19052 0.24622 0.0
H513 H 0.74758 0.16976 0.24165 0.0
H514 H 0.77446 0.18606 0.28354 0.0
H515 H 0.755 0.20698 0.28813 0.0
H516 H 0.73938 0.23257 0.31166 0.0
H517 H 0.73956 0.24795 0.3367 0.0
H518 H 0.69458 0.26898 0.3232 0.0
H519 H 0.69421 0.2535 0.2983 0.0
N520 N 0.70448 0.23428 0.27681 0.0
N521 N 0.71541 0.21475 0.26004 0.0
N522 N 0.728 0.22144 0.2846 0.0
C523 C 0.70385 0.22559 0.26293 0.0
C524 C 0.72754 0.2126 0.27078 0.0
C525 C 0.71648 0.23231 0.28771 0.0
C526 C 0.69058 0.22781 0.25122 0.0
C527 C 0.67857 0.23897 0.25433 0.0
C528 C 0.66598 0.241 0.24341 0.0
C529 C 0.66506 0.23194 0.22911 0.0
C530 C 0.67705 0.22079 0.22596 0.0
C531 C 0.68968 0.21876 0.23688 0.0
C532 C 0.73986 0.20041 0.26762 0.0
C533 C 0.73815 0.18979 0.25444 0.0
C534 C 0.74931 0.17782 0.25183 0.0
C535 C 0.76252 0.17623 0.26227 0.0
C536 C 0.76448 0.18707 0.27521 0.0
C537 C 0.75325 0.199 0.2779 0.0
C538 C 0.71678 0.24176 0.30291 0.0
C539 C 0.72951 0.24046 0.314 0.0
C540 C 0.47609 0.094 -0.00043 0.0
C541 C 0.46744 0.09454 0.01383 0.0
C542 C 0.45481 0.08351 0.01592 0.0
C543 C 0.45064 0.07243 0.0038 0.0
H544 H 0.41719 0.03837 0.99133 0.0
H545 H 0.39374 0.02112 0.99419 0.0
H546 H 0.39932 0.00313 0.94592 0.0
H547 H 0.42278 0.02052 0.94289 0.0
H548 H 0.45729 0.02687 0.92648 0.0
H549 H 0.47541 0.02376 0.90416 0.0
H550 H 0.50211 0.06587 0.92034 0.0
H551 H 0.4843 0.06879 0.94284 0.0
H552 H 0.47882 0.08294 0.9766 0.0
H553 H 0.486 0.10225 0.99772 0.0
H554 H 0.44784 0.08376 0.02673 0.0
H555 H 0.44067 0.06426 0.0057 0.0
N556 N 0.44099 0.0514 0.9774 0.0
N557 N 0.4457 0.04003 0.9521 0.0
N558 N 0.4633 0.05965 0.96291 0.0
C559 C 0.43654 0.04104 0.96537 0.0
C560 C 0.45911 0.04933 0.95079 0.0
C561 C 0.45434 0.06075 0.97626 0.0
C562 C 0.42198 0.03081 0.96689 0.0
C563 C 0.41344 0.03081 0.98127 0.0
C564 C 0.40001 0.02086 0.98296 0.0
C565 C 0.39473 0.01073 0.97031 0.0
C566 C 0.40304 0.01092 0.95583 0.0
C567 C 0.41655 0.02082 0.95415 0.0
C568 C 0.46939 0.04799 0.93656 0.0
C569 C 0.46695 0.03553 0.92523 0.0
C570 C 0.47731 0.0338 0.91237 0.0
C571 C 0.49028 0.04452 0.91051 0.0
C572 C 0.49242 0.05723 0.92158 0.0
C573 C 0.48214 0.05893 0.93446 0.0
C574 C 0.45908 0.07209 0.98937 0.0
C575 C 0.47199 0.08288 0.9875 0.0
Zn576 Zn 0.27295 0.85317 0.0048 0.0
Zn577 Zn 0.24686 0.87118 0.00661 0.0
O578 O 0.24818 0.86063 0.02888 0.0
O579 O 0.27022 0.84665 0.02761 0.0
O580 O 0.2277 0.88548 0.00826 0.0
O581 O 0.28647 0.87256 -8e-05 0.0
O582 O 0.26504 0.88736 0.00179 0.0
C583 C 0.2583 0.85141 0.03541 0.0
C584 C 0.24863 0.84408 0.98143 0.0
O585 O 0.24119 0.85576 0.98769 0.0
O586 O 0.2623 0.84039 0.98682 0.0
C587 C 0.21404 0.88041 0.0126 0.0
O588 O 0.21214 0.86521 0.016 0.0
C589 C 0.28 0.88612 -0.00064 0.0
Zn590 Zn 0.10859 0.46344 0.26455 0.0
Zn591 Zn 0.1238 0.49169 0.2596 0.0
O592 O 0.10786 0.49743 0.27714 0.0
O593 O 0.09542 0.47448 0.28138 0.0
O594 O 0.13584 0.5123 0.25601 0.0
O595 O 0.12963 0.45349 0.27058 0.0
O596 O 0.14177 0.47652 0.26611 0.0
C597 C 0.09734 0.48929 0.28449 0.0
C598 C 0.1045 0.47511 0.23243 0.0
O599 O 0.11314 0.48676 0.2378 0.0
O600 O 0.10103 0.46353 0.24142 0.0
C601 C 0.12881 0.52514 0.25241 0.0
O602 O 0.11312 0.52505 0.25105 0.0
C603 C 0.14235 0.4619 0.27015 0.0
Zn604 Zn 0.76505 0.60824 0.96461 0.0
Zn605 Zn 0.76043 0.62289 0.9931 0.0
O606 O 0.7777 0.60649 0.99835 0.0
O607 O 0.78134 0.59416 0.97525 0.0
O608 O 0.75735 0.63457 0.01399 0.0
O609 O 0.77178 0.62924 0.95508 0.0
O610 O 0.76683 0.64113 0.97811 0.0
C611 C 0.78463 0.59582 0.99005 0.0
C612 C 0.73279 0.60475 0.9762 0.0
O613 O 0.73842 0.61265 0.98824 0.0
O614 O 0.74163 0.60162 0.96442 0.0
C615 C 0.75364 0.62736 0.02671 0.0
O616 O 0.75177 0.61171 0.02628 0.0
C617 C 0.77112 0.64188 0.96357 0.0
Zn618 Zn 0.85157 -0.00021 0.27551 0.0
Zn619 Zn 0.87002 0.00335 0.24992 0.0
O620 O 0.85879 0.02521 0.25195 0.0
O621 O 0.84401 0.02232 0.2733 0.0
O622 O 0.88459 0.00613 0.23107 0.0
O623 O 0.87092 0.99508 0.28918 0.0
O624 O 0.88604 0.99835 0.26813 0.0
C625 C 0.84886 0.03085 0.26192 0.0
C626 C 0.84376 0.9771 0.25028 0.0
O627 O 0.8553 0.98412 0.24327 0.0
O628 O 0.83968 0.98177 0.26409 0.0
C629 C 0.87947 0.00996 0.21727 0.0
O630 O 0.86407 0.01218 0.21504 0.0
C631 C 0.88462 0.99522 0.28293 0.0
Zn632 Zn 0.25665 0.1045 0.4632 0.0
Zn633 Zn 0.25542 0.12069 0.49142 0.0
O634 O 0.27214 0.10356 0.49597 0.0
O635 O 0.27281 0.08984 0.47328 0.0
O636 O 0.25449 0.13337 0.51201 0.0
O637 O 0.26398 0.12468 0.45234 0.0
O638 O 0.26183 0.13779 0.47524 0.0
C639 C 0.2776 0.09205 0.48762 0.0
C640 C 0.22542 0.10386 0.47742 0.0
O641 O 0.23255 0.11183 0.48861 0.0
O642 O 0.23299 0.09955 0.46512 0.0
C643 C 0.25073 0.12688 0.5251 0.0
O644 O 0.2476 0.11142 0.52524 0.0
C645 C 0.26493 0.13765 0.46036 0.0
Zn646 Zn 0.35589 0.5016 0.77402 0.0
Zn647 Zn 0.37187 0.50506 0.7467 0.0
O648 O 0.35965 0.52632 0.74892 0.0
O649 O 0.3473 0.52377 0.77184 0.0
O650 O 0.38513 0.50807 0.72692 0.0
O651 O 0.37638 0.49811 0.78626 0.0
O652 O 0.3894 0.5011 0.76382 0.0
C653 C 0.35056 0.53198 0.75968 0.0
C654 C 0.34711 0.47779 0.74991 0.0
O655 O 0.35754 0.48516 0.74167 0.0
O656 O 0.34411 0.48263 0.76396 0.0
C657 C 0.38017 0.50521 0.71267 0.0
O658 O 0.36537 0.50009 0.71022 0.0
C659 C 0.38943 0.49846 0.7788 0.0
Zn660 Zn 0.77458 0.35018 0.50063 0.0
Zn661 Zn 0.74903 0.3685 0.50492 0.0
O662 O 0.75152 0.35724 0.52671 0.0
O663 O 0.77312 0.34295 0.52337 0.0
O664 O 0.73019 0.38299 0.50796 0.0
O665 O 0.78793 0.36956 0.49514 0.0
O666 O 0.76711 0.38462 0.49975 0.0
C667 C 0.76184 0.34757 0.53216 0.0
C668 C 0.7488 0.34203 0.4788 0.0
O669 O 0.74205 0.35372 0.48583 0.0
O670 O 0.76268 0.33791 0.48318 0.0
C671 C 0.71633 0.3778 0.51152 0.0
O672 O 0.71403 0.36236 0.51339 0.0
C673 C 0.78172 0.38325 0.49589 0.0
Zn674 Zn 0.59897 0.96825 0.76138 0.0
Zn675 Zn 0.61635 0.99569 0.75827 0.0
O676 O 0.60227 0.00049 0.77764 0.0
O677 O 0.58823 0.97821 0.78047 0.0
O678 O 0.62961 0.01583 0.7561 0.0
O679 O 0.6195 0.95615 0.76439 0.0
O680 O 0.63332 0.97856 0.76162 0.0
C681 C 0.59172 0.99239 0.78501 0.0
C682 C 0.59387 0.98371 0.73113 0.0
O683 O 0.604 0.99387 0.73692 0.0
O684 O 0.58973 0.97166 0.73919 0.0
C685 C 0.63732 0.01832 0.74337 0.0
O686 O 0.63642 0.00762 0.73167 0.0
C687 C 0.63284 0.96353 0.7639 0.0
Zn688 Zn 0.00474 0.27515 0.8565 0.0
Zn689 Zn 0.00796 0.24846 0.87353 0.0
O690 O 0.02888 0.24961 0.86061 0.0
O691 O 0.02586 0.27115 0.84612 0.0
O692 O 0.01085 0.22903 0.88732 0.0
O693 O 0.00357 0.28845 0.87672 0.0
O694 O 0.00522 0.26634 0.89053 0.0
C695 C 0.03409 0.25924 0.85013 0.0
C696 C 0.97952 0.25188 0.85014 0.0
O697 O 0.9874 0.24352 0.86008 0.0
O698 O 0.98443 0.26581 0.84673 0.0
C699 C 0.00794 0.21472 0.8826 0.0
O700 O 0.00279 0.21204 0.86785 0.0
C701 C 0.00372 0.28148 0.89006 0.0
Zn702 Zn 0.50102 0.77141 0.35313 0.0
Zn703 Zn 0.50422 0.74525 0.37079 0.0
O704 O 0.52603 0.74723 0.35938 0.0
O705 O 0.52354 0.7693 0.34561 0.0
O706 O 0.50687 0.72611 0.385 0.0
O707 O 0.4965 0.78469 0.37276 0.0
O708 O 0.49936 0.76316 0.38725 0.0
C709 C 0.53186 0.75756 0.34991 0.0
C710 C 0.4781 0.74647 0.34459 0.0
O711 O 0.48499 0.73909 0.35596 0.0
O712 O 0.48291 0.76037 0.34091 0.0
C713 C 0.5114 0.71256 0.37986 0.0
O714 O 0.51443 0.71067 0.36458 0.0
C715 C 0.4965 0.77805 0.38626 0.0
Zn716 Zn 0.9659 0.76819 0.60632 0.0
Zn717 Zn 0.99289 0.76174 0.62314 0.0
O718 O -0.00026 0.78031 0.60875 0.0
O719 O 0.9779 0.78563 0.59491 0.0
O720 O 0.0128 0.75713 0.63604 0.0
O721 O 0.95472 0.77315 0.62696 0.0
O722 O 0.97664 0.76735 0.64047 0.0
C723 C 0.99254 0.78843 0.59816 0.0
C724 C 0.97708 0.73606 0.60126 0.0
O725 O 0.9882 0.74062 0.61099 0.0
O726 O 0.96606 0.74557 0.59745 0.0
C727 C 0.02667 0.75788 0.63005 0.0
O728 O 0.02814 0.76166 0.61494 0.0
C729 C 0.9621 0.7717 0.6402 0.0
Zn730 Zn 0.46574 0.27004 0.1075 0.0
Zn731 Zn 0.49393 0.26594 0.12314 0.0
O732 O 0.49983 0.28219 0.10596 0.0
O733 O 0.4769 0.286 0.09335 0.0
O734 O 0.51457 0.26294 0.13529 0.0
O735 O 0.45579 0.27713 0.12824 0.0
O736 O 0.47891 0.27391 0.14064 0.0
C737 C 0.49176 0.28898 0.09501 0.0
C738 C 0.47706 0.23768 0.10566 0.0
O739 O 0.48862 0.24348 0.11414 0.0
O740 O 0.46572 0.24657 0.10128 0.0
C741 C 0.52636 0.25595 0.129 0.0
O742 O 0.52509 0.25073 0.11411 0.0
C743 C 0.46423 0.27774 0.14096 0.0
H744 H 0.24433 0.7733 0.84894 0.0
H745 H 0.24555 0.7882 0.87438 0.0
H746 H 0.19481 0.78066 0.88 0.0
H747 H 0.19353 0.76539 0.85471 0.0
H748 H 0.22818 0.81623 0.88322 0.0
H749 H 0.21521 0.7644 0.92225 0.0
H750 H 0.22141 0.76194 0.90178 0.0
H751 H 0.2013 0.76763 0.90603 0.0
C752 C 0.23345 0.77466 0.85566 0.0
C753 C 0.21885 0.76807 0.84986 0.0
C754 C 0.23415 0.78329 0.87012 0.0
C755 C 0.2203 0.7854 0.87911 0.0
C756 C 0.20566 0.779 0.87331 0.0
H757 H 0.22225 0.85126 0.96293 0.0
H758 H 0.2128 0.83733 0.93836 0.0
C759 C 0.20494 0.7704 0.85881 0.0
C760 C 0.22134 0.79429 0.89457 0.0
H761 H 0.21958 0.78945 0.935 0.0
C762 C 0.22613 0.81046 0.89455 0.0
C763 C 0.21872 0.78665 0.90929 0.0
C764 C 0.21398 0.76917 0.90997 0.0
C765 C 0.22877 0.81912 0.90891 0.0
C766 C 0.2264 0.81141 0.92365 0.0
C767 C 0.22122 0.79534 0.92366 0.0
C768 C 0.231 0.81925 0.9391 0.0
C769 C 0.23479 0.83622 0.90825 0.0
C770 C 0.24403 0.8134 0.94784 0.0
C771 C 0.24943 0.82127 0.96179 0.0
C772 C 0.24185 0.83513 0.96737 0.0
C773 C 0.22838 0.84065 0.95892 0.0
C774 C 0.22301 0.83276 0.94486 0.0
H775 H 0.23831 0.83961 0.89599 0.0
H776 H 0.22521 0.84435 0.91219 0.0
H777 H 0.24525 0.83813 0.91647 0.0
H778 H 0.25033 0.80297 0.94361 0.0
H779 H 0.25975 0.81661 0.96804 0.0
H780 H 0.00527 0.56471 0.38459 0.0
H781 H 0.02438 0.5589 0.36342 0.0
H782 H 0.01025 0.50906 0.36398 0.0
H783 H 0.9914 0.51464 0.38525 0.0
H784 H 0.05021 0.53717 0.36503 0.0
H785 H 0.00703 0.52062 0.31628 0.0
H786 H 0.00136 0.53169 0.33398 0.0
H787 H 0.00332 0.51032 0.33457 0.0
C788 C 0.00625 0.55251 0.38021 0.0
C789 C 0.99675 0.54014 0.38657 0.0
C790 C 0.0171 0.54924 0.36808 0.0
C791 C 0.01852 0.53361 0.362 0.0
C792 C 0.00905 0.52127 0.36827 0.0
H793 H 0.07446 0.47509 0.3026 0.0
H794 H 0.05612 0.4879 0.32097 0.0
C795 C 0.99826 0.5245 0.3804 0.0
C796 C 0.03041 0.52988 0.34963 0.0
H797 H 0.03405 0.51229 0.3128 0.0
C798 C 0.04673 0.53198 0.35348 0.0
C799 C 0.02577 0.5232 0.33459 0.0
C800 C 0.00841 0.52146 0.32951 0.0
C801 C 0.05857 0.52667 0.34301 0.0
C802 C 0.05388 0.51929 0.32829 0.0
C803 C 0.03757 0.51787 0.32416 0.0
C804 C 0.06557 0.51183 0.31753 0.0
C805 C 0.07594 0.52824 0.34808 0.0
C806 C 0.07702 0.52107 0.30955 0.0
C807 C 0.08761 0.51376 0.29901 0.0
C808 C 0.08683 0.4971 0.29625 0.0
C809 C 0.07541 0.48793 0.30442 0.0
C810 C 0.06489 0.49523 0.31491 0.0
H811 H 0.07739 0.53182 0.3609 0.0
H812 H 0.08215 0.51677 0.34605 0.0
H813 H 0.0819 0.53748 0.34077 0.0
H814 H 0.07758 0.53394 0.31127 0.0
H815 H 0.09621 0.52118 0.29284 0.0
H816 H 0.77255 0.77158 0.88158 0.0
H817 H 0.76623 0.75137 0.90137 0.0
H818 H 0.81628 0.74019 0.90576 0.0
H819 H 0.82282 0.761 0.88671 0.0
H820 H 0.77048 0.72047 0.89766 0.0
H821 H 0.80411 0.74076 0.95194 0.0
H822 H 0.80075 0.75365 0.93513 0.0
H823 H 0.8169 0.73965 0.93497 0.0
C824 C 0.78229 0.76518 0.8871 0.0
C825 C 0.79821 0.76792 0.88251 0.0
C826 C 0.77863 0.75354 0.89834 0.0
C827 C 0.79079 0.74439 0.90521 0.0
C828 C 0.80672 0.74734 0.90093 0.0
H829 H 0.7844 0.64731 0.93454 0.0
H830 H 0.78854 0.67293 0.92157 0.0
C831 C 0.81041 0.75907 0.8898 0.0
C832 C 0.7867 0.73069 0.91552 0.0
H833 H 0.79661 0.7127 0.95063 0.0
C834 C 0.77603 0.71891 0.90935 0.0
C835 C 0.79373 0.72873 0.93087 0.0
C836 C 0.80437 0.74147 0.93868 0.0
C837 C 0.77274 0.70491 0.91777 0.0
C838 C 0.78068 0.70242 0.93258 0.0
C839 C 0.79076 0.71451 0.93914 0.0
C840 C 0.77909 0.68707 0.94104 0.0
C841 C 0.76083 0.69289 0.91068 0.0
C842 C 0.77309 0.68661 0.95662 0.0
C843 C 0.77087 0.67194 0.96419 0.0
C844 C 0.77463 0.65753 0.95627 0.0
C845 C 0.78118 0.65815 0.9409 0.0
C846 C 0.78348 0.67278 0.93342 0.0
H847 H 0.75233 0.69862 0.90227 0.0
H848 H 0.76732 0.68361 0.90386 0.0
H849 H 0.75387 0.6869 0.92015 0.0
H850 H 0.76976 0.69754 0.96275 0.0
H851 H 0.76585 0.67187 0.97605 0.0
H852 H 0.97917 0.95213 0.39313 0.0
H853 H 0.95917 0.95808 0.37247 0.0
H854 H 0.9967 0.97114 0.34014 0.0
H855 H 0.01685 0.96499 0.36069 0.0
H856 H 0.95794 0.99019 0.35808 0.0
H857 H 0.96498 0.94057 0.31356 0.0
H858 H 0.97103 0.93877 0.3343 0.0
H859 H 0.98283 0.95066 0.3211 0.0
C860 C 0.98319 0.9559 0.3815 0.0
C861 C -0.00042 0.95809 0.37853 0.0
C862 C 0.97176 0.95938 0.36976 0.0
C863 C 0.9765 0.96496 0.35481 0.0
C864 C 0.99284 0.96669 0.35158 0.0
H865 H 0.91617 0.99498 0.27415 0.0
H866 H 0.93944 0.98853 0.29098 0.0
C867 C 0.0043 0.96329 0.36335 0.0
C868 C 0.96427 0.97015 0.34313 0.0
H869 H 0.94606 0.96026 0.30739 0.0
C870 C 0.95536 0.98369 0.34697 0.0
C871 C 0.96115 0.96175 0.32858 0.0
C872 C 0.9704 0.94706 0.32407 0.0
C873 C 0.94317 0.98895 0.33673 0.0
C874 C 0.93957 0.98019 0.32246 0.0
C875 C 0.94882 0.96691 0.31837 0.0
C876 C 0.92563 0.98409 0.31217 0.0
C877 C 0.93429 0.00388 0.34128 0.0
C878 C 0.9102 0.98349 0.31848 0.0
C879 C 0.89696 0.98721 0.30898 0.0
C880 C 0.89884 0.99146 0.2929 0.0
C881 C 0.91432 0.99183 0.28651 0.0
C882 C 0.92761 0.98812 0.29608 0.0
H883 H 0.94153 0.01173 0.34957 0.0
H884 H 0.93098 0.01083 0.33054 0.0
H885 H 0.92314 0.00044 0.34749 0.0
H886 H 0.90838 0.98005 0.33076 0.0
H887 H 0.88522 0.98666 0.31427 0.0
H888 H 0.2377 0.23716 0.63105 0.0
H889 H 0.24129 0.21837 0.60874 0.0
H890 H 0.23346 0.17875 0.64023 0.0
H891 H 0.23008 0.19745 0.66272 0.0
H892 H 0.26437 0.19335 0.60669 0.0
H893 H 0.20161 0.17021 0.60227 0.0
H894 H 0.20701 0.1886 0.61282 0.0
H895 H 0.21094 0.16967 0.62179 0.0
C896 C 0.23685 0.22445 0.63328 0.0
C897 C 0.2336 0.21881 0.64869 0.0
C898 C 0.23882 0.21374 0.6205 0.0
C899 C 0.23746 0.1972 0.62282 0.0
C900 C 0.23426 0.19149 0.63815 0.0
H901 H 0.24348 0.11688 0.55522 0.0
H902 H 0.24107 0.1334 0.5795 0.0
C903 C 0.23232 0.2022 0.65097 0.0
C904 C 0.23975 0.18598 0.60921 0.0
H905 H 0.22032 0.15832 0.58511 0.0
C906 C 0.25476 0.18567 0.60196 0.0
C907 C 0.2272 0.17593 0.60318 0.0
C908 C 0.21073 0.17613 0.6103 0.0
C909 C 0.25757 0.17555 0.58878 0.0
C910 C 0.24492 0.16574 0.58251 0.0
C911 C 0.22998 0.16586 0.58994 0.0
C912 C 0.24678 0.1557 0.56792 0.0
C913 C 0.27412 0.17532 0.58182 0.0
C914 C 0.25063 0.16278 0.55334 0.0
C915 C 0.25206 0.1534 0.53948 0.0
C916 C 0.24952 0.13673 0.53989 0.0
C917 C 0.24556 0.12967 0.5545 0.0
C918 C 0.24416 0.13908 0.56838 0.0
H919 H 0.28334 0.17971 0.59063 0.0
H920 H 0.27726 0.16307 0.57776 0.0
H921 H 0.27449 0.18329 0.57135 0.0
H922 H 0.25234 0.17563 0.55264 0.0
H923 H 0.25502 0.15925 0.52842 0.0
H924 H 0.4757 0.49705 0.59271 0.0
H925 H 0.45625 0.49367 0.61402 0.0
H926 H 0.45953 0.54421 0.62503 0.0
H927 H 0.47898 0.5477 0.60375 0.0
H928 H 0.45975 0.49992 0.64621 0.0
H929 H 0.4114 0.53666 0.6205 0.0
H930 H 0.42823 0.53016 0.60897 0.0
H931 H 0.4303 0.54711 0.62243 0.0
C932 C 0.47232 0.50745 0.5997 0.0
C933 C 0.47886 0.52266 0.59649 0.0
C934 C 0.46115 0.5055 0.61182 0.0
C935 C 0.45624 0.51872 0.62095 0.0
C936 C 0.46284 0.53391 0.61788 0.0
H937 H 0.41111 0.51647 0.71363 0.0
H938 H 0.42932 0.51953 0.69128 0.0
C939 C 0.47397 0.53587 0.60573 0.0
C940 C 0.44461 0.51652 0.63401 0.0
H941 H 0.40831 0.5286 0.64749 0.0
C942 C 0.44847 0.50613 0.64646 0.0
C943 C 0.4298 0.52448 0.63421 0.0
C944 C 0.42457 0.53511 0.62074 0.0
C945 C 0.43809 0.50371 0.65927 0.0
C946 C 0.42356 0.51214 0.65978 0.0
C947 C 0.41953 0.52228 0.64717 0.0
C948 C 0.41237 0.51056 0.67331 0.0
C949 C 0.44267 0.49197 0.67201 0.0
C950 C 0.39661 0.50496 0.67058 0.0
C951 C 0.3861 0.50331 0.68333 0.0
C952 C 0.39114 0.5073 0.69906 0.0
C953 C 0.40686 0.51317 0.7017 0.0
C954 C 0.41734 0.51484 0.68894 0.0
H955 H 0.45171 0.48341 0.66767 0.0
H956 H 0.44794 0.49862 0.68248 0.0
H957 H 0.43205 0.48509 0.67608 0.0
H958 H 0.39251 0.50168 0.65859 0.0
H959 H 0.37407 0.4988 0.68087 0.0
H960 H 0.76041 0.25243 0.64503 0.0
H961 H 0.75736 0.27095 0.62293 0.0
H962 H 0.7627 0.31097 0.65595 0.0
H963 H 0.76594 0.29243 0.67817 0.0
H964 H 0.73553 0.29447 0.61704 0.0
H965 H 0.79714 0.3203 0.62345 0.0
H966 H 0.79089 0.30253 0.63377 0.0
H967 H 0.785 0.32191 0.64092 0.0
C968 C 0.76078 0.26517 0.64762 0.0
C969 C 0.76348 0.27098 0.66333 0.0
C970 C 0.75907 0.27574 0.63498 0.0
C971 C 0.76 0.29234 0.63776 0.0
C972 C 0.76227 0.29821 0.65348 0.0
H973 H 0.73982 0.35477 0.55529 0.0
H974 H 0.7382 0.34363 0.58224 0.0
C975 C 0.76411 0.28762 0.66616 0.0
C976 C 0.75901 0.3033 0.62401 0.0
H977 H 0.78105 0.3299 0.60254 0.0
C978 C 0.74539 0.30236 0.61394 0.0
C979 C 0.77195 0.31352 0.61998 0.0
C980 C 0.78714 0.31459 0.62999 0.0
C981 C 0.74461 0.31091 0.59962 0.0
C982 C 0.75767 0.32089 0.59544 0.0
C983 C 0.77101 0.32231 0.60584 0.0
C984 C 0.75867 0.32835 0.57951 0.0
C985 C 0.73019 0.30852 0.58868 0.0
C986 C 0.7709 0.32376 0.56922 0.0
C987 C 0.77194 0.33015 0.55398 0.0
C988 C 0.76073 0.34132 0.54861 0.0
C989 C 0.74858 0.34613 0.55902 0.0
C990 C 0.74759 0.33972 0.57439 0.0
H991 H 0.72252 0.29825 0.59231 0.0
H992 H 0.72286 0.31945 0.58901 0.0
H993 H 0.73393 0.30645 0.57614 0.0
H994 H 0.77957 0.315 0.57292 0.0
H995 H 0.78148 0.32617 0.54634 0.0
H996 H 0.51275 0.00097 0.59844 0.0
H997 H 0.53172 0.00893 0.6199 0.0
H998 H 0.54395 0.9595 0.62626 0.0
H999 H 0.52494 0.95144 0.60514 0.0
H1000 H 0.52882 0.99883 0.651 0.0
H1001 H 0.58779 0.98194 0.62765 0.0
H1002 H 0.57044 0.98447 0.61479 0.0
H1003 H 0.57325 0.966 0.62518 0.0
C1004 C 0.51959 0.99182 0.60432 0.0
C1005 C 0.5173 0.97555 0.6001 0.0
C1006 C 0.5305 0.9964 0.61647 0.0
C1007 C 0.53942 0.98483 0.62447 0.0
C1008 C 0.53753 0.96867 0.61994 0.0
H1009 H 0.56859 0.96727 0.71754 0.0
H1010 H 0.55645 0.97097 0.69117 0.0
C1011 C 0.52661 0.96407 0.60786 0.0
C1012 C 0.54917 0.9892 0.63886 0.0
H1013 H 0.58554 0.98293 0.6566 0.0
C1014 C 0.54134 0.99573 0.65211 0.0
C1015 C 0.56553 0.98532 0.64024 0.0
C1016 C 0.57479 0.9792 0.62614 0.0
C1017 C 0.5491 0.99729 0.66705 0.0
C1018 C 0.56501 0.99208 0.66874 0.0
C1019 C 0.57326 0.98674 0.65525 0.0
C1020 C 0.57251 0.99028 0.6847 0.0
C1021 C 0.54002 0.00383 0.6811 0.0
C1022 C 0.58572 -0.00021 0.68962 0.0
C1023 C 0.5927 0.99776 0.70478 0.0
C1024 C 0.58667 0.98601 0.71508 0.0
C1025 C 0.57354 0.97641 0.70993 0.0
C1026 C 0.56653 0.97855 0.6949 0.0
H1027 H 0.52974 0.01111 0.67714 0.0
H1028 H 0.53529 0.99371 0.68816 0.0
H1029 H 0.54799 0.01129 0.68907 0.0
H1030 H 0.59054 0.00883 0.6818 0.0
H1031 H 0.60284 0.0053 0.70839 0.0
H1032 H 0.84937 0.24541 0.77527 0.0
H1033 H 0.87391 0.24726 0.79149 0.0
H1034 H 0.8762 0.19576 0.79205 0.0
H1035 H 0.852 0.1938 0.77522 0.0
H1036 H 0.87993 0.23551 0.82167 0.0
H1037 H 0.92074 0.20859 0.77711 0.0
H1038 H 0.90088 0.21504 0.7718 0.0
H1039 H 0.90357 0.19653 0.78205 0.0
C1040 C 0.8552 0.23447 0.77863 0.0
C1041 C 0.84876 0.21946 0.77382 0.0
C1042 C 0.86916 0.23554 0.78802 0.0
C1043 C 0.87699 0.22165 0.7928 0.0
C1044 C 0.8705 0.20664 0.78826 0.0
H1045 H 0.96681 0.22124 0.85058 0.0
H1046 H 0.94151 0.21164 0.83799 0.0
C1047 C 0.85656 0.20554 0.77879 0.0
C1048 C 0.89189 0.22308 0.80264 0.0
H1049 H 0.93215 0.21669 0.80197 0.0
C1050 C 0.89132 0.23125 0.81743 0.0
C1051 C 0.90672 0.21744 0.79711 0.0
C1052 C 0.90813 0.20902 0.7811 0.0
C1053 C 0.90526 0.23438 0.82659 0.0
C1054 C 0.92012 0.22926 0.82079 0.0
C1055 C 0.92066 0.22049 0.80638 0.0
C1056 C 0.93533 0.23469 0.82851 0.0
C1057 C 0.90411 0.24354 0.84222 0.0
C1058 C 0.94019 0.25071 0.82713 0.0
C1059 C 0.95455 0.25617 0.83412 0.0
C1060 C 0.96437 0.24571 0.84271 0.0
C1061 C 0.95949 0.22959 0.84408 0.0
C1062 C 0.94509 0.22409 0.8369 0.0
H1063 H 0.89168 0.24352 0.84673 0.0
H1064 H 0.91213 0.23841 0.85145 0.0
H1065 H 0.90797 0.25615 0.84042 0.0
H1066 H 0.93285 0.25901 0.82057 0.0
H1067 H 0.95789 0.26865 0.83283 0.0
H1068 H 0.48838 0.88566 0.49247 0.0
H1069 H 0.49287 0.86357 0.47371 0.0
H1070 H 0.44745 0.84221 0.48602 0.0
H1071 H 0.44281 0.86444 0.50481 0.0
H1072 H 0.49456 0.83089 0.47793 0.0
H1073 H 0.44367 0.84614 0.43756 0.0
H1074 H 0.45094 0.85951 0.45332 0.0
H1075 H 0.43853 0.8425 0.45798 0.0
C1076 C 0.47941 0.87618 0.49132 0.0
C1077 C 0.46521 0.87681 0.50007 0.0
C1078 C 0.48198 0.86358 0.48058 0.0
C1079 C 0.47042 0.85136 0.47833 0.0
C1080 C 0.45639 0.85169 0.48735 0.0
H1081 H 0.4918 0.76765 0.4169 0.0
H1082 H 0.48477 0.78389 0.44038 0.0
C1083 C 0.45376 0.86438 0.49806 0.0
C1084 C 0.47299 0.83862 0.46616 0.0
H1085 H 0.45901 0.82402 0.43012 0.0
C1086 C 0.48672 0.82926 0.46753 0.0
C1087 C 0.46279 0.83664 0.45257 0.0
C1088 C 0.44822 0.84679 0.45013 0.0
C1089 C 0.49078 0.81826 0.45544 0.0
C1090 C 0.48067 0.81641 0.44178 0.0
C1091 C 0.46669 0.82543 0.44066 0.0
C1092 C 0.48504 0.80634 0.42784 0.0
C1093 C 0.5062 0.80926 0.45705 0.0
C1094 C 0.4873 0.81355 0.41299 0.0
C1095 C 0.49117 0.80434 0.3996 0.0
C1096 C 0.49287 0.78769 0.40073 0.0
C1097 C 0.49067 0.78046 0.41565 0.0
C1098 C 0.48671 0.78972 0.42909 0.0
H1099 H 0.51413 0.81439 0.4667 0.0
H1100 H 0.50345 0.79662 0.45997 0.0
H1101 H 0.51281 0.80935 0.44563 0.0
H1102 H 0.48608 0.82636 0.41178 0.0
H1103 H 0.49278 0.81033 0.38832 0.0
H1104 H 0.15956 0.28533 0.77631 0.0
H1105 H 0.13737 0.28101 0.79446 0.0
H1106 H 0.14306 0.22998 0.79003 0.0
H1107 H 0.16557 0.23416 0.7721 0.0
H1108 H 0.11157 0.24057 0.78414 0.0
H1109 H 0.13646 0.26577 0.84125 0.0
H1110 H 0.139 0.27876 0.82453 0.0
H1111 H 0.14893 0.25985 0.82479 0.0
C1112 C 0.15638 0.27318 0.77947 0.0
C1113 C 0.16439 0.26009 0.77273 0.0
C1114 C 0.14367 0.27074 0.78985 0.0
C1115 C 0.13872 0.25518 0.79374 0.0
C1116 C 0.14677 0.24208 0.78723 0.0
H1117 H 0.05794 0.23867 0.85888 0.0
H1118 H 0.08396 0.23528 0.84602 0.0
C1119 C 0.15955 0.24451 0.77689 0.0
C1120 C 0.12431 0.25268 0.80354 0.0
H1121 H 0.10784 0.26277 0.83937 0.0
C1122 C 0.11083 0.24517 0.79632 0.0
C1123 C 0.12343 0.25856 0.81947 0.0
C1124 C 0.13777 0.26605 0.82804 0.0
C1125 C 0.09622 0.2442 0.80429 0.0
C1126 C 0.09509 0.25096 0.81982 0.0
C1127 C 0.10877 0.25767 0.82741 0.0
C1128 C 0.07945 0.25262 0.82763 0.0
C1129 C 0.08192 0.23642 0.79587 0.0
C1130 C 0.06849 0.26356 0.82158 0.0
C1131 C 0.05379 0.26561 0.82891 0.0
C1132 C 0.0497 0.2567 0.84243 0.0
C1133 C 0.06071 0.24566 0.84846 0.0
C1134 C 0.07556 0.24373 0.84116 0.0
H1135 H 0.08552 0.22866 0.78568 0.0
H1136 H 0.07487 0.22913 0.80433 0.0
H1137 H 0.07404 0.24586 0.79115 0.0
H1138 H 0.07137 0.27062 0.81123 0.0
H1139 H 0.04561 0.2742 0.82392 0.0
H1140 H 0.52121 0.6141 0.49635 0.0
H1141 H 0.51794 0.63567 0.47719 0.0
H1142 H 0.53202 0.60399 0.4389 0.0
H1143 H 0.53481 0.5822 0.45788 0.0
H1144 H 0.54073 0.64916 0.45712 0.0
H1145 H 0.48999 0.62207 0.42186 0.0
H1146 H 0.49603 0.6148 0.44122 0.0
H1147 H 0.5071 0.60949 0.42372 0.0
C1148 C 0.52341 0.61165 0.48383 0.0
C1149 C 0.52818 0.59637 0.47865 0.0
C1150 C 0.52164 0.62402 0.47291 0.0
C1151 C 0.52451 0.62137 0.45659 0.0
C1152 C 0.52946 0.60622 0.4514 0.0
H1153 H 0.52083 0.68202 0.37295 0.0
H1154 H 0.52443 0.66002 0.39159 0.0
C1155 C 0.53123 0.59383 0.4623 0.0
C1156 C 0.52263 0.63457 0.44508 0.0
H1157 H 0.50178 0.64575 0.4117 0.0
C1158 C 0.53218 0.64845 0.44722 0.0
C1159 C 0.51148 0.63359 0.43215 0.0
C1160 C 0.50045 0.61926 0.42963 0.0
C1161 C 0.53104 0.66129 0.43666 0.0
C1162 C 0.51985 0.66034 0.42377 0.0
C1163 C 0.51035 0.64644 0.42158 0.0
C1164 C 0.51769 0.67372 0.41252 0.0
C1165 C 0.54203 0.67566 0.43921 0.0
C1166 C 0.5125 0.68865 0.41808 0.0
C1167 C 0.51043 0.70124 0.40748 0.0
C1168 C 0.51344 0.69913 0.39107 0.0
C1169 C 0.51846 0.68408 0.38551 0.0
C1170 C 0.52051 0.67148 0.39613 0.0
H1171 H 0.55257 0.67281 0.44686 0.0
H1172 H 0.54632 0.68025 0.42762 0.0
H1173 H 0.53539 0.68533 0.44528 0.0
H1174 H 0.50994 0.69054 0.43063 0.0
H1175 H 0.50647 0.71264 0.41216 0.0
H1176 H 0.87968 0.8263 0.75437 0.0
H1177 H 0.89831 0.81893 0.73341 0.0
H1178 H 0.89487 0.76954 0.74728 0.0
H1179 H 0.87558 0.77666 0.76776 0.0
H1180 H 0.92754 0.80438 0.73386 0.0
H1181 H 0.88223 0.76718 0.70016 0.0
H1182 H 0.87701 0.78032 0.71652 0.0
H1183 H 0.88567 0.76121 0.72045 0.0
C1184 C 0.88278 0.81384 0.7529 0.0
C1185 C 0.87594 0.80204 0.76261 0.0
C1186 C 0.89356 0.80968 0.74102 0.0
C1187 C 0.89775 0.79366 0.73862 0.0
C1188 C 0.89154 0.78194 0.74874 0.0
H1189 H 0.97218 0.76567 0.67091 0.0
H1190 H 0.95747 0.77031 0.69563 0.0
C1191 C 0.88066 0.78607 0.76057 0.0
C1192 C 0.9081 0.78925 0.72509 0.0
H1193 H 0.9083 0.76803 0.68987 0.0
C1194 C 0.9234 0.79637 0.72426 0.0
C1195 C 0.90255 0.77894 0.71252 0.0
C1196 C 0.88593 0.77157 0.71232 0.0
C1197 C 0.93323 0.79363 0.71107 0.0
C1198 C 0.92771 0.78324 0.69856 0.0
C1199 C 0.91253 0.77591 0.69954 0.0
C1200 C 0.93693 0.7806 0.68381 0.0
C1201 C 0.94917 0.80234 0.71036 0.0
C1202 C 0.93014 0.78457 0.66897 0.0
C1203 C 0.93839 0.78177 0.65487 0.0
C1204 C 0.95365 0.77494 0.65529 0.0
C1205 C 0.96049 0.77104 0.67019 0.0
C1206 C 0.95215 0.77376 0.68433 0.0
H1207 H 0.94997 0.81258 0.71899 0.0
H1208 H 0.95886 0.79394 0.71338 0.0
H1209 H 0.9513 0.80687 0.69814 0.0
H1210 H 0.91841 0.78985 0.6683 0.0
H1211 H 0.93277 0.78495 0.64362 0.0
H1212 H 0.05719 0.90613 0.52117 0.0
H1213 H 0.05259 0.88674 0.54215 0.0
H1214 H 0.03634 0.85183 0.50665 0.0
H1215 H 0.04172 0.87087 0.48548 0.0
H1216 H 0.02425 0.87463 0.54944 0.0
H1217 H 0.06413 0.82468 0.53463 0.0
H1218 H 0.06634 0.84419 0.52587 0.0
H1219 H 0.05191 0.82988 0.51773 0.0
C1220 C 0.05311 0.89418 0.51774 0.0
C1221 C 0.04983 0.89008 0.5016 0.0
C1222 C 0.05038 0.88313 0.52979 0.0
C1223 C 0.04431 0.86777 0.52598 0.0
C1224 C 0.04138 0.86349 0.50987 0.0
H1225 H 0.98037 0.80816 0.57554 0.0
H1226 H 0.99467 0.82797 0.55994 0.0
C1227 C 0.04422 0.87449 0.49778 0.0
C1228 C 0.0394 0.85685 0.53888 0.0
H1229 H 0.04152 0.8182 0.55122 0.0
C1230 C 0.02826 0.86238 0.54999 0.0
C1231 C 0.0448 0.84094 0.53979 0.0
C1232 C 0.05759 0.83463 0.52896 0.0
C1233 C 0.02171 0.85218 0.56139 0.0
C1234 C 0.02615 0.83594 0.56145 0.0
C1235 C 0.03798 0.83062 0.55099 0.0
C1236 C 0.01768 0.82408 0.57133 0.0
C1237 C 0.00986 0.85882 0.57308 0.0
C1238 C 0.02597 0.81506 0.58269 0.0
C1239 C 0.01781 0.80359 0.59164 0.0
C1240 C 0.00126 0.8009 0.58923 0.0
C1241 C 0.99308 0.80996 0.57778 0.0
C1242 C 0.00122 0.82138 0.5689 0.0
H1243 H 0.01166 0.87193 0.57494 0.0
H1244 H 0.99755 0.85674 0.56824 0.0
H1245 H 0.01085 0.8529 0.58485 0.0
H1246 H 0.03872 0.8169 0.58463 0.0
H1247 H 0.02447 0.79675 0.6003 0.0
H1248 H 0.15428 0.76227 0.7185 0.0
H1249 H 0.13094 0.76585 0.70093 0.0
H1250 H 0.12058 0.71514 0.70211 0.0
H1251 H 0.14401 0.71146 0.71953 0.0
H1252 H 0.11788 0.72681 0.672 0.0
H1253 H 0.08464 0.76486 0.71455 0.0
H1254 H 0.10422 0.77265 0.71029 0.0
H1255 H 0.10215 0.75394 0.72046 0.0
C1256 C 0.14696 0.7519 0.71508 0.0
C1257 C 0.15091 0.7366 0.72045 0.0
C1258 C 0.13362 0.75397 0.70508 0.0
C1259 C 0.12385 0.7408 0.70046 0.0
C1260 C 0.12793 0.72547 0.70558 0.0
H1261 H 0.02767 0.74658 0.66056 0.0
H1262 H 0.05135 0.74173 0.67721 0.0
C1263 C 0.14134 0.72338 0.71548 0.0
C1264 C 0.10945 0.74297 0.6902 0.0
H1265 H 0.07408 0.7627 0.68801 0.0
C1266 C 0.10827 0.73461 0.67551 0.0
C1267 C 0.09681 0.75297 0.69492 0.0
C1268 C 0.0969 0.76149 0.71099 0.0
C1269 C 0.0949 0.73615 0.66529 0.0
C1270 C 0.08256 0.74663 0.66975 0.0
C1271 C 0.08363 0.7548 0.68454 0.0
C1272 C 0.0683 0.74915 0.65936 0.0
C1273 C 0.094 0.7263 0.65 0.0
C1274 C 0.06995 0.75503 0.64383 0.0
C1275 C 0.05644 0.7577 0.63423 0.0
C1276 C 0.041 0.75475 0.64007 0.0
C1277 C 0.03939 0.74898 0.65569 0.0
C1278 C 0.05291 0.74621 0.66523 0.0
H1279 H 0.10186 0.71574 0.6506 0.0
H1280 H 0.08155 0.72208 0.64734 0.0
H1281 H 0.09804 0.73377 0.63993 0.0
H1282 H 0.08169 0.75777 0.63919 0.0
H1283 H 0.05809 0.76228 0.62231 0.0
H1284 H 0.96658 0.59308 0.53509 0.0
H1285 H 0.97169 0.61411 0.55542 0.0
H1286 H 0.97599 0.64907 0.51826 0.0
H1287 H 0.97105 0.62817 0.49795 0.0
H1288 H 0.99908 0.65304 0.54222 0.0
H1289 H 0.93807 0.6468 0.56737 0.0
H1290 H 0.94983 0.62902 0.56735 0.0
H1291 H 0.94346 0.6374 0.54869 0.0
C1292 C 0.96864 0.60526 0.53129 0.0
C1293 C 0.96833 0.60901 0.51494 0.0
C1294 C 0.97155 0.61724 0.5429 0.0
C1295 C 0.97398 0.63316 0.53834 0.0
C1296 C 0.97416 0.63684 0.52202 0.0
H1297 H 0.95614 0.72351 0.57891 0.0
H1298 H 0.95677 0.69732 0.56579 0.0
C1299 C 0.97136 0.62488 0.51043 0.0
C1300 C 0.97568 0.64625 0.55041 0.0
H1301 H 0.95484 0.66702 0.57845 0.0
C1302 C 0.98951 0.65602 0.5503 0.0
C1303 C 0.9631 0.65011 0.56084 0.0
C1304 C 0.94771 0.64039 0.56106 0.0
C1305 C 0.99086 0.66992 0.55991 0.0
C1306 C 0.97813 0.67394 0.57009 0.0
C1307 C 0.96459 0.66382 0.57067 0.0
C1308 C 0.97776 0.6895 0.57877 0.0
C1309 C 0.00547 0.68062 0.55844 0.0
C1310 C 0.98926 0.69371 0.59059 0.0
C1311 C 0.989 0.7088 0.59809 0.0
C1312 C 0.97716 0.71982 0.59395 0.0
C1313 C 0.96545 0.71535 0.58238 0.0
C1314 C 0.96576 0.70035 0.57488 0.0
H1315 H 0.01276 0.67729 0.54793 0.0
H1316 H 0.00198 0.69332 0.55734 0.0
H1317 H 0.01309 0.67963 0.56935 0.0
H1318 H 0.99845 0.68537 0.59396 0.0
H1319 H 0.99813 0.71184 0.60703 0.0
H1320 H 0.77698 0.844 0.24518 0.0
H1321 H 0.79166 0.86956 0.24568 0.0
H1322 H 0.78405 0.87374 0.19478 0.0
H1323 H 0.76896 0.84832 0.19421 0.0
H1324 H 0.81951 0.8786 0.22823 0.0
H1325 H 0.76683 0.91603 0.21398 0.0
H1326 H 0.76478 0.89566 0.22061 0.0
H1327 H 0.77062 0.89961 0.20047 0.0
C1328 C 0.7783 0.85041 0.2341 0.0
C1329 C 0.7717 0.84419 0.21968 0.0
C1330 C 0.7868 0.86494 0.23439 0.0
C1331 C 0.7888 0.87358 0.2203 0.0
C1332 C 0.78247 0.86732 0.20581 0.0
H1333 H 0.85229 0.95952 0.22371 0.0
H1334 H 0.83942 0.9347 0.21337 0.0
C1335 C 0.77398 0.85275 0.2055 0.0
C1336 C 0.79735 0.88925 0.22097 0.0
H1337 H 0.79143 0.92947 0.21874 0.0
C1338 C 0.81347 0.88973 0.22595 0.0
C1339 C 0.78935 0.90371 0.21804 0.0
C1340 C 0.77191 0.90386 0.21308 0.0
C1341 C 0.82169 0.90435 0.22859 0.0
C1342 C 0.81358 0.91882 0.22603 0.0
C1343 C 0.79762 0.91832 0.22054 0.0
C1344 C 0.82075 0.93447 0.23102 0.0
C1345 C 0.8387 0.90424 0.2349 0.0
C1346 C 0.81422 0.94275 0.244 0.0
C1347 C 0.82148 0.95683 0.24988 0.0
C1348 C 0.83541 0.963 0.24286 0.0
C1349 C 0.8416 0.95504 0.22941 0.0
C1350 C 0.83432 0.94084 0.22354 0.0
H1351 H 0.84247 0.89206 0.23835 0.0
H1352 H 0.84687 0.90861 0.22554 0.0
H1353 H 0.84012 0.91237 0.24549 0.0
H1354 H 0.80374 0.93805 0.2499 0.0
H1355 H 0.81631 0.9627 0.26018 0.0
H1356 H 0.75514 0.14493 0.25547 0.0
H1357 H 0.77344 0.1226 0.25309 0.0
H1358 H 0.81365 0.15487 0.26149 0.0
H1359 H 0.79531 0.17732 0.2641 0.0
H1360 H 0.79813 0.11648 0.23285 0.0
H1361 H 0.82026 0.12185 0.29588 0.0
H1362 H 0.80315 0.1326 0.28867 0.0
H1363 H 0.82304 0.13941 0.28408 0.0
C1364 C 0.76789 0.14731 0.25665 0.0
C1365 C 0.77379 0.16287 0.26005 0.0
C1366 C 0.77834 0.13453 0.25531 0.0
C1367 C 0.7949 0.13702 0.25732 0.0
C1368 C 0.80089 0.15262 0.26023 0.0
H1369 H 0.85725 0.05386 0.24017 0.0
H1370 H 0.8464 0.08087 0.23794 0.0
C1371 C 0.79042 0.16542 0.26171 0.0
C1372 C 0.80567 0.1231 0.25684 0.0
H1373 H 0.83057 0.10102 0.28016 0.0
C1374 C 0.80537 0.11316 0.24312 0.0
C1375 C 0.81503 0.11878 0.2703 0.0
C1376 C 0.81535 0.12861 0.28563 0.0
C1377 C 0.8137 0.09871 0.2427 0.0
C1378 C 0.82283 0.09427 0.25627 0.0
C1379 C 0.82363 0.10452 0.26974 0.0
C1380 C 0.83 0.07822 0.25755 0.0
C1381 C 0.81198 0.08793 0.22809 0.0
C1382 C 0.82466 0.06795 0.26951 0.0
C1383 C 0.8309 0.05268 0.2709 0.0
C1384 C 0.84265 0.04727 0.26034 0.0
C1385 C 0.84815 0.05763 0.24843 0.0
C1386 C 0.84191 0.07303 0.24709 0.0
H1387 H 0.80219 0.09174 0.21992 0.0
H1388 H 0.82331 0.08822 0.22136 0.0
H1389 H 0.80956 0.07537 0.23159 0.0
H1390 H 0.81548 0.07169 0.2777 0.0
H1391 H 0.82636 0.04507 0.28022 0.0
H1392 H 0.38869 0.99203 0.99602 0.0
H1393 H 0.36654 0.97301 -0.00063 0.0
H1394 H 0.34739 0.98523 0.95299 0.0
H1395 H 0.36968 0.00425 0.94949 0.0
H1396 H 0.33388 0.9771 -0.00047 0.0
H1397 H 0.35137 0.93683 0.94939 0.0
H1398 H 0.3644 0.95261 0.95723 0.0
H1399 H 0.34799 0.95724 0.94404 0.0
C1400 C 0.37969 0.99078 0.98659 0.0
C1401 C 0.38095 -0.00041 0.97246 0.0
C1402 C 0.36706 0.97989 0.9885 0.0
C1403 C 0.35543 0.97757 0.97635 0.0
C1404 C 0.35641 0.98661 0.96238 0.0
H1405 H 0.27021 0.91684 0.99398 0.0
H1406 H 0.28704 0.9401 0.9875 0.0
C1407 C 0.36913 0.99746 0.9604 0.0
C1408 C 0.34256 0.96538 0.97833 0.0
H1409 H 0.32832 0.92951 0.96351 0.0
C1410 C 0.33255 0.96674 0.9916 0.0
C1411 C 0.34097 0.95185 0.968 0.0
C1412 C 0.35181 0.9494 0.95394 0.0
C1413 C 0.32125 0.95472 0.99506 0.0
C1414 C 0.31975 0.94113 0.9848 0.0
C1415 C 0.32946 0.94 0.97129 0.0
C1416 C 0.30929 0.92726 0.98861 0.0
C1417 C 0.31154 0.95631 0.01006 0.0
C1418 C 0.31619 0.91232 0.99108 0.0
C1419 C 0.30665 0.89904 0.99462 0.0
C1420 C 0.28996 0.90041 0.99578 0.0
C1421 C 0.28303 0.91541 0.99328 0.0
C1422 C 0.29263 0.92872 0.98964 0.0
H1423 H 0.31646 0.9658 0.0183 0.0
H1424 H 0.29909 0.95947 0.00674 0.0
H1425 H 0.31111 0.94483 0.01655 0.0
H1426 H 0.32902 0.91093 0.99034 0.0
H1427 H 0.3124 0.8877 0.99648 0.0
H1428 H 0.27583 0.38622 0.28269 0.0
H1429 H 0.25487 0.40454 0.27464 0.0
H1430 H 0.23786 0.40616 0.32308 0.0
H1431 H 0.25931 0.38855 0.33143 0.0
H1432 H 0.22365 0.39847 0.27548 0.0
H1433 H 0.23715 0.45283 0.31217 0.0
H1434 H 0.25136 0.437 0.3097 0.0
H1435 H 0.23576 0.43532 0.32422 0.0
C1436 C 0.26794 0.39083 0.29175 0.0
C1437 C 0.26928 0.3859 0.30773 0.0
C1438 C 0.25587 0.40121 0.28709 0.0
C1439 C 0.24491 0.40689 0.29828 0.0
C1440 C 0.24639 0.40224 0.31429 0.0
H1441 H 0.14742 0.43216 0.282 0.0
H1442 H 0.17297 0.41976 0.28801 0.0
C1443 C 0.25852 0.39195 0.319 0.0
C1444 C 0.23109 0.41644 0.29297 0.0
H1445 H 0.21035 0.45034 0.30124 0.0
C1446 C 0.22087 0.40992 0.28097 0.0
C1447 C 0.22757 0.43148 0.29996 0.0
C1448 C 0.23864 0.43965 0.3121 0.0
C1449 C 0.20689 0.4177 0.27623 0.0
C1450 C 0.20283 0.4322 0.28399 0.0
C1451 C 0.21338 0.43909 0.29549 0.0
C1452 C 0.18739 0.44003 0.28072 0.0
C1453 C 0.19661 0.41028 0.26297 0.0
C1454 C 0.18702 0.45578 0.27517 0.0
C1455 C 0.17239 0.46301 0.27187 0.0
C1456 C 0.15789 0.45459 0.2741 0.0
C1457 C 0.15835 0.43893 0.27998 0.0
C1458 C 0.17295 0.43178 0.28335 0.0
H1459 H 0.20367 0.40231 0.25511 0.0
H1460 H 0.18695 0.40292 0.26828 0.0
H1461 H 0.19101 0.41959 0.2555 0.0
H1462 H 0.19806 0.46239 0.27319 0.0
H1463 H 0.17245 0.4751 0.2674 0.0
H1464 H 0.09325 0.02423 0.4945 0.0
H1465 H 0.11234 0.04598 0.50134 0.0
H1466 H 0.12377 0.05037 0.45143 0.0
H1467 H 0.10487 0.02877 0.44455 0.0
H1468 H 0.14401 0.04467 0.49634 0.0
H1469 H 0.12031 0.09677 0.46469 0.0
H1470 H 0.10818 0.07917 0.46845 0.0
H1471 H 0.12111 0.07977 0.4514 0.0
C1472 C 0.09971 0.02999 0.48499 0.0
C1473 C 0.09756 0.0248 0.46898 0.0
C1474 C 0.11051 0.04247 0.4889 0.0
C1475 C 0.11924 0.05001 0.47687 0.0
C1476 C 0.11679 0.0451 0.46086 0.0
H1477 H 0.20582 0.09052 0.45433 0.0
H1478 H 0.17851 0.0804 0.45723 0.0
C1479 C 0.10601 0.03268 0.45695 0.0
C1480 C 0.13238 0.06152 0.48099 0.0
H1481 H 0.14934 0.0966 0.46886 0.0
C1482 C 0.145 0.05625 0.49074 0.0
C1483 C 0.13359 0.07666 0.47376 0.0
C1484 C 0.11997 0.08348 0.46414 0.0
C1485 C 0.15938 0.06508 0.49226 0.0
C1486 C 0.16105 0.07956 0.48391 0.0
C1487 C 0.14802 0.08542 0.47515 0.0
C1488 C 0.17687 0.0874 0.48217 0.0
C1489 C 0.17311 0.05829 0.50178 0.0
C1490 C 0.18482 0.09497 0.4952 0.0
C1491 C 0.2005 0.1008 0.49359 0.0
C1492 C 0.20841 0.09904 0.47894 0.0
C1493 C 0.20013 0.09195 0.4658 0.0
C1494 C 0.18449 0.08623 0.46741 0.0
H1495 H 0.17025 0.04621 0.50642 0.0
H1496 H 0.1839 0.0575 0.49425 0.0
H1497 H 0.17609 0.06637 0.5121 0.0
H1498 H 0.17904 0.09604 0.50666 0.0
H1499 H 0.20655 0.10625 0.50391 0.0
H1500 H 0.72624 0.13923 0.70588 0.0
H1501 H 0.70887 0.11547 0.708 0.0
H1502 H 0.70496 0.12421 0.75876 0.0
H1503 H 0.72212 0.14811 0.75672 0.0
H1504 H 0.71469 0.08822 0.72857 0.0
H1505 H 0.65783 0.11901 0.74173 0.0
H1506 H 0.67469 0.12908 0.73279 0.0
H1507 H 0.6749 0.12515 0.75385 0.0
C1508 C 0.72152 0.13619 0.71746 0.0
C1509 C 0.7255 0.14556 0.73113 0.0
C1510 C 0.71169 0.12259 0.71866 0.0
C1511 C 0.70553 0.11822 0.7335 0.0
C1512 C 0.70945 0.12752 0.74717 0.0
H1513 H 0.64407 0.04138 0.76622 0.0
H1514 H 0.66093 0.06537 0.76363 0.0
C1515 C 0.71936 0.14108 0.746 0.0
C1516 C 0.69534 0.10367 0.73476 0.0
H1517 H 0.65759 0.09079 0.74359 0.0
C1518 C 0.70218 0.08874 0.73178 0.0
C1519 C 0.67908 0.10447 0.73903 0.0
C1520 C 0.67109 0.12028 0.74193 0.0
C1521 C 0.69324 0.07449 0.73324 0.0
C1522 C 0.67692 0.07526 0.73742 0.0
C1523 C 0.67009 0.09023 0.74038 0.0
C1524 C 0.66674 0.06068 0.73888 0.0
C1525 C 0.70146 0.05873 0.7307 0.0
C1526 C 0.66423 0.05021 0.72575 0.0
C1527 C 0.65469 0.03643 0.72721 0.0
C1528 C 0.6473 0.03299 0.74178 0.0
C1529 C 0.6496 0.04366 0.75483 0.0
C1530 C 0.65923 0.05739 0.75338 0.0
H1531 H 0.71467 0.06005 0.73202 0.0
H1532 H 0.6972 0.04968 0.7393 0.0
H1533 H 0.69874 0.05417 0.7184 0.0
H1534 H 0.6696 0.05273 0.71433 0.0
H1535 H 0.65304 0.02854 0.71689 0.0
H1536 H 0.36707 0.97712 0.53254 0.0
H1537 H 0.34611 0.99588 0.52511 0.0
H1538 H 0.37835 0.03559 0.53579 0.0
H1539 H 0.3995 0.01701 0.54268 0.0
H1540 H 0.33209 0.02169 0.54252 0.0
H1541 H 0.36453 0.04211 0.48883 0.0
H1542 H 0.3699 0.02432 0.49948 0.0
H1543 H 0.37586 0.04373 0.50725 0.0
C1544 C 0.36971 0.98985 0.53326 0.0
C1545 C 0.385 0.99556 0.53809 0.0
C1546 C 0.35769 0.00053 0.52914 0.0
C1547 C 0.36078 0.01708 0.52971 0.0
C1548 C 0.37582 0.02284 0.53507 0.0
H1549 H 0.29141 0.0933 0.51768 0.0
H1550 H 0.31133 0.07517 0.52873 0.0
C1551 C 0.38783 0.01219 0.53916 0.0
C1552 C 0.34851 0.02832 0.52409 0.0
H1553 H 0.34093 0.0558 0.49532 0.0
C1554 C 0.33399 0.02918 0.53222 0.0
C1555 C 0.35101 0.0379 0.51053 0.0
C1556 C 0.36609 0.03692 0.5009 0.0
C1557 C 0.32188 0.03949 0.52717 0.0
C1558 C 0.32451 0.04928 0.51379 0.0
C1559 C 0.33902 0.04836 0.50566 0.0
C1560 C 0.31213 0.06007 0.50749 0.0
C1561 C 0.30624 0.03955 0.53594 0.0
C1562 C 0.30623 0.05773 0.49181 0.0
C1563 C 0.295 0.0681 0.48543 0.0
C1564 C 0.28946 0.08108 0.49458 0.0
C1565 C 0.29539 0.0834 0.51033 0.0
C1566 C 0.30668 0.07299 0.5167 0.0
H1567 H 0.3048 0.02886 0.54355 0.0
H1568 H 0.30587 0.05036 0.5438 0.0
H1569 H 0.29595 0.03994 0.52739 0.0
H1570 H 0.31033 0.04785 0.48449 0.0
H1571 H 0.29069 0.06593 0.47328 0.0
H1572 H 0.58616 0.4562 0.532 0.0
H1573 H 0.60817 0.4374 0.52972 0.0
H1574 H 0.64049 0.47636 0.5189 0.0
H1575 H 0.61869 0.4953 0.52164 0.0
H1576 H 0.62732 0.43129 0.50325 0.0
H1577 H 0.66398 0.45366 0.55517 0.0
H1578 H 0.6433 0.45896 0.55223 0.0
H1579 H 0.65873 0.46879 0.5411 0.0
C1580 C 0.598 0.46081 0.52935 0.0
C1581 C 0.60067 0.47728 0.52709 0.0
C1582 C 0.61053 0.45003 0.52795 0.0
C1583 C 0.62601 0.45551 0.52437 0.0
C1584 C 0.62871 0.4719 0.52196 0.0
H1585 H 0.7171 0.41036 0.50837 0.0
H1586 H 0.69496 0.42886 0.5113 0.0
C1587 C 0.61618 0.48269 0.52335 0.0
C1588 C 0.63924 0.444 0.52277 0.0
H1589 H 0.67598 0.43456 0.53803 0.0
C1590 C 0.63792 0.43194 0.51091 0.0
C1591 C 0.65307 0.4449 0.53276 0.0
C1592 C 0.65485 0.45717 0.54613 0.0
C1593 C 0.65022 0.42094 0.50855 0.0
C1594 C 0.66406 0.42186 0.51851 0.0
C1595 C 0.66536 0.43389 0.5304 0.0
C1596 C 0.67741 0.41051 0.51674 0.0
C1597 C 0.64844 0.40867 0.49516 0.0
C1598 C 0.67493 0.39406 0.51902 0.0
C1599 C 0.68756 0.38342 0.51733 0.0
C1600 C 0.70294 0.38906 0.51343 0.0
C1601 C 0.70541 0.40559 0.51134 0.0
C1602 C 0.69277 0.4162 0.51302 0.0
H1603 H 0.63919 0.41208 0.48621 0.0
H1604 H 0.65996 0.40704 0.48895 0.0
H1605 H 0.64476 0.397 0.5002 0.0
H1606 H 0.66324 0.38944 0.52221 0.0
H1607 H 0.68526 0.37079 0.51912 0.0
H1608 H 0.69216 0.26485 0.35215 0.0
H1609 H 0.69255 0.28043 0.37726 0.0
H1610 H 0.74277 0.29103 0.3714 0.0
H1611 H 0.7424 0.27582 0.34616 0.0
H1612 H 0.71115 0.27506 0.40467 0.0
H1613 H 0.72388 0.33519 0.38057 0.0
H1614 H 0.71679 0.31859 0.36812 0.0
H1615 H 0.73762 0.32041 0.37371 0.0
C1616 C 0.70323 0.27069 0.35611 0.0
C1617 C 0.71724 0.26914 0.34714 0.0
C1618 C 0.70344 0.27952 0.37047 0.0
C1619 C 0.71762 0.28709 0.37604 0.0
C1620 C 0.73162 0.28554 0.36715 0.0
H1621 H 0.75746 0.31372 0.46531 0.0
H1622 H 0.74649 0.30072 0.44119 0.0
C1623 C 0.73144 0.27668 0.35283 0.0
C1624 C 0.71808 0.29596 0.39153 0.0
H1625 H 0.7292 0.33188 0.40868 0.0
C1626 C 0.71484 0.28756 0.40554 0.0
C1627 C 0.72259 0.31234 0.39264 0.0
C1628 C 0.72526 0.32222 0.37794 0.0
C1629 C 0.71699 0.29484 0.4207 0.0
C1630 C 0.7227 0.31085 0.42182 0.0
C1631 C 0.72495 0.31956 0.40779 0.0
C1632 C 0.7281 0.31819 0.43727 0.0
C1633 C 0.71351 0.28521 0.43538 0.0
C1634 C 0.72146 0.33244 0.44304 0.0
C1635 C 0.72775 0.33999 0.45692 0.0
C1636 C 0.74094 0.3335 0.46505 0.0
C1637 C 0.74731 0.31907 0.45935 0.0
C1638 C 0.74098 0.31152 0.44561 0.0
H1639 H 0.70463 0.27545 0.4327 0.0
H1640 H 0.72471 0.27964 0.43967 0.0
H1641 H 0.70892 0.2929 0.44518 0.0
H1642 H 0.7116 0.33784 0.43666 0.0
H1643 H 0.72262 0.35112 0.46098 0.0
H1644 H 0.52286 0.048 0.9122 0.0
H1645 H 0.54208 0.04289 0.8911 0.0
H1646 H 0.50338 0.02959 0.85851 0.0
H1647 H 0.48402 0.0353 0.87935 0.0
H1648 H 0.54688 0.01438 0.87635 0.0
H1649 H 0.53019 0.05929 0.83135 0.0
H1650 H 0.52349 0.0603 0.85177 0.0
H1651 H 0.51341 0.04727 0.83736 0.0
C1652 C 0.5184 0.04435 0.90044 0.0
C1653 C 0.50188 0.04211 0.89745 0.0
C1654 C 0.52941 0.04134 0.88842 0.0
C1655 C 0.52415 0.03609 0.87318 0.0
C1656 C 0.50769 0.03398 0.87009 0.0
H1657 H 0.56939 0.97798 0.80362 0.0
H1658 H 0.55459 0.9898 0.82558 0.0
C1659 C 0.49665 0.03703 0.88209 0.0
C1660 C 0.53591 0.03159 0.8609 0.0
H1661 H 0.54618 0.0375 0.82205 0.0
C1662 C 0.54686 0.01959 0.86454 0.0
C1663 C 0.53605 0.03857 0.84559 0.0
C1664 C 0.52526 0.05219 0.84132 0.0
C1665 C 0.55746 0.01385 0.85305 0.0
C1666 C 0.55687 0.02009 0.83744 0.0
C1667 C 0.54646 0.03262 0.83399 0.0
C1668 C 0.56622 0.01306 0.82429 0.0
C1669 C 0.56908 0.00104 0.85769 0.0
C1670 C 0.57745 0.02234 0.81607 0.0
C1671 C 0.58594 0.01562 0.8034 0.0
C1672 C 0.5832 -0.00045 0.79869 0.0
C1673 C 0.57188 0.99036 0.80697 0.0
C1674 C 0.56345 0.99706 0.81959 0.0
H1675 H 0.57138 0.00107 0.87082 0.0
H1676 H 0.56393 0.98915 0.85417 0.0
H1677 H 0.58066 0.00264 0.85153 0.0
H1678 H 0.57966 0.03475 0.81947 0.0
H1679 H 0.59453 0.02304 0.79723 0.0
H1680 H 0.27721 0.26834 0.37996 0.0
H1681 H 0.26934 0.24692 0.39789 0.0
H1682 H 0.31824 0.2314 0.40052 0.0
H1683 H 0.32638 0.25331 0.38336 0.0
H1684 H 0.27104 0.2156 0.39277 0.0
H1685 H 0.30692 0.23169 0.44705 0.0
H1686 H 0.30422 0.24533 0.43074 0.0
H1687 H 0.31914 0.23007 0.42968 0.0
C1688 C 0.28637 0.26062 0.38465 0.0
C1689 C 0.30245 0.26261 0.38024 0.0
C1690 C 0.28182 0.2483 0.39481 0.0
C1691 C 0.29324 0.23771 0.40076 0.0
C1692 C 0.30928 0.23965 0.3964 0.0
H1693 H 0.27675 0.14095 0.43033 0.0
H1694 H 0.28306 0.16572 0.41655 0.0
C1695 C 0.31387 0.25205 0.38636 0.0
C1696 C 0.28821 0.224 0.41064 0.0
H1697 H 0.29644 0.20476 0.44546 0.0
C1698 C 0.27647 0.21333 0.40438 0.0
C1699 C 0.2951 0.22118 0.4259 0.0
C1700 C 0.30692 0.23278 0.43381 0.0
C1701 C 0.27183 0.19962 0.41268 0.0
C1702 C 0.27947 0.19626 0.42746 0.0
C1703 C 0.29078 0.20722 0.43402 0.0
C1704 C 0.27611 0.18128 0.4361 0.0
C1705 C 0.25872 0.18894 0.40558 0.0
C1706 C 0.27076 0.18179 0.45193 0.0
C1707 C 0.26736 0.16761 0.45996 0.0
C1708 C 0.26925 0.15269 0.45226 0.0
C1709 C 0.27498 0.15224 0.43653 0.0
C1710 C 0.27849 0.1664 0.42859 0.0
H1711 H 0.25085 0.19559 0.39726 0.0
H1712 H 0.26417 0.17906 0.39863 0.0
H1713 H 0.25122 0.18363 0.41504 0.0
H1714 H 0.26898 0.19316 0.45798 0.0
H1715 H 0.263 0.16836 0.47207 0.0
H1716 H 0.52514 0.46491 0.8502 0.0
H1717 H 0.50518 0.473 0.83014 0.0
H1718 H 0.46738 0.46193 0.86285 0.0
H1719 H 0.48714 0.45402 0.88297 0.0
H1720 H 0.47502 0.45378 0.81785 0.0
H1721 H 0.46416 0.51134 0.84981 0.0
H1722 H 0.48244 0.50035 0.85235 0.0
H1723 H 0.46451 0.49378 0.86198 0.0
C1724 C 0.51257 0.46413 0.85306 0.0
C1725 C 0.5077 0.45886 0.86817 0.0
C1726 C 0.50122 0.46868 0.84159 0.0
C1727 C 0.48489 0.46816 0.84514 0.0
C1728 C 0.47997 0.46246 0.85998 0.0
H1729 H 0.39318 0.49204 0.8105 0.0
H1730 H 0.4177 0.48544 0.82486 0.0
C1731 C 0.49126 0.45783 0.87139 0.0
C1732 C 0.47287 0.47415 0.83368 0.0
H1733 H 0.44567 0.50372 0.82913 0.0
C1734 C 0.46871 0.4648 0.82012 0.0
C1735 C 0.4648 0.48855 0.83675 0.0
C1736 C 0.46923 0.4992 0.85094 0.0
C1737 C 0.45601 0.4691 0.80993 0.0
C1738 C 0.44753 0.48324 0.81334 0.0
C1739 C 0.45218 0.49288 0.82656 0.0
C1740 C 0.4329 0.48752 0.80427 0.0
C1741 C 0.45123 0.4581 0.79611 0.0
C1742 C 0.43335 0.49109 0.78793 0.0
C1743 C 0.41927 0.49485 0.7796 0.0
C1744 C 0.40456 0.49518 0.78753 0.0
C1745 C 0.40428 0.49188 0.80398 0.0
C1746 C 0.41829 0.48811 0.81224 0.0
H1747 H 0.45704 0.44627 0.79692 0.0
H1748 H 0.43805 0.45617 0.79563 0.0
H1749 H 0.45486 0.46365 0.78473 0.0
H1750 H 0.44457 0.49098 0.78163 0.0
H1751 H 0.41991 0.4974 0.76696 0.0
H1752 H 0.73301 0.69323 0.16679 0.0
H1753 H 0.73626 0.67512 0.14375 0.0
H1754 H 0.74424 0.71562 0.11342 0.0
H1755 H 0.74079 0.73379 0.13624 0.0
H1756 H 0.71873 0.6741 0.11394 0.0
H1757 H 0.78339 0.68714 0.10578 0.0
H1758 H 0.77314 0.69217 0.12398 0.0
H1759 H 0.7712 0.7046 0.10673 0.0
C1760 C 0.73535 0.69829 0.15519 0.0
C1761 C 0.73677 0.71496 0.15338 0.0
C1762 C 0.73727 0.68792 0.14208 0.0
C1763 C 0.74075 0.69405 0.12698 0.0
C1764 C 0.74191 0.71066 0.12507 0.0
H1765 H 0.75595 0.65975 0.03126 0.0
H1766 H 0.75246 0.67497 0.05611 0.0
C1767 C 0.73997 0.72102 0.13813 0.0
C1768 C 0.74297 0.68315 0.11309 0.0
H1769 H 0.76991 0.6726 0.08473 0.0
C1770 C 0.72995 0.67362 0.10762 0.0
C1771 C 0.75763 0.68258 0.10493 0.0
C1772 C 0.7722 0.69205 0.11071 0.0
C1773 C 0.73104 0.66396 0.09378 0.0
C1774 C 0.74562 0.66364 0.08543 0.0
C1775 C 0.75873 0.67292 0.09113 0.0
C1776 C 0.74743 0.65421 0.07043 0.0
C1777 C 0.71643 0.65462 0.0879 0.0
C1778 C 0.74587 0.63746 0.07029 0.0
C1779 C 0.74782 0.6287 0.05607 0.0
C1780 C 0.75148 0.63655 0.04179 0.0
C1781 C 0.75313 0.65332 0.04204 0.0
C1782 C 0.75115 0.66205 0.05623 0.0
H1783 H 0.70532 0.65899 0.09349 0.0
H1784 H 0.71507 0.65536 0.0747 0.0
H1785 H 0.71776 0.64184 0.09098 0.0
H1786 H 0.7433 0.63116 0.0812 0.0
H1787 H 0.74656 0.61579 0.05631 0.0
H1788 H 0.99627 0.02011 0.11893 0.0
H1789 H 0.97723 0.01686 0.14063 0.0
H1790 H 0.93844 0.02856 0.1085 0.0
H1791 H 0.95731 0.03135 0.08661 0.0
H1792 H 0.95636 0.03943 0.15332 0.0
H1793 H 0.92287 0.98662 0.1281 0.0
H1794 H 0.94205 0.99304 0.12064 0.0
H1795 H 0.92418 0.00329 0.11486 0.0
C1796 C 0.98366 0.02179 0.11642 0.0
C1797 C 0.97831 0.02591 0.10099 0.0
C1798 C 0.97281 0.02003 0.12886 0.0
C1799 C 0.9564 0.02224 0.12613 0.0
C1800 C 0.95102 0.02651 0.11081 0.0
H1801 H 0.87257 0.01799 0.1863 0.0
H1802 H 0.89131 0.02139 0.16436 0.0
C1803 C 0.96186 0.02828 0.09836 0.0
C1804 C 0.94496 0.02042 0.1394 0.0
H1805 H 0.91222 0.99895 0.15126 0.0
C1806 C 0.94674 0.03054 0.15291 0.0
C1807 C 0.93241 0.00884 0.13881 0.0
C1808 C 0.93029 0.99722 0.1249 0.0
C1809 C 0.93616 0.02955 0.16575 0.0
C1810 C 0.92363 0.01794 0.16518 0.0
C1811 C 0.92182 0.00785 0.15166 0.0
C1812 C 0.91234 0.01597 0.17856 0.0
C1813 C 0.93829 0.04115 0.17968 0.0
C1814 C 0.91792 0.0116 0.19377 0.0
C1815 C 0.90726 0.00966 0.20634 0.0
C1816 C 0.89076 0.01196 0.20392 0.0
C1817 C 0.88519 0.01617 0.1886 0.0
C1818 C 0.89588 0.01811 0.17604 0.0
H1819 H 0.94562 0.0518 0.17645 0.0
H1820 H 0.92654 0.04524 0.18404 0.0
H1821 H 0.94452 0.0351 0.18966 0.0
H1822 H 0.93054 0.00957 0.1959 0.0
H1823 H 0.91196 0.00632 0.21794 0.0
H1824 H 0.23338 0.78022 0.17117 0.0
H1825 H 0.22931 0.79865 0.149 0.0
H1826 H 0.27883 0.79411 0.13626 0.0
H1827 H 0.28298 0.77573 0.15829 0.0
H1828 H 0.26817 0.8258 0.13627 0.0
H1829 H 0.22671 0.78482 0.10168 0.0
H1830 H 0.22117 0.7896 0.12187 0.0
H1831 H 0.23873 0.77808 0.11831 0.0
C1832 C 0.24338 0.78312 0.1636 0.0
C1833 C 0.2585 0.77647 0.16647 0.0
C1834 C 0.24103 0.79364 0.15095 0.0
C1835 C 0.25373 0.79758 0.14088 0.0
C1836 C 0.26888 0.79123 0.14391 0.0
H1837 H 0.28068 0.83754 0.05433 0.0
H1838 H 0.27748 0.82709 0.08112 0.0
C1839 C 0.27125 0.78078 0.15655 0.0
C1840 C 0.25136 0.80805 0.12692 0.0
H1841 H 0.23394 0.80905 0.0897 0.0
C1842 C 0.26052 0.82225 0.12618 0.0
C1843 C 0.24129 0.80344 0.1138 0.0
C1844 C 0.23147 0.78812 0.1138 0.0
C1845 C 0.26036 0.83163 0.11241 0.0
C1846 C 0.25095 0.82658 0.099 0.0
C1847 C 0.24111 0.81288 0.10004 0.0
C1848 C 0.25279 0.83406 0.0832 0.0
C1849 C 0.27061 0.84665 0.11215 0.0
C1850 C 0.23988 0.84132 0.07539 0.0
C1851 C 0.24167 0.84739 0.05996 0.0
C1852 C 0.25633 0.846 0.05206 0.0
C1853 C 0.26922 0.8388 0.06003 0.0
C1854 C 0.26746 0.83291 0.07542 0.0
H1855 H 0.27314 0.85142 0.12444 0.0
H1856 H 0.28222 0.84388 0.10657 0.0
H1857 H 0.26477 0.85608 0.10502 0.0
H1858 H 0.22841 0.84217 0.08117 0.0
H1859 H 0.23152 0.85282 0.0541 0.0
H1860 H 0.99883 0.47078 0.12959 0.0
H1861 H 0.02026 0.47667 0.14907 0.0
H1862 H 0.05515 0.47311 0.11176 0.0
H1863 H 0.03368 0.46701 0.09217 0.0
H1864 H 0.06332 0.45561 0.13679 0.0
H1865 H 0.04758 0.51581 0.15877 0.0
H1866 H 0.03073 0.50233 0.15991 0.0
H1867 H 0.03887 0.50706 0.14067 0.0
C1868 C 0.01103 0.4716 0.12547 0.0
C1869 C 0.01458 0.46846 0.10937 0.0
C1870 C 0.02328 0.47504 0.13661 0.0
C1871 C 0.03929 0.47564 0.13182 0.0
C1872 C 0.04286 0.47282 0.11568 0.0
H1873 H 0.10819 0.49845 0.20998 0.0
H1874 H 0.09533 0.49944 0.18346 0.0
C1875 C 0.03061 0.46926 0.10454 0.0
C1876 C 0.05228 0.47765 0.144 0.0
H1877 H 0.06347 0.49992 0.177 0.0
C1878 C 0.06356 0.46548 0.14538 0.0
C1879 C 0.05285 0.49069 0.15501 0.0
C1880 C 0.04196 0.50479 0.1534 0.0
C1881 C 0.07462 0.4654 0.15817 0.0
C1882 C 0.07412 0.47762 0.17004 0.0
C1883 C 0.06366 0.49041 0.16802 0.0
C1884 C 0.08313 0.47652 0.18538 0.0
C1885 C 0.08649 0.45203 0.159 0.0
C1886 C 0.0805 0.46333 0.19522 0.0
C1887 C 0.08783 0.4627 0.21029 0.0
C1888 C 0.0978 0.47535 0.21594 0.0
C1889 C 0.10061 0.48849 0.20597 0.0
C1890 C 0.09327 0.48908 0.19083 0.0
H1891 H 0.08924 0.44735 0.14685 0.0
H1892 H 0.09783 0.45603 0.16504 0.0
H1893 H 0.08125 0.44201 0.16584 0.0
H1894 H 0.07238 0.45371 0.19144 0.0
H1895 H 0.08533 0.45245 0.21766 0.0
H1896 H 0.35155 0.69234 0.26548 0.0
H1897 H 0.37665 0.69263 0.28107 0.0
H1898 H 0.3699 0.74231 0.29349 0.0
H1899 H 0.34467 0.74203 0.27827 0.0
H1900 H 0.40371 0.71204 0.27632 0.0
H1901 H 0.37948 0.72189 0.33691 0.0
H1902 H 0.36713 0.71517 0.32008 0.0
H1903 H 0.37236 0.73604 0.32264 0.0
C1904 C 0.35531 0.70326 0.27172 0.0
C1905 C 0.3461 0.71716 0.27068 0.0
C1906 C 0.36967 0.70342 0.28055 0.0
C1907 C 0.37499 0.71741 0.28863 0.0
C1908 C 0.36585 0.73129 0.2876 0.0
H1909 H 0.46425 0.75693 0.31708 0.0
H1910 H 0.43998 0.74675 0.30371 0.0
C1911 C 0.35154 0.73117 0.27873 0.0
C1912 C 0.39049 0.71784 0.29749 0.0
H1913 H 0.40751 0.72765 0.33382 0.0
C1914 C 0.40454 0.71521 0.28895 0.0
C1915 C 0.39154 0.72168 0.31403 0.0
C1916 C 0.37681 0.7237 0.324 0.0
C1917 C 0.41967 0.71727 0.29631 0.0
C1918 C 0.42072 0.72227 0.31254 0.0
C1919 C 0.40667 0.72395 0.32133 0.0
C1920 C 0.43613 0.72738 0.32015 0.0
C1921 C 0.4344 0.71444 0.28654 0.0
C1922 C 0.44197 0.71995 0.33396 0.0
C1923 C 0.45594 0.72577 0.34171 0.0
C1924 C 0.4641 0.73928 0.33588 0.0
C1925 C 0.45828 0.74651 0.32192 0.0
C1926 C 0.44445 0.74064 0.31416 0.0
H1927 H 0.4318 0.70608 0.27632 0.0
H1928 H 0.43864 0.72597 0.2816 0.0
H1929 H 0.44421 0.7095 0.294 0.0
H1930 H 0.43562 0.70977 0.33883 0.0
H1931 H 0.46008 0.71998 0.35247 0.0
H1932 H 0.96009 0.38901 0.98401 0.0
H1933 H 0.96841 0.36832 0.96502 0.0
H1934 H 0.97849 0.33674 0.00404 0.0
H1935 H 0.97003 0.35737 0.02321 0.0
H1936 H 0.00173 0.35277 0.96816 0.0
H1937 H 0.94886 0.31115 0.96874 0.0
H1938 H 0.94708 0.33223 0.97343 0.0
H1939 H 0.9568 0.31939 0.98737 0.0
C1940 C 0.96379 0.37756 0.98855 0.0
C1941 C 0.96437 0.3748 0.0051 0.0
C1942 C 0.96863 0.36582 0.9777 0.0
C1943 C 0.97399 0.35105 0.98318 0.0
C1944 C 0.97429 0.34806 -0.00037 0.0
H1945 H 0.00141 0.2707 0.92084 0.0
H1946 H 0.99595 0.28659 0.94502 0.0
C1947 C 0.96954 0.35986 0.01053 0.0
C1948 C 0.98 0.33917 0.9716 0.0
H1949 H 0.96934 0.30511 0.95074 0.0
C1950 C 0.99475 0.34225 0.96443 0.0
C1951 C 0.97092 0.32541 0.96699 0.0
C1952 C 0.95499 0.32174 0.97444 0.0
C1953 C 0.0005 0.33212 0.95238 0.0
C1954 C 0.99101 0.31881 0.94711 0.0
C1955 C 0.97656 0.31536 0.95477 0.0
C1956 C 0.99521 0.30919 0.93279 0.0
C1957 C 0.0166 0.33585 0.94531 0.0
C1958 C 0.99651 0.31663 0.91794 0.0
C1959 C -0.00035 0.30765 0.90418 0.0
C1960 C 0.0014 0.29097 0.90493 0.0
C1961 C 0.00019 0.28352 0.91986 0.0
C1962 C 0.99705 0.29257 0.93367 0.0
H1963 H 0.02441 0.34277 0.95391 0.0
H1964 H 0.02282 0.32476 0.94172 0.0
H1965 H 0.01491 0.34326 0.93453 0.0
H1966 H 0.99476 0.32939 0.91692 0.0
H1967 H 0.0004 0.31379 0.8929 0.0
H1968 H 0.66887 0.73322 0.28043 0.0
H1969 H 0.64487 0.72963 0.29666 0.0
H1970 H 0.63168 0.77832 0.28759 0.0
H1971 H 0.65538 0.78195 0.27123 0.0
H1972 H 0.63389 0.74961 0.32475 0.0
H1973 H 0.59285 0.74881 0.2718 0.0
H1974 H 0.61398 0.7449 0.27034 0.0
H1975 H 0.60721 0.76509 0.27252 0.0
C1976 C 0.66084 0.74315 0.2819 0.0
C1977 C 0.66399 0.75786 0.27451 0.0
C1978 C 0.64722 0.7411 0.29124 0.0
C1979 C 0.63649 0.75367 0.29317 0.0
C1980 C 0.63979 0.76845 0.28613 0.0
H1981 H 0.54844 0.77938 0.33265 0.0
H1982 H 0.5743 0.77635 0.32014 0.0
C1983 C 0.6534 0.77054 0.27689 0.0
C1984 C 0.62151 0.75137 0.30209 0.0
H1985 H 0.58095 0.75211 0.29727 0.0
C1986 C 0.62228 0.74991 0.31879 0.0
C1987 C 0.60645 0.75167 0.29419 0.0
C1988 C 0.60499 0.75256 0.27621 0.0
C1989 C 0.60829 0.74965 0.32791 0.0
C1990 C 0.59324 0.75067 0.32003 0.0
C1991 C 0.59251 0.7514 0.30327 0.0
C1992 C 0.57815 0.75249 0.32886 0.0
C1993 C 0.60968 0.7491 0.3459 0.0
C1994 C 0.57179 0.74009 0.3381 0.0
C1995 C 0.55689 0.74178 0.34537 0.0
C1996 C 0.54813 0.75586 0.34338 0.0
C1997 C 0.55478 0.76833 0.33438 0.0
C1998 C 0.56959 0.76664 0.32721 0.0
H1999 H 0.62224 0.75078 0.35024 0.0
H2000 H 0.60223 0.75848 0.35147 0.0
H2001 H 0.60519 0.73731 0.35001 0.0
H2002 H 0.57813 0.72898 0.33934 0.0
H2003 H 0.55207 0.73195 0.35219 0.0
H2004 H 0.05005 0.10537 0.98167 0.0
H2005 H 0.04694 0.12733 0.96293 0.0
H2006 H 0.99627 0.11706 0.95921 0.0
H2007 H -0.00074 0.09507 0.97793 0.0
H2008 H 0.03558 0.12695 0.93166 0.0
H2009 H 0.99772 0.16479 0.97027 0.0
H2010 H 0.00855 0.14794 0.97782 0.0
H2011 H 0.98994 0.14483 0.96703 0.0
C2012 C 0.03825 0.10772 0.9768 0.0
C2013 C 0.02489 0.09851 0.98137 0.0
C2014 C 0.03649 0.12032 0.96614 0.0
C2015 C 0.02134 0.124 0.95987 0.0
C2016 C 0.00801 0.11468 0.9642 0.0
H2017 H 0.0015 0.18285 0.877 0.0
H2018 H 0.00496 0.16078 0.89555 0.0
C2019 C 0.00975 0.10211 0.97489 0.0
C2020 C 0.01954 0.13744 0.94861 0.0
H2021 H 0.00064 0.17292 0.94335 0.0
C2022 C 0.02798 0.13703 0.93422 0.0
C2023 C 0.00978 0.15067 0.95207 0.0
C2024 C 0.00109 0.15222 0.9677 0.0
C2025 C 0.02674 0.14938 0.9231 0.0
C2026 C 0.01656 0.16236 0.92633 0.0
C2027 C 0.00831 0.16288 0.94082 0.0
C2028 C 0.01452 0.17569 0.91498 0.0
C2029 C 0.03656 0.14857 0.90813 0.0
C2030 C 0.01838 0.19145 0.91985 0.0
C2031 C 0.01629 0.20411 0.90933 0.0
C2032 C 0.01024 0.20126 0.89371 0.0
C2033 C 0.00629 0.18545 0.88889 0.0
C2034 C 0.00835 0.1728 0.89946 0.0
H2035 H 0.04675 0.1403 0.90945 0.0
H2036 H 0.02888 0.14408 0.89801 0.0
H2037 H 0.04134 0.16058 0.90502 0.0
H2038 H 0.02309 0.19396 0.9318 0.0
H2039 H 0.01943 0.21612 0.91345 0.0
H2040 H 0.39919 0.33156 0.27165 0.0
H2041 H 0.41741 0.32668 0.24948 0.0
H2042 H 0.39351 0.2814 0.23931 0.0
H2043 H 0.37544 0.28611 0.26152 0.0
H2044 H 0.42614 0.27939 0.2376 0.0
H2045 H 0.40404 0.33087 0.2028 0.0
H2046 H 0.41176 0.336 0.22243 0.0
H2047 H 0.39401 0.32365 0.22028 0.0
C2048 C 0.39786 0.32057 0.26469 0.0
C2049 C 0.38585 0.30925 0.26825 0.0
C2050 C 0.40824 0.31781 0.25203 0.0
C2051 C 0.40662 0.30381 0.24259 0.0
C2052 C 0.39495 0.29229 0.24644 0.0
H2053 H 0.43272 0.2835 0.14626 0.0
H2054 H 0.42021 0.29028 0.17157 0.0
C2055 C 0.38467 0.29498 0.25915 0.0
C2056 C 0.41668 0.30125 0.22839 0.0
H2057 H 0.42495 0.31609 0.19157 0.0
C2058 C 0.42598 0.28745 0.22756 0.0
C2059 C 0.41628 0.31172 0.21525 0.0
C2060 C 0.40589 0.32632 0.2151 0.0
C2061 C 0.43469 0.28367 0.21383 0.0
C2062 C 0.43434 0.29419 0.20074 0.0
C2063 C 0.42528 0.30813 0.20169 0.0
C2064 C 0.44229 0.29037 0.18547 0.0
C2065 C 0.44363 0.26814 0.21322 0.0
C2066 C 0.45891 0.28838 0.18485 0.0
C2067 C 0.46612 0.28437 0.17037 0.0
C2068 C 0.45683 0.28247 0.15625 0.0
C2069 C 0.44023 0.28485 0.1569 0.0
C2070 C 0.43306 0.28875 0.17136 0.0
H2071 H 0.43969 0.2598 0.22265 0.0
H2072 H 0.44196 0.26208 0.20137 0.0
H2073 H 0.4566 0.27068 0.21512 0.0
H2074 H 0.46629 0.28991 0.19555 0.0
H2075 H 0.47894 0.28273 0.17025 0.0
H2076 H 0.5206 0.3842 0.9845 0.0
H2077 H 0.51418 0.36432 0.0046 0.0
H2078 H 0.5638 0.36338 0.01945 0.0
H2079 H 0.57042 0.38319 0.99918 0.0
H2080 H 0.52696 0.33298 0.0086 0.0
H2081 H 0.53938 0.37337 0.0612 0.0
H2082 H 0.53671 0.38084 0.0412 0.0
H2083 H 0.55506 0.37146 0.04685 0.0
C2084 C 0.53021 0.37962 0.99187 0.0
C2085 C 0.54603 0.3853 0.99025 0.0
C2086 C 0.5265 0.36833 0.00341 0.0
C2087 C 0.53848 0.36256 0.01361 0.0
C2088 C 0.55434 0.36792 0.01186 0.0
H2089 H 0.52357 0.29771 0.09411 0.0
H2090 H 0.53665 0.31477 0.07441 0.0
C2091 C 0.55808 0.37923 0.00029 0.0
C2092 C 0.53418 0.35099 0.0261 0.0
H2093 H 0.53007 0.34727 0.06646 0.0
C2094 C 0.52776 0.33604 0.02126 0.0
C2095 C 0.53536 0.35501 0.04259 0.0
C2096 C 0.54189 0.37107 0.04836 0.0
C2097 C 0.52211 0.32511 0.03248 0.0
C2098 C 0.52264 0.3294 0.04892 0.0
C2099 C 0.52966 0.34408 0.05382 0.0
C2100 C 0.51488 0.31931 0.06103 0.0
C2101 C 0.51546 0.30912 0.02664 0.0
C2102 C 0.49829 0.31658 0.0602 0.0
C2103 C 0.4908 0.30694 0.0714 0.0
C2104 C 0.49974 0.29987 0.08372 0.0
C2105 C 0.51635 0.30294 0.08475 0.0
C2106 C 0.52384 0.31265 0.07351 0.0
H2107 H 0.5201 0.30585 0.01466 0.0
H2108 H 0.51845 0.29951 0.03514 0.0
H2109 H 0.50223 0.30976 0.0256 0.0
H2110 H 0.49112 0.32191 0.05085 0.0
H2111 H 0.47799 0.30493 0.07028 0.0
H2112 H 0.65155 0.25994 0.21976 0.0
H2113 H 0.62841 0.26328 0.20192 0.0
H2114 H 0.62512 0.21219 0.19423 0.0
H2115 H 0.64796 0.20867 0.21246 0.0
H2116 H 0.62385 0.25401 0.16962 0.0
H2117 H 0.58011 0.22404 0.20912 0.0
H2118 H 0.5998 0.23041 0.21605 0.0
H2119 H 0.59726 0.21238 0.20423 0.0
C2120 C 0.64583 0.24939 0.21438 0.0
C2121 C 0.65151 0.23402 0.21764 0.0
C2122 C 0.63269 0.25134 0.2041 0.0
C2123 C 0.62494 0.23797 0.19694 0.0
C2124 C 0.63079 0.22264 0.19984 0.0
H2125 H 0.55348 0.24072 0.11962 0.0
H2126 H 0.57772 0.23619 0.13564 0.0
C2127 C 0.64394 0.22067 0.21013 0.0
C2128 C 0.61064 0.24014 0.18658 0.0
H2129 H 0.57056 0.2318 0.18367 0.0
C2130 C 0.61219 0.24914 0.17264 0.0
C2131 C 0.59544 0.23391 0.1907 0.0
C2132 C 0.59294 0.22476 0.2059 0.0
C2133 C 0.59893 0.25204 0.16265 0.0
C2134 C 0.58378 0.24559 0.16664 0.0
C2135 C 0.58223 0.23663 0.1806 0.0
C2136 C 0.56925 0.24844 0.15679 0.0
C2137 C 0.60115 0.26232 0.14815 0.0
C2138 C 0.55636 0.25657 0.16348 0.0
C2139 C 0.54248 0.2591 0.15442 0.0
C2140 C 0.5412 0.25347 0.13849 0.0
C2141 C 0.55412 0.24529 0.13182 0.0
C2142 C 0.56801 0.24275 0.14092 0.0
H2143 H 0.61254 0.26936 0.14885 0.0
H2144 H 0.6014 0.25453 0.13728 0.0
H2145 H 0.59108 0.27071 0.14675 0.0
H2146 H 0.55707 0.261 0.17574 0.0
H2147 H 0.53275 0.26543 0.15993 0.0
H2148 H 0.46987 0.09136 0.04639 0.0
H2149 H 0.47442 0.11272 0.06652 0.0
H2150 H 0.4773 0.14744 0.02899 0.0
H2151 H 0.47297 0.12623 0.00891 0.0
H2152 H 0.50053 0.15226 0.05234 0.0
H2153 H 0.4403 0.14459 0.07896 0.0
H2154 H 0.45272 0.12726 0.07895 0.0
H2155 H 0.44555 0.13505 0.06031 0.0
C2156 C 0.47149 0.10356 0.04248 0.0
C2157 C 0.47102 0.10715 0.02609 0.0
C2158 C 0.47407 0.11573 0.05397 0.0
C2159 C 0.47598 0.13167 0.04924 0.0
C2160 C 0.47589 0.1352 0.03289 0.0
H2161 H 0.45544 0.22245 0.08569 0.0
H2162 H 0.45657 0.19532 0.07479 0.0
C2163 C 0.47345 0.12307 0.02143 0.0
C2164 C 0.47753 0.14495 0.06113 0.0
H2165 H 0.45642 0.16587 0.08884 0.0
C2166 C 0.49101 0.15515 0.06051 0.0
C2167 C 0.46502 0.14866 0.0717 0.0
C2168 C 0.45001 0.13842 0.07251 0.0
C2169 C 0.49198 0.16942 0.06957 0.0
C2170 C 0.47926 0.17337 0.07979 0.0
C2171 C 0.46616 0.16275 0.08103 0.0
C2172 C 0.4783 0.18933 0.08762 0.0
C2173 C 0.50612 0.18061 0.06735 0.0
C2174 C 0.48999 0.19486 0.09872 0.0
C2175 C 0.48947 0.2105 0.1049 0.0
C2176 C 0.47714 0.22077 0.10018 0.0
C2177 C 0.46513 0.21491 0.08955 0.0
C2178 C 0.46573 0.19937 0.08333 0.0
H2179 H 0.51335 0.17712 0.05685 0.0
H2180 H 0.5021 0.19308 0.06576 0.0
H2181 H 0.514 0.18038 0.07816 0.0
H2182 H 0.49962 0.18718 0.10241 0.0
H2183 H 0.49883 0.21462 0.11316 0.0
H2184 H 0.25056 0.36283 0.72245 0.0
H2185 H 0.26686 0.38737 0.72444 0.0
H2186 H 0.30846 0.3611 0.71047 0.0
H2187 H 0.29234 0.33638 0.70891 0.0
H2188 H 0.31369 0.37974 0.73743 0.0
H2189 H 0.28566 0.4155 0.68969 0.0
H2190 H 0.2714 0.40763 0.70346 0.0
H2191 H 0.28253 0.39413 0.69109 0.0
C2192 C 0.26317 0.36227 0.71979 0.0
C2193 C 0.27015 0.34764 0.71555 0.0
C2194 C 0.27243 0.37635 0.72071 0.0
C2195 C 0.28881 0.37611 0.71732 0.0
C2196 C 0.2958 0.36157 0.71296 0.0
H2197 H 0.34986 0.46345 0.72019 0.0
H2198 H 0.33681 0.43842 0.71061 0.0
C2199 C 0.28655 0.34748 0.71202 0.0
C2200 C 0.29885 0.39079 0.71958 0.0
H2201 H 0.30196 0.43006 0.70915 0.0
C2202 C 0.31127 0.39067 0.73107 0.0
C2203 C 0.29582 0.40499 0.71114 0.0
C2204 C 0.28323 0.40557 0.69804 0.0
C2205 C 0.32021 0.40459 0.73493 0.0
C2206 C 0.31651 0.41901 0.72721 0.0
C2207 C 0.30465 0.41899 0.71514 0.0
C2208 C 0.32398 0.43441 0.73249 0.0
C2209 C 0.33335 0.40384 0.74748 0.0
C2210 C 0.32078 0.44053 0.74778 0.0
C2211 C 0.3281 0.45474 0.75324 0.0
C2212 C 0.3388 0.46318 0.74351 0.0
C2213 C 0.34172 0.45721 0.728 0.0
C2214 C 0.33429 0.44295 0.7225 0.0
H2215 H 0.33745 0.3914 0.74917 0.0
H2216 H 0.34377 0.41148 0.74422 0.0
H2217 H 0.32878 0.40833 0.75908 0.0
H2218 H 0.31267 0.43422 0.75556 0.0
H2219 H 0.32548 0.45899 0.76521 0.0
H2220 H 0.29072 0.67049 0.77523 0.0
H2221 H 0.30713 0.64689 0.77151 0.0
H2222 H 0.27271 0.62757 0.73702 0.0
H2223 H 0.25577 0.65063 0.74137 0.0
H2224 H 0.28005 0.60605 0.75832 0.0
H2225 H 0.33643 0.63286 0.73659 0.0
H2226 H 0.3305 0.64186 0.75514 0.0
H2227 H 0.31808 0.64388 0.7375 0.0
C2228 C 0.28661 0.66123 0.76686 0.0
C2229 C 0.27185 0.6625 0.75865 0.0
C2230 C 0.29617 0.64785 0.76453 0.0
C2231 C 0.29131 0.63557 0.75376 0.0
C2232 C 0.27678 0.63696 0.74529 0.0
H2233 H 0.34946 0.55099 0.7331 0.0
H2234 H 0.3353 0.57634 0.73026 0.0
C2235 C 0.26715 0.65025 0.74771 0.0
C2236 C 0.30059 0.62062 0.75245 0.0
H2237 H 0.33808 0.60609 0.74673 0.0
C2238 C 0.29269 0.60607 0.75558 0.0
C2239 C 0.31704 0.62057 0.74865 0.0
C2240 C 0.32596 0.63562 0.74411 0.0
C2241 C 0.30089 0.59159 0.75562 0.0
C2242 C 0.31754 0.59169 0.75286 0.0
C2243 C 0.32535 0.6061 0.74907 0.0
C2244 C 0.32706 0.57701 0.75467 0.0
C2245 C 0.29161 0.57632 0.75868 0.0
C2246 C 0.32751 0.56931 0.76943 0.0
C2247 C 0.33544 0.55488 0.77106 0.0
C2248 C 0.34329 0.54791 0.75799 0.0
C2249 C 0.34347 0.55602 0.74337 0.0
C2250 C 0.3354 0.57048 0.74172 0.0
H2251 H 0.2787 0.57755 0.75567 0.0
H2252 H 0.29635 0.56614 0.75162 0.0
H2253 H 0.29264 0.57345 0.77157 0.0
H2254 H 0.32149 0.57435 0.77968 0.0
H2255 H 0.33524 0.5491 0.78257 0.0
H2256 H 0.87915 0.50453 0.49146 0.0
H2257 H 0.85851 0.48463 0.49738 0.0
H2258 H 0.85325 0.47298 0.44709 0.0
H2259 H 0.87326 0.49354 0.44092 0.0
H2260 H 0.82439 0.47358 0.4621 0.0
H2261 H 0.86766 0.43728 0.49632 0.0
H2262 H 0.86599 0.45737 0.50392 0.0
H2263 H 0.87384 0.45391 0.48427 0.0
C2264 C 0.8734 0.498 0.48159 0.0
C2265 C 0.878 0.50058 0.4657 0.0
C2266 C 0.86173 0.48646 0.48504 0.0
C2267 C 0.85462 0.47707 0.47272 0.0
C2268 C 0.85871 0.48 0.4568 0.0
H2269 H 0.81097 0.38399 0.48201 0.0
H2270 H 0.82756 0.40734 0.47613 0.0
C2271 C 0.87027 0.49165 0.45331 0.0
C2272 C 0.84337 0.46381 0.47644 0.0
H2273 H 0.84054 0.4288 0.49672 0.0
C2274 C 0.82788 0.46377 0.46966 0.0
C2275 C 0.84806 0.45093 0.48614 0.0
C2276 C 0.86484 0.44974 0.49296 0.0
C2277 C 0.81694 0.45119 0.47235 0.0
C2278 C 0.82153 0.43851 0.48236 0.0
C2279 C 0.837 0.4386 0.48915 0.0
C2280 C 0.81086 0.42456 0.48537 0.0
C2281 C 0.80077 0.45135 0.46405 0.0
C2282 C 0.79591 0.42645 0.49252 0.0
C2283 C 0.78627 0.41307 0.49578 0.0
C2284 C 0.79156 0.39756 0.49216 0.0
C2285 C 0.80655 0.39575 0.48502 0.0
C2286 C 0.81607 0.4091 0.48164 0.0
H2287 H 0.80071 0.45953 0.4537 0.0
H2288 H 0.79711 0.43917 0.45975 0.0
H2289 H 0.79172 0.4556 0.47263 0.0
H2290 H 0.79181 0.43825 0.49584 0.0
H2291 H 0.77483 0.41485 0.50137 0.0
H2292 H 0.76083 0.87727 0.77017 0.0
H2293 H 0.7403 0.89611 0.76214 0.0
H2294 H 0.72564 0.90078 0.81122 0.0
H2295 H 0.7467 0.88271 0.81949 0.0
H2296 H 0.70886 0.89287 0.76428 0.0
H2297 H 0.72823 0.94691 0.79885 0.0
H2298 H 0.74094 0.92985 0.79633 0.0
H2299 H 0.72593 0.92999 0.81156 0.0
C2300 C 0.75351 0.8826 0.77933 0.0
C2301 C 0.75549 0.8785 0.7955 0.0
C2302 C 0.74169 0.89328 0.77469 0.0
C2303 C 0.73161 0.90007 0.78611 0.0
C2304 C 0.73353 0.89601 0.80224 0.0
H2305 H 0.636 0.93274 0.77364 0.0
H2306 H 0.66064 0.91805 0.77763 0.0
C2307 C 0.74543 0.88545 0.80692 0.0
C2308 C 0.71839 0.91057 0.78106 0.0
H2309 H 0.70085 0.94624 0.7894 0.0
C2310 C 0.70723 0.90463 0.76962 0.0
C2311 C 0.71642 0.92604 0.78778 0.0
C2312 C 0.72863 0.93364 0.79917 0.0
C2313 C 0.69377 0.91344 0.76525 0.0
C2314 C 0.69118 0.92839 0.77287 0.0
C2315 C 0.70271 0.93466 0.78375 0.0
C2316 C 0.67627 0.93739 0.77023 0.0
C2317 C 0.68248 0.90662 0.7525 0.0
C2318 C 0.67688 0.95335 0.76526 0.0
C2319 C 0.66278 0.9619 0.7632 0.0
C2320 C 0.64783 0.95461 0.76608 0.0
C2321 C 0.6473 0.93866 0.77115 0.0
C2322 C 0.66138 0.93019 0.77333 0.0
H2323 H 0.6887 0.89826 0.74432 0.0
H2324 H 0.67273 0.89977 0.75829 0.0
H2325 H 0.67705 0.91622 0.74529 0.0
H2326 H 0.68827 0.95916 0.76293 0.0
H2327 H 0.6636 0.97418 0.7593 0.0
H2328 H 0.62069 0.51732 0.93603 0.0
H2329 H 0.63967 0.53875 0.94356 0.0
H2330 H 0.62221 0.53862 0.99184 0.0
H2331 H 0.60307 0.51709 0.98437 0.0
H2332 H 0.63462 0.56963 0.95673 0.0
H2333 H 0.67052 0.53158 0.99749 0.0
H2334 H 0.65591 0.52318 0.98347 0.0
H2335 H 0.64952 0.53301 0.00145 0.0
C2336 C 0.62073 0.52197 0.94821 0.0
C2337 C 0.61042 0.51548 0.95962 0.0
C2338 C 0.63161 0.53419 0.9525 0.0
C2339 C 0.63243 0.54014 0.96828 0.0
C2340 C 0.62192 0.53399 0.97965 0.0
H2341 H 0.71235 0.60287 0.00146 0.0
H2342 H 0.68575 0.58995 0.00156 0.0
C2343 C 0.61104 0.52169 0.97538 0.0
C2344 C 0.64475 0.5524 0.9727 0.0
H2345 H 0.68043 0.55742 0.99273 0.0
C2346 C 0.64452 0.56708 0.96479 0.0
C2347 C 0.65757 0.54906 0.98332 0.0
C2348 C 0.65855 0.53334 0.99188 0.0
C2349 C 0.65717 0.57822 0.96665 0.0
C2350 C 0.67043 0.57445 0.97649 0.0
C2351 C 0.6702 0.56024 0.98518 0.0
C2352 C 0.68551 0.58394 0.97628 0.0
C2353 C 0.65647 0.59372 0.9577 0.0
C2354 C 0.69409 0.58482 0.96204 0.0
C2355 C 0.70925 0.59203 0.96196 0.0
C2356 C 0.71614 0.59849 0.97614 0.0
C2357 C 0.70732 0.59804 0.99033 0.0
C2358 C 0.69216 0.59068 0.99042 0.0
H2359 H 0.64391 0.59708 0.95506 0.0
H2360 H 0.66251 0.60363 0.96459 0.0
H2361 H 0.66263 0.59227 0.94612 0.0
H2362 H 0.68931 0.57939 0.95108 0.0
H2363 H 0.7157 0.5922 0.95083 0.0
H2364 H 0.1962 0.66419 0.23059 0.0
H2365 H 0.17801 0.6412 0.23391 0.0
H2366 H 0.21844 0.61023 0.23882 0.0
H2367 H 0.23668 0.63301 0.23531 0.0
H2368 H 0.17579 0.61161 0.21565 0.0
H2369 H 0.19193 0.60229 0.27949 0.0
H2370 H 0.19656 0.62065 0.2693 0.0
H2371 H 0.2087 0.60335 0.26635 0.0
C2372 C 0.20121 0.65246 0.23223 0.0
C2373 C 0.2179 0.65046 0.23283 0.0
C2374 C 0.19081 0.63937 0.23419 0.0
C2375 C 0.19691 0.62411 0.23687 0.0
C2376 C 0.21352 0.62199 0.23711 0.0
H2377 H 0.16134 0.52888 0.25319 0.0
H2378 H 0.17699 0.55334 0.24897 0.0
C2379 C 0.22391 0.63503 0.23513 0.0
C2380 C 0.18598 0.6103 0.2394 0.0
H2381 H 0.17623 0.58181 0.26652 0.0
C2382 C 0.17575 0.60515 0.2268 0.0
C2383 C 0.18599 0.60196 0.25397 0.0
C2384 C 0.19627 0.60739 0.26812 0.0
C2385 C 0.1659 0.59147 0.22821 0.0
C2386 C 0.16611 0.58297 0.24271 0.0
C2387 C 0.17614 0.58833 0.2554 0.0
C2388 C 0.15642 0.56818 0.24487 0.0
C2389 C 0.15576 0.58594 0.214 0.0
C2390 C 0.13964 0.56845 0.24408 0.0
C2391 C 0.13063 0.55445 0.24645 0.0
C2392 C 0.13826 0.53998 0.24978 0.0
C2393 C 0.15507 0.53981 0.25065 0.0
C2394 C 0.16405 0.55378 0.24824 0.0
H2395 H 0.15979 0.59147 0.20273 0.0
H2396 H 0.15605 0.57272 0.21253 0.0
H2397 H 0.14317 0.58938 0.21594 0.0
H2398 H 0.13351 0.57951 0.24182 0.0
H2399 H 0.1177 0.55501 0.24579 0.0
H2400 H 0.88444 0.48854 0.01691 0.0
H2401 H 0.86384 0.5079 0.01053 0.0
H2402 H 0.8608 0.52102 0.06048 0.0
H2403 H 0.8813 0.50146 0.06705 0.0
H2404 H 0.83189 0.51019 0.02259 0.0
H2405 H 0.86993 0.56391 0.03757 0.0
H2406 H 0.87824 0.54433 0.03446 0.0
H2407 H 0.86824 0.54899 0.05274 0.0
C2408 C 0.87924 0.49535 0.02659 0.0
C2409 C 0.88455 0.49347 0.04249 0.0
C2410 C 0.86754 0.50648 0.0229 0.0
C2411 C 0.86099 0.51601 0.03501 0.0
C2412 C 0.86595 0.51396 0.05094 0.0
H2413 H 0.79339 0.59433 0.02181 0.0
H2414 H 0.81115 0.57491 0.03432 0.0
C2415 C 0.87766 0.5028 0.05466 0.0
C2416 C 0.84904 0.52814 0.03077 0.0
H2417 H 0.8438 0.56843 0.02796 0.0
C2418 C 0.83442 0.52293 0.02387 0.0
C2419 C 0.85239 0.54473 0.03258 0.0
C2420 C 0.86808 0.55092 0.03964 0.0
C2421 C 0.82315 0.53389 0.0184 0.0
C2422 C 0.82677 0.55046 0.01959 0.0
C2423 C 0.84112 0.5557 0.02704 0.0
C2424 C 0.81629 0.56243 0.01216 0.0
C2425 C 0.80751 0.52762 0.01129 0.0
C2426 C 0.81366 0.56205 0.99555 0.0
C2427 C 0.8036 0.57308 0.98839 0.0
C2428 C 0.79602 0.5848 0.99769 0.0
C2429 C 0.79901 0.58543 0.01431 0.0
C2430 C 0.80912 0.57435 0.02148 0.0
H2431 H 0.80462 0.51538 0.0155 0.0
H2432 H 0.7975 0.53562 0.01436 0.0
H2433 H 0.80843 0.52702 0.99806 0.0
H2434 H 0.81938 0.55317 0.98811 0.0
H2435 H 0.80167 0.5723 0.97555 0.0
H2436 H 0.08411 0.95861 0.03487 0.0
H2437 H 0.10613 0.93989 0.0322 0.0
H2438 H 0.13755 0.9786 0.01856 0.0
H2439 H 0.11578 0.99749 0.02172 0.0
H2440 H 0.12404 0.9328 0.00524 0.0
H2441 H 0.16294 0.95754 0.05444 0.0
H2442 H 0.14214 0.96265 0.05223 0.0
H2443 H 0.15698 0.97204 0.04 0.0
C2444 C 0.09576 0.96319 0.03152 0.0
C2445 C 0.09819 0.97959 0.0286 0.0
C2446 C 0.1083 0.95245 0.02989 0.0
C2447 C 0.12354 0.95788 0.02541 0.0
C2448 C 0.12597 0.97419 0.02232 0.0
H2449 H 0.21418 0.91262 0.00713 0.0
H2450 H 0.19196 0.93107 0.00988 0.0
C2451 C 0.11345 0.98494 0.02395 0.0
C2452 C 0.13678 0.94641 0.02362 0.0
H2453 H 0.17431 0.9379 0.03745 0.0
C2454 C 0.135 0.93385 0.01233 0.0
C2455 C 0.15107 0.94783 0.03288 0.0
C2456 C 0.1534 0.96065 0.04568 0.0
C2457 C 0.14727 0.92285 0.00983 0.0
C2458 C 0.16158 0.9243 0.01906 0.0
C2459 C 0.16334 0.93684 0.03036 0.0
C2460 C 0.1749 0.91296 0.01716 0.0
C2461 C 0.14495 0.90998 0.99709 0.0
C2462 C 0.17272 0.89666 0.02047 0.0
C2463 C 0.18539 0.88606 0.01891 0.0
C2464 C 0.20053 0.89158 0.01407 0.0
C2465 C 0.20268 0.90794 0.01083 0.0
C2466 C 0.19 0.91852 0.01242 0.0
H2467 H 0.1352 0.9129 0.98848 0.0
H2468 H 0.15614 0.90818 0.99036 0.0
H2469 H 0.1417 0.89853 0.00284 0.0
H2470 H 0.16124 0.89217 0.02445 0.0
H2471 H 0.18333 0.87357 0.02158 0.0
loop_
_geom_bond_atom_site_label_1
_geom_bond_atom_site_label_2
_geom_bond_distance
_geom_bond_site_symmetry_2
_ccdc_geom_bond_type
C0 C1 1.384 1_655 S
C0 H13 0.947 . S
C0 C35 1.382 1_655 S
C1 C0 1.384 1_455 S
C1 C2 1.378 . S
C2 C1 1.378 . S
C2 C3 1.378 . S
C2 H14 0.952 . S
C3 C2 1.378 . S
C3 H15 0.950 . S
C3 C34 1.383 . S
H4 C23 0.947 . S
H5 C24 0.946 . S
H6 C26 0.953 . S
H7 C27 0.945 . S
H8 C29 0.952 . S
H9 C30 0.949 . S
H10 C32 0.950 . S
H11 C33 0.948 . S
H12 C35 0.951 . S
H13 C0 0.947 . S
H14 C2 0.952 . S
H15 C3 0.950 . S
N16 C19 1.382 . S
N16 C21 1.363 . S
N17 C19 1.371 . S
N17 C20 1.372 . S
N18 C20 1.361 . S
N18 C21 1.377 . S
C19 N16 1.382 . S
C19 N17 1.371 . S
C19 C22 1.480 . S
C20 N17 1.372 . S
C20 N18 1.361 . S
C20 C28 1.457 . S
C21 N16 1.363 . S
C21 N18 1.377 . S
C21 C34 1.479 . S
C22 C19 1.480 . S
C22 C23 1.383 . S
C22 C27 1.385 . S
C23 H4 0.947 . S
C23 C22 1.383 . S
C23 C24 1.388 1_545 S
C24 H5 0.946 . S
C24 C23 1.388 1_565 S
C24 C25 1.384 1_565 S
C25 C24 1.384 1_545 S
C25 C26 1.377 . S
C26 H6 0.953 . S
C26 C25 1.377 . S
C26 C27 1.369 . S
C27 H7 0.945 . S
C27 C22 1.385 . S
C27 C26 1.369 . S
C28 C20 1.457 . S
C28 C29 1.372 . S
C28 C33 1.364 . S
C29 H8 0.952 . S
C29 C28 1.372 . S
C29 C30 1.389 1_554 S
C30 H9 0.949 . S
C30 C29 1.389 1_556 S
C30 C31 1.387 1_556 S
C31 C30 1.387 1_554 S
C31 C32 1.372 . S
C32 H10 0.950 . S
C32 C31 1.372 . S
C32 C33 1.379 . S
C33 H11 0.948 . S
C33 C28 1.364 . S
C33 C32 1.379 . S
C34 C3 1.383 . S
C34 C21 1.479 . S
C34 C35 1.398 . S
C35 C0 1.382 1_455 S
C35 H12 0.951 . S
C35 C34 1.398 . S
C36 C37 1.384 . S
C36 H49 0.947 . S
C36 C71 1.382 . S
C37 C36 1.384 . S
C37 C38 1.378 . S
C38 C37 1.378 . S
C38 C39 1.378 . S
C38 H50 0.952 . S
C39 C38 1.378 . S
C39 H51 0.950 . S
C39 C70 1.383 . S
H40 C59 0.947 . S
H41 C60 0.946 . S
H42 C62 0.953 . S
H43 C63 0.945 . S
H44 C65 0.952 . S
H45 C66 0.949 . S
H46 C68 0.950 . S
H47 C69 0.948 . S
H48 C71 0.951 . S
H49 C36 0.947 . S
H50 C38 0.952 . S
H51 C39 0.950 . S
N52 C55 1.382 . S
N52 C57 1.363 . S
N53 C55 1.371 . S
N53 C56 1.372 . S
N54 C56 1.361 . S
N54 C57 1.377 . S
C55 N52 1.382 . S
C55 N53 1.371 . S
C55 C58 1.480 . S
C56 N53 1.372 . S
C56 N54 1.361 . S
C56 C64 1.457 . S
C57 N52 1.363 . S
C57 N54 1.377 . S
C57 C70 1.479 . S
C58 C55 1.480 . S
C58 C59 1.383 . S
C58 C63 1.385 . S
C59 H40 0.947 . S
C59 C58 1.383 . S
C59 C60 1.388 . S
C60 H41 0.946 . S
C60 C59 1.388 . S
C60 C61 1.384 . S
C61 C60 1.384 . S
C61 C62 1.377 . S
C62 H42 0.953 . S
C62 C61 1.377 . S
C62 C63 1.369 . S
C63 H43 0.945 . S
C63 C58 1.385 . S
C63 C62 1.369 . S
C64 C56 1.457 . S
C64 C65 1.372 . S
C64 C69 1.364 . S
C65 H44 0.952 . S
C65 C64 1.372 . S
C65 C66 1.389 . S
C66 H45 0.949 . S
C66 C65 1.389 . S
C66 C67 1.387 . S
C67 C66 1.387 . S
C67 C68 1.372 . S
C68 H46 0.950 . S
C68 C67 1.372 . S
C68 C69 1.379 . S
C69 H47 0.948 . S
C69 C64 1.364 . S
C69 C68 1.379 . S
C70 C39 1.383 . S
C70 C57 1.479 . S
C70 C71 1.398 . S
C71 C36 1.382 . S
C71 H48 0.951 . S
C71 C70 1.398 . S
C72 C73 1.384 . S
C72 H85 0.947 . S
C72 C107 1.382 . S
C73 C72 1.384 . S
C73 C74 1.378 . S
C74 C73 1.378 . S
C74 C75 1.378 . S
C74 H86 0.895 1_554 S
C75 C74 1.378 . S
C75 H87 0.950 . S
C75 C106 1.383 . S
H76 C95 0.947 . S
H77 C96 0.946 . S
H78 C98 0.953 . S
H79 C99 0.945 . S
H80 C101 0.952 . S
H81 C102 0.949 . S
H82 C104 0.950 1_455 S
H83 C105 0.948 . S
H84 C107 0.951 . S
H85 C72 0.947 . S
H86 C74 0.895 1_556 S
H87 C75 0.950 . S
N88 C91 1.382 . S
N88 C93 1.363 . S
N89 C91 1.371 . S
N89 C92 1.372 . S
N90 C92 1.361 . S
N90 C93 1.377 . S
C91 N88 1.382 . S
C91 N89 1.371 . S
C91 C94 1.480 . S
C92 N89 1.372 . S
C92 N90 1.361 . S
C92 C100 1.457 . S
C93 N88 1.363 . S
C93 N90 1.377 . S
C93 C106 1.479 . S
C94 C91 1.480 . S
C94 C95 1.383 . S
C94 C99 1.385 . S
C95 H76 0.947 . S
C95 C94 1.383 . S
C95 C96 1.388 . S
C96 H77 0.946 . S
C96 C95 1.388 . S
C96 C97 1.384 . S
C97 C96 1.384 . S
C97 C98 1.377 . S
C98 H78 0.953 . S
C98 C97 1.377 . S
C98 C99 1.369 . S
C99 H79 0.945 . S
C99 C94 1.385 . S
C99 C98 1.369 . S
C100 C92 1.457 . S
C100 C101 1.372 . S
C100 C105 1.364 . S
C101 H80 0.952 . S
C101 C100 1.372 . S
C101 C102 1.389 . S
C102 H81 0.949 . S
C102 C101 1.389 . S
C102 C103 1.387 . S
C103 C102 1.387 . S
C103 C104 1.372 . S
C104 H82 0.950 1_655 S
C104 C103 1.372 . S
C104 C105 1.379 . S
C105 H83 0.948 . S
C105 C100 1.364 . S
C105 C104 1.379 . S
C106 C75 1.383 . S
C106 C93 1.479 . S
C106 C107 1.398 . S
C107 C72 1.382 . S
C107 H84 0.951 . S
C107 C106 1.398 . S
C108 C109 1.384 . S
C108 H121 0.947 . S
C108 C143 1.382 . S
C109 C108 1.384 . S
C109 C110 1.378 . S
C110 C109 1.378 . S
C110 C111 1.378 . S
C110 H122 0.952 . S
C111 C110 1.378 . S
C111 H123 0.950 . S
C111 C142 1.383 . S
H112 C131 0.947 . S
H113 C132 0.946 . S
H114 C134 0.953 . S
H115 C135 0.945 . S
H116 C137 0.952 . S
H117 C138 0.949 . S
H118 C140 0.950 . S
H119 C141 0.948 . S
H120 C143 0.951 . S
H121 C108 0.947 . S
H122 C110 0.952 . S
H123 C111 0.950 . S
N124 C127 1.382 . S
N124 C129 1.363 . S
N125 C127 1.371 . S
N125 C128 1.372 . S
N126 C128 1.361 . S
N126 C129 1.377 . S
C127 N124 1.382 . S
C127 N125 1.371 . S
C127 C130 1.480 . S
C128 N125 1.372 . S
C128 N126 1.361 . S
C128 C136 1.457 . S
C129 N124 1.363 . S
C129 N126 1.377 . S
C129 C142 1.479 . S
C130 C127 1.480 . S
C130 C131 1.383 . S
C130 C135 1.385 . S
C131 H112 0.947 . S
C131 C130 1.383 . S
C131 C132 1.388 . S
C132 H113 0.946 . S
C132 C131 1.388 . S
C132 C133 1.384 . S
C133 C132 1.384 . S
C133 C134 1.377 . S
C134 H114 0.953 . S
C134 C133 1.377 . S
C134 C135 1.369 . S
C135 H115 0.945 . S
C135 C130 1.385 . S
C135 C134 1.369 . S
C136 C128 1.457 . S
C136 C137 1.372 . S
C136 C141 1.364 . S
C137 H116 0.952 . S
C137 C136 1.372 . S
C137 C138 1.389 . S
C138 H117 0.949 . S
C138 C137 1.389 . S
C138 C139 1.387 . S
C139 C138 1.387 . S
C139 C140 1.372 . S
C140 H118 0.950 . S
C140 C139 1.372 . S
C140 C141 1.379 . S
C141 H119 0.948 . S
C141 C136 1.364 . S
C141 C140 1.379 . S
C142 C111 1.383 . S
C142 C129 1.479 . S
C142 C143 1.398 . S
C143 C108 1.382 . S
C143 H120 0.951 . S
C143 C142 1.398 . S
C144 C145 1.384 . S
C144 H157 0.947 . S
C144 C179 1.382 . S
C145 C144 1.384 . S
C145 C146 1.378 . S
C146 C145 1.378 . S
C146 C147 1.378 . S
C146 H158 0.952 . S
C147 C146 1.378 . S
C147 H159 0.950 . S
C147 C178 1.383 . S
H148 C167 0.947 . S
H149 C168 0.911 1_655 S
H150 C170 0.953 . S
H151 C171 0.945 . S
H152 C173 0.952 . S
H153 C174 0.949 1_545 S
H154 C176 0.950 . S
H155 C177 0.948 . S
H156 C179 0.951 . S
H157 C144 0.947 . S
H158 C146 0.952 . S
H159 C147 0.950 . S
N160 C163 1.382 . S
N160 C165 1.363 . S
N161 C163 1.371 . S
N161 C164 1.372 . S
N162 C164 1.361 . S
N162 C165 1.377 . S
C163 N160 1.382 . S
C163 N161 1.371 . S
C163 C166 1.480 . S
C164 N161 1.372 . S
C164 N162 1.361 . S
C164 C172 1.457 . S
C165 N160 1.363 . S
C165 N162 1.377 . S
C165 C178 1.479 . S
C166 C163 1.480 . S
C166 C167 1.383 . S
C166 C171 1.385 . S
C167 H148 0.947 . S
C167 C166 1.383 . S
C167 C168 1.388 . S
C168 H149 0.911 1_455 S
C168 C167 1.388 . S
C168 C169 1.384 . S
C169 C168 1.384 . S
C169 C170 1.377 . S
C170 H150 0.953 . S
C170 C169 1.377 . S
C170 C171 1.369 . S
C171 H151 0.945 . S
C171 C166 1.385 . S
C171 C170 1.369 . S
C172 C164 1.457 . S
C172 C173 1.372 . S
C172 C177 1.364 . S
C173 H152 0.952 . S
C173 C172 1.372 . S
C173 C174 1.389 . S
C174 H153 0.949 1_565 S
C174 C173 1.389 . S
C174 C175 1.387 . S
C175 C174 1.387 . S
C175 C176 1.372 . S
C176 H154 0.950 . S
C176 C175 1.372 . S
C176 C177 1.379 . S
C177 H155 0.948 . S
C177 C172 1.364 . S
C177 C176 1.379 . S
C178 C147 1.383 . S
C178 C165 1.479 . S
C178 C179 1.398 . S
C179 C144 1.382 . S
C179 H156 0.951 . S
C179 C178 1.398 . S
C180 C181 1.384 . S
C180 H193 0.947 . S
C180 C215 1.382 . S
C181 C180 1.384 . S
C181 C182 1.378 . S
C182 C181 1.378 . S
C182 C183 1.378 . S
C182 H194 0.952 . S
C183 C182 1.378 . S
C183 H195 0.950 . S
C183 C214 1.383 . S
H184 C203 0.947 . S
H185 C204 0.946 . S
H186 C206 0.953 . S
H187 C207 0.945 . S
H188 C209 0.952 . S
H189 C210 0.949 . S
H190 C212 0.950 . S
H191 C213 0.948 . S
H192 C215 0.951 . S
H193 C180 0.947 . S
H194 C182 0.952 . S
H195 C183 0.950 . S
N196 C199 1.382 . S
N196 C201 1.363 . S
N197 C199 1.371 . S
N197 C200 1.372 . S
N198 C200 1.361 . S
N198 C201 1.377 . S
C199 N196 1.382 . S
C199 N197 1.371 . S
C199 C202 1.480 . S
C200 N197 1.372 . S
C200 N198 1.361 . S
C200 C208 1.457 . S
C201 N196 1.363 . S
C201 N198 1.377 . S
C201 C214 1.479 . S
C202 C199 1.480 . S
C202 C203 1.383 . S
C202 C207 1.385 . S
C203 H184 0.947 . S
C203 C202 1.383 . S
C203 C204 1.388 . S
C204 H185 0.946 . S
C204 C203 1.388 . S
C204 C205 1.384 . S
C205 C204 1.384 . S
C205 C206 1.377 . S
C206 H186 0.953 . S
C206 C205 1.377 . S
C206 C207 1.369 . S
C207 H187 0.945 . S
C207 C202 1.385 . S
C207 C206 1.369 . S
C208 C200 1.457 . S
C208 C209 1.372 . S
C208 C213 1.364 . S
C209 H188 0.952 . S
C209 C208 1.372 . S
C209 C210 1.389 . S
C210 H189 0.949 . S
C210 C209 1.389 . S
C210 C211 1.387 . S
C211 C210 1.387 . S
C211 C212 1.372 . S
C212 H190 0.950 . S
C212 C211 1.372 . S
C212 C213 1.379 . S
C213 H191 0.948 . S
C213 C208 1.364 . S
C213 C212 1.379 . S
C214 C183 1.383 . S
C214 C201 1.479 . S
C214 C215 1.398 . S
C215 C180 1.382 . S
C215 H192 0.951 . S
C215 C214 1.398 . S
C216 C217 1.384 . S
C216 H229 0.947 . S
C216 C251 1.382 . S
C217 C216 1.384 . S
C217 C218 1.378 . S
C218 C217 1.378 . S
C218 C219 1.378 . S
C218 H230 0.952 . S
C219 C218 1.378 . S
C219 H231 0.950 . S
C219 C250 1.383 . S
H220 C239 0.947 . S
H221 C240 0.946 . S
H222 C242 0.953 . S
H223 C243 0.945 . S
H224 C245 0.952 . S
H225 C246 0.949 . S
H226 C248 0.950 . S
H227 C249 0.948 . S
H228 C251 0.951 . S
H229 C216 0.947 . S
H230 C218 0.952 . S
H231 C219 0.950 . S
N232 C235 1.382 . S
N232 C237 1.363 . S
N233 C235 1.371 . S
N233 C236 1.372 . S
N234 C236 1.361 . S
N234 C237 1.377 . S
C235 N232 1.382 . S
C235 N233 1.371 . S
C235 C238 1.480 . S
C236 N233 1.372 . S
C236 N234 1.361 . S
C236 C244 1.457 . S
C237 N232 1.363 . S
C237 N234 1.377 . S
C237 C250 1.479 . S
C238 C235 1.480 . S
C238 C239 1.383 . S
C238 C243 1.385 . S
C239 H220 0.947 . S
C239 C238 1.383 . S
C239 C240 1.388 . S
C240 H221 0.946 . S
C240 C239 1.388 . S
C240 C241 1.384 . S
C241 C240 1.384 . S
C241 C242 1.377 . S
C242 H222 0.953 . S
C242 C241 1.377 . S
C242 C243 1.369 . S
C243 H223 0.945 . S
C243 C238 1.385 . S
C243 C242 1.369 . S
C244 C236 1.457 . S
C244 C245 1.372 . S
C244 C249 1.364 . S
C245 H224 0.952 . S
C245 C244 1.372 . S
C245 C246 1.389 . S
C246 H225 0.949 . S
C246 C245 1.389 . S
C246 C247 1.387 . S
C247 C246 1.387 . S
C247 C248 1.372 1_655 S
C248 H226 0.950 . S
C248 C247 1.372 1_455 S
C248 C249 1.379 1_455 S
C249 H227 0.948 . S
C249 C244 1.364 . S
C249 C248 1.379 1_655 S
C250 C219 1.383 . S
C250 C237 1.479 . S
C250 C251 1.398 . S
C251 C216 1.382 . S
C251 H228 0.951 . S
C251 C250 1.398 . S
C252 C253 1.384 . S
C252 H265 0.947 . S
C252 C287 1.382 . S
C253 C252 1.384 . S
C253 C254 1.378 . S
C254 C253 1.378 . S
C254 C255 1.378 . S
C254 H266 0.952 . S
C255 C254 1.378 . S
C255 H267 0.950 . S
C255 C286 1.383 . S
H256 C275 0.947 . S
H257 C276 0.946 . S
H258 C278 0.953 . S
H259 C279 0.945 . S
H260 C281 0.952 . S
H261 C282 0.949 . S
H262 C284 0.950 . S
H263 C285 0.948 . S
H264 C287 0.951 . S
H265 C252 0.947 . S
H266 C254 0.952 . S
H267 C255 0.950 . S
N268 C271 1.382 . S
N268 C273 1.363 . S
N269 C271 1.371 . S
N269 C272 1.372 . S
N270 C272 1.361 . S
N270 C273 1.377 . S
C271 N268 1.382 . S
C271 N269 1.371 . S
C271 C274 1.480 . S
C272 N269 1.372 . S
C272 N270 1.361 . S
C272 C280 1.457 . S
C273 N268 1.363 . S
C273 N270 1.377 . S
C273 C286 1.479 . S
C274 C271 1.480 . S
C274 C275 1.383 . S
C274 C279 1.385 . S
C275 H256 0.947 . S
C275 C274 1.383 . S
C275 C276 1.388 . S
C276 H257 0.946 . S
C276 C275 1.388 . S
C276 C277 1.384 . S
C277 C276 1.384 . S
C277 C278 1.377 . S
C278 H258 0.953 . S
C278 C277 1.377 . S
C278 C279 1.369 . S
C279 H259 0.945 . S
C279 C274 1.385 . S
C279 C278 1.369 . S
C280 C272 1.457 . S
C280 C281 1.372 . S
C280 C285 1.364 . S
C281 H260 0.952 . S
C281 C280 1.372 . S
C281 C282 1.389 . S
C282 H261 0.949 . S
C282 C281 1.389 . S
C282 C283 1.387 . S
C283 C282 1.387 . S
C283 C284 1.372 . S
C284 H262 0.950 . S
C284 C283 1.372 . S
C284 C285 1.379 . S
C285 H263 0.948 . S
C285 C280 1.364 . S
C285 C284 1.379 . S
C286 C255 1.383 . S
C286 C273 1.479 . S
C286 C287 1.398 . S
C287 C252 1.382 . S
C287 H264 0.951 . S
C287 C286 1.398 . S
C288 C289 1.384 . S
C288 H301 0.947 . S
C288 C323 1.382 . S
C289 C288 1.384 . S
C289 C290 1.378 . S
C290 C289 1.378 . S
C290 C291 1.378 . S
C290 H302 0.952 . S
C291 C290 1.378 . S
C291 H303 0.950 . S
C291 C322 1.383 . S
H292 C311 0.947 . S
H293 C312 0.946 . S
H294 C314 0.953 . S
H295 C315 0.945 . S
H296 C317 0.952 . S
H297 C318 0.949 . S
H298 C320 0.950 . S
H299 C321 0.948 . S
H300 C323 0.951 . S
H301 C288 0.947 . S
H302 C290 0.952 . S
H303 C291 0.950 . S
N304 C307 1.382 . S
N304 C309 1.363 . S
N305 C307 1.371 . S
N305 C308 1.372 . S
N306 C308 1.361 . S
N306 C309 1.377 . S
C307 N304 1.382 . S
C307 N305 1.371 . S
C307 C310 1.480 . S
C308 N305 1.372 . S
C308 N306 1.361 . S
C308 C316 1.457 . S
C309 N304 1.363 . S
C309 N306 1.377 . S
C309 C322 1.479 . S
C310 C307 1.480 . S
C310 C311 1.383 . S
C310 C315 1.385 . S
C311 H292 0.947 . S
C311 C310 1.383 . S
C311 C312 1.388 . S
C312 H293 0.946 . S
C312 C311 1.388 . S
C312 C313 1.384 . S
C313 C312 1.384 . S
C313 C314 1.377 . S
C314 H294 0.953 . S
C314 C313 1.377 . S
C314 C315 1.369 . S
C315 H295 0.945 . S
C315 C310 1.385 . S
C315 C314 1.369 . S
C316 C308 1.457 . S
C316 C317 1.372 . S
C316 C321 1.364 . S
C317 H296 0.952 . S
C317 C316 1.372 . S
C317 C318 1.389 . S
C318 H297 0.949 . S
C318 C317 1.389 . S
C318 C319 1.387 . S
C319 C318 1.387 . S
C319 C320 1.372 . S
C320 H298 0.950 . S
C320 C319 1.372 . S
C320 C321 1.379 . S
C321 H299 0.948 . S
C321 C316 1.364 . S
C321 C320 1.379 . S
C322 C291 1.383 . S
C322 C309 1.479 . S
C322 C323 1.398 . S
C323 C288 1.382 . S
C323 H300 0.951 . S
C323 C322 1.398 . S
C324 C325 1.384 . S
C324 H337 0.947 . S
C324 C359 1.382 . S
C325 C324 1.384 . S
C325 C326 1.378 . S
C326 C325 1.378 . S
C326 C327 1.378 . S
C326 H338 0.952 . S
C327 C326 1.378 . S
C327 H339 0.950 . S
C327 C358 1.383 . S
H328 C347 0.947 . S
H329 C348 0.946 . S
H330 C350 0.953 . S
H331 C351 0.945 . S
H332 C353 0.952 . S
H333 C354 0.949 . S
H334 C356 0.950 . S
H335 C357 0.948 . S
H336 C359 0.951 . S
H337 C324 0.947 . S
H338 C326 0.952 . S
H339 C327 0.950 . S
N340 C343 1.382 . S
N340 C345 1.363 . S
N341 C343 1.371 . S
N341 C344 1.372 . S
N342 C344 1.361 . S
N342 C345 1.377 . S
C343 N340 1.382 . S
C343 N341 1.371 . S
C343 C346 1.480 . S
C344 N341 1.372 . S
C344 N342 1.361 . S
C344 C352 1.457 . S
C345 N340 1.363 . S
C345 N342 1.377 . S
C345 C358 1.479 . S
C346 C343 1.480 . S
C346 C347 1.383 . S
C346 C351 1.385 . S
C347 H328 0.947 . S
C347 C346 1.383 . S
C347 C348 1.388 . S
C348 H329 0.946 . S
C348 C347 1.388 . S
C348 C349 1.384 . S
C349 C348 1.384 . S
C349 C350 1.377 1_565 S
C350 H330 0.953 . S
C350 C349 1.377 1_545 S
C350 C351 1.369 1_545 S
C351 H331 0.945 . S
C351 C346 1.385 . S
C351 C350 1.369 1_565 S
C352 C344 1.457 . S
C352 C353 1.372 . S
C352 C357 1.364 . S
C353 H332 0.952 . S
C353 C352 1.372 . S
C353 C354 1.389 . S
C354 H333 0.949 . S
C354 C353 1.389 . S
C354 C355 1.387 . S
C355 C354 1.387 . S
C355 C356 1.372 . S
C356 H334 0.950 . S
C356 C355 1.372 . S
C356 C357 1.379 . S
C357 H335 0.948 . S
C357 C352 1.364 . S
C357 C356 1.379 . S
C358 C327 1.383 . S
C358 C345 1.479 . S
C358 C359 1.398 . S
C359 C324 1.382 . S
C359 H336 0.951 . S
C359 C358 1.398 . S
C360 C361 1.384 . S
C360 H373 0.947 . S
C360 C395 1.382 . S
C361 C360 1.384 . S
C361 C362 1.378 . S
C362 C361 1.378 . S
C362 C363 1.378 . S
C362 H374 0.952 . S
C363 C362 1.378 . S
C363 H375 0.950 . S
C363 C394 1.383 . S
H364 C383 0.947 . S
H365 C384 0.946 . S
H366 C386 0.953 . S
H367 C387 0.945 . S
H368 C389 0.952 . S
H369 C390 0.949 . S
H370 C392 0.950 . S
H371 C393 0.948 . S
H372 C395 0.951 . S
H373 C360 0.947 . S
H374 C362 0.952 . S
H375 C363 0.950 . S
N376 C379 1.382 . S
N376 C381 1.363 . S
N377 C379 1.371 . S
N377 C380 1.372 . S
N378 C380 1.361 . S
N378 C381 1.377 . S
C379 N376 1.382 . S
C379 N377 1.371 . S
C379 C382 1.480 . S
C380 N377 1.372 . S
C380 N378 1.361 . S
C380 C388 1.457 . S
C381 N376 1.363 . S
C381 N378 1.377 . S
C381 C394 1.479 . S
C382 C379 1.480 . S
C382 C383 1.383 . S
C382 C387 1.385 . S
C383 H364 0.947 . S
C383 C382 1.383 . S
C383 C384 1.388 . S
C384 H365 0.946 . S
C384 C383 1.388 . S
C384 C385 1.384 . S
C385 C384 1.384 . S
C385 C386 1.377 . S
C386 H366 0.953 . S
C386 C385 1.377 . S
C386 C387 1.369 . S
C387 H367 0.945 . S
C387 C382 1.385 . S
C387 C386 1.369 . S
C388 C380 1.457 . S
C388 C389 1.372 . S
C388 C393 1.364 . S
C389 H368 0.952 . S
C389 C388 1.372 . S
C389 C390 1.389 . S
C390 H369 0.949 . S
C390 C389 1.389 . S
C390 C391 1.387 . S
C391 C390 1.387 . S
C391 C392 1.372 . S
C392 H370 0.950 . S
C392 C391 1.372 . S
C392 C393 1.379 . S
C393 H371 0.948 . S
C393 C388 1.364 . S
C393 C392 1.379 . S
C394 C363 1.383 . S
C394 C381 1.479 . S
C394 C395 1.398 . S
C395 C360 1.382 . S
C395 H372 0.951 . S
C395 C394 1.398 . S
C396 C397 1.384 . S
C396 H409 0.947 . S
C396 C431 1.382 . S
C397 C396 1.384 . S
C397 C398 1.378 . S
C398 C397 1.378 . S
C398 C399 1.378 . S
C398 H410 0.952 . S
C399 C398 1.378 . S
C399 H411 0.950 . S
C399 C430 1.383 . S
H400 C419 0.947 . S
H401 C420 0.946 . S
H402 C422 0.953 . S
H403 C423 0.945 . S
H404 C425 0.952 . S
H405 C426 0.949 . S
H406 C428 0.950 . S
H407 C429 0.948 . S
H408 C431 0.951 . S
H409 C396 0.947 . S
H410 C398 0.952 . S
H411 C399 0.950 . S
N412 C415 1.382 . S
N412 C417 1.363 . S
N413 C415 1.371 . S
N413 C416 1.372 . S
N414 C416 1.361 . S
N414 C417 1.377 . S
C415 N412 1.382 . S
C415 N413 1.371 . S
C415 C418 1.480 . S
C416 N413 1.372 . S
C416 N414 1.361 . S
C416 C424 1.457 . S
C417 N412 1.363 . S
C417 N414 1.377 . S
C417 C430 1.479 . S
C418 C415 1.480 . S
C418 C419 1.383 . S
C418 C423 1.385 . S
C419 H400 0.947 . S
C419 C418 1.383 . S
C419 C420 1.388 . S
C420 H401 0.946 . S
C420 C419 1.388 . S
C420 C421 1.384 . S
C421 C420 1.384 . S
C421 C422 1.377 . S
C422 H402 0.953 . S
C422 C421 1.377 . S
C422 C423 1.369 . S
C423 H403 0.945 . S
C423 C418 1.385 . S
C423 C422 1.369 . S
C424 C416 1.457 . S
C424 C425 1.372 . S
C424 C429 1.364 . S
C425 H404 0.952 . S
C425 C424 1.372 . S
C425 C426 1.389 . S
C426 H405 0.949 . S
C426 C425 1.389 . S
C426 C427 1.387 . S
C427 C426 1.387 . S
C427 C428 1.372 . S
C428 H406 0.950 . S
C428 C427 1.372 . S
C428 C429 1.379 . S
C429 H407 0.948 . S
C429 C424 1.364 . S
C429 C428 1.379 . S
C430 C399 1.383 . S
C430 C417 1.479 . S
C430 C431 1.398 . S
C431 C396 1.382 . S
C431 H408 0.951 . S
C431 C430 1.398 . S
C432 C433 1.384 . S
C432 H445 0.947 . S
C432 C467 1.382 . S
C433 C432 1.384 . S
C433 C434 1.378 . S
C434 C433 1.378 . S
C434 C435 1.378 . S
C434 H446 0.952 . S
C435 C434 1.378 . S
C435 H447 0.950 . S
C435 C466 1.383 . S
H436 C455 0.947 . S
H437 C456 0.946 . S
H438 C458 0.953 . S
H439 C459 0.945 . S
H440 C461 0.952 . S
H441 C462 0.949 . S
H442 C464 0.950 . S
H443 C465 0.948 . S
H444 C467 0.951 . S
H445 C432 0.947 . S
H446 C434 0.952 . S
H447 C435 0.950 . S
N448 C451 1.382 . S
N448 C453 1.363 . S
N449 C451 1.371 . S
N449 C452 1.372 . S
N450 C452 1.361 . S
N450 C453 1.377 . S
C451 N448 1.382 . S
C451 N449 1.371 . S
C451 C454 1.480 . S
C452 N449 1.372 . S
C452 N450 1.361 . S
C452 C460 1.457 . S
C453 N448 1.363 . S
C453 N450 1.377 . S
C453 C466 1.479 . S
C454 C451 1.480 . S
C454 C455 1.383 . S
C454 C459 1.385 . S
C455 H436 0.947 . S
C455 C454 1.383 . S
C455 C456 1.388 . S
C456 H437 0.946 . S
C456 C455 1.388 . S
C456 C457 1.384 . S
C457 C456 1.384 . S
C457 C458 1.377 . S
C458 H438 0.953 . S
C458 C457 1.377 . S
C458 C459 1.369 . S
C459 H439 0.945 . S
C459 C454 1.385 . S
C459 C458 1.369 . S
C460 C452 1.457 . S
C460 C461 1.372 . S
C460 C465 1.364 . S
C461 H440 0.952 . S
C461 C460 1.372 . S
C461 C462 1.389 . S
C462 H441 0.949 . S
C462 C461 1.389 . S
C462 C463 1.387 . S
C463 C462 1.387 . S
C463 C464 1.372 . S
C464 H442 0.950 . S
C464 C463 1.372 . S
C464 C465 1.379 . S
C465 H443 0.948 . S
C465 C460 1.364 . S
C465 C464 1.379 . S
C466 C435 1.383 . S
C466 C453 1.479 . S
C466 C467 1.398 . S
C467 C432 1.382 . S
C467 H444 0.951 . S
C467 C466 1.398 . S
C468 C469 1.390 . S
C468 H481 0.920 1_556 S
C468 C503 1.404 . S
C469 C468 1.390 . S
C469 C470 1.378 . S
C470 C469 1.378 . S
C470 C471 1.378 . S
C470 H482 0.952 . S
C471 C470 1.378 . S
C471 H483 0.950 . S
C471 C502 1.383 . S
H472 C491 0.947 . S
H473 C492 0.946 . S
H474 C494 0.953 . S
H475 C495 0.945 . S
H476 C497 0.952 . S
H477 C498 0.949 . S
H478 C500 0.950 . S
H479 C501 0.948 . S
H480 C503 0.951 . S
H481 C468 0.920 1_554 S
H482 C470 0.952 . S
H483 C471 0.950 . S
N484 C487 1.382 . S
N484 C489 1.363 . S
N485 C487 1.371 . S
N485 C488 1.372 . S
N486 C488 1.361 . S
N486 C489 1.377 . S
C487 N484 1.382 . S
C487 N485 1.371 . S
C487 C490 1.480 . S
C488 N485 1.372 . S
C488 N486 1.361 . S
C488 C496 1.457 . S
C489 N484 1.363 . S
C489 N486 1.377 . S
C489 C502 1.479 . S
C490 C487 1.480 . S
C490 C491 1.383 . S
C490 C495 1.385 . S
C491 H472 0.947 . S
C491 C490 1.383 . S
C491 C492 1.388 . S
C492 H473 0.946 . S
C492 C491 1.388 . S
C492 C493 1.384 . S
C493 C492 1.384 . S
C493 C494 1.377 . S
C494 H474 0.953 . S
C494 C493 1.377 . S
C494 C495 1.369 . S
C495 H475 0.945 . S
C495 C490 1.385 . S
C495 C494 1.369 . S
C496 C488 1.457 . S
C496 C497 1.372 . S
C496 C501 1.364 . S
C497 H476 0.952 . S
C497 C496 1.372 . S
C497 C498 1.389 . S
C498 H477 0.949 . S
C498 C497 1.389 . S
C498 C499 1.387 . S
C499 C498 1.387 . S
C499 C500 1.372 . S
C500 H478 0.950 . S
C500 C499 1.372 . S
C500 C501 1.379 . S
C501 H479 0.948 . S
C501 C496 1.364 . S
C501 C500 1.379 . S
C502 C471 1.383 . S
C502 C489 1.479 . S
C502 C503 1.398 . S
C503 C468 1.404 . S
C503 H480 0.951 . S
C503 C502 1.398 . S
C504 C505 1.384 . S
C504 H517 0.947 . S
C504 C539 1.382 . S
C505 C504 1.384 . S
C505 C506 1.378 . S
C506 C505 1.378 . S
C506 C507 1.378 . S
C506 H518 0.952 . S
C507 C506 1.378 . S
C507 H519 0.950 . S
C507 C538 1.383 . S
H508 C527 0.947 . S
H509 C528 0.946 . S
H510 C530 0.953 . S
H511 C531 0.945 . S
H512 C533 0.952 . S
H513 C534 0.949 . S
H514 C536 0.950 . S
H515 C537 0.948 . S
H516 C539 0.951 . S
H517 C504 0.947 . S
H518 C506 0.952 . S
H519 C507 0.950 . S
N520 C523 1.382 . S
N520 C525 1.363 . S
N521 C523 1.371 . S
N521 C524 1.372 . S
N522 C524 1.361 . S
N522 C525 1.377 . S
C523 N520 1.382 . S
C523 N521 1.371 . S
C523 C526 1.480 . S
C524 N521 1.372 . S
C524 N522 1.361 . S
C524 C532 1.457 . S
C525 N520 1.363 . S
C525 N522 1.377 . S
C525 C538 1.479 . S
C526 C523 1.480 . S
C526 C527 1.383 . S
C526 C531 1.385 . S
C527 H508 0.947 . S
C527 C526 1.383 . S
C527 C528 1.388 . S
C528 H509 0.946 . S
C528 C527 1.388 . S
C528 C529 1.384 . S
C529 C528 1.384 . S
C529 C530 1.377 . S
C530 H510 0.953 . S
C530 C529 1.377 . S
C530 C531 1.369 . S
C531 H511 0.945 . S
C531 C526 1.385 . S
C531 C530 1.369 . S
C532 C524 1.457 . S
C532 C533 1.372 . S
C532 C537 1.364 . S
C533 H512 0.952 . S
C533 C532 1.372 . S
C533 C534 1.389 . S
C534 H513 0.949 . S
C534 C533 1.389 . S
C534 C535 1.387 . S
C535 C534 1.387 . S
C535 C536 1.372 . S
C536 H514 0.950 . S
C536 C535 1.372 . S
C536 C537 1.379 . S
C537 H515 0.948 . S
C537 C532 1.364 . S
C537 C536 1.379 . S
C538 C507 1.383 . S
C538 C525 1.479 . S
C538 C539 1.398 . S
C539 C504 1.382 . S
C539 H516 0.951 . S
C539 C538 1.398 . S
C540 C541 1.384 . S
C540 H553 0.947 . S
C540 C575 1.382 . S
C541 C540 1.384 . S
C541 C542 1.378 . S
C542 C541 1.378 . S
C542 C543 1.378 . S
C542 H554 0.952 1_556 S
C543 C542 1.378 . S
C543 H555 0.950 . S
C543 C574 1.383 . S
H544 C563 0.947 . S
H545 C564 0.946 . S
H546 C566 0.953 1_565 S
H547 C567 0.945 . S
H548 C569 0.952 . S
H549 C570 0.949 . S
H550 C572 0.950 . S
H551 C573 0.948 . S
H552 C575 0.951 . S
H553 C540 0.947 . S
H554 C542 0.952 1_554 S
H555 C543 0.950 . S
N556 C559 1.382 . S
N556 C561 1.363 . S
N557 C559 1.371 . S
N557 C560 1.372 . S
N558 C560 1.361 . S
N558 C561 1.377 . S
C559 N556 1.382 . S
C559 N557 1.371 . S
C559 C562 1.480 . S
C560 N557 1.372 . S
C560 N558 1.361 . S
C560 C568 1.457 . S
C561 N556 1.363 . S
C561 N558 1.377 . S
C561 C574 1.479 . S
C562 C559 1.480 . S
C562 C563 1.383 . S
C562 C567 1.385 . S
C563 H544 0.947 . S
C563 C562 1.383 . S
C563 C564 1.388 . S
C564 H545 0.946 . S
C564 C563 1.388 . S
C564 C565 1.384 . S
C565 C564 1.384 . S
C565 C566 1.377 . S
C566 H546 0.953 1_545 S
C566 C565 1.377 . S
C566 C567 1.369 . S
C567 H547 0.945 . S
C567 C562 1.385 . S
C567 C566 1.369 . S
C568 C560 1.457 . S
C568 C569 1.372 . S
C568 C573 1.364 . S
C569 H548 0.952 . S
C569 C568 1.372 . S
C569 C570 1.389 . S
C570 H549 0.949 . S
C570 C569 1.389 . S
C570 C571 1.387 . S
C571 C570 1.387 . S
C571 C572 1.372 . S
C572 H550 0.950 . S
C572 C571 1.372 . S
C572 C573 1.379 . S
C573 H551 0.948 . S
C573 C568 1.364 . S
C573 C572 1.379 . S
C574 C543 1.383 . S
C574 C561 1.479 . S
C574 C575 1.398 . S
C575 C540 1.382 . S
C575 H552 0.951 . S
C575 C574 1.398 . S
Zn576 O579 2.064 . S
Zn576 O581 2.027 1_554 S
Zn576 O586 2.023 1_554 S
Zn577 O578 1.962 . S
Zn577 O580 1.986 . S
Zn577 O582 1.996 . S
Zn577 O585 1.943 1_554 S
O578 Zn577 1.962 . S
O578 C583 1.254 . S
O579 Zn576 2.064 . S
O579 C583 1.269 . S
O580 Zn577 1.986 . S
O580 C587 1.262 . S
O581 Zn576 2.027 1_556 S
O581 C589 1.260 . S
O582 Zn577 1.996 . S
O582 C589 1.257 1_554 S
C583 O578 1.254 . S
C583 O579 1.269 . S
C584 O585 1.249 . S
C584 O586 1.270 . S
O585 Zn577 1.943 1_556 S
O585 C584 1.249 . S
O586 Zn576 2.023 1_556 S
O586 C584 1.270 . S
C587 O580 1.262 . S
C587 O588 1.232 . S
O588 C587 1.232 . S
C589 O581 1.260 . S
C589 O582 1.257 1_556 S
Zn590 O593 2.031 . S
Zn590 O595 2.049 . S
Zn590 O600 2.067 . S
Zn591 O592 1.962 . S
Zn591 O594 1.986 . S
Zn591 O596 1.996 . S
Zn591 O599 1.943 . S
O592 Zn591 1.962 . S
O592 C597 1.254 . S
O593 Zn590 2.031 . S
O593 C597 1.269 . S
O594 Zn591 1.986 . S
O594 C601 1.262 . S
O595 Zn590 2.049 . S
O595 C603 1.260 . S
O596 Zn591 1.996 . S
O596 C603 1.257 . S
C597 O592 1.254 . S
C597 O593 1.269 . S
C598 O599 1.249 . S
C598 O600 1.270 . S
O599 Zn591 1.943 . S
O599 C598 1.249 . S
O600 Zn590 2.067 . S
O600 C598 1.270 . S
C601 O594 1.262 . S
C601 O602 1.232 . S
O602 C601 1.232 . S
C603 O595 1.260 . S
C603 O596 1.257 . S
Zn604 O607 2.031 . S
Zn604 O609 2.049 . S
Zn604 O614 2.067 . S
Zn605 O606 1.962 . S
Zn605 O608 1.986 . S
Zn605 O610 1.996 1_554 S
Zn605 O613 1.943 . S
O606 Zn605 1.962 . S
O606 C611 1.254 . S
O607 Zn604 2.031 . S
O607 C611 1.269 1_556 S
O608 Zn605 1.986 . S
O608 C615 1.262 . S
O609 Zn604 2.049 . S
O609 C617 1.260 . S
O610 Zn605 1.996 1_556 S
O610 C617 1.257 . S
C611 O606 1.254 . S
C611 O607 1.269 1_554 S
C612 O613 1.249 1_556 S
C612 O614 1.270 . S
O613 Zn605 1.943 . S
O613 C612 1.249 1_554 S
O614 Zn604 2.067 . S
O614 C612 1.270 . S
C615 O608 1.262 . S
C615 O616 1.232 . S
O616 C615 1.232 . S
C617 O609 1.260 . S
C617 O610 1.257 . S
Zn618 O621 2.059 . S
Zn618 O623 2.030 1_545 S
Zn618 O628 2.029 1_545 S
Zn619 O620 1.962 . S
Zn619 O622 1.986 . S
Zn619 O624 1.996 . S
Zn619 O627 1.943 1_545 S
O620 Zn619 1.962 . S
O620 C625 1.254 . S
O621 Zn618 2.059 . S
O621 C625 1.269 . S
O622 Zn619 1.986 . S
O622 C629 1.262 . S
O623 Zn618 2.030 1_565 S
O623 C631 1.260 . S
O624 Zn619 1.996 . S
O624 C631 1.257 1_545 S
C625 O620 1.254 . S
C625 O621 1.269 . S
C626 O627 1.249 . S
C626 O628 1.270 . S
O627 Zn619 1.943 1_565 S
O627 C626 1.249 . S
O628 Zn618 2.029 1_565 S
O628 C626 1.270 . S
C629 O622 1.262 . S
C629 O630 1.232 . S
O630 C629 1.232 . S
C631 O623 1.260 . S
C631 O624 1.257 1_565 S
Zn632 O635 2.031 . S
Zn632 O637 2.049 . S
Zn632 O642 2.067 . S
Zn633 O634 1.962 . S
Zn633 O636 1.986 . S
Zn633 O638 1.996 . S
Zn633 O641 1.943 . S
O634 Zn633 1.962 . S
O634 C639 1.254 . S
O635 Zn632 2.031 . S
O635 C639 1.269 . S
O636 Zn633 1.986 . S
O636 C643 1.262 . S
O637 Zn632 2.049 . S
O637 C645 1.260 . S
O638 Zn633 1.996 . S
O638 C645 1.257 . S
C639 O634 1.254 . S
C639 O635 1.269 . S
C640 O641 1.249 . S
C640 O642 1.270 . S
O641 Zn633 1.943 . S
O641 C640 1.249 . S
O642 Zn632 2.067 . S
O642 C640 1.270 . S
C643 O636 1.262 . S
C643 O644 1.232 . S
O644 C643 1.232 . S
C645 O637 1.260 . S
C645 O638 1.257 . S
Zn646 O649 2.031 . S
Zn646 O651 2.049 . S
Zn646 O656 2.067 . S
Zn647 O648 1.962 . S
Zn647 O650 1.986 . S
Zn647 O652 1.996 . S
Zn647 O655 1.943 . S
O648 Zn647 1.962 . S
O648 C653 1.254 . S
O649 Zn646 2.031 . S
O649 C653 1.269 . S
O650 Zn647 1.986 . S
O650 C657 1.262 . S
O651 Zn646 2.049 . S
O651 C659 1.260 . S
O652 Zn647 1.996 . S
O652 C659 1.257 . S
C653 O648 1.254 . S
C653 O649 1.269 . S
C654 O655 1.249 . S
C654 O656 1.270 . S
O655 Zn647 1.943 . S
O655 C654 1.249 . S
O656 Zn646 2.067 . S
O656 C654 1.270 . S
C657 O650 1.262 . S
C657 O658 1.232 . S
O658 C657 1.232 . S
C659 O651 1.260 . S
C659 O652 1.257 . S
Zn660 O663 2.031 . S
Zn660 O665 2.049 . S
Zn660 O670 2.067 . S
Zn661 O662 1.962 . S
Zn661 O664 1.986 . S
Zn661 O666 1.996 . S
Zn661 O669 1.943 . S
O662 Zn661 1.962 . S
O662 C667 1.254 . S
O663 Zn660 2.031 . S
O663 C667 1.269 . S
O664 Zn661 1.986 . S
O664 C671 1.262 . S
O665 Zn660 2.049 . S
O665 C673 1.260 . S
O666 Zn661 1.996 . S
O666 C673 1.257 . S
C667 O662 1.254 . S
C667 O663 1.269 . S
C668 O669 1.249 . S
C668 O670 1.270 . S
O669 Zn661 1.943 . S
O669 C668 1.249 . S
O670 Zn660 2.067 . S
O670 C668 1.270 . S
C671 O664 1.262 . S
C671 O672 1.232 . S
O672 C671 1.232 . S
C673 O665 1.260 . S
C673 O666 1.257 . S
Zn674 O677 2.031 . S
Zn674 O679 2.049 . S
Zn674 O684 2.067 . S
Zn675 O676 1.962 . S
Zn675 O678 1.986 . S
Zn675 O680 1.996 1_545 S
Zn675 O683 1.943 . S
O676 Zn675 1.962 . S
O676 C681 1.254 . S
O677 Zn674 2.031 . S
O677 C681 1.269 1_565 S
O678 Zn675 1.986 . S
O678 C685 1.262 . S
O679 Zn674 2.049 . S
O679 C687 1.260 . S
O680 Zn675 1.996 1_565 S
O680 C687 1.257 . S
C681 O676 1.254 . S
C681 O677 1.269 1_545 S
C682 O683 1.249 1_565 S
C682 O684 1.270 . S
O683 Zn675 1.943 . S
O683 C682 1.249 1_545 S
O684 Zn674 2.067 . S
O684 C682 1.270 . S
C685 O678 1.262 . S
C685 O686 1.232 . S
O686 C685 1.232 . S
C687 O679 1.260 . S
C687 O680 1.257 . S
Zn688 O691 2.041 . S
Zn688 O693 2.042 1_455 S
Zn688 O698 2.053 1_455 S
Zn689 O690 1.962 . S
Zn689 O692 1.986 . S
Zn689 O694 1.996 . S
Zn689 O697 1.943 1_455 S
O690 Zn689 1.962 . S
O690 C695 1.254 . S
O691 Zn688 2.041 . S
O691 C695 1.269 . S
O692 Zn689 1.986 . S
O692 C699 1.262 . S
O693 Zn688 2.042 1_655 S
O693 C701 1.260 . S
O694 Zn689 1.996 . S
O694 C701 1.257 1_455 S
C695 O690 1.254 . S
C695 O691 1.269 . S
C696 O697 1.249 . S
C696 O698 1.270 . S
O697 Zn689 1.943 1_655 S
O697 C696 1.249 . S
O698 Zn688 2.053 1_655 S
O698 C696 1.270 . S
C699 O692 1.262 . S
C699 O700 1.232 . S
O700 C699 1.232 . S
C701 O693 1.260 . S
C701 O694 1.257 1_655 S
Zn702 O705 2.031 . S
Zn702 O707 2.049 . S
Zn702 O712 2.067 . S
Zn703 O704 1.962 . S
Zn703 O706 1.986 . S
Zn703 O708 1.996 . S
Zn703 O711 1.943 . S
O704 Zn703 1.962 . S
O704 C709 1.254 . S
O705 Zn702 2.031 . S
O705 C709 1.269 . S
O706 Zn703 1.986 . S
O706 C713 1.262 . S
O707 Zn702 2.049 . S
O707 C715 1.260 . S
O708 Zn703 1.996 . S
O708 C715 1.257 . S
C709 O704 1.254 . S
C709 O705 1.269 . S
C710 O711 1.249 . S
C710 O712 1.270 . S
O711 Zn703 1.943 . S
O711 C710 1.249 . S
O712 Zn702 2.067 . S
O712 C710 1.270 . S
C713 O706 1.262 . S
C713 O714 1.232 . S
O714 C713 1.232 . S
C715 O707 1.260 . S
C715 O708 1.257 . S
Zn716 O719 2.031 . S
Zn716 O721 2.049 . S
Zn716 O726 2.067 . S
Zn717 O718 1.962 . S
Zn717 O720 1.986 . S
Zn717 O722 1.996 1_455 S
Zn717 O725 1.943 . S
O718 Zn717 1.962 . S
O718 C723 1.254 . S
O719 Zn716 2.031 . S
O719 C723 1.269 1_655 S
O720 Zn717 1.986 . S
O720 C727 1.262 . S
O721 Zn716 2.049 . S
O721 C729 1.260 . S
O722 Zn717 1.996 1_655 S
O722 C729 1.257 . S
C723 O718 1.254 . S
C723 O719 1.269 1_455 S
C724 O725 1.249 1_655 S
C724 O726 1.270 . S
O725 Zn717 1.943 . S
O725 C724 1.249 1_455 S
O726 Zn716 2.067 . S
O726 C724 1.270 . S
C727 O720 1.262 . S
C727 O728 1.232 . S
O728 C727 1.232 . S
C729 O721 1.260 . S
C729 O722 1.257 . S
Zn730 O733 2.031 . S
Zn730 O735 2.049 . S
Zn730 O740 2.067 . S
Zn731 O732 1.962 . S
Zn731 O734 1.986 . S
Zn731 O736 1.996 . S
Zn731 O739 1.943 . S
O732 Zn731 1.962 . S
O732 C737 1.254 . S
O733 Zn730 2.031 . S
O733 C737 1.269 . S
O734 Zn731 1.986 . S
O734 C741 1.262 . S
O735 Zn730 2.049 . S
O735 C743 1.260 . S
O736 Zn731 1.996 . S
O736 C743 1.257 . S
C737 O732 1.254 . S
C737 O733 1.269 . S
C738 O739 1.249 . S
C738 O740 1.270 . S
O739 Zn731 1.943 . S
O739 C738 1.249 . S
O740 Zn730 2.067 . S
O740 C738 1.270 . S
C741 O734 1.262 . S
C741 O742 1.232 . S
O742 C741 1.232 . S
C743 O735 1.260 . S
C743 O736 1.257 . S
H744 C752 0.929 . S
H745 C754 0.930 . S
H746 C756 0.930 . S
H747 C759 0.929 . S
H748 C762 0.930 . S
H749 C764 0.960 . S
H750 C764 0.960 . S
H751 C764 0.960 . S
C752 H744 0.929 . S
C752 C753 1.377 . S
C752 C754 1.384 . S
C753 C752 1.377 . S
C753 C759 1.390 . S
C754 H745 0.930 . S
C754 C752 1.384 . S
C754 C755 1.372 . S
C755 C754 1.372 . S
C755 C756 1.400 . S
C755 C760 1.490 . S
C756 H746 0.930 . S
C756 C755 1.400 . S
C756 C759 1.386 . S
H757 C773 0.930 . S
H758 C774 0.931 . S
C759 H747 0.929 . S
C759 C753 1.390 . S
C759 C756 1.386 . S
C760 C755 1.490 . S
C760 C762 1.395 . S
C760 C763 1.403 . S
H761 C767 0.930 . S
C762 H748 0.930 . S
C762 C760 1.395 . S
C762 C765 1.403 . S
C763 C760 1.403 . S
C763 C764 1.524 . S
C763 C767 1.400 . S
C764 H749 0.960 . S
C764 H750 0.960 . S
C764 H751 0.960 . S
C764 C763 1.524 . S
C765 C762 1.403 . S
C765 C766 1.392 . S
C765 C769 1.495 . S
C766 C765 1.392 . S
C766 C767 1.385 . S
C766 C768 1.478 . S
C767 H761 0.930 . S
C767 C763 1.400 . S
C767 C766 1.385 . S
C768 C766 1.478 . S
C768 C770 1.381 . S
C768 C774 1.383 . S
C769 C765 1.495 . S
C769 H775 0.959 . S
C769 H776 0.961 . S
C769 H777 0.960 . S
C770 C768 1.381 . S
C770 C771 1.394 . S
C770 H778 0.930 . S
C771 C770 1.394 . S
C771 C772 1.383 . S
C771 H779 0.929 . S
C772 C771 1.383 . S
C772 C773 1.377 . S
C773 H757 0.930 . S
C773 C772 1.377 . S
C773 C774 1.379 . S
C774 H758 0.931 . S
C774 C768 1.383 . S
C774 C773 1.379 . S
H775 C769 0.959 . S
H776 C769 0.961 . S
H777 C769 0.960 . S
H778 C770 0.930 . S
H779 C771 0.929 . S
H780 C788 0.929 . S
H781 C790 0.930 . S
H782 C792 0.930 . S
H783 C795 0.929 . S
H784 C798 0.930 . S
H785 C800 0.960 . S
H786 C800 0.960 . S
H787 C800 0.960 . S
C788 H780 0.929 . S
C788 C789 1.377 . S
C788 C790 1.384 . S
C789 C788 1.377 . S
C789 C795 1.390 . S
C790 H781 0.930 . S
C790 C788 1.384 . S
C790 C791 1.372 . S
C791 C790 1.372 . S
C791 C792 1.400 . S
C791 C796 1.490 . S
C792 H782 0.930 . S
C792 C791 1.400 . S
C792 C795 1.386 . S
H793 C809 0.930 . S
H794 C810 0.931 . S
C795 H783 0.929 . S
C795 C789 1.390 . S
C795 C792 1.386 . S
C796 C791 1.490 . S
C796 C798 1.395 . S
C796 C799 1.403 . S
H797 C803 0.930 . S
C798 H784 0.930 . S
C798 C796 1.395 . S
C798 C801 1.403 . S
C799 C796 1.403 . S
C799 C800 1.524 . S
C799 C803 1.400 . S
C800 H785 0.960 . S
C800 H786 0.960 . S
C800 H787 0.960 . S
C800 C799 1.524 . S
C801 C798 1.403 . S
C801 C802 1.392 . S
C801 C805 1.495 . S
C802 C801 1.392 . S
C802 C803 1.385 . S
C802 C804 1.478 . S
C803 H797 0.930 . S
C803 C799 1.400 . S
C803 C802 1.385 . S
C804 C802 1.478 . S
C804 C806 1.381 . S
C804 C810 1.383 . S
C805 C801 1.495 . S
C805 H811 0.959 . S
C805 H812 0.961 . S
C805 H813 0.960 . S
C806 C804 1.381 . S
C806 C807 1.394 . S
C806 H814 0.930 . S
C807 C806 1.394 . S
C807 C808 1.383 . S
C807 H815 0.929 . S
C808 C807 1.383 . S
C808 C809 1.377 . S
C809 H793 0.930 . S
C809 C808 1.377 . S
C809 C810 1.379 . S
C810 H794 0.931 . S
C810 C804 1.383 . S
C810 C809 1.379 . S
H811 C805 0.959 . S
H812 C805 0.961 . S
H813 C805 0.960 . S
H814 C806 0.930 . S
H815 C807 0.929 . S
H816 C824 0.929 . S
H817 C826 0.930 . S
H818 C828 0.930 . S
H819 C831 0.929 . S
H820 C834 0.930 . S
H821 C836 0.960 . S
H822 C836 0.960 . S
H823 C836 0.960 . S
C824 H816 0.929 . S
C824 C825 1.377 . S
C824 C826 1.384 . S
C825 C824 1.377 . S
C825 C831 1.390 . S
C826 H817 0.930 . S
C826 C824 1.384 . S
C826 C827 1.372 . S
C827 C826 1.372 . S
C827 C828 1.400 . S
C827 C832 1.490 . S
C828 H818 0.930 . S
C828 C827 1.400 . S
C828 C831 1.386 . S
H829 C845 0.930 . S
H830 C846 0.931 . S
C831 H819 0.929 . S
C831 C825 1.390 . S
C831 C828 1.386 . S
C832 C827 1.490 . S
C832 C834 1.395 . S
C832 C835 1.403 . S
H833 C839 0.930 . S
C834 H820 0.930 . S
C834 C832 1.395 . S
C834 C837 1.403 . S
C835 C832 1.403 . S
C835 C836 1.524 . S
C835 C839 1.400 . S
C836 H821 0.960 . S
C836 H822 0.960 . S
C836 H823 0.960 . S
C836 C835 1.524 . S
C837 C834 1.403 . S
C837 C838 1.392 . S
C837 C841 1.495 . S
C838 C837 1.392 . S
C838 C839 1.385 . S
C838 C840 1.478 . S
C839 H833 0.930 . S
C839 C835 1.400 . S
C839 C838 1.385 . S
C840 C838 1.478 . S
C840 C842 1.381 . S
C840 C846 1.383 . S
C841 C837 1.495 . S
C841 H847 0.959 . S
C841 H848 0.961 . S
C841 H849 0.960 . S
C842 C840 1.381 . S
C842 C843 1.394 . S
C842 H850 0.930 . S
C843 C842 1.394 . S
C843 C844 1.383 . S
C843 H851 0.929 . S
C844 C843 1.383 . S
C844 C845 1.377 . S
C845 H829 0.930 . S
C845 C844 1.377 . S
C845 C846 1.379 . S
C846 H830 0.931 . S
C846 C840 1.383 . S
C846 C845 1.379 . S
H847 C841 0.959 . S
H848 C841 0.961 . S
H849 C841 0.960 . S
H850 C842 0.930 . S
H851 C843 0.929 . S
H852 C860 0.929 . S
H853 C862 0.930 . S
H854 C864 0.930 . S
H855 C867 0.929 . S
H856 C870 0.930 . S
H857 C872 0.960 . S
H858 C872 0.960 . S
H859 C872 0.960 . S
C860 H852 0.929 . S
C860 C861 1.338 1_655 S
C860 C862 1.384 . S
C861 C860 1.338 1_455 S
C861 C867 1.402 . S
C862 H853 0.930 . S
C862 C860 1.384 . S
C862 C863 1.372 . S
C863 C862 1.372 . S
C863 C864 1.400 . S
C863 C868 1.490 . S
C864 H854 0.930 . S
C864 C863 1.400 . S
C864 C867 1.386 1_655 S
H865 C881 0.930 1_545 S
H866 C882 0.932 1_545 S
C867 H855 0.929 . S
C867 C861 1.402 . S
C867 C864 1.386 1_455 S
C868 C863 1.490 . S
C868 C870 1.395 . S
C868 C871 1.403 . S
H869 C875 0.930 . S
C870 H856 0.930 . S
C870 C868 1.395 . S
C870 C873 1.403 . S
C871 C868 1.403 . S
C871 C872 1.524 . S
C871 C875 1.400 . S
C872 H857 0.960 . S
C872 H858 0.960 . S
C872 H859 0.960 . S
C872 C871 1.524 . S
C873 C870 1.403 . S
C873 C874 1.392 . S
C873 C877 1.495 . S
C874 C873 1.392 . S
C874 C875 1.385 . S
C874 C876 1.478 . S
C875 H869 0.930 . S
C875 C871 1.400 . S
C875 C874 1.385 . S
C876 C874 1.478 . S
C876 C878 1.381 . S
C876 C882 1.383 . S
C877 C873 1.495 . S
C877 H883 0.960 . S
C877 H884 0.961 1_565 S
C877 H885 0.960 . S
C878 C876 1.381 . S
C878 C879 1.394 . S
C878 H886 0.930 . S
C879 C878 1.394 . S
C879 C880 1.383 . S
C879 H887 0.929 . S
C880 C879 1.383 . S
C880 C881 1.377 . S
C881 H865 0.930 1_565 S
C881 C880 1.377 . S
C881 C882 1.379 . S
C882 H866 0.932 1_565 S
C882 C876 1.383 . S
C882 C881 1.379 . S
H883 C877 0.960 . S
H884 C877 0.961 1_545 S
H885 C877 0.960 . S
H886 C878 0.930 . S
H887 C879 0.929 . S
H888 C896 0.929 . S
H889 C898 0.930 . S
H890 C900 0.930 . S
H891 C903 0.929 . S
H892 C906 0.930 . S
H893 C908 0.960 . S
H894 C908 0.960 . S
H895 C908 0.960 . S
C896 H888 0.929 . S
C896 C897 1.377 . S
C896 C898 1.384 . S
C897 C896 1.377 . S
C897 C903 1.390 . S
C898 H889 0.930 . S
C898 C896 1.384 . S
C898 C899 1.372 . S
C899 C898 1.372 . S
C899 C900 1.400 . S
C899 C904 1.490 . S
C900 H890 0.930 . S
C900 C899 1.400 . S
C900 C903 1.386 . S
H901 C917 0.930 . S
H902 C918 0.931 . S
C903 H891 0.929 . S
C903 C897 1.390 . S
C903 C900 1.386 . S
C904 C899 1.490 . S
C904 C906 1.395 . S
C904 C907 1.403 . S
H905 C911 0.930 . S
C906 H892 0.930 . S
C906 C904 1.395 . S
C906 C909 1.403 . S
C907 C904 1.403 . S
C907 C908 1.524 . S
C907 C911 1.400 . S
C908 H893 0.960 . S
C908 H894 0.960 . S
C908 H895 0.960 . S
C908 C907 1.524 . S
C909 C906 1.403 . S
C909 C910 1.392 . S
C909 C913 1.495 . S
C910 C909 1.392 . S
C910 C911 1.385 . S
C910 C912 1.478 . S
C911 H905 0.930 . S
C911 C907 1.400 . S
C911 C910 1.385 . S
C912 C910 1.478 . S
C912 C914 1.381 . S
C912 C918 1.383 . S
C913 C909 1.495 . S
C913 H919 0.959 . S
C913 H920 0.961 . S
C913 H921 0.960 . S
C914 C912 1.381 . S
C914 C915 1.394 . S
C914 H922 0.930 . S
C915 C914 1.394 . S
C915 C916 1.383 . S
C915 H923 0.929 . S
C916 C915 1.383 . S
C916 C917 1.377 . S
C917 H901 0.930 . S
C917 C916 1.377 . S
C917 C918 1.379 . S
C918 H902 0.931 . S
C918 C912 1.383 . S
C918 C917 1.379 . S
H919 C913 0.959 . S
H920 C913 0.961 . S
H921 C913 0.960 . S
H922 C914 0.930 . S
H923 C915 0.929 . S
H924 C932 0.929 . S
H925 C934 0.930 . S
H926 C936 0.930 . S
H927 C939 0.929 . S
H928 C942 0.930 . S
H929 C944 0.960 . S
H930 C944 0.960 . S
H931 C944 0.960 . S
C932 H924 0.929 . S
C932 C933 1.377 . S
C932 C934 1.384 . S
C933 C932 1.377 . S
C933 C939 1.390 . S
C934 H925 0.930 . S
C934 C932 1.384 . S
C934 C935 1.372 . S
C935 C934 1.372 . S
C935 C936 1.400 . S
C935 C940 1.490 . S
C936 H926 0.930 . S
C936 C935 1.400 . S
C936 C939 1.386 . S
H937 C953 0.930 . S
H938 C954 0.931 . S
C939 H927 0.929 . S
C939 C933 1.390 . S
C939 C936 1.386 . S
C940 C935 1.490 . S
C940 C942 1.395 . S
C940 C943 1.403 . S
H941 C947 0.930 . S
C942 H928 0.930 . S
C942 C940 1.395 . S
C942 C945 1.403 . S
C943 C940 1.403 . S
C943 C944 1.524 . S
C943 C947 1.400 . S
C944 H929 0.960 . S
C944 H930 0.960 . S
C944 H931 0.960 . S
C944 C943 1.524 . S
C945 C942 1.403 . S
C945 C946 1.392 . S
C945 C949 1.495 . S
C946 C945 1.392 . S
C946 C947 1.385 . S
C946 C948 1.478 . S
C947 H941 0.930 . S
C947 C943 1.400 . S
C947 C946 1.385 . S
C948 C946 1.478 . S
C948 C950 1.381 . S
C948 C954 1.383 . S
C949 C945 1.495 . S
C949 H955 0.959 . S
C949 H956 0.961 . S
C949 H957 0.960 . S
C950 C948 1.381 . S
C950 C951 1.394 . S
C950 H958 0.930 . S
C951 C950 1.394 . S
C951 C952 1.383 . S
C951 H959 0.929 . S
C952 C951 1.383 . S
C952 C953 1.377 . S
C953 H937 0.930 . S
C953 C952 1.377 . S
C953 C954 1.379 . S
C954 H938 0.931 . S
C954 C948 1.383 . S
C954 C953 1.379 . S
H955 C949 0.959 . S
H956 C949 0.961 . S
H957 C949 0.960 . S
H958 C950 0.930 . S
H959 C951 0.929 . S
H960 C968 0.929 . S
H961 C970 0.930 . S
H962 C972 0.930 . S
H963 C975 0.929 . S
H964 C978 0.930 . S
H965 C980 0.960 . S
H966 C980 0.960 . S
H967 C980 0.960 . S
C968 H960 0.929 . S
C968 C969 1.377 . S
C968 C970 1.384 . S
C969 C968 1.377 . S
C969 C975 1.390 . S
C970 H961 0.930 . S
C970 C968 1.384 . S
C970 C971 1.372 . S
C971 C970 1.372 . S
C971 C972 1.400 . S
C971 C976 1.490 . S
C972 H962 0.930 . S
C972 C971 1.400 . S
C972 C975 1.386 . S
H973 C989 0.930 . S
H974 C990 0.931 . S
C975 H963 0.929 . S
C975 C969 1.390 . S
C975 C972 1.386 . S
C976 C971 1.490 . S
C976 C978 1.395 . S
C976 C979 1.403 . S
H977 C983 0.930 . S
C978 H964 0.930 . S
C978 C976 1.395 . S
C978 C981 1.403 . S
C979 C976 1.403 . S
C979 C980 1.524 . S
C979 C983 1.400 . S
C980 H965 0.960 . S
C980 H966 0.960 . S
C980 H967 0.960 . S
C980 C979 1.524 . S
C981 C978 1.403 . S
C981 C982 1.392 . S
C981 C985 1.495 . S
C982 C981 1.392 . S
C982 C983 1.385 . S
C982 C984 1.478 . S
C983 H977 0.930 . S
C983 C979 1.400 . S
C983 C982 1.385 . S
C984 C982 1.478 . S
C984 C986 1.381 . S
C984 C990 1.383 . S
C985 C981 1.495 . S
C985 H991 0.959 . S
C985 H992 0.961 . S
C985 H993 0.960 . S
C986 C984 1.381 . S
C986 C987 1.394 . S
C986 H994 0.930 . S
C987 C986 1.394 . S
C987 C988 1.383 . S
C987 H995 0.929 . S
C988 C987 1.383 . S
C988 C989 1.377 . S
C989 H973 0.930 . S
C989 C988 1.377 . S
C989 C990 1.379 . S
C990 H974 0.931 . S
C990 C984 1.383 . S
C990 C989 1.379 . S
H991 C985 0.959 . S
H992 C985 0.961 . S
H993 C985 0.960 . S
H994 C986 0.930 . S
H995 C987 0.929 . S
H996 C1004 0.929 . S
H997 C1006 0.930 . S
H998 C1008 0.930 . S
H999 C1011 0.929 . S
H1000 C1014 0.930 . S
H1001 C1016 0.960 . S
H1002 C1016 0.960 . S
H1003 C1016 0.960 . S
C1004 H996 0.929 . S
C1004 C1005 1.377 . S
C1004 C1006 1.384 . S
C1005 C1004 1.377 . S
C1005 C1011 1.390 . S
C1006 H997 0.930 . S
C1006 C1004 1.384 . S
C1006 C1007 1.372 . S
C1007 C1006 1.372 . S
C1007 C1008 1.400 . S
C1007 C1012 1.490 . S
C1008 H998 0.930 . S
C1008 C1007 1.400 . S
C1008 C1011 1.386 . S
H1009 C1025 0.930 . S
H1010 C1026 0.931 . S
C1011 H999 0.929 . S
C1011 C1005 1.390 . S
C1011 C1008 1.386 . S
C1012 C1007 1.490 . S
C1012 C1014 1.395 . S
C1012 C1015 1.403 . S
H1013 C1019 0.930 . S
C1014 H1000 0.930 . S
C1014 C1012 1.395 . S
C1014 C1017 1.403 . S
C1015 C1012 1.403 . S
C1015 C1016 1.524 . S
C1015 C1019 1.400 . S
C1016 H1001 0.960 . S
C1016 H1002 0.960 . S
C1016 H1003 0.960 . S
C1016 C1015 1.524 . S
C1017 C1014 1.403 . S
C1017 C1018 1.392 . S
C1017 C1021 1.495 . S
C1018 C1017 1.392 . S
C1018 C1019 1.385 . S
C1018 C1020 1.478 . S
C1019 H1013 0.930 . S
C1019 C1015 1.400 . S
C1019 C1018 1.385 . S
C1020 C1018 1.478 . S
C1020 C1022 1.381 1_565 S
C1020 C1026 1.383 . S
C1021 C1017 1.495 . S
C1021 H1027 0.959 . S
C1021 H1028 0.961 . S
C1021 H1029 0.960 . S
C1022 C1020 1.381 1_545 S
C1022 C1023 1.394 . S
C1022 H1030 0.930 . S
C1023 C1022 1.394 . S
C1023 C1024 1.383 1_545 S
C1023 H1031 0.929 . S
C1024 C1023 1.383 1_565 S
C1024 C1025 1.377 . S
C1025 H1009 0.930 . S
C1025 C1024 1.377 . S
C1025 C1026 1.379 . S
C1026 H1010 0.931 . S
C1026 C1020 1.383 . S
C1026 C1025 1.379 . S
H1027 C1021 0.959 . S
H1028 C1021 0.961 . S
H1029 C1021 0.960 . S
H1030 C1022 0.930 . S
H1031 C1023 0.929 . S
H1032 C1040 0.929 . S
H1033 C1042 0.930 . S
H1034 C1044 0.930 . S
H1035 C1047 0.929 . S
H1036 C1050 0.930 . S
H1037 C1052 0.960 . S
H1038 C1052 0.960 . S
H1039 C1052 0.960 . S
C1040 H1032 0.929 . S
C1040 C1041 1.377 . S
C1040 C1042 1.384 . S
C1041 C1040 1.377 . S
C1041 C1047 1.390 . S
C1042 H1033 0.930 . S
C1042 C1040 1.384 . S
C1042 C1043 1.372 . S
C1043 C1042 1.372 . S
C1043 C1044 1.400 . S
C1043 C1048 1.490 . S
C1044 H1034 0.930 . S
C1044 C1043 1.400 . S
C1044 C1047 1.386 . S
H1045 C1061 0.930 . S
H1046 C1062 0.931 . S
C1047 H1035 0.929 . S
C1047 C1041 1.390 . S
C1047 C1044 1.386 . S
C1048 C1043 1.490 . S
C1048 C1050 1.395 . S
C1048 C1051 1.403 . S
H1049 C1055 0.930 . S
C1050 H1036 0.930 . S
C1050 C1048 1.395 . S
C1050 C1053 1.403 . S
C1051 C1048 1.403 . S
C1051 C1052 1.524 . S
C1051 C1055 1.400 . S
C1052 H1037 0.960 . S
C1052 H1038 0.960 . S
C1052 H1039 0.960 . S
C1052 C1051 1.524 . S
C1053 C1050 1.403 . S
C1053 C1054 1.392 . S
C1053 C1057 1.495 . S
C1054 C1053 1.392 . S
C1054 C1055 1.385 . S
C1054 C1056 1.478 . S
C1055 H1049 0.930 . S
C1055 C1051 1.400 . S
C1055 C1054 1.385 . S
C1056 C1054 1.478 . S
C1056 C1058 1.381 . S
C1056 C1062 1.383 . S
C1057 C1053 1.495 . S
C1057 H1063 0.959 . S
C1057 H1064 0.961 . S
C1057 H1065 0.960 . S
C1058 C1056 1.381 . S
C1058 C1059 1.394 . S
C1058 H1066 0.930 . S
C1059 C1058 1.394 . S
C1059 C1060 1.383 . S
C1059 H1067 0.929 . S
C1060 C1059 1.383 . S
C1060 C1061 1.377 . S
C1061 H1045 0.930 . S
C1061 C1060 1.377 . S
C1061 C1062 1.379 . S
C1062 H1046 0.931 . S
C1062 C1056 1.383 . S
C1062 C1061 1.379 . S
H1063 C1057 0.959 . S
H1064 C1057 0.961 . S
H1065 C1057 0.960 . S
H1066 C1058 0.930 . S
H1067 C1059 0.929 . S
H1068 C1076 0.929 . S
H1069 C1078 0.930 . S
H1070 C1080 0.930 . S
H1071 C1083 0.929 . S
H1072 C1086 0.930 . S
H1073 C1088 0.960 . S
H1074 C1088 0.960 . S
H1075 C1088 0.960 . S
C1076 H1068 0.929 . S
C1076 C1077 1.377 . S
C1076 C1078 1.384 . S
C1077 C1076 1.377 . S
C1077 C1083 1.390 . S
C1078 H1069 0.930 . S
C1078 C1076 1.384 . S
C1078 C1079 1.372 . S
C1079 C1078 1.372 . S
C1079 C1080 1.400 . S
C1079 C1084 1.490 . S
C1080 H1070 0.930 . S
C1080 C1079 1.400 . S
C1080 C1083 1.386 . S
H1081 C1097 0.930 . S
H1082 C1098 0.931 . S
C1083 H1071 0.929 . S
C1083 C1077 1.390 . S
C1083 C1080 1.386 . S
C1084 C1079 1.490 . S
C1084 C1086 1.395 . S
C1084 C1087 1.403 . S
H1085 C1091 0.930 . S
C1086 H1072 0.930 . S
C1086 C1084 1.395 . S
C1086 C1089 1.403 . S
C1087 C1084 1.403 . S
C1087 C1088 1.524 . S
C1087 C1091 1.400 . S
C1088 H1073 0.960 . S
C1088 H1074 0.960 . S
C1088 H1075 0.960 . S
C1088 C1087 1.524 . S
C1089 C1086 1.403 . S
C1089 C1090 1.392 . S
C1089 C1093 1.495 . S
C1090 C1089 1.392 . S
C1090 C1091 1.385 . S
C1090 C1092 1.478 . S
C1091 H1085 0.930 . S
C1091 C1087 1.400 . S
C1091 C1090 1.385 . S
C1092 C1090 1.478 . S
C1092 C1094 1.381 . S
C1092 C1098 1.383 . S
C1093 C1089 1.495 . S
C1093 H1099 0.959 . S
C1093 H1100 0.961 . S
C1093 H1101 0.960 . S
C1094 C1092 1.381 . S
C1094 C1095 1.394 . S
C1094 H1102 0.930 . S
C1095 C1094 1.394 . S
C1095 C1096 1.383 . S
C1095 H1103 0.929 . S
C1096 C1095 1.383 . S
C1096 C1097 1.377 . S
C1097 H1081 0.930 . S
C1097 C1096 1.377 . S
C1097 C1098 1.379 . S
C1098 H1082 0.931 . S
C1098 C1092 1.383 . S
C1098 C1097 1.379 . S
H1099 C1093 0.959 . S
H1100 C1093 0.961 . S
H1101 C1093 0.960 . S
H1102 C1094 0.930 . S
H1103 C1095 0.929 . S
H1104 C1112 0.929 . S
H1105 C1114 0.930 . S
H1106 C1116 0.930 . S
H1107 C1119 0.929 . S
H1108 C1122 0.930 . S
H1109 C1124 0.960 . S
H1110 C1124 0.960 . S
H1111 C1124 0.960 . S
C1112 H1104 0.929 . S
C1112 C1113 1.377 . S
C1112 C1114 1.384 . S
C1113 C1112 1.377 . S
C1113 C1119 1.390 . S
C1114 H1105 0.930 . S
C1114 C1112 1.384 . S
C1114 C1115 1.372 . S
C1115 C1114 1.372 . S
C1115 C1116 1.400 . S
C1115 C1120 1.490 . S
C1116 H1106 0.930 . S
C1116 C1115 1.400 . S
C1116 C1119 1.386 . S
H1117 C1133 0.930 . S
H1118 C1134 0.931 . S
C1119 H1107 0.929 . S
C1119 C1113 1.390 . S
C1119 C1116 1.386 . S
C1120 C1115 1.490 . S
C1120 C1122 1.395 . S
C1120 C1123 1.403 . S
H1121 C1127 0.930 . S
C1122 H1108 0.930 . S
C1122 C1120 1.395 . S
C1122 C1125 1.403 . S
C1123 C1120 1.403 . S
C1123 C1124 1.524 . S
C1123 C1127 1.400 . S
C1124 H1109 0.960 . S
C1124 H1110 0.960 . S
C1124 H1111 0.960 . S
C1124 C1123 1.524 . S
C1125 C1122 1.403 . S
C1125 C1126 1.392 . S
C1125 C1129 1.495 . S
C1126 C1125 1.392 . S
C1126 C1127 1.385 . S
C1126 C1128 1.478 . S
C1127 H1121 0.930 . S
C1127 C1123 1.400 . S
C1127 C1126 1.385 . S
C1128 C1126 1.478 . S
C1128 C1130 1.381 . S
C1128 C1134 1.383 . S
C1129 C1125 1.495 . S
C1129 H1135 0.959 . S
C1129 H1136 0.961 . S
C1129 H1137 0.960 . S
C1130 C1128 1.381 . S
C1130 C1131 1.394 . S
C1130 H1138 0.930 . S
C1131 C1130 1.394 . S
C1131 C1132 1.383 . S
C1131 H1139 0.929 . S
C1132 C1131 1.383 . S
C1132 C1133 1.377 . S
C1133 H1117 0.930 . S
C1133 C1132 1.377 . S
C1133 C1134 1.379 . S
C1134 H1118 0.931 . S
C1134 C1128 1.383 . S
C1134 C1133 1.379 . S
H1135 C1129 0.959 . S
H1136 C1129 0.961 . S
H1137 C1129 0.960 . S
H1138 C1130 0.930 . S
H1139 C1131 0.929 . S
H1140 C1148 0.929 . S
H1141 C1150 0.930 . S
H1142 C1152 0.930 . S
H1143 C1155 0.929 . S
H1144 C1158 0.930 . S
H1145 C1160 0.960 . S
H1146 C1160 0.960 . S
H1147 C1160 0.960 . S
C1148 H1140 0.929 . S
C1148 C1149 1.377 . S
C1148 C1150 1.384 . S
C1149 C1148 1.377 . S
C1149 C1155 1.390 . S
C1150 H1141 0.930 . S
C1150 C1148 1.384 . S
C1150 C1151 1.372 . S
C1151 C1150 1.372 . S
C1151 C1152 1.400 . S
C1151 C1156 1.490 . S
C1152 H1142 0.930 . S
C1152 C1151 1.400 . S
C1152 C1155 1.386 . S
H1153 C1169 0.930 . S
H1154 C1170 0.931 . S
C1155 H1143 0.929 . S
C1155 C1149 1.390 . S
C1155 C1152 1.386 . S
C1156 C1151 1.490 . S
C1156 C1158 1.395 . S
C1156 C1159 1.403 . S
H1157 C1163 0.930 . S
C1158 H1144 0.930 . S
C1158 C1156 1.395 . S
C1158 C1161 1.403 . S
C1159 C1156 1.403 . S
C1159 C1160 1.524 . S
C1159 C1163 1.400 . S
C1160 H1145 0.960 . S
C1160 H1146 0.960 . S
C1160 H1147 0.960 . S
C1160 C1159 1.524 . S
C1161 C1158 1.403 . S
C1161 C1162 1.392 . S
C1161 C1165 1.495 . S
C1162 C1161 1.392 . S
C1162 C1163 1.385 . S
C1162 C1164 1.478 . S
C1163 H1157 0.930 . S
C1163 C1159 1.400 . S
C1163 C1162 1.385 . S
C1164 C1162 1.478 . S
C1164 C1166 1.381 . S
C1164 C1170 1.383 . S
C1165 C1161 1.495 . S
C1165 H1171 0.959 . S
C1165 H1172 0.961 . S
C1165 H1173 0.960 . S
C1166 C1164 1.381 . S
C1166 C1167 1.394 . S
C1166 H1174 0.930 . S
C1167 C1166 1.394 . S
C1167 C1168 1.383 . S
C1167 H1175 0.929 . S
C1168 C1167 1.383 . S
C1168 C1169 1.377 . S
C1169 H1153 0.930 . S
C1169 C1168 1.377 . S
C1169 C1170 1.379 . S
C1170 H1154 0.931 . S
C1170 C1164 1.383 . S
C1170 C1169 1.379 . S
H1171 C1165 0.959 . S
H1172 C1165 0.961 . S
H1173 C1165 0.960 . S
H1174 C1166 0.930 . S
H1175 C1167 0.929 . S
H1176 C1184 0.929 . S
H1177 C1186 0.930 . S
H1178 C1188 0.930 . S
H1179 C1191 0.929 . S
H1180 C1194 0.930 . S
H1181 C1196 0.960 . S
H1182 C1196 0.960 . S
H1183 C1196 0.960 . S
C1184 H1176 0.929 . S
C1184 C1185 1.377 . S
C1184 C1186 1.384 . S
C1185 C1184 1.377 . S
C1185 C1191 1.390 . S
C1186 H1177 0.930 . S
C1186 C1184 1.384 . S
C1186 C1187 1.372 . S
C1187 C1186 1.372 . S
C1187 C1188 1.400 . S
C1187 C1192 1.490 . S
C1188 H1178 0.930 . S
C1188 C1187 1.400 . S
C1188 C1191 1.386 . S
H1189 C1205 0.930 . S
H1190 C1206 0.931 . S
C1191 H1179 0.929 . S
C1191 C1185 1.390 . S
C1191 C1188 1.386 . S
C1192 C1187 1.490 . S
C1192 C1194 1.395 . S
C1192 C1195 1.403 . S
H1193 C1199 0.930 . S
C1194 H1180 0.930 . S
C1194 C1192 1.395 . S
C1194 C1197 1.403 . S
C1195 C1192 1.403 . S
C1195 C1196 1.524 . S
C1195 C1199 1.400 . S
C1196 H1181 0.960 . S
C1196 H1182 0.960 . S
C1196 H1183 0.960 . S
C1196 C1195 1.524 . S
C1197 C1194 1.403 . S
C1197 C1198 1.392 . S
C1197 C1201 1.495 . S
C1198 C1197 1.392 . S
C1198 C1199 1.385 . S
C1198 C1200 1.478 . S
C1199 H1193 0.930 . S
C1199 C1195 1.400 . S
C1199 C1198 1.385 . S
C1200 C1198 1.478 . S
C1200 C1202 1.381 . S
C1200 C1206 1.383 . S
C1201 C1197 1.495 . S
C1201 H1207 0.959 . S
C1201 H1208 0.961 . S
C1201 H1209 0.960 . S
C1202 C1200 1.381 . S
C1202 C1203 1.394 . S
C1202 H1210 0.930 . S
C1203 C1202 1.394 . S
C1203 C1204 1.383 . S
C1203 H1211 0.929 . S
C1204 C1203 1.383 . S
C1204 C1205 1.377 . S
C1205 H1189 0.930 . S
C1205 C1204 1.377 . S
C1205 C1206 1.379 . S
C1206 H1190 0.931 . S
C1206 C1200 1.383 . S
C1206 C1205 1.379 . S
H1207 C1201 0.959 . S
H1208 C1201 0.961 . S
H1209 C1201 0.960 . S
H1210 C1202 0.930 . S
H1211 C1203 0.929 . S
H1212 C1220 0.929 . S
H1213 C1222 0.930 . S
H1214 C1224 0.930 . S
H1215 C1227 0.929 . S
H1216 C1230 0.930 . S
H1217 C1232 0.960 . S
H1218 C1232 0.960 . S
H1219 C1232 0.960 . S
C1220 H1212 0.929 . S
C1220 C1221 1.377 . S
C1220 C1222 1.384 . S
C1221 C1220 1.377 . S
C1221 C1227 1.390 . S
C1222 H1213 0.930 . S
C1222 C1220 1.384 . S
C1222 C1223 1.372 . S
C1223 C1222 1.372 . S
C1223 C1224 1.400 . S
C1223 C1228 1.490 . S
C1224 H1214 0.930 . S
C1224 C1223 1.400 . S
C1224 C1227 1.386 . S
H1225 C1241 0.930 1_655 S
H1226 C1242 0.931 . S
C1227 H1215 0.929 . S
C1227 C1221 1.390 . S
C1227 C1224 1.386 . S
C1228 C1223 1.490 . S
C1228 C1230 1.395 . S
C1228 C1231 1.403 . S
H1229 C1235 0.930 . S
C1230 H1216 0.930 . S
C1230 C1228 1.395 . S
C1230 C1233 1.403 . S
C1231 C1228 1.403 . S
C1231 C1232 1.524 . S
C1231 C1235 1.400 . S
C1232 H1217 0.960 . S
C1232 H1218 0.960 . S
C1232 H1219 0.960 . S
C1232 C1231 1.524 . S
C1233 C1230 1.403 . S
C1233 C1234 1.392 . S
C1233 C1237 1.495 . S
C1234 C1233 1.392 . S
C1234 C1235 1.385 . S
C1234 C1236 1.478 . S
C1235 H1229 0.930 . S
C1235 C1231 1.400 . S
C1235 C1234 1.385 . S
C1236 C1234 1.478 . S
C1236 C1238 1.381 . S
C1236 C1242 1.383 . S
C1237 C1233 1.495 . S
C1237 H1243 0.959 . S
C1237 H1244 0.961 . S
C1237 H1245 0.960 . S
C1238 C1236 1.381 . S
C1238 C1239 1.394 . S
C1238 H1246 0.930 . S
C1239 C1238 1.394 . S
C1239 C1240 1.383 . S
C1239 H1247 0.929 . S
C1240 C1239 1.383 . S
C1240 C1241 1.377 . S
C1241 H1225 0.930 1_455 S
C1241 C1240 1.377 . S
C1241 C1242 1.379 . S
C1242 H1226 0.931 . S
C1242 C1236 1.383 . S
C1242 C1241 1.379 . S
H1243 C1237 0.959 . S
H1244 C1237 0.961 . S
H1245 C1237 0.960 . S
H1246 C1238 0.930 . S
H1247 C1239 0.929 . S
H1248 C1256 0.929 . S
H1249 C1258 0.930 . S
H1250 C1260 0.930 . S
H1251 C1263 0.929 . S
H1252 C1266 0.930 . S
H1253 C1268 0.960 . S
H1254 C1268 0.960 . S
H1255 C1268 0.960 . S
C1256 H1248 0.929 . S
C1256 C1257 1.377 . S
C1256 C1258 1.384 . S
C1257 C1256 1.377 . S
C1257 C1263 1.390 . S
C1258 H1249 0.930 . S
C1258 C1256 1.384 . S
C1258 C1259 1.372 . S
C1259 C1258 1.372 . S
C1259 C1260 1.400 . S
C1259 C1264 1.490 . S
C1260 H1250 0.930 . S
C1260 C1259 1.400 . S
C1260 C1263 1.386 . S
H1261 C1277 0.930 . S
H1262 C1278 0.931 . S
C1263 H1251 0.929 . S
C1263 C1257 1.390 . S
C1263 C1260 1.386 . S
C1264 C1259 1.490 . S
C1264 C1266 1.395 . S
C1264 C1267 1.403 . S
H1265 C1271 0.930 . S
C1266 H1252 0.930 . S
C1266 C1264 1.395 . S
C1266 C1269 1.403 . S
C1267 C1264 1.403 . S
C1267 C1268 1.524 . S
C1267 C1271 1.400 . S
C1268 H1253 0.960 . S
C1268 H1254 0.960 . S
C1268 H1255 0.960 . S
C1268 C1267 1.524 . S
C1269 C1266 1.403 . S
C1269 C1270 1.392 . S
C1269 C1273 1.495 . S
C1270 C1269 1.392 . S
C1270 C1271 1.385 . S
C1270 C1272 1.478 . S
C1271 H1265 0.930 . S
C1271 C1267 1.400 . S
C1271 C1270 1.385 . S
C1272 C1270 1.478 . S
C1272 C1274 1.381 . S
C1272 C1278 1.383 . S
C1273 C1269 1.495 . S
C1273 H1279 0.959 . S
C1273 H1280 0.961 . S
C1273 H1281 0.960 . S
C1274 C1272 1.381 . S
C1274 C1275 1.394 . S
C1274 H1282 0.930 . S
C1275 C1274 1.394 . S
C1275 C1276 1.383 . S
C1275 H1283 0.929 . S
C1276 C1275 1.383 . S
C1276 C1277 1.377 . S
C1277 H1261 0.930 . S
C1277 C1276 1.377 . S
C1277 C1278 1.379 . S
C1278 H1262 0.931 . S
C1278 C1272 1.383 . S
C1278 C1277 1.379 . S
H1279 C1273 0.959 . S
H1280 C1273 0.961 . S
H1281 C1273 0.960 . S
H1282 C1274 0.930 . S
H1283 C1275 0.929 . S
H1284 C1292 0.929 . S
H1285 C1294 0.930 . S
H1286 C1296 0.930 . S
H1287 C1299 0.929 . S
H1288 C1302 0.930 1_455 S
H1289 C1304 0.960 . S
H1290 C1304 0.960 . S
H1291 C1304 0.960 . S
C1292 H1284 0.929 . S
C1292 C1293 1.377 . S
C1292 C1294 1.384 . S
C1293 C1292 1.377 . S
C1293 C1299 1.390 . S
C1294 H1285 0.930 . S
C1294 C1292 1.384 . S
C1294 C1295 1.372 . S
C1295 C1294 1.372 . S
C1295 C1296 1.400 . S
C1295 C1300 1.490 . S
C1296 H1286 0.930 . S
C1296 C1295 1.400 . S
C1296 C1299 1.386 . S
H1297 C1313 0.930 . S
H1298 C1314 0.931 . S
C1299 H1287 0.929 . S
C1299 C1293 1.390 . S
C1299 C1296 1.386 . S
C1300 C1295 1.490 . S
C1300 C1302 1.395 . S
C1300 C1303 1.403 . S
H1301 C1307 0.930 . S
C1302 H1288 0.930 1_655 S
C1302 C1300 1.395 . S
C1302 C1305 1.393 1_655 S
C1303 C1300 1.403 . S
C1303 C1304 1.524 . S
C1303 C1307 1.400 . S
C1304 H1289 0.960 . S
C1304 H1290 0.960 . S
C1304 H1291 0.960 . S
C1304 C1303 1.524 . S
C1305 C1302 1.393 1_455 S
C1305 C1306 1.360 1_455 S
C1305 C1309 1.539 . S
C1306 C1305 1.360 1_655 S
C1306 C1307 1.385 . S
C1306 C1308 1.478 . S
C1307 H1301 0.930 . S
C1307 C1303 1.400 . S
C1307 C1306 1.385 . S
C1308 C1306 1.478 . S
C1308 C1310 1.381 . S
C1308 C1314 1.383 . S
C1309 C1305 1.539 . S
C1309 H1315 0.959 . S
C1309 H1316 0.961 . S
C1309 H1317 0.960 . S
C1310 C1308 1.381 . S
C1310 C1311 1.394 . S
C1310 H1318 0.930 . S
C1311 C1310 1.394 . S
C1311 C1312 1.383 . S
C1311 H1319 0.929 . S
C1312 C1311 1.383 . S
C1312 C1313 1.377 . S
C1313 H1297 0.930 . S
C1313 C1312 1.377 . S
C1313 C1314 1.379 . S
C1314 H1298 0.931 . S
C1314 C1308 1.383 . S
C1314 C1313 1.379 . S
H1315 C1309 0.959 . S
H1316 C1309 0.961 . S
H1317 C1309 0.960 . S
H1318 C1310 0.930 . S
H1319 C1311 0.929 . S
H1320 C1328 0.929 . S
H1321 C1330 0.930 . S
H1322 C1332 0.930 . S
H1323 C1335 0.929 . S
H1324 C1338 0.930 . S
H1325 C1340 0.960 . S
H1326 C1340 0.960 . S
H1327 C1340 0.960 . S
C1328 H1320 0.929 . S
C1328 C1329 1.377 . S
C1328 C1330 1.384 . S
C1329 C1328 1.377 . S
C1329 C1335 1.390 . S
C1330 H1321 0.930 . S
C1330 C1328 1.384 . S
C1330 C1331 1.372 . S
C1331 C1330 1.372 . S
C1331 C1332 1.400 . S
C1331 C1336 1.490 . S
C1332 H1322 0.930 . S
C1332 C1331 1.400 . S
C1332 C1335 1.386 . S
H1333 C1349 0.930 . S
H1334 C1350 0.931 . S
C1335 H1323 0.929 . S
C1335 C1329 1.390 . S
C1335 C1332 1.386 . S
C1336 C1331 1.490 . S
C1336 C1338 1.395 . S
C1336 C1339 1.403 . S
H1337 C1343 0.930 . S
C1338 H1324 0.930 . S
C1338 C1336 1.395 . S
C1338 C1341 1.403 . S
C1339 C1336 1.403 . S
C1339 C1340 1.524 . S
C1339 C1343 1.400 . S
C1340 H1325 0.960 . S
C1340 H1326 0.960 . S
C1340 H1327 0.960 . S
C1340 C1339 1.524 . S
C1341 C1338 1.403 . S
C1341 C1342 1.392 . S
C1341 C1345 1.495 . S
C1342 C1341 1.392 . S
C1342 C1343 1.385 . S
C1342 C1344 1.478 . S
C1343 H1337 0.930 . S
C1343 C1339 1.400 . S
C1343 C1342 1.385 . S
C1344 C1342 1.478 . S
C1344 C1346 1.381 . S
C1344 C1350 1.383 . S
C1345 C1341 1.495 . S
C1345 H1351 0.959 . S
C1345 H1352 0.961 . S
C1345 H1353 0.960 . S
C1346 C1344 1.381 . S
C1346 C1347 1.394 . S
C1346 H1354 0.930 . S
C1347 C1346 1.394 . S
C1347 C1348 1.383 . S
C1347 H1355 0.929 . S
C1348 C1347 1.383 . S
C1348 C1349 1.377 . S
C1349 H1333 0.930 . S
C1349 C1348 1.377 . S
C1349 C1350 1.379 . S
C1350 H1334 0.931 . S
C1350 C1344 1.383 . S
C1350 C1349 1.379 . S
H1351 C1345 0.959 . S
H1352 C1345 0.961 . S
H1353 C1345 0.960 . S
H1354 C1346 0.930 . S
H1355 C1347 0.929 . S
H1356 C1364 0.929 . S
H1357 C1366 0.930 . S
H1358 C1368 0.930 . S
H1359 C1371 0.929 . S
H1360 C1374 0.930 . S
H1361 C1376 0.960 . S
H1362 C1376 0.960 . S
H1363 C1376 0.960 . S
C1364 H1356 0.929 . S
C1364 C1365 1.377 . S
C1364 C1366 1.384 . S
C1365 C1364 1.377 . S
C1365 C1371 1.390 . S
C1366 H1357 0.930 . S
C1366 C1364 1.384 . S
C1366 C1367 1.372 . S
C1367 C1366 1.372 . S
C1367 C1368 1.400 . S
C1367 C1372 1.490 . S
C1368 H1358 0.930 . S
C1368 C1367 1.400 . S
C1368 C1371 1.386 . S
H1369 C1385 0.930 . S
H1370 C1386 0.931 . S
C1371 H1359 0.929 . S
C1371 C1365 1.390 . S
C1371 C1368 1.386 . S
C1372 C1367 1.490 . S
C1372 C1374 1.395 . S
C1372 C1375 1.403 . S
H1373 C1379 0.930 . S
C1374 H1360 0.930 . S
C1374 C1372 1.395 . S
C1374 C1377 1.403 . S
C1375 C1372 1.403 . S
C1375 C1376 1.524 . S
C1375 C1379 1.400 . S
C1376 H1361 0.960 . S
C1376 H1362 0.960 . S
C1376 H1363 0.960 . S
C1376 C1375 1.524 . S
C1377 C1374 1.403 . S
C1377 C1378 1.392 . S
C1377 C1381 1.495 . S
C1378 C1377 1.392 . S
C1378 C1379 1.385 . S
C1378 C1380 1.478 . S
C1379 H1373 0.930 . S
C1379 C1375 1.400 . S
C1379 C1378 1.385 . S
C1380 C1378 1.478 . S
C1380 C1382 1.381 . S
C1380 C1386 1.383 . S
C1381 C1377 1.495 . S
C1381 H1387 0.959 . S
C1381 H1388 0.961 . S
C1381 H1389 0.960 . S
C1382 C1380 1.381 . S
C1382 C1383 1.394 . S
C1382 H1390 0.930 . S
C1383 C1382 1.394 . S
C1383 C1384 1.383 . S
C1383 H1391 0.929 . S
C1384 C1383 1.383 . S
C1384 C1385 1.377 . S
C1385 H1369 0.930 . S
C1385 C1384 1.377 . S
C1385 C1386 1.379 . S
C1386 H1370 0.931 . S
C1386 C1380 1.383 . S
C1386 C1385 1.379 . S
H1387 C1381 0.959 . S
H1388 C1381 0.961 . S
H1389 C1381 0.960 . S
H1390 C1382 0.930 . S
H1391 C1383 0.929 . S
H1392 C1400 0.908 1_545 S
H1393 C1402 0.930 . S
H1394 C1404 0.930 . S
H1395 C1407 0.929 . S
H1396 C1410 0.930 . S
H1397 C1412 0.960 . S
H1398 C1412 0.960 . S
H1399 C1412 0.960 . S
C1400 H1392 0.908 1_565 S
C1400 C1401 1.375 1_565 S
C1400 C1402 1.408 . S
C1401 C1400 1.375 1_545 S
C1401 C1407 1.379 1_545 S
C1402 H1393 0.930 . S
C1402 C1400 1.408 . S
C1402 C1403 1.372 . S
C1403 C1402 1.372 . S
C1403 C1404 1.400 . S
C1403 C1408 1.490 . S
C1404 H1394 0.930 . S
C1404 C1403 1.400 . S
C1404 C1407 1.386 . S
H1405 C1421 0.930 . S
H1406 C1422 0.931 . S
C1407 H1395 0.929 . S
C1407 C1401 1.379 1_565 S
C1407 C1404 1.386 . S
C1408 C1403 1.490 . S
C1408 C1410 1.395 . S
C1408 C1411 1.403 . S
H1409 C1415 0.930 . S
C1410 H1396 0.930 . S
C1410 C1408 1.395 . S
C1410 C1413 1.403 . S
C1411 C1408 1.403 . S
C1411 C1412 1.524 . S
C1411 C1415 1.400 . S
C1412 H1397 0.960 . S
C1412 H1398 0.960 . S
C1412 H1399 0.960 . S
C1412 C1411 1.524 . S
C1413 C1410 1.403 . S
C1413 C1414 1.392 . S
C1413 C1417 1.495 . S
C1414 C1413 1.392 . S
C1414 C1415 1.385 . S
C1414 C1416 1.478 . S
C1415 H1409 0.930 . S
C1415 C1411 1.400 . S
C1415 C1414 1.385 . S
C1416 C1414 1.478 . S
C1416 C1418 1.381 1_556 S
C1416 C1422 1.383 . S
C1417 C1413 1.495 . S
C1417 H1423 0.959 . S
C1417 H1424 0.961 . S
C1417 H1425 0.906 1_556 S
C1418 C1416 1.381 1_554 S
C1418 C1419 1.394 . S
C1418 H1426 0.930 . S
C1419 C1418 1.394 . S
C1419 C1420 1.383 1_554 S
C1419 H1427 0.929 . S
C1420 C1419 1.383 1_556 S
C1420 C1421 1.377 . S
C1421 H1405 0.930 . S
C1421 C1420 1.377 . S
C1421 C1422 1.379 . S
C1422 H1406 0.931 . S
C1422 C1416 1.383 . S
C1422 C1421 1.379 . S
H1423 C1417 0.959 . S
H1424 C1417 0.961 . S
H1425 C1417 0.906 1_554 S
H1426 C1418 0.930 . S
H1427 C1419 0.929 . S
H1428 C1436 0.929 . S
H1429 C1438 0.930 . S
H1430 C1440 0.930 . S
H1431 C1443 0.929 . S
H1432 C1446 0.930 . S
H1433 C1448 0.960 . S
H1434 C1448 0.960 . S
H1435 C1448 0.960 . S
C1436 H1428 0.929 . S
C1436 C1437 1.377 . S
C1436 C1438 1.384 . S
C1437 C1436 1.377 . S
C1437 C1443 1.390 . S
C1438 H1429 0.930 . S
C1438 C1436 1.384 . S
C1438 C1439 1.372 . S
C1439 C1438 1.372 . S
C1439 C1440 1.400 . S
C1439 C1444 1.490 . S
C1440 H1430 0.930 . S
C1440 C1439 1.400 . S
C1440 C1443 1.386 . S
H1441 C1457 0.930 . S
H1442 C1458 0.931 . S
C1443 H1431 0.929 . S
C1443 C1437 1.390 . S
C1443 C1440 1.386 . S
C1444 C1439 1.490 . S
C1444 C1446 1.395 . S
C1444 C1447 1.403 . S
H1445 C1451 0.930 . S
C1446 H1432 0.930 . S
C1446 C1444 1.395 . S
C1446 C1449 1.403 . S
C1447 C1444 1.403 . S
C1447 C1448 1.524 . S
C1447 C1451 1.400 . S
C1448 H1433 0.960 . S
C1448 H1434 0.960 . S
C1448 H1435 0.960 . S
C1448 C1447 1.524 . S
C1449 C1446 1.403 . S
C1449 C1450 1.392 . S
C1449 C1453 1.495 . S
C1450 C1449 1.392 . S
C1450 C1451 1.385 . S
C1450 C1452 1.478 . S
C1451 H1445 0.930 . S
C1451 C1447 1.400 . S
C1451 C1450 1.385 . S
C1452 C1450 1.478 . S
C1452 C1454 1.381 . S
C1452 C1458 1.383 . S
C1453 C1449 1.495 . S
C1453 H1459 0.959 . S
C1453 H1460 0.961 . S
C1453 H1461 0.960 . S
C1454 C1452 1.381 . S
C1454 C1455 1.394 . S
C1454 H1462 0.930 . S
C1455 C1454 1.394 . S
C1455 C1456 1.383 . S
C1455 H1463 0.929 . S
C1456 C1455 1.383 . S
C1456 C1457 1.377 . S
C1457 H1441 0.930 . S
C1457 C1456 1.377 . S
C1457 C1458 1.379 . S
C1458 H1442 0.931 . S
C1458 C1452 1.383 . S
C1458 C1457 1.379 . S
H1459 C1453 0.959 . S
H1460 C1453 0.961 . S
H1461 C1453 0.960 . S
H1462 C1454 0.930 . S
H1463 C1455 0.929 . S
H1464 C1472 0.929 1_565 S
H1465 C1474 0.930 . S
H1466 C1476 0.930 . S
H1467 C1479 0.929 . S
H1468 C1482 0.930 . S
H1469 C1484 0.960 . S
H1470 C1484 0.960 . S
H1471 C1484 0.960 . S
C1472 H1464 0.929 1_545 S
C1472 C1473 1.377 . S
C1472 C1474 1.384 . S
C1473 C1472 1.377 . S
C1473 C1479 1.390 . S
C1474 H1465 0.930 . S
C1474 C1472 1.384 . S
C1474 C1475 1.372 . S
C1475 C1474 1.372 . S
C1475 C1476 1.400 . S
C1475 C1480 1.490 . S
C1476 H1466 0.930 . S
C1476 C1475 1.400 . S
C1476 C1479 1.386 . S
H1477 C1493 0.930 . S
H1478 C1494 0.931 . S
C1479 H1467 0.929 . S
C1479 C1473 1.390 . S
C1479 C1476 1.386 . S
C1480 C1475 1.490 . S
C1480 C1482 1.395 . S
C1480 C1483 1.403 . S
H1481 C1487 0.930 . S
C1482 H1468 0.930 . S
C1482 C1480 1.395 . S
C1482 C1485 1.403 . S
C1483 C1480 1.403 . S
C1483 C1484 1.524 . S
C1483 C1487 1.400 . S
C1484 H1469 0.960 . S
C1484 H1470 0.960 . S
C1484 H1471 0.960 . S
C1484 C1483 1.524 . S
C1485 C1482 1.403 . S
C1485 C1486 1.392 . S
C1485 C1489 1.495 . S
C1486 C1485 1.392 . S
C1486 C1487 1.385 . S
C1486 C1488 1.478 . S
C1487 H1481 0.930 . S
C1487 C1483 1.400 . S
C1487 C1486 1.385 . S
C1488 C1486 1.478 . S
C1488 C1490 1.381 . S
C1488 C1494 1.383 . S
C1489 C1485 1.495 . S
C1489 H1495 0.959 . S
C1489 H1496 0.961 . S
C1489 H1497 0.960 . S
C1490 C1488 1.381 . S
C1490 C1491 1.394 . S
C1490 H1498 0.930 . S
C1491 C1490 1.394 . S
C1491 C1492 1.383 . S
C1491 H1499 0.929 . S
C1492 C1491 1.383 . S
C1492 C1493 1.377 . S
C1493 H1477 0.930 . S
C1493 C1492 1.377 . S
C1493 C1494 1.379 . S
C1494 H1478 0.931 . S
C1494 C1488 1.383 . S
C1494 C1493 1.379 . S
H1495 C1489 0.959 . S
H1496 C1489 0.961 . S
H1497 C1489 0.960 . S
H1498 C1490 0.930 . S
H1499 C1491 0.929 . S
H1500 C1508 0.929 . S
H1501 C1510 0.930 . S
H1502 C1512 0.930 . S
H1503 C1515 0.929 . S
H1504 C1518 0.930 . S
H1505 C1520 0.960 . S
H1506 C1520 0.960 . S
H1507 C1520 0.960 . S
C1508 H1500 0.929 . S
C1508 C1509 1.377 . S
C1508 C1510 1.384 . S
C1509 C1508 1.377 . S
C1509 C1515 1.390 . S
C1510 H1501 0.930 . S
C1510 C1508 1.384 . S
C1510 C1511 1.372 . S
C1511 C1510 1.372 . S
C1511 C1512 1.400 . S
C1511 C1516 1.490 . S
C1512 H1502 0.930 . S
C1512 C1511 1.400 . S
C1512 C1515 1.386 . S
H1513 C1529 0.930 . S
H1514 C1530 0.931 . S
C1515 H1503 0.929 . S
C1515 C1509 1.390 . S
C1515 C1512 1.386 . S
C1516 C1511 1.490 . S
C1516 C1518 1.395 . S
C1516 C1519 1.403 . S
H1517 C1523 0.930 . S
C1518 H1504 0.930 . S
C1518 C1516 1.395 . S
C1518 C1521 1.403 . S
C1519 C1516 1.403 . S
C1519 C1520 1.524 . S
C1519 C1523 1.400 . S
C1520 H1505 0.960 . S
C1520 H1506 0.960 . S
C1520 H1507 0.960 . S
C1520 C1519 1.524 . S
C1521 C1518 1.403 . S
C1521 C1522 1.392 . S
C1521 C1525 1.495 . S
C1522 C1521 1.392 . S
C1522 C1523 1.385 . S
C1522 C1524 1.478 . S
C1523 H1517 0.930 . S
C1523 C1519 1.400 . S
C1523 C1522 1.385 . S
C1524 C1522 1.478 . S
C1524 C1526 1.381 . S
C1524 C1530 1.383 . S
C1525 C1521 1.495 . S
C1525 H1531 0.959 . S
C1525 H1532 0.961 . S
C1525 H1533 0.960 . S
C1526 C1524 1.381 . S
C1526 C1527 1.394 . S
C1526 H1534 0.930 . S
C1527 C1526 1.394 . S
C1527 C1528 1.383 . S
C1527 H1535 0.929 . S
C1528 C1527 1.383 . S
C1528 C1529 1.377 . S
C1529 H1513 0.930 . S
C1529 C1528 1.377 . S
C1529 C1530 1.379 . S
C1530 H1514 0.931 . S
C1530 C1524 1.383 . S
C1530 C1529 1.379 . S
H1531 C1525 0.959 . S
H1532 C1525 0.961 . S
H1533 C1525 0.960 . S
H1534 C1526 0.930 . S
H1535 C1527 0.929 . S
H1536 C1544 0.929 1_565 S
H1537 C1546 0.930 . S
H1538 C1548 0.930 . S
H1539 C1551 0.929 . S
H1540 C1554 0.930 . S
H1541 C1556 0.960 . S
H1542 C1556 0.960 . S
H1543 C1556 0.960 . S
C1544 H1536 0.929 1_545 S
C1544 C1545 1.377 . S
C1544 C1546 1.384 . S
C1545 C1544 1.377 . S
C1545 C1551 1.390 . S
C1546 H1537 0.930 . S
C1546 C1544 1.384 . S
C1546 C1547 1.372 . S
C1547 C1546 1.372 . S
C1547 C1548 1.400 . S
C1547 C1552 1.490 . S
C1548 H1538 0.930 . S
C1548 C1547 1.400 . S
C1548 C1551 1.386 . S
H1549 C1565 0.930 . S
H1550 C1566 0.931 . S
C1551 H1539 0.929 . S
C1551 C1545 1.390 . S
C1551 C1548 1.386 . S
C1552 C1547 1.490 . S
C1552 C1554 1.395 . S
C1552 C1555 1.403 . S
H1553 C1559 0.930 . S
C1554 H1540 0.930 . S
C1554 C1552 1.395 . S
C1554 C1557 1.403 . S
C1555 C1552 1.403 . S
C1555 C1556 1.524 . S
C1555 C1559 1.400 . S
C1556 H1541 0.960 . S
C1556 H1542 0.960 . S
C1556 H1543 0.960 . S
C1556 C1555 1.524 . S
C1557 C1554 1.403 . S
C1557 C1558 1.392 . S
C1557 C1561 1.495 . S
C1558 C1557 1.392 . S
C1558 C1559 1.385 . S
C1558 C1560 1.478 . S
C1559 H1553 0.930 . S
C1559 C1555 1.400 . S
C1559 C1558 1.385 . S
C1560 C1558 1.478 . S
C1560 C1562 1.381 . S
C1560 C1566 1.383 . S
C1561 C1557 1.495 . S
C1561 H1567 0.959 . S
C1561 H1568 0.961 . S
C1561 H1569 0.960 . S
C1562 C1560 1.381 . S
C1562 C1563 1.394 . S
C1562 H1570 0.930 . S
C1563 C1562 1.394 . S
C1563 C1564 1.383 . S
C1563 H1571 0.929 . S
C1564 C1563 1.383 . S
C1564 C1565 1.377 . S
C1565 H1549 0.930 . S
C1565 C1564 1.377 . S
C1565 C1566 1.379 . S
C1566 H1550 0.931 . S
C1566 C1560 1.383 . S
C1566 C1565 1.379 . S
H1567 C1561 0.959 . S
H1568 C1561 0.961 . S
H1569 C1561 0.960 . S
H1570 C1562 0.930 . S
H1571 C1563 0.929 . S
H1572 C1580 0.929 . S
H1573 C1582 0.930 . S
H1574 C1584 0.930 . S
H1575 C1587 0.929 . S
H1576 C1590 0.930 . S
H1577 C1592 0.960 . S
H1578 C1592 0.960 . S
H1579 C1592 0.960 . S
C1580 H1572 0.929 . S
C1580 C1581 1.377 . S
C1580 C1582 1.384 . S
C1581 C1580 1.377 . S
C1581 C1587 1.390 . S
C1582 H1573 0.930 . S
C1582 C1580 1.384 . S
C1582 C1583 1.372 . S
C1583 C1582 1.372 . S
C1583 C1584 1.400 . S
C1583 C1588 1.490 . S
C1584 H1574 0.930 . S
C1584 C1583 1.400 . S
C1584 C1587 1.386 . S
H1585 C1601 0.930 . S
H1586 C1602 0.931 . S
C1587 H1575 0.929 . S
C1587 C1581 1.390 . S
C1587 C1584 1.386 . S
C1588 C1583 1.490 . S
C1588 C1590 1.395 . S
C1588 C1591 1.403 . S
H1589 C1595 0.930 . S
C1590 H1576 0.930 . S
C1590 C1588 1.395 . S
C1590 C1593 1.403 . S
C1591 C1588 1.403 . S
C1591 C1592 1.524 . S
C1591 C1595 1.400 . S
C1592 H1577 0.960 . S
C1592 H1578 0.960 . S
C1592 H1579 0.960 . S
C1592 C1591 1.524 . S
C1593 C1590 1.403 . S
C1593 C1594 1.392 . S
C1593 C1597 1.495 . S
C1594 C1593 1.392 . S
C1594 C1595 1.385 . S
C1594 C1596 1.478 . S
C1595 H1589 0.930 . S
C1595 C1591 1.400 . S
C1595 C1594 1.385 . S
C1596 C1594 1.478 . S
C1596 C1598 1.381 . S
C1596 C1602 1.383 . S
C1597 C1593 1.495 . S
C1597 H1603 0.959 . S
C1597 H1604 0.961 . S
C1597 H1605 0.960 . S
C1598 C1596 1.381 . S
C1598 C1599 1.394 . S
C1598 H1606 0.930 . S
C1599 C1598 1.394 . S
C1599 C1600 1.383 . S
C1599 H1607 0.929 . S
C1600 C1599 1.383 . S
C1600 C1601 1.377 . S
C1601 H1585 0.930 . S
C1601 C1600 1.377 . S
C1601 C1602 1.379 . S
C1602 H1586 0.931 . S
C1602 C1596 1.383 . S
C1602 C1601 1.379 . S
H1603 C1597 0.959 . S
H1604 C1597 0.961 . S
H1605 C1597 0.960 . S
H1606 C1598 0.930 . S
H1607 C1599 0.929 . S
H1608 C1616 0.929 . S
H1609 C1618 0.930 . S
H1610 C1620 0.930 . S
H1611 C1623 0.929 . S
H1612 C1626 0.930 . S
H1613 C1628 0.960 . S
H1614 C1628 0.960 . S
H1615 C1628 0.960 . S
C1616 H1608 0.929 . S
C1616 C1617 1.377 . S
C1616 C1618 1.384 . S
C1617 C1616 1.377 . S
C1617 C1623 1.390 . S
C1618 H1609 0.930 . S
C1618 C1616 1.384 . S
C1618 C1619 1.372 . S
C1619 C1618 1.372 . S
C1619 C1620 1.400 . S
C1619 C1624 1.490 . S
C1620 H1610 0.930 . S
C1620 C1619 1.400 . S
C1620 C1623 1.386 . S
H1621 C1637 0.930 . S
H1622 C1638 0.931 . S
C1623 H1611 0.929 . S
C1623 C1617 1.390 . S
C1623 C1620 1.386 . S
C1624 C1619 1.490 . S
C1624 C1626 1.395 . S
C1624 C1627 1.403 . S
H1625 C1631 0.930 . S
C1626 H1612 0.930 . S
C1626 C1624 1.395 . S
C1626 C1629 1.403 . S
C1627 C1624 1.403 . S
C1627 C1628 1.524 . S
C1627 C1631 1.400 . S
C1628 H1613 0.960 . S
C1628 H1614 0.960 . S
C1628 H1615 0.960 . S
C1628 C1627 1.524 . S
C1629 C1626 1.403 . S
C1629 C1630 1.392 . S
C1629 C1633 1.495 . S
C1630 C1629 1.392 . S
C1630 C1631 1.385 . S
C1630 C1632 1.478 . S
C1631 H1625 0.930 . S
C1631 C1627 1.400 . S
C1631 C1630 1.385 . S
C1632 C1630 1.478 . S
C1632 C1634 1.381 . S
C1632 C1638 1.383 . S
C1633 C1629 1.495 . S
C1633 H1639 0.959 . S
C1633 H1640 0.961 . S
C1633 H1641 0.960 . S
C1634 C1632 1.381 . S
C1634 C1635 1.394 . S
C1634 H1642 0.930 . S
C1635 C1634 1.394 . S
C1635 C1636 1.383 . S
C1635 H1643 0.929 . S
C1636 C1635 1.383 . S
C1636 C1637 1.377 . S
C1637 H1621 0.930 . S
C1637 C1636 1.377 . S
C1637 C1638 1.379 . S
C1638 H1622 0.931 . S
C1638 C1632 1.383 . S
C1638 C1637 1.379 . S
H1639 C1633 0.959 . S
H1640 C1633 0.961 . S
H1641 C1633 0.960 . S
H1642 C1634 0.930 . S
H1643 C1635 0.929 . S
H1644 C1652 0.929 . S
H1645 C1654 0.930 . S
H1646 C1656 0.930 . S
H1647 C1659 0.929 . S
H1648 C1662 0.930 . S
H1649 C1664 0.960 . S
H1650 C1664 0.960 . S
H1651 C1664 0.960 . S
C1652 H1644 0.929 . S
C1652 C1653 1.377 . S
C1652 C1654 1.384 . S
C1653 C1652 1.377 . S
C1653 C1659 1.390 . S
C1654 H1645 0.930 . S
C1654 C1652 1.384 . S
C1654 C1655 1.372 . S
C1655 C1654 1.372 . S
C1655 C1656 1.400 . S
C1655 C1660 1.490 . S
C1656 H1646 0.930 . S
C1656 C1655 1.400 . S
C1656 C1659 1.386 . S
H1657 C1673 0.903 1_565 S
H1658 C1674 0.931 . S
C1659 H1647 0.929 . S
C1659 C1653 1.390 . S
C1659 C1656 1.386 . S
C1660 C1655 1.490 . S
C1660 C1662 1.395 . S
C1660 C1663 1.403 . S
H1661 C1667 0.930 . S
C1662 H1648 0.930 . S
C1662 C1660 1.395 . S
C1662 C1665 1.403 . S
C1663 C1660 1.403 . S
C1663 C1664 1.524 . S
C1663 C1667 1.400 . S
C1664 H1649 0.960 . S
C1664 H1650 0.960 . S
C1664 H1651 0.960 . S
C1664 C1663 1.524 . S
C1665 C1662 1.403 . S
C1665 C1666 1.392 . S
C1665 C1669 1.495 . S
C1666 C1665 1.392 . S
C1666 C1667 1.385 . S
C1666 C1668 1.478 . S
C1667 H1661 0.930 . S
C1667 C1663 1.400 . S
C1667 C1666 1.385 . S
C1668 C1666 1.478 . S
C1668 C1670 1.381 . S
C1668 C1674 1.383 . S
C1669 C1665 1.495 . S
C1669 H1675 0.959 . S
C1669 H1676 0.961 1_545 S
C1669 H1677 0.960 . S
C1670 C1668 1.381 . S
C1670 C1671 1.394 . S
C1670 H1678 0.930 . S
C1671 C1670 1.394 . S
C1671 C1672 1.383 . S
C1671 H1679 0.929 . S
C1672 C1671 1.383 . S
C1672 C1673 1.377 . S
C1673 H1657 0.903 1_545 S
C1673 C1672 1.377 . S
C1673 C1674 1.379 . S
C1674 H1658 0.931 . S
C1674 C1668 1.383 . S
C1674 C1673 1.379 . S
H1675 C1669 0.959 . S
H1676 C1669 0.961 1_565 S
H1677 C1669 0.960 . S
H1678 C1670 0.930 . S
H1679 C1671 0.929 . S
H1680 C1688 0.929 . S
H1681 C1690 0.930 . S
H1682 C1692 0.930 . S
H1683 C1695 0.929 . S
H1684 C1698 0.930 . S
H1685 C1700 0.960 . S
H1686 C1700 0.960 . S
H1687 C1700 0.960 . S
C1688 H1680 0.929 . S
C1688 C1689 1.377 . S
C1688 C1690 1.384 . S
C1689 C1688 1.377 . S
C1689 C1695 1.390 . S
C1690 H1681 0.930 . S
C1690 C1688 1.384 . S
C1690 C1691 1.372 . S
C1691 C1690 1.372 . S
C1691 C1692 1.400 . S
C1691 C1696 1.490 . S
C1692 H1682 0.930 . S
C1692 C1691 1.400 . S
C1692 C1695 1.386 . S
H1693 C1709 0.930 . S
H1694 C1710 0.931 . S
C1695 H1683 0.929 . S
C1695 C1689 1.390 . S
C1695 C1692 1.386 . S
C1696 C1691 1.490 . S
C1696 C1698 1.395 . S
C1696 C1699 1.403 . S
H1697 C1703 0.930 . S
C1698 H1684 0.930 . S
C1698 C1696 1.395 . S
C1698 C1701 1.403 . S
C1699 C1696 1.403 . S
C1699 C1700 1.524 . S
C1699 C1703 1.400 . S
C1700 H1685 0.960 . S
C1700 H1686 0.960 . S
C1700 H1687 0.960 . S
C1700 C1699 1.524 . S
C1701 C1698 1.403 . S
C1701 C1702 1.392 . S
C1701 C1705 1.495 . S
C1702 C1701 1.392 . S
C1702 C1703 1.385 . S
C1702 C1704 1.478 . S
C1703 H1697 0.930 . S
C1703 C1699 1.400 . S
C1703 C1702 1.385 . S
C1704 C1702 1.478 . S
C1704 C1706 1.381 . S
C1704 C1710 1.383 . S
C1705 C1701 1.495 . S
C1705 H1711 0.959 . S
C1705 H1712 0.961 . S
C1705 H1713 0.960 . S
C1706 C1704 1.381 . S
C1706 C1707 1.394 . S
C1706 H1714 0.930 . S
C1707 C1706 1.394 . S
C1707 C1708 1.383 . S
C1707 H1715 0.929 . S
C1708 C1707 1.383 . S
C1708 C1709 1.377 . S
C1709 H1693 0.930 . S
C1709 C1708 1.377 . S
C1709 C1710 1.379 . S
C1710 H1694 0.931 . S
C1710 C1704 1.383 . S
C1710 C1709 1.379 . S
H1711 C1705 0.959 . S
H1712 C1705 0.961 . S
H1713 C1705 0.960 . S
H1714 C1706 0.930 . S
H1715 C1707 0.929 . S
H1716 C1724 0.929 . S
H1717 C1726 0.930 . S
H1718 C1728 0.930 . S
H1719 C1731 0.929 . S
H1720 C1734 0.930 . S
H1721 C1736 0.960 . S
H1722 C1736 0.960 . S
H1723 C1736 0.960 . S
C1724 H1716 0.929 . S
C1724 C1725 1.377 . S
C1724 C1726 1.384 . S
C1725 C1724 1.377 . S
C1725 C1731 1.390 . S
C1726 H1717 0.930 . S
C1726 C1724 1.384 . S
C1726 C1727 1.372 . S
C1727 C1726 1.372 . S
C1727 C1728 1.400 . S
C1727 C1732 1.490 . S
C1728 H1718 0.930 . S
C1728 C1727 1.400 . S
C1728 C1731 1.386 . S
H1729 C1745 0.930 . S
H1730 C1746 0.931 . S
C1731 H1719 0.929 . S
C1731 C1725 1.390 . S
C1731 C1728 1.386 . S
C1732 C1727 1.490 . S
C1732 C1734 1.395 . S
C1732 C1735 1.403 . S
H1733 C1739 0.930 . S
C1734 H1720 0.930 . S
C1734 C1732 1.395 . S
C1734 C1737 1.403 . S
C1735 C1732 1.403 . S
C1735 C1736 1.524 . S
C1735 C1739 1.400 . S
C1736 H1721 0.960 . S
C1736 H1722 0.960 . S
C1736 H1723 0.960 . S
C1736 C1735 1.524 . S
C1737 C1734 1.403 . S
C1737 C1738 1.392 . S
C1737 C1741 1.495 . S
C1738 C1737 1.392 . S
C1738 C1739 1.385 . S
C1738 C1740 1.478 . S
C1739 H1733 0.930 . S
C1739 C1735 1.400 . S
C1739 C1738 1.385 . S
C1740 C1738 1.478 . S
C1740 C1742 1.381 . S
C1740 C1746 1.383 . S
C1741 C1737 1.495 . S
C1741 H1747 0.959 . S
C1741 H1748 0.961 . S
C1741 H1749 0.960 . S
C1742 C1740 1.381 . S
C1742 C1743 1.394 . S
C1742 H1750 0.930 . S
C1743 C1742 1.394 . S
C1743 C1744 1.383 . S
C1743 H1751 0.929 . S
C1744 C1743 1.383 . S
C1744 C1745 1.377 . S
C1745 H1729 0.930 . S
C1745 C1744 1.377 . S
C1745 C1746 1.379 . S
C1746 H1730 0.931 . S
C1746 C1740 1.383 . S
C1746 C1745 1.379 . S
H1747 C1741 0.959 . S
H1748 C1741 0.961 . S
H1749 C1741 0.960 . S
H1750 C1742 0.930 . S
H1751 C1743 0.929 . S
H1752 C1760 0.929 . S
H1753 C1762 0.930 . S
H1754 C1764 0.930 . S
H1755 C1767 0.929 . S
H1756 C1770 0.930 . S
H1757 C1772 0.960 . S
H1758 C1772 0.960 . S
H1759 C1772 0.960 . S
C1760 H1752 0.929 . S
C1760 C1761 1.377 . S
C1760 C1762 1.384 . S
C1761 C1760 1.377 . S
C1761 C1767 1.390 . S
C1762 H1753 0.930 . S
C1762 C1760 1.384 . S
C1762 C1763 1.372 . S
C1763 C1762 1.372 . S
C1763 C1764 1.400 . S
C1763 C1768 1.490 . S
C1764 H1754 0.930 . S
C1764 C1763 1.400 . S
C1764 C1767 1.386 . S
H1765 C1781 0.930 . S
H1766 C1782 0.931 . S
C1767 H1755 0.929 . S
C1767 C1761 1.390 . S
C1767 C1764 1.386 . S
C1768 C1763 1.490 . S
C1768 C1770 1.395 . S
C1768 C1771 1.403 . S
H1769 C1775 0.930 . S
C1770 H1756 0.930 . S
C1770 C1768 1.395 . S
C1770 C1773 1.403 . S
C1771 C1768 1.403 . S
C1771 C1772 1.524 . S
C1771 C1775 1.400 . S
C1772 H1757 0.960 . S
C1772 H1758 0.960 . S
C1772 H1759 0.960 . S
C1772 C1771 1.524 . S
C1773 C1770 1.403 . S
C1773 C1774 1.392 . S
C1773 C1777 1.495 . S
C1774 C1773 1.392 . S
C1774 C1775 1.385 . S
C1774 C1776 1.478 . S
C1775 H1769 0.930 . S
C1775 C1771 1.400 . S
C1775 C1774 1.385 . S
C1776 C1774 1.478 . S
C1776 C1778 1.381 . S
C1776 C1782 1.383 . S
C1777 C1773 1.495 . S
C1777 H1783 0.959 . S
C1777 H1784 0.961 . S
C1777 H1785 0.960 . S
C1778 C1776 1.381 . S
C1778 C1779 1.394 . S
C1778 H1786 0.930 . S
C1779 C1778 1.394 . S
C1779 C1780 1.383 . S
C1779 H1787 0.929 . S
C1780 C1779 1.383 . S
C1780 C1781 1.377 . S
C1781 H1765 0.930 . S
C1781 C1780 1.377 . S
C1781 C1782 1.379 . S
C1782 H1766 0.931 . S
C1782 C1776 1.383 . S
C1782 C1781 1.379 . S
H1783 C1777 0.959 . S
H1784 C1777 0.961 . S
H1785 C1777 0.960 . S
H1786 C1778 0.930 . S
H1787 C1779 0.929 . S
H1788 C1796 0.929 1_455 S
H1789 C1798 0.930 . S
H1790 C1800 0.930 . S
H1791 C1803 0.929 . S
H1792 C1806 0.930 . S
H1793 C1808 0.960 . S
H1794 C1808 0.960 . S
H1795 C1808 0.960 . S
C1796 H1788 0.929 1_655 S
C1796 C1797 1.377 . S
C1796 C1798 1.384 . S
C1797 C1796 1.377 . S
C1797 C1803 1.390 . S
C1798 H1789 0.930 . S
C1798 C1796 1.384 . S
C1798 C1799 1.372 . S
C1799 C1798 1.372 . S
C1799 C1800 1.400 . S
C1799 C1804 1.490 . S
C1800 H1790 0.930 . S
C1800 C1799 1.400 . S
C1800 C1803 1.386 . S
H1801 C1817 0.930 . S
H1802 C1818 0.931 . S
C1803 H1791 0.929 . S
C1803 C1797 1.390 . S
C1803 C1800 1.386 . S
C1804 C1799 1.490 . S
C1804 C1806 1.395 . S
C1804 C1807 1.403 . S
H1805 C1811 0.930 . S
C1806 H1792 0.930 . S
C1806 C1804 1.395 . S
C1806 C1809 1.403 . S
C1807 C1804 1.403 . S
C1807 C1808 1.524 . S
C1807 C1811 1.400 . S
C1808 H1793 0.960 . S
C1808 H1794 0.960 . S
C1808 H1795 0.960 . S
C1808 C1807 1.524 . S
C1809 C1806 1.403 . S
C1809 C1810 1.392 . S
C1809 C1813 1.495 . S
C1810 C1809 1.392 . S
C1810 C1811 1.385 . S
C1810 C1812 1.478 . S
C1811 H1805 0.930 . S
C1811 C1807 1.400 . S
C1811 C1810 1.385 . S
C1812 C1810 1.478 . S
C1812 C1814 1.381 . S
C1812 C1818 1.383 . S
C1813 C1809 1.495 . S
C1813 H1819 0.959 . S
C1813 H1820 0.961 . S
C1813 H1821 0.960 . S
C1814 C1812 1.381 . S
C1814 C1815 1.394 . S
C1814 H1822 0.896 1_545 S
C1815 C1814 1.394 . S
C1815 C1816 1.383 . S
C1815 H1823 0.929 1_545 S
C1816 C1815 1.383 . S
C1816 C1817 1.377 . S
C1817 H1801 0.930 . S
C1817 C1816 1.377 . S
C1817 C1818 1.379 . S
C1818 H1802 0.931 . S
C1818 C1812 1.383 . S
C1818 C1817 1.379 . S
H1819 C1813 0.959 . S
H1820 C1813 0.961 . S
H1821 C1813 0.960 . S
H1822 C1814 0.896 1_565 S
H1823 C1815 0.929 1_565 S
H1824 C1832 0.929 . S
H1825 C1834 0.930 . S
H1826 C1836 0.930 . S
H1827 C1839 0.929 . S
H1828 C1842 0.930 . S
H1829 C1844 0.960 . S
H1830 C1844 0.960 . S
H1831 C1844 0.960 . S
C1832 H1824 0.929 . S
C1832 C1833 1.377 . S
C1832 C1834 1.384 . S
C1833 C1832 1.377 . S
C1833 C1839 1.390 . S
C1834 H1825 0.930 . S
C1834 C1832 1.384 . S
C1834 C1835 1.372 . S
C1835 C1834 1.372 . S
C1835 C1836 1.400 . S
C1835 C1840 1.490 . S
C1836 H1826 0.930 . S
C1836 C1835 1.400 . S
C1836 C1839 1.386 . S
H1837 C1853 0.930 . S
H1838 C1854 0.931 . S
C1839 H1827 0.929 . S
C1839 C1833 1.390 . S
C1839 C1836 1.386 . S
C1840 C1835 1.490 . S
C1840 C1842 1.395 . S
C1840 C1843 1.403 . S
H1841 C1847 0.930 . S
C1842 H1828 0.930 . S
C1842 C1840 1.395 . S
C1842 C1845 1.403 . S
C1843 C1840 1.403 . S
C1843 C1844 1.524 . S
C1843 C1847 1.400 . S
C1844 H1829 0.960 . S
C1844 H1830 0.960 . S
C1844 H1831 0.960 . S
C1844 C1843 1.524 . S
C1845 C1842 1.403 . S
C1845 C1846 1.392 . S
C1845 C1849 1.495 . S
C1846 C1845 1.392 . S
C1846 C1847 1.385 . S
C1846 C1848 1.478 . S
C1847 H1841 0.930 . S
C1847 C1843 1.400 . S
C1847 C1846 1.385 . S
C1848 C1846 1.478 . S
C1848 C1850 1.381 . S
C1848 C1854 1.383 . S
C1849 C1845 1.495 . S
C1849 H1855 0.959 . S
C1849 H1856 0.961 . S
C1849 H1857 0.960 . S
C1850 C1848 1.381 . S
C1850 C1851 1.394 . S
C1850 H1858 0.930 . S
C1851 C1850 1.394 . S
C1851 C1852 1.383 . S
C1851 H1859 0.929 . S
C1852 C1851 1.383 . S
C1852 C1853 1.377 . S
C1853 H1837 0.930 . S
C1853 C1852 1.377 . S
C1853 C1854 1.379 . S
C1854 H1838 0.931 . S
C1854 C1848 1.383 . S
C1854 C1853 1.379 . S
H1855 C1849 0.959 . S
H1856 C1849 0.961 . S
H1857 C1849 0.960 . S
H1858 C1850 0.930 . S
H1859 C1851 0.929 . S
H1860 C1868 0.929 . S
H1861 C1870 0.930 . S
H1862 C1872 0.930 . S
H1863 C1875 0.929 . S
H1864 C1878 0.930 . S
H1865 C1880 0.960 . S
H1866 C1880 0.960 . S
H1867 C1880 0.960 . S
C1868 H1860 0.929 . S
C1868 C1869 1.377 1_655 S
C1868 C1870 1.384 1_655 S
C1869 C1868 1.377 1_455 S
C1869 C1875 1.390 . S
C1870 H1861 0.930 . S
C1870 C1868 1.384 1_455 S
C1870 C1871 1.372 . S
C1871 C1870 1.372 . S
C1871 C1872 1.400 . S
C1871 C1876 1.490 . S
C1872 H1862 0.930 . S
C1872 C1871 1.400 . S
C1872 C1875 1.386 . S
H1873 C1889 0.930 . S
H1874 C1890 0.931 . S
C1875 H1863 0.929 . S
C1875 C1869 1.390 . S
C1875 C1872 1.386 . S
C1876 C1871 1.490 . S
C1876 C1878 1.395 . S
C1876 C1879 1.403 . S
H1877 C1883 0.930 . S
C1878 H1864 0.930 . S
C1878 C1876 1.395 . S
C1878 C1881 1.403 . S
C1879 C1876 1.403 . S
C1879 C1880 1.524 . S
C1879 C1883 1.400 . S
C1880 H1865 0.960 . S
C1880 H1866 0.960 . S
C1880 H1867 0.960 . S
C1880 C1879 1.524 . S
C1881 C1878 1.403 . S
C1881 C1882 1.392 . S
C1881 C1885 1.495 . S
C1882 C1881 1.392 . S
C1882 C1883 1.385 . S
C1882 C1884 1.478 . S
C1883 H1877 0.930 . S
C1883 C1879 1.400 . S
C1883 C1882 1.385 . S
C1884 C1882 1.478 . S
C1884 C1886 1.381 . S
C1884 C1890 1.383 . S
C1885 C1881 1.495 . S
C1885 H1891 0.959 . S
C1885 H1892 0.961 . S
C1885 H1893 0.960 . S
C1886 C1884 1.381 . S
C1886 C1887 1.394 . S
C1886 H1894 0.930 . S
C1887 C1886 1.394 . S
C1887 C1888 1.383 . S
C1887 H1895 0.929 . S
C1888 C1887 1.383 . S
C1888 C1889 1.377 . S
C1889 H1873 0.930 . S
C1889 C1888 1.377 . S
C1889 C1890 1.379 . S
C1890 H1874 0.931 . S
C1890 C1884 1.383 . S
C1890 C1889 1.379 . S
H1891 C1885 0.959 . S
H1892 C1885 0.961 . S
H1893 C1885 0.960 . S
H1894 C1886 0.930 . S
H1895 C1887 0.929 . S
H1896 C1904 0.929 . S
H1897 C1906 0.930 . S
H1898 C1908 0.930 . S
H1899 C1911 0.929 . S
H1900 C1914 0.930 . S
H1901 C1916 0.960 . S
H1902 C1916 0.960 . S
H1903 C1916 0.960 . S
C1904 H1896 0.929 . S
C1904 C1905 1.377 . S
C1904 C1906 1.384 . S
C1905 C1904 1.377 . S
C1905 C1911 1.390 . S
C1906 H1897 0.930 . S
C1906 C1904 1.384 . S
C1906 C1907 1.372 . S
C1907 C1906 1.372 . S
C1907 C1908 1.400 . S
C1907 C1912 1.490 . S
C1908 H1898 0.930 . S
C1908 C1907 1.400 . S
C1908 C1911 1.386 . S
H1909 C1925 0.930 . S
H1910 C1926 0.931 . S
C1911 H1899 0.929 . S
C1911 C1905 1.390 . S
C1911 C1908 1.386 . S
C1912 C1907 1.490 . S
C1912 C1914 1.395 . S
C1912 C1915 1.403 . S
H1913 C1919 0.930 . S
C1914 H1900 0.930 . S
C1914 C1912 1.395 . S
C1914 C1917 1.403 . S
C1915 C1912 1.403 . S
C1915 C1916 1.524 . S
C1915 C1919 1.400 . S
C1916 H1901 0.960 . S
C1916 H1902 0.960 . S
C1916 H1903 0.960 . S
C1916 C1915 1.524 . S
C1917 C1914 1.403 . S
C1917 C1918 1.392 . S
C1917 C1921 1.495 . S
C1918 C1917 1.392 . S
C1918 C1919 1.385 . S
C1918 C1920 1.478 . S
C1919 H1913 0.930 . S
C1919 C1915 1.400 . S
C1919 C1918 1.385 . S
C1920 C1918 1.478 . S
C1920 C1922 1.381 . S
C1920 C1926 1.383 . S
C1921 C1917 1.495 . S
C1921 H1927 0.959 . S
C1921 H1928 0.961 . S
C1921 H1929 0.960 . S
C1922 C1920 1.381 . S
C1922 C1923 1.394 . S
C1922 H1930 0.930 . S
C1923 C1922 1.394 . S
C1923 C1924 1.383 . S
C1923 H1931 0.929 . S
C1924 C1923 1.383 . S
C1924 C1925 1.377 . S
C1925 H1909 0.930 . S
C1925 C1924 1.377 . S
C1925 C1926 1.379 . S
C1926 H1910 0.931 . S
C1926 C1920 1.383 . S
C1926 C1925 1.379 . S
H1927 C1921 0.959 . S
H1928 C1921 0.961 . S
H1929 C1921 0.960 . S
H1930 C1922 0.930 . S
H1931 C1923 0.929 . S
H1932 C1940 0.929 . S
H1933 C1942 0.930 . S
H1934 C1944 0.930 . S
H1935 C1947 0.929 . S
H1936 C1950 0.930 . S
H1937 C1952 0.960 . S
H1938 C1952 0.960 . S
H1939 C1952 0.960 . S
C1940 H1932 0.929 . S
C1940 C1941 1.377 1_556 S
C1940 C1942 1.384 . S
C1941 C1940 1.377 1_554 S
C1941 C1947 1.390 . S
C1942 H1933 0.930 . S
C1942 C1940 1.384 . S
C1942 C1943 1.372 . S
C1943 C1942 1.372 . S
C1943 C1944 1.400 . S
C1943 C1948 1.490 . S
C1944 H1934 0.930 . S
C1944 C1943 1.400 . S
C1944 C1947 1.386 1_556 S
H1945 C1961 0.930 . S
H1946 C1962 0.931 . S
C1947 H1935 0.929 . S
C1947 C1941 1.390 . S
C1947 C1944 1.386 1_554 S
C1948 C1943 1.490 . S
C1948 C1950 1.395 . S
C1948 C1951 1.403 . S
H1949 C1955 0.930 . S
C1950 H1936 0.930 . S
C1950 C1948 1.395 . S
C1950 C1953 1.403 . S
C1951 C1948 1.403 . S
C1951 C1952 1.524 . S
C1951 C1955 1.400 . S
C1952 H1937 0.960 . S
C1952 H1938 0.960 . S
C1952 H1939 0.960 . S
C1952 C1951 1.524 . S
C1953 C1950 1.403 . S
C1953 C1954 1.392 . S
C1953 C1957 1.495 1_655 S
C1954 C1953 1.392 . S
C1954 C1955 1.385 . S
C1954 C1956 1.478 . S
C1955 H1949 0.930 . S
C1955 C1951 1.400 . S
C1955 C1954 1.385 . S
C1956 C1954 1.478 . S
C1956 C1958 1.381 . S
C1956 C1962 1.383 . S
C1957 C1953 1.495 1_455 S
C1957 H1963 0.959 . S
C1957 H1964 0.961 . S
C1957 H1965 0.960 . S
C1958 C1956 1.381 . S
C1958 C1959 1.394 . S
C1958 H1966 0.930 . S
C1959 C1958 1.394 . S
C1959 C1960 1.383 . S
C1959 H1967 0.929 . S
C1960 C1959 1.383 . S
C1960 C1961 1.377 . S
C1961 H1945 0.930 . S
C1961 C1960 1.377 . S
C1961 C1962 1.379 . S
C1962 H1946 0.931 . S
C1962 C1956 1.383 . S
C1962 C1961 1.379 . S
H1963 C1957 0.959 . S
H1964 C1957 0.961 . S
H1965 C1957 0.960 . S
H1966 C1958 0.930 . S
H1967 C1959 0.929 . S
H1968 C1976 0.929 . S
H1969 C1978 0.930 . S
H1970 C1980 0.930 . S
H1971 C1983 0.929 . S
H1972 C1986 0.930 . S
H1973 C1988 0.960 . S
H1974 C1988 0.960 . S
H1975 C1988 0.960 . S
C1976 H1968 0.929 . S
C1976 C1977 1.377 . S
C1976 C1978 1.384 . S
C1977 C1976 1.377 . S
C1977 C1983 1.390 . S
C1978 H1969 0.930 . S
C1978 C1976 1.384 . S
C1978 C1979 1.372 . S
C1979 C1978 1.372 . S
C1979 C1980 1.400 . S
C1979 C1984 1.490 . S
C1980 H1970 0.930 . S
C1980 C1979 1.400 . S
C1980 C1983 1.386 . S
H1981 C1997 0.930 . S
H1982 C1998 0.931 . S
C1983 H1971 0.929 . S
C1983 C1977 1.390 . S
C1983 C1980 1.386 . S
C1984 C1979 1.490 . S
C1984 C1986 1.395 . S
C1984 C1987 1.403 . S
H1985 C1991 0.930 . S
C1986 H1972 0.930 . S
C1986 C1984 1.395 . S
C1986 C1989 1.403 . S
C1987 C1984 1.403 . S
C1987 C1988 1.524 . S
C1987 C1991 1.400 . S
C1988 H1973 0.960 . S
C1988 H1974 0.960 . S
C1988 H1975 0.960 . S
C1988 C1987 1.524 . S
C1989 C1986 1.403 . S
C1989 C1990 1.392 . S
C1989 C1993 1.495 . S
C1990 C1989 1.392 . S
C1990 C1991 1.385 . S
C1990 C1992 1.478 . S
C1991 H1985 0.930 . S
C1991 C1987 1.400 . S
C1991 C1990 1.385 . S
C1992 C1990 1.478 . S
C1992 C1994 1.381 . S
C1992 C1998 1.383 . S
C1993 C1989 1.495 . S
C1993 H1999 0.959 . S
C1993 H2000 0.961 . S
C1993 H2001 0.960 . S
C1994 C1992 1.381 . S
C1994 C1995 1.394 . S
C1994 H2002 0.930 . S
C1995 C1994 1.394 . S
C1995 C1996 1.383 . S
C1995 H2003 0.929 . S
C1996 C1995 1.383 . S
C1996 C1997 1.377 . S
C1997 H1981 0.930 . S
C1997 C1996 1.377 . S
C1997 C1998 1.379 . S
C1998 H1982 0.931 . S
C1998 C1992 1.383 . S
C1998 C1997 1.379 . S
H1999 C1993 0.959 . S
H2000 C1993 0.961 . S
H2001 C1993 0.960 . S
H2002 C1994 0.930 . S
H2003 C1995 0.929 . S
H2004 C2012 0.942 . S
H2005 C2014 0.930 . S
H2006 C2016 0.930 . S
H2007 C2019 0.929 . S
H2008 C2022 0.930 . S
H2009 C2024 0.960 . S
H2010 C2024 0.960 1_455 S
H2011 C2024 0.960 . S
C2012 H2004 0.942 . S
C2012 C2013 1.377 . S
C2012 C2014 1.384 . S
C2013 C2012 1.377 . S
C2013 C2019 1.390 . S
C2014 H2005 0.930 . S
C2014 C2012 1.384 . S
C2014 C2015 1.372 . S
C2015 C2014 1.372 . S
C2015 C2016 1.400 . S
C2015 C2020 1.490 . S
C2016 H2006 0.930 . S
C2016 C2015 1.400 . S
C2016 C2019 1.386 . S
H2017 C2033 0.930 1_655 S
H2018 C2034 0.906 1_655 S
C2019 H2007 0.929 . S
C2019 C2013 1.390 . S
C2019 C2016 1.386 . S
C2020 C2015 1.490 . S
C2020 C2022 1.395 . S
C2020 C2023 1.403 . S
H2021 C2027 0.925 . S
C2022 H2008 0.930 . S
C2022 C2020 1.395 . S
C2022 C2025 1.403 . S
C2023 C2020 1.403 . S
C2023 C2024 1.524 1_455 S
C2023 C2027 1.400 . S
C2024 H2009 0.960 . S
C2024 H2010 0.960 1_655 S
C2024 H2011 0.960 . S
C2024 C2023 1.524 1_655 S
C2025 C2022 1.403 . S
C2025 C2026 1.392 . S
C2025 C2029 1.495 . S
C2026 C2025 1.392 . S
C2026 C2027 1.385 . S
C2026 C2028 1.478 . S
C2027 H2021 0.925 . S
C2027 C2023 1.400 . S
C2027 C2026 1.385 . S
C2028 C2026 1.478 . S
C2028 C2030 1.381 . S
C2028 C2034 1.383 . S
C2029 C2025 1.495 . S
C2029 H2035 0.959 . S
C2029 H2036 0.961 . S
C2029 H2037 0.960 . S
C2030 C2028 1.381 . S
C2030 C2031 1.394 . S
C2030 H2038 0.930 . S
C2031 C2030 1.394 . S
C2031 C2032 1.383 . S
C2031 H2039 0.929 . S
C2032 C2031 1.383 . S
C2032 C2033 1.377 . S
C2033 H2017 0.930 1_455 S
C2033 C2032 1.377 . S
C2033 C2034 1.379 . S
C2034 H2018 0.906 1_455 S
C2034 C2028 1.383 . S
C2034 C2033 1.379 . S
H2035 C2029 0.959 . S
H2036 C2029 0.961 . S
H2037 C2029 0.960 . S
H2038 C2030 0.930 . S
H2039 C2031 0.929 . S
H2040 C2048 0.929 . S
H2041 C2050 0.930 . S
H2042 C2052 0.930 . S
H2043 C2055 0.929 . S
H2044 C2058 0.930 . S
H2045 C2060 0.960 . S
H2046 C2060 0.960 . S
H2047 C2060 0.960 . S
C2048 H2040 0.929 . S
C2048 C2049 1.377 . S
C2048 C2050 1.384 . S
C2049 C2048 1.377 . S
C2049 C2055 1.390 . S
C2050 H2041 0.930 . S
C2050 C2048 1.384 . S
C2050 C2051 1.372 . S
C2051 C2050 1.372 . S
C2051 C2052 1.400 . S
C2051 C2056 1.490 . S
C2052 H2042 0.930 . S
C2052 C2051 1.400 . S
C2052 C2055 1.386 . S
H2053 C2069 0.930 . S
H2054 C2070 0.931 . S
C2055 H2043 0.929 . S
C2055 C2049 1.390 . S
C2055 C2052 1.386 . S
C2056 C2051 1.490 . S
C2056 C2058 1.395 . S
C2056 C2059 1.403 . S
H2057 C2063 0.930 . S
C2058 H2044 0.930 . S
C2058 C2056 1.395 . S
C2058 C2061 1.403 . S
C2059 C2056 1.403 . S
C2059 C2060 1.524 . S
C2059 C2063 1.400 . S
C2060 H2045 0.960 . S
C2060 H2046 0.960 . S
C2060 H2047 0.960 . S
C2060 C2059 1.524 . S
C2061 C2058 1.403 . S
C2061 C2062 1.392 . S
C2061 C2065 1.495 . S
C2062 C2061 1.392 . S
C2062 C2063 1.385 . S
C2062 C2064 1.478 . S
C2063 H2057 0.930 . S
C2063 C2059 1.400 . S
C2063 C2062 1.385 . S
C2064 C2062 1.478 . S
C2064 C2066 1.381 . S
C2064 C2070 1.383 . S
C2065 C2061 1.495 . S
C2065 H2071 0.959 . S
C2065 H2072 0.961 . S
C2065 H2073 0.960 . S
C2066 C2064 1.381 . S
C2066 C2067 1.394 . S
C2066 H2074 0.930 . S
C2067 C2066 1.394 . S
C2067 C2068 1.383 . S
C2067 H2075 0.929 . S
C2068 C2067 1.383 . S
C2068 C2069 1.377 . S
C2069 H2053 0.930 . S
C2069 C2068 1.377 . S
C2069 C2070 1.379 . S
C2070 H2054 0.931 . S
C2070 C2064 1.383 . S
C2070 C2069 1.379 . S
H2071 C2065 0.959 . S
H2072 C2065 0.961 . S
H2073 C2065 0.960 . S
H2074 C2066 0.930 . S
H2075 C2067 0.929 . S
H2076 C2084 0.929 . S
H2077 C2086 0.930 . S
H2078 C2088 0.930 . S
H2079 C2091 0.929 . S
H2080 C2094 0.930 . S
H2081 C2096 0.960 . S
H2082 C2096 0.960 . S
H2083 C2096 0.960 . S
C2084 H2076 0.929 . S
C2084 C2085 1.377 . S
C2084 C2086 1.384 . S
C2085 C2084 1.377 . S
C2085 C2091 1.390 . S
C2086 H2077 0.930 . S
C2086 C2084 1.384 . S
C2086 C2087 1.372 . S
C2087 C2086 1.372 . S
C2087 C2088 1.400 . S
C2087 C2092 1.490 . S
C2088 H2078 0.930 . S
C2088 C2087 1.400 . S
C2088 C2091 1.386 . S
H2089 C2105 0.930 . S
H2090 C2106 0.931 . S
C2091 H2079 0.929 . S
C2091 C2085 1.390 . S
C2091 C2088 1.386 . S
C2092 C2087 1.490 . S
C2092 C2094 1.395 . S
C2092 C2095 1.403 . S
H2093 C2099 0.930 . S
C2094 H2080 0.930 . S
C2094 C2092 1.395 . S
C2094 C2097 1.403 . S
C2095 C2092 1.403 . S
C2095 C2096 1.524 . S
C2095 C2099 1.400 . S
C2096 H2081 0.960 . S
C2096 H2082 0.960 . S
C2096 H2083 0.960 . S
C2096 C2095 1.524 . S
C2097 C2094 1.403 . S
C2097 C2098 1.392 . S
C2097 C2101 1.495 . S
C2098 C2097 1.392 . S
C2098 C2099 1.385 . S
C2098 C2100 1.478 . S
C2099 H2093 0.930 . S
C2099 C2095 1.400 . S
C2099 C2098 1.385 . S
C2100 C2098 1.478 . S
C2100 C2102 1.381 . S
C2100 C2106 1.383 . S
C2101 C2097 1.495 . S
C2101 H2107 0.959 . S
C2101 H2108 0.961 . S
C2101 H2109 0.960 . S
C2102 C2100 1.381 . S
C2102 C2103 1.394 . S
C2102 H2110 0.930 . S
C2103 C2102 1.394 . S
C2103 C2104 1.383 . S
C2103 H2111 0.929 . S
C2104 C2103 1.383 . S
C2104 C2105 1.377 . S
C2105 H2089 0.930 . S
C2105 C2104 1.377 . S
C2105 C2106 1.379 . S
C2106 H2090 0.931 . S
C2106 C2100 1.383 . S
C2106 C2105 1.379 . S
H2107 C2101 0.959 . S
H2108 C2101 0.961 . S
H2109 C2101 0.960 . S
H2110 C2102 0.930 . S
H2111 C2103 0.929 . S
H2112 C2120 0.929 . S
H2113 C2122 0.930 . S
H2114 C2124 0.930 . S
H2115 C2127 0.929 . S
H2116 C2130 0.930 . S
H2117 C2132 0.960 . S
H2118 C2132 0.960 . S
H2119 C2132 0.960 . S
C2120 H2112 0.929 . S
C2120 C2121 1.377 . S
C2120 C2122 1.384 . S
C2121 C2120 1.377 . S
C2121 C2127 1.390 . S
C2122 H2113 0.930 . S
C2122 C2120 1.384 . S
C2122 C2123 1.372 . S
C2123 C2122 1.372 . S
C2123 C2124 1.400 . S
C2123 C2128 1.490 . S
C2124 H2114 0.930 . S
C2124 C2123 1.400 . S
C2124 C2127 1.386 . S
H2125 C2141 0.930 . S
H2126 C2142 0.931 . S
C2127 H2115 0.929 . S
C2127 C2121 1.390 . S
C2127 C2124 1.386 . S
C2128 C2123 1.490 . S
C2128 C2130 1.395 . S
C2128 C2131 1.403 . S
H2129 C2135 0.930 . S
C2130 H2116 0.930 . S
C2130 C2128 1.395 . S
C2130 C2133 1.403 . S
C2131 C2128 1.403 . S
C2131 C2132 1.524 . S
C2131 C2135 1.400 . S
C2132 H2117 0.960 . S
C2132 H2118 0.960 . S
C2132 H2119 0.960 . S
C2132 C2131 1.524 . S
C2133 C2130 1.403 . S
C2133 C2134 1.392 . S
C2133 C2137 1.495 . S
C2134 C2133 1.392 . S
C2134 C2135 1.385 . S
C2134 C2136 1.478 . S
C2135 H2129 0.930 . S
C2135 C2131 1.400 . S
C2135 C2134 1.385 . S
C2136 C2134 1.478 . S
C2136 C2138 1.381 . S
C2136 C2142 1.383 . S
C2137 C2133 1.495 . S
C2137 H2143 0.959 . S
C2137 H2144 0.961 . S
C2137 H2145 0.960 . S
C2138 C2136 1.381 . S
C2138 C2139 1.394 . S
C2138 H2146 0.930 . S
C2139 C2138 1.394 . S
C2139 C2140 1.383 . S
C2139 H2147 0.929 . S
C2140 C2139 1.383 . S
C2140 C2141 1.377 . S
C2141 H2125 0.930 . S
C2141 C2140 1.377 . S
C2141 C2142 1.379 . S
C2142 H2126 0.931 . S
C2142 C2136 1.383 . S
C2142 C2141 1.379 . S
H2143 C2137 0.959 . S
H2144 C2137 0.961 . S
H2145 C2137 0.960 . S
H2146 C2138 0.930 . S
H2147 C2139 0.929 . S
H2148 C2156 0.929 . S
H2149 C2158 0.930 . S
H2150 C2160 0.930 . S
H2151 C2163 0.984 . S
H2152 C2166 0.930 . S
H2153 C2168 0.960 . S
H2154 C2168 0.960 . S
H2155 C2168 0.960 . S
C2156 H2148 0.929 . S
C2156 C2157 1.377 . S
C2156 C2158 1.384 . S
C2157 C2156 1.377 . S
C2157 C2163 1.375 1_554 S
C2158 H2149 0.930 . S
C2158 C2156 1.384 . S
C2158 C2159 1.372 . S
C2159 C2158 1.372 . S
C2159 C2160 1.400 . S
C2159 C2164 1.490 . S
C2160 H2150 0.930 . S
C2160 C2159 1.400 . S
C2160 C2163 1.347 1_554 S
H2161 C2177 0.930 . S
H2162 C2178 0.931 . S
C2163 H2151 0.984 . S
C2163 C2157 1.375 1_556 S
C2163 C2160 1.347 1_556 S
C2164 C2159 1.490 . S
C2164 C2166 1.395 . S
C2164 C2167 1.403 . S
H2165 C2171 0.930 . S
C2166 H2152 0.930 . S
C2166 C2164 1.395 . S
C2166 C2169 1.403 . S
C2167 C2164 1.403 . S
C2167 C2168 1.524 . S
C2167 C2171 1.400 . S
C2168 H2153 0.960 . S
C2168 H2154 0.960 . S
C2168 H2155 0.960 . S
C2168 C2167 1.524 . S
C2169 C2166 1.403 . S
C2169 C2170 1.392 . S
C2169 C2173 1.495 . S
C2170 C2169 1.392 . S
C2170 C2171 1.385 . S
C2170 C2172 1.478 . S
C2171 H2165 0.930 . S
C2171 C2167 1.400 . S
C2171 C2170 1.385 . S
C2172 C2170 1.478 . S
C2172 C2174 1.381 . S
C2172 C2178 1.383 . S
C2173 C2169 1.495 . S
C2173 H2179 0.959 . S
C2173 H2180 0.961 . S
C2173 H2181 0.960 . S
C2174 C2172 1.381 . S
C2174 C2175 1.394 . S
C2174 H2182 0.930 . S
C2175 C2174 1.394 . S
C2175 C2176 1.383 . S
C2175 H2183 0.929 . S
C2176 C2175 1.383 . S
C2176 C2177 1.377 . S
C2177 H2161 0.930 . S
C2177 C2176 1.377 . S
C2177 C2178 1.379 . S
C2178 H2162 0.931 . S
C2178 C2172 1.383 . S
C2178 C2177 1.379 . S
H2179 C2173 0.959 . S
H2180 C2173 0.961 . S
H2181 C2173 0.960 . S
H2182 C2174 0.930 . S
H2183 C2175 0.929 . S
H2184 C2192 0.929 . S
H2185 C2194 0.930 . S
H2186 C2196 0.930 . S
H2187 C2199 0.929 . S
H2188 C2202 0.930 . S
H2189 C2204 0.960 . S
H2190 C2204 0.960 . S
H2191 C2204 0.960 . S
C2192 H2184 0.929 . S
C2192 C2193 1.377 . S
C2192 C2194 1.384 . S
C2193 C2192 1.377 . S
C2193 C2199 1.390 . S
C2194 H2185 0.930 . S
C2194 C2192 1.384 . S
C2194 C2195 1.372 . S
C2195 C2194 1.372 . S
C2195 C2196 1.400 . S
C2195 C2200 1.490 . S
C2196 H2186 0.930 . S
C2196 C2195 1.400 . S
C2196 C2199 1.386 . S
H2197 C2213 0.930 . S
H2198 C2214 0.931 . S
C2199 H2187 0.929 . S
C2199 C2193 1.390 . S
C2199 C2196 1.386 . S
C2200 C2195 1.490 . S
C2200 C2202 1.395 . S
C2200 C2203 1.403 . S
H2201 C2207 0.930 . S
C2202 H2188 0.930 . S
C2202 C2200 1.395 . S
C2202 C2205 1.403 . S
C2203 C2200 1.403 . S
C2203 C2204 1.524 . S
C2203 C2207 1.400 . S
C2204 H2189 0.960 . S
C2204 H2190 0.960 . S
C2204 H2191 0.960 . S
C2204 C2203 1.524 . S
C2205 C2202 1.403 . S
C2205 C2206 1.392 . S
C2205 C2209 1.495 . S
C2206 C2205 1.392 . S
C2206 C2207 1.385 . S
C2206 C2208 1.478 . S
C2207 H2201 0.930 . S
C2207 C2203 1.400 . S
C2207 C2206 1.385 . S
C2208 C2206 1.478 . S
C2208 C2210 1.381 . S
C2208 C2214 1.383 . S
C2209 C2205 1.495 . S
C2209 H2215 0.959 . S
C2209 H2216 0.961 . S
C2209 H2217 0.960 . S
C2210 C2208 1.381 . S
C2210 C2211 1.394 . S
C2210 H2218 0.930 . S
C2211 C2210 1.394 . S
C2211 C2212 1.383 . S
C2211 H2219 0.929 . S
C2212 C2211 1.383 . S
C2212 C2213 1.377 . S
C2213 H2197 0.930 . S
C2213 C2212 1.377 . S
C2213 C2214 1.379 . S
C2214 H2198 0.931 . S
C2214 C2208 1.383 . S
C2214 C2213 1.379 . S
H2215 C2209 0.959 . S
H2216 C2209 0.961 . S
H2217 C2209 0.960 . S
H2218 C2210 0.930 . S
H2219 C2211 0.929 . S
H2220 C2228 0.929 . S
H2221 C2230 0.930 . S
H2222 C2232 0.930 . S
H2223 C2235 0.929 . S
H2224 C2238 0.930 . S
H2225 C2240 0.960 . S
H2226 C2240 0.960 . S
H2227 C2240 0.960 . S
C2228 H2220 0.929 . S
C2228 C2229 1.377 . S
C2228 C2230 1.384 . S
C2229 C2228 1.377 . S
C2229 C2235 1.390 . S
C2230 H2221 0.930 . S
C2230 C2228 1.384 . S
C2230 C2231 1.372 . S
C2231 C2230 1.372 . S
C2231 C2232 1.400 . S
C2231 C2236 1.490 . S
C2232 H2222 0.930 . S
C2232 C2231 1.400 . S
C2232 C2235 1.386 . S
H2233 C2249 0.930 . S
H2234 C2250 0.931 . S
C2235 H2223 0.929 . S
C2235 C2229 1.390 . S
C2235 C2232 1.386 . S
C2236 C2231 1.490 . S
C2236 C2238 1.395 . S
C2236 C2239 1.403 . S
H2237 C2243 0.930 . S
C2238 H2224 0.930 . S
C2238 C2236 1.395 . S
C2238 C2241 1.403 . S
C2239 C2236 1.403 . S
C2239 C2240 1.524 . S
C2239 C2243 1.400 . S
C2240 H2225 0.960 . S
C2240 H2226 0.960 . S
C2240 H2227 0.960 . S
C2240 C2239 1.524 . S
C2241 C2238 1.403 . S
C2241 C2242 1.392 . S
C2241 C2245 1.495 . S
C2242 C2241 1.392 . S
C2242 C2243 1.385 . S
C2242 C2244 1.478 . S
C2243 H2237 0.930 . S
C2243 C2239 1.400 . S
C2243 C2242 1.385 . S
C2244 C2242 1.478 . S
C2244 C2246 1.381 . S
C2244 C2250 1.383 . S
C2245 C2241 1.495 . S
C2245 H2251 0.959 . S
C2245 H2252 0.961 . S
C2245 H2253 0.960 . S
C2246 C2244 1.381 . S
C2246 C2247 1.394 . S
C2246 H2254 0.930 . S
C2247 C2246 1.394 . S
C2247 C2248 1.383 . S
C2247 H2255 0.929 . S
C2248 C2247 1.383 . S
C2248 C2249 1.377 . S
C2249 H2233 0.930 . S
C2249 C2248 1.377 . S
C2249 C2250 1.379 . S
C2250 H2234 0.931 . S
C2250 C2244 1.383 . S
C2250 C2249 1.379 . S
H2251 C2245 0.959 . S
H2252 C2245 0.961 . S
H2253 C2245 0.960 . S
H2254 C2246 0.930 . S
H2255 C2247 0.929 . S
H2256 C2264 0.929 . S
H2257 C2266 0.930 . S
H2258 C2268 0.930 . S
H2259 C2271 0.929 . S
H2260 C2274 0.930 . S
H2261 C2276 0.960 . S
H2262 C2276 0.960 . S
H2263 C2276 0.960 . S
C2264 H2256 0.929 . S
C2264 C2265 1.377 . S
C2264 C2266 1.384 . S
C2265 C2264 1.377 . S
C2265 C2271 1.390 . S
C2266 H2257 0.930 . S
C2266 C2264 1.384 . S
C2266 C2267 1.372 . S
C2267 C2266 1.372 . S
C2267 C2268 1.400 . S
C2267 C2272 1.490 . S
C2268 H2258 0.930 . S
C2268 C2267 1.400 . S
C2268 C2271 1.386 . S
H2269 C2285 0.930 . S
H2270 C2286 0.931 . S
C2271 H2259 0.929 . S
C2271 C2265 1.390 . S
C2271 C2268 1.386 . S
C2272 C2267 1.490 . S
C2272 C2274 1.395 . S
C2272 C2275 1.403 . S
H2273 C2279 0.930 . S
C2274 H2260 0.930 . S
C2274 C2272 1.395 . S
C2274 C2277 1.403 . S
C2275 C2272 1.403 . S
C2275 C2276 1.524 . S
C2275 C2279 1.400 . S
C2276 H2261 0.960 . S
C2276 H2262 0.960 . S
C2276 H2263 0.960 . S
C2276 C2275 1.524 . S
C2277 C2274 1.403 . S
C2277 C2278 1.392 . S
C2277 C2281 1.495 . S
C2278 C2277 1.392 . S
C2278 C2279 1.385 . S
C2278 C2280 1.478 . S
C2279 H2273 0.930 . S
C2279 C2275 1.400 . S
C2279 C2278 1.385 . S
C2280 C2278 1.478 . S
C2280 C2282 1.381 . S
C2280 C2286 1.383 . S
C2281 C2277 1.495 . S
C2281 H2287 0.959 . S
C2281 H2288 0.961 . S
C2281 H2289 0.960 . S
C2282 C2280 1.381 . S
C2282 C2283 1.394 . S
C2282 H2290 0.930 . S
C2283 C2282 1.394 . S
C2283 C2284 1.383 . S
C2283 H2291 0.929 . S
C2284 C2283 1.383 . S
C2284 C2285 1.377 . S
C2285 H2269 0.930 . S
C2285 C2284 1.377 . S
C2285 C2286 1.379 . S
C2286 H2270 0.931 . S
C2286 C2280 1.383 . S
C2286 C2285 1.379 . S
H2287 C2281 0.959 . S
H2288 C2281 0.961 . S
H2289 C2281 0.960 . S
H2290 C2282 0.930 . S
H2291 C2283 0.929 . S
H2292 C2300 0.929 . S
H2293 C2302 0.930 . S
H2294 C2304 0.930 . S
H2295 C2307 0.929 . S
H2296 C2310 0.930 . S
H2297 C2312 0.960 . S
H2298 C2312 0.960 . S
H2299 C2312 0.960 . S
C2300 H2292 0.929 . S
C2300 C2301 1.377 . S
C2300 C2302 1.384 . S
C2301 C2300 1.377 . S
C2301 C2307 1.390 . S
C2302 H2293 0.930 . S
C2302 C2300 1.384 . S
C2302 C2303 1.372 . S
C2303 C2302 1.372 . S
C2303 C2304 1.400 . S
C2303 C2308 1.490 . S
C2304 H2294 0.930 . S
C2304 C2303 1.400 . S
C2304 C2307 1.386 . S
H2305 C2321 0.930 . S
H2306 C2322 0.931 . S
C2307 H2295 0.929 . S
C2307 C2301 1.390 . S
C2307 C2304 1.386 . S
C2308 C2303 1.490 . S
C2308 C2310 1.395 . S
C2308 C2311 1.403 . S
H2309 C2315 0.930 . S
C2310 H2296 0.930 . S
C2310 C2308 1.395 . S
C2310 C2313 1.403 . S
C2311 C2308 1.403 . S
C2311 C2312 1.524 . S
C2311 C2315 1.400 . S
C2312 H2297 0.960 . S
C2312 H2298 0.960 . S
C2312 H2299 0.960 . S
C2312 C2311 1.524 . S
C2313 C2310 1.403 . S
C2313 C2314 1.392 . S
C2313 C2317 1.495 . S
C2314 C2313 1.392 . S
C2314 C2315 1.385 . S
C2314 C2316 1.478 . S
C2315 H2309 0.930 . S
C2315 C2311 1.400 . S
C2315 C2314 1.385 . S
C2316 C2314 1.478 . S
C2316 C2318 1.381 . S
C2316 C2322 1.383 . S
C2317 C2313 1.495 . S
C2317 H2323 0.959 . S
C2317 H2324 0.961 . S
C2317 H2325 0.960 . S
C2318 C2316 1.381 . S
C2318 C2319 1.394 . S
C2318 H2326 0.930 . S
C2319 C2318 1.394 . S
C2319 C2320 1.383 . S
C2319 H2327 0.929 . S
C2320 C2319 1.383 . S
C2320 C2321 1.377 . S
C2321 H2305 0.930 . S
C2321 C2320 1.377 . S
C2321 C2322 1.379 . S
C2322 H2306 0.931 . S
C2322 C2316 1.383 . S
C2322 C2321 1.379 . S
H2323 C2317 0.959 . S
H2324 C2317 0.961 . S
H2325 C2317 0.960 . S
H2326 C2318 0.930 . S
H2327 C2319 0.929 . S
H2328 C2336 0.929 . S
H2329 C2338 0.930 . S
H2330 C2340 0.930 . S
H2331 C2343 0.929 . S
H2332 C2346 0.930 . S
H2333 C2348 0.960 . S
H2334 C2348 0.934 1_556 S
H2335 C2348 0.960 . S
C2336 H2328 0.929 . S
C2336 C2337 1.377 . S
C2336 C2338 1.384 . S
C2337 C2336 1.377 . S
C2337 C2343 1.390 . S
C2338 H2329 0.930 . S
C2338 C2336 1.384 . S
C2338 C2339 1.372 . S
C2339 C2338 1.372 . S
C2339 C2340 1.400 . S
C2339 C2344 1.490 . S
C2340 H2330 0.930 . S
C2340 C2339 1.400 . S
C2340 C2343 1.386 . S
H2341 C2357 0.930 . S
H2342 C2358 0.928 . S
C2343 H2331 0.929 . S
C2343 C2337 1.390 . S
C2343 C2340 1.386 . S
C2344 C2339 1.490 . S
C2344 C2346 1.395 . S
C2344 C2347 1.403 . S
H2345 C2351 0.930 1_554 S
C2346 H2332 0.930 . S
C2346 C2344 1.395 . S
C2346 C2349 1.403 . S
C2347 C2344 1.403 . S
C2347 C2348 1.524 1_556 S
C2347 C2351 1.400 . S
C2348 H2333 0.960 . S
C2348 H2334 0.934 1_554 S
C2348 H2335 0.960 . S
C2348 C2347 1.524 1_554 S
C2349 C2346 1.403 . S
C2349 C2350 1.392 . S
C2349 C2353 1.495 . S
C2350 C2349 1.392 . S
C2350 C2351 1.385 . S
C2350 C2352 1.478 . S
C2351 H2345 0.930 1_556 S
C2351 C2347 1.400 . S
C2351 C2350 1.385 . S
C2352 C2350 1.478 . S
C2352 C2354 1.381 . S
C2352 C2358 1.386 1_556 S
C2353 C2349 1.495 . S
C2353 H2359 0.959 . S
C2353 H2360 0.961 . S
C2353 H2361 0.960 . S
C2354 C2352 1.381 . S
C2354 C2355 1.394 . S
C2354 H2362 0.930 . S
C2355 C2354 1.394 . S
C2355 C2356 1.383 . S
C2355 H2363 0.929 . S
C2356 C2355 1.383 . S
C2356 C2357 1.377 1_556 S
C2357 H2341 0.930 . S
C2357 C2356 1.377 1_554 S
C2357 C2358 1.379 . S
C2358 H2342 0.928 . S
C2358 C2352 1.386 1_554 S
C2358 C2357 1.379 . S
H2359 C2353 0.959 . S
H2360 C2353 0.961 . S
H2361 C2353 0.960 . S
H2362 C2354 0.930 . S
H2363 C2355 0.929 . S
H2364 C2372 0.929 . S
H2365 C2374 0.930 . S
H2366 C2376 0.930 . S
H2367 C2379 0.929 . S
H2368 C2382 0.930 . S
H2369 C2384 0.960 . S
H2370 C2384 0.960 . S
H2371 C2384 0.960 . S
C2372 H2364 0.929 . S
C2372 C2373 1.377 . S
C2372 C2374 1.384 . S
C2373 C2372 1.377 . S
C2373 C2379 1.390 . S
C2374 H2365 0.930 . S
C2374 C2372 1.384 . S
C2374 C2375 1.372 . S
C2375 C2374 1.372 . S
C2375 C2376 1.400 . S
C2375 C2380 1.490 . S
C2376 H2366 0.930 . S
C2376 C2375 1.400 . S
C2376 C2379 1.386 . S
H2377 C2393 0.930 . S
H2378 C2394 0.931 . S
C2379 H2367 0.929 . S
C2379 C2373 1.390 . S
C2379 C2376 1.386 . S
C2380 C2375 1.490 . S
C2380 C2382 1.395 . S
C2380 C2383 1.403 . S
H2381 C2387 0.930 . S
C2382 H2368 0.930 . S
C2382 C2380 1.395 . S
C2382 C2385 1.403 . S
C2383 C2380 1.403 . S
C2383 C2384 1.524 . S
C2383 C2387 1.400 . S
C2384 H2369 0.960 . S
C2384 H2370 0.960 . S
C2384 H2371 0.960 . S
C2384 C2383 1.524 . S
C2385 C2382 1.403 . S
C2385 C2386 1.392 . S
C2385 C2389 1.495 . S
C2386 C2385 1.392 . S
C2386 C2387 1.385 . S
C2386 C2388 1.478 . S
C2387 H2381 0.930 . S
C2387 C2383 1.400 . S
C2387 C2386 1.385 . S
C2388 C2386 1.478 . S
C2388 C2390 1.381 . S
C2388 C2394 1.383 . S
C2389 C2385 1.495 . S
C2389 H2395 0.959 . S
C2389 H2396 0.961 . S
C2389 H2397 0.960 . S
C2390 C2388 1.381 . S
C2390 C2391 1.394 . S
C2390 H2398 0.930 . S
C2391 C2390 1.394 . S
C2391 C2392 1.383 . S
C2391 H2399 0.929 . S
C2392 C2391 1.383 . S
C2392 C2393 1.377 . S
C2393 H2377 0.930 . S
C2393 C2392 1.377 . S
C2393 C2394 1.379 . S
C2394 H2378 0.931 . S
C2394 C2388 1.383 . S
C2394 C2393 1.379 . S
H2395 C2389 0.959 . S
H2396 C2389 0.961 . S
H2397 C2389 0.960 . S
H2398 C2390 0.930 . S
H2399 C2391 0.929 . S
H2400 C2408 0.929 . S
H2401 C2410 0.930 . S
H2402 C2412 0.930 . S
H2403 C2415 0.929 . S
H2404 C2418 0.930 . S
H2405 C2420 0.960 . S
H2406 C2420 0.960 . S
H2407 C2420 0.960 . S
C2408 H2400 0.929 . S
C2408 C2409 1.377 . S
C2408 C2410 1.384 . S
C2409 C2408 1.377 . S
C2409 C2415 1.390 . S
C2410 H2401 0.930 . S
C2410 C2408 1.384 . S
C2410 C2411 1.372 . S
C2411 C2410 1.372 . S
C2411 C2412 1.400 . S
C2411 C2416 1.490 . S
C2412 H2402 0.930 . S
C2412 C2411 1.400 . S
C2412 C2415 1.386 . S
H2413 C2429 0.930 . S
H2414 C2430 0.931 . S
C2415 H2403 0.929 . S
C2415 C2409 1.390 . S
C2415 C2412 1.386 . S
C2416 C2411 1.490 . S
C2416 C2418 1.395 . S
C2416 C2419 1.403 . S
H2417 C2423 0.930 . S
C2418 H2404 0.930 . S
C2418 C2416 1.395 . S
C2418 C2421 1.403 . S
C2419 C2416 1.403 . S
C2419 C2420 1.524 . S
C2419 C2423 1.400 . S
C2420 H2405 0.960 . S
C2420 H2406 0.960 . S
C2420 H2407 0.960 . S
C2420 C2419 1.524 . S
C2421 C2418 1.403 . S
C2421 C2422 1.392 . S
C2421 C2425 1.495 1_554 S
C2422 C2421 1.392 . S
C2422 C2423 1.385 . S
C2422 C2424 1.478 . S
C2423 H2417 0.930 . S
C2423 C2419 1.400 . S
C2423 C2422 1.385 . S
C2424 C2422 1.478 . S
C2424 C2426 1.381 . S
C2424 C2430 1.383 . S
C2425 C2421 1.495 1_556 S
C2425 H2431 0.959 . S
C2425 H2432 0.961 . S
C2425 H2433 0.960 . S
C2426 C2424 1.381 . S
C2426 C2427 1.394 . S
C2426 H2434 0.930 1_554 S
C2427 C2426 1.394 . S
C2427 C2428 1.383 . S
C2427 H2435 0.929 1_554 S
C2428 C2427 1.383 . S
C2428 C2429 1.377 . S
C2429 H2413 0.930 . S
C2429 C2428 1.377 . S
C2429 C2430 1.379 . S
C2430 H2414 0.931 . S
C2430 C2424 1.383 . S
C2430 C2429 1.379 . S
H2431 C2425 0.959 . S
H2432 C2425 0.961 . S
H2433 C2425 0.960 . S
H2434 C2426 0.930 1_556 S
H2435 C2427 0.929 1_556 S
H2436 C2444 0.929 . S
H2437 C2446 0.930 . S
H2438 C2448 0.930 . S
H2439 C2451 0.929 1_545 S
H2440 C2454 0.930 1_556 S
H2441 C2456 0.960 . S
H2442 C2456 0.960 . S
H2443 C2456 0.960 . S
C2444 H2436 0.929 . S
C2444 C2445 1.377 . S
C2444 C2446 1.384 . S
C2445 C2444 1.377 . S
C2445 C2451 1.390 . S
C2446 H2437 0.930 . S
C2446 C2444 1.384 . S
C2446 C2447 1.372 . S
C2447 C2446 1.372 . S
C2447 C2448 1.400 . S
C2447 C2452 1.490 . S
C2448 H2438 0.930 . S
C2448 C2447 1.400 . S
C2448 C2451 1.386 . S
H2449 C2465 0.930 . S
H2450 C2466 0.931 . S
C2451 H2439 0.929 1_565 S
C2451 C2445 1.390 . S
C2451 C2448 1.386 . S
C2452 C2447 1.490 . S
C2452 C2454 1.395 . S
C2452 C2455 1.403 . S
H2453 C2459 0.930 . S
C2454 H2440 0.930 1_554 S
C2454 C2452 1.395 . S
C2454 C2457 1.403 . S
C2455 C2452 1.403 . S
C2455 C2456 1.524 . S
C2455 C2459 1.400 . S
C2456 H2441 0.960 . S
C2456 H2442 0.960 . S
C2456 H2443 0.960 . S
C2456 C2455 1.524 . S
C2457 C2454 1.403 . S
C2457 C2458 1.392 . S
C2457 C2461 1.495 1_554 S
C2458 C2457 1.392 . S
C2458 C2459 1.385 . S
C2458 C2460 1.478 . S
C2459 H2453 0.930 . S
C2459 C2455 1.400 . S
C2459 C2458 1.385 . S
C2460 C2458 1.478 . S
C2460 C2462 1.381 . S
C2460 C2466 1.383 . S
C2461 C2457 1.495 1_556 S
C2461 H2467 0.959 . S
C2461 H2468 0.961 . S
C2461 H2469 0.960 . S
C2462 C2460 1.381 . S
C2462 C2463 1.394 . S
C2462 H2470 0.949 . S
C2463 C2462 1.394 . S
C2463 C2464 1.383 . S
C2463 H2471 0.907 1_554 S
C2464 C2463 1.383 . S
C2464 C2465 1.377 . S
C2465 H2449 0.930 . S
C2465 C2464 1.377 . S
C2465 C2466 1.379 . S
C2466 H2450 0.931 . S
C2466 C2460 1.383 . S
C2466 C2465 1.379 . S
H2467 C2461 0.959 . S
H2468 C2461 0.961 . S
H2469 C2461 0.960 . S
H2470 C2462 0.949 . S
H2471 C2463 0.907 1_556 S
C772 C584 1.479 . S
C753 C181 1.510 . S
C808 C597 1.471 . S
C789 C247 1.471 1_455 S
C825 C283 1.667 . S
C844 C617 1.553 . S
C880 C631 1.324 . S
C861 C169 1.459 . S
C916 C643 1.520 . S
C897 C361 1.528 . S
C952 C657 1.409 . S
C933 C433 1.406 . S
C969 C421 1.486 . S
C988 C667 1.487 . S
C1024 C682 1.518 . S
C1005 C355 1.548 . S
C1041 C427 1.535 . S
C1060 C696 1.498 . S
C1096 C715 1.383 . S
C1077 C325 1.425 . S
C1113 C385 1.490 . S
C1132 C695 1.484 . S
C1168 C713 1.404 . S
C1149 C463 1.408 . S
C1185 C253 1.675 . S
C1204 C729 1.596 . S
C1221 C145 1.483 . S
C1240 C723 1.468 . S
C1257 C205 1.506 . S
C1276 C727 1.496 . S
C1293 C217 1.526 . S
C1312 C724 1.519 . S
C1329 C139 1.533 . S
C1348 C626 1.504 . S
C1365 C535 1.488 . S
C1384 C625 1.490 . S
C1420 C589 1.365 . S
C1401 C565 1.409 . S
C1456 C603 1.544 . S
C1437 C313 1.657 . S
C1473 C175 1.562 1_545 S
C1492 C640 1.518 . S
C1528 C685 1.523 . S
C1509 C397 1.522 . S
C1564 C639 1.479 . S
C1545 C349 1.472 1_545 S
C1600 C671 1.414 . S
C1581 C457 1.413 . S
C1636 C668 1.490 . S
C1617 C505 1.508 . S
C1653 C571 1.470 . S
C1672 C681 1.461 . S
C1689 C319 1.669 . S
C1708 C645 1.534 . S
C1744 C659 1.368 . S
C1725 C493 1.428 . S
C1761 C109 1.529 . S
C1780 C615 1.527 . S
C1816 C629 1.404 . S
C1797 C1 1.404 1_655 S
C1852 C583 1.472 . S
C1833 C61 1.488 . S
C1888 C598 1.501 . S
C1869 C103 1.551 1_455 S
C1905 C67 1.533 . S
C1924 C710 1.519 . S
C1941 C73 1.427 . S
C1960 C701 1.335 . S
C1977 C133 1.490 . S
C1996 C709 1.491 . S
C2013 C31 1.407 1_556 S
C2032 C699 1.401 . S
C2068 C743 1.603 . S
C2049 C289 1.673 . S
C2104 C737 1.463 . S
C2085 C469 1.483 1_554 S
C2140 C741 1.492 . S
C2121 C529 1.505 . S
C2157 C541 1.527 1_554 S
C2176 C738 1.515 . S
C2193 C391 1.530 . S
C2212 C654 1.485 . S
C2248 C653 1.469 . S
C2229 C211 1.490 . S
C2284 C673 1.367 . S
C2265 C241 1.399 . S
C2320 C687 1.540 . S
C2301 C277 1.657 . S
C2337 C499 1.561 . S
C2356 C612 1.508 . S
C2392 C601 1.519 . S
C2373 C37 1.523 . S
C2409 C97 1.470 . S
C2428 C611 1.462 . S
C2464 C587 1.419 . S
C2445 C25 1.414 1_565 S
