# Generated by pormake.
# Topology tbo, (3,4)-cn, num edge types: 1
# Building blocks:
#     Node 0, Type 0, BuildingBlock: OLANEW_clean_sbu_2, # of connection points: 3
#     Node 1, Type 0, BuildingBlock: OLANEW_clean_sbu_2, # of connection points: 3
#     Node 2, Type 0, BuildingBlock: OLANEW_clean_sbu_2, # of connection points: 3
#     Node 3, Type 0, BuildingBlock: OLANEW_clean_sbu_2, # of connection points: 3
#     Node 4, Type 0, BuildingBlock: OLANEW_clean_sbu_2, # of connection points: 3
#     Node 5, Type 0, BuildingBlock: OLANEW_clean_sbu_2, # of connection points: 3
#     Node 6, Type 0, BuildingBlock: OLANEW_clean_sbu_2, # of connection points: 3
#     Node 7, Type 0, BuildingBlock: OLANEW_clean_sbu_2, # of connection points: 3
#     Node 8, Type 0, BuildingBlock: OLANEW_clean_sbu_2, # of connection points: 3
#     Node 9, Type 0, BuildingBlock: OLANEW_clean_sbu_2, # of connection points: 3
#     Node 10, Type 0, BuildingBlock: OLANEW_clean_sbu_2, # of connection points: 3
#     Node 11, Type 0, BuildingBlock: OLANEW_clean_sbu_2, # of connection points: 3
#     Node 12, Type 0, BuildingBlock: OLANEW_clean_sbu_2, # of connection points: 3
#     Node 13, Type 0, BuildingBlock: OLANEW_clean_sbu_2, # of connection points: 3
#     Node 14, Type 0, BuildingBlock: OLANEW_clean_sbu_2, # of connection points: 3
#     Node 15, Type 0, BuildingBlock: OLANEW_clean_sbu_2, # of connection points: 3
#     Node 16, Type 0, BuildingBlock: OLANEW_clean_sbu_2, # of connection points: 3
#     Node 17, Type 0, BuildingBlock: OLANEW_clean_sbu_2, # of connection points: 3
#     Node 18, Type 0, BuildingBlock: OLANEW_clean_sbu_2, # of connection points: 3
#     Node 19, Type 0, BuildingBlock: OLANEW_clean_sbu_2, # of connection points: 3
#     Node 20, Type 0, BuildingBlock: OLANEW_clean_sbu_2, # of connection points: 3
#     Node 21, Type 0, BuildingBlock: OLANEW_clean_sbu_2, # of connection points: 3
#     Node 22, Type 0, BuildingBlock: OLANEW_clean_sbu_2, # of connection points: 3
#     Node 23, Type 0, BuildingBlock: OLANEW_clean_sbu_2, # of connection points: 3
#     Node 24, Type 0, BuildingBlock: OLANEW_clean_sbu_2, # of connection points: 3
#     Node 25, Type 0, BuildingBlock: OLANEW_clean_sbu_2, # of connection points: 3
#     Node 26, Type 0, BuildingBlock: OLANEW_clean_sbu_2, # of connection points: 3
#     Node 27, Type 0, BuildingBlock: OLANEW_clean_sbu_2, # of connection points: 3
#     Node 28, Type 0, BuildingBlock: OLANEW_clean_sbu_2, # of connection points: 3
#     Node 29, Type 0, BuildingBlock: OLANEW_clean_sbu_2, # of connection points: 3
#     Node 30, Type 0, BuildingBlock: OLANEW_clean_sbu_2, # of connection points: 3
#     Node 31, Type 0, BuildingBlock: OLANEW_clean_sbu_2, # of connection points: 3
#     Node 32, Type 1, BuildingBlock: MUDLON_clean_linker_0, # of connection points: 4
#     Node 33, Type 1, BuildingBlock: MUDLON_clean_linker_0, # of connection points: 4
#     Node 34, Type 1, BuildingBlock: MUDLON_clean_linker_0, # of connection points: 4
#     Node 35, Type 1, BuildingBlock: MUDLON_clean_linker_0, # of connection points: 4
#     Node 36, Type 1, BuildingBlock: MUDLON_clean_linker_0, # of connection points: 4
#     Node 37, Type 1, BuildingBlock: MUDLON_clean_linker_0, # of connection points: 4
#     Node 38, Type 1, BuildingBlock: MUDLON_clean_linker_0, # of connection points: 4
#     Node 39, Type 1, BuildingBlock: MUDLON_clean_linker_0, # of connection points: 4
#     Node 40, Type 1, BuildingBlock: MUDLON_clean_linker_0, # of connection points: 4
#     Node 41, Type 1, BuildingBlock: MUDLON_clean_linker_0, # of connection points: 4
#     Node 42, Type 1, BuildingBlock: MUDLON_clean_linker_0, # of connection points: 4
#     Node 43, Type 1, BuildingBlock: MUDLON_clean_linker_0, # of connection points: 4
#     Node 44, Type 1, BuildingBlock: MUDLON_clean_linker_0, # of connection points: 4
#     Node 45, Type 1, BuildingBlock: MUDLON_clean_linker_0, # of connection points: 4
#     Node 46, Type 1, BuildingBlock: MUDLON_clean_linker_0, # of connection points: 4
#     Node 47, Type 1, BuildingBlock: MUDLON_clean_linker_0, # of connection points: 4
#     Node 48, Type 1, BuildingBlock: MUDLON_clean_linker_0, # of connection points: 4
#     Node 49, Type 1, BuildingBlock: MUDLON_clean_linker_0, # of connection points: 4
#     Node 50, Type 1, BuildingBlock: MUDLON_clean_linker_0, # of connection points: 4
#     Node 51, Type 1, BuildingBlock: MUDLON_clean_linker_0, # of connection points: 4
#     Node 52, Type 1, BuildingBlock: MUDLON_clean_linker_0, # of connection points: 4
#     Node 53, Type 1, BuildingBlock: MUDLON_clean_linker_0, # of connection points: 4
#     Node 54, Type 1, BuildingBlock: MUDLON_clean_linker_0, # of connection points: 4
#     Node 55, Type 1, BuildingBlock: MUDLON_clean_linker_0, # of connection points: 4
#     Edge 56, Type (0, 1), BuildingBlock: XIVTED_clean_linker_0, # of connection points: 2
#     Edge 57, Type (0, 1), BuildingBlock: XIVTED_clean_linker_0, # of connection points: 2
#     Edge 58, Type (0, 1), BuildingBlock: XIVTED_clean_linker_0, # of connection points: 2
#     Edge 59, Type (0, 1), BuildingBlock: XIVTED_clean_linker_0, # of connection points: 2
#     Edge 60, Type (0, 1), BuildingBlock: XIVTED_clean_linker_0, # of connection points: 2
#     Edge 61, Type (0, 1), BuildingBlock: XIVTED_clean_linker_0, # of connection points: 2
#     Edge 62, Type (0, 1), BuildingBlock: XIVTED_clean_linker_0, # of connection points: 2
#     Edge 63, Type (0, 1), BuildingBlock: XIVTED_clean_linker_0, # of connection points: 2
#     Edge 64, Type (0, 1), BuildingBlock: XIVTED_clean_linker_0, # of connection points: 2
#     Edge 65, Type (0, 1), BuildingBlock: XIVTED_clean_linker_0, # of connection points: 2
#     Edge 66, Type (0, 1), BuildingBlock: XIVTED_clean_linker_0, # of connection points: 2
#     Edge 67, Type (0, 1), BuildingBlock: XIVTED_clean_linker_0, # of connection points: 2
#     Edge 68, Type (0, 1), BuildingBlock: XIVTED_clean_linker_0, # of connection points: 2
#     Edge 69, Type (0, 1), BuildingBlock: XIVTED_clean_linker_0, # of connection points: 2
#     Edge 70, Type (0, 1), BuildingBlock: XIVTED_clean_linker_0, # of connection points: 2
#     Edge 71, Type (0, 1), BuildingBlock: XIVTED_clean_linker_0, # of connection points: 2
#     Edge 72, Type (0, 1), BuildingBlock: XIVTED_clean_linker_0, # of connection points: 2
#     Edge 73, Type (0, 1), BuildingBlock: XIVTED_clean_linker_0, # of connection points: 2
#     Edge 74, Type (0, 1), BuildingBlock: XIVTED_clean_linker_0, # of connection points: 2
#     Edge 75, Type (0, 1), BuildingBlock: XIVTED_clean_linker_0, # of connection points: 2
#     Edge 76, Type (0, 1), BuildingBlock: XIVTED_clean_linker_0, # of connection points: 2
#     Edge 77, Type (0, 1), BuildingBlock: XIVTED_clean_linker_0, # of connection points: 2
#     Edge 78, Type (0, 1), BuildingBlock: XIVTED_clean_linker_0, # of connection points: 2
#     Edge 79, Type (0, 1), BuildingBlock: XIVTED_clean_linker_0, # of connection points: 2
#     Edge 80, Type (0, 1), BuildingBlock: XIVTED_clean_linker_0, # of connection points: 2
#     Edge 81, Type (0, 1), BuildingBlock: XIVTED_clean_linker_0, # of connection points: 2
#     Edge 82, Type (0, 1), BuildingBlock: XIVTED_clean_linker_0, # of connection points: 2
#     Edge 83, Type (0, 1), BuildingBlock: XIVTED_clean_linker_0, # of connection points: 2
#     Edge 84, Type (0, 1), BuildingBlock: XIVTED_clean_linker_0, # of connection points: 2
#     Edge 85, Type (0, 1), BuildingBlock: XIVTED_clean_linker_0, # of connection points: 2
#     Edge 86, Type (0, 1), BuildingBlock: XIVTED_clean_linker_0, # of connection points: 2
#     Edge 87, Type (0, 1), BuildingBlock: XIVTED_clean_linker_0, # of connection points: 2
#     Edge 88, Type (0, 1), BuildingBlock: XIVTED_clean_linker_0, # of connection points: 2
#     Edge 89, Type (0, 1), BuildingBlock: XIVTED_clean_linker_0, # of connection points: 2
#     Edge 90, Type (0, 1), BuildingBlock: XIVTED_clean_linker_0, # of connection points: 2
#     Edge 91, Type (0, 1), BuildingBlock: XIVTED_clean_linker_0, # of connection points: 2
#     Edge 92, Type (0, 1), BuildingBlock: XIVTED_clean_linker_0, # of connection points: 2
#     Edge 93, Type (0, 1), BuildingBlock: XIVTED_clean_linker_0, # of connection points: 2
#     Edge 94, Type (0, 1), BuildingBlock: XIVTED_clean_linker_0, # of connection points: 2
#     Edge 95, Type (0, 1), BuildingBlock: XIVTED_clean_linker_0, # of connection points: 2
#     Edge 96, Type (0, 1), BuildingBlock: XIVTED_clean_linker_0, # of connection points: 2
#     Edge 97, Type (0, 1), BuildingBlock: XIVTED_clean_linker_0, # of connection points: 2
#     Edge 98, Type (0, 1), BuildingBlock: XIVTED_clean_linker_0, # of connection points: 2
#     Edge 99, Type (0, 1), BuildingBlock: XIVTED_clean_linker_0, # of connection points: 2
#     Edge 100, Type (0, 1), BuildingBlock: XIVTED_clean_linker_0, # of connection points: 2
#     Edge 101, Type (0, 1), BuildingBlock: XIVTED_clean_linker_0, # of connection points: 2
#     Edge 102, Type (0, 1), BuildingBlock: XIVTED_clean_linker_0, # of connection points: 2
#     Edge 103, Type (0, 1), BuildingBlock: XIVTED_clean_linker_0, # of connection points: 2
#     Edge 104, Type (0, 1), BuildingBlock: XIVTED_clean_linker_0, # of connection points: 2
#     Edge 105, Type (0, 1), BuildingBlock: XIVTED_clean_linker_0, # of connection points: 2
#     Edge 106, Type (0, 1), BuildingBlock: XIVTED_clean_linker_0, # of connection points: 2
#     Edge 107, Type (0, 1), BuildingBlock: XIVTED_clean_linker_0, # of connection points: 2
#     Edge 108, Type (0, 1), BuildingBlock: XIVTED_clean_linker_0, # of connection points: 2
#     Edge 109, Type (0, 1), BuildingBlock: XIVTED_clean_linker_0, # of connection points: 2
#     Edge 110, Type (0, 1), BuildingBlock: XIVTED_clean_linker_0, # of connection points: 2
#     Edge 111, Type (0, 1), BuildingBlock: XIVTED_clean_linker_0, # of connection points: 2
#     Edge 112, Type (0, 1), BuildingBlock: XIVTED_clean_linker_0, # of connection points: 2
#     Edge 113, Type (0, 1), BuildingBlock: XIVTED_clean_linker_0, # of connection points: 2
#     Edge 114, Type (0, 1), BuildingBlock: XIVTED_clean_linker_0, # of connection points: 2
#     Edge 115, Type (0, 1), BuildingBlock: XIVTED_clean_linker_0, # of connection points: 2
#     Edge 116, Type (0, 1), BuildingBlock: XIVTED_clean_linker_0, # of connection points: 2
#     Edge 117, Type (0, 1), BuildingBlock: XIVTED_clean_linker_0, # of connection points: 2
#     Edge 118, Type (0, 1), BuildingBlock: XIVTED_clean_linker_0, # of connection points: 2
#     Edge 119, Type (0, 1), BuildingBlock: XIVTED_clean_linker_0, # of connection points: 2
#     Edge 120, Type (0, 1), BuildingBlock: XIVTED_clean_linker_0, # of connection points: 2
#     Edge 121, Type (0, 1), BuildingBlock: XIVTED_clean_linker_0, # of connection points: 2
#     Edge 122, Type (0, 1), BuildingBlock: XIVTED_clean_linker_0, # of connection points: 2
#     Edge 123, Type (0, 1), BuildingBlock: XIVTED_clean_linker_0, # of connection points: 2
#     Edge 124, Type (0, 1), BuildingBlock: XIVTED_clean_linker_0, # of connection points: 2
#     Edge 125, Type (0, 1), BuildingBlock: XIVTED_clean_linker_0, # of connection points: 2
#     Edge 126, Type (0, 1), BuildingBlock: XIVTED_clean_linker_0, # of connection points: 2
#     Edge 127, Type (0, 1), BuildingBlock: XIVTED_clean_linker_0, # of connection points: 2
#     Edge 128, Type (0, 1), BuildingBlock: XIVTED_clean_linker_0, # of connection points: 2
#     Edge 129, Type (0, 1), BuildingBlock: XIVTED_clean_linker_0, # of connection points: 2
#     Edge 130, Type (0, 1), BuildingBlock: XIVTED_clean_linker_0, # of connection points: 2
#     Edge 131, Type (0, 1), BuildingBlock: XIVTED_clean_linker_0, # of connection points: 2
#     Edge 132, Type (0, 1), BuildingBlock: XIVTED_clean_linker_0, # of connection points: 2
#     Edge 133, Type (0, 1), BuildingBlock: XIVTED_clean_linker_0, # of connection points: 2
#     Edge 134, Type (0, 1), BuildingBlock: XIVTED_clean_linker_0, # of connection points: 2
#     Edge 135, Type (0, 1), BuildingBlock: XIVTED_clean_linker_0, # of connection points: 2
#     Edge 136, Type (0, 1), BuildingBlock: XIVTED_clean_linker_0, # of connection points: 2
#     Edge 137, Type (0, 1), BuildingBlock: XIVTED_clean_linker_0, # of connection points: 2
#     Edge 138, Type (0, 1), BuildingBlock: XIVTED_clean_linker_0, # of connection points: 2
#     Edge 139, Type (0, 1), BuildingBlock: XIVTED_clean_linker_0, # of connection points: 2
#     Edge 140, Type (0, 1), BuildingBlock: XIVTED_clean_linker_0, # of connection points: 2
#     Edge 141, Type (0, 1), BuildingBlock: XIVTED_clean_linker_0, # of connection points: 2
#     Edge 142, Type (0, 1), BuildingBlock: XIVTED_clean_linker_0, # of connection points: 2
#     Edge 143, Type (0, 1), BuildingBlock: XIVTED_clean_linker_0, # of connection points: 2
#     Edge 144, Type (0, 1), BuildingBlock: XIVTED_clean_linker_0, # of connection points: 2
#     Edge 145, Type (0, 1), BuildingBlock: XIVTED_clean_linker_0, # of connection points: 2
#     Edge 146, Type (0, 1), BuildingBlock: XIVTED_clean_linker_0, # of connection points: 2
#     Edge 147, Type (0, 1), BuildingBlock: XIVTED_clean_linker_0, # of connection points: 2
#     Edge 148, Type (0, 1), BuildingBlock: XIVTED_clean_linker_0, # of connection points: 2
#     Edge 149, Type (0, 1), BuildingBlock: XIVTED_clean_linker_0, # of connection points: 2
#     Edge 150, Type (0, 1), BuildingBlock: XIVTED_clean_linker_0, # of connection points: 2
#     Edge 151, Type (0, 1), BuildingBlock: XIVTED_clean_linker_0, # of connection points: 2
# Relax obj value: 0.018
# Max RMSD: 0.139
# Mean RMSD: 0.100
data_MOF--net-tbo--node1-OLANEW_clean_sbu_2--node2-MUDLON_clean_linker_0--edge1-XIVTED_clean_linker_0
_symmetry_space_group_name_H-M    P1
_symmetry_Int_Tables_number       1
_symmetry_cell_setting            triclinic
loop_
_symmetry_equiv_pos_as_xyz
'x, y, z'
_cell_length_a     99.361853
_cell_length_b     101.77943
_cell_length_c     98.622197
_cell_angle_alpha  97.274023
_cell_angle_beta   87.217347
_cell_angle_gamma 99.247197
loop_
_atom_site_label
_atom_site_type_symbol
_atom_site_fract_x
_atom_site_fract_y
_atom_site_fract_z
_atom_type_partial_charge
O0 O 0.21459 0.18014 0.17583 0.0
Cd1 Cd 0.19753 0.16457 0.18704 0.0
O2 O 0.20355 0.1975 0.1786 0.0
Cd3 Cd 0.18523 0.18886 0.18952 0.0
O4 O 0.1657 0.1917 0.19983 0.0
C5 C 0.15635 0.19454 0.19287 0.0
O6 O 0.15843 0.19478 0.17964 0.0
C7 C 0.21391 0.1922 0.17414 0.0
C8 C 0.2097 0.14512 0.19748 0.0
O9 O 0.20664 0.14387 0.18487 0.0
O10 O 0.20694 0.1555 0.20523 0.0
O11 O 0.86834 0.17939 0.16633 0.0
Cd12 Cd 0.84896 0.16338 0.15707 0.0
O13 O 0.86258 0.17433 0.18709 0.0
Cd14 Cd 0.84597 0.15796 0.1818 0.0
O15 O 0.83141 0.14103 0.18758 0.0
C16 C 0.83602 0.13369 0.19517 0.0
O17 O 0.84898 0.1364 0.19824 0.0
C18 C 0.87028 0.18132 0.17913 0.0
C19 C 0.8381 0.17229 0.13503 0.0
O20 O 0.83573 0.17724 0.14735 0.0
O21 O 0.84557 0.16303 0.13303 0.0
O22 O 0.88804 0.84751 0.17303 0.0
Cd23 Cd 0.89749 0.86794 0.18753 0.0
O24 O 0.88082 0.85868 0.15786 0.0
Cd25 Cd 0.88316 0.87742 0.17165 0.0
O26 O 0.87415 0.89149 0.18663 0.0
C27 C 0.86127 0.88875 0.18829 0.0
O28 O 0.85473 0.87813 0.18104 0.0
C29 C 0.88269 0.84761 0.16158 0.0
C30 C 0.91746 0.86351 0.20467 0.0
O31 O 0.90487 0.86244 0.20856 0.0
O32 O 0.92064 0.86667 0.19262 0.0
O33 O 0.27826 0.85343 0.19868 0.0
Cd34 Cd 0.2876 0.83296 0.19079 0.0
O35 O 0.26211 0.8409 0.2092 0.0
Cd36 Cd 0.24362 0.83771 0.22204 0.0
O37 O 0.22497 0.83559 0.23466 0.0
C38 C 0.21351 0.83238 0.22896 0.0
O39 O 0.2132 0.83039 0.21555 0.0
C40 C 0.26779 0.85246 0.20661 0.0
C41 C 0.28566 0.82421 0.16296 0.0
O42 O 0.27623 0.82009 0.17146 0.0
O43 O 0.29581 0.83275 0.1676 0.0
O44 O 0.23828 0.84008 0.83586 0.0
Cd45 Cd 0.23525 0.81586 0.83651 0.0
O46 O 0.21638 0.83709 0.83259 0.0
Cd47 Cd 0.19598 0.84109 0.82883 0.0
O48 O 0.17451 0.83727 0.82355 0.0
C49 C 0.17003 0.84229 0.81383 0.0
O50 O 0.17847 0.85057 0.80701 0.0
C51 C 0.22775 0.84491 0.83342 0.0
C52 C 0.24532 0.80725 0.85917 0.0
O53 O 0.25306 0.80974 0.84872 0.0
O54 O 0.2329 0.80921 0.85907 0.0
O55 O 0.1942 0.18423 0.91578 0.0
Cd56 Cd 0.17987 0.17126 0.8977 0.0
O57 O 0.17943 0.19811 0.92135 0.0
Cd58 Cd 0.16539 0.19038 0.90482 0.0
O59 O 0.15171 0.19419 0.88958 0.0
C60 C 0.15591 0.19511 0.87731 0.0
O61 O 0.16826 0.19269 0.87367 0.0
C62 C 0.19062 0.19421 0.92338 0.0
C63 C 0.19326 0.15231 0.88183 0.0
O64 O 0.19368 0.16411 0.8784 0.0
O65 O 0.18651 0.14948 0.89277 0.0
O66 O 0.84195 0.25174 0.82459 0.0
Cd67 Cd 0.85569 0.25378 0.80363 0.0
O68 O 0.84672 0.23147 0.8245 0.0
Cd69 Cd 0.84421 0.21143 0.83094 0.0
O70 O 0.83935 0.18967 0.82994 0.0
C71 C 0.82757 0.18423 0.83366 0.0
O72 O 0.8187 0.19192 0.83884 0.0
C73 C 0.84071 0.24097 0.83009 0.0
C74 C 0.88307 0.26282 0.80914 0.0
O75 O 0.87479 0.27109 0.80821 0.0
O76 O 0.87838 0.25025 0.80748 0.0
O77 O 0.87244 0.86271 0.85611 0.0
Cd78 Cd 0.85805 0.87675 0.87044 0.0
O79 O 0.86881 0.84746 0.87042 0.0
Cd80 Cd 0.85494 0.85605 0.88564 0.0
O81 O 0.84296 0.84959 0.90351 0.0
C82 C 0.84426 0.83776 0.90553 0.0
O83 O 0.85223 0.83123 0.8971 0.0
C84 C 0.87446 0.85156 0.85955 0.0
C85 C 0.84377 0.89207 0.85628 0.0
O86 O 0.85571 0.89679 0.86072 0.0
O87 O 0.83872 0.88005 0.85832 0.0
O88 O 0.18166 0.66122 0.67039 0.0
Cd89 Cd 0.16456 0.64929 0.6851 0.0
O90 O 0.18732 0.67818 0.68629 0.0
Cd91 Cd 0.16922 0.67297 0.69923 0.0
O92 O 0.14986 0.67868 0.7076 0.0
C93 C 0.144 0.68502 0.6999 0.0
O94 O 0.14958 0.68693 0.68781 0.0
C95 C 0.18933 0.67212 0.67445 0.0
C96 C 0.17532 0.62983 0.69699 0.0
O97 O 0.17002 0.62715 0.68518 0.0
O98 O 0.17547 0.64169 0.70323 0.0
O99 O 0.86245 0.69648 0.66361 0.0
Cd100 Cd 0.84487 0.68522 0.64779 0.0
O101 O 0.85641 0.6797 0.67547 0.0
Cd102 Cd 0.85411 0.66715 0.69213 0.0
O103 O 0.84487 0.65006 0.70253 0.0
C104 C 0.84409 0.65022 0.71544 0.0
O105 O 0.84945 0.66106 0.72322 0.0
C106 C 0.86378 0.69094 0.67421 0.0
C107 C 0.8459 0.69634 0.62333 0.0
O108 O 0.84049 0.70181 0.63422 0.0
O109 O 0.85096 0.68563 0.62398 0.0
O110 O 0.89978 0.34603 0.67073 0.0
Cd111 Cd 0.91614 0.36192 0.6848 0.0
O112 O 0.88455 0.35823 0.67931 0.0
Cd113 Cd 0.8651 0.36536 0.68495 0.0
O114 O 0.85247 0.3788 0.6967 0.0
C115 C 0.8395 0.37688 0.69729 0.0
O116 O 0.83279 0.36617 0.69031 0.0
C117 C 0.88746 0.34806 0.6715 0.0
C118 C 0.93642 0.35042 0.6954 0.0
O119 O 0.92446 0.34976 0.70101 0.0
O120 O 0.93879 0.35636 0.68462 0.0
O121 O 0.29015 0.34185 0.68948 0.0
Cd122 Cd 0.30204 0.32345 0.68003 0.0
O123 O 0.27612 0.32712 0.69977 0.0
Cd124 Cd 0.25823 0.32091 0.71256 0.0
O125 O 0.2403 0.31704 0.72593 0.0
C126 C 0.22914 0.3204 0.72293 0.0
O127 O 0.22866 0.32606 0.71174 0.0
C128 C 0.27997 0.3392 0.69752 0.0
C129 C 0.29026 0.30874 0.65666 0.0
O130 O 0.29985 0.3187 0.65582 0.0
O131 O 0.28611 0.30586 0.6686 0.0
O132 O 0.20095 0.36555 0.38905 0.0
Cd133 Cd 0.18853 0.35203 0.40585 0.0
O134 O 0.18112 0.36517 0.38022 0.0
Cd135 Cd 0.16691 0.36765 0.36485 0.0
O136 O 0.1509 0.3628 0.34988 0.0
C137 C 0.15398 0.35915 0.33748 0.0
O138 O 0.16689 0.35919 0.33384 0.0
C139 C 0.19395 0.36896 0.38 0.0
C140 C 0.20345 0.3341 0.41512 0.0
O141 O 0.19618 0.33068 0.40449 0.0
O142 O 0.20378 0.34603 0.42124 0.0
O143 O 0.18767 0.67095 0.38862 0.0
Cd144 Cd 0.17202 0.66043 0.37056 0.0
O145 O 0.17856 0.6895 0.39192 0.0
Cd146 Cd 0.16337 0.68484 0.37601 0.0
O147 O 0.14888 0.69282 0.36449 0.0
C148 C 0.14078 0.69966 0.37154 0.0
O149 O 0.14107 0.70067 0.38494 0.0
C150 C 0.18727 0.68255 0.39501 0.0
C151 C 0.18242 0.63974 0.35406 0.0
O152 O 0.18444 0.65174 0.35087 0.0
O153 O 0.17547 0.63752 0.36506 0.0
O154 O 0.83198 0.72941 0.29029 0.0
Cd155 Cd 0.84544 0.73083 0.26911 0.0
O156 O 0.84666 0.71764 0.29673 0.0
Cd157 Cd 0.85253 0.70453 0.31057 0.0
O158 O 0.84837 0.68538 0.31884 0.0
C159 C 0.83681 0.68256 0.32478 0.0
O160 O 0.82871 0.69168 0.32662 0.0
C161 C 0.83612 0.72325 0.29931 0.0
C162 C 0.87179 0.74286 0.27593 0.0
O163 O 0.86256 0.74989 0.27414 0.0
O164 O 0.86865 0.73006 0.27414 0.0
O165 O 0.87898 0.35718 0.35226 0.0
Cd166 Cd 0.86145 0.36401 0.36882 0.0
O167 O 0.88442 0.34243 0.36472 0.0
Cd168 Cd 0.86942 0.34534 0.38137 0.0
O169 O 0.85581 0.34018 0.39868 0.0
C170 C 0.85989 0.33281 0.40661 0.0
O171 O 0.87199 0.32921 0.40423 0.0
C172 C 0.88618 0.34829 0.35397 0.0
C173 C 0.84699 0.38215 0.35915 0.0
O174 O 0.8572 0.38632 0.36688 0.0
O175 O 0.84365 0.36947 0.35604 0.0
O176 O 0.69388 0.16978 0.68053 0.0
Cd177 Cd 0.67727 0.15674 0.6948 0.0
O178 O 0.69625 0.18867 0.69448 0.0
Cd179 Cd 0.6782 0.1833 0.70744 0.0
O180 O 0.65977 0.19052 0.71656 0.0
C181 C 0.65033 0.19145 0.70864 0.0
O182 O 0.65158 0.18706 0.69559 0.0
C183 C 0.6998 0.18175 0.68364 0.0
C184 C 0.68919 0.1376 0.70607 0.0
O185 O 0.68505 0.13544 0.69377 0.0
O186 O 0.68764 0.14875 0.71312 0.0
O187 O 0.37707 0.18236 0.67656 0.0
Cd188 Cd 0.35654 0.16569 0.6727 0.0
O189 O 0.38548 0.17191 0.69161 0.0
Cd190 Cd 0.36852 0.15538 0.69142 0.0
O191 O 0.35407 0.14092 0.70148 0.0
C192 C 0.35899 0.13463 0.70991 0.0
O193 O 0.37225 0.13669 0.71148 0.0
C194 C 0.38638 0.18181 0.68477 0.0
C195 C 0.34461 0.16821 0.64834 0.0
O196 O 0.3433 0.17638 0.65914 0.0
O197 O 0.35147 0.15868 0.64899 0.0
O198 O 0.37098 0.84925 0.68639 0.0
Cd199 Cd 0.38192 0.86816 0.702 0.0
O200 O 0.37194 0.86101 0.66902 0.0
Cd201 Cd 0.37633 0.88001 0.68221 0.0
O202 O 0.36737 0.89631 0.69402 0.0
C203 C 0.3564 0.89857 0.68929 0.0
O204 O 0.35193 0.89157 0.67782 0.0
C205 C 0.36918 0.84981 0.6738 0.0
C206 C 0.4015 0.8606 0.71758 0.0
O207 O 0.38906 0.86009 0.72187 0.0
O208 O 0.4047 0.86471 0.70591 0.0
O209 O 0.77462 0.85355 0.68083 0.0
Cd210 Cd 0.78213 0.83266 0.67099 0.0
O211 O 0.75449 0.84242 0.68534 0.0
Cd212 Cd 0.73348 0.84008 0.69343 0.0
O213 O 0.71349 0.83681 0.70368 0.0
C214 C 0.70878 0.84648 0.71073 0.0
O215 O 0.71598 0.85856 0.71153 0.0
C216 C 0.7627 0.85343 0.68612 0.0
C217 C 0.78224 0.82813 0.64257 0.0
O218 O 0.79242 0.83522 0.64888 0.0
O219 O 0.77187 0.82342 0.64971 0.0
O220 O 0.70572 0.89672 0.39855 0.0
Cd221 Cd 0.69234 0.88636 0.41691 0.0
O222 O 0.68778 0.89157 0.38575 0.0
Cd223 Cd 0.67685 0.88859 0.36662 0.0
O224 O 0.66296 0.8788 0.35055 0.0
C225 C 0.65703 0.86705 0.35216 0.0
O226 O 0.65965 0.86178 0.36306 0.0
C227 C 0.70025 0.89669 0.38717 0.0
C228 C 0.70239 0.86327 0.42131 0.0
O229 O 0.69313 0.86281 0.41258 0.0
O230 O 0.70673 0.87463 0.42811 0.0
O231 O 0.6833 0.1549 0.41406 0.0
Cd232 Cd 0.66816 0.13679 0.40107 0.0
O233 O 0.66994 0.16873 0.40933 0.0
Cd234 Cd 0.66326 0.18806 0.40825 0.0
O235 O 0.65523 0.20549 0.40301 0.0
C236 C 0.66324 0.21629 0.40144 0.0
O237 O 0.67632 0.21693 0.40339 0.0
C238 C 0.68039 0.16672 0.41526 0.0
C239 C 0.6813 0.12195 0.38022 0.0
O240 O 0.67643 0.13236 0.37794 0.0
O241 O 0.68012 0.11867 0.3924 0.0
O242 O 0.35374 0.25649 0.33439 0.0
Cd243 Cd 0.3677 0.26497 0.31546 0.0
O244 O 0.36054 0.2369 0.32973 0.0
Cd245 Cd 0.35885 0.21559 0.33186 0.0
O246 O 0.35249 0.19393 0.32844 0.0
C247 C 0.35961 0.18662 0.32067 0.0
O248 O 0.37118 0.19221 0.31535 0.0
C249 C 0.35343 0.24456 0.33707 0.0
C250 C 0.39467 0.27375 0.32276 0.0
O251 O 0.38571 0.28161 0.32486 0.0
O252 O 0.39084 0.26171 0.31724 0.0
O253 O 0.37479 0.85892 0.34513 0.0
Cd254 Cd 0.35466 0.86593 0.35748 0.0
O255 O 0.3751 0.84178 0.35667 0.0
Cd256 Cd 0.35863 0.84506 0.37165 0.0
O257 O 0.34572 0.83893 0.38911 0.0
C258 C 0.35151 0.83847 0.40022 0.0
O259 O 0.36474 0.84246 0.40095 0.0
C260 C 0.37993 0.84868 0.34716 0.0
C261 C 0.3465 0.88779 0.34732 0.0
O262 O 0.35305 0.88944 0.35844 0.0
O263 O 0.34384 0.87591 0.34103 0.0
O264 O 0.70038 0.66518 0.18689 0.0
Cd265 Cd 0.68512 0.65554 0.20457 0.0
O266 O 0.693 0.68466 0.19046 0.0
Cd267 Cd 0.67641 0.67988 0.20528 0.0
O268 O 0.65846 0.68649 0.21611 0.0
C269 C 0.64813 0.68684 0.20911 0.0
O270 O 0.64833 0.68228 0.19604 0.0
C271 C 0.70103 0.67719 0.18426 0.0
C272 C 0.69751 0.63784 0.21749 0.0
O273 O 0.68957 0.6335 0.20749 0.0
O274 O 0.69948 0.65048 0.22142 0.0
O275 O 0.3747 0.67429 0.17675 0.0
Cd276 Cd 0.35736 0.65622 0.16693 0.0
O277 O 0.37991 0.66347 0.19322 0.0
Cd278 Cd 0.36401 0.64616 0.18867 0.0
O279 O 0.34792 0.62978 0.19299 0.0
C280 C 0.35031 0.62276 0.20212 0.0
O281 O 0.36227 0.6254 0.20784 0.0
C282 C 0.38186 0.67382 0.18697 0.0
C283 C 0.34658 0.66423 0.14426 0.0
O284 O 0.34119 0.66638 0.15624 0.0
O285 O 0.35691 0.65804 0.14294 0.0
O286 O 0.42309 0.36129 0.1803 0.0
Cd287 Cd 0.43888 0.37773 0.1945 0.0
O288 O 0.40745 0.3736 0.18743 0.0
Cd289 Cd 0.38728 0.37979 0.19089 0.0
O290 O 0.37046 0.39035 0.19877 0.0
C291 C 0.35933 0.38421 0.20332 0.0
O292 O 0.35769 0.3711 0.20287 0.0
C293 C 0.4108 0.3633 0.18017 0.0
C294 C 0.45625 0.36656 0.20961 0.0
O295 O 0.44404 0.36766 0.2139 0.0
O296 O 0.46022 0.37056 0.19806 0.0
O297 O 0.78665 0.35456 0.19735 0.0
Cd298 Cd 0.79749 0.33624 0.18579 0.0
O299 O 0.77129 0.3394 0.20555 0.0
Cd300 Cd 0.75303 0.33327 0.21787 0.0
O301 O 0.7362 0.33046 0.23275 0.0
C302 C 0.72893 0.33965 0.2359 0.0
O303 O 0.73155 0.35062 0.22987 0.0
C304 C 0.77618 0.35166 0.20494 0.0
C305 C 0.7851 0.324 0.16175 0.0
O306 O 0.78097 0.32008 0.1733 0.0
O307 O 0.79491 0.33386 0.16164 0.0
O308 O 0.69432 0.39329 0.90112 0.0
Cd309 Cd 0.68265 0.3833 0.92062 0.0
O310 O 0.67477 0.39039 0.89091 0.0
Cd311 Cd 0.66223 0.38972 0.87317 0.0
O312 O 0.64904 0.38271 0.85582 0.0
C313 C 0.65417 0.37819 0.84446 0.0
O314 O 0.66743 0.37842 0.84327 0.0
C315 C 0.68756 0.39444 0.89085 0.0
C316 C 0.69646 0.36399 0.92879 0.0
O317 O 0.68718 0.36079 0.91985 0.0
O318 O 0.69916 0.37631 0.9339 0.0
O319 O 0.68644 0.68469 0.89106 0.0
Cd320 Cd 0.67579 0.67638 0.86913 0.0
O321 O 0.67391 0.70078 0.8959 0.0
Cd322 Cd 0.6626 0.69823 0.87705 0.0
O323 O 0.65181 0.70924 0.86453 0.0
C324 C 0.65373 0.72184 0.86809 0.0
O325 O 0.66181 0.7267 0.8783 0.0
C326 C 0.68311 0.69448 0.89916 0.0
C327 C 0.68771 0.65514 0.8555 0.0
O328 O 0.69259 0.66734 0.85407 0.0
O329 O 0.67714 0.65294 0.86334 0.0
O330 O 0.40885 0.67242 0.87132 0.0
Cd331 Cd 0.42855 0.66715 0.85715 0.0
O332 O 0.39564 0.65945 0.8564 0.0
Cd333 Cd 0.37714 0.64839 0.84678 0.0
O334 O 0.36091 0.63691 0.83409 0.0
C335 C 0.34995 0.63113 0.83929 0.0
O336 O 0.34827 0.63221 0.85267 0.0
C337 C 0.3969 0.66748 0.86742 0.0
C338 C 0.44084 0.68988 0.84561 0.0
O339 O 0.43139 0.68153 0.83943 0.0
O340 O 0.4446 0.68735 0.85713 0.0
O341 O 0.37365 0.36405 0.8378 0.0
Cd342 Cd 0.35437 0.37052 0.85222 0.0
O343 O 0.37666 0.34863 0.85068 0.0
Cd344 Cd 0.36137 0.35231 0.86685 0.0
O345 O 0.35055 0.34781 0.88602 0.0
C346 C 0.35192 0.3366 0.88976 0.0
O347 O 0.3593 0.32886 0.88195 0.0
C348 C 0.37992 0.35464 0.84016 0.0
C349 C 0.3401 0.38798 0.84102 0.0
O350 O 0.34909 0.39246 0.85005 0.0
O351 O 0.33796 0.37532 0.8372 0.0
H352 H 0.2912 0.26331 0.98846 0.0
N353 N 0.2855 0.28403 0.00732 0.0
H354 H 0.27459 0.24608 0.97642 0.0
H355 H 0.25876 0.27945 0.0122 0.0
H356 H 0.24202 0.26183 0.00068 0.0
H357 H 0.27874 0.30321 0.99436 0.0
H358 H 0.29124 0.31373 0.97555 0.0
H359 H 0.31174 0.28123 0.99822 0.0
H360 H 0.32441 0.29195 0.97989 0.0
H361 H 0.30111 0.26504 0.0114 0.0
H362 H 0.28233 0.29782 0.0316 0.0
H363 H 0.31017 0.26174 0.03296 0.0
H364 H 0.29026 0.29389 0.05354 0.0
H365 H 0.32088 0.24556 0.10933 0.0
H366 H 0.30348 0.23279 0.12298 0.0
H367 H 0.27498 0.25903 0.11605 0.0
H368 H 0.29262 0.27198 0.10286 0.0
H369 H 0.31186 0.2874 0.11572 0.0
H370 H 0.32753 0.30388 0.12983 0.0
H371 H 0.36159 0.28644 0.11051 0.0
H372 H 0.34573 0.26973 0.09667 0.0
H373 H 0.31266 0.2494 0.07515 0.0
H374 H 0.30467 0.25343 0.05331 0.0
H375 H 0.30808 0.29575 0.06783 0.0
N376 N 0.31866 0.26691 0.09715 0.0
H377 H 0.31488 0.29143 0.08987 0.0
C378 C 0.27615 0.27283 0.00109 0.0
C379 C 0.2805 0.26303 0.99123 0.0
C380 C 0.27096 0.25308 0.98442 0.0
C381 C 0.25691 0.25263 0.98744 0.0
C382 C 0.25271 0.26205 0.99783 0.0
C383 C 0.26224 0.27206 0.00452 0.0
C384 C 0.29419 0.29145 0.99779 0.0
C385 C 0.28882 0.30091 0.99139 0.0
C386 C 0.29601 0.30693 0.98066 0.0
C387 C 0.30881 0.30361 0.9761 0.0
C388 C 0.31447 0.29456 0.98295 0.0
C389 C 0.30723 0.28849 0.99362 0.0
C390 C 0.29131 0.28194 0.01984 0.0
C391 C 0.29901 0.27161 0.02048 0.0
C392 C 0.30398 0.26957 0.03295 0.0
C393 C 0.30099 0.27752 0.04517 0.0
C394 C 0.29313 0.28775 0.04443 0.0
C395 C 0.28847 0.28998 0.03189 0.0
C396 C 0.30804 0.25961 0.10501 0.0
C397 C 0.31086 0.24851 0.11079 0.0
C398 C 0.30087 0.24119 0.11851 0.0
C399 C 0.28777 0.24482 0.12058 0.0
C400 C 0.28499 0.25604 0.11482 0.0
C401 C 0.29503 0.2634 0.10717 0.0
C402 C 0.32766 0.27723 0.10519 0.0
C403 C 0.32268 0.28709 0.11454 0.0
C404 C 0.33168 0.2966 0.12253 0.0
C405 C 0.34583 0.29646 0.12136 0.0
C406 C 0.35076 0.28671 0.11184 0.0
C407 C 0.34174 0.27721 0.10385 0.0
C408 C 0.31452 0.27002 0.0842 0.0
C409 C 0.31164 0.25954 0.07358 0.0
C410 C 0.3072 0.26192 0.06102 0.0
C411 C 0.30578 0.27497 0.05862 0.0
C412 C 0.30879 0.28552 0.06927 0.0
C413 C 0.3129 0.28306 0.08196 0.0
H414 H 0.80465 0.26911 0.95062 0.0
N415 N 0.77888 0.26925 0.95879 0.0
H416 H 0.81323 0.25935 0.92856 0.0
H417 H 0.76341 0.25352 0.93879 0.0
H418 H 0.77187 0.24373 0.91674 0.0
H419 H 0.75096 0.2643 0.958 0.0
H420 H 0.73602 0.28039 0.95458 0.0
H421 H 0.78607 0.29504 0.95617 0.0
H422 H 0.77123 0.31121 0.95255 0.0
H423 H 0.79049 0.27701 0.98261 0.0
H424 H 0.76237 0.24531 0.96138 0.0
H425 H 0.78722 0.26569 0.00322 0.0
H426 H 0.75917 0.23374 0.98189 0.0
H427 H 0.78665 0.24102 0.06091 0.0
H428 H 0.80102 0.2293 0.07246 0.0
H429 H 0.77867 0.19133 0.055 0.0
H430 H 0.7634 0.2034 0.04439 0.0
H431 H 0.75012 0.22866 0.07056 0.0
H432 H 0.74914 0.24687 0.08901 0.0
H433 H 0.76834 0.27528 0.06215 0.0
H434 H 0.77026 0.25721 0.04429 0.0
H435 H 0.7886 0.23807 0.03422 0.0
H436 H 0.79229 0.24582 0.01188 0.0
H437 H 0.74897 0.23682 0.00516 0.0
N438 N 0.7637 0.2299 0.04663 0.0
H439 H 0.74532 0.2286 0.02757 0.0
C440 C 0.78346 0.26218 0.94629 0.0
C441 C 0.79749 0.2634 0.94332 0.0
C442 C 0.80235 0.25776 0.93077 0.0
C443 C 0.79321 0.25082 0.9209 0.0
C444 C 0.77914 0.24915 0.92409 0.0
C445 C 0.77429 0.25472 0.93672 0.0
C446 C 0.76966 0.27853 0.95737 0.0
C447 C 0.75546 0.27452 0.95691 0.0
C448 C 0.74693 0.28373 0.95488 0.0
C449 C 0.75243 0.29709 0.9533 0.0
C450 C 0.76664 0.30106 0.95392 0.0
C451 C 0.77514 0.29184 0.95592 0.0
C452 C 0.77673 0.26203 0.97053 0.0
C453 C 0.78368 0.26754 0.98241 0.0
C454 C 0.78187 0.261 0.99411 0.0
C455 C 0.77302 0.24874 0.99415 0.0
C456 C 0.766 0.2432 0.98219 0.0
C457 C 0.76785 0.24978 0.97045 0.0
C458 C 0.77362 0.22308 0.05204 0.0
C459 C 0.78476 0.23017 0.05957 0.0
C460 C 0.79319 0.22336 0.06605 0.0
C461 C 0.79107 0.20924 0.06484 0.0
C462 C 0.78046 0.20217 0.05655 0.0
C463 C 0.77178 0.20904 0.05032 0.0
C464 C 0.76048 0.24127 0.05602 0.0
C465 C 0.7539 0.23885 0.06859 0.0
C466 C 0.7533 0.24933 0.07914 0.0
C467 C 0.75898 0.26258 0.07722 0.0
C468 C 0.76432 0.26516 0.0642 0.0
C469 C 0.76527 0.25468 0.0538 0.0
C470 C 0.76658 0.23262 0.03263 0.0
C471 C 0.77988 0.23735 0.02788 0.0
C472 C 0.78199 0.24197 0.01511 0.0
C473 C 0.77091 0.24211 0.00683 0.0
C474 C 0.75773 0.23676 0.01126 0.0
C475 C 0.75562 0.23208 0.02405 0.0
H476 H 0.76077 0.78731 0.99591 0.0
N477 N 0.7664 0.76553 0.00527 0.0
H478 H 0.77492 0.80137 0.98063 0.0
H479 H 0.79319 0.76402 0.99737 0.0
H480 H 0.80746 0.77822 0.98266 0.0
H481 H 0.77361 0.74802 0.98369 0.0
H482 H 0.75809 0.73331 0.96794 0.0
H483 H 0.73941 0.76031 0.00773 0.0
H484 H 0.72371 0.74511 0.99237 0.0
H485 H 0.76206 0.77564 0.03091 0.0
H486 H 0.78127 0.74524 0.00658 0.0
H487 H 0.76936 0.76854 0.05172 0.0
H488 H 0.78963 0.73877 0.02715 0.0
H489 H 0.79512 0.75473 0.11302 0.0
H490 H 0.81222 0.7714 0.12491 0.0
H491 H 0.84323 0.75937 0.09596 0.0
H492 H 0.82602 0.74216 0.08419 0.0
H493 H 0.80079 0.71554 0.1024 0.0
H494 H 0.78386 0.70465 0.11799 0.0
H495 H 0.75688 0.73267 0.11204 0.0
H496 H 0.77398 0.74373 0.097 0.0
H497 H 0.79489 0.76235 0.0861 0.0
H498 H 0.7875 0.76901 0.06531 0.0
H499 H 0.78414 0.72795 0.04625 0.0
N500 N 0.79937 0.7371 0.09013 0.0
H501 H 0.79271 0.7216 0.06688 0.0
C502 C 0.77581 0.77462 0.99788 0.0
C503 C 0.77105 0.78543 0.9932 0.0
C504 C 0.77917 0.79348 0.98451 0.0
C505 C 0.79231 0.79087 0.98031 0.0
C506 C 0.7973 0.78037 0.98547 0.0
C507 C 0.78913 0.77227 0.99407 0.0
C508 C 0.75762 0.75546 0.99678 0.0
C509 C 0.76275 0.74738 0.98572 0.0
C510 C 0.75382 0.73885 0.97676 0.0
C511 C 0.7396 0.73812 0.97875 0.0
C512 C 0.73457 0.74565 0.99031 0.0
C513 C 0.7435 0.75425 0.99917 0.0
C514 C 0.77129 0.76118 0.01721 0.0
C515 C 0.76808 0.76758 0.03009 0.0
C516 C 0.77238 0.76355 0.04197 0.0
C517 C 0.78028 0.75313 0.04124 0.0
C518 C 0.78345 0.74669 0.02824 0.0
C519 C 0.77884 0.75054 0.01638 0.0
C520 C 0.80931 0.74689 0.09776 0.0
C521 C 0.80559 0.75537 0.1093 0.0
C522 C 0.81539 0.76497 0.11612 0.0
C523 C 0.82903 0.76658 0.1114 0.0
C524 C 0.83276 0.75829 0.0998 0.0
C525 C 0.82299 0.74846 0.09313 0.0
C526 C 0.78869 0.73036 0.09844 0.0
C527 C 0.79116 0.71923 0.10441 0.0
C528 C 0.78144 0.71299 0.11325 0.0
C529 C 0.769 0.7178 0.11631 0.0
C530 C 0.76642 0.72882 0.11009 0.0
C531 C 0.77616 0.73507 0.10132 0.0
C532 C 0.79468 0.74143 0.07799 0.0
C533 C 0.79281 0.75478 0.07741 0.0
C534 C 0.78833 0.75856 0.06548 0.0
C535 C 0.78518 0.74907 0.05395 0.0
C536 C 0.78676 0.73567 0.05472 0.0
C537 C 0.79155 0.73196 0.06655 0.0
H538 H 0.31486 0.73646 0.93337 0.0
N539 N 0.29169 0.72448 0.94612 0.0
H540 H 0.33191 0.72516 0.92019 0.0
H541 H 0.29101 0.6982 0.93939 0.0
H542 H 0.30812 0.68676 0.92581 0.0
H543 H 0.26969 0.72068 0.93105 0.0
H544 H 0.26099 0.7371 0.91907 0.0
H545 H 0.30169 0.7514 0.94766 0.0
H546 H 0.29309 0.76784 0.93573 0.0
H547 H 0.31628 0.73587 0.95761 0.0
H548 H 0.27429 0.7206 0.9671 0.0
H549 H 0.32111 0.73995 0.98164 0.0
H550 H 0.27886 0.72557 0.99153 0.0
H551 H 0.33798 0.73308 0.04858 0.0
H552 H 0.34139 0.71635 0.06331 0.0
H553 H 0.29802 0.70931 0.07243 0.0
H554 H 0.29482 0.72628 0.05803 0.0
H555 H 0.28849 0.7462 0.04989 0.0
H556 H 0.28037 0.76339 0.06658 0.0
H557 H 0.32212 0.77957 0.07666 0.0
H558 H 0.33004 0.76248 0.0599 0.0
H559 H 0.32458 0.75702 0.0256 0.0
H560 H 0.31819 0.75376 0.00171 0.0
H561 H 0.28957 0.71853 0.0094 0.0
N562 N 0.31501 0.74233 0.04524 0.0
H563 H 0.29535 0.72245 0.03338 0.0
C564 C 0.30162 0.71815 0.93753 0.0
C565 C 0.31318 0.72563 0.9318 0.0
C566 C 0.32299 0.71917 0.92428 0.0
C567 C 0.32135 0.70511 0.92209 0.0
C568 C 0.30959 0.69762 0.92736 0.0
C569 C 0.29987 0.70411 0.93511 0.0
C570 C 0.28632 0.73474 0.94018 0.0
C571 C 0.27472 0.731 0.93223 0.0
C572 C 0.26975 0.7404 0.92546 0.0
C573 C 0.27638 0.75375 0.92645 0.0
C574 C 0.28785 0.75759 0.93468 0.0
C575 C 0.29274 0.7482 0.94155 0.0
C576 C 0.29488 0.72762 0.96042 0.0
C577 C 0.30802 0.7334 0.96481 0.0
C578 C 0.31076 0.73595 0.97872 0.0
C579 C 0.30039 0.73312 0.98865 0.0
C580 C 0.28718 0.72765 0.98423 0.0
C581 C 0.2845 0.72489 0.97027 0.0
C582 C 0.31622 0.73095 0.05219 0.0
C583 C 0.32921 0.72771 0.05355 0.0
C584 C 0.33111 0.71812 0.06195 0.0
C585 C 0.31998 0.71154 0.06915 0.0
C586 C 0.30684 0.71434 0.06722 0.0
C587 C 0.30497 0.72398 0.05888 0.0
C588 C 0.30989 0.75311 0.05374 0.0
C589 C 0.29585 0.75358 0.05558 0.0
C590 C 0.29124 0.76337 0.06514 0.0
C591 C 0.30059 0.77285 0.07297 0.0
C592 C 0.31464 0.77259 0.07067 0.0
C593 C 0.3192 0.7628 0.06117 0.0
C594 C 0.31069 0.73992 0.03127 0.0
C595 C 0.31688 0.74865 0.0221 0.0
C596 C 0.31327 0.74667 0.00841 0.0
C597 C 0.3035 0.73573 0.00348 0.0
C598 C 0.29706 0.72713 0.01279 0.0
C599 C 0.3005 0.72928 0.02657 0.0
H600 H 0.94937 0.27747 0.26598 0.0
N601 N 0.96474 0.28853 0.2451 0.0
H602 H 0.93781 0.28933 0.2848 0.0
H603 H 0.96466 0.31486 0.25026 0.0
H604 H 0.95316 0.32695 0.2694 0.0
H605 H 0.94885 0.28945 0.22436 0.0
H606 H 0.93344 0.27088 0.21224 0.0
H607 H 0.96122 0.26211 0.2496 0.0
H608 H 0.94623 0.24359 0.23742 0.0
H609 H 0.97476 0.28144 0.26837 0.0
H610 H 0.98542 0.28936 0.22692 0.0
H611 H 0.99721 0.27598 0.27093 0.0
H612 H 0.00793 0.28316 0.2292 0.0
H613 H 0.05882 0.27437 0.28746 0.0
H614 H 0.07432 0.2932 0.2989 0.0
H615 H 0.09026 0.30386 0.25951 0.0
H616 H 0.07505 0.28487 0.24826 0.0
H617 H 0.0646 0.26569 0.23369 0.0
H618 H 0.0792 0.2507 0.22139 0.0
H619 H 0.07862 0.2299 0.25708 0.0
H620 H 0.06458 0.24539 0.26943 0.0
H621 H 0.03291 0.254 0.26849 0.0
H622 H 0.01039 0.25895 0.26402 0.0
H623 H 0.02931 0.28981 0.23973 0.0
N624 N 0.05696 0.26658 0.26082 0.0
H625 H 0.05163 0.28425 0.24367 0.0
C626 C 0.95792 0.29529 0.25659 0.0
C627 C 0.95027 0.28825 0.26654 0.0
C628 C 0.94373 0.29508 0.27743 0.0
C629 C 0.94461 0.3091 0.27865 0.0
C630 C 0.95221 0.31613 0.26869 0.0
C631 C 0.95883 0.30927 0.25781 0.0
C632 C 0.95619 0.27724 0.23785 0.0
C633 C 0.94833 0.27943 0.22719 0.0
C634 C 0.93961 0.26881 0.22024 0.0
C635 C 0.93859 0.25576 0.22389 0.0
C636 C 0.94663 0.25355 0.23447 0.0
C637 C 0.95531 0.26415 0.2414 0.0
C638 C 0.97834 0.28606 0.24743 0.0
C639 C 0.9819 0.28212 0.25979 0.0
C640 C 0.99479 0.27875 0.26119 0.0
C641 C 0.0044 0.27897 0.25023 0.0
C642 C 0.00088 0.28301 0.23792 0.0
C643 C 0.98801 0.28654 0.23658 0.0
C644 C 0.06579 0.27816 0.26707 0.0
C645 C 0.06563 0.28084 0.28134 0.0
C646 C 0.07441 0.29166 0.28783 0.0
C647 C 0.08354 0.30005 0.28011 0.0
C648 C 0.08349 0.2975 0.26576 0.0
C649 C 0.07471 0.28665 0.2593 0.0
C650 C 0.06367 0.25672 0.25256 0.0
C651 C 0.06754 0.25784 0.23881 0.0
C652 C 0.07582 0.24917 0.23176 0.0
C653 C 0.08028 0.23917 0.23829 0.0
C654 C 0.07569 0.23766 0.25181 0.0
C655 C 0.06754 0.24639 0.25886 0.0
C656 C 0.04394 0.26881 0.25659 0.0
C657 C 0.03213 0.26167 0.26202 0.0
C658 C 0.01929 0.26465 0.25958 0.0
C659 C 0.018 0.275 0.25174 0.0
C660 C 0.02986 0.28176 0.24578 0.0
C661 C 0.04271 0.27864 0.2481 0.0
H662 H 0.76678 0.06558 0.28104 0.0
N663 N 0.74649 0.04501 0.27241 0.0
H664 H 0.78155 0.0799 0.26662 0.0
H665 H 0.74557 0.0448 0.24552 0.0
H666 H 0.76044 0.05914 0.23092 0.0
H667 H 0.7222 0.05256 0.27177 0.0
H668 H 0.71003 0.06469 0.29027 0.0
H669 H 0.75478 0.05233 0.29907 0.0
H670 H 0.74287 0.06442 0.31733 0.0
H671 H 0.77042 0.04371 0.2847 0.0
H672 H 0.73591 0.01979 0.26409 0.0
H673 H 0.77933 0.02369 0.28805 0.0
H674 H 0.7455 0.9995 0.26609 0.0
H675 H 0.81033 0.95727 0.29057 0.0
H676 H 0.82322 0.94488 0.27296 0.0
H677 H 0.79016 0.94164 0.2452 0.0
H678 H 0.77726 0.95375 0.26301 0.0
H679 H 0.77005 0.93873 0.28299 0.0
H680 H 0.75513 0.92638 0.29906 0.0
H681 H 0.76608 0.95853 0.33136 0.0
H682 H 0.78158 0.97072 0.31539 0.0
H683 H 0.79938 0.98735 0.28397 0.0
H684 H 0.79026 0.00681 0.27848 0.0
H685 H 0.7494 0.98441 0.28003 0.0
N686 N 0.78565 0.96369 0.28883 0.0
H687 H 0.75879 0.96473 0.28409 0.0
C688 C 0.75504 0.05406 0.26432 0.0
C689 C 0.76528 0.06408 0.27014 0.0
C690 C 0.77378 0.07224 0.26186 0.0
C691 C 0.7722 0.0706 0.24762 0.0
C692 C 0.76183 0.06072 0.24186 0.0
C693 C 0.75337 0.05251 0.25015 0.0
C694 C 0.73935 0.05136 0.28391 0.0
C695 C 0.72667 0.05501 0.28175 0.0
C696 C 0.7198 0.06202 0.29229 0.0
C697 C 0.72549 0.06552 0.30528 0.0
C698 C 0.73811 0.06171 0.30751 0.0
C699 C 0.74499 0.05476 0.29695 0.0
C700 C 0.75219 0.03326 0.2745 0.0
C701 C 0.76468 0.03413 0.28092 0.0
C702 C 0.76998 0.02255 0.28255 0.0
C703 C 0.76324 0.00979 0.27732 0.0
C704 C 0.75089 0.00902 0.27057 0.0
C705 C 0.7454 0.02062 0.26932 0.0
C706 C 0.79292 0.95646 0.2781 0.0
C707 C 0.80592 0.95388 0.28066 0.0
C708 C 0.81328 0.94688 0.27056 0.0
C709 C 0.80775 0.9423 0.25764 0.0
C710 C 0.79467 0.94491 0.25508 0.0
C711 C 0.78731 0.95191 0.2652 0.0
C712 C 0.77721 0.95565 0.29805 0.0
C713 C 0.76955 0.94308 0.29355 0.0
C714 C 0.76094 0.93602 0.3027 0.0
C715 C 0.75952 0.94156 0.31636 0.0
C716 C 0.76704 0.9541 0.32084 0.0
C717 C 0.7759 0.96101 0.31178 0.0
C718 C 0.77983 0.97468 0.28476 0.0
C719 C 0.78848 0.98665 0.28293 0.0
C720 C 0.78317 0.99783 0.27997 0.0
C721 C 0.76899 0.99743 0.27913 0.0
C722 C 0.76037 0.98521 0.28049 0.0
C723 C 0.76574 0.97391 0.28302 0.0
H724 H 0.10603 0.80265 0.33716 0.0
N725 N 0.09464 0.80341 0.31362 0.0
H726 H 0.10982 0.78284 0.34724 0.0
H727 H 0.08527 0.77729 0.30377 0.0
H728 H 0.08914 0.75735 0.31371 0.0
H729 H 0.10352 0.78868 0.29065 0.0
H730 H 0.1232 0.79542 0.27605 0.0
H731 H 0.11103 0.82689 0.31568 0.0
H732 H 0.13081 0.83384 0.30091 0.0
H733 H 0.0765 0.81373 0.33053 0.0
H734 H 0.08235 0.79702 0.28868 0.0
H735 H 0.05382 0.81768 0.32538 0.0
H736 H 0.0602 0.80177 0.28317 0.0
H737 H 0.98465 0.81539 0.31664 0.0
H738 H 0.96358 0.79915 0.31761 0.0
H739 H 0.97169 0.78244 0.27611 0.0
H740 H 0.99234 0.79861 0.27514 0.0
H741 H 0.00547 0.81764 0.2671 0.0
H742 H 0.99398 0.82884 0.25154 0.0
H743 H 0.97848 0.85301 0.2862 0.0
H744 H 0.98935 0.84119 0.30161 0.0
H745 H 0.0192 0.8349 0.31076 0.0
H746 H 0.0424 0.83145 0.31457 0.0
H747 H 0.03676 0.79559 0.28546 0.0
N748 N 0.00084 0.81947 0.29483 0.0
H749 H 0.01413 0.79971 0.28104 0.0
C750 C 0.09546 0.79146 0.31975 0.0
C751 C 0.10215 0.79278 0.33212 0.0
C752 C 0.10425 0.78146 0.33786 0.0
C753 C 0.09979 0.76853 0.33125 0.0
C754 C 0.09279 0.76719 0.31896 0.0
C755 C 0.09055 0.77856 0.3133 0.0
C756 C 0.10579 0.80732 0.30432 0.0
C757 C 0.10932 0.79858 0.29296 0.0
C758 C 0.12056 0.80248 0.28454 0.0
C759 C 0.12856 0.81517 0.28732 0.0
C760 C 0.12492 0.82395 0.29858 0.0
C761 C 0.11361 0.82005 0.30697 0.0
C762 C 0.08123 0.80527 0.31004 0.0
C763 C 0.07292 0.81105 0.3202 0.0
C764 C 0.06001 0.81343 0.31716 0.0
C765 C 0.05516 0.81025 0.30378 0.0
C766 C 0.06347 0.80426 0.29362 0.0
C767 C 0.0763 0.80166 0.29674 0.0
C768 C 0.9902 0.80818 0.29594 0.0
C769 C 0.98205 0.80794 0.30793 0.0
C770 C 0.97001 0.79874 0.30843 0.0
C771 C 0.966 0.78954 0.29693 0.0
C772 C 0.97461 0.78926 0.28521 0.0
C773 C 0.98652 0.79854 0.28467 0.0
C774 C 0.99796 0.82841 0.28553 0.0
C775 C 0.99982 0.82553 0.2713 0.0
C776 C 0.99329 0.83202 0.26241 0.0
C777 C 0.98498 0.84157 0.26764 0.0
C778 C 0.98445 0.84541 0.28184 0.0
C779 C 0.99081 0.83882 0.29067 0.0
C780 C 0.01478 0.81751 0.29584 0.0
C781 C 0.02309 0.82641 0.30509 0.0
C782 C 0.0363 0.8243 0.30736 0.0
C783 C 0.04145 0.81306 0.30054 0.0
C784 C 0.03325 0.8044 0.29087 0.0
C785 C 0.02011 0.80668 0.28842 0.0
H786 H 0.29771 0.96077 0.27396 0.0
N787 N 0.27727 0.97403 0.28584 0.0
H788 H 0.31235 0.94942 0.2856 0.0
H789 H 0.28138 0.977 0.31262 0.0
H790 H 0.29708 0.96664 0.3246 0.0
H791 H 0.25619 0.95579 0.29169 0.0
H792 H 0.24667 0.93552 0.27703 0.0
H793 H 0.28212 0.96879 0.25801 0.0
H794 H 0.27326 0.94861 0.2437 0.0
H795 H 0.2988 0.98451 0.26991 0.0
H796 H 0.26275 0.99367 0.29278 0.0
H797 H 0.30203 0.00626 0.2616 0.0
H798 H 0.26657 0.0161 0.28563 0.0
H799 H 0.31357 0.08218 0.24433 0.0
H800 H 0.32686 0.10105 0.25813 0.0
H801 H 0.30398 0.08954 0.29433 0.0
H802 H 0.29054 0.07093 0.28036 0.0
H803 H 0.27327 0.07816 0.26618 0.0
H804 H 0.25731 0.08938 0.25592 0.0
H805 H 0.27001 0.07247 0.21574 0.0
H806 H 0.28685 0.06218 0.22624 0.0
H807 H 0.3116 0.04999 0.2565 0.0
H808 H 0.30859 0.02865 0.26572 0.0
H809 H 0.26492 0.02835 0.26818 0.0
N810 N 0.2928 0.06484 0.25258 0.0
H811 H 0.26818 0.05021 0.26023 0.0
C812 C 0.28809 0.96951 0.29243 0.0
C813 C 0.29748 0.96218 0.28501 0.0
C814 C 0.30608 0.95575 0.29178 0.0
C815 C 0.30587 0.95681 0.30618 0.0
C816 C 0.29727 0.96512 0.31354 0.0
C817 C 0.2884 0.97126 0.30672 0.0
C818 C 0.26996 0.96384 0.27613 0.0
C819 C 0.25961 0.95444 0.28108 0.0
C820 C 0.2543 0.9428 0.27272 0.0
C821 C 0.25936 0.94026 0.25922 0.0
C822 C 0.26897 0.9502 0.25396 0.0
C823 C 0.27417 0.96186 0.26228 0.0
C824 C 0.28033 0.98735 0.28178 0.0
C825 C 0.29164 0.99129 0.27329 0.0
C826 C 0.29358 0.00391 0.26867 0.0
C827 C 0.28453 0.01311 0.27282 0.0
C828 C 0.27356 0.00927 0.28182 0.0
C829 C 0.27143 0.9965 0.2861 0.0
C830 C 0.30112 0.07517 0.26127 0.0
C831 C 0.31156 0.08369 0.25526 0.0
C832 C 0.31918 0.0944 0.26319 0.0
C833 C 0.31649 0.09681 0.27735 0.0
C834 C 0.30621 0.08806 0.28343 0.0
C835 C 0.29857 0.07736 0.27548 0.0
C836 C 0.28155 0.06957 0.24693 0.0
C837 C 0.27265 0.07686 0.25517 0.0
C838 C 0.26333 0.08317 0.24922 0.0
C839 C 0.26241 0.08209 0.2349 0.0
C840 C 0.27066 0.07395 0.22677 0.0
C841 C 0.28019 0.06788 0.23273 0.0
C842 C 0.29023 0.05186 0.25761 0.0
C843 C 0.30138 0.04534 0.25913 0.0
C844 C 0.29959 0.033 0.26429 0.0
C845 C 0.28647 0.02655 0.26769 0.0
C846 C 0.27523 0.03302 0.266 0.0
C847 C 0.27708 0.04559 0.26121 0.0
H848 H 0.06367 0.75682 0.76558 0.0
N849 N 0.0509 0.77201 0.75074 0.0
H850 H 0.07644 0.73906 0.75626 0.0
H851 H 0.05072 0.75997 0.72522 0.0
H852 H 0.0628 0.7416 0.71581 0.0
H853 H 0.07037 0.78937 0.74053 0.0
H854 H 0.08857 0.80453 0.75285 0.0
H855 H 0.05275 0.77742 0.77876 0.0
H856 H 0.07042 0.79289 0.79113 0.0
H857 H 0.03848 0.75685 0.77025 0.0
H858 H 0.03148 0.78306 0.74118 0.0
H859 H 0.01464 0.75505 0.77796 0.0
H860 H 0.00737 0.78066 0.74812 0.0
H861 H 0.9326 0.74037 0.78142 0.0
H862 H 0.9177 0.72778 0.76357 0.0
H863 H 0.93741 0.75368 0.73454 0.0
H864 H 0.95198 0.76632 0.75249 0.0
H865 H 0.94173 0.7822 0.76982 0.0
H866 H 0.93011 0.79889 0.78351 0.0
H867 H 0.93804 0.7825 0.82016 0.0
H868 H 0.94918 0.76545 0.80624 0.0
H869 H 0.96841 0.74353 0.77909 0.0
H870 H 0.99249 0.74569 0.77213 0.0
H871 H 0.99191 0.78675 0.76527 0.0
N872 N 0.95179 0.76147 0.77918 0.0
H873 H 0.96771 0.78415 0.77136 0.0
C874 C 0.05646 0.75993 0.746 0.0
C875 C 0.06332 0.75348 0.75473 0.0
C876 C 0.07056 0.7432 0.74936 0.0
C877 C 0.07091 0.739 0.7352 0.0
C878 C 0.06313 0.74481 0.72669 0.0
C879 C 0.05608 0.75521 0.73205 0.0
C880 C 0.06014 0.78225 0.75861 0.0
C881 C 0.07022 0.79029 0.7516 0.0
C882 C 0.08058 0.79899 0.75868 0.0
C883 C 0.08104 0.79989 0.77301 0.0
C884 C 0.07055 0.79229 0.78008 0.0
C885 C 0.06027 0.78349 0.77298 0.0
C886 C 0.03677 0.77024 0.75521 0.0
C887 C 0.03177 0.76216 0.76546 0.0
C888 C 0.01805 0.76104 0.76976 0.0
C889 C 0.00897 0.76774 0.76372 0.0
C890 C 0.01403 0.7756 0.75328 0.0
C891 C 0.02779 0.77689 0.74917 0.0
C892 C 0.94338 0.75422 0.76831 0.0
C893 C 0.93367 0.74327 0.77118 0.0
C894 C 0.92525 0.73607 0.76096 0.0
C895 C 0.92637 0.73971 0.74761 0.0
C896 C 0.93615 0.7507 0.74474 0.0
C897 C 0.94457 0.7579 0.75498 0.0
C898 C 0.94616 0.77239 0.78702 0.0
C899 C 0.94101 0.78219 0.78079 0.0
C900 C 0.93445 0.79184 0.78867 0.0
C901 C 0.93297 0.79197 0.80295 0.0
C902 C 0.9387 0.78253 0.80917 0.0
C903 C 0.94518 0.77285 0.80127 0.0
C904 C 0.96624 0.76365 0.77592 0.0
C905 C 0.97354 0.753 0.77613 0.0
C906 C 0.98735 0.75431 0.77223 0.0
C907 C 0.99427 0.76643 0.76815 0.0
C908 C 0.98694 0.77719 0.76812 0.0
C909 C 0.97305 0.77578 0.7718 0.0
H910 H 0.29871 0.0781 0.81023 0.0
N911 N 0.27442 0.06314 0.8065 0.0
H912 H 0.31332 0.08982 0.79337 0.0
H913 H 0.2687 0.06343 0.77953 0.0
H914 H 0.28323 0.07477 0.76268 0.0
H915 H 0.25316 0.0723 0.79578 0.0
H916 H 0.23743 0.08585 0.80837 0.0
H917 H 0.27275 0.07002 0.83327 0.0
H918 H 0.25705 0.08365 0.84599 0.0
H919 H 0.28724 0.04537 0.81583 0.0
H920 H 0.25381 0.04854 0.79085 0.0
H921 H 0.28352 0.02107 0.80988 0.0
H922 H 0.25074 0.02453 0.78381 0.0
H923 H 0.28507 0.95594 0.78165 0.0
H924 H 0.30256 0.94756 0.7664 0.0
H925 H 0.28274 0.95737 0.73177 0.0
H926 H 0.26485 0.96525 0.74718 0.0
H927 H 0.24339 0.94382 0.76739 0.0
H928 H 0.23503 0.92542 0.78077 0.0
H929 H 0.25973 0.94562 0.81442 0.0
H930 H 0.26838 0.96374 0.80072 0.0
H931 H 0.28548 0.98157 0.78354 0.0
H932 H 0.28735 0.00508 0.79222 0.0
H933 H 0.24378 0.00295 0.78866 0.0
N934 N 0.26223 0.96493 0.77413 0.0
H935 H 0.24224 0.97952 0.77884 0.0
C936 C 0.28265 0.06987 0.79623 0.0
C937 C 0.29531 0.07738 0.79986 0.0
C938 C 0.30365 0.08398 0.79019 0.0
C939 C 0.29945 0.0832 0.77665 0.0
C940 C 0.2867 0.07571 0.77305 0.0
C941 C 0.27838 0.06912 0.78272 0.0
C942 C 0.26423 0.0702 0.81362 0.0
C943 C 0.25404 0.07461 0.80673 0.0
C944 C 0.24507 0.08243 0.81394 0.0
C945 C 0.24603 0.08588 0.82817 0.0
C946 C 0.25594 0.08106 0.83506 0.0
C947 C 0.26495 0.07333 0.82783 0.0
C948 C 0.27103 0.04879 0.80361 0.0
C949 C 0.27912 0.04078 0.80901 0.0
C950 C 0.27707 0.0269 0.80543 0.0
C951 C 0.26699 0.02072 0.7961 0.0
C952 C 0.25854 0.02879 0.79109 0.0
C953 C 0.26041 0.04265 0.79496 0.0
C954 C 0.27347 0.96106 0.76551 0.0
C955 C 0.28445 0.9563 0.77079 0.0
C956 C 0.29458 0.95163 0.76203 0.0
C957 C 0.29405 0.95169 0.74781 0.0
C958 C 0.28334 0.95693 0.74263 0.0
C959 C 0.27316 0.96153 0.75141 0.0
C960 C 0.25643 0.95513 0.78302 0.0
C961 C 0.24682 0.94433 0.77773 0.0
C962 C 0.24201 0.93387 0.78544 0.0
C963 C 0.2467 0.93401 0.7987 0.0
C964 C 0.25603 0.9451 0.80419 0.0
C965 C 0.26089 0.95554 0.79641 0.0
C966 C 0.2637 0.97876 0.78018 0.0
C967 C 0.27632 0.98611 0.78445 0.0
C968 C 0.27734 0.99964 0.78967 0.0
C969 C 0.26573 0.00609 0.79115 0.0
C970 C 0.25303 0.99852 0.78738 0.0
C971 C 0.25208 0.98507 0.78186 0.0
H972 H 0.00444 0.29002 0.7793 0.0
N973 N 0.0198 0.31423 0.78815 0.0
H974 H 0.98261 0.28071 0.78883 0.0
H975 H 0.00799 0.32307 0.81159 0.0
H976 H 0.98587 0.31364 0.82137 0.0
H977 H 0.01376 0.33782 0.78411 0.0
H978 H 0.00422 0.34347 0.76356 0.0
H979 H 0.01956 0.29935 0.76296 0.0
H980 H 0.00943 0.30469 0.7425 0.0
H981 H 0.02596 0.28848 0.78596 0.0
H982 H 0.04315 0.33035 0.79309 0.0
H983 H 0.04771 0.28229 0.79048 0.0
H984 H 0.06535 0.32424 0.79671 0.0
H985 H 0.11144 0.2646 0.79342 0.0
H986 H 0.11479 0.24472 0.80362 0.0
H987 H 0.11303 0.26694 0.84386 0.0
H988 H 0.10961 0.28673 0.83354 0.0
H989 H 0.13314 0.30498 0.81491 0.0
H990 H 0.15337 0.31162 0.80062 0.0
H991 H 0.13278 0.28974 0.7651 0.0
H992 H 0.11272 0.28326 0.77936 0.0
H993 H 0.09166 0.2748 0.78907 0.0
H994 H 0.07011 0.28084 0.78314 0.0
H995 H 0.07672 0.31605 0.81305 0.0
N996 N 0.11004 0.28952 0.80718 0.0
H997 H 0.09871 0.31034 0.81814 0.0
C998 C 0.00797 0.30729 0.79478 0.0
C999 C 0.00074 0.29513 0.78867 0.0
C1000 C 0.98819 0.28974 0.79419 0.0
C1001 C 0.98248 0.29644 0.80586 0.0
C1002 C 0.98996 0.3083 0.81231 0.0
C1003 C 0.00261 0.31364 0.80681 0.0
C1004 C 0.01713 0.31814 0.77513 0.0
C1005 C 0.01328 0.33074 0.77491 0.0
C1006 C 0.00784 0.33394 0.76318 0.0
C1007 C 0.00598 0.32445 0.75151 0.0
C1008 C 0.01067 0.31212 0.75142 0.0
C1009 C 0.01641 0.30905 0.7631 0.0
C1010 C 0.03279 0.30998 0.78949 0.0
C1011 C 0.0344 0.2964 0.78837 0.0
C1012 C 0.047 0.29283 0.79083 0.0
C1013 C 0.05835 0.30274 0.79416 0.0
C1014 C 0.05681 0.3163 0.79459 0.0
C1015 C 0.04416 0.31984 0.79238 0.0
C1016 C 0.11037 0.27719 0.81278 0.0
C1017 C 0.11157 0.26514 0.80443 0.0
C1018 C 0.11355 0.25379 0.81028 0.0
C1019 C 0.11424 0.25426 0.82455 0.0
C1020 C 0.11239 0.26617 0.83285 0.0
C1021 C 0.1105 0.2775 0.82699 0.0
C1022 C 0.1214 0.29374 0.79826 0.0
C1023 C 0.133 0.30174 0.80402 0.0
C1024 C 0.14454 0.30543 0.79586 0.0
C1025 C 0.14466 0.3012 0.78173 0.0
C1026 C 0.13294 0.29331 0.77593 0.0
C1027 C 0.12143 0.28956 0.78411 0.0
C1028 C 0.09689 0.29228 0.80392 0.0
C1029 C 0.08855 0.2839 0.79421 0.0
C1030 C 0.07611 0.28731 0.79095 0.0
C1031 C 0.07163 0.29903 0.79751 0.0
C1032 C 0.07992 0.30716 0.80748 0.0
C1033 C 0.09243 0.30386 0.81054 0.0
H1034 H 0.79244 0.97062 0.78728 0.0
N1035 N 0.76454 0.96492 0.78542 0.0
H1036 H 0.80635 0.95988 0.80097 0.0
H1037 H 0.75591 0.95012 0.8053 0.0
H1038 H 0.76972 0.9397 0.81942 0.0
H1039 H 0.74038 0.95269 0.77617 0.0
H1040 H 0.73593 0.93513 0.75667 0.0
H1041 H 0.78362 0.95508 0.76757 0.0
H1042 H 0.7793 0.93781 0.7483 0.0
H1043 H 0.78149 0.97744 0.76635 0.0
H1044 H 0.75258 0.98411 0.79954 0.0
H1045 H 0.78278 0.00033 0.76168 0.0
H1046 H 0.75455 0.00761 0.79557 0.0
H1047 H 0.79236 0.07879 0.75867 0.0
H1048 H 0.80351 0.09773 0.77404 0.0
H1049 H 0.77895 0.08303 0.80796 0.0
H1050 H 0.76775 0.0642 0.79242 0.0
H1051 H 0.7512 0.07188 0.77759 0.0
H1052 H 0.73512 0.08238 0.76671 0.0
H1053 H 0.74981 0.06621 0.72701 0.0
H1054 H 0.76683 0.05679 0.73817 0.0
H1055 H 0.79169 0.04498 0.76232 0.0
H1056 H 0.79083 0.02246 0.7686 0.0
H1057 H 0.74833 0.02172 0.78089 0.0
N1058 N 0.77205 0.05993 0.7647 0.0
H1059 H 0.74967 0.04465 0.77549 0.0
C1060 C 0.77307 0.96107 0.7952 0.0
C1061 C 0.7874 0.96408 0.79444 0.0
C1062 C 0.79537 0.95794 0.80233 0.0
C1063 C 0.78917 0.94873 0.81115 0.0
C1064 C 0.77485 0.94647 0.81251 0.0
C1065 C 0.76693 0.95254 0.80458 0.0
C1066 C 0.76227 0.9553 0.77334 0.0
C1067 C 0.74887 0.94956 0.77 0.0
C1068 C 0.74637 0.93952 0.75892 0.0
C1069 C 0.75727 0.93516 0.75091 0.0
C1070 C 0.77067 0.94112 0.75411 0.0
C1071 C 0.77315 0.95101 0.76523 0.0
C1072 C 0.76671 0.97889 0.78322 0.0
C1073 C 0.7755 0.98383 0.77278 0.0
C1074 C 0.77635 0.99712 0.7702 0.0
C1075 C 0.76873 0.00596 0.77819 0.0
C1076 C 0.76035 0.0011 0.78897 0.0
C1077 C 0.75932 0.9877 0.79138 0.0
C1078 C 0.77927 0.07015 0.77437 0.0
C1079 C 0.78956 0.07959 0.76946 0.0
C1080 C 0.79595 0.09034 0.77828 0.0
C1081 C 0.79211 0.09189 0.79224 0.0
C1082 C 0.78204 0.08218 0.79724 0.0
C1083 C 0.77569 0.07138 0.7884 0.0
C1084 C 0.76055 0.06384 0.75866 0.0
C1085 C 0.75099 0.07057 0.76655 0.0
C1086 C 0.74159 0.07648 0.76023 0.0
C1087 C 0.74121 0.07548 0.74586 0.0
C1088 C 0.75004 0.0677 0.73806 0.0
C1089 C 0.75968 0.0621 0.74441 0.0
C1090 C 0.77074 0.04642 0.76818 0.0
C1091 C 0.7822 0.03991 0.76638 0.0
C1092 C 0.78163 0.02698 0.7699 0.0
C1093 C 0.76945 0.02007 0.77511 0.0
C1094 C 0.75795 0.0267 0.77705 0.0
C1095 C 0.75862 0.0398 0.77377 0.0
H1096 H 0.28927 0.72962 0.47083 0.0
N1097 N 0.28637 0.74911 0.49083 0.0
H1098 H 0.2717 0.71677 0.45576 0.0
H1099 H 0.25871 0.74971 0.49356 0.0
H1100 H 0.24118 0.7367 0.47898 0.0
H1101 H 0.27361 0.76898 0.48335 0.0
H1102 H 0.28391 0.78721 0.47051 0.0
H1103 H 0.31248 0.75539 0.48368 0.0
H1104 H 0.32287 0.77348 0.47057 0.0
H1105 H 0.29744 0.73598 0.50786 0.0
H1106 H 0.27226 0.76658 0.50706 0.0
H1107 H 0.29546 0.73835 0.5328 0.0
H1108 H 0.26917 0.76823 0.53171 0.0
H1109 H 0.28463 0.73871 0.60395 0.0
H1110 H 0.27165 0.72119 0.61637 0.0
H1111 H 0.23422 0.73481 0.60815 0.0
H1112 H 0.24731 0.75254 0.59603 0.0
H1113 H 0.27248 0.77672 0.61459 0.0
H1114 H 0.2911 0.78978 0.62827 0.0
H1115 H 0.3202 0.76989 0.60282 0.0
H1116 H 0.30147 0.75658 0.58939 0.0
H1117 H 0.27887 0.73581 0.5762 0.0
H1118 H 0.28158 0.73373 0.55143 0.0
H1119 H 0.27876 0.77584 0.55233 0.0
N1120 N 0.27426 0.7584 0.59317 0.0
H1121 H 0.27488 0.77745 0.57702 0.0
C1122 C 0.27543 0.74061 0.48337 0.0
C1123 C 0.27874 0.73104 0.47276 0.0
C1124 C 0.26868 0.72368 0.46419 0.0
C1125 C 0.25502 0.72576 0.46609 0.0
C1126 C 0.25163 0.735 0.47707 0.0
C1127 C 0.26171 0.7424 0.48556 0.0
C1128 C 0.29232 0.76079 0.48448 0.0
C1129 C 0.2844 0.77 0.48082 0.0
C1130 C 0.2903 0.78038 0.47336 0.0
C1131 C 0.30421 0.78178 0.46943 0.0
C1132 C 0.31217 0.77282 0.47355 0.0
C1133 C 0.30627 0.76245 0.48099 0.0
C1134 C 0.28489 0.75092 0.50554 0.0
C1135 C 0.29133 0.74309 0.51309 0.0
C1136 C 0.29005 0.74438 0.52736 0.0
C1137 C 0.28204 0.75342 0.53444 0.0
C1138 C 0.27562 0.76131 0.52678 0.0
C1139 C 0.2772 0.76023 0.51254 0.0
C1140 C 0.2669 0.74709 0.59926 0.0
C1141 C 0.27364 0.73791 0.60479 0.0
C1142 C 0.26622 0.7279 0.61187 0.0
C1143 C 0.25194 0.7267 0.61328 0.0
C1144 C 0.24521 0.73546 0.60715 0.0
C1145 C 0.25264 0.74559 0.60028 0.0
C1146 C 0.28557 0.76585 0.60091 0.0
C1147 C 0.28287 0.77516 0.61201 0.0
C1148 C 0.29349 0.78254 0.61983 0.0
C1149 C 0.30707 0.78083 0.61657 0.0
C1150 C 0.30982 0.77145 0.60547 0.0
C1151 C 0.29914 0.76388 0.59779 0.0
C1152 C 0.27635 0.75678 0.57848 0.0
C1153 C 0.27862 0.74455 0.57107 0.0
C1154 C 0.28038 0.74343 0.55682 0.0
C1155 C 0.28032 0.75459 0.54968 0.0
C1156 C 0.27848 0.76689 0.55727 0.0
C1157 C 0.27638 0.7679 0.57144 0.0
H1158 H 0.83111 0.78565 0.53139 0.0
N1159 N 0.81817 0.76446 0.51623 0.0
H1160 H 0.82161 0.7996 0.55019 0.0
H1161 H 0.79093 0.764 0.52261 0.0
H1162 H 0.78118 0.77829 0.54099 0.0
H1163 H 0.80237 0.7457 0.53026 0.0
H1164 H 0.81062 0.73126 0.54482 0.0
H1165 H 0.84376 0.76057 0.51822 0.0
H1166 H 0.85213 0.74645 0.53339 0.0
H1167 H 0.82206 0.77904 0.49562 0.0
H1168 H 0.79992 0.74182 0.50704 0.0
H1169 H 0.81074 0.77485 0.47373 0.0
H1170 H 0.78907 0.73733 0.48512 0.0
H1171 H 0.77944 0.77703 0.43339 0.0
H1172 H 0.76686 0.79558 0.43285 0.0
H1173 H 0.73039 0.7674 0.42239 0.0
H1174 H 0.74326 0.74881 0.42259 0.0
H1175 H 0.76618 0.72562 0.4144 0.0
H1176 H 0.77691 0.71812 0.39236 0.0
H1177 H 0.7979 0.75841 0.39031 0.0
H1178 H 0.78706 0.76587 0.41194 0.0
H1179 H 0.79699 0.75941 0.43141 0.0
H1180 H 0.80924 0.76131 0.45233 0.0
H1181 H 0.77218 0.74502 0.47314 0.0
N1182 N 0.76945 0.75021 0.42793 0.0
H1183 H 0.76 0.74252 0.45178 0.0
C1184 C 0.8118 0.77382 0.52561 0.0
C1185 C 0.82017 0.7842 0.53329 0.0
C1186 C 0.81468 0.79221 0.54399 0.0
C1187 C 0.80059 0.79006 0.5472 0.0
C1188 C 0.79209 0.78009 0.53898 0.0
C1189 C 0.79764 0.77198 0.52835 0.0
C1190 C 0.82248 0.75403 0.52284 0.0
C1191 C 0.81321 0.7455 0.53031 0.0
C1192 C 0.81794 0.73729 0.53873 0.0
C1193 C 0.83199 0.73774 0.54016 0.0
C1194 C 0.84124 0.7459 0.53238 0.0
C1195 C 0.83649 0.75388 0.52369 0.0
C1196 C 0.812 0.76082 0.50304 0.0
C1197 C 0.81495 0.76986 0.49332 0.0
C1198 C 0.80851 0.76739 0.48078 0.0
C1199 C 0.79899 0.75571 0.47762 0.0
C1200 C 0.7962 0.74651 0.48727 0.0
C1201 C 0.80256 0.74906 0.49988 0.0
C1202 C 0.76225 0.76146 0.42801 0.0
C1203 C 0.76875 0.7748 0.43099 0.0
C1204 C 0.7615 0.78543 0.43077 0.0
C1205 C 0.74759 0.78299 0.42762 0.0
C1206 C 0.74112 0.76965 0.4247 0.0
C1207 C 0.74841 0.75901 0.42488 0.0
C1208 C 0.77584 0.74623 0.41492 0.0
C1209 C 0.77307 0.73281 0.40914 0.0
C1210 C 0.77915 0.72856 0.39659 0.0
C1211 C 0.78829 0.73769 0.38975 0.0
C1212 C 0.79101 0.75115 0.39548 0.0
C1213 C 0.78475 0.75543 0.40786 0.0
C1214 C 0.77745 0.75064 0.43989 0.0
C1215 C 0.79144 0.75597 0.4403 0.0
C1216 C 0.79848 0.75723 0.45241 0.0
C1217 C 0.79171 0.75341 0.46449 0.0
C1218 C 0.77779 0.74789 0.46401 0.0
C1219 C 0.77079 0.7465 0.45184 0.0
H1220 H 0.82031 0.25498 0.58976 0.0
N1221 N 0.79329 0.25064 0.59208 0.0
H1222 H 0.83618 0.2723 0.60285 0.0
H1223 H 0.78632 0.27074 0.61097 0.0
H1224 H 0.80207 0.28788 0.6244 0.0
H1225 H 0.76606 0.25248 0.59677 0.0
H1226 H 0.75022 0.23967 0.61181 0.0
H1227 H 0.79838 0.23204 0.60687 0.0
H1228 H 0.7826 0.21952 0.62233 0.0
H1229 H 0.79451 0.23495 0.56855 0.0
H1230 H 0.78175 0.272 0.58637 0.0
H1231 H 0.78745 0.23868 0.54609 0.0
H1232 H 0.77508 0.27606 0.56396 0.0
H1233 H 0.78443 0.25779 0.4823 0.0
H1234 H 0.80108 0.2704 0.46798 0.0
H1235 H 0.78714 0.30716 0.48539 0.0
H1236 H 0.77031 0.29434 0.4997 0.0
H1237 H 0.74329 0.2706 0.48783 0.0
H1238 H 0.72868 0.25348 0.47318 0.0
H1239 H 0.75342 0.22403 0.48072 0.0
H1240 H 0.76816 0.24126 0.4949 0.0
H1241 H 0.78791 0.25693 0.50612 0.0
H1242 H 0.79426 0.25291 0.52857 0.0
H1243 H 0.7585 0.26823 0.54659 0.0
N1244 N 0.76563 0.26794 0.50025 0.0
H1245 H 0.75243 0.27263 0.52399 0.0
C1246 C 0.80221 0.26151 0.59944 0.0
C1247 C 0.81631 0.26223 0.59723 0.0
C1248 C 0.82533 0.27206 0.6048 0.0
C1249 C 0.82041 0.2814 0.61481 0.0
C1250 C 0.80622 0.28092 0.61672 0.0
C1251 C 0.79719 0.27108 0.6091 0.0
C1252 C 0.78344 0.24305 0.6005 0.0
C1253 C 0.76976 0.24517 0.60209 0.0
C1254 C 0.76069 0.23787 0.61072 0.0
C1255 C 0.76521 0.22862 0.61818 0.0
C1256 C 0.77888 0.22662 0.61671 0.0
C1257 C 0.78786 0.2337 0.60787 0.0
C1258 C 0.78878 0.25319 0.5791 0.0
C1259 C 0.79023 0.24391 0.56758 0.0
C1260 C 0.78628 0.24612 0.55475 0.0
C1261 C 0.78078 0.25773 0.55317 0.0
C1262 C 0.77916 0.26696 0.56481 0.0
C1263 C 0.78309 0.26471 0.57764 0.0
C1264 C 0.7761 0.27516 0.49213 0.0
C1265 C 0.785 0.26855 0.48316 0.0
C1266 C 0.79458 0.27581 0.47499 0.0
C1267 C 0.79545 0.28979 0.47554 0.0
C1268 C 0.78664 0.29638 0.48462 0.0
C1269 C 0.77709 0.28911 0.49285 0.0
C1270 C 0.75674 0.25727 0.49256 0.0
C1271 C 0.74546 0.26041 0.48638 0.0
C1272 C 0.7371 0.25059 0.47806 0.0
C1273 C 0.73985 0.23734 0.47574 0.0
C1274 C 0.75109 0.23416 0.48211 0.0
C1275 C 0.75948 0.24401 0.49038 0.0
C1276 C 0.76969 0.26523 0.51336 0.0
C1277 C 0.78144 0.25951 0.51485 0.0
C1278 C 0.78501 0.25709 0.52774 0.0
C1279 C 0.7769 0.26024 0.53943 0.0
C1280 C 0.7651 0.26586 0.53787 0.0
C1281 C 0.76157 0.26831 0.52497 0.0
H1282 H 0.30784 0.25177 0.45453 0.0
N1283 N 0.28208 0.24343 0.4615 0.0
H1284 H 0.31978 0.24579 0.43287 0.0
H1285 H 0.27248 0.22349 0.44137 0.0
H1286 H 0.2842 0.21776 0.41945 0.0
H1287 H 0.25619 0.23604 0.45187 0.0
H1288 H 0.24166 0.25095 0.44455 0.0
H1289 H 0.28715 0.26997 0.46309 0.0
H1290 H 0.2728 0.28496 0.45568 0.0
H1291 H 0.29312 0.22158 0.46624 0.0
H1292 H 0.2615 0.24505 0.48092 0.0
H1293 H 0.28838 0.20899 0.48569 0.0
H1294 H 0.25689 0.23237 0.50018 0.0
H1295 H 0.29191 0.21846 0.55916 0.0
H1296 H 0.30712 0.20921 0.57231 0.0
H1297 H 0.28269 0.16997 0.56416 0.0
H1298 H 0.26674 0.17976 0.55179 0.0
H1299 H 0.25403 0.20675 0.57309 0.0
H1300 H 0.25362 0.22637 0.59 0.0
H1301 H 0.27359 0.25169 0.56056 0.0
H1302 H 0.27489 0.23215 0.54422 0.0
H1303 H 0.29119 0.21078 0.53342 0.0
H1304 H 0.29286 0.21663 0.51031 0.0
H1305 H 0.24894 0.20988 0.50835 0.0
N1306 N 0.2674 0.20565 0.54898 0.0
H1307 H 0.24724 0.20386 0.53176 0.0
C1308 C 0.28927 0.23827 0.44944 0.0
C1309 C 0.30276 0.24413 0.44703 0.0
C1310 C 0.30955 0.24066 0.4347 0.0
C1311 C 0.30287 0.23136 0.42448 0.0
C1312 C 0.28952 0.22503 0.42714 0.0
C1313 C 0.28281 0.22834 0.4396 0.0
C1314 C 0.27277 0.25195 0.45805 0.0
C1315 C 0.25986 0.2467 0.45274 0.0
C1316 C 0.25158 0.25524 0.44853 0.0
C1317 C 0.25607 0.26916 0.44951 0.0
C1318 C 0.26893 0.27434 0.45498 0.0
C1319 C 0.27716 0.26581 0.45918 0.0
C1320 C 0.27734 0.23411 0.47141 0.0
C1321 C 0.28479 0.22377 0.4732 0.0
C1322 C 0.28219 0.21658 0.48447 0.0
C1323 C 0.2722 0.21962 0.4944 0.0
C1324 C 0.26444 0.22957 0.49252 0.0
C1325 C 0.26709 0.23684 0.48133 0.0
C1326 C 0.27793 0.19984 0.55469 0.0
C1327 C 0.28981 0.20784 0.56011 0.0
C1328 C 0.29868 0.20243 0.56755 0.0
C1329 C 0.29619 0.18878 0.56951 0.0
C1330 C 0.28482 0.18059 0.56323 0.0
C1331 C 0.27575 0.18611 0.55599 0.0
C1332 C 0.26456 0.21775 0.55737 0.0
C1333 C 0.25806 0.21657 0.57021 0.0
C1334 C 0.2578 0.22786 0.57987 0.0
C1335 C 0.26383 0.24066 0.57678 0.0
C1336 C 0.26924 0.24197 0.56348 0.0
C1337 C 0.2698 0.23068 0.55397 0.0
C1338 C 0.26898 0.20679 0.53447 0.0
C1339 C 0.28185 0.21011 0.52803 0.0
C1340 C 0.28283 0.21347 0.51469 0.0
C1341 C 0.27103 0.21375 0.50752 0.0
C1342 C 0.25821 0.20981 0.51367 0.0
C1343 C 0.25722 0.2063 0.52698 0.0
H1344 H 0.768 0.46849 0.82038 0.0
N1345 N 0.77164 0.46324 0.79351 0.0
H1346 H 0.75161 0.45605 0.83541 0.0
H1347 H 0.75248 0.44119 0.78553 0.0
H1348 H 0.73661 0.42845 0.80061 0.0
H1349 H 0.76388 0.45527 0.76702 0.0
H1350 H 0.77564 0.44162 0.74956 0.0
H1351 H 0.7947 0.45384 0.79584 0.0
H1352 H 0.80645 0.44002 0.77851 0.0
H1353 H 0.78719 0.487 0.79816 0.0
H1354 H 0.74841 0.46768 0.78223 0.0
H1355 H 0.78174 0.50885 0.79439 0.0
H1356 H 0.74274 0.4895 0.77858 0.0
H1357 H 0.76182 0.56955 0.79943 0.0
H1358 H 0.75045 0.58533 0.81465 0.0
H1359 H 0.71272 0.5707 0.79386 0.0
H1360 H 0.72422 0.55473 0.77862 0.0
H1361 H 0.74872 0.56437 0.75495 0.0
H1362 H 0.76655 0.5792 0.74381 0.0
H1363 H 0.79553 0.57324 0.77286 0.0
H1364 H 0.77768 0.55856 0.78395 0.0
H1365 H 0.76168 0.54632 0.80018 0.0
H1366 H 0.76626 0.52424 0.80377 0.0
H1367 H 0.74949 0.50782 0.76449 0.0
N1368 N 0.75065 0.55287 0.77732 0.0
H1369 H 0.74472 0.53004 0.76106 0.0
C1370 C 0.76169 0.45571 0.80189 0.0
C1371 C 0.76111 0.45981 0.81599 0.0
C1372 C 0.75176 0.45276 0.82453 0.0
C1373 C 0.74297 0.44131 0.81911 0.0
C1374 C 0.74339 0.43722 0.80498 0.0
C1375 C 0.75252 0.44449 0.79639 0.0
C1376 C 0.7785 0.45563 0.78276 0.0
C1377 C 0.77323 0.45209 0.76958 0.0
C1378 C 0.7799 0.44419 0.75963 0.0
C1379 C 0.79199 0.43974 0.76263 0.0
C1380 C 0.79727 0.44343 0.77578 0.0
C1381 C 0.79056 0.45127 0.78572 0.0
C1382 C 0.76826 0.47578 0.79046 0.0
C1383 C 0.77752 0.48751 0.7938 0.0
C1384 C 0.77433 0.49997 0.79175 0.0
C1385 C 0.76175 0.50094 0.78629 0.0
C1386 C 0.75255 0.4891 0.78271 0.0
C1387 C 0.75576 0.47662 0.7848 0.0
C1388 C 0.74386 0.56092 0.78778 0.0
C1389 C 0.75107 0.5695 0.79824 0.0
C1390 C 0.74456 0.57863 0.80691 0.0
C1391 C 0.73072 0.57938 0.80536 0.0
C1392 C 0.72337 0.57032 0.79537 0.0
C1393 C 0.72991 0.56121 0.78666 0.0
C1394 C 0.7618 0.56035 0.77024 0.0
C1395 C 0.75897 0.56612 0.75876 0.0
C1396 C 0.76918 0.57455 0.7524 0.0
C1397 C 0.78244 0.57743 0.75749 0.0
C1398 C 0.78537 0.57134 0.7688 0.0
C1399 C 0.77517 0.56286 0.77511 0.0
C1400 C 0.75277 0.53985 0.7803 0.0
C1401 C 0.75885 0.53801 0.79237 0.0
C1402 C 0.76158 0.52535 0.79438 0.0
C1403 C 0.75832 0.51427 0.78438 0.0
C1404 C 0.75201 0.5161 0.77245 0.0
C1405 C 0.74932 0.52877 0.77045 0.0
H1406 H 0.24762 0.56186 0.77439 0.0
N1407 N 0.25384 0.54532 0.75153 0.0
H1408 H 0.26373 0.57725 0.78893 0.0
H1409 H 0.28081 0.54987 0.74848 0.0
H1410 H 0.29714 0.56511 0.76322 0.0
H1411 H 0.25544 0.55431 0.72739 0.0
H1412 H 0.23926 0.56613 0.71778 0.0
H1413 H 0.22856 0.5488 0.76251 0.0
H1414 H 0.21237 0.56082 0.75308 0.0
H1415 H 0.24346 0.53788 0.77623 0.0
H1416 H 0.25698 0.52277 0.73591 0.0
H1417 H 0.2413 0.51542 0.78328 0.0
H1418 H 0.25458 0.50018 0.74283 0.0
H1419 H 0.2459 0.44356 0.80376 0.0
H1420 H 0.26373 0.43604 0.81585 0.0
H1421 H 0.294 0.45221 0.78699 0.0
H1422 H 0.27625 0.46011 0.77526 0.0
H1423 H 0.26365 0.45149 0.7559 0.0
H1424 H 0.26427 0.43123 0.74008 0.0
H1425 H 0.23155 0.41025 0.76336 0.0
H1426 H 0.23135 0.43061 0.77952 0.0
H1427 H 0.25902 0.47804 0.79358 0.0
H1428 H 0.25855 0.50009 0.78672 0.0
H1429 H 0.23632 0.48187 0.75089 0.0
N1430 N 0.24864 0.45358 0.77993 0.0
H1431 H 0.2365 0.45983 0.75769 0.0
C1432 C 0.26304 0.55473 0.76025 0.0
C1433 C 0.25837 0.56253 0.77179 0.0
C1434 C 0.26763 0.57128 0.78019 0.0
C1435 C 0.28173 0.57241 0.77725 0.0
C1436 C 0.28635 0.56463 0.76567 0.0
C1437 C 0.27707 0.55587 0.75728 0.0
C1438 C 0.24327 0.55076 0.74565 0.0
C1439 C 0.24593 0.55549 0.73291 0.0
C1440 C 0.23667 0.56221 0.72744 0.0
C1441 C 0.22457 0.56446 0.73471 0.0
C1442 C 0.22168 0.55935 0.74732 0.0
C1443 C 0.23091 0.55246 0.7527 0.0
C1444 C 0.25053 0.53202 0.75552 0.0
C1445 C 0.2458 0.52973 0.76883 0.0
C1446 C 0.24462 0.51689 0.77288 0.0
C1447 C 0.2479 0.50609 0.76364 0.0
C1448 C 0.25194 0.5083 0.75016 0.0
C1449 C 0.2533 0.52116 0.74618 0.0
C1450 C 0.25964 0.45225 0.78853 0.0
C1451 C 0.25644 0.44589 0.80035 0.0
C1452 C 0.26662 0.44158 0.80721 0.0
C1453 C 0.28019 0.4434 0.80223 0.0
C1454 C 0.28357 0.45054 0.79093 0.0
C1455 C 0.27343 0.45506 0.78422 0.0
C1456 C 0.24748 0.44255 0.76901 0.0
C1457 C 0.25649 0.4426 0.75753 0.0
C1458 C 0.25674 0.431 0.74839 0.0
C1459 C 0.24802 0.41907 0.75049 0.0
C1460 C 0.23854 0.41923 0.76156 0.0
C1461 C 0.23831 0.43086 0.77072 0.0
C1462 C 0.24882 0.46685 0.77565 0.0
C1463 C 0.25431 0.4786 0.78405 0.0
C1464 C 0.25385 0.49131 0.78025 0.0
C1465 C 0.24766 0.49267 0.76811 0.0
C1466 C 0.24152 0.4811 0.7601 0.0
C1467 C 0.2418 0.46842 0.76397 0.0
H1468 H 0.26334 0.55968 0.27829 0.0
N1469 N 0.24293 0.54043 0.26726 0.0
H1470 H 0.28191 0.57205 0.26586 0.0
H1471 H 0.24771 0.53823 0.24033 0.0
H1472 H 0.26648 0.55064 0.22771 0.0
H1473 H 0.22257 0.55231 0.26099 0.0
H1474 H 0.21079 0.56829 0.27582 0.0
H1475 H 0.24634 0.54747 0.29494 0.0
H1476 H 0.23468 0.5634 0.30975 0.0
H1477 H 0.26489 0.53687 0.28161 0.0
H1478 H 0.22765 0.51638 0.26309 0.0
H1479 H 0.27013 0.5158 0.28723 0.0
H1480 H 0.23252 0.4951 0.26931 0.0
H1481 H 0.29596 0.45976 0.28601 0.0
H1482 H 0.31013 0.44822 0.26897 0.0
H1483 H 0.27384 0.42394 0.25168 0.0
H1484 H 0.25982 0.43543 0.26887 0.0
H1485 H 0.27673 0.44636 0.3119 0.0
H1486 H 0.26333 0.43082 0.32622 0.0
H1487 H 0.22896 0.42753 0.3001 0.0
H1488 H 0.24245 0.44329 0.28595 0.0
H1489 H 0.27169 0.47799 0.30563 0.0
H1490 H 0.26409 0.49877 0.30148 0.0
H1491 H 0.24744 0.47907 0.2631 0.0
N1492 N 0.26908 0.45484 0.28961 0.0
H1493 H 0.2545 0.45822 0.26772 0.0
C1494 C 0.25409 0.54796 0.26021 0.0
C1495 C 0.2639 0.55758 0.26727 0.0
C1496 C 0.2746 0.56462 0.26014 0.0
C1497 C 0.2757 0.56227 0.24581 0.0
C1498 C 0.26584 0.55273 0.23875 0.0
C1499 C 0.25517 0.54561 0.24592 0.0
C1500 C 0.23526 0.5486 0.27678 0.0
C1501 C 0.2251 0.55454 0.27168 0.0
C1502 C 0.21847 0.56374 0.28013 0.0
C1503 C 0.22186 0.56716 0.29394 0.0
C1504 C 0.23175 0.56088 0.29919 0.0
C1505 C 0.23844 0.55173 0.2907 0.0
C1506 C 0.24588 0.52823 0.27173 0.0
C1507 C 0.25774 0.52787 0.27883 0.0
C1508 C 0.26067 0.51574 0.2822 0.0
C1509 C 0.25177 0.50367 0.27873 0.0
C1510 C 0.23973 0.50413 0.27195 0.0
C1511 C 0.23686 0.51629 0.26849 0.0
C1512 C 0.2769 0.44844 0.27877 0.0
C1513 C 0.2911 0.45203 0.27845 0.0
C1514 C 0.29915 0.44547 0.26866 0.0
C1515 C 0.29312 0.43512 0.25897 0.0
C1516 C 0.27882 0.43174 0.2591 0.0
C1517 C 0.27077 0.43835 0.26889 0.0
C1518 C 0.2606 0.446 0.29795 0.0
C1519 C 0.26629 0.44231 0.30933 0.0
C1520 C 0.25864 0.43335 0.31742 0.0
C1521 C 0.24509 0.42786 0.31425 0.0
C1522 C 0.23933 0.43167 0.30287 0.0
C1523 C 0.24703 0.44064 0.29475 0.0
C1524 C 0.26388 0.46665 0.28694 0.0
C1525 C 0.26631 0.47819 0.29638 0.0
C1526 C 0.26203 0.49006 0.29393 0.0
C1527 C 0.2553 0.4907 0.28185 0.0
C1528 C 0.2525 0.47896 0.27256 0.0
C1529 C 0.25666 0.46702 0.27511 0.0
H1530 H 0.7905 0.45535 0.28975 0.0
N1531 N 0.76589 0.46175 0.30029 0.0
H1532 H 0.80584 0.44403 0.30085 0.0
H1533 H 0.76536 0.45807 0.3266 0.0
H1534 H 0.78093 0.44669 0.33788 0.0
H1535 H 0.74655 0.44044 0.30055 0.0
H1536 H 0.74156 0.42187 0.28227 0.0
H1537 H 0.77516 0.46171 0.27359 0.0
H1538 H 0.7707 0.44315 0.25557 0.0
H1539 H 0.78906 0.47839 0.29258 0.0
H1540 H 0.74618 0.4767 0.30292 0.0
H1541 H 0.79035 0.50135 0.28774 0.0
H1542 H 0.74734 0.49975 0.29771 0.0
H1543 H 0.80071 0.56702 0.27877 0.0
H1544 H 0.81196 0.58639 0.29339 0.0
H1545 H 0.77469 0.58748 0.31783 0.0
H1546 H 0.76339 0.5687 0.30258 0.0
H1547 H 0.74713 0.55639 0.28462 0.0
H1548 H 0.73244 0.56839 0.27305 0.0
H1549 H 0.76587 0.58015 0.24527 0.0
H1550 H 0.78043 0.56804 0.2568 0.0
H1551 H 0.785 0.53641 0.2654 0.0
H1552 H 0.7828 0.51328 0.27063 0.0
H1553 H 0.75659 0.52285 0.30555 0.0
N1554 N 0.77454 0.55651 0.27936 0.0
H1555 H 0.75856 0.54576 0.3 0.0
C1556 C 0.77661 0.45755 0.30733 0.0
C1557 C 0.78839 0.45382 0.30033 0.0
C1558 C 0.79717 0.44725 0.30667 0.0
C1559 C 0.79447 0.44432 0.32016 0.0
C1560 C 0.78327 0.44886 0.32748 0.0
C1561 C 0.77439 0.45536 0.32107 0.0
C1562 C 0.76127 0.45241 0.28855 0.0
C1563 C 0.75152 0.44122 0.2906 0.0
C1564 C 0.7488 0.43058 0.28018 0.0
C1565 C 0.7559 0.4309 0.2675 0.0
C1566 C 0.76494 0.44257 0.26514 0.0
C1567 C 0.76757 0.45323 0.27552 0.0
C1568 C 0.76746 0.47574 0.29826 0.0
C1569 C 0.7799 0.48292 0.29393 0.0
C1570 C 0.78061 0.49609 0.29099 0.0
C1571 C 0.76893 0.50238 0.29223 0.0
C1572 C 0.75657 0.49527 0.29678 0.0
C1573 C 0.75587 0.4821 0.29974 0.0
C1574 C 0.7813 0.56637 0.28959 0.0
C1575 C 0.7951 0.57131 0.28746 0.0
C1576 C 0.80152 0.58235 0.29592 0.0
C1577 C 0.79424 0.58861 0.30681 0.0
C1578 C 0.78057 0.58309 0.30942 0.0
C1579 C 0.77411 0.57217 0.3008 0.0
C1580 C 0.7649 0.56128 0.27149 0.0
C1581 C 0.7512 0.56123 0.27583 0.0
C1582 C 0.74281 0.56811 0.26922 0.0
C1583 C 0.74808 0.5753 0.25835 0.0
C1584 C 0.76159 0.57481 0.2537 0.0
C1585 C 0.76987 0.56782 0.26018 0.0
C1586 C 0.772 0.54281 0.28226 0.0
C1587 C 0.77867 0.53343 0.27408 0.0
C1588 C 0.7775 0.52028 0.27718 0.0
C1589 C 0.76964 0.51624 0.28861 0.0
C1590 C 0.76266 0.52559 0.29662 0.0
C1591 C 0.76382 0.53876 0.29348 0.0
H1592 H 0.59048 0.31321 0.73855 0.0
N1593 N 0.5705 0.29406 0.7447 0.0
H1594 H 0.6046 0.32968 0.7544 0.0
H1595 H 0.56821 0.29675 0.77273 0.0
H1596 H 0.58228 0.31289 0.78852 0.0
H1597 H 0.57125 0.27517 0.76207 0.0
H1598 H 0.5814 0.25472 0.75698 0.0
H1599 H 0.58045 0.28427 0.72083 0.0
H1600 H 0.59085 0.26393 0.71565 0.0
H1601 H 0.55824 0.30523 0.72693 0.0
H1602 H 0.55021 0.28337 0.76185 0.0
H1603 H 0.53405 0.30687 0.7262 0.0
H1604 H 0.52625 0.28581 0.76194 0.0
H1605 H 0.45448 0.3178 0.73691 0.0
H1606 H 0.44039 0.32859 0.75457 0.0
H1607 H 0.45803 0.3102 0.7852 0.0
H1608 H 0.47161 0.29906 0.76739 0.0
H1609 H 0.45663 0.2799 0.7521 0.0
H1610 H 0.44405 0.25927 0.74069 0.0
H1611 H 0.45571 0.27291 0.70143 0.0
H1612 H 0.46824 0.29374 0.71303 0.0
H1613 H 0.4926 0.31884 0.73472 0.0
H1614 H 0.51675 0.3176 0.73675 0.0
H1615 H 0.50578 0.27877 0.75119 0.0
N1616 N 0.47125 0.3006 0.73979 0.0
H1617 H 0.48186 0.28061 0.75009 0.0
C1618 C 0.57827 0.30379 0.75438 0.0
C1619 C 0.58862 0.31319 0.74946 0.0
C1620 C 0.59671 0.32251 0.75852 0.0
C1621 C 0.59455 0.3226 0.77273 0.0
C1622 C 0.58408 0.31323 0.77764 0.0
C1623 C 0.57603 0.3039 0.76857 0.0
C1624 C 0.57511 0.28127 0.74178 0.0
C1625 C 0.5753 0.27271 0.75187 0.0
C1626 C 0.58121 0.26103 0.74896 0.0
C1627 C 0.587 0.25768 0.73592 0.0
C1628 C 0.58634 0.26607 0.72575 0.0
C1629 C 0.58046 0.27773 0.72868 0.0
C1630 C 0.55608 0.29434 0.74448 0.0
C1631 C 0.55123 0.3009 0.73452 0.0
C1632 C 0.53741 0.30196 0.73425 0.0
C1633 C 0.52809 0.29664 0.74413 0.0
C1634 C 0.53301 0.28994 0.75407 0.0
C1635 C 0.54682 0.28867 0.75415 0.0
C1636 C 0.46415 0.30771 0.75077 0.0
C1637 C 0.45538 0.31624 0.74747 0.0
C1638 C 0.44739 0.32245 0.75761 0.0
C1639 C 0.44803 0.32029 0.77136 0.0
C1640 C 0.4571 0.31195 0.77471 0.0
C1641 C 0.46502 0.30567 0.76453 0.0
C1642 C 0.46337 0.28843 0.73338 0.0
C1643 C 0.45644 0.27854 0.74106 0.0
C1644 C 0.44934 0.26667 0.7345 0.0
C1645 C 0.44896 0.26443 0.72015 0.0
C1646 C 0.45574 0.27439 0.7125 0.0
C1647 C 0.46292 0.28625 0.71908 0.0
C1648 C 0.48536 0.29979 0.74199 0.0
C1649 C 0.49546 0.31015 0.73847 0.0
C1650 C 0.50928 0.30932 0.73949 0.0
C1651 C 0.51334 0.29796 0.74391 0.0
C1652 C 0.50315 0.28774 0.74784 0.0
C1653 C 0.48934 0.2887 0.74705 0.0
H1654 H 0.48966 0.80985 0.82295 0.0
N1655 N 0.49657 0.81457 0.79753 0.0
H1656 H 0.48004 0.7884 0.83094 0.0
H1657 H 0.48956 0.79072 0.7814 0.0
H1658 H 0.48025 0.76921 0.78926 0.0
H1659 H 0.48051 0.83256 0.80574 0.0
H1660 H 0.46546 0.84189 0.79187 0.0
H1661 H 0.49499 0.81006 0.76951 0.0
H1662 H 0.47985 0.81908 0.75563 0.0
H1663 H 0.51239 0.80186 0.77815 0.0
H1664 H 0.51373 0.83092 0.81402 0.0
H1665 H 0.5371 0.80351 0.77797 0.0
H1666 H 0.53845 0.83213 0.81444 0.0
H1667 H 0.60206 0.79259 0.7914 0.0
H1668 H 0.61024 0.77575 0.80298 0.0
H1669 H 0.60752 0.80065 0.84161 0.0
H1670 H 0.59973 0.81769 0.8298 0.0
H1671 H 0.61905 0.83575 0.8061 0.0
H1672 H 0.63645 0.84203 0.78868 0.0
H1673 H 0.61329 0.81435 0.75824 0.0
H1674 H 0.59608 0.80801 0.7758 0.0
H1675 H 0.5779 0.79612 0.79297 0.0
H1676 H 0.55375 0.79649 0.79035 0.0
H1677 H 0.55986 0.839 0.80431 0.0
N1678 N 0.59696 0.81733 0.8031 0.0
H1679 H 0.58395 0.83831 0.80763 0.0
C1680 C 0.49031 0.80189 0.80165 0.0
C1681 C 0.48751 0.80101 0.81557 0.0
C1682 C 0.48214 0.78874 0.8201 0.0
C1683 C 0.47946 0.77707 0.81074 0.0
C1684 C 0.48208 0.77802 0.79672 0.0
C1685 C 0.48747 0.79033 0.7922 0.0
C1686 C 0.48888 0.82065 0.78873 0.0
C1687 C 0.48052 0.82974 0.79477 0.0
C1688 C 0.47186 0.83495 0.78685 0.0
C1689 C 0.47137 0.83114 0.77265 0.0
C1690 C 0.48006 0.82232 0.76652 0.0
C1691 C 0.48872 0.81709 0.77449 0.0
C1692 C 0.51121 0.81648 0.79602 0.0
C1693 C 0.518 0.80881 0.78585 0.0
C1694 C 0.53218 0.8096 0.7859 0.0
C1695 C 0.53984 0.81789 0.79624 0.0
C1696 C 0.53299 0.8258 0.80617 0.0
C1697 C 0.51885 0.82512 0.80599 0.0
C1698 C 0.60041 0.80652 0.80976 0.0
C1699 C 0.60313 0.79442 0.80236 0.0
C1700 C 0.60773 0.78472 0.80903 0.0
C1701 C 0.60966 0.78688 0.82323 0.0
C1702 C 0.6064 0.79876 0.83064 0.0
C1703 C 0.60184 0.80847 0.82395 0.0
C1704 C 0.60632 0.82147 0.79228 0.0
C1705 C 0.6177 0.83118 0.79563 0.0
C1706 C 0.62757 0.83478 0.78565 0.0
C1707 C 0.62625 0.82869 0.77206 0.0
C1708 C 0.61467 0.81913 0.76864 0.0
C1709 C 0.60478 0.81554 0.77865 0.0
C1710 C 0.58271 0.81719 0.80081 0.0
C1711 C 0.57407 0.8055 0.79557 0.0
C1712 C 0.56022 0.80578 0.79389 0.0
C1713 C 0.55476 0.81777 0.79718 0.0
C1714 C 0.56359 0.82952 0.80195 0.0
C1715 C 0.57737 0.82918 0.80379 0.0
H1716 H 0.58949 0.80621 0.24824 0.0
N1717 N 0.56836 0.78764 0.25286 0.0
H1718 H 0.604 0.82091 0.26513 0.0
H1719 H 0.56455 0.78955 0.28079 0.0
H1720 H 0.57868 0.80432 0.29764 0.0
H1721 H 0.57009 0.76835 0.26949 0.0
H1722 H 0.58022 0.74799 0.26328 0.0
H1723 H 0.57743 0.77843 0.22836 0.0
H1724 H 0.58775 0.75818 0.22206 0.0
H1725 H 0.55606 0.8001 0.23626 0.0
H1726 H 0.54802 0.77498 0.26865 0.0
H1727 H 0.5317 0.80068 0.23502 0.0
H1728 H 0.52382 0.77633 0.26833 0.0
H1729 H 0.45182 0.80816 0.24478 0.0
H1730 H 0.43862 0.81936 0.26298 0.0
H1731 H 0.45657 0.80019 0.29277 0.0
H1732 H 0.46931 0.78869 0.27442 0.0
H1733 H 0.45414 0.76983 0.25957 0.0
H1734 H 0.44049 0.74967 0.24849 0.0
H1735 H 0.45122 0.76331 0.20905 0.0
H1736 H 0.46462 0.78375 0.22035 0.0
H1737 H 0.4891 0.80988 0.2433 0.0
H1738 H 0.51339 0.80957 0.24565 0.0
H1739 H 0.50395 0.76918 0.25657 0.0
N1740 N 0.46837 0.79057 0.24699 0.0
H1741 H 0.47982 0.77003 0.25524 0.0
C1742 C 0.57593 0.79681 0.26317 0.0
C1743 C 0.58704 0.80588 0.25902 0.0
C1744 C 0.59526 0.81429 0.26868 0.0
C1745 C 0.59253 0.81376 0.28275 0.0
C1746 C 0.5812 0.80484 0.28689 0.0
C1747 C 0.573 0.79643 0.27721 0.0
C1748 C 0.57305 0.77494 0.24934 0.0
C1749 C 0.57373 0.76612 0.25908 0.0
C1750 C 0.57962 0.75451 0.25553 0.0
C1751 C 0.58485 0.75147 0.24219 0.0
C1752 C 0.58368 0.7601 0.23238 0.0
C1753 C 0.57785 0.7717 0.23595 0.0
C1754 C 0.5539 0.78769 0.25262 0.0
C1755 C 0.54901 0.79487 0.24324 0.0
C1756 C 0.53507 0.79529 0.24267 0.0
C1757 C 0.52567 0.78869 0.25169 0.0
C1758 C 0.53064 0.78144 0.2611 0.0
C1759 C 0.54458 0.7808 0.26145 0.0
C1760 C 0.46158 0.79767 0.2582 0.0
C1761 C 0.45296 0.8065 0.25526 0.0
C1762 C 0.4455 0.81294 0.2657 0.0
C1763 C 0.44652 0.81071 0.27938 0.0
C1764 C 0.45538 0.80202 0.28235 0.0
C1765 C 0.46279 0.79552 0.27187 0.0
C1766 C 0.46033 0.7784 0.24075 0.0
C1767 C 0.45351 0.76856 0.24856 0.0
C1768 C 0.4458 0.75693 0.24218 0.0
C1769 C 0.44476 0.75485 0.22787 0.0
C1770 C 0.45166 0.76467 0.2201 0.0
C1771 C 0.45937 0.77631 0.2265 0.0
C1772 C 0.4826 0.78997 0.24882 0.0
C1773 C 0.49233 0.80102 0.24629 0.0
C1774 C 0.50623 0.80074 0.24751 0.0
C1775 C 0.51077 0.78926 0.25111 0.0
C1776 C 0.50094 0.77826 0.25392 0.0
C1777 C 0.48702 0.77867 0.25296 0.0
H1778 H 0.63792 0.32538 0.36081 0.0
N1779 N 0.62305 0.32194 0.33866 0.0
H1780 H 0.64335 0.30813 0.37389 0.0
H1781 H 0.61207 0.2953 0.33506 0.0
H1782 H 0.61772 0.2779 0.34779 0.0
H1783 H 0.63068 0.30285 0.31887 0.0
H1784 H 0.64857 0.30622 0.30139 0.0
H1785 H 0.63863 0.34488 0.33413 0.0
H1786 H 0.65687 0.34835 0.31667 0.0
H1787 H 0.60463 0.33245 0.35515 0.0
H1788 H 0.60997 0.3126 0.31439 0.0
H1789 H 0.58145 0.33484 0.34996 0.0
H1790 H 0.58745 0.31592 0.30875 0.0
H1791 H 0.5081 0.34645 0.32621 0.0
H1792 H 0.48596 0.33473 0.33309 0.0
H1793 H 0.50222 0.29742 0.3281 0.0
H1794 H 0.52399 0.30905 0.32062 0.0
H1795 H 0.52072 0.31544 0.29539 0.0
H1796 H 0.5115 0.3184 0.27367 0.0
H1797 H 0.5225 0.36133 0.28274 0.0
H1798 H 0.5317 0.35827 0.30453 0.0
H1799 H 0.54671 0.35076 0.33289 0.0
H1800 H 0.56939 0.34712 0.33838 0.0
H1801 H 0.56427 0.31007 0.31092 0.0
N1802 N 0.52936 0.33557 0.31571 0.0
H1803 H 0.54216 0.31446 0.30475 0.0
C1804 C 0.62466 0.31165 0.34699 0.0
C1805 C 0.63331 0.31505 0.3581 0.0
C1806 C 0.63649 0.30516 0.36546 0.0
C1807 C 0.6311 0.29159 0.36179 0.0
C1808 C 0.62197 0.28825 0.35096 0.0
C1809 C 0.61876 0.29818 0.34363 0.0
C1810 C 0.63335 0.32366 0.32791 0.0
C1811 C 0.63633 0.31282 0.31853 0.0
C1812 C 0.64663 0.31475 0.30853 0.0
C1813 C 0.65423 0.32753 0.30769 0.0
C1814 C 0.65112 0.33839 0.31696 0.0
C1815 C 0.64078 0.33644 0.32697 0.0
C1816 C 0.60922 0.32259 0.3352 0.0
C1817 C 0.60084 0.32871 0.34505 0.0
C1818 C 0.58762 0.3302 0.34198 0.0
C1819 C 0.58253 0.3258 0.32882 0.0
C1820 C 0.59086 0.31935 0.31904 0.0
C1821 C 0.60395 0.31758 0.32223 0.0
C1822 C 0.51776 0.32875 0.3228 0.0
C1823 C 0.50696 0.3358 0.32696 0.0
C1824 C 0.4943 0.32905 0.33093 0.0
C1825 C 0.4922 0.31505 0.33097 0.0
C1826 C 0.50336 0.30815 0.32787 0.0
C1827 C 0.51597 0.31488 0.32371 0.0
C1828 C 0.52685 0.3367 0.30165 0.0
C1829 C 0.52155 0.32547 0.29255 0.0
C1830 C 0.51617 0.32717 0.28017 0.0
C1831 C 0.51613 0.3401 0.27659 0.0
C1832 C 0.52246 0.35124 0.28518 0.0
C1833 C 0.52772 0.34952 0.29762 0.0
C1834 C 0.54268 0.33288 0.31856 0.0
C1835 C 0.55058 0.3419 0.32804 0.0
C1836 C 0.56349 0.33969 0.33127 0.0
C1837 C 0.56874 0.32818 0.32525 0.0
C1838 C 0.56075 0.31913 0.31567 0.0
C1839 C 0.54796 0.32155 0.31222 0.0
H1840 H 0.21723 0.21895 0.17128 0.0
H1841 H 0.28268 0.2175 0.121 0.0
H1842 H 0.23604 0.18356 0.16004 0.0
H1843 H 0.26842 0.25401 0.13863 0.0
H1844 H 0.26516 0.20474 0.13444 0.0
H1845 H 0.23532 0.23176 0.15853 0.0
C1846 C 0.22517 0.21386 0.16615 0.0
C1847 C 0.22508 0.20013 0.16674 0.0
C1848 C 0.26589 0.21555 0.13539 0.0
C1849 C 0.24584 0.21478 0.15203 0.0
C1850 C 0.27594 0.22287 0.12776 0.0
C1851 C 0.27709 0.2369 0.12867 0.0
C1852 C 0.25681 0.22225 0.14395 0.0
C1853 C 0.26784 0.24321 0.13742 0.0
C1854 C 0.23552 0.2212 0.15888 0.0
C1855 C 0.23569 0.19411 0.1599 0.0
N1856 N 0.2581 0.23585 0.14469 0.0
N1857 N 0.2456 0.20146 0.15278 0.0
H1858 H 0.83553 0.19801 0.13244 0.0
H1859 H 0.78333 0.18523 0.07558 0.0
H1860 H 0.82762 0.15777 0.11162 0.0
H1861 H 0.81775 0.21688 0.07293 0.0
H1862 H 0.79611 0.17529 0.09108 0.0
H1863 H 0.82541 0.20612 0.11346 0.0
C1864 C 0.83165 0.19091 0.12386 0.0
C1865 C 0.83238 0.17724 0.12351 0.0
C1866 C 0.80082 0.18435 0.08694 0.0
C1867 C 0.82062 0.18635 0.10212 0.0
C1868 C 0.7936 0.19003 0.07799 0.0
C1869 C 0.7993 0.20212 0.07297 0.0
C1870 C 0.81365 0.19097 0.09119 0.0
C1871 C 0.81263 0.20787 0.07684 0.0
C1872 C 0.82599 0.19553 0.11306 0.0
C1873 C 0.82728 0.16841 0.11217 0.0
N1874 N 0.81922 0.20241 0.08594 0.0
N1875 N 0.82136 0.17308 0.10197 0.0
H1876 H 0.87584 0.84383 0.13464 0.0
H1877 H 0.83427 0.77139 0.13863 0.0
H1878 H 0.8775 0.82239 0.16944 0.0
H1879 H 0.84658 0.78604 0.10006 0.0
H1880 H 0.84954 0.7903 0.15031 0.0
H1881 H 0.86474 0.82309 0.12178 0.0
C1882 C 0.87401 0.83473 0.13953 0.0
C1883 C 0.87753 0.83486 0.15316 0.0
C1884 C 0.84903 0.78929 0.13928 0.0
C1885 C 0.86465 0.81118 0.13858 0.0
C1886 C 0.84029 0.77856 0.13263 0.0
C1887 C 0.83917 0.77722 0.11839 0.0
C1888 C 0.85648 0.79891 0.13165 0.0
C1889 C 0.84722 0.78671 0.11106 0.0
C1890 C 0.8677 0.8229 0.13217 0.0
C1891 C 0.87495 0.82276 0.15896 0.0
N1892 N 0.85541 0.79728 0.11779 0.0
N1893 N 0.86849 0.81145 0.15171 0.0
H1894 H 0.26731 0.80379 0.15051 0.0
H1895 H 0.31112 0.79929 0.08037 0.0
H1896 H 0.30343 0.83168 0.14221 0.0
H1897 H 0.27944 0.76789 0.09146 0.0
H1898 H 0.30552 0.81344 0.10111 0.0
H1899 H 0.26875 0.79279 0.12708 0.0
C1900 C 0.27544 0.80771 0.14371 0.0
C1901 C 0.28537 0.81857 0.14838 0.0
C1902 C 0.29969 0.80351 0.09892 0.0
C1903 C 0.28709 0.806 0.12158 0.0
C1904 C 0.3029 0.79541 0.0871 0.0
C1905 C 0.29588 0.7823 0.08426 0.0
C1906 C 0.28938 0.79847 0.108 0.0
C1907 C 0.28511 0.77793 0.09319 0.0
C1908 C 0.27627 0.80141 0.13035 0.0
C1909 C 0.29564 0.82326 0.1391 0.0
N1910 N 0.2823 0.78594 0.10474 0.0
N1911 N 0.2963 0.81688 0.12618 0.0
H1912 H 0.27157 0.80428 0.86369 0.0
H1913 H 0.25022 0.75781 0.92291 0.0
H1914 H 0.23057 0.79697 0.88066 0.0
H1915 H 0.29205 0.77153 0.9113 0.0
H1916 H 0.2428 0.77245 0.90785 0.0
H1917 H 0.27935 0.79282 0.88146 0.0
C1918 C 0.26422 0.80037 0.87123 0.0
C1919 C 0.25038 0.80151 0.87063 0.0
C1920 C 0.25361 0.77236 0.90869 0.0
C1921 C 0.2592 0.78826 0.89094 0.0
C1922 C 0.25784 0.76396 0.91723 0.0
C1923 C 0.27177 0.76341 0.91831 0.0
C1924 C 0.26337 0.78016 0.90104 0.0
C1925 C 0.28122 0.77171 0.91086 0.0
C1926 C 0.26867 0.79383 0.88138 0.0
C1927 C 0.24133 0.79629 0.8807 0.0
N1928 N 0.27684 0.77964 0.90244 0.0
N1929 N 0.24587 0.78977 0.89035 0.0
H1930 H 0.18639 0.21655 0.9405 0.0
H1931 H 0.25819 0.22637 0.97689 0.0
H1932 H 0.21552 0.18925 0.93085 0.0
H1933 H 0.23223 0.25682 0.97901 0.0
H1934 H 0.24168 0.21132 0.9622 0.0
H1935 H 0.20195 0.22991 0.95709 0.0
C1936 C 0.19603 0.2133 0.94191 0.0
C1937 C 0.19968 0.20178 0.93416 0.0
C1938 C 0.2396 0.22128 0.96597 0.0
C1939 C 0.21762 0.21714 0.95322 0.0
C1940 C 0.24904 0.22991 0.97431 0.0
C1941 C 0.24665 0.24294 0.97923 0.0
C1942 C 0.22764 0.22568 0.96256 0.0
C1943 C 0.23447 0.24684 0.9757 0.0
C1944 C 0.20494 0.22098 0.95139 0.0
C1945 C 0.21231 0.19808 0.93654 0.0
N1946 N 0.22547 0.23827 0.96758 0.0
N1947 N 0.22086 0.20577 0.94582 0.0
H1948 H 0.84467 0.22751 0.85159 0.0
H1949 H 0.78285 0.25364 0.89646 0.0
H1950 H 0.81788 0.252 0.83749 0.0
H1951 H 0.81539 0.23821 0.91363 0.0
H1952 H 0.79296 0.24883 0.87366 0.0
H1953 H 0.83149 0.22727 0.87323 0.0
C1954 C 0.83582 0.23256 0.85292 0.0
C1955 C 0.83226 0.23968 0.84271 0.0
C1956 C 0.79782 0.24638 0.8824 0.0
C1957 C 0.81734 0.23968 0.86747 0.0
C1958 C 0.792 0.24901 0.89541 0.0
C1959 C 0.79835 0.2464 0.90697 0.0
C1960 C 0.81007 0.24105 0.88091 0.0
C1961 C 0.81028 0.24055 0.905 0.0
C1962 C 0.8284 0.23255 0.86532 0.0
C1963 C 0.82098 0.24642 0.84514 0.0
N1964 N 0.81581 0.23814 0.89222 0.0
N1965 N 0.81393 0.24628 0.85727 0.0
H1966 H 0.84448 0.81237 0.91143 0.0
H1967 H 0.79476 0.81783 0.97757 0.0
H1968 H 0.82737 0.84821 0.92569 0.0
H1969 H 0.80826 0.78121 0.95914 0.0
H1970 H 0.80752 0.82967 0.95967 0.0
H1971 H 0.83232 0.80141 0.92995 0.0
C1972 C 0.83817 0.81797 0.91847 0.0
C1973 C 0.83693 0.83124 0.91696 0.0
C1974 C 0.80771 0.81905 0.95961 0.0
C1975 C 0.82289 0.81867 0.93832 0.0
C1976 C 0.80039 0.81226 0.96979 0.0
C1977 C 0.80045 0.79848 0.96993 0.0
C1978 C 0.81515 0.81201 0.9495 0.0
C1979 C 0.80808 0.79186 0.95965 0.0
C1980 C 0.8312 0.81168 0.92907 0.0
C1981 C 0.82859 0.83796 0.92645 0.0
N1982 N 0.81508 0.79868 0.94989 0.0
N1983 N 0.82187 0.83159 0.93674 0.0
H1984 H 0.15012 0.19818 0.22035 0.0
H1985 H 0.082 0.22861 0.21119 0.0
H1986 H 0.13438 0.2012 0.18101 0.0
H1987 H 0.10174 0.23109 0.2497 0.0
H1988 H 0.09957 0.21626 0.20011 0.0
H1989 H 0.1307 0.20761 0.23144 0.0
C1990 C 0.14252 0.2007 0.21404 0.0
C1991 C 0.14396 0.19898 0.19972 0.0
C1992 C 0.09998 0.21944 0.21101 0.0
C1993 C 0.12169 0.20986 0.21237 0.0
C1994 C 0.08999 0.22655 0.21733 0.0
C1995 C 0.09034 0.23094 0.23143 0.0
C1996 C 0.11042 0.21667 0.21881 0.0
C1997 C 0.10086 0.22776 0.23887 0.0
C1998 C 0.13145 0.20613 0.22038 0.0
C1999 C 0.13375 0.20242 0.19208 0.0
N2000 N 0.11047 0.22088 0.23247 0.0
N2001 N 0.12309 0.20776 0.1985 0.0
H2002 H 0.84273 0.11706 0.21255 0.0
H2003 H 0.76571 0.08278 0.22605 0.0
H2004 H 0.80837 0.12622 0.19236 0.0
H2005 H 0.79988 0.07761 0.24915 0.0
H2006 H 0.7813 0.09709 0.21206 0.0
H2007 H 0.8273 0.10086 0.2244 0.0
C2008 C 0.83194 0.11561 0.21053 0.0
C2009 C 0.82683 0.12309 0.20151 0.0
C2010 C 0.78538 0.0928 0.22017 0.0
C2011 C 0.80905 0.10455 0.21513 0.0
C2012 C 0.7765 0.08459 0.22812 0.0
C2013 C 0.7815 0.07907 0.23884 0.0
C2014 C 0.79936 0.09544 0.22293 0.0
C2015 C 0.79555 0.08183 0.24114 0.0
C2016 C 0.82312 0.10636 0.21734 0.0
C2017 C 0.81275 0.12072 0.19927 0.0
N2018 N 0.80397 0.08983 0.23327 0.0
N2019 N 0.80434 0.11169 0.20609 0.0
H2020 H 0.94487 0.86368 0.19918 0.0
H2021 H 0.95854 0.84513 0.27325 0.0
H2022 H 0.91397 0.85791 0.2311 0.0
H2023 H 0.98978 0.8483 0.24131 0.0
H2024 H 0.94265 0.85138 0.25821 0.0
H2025 H 0.96186 0.85934 0.21457 0.0
C2026 C 0.94166 0.86153 0.20942 0.0
C2027 C 0.92796 0.86112 0.21384 0.0
C2028 C 0.95299 0.8508 0.25447 0.0
C2029 C 0.94734 0.85619 0.23149 0.0
C2030 C 0.96216 0.84736 0.26314 0.0
C2031 C 0.97562 0.84629 0.25862 0.0
C2032 C 0.95719 0.85315 0.24109 0.0
C2033 C 0.9795 0.84892 0.24522 0.0
C2034 C 0.95137 0.85906 0.2182 0.0
C2035 C 0.92439 0.85829 0.22722 0.0
N2036 N 0.97032 0.85222 0.23691 0.0
N2037 N 0.93401 0.85593 0.23554 0.0
H2038 H 0.26753 0.87597 0.19606 0.0
H2039 H 0.25536 0.91574 0.26882 0.0
H2040 H 0.25792 0.85702 0.23278 0.0
H2041 H 0.25633 0.9338 0.23135 0.0
H2042 H 0.25408 0.89384 0.25549 0.0
H2043 H 0.26193 0.89698 0.20836 0.0
C2044 C 0.26398 0.87618 0.20663 0.0
C2045 C 0.26293 0.86469 0.21335 0.0
C2046 C 0.25438 0.90256 0.25016 0.0
C2047 C 0.25675 0.88866 0.22754 0.0
C2048 C 0.25498 0.91513 0.2578 0.0
C2049 C 0.25612 0.92675 0.25124 0.0
C2050 C 0.25512 0.90155 0.23583 0.0
C2051 C 0.25582 0.92519 0.23688 0.0
C2052 C 0.26076 0.88814 0.21364 0.0
C2053 C 0.25844 0.8655 0.22708 0.0
N2054 N 0.25556 0.91286 0.22965 0.0
N2055 N 0.25565 0.8773 0.23376 0.0
H2056 H 0.15057 0.82405 0.82469 0.0
H2057 H 0.09567 0.82431 0.76799 0.0
H2058 H 0.1571 0.85013 0.79291 0.0
H2059 H 0.09382 0.79359 0.7948 0.0
H2060 H 0.11651 0.83601 0.77903 0.0
H2061 H 0.12794 0.81512 0.81603 0.0
C2062 C 0.14722 0.82799 0.81595 0.0
C2063 C 0.15583 0.83777 0.80943 0.0
C2064 C 0.11145 0.82676 0.78254 0.0
C2065 C 0.12988 0.82753 0.79943 0.0
C2066 C 0.09958 0.82004 0.77622 0.0
C2067 C 0.09296 0.80788 0.7804 0.0
C2068 C 0.11673 0.82133 0.79317 0.0
C2069 C 0.09841 0.803 0.79131 0.0
C2070 C 0.13429 0.82286 0.81099 0.0
C2071 C 0.15086 0.84253 0.7982 0.0
N2072 N 0.10998 0.8097 0.79724 0.0
N2073 N 0.13824 0.8373 0.79349 0.0
H2074 H 0.2068 0.15458 0.85717 0.0
H2075 H 0.23294 0.08374 0.85313 0.0
H2076 H 0.19608 0.12722 0.88743 0.0
H2077 H 0.23913 0.10882 0.82052 0.0
H2078 H 0.21958 0.09961 0.86597 0.0
H2079 H 0.2189 0.13803 0.84372 0.0
C2080 C 0.20698 0.14508 0.86098 0.0
C2081 C 0.20044 0.14229 0.87347 0.0
C2082 C 0.22379 0.10161 0.85597 0.0
C2083 C 0.2143 0.1233 0.85811 0.0
C2084 C 0.23147 0.09258 0.84866 0.0
C2085 C 0.23719 0.09497 0.83573 0.0
C2086 C 0.22189 0.11318 0.85038 0.0
C2087 C 0.23481 0.1065 0.83038 0.0
C2088 C 0.21386 0.13562 0.85328 0.0
C2089 C 0.20098 0.1298 0.87787 0.0
N2090 N 0.22742 0.11521 0.83775 0.0
N2091 N 0.20783 0.12079 0.87023 0.0
H2092 H 0.90345 0.24785 0.81046 0.0
H2093 H 0.96236 0.31154 0.81369 0.0
H2094 H 0.89604 0.28877 0.81337 0.0
H2095 H 0.96998 0.2706 0.80774 0.0
H2096 H 0.93814 0.30344 0.81731 0.0
H2097 H 0.92783 0.25605 0.81277 0.0
C2098 C 0.90693 0.25856 0.81168 0.0
C2099 C 0.8977 0.26764 0.81156 0.0
C2100 C 0.94512 0.29622 0.81537 0.0
C2101 C 0.9256 0.27709 0.81422 0.0
C2102 C 0.95899 0.30085 0.81343 0.0
C2103 C 0.96821 0.29173 0.81028 0.0
C2104 C 0.94041 0.28236 0.81412 0.0
C2105 C 0.96319 0.27798 0.8099 0.0
C2106 C 0.92086 0.26324 0.81301 0.0
C2107 C 0.90279 0.28141 0.81328 0.0
N2108 N 0.94962 0.27371 0.81166 0.0
N2109 N 0.9164 0.28571 0.81443 0.0
H2110 H 0.81857 0.88463 0.84519 0.0
H2111 H 0.81413 0.95699 0.82317 0.0
H2112 H 0.85095 0.91835 0.85159 0.0
H2113 H 0.78328 0.92218 0.81486 0.0
H2114 H 0.8277 0.94329 0.83391 0.0
H2115 H 0.80542 0.8985 0.83435 0.0
C2116 C 0.82294 0.89495 0.84429 0.0
C2117 C 0.8359 0.90032 0.84932 0.0
C2118 C 0.81794 0.93868 0.82976 0.0
C2119 C 0.82082 0.91634 0.83693 0.0
C2120 C 0.8102 0.94648 0.82358 0.0
C2121 C 0.79747 0.94078 0.81815 0.0
C2122 C 0.81294 0.92505 0.8305 0.0
C2123 C 0.79288 0.92712 0.81912 0.0
C2124 C 0.81541 0.90288 0.8381 0.0
C2125 C 0.84101 0.91378 0.84785 0.0
N2126 N 0.80059 0.91976 0.82515 0.0
N2127 N 0.83345 0.92133 0.84182 0.0
H2128 H 0.2107 0.14034 0.2241 0.0
H2129 H 0.26675 0.09306 0.21056 0.0
H2130 H 0.22414 0.12693 0.18315 0.0
H2131 H 0.23784 0.08971 0.24464 0.0
H2132 H 0.25301 0.10726 0.20108 0.0
H2133 H 0.22255 0.1239 0.23281 0.0
C2134 C 0.21613 0.13393 0.21695 0.0
C2135 C 0.21645 0.135 0.20288 0.0
C2136 C 0.24966 0.10332 0.21059 0.0
C2137 C 0.23013 0.11636 0.2128 0.0
C2138 C 0.25744 0.09508 0.21601 0.0
C2139 C 0.25355 0.09007 0.22852 0.0
C2140 C 0.23802 0.10687 0.21782 0.0
C2141 C 0.24151 0.09351 0.23516 0.0
C2142 C 0.22281 0.12452 0.22192 0.0
C2143 C 0.2236 0.12641 0.19407 0.0
N2144 N 0.23427 0.1018 0.22982 0.0
N2145 N 0.23029 0.11755 0.19918 0.0
H2146 H 0.24773 0.86548 0.84213 0.0
H2147 H 0.22158 0.91813 0.79982 0.0
H2148 H 0.21141 0.85656 0.81828 0.0
H2149 H 0.26239 0.92282 0.81488 0.0
H2150 H 0.21586 0.8973 0.8102 0.0
H2151 H 0.25139 0.88829 0.83583 0.0
C2152 C 0.24038 0.86837 0.83577 0.0
C2153 C 0.2291 0.85911 0.83092 0.0
C2154 C 0.22603 0.90296 0.81132 0.0
C2155 C 0.2333 0.88518 0.8236 0.0
C2156 C 0.22933 0.91483 0.80535 0.0
C2157 C 0.24255 0.92221 0.80632 0.0
C2158 C 0.23598 0.89843 0.81838 0.0
C2159 C 0.25204 0.91757 0.81392 0.0
C2160 C 0.2425 0.88139 0.83216 0.0
C2161 C 0.21997 0.86341 0.82266 0.0
N2162 N 0.2486 0.90594 0.81957 0.0
N2163 N 0.2223 0.87611 0.8192 0.0
H2164 H 0.16225 0.19949 0.85072 0.0
H2165 H 0.10343 0.24395 0.84784 0.0
H2166 H 0.13121 0.20376 0.88244 0.0
H2167 H 0.13373 0.23871 0.81559 0.0
H2168 H 0.11184 0.22717 0.85945 0.0
H2169 H 0.15031 0.21158 0.83648 0.0
C2170 C 0.15284 0.20282 0.85464 0.0
C2171 C 0.14783 0.20074 0.86788 0.0
C2172 C 0.11655 0.22957 0.84976 0.0
C2173 C 0.13415 0.21471 0.85164 0.0
C2174 C 0.11178 0.23919 0.84314 0.0
C2175 C 0.11796 0.24284 0.83078 0.0
C2176 C 0.12767 0.22362 0.84404 0.0
C2177 C 0.1286 0.23617 0.82506 0.0
C2178 C 0.14602 0.20974 0.84649 0.0
C2179 C 0.13552 0.20522 0.87235 0.0
N2180 N 0.13322 0.22701 0.83181 0.0
N2181 N 0.1292 0.21212 0.86432 0.0
H2182 H 0.84299 0.16557 0.82189 0.0
H2183 H 0.77881 0.10731 0.81156 0.0
H2184 H 0.80252 0.16947 0.8382 0.0
H2185 H 0.81873 0.10435 0.79327 0.0
H2186 H 0.78812 0.12877 0.82428 0.0
H2187 H 0.83507 0.14196 0.81422 0.0
C2188 C 0.83247 0.16144 0.824 0.0
C2189 C 0.82336 0.16957 0.83054 0.0
C2190 C 0.79488 0.12336 0.81759 0.0
C2191 C 0.8142 0.14253 0.82171 0.0
C2192 C 0.78959 0.11106 0.81039 0.0
C2193 C 0.79798 0.10408 0.80123 0.0
C2194 C 0.80865 0.12875 0.81561 0.0
C2195 C 0.81184 0.10951 0.80003 0.0
C2196 C 0.82794 0.14794 0.81959 0.0
C2197 C 0.80987 0.16362 0.83308 0.0
N2198 N 0.81671 0.12157 0.80704 0.0
N2199 N 0.80567 0.15049 0.82854 0.0
H2200 H 0.87909 0.82665 0.86347 0.0
H2201 H 0.93179 0.81844 0.80014 0.0
H2202 H 0.89007 0.85707 0.83636 0.0
H2203 H 0.91541 0.78695 0.82461 0.0
H2204 H 0.91768 0.83328 0.81364 0.0
H2205 H 0.89353 0.81265 0.84984 0.0
C2206 C 0.88454 0.83042 0.85463 0.0
C2207 C 0.88331 0.8431 0.85107 0.0
C2208 C 0.91722 0.82313 0.81604 0.0
C2209 C 0.90002 0.82695 0.8353 0.0
C2210 C 0.92524 0.81462 0.80832 0.0
C2211 C 0.92488 0.80139 0.81125 0.0
C2212 C 0.90879 0.81839 0.8268 0.0
C2213 C 0.91629 0.7971 0.82209 0.0
C2214 C 0.89281 0.82237 0.84681 0.0
C2215 C 0.89068 0.84736 0.83947 0.0
N2216 N 0.90863 0.80555 0.82943 0.0
N2217 N 0.89875 0.83931 0.83199 0.0
H2218 H 0.87134 0.91132 0.20541 0.0
H2219 H 0.79807 0.92026 0.2398 0.0
H2220 H 0.83385 0.88532 0.19396 0.0
H2221 H 0.83519 0.94692 0.25117 0.0
H2222 H 0.81107 0.90764 0.22264 0.0
H2223 H 0.85837 0.92471 0.22203 0.0
C2224 C 0.86039 0.90844 0.20637 0.0
C2225 C 0.85368 0.89716 0.19828 0.0
C2226 C 0.81638 0.91626 0.22886 0.0
C2227 C 0.83878 0.91243 0.21728 0.0
C2228 C 0.80894 0.92353 0.23862 0.0
C2229 C 0.81553 0.93468 0.24697 0.0
C2230 C 0.83055 0.92013 0.22739 0.0
C2231 C 0.8297 0.93829 0.2451 0.0
C2232 C 0.85299 0.91609 0.21586 0.0
C2233 C 0.83947 0.89391 0.19997 0.0
N2234 N 0.83673 0.93104 0.23553 0.0
N2235 N 0.83252 0.90149 0.20927 0.0
H2236 H 0.18746 0.82405 0.22016 0.0
H2237 H 0.15374 0.82786 0.2957 0.0
H2238 H 0.21043 0.83689 0.25684 0.0
H2239 H 0.13151 0.81108 0.25939 0.0
H2240 H 0.17426 0.83301 0.28146 0.0
H2241 H 0.16655 0.82083 0.23423 0.0
C2242 C 0.18811 0.82623 0.23117 0.0
C2243 C 0.20074 0.83069 0.23733 0.0
C2244 C 0.16489 0.82824 0.2766 0.0
C2245 C 0.17682 0.82703 0.2535 0.0
C2246 C 0.15314 0.82538 0.28472 0.0
C2247 C 0.1409 0.81899 0.27873 0.0
C2248 C 0.1644 0.82471 0.26237 0.0
C2249 C 0.14077 0.81585 0.26445 0.0
C2250 C 0.17616 0.82437 0.2392 0.0
C2251 C 0.20094 0.83337 0.25165 0.0
N2252 N 0.15235 0.81872 0.25676 0.0
N2253 N 0.18917 0.83148 0.25924 0.0
H2254 H 0.8876 0.2 0.16602 0.0
H2255 H 0.92208 0.23591 0.23568 0.0
H2256 H 0.87768 0.18685 0.20576 0.0
H2257 H 0.93282 0.25008 0.19654 0.0
H2258 H 0.90621 0.21749 0.22447 0.0
H2259 H 0.90469 0.21803 0.17658 0.0
C2260 C 0.88905 0.20085 0.17693 0.0
C2261 C 0.88115 0.19191 0.18501 0.0
C2262 C 0.91204 0.22459 0.21829 0.0
C2263 C 0.90061 0.2125 0.19713 0.0
C2264 C 0.92119 0.23509 0.22469 0.0
C2265 C 0.92887 0.24454 0.21704 0.0
C2266 C 0.91048 0.22348 0.2041 0.0
C2267 C 0.92703 0.2431 0.20286 0.0
C2268 C 0.89878 0.21115 0.18295 0.0
C2269 C 0.88347 0.1935 0.1991 0.0
N2270 N 0.91802 0.23275 0.19683 0.0
N2271 N 0.89294 0.20359 0.20468 0.0
H2272 H 0.19162 0.66674 0.64657 0.0
H2273 H 0.25747 0.72223 0.63902 0.0
H2274 H 0.2111 0.6917 0.68104 0.0
H2275 H 0.22854 0.70912 0.60698 0.0
H2276 H 0.24336 0.70747 0.65375 0.0
H2277 H 0.20795 0.67868 0.63118 0.0
C2278 C 0.19943 0.67461 0.65091 0.0
C2279 C 0.19994 0.67829 0.66511 0.0
C2280 C 0.24017 0.70776 0.64346 0.0
C2281 C 0.21866 0.69191 0.64757 0.0
C2282 C 0.24824 0.71609 0.63503 0.0
C2283 C 0.24412 0.71691 0.62179 0.0
C2284 C 0.22798 0.70006 0.63855 0.0
C2285 C 0.23201 0.70885 0.61717 0.0
C2286 C 0.20869 0.68145 0.64212 0.0
C2287 C 0.21027 0.6886 0.67016 0.0
N2288 N 0.22435 0.70075 0.62554 0.0
N2289 N 0.21921 0.69505 0.6614 0.0
H2290 H 0.84612 0.68329 0.59734 0.0
H2291 H 0.84871 0.74914 0.56083 0.0
H2292 H 0.84574 0.72245 0.61984 0.0
H2293 H 0.82579 0.71133 0.54438 0.0
H2294 H 0.85398 0.73879 0.58068 0.0
H2295 H 0.84464 0.69297 0.57594 0.0
C2296 C 0.84589 0.69394 0.59775 0.0
C2297 C 0.84597 0.7021 0.61034 0.0
C2298 C 0.84797 0.73273 0.57262 0.0
C2299 C 0.84454 0.71316 0.58606 0.0
C2300 C 0.84505 0.73858 0.56128 0.0
C2301 C 0.83682 0.73103 0.55101 0.0
C2302 C 0.8428 0.71921 0.57355 0.0
C2303 C 0.83215 0.71744 0.55213 0.0
C2304 C 0.845 0.69941 0.58559 0.0
C2305 C 0.84559 0.71581 0.61034 0.0
N2306 N 0.83521 0.71193 0.56324 0.0
N2307 N 0.84495 0.72094 0.59837 0.0
H2308 H 0.86259 0.35232 0.66303 0.0
H2309 H 0.84392 0.27731 0.62586 0.0
H2310 H 0.88861 0.32205 0.66172 0.0
H2311 H 0.81892 0.30794 0.62373 0.0
H2312 H 0.85987 0.2935 0.63984 0.0
H2313 H 0.84584 0.33611 0.64972 0.0
C2314 C 0.8647 0.34223 0.66015 0.0
C2315 C 0.87695 0.33849 0.66369 0.0
C2316 C 0.85091 0.29672 0.63632 0.0
C2317 C 0.85796 0.31998 0.64819 0.0
C2318 C 0.84182 0.28748 0.62824 0.0
C2319 C 0.83009 0.29127 0.62348 0.0
C2320 C 0.84829 0.3099 0.63977 0.0
C2321 C 0.82778 0.30453 0.62723 0.0
C2322 C 0.85519 0.33301 0.65242 0.0
C2323 C 0.87931 0.32538 0.65924 0.0
N2324 N 0.83681 0.31338 0.63513 0.0
N2325 N 0.86991 0.31662 0.65177 0.0
H2326 H 0.29933 0.31015 0.6302 0.0
H2327 H 0.24682 0.24682 0.59894 0.0
H2328 H 0.2685 0.28833 0.65476 0.0
H2329 H 0.2856 0.26101 0.57982 0.0
H2330 H 0.25185 0.26464 0.61797 0.0
H2331 H 0.29134 0.29498 0.61001 0.0
C2332 C 0.29079 0.30225 0.63133 0.0
C2333 C 0.28467 0.30041 0.64422 0.0
C2334 C 0.25915 0.26388 0.6095 0.0
C2335 C 0.27547 0.28303 0.62112 0.0
C2336 C 0.25633 0.25368 0.59865 0.0
C2337 C 0.2658 0.25229 0.5877 0.0
C2338 C 0.27146 0.27284 0.60934 0.0
C2339 C 0.27783 0.26172 0.58783 0.0
C2340 C 0.28626 0.29358 0.6198 0.0
C2341 C 0.2736 0.29003 0.64504 0.0
N2342 N 0.28032 0.27152 0.59848 0.0
N2343 N 0.26939 0.28167 0.63365 0.0
H2344 H 0.21895 0.33809 0.43789 0.0
H2345 H 0.24075 0.26497 0.42646 0.0
H2346 H 0.20537 0.30827 0.40421 0.0
H2347 H 0.25207 0.29417 0.46132 0.0
H2348 H 0.22761 0.28053 0.41816 0.0
H2349 H 0.23128 0.32211 0.44647 0.0
C2350 C 0.21857 0.32818 0.43228 0.0
C2351 C 0.21111 0.32452 0.4203 0.0
C2352 C 0.23294 0.28352 0.42764 0.0
C2353 C 0.22522 0.30612 0.4301 0.0
C2354 C 0.24038 0.2746 0.43244 0.0
C2355 C 0.24757 0.27827 0.4446 0.0
C2356 C 0.2327 0.29622 0.43504 0.0
C2357 C 0.24687 0.29097 0.4518 0.0
C2358 C 0.2256 0.31904 0.43721 0.0
C2359 C 0.21098 0.31153 0.41348 0.0
N2360 N 0.2396 0.29948 0.44689 0.0
N2361 N 0.21794 0.3028 0.41847 0.0
H2362 H 0.20754 0.67099 0.40472 0.0
H2363 H 0.23446 0.73636 0.45605 0.0
H2364 H 0.18924 0.7071 0.41027 0.0
H2365 H 0.2517 0.69974 0.45337 0.0
H2366 H 0.21769 0.72546 0.43941 0.0
H2367 H 0.22376 0.68104 0.4225 0.0
C2368 C 0.2069 0.681 0.40968 0.0
C2369 C 0.19701 0.68821 0.40595 0.0
C2370 C 0.22509 0.71976 0.44248 0.0
C2371 C 0.21554 0.69976 0.42627 0.0
C2372 C 0.23464 0.72596 0.4521 0.0
C2373 C 0.2445 0.71895 0.45622 0.0
C2374 C 0.22538 0.70643 0.43682 0.0
C2375 C 0.24438 0.70559 0.45042 0.0
C2376 C 0.21616 0.68673 0.41983 0.0
C2377 C 0.19668 0.70114 0.41275 0.0
N2378 N 0.23498 0.69976 0.441 0.0
N2379 N 0.2058 0.70649 0.42252 0.0
H2380 H 0.84737 0.7253 0.32423 0.0
H2381 H 0.77658 0.72355 0.36667 0.0
H2382 H 0.80869 0.72121 0.30485 0.0
H2383 H 0.81544 0.742 0.3832 0.0
H2384 H 0.78809 0.71803 0.34453 0.0
H2385 H 0.83558 0.72669 0.34658 0.0
C2386 C 0.83636 0.72439 0.32469 0.0
C2387 C 0.82895 0.72295 0.31272 0.0
C2388 C 0.79407 0.7232 0.35305 0.0
C2389 C 0.81544 0.72482 0.33821 0.0
C2390 C 0.78755 0.72628 0.36566 0.0
C2391 C 0.7951 0.73332 0.37668 0.0
C2392 C 0.80824 0.72701 0.35159 0.0
C2393 C 0.80926 0.7367 0.37487 0.0
C2394 C 0.82966 0.72534 0.33744 0.0
C2395 C 0.81474 0.72228 0.31388 0.0
N2396 N 0.81538 0.73352 0.36256 0.0
N2397 N 0.80841 0.72321 0.32643 0.0
H2398 H 0.86549 0.31635 0.42475 0.0
H2399 H 0.79124 0.31003 0.46106 0.0
H2400 H 0.83387 0.33741 0.41405 0.0
H2401 H 0.82203 0.28679 0.46912 0.0
H2402 H 0.80726 0.3216 0.44521 0.0
H2403 H 0.85025 0.30685 0.44236 0.0
C2404 C 0.85535 0.31904 0.42614 0.0
C2405 C 0.85094 0.32765 0.41784 0.0
C2406 C 0.81052 0.314 0.45048 0.0
C2407 C 0.83337 0.31673 0.43803 0.0
C2408 C 0.80141 0.30745 0.45961 0.0
C2409 C 0.80527 0.29737 0.4664 0.0
C2410 C 0.82362 0.31049 0.44815 0.0
C2411 C 0.81854 0.29434 0.46396 0.0
C2412 C 0.84664 0.31358 0.43621 0.0
C2413 C 0.8377 0.33079 0.42017 0.0
N2414 N 0.82721 0.30085 0.45503 0.0
N2415 N 0.82936 0.32529 0.43001 0.0
H2416 H 0.12981 0.68378 0.72455 0.0
H2417 H 0.08557 0.7393 0.71092 0.0
H2418 H 0.13046 0.70041 0.68632 0.0
H2419 H 0.07787 0.71717 0.74583 0.0
H2420 H 0.10189 0.72483 0.70185 0.0
H2421 H 0.11077 0.69563 0.73272 0.0
C2422 C 0.1259 0.68983 0.71784 0.0
C2423 C 0.13182 0.69117 0.70476 0.0
C2424 C 0.09656 0.72304 0.71145 0.0
C2425 C 0.11013 0.7048 0.71407 0.0
C2426 C 0.0871 0.73126 0.71661 0.0
C2427 C 0.08021 0.7295 0.72919 0.0
C2428 C 0.09937 0.71301 0.71894 0.0
C2429 C 0.08304 0.71908 0.7362 0.0
C2430 C 0.11503 0.69658 0.72251 0.0
C2431 C 0.1263 0.69911 0.6965 0.0
N2432 N 0.09247 0.71129 0.73103 0.0
N2433 N 0.11586 0.70569 0.70133 0.0
H2434 H 0.83074 0.62687 0.70217 0.0
H2435 H 0.80064 0.59741 0.77082 0.0
H2436 H 0.83985 0.64705 0.74264 0.0
H2437 H 0.7881 0.57992 0.73035 0.0
H2438 H 0.81691 0.61438 0.76069 0.0
H2439 H 0.8169 0.6084 0.71235 0.0
C2440 C 0.8299 0.6274 0.71321 0.0
C2441 C 0.83641 0.63859 0.72156 0.0
C2442 C 0.81065 0.60679 0.75402 0.0
C2443 C 0.82052 0.61742 0.7333 0.0
C2444 C 0.80143 0.59704 0.75979 0.0
C2445 C 0.79296 0.58725 0.75142 0.0
C2446 C 0.81145 0.60675 0.73976 0.0
C2447 C 0.79429 0.58739 0.7372 0.0
C2448 C 0.82197 0.61684 0.71901 0.0
C2449 C 0.83497 0.63866 0.7358 0.0
N2450 N 0.80333 0.597 0.73183 0.0
N2451 N 0.82713 0.62826 0.74122 0.0
H2452 H 0.93343 0.33099 0.7125 0.0
H2453 H 0.00884 0.34643 0.73755 0.0
H2454 H 0.96408 0.35755 0.69245 0.0
H2455 H 0.98371 0.30816 0.7406 0.0
H2456 H 0.99255 0.35156 0.72178 0.0
H2457 H 0.95147 0.32325 0.72397 0.0
C2458 C 0.94396 0.33513 0.71045 0.0
C2459 C 0.94728 0.34495 0.70155 0.0
C2460 C 0.99075 0.34195 0.72572 0.0
C2461 C 0.96791 0.33629 0.71478 0.0
C2462 C 1.00001 0.33904 0.7347 0.0
C2463 C 0.9976 0.32686 0.74033 0.0
C2464 C 0.97884 0.33275 0.72266 0.0
C2465 C 0.98599 0.31762 0.73638 0.0
C2466 C 0.95425 0.33066 0.71694 0.0
C2467 C 0.9611 0.34994 0.69922 0.0
N2468 N 0.97692 0.32085 0.72797 0.0
N2469 N 0.97092 0.3457 0.70596 0.0
H2470 H 0.27592 0.36193 0.68736 0.0
H2471 H 0.24704 0.39424 0.75877 0.0
H2472 H 0.26908 0.34172 0.72353 0.0
H2473 H 0.2533 0.41481 0.72275 0.0
H2474 H 0.25266 0.37403 0.74522 0.0
H2475 H 0.26583 0.38071 0.69946 0.0
C2476 C 0.27211 0.36137 0.69778 0.0
C2477 C 0.27304 0.35013 0.70436 0.0
C2478 C 0.25269 0.38292 0.74023 0.0
C2479 C 0.26164 0.37157 0.7183 0.0
C2480 C 0.24935 0.39446 0.74795 0.0
C2481 C 0.24977 0.40631 0.74193 0.0
C2482 C 0.25657 0.3832 0.72637 0.0
C2483 C 0.25308 0.40599 0.72789 0.0
C2484 C 0.26633 0.37207 0.70467 0.0
C2485 C 0.26808 0.34994 0.71789 0.0
N2486 N 0.25647 0.39466 0.72062 0.0
N2487 N 0.26265 0.36052 0.72444 0.0
H2488 H 0.12629 0.35682 0.34185 0.0
H2489 H 0.11041 0.30762 0.27293 0.0
H2490 H 0.15693 0.34791 0.31098 0.0
H2491 H 0.07951 0.31734 0.30317 0.0
H2492 H 0.12715 0.32431 0.2855 0.0
H2493 H 0.10867 0.34445 0.32667 0.0
C2494 C 0.12931 0.35239 0.33182 0.0
C2495 C 0.14313 0.35325 0.32776 0.0
C2496 C 0.11668 0.32288 0.28933 0.0
C2497 C 0.12299 0.33898 0.31036 0.0
C2498 C 0.10708 0.3134 0.28211 0.0
C2499 C 0.09353 0.31098 0.28705 0.0
C2500 C 0.11275 0.32998 0.30165 0.0
C2501 C 0.08989 0.31867 0.29911 0.0
C2502 C 0.11923 0.34531 0.32316 0.0
C2503 C 0.14642 0.3474 0.3146 0.0
N2504 N 0.09946 0.32775 0.30605 0.0
N2505 N 0.13643 0.34039 0.30644 0.0
H2506 H 0.18236 0.61393 0.35936 0.0
H2507 H 0.21739 0.59132 0.2872 0.0
H2508 H 0.19505 0.6406 0.32882 0.0
H2509 H 0.21217 0.56711 0.32052 0.0
H2510 H 0.2075 0.60882 0.3017 0.0
H2511 H 0.19165 0.59605 0.34473 0.0
C2512 C 0.18708 0.61603 0.34958 0.0
C2513 C 0.18794 0.6288 0.34532 0.0
C2514 C 0.2085 0.59968 0.30585 0.0
C2515 C 0.19854 0.60836 0.32851 0.0
C2516 C 0.21405 0.58964 0.29754 0.0
C2517 C 0.21557 0.57771 0.30264 0.0
C2518 C 0.20434 0.59779 0.31937 0.0
C2519 C 0.21128 0.57619 0.31621 0.0
C2520 C 0.19241 0.60582 0.34125 0.0
C2521 C 0.19419 0.63093 0.33254 0.0
N2522 N 0.20583 0.58609 0.3241 0.0
N2523 N 0.19922 0.62082 0.32459 0.0
H2524 H 0.88013 0.76928 0.28483 0.0
H2525 H 0.95876 0.76302 0.287 0.0
H2526 H 0.89476 0.73126 0.27682 0.0
H2527 H 0.94183 0.79785 0.30515 0.0
H2528 H 0.93559 0.75104 0.28304 0.0
H2529 H 0.90291 0.77996 0.29183 0.0
C2530 C 0.88815 0.76318 0.28453 0.0
C2531 C 0.88556 0.74937 0.28017 0.0
C2532 C 0.93695 0.76124 0.28806 0.0
C2533 C 0.91169 0.76154 0.28819 0.0
C2534 C 0.95015 0.76807 0.29031 0.0
C2535 C 0.9522 0.78145 0.29639 0.0
C2536 C 0.92575 0.76791 0.29173 0.0
C2537 C 0.94072 0.78751 0.30055 0.0
C2538 C 0.90114 0.76927 0.28861 0.0
C2539 C 0.89632 0.74194 0.28009 0.0
N2540 N 0.92799 0.78075 0.29799 0.0
N2541 N 0.90895 0.74814 0.28394 0.0
H2542 H 0.84758 0.40895 0.36784 0.0
H2543 H 0.80119 0.42061 0.30813 0.0
H2544 H 0.82902 0.37701 0.33835 0.0
H2545 H 0.80592 0.44776 0.34549 0.0
H2546 H 0.81405 0.40567 0.31778 0.0
H2547 H 0.83485 0.42444 0.35862 0.0
C2548 C 0.84085 0.4052 0.35943 0.0
C2549 C 0.83936 0.39166 0.35385 0.0
C2550 C 0.81229 0.41489 0.32388 0.0
C2551 C 0.82492 0.40932 0.34322 0.0
C2552 C 0.80505 0.42347 0.31834 0.0
C2553 C 0.80257 0.43547 0.326 0.0
C2554 C 0.81725 0.41837 0.33714 0.0
C2555 C 0.80761 0.43858 0.33927 0.0
C2556 C 0.83356 0.41402 0.35422 0.0
C2557 C 0.83046 0.38734 0.34299 0.0
N2558 N 0.8148 0.43011 0.34441 0.0
N2559 N 0.82365 0.39615 0.33798 0.0
H2560 H 0.18466 0.63134 0.72293 0.0
H2561 H 0.21582 0.56316 0.70856 0.0
H2562 H 0.1797 0.60502 0.685 0.0
H2563 H 0.2129 0.58492 0.7488 0.0
H2564 H 0.20276 0.57846 0.69966 0.0
H2565 H 0.19527 0.61463 0.73254 0.0
C2566 C 0.18576 0.62204 0.71663 0.0
C2567 C 0.18132 0.61961 0.70312 0.0
C2568 C 0.20486 0.57982 0.71046 0.0
C2569 C 0.19352 0.60045 0.71404 0.0
C2570 C 0.21235 0.57112 0.71553 0.0
C2571 C 0.21549 0.57279 0.72943 0.0
C2572 C 0.20061 0.59041 0.7193 0.0
C2573 C 0.21063 0.5832 0.73803 0.0
C2574 C 0.19179 0.61248 0.72214 0.0
C2575 C 0.18298 0.60734 0.69546 0.0
N2576 N 0.20354 0.59169 0.73281 0.0
N2577 N 0.18903 0.59827 0.70099 0.0
H2578 H 0.18381 0.38719 0.36667 0.0
H2579 H 0.25372 0.40723 0.325 0.0
H2580 H 0.2199 0.36927 0.36957 0.0
H2581 H 0.21828 0.42643 0.32308 0.0
H2582 H 0.24095 0.39228 0.34022 0.0
H2583 H 0.19563 0.40056 0.34951 0.0
C2584 C 0.19411 0.38584 0.36347 0.0
C2585 C 0.20078 0.37689 0.36934 0.0
C2586 C 0.23593 0.39973 0.33645 0.0
C2587 C 0.21455 0.39248 0.35002 0.0
C2588 C 0.24324 0.40832 0.3278 0.0
C2589 C 0.23711 0.4182 0.32285 0.0
C2590 C 0.22235 0.401 0.34023 0.0
C2591 C 0.2234 0.41893 0.32659 0.0
C2592 C 0.20093 0.39361 0.35379 0.0
C2593 C 0.21436 0.37603 0.36527 0.0
N2594 N 0.21651 0.4105 0.33512 0.0
N2595 N 0.22079 0.38371 0.35586 0.0
H2596 H 0.13894 0.70152 0.34413 0.0
H2597 H 0.09758 0.76325 0.35787 0.0
H2598 H 0.1235 0.71617 0.38392 0.0
H2599 H 0.10975 0.74682 0.3175 0.0
H2600 H 0.10554 0.74492 0.36733 0.0
H2601 H 0.12683 0.71677 0.33388 0.0
C2602 C 0.13289 0.70783 0.3507 0.0
C2603 C 0.13235 0.70765 0.36493 0.0
C2604 C 0.10636 0.74523 0.35638 0.0
C2605 C 0.11855 0.72519 0.35327 0.0
C2606 C 0.10186 0.75572 0.35099 0.0
C2607 C 0.10311 0.75662 0.33689 0.0
C2608 C 0.11231 0.7356 0.34765 0.0
C2609 C 0.10854 0.74648 0.32842 0.0
C2610 C 0.12599 0.71654 0.34483 0.0
C2611 C 0.12432 0.71602 0.37291 0.0
N2612 N 0.11308 0.73647 0.33394 0.0
N2613 N 0.11785 0.72452 0.36699 0.0
H2614 H 0.85041 0.66088 0.3214 0.0
H2615 H 0.78162 0.61022 0.31634 0.0
H2616 H 0.81113 0.6723 0.33334 0.0
H2617 H 0.821 0.59708 0.31418 0.0
H2618 H 0.79233 0.63259 0.32516 0.0
H2619 H 0.84025 0.63733 0.32116 0.0
C2620 C 0.8397 0.65845 0.3242 0.0
C2621 C 0.83155 0.66857 0.32713 0.0
C2622 C 0.79863 0.62478 0.32297 0.0
C2623 C 0.81984 0.64165 0.32673 0.0
C2624 C 0.79248 0.6119 0.318 0.0
C2625 C 0.80041 0.60167 0.3143 0.0
C2626 C 0.81286 0.6276 0.32404 0.0
C2627 C 0.8145 0.60469 0.31652 0.0
C2628 C 0.83391 0.645 0.32407 0.0
C2629 C 0.81777 0.66484 0.33082 0.0
N2630 N 0.82031 0.61743 0.32102 0.0
N2631 N 0.8123 0.65168 0.33028 0.0
H2632 H 0.89124 0.35668 0.32849 0.0
H2633 H 0.94305 0.30471 0.30554 0.0
H2634 H 0.90385 0.33041 0.35488 0.0
H2635 H 0.92989 0.32974 0.27819 0.0
H2636 H 0.93 0.31536 0.32416 0.0
H2637 H 0.90663 0.34836 0.31042 0.0
C2638 C 0.89731 0.34925 0.33053 0.0
C2639 C 0.89617 0.34418 0.34322 0.0
C2640 C 0.92999 0.31859 0.31411 0.0
C2641 C 0.91377 0.33459 0.32256 0.0
C2642 C 0.93741 0.31246 0.30345 0.0
C2643 C 0.93747 0.31623 0.29024 0.0
C2644 C 0.92251 0.32858 0.3116 0.0
C2645 C 0.93019 0.32654 0.28822 0.0
C2646 C 0.90608 0.34449 0.3202 0.0
C2647 C 0.90431 0.33457 0.34526 0.0
N2648 N 0.92292 0.33229 0.29876 0.0
N2649 N 0.91269 0.33006 0.33504 0.0
H2650 H 0.81182 0.37596 0.70144 0.0
H2651 H 0.81943 0.44122 0.75696 0.0
H2652 H 0.8504 0.39966 0.71335 0.0
H2653 H 0.78056 0.41853 0.74459 0.0
H2654 H 0.83086 0.4263 0.74059 0.0
H2655 H 0.80007 0.39166 0.71668 0.0
C2656 C 0.81783 0.38448 0.70722 0.0
C2657 C 0.83214 0.38646 0.70613 0.0
C2658 C 0.81982 0.42459 0.74141 0.0
C2659 C 0.81874 0.40445 0.72361 0.0
C2660 C 0.81329 0.43308 0.75081 0.0
C2661 C 0.79901 0.4311 0.75221 0.0
C2662 C 0.81204 0.41396 0.73333 0.0
C2663 C 0.79158 0.42051 0.74378 0.0
C2664 C 0.81111 0.39344 0.71592 0.0
C2665 C 0.83937 0.39769 0.71387 0.0
N2666 N 0.79818 0.4123 0.73475 0.0
N2667 N 0.8326 0.40621 0.72229 0.0
H2668 H 0.22706 0.31063 0.7477 0.0
H2669 H 0.14639 0.30957 0.75626 0.0
H2670 H 0.20319 0.32449 0.71855 0.0
H2671 H 0.17119 0.30062 0.78759 0.0
H2672 H 0.16697 0.31454 0.742 0.0
H2673 H 0.20658 0.30639 0.7622 0.0
C2674 C 0.21751 0.31278 0.74434 0.0
C2675 C 0.21684 0.3179 0.73187 0.0
C2676 C 0.16792 0.31154 0.75202 0.0
C2677 C 0.19334 0.31305 0.74843 0.0
C2678 C 0.15617 0.30863 0.76013 0.0
C2679 C 0.15708 0.30467 0.77313 0.0
C2680 C 0.18067 0.31037 0.7569 0.0
C2681 C 0.17003 0.30379 0.7777 0.0
C2682 C 0.20582 0.31039 0.75265 0.0
C2683 C 0.20419 0.32054 0.72808 0.0
N2684 N 0.18131 0.30656 0.76957 0.0
N2685 N 0.19293 0.31804 0.7363 0.0
H2686 H 0.87324 0.71766 0.67876 0.0
H2687 H 0.91807 0.71248 0.74265 0.0
H2688 H 0.87611 0.68025 0.69384 0.0
H2689 H 0.91389 0.74974 0.72787 0.0
H2690 H 0.90288 0.7004 0.72486 0.0
H2691 H 0.88852 0.72943 0.69648 0.0
C2692 C 0.87706 0.71191 0.68583 0.0
C2693 C 0.87317 0.69795 0.68494 0.0
C2694 C 0.9053 0.71121 0.7255 0.0
C2695 C 0.89075 0.71141 0.70532 0.0
C2696 C 0.91392 0.71813 0.7357 0.0
C2697 C 0.91728 0.73217 0.73677 0.0
C2698 C 0.89999 0.71836 0.71628 0.0
C2699 C 0.91175 0.73892 0.72734 0.0
C2700 C 0.88577 0.71865 0.69598 0.0
C2701 C 0.87847 0.69104 0.69438 0.0
N2702 N 0.90338 0.73196 0.71753 0.0
N2703 N 0.88699 0.69784 0.70418 0.0
H2704 H 0.71996 0.20311 0.68975 0.0
H2705 H 0.74031 0.21355 0.61272 0.0
H2706 H 0.70342 0.17468 0.65616 0.0
H2707 H 0.76871 0.22694 0.64515 0.0
H2708 H 0.72481 0.20138 0.62872 0.0
H2709 H 0.73635 0.21412 0.67376 0.0
C2710 C 0.71982 0.19915 0.67903 0.0
C2711 C 0.71033 0.18795 0.67427 0.0
C2712 C 0.73446 0.20695 0.63229 0.0
C2713 C 0.72884 0.20064 0.65594 0.0
C2714 C 0.74323 0.21393 0.62322 0.0
C2715 C 0.75577 0.22121 0.62767 0.0
C2716 C 0.73813 0.20752 0.64595 0.0
C2717 C 0.75916 0.22136 0.64134 0.0
C2718 C 0.72918 0.20542 0.66993 0.0
C2719 C 0.71061 0.18324 0.66026 0.0
N2720 N 0.75033 0.21472 0.65005 0.0
N2721 N 0.71961 0.1897 0.65155 0.0
H2722 H 0.33215 0.14871 0.6293 0.0
H2723 H 0.32358 0.19677 0.57471 0.0
H2724 H 0.34323 0.19157 0.6383 0.0
H2725 H 0.28864 0.16873 0.58613 0.0
H2726 H 0.33616 0.1909 0.59314 0.0
H2727 H 0.3211 0.15214 0.60842 0.0
C2728 C 0.33237 0.1588 0.62679 0.0
C2729 C 0.33849 0.1699 0.6355 0.0
C2730 C 0.32579 0.18595 0.5914 0.0
C2731 C 0.3264 0.17379 0.61169 0.0
C2732 C 0.31851 0.18935 0.58097 0.0
C2733 C 0.3048 0.18353 0.57896 0.0
C2734 C 0.31952 0.17635 0.59962 0.0
C2735 C 0.29913 0.1735 0.58713 0.0
C2736 C 0.32607 0.16073 0.61497 0.0
C2737 C 0.3385 0.18278 0.63188 0.0
N2738 N 0.30651 0.17026 0.59714 0.0
N2739 N 0.33264 0.18438 0.62016 0.0
H2740 H 0.3561 0.82613 0.6818 0.0
H2741 H 0.3303 0.79553 0.60706 0.0
H2742 H 0.3671 0.84621 0.6459 0.0
H2743 H 0.30916 0.78503 0.64434 0.0
H2744 H 0.34756 0.81092 0.6207 0.0
H2745 H 0.34267 0.80769 0.66757 0.0
C2746 C 0.35588 0.82658 0.6709 0.0
C2747 C 0.36263 0.83781 0.66506 0.0
C2748 C 0.33921 0.80514 0.62587 0.0
C2749 C 0.34728 0.81673 0.64875 0.0
C2750 C 0.32942 0.79633 0.61812 0.0
C2751 C 0.31827 0.78911 0.62461 0.0
C2752 C 0.3379 0.80657 0.64021 0.0
C2753 C 0.31753 0.79055 0.63896 0.0
C2754 C 0.34815 0.81608 0.66281 0.0
C2755 C 0.36195 0.83781 0.65086 0.0
N2756 N 0.3272 0.79914 0.64628 0.0
N2757 N 0.35435 0.82747 0.6432 0.0
H2758 H 0.80102 0.83903 0.62425 0.0
H2759 H 0.78048 0.78033 0.56505 0.0
H2760 H 0.76499 0.80934 0.62672 0.0
H2761 H 0.80836 0.81627 0.55838 0.0
H2762 H 0.77389 0.79128 0.5872 0.0
H2763 H 0.80339 0.83139 0.59987 0.0
C2764 C 0.79352 0.831 0.61963 0.0
C2765 C 0.78287 0.82472 0.62756 0.0
C2766 C 0.78131 0.79684 0.58081 0.0
C2767 C 0.7856 0.81584 0.5997 0.0
C2768 C 0.78503 0.79062 0.56807 0.0
C2769 C 0.79513 0.79731 0.55981 0.0
C2770 C 0.78785 0.80979 0.58546 0.0
C2771 C 0.80079 0.81058 0.5645 0.0
C2772 C 0.79486 0.82667 0.6057 0.0
C2773 C 0.7734 0.81443 0.62102 0.0
N2774 N 0.79722 0.81631 0.57708 0.0
N2775 N 0.7751 0.81018 0.60751 0.0
H2776 H 0.72119 0.86072 0.43981 0.0
H2777 H 0.72845 0.78546 0.40932 0.0
H2778 H 0.69693 0.83823 0.40699 0.0
H2779 H 0.74935 0.80648 0.44499 0.0
H2780 H 0.71658 0.80455 0.40846 0.0
H2781 H 0.73149 0.84088 0.44197 0.0
C2782 C 0.71798 0.85159 0.4331 0.0
C2783 C 0.70821 0.85115 0.42318 0.0
C2784 C 0.72372 0.80497 0.41651 0.0
C2785 C 0.72001 0.8284 0.42555 0.0
C2786 C 0.73046 0.79403 0.41705 0.0
C2787 C 0.73996 0.79436 0.42722 0.0
C2788 C 0.72653 0.81636 0.42617 0.0
C2789 C 0.74229 0.80585 0.43683 0.0
C2790 C 0.72387 0.84026 0.43434 0.0
C2791 C 0.70443 0.83903 0.41478 0.0
N2792 N 0.73566 0.8164 0.43604 0.0
N2793 N 0.71039 0.82816 0.41611 0.0
H2794 H 0.67286 0.18913 0.43023 0.0
H2795 H 0.74794 0.21731 0.45731 0.0
H2796 H 0.70762 0.16904 0.41952 0.0
H2797 H 0.71203 0.23375 0.47298 0.0
H2798 H 0.73361 0.20045 0.44225 0.0
H2799 H 0.68739 0.20669 0.44444 0.0
C2800 C 0.68361 0.18857 0.43062 0.0
C2801 C 0.6891 0.17775 0.42345 0.0
C2802 C 0.72886 0.20774 0.44899 0.0
C2803 C 0.70573 0.19761 0.44004 0.0
C2804 C 0.73703 0.21734 0.45768 0.0
C2805 C 0.73121 0.22698 0.46652 0.0
C2806 C 0.71473 0.20777 0.44904 0.0
C2807 C 0.71702 0.22664 0.46626 0.0
C2808 C 0.69187 0.1985 0.4389 0.0
C2809 C 0.70299 0.17724 0.42484 0.0
N2810 N 0.70929 0.21721 0.45768 0.0
N2811 N 0.71083 0.18703 0.43294 0.0
H2812 H 0.32824 0.25034 0.34496 0.0
H2813 H 0.32879 0.22637 0.4177 0.0
H2814 H 0.35915 0.22841 0.35548 0.0
H2815 H 0.29179 0.23258 0.40004 0.0
H2816 H 0.34031 0.22698 0.39517 0.0
H2817 H 0.31481 0.24416 0.36529 0.0
C2818 C 0.3321 0.24408 0.35149 0.0
C2819 C 0.34474 0.23978 0.34853 0.0
C2820 C 0.32961 0.22796 0.39619 0.0
C2821 C 0.3296 0.23289 0.37189 0.0
C2822 C 0.32306 0.22765 0.40902 0.0
C2823 C 0.30935 0.22947 0.4107 0.0
C2824 C 0.32246 0.23042 0.38506 0.0
C2825 C 0.30235 0.23106 0.39915 0.0
C2826 C 0.32442 0.24051 0.36304 0.0
C2827 C 0.34933 0.23173 0.35731 0.0
N2828 N 0.30904 0.23172 0.38686 0.0
N2829 N 0.34185 0.22869 0.36872 0.0
H2830 H 0.36102 0.83562 0.4251 0.0
H2831 H 0.29276 0.78926 0.4474 0.0
H2832 H 0.32458 0.82693 0.40139 0.0
H2833 H 0.32948 0.79747 0.4707 0.0
H2834 H 0.30347 0.80474 0.43161 0.0
H2835 H 0.34892 0.82341 0.44295 0.0
C2836 C 0.35043 0.83125 0.42368 0.0
C2837 C 0.34385 0.83223 0.41166 0.0
C2838 C 0.30916 0.80323 0.44023 0.0
C2839 C 0.32992 0.81813 0.43207 0.0
C2840 C 0.30301 0.79445 0.44932 0.0
C2841 C 0.31024 0.79199 0.46039 0.0
C2842 C 0.32267 0.80961 0.44217 0.0
C2843 C 0.32358 0.79888 0.4622 0.0
C2844 C 0.34353 0.82425 0.43389 0.0
C2845 C 0.33009 0.82639 0.41045 0.0
N2846 N 0.32938 0.80731 0.45315 0.0
N2847 N 0.32362 0.81951 0.42048 0.0
H2848 H 0.62869 0.19532 0.69429 0.0
H2849 H 0.60424 0.24911 0.75265 0.0
H2850 H 0.64629 0.20474 0.73419 0.0
H2851 H 0.58686 0.23966 0.71265 0.0
H2852 H 0.61799 0.2312 0.74699 0.0
H2853 H 0.6117 0.20977 0.70171 0.0
C2854 C 0.62891 0.20032 0.70466 0.0
C2855 C 0.63904 0.1989 0.71358 0.0
C2856 C 0.61109 0.23297 0.73949 0.0
C2857 C 0.61961 0.21558 0.72213 0.0
C2858 C 0.60315 0.24314 0.74275 0.0
C2859 C 0.59442 0.24599 0.73308 0.0
C2860 C 0.61035 0.22556 0.72645 0.0
C2861 C 0.59361 0.23801 0.72034 0.0
C2862 C 0.6192 0.2086 0.70889 0.0
C2863 C 0.63873 0.20558 0.72693 0.0
N2864 N 0.60153 0.22824 0.71737 0.0
N2865 N 0.62926 0.21372 0.73076 0.0
H2866 H 0.33099 0.12974 0.71099 0.0
H2867 H 0.32721 0.08523 0.77292 0.0
H2868 H 0.36636 0.11988 0.72884 0.0
H2869 H 0.2919 0.09699 0.75681 0.0
H2870 H 0.34161 0.09696 0.75606 0.0
H2871 H 0.31637 0.11661 0.7267 0.0
C2872 C 0.33568 0.12475 0.71815 0.0
C2873 C 0.34993 0.12597 0.71864 0.0
C2874 C 0.33071 0.09696 0.75619 0.0
C2875 C 0.33325 0.11097 0.73669 0.0
C2876 C 0.32248 0.09033 0.76588 0.0
C2877 C 0.30831 0.09016 0.76633 0.0
C2878 C 0.32475 0.10349 0.74685 0.0
C2879 C 0.30275 0.09673 0.75676 0.0
C2880 C 0.32733 0.11727 0.72714 0.0
C2881 C 0.35544 0.11926 0.72813 0.0
N2882 N 0.31098 0.10315 0.74744 0.0
N2883 N 0.34709 0.1121 0.7368 0.0
H2884 H 0.39801 0.85218 0.74297 0.0
H2885 H 0.47517 0.8394 0.74703 0.0
H2886 H 0.42852 0.85968 0.71103 0.0
H2887 H 0.44476 0.83364 0.7794 0.0
H2888 H 0.45831 0.84672 0.73356 0.0
H2889 H 0.4151 0.84531 0.75639 0.0
C2890 C 0.40831 0.85239 0.73877 0.0
C2891 C 0.41183 0.85651 0.72584 0.0
C2892 C 0.45535 0.84389 0.74363 0.0
C2893 C 0.43149 0.84862 0.74117 0.0
C2894 C 0.46495 0.83965 0.7513 0.0
C2895 C 0.4614 0.83593 0.76439 0.0
C2896 C 0.44207 0.84436 0.74905 0.0
C2897 C 0.44804 0.8366 0.76945 0.0
C2898 C 0.41808 0.84847 0.74645 0.0
C2899 C 0.42535 0.85658 0.72094 0.0
N2900 N 0.43888 0.8407 0.76177 0.0
N2901 N 0.43468 0.85268 0.7286 0.0
H2902 H 0.7713 0.87908 0.68079 0.0
H2903 H 0.74005 0.91129 0.75116 0.0
H2904 H 0.74641 0.85607 0.70923 0.0
H2905 H 0.76931 0.93334 0.72533 0.0
H2906 H 0.73877 0.89171 0.73381 0.0
H2907 H 0.76746 0.8997 0.69504 0.0
C2908 C 0.7648 0.87839 0.6899 0.0
C2909 C 0.75896 0.86585 0.6937 0.0
C2910 C 0.74536 0.90088 0.73187 0.0
C2911 C 0.75466 0.88936 0.71016 0.0
C2912 C 0.74601 0.91209 0.74173 0.0
C2913 C 0.75492 0.92391 0.73974 0.0
C2914 C 0.75365 0.90152 0.71995 0.0
C2915 C 0.7625 0.92434 0.72737 0.0
C2916 C 0.76262 0.89014 0.69803 0.0
C2917 C 0.75071 0.8655 0.70564 0.0
N2918 N 0.76178 0.91328 0.718 0.0
N2919 N 0.74889 0.87708 0.71351 0.0
H2920 H 0.64315 0.84167 0.35269 0.0
H2921 H 0.6049 0.83997 0.2827 0.0
H2922 H 0.6488 0.87481 0.32857 0.0
H2923 H 0.6013 0.80652 0.30624 0.0
H2924 H 0.62054 0.85316 0.29953 0.0
H2925 H 0.62728 0.82896 0.33598 0.0
C2926 C 0.64106 0.8463 0.34388 0.0
C2927 C 0.64735 0.85934 0.34203 0.0
C2928 C 0.6163 0.84294 0.30102 0.0
C2929 C 0.6291 0.84478 0.3228 0.0
C2930 C 0.60741 0.83538 0.29138 0.0
C2931 C 0.60174 0.8221 0.29305 0.0
C2932 C 0.61956 0.83719 0.3124 0.0
C2933 C 0.60523 0.81677 0.30461 0.0
C2934 C 0.63197 0.83901 0.33432 0.0
C2935 C 0.6442 0.86478 0.3304 0.0
N2936 N 0.61391 0.82431 0.31381 0.0
N2937 N 0.6353 0.85748 0.32122 0.0
H2938 H 0.68449 0.12569 0.35315 0.0
H2939 H 0.72272 0.06213 0.33249 0.0
H2940 H 0.69299 0.09961 0.38187 0.0
H2941 H 0.71249 0.08703 0.30342 0.0
H2942 H 0.71206 0.07587 0.35074 0.0
H2943 H 0.69495 0.11182 0.33484 0.0
C2944 C 0.68858 0.11706 0.35562 0.0
C2945 C 0.68786 0.11381 0.36908 0.0
C2946 C 0.71211 0.07832 0.34037 0.0
C2947 C 0.69983 0.09786 0.34814 0.0
C2948 C 0.71825 0.07051 0.32995 0.0
C2949 C 0.71853 0.07344 0.31639 0.0
C2950 C 0.70623 0.0892 0.33726 0.0
C2951 C 0.71239 0.0843 0.31369 0.0
C2952 C 0.69453 0.10913 0.34515 0.0
C2953 C 0.69331 0.1025 0.37165 0.0
N2954 N 0.70654 0.09181 0.32402 0.0
N2955 N 0.69907 0.09494 0.36128 0.0
H2956 H 0.41665 0.2608 0.31633 0.0
H2957 H 0.47105 0.32242 0.34792 0.0
H2958 H 0.40553 0.29769 0.33696 0.0
H2959 H 0.48113 0.29073 0.31757 0.0
H2960 H 0.44726 0.31143 0.3478 0.0
H2961 H 0.44062 0.26966 0.32059 0.0
C2962 C 0.41923 0.27072 0.32185 0.0
C2963 C 0.40909 0.27858 0.32617 0.0
C2964 C 0.45475 0.30684 0.34129 0.0
C2965 C 0.43649 0.28875 0.33112 0.0
C2966 C 0.46833 0.31312 0.34132 0.0
C2967 C 0.47816 0.30759 0.33265 0.0
C2968 C 0.45097 0.29491 0.33261 0.0
C2969 C 0.47402 0.29534 0.32455 0.0
C2970 C 0.43292 0.27578 0.32426 0.0
C2971 C 0.41304 0.29134 0.33333 0.0
N2972 N 0.46075 0.28948 0.32466 0.0
N2973 N 0.42644 0.29606 0.33554 0.0
H2974 H 0.33852 0.91011 0.36179 0.0
H2975 H 0.33027 0.94781 0.29803 0.0
H2976 H 0.34413 0.89132 0.32064 0.0
H2977 H 0.29966 0.9465 0.33078 0.0
H2978 H 0.34105 0.93169 0.30832 0.0
H2979 H 0.32977 0.92834 0.3525 0.0
C2980 C 0.33806 0.90992 0.35082 0.0
C2981 C 0.34196 0.8992 0.34194 0.0
C2982 C 0.33204 0.93511 0.31325 0.0
C2983 C 0.33237 0.92004 0.33136 0.0
C2984 C 0.32576 0.94424 0.30735 0.0
C2985 C 0.31377 0.94848 0.31332 0.0
C2986 C 0.3266 0.93046 0.32544 0.0
C2987 C 0.3089 0.94377 0.32577 0.0
C2988 C 0.33304 0.92026 0.34556 0.0
C2989 C 0.34111 0.89936 0.32781 0.0
N2990 N 0.31533 0.93503 0.3314 0.0
N2991 N 0.3365 0.90968 0.32293 0.0
H2992 H 0.69095 0.13427 0.73301 0.0
H2993 H 0.74596 0.08623 0.72139 0.0
H2994 H 0.70257 0.11828 0.69228 0.0
H2995 H 0.71629 0.0829 0.75486 0.0
H2996 H 0.73232 0.10013 0.71135 0.0
H2997 H 0.70255 0.11796 0.74232 0.0
C2998 C 0.69593 0.12733 0.72604 0.0
C2999 C 0.69581 0.12761 0.71186 0.0
C3000 C 0.72879 0.09625 0.72085 0.0
C3001 C 0.70923 0.10916 0.72244 0.0
C3002 C 0.73652 0.08817 0.72659 0.0
C3003 C 0.73239 0.08324 0.73911 0.0
C3004 C 0.71701 0.09978 0.72778 0.0
C3005 C 0.72017 0.08663 0.74541 0.0
C3006 C 0.70247 0.118 0.73135 0.0
C3007 C 0.70238 0.11836 0.70328 0.0
N3008 N 0.71302 0.09481 0.73978 0.0
N3009 N 0.70898 0.10961 0.7087 0.0
H3010 H 0.72676 0.89475 0.3804 0.0
H3011 H 0.73715 0.94971 0.32974 0.0
H3012 H 0.69256 0.91142 0.36836 0.0
H3013 H 0.76062 0.91722 0.32465 0.0
H3014 H 0.72189 0.93788 0.34619 0.0
H3015 H 0.74079 0.90493 0.36216 0.0
C3016 C 0.72221 0.90051 0.37386 0.0
C3017 C 0.70849 0.90219 0.37577 0.0
C3018 C 0.73033 0.93332 0.34139 0.0
C3019 C 0.72448 0.91404 0.35519 0.0
C3020 C 0.73903 0.94007 0.33211 0.0
C3021 C 0.75008 0.93437 0.32593 0.0
C3022 C 0.73295 0.92099 0.34473 0.0
C3023 C 0.75215 0.92187 0.32923 0.0
C3024 C 0.73018 0.90624 0.36345 0.0
C3025 C 0.70305 0.90974 0.36706 0.0
N3026 N 0.74375 0.91564 0.33856 0.0
N3027 N 0.71112 0.91556 0.35723 0.0
H3028 H 0.63689 0.2181 0.39569 0.0
H3029 H 0.65681 0.29037 0.36987 0.0
H3030 H 0.67765 0.24056 0.39644 0.0
H3031 H 0.61581 0.26846 0.36934 0.0
H3032 H 0.66433 0.2726 0.38055 0.0
H3033 H 0.62874 0.23673 0.38691 0.0
C3034 C 0.64412 0.22697 0.39407 0.0
C3035 C 0.658 0.22773 0.39676 0.0
C3036 C 0.65367 0.27168 0.37816 0.0
C3037 C 0.64872 0.24909 0.38667 0.0
C3038 C 0.64933 0.28189 0.37214 0.0
C3039 C 0.63562 0.28096 0.36872 0.0
C3040 C 0.64427 0.26037 0.38078 0.0
C3041 C 0.6265 0.26956 0.37166 0.0
C3042 C 0.63945 0.2376 0.38905 0.0
C3043 C 0.66688 0.23949 0.39448 0.0
N3044 N 0.63099 0.2597 0.37749 0.0
N3045 N 0.66209 0.24967 0.38953 0.0
H3046 H 0.33534 0.17233 0.3285 0.0
H3047 H 0.34365 0.10751 0.27561 0.0
H3048 H 0.37152 0.16837 0.30322 0.0
H3049 H 0.30615 0.11364 0.29771 0.0
H3050 H 0.35501 0.12849 0.28775 0.0
H3051 H 0.3256 0.14948 0.31962 0.0
C3052 C 0.3413 0.16662 0.32117 0.0
C3053 C 0.35422 0.17234 0.31649 0.0
C3054 C 0.34432 0.12518 0.29002 0.0
C3055 C 0.34308 0.14616 0.30622 0.0
C3056 C 0.33781 0.11324 0.28304 0.0
C3057 C 0.32388 0.10884 0.28555 0.0
C3058 C 0.33686 0.13281 0.29957 0.0
C3059 C 0.31691 0.11655 0.29551 0.0
C3060 C 0.33571 0.15357 0.31608 0.0
C3061 C 0.36149 0.16441 0.30704 0.0
N3062 N 0.32345 0.12819 0.30207 0.0
N3063 N 0.35577 0.15176 0.30214 0.0
H3064 H 0.3931 0.86065 0.32562 0.0
H3065 H 0.43376 0.79965 0.30153 0.0
H3066 H 0.39213 0.82651 0.34778 0.0
H3067 H 0.43954 0.83607 0.28231 0.0
H3068 H 0.41883 0.80964 0.31879 0.0
H3069 H 0.41036 0.85213 0.30983 0.0
C3070 C 0.39657 0.85142 0.32723 0.0
C3071 C 0.39108 0.84427 0.33803 0.0
C3072 C 0.42342 0.81549 0.31085 0.0
C3073 C 0.41077 0.83441 0.31993 0.0
C3074 C 0.43205 0.80981 0.30101 0.0
C3075 C 0.43795 0.81699 0.29038 0.0
C3076 C 0.42055 0.82844 0.31007 0.0
C3077 C 0.43507 0.83005 0.29016 0.0
C3078 C 0.40642 0.84656 0.31821 0.0
C3079 C 0.396 0.83237 0.3396 0.0
N3080 N 0.42653 0.83532 0.2998 0.0
N3081 N 0.40548 0.82779 0.33061 0.0
H3082 H 0.33203 0.90453 0.68226 0.0
H3083 H 0.32158 0.95273 0.75135 0.0
H3084 H 0.36183 0.91421 0.71387 0.0
H3085 H 0.28969 0.93663 0.72286 0.0
H3086 H 0.33751 0.94106 0.73656 0.0
H3087 H 0.31759 0.91882 0.69572 0.0
C3088 C 0.3356 0.90973 0.692 0.0
C3089 C 0.34814 0.90807 0.69699 0.0
C3090 C 0.32704 0.94017 0.73353 0.0
C3091 C 0.33156 0.92448 0.71251 0.0
C3092 C 0.31791 0.94678 0.74199 0.0
C3093 C 0.3042 0.94563 0.73842 0.0
C3094 C 0.32247 0.93238 0.72136 0.0
C3095 C 0.30015 0.93798 0.726 0.0
C3096 C 0.32731 0.91788 0.69971 0.0
C3097 C 0.35222 0.91514 0.70967 0.0
N3098 N 0.30921 0.93162 0.71798 0.0
N3099 N 0.34392 0.92299 0.71703 0.0
H3100 H 0.69142 0.82276 0.71138 0.0
H3101 H 0.64094 0.85325 0.76821 0.0
H3102 H 0.69626 0.86459 0.72776 0.0
H3103 H 0.63681 0.81131 0.75244 0.0
H3104 H 0.66029 0.8579 0.75234 0.0
H3105 H 0.67044 0.81869 0.72516 0.0
C3106 C 0.68804 0.83111 0.71783 0.0
C3107 C 0.69567 0.84403 0.71847 0.0
C3108 C 0.6551 0.84769 0.75229 0.0
C3109 C 0.67163 0.83942 0.73432 0.0
C3110 C 0.64408 0.84502 0.76139 0.0
C3111 C 0.63728 0.83185 0.76172 0.0
C3112 C 0.65939 0.83711 0.74346 0.0
C3113 C 0.64166 0.82162 0.75247 0.0
C3114 C 0.67605 0.82877 0.7257 0.0
C3115 C 0.69075 0.85446 0.72697 0.0
N3116 N 0.65248 0.82446 0.74379 0.0
N3117 N 0.67908 0.85191 0.73461 0.0
H3118 H 0.39037 0.20579 0.674 0.0
H3119 H 0.44883 0.23893 0.72627 0.0
H3120 H 0.40776 0.18405 0.70185 0.0
H3121 H 0.43202 0.261 0.69837 0.0
H3122 H 0.43526 0.2183 0.71591 0.0
H3123 H 0.4071 0.22557 0.68101 0.0
C3124 C 0.39781 0.20511 0.68145 0.0
C3125 C 0.39755 0.19326 0.68744 0.0
C3126 C 0.43458 0.22763 0.71197 0.0
C3127 C 0.41665 0.21592 0.6956 0.0
C3128 C 0.44227 0.23943 0.71795 0.0
C3129 C 0.44144 0.25173 0.71328 0.0
C3130 C 0.4259 0.2281 0.70128 0.0
C3131 C 0.433 0.25173 0.70227 0.0
C3132 C 0.40734 0.21643 0.68548 0.0
C3133 C 0.40747 0.19298 0.69702 0.0
N3134 N 0.42546 0.24011 0.69672 0.0
N3135 N 0.41652 0.20417 0.70089 0.0
H3136 H 0.71878 0.66406 0.1673 0.0
H3137 H 0.75333 0.73056 0.13573 0.0
H3138 H 0.70641 0.70293 0.17797 0.0
H3139 H 0.76179 0.69111 0.11985 0.0
H3140 H 0.73684 0.72051 0.15199 0.0
H3141 H 0.7354 0.6737 0.15064 0.0
C3142 C 0.71955 0.6746 0.16616 0.0
C3143 C 0.71116 0.68268 0.17407 0.0
C3144 C 0.74226 0.71403 0.14494 0.0
C3145 C 0.73017 0.69376 0.15507 0.0
C3146 C 0.75164 0.71976 0.13556 0.0
C3147 C 0.75892 0.71168 0.1263 0.0
C3148 C 0.74013 0.70008 0.14517 0.0
C3149 C 0.75651 0.69776 0.12687 0.0
C3150 C 0.72902 0.68008 0.15663 0.0
C3151 C 0.71262 0.69628 0.17212 0.0
N3152 N 0.74732 0.6924 0.13614 0.0
N3153 N 0.72193 0.70137 0.16286 0.0
H3154 H 0.35615 0.66191 0.11765 0.0
H3155 H 0.30749 0.70982 0.09438 0.0
H3156 H 0.32523 0.67814 0.14387 0.0
H3157 H 0.33781 0.69324 0.06758 0.0
H3158 H 0.31259 0.6967 0.11195 0.0
H3159 H 0.34848 0.67184 0.09865 0.0
C3160 C 0.34768 0.66748 0.11939 0.0
C3161 C 0.34139 0.66927 0.13241 0.0
C3162 C 0.31807 0.69584 0.1022 0.0
C3163 C 0.33258 0.68071 0.1107 0.0
C3164 C 0.31507 0.70326 0.09209 0.0
C3165 C 0.32224 0.70268 0.07945 0.0
C3166 C 0.32837 0.6878 0.09973 0.0
C3167 C 0.33216 0.69417 0.07723 0.0
C3168 C 0.34331 0.67315 0.10853 0.0
C3169 C 0.33044 0.67655 0.13404 0.0
N3170 N 0.33498 0.68713 0.08729 0.0
N3171 N 0.32645 0.68206 0.12335 0.0
H3172 H 0.3876 0.36791 0.1686 0.0
H3173 H 0.3684 0.29202 0.13398 0.0
H3174 H 0.41147 0.33677 0.17232 0.0
H3175 H 0.34505 0.32328 0.12896 0.0
H3176 H 0.38401 0.30824 0.1484 0.0
H3177 H 0.37147 0.35165 0.15471 0.0
C3178 C 0.38931 0.35761 0.16674 0.0
C3179 C 0.40074 0.35364 0.1719 0.0
C3180 C 0.37548 0.31157 0.14415 0.0
C3181 C 0.38254 0.33503 0.15563 0.0
C3182 C 0.3666 0.30232 0.13583 0.0
C3183 C 0.3554 0.30628 0.13018 0.0
C3184 C 0.3732 0.32493 0.14689 0.0
C3185 C 0.35345 0.31973 0.1332 0.0
C3186 C 0.38018 0.34835 0.15865 0.0
C3187 C 0.40276 0.34026 0.16861 0.0
N3188 N 0.36227 0.32856 0.14132 0.0
N3189 N 0.39374 0.33144 0.16071 0.0
H3190 H 0.79364 0.32811 0.13566 0.0
H3191 H 0.74191 0.26646 0.09994 0.0
H3192 H 0.76338 0.30361 0.1584 0.0
H3193 H 0.78028 0.28322 0.08172 0.0
H3194 H 0.74667 0.28282 0.12026 0.0
H3195 H 0.78552 0.31471 0.1145 0.0
C3196 C 0.78519 0.32 0.1362 0.0
C3197 C 0.77929 0.31687 0.14883 0.0
C3198 C 0.75393 0.28295 0.1117 0.0
C3199 C 0.76996 0.30148 0.12463 0.0
C3200 C 0.75127 0.27359 0.10012 0.0
C3201 C 0.76071 0.27335 0.08903 0.0
C3202 C 0.76604 0.29222 0.11215 0.0
C3203 C 0.77253 0.28306 0.08982 0.0
C3204 C 0.78059 0.31233 0.12411 0.0
C3205 C 0.76831 0.30628 0.14889 0.0
N3206 N 0.77486 0.29203 0.10117 0.0
N3207 N 0.76405 0.2989 0.13696 0.0
H3208 H 0.69322 0.33709 0.91982 0.0
H3209 H 0.75398 0.32348 0.96403 0.0
H3210 H 0.71686 0.36765 0.94723 0.0
H3211 H 0.73055 0.29289 0.93649 0.0
H3212 H 0.73993 0.33961 0.95861 0.0
H3213 H 0.70619 0.32056 0.92643 0.0
C3214 C 0.70111 0.34033 0.92725 0.0
C3215 C 0.70398 0.35379 0.93295 0.0
C3216 C 0.73782 0.32936 0.95379 0.0
C3217 C 0.71888 0.33491 0.94055 0.0
C3218 C 0.74588 0.32015 0.95683 0.0
C3219 C 0.74349 0.30682 0.95066 0.0
C3220 C 0.72728 0.32524 0.94446 0.0
C3221 C 0.73269 0.30303 0.94159 0.0
C3222 C 0.70851 0.33088 0.93103 0.0
C3223 C 0.71431 0.35739 0.94255 0.0
N3224 N 0.72504 0.31221 0.93872 0.0
N3225 N 0.72141 0.34801 0.94602 0.0
H3226 H 0.70483 0.68511 0.90894 0.0
H3227 H 0.71621 0.74497 0.97 0.0
H3228 H 0.67809 0.71469 0.91879 0.0
H3229 H 0.74141 0.71375 0.96342 0.0
H3230 H 0.70153 0.7331 0.95195 0.0
H3231 H 0.71778 0.69455 0.92938 0.0
C3232 C 0.7016 0.6935 0.91544 0.0
C3233 C 0.6904 0.69917 0.91206 0.0
C3234 C 0.7102 0.72877 0.9545 0.0
C3235 C 0.70521 0.71005 0.9354 0.0
C3236 C 0.71857 0.7355 0.96492 0.0
C3237 C 0.73011 0.73038 0.96832 0.0
C3238 C 0.71339 0.71683 0.94724 0.0
C3239 C 0.73275 0.7182 0.96106 0.0
C3240 C 0.70901 0.69889 0.9271 0.0
C3241 C 0.68669 0.71003 0.9209 0.0
N3242 N 0.7245 0.71188 0.95081 0.0
N3243 N 0.69412 0.71514 0.93208 0.0
H3244 H 0.37057 0.66706 0.85927 0.0
H3245 H 0.34848 0.70969 0.92705 0.0
H3246 H 0.39622 0.67757 0.8943 0.0
H3247 H 0.31872 0.68541 0.90025 0.0
H3248 H 0.36649 0.69931 0.91416 0.0
H3249 H 0.35164 0.67464 0.87315 0.0
C3250 C 0.37216 0.67055 0.86995 0.0
C3251 C 0.38496 0.67131 0.87568 0.0
C3252 C 0.35602 0.69618 0.91114 0.0
C3253 C 0.36349 0.68069 0.89145 0.0
C3254 C 0.34577 0.70215 0.91844 0.0
C3255 C 0.33215 0.69841 0.91464 0.0
C3256 C 0.35266 0.68657 0.89981 0.0
C3257 C 0.32912 0.68851 0.9035 0.0
C3258 C 0.36137 0.67507 0.87783 0.0
C3259 C 0.38654 0.67674 0.88944 0.0
N3260 N 0.33933 0.68302 0.89635 0.0
N3261 N 0.37597 0.68129 0.89681 0.0
H3262 H 0.33705 0.35043 0.90931 0.0
H3263 H 0.32285 0.29021 0.95569 0.0
H3264 H 0.35232 0.31285 0.89971 0.0
H3265 H 0.3105 0.32885 0.96806 0.0
H3266 H 0.33354 0.2985 0.93506 0.0
H3267 H 0.32686 0.3428 0.93066 0.0
C3268 C 0.33825 0.34058 0.91168 0.0
C3269 C 0.34555 0.33226 0.90269 0.0
C3270 C 0.32855 0.30521 0.9423 0.0
C3271 C 0.33394 0.32349 0.92707 0.0
C3272 C 0.32252 0.30051 0.95418 0.0
C3273 C 0.3158 0.30885 0.96373 0.0
C3274 C 0.32785 0.31837 0.93982 0.0
C3275 C 0.31544 0.322 0.96094 0.0
C3276 C 0.33246 0.33625 0.92387 0.0
C3277 C 0.3468 0.31962 0.9063 0.0
N3278 N 0.32136 0.32635 0.94924 0.0
N3279 N 0.34105 0.31563 0.91817 0.0
H3280 H 0.62497 0.68994 0.19673 0.0
H3281 H 0.60314 0.74274 0.25758 0.0
H3282 H 0.64568 0.69997 0.23501 0.0
H3283 H 0.5836 0.73379 0.21863 0.0
H3284 H 0.6169 0.72505 0.25065 0.0
H3285 H 0.60795 0.70384 0.2057 0.0
C3286 C 0.62588 0.69495 0.20708 0.0
C3287 C 0.63688 0.69388 0.21507 0.0
C3288 C 0.60952 0.72687 0.24366 0.0
C3289 C 0.61742 0.70994 0.22539 0.0
C3290 C 0.60158 0.73692 0.24765 0.0
C3291 C 0.59225 0.73984 0.23864 0.0
C3292 C 0.60816 0.71968 0.23054 0.0
C3293 C 0.59083 0.73206 0.22582 0.0
C3294 C 0.61615 0.70292 0.21219 0.0
C3295 C 0.63744 0.70056 0.22845 0.0
N3296 N 0.59875 0.72241 0.22213 0.0
N3297 N 0.62793 0.70839 0.23314 0.0
H3298 H 0.32398 0.61533 0.19348 0.0
H3299 H 0.30263 0.56792 0.2523 0.0
H3300 H 0.35203 0.60689 0.22214 0.0
H3301 H 0.27471 0.57393 0.22231 0.0
H3302 H 0.32102 0.58154 0.24071 0.0
H3303 H 0.30599 0.59949 0.20311 0.0
C3304 C 0.32639 0.61009 0.20173 0.0
C3305 C 0.33953 0.61252 0.20707 0.0
C3306 C 0.3109 0.57984 0.2366 0.0
C3307 C 0.31897 0.59443 0.21817 0.0
C3308 C 0.30037 0.57212 0.24327 0.0
C3309 C 0.28709 0.56987 0.23833 0.0
C3310 C 0.30815 0.58546 0.22493 0.0
C3311 C 0.28481 0.57535 0.22643 0.0
C3312 C 0.31611 0.60105 0.20722 0.0
C3313 C 0.34205 0.6054 0.21773 0.0
N3314 N 0.29522 0.58298 0.22019 0.0
N3315 N 0.33187 0.59676 0.22297 0.0
H3316 H 0.48412 0.369 0.20728 0.0
H3317 H 0.49039 0.32795 0.27003 0.0
H3318 H 0.44958 0.35204 0.23112 0.0
H3319 H 0.52335 0.35704 0.25689 0.0
H3320 H 0.47615 0.33304 0.25248 0.0
H3321 H 0.49937 0.36123 0.22232 0.0
C3322 C 0.47974 0.36354 0.21559 0.0
C3323 C 0.46556 0.36122 0.21801 0.0
C3324 C 0.48654 0.33822 0.25335 0.0
C3325 C 0.48291 0.35224 0.23511 0.0
C3326 C 0.49472 0.33523 0.26328 0.0
C3327 C 0.50809 0.34208 0.26492 0.0
C3328 C 0.49177 0.34806 0.24491 0.0
C3329 C 0.51307 0.3516 0.25602 0.0
C3330 C 0.48845 0.35916 0.22418 0.0
C3331 C 0.46045 0.35413 0.22894 0.0
N3332 N 0.5049 0.35433 0.24639 0.0
N3333 N 0.46911 0.34988 0.23707 0.0
H3334 H 0.76599 0.35172 0.23113 0.0
H3335 H 0.7564 0.42884 0.23932 0.0
H3336 H 0.77383 0.37643 0.19832 0.0
H3337 H 0.75426 0.40491 0.27277 0.0
H3338 H 0.75903 0.40891 0.22334 0.0
H3339 H 0.75777 0.37019 0.24559 0.0
C3340 C 0.7656 0.36091 0.22684 0.0
C3341 C 0.77028 0.36245 0.21341 0.0
C3342 C 0.75781 0.40801 0.23417 0.0
C3343 C 0.76142 0.38389 0.2301 0.0
C3344 C 0.75634 0.41939 0.24331 0.0
C3345 C 0.75523 0.41862 0.25746 0.0
C3346 C 0.75816 0.39578 0.2392 0.0
C3347 C 0.75495 0.40603 0.26198 0.0
C3348 C 0.7611 0.37155 0.23517 0.0
C3349 C 0.77023 0.37484 0.20861 0.0
N3350 N 0.75653 0.39516 0.2529 0.0
N3351 N 0.7659 0.38512 0.21697 0.0
H3352 H 0.62626 0.3748 0.844 0.0
H3353 H 0.62228 0.33021 0.77093 0.0
H3354 H 0.66167 0.36668 0.81917 0.0
H3355 H 0.58701 0.33677 0.79667 0.0
H3356 H 0.63677 0.34514 0.78757 0.0
H3357 H 0.61165 0.36249 0.8259 0.0
C3358 C 0.63097 0.37051 0.83471 0.0
C3359 C 0.64522 0.3717 0.83315 0.0
C3360 C 0.62585 0.34336 0.78956 0.0
C3361 C 0.62853 0.35753 0.81239 0.0
C3362 C 0.61756 0.3349 0.78001 0.0
C3363 C 0.6034 0.33218 0.78243 0.0
C3364 C 0.61996 0.34917 0.80162 0.0
C3365 C 0.59789 0.33841 0.79448 0.0
C3366 C 0.62262 0.36346 0.82437 0.0
C3367 C 0.65074 0.36596 0.82086 0.0
N3368 N 0.60618 0.34657 0.80363 0.0
N3369 N 0.64239 0.35907 0.81098 0.0
H3370 H 0.7117 0.65665 0.84052 0.0
H3371 H 0.7052 0.57759 0.81779 0.0
H3372 H 0.67842 0.62811 0.85411 0.0
H3373 H 0.74152 0.60583 0.81116 0.0
H3374 H 0.69463 0.59592 0.83024 0.0
H3375 H 0.7222 0.63811 0.82875 0.0
C3376 C 0.70659 0.64648 0.84103 0.0
C3377 C 0.69415 0.64394 0.84832 0.0
C3378 C 0.70494 0.59808 0.82612 0.0
C3379 C 0.70614 0.62262 0.83481 0.0
C3380 C 0.71095 0.58764 0.81897 0.0
C3381 C 0.72428 0.59017 0.81347 0.0
C3382 C 0.71226 0.61117 0.82764 0.0
C3383 C 0.7313 0.60336 0.81539 0.0
C3384 C 0.71261 0.63589 0.83433 0.0
C3385 C 0.68802 0.63054 0.84863 0.0
N3386 N 0.72518 0.61335 0.82224 0.0
N3387 N 0.69405 0.62038 0.84193 0.0
H3388 H 0.43455 0.69855 0.82183 0.0
H3389 H 0.48715 0.76711 0.8332 0.0
H3390 H 0.46103 0.70947 0.85623 0.0
H3391 H 0.45984 0.75707 0.79942 0.0
H3392 H 0.47814 0.7457 0.84137 0.0
H3393 H 0.44425 0.7195 0.81294 0.0
C3394 C 0.44244 0.70532 0.82749 0.0
C3395 C 0.44697 0.70226 0.83981 0.0
C3396 C 0.47411 0.74816 0.83216 0.0
C3397 C 0.45808 0.72628 0.82971 0.0
C3398 C 0.4792 0.76043 0.82753 0.0
C3399 C 0.47419 0.76395 0.81564 0.0
C3400 C 0.46392 0.73928 0.82487 0.0
C3401 C 0.46408 0.75475 0.80857 0.0
C3402 C 0.44796 0.7173 0.82241 0.0
C3403 C 0.45721 0.71142 0.8467 0.0
N3404 N 0.45925 0.74286 0.81331 0.0
N3405 N 0.4624 0.72302 0.84157 0.0
H3406 H 0.33526 0.41287 0.85229 0.0
H3407 H 0.29657 0.42711 0.78809 0.0
H3408 H 0.32704 0.38372 0.81675 0.0
H3409 H 0.28675 0.44386 0.82906 0.0
H3410 H 0.31199 0.41423 0.79742 0.0
H3411 H 0.32142 0.42733 0.84287 0.0
C3412 C 0.33063 0.40957 0.84247 0.0
C3413 C 0.33225 0.39707 0.8353 0.0
C3414 C 0.30653 0.4208 0.80435 0.0
C3415 C 0.31665 0.41359 0.82445 0.0
C3416 C 0.29784 0.42823 0.79904 0.0
C3417 C 0.29042 0.43658 0.80783 0.0
C3418 C 0.30801 0.42189 0.81854 0.0
C3419 C 0.29228 0.4375 0.82196 0.0
C3420 C 0.32271 0.41778 0.83715 0.0
C3421 C 0.32598 0.39324 0.82265 0.0
N3422 N 0.30095 0.43027 0.8269 0.0
N3423 N 0.31853 0.40151 0.81759 0.0
H3424 H 0.7188 0.64433 0.23486 0.0
H3425 H 0.72179 0.56938 0.2493 0.0
H3426 H 0.69204 0.61035 0.21523 0.0
H3427 H 0.75592 0.60144 0.25445 0.0
H3428 H 0.70887 0.58455 0.23966 0.0
H3429 H 0.73065 0.62899 0.24517 0.0
C3430 C 0.71537 0.63364 0.23277 0.0
C3431 C 0.70444 0.62861 0.22412 0.0
C3432 C 0.7192 0.58821 0.24289 0.0
C3433 C 0.71794 0.611 0.23597 0.0
C3434 C 0.72653 0.57961 0.24842 0.0
C3435 C 0.73996 0.58416 0.25255 0.0
C3436 C 0.72528 0.6015 0.24176 0.0
C3437 C 0.74566 0.59748 0.2512 0.0
C3438 C 0.72218 0.62489 0.23862 0.0
C3439 C 0.70046 0.61465 0.22177 0.0
N3440 N 0.73827 0.60569 0.24599 0.0
N3441 N 0.70718 0.60631 0.2277 0.0
H3442 H 0.67877 0.41173 0.87547 0.0
H3443 H 0.7425 0.41529 0.82318 0.0
H3444 H 0.71245 0.39072 0.87963 0.0
H3445 H 0.72262 0.44963 0.83596 0.0
H3446 H 0.7281 0.40287 0.83982 0.0
H3447 H 0.69143 0.42251 0.85675 0.0
C3448 C 0.68873 0.40922 0.87227 0.0
C3449 C 0.69459 0.4003 0.879 0.0
C3450 C 0.72685 0.41309 0.83888 0.0
C3451 C 0.70899 0.41249 0.85772 0.0
C3452 C 0.73497 0.42012 0.82939 0.0
C3453 C 0.73369 0.43345 0.8283 0.0
C3454 C 0.71722 0.41938 0.84707 0.0
C3455 C 0.72389 0.43936 0.83659 0.0
C3456 C 0.69596 0.41544 0.8617 0.0
C3457 C 0.70762 0.39758 0.87468 0.0
N3458 N 0.71596 0.43226 0.84562 0.0
N3459 N 0.71438 0.4036 0.86424 0.0
H3460 H 0.63541 0.7155 0.84727 0.0
H3461 H 0.62848 0.79229 0.84336 0.0
H3462 H 0.65659 0.74909 0.87317 0.0
H3463 H 0.6049 0.75924 0.81877 0.0
H3464 H 0.63885 0.77638 0.85424 0.0
H3465 H 0.62428 0.73112 0.83637 0.0
C3466 C 0.63773 0.72614 0.85065 0.0
C3467 C 0.64695 0.73098 0.86115 0.0
C3468 C 0.63138 0.77257 0.84649 0.0
C3469 C 0.63427 0.74888 0.84876 0.0
C3470 C 0.62536 0.78168 0.84033 0.0
C3471 C 0.61572 0.77713 0.83016 0.0
C3472 C 0.62782 0.75875 0.84246 0.0
C3473 C 0.61237 0.76322 0.82647 0.0
C3474 C 0.63136 0.73504 0.84444 0.0
C3475 C 0.64956 0.74487 0.86513 0.0
N3476 N 0.61841 0.75453 0.83261 0.0
N3477 N 0.64327 0.7533 0.85893 0.0
H3478 H 0.32568 0.61658 0.84687 0.0
H3479 H 0.30486 0.58883 0.76984 0.0
H3480 H 0.3502 0.62704 0.81132 0.0
H3481 H 0.2811 0.57687 0.80529 0.0
H3482 H 0.32121 0.60345 0.78491 0.0
H3483 H 0.30876 0.60266 0.83183 0.0
C3484 C 0.3275 0.61598 0.83591 0.0
C3485 C 0.3394 0.62296 0.83036 0.0
C3486 C 0.31241 0.59765 0.7894 0.0
C3487 C 0.32008 0.60704 0.81308 0.0
C3488 C 0.30311 0.58924 0.78079 0.0
C3489 C 0.2916 0.58157 0.7863 0.0
C3490 C 0.31023 0.59842 0.80364 0.0
C3491 C 0.28973 0.5827 0.80058 0.0
C3492 C 0.31783 0.60802 0.82733 0.0
C3493 C 0.34119 0.62182 0.81607 0.0
N3494 N 0.29896 0.59094 0.80876 0.0
N3495 N 0.33166 0.61399 0.80794 0.0
H3496 H 0.39357 0.33354 0.8412 0.0
H3497 H 0.43979 0.34513 0.77373 0.0
H3498 H 0.39098 0.36565 0.81718 0.0
H3499 H 0.43512 0.30897 0.79332 0.0
H3500 H 0.4237 0.35402 0.79066 0.0
H3501 H 0.41072 0.32579 0.82499 0.0
C3502 C 0.39664 0.33902 0.83254 0.0
C3503 C 0.39075 0.35026 0.83055 0.0
C3504 C 0.42625 0.34416 0.79125 0.0
C3505 C 0.41049 0.34137 0.81187 0.0
C3506 C 0.4354 0.33903 0.78155 0.0
C3507 C 0.43885 0.32623 0.78202 0.0
C3508 C 0.42055 0.33649 0.80158 0.0
C3509 C 0.43299 0.31895 0.79261 0.0
C3510 C 0.40643 0.33455 0.82325 0.0
C3511 C 0.39519 0.35692 0.81911 0.0
N3512 N 0.42414 0.32417 0.80192 0.0
N3513 N 0.40479 0.35236 0.81019 0.0
H3514 H 0.35995 0.41146 0.20694 0.0
H3515 H 0.28987 0.40801 0.25098 0.0
H3516 H 0.33463 0.37442 0.21479 0.0
H3517 H 0.31623 0.44494 0.24474 0.0
H3518 H 0.30509 0.39561 0.23607 0.0
H3519 H 0.34309 0.4239 0.21915 0.0
C3520 C 0.35081 0.40592 0.21116 0.0
C3521 C 0.34876 0.39185 0.2099 0.0
C3522 C 0.30751 0.40643 0.2379 0.0
C3523 C 0.32939 0.40609 0.22395 0.0
C3524 C 0.29877 0.41354 0.24634 0.0
C3525 C 0.30179 0.42755 0.24918 0.0
C3526 C 0.31939 0.41337 0.23222 0.0
C3527 C 0.31359 0.43413 0.24302 0.0
C3528 C 0.34118 0.41305 0.21815 0.0
C3529 C 0.33668 0.38525 0.21555 0.0
N3530 N 0.32197 0.42699 0.23488 0.0
N3531 N 0.3275 0.39242 0.22238 0.0
H3532 H 0.7113 0.35722 0.24499 0.0
H3533 H 0.67311 0.31107 0.29954 0.0
H3534 H 0.7213 0.31861 0.25081 0.0
H3535 H 0.66098 0.34833 0.2921 0.0
H3536 H 0.69117 0.31401 0.28206 0.0
H3537 H 0.69319 0.35451 0.26256 0.0
C3538 C 0.70969 0.34817 0.24994 0.0
C3539 C 0.71783 0.33812 0.2464 0.0
C3540 C 0.68456 0.32155 0.28423 0.0
C3541 C 0.69714 0.33497 0.26655 0.0
C3542 C 0.67419 0.31984 0.29417 0.0
C3543 C 0.66544 0.32943 0.29725 0.0
C3544 C 0.68627 0.33295 0.27728 0.0
C3545 C 0.66754 0.34074 0.29015 0.0
C3546 C 0.69934 0.34663 0.25998 0.0
C3547 C 0.71527 0.32661 0.25318 0.0
N3548 N 0.67773 0.34218 0.28048 0.0
N3549 N 0.70517 0.32536 0.26293 0.0
H3550 H 0.38751 0.69833 0.17736 0.0
H3551 H 0.44261 0.72907 0.23416 0.0
H3552 H 0.39945 0.676 0.20798 0.0
H3553 H 0.42781 0.7525 0.2062 0.0
H3554 H 0.42806 0.70914 0.2236 0.0
H3555 H 0.40354 0.71784 0.18658 0.0
C3556 C 0.39354 0.69749 0.18597 0.0
C3557 C 0.39207 0.6855 0.19194 0.0
C3558 C 0.42801 0.71863 0.21974 0.0
C3559 C 0.41044 0.70784 0.20257 0.0
C3560 C 0.43627 0.73004 0.22582 0.0
C3561 C 0.43639 0.74253 0.22113 0.0
C3562 C 0.41978 0.71966 0.20887 0.0
C3563 C 0.42816 0.74309 0.21009 0.0
C3564 C 0.40268 0.70865 0.19125 0.0
C3565 C 0.40019 0.68503 0.20308 0.0
N3566 N 0.42016 0.73184 0.20437 0.0
N3567 N 0.40898 0.69604 0.20805 0.0
loop_
_geom_bond_atom_site_label_1
_geom_bond_atom_site_label_2
_geom_bond_distance
_geom_bond_site_symmetry_2
_ccdc_geom_bond_type
O0 Cd1 2.300 . S
O0 C7 1.275 . S
Cd1 O0 2.300 . S
Cd1 O9 2.381 . S
Cd1 O10 2.378 . S
O2 Cd3 2.385 . S
O2 C7 1.255 . S
Cd3 O2 2.385 . S
Cd3 O4 2.317 . S
O4 Cd3 2.317 . S
O4 C5 1.232 . S
C5 O4 1.232 . S
C5 O6 1.218 . S
O6 C5 1.218 . S
C7 O0 1.275 . S
C7 O2 1.255 . S
C8 O9 1.258 . S
C8 O10 1.256 . S
O9 Cd1 2.381 . S
O9 C8 1.258 . S
O10 Cd1 2.378 . S
O10 C8 1.256 . S
O11 Cd12 2.300 . S
O11 C18 1.275 . S
Cd12 O11 2.300 . S
Cd12 O20 2.381 . S
Cd12 O21 2.378 . S
O13 Cd14 2.385 . S
O13 C18 1.255 . S
Cd14 O13 2.385 . S
Cd14 O15 2.317 . S
O15 Cd14 2.317 . S
O15 C16 1.232 . S
C16 O15 1.232 . S
C16 O17 1.218 . S
O17 C16 1.218 . S
C18 O11 1.275 . S
C18 O13 1.255 . S
C19 O20 1.258 . S
C19 O21 1.256 . S
O20 Cd12 2.381 . S
O20 C19 1.258 . S
O21 Cd12 2.378 . S
O21 C19 1.256 . S
O22 Cd23 2.300 . S
O22 C29 1.275 . S
Cd23 O22 2.300 . S
Cd23 O31 2.381 . S
Cd23 O32 2.378 . S
O24 Cd25 2.385 . S
O24 C29 1.255 . S
Cd25 O24 2.385 . S
Cd25 O26 2.317 . S
O26 Cd25 2.317 . S
O26 C27 1.232 . S
C27 O26 1.232 . S
C27 O28 1.218 . S
O28 C27 1.218 . S
C29 O22 1.275 . S
C29 O24 1.255 . S
C30 O31 1.258 . S
C30 O32 1.256 . S
O31 Cd23 2.381 . S
O31 C30 1.258 . S
O32 Cd23 2.378 . S
O32 C30 1.256 . S
O33 Cd34 2.300 . S
O33 C40 1.275 . S
Cd34 O33 2.300 . S
Cd34 O42 2.381 . S
Cd34 O43 2.378 . S
O35 Cd36 2.385 . S
O35 C40 1.255 . S
Cd36 O35 2.385 . S
Cd36 O37 2.317 . S
O37 Cd36 2.317 . S
O37 C38 1.232 . S
C38 O37 1.232 . S
C38 O39 1.218 . S
O39 C38 1.218 . S
C40 O33 1.275 . S
C40 O35 1.255 . S
C41 O42 1.258 . S
C41 O43 1.256 . S
O42 Cd34 2.381 . S
O42 C41 1.258 . S
O43 Cd34 2.378 . S
O43 C41 1.256 . S
O44 Cd45 2.300 . S
O44 C51 1.275 . S
Cd45 O44 2.300 . S
Cd45 O53 2.381 . S
Cd45 O54 2.378 . S
O46 Cd47 2.385 . S
O46 C51 1.255 . S
Cd47 O46 2.385 . S
Cd47 O48 2.317 . S
O48 Cd47 2.317 . S
O48 C49 1.232 . S
C49 O48 1.232 . S
C49 O50 1.218 . S
O50 C49 1.218 . S
C51 O44 1.275 . S
C51 O46 1.255 . S
C52 O53 1.258 . S
C52 O54 1.256 . S
O53 Cd45 2.381 . S
O53 C52 1.258 . S
O54 Cd45 2.378 . S
O54 C52 1.256 . S
O55 Cd56 2.300 . S
O55 C62 1.275 . S
Cd56 O55 2.300 . S
Cd56 O64 2.381 . S
Cd56 O65 2.378 . S
O57 Cd58 2.385 . S
O57 C62 1.255 . S
Cd58 O57 2.385 . S
Cd58 O59 2.317 . S
O59 Cd58 2.317 . S
O59 C60 1.232 . S
C60 O59 1.232 . S
C60 O61 1.218 . S
O61 C60 1.218 . S
C62 O55 1.275 . S
C62 O57 1.255 . S
C63 O64 1.258 . S
C63 O65 1.256 . S
O64 Cd56 2.381 . S
O64 C63 1.258 . S
O65 Cd56 2.378 . S
O65 C63 1.256 . S
O66 Cd67 2.300 . S
O66 C73 1.275 . S
Cd67 O66 2.300 . S
Cd67 O75 2.381 . S
Cd67 O76 2.378 . S
O68 Cd69 2.385 . S
O68 C73 1.255 . S
Cd69 O68 2.385 . S
Cd69 O70 2.317 . S
O70 Cd69 2.317 . S
O70 C71 1.232 . S
C71 O70 1.232 . S
C71 O72 1.218 . S
O72 C71 1.218 . S
C73 O66 1.275 . S
C73 O68 1.255 . S
C74 O75 1.258 . S
C74 O76 1.256 . S
O75 Cd67 2.381 . S
O75 C74 1.258 . S
O76 Cd67 2.378 . S
O76 C74 1.256 . S
O77 Cd78 2.300 . S
O77 C84 1.275 . S
Cd78 O77 2.300 . S
Cd78 O86 2.381 . S
Cd78 O87 2.378 . S
O79 Cd80 2.385 . S
O79 C84 1.255 . S
Cd80 O79 2.385 . S
Cd80 O81 2.317 . S
O81 Cd80 2.317 . S
O81 C82 1.232 . S
C82 O81 1.232 . S
C82 O83 1.218 . S
O83 C82 1.218 . S
C84 O77 1.275 . S
C84 O79 1.255 . S
C85 O86 1.258 . S
C85 O87 1.256 . S
O86 Cd78 2.381 . S
O86 C85 1.258 . S
O87 Cd78 2.378 . S
O87 C85 1.256 . S
O88 Cd89 2.300 . S
O88 C95 1.275 . S
Cd89 O88 2.300 . S
Cd89 O97 2.381 . S
Cd89 O98 2.378 . S
O90 Cd91 2.385 . S
O90 C95 1.255 . S
Cd91 O90 2.385 . S
Cd91 O92 2.317 . S
O92 Cd91 2.317 . S
O92 C93 1.232 . S
C93 O92 1.232 . S
C93 O94 1.218 . S
O94 C93 1.218 . S
C95 O88 1.275 . S
C95 O90 1.255 . S
C96 O97 1.258 . S
C96 O98 1.256 . S
O97 Cd89 2.381 . S
O97 C96 1.258 . S
O98 Cd89 2.378 . S
O98 C96 1.256 . S
O99 Cd100 2.300 . S
O99 C106 1.275 . S
Cd100 O99 2.300 . S
Cd100 O108 2.381 . S
Cd100 O109 2.378 . S
O101 Cd102 2.385 . S
O101 C106 1.255 . S
Cd102 O101 2.385 . S
Cd102 O103 2.317 . S
O103 Cd102 2.317 . S
O103 C104 1.232 . S
C104 O103 1.232 . S
C104 O105 1.218 . S
O105 C104 1.218 . S
C106 O99 1.275 . S
C106 O101 1.255 . S
C107 O108 1.258 . S
C107 O109 1.256 . S
O108 Cd100 2.381 . S
O108 C107 1.258 . S
O109 Cd100 2.378 . S
O109 C107 1.256 . S
O110 Cd111 2.300 . S
O110 C117 1.275 . S
Cd111 O110 2.300 . S
Cd111 O119 2.381 . S
Cd111 O120 2.378 . S
O112 Cd113 2.385 . S
O112 C117 1.255 . S
Cd113 O112 2.385 . S
Cd113 O114 2.317 . S
O114 Cd113 2.317 . S
O114 C115 1.232 . S
C115 O114 1.232 . S
C115 O116 1.218 . S
O116 C115 1.218 . S
C117 O110 1.275 . S
C117 O112 1.255 . S
C118 O119 1.258 . S
C118 O120 1.256 . S
O119 Cd111 2.381 . S
O119 C118 1.258 . S
O120 Cd111 2.378 . S
O120 C118 1.256 . S
O121 Cd122 2.300 . S
O121 C128 1.275 . S
Cd122 O121 2.300 . S
Cd122 O130 2.381 . S
Cd122 O131 2.378 . S
O123 Cd124 2.385 . S
O123 C128 1.255 . S
Cd124 O123 2.385 . S
Cd124 O125 2.317 . S
O125 Cd124 2.317 . S
O125 C126 1.232 . S
C126 O125 1.232 . S
C126 O127 1.218 . S
O127 C126 1.218 . S
C128 O121 1.275 . S
C128 O123 1.255 . S
C129 O130 1.258 . S
C129 O131 1.256 . S
O130 Cd122 2.381 . S
O130 C129 1.258 . S
O131 Cd122 2.378 . S
O131 C129 1.256 . S
O132 Cd133 2.300 . S
O132 C139 1.275 . S
Cd133 O132 2.300 . S
Cd133 O141 2.381 . S
Cd133 O142 2.378 . S
O134 Cd135 2.385 . S
O134 C139 1.255 . S
Cd135 O134 2.385 . S
Cd135 O136 2.317 . S
O136 Cd135 2.317 . S
O136 C137 1.232 . S
C137 O136 1.232 . S
C137 O138 1.218 . S
O138 C137 1.218 . S
C139 O132 1.275 . S
C139 O134 1.255 . S
C140 O141 1.258 . S
C140 O142 1.256 . S
O141 Cd133 2.381 . S
O141 C140 1.258 . S
O142 Cd133 2.378 . S
O142 C140 1.256 . S
O143 Cd144 2.300 . S
O143 C150 1.275 . S
Cd144 O143 2.300 . S
Cd144 O152 2.381 . S
Cd144 O153 2.378 . S
O145 Cd146 2.385 . S
O145 C150 1.255 . S
Cd146 O145 2.385 . S
Cd146 O147 2.317 . S
O147 Cd146 2.317 . S
O147 C148 1.232 . S
C148 O147 1.232 . S
C148 O149 1.218 . S
O149 C148 1.218 . S
C150 O143 1.275 . S
C150 O145 1.255 . S
C151 O152 1.258 . S
C151 O153 1.256 . S
O152 Cd144 2.381 . S
O152 C151 1.258 . S
O153 Cd144 2.378 . S
O153 C151 1.256 . S
O154 Cd155 2.300 . S
O154 C161 1.275 . S
Cd155 O154 2.300 . S
Cd155 O163 2.381 . S
Cd155 O164 2.378 . S
O156 Cd157 2.385 . S
O156 C161 1.255 . S
Cd157 O156 2.385 . S
Cd157 O158 2.317 . S
O158 Cd157 2.317 . S
O158 C159 1.232 . S
C159 O158 1.232 . S
C159 O160 1.218 . S
O160 C159 1.218 . S
C161 O154 1.275 . S
C161 O156 1.255 . S
C162 O163 1.258 . S
C162 O164 1.256 . S
O163 Cd155 2.381 . S
O163 C162 1.258 . S
O164 Cd155 2.378 . S
O164 C162 1.256 . S
O165 Cd166 2.300 . S
O165 C172 1.275 . S
Cd166 O165 2.300 . S
Cd166 O174 2.381 . S
Cd166 O175 2.378 . S
O167 Cd168 2.385 . S
O167 C172 1.255 . S
Cd168 O167 2.385 . S
Cd168 O169 2.317 . S
O169 Cd168 2.317 . S
O169 C170 1.232 . S
C170 O169 1.232 . S
C170 O171 1.218 . S
O171 C170 1.218 . S
C172 O165 1.275 . S
C172 O167 1.255 . S
C173 O174 1.258 . S
C173 O175 1.256 . S
O174 Cd166 2.381 . S
O174 C173 1.258 . S
O175 Cd166 2.378 . S
O175 C173 1.256 . S
O176 Cd177 2.300 . S
O176 C183 1.275 . S
Cd177 O176 2.300 . S
Cd177 O185 2.381 . S
Cd177 O186 2.378 . S
O178 Cd179 2.385 . S
O178 C183 1.255 . S
Cd179 O178 2.385 . S
Cd179 O180 2.317 . S
O180 Cd179 2.317 . S
O180 C181 1.232 . S
C181 O180 1.232 . S
C181 O182 1.218 . S
O182 C181 1.218 . S
C183 O176 1.275 . S
C183 O178 1.255 . S
C184 O185 1.258 . S
C184 O186 1.256 . S
O185 Cd177 2.381 . S
O185 C184 1.258 . S
O186 Cd177 2.378 . S
O186 C184 1.256 . S
O187 Cd188 2.300 . S
O187 C194 1.275 . S
Cd188 O187 2.300 . S
Cd188 O196 2.381 . S
Cd188 O197 2.378 . S
O189 Cd190 2.385 . S
O189 C194 1.255 . S
Cd190 O189 2.385 . S
Cd190 O191 2.317 . S
O191 Cd190 2.317 . S
O191 C192 1.232 . S
C192 O191 1.232 . S
C192 O193 1.218 . S
O193 C192 1.218 . S
C194 O187 1.275 . S
C194 O189 1.255 . S
C195 O196 1.258 . S
C195 O197 1.256 . S
O196 Cd188 2.381 . S
O196 C195 1.258 . S
O197 Cd188 2.378 . S
O197 C195 1.256 . S
O198 Cd199 2.300 . S
O198 C205 1.275 . S
Cd199 O198 2.300 . S
Cd199 O207 2.381 . S
Cd199 O208 2.378 . S
O200 Cd201 2.385 . S
O200 C205 1.255 . S
Cd201 O200 2.385 . S
Cd201 O202 2.317 . S
O202 Cd201 2.317 . S
O202 C203 1.232 . S
C203 O202 1.232 . S
C203 O204 1.218 . S
O204 C203 1.218 . S
C205 O198 1.275 . S
C205 O200 1.255 . S
C206 O207 1.258 . S
C206 O208 1.256 . S
O207 Cd199 2.381 . S
O207 C206 1.258 . S
O208 Cd199 2.378 . S
O208 C206 1.256 . S
O209 Cd210 2.300 . S
O209 C216 1.275 . S
Cd210 O209 2.300 . S
Cd210 O218 2.381 . S
Cd210 O219 2.378 . S
O211 Cd212 2.385 . S
O211 C216 1.255 . S
Cd212 O211 2.385 . S
Cd212 O213 2.317 . S
O213 Cd212 2.317 . S
O213 C214 1.232 . S
C214 O213 1.232 . S
C214 O215 1.218 . S
O215 C214 1.218 . S
C216 O209 1.275 . S
C216 O211 1.255 . S
C217 O218 1.258 . S
C217 O219 1.256 . S
O218 Cd210 2.381 . S
O218 C217 1.258 . S
O219 Cd210 2.378 . S
O219 C217 1.256 . S
O220 Cd221 2.300 . S
O220 C227 1.275 . S
Cd221 O220 2.300 . S
Cd221 O229 2.381 . S
Cd221 O230 2.378 . S
O222 Cd223 2.385 . S
O222 C227 1.255 . S
Cd223 O222 2.385 . S
Cd223 O224 2.317 . S
O224 Cd223 2.317 . S
O224 C225 1.232 . S
C225 O224 1.232 . S
C225 O226 1.218 . S
O226 C225 1.218 . S
C227 O220 1.275 . S
C227 O222 1.255 . S
C228 O229 1.258 . S
C228 O230 1.256 . S
O229 Cd221 2.381 . S
O229 C228 1.258 . S
O230 Cd221 2.378 . S
O230 C228 1.256 . S
O231 Cd232 2.300 . S
O231 C238 1.275 . S
Cd232 O231 2.300 . S
Cd232 O240 2.381 . S
Cd232 O241 2.378 . S
O233 Cd234 2.385 . S
O233 C238 1.255 . S
Cd234 O233 2.385 . S
Cd234 O235 2.317 . S
O235 Cd234 2.317 . S
O235 C236 1.232 . S
C236 O235 1.232 . S
C236 O237 1.218 . S
O237 C236 1.218 . S
C238 O231 1.275 . S
C238 O233 1.255 . S
C239 O240 1.258 . S
C239 O241 1.256 . S
O240 Cd232 2.381 . S
O240 C239 1.258 . S
O241 Cd232 2.378 . S
O241 C239 1.256 . S
O242 Cd243 2.300 . S
O242 C249 1.275 . S
Cd243 O242 2.300 . S
Cd243 O251 2.381 . S
Cd243 O252 2.378 . S
O244 Cd245 2.385 . S
O244 C249 1.255 . S
Cd245 O244 2.385 . S
Cd245 O246 2.317 . S
O246 Cd245 2.317 . S
O246 C247 1.232 . S
C247 O246 1.232 . S
C247 O248 1.218 . S
O248 C247 1.218 . S
C249 O242 1.275 . S
C249 O244 1.255 . S
C250 O251 1.258 . S
C250 O252 1.256 . S
O251 Cd243 2.381 . S
O251 C250 1.258 . S
O252 Cd243 2.378 . S
O252 C250 1.256 . S
O253 Cd254 2.300 . S
O253 C260 1.275 . S
Cd254 O253 2.300 . S
Cd254 O262 2.381 . S
Cd254 O263 2.378 . S
O255 Cd256 2.385 . S
O255 C260 1.255 . S
Cd256 O255 2.385 . S
Cd256 O257 2.317 . S
O257 Cd256 2.317 . S
O257 C258 1.232 . S
C258 O257 1.232 . S
C258 O259 1.218 . S
O259 C258 1.218 . S
C260 O253 1.275 . S
C260 O255 1.255 . S
C261 O262 1.258 . S
C261 O263 1.256 . S
O262 Cd254 2.381 . S
O262 C261 1.258 . S
O263 Cd254 2.378 . S
O263 C261 1.256 . S
O264 Cd265 2.300 . S
O264 C271 1.275 . S
Cd265 O264 2.300 . S
Cd265 O273 2.381 . S
Cd265 O274 2.378 . S
O266 Cd267 2.385 . S
O266 C271 1.255 . S
Cd267 O266 2.385 . S
Cd267 O268 2.317 . S
O268 Cd267 2.317 . S
O268 C269 1.232 . S
C269 O268 1.232 . S
C269 O270 1.218 . S
O270 C269 1.218 . S
C271 O264 1.275 . S
C271 O266 1.255 . S
C272 O273 1.258 . S
C272 O274 1.256 . S
O273 Cd265 2.381 . S
O273 C272 1.258 . S
O274 Cd265 2.378 . S
O274 C272 1.256 . S
O275 Cd276 2.300 . S
O275 C282 1.275 . S
Cd276 O275 2.300 . S
Cd276 O284 2.381 . S
Cd276 O285 2.378 . S
O277 Cd278 2.385 . S
O277 C282 1.255 . S
Cd278 O277 2.385 . S
Cd278 O279 2.317 . S
O279 Cd278 2.317 . S
O279 C280 1.232 . S
C280 O279 1.232 . S
C280 O281 1.218 . S
O281 C280 1.218 . S
C282 O275 1.275 . S
C282 O277 1.255 . S
C283 O284 1.258 . S
C283 O285 1.256 . S
O284 Cd276 2.381 . S
O284 C283 1.258 . S
O285 Cd276 2.378 . S
O285 C283 1.256 . S
O286 Cd287 2.300 . S
O286 C293 1.275 . S
Cd287 O286 2.300 . S
Cd287 O295 2.381 . S
Cd287 O296 2.378 . S
O288 Cd289 2.385 . S
O288 C293 1.255 . S
Cd289 O288 2.385 . S
Cd289 O290 2.317 . S
O290 Cd289 2.317 . S
O290 C291 1.232 . S
C291 O290 1.232 . S
C291 O292 1.218 . S
O292 C291 1.218 . S
C293 O286 1.275 . S
C293 O288 1.255 . S
C294 O295 1.258 . S
C294 O296 1.256 . S
O295 Cd287 2.381 . S
O295 C294 1.258 . S
O296 Cd287 2.378 . S
O296 C294 1.256 . S
O297 Cd298 2.300 . S
O297 C304 1.275 . S
Cd298 O297 2.300 . S
Cd298 O306 2.381 . S
Cd298 O307 2.378 . S
O299 Cd300 2.385 . S
O299 C304 1.255 . S
Cd300 O299 2.385 . S
Cd300 O301 2.317 . S
O301 Cd300 2.317 . S
O301 C302 1.232 . S
C302 O301 1.232 . S
C302 O303 1.218 . S
O303 C302 1.218 . S
C304 O297 1.275 . S
C304 O299 1.255 . S
C305 O306 1.258 . S
C305 O307 1.256 . S
O306 Cd298 2.381 . S
O306 C305 1.258 . S
O307 Cd298 2.378 . S
O307 C305 1.256 . S
O308 Cd309 2.300 . S
O308 C315 1.275 . S
Cd309 O308 2.300 . S
Cd309 O317 2.381 . S
Cd309 O318 2.378 . S
O310 Cd311 2.385 . S
O310 C315 1.255 . S
Cd311 O310 2.385 . S
Cd311 O312 2.317 . S
O312 Cd311 2.317 . S
O312 C313 1.232 . S
C313 O312 1.232 . S
C313 O314 1.218 . S
O314 C313 1.218 . S
C315 O308 1.275 . S
C315 O310 1.255 . S
C316 O317 1.258 . S
C316 O318 1.256 . S
O317 Cd309 2.381 . S
O317 C316 1.258 . S
O318 Cd309 2.378 . S
O318 C316 1.256 . S
O319 Cd320 2.300 . S
O319 C326 1.275 . S
Cd320 O319 2.300 . S
Cd320 O328 2.381 . S
Cd320 O329 2.378 . S
O321 Cd322 2.385 . S
O321 C326 1.255 . S
Cd322 O321 2.385 . S
Cd322 O323 2.317 . S
O323 Cd322 2.317 . S
O323 C324 1.232 . S
C324 O323 1.232 . S
C324 O325 1.218 . S
O325 C324 1.218 . S
C326 O319 1.275 . S
C326 O321 1.255 . S
C327 O328 1.258 . S
C327 O329 1.256 . S
O328 Cd320 2.381 . S
O328 C327 1.258 . S
O329 Cd320 2.378 . S
O329 C327 1.256 . S
O330 Cd331 2.300 . S
O330 C337 1.275 . S
Cd331 O330 2.300 . S
Cd331 O339 2.381 . S
Cd331 O340 2.378 . S
O332 Cd333 2.385 . S
O332 C337 1.255 . S
Cd333 O332 2.385 . S
Cd333 O334 2.317 . S
O334 Cd333 2.317 . S
O334 C335 1.232 . S
C335 O334 1.232 . S
C335 O336 1.218 . S
O336 C335 1.218 . S
C337 O330 1.275 . S
C337 O332 1.255 . S
C338 O339 1.258 . S
C338 O340 1.256 . S
O339 Cd331 2.381 . S
O339 C338 1.258 . S
O340 Cd331 2.378 . S
O340 C338 1.256 . S
O341 Cd342 2.300 . S
O341 C348 1.275 . S
Cd342 O341 2.300 . S
Cd342 O350 2.381 . S
Cd342 O351 2.378 . S
O343 Cd344 2.385 . S
O343 C348 1.255 . S
Cd344 O343 2.385 . S
Cd344 O345 2.317 . S
O345 Cd344 2.317 . S
O345 C346 1.232 . S
C346 O345 1.232 . S
C346 O347 1.218 . S
O347 C346 1.218 . S
C348 O341 1.275 . S
C348 O343 1.255 . S
C349 O350 1.258 . S
C349 O351 1.256 . S
O350 Cd342 2.381 . S
O350 C349 1.258 . S
O351 Cd342 2.378 . S
O351 C349 1.256 . S
H352 C379 0.929 . S
N353 C378 1.433 . S
N353 C384 1.435 . S
N353 C390 1.423 1_556 S
H354 C380 0.930 . S
H355 C383 0.931 1_554 S
H356 C382 0.929 . S
H357 C385 0.930 . S
H358 C386 0.932 . S
H359 C389 0.929 . S
H360 C388 0.931 . S
H361 C391 0.929 . S
H362 C395 0.932 . S
H363 C392 0.931 . S
H364 C394 0.929 . S
H365 C397 0.929 . S
H366 C398 0.930 . S
H367 C400 0.929 . S
H368 C401 0.931 . S
H369 C403 0.930 . S
H370 C404 0.932 . S
H371 C406 0.931 . S
H372 C407 0.929 . S
H373 C409 0.929 . S
H374 C410 0.931 . S
H375 C412 0.929 . S
N376 C396 1.433 . S
N376 C402 1.435 . S
N376 C408 1.423 . S
H377 C413 0.932 . S
C378 N353 1.433 . S
C378 C379 1.363 . S
C378 C383 1.370 . S
C379 H352 0.929 . S
C379 C378 1.363 . S
C379 C380 1.385 . S
C380 H354 0.930 . S
C380 C379 1.385 . S
C380 C381 1.357 . S
C381 C380 1.357 . S
C381 C382 1.406 . S
C382 H356 0.929 . S
C382 C381 1.406 . S
C382 C383 1.391 . S
C383 H355 0.931 1_556 S
C383 C378 1.370 . S
C383 C382 1.391 . S
C384 N353 1.435 . S
C384 C385 1.358 . S
C384 C389 1.371 . S
C385 H357 0.930 . S
C385 C384 1.358 . S
C385 C386 1.405 . S
C386 H358 0.932 . S
C386 C385 1.405 . S
C386 C387 1.383 . S
C387 C386 1.383 . S
C387 C388 1.393 . S
C388 H360 0.931 . S
C388 C387 1.393 . S
C388 C389 1.382 . S
C389 H359 0.929 . S
C389 C384 1.371 . S
C389 C388 1.382 . S
C390 N353 1.423 1_554 S
C390 C391 1.362 . S
C390 C395 1.388 . S
C391 H361 0.929 . S
C391 C390 1.362 . S
C391 C392 1.376 . S
C392 H363 0.931 . S
C392 C391 1.376 . S
C392 C393 1.396 . S
C393 C392 1.396 . S
C393 C394 1.348 . S
C393 C411 1.472 . S
C394 H364 0.929 . S
C394 C393 1.348 . S
C394 C395 1.443 . S
C395 H362 0.932 . S
C395 C390 1.388 . S
C395 C394 1.443 . S
C396 N376 1.433 . S
C396 C397 1.363 . S
C396 C401 1.370 . S
C397 H365 0.929 . S
C397 C396 1.363 . S
C397 C398 1.385 . S
C398 H366 0.930 . S
C398 C397 1.385 . S
C398 C399 1.357 . S
C399 C398 1.357 . S
C399 C400 1.406 . S
C400 H367 0.929 . S
C400 C399 1.406 . S
C400 C401 1.391 . S
C401 H368 0.931 . S
C401 C396 1.370 . S
C401 C400 1.391 . S
C402 N376 1.435 . S
C402 C403 1.358 . S
C402 C407 1.371 . S
C403 H369 0.930 . S
C403 C402 1.358 . S
C403 C404 1.405 . S
C404 H370 0.932 . S
C404 C403 1.405 . S
C404 C405 1.383 . S
C405 C404 1.383 . S
C405 C406 1.393 . S
C406 H371 0.931 . S
C406 C405 1.393 . S
C406 C407 1.382 . S
C407 H372 0.929 . S
C407 C402 1.371 . S
C407 C406 1.382 . S
C408 N376 1.423 . S
C408 C409 1.362 . S
C408 C413 1.388 . S
C409 H373 0.929 . S
C409 C408 1.362 . S
C409 C410 1.376 . S
C410 H374 0.931 . S
C410 C409 1.376 . S
C410 C411 1.396 . S
C411 C393 1.472 . S
C411 C410 1.396 . S
C411 C412 1.348 . S
C412 H375 0.929 . S
C412 C411 1.348 . S
C412 C413 1.443 . S
C413 H377 0.932 . S
C413 C408 1.388 . S
C413 C412 1.443 . S
H414 C441 0.929 . S
N415 C440 1.433 . S
N415 C446 1.435 . S
N415 C452 1.423 . S
H416 C442 0.930 . S
H417 C445 0.931 . S
H418 C444 0.929 . S
H419 C447 0.930 . S
H420 C448 0.932 . S
H421 C451 0.929 . S
H422 C450 0.931 . S
H423 C453 0.929 . S
H424 C457 0.932 . S
H425 C454 0.931 . S
H426 C456 0.929 . S
H427 C459 0.929 . S
H428 C460 0.930 . S
H429 C462 0.929 . S
H430 C463 0.931 . S
H431 C465 0.930 . S
H432 C466 0.932 . S
H433 C468 0.931 . S
H434 C469 0.929 . S
H435 C471 0.929 . S
H436 C472 0.931 . S
H437 C474 0.929 . S
N438 C458 1.433 . S
N438 C464 1.435 . S
N438 C470 1.423 . S
H439 C475 0.932 . S
C440 N415 1.433 . S
C440 C441 1.363 . S
C440 C445 1.370 . S
C441 H414 0.929 . S
C441 C440 1.363 . S
C441 C442 1.385 . S
C442 H416 0.930 . S
C442 C441 1.385 . S
C442 C443 1.357 . S
C443 C442 1.357 . S
C443 C444 1.406 . S
C444 H418 0.929 . S
C444 C443 1.406 . S
C444 C445 1.391 . S
C445 H417 0.931 . S
C445 C440 1.370 . S
C445 C444 1.391 . S
C446 N415 1.435 . S
C446 C447 1.358 . S
C446 C451 1.371 . S
C447 H419 0.930 . S
C447 C446 1.358 . S
C447 C448 1.405 . S
C448 H420 0.932 . S
C448 C447 1.405 . S
C448 C449 1.383 . S
C449 C448 1.383 . S
C449 C450 1.393 . S
C450 H422 0.931 . S
C450 C449 1.393 . S
C450 C451 1.382 . S
C451 H421 0.929 . S
C451 C446 1.371 . S
C451 C450 1.382 . S
C452 N415 1.423 . S
C452 C453 1.362 . S
C452 C457 1.388 . S
C453 H423 0.929 . S
C453 C452 1.362 . S
C453 C454 1.376 . S
C454 H425 0.931 . S
C454 C453 1.376 . S
C454 C455 1.394 . S
C455 C454 1.394 . S
C455 C456 1.346 . S
C455 C473 1.475 1_556 S
C456 H426 0.929 . S
C456 C455 1.346 . S
C456 C457 1.443 . S
C457 H424 0.932 . S
C457 C452 1.388 . S
C457 C456 1.443 . S
C458 N438 1.433 . S
C458 C459 1.363 . S
C458 C463 1.370 . S
C459 H427 0.929 . S
C459 C458 1.363 . S
C459 C460 1.385 . S
C460 H428 0.930 . S
C460 C459 1.385 . S
C460 C461 1.357 . S
C461 C460 1.357 . S
C461 C462 1.406 . S
C462 H429 0.929 . S
C462 C461 1.406 . S
C462 C463 1.391 . S
C463 H430 0.931 . S
C463 C458 1.370 . S
C463 C462 1.391 . S
C464 N438 1.435 . S
C464 C465 1.358 . S
C464 C469 1.371 . S
C465 H431 0.930 . S
C465 C464 1.358 . S
C465 C466 1.405 . S
C466 H432 0.932 . S
C466 C465 1.405 . S
C466 C467 1.383 . S
C467 C466 1.383 . S
C467 C468 1.393 . S
C468 H433 0.931 . S
C468 C467 1.393 . S
C468 C469 1.382 . S
C469 H434 0.929 . S
C469 C464 1.371 . S
C469 C468 1.382 . S
C470 N438 1.423 . S
C470 C471 1.362 . S
C470 C475 1.388 . S
C471 H435 0.929 . S
C471 C470 1.362 . S
C471 C472 1.376 . S
C472 H436 0.931 . S
C472 C471 1.376 . S
C472 C473 1.396 . S
C473 C455 1.475 1_554 S
C473 C472 1.396 . S
C473 C474 1.348 . S
C474 H437 0.929 . S
C474 C473 1.348 . S
C474 C475 1.443 . S
C475 H439 0.932 . S
C475 C470 1.388 . S
C475 C474 1.443 . S
H476 C503 0.929 . S
N477 C502 1.433 . S
N477 C508 1.435 . S
N477 C514 1.423 1_556 S
H478 C504 0.930 . S
H479 C507 0.901 1_554 S
H480 C506 0.929 . S
H481 C509 0.930 . S
H482 C510 0.932 . S
H483 C513 0.929 . S
H484 C512 0.931 . S
H485 C515 0.929 . S
H486 C519 0.932 . S
H487 C516 0.931 . S
H488 C518 0.929 . S
H489 C521 0.929 . S
H490 C522 0.930 . S
H491 C524 0.929 . S
H492 C525 0.931 . S
H493 C527 0.930 . S
H494 C528 0.932 . S
H495 C530 0.931 . S
H496 C531 0.929 . S
H497 C533 0.929 . S
H498 C534 0.931 . S
H499 C536 0.929 . S
N500 C520 1.433 . S
N500 C526 1.435 . S
N500 C532 1.423 . S
H501 C537 0.932 . S
C502 N477 1.433 . S
C502 C503 1.363 . S
C502 C507 1.370 . S
C503 H476 0.929 . S
C503 C502 1.363 . S
C503 C504 1.385 . S
C504 H478 0.930 . S
C504 C503 1.385 . S
C504 C505 1.357 . S
C505 C504 1.357 . S
C505 C506 1.406 . S
C506 H480 0.929 . S
C506 C505 1.406 . S
C506 C507 1.391 . S
C507 H479 0.901 1_556 S
C507 C502 1.370 . S
C507 C506 1.391 . S
C508 N477 1.435 . S
C508 C509 1.358 . S
C508 C513 1.371 . S
C509 H481 0.930 . S
C509 C508 1.358 . S
C509 C510 1.405 . S
C510 H482 0.932 . S
C510 C509 1.405 . S
C510 C511 1.383 . S
C511 C510 1.383 . S
C511 C512 1.393 . S
C512 H484 0.931 . S
C512 C511 1.393 . S
C512 C513 1.382 . S
C513 H483 0.929 . S
C513 C508 1.371 . S
C513 C512 1.382 . S
C514 N477 1.423 1_554 S
C514 C515 1.362 . S
C514 C519 1.388 . S
C515 H485 0.929 . S
C515 C514 1.362 . S
C515 C516 1.376 . S
C516 H487 0.931 . S
C516 C515 1.376 . S
C516 C517 1.396 . S
C517 C516 1.396 . S
C517 C518 1.348 . S
C517 C535 1.472 . S
C518 H488 0.929 . S
C518 C517 1.348 . S
C518 C519 1.443 . S
C519 H486 0.932 . S
C519 C514 1.388 . S
C519 C518 1.443 . S
C520 N500 1.433 . S
C520 C521 1.363 . S
C520 C525 1.370 . S
C521 H489 0.929 . S
C521 C520 1.363 . S
C521 C522 1.385 . S
C522 H490 0.930 . S
C522 C521 1.385 . S
C522 C523 1.357 . S
C523 C522 1.357 . S
C523 C524 1.406 . S
C524 H491 0.929 . S
C524 C523 1.406 . S
C524 C525 1.391 . S
C525 H492 0.931 . S
C525 C520 1.370 . S
C525 C524 1.391 . S
C526 N500 1.435 . S
C526 C527 1.358 . S
C526 C531 1.371 . S
C527 H493 0.930 . S
C527 C526 1.358 . S
C527 C528 1.405 . S
C528 H494 0.932 . S
C528 C527 1.405 . S
C528 C529 1.383 . S
C529 C528 1.383 . S
C529 C530 1.393 . S
C530 H495 0.931 . S
C530 C529 1.393 . S
C530 C531 1.382 . S
C531 H496 0.929 . S
C531 C526 1.371 . S
C531 C530 1.382 . S
C532 N500 1.423 . S
C532 C533 1.362 . S
C532 C537 1.388 . S
C533 H497 0.929 . S
C533 C532 1.362 . S
C533 C534 1.376 . S
C534 H498 0.931 . S
C534 C533 1.376 . S
C534 C535 1.396 . S
C535 C517 1.472 . S
C535 C534 1.396 . S
C535 C536 1.348 . S
C536 H499 0.929 . S
C536 C535 1.348 . S
C536 C537 1.443 . S
C537 H501 0.932 . S
C537 C532 1.388 . S
C537 C536 1.443 . S
H538 C565 0.929 . S
N539 C564 1.433 . S
N539 C570 1.435 . S
N539 C576 1.423 . S
H540 C566 0.930 . S
H541 C569 0.931 . S
H542 C568 0.929 . S
H543 C571 0.930 . S
H544 C572 0.932 . S
H545 C575 0.929 . S
H546 C574 0.931 . S
H547 C577 0.929 . S
H548 C581 0.932 . S
H549 C578 0.931 . S
H550 C580 0.929 . S
H551 C583 0.929 . S
H552 C584 0.930 . S
H553 C586 0.929 . S
H554 C587 0.931 . S
H555 C589 0.930 . S
H556 C590 0.932 . S
H557 C592 0.931 . S
H558 C593 0.929 . S
H559 C595 0.929 . S
H560 C596 0.931 . S
H561 C598 0.929 . S
N562 C582 1.433 . S
N562 C588 1.435 . S
N562 C594 1.423 . S
H563 C599 0.932 . S
C564 N539 1.433 . S
C564 C565 1.363 . S
C564 C569 1.370 . S
C565 H538 0.929 . S
C565 C564 1.363 . S
C565 C566 1.385 . S
C566 H540 0.930 . S
C566 C565 1.385 . S
C566 C567 1.357 . S
C567 C566 1.357 . S
C567 C568 1.406 . S
C568 H542 0.929 . S
C568 C567 1.406 . S
C568 C569 1.391 . S
C569 H541 0.931 . S
C569 C564 1.370 . S
C569 C568 1.391 . S
C570 N539 1.435 . S
C570 C571 1.358 . S
C570 C575 1.371 . S
C571 H543 0.930 . S
C571 C570 1.358 . S
C571 C572 1.405 . S
C572 H544 0.932 . S
C572 C571 1.405 . S
C572 C573 1.383 . S
C573 C572 1.383 . S
C573 C574 1.393 . S
C574 H546 0.931 . S
C574 C573 1.393 . S
C574 C575 1.382 . S
C575 H545 0.929 . S
C575 C570 1.371 . S
C575 C574 1.382 . S
C576 N539 1.423 . S
C576 C577 1.362 . S
C576 C581 1.388 . S
C577 H547 0.929 . S
C577 C576 1.362 . S
C577 C578 1.376 . S
C578 H549 0.931 . S
C578 C577 1.376 . S
C578 C579 1.396 . S
C579 C578 1.396 . S
C579 C580 1.348 . S
C579 C597 1.472 1_556 S
C580 H550 0.929 . S
C580 C579 1.348 . S
C580 C581 1.443 . S
C581 H548 0.932 . S
C581 C576 1.388 . S
C581 C580 1.443 . S
C582 N562 1.433 . S
C582 C583 1.363 . S
C582 C587 1.370 . S
C583 H551 0.929 . S
C583 C582 1.363 . S
C583 C584 1.385 . S
C584 H552 0.930 . S
C584 C583 1.385 . S
C584 C585 1.357 . S
C585 C584 1.357 . S
C585 C586 1.406 . S
C586 H553 0.929 . S
C586 C585 1.406 . S
C586 C587 1.391 . S
C587 H554 0.931 . S
C587 C582 1.370 . S
C587 C586 1.391 . S
C588 N562 1.435 . S
C588 C589 1.358 . S
C588 C593 1.371 . S
C589 H555 0.930 . S
C589 C588 1.358 . S
C589 C590 1.405 . S
C590 H556 0.932 . S
C590 C589 1.405 . S
C590 C591 1.383 . S
C591 C590 1.383 . S
C591 C592 1.393 . S
C592 H557 0.931 . S
C592 C591 1.393 . S
C592 C593 1.382 . S
C593 H558 0.929 . S
C593 C588 1.371 . S
C593 C592 1.382 . S
C594 N562 1.423 . S
C594 C595 1.362 . S
C594 C599 1.388 . S
C595 H559 0.929 . S
C595 C594 1.362 . S
C595 C596 1.376 . S
C596 H560 0.931 . S
C596 C595 1.376 . S
C596 C597 1.396 . S
C597 C579 1.472 1_554 S
C597 C596 1.396 . S
C597 C598 1.348 . S
C598 H561 0.929 . S
C598 C597 1.348 . S
C598 C599 1.443 . S
C599 H563 0.932 . S
C599 C594 1.388 . S
C599 C598 1.443 . S
H600 C627 0.929 . S
N601 C626 1.433 . S
N601 C632 1.435 . S
N601 C638 1.423 . S
H602 C628 0.930 . S
H603 C631 0.931 . S
H604 C630 0.929 . S
H605 C633 0.930 . S
H606 C634 0.932 . S
H607 C637 0.929 . S
H608 C636 0.931 . S
H609 C639 0.929 . S
H610 C643 0.932 . S
H611 C640 0.931 . S
H612 C642 0.929 . S
H613 C645 0.929 . S
H614 C646 0.930 . S
H615 C648 0.929 . S
H616 C649 0.931 . S
H617 C651 0.930 . S
H618 C652 0.932 . S
H619 C654 0.931 . S
H620 C655 0.929 . S
H621 C657 0.929 . S
H622 C658 0.931 . S
H623 C660 0.929 . S
N624 C644 1.433 . S
N624 C650 1.435 . S
N624 C656 1.423 . S
H625 C661 0.932 . S
C626 N601 1.433 . S
C626 C627 1.363 . S
C626 C631 1.370 . S
C627 H600 0.929 . S
C627 C626 1.363 . S
C627 C628 1.385 . S
C628 H602 0.930 . S
C628 C627 1.385 . S
C628 C629 1.357 . S
C629 C628 1.357 . S
C629 C630 1.406 . S
C630 H604 0.929 . S
C630 C629 1.406 . S
C630 C631 1.391 . S
C631 H603 0.931 . S
C631 C626 1.370 . S
C631 C630 1.391 . S
C632 N601 1.435 . S
C632 C633 1.358 . S
C632 C637 1.371 . S
C633 H605 0.930 . S
C633 C632 1.358 . S
C633 C634 1.405 . S
C634 H606 0.932 . S
C634 C633 1.405 . S
C634 C635 1.383 . S
C635 C634 1.383 . S
C635 C636 1.393 . S
C636 H608 0.931 . S
C636 C635 1.393 . S
C636 C637 1.382 . S
C637 H607 0.929 . S
C637 C632 1.371 . S
C637 C636 1.382 . S
C638 N601 1.423 . S
C638 C639 1.362 . S
C638 C643 1.388 . S
C639 H609 0.929 . S
C639 C638 1.362 . S
C639 C640 1.376 . S
C640 H611 0.931 . S
C640 C639 1.376 . S
C640 C641 1.396 . S
C641 C640 1.396 . S
C641 C642 1.348 . S
C641 C659 1.472 1_655 S
C642 H612 0.929 . S
C642 C641 1.348 . S
C642 C643 1.443 . S
C643 H610 0.932 . S
C643 C638 1.388 . S
C643 C642 1.443 . S
C644 N624 1.433 . S
C644 C645 1.363 . S
C644 C649 1.370 . S
C645 H613 0.929 . S
C645 C644 1.363 . S
C645 C646 1.385 . S
C646 H614 0.930 . S
C646 C645 1.385 . S
C646 C647 1.357 . S
C647 C646 1.357 . S
C647 C648 1.406 . S
C648 H615 0.929 . S
C648 C647 1.406 . S
C648 C649 1.391 . S
C649 H616 0.931 . S
C649 C644 1.370 . S
C649 C648 1.391 . S
C650 N624 1.435 . S
C650 C651 1.358 . S
C650 C655 1.371 . S
C651 H617 0.930 . S
C651 C650 1.358 . S
C651 C652 1.405 . S
C652 H618 0.932 . S
C652 C651 1.405 . S
C652 C653 1.383 . S
C653 C652 1.383 . S
C653 C654 1.393 . S
C654 H619 0.931 . S
C654 C653 1.393 . S
C654 C655 1.382 . S
C655 H620 0.929 . S
C655 C650 1.371 . S
C655 C654 1.382 . S
C656 N624 1.423 . S
C656 C657 1.362 . S
C656 C661 1.388 . S
C657 H621 0.929 . S
C657 C656 1.362 . S
C657 C658 1.376 . S
C658 H622 0.931 . S
C658 C657 1.376 . S
C658 C659 1.396 . S
C659 C641 1.472 1_455 S
C659 C658 1.396 . S
C659 C660 1.348 . S
C660 H623 0.929 . S
C660 C659 1.348 . S
C660 C661 1.443 . S
C661 H625 0.932 . S
C661 C656 1.388 . S
C661 C660 1.443 . S
H662 C689 0.929 . S
N663 C688 1.433 . S
N663 C694 1.435 . S
N663 C700 1.423 . S
H664 C690 0.930 . S
H665 C693 0.931 . S
H666 C692 0.929 . S
H667 C695 0.930 . S
H668 C696 0.932 . S
H669 C699 0.929 . S
H670 C698 0.931 . S
H671 C701 0.929 . S
H672 C705 0.932 . S
H673 C702 0.931 . S
H674 C704 0.929 . S
H675 C707 0.929 . S
H676 C708 0.930 . S
H677 C710 0.929 . S
H678 C711 0.931 . S
H679 C713 0.930 . S
H680 C714 0.932 . S
H681 C716 0.931 . S
H682 C717 0.929 . S
H683 C719 0.929 . S
H684 C720 0.931 1_545 S
H685 C722 0.929 . S
N686 C706 1.433 . S
N686 C712 1.435 . S
N686 C718 1.423 . S
H687 C723 0.932 . S
C688 N663 1.433 . S
C688 C689 1.363 . S
C688 C693 1.370 . S
C689 H662 0.929 . S
C689 C688 1.363 . S
C689 C690 1.385 . S
C690 H664 0.930 . S
C690 C689 1.385 . S
C690 C691 1.357 . S
C691 C690 1.357 . S
C691 C692 1.406 . S
C692 H666 0.929 . S
C692 C691 1.406 . S
C692 C693 1.391 . S
C693 H665 0.931 . S
C693 C688 1.370 . S
C693 C692 1.391 . S
C694 N663 1.435 . S
C694 C695 1.358 . S
C694 C699 1.371 . S
C695 H667 0.930 . S
C695 C694 1.358 . S
C695 C696 1.405 . S
C696 H668 0.932 . S
C696 C695 1.405 . S
C696 C697 1.383 . S
C697 C696 1.383 . S
C697 C698 1.393 . S
C698 H670 0.931 . S
C698 C697 1.393 . S
C698 C699 1.382 . S
C699 H669 0.929 . S
C699 C694 1.371 . S
C699 C698 1.382 . S
C700 N663 1.423 . S
C700 C701 1.362 . S
C700 C705 1.388 . S
C701 H671 0.929 . S
C701 C700 1.362 . S
C701 C702 1.376 . S
C702 H673 0.931 . S
C702 C701 1.376 . S
C702 C703 1.396 . S
C703 C702 1.396 . S
C703 C704 1.348 . S
C703 C721 1.471 . S
C704 H674 0.929 . S
C704 C703 1.348 . S
C704 C705 1.443 . S
C705 H672 0.932 . S
C705 C700 1.388 . S
C705 C704 1.443 . S
C706 N686 1.433 . S
C706 C707 1.363 . S
C706 C711 1.370 . S
C707 H675 0.929 . S
C707 C706 1.363 . S
C707 C708 1.385 . S
C708 H676 0.930 . S
C708 C707 1.385 . S
C708 C709 1.357 . S
C709 C708 1.357 . S
C709 C710 1.406 . S
C710 H677 0.929 . S
C710 C709 1.406 . S
C710 C711 1.391 . S
C711 H678 0.931 . S
C711 C706 1.370 . S
C711 C710 1.391 . S
C712 N686 1.435 . S
C712 C713 1.358 . S
C712 C717 1.371 . S
C713 H679 0.930 . S
C713 C712 1.358 . S
C713 C714 1.405 . S
C714 H680 0.932 . S
C714 C713 1.405 . S
C714 C715 1.383 . S
C715 C714 1.383 . S
C715 C716 1.393 . S
C716 H681 0.931 . S
C716 C715 1.393 . S
C716 C717 1.382 . S
C717 H682 0.929 . S
C717 C712 1.371 . S
C717 C716 1.382 . S
C718 N686 1.423 . S
C718 C719 1.362 . S
C718 C723 1.388 . S
C719 H683 0.929 . S
C719 C718 1.362 . S
C719 C720 1.376 . S
C720 H684 0.931 1_565 S
C720 C719 1.376 . S
C720 C721 1.397 1_565 S
C721 C703 1.471 . S
C721 C720 1.397 1_545 S
C721 C722 1.349 1_545 S
C722 H685 0.929 . S
C722 C721 1.349 1_565 S
C722 C723 1.443 . S
C723 H687 0.932 . S
C723 C718 1.388 . S
C723 C722 1.443 . S
H724 C751 0.929 . S
N725 C750 1.433 . S
N725 C756 1.435 . S
N725 C762 1.423 . S
H726 C752 0.930 . S
H727 C755 0.931 . S
H728 C754 0.929 . S
H729 C757 0.930 . S
H730 C758 0.932 . S
H731 C761 0.929 . S
H732 C760 0.931 . S
H733 C763 0.929 . S
H734 C767 0.932 . S
H735 C764 0.931 . S
H736 C766 0.929 . S
H737 C769 0.929 . S
H738 C770 0.930 . S
H739 C772 0.933 . S
H740 C773 0.931 . S
H741 C775 0.930 . S
H742 C776 0.932 . S
H743 C778 0.931 . S
H744 C779 0.929 . S
H745 C781 0.929 . S
H746 C782 0.931 . S
H747 C784 0.929 . S
N748 C768 1.433 . S
N748 C774 1.435 . S
N748 C780 1.423 . S
H749 C785 0.932 . S
C750 N725 1.433 . S
C750 C751 1.363 . S
C750 C755 1.370 . S
C751 H724 0.929 . S
C751 C750 1.363 . S
C751 C752 1.385 . S
C752 H726 0.930 . S
C752 C751 1.385 . S
C752 C753 1.357 . S
C753 C752 1.357 . S
C753 C754 1.406 . S
C754 H728 0.929 . S
C754 C753 1.406 . S
C754 C755 1.391 . S
C755 H727 0.931 . S
C755 C750 1.370 . S
C755 C754 1.391 . S
C756 N725 1.435 . S
C756 C757 1.358 . S
C756 C761 1.371 . S
C757 H729 0.930 . S
C757 C756 1.358 . S
C757 C758 1.405 . S
C758 H730 0.932 . S
C758 C757 1.405 . S
C758 C759 1.383 . S
C759 C758 1.383 . S
C759 C760 1.393 . S
C760 H732 0.931 . S
C760 C759 1.393 . S
C760 C761 1.382 . S
C761 H731 0.929 . S
C761 C756 1.371 . S
C761 C760 1.382 . S
C762 N725 1.423 . S
C762 C763 1.362 . S
C762 C767 1.388 . S
C763 H733 0.929 . S
C763 C762 1.362 . S
C763 C764 1.376 . S
C764 H735 0.931 . S
C764 C763 1.376 . S
C764 C765 1.396 . S
C765 C764 1.396 . S
C765 C766 1.348 . S
C765 C783 1.472 . S
C766 H736 0.929 . S
C766 C765 1.348 . S
C766 C767 1.443 . S
C767 H734 0.932 . S
C767 C762 1.388 . S
C767 C766 1.443 . S
C768 N748 1.433 . S
C768 C769 1.363 1_455 S
C768 C773 1.370 . S
C769 H737 0.929 . S
C769 C768 1.363 1_655 S
C769 C770 1.385 . S
C770 H738 0.930 . S
C770 C769 1.385 . S
C770 C771 1.357 . S
C771 C770 1.357 . S
C771 C772 1.400 1_655 S
C772 H739 0.933 . S
C772 C771 1.400 1_455 S
C772 C773 1.394 . S
C773 H740 0.931 . S
C773 C768 1.370 . S
C773 C772 1.394 . S
C774 N748 1.435 . S
C774 C775 1.358 1_455 S
C774 C779 1.371 . S
C775 H741 0.930 . S
C775 C774 1.358 1_655 S
C775 C776 1.405 . S
C776 H742 0.932 . S
C776 C775 1.405 . S
C776 C777 1.383 . S
C777 C776 1.383 . S
C777 C778 1.393 1_655 S
C778 H743 0.931 . S
C778 C777 1.393 1_455 S
C778 C779 1.382 . S
C779 H744 0.929 . S
C779 C774 1.371 . S
C779 C778 1.382 . S
C780 N748 1.423 . S
C780 C781 1.362 . S
C780 C785 1.388 . S
C781 H745 0.929 . S
C781 C780 1.362 . S
C781 C782 1.376 . S
C782 H746 0.931 . S
C782 C781 1.376 . S
C782 C783 1.396 . S
C783 C765 1.472 . S
C783 C782 1.396 . S
C783 C784 1.348 . S
C784 H747 0.929 . S
C784 C783 1.348 . S
C784 C785 1.443 . S
C785 H749 0.932 . S
C785 C780 1.388 . S
C785 C784 1.443 . S
H786 C813 0.929 . S
N787 C812 1.433 . S
N787 C818 1.435 . S
N787 C824 1.423 . S
H788 C814 0.930 . S
H789 C817 0.931 . S
H790 C816 0.929 . S
H791 C819 0.930 . S
H792 C820 0.932 . S
H793 C823 0.929 . S
H794 C822 0.931 . S
H795 C825 0.929 . S
H796 C829 0.932 . S
H797 C826 0.931 . S
H798 C828 0.899 1_545 S
H799 C831 0.929 . S
H800 C832 0.930 . S
H801 C834 0.929 . S
H802 C835 0.931 . S
H803 C837 0.930 . S
H804 C838 0.932 . S
H805 C840 0.931 . S
H806 C841 0.929 . S
H807 C843 0.929 . S
H808 C844 0.931 . S
H809 C846 0.929 . S
N810 C830 1.433 . S
N810 C836 1.435 . S
N810 C842 1.423 . S
H811 C847 0.932 . S
C812 N787 1.433 . S
C812 C813 1.363 . S
C812 C817 1.370 . S
C813 H786 0.929 . S
C813 C812 1.363 . S
C813 C814 1.385 . S
C814 H788 0.930 . S
C814 C813 1.385 . S
C814 C815 1.357 . S
C815 C814 1.357 . S
C815 C816 1.406 . S
C816 H790 0.929 . S
C816 C815 1.406 . S
C816 C817 1.391 . S
C817 H789 0.931 . S
C817 C812 1.370 . S
C817 C816 1.391 . S
C818 N787 1.435 . S
C818 C819 1.358 . S
C818 C823 1.371 . S
C819 H791 0.930 . S
C819 C818 1.358 . S
C819 C820 1.405 . S
C820 H792 0.932 . S
C820 C819 1.405 . S
C820 C821 1.383 . S
C821 C820 1.383 . S
C821 C822 1.393 . S
C822 H794 0.931 . S
C822 C821 1.393 . S
C822 C823 1.382 . S
C823 H793 0.929 . S
C823 C818 1.371 . S
C823 C822 1.382 . S
C824 N787 1.423 . S
C824 C825 1.362 . S
C824 C829 1.388 . S
C825 H795 0.929 . S
C825 C824 1.362 . S
C825 C826 1.376 1_565 S
C826 H797 0.931 . S
C826 C825 1.376 1_545 S
C826 C827 1.396 . S
C827 C826 1.396 . S
C827 C828 1.348 1_545 S
C827 C845 1.472 . S
C828 H798 0.899 1_565 S
C828 C827 1.348 1_565 S
C828 C829 1.443 . S
C829 H796 0.932 . S
C829 C824 1.388 . S
C829 C828 1.443 . S
C830 N810 1.433 . S
C830 C831 1.363 . S
C830 C835 1.370 . S
C831 H799 0.929 . S
C831 C830 1.363 . S
C831 C832 1.385 . S
C832 H800 0.930 . S
C832 C831 1.385 . S
C832 C833 1.357 . S
C833 C832 1.357 . S
C833 C834 1.406 . S
C834 H801 0.929 . S
C834 C833 1.406 . S
C834 C835 1.391 . S
C835 H802 0.931 . S
C835 C830 1.370 . S
C835 C834 1.391 . S
C836 N810 1.435 . S
C836 C837 1.358 . S
C836 C841 1.371 . S
C837 H803 0.930 . S
C837 C836 1.358 . S
C837 C838 1.405 . S
C838 H804 0.932 . S
C838 C837 1.405 . S
C838 C839 1.383 . S
C839 C838 1.383 . S
C839 C840 1.393 . S
C840 H805 0.931 . S
C840 C839 1.393 . S
C840 C841 1.382 . S
C841 H806 0.929 . S
C841 C836 1.371 . S
C841 C840 1.382 . S
C842 N810 1.423 . S
C842 C843 1.362 . S
C842 C847 1.388 . S
C843 H807 0.929 . S
C843 C842 1.362 . S
C843 C844 1.376 . S
C844 H808 0.931 . S
C844 C843 1.376 . S
C844 C845 1.396 . S
C845 C827 1.472 . S
C845 C844 1.396 . S
C845 C846 1.348 . S
C846 H809 0.929 . S
C846 C845 1.348 . S
C846 C847 1.443 . S
C847 H811 0.932 . S
C847 C842 1.388 . S
C847 C846 1.443 . S
H848 C875 0.929 . S
N849 C874 1.433 . S
N849 C880 1.435 . S
N849 C886 1.423 . S
H850 C876 0.930 . S
H851 C879 0.931 . S
H852 C878 0.929 . S
H853 C881 0.930 . S
H854 C882 0.932 . S
H855 C885 0.929 . S
H856 C884 0.931 . S
H857 C887 0.929 . S
H858 C891 0.932 . S
H859 C888 0.931 . S
H860 C890 0.929 . S
H861 C893 0.929 . S
H862 C894 0.930 . S
H863 C896 0.929 . S
H864 C897 0.931 . S
H865 C899 0.930 . S
H866 C900 0.932 . S
H867 C902 0.931 . S
H868 C903 0.929 . S
H869 C905 0.929 . S
H870 C906 0.931 . S
H871 C908 0.921 1_455 S
N872 C892 1.433 . S
N872 C898 1.435 . S
N872 C904 1.423 . S
H873 C909 0.932 . S
C874 N849 1.433 . S
C874 C875 1.363 . S
C874 C879 1.370 . S
C875 H848 0.929 . S
C875 C874 1.363 . S
C875 C876 1.385 . S
C876 H850 0.930 . S
C876 C875 1.385 . S
C876 C877 1.357 . S
C877 C876 1.357 . S
C877 C878 1.406 . S
C878 H852 0.929 . S
C878 C877 1.406 . S
C878 C879 1.391 . S
C879 H851 0.931 . S
C879 C874 1.370 . S
C879 C878 1.391 . S
C880 N849 1.435 . S
C880 C881 1.358 . S
C880 C885 1.371 . S
C881 H853 0.930 . S
C881 C880 1.358 . S
C881 C882 1.405 . S
C882 H854 0.932 . S
C882 C881 1.405 . S
C882 C883 1.383 . S
C883 C882 1.383 . S
C883 C884 1.393 . S
C884 H856 0.931 . S
C884 C883 1.393 . S
C884 C885 1.382 . S
C885 H855 0.929 . S
C885 C880 1.371 . S
C885 C884 1.382 . S
C886 N849 1.423 . S
C886 C887 1.362 . S
C886 C891 1.388 . S
C887 H857 0.929 . S
C887 C886 1.362 . S
C887 C888 1.376 . S
C888 H859 0.931 . S
C888 C887 1.376 . S
C888 C889 1.396 . S
C889 C888 1.396 . S
C889 C890 1.348 . S
C889 C907 1.472 1_455 S
C890 H860 0.929 . S
C890 C889 1.348 . S
C890 C891 1.443 . S
C891 H858 0.932 . S
C891 C886 1.388 . S
C891 C890 1.443 . S
C892 N872 1.433 . S
C892 C893 1.363 . S
C892 C897 1.370 . S
C893 H861 0.929 . S
C893 C892 1.363 . S
C893 C894 1.385 . S
C894 H862 0.930 . S
C894 C893 1.385 . S
C894 C895 1.357 . S
C895 C894 1.357 . S
C895 C896 1.406 . S
C896 H863 0.929 . S
C896 C895 1.406 . S
C896 C897 1.391 . S
C897 H864 0.931 . S
C897 C892 1.370 . S
C897 C896 1.391 . S
C898 N872 1.435 . S
C898 C899 1.358 . S
C898 C903 1.371 . S
C899 H865 0.930 . S
C899 C898 1.358 . S
C899 C900 1.405 . S
C900 H866 0.932 . S
C900 C899 1.405 . S
C900 C901 1.383 . S
C901 C900 1.383 . S
C901 C902 1.393 . S
C902 H867 0.931 . S
C902 C901 1.393 . S
C902 C903 1.382 . S
C903 H868 0.929 . S
C903 C898 1.371 . S
C903 C902 1.382 . S
C904 N872 1.423 . S
C904 C905 1.362 . S
C904 C909 1.388 . S
C905 H869 0.929 . S
C905 C904 1.362 . S
C905 C906 1.376 . S
C906 H870 0.931 . S
C906 C905 1.376 . S
C906 C907 1.396 . S
C907 C889 1.472 1_655 S
C907 C906 1.396 . S
C907 C908 1.348 . S
C908 H871 0.921 1_655 S
C908 C907 1.348 . S
C908 C909 1.443 . S
C909 H873 0.932 . S
C909 C904 1.388 . S
C909 C908 1.443 . S
H910 C937 0.929 . S
N911 C936 1.433 . S
N911 C942 1.435 . S
N911 C948 1.423 . S
H912 C938 0.930 . S
H913 C941 0.931 . S
H914 C940 0.929 . S
H915 C943 0.930 . S
H916 C944 0.932 . S
H917 C947 0.929 . S
H918 C946 0.931 . S
H919 C949 0.929 . S
H920 C953 0.932 . S
H921 C950 0.931 . S
H922 C952 0.929 . S
H923 C955 0.929 . S
H924 C956 0.930 . S
H925 C958 0.929 . S
H926 C959 0.931 . S
H927 C961 0.930 . S
H928 C962 0.932 . S
H929 C964 0.931 . S
H930 C965 0.929 . S
H931 C967 0.929 . S
H932 C968 0.970 . S
H933 C970 0.929 . S
N934 C954 1.433 . S
N934 C960 1.435 . S
N934 C966 1.423 . S
H935 C971 0.932 . S
C936 N911 1.433 . S
C936 C937 1.363 . S
C936 C941 1.370 . S
C937 H910 0.929 . S
C937 C936 1.363 . S
C937 C938 1.385 . S
C938 H912 0.930 . S
C938 C937 1.385 . S
C938 C939 1.357 . S
C939 C938 1.357 . S
C939 C940 1.406 . S
C940 H914 0.929 . S
C940 C939 1.406 . S
C940 C941 1.391 . S
C941 H913 0.931 . S
C941 C936 1.370 . S
C941 C940 1.391 . S
C942 N911 1.435 . S
C942 C943 1.358 . S
C942 C947 1.371 . S
C943 H915 0.930 . S
C943 C942 1.358 . S
C943 C944 1.405 . S
C944 H916 0.932 . S
C944 C943 1.405 . S
C944 C945 1.383 . S
C945 C944 1.383 . S
C945 C946 1.393 . S
C946 H918 0.931 . S
C946 C945 1.393 . S
C946 C947 1.382 . S
C947 H917 0.929 . S
C947 C942 1.371 . S
C947 C946 1.382 . S
C948 N911 1.423 . S
C948 C949 1.362 . S
C948 C953 1.388 . S
C949 H919 0.929 . S
C949 C948 1.362 . S
C949 C950 1.376 . S
C950 H921 0.931 . S
C950 C949 1.376 . S
C950 C951 1.396 . S
C951 C950 1.396 . S
C951 C952 1.348 . S
C951 C969 1.472 1_545 S
C952 H922 0.929 . S
C952 C951 1.348 . S
C952 C953 1.443 . S
C953 H920 0.932 . S
C953 C948 1.388 . S
C953 C952 1.443 . S
C954 N934 1.433 . S
C954 C955 1.363 . S
C954 C959 1.370 . S
C955 H923 0.929 . S
C955 C954 1.363 . S
C955 C956 1.385 . S
C956 H924 0.930 . S
C956 C955 1.385 . S
C956 C957 1.357 . S
C957 C956 1.357 . S
C957 C958 1.406 . S
C958 H925 0.929 . S
C958 C957 1.406 . S
C958 C959 1.391 . S
C959 H926 0.931 . S
C959 C954 1.370 . S
C959 C958 1.391 . S
C960 N934 1.435 . S
C960 C961 1.358 . S
C960 C965 1.371 . S
C961 H927 0.930 . S
C961 C960 1.358 . S
C961 C962 1.405 . S
C962 H928 0.932 . S
C962 C961 1.405 . S
C962 C963 1.383 . S
C963 C962 1.383 . S
C963 C964 1.393 . S
C964 H929 0.931 . S
C964 C963 1.393 . S
C964 C965 1.382 . S
C965 H930 0.929 . S
C965 C960 1.371 . S
C965 C964 1.382 . S
C966 N934 1.423 . S
C966 C967 1.362 . S
C966 C971 1.388 . S
C967 H931 0.929 . S
C967 C966 1.362 . S
C967 C968 1.376 . S
C968 H932 0.970 . S
C968 C967 1.376 . S
C968 C969 1.396 . S
C969 C951 1.472 1_565 S
C969 C968 1.396 . S
C969 C970 1.348 . S
C970 H933 0.929 . S
C970 C969 1.348 . S
C970 C971 1.443 . S
C971 H935 0.932 . S
C971 C966 1.388 . S
C971 C970 1.443 . S
H972 C999 0.929 . S
N973 C998 1.451 . S
N973 C1004 1.435 . S
N973 C1010 1.423 . S
H974 C1000 0.930 . S
H975 C1003 0.931 . S
H976 C1002 0.920 1_455 S
H977 C1005 0.930 . S
H978 C1006 0.932 . S
H979 C1009 0.929 . S
H980 C1008 0.932 . S
H981 C1011 0.929 . S
H982 C1015 0.932 . S
H983 C1012 0.931 . S
H984 C1014 0.929 . S
H985 C1017 0.929 . S
H986 C1018 0.930 . S
H987 C1020 0.929 . S
H988 C1021 0.931 . S
H989 C1023 0.930 . S
H990 C1024 0.932 . S
H991 C1026 0.931 . S
H992 C1027 0.929 . S
H993 C1029 0.929 . S
H994 C1030 0.931 . S
H995 C1032 0.929 . S
N996 C1016 1.433 . S
N996 C1022 1.435 . S
N996 C1028 1.423 . S
H997 C1033 0.932 . S
C998 N973 1.451 . S
C998 C999 1.323 1_455 S
C998 C1003 1.393 . S
C999 H972 0.929 . S
C999 C998 1.323 1_655 S
C999 C1000 1.385 . S
C1000 H974 0.930 . S
C1000 C999 1.385 . S
C1000 C1001 1.357 . S
C1001 C1000 1.357 . S
C1001 C1002 1.424 . S
C1002 H976 0.920 1_655 S
C1002 C1001 1.424 . S
C1002 C1003 1.384 1_655 S
C1003 H975 0.931 . S
C1003 C998 1.393 . S
C1003 C1002 1.384 1_455 S
C1004 N973 1.435 . S
C1004 C1005 1.358 1_455 S
C1004 C1009 1.371 . S
C1005 H977 0.930 . S
C1005 C1004 1.358 1_655 S
C1005 C1006 1.405 . S
C1006 H978 0.932 . S
C1006 C1005 1.405 . S
C1006 C1007 1.383 . S
C1007 C1006 1.383 . S
C1007 C1008 1.393 . S
C1008 H980 0.932 . S
C1008 C1007 1.393 . S
C1008 C1009 1.382 1_655 S
C1009 H979 0.929 . S
C1009 C1004 1.371 . S
C1009 C1008 1.382 1_455 S
C1010 N973 1.423 . S
C1010 C1011 1.362 . S
C1010 C1015 1.388 . S
C1011 H981 0.929 . S
C1011 C1010 1.362 . S
C1011 C1012 1.376 . S
C1012 H983 0.931 . S
C1012 C1011 1.376 . S
C1012 C1013 1.396 . S
C1013 C1012 1.396 . S
C1013 C1014 1.348 . S
C1013 C1031 1.472 . S
C1014 H984 0.929 . S
C1014 C1013 1.348 . S
C1014 C1015 1.443 . S
C1015 H982 0.932 . S
C1015 C1010 1.388 . S
C1015 C1014 1.443 . S
C1016 N996 1.433 . S
C1016 C1017 1.363 . S
C1016 C1021 1.370 . S
C1017 H985 0.929 . S
C1017 C1016 1.363 . S
C1017 C1018 1.385 . S
C1018 H986 0.930 . S
C1018 C1017 1.385 . S
C1018 C1019 1.357 . S
C1019 C1018 1.357 . S
C1019 C1020 1.406 . S
C1020 H987 0.929 . S
C1020 C1019 1.406 . S
C1020 C1021 1.391 . S
C1021 H988 0.931 . S
C1021 C1016 1.370 . S
C1021 C1020 1.391 . S
C1022 N996 1.435 . S
C1022 C1023 1.358 . S
C1022 C1027 1.371 . S
C1023 H989 0.930 . S
C1023 C1022 1.358 . S
C1023 C1024 1.405 . S
C1024 H990 0.932 . S
C1024 C1023 1.405 . S
C1024 C1025 1.383 . S
C1025 C1024 1.383 . S
C1025 C1026 1.393 . S
C1026 H991 0.931 . S
C1026 C1025 1.393 . S
C1026 C1027 1.382 . S
C1027 H992 0.929 . S
C1027 C1022 1.371 . S
C1027 C1026 1.382 . S
C1028 N996 1.423 . S
C1028 C1029 1.362 . S
C1028 C1033 1.388 . S
C1029 H993 0.929 . S
C1029 C1028 1.362 . S
C1029 C1030 1.376 . S
C1030 H994 0.931 . S
C1030 C1029 1.376 . S
C1030 C1031 1.396 . S
C1031 C1013 1.472 . S
C1031 C1030 1.396 . S
C1031 C1032 1.348 . S
C1032 H995 0.929 . S
C1032 C1031 1.348 . S
C1032 C1033 1.443 . S
C1033 H997 0.932 . S
C1033 C1028 1.388 . S
C1033 C1032 1.443 . S
H1034 C1061 0.929 . S
N1035 C1060 1.433 . S
N1035 C1066 1.435 . S
N1035 C1072 1.423 . S
H1036 C1062 0.930 . S
H1037 C1065 0.931 . S
H1038 C1064 0.929 . S
H1039 C1067 0.930 . S
H1040 C1068 0.932 . S
H1041 C1071 0.929 . S
H1042 C1070 0.931 . S
H1043 C1073 0.929 . S
H1044 C1077 0.932 . S
H1045 C1074 0.931 . S
H1046 C1076 0.940 . S
H1047 C1079 0.929 . S
H1048 C1080 0.930 . S
H1049 C1082 0.929 . S
H1050 C1083 0.931 . S
H1051 C1085 0.930 . S
H1052 C1086 0.932 . S
H1053 C1088 0.931 . S
H1054 C1089 0.929 . S
H1055 C1091 0.929 . S
H1056 C1092 0.931 . S
H1057 C1094 0.929 . S
N1058 C1078 1.433 . S
N1058 C1084 1.435 . S
N1058 C1090 1.423 . S
H1059 C1095 0.932 . S
C1060 N1035 1.433 . S
C1060 C1061 1.363 . S
C1060 C1065 1.370 . S
C1061 H1034 0.929 . S
C1061 C1060 1.363 . S
C1061 C1062 1.385 . S
C1062 H1036 0.930 . S
C1062 C1061 1.385 . S
C1062 C1063 1.357 . S
C1063 C1062 1.357 . S
C1063 C1064 1.406 . S
C1064 H1038 0.929 . S
C1064 C1063 1.406 . S
C1064 C1065 1.391 . S
C1065 H1037 0.931 . S
C1065 C1060 1.370 . S
C1065 C1064 1.391 . S
C1066 N1035 1.435 . S
C1066 C1067 1.358 . S
C1066 C1071 1.371 . S
C1067 H1039 0.930 . S
C1067 C1066 1.358 . S
C1067 C1068 1.405 . S
C1068 H1040 0.932 . S
C1068 C1067 1.405 . S
C1068 C1069 1.383 . S
C1069 C1068 1.383 . S
C1069 C1070 1.393 . S
C1070 H1042 0.931 . S
C1070 C1069 1.393 . S
C1070 C1071 1.382 . S
C1071 H1041 0.929 . S
C1071 C1066 1.371 . S
C1071 C1070 1.382 . S
C1072 N1035 1.423 . S
C1072 C1073 1.362 . S
C1072 C1077 1.388 . S
C1073 H1043 0.929 . S
C1073 C1072 1.362 . S
C1073 C1074 1.376 1_565 S
C1074 H1045 0.931 . S
C1074 C1073 1.376 1_545 S
C1074 C1075 1.396 . S
C1075 C1074 1.396 . S
C1075 C1076 1.360 . S
C1075 C1093 1.472 . S
C1076 H1046 0.940 . S
C1076 C1075 1.360 . S
C1076 C1077 1.420 1_545 S
C1077 H1044 0.932 . S
C1077 C1072 1.388 . S
C1077 C1076 1.420 1_565 S
C1078 N1058 1.433 . S
C1078 C1079 1.363 . S
C1078 C1083 1.370 . S
C1079 H1047 0.929 . S
C1079 C1078 1.363 . S
C1079 C1080 1.385 . S
C1080 H1048 0.930 . S
C1080 C1079 1.385 . S
C1080 C1081 1.357 . S
C1081 C1080 1.357 . S
C1081 C1082 1.406 . S
C1082 H1049 0.929 . S
C1082 C1081 1.406 . S
C1082 C1083 1.391 . S
C1083 H1050 0.931 . S
C1083 C1078 1.370 . S
C1083 C1082 1.391 . S
C1084 N1058 1.435 . S
C1084 C1085 1.358 . S
C1084 C1089 1.371 . S
C1085 H1051 0.930 . S
C1085 C1084 1.358 . S
C1085 C1086 1.405 . S
C1086 H1052 0.932 . S
C1086 C1085 1.405 . S
C1086 C1087 1.383 . S
C1087 C1086 1.383 . S
C1087 C1088 1.393 . S
C1088 H1053 0.931 . S
C1088 C1087 1.393 . S
C1088 C1089 1.382 . S
C1089 H1054 0.929 . S
C1089 C1084 1.371 . S
C1089 C1088 1.382 . S
C1090 N1058 1.423 . S
C1090 C1091 1.362 . S
C1090 C1095 1.388 . S
C1091 H1055 0.929 . S
C1091 C1090 1.362 . S
C1091 C1092 1.376 . S
C1092 H1056 0.931 . S
C1092 C1091 1.376 . S
C1092 C1093 1.396 . S
C1093 C1075 1.472 . S
C1093 C1092 1.396 . S
C1093 C1094 1.348 . S
C1094 H1057 0.929 . S
C1094 C1093 1.348 . S
C1094 C1095 1.443 . S
C1095 H1059 0.932 . S
C1095 C1090 1.388 . S
C1095 C1094 1.443 . S
H1096 C1123 0.929 . S
N1097 C1122 1.433 . S
N1097 C1128 1.435 . S
N1097 C1134 1.423 . S
H1098 C1124 0.930 . S
H1099 C1127 0.931 . S
H1100 C1126 0.929 . S
H1101 C1129 0.930 . S
H1102 C1130 0.932 . S
H1103 C1133 0.929 . S
H1104 C1132 0.931 . S
H1105 C1135 0.929 . S
H1106 C1139 0.932 . S
H1107 C1136 0.931 . S
H1108 C1138 0.929 . S
H1109 C1141 0.929 . S
H1110 C1142 0.930 . S
H1111 C1144 0.929 . S
H1112 C1145 0.931 . S
H1113 C1147 0.930 . S
H1114 C1148 0.932 . S
H1115 C1150 0.931 . S
H1116 C1151 0.929 . S
H1117 C1153 0.929 . S
H1118 C1154 0.931 . S
H1119 C1156 0.929 . S
N1120 C1140 1.433 . S
N1120 C1146 1.435 . S
N1120 C1152 1.423 . S
H1121 C1157 0.932 . S
C1122 N1097 1.433 . S
C1122 C1123 1.363 . S
C1122 C1127 1.370 . S
C1123 H1096 0.929 . S
C1123 C1122 1.363 . S
C1123 C1124 1.385 . S
C1124 H1098 0.930 . S
C1124 C1123 1.385 . S
C1124 C1125 1.357 . S
C1125 C1124 1.357 . S
C1125 C1126 1.406 . S
C1126 H1100 0.929 . S
C1126 C1125 1.406 . S
C1126 C1127 1.391 . S
C1127 H1099 0.931 . S
C1127 C1122 1.370 . S
C1127 C1126 1.391 . S
C1128 N1097 1.435 . S
C1128 C1129 1.358 . S
C1128 C1133 1.371 . S
C1129 H1101 0.930 . S
C1129 C1128 1.358 . S
C1129 C1130 1.405 . S
C1130 H1102 0.932 . S
C1130 C1129 1.405 . S
C1130 C1131 1.383 . S
C1131 C1130 1.383 . S
C1131 C1132 1.393 . S
C1132 H1104 0.931 . S
C1132 C1131 1.393 . S
C1132 C1133 1.382 . S
C1133 H1103 0.929 . S
C1133 C1128 1.371 . S
C1133 C1132 1.382 . S
C1134 N1097 1.423 . S
C1134 C1135 1.362 . S
C1134 C1139 1.388 . S
C1135 H1105 0.929 . S
C1135 C1134 1.362 . S
C1135 C1136 1.376 . S
C1136 H1107 0.931 . S
C1136 C1135 1.376 . S
C1136 C1137 1.396 . S
C1137 C1136 1.396 . S
C1137 C1138 1.348 . S
C1137 C1155 1.472 . S
C1138 H1108 0.929 . S
C1138 C1137 1.348 . S
C1138 C1139 1.443 . S
C1139 H1106 0.932 . S
C1139 C1134 1.388 . S
C1139 C1138 1.443 . S
C1140 N1120 1.433 . S
C1140 C1141 1.363 . S
C1140 C1145 1.370 . S
C1141 H1109 0.929 . S
C1141 C1140 1.363 . S
C1141 C1142 1.385 . S
C1142 H1110 0.930 . S
C1142 C1141 1.385 . S
C1142 C1143 1.357 . S
C1143 C1142 1.357 . S
C1143 C1144 1.406 . S
C1144 H1111 0.929 . S
C1144 C1143 1.406 . S
C1144 C1145 1.391 . S
C1145 H1112 0.931 . S
C1145 C1140 1.370 . S
C1145 C1144 1.391 . S
C1146 N1120 1.435 . S
C1146 C1147 1.358 . S
C1146 C1151 1.371 . S
C1147 H1113 0.930 . S
C1147 C1146 1.358 . S
C1147 C1148 1.405 . S
C1148 H1114 0.932 . S
C1148 C1147 1.405 . S
C1148 C1149 1.383 . S
C1149 C1148 1.383 . S
C1149 C1150 1.393 . S
C1150 H1115 0.931 . S
C1150 C1149 1.393 . S
C1150 C1151 1.382 . S
C1151 H1116 0.929 . S
C1151 C1146 1.371 . S
C1151 C1150 1.382 . S
C1152 N1120 1.423 . S
C1152 C1153 1.362 . S
C1152 C1157 1.388 . S
C1153 H1117 0.929 . S
C1153 C1152 1.362 . S
C1153 C1154 1.376 . S
C1154 H1118 0.931 . S
C1154 C1153 1.376 . S
C1154 C1155 1.396 . S
C1155 C1137 1.472 . S
C1155 C1154 1.396 . S
C1155 C1156 1.348 . S
C1156 H1119 0.929 . S
C1156 C1155 1.348 . S
C1156 C1157 1.443 . S
C1157 H1121 0.932 . S
C1157 C1152 1.388 . S
C1157 C1156 1.443 . S
H1158 C1185 0.929 . S
N1159 C1184 1.433 . S
N1159 C1190 1.435 . S
N1159 C1196 1.423 . S
H1160 C1186 0.930 . S
H1161 C1189 0.931 . S
H1162 C1188 0.929 . S
H1163 C1191 0.930 . S
H1164 C1192 0.932 . S
H1165 C1195 0.929 . S
H1166 C1194 0.931 . S
H1167 C1197 0.929 . S
H1168 C1201 0.932 . S
H1169 C1198 0.931 . S
H1170 C1200 0.929 . S
H1171 C1203 0.929 . S
H1172 C1204 0.930 . S
H1173 C1206 0.929 . S
H1174 C1207 0.931 . S
H1175 C1209 0.930 . S
H1176 C1210 0.932 . S
H1177 C1212 0.931 . S
H1178 C1213 0.929 . S
H1179 C1215 0.929 . S
H1180 C1216 0.931 . S
H1181 C1218 0.929 . S
N1182 C1202 1.433 . S
N1182 C1208 1.435 . S
N1182 C1214 1.423 . S
H1183 C1219 0.932 . S
C1184 N1159 1.433 . S
C1184 C1185 1.363 . S
C1184 C1189 1.370 . S
C1185 H1158 0.929 . S
C1185 C1184 1.363 . S
C1185 C1186 1.385 . S
C1186 H1160 0.930 . S
C1186 C1185 1.385 . S
C1186 C1187 1.357 . S
C1187 C1186 1.357 . S
C1187 C1188 1.406 . S
C1188 H1162 0.929 . S
C1188 C1187 1.406 . S
C1188 C1189 1.391 . S
C1189 H1161 0.931 . S
C1189 C1184 1.370 . S
C1189 C1188 1.391 . S
C1190 N1159 1.435 . S
C1190 C1191 1.358 . S
C1190 C1195 1.371 . S
C1191 H1163 0.930 . S
C1191 C1190 1.358 . S
C1191 C1192 1.405 . S
C1192 H1164 0.932 . S
C1192 C1191 1.405 . S
C1192 C1193 1.383 . S
C1193 C1192 1.383 . S
C1193 C1194 1.393 . S
C1194 H1166 0.931 . S
C1194 C1193 1.393 . S
C1194 C1195 1.382 . S
C1195 H1165 0.929 . S
C1195 C1190 1.371 . S
C1195 C1194 1.382 . S
C1196 N1159 1.423 . S
C1196 C1197 1.362 . S
C1196 C1201 1.388 . S
C1197 H1167 0.929 . S
C1197 C1196 1.362 . S
C1197 C1198 1.376 . S
C1198 H1169 0.931 . S
C1198 C1197 1.376 . S
C1198 C1199 1.396 . S
C1199 C1198 1.396 . S
C1199 C1200 1.348 . S
C1199 C1217 1.472 . S
C1200 H1170 0.929 . S
C1200 C1199 1.348 . S
C1200 C1201 1.443 . S
C1201 H1168 0.932 . S
C1201 C1196 1.388 . S
C1201 C1200 1.443 . S
C1202 N1182 1.433 . S
C1202 C1203 1.363 . S
C1202 C1207 1.370 . S
C1203 H1171 0.929 . S
C1203 C1202 1.363 . S
C1203 C1204 1.385 . S
C1204 H1172 0.930 . S
C1204 C1203 1.385 . S
C1204 C1205 1.357 . S
C1205 C1204 1.357 . S
C1205 C1206 1.406 . S
C1206 H1173 0.929 . S
C1206 C1205 1.406 . S
C1206 C1207 1.391 . S
C1207 H1174 0.931 . S
C1207 C1202 1.370 . S
C1207 C1206 1.391 . S
C1208 N1182 1.435 . S
C1208 C1209 1.358 . S
C1208 C1213 1.371 . S
C1209 H1175 0.930 . S
C1209 C1208 1.358 . S
C1209 C1210 1.405 . S
C1210 H1176 0.932 . S
C1210 C1209 1.405 . S
C1210 C1211 1.383 . S
C1211 C1210 1.383 . S
C1211 C1212 1.393 . S
C1212 H1177 0.931 . S
C1212 C1211 1.393 . S
C1212 C1213 1.382 . S
C1213 H1178 0.929 . S
C1213 C1208 1.371 . S
C1213 C1212 1.382 . S
C1214 N1182 1.423 . S
C1214 C1215 1.362 . S
C1214 C1219 1.388 . S
C1215 H1179 0.929 . S
C1215 C1214 1.362 . S
C1215 C1216 1.376 . S
C1216 H1180 0.931 . S
C1216 C1215 1.376 . S
C1216 C1217 1.396 . S
C1217 C1199 1.472 . S
C1217 C1216 1.396 . S
C1217 C1218 1.348 . S
C1218 H1181 0.929 . S
C1218 C1217 1.348 . S
C1218 C1219 1.443 . S
C1219 H1183 0.932 . S
C1219 C1214 1.388 . S
C1219 C1218 1.443 . S
H1220 C1247 0.929 . S
N1221 C1246 1.433 . S
N1221 C1252 1.435 . S
N1221 C1258 1.423 . S
H1222 C1248 0.930 . S
H1223 C1251 0.931 . S
H1224 C1250 0.929 . S
H1225 C1253 0.930 . S
H1226 C1254 0.932 . S
H1227 C1257 0.929 . S
H1228 C1256 0.931 . S
H1229 C1259 0.929 . S
H1230 C1263 0.932 . S
H1231 C1260 0.931 . S
H1232 C1262 0.929 . S
H1233 C1265 0.929 . S
H1234 C1266 0.930 . S
H1235 C1268 0.929 . S
H1236 C1269 0.931 . S
H1237 C1271 0.930 . S
H1238 C1272 0.932 . S
H1239 C1274 0.931 . S
H1240 C1275 0.929 . S
H1241 C1277 0.929 . S
H1242 C1278 0.931 . S
H1243 C1280 0.929 . S
N1244 C1264 1.433 . S
N1244 C1270 1.435 . S
N1244 C1276 1.423 . S
H1245 C1281 0.932 . S
C1246 N1221 1.433 . S
C1246 C1247 1.363 . S
C1246 C1251 1.370 . S
C1247 H1220 0.929 . S
C1247 C1246 1.363 . S
C1247 C1248 1.385 . S
C1248 H1222 0.930 . S
C1248 C1247 1.385 . S
C1248 C1249 1.357 . S
C1249 C1248 1.357 . S
C1249 C1250 1.406 . S
C1250 H1224 0.929 . S
C1250 C1249 1.406 . S
C1250 C1251 1.391 . S
C1251 H1223 0.931 . S
C1251 C1246 1.370 . S
C1251 C1250 1.391 . S
C1252 N1221 1.435 . S
C1252 C1253 1.358 . S
C1252 C1257 1.371 . S
C1253 H1225 0.930 . S
C1253 C1252 1.358 . S
C1253 C1254 1.405 . S
C1254 H1226 0.932 . S
C1254 C1253 1.405 . S
C1254 C1255 1.383 . S
C1255 C1254 1.383 . S
C1255 C1256 1.393 . S
C1256 H1228 0.931 . S
C1256 C1255 1.393 . S
C1256 C1257 1.382 . S
C1257 H1227 0.929 . S
C1257 C1252 1.371 . S
C1257 C1256 1.382 . S
C1258 N1221 1.423 . S
C1258 C1259 1.362 . S
C1258 C1263 1.388 . S
C1259 H1229 0.929 . S
C1259 C1258 1.362 . S
C1259 C1260 1.376 . S
C1260 H1231 0.931 . S
C1260 C1259 1.376 . S
C1260 C1261 1.396 . S
C1261 C1260 1.396 . S
C1261 C1262 1.348 . S
C1261 C1279 1.472 . S
C1262 H1232 0.929 . S
C1262 C1261 1.348 . S
C1262 C1263 1.443 . S
C1263 H1230 0.932 . S
C1263 C1258 1.388 . S
C1263 C1262 1.443 . S
C1264 N1244 1.433 . S
C1264 C1265 1.363 . S
C1264 C1269 1.370 . S
C1265 H1233 0.929 . S
C1265 C1264 1.363 . S
C1265 C1266 1.385 . S
C1266 H1234 0.930 . S
C1266 C1265 1.385 . S
C1266 C1267 1.357 . S
C1267 C1266 1.357 . S
C1267 C1268 1.406 . S
C1268 H1235 0.929 . S
C1268 C1267 1.406 . S
C1268 C1269 1.391 . S
C1269 H1236 0.931 . S
C1269 C1264 1.370 . S
C1269 C1268 1.391 . S
C1270 N1244 1.435 . S
C1270 C1271 1.358 . S
C1270 C1275 1.371 . S
C1271 H1237 0.930 . S
C1271 C1270 1.358 . S
C1271 C1272 1.405 . S
C1272 H1238 0.932 . S
C1272 C1271 1.405 . S
C1272 C1273 1.383 . S
C1273 C1272 1.383 . S
C1273 C1274 1.393 . S
C1274 H1239 0.931 . S
C1274 C1273 1.393 . S
C1274 C1275 1.382 . S
C1275 H1240 0.929 . S
C1275 C1270 1.371 . S
C1275 C1274 1.382 . S
C1276 N1244 1.423 . S
C1276 C1277 1.362 . S
C1276 C1281 1.388 . S
C1277 H1241 0.929 . S
C1277 C1276 1.362 . S
C1277 C1278 1.376 . S
C1278 H1242 0.931 . S
C1278 C1277 1.376 . S
C1278 C1279 1.396 . S
C1279 C1261 1.472 . S
C1279 C1278 1.396 . S
C1279 C1280 1.348 . S
C1280 H1243 0.929 . S
C1280 C1279 1.348 . S
C1280 C1281 1.443 . S
C1281 H1245 0.932 . S
C1281 C1276 1.388 . S
C1281 C1280 1.443 . S
H1282 C1309 0.929 . S
N1283 C1308 1.433 . S
N1283 C1314 1.435 . S
N1283 C1320 1.423 . S
H1284 C1310 0.930 . S
H1285 C1313 0.931 . S
H1286 C1312 0.929 . S
H1287 C1315 0.930 . S
H1288 C1316 0.932 . S
H1289 C1319 0.929 . S
H1290 C1318 0.931 . S
H1291 C1321 0.929 . S
H1292 C1325 0.932 . S
H1293 C1322 0.931 . S
H1294 C1324 0.929 . S
H1295 C1327 0.929 . S
H1296 C1328 0.930 . S
H1297 C1330 0.929 . S
H1298 C1331 0.931 . S
H1299 C1333 0.930 . S
H1300 C1334 0.932 . S
H1301 C1336 0.931 . S
H1302 C1337 0.929 . S
H1303 C1339 0.929 . S
H1304 C1340 0.931 . S
H1305 C1342 0.929 . S
N1306 C1326 1.433 . S
N1306 C1332 1.435 . S
N1306 C1338 1.423 . S
H1307 C1343 0.932 . S
C1308 N1283 1.433 . S
C1308 C1309 1.363 . S
C1308 C1313 1.370 . S
C1309 H1282 0.929 . S
C1309 C1308 1.363 . S
C1309 C1310 1.385 . S
C1310 H1284 0.930 . S
C1310 C1309 1.385 . S
C1310 C1311 1.357 . S
C1311 C1310 1.357 . S
C1311 C1312 1.406 . S
C1312 H1286 0.929 . S
C1312 C1311 1.406 . S
C1312 C1313 1.391 . S
C1313 H1285 0.931 . S
C1313 C1308 1.370 . S
C1313 C1312 1.391 . S
C1314 N1283 1.435 . S
C1314 C1315 1.358 . S
C1314 C1319 1.371 . S
C1315 H1287 0.930 . S
C1315 C1314 1.358 . S
C1315 C1316 1.405 . S
C1316 H1288 0.932 . S
C1316 C1315 1.405 . S
C1316 C1317 1.383 . S
C1317 C1316 1.383 . S
C1317 C1318 1.393 . S
C1318 H1290 0.931 . S
C1318 C1317 1.393 . S
C1318 C1319 1.382 . S
C1319 H1289 0.929 . S
C1319 C1314 1.371 . S
C1319 C1318 1.382 . S
C1320 N1283 1.423 . S
C1320 C1321 1.362 . S
C1320 C1325 1.388 . S
C1321 H1291 0.929 . S
C1321 C1320 1.362 . S
C1321 C1322 1.376 . S
C1322 H1293 0.931 . S
C1322 C1321 1.376 . S
C1322 C1323 1.396 . S
C1323 C1322 1.396 . S
C1323 C1324 1.348 . S
C1323 C1341 1.472 . S
C1324 H1294 0.929 . S
C1324 C1323 1.348 . S
C1324 C1325 1.443 . S
C1325 H1292 0.932 . S
C1325 C1320 1.388 . S
C1325 C1324 1.443 . S
C1326 N1306 1.433 . S
C1326 C1327 1.363 . S
C1326 C1331 1.370 . S
C1327 H1295 0.929 . S
C1327 C1326 1.363 . S
C1327 C1328 1.385 . S
C1328 H1296 0.930 . S
C1328 C1327 1.385 . S
C1328 C1329 1.357 . S
C1329 C1328 1.357 . S
C1329 C1330 1.406 . S
C1330 H1297 0.929 . S
C1330 C1329 1.406 . S
C1330 C1331 1.391 . S
C1331 H1298 0.931 . S
C1331 C1326 1.370 . S
C1331 C1330 1.391 . S
C1332 N1306 1.435 . S
C1332 C1333 1.358 . S
C1332 C1337 1.371 . S
C1333 H1299 0.930 . S
C1333 C1332 1.358 . S
C1333 C1334 1.405 . S
C1334 H1300 0.932 . S
C1334 C1333 1.405 . S
C1334 C1335 1.383 . S
C1335 C1334 1.383 . S
C1335 C1336 1.393 . S
C1336 H1301 0.931 . S
C1336 C1335 1.393 . S
C1336 C1337 1.382 . S
C1337 H1302 0.929 . S
C1337 C1332 1.371 . S
C1337 C1336 1.382 . S
C1338 N1306 1.423 . S
C1338 C1339 1.362 . S
C1338 C1343 1.388 . S
C1339 H1303 0.929 . S
C1339 C1338 1.362 . S
C1339 C1340 1.376 . S
C1340 H1304 0.931 . S
C1340 C1339 1.376 . S
C1340 C1341 1.396 . S
C1341 C1323 1.472 . S
C1341 C1340 1.396 . S
C1341 C1342 1.348 . S
C1342 H1305 0.929 . S
C1342 C1341 1.348 . S
C1342 C1343 1.443 . S
C1343 H1307 0.932 . S
C1343 C1338 1.388 . S
C1343 C1342 1.443 . S
H1344 C1371 0.929 . S
N1345 C1370 1.433 . S
N1345 C1376 1.435 . S
N1345 C1382 1.423 . S
H1346 C1372 0.930 . S
H1347 C1375 0.931 . S
H1348 C1374 0.929 . S
H1349 C1377 0.930 . S
H1350 C1378 0.932 . S
H1351 C1381 0.929 . S
H1352 C1380 0.931 . S
H1353 C1383 0.929 . S
H1354 C1387 0.932 . S
H1355 C1384 0.931 . S
H1356 C1386 0.929 . S
H1357 C1389 0.929 . S
H1358 C1390 0.930 . S
H1359 C1392 0.929 . S
H1360 C1393 0.931 . S
H1361 C1395 0.930 . S
H1362 C1396 0.932 . S
H1363 C1398 0.931 . S
H1364 C1399 0.929 . S
H1365 C1401 0.929 . S
H1366 C1402 0.931 . S
H1367 C1404 0.929 . S
N1368 C1388 1.433 . S
N1368 C1394 1.435 . S
N1368 C1400 1.423 . S
H1369 C1405 0.932 . S
C1370 N1345 1.433 . S
C1370 C1371 1.363 . S
C1370 C1375 1.370 . S
C1371 H1344 0.929 . S
C1371 C1370 1.363 . S
C1371 C1372 1.385 . S
C1372 H1346 0.930 . S
C1372 C1371 1.385 . S
C1372 C1373 1.357 . S
C1373 C1372 1.357 . S
C1373 C1374 1.406 . S
C1374 H1348 0.929 . S
C1374 C1373 1.406 . S
C1374 C1375 1.391 . S
C1375 H1347 0.931 . S
C1375 C1370 1.370 . S
C1375 C1374 1.391 . S
C1376 N1345 1.435 . S
C1376 C1377 1.358 . S
C1376 C1381 1.371 . S
C1377 H1349 0.930 . S
C1377 C1376 1.358 . S
C1377 C1378 1.405 . S
C1378 H1350 0.932 . S
C1378 C1377 1.405 . S
C1378 C1379 1.383 . S
C1379 C1378 1.383 . S
C1379 C1380 1.393 . S
C1380 H1352 0.931 . S
C1380 C1379 1.393 . S
C1380 C1381 1.382 . S
C1381 H1351 0.929 . S
C1381 C1376 1.371 . S
C1381 C1380 1.382 . S
C1382 N1345 1.423 . S
C1382 C1383 1.362 . S
C1382 C1387 1.388 . S
C1383 H1353 0.929 . S
C1383 C1382 1.362 . S
C1383 C1384 1.376 . S
C1384 H1355 0.931 . S
C1384 C1383 1.376 . S
C1384 C1385 1.396 . S
C1385 C1384 1.396 . S
C1385 C1386 1.348 . S
C1385 C1403 1.472 . S
C1386 H1356 0.929 . S
C1386 C1385 1.348 . S
C1386 C1387 1.443 . S
C1387 H1354 0.932 . S
C1387 C1382 1.388 . S
C1387 C1386 1.443 . S
C1388 N1368 1.433 . S
C1388 C1389 1.363 . S
C1388 C1393 1.370 . S
C1389 H1357 0.929 . S
C1389 C1388 1.363 . S
C1389 C1390 1.385 . S
C1390 H1358 0.930 . S
C1390 C1389 1.385 . S
C1390 C1391 1.357 . S
C1391 C1390 1.357 . S
C1391 C1392 1.406 . S
C1392 H1359 0.929 . S
C1392 C1391 1.406 . S
C1392 C1393 1.391 . S
C1393 H1360 0.931 . S
C1393 C1388 1.370 . S
C1393 C1392 1.391 . S
C1394 N1368 1.435 . S
C1394 C1395 1.358 . S
C1394 C1399 1.371 . S
C1395 H1361 0.930 . S
C1395 C1394 1.358 . S
C1395 C1396 1.405 . S
C1396 H1362 0.932 . S
C1396 C1395 1.405 . S
C1396 C1397 1.383 . S
C1397 C1396 1.383 . S
C1397 C1398 1.393 . S
C1398 H1363 0.931 . S
C1398 C1397 1.393 . S
C1398 C1399 1.382 . S
C1399 H1364 0.929 . S
C1399 C1394 1.371 . S
C1399 C1398 1.382 . S
C1400 N1368 1.423 . S
C1400 C1401 1.362 . S
C1400 C1405 1.388 . S
C1401 H1365 0.929 . S
C1401 C1400 1.362 . S
C1401 C1402 1.376 . S
C1402 H1366 0.931 . S
C1402 C1401 1.376 . S
C1402 C1403 1.396 . S
C1403 C1385 1.472 . S
C1403 C1402 1.396 . S
C1403 C1404 1.348 . S
C1404 H1367 0.929 . S
C1404 C1403 1.348 . S
C1404 C1405 1.443 . S
C1405 H1369 0.932 . S
C1405 C1400 1.388 . S
C1405 C1404 1.443 . S
H1406 C1433 0.929 . S
N1407 C1432 1.433 . S
N1407 C1438 1.435 . S
N1407 C1444 1.423 . S
H1408 C1434 0.930 . S
H1409 C1437 0.931 . S
H1410 C1436 0.929 . S
H1411 C1439 0.930 . S
H1412 C1440 0.932 . S
H1413 C1443 0.929 . S
H1414 C1442 0.931 . S
H1415 C1445 0.929 . S
H1416 C1449 0.932 . S
H1417 C1446 0.931 . S
H1418 C1448 0.929 . S
H1419 C1451 0.929 . S
H1420 C1452 0.930 . S
H1421 C1454 0.929 . S
H1422 C1455 0.931 . S
H1423 C1457 0.930 . S
H1424 C1458 0.932 . S
H1425 C1460 0.931 . S
H1426 C1461 0.929 . S
H1427 C1463 0.929 . S
H1428 C1464 0.931 . S
H1429 C1466 0.929 . S
N1430 C1450 1.433 . S
N1430 C1456 1.435 . S
N1430 C1462 1.423 . S
H1431 C1467 0.932 . S
C1432 N1407 1.433 . S
C1432 C1433 1.363 . S
C1432 C1437 1.370 . S
C1433 H1406 0.929 . S
C1433 C1432 1.363 . S
C1433 C1434 1.385 . S
C1434 H1408 0.930 . S
C1434 C1433 1.385 . S
C1434 C1435 1.357 . S
C1435 C1434 1.357 . S
C1435 C1436 1.406 . S
C1436 H1410 0.929 . S
C1436 C1435 1.406 . S
C1436 C1437 1.391 . S
C1437 H1409 0.931 . S
C1437 C1432 1.370 . S
C1437 C1436 1.391 . S
C1438 N1407 1.435 . S
C1438 C1439 1.358 . S
C1438 C1443 1.371 . S
C1439 H1411 0.930 . S
C1439 C1438 1.358 . S
C1439 C1440 1.405 . S
C1440 H1412 0.932 . S
C1440 C1439 1.405 . S
C1440 C1441 1.383 . S
C1441 C1440 1.383 . S
C1441 C1442 1.393 . S
C1442 H1414 0.931 . S
C1442 C1441 1.393 . S
C1442 C1443 1.382 . S
C1443 H1413 0.929 . S
C1443 C1438 1.371 . S
C1443 C1442 1.382 . S
C1444 N1407 1.423 . S
C1444 C1445 1.362 . S
C1444 C1449 1.388 . S
C1445 H1415 0.929 . S
C1445 C1444 1.362 . S
C1445 C1446 1.376 . S
C1446 H1417 0.931 . S
C1446 C1445 1.376 . S
C1446 C1447 1.396 . S
C1447 C1446 1.396 . S
C1447 C1448 1.348 . S
C1447 C1465 1.472 . S
C1448 H1418 0.929 . S
C1448 C1447 1.348 . S
C1448 C1449 1.443 . S
C1449 H1416 0.932 . S
C1449 C1444 1.388 . S
C1449 C1448 1.443 . S
C1450 N1430 1.433 . S
C1450 C1451 1.363 . S
C1450 C1455 1.370 . S
C1451 H1419 0.929 . S
C1451 C1450 1.363 . S
C1451 C1452 1.385 . S
C1452 H1420 0.930 . S
C1452 C1451 1.385 . S
C1452 C1453 1.357 . S
C1453 C1452 1.357 . S
C1453 C1454 1.406 . S
C1454 H1421 0.929 . S
C1454 C1453 1.406 . S
C1454 C1455 1.391 . S
C1455 H1422 0.931 . S
C1455 C1450 1.370 . S
C1455 C1454 1.391 . S
C1456 N1430 1.435 . S
C1456 C1457 1.358 . S
C1456 C1461 1.371 . S
C1457 H1423 0.930 . S
C1457 C1456 1.358 . S
C1457 C1458 1.405 . S
C1458 H1424 0.932 . S
C1458 C1457 1.405 . S
C1458 C1459 1.383 . S
C1459 C1458 1.383 . S
C1459 C1460 1.393 . S
C1460 H1425 0.931 . S
C1460 C1459 1.393 . S
C1460 C1461 1.382 . S
C1461 H1426 0.929 . S
C1461 C1456 1.371 . S
C1461 C1460 1.382 . S
C1462 N1430 1.423 . S
C1462 C1463 1.362 . S
C1462 C1467 1.388 . S
C1463 H1427 0.929 . S
C1463 C1462 1.362 . S
C1463 C1464 1.376 . S
C1464 H1428 0.931 . S
C1464 C1463 1.376 . S
C1464 C1465 1.396 . S
C1465 C1447 1.472 . S
C1465 C1464 1.396 . S
C1465 C1466 1.348 . S
C1466 H1429 0.929 . S
C1466 C1465 1.348 . S
C1466 C1467 1.443 . S
C1467 H1431 0.932 . S
C1467 C1462 1.388 . S
C1467 C1466 1.443 . S
H1468 C1495 0.929 . S
N1469 C1494 1.433 . S
N1469 C1500 1.435 . S
N1469 C1506 1.423 . S
H1470 C1496 0.930 . S
H1471 C1499 0.931 . S
H1472 C1498 0.929 . S
H1473 C1501 0.930 . S
H1474 C1502 0.932 . S
H1475 C1505 0.929 . S
H1476 C1504 0.931 . S
H1477 C1507 0.929 . S
H1478 C1511 0.932 . S
H1479 C1508 0.931 . S
H1480 C1510 0.929 . S
H1481 C1513 0.929 . S
H1482 C1514 0.930 . S
H1483 C1516 0.929 . S
H1484 C1517 0.931 . S
H1485 C1519 0.930 . S
H1486 C1520 0.932 . S
H1487 C1522 0.931 . S
H1488 C1523 0.929 . S
H1489 C1525 0.929 . S
H1490 C1526 0.931 . S
H1491 C1528 0.929 . S
N1492 C1512 1.433 . S
N1492 C1518 1.435 . S
N1492 C1524 1.423 . S
H1493 C1529 0.932 . S
C1494 N1469 1.433 . S
C1494 C1495 1.363 . S
C1494 C1499 1.370 . S
C1495 H1468 0.929 . S
C1495 C1494 1.363 . S
C1495 C1496 1.385 . S
C1496 H1470 0.930 . S
C1496 C1495 1.385 . S
C1496 C1497 1.357 . S
C1497 C1496 1.357 . S
C1497 C1498 1.406 . S
C1498 H1472 0.929 . S
C1498 C1497 1.406 . S
C1498 C1499 1.391 . S
C1499 H1471 0.931 . S
C1499 C1494 1.370 . S
C1499 C1498 1.391 . S
C1500 N1469 1.435 . S
C1500 C1501 1.358 . S
C1500 C1505 1.371 . S
C1501 H1473 0.930 . S
C1501 C1500 1.358 . S
C1501 C1502 1.405 . S
C1502 H1474 0.932 . S
C1502 C1501 1.405 . S
C1502 C1503 1.383 . S
C1503 C1502 1.383 . S
C1503 C1504 1.393 . S
C1504 H1476 0.931 . S
C1504 C1503 1.393 . S
C1504 C1505 1.382 . S
C1505 H1475 0.929 . S
C1505 C1500 1.371 . S
C1505 C1504 1.382 . S
C1506 N1469 1.423 . S
C1506 C1507 1.362 . S
C1506 C1511 1.388 . S
C1507 H1477 0.929 . S
C1507 C1506 1.362 . S
C1507 C1508 1.376 . S
C1508 H1479 0.931 . S
C1508 C1507 1.376 . S
C1508 C1509 1.396 . S
C1509 C1508 1.396 . S
C1509 C1510 1.348 . S
C1509 C1527 1.472 . S
C1510 H1480 0.929 . S
C1510 C1509 1.348 . S
C1510 C1511 1.443 . S
C1511 H1478 0.932 . S
C1511 C1506 1.388 . S
C1511 C1510 1.443 . S
C1512 N1492 1.433 . S
C1512 C1513 1.363 . S
C1512 C1517 1.370 . S
C1513 H1481 0.929 . S
C1513 C1512 1.363 . S
C1513 C1514 1.385 . S
C1514 H1482 0.930 . S
C1514 C1513 1.385 . S
C1514 C1515 1.357 . S
C1515 C1514 1.357 . S
C1515 C1516 1.406 . S
C1516 H1483 0.929 . S
C1516 C1515 1.406 . S
C1516 C1517 1.391 . S
C1517 H1484 0.931 . S
C1517 C1512 1.370 . S
C1517 C1516 1.391 . S
C1518 N1492 1.435 . S
C1518 C1519 1.358 . S
C1518 C1523 1.371 . S
C1519 H1485 0.930 . S
C1519 C1518 1.358 . S
C1519 C1520 1.405 . S
C1520 H1486 0.932 . S
C1520 C1519 1.405 . S
C1520 C1521 1.383 . S
C1521 C1520 1.383 . S
C1521 C1522 1.393 . S
C1522 H1487 0.931 . S
C1522 C1521 1.393 . S
C1522 C1523 1.382 . S
C1523 H1488 0.929 . S
C1523 C1518 1.371 . S
C1523 C1522 1.382 . S
C1524 N1492 1.423 . S
C1524 C1525 1.362 . S
C1524 C1529 1.388 . S
C1525 H1489 0.929 . S
C1525 C1524 1.362 . S
C1525 C1526 1.376 . S
C1526 H1490 0.931 . S
C1526 C1525 1.376 . S
C1526 C1527 1.396 . S
C1527 C1509 1.472 . S
C1527 C1526 1.396 . S
C1527 C1528 1.348 . S
C1528 H1491 0.929 . S
C1528 C1527 1.348 . S
C1528 C1529 1.443 . S
C1529 H1493 0.932 . S
C1529 C1524 1.388 . S
C1529 C1528 1.443 . S
H1530 C1557 0.929 . S
N1531 C1556 1.433 . S
N1531 C1562 1.435 . S
N1531 C1568 1.423 . S
H1532 C1558 0.930 . S
H1533 C1561 0.931 . S
H1534 C1560 0.929 . S
H1535 C1563 0.930 . S
H1536 C1564 0.932 . S
H1537 C1567 0.929 . S
H1538 C1566 0.931 . S
H1539 C1569 0.929 . S
H1540 C1573 0.932 . S
H1541 C1570 0.931 . S
H1542 C1572 0.929 . S
H1543 C1575 0.929 . S
H1544 C1576 0.930 . S
H1545 C1578 0.929 . S
H1546 C1579 0.931 . S
H1547 C1581 0.930 . S
H1548 C1582 0.932 . S
H1549 C1584 0.931 . S
H1550 C1585 0.929 . S
H1551 C1587 0.929 . S
H1552 C1588 0.931 . S
H1553 C1590 0.929 . S
N1554 C1574 1.433 . S
N1554 C1580 1.435 . S
N1554 C1586 1.423 . S
H1555 C1591 0.932 . S
C1556 N1531 1.433 . S
C1556 C1557 1.363 . S
C1556 C1561 1.370 . S
C1557 H1530 0.929 . S
C1557 C1556 1.363 . S
C1557 C1558 1.385 . S
C1558 H1532 0.930 . S
C1558 C1557 1.385 . S
C1558 C1559 1.357 . S
C1559 C1558 1.357 . S
C1559 C1560 1.406 . S
C1560 H1534 0.929 . S
C1560 C1559 1.406 . S
C1560 C1561 1.391 . S
C1561 H1533 0.931 . S
C1561 C1556 1.370 . S
C1561 C1560 1.391 . S
C1562 N1531 1.435 . S
C1562 C1563 1.358 . S
C1562 C1567 1.371 . S
C1563 H1535 0.930 . S
C1563 C1562 1.358 . S
C1563 C1564 1.405 . S
C1564 H1536 0.932 . S
C1564 C1563 1.405 . S
C1564 C1565 1.383 . S
C1565 C1564 1.383 . S
C1565 C1566 1.393 . S
C1566 H1538 0.931 . S
C1566 C1565 1.393 . S
C1566 C1567 1.382 . S
C1567 H1537 0.929 . S
C1567 C1562 1.371 . S
C1567 C1566 1.382 . S
C1568 N1531 1.423 . S
C1568 C1569 1.362 . S
C1568 C1573 1.388 . S
C1569 H1539 0.929 . S
C1569 C1568 1.362 . S
C1569 C1570 1.376 . S
C1570 H1541 0.931 . S
C1570 C1569 1.376 . S
C1570 C1571 1.396 . S
C1571 C1570 1.396 . S
C1571 C1572 1.348 . S
C1571 C1589 1.472 . S
C1572 H1542 0.929 . S
C1572 C1571 1.348 . S
C1572 C1573 1.443 . S
C1573 H1540 0.932 . S
C1573 C1568 1.388 . S
C1573 C1572 1.443 . S
C1574 N1554 1.433 . S
C1574 C1575 1.363 . S
C1574 C1579 1.370 . S
C1575 H1543 0.929 . S
C1575 C1574 1.363 . S
C1575 C1576 1.385 . S
C1576 H1544 0.930 . S
C1576 C1575 1.385 . S
C1576 C1577 1.357 . S
C1577 C1576 1.357 . S
C1577 C1578 1.406 . S
C1578 H1545 0.929 . S
C1578 C1577 1.406 . S
C1578 C1579 1.391 . S
C1579 H1546 0.931 . S
C1579 C1574 1.370 . S
C1579 C1578 1.391 . S
C1580 N1554 1.435 . S
C1580 C1581 1.358 . S
C1580 C1585 1.371 . S
C1581 H1547 0.930 . S
C1581 C1580 1.358 . S
C1581 C1582 1.405 . S
C1582 H1548 0.932 . S
C1582 C1581 1.405 . S
C1582 C1583 1.383 . S
C1583 C1582 1.383 . S
C1583 C1584 1.393 . S
C1584 H1549 0.931 . S
C1584 C1583 1.393 . S
C1584 C1585 1.382 . S
C1585 H1550 0.929 . S
C1585 C1580 1.371 . S
C1585 C1584 1.382 . S
C1586 N1554 1.423 . S
C1586 C1587 1.362 . S
C1586 C1591 1.388 . S
C1587 H1551 0.929 . S
C1587 C1586 1.362 . S
C1587 C1588 1.376 . S
C1588 H1552 0.931 . S
C1588 C1587 1.376 . S
C1588 C1589 1.396 . S
C1589 C1571 1.472 . S
C1589 C1588 1.396 . S
C1589 C1590 1.348 . S
C1590 H1553 0.929 . S
C1590 C1589 1.348 . S
C1590 C1591 1.443 . S
C1591 H1555 0.932 . S
C1591 C1586 1.388 . S
C1591 C1590 1.443 . S
H1592 C1619 0.929 . S
N1593 C1618 1.433 . S
N1593 C1624 1.435 . S
N1593 C1630 1.423 . S
H1594 C1620 0.930 . S
H1595 C1623 0.931 . S
H1596 C1622 0.929 . S
H1597 C1625 0.930 . S
H1598 C1626 0.932 . S
H1599 C1629 0.929 . S
H1600 C1628 0.931 . S
H1601 C1631 0.929 . S
H1602 C1635 0.932 . S
H1603 C1632 0.931 . S
H1604 C1634 0.929 . S
H1605 C1637 0.929 . S
H1606 C1638 0.930 . S
H1607 C1640 0.929 . S
H1608 C1641 0.931 . S
H1609 C1643 0.930 . S
H1610 C1644 0.932 . S
H1611 C1646 0.931 . S
H1612 C1647 0.929 . S
H1613 C1649 0.929 . S
H1614 C1650 0.931 . S
H1615 C1652 0.929 . S
N1616 C1636 1.433 . S
N1616 C1642 1.435 . S
N1616 C1648 1.423 . S
H1617 C1653 0.932 . S
C1618 N1593 1.433 . S
C1618 C1619 1.363 . S
C1618 C1623 1.370 . S
C1619 H1592 0.929 . S
C1619 C1618 1.363 . S
C1619 C1620 1.385 . S
C1620 H1594 0.930 . S
C1620 C1619 1.385 . S
C1620 C1621 1.357 . S
C1621 C1620 1.357 . S
C1621 C1622 1.406 . S
C1622 H1596 0.929 . S
C1622 C1621 1.406 . S
C1622 C1623 1.391 . S
C1623 H1595 0.931 . S
C1623 C1618 1.370 . S
C1623 C1622 1.391 . S
C1624 N1593 1.435 . S
C1624 C1625 1.358 . S
C1624 C1629 1.371 . S
C1625 H1597 0.930 . S
C1625 C1624 1.358 . S
C1625 C1626 1.405 . S
C1626 H1598 0.932 . S
C1626 C1625 1.405 . S
C1626 C1627 1.383 . S
C1627 C1626 1.383 . S
C1627 C1628 1.393 . S
C1628 H1600 0.931 . S
C1628 C1627 1.393 . S
C1628 C1629 1.382 . S
C1629 H1599 0.929 . S
C1629 C1624 1.371 . S
C1629 C1628 1.382 . S
C1630 N1593 1.423 . S
C1630 C1631 1.362 . S
C1630 C1635 1.388 . S
C1631 H1601 0.929 . S
C1631 C1630 1.362 . S
C1631 C1632 1.376 . S
C1632 H1603 0.931 . S
C1632 C1631 1.376 . S
C1632 C1633 1.396 . S
C1633 C1632 1.396 . S
C1633 C1634 1.348 . S
C1633 C1651 1.472 . S
C1634 H1604 0.929 . S
C1634 C1633 1.348 . S
C1634 C1635 1.443 . S
C1635 H1602 0.932 . S
C1635 C1630 1.388 . S
C1635 C1634 1.443 . S
C1636 N1616 1.433 . S
C1636 C1637 1.363 . S
C1636 C1641 1.370 . S
C1637 H1605 0.929 . S
C1637 C1636 1.363 . S
C1637 C1638 1.385 . S
C1638 H1606 0.930 . S
C1638 C1637 1.385 . S
C1638 C1639 1.357 . S
C1639 C1638 1.357 . S
C1639 C1640 1.406 . S
C1640 H1607 0.929 . S
C1640 C1639 1.406 . S
C1640 C1641 1.391 . S
C1641 H1608 0.931 . S
C1641 C1636 1.370 . S
C1641 C1640 1.391 . S
C1642 N1616 1.435 . S
C1642 C1643 1.358 . S
C1642 C1647 1.371 . S
C1643 H1609 0.930 . S
C1643 C1642 1.358 . S
C1643 C1644 1.405 . S
C1644 H1610 0.932 . S
C1644 C1643 1.405 . S
C1644 C1645 1.383 . S
C1645 C1644 1.383 . S
C1645 C1646 1.393 . S
C1646 H1611 0.931 . S
C1646 C1645 1.393 . S
C1646 C1647 1.382 . S
C1647 H1612 0.929 . S
C1647 C1642 1.371 . S
C1647 C1646 1.382 . S
C1648 N1616 1.423 . S
C1648 C1649 1.362 . S
C1648 C1653 1.388 . S
C1649 H1613 0.929 . S
C1649 C1648 1.362 . S
C1649 C1650 1.376 . S
C1650 H1614 0.931 . S
C1650 C1649 1.376 . S
C1650 C1651 1.396 . S
C1651 C1633 1.472 . S
C1651 C1650 1.396 . S
C1651 C1652 1.348 . S
C1652 H1615 0.929 . S
C1652 C1651 1.348 . S
C1652 C1653 1.443 . S
C1653 H1617 0.932 . S
C1653 C1648 1.388 . S
C1653 C1652 1.443 . S
H1654 C1681 0.929 . S
N1655 C1680 1.433 . S
N1655 C1686 1.435 . S
N1655 C1692 1.423 . S
H1656 C1682 0.930 . S
H1657 C1685 0.931 . S
H1658 C1684 0.929 . S
H1659 C1687 0.930 . S
H1660 C1688 0.932 . S
H1661 C1691 0.929 . S
H1662 C1690 0.931 . S
H1663 C1693 0.929 . S
H1664 C1697 0.932 . S
H1665 C1694 0.931 . S
H1666 C1696 0.929 . S
H1667 C1699 0.929 . S
H1668 C1700 0.930 . S
H1669 C1702 0.929 . S
H1670 C1703 0.931 . S
H1671 C1705 0.930 . S
H1672 C1706 0.932 . S
H1673 C1708 0.931 . S
H1674 C1709 0.929 . S
H1675 C1711 0.929 . S
H1676 C1712 0.931 . S
H1677 C1714 0.929 . S
N1678 C1698 1.433 . S
N1678 C1704 1.435 . S
N1678 C1710 1.423 . S
H1679 C1715 0.932 . S
C1680 N1655 1.433 . S
C1680 C1681 1.363 . S
C1680 C1685 1.370 . S
C1681 H1654 0.929 . S
C1681 C1680 1.363 . S
C1681 C1682 1.385 . S
C1682 H1656 0.930 . S
C1682 C1681 1.385 . S
C1682 C1683 1.357 . S
C1683 C1682 1.357 . S
C1683 C1684 1.406 . S
C1684 H1658 0.929 . S
C1684 C1683 1.406 . S
C1684 C1685 1.391 . S
C1685 H1657 0.931 . S
C1685 C1680 1.370 . S
C1685 C1684 1.391 . S
C1686 N1655 1.435 . S
C1686 C1687 1.358 . S
C1686 C1691 1.371 . S
C1687 H1659 0.930 . S
C1687 C1686 1.358 . S
C1687 C1688 1.405 . S
C1688 H1660 0.932 . S
C1688 C1687 1.405 . S
C1688 C1689 1.383 . S
C1689 C1688 1.383 . S
C1689 C1690 1.393 . S
C1690 H1662 0.931 . S
C1690 C1689 1.393 . S
C1690 C1691 1.382 . S
C1691 H1661 0.929 . S
C1691 C1686 1.371 . S
C1691 C1690 1.382 . S
C1692 N1655 1.423 . S
C1692 C1693 1.362 . S
C1692 C1697 1.388 . S
C1693 H1663 0.929 . S
C1693 C1692 1.362 . S
C1693 C1694 1.376 . S
C1694 H1665 0.931 . S
C1694 C1693 1.376 . S
C1694 C1695 1.396 . S
C1695 C1694 1.396 . S
C1695 C1696 1.348 . S
C1695 C1713 1.472 . S
C1696 H1666 0.929 . S
C1696 C1695 1.348 . S
C1696 C1697 1.443 . S
C1697 H1664 0.932 . S
C1697 C1692 1.388 . S
C1697 C1696 1.443 . S
C1698 N1678 1.433 . S
C1698 C1699 1.363 . S
C1698 C1703 1.370 . S
C1699 H1667 0.929 . S
C1699 C1698 1.363 . S
C1699 C1700 1.385 . S
C1700 H1668 0.930 . S
C1700 C1699 1.385 . S
C1700 C1701 1.357 . S
C1701 C1700 1.357 . S
C1701 C1702 1.406 . S
C1702 H1669 0.929 . S
C1702 C1701 1.406 . S
C1702 C1703 1.391 . S
C1703 H1670 0.931 . S
C1703 C1698 1.370 . S
C1703 C1702 1.391 . S
C1704 N1678 1.435 . S
C1704 C1705 1.358 . S
C1704 C1709 1.371 . S
C1705 H1671 0.930 . S
C1705 C1704 1.358 . S
C1705 C1706 1.405 . S
C1706 H1672 0.932 . S
C1706 C1705 1.405 . S
C1706 C1707 1.383 . S
C1707 C1706 1.383 . S
C1707 C1708 1.393 . S
C1708 H1673 0.931 . S
C1708 C1707 1.393 . S
C1708 C1709 1.382 . S
C1709 H1674 0.929 . S
C1709 C1704 1.371 . S
C1709 C1708 1.382 . S
C1710 N1678 1.423 . S
C1710 C1711 1.362 . S
C1710 C1715 1.388 . S
C1711 H1675 0.929 . S
C1711 C1710 1.362 . S
C1711 C1712 1.376 . S
C1712 H1676 0.931 . S
C1712 C1711 1.376 . S
C1712 C1713 1.396 . S
C1713 C1695 1.472 . S
C1713 C1712 1.396 . S
C1713 C1714 1.348 . S
C1714 H1677 0.929 . S
C1714 C1713 1.348 . S
C1714 C1715 1.443 . S
C1715 H1679 0.932 . S
C1715 C1710 1.388 . S
C1715 C1714 1.443 . S
H1716 C1743 0.929 . S
N1717 C1742 1.433 . S
N1717 C1748 1.435 . S
N1717 C1754 1.423 . S
H1718 C1744 0.930 . S
H1719 C1747 0.931 . S
H1720 C1746 0.929 . S
H1721 C1749 0.930 . S
H1722 C1750 0.932 . S
H1723 C1753 0.929 . S
H1724 C1752 0.931 . S
H1725 C1755 0.929 . S
H1726 C1759 0.932 . S
H1727 C1756 0.931 . S
H1728 C1758 0.929 . S
H1729 C1761 0.929 . S
H1730 C1762 0.930 . S
H1731 C1764 0.929 . S
H1732 C1765 0.931 . S
H1733 C1767 0.930 . S
H1734 C1768 0.932 . S
H1735 C1770 0.931 . S
H1736 C1771 0.929 . S
H1737 C1773 0.929 . S
H1738 C1774 0.931 . S
H1739 C1776 0.929 . S
N1740 C1760 1.433 . S
N1740 C1766 1.435 . S
N1740 C1772 1.423 . S
H1741 C1777 0.932 . S
C1742 N1717 1.433 . S
C1742 C1743 1.363 . S
C1742 C1747 1.370 . S
C1743 H1716 0.929 . S
C1743 C1742 1.363 . S
C1743 C1744 1.385 . S
C1744 H1718 0.930 . S
C1744 C1743 1.385 . S
C1744 C1745 1.357 . S
C1745 C1744 1.357 . S
C1745 C1746 1.406 . S
C1746 H1720 0.929 . S
C1746 C1745 1.406 . S
C1746 C1747 1.391 . S
C1747 H1719 0.931 . S
C1747 C1742 1.370 . S
C1747 C1746 1.391 . S
C1748 N1717 1.435 . S
C1748 C1749 1.358 . S
C1748 C1753 1.371 . S
C1749 H1721 0.930 . S
C1749 C1748 1.358 . S
C1749 C1750 1.405 . S
C1750 H1722 0.932 . S
C1750 C1749 1.405 . S
C1750 C1751 1.383 . S
C1751 C1750 1.383 . S
C1751 C1752 1.393 . S
C1752 H1724 0.931 . S
C1752 C1751 1.393 . S
C1752 C1753 1.382 . S
C1753 H1723 0.929 . S
C1753 C1748 1.371 . S
C1753 C1752 1.382 . S
C1754 N1717 1.423 . S
C1754 C1755 1.362 . S
C1754 C1759 1.388 . S
C1755 H1725 0.929 . S
C1755 C1754 1.362 . S
C1755 C1756 1.376 . S
C1756 H1727 0.931 . S
C1756 C1755 1.376 . S
C1756 C1757 1.396 . S
C1757 C1756 1.396 . S
C1757 C1758 1.348 . S
C1757 C1775 1.472 . S
C1758 H1728 0.929 . S
C1758 C1757 1.348 . S
C1758 C1759 1.443 . S
C1759 H1726 0.932 . S
C1759 C1754 1.388 . S
C1759 C1758 1.443 . S
C1760 N1740 1.433 . S
C1760 C1761 1.363 . S
C1760 C1765 1.370 . S
C1761 H1729 0.929 . S
C1761 C1760 1.363 . S
C1761 C1762 1.385 . S
C1762 H1730 0.930 . S
C1762 C1761 1.385 . S
C1762 C1763 1.357 . S
C1763 C1762 1.357 . S
C1763 C1764 1.406 . S
C1764 H1731 0.929 . S
C1764 C1763 1.406 . S
C1764 C1765 1.391 . S
C1765 H1732 0.931 . S
C1765 C1760 1.370 . S
C1765 C1764 1.391 . S
C1766 N1740 1.435 . S
C1766 C1767 1.358 . S
C1766 C1771 1.371 . S
C1767 H1733 0.930 . S
C1767 C1766 1.358 . S
C1767 C1768 1.405 . S
C1768 H1734 0.932 . S
C1768 C1767 1.405 . S
C1768 C1769 1.383 . S
C1769 C1768 1.383 . S
C1769 C1770 1.393 . S
C1770 H1735 0.931 . S
C1770 C1769 1.393 . S
C1770 C1771 1.382 . S
C1771 H1736 0.929 . S
C1771 C1766 1.371 . S
C1771 C1770 1.382 . S
C1772 N1740 1.423 . S
C1772 C1773 1.362 . S
C1772 C1777 1.388 . S
C1773 H1737 0.929 . S
C1773 C1772 1.362 . S
C1773 C1774 1.376 . S
C1774 H1738 0.931 . S
C1774 C1773 1.376 . S
C1774 C1775 1.396 . S
C1775 C1757 1.472 . S
C1775 C1774 1.396 . S
C1775 C1776 1.348 . S
C1776 H1739 0.929 . S
C1776 C1775 1.348 . S
C1776 C1777 1.443 . S
C1777 H1741 0.932 . S
C1777 C1772 1.388 . S
C1777 C1776 1.443 . S
H1778 C1805 0.929 . S
N1779 C1804 1.433 . S
N1779 C1810 1.435 . S
N1779 C1816 1.423 . S
H1780 C1806 0.930 . S
H1781 C1809 0.931 . S
H1782 C1808 0.929 . S
H1783 C1811 0.930 . S
H1784 C1812 0.932 . S
H1785 C1815 0.929 . S
H1786 C1814 0.931 . S
H1787 C1817 0.929 . S
H1788 C1821 0.932 . S
H1789 C1818 0.931 . S
H1790 C1820 0.929 . S
H1791 C1823 0.929 . S
H1792 C1824 0.930 . S
H1793 C1826 0.929 . S
H1794 C1827 0.931 . S
H1795 C1829 0.930 . S
H1796 C1830 0.932 . S
H1797 C1832 0.931 . S
H1798 C1833 0.929 . S
H1799 C1835 0.929 . S
H1800 C1836 0.931 . S
H1801 C1838 0.929 . S
N1802 C1822 1.433 . S
N1802 C1828 1.435 . S
N1802 C1834 1.423 . S
H1803 C1839 0.932 . S
C1804 N1779 1.433 . S
C1804 C1805 1.363 . S
C1804 C1809 1.370 . S
C1805 H1778 0.929 . S
C1805 C1804 1.363 . S
C1805 C1806 1.385 . S
C1806 H1780 0.930 . S
C1806 C1805 1.385 . S
C1806 C1807 1.357 . S
C1807 C1806 1.357 . S
C1807 C1808 1.406 . S
C1808 H1782 0.929 . S
C1808 C1807 1.406 . S
C1808 C1809 1.391 . S
C1809 H1781 0.931 . S
C1809 C1804 1.370 . S
C1809 C1808 1.391 . S
C1810 N1779 1.435 . S
C1810 C1811 1.358 . S
C1810 C1815 1.371 . S
C1811 H1783 0.930 . S
C1811 C1810 1.358 . S
C1811 C1812 1.405 . S
C1812 H1784 0.932 . S
C1812 C1811 1.405 . S
C1812 C1813 1.383 . S
C1813 C1812 1.383 . S
C1813 C1814 1.393 . S
C1814 H1786 0.931 . S
C1814 C1813 1.393 . S
C1814 C1815 1.382 . S
C1815 H1785 0.929 . S
C1815 C1810 1.371 . S
C1815 C1814 1.382 . S
C1816 N1779 1.423 . S
C1816 C1817 1.362 . S
C1816 C1821 1.388 . S
C1817 H1787 0.929 . S
C1817 C1816 1.362 . S
C1817 C1818 1.376 . S
C1818 H1789 0.931 . S
C1818 C1817 1.376 . S
C1818 C1819 1.396 . S
C1819 C1818 1.396 . S
C1819 C1820 1.348 . S
C1819 C1837 1.472 . S
C1820 H1790 0.929 . S
C1820 C1819 1.348 . S
C1820 C1821 1.443 . S
C1821 H1788 0.932 . S
C1821 C1816 1.388 . S
C1821 C1820 1.443 . S
C1822 N1802 1.433 . S
C1822 C1823 1.363 . S
C1822 C1827 1.370 . S
C1823 H1791 0.929 . S
C1823 C1822 1.363 . S
C1823 C1824 1.385 . S
C1824 H1792 0.930 . S
C1824 C1823 1.385 . S
C1824 C1825 1.357 . S
C1825 C1824 1.357 . S
C1825 C1826 1.406 . S
C1826 H1793 0.929 . S
C1826 C1825 1.406 . S
C1826 C1827 1.391 . S
C1827 H1794 0.931 . S
C1827 C1822 1.370 . S
C1827 C1826 1.391 . S
C1828 N1802 1.435 . S
C1828 C1829 1.358 . S
C1828 C1833 1.371 . S
C1829 H1795 0.930 . S
C1829 C1828 1.358 . S
C1829 C1830 1.405 . S
C1830 H1796 0.932 . S
C1830 C1829 1.405 . S
C1830 C1831 1.383 . S
C1831 C1830 1.383 . S
C1831 C1832 1.393 . S
C1832 H1797 0.931 . S
C1832 C1831 1.393 . S
C1832 C1833 1.382 . S
C1833 H1798 0.929 . S
C1833 C1828 1.371 . S
C1833 C1832 1.382 . S
C1834 N1802 1.423 . S
C1834 C1835 1.362 . S
C1834 C1839 1.388 . S
C1835 H1799 0.929 . S
C1835 C1834 1.362 . S
C1835 C1836 1.376 . S
C1836 H1800 0.931 . S
C1836 C1835 1.376 . S
C1836 C1837 1.396 . S
C1837 C1819 1.472 . S
C1837 C1836 1.396 . S
C1837 C1838 1.348 . S
C1838 H1801 0.929 . S
C1838 C1837 1.348 . S
C1838 C1839 1.443 . S
C1839 H1803 0.932 . S
C1839 C1834 1.388 . S
C1839 C1838 1.443 . S
H1840 C1846 0.930 . S
H1841 C1850 0.930 . S
H1842 C1855 0.929 . S
H1843 C1853 0.929 . S
H1844 C1848 0.929 . S
H1845 C1854 0.929 . S
C1846 H1840 0.930 . S
C1846 C1847 1.367 . S
C1846 C1854 1.378 . S
C1847 C1846 1.367 . S
C1847 C1855 1.433 . S
C1848 H1844 0.929 . S
C1848 C1850 1.378 . S
C1848 C1852 1.350 . S
C1849 C1852 1.463 . S
C1849 C1854 1.350 . S
C1849 N1857 1.427 . S
C1850 H1841 0.930 . S
C1850 C1848 1.378 . S
C1850 C1851 1.367 . S
C1851 C1850 1.367 . S
C1851 C1853 1.433 . S
C1852 C1848 1.350 . S
C1852 C1849 1.463 . S
C1852 N1856 1.427 . S
C1853 H1843 0.929 . S
C1853 C1851 1.433 . S
C1853 N1856 1.384 . S
C1854 H1845 0.929 . S
C1854 C1846 1.378 . S
C1854 C1849 1.350 . S
C1855 H1842 0.929 . S
C1855 C1847 1.433 . S
C1855 N1857 1.384 . S
N1856 C1852 1.427 . S
N1856 C1853 1.384 . S
N1857 C1849 1.427 . S
N1857 C1855 1.384 . S
H1858 C1864 0.930 . S
H1859 C1868 0.930 . S
H1860 C1873 0.929 . S
H1861 C1871 0.929 . S
H1862 C1866 0.929 . S
H1863 C1872 0.929 . S
C1864 H1858 0.930 . S
C1864 C1865 1.367 . S
C1864 C1872 1.378 . S
C1865 C1864 1.367 . S
C1865 C1873 1.433 . S
C1866 H1862 0.929 . S
C1866 C1868 1.378 . S
C1866 C1870 1.350 . S
C1867 C1870 1.463 . S
C1867 C1872 1.350 . S
C1867 N1875 1.427 . S
C1868 H1859 0.930 . S
C1868 C1866 1.378 . S
C1868 C1869 1.367 . S
C1869 C1868 1.367 . S
C1869 C1871 1.433 . S
C1870 C1866 1.350 . S
C1870 C1867 1.463 . S
C1870 N1874 1.427 . S
C1871 H1861 0.929 . S
C1871 C1869 1.433 . S
C1871 N1874 1.384 . S
C1872 H1863 0.929 . S
C1872 C1864 1.378 . S
C1872 C1867 1.350 . S
C1873 H1860 0.929 . S
C1873 C1865 1.433 . S
C1873 N1875 1.384 . S
N1874 C1870 1.427 . S
N1874 C1871 1.384 . S
N1875 C1867 1.427 . S
N1875 C1873 1.384 . S
H1876 C1882 0.930 . S
H1877 C1886 0.930 . S
H1878 C1891 0.929 . S
H1879 C1889 0.929 . S
H1880 C1884 0.929 . S
H1881 C1890 0.929 . S
C1882 H1876 0.930 . S
C1882 C1883 1.367 . S
C1882 C1890 1.378 . S
C1883 C1882 1.367 . S
C1883 C1891 1.433 . S
C1884 H1880 0.929 . S
C1884 C1886 1.378 . S
C1884 C1888 1.350 . S
C1885 C1888 1.463 . S
C1885 C1890 1.350 . S
C1885 N1893 1.427 . S
C1886 H1877 0.930 . S
C1886 C1884 1.378 . S
C1886 C1887 1.367 . S
C1887 C1886 1.367 . S
C1887 C1889 1.433 . S
C1888 C1884 1.350 . S
C1888 C1885 1.463 . S
C1888 N1892 1.427 . S
C1889 H1879 0.929 . S
C1889 C1887 1.433 . S
C1889 N1892 1.384 . S
C1890 H1881 0.929 . S
C1890 C1882 1.378 . S
C1890 C1885 1.350 . S
C1891 H1878 0.929 . S
C1891 C1883 1.433 . S
C1891 N1893 1.384 . S
N1892 C1888 1.427 . S
N1892 C1889 1.384 . S
N1893 C1885 1.427 . S
N1893 C1891 1.384 . S
H1894 C1900 0.930 . S
H1895 C1904 0.930 . S
H1896 C1909 0.929 . S
H1897 C1907 0.929 . S
H1898 C1902 0.929 . S
H1899 C1908 0.929 . S
C1900 H1894 0.930 . S
C1900 C1901 1.367 . S
C1900 C1908 1.378 . S
C1901 C1900 1.367 . S
C1901 C1909 1.433 . S
C1902 H1898 0.929 . S
C1902 C1904 1.378 . S
C1902 C1906 1.350 . S
C1903 C1906 1.463 . S
C1903 C1908 1.350 . S
C1903 N1911 1.427 . S
C1904 H1895 0.930 . S
C1904 C1902 1.378 . S
C1904 C1905 1.367 . S
C1905 C1904 1.367 . S
C1905 C1907 1.433 . S
C1906 C1902 1.350 . S
C1906 C1903 1.463 . S
C1906 N1910 1.427 . S
C1907 H1897 0.929 . S
C1907 C1905 1.433 . S
C1907 N1910 1.384 . S
C1908 H1899 0.929 . S
C1908 C1900 1.378 . S
C1908 C1903 1.350 . S
C1909 H1896 0.929 . S
C1909 C1901 1.433 . S
C1909 N1911 1.384 . S
N1910 C1906 1.427 . S
N1910 C1907 1.384 . S
N1911 C1903 1.427 . S
N1911 C1909 1.384 . S
H1912 C1918 0.930 . S
H1913 C1922 0.930 . S
H1914 C1927 0.929 . S
H1915 C1925 0.929 . S
H1916 C1920 0.929 . S
H1917 C1926 0.929 . S
C1918 H1912 0.930 . S
C1918 C1919 1.367 . S
C1918 C1926 1.378 . S
C1919 C1918 1.367 . S
C1919 C1927 1.433 . S
C1920 H1916 0.929 . S
C1920 C1922 1.378 . S
C1920 C1924 1.350 . S
C1921 C1924 1.463 . S
C1921 C1926 1.350 . S
C1921 N1929 1.427 . S
C1922 H1913 0.930 . S
C1922 C1920 1.378 . S
C1922 C1923 1.367 . S
C1923 C1922 1.367 . S
C1923 C1925 1.433 . S
C1924 C1920 1.350 . S
C1924 C1921 1.463 . S
C1924 N1928 1.427 . S
C1925 H1915 0.929 . S
C1925 C1923 1.433 . S
C1925 N1928 1.384 . S
C1926 H1917 0.929 . S
C1926 C1918 1.378 . S
C1926 C1921 1.350 . S
C1927 H1914 0.929 . S
C1927 C1919 1.433 . S
C1927 N1929 1.384 . S
N1928 C1924 1.427 . S
N1928 C1925 1.384 . S
N1929 C1921 1.427 . S
N1929 C1927 1.384 . S
H1930 C1936 0.930 . S
H1931 C1940 0.930 . S
H1932 C1945 0.929 . S
H1933 C1943 0.929 . S
H1934 C1938 0.929 . S
H1935 C1944 0.929 . S
C1936 H1930 0.930 . S
C1936 C1937 1.367 . S
C1936 C1944 1.378 . S
C1937 C1936 1.367 . S
C1937 C1945 1.433 . S
C1938 H1934 0.929 . S
C1938 C1940 1.378 . S
C1938 C1942 1.350 . S
C1939 C1942 1.463 . S
C1939 C1944 1.350 . S
C1939 N1947 1.427 . S
C1940 H1931 0.930 . S
C1940 C1938 1.378 . S
C1940 C1941 1.367 . S
C1941 C1940 1.367 . S
C1941 C1943 1.433 . S
C1942 C1938 1.350 . S
C1942 C1939 1.463 . S
C1942 N1946 1.427 . S
C1943 H1933 0.929 . S
C1943 C1941 1.433 . S
C1943 N1946 1.384 . S
C1944 H1935 0.929 . S
C1944 C1936 1.378 . S
C1944 C1939 1.350 . S
C1945 H1932 0.929 . S
C1945 C1937 1.433 . S
C1945 N1947 1.384 . S
N1946 C1942 1.427 . S
N1946 C1943 1.384 . S
N1947 C1939 1.427 . S
N1947 C1945 1.384 . S
H1948 C1954 0.930 . S
H1949 C1958 0.930 . S
H1950 C1963 0.929 . S
H1951 C1961 0.929 . S
H1952 C1956 0.929 . S
H1953 C1962 0.929 . S
C1954 H1948 0.930 . S
C1954 C1955 1.367 . S
C1954 C1962 1.378 . S
C1955 C1954 1.367 . S
C1955 C1963 1.433 . S
C1956 H1952 0.929 . S
C1956 C1958 1.378 . S
C1956 C1960 1.350 . S
C1957 C1960 1.463 . S
C1957 C1962 1.350 . S
C1957 N1965 1.427 . S
C1958 H1949 0.930 . S
C1958 C1956 1.378 . S
C1958 C1959 1.367 . S
C1959 C1958 1.367 . S
C1959 C1961 1.433 . S
C1960 C1956 1.350 . S
C1960 C1957 1.463 . S
C1960 N1964 1.427 . S
C1961 H1951 0.929 . S
C1961 C1959 1.433 . S
C1961 N1964 1.384 . S
C1962 H1953 0.929 . S
C1962 C1954 1.378 . S
C1962 C1957 1.350 . S
C1963 H1950 0.929 . S
C1963 C1955 1.433 . S
C1963 N1965 1.384 . S
N1964 C1960 1.427 . S
N1964 C1961 1.384 . S
N1965 C1957 1.427 . S
N1965 C1963 1.384 . S
H1966 C1972 0.930 . S
H1967 C1976 0.930 . S
H1968 C1981 0.929 . S
H1969 C1979 0.929 . S
H1970 C1974 0.929 . S
H1971 C1980 0.929 . S
C1972 H1966 0.930 . S
C1972 C1973 1.367 . S
C1972 C1980 1.378 . S
C1973 C1972 1.367 . S
C1973 C1981 1.433 . S
C1974 H1970 0.929 . S
C1974 C1976 1.378 . S
C1974 C1978 1.350 . S
C1975 C1978 1.463 . S
C1975 C1980 1.350 . S
C1975 N1983 1.427 . S
C1976 H1967 0.930 . S
C1976 C1974 1.378 . S
C1976 C1977 1.367 . S
C1977 C1976 1.367 . S
C1977 C1979 1.433 . S
C1978 C1974 1.350 . S
C1978 C1975 1.463 . S
C1978 N1982 1.427 . S
C1979 H1969 0.929 . S
C1979 C1977 1.433 . S
C1979 N1982 1.384 . S
C1980 H1971 0.929 . S
C1980 C1972 1.378 . S
C1980 C1975 1.350 . S
C1981 H1968 0.929 . S
C1981 C1973 1.433 . S
C1981 N1983 1.384 . S
N1982 C1978 1.427 . S
N1982 C1979 1.384 . S
N1983 C1975 1.427 . S
N1983 C1981 1.384 . S
H1984 C1990 0.930 . S
H1985 C1994 0.930 . S
H1986 C1999 0.929 . S
H1987 C1997 0.929 . S
H1988 C1992 0.929 . S
H1989 C1998 0.929 . S
C1990 H1984 0.930 . S
C1990 C1991 1.367 . S
C1990 C1998 1.378 . S
C1991 C1990 1.367 . S
C1991 C1999 1.433 . S
C1992 H1988 0.929 . S
C1992 C1994 1.378 . S
C1992 C1996 1.350 . S
C1993 C1996 1.463 . S
C1993 C1998 1.350 . S
C1993 N2001 1.427 . S
C1994 H1985 0.930 . S
C1994 C1992 1.378 . S
C1994 C1995 1.367 . S
C1995 C1994 1.367 . S
C1995 C1997 1.433 . S
C1996 C1992 1.350 . S
C1996 C1993 1.463 . S
C1996 N2000 1.427 . S
C1997 H1987 0.929 . S
C1997 C1995 1.433 . S
C1997 N2000 1.384 . S
C1998 H1989 0.929 . S
C1998 C1990 1.378 . S
C1998 C1993 1.350 . S
C1999 H1986 0.929 . S
C1999 C1991 1.433 . S
C1999 N2001 1.384 . S
N2000 C1996 1.427 . S
N2000 C1997 1.384 . S
N2001 C1993 1.427 . S
N2001 C1999 1.384 . S
H2002 C2008 0.930 . S
H2003 C2012 0.930 . S
H2004 C2017 0.929 . S
H2005 C2015 0.929 . S
H2006 C2010 0.929 . S
H2007 C2016 0.929 . S
C2008 H2002 0.930 . S
C2008 C2009 1.367 . S
C2008 C2016 1.378 . S
C2009 C2008 1.367 . S
C2009 C2017 1.433 . S
C2010 H2006 0.929 . S
C2010 C2012 1.378 . S
C2010 C2014 1.350 . S
C2011 C2014 1.463 . S
C2011 C2016 1.350 . S
C2011 N2019 1.427 . S
C2012 H2003 0.930 . S
C2012 C2010 1.378 . S
C2012 C2013 1.367 . S
C2013 C2012 1.367 . S
C2013 C2015 1.433 . S
C2014 C2010 1.350 . S
C2014 C2011 1.463 . S
C2014 N2018 1.427 . S
C2015 H2005 0.929 . S
C2015 C2013 1.433 . S
C2015 N2018 1.384 . S
C2016 H2007 0.929 . S
C2016 C2008 1.378 . S
C2016 C2011 1.350 . S
C2017 H2004 0.929 . S
C2017 C2009 1.433 . S
C2017 N2019 1.384 . S
N2018 C2014 1.427 . S
N2018 C2015 1.384 . S
N2019 C2011 1.427 . S
N2019 C2017 1.384 . S
H2020 C2026 0.930 . S
H2021 C2030 0.930 . S
H2022 C2035 0.929 . S
H2023 C2033 0.929 . S
H2024 C2028 0.929 . S
H2025 C2034 0.929 . S
C2026 H2020 0.930 . S
C2026 C2027 1.367 . S
C2026 C2034 1.378 . S
C2027 C2026 1.367 . S
C2027 C2035 1.433 . S
C2028 H2024 0.929 . S
C2028 C2030 1.378 . S
C2028 C2032 1.350 . S
C2029 C2032 1.463 . S
C2029 C2034 1.350 . S
C2029 N2037 1.427 . S
C2030 H2021 0.930 . S
C2030 C2028 1.378 . S
C2030 C2031 1.367 . S
C2031 C2030 1.367 . S
C2031 C2033 1.433 . S
C2032 C2028 1.350 . S
C2032 C2029 1.463 . S
C2032 N2036 1.427 . S
C2033 H2023 0.929 . S
C2033 C2031 1.433 . S
C2033 N2036 1.384 . S
C2034 H2025 0.929 . S
C2034 C2026 1.378 . S
C2034 C2029 1.350 . S
C2035 H2022 0.929 . S
C2035 C2027 1.433 . S
C2035 N2037 1.384 . S
N2036 C2032 1.427 . S
N2036 C2033 1.384 . S
N2037 C2029 1.427 . S
N2037 C2035 1.384 . S
H2038 C2044 0.930 . S
H2039 C2048 0.930 . S
H2040 C2053 0.929 . S
H2041 C2051 0.929 . S
H2042 C2046 0.929 . S
H2043 C2052 0.929 . S
C2044 H2038 0.930 . S
C2044 C2045 1.367 . S
C2044 C2052 1.378 . S
C2045 C2044 1.367 . S
C2045 C2053 1.433 . S
C2046 H2042 0.929 . S
C2046 C2048 1.378 . S
C2046 C2050 1.350 . S
C2047 C2050 1.463 . S
C2047 C2052 1.350 . S
C2047 N2055 1.427 . S
C2048 H2039 0.930 . S
C2048 C2046 1.378 . S
C2048 C2049 1.367 . S
C2049 C2048 1.367 . S
C2049 C2051 1.433 . S
C2050 C2046 1.350 . S
C2050 C2047 1.463 . S
C2050 N2054 1.427 . S
C2051 H2041 0.929 . S
C2051 C2049 1.433 . S
C2051 N2054 1.384 . S
C2052 H2043 0.929 . S
C2052 C2044 1.378 . S
C2052 C2047 1.350 . S
C2053 H2040 0.929 . S
C2053 C2045 1.433 . S
C2053 N2055 1.384 . S
N2054 C2050 1.427 . S
N2054 C2051 1.384 . S
N2055 C2047 1.427 . S
N2055 C2053 1.384 . S
H2056 C2062 0.930 . S
H2057 C2066 0.930 . S
H2058 C2071 0.929 . S
H2059 C2069 0.929 . S
H2060 C2064 0.929 . S
H2061 C2070 0.929 . S
C2062 H2056 0.930 . S
C2062 C2063 1.367 . S
C2062 C2070 1.378 . S
C2063 C2062 1.367 . S
C2063 C2071 1.433 . S
C2064 H2060 0.929 . S
C2064 C2066 1.378 . S
C2064 C2068 1.350 . S
C2065 C2068 1.463 . S
C2065 C2070 1.350 . S
C2065 N2073 1.427 . S
C2066 H2057 0.930 . S
C2066 C2064 1.378 . S
C2066 C2067 1.367 . S
C2067 C2066 1.367 . S
C2067 C2069 1.433 . S
C2068 C2064 1.350 . S
C2068 C2065 1.463 . S
C2068 N2072 1.427 . S
C2069 H2059 0.929 . S
C2069 C2067 1.433 . S
C2069 N2072 1.384 . S
C2070 H2061 0.929 . S
C2070 C2062 1.378 . S
C2070 C2065 1.350 . S
C2071 H2058 0.929 . S
C2071 C2063 1.433 . S
C2071 N2073 1.384 . S
N2072 C2068 1.427 . S
N2072 C2069 1.384 . S
N2073 C2065 1.427 . S
N2073 C2071 1.384 . S
H2074 C2080 0.930 . S
H2075 C2084 0.930 . S
H2076 C2089 0.929 . S
H2077 C2087 0.929 . S
H2078 C2082 0.929 . S
H2079 C2088 0.929 . S
C2080 H2074 0.930 . S
C2080 C2081 1.367 . S
C2080 C2088 1.378 . S
C2081 C2080 1.367 . S
C2081 C2089 1.433 . S
C2082 H2078 0.929 . S
C2082 C2084 1.378 . S
C2082 C2086 1.350 . S
C2083 C2086 1.463 . S
C2083 C2088 1.350 . S
C2083 N2091 1.427 . S
C2084 H2075 0.930 . S
C2084 C2082 1.378 . S
C2084 C2085 1.367 . S
C2085 C2084 1.367 . S
C2085 C2087 1.433 . S
C2086 C2082 1.350 . S
C2086 C2083 1.463 . S
C2086 N2090 1.427 . S
C2087 H2077 0.929 . S
C2087 C2085 1.433 . S
C2087 N2090 1.384 . S
C2088 H2079 0.929 . S
C2088 C2080 1.378 . S
C2088 C2083 1.350 . S
C2089 H2076 0.929 . S
C2089 C2081 1.433 . S
C2089 N2091 1.384 . S
N2090 C2086 1.427 . S
N2090 C2087 1.384 . S
N2091 C2083 1.427 . S
N2091 C2089 1.384 . S
H2092 C2098 0.930 . S
H2093 C2102 0.930 . S
H2094 C2107 0.929 . S
H2095 C2105 0.929 . S
H2096 C2100 0.929 . S
H2097 C2106 0.929 . S
C2098 H2092 0.930 . S
C2098 C2099 1.367 . S
C2098 C2106 1.378 . S
C2099 C2098 1.367 . S
C2099 C2107 1.433 . S
C2100 H2096 0.929 . S
C2100 C2102 1.378 . S
C2100 C2104 1.350 . S
C2101 C2104 1.463 . S
C2101 C2106 1.350 . S
C2101 N2109 1.427 . S
C2102 H2093 0.930 . S
C2102 C2100 1.378 . S
C2102 C2103 1.367 . S
C2103 C2102 1.367 . S
C2103 C2105 1.433 . S
C2104 C2100 1.350 . S
C2104 C2101 1.463 . S
C2104 N2108 1.427 . S
C2105 H2095 0.929 . S
C2105 C2103 1.433 . S
C2105 N2108 1.384 . S
C2106 H2097 0.929 . S
C2106 C2098 1.378 . S
C2106 C2101 1.350 . S
C2107 H2094 0.929 . S
C2107 C2099 1.433 . S
C2107 N2109 1.384 . S
N2108 C2104 1.427 . S
N2108 C2105 1.384 . S
N2109 C2101 1.427 . S
N2109 C2107 1.384 . S
H2110 C2116 0.930 . S
H2111 C2120 0.930 . S
H2112 C2125 0.929 . S
H2113 C2123 0.929 . S
H2114 C2118 0.929 . S
H2115 C2124 0.929 . S
C2116 H2110 0.930 . S
C2116 C2117 1.367 . S
C2116 C2124 1.378 . S
C2117 C2116 1.367 . S
C2117 C2125 1.433 . S
C2118 H2114 0.929 . S
C2118 C2120 1.378 . S
C2118 C2122 1.350 . S
C2119 C2122 1.463 . S
C2119 C2124 1.350 . S
C2119 N2127 1.427 . S
C2120 H2111 0.930 . S
C2120 C2118 1.378 . S
C2120 C2121 1.367 . S
C2121 C2120 1.367 . S
C2121 C2123 1.433 . S
C2122 C2118 1.350 . S
C2122 C2119 1.463 . S
C2122 N2126 1.427 . S
C2123 H2113 0.929 . S
C2123 C2121 1.433 . S
C2123 N2126 1.384 . S
C2124 H2115 0.929 . S
C2124 C2116 1.378 . S
C2124 C2119 1.350 . S
C2125 H2112 0.929 . S
C2125 C2117 1.433 . S
C2125 N2127 1.384 . S
N2126 C2122 1.427 . S
N2126 C2123 1.384 . S
N2127 C2119 1.427 . S
N2127 C2125 1.384 . S
H2128 C2134 0.930 . S
H2129 C2138 0.930 . S
H2130 C2143 0.929 . S
H2131 C2141 0.929 . S
H2132 C2136 0.929 . S
H2133 C2142 0.929 . S
C2134 H2128 0.930 . S
C2134 C2135 1.367 . S
C2134 C2142 1.378 . S
C2135 C2134 1.367 . S
C2135 C2143 1.433 . S
C2136 H2132 0.929 . S
C2136 C2138 1.378 . S
C2136 C2140 1.350 . S
C2137 C2140 1.463 . S
C2137 C2142 1.350 . S
C2137 N2145 1.427 . S
C2138 H2129 0.930 . S
C2138 C2136 1.378 . S
C2138 C2139 1.367 . S
C2139 C2138 1.367 . S
C2139 C2141 1.433 . S
C2140 C2136 1.350 . S
C2140 C2137 1.463 . S
C2140 N2144 1.427 . S
C2141 H2131 0.929 . S
C2141 C2139 1.433 . S
C2141 N2144 1.384 . S
C2142 H2133 0.929 . S
C2142 C2134 1.378 . S
C2142 C2137 1.350 . S
C2143 H2130 0.929 . S
C2143 C2135 1.433 . S
C2143 N2145 1.384 . S
N2144 C2140 1.427 . S
N2144 C2141 1.384 . S
N2145 C2137 1.427 . S
N2145 C2143 1.384 . S
H2146 C2152 0.930 . S
H2147 C2156 0.930 . S
H2148 C2161 0.929 . S
H2149 C2159 0.929 . S
H2150 C2154 0.929 . S
H2151 C2160 0.929 . S
C2152 H2146 0.930 . S
C2152 C2153 1.367 . S
C2152 C2160 1.378 . S
C2153 C2152 1.367 . S
C2153 C2161 1.433 . S
C2154 H2150 0.929 . S
C2154 C2156 1.378 . S
C2154 C2158 1.350 . S
C2155 C2158 1.463 . S
C2155 C2160 1.350 . S
C2155 N2163 1.427 . S
C2156 H2147 0.930 . S
C2156 C2154 1.378 . S
C2156 C2157 1.367 . S
C2157 C2156 1.367 . S
C2157 C2159 1.433 . S
C2158 C2154 1.350 . S
C2158 C2155 1.463 . S
C2158 N2162 1.427 . S
C2159 H2149 0.929 . S
C2159 C2157 1.433 . S
C2159 N2162 1.384 . S
C2160 H2151 0.929 . S
C2160 C2152 1.378 . S
C2160 C2155 1.350 . S
C2161 H2148 0.929 . S
C2161 C2153 1.433 . S
C2161 N2163 1.384 . S
N2162 C2158 1.427 . S
N2162 C2159 1.384 . S
N2163 C2155 1.427 . S
N2163 C2161 1.384 . S
H2164 C2170 0.930 . S
H2165 C2174 0.930 . S
H2166 C2179 0.929 . S
H2167 C2177 0.929 . S
H2168 C2172 0.929 . S
H2169 C2178 0.929 . S
C2170 H2164 0.930 . S
C2170 C2171 1.367 . S
C2170 C2178 1.378 . S
C2171 C2170 1.367 . S
C2171 C2179 1.433 . S
C2172 H2168 0.929 . S
C2172 C2174 1.378 . S
C2172 C2176 1.350 . S
C2173 C2176 1.463 . S
C2173 C2178 1.350 . S
C2173 N2181 1.427 . S
C2174 H2165 0.930 . S
C2174 C2172 1.378 . S
C2174 C2175 1.367 . S
C2175 C2174 1.367 . S
C2175 C2177 1.433 . S
C2176 C2172 1.350 . S
C2176 C2173 1.463 . S
C2176 N2180 1.427 . S
C2177 H2167 0.929 . S
C2177 C2175 1.433 . S
C2177 N2180 1.384 . S
C2178 H2169 0.929 . S
C2178 C2170 1.378 . S
C2178 C2173 1.350 . S
C2179 H2166 0.929 . S
C2179 C2171 1.433 . S
C2179 N2181 1.384 . S
N2180 C2176 1.427 . S
N2180 C2177 1.384 . S
N2181 C2173 1.427 . S
N2181 C2179 1.384 . S
H2182 C2188 0.930 . S
H2183 C2192 0.930 . S
H2184 C2197 0.929 . S
H2185 C2195 0.929 . S
H2186 C2190 0.929 . S
H2187 C2196 0.929 . S
C2188 H2182 0.930 . S
C2188 C2189 1.367 . S
C2188 C2196 1.378 . S
C2189 C2188 1.367 . S
C2189 C2197 1.433 . S
C2190 H2186 0.929 . S
C2190 C2192 1.378 . S
C2190 C2194 1.350 . S
C2191 C2194 1.463 . S
C2191 C2196 1.350 . S
C2191 N2199 1.427 . S
C2192 H2183 0.930 . S
C2192 C2190 1.378 . S
C2192 C2193 1.367 . S
C2193 C2192 1.367 . S
C2193 C2195 1.433 . S
C2194 C2190 1.350 . S
C2194 C2191 1.463 . S
C2194 N2198 1.427 . S
C2195 H2185 0.929 . S
C2195 C2193 1.433 . S
C2195 N2198 1.384 . S
C2196 H2187 0.929 . S
C2196 C2188 1.378 . S
C2196 C2191 1.350 . S
C2197 H2184 0.929 . S
C2197 C2189 1.433 . S
C2197 N2199 1.384 . S
N2198 C2194 1.427 . S
N2198 C2195 1.384 . S
N2199 C2191 1.427 . S
N2199 C2197 1.384 . S
H2200 C2206 0.930 . S
H2201 C2210 0.930 . S
H2202 C2215 0.929 . S
H2203 C2213 0.929 . S
H2204 C2208 0.929 . S
H2205 C2214 0.929 . S
C2206 H2200 0.930 . S
C2206 C2207 1.367 . S
C2206 C2214 1.378 . S
C2207 C2206 1.367 . S
C2207 C2215 1.433 . S
C2208 H2204 0.929 . S
C2208 C2210 1.378 . S
C2208 C2212 1.350 . S
C2209 C2212 1.463 . S
C2209 C2214 1.350 . S
C2209 N2217 1.427 . S
C2210 H2201 0.930 . S
C2210 C2208 1.378 . S
C2210 C2211 1.367 . S
C2211 C2210 1.367 . S
C2211 C2213 1.433 . S
C2212 C2208 1.350 . S
C2212 C2209 1.463 . S
C2212 N2216 1.427 . S
C2213 H2203 0.929 . S
C2213 C2211 1.433 . S
C2213 N2216 1.384 . S
C2214 H2205 0.929 . S
C2214 C2206 1.378 . S
C2214 C2209 1.350 . S
C2215 H2202 0.929 . S
C2215 C2207 1.433 . S
C2215 N2217 1.384 . S
N2216 C2212 1.427 . S
N2216 C2213 1.384 . S
N2217 C2209 1.427 . S
N2217 C2215 1.384 . S
H2218 C2224 0.930 . S
H2219 C2228 0.930 . S
H2220 C2233 0.929 . S
H2221 C2231 0.929 . S
H2222 C2226 0.929 . S
H2223 C2232 0.929 . S
C2224 H2218 0.930 . S
C2224 C2225 1.367 . S
C2224 C2232 1.378 . S
C2225 C2224 1.367 . S
C2225 C2233 1.433 . S
C2226 H2222 0.929 . S
C2226 C2228 1.378 . S
C2226 C2230 1.350 . S
C2227 C2230 1.463 . S
C2227 C2232 1.350 . S
C2227 N2235 1.427 . S
C2228 H2219 0.930 . S
C2228 C2226 1.378 . S
C2228 C2229 1.367 . S
C2229 C2228 1.367 . S
C2229 C2231 1.433 . S
C2230 C2226 1.350 . S
C2230 C2227 1.463 . S
C2230 N2234 1.427 . S
C2231 H2221 0.929 . S
C2231 C2229 1.433 . S
C2231 N2234 1.384 . S
C2232 H2223 0.929 . S
C2232 C2224 1.378 . S
C2232 C2227 1.350 . S
C2233 H2220 0.929 . S
C2233 C2225 1.433 . S
C2233 N2235 1.384 . S
N2234 C2230 1.427 . S
N2234 C2231 1.384 . S
N2235 C2227 1.427 . S
N2235 C2233 1.384 . S
H2236 C2242 0.930 . S
H2237 C2246 0.930 . S
H2238 C2251 0.929 . S
H2239 C2249 0.929 . S
H2240 C2244 0.929 . S
H2241 C2250 0.929 . S
C2242 H2236 0.930 . S
C2242 C2243 1.367 . S
C2242 C2250 1.378 . S
C2243 C2242 1.367 . S
C2243 C2251 1.433 . S
C2244 H2240 0.929 . S
C2244 C2246 1.378 . S
C2244 C2248 1.350 . S
C2245 C2248 1.463 . S
C2245 C2250 1.350 . S
C2245 N2253 1.427 . S
C2246 H2237 0.930 . S
C2246 C2244 1.378 . S
C2246 C2247 1.367 . S
C2247 C2246 1.367 . S
C2247 C2249 1.433 . S
C2248 C2244 1.350 . S
C2248 C2245 1.463 . S
C2248 N2252 1.427 . S
C2249 H2239 0.929 . S
C2249 C2247 1.433 . S
C2249 N2252 1.384 . S
C2250 H2241 0.929 . S
C2250 C2242 1.378 . S
C2250 C2245 1.350 . S
C2251 H2238 0.929 . S
C2251 C2243 1.433 . S
C2251 N2253 1.384 . S
N2252 C2248 1.427 . S
N2252 C2249 1.384 . S
N2253 C2245 1.427 . S
N2253 C2251 1.384 . S
H2254 C2260 0.930 . S
H2255 C2264 0.930 . S
H2256 C2269 0.929 . S
H2257 C2267 0.929 . S
H2258 C2262 0.929 . S
H2259 C2268 0.929 . S
C2260 H2254 0.930 . S
C2260 C2261 1.367 . S
C2260 C2268 1.378 . S
C2261 C2260 1.367 . S
C2261 C2269 1.433 . S
C2262 H2258 0.929 . S
C2262 C2264 1.378 . S
C2262 C2266 1.350 . S
C2263 C2266 1.463 . S
C2263 C2268 1.350 . S
C2263 N2271 1.427 . S
C2264 H2255 0.930 . S
C2264 C2262 1.378 . S
C2264 C2265 1.367 . S
C2265 C2264 1.367 . S
C2265 C2267 1.433 . S
C2266 C2262 1.350 . S
C2266 C2263 1.463 . S
C2266 N2270 1.427 . S
C2267 H2257 0.929 . S
C2267 C2265 1.433 . S
C2267 N2270 1.384 . S
C2268 H2259 0.929 . S
C2268 C2260 1.378 . S
C2268 C2263 1.350 . S
C2269 H2256 0.929 . S
C2269 C2261 1.433 . S
C2269 N2271 1.384 . S
N2270 C2266 1.427 . S
N2270 C2267 1.384 . S
N2271 C2263 1.427 . S
N2271 C2269 1.384 . S
H2272 C2278 0.930 . S
H2273 C2282 0.930 . S
H2274 C2287 0.929 . S
H2275 C2285 0.929 . S
H2276 C2280 0.929 . S
H2277 C2286 0.929 . S
C2278 H2272 0.930 . S
C2278 C2279 1.367 . S
C2278 C2286 1.378 . S
C2279 C2278 1.367 . S
C2279 C2287 1.433 . S
C2280 H2276 0.929 . S
C2280 C2282 1.378 . S
C2280 C2284 1.350 . S
C2281 C2284 1.463 . S
C2281 C2286 1.350 . S
C2281 N2289 1.427 . S
C2282 H2273 0.930 . S
C2282 C2280 1.378 . S
C2282 C2283 1.367 . S
C2283 C2282 1.367 . S
C2283 C2285 1.433 . S
C2284 C2280 1.350 . S
C2284 C2281 1.463 . S
C2284 N2288 1.427 . S
C2285 H2275 0.929 . S
C2285 C2283 1.433 . S
C2285 N2288 1.384 . S
C2286 H2277 0.929 . S
C2286 C2278 1.378 . S
C2286 C2281 1.350 . S
C2287 H2274 0.929 . S
C2287 C2279 1.433 . S
C2287 N2289 1.384 . S
N2288 C2284 1.427 . S
N2288 C2285 1.384 . S
N2289 C2281 1.427 . S
N2289 C2287 1.384 . S
H2290 C2296 0.930 . S
H2291 C2300 0.930 . S
H2292 C2305 0.929 . S
H2293 C2303 0.929 . S
H2294 C2298 0.929 . S
H2295 C2304 0.929 . S
C2296 H2290 0.930 . S
C2296 C2297 1.367 . S
C2296 C2304 1.378 . S
C2297 C2296 1.367 . S
C2297 C2305 1.433 . S
C2298 H2294 0.929 . S
C2298 C2300 1.378 . S
C2298 C2302 1.350 . S
C2299 C2302 1.463 . S
C2299 C2304 1.350 . S
C2299 N2307 1.427 . S
C2300 H2291 0.930 . S
C2300 C2298 1.378 . S
C2300 C2301 1.367 . S
C2301 C2300 1.367 . S
C2301 C2303 1.433 . S
C2302 C2298 1.350 . S
C2302 C2299 1.463 . S
C2302 N2306 1.427 . S
C2303 H2293 0.929 . S
C2303 C2301 1.433 . S
C2303 N2306 1.384 . S
C2304 H2295 0.929 . S
C2304 C2296 1.378 . S
C2304 C2299 1.350 . S
C2305 H2292 0.929 . S
C2305 C2297 1.433 . S
C2305 N2307 1.384 . S
N2306 C2302 1.427 . S
N2306 C2303 1.384 . S
N2307 C2299 1.427 . S
N2307 C2305 1.384 . S
H2308 C2314 0.930 . S
H2309 C2318 0.930 . S
H2310 C2323 0.929 . S
H2311 C2321 0.929 . S
H2312 C2316 0.929 . S
H2313 C2322 0.929 . S
C2314 H2308 0.930 . S
C2314 C2315 1.367 . S
C2314 C2322 1.378 . S
C2315 C2314 1.367 . S
C2315 C2323 1.433 . S
C2316 H2312 0.929 . S
C2316 C2318 1.378 . S
C2316 C2320 1.350 . S
C2317 C2320 1.463 . S
C2317 C2322 1.350 . S
C2317 N2325 1.427 . S
C2318 H2309 0.930 . S
C2318 C2316 1.378 . S
C2318 C2319 1.367 . S
C2319 C2318 1.367 . S
C2319 C2321 1.433 . S
C2320 C2316 1.350 . S
C2320 C2317 1.463 . S
C2320 N2324 1.427 . S
C2321 H2311 0.929 . S
C2321 C2319 1.433 . S
C2321 N2324 1.384 . S
C2322 H2313 0.929 . S
C2322 C2314 1.378 . S
C2322 C2317 1.350 . S
C2323 H2310 0.929 . S
C2323 C2315 1.433 . S
C2323 N2325 1.384 . S
N2324 C2320 1.427 . S
N2324 C2321 1.384 . S
N2325 C2317 1.427 . S
N2325 C2323 1.384 . S
H2326 C2332 0.930 . S
H2327 C2336 0.930 . S
H2328 C2341 0.929 . S
H2329 C2339 0.929 . S
H2330 C2334 0.929 . S
H2331 C2340 0.929 . S
C2332 H2326 0.930 . S
C2332 C2333 1.367 . S
C2332 C2340 1.378 . S
C2333 C2332 1.367 . S
C2333 C2341 1.433 . S
C2334 H2330 0.929 . S
C2334 C2336 1.378 . S
C2334 C2338 1.350 . S
C2335 C2338 1.463 . S
C2335 C2340 1.350 . S
C2335 N2343 1.427 . S
C2336 H2327 0.930 . S
C2336 C2334 1.378 . S
C2336 C2337 1.367 . S
C2337 C2336 1.367 . S
C2337 C2339 1.433 . S
C2338 C2334 1.350 . S
C2338 C2335 1.463 . S
C2338 N2342 1.427 . S
C2339 H2329 0.929 . S
C2339 C2337 1.433 . S
C2339 N2342 1.384 . S
C2340 H2331 0.929 . S
C2340 C2332 1.378 . S
C2340 C2335 1.350 . S
C2341 H2328 0.929 . S
C2341 C2333 1.433 . S
C2341 N2343 1.384 . S
N2342 C2338 1.427 . S
N2342 C2339 1.384 . S
N2343 C2335 1.427 . S
N2343 C2341 1.384 . S
H2344 C2350 0.930 . S
H2345 C2354 0.930 . S
H2346 C2359 0.929 . S
H2347 C2357 0.929 . S
H2348 C2352 0.929 . S
H2349 C2358 0.929 . S
C2350 H2344 0.930 . S
C2350 C2351 1.367 . S
C2350 C2358 1.378 . S
C2351 C2350 1.367 . S
C2351 C2359 1.433 . S
C2352 H2348 0.929 . S
C2352 C2354 1.378 . S
C2352 C2356 1.350 . S
C2353 C2356 1.463 . S
C2353 C2358 1.350 . S
C2353 N2361 1.427 . S
C2354 H2345 0.930 . S
C2354 C2352 1.378 . S
C2354 C2355 1.367 . S
C2355 C2354 1.367 . S
C2355 C2357 1.433 . S
C2356 C2352 1.350 . S
C2356 C2353 1.463 . S
C2356 N2360 1.427 . S
C2357 H2347 0.929 . S
C2357 C2355 1.433 . S
C2357 N2360 1.384 . S
C2358 H2349 0.929 . S
C2358 C2350 1.378 . S
C2358 C2353 1.350 . S
C2359 H2346 0.929 . S
C2359 C2351 1.433 . S
C2359 N2361 1.384 . S
N2360 C2356 1.427 . S
N2360 C2357 1.384 . S
N2361 C2353 1.427 . S
N2361 C2359 1.384 . S
H2362 C2368 0.930 . S
H2363 C2372 0.930 . S
H2364 C2377 0.929 . S
H2365 C2375 0.929 . S
H2366 C2370 0.929 . S
H2367 C2376 0.929 . S
C2368 H2362 0.930 . S
C2368 C2369 1.367 . S
C2368 C2376 1.378 . S
C2369 C2368 1.367 . S
C2369 C2377 1.433 . S
C2370 H2366 0.929 . S
C2370 C2372 1.378 . S
C2370 C2374 1.350 . S
C2371 C2374 1.463 . S
C2371 C2376 1.350 . S
C2371 N2379 1.427 . S
C2372 H2363 0.930 . S
C2372 C2370 1.378 . S
C2372 C2373 1.367 . S
C2373 C2372 1.367 . S
C2373 C2375 1.433 . S
C2374 C2370 1.350 . S
C2374 C2371 1.463 . S
C2374 N2378 1.427 . S
C2375 H2365 0.929 . S
C2375 C2373 1.433 . S
C2375 N2378 1.384 . S
C2376 H2367 0.929 . S
C2376 C2368 1.378 . S
C2376 C2371 1.350 . S
C2377 H2364 0.929 . S
C2377 C2369 1.433 . S
C2377 N2379 1.384 . S
N2378 C2374 1.427 . S
N2378 C2375 1.384 . S
N2379 C2371 1.427 . S
N2379 C2377 1.384 . S
H2380 C2386 0.930 . S
H2381 C2390 0.930 . S
H2382 C2395 0.929 . S
H2383 C2393 0.929 . S
H2384 C2388 0.929 . S
H2385 C2394 0.929 . S
C2386 H2380 0.930 . S
C2386 C2387 1.367 . S
C2386 C2394 1.378 . S
C2387 C2386 1.367 . S
C2387 C2395 1.433 . S
C2388 H2384 0.929 . S
C2388 C2390 1.378 . S
C2388 C2392 1.350 . S
C2389 C2392 1.463 . S
C2389 C2394 1.350 . S
C2389 N2397 1.427 . S
C2390 H2381 0.930 . S
C2390 C2388 1.378 . S
C2390 C2391 1.367 . S
C2391 C2390 1.367 . S
C2391 C2393 1.433 . S
C2392 C2388 1.350 . S
C2392 C2389 1.463 . S
C2392 N2396 1.427 . S
C2393 H2383 0.929 . S
C2393 C2391 1.433 . S
C2393 N2396 1.384 . S
C2394 H2385 0.929 . S
C2394 C2386 1.378 . S
C2394 C2389 1.350 . S
C2395 H2382 0.929 . S
C2395 C2387 1.433 . S
C2395 N2397 1.384 . S
N2396 C2392 1.427 . S
N2396 C2393 1.384 . S
N2397 C2389 1.427 . S
N2397 C2395 1.384 . S
H2398 C2404 0.930 . S
H2399 C2408 0.930 . S
H2400 C2413 0.929 . S
H2401 C2411 0.929 . S
H2402 C2406 0.929 . S
H2403 C2412 0.929 . S
C2404 H2398 0.930 . S
C2404 C2405 1.367 . S
C2404 C2412 1.378 . S
C2405 C2404 1.367 . S
C2405 C2413 1.433 . S
C2406 H2402 0.929 . S
C2406 C2408 1.378 . S
C2406 C2410 1.350 . S
C2407 C2410 1.463 . S
C2407 C2412 1.350 . S
C2407 N2415 1.427 . S
C2408 H2399 0.930 . S
C2408 C2406 1.378 . S
C2408 C2409 1.367 . S
C2409 C2408 1.367 . S
C2409 C2411 1.433 . S
C2410 C2406 1.350 . S
C2410 C2407 1.463 . S
C2410 N2414 1.427 . S
C2411 H2401 0.929 . S
C2411 C2409 1.433 . S
C2411 N2414 1.384 . S
C2412 H2403 0.929 . S
C2412 C2404 1.378 . S
C2412 C2407 1.350 . S
C2413 H2400 0.929 . S
C2413 C2405 1.433 . S
C2413 N2415 1.384 . S
N2414 C2410 1.427 . S
N2414 C2411 1.384 . S
N2415 C2407 1.427 . S
N2415 C2413 1.384 . S
H2416 C2422 0.930 . S
H2417 C2426 0.930 . S
H2418 C2431 0.929 . S
H2419 C2429 0.929 . S
H2420 C2424 0.929 . S
H2421 C2430 0.929 . S
C2422 H2416 0.930 . S
C2422 C2423 1.367 . S
C2422 C2430 1.378 . S
C2423 C2422 1.367 . S
C2423 C2431 1.433 . S
C2424 H2420 0.929 . S
C2424 C2426 1.378 . S
C2424 C2428 1.350 . S
C2425 C2428 1.463 . S
C2425 C2430 1.350 . S
C2425 N2433 1.427 . S
C2426 H2417 0.930 . S
C2426 C2424 1.378 . S
C2426 C2427 1.367 . S
C2427 C2426 1.367 . S
C2427 C2429 1.433 . S
C2428 C2424 1.350 . S
C2428 C2425 1.463 . S
C2428 N2432 1.427 . S
C2429 H2419 0.929 . S
C2429 C2427 1.433 . S
C2429 N2432 1.384 . S
C2430 H2421 0.929 . S
C2430 C2422 1.378 . S
C2430 C2425 1.350 . S
C2431 H2418 0.929 . S
C2431 C2423 1.433 . S
C2431 N2433 1.384 . S
N2432 C2428 1.427 . S
N2432 C2429 1.384 . S
N2433 C2425 1.427 . S
N2433 C2431 1.384 . S
H2434 C2440 0.930 . S
H2435 C2444 0.930 . S
H2436 C2449 0.929 . S
H2437 C2447 0.929 . S
H2438 C2442 0.929 . S
H2439 C2448 0.929 . S
C2440 H2434 0.930 . S
C2440 C2441 1.367 . S
C2440 C2448 1.378 . S
C2441 C2440 1.367 . S
C2441 C2449 1.433 . S
C2442 H2438 0.929 . S
C2442 C2444 1.378 . S
C2442 C2446 1.350 . S
C2443 C2446 1.463 . S
C2443 C2448 1.350 . S
C2443 N2451 1.427 . S
C2444 H2435 0.930 . S
C2444 C2442 1.378 . S
C2444 C2445 1.367 . S
C2445 C2444 1.367 . S
C2445 C2447 1.433 . S
C2446 C2442 1.350 . S
C2446 C2443 1.463 . S
C2446 N2450 1.427 . S
C2447 H2437 0.929 . S
C2447 C2445 1.433 . S
C2447 N2450 1.384 . S
C2448 H2439 0.929 . S
C2448 C2440 1.378 . S
C2448 C2443 1.350 . S
C2449 H2436 0.929 . S
C2449 C2441 1.433 . S
C2449 N2451 1.384 . S
N2450 C2446 1.427 . S
N2450 C2447 1.384 . S
N2451 C2443 1.427 . S
N2451 C2449 1.384 . S
H2452 C2458 0.930 . S
H2453 C2462 0.930 . S
H2454 C2467 0.929 . S
H2455 C2465 0.929 . S
H2456 C2460 0.929 . S
H2457 C2466 0.929 . S
C2458 H2452 0.930 . S
C2458 C2459 1.367 . S
C2458 C2466 1.378 . S
C2459 C2458 1.367 . S
C2459 C2467 1.433 . S
C2460 H2456 0.929 . S
C2460 C2462 1.378 . S
C2460 C2464 1.350 . S
C2461 C2464 1.463 . S
C2461 C2466 1.350 . S
C2461 N2469 1.427 . S
C2462 H2453 0.930 . S
C2462 C2460 1.378 . S
C2462 C2463 1.367 . S
C2463 C2462 1.367 . S
C2463 C2465 1.433 . S
C2464 C2460 1.350 . S
C2464 C2461 1.463 . S
C2464 N2468 1.427 . S
C2465 H2455 0.929 . S
C2465 C2463 1.433 . S
C2465 N2468 1.384 . S
C2466 H2457 0.929 . S
C2466 C2458 1.378 . S
C2466 C2461 1.350 . S
C2467 H2454 0.929 . S
C2467 C2459 1.433 . S
C2467 N2469 1.384 . S
N2468 C2464 1.427 . S
N2468 C2465 1.384 . S
N2469 C2461 1.427 . S
N2469 C2467 1.384 . S
H2470 C2476 0.930 . S
H2471 C2480 0.930 . S
H2472 C2485 0.929 . S
H2473 C2483 0.929 . S
H2474 C2478 0.929 . S
H2475 C2484 0.929 . S
C2476 H2470 0.930 . S
C2476 C2477 1.367 . S
C2476 C2484 1.378 . S
C2477 C2476 1.367 . S
C2477 C2485 1.433 . S
C2478 H2474 0.929 . S
C2478 C2480 1.378 . S
C2478 C2482 1.350 . S
C2479 C2482 1.463 . S
C2479 C2484 1.350 . S
C2479 N2487 1.427 . S
C2480 H2471 0.930 . S
C2480 C2478 1.378 . S
C2480 C2481 1.367 . S
C2481 C2480 1.367 . S
C2481 C2483 1.433 . S
C2482 C2478 1.350 . S
C2482 C2479 1.463 . S
C2482 N2486 1.427 . S
C2483 H2473 0.929 . S
C2483 C2481 1.433 . S
C2483 N2486 1.384 . S
C2484 H2475 0.929 . S
C2484 C2476 1.378 . S
C2484 C2479 1.350 . S
C2485 H2472 0.929 . S
C2485 C2477 1.433 . S
C2485 N2487 1.384 . S
N2486 C2482 1.427 . S
N2486 C2483 1.384 . S
N2487 C2479 1.427 . S
N2487 C2485 1.384 . S
H2488 C2494 0.930 . S
H2489 C2498 0.930 . S
H2490 C2503 0.929 . S
H2491 C2501 0.929 . S
H2492 C2496 0.929 . S
H2493 C2502 0.929 . S
C2494 H2488 0.930 . S
C2494 C2495 1.367 . S
C2494 C2502 1.378 . S
C2495 C2494 1.367 . S
C2495 C2503 1.433 . S
C2496 H2492 0.929 . S
C2496 C2498 1.378 . S
C2496 C2500 1.350 . S
C2497 C2500 1.463 . S
C2497 C2502 1.350 . S
C2497 N2505 1.427 . S
C2498 H2489 0.930 . S
C2498 C2496 1.378 . S
C2498 C2499 1.367 . S
C2499 C2498 1.367 . S
C2499 C2501 1.433 . S
C2500 C2496 1.350 . S
C2500 C2497 1.463 . S
C2500 N2504 1.427 . S
C2501 H2491 0.929 . S
C2501 C2499 1.433 . S
C2501 N2504 1.384 . S
C2502 H2493 0.929 . S
C2502 C2494 1.378 . S
C2502 C2497 1.350 . S
C2503 H2490 0.929 . S
C2503 C2495 1.433 . S
C2503 N2505 1.384 . S
N2504 C2500 1.427 . S
N2504 C2501 1.384 . S
N2505 C2497 1.427 . S
N2505 C2503 1.384 . S
H2506 C2512 0.930 . S
H2507 C2516 0.930 . S
H2508 C2521 0.929 . S
H2509 C2519 0.929 . S
H2510 C2514 0.929 . S
H2511 C2520 0.929 . S
C2512 H2506 0.930 . S
C2512 C2513 1.367 . S
C2512 C2520 1.378 . S
C2513 C2512 1.367 . S
C2513 C2521 1.433 . S
C2514 H2510 0.929 . S
C2514 C2516 1.378 . S
C2514 C2518 1.350 . S
C2515 C2518 1.463 . S
C2515 C2520 1.350 . S
C2515 N2523 1.427 . S
C2516 H2507 0.930 . S
C2516 C2514 1.378 . S
C2516 C2517 1.367 . S
C2517 C2516 1.367 . S
C2517 C2519 1.433 . S
C2518 C2514 1.350 . S
C2518 C2515 1.463 . S
C2518 N2522 1.427 . S
C2519 H2509 0.929 . S
C2519 C2517 1.433 . S
C2519 N2522 1.384 . S
C2520 H2511 0.929 . S
C2520 C2512 1.378 . S
C2520 C2515 1.350 . S
C2521 H2508 0.929 . S
C2521 C2513 1.433 . S
C2521 N2523 1.384 . S
N2522 C2518 1.427 . S
N2522 C2519 1.384 . S
N2523 C2515 1.427 . S
N2523 C2521 1.384 . S
H2524 C2530 0.930 . S
H2525 C2534 0.930 . S
H2526 C2539 0.929 . S
H2527 C2537 0.929 . S
H2528 C2532 0.929 . S
H2529 C2538 0.929 . S
C2530 H2524 0.930 . S
C2530 C2531 1.367 . S
C2530 C2538 1.378 . S
C2531 C2530 1.367 . S
C2531 C2539 1.433 . S
C2532 H2528 0.929 . S
C2532 C2534 1.378 . S
C2532 C2536 1.350 . S
C2533 C2536 1.463 . S
C2533 C2538 1.350 . S
C2533 N2541 1.427 . S
C2534 H2525 0.930 . S
C2534 C2532 1.378 . S
C2534 C2535 1.367 . S
C2535 C2534 1.367 . S
C2535 C2537 1.433 . S
C2536 C2532 1.350 . S
C2536 C2533 1.463 . S
C2536 N2540 1.427 . S
C2537 H2527 0.929 . S
C2537 C2535 1.433 . S
C2537 N2540 1.384 . S
C2538 H2529 0.929 . S
C2538 C2530 1.378 . S
C2538 C2533 1.350 . S
C2539 H2526 0.929 . S
C2539 C2531 1.433 . S
C2539 N2541 1.384 . S
N2540 C2536 1.427 . S
N2540 C2537 1.384 . S
N2541 C2533 1.427 . S
N2541 C2539 1.384 . S
H2542 C2548 0.930 . S
H2543 C2552 0.930 . S
H2544 C2557 0.929 . S
H2545 C2555 0.929 . S
H2546 C2550 0.929 . S
H2547 C2556 0.929 . S
C2548 H2542 0.930 . S
C2548 C2549 1.367 . S
C2548 C2556 1.378 . S
C2549 C2548 1.367 . S
C2549 C2557 1.433 . S
C2550 H2546 0.929 . S
C2550 C2552 1.378 . S
C2550 C2554 1.350 . S
C2551 C2554 1.463 . S
C2551 C2556 1.350 . S
C2551 N2559 1.427 . S
C2552 H2543 0.930 . S
C2552 C2550 1.378 . S
C2552 C2553 1.367 . S
C2553 C2552 1.367 . S
C2553 C2555 1.433 . S
C2554 C2550 1.350 . S
C2554 C2551 1.463 . S
C2554 N2558 1.427 . S
C2555 H2545 0.929 . S
C2555 C2553 1.433 . S
C2555 N2558 1.384 . S
C2556 H2547 0.929 . S
C2556 C2548 1.378 . S
C2556 C2551 1.350 . S
C2557 H2544 0.929 . S
C2557 C2549 1.433 . S
C2557 N2559 1.384 . S
N2558 C2554 1.427 . S
N2558 C2555 1.384 . S
N2559 C2551 1.427 . S
N2559 C2557 1.384 . S
H2560 C2566 0.930 . S
H2561 C2570 0.930 . S
H2562 C2575 0.929 . S
H2563 C2573 0.929 . S
H2564 C2568 0.929 . S
H2565 C2574 0.929 . S
C2566 H2560 0.930 . S
C2566 C2567 1.367 . S
C2566 C2574 1.378 . S
C2567 C2566 1.367 . S
C2567 C2575 1.433 . S
C2568 H2564 0.929 . S
C2568 C2570 1.378 . S
C2568 C2572 1.350 . S
C2569 C2572 1.463 . S
C2569 C2574 1.350 . S
C2569 N2577 1.427 . S
C2570 H2561 0.930 . S
C2570 C2568 1.378 . S
C2570 C2571 1.367 . S
C2571 C2570 1.367 . S
C2571 C2573 1.433 . S
C2572 C2568 1.350 . S
C2572 C2569 1.463 . S
C2572 N2576 1.427 . S
C2573 H2563 0.929 . S
C2573 C2571 1.433 . S
C2573 N2576 1.384 . S
C2574 H2565 0.929 . S
C2574 C2566 1.378 . S
C2574 C2569 1.350 . S
C2575 H2562 0.929 . S
C2575 C2567 1.433 . S
C2575 N2577 1.384 . S
N2576 C2572 1.427 . S
N2576 C2573 1.384 . S
N2577 C2569 1.427 . S
N2577 C2575 1.384 . S
H2578 C2584 0.930 . S
H2579 C2588 0.930 . S
H2580 C2593 0.929 . S
H2581 C2591 0.929 . S
H2582 C2586 0.929 . S
H2583 C2592 0.929 . S
C2584 H2578 0.930 . S
C2584 C2585 1.367 . S
C2584 C2592 1.378 . S
C2585 C2584 1.367 . S
C2585 C2593 1.433 . S
C2586 H2582 0.929 . S
C2586 C2588 1.378 . S
C2586 C2590 1.350 . S
C2587 C2590 1.463 . S
C2587 C2592 1.350 . S
C2587 N2595 1.427 . S
C2588 H2579 0.930 . S
C2588 C2586 1.378 . S
C2588 C2589 1.367 . S
C2589 C2588 1.367 . S
C2589 C2591 1.433 . S
C2590 C2586 1.350 . S
C2590 C2587 1.463 . S
C2590 N2594 1.427 . S
C2591 H2581 0.929 . S
C2591 C2589 1.433 . S
C2591 N2594 1.384 . S
C2592 H2583 0.929 . S
C2592 C2584 1.378 . S
C2592 C2587 1.350 . S
C2593 H2580 0.929 . S
C2593 C2585 1.433 . S
C2593 N2595 1.384 . S
N2594 C2590 1.427 . S
N2594 C2591 1.384 . S
N2595 C2587 1.427 . S
N2595 C2593 1.384 . S
H2596 C2602 0.930 . S
H2597 C2606 0.930 . S
H2598 C2611 0.929 . S
H2599 C2609 0.929 . S
H2600 C2604 0.929 . S
H2601 C2610 0.929 . S
C2602 H2596 0.930 . S
C2602 C2603 1.367 . S
C2602 C2610 1.378 . S
C2603 C2602 1.367 . S
C2603 C2611 1.433 . S
C2604 H2600 0.929 . S
C2604 C2606 1.378 . S
C2604 C2608 1.350 . S
C2605 C2608 1.463 . S
C2605 C2610 1.350 . S
C2605 N2613 1.427 . S
C2606 H2597 0.930 . S
C2606 C2604 1.378 . S
C2606 C2607 1.367 . S
C2607 C2606 1.367 . S
C2607 C2609 1.433 . S
C2608 C2604 1.350 . S
C2608 C2605 1.463 . S
C2608 N2612 1.427 . S
C2609 H2599 0.929 . S
C2609 C2607 1.433 . S
C2609 N2612 1.384 . S
C2610 H2601 0.929 . S
C2610 C2602 1.378 . S
C2610 C2605 1.350 . S
C2611 H2598 0.929 . S
C2611 C2603 1.433 . S
C2611 N2613 1.384 . S
N2612 C2608 1.427 . S
N2612 C2609 1.384 . S
N2613 C2605 1.427 . S
N2613 C2611 1.384 . S
H2614 C2620 0.930 . S
H2615 C2624 0.930 . S
H2616 C2629 0.929 . S
H2617 C2627 0.929 . S
H2618 C2622 0.929 . S
H2619 C2628 0.929 . S
C2620 H2614 0.930 . S
C2620 C2621 1.367 . S
C2620 C2628 1.378 . S
C2621 C2620 1.367 . S
C2621 C2629 1.433 . S
C2622 H2618 0.929 . S
C2622 C2624 1.378 . S
C2622 C2626 1.350 . S
C2623 C2626 1.463 . S
C2623 C2628 1.350 . S
C2623 N2631 1.427 . S
C2624 H2615 0.930 . S
C2624 C2622 1.378 . S
C2624 C2625 1.367 . S
C2625 C2624 1.367 . S
C2625 C2627 1.433 . S
C2626 C2622 1.350 . S
C2626 C2623 1.463 . S
C2626 N2630 1.427 . S
C2627 H2617 0.929 . S
C2627 C2625 1.433 . S
C2627 N2630 1.384 . S
C2628 H2619 0.929 . S
C2628 C2620 1.378 . S
C2628 C2623 1.350 . S
C2629 H2616 0.929 . S
C2629 C2621 1.433 . S
C2629 N2631 1.384 . S
N2630 C2626 1.427 . S
N2630 C2627 1.384 . S
N2631 C2623 1.427 . S
N2631 C2629 1.384 . S
H2632 C2638 0.930 . S
H2633 C2642 0.930 . S
H2634 C2647 0.929 . S
H2635 C2645 0.929 . S
H2636 C2640 0.929 . S
H2637 C2646 0.929 . S
C2638 H2632 0.930 . S
C2638 C2639 1.367 . S
C2638 C2646 1.378 . S
C2639 C2638 1.367 . S
C2639 C2647 1.433 . S
C2640 H2636 0.929 . S
C2640 C2642 1.378 . S
C2640 C2644 1.350 . S
C2641 C2644 1.463 . S
C2641 C2646 1.350 . S
C2641 N2649 1.427 . S
C2642 H2633 0.930 . S
C2642 C2640 1.378 . S
C2642 C2643 1.367 . S
C2643 C2642 1.367 . S
C2643 C2645 1.433 . S
C2644 C2640 1.350 . S
C2644 C2641 1.463 . S
C2644 N2648 1.427 . S
C2645 H2635 0.929 . S
C2645 C2643 1.433 . S
C2645 N2648 1.384 . S
C2646 H2637 0.929 . S
C2646 C2638 1.378 . S
C2646 C2641 1.350 . S
C2647 H2634 0.929 . S
C2647 C2639 1.433 . S
C2647 N2649 1.384 . S
N2648 C2644 1.427 . S
N2648 C2645 1.384 . S
N2649 C2641 1.427 . S
N2649 C2647 1.384 . S
H2650 C2656 0.930 . S
H2651 C2660 0.930 . S
H2652 C2665 0.929 . S
H2653 C2663 0.929 . S
H2654 C2658 0.929 . S
H2655 C2664 0.929 . S
C2656 H2650 0.930 . S
C2656 C2657 1.367 . S
C2656 C2664 1.378 . S
C2657 C2656 1.367 . S
C2657 C2665 1.433 . S
C2658 H2654 0.929 . S
C2658 C2660 1.378 . S
C2658 C2662 1.350 . S
C2659 C2662 1.463 . S
C2659 C2664 1.350 . S
C2659 N2667 1.427 . S
C2660 H2651 0.930 . S
C2660 C2658 1.378 . S
C2660 C2661 1.367 . S
C2661 C2660 1.367 . S
C2661 C2663 1.433 . S
C2662 C2658 1.350 . S
C2662 C2659 1.463 . S
C2662 N2666 1.427 . S
C2663 H2653 0.929 . S
C2663 C2661 1.433 . S
C2663 N2666 1.384 . S
C2664 H2655 0.929 . S
C2664 C2656 1.378 . S
C2664 C2659 1.350 . S
C2665 H2652 0.929 . S
C2665 C2657 1.433 . S
C2665 N2667 1.384 . S
N2666 C2662 1.427 . S
N2666 C2663 1.384 . S
N2667 C2659 1.427 . S
N2667 C2665 1.384 . S
H2668 C2674 0.930 . S
H2669 C2678 0.930 . S
H2670 C2683 0.929 . S
H2671 C2681 0.929 . S
H2672 C2676 0.929 . S
H2673 C2682 0.929 . S
C2674 H2668 0.930 . S
C2674 C2675 1.367 . S
C2674 C2682 1.378 . S
C2675 C2674 1.367 . S
C2675 C2683 1.433 . S
C2676 H2672 0.929 . S
C2676 C2678 1.378 . S
C2676 C2680 1.350 . S
C2677 C2680 1.463 . S
C2677 C2682 1.350 . S
C2677 N2685 1.427 . S
C2678 H2669 0.930 . S
C2678 C2676 1.378 . S
C2678 C2679 1.367 . S
C2679 C2678 1.367 . S
C2679 C2681 1.433 . S
C2680 C2676 1.350 . S
C2680 C2677 1.463 . S
C2680 N2684 1.427 . S
C2681 H2671 0.929 . S
C2681 C2679 1.433 . S
C2681 N2684 1.384 . S
C2682 H2673 0.929 . S
C2682 C2674 1.378 . S
C2682 C2677 1.350 . S
C2683 H2670 0.929 . S
C2683 C2675 1.433 . S
C2683 N2685 1.384 . S
N2684 C2680 1.427 . S
N2684 C2681 1.384 . S
N2685 C2677 1.427 . S
N2685 C2683 1.384 . S
H2686 C2692 0.930 . S
H2687 C2696 0.930 . S
H2688 C2701 0.929 . S
H2689 C2699 0.929 . S
H2690 C2694 0.929 . S
H2691 C2700 0.929 . S
C2692 H2686 0.930 . S
C2692 C2693 1.367 . S
C2692 C2700 1.378 . S
C2693 C2692 1.367 . S
C2693 C2701 1.433 . S
C2694 H2690 0.929 . S
C2694 C2696 1.378 . S
C2694 C2698 1.350 . S
C2695 C2698 1.463 . S
C2695 C2700 1.350 . S
C2695 N2703 1.427 . S
C2696 H2687 0.930 . S
C2696 C2694 1.378 . S
C2696 C2697 1.367 . S
C2697 C2696 1.367 . S
C2697 C2699 1.433 . S
C2698 C2694 1.350 . S
C2698 C2695 1.463 . S
C2698 N2702 1.427 . S
C2699 H2689 0.929 . S
C2699 C2697 1.433 . S
C2699 N2702 1.384 . S
C2700 H2691 0.929 . S
C2700 C2692 1.378 . S
C2700 C2695 1.350 . S
C2701 H2688 0.929 . S
C2701 C2693 1.433 . S
C2701 N2703 1.384 . S
N2702 C2698 1.427 . S
N2702 C2699 1.384 . S
N2703 C2695 1.427 . S
N2703 C2701 1.384 . S
H2704 C2710 0.930 . S
H2705 C2714 0.930 . S
H2706 C2719 0.929 . S
H2707 C2717 0.929 . S
H2708 C2712 0.929 . S
H2709 C2718 0.929 . S
C2710 H2704 0.930 . S
C2710 C2711 1.367 . S
C2710 C2718 1.378 . S
C2711 C2710 1.367 . S
C2711 C2719 1.433 . S
C2712 H2708 0.929 . S
C2712 C2714 1.378 . S
C2712 C2716 1.350 . S
C2713 C2716 1.463 . S
C2713 C2718 1.350 . S
C2713 N2721 1.427 . S
C2714 H2705 0.930 . S
C2714 C2712 1.378 . S
C2714 C2715 1.367 . S
C2715 C2714 1.367 . S
C2715 C2717 1.433 . S
C2716 C2712 1.350 . S
C2716 C2713 1.463 . S
C2716 N2720 1.427 . S
C2717 H2707 0.929 . S
C2717 C2715 1.433 . S
C2717 N2720 1.384 . S
C2718 H2709 0.929 . S
C2718 C2710 1.378 . S
C2718 C2713 1.350 . S
C2719 H2706 0.929 . S
C2719 C2711 1.433 . S
C2719 N2721 1.384 . S
N2720 C2716 1.427 . S
N2720 C2717 1.384 . S
N2721 C2713 1.427 . S
N2721 C2719 1.384 . S
H2722 C2728 0.930 . S
H2723 C2732 0.930 . S
H2724 C2737 0.929 . S
H2725 C2735 0.929 . S
H2726 C2730 0.929 . S
H2727 C2736 0.929 . S
C2728 H2722 0.930 . S
C2728 C2729 1.367 . S
C2728 C2736 1.378 . S
C2729 C2728 1.367 . S
C2729 C2737 1.433 . S
C2730 H2726 0.929 . S
C2730 C2732 1.378 . S
C2730 C2734 1.350 . S
C2731 C2734 1.463 . S
C2731 C2736 1.350 . S
C2731 N2739 1.427 . S
C2732 H2723 0.930 . S
C2732 C2730 1.378 . S
C2732 C2733 1.367 . S
C2733 C2732 1.367 . S
C2733 C2735 1.433 . S
C2734 C2730 1.350 . S
C2734 C2731 1.463 . S
C2734 N2738 1.427 . S
C2735 H2725 0.929 . S
C2735 C2733 1.433 . S
C2735 N2738 1.384 . S
C2736 H2727 0.929 . S
C2736 C2728 1.378 . S
C2736 C2731 1.350 . S
C2737 H2724 0.929 . S
C2737 C2729 1.433 . S
C2737 N2739 1.384 . S
N2738 C2734 1.427 . S
N2738 C2735 1.384 . S
N2739 C2731 1.427 . S
N2739 C2737 1.384 . S
H2740 C2746 0.930 . S
H2741 C2750 0.930 . S
H2742 C2755 0.929 . S
H2743 C2753 0.929 . S
H2744 C2748 0.929 . S
H2745 C2754 0.929 . S
C2746 H2740 0.930 . S
C2746 C2747 1.367 . S
C2746 C2754 1.378 . S
C2747 C2746 1.367 . S
C2747 C2755 1.433 . S
C2748 H2744 0.929 . S
C2748 C2750 1.378 . S
C2748 C2752 1.350 . S
C2749 C2752 1.463 . S
C2749 C2754 1.350 . S
C2749 N2757 1.427 . S
C2750 H2741 0.930 . S
C2750 C2748 1.378 . S
C2750 C2751 1.367 . S
C2751 C2750 1.367 . S
C2751 C2753 1.433 . S
C2752 C2748 1.350 . S
C2752 C2749 1.463 . S
C2752 N2756 1.427 . S
C2753 H2743 0.929 . S
C2753 C2751 1.433 . S
C2753 N2756 1.384 . S
C2754 H2745 0.929 . S
C2754 C2746 1.378 . S
C2754 C2749 1.350 . S
C2755 H2742 0.929 . S
C2755 C2747 1.433 . S
C2755 N2757 1.384 . S
N2756 C2752 1.427 . S
N2756 C2753 1.384 . S
N2757 C2749 1.427 . S
N2757 C2755 1.384 . S
H2758 C2764 0.930 . S
H2759 C2768 0.930 . S
H2760 C2773 0.929 . S
H2761 C2771 0.929 . S
H2762 C2766 0.929 . S
H2763 C2772 0.929 . S
C2764 H2758 0.930 . S
C2764 C2765 1.367 . S
C2764 C2772 1.378 . S
C2765 C2764 1.367 . S
C2765 C2773 1.433 . S
C2766 H2762 0.929 . S
C2766 C2768 1.378 . S
C2766 C2770 1.350 . S
C2767 C2770 1.463 . S
C2767 C2772 1.350 . S
C2767 N2775 1.427 . S
C2768 H2759 0.930 . S
C2768 C2766 1.378 . S
C2768 C2769 1.367 . S
C2769 C2768 1.367 . S
C2769 C2771 1.433 . S
C2770 C2766 1.350 . S
C2770 C2767 1.463 . S
C2770 N2774 1.427 . S
C2771 H2761 0.929 . S
C2771 C2769 1.433 . S
C2771 N2774 1.384 . S
C2772 H2763 0.929 . S
C2772 C2764 1.378 . S
C2772 C2767 1.350 . S
C2773 H2760 0.929 . S
C2773 C2765 1.433 . S
C2773 N2775 1.384 . S
N2774 C2770 1.427 . S
N2774 C2771 1.384 . S
N2775 C2767 1.427 . S
N2775 C2773 1.384 . S
H2776 C2782 0.930 . S
H2777 C2786 0.930 . S
H2778 C2791 0.929 . S
H2779 C2789 0.929 . S
H2780 C2784 0.929 . S
H2781 C2790 0.929 . S
C2782 H2776 0.930 . S
C2782 C2783 1.367 . S
C2782 C2790 1.378 . S
C2783 C2782 1.367 . S
C2783 C2791 1.433 . S
C2784 H2780 0.929 . S
C2784 C2786 1.378 . S
C2784 C2788 1.350 . S
C2785 C2788 1.463 . S
C2785 C2790 1.350 . S
C2785 N2793 1.427 . S
C2786 H2777 0.930 . S
C2786 C2784 1.378 . S
C2786 C2787 1.367 . S
C2787 C2786 1.367 . S
C2787 C2789 1.433 . S
C2788 C2784 1.350 . S
C2788 C2785 1.463 . S
C2788 N2792 1.427 . S
C2789 H2779 0.929 . S
C2789 C2787 1.433 . S
C2789 N2792 1.384 . S
C2790 H2781 0.929 . S
C2790 C2782 1.378 . S
C2790 C2785 1.350 . S
C2791 H2778 0.929 . S
C2791 C2783 1.433 . S
C2791 N2793 1.384 . S
N2792 C2788 1.427 . S
N2792 C2789 1.384 . S
N2793 C2785 1.427 . S
N2793 C2791 1.384 . S
H2794 C2800 0.930 . S
H2795 C2804 0.930 . S
H2796 C2809 0.929 . S
H2797 C2807 0.929 . S
H2798 C2802 0.929 . S
H2799 C2808 0.929 . S
C2800 H2794 0.930 . S
C2800 C2801 1.367 . S
C2800 C2808 1.378 . S
C2801 C2800 1.367 . S
C2801 C2809 1.433 . S
C2802 H2798 0.929 . S
C2802 C2804 1.378 . S
C2802 C2806 1.350 . S
C2803 C2806 1.463 . S
C2803 C2808 1.350 . S
C2803 N2811 1.427 . S
C2804 H2795 0.930 . S
C2804 C2802 1.378 . S
C2804 C2805 1.367 . S
C2805 C2804 1.367 . S
C2805 C2807 1.433 . S
C2806 C2802 1.350 . S
C2806 C2803 1.463 . S
C2806 N2810 1.427 . S
C2807 H2797 0.929 . S
C2807 C2805 1.433 . S
C2807 N2810 1.384 . S
C2808 H2799 0.929 . S
C2808 C2800 1.378 . S
C2808 C2803 1.350 . S
C2809 H2796 0.929 . S
C2809 C2801 1.433 . S
C2809 N2811 1.384 . S
N2810 C2806 1.427 . S
N2810 C2807 1.384 . S
N2811 C2803 1.427 . S
N2811 C2809 1.384 . S
H2812 C2818 0.930 . S
H2813 C2822 0.930 . S
H2814 C2827 0.929 . S
H2815 C2825 0.929 . S
H2816 C2820 0.929 . S
H2817 C2826 0.929 . S
C2818 H2812 0.930 . S
C2818 C2819 1.367 . S
C2818 C2826 1.378 . S
C2819 C2818 1.367 . S
C2819 C2827 1.433 . S
C2820 H2816 0.929 . S
C2820 C2822 1.378 . S
C2820 C2824 1.350 . S
C2821 C2824 1.463 . S
C2821 C2826 1.350 . S
C2821 N2829 1.427 . S
C2822 H2813 0.930 . S
C2822 C2820 1.378 . S
C2822 C2823 1.367 . S
C2823 C2822 1.367 . S
C2823 C2825 1.433 . S
C2824 C2820 1.350 . S
C2824 C2821 1.463 . S
C2824 N2828 1.427 . S
C2825 H2815 0.929 . S
C2825 C2823 1.433 . S
C2825 N2828 1.384 . S
C2826 H2817 0.929 . S
C2826 C2818 1.378 . S
C2826 C2821 1.350 . S
C2827 H2814 0.929 . S
C2827 C2819 1.433 . S
C2827 N2829 1.384 . S
N2828 C2824 1.427 . S
N2828 C2825 1.384 . S
N2829 C2821 1.427 . S
N2829 C2827 1.384 . S
H2830 C2836 0.930 . S
H2831 C2840 0.930 . S
H2832 C2845 0.929 . S
H2833 C2843 0.929 . S
H2834 C2838 0.929 . S
H2835 C2844 0.929 . S
C2836 H2830 0.930 . S
C2836 C2837 1.367 . S
C2836 C2844 1.378 . S
C2837 C2836 1.367 . S
C2837 C2845 1.433 . S
C2838 H2834 0.929 . S
C2838 C2840 1.378 . S
C2838 C2842 1.350 . S
C2839 C2842 1.463 . S
C2839 C2844 1.350 . S
C2839 N2847 1.427 . S
C2840 H2831 0.930 . S
C2840 C2838 1.378 . S
C2840 C2841 1.367 . S
C2841 C2840 1.367 . S
C2841 C2843 1.433 . S
C2842 C2838 1.350 . S
C2842 C2839 1.463 . S
C2842 N2846 1.427 . S
C2843 H2833 0.929 . S
C2843 C2841 1.433 . S
C2843 N2846 1.384 . S
C2844 H2835 0.929 . S
C2844 C2836 1.378 . S
C2844 C2839 1.350 . S
C2845 H2832 0.929 . S
C2845 C2837 1.433 . S
C2845 N2847 1.384 . S
N2846 C2842 1.427 . S
N2846 C2843 1.384 . S
N2847 C2839 1.427 . S
N2847 C2845 1.384 . S
H2848 C2854 0.930 . S
H2849 C2858 0.930 . S
H2850 C2863 0.929 . S
H2851 C2861 0.929 . S
H2852 C2856 0.929 . S
H2853 C2862 0.929 . S
C2854 H2848 0.930 . S
C2854 C2855 1.367 . S
C2854 C2862 1.378 . S
C2855 C2854 1.367 . S
C2855 C2863 1.433 . S
C2856 H2852 0.929 . S
C2856 C2858 1.378 . S
C2856 C2860 1.350 . S
C2857 C2860 1.463 . S
C2857 C2862 1.350 . S
C2857 N2865 1.427 . S
C2858 H2849 0.930 . S
C2858 C2856 1.378 . S
C2858 C2859 1.367 . S
C2859 C2858 1.367 . S
C2859 C2861 1.433 . S
C2860 C2856 1.350 . S
C2860 C2857 1.463 . S
C2860 N2864 1.427 . S
C2861 H2851 0.929 . S
C2861 C2859 1.433 . S
C2861 N2864 1.384 . S
C2862 H2853 0.929 . S
C2862 C2854 1.378 . S
C2862 C2857 1.350 . S
C2863 H2850 0.929 . S
C2863 C2855 1.433 . S
C2863 N2865 1.384 . S
N2864 C2860 1.427 . S
N2864 C2861 1.384 . S
N2865 C2857 1.427 . S
N2865 C2863 1.384 . S
H2866 C2872 0.930 . S
H2867 C2876 0.930 . S
H2868 C2881 0.929 . S
H2869 C2879 0.929 . S
H2870 C2874 0.929 . S
H2871 C2880 0.929 . S
C2872 H2866 0.930 . S
C2872 C2873 1.367 . S
C2872 C2880 1.378 . S
C2873 C2872 1.367 . S
C2873 C2881 1.433 . S
C2874 H2870 0.929 . S
C2874 C2876 1.378 . S
C2874 C2878 1.350 . S
C2875 C2878 1.463 . S
C2875 C2880 1.350 . S
C2875 N2883 1.427 . S
C2876 H2867 0.930 . S
C2876 C2874 1.378 . S
C2876 C2877 1.367 . S
C2877 C2876 1.367 . S
C2877 C2879 1.433 . S
C2878 C2874 1.350 . S
C2878 C2875 1.463 . S
C2878 N2882 1.427 . S
C2879 H2869 0.929 . S
C2879 C2877 1.433 . S
C2879 N2882 1.384 . S
C2880 H2871 0.929 . S
C2880 C2872 1.378 . S
C2880 C2875 1.350 . S
C2881 H2868 0.929 . S
C2881 C2873 1.433 . S
C2881 N2883 1.384 . S
N2882 C2878 1.427 . S
N2882 C2879 1.384 . S
N2883 C2875 1.427 . S
N2883 C2881 1.384 . S
H2884 C2890 0.930 . S
H2885 C2894 0.930 . S
H2886 C2899 0.929 . S
H2887 C2897 0.929 . S
H2888 C2892 0.929 . S
H2889 C2898 0.929 . S
C2890 H2884 0.930 . S
C2890 C2891 1.367 . S
C2890 C2898 1.378 . S
C2891 C2890 1.367 . S
C2891 C2899 1.433 . S
C2892 H2888 0.929 . S
C2892 C2894 1.378 . S
C2892 C2896 1.350 . S
C2893 C2896 1.463 . S
C2893 C2898 1.350 . S
C2893 N2901 1.427 . S
C2894 H2885 0.930 . S
C2894 C2892 1.378 . S
C2894 C2895 1.367 . S
C2895 C2894 1.367 . S
C2895 C2897 1.433 . S
C2896 C2892 1.350 . S
C2896 C2893 1.463 . S
C2896 N2900 1.427 . S
C2897 H2887 0.929 . S
C2897 C2895 1.433 . S
C2897 N2900 1.384 . S
C2898 H2889 0.929 . S
C2898 C2890 1.378 . S
C2898 C2893 1.350 . S
C2899 H2886 0.929 . S
C2899 C2891 1.433 . S
C2899 N2901 1.384 . S
N2900 C2896 1.427 . S
N2900 C2897 1.384 . S
N2901 C2893 1.427 . S
N2901 C2899 1.384 . S
H2902 C2908 0.930 . S
H2903 C2912 0.930 . S
H2904 C2917 0.929 . S
H2905 C2915 0.929 . S
H2906 C2910 0.929 . S
H2907 C2916 0.929 . S
C2908 H2902 0.930 . S
C2908 C2909 1.367 . S
C2908 C2916 1.378 . S
C2909 C2908 1.367 . S
C2909 C2917 1.433 . S
C2910 H2906 0.929 . S
C2910 C2912 1.378 . S
C2910 C2914 1.350 . S
C2911 C2914 1.463 . S
C2911 C2916 1.350 . S
C2911 N2919 1.427 . S
C2912 H2903 0.930 . S
C2912 C2910 1.378 . S
C2912 C2913 1.367 . S
C2913 C2912 1.367 . S
C2913 C2915 1.433 . S
C2914 C2910 1.350 . S
C2914 C2911 1.463 . S
C2914 N2918 1.427 . S
C2915 H2905 0.929 . S
C2915 C2913 1.433 . S
C2915 N2918 1.384 . S
C2916 H2907 0.929 . S
C2916 C2908 1.378 . S
C2916 C2911 1.350 . S
C2917 H2904 0.929 . S
C2917 C2909 1.433 . S
C2917 N2919 1.384 . S
N2918 C2914 1.427 . S
N2918 C2915 1.384 . S
N2919 C2911 1.427 . S
N2919 C2917 1.384 . S
H2920 C2926 0.930 . S
H2921 C2930 0.930 . S
H2922 C2935 0.929 . S
H2923 C2933 0.929 . S
H2924 C2928 0.929 . S
H2925 C2934 0.929 . S
C2926 H2920 0.930 . S
C2926 C2927 1.367 . S
C2926 C2934 1.378 . S
C2927 C2926 1.367 . S
C2927 C2935 1.433 . S
C2928 H2924 0.929 . S
C2928 C2930 1.378 . S
C2928 C2932 1.350 . S
C2929 C2932 1.463 . S
C2929 C2934 1.350 . S
C2929 N2937 1.427 . S
C2930 H2921 0.930 . S
C2930 C2928 1.378 . S
C2930 C2931 1.367 . S
C2931 C2930 1.367 . S
C2931 C2933 1.433 . S
C2932 C2928 1.350 . S
C2932 C2929 1.463 . S
C2932 N2936 1.427 . S
C2933 H2923 0.929 . S
C2933 C2931 1.433 . S
C2933 N2936 1.384 . S
C2934 H2925 0.929 . S
C2934 C2926 1.378 . S
C2934 C2929 1.350 . S
C2935 H2922 0.929 . S
C2935 C2927 1.433 . S
C2935 N2937 1.384 . S
N2936 C2932 1.427 . S
N2936 C2933 1.384 . S
N2937 C2929 1.427 . S
N2937 C2935 1.384 . S
H2938 C2944 0.930 . S
H2939 C2948 0.930 . S
H2940 C2953 0.929 . S
H2941 C2951 0.929 . S
H2942 C2946 0.929 . S
H2943 C2952 0.929 . S
C2944 H2938 0.930 . S
C2944 C2945 1.367 . S
C2944 C2952 1.378 . S
C2945 C2944 1.367 . S
C2945 C2953 1.433 . S
C2946 H2942 0.929 . S
C2946 C2948 1.378 . S
C2946 C2950 1.350 . S
C2947 C2950 1.463 . S
C2947 C2952 1.350 . S
C2947 N2955 1.427 . S
C2948 H2939 0.930 . S
C2948 C2946 1.378 . S
C2948 C2949 1.367 . S
C2949 C2948 1.367 . S
C2949 C2951 1.433 . S
C2950 C2946 1.350 . S
C2950 C2947 1.463 . S
C2950 N2954 1.427 . S
C2951 H2941 0.929 . S
C2951 C2949 1.433 . S
C2951 N2954 1.384 . S
C2952 H2943 0.929 . S
C2952 C2944 1.378 . S
C2952 C2947 1.350 . S
C2953 H2940 0.929 . S
C2953 C2945 1.433 . S
C2953 N2955 1.384 . S
N2954 C2950 1.427 . S
N2954 C2951 1.384 . S
N2955 C2947 1.427 . S
N2955 C2953 1.384 . S
H2956 C2962 0.930 . S
H2957 C2966 0.930 . S
H2958 C2971 0.929 . S
H2959 C2969 0.929 . S
H2960 C2964 0.929 . S
H2961 C2970 0.929 . S
C2962 H2956 0.930 . S
C2962 C2963 1.367 . S
C2962 C2970 1.378 . S
C2963 C2962 1.367 . S
C2963 C2971 1.433 . S
C2964 H2960 0.929 . S
C2964 C2966 1.378 . S
C2964 C2968 1.350 . S
C2965 C2968 1.463 . S
C2965 C2970 1.350 . S
C2965 N2973 1.427 . S
C2966 H2957 0.930 . S
C2966 C2964 1.378 . S
C2966 C2967 1.367 . S
C2967 C2966 1.367 . S
C2967 C2969 1.433 . S
C2968 C2964 1.350 . S
C2968 C2965 1.463 . S
C2968 N2972 1.427 . S
C2969 H2959 0.929 . S
C2969 C2967 1.433 . S
C2969 N2972 1.384 . S
C2970 H2961 0.929 . S
C2970 C2962 1.378 . S
C2970 C2965 1.350 . S
C2971 H2958 0.929 . S
C2971 C2963 1.433 . S
C2971 N2973 1.384 . S
N2972 C2968 1.427 . S
N2972 C2969 1.384 . S
N2973 C2965 1.427 . S
N2973 C2971 1.384 . S
H2974 C2980 0.930 . S
H2975 C2984 0.930 . S
H2976 C2989 0.929 . S
H2977 C2987 0.929 . S
H2978 C2982 0.929 . S
H2979 C2988 0.929 . S
C2980 H2974 0.930 . S
C2980 C2981 1.367 . S
C2980 C2988 1.378 . S
C2981 C2980 1.367 . S
C2981 C2989 1.433 . S
C2982 H2978 0.929 . S
C2982 C2984 1.378 . S
C2982 C2986 1.350 . S
C2983 C2986 1.463 . S
C2983 C2988 1.350 . S
C2983 N2991 1.427 . S
C2984 H2975 0.930 . S
C2984 C2982 1.378 . S
C2984 C2985 1.367 . S
C2985 C2984 1.367 . S
C2985 C2987 1.433 . S
C2986 C2982 1.350 . S
C2986 C2983 1.463 . S
C2986 N2990 1.427 . S
C2987 H2977 0.929 . S
C2987 C2985 1.433 . S
C2987 N2990 1.384 . S
C2988 H2979 0.929 . S
C2988 C2980 1.378 . S
C2988 C2983 1.350 . S
C2989 H2976 0.929 . S
C2989 C2981 1.433 . S
C2989 N2991 1.384 . S
N2990 C2986 1.427 . S
N2990 C2987 1.384 . S
N2991 C2983 1.427 . S
N2991 C2989 1.384 . S
H2992 C2998 0.930 . S
H2993 C3002 0.930 . S
H2994 C3007 0.929 . S
H2995 C3005 0.929 . S
H2996 C3000 0.929 . S
H2997 C3006 0.929 . S
C2998 H2992 0.930 . S
C2998 C2999 1.367 . S
C2998 C3006 1.378 . S
C2999 C2998 1.367 . S
C2999 C3007 1.433 . S
C3000 H2996 0.929 . S
C3000 C3002 1.378 . S
C3000 C3004 1.350 . S
C3001 C3004 1.463 . S
C3001 C3006 1.350 . S
C3001 N3009 1.427 . S
C3002 H2993 0.930 . S
C3002 C3000 1.378 . S
C3002 C3003 1.367 . S
C3003 C3002 1.367 . S
C3003 C3005 1.433 . S
C3004 C3000 1.350 . S
C3004 C3001 1.463 . S
C3004 N3008 1.427 . S
C3005 H2995 0.929 . S
C3005 C3003 1.433 . S
C3005 N3008 1.384 . S
C3006 H2997 0.929 . S
C3006 C2998 1.378 . S
C3006 C3001 1.350 . S
C3007 H2994 0.929 . S
C3007 C2999 1.433 . S
C3007 N3009 1.384 . S
N3008 C3004 1.427 . S
N3008 C3005 1.384 . S
N3009 C3001 1.427 . S
N3009 C3007 1.384 . S
H3010 C3016 0.930 . S
H3011 C3020 0.930 . S
H3012 C3025 0.929 . S
H3013 C3023 0.929 . S
H3014 C3018 0.929 . S
H3015 C3024 0.929 . S
C3016 H3010 0.930 . S
C3016 C3017 1.367 . S
C3016 C3024 1.378 . S
C3017 C3016 1.367 . S
C3017 C3025 1.433 . S
C3018 H3014 0.929 . S
C3018 C3020 1.378 . S
C3018 C3022 1.350 . S
C3019 C3022 1.463 . S
C3019 C3024 1.350 . S
C3019 N3027 1.427 . S
C3020 H3011 0.930 . S
C3020 C3018 1.378 . S
C3020 C3021 1.367 . S
C3021 C3020 1.367 . S
C3021 C3023 1.433 . S
C3022 C3018 1.350 . S
C3022 C3019 1.463 . S
C3022 N3026 1.427 . S
C3023 H3013 0.929 . S
C3023 C3021 1.433 . S
C3023 N3026 1.384 . S
C3024 H3015 0.929 . S
C3024 C3016 1.378 . S
C3024 C3019 1.350 . S
C3025 H3012 0.929 . S
C3025 C3017 1.433 . S
C3025 N3027 1.384 . S
N3026 C3022 1.427 . S
N3026 C3023 1.384 . S
N3027 C3019 1.427 . S
N3027 C3025 1.384 . S
H3028 C3034 0.930 . S
H3029 C3038 0.930 . S
H3030 C3043 0.929 . S
H3031 C3041 0.929 . S
H3032 C3036 0.929 . S
H3033 C3042 0.929 . S
C3034 H3028 0.930 . S
C3034 C3035 1.367 . S
C3034 C3042 1.378 . S
C3035 C3034 1.367 . S
C3035 C3043 1.433 . S
C3036 H3032 0.929 . S
C3036 C3038 1.378 . S
C3036 C3040 1.350 . S
C3037 C3040 1.463 . S
C3037 C3042 1.350 . S
C3037 N3045 1.427 . S
C3038 H3029 0.930 . S
C3038 C3036 1.378 . S
C3038 C3039 1.367 . S
C3039 C3038 1.367 . S
C3039 C3041 1.433 . S
C3040 C3036 1.350 . S
C3040 C3037 1.463 . S
C3040 N3044 1.427 . S
C3041 H3031 0.929 . S
C3041 C3039 1.433 . S
C3041 N3044 1.384 . S
C3042 H3033 0.929 . S
C3042 C3034 1.378 . S
C3042 C3037 1.350 . S
C3043 H3030 0.929 . S
C3043 C3035 1.433 . S
C3043 N3045 1.384 . S
N3044 C3040 1.427 . S
N3044 C3041 1.384 . S
N3045 C3037 1.427 . S
N3045 C3043 1.384 . S
H3046 C3052 0.930 . S
H3047 C3056 0.930 . S
H3048 C3061 0.929 . S
H3049 C3059 0.929 . S
H3050 C3054 0.929 . S
H3051 C3060 0.929 . S
C3052 H3046 0.930 . S
C3052 C3053 1.367 . S
C3052 C3060 1.378 . S
C3053 C3052 1.367 . S
C3053 C3061 1.433 . S
C3054 H3050 0.929 . S
C3054 C3056 1.378 . S
C3054 C3058 1.350 . S
C3055 C3058 1.463 . S
C3055 C3060 1.350 . S
C3055 N3063 1.427 . S
C3056 H3047 0.930 . S
C3056 C3054 1.378 . S
C3056 C3057 1.367 . S
C3057 C3056 1.367 . S
C3057 C3059 1.433 . S
C3058 C3054 1.350 . S
C3058 C3055 1.463 . S
C3058 N3062 1.427 . S
C3059 H3049 0.929 . S
C3059 C3057 1.433 . S
C3059 N3062 1.384 . S
C3060 H3051 0.929 . S
C3060 C3052 1.378 . S
C3060 C3055 1.350 . S
C3061 H3048 0.929 . S
C3061 C3053 1.433 . S
C3061 N3063 1.384 . S
N3062 C3058 1.427 . S
N3062 C3059 1.384 . S
N3063 C3055 1.427 . S
N3063 C3061 1.384 . S
H3064 C3070 0.930 . S
H3065 C3074 0.930 . S
H3066 C3079 0.929 . S
H3067 C3077 0.929 . S
H3068 C3072 0.929 . S
H3069 C3078 0.929 . S
C3070 H3064 0.930 . S
C3070 C3071 1.367 . S
C3070 C3078 1.378 . S
C3071 C3070 1.367 . S
C3071 C3079 1.433 . S
C3072 H3068 0.929 . S
C3072 C3074 1.378 . S
C3072 C3076 1.350 . S
C3073 C3076 1.463 . S
C3073 C3078 1.350 . S
C3073 N3081 1.427 . S
C3074 H3065 0.930 . S
C3074 C3072 1.378 . S
C3074 C3075 1.367 . S
C3075 C3074 1.367 . S
C3075 C3077 1.433 . S
C3076 C3072 1.350 . S
C3076 C3073 1.463 . S
C3076 N3080 1.427 . S
C3077 H3067 0.929 . S
C3077 C3075 1.433 . S
C3077 N3080 1.384 . S
C3078 H3069 0.929 . S
C3078 C3070 1.378 . S
C3078 C3073 1.350 . S
C3079 H3066 0.929 . S
C3079 C3071 1.433 . S
C3079 N3081 1.384 . S
N3080 C3076 1.427 . S
N3080 C3077 1.384 . S
N3081 C3073 1.427 . S
N3081 C3079 1.384 . S
H3082 C3088 0.930 . S
H3083 C3092 0.930 . S
H3084 C3097 0.929 . S
H3085 C3095 0.929 . S
H3086 C3090 0.929 . S
H3087 C3096 0.929 . S
C3088 H3082 0.930 . S
C3088 C3089 1.367 . S
C3088 C3096 1.378 . S
C3089 C3088 1.367 . S
C3089 C3097 1.433 . S
C3090 H3086 0.929 . S
C3090 C3092 1.378 . S
C3090 C3094 1.350 . S
C3091 C3094 1.463 . S
C3091 C3096 1.350 . S
C3091 N3099 1.427 . S
C3092 H3083 0.930 . S
C3092 C3090 1.378 . S
C3092 C3093 1.367 . S
C3093 C3092 1.367 . S
C3093 C3095 1.433 . S
C3094 C3090 1.350 . S
C3094 C3091 1.463 . S
C3094 N3098 1.427 . S
C3095 H3085 0.929 . S
C3095 C3093 1.433 . S
C3095 N3098 1.384 . S
C3096 H3087 0.929 . S
C3096 C3088 1.378 . S
C3096 C3091 1.350 . S
C3097 H3084 0.929 . S
C3097 C3089 1.433 . S
C3097 N3099 1.384 . S
N3098 C3094 1.427 . S
N3098 C3095 1.384 . S
N3099 C3091 1.427 . S
N3099 C3097 1.384 . S
H3100 C3106 0.930 . S
H3101 C3110 0.930 . S
H3102 C3115 0.929 . S
H3103 C3113 0.929 . S
H3104 C3108 0.929 . S
H3105 C3114 0.929 . S
C3106 H3100 0.930 . S
C3106 C3107 1.367 . S
C3106 C3114 1.378 . S
C3107 C3106 1.367 . S
C3107 C3115 1.433 . S
C3108 H3104 0.929 . S
C3108 C3110 1.378 . S
C3108 C3112 1.350 . S
C3109 C3112 1.463 . S
C3109 C3114 1.350 . S
C3109 N3117 1.427 . S
C3110 H3101 0.930 . S
C3110 C3108 1.378 . S
C3110 C3111 1.367 . S
C3111 C3110 1.367 . S
C3111 C3113 1.433 . S
C3112 C3108 1.350 . S
C3112 C3109 1.463 . S
C3112 N3116 1.427 . S
C3113 H3103 0.929 . S
C3113 C3111 1.433 . S
C3113 N3116 1.384 . S
C3114 H3105 0.929 . S
C3114 C3106 1.378 . S
C3114 C3109 1.350 . S
C3115 H3102 0.929 . S
C3115 C3107 1.433 . S
C3115 N3117 1.384 . S
N3116 C3112 1.427 . S
N3116 C3113 1.384 . S
N3117 C3109 1.427 . S
N3117 C3115 1.384 . S
H3118 C3124 0.930 . S
H3119 C3128 0.930 . S
H3120 C3133 0.929 . S
H3121 C3131 0.929 . S
H3122 C3126 0.929 . S
H3123 C3132 0.929 . S
C3124 H3118 0.930 . S
C3124 C3125 1.367 . S
C3124 C3132 1.378 . S
C3125 C3124 1.367 . S
C3125 C3133 1.433 . S
C3126 H3122 0.929 . S
C3126 C3128 1.378 . S
C3126 C3130 1.350 . S
C3127 C3130 1.463 . S
C3127 C3132 1.350 . S
C3127 N3135 1.427 . S
C3128 H3119 0.930 . S
C3128 C3126 1.378 . S
C3128 C3129 1.367 . S
C3129 C3128 1.367 . S
C3129 C3131 1.433 . S
C3130 C3126 1.350 . S
C3130 C3127 1.463 . S
C3130 N3134 1.427 . S
C3131 H3121 0.929 . S
C3131 C3129 1.433 . S
C3131 N3134 1.384 . S
C3132 H3123 0.929 . S
C3132 C3124 1.378 . S
C3132 C3127 1.350 . S
C3133 H3120 0.929 . S
C3133 C3125 1.433 . S
C3133 N3135 1.384 . S
N3134 C3130 1.427 . S
N3134 C3131 1.384 . S
N3135 C3127 1.427 . S
N3135 C3133 1.384 . S
H3136 C3142 0.930 . S
H3137 C3146 0.930 . S
H3138 C3151 0.929 . S
H3139 C3149 0.929 . S
H3140 C3144 0.929 . S
H3141 C3150 0.929 . S
C3142 H3136 0.930 . S
C3142 C3143 1.367 . S
C3142 C3150 1.378 . S
C3143 C3142 1.367 . S
C3143 C3151 1.433 . S
C3144 H3140 0.929 . S
C3144 C3146 1.378 . S
C3144 C3148 1.350 . S
C3145 C3148 1.463 . S
C3145 C3150 1.350 . S
C3145 N3153 1.427 . S
C3146 H3137 0.930 . S
C3146 C3144 1.378 . S
C3146 C3147 1.367 . S
C3147 C3146 1.367 . S
C3147 C3149 1.433 . S
C3148 C3144 1.350 . S
C3148 C3145 1.463 . S
C3148 N3152 1.427 . S
C3149 H3139 0.929 . S
C3149 C3147 1.433 . S
C3149 N3152 1.384 . S
C3150 H3141 0.929 . S
C3150 C3142 1.378 . S
C3150 C3145 1.350 . S
C3151 H3138 0.929 . S
C3151 C3143 1.433 . S
C3151 N3153 1.384 . S
N3152 C3148 1.427 . S
N3152 C3149 1.384 . S
N3153 C3145 1.427 . S
N3153 C3151 1.384 . S
H3154 C3160 0.930 . S
H3155 C3164 0.930 . S
H3156 C3169 0.929 . S
H3157 C3167 0.929 . S
H3158 C3162 0.929 . S
H3159 C3168 0.929 . S
C3160 H3154 0.930 . S
C3160 C3161 1.367 . S
C3160 C3168 1.378 . S
C3161 C3160 1.367 . S
C3161 C3169 1.433 . S
C3162 H3158 0.929 . S
C3162 C3164 1.378 . S
C3162 C3166 1.350 . S
C3163 C3166 1.463 . S
C3163 C3168 1.350 . S
C3163 N3171 1.427 . S
C3164 H3155 0.930 . S
C3164 C3162 1.378 . S
C3164 C3165 1.367 . S
C3165 C3164 1.367 . S
C3165 C3167 1.433 . S
C3166 C3162 1.350 . S
C3166 C3163 1.463 . S
C3166 N3170 1.427 . S
C3167 H3157 0.929 . S
C3167 C3165 1.433 . S
C3167 N3170 1.384 . S
C3168 H3159 0.929 . S
C3168 C3160 1.378 . S
C3168 C3163 1.350 . S
C3169 H3156 0.929 . S
C3169 C3161 1.433 . S
C3169 N3171 1.384 . S
N3170 C3166 1.427 . S
N3170 C3167 1.384 . S
N3171 C3163 1.427 . S
N3171 C3169 1.384 . S
H3172 C3178 0.930 . S
H3173 C3182 0.930 . S
H3174 C3187 0.929 . S
H3175 C3185 0.929 . S
H3176 C3180 0.929 . S
H3177 C3186 0.929 . S
C3178 H3172 0.930 . S
C3178 C3179 1.367 . S
C3178 C3186 1.378 . S
C3179 C3178 1.367 . S
C3179 C3187 1.433 . S
C3180 H3176 0.929 . S
C3180 C3182 1.378 . S
C3180 C3184 1.350 . S
C3181 C3184 1.463 . S
C3181 C3186 1.350 . S
C3181 N3189 1.427 . S
C3182 H3173 0.930 . S
C3182 C3180 1.378 . S
C3182 C3183 1.367 . S
C3183 C3182 1.367 . S
C3183 C3185 1.433 . S
C3184 C3180 1.350 . S
C3184 C3181 1.463 . S
C3184 N3188 1.427 . S
C3185 H3175 0.929 . S
C3185 C3183 1.433 . S
C3185 N3188 1.384 . S
C3186 H3177 0.929 . S
C3186 C3178 1.378 . S
C3186 C3181 1.350 . S
C3187 H3174 0.929 . S
C3187 C3179 1.433 . S
C3187 N3189 1.384 . S
N3188 C3184 1.427 . S
N3188 C3185 1.384 . S
N3189 C3181 1.427 . S
N3189 C3187 1.384 . S
H3190 C3196 0.930 . S
H3191 C3200 0.930 . S
H3192 C3205 0.929 . S
H3193 C3203 0.929 . S
H3194 C3198 0.929 . S
H3195 C3204 0.929 . S
C3196 H3190 0.930 . S
C3196 C3197 1.367 . S
C3196 C3204 1.378 . S
C3197 C3196 1.367 . S
C3197 C3205 1.433 . S
C3198 H3194 0.929 . S
C3198 C3200 1.378 . S
C3198 C3202 1.350 . S
C3199 C3202 1.463 . S
C3199 C3204 1.350 . S
C3199 N3207 1.427 . S
C3200 H3191 0.930 . S
C3200 C3198 1.378 . S
C3200 C3201 1.367 . S
C3201 C3200 1.367 . S
C3201 C3203 1.433 . S
C3202 C3198 1.350 . S
C3202 C3199 1.463 . S
C3202 N3206 1.427 . S
C3203 H3193 0.929 . S
C3203 C3201 1.433 . S
C3203 N3206 1.384 . S
C3204 H3195 0.929 . S
C3204 C3196 1.378 . S
C3204 C3199 1.350 . S
C3205 H3192 0.929 . S
C3205 C3197 1.433 . S
C3205 N3207 1.384 . S
N3206 C3202 1.427 . S
N3206 C3203 1.384 . S
N3207 C3199 1.427 . S
N3207 C3205 1.384 . S
H3208 C3214 0.930 . S
H3209 C3218 0.930 . S
H3210 C3223 0.929 . S
H3211 C3221 0.929 . S
H3212 C3216 0.929 . S
H3213 C3222 0.929 . S
C3214 H3208 0.930 . S
C3214 C3215 1.367 . S
C3214 C3222 1.378 . S
C3215 C3214 1.367 . S
C3215 C3223 1.433 . S
C3216 H3212 0.929 . S
C3216 C3218 1.378 . S
C3216 C3220 1.350 . S
C3217 C3220 1.463 . S
C3217 C3222 1.350 . S
C3217 N3225 1.427 . S
C3218 H3209 0.930 . S
C3218 C3216 1.378 . S
C3218 C3219 1.367 . S
C3219 C3218 1.367 . S
C3219 C3221 1.433 . S
C3220 C3216 1.350 . S
C3220 C3217 1.463 . S
C3220 N3224 1.427 . S
C3221 H3211 0.929 . S
C3221 C3219 1.433 . S
C3221 N3224 1.384 . S
C3222 H3213 0.929 . S
C3222 C3214 1.378 . S
C3222 C3217 1.350 . S
C3223 H3210 0.929 . S
C3223 C3215 1.433 . S
C3223 N3225 1.384 . S
N3224 C3220 1.427 . S
N3224 C3221 1.384 . S
N3225 C3217 1.427 . S
N3225 C3223 1.384 . S
H3226 C3232 0.930 . S
H3227 C3236 0.930 . S
H3228 C3241 0.929 . S
H3229 C3239 0.929 . S
H3230 C3234 0.929 . S
H3231 C3240 0.929 . S
C3232 H3226 0.930 . S
C3232 C3233 1.367 . S
C3232 C3240 1.378 . S
C3233 C3232 1.367 . S
C3233 C3241 1.433 . S
C3234 H3230 0.929 . S
C3234 C3236 1.378 . S
C3234 C3238 1.350 . S
C3235 C3238 1.463 . S
C3235 C3240 1.350 . S
C3235 N3243 1.427 . S
C3236 H3227 0.930 . S
C3236 C3234 1.378 . S
C3236 C3237 1.367 . S
C3237 C3236 1.367 . S
C3237 C3239 1.433 . S
C3238 C3234 1.350 . S
C3238 C3235 1.463 . S
C3238 N3242 1.427 . S
C3239 H3229 0.929 . S
C3239 C3237 1.433 . S
C3239 N3242 1.384 . S
C3240 H3231 0.929 . S
C3240 C3232 1.378 . S
C3240 C3235 1.350 . S
C3241 H3228 0.929 . S
C3241 C3233 1.433 . S
C3241 N3243 1.384 . S
N3242 C3238 1.427 . S
N3242 C3239 1.384 . S
N3243 C3235 1.427 . S
N3243 C3241 1.384 . S
H3244 C3250 0.930 . S
H3245 C3254 0.930 . S
H3246 C3259 0.929 . S
H3247 C3257 0.929 . S
H3248 C3252 0.929 . S
H3249 C3258 0.929 . S
C3250 H3244 0.930 . S
C3250 C3251 1.367 . S
C3250 C3258 1.378 . S
C3251 C3250 1.367 . S
C3251 C3259 1.433 . S
C3252 H3248 0.929 . S
C3252 C3254 1.378 . S
C3252 C3256 1.350 . S
C3253 C3256 1.463 . S
C3253 C3258 1.350 . S
C3253 N3261 1.427 . S
C3254 H3245 0.930 . S
C3254 C3252 1.378 . S
C3254 C3255 1.367 . S
C3255 C3254 1.367 . S
C3255 C3257 1.433 . S
C3256 C3252 1.350 . S
C3256 C3253 1.463 . S
C3256 N3260 1.427 . S
C3257 H3247 0.929 . S
C3257 C3255 1.433 . S
C3257 N3260 1.384 . S
C3258 H3249 0.929 . S
C3258 C3250 1.378 . S
C3258 C3253 1.350 . S
C3259 H3246 0.929 . S
C3259 C3251 1.433 . S
C3259 N3261 1.384 . S
N3260 C3256 1.427 . S
N3260 C3257 1.384 . S
N3261 C3253 1.427 . S
N3261 C3259 1.384 . S
H3262 C3268 0.930 . S
H3263 C3272 0.930 . S
H3264 C3277 0.929 . S
H3265 C3275 0.929 . S
H3266 C3270 0.929 . S
H3267 C3276 0.929 . S
C3268 H3262 0.930 . S
C3268 C3269 1.367 . S
C3268 C3276 1.378 . S
C3269 C3268 1.367 . S
C3269 C3277 1.433 . S
C3270 H3266 0.929 . S
C3270 C3272 1.378 . S
C3270 C3274 1.350 . S
C3271 C3274 1.463 . S
C3271 C3276 1.350 . S
C3271 N3279 1.427 . S
C3272 H3263 0.930 . S
C3272 C3270 1.378 . S
C3272 C3273 1.367 . S
C3273 C3272 1.367 . S
C3273 C3275 1.433 . S
C3274 C3270 1.350 . S
C3274 C3271 1.463 . S
C3274 N3278 1.427 . S
C3275 H3265 0.929 . S
C3275 C3273 1.433 . S
C3275 N3278 1.384 . S
C3276 H3267 0.929 . S
C3276 C3268 1.378 . S
C3276 C3271 1.350 . S
C3277 H3264 0.929 . S
C3277 C3269 1.433 . S
C3277 N3279 1.384 . S
N3278 C3274 1.427 . S
N3278 C3275 1.384 . S
N3279 C3271 1.427 . S
N3279 C3277 1.384 . S
H3280 C3286 0.930 . S
H3281 C3290 0.930 . S
H3282 C3295 0.929 . S
H3283 C3293 0.929 . S
H3284 C3288 0.929 . S
H3285 C3294 0.929 . S
C3286 H3280 0.930 . S
C3286 C3287 1.367 . S
C3286 C3294 1.378 . S
C3287 C3286 1.367 . S
C3287 C3295 1.433 . S
C3288 H3284 0.929 . S
C3288 C3290 1.378 . S
C3288 C3292 1.350 . S
C3289 C3292 1.463 . S
C3289 C3294 1.350 . S
C3289 N3297 1.427 . S
C3290 H3281 0.930 . S
C3290 C3288 1.378 . S
C3290 C3291 1.367 . S
C3291 C3290 1.367 . S
C3291 C3293 1.433 . S
C3292 C3288 1.350 . S
C3292 C3289 1.463 . S
C3292 N3296 1.427 . S
C3293 H3283 0.929 . S
C3293 C3291 1.433 . S
C3293 N3296 1.384 . S
C3294 H3285 0.929 . S
C3294 C3286 1.378 . S
C3294 C3289 1.350 . S
C3295 H3282 0.929 . S
C3295 C3287 1.433 . S
C3295 N3297 1.384 . S
N3296 C3292 1.427 . S
N3296 C3293 1.384 . S
N3297 C3289 1.427 . S
N3297 C3295 1.384 . S
H3298 C3304 0.930 . S
H3299 C3308 0.930 . S
H3300 C3313 0.929 . S
H3301 C3311 0.929 . S
H3302 C3306 0.929 . S
H3303 C3312 0.929 . S
C3304 H3298 0.930 . S
C3304 C3305 1.367 . S
C3304 C3312 1.378 . S
C3305 C3304 1.367 . S
C3305 C3313 1.433 . S
C3306 H3302 0.929 . S
C3306 C3308 1.378 . S
C3306 C3310 1.350 . S
C3307 C3310 1.463 . S
C3307 C3312 1.350 . S
C3307 N3315 1.427 . S
C3308 H3299 0.930 . S
C3308 C3306 1.378 . S
C3308 C3309 1.367 . S
C3309 C3308 1.367 . S
C3309 C3311 1.433 . S
C3310 C3306 1.350 . S
C3310 C3307 1.463 . S
C3310 N3314 1.427 . S
C3311 H3301 0.929 . S
C3311 C3309 1.433 . S
C3311 N3314 1.384 . S
C3312 H3303 0.929 . S
C3312 C3304 1.378 . S
C3312 C3307 1.350 . S
C3313 H3300 0.929 . S
C3313 C3305 1.433 . S
C3313 N3315 1.384 . S
N3314 C3310 1.427 . S
N3314 C3311 1.384 . S
N3315 C3307 1.427 . S
N3315 C3313 1.384 . S
H3316 C3322 0.930 . S
H3317 C3326 0.930 . S
H3318 C3331 0.929 . S
H3319 C3329 0.929 . S
H3320 C3324 0.929 . S
H3321 C3330 0.929 . S
C3322 H3316 0.930 . S
C3322 C3323 1.367 . S
C3322 C3330 1.378 . S
C3323 C3322 1.367 . S
C3323 C3331 1.433 . S
C3324 H3320 0.929 . S
C3324 C3326 1.378 . S
C3324 C3328 1.350 . S
C3325 C3328 1.463 . S
C3325 C3330 1.350 . S
C3325 N3333 1.427 . S
C3326 H3317 0.930 . S
C3326 C3324 1.378 . S
C3326 C3327 1.367 . S
C3327 C3326 1.367 . S
C3327 C3329 1.433 . S
C3328 C3324 1.350 . S
C3328 C3325 1.463 . S
C3328 N3332 1.427 . S
C3329 H3319 0.929 . S
C3329 C3327 1.433 . S
C3329 N3332 1.384 . S
C3330 H3321 0.929 . S
C3330 C3322 1.378 . S
C3330 C3325 1.350 . S
C3331 H3318 0.929 . S
C3331 C3323 1.433 . S
C3331 N3333 1.384 . S
N3332 C3328 1.427 . S
N3332 C3329 1.384 . S
N3333 C3325 1.427 . S
N3333 C3331 1.384 . S
H3334 C3340 0.930 . S
H3335 C3344 0.930 . S
H3336 C3349 0.929 . S
H3337 C3347 0.929 . S
H3338 C3342 0.929 . S
H3339 C3348 0.929 . S
C3340 H3334 0.930 . S
C3340 C3341 1.367 . S
C3340 C3348 1.378 . S
C3341 C3340 1.367 . S
C3341 C3349 1.433 . S
C3342 H3338 0.929 . S
C3342 C3344 1.378 . S
C3342 C3346 1.350 . S
C3343 C3346 1.463 . S
C3343 C3348 1.350 . S
C3343 N3351 1.427 . S
C3344 H3335 0.930 . S
C3344 C3342 1.378 . S
C3344 C3345 1.367 . S
C3345 C3344 1.367 . S
C3345 C3347 1.433 . S
C3346 C3342 1.350 . S
C3346 C3343 1.463 . S
C3346 N3350 1.427 . S
C3347 H3337 0.929 . S
C3347 C3345 1.433 . S
C3347 N3350 1.384 . S
C3348 H3339 0.929 . S
C3348 C3340 1.378 . S
C3348 C3343 1.350 . S
C3349 H3336 0.929 . S
C3349 C3341 1.433 . S
C3349 N3351 1.384 . S
N3350 C3346 1.427 . S
N3350 C3347 1.384 . S
N3351 C3343 1.427 . S
N3351 C3349 1.384 . S
H3352 C3358 0.930 . S
H3353 C3362 0.930 . S
H3354 C3367 0.929 . S
H3355 C3365 0.929 . S
H3356 C3360 0.929 . S
H3357 C3366 0.929 . S
C3358 H3352 0.930 . S
C3358 C3359 1.367 . S
C3358 C3366 1.378 . S
C3359 C3358 1.367 . S
C3359 C3367 1.433 . S
C3360 H3356 0.929 . S
C3360 C3362 1.378 . S
C3360 C3364 1.350 . S
C3361 C3364 1.463 . S
C3361 C3366 1.350 . S
C3361 N3369 1.427 . S
C3362 H3353 0.930 . S
C3362 C3360 1.378 . S
C3362 C3363 1.367 . S
C3363 C3362 1.367 . S
C3363 C3365 1.433 . S
C3364 C3360 1.350 . S
C3364 C3361 1.463 . S
C3364 N3368 1.427 . S
C3365 H3355 0.929 . S
C3365 C3363 1.433 . S
C3365 N3368 1.384 . S
C3366 H3357 0.929 . S
C3366 C3358 1.378 . S
C3366 C3361 1.350 . S
C3367 H3354 0.929 . S
C3367 C3359 1.433 . S
C3367 N3369 1.384 . S
N3368 C3364 1.427 . S
N3368 C3365 1.384 . S
N3369 C3361 1.427 . S
N3369 C3367 1.384 . S
H3370 C3376 0.930 . S
H3371 C3380 0.930 . S
H3372 C3385 0.929 . S
H3373 C3383 0.929 . S
H3374 C3378 0.929 . S
H3375 C3384 0.929 . S
C3376 H3370 0.930 . S
C3376 C3377 1.367 . S
C3376 C3384 1.378 . S
C3377 C3376 1.367 . S
C3377 C3385 1.433 . S
C3378 H3374 0.929 . S
C3378 C3380 1.378 . S
C3378 C3382 1.350 . S
C3379 C3382 1.463 . S
C3379 C3384 1.350 . S
C3379 N3387 1.427 . S
C3380 H3371 0.930 . S
C3380 C3378 1.378 . S
C3380 C3381 1.367 . S
C3381 C3380 1.367 . S
C3381 C3383 1.433 . S
C3382 C3378 1.350 . S
C3382 C3379 1.463 . S
C3382 N3386 1.427 . S
C3383 H3373 0.929 . S
C3383 C3381 1.433 . S
C3383 N3386 1.384 . S
C3384 H3375 0.929 . S
C3384 C3376 1.378 . S
C3384 C3379 1.350 . S
C3385 H3372 0.929 . S
C3385 C3377 1.433 . S
C3385 N3387 1.384 . S
N3386 C3382 1.427 . S
N3386 C3383 1.384 . S
N3387 C3379 1.427 . S
N3387 C3385 1.384 . S
H3388 C3394 0.930 . S
H3389 C3398 0.930 . S
H3390 C3403 0.929 . S
H3391 C3401 0.929 . S
H3392 C3396 0.929 . S
H3393 C3402 0.929 . S
C3394 H3388 0.930 . S
C3394 C3395 1.367 . S
C3394 C3402 1.378 . S
C3395 C3394 1.367 . S
C3395 C3403 1.433 . S
C3396 H3392 0.929 . S
C3396 C3398 1.378 . S
C3396 C3400 1.350 . S
C3397 C3400 1.463 . S
C3397 C3402 1.350 . S
C3397 N3405 1.427 . S
C3398 H3389 0.930 . S
C3398 C3396 1.378 . S
C3398 C3399 1.367 . S
C3399 C3398 1.367 . S
C3399 C3401 1.433 . S
C3400 C3396 1.350 . S
C3400 C3397 1.463 . S
C3400 N3404 1.427 . S
C3401 H3391 0.929 . S
C3401 C3399 1.433 . S
C3401 N3404 1.384 . S
C3402 H3393 0.929 . S
C3402 C3394 1.378 . S
C3402 C3397 1.350 . S
C3403 H3390 0.929 . S
C3403 C3395 1.433 . S
C3403 N3405 1.384 . S
N3404 C3400 1.427 . S
N3404 C3401 1.384 . S
N3405 C3397 1.427 . S
N3405 C3403 1.384 . S
H3406 C3412 0.930 . S
H3407 C3416 0.930 . S
H3408 C3421 0.929 . S
H3409 C3419 0.929 . S
H3410 C3414 0.929 . S
H3411 C3420 0.929 . S
C3412 H3406 0.930 . S
C3412 C3413 1.367 . S
C3412 C3420 1.378 . S
C3413 C3412 1.367 . S
C3413 C3421 1.433 . S
C3414 H3410 0.929 . S
C3414 C3416 1.378 . S
C3414 C3418 1.350 . S
C3415 C3418 1.463 . S
C3415 C3420 1.350 . S
C3415 N3423 1.427 . S
C3416 H3407 0.930 . S
C3416 C3414 1.378 . S
C3416 C3417 1.367 . S
C3417 C3416 1.367 . S
C3417 C3419 1.433 . S
C3418 C3414 1.350 . S
C3418 C3415 1.463 . S
C3418 N3422 1.427 . S
C3419 H3409 0.929 . S
C3419 C3417 1.433 . S
C3419 N3422 1.384 . S
C3420 H3411 0.929 . S
C3420 C3412 1.378 . S
C3420 C3415 1.350 . S
C3421 H3408 0.929 . S
C3421 C3413 1.433 . S
C3421 N3423 1.384 . S
N3422 C3418 1.427 . S
N3422 C3419 1.384 . S
N3423 C3415 1.427 . S
N3423 C3421 1.384 . S
H3424 C3430 0.930 . S
H3425 C3434 0.930 . S
H3426 C3439 0.929 . S
H3427 C3437 0.929 . S
H3428 C3432 0.929 . S
H3429 C3438 0.929 . S
C3430 H3424 0.930 . S
C3430 C3431 1.367 . S
C3430 C3438 1.378 . S
C3431 C3430 1.367 . S
C3431 C3439 1.433 . S
C3432 H3428 0.929 . S
C3432 C3434 1.378 . S
C3432 C3436 1.350 . S
C3433 C3436 1.463 . S
C3433 C3438 1.350 . S
C3433 N3441 1.427 . S
C3434 H3425 0.930 . S
C3434 C3432 1.378 . S
C3434 C3435 1.367 . S
C3435 C3434 1.367 . S
C3435 C3437 1.433 . S
C3436 C3432 1.350 . S
C3436 C3433 1.463 . S
C3436 N3440 1.427 . S
C3437 H3427 0.929 . S
C3437 C3435 1.433 . S
C3437 N3440 1.384 . S
C3438 H3429 0.929 . S
C3438 C3430 1.378 . S
C3438 C3433 1.350 . S
C3439 H3426 0.929 . S
C3439 C3431 1.433 . S
C3439 N3441 1.384 . S
N3440 C3436 1.427 . S
N3440 C3437 1.384 . S
N3441 C3433 1.427 . S
N3441 C3439 1.384 . S
H3442 C3448 0.930 . S
H3443 C3452 0.930 . S
H3444 C3457 0.929 . S
H3445 C3455 0.929 . S
H3446 C3450 0.929 . S
H3447 C3456 0.929 . S
C3448 H3442 0.930 . S
C3448 C3449 1.367 . S
C3448 C3456 1.378 . S
C3449 C3448 1.367 . S
C3449 C3457 1.433 . S
C3450 H3446 0.929 . S
C3450 C3452 1.378 . S
C3450 C3454 1.350 . S
C3451 C3454 1.463 . S
C3451 C3456 1.350 . S
C3451 N3459 1.427 . S
C3452 H3443 0.930 . S
C3452 C3450 1.378 . S
C3452 C3453 1.367 . S
C3453 C3452 1.367 . S
C3453 C3455 1.433 . S
C3454 C3450 1.350 . S
C3454 C3451 1.463 . S
C3454 N3458 1.427 . S
C3455 H3445 0.929 . S
C3455 C3453 1.433 . S
C3455 N3458 1.384 . S
C3456 H3447 0.929 . S
C3456 C3448 1.378 . S
C3456 C3451 1.350 . S
C3457 H3444 0.929 . S
C3457 C3449 1.433 . S
C3457 N3459 1.384 . S
N3458 C3454 1.427 . S
N3458 C3455 1.384 . S
N3459 C3451 1.427 . S
N3459 C3457 1.384 . S
H3460 C3466 0.930 . S
H3461 C3470 0.930 . S
H3462 C3475 0.929 . S
H3463 C3473 0.929 . S
H3464 C3468 0.929 . S
H3465 C3474 0.929 . S
C3466 H3460 0.930 . S
C3466 C3467 1.367 . S
C3466 C3474 1.378 . S
C3467 C3466 1.367 . S
C3467 C3475 1.433 . S
C3468 H3464 0.929 . S
C3468 C3470 1.378 . S
C3468 C3472 1.350 . S
C3469 C3472 1.463 . S
C3469 C3474 1.350 . S
C3469 N3477 1.427 . S
C3470 H3461 0.930 . S
C3470 C3468 1.378 . S
C3470 C3471 1.367 . S
C3471 C3470 1.367 . S
C3471 C3473 1.433 . S
C3472 C3468 1.350 . S
C3472 C3469 1.463 . S
C3472 N3476 1.427 . S
C3473 H3463 0.929 . S
C3473 C3471 1.433 . S
C3473 N3476 1.384 . S
C3474 H3465 0.929 . S
C3474 C3466 1.378 . S
C3474 C3469 1.350 . S
C3475 H3462 0.929 . S
C3475 C3467 1.433 . S
C3475 N3477 1.384 . S
N3476 C3472 1.427 . S
N3476 C3473 1.384 . S
N3477 C3469 1.427 . S
N3477 C3475 1.384 . S
H3478 C3484 0.930 . S
H3479 C3488 0.930 . S
H3480 C3493 0.929 . S
H3481 C3491 0.929 . S
H3482 C3486 0.929 . S
H3483 C3492 0.929 . S
C3484 H3478 0.930 . S
C3484 C3485 1.367 . S
C3484 C3492 1.378 . S
C3485 C3484 1.367 . S
C3485 C3493 1.433 . S
C3486 H3482 0.929 . S
C3486 C3488 1.378 . S
C3486 C3490 1.350 . S
C3487 C3490 1.463 . S
C3487 C3492 1.350 . S
C3487 N3495 1.427 . S
C3488 H3479 0.930 . S
C3488 C3486 1.378 . S
C3488 C3489 1.367 . S
C3489 C3488 1.367 . S
C3489 C3491 1.433 . S
C3490 C3486 1.350 . S
C3490 C3487 1.463 . S
C3490 N3494 1.427 . S
C3491 H3481 0.929 . S
C3491 C3489 1.433 . S
C3491 N3494 1.384 . S
C3492 H3483 0.929 . S
C3492 C3484 1.378 . S
C3492 C3487 1.350 . S
C3493 H3480 0.929 . S
C3493 C3485 1.433 . S
C3493 N3495 1.384 . S
N3494 C3490 1.427 . S
N3494 C3491 1.384 . S
N3495 C3487 1.427 . S
N3495 C3493 1.384 . S
H3496 C3502 0.930 . S
H3497 C3506 0.930 . S
H3498 C3511 0.929 . S
H3499 C3509 0.929 . S
H3500 C3504 0.929 . S
H3501 C3510 0.929 . S
C3502 H3496 0.930 . S
C3502 C3503 1.367 . S
C3502 C3510 1.378 . S
C3503 C3502 1.367 . S
C3503 C3511 1.433 . S
C3504 H3500 0.929 . S
C3504 C3506 1.378 . S
C3504 C3508 1.350 . S
C3505 C3508 1.463 . S
C3505 C3510 1.350 . S
C3505 N3513 1.427 . S
C3506 H3497 0.930 . S
C3506 C3504 1.378 . S
C3506 C3507 1.367 . S
C3507 C3506 1.367 . S
C3507 C3509 1.433 . S
C3508 C3504 1.350 . S
C3508 C3505 1.463 . S
C3508 N3512 1.427 . S
C3509 H3499 0.929 . S
C3509 C3507 1.433 . S
C3509 N3512 1.384 . S
C3510 H3501 0.929 . S
C3510 C3502 1.378 . S
C3510 C3505 1.350 . S
C3511 H3498 0.929 . S
C3511 C3503 1.433 . S
C3511 N3513 1.384 . S
N3512 C3508 1.427 . S
N3512 C3509 1.384 . S
N3513 C3505 1.427 . S
N3513 C3511 1.384 . S
H3514 C3520 0.930 . S
H3515 C3524 0.930 . S
H3516 C3529 0.929 . S
H3517 C3527 0.929 . S
H3518 C3522 0.929 . S
H3519 C3528 0.929 . S
C3520 H3514 0.930 . S
C3520 C3521 1.367 . S
C3520 C3528 1.378 . S
C3521 C3520 1.367 . S
C3521 C3529 1.433 . S
C3522 H3518 0.929 . S
C3522 C3524 1.378 . S
C3522 C3526 1.350 . S
C3523 C3526 1.463 . S
C3523 C3528 1.350 . S
C3523 N3531 1.427 . S
C3524 H3515 0.930 . S
C3524 C3522 1.378 . S
C3524 C3525 1.367 . S
C3525 C3524 1.367 . S
C3525 C3527 1.433 . S
C3526 C3522 1.350 . S
C3526 C3523 1.463 . S
C3526 N3530 1.427 . S
C3527 H3517 0.929 . S
C3527 C3525 1.433 . S
C3527 N3530 1.384 . S
C3528 H3519 0.929 . S
C3528 C3520 1.378 . S
C3528 C3523 1.350 . S
C3529 H3516 0.929 . S
C3529 C3521 1.433 . S
C3529 N3531 1.384 . S
N3530 C3526 1.427 . S
N3530 C3527 1.384 . S
N3531 C3523 1.427 . S
N3531 C3529 1.384 . S
H3532 C3538 0.930 . S
H3533 C3542 0.930 . S
H3534 C3547 0.929 . S
H3535 C3545 0.929 . S
H3536 C3540 0.929 . S
H3537 C3546 0.929 . S
C3538 H3532 0.930 . S
C3538 C3539 1.367 . S
C3538 C3546 1.378 . S
C3539 C3538 1.367 . S
C3539 C3547 1.433 . S
C3540 H3536 0.929 . S
C3540 C3542 1.378 . S
C3540 C3544 1.350 . S
C3541 C3544 1.463 . S
C3541 C3546 1.350 . S
C3541 N3549 1.427 . S
C3542 H3533 0.930 . S
C3542 C3540 1.378 . S
C3542 C3543 1.367 . S
C3543 C3542 1.367 . S
C3543 C3545 1.433 . S
C3544 C3540 1.350 . S
C3544 C3541 1.463 . S
C3544 N3548 1.427 . S
C3545 H3535 0.929 . S
C3545 C3543 1.433 . S
C3545 N3548 1.384 . S
C3546 H3537 0.929 . S
C3546 C3538 1.378 . S
C3546 C3541 1.350 . S
C3547 H3534 0.929 . S
C3547 C3539 1.433 . S
C3547 N3549 1.384 . S
N3548 C3544 1.427 . S
N3548 C3545 1.384 . S
N3549 C3541 1.427 . S
N3549 C3547 1.384 . S
H3550 C3556 0.930 . S
H3551 C3560 0.930 . S
H3552 C3565 0.929 . S
H3553 C3563 0.929 . S
H3554 C3558 0.929 . S
H3555 C3564 0.929 . S
C3556 H3550 0.930 . S
C3556 C3557 1.367 . S
C3556 C3564 1.378 . S
C3557 C3556 1.367 . S
C3557 C3565 1.433 . S
C3558 H3554 0.929 . S
C3558 C3560 1.378 . S
C3558 C3562 1.350 . S
C3559 C3562 1.463 . S
C3559 C3564 1.350 . S
C3559 N3567 1.427 . S
C3560 H3551 0.930 . S
C3560 C3558 1.378 . S
C3560 C3561 1.367 . S
C3561 C3560 1.367 . S
C3561 C3563 1.433 . S
C3562 C3558 1.350 . S
C3562 C3559 1.463 . S
C3562 N3566 1.427 . S
C3563 H3553 0.929 . S
C3563 C3561 1.433 . S
C3563 N3566 1.384 . S
C3564 H3555 0.929 . S
C3564 C3556 1.378 . S
C3564 C3559 1.350 . S
C3565 H3552 0.929 . S
C3565 C3557 1.433 . S
C3565 N3567 1.384 . S
N3566 C3562 1.427 . S
N3566 C3563 1.384 . S
N3567 C3559 1.427 . S
N3567 C3565 1.384 . S
C1851 C399 1.914 . S
C1847 C7 1.912 . S
C1869 C461 1.253 . S
C1865 C19 1.368 . S
C1883 C29 1.852 . S
C1887 C523 1.793 . S
C1905 C591 1.288 . S
C1901 C41 1.348 . S
C1919 C52 1.403 . S
C1923 C573 1.408 . S
C1937 C62 1.644 . S
C1941 C381 1.589 . S
C1955 C73 1.276 . S
C1959 C443 1.257 . S
C1977 C505 1.722 . S
C1973 C82 1.638 . S
C1995 C653 1.777 . S
C1991 C5 1.656 . S
C2009 C16 1.374 . S
C2013 C691 1.512 . S
C2027 C30 1.873 . S
C2031 C777 1.810 . S
C2049 C821 1.176 . S
C2045 C40 1.265 . S
C2063 C49 1.077 . S
C2067 C883 1.257 . S
C2085 C945 1.490 . S
C2081 C63 1.536 . S
C2099 C74 1.410 . S
C2103 C1001 1.236 . S
C2121 C1063 1.503 . S
C2117 C85 1.608 . S
C2135 C8 1.690 . S
C2139 C839 1.660 . S
C2153 C51 1.491 . S
C2157 C963 1.530 . S
C2175 C1019 1.741 . S
C2171 C60 1.645 . S
C2189 C71 1.169 . S
C2193 C1081 1.337 . S
C2211 C901 2.065 . S
C2207 C84 1.990 . S
C2229 C709 1.576 . S
C2225 C27 1.479 . S
C2243 C38 1.461 . S
C2247 C759 1.511 . S
C2265 C635 1.786 . S
C2261 C18 1.723 . S
C2283 C1143 2.026 . S
C2279 C95 2.017 . S
C2297 C107 1.290 . S
C2301 C1193 1.252 . S
C2315 C117 1.755 . S
C2319 C1249 1.678 . S
C2337 C1335 1.386 . S
C2333 C129 1.482 . S
C2351 C140 1.455 . S
C2355 C1317 1.449 . S
C2369 C150 1.652 . S
C2373 C1125 1.595 . S
C2387 C161 1.187 . S
C2391 C1211 1.236 . S
C2405 C170 1.711 . S
C2409 C1267 1.831 . S
C2427 C877 1.784 . S
C2423 C93 1.734 . S
C2441 C104 1.288 . S
C2445 C1397 1.496 . S
C2463 C1007 1.761 . S
C2459 C118 1.836 . S
C2477 C128 1.361 . S
C2481 C1459 1.257 . S
C2495 C137 1.097 . S
C2499 C647 1.207 . S
C2517 C1503 1.530 . S
C2513 C151 1.592 . S
C2531 C162 1.408 . S
C2535 C771 1.346 . S
C2553 C1559 1.555 . S
C2549 C173 1.690 . S
C2567 C96 1.768 . S
C2571 C1441 1.747 . S
C2589 C1521 1.578 . S
C2585 C139 1.540 . S
C2603 C148 1.666 . S
C2607 C753 1.818 . S
C2625 C1577 1.315 . S
C2621 C159 1.128 . S
C2639 C172 2.195 . S
C2643 C629 2.232 . S
C2657 C115 1.307 . S
C2661 C1379 1.472 . S
C2675 C126 1.415 . S
C2679 C1025 1.475 . S
C2693 C106 1.564 . S
C2697 C895 1.563 . S
C2711 C183 1.806 . S
C2715 C1255 1.867 . S
C2733 C1329 1.187 . S
C2729 C195 1.327 . S
C2747 C205 1.827 . S
C2751 C1149 1.834 . S
C2765 C217 1.356 . S
C2769 C1187 1.171 . S
C2783 C228 1.507 . S
C2787 C1205 1.438 . S
C2801 C238 1.562 . S
C2805 C1273 1.595 . S
C2823 C1311 1.249 . S
C2819 C249 1.313 . S
C2837 C258 1.612 . S
C2841 C1131 1.762 . S
C2859 C1627 1.706 . S
C2855 C181 1.608 . S
C2873 C192 1.467 . S
C2877 C939 1.613 . S
C2895 C1689 1.678 . S
C2891 C206 1.755 . S
C2909 C216 1.412 . S
C2913 C1069 1.308 . S
C2927 C225 1.225 . S
C2931 C1745 1.309 . S
C2945 C239 1.567 . S
C2949 C697 1.507 . S
C2967 C1825 1.400 . S
C2963 C250 1.489 . S
C2981 C261 1.622 . S
C2985 C815 1.481 . S
C3003 C1087 1.524 . S
C2999 C184 1.566 . S
C3021 C715 1.635 . S
C3017 C227 1.602 . S
C3035 C236 1.541 . S
C3039 C1807 1.723 . S
C3053 C247 1.125 . S
C3057 C833 1.298 . S
C3075 C1763 2.059 . S
C3071 C260 2.043 . S
C3093 C957 1.311 . S
C3089 C203 1.204 . S
C3111 C1707 1.459 . S
C3107 C214 1.375 . S
C3129 C1645 1.778 . S
C3125 C194 1.704 . S
C3143 C271 1.848 . S
C3147 C529 1.898 . S
C3161 C283 1.354 . S
C3165 C585 1.203 . S
C3183 C405 1.783 . S
C3179 C293 1.777 . S
C3201 C467 1.304 . S
C3197 C305 1.395 . S
C3219 C449 1.563 . S
C3215 C316 1.569 . S
C3237 C511 1.666 . S
C3233 C326 1.640 . S
C3255 C567 1.125 . S
C3251 C337 1.202 . S
C3269 C346 1.617 . S
C3273 C387 1.772 . S
C3287 C269 1.578 . S
C3291 C1751 1.671 . S
C3309 C1497 1.577 . S
C3305 C280 1.429 . S
C3327 C1831 1.817 . S
C3323 C294 1.873 . S
C3345 C1565 1.237 . S
C3341 C304 1.312 . S
C3359 C313 1.198 . S
C3363 C1621 1.290 . S
C3381 C1391 1.402 . S
C3377 C327 1.550 . S
C3399 C1683 1.209 . S
C3395 C338 1.351 . S
C3413 C349 1.604 . S
C3417 C1453 1.448 . S
C3435 C1583 1.513 . S
C3431 C272 1.557 . S
C3453 C1373 1.555 . S
C3449 C315 1.598 . S
C3471 C1701 1.757 . S
C3467 C324 1.635 . S
C3485 C335 1.167 . S
C3489 C1435 1.369 . S
C3503 C348 2.092 . S
C3507 C1639 2.108 . S
C3521 C291 1.281 . S
C3525 C1515 1.393 . S
C3539 C302 1.507 . S
C3543 C1813 1.547 . S
C3561 C1769 1.744 . S
C3557 C282 1.681 . S
