# Generated by pormake.
# Topology ctn, (3,4)-cn, num edge types: 1
# Building blocks:
#     Node 0, Type 0, BuildingBlock: VETTIZ_charged_linker_0, # of connection points: 3
#     Node 1, Type 0, BuildingBlock: VETTIZ_charged_linker_0, # of connection points: 3
#     Node 2, Type 0, BuildingBlock: VETTIZ_charged_linker_0, # of connection points: 3
#     Node 3, Type 0, BuildingBlock: VETTIZ_charged_linker_0, # of connection points: 3
#     Node 4, Type 0, BuildingBlock: VETTIZ_charged_linker_0, # of connection points: 3
#     Node 5, Type 0, BuildingBlock: VETTIZ_charged_linker_0, # of connection points: 3
#     Node 6, Type 0, BuildingBlock: VETTIZ_charged_linker_0, # of connection points: 3
#     Node 7, Type 0, BuildingBlock: VETTIZ_charged_linker_0, # of connection points: 3
#     Node 8, Type 0, BuildingBlock: VETTIZ_charged_linker_0, # of connection points: 3
#     Node 9, Type 0, BuildingBlock: VETTIZ_charged_linker_0, # of connection points: 3
#     Node 10, Type 0, BuildingBlock: VETTIZ_charged_linker_0, # of connection points: 3
#     Node 11, Type 0, BuildingBlock: VETTIZ_charged_linker_0, # of connection points: 3
#     Node 12, Type 0, BuildingBlock: VETTIZ_charged_linker_0, # of connection points: 3
#     Node 13, Type 0, BuildingBlock: VETTIZ_charged_linker_0, # of connection points: 3
#     Node 14, Type 0, BuildingBlock: VETTIZ_charged_linker_0, # of connection points: 3
#     Node 15, Type 0, BuildingBlock: VETTIZ_charged_linker_0, # of connection points: 3
#     Node 16, Type 1, BuildingBlock: UXUYUI_clean_sbu_0, # of connection points: 4
#     Node 17, Type 1, BuildingBlock: UXUYUI_clean_sbu_0, # of connection points: 4
#     Node 18, Type 1, BuildingBlock: UXUYUI_clean_sbu_0, # of connection points: 4
#     Node 19, Type 1, BuildingBlock: UXUYUI_clean_sbu_0, # of connection points: 4
#     Node 20, Type 1, BuildingBlock: UXUYUI_clean_sbu_0, # of connection points: 4
#     Node 21, Type 1, BuildingBlock: UXUYUI_clean_sbu_0, # of connection points: 4
#     Node 22, Type 1, BuildingBlock: UXUYUI_clean_sbu_0, # of connection points: 4
#     Node 23, Type 1, BuildingBlock: UXUYUI_clean_sbu_0, # of connection points: 4
#     Node 24, Type 1, BuildingBlock: UXUYUI_clean_sbu_0, # of connection points: 4
#     Node 25, Type 1, BuildingBlock: UXUYUI_clean_sbu_0, # of connection points: 4
#     Node 26, Type 1, BuildingBlock: UXUYUI_clean_sbu_0, # of connection points: 4
#     Node 27, Type 1, BuildingBlock: UXUYUI_clean_sbu_0, # of connection points: 4
#     Edge 28, Type (0, 1), BuildingBlock: UVAHIK_clean_linker_0, # of connection points: 2
#     Edge 29, Type (0, 1), BuildingBlock: UVAHIK_clean_linker_0, # of connection points: 2
#     Edge 30, Type (0, 1), BuildingBlock: UVAHIK_clean_linker_0, # of connection points: 2
#     Edge 31, Type (0, 1), BuildingBlock: UVAHIK_clean_linker_0, # of connection points: 2
#     Edge 32, Type (0, 1), BuildingBlock: UVAHIK_clean_linker_0, # of connection points: 2
#     Edge 33, Type (0, 1), BuildingBlock: UVAHIK_clean_linker_0, # of connection points: 2
#     Edge 34, Type (0, 1), BuildingBlock: UVAHIK_clean_linker_0, # of connection points: 2
#     Edge 35, Type (0, 1), BuildingBlock: UVAHIK_clean_linker_0, # of connection points: 2
#     Edge 36, Type (0, 1), BuildingBlock: UVAHIK_clean_linker_0, # of connection points: 2
#     Edge 37, Type (0, 1), BuildingBlock: UVAHIK_clean_linker_0, # of connection points: 2
#     Edge 38, Type (0, 1), BuildingBlock: UVAHIK_clean_linker_0, # of connection points: 2
#     Edge 39, Type (0, 1), BuildingBlock: UVAHIK_clean_linker_0, # of connection points: 2
#     Edge 40, Type (0, 1), BuildingBlock: UVAHIK_clean_linker_0, # of connection points: 2
#     Edge 41, Type (0, 1), BuildingBlock: UVAHIK_clean_linker_0, # of connection points: 2
#     Edge 42, Type (0, 1), BuildingBlock: UVAHIK_clean_linker_0, # of connection points: 2
#     Edge 43, Type (0, 1), BuildingBlock: UVAHIK_clean_linker_0, # of connection points: 2
#     Edge 44, Type (0, 1), BuildingBlock: UVAHIK_clean_linker_0, # of connection points: 2
#     Edge 45, Type (0, 1), BuildingBlock: UVAHIK_clean_linker_0, # of connection points: 2
#     Edge 46, Type (0, 1), BuildingBlock: UVAHIK_clean_linker_0, # of connection points: 2
#     Edge 47, Type (0, 1), BuildingBlock: UVAHIK_clean_linker_0, # of connection points: 2
#     Edge 48, Type (0, 1), BuildingBlock: UVAHIK_clean_linker_0, # of connection points: 2
#     Edge 49, Type (0, 1), BuildingBlock: UVAHIK_clean_linker_0, # of connection points: 2
#     Edge 50, Type (0, 1), BuildingBlock: UVAHIK_clean_linker_0, # of connection points: 2
#     Edge 51, Type (0, 1), BuildingBlock: UVAHIK_clean_linker_0, # of connection points: 2
#     Edge 52, Type (0, 1), BuildingBlock: UVAHIK_clean_linker_0, # of connection points: 2
#     Edge 53, Type (0, 1), BuildingBlock: UVAHIK_clean_linker_0, # of connection points: 2
#     Edge 54, Type (0, 1), BuildingBlock: UVAHIK_clean_linker_0, # of connection points: 2
#     Edge 55, Type (0, 1), BuildingBlock: UVAHIK_clean_linker_0, # of connection points: 2
#     Edge 56, Type (0, 1), BuildingBlock: UVAHIK_clean_linker_0, # of connection points: 2
#     Edge 57, Type (0, 1), BuildingBlock: UVAHIK_clean_linker_0, # of connection points: 2
#     Edge 58, Type (0, 1), BuildingBlock: UVAHIK_clean_linker_0, # of connection points: 2
#     Edge 59, Type (0, 1), BuildingBlock: UVAHIK_clean_linker_0, # of connection points: 2
#     Edge 60, Type (0, 1), BuildingBlock: UVAHIK_clean_linker_0, # of connection points: 2
#     Edge 61, Type (0, 1), BuildingBlock: UVAHIK_clean_linker_0, # of connection points: 2
#     Edge 62, Type (0, 1), BuildingBlock: UVAHIK_clean_linker_0, # of connection points: 2
#     Edge 63, Type (0, 1), BuildingBlock: UVAHIK_clean_linker_0, # of connection points: 2
#     Edge 64, Type (0, 1), BuildingBlock: UVAHIK_clean_linker_0, # of connection points: 2
#     Edge 65, Type (0, 1), BuildingBlock: UVAHIK_clean_linker_0, # of connection points: 2
#     Edge 66, Type (0, 1), BuildingBlock: UVAHIK_clean_linker_0, # of connection points: 2
#     Edge 67, Type (0, 1), BuildingBlock: UVAHIK_clean_linker_0, # of connection points: 2
#     Edge 68, Type (0, 1), BuildingBlock: UVAHIK_clean_linker_0, # of connection points: 2
#     Edge 69, Type (0, 1), BuildingBlock: UVAHIK_clean_linker_0, # of connection points: 2
#     Edge 70, Type (0, 1), BuildingBlock: UVAHIK_clean_linker_0, # of connection points: 2
#     Edge 71, Type (0, 1), BuildingBlock: UVAHIK_clean_linker_0, # of connection points: 2
#     Edge 72, Type (0, 1), BuildingBlock: UVAHIK_clean_linker_0, # of connection points: 2
#     Edge 73, Type (0, 1), BuildingBlock: UVAHIK_clean_linker_0, # of connection points: 2
#     Edge 74, Type (0, 1), BuildingBlock: UVAHIK_clean_linker_0, # of connection points: 2
#     Edge 75, Type (0, 1), BuildingBlock: UVAHIK_clean_linker_0, # of connection points: 2
# Relax obj value: 0.000
# Max RMSD: 0.002
# Mean RMSD: 0.001
data_MOF--net-ctn--node1-UXUYUI_clean_sbu_0--node2-VETTIZ_charged_linker_0--edge1-UVAHIK_clean_linker_0
_symmetry_space_group_name_H-M    P1
_symmetry_Int_Tables_number       1
_symmetry_cell_setting            triclinic
loop_
_symmetry_equiv_pos_as_xyz
'x, y, z'
_cell_length_a     96.884333
_cell_length_b     96.884021
_cell_length_c     96.86582
_cell_angle_alpha  89.997855
_cell_angle_beta   89.99579
_cell_angle_gamma 89.993349
loop_
_atom_site_label
_atom_site_type_symbol
_atom_site_fract_x
_atom_site_fract_y
_atom_site_fract_z
_atom_type_partial_charge
C0 C 0.03068 0.07159 0.00109 0.0
C1 C 0.01959 0.08087 0.0025 0.0
C2 C 0.00991 0.07868 0.01315 0.0
C3 C 0.02251 0.05846 0.02082 0.0
C4 C 0.03193 0.06052 0.01031 0.0
C5 C 0.04315 0.04979 0.01029 0.0
H6 H 0.07212 0.99322 0.0394 0.0
C7 C 0.02689 0.04615 0.02872 0.0
C8 C 0.03898 0.04101 0.02258 0.0
H9 H 0.086 0.01589 0.00352 0.0
H10 H 0.06681 0.03157 0.0058 0.0
H11 H 0.06472 0.01932 0.05748 0.0
H12 H 0.0395 0.99374 0.03134 0.0
H13 H 0.03009 0.99704 0.0465 0.0
H14 H 0.04627 0.9879 0.04757 0.0
H15 H 0.05932 0.00235 0.06257 0.0
H16 H 0.04878 0.01735 0.06586 0.0
C17 C 0.05713 0.05719 0.01269 0.0
C18 C 0.04224 0.04165 0.99654 0.0
C19 C 0.99927 0.03075 0.07062 0.0
C20 C 0.00102 0.02003 0.08027 0.0
C21 C 0.0123 0.01095 0.07868 0.0
C22 C 0.02165 0.01253 0.06775 0.0
C23 C 0.0198 0.02335 0.05827 0.0
C24 C 0.00875 0.03224 0.0598 0.0
C25 C 0.00854 0.04328 0.04887 0.0
C26 C 0.02128 0.03954 0.04055 0.0
C27 C 0.02782 0.02785 0.04609 0.0
C28 C 0.01005 0.05747 0.05611 0.0
C29 C 0.99513 0.04159 0.04033 0.0
C30 C 0.07094 0.00148 0.03195 0.0
C31 C 0.08062 0.00331 0.02127 0.0
C32 C 0.07881 0.01434 0.01194 0.0
C33 C 0.0676 0.0234 0.01324 0.0
C34 C 0.05807 0.02148 0.02401 0.0
C35 C 0.05982 0.01065 0.03312 0.0
C36 C 0.04873 0.01026 0.04399 0.0
C37 C 0.04001 0.02261 0.03985 0.0
C38 C 0.04554 0.02914 0.02815 0.0
C39 C 0.05565 0.01232 0.05827 0.0
C40 C 0.04072 0.99651 0.04243 0.0
H41 H 0.00364 0.06652 0.03022 0.0
H42 H 0.03821 0.07284 0.99291 0.0
H43 H 0.03132 0.04046 0.9932 0.0
H44 H 0.04618 0.03099 0.99741 0.0
H45 H 0.04787 0.04706 0.98815 0.0
H46 H 0.0559 0.06596 0.02001 0.0
H47 H 0.06131 0.06141 0.00289 0.0
H48 H 0.06498 0.05047 0.0175 0.0
H49 H 0.99066 0.03784 0.07139 0.0
H50 H 0.01407 0.00273 0.08605 0.0
H51 H 0.03004 0.00532 0.06718 0.0
H52 H 0.01698 0.0567 0.06524 0.0
H53 H 0.9999 0.06134 0.05978 0.0
H54 H 0.01487 0.06537 0.04947 0.0
H55 H 0.99246 0.03049 0.03906 0.0
H56 H 0.99608 0.04559 0.0297 0.0
H57 H 0.98627 0.04672 0.04548 0.0
H58 H 0.00136 0.08574 0.01459 0.0
C59 C 0.01131 0.06755 0.0223 0.0
C60 C 0.25961 0.67423 0.22797 0.0
C61 C 0.24835 0.67089 0.21944 0.0
C62 C 0.24528 0.67949 0.2081 0.0
C63 C 0.26447 0.69444 0.21394 0.0
C64 C 0.26751 0.68597 0.22501 0.0
C65 C 0.28 0.6908 0.23286 0.0
H66 H 0.33143 0.73741 0.24102 0.0
C67 C 0.27469 0.70578 0.21375 0.0
C68 C 0.28383 0.70369 0.22481 0.0
H69 H 0.3238 0.70038 0.26472 0.0
H70 H 0.30382 0.69534 0.25075 0.0
H71 H 0.29934 0.74708 0.23861 0.0
H72 H 0.32597 0.72366 0.21182 0.0
H73 H 0.31616 0.73467 0.2013 0.0
H74 H 0.3277 0.74198 0.21394 0.0
H75 H 0.31316 0.75486 0.22902 0.0
H76 H 0.29621 0.75264 0.22163 0.0
C77 C 0.27545 0.69425 0.2478 0.0
C78 C 0.29129 0.67949 0.23181 0.0
C79 C 0.27204 0.74279 0.17664 0.0
C80 C 0.27997 0.75464 0.17388 0.0
C81 C 0.29103 0.75793 0.18276 0.0
C82 C 0.29421 0.74952 0.19409 0.0
C83 C 0.28627 0.73765 0.19663 0.0
C84 C 0.27534 0.73451 0.18802 0.0
C85 C 0.26796 0.72156 0.19238 0.0
C86 C 0.27636 0.71737 0.20493 0.0
C87 C 0.28709 0.72681 0.20735 0.0
C88 C 0.25294 0.72545 0.19626 0.0
C89 C 0.2692 0.71088 0.18053 0.0
C90 C 0.32535 0.7283 0.24327 0.0
C91 C 0.32917 0.71928 0.25399 0.0
C92 C 0.32113 0.70741 0.25644 0.0
C93 C 0.3095 0.70453 0.24834 0.0
C94 C 0.30589 0.71356 0.23758 0.0
C95 C 0.31378 0.7252 0.23517 0.0
C96 C 0.30863 0.73335 0.22299 0.0
C97 C 0.29636 0.7247 0.21852 0.0
C98 C 0.29476 0.71317 0.22715 0.0
C99 C 0.30416 0.7478 0.22821 0.0
C100 C 0.32017 0.73358 0.21191 0.0
H101 H 0.25034 0.69737 0.19658 0.0
H102 H 0.26236 0.66772 0.23663 0.0
H103 H 0.29044 0.67368 0.22193 0.0
H104 H 0.30186 0.68378 0.2317 0.0
H105 H 0.29038 0.67191 0.24037 0.0
H106 H 0.26523 0.69949 0.24782 0.0
H107 H 0.2745 0.68473 0.25411 0.0
H108 H 0.2825 0.70148 0.25307 0.0
H109 H 0.26336 0.74006 0.17014 0.0
H110 H 0.29741 0.7669 0.18079 0.0
H111 H 0.3028 0.75255 0.20039 0.0
H112 H 0.25255 0.73577 0.20129 0.0
H113 H 0.24625 0.72587 0.18696 0.0
H114 H 0.24831 0.71834 0.20387 0.0
H115 H 0.2794 0.7117 0.17532 0.0
H116 H 0.26865 0.7001 0.18417 0.0
H117 H 0.2611 0.71257 0.17258 0.0
H118 H 0.23658 0.6772 0.20146 0.0
C119 C 0.25324 0.69124 0.20533 0.0
C120 C 0.98045 0.42728 0.00643 0.0
C121 C 0.97155 0.42367 0.99554 0.0
C122 C 0.95979 0.43186 0.99302 0.0
C123 C 0.96583 0.44684 0.01213 0.0
C124 C 0.97736 0.43881 0.01459 0.0
C125 C 0.98547 0.44378 0.02688 0.0
H126 H 0.99172 0.48802 0.08064 0.0
C127 C 0.96547 0.45791 0.02264 0.0
C128 C 0.97693 0.45614 0.03134 0.0
H129 H 0.01867 0.45421 0.06959 0.0
H130 H 0.00465 0.44934 0.04958 0.0
H131 H 0.96297 0.4724 0.07399 0.0
H132 H 0.98866 0.49973 0.0502 0.0
H133 H 0.97152 0.50382 0.04601 0.0
H134 H 0.97746 0.50598 0.06355 0.0
H135 H 0.96483 0.49043 0.07783 0.0
H136 H 0.95214 0.48436 0.06568 0.0
C137 C 0.98542 0.43217 0.03789 0.0
C138 C 1.00003 0.44808 0.02185 0.0
C139 C 0.9267 0.4933 0.02208 0.0
C140 C 0.92365 0.50478 0.03045 0.0
C141 C 0.93249 0.50791 0.04159 0.0
C142 C 0.94411 0.49976 0.04437 0.0
C143 C 0.947 0.48832 0.03593 0.0
C144 C 0.93839 0.48529 0.02497 0.0
C145 C 0.94315 0.47281 0.01704 0.0
C146 C 0.95607 0.46891 0.02501 0.0
C147 C 0.95822 0.47799 0.0361 0.0
C148 C 0.93181 0.46158 0.01815 0.0
C149 C 0.94651 0.47739 0.00209 0.0
C150 C 0.99452 0.4795 0.07395 0.0
C151 C 0.00626 0.47143 0.07674 0.0
C152 C 0.00973 0.46063 0.06762 0.0
C153 C 0.00152 0.45777 0.05605 0.0
C154 C 0.98971 0.46581 0.05351 0.0
C155 C 0.98648 0.47656 0.06231 0.0
C156 C 0.97374 0.48422 0.0578 0.0
C157 C 0.9697 0.4761 0.04502 0.0
C158 C 0.97905 0.4653 0.04259 0.0
C159 C 0.9628 0.48293 0.0694 0.0
C160 C 0.97793 0.49926 0.05428 0.0
H161 H 0.94781 0.44924 0.99875 0.0
H162 H 0.98947 0.42109 0.00874 0.0
H163 H 0.99953 0.45277 0.01137 0.0
H164 H 0.00479 0.4561 0.0284 0.0
H165 H 0.00705 0.43904 0.02128 0.0
H166 H 0.97533 0.42667 0.03799 0.0
H167 H 0.99358 0.42441 0.03575 0.0
H168 H 0.9867 0.43606 0.04852 0.0
H169 H 0.92023 0.4907 0.01334 0.0
H170 H 0.9303 0.51658 0.0483 0.0
H171 H 0.95036 0.50267 0.05303 0.0
H172 H 0.9265 0.46206 0.02833 0.0
H173 H 0.92384 0.46293 0.01002 0.0
H174 H 0.93597 0.45098 0.01757 0.0
H175 H 0.95142 0.48777 0.00202 0.0
H176 H 0.95402 0.47056 0.99691 0.0
H177 H 0.937 0.47799 0.99572 0.0
H178 H 0.95285 0.42936 0.98461 0.0
C179 C 0.95691 0.44343 0.00121 0.0
C180 C 0.67872 0.78102 0.24951 0.0
C181 C 0.6699 0.76954 0.24852 0.0
C182 C 0.6725 0.7595 0.23831 0.0
C183 C 0.69224 0.77257 0.23016 0.0
C184 C 0.6898 0.78229 0.24031 0.0
C185 C 0.70023 0.79378 0.24009 0.0
H186 H 0.7571 0.82256 0.2115 0.0
C187 C 0.7045 0.77703 0.22222 0.0
C188 C 0.70927 0.78942 0.22806 0.0
H189 H 0.73292 0.83761 0.24592 0.0
H190 H 0.71771 0.81807 0.24398 0.0
H191 H 0.73122 0.81481 0.19288 0.0
H192 H 0.7566 0.79046 0.21999 0.0
H193 H 0.75366 0.78065 0.20501 0.0
H194 H 0.76262 0.79691 0.20369 0.0
H195 H 0.74826 0.80933 0.18812 0.0
H196 H 0.73331 0.79869 0.18493 0.0
C197 C 0.69251 0.80747 0.23711 0.0
C198 C 0.70821 0.79353 0.25396 0.0
C199 C 0.72042 0.74925 0.1806 0.0
C200 C 0.73111 0.75116 0.17095 0.0
C201 C 0.74017 0.76243 0.17262 0.0
C202 C 0.73851 0.77174 0.18356 0.0
C203 C 0.72763 0.76984 0.19296 0.0
C204 C 0.71886 0.75869 0.19145 0.0
C205 C 0.70781 0.7584 0.20237 0.0
C206 C 0.71132 0.77129 0.21058 0.0
C207 C 0.72295 0.77792 0.20502 0.0
C208 C 0.69361 0.75961 0.19513 0.0
C209 C 0.70971 0.74509 0.21105 0.0
C210 C 0.74847 0.82173 0.21856 0.0
C211 C 0.7463 0.83168 0.22893 0.0
C212 C 0.73501 0.83002 0.23799 0.0
C213 C 0.72611 0.81869 0.23678 0.0
C214 C 0.72843 0.80886 0.22638 0.0
C215 C 0.73944 0.8105 0.21746 0.0
C216 C 0.74017 0.79916 0.20687 0.0
C217 C 0.72788 0.79036 0.21101 0.0
C218 C 0.72106 0.79608 0.22245 0.0
C219 C 0.73825 0.80573 0.1924 0.0
C220 C 0.754 0.79137 0.20884 0.0
H221 H 0.68496 0.75302 0.22152 0.0
H222 H 0.67713 0.78881 0.25738 0.0
H223 H 0.70965 0.78276 0.25767 0.0
H224 H 0.71877 0.79774 0.25311 0.0
H225 H 0.70253 0.79928 0.2621 0.0
H226 H 0.68384 0.80577 0.22978 0.0
H227 H 0.68812 0.81191 0.24672 0.0
H228 H 0.69909 0.81529 0.23206 0.0
H229 H 0.71321 0.74077 0.17955 0.0
H230 H 0.74861 0.76403 0.16546 0.0
H231 H 0.74573 0.7801 0.18422 0.0
H232 H 0.69415 0.76698 0.18633 0.0
H233 H 0.69022 0.74947 0.19098 0.0
H234 H 0.68545 0.76373 0.20192 0.0
H235 H 0.72081 0.7423 0.21194 0.0
H236 H 0.70615 0.74628 0.22182 0.0
H237 H 0.70428 0.73621 0.20624 0.0
H238 H 0.6658 0.75061 0.23728 0.0
C239 C 0.68359 0.76096 0.22912 0.0
C240 C 0.03117 0.93039 0.50047 0.0
C241 C 0.01997 0.92122 0.49935 0.0
C242 C 0.01024 0.92324 0.48872 0.0
C243 C 0.0231 0.94302 0.48037 0.0
C244 C 0.03249 0.9412 0.49095 0.0
C245 C 0.04371 0.95192 0.49077 0.0
H246 H 0.07296 0.00758 0.46025 0.0
C247 C 0.0276 0.95504 0.47211 0.0
C248 C 0.03963 0.96035 0.4782 0.0
H249 H 0.0863 0.9862 0.49711 0.0
H250 H 0.0671 0.97051 0.49515 0.0
H251 H 0.04072 0.00747 0.46753 0.0
H252 H 0.06578 0.98027 0.44291 0.0
H253 H 0.0501 0.9825 0.4341 0.0
H254 H 0.06104 0.99725 0.43721 0.0
H255 H 0.04733 0.01235 0.45092 0.0
H256 H 0.03116 0.0033 0.45269 0.0
C257 C 0.04272 0.96044 0.50428 0.0
C258 C 0.0577 0.94445 0.48865 0.0
C259 C 0.0009 0.96862 0.429 0.0
C260 C 0.00279 0.97904 0.41905 0.0
C261 C 0.01393 0.98828 0.42058 0.0
C262 C 0.02306 0.98714 0.43174 0.0
C263 C 0.0211 0.97662 0.44153 0.0
C264 C 0.01014 0.96761 0.44008 0.0
C265 C 0.00967 0.95706 0.45147 0.0
C266 C 0.0222 0.96118 0.45993 0.0
C267 C 0.02885 0.97263 0.45405 0.0
C268 C 0.99604 0.95906 0.45962 0.0
C269 C 0.01139 0.94258 0.44489 0.0
C270 C 0.07181 0.99945 0.46784 0.0
C271 C 0.08119 0.99815 0.47885 0.0
C272 C 0.07915 0.98754 0.48862 0.0
C273 C 0.06802 0.97838 0.48742 0.0
C274 C 0.05877 0.97979 0.47634 0.0
C275 C 0.06072 0.99022 0.46681 0.0
C276 C 0.0498 0.99022 0.45576 0.0
C277 C 0.04096 0.97809 0.46027 0.0
C278 C 0.04629 0.972 0.47229 0.0
C279 C 0.04183 0.00406 0.45661 0.0
C280 C 0.05695 0.98752 0.4417 0.0
H281 H 0.00406 0.93496 0.47132 0.0
H282 H 0.0387 0.92925 0.50866 0.0
H283 H 0.05658 0.93575 0.48124 0.0
H284 H 0.06571 0.95116 0.48413 0.0
H285 H 0.06159 0.94013 0.49854 0.0
H286 H 0.03182 0.96136 0.50779 0.0
H287 H 0.04868 0.95551 0.51274 0.0
H288 H 0.04624 0.97121 0.503 0.0
H289 H 0.99236 0.96146 0.42826 0.0
H290 H 0.01575 0.99629 0.41299 0.0
H291 H 0.03136 0.99445 0.43225 0.0
H292 H 0.993 0.97013 0.4599 0.0
H293 H 0.98744 0.95322 0.45479 0.0
H294 H 0.99694 0.95603 0.47058 0.0
H295 H 0.01898 0.94291 0.43627 0.0
H296 H 0.0155 0.93482 0.45213 0.0
H297 H 0.00145 0.93879 0.44062 0.0
H298 H 0.00158 0.91626 0.48758 0.0
C299 C 0.01175 0.93405 0.47923 0.0
C300 C 0.2489 0.67828 0.78303 0.0
C301 C 0.24637 0.66802 0.77307 0.0
C302 C 0.23477 0.66934 0.76437 0.0
C303 C 0.22856 0.69088 0.77552 0.0
C304 C 0.23988 0.68953 0.7841 0.0
C305 C 0.24091 0.70114 0.79435 0.0
H306 H 0.21411 0.75974 0.82137 0.0
C307 C 0.2213 0.70376 0.77931 0.0
C308 C 0.22848 0.70981 0.79035 0.0
H309 H 0.2503 0.73725 0.83474 0.0
H310 H 0.24713 0.72088 0.8163 0.0
H311 H 0.1951 0.73308 0.81496 0.0
H312 H 0.22112 0.75837 0.78934 0.0
H313 H 0.20705 0.75345 0.77905 0.0
H314 H 0.20414 0.76381 0.79429 0.0
H315 H 0.19136 0.75078 0.81089 0.0
H316 H 0.18606 0.73696 0.79968 0.0
C317 C 0.23944 0.69496 0.80905 0.0
C318 C 0.25465 0.70889 0.79176 0.0
C319 C 0.17814 0.71816 0.75315 0.0
C320 C 0.1696 0.72987 0.75388 0.0
C321 C 0.17266 0.74028 0.76356 0.0
C322 C 0.18395 0.73896 0.77253 0.0
C323 C 0.19233 0.72715 0.77176 0.0
C324 C 0.18947 0.71708 0.76206 0.0
C325 C 0.19987 0.70555 0.76231 0.0
C326 C 0.20934 0.71027 0.77388 0.0
C327 C 0.20479 0.72285 0.77946 0.0
C328 C 0.19222 0.69201 0.76603 0.0
C329 C 0.20736 0.70528 0.74817 0.0
C330 C 0.22145 0.75138 0.82025 0.0
C331 C 0.23241 0.74975 0.82964 0.0
C332 C 0.24162 0.73862 0.82783 0.0
C333 C 0.2398 0.72914 0.81706 0.0
C334 C 0.22863 0.73074 0.80795 0.0
C335 C 0.21976 0.74179 0.80955 0.0
C336 C 0.2085 0.74188 0.79884 0.0
C337 C 0.21192 0.72888 0.79077 0.0
C338 C 0.22371 0.72241 0.79615 0.0
C339 C 0.19446 0.7407 0.80639 0.0
C340 C 0.21014 0.75507 0.78992 0.0
H341 H 0.21728 0.68112 0.75858 0.0
H342 H 0.2576 0.67746 0.79 0.0
H343 H 0.25692 0.70952 0.78052 0.0
H344 H 0.2544 0.71972 0.79532 0.0
H345 H 0.26343 0.70351 0.79679 0.0
H346 H 0.23236 0.6859 0.80902 0.0
H347 H 0.24957 0.69142 0.81308 0.0
H348 H 0.23477 0.70221 0.8165 0.0
H349 H 0.17615 0.7101 0.74565 0.0
H350 H 0.16619 0.74937 0.76432 0.0
H351 H 0.18567 0.74718 0.77974 0.0
H352 H 0.18396 0.69398 0.77376 0.0
H353 H 0.18729 0.68739 0.75677 0.0
H354 H 0.19899 0.68425 0.7709 0.0
H355 H 0.20859 0.71589 0.74397 0.0
H356 H 0.21798 0.70118 0.74883 0.0
H357 H 0.20145 0.69916 0.74048 0.0
H358 H 0.23266 0.66164 0.75654 0.0
C359 C 0.22589 0.68071 0.76552 0.0
C360 C 0.92692 0.50589 0.4799 0.0
C361 C 0.92419 0.4942 0.47173 0.0
C362 C 0.93326 0.4909 0.46085 0.0
C363 C 0.94725 0.51098 0.46612 0.0
C364 C 0.93848 0.51406 0.47695 0.0
C365 C 0.94293 0.52676 0.4847 0.0
H366 H 0.98652 0.58099 0.49083 0.0
C367 C 0.9581 0.5217 0.46567 0.0
C368 C 0.95567 0.53094 0.47657 0.0
H369 H 0.95227 0.57003 0.51733 0.0
H370 H 0.94769 0.55 0.50336 0.0
H371 H 0.97174 0.57391 0.46227 0.0
H372 H 0.99858 0.55009 0.48847 0.0
H373 H 0.00349 0.54676 0.47134 0.0
H374 H 0.00477 0.56409 0.47804 0.0
H375 H 0.98989 0.57736 0.46368 0.0
H376 H 0.98324 0.56497 0.45148 0.0
C377 C 0.93126 0.53763 0.48351 0.0
C378 C 0.94652 0.5225 0.4997 0.0
C379 C 0.9941 0.52086 0.42747 0.0
C380 C 0.00512 0.52969 0.42405 0.0
C381 C 0.00773 0.54127 0.43249 0.0
C382 C 0.9995 0.54405 0.44405 0.0
C383 C 0.98847 0.5352 0.44726 0.0
C384 C 0.98595 0.52381 0.43905 0.0
C385 C 0.9737 0.51562 0.44397 0.0
C386 C 0.9693 0.52397 0.45648 0.0
C387 C 0.97798 0.53542 0.45835 0.0
C388 C 0.96263 0.51584 0.43243 0.0
C389 C 0.97877 0.501 0.44802 0.0
C390 C 0.97811 0.57422 0.49372 0.0
C391 C 0.96971 0.57721 0.5052 0.0
C392 C 0.95877 0.56815 0.50843 0.0
C393 C 0.95617 0.55644 0.50035 0.0
C394 C 0.96459 0.55367 0.48887 0.0
C395 C 0.97541 0.56244 0.48578 0.0
C396 C 0.98339 0.55775 0.47331 0.0
C397 C 0.97558 0.54473 0.46943 0.0
C398 C 0.96453 0.54245 0.47853 0.0
C399 C 0.98215 0.56906 0.46206 0.0
C400 C 0.99839 0.55457 0.47789 0.0
H401 H 0.95119 0.49623 0.4495 0.0
H402 H 0.92027 0.50857 0.48847 0.0
H403 H 0.9506 0.51176 0.5001 0.0
H404 H 0.95481 0.52888 0.50425 0.0
H405 H 0.93728 0.52294 0.50647 0.0
H406 H 0.92673 0.53758 0.47295 0.0
H407 H 0.92282 0.53543 0.49095 0.0
H408 H 0.93489 0.5483 0.48512 0.0
H409 H 0.9917 0.51197 0.42114 0.0
H410 H 0.01626 0.54813 0.43021 0.0
H411 H 0.00204 0.55302 0.45003 0.0
H412 H 0.96236 0.52609 0.42723 0.0
H413 H 0.96485 0.50794 0.42442 0.0
H414 H 0.95205 0.51427 0.43634 0.0
H415 H 0.98936 0.50139 0.45244 0.0
H416 H 0.9724 0.4962 0.45618 0.0
H417 H 0.97907 0.49405 0.4389 0.0
H418 H 0.93133 0.48201 0.45436 0.0
C419 C 0.94475 0.49923 0.45799 0.0
C420 C 0.78137 0.75085 0.82078 0.0
C421 C 0.77062 0.75261 0.8304 0.0
C422 C 0.76131 0.76367 0.82859 0.0
C423 C 0.77358 0.77099 0.80804 0.0
C424 C 0.78263 0.76011 0.80974 0.0
C425 C 0.79351 0.75973 0.79866 0.0
H426 H 0.8222 0.78861 0.74181 0.0
C427 C 0.77781 0.77875 0.79561 0.0
C428 C 0.78947 0.77218 0.79003 0.0
H429 H 0.83542 0.75206 0.76374 0.0
H430 H 0.81633 0.75443 0.77955 0.0
H431 H 0.81479 0.80674 0.76909 0.0
H432 H 0.79038 0.78139 0.74198 0.0
H433 H 0.78 0.79548 0.74663 0.0
H434 H 0.79579 0.79843 0.73717 0.0
H435 H 0.81105 0.81136 0.75153 0.0
H436 H 0.79943 0.81568 0.76538 0.0
C437 C 0.80777 0.76166 0.80563 0.0
C438 C 0.7919 0.74605 0.79052 0.0
C439 C 0.75129 0.82174 0.78133 0.0
C440 C 0.75267 0.83103 0.77023 0.0
C441 C 0.76325 0.82876 0.76047 0.0
C442 C 0.77236 0.8176 0.76182 0.0
C443 C 0.7709 0.80851 0.77302 0.0
C444 C 0.76043 0.81059 0.78247 0.0
C445 C 0.76025 0.79969 0.79354 0.0
C446 C 0.77241 0.79079 0.78922 0.0
C447 C 0.77866 0.79606 0.77725 0.0
C448 C 0.7628 0.80686 0.80761 0.0
C449 C 0.74638 0.79177 0.79254 0.0
C450 C 0.82103 0.78118 0.75009 0.0
C451 C 0.83037 0.77016 0.75156 0.0
C452 C 0.82831 0.76057 0.76231 0.0
C453 C 0.81726 0.76201 0.77154 0.0
C454 C 0.8081 0.77316 0.77002 0.0
C455 C 0.81001 0.78245 0.75936 0.0
C456 C 0.79913 0.79353 0.7592 0.0
C457 C 0.79049 0.78947 0.77163 0.0
C458 C 0.79583 0.77757 0.77796 0.0
C459 C 0.80638 0.80763 0.76131 0.0
C460 C 0.7909 0.7923 0.74553 0.0
H461 H 0.75532 0.78103 0.81673 0.0
H462 H 0.78879 0.74257 0.82191 0.0
H463 H 0.78085 0.74299 0.78978 0.0
H464 H 0.7954 0.74688 0.7797 0.0
H465 H 0.79754 0.73749 0.79566 0.0
H466 H 0.80709 0.76914 0.81432 0.0
H467 H 0.81166 0.75175 0.80988 0.0
H468 H 0.81562 0.76602 0.79863 0.0
H469 H 0.74339 0.82318 0.7891 0.0
H470 H 0.76443 0.83555 0.75167 0.0
H471 H 0.78018 0.81649 0.75406 0.0
H472 H 0.77048 0.81533 0.80653 0.0
H473 H 0.75312 0.81143 0.81172 0.0
H474 H 0.76721 0.79988 0.81545 0.0
H475 H 0.7428 0.7911 0.78165 0.0
H476 H 0.7472 0.78093 0.79598 0.0
H477 H 0.73817 0.79703 0.79857 0.0
H478 H 0.75281 0.76516 0.8357 0.0
C479 C 0.76274 0.77284 0.8175 0.0
C480 C 0.28085 0.25005 0.32019 0.0
C481 C 0.27021 0.25182 0.32993 0.0
C482 C 0.26109 0.26307 0.3284 0.0
C483 C 0.27328 0.27051 0.30785 0.0
C484 C 0.28219 0.25948 0.30931 0.0
C485 C 0.29303 0.25916 0.29819 0.0
H486 H 0.32198 0.28869 0.24183 0.0
C487 C 0.27757 0.27843 0.29553 0.0
C488 C 0.28914 0.27183 0.28982 0.0
H489 H 0.33481 0.25162 0.26312 0.0
H490 H 0.31577 0.25394 0.27898 0.0
H491 H 0.31486 0.30644 0.26936 0.0
H492 H 0.29002 0.28181 0.24198 0.0
H493 H 0.2799 0.29603 0.2468 0.0
H494 H 0.29574 0.2988 0.23737 0.0
H495 H 0.31104 0.31145 0.25193 0.0
H496 H 0.29956 0.3156 0.26597 0.0
C497 C 0.30733 0.26075 0.30516 0.0
C498 C 0.2912 0.24567 0.28979 0.0
C499 C 0.25123 0.32169 0.28177 0.0
C500 C 0.25271 0.33116 0.27084 0.0
C501 C 0.26339 0.32907 0.26115 0.0
C502 C 0.27246 0.31787 0.26237 0.0
C503 C 0.27088 0.30857 0.27339 0.0
C504 C 0.26035 0.31052 0.2828 0.0
C505 C 0.26012 0.29949 0.29373 0.0
C506 C 0.27227 0.29061 0.28933 0.0
C507 C 0.27857 0.29603 0.27745 0.0
C508 C 0.26264 0.30646 0.30791 0.0
C509 C 0.24624 0.29162 0.29258 0.0
C510 C 0.32074 0.28114 0.24998 0.0
C511 C 0.32995 0.26999 0.25125 0.0
C512 C 0.3278 0.26023 0.26184 0.0
C513 C 0.31678 0.26165 0.27111 0.0
C514 C 0.30776 0.27294 0.2698 0.0
C515 C 0.30975 0.28238 0.2593 0.0
C516 C 0.299 0.29359 0.25934 0.0
C517 C 0.29034 0.28941 0.27172 0.0
C518 C 0.29555 0.27735 0.27783 0.0
C519 C 0.3064 0.30757 0.26168 0.0
C520 C 0.29074 0.29266 0.24566 0.0
H521 H 0.25532 0.28076 0.31691 0.0
H522 H 0.28794 0.24145 0.32095 0.0
H523 H 0.2801 0.24281 0.28898 0.0
H524 H 0.29474 0.24663 0.279 0.0
H525 H 0.29668 0.23692 0.29478 0.0
H526 H 0.30677 0.26801 0.31404 0.0
H527 H 0.31112 0.25068 0.30914 0.0
H528 H 0.31521 0.26521 0.29825 0.0
H529 H 0.24326 0.32302 0.2895 0.0
H530 H 0.26465 0.33603 0.2525 0.0
H531 H 0.28035 0.31689 0.25466 0.0
H532 H 0.27005 0.31518 0.30692 0.0
H533 H 0.25289 0.31066 0.31224 0.0
H534 H 0.26739 0.29946 0.31555 0.0
H535 H 0.24292 0.29074 0.28162 0.0
H536 H 0.2469 0.28086 0.29628 0.0
H537 H 0.23792 0.29705 0.2983 0.0
H538 H 0.25292 0.26482 0.33583 0.0
C539 C 0.26255 0.27239 0.31743 0.0
C540 C 0.47978 0.927 0.50776 0.0
C541 C 0.47178 0.92437 0.49594 0.0
C542 C 0.4611 0.9336 0.49243 0.0
C543 C 0.46626 0.94756 0.51256 0.0
C544 C 0.47691 0.93866 0.51582 0.0
C545 C 0.48464 0.94314 0.52852 0.0
H546 H 0.49083 0.98705 0.58248 0.0
C547 C 0.46587 0.95853 0.52317 0.0
C548 C 0.47669 0.95605 0.53249 0.0
H549 H 0.51727 0.95267 0.57176 0.0
H550 H 0.50337 0.94806 0.5517 0.0
H551 H 0.46211 0.97245 0.57505 0.0
H552 H 0.489 0.99905 0.55176 0.0
H553 H 0.47202 0.00395 0.54777 0.0
H554 H 0.47813 0.00545 0.56532 0.0
H555 H 0.46393 0.99052 0.57871 0.0
H556 H 0.45165 0.98431 0.56618 0.0
C557 C 0.48319 0.93163 0.53953 0.0
C558 C 0.49973 0.94644 0.52433 0.0
C559 C 0.42783 0.99471 0.52208 0.0
C560 C 0.42451 0.00584 0.5308 0.0
C561 C 0.43307 0.0086 0.54225 0.0
C562 C 0.44461 1.00034 0.54507 0.0
C563 C 0.44768 0.98916 0.53636 0.0
C564 C 0.4394 0.98655 0.52504 0.0
C565 C 0.44427 0.97423 0.51693 0.0
C566 C 0.45678 0.96984 0.5253 0.0
C567 C 0.4587 0.97861 0.53668 0.0
C568 C 0.43269 0.9632 0.51725 0.0
C569 C 0.44832 0.97915 0.50225 0.0
C570 C 0.49374 0.97861 0.57576 0.0
C571 C 0.50516 0.97016 0.57886 0.0
C572 C 0.5084 0.95919 0.56983 0.0
C573 C 0.50036 0.95658 0.55809 0.0
C574 C 0.48894 0.96504 0.55523 0.0
C575 C 0.48587 0.97591 0.56393 0.0
C576 C 0.47353 0.984 0.55909 0.0
C577 C 0.46968 0.97616 0.54608 0.0
C578 C 0.47868 0.965 0.54394 0.0
C579 C 0.46218 0.98291 0.57031 0.0
C580 C 0.47828 0.99894 0.55588 0.0
H581 H 0.44993 0.95171 0.49752 0.0
H582 H 0.48821 0.92022 0.51057 0.0
H583 H 0.50034 0.95011 0.51346 0.0
H584 H 0.50425 0.95493 0.53047 0.0
H585 H 0.50642 0.93717 0.52523 0.0
H586 H 0.4725 0.92745 0.53962 0.0
H587 H 0.49032 0.92292 0.53732 0.0
H588 H 0.48506 0.9353 0.55014 0.0
H589 H 0.42143 0.9922 0.51326 0.0
H590 H 0.4309 0.01723 0.54902 0.0
H591 H 0.45066 0.00298 0.55396 0.0
H592 H 0.42776 0.9628 0.52762 0.0
H593 H 0.42451 0.96559 0.50958 0.0
H594 H 0.4365 0.95263 0.51539 0.0
H595 H 0.45248 0.98986 0.50249 0.0
H596 H 0.45668 0.97291 0.49765 0.0
H597 H 0.43927 0.97911 0.49522 0.0
H598 H 0.45477 0.93175 0.4834 0.0
C599 C 0.45827 0.94515 0.50068 0.0
C600 C 0.1798 0.2821 0.75018 0.0
C601 C 0.17072 0.27081 0.74926 0.0
C602 C 0.17294 0.2608 0.73893 0.0
C603 C 0.19285 0.27347 0.73058 0.0
C604 C 0.19077 0.28318 0.74082 0.0
C605 C 0.20144 0.29445 0.74049 0.0
H606 H 0.25815 0.32249 0.71082 0.0
C607 C 0.20509 0.27771 0.72249 0.0
C608 C 0.21021 0.28996 0.7283 0.0
H609 H 0.23508 0.33763 0.74594 0.0
H610 H 0.21956 0.31828 0.74428 0.0
H611 H 0.23156 0.31465 0.69271 0.0
H612 H 0.25765 0.29058 0.71943 0.0
H613 H 0.25404 0.28042 0.70486 0.0
H614 H 0.26322 0.29648 0.70277 0.0
H615 H 0.24874 0.30964 0.68791 0.0
H616 H 0.23409 0.29862 0.68466 0.0
C617 C 0.19397 0.30831 0.73769 0.0
C618 C 0.20962 0.29398 0.75424 0.0
C619 C 0.22005 0.24946 0.68084 0.0
C620 C 0.23085 0.25093 0.67124 0.0
C621 C 0.24016 0.26203 0.67276 0.0
C622 C 0.23867 0.27154 0.68356 0.0
C623 C 0.22774 0.27001 0.69298 0.0
C624 C 0.2187 0.25907 0.69157 0.0
C625 C 0.20776 0.25903 0.7026 0.0
C626 C 0.21164 0.27184 0.71075 0.0
C627 C 0.22334 0.27823 0.70506 0.0
C628 C 0.19353 0.26057 0.69547 0.0
C629 C 0.20942 0.24569 0.71127 0.0
C630 C 0.24969 0.32171 0.71809 0.0
C631 C 0.2479 0.33163 0.72855 0.0
C632 C 0.23685 0.33006 0.73791 0.0
C633 C 0.22777 0.31884 0.73687 0.0
C634 C 0.22969 0.30905 0.72635 0.0
C635 C 0.24051 0.31057 0.71718 0.0
C636 C 0.24092 0.2992 0.70661 0.0
C637 C 0.22859 0.29057 0.71099 0.0
C638 C 0.22205 0.2964 0.72254 0.0
C639 C 0.23882 0.30576 0.69217 0.0
C640 C 0.25468 0.29124 0.70835 0.0
H641 H 0.185 0.25416 0.72192 0.0
H642 H 0.1785 0.28986 0.75812 0.0
H643 H 0.2108 0.28317 0.75794 0.0
H644 H 0.22028 0.29787 0.75321 0.0
H645 H 0.20424 0.29989 0.76246 0.0
H646 H 0.18522 0.30684 0.73039 0.0
H647 H 0.18971 0.31274 0.74737 0.0
H648 H 0.20065 0.31606 0.73268 0.0
H649 H 0.21283 0.24096 0.68009 0.0
H650 H 0.24848 0.26351 0.66544 0.0
H651 H 0.24604 0.27978 0.68409 0.0
H652 H 0.19416 0.26794 0.68667 0.0
H653 H 0.18989 0.25052 0.69133 0.0
H654 H 0.18552 0.26485 0.70233 0.0
H655 H 0.22045 0.24258 0.71198 0.0
H656 H 0.20609 0.247 0.7221 0.0
H657 H 0.20365 0.23696 0.70659 0.0
H658 H 0.16603 0.25207 0.73793 0.0
C659 C 0.18393 0.26207 0.72959 0.0
C660 C 0.75968 0.17436 0.72766 0.0
C661 C 0.7488 0.17077 0.71876 0.0
C662 C 0.74602 0.17918 0.70722 0.0
C663 C 0.76475 0.1945 0.7136 0.0
C664 C 0.76754 0.18617 0.72484 0.0
C665 C 0.77978 0.1912 0.73298 0.0
H666 H 0.83084 0.23818 0.7416 0.0
C667 C 0.77483 0.20595 0.71359 0.0
C668 C 0.78371 0.20405 0.7249 0.0
H669 H 0.82287 0.20149 0.76571 0.0
H670 H 0.80314 0.1962 0.75146 0.0
H671 H 0.79887 0.24772 0.73878 0.0
H672 H 0.8258 0.22416 0.71242 0.0
H673 H 0.81621 0.23524 0.70176 0.0
H674 H 0.82756 0.24247 0.71462 0.0
H675 H 0.81258 0.25553 0.72908 0.0
H676 H 0.79566 0.253 0.72173 0.0
C677 C 0.77482 0.19475 0.74775 0.0
C678 C 0.79119 0.17998 0.73233 0.0
C679 C 0.77238 0.24291 0.67641 0.0
C680 C 0.7802 0.25486 0.6738 0.0
C681 C 0.7911 0.25826 0.68284 0.0
C682 C 0.79422 0.24986 0.6942 0.0
C683 C 0.78638 0.2379 0.6966 0.0
C684 C 0.77562 0.23464 0.68782 0.0
C685 C 0.76835 0.22159 0.69204 0.0
C686 C 0.77656 0.21751 0.70475 0.0
C687 C 0.78713 0.22709 0.70735 0.0
C688 C 0.75321 0.22529 0.69565 0.0
C689 C 0.76994 0.21093 0.68021 0.0
C690 C 0.82474 0.22909 0.74389 0.0
C691 C 0.82841 0.22024 0.75479 0.0
C692 C 0.82034 0.20839 0.75729 0.0
C693 C 0.80885 0.20536 0.74902 0.0
C694 C 0.80542 0.21422 0.73806 0.0
C695 C 0.81331 0.22586 0.73565 0.0
C696 C 0.80832 0.23389 0.72333 0.0
C697 C 0.79618 0.22513 0.71871 0.0
C698 C 0.79449 0.21365 0.72741 0.0
C699 C 0.80368 0.24835 0.72836 0.0
C700 C 0.82004 0.2341 0.71243 0.0
H701 H 0.75122 0.19703 0.6957 0.0
H702 H 0.76219 0.16797 0.73649 0.0
H703 H 0.7907 0.17412 0.72246 0.0
H704 H 0.80172 0.18435 0.73254 0.0
H705 H 0.79007 0.17244 0.74089 0.0
H706 H 0.76458 0.19995 0.74745 0.0
H707 H 0.77373 0.18527 0.75411 0.0
H708 H 0.78171 0.20204 0.75315 0.0
H709 H 0.76383 0.24009 0.66979 0.0
H710 H 0.79739 0.26732 0.68099 0.0
H711 H 0.80269 0.25298 0.70061 0.0
H712 H 0.75265 0.23547 0.70095 0.0
H713 H 0.74675 0.22593 0.68619 0.0
H714 H 0.74842 0.21794 0.70292 0.0
H715 H 0.78006 0.21212 0.67492 0.0
H716 H 0.76988 0.20014 0.68391 0.0
H717 H 0.76173 0.21224 0.67232 0.0
H718 H 0.73762 0.17667 0.70027 0.0
C719 C 0.75389 0.19103 0.70462 0.0
C720 C 0.52996 0.57041 0.49923 0.0
C721 C 0.5192 0.58004 0.50082 0.0
C722 C 0.50993 0.5784 0.51195 0.0
C723 C 0.52233 0.55808 0.51968 0.0
C724 C 0.53137 0.55963 0.50876 0.0
C725 C 0.54255 0.54886 0.50881 0.0
H726 H 0.57255 0.4937 0.53951 0.0
C727 C 0.52687 0.54604 0.52788 0.0
C728 C 0.53875 0.54061 0.52159 0.0
H729 H 0.58542 0.51495 0.50242 0.0
H730 H 0.56613 0.53053 0.50446 0.0
H731 H 0.56539 0.52036 0.55669 0.0
H732 H 0.53966 0.49372 0.53214 0.0
H733 H 0.53061 0.49756 0.5474 0.0
H734 H 0.54685 0.48852 0.54841 0.0
H735 H 0.56017 0.50358 0.56255 0.0
H736 H 0.54965 0.51867 0.5655 0.0
C737 C 0.55663 0.55629 0.51044 0.0
C738 C 0.54115 0.54015 0.49547 0.0
C739 C 0.50009 0.53197 0.57078 0.0
C740 C 0.50207 0.52159 0.58077 0.0
C741 C 0.51341 0.51256 0.57932 0.0
C742 C 0.52256 0.51382 0.56818 0.0
C743 C 0.52046 0.52427 0.55835 0.0
C744 C 0.50938 0.53314 0.55976 0.0
C745 C 0.50896 0.54385 0.54852 0.0
C746 C 0.52156 0.53987 0.54008 0.0
C747 C 0.52822 0.52837 0.54587 0.0
C748 C 0.51057 0.55827 0.55528 0.0
C749 C 0.49541 0.54188 0.54026 0.0
C750 C 0.57113 0.50162 0.53175 0.0
C751 C 0.58056 0.5031 0.52081 0.0
C752 C 0.57843 0.5137 0.51105 0.0
C753 C 0.56717 0.5227 0.51222 0.0
C754 C 0.55791 0.52117 0.52328 0.0
C755 C 0.55995 0.51074 0.53279 0.0
C756 C 0.54912 0.51074 0.54393 0.0
C757 C 0.54026 0.52289 0.53953 0.0
C758 C 0.54546 0.52896 0.52744 0.0
C759 C 0.55636 0.51337 0.55796 0.0
C760 C 0.54113 0.49691 0.54308 0.0
H761 H 0.50406 0.56687 0.52959 0.0
H762 H 0.53719 0.5712 0.49073 0.0
H763 H 0.53011 0.53866 0.4927 0.0
H764 H 0.54534 0.52961 0.49657 0.0
H765 H 0.54629 0.54531 0.48661 0.0
H766 H 0.55563 0.56554 0.51718 0.0
H767 H 0.56066 0.5598 0.5003 0.0
H768 H 0.56452 0.54985 0.51556 0.0
H769 H 0.49144 0.53902 0.57144 0.0
H770 H 0.51538 0.50463 0.58694 0.0
H771 H 0.53099 0.50666 0.56773 0.0
H772 H 0.51713 0.55773 0.56469 0.0
H773 H 0.5004 0.56255 0.55839 0.0
H774 H 0.51588 0.56577 0.54852 0.0
H775 H 0.49308 0.53072 0.5389 0.0
H776 H 0.49596 0.54611 0.5297 0.0
H777 H 0.48653 0.54665 0.54573 0.0
H778 H 0.50167 0.58574 0.51361 0.0
C779 C 0.5114 0.56748 0.52132 0.0
C780 C 0.53134 0.43028 1.00004 0.0
C781 C 0.52035 0.42087 0.99873 0.0
C782 C 0.51075 0.42272 0.98794 0.0
C783 C 0.52327 0.44284 0.9799 0.0
C784 C 0.53258 0.44113 0.99056 0.0
C785 C 0.54372 0.45194 0.99044 0.0
H786 H 0.57239 0.50815 0.96041 0.0
C787 C 0.52767 0.45495 0.97171 0.0
C788 C 0.53964 0.46034 0.97786 0.0
H789 H 0.58626 0.48625 0.99678 0.0
H790 H 0.56717 0.47047 0.99475 0.0
H791 H 0.5398 0.50726 0.96773 0.0
H792 H 0.56589 0.48138 0.94277 0.0
H793 H 0.55003 0.48265 0.93412 0.0
H794 H 0.56017 0.49802 0.937 0.0
H795 H 0.54693 0.51278 0.95154 0.0
H796 H 0.53081 0.50353 0.95242 0.0
C797 C 0.54255 0.46045 0.00395 0.0
C798 C 0.55779 0.44459 0.98842 0.0
C799 C 0.50052 0.46901 0.92903 0.0
C800 C 0.50239 0.47943 0.91906 0.0
C801 C 0.51368 0.48853 0.92049 0.0
C802 C 0.52288 0.4873 0.93158 0.0
C803 C 0.52089 0.47681 0.94139 0.0
C804 C 0.50987 0.46787 0.94 0.0
C805 C 0.50956 0.45716 0.95125 0.0
C806 C 0.52219 0.46117 0.95962 0.0
C807 C 0.52875 0.47272 0.95381 0.0
C808 C 0.49604 0.45905 0.95959 0.0
C809 C 0.5112 0.44276 0.94446 0.0
C810 C 0.57139 0.49989 0.96788 0.0
C811 C 0.58088 0.4985 0.97879 0.0
C812 C 0.57902 0.4877 0.98839 0.0
C813 C 0.56795 0.47847 0.98714 0.0
C814 C 0.5586 0.47998 0.97616 0.0
C815 C 0.5604 0.49056 0.96677 0.0
C816 C 0.54949 0.49053 0.95572 0.0
C817 C 0.54081 0.47823 0.96007 0.0
C818 C 0.54621 0.47208 0.97203 0.0
C819 C 0.54132 0.50424 0.95675 0.0
C820 C 0.55667 0.48813 0.94161 0.0
H821 H 0.50455 0.43441 0.97053 0.0
H822 H 0.53879 0.42929 0.00832 0.0
H823 H 0.55673 0.43562 0.98133 0.0
H824 H 0.56564 0.45125 0.98355 0.0
H825 H 0.56187 0.44067 0.9984 0.0
H826 H 0.53158 0.46162 0.00712 0.0
H827 H 0.54813 0.45532 0.01256 0.0
H828 H 0.5464 0.47112 0.00283 0.0
H829 H 0.49191 0.46192 0.92839 0.0
H830 H 0.51557 0.4965 0.91288 0.0
H831 H 0.53126 0.49453 0.93202 0.0
H832 H 0.49337 0.47018 0.96056 0.0
H833 H 0.48724 0.45381 0.95443 0.0
H834 H 0.49685 0.45529 0.97031 0.0
H835 H 0.5182 0.44329 0.93537 0.0
H836 H 0.516 0.43508 0.95137 0.0
H837 H 0.5011 0.43873 0.94082 0.0
H838 H 0.50228 0.41555 0.98659 0.0
C839 C 0.51215 0.43363 0.97855 0.0
C840 C 0.74968 0.17986 0.28148 0.0
C841 C 0.74821 0.17047 0.27049 0.0
C842 C 0.73756 0.17265 0.26078 0.0
C843 C 0.73003 0.19303 0.27319 0.0
C844 C 0.74056 0.19102 0.28259 0.0
C845 C 0.74077 0.20199 0.2936 0.0
H846 H 0.71231 0.25937 0.32161 0.0
C847 C 0.72228 0.20549 0.27738 0.0
C848 C 0.72857 0.21084 0.28929 0.0
H849 H 0.74807 0.23668 0.33574 0.0
H850 H 0.74573 0.22082 0.31671 0.0
H851 H 0.69391 0.23257 0.31443 0.0
H852 H 0.72 0.25859 0.28961 0.0
H853 H 0.70541 0.25464 0.27962 0.0
H854 H 0.70334 0.2641 0.29553 0.0
H855 H 0.68924 0.2499 0.30982 0.0
H856 H 0.68533 0.23548 0.29873 0.0
C857 C 0.73832 0.19491 0.30773 0.0
C858 C 0.75462 0.20993 0.29247 0.0
C859 C 0.67995 0.22029 0.25013 0.0
C860 C 0.67057 0.23128 0.25158 0.0
C861 C 0.67257 0.24086 0.26236 0.0
C862 C 0.6836 0.23943 0.27161 0.0
C863 C 0.6928 0.22831 0.2701 0.0
C864 C 0.69093 0.21902 0.25944 0.0
C865 C 0.7018 0.20794 0.25933 0.0
C866 C 0.71043 0.21204 0.27176 0.0
C867 C 0.70508 0.22395 0.27805 0.0
C868 C 0.69454 0.19385 0.26148 0.0
C869 C 0.71005 0.20913 0.24566 0.0
C870 C 0.71958 0.25092 0.32066 0.0
C871 C 0.73039 0.24928 0.33022 0.0
C872 C 0.73975 0.23828 0.32845 0.0
C873 C 0.73832 0.22902 0.31742 0.0
C874 C 0.72742 0.23075 0.30801 0.0
C875 C 0.71831 0.24159 0.30969 0.0
C876 C 0.70741 0.24188 0.29863 0.0
C877 C 0.71146 0.2294 0.29007 0.0
C878 C 0.72316 0.22289 0.29564 0.0
C879 C 0.69317 0.23996 0.30566 0.0
C880 C 0.70897 0.25552 0.29041 0.0
H881 H 0.72062 0.18488 0.25437 0.0
H882 H 0.75764 0.17847 0.28921 0.0
H883 H 0.75809 0.21063 0.28154 0.0
H884 H 0.75382 0.22075 0.29595 0.0
H885 H 0.7629 0.20467 0.29841 0.0
H886 H 0.73066 0.1864 0.30675 0.0
H887 H 0.74803 0.19039 0.31182 0.0
H888 H 0.73392 0.20193 0.31555 0.0
H889 H 0.67884 0.21286 0.24184 0.0
H890 H 0.66543 0.24934 0.26381 0.0
H891 H 0.68449 0.24701 0.27963 0.0
H892 H 0.68601 0.19481 0.26912 0.0
H893 H 0.69002 0.19001 0.25167 0.0
H894 H 0.70143 0.18586 0.26576 0.0
H895 H 0.71069 0.22005 0.24215 0.0
H896 H 0.72092 0.20582 0.24674 0.0
H897 H 0.70509 0.20308 0.23728 0.0
H898 H 0.73632 0.16577 0.25206 0.0
C899 C 0.72849 0.18384 0.26208 0.0
C900 C 0.42573 0.00662 0.97863 0.0
C901 C 0.42281 0.99523 0.97012 0.0
C902 C 0.43176 0.99221 0.95905 0.0
C903 C 0.44609 0.01186 0.96497 0.0
C904 C 0.4374 0.01471 0.97592 0.0
C905 C 0.44209 0.02704 0.9841 0.0
H906 H 0.48724 0.07966 0.99265 0.0
C907 C 0.45724 0.02228 0.96498 0.0
C908 C 0.455 0.03115 0.97623 0.0
H909 H 0.45174 0.06945 0.01775 0.0
H910 H 0.44696 0.04982 0.00328 0.0
H911 H 0.47283 0.07347 0.96322 0.0
H912 H 0.4984 0.04888 0.98997 0.0
H913 H 0.5032 0.04479 0.97299 0.0
H914 H 0.50546 0.06221 0.97923 0.0
H915 H 0.49084 0.07691 0.96596 0.0
H916 H 0.48512 0.06498 0.95291 0.0
C917 C 0.43069 0.03823 0.98316 0.0
C918 C 0.44544 0.02221 0.99898 0.0
C919 C 0.49345 0.02196 0.92697 0.0
C920 C 0.50513 0.0302 0.92431 0.0
C921 C 0.5084 0.0409 0.93365 0.0
C922 C 0.50012 0.04349 0.94522 0.0
C923 C 0.48841 0.03528 0.9476 0.0
C924 C 0.48534 0.02462 0.93865 0.0
C925 C 0.47274 0.01669 0.94307 0.0
C926 C 0.46864 0.0245 0.95603 0.0
C927 C 0.4778 0.03544 0.95857 0.0
C928 C 0.46172 0.01804 0.93156 0.0
C929 C 0.47715 0.00164 0.94629 0.0
C930 C 0.47851 0.07312 0.99512 0.0
C931 C 0.46982 0.0762 0.00635 0.0
C932 C 0.45848 0.06748 0.00905 0.0
C933 C 0.45576 0.05601 0.00067 0.0
C934 C 0.46444 0.05317 0.9894 0.0
C935 C 0.47565 0.06162 0.98683 0.0
C936 C 0.48378 0.05698 0.97444 0.0
C937 C 0.47556 0.04441 0.96996 0.0
C938 C 0.46424 0.04226 0.97874 0.0
C939 C 0.48326 0.06866 0.96352 0.0
C940 C 0.49852 0.05308 0.97928 0.0
H941 H 0.4497 0.99768 0.94778 0.0
H942 H 0.41916 0.0091 0.98733 0.0
H943 H 0.4497 0.01154 0.99898 0.0
H944 H 0.45349 0.02853 0.004 0.0
H945 H 0.43604 0.02219 0.00555 0.0
H946 H 0.42593 0.03835 0.97271 0.0
H947 H 0.42234 0.03626 0.99077 0.0
H948 H 0.43466 0.0488 0.98468 0.0
H949 H 0.49052 0.0137 0.92003 0.0
H950 H 0.51748 0.04723 0.93211 0.0
H951 H 0.50317 0.0518 0.95187 0.0
H952 H 0.46157 0.02872 0.92733 0.0
H953 H 0.46394 0.01088 0.92288 0.0
H954 H 0.45112 0.01615 0.93526 0.0
H955 H 0.48794 0.00122 0.95018 0.0
H956 H 0.47092 0.99689 0.95459 0.0
H957 H 0.47659 0.99506 0.93692 0.0
H958 H 0.42968 0.98356 0.95228 0.0
C959 C 0.44335 0.00047 0.95641 0.0
Li960 Li 0.26259 0.88394 0.99902 0.0
Li961 Li 0.25149 0.86658 0.01381 0.0
Li962 Li 0.24821 0.8666 0.98787 0.0
Li963 Li 0.23665 0.88386 0.00245 0.0
C964 C 0.27911 0.86138 0.99699 0.0
N965 N 0.30712 0.85742 0.99328 0.0
C966 C 0.28723 0.85636 0.00782 0.0
C967 C 0.28521 0.86417 0.98422 0.0
C968 C 0.30138 0.85448 0.00575 0.0
C969 C 0.2994 0.86217 0.98257 0.0
C970 C 0.25213 0.89056 0.02977 0.0
C971 C 0.2409 0.89344 0.05181 0.0
N972 N 0.25305 0.89772 0.05738 0.0
C973 C 0.26446 0.89518 0.03566 0.0
C974 C 0.24021 0.88985 0.03786 0.0
C975 C 0.26474 0.89867 0.04965 0.0
C976 C 0.2782 0.90571 0.9875 0.0
N977 N 0.27851 0.89534 0.99696 0.0
C978 C 0.30175 0.901 0.00304 0.0
C979 C 0.2899 0.893 0.00482 0.0
C980 C 0.30179 0.91167 0.99324 0.0
C981 C 0.28977 0.91406 0.98548 0.0
H982 H 0.26896 0.90747 0.9815 0.0
H983 H 0.2898 0.8849 0.01248 0.0
C984 C 0.24564 0.84415 0.03172 0.0
N985 N 0.2538 0.85542 0.0299 0.0
C986 C 0.24718 0.83586 0.04343 0.0
C987 C 0.26571 0.85073 0.051 0.0
C988 C 0.26378 0.85874 0.03918 0.0
C989 C 0.25733 0.83912 0.05327 0.0
H990 H 0.23801 0.84151 0.02403 0.0
H991 H 0.2704 0.86751 0.03731 0.0
C992 C 0.24525 0.88918 0.97157 0.0
N993 N 0.24044 0.89319 0.94373 0.0
C994 C 0.23212 0.89297 0.96694 0.0
C995 C 0.25599 0.88765 0.96205 0.0
C996 C 0.22989 0.8949 0.95283 0.0
C997 C 0.25334 0.88966 0.94802 0.0
C998 C 0.22115 0.85978 0.00599 0.0
C999 C 0.21244 0.85433 0.99587 0.0
C1000 C 0.21627 0.86137 0.01948 0.0
C1001 C 0.19889 0.85083 0.99934 0.0
C1002 C 0.20266 0.85775 0.02255 0.0
N1003 N 0.19431 0.85262 0.0125 0.0
C1004 C 0.2561 0.84565 0.96918 0.0
C1005 C 0.2353 0.85704 0.96325 0.0
C1006 C 0.25525 0.83743 0.95737 0.0
N1007 N 0.24629 0.85532 0.97181 0.0
C1008 C 0.23404 0.84907 0.9513 0.0
C1009 C 0.24414 0.83913 0.94819 0.0
H1010 H 0.26459 0.84426 0.97628 0.0
H1011 H 0.2275 0.86463 0.96567 0.0
C1012 C 0.22207 0.90722 0.01176 0.0
N1013 N 0.2207 0.89525 0.00457 0.0
C1014 C 0.21077 0.916 0.01352 0.0
C1015 C 0.19687 0.90007 1.00029 0.0
C1016 C 0.20845 0.89163 0.99876 0.0
C1017 C 0.19794 0.91246 0.00776 0.0
H1018 H 0.23197 0.90999 0.0161 0.0
H1019 H 0.2077 0.88232 0.99269 0.0
O1020 O 0.26526 0.86344 0.99888 0.0
O1021 O 0.2517 0.88705 0.01609 0.0
O1022 O 0.2476 0.88712 0.98535 0.0
O1023 O 0.23443 0.86335 0.00274 0.0
H1024 H 0.28268 0.85397 0.01771 0.0
H1025 H 0.27907 0.86784 0.97568 0.0
H1026 H 0.30779 0.85068 0.01407 0.0
H1027 H 0.30426 0.86438 0.97276 0.0
H1028 H 0.23175 0.89289 0.05819 0.0
H1029 H 0.27375 0.89596 0.02953 0.0
H1030 H 0.2305 0.88671 0.0334 0.0
H1031 H 0.27424 0.90215 0.05437 0.0
H1032 H 0.31073 0.89896 0.00939 0.0
H1033 H 0.2894 0.92215 0.97777 0.0
H1034 H 0.24066 0.82686 0.04463 0.0
H1035 H 0.27362 0.85367 0.05833 0.0
H1036 H 0.22373 0.89432 0.97415 0.0
H1037 H 0.26626 0.88499 0.96545 0.0
H1038 H 0.21975 0.89774 0.9491 0.0
H1039 H 0.26154 0.88843 0.94054 0.0
H1040 H 0.21607 0.85286 0.98542 0.0
H1041 H 0.22296 0.86521 0.02752 0.0
H1042 H 0.19201 0.84669 0.99158 0.0
H1043 H 0.19875 0.85897 0.03294 0.0
H1044 H 0.26313 0.82971 0.95554 0.0
H1045 H 0.22535 0.85081 0.9445 0.0
H1046 H 0.21204 0.9254 0.01943 0.0
H1047 H 0.18726 0.89708 0.99542 0.0
Li1048 Li 0.11655 0.50155 0.26372 0.0
Li1049 Li 0.13409 0.48765 0.25153 0.0
Li1050 Li 0.13435 0.51294 0.24953 0.0
Li1051 Li 0.11705 0.49932 0.23765 0.0
C1052 C 0.14149 0.50949 0.27709 0.0
N1053 N 0.15106 0.52583 0.2984 0.0
C1054 C 0.15389 0.50624 0.28369 0.0
C1055 C 0.13396 0.52105 0.28131 0.0
C1056 C 0.15855 0.51463 0.29446 0.0
C1057 C 0.13897 0.52918 0.2921 0.0
C1058 C 0.11237 0.47112 0.25451 0.0
C1059 C 0.11287 0.44748 0.24671 0.0
N1060 N 0.11026 0.44317 0.25981 0.0
C1061 C 0.10955 0.46646 0.26787 0.0
C1062 C 0.11391 0.46157 0.24381 0.0
C1063 C 0.10857 0.45229 0.27035 0.0
C1064 C 0.09224 0.50806 0.27842 0.0
N1065 N 0.10518 0.50281 0.27969 0.0
C1066 C 0.10214 0.49993 0.304 0.0
C1067 C 0.11018 0.49861 0.29211 0.0
C1068 C 0.08882 0.50561 0.30309 0.0
C1069 C 0.08385 0.5096 0.29005 0.0
H1070 H 0.0885 0.51119 0.26837 0.0
H1071 H 0.12044 0.49426 0.29278 0.0
C1072 C 0.15424 0.46813 0.24317 0.0
N1073 N 0.14547 0.47172 0.25352 0.0
C1074 C 0.16278 0.45661 0.24454 0.0
C1075 C 0.15325 0.45276 0.26728 0.0
C1076 C 0.14497 0.46443 0.26551 0.0
C1077 C 0.16233 0.44873 0.25671 0.0
H1078 H 0.15472 0.47429 0.2339 0.0
H1079 H 0.13821 0.46776 0.27374 0.0
C1080 C 0.11146 0.52946 0.24594 0.0
N1081 N 0.10669 0.55679 0.2393 0.0
C1082 C 0.11657 0.53494 0.23362 0.0
C1083 C 0.10399 0.53792 0.25494 0.0
C1084 C 0.11404 0.54876 0.23043 0.0
C1085 C 0.10166 0.5517 0.25138 0.0
C1086 C 0.13874 0.49767 0.22087 0.0
C1087 C 0.14287 0.50892 0.21282 0.0
C1088 C 0.13584 0.48506 0.21449 0.0
C1089 C 0.14392 0.50739 0.19852 0.0
C1090 C 0.13698 0.48395 0.20016 0.0
N1091 N 0.14096 0.49504 0.19253 0.0
C1092 C 0.15852 0.52686 0.24185 0.0
C1093 C 0.14297 0.54099 0.25437 0.0
C1094 C 0.16756 0.53795 0.24008 0.0
N1095 N 0.14635 0.52863 0.2486 0.0
C1096 C 0.15174 0.55234 0.25293 0.0
C1097 C 0.16413 0.55094 0.24552 0.0
H1098 H 0.16114 0.51685 0.23768 0.0
H1099 H 0.13339 0.54214 0.25994 0.0
C1100 C 0.09532 0.48789 0.222 0.0
N1101 N 0.10535 0.49771 0.22173 0.0
C1102 C 0.08681 0.48582 0.21053 0.0
C1103 C 0.09897 0.50412 0.19875 0.0
C1104 C 0.10712 0.50593 0.21048 0.0
C1105 C 0.08871 0.49391 0.19865 0.0
H1106 H 0.09397 0.48157 0.23109 0.0
H1107 H 0.11497 0.5138 0.21047 0.0
O1108 O 0.13683 0.50139 0.26651 0.0
O1109 O 0.11356 0.48495 0.25192 0.0
O1110 O 0.11397 0.51599 0.24934 0.0
O1111 O 0.13756 0.49898 0.2349 0.0
H1112 H 0.15983 0.49732 0.28053 0.0
H1113 H 0.12437 0.52375 0.27627 0.0
H1114 H 0.16813 0.51224 0.29967 0.0
H1115 H 0.13325 0.53817 0.29546 0.0
H1116 H 0.11412 0.43998 0.23853 0.0
H1117 H 0.10825 0.47369 0.27627 0.0
H1118 H 0.11588 0.46499 0.23338 0.0
H1119 H 0.10649 0.44854 0.28067 0.0
H1120 H 0.10631 0.49648 0.31378 0.0
H1121 H 0.0737 0.51413 0.28886 0.0
H1122 H 0.16961 0.45385 0.23613 0.0
H1123 H 0.15276 0.44711 0.27692 0.0
H1124 H 0.12277 0.52868 0.2268 0.0
H1125 H 0.10012 0.53393 0.26462 0.0
H1126 H 0.11802 0.55314 0.22096 0.0
H1127 H 0.09589 0.55836 0.25824 0.0
H1128 H 0.14506 0.51881 0.21751 0.0
H1129 H 0.13269 0.47624 0.22053 0.0
H1130 H 0.14702 0.51603 0.19217 0.0
H1131 H 0.13469 0.47426 0.1951 0.0
H1132 H 0.17713 0.53637 0.23452 0.0
H1133 H 0.14869 0.56218 0.25726 0.0
H1134 H 0.07904 0.47779 0.21085 0.0
H1135 H 0.10063 0.51072 0.18987 0.0
Li1136 Li 0.73773 0.61673 0.9983 0.0
Li1137 Li 0.74894 0.63404 0.01302 0.0
Li1138 Li 0.75206 0.63396 0.98707 0.0
Li1139 Li 0.76366 0.61666 0.00157 0.0
C1140 C 0.72115 0.63907 0.99675 0.0
N1141 N 0.69298 0.64257 0.99395 0.0
C1142 C 0.71326 0.64358 0.00794 0.0
C1143 C 0.71475 0.63655 0.98407 0.0
C1144 C 0.69902 0.64524 0.00634 0.0
C1145 C 0.70049 0.63831 0.98288 0.0
C1146 C 0.74862 0.61003 0.02903 0.0
C1147 C 0.76041 0.60722 0.05079 0.0
N1148 N 0.74844 0.60283 0.05665 0.0
C1149 C 0.73648 0.60529 0.03523 0.0
C1150 C 0.76073 0.61084 0.03683 0.0
C1151 C 0.73658 0.60178 0.04921 0.0
C1152 C 0.72172 0.59542 0.98645 0.0
N1153 N 0.72177 0.60536 0.99636 0.0
C1154 C 0.69899 0.59901 0.00343 0.0
C1155 C 0.71075 0.60721 0.00486 0.0
C1156 C 0.69859 0.5887 0.99323 0.0
C1157 C 0.71019 0.58696 0.98468 0.0
H1158 H 0.73069 0.594 0.97998 0.0
H1159 H 0.71109 0.61506 0.01277 0.0
C1160 C 0.75494 0.65687 0.03015 0.0
N1161 N 0.747 0.64535 0.02906 0.0
C1162 C 0.75394 0.66533 0.04177 0.0
C1163 C 0.7363 0.65019 0.05079 0.0
C1164 C 0.73768 0.64199 0.03901 0.0
C1165 C 0.74454 0.66203 0.05232 0.0
H1166 H 0.76206 0.65949 0.02198 0.0
H1167 H 0.73114 0.63307 0.0377 0.0
C1168 C 0.75495 0.61158 0.97071 0.0
N1169 N 0.75974 0.608 0.94282 0.0
C1170 C 0.76796 0.60744 0.96606 0.0
C1171 C 0.74432 0.61368 0.96119 0.0
C1172 C 0.77019 0.60573 0.95191 0.0
C1173 C 0.74696 0.61189 0.94713 0.0
C1174 C 0.77917 0.64086 0.00512 0.0
C1175 C 0.7879 0.64628 0.99499 0.0
C1176 C 0.78397 0.63949 0.01866 0.0
C1177 C 0.80139 0.64994 0.99851 0.0
C1178 C 0.79753 0.64327 0.02177 0.0
N1179 N 0.8059 0.64835 0.01171 0.0
C1180 C 0.7443 0.65506 0.96846 0.0
C1181 C 0.76509 0.64361 0.96258 0.0
C1182 C 0.74538 0.66349 0.95682 0.0
N1183 N 0.75404 0.6453 0.97106 0.0
C1184 C 0.76656 0.65179 0.9508 0.0
C1185 C 0.75662 0.66191 0.94777 0.0
H1186 H 0.73575 0.65638 0.97549 0.0
H1187 H 0.7728 0.63592 0.96497 0.0
C1188 C 0.77859 0.59349 0.01102 0.0
N1189 N 0.77969 0.60536 0.00363 0.0
C1190 C 0.79011 0.58505 0.01301 0.0
C1191 C 0.80362 0.60104 0.99945 0.0
C1192 C 0.79183 0.60914 0.9977 0.0
C1193 C 0.80288 0.58884 0.00726 0.0
H1194 H 0.76876 0.59058 0.01543 0.0
H1195 H 0.79236 0.61835 0.99146 0.0
O1196 O 0.73509 0.63725 0.99817 0.0
O1197 O 0.74869 0.61358 0.01535 0.0
O1198 O 0.75261 0.61342 0.98453 0.0
O1199 O 0.76594 0.63713 0.00182 0.0
H1200 H 0.71804 0.64574 0.01778 0.0
H1201 H 0.72072 0.63326 0.97525 0.0
H1202 H 0.69277 0.64865 0.01495 0.0
H1203 H 0.69539 0.63631 0.97314 0.0
H1204 H 0.76971 0.60785 0.05695 0.0
H1205 H 0.72706 0.60442 0.02933 0.0
H1206 H 0.77031 0.61405 0.03214 0.0
H1207 H 0.72722 0.59821 0.05416 0.0
H1208 H 0.69025 0.60083 0.01016 0.0
H1209 H 0.71046 0.57899 0.97685 0.0
H1210 H 0.76058 0.6743 0.04253 0.0
H1211 H 0.72869 0.6474 0.05848 0.0
H1212 H 0.77627 0.60562 0.97327 0.0
H1213 H 0.73414 0.61667 0.96462 0.0
H1214 H 0.78024 0.60262 0.94816 0.0
H1215 H 0.73884 0.61356 0.93965 0.0
H1216 H 0.78433 0.64759 0.98451 0.0
H1217 H 0.77726 0.63572 0.02671 0.0
H1218 H 0.80828 0.65405 0.99074 0.0
H1219 H 0.80138 0.64222 0.0322 0.0
H1220 H 0.7376 0.67132 0.95505 0.0
H1221 H 0.77534 0.65011 0.94408 0.0
H1222 H 0.78908 0.57578 0.01916 0.0
H1223 H 0.81317 0.6042 0.99457 0.0
Li1224 Li 0.86682 0.01361 0.25267 0.0
Li1225 Li 0.88354 0.99879 0.26284 0.0
Li1226 Li 0.88383 0.00271 0.23822 0.0
Li1227 Li 0.86562 0.98762 0.24922 0.0
C1228 C 0.88756 0.03022 0.25509 0.0
N1229 N 0.88755 0.05845 0.25934 0.0
C1230 C 0.88973 0.03559 0.26832 0.0
C1231 C 0.88544 0.03924 0.24403 0.0
C1232 C 0.88969 0.04988 0.27025 0.0
C1233 C 0.88544 0.05346 0.24638 0.0
C1234 C 0.86202 0.99606 0.28015 0.0
C1235 C 0.85524 0.98107 0.29885 0.0
N1236 N 0.85962 0.9907 0.30808 0.0
C1237 C 0.86642 0.00581 0.28982 0.0
C1238 C 0.85636 0.98358 0.28469 0.0
C1239 C 0.86515 0.0029 0.30389 0.0
C1240 C 0.84705 0.03318 0.24386 0.0
N1241 N 0.85526 0.02956 0.25466 0.0
C1242 C 0.84687 0.04861 0.26793 0.0
C1243 C 0.85519 0.03692 0.26661 0.0
C1244 C 0.83834 0.05263 0.25693 0.0
C1245 C 0.83846 0.04472 0.24478 0.0
H1246 H 0.84711 0.02708 0.23454 0.0
H1247 H 0.8616 0.03378 0.27513 0.0
C1248 C 0.90682 0.00394 0.27959 0.0
N1249 N 0.89563 0.99558 0.27829 0.0
C1250 C 0.91585 0.00236 0.2907 0.0
C1251 C 0.90213 0.9831 0.29859 0.0
C1252 C 0.89336 0.98507 0.28732 0.0
C1253 C 0.91347 0.99193 0.30049 0.0
H1254 H 0.90878 0.01183 0.27195 0.0
H1255 H 0.88473 0.97819 0.2858 0.0
C1256 C 0.86209 0.00295 0.22137 0.0
N1257 N 0.86026 0.00276 0.1929 0.0
C1258 C 0.85814 0.99094 0.21444 0.0
C1259 C 0.86496 0.01492 0.21382 0.0
C1260 C 0.85731 0.99104 0.20004 0.0
C1261 C 0.86403 0.01459 0.19944 0.0
C1262 C 0.89635 0.97701 0.25248 0.0
C1263 C 0.90988 0.98158 0.25049 0.0
C1264 C 0.89391 0.96473 0.25964 0.0
C1265 C 0.92079 0.9738 0.25583 0.0
C1266 C 0.9051 0.95725 0.26481 0.0
N1267 N 0.91819 0.96191 0.26283 0.0
C1268 C 0.90432 0.01482 0.22119 0.0
C1269 C 0.8944 0.99431 0.21232 0.0
C1270 C 0.91271 0.01609 0.20953 0.0
N1271 N 0.89526 0.00417 0.22227 0.0
C1272 C 0.90251 0.99522 0.20044 0.0
C1273 C 0.91181 0.00625 0.19889 0.0
H1274 H 0.90515 0.02228 0.22943 0.0
H1275 H 0.88734 0.98576 0.2136 0.0
C1276 C 0.84057 0.97298 0.2509 0.0
N1277 N 0.85398 0.97208 0.24689 0.0
C1278 C 0.83175 0.96169 0.24932 0.0
C1279 C 0.85066 0.94888 0.23924 0.0
C1280 C 0.85913 0.96039 0.24111 0.0
C1281 C 0.83676 0.94941 0.24341 0.0
H1282 H 0.83678 0.98246 0.25544 0.0
H1283 H 0.8698 0.96007 0.23784 0.0
O1284 O 0.88737 0.01624 0.253 0.0
O1285 O 0.86316 0.9987 0.26632 0.0
O1286 O 0.86317 0.003 0.23546 0.0
O1287 O 0.88554 0.98467 0.24765 0.0
H1288 H 0.89119 0.02882 0.27707 0.0
H1289 H 0.88372 0.03531 0.23374 0.0
H1290 H 0.89128 0.05416 0.28044 0.0
H1291 H 0.88375 0.06054 0.23791 0.0
H1292 H 0.85091 0.97144 0.3025 0.0
H1293 H 0.87108 0.01539 0.28653 0.0
H1294 H 0.85298 0.97586 0.27738 0.0
H1295 H 0.86862 0.01032 0.31148 0.0
H1296 H 0.84694 0.05431 0.27755 0.0
H1297 H 0.83208 0.0475 0.23603 0.0
H1298 H 0.92468 0.00916 0.29155 0.0
H1299 H 0.89991 0.9749 0.30585 0.0
H1300 H 0.85583 0.9816 0.22008 0.0
H1301 H 0.86795 0.02433 0.219 0.0
H1302 H 0.85433 0.98179 0.19454 0.0
H1303 H 0.86631 0.02375 0.19347 0.0
H1304 H 0.91192 0.9911 0.24501 0.0
H1305 H 0.88347 0.96113 0.26136 0.0
H1306 H 0.93132 0.97725 0.25445 0.0
H1307 H 0.90337 0.94777 0.27046 0.0
H1308 H 0.91996 0.02457 0.20897 0.0
H1309 H 0.90138 0.98743 0.1925 0.0
H1310 H 0.82119 0.96254 0.25286 0.0
H1311 H 0.85492 0.93975 0.23441 0.0
Li1312 Li 0.24919 0.13393 0.5133 0.0
Li1313 Li 0.2378 0.1166 0.49868 0.0
Li1314 Li 0.26376 0.11679 0.502 0.0
Li1315 Li 0.25234 0.13404 0.48732 0.0
C1316 C 0.24705 0.11116 0.52957 0.0
N1317 N 0.24336 0.10676 0.55753 0.0
C1318 C 0.2343 0.10665 0.5346 0.0
C1319 C 0.25799 0.1132 0.53875 0.0
C1320 C 0.23262 0.10454 0.54877 0.0
C1321 C 0.2559 0.11099 0.55285 0.0
C1322 C 0.22181 0.14014 0.49572 0.0
C1323 C 0.20275 0.14174 0.47978 0.0
N1324 N 0.1945 0.1463 0.49019 0.0
C1325 C 0.21319 0.14503 0.50622 0.0
C1326 C 0.21659 0.13864 0.48236 0.0
C1327 C 0.1994 0.14802 0.50323 0.0
C1328 C 0.25652 0.15537 0.5317 0.0
N1329 N 0.24716 0.14517 0.52938 0.0
C1330 C 0.23503 0.15102 0.55007 0.0
C1331 C 0.23648 0.14296 0.53822 0.0
C1332 C 0.24462 0.16155 0.55283 0.0
C1333 C 0.25546 0.16369 0.54343 0.0
H1334 H 0.26476 0.15711 0.5244 0.0
H1335 H 0.22905 0.13494 0.53605 0.0
C1336 C 0.22264 0.09398 0.48823 0.0
N1337 N 0.22184 0.10521 0.49661 0.0
C1338 C 0.21117 0.08543 0.48639 0.0
C1339 C 0.19835 0.09996 0.5021 0.0
C1340 C 0.21005 0.10824 0.5036 0.0
C1341 C 0.1988 0.08839 0.49337 0.0
H1342 H 0.23222 0.0916 0.48304 0.0
H1343 H 0.20976 0.11701 0.51047 0.0
C1344 C 0.27999 0.13964 0.50388 0.0
N1345 N 0.30796 0.14416 0.50723 0.0
C1346 C 0.28797 0.14429 0.4928 0.0
C1347 C 0.28621 0.13752 0.51673 0.0
C1348 C 0.3021 0.14646 0.49468 0.0
C1349 C 0.30037 0.13979 0.5182 0.0
C1350 C 0.25359 0.11043 0.47118 0.0
C1351 C 0.26602 0.10581 0.4655 0.0
C1352 C 0.24194 0.11161 0.46277 0.0
C1353 C 0.26666 0.10276 0.45141 0.0
C1354 C 0.24299 0.10846 0.44873 0.0
N1355 N 0.25523 0.10416 0.44339 0.0
C1356 C 0.27961 0.09527 0.5136 0.0
C1357 C 0.29118 0.10786 0.49613 0.0
C1358 C 0.29123 0.08698 0.51565 0.0
N1359 N 0.27984 0.10556 0.50407 0.0
C1360 C 0.30303 0.09984 0.49784 0.0
C1361 C 0.30319 0.08925 0.50776 0.0
H1362 H 0.27039 0.09345 0.5196 0.0
H1363 H 0.29104 0.11594 0.48845 0.0
C1364 C 0.24573 0.15646 0.46986 0.0
N1365 N 0.2542 0.14536 0.47129 0.0
C1366 C 0.2467 0.16492 0.45823 0.0
C1367 C 0.26535 0.15061 0.44989 0.0
C1368 C 0.26398 0.14241 0.46166 0.0
C1369 C 0.2566 0.16203 0.44803 0.0
H1370 H 0.23826 0.1588 0.4778 0.0
H1371 H 0.27084 0.13376 0.46318 0.0
O1372 O 0.24884 0.11341 0.51574 0.0
O1373 O 0.23532 0.13707 0.4985 0.0
O1374 O 0.26616 0.13732 0.50219 0.0
O1375 O 0.25281 0.11355 0.48494 0.0
H1376 H 0.22577 0.10485 0.52765 0.0
H1377 H 0.26799 0.1164 0.53504 0.0
H1378 H 0.22278 0.10114 0.5528 0.0
H1379 H 0.26427 0.11261 0.56007 0.0
H1380 H 0.19857 0.14057 0.46949 0.0
H1381 H 0.21708 0.14644 0.51657 0.0
H1382 H 0.22318 0.13525 0.47404 0.0
H1383 H 0.1926 0.15171 0.51128 0.0
H1384 H 0.22657 0.14893 0.55707 0.0
H1385 H 0.26294 0.17185 0.545 0.0
H1386 H 0.21207 0.07648 0.47977 0.0
H1387 H 0.18903 0.10267 0.50763 0.0
H1388 H 0.28333 0.14616 0.48284 0.0
H1389 H 0.28017 0.13419 0.52548 0.0
H1390 H 0.30841 0.14998 0.48616 0.0
H1391 H 0.30532 0.13811 0.52806 0.0
H1392 H 0.2751 0.10465 0.47186 0.0
H1393 H 0.23215 0.11478 0.46704 0.0
H1394 H 0.27625 0.09927 0.44687 0.0
H1395 H 0.23405 0.10938 0.4421 0.0
H1396 H 0.29078 0.07877 0.52323 0.0
H1397 H 0.31203 0.10204 0.49158 0.0
H1398 H 0.23992 0.17376 0.45734 0.0
H1399 H 0.2731 0.14797 0.44228 0.0
Li1400 Li 0.38397 0.49824 0.76234 0.0
Li1401 Li 0.36642 0.51272 0.75234 0.0
Li1402 Li 0.36661 0.48817 0.74764 0.0
Li1403 Li 0.38402 0.50289 0.73779 0.0
C1404 C 0.36039 0.5027 0.77836 0.0
N1405 N 0.35359 0.51339 0.80392 0.0
C1406 C 0.36829 0.51331 0.78412 0.0
C1407 C 0.34906 0.49751 0.78561 0.0
C1408 C 0.36468 0.51859 0.79705 0.0
C1409 C 0.34578 0.50306 0.79851 0.0
C1410 C 0.38971 0.52901 0.74768 0.0
C1411 C 0.38499 0.54753 0.73171 0.0
N1412 N 0.39597 0.55464 0.73682 0.0
C1413 C 0.40092 0.53651 0.75278 0.0
C1414 C 0.38166 0.53457 0.73707 0.0
C1415 C 0.40393 0.54944 0.74715 0.0
C1416 C 0.40814 0.50167 0.77794 0.0
N1417 N 0.39558 0.49543 0.778 0.0
C1418 C 0.39987 0.48594 0.80037 0.0
C1419 C 0.39132 0.48767 0.78889 0.0
C1420 C 0.41285 0.49239 0.80068 0.0
C1421 C 0.41697 0.50033 0.78926 0.0
H1422 H 0.41127 0.50773 0.76911 0.0
H1423 H 0.38123 0.48291 0.78875 0.0
C1424 C 0.34198 0.52804 0.74927 0.0
N1425 N 0.35464 0.52822 0.75528 0.0
C1426 C 0.33302 0.53923 0.75084 0.0
C1427 C 0.35025 0.5505 0.76492 0.0
C1428 C 0.3589 0.53914 0.76301 0.0
C1429 C 0.33711 0.55069 0.75875 0.0
H1430 H 0.33888 0.51922 0.74317 0.0
H1431 H 0.36904 0.53906 0.76766 0.0
C1432 C 0.39012 0.47222 0.75252 0.0
N1433 N 0.3967 0.44671 0.76347 0.0
C1434 C 0.40148 0.46489 0.74751 0.0
C1435 C 0.38207 0.46655 0.76308 0.0
C1436 C 0.40465 0.45202 0.75319 0.0
C1437 C 0.38557 0.45365 0.76848 0.0
C1438 C 0.36073 0.49805 0.72157 0.0
C1439 C 0.36875 0.4874 0.71605 0.0
C1440 C 0.34955 0.50319 0.71404 0.0
C1441 C 0.36542 0.48204 0.70308 0.0
C1442 C 0.34655 0.49755 0.70111 0.0
N1443 N 0.35448 0.48718 0.69594 0.0
C1444 C 0.34218 0.47277 0.75018 0.0
C1445 C 0.35964 0.46145 0.73731 0.0
C1446 C 0.33335 0.46148 0.74859 0.0
N1447 N 0.35505 0.47252 0.74462 0.0
C1448 C 0.35116 0.44995 0.73544 0.0
C1449 C 0.33782 0.44983 0.74117 0.0
H1450 H 0.33882 0.48172 0.75594 0.0
H1451 H 0.36992 0.4615 0.73297 0.0
C1452 C 0.40828 0.49967 0.72228 0.0
N1453 N 0.39567 0.50582 0.72219 0.0
C1454 C 0.4171 0.50101 0.71095 0.0
C1455 C 0.39991 0.51524 0.69978 0.0
C1456 C 0.39137 0.51352 0.71127 0.0
C1457 C 0.41293 0.50886 0.6995 0.0
H1458 H 0.41144 0.49366 0.73114 0.0
H1459 H 0.38125 0.5182 0.71138 0.0
O1460 O 0.36368 0.49732 0.76571 0.0
O1461 O 0.38667 0.51634 0.75315 0.0
O1462 O 0.38693 0.48484 0.74701 0.0
O1463 O 0.36375 0.50352 0.73424 0.0
H1464 H 0.37713 0.51744 0.77871 0.0
H1465 H 0.34286 0.48926 0.78131 0.0
H1466 H 0.3707 0.5268 0.80162 0.0
H1467 H 0.33703 0.49914 0.80424 0.0
H1468 H 0.37885 0.55195 0.7235 0.0
H1469 H 0.40723 0.53238 0.76103 0.0
H1470 H 0.37289 0.52899 0.73302 0.0
H1471 H 0.41258 0.55535 0.751 0.0
H1472 H 0.39626 0.47986 0.80903 0.0
H1473 H 0.42695 0.50536 0.78904 0.0
H1474 H 0.32309 0.53897 0.74571 0.0
H1475 H 0.35379 0.55899 0.77127 0.0
H1476 H 0.40779 0.4691 0.7393 0.0
H1477 H 0.37319 0.472 0.76705 0.0
H1478 H 0.41343 0.44624 0.74941 0.0
H1479 H 0.37944 0.44915 0.77665 0.0
H1480 H 0.37748 0.48332 0.72166 0.0
H1481 H 0.34326 0.51146 0.71815 0.0
H1482 H 0.37155 0.4738 0.69869 0.0
H1483 H 0.33793 0.50143 0.69517 0.0
H1484 H 0.32324 0.46179 0.75333 0.0
H1485 H 0.35497 0.4413 0.72948 0.0
H1486 H 0.42711 0.49604 0.71119 0.0
H1487 H 0.39626 0.52126 0.69109 0.0
Li1488 Li 0.76291 0.38399 0.49887 0.0
Li1489 Li 0.75173 0.3668 0.51378 0.0
Li1490 Li 0.7484 0.36672 0.48785 0.0
Li1491 Li 0.73699 0.38415 0.50234 0.0
C1492 C 0.7793 0.3614 0.497 0.0
N1493 N 0.80732 0.35744 0.49338 0.0
C1494 C 0.7874 0.35649 0.50788 0.0
C1495 C 0.78542 0.36408 0.48421 0.0
C1496 C 0.80155 0.3546 0.50587 0.0
C1497 C 0.79961 0.36208 0.48261 0.0
C1498 C 0.75231 0.39098 0.52959 0.0
C1499 C 0.74072 0.39422 0.55139 0.0
N1500 N 0.7528 0.39855 0.55709 0.0
C1501 C 0.76455 0.39566 0.53561 0.0
C1502 C 0.74025 0.39042 0.53749 0.0
C1503 C 0.76461 0.39936 0.54955 0.0
C1504 C 0.7789 0.4054 0.48714 0.0
N1505 N 0.77894 0.39523 0.49681 0.0
C1506 C 0.80208 0.40085 0.50328 0.0
C1507 C 0.79015 0.39296 0.50495 0.0
C1508 C 0.8024 0.41134 0.49327 0.0
C1509 C 0.79058 0.41364 0.4852 0.0
H1510 H 0.76981 0.40711 0.48091 0.0
H1511 H 0.78982 0.38501 0.51277 0.0
C1512 C 0.74597 0.34433 0.53166 0.0
N1513 N 0.75401 0.3557 0.5299 0.0
C1514 C 0.74751 0.33607 0.54338 0.0
C1515 C 0.76579 0.35117 0.5511 0.0
C1516 C 0.76388 0.35914 0.53926 0.0
C1517 C 0.75753 0.33946 0.55331 0.0
H1518 H 0.73844 0.3416 0.52389 0.0
H1519 H 0.77042 0.36798 0.53744 0.0
C1520 C 0.74547 0.38915 0.47142 0.0
N1521 N 0.7404 0.39287 0.44359 0.0
C1522 C 0.73233 0.39302 0.46689 0.0
C1523 C 0.75608 0.38739 0.46181 0.0
C1524 C 0.72996 0.3948 0.45278 0.0
C1525 C 0.7533 0.38925 0.44779 0.0
C1526 C 0.72142 0.36003 0.50621 0.0
C1527 C 0.7126 0.35452 0.49621 0.0
C1528 C 0.71672 0.36159 0.51976 0.0
C1529 C 0.69911 0.35095 0.49987 0.0
C1530 C 0.70318 0.35789 0.52302 0.0
N1531 N 0.69471 0.35271 0.51309 0.0
C1532 C 0.75604 0.34555 0.46928 0.0
C1533 C 0.73524 0.35701 0.46346 0.0
C1534 C 0.75497 0.33716 0.45761 0.0
N1535 N 0.74631 0.35531 0.47191 0.0
C1536 C 0.73377 0.34887 0.45165 0.0
C1537 C 0.74374 0.33879 0.44857 0.0
H1538 H 0.7646 0.3442 0.4763 0.0
H1539 H 0.72752 0.36468 0.46588 0.0
C1540 C 0.7226 0.40776 0.51135 0.0
N1541 N 0.72111 0.39564 0.50444 0.0
C1542 C 0.71132 0.41657 0.51313 0.0
C1543 C 0.69722 0.40038 0.50045 0.0
C1544 C 0.70877 0.39191 0.49889 0.0
C1545 C 0.6984 0.4129 0.50767 0.0
H1546 H 0.73257 0.41061 0.51547 0.0
H1547 H 0.70793 0.38249 0.49301 0.0
O1548 O 0.76544 0.36347 0.49884 0.0
O1549 O 0.75209 0.38727 0.51595 0.0
O1550 O 0.74794 0.38724 0.4852 0.0
O1551 O 0.73463 0.36367 0.50276 0.0
H1552 H 0.78283 0.3542 0.5178 0.0
H1553 H 0.77929 0.36767 0.47563 0.0
H1554 H 0.80795 0.35089 0.51423 0.0
H1555 H 0.80449 0.3642 0.47279 0.0
H1556 H 0.73147 0.39378 0.55763 0.0
H1557 H 0.77394 0.39634 0.52962 0.0
H1558 H 0.7306 0.38724 0.53292 0.0
H1559 H 0.77404 0.40288 0.55437 0.0
H1560 H 0.8109 0.39889 0.50986 0.0
H1561 H 0.79043 0.42158 0.47734 0.0
H1562 H 0.74109 0.32699 0.54453 0.0
H1563 H 0.77361 0.3542 0.55849 0.0
H1564 H 0.72402 0.39455 0.47418 0.0
H1565 H 0.76636 0.38464 0.46514 0.0
H1566 H 0.71981 0.39771 0.44913 0.0
H1567 H 0.7614 0.38785 0.44023 0.0
H1568 H 0.71609 0.35308 0.48571 0.0
H1569 H 0.7235 0.36546 0.52771 0.0
H1570 H 0.69215 0.34677 0.49221 0.0
H1571 H 0.69941 0.35909 0.53346 0.0
H1572 H 0.76276 0.32935 0.45581 0.0
H1573 H 0.725 0.35057 0.44494 0.0
H1574 H 0.71269 0.42609 0.51883 0.0
H1575 H 0.68753 0.39728 0.49581 0.0
Li1576 Li 0.63468 0.98824 0.75278 0.0
Li1577 Li 0.61753 0.00266 0.76449 0.0
Li1578 Li 0.61632 0.99864 0.73954 0.0
Li1579 Li 0.63423 0.01334 0.74966 0.0
C1580 C 0.61394 0.97146 0.75799 0.0
N1581 N 0.61403 0.94389 0.76528 0.0
C1582 C 0.61176 0.96758 0.77172 0.0
C1583 C 0.61611 0.96131 0.74797 0.0
C1584 C 0.61184 0.95358 0.7752 0.0
C1585 C 0.61615 0.94743 0.75186 0.0
C1586 C 0.64947 0.00906 0.77136 0.0
C1587 C 0.66103 0.02866 0.78147 0.0
N1588 N 0.67342 0.02252 0.77903 0.0
C1589 C 0.66231 0.00294 0.76896 0.0
C1590 C 0.64881 0.02201 0.7777 0.0
C1591 C 0.6743 0.0099 0.77293 0.0
C1592 C 0.65381 0.96805 0.74363 0.0
N1593 N 0.6463 0.97245 0.75463 0.0
C1594 C 0.65521 0.95416 0.76859 0.0
C1595 C 0.647 0.9659 0.76702 0.0
C1596 C 0.66298 0.94923 0.75736 0.0
C1597 C 0.66225 0.95643 0.74477 0.0
H1598 H 0.65334 0.97364 0.73399 0.0
H1599 H 0.64111 0.96978 0.77568 0.0
C1600 C 0.59338 0.99985 0.78052 0.0
N1601 N 0.60657 0.00463 0.78073 0.0
C1602 C 0.58487 0.00149 0.79205 0.0
C1603 C 0.60367 0.01301 0.80374 0.0
C1604 C 0.61186 0.01099 0.79206 0.0
C1605 C 0.58998 0.00824 0.80381 0.0
H1606 H 0.58945 0.99484 0.77134 0.0
H1607 H 0.6224 0.01459 0.79199 0.0
C1608 C 0.63666 0.99824 0.72147 0.0
N1609 N 0.63593 0.99749 0.69296 0.0
C1610 C 0.63905 0.01025 0.71384 0.0
C1611 C 0.63395 0.98584 0.71461 0.0
C1612 C 0.63865 0.00965 0.69943 0.0
C1613 C 0.6336 0.98568 0.70019 0.0
C1614 C 0.60271 0.02279 0.75466 0.0
C1615 C 0.58961 0.01908 0.74989 0.0
C1616 C 0.60397 0.03257 0.76519 0.0
C1617 C 0.57796 0.02522 0.75578 0.0
C1618 C 0.59206 0.03845 0.77084 0.0
N1619 N 0.57942 0.03468 0.76605 0.0
C1620 C 0.59654 0.98478 0.72298 0.0
C1621 C 0.6038 0.00648 0.71435 0.0
C1622 C 0.58807 0.98278 0.7115 0.0
N1623 N 0.60432 0.99639 0.72409 0.0
C1624 C 0.59559 0.00485 0.70261 0.0
C1625 C 0.58761 0.99282 0.70101 0.0
H1626 H 0.59689 0.97708 0.73103 0.0
H1627 H 0.60992 0.01572 0.71561 0.0
C1628 C 0.65869 0.02696 0.74182 0.0
N1629 N 0.64568 0.02907 0.74664 0.0
C1630 C 0.66755 0.03812 0.73966 0.0
C1631 C 0.64951 0.05341 0.74763 0.0
C1632 C 0.64094 0.04197 0.74948 0.0
C1633 C 0.66298 0.05155 0.74263 0.0
H1634 H 0.66218 0.01657 0.73967 0.0
H1635 H 0.63054 0.04337 0.7532 0.0
O1636 O 0.61411 0.98512 0.75441 0.0
O1637 O 0.63762 0.00255 0.76725 0.0
O1638 O 0.6368 0.99866 0.73559 0.0
O1639 O 0.61423 0.01663 0.74927 0.0
H1640 H 0.6102 0.97528 0.77965 0.0
H1641 H 0.61792 0.96413 0.73732 0.0
H1642 H 0.61022 0.95044 0.78579 0.0
H1643 H 0.6179 0.93948 0.74423 0.0
H1644 H 0.66068 0.03874 0.78626 0.0
H1645 H 0.66305 0.99298 0.76398 0.0
H1646 H 0.63899 0.02704 0.77938 0.0
H1647 H 0.68431 0.00531 0.77109 0.0
H1648 H 0.65532 0.94892 0.77846 0.0
H1649 H 0.66829 0.95325 0.73591 0.0
H1650 H 0.57434 0.99775 0.79167 0.0
H1651 H 0.60802 0.01813 0.81267 0.0
H1652 H 0.64103 0.01997 0.71895 0.0
H1653 H 0.63197 0.97648 0.72035 0.0
H1654 H 0.64042 0.01888 0.69339 0.0
H1655 H 0.63142 0.97618 0.69475 0.0
H1656 H 0.58841 0.01146 0.74183 0.0
H1657 H 0.614 0.03537 0.76921 0.0
H1658 H 0.56775 0.02242 0.75222 0.0
H1659 H 0.59288 0.04593 0.77908 0.0
H1660 H 0.58187 0.97351 0.71091 0.0
H1661 H 0.59569 0.01282 0.69479 0.0
H1662 H 0.6779 0.03626 0.73589 0.0
H1663 H 0.64556 0.06363 0.7499 0.0
Li1664 Li 0.01352 0.25128 0.867 0.0
Li1665 Li 0.99975 0.26337 0.88436 0.0
Li1666 Li 0.00146 0.2378 0.88385 0.0
Li1667 Li 0.98805 0.24953 0.86633 0.0
C1668 C 0.02992 0.25396 0.88891 0.0
N1669 N 0.0579 0.2589 0.89142 0.0
C1670 C 0.03478 0.26743 0.89065 0.0
C1671 C 0.03927 0.24298 0.88868 0.0
C1672 C 0.04897 0.26972 0.89184 0.0
C1673 C 0.05338 0.2457 0.8899 0.0
C1674 C 0.99187 0.27729 0.8601 0.0
C1675 C 0.97189 0.29179 0.86329 0.0
N1676 N 0.97562 0.29928 0.85202 0.0
C1677 C 0.99552 0.28513 0.84856 0.0
C1678 C 0.97997 0.28063 0.86754 0.0
C1679 C 0.98716 0.29621 0.84463 0.0
C1680 C 0.03405 0.24254 0.84786 0.0
N1681 N 0.02966 0.25319 0.85587 0.0
C1682 C 0.04823 0.26736 0.84791 0.0
C1683 C 0.03637 0.26551 0.85589 0.0
C1684 C 0.05312 0.2565 0.83962 0.0
C1685 C 0.0458 0.24396 0.83964 0.0
H1686 H 0.02833 0.23299 0.84767 0.0
H1687 H 0.03247 0.27392 0.86211 0.0
C1688 C 0.99281 0.27797 0.90847 0.0
N1689 N 0.99851 0.27935 0.89573 0.0
C1690 C 0.99111 0.28949 0.91696 0.0
C1691 C 0.0016 0.30358 0.89924 0.0
C1692 C 0.003 0.2918 0.89105 0.0
C1693 C 0.99546 0.30253 0.91234 0.0
H1694 H 0.98958 0.26791 0.91202 0.0
H1695 H 0.00759 0.29259 0.8809 0.0
C1696 C 0.00375 0.22094 0.86175 0.0
N1697 N 0.00725 0.19278 0.85866 0.0
C1698 C 0.99329 0.21291 0.85585 0.0
C1699 C 0.01604 0.21464 0.86592 0.0
C1700 C 0.99525 0.1987 0.85442 0.0
C1701 C 0.0176 0.2004 0.86432 0.0
C1702 C 0.97361 0.24169 0.89084 0.0
C1703 C 0.96897 0.23067 0.88278 0.0
C1704 C 0.96689 0.24476 0.90323 0.0
C1705 C 0.95775 0.22283 0.88729 0.0
C1706 C 0.9557 0.23667 0.9074 0.0
N1707 N 0.9514 0.22596 0.89941 0.0
C1708 C 0.01124 0.22265 0.90662 0.0
C1709 C 0.99503 0.21028 0.89314 0.0
C1710 C 0.01277 0.21141 0.91553 0.0
N1711 N 0.00256 0.22188 0.89562 0.0
C1712 C 0.99623 0.19881 0.90178 0.0
C1713 C 0.00522 0.19926 0.91314 0.0
H1714 H 0.01699 0.23203 0.90849 0.0
H1715 H 0.98819 0.2098 0.88438 0.0
C1716 C 0.97409 0.24342 0.84161 0.0
N1717 N 0.97239 0.24886 0.85442 0.0
C1718 C 0.96278 0.24189 0.83281 0.0
C1719 C 0.94828 0.25215 0.85034 0.0
C1720 C 0.95985 0.25336 0.85885 0.0
C1721 C 0.94964 0.24617 0.8372 0.0
H1722 H 0.98421 0.24005 0.83832 0.0
H1723 H 0.95877 0.25765 0.86909 0.0
O1724 O 0.01607 0.25154 0.88754 0.0
O1725 O 0.99996 0.2664 0.86403 0.0
O1726 O 0.00199 0.23487 0.86334 0.0
O1727 O 0.98454 0.24958 0.88656 0.0
H1728 H 0.0277 0.27604 0.89091 0.0
H1729 H 0.0357 0.23248 0.88764 0.0
H1730 H 0.05287 0.28011 0.89307 0.0
H1731 H 0.06074 0.2373 0.88968 0.0
H1732 H 0.96265 0.29449 0.86895 0.0
H1733 H 0.00471 0.28267 0.8427 0.0
H1734 H 0.977 0.2747 0.87652 0.0
H1735 H 0.98986 0.30237 0.83572 0.0
H1736 H 0.05355 0.27718 0.84832 0.0
H1737 H 0.04896 0.23541 0.83318 0.0
H1738 H 0.98651 0.2882 0.92708 0.0
H1739 H 0.00503 0.31346 0.89526 0.0
H1740 H 0.98373 0.21757 0.85248 0.0
H1741 H 0.02426 0.22068 0.87039 0.0
H1742 H 0.98722 0.19236 0.84995 0.0
H1743 H 0.02703 0.1954 0.86759 0.0
H1744 H 0.974 0.22817 0.87316 0.0
H1745 H 0.97023 0.25331 0.90957 0.0
H1746 H 0.95409 0.21425 0.88114 0.0
H1747 H 0.95042 0.23892 0.91698 0.0
H1748 H 0.01967 0.2123 0.92428 0.0
H1749 H 0.99033 0.18961 0.89944 0.0
H1750 H 0.96429 0.23738 0.82269 0.0
H1751 H 0.93831 0.25548 0.85415 0.0
Li1752 Li 0.51289 0.7522 0.36685 0.0
Li1753 Li 0.49862 0.76408 0.384 0.0
Li1754 Li 0.50198 0.73901 0.38493 0.0
Li1755 Li 0.4877 0.74972 0.36704 0.0
C1756 C 0.52958 0.75679 0.3878 0.0
N1757 N 0.5573 0.7635 0.38804 0.0
C1758 C 0.53372 0.77043 0.39006 0.0
C1759 C 0.53954 0.74656 0.38573 0.0
C1760 C 0.54779 0.77361 0.39014 0.0
C1761 C 0.5535 0.75016 0.38586 0.0
C1762 C 0.49264 0.77146 0.35209 0.0
C1763 C 0.47335 0.78214 0.34051 0.0
N1764 N 0.47956 0.77979 0.32814 0.0
C1765 C 0.49883 0.76916 0.33927 0.0
C1766 C 0.4798 0.77804 0.35274 0.0
C1767 C 0.49206 0.77346 0.32728 0.0
C1768 C 0.53309 0.74282 0.34782 0.0
N1769 N 0.52881 0.75383 0.35538 0.0
C1770 C 0.54727 0.76763 0.34658 0.0
C1771 C 0.53551 0.76614 0.35478 0.0
C1772 C 0.55206 0.7564 0.33873 0.0
C1773 C 0.54474 0.74388 0.33939 0.0
H1774 H 0.52739 0.73326 0.34821 0.0
H1775 H 0.53172 0.7748 0.36071 0.0
C1776 C 0.50143 0.77993 0.40833 0.0
N1777 N 0.49695 0.7803 0.39504 0.0
C1778 C 0.50003 0.7915 0.41681 0.0
C1779 C 0.48937 0.8036 0.39777 0.0
C1780 C 0.49111 0.79184 0.38963 0.0
C1781 C 0.49386 0.80357 0.41158 0.0
H1782 H 0.5061 0.7706 0.41234 0.0
H1783 H 0.48768 0.79188 0.37904 0.0
C1784 C 0.50222 0.72121 0.36432 0.0
N1785 N 0.50248 0.69269 0.36456 0.0
C1786 C 0.49014 0.71382 0.36153 0.0
C1787 C 0.51444 0.71409 0.36717 0.0
C1788 C 0.49049 0.69941 0.3617 0.0
C1789 C 0.51436 0.69967 0.36728 0.0
C1790 C 0.47814 0.7546 0.39855 0.0
C1791 C 0.48161 0.74956 0.41163 0.0
C1792 C 0.46863 0.76539 0.39736 0.0
C1793 C 0.47552 0.75544 0.4233 0.0
C1794 C 0.4628 0.77102 0.40929 0.0
N1795 N 0.46633 0.76597 0.4219 0.0
C1796 C 0.515 0.72169 0.4047 0.0
C1797 C 0.49317 0.71395 0.39689 0.0
C1798 C 0.51639 0.71005 0.41309 0.0
N1799 N 0.5036 0.72333 0.39671 0.0
C1800 C 0.49418 0.70208 0.40499 0.0
C1801 C 0.50594 0.69996 0.41324 0.0
H1802 H 0.52301 0.72945 0.40461 0.0
H1803 H 0.48411 0.71564 0.39059 0.0
C1804 C 0.47395 0.74262 0.34241 0.0
N1805 N 0.47195 0.7472 0.35552 0.0
C1806 C 0.46271 0.7407 0.33359 0.0
C1807 C 0.44759 0.74841 0.35189 0.0
C1808 C 0.45911 0.75003 0.3604 0.0
C1809 C 0.44932 0.74364 0.33832 0.0
H1810 H 0.4843 0.74045 0.33882 0.0
H1811 H 0.4578 0.75353 0.3709 0.0
O1812 O 0.51585 0.7535 0.38747 0.0
O1813 O 0.49896 0.76705 0.36393 0.0
O1814 O 0.50205 0.73533 0.36441 0.0
O1815 O 0.48425 0.74921 0.38701 0.0
H1816 H 0.52617 0.77851 0.39155 0.0
H1817 H 0.53653 0.73597 0.38388 0.0
H1818 H 0.55113 0.78413 0.39181 0.0
H1819 H 0.56132 0.74237 0.38418 0.0
H1820 H 0.46336 0.78712 0.34085 0.0
H1821 H 0.5087 0.764 0.33854 0.0
H1822 H 0.47471 0.77965 0.36254 0.0
H1823 H 0.49672 0.7717 0.31728 0.0
H1824 H 0.55261 0.77745 0.34651 0.0
H1825 H 0.54783 0.73503 0.3333 0.0
H1826 H 0.50386 0.79102 0.4273 0.0
H1827 H 0.48436 0.81254 0.39331 0.0
H1828 H 0.48056 0.71914 0.35943 0.0
H1829 H 0.52385 0.71963 0.36945 0.0
H1830 H 0.48121 0.69356 0.35962 0.0
H1831 H 0.52372 0.69403 0.36956 0.0
H1832 H 0.48901 0.7413 0.41278 0.0
H1833 H 0.46602 0.76961 0.38735 0.0
H1834 H 0.47814 0.75168 0.43348 0.0
H1835 H 0.45553 0.77946 0.40852 0.0
H1836 H 0.52549 0.70906 0.4195 0.0
H1837 H 0.48592 0.69457 0.40462 0.0
H1838 H 0.46447 0.7371 0.32316 0.0
H1839 H 0.43742 0.75063 0.35597 0.0
Li1840 Li 0.00167 0.76369 0.61659 0.0
Li1841 Li 0.98799 0.75171 0.63412 0.0
Li1842 Li 0.01383 0.74878 0.63357 0.0
Li1843 Li 0.99857 0.73785 0.61636 0.0
C1844 C 0.0078 0.77801 0.64163 0.0
N1845 N 0.01821 0.80281 0.65113 0.0
C1846 C 0.99902 0.78773 0.6477 0.0
C1847 C 0.02191 0.78082 0.64062 0.0
C1848 C 0.00447 0.80023 0.65237 0.0
C1849 C 0.02697 0.79344 0.64542 0.0
C1850 C 0.97072 0.755 0.61319 0.0
C1851 C 0.94726 0.74713 0.61591 0.0
N1852 N 0.94265 0.75995 0.61255 0.0
C1853 C 0.96575 0.76807 0.60966 0.0
C1854 C 0.96142 0.7444 0.61624 0.0
C1855 C 0.95151 0.77038 0.60943 0.0
C1856 C 0.00879 0.77861 0.59264 0.0
N1857 N 0.00305 0.77983 0.60539 0.0
C1858 C 0.99927 0.80397 0.60184 0.0
C1859 C 0.99814 0.79214 0.61002 0.0
C1860 C 0.00552 0.80309 0.58878 0.0
C1861 C 0.01026 0.79018 0.58418 0.0
H1862 H 0.01226 0.76863 0.58905 0.0
H1863 H 0.99323 0.79278 0.62 0.0
C1864 C 0.96892 0.74317 0.6546 0.0
N1865 N 0.97239 0.75366 0.64597 0.0
C1866 C 0.95737 0.74431 0.66317 0.0
C1867 C 0.95325 0.76708 0.65385 0.0
C1868 C 0.96492 0.76552 0.64554 0.0
C1869 C 0.94931 0.75638 0.66283 0.0
H1870 H 0.97515 0.73391 0.65488 0.0
H1871 H 0.96794 0.77374 0.63863 0.0
C1872 C 0.02835 0.75024 0.60734 0.0
N1873 N 0.05427 0.75295 0.59571 0.0
C1874 C 0.0346 0.73899 0.60081 0.0
C1875 C 0.03525 0.76291 0.60782 0.0
C1876 C 0.04772 0.74056 0.59503 0.0
C1877 C 0.04835 0.76407 0.60191 0.0
C1878 C 0.99923 0.7207 0.63795 0.0
C1879 C 0.01148 0.71379 0.64119 0.0
C1880 C 0.98712 0.71315 0.63587 0.0
C1881 C 0.01143 0.6994 0.64214 0.0
C1882 C 0.9875 0.69877 0.63688 0.0
N1883 N 0.99955 0.69225 0.63996 0.0
C1884 C 0.02764 0.74751 0.65882 0.0
C1885 C 0.04261 0.74427 0.63977 0.0
C1886 C 0.03864 0.74599 0.66803 0.0
N1887 N 0.0298 0.74665 0.64499 0.0
C1888 C 0.05392 0.74288 0.64858 0.0
C1889 C 0.05205 0.74368 0.66296 0.0
H1890 H 0.01732 0.74929 0.66269 0.0
H1891 H 0.04415 0.74343 0.6288 0.0
C1892 C 0.98543 0.72151 0.59608 0.0
N1893 N 0.99643 0.72205 0.60476 0.0
C1894 C 0.98332 0.70996 0.58772 0.0
C1895 C 0.004 0.69979 0.59725 0.0
C1896 C 0.00575 0.71158 0.60536 0.0
C1897 C 0.99262 0.69883 0.58829 0.0
H1898 H 0.97829 0.73006 0.59562 0.0
H1899 H 0.0145 0.71232 0.61224 0.0
O1900 O 0.00261 0.7657 0.63705 0.0
O1901 O 0.98463 0.75261 0.61368 0.0
O1902 O 0.01552 0.74885 0.61307 0.0
O1903 O 0.99911 0.73477 0.63686 0.0
H1904 H 0.9881 0.78567 0.64872 0.0
H1905 H 0.02892 0.77331 0.6363 0.0
H1906 H 0.99778 0.80788 0.65699 0.0
H1907 H 0.03786 0.79575 0.64467 0.0
H1908 H 0.93995 0.73905 0.61835 0.0
H1909 H 0.9728 0.77637 0.60721 0.0
H1910 H 0.9651 0.73422 0.61894 0.0
H1911 H 0.94752 0.78046 0.60678 0.0
H1912 H 0.99546 0.81372 0.60576 0.0
H1913 H 0.0149 0.78901 0.57408 0.0
H1914 H 0.9549 0.73589 0.67009 0.0
H1915 H 0.94728 0.7765 0.65309 0.0
H1916 H 0.0294 0.72914 0.60023 0.0
H1917 H 0.03051 0.7718 0.61259 0.0
H1918 H 0.05269 0.73192 0.59 0.0
H1919 H 0.05379 0.77381 0.60223 0.0
H1920 H 0.02096 0.71946 0.64284 0.0
H1921 H 0.97755 0.71833 0.6334 0.0
H1922 H 0.02085 0.69391 0.64457 0.0
H1923 H 0.97822 0.69279 0.63521 0.0
H1924 H 0.03658 0.74645 0.67901 0.0
H1925 H 0.06404 0.74132 0.64412 0.0
H1926 H 0.97455 0.70982 0.58078 0.0
H1927 H 0.01138 0.69145 0.59816 0.0
Li1928 Li 0.5018 0.26342 0.11633 0.0
Li1929 Li 0.48737 0.25195 0.13377 0.0
Li1930 Li 0.51337 0.24895 0.13367 0.0
Li1931 Li 0.49865 0.23746 0.11649 0.0
C1932 C 0.50459 0.27944 0.13986 0.0
N1933 N 0.50951 0.30686 0.14603 0.0
C1934 C 0.4938 0.28793 0.14429 0.0
C1935 C 0.51792 0.28483 0.13882 0.0
C1936 C 0.49648 0.30178 0.14729 0.0
C1937 C 0.52019 0.29873 0.14192 0.0
C1938 C 0.47093 0.25367 0.11093 0.0
C1939 C 0.44788 0.24426 0.11108 0.0
N1940 N 0.44291 0.25652 0.10637 0.0
C1941 C 0.46561 0.26612 0.10594 0.0
C1942 C 0.46201 0.2426 0.11338 0.0
C1943 C 0.45141 0.26738 0.10375 0.0
C1944 C 0.51237 0.27903 0.09402 0.0
N1945 N 0.50365 0.27945 0.10501 0.0
C1946 C 0.49746 0.30276 0.09971 0.0
C1947 C 0.49614 0.29096 0.10788 0.0
C1948 C 0.50653 0.30269 0.0884 0.0
C1949 C 0.51403 0.2906 0.08558 0.0
H1950 H 0.51797 0.26966 0.09174 0.0
H1951 H 0.489 0.29094 0.11644 0.0
C1952 C 0.46988 0.24502 0.15601 0.0
N1953 N 0.47145 0.25387 0.14523 0.0
C1954 C 0.45836 0.24602 0.16463 0.0
C1955 C 0.45034 0.26529 0.15097 0.0
C1956 C 0.46205 0.26397 0.14268 0.0
C1957 C 0.44838 0.25623 0.16212 0.0
H1958 H 0.47759 0.2372 0.15795 0.0
H1959 H 0.4637 0.27111 0.13428 0.0
C1960 C 0.52938 0.2479 0.10998 0.0
N1961 N 0.55717 0.24661 0.10362 0.0
C1962 C 0.53509 0.23569 0.10483 0.0
C1963 C 0.53776 0.25952 0.11166 0.0
C1964 C 0.54917 0.23522 0.10174 0.0
C1965 C 0.55179 0.25864 0.10846 0.0
C1966 C 0.49707 0.22124 0.13948 0.0
C1967 C 0.50841 0.21332 0.14359 0.0
C1968 C 0.48415 0.21499 0.1381 0.0
C1969 C 0.50669 0.1992 0.14594 0.0
C1970 C 0.48285 0.20084 0.14054 0.0
N1971 N 0.49405 0.19329 0.14435 0.0
C1972 C 0.53029 0.2552 0.1565 0.0
C1973 C 0.53944 0.23793 0.14181 0.0
C1974 C 0.54179 0.25427 0.16515 0.0
N1975 N 0.52939 0.24718 0.14503 0.0
C1976 C 0.55114 0.23668 0.15013 0.0
C1977 C 0.55243 0.24493 0.16199 0.0
H1978 H 0.52206 0.26231 0.15898 0.0
H1979 H 0.5383 0.23134 0.1329 0.0
C1980 C 0.48686 0.22134 0.09523 0.0
N1981 N 0.49661 0.22134 0.10532 0.0
C1982 C 0.48481 0.20963 0.08708 0.0
C1983 C 0.50308 0.19821 0.09964 0.0
C1984 C 0.50479 0.21016 0.10753 0.0
C1985 C 0.49293 0.19781 0.08929 0.0
H1986 H 0.48069 0.23046 0.09346 0.0
H1987 H 0.51265 0.21049 0.11542 0.0
O1988 O 0.50213 0.26587 0.1368 0.0
O1989 O 0.4848 0.25231 0.11326 0.0
O1990 O 0.51563 0.24851 0.11316 0.0
O1991 O 0.4986 0.23507 0.13702 0.0
H1992 H 0.48345 0.28391 0.14532 0.0
H1993 H 0.52646 0.27834 0.13578 0.0
H1994 H 0.4882 0.30849 0.15063 0.0
H1995 H 0.53046 0.30304 0.1411 0.0
H1996 H 0.44086 0.23579 0.11301 0.0
H1997 H 0.47236 0.27474 0.10381 0.0
H1998 H 0.46597 0.23283 0.11698 0.0
H1999 H 0.44716 0.27698 0.09997 0.0
H2000 H 0.49151 0.31186 0.1023 0.0
H2001 H 0.52094 0.28999 0.07681 0.0
H2002 H 0.45722 0.23878 0.17308 0.0
H2003 H 0.44302 0.27346 0.14882 0.0
H2004 H 0.52875 0.22665 0.10328 0.0
H2005 H 0.53347 0.26914 0.11529 0.0
H2006 H 0.55374 0.22581 0.09784 0.0
H2007 H 0.5584 0.26755 0.10977 0.0
H2008 H 0.51846 0.21799 0.14485 0.0
H2009 H 0.47521 0.221 0.13524 0.0
H2010 H 0.5154 0.19293 0.14902 0.0
H2011 H 0.47291 0.19586 0.13943 0.0
H2012 H 0.54239 0.26088 0.17415 0.0
H2013 H 0.55895 0.22915 0.14746 0.0
H2014 H 0.47705 0.20989 0.07904 0.0
H2015 H 0.50952 0.18933 0.10178 0.0
C2016 C 0.23781 0.75441 0.85457 0.0
C2017 C 0.23407 0.75941 0.84147 0.0
C2018 C 0.23916 0.7634 0.86576 0.0
C2019 C 0.22827 0.79759 0.87834 0.0
H2020 H 0.25846 0.79279 0.90419 0.0
C2021 C 0.23023 0.82533 0.93115 0.0
C2022 C 0.24307 0.83051 0.93552 0.0
C2023 C 0.22928 0.81708 0.91935 0.0
C2024 C 0.25003 0.79434 0.89701 0.0
H2025 H 0.22902 0.77787 0.82984 0.0
H2026 H 0.23133 0.79357 0.84942 0.0
H2027 H 0.25677 0.77775 0.88408 0.0
H2028 H 0.26492 0.83133 0.93068 0.0
H2029 H 0.26325 0.81687 0.91015 0.0
H2030 H 0.2216 0.81427 0.89123 0.0
C2031 C 0.23306 0.78264 0.85104 0.0
C2032 C 0.24898 0.78563 0.88557 0.0
C2033 C 0.23173 0.77365 0.83983 0.0
C2034 C 0.25491 0.82732 0.92775 0.0
C2035 C 0.25395 0.81904 0.91597 0.0
C2036 C 0.22929 0.80628 0.88982 0.0
C2037 C 0.23678 0.77762 0.86414 0.0
C2038 C 0.23806 0.78711 0.87612 0.0
C2039 C 0.24113 0.81378 0.91166 0.0
C2040 C 0.24016 0.80473 0.89931 0.0
H2041 H 0.23943 0.74348 0.85626 0.0
H2042 H 0.24182 0.75916 0.87576 0.0
H2043 H 0.21967 0.79893 0.87132 0.0
H2044 H 0.22094 0.82742 0.937 0.0
H2045 H 0.21928 0.81303 0.91643 0.0
C2046 C 0.01782 0.53784 0.40298 0.0
C2047 C 0.01376 0.52695 0.41167 0.0
C2048 C 0.02593 0.53529 0.39132 0.0
C2049 C 0.03651 0.50755 0.36731 0.0
H2050 H 0.06582 0.53315 0.35795 0.0
C2051 C 0.06596 0.50503 0.31542 0.0
C2052 C 0.08025 0.50755 0.3157 0.0
C2053 C 0.0579 0.50711 0.32722 0.0
C2054 C 0.05775 0.52583 0.36048 0.0
H2055 H 0.01519 0.50487 0.41501 0.0
H2056 H 0.0294 0.50043 0.3947 0.0
H2057 H 0.05188 0.53718 0.37848 0.0
H2058 H 0.09725 0.51431 0.32862 0.0
H2059 H 0.08326 0.51763 0.34925 0.0
H2060 H 0.04258 0.49605 0.34945 0.0
C2061 C 0.02613 0.51091 0.39677 0.0
C2062 C 0.04965 0.52824 0.37216 0.0
C2063 C 0.01799 0.51345 0.40843 0.0
C2064 C 0.0863 0.51212 0.32808 0.0
C2065 C 0.07825 0.51419 0.33986 0.0
C2066 C 0.04463 0.50514 0.35562 0.0
C2067 C 0.03021 0.52181 0.38809 0.0
C2068 C 0.0389 0.51914 0.37571 0.0
C2069 C 0.06394 0.51177 0.33957 0.0
C2070 C 0.05534 0.51425 0.35206 0.0
H2071 H 0.01454 0.54832 0.40506 0.0
H2072 H 0.02868 0.54389 0.38473 0.0
H2073 H 0.02824 0.50041 0.36967 0.0
H2074 H 0.06099 0.50136 0.30611 0.0
H2075 H 0.0469 0.50527 0.32659 0.0
C2076 C 0.76549 0.74807 0.85542 0.0
C2077 C 0.76913 0.74302 0.84231 0.0
C2078 C 0.76405 0.73909 0.86662 0.0
C2079 C 0.77431 0.70464 0.87913 0.0
H2080 H 0.74386 0.70963 0.90464 0.0
C2081 C 0.77101 0.67594 0.93135 0.0
C2082 C 0.75802 0.67085 0.93536 0.0
C2083 C 0.7723 0.68447 0.91978 0.0
C2084 C 0.75236 0.70803 0.89755 0.0
H2085 H 0.77396 0.7245 0.83068 0.0
H2086 H 0.77153 0.70884 0.85025 0.0
H2087 H 0.7461 0.72492 0.88476 0.0
H2088 H 0.73625 0.67052 0.93014 0.0
H2089 H 0.73851 0.68548 0.91002 0.0
H2090 H 0.78049 0.68765 0.89185 0.0
C2091 C 0.76994 0.71978 0.85189 0.0
C2092 C 0.75373 0.71689 0.88625 0.0
C2093 C 0.77134 0.72877 0.84068 0.0
C2094 C 0.74637 0.67445 0.92749 0.0
C2095 C 0.74766 0.68301 0.91594 0.0
C2096 C 0.77297 0.69581 0.89047 0.0
C2097 C 0.76625 0.72484 0.86498 0.0
C2098 C 0.76473 0.71531 0.87692 0.0
C2099 C 0.76064 0.68814 0.91197 0.0
C2100 C 0.76199 0.69742 0.89982 0.0
H2101 H 0.76394 0.75901 0.85711 0.0
H2102 H 0.76142 0.74334 0.87662 0.0
H2103 H 0.78297 0.70322 0.8722 0.0
H2104 H 0.78017 0.67356 0.9373 0.0
H2105 H 0.78242 0.68842 0.91712 0.0
C2106 C 0.98862 0.96832 0.40013 0.0
C2107 C 0.99329 0.9802 0.40705 0.0
C2108 C 0.97991 0.96943 0.38868 0.0
C2109 C 0.96906 0.99393 0.36158 0.0
H2110 H 0.93821 0.96883 0.35704 0.0
C2111 C 0.92753 0.00209 0.31973 0.0
C2112 C 0.92269 0.99038 0.31265 0.0
C2113 C 0.93613 0.00069 0.33122 0.0
C2114 C 0.94688 0.97582 0.35807 0.0
H2115 H 0.99216 0.00256 0.40753 0.0
H2116 H 0.97698 0.00449 0.38755 0.0
H2117 H 0.95314 0.9667 0.37721 0.0
H2118 H 0.92327 0.96801 0.31202 0.0
H2119 H 0.93832 0.96557 0.33208 0.0
H2120 H 0.96283 0.00304 0.34245 0.0
C2121 C 0.98025 0.99432 0.39085 0.0
C2122 C 0.95543 0.9746 0.36964 0.0
C2123 C 0.98895 0.99321 0.4023 0.0
C2124 C 0.92666 0.97723 0.31735 0.0
C2125 C 0.93528 0.97584 0.32885 0.0
C2126 C 0.96052 0.99514 0.35002 0.0
C2127 C 0.97567 0.98245 0.38387 0.0
C2128 C 0.9666 0.98367 0.37155 0.0
C2129 C 0.94013 0.98756 0.33592 0.0
C2130 C 0.9493 0.98612 0.34814 0.0
H2131 H 0.99193 0.95815 0.4034 0.0
H2132 H 0.97671 0.9601 0.38343 0.0
H2133 H 0.97771 0.00092 0.36262 0.0
H2134 H 0.92447 0.01235 0.31653 0.0
H2135 H 0.93948 0.00993 0.33656 0.0
C2136 C 0.22065 0.23653 0.65224 0.0
C2137 C 0.23232 0.2411 0.65955 0.0
C2138 C 0.22205 0.22757 0.64102 0.0
C2139 C 0.24747 0.21563 0.61521 0.0
H2140 H 0.2213 0.18588 0.60958 0.0
C2141 C 0.255 0.17424 0.57295 0.0
C2142 C 0.24326 0.17032 0.56536 0.0
C2143 C 0.25374 0.18259 0.58465 0.0
C2144 C 0.22861 0.19422 0.61093 0.0
H2145 H 0.2546 0.23951 0.66101 0.0
H2146 H 0.25705 0.22384 0.64146 0.0
H2147 H 0.21898 0.20087 0.62968 0.0
H2148 H 0.22099 0.17227 0.56408 0.0
H2149 H 0.21879 0.18681 0.5845 0.0
H2150 H 0.25708 0.20901 0.59645 0.0
C2151 C 0.24682 0.22739 0.64425 0.0
C2152 C 0.22729 0.20281 0.62245 0.0
C2153 C 0.24542 0.23637 0.65546 0.0
C2154 C 0.23022 0.17491 0.5698 0.0
C2155 C 0.22896 0.18325 0.58151 0.0
C2156 C 0.2488 0.20703 0.6037 0.0
C2157 C 0.23516 0.22294 0.63685 0.0
C2158 C 0.23668 0.21365 0.62471 0.0
C2159 C 0.24071 0.18722 0.58906 0.0
C2160 C 0.23938 0.19624 0.6014 0.0
H2161 H 0.21043 0.24014 0.65499 0.0
H2162 H 0.21287 0.2245 0.63542 0.0
H2163 H 0.25475 0.22401 0.61651 0.0
H2164 H 0.26517 0.17071 0.56995 0.0
H2165 H 0.26297 0.18528 0.59035 0.0
C2166 C 0.48888 0.50723 0.59794 0.0
C2167 C 0.49251 0.5203 0.59274 0.0
C2168 C 0.48017 0.50602 0.60937 0.0
C2169 C 0.45353 0.5244 0.62911 0.0
H2170 H 0.46373 0.49944 0.65868 0.0
C2171 C 0.42394 0.52312 0.68088 0.0
C2172 C 0.42203 0.51024 0.68725 0.0
C2173 C 0.43251 0.5244 0.66933 0.0
C2174 C 0.4606 0.50631 0.65044 0.0
H2175 H 0.4898 0.54235 0.59565 0.0
H2176 H 0.47437 0.54019 0.61542 0.0
H2177 H 0.4785 0.50143 0.63842 0.0
H2178 H 0.42738 0.48854 0.68638 0.0
H2179 H 0.4421 0.49067 0.6661 0.0
H2180 H 0.43552 0.52914 0.64097 0.0
C2181 C 0.47824 0.53089 0.61056 0.0
C2182 C 0.4691 0.50747 0.63885 0.0
C2183 C 0.48706 0.53212 0.59919 0.0
C2184 C 0.42881 0.49864 0.6818 0.0
C2185 C 0.43728 0.49988 0.67019 0.0
C2186 C 0.44495 0.52315 0.64065 0.0
C2187 C 0.47477 0.51784 0.61582 0.0
C2188 C 0.46567 0.51655 0.62807 0.0
C2189 C 0.43928 0.51278 0.66382 0.0
C2190 C 0.44839 0.51411 0.65149 0.0
H2191 H 0.49265 0.49789 0.59309 0.0
H2192 H 0.47751 0.49581 0.61309 0.0
H2193 H 0.45054 0.53136 0.62088 0.0
H2194 H 0.41896 0.53227 0.68495 0.0
H2195 H 0.43398 0.53453 0.66487 0.0
C2196 C 0.77747 0.27814 0.6627 0.0
C2197 C 0.77714 0.26368 0.66162 0.0
C2198 C 0.77488 0.28642 0.65117 0.0
C2199 C 0.75918 0.28587 0.61631 0.0
H2200 H 0.78199 0.31822 0.61045 0.0
C2201 C 0.74806 0.32546 0.57299 0.0
C2202 C 0.75949 0.33075 0.56578 0.0
C2203 C 0.74994 0.31735 0.58479 0.0
C2204 C 0.77559 0.30917 0.61188 0.0
H2205 H 0.7739 0.24658 0.64755 0.0
H2206 H 0.76943 0.26101 0.62743 0.0
H2207 H 0.78581 0.30384 0.63071 0.0
H2208 H 0.78186 0.33141 0.56515 0.0
H2209 H 0.78513 0.31725 0.58567 0.0
H2210 H 0.74919 0.29103 0.59729 0.0
C2211 C 0.77147 0.26597 0.63724 0.0
C2212 C 0.77766 0.30102 0.62359 0.0
C2213 C 0.77404 0.25769 0.64877 0.0
C2214 C 0.77283 0.3277 0.5706 0.0
C2215 C 0.77471 0.31958 0.58238 0.0
C2216 C 0.75711 0.29403 0.60459 0.0
C2217 C 0.77192 0.28044 0.63828 0.0
C2218 C 0.76951 0.28924 0.62594 0.0
C2219 C 0.76329 0.31433 0.58964 0.0
C2220 C 0.76532 0.30575 0.60221 0.0
H2221 H 0.77961 0.28308 0.6725 0.0
H2222 H 0.77507 0.29753 0.6524 0.0
H2223 H 0.75263 0.27695 0.61787 0.0
H2224 H 0.73765 0.32777 0.56965 0.0
H2225 H 0.74092 0.31363 0.59024 0.0
C2226 C 0.51893 0.96161 0.59915 0.0
C2227 C 0.51361 0.97271 0.59145 0.0
C2228 C 0.52684 0.96397 0.61097 0.0
C2229 C 0.54726 0.99108 0.62886 0.0
H2230 H 0.54343 0.96646 0.6602 0.0
C2231 C 0.57207 0.00186 0.6822 0.0
C2232 C 0.57896 0.9907 0.68847 0.0
C2233 C 0.56404 0.99985 0.67038 0.0
C2234 C 0.54468 0.97336 0.65149 0.0
H2235 H 0.51261 0.99506 0.59018 0.0
H2236 H 0.52593 0.99916 0.61107 0.0
H2237 H 0.5294 0.96272 0.63967 0.0
H2238 H 0.58291 0.96869 0.68697 0.0
H2239 H 0.56865 0.96518 0.66656 0.0
H2240 H 0.5624 0.00184 0.64088 0.0
C2241 C 0.52421 0.9886 0.60783 0.0
C2242 C 0.53667 0.9712 0.63969 0.0
C2243 C 0.51638 0.98624 0.59593 0.0
C2244 C 0.57756 0.97748 0.68262 0.0
C2245 C 0.56942 0.97546 0.67088 0.0
C2246 C 0.55517 0.99332 0.64073 0.0
C2247 C 0.52955 0.9775 0.6155 0.0
C2248 C 0.53791 0.97998 0.62818 0.0
C2249 C 0.5626 0.98662 0.66463 0.0
C2250 C 0.55401 0.98443 0.65213 0.0
H2251 H 0.51687 0.95105 0.59614 0.0
H2252 H 0.53094 0.95516 0.61649 0.0
H2253 H 0.54867 0.99792 0.62014 0.0
H2254 H 0.57271 0.01214 0.68653 0.0
H2255 H 0.55877 0.00861 0.66586 0.0
C2256 C 0.84336 0.23657 0.76826 0.0
C2257 C 0.84076 0.22317 0.76336 0.0
C2258 C 0.85504 0.2393 0.7763 0.0
C2259 C 0.88169 0.22182 0.79767 0.0
H2260 H 0.90162 0.2562 0.79288 0.0
C2261 C 0.93536 0.23128 0.8216 0.0
C2262 C 0.93734 0.24398 0.82833 0.0
C2263 C 0.92355 0.22897 0.81365 0.0
C2264 C 0.89609 0.2466 0.7944 0.0
H2265 H 0.84851 0.2022 0.76275 0.0
H2266 H 0.869 0.20697 0.77651 0.0
H2267 H 0.88107 0.25168 0.77902 0.0
H2268 H 0.92866 0.26431 0.83177 0.0
H2269 H 0.90802 0.26029 0.81779 0.0
H2270 H 0.89688 0.21666 0.81287 0.0
C2271 C 0.86186 0.21532 0.7745 0.0
C2272 C 0.88428 0.24402 0.7865 0.0
C2273 C 0.85013 0.21258 0.76657 0.0
C2274 C 0.92736 0.25439 0.82678 0.0
C2275 C 0.91561 0.25213 0.8187 0.0
C2276 C 0.89355 0.22435 0.80547 0.0
C2277 C 0.86445 0.22871 0.7795 0.0
C2278 C 0.87694 0.23157 0.78801 0.0
C2279 C 0.91353 0.23935 0.81215 0.0
C2280 C 0.90088 0.23676 0.8039 0.0
H2281 H 0.83624 0.2449 0.76606 0.0
H2282 H 0.85657 0.24967 0.78015 0.0
H2283 H 0.87616 0.21224 0.79933 0.0
H2284 H 0.94281 0.22302 0.82271 0.0
H2285 H 0.92229 0.21907 0.80862 0.0
C2286 C 0.4753 0.91311 0.47291 0.0
C2287 C 0.47449 0.91201 0.48734 0.0
C2288 C 0.47775 0.90143 0.46481 0.0
C2289 C 0.49023 0.86507 0.46686 0.0
H2290 H 0.47219 0.86207 0.43125 0.0
C2291 C 0.48888 0.8147 0.43457 0.0
C2292 C 0.49206 0.81602 0.42045 0.0
C2293 C 0.48705 0.8264 0.44283 0.0
C2294 C 0.47737 0.86282 0.44113 0.0
H2295 H 0.47542 0.89784 0.50461 0.0
H2296 H 0.47928 0.87737 0.49049 0.0
H2297 H 0.46822 0.8824 0.4455 0.0
H2298 H 0.4961 0.83081 0.40409 0.0
H2299 H 0.4925 0.85116 0.41844 0.0
H2300 H 0.49906 0.84525 0.46253 0.0
C2301 C 0.47843 0.88728 0.4854 0.0
C2302 C 0.47516 0.8745 0.44929 0.0
C2303 C 0.47616 0.899 0.49351 0.0
C2304 C 0.49338 0.82936 0.41483 0.0
C2305 C 0.49138 0.84104 0.42306 0.0
C2306 C 0.49229 0.85331 0.45876 0.0
C2307 C 0.47926 0.88833 0.47093 0.0
C2308 C 0.48159 0.87583 0.46225 0.0
C2309 C 0.48819 0.83968 0.43713 0.0
C2310 C 0.48593 0.85209 0.44579 0.0
H2311 H 0.47423 0.92305 0.46791 0.0
H2312 H 0.47861 0.90272 0.45374 0.0
H2313 H 0.49556 0.8658 0.47665 0.0
H2314 H 0.48754 0.80463 0.43923 0.0
H2315 H 0.48445 0.82506 0.45362 0.0
C2316 C 0.15572 0.25675 0.76504 0.0
C2317 C 0.15892 0.26952 0.75895 0.0
C2318 C 0.14455 0.25554 0.7741 0.0
C2319 C 0.11154 0.27185 0.7832 0.0
H2320 H 0.11526 0.25129 0.81735 0.0
C2321 C 0.06818 0.27084 0.82404 0.0
C2322 C 0.06561 0.25826 0.83083 0.0
C2323 C 0.07977 0.27241 0.81559 0.0
C2324 C 0.11399 0.25693 0.80778 0.0
H2325 H 0.15286 0.29102 0.75751 0.0
H2326 H 0.13335 0.28891 0.77335 0.0
H2327 H 0.13504 0.25354 0.80193 0.0
H2328 H 0.07346 0.23756 0.83421 0.0
H2329 H 0.09337 0.24014 0.81913 0.0
H2330 H 0.09046 0.27506 0.78887 0.0
C2331 C 0.13948 0.27983 0.77109 0.0
C2332 C 0.12534 0.25823 0.79896 0.0
C2333 C 0.15071 0.28106 0.76212 0.0
C2334 C 0.07499 0.24733 0.82901 0.0
C2335 C 0.08654 0.24887 0.82049 0.0
C2336 C 0.10016 0.27047 0.79197 0.0
C2337 C 0.13626 0.26705 0.77717 0.0
C2338 C 0.12424 0.26571 0.78658 0.0
C2339 C 0.08906 0.26142 0.81364 0.0
C2340 C 0.10123 0.26299 0.80437 0.0
H2341 H 0.16193 0.2477 0.76289 0.0
H2342 H 0.14226 0.24554 0.77854 0.0
H2343 H 0.11032 0.27751 0.77364 0.0
H2344 H 0.06112 0.27944 0.82506 0.0
H2345 H 0.08147 0.28228 0.81063 0.0
C2346 C 0.50474 0.5968 0.48718 0.0
C2347 C 0.51783 0.59194 0.49117 0.0
C2348 C 0.50348 0.60823 0.47845 0.0
C2349 C 0.52319 0.63853 0.46561 0.0
H2350 H 0.49389 0.64022 0.4384 0.0
C2351 C 0.52024 0.68097 0.42378 0.0
C2352 C 0.5073 0.68733 0.42193 0.0
C2353 C 0.52154 0.6692 0.43202 0.0
C2354 C 0.50206 0.63992 0.44602 0.0
H2355 H 0.53986 0.59537 0.48901 0.0
H2356 H 0.53768 0.61486 0.47339 0.0
H2357 H 0.49623 0.61977 0.45291 0.0
H2358 H 0.48561 0.68624 0.42748 0.0
H2359 H 0.48788 0.66552 0.44157 0.0
H2360 H 0.52913 0.65861 0.45851 0.0
C2361 C 0.52836 0.61003 0.47723 0.0
C2362 C 0.50339 0.62823 0.45438 0.0
C2363 C 0.52961 0.59869 0.48604 0.0
C2364 C 0.49569 0.68152 0.42845 0.0
C2365 C 0.49698 0.66966 0.43657 0.0
C2366 C 0.52194 0.65015 0.45716 0.0
C2367 C 0.51527 0.61503 0.4734 0.0
C2368 C 0.51395 0.62739 0.46432 0.0
C2369 C 0.50993 0.66342 0.43849 0.0
C2370 C 0.51134 0.65099 0.44732 0.0
H2371 H 0.49543 0.59177 0.49075 0.0
H2372 H 0.49323 0.61186 0.47586 0.0
H2373 H 0.53128 0.6384 0.47333 0.0
H2374 H 0.52936 0.68497 0.41871 0.0
H2375 H 0.53162 0.6645 0.43318 0.0
C2376 C 0.85023 0.7804 0.73847 0.0
C2377 C 0.84233 0.76878 0.74207 0.0
C2378 C 0.86167 0.77908 0.72977 0.0
C2379 C 0.87707 0.75654 0.70332 0.0
H2380 H 0.91108 0.77527 0.713 0.0
C2381 C 0.92818 0.74648 0.67425 0.0
C2382 C 0.93692 0.75782 0.67181 0.0
C2383 C 0.91658 0.74783 0.68273 0.0
C2384 C 0.90162 0.77012 0.71003 0.0
H2385 H 0.84006 0.74671 0.73916 0.0
H2386 H 0.86008 0.74439 0.72399 0.0
H2387 H 0.89088 0.7777 0.7278 0.0
H2388 H 0.94029 0.77945 0.67652 0.0
H2389 H 0.91986 0.7819 0.69092 0.0
H2390 H 0.88772 0.74906 0.68547 0.0
C2391 C 0.85741 0.75453 0.72788 0.0
C2392 C 0.89005 0.7715 0.71854 0.0
C2393 C 0.84603 0.75583 0.73667 0.0
C2394 C 0.93372 0.77054 0.67803 0.0
C2395 C 0.92209 0.7719 0.68645 0.0
C2396 C 0.88861 0.75523 0.69476 0.0
C2397 C 0.8654 0.76613 0.7244 0.0
C2398 C 0.87765 0.76471 0.71529 0.0
C2399 C 0.91338 0.76055 0.68894 0.0
C2400 C 0.90105 0.76199 0.69801 0.0
H2401 H 0.84771 0.7905 0.74255 0.0
H2402 H 0.86755 0.78823 0.72717 0.0
H2403 H 0.8676 0.75133 0.70045 0.0
H2404 H 0.93022 0.73657 0.66951 0.0
H2405 H 0.9102 0.73883 0.68453 0.0
C2406 C 0.03006 0.90129 0.51241 0.0
C2407 C 0.01855 0.90947 0.50907 0.0
C2408 C 0.02868 0.88998 0.52127 0.0
C2409 C 0.00674 0.87548 0.54861 0.0
H2410 H 0.02357 0.84071 0.53813 0.0
C2411 C 0.99608 0.82485 0.57836 0.0
C2412 C 0.00706 0.81552 0.57997 0.0
C2413 C 0.99749 0.83644 0.56988 0.0
C2414 C 0.01897 0.85038 0.54134 0.0
H2415 H 0.99666 0.9124 0.51261 0.0
H2416 H 0.99425 0.89263 0.52812 0.0
H2417 H 0.02615 0.86078 0.5232 0.0
H2418 H 0.02825 0.8112 0.57427 0.0
H2419 H 0.03084 0.83154 0.55969 0.0
H2420 H 0.99971 0.86517 0.56684 0.0
C2421 C 0.00433 0.89498 0.52387 0.0
C2422 C 0.02042 0.86187 0.53275 0.0
C2423 C 0.00568 0.90621 0.51491 0.0
C2424 C 0.01954 0.81811 0.57305 0.0
C2425 C 0.021 0.82975 0.56467 0.0
C2426 C 0.00538 0.86401 0.55727 0.0
C2427 C 0.0158 0.88669 0.52707 0.0
C2428 C 0.01431 0.87453 0.53628 0.0
C2429 C 0.00997 0.83904 0.5629 0.0
C2430 C 0.01146 0.8513 0.55374 0.0
H2431 H 0.04009 0.90348 0.50799 0.0
H2432 H 0.03773 0.88385 0.52364 0.0
H2433 H 0.00205 0.88515 0.55168 0.0
H2434 H 0.98629 0.82304 0.58344 0.0
H2435 H 0.98871 0.84323 0.5686 0.0
C2436 C 0.15532 0.74345 0.73715 0.0
C2437 C 0.15753 0.73123 0.7446 0.0
C2438 C 0.14394 0.74471 0.72836 0.0
C2439 C 0.11715 0.72379 0.7103 0.0
H2440 H 0.09935 0.75939 0.70623 0.0
C2441 C 0.07488 0.73301 0.66938 0.0
C2442 C 0.06399 0.74209 0.67255 0.0
C2443 C 0.0862 0.73169 0.67821 0.0
C2444 C 0.10406 0.74932 0.70736 0.0
H2445 H 0.14951 0.71083 0.74894 0.0
H2446 H 0.12938 0.71315 0.73402 0.0
H2447 H 0.11882 0.75701 0.72182 0.0
H2448 H 0.05663 0.75693 0.68764 0.0
H2449 H 0.07596 0.75411 0.70334 0.0
H2450 H 0.10199 0.71596 0.69634 0.0
C2451 C 0.13661 0.72164 0.73457 0.0
C2452 C 0.11542 0.748 0.71616 0.0
C2453 C 0.14811 0.72031 0.74318 0.0
C2454 C 0.06469 0.7497 0.6849 0.0
C2455 C 0.07593 0.74824 0.69383 0.0
C2456 C 0.10567 0.72507 0.70165 0.0
C2457 C 0.13438 0.73385 0.72699 0.0
C2458 C 0.12217 0.73523 0.71771 0.0
C2459 C 0.08689 0.73927 0.69058 0.0
C2460 C 0.099 0.73787 0.7 0.0
H2461 H 0.16252 0.75196 0.73795 0.0
H2462 H 0.14277 0.75416 0.72251 0.0
H2463 H 0.12215 0.71383 0.71103 0.0
H2464 H 0.07465 0.72679 0.66009 0.0
H2465 H 0.09449 0.72483 0.67522 0.0
C2466 C 0.96115 0.59753 0.51889 0.0
C2467 C 0.97225 0.58974 0.51371 0.0
C2468 C 0.9635 0.6093 0.52688 0.0
C2469 C 0.99027 0.62663 0.54805 0.0
H2470 H 0.96666 0.65861 0.5433 0.0
C2471 C 0.0017 0.67942 0.57358 0.0
C2472 C 0.99044 0.68632 0.57965 0.0
C2473 C 0.99962 0.66765 0.5655 0.0
C2474 C 0.97327 0.64971 0.54483 0.0
H2475 H 0.99459 0.58825 0.51302 0.0
H2476 H 0.9987 0.60901 0.52659 0.0
H2477 H 0.96286 0.63814 0.52919 0.0
H2478 H 0.96818 0.68601 0.58213 0.0
H2479 H 0.96457 0.6656 0.56788 0.0
H2480 H 0.00076 0.63832 0.56362 0.0
C2481 C 0.98814 0.60589 0.52465 0.0
C2482 C 0.97108 0.63796 0.53676 0.0
C2483 C 0.98578 0.59407 0.51671 0.0
C2484 C 0.97706 0.68113 0.57741 0.0
C2485 C 0.97499 0.66941 0.56927 0.0
C2486 C 0.99251 0.63842 0.55606 0.0
C2487 C 0.97703 0.61365 0.52984 0.0
C2488 C 0.97951 0.62624 0.53831 0.0
C2489 C 0.98624 0.66253 0.56323 0.0
C2490 C 0.984 0.65007 0.55458 0.0
H2491 H 0.95059 0.59462 0.51666 0.0
H2492 H 0.95469 0.61492 0.53084 0.0
H2493 H 0.99683 0.61773 0.54968 0.0
H2494 H 0.01212 0.68324 0.57489 0.0
H2495 H 0.00848 0.66267 0.56083 0.0
C2496 C 0.75951 0.84873 0.24339 0.0
C2497 C 0.75573 0.84374 0.23029 0.0
C2498 C 0.7683 0.86009 0.24467 0.0
C2499 C 0.78195 0.89007 0.22516 0.0
H2500 H 0.80921 0.89068 0.25446 0.0
C2501 C 0.81364 0.93894 0.23786 0.0
C2502 C 0.82755 0.93722 0.24164 0.0
C2503 C 0.80496 0.92751 0.23636 0.0
C2504 C 0.80175 0.89064 0.24613 0.0
H2505 H 0.75819 0.84694 0.20826 0.0
H2506 H 0.77386 0.86644 0.2105 0.0
H2507 H 0.79425 0.87069 0.25185 0.0
H2508 H 0.84319 0.92205 0.24687 0.0
H2509 H 0.82821 0.90214 0.24379 0.0
H2510 H 0.78974 0.90984 0.21918 0.0
C2511 C 0.76986 0.8617 0.21979 0.0
C2512 C 0.79303 0.87923 0.24475 0.0
C2513 C 0.761 0.85038 0.21851 0.0
C2514 C 0.83258 0.92377 0.24379 0.0
C2515 C 0.82393 0.91234 0.24221 0.0
C2516 C 0.79073 0.90144 0.22649 0.0
C2517 C 0.77361 0.86672 0.23289 0.0
C2518 C 0.78299 0.87882 0.23428 0.0
C2519 C 0.80999 0.91406 0.23852 0.0
C2520 C 0.80072 0.90189 0.23701 0.0
H2521 H 0.75579 0.84377 0.25269 0.0
H2522 H 0.77082 0.86376 0.25493 0.0
H2523 H 0.77424 0.89019 0.21707 0.0
H2524 H 0.80944 0.94912 0.23595 0.0
H2525 H 0.79426 0.92925 0.23367 0.0
C2526 C 0.75259 0.14554 0.26475 0.0
C2527 C 0.75765 0.15841 0.26915 0.0
C2528 C 0.76142 0.13421 0.26347 0.0
C2529 C 0.79844 0.12492 0.26025 0.0
H2530 H 0.78534 0.08854 0.27061 0.0
C2531 C 0.83424 0.07722 0.264 0.0
C2532 C 0.82925 0.0649 0.25819 0.0
C2533 C 0.82563 0.08872 0.2653 0.0
C2534 C 0.7891 0.09862 0.26756 0.0
H2535 H 0.77606 0.16943 0.27556 0.0
H2536 H 0.79137 0.14958 0.27375 0.0
H2537 H 0.77014 0.10842 0.27317 0.0
H2538 H 0.81129 0.05494 0.2493 0.0
H2539 H 0.79625 0.07505 0.25156 0.0
H2540 H 0.81748 0.11507 0.25482 0.0
C2541 C 0.78059 0.14829 0.27107 0.0
C2542 C 0.78039 0.11002 0.269 0.0
C2543 C 0.77177 0.15965 0.27229 0.0
C2544 C 0.81546 0.06432 0.25371 0.0
C2545 C 0.80682 0.07579 0.25512 0.0
C2546 C 0.80719 0.11353 0.25891 0.0
C2547 C 0.77553 0.13543 0.26663 0.0
C2548 C 0.78491 0.12332 0.2653 0.0
C2549 C 0.81181 0.08811 0.26093 0.0
C2550 C 0.80259 0.10025 0.26249 0.0
H2551 H 0.74175 0.14414 0.26242 0.0
H2552 H 0.75718 0.12452 0.25985 0.0
H2553 H 0.80221 0.13496 0.25709 0.0
H2554 H 0.84485 0.07799 0.26744 0.0
H2555 H 0.82974 0.09805 0.2699 0.0
C2556 C 0.41137 0.9721 0.97232 0.0
C2557 C 0.41046 0.98657 0.97273 0.0
C2558 C 0.39972 0.96395 0.97477 0.0
C2559 C 0.36449 0.9653 0.98993 0.0
H2560 H 0.35912 0.93183 0.96864 0.0
C2561 C 0.31325 0.93466 0.98989 0.0
C2562 C 0.3143 0.92024 0.99109 0.0
C2563 C 0.32505 0.94271 0.98787 0.0
C2564 C 0.36055 0.94108 0.97475 0.0
H2565 H 0.39659 0.00385 0.97581 0.0
H2566 H 0.3762 0.98967 0.97983 0.0
H2567 H 0.37952 0.94599 0.9646 0.0
H2568 H 0.3285 0.90294 0.99096 0.0
H2569 H 0.34912 0.91702 0.98739 0.0
H2570 H 0.34534 0.96045 0.99988 0.0
C2571 C 0.38597 0.98457 0.97795 0.0
C2572 C 0.37226 0.94919 0.97247 0.0
C2573 C 0.39764 0.99272 0.97561 0.0
C2574 C 0.32739 0.91404 0.99018 0.0
C2575 C 0.33917 0.92208 0.98802 0.0
C2576 C 0.35272 0.95724 0.99212 0.0
C2577 C 0.38685 0.97008 0.97758 0.0
C2578 C 0.37439 0.96141 0.98004 0.0
C2579 C 0.33813 0.9365 0.98686 0.0
C2580 C 0.35063 0.94505 0.98456 0.0
H2581 H 0.42115 0.96708 0.97031 0.0
H2582 H 0.40086 0.95284 0.97465 0.0
H2583 H 0.36589 0.97449 0.99613 0.0
H2584 H 0.30332 0.93973 0.99065 0.0
H2585 H 0.32392 0.95379 0.98691 0.0
C2586 C 0.24825 0.35613 0.26536 0.0
C2587 C 0.24323 0.34318 0.26958 0.0
C2588 C 0.23937 0.36744 0.26418 0.0
C2589 C 0.20236 0.3766 0.26081 0.0
H2590 H 0.21518 0.41288 0.27187 0.0
C2591 C 0.16633 0.4242 0.26408 0.0
C2592 C 0.17146 0.43655 0.25844 0.0
C2593 C 0.17494 0.41272 0.26563 0.0
C2594 C 0.21149 0.40283 0.26863 0.0
H2595 H 0.22483 0.33199 0.27574 0.0
H2596 H 0.20944 0.3518 0.27409 0.0
H2597 H 0.23043 0.39302 0.27432 0.0
H2598 H 0.18968 0.4466 0.25022 0.0
H2599 H 0.20469 0.42655 0.25288 0.0
H2600 H 0.18336 0.38647 0.25525 0.0
C2601 C 0.22022 0.35317 0.27149 0.0
C2602 C 0.22024 0.39144 0.27001 0.0
C2603 C 0.22909 0.34184 0.27261 0.0
C2604 C 0.18539 0.43719 0.25447 0.0
C2605 C 0.19402 0.42576 0.25612 0.0
C2606 C 0.19358 0.38799 0.25952 0.0
C2607 C 0.22525 0.36611 0.26726 0.0
C2608 C 0.21582 0.37819 0.26604 0.0
C2609 C 0.18889 0.41339 0.26169 0.0
C2610 C 0.19808 0.40124 0.26335 0.0
H2611 H 0.2591 0.3576 0.2631 0.0
H2612 H 0.24358 0.37719 0.26072 0.0
H2613 H 0.19868 0.3666 0.25746 0.0
H2614 H 0.1556 0.42337 0.26714 0.0
H2615 H 0.17072 0.40336 0.27004 0.0
C2616 C 0.10073 0.01165 0.46846 0.0
C2617 C 0.09307 0.00777 0.48015 0.0
C2618 C 0.11201 0.02057 0.46971 0.0
C2619 C 0.12731 0.04682 0.49274 0.0
H2620 H 0.16094 0.03885 0.47254 0.0
C2621 C 0.1783 0.07587 0.50312 0.0
C2622 C 0.18651 0.07937 0.49168 0.0
C2623 C 0.16679 0.06732 0.50156 0.0
C2624 C 0.15157 0.04132 0.47812 0.0
H2625 H 0.0911 0.01039 0.5023 0.0
H2626 H 0.11089 0.0258 0.5045 0.0
H2627 H 0.14103 0.02366 0.47007 0.0
H2628 H 0.18891 0.0768 0.46957 0.0
H2629 H 0.1688 0.06191 0.46683 0.0
H2630 H 0.13784 0.06449 0.5008 0.0
C2631 C 0.10813 0.02203 0.49435 0.0
C2632 C 0.14016 0.03261 0.47671 0.0
C2633 C 0.09688 0.01307 0.49311 0.0
C2634 C 0.18292 0.07414 0.47863 0.0
C2635 C 0.17139 0.0656 0.47706 0.0
C2636 C 0.13871 0.05555 0.49414 0.0
C2637 C 0.11584 0.02585 0.48267 0.0
C2638 C 0.12791 0.03523 0.48403 0.0
C2639 C 0.16319 0.06207 0.48851 0.0
C2640 C 0.151 0.05289 0.48688 0.0
H2641 H 0.09814 0.00765 0.45835 0.0
H2642 H 0.11765 0.02343 0.46049 0.0
H2643 H 0.11796 0.04925 0.49836 0.0
H2644 H 0.1809 0.07955 0.51336 0.0
H2645 H 0.16084 0.06463 0.51064 0.0
C2646 C 0.73738 0.14902 0.71066 0.0
C2647 C 0.74038 0.15826 0.72141 0.0
C2648 C 0.72934 0.13731 0.7131 0.0
C2649 C 0.7159 0.11499 0.74139 0.0
H2650 H 0.69031 0.10294 0.71305 0.0
C2651 C 0.67343 0.07387 0.75056 0.0
C2652 C 0.67219 0.06358 0.74041 0.0
C2653 C 0.68203 0.08526 0.74841 0.0
C2654 C 0.69749 0.10613 0.72101 0.0
H2655 H 0.73725 0.16258 0.74313 0.0
H2656 H 0.72288 0.14234 0.74736 0.0
H2657 H 0.70462 0.12323 0.70905 0.0
H2658 H 0.67886 0.05716 0.72005 0.0
H2659 H 0.6938 0.07714 0.71623 0.0
H2660 H 0.70843 0.098 0.75345 0.0
C2661 C 0.72702 0.14391 0.7371 0.0
C2662 C 0.70575 0.11773 0.71871 0.0
C2663 C 0.7352 0.15554 0.73468 0.0
C2664 C 0.6797 0.0649 0.72807 0.0
C2665 C 0.68815 0.07637 0.72585 0.0
C2666 C 0.70751 0.10348 0.74374 0.0
C2667 C 0.72396 0.13463 0.72633 0.0
C2668 C 0.71511 0.12229 0.72885 0.0
C2669 C 0.6894 0.08666 0.73599 0.0
C2670 C 0.69827 0.09891 0.73355 0.0
H2671 H 0.74141 0.15077 0.70037 0.0
H2672 H 0.72747 0.13027 0.70462 0.0
H2673 H 0.72313 0.11803 0.74934 0.0
H2674 H 0.66783 0.07306 0.7602 0.0
H2675 H 0.68274 0.09309 0.75636 0.0
C2676 C 0.40364 0.01877 0.53912 0.0
C2677 C 0.41206 0.01443 0.52813 0.0
C2678 C 0.39189 0.02676 0.53667 0.0
C2679 C 0.37584 0.04978 0.5108 0.0
H2680 H 0.34246 0.04232 0.53159 0.0
C2681 C 0.32368 0.07622 0.49855 0.0
C2682 C 0.31572 0.08063 0.50986 0.0
C2683 C 0.33543 0.06808 0.50056 0.0
C2684 C 0.35174 0.04463 0.5258 0.0
H2685 H 0.41477 0.01521 0.50592 0.0
H2686 H 0.3941 0.02893 0.5016 0.0
H2687 H 0.36291 0.0282 0.53543 0.0
H2688 H 0.31406 0.08015 0.53219 0.0
H2689 H 0.33451 0.06592 0.53569 0.0
H2690 H 0.36462 0.06621 0.50116 0.0
C2691 C 0.39667 0.02627 0.51215 0.0
C2692 C 0.36347 0.03654 0.528 0.0
C2693 C 0.40844 0.01827 0.51461 0.0
C2694 C 0.31981 0.07673 0.52323 0.0
C2695 C 0.33154 0.06858 0.52524 0.0
C2696 C 0.36409 0.05786 0.50858 0.0
C2697 C 0.38824 0.03059 0.52315 0.0
C2698 C 0.37569 0.03905 0.52058 0.0
C2699 C 0.33948 0.06414 0.51393 0.0
C2700 C 0.35192 0.05542 0.5161 0.0
H2701 H 0.40602 0.01586 0.54965 0.0
H2702 H 0.38572 0.03004 0.5454 0.0
H2703 H 0.38513 0.05212 0.50504 0.0
H2704 H 0.32071 0.07887 0.4881 0.0
H2705 H 0.34121 0.06468 0.49162 0.0
C2706 C 0.6057 0.49899 0.51606 0.0
C2707 C 0.59265 0.49374 0.5196 0.0
C2708 C 0.61708 0.49021 0.5149 0.0
C2709 C 0.62982 0.45569 0.52526 0.0
H2710 H 0.65608 0.46152 0.49561 0.0
C2711 C 0.67318 0.41668 0.5124 0.0
C2712 C 0.68627 0.42214 0.50931 0.0
C2713 C 0.66175 0.42538 0.51381 0.0
C2714 C 0.64892 0.45985 0.50403 0.0
H2715 H 0.58129 0.4751 0.52457 0.0
H2716 H 0.60114 0.45974 0.52246 0.0
H2717 H 0.63613 0.4767 0.49771 0.0
H2718 H 0.69757 0.44102 0.50517 0.0
H2719 H 0.67765 0.45619 0.50779 0.0
H2720 H 0.64261 0.43877 0.53151 0.0
C2721 C 0.60263 0.4707 0.5208 0.0
C2722 C 0.63749 0.46855 0.50525 0.0
C2723 C 0.59125 0.47949 0.52199 0.0
C2724 C 0.68766 0.43649 0.50769 0.0
C2725 C 0.67622 0.44518 0.50904 0.0
C2726 C 0.64125 0.44696 0.52401 0.0
C2727 C 0.61569 0.47595 0.51723 0.0
C2728 C 0.6278 0.4666 0.51589 0.0
C2729 C 0.66312 0.43972 0.51209 0.0
C2730 C 0.65094 0.44895 0.5134 0.0
H2731 H 0.60717 0.50994 0.51438 0.0
H2732 H 0.62703 0.49464 0.51238 0.0
H2733 H 0.62269 0.45402 0.5337 0.0
H2734 H 0.67179 0.40569 0.51384 0.0
H2735 H 0.65178 0.42084 0.51605 0.0
C2736 C 0.72015 0.26323 0.34953 0.0
C2737 C 0.73183 0.25892 0.34207 0.0
C2738 C 0.72151 0.27214 0.36079 0.0
C2739 C 0.74702 0.28464 0.3863 0.0
H2740 H 0.72017 0.31372 0.39228 0.0
C2741 C 0.7541 0.32648 0.42819 0.0
C2742 C 0.74241 0.32996 0.43607 0.0
C2743 C 0.75287 0.31806 0.41654 0.0
C2744 C 0.72768 0.30557 0.39082 0.0
H2745 H 0.75407 0.26083 0.34042 0.0
H2746 H 0.75645 0.27644 0.36003 0.0
H2747 H 0.71795 0.29865 0.37223 0.0
H2748 H 0.72026 0.32717 0.4379 0.0
H2749 H 0.71812 0.31254 0.41754 0.0
H2750 H 0.75676 0.29158 0.40489 0.0
C2751 C 0.74625 0.27273 0.35733 0.0
C2752 C 0.72641 0.29692 0.37934 0.0
C2753 C 0.74489 0.26379 0.34608 0.0
C2754 C 0.72945 0.32488 0.43196 0.0
C2755 C 0.72822 0.31648 0.42029 0.0
C2756 C 0.74831 0.29331 0.39776 0.0
C2757 C 0.73458 0.27698 0.36485 0.0
C2758 C 0.73604 0.28632 0.37696 0.0
C2759 C 0.73992 0.31294 0.41247 0.0
C2760 C 0.73864 0.30385 0.40018 0.0
H2761 H 0.70997 0.2595 0.34682 0.0
H2762 H 0.71233 0.27502 0.36648 0.0
H2763 H 0.7545 0.27645 0.38491 0.0
H2764 H 0.7642 0.33041 0.43093 0.0
H2765 H 0.76205 0.31569 0.41062 0.0
C2766 C 0.51978 0.03887 0.90468 0.0
C2767 C 0.51383 0.02773 0.91186 0.0
C2768 C 0.52802 0.03659 0.89306 0.0
C2769 C 0.53466 0.0119 0.8653 0.0
H2770 H 0.57005 0.03036 0.86239 0.0
C2771 C 0.57317 0.99946 0.82143 0.0
C2772 C 0.58109 0.01036 0.81608 0.0
C2773 C 0.56496 0.00143 0.83314 0.0
C2774 C 0.56011 0.02528 0.8629 0.0
H2775 H 0.51204 0.00539 0.91237 0.0
H2776 H 0.5261 0.00149 0.89184 0.0
H2777 H 0.55563 0.03418 0.88265 0.0
H2778 H 0.58638 0.03194 0.81854 0.0
H2779 H 0.57179 0.03553 0.83871 0.0
H2780 H 0.53891 0.00324 0.84544 0.0
C2781 C 0.52434 0.01199 0.89527 0.0
C2782 C 0.55189 0.02743 0.87456 0.0
C2783 C 0.51624 0.01425 0.907 0.0
C2784 C 0.58052 0.02331 0.82257 0.0
C2785 C 0.57219 0.02533 0.83417 0.0
C2786 C 0.54281 0.00987 0.85355 0.0
C2787 C 0.53036 0.02313 0.88823 0.0
C2788 C 0.53909 0.02076 0.87588 0.0
C2789 C 0.56436 0.0144 0.83968 0.0
C2790 C 0.55565 0.01653 0.85219 0.0
H2791 H 0.51794 0.04941 0.90791 0.0
H2792 H 0.53238 0.04539 0.88772 0.0
H2793 H 0.52477 0.00674 0.86598 0.0
H2794 H 0.57353 0.98934 0.81671 0.0
H2795 H 0.55927 0.99271 0.83719 0.0
C2796 C 0.25556 0.23784 0.34616 0.0
C2797 C 0.26871 0.24211 0.34173 0.0
C2798 C 0.25415 0.22891 0.35741 0.0
C2799 C 0.27321 0.20336 0.37831 0.0
H2800 H 0.24491 0.21085 0.40562 0.0
C2801 C 0.27096 0.17467 0.43053 0.0
C2802 C 0.25789 0.17095 0.43561 0.0
C2803 C 0.27218 0.18314 0.41891 0.0
C2804 C 0.25276 0.2085 0.398 0.0
H2805 H 0.29067 0.2404 0.34574 0.0
H2806 H 0.28819 0.22477 0.36531 0.0
H2807 H 0.24719 0.22591 0.38559 0.0
H2808 H 0.23585 0.17301 0.43232 0.0
H2809 H 0.23797 0.18773 0.41201 0.0
H2810 H 0.27877 0.18594 0.39071 0.0
C2811 C 0.27899 0.2282 0.35997 0.0
C2812 C 0.25406 0.21715 0.38653 0.0
C2813 C 0.2804 0.23715 0.34875 0.0
C2814 C 0.24607 0.17585 0.42878 0.0
C2815 C 0.24729 0.1843 0.41715 0.0
C2816 C 0.27189 0.19469 0.38978 0.0
C2817 C 0.26584 0.22402 0.36447 0.0
C2818 C 0.26433 0.2147 0.37657 0.0
C2819 C 0.26036 0.18807 0.41208 0.0
C2820 C 0.26166 0.19718 0.39978 0.0
H2821 H 0.24635 0.24128 0.34085 0.0
H2822 H 0.24388 0.22571 0.36048 0.0
H2823 H 0.2811 0.20107 0.37072 0.0
H2824 H 0.28027 0.17123 0.43567 0.0
H2825 H 0.2824 0.18602 0.41543 0.0
C2826 C 0.48904 0.49378 0.90201 0.0
C2827 C 0.49278 0.48071 0.90713 0.0
C2828 C 0.4803 0.49498 0.8906 0.0
C2829 C 0.45375 0.47652 0.87082 0.0
H2830 H 0.46373 0.50174 0.84138 0.0
C2831 C 0.42398 0.47804 0.81916 0.0
C2832 C 0.42199 0.49097 0.81289 0.0
C2833 C 0.43259 0.47672 0.83066 0.0
C2834 C 0.46067 0.49479 0.84958 0.0
H2835 H 0.4902 0.45865 0.90415 0.0
H2836 H 0.47472 0.46079 0.88442 0.0
H2837 H 0.47857 0.49969 0.86159 0.0
H2838 H 0.42723 0.51268 0.81391 0.0
H2839 H 0.44204 0.51047 0.83412 0.0
H2840 H 0.43573 0.47177 0.85898 0.0
C2841 C 0.47854 0.47009 0.88931 0.0
C2842 C 0.4692 0.4936 0.86115 0.0
C2843 C 0.48738 0.46888 0.90065 0.0
C2844 C 0.42873 0.50255 0.8184 0.0
C2845 C 0.43725 0.50126 0.82997 0.0
C2846 C 0.44513 0.4778 0.85931 0.0
C2847 C 0.47498 0.48315 0.88411 0.0
C2848 C 0.46585 0.48444 0.87188 0.0
C2849 C 0.43933 0.48832 0.83624 0.0
C2850 C 0.44849 0.48694 0.84852 0.0
H2851 H 0.49277 0.50312 0.90688 0.0
H2852 H 0.47757 0.50518 0.88693 0.0
H2853 H 0.45082 0.4695 0.87901 0.0
H2854 H 0.41903 0.4689 0.81503 0.0
H2855 H 0.43413 0.46655 0.83504 0.0
C2856 C 0.73555 0.7469 0.1458 0.0
C2857 C 0.73268 0.74165 0.15902 0.0
C2858 C 0.73698 0.73803 0.13453 0.0
C2859 C 0.72843 0.70281 0.12249 0.0
H2860 H 0.75655 0.71044 0.09503 0.0
C2861 C 0.74126 0.66508 0.07792 0.0
C2862 C 0.74325 0.67094 0.06477 0.0
C2863 C 0.74008 0.67347 0.0896 0.0
C2864 C 0.74857 0.70824 0.10255 0.0
H2865 H 0.72917 0.72294 0.17078 0.0
H2866 H 0.73178 0.70741 0.1511 0.0
H2867 H 0.7544 0.72541 0.11513 0.0
H2868 H 0.7453 0.69027 0.05364 0.0
H2869 H 0.74336 0.70486 0.07403 0.0
H2870 H 0.72265 0.68559 0.10988 0.0
C2871 C 0.73272 0.71842 0.14941 0.0
C2872 C 0.74732 0.71683 0.11406 0.0
C2873 C 0.73124 0.72731 0.1607 0.0
C2874 C 0.74402 0.68539 0.06362 0.0
C2875 C 0.74289 0.69376 0.07531 0.0
C2876 C 0.72971 0.69418 0.11098 0.0
C2877 C 0.73562 0.72368 0.13619 0.0
C2878 C 0.73717 0.71428 0.12414 0.0
C2879 C 0.74092 0.68791 0.08843 0.0
C2880 C 0.73974 0.69685 0.10084 0.0
H2881 H 0.73647 0.75792 0.14412 0.0
H2882 H 0.73895 0.74246 0.12445 0.0
H2883 H 0.72038 0.70065 0.12994 0.0
H2884 H 0.74082 0.65399 0.07922 0.0
H2885 H 0.73873 0.66864 0.0996 0.0
C2886 C 0.98604 0.03009 0.09895 0.0
C2887 C 0.99129 0.01843 0.09206 0.0
C2888 C 0.97708 0.02859 0.11015 0.0
C2889 C 0.96686 0.00404 0.1372 0.0
H2890 H 0.93445 0.02729 0.14047 0.0
C2891 C 0.92632 0.99566 0.18011 0.0
C2892 C 0.92058 0.00747 0.18632 0.0
C2893 C 0.93464 0.99683 0.16837 0.0
C2894 C 0.94354 0.02083 0.13982 0.0
H2895 H 0.99094 0.99604 0.09144 0.0
H2896 H 0.97546 0.99345 0.11113 0.0
H2897 H 0.94954 0.0297 0.12047 0.0
H2898 H 0.91898 0.02976 0.18486 0.0
H2899 H 0.93382 0.03183 0.16471 0.0
H2900 H 0.96104 0.99531 0.15662 0.0
C2901 C 0.97841 0.00375 0.10791 0.0
C2902 C 0.95217 0.02219 0.12833 0.0
C2903 C 0.9873 0.00524 0.09664 0.0
C2904 C 0.92336 0.02046 0.18047 0.0
C2905 C 0.93173 0.02163 0.16878 0.0
C2906 C 0.95829 0.00273 0.14873 0.0
C2907 C 0.97321 0.01541 0.1148 0.0
C2908 C 0.96393 0.01383 0.1269 0.0
C2909 C 0.93749 0.00984 0.16258 0.0
C2910 C 0.94652 0.01112 0.1502 0.0
H2911 H 0.98907 0.0404 0.09587 0.0
H2912 H 0.97339 0.03777 0.11537 0.0
H2913 H 0.97596 0.99758 0.13649 0.0
H2914 H 0.92455 0.9855 0.18441 0.0
H2915 H 0.93876 0.98751 0.16378 0.0
C2916 C 0.27742 0.7779 0.16269 0.0
C2917 C 0.27689 0.76343 0.16169 0.0
C2918 C 0.27483 0.78615 0.15114 0.0
C2919 C 0.25885 0.78563 0.1164 0.0
H2920 H 0.28201 0.81768 0.11023 0.0
C2921 C 0.24786 0.82522 0.07303 0.0
C2922 C 0.25929 0.83039 0.06573 0.0
C2923 C 0.24974 0.8171 0.08483 0.0
C2924 C 0.27551 0.80872 0.11174 0.0
H2925 H 0.27328 0.7463 0.14774 0.0
H2926 H 0.26882 0.7607 0.12758 0.0
H2927 H 0.2858 0.80333 0.13052 0.0
H2928 H 0.28166 0.8308 0.06493 0.0
H2929 H 0.28493 0.81663 0.08544 0.0
H2930 H 0.24879 0.79084 0.09743 0.0
C2931 C 0.27102 0.76568 0.13735 0.0
C2932 C 0.27757 0.80058 0.12347 0.0
C2933 C 0.27358 0.75742 0.1489 0.0
C2934 C 0.27263 0.82719 0.07045 0.0
C2935 C 0.27451 0.81906 0.08222 0.0
C2936 C 0.25679 0.79377 0.10465 0.0
C2937 C 0.27167 0.78014 0.13831 0.0
C2938 C 0.26929 0.78892 0.12593 0.0
C2939 C 0.26309 0.81395 0.08958 0.0
C2940 C 0.26513 0.80539 0.10216 0.0
H2941 H 0.27972 0.78285 0.17244 0.0
H2942 H 0.27519 0.79727 0.15231 0.0
H2943 H 0.2522 0.7768 0.11805 0.0
H2944 H 0.23745 0.82764 0.06977 0.0
H2945 H 0.24072 0.81349 0.09035 0.0
C2946 C 0.02922 0.47419 0.0884 0.0
C2947 C 0.01474 0.47411 0.08921 0.0
C2948 C 0.03719 0.47655 0.1002 0.0
C2949 C 0.03514 0.49043 0.13593 0.0
H2950 H 0.06915 0.4699 0.14081 0.0
C2951 C 0.06579 0.48989 0.18723 0.0
C2952 C 0.08015 0.49163 0.18615 0.0
C2953 C 0.05776 0.48786 0.1754 0.0
C2954 C 0.05974 0.47578 0.13953 0.0
H2955 H 0.99727 0.47625 0.103 0.0
H2956 H 0.01114 0.48009 0.12363 0.0
H2957 H 0.05522 0.46615 0.1202 0.0
H2958 H 0.09739 0.4924 0.17189 0.0
H2959 H 0.08336 0.48883 0.15125 0.0
H2960 H 0.03961 0.49988 0.15543 0.0
C2961 C 0.01637 0.47868 0.11386 0.0
C2962 C 0.05176 0.47368 0.12769 0.0
C2963 C 0.0084 0.47644 0.10204 0.0
C2964 C 0.08633 0.49121 0.17303 0.0
C2965 C 0.07832 0.48905 0.16123 0.0
C2966 C 0.04307 0.49244 0.14782 0.0
C2967 C 0.03088 0.47875 0.1131 0.0
C2968 C 0.03937 0.481 0.12572 0.0
C2969 C 0.06395 0.48739 0.16228 0.0
C2970 C 0.05546 0.48517 0.14973 0.0
H2971 H 0.03438 0.47261 0.07861 0.0
H2972 H 0.04832 0.47678 0.09916 0.0
H2973 H 0.02579 0.49643 0.13466 0.0
H2974 H 0.06075 0.49026 0.1972 0.0
H2975 H 0.04672 0.48651 0.17654 0.0
C2976 C 0.35113 0.71149 0.26515 0.0
C2977 C 0.34161 0.72207 0.26244 0.0
C2978 C 0.36287 0.71405 0.27312 0.0
C2979 C 0.38478 0.74254 0.28667 0.0
H2980 H 0.39782 0.71402 0.31156 0.0
C2981 C 0.4268 0.7516 0.32831 0.0
C2982 C 0.4372 0.74152 0.32922 0.0
C2983 C 0.41526 0.74948 0.31991 0.0
C2984 C 0.39435 0.72204 0.30458 0.0
H2985 H 0.33682 0.74361 0.26603 0.0
H2986 H 0.35713 0.74805 0.28026 0.0
H2987 H 0.3773 0.70991 0.29763 0.0
H2988 H 0.44365 0.72131 0.32213 0.0
H2989 H 0.42342 0.71755 0.30752 0.0
H2990 H 0.40174 0.75475 0.29395 0.0
C2991 C 0.35574 0.73783 0.27596 0.0
C2992 C 0.38262 0.71968 0.29654 0.0
C2993 C 0.34407 0.73529 0.26785 0.0
C2994 C 0.43584 0.72929 0.32155 0.0
C2995 C 0.42422 0.7271 0.31329 0.0
C2996 C 0.39644 0.74495 0.29484 0.0
C2997 C 0.3653 0.72724 0.27871 0.0
C2998 C 0.37771 0.72987 0.28742 0.0
C2999 C 0.41381 0.73715 0.3124 0.0
C3000 C 0.40138 0.73469 0.30382 0.0
H3001 H 0.34961 0.70125 0.26092 0.0
H3002 H 0.37012 0.70571 0.27475 0.0
H3003 H 0.38145 0.75055 0.27962 0.0
H3004 H 0.42764 0.76117 0.33404 0.0
H3005 H 0.40735 0.75737 0.31948 0.0
C3006 C 0.98772 0.40855 0.98206 0.0
C3007 C 0.97435 0.41126 0.98701 0.0
C3008 C 0.99033 0.39682 0.97405 0.0
C3009 C 0.97702 0.36212 0.96659 0.0
H3010 H 0.99838 0.36512 0.93287 0.0
C3011 C 0.98079 0.31711 0.92788 0.0
C3012 C 0.9934 0.31496 0.92105 0.0
C3013 C 0.97876 0.32885 0.93601 0.0
C3014 C 0.99257 0.36404 0.94235 0.0
H3015 H 0.9533 0.40373 0.98762 0.0
H3016 H 0.95785 0.38324 0.97365 0.0
H3017 H 0.99443 0.38559 0.94699 0.0
H3018 H 0.01385 0.32332 0.91755 0.0
H3019 H 0.01042 0.34369 0.93196 0.0
H3020 H 0.97528 0.34058 0.96213 0.0
C3021 C 0.96631 0.39019 0.97596 0.0
C3022 C 0.99028 0.37579 0.95042 0.0
C3023 C 0.96367 0.40197 0.98384 0.0
C3024 C 0.00396 0.32478 0.92257 0.0
C3025 C 0.00197 0.33648 0.9308 0.0
C3026 C 0.9794 0.35035 0.95859 0.0
C3027 C 0.97966 0.38749 0.97096 0.0
C3028 C 0.9824 0.37497 0.96257 0.0
C3029 C 0.98933 0.33868 0.93761 0.0
C3030 C 0.98712 0.35117 0.94631 0.0
H3031 H 0.99614 0.41557 0.98427 0.0
H3032 H 0.00074 0.39496 0.97041 0.0
H3033 H 0.97108 0.36113 0.97601 0.0
H3034 H 0.97238 0.30983 0.92674 0.0
H3035 H 0.96879 0.33031 0.94086 0.0
C3036 C 0.65499 0.75533 0.26426 0.0
C3037 C 0.65799 0.76809 0.25805 0.0
C3038 C 0.64378 0.75401 0.27325 0.0
C3039 C 0.61972 0.77469 0.29482 0.0
H3040 H 0.59751 0.74141 0.29385 0.0
C3041 C 0.56706 0.77004 0.32249 0.0
C3042 C 0.56449 0.75775 0.32979 0.0
C3043 C 0.57868 0.77127 0.31402 0.0
C3044 C 0.6037 0.75071 0.29433 0.0
H3045 H 0.65144 0.7894 0.2562 0.0
H3046 H 0.63176 0.78707 0.27168 0.0
H3047 H 0.61729 0.74361 0.27844 0.0
H3048 H 0.57235 0.7372 0.33405 0.0
H3049 H 0.59247 0.7393 0.31907 0.0
H3050 H 0.60594 0.78184 0.31057 0.0
C3051 C 0.63824 0.77814 0.26989 0.0
C3052 C 0.61506 0.75197 0.28552 0.0
C3053 C 0.64951 0.77948 0.26098 0.0
C3054 C 0.57385 0.74673 0.3284 0.0
C3055 C 0.58541 0.74793 0.31985 0.0
C3056 C 0.6083 0.77346 0.30355 0.0
C3057 C 0.63524 0.76539 0.27616 0.0
C3058 C 0.62322 0.76398 0.28564 0.0
C3059 C 0.58795 0.76022 0.31257 0.0
C3060 C 0.60016 0.76146 0.30339 0.0
H3061 H 0.66145 0.74642 0.26233 0.0
H3062 H 0.64193 0.74409 0.27806 0.0
H3063 H 0.62591 0.78398 0.29539 0.0
H3064 H 0.55997 0.77866 0.32311 0.0
H3065 H 0.58026 0.7808 0.30839 0.0
C3066 C 0.00518 0.09679 0.98794 0.0
C3067 C 0.01819 0.09286 0.99302 0.0
C3068 C 0.00385 0.10819 0.97918 0.0
C3069 C 0.0216 0.14029 0.96879 0.0
H3070 H 0.99686 0.13872 0.93736 0.0
C3071 C 0.01981 0.1832 0.92738 0.0
C3072 C 0.00675 0.18711 0.92239 0.0
C3073 C 0.02125 0.17168 0.93595 0.0
C3074 C 0.0037 0.13938 0.94618 0.0
H3075 H 0.04001 0.09788 0.99292 0.0
H3076 H 0.03772 0.11761 0.97746 0.0
H3077 H 0.99931 0.11861 0.9523 0.0
H3078 H 0.98493 0.18209 0.92275 0.0
H3079 H 0.98745 0.16202 0.93771 0.0
H3080 H 0.02597 0.16107 0.96269 0.0
C3081 C 0.02852 0.11196 0.98035 0.0
C3082 C 0.00511 0.12785 0.95474 0.0
C3083 C 0.02985 0.10055 0.98909 0.0
C3084 C 0.99517 0.17924 0.92623 0.0
C3085 C 0.99661 0.16773 0.9348 0.0
C3086 C 0.02019 0.15182 0.96023 0.0
C3087 C 0.0155 0.11594 0.97532 0.0
C3088 C 0.01407 0.12817 0.96616 0.0
C3089 C 0.00967 0.1638 0.93975 0.0
C3090 C 0.01121 0.15151 0.94883 0.0
H3091 H 0.99601 0.091 0.99065 0.0
H3092 H 0.99366 0.11104 0.9756 0.0
H3093 H 0.02843 0.14096 0.97762 0.0
H3094 H 0.02897 0.1889 0.92445 0.0
H3095 H 0.03149 0.16882 0.93942 0.0
C3096 C 0.34988 0.28019 0.23823 0.0
C3097 C 0.34187 0.26861 0.2417 0.0
C3098 C 0.36128 0.27887 0.22948 0.0
C3099 C 0.37637 0.25646 0.20272 0.0
H3100 H 0.41053 0.27502 0.2123 0.0
C3101 C 0.42293 0.25988 0.16545 0.0
C3102 C 0.43606 0.25753 0.17116 0.0
C3103 C 0.41135 0.26115 0.17397 0.0
C3104 C 0.40109 0.26972 0.20952 0.0
H3105 H 0.33937 0.2466 0.23851 0.0
H3106 H 0.35932 0.24427 0.22327 0.0
H3107 H 0.39044 0.27732 0.22734 0.0
H3108 H 0.44735 0.25481 0.1903 0.0
H3109 H 0.42711 0.25695 0.20516 0.0
H3110 H 0.38707 0.24877 0.18495 0.0
C3111 C 0.35676 0.25438 0.22729 0.0
C3112 C 0.38955 0.27115 0.21806 0.0
C3113 C 0.34542 0.25569 0.23612 0.0
C3114 C 0.43736 0.25649 0.18558 0.0
C3115 C 0.42579 0.25786 0.1941 0.0
C3116 C 0.38789 0.25511 0.19412 0.0
C3117 C 0.36485 0.26594 0.22393 0.0
C3118 C 0.37707 0.26451 0.21477 0.0
C3119 C 0.41266 0.2602 0.18839 0.0
C3120 C 0.40039 0.2617 0.19745 0.0
H3121 H 0.34748 0.29026 0.24245 0.0
H3122 H 0.36724 0.28799 0.22697 0.0
H3123 H 0.36687 0.25132 0.19985 0.0
H3124 H 0.42159 0.26061 0.15437 0.0
H3125 H 0.40139 0.26306 0.16927 0.0
C3126 C 0.53075 0.40154 0.01254 0.0
C3127 C 0.51903 0.40904 0.00843 0.0
C3128 C 0.5295 0.39026 0.02144 0.0
C3129 C 0.50616 0.37442 0.04714 0.0
H3130 H 0.5273 0.3413 0.0395 0.0
C3131 C 0.49647 0.32299 0.07576 0.0
C3132 C 0.50806 0.3151 0.0795 0.0
C3133 C 0.49789 0.33459 0.0673 0.0
C3134 C 0.52145 0.35052 0.04188 0.0
H3135 H 0.49681 0.4107 0.01065 0.0
H3136 H 0.4946 0.39087 0.02602 0.0
H3137 H 0.52963 0.3613 0.02442 0.0
H3138 H 0.53029 0.31341 0.07749 0.0
H3139 H 0.53279 0.33366 0.06276 0.0
H3140 H 0.49796 0.36362 0.0646 0.0
C3141 C 0.50478 0.39379 0.02244 0.0
C3142 C 0.52278 0.36199 0.03323 0.0
C3143 C 0.50603 0.40506 0.01351 0.0
C3144 C 0.52113 0.31913 0.07463 0.0
C3145 C 0.52255 0.33074 0.06618 0.0
C3146 C 0.50483 0.36295 0.0558 0.0
C3147 C 0.51649 0.38622 0.02646 0.0
C3148 C 0.51514 0.37407 0.03575 0.0
C3149 C 0.51095 0.3386 0.06239 0.0
C3150 C 0.51245 0.35085 0.05326 0.0
H3151 H 0.54089 0.40425 0.00871 0.0
H3152 H 0.53874 0.38474 0.02446 0.0
H3153 H 0.50028 0.38363 0.04949 0.0
H3154 H 0.48623 0.32005 0.07916 0.0
H3155 H 0.48872 0.34028 0.06441 0.0
C3156 C 0.65483 0.24567 0.23683 0.0
C3157 C 0.65867 0.23267 0.24202 0.0
C3158 C 0.64351 0.24698 0.22797 0.0
C3159 C 0.61129 0.22953 0.21779 0.0
H3160 H 0.61325 0.25354 0.18582 0.0
C3161 C 0.56323 0.24371 0.18553 0.0
C3162 C 0.56471 0.24367 0.17109 0.0
C3163 C 0.57477 0.24238 0.19409 0.0
C3164 C 0.61257 0.24673 0.19466 0.0
H3165 H 0.65357 0.21088 0.24205 0.0
H3166 H 0.63391 0.21315 0.22647 0.0
H3167 H 0.63339 0.25099 0.20075 0.0
H3168 H 0.5795 0.24238 0.15433 0.0
H3169 H 0.59963 0.2399 0.16929 0.0
H3170 H 0.59054 0.22514 0.21162 0.0
C3171 C 0.6396 0.22234 0.22932 0.0
C3172 C 0.62406 0.24538 0.20329 0.0
C3173 C 0.65096 0.22101 0.23812 0.0
C3174 C 0.578 0.24232 0.16541 0.0
C3175 C 0.58954 0.24105 0.17398 0.0
C3176 C 0.59979 0.23092 0.2092 0.0
C3177 C 0.63573 0.23534 0.22417 0.0
C3178 C 0.62355 0.23675 0.21495 0.0
C3179 C 0.58805 0.24102 0.18841 0.0
C3180 C 0.6003 0.23954 0.19753 0.0
H3181 H 0.66064 0.25483 0.23953 0.0
H3182 H 0.64072 0.25715 0.22427 0.0
H3183 H 0.61053 0.22291 0.22677 0.0
H3184 H 0.55313 0.24459 0.19022 0.0
H3185 H 0.57328 0.24253 0.20517 0.0
C3186 C 0.46142 0.09675 0.01975 0.0
C3187 C 0.47245 0.08853 0.01512 0.0
C3188 C 0.46385 0.10837 0.02793 0.0
C3189 C 0.49084 0.13353 0.03726 0.0
H3190 H 0.46686 0.14113 0.06841 0.0
C3191 C 0.50208 0.17727 0.0763 0.0
C3192 C 0.49078 0.18514 0.08088 0.0
C3193 C 0.50003 0.16536 0.06842 0.0
C3194 C 0.47356 0.13924 0.05966 0.0
H3195 H 0.49469 0.08601 0.01564 0.0
H3196 H 0.49893 0.10635 0.02989 0.0
H3197 H 0.46296 0.12059 0.05442 0.0
H3198 H 0.46843 0.18654 0.08086 0.0
H3199 H 0.46487 0.16596 0.06687 0.0
H3200 H 0.50139 0.15223 0.04244 0.0
C3201 C 0.48841 0.10388 0.02703 0.0
C3202 C 0.47133 0.12746 0.05165 0.0
C3203 C 0.48598 0.09223 0.01886 0.0
C3204 C 0.47738 0.18081 0.07738 0.0
C3205 C 0.47533 0.16891 0.0695 0.0
C3206 C 0.49306 0.14533 0.04526 0.0
C3207 C 0.47737 0.11208 0.03167 0.0
C3208 C 0.47991 0.12449 0.04033 0.0
C3209 C 0.48663 0.16103 0.06493 0.0
C3210 C 0.48441 0.14836 0.05653 0.0
H3211 H 0.45089 0.09435 0.01685 0.0
H3212 H 0.45513 0.11459 0.03114 0.0
H3213 H 0.49752 0.13163 0.0285 0.0
H3214 H 0.51255 0.18039 0.07868 0.0
H3215 H 0.50896 0.15946 0.06518 0.0
C3216 C 0.26213 0.35047 0.71778 0.0
C3217 C 0.25743 0.34362 0.72968 0.0
C3218 C 0.27097 0.36182 0.71885 0.0
C3219 C 0.29538 0.37895 0.74277 0.0
H3220 H 0.28985 0.41047 0.71872 0.0
C3221 C 0.33414 0.42416 0.74043 0.0
C3222 C 0.3287 0.43759 0.73954 0.0
C3223 C 0.32557 0.41264 0.73903 0.0
C3224 C 0.29148 0.40179 0.72558 0.0
H3225 H 0.25855 0.34322 0.75204 0.0
H3226 H 0.2737 0.3632 0.75392 0.0
H3227 H 0.27456 0.39059 0.71688 0.0
H3228 H 0.30996 0.4494 0.7363 0.0
H3229 H 0.29495 0.42933 0.73419 0.0
H3230 H 0.31207 0.3903 0.75172 0.0
C3231 C 0.27067 0.35971 0.74374 0.0
C3232 C 0.28281 0.39032 0.72441 0.0
C3233 C 0.26184 0.34835 0.74267 0.0
C3234 C 0.31447 0.43921 0.73719 0.0
C3235 C 0.30589 0.42769 0.7358 0.0
C3236 C 0.30403 0.39043 0.74395 0.0
C3237 C 0.27533 0.3666 0.73184 0.0
C3238 C 0.28464 0.37876 0.733 0.0
C3239 C 0.31133 0.41427 0.73673 0.0
C3240 C 0.30218 0.402 0.73539 0.0
H3241 H 0.25883 0.34719 0.70761 0.0
H3242 H 0.27449 0.36678 0.70946 0.0
H3243 H 0.29718 0.37017 0.74945 0.0
H3244 H 0.34503 0.42252 0.74239 0.0
H3245 H 0.33013 0.40246 0.73965 0.0
C3246 C 0.25037 0.64259 0.77026 0.0
C3247 C 0.25574 0.65598 0.77176 0.0
C3248 C 0.2592 0.63124 0.76907 0.0
C3249 C 0.29447 0.6216 0.75903 0.0
H3250 H 0.28715 0.58831 0.78 0.0
C3251 C 0.33315 0.5763 0.7606 0.0
C3252 C 0.32779 0.5628 0.76046 0.0
C3253 C 0.32441 0.58767 0.76215 0.0
C3254 C 0.28925 0.59745 0.77393 0.0
H3255 H 0.27458 0.66799 0.77306 0.0
H3256 H 0.29001 0.64814 0.77097 0.0
H3257 H 0.27176 0.60809 0.78227 0.0
H3258 H 0.30898 0.55075 0.76203 0.0
H3259 H 0.29372 0.57057 0.76426 0.0
H3260 H 0.31182 0.61095 0.7505 0.0
C3261 C 0.27897 0.64644 0.7707 0.0
C3262 C 0.28044 0.6088 0.77526 0.0
C3263 C 0.27014 0.65778 0.77201 0.0
C3264 C 0.31346 0.56099 0.76191 0.0
C3265 C 0.30471 0.57237 0.76339 0.0
C3266 C 0.30323 0.61022 0.75761 0.0
C3267 C 0.27359 0.63305 0.76923 0.0
C3268 C 0.28296 0.621 0.76784 0.0
C3269 C 0.31007 0.58586 0.76353 0.0
C3270 C 0.30074 0.598 0.76505 0.0
H3271 H 0.23932 0.64087 0.77015 0.0
H3272 H 0.25476 0.62105 0.76784 0.0
H3273 H 0.29657 0.6308 0.75303 0.0
H3274 H 0.3441 0.57812 0.75933 0.0
H3275 H 0.32893 0.59789 0.76239 0.0
C3276 C 0.89894 0.49178 0.4769 0.0
C3277 C 0.91181 0.48558 0.47443 0.0
C3278 C 0.88722 0.4837 0.47916 0.0
C3279 C 0.87362 0.44825 0.47393 0.0
H3280 H 0.84593 0.46004 0.50034 0.0
C3281 C 0.82808 0.41355 0.49083 0.0
C3282 C 0.815 0.41981 0.49128 0.0
C3283 C 0.83995 0.42151 0.48888 0.0
C3284 C 0.85353 0.45668 0.49285 0.0
H3285 H 0.92256 0.46605 0.47267 0.0
H3286 H 0.90217 0.45189 0.47687 0.0
H3287 H 0.86664 0.47395 0.49698 0.0
H3288 H 0.80412 0.43933 0.49023 0.0
H3289 H 0.82488 0.45326 0.48684 0.0
H3290 H 0.86053 0.43087 0.46998 0.0
C3291 C 0.90103 0.46301 0.47674 0.0
C3292 C 0.86538 0.46466 0.49089 0.0
C3293 C 0.91274 0.47111 0.47438 0.0
C3294 C 0.81405 0.43421 0.48982 0.0
C3295 C 0.82594 0.44219 0.488 0.0
C3296 C 0.86181 0.44022 0.47598 0.0
C3297 C 0.8881 0.4692 0.4791 0.0
C3298 C 0.87557 0.46058 0.48136 0.0
C3299 C 0.83901 0.43592 0.48747 0.0
C3300 C 0.85162 0.44437 0.48542 0.0
H3301 H 0.89788 0.50292 0.47682 0.0
H3302 H 0.87741 0.48883 0.48069 0.0
H3303 H 0.8811 0.44491 0.46633 0.0
H3304 H 0.82912 0.40246 0.49181 0.0
H3305 H 0.8499 0.4164 0.48861 0.0
C3306 C 0.72911 0.84184 0.7723 0.0
C3307 C 0.74317 0.84304 0.76884 0.0
C3308 C 0.72024 0.85316 0.77109 0.0
C3309 C 0.7161 0.88623 0.75305 0.0
H3310 H 0.69076 0.89503 0.78279 0.0
C3311 C 0.6732 0.92735 0.74777 0.0
C3312 C 0.67185 0.93675 0.75876 0.0
C3313 C 0.6817 0.91576 0.74899 0.0
C3314 C 0.69782 0.89272 0.77442 0.0
H3315 H 0.7589 0.85725 0.76159 0.0
H3316 H 0.74335 0.87688 0.75922 0.0
H3317 H 0.70611 0.8751 0.78493 0.0
H3318 H 0.67854 0.94127 0.77968 0.0
H3319 H 0.69314 0.92089 0.78187 0.0
H3320 H 0.70786 0.90386 0.74257 0.0
C3321 C 0.73921 0.86713 0.76277 0.0
C3322 C 0.70651 0.88125 0.7756 0.0
C3323 C 0.7481 0.85585 0.76409 0.0
C3324 C 0.67912 0.93416 0.77107 0.0
C3325 C 0.68753 0.9225 0.77233 0.0
C3326 C 0.70732 0.8976 0.75182 0.0
C3327 C 0.72519 0.86591 0.76628 0.0
C3328 C 0.71579 0.87793 0.76495 0.0
C3329 C 0.68896 0.91322 0.76128 0.0
C3330 C 0.69812 0.901 0.76252 0.0
H3331 H 0.72488 0.83209 0.77576 0.0
H3332 H 0.70945 0.85188 0.77372 0.0
H3333 H 0.72308 0.88385 0.74464 0.0
H3334 H 0.66756 0.92885 0.73823 0.0
H3335 H 0.68247 0.90869 0.74037 0.0
C3336 C 0.59692 0.51298 0.99317 0.0
C3337 C 0.59272 0.50818 0.98013 0.0
C3338 C 0.60816 0.52194 0.99443 0.0
C3339 C 0.63939 0.53377 0.97591 0.0
H3340 H 0.63825 0.5638 0.00236 0.0
C3341 C 0.68159 0.57586 0.97839 0.0
C3342 C 0.68622 0.57975 0.99159 0.0
C3343 C 0.67005 0.56734 0.97686 0.0
C3344 C 0.63877 0.55538 0.99502 0.0
H3345 H 0.59714 0.50903 0.95818 0.0
H3346 H 0.61651 0.52491 0.96036 0.0
H3347 H 0.61832 0.54863 0.99988 0.0
H3348 H 0.68238 0.57755 0.01355 0.0
H3349 H 0.66219 0.56279 0.01087 0.0
H3350 H 0.65984 0.54057 0.97102 0.0
C3351 C 0.61122 0.52161 0.96964 0.0
C3352 C 0.62736 0.54668 0.9936 0.0
C3353 C 0.59999 0.51263 0.96838 0.0
C3354 C 0.67897 0.57496 0.00322 0.0
C3355 C 0.6674 0.56648 0.00169 0.0
C3356 C 0.65079 0.54251 0.97729 0.0
C3357 C 0.61547 0.52634 0.98269 0.0
C3358 C 0.62754 0.53574 0.98406 0.0
C3359 C 0.66283 0.56255 0.9885 0.0
C3360 C 0.65063 0.55339 0.98689 0.0
H3361 H 0.59146 0.5099 0.00242 0.0
H3362 H 0.61123 0.52526 0.00466 0.0
H3363 H 0.63998 0.52532 0.96862 0.0
H3364 H 0.68678 0.57955 0.9692 0.0
H3365 H 0.66666 0.56466 0.96655 0.0
C3366 C 0.23566 0.65536 0.23584 0.0
C3367 C 0.23986 0.65846 0.22231 0.0
C3368 C 0.22758 0.6437 0.23851 0.0
C3369 C 0.20451 0.61848 0.22123 0.0
H3370 H 0.21081 0.59684 0.25433 0.0
C3371 C 0.17895 0.56545 0.23006 0.0
C3372 C 0.17323 0.56304 0.24317 0.0
C3373 C 0.18719 0.57704 0.22767 0.0
C3374 C 0.20886 0.60286 0.2451 0.0
H3375 H 0.23916 0.65163 0.20102 0.0
H3376 H 0.22526 0.63119 0.20568 0.0
H3377 H 0.22506 0.61711 0.2498 0.0
H3378 H 0.17187 0.57075 0.26414 0.0
H3379 H 0.18629 0.59104 0.25996 0.0
H3380 H 0.18843 0.60409 0.21647 0.0
C3381 C 0.22791 0.63792 0.2142 0.0
C3382 C 0.217 0.61449 0.24251 0.0
C3383 C 0.2359 0.64962 0.21152 0.0
C3384 C 0.17606 0.57239 0.2539 0.0
C3385 C 0.1844 0.58394 0.25154 0.0
C3386 C 0.19645 0.6068 0.22378 0.0
C3387 C 0.22359 0.63483 0.22773 0.0
C3388 C 0.21493 0.62245 0.23054 0.0
C3389 C 0.18997 0.58643 0.23837 0.0
C3390 C 0.19854 0.59885 0.23573 0.0
H3391 H 0.23842 0.66208 0.24434 0.0
H3392 H 0.22427 0.64178 0.24902 0.0
H3393 H 0.20244 0.6245 0.21204 0.0
H3394 H 0.17686 0.5585 0.22155 0.0
H3395 H 0.19145 0.57861 0.21745 0.0
C3396 C 0.89863 0.5073 0.02414 0.0
C3397 C 0.9113 0.51343 0.02765 0.0
C3398 C 0.88696 0.51544 0.02173 0.0
C3399 C 0.87258 0.55011 0.02873 0.0
H3400 H 0.84726 0.54081 0.99916 0.0
C3401 C 0.82819 0.58629 0.01219 0.0
C3402 C 0.81534 0.58016 0.0094 0.0
C3403 C 0.83991 0.57814 0.0143 0.0
C3404 C 0.85416 0.54346 0.00755 0.0
H3405 H 0.92173 0.53294 0.03103 0.0
H3406 H 0.90141 0.54714 0.02675 0.0
H3407 H 0.86773 0.52664 0.00295 0.0
H3408 H 0.80478 0.56065 0.00645 0.0
H3409 H 0.8252 0.54642 0.01029 0.0
H3410 H 0.85903 0.56696 0.0333 0.0
C3411 C 0.90041 0.53603 0.02613 0.0
C3412 C 0.86589 0.53534 0.00973 0.0
C3413 C 0.91207 0.52789 0.02857 0.0
C3414 C 0.81449 0.56569 0.00871 0.0
C3415 C 0.82623 0.55754 0.01076 0.0
C3416 C 0.86087 0.55825 0.02653 0.0
C3417 C 0.8877 0.5299 0.02273 0.0
C3418 C 0.87524 0.53856 0.02035 0.0
C3419 C 0.83907 0.56368 0.01361 0.0
C3420 C 0.85152 0.55502 0.01592 0.0
H3421 H 0.89766 0.49618 0.02353 0.0
H3422 H 0.87729 0.51037 0.01933 0.0
H3423 H 0.87943 0.55276 0.03716 0.0
H3424 H 0.82917 0.5974 0.01293 0.0
H3425 H 0.84967 0.5832 0.01633 0.0
C3426 C 0.09099 0.97954 0.02173 0.0
C3427 C 0.09261 0.99384 0.0199 0.0
C3428 C 0.10229 0.97064 0.02043 0.0
C3429 C 0.1374 0.96857 0.00548 0.0
H3430 H 0.14174 0.93799 0.03095 0.0
C3431 C 0.18729 0.9361 0.00804 0.0
C3432 C 0.1858 0.92172 0.00932 0.0
C3433 C 0.17586 0.9448 0.00934 0.0
C3434 C 0.1406 0.9464 0.02366 0.0
H3435 H 0.10743 0.01004 0.01553 0.0
H3436 H 0.12713 0.99455 0.01331 0.0
H3437 H 0.12192 0.95335 0.03319 0.0
H3438 H 0.17116 0.90524 0.01318 0.0
H3439 H 0.15117 0.92043 0.0153 0.0
H3440 H 0.15612 0.96165 0.996 0.0
C3441 C 0.11708 0.99017 0.0155 0.0
C3442 C 0.12923 0.9552 0.02494 0.0
C3443 C 0.10579 0.99905 0.01678 0.0
C3444 C 0.17263 0.91626 0.01201 0.0
C3445 C 0.1612 0.92497 0.01337 0.0
C3446 C 0.14878 0.95979 0.00422 0.0
C3447 C 0.11547 0.97585 0.01729 0.0
C3448 C 0.1275 0.96641 0.01588 0.0
C3449 C 0.16268 0.93934 0.01201 0.0
C3450 C 0.15053 0.94862 0.01331 0.0
H3451 H 0.08094 0.97518 0.02397 0.0
H3452 H 0.10063 0.95966 0.02166 0.0
H3453 H 0.13627 0.97696 0.99817 0.0
H3454 H 0.19727 0.94063 0.00583 0.0
H3455 H 0.17737 0.95584 0.00838 0.0
loop_
_geom_bond_atom_site_label_1
_geom_bond_atom_site_label_2
_geom_bond_distance
_geom_bond_site_symmetry_2
_ccdc_geom_bond_type
C0 C1 1.391 . S
C0 C4 1.391 1_556 S
C0 H42 0.948 . S
C1 C0 1.391 . S
C1 C2 1.391 1_556 S
C2 C1 1.391 1_554 S
C2 H58 0.947 . S
C2 C59 1.392 . S
C3 C4 1.391 . S
C3 C7 1.397 . S
C3 C59 1.419 . S
C4 C0 1.391 1_554 S
C4 C3 1.391 . S
C4 C5 1.399 . S
C5 C4 1.399 . S
C5 C8 1.396 . S
C5 C17 1.453 . S
C5 C18 1.684 1_554 S
H6 C30 0.948 . S
C7 C3 1.397 . S
C7 C8 1.394 . S
C7 C26 1.723 . S
C8 C5 1.396 . S
C8 C7 1.394 . S
C8 C38 1.723 . S
H9 C32 0.947 . S
H10 C33 0.948 . S
H11 C39 0.982 . S
H12 C40 0.979 . S
H13 C40 0.980 . S
H14 C40 0.983 . S
H15 C39 0.979 1_565 S
H16 C39 0.977 . S
C17 C5 1.453 . S
C17 H46 0.982 . S
C17 H47 0.979 1_554 S
C17 H48 0.977 . S
C18 C5 1.684 1_556 S
C18 H43 0.979 . S
C18 H44 0.980 . S
C18 H45 0.983 . S
C19 C20 1.391 . S
C19 C24 1.391 1_655 S
C19 H49 0.948 . S
C20 C19 1.391 . S
C20 C21 1.391 1_655 S
C21 C20 1.391 1_455 S
C21 C22 1.392 . S
C21 H50 0.947 . S
C22 C21 1.392 . S
C22 C23 1.419 . S
C22 H51 0.948 . S
C23 C22 1.419 . S
C23 C24 1.391 . S
C23 C27 1.397 . S
C24 C19 1.391 1_455 S
C24 C23 1.391 . S
C24 C25 1.399 . S
C25 C24 1.399 . S
C25 C26 1.396 . S
C25 C28 1.453 . S
C25 C29 1.684 1_455 S
C26 C7 1.723 . S
C26 C25 1.396 . S
C26 C27 1.394 . S
C27 C23 1.397 . S
C27 C26 1.394 . S
C27 C37 1.723 . S
C28 C25 1.453 . S
C28 H52 0.982 . S
C28 H53 0.979 1_455 S
C28 H54 0.977 . S
C29 C25 1.684 1_655 S
C29 H55 0.979 . S
C29 H56 0.980 . S
C29 H57 0.983 . S
C30 H6 0.948 . S
C30 C31 1.391 . S
C30 C35 1.391 1_565 S
C31 C30 1.391 . S
C31 C32 1.391 1_565 S
C32 H9 0.947 . S
C32 C31 1.391 1_545 S
C32 C33 1.392 . S
C33 H10 0.948 . S
C33 C32 1.392 . S
C33 C34 1.419 . S
C34 C33 1.419 . S
C34 C35 1.391 . S
C34 C38 1.397 . S
C35 C30 1.391 1_545 S
C35 C34 1.391 . S
C35 C36 1.399 . S
C36 C35 1.399 . S
C36 C37 1.396 . S
C36 C39 1.453 . S
C36 C40 1.684 1_545 S
C37 C27 1.723 . S
C37 C36 1.396 . S
C37 C38 1.394 . S
C38 C8 1.723 . S
C38 C34 1.397 . S
C38 C37 1.394 . S
C39 H11 0.982 . S
C39 H15 0.979 1_545 S
C39 H16 0.977 . S
C39 C36 1.453 . S
C40 H12 0.979 . S
C40 H13 0.980 . S
C40 H14 0.983 . S
C40 C36 1.684 1_565 S
H41 C59 0.948 . S
H42 C0 0.948 . S
H43 C18 0.979 . S
H44 C18 0.980 . S
H45 C18 0.983 . S
H46 C17 0.982 . S
H47 C17 0.979 1_556 S
H48 C17 0.977 . S
H49 C19 0.948 . S
H50 C21 0.947 . S
H51 C22 0.948 . S
H52 C28 0.982 . S
H53 C28 0.979 1_655 S
H54 C28 0.977 . S
H55 C29 0.979 . S
H56 C29 0.980 . S
H57 C29 0.983 . S
H58 C2 0.947 . S
C59 C2 1.392 . S
C59 C3 1.419 . S
C59 H41 0.948 . S
C60 C61 1.391 . S
C60 C64 1.391 . S
C60 H102 0.948 . S
C61 C60 1.391 . S
C61 C62 1.391 . S
C62 C61 1.391 . S
C62 H118 0.947 . S
C62 C119 1.392 . S
C63 C64 1.391 . S
C63 C67 1.397 . S
C63 C119 1.419 . S
C64 C60 1.391 . S
C64 C63 1.391 . S
C64 C65 1.399 . S
C65 C64 1.399 . S
C65 C68 1.396 . S
C65 C77 1.453 . S
C65 C78 1.684 . S
H66 C90 0.948 . S
C67 C63 1.397 . S
C67 C68 1.394 . S
C67 C86 1.723 . S
C68 C65 1.396 . S
C68 C67 1.394 . S
C68 C98 1.723 . S
H69 C92 0.947 . S
H70 C93 0.948 . S
H71 C99 0.982 . S
H72 C100 0.979 . S
H73 C100 0.980 . S
H74 C100 0.983 . S
H75 C99 0.979 . S
H76 C99 0.977 . S
C77 C65 1.453 . S
C77 H106 0.982 . S
C77 H107 0.979 . S
C77 H108 0.977 . S
C78 C65 1.684 . S
C78 H103 0.979 . S
C78 H104 0.980 . S
C78 H105 0.983 . S
C79 C80 1.391 . S
C79 C84 1.391 . S
C79 H109 0.948 . S
C80 C79 1.391 . S
C80 C81 1.391 . S
C81 C80 1.391 . S
C81 C82 1.392 . S
C81 H110 0.947 . S
C82 C81 1.392 . S
C82 C83 1.419 . S
C82 H111 0.948 . S
C83 C82 1.419 . S
C83 C84 1.391 . S
C83 C87 1.397 . S
C84 C79 1.391 . S
C84 C83 1.391 . S
C84 C85 1.399 . S
C85 C84 1.399 . S
C85 C86 1.396 . S
C85 C88 1.453 . S
C85 C89 1.684 . S
C86 C67 1.723 . S
C86 C85 1.396 . S
C86 C87 1.394 . S
C87 C83 1.397 . S
C87 C86 1.394 . S
C87 C97 1.723 . S
C88 C85 1.453 . S
C88 H112 0.982 . S
C88 H113 0.979 . S
C88 H114 0.977 . S
C89 C85 1.684 . S
C89 H115 0.979 . S
C89 H116 0.980 . S
C89 H117 0.983 . S
C90 H66 0.948 . S
C90 C91 1.391 . S
C90 C95 1.391 . S
C91 C90 1.391 . S
C91 C92 1.391 . S
C92 H69 0.947 . S
C92 C91 1.391 . S
C92 C93 1.392 . S
C93 H70 0.948 . S
C93 C92 1.392 . S
C93 C94 1.419 . S
C94 C93 1.419 . S
C94 C95 1.391 . S
C94 C98 1.397 . S
C95 C90 1.391 . S
C95 C94 1.391 . S
C95 C96 1.399 . S
C96 C95 1.399 . S
C96 C97 1.396 . S
C96 C99 1.453 . S
C96 C100 1.684 . S
C97 C87 1.723 . S
C97 C96 1.396 . S
C97 C98 1.394 . S
C98 C68 1.723 . S
C98 C94 1.397 . S
C98 C97 1.394 . S
C99 H71 0.982 . S
C99 H75 0.979 . S
C99 H76 0.977 . S
C99 C96 1.453 . S
C100 H72 0.979 . S
C100 H73 0.980 . S
C100 H74 0.983 . S
C100 C96 1.684 . S
H101 C119 0.948 . S
H102 C60 0.948 . S
H103 C78 0.979 . S
H104 C78 0.980 . S
H105 C78 0.983 . S
H106 C77 0.982 . S
H107 C77 0.979 . S
H108 C77 0.977 . S
H109 C79 0.948 . S
H110 C81 0.947 . S
H111 C82 0.948 . S
H112 C88 0.982 . S
H113 C88 0.979 . S
H114 C88 0.977 . S
H115 C89 0.979 . S
H116 C89 0.980 . S
H117 C89 0.983 . S
H118 C62 0.947 . S
C119 C62 1.392 . S
C119 C63 1.419 . S
C119 H101 0.948 . S
C120 C121 1.391 1_554 S
C120 C124 1.391 . S
C120 H162 0.948 . S
C121 C120 1.391 1_556 S
C121 C122 1.391 . S
C122 C121 1.391 . S
C122 H178 0.947 . S
C122 C179 1.392 . S
C123 C124 1.391 . S
C123 C127 1.397 . S
C123 C179 1.419 1_554 S
C124 C120 1.391 . S
C124 C123 1.391 . S
C124 C125 1.399 . S
C125 C124 1.399 . S
C125 C128 1.396 . S
C125 C137 1.453 . S
C125 C138 1.684 1_655 S
H126 C150 0.948 . S
C127 C123 1.397 . S
C127 C128 1.394 . S
C127 C146 1.723 . S
C128 C125 1.396 . S
C128 C127 1.394 . S
C128 C158 1.723 . S
H129 C152 0.947 . S
H130 C153 0.948 . S
H131 C159 0.982 . S
H132 C160 0.979 . S
H133 C160 0.980 . S
H134 C160 0.983 . S
H135 C159 0.979 . S
H136 C159 0.977 . S
C137 C125 1.453 . S
C137 H166 0.982 . S
C137 H167 0.979 . S
C137 H168 0.977 . S
C138 C125 1.684 1_455 S
C138 H163 0.979 . S
C138 H164 0.980 . S
C138 H165 0.983 . S
C139 C140 1.391 . S
C139 C144 1.391 . S
C139 H169 0.948 . S
C140 C139 1.391 . S
C140 C141 1.391 . S
C141 C140 1.391 . S
C141 C142 1.392 . S
C141 H170 0.947 . S
C142 C141 1.392 . S
C142 C143 1.419 . S
C142 H171 0.948 . S
C143 C142 1.419 . S
C143 C144 1.391 . S
C143 C147 1.397 . S
C144 C139 1.391 . S
C144 C143 1.391 . S
C144 C145 1.399 . S
C145 C144 1.399 . S
C145 C146 1.396 . S
C145 C148 1.453 . S
C145 C149 1.684 1_554 S
C146 C127 1.723 . S
C146 C145 1.396 . S
C146 C147 1.394 . S
C147 C143 1.397 . S
C147 C146 1.394 . S
C147 C157 1.723 . S
C148 C145 1.453 . S
C148 H172 0.982 . S
C148 H173 0.979 . S
C148 H174 0.977 . S
C149 C145 1.684 1_556 S
C149 H175 0.979 . S
C149 H176 0.980 . S
C149 H177 0.983 . S
C150 H126 0.948 . S
C150 C151 1.391 1_655 S
C150 C155 1.391 . S
C151 C150 1.391 1_455 S
C151 C152 1.391 . S
C152 H129 0.947 . S
C152 C151 1.391 . S
C152 C153 1.392 . S
C153 H130 0.948 . S
C153 C152 1.392 . S
C153 C154 1.419 1_455 S
C154 C153 1.419 1_655 S
C154 C155 1.391 . S
C154 C158 1.397 . S
C155 C150 1.391 . S
C155 C154 1.391 . S
C155 C156 1.399 . S
C156 C155 1.399 . S
C156 C157 1.396 . S
C156 C159 1.453 . S
C156 C160 1.684 . S
C157 C147 1.723 . S
C157 C156 1.396 . S
C157 C158 1.394 . S
C158 C128 1.723 . S
C158 C154 1.397 . S
C158 C157 1.394 . S
C159 H131 0.982 . S
C159 H135 0.979 . S
C159 H136 0.977 . S
C159 C156 1.453 . S
C160 H132 0.979 . S
C160 H133 0.980 . S
C160 H134 0.983 . S
C160 C156 1.684 . S
H161 C179 0.948 . S
H162 C120 0.948 . S
H163 C138 0.979 . S
H164 C138 0.980 . S
H165 C138 0.983 . S
H166 C137 0.982 . S
H167 C137 0.979 . S
H168 C137 0.977 . S
H169 C139 0.948 . S
H170 C141 0.947 . S
H171 C142 0.948 . S
H172 C148 0.982 . S
H173 C148 0.979 . S
H174 C148 0.977 . S
H175 C149 0.979 . S
H176 C149 0.980 . S
H177 C149 0.983 . S
H178 C122 0.947 . S
C179 C122 1.392 . S
C179 C123 1.419 1_556 S
C179 H161 0.948 . S
C180 C181 1.391 . S
C180 C184 1.391 . S
C180 H222 0.948 . S
C181 C180 1.391 . S
C181 C182 1.391 . S
C182 C181 1.391 . S
C182 H238 0.947 . S
C182 C239 1.392 . S
C183 C184 1.391 . S
C183 C187 1.397 . S
C183 C239 1.419 . S
C184 C180 1.391 . S
C184 C183 1.391 . S
C184 C185 1.399 . S
C185 C184 1.399 . S
C185 C188 1.396 . S
C185 C197 1.453 . S
C185 C198 1.684 . S
H186 C210 0.948 . S
C187 C183 1.397 . S
C187 C188 1.394 . S
C187 C206 1.723 . S
C188 C185 1.396 . S
C188 C187 1.394 . S
C188 C218 1.723 . S
H189 C212 0.947 . S
H190 C213 0.948 . S
H191 C219 0.982 . S
H192 C220 0.979 . S
H193 C220 0.980 . S
H194 C220 0.983 . S
H195 C219 0.979 . S
H196 C219 0.977 . S
C197 C185 1.453 . S
C197 H226 0.982 . S
C197 H227 0.979 . S
C197 H228 0.977 . S
C198 C185 1.684 . S
C198 H223 0.979 . S
C198 H224 0.980 . S
C198 H225 0.983 . S
C199 C200 1.391 . S
C199 C204 1.391 . S
C199 H229 0.948 . S
C200 C199 1.391 . S
C200 C201 1.391 . S
C201 C200 1.391 . S
C201 C202 1.392 . S
C201 H230 0.947 . S
C202 C201 1.392 . S
C202 C203 1.419 . S
C202 H231 0.948 . S
C203 C202 1.419 . S
C203 C204 1.391 . S
C203 C207 1.397 . S
C204 C199 1.391 . S
C204 C203 1.391 . S
C204 C205 1.399 . S
C205 C204 1.399 . S
C205 C206 1.396 . S
C205 C208 1.453 . S
C205 C209 1.684 . S
C206 C187 1.723 . S
C206 C205 1.396 . S
C206 C207 1.394 . S
C207 C203 1.397 . S
C207 C206 1.394 . S
C207 C217 1.723 . S
C208 C205 1.453 . S
C208 H232 0.982 . S
C208 H233 0.979 . S
C208 H234 0.977 . S
C209 C205 1.684 . S
C209 H235 0.979 . S
C209 H236 0.980 . S
C209 H237 0.983 . S
C210 H186 0.948 . S
C210 C211 1.391 . S
C210 C215 1.391 . S
C211 C210 1.391 . S
C211 C212 1.391 . S
C212 H189 0.947 . S
C212 C211 1.391 . S
C212 C213 1.392 . S
C213 H190 0.948 . S
C213 C212 1.392 . S
C213 C214 1.419 . S
C214 C213 1.419 . S
C214 C215 1.391 . S
C214 C218 1.397 . S
C215 C210 1.391 . S
C215 C214 1.391 . S
C215 C216 1.399 . S
C216 C215 1.399 . S
C216 C217 1.396 . S
C216 C219 1.453 . S
C216 C220 1.684 . S
C217 C207 1.723 . S
C217 C216 1.396 . S
C217 C218 1.394 . S
C218 C188 1.723 . S
C218 C214 1.397 . S
C218 C217 1.394 . S
C219 H191 0.982 . S
C219 H195 0.979 . S
C219 H196 0.977 . S
C219 C216 1.453 . S
C220 H192 0.979 . S
C220 H193 0.980 . S
C220 H194 0.983 . S
C220 C216 1.684 . S
H221 C239 0.948 . S
H222 C180 0.948 . S
H223 C198 0.979 . S
H224 C198 0.980 . S
H225 C198 0.983 . S
H226 C197 0.982 . S
H227 C197 0.979 . S
H228 C197 0.977 . S
H229 C199 0.948 . S
H230 C201 0.947 . S
H231 C202 0.948 . S
H232 C208 0.982 . S
H233 C208 0.979 . S
H234 C208 0.977 . S
H235 C209 0.979 . S
H236 C209 0.980 . S
H237 C209 0.983 . S
H238 C182 0.947 . S
C239 C182 1.392 . S
C239 C183 1.419 . S
C239 H221 0.948 . S
C240 C241 1.391 . S
C240 C244 1.391 . S
C240 H282 0.948 . S
C241 C240 1.391 . S
C241 C242 1.391 . S
C242 C241 1.391 . S
C242 H298 0.947 . S
C242 C299 1.392 . S
C243 C244 1.391 . S
C243 C247 1.397 . S
C243 C299 1.419 . S
C244 C240 1.391 . S
C244 C243 1.391 . S
C244 C245 1.399 . S
C245 C244 1.399 . S
C245 C248 1.396 . S
C245 C257 1.453 . S
C245 C258 1.684 . S
H246 C270 0.948 . S
C247 C243 1.397 . S
C247 C248 1.394 . S
C247 C266 1.723 . S
C248 C245 1.396 . S
C248 C247 1.394 . S
C248 C278 1.723 . S
H249 C272 0.947 . S
H250 C273 0.948 . S
H251 C279 0.982 . S
H252 C280 0.979 . S
H253 C280 0.980 . S
H254 C280 0.983 1_545 S
H255 C279 0.979 . S
H256 C279 0.977 . S
C257 C245 1.453 . S
C257 H286 0.982 . S
C257 H287 0.979 . S
C257 H288 0.977 . S
C258 C245 1.684 . S
C258 H283 0.979 . S
C258 H284 0.980 . S
C258 H285 0.983 . S
C259 C260 1.391 . S
C259 C264 1.391 1_655 S
C259 H289 0.948 . S
C260 C259 1.391 . S
C260 C261 1.391 1_655 S
C261 C260 1.391 1_455 S
C261 C262 1.392 . S
C261 H290 0.947 . S
C262 C261 1.392 . S
C262 C263 1.419 . S
C262 H291 0.948 . S
C263 C262 1.419 . S
C263 C264 1.391 . S
C263 C267 1.397 . S
C264 C259 1.391 1_455 S
C264 C263 1.391 . S
C264 C265 1.399 . S
C265 C264 1.399 . S
C265 C266 1.396 . S
C265 C268 1.453 1_455 S
C265 C269 1.684 . S
C266 C247 1.723 . S
C266 C265 1.396 . S
C266 C267 1.394 . S
C267 C263 1.397 . S
C267 C266 1.394 . S
C267 C277 1.723 . S
C268 C265 1.453 1_655 S
C268 H292 0.982 . S
C268 H293 0.979 . S
C268 H294 0.977 . S
C269 C265 1.684 . S
C269 H295 0.979 . S
C269 H296 0.980 . S
C269 H297 0.983 1_455 S
C270 H246 0.948 . S
C270 C271 1.391 . S
C270 C275 1.391 1_545 S
C271 C270 1.391 . S
C271 C272 1.391 1_545 S
C272 H249 0.947 . S
C272 C271 1.391 1_565 S
C272 C273 1.392 . S
C273 H250 0.948 . S
C273 C272 1.392 . S
C273 C274 1.419 . S
C274 C273 1.419 . S
C274 C275 1.391 . S
C274 C278 1.397 . S
C275 C270 1.391 1_565 S
C275 C274 1.391 . S
C275 C276 1.399 . S
C276 C275 1.399 . S
C276 C277 1.396 . S
C276 C279 1.453 1_565 S
C276 C280 1.684 . S
C277 C267 1.723 . S
C277 C276 1.396 . S
C277 C278 1.394 . S
C278 C248 1.723 . S
C278 C274 1.397 . S
C278 C277 1.394 . S
C279 H251 0.982 . S
C279 H255 0.979 . S
C279 H256 0.977 . S
C279 C276 1.453 1_545 S
C280 H252 0.979 . S
C280 H253 0.980 . S
C280 H254 0.983 1_565 S
C280 C276 1.684 . S
H281 C299 0.948 . S
H282 C240 0.948 . S
H283 C258 0.979 . S
H284 C258 0.980 . S
H285 C258 0.983 . S
H286 C257 0.982 . S
H287 C257 0.979 . S
H288 C257 0.977 . S
H289 C259 0.948 . S
H290 C261 0.947 . S
H291 C262 0.948 . S
H292 C268 0.982 . S
H293 C268 0.979 . S
H294 C268 0.977 . S
H295 C269 0.979 . S
H296 C269 0.980 . S
H297 C269 0.983 1_655 S
H298 C242 0.947 . S
C299 C242 1.392 . S
C299 C243 1.419 . S
C299 H281 0.948 . S
C300 C301 1.391 . S
C300 C304 1.391 . S
C300 H342 0.948 . S
C301 C300 1.391 . S
C301 C302 1.391 . S
C302 C301 1.391 . S
C302 H358 0.947 . S
C302 C359 1.392 . S
C303 C304 1.391 . S
C303 C307 1.397 . S
C303 C359 1.419 . S
C304 C300 1.391 . S
C304 C303 1.391 . S
C304 C305 1.399 . S
C305 C304 1.399 . S
C305 C308 1.396 . S
C305 C317 1.453 . S
C305 C318 1.684 . S
H306 C330 0.948 . S
C307 C303 1.397 . S
C307 C308 1.394 . S
C307 C326 1.723 . S
C308 C305 1.396 . S
C308 C307 1.394 . S
C308 C338 1.723 . S
H309 C332 0.947 . S
H310 C333 0.948 . S
H311 C339 0.982 . S
H312 C340 0.979 . S
H313 C340 0.980 . S
H314 C340 0.983 . S
H315 C339 0.979 . S
H316 C339 0.977 . S
C317 C305 1.453 . S
C317 H346 0.982 . S
C317 H347 0.979 . S
C317 H348 0.977 . S
C318 C305 1.684 . S
C318 H343 0.979 . S
C318 H344 0.980 . S
C318 H345 0.983 . S
C319 C320 1.391 . S
C319 C324 1.391 . S
C319 H349 0.948 . S
C320 C319 1.391 . S
C320 C321 1.391 . S
C321 C320 1.391 . S
C321 C322 1.392 . S
C321 H350 0.947 . S
C322 C321 1.392 . S
C322 C323 1.419 . S
C322 H351 0.948 . S
C323 C322 1.419 . S
C323 C324 1.391 . S
C323 C327 1.397 . S
C324 C319 1.391 . S
C324 C323 1.391 . S
C324 C325 1.399 . S
C325 C324 1.399 . S
C325 C326 1.396 . S
C325 C328 1.453 . S
C325 C329 1.684 . S
C326 C307 1.723 . S
C326 C325 1.396 . S
C326 C327 1.394 . S
C327 C323 1.397 . S
C327 C326 1.394 . S
C327 C337 1.723 . S
C328 C325 1.453 . S
C328 H352 0.982 . S
C328 H353 0.979 . S
C328 H354 0.977 . S
C329 C325 1.684 . S
C329 H355 0.979 . S
C329 H356 0.980 . S
C329 H357 0.983 . S
C330 H306 0.948 . S
C330 C331 1.391 . S
C330 C335 1.391 . S
C331 C330 1.391 . S
C331 C332 1.391 . S
C332 H309 0.947 . S
C332 C331 1.391 . S
C332 C333 1.392 . S
C333 H310 0.948 . S
C333 C332 1.392 . S
C333 C334 1.419 . S
C334 C333 1.419 . S
C334 C335 1.391 . S
C334 C338 1.397 . S
C335 C330 1.391 . S
C335 C334 1.391 . S
C335 C336 1.399 . S
C336 C335 1.399 . S
C336 C337 1.396 . S
C336 C339 1.453 . S
C336 C340 1.684 . S
C337 C327 1.723 . S
C337 C336 1.396 . S
C337 C338 1.394 . S
C338 C308 1.723 . S
C338 C334 1.397 . S
C338 C337 1.394 . S
C339 H311 0.982 . S
C339 H315 0.979 . S
C339 H316 0.977 . S
C339 C336 1.453 . S
C340 H312 0.979 . S
C340 H313 0.980 . S
C340 H314 0.983 . S
C340 C336 1.684 . S
H341 C359 0.948 . S
H342 C300 0.948 . S
H343 C318 0.979 . S
H344 C318 0.980 . S
H345 C318 0.983 . S
H346 C317 0.982 . S
H347 C317 0.979 . S
H348 C317 0.977 . S
H349 C319 0.948 . S
H350 C321 0.947 . S
H351 C322 0.948 . S
H352 C328 0.982 . S
H353 C328 0.979 . S
H354 C328 0.977 . S
H355 C329 0.979 . S
H356 C329 0.980 . S
H357 C329 0.983 . S
H358 C302 0.947 . S
C359 C302 1.392 . S
C359 C303 1.419 . S
C359 H341 0.948 . S
C360 C361 1.391 . S
C360 C364 1.391 . S
C360 H402 0.948 . S
C361 C360 1.391 . S
C361 C362 1.391 . S
C362 C361 1.391 . S
C362 H418 0.947 . S
C362 C419 1.392 . S
C363 C364 1.391 . S
C363 C367 1.397 . S
C363 C419 1.419 . S
C364 C360 1.391 . S
C364 C363 1.391 . S
C364 C365 1.399 . S
C365 C364 1.399 . S
C365 C368 1.396 . S
C365 C377 1.453 . S
C365 C378 1.684 . S
H366 C390 0.948 . S
C367 C363 1.397 . S
C367 C368 1.394 . S
C367 C386 1.723 . S
C368 C365 1.396 . S
C368 C367 1.394 . S
C368 C398 1.723 . S
H369 C392 0.947 . S
H370 C393 0.948 . S
H371 C399 0.982 . S
H372 C400 0.979 . S
H373 C400 0.980 . S
H374 C400 0.983 . S
H375 C399 0.979 . S
H376 C399 0.977 . S
C377 C365 1.453 . S
C377 H406 0.982 . S
C377 H407 0.979 . S
C377 H408 0.977 . S
C378 C365 1.684 . S
C378 H403 0.979 . S
C378 H404 0.980 . S
C378 H405 0.983 . S
C379 C380 1.391 1_655 S
C379 C384 1.391 . S
C379 H409 0.948 . S
C380 C379 1.391 1_455 S
C380 C381 1.391 . S
C381 C380 1.391 . S
C381 C382 1.392 . S
C381 H410 0.947 . S
C382 C381 1.392 . S
C382 C383 1.419 1_455 S
C382 H411 0.948 . S
C383 C382 1.419 1_655 S
C383 C384 1.391 . S
C383 C387 1.397 . S
C384 C379 1.391 . S
C384 C383 1.391 . S
C384 C385 1.399 . S
C385 C384 1.399 . S
C385 C386 1.396 . S
C385 C388 1.453 . S
C385 C389 1.684 . S
C386 C367 1.723 . S
C386 C385 1.396 . S
C386 C387 1.394 . S
C387 C383 1.397 . S
C387 C386 1.394 . S
C387 C397 1.723 . S
C388 C385 1.453 . S
C388 H412 0.982 . S
C388 H413 0.979 . S
C388 H414 0.977 . S
C389 C385 1.684 . S
C389 H415 0.979 . S
C389 H416 0.980 . S
C389 H417 0.983 . S
C390 H366 0.948 . S
C390 C391 1.391 . S
C390 C395 1.391 . S
C391 C390 1.391 . S
C391 C392 1.391 . S
C392 H369 0.947 . S
C392 C391 1.391 . S
C392 C393 1.392 . S
C393 H370 0.948 . S
C393 C392 1.392 . S
C393 C394 1.419 . S
C394 C393 1.419 . S
C394 C395 1.391 . S
C394 C398 1.397 . S
C395 C390 1.391 . S
C395 C394 1.391 . S
C395 C396 1.399 . S
C396 C395 1.399 . S
C396 C397 1.396 . S
C396 C399 1.453 . S
C396 C400 1.684 1_655 S
C397 C387 1.723 . S
C397 C396 1.396 . S
C397 C398 1.394 . S
C398 C368 1.723 . S
C398 C394 1.397 . S
C398 C397 1.394 . S
C399 H371 0.982 . S
C399 H375 0.979 . S
C399 H376 0.977 . S
C399 C396 1.453 . S
C400 H372 0.979 . S
C400 H373 0.980 . S
C400 H374 0.983 . S
C400 C396 1.684 1_455 S
H401 C419 0.948 . S
H402 C360 0.948 . S
H403 C378 0.979 . S
H404 C378 0.980 . S
H405 C378 0.983 . S
H406 C377 0.982 . S
H407 C377 0.979 . S
H408 C377 0.977 . S
H409 C379 0.948 . S
H410 C381 0.947 . S
H411 C382 0.948 . S
H412 C388 0.982 . S
H413 C388 0.979 . S
H414 C388 0.977 . S
H415 C389 0.979 . S
H416 C389 0.980 . S
H417 C389 0.983 . S
H418 C362 0.947 . S
C419 C362 1.392 . S
C419 C363 1.419 . S
C419 H401 0.948 . S
C420 C421 1.391 . S
C420 C424 1.391 . S
C420 H462 0.948 . S
C421 C420 1.391 . S
C421 C422 1.391 . S
C422 C421 1.391 . S
C422 H478 0.947 . S
C422 C479 1.392 . S
C423 C424 1.391 . S
C423 C427 1.397 . S
C423 C479 1.419 . S
C424 C420 1.391 . S
C424 C423 1.391 . S
C424 C425 1.399 . S
C425 C424 1.399 . S
C425 C428 1.396 . S
C425 C437 1.453 . S
C425 C438 1.684 . S
H426 C450 0.948 . S
C427 C423 1.397 . S
C427 C428 1.394 . S
C427 C446 1.723 . S
C428 C425 1.396 . S
C428 C427 1.394 . S
C428 C458 1.723 . S
H429 C452 0.947 . S
H430 C453 0.948 . S
H431 C459 0.982 . S
H432 C460 0.979 . S
H433 C460 0.980 . S
H434 C460 0.983 . S
H435 C459 0.979 . S
H436 C459 0.977 . S
C437 C425 1.453 . S
C437 H466 0.982 . S
C437 H467 0.979 . S
C437 H468 0.977 . S
C438 C425 1.684 . S
C438 H463 0.979 . S
C438 H464 0.980 . S
C438 H465 0.983 . S
C439 C440 1.391 . S
C439 C444 1.391 . S
C439 H469 0.948 . S
C440 C439 1.391 . S
C440 C441 1.391 . S
C441 C440 1.391 . S
C441 C442 1.392 . S
C441 H470 0.947 . S
C442 C441 1.392 . S
C442 C443 1.419 . S
C442 H471 0.948 . S
C443 C442 1.419 . S
C443 C444 1.391 . S
C443 C447 1.397 . S
C444 C439 1.391 . S
C444 C443 1.391 . S
C444 C445 1.399 . S
C445 C444 1.399 . S
C445 C446 1.396 . S
C445 C448 1.453 . S
C445 C449 1.684 . S
C446 C427 1.723 . S
C446 C445 1.396 . S
C446 C447 1.394 . S
C447 C443 1.397 . S
C447 C446 1.394 . S
C447 C457 1.723 . S
C448 C445 1.453 . S
C448 H472 0.982 . S
C448 H473 0.979 . S
C448 H474 0.977 . S
C449 C445 1.684 . S
C449 H475 0.979 . S
C449 H476 0.980 . S
C449 H477 0.983 . S
C450 H426 0.948 . S
C450 C451 1.391 . S
C450 C455 1.391 . S
C451 C450 1.391 . S
C451 C452 1.391 . S
C452 H429 0.947 . S
C452 C451 1.391 . S
C452 C453 1.392 . S
C453 H430 0.948 . S
C453 C452 1.392 . S
C453 C454 1.419 . S
C454 C453 1.419 . S
C454 C455 1.391 . S
C454 C458 1.397 . S
C455 C450 1.391 . S
C455 C454 1.391 . S
C455 C456 1.399 . S
C456 C455 1.399 . S
C456 C457 1.396 . S
C456 C459 1.453 . S
C456 C460 1.684 . S
C457 C447 1.723 . S
C457 C456 1.396 . S
C457 C458 1.394 . S
C458 C428 1.723 . S
C458 C454 1.397 . S
C458 C457 1.394 . S
C459 H431 0.982 . S
C459 H435 0.979 . S
C459 H436 0.977 . S
C459 C456 1.453 . S
C460 H432 0.979 . S
C460 H433 0.980 . S
C460 H434 0.983 . S
C460 C456 1.684 . S
H461 C479 0.948 . S
H462 C420 0.948 . S
H463 C438 0.979 . S
H464 C438 0.980 . S
H465 C438 0.983 . S
H466 C437 0.982 . S
H467 C437 0.979 . S
H468 C437 0.977 . S
H469 C439 0.948 . S
H470 C441 0.947 . S
H471 C442 0.948 . S
H472 C448 0.982 . S
H473 C448 0.979 . S
H474 C448 0.977 . S
H475 C449 0.979 . S
H476 C449 0.980 . S
H477 C449 0.983 . S
H478 C422 0.947 . S
C479 C422 1.392 . S
C479 C423 1.419 . S
C479 H461 0.948 . S
C480 C481 1.391 . S
C480 C484 1.391 . S
C480 H522 0.948 . S
C481 C480 1.391 . S
C481 C482 1.391 . S
C482 C481 1.391 . S
C482 H538 0.947 . S
C482 C539 1.392 . S
C483 C484 1.391 . S
C483 C487 1.397 . S
C483 C539 1.419 . S
C484 C480 1.391 . S
C484 C483 1.391 . S
C484 C485 1.399 . S
C485 C484 1.399 . S
C485 C488 1.396 . S
C485 C497 1.453 . S
C485 C498 1.684 . S
H486 C510 0.948 . S
C487 C483 1.397 . S
C487 C488 1.394 . S
C487 C506 1.723 . S
C488 C485 1.396 . S
C488 C487 1.394 . S
C488 C518 1.723 . S
H489 C512 0.947 . S
H490 C513 0.948 . S
H491 C519 0.982 . S
H492 C520 0.979 . S
H493 C520 0.980 . S
H494 C520 0.983 . S
H495 C519 0.979 . S
H496 C519 0.977 . S
C497 C485 1.453 . S
C497 H526 0.982 . S
C497 H527 0.979 . S
C497 H528 0.977 . S
C498 C485 1.684 . S
C498 H523 0.979 . S
C498 H524 0.980 . S
C498 H525 0.983 . S
C499 C500 1.391 . S
C499 C504 1.391 . S
C499 H529 0.948 . S
C500 C499 1.391 . S
C500 C501 1.391 . S
C501 C500 1.391 . S
C501 C502 1.392 . S
C501 H530 0.947 . S
C502 C501 1.392 . S
C502 C503 1.419 . S
C502 H531 0.948 . S
C503 C502 1.419 . S
C503 C504 1.391 . S
C503 C507 1.397 . S
C504 C499 1.391 . S
C504 C503 1.391 . S
C504 C505 1.399 . S
C505 C504 1.399 . S
C505 C506 1.396 . S
C505 C508 1.453 . S
C505 C509 1.684 . S
C506 C487 1.723 . S
C506 C505 1.396 . S
C506 C507 1.394 . S
C507 C503 1.397 . S
C507 C506 1.394 . S
C507 C517 1.723 . S
C508 C505 1.453 . S
C508 H532 0.982 . S
C508 H533 0.979 . S
C508 H534 0.977 . S
C509 C505 1.684 . S
C509 H535 0.979 . S
C509 H536 0.980 . S
C509 H537 0.983 . S
C510 H486 0.948 . S
C510 C511 1.391 . S
C510 C515 1.391 . S
C511 C510 1.391 . S
C511 C512 1.391 . S
C512 H489 0.947 . S
C512 C511 1.391 . S
C512 C513 1.392 . S
C513 H490 0.948 . S
C513 C512 1.392 . S
C513 C514 1.419 . S
C514 C513 1.419 . S
C514 C515 1.391 . S
C514 C518 1.397 . S
C515 C510 1.391 . S
C515 C514 1.391 . S
C515 C516 1.399 . S
C516 C515 1.399 . S
C516 C517 1.396 . S
C516 C519 1.453 . S
C516 C520 1.684 . S
C517 C507 1.723 . S
C517 C516 1.396 . S
C517 C518 1.394 . S
C518 C488 1.723 . S
C518 C514 1.397 . S
C518 C517 1.394 . S
C519 H491 0.982 . S
C519 H495 0.979 . S
C519 H496 0.977 . S
C519 C516 1.453 . S
C520 H492 0.979 . S
C520 H493 0.980 . S
C520 H494 0.983 . S
C520 C516 1.684 . S
H521 C539 0.948 . S
H522 C480 0.948 . S
H523 C498 0.979 . S
H524 C498 0.980 . S
H525 C498 0.983 . S
H526 C497 0.982 . S
H527 C497 0.979 . S
H528 C497 0.977 . S
H529 C499 0.948 . S
H530 C501 0.947 . S
H531 C502 0.948 . S
H532 C508 0.982 . S
H533 C508 0.979 . S
H534 C508 0.977 . S
H535 C509 0.979 . S
H536 C509 0.980 . S
H537 C509 0.983 . S
H538 C482 0.947 . S
C539 C482 1.392 . S
C539 C483 1.419 . S
C539 H521 0.948 . S
C540 C541 1.391 . S
C540 C544 1.391 . S
C540 H582 0.948 . S
C541 C540 1.391 . S
C541 C542 1.391 . S
C542 C541 1.391 . S
C542 H598 0.947 . S
C542 C599 1.392 . S
C543 C544 1.391 . S
C543 C547 1.397 . S
C543 C599 1.419 . S
C544 C540 1.391 . S
C544 C543 1.391 . S
C544 C545 1.399 . S
C545 C544 1.399 . S
C545 C548 1.396 . S
C545 C557 1.453 . S
C545 C558 1.684 . S
H546 C570 0.948 . S
C547 C543 1.397 . S
C547 C548 1.394 . S
C547 C566 1.723 . S
C548 C545 1.396 . S
C548 C547 1.394 . S
C548 C578 1.723 . S
H549 C572 0.947 . S
H550 C573 0.948 . S
H551 C579 0.982 . S
H552 C580 0.979 . S
H553 C580 0.980 . S
H554 C580 0.983 . S
H555 C579 0.979 . S
H556 C579 0.977 . S
C557 C545 1.453 . S
C557 H586 0.982 . S
C557 H587 0.979 . S
C557 H588 0.977 . S
C558 C545 1.684 . S
C558 H583 0.979 . S
C558 H584 0.980 . S
C558 H585 0.983 . S
C559 C560 1.391 1_565 S
C559 C564 1.391 . S
C559 H589 0.948 . S
C560 C559 1.391 1_545 S
C560 C561 1.391 . S
C561 C560 1.391 . S
C561 C562 1.392 . S
C561 H590 0.947 . S
C562 C561 1.392 . S
C562 C563 1.419 1_545 S
C562 H591 0.948 . S
C563 C562 1.419 1_565 S
C563 C564 1.391 . S
C563 C567 1.397 . S
C564 C559 1.391 . S
C564 C563 1.391 . S
C564 C565 1.399 . S
C565 C564 1.399 . S
C565 C566 1.396 . S
C565 C568 1.453 . S
C565 C569 1.684 . S
C566 C547 1.723 . S
C566 C565 1.396 . S
C566 C567 1.394 . S
C567 C563 1.397 . S
C567 C566 1.394 . S
C567 C577 1.723 . S
C568 C565 1.453 . S
C568 H592 0.982 . S
C568 H593 0.979 . S
C568 H594 0.977 . S
C569 C565 1.684 . S
C569 H595 0.979 . S
C569 H596 0.980 . S
C569 H597 0.983 . S
C570 H546 0.948 . S
C570 C571 1.391 . S
C570 C575 1.391 . S
C571 C570 1.391 . S
C571 C572 1.391 . S
C572 H549 0.947 . S
C572 C571 1.391 . S
C572 C573 1.392 . S
C573 H550 0.948 . S
C573 C572 1.392 . S
C573 C574 1.419 . S
C574 C573 1.419 . S
C574 C575 1.391 . S
C574 C578 1.397 . S
C575 C570 1.391 . S
C575 C574 1.391 . S
C575 C576 1.399 . S
C576 C575 1.399 . S
C576 C577 1.396 . S
C576 C579 1.453 . S
C576 C580 1.684 1_565 S
C577 C567 1.723 . S
C577 C576 1.396 . S
C577 C578 1.394 . S
C578 C548 1.723 . S
C578 C574 1.397 . S
C578 C577 1.394 . S
C579 H551 0.982 . S
C579 H555 0.979 . S
C579 H556 0.977 . S
C579 C576 1.453 . S
C580 H552 0.979 . S
C580 H553 0.980 . S
C580 H554 0.983 . S
C580 C576 1.684 1_545 S
H581 C599 0.948 . S
H582 C540 0.948 . S
H583 C558 0.979 . S
H584 C558 0.980 . S
H585 C558 0.983 . S
H586 C557 0.982 . S
H587 C557 0.979 . S
H588 C557 0.977 . S
H589 C559 0.948 . S
H590 C561 0.947 . S
H591 C562 0.948 . S
H592 C568 0.982 . S
H593 C568 0.979 . S
H594 C568 0.977 . S
H595 C569 0.979 . S
H596 C569 0.980 . S
H597 C569 0.983 . S
H598 C542 0.947 . S
C599 C542 1.392 . S
C599 C543 1.419 . S
C599 H581 0.948 . S
C600 C601 1.391 . S
C600 C604 1.391 . S
C600 H642 0.948 . S
C601 C600 1.391 . S
C601 C602 1.391 . S
C602 C601 1.391 . S
C602 H658 0.947 . S
C602 C659 1.392 . S
C603 C604 1.391 . S
C603 C607 1.397 . S
C603 C659 1.419 . S
C604 C600 1.391 . S
C604 C603 1.391 . S
C604 C605 1.399 . S
C605 C604 1.399 . S
C605 C608 1.396 . S
C605 C617 1.453 . S
C605 C618 1.684 . S
H606 C630 0.948 . S
C607 C603 1.397 . S
C607 C608 1.394 . S
C607 C626 1.723 . S
C608 C605 1.396 . S
C608 C607 1.394 . S
C608 C638 1.723 . S
H609 C632 0.947 . S
H610 C633 0.948 . S
H611 C639 0.982 . S
H612 C640 0.979 . S
H613 C640 0.980 . S
H614 C640 0.983 . S
H615 C639 0.979 . S
H616 C639 0.977 . S
C617 C605 1.453 . S
C617 H646 0.982 . S
C617 H647 0.979 . S
C617 H648 0.977 . S
C618 C605 1.684 . S
C618 H643 0.979 . S
C618 H644 0.980 . S
C618 H645 0.983 . S
C619 C620 1.391 . S
C619 C624 1.391 . S
C619 H649 0.948 . S
C620 C619 1.391 . S
C620 C621 1.391 . S
C621 C620 1.391 . S
C621 C622 1.392 . S
C621 H650 0.947 . S
C622 C621 1.392 . S
C622 C623 1.419 . S
C622 H651 0.948 . S
C623 C622 1.419 . S
C623 C624 1.391 . S
C623 C627 1.397 . S
C624 C619 1.391 . S
C624 C623 1.391 . S
C624 C625 1.399 . S
C625 C624 1.399 . S
C625 C626 1.396 . S
C625 C628 1.453 . S
C625 C629 1.684 . S
C626 C607 1.723 . S
C626 C625 1.396 . S
C626 C627 1.394 . S
C627 C623 1.397 . S
C627 C626 1.394 . S
C627 C637 1.723 . S
C628 C625 1.453 . S
C628 H652 0.982 . S
C628 H653 0.979 . S
C628 H654 0.977 . S
C629 C625 1.684 . S
C629 H655 0.979 . S
C629 H656 0.980 . S
C629 H657 0.983 . S
C630 H606 0.948 . S
C630 C631 1.391 . S
C630 C635 1.391 . S
C631 C630 1.391 . S
C631 C632 1.391 . S
C632 H609 0.947 . S
C632 C631 1.391 . S
C632 C633 1.392 . S
C633 H610 0.948 . S
C633 C632 1.392 . S
C633 C634 1.419 . S
C634 C633 1.419 . S
C634 C635 1.391 . S
C634 C638 1.397 . S
C635 C630 1.391 . S
C635 C634 1.391 . S
C635 C636 1.399 . S
C636 C635 1.399 . S
C636 C637 1.396 . S
C636 C639 1.453 . S
C636 C640 1.684 . S
C637 C627 1.723 . S
C637 C636 1.396 . S
C637 C638 1.394 . S
C638 C608 1.723 . S
C638 C634 1.397 . S
C638 C637 1.394 . S
C639 H611 0.982 . S
C639 H615 0.979 . S
C639 H616 0.977 . S
C639 C636 1.453 . S
C640 H612 0.979 . S
C640 H613 0.980 . S
C640 H614 0.983 . S
C640 C636 1.684 . S
H641 C659 0.948 . S
H642 C600 0.948 . S
H643 C618 0.979 . S
H644 C618 0.980 . S
H645 C618 0.983 . S
H646 C617 0.982 . S
H647 C617 0.979 . S
H648 C617 0.977 . S
H649 C619 0.948 . S
H650 C621 0.947 . S
H651 C622 0.948 . S
H652 C628 0.982 . S
H653 C628 0.979 . S
H654 C628 0.977 . S
H655 C629 0.979 . S
H656 C629 0.980 . S
H657 C629 0.983 . S
H658 C602 0.947 . S
C659 C602 1.392 . S
C659 C603 1.419 . S
C659 H641 0.948 . S
C660 C661 1.391 . S
C660 C664 1.391 . S
C660 H702 0.948 . S
C661 C660 1.391 . S
C661 C662 1.391 . S
C662 C661 1.391 . S
C662 H718 0.947 . S
C662 C719 1.392 . S
C663 C664 1.391 . S
C663 C667 1.397 . S
C663 C719 1.419 . S
C664 C660 1.391 . S
C664 C663 1.391 . S
C664 C665 1.399 . S
C665 C664 1.399 . S
C665 C668 1.396 . S
C665 C677 1.453 . S
C665 C678 1.684 . S
H666 C690 0.948 . S
C667 C663 1.397 . S
C667 C668 1.394 . S
C667 C686 1.723 . S
C668 C665 1.396 . S
C668 C667 1.394 . S
C668 C698 1.723 . S
H669 C692 0.947 . S
H670 C693 0.948 . S
H671 C699 0.982 . S
H672 C700 0.979 . S
H673 C700 0.980 . S
H674 C700 0.983 . S
H675 C699 0.979 . S
H676 C699 0.977 . S
C677 C665 1.453 . S
C677 H706 0.982 . S
C677 H707 0.979 . S
C677 H708 0.977 . S
C678 C665 1.684 . S
C678 H703 0.979 . S
C678 H704 0.980 . S
C678 H705 0.983 . S
C679 C680 1.391 . S
C679 C684 1.391 . S
C679 H709 0.948 . S
C680 C679 1.391 . S
C680 C681 1.391 . S
C681 C680 1.391 . S
C681 C682 1.392 . S
C681 H710 0.947 . S
C682 C681 1.392 . S
C682 C683 1.419 . S
C682 H711 0.948 . S
C683 C682 1.419 . S
C683 C684 1.391 . S
C683 C687 1.397 . S
C684 C679 1.391 . S
C684 C683 1.391 . S
C684 C685 1.399 . S
C685 C684 1.399 . S
C685 C686 1.396 . S
C685 C688 1.453 . S
C685 C689 1.684 . S
C686 C667 1.723 . S
C686 C685 1.396 . S
C686 C687 1.394 . S
C687 C683 1.397 . S
C687 C686 1.394 . S
C687 C697 1.723 . S
C688 C685 1.453 . S
C688 H712 0.982 . S
C688 H713 0.979 . S
C688 H714 0.977 . S
C689 C685 1.684 . S
C689 H715 0.979 . S
C689 H716 0.980 . S
C689 H717 0.983 . S
C690 H666 0.948 . S
C690 C691 1.391 . S
C690 C695 1.391 . S
C691 C690 1.391 . S
C691 C692 1.391 . S
C692 H669 0.947 . S
C692 C691 1.391 . S
C692 C693 1.392 . S
C693 H670 0.948 . S
C693 C692 1.392 . S
C693 C694 1.419 . S
C694 C693 1.419 . S
C694 C695 1.391 . S
C694 C698 1.397 . S
C695 C690 1.391 . S
C695 C694 1.391 . S
C695 C696 1.399 . S
C696 C695 1.399 . S
C696 C697 1.396 . S
C696 C699 1.453 . S
C696 C700 1.684 . S
C697 C687 1.723 . S
C697 C696 1.396 . S
C697 C698 1.394 . S
C698 C668 1.723 . S
C698 C694 1.397 . S
C698 C697 1.394 . S
C699 H671 0.982 . S
C699 H675 0.979 . S
C699 H676 0.977 . S
C699 C696 1.453 . S
C700 H672 0.979 . S
C700 H673 0.980 . S
C700 H674 0.983 . S
C700 C696 1.684 . S
H701 C719 0.948 . S
H702 C660 0.948 . S
H703 C678 0.979 . S
H704 C678 0.980 . S
H705 C678 0.983 . S
H706 C677 0.982 . S
H707 C677 0.979 . S
H708 C677 0.977 . S
H709 C679 0.948 . S
H710 C681 0.947 . S
H711 C682 0.948 . S
H712 C688 0.982 . S
H713 C688 0.979 . S
H714 C688 0.977 . S
H715 C689 0.979 . S
H716 C689 0.980 . S
H717 C689 0.983 . S
H718 C662 0.947 . S
C719 C662 1.392 . S
C719 C663 1.419 . S
C719 H701 0.948 . S
C720 C721 1.391 . S
C720 C724 1.391 . S
C720 H762 0.948 . S
C721 C720 1.391 . S
C721 C722 1.391 . S
C722 C721 1.391 . S
C722 H778 0.947 . S
C722 C779 1.392 . S
C723 C724 1.391 . S
C723 C727 1.397 . S
C723 C779 1.419 . S
C724 C720 1.391 . S
C724 C723 1.391 . S
C724 C725 1.399 . S
C725 C724 1.399 . S
C725 C728 1.396 . S
C725 C737 1.453 . S
C725 C738 1.684 . S
H726 C750 0.948 . S
C727 C723 1.397 . S
C727 C728 1.394 . S
C727 C746 1.723 . S
C728 C725 1.396 . S
C728 C727 1.394 . S
C728 C758 1.723 . S
H729 C752 0.947 . S
H730 C753 0.948 . S
H731 C759 0.982 . S
H732 C760 0.979 . S
H733 C760 0.980 . S
H734 C760 0.983 . S
H735 C759 0.979 . S
H736 C759 0.977 . S
C737 C725 1.453 . S
C737 H766 0.982 . S
C737 H767 0.979 . S
C737 H768 0.977 . S
C738 C725 1.684 . S
C738 H763 0.979 . S
C738 H764 0.980 . S
C738 H765 0.983 . S
C739 C740 1.391 . S
C739 C744 1.391 . S
C739 H769 0.948 . S
C740 C739 1.391 . S
C740 C741 1.391 . S
C741 C740 1.391 . S
C741 C742 1.392 . S
C741 H770 0.947 . S
C742 C741 1.392 . S
C742 C743 1.419 . S
C742 H771 0.948 . S
C743 C742 1.419 . S
C743 C744 1.391 . S
C743 C747 1.397 . S
C744 C739 1.391 . S
C744 C743 1.391 . S
C744 C745 1.399 . S
C745 C744 1.399 . S
C745 C746 1.396 . S
C745 C748 1.453 . S
C745 C749 1.684 . S
C746 C727 1.723 . S
C746 C745 1.396 . S
C746 C747 1.394 . S
C747 C743 1.397 . S
C747 C746 1.394 . S
C747 C757 1.723 . S
C748 C745 1.453 . S
C748 H772 0.982 . S
C748 H773 0.979 . S
C748 H774 0.977 . S
C749 C745 1.684 . S
C749 H775 0.979 . S
C749 H776 0.980 . S
C749 H777 0.983 . S
C750 H726 0.948 . S
C750 C751 1.391 . S
C750 C755 1.391 . S
C751 C750 1.391 . S
C751 C752 1.391 . S
C752 H729 0.947 . S
C752 C751 1.391 . S
C752 C753 1.392 . S
C753 H730 0.948 . S
C753 C752 1.392 . S
C753 C754 1.419 . S
C754 C753 1.419 . S
C754 C755 1.391 . S
C754 C758 1.397 . S
C755 C750 1.391 . S
C755 C754 1.391 . S
C755 C756 1.399 . S
C756 C755 1.399 . S
C756 C757 1.396 . S
C756 C759 1.453 . S
C756 C760 1.684 . S
C757 C747 1.723 . S
C757 C756 1.396 . S
C757 C758 1.394 . S
C758 C728 1.723 . S
C758 C754 1.397 . S
C758 C757 1.394 . S
C759 H731 0.982 . S
C759 H735 0.979 . S
C759 H736 0.977 . S
C759 C756 1.453 . S
C760 H732 0.979 . S
C760 H733 0.980 . S
C760 H734 0.983 . S
C760 C756 1.684 . S
H761 C779 0.948 . S
H762 C720 0.948 . S
H763 C738 0.979 . S
H764 C738 0.980 . S
H765 C738 0.983 . S
H766 C737 0.982 . S
H767 C737 0.979 . S
H768 C737 0.977 . S
H769 C739 0.948 . S
H770 C741 0.947 . S
H771 C742 0.948 . S
H772 C748 0.982 . S
H773 C748 0.979 . S
H774 C748 0.977 . S
H775 C749 0.979 . S
H776 C749 0.980 . S
H777 C749 0.983 . S
H778 C722 0.947 . S
C779 C722 1.392 . S
C779 C723 1.419 . S
C779 H761 0.948 . S
C780 C781 1.391 . S
C780 C784 1.391 1_554 S
C780 H822 0.948 . S
C781 C780 1.391 . S
C781 C782 1.391 1_554 S
C782 C781 1.391 1_556 S
C782 H838 0.947 . S
C782 C839 1.392 . S
C783 C784 1.391 . S
C783 C787 1.397 . S
C783 C839 1.419 . S
C784 C780 1.391 1_556 S
C784 C783 1.391 . S
C784 C785 1.399 . S
C785 C784 1.399 . S
C785 C788 1.396 . S
C785 C797 1.453 1_556 S
C785 C798 1.684 . S
H786 C810 0.948 . S
C787 C783 1.397 . S
C787 C788 1.394 . S
C787 C806 1.723 . S
C788 C785 1.396 . S
C788 C787 1.394 . S
C788 C818 1.723 . S
H789 C812 0.947 . S
H790 C813 0.948 . S
H791 C819 0.982 . S
H792 C820 0.979 . S
H793 C820 0.980 . S
H794 C820 0.983 . S
H795 C819 0.979 . S
H796 C819 0.977 . S
C797 C785 1.453 1_554 S
C797 H826 0.982 . S
C797 H827 0.979 . S
C797 H828 0.977 . S
C798 C785 1.684 . S
C798 H823 0.979 . S
C798 H824 0.980 . S
C798 H825 0.983 1_556 S
C799 C800 1.391 . S
C799 C804 1.391 . S
C799 H829 0.948 . S
C800 C799 1.391 . S
C800 C801 1.391 . S
C801 C800 1.391 . S
C801 C802 1.392 . S
C801 H830 0.947 . S
C802 C801 1.392 . S
C802 C803 1.419 . S
C802 H831 0.948 . S
C803 C802 1.419 . S
C803 C804 1.391 . S
C803 C807 1.397 . S
C804 C799 1.391 . S
C804 C803 1.391 . S
C804 C805 1.399 . S
C805 C804 1.399 . S
C805 C806 1.396 . S
C805 C808 1.453 . S
C805 C809 1.684 . S
C806 C787 1.723 . S
C806 C805 1.396 . S
C806 C807 1.394 . S
C807 C803 1.397 . S
C807 C806 1.394 . S
C807 C817 1.723 . S
C808 C805 1.453 . S
C808 H832 0.982 . S
C808 H833 0.979 . S
C808 H834 0.977 . S
C809 C805 1.684 . S
C809 H835 0.979 . S
C809 H836 0.980 . S
C809 H837 0.983 . S
C810 H786 0.948 . S
C810 C811 1.391 . S
C810 C815 1.391 . S
C811 C810 1.391 . S
C811 C812 1.391 . S
C812 H789 0.947 . S
C812 C811 1.391 . S
C812 C813 1.392 . S
C813 H790 0.948 . S
C813 C812 1.392 . S
C813 C814 1.419 . S
C814 C813 1.419 . S
C814 C815 1.391 . S
C814 C818 1.397 . S
C815 C810 1.391 . S
C815 C814 1.391 . S
C815 C816 1.399 . S
C816 C815 1.399 . S
C816 C817 1.396 . S
C816 C819 1.453 . S
C816 C820 1.684 . S
C817 C807 1.723 . S
C817 C816 1.396 . S
C817 C818 1.394 . S
C818 C788 1.723 . S
C818 C814 1.397 . S
C818 C817 1.394 . S
C819 H791 0.982 . S
C819 H795 0.979 . S
C819 H796 0.977 . S
C819 C816 1.453 . S
C820 H792 0.979 . S
C820 H793 0.980 . S
C820 H794 0.983 . S
C820 C816 1.684 . S
H821 C839 0.948 . S
H822 C780 0.948 . S
H823 C798 0.979 . S
H824 C798 0.980 . S
H825 C798 0.983 1_554 S
H826 C797 0.982 . S
H827 C797 0.979 . S
H828 C797 0.977 . S
H829 C799 0.948 . S
H830 C801 0.947 . S
H831 C802 0.948 . S
H832 C808 0.982 . S
H833 C808 0.979 . S
H834 C808 0.977 . S
H835 C809 0.979 . S
H836 C809 0.980 . S
H837 C809 0.983 . S
H838 C782 0.947 . S
C839 C782 1.392 . S
C839 C783 1.419 . S
C839 H821 0.948 . S
C840 C841 1.391 . S
C840 C844 1.391 . S
C840 H882 0.948 . S
C841 C840 1.391 . S
C841 C842 1.391 . S
C842 C841 1.391 . S
C842 H898 0.947 . S
C842 C899 1.392 . S
C843 C844 1.391 . S
C843 C847 1.397 . S
C843 C899 1.419 . S
C844 C840 1.391 . S
C844 C843 1.391 . S
C844 C845 1.399 . S
C845 C844 1.399 . S
C845 C848 1.396 . S
C845 C857 1.453 . S
C845 C858 1.684 . S
H846 C870 0.948 . S
C847 C843 1.397 . S
C847 C848 1.394 . S
C847 C866 1.723 . S
C848 C845 1.396 . S
C848 C847 1.394 . S
C848 C878 1.723 . S
H849 C872 0.947 . S
H850 C873 0.948 . S
H851 C879 0.982 . S
H852 C880 0.979 . S
H853 C880 0.980 . S
H854 C880 0.983 . S
H855 C879 0.979 . S
H856 C879 0.977 . S
C857 C845 1.453 . S
C857 H886 0.982 . S
C857 H887 0.979 . S
C857 H888 0.977 . S
C858 C845 1.684 . S
C858 H883 0.979 . S
C858 H884 0.980 . S
C858 H885 0.983 . S
C859 C860 1.391 . S
C859 C864 1.391 . S
C859 H889 0.948 . S
C860 C859 1.391 . S
C860 C861 1.391 . S
C861 C860 1.391 . S
C861 C862 1.392 . S
C861 H890 0.947 . S
C862 C861 1.392 . S
C862 C863 1.419 . S
C862 H891 0.948 . S
C863 C862 1.419 . S
C863 C864 1.391 . S
C863 C867 1.397 . S
C864 C859 1.391 . S
C864 C863 1.391 . S
C864 C865 1.399 . S
C865 C864 1.399 . S
C865 C866 1.396 . S
C865 C868 1.453 . S
C865 C869 1.684 . S
C866 C847 1.723 . S
C866 C865 1.396 . S
C866 C867 1.394 . S
C867 C863 1.397 . S
C867 C866 1.394 . S
C867 C877 1.723 . S
C868 C865 1.453 . S
C868 H892 0.982 . S
C868 H893 0.979 . S
C868 H894 0.977 . S
C869 C865 1.684 . S
C869 H895 0.979 . S
C869 H896 0.980 . S
C869 H897 0.983 . S
C870 H846 0.948 . S
C870 C871 1.391 . S
C870 C875 1.391 . S
C871 C870 1.391 . S
C871 C872 1.391 . S
C872 H849 0.947 . S
C872 C871 1.391 . S
C872 C873 1.392 . S
C873 H850 0.948 . S
C873 C872 1.392 . S
C873 C874 1.419 . S
C874 C873 1.419 . S
C874 C875 1.391 . S
C874 C878 1.397 . S
C875 C870 1.391 . S
C875 C874 1.391 . S
C875 C876 1.399 . S
C876 C875 1.399 . S
C876 C877 1.396 . S
C876 C879 1.453 . S
C876 C880 1.684 . S
C877 C867 1.723 . S
C877 C876 1.396 . S
C877 C878 1.394 . S
C878 C848 1.723 . S
C878 C874 1.397 . S
C878 C877 1.394 . S
C879 H851 0.982 . S
C879 H855 0.979 . S
C879 H856 0.977 . S
C879 C876 1.453 . S
C880 H852 0.979 . S
C880 H853 0.980 . S
C880 H854 0.983 . S
C880 C876 1.684 . S
H881 C899 0.948 . S
H882 C840 0.948 . S
H883 C858 0.979 . S
H884 C858 0.980 . S
H885 C858 0.983 . S
H886 C857 0.982 . S
H887 C857 0.979 . S
H888 C857 0.977 . S
H889 C859 0.948 . S
H890 C861 0.947 . S
H891 C862 0.948 . S
H892 C868 0.982 . S
H893 C868 0.979 . S
H894 C868 0.977 . S
H895 C869 0.979 . S
H896 C869 0.980 . S
H897 C869 0.983 . S
H898 C842 0.947 . S
C899 C842 1.392 . S
C899 C843 1.419 . S
C899 H881 0.948 . S
C900 C901 1.391 1_545 S
C900 C904 1.391 . S
C900 H942 0.948 . S
C901 C900 1.391 1_565 S
C901 C902 1.391 . S
C902 C901 1.391 . S
C902 H958 0.947 . S
C902 C959 1.392 . S
C903 C904 1.391 . S
C903 C907 1.397 . S
C903 C959 1.419 1_545 S
C904 C900 1.391 . S
C904 C903 1.391 . S
C904 C905 1.399 . S
C905 C904 1.399 . S
C905 C908 1.396 . S
C905 C917 1.453 . S
C905 C918 1.684 1_556 S
H906 C930 0.948 . S
C907 C903 1.397 . S
C907 C908 1.394 . S
C907 C926 1.723 . S
C908 C905 1.396 . S
C908 C907 1.394 . S
C908 C938 1.723 . S
H909 C932 0.947 . S
H910 C933 0.948 . S
H911 C939 0.982 . S
H912 C940 0.979 . S
H913 C940 0.980 . S
H914 C940 0.983 . S
H915 C939 0.979 . S
H916 C939 0.977 . S
C917 C905 1.453 . S
C917 H946 0.982 . S
C917 H947 0.979 . S
C917 H948 0.977 . S
C918 C905 1.684 1_554 S
C918 H943 0.979 . S
C918 H944 0.980 . S
C918 H945 0.983 . S
C919 C920 1.391 . S
C919 C924 1.391 . S
C919 H949 0.948 . S
C920 C919 1.391 . S
C920 C921 1.391 . S
C921 C920 1.391 . S
C921 C922 1.392 . S
C921 H950 0.947 . S
C922 C921 1.392 . S
C922 C923 1.419 . S
C922 H951 0.948 . S
C923 C922 1.419 . S
C923 C924 1.391 . S
C923 C927 1.397 . S
C924 C919 1.391 . S
C924 C923 1.391 . S
C924 C925 1.399 . S
C925 C924 1.399 . S
C925 C926 1.396 . S
C925 C928 1.453 . S
C925 C929 1.684 1_545 S
C926 C907 1.723 . S
C926 C925 1.396 . S
C926 C927 1.394 . S
C927 C923 1.397 . S
C927 C926 1.394 . S
C927 C937 1.723 . S
C928 C925 1.453 . S
C928 H952 0.982 . S
C928 H953 0.979 . S
C928 H954 0.977 . S
C929 C925 1.684 1_565 S
C929 H955 0.979 . S
C929 H956 0.980 . S
C929 H957 0.983 . S
C930 H906 0.948 . S
C930 C931 1.391 1_556 S
C930 C935 1.391 . S
C931 C930 1.391 1_554 S
C931 C932 1.391 . S
C932 H909 0.947 . S
C932 C931 1.391 . S
C932 C933 1.392 . S
C933 H910 0.948 . S
C933 C932 1.392 . S
C933 C934 1.419 1_554 S
C934 C933 1.419 1_556 S
C934 C935 1.391 . S
C934 C938 1.397 . S
C935 C930 1.391 . S
C935 C934 1.391 . S
C935 C936 1.399 . S
C936 C935 1.399 . S
C936 C937 1.396 . S
C936 C939 1.453 . S
C936 C940 1.684 . S
C937 C927 1.723 . S
C937 C936 1.396 . S
C937 C938 1.394 . S
C938 C908 1.723 . S
C938 C934 1.397 . S
C938 C937 1.394 . S
C939 H911 0.982 . S
C939 H915 0.979 . S
C939 H916 0.977 . S
C939 C936 1.453 . S
C940 H912 0.979 . S
C940 H913 0.980 . S
C940 H914 0.983 . S
C940 C936 1.684 . S
H941 C959 0.948 . S
H942 C900 0.948 . S
H943 C918 0.979 . S
H944 C918 0.980 . S
H945 C918 0.983 . S
H946 C917 0.982 . S
H947 C917 0.979 . S
H948 C917 0.977 . S
H949 C919 0.948 . S
H950 C921 0.947 . S
H951 C922 0.948 . S
H952 C928 0.982 . S
H953 C928 0.979 . S
H954 C928 0.977 . S
H955 C929 0.979 . S
H956 C929 0.980 . S
H957 C929 0.983 . S
H958 C902 0.947 . S
C959 C902 1.392 . S
C959 C903 1.419 1_565 S
C959 H941 0.948 . S
Li960 N977 1.990 . S
Li960 O1020 1.956 . S
Li960 O1021 1.970 1_556 S
Li960 O1022 1.961 . S
Li961 N985 1.990 . S
Li961 O1020 1.970 1_554 S
Li961 O1021 1.956 . S
Li961 O1023 1.961 . S
Li962 N1007 1.990 . S
Li962 O1020 1.961 . S
Li962 O1022 1.956 . S
Li962 O1023 1.970 1_556 S
Li963 N1013 1.990 . S
Li963 O1021 1.961 . S
Li963 O1022 1.970 1_554 S
Li963 O1023 1.956 . S
C964 C966 1.348 1_556 S
C964 C967 1.356 . S
C964 O1020 1.325 . S
N965 C968 1.314 1_556 S
N965 C969 1.279 . S
C966 C964 1.348 1_554 S
C966 C968 1.353 . S
C966 H1024 0.929 . S
C967 C964 1.356 . S
C967 C969 1.358 . S
C967 H1025 0.930 . S
C968 N965 1.314 1_554 S
C968 C966 1.353 . S
C968 H1026 0.930 . S
C969 N965 1.279 . S
C969 C967 1.358 . S
C969 H1027 0.930 . S
C970 C973 1.348 . S
C970 C974 1.356 . S
C970 O1021 1.325 . S
C971 N972 1.279 . S
C971 C974 1.358 . S
C971 H1028 0.930 . S
N972 C971 1.279 . S
N972 C975 1.314 . S
C973 C970 1.348 . S
C973 C975 1.353 . S
C973 H1029 0.929 . S
C974 C970 1.356 . S
C974 C971 1.358 . S
C974 H1030 0.930 . S
C975 N972 1.314 . S
C975 C973 1.353 . S
C975 H1031 0.930 . S
C976 N977 1.314 . S
C976 C981 1.353 . S
C976 H982 0.930 . S
N977 Li960 1.990 . S
N977 C976 1.314 . S
N977 C979 1.279 . S
C978 C979 1.358 . S
C978 C980 1.356 . S
C978 H1032 0.930 . S
C979 N977 1.279 . S
C979 C978 1.358 . S
C979 H983 0.930 . S
C980 C978 1.356 . S
C980 C981 1.348 . S
C981 C976 1.353 . S
C981 C980 1.348 . S
C981 H1033 0.929 . S
H982 C976 0.930 . S
H983 C979 0.930 . S
C984 N985 1.314 . S
C984 C986 1.353 . S
C984 H990 0.930 . S
N985 Li961 1.990 . S
N985 C984 1.314 . S
N985 C988 1.279 . S
C986 C984 1.353 . S
C986 C989 1.348 . S
C986 H1034 0.929 . S
C987 C988 1.358 . S
C987 C989 1.356 . S
C987 H1035 0.930 . S
C988 N985 1.279 . S
C988 C987 1.358 . S
C988 H991 0.930 . S
C989 C986 1.348 . S
C989 C987 1.356 . S
H990 C984 0.930 . S
H991 C988 0.930 . S
C992 C994 1.348 . S
C992 C995 1.356 . S
C992 O1022 1.325 . S
N993 C996 1.314 . S
N993 C997 1.279 . S
C994 C992 1.348 . S
C994 C996 1.353 . S
C994 H1036 0.929 . S
C995 C992 1.356 . S
C995 C997 1.358 . S
C995 H1037 0.930 . S
C996 N993 1.314 . S
C996 C994 1.353 . S
C996 H1038 0.930 . S
C997 N993 1.279 . S
C997 C995 1.358 . S
C997 H1039 0.930 . S
C998 C999 1.348 1_554 S
C998 C1000 1.356 . S
C998 O1023 1.325 . S
C999 C998 1.348 1_556 S
C999 C1001 1.353 . S
C999 H1040 0.929 . S
C1000 C998 1.356 . S
C1000 C1002 1.358 . S
C1000 H1041 0.930 . S
C1001 C999 1.353 . S
C1001 N1003 1.314 1_556 S
C1001 H1042 0.930 . S
C1002 C1000 1.358 . S
C1002 N1003 1.279 . S
C1002 H1043 0.930 . S
N1003 C1001 1.314 1_554 S
N1003 C1002 1.279 . S
C1004 C1006 1.353 . S
C1004 N1007 1.314 . S
C1004 H1010 0.930 . S
C1005 N1007 1.279 . S
C1005 C1008 1.358 . S
C1005 H1011 0.930 . S
C1006 C1004 1.353 . S
C1006 C1009 1.348 . S
C1006 H1044 0.929 . S
N1007 Li962 1.990 . S
N1007 C1004 1.314 . S
N1007 C1005 1.279 . S
C1008 C1005 1.358 . S
C1008 C1009 1.356 . S
C1008 H1045 0.930 . S
C1009 C1006 1.348 . S
C1009 C1008 1.356 . S
H1010 C1004 0.930 . S
H1011 C1005 0.930 . S
C1012 N1013 1.314 . S
C1012 C1014 1.353 . S
C1012 H1018 0.930 . S
N1013 Li963 1.990 . S
N1013 C1012 1.314 . S
N1013 C1016 1.279 . S
C1014 C1012 1.353 . S
C1014 C1017 1.348 . S
C1014 H1046 0.929 . S
C1015 C1016 1.358 . S
C1015 C1017 1.356 . S
C1015 H1047 0.930 . S
C1016 N1013 1.279 . S
C1016 C1015 1.358 . S
C1016 H1019 0.930 . S
C1017 C1014 1.348 . S
C1017 C1015 1.356 . S
H1018 C1012 0.930 . S
H1019 C1016 0.930 . S
O1020 Li960 1.956 . S
O1020 Li961 1.970 1_556 S
O1020 Li962 1.961 . S
O1020 C964 1.325 . S
O1021 Li960 1.970 1_554 S
O1021 Li961 1.956 . S
O1021 Li963 1.961 . S
O1021 C970 1.325 . S
O1022 Li960 1.961 . S
O1022 Li962 1.956 . S
O1022 Li963 1.970 1_556 S
O1022 C992 1.325 . S
O1023 Li961 1.961 . S
O1023 Li962 1.970 1_554 S
O1023 Li963 1.956 . S
O1023 C998 1.325 . S
H1024 C966 0.929 . S
H1025 C967 0.930 . S
H1026 C968 0.930 . S
H1027 C969 0.930 . S
H1028 C971 0.930 . S
H1029 C973 0.929 . S
H1030 C974 0.930 . S
H1031 C975 0.930 . S
H1032 C978 0.930 . S
H1033 C981 0.929 . S
H1034 C986 0.929 . S
H1035 C987 0.930 . S
H1036 C994 0.929 . S
H1037 C995 0.930 . S
H1038 C996 0.930 . S
H1039 C997 0.930 . S
H1040 C999 0.929 . S
H1041 C1000 0.930 . S
H1042 C1001 0.930 . S
H1043 C1002 0.930 . S
H1044 C1006 0.929 . S
H1045 C1008 0.930 . S
H1046 C1014 0.929 . S
H1047 C1015 0.930 . S
Li1048 N1065 1.990 . S
Li1048 O1108 1.956 . S
Li1048 O1109 1.970 . S
Li1048 O1110 1.961 . S
Li1049 N1073 1.990 . S
Li1049 O1108 1.970 . S
Li1049 O1109 1.956 . S
Li1049 O1111 1.961 . S
Li1050 N1095 1.990 . S
Li1050 O1108 1.961 . S
Li1050 O1110 1.956 . S
Li1050 O1111 1.970 . S
Li1051 N1101 1.990 . S
Li1051 O1109 1.961 . S
Li1051 O1110 1.970 . S
Li1051 O1111 1.956 . S
C1052 C1054 1.348 . S
C1052 C1055 1.356 . S
C1052 O1108 1.325 . S
N1053 C1056 1.314 . S
N1053 C1057 1.279 . S
C1054 C1052 1.348 . S
C1054 C1056 1.353 . S
C1054 H1112 0.929 . S
C1055 C1052 1.356 . S
C1055 C1057 1.358 . S
C1055 H1113 0.930 . S
C1056 N1053 1.314 . S
C1056 C1054 1.353 . S
C1056 H1114 0.930 . S
C1057 N1053 1.279 . S
C1057 C1055 1.358 . S
C1057 H1115 0.930 . S
C1058 C1061 1.348 . S
C1058 C1062 1.356 . S
C1058 O1109 1.325 . S
C1059 N1060 1.279 . S
C1059 C1062 1.358 . S
C1059 H1116 0.930 . S
N1060 C1059 1.279 . S
N1060 C1063 1.314 . S
C1061 C1058 1.348 . S
C1061 C1063 1.353 . S
C1061 H1117 0.929 . S
C1062 C1058 1.356 . S
C1062 C1059 1.358 . S
C1062 H1118 0.930 . S
C1063 N1060 1.314 . S
C1063 C1061 1.353 . S
C1063 H1119 0.930 . S
C1064 N1065 1.314 . S
C1064 C1069 1.353 . S
C1064 H1070 0.930 . S
N1065 Li1048 1.990 . S
N1065 C1064 1.314 . S
N1065 C1067 1.279 . S
C1066 C1067 1.358 . S
C1066 C1068 1.356 . S
C1066 H1120 0.930 . S
C1067 N1065 1.279 . S
C1067 C1066 1.358 . S
C1067 H1071 0.930 . S
C1068 C1066 1.356 . S
C1068 C1069 1.348 . S
C1069 C1064 1.353 . S
C1069 C1068 1.348 . S
C1069 H1121 0.929 . S
H1070 C1064 0.930 . S
H1071 C1067 0.930 . S
C1072 N1073 1.314 . S
C1072 C1074 1.353 . S
C1072 H1078 0.930 . S
N1073 Li1049 1.990 . S
N1073 C1072 1.314 . S
N1073 C1076 1.279 . S
C1074 C1072 1.353 . S
C1074 C1077 1.348 . S
C1074 H1122 0.929 . S
C1075 C1076 1.358 . S
C1075 C1077 1.356 . S
C1075 H1123 0.930 . S
C1076 N1073 1.279 . S
C1076 C1075 1.358 . S
C1076 H1079 0.930 . S
C1077 C1074 1.348 . S
C1077 C1075 1.356 . S
H1078 C1072 0.930 . S
H1079 C1076 0.930 . S
C1080 C1082 1.348 . S
C1080 C1083 1.356 . S
C1080 O1110 1.325 . S
N1081 C1084 1.314 . S
N1081 C1085 1.279 . S
C1082 C1080 1.348 . S
C1082 C1084 1.353 . S
C1082 H1124 0.929 . S
C1083 C1080 1.356 . S
C1083 C1085 1.358 . S
C1083 H1125 0.930 . S
C1084 N1081 1.314 . S
C1084 C1082 1.353 . S
C1084 H1126 0.930 . S
C1085 N1081 1.279 . S
C1085 C1083 1.358 . S
C1085 H1127 0.930 . S
C1086 C1087 1.348 . S
C1086 C1088 1.356 . S
C1086 O1111 1.325 . S
C1087 C1086 1.348 . S
C1087 C1089 1.353 . S
C1087 H1128 0.929 . S
C1088 C1086 1.356 . S
C1088 C1090 1.358 . S
C1088 H1129 0.930 . S
C1089 C1087 1.353 . S
C1089 N1091 1.314 . S
C1089 H1130 0.930 . S
C1090 C1088 1.358 . S
C1090 N1091 1.279 . S
C1090 H1131 0.930 . S
N1091 C1089 1.314 . S
N1091 C1090 1.279 . S
C1092 C1094 1.353 . S
C1092 N1095 1.314 . S
C1092 H1098 0.930 . S
C1093 N1095 1.279 . S
C1093 C1096 1.358 . S
C1093 H1099 0.930 . S
C1094 C1092 1.353 . S
C1094 C1097 1.348 . S
C1094 H1132 0.929 . S
N1095 Li1050 1.990 . S
N1095 C1092 1.314 . S
N1095 C1093 1.279 . S
C1096 C1093 1.358 . S
C1096 C1097 1.356 . S
C1096 H1133 0.930 . S
C1097 C1094 1.348 . S
C1097 C1096 1.356 . S
H1098 C1092 0.930 . S
H1099 C1093 0.930 . S
C1100 N1101 1.314 . S
C1100 C1102 1.353 . S
C1100 H1106 0.930 . S
N1101 Li1051 1.990 . S
N1101 C1100 1.314 . S
N1101 C1104 1.279 . S
C1102 C1100 1.353 . S
C1102 C1105 1.348 . S
C1102 H1134 0.929 . S
C1103 C1104 1.358 . S
C1103 C1105 1.356 . S
C1103 H1135 0.930 . S
C1104 N1101 1.279 . S
C1104 C1103 1.358 . S
C1104 H1107 0.930 . S
C1105 C1102 1.348 . S
C1105 C1103 1.356 . S
H1106 C1100 0.930 . S
H1107 C1104 0.930 . S
O1108 Li1048 1.956 . S
O1108 Li1049 1.970 . S
O1108 Li1050 1.961 . S
O1108 C1052 1.325 . S
O1109 Li1048 1.970 . S
O1109 Li1049 1.956 . S
O1109 Li1051 1.961 . S
O1109 C1058 1.325 . S
O1110 Li1048 1.961 . S
O1110 Li1050 1.956 . S
O1110 Li1051 1.970 . S
O1110 C1080 1.325 . S
O1111 Li1049 1.961 . S
O1111 Li1050 1.970 . S
O1111 Li1051 1.956 . S
O1111 C1086 1.325 . S
H1112 C1054 0.929 . S
H1113 C1055 0.930 . S
H1114 C1056 0.930 . S
H1115 C1057 0.930 . S
H1116 C1059 0.930 . S
H1117 C1061 0.929 . S
H1118 C1062 0.930 . S
H1119 C1063 0.930 . S
H1120 C1066 0.930 . S
H1121 C1069 0.929 . S
H1122 C1074 0.929 . S
H1123 C1075 0.930 . S
H1124 C1082 0.929 . S
H1125 C1083 0.930 . S
H1126 C1084 0.930 . S
H1127 C1085 0.930 . S
H1128 C1087 0.929 . S
H1129 C1088 0.930 . S
H1130 C1089 0.930 . S
H1131 C1090 0.930 . S
H1132 C1094 0.929 . S
H1133 C1096 0.930 . S
H1134 C1102 0.929 . S
H1135 C1103 0.930 . S
Li1136 N1153 1.990 . S
Li1136 O1196 1.956 . S
Li1136 O1197 1.970 1_556 S
Li1136 O1198 1.961 . S
Li1137 N1161 1.990 . S
Li1137 O1196 1.970 1_554 S
Li1137 O1197 1.956 . S
Li1137 O1199 1.961 . S
Li1138 N1183 1.990 . S
Li1138 O1196 1.961 . S
Li1138 O1198 1.956 . S
Li1138 O1199 1.970 1_556 S
Li1139 N1189 1.990 . S
Li1139 O1197 1.961 . S
Li1139 O1198 1.970 1_554 S
Li1139 O1199 1.956 . S
C1140 C1142 1.348 1_556 S
C1140 C1143 1.356 . S
C1140 O1196 1.325 . S
N1141 C1144 1.314 1_556 S
N1141 C1145 1.279 . S
C1142 C1140 1.348 1_554 S
C1142 C1144 1.353 . S
C1142 H1200 0.929 . S
C1143 C1140 1.356 . S
C1143 C1145 1.358 . S
C1143 H1201 0.930 . S
C1144 N1141 1.314 1_554 S
C1144 C1142 1.353 . S
C1144 H1202 0.930 . S
C1145 N1141 1.279 . S
C1145 C1143 1.358 . S
C1145 H1203 0.930 . S
C1146 C1149 1.348 . S
C1146 C1150 1.356 . S
C1146 O1197 1.325 . S
C1147 N1148 1.279 . S
C1147 C1150 1.358 . S
C1147 H1204 0.930 . S
N1148 C1147 1.279 . S
N1148 C1151 1.314 . S
C1149 C1146 1.348 . S
C1149 C1151 1.353 . S
C1149 H1205 0.929 . S
C1150 C1146 1.356 . S
C1150 C1147 1.358 . S
C1150 H1206 0.930 . S
C1151 N1148 1.314 . S
C1151 C1149 1.353 . S
C1151 H1207 0.930 . S
C1152 N1153 1.314 . S
C1152 C1157 1.353 . S
C1152 H1158 0.930 . S
N1153 Li1136 1.990 . S
N1153 C1152 1.314 . S
N1153 C1155 1.279 . S
C1154 C1155 1.358 . S
C1154 C1156 1.356 . S
C1154 H1208 0.930 . S
C1155 N1153 1.279 . S
C1155 C1154 1.358 . S
C1155 H1159 0.930 . S
C1156 C1154 1.356 . S
C1156 C1157 1.348 . S
C1157 C1152 1.353 . S
C1157 C1156 1.348 . S
C1157 H1209 0.929 . S
H1158 C1152 0.930 . S
H1159 C1155 0.930 . S
C1160 N1161 1.314 . S
C1160 C1162 1.353 . S
C1160 H1166 0.930 . S
N1161 Li1137 1.990 . S
N1161 C1160 1.314 . S
N1161 C1164 1.279 . S
C1162 C1160 1.353 . S
C1162 C1165 1.348 . S
C1162 H1210 0.929 . S
C1163 C1164 1.358 . S
C1163 C1165 1.356 . S
C1163 H1211 0.930 . S
C1164 N1161 1.279 . S
C1164 C1163 1.358 . S
C1164 H1167 0.930 . S
C1165 C1162 1.348 . S
C1165 C1163 1.356 . S
H1166 C1160 0.930 . S
H1167 C1164 0.930 . S
C1168 C1170 1.348 . S
C1168 C1171 1.356 . S
C1168 O1198 1.325 . S
N1169 C1172 1.314 . S
N1169 C1173 1.279 . S
C1170 C1168 1.348 . S
C1170 C1172 1.353 . S
C1170 H1212 0.929 . S
C1171 C1168 1.356 . S
C1171 C1173 1.358 . S
C1171 H1213 0.930 . S
C1172 N1169 1.314 . S
C1172 C1170 1.353 . S
C1172 H1214 0.930 . S
C1173 N1169 1.279 . S
C1173 C1171 1.358 . S
C1173 H1215 0.930 . S
C1174 C1175 1.348 1_554 S
C1174 C1176 1.356 . S
C1174 O1199 1.325 . S
C1175 C1174 1.348 1_556 S
C1175 C1177 1.353 . S
C1175 H1216 0.929 . S
C1176 C1174 1.356 . S
C1176 C1178 1.358 . S
C1176 H1217 0.930 . S
C1177 C1175 1.353 . S
C1177 N1179 1.314 1_556 S
C1177 H1218 0.930 . S
C1178 C1176 1.358 . S
C1178 N1179 1.279 . S
C1178 H1219 0.930 . S
N1179 C1177 1.314 1_554 S
N1179 C1178 1.279 . S
C1180 C1182 1.353 . S
C1180 N1183 1.314 . S
C1180 H1186 0.930 . S
C1181 N1183 1.279 . S
C1181 C1184 1.358 . S
C1181 H1187 0.930 . S
C1182 C1180 1.353 . S
C1182 C1185 1.348 . S
C1182 H1220 0.929 . S
N1183 Li1138 1.990 . S
N1183 C1180 1.314 . S
N1183 C1181 1.279 . S
C1184 C1181 1.358 . S
C1184 C1185 1.356 . S
C1184 H1221 0.930 . S
C1185 C1182 1.348 . S
C1185 C1184 1.356 . S
H1186 C1180 0.930 . S
H1187 C1181 0.930 . S
C1188 N1189 1.314 . S
C1188 C1190 1.353 . S
C1188 H1194 0.930 . S
N1189 Li1139 1.990 . S
N1189 C1188 1.314 . S
N1189 C1192 1.279 . S
C1190 C1188 1.353 . S
C1190 C1193 1.348 . S
C1190 H1222 0.929 . S
C1191 C1192 1.358 . S
C1191 C1193 1.356 . S
C1191 H1223 0.930 . S
C1192 N1189 1.279 . S
C1192 C1191 1.358 . S
C1192 H1195 0.930 . S
C1193 C1190 1.348 . S
C1193 C1191 1.356 . S
H1194 C1188 0.930 . S
H1195 C1192 0.930 . S
O1196 Li1136 1.956 . S
O1196 Li1137 1.970 1_556 S
O1196 Li1138 1.961 . S
O1196 C1140 1.325 . S
O1197 Li1136 1.970 1_554 S
O1197 Li1137 1.956 . S
O1197 Li1139 1.961 . S
O1197 C1146 1.325 . S
O1198 Li1136 1.961 . S
O1198 Li1138 1.956 . S
O1198 Li1139 1.970 1_556 S
O1198 C1168 1.325 . S
O1199 Li1137 1.961 . S
O1199 Li1138 1.970 1_554 S
O1199 Li1139 1.956 . S
O1199 C1174 1.325 . S
H1200 C1142 0.929 . S
H1201 C1143 0.930 . S
H1202 C1144 0.930 . S
H1203 C1145 0.930 . S
H1204 C1147 0.930 . S
H1205 C1149 0.929 . S
H1206 C1150 0.930 . S
H1207 C1151 0.930 . S
H1208 C1154 0.930 . S
H1209 C1157 0.929 . S
H1210 C1162 0.929 . S
H1211 C1163 0.930 . S
H1212 C1170 0.929 . S
H1213 C1171 0.930 . S
H1214 C1172 0.930 . S
H1215 C1173 0.930 . S
H1216 C1175 0.929 . S
H1217 C1176 0.930 . S
H1218 C1177 0.930 . S
H1219 C1178 0.930 . S
H1220 C1182 0.929 . S
H1221 C1184 0.930 . S
H1222 C1190 0.929 . S
H1223 C1191 0.930 . S
Li1224 N1241 1.990 . S
Li1224 O1284 1.956 . S
Li1224 O1285 1.970 1_545 S
Li1224 O1286 1.961 . S
Li1225 N1249 1.990 . S
Li1225 O1284 1.970 1_565 S
Li1225 O1285 1.956 . S
Li1225 O1287 1.961 . S
Li1226 N1271 1.990 . S
Li1226 O1284 1.961 . S
Li1226 O1286 1.956 . S
Li1226 O1287 1.970 1_545 S
Li1227 N1277 1.990 . S
Li1227 O1285 1.961 . S
Li1227 O1286 1.970 1_565 S
Li1227 O1287 1.956 . S
C1228 C1230 1.348 . S
C1228 C1231 1.356 . S
C1228 O1284 1.325 . S
N1229 C1232 1.314 . S
N1229 C1233 1.279 . S
C1230 C1228 1.348 . S
C1230 C1232 1.353 . S
C1230 H1288 0.929 . S
C1231 C1228 1.356 . S
C1231 C1233 1.358 . S
C1231 H1289 0.930 . S
C1232 N1229 1.314 . S
C1232 C1230 1.353 . S
C1232 H1290 0.930 . S
C1233 N1229 1.279 . S
C1233 C1231 1.358 . S
C1233 H1291 0.930 . S
C1234 C1237 1.348 1_565 S
C1234 C1238 1.356 . S
C1234 O1285 1.325 . S
C1235 N1236 1.279 . S
C1235 C1238 1.358 . S
C1235 H1292 0.930 . S
N1236 C1235 1.279 . S
N1236 C1239 1.314 1_565 S
C1237 C1234 1.348 1_545 S
C1237 C1239 1.353 . S
C1237 H1293 0.929 . S
C1238 C1234 1.356 . S
C1238 C1235 1.358 . S
C1238 H1294 0.930 . S
C1239 N1236 1.314 1_545 S
C1239 C1237 1.353 . S
C1239 H1295 0.930 . S
C1240 N1241 1.314 . S
C1240 C1245 1.353 . S
C1240 H1246 0.930 . S
N1241 Li1224 1.990 . S
N1241 C1240 1.314 . S
N1241 C1243 1.279 . S
C1242 C1243 1.358 . S
C1242 C1244 1.356 . S
C1242 H1296 0.930 . S
C1243 N1241 1.279 . S
C1243 C1242 1.358 . S
C1243 H1247 0.930 . S
C1244 C1242 1.356 . S
C1244 C1245 1.348 . S
C1245 C1240 1.353 . S
C1245 C1244 1.348 . S
C1245 H1297 0.929 . S
H1246 C1240 0.930 . S
H1247 C1243 0.930 . S
C1248 N1249 1.314 . S
C1248 C1250 1.353 . S
C1248 H1254 0.930 . S
N1249 Li1225 1.990 . S
N1249 C1248 1.314 . S
N1249 C1252 1.279 . S
C1250 C1248 1.353 . S
C1250 C1253 1.348 . S
C1250 H1298 0.929 . S
C1251 C1252 1.358 . S
C1251 C1253 1.356 . S
C1251 H1299 0.930 . S
C1252 N1249 1.279 . S
C1252 C1251 1.358 . S
C1252 H1255 0.930 . S
C1253 C1250 1.348 . S
C1253 C1251 1.356 . S
H1254 C1248 0.930 . S
H1255 C1252 0.930 . S
C1256 C1258 1.348 1_545 S
C1256 C1259 1.356 . S
C1256 O1286 1.325 . S
N1257 C1260 1.314 1_545 S
N1257 C1261 1.279 . S
C1258 C1256 1.348 1_565 S
C1258 C1260 1.353 . S
C1258 H1300 0.929 . S
C1259 C1256 1.356 . S
C1259 C1261 1.358 . S
C1259 H1301 0.930 . S
C1260 N1257 1.314 1_565 S
C1260 C1258 1.353 . S
C1260 H1302 0.930 . S
C1261 N1257 1.279 . S
C1261 C1259 1.358 . S
C1261 H1303 0.930 . S
C1262 C1263 1.348 . S
C1262 C1264 1.356 . S
C1262 O1287 1.325 . S
C1263 C1262 1.348 . S
C1263 C1265 1.353 . S
C1263 H1304 0.929 . S
C1264 C1262 1.356 . S
C1264 C1266 1.358 . S
C1264 H1305 0.930 . S
C1265 C1263 1.353 . S
C1265 N1267 1.314 . S
C1265 H1306 0.930 . S
C1266 C1264 1.358 . S
C1266 N1267 1.279 . S
C1266 H1307 0.930 . S
N1267 C1265 1.314 . S
N1267 C1266 1.279 . S
C1268 C1270 1.353 . S
C1268 N1271 1.314 . S
C1268 H1274 0.930 . S
C1269 N1271 1.279 . S
C1269 C1272 1.358 . S
C1269 H1275 0.930 . S
C1270 C1268 1.353 . S
C1270 C1273 1.348 . S
C1270 H1308 0.929 . S
N1271 Li1226 1.990 . S
N1271 C1268 1.314 . S
N1271 C1269 1.279 . S
C1272 C1269 1.358 . S
C1272 C1273 1.356 . S
C1272 H1309 0.930 . S
C1273 C1270 1.348 . S
C1273 C1272 1.356 . S
H1274 C1268 0.930 . S
H1275 C1269 0.930 . S
C1276 N1277 1.314 . S
C1276 C1278 1.353 . S
C1276 H1282 0.930 . S
N1277 Li1227 1.990 . S
N1277 C1276 1.314 . S
N1277 C1280 1.279 . S
C1278 C1276 1.353 . S
C1278 C1281 1.348 . S
C1278 H1310 0.929 . S
C1279 C1280 1.358 . S
C1279 C1281 1.356 . S
C1279 H1311 0.930 . S
C1280 N1277 1.279 . S
C1280 C1279 1.358 . S
C1280 H1283 0.930 . S
C1281 C1278 1.348 . S
C1281 C1279 1.356 . S
H1282 C1276 0.930 . S
H1283 C1280 0.930 . S
O1284 Li1224 1.956 . S
O1284 Li1225 1.970 1_545 S
O1284 Li1226 1.961 . S
O1284 C1228 1.325 . S
O1285 Li1224 1.970 1_565 S
O1285 Li1225 1.956 . S
O1285 Li1227 1.961 . S
O1285 C1234 1.325 . S
O1286 Li1224 1.961 . S
O1286 Li1226 1.956 . S
O1286 Li1227 1.970 1_545 S
O1286 C1256 1.325 . S
O1287 Li1225 1.961 . S
O1287 Li1226 1.970 1_565 S
O1287 Li1227 1.956 . S
O1287 C1262 1.325 . S
H1288 C1230 0.929 . S
H1289 C1231 0.930 . S
H1290 C1232 0.930 . S
H1291 C1233 0.930 . S
H1292 C1235 0.930 . S
H1293 C1237 0.929 . S
H1294 C1238 0.930 . S
H1295 C1239 0.930 . S
H1296 C1242 0.930 . S
H1297 C1245 0.929 . S
H1298 C1250 0.929 . S
H1299 C1251 0.930 . S
H1300 C1258 0.929 . S
H1301 C1259 0.930 . S
H1302 C1260 0.930 . S
H1303 C1261 0.930 . S
H1304 C1263 0.929 . S
H1305 C1264 0.930 . S
H1306 C1265 0.930 . S
H1307 C1266 0.930 . S
H1308 C1270 0.929 . S
H1309 C1272 0.930 . S
H1310 C1278 0.929 . S
H1311 C1279 0.930 . S
Li1312 N1329 1.990 . S
Li1312 O1372 1.956 . S
Li1312 O1373 1.970 . S
Li1312 O1374 1.961 . S
Li1313 N1337 1.990 . S
Li1313 O1372 1.970 . S
Li1313 O1373 1.956 . S
Li1313 O1375 1.961 . S
Li1314 N1359 1.990 . S
Li1314 O1372 1.961 . S
Li1314 O1374 1.956 . S
Li1314 O1375 1.970 . S
Li1315 N1365 1.990 . S
Li1315 O1373 1.961 . S
Li1315 O1374 1.970 . S
Li1315 O1375 1.956 . S
C1316 C1318 1.348 . S
C1316 C1319 1.356 . S
C1316 O1372 1.325 . S
N1317 C1320 1.314 . S
N1317 C1321 1.279 . S
C1318 C1316 1.348 . S
C1318 C1320 1.353 . S
C1318 H1376 0.929 . S
C1319 C1316 1.356 . S
C1319 C1321 1.358 . S
C1319 H1377 0.930 . S
C1320 N1317 1.314 . S
C1320 C1318 1.353 . S
C1320 H1378 0.930 . S
C1321 N1317 1.279 . S
C1321 C1319 1.358 . S
C1321 H1379 0.930 . S
C1322 C1325 1.348 . S
C1322 C1326 1.356 . S
C1322 O1373 1.325 . S
C1323 N1324 1.279 . S
C1323 C1326 1.358 . S
C1323 H1380 0.930 . S
N1324 C1323 1.279 . S
N1324 C1327 1.314 . S
C1325 C1322 1.348 . S
C1325 C1327 1.353 . S
C1325 H1381 0.929 . S
C1326 C1322 1.356 . S
C1326 C1323 1.358 . S
C1326 H1382 0.930 . S
C1327 N1324 1.314 . S
C1327 C1325 1.353 . S
C1327 H1383 0.930 . S
C1328 N1329 1.314 . S
C1328 C1333 1.353 . S
C1328 H1334 0.930 . S
N1329 Li1312 1.990 . S
N1329 C1328 1.314 . S
N1329 C1331 1.279 . S
C1330 C1331 1.358 . S
C1330 C1332 1.356 . S
C1330 H1384 0.930 . S
C1331 N1329 1.279 . S
C1331 C1330 1.358 . S
C1331 H1335 0.930 . S
C1332 C1330 1.356 . S
C1332 C1333 1.348 . S
C1333 C1328 1.353 . S
C1333 C1332 1.348 . S
C1333 H1385 0.929 . S
H1334 C1328 0.930 . S
H1335 C1331 0.930 . S
C1336 N1337 1.314 . S
C1336 C1338 1.353 . S
C1336 H1342 0.930 . S
N1337 Li1313 1.990 . S
N1337 C1336 1.314 . S
N1337 C1340 1.279 . S
C1338 C1336 1.353 . S
C1338 C1341 1.348 . S
C1338 H1386 0.929 . S
C1339 C1340 1.358 . S
C1339 C1341 1.356 . S
C1339 H1387 0.930 . S
C1340 N1337 1.279 . S
C1340 C1339 1.358 . S
C1340 H1343 0.930 . S
C1341 C1338 1.348 . S
C1341 C1339 1.356 . S
H1342 C1336 0.930 . S
H1343 C1340 0.930 . S
C1344 C1346 1.348 . S
C1344 C1347 1.356 . S
C1344 O1374 1.325 . S
N1345 C1348 1.314 . S
N1345 C1349 1.279 . S
C1346 C1344 1.348 . S
C1346 C1348 1.353 . S
C1346 H1388 0.929 . S
C1347 C1344 1.356 . S
C1347 C1349 1.358 . S
C1347 H1389 0.930 . S
C1348 N1345 1.314 . S
C1348 C1346 1.353 . S
C1348 H1390 0.930 . S
C1349 N1345 1.279 . S
C1349 C1347 1.358 . S
C1349 H1391 0.930 . S
C1350 C1351 1.348 . S
C1350 C1352 1.356 . S
C1350 O1375 1.325 . S
C1351 C1350 1.348 . S
C1351 C1353 1.353 . S
C1351 H1392 0.929 . S
C1352 C1350 1.356 . S
C1352 C1354 1.358 . S
C1352 H1393 0.930 . S
C1353 C1351 1.353 . S
C1353 N1355 1.314 . S
C1353 H1394 0.930 . S
C1354 C1352 1.358 . S
C1354 N1355 1.279 . S
C1354 H1395 0.930 . S
N1355 C1353 1.314 . S
N1355 C1354 1.279 . S
C1356 C1358 1.353 . S
C1356 N1359 1.314 . S
C1356 H1362 0.930 . S
C1357 N1359 1.279 . S
C1357 C1360 1.358 . S
C1357 H1363 0.930 . S
C1358 C1356 1.353 . S
C1358 C1361 1.348 . S
C1358 H1396 0.929 . S
N1359 Li1314 1.990 . S
N1359 C1356 1.314 . S
N1359 C1357 1.279 . S
C1360 C1357 1.358 . S
C1360 C1361 1.356 . S
C1360 H1397 0.930 . S
C1361 C1358 1.348 . S
C1361 C1360 1.356 . S
H1362 C1356 0.930 . S
H1363 C1357 0.930 . S
C1364 N1365 1.314 . S
C1364 C1366 1.353 . S
C1364 H1370 0.930 . S
N1365 Li1315 1.990 . S
N1365 C1364 1.314 . S
N1365 C1368 1.279 . S
C1366 C1364 1.353 . S
C1366 C1369 1.348 . S
C1366 H1398 0.929 . S
C1367 C1368 1.358 . S
C1367 C1369 1.356 . S
C1367 H1399 0.930 . S
C1368 N1365 1.279 . S
C1368 C1367 1.358 . S
C1368 H1371 0.930 . S
C1369 C1366 1.348 . S
C1369 C1367 1.356 . S
H1370 C1364 0.930 . S
H1371 C1368 0.930 . S
O1372 Li1312 1.956 . S
O1372 Li1313 1.970 . S
O1372 Li1314 1.961 . S
O1372 C1316 1.325 . S
O1373 Li1312 1.970 . S
O1373 Li1313 1.956 . S
O1373 Li1315 1.961 . S
O1373 C1322 1.325 . S
O1374 Li1312 1.961 . S
O1374 Li1314 1.956 . S
O1374 Li1315 1.970 . S
O1374 C1344 1.325 . S
O1375 Li1313 1.961 . S
O1375 Li1314 1.970 . S
O1375 Li1315 1.956 . S
O1375 C1350 1.325 . S
H1376 C1318 0.929 . S
H1377 C1319 0.930 . S
H1378 C1320 0.930 . S
H1379 C1321 0.930 . S
H1380 C1323 0.930 . S
H1381 C1325 0.929 . S
H1382 C1326 0.930 . S
H1383 C1327 0.930 . S
H1384 C1330 0.930 . S
H1385 C1333 0.929 . S
H1386 C1338 0.929 . S
H1387 C1339 0.930 . S
H1388 C1346 0.929 . S
H1389 C1347 0.930 . S
H1390 C1348 0.930 . S
H1391 C1349 0.930 . S
H1392 C1351 0.929 . S
H1393 C1352 0.930 . S
H1394 C1353 0.930 . S
H1395 C1354 0.930 . S
H1396 C1358 0.929 . S
H1397 C1360 0.930 . S
H1398 C1366 0.929 . S
H1399 C1367 0.930 . S
Li1400 N1417 1.990 . S
Li1400 O1460 1.956 . S
Li1400 O1461 1.970 . S
Li1400 O1462 1.961 . S
Li1401 N1425 1.990 . S
Li1401 O1460 1.970 . S
Li1401 O1461 1.956 . S
Li1401 O1463 1.961 . S
Li1402 N1447 1.990 . S
Li1402 O1460 1.961 . S
Li1402 O1462 1.956 . S
Li1402 O1463 1.970 . S
Li1403 N1453 1.990 . S
Li1403 O1461 1.961 . S
Li1403 O1462 1.970 . S
Li1403 O1463 1.956 . S
C1404 C1406 1.348 . S
C1404 C1407 1.356 . S
C1404 O1460 1.325 . S
N1405 C1408 1.314 . S
N1405 C1409 1.279 . S
C1406 C1404 1.348 . S
C1406 C1408 1.353 . S
C1406 H1464 0.929 . S
C1407 C1404 1.356 . S
C1407 C1409 1.358 . S
C1407 H1465 0.930 . S
C1408 N1405 1.314 . S
C1408 C1406 1.353 . S
C1408 H1466 0.930 . S
C1409 N1405 1.279 . S
C1409 C1407 1.358 . S
C1409 H1467 0.930 . S
C1410 C1413 1.348 . S
C1410 C1414 1.356 . S
C1410 O1461 1.325 . S
C1411 N1412 1.279 . S
C1411 C1414 1.358 . S
C1411 H1468 0.930 . S
N1412 C1411 1.279 . S
N1412 C1415 1.314 . S
C1413 C1410 1.348 . S
C1413 C1415 1.353 . S
C1413 H1469 0.929 . S
C1414 C1410 1.356 . S
C1414 C1411 1.358 . S
C1414 H1470 0.930 . S
C1415 N1412 1.314 . S
C1415 C1413 1.353 . S
C1415 H1471 0.930 . S
C1416 N1417 1.314 . S
C1416 C1421 1.353 . S
C1416 H1422 0.930 . S
N1417 Li1400 1.990 . S
N1417 C1416 1.314 . S
N1417 C1419 1.279 . S
C1418 C1419 1.358 . S
C1418 C1420 1.356 . S
C1418 H1472 0.930 . S
C1419 N1417 1.279 . S
C1419 C1418 1.358 . S
C1419 H1423 0.930 . S
C1420 C1418 1.356 . S
C1420 C1421 1.348 . S
C1421 C1416 1.353 . S
C1421 C1420 1.348 . S
C1421 H1473 0.929 . S
H1422 C1416 0.930 . S
H1423 C1419 0.930 . S
C1424 N1425 1.314 . S
C1424 C1426 1.353 . S
C1424 H1430 0.930 . S
N1425 Li1401 1.990 . S
N1425 C1424 1.314 . S
N1425 C1428 1.279 . S
C1426 C1424 1.353 . S
C1426 C1429 1.348 . S
C1426 H1474 0.929 . S
C1427 C1428 1.358 . S
C1427 C1429 1.356 . S
C1427 H1475 0.930 . S
C1428 N1425 1.279 . S
C1428 C1427 1.358 . S
C1428 H1431 0.930 . S
C1429 C1426 1.348 . S
C1429 C1427 1.356 . S
H1430 C1424 0.930 . S
H1431 C1428 0.930 . S
C1432 C1434 1.348 . S
C1432 C1435 1.356 . S
C1432 O1462 1.325 . S
N1433 C1436 1.314 . S
N1433 C1437 1.279 . S
C1434 C1432 1.348 . S
C1434 C1436 1.353 . S
C1434 H1476 0.929 . S
C1435 C1432 1.356 . S
C1435 C1437 1.358 . S
C1435 H1477 0.930 . S
C1436 N1433 1.314 . S
C1436 C1434 1.353 . S
C1436 H1478 0.930 . S
C1437 N1433 1.279 . S
C1437 C1435 1.358 . S
C1437 H1479 0.930 . S
C1438 C1439 1.348 . S
C1438 C1440 1.356 . S
C1438 O1463 1.325 . S
C1439 C1438 1.348 . S
C1439 C1441 1.353 . S
C1439 H1480 0.929 . S
C1440 C1438 1.356 . S
C1440 C1442 1.358 . S
C1440 H1481 0.930 . S
C1441 C1439 1.353 . S
C1441 N1443 1.314 . S
C1441 H1482 0.930 . S
C1442 C1440 1.358 . S
C1442 N1443 1.279 . S
C1442 H1483 0.930 . S
N1443 C1441 1.314 . S
N1443 C1442 1.279 . S
C1444 C1446 1.353 . S
C1444 N1447 1.314 . S
C1444 H1450 0.930 . S
C1445 N1447 1.279 . S
C1445 C1448 1.358 . S
C1445 H1451 0.930 . S
C1446 C1444 1.353 . S
C1446 C1449 1.348 . S
C1446 H1484 0.929 . S
N1447 Li1402 1.990 . S
N1447 C1444 1.314 . S
N1447 C1445 1.279 . S
C1448 C1445 1.358 . S
C1448 C1449 1.356 . S
C1448 H1485 0.930 . S
C1449 C1446 1.348 . S
C1449 C1448 1.356 . S
H1450 C1444 0.930 . S
H1451 C1445 0.930 . S
C1452 N1453 1.314 . S
C1452 C1454 1.353 . S
C1452 H1458 0.930 . S
N1453 Li1403 1.990 . S
N1453 C1452 1.314 . S
N1453 C1456 1.279 . S
C1454 C1452 1.353 . S
C1454 C1457 1.348 . S
C1454 H1486 0.929 . S
C1455 C1456 1.358 . S
C1455 C1457 1.356 . S
C1455 H1487 0.930 . S
C1456 N1453 1.279 . S
C1456 C1455 1.358 . S
C1456 H1459 0.930 . S
C1457 C1454 1.348 . S
C1457 C1455 1.356 . S
H1458 C1452 0.930 . S
H1459 C1456 0.930 . S
O1460 Li1400 1.956 . S
O1460 Li1401 1.970 . S
O1460 Li1402 1.961 . S
O1460 C1404 1.325 . S
O1461 Li1400 1.970 . S
O1461 Li1401 1.956 . S
O1461 Li1403 1.961 . S
O1461 C1410 1.325 . S
O1462 Li1400 1.961 . S
O1462 Li1402 1.956 . S
O1462 Li1403 1.970 . S
O1462 C1432 1.325 . S
O1463 Li1401 1.961 . S
O1463 Li1402 1.970 . S
O1463 Li1403 1.956 . S
O1463 C1438 1.325 . S
H1464 C1406 0.929 . S
H1465 C1407 0.930 . S
H1466 C1408 0.930 . S
H1467 C1409 0.930 . S
H1468 C1411 0.930 . S
H1469 C1413 0.929 . S
H1470 C1414 0.930 . S
H1471 C1415 0.930 . S
H1472 C1418 0.930 . S
H1473 C1421 0.929 . S
H1474 C1426 0.929 . S
H1475 C1427 0.930 . S
H1476 C1434 0.929 . S
H1477 C1435 0.930 . S
H1478 C1436 0.930 . S
H1479 C1437 0.930 . S
H1480 C1439 0.929 . S
H1481 C1440 0.930 . S
H1482 C1441 0.930 . S
H1483 C1442 0.930 . S
H1484 C1446 0.929 . S
H1485 C1448 0.930 . S
H1486 C1454 0.929 . S
H1487 C1455 0.930 . S
Li1488 N1505 1.990 . S
Li1488 O1548 1.956 . S
Li1488 O1549 1.970 . S
Li1488 O1550 1.961 . S
Li1489 N1513 1.990 . S
Li1489 O1548 1.970 . S
Li1489 O1549 1.956 . S
Li1489 O1551 1.961 . S
Li1490 N1535 1.990 . S
Li1490 O1548 1.961 . S
Li1490 O1550 1.956 . S
Li1490 O1551 1.970 . S
Li1491 N1541 1.990 . S
Li1491 O1549 1.961 . S
Li1491 O1550 1.970 . S
Li1491 O1551 1.956 . S
C1492 C1494 1.348 . S
C1492 C1495 1.356 . S
C1492 O1548 1.325 . S
N1493 C1496 1.314 . S
N1493 C1497 1.279 . S
C1494 C1492 1.348 . S
C1494 C1496 1.353 . S
C1494 H1552 0.929 . S
C1495 C1492 1.356 . S
C1495 C1497 1.358 . S
C1495 H1553 0.930 . S
C1496 N1493 1.314 . S
C1496 C1494 1.353 . S
C1496 H1554 0.930 . S
C1497 N1493 1.279 . S
C1497 C1495 1.358 . S
C1497 H1555 0.930 . S
C1498 C1501 1.348 . S
C1498 C1502 1.356 . S
C1498 O1549 1.325 . S
C1499 N1500 1.279 . S
C1499 C1502 1.358 . S
C1499 H1556 0.930 . S
N1500 C1499 1.279 . S
N1500 C1503 1.314 . S
C1501 C1498 1.348 . S
C1501 C1503 1.353 . S
C1501 H1557 0.929 . S
C1502 C1498 1.356 . S
C1502 C1499 1.358 . S
C1502 H1558 0.930 . S
C1503 N1500 1.314 . S
C1503 C1501 1.353 . S
C1503 H1559 0.930 . S
C1504 N1505 1.314 . S
C1504 C1509 1.353 . S
C1504 H1510 0.930 . S
N1505 Li1488 1.990 . S
N1505 C1504 1.314 . S
N1505 C1507 1.279 . S
C1506 C1507 1.358 . S
C1506 C1508 1.356 . S
C1506 H1560 0.930 . S
C1507 N1505 1.279 . S
C1507 C1506 1.358 . S
C1507 H1511 0.930 . S
C1508 C1506 1.356 . S
C1508 C1509 1.348 . S
C1509 C1504 1.353 . S
C1509 C1508 1.348 . S
C1509 H1561 0.929 . S
H1510 C1504 0.930 . S
H1511 C1507 0.930 . S
C1512 N1513 1.314 . S
C1512 C1514 1.353 . S
C1512 H1518 0.930 . S
N1513 Li1489 1.990 . S
N1513 C1512 1.314 . S
N1513 C1516 1.279 . S
C1514 C1512 1.353 . S
C1514 C1517 1.348 . S
C1514 H1562 0.929 . S
C1515 C1516 1.358 . S
C1515 C1517 1.356 . S
C1515 H1563 0.930 . S
C1516 N1513 1.279 . S
C1516 C1515 1.358 . S
C1516 H1519 0.930 . S
C1517 C1514 1.348 . S
C1517 C1515 1.356 . S
H1518 C1512 0.930 . S
H1519 C1516 0.930 . S
C1520 C1522 1.348 . S
C1520 C1523 1.356 . S
C1520 O1550 1.325 . S
N1521 C1524 1.314 . S
N1521 C1525 1.279 . S
C1522 C1520 1.348 . S
C1522 C1524 1.353 . S
C1522 H1564 0.929 . S
C1523 C1520 1.356 . S
C1523 C1525 1.358 . S
C1523 H1565 0.930 . S
C1524 N1521 1.314 . S
C1524 C1522 1.353 . S
C1524 H1566 0.930 . S
C1525 N1521 1.279 . S
C1525 C1523 1.358 . S
C1525 H1567 0.930 . S
C1526 C1527 1.348 . S
C1526 C1528 1.356 . S
C1526 O1551 1.325 . S
C1527 C1526 1.348 . S
C1527 C1529 1.353 . S
C1527 H1568 0.929 . S
C1528 C1526 1.356 . S
C1528 C1530 1.358 . S
C1528 H1569 0.930 . S
C1529 C1527 1.353 . S
C1529 N1531 1.314 . S
C1529 H1570 0.930 . S
C1530 C1528 1.358 . S
C1530 N1531 1.279 . S
C1530 H1571 0.930 . S
N1531 C1529 1.314 . S
N1531 C1530 1.279 . S
C1532 C1534 1.353 . S
C1532 N1535 1.314 . S
C1532 H1538 0.930 . S
C1533 N1535 1.279 . S
C1533 C1536 1.358 . S
C1533 H1539 0.930 . S
C1534 C1532 1.353 . S
C1534 C1537 1.348 . S
C1534 H1572 0.929 . S
N1535 Li1490 1.990 . S
N1535 C1532 1.314 . S
N1535 C1533 1.279 . S
C1536 C1533 1.358 . S
C1536 C1537 1.356 . S
C1536 H1573 0.930 . S
C1537 C1534 1.348 . S
C1537 C1536 1.356 . S
H1538 C1532 0.930 . S
H1539 C1533 0.930 . S
C1540 N1541 1.314 . S
C1540 C1542 1.353 . S
C1540 H1546 0.930 . S
N1541 Li1491 1.990 . S
N1541 C1540 1.314 . S
N1541 C1544 1.279 . S
C1542 C1540 1.353 . S
C1542 C1545 1.348 . S
C1542 H1574 0.929 . S
C1543 C1544 1.358 . S
C1543 C1545 1.356 . S
C1543 H1575 0.930 . S
C1544 N1541 1.279 . S
C1544 C1543 1.358 . S
C1544 H1547 0.930 . S
C1545 C1542 1.348 . S
C1545 C1543 1.356 . S
H1546 C1540 0.930 . S
H1547 C1544 0.930 . S
O1548 Li1488 1.956 . S
O1548 Li1489 1.970 . S
O1548 Li1490 1.961 . S
O1548 C1492 1.325 . S
O1549 Li1488 1.970 . S
O1549 Li1489 1.956 . S
O1549 Li1491 1.961 . S
O1549 C1498 1.325 . S
O1550 Li1488 1.961 . S
O1550 Li1490 1.956 . S
O1550 Li1491 1.970 . S
O1550 C1520 1.325 . S
O1551 Li1489 1.961 . S
O1551 Li1490 1.970 . S
O1551 Li1491 1.956 . S
O1551 C1526 1.325 . S
H1552 C1494 0.929 . S
H1553 C1495 0.930 . S
H1554 C1496 0.930 . S
H1555 C1497 0.930 . S
H1556 C1499 0.930 . S
H1557 C1501 0.929 . S
H1558 C1502 0.930 . S
H1559 C1503 0.930 . S
H1560 C1506 0.930 . S
H1561 C1509 0.929 . S
H1562 C1514 0.929 . S
H1563 C1515 0.930 . S
H1564 C1522 0.929 . S
H1565 C1523 0.930 . S
H1566 C1524 0.930 . S
H1567 C1525 0.930 . S
H1568 C1527 0.929 . S
H1569 C1528 0.930 . S
H1570 C1529 0.930 . S
H1571 C1530 0.930 . S
H1572 C1534 0.929 . S
H1573 C1536 0.930 . S
H1574 C1542 0.929 . S
H1575 C1543 0.930 . S
Li1576 N1593 1.990 . S
Li1576 O1636 1.956 . S
Li1576 O1637 1.970 1_565 S
Li1576 O1638 1.961 . S
Li1577 N1601 1.990 . S
Li1577 O1636 1.970 1_545 S
Li1577 O1637 1.956 . S
Li1577 O1639 1.961 . S
Li1578 N1623 1.990 . S
Li1578 O1636 1.961 . S
Li1578 O1638 1.956 . S
Li1578 O1639 1.970 1_565 S
Li1579 N1629 1.990 . S
Li1579 O1637 1.961 . S
Li1579 O1638 1.970 1_545 S
Li1579 O1639 1.956 . S
C1580 C1582 1.348 . S
C1580 C1583 1.356 . S
C1580 O1636 1.325 . S
N1581 C1584 1.314 . S
N1581 C1585 1.279 . S
C1582 C1580 1.348 . S
C1582 C1584 1.353 . S
C1582 H1640 0.929 . S
C1583 C1580 1.356 . S
C1583 C1585 1.358 . S
C1583 H1641 0.930 . S
C1584 N1581 1.314 . S
C1584 C1582 1.353 . S
C1584 H1642 0.930 . S
C1585 N1581 1.279 . S
C1585 C1583 1.358 . S
C1585 H1643 0.930 . S
C1586 C1589 1.348 1_545 S
C1586 C1590 1.356 . S
C1586 O1637 1.325 . S
C1587 N1588 1.279 . S
C1587 C1590 1.358 . S
C1587 H1644 0.930 . S
N1588 C1587 1.279 . S
N1588 C1591 1.314 1_545 S
C1589 C1586 1.348 1_565 S
C1589 C1591 1.353 . S
C1589 H1645 0.929 . S
C1590 C1586 1.356 . S
C1590 C1587 1.358 . S
C1590 H1646 0.930 . S
C1591 N1588 1.314 1_565 S
C1591 C1589 1.353 . S
C1591 H1647 0.930 . S
C1592 N1593 1.314 . S
C1592 C1597 1.353 . S
C1592 H1598 0.930 . S
N1593 Li1576 1.990 . S
N1593 C1592 1.314 . S
N1593 C1595 1.279 . S
C1594 C1595 1.358 . S
C1594 C1596 1.356 . S
C1594 H1648 0.930 . S
C1595 N1593 1.279 . S
C1595 C1594 1.358 . S
C1595 H1599 0.930 . S
C1596 C1594 1.356 . S
C1596 C1597 1.348 . S
C1597 C1592 1.353 . S
C1597 C1596 1.348 . S
C1597 H1649 0.929 . S
H1598 C1592 0.930 . S
H1599 C1595 0.930 . S
C1600 N1601 1.314 . S
C1600 C1602 1.353 . S
C1600 H1606 0.930 . S
N1601 Li1577 1.990 . S
N1601 C1600 1.314 . S
N1601 C1604 1.279 . S
C1602 C1600 1.353 . S
C1602 C1605 1.348 . S
C1602 H1650 0.929 . S
C1603 C1604 1.358 . S
C1603 C1605 1.356 . S
C1603 H1651 0.930 . S
C1604 N1601 1.279 . S
C1604 C1603 1.358 . S
C1604 H1607 0.930 . S
C1605 C1602 1.348 . S
C1605 C1603 1.356 . S
H1606 C1600 0.930 . S
H1607 C1604 0.930 . S
C1608 C1610 1.348 1_565 S
C1608 C1611 1.356 . S
C1608 O1638 1.325 . S
N1609 C1612 1.314 1_565 S
N1609 C1613 1.279 . S
C1610 C1608 1.348 1_545 S
C1610 C1612 1.353 . S
C1610 H1652 0.929 . S
C1611 C1608 1.356 . S
C1611 C1613 1.358 . S
C1611 H1653 0.930 . S
C1612 N1609 1.314 1_545 S
C1612 C1610 1.353 . S
C1612 H1654 0.930 . S
C1613 N1609 1.279 . S
C1613 C1611 1.358 . S
C1613 H1655 0.930 . S
C1614 C1615 1.348 . S
C1614 C1616 1.356 . S
C1614 O1639 1.325 . S
C1615 C1614 1.348 . S
C1615 C1617 1.353 . S
C1615 H1656 0.929 . S
C1616 C1614 1.356 . S
C1616 C1618 1.358 . S
C1616 H1657 0.930 . S
C1617 C1615 1.353 . S
C1617 N1619 1.314 . S
C1617 H1658 0.930 . S
C1618 C1616 1.358 . S
C1618 N1619 1.279 . S
C1618 H1659 0.930 . S
N1619 C1617 1.314 . S
N1619 C1618 1.279 . S
C1620 C1622 1.353 . S
C1620 N1623 1.314 . S
C1620 H1626 0.930 . S
C1621 N1623 1.279 . S
C1621 C1624 1.358 . S
C1621 H1627 0.930 . S
C1622 C1620 1.353 . S
C1622 C1625 1.348 . S
C1622 H1660 0.929 . S
N1623 Li1578 1.990 . S
N1623 C1620 1.314 . S
N1623 C1621 1.279 . S
C1624 C1621 1.358 . S
C1624 C1625 1.356 . S
C1624 H1661 0.930 . S
C1625 C1622 1.348 . S
C1625 C1624 1.356 . S
H1626 C1620 0.930 . S
H1627 C1621 0.930 . S
C1628 N1629 1.314 . S
C1628 C1630 1.353 . S
C1628 H1634 0.930 . S
N1629 Li1579 1.990 . S
N1629 C1628 1.314 . S
N1629 C1632 1.279 . S
C1630 C1628 1.353 . S
C1630 C1633 1.348 . S
C1630 H1662 0.929 . S
C1631 C1632 1.358 . S
C1631 C1633 1.356 . S
C1631 H1663 0.930 . S
C1632 N1629 1.279 . S
C1632 C1631 1.358 . S
C1632 H1635 0.930 . S
C1633 C1630 1.348 . S
C1633 C1631 1.356 . S
H1634 C1628 0.930 . S
H1635 C1632 0.930 . S
O1636 Li1576 1.956 . S
O1636 Li1577 1.970 1_565 S
O1636 Li1578 1.961 . S
O1636 C1580 1.325 . S
O1637 Li1576 1.970 1_545 S
O1637 Li1577 1.956 . S
O1637 Li1579 1.961 . S
O1637 C1586 1.325 . S
O1638 Li1576 1.961 . S
O1638 Li1578 1.956 . S
O1638 Li1579 1.970 1_565 S
O1638 C1608 1.325 . S
O1639 Li1577 1.961 . S
O1639 Li1578 1.970 1_545 S
O1639 Li1579 1.956 . S
O1639 C1614 1.325 . S
H1640 C1582 0.929 . S
H1641 C1583 0.930 . S
H1642 C1584 0.930 . S
H1643 C1585 0.930 . S
H1644 C1587 0.930 . S
H1645 C1589 0.929 . S
H1646 C1590 0.930 . S
H1647 C1591 0.930 . S
H1648 C1594 0.930 . S
H1649 C1597 0.929 . S
H1650 C1602 0.929 . S
H1651 C1603 0.930 . S
H1652 C1610 0.929 . S
H1653 C1611 0.930 . S
H1654 C1612 0.930 . S
H1655 C1613 0.930 . S
H1656 C1615 0.929 . S
H1657 C1616 0.930 . S
H1658 C1617 0.930 . S
H1659 C1618 0.930 . S
H1660 C1622 0.929 . S
H1661 C1624 0.930 . S
H1662 C1630 0.929 . S
H1663 C1631 0.930 . S
Li1664 N1681 1.990 . S
Li1664 O1724 1.956 . S
Li1664 O1725 1.970 1_455 S
Li1664 O1726 1.961 . S
Li1665 N1689 1.990 . S
Li1665 O1724 1.970 1_655 S
Li1665 O1725 1.956 . S
Li1665 O1727 1.961 . S
Li1666 N1711 1.990 . S
Li1666 O1724 1.961 . S
Li1666 O1726 1.956 . S
Li1666 O1727 1.970 1_455 S
Li1667 N1717 1.990 . S
Li1667 O1725 1.961 . S
Li1667 O1726 1.970 1_655 S
Li1667 O1727 1.956 . S
C1668 C1670 1.348 . S
C1668 C1671 1.356 . S
C1668 O1724 1.325 . S
N1669 C1672 1.314 . S
N1669 C1673 1.279 . S
C1670 C1668 1.348 . S
C1670 C1672 1.353 . S
C1670 H1728 0.929 . S
C1671 C1668 1.356 . S
C1671 C1673 1.358 . S
C1671 H1729 0.930 . S
C1672 N1669 1.314 . S
C1672 C1670 1.353 . S
C1672 H1730 0.930 . S
C1673 N1669 1.279 . S
C1673 C1671 1.358 . S
C1673 H1731 0.930 . S
C1674 C1677 1.348 1_655 S
C1674 C1678 1.356 . S
C1674 O1725 1.325 . S
C1675 N1676 1.279 . S
C1675 C1678 1.358 . S
C1675 H1732 0.930 . S
N1676 C1675 1.279 . S
N1676 C1679 1.314 1_655 S
C1677 C1674 1.348 1_455 S
C1677 C1679 1.353 . S
C1677 H1733 0.929 . S
C1678 C1674 1.356 . S
C1678 C1675 1.358 . S
C1678 H1734 0.930 . S
C1679 N1676 1.314 1_455 S
C1679 C1677 1.353 . S
C1679 H1735 0.930 . S
C1680 N1681 1.314 . S
C1680 C1685 1.353 . S
C1680 H1686 0.930 . S
N1681 Li1664 1.990 . S
N1681 C1680 1.314 . S
N1681 C1683 1.279 . S
C1682 C1683 1.358 . S
C1682 C1684 1.356 . S
C1682 H1736 0.930 . S
C1683 N1681 1.279 . S
C1683 C1682 1.358 . S
C1683 H1687 0.930 . S
C1684 C1682 1.356 . S
C1684 C1685 1.348 . S
C1685 C1680 1.353 . S
C1685 C1684 1.348 . S
C1685 H1737 0.929 . S
H1686 C1680 0.930 . S
H1687 C1683 0.930 . S
C1688 N1689 1.314 . S
C1688 C1690 1.353 . S
C1688 H1694 0.930 . S
N1689 Li1665 1.990 . S
N1689 C1688 1.314 . S
N1689 C1692 1.279 . S
C1690 C1688 1.353 . S
C1690 C1693 1.348 . S
C1690 H1738 0.929 . S
C1691 C1692 1.358 . S
C1691 C1693 1.356 . S
C1691 H1739 0.930 . S
C1692 N1689 1.279 . S
C1692 C1691 1.358 . S
C1692 H1695 0.930 . S
C1693 C1690 1.348 . S
C1693 C1691 1.356 . S
H1694 C1688 0.930 . S
H1695 C1692 0.930 . S
C1696 C1698 1.348 1_455 S
C1696 C1699 1.356 . S
C1696 O1726 1.325 . S
N1697 C1700 1.314 1_455 S
N1697 C1701 1.279 . S
C1698 C1696 1.348 1_655 S
C1698 C1700 1.353 . S
C1698 H1740 0.929 . S
C1699 C1696 1.356 . S
C1699 C1701 1.358 . S
C1699 H1741 0.930 . S
C1700 N1697 1.314 1_655 S
C1700 C1698 1.353 . S
C1700 H1742 0.930 . S
C1701 N1697 1.279 . S
C1701 C1699 1.358 . S
C1701 H1743 0.930 . S
C1702 C1703 1.348 . S
C1702 C1704 1.356 . S
C1702 O1727 1.325 . S
C1703 C1702 1.348 . S
C1703 C1705 1.353 . S
C1703 H1744 0.929 . S
C1704 C1702 1.356 . S
C1704 C1706 1.358 . S
C1704 H1745 0.930 . S
C1705 C1703 1.353 . S
C1705 N1707 1.314 . S
C1705 H1746 0.930 . S
C1706 C1704 1.358 . S
C1706 N1707 1.279 . S
C1706 H1747 0.930 . S
N1707 C1705 1.314 . S
N1707 C1706 1.279 . S
C1708 C1710 1.353 . S
C1708 N1711 1.314 . S
C1708 H1714 0.930 . S
C1709 N1711 1.279 . S
C1709 C1712 1.358 . S
C1709 H1715 0.930 . S
C1710 C1708 1.353 . S
C1710 C1713 1.348 . S
C1710 H1748 0.929 . S
N1711 Li1666 1.990 . S
N1711 C1708 1.314 . S
N1711 C1709 1.279 . S
C1712 C1709 1.358 . S
C1712 C1713 1.356 . S
C1712 H1749 0.930 . S
C1713 C1710 1.348 . S
C1713 C1712 1.356 . S
H1714 C1708 0.930 . S
H1715 C1709 0.930 . S
C1716 N1717 1.314 . S
C1716 C1718 1.353 . S
C1716 H1722 0.930 . S
N1717 Li1667 1.990 . S
N1717 C1716 1.314 . S
N1717 C1720 1.279 . S
C1718 C1716 1.353 . S
C1718 C1721 1.348 . S
C1718 H1750 0.929 . S
C1719 C1720 1.358 . S
C1719 C1721 1.356 . S
C1719 H1751 0.930 . S
C1720 N1717 1.279 . S
C1720 C1719 1.358 . S
C1720 H1723 0.930 . S
C1721 C1718 1.348 . S
C1721 C1719 1.356 . S
H1722 C1716 0.930 . S
H1723 C1720 0.930 . S
O1724 Li1664 1.956 . S
O1724 Li1665 1.970 1_455 S
O1724 Li1666 1.961 . S
O1724 C1668 1.325 . S
O1725 Li1664 1.970 1_655 S
O1725 Li1665 1.956 . S
O1725 Li1667 1.961 . S
O1725 C1674 1.325 . S
O1726 Li1664 1.961 . S
O1726 Li1666 1.956 . S
O1726 Li1667 1.970 1_455 S
O1726 C1696 1.325 . S
O1727 Li1665 1.961 . S
O1727 Li1666 1.970 1_655 S
O1727 Li1667 1.956 . S
O1727 C1702 1.325 . S
H1728 C1670 0.929 . S
H1729 C1671 0.930 . S
H1730 C1672 0.930 . S
H1731 C1673 0.930 . S
H1732 C1675 0.930 . S
H1733 C1677 0.929 . S
H1734 C1678 0.930 . S
H1735 C1679 0.930 . S
H1736 C1682 0.930 . S
H1737 C1685 0.929 . S
H1738 C1690 0.929 . S
H1739 C1691 0.930 . S
H1740 C1698 0.929 . S
H1741 C1699 0.930 . S
H1742 C1700 0.930 . S
H1743 C1701 0.930 . S
H1744 C1703 0.929 . S
H1745 C1704 0.930 . S
H1746 C1705 0.930 . S
H1747 C1706 0.930 . S
H1748 C1710 0.929 . S
H1749 C1712 0.930 . S
H1750 C1718 0.929 . S
H1751 C1719 0.930 . S
Li1752 N1769 1.990 . S
Li1752 O1812 1.956 . S
Li1752 O1813 1.970 . S
Li1752 O1814 1.961 . S
Li1753 N1777 1.990 . S
Li1753 O1812 1.970 . S
Li1753 O1813 1.956 . S
Li1753 O1815 1.961 . S
Li1754 N1799 1.990 . S
Li1754 O1812 1.961 . S
Li1754 O1814 1.956 . S
Li1754 O1815 1.970 . S
Li1755 N1805 1.990 . S
Li1755 O1813 1.961 . S
Li1755 O1814 1.970 . S
Li1755 O1815 1.956 . S
C1756 C1758 1.348 . S
C1756 C1759 1.356 . S
C1756 O1812 1.325 . S
N1757 C1760 1.314 . S
N1757 C1761 1.279 . S
C1758 C1756 1.348 . S
C1758 C1760 1.353 . S
C1758 H1816 0.929 . S
C1759 C1756 1.356 . S
C1759 C1761 1.358 . S
C1759 H1817 0.930 . S
C1760 N1757 1.314 . S
C1760 C1758 1.353 . S
C1760 H1818 0.930 . S
C1761 N1757 1.279 . S
C1761 C1759 1.358 . S
C1761 H1819 0.930 . S
C1762 C1765 1.348 . S
C1762 C1766 1.356 . S
C1762 O1813 1.325 . S
C1763 N1764 1.279 . S
C1763 C1766 1.358 . S
C1763 H1820 0.930 . S
N1764 C1763 1.279 . S
N1764 C1767 1.314 . S
C1765 C1762 1.348 . S
C1765 C1767 1.353 . S
C1765 H1821 0.929 . S
C1766 C1762 1.356 . S
C1766 C1763 1.358 . S
C1766 H1822 0.930 . S
C1767 N1764 1.314 . S
C1767 C1765 1.353 . S
C1767 H1823 0.930 . S
C1768 N1769 1.314 . S
C1768 C1773 1.353 . S
C1768 H1774 0.930 . S
N1769 Li1752 1.990 . S
N1769 C1768 1.314 . S
N1769 C1771 1.279 . S
C1770 C1771 1.358 . S
C1770 C1772 1.356 . S
C1770 H1824 0.930 . S
C1771 N1769 1.279 . S
C1771 C1770 1.358 . S
C1771 H1775 0.930 . S
C1772 C1770 1.356 . S
C1772 C1773 1.348 . S
C1773 C1768 1.353 . S
C1773 C1772 1.348 . S
C1773 H1825 0.929 . S
H1774 C1768 0.930 . S
H1775 C1771 0.930 . S
C1776 N1777 1.314 . S
C1776 C1778 1.353 . S
C1776 H1782 0.930 . S
N1777 Li1753 1.990 . S
N1777 C1776 1.314 . S
N1777 C1780 1.279 . S
C1778 C1776 1.353 . S
C1778 C1781 1.348 . S
C1778 H1826 0.929 . S
C1779 C1780 1.358 . S
C1779 C1781 1.356 . S
C1779 H1827 0.930 . S
C1780 N1777 1.279 . S
C1780 C1779 1.358 . S
C1780 H1783 0.930 . S
C1781 C1778 1.348 . S
C1781 C1779 1.356 . S
H1782 C1776 0.930 . S
H1783 C1780 0.930 . S
C1784 C1786 1.348 . S
C1784 C1787 1.356 . S
C1784 O1814 1.325 . S
N1785 C1788 1.314 . S
N1785 C1789 1.279 . S
C1786 C1784 1.348 . S
C1786 C1788 1.353 . S
C1786 H1828 0.929 . S
C1787 C1784 1.356 . S
C1787 C1789 1.358 . S
C1787 H1829 0.930 . S
C1788 N1785 1.314 . S
C1788 C1786 1.353 . S
C1788 H1830 0.930 . S
C1789 N1785 1.279 . S
C1789 C1787 1.358 . S
C1789 H1831 0.930 . S
C1790 C1791 1.348 . S
C1790 C1792 1.356 . S
C1790 O1815 1.325 . S
C1791 C1790 1.348 . S
C1791 C1793 1.353 . S
C1791 H1832 0.929 . S
C1792 C1790 1.356 . S
C1792 C1794 1.358 . S
C1792 H1833 0.930 . S
C1793 C1791 1.353 . S
C1793 N1795 1.314 . S
C1793 H1834 0.930 . S
C1794 C1792 1.358 . S
C1794 N1795 1.279 . S
C1794 H1835 0.930 . S
N1795 C1793 1.314 . S
N1795 C1794 1.279 . S
C1796 C1798 1.353 . S
C1796 N1799 1.314 . S
C1796 H1802 0.930 . S
C1797 N1799 1.279 . S
C1797 C1800 1.358 . S
C1797 H1803 0.930 . S
C1798 C1796 1.353 . S
C1798 C1801 1.348 . S
C1798 H1836 0.929 . S
N1799 Li1754 1.990 . S
N1799 C1796 1.314 . S
N1799 C1797 1.279 . S
C1800 C1797 1.358 . S
C1800 C1801 1.356 . S
C1800 H1837 0.930 . S
C1801 C1798 1.348 . S
C1801 C1800 1.356 . S
H1802 C1796 0.930 . S
H1803 C1797 0.930 . S
C1804 N1805 1.314 . S
C1804 C1806 1.353 . S
C1804 H1810 0.930 . S
N1805 Li1755 1.990 . S
N1805 C1804 1.314 . S
N1805 C1808 1.279 . S
C1806 C1804 1.353 . S
C1806 C1809 1.348 . S
C1806 H1838 0.929 . S
C1807 C1808 1.358 . S
C1807 C1809 1.356 . S
C1807 H1839 0.930 . S
C1808 N1805 1.279 . S
C1808 C1807 1.358 . S
C1808 H1811 0.930 . S
C1809 C1806 1.348 . S
C1809 C1807 1.356 . S
H1810 C1804 0.930 . S
H1811 C1808 0.930 . S
O1812 Li1752 1.956 . S
O1812 Li1753 1.970 . S
O1812 Li1754 1.961 . S
O1812 C1756 1.325 . S
O1813 Li1752 1.970 . S
O1813 Li1753 1.956 . S
O1813 Li1755 1.961 . S
O1813 C1762 1.325 . S
O1814 Li1752 1.961 . S
O1814 Li1754 1.956 . S
O1814 Li1755 1.970 . S
O1814 C1784 1.325 . S
O1815 Li1753 1.961 . S
O1815 Li1754 1.970 . S
O1815 Li1755 1.956 . S
O1815 C1790 1.325 . S
H1816 C1758 0.929 . S
H1817 C1759 0.930 . S
H1818 C1760 0.930 . S
H1819 C1761 0.930 . S
H1820 C1763 0.930 . S
H1821 C1765 0.929 . S
H1822 C1766 0.930 . S
H1823 C1767 0.930 . S
H1824 C1770 0.930 . S
H1825 C1773 0.929 . S
H1826 C1778 0.929 . S
H1827 C1779 0.930 . S
H1828 C1786 0.929 . S
H1829 C1787 0.930 . S
H1830 C1788 0.930 . S
H1831 C1789 0.930 . S
H1832 C1791 0.929 . S
H1833 C1792 0.930 . S
H1834 C1793 0.930 . S
H1835 C1794 0.930 . S
H1836 C1798 0.929 . S
H1837 C1800 0.930 . S
H1838 C1806 0.929 . S
H1839 C1807 0.930 . S
Li1840 N1857 1.990 . S
Li1840 O1900 1.956 . S
Li1840 O1901 1.970 1_455 S
Li1840 O1902 1.961 . S
Li1841 N1865 1.990 . S
Li1841 O1900 1.970 1_655 S
Li1841 O1901 1.956 . S
Li1841 O1903 1.961 . S
Li1842 N1887 1.990 . S
Li1842 O1900 1.961 . S
Li1842 O1902 1.956 . S
Li1842 O1903 1.970 1_455 S
Li1843 N1893 1.990 . S
Li1843 O1901 1.961 . S
Li1843 O1902 1.970 1_655 S
Li1843 O1903 1.956 . S
C1844 C1846 1.348 1_455 S
C1844 C1847 1.356 . S
C1844 O1900 1.325 . S
N1845 C1848 1.314 1_455 S
N1845 C1849 1.279 . S
C1846 C1844 1.348 1_655 S
C1846 C1848 1.353 . S
C1846 H1904 0.929 . S
C1847 C1844 1.356 . S
C1847 C1849 1.358 . S
C1847 H1905 0.930 . S
C1848 N1845 1.314 1_655 S
C1848 C1846 1.353 . S
C1848 H1906 0.930 . S
C1849 N1845 1.279 . S
C1849 C1847 1.358 . S
C1849 H1907 0.930 . S
C1850 C1853 1.348 . S
C1850 C1854 1.356 . S
C1850 O1901 1.325 . S
C1851 N1852 1.279 . S
C1851 C1854 1.358 . S
C1851 H1908 0.930 . S
N1852 C1851 1.279 . S
N1852 C1855 1.314 . S
C1853 C1850 1.348 . S
C1853 C1855 1.353 . S
C1853 H1909 0.929 . S
C1854 C1850 1.356 . S
C1854 C1851 1.358 . S
C1854 H1910 0.930 . S
C1855 N1852 1.314 . S
C1855 C1853 1.353 . S
C1855 H1911 0.930 . S
C1856 N1857 1.314 . S
C1856 C1861 1.353 . S
C1856 H1862 0.930 . S
N1857 Li1840 1.990 . S
N1857 C1856 1.314 . S
N1857 C1859 1.279 . S
C1858 C1859 1.358 . S
C1858 C1860 1.356 . S
C1858 H1912 0.930 . S
C1859 N1857 1.279 . S
C1859 C1858 1.358 . S
C1859 H1863 0.930 . S
C1860 C1858 1.356 . S
C1860 C1861 1.348 . S
C1861 C1856 1.353 . S
C1861 C1860 1.348 . S
C1861 H1913 0.929 . S
H1862 C1856 0.930 . S
H1863 C1859 0.930 . S
C1864 N1865 1.314 . S
C1864 C1866 1.353 . S
C1864 H1870 0.930 . S
N1865 Li1841 1.990 . S
N1865 C1864 1.314 . S
N1865 C1868 1.279 . S
C1866 C1864 1.353 . S
C1866 C1869 1.348 . S
C1866 H1914 0.929 . S
C1867 C1868 1.358 . S
C1867 C1869 1.356 . S
C1867 H1915 0.930 . S
C1868 N1865 1.279 . S
C1868 C1867 1.358 . S
C1868 H1871 0.930 . S
C1869 C1866 1.348 . S
C1869 C1867 1.356 . S
H1870 C1864 0.930 . S
H1871 C1868 0.930 . S
C1872 C1874 1.348 . S
C1872 C1875 1.356 . S
C1872 O1902 1.325 . S
N1873 C1876 1.314 . S
N1873 C1877 1.279 . S
C1874 C1872 1.348 . S
C1874 C1876 1.353 . S
C1874 H1916 0.929 . S
C1875 C1872 1.356 . S
C1875 C1877 1.358 . S
C1875 H1917 0.930 . S
C1876 N1873 1.314 . S
C1876 C1874 1.353 . S
C1876 H1918 0.930 . S
C1877 N1873 1.279 . S
C1877 C1875 1.358 . S
C1877 H1919 0.930 . S
C1878 C1879 1.348 1_655 S
C1878 C1880 1.356 . S
C1878 O1903 1.325 . S
C1879 C1878 1.348 1_455 S
C1879 C1881 1.353 . S
C1879 H1920 0.929 . S
C1880 C1878 1.356 . S
C1880 C1882 1.358 . S
C1880 H1921 0.930 . S
C1881 C1879 1.353 . S
C1881 N1883 1.314 1_455 S
C1881 H1922 0.930 . S
C1882 C1880 1.358 . S
C1882 N1883 1.279 . S
C1882 H1923 0.930 . S
N1883 C1881 1.314 1_655 S
N1883 C1882 1.279 . S
C1884 C1886 1.353 . S
C1884 N1887 1.314 . S
C1884 H1890 0.930 . S
C1885 N1887 1.279 . S
C1885 C1888 1.358 . S
C1885 H1891 0.930 . S
C1886 C1884 1.353 . S
C1886 C1889 1.348 . S
C1886 H1924 0.929 . S
N1887 Li1842 1.990 . S
N1887 C1884 1.314 . S
N1887 C1885 1.279 . S
C1888 C1885 1.358 . S
C1888 C1889 1.356 . S
C1888 H1925 0.930 . S
C1889 C1886 1.348 . S
C1889 C1888 1.356 . S
H1890 C1884 0.930 . S
H1891 C1885 0.930 . S
C1892 N1893 1.314 . S
C1892 C1894 1.353 . S
C1892 H1898 0.930 . S
N1893 Li1843 1.990 . S
N1893 C1892 1.314 . S
N1893 C1896 1.279 . S
C1894 C1892 1.353 . S
C1894 C1897 1.348 . S
C1894 H1926 0.929 . S
C1895 C1896 1.358 . S
C1895 C1897 1.356 . S
C1895 H1927 0.930 . S
C1896 N1893 1.279 . S
C1896 C1895 1.358 . S
C1896 H1899 0.930 . S
C1897 C1894 1.348 . S
C1897 C1895 1.356 . S
H1898 C1892 0.930 . S
H1899 C1896 0.930 . S
O1900 Li1840 1.956 . S
O1900 Li1841 1.970 1_455 S
O1900 Li1842 1.961 . S
O1900 C1844 1.325 . S
O1901 Li1840 1.970 1_655 S
O1901 Li1841 1.956 . S
O1901 Li1843 1.961 . S
O1901 C1850 1.325 . S
O1902 Li1840 1.961 . S
O1902 Li1842 1.956 . S
O1902 Li1843 1.970 1_455 S
O1902 C1872 1.325 . S
O1903 Li1841 1.961 . S
O1903 Li1842 1.970 1_655 S
O1903 Li1843 1.956 . S
O1903 C1878 1.325 . S
H1904 C1846 0.929 . S
H1905 C1847 0.930 . S
H1906 C1848 0.930 . S
H1907 C1849 0.930 . S
H1908 C1851 0.930 . S
H1909 C1853 0.929 . S
H1910 C1854 0.930 . S
H1911 C1855 0.930 . S
H1912 C1858 0.930 . S
H1913 C1861 0.929 . S
H1914 C1866 0.929 . S
H1915 C1867 0.930 . S
H1916 C1874 0.929 . S
H1917 C1875 0.930 . S
H1918 C1876 0.930 . S
H1919 C1877 0.930 . S
H1920 C1879 0.929 . S
H1921 C1880 0.930 . S
H1922 C1881 0.930 . S
H1923 C1882 0.930 . S
H1924 C1886 0.929 . S
H1925 C1888 0.930 . S
H1926 C1894 0.929 . S
H1927 C1895 0.930 . S
Li1928 N1945 1.990 . S
Li1928 O1988 1.956 . S
Li1928 O1989 1.970 . S
Li1928 O1990 1.961 . S
Li1929 N1953 1.990 . S
Li1929 O1988 1.970 . S
Li1929 O1989 1.956 . S
Li1929 O1991 1.961 . S
Li1930 N1975 1.990 . S
Li1930 O1988 1.961 . S
Li1930 O1990 1.956 . S
Li1930 O1991 1.970 . S
Li1931 N1981 1.990 . S
Li1931 O1989 1.961 . S
Li1931 O1990 1.970 . S
Li1931 O1991 1.956 . S
C1932 C1934 1.348 . S
C1932 C1935 1.356 . S
C1932 O1988 1.325 . S
N1933 C1936 1.314 . S
N1933 C1937 1.279 . S
C1934 C1932 1.348 . S
C1934 C1936 1.353 . S
C1934 H1992 0.929 . S
C1935 C1932 1.356 . S
C1935 C1937 1.358 . S
C1935 H1993 0.930 . S
C1936 N1933 1.314 . S
C1936 C1934 1.353 . S
C1936 H1994 0.930 . S
C1937 N1933 1.279 . S
C1937 C1935 1.358 . S
C1937 H1995 0.930 . S
C1938 C1941 1.348 . S
C1938 C1942 1.356 . S
C1938 O1989 1.325 . S
C1939 N1940 1.279 . S
C1939 C1942 1.358 . S
C1939 H1996 0.930 . S
N1940 C1939 1.279 . S
N1940 C1943 1.314 . S
C1941 C1938 1.348 . S
C1941 C1943 1.353 . S
C1941 H1997 0.929 . S
C1942 C1938 1.356 . S
C1942 C1939 1.358 . S
C1942 H1998 0.930 . S
C1943 N1940 1.314 . S
C1943 C1941 1.353 . S
C1943 H1999 0.930 . S
C1944 N1945 1.314 . S
C1944 C1949 1.353 . S
C1944 H1950 0.930 . S
N1945 Li1928 1.990 . S
N1945 C1944 1.314 . S
N1945 C1947 1.279 . S
C1946 C1947 1.358 . S
C1946 C1948 1.356 . S
C1946 H2000 0.930 . S
C1947 N1945 1.279 . S
C1947 C1946 1.358 . S
C1947 H1951 0.930 . S
C1948 C1946 1.356 . S
C1948 C1949 1.348 . S
C1949 C1944 1.353 . S
C1949 C1948 1.348 . S
C1949 H2001 0.929 . S
H1950 C1944 0.930 . S
H1951 C1947 0.930 . S
C1952 N1953 1.314 . S
C1952 C1954 1.353 . S
C1952 H1958 0.930 . S
N1953 Li1929 1.990 . S
N1953 C1952 1.314 . S
N1953 C1956 1.279 . S
C1954 C1952 1.353 . S
C1954 C1957 1.348 . S
C1954 H2002 0.929 . S
C1955 C1956 1.358 . S
C1955 C1957 1.356 . S
C1955 H2003 0.930 . S
C1956 N1953 1.279 . S
C1956 C1955 1.358 . S
C1956 H1959 0.930 . S
C1957 C1954 1.348 . S
C1957 C1955 1.356 . S
H1958 C1952 0.930 . S
H1959 C1956 0.930 . S
C1960 C1962 1.348 . S
C1960 C1963 1.356 . S
C1960 O1990 1.325 . S
N1961 C1964 1.314 . S
N1961 C1965 1.279 . S
C1962 C1960 1.348 . S
C1962 C1964 1.353 . S
C1962 H2004 0.929 . S
C1963 C1960 1.356 . S
C1963 C1965 1.358 . S
C1963 H2005 0.930 . S
C1964 N1961 1.314 . S
C1964 C1962 1.353 . S
C1964 H2006 0.930 . S
C1965 N1961 1.279 . S
C1965 C1963 1.358 . S
C1965 H2007 0.930 . S
C1966 C1967 1.348 . S
C1966 C1968 1.356 . S
C1966 O1991 1.325 . S
C1967 C1966 1.348 . S
C1967 C1969 1.353 . S
C1967 H2008 0.929 . S
C1968 C1966 1.356 . S
C1968 C1970 1.358 . S
C1968 H2009 0.930 . S
C1969 C1967 1.353 . S
C1969 N1971 1.314 . S
C1969 H2010 0.930 . S
C1970 C1968 1.358 . S
C1970 N1971 1.279 . S
C1970 H2011 0.930 . S
N1971 C1969 1.314 . S
N1971 C1970 1.279 . S
C1972 C1974 1.353 . S
C1972 N1975 1.314 . S
C1972 H1978 0.930 . S
C1973 N1975 1.279 . S
C1973 C1976 1.358 . S
C1973 H1979 0.930 . S
C1974 C1972 1.353 . S
C1974 C1977 1.348 . S
C1974 H2012 0.929 . S
N1975 Li1930 1.990 . S
N1975 C1972 1.314 . S
N1975 C1973 1.279 . S
C1976 C1973 1.358 . S
C1976 C1977 1.356 . S
C1976 H2013 0.930 . S
C1977 C1974 1.348 . S
C1977 C1976 1.356 . S
H1978 C1972 0.930 . S
H1979 C1973 0.930 . S
C1980 N1981 1.314 . S
C1980 C1982 1.353 . S
C1980 H1986 0.930 . S
N1981 Li1931 1.990 . S
N1981 C1980 1.314 . S
N1981 C1984 1.279 . S
C1982 C1980 1.353 . S
C1982 C1985 1.348 . S
C1982 H2014 0.929 . S
C1983 C1984 1.358 . S
C1983 C1985 1.356 . S
C1983 H2015 0.930 . S
C1984 N1981 1.279 . S
C1984 C1983 1.358 . S
C1984 H1987 0.930 . S
C1985 C1982 1.348 . S
C1985 C1983 1.356 . S
H1986 C1980 0.930 . S
H1987 C1984 0.930 . S
O1988 Li1928 1.956 . S
O1988 Li1929 1.970 . S
O1988 Li1930 1.961 . S
O1988 C1932 1.325 . S
O1989 Li1928 1.970 . S
O1989 Li1929 1.956 . S
O1989 Li1931 1.961 . S
O1989 C1938 1.325 . S
O1990 Li1928 1.961 . S
O1990 Li1930 1.956 . S
O1990 Li1931 1.970 . S
O1990 C1960 1.325 . S
O1991 Li1929 1.961 . S
O1991 Li1930 1.970 . S
O1991 Li1931 1.956 . S
O1991 C1966 1.325 . S
H1992 C1934 0.929 . S
H1993 C1935 0.930 . S
H1994 C1936 0.930 . S
H1995 C1937 0.930 . S
H1996 C1939 0.930 . S
H1997 C1941 0.929 . S
H1998 C1942 0.930 . S
H1999 C1943 0.930 . S
H2000 C1946 0.930 . S
H2001 C1949 0.929 . S
H2002 C1954 0.929 . S
H2003 C1955 0.930 . S
H2004 C1962 0.929 . S
H2005 C1963 0.930 . S
H2006 C1964 0.930 . S
H2007 C1965 0.930 . S
H2008 C1967 0.929 . S
H2009 C1968 0.930 . S
H2010 C1969 0.930 . S
H2011 C1970 0.930 . S
H2012 C1974 0.929 . S
H2013 C1976 0.930 . S
H2014 C1982 0.929 . S
H2015 C1983 0.930 . S
C2016 C2017 1.349 . S
C2016 C2018 1.327 . S
C2016 H2041 0.950 . S
C2017 C2016 1.349 . S
C2017 C2033 1.349 . S
C2018 C2016 1.327 . S
C2018 C2037 1.429 . S
C2018 H2042 0.950 . S
C2019 C2036 1.574 . S
C2019 C2038 1.368 . S
C2019 H2043 0.949 . S
H2020 C2024 0.949 . S
C2021 C2022 1.349 . S
C2021 C2023 1.327 . S
C2021 H2044 0.950 . S
C2022 C2021 1.349 . S
C2022 C2034 1.349 . S
C2023 C2021 1.327 . S
C2023 C2039 1.429 . S
C2023 H2045 0.950 . S
C2024 H2020 0.949 . S
C2024 C2032 1.574 . S
C2024 C2040 1.368 . S
H2025 C2033 0.950 . S
H2026 C2031 0.950 . S
H2027 C2032 0.949 . S
H2028 C2034 0.950 . S
H2029 C2035 0.950 . S
H2030 C2036 0.949 . S
C2031 H2026 0.950 . S
C2031 C2033 1.327 . S
C2031 C2037 1.429 . S
C2032 C2024 1.574 . S
C2032 H2027 0.949 . S
C2032 C2038 1.368 . S
C2033 C2017 1.349 . S
C2033 H2025 0.950 . S
C2033 C2031 1.327 . S
C2034 C2022 1.349 . S
C2034 H2028 0.950 . S
C2034 C2035 1.327 . S
C2035 H2029 0.950 . S
C2035 C2034 1.327 . S
C2035 C2039 1.429 . S
C2036 C2019 1.574 . S
C2036 H2030 0.949 . S
C2036 C2040 1.368 . S
C2037 C2018 1.429 . S
C2037 C2031 1.429 . S
C2037 C2038 1.523 . S
C2038 C2019 1.368 . S
C2038 C2032 1.368 . S
C2038 C2037 1.523 . S
C2039 C2023 1.429 . S
C2039 C2035 1.429 . S
C2039 C2040 1.523 . S
C2040 C2024 1.368 . S
C2040 C2036 1.368 . S
C2040 C2039 1.523 . S
H2041 C2016 0.950 . S
H2042 C2018 0.950 . S
H2043 C2019 0.949 . S
H2044 C2021 0.950 . S
H2045 C2023 0.950 . S
C2046 C2047 1.349 . S
C2046 C2048 1.327 . S
C2046 H2071 0.950 . S
C2047 C2046 1.349 . S
C2047 C2063 1.349 . S
C2048 C2046 1.327 . S
C2048 C2067 1.429 . S
C2048 H2072 0.950 . S
C2049 C2066 1.574 . S
C2049 C2068 1.368 . S
C2049 H2073 0.949 . S
H2050 C2054 0.949 . S
C2051 C2052 1.349 . S
C2051 C2053 1.327 . S
C2051 H2074 0.950 . S
C2052 C2051 1.349 . S
C2052 C2064 1.349 . S
C2053 C2051 1.327 . S
C2053 C2069 1.429 . S
C2053 H2075 0.950 . S
C2054 H2050 0.949 . S
C2054 C2062 1.574 . S
C2054 C2070 1.368 . S
H2055 C2063 0.950 . S
H2056 C2061 0.950 . S
H2057 C2062 0.949 . S
H2058 C2064 0.950 . S
H2059 C2065 0.950 . S
H2060 C2066 0.949 . S
C2061 H2056 0.950 . S
C2061 C2063 1.327 . S
C2061 C2067 1.429 . S
C2062 C2054 1.574 . S
C2062 H2057 0.949 . S
C2062 C2068 1.368 . S
C2063 C2047 1.349 . S
C2063 H2055 0.950 . S
C2063 C2061 1.327 . S
C2064 C2052 1.349 . S
C2064 H2058 0.950 . S
C2064 C2065 1.327 . S
C2065 H2059 0.950 . S
C2065 C2064 1.327 . S
C2065 C2069 1.429 . S
C2066 C2049 1.574 . S
C2066 H2060 0.949 . S
C2066 C2070 1.368 . S
C2067 C2048 1.429 . S
C2067 C2061 1.429 . S
C2067 C2068 1.523 . S
C2068 C2049 1.368 . S
C2068 C2062 1.368 . S
C2068 C2067 1.523 . S
C2069 C2053 1.429 . S
C2069 C2065 1.429 . S
C2069 C2070 1.523 . S
C2070 C2054 1.368 . S
C2070 C2066 1.368 . S
C2070 C2069 1.523 . S
H2071 C2046 0.950 . S
H2072 C2048 0.950 . S
H2073 C2049 0.949 . S
H2074 C2051 0.950 . S
H2075 C2053 0.950 . S
C2076 C2077 1.349 . S
C2076 C2078 1.327 . S
C2076 H2101 0.950 . S
C2077 C2076 1.349 . S
C2077 C2093 1.349 . S
C2078 C2076 1.327 . S
C2078 C2097 1.429 . S
C2078 H2102 0.950 . S
C2079 C2096 1.574 . S
C2079 C2098 1.368 . S
C2079 H2103 0.949 . S
H2080 C2084 0.949 . S
C2081 C2082 1.349 . S
C2081 C2083 1.327 . S
C2081 H2104 0.950 . S
C2082 C2081 1.349 . S
C2082 C2094 1.349 . S
C2083 C2081 1.327 . S
C2083 C2099 1.429 . S
C2083 H2105 0.950 . S
C2084 H2080 0.949 . S
C2084 C2092 1.574 . S
C2084 C2100 1.368 . S
H2085 C2093 0.950 . S
H2086 C2091 0.950 . S
H2087 C2092 0.949 . S
H2088 C2094 0.950 . S
H2089 C2095 0.950 . S
H2090 C2096 0.949 . S
C2091 H2086 0.950 . S
C2091 C2093 1.327 . S
C2091 C2097 1.429 . S
C2092 C2084 1.574 . S
C2092 H2087 0.949 . S
C2092 C2098 1.368 . S
C2093 C2077 1.349 . S
C2093 H2085 0.950 . S
C2093 C2091 1.327 . S
C2094 C2082 1.349 . S
C2094 H2088 0.950 . S
C2094 C2095 1.327 . S
C2095 H2089 0.950 . S
C2095 C2094 1.327 . S
C2095 C2099 1.429 . S
C2096 C2079 1.574 . S
C2096 H2090 0.949 . S
C2096 C2100 1.368 . S
C2097 C2078 1.429 . S
C2097 C2091 1.429 . S
C2097 C2098 1.523 . S
C2098 C2079 1.368 . S
C2098 C2092 1.368 . S
C2098 C2097 1.523 . S
C2099 C2083 1.429 . S
C2099 C2095 1.429 . S
C2099 C2100 1.523 . S
C2100 C2084 1.368 . S
C2100 C2096 1.368 . S
C2100 C2099 1.523 . S
H2101 C2076 0.950 . S
H2102 C2078 0.950 . S
H2103 C2079 0.949 . S
H2104 C2081 0.950 . S
H2105 C2083 0.950 . S
C2106 C2107 1.349 . S
C2106 C2108 1.327 . S
C2106 H2131 0.950 . S
C2107 C2106 1.349 . S
C2107 C2123 1.349 . S
C2108 C2106 1.327 . S
C2108 C2127 1.429 . S
C2108 H2132 0.950 . S
C2109 C2126 1.574 . S
C2109 C2128 1.368 . S
C2109 H2133 0.949 1_565 S
H2110 C2114 0.949 . S
C2111 C2112 1.333 1_545 S
C2111 C2113 1.323 1_545 S
C2111 H2134 0.968 . S
C2112 C2111 1.333 1_565 S
C2112 C2124 1.349 . S
C2113 C2111 1.323 1_565 S
C2113 C2129 1.478 . S
C2113 H2135 0.906 1_565 S
C2114 H2110 0.949 . S
C2114 C2122 1.574 . S
C2114 C2130 1.368 . S
H2115 C2123 0.950 . S
H2116 C2121 0.967 . S
H2117 C2122 0.949 . S
H2118 C2124 0.950 . S
H2119 C2125 0.950 . S
H2120 C2126 0.949 1_545 S
C2121 H2116 0.967 . S
C2121 C2123 1.327 . S
C2121 C2127 1.429 . S
C2122 C2114 1.574 . S
C2122 H2117 0.949 . S
C2122 C2128 1.368 . S
C2123 C2107 1.349 . S
C2123 H2115 0.950 . S
C2123 C2121 1.327 . S
C2124 C2112 1.349 . S
C2124 H2118 0.950 . S
C2124 C2125 1.327 . S
C2125 H2119 0.950 . S
C2125 C2124 1.327 . S
C2125 C2129 1.429 . S
C2126 C2109 1.574 . S
C2126 H2120 0.949 1_565 S
C2126 C2130 1.368 . S
C2127 C2108 1.429 . S
C2127 C2121 1.429 . S
C2127 C2128 1.523 . S
C2128 C2109 1.368 . S
C2128 C2122 1.368 . S
C2128 C2127 1.523 . S
C2129 C2113 1.478 . S
C2129 C2125 1.429 . S
C2129 C2130 1.523 . S
C2130 C2114 1.368 . S
C2130 C2126 1.368 . S
C2130 C2129 1.523 . S
H2131 C2106 0.950 . S
H2132 C2108 0.950 . S
H2133 C2109 0.949 1_545 S
H2134 C2111 0.968 . S
H2135 C2113 0.906 1_545 S
C2136 C2137 1.349 . S
C2136 C2138 1.327 . S
C2136 H2161 0.950 . S
C2137 C2136 1.349 . S
C2137 C2153 1.349 . S
C2138 C2136 1.327 . S
C2138 C2157 1.429 . S
C2138 H2162 0.950 . S
C2139 C2156 1.574 . S
C2139 C2158 1.368 . S
C2139 H2163 0.949 . S
H2140 C2144 0.949 . S
C2141 C2142 1.349 . S
C2141 C2143 1.327 . S
C2141 H2164 0.950 . S
C2142 C2141 1.349 . S
C2142 C2154 1.349 . S
C2143 C2141 1.327 . S
C2143 C2159 1.429 . S
C2143 H2165 0.950 . S
C2144 H2140 0.949 . S
C2144 C2152 1.574 . S
C2144 C2160 1.368 . S
H2145 C2153 0.950 . S
H2146 C2151 0.950 . S
H2147 C2152 0.949 . S
H2148 C2154 0.950 . S
H2149 C2155 0.950 . S
H2150 C2156 0.949 . S
C2151 H2146 0.950 . S
C2151 C2153 1.327 . S
C2151 C2157 1.429 . S
C2152 C2144 1.574 . S
C2152 H2147 0.949 . S
C2152 C2158 1.368 . S
C2153 C2137 1.349 . S
C2153 H2145 0.950 . S
C2153 C2151 1.327 . S
C2154 C2142 1.349 . S
C2154 H2148 0.950 . S
C2154 C2155 1.327 . S
C2155 H2149 0.950 . S
C2155 C2154 1.327 . S
C2155 C2159 1.429 . S
C2156 C2139 1.574 . S
C2156 H2150 0.949 . S
C2156 C2160 1.368 . S
C2157 C2138 1.429 . S
C2157 C2151 1.429 . S
C2157 C2158 1.523 . S
C2158 C2139 1.368 . S
C2158 C2152 1.368 . S
C2158 C2157 1.523 . S
C2159 C2143 1.429 . S
C2159 C2155 1.429 . S
C2159 C2160 1.523 . S
C2160 C2144 1.368 . S
C2160 C2156 1.368 . S
C2160 C2159 1.523 . S
H2161 C2136 0.950 . S
H2162 C2138 0.950 . S
H2163 C2139 0.949 . S
H2164 C2141 0.950 . S
H2165 C2143 0.950 . S
C2166 C2167 1.349 . S
C2166 C2168 1.327 . S
C2166 H2191 0.950 . S
C2167 C2166 1.349 . S
C2167 C2183 1.349 . S
C2168 C2166 1.327 . S
C2168 C2187 1.429 . S
C2168 H2192 0.950 . S
C2169 C2186 1.574 . S
C2169 C2188 1.368 . S
C2169 H2193 0.949 . S
H2170 C2174 0.949 . S
C2171 C2172 1.349 . S
C2171 C2173 1.327 . S
C2171 H2194 0.950 . S
C2172 C2171 1.349 . S
C2172 C2184 1.349 . S
C2173 C2171 1.327 . S
C2173 C2189 1.429 . S
C2173 H2195 0.950 . S
C2174 H2170 0.949 . S
C2174 C2182 1.574 . S
C2174 C2190 1.368 . S
H2175 C2183 0.950 . S
H2176 C2181 0.950 . S
H2177 C2182 0.949 . S
H2178 C2184 0.950 . S
H2179 C2185 0.950 . S
H2180 C2186 0.949 . S
C2181 H2176 0.950 . S
C2181 C2183 1.327 . S
C2181 C2187 1.429 . S
C2182 C2174 1.574 . S
C2182 H2177 0.949 . S
C2182 C2188 1.368 . S
C2183 C2167 1.349 . S
C2183 H2175 0.950 . S
C2183 C2181 1.327 . S
C2184 C2172 1.349 . S
C2184 H2178 0.950 . S
C2184 C2185 1.327 . S
C2185 H2179 0.950 . S
C2185 C2184 1.327 . S
C2185 C2189 1.429 . S
C2186 C2169 1.574 . S
C2186 H2180 0.949 . S
C2186 C2190 1.368 . S
C2187 C2168 1.429 . S
C2187 C2181 1.429 . S
C2187 C2188 1.523 . S
C2188 C2169 1.368 . S
C2188 C2182 1.368 . S
C2188 C2187 1.523 . S
C2189 C2173 1.429 . S
C2189 C2185 1.429 . S
C2189 C2190 1.523 . S
C2190 C2174 1.368 . S
C2190 C2186 1.368 . S
C2190 C2189 1.523 . S
H2191 C2166 0.950 . S
H2192 C2168 0.950 . S
H2193 C2169 0.949 . S
H2194 C2171 0.950 . S
H2195 C2173 0.950 . S
C2196 C2197 1.349 . S
C2196 C2198 1.327 . S
C2196 H2221 0.950 . S
C2197 C2196 1.349 . S
C2197 C2213 1.349 . S
C2198 C2196 1.327 . S
C2198 C2217 1.429 . S
C2198 H2222 0.950 . S
C2199 C2216 1.574 . S
C2199 C2218 1.368 . S
C2199 H2223 0.949 . S
H2200 C2204 0.949 . S
C2201 C2202 1.349 . S
C2201 C2203 1.327 . S
C2201 H2224 0.950 . S
C2202 C2201 1.349 . S
C2202 C2214 1.349 . S
C2203 C2201 1.327 . S
C2203 C2219 1.429 . S
C2203 H2225 0.950 . S
C2204 H2200 0.949 . S
C2204 C2212 1.574 . S
C2204 C2220 1.368 . S
H2205 C2213 0.950 . S
H2206 C2211 0.950 . S
H2207 C2212 0.949 . S
H2208 C2214 0.950 . S
H2209 C2215 0.950 . S
H2210 C2216 0.949 . S
C2211 H2206 0.950 . S
C2211 C2213 1.327 . S
C2211 C2217 1.429 . S
C2212 C2204 1.574 . S
C2212 H2207 0.949 . S
C2212 C2218 1.368 . S
C2213 C2197 1.349 . S
C2213 H2205 0.950 . S
C2213 C2211 1.327 . S
C2214 C2202 1.349 . S
C2214 H2208 0.950 . S
C2214 C2215 1.327 . S
C2215 H2209 0.950 . S
C2215 C2214 1.327 . S
C2215 C2219 1.429 . S
C2216 C2199 1.574 . S
C2216 H2210 0.949 . S
C2216 C2220 1.368 . S
C2217 C2198 1.429 . S
C2217 C2211 1.429 . S
C2217 C2218 1.523 . S
C2218 C2199 1.368 . S
C2218 C2212 1.368 . S
C2218 C2217 1.523 . S
C2219 C2203 1.429 . S
C2219 C2215 1.429 . S
C2219 C2220 1.523 . S
C2220 C2204 1.368 . S
C2220 C2216 1.368 . S
C2220 C2219 1.523 . S
H2221 C2196 0.950 . S
H2222 C2198 0.950 . S
H2223 C2199 0.949 . S
H2224 C2201 0.950 . S
H2225 C2203 0.950 . S
C2226 C2227 1.349 . S
C2226 C2228 1.327 . S
C2226 H2251 0.950 . S
C2227 C2226 1.349 . S
C2227 C2243 1.349 . S
C2228 C2226 1.327 . S
C2228 C2247 1.429 . S
C2228 H2252 0.950 . S
C2229 C2246 1.574 . S
C2229 C2248 1.368 . S
C2229 H2253 0.949 . S
H2230 C2234 0.949 . S
C2231 C2232 1.349 . S
C2231 C2233 1.327 . S
C2231 H2254 0.950 1_565 S
C2232 C2231 1.349 . S
C2232 C2244 1.349 . S
C2233 C2231 1.327 . S
C2233 C2249 1.429 . S
C2233 H2255 0.968 . S
C2234 H2230 0.949 . S
C2234 C2242 1.574 . S
C2234 C2250 1.368 . S
H2235 C2243 0.950 . S
H2236 C2241 0.950 . S
H2237 C2242 0.949 . S
H2238 C2244 0.950 . S
H2239 C2245 0.950 . S
H2240 C2246 0.949 . S
C2241 H2236 0.950 . S
C2241 C2243 1.327 . S
C2241 C2247 1.429 . S
C2242 C2234 1.574 . S
C2242 H2237 0.949 . S
C2242 C2248 1.368 . S
C2243 C2227 1.349 . S
C2243 H2235 0.950 . S
C2243 C2241 1.327 . S
C2244 C2232 1.349 . S
C2244 H2238 0.950 . S
C2244 C2245 1.327 . S
C2245 H2239 0.950 . S
C2245 C2244 1.327 . S
C2245 C2249 1.429 . S
C2246 C2229 1.574 . S
C2246 H2240 0.949 . S
C2246 C2250 1.368 . S
C2247 C2228 1.429 . S
C2247 C2241 1.429 . S
C2247 C2248 1.523 . S
C2248 C2229 1.368 . S
C2248 C2242 1.368 . S
C2248 C2247 1.523 . S
C2249 C2233 1.429 . S
C2249 C2245 1.429 . S
C2249 C2250 1.523 . S
C2250 C2234 1.368 . S
C2250 C2246 1.368 . S
C2250 C2249 1.523 . S
H2251 C2226 0.950 . S
H2252 C2228 0.950 . S
H2253 C2229 0.949 . S
H2254 C2231 0.950 1_545 S
H2255 C2233 0.968 . S
C2256 C2257 1.349 . S
C2256 C2258 1.327 . S
C2256 H2281 0.950 . S
C2257 C2256 1.349 . S
C2257 C2273 1.349 . S
C2258 C2256 1.327 . S
C2258 C2277 1.429 . S
C2258 H2282 0.950 . S
C2259 C2276 1.574 . S
C2259 C2278 1.368 . S
C2259 H2283 0.949 . S
H2260 C2264 0.949 . S
C2261 C2262 1.349 . S
C2261 C2263 1.327 . S
C2261 H2284 0.950 . S
C2262 C2261 1.349 . S
C2262 C2274 1.349 . S
C2263 C2261 1.327 . S
C2263 C2279 1.429 . S
C2263 H2285 0.950 . S
C2264 H2260 0.949 . S
C2264 C2272 1.574 . S
C2264 C2280 1.368 . S
H2265 C2273 0.950 . S
H2266 C2271 0.950 . S
H2267 C2272 0.949 . S
H2268 C2274 0.950 . S
H2269 C2275 0.950 . S
H2270 C2276 0.949 . S
C2271 H2266 0.950 . S
C2271 C2273 1.327 . S
C2271 C2277 1.429 . S
C2272 C2264 1.574 . S
C2272 H2267 0.949 . S
C2272 C2278 1.368 . S
C2273 C2257 1.349 . S
C2273 H2265 0.950 . S
C2273 C2271 1.327 . S
C2274 C2262 1.349 . S
C2274 H2268 0.950 . S
C2274 C2275 1.327 . S
C2275 H2269 0.950 . S
C2275 C2274 1.327 . S
C2275 C2279 1.429 . S
C2276 C2259 1.574 . S
C2276 H2270 0.949 . S
C2276 C2280 1.368 . S
C2277 C2258 1.429 . S
C2277 C2271 1.429 . S
C2277 C2278 1.523 . S
C2278 C2259 1.368 . S
C2278 C2272 1.368 . S
C2278 C2277 1.523 . S
C2279 C2263 1.429 . S
C2279 C2275 1.429 . S
C2279 C2280 1.523 . S
C2280 C2264 1.368 . S
C2280 C2276 1.368 . S
C2280 C2279 1.523 . S
H2281 C2256 0.950 . S
H2282 C2258 0.950 . S
H2283 C2259 0.949 . S
H2284 C2261 0.950 . S
H2285 C2263 0.950 . S
C2286 C2287 1.349 . S
C2286 C2288 1.327 . S
C2286 H2311 0.950 . S
C2287 C2286 1.349 . S
C2287 C2303 1.349 . S
C2288 C2286 1.327 . S
C2288 C2307 1.429 . S
C2288 H2312 0.950 . S
C2289 C2306 1.574 . S
C2289 C2308 1.368 . S
C2289 H2313 0.949 . S
H2290 C2294 0.949 . S
C2291 C2292 1.349 . S
C2291 C2293 1.327 . S
C2291 H2314 0.950 . S
C2292 C2291 1.349 . S
C2292 C2304 1.349 . S
C2293 C2291 1.327 . S
C2293 C2309 1.429 . S
C2293 H2315 0.950 . S
C2294 H2290 0.949 . S
C2294 C2302 1.574 . S
C2294 C2310 1.368 . S
H2295 C2303 0.950 . S
H2296 C2301 0.950 . S
H2297 C2302 0.949 . S
H2298 C2304 0.950 . S
H2299 C2305 0.950 . S
H2300 C2306 0.949 . S
C2301 H2296 0.950 . S
C2301 C2303 1.327 . S
C2301 C2307 1.429 . S
C2302 C2294 1.574 . S
C2302 H2297 0.949 . S
C2302 C2308 1.368 . S
C2303 C2287 1.349 . S
C2303 H2295 0.950 . S
C2303 C2301 1.327 . S
C2304 C2292 1.349 . S
C2304 H2298 0.950 . S
C2304 C2305 1.327 . S
C2305 H2299 0.950 . S
C2305 C2304 1.327 . S
C2305 C2309 1.429 . S
C2306 C2289 1.574 . S
C2306 H2300 0.949 . S
C2306 C2310 1.368 . S
C2307 C2288 1.429 . S
C2307 C2301 1.429 . S
C2307 C2308 1.523 . S
C2308 C2289 1.368 . S
C2308 C2302 1.368 . S
C2308 C2307 1.523 . S
C2309 C2293 1.429 . S
C2309 C2305 1.429 . S
C2309 C2310 1.523 . S
C2310 C2294 1.368 . S
C2310 C2306 1.368 . S
C2310 C2309 1.523 . S
H2311 C2286 0.950 . S
H2312 C2288 0.950 . S
H2313 C2289 0.949 . S
H2314 C2291 0.950 . S
H2315 C2293 0.950 . S
C2316 C2317 1.349 . S
C2316 C2318 1.327 . S
C2316 H2341 0.950 . S
C2317 C2316 1.349 . S
C2317 C2333 1.349 . S
C2318 C2316 1.327 . S
C2318 C2337 1.429 . S
C2318 H2342 0.950 . S
C2319 C2336 1.574 . S
C2319 C2338 1.368 . S
C2319 H2343 0.949 . S
H2320 C2324 0.949 . S
C2321 C2322 1.349 . S
C2321 C2323 1.327 . S
C2321 H2344 0.950 . S
C2322 C2321 1.349 . S
C2322 C2334 1.349 . S
C2323 C2321 1.327 . S
C2323 C2339 1.429 . S
C2323 H2345 0.950 . S
C2324 H2320 0.949 . S
C2324 C2332 1.574 . S
C2324 C2340 1.368 . S
H2325 C2333 0.950 . S
H2326 C2331 0.950 . S
H2327 C2332 0.949 . S
H2328 C2334 0.950 . S
H2329 C2335 0.950 . S
H2330 C2336 0.949 . S
C2331 H2326 0.950 . S
C2331 C2333 1.327 . S
C2331 C2337 1.429 . S
C2332 C2324 1.574 . S
C2332 H2327 0.949 . S
C2332 C2338 1.368 . S
C2333 C2317 1.349 . S
C2333 H2325 0.950 . S
C2333 C2331 1.327 . S
C2334 C2322 1.349 . S
C2334 H2328 0.950 . S
C2334 C2335 1.327 . S
C2335 H2329 0.950 . S
C2335 C2334 1.327 . S
C2335 C2339 1.429 . S
C2336 C2319 1.574 . S
C2336 H2330 0.949 . S
C2336 C2340 1.368 . S
C2337 C2318 1.429 . S
C2337 C2331 1.429 . S
C2337 C2338 1.523 . S
C2338 C2319 1.368 . S
C2338 C2332 1.368 . S
C2338 C2337 1.523 . S
C2339 C2323 1.429 . S
C2339 C2335 1.429 . S
C2339 C2340 1.523 . S
C2340 C2324 1.368 . S
C2340 C2336 1.368 . S
C2340 C2339 1.523 . S
H2341 C2316 0.950 . S
H2342 C2318 0.950 . S
H2343 C2319 0.949 . S
H2344 C2321 0.950 . S
H2345 C2323 0.950 . S
C2346 C2347 1.349 . S
C2346 C2348 1.327 . S
C2346 H2371 0.950 . S
C2347 C2346 1.349 . S
C2347 C2363 1.349 . S
C2348 C2346 1.327 . S
C2348 C2367 1.429 . S
C2348 H2372 0.950 . S
C2349 C2366 1.574 . S
C2349 C2368 1.368 . S
C2349 H2373 0.949 . S
H2350 C2354 0.949 . S
C2351 C2352 1.349 . S
C2351 C2353 1.327 . S
C2351 H2374 0.950 . S
C2352 C2351 1.349 . S
C2352 C2364 1.349 . S
C2353 C2351 1.327 . S
C2353 C2369 1.429 . S
C2353 H2375 0.950 . S
C2354 H2350 0.949 . S
C2354 C2362 1.574 . S
C2354 C2370 1.368 . S
H2355 C2363 0.950 . S
H2356 C2361 0.950 . S
H2357 C2362 0.949 . S
H2358 C2364 0.950 . S
H2359 C2365 0.950 . S
H2360 C2366 0.949 . S
C2361 H2356 0.950 . S
C2361 C2363 1.327 . S
C2361 C2367 1.429 . S
C2362 C2354 1.574 . S
C2362 H2357 0.949 . S
C2362 C2368 1.368 . S
C2363 C2347 1.349 . S
C2363 H2355 0.950 . S
C2363 C2361 1.327 . S
C2364 C2352 1.349 . S
C2364 H2358 0.950 . S
C2364 C2365 1.327 . S
C2365 H2359 0.950 . S
C2365 C2364 1.327 . S
C2365 C2369 1.429 . S
C2366 C2349 1.574 . S
C2366 H2360 0.949 . S
C2366 C2370 1.368 . S
C2367 C2348 1.429 . S
C2367 C2361 1.429 . S
C2367 C2368 1.523 . S
C2368 C2349 1.368 . S
C2368 C2362 1.368 . S
C2368 C2367 1.523 . S
C2369 C2353 1.429 . S
C2369 C2365 1.429 . S
C2369 C2370 1.523 . S
C2370 C2354 1.368 . S
C2370 C2366 1.368 . S
C2370 C2369 1.523 . S
H2371 C2346 0.950 . S
H2372 C2348 0.950 . S
H2373 C2349 0.949 . S
H2374 C2351 0.950 . S
H2375 C2353 0.950 . S
C2376 C2377 1.349 . S
C2376 C2378 1.327 . S
C2376 H2401 0.950 . S
C2377 C2376 1.349 . S
C2377 C2393 1.349 . S
C2378 C2376 1.327 . S
C2378 C2397 1.429 . S
C2378 H2402 0.950 . S
C2379 C2396 1.574 . S
C2379 C2398 1.368 . S
C2379 H2403 0.949 . S
H2380 C2384 0.949 . S
C2381 C2382 1.349 . S
C2381 C2383 1.327 . S
C2381 H2404 0.950 . S
C2382 C2381 1.349 . S
C2382 C2394 1.349 . S
C2383 C2381 1.327 . S
C2383 C2399 1.429 . S
C2383 H2405 0.950 . S
C2384 H2380 0.949 . S
C2384 C2392 1.574 . S
C2384 C2400 1.368 . S
H2385 C2393 0.950 . S
H2386 C2391 0.950 . S
H2387 C2392 0.949 . S
H2388 C2394 0.950 . S
H2389 C2395 0.950 . S
H2390 C2396 0.949 . S
C2391 H2386 0.950 . S
C2391 C2393 1.327 . S
C2391 C2397 1.429 . S
C2392 C2384 1.574 . S
C2392 H2387 0.949 . S
C2392 C2398 1.368 . S
C2393 C2377 1.349 . S
C2393 H2385 0.950 . S
C2393 C2391 1.327 . S
C2394 C2382 1.349 . S
C2394 H2388 0.950 . S
C2394 C2395 1.327 . S
C2395 H2389 0.950 . S
C2395 C2394 1.327 . S
C2395 C2399 1.429 . S
C2396 C2379 1.574 . S
C2396 H2390 0.949 . S
C2396 C2400 1.368 . S
C2397 C2378 1.429 . S
C2397 C2391 1.429 . S
C2397 C2398 1.523 . S
C2398 C2379 1.368 . S
C2398 C2392 1.368 . S
C2398 C2397 1.523 . S
C2399 C2383 1.429 . S
C2399 C2395 1.429 . S
C2399 C2400 1.523 . S
C2400 C2384 1.368 . S
C2400 C2396 1.368 . S
C2400 C2399 1.523 . S
H2401 C2376 0.950 . S
H2402 C2378 0.950 . S
H2403 C2379 0.949 . S
H2404 C2381 0.950 . S
H2405 C2383 0.950 . S
C2406 C2407 1.349 . S
C2406 C2408 1.327 . S
C2406 H2431 0.950 . S
C2407 C2406 1.349 . S
C2407 C2423 1.349 . S
C2408 C2406 1.327 . S
C2408 C2427 1.429 . S
C2408 H2432 0.950 . S
C2409 C2426 1.574 . S
C2409 C2428 1.368 . S
C2409 H2433 0.959 . S
H2410 C2414 0.949 . S
C2411 C2412 1.393 . S
C2411 C2413 1.335 . S
C2411 H2434 0.902 1_455 S
C2412 C2411 1.393 . S
C2412 C2424 1.349 . S
C2413 C2411 1.335 . S
C2413 C2429 1.429 . S
C2413 H2435 0.950 1_455 S
C2414 H2410 0.949 . S
C2414 C2422 1.574 . S
C2414 C2430 1.368 . S
H2415 C2423 0.950 . S
H2416 C2421 0.950 . S
H2417 C2422 0.949 . S
H2418 C2424 0.950 . S
H2419 C2425 0.950 . S
H2420 C2426 0.949 1_655 S
C2421 H2416 0.950 . S
C2421 C2423 1.327 . S
C2421 C2427 1.429 . S
C2422 C2414 1.574 . S
C2422 H2417 0.949 . S
C2422 C2428 1.368 . S
C2423 C2407 1.349 . S
C2423 H2415 0.950 . S
C2423 C2421 1.327 . S
C2424 C2412 1.349 . S
C2424 H2418 0.950 . S
C2424 C2425 1.327 . S
C2425 H2419 0.950 . S
C2425 C2424 1.327 . S
C2425 C2429 1.429 . S
C2426 C2409 1.574 . S
C2426 H2420 0.949 1_455 S
C2426 C2430 1.368 . S
C2427 C2408 1.429 . S
C2427 C2421 1.429 . S
C2427 C2428 1.523 . S
C2428 C2409 1.368 . S
C2428 C2422 1.368 . S
C2428 C2427 1.523 . S
C2429 C2413 1.429 . S
C2429 C2425 1.429 . S
C2429 C2430 1.523 . S
C2430 C2414 1.368 . S
C2430 C2426 1.368 . S
C2430 C2429 1.523 . S
H2431 C2406 0.950 . S
H2432 C2408 0.950 . S
H2433 C2409 0.959 . S
H2434 C2411 0.902 1_655 S
H2435 C2413 0.950 1_655 S
C2436 C2437 1.349 . S
C2436 C2438 1.327 . S
C2436 H2461 0.950 . S
C2437 C2436 1.349 . S
C2437 C2453 1.349 . S
C2438 C2436 1.327 . S
C2438 C2457 1.429 . S
C2438 H2462 0.950 . S
C2439 C2456 1.574 . S
C2439 C2458 1.368 . S
C2439 H2463 0.949 . S
H2440 C2444 0.949 . S
C2441 C2442 1.349 . S
C2441 C2443 1.327 . S
C2441 H2464 0.950 . S
C2442 C2441 1.349 . S
C2442 C2454 1.349 . S
C2443 C2441 1.327 . S
C2443 C2459 1.429 . S
C2443 H2465 0.950 . S
C2444 H2440 0.949 . S
C2444 C2452 1.574 . S
C2444 C2460 1.368 . S
H2445 C2453 0.950 . S
H2446 C2451 0.950 . S
H2447 C2452 0.949 . S
H2448 C2454 0.950 . S
H2449 C2455 0.950 . S
H2450 C2456 0.949 . S
C2451 H2446 0.950 . S
C2451 C2453 1.327 . S
C2451 C2457 1.429 . S
C2452 C2444 1.574 . S
C2452 H2447 0.949 . S
C2452 C2458 1.368 . S
C2453 C2437 1.349 . S
C2453 H2445 0.950 . S
C2453 C2451 1.327 . S
C2454 C2442 1.349 . S
C2454 H2448 0.950 . S
C2454 C2455 1.327 . S
C2455 H2449 0.950 . S
C2455 C2454 1.327 . S
C2455 C2459 1.429 . S
C2456 C2439 1.574 . S
C2456 H2450 0.949 . S
C2456 C2460 1.368 . S
C2457 C2438 1.429 . S
C2457 C2451 1.429 . S
C2457 C2458 1.523 . S
C2458 C2439 1.368 . S
C2458 C2452 1.368 . S
C2458 C2457 1.523 . S
C2459 C2443 1.429 . S
C2459 C2455 1.429 . S
C2459 C2460 1.523 . S
C2460 C2444 1.368 . S
C2460 C2456 1.368 . S
C2460 C2459 1.523 . S
H2461 C2436 0.950 . S
H2462 C2438 0.950 . S
H2463 C2439 0.949 . S
H2464 C2441 0.950 . S
H2465 C2443 0.950 . S
C2466 C2467 1.349 . S
C2466 C2468 1.327 . S
C2466 H2491 0.950 . S
C2467 C2466 1.349 . S
C2467 C2483 1.349 . S
C2468 C2466 1.327 . S
C2468 C2487 1.429 . S
C2468 H2492 0.950 . S
C2469 C2486 1.574 . S
C2469 C2488 1.368 . S
C2469 H2493 0.949 1_655 S
H2470 C2474 0.949 . S
C2471 C2472 1.332 1_455 S
C2471 C2473 1.323 1_455 S
C2471 H2494 0.970 . S
C2472 C2471 1.332 1_655 S
C2472 C2484 1.349 . S
C2473 C2471 1.323 1_655 S
C2473 C2489 1.476 . S
C2473 H2495 0.907 1_655 S
C2474 H2470 0.949 . S
C2474 C2482 1.574 . S
C2474 C2490 1.368 . S
H2475 C2483 0.950 . S
H2476 C2481 0.959 . S
H2477 C2482 0.949 . S
H2478 C2484 0.950 . S
H2479 C2485 0.950 . S
H2480 C2486 0.949 1_455 S
C2481 H2476 0.959 . S
C2481 C2483 1.327 . S
C2481 C2487 1.429 . S
C2482 C2474 1.574 . S
C2482 H2477 0.949 . S
C2482 C2488 1.368 . S
C2483 C2467 1.349 . S
C2483 H2475 0.950 . S
C2483 C2481 1.327 . S
C2484 C2472 1.349 . S
C2484 H2478 0.950 . S
C2484 C2485 1.327 . S
C2485 H2479 0.950 . S
C2485 C2484 1.327 . S
C2485 C2489 1.429 . S
C2486 C2469 1.574 . S
C2486 H2480 0.949 1_655 S
C2486 C2490 1.368 . S
C2487 C2468 1.429 . S
C2487 C2481 1.429 . S
C2487 C2488 1.523 . S
C2488 C2469 1.368 . S
C2488 C2482 1.368 . S
C2488 C2487 1.523 . S
C2489 C2473 1.476 . S
C2489 C2485 1.429 . S
C2489 C2490 1.523 . S
C2490 C2474 1.368 . S
C2490 C2486 1.368 . S
C2490 C2489 1.523 . S
H2491 C2466 0.950 . S
H2492 C2468 0.950 . S
H2493 C2469 0.949 1_455 S
H2494 C2471 0.970 . S
H2495 C2473 0.907 1_455 S
C2496 C2497 1.349 . S
C2496 C2498 1.327 . S
C2496 H2521 0.950 . S
C2497 C2496 1.349 . S
C2497 C2513 1.349 . S
C2498 C2496 1.327 . S
C2498 C2517 1.429 . S
C2498 H2522 0.950 . S
C2499 C2516 1.574 . S
C2499 C2518 1.368 . S
C2499 H2523 0.949 . S
H2500 C2504 0.949 . S
C2501 C2502 1.349 . S
C2501 C2503 1.327 . S
C2501 H2524 0.950 . S
C2502 C2501 1.349 . S
C2502 C2514 1.349 . S
C2503 C2501 1.327 . S
C2503 C2519 1.429 . S
C2503 H2525 0.950 . S
C2504 H2500 0.949 . S
C2504 C2512 1.574 . S
C2504 C2520 1.368 . S
H2505 C2513 0.950 . S
H2506 C2511 0.950 . S
H2507 C2512 0.949 . S
H2508 C2514 0.950 . S
H2509 C2515 0.950 . S
H2510 C2516 0.949 . S
C2511 H2506 0.950 . S
C2511 C2513 1.327 . S
C2511 C2517 1.429 . S
C2512 C2504 1.574 . S
C2512 H2507 0.949 . S
C2512 C2518 1.368 . S
C2513 C2497 1.349 . S
C2513 H2505 0.950 . S
C2513 C2511 1.327 . S
C2514 C2502 1.349 . S
C2514 H2508 0.950 . S
C2514 C2515 1.327 . S
C2515 H2509 0.950 . S
C2515 C2514 1.327 . S
C2515 C2519 1.429 . S
C2516 C2499 1.574 . S
C2516 H2510 0.949 . S
C2516 C2520 1.368 . S
C2517 C2498 1.429 . S
C2517 C2511 1.429 . S
C2517 C2518 1.523 . S
C2518 C2499 1.368 . S
C2518 C2512 1.368 . S
C2518 C2517 1.523 . S
C2519 C2503 1.429 . S
C2519 C2515 1.429 . S
C2519 C2520 1.523 . S
C2520 C2504 1.368 . S
C2520 C2516 1.368 . S
C2520 C2519 1.523 . S
H2521 C2496 0.950 . S
H2522 C2498 0.950 . S
H2523 C2499 0.949 . S
H2524 C2501 0.950 . S
H2525 C2503 0.950 . S
C2526 C2527 1.349 . S
C2526 C2528 1.327 . S
C2526 H2551 0.950 . S
C2527 C2526 1.349 . S
C2527 C2543 1.349 . S
C2528 C2526 1.327 . S
C2528 C2547 1.429 . S
C2528 H2552 0.950 . S
C2529 C2546 1.574 . S
C2529 C2548 1.368 . S
C2529 H2553 0.949 . S
H2530 C2534 0.949 . S
C2531 C2532 1.349 . S
C2531 C2533 1.327 . S
C2531 H2554 0.950 . S
C2532 C2531 1.349 . S
C2532 C2544 1.349 . S
C2533 C2531 1.327 . S
C2533 C2549 1.429 . S
C2533 H2555 0.950 . S
C2534 H2530 0.949 . S
C2534 C2542 1.574 . S
C2534 C2550 1.368 . S
H2535 C2543 0.950 . S
H2536 C2541 0.950 . S
H2537 C2542 0.949 . S
H2538 C2544 0.950 . S
H2539 C2545 0.950 . S
H2540 C2546 0.949 . S
C2541 H2536 0.950 . S
C2541 C2543 1.327 . S
C2541 C2547 1.429 . S
C2542 C2534 1.574 . S
C2542 H2537 0.949 . S
C2542 C2548 1.368 . S
C2543 C2527 1.349 . S
C2543 H2535 0.950 . S
C2543 C2541 1.327 . S
C2544 C2532 1.349 . S
C2544 H2538 0.950 . S
C2544 C2545 1.327 . S
C2545 H2539 0.950 . S
C2545 C2544 1.327 . S
C2545 C2549 1.429 . S
C2546 C2529 1.574 . S
C2546 H2540 0.949 . S
C2546 C2550 1.368 . S
C2547 C2528 1.429 . S
C2547 C2541 1.429 . S
C2547 C2548 1.523 . S
C2548 C2529 1.368 . S
C2548 C2542 1.368 . S
C2548 C2547 1.523 . S
C2549 C2533 1.429 . S
C2549 C2545 1.429 . S
C2549 C2550 1.523 . S
C2550 C2534 1.368 . S
C2550 C2546 1.368 . S
C2550 C2549 1.523 . S
H2551 C2526 0.950 . S
H2552 C2528 0.950 . S
H2553 C2529 0.949 . S
H2554 C2531 0.950 . S
H2555 C2533 0.950 . S
C2556 C2557 1.349 . S
C2556 C2558 1.327 . S
C2556 H2581 0.950 . S
C2557 C2556 1.349 . S
C2557 C2573 1.349 . S
C2558 C2556 1.327 . S
C2558 C2577 1.429 . S
C2558 H2582 0.950 . S
C2559 C2576 1.574 . S
C2559 C2578 1.368 . S
C2559 H2583 0.949 . S
H2560 C2564 0.949 . S
C2561 C2562 1.349 . S
C2561 C2563 1.327 . S
C2561 H2584 0.984 . S
C2562 C2561 1.349 . S
C2562 C2574 1.349 . S
C2563 C2561 1.327 . S
C2563 C2579 1.429 . S
C2563 H2585 0.950 . S
C2564 H2560 0.949 . S
C2564 C2572 1.574 . S
C2564 C2580 1.368 . S
H2565 C2573 0.950 1_545 S
H2566 C2571 0.950 . S
H2567 C2572 0.949 . S
H2568 C2574 0.950 . S
H2569 C2575 0.950 . S
H2570 C2576 0.949 . S
C2571 H2566 0.950 . S
C2571 C2573 1.327 . S
C2571 C2577 1.429 . S
C2572 C2564 1.574 . S
C2572 H2567 0.949 . S
C2572 C2578 1.368 . S
C2573 C2557 1.349 . S
C2573 H2565 0.950 1_565 S
C2573 C2571 1.327 . S
C2574 C2562 1.349 . S
C2574 H2568 0.950 . S
C2574 C2575 1.327 . S
C2575 H2569 0.950 . S
C2575 C2574 1.327 . S
C2575 C2579 1.429 . S
C2576 C2559 1.574 . S
C2576 H2570 0.949 . S
C2576 C2580 1.368 . S
C2577 C2558 1.429 . S
C2577 C2571 1.429 . S
C2577 C2578 1.523 . S
C2578 C2559 1.368 . S
C2578 C2572 1.368 . S
C2578 C2577 1.523 . S
C2579 C2563 1.429 . S
C2579 C2575 1.429 . S
C2579 C2580 1.523 . S
C2580 C2564 1.368 . S
C2580 C2576 1.368 . S
C2580 C2579 1.523 . S
H2581 C2556 0.950 . S
H2582 C2558 0.950 . S
H2583 C2559 0.949 . S
H2584 C2561 0.984 . S
H2585 C2563 0.950 . S
C2586 C2587 1.349 . S
C2586 C2588 1.327 . S
C2586 H2611 0.950 . S
C2587 C2586 1.349 . S
C2587 C2603 1.349 . S
C2588 C2586 1.327 . S
C2588 C2607 1.429 . S
C2588 H2612 0.950 . S
C2589 C2606 1.574 . S
C2589 C2608 1.368 . S
C2589 H2613 0.949 . S
H2590 C2594 0.949 . S
C2591 C2592 1.349 . S
C2591 C2593 1.327 . S
C2591 H2614 0.950 . S
C2592 C2591 1.349 . S
C2592 C2604 1.349 . S
C2593 C2591 1.327 . S
C2593 C2609 1.429 . S
C2593 H2615 0.950 . S
C2594 H2590 0.949 . S
C2594 C2602 1.574 . S
C2594 C2610 1.368 . S
H2595 C2603 0.950 . S
H2596 C2601 0.950 . S
H2597 C2602 0.949 . S
H2598 C2604 0.950 . S
H2599 C2605 0.950 . S
H2600 C2606 0.949 . S
C2601 H2596 0.950 . S
C2601 C2603 1.327 . S
C2601 C2607 1.429 . S
C2602 C2594 1.574 . S
C2602 H2597 0.949 . S
C2602 C2608 1.368 . S
C2603 C2587 1.349 . S
C2603 H2595 0.950 . S
C2603 C2601 1.327 . S
C2604 C2592 1.349 . S
C2604 H2598 0.950 . S
C2604 C2605 1.327 . S
C2605 H2599 0.950 . S
C2605 C2604 1.327 . S
C2605 C2609 1.429 . S
C2606 C2589 1.574 . S
C2606 H2600 0.949 . S
C2606 C2610 1.368 . S
C2607 C2588 1.429 . S
C2607 C2601 1.429 . S
C2607 C2608 1.523 . S
C2608 C2589 1.368 . S
C2608 C2602 1.368 . S
C2608 C2607 1.523 . S
C2609 C2593 1.429 . S
C2609 C2605 1.429 . S
C2609 C2610 1.523 . S
C2610 C2594 1.368 . S
C2610 C2606 1.368 . S
C2610 C2609 1.523 . S
H2611 C2586 0.950 . S
H2612 C2588 0.950 . S
H2613 C2589 0.949 . S
H2614 C2591 0.950 . S
H2615 C2593 0.950 . S
C2616 C2617 1.349 . S
C2616 C2618 1.327 . S
C2616 H2641 0.922 1_545 S
C2617 C2616 1.349 . S
C2617 C2633 1.349 . S
C2618 C2616 1.327 . S
C2618 C2637 1.429 . S
C2618 H2642 0.950 . S
C2619 C2636 1.574 . S
C2619 C2638 1.368 . S
C2619 H2643 0.949 . S
H2620 C2624 0.949 . S
C2621 C2622 1.349 . S
C2621 C2623 1.327 . S
C2621 H2644 0.950 . S
C2622 C2621 1.349 . S
C2622 C2634 1.349 . S
C2623 C2621 1.327 . S
C2623 C2639 1.429 . S
C2623 H2645 0.950 . S
C2624 H2620 0.949 . S
C2624 C2632 1.574 . S
C2624 C2640 1.368 . S
H2625 C2633 0.950 . S
H2626 C2631 0.950 . S
H2627 C2632 0.949 . S
H2628 C2634 0.950 . S
H2629 C2635 0.950 . S
H2630 C2636 0.949 . S
C2631 H2626 0.950 . S
C2631 C2633 1.327 . S
C2631 C2637 1.429 . S
C2632 C2624 1.574 . S
C2632 H2627 0.949 . S
C2632 C2638 1.368 . S
C2633 C2617 1.349 . S
C2633 H2625 0.950 . S
C2633 C2631 1.327 . S
C2634 C2622 1.349 . S
C2634 H2628 0.950 . S
C2634 C2635 1.327 . S
C2635 H2629 0.950 . S
C2635 C2634 1.327 . S
C2635 C2639 1.429 . S
C2636 C2619 1.574 . S
C2636 H2630 0.949 . S
C2636 C2640 1.368 . S
C2637 C2618 1.429 . S
C2637 C2631 1.429 . S
C2637 C2638 1.523 . S
C2638 C2619 1.368 . S
C2638 C2632 1.368 . S
C2638 C2637 1.523 . S
C2639 C2623 1.429 . S
C2639 C2635 1.429 . S
C2639 C2640 1.523 . S
C2640 C2624 1.368 . S
C2640 C2636 1.368 . S
C2640 C2639 1.523 . S
H2641 C2616 0.922 1_565 S
H2642 C2618 0.950 . S
H2643 C2619 0.949 . S
H2644 C2621 0.950 . S
H2645 C2623 0.950 . S
C2646 C2647 1.349 . S
C2646 C2648 1.327 . S
C2646 H2671 0.950 . S
C2647 C2646 1.349 . S
C2647 C2663 1.349 . S
C2648 C2646 1.327 . S
C2648 C2667 1.429 . S
C2648 H2672 0.950 . S
C2649 C2666 1.574 . S
C2649 C2668 1.368 . S
C2649 H2673 0.949 . S
H2650 C2654 0.949 . S
C2651 C2652 1.349 . S
C2651 C2653 1.327 . S
C2651 H2674 0.950 . S
C2652 C2651 1.349 . S
C2652 C2664 1.349 . S
C2653 C2651 1.327 . S
C2653 C2669 1.429 . S
C2653 H2675 0.950 . S
C2654 H2650 0.949 . S
C2654 C2662 1.574 . S
C2654 C2670 1.368 . S
H2655 C2663 0.950 . S
H2656 C2661 0.950 . S
H2657 C2662 0.949 . S
H2658 C2664 0.950 . S
H2659 C2665 0.950 . S
H2660 C2666 0.949 . S
C2661 H2656 0.950 . S
C2661 C2663 1.327 . S
C2661 C2667 1.429 . S
C2662 C2654 1.574 . S
C2662 H2657 0.949 . S
C2662 C2668 1.368 . S
C2663 C2647 1.349 . S
C2663 H2655 0.950 . S
C2663 C2661 1.327 . S
C2664 C2652 1.349 . S
C2664 H2658 0.950 . S
C2664 C2665 1.327 . S
C2665 H2659 0.950 . S
C2665 C2664 1.327 . S
C2665 C2669 1.429 . S
C2666 C2649 1.574 . S
C2666 H2660 0.949 . S
C2666 C2670 1.368 . S
C2667 C2648 1.429 . S
C2667 C2661 1.429 . S
C2667 C2668 1.523 . S
C2668 C2649 1.368 . S
C2668 C2662 1.368 . S
C2668 C2667 1.523 . S
C2669 C2653 1.429 . S
C2669 C2665 1.429 . S
C2669 C2670 1.523 . S
C2670 C2654 1.368 . S
C2670 C2666 1.368 . S
C2670 C2669 1.523 . S
H2671 C2646 0.950 . S
H2672 C2648 0.950 . S
H2673 C2649 0.949 . S
H2674 C2651 0.950 . S
H2675 C2653 0.950 . S
C2676 C2677 1.349 . S
C2676 C2678 1.327 . S
C2676 H2701 0.950 . S
C2677 C2676 1.349 . S
C2677 C2693 1.349 . S
C2678 C2676 1.327 . S
C2678 C2697 1.429 . S
C2678 H2702 0.950 . S
C2679 C2696 1.574 . S
C2679 C2698 1.368 . S
C2679 H2703 0.949 . S
H2680 C2684 0.949 . S
C2681 C2682 1.349 . S
C2681 C2683 1.327 . S
C2681 H2704 0.950 . S
C2682 C2681 1.349 . S
C2682 C2694 1.349 . S
C2683 C2681 1.327 . S
C2683 C2699 1.429 . S
C2683 H2705 0.950 . S
C2684 H2680 0.949 . S
C2684 C2692 1.574 . S
C2684 C2700 1.368 . S
H2685 C2693 0.950 . S
H2686 C2691 0.950 . S
H2687 C2692 0.949 . S
H2688 C2694 0.950 . S
H2689 C2695 0.950 . S
H2690 C2696 0.949 . S
C2691 H2686 0.950 . S
C2691 C2693 1.327 . S
C2691 C2697 1.429 . S
C2692 C2684 1.574 . S
C2692 H2687 0.949 . S
C2692 C2698 1.368 . S
C2693 C2677 1.349 . S
C2693 H2685 0.950 . S
C2693 C2691 1.327 . S
C2694 C2682 1.349 . S
C2694 H2688 0.950 . S
C2694 C2695 1.327 . S
C2695 H2689 0.950 . S
C2695 C2694 1.327 . S
C2695 C2699 1.429 . S
C2696 C2679 1.574 . S
C2696 H2690 0.949 . S
C2696 C2700 1.368 . S
C2697 C2678 1.429 . S
C2697 C2691 1.429 . S
C2697 C2698 1.523 . S
C2698 C2679 1.368 . S
C2698 C2692 1.368 . S
C2698 C2697 1.523 . S
C2699 C2683 1.429 . S
C2699 C2695 1.429 . S
C2699 C2700 1.523 . S
C2700 C2684 1.368 . S
C2700 C2696 1.368 . S
C2700 C2699 1.523 . S
H2701 C2676 0.950 . S
H2702 C2678 0.950 . S
H2703 C2679 0.949 . S
H2704 C2681 0.950 . S
H2705 C2683 0.950 . S
C2706 C2707 1.349 . S
C2706 C2708 1.327 . S
C2706 H2731 0.950 . S
C2707 C2706 1.349 . S
C2707 C2723 1.349 . S
C2708 C2706 1.327 . S
C2708 C2727 1.429 . S
C2708 H2732 0.950 . S
C2709 C2726 1.574 . S
C2709 C2728 1.368 . S
C2709 H2733 0.949 . S
H2710 C2714 0.949 . S
C2711 C2712 1.349 . S
C2711 C2713 1.327 . S
C2711 H2734 0.950 . S
C2712 C2711 1.349 . S
C2712 C2724 1.349 . S
C2713 C2711 1.327 . S
C2713 C2729 1.429 . S
C2713 H2735 0.950 . S
C2714 H2710 0.949 . S
C2714 C2722 1.574 . S
C2714 C2730 1.368 . S
H2715 C2723 0.950 . S
H2716 C2721 0.950 . S
H2717 C2722 0.949 . S
H2718 C2724 0.950 . S
H2719 C2725 0.950 . S
H2720 C2726 0.949 . S
C2721 H2716 0.950 . S
C2721 C2723 1.327 . S
C2721 C2727 1.429 . S
C2722 C2714 1.574 . S
C2722 H2717 0.949 . S
C2722 C2728 1.368 . S
C2723 C2707 1.349 . S
C2723 H2715 0.950 . S
C2723 C2721 1.327 . S
C2724 C2712 1.349 . S
C2724 H2718 0.950 . S
C2724 C2725 1.327 . S
C2725 H2719 0.950 . S
C2725 C2724 1.327 . S
C2725 C2729 1.429 . S
C2726 C2709 1.574 . S
C2726 H2720 0.949 . S
C2726 C2730 1.368 . S
C2727 C2708 1.429 . S
C2727 C2721 1.429 . S
C2727 C2728 1.523 . S
C2728 C2709 1.368 . S
C2728 C2722 1.368 . S
C2728 C2727 1.523 . S
C2729 C2713 1.429 . S
C2729 C2725 1.429 . S
C2729 C2730 1.523 . S
C2730 C2714 1.368 . S
C2730 C2726 1.368 . S
C2730 C2729 1.523 . S
H2731 C2706 0.950 . S
H2732 C2708 0.950 . S
H2733 C2709 0.949 . S
H2734 C2711 0.950 . S
H2735 C2713 0.950 . S
C2736 C2737 1.349 . S
C2736 C2738 1.327 . S
C2736 H2761 0.950 . S
C2737 C2736 1.349 . S
C2737 C2753 1.349 . S
C2738 C2736 1.327 . S
C2738 C2757 1.429 . S
C2738 H2762 0.950 . S
C2739 C2756 1.574 . S
C2739 C2758 1.368 . S
C2739 H2763 0.949 . S
H2740 C2744 0.949 . S
C2741 C2742 1.349 . S
C2741 C2743 1.327 . S
C2741 H2764 0.950 . S
C2742 C2741 1.349 . S
C2742 C2754 1.349 . S
C2743 C2741 1.327 . S
C2743 C2759 1.429 . S
C2743 H2765 0.950 . S
C2744 H2740 0.949 . S
C2744 C2752 1.574 . S
C2744 C2760 1.368 . S
H2745 C2753 0.950 . S
H2746 C2751 0.950 . S
H2747 C2752 0.949 . S
H2748 C2754 0.950 . S
H2749 C2755 0.950 . S
H2750 C2756 0.949 . S
C2751 H2746 0.950 . S
C2751 C2753 1.327 . S
C2751 C2757 1.429 . S
C2752 C2744 1.574 . S
C2752 H2747 0.949 . S
C2752 C2758 1.368 . S
C2753 C2737 1.349 . S
C2753 H2745 0.950 . S
C2753 C2751 1.327 . S
C2754 C2742 1.349 . S
C2754 H2748 0.950 . S
C2754 C2755 1.327 . S
C2755 H2749 0.950 . S
C2755 C2754 1.327 . S
C2755 C2759 1.429 . S
C2756 C2739 1.574 . S
C2756 H2750 0.949 . S
C2756 C2760 1.368 . S
C2757 C2738 1.429 . S
C2757 C2751 1.429 . S
C2757 C2758 1.523 . S
C2758 C2739 1.368 . S
C2758 C2752 1.368 . S
C2758 C2757 1.523 . S
C2759 C2743 1.429 . S
C2759 C2755 1.429 . S
C2759 C2760 1.523 . S
C2760 C2744 1.368 . S
C2760 C2756 1.368 . S
C2760 C2759 1.523 . S
H2761 C2736 0.950 . S
H2762 C2738 0.950 . S
H2763 C2739 0.949 . S
H2764 C2741 0.950 . S
H2765 C2743 0.950 . S
C2766 C2767 1.349 . S
C2766 C2768 1.327 . S
C2766 H2791 0.950 . S
C2767 C2766 1.349 . S
C2767 C2783 1.349 . S
C2768 C2766 1.327 . S
C2768 C2787 1.429 . S
C2768 H2792 0.950 . S
C2769 C2786 1.574 . S
C2769 C2788 1.368 . S
C2769 H2793 0.949 1_545 S
H2770 C2774 0.949 . S
C2771 C2772 1.348 1_565 S
C2771 C2773 1.323 1_565 S
C2771 H2794 0.951 . S
C2772 C2771 1.348 1_545 S
C2772 C2784 1.349 . S
C2773 C2771 1.323 1_545 S
C2773 C2789 1.495 . S
C2773 H2795 0.892 1_545 S
C2774 H2770 0.949 . S
C2774 C2782 1.574 . S
C2774 C2790 1.368 . S
H2775 C2783 0.950 . S
H2776 C2781 0.991 . S
H2777 C2782 0.949 . S
H2778 C2784 0.950 . S
H2779 C2785 0.950 . S
H2780 C2786 0.949 1_565 S
C2781 H2776 0.991 . S
C2781 C2783 1.327 . S
C2781 C2787 1.429 . S
C2782 C2774 1.574 . S
C2782 H2777 0.949 . S
C2782 C2788 1.368 . S
C2783 C2767 1.349 . S
C2783 H2775 0.950 . S
C2783 C2781 1.327 . S
C2784 C2772 1.349 . S
C2784 H2778 0.950 . S
C2784 C2785 1.327 . S
C2785 H2779 0.950 . S
C2785 C2784 1.327 . S
C2785 C2789 1.429 . S
C2786 C2769 1.574 . S
C2786 H2780 0.949 1_545 S
C2786 C2790 1.368 . S
C2787 C2768 1.429 . S
C2787 C2781 1.429 . S
C2787 C2788 1.523 . S
C2788 C2769 1.368 . S
C2788 C2782 1.368 . S
C2788 C2787 1.523 . S
C2789 C2773 1.495 . S
C2789 C2785 1.429 . S
C2789 C2790 1.523 . S
C2790 C2774 1.368 . S
C2790 C2786 1.368 . S
C2790 C2789 1.523 . S
H2791 C2766 0.950 . S
H2792 C2768 0.950 . S
H2793 C2769 0.949 1_565 S
H2794 C2771 0.951 . S
H2795 C2773 0.892 1_565 S
C2796 C2797 1.349 . S
C2796 C2798 1.327 . S
C2796 H2821 0.950 . S
C2797 C2796 1.349 . S
C2797 C2813 1.349 . S
C2798 C2796 1.327 . S
C2798 C2817 1.429 . S
C2798 H2822 0.950 . S
C2799 C2816 1.574 . S
C2799 C2818 1.368 . S
C2799 H2823 0.949 . S
H2800 C2804 0.949 . S
C2801 C2802 1.349 . S
C2801 C2803 1.327 . S
C2801 H2824 0.950 . S
C2802 C2801 1.349 . S
C2802 C2814 1.349 . S
C2803 C2801 1.327 . S
C2803 C2819 1.429 . S
C2803 H2825 0.950 . S
C2804 H2800 0.949 . S
C2804 C2812 1.574 . S
C2804 C2820 1.368 . S
H2805 C2813 0.950 . S
H2806 C2811 0.950 . S
H2807 C2812 0.949 . S
H2808 C2814 0.950 . S
H2809 C2815 0.950 . S
H2810 C2816 0.949 . S
C2811 H2806 0.950 . S
C2811 C2813 1.327 . S
C2811 C2817 1.429 . S
C2812 C2804 1.574 . S
C2812 H2807 0.949 . S
C2812 C2818 1.368 . S
C2813 C2797 1.349 . S
C2813 H2805 0.950 . S
C2813 C2811 1.327 . S
C2814 C2802 1.349 . S
C2814 H2808 0.950 . S
C2814 C2815 1.327 . S
C2815 H2809 0.950 . S
C2815 C2814 1.327 . S
C2815 C2819 1.429 . S
C2816 C2799 1.574 . S
C2816 H2810 0.949 . S
C2816 C2820 1.368 . S
C2817 C2798 1.429 . S
C2817 C2811 1.429 . S
C2817 C2818 1.523 . S
C2818 C2799 1.368 . S
C2818 C2812 1.368 . S
C2818 C2817 1.523 . S
C2819 C2803 1.429 . S
C2819 C2815 1.429 . S
C2819 C2820 1.523 . S
C2820 C2804 1.368 . S
C2820 C2816 1.368 . S
C2820 C2819 1.523 . S
H2821 C2796 0.950 . S
H2822 C2798 0.950 . S
H2823 C2799 0.949 . S
H2824 C2801 0.950 . S
H2825 C2803 0.950 . S
C2826 C2827 1.349 . S
C2826 C2828 1.327 . S
C2826 H2851 0.950 . S
C2827 C2826 1.349 . S
C2827 C2843 1.349 . S
C2828 C2826 1.327 . S
C2828 C2847 1.429 . S
C2828 H2852 0.950 . S
C2829 C2846 1.574 . S
C2829 C2848 1.368 . S
C2829 H2853 0.949 . S
H2830 C2834 0.949 . S
C2831 C2832 1.349 . S
C2831 C2833 1.327 . S
C2831 H2854 0.950 . S
C2832 C2831 1.349 . S
C2832 C2844 1.349 . S
C2833 C2831 1.327 . S
C2833 C2849 1.429 . S
C2833 H2855 0.950 . S
C2834 H2830 0.949 . S
C2834 C2842 1.574 . S
C2834 C2850 1.368 . S
H2835 C2843 0.950 . S
H2836 C2841 0.950 . S
H2837 C2842 0.949 . S
H2838 C2844 0.950 . S
H2839 C2845 0.950 . S
H2840 C2846 0.949 . S
C2841 H2836 0.950 . S
C2841 C2843 1.327 . S
C2841 C2847 1.429 . S
C2842 C2834 1.574 . S
C2842 H2837 0.949 . S
C2842 C2848 1.368 . S
C2843 C2827 1.349 . S
C2843 H2835 0.950 . S
C2843 C2841 1.327 . S
C2844 C2832 1.349 . S
C2844 H2838 0.950 . S
C2844 C2845 1.327 . S
C2845 H2839 0.950 . S
C2845 C2844 1.327 . S
C2845 C2849 1.429 . S
C2846 C2829 1.574 . S
C2846 H2840 0.949 . S
C2846 C2850 1.368 . S
C2847 C2828 1.429 . S
C2847 C2841 1.429 . S
C2847 C2848 1.523 . S
C2848 C2829 1.368 . S
C2848 C2842 1.368 . S
C2848 C2847 1.523 . S
C2849 C2833 1.429 . S
C2849 C2845 1.429 . S
C2849 C2850 1.523 . S
C2850 C2834 1.368 . S
C2850 C2846 1.368 . S
C2850 C2849 1.523 . S
H2851 C2826 0.950 . S
H2852 C2828 0.950 . S
H2853 C2829 0.949 . S
H2854 C2831 0.950 . S
H2855 C2833 0.950 . S
C2856 C2857 1.349 . S
C2856 C2858 1.327 . S
C2856 H2881 0.950 . S
C2857 C2856 1.349 . S
C2857 C2873 1.349 . S
C2858 C2856 1.327 . S
C2858 C2877 1.429 . S
C2858 H2882 0.950 . S
C2859 C2876 1.574 . S
C2859 C2878 1.368 . S
C2859 H2883 0.949 . S
H2860 C2864 0.949 . S
C2861 C2862 1.349 . S
C2861 C2863 1.327 . S
C2861 H2884 0.950 . S
C2862 C2861 1.349 . S
C2862 C2874 1.349 . S
C2863 C2861 1.327 . S
C2863 C2879 1.429 . S
C2863 H2885 0.950 . S
C2864 H2860 0.949 . S
C2864 C2872 1.574 . S
C2864 C2880 1.368 . S
H2865 C2873 0.950 . S
H2866 C2871 0.950 . S
H2867 C2872 0.949 . S
H2868 C2874 0.950 . S
H2869 C2875 0.950 . S
H2870 C2876 0.949 . S
C2871 H2866 0.950 . S
C2871 C2873 1.327 . S
C2871 C2877 1.429 . S
C2872 C2864 1.574 . S
C2872 H2867 0.949 . S
C2872 C2878 1.368 . S
C2873 C2857 1.349 . S
C2873 H2865 0.950 . S
C2873 C2871 1.327 . S
C2874 C2862 1.349 . S
C2874 H2868 0.950 . S
C2874 C2875 1.327 . S
C2875 H2869 0.950 . S
C2875 C2874 1.327 . S
C2875 C2879 1.429 . S
C2876 C2859 1.574 . S
C2876 H2870 0.949 . S
C2876 C2880 1.368 . S
C2877 C2858 1.429 . S
C2877 C2871 1.429 . S
C2877 C2878 1.523 . S
C2878 C2859 1.368 . S
C2878 C2872 1.368 . S
C2878 C2877 1.523 . S
C2879 C2863 1.429 . S
C2879 C2875 1.429 . S
C2879 C2880 1.523 . S
C2880 C2864 1.368 . S
C2880 C2876 1.368 . S
C2880 C2879 1.523 . S
H2881 C2856 0.950 . S
H2882 C2858 0.950 . S
H2883 C2859 0.949 . S
H2884 C2861 0.950 . S
H2885 C2863 0.950 . S
C2886 C2887 1.349 . S
C2886 C2888 1.327 . S
C2886 H2911 0.950 . S
C2887 C2886 1.349 . S
C2887 C2903 1.349 . S
C2888 C2886 1.327 . S
C2888 C2907 1.429 . S
C2888 H2912 0.950 . S
C2889 C2906 1.574 . S
C2889 C2908 1.368 . S
C2889 H2913 0.949 1_545 S
H2890 C2894 0.949 . S
C2891 C2892 1.349 1_565 S
C2891 C2893 1.331 . S
C2891 H2914 0.950 . S
C2892 C2891 1.349 1_545 S
C2892 C2904 1.349 . S
C2893 C2891 1.331 . S
C2893 C2909 1.390 1_565 S
C2893 H2915 0.986 . S
C2894 H2890 0.949 . S
C2894 C2902 1.574 . S
C2894 C2910 1.368 . S
H2895 C2903 1.002 . S
H2896 C2901 0.950 1_565 S
H2897 C2902 0.949 . S
H2898 C2904 0.950 . S
H2899 C2905 0.950 . S
H2900 C2906 0.949 1_565 S
C2901 H2896 0.950 1_545 S
C2901 C2903 1.327 . S
C2901 C2907 1.429 . S
C2902 C2894 1.574 . S
C2902 H2897 0.949 . S
C2902 C2908 1.368 . S
C2903 C2887 1.349 . S
C2903 H2895 1.002 . S
C2903 C2901 1.327 . S
C2904 C2892 1.349 . S
C2904 H2898 0.950 . S
C2904 C2905 1.327 . S
C2905 H2899 0.950 . S
C2905 C2904 1.327 . S
C2905 C2909 1.429 . S
C2906 C2889 1.574 . S
C2906 H2900 0.949 1_545 S
C2906 C2910 1.368 . S
C2907 C2888 1.429 . S
C2907 C2901 1.429 . S
C2907 C2908 1.523 . S
C2908 C2889 1.368 . S
C2908 C2902 1.368 . S
C2908 C2907 1.523 . S
C2909 C2893 1.390 1_545 S
C2909 C2905 1.429 . S
C2909 C2910 1.523 . S
C2910 C2894 1.368 . S
C2910 C2906 1.368 . S
C2910 C2909 1.523 . S
H2911 C2886 0.950 . S
H2912 C2888 0.950 . S
H2913 C2889 0.949 1_565 S
H2914 C2891 0.950 . S
H2915 C2893 0.986 . S
C2916 C2917 1.349 . S
C2916 C2918 1.327 . S
C2916 H2941 0.950 . S
C2917 C2916 1.349 . S
C2917 C2933 1.349 . S
C2918 C2916 1.327 . S
C2918 C2937 1.429 . S
C2918 H2942 0.950 . S
C2919 C2936 1.574 . S
C2919 C2938 1.368 . S
C2919 H2943 0.949 . S
H2920 C2924 0.949 . S
C2921 C2922 1.349 . S
C2921 C2923 1.327 . S
C2921 H2944 0.950 . S
C2922 C2921 1.349 . S
C2922 C2934 1.349 . S
C2923 C2921 1.327 . S
C2923 C2939 1.429 . S
C2923 H2945 0.950 . S
C2924 H2920 0.949 . S
C2924 C2932 1.574 . S
C2924 C2940 1.368 . S
H2925 C2933 0.950 . S
H2926 C2931 0.950 . S
H2927 C2932 0.949 . S
H2928 C2934 0.950 . S
H2929 C2935 0.950 . S
H2930 C2936 0.949 . S
C2931 H2926 0.950 . S
C2931 C2933 1.327 . S
C2931 C2937 1.429 . S
C2932 C2924 1.574 . S
C2932 H2927 0.949 . S
C2932 C2938 1.368 . S
C2933 C2917 1.349 . S
C2933 H2925 0.950 . S
C2933 C2931 1.327 . S
C2934 C2922 1.349 . S
C2934 H2928 0.950 . S
C2934 C2935 1.327 . S
C2935 H2929 0.950 . S
C2935 C2934 1.327 . S
C2935 C2939 1.429 . S
C2936 C2919 1.574 . S
C2936 H2930 0.949 . S
C2936 C2940 1.368 . S
C2937 C2918 1.429 . S
C2937 C2931 1.429 . S
C2937 C2938 1.523 . S
C2938 C2919 1.368 . S
C2938 C2932 1.368 . S
C2938 C2937 1.523 . S
C2939 C2923 1.429 . S
C2939 C2935 1.429 . S
C2939 C2940 1.523 . S
C2940 C2924 1.368 . S
C2940 C2936 1.368 . S
C2940 C2939 1.523 . S
H2941 C2916 0.950 . S
H2942 C2918 0.950 . S
H2943 C2919 0.949 . S
H2944 C2921 0.950 . S
H2945 C2923 0.950 . S
C2946 C2947 1.349 . S
C2946 C2948 1.327 . S
C2946 H2971 0.950 . S
C2947 C2946 1.349 . S
C2947 C2963 1.349 . S
C2948 C2946 1.327 . S
C2948 C2967 1.429 . S
C2948 H2972 0.950 . S
C2949 C2966 1.574 . S
C2949 C2968 1.368 . S
C2949 H2973 0.949 . S
H2950 C2954 0.949 . S
C2951 C2952 1.349 . S
C2951 C2953 1.327 . S
C2951 H2974 0.950 . S
C2952 C2951 1.349 . S
C2952 C2964 1.349 . S
C2953 C2951 1.327 . S
C2953 C2969 1.429 . S
C2953 H2975 0.950 . S
C2954 H2950 0.949 . S
C2954 C2962 1.574 . S
C2954 C2970 1.368 . S
H2955 C2963 1.016 . S
H2956 C2961 0.950 . S
H2957 C2962 0.949 . S
H2958 C2964 0.950 . S
H2959 C2965 0.950 . S
H2960 C2966 0.949 . S
C2961 H2956 0.950 . S
C2961 C2963 1.327 . S
C2961 C2967 1.429 . S
C2962 C2954 1.574 . S
C2962 H2957 0.949 . S
C2962 C2968 1.368 . S
C2963 C2947 1.349 . S
C2963 H2955 1.016 . S
C2963 C2961 1.327 . S
C2964 C2952 1.349 . S
C2964 H2958 0.950 . S
C2964 C2965 1.327 . S
C2965 H2959 0.950 . S
C2965 C2964 1.327 . S
C2965 C2969 1.429 . S
C2966 C2949 1.574 . S
C2966 H2960 0.949 . S
C2966 C2970 1.368 . S
C2967 C2948 1.429 . S
C2967 C2961 1.429 . S
C2967 C2968 1.523 . S
C2968 C2949 1.368 . S
C2968 C2962 1.368 . S
C2968 C2967 1.523 . S
C2969 C2953 1.429 . S
C2969 C2965 1.429 . S
C2969 C2970 1.523 . S
C2970 C2954 1.368 . S
C2970 C2966 1.368 . S
C2970 C2969 1.523 . S
H2971 C2946 0.950 . S
H2972 C2948 0.950 . S
H2973 C2949 0.949 . S
H2974 C2951 0.950 . S
H2975 C2953 0.950 . S
C2976 C2977 1.349 . S
C2976 C2978 1.327 . S
C2976 H3001 0.950 . S
C2977 C2976 1.349 . S
C2977 C2993 1.349 . S
C2978 C2976 1.327 . S
C2978 C2997 1.429 . S
C2978 H3002 0.950 . S
C2979 C2996 1.574 . S
C2979 C2998 1.368 . S
C2979 H3003 0.949 . S
H2980 C2984 0.949 . S
C2981 C2982 1.349 . S
C2981 C2983 1.327 . S
C2981 H3004 0.950 . S
C2982 C2981 1.349 . S
C2982 C2994 1.349 . S
C2983 C2981 1.327 . S
C2983 C2999 1.429 . S
C2983 H3005 0.950 . S
C2984 H2980 0.949 . S
C2984 C2992 1.574 . S
C2984 C3000 1.368 . S
H2985 C2993 0.950 . S
H2986 C2991 0.950 . S
H2987 C2992 0.949 . S
H2988 C2994 0.950 . S
H2989 C2995 0.950 . S
H2990 C2996 0.949 . S
C2991 H2986 0.950 . S
C2991 C2993 1.327 . S
C2991 C2997 1.429 . S
C2992 C2984 1.574 . S
C2992 H2987 0.949 . S
C2992 C2998 1.368 . S
C2993 C2977 1.349 . S
C2993 H2985 0.950 . S
C2993 C2991 1.327 . S
C2994 C2982 1.349 . S
C2994 H2988 0.950 . S
C2994 C2995 1.327 . S
C2995 H2989 0.950 . S
C2995 C2994 1.327 . S
C2995 C2999 1.429 . S
C2996 C2979 1.574 . S
C2996 H2990 0.949 . S
C2996 C3000 1.368 . S
C2997 C2978 1.429 . S
C2997 C2991 1.429 . S
C2997 C2998 1.523 . S
C2998 C2979 1.368 . S
C2998 C2992 1.368 . S
C2998 C2997 1.523 . S
C2999 C2983 1.429 . S
C2999 C2995 1.429 . S
C2999 C3000 1.523 . S
C3000 C2984 1.368 . S
C3000 C2996 1.368 . S
C3000 C2999 1.523 . S
H3001 C2976 0.950 . S
H3002 C2978 0.950 . S
H3003 C2979 0.949 . S
H3004 C2981 0.950 . S
H3005 C2983 0.950 . S
C3006 C3007 1.349 . S
C3006 C3008 1.327 . S
C3006 H3031 0.950 . S
C3007 C3006 1.349 . S
C3007 C3023 1.349 . S
C3008 C3006 1.327 . S
C3008 C3027 1.429 . S
C3008 H3032 0.950 . S
C3009 C3026 1.574 . S
C3009 C3028 1.368 . S
C3009 H3033 0.949 . S
H3010 C3014 0.949 1_455 S
C3011 C3012 1.349 . S
C3011 C3013 1.327 . S
C3011 H3034 0.950 . S
C3012 C3011 1.349 . S
C3012 C3024 1.362 . S
C3013 C3011 1.327 . S
C3013 C3029 1.429 . S
C3013 H3035 0.950 . S
C3014 H3010 0.949 1_655 S
C3014 C3022 1.574 . S
C3014 C3030 1.368 . S
H3015 C3023 0.950 . S
H3016 C3021 0.950 . S
H3017 C3022 0.918 1_455 S
H3018 C3024 0.935 1_455 S
H3019 C3025 0.950 1_455 S
H3020 C3026 0.949 . S
C3021 H3016 0.950 . S
C3021 C3023 1.327 . S
C3021 C3027 1.429 . S
C3022 C3014 1.574 . S
C3022 H3017 0.918 1_655 S
C3022 C3028 1.368 . S
C3023 C3007 1.349 . S
C3023 H3015 0.950 . S
C3023 C3021 1.327 . S
C3024 C3012 1.362 . S
C3024 H3018 0.935 1_655 S
C3024 C3025 1.329 . S
C3025 H3019 0.950 1_655 S
C3025 C3024 1.329 . S
C3025 C3029 1.429 . S
C3026 C3009 1.574 . S
C3026 H3020 0.949 . S
C3026 C3030 1.368 . S
C3027 C3008 1.429 . S
C3027 C3021 1.429 . S
C3027 C3028 1.523 . S
C3028 C3009 1.368 . S
C3028 C3022 1.368 . S
C3028 C3027 1.523 . S
C3029 C3013 1.429 . S
C3029 C3025 1.429 . S
C3029 C3030 1.523 . S
C3030 C3014 1.368 . S
C3030 C3026 1.368 . S
C3030 C3029 1.523 . S
H3031 C3006 0.950 . S
H3032 C3008 0.950 . S
H3033 C3009 0.949 . S
H3034 C3011 0.950 . S
H3035 C3013 0.950 . S
C3036 C3037 1.349 . S
C3036 C3038 1.327 . S
C3036 H3061 0.950 . S
C3037 C3036 1.349 . S
C3037 C3053 1.349 . S
C3038 C3036 1.327 . S
C3038 C3057 1.429 . S
C3038 H3062 0.950 . S
C3039 C3056 1.574 . S
C3039 C3058 1.368 . S
C3039 H3063 0.949 . S
H3040 C3044 0.949 . S
C3041 C3042 1.349 . S
C3041 C3043 1.327 . S
C3041 H3064 0.950 . S
C3042 C3041 1.349 . S
C3042 C3054 1.349 . S
C3043 C3041 1.327 . S
C3043 C3059 1.429 . S
C3043 H3065 0.950 . S
C3044 H3040 0.949 . S
C3044 C3052 1.574 . S
C3044 C3060 1.368 . S
H3045 C3053 0.950 . S
H3046 C3051 0.950 . S
H3047 C3052 0.949 . S
H3048 C3054 0.950 . S
H3049 C3055 0.950 . S
H3050 C3056 0.949 . S
C3051 H3046 0.950 . S
C3051 C3053 1.327 . S
C3051 C3057 1.429 . S
C3052 C3044 1.574 . S
C3052 H3047 0.949 . S
C3052 C3058 1.368 . S
C3053 C3037 1.349 . S
C3053 H3045 0.950 . S
C3053 C3051 1.327 . S
C3054 C3042 1.349 . S
C3054 H3048 0.950 . S
C3054 C3055 1.327 . S
C3055 H3049 0.950 . S
C3055 C3054 1.327 . S
C3055 C3059 1.429 . S
C3056 C3039 1.574 . S
C3056 H3050 0.949 . S
C3056 C3060 1.368 . S
C3057 C3038 1.429 . S
C3057 C3051 1.429 . S
C3057 C3058 1.523 . S
C3058 C3039 1.368 . S
C3058 C3052 1.368 . S
C3058 C3057 1.523 . S
C3059 C3043 1.429 . S
C3059 C3055 1.429 . S
C3059 C3060 1.523 . S
C3060 C3044 1.368 . S
C3060 C3056 1.368 . S
C3060 C3059 1.523 . S
H3061 C3036 0.950 . S
H3062 C3038 0.950 . S
H3063 C3039 0.949 . S
H3064 C3041 0.950 . S
H3065 C3043 0.950 . S
C3066 C3067 1.349 . S
C3066 C3068 1.327 . S
C3066 H3091 0.950 . S
C3067 C3066 1.349 . S
C3067 C3083 1.349 . S
C3068 C3066 1.327 . S
C3068 C3087 1.429 . S
C3068 H3092 0.950 . S
C3069 C3086 1.574 . S
C3069 C3088 1.368 . S
C3069 H3093 0.949 . S
H3070 C3074 0.949 . S
C3071 C3072 1.349 . S
C3071 C3073 1.327 . S
C3071 H3094 0.950 . S
C3072 C3071 1.349 . S
C3072 C3084 1.349 . S
C3073 C3071 1.327 . S
C3073 C3089 1.429 . S
C3073 H3095 0.950 . S
C3074 H3070 0.949 . S
C3074 C3082 1.574 . S
C3074 C3090 1.368 . S
H3075 C3083 0.950 1_554 S
H3076 C3081 0.950 . S
H3077 C3082 0.949 . S
H3078 C3084 0.950 . S
H3079 C3085 0.950 . S
H3080 C3086 0.949 . S
C3081 H3076 0.950 . S
C3081 C3083 1.327 . S
C3081 C3087 1.429 . S
C3082 C3074 1.574 . S
C3082 H3077 0.949 . S
C3082 C3088 1.368 . S
C3083 C3067 1.349 . S
C3083 H3075 0.950 1_556 S
C3083 C3081 1.327 . S
C3084 C3072 1.349 . S
C3084 H3078 0.950 . S
C3084 C3085 1.327 . S
C3085 H3079 0.950 . S
C3085 C3084 1.327 . S
C3085 C3089 1.429 . S
C3086 C3069 1.574 . S
C3086 H3080 0.949 . S
C3086 C3090 1.368 . S
C3087 C3068 1.429 . S
C3087 C3081 1.429 . S
C3087 C3088 1.523 . S
C3088 C3069 1.368 . S
C3088 C3082 1.368 . S
C3088 C3087 1.523 . S
C3089 C3073 1.429 . S
C3089 C3085 1.429 . S
C3089 C3090 1.523 . S
C3090 C3074 1.368 . S
C3090 C3086 1.368 . S
C3090 C3089 1.523 . S
H3091 C3066 0.950 . S
H3092 C3068 0.950 . S
H3093 C3069 0.949 . S
H3094 C3071 0.950 . S
H3095 C3073 0.950 . S
C3096 C3097 1.349 . S
C3096 C3098 1.327 . S
C3096 H3121 0.950 . S
C3097 C3096 1.349 . S
C3097 C3113 1.349 . S
C3098 C3096 1.327 . S
C3098 C3117 1.429 . S
C3098 H3122 0.950 . S
C3099 C3116 1.574 . S
C3099 C3118 1.368 . S
C3099 H3123 0.949 . S
H3100 C3104 0.949 . S
C3101 C3102 1.349 . S
C3101 C3103 1.327 . S
C3101 H3124 0.950 . S
C3102 C3101 1.349 . S
C3102 C3114 1.349 . S
C3103 C3101 1.327 . S
C3103 C3119 1.429 . S
C3103 H3125 0.950 . S
C3104 H3100 0.949 . S
C3104 C3112 1.574 . S
C3104 C3120 1.368 . S
H3105 C3113 0.950 . S
H3106 C3111 0.950 . S
H3107 C3112 0.949 . S
H3108 C3114 0.950 . S
H3109 C3115 0.950 . S
H3110 C3116 0.949 . S
C3111 H3106 0.950 . S
C3111 C3113 1.327 . S
C3111 C3117 1.429 . S
C3112 C3104 1.574 . S
C3112 H3107 0.949 . S
C3112 C3118 1.368 . S
C3113 C3097 1.349 . S
C3113 H3105 0.950 . S
C3113 C3111 1.327 . S
C3114 C3102 1.349 . S
C3114 H3108 0.950 . S
C3114 C3115 1.327 . S
C3115 H3109 0.950 . S
C3115 C3114 1.327 . S
C3115 C3119 1.429 . S
C3116 C3099 1.574 . S
C3116 H3110 0.949 . S
C3116 C3120 1.368 . S
C3117 C3098 1.429 . S
C3117 C3111 1.429 . S
C3117 C3118 1.523 . S
C3118 C3099 1.368 . S
C3118 C3112 1.368 . S
C3118 C3117 1.523 . S
C3119 C3103 1.429 . S
C3119 C3115 1.429 . S
C3119 C3120 1.523 . S
C3120 C3104 1.368 . S
C3120 C3116 1.368 . S
C3120 C3119 1.523 . S
H3121 C3096 0.950 . S
H3122 C3098 0.950 . S
H3123 C3099 0.949 . S
H3124 C3101 0.950 . S
H3125 C3103 0.950 . S
C3126 C3127 1.349 . S
C3126 C3128 1.327 . S
C3126 H3151 0.950 . S
C3127 C3126 1.349 . S
C3127 C3143 1.349 . S
C3128 C3126 1.327 . S
C3128 C3147 1.429 . S
C3128 H3152 0.950 . S
C3129 C3146 1.574 . S
C3129 C3148 1.368 . S
C3129 H3153 0.949 . S
H3130 C3134 0.949 . S
C3131 C3132 1.349 . S
C3131 C3133 1.327 . S
C3131 H3154 0.950 . S
C3132 C3131 1.349 . S
C3132 C3144 1.349 . S
C3133 C3131 1.327 . S
C3133 C3149 1.429 . S
C3133 H3155 0.950 . S
C3134 H3130 0.949 . S
C3134 C3142 1.574 . S
C3134 C3150 1.368 . S
H3135 C3143 0.950 . S
H3136 C3141 0.950 . S
H3137 C3142 0.949 . S
H3138 C3144 0.950 . S
H3139 C3145 0.950 . S
H3140 C3146 0.949 . S
C3141 H3136 0.950 . S
C3141 C3143 1.327 . S
C3141 C3147 1.429 . S
C3142 C3134 1.574 . S
C3142 H3137 0.949 . S
C3142 C3148 1.368 . S
C3143 C3127 1.349 . S
C3143 H3135 0.950 . S
C3143 C3141 1.327 . S
C3144 C3132 1.349 . S
C3144 H3138 0.950 . S
C3144 C3145 1.327 . S
C3145 H3139 0.950 . S
C3145 C3144 1.327 . S
C3145 C3149 1.429 . S
C3146 C3129 1.574 . S
C3146 H3140 0.949 . S
C3146 C3150 1.368 . S
C3147 C3128 1.429 . S
C3147 C3141 1.429 . S
C3147 C3148 1.523 . S
C3148 C3129 1.368 . S
C3148 C3142 1.368 . S
C3148 C3147 1.523 . S
C3149 C3133 1.429 . S
C3149 C3145 1.429 . S
C3149 C3150 1.523 . S
C3150 C3134 1.368 . S
C3150 C3146 1.368 . S
C3150 C3149 1.523 . S
H3151 C3126 0.950 . S
H3152 C3128 0.950 . S
H3153 C3129 0.949 . S
H3154 C3131 0.950 . S
H3155 C3133 0.950 . S
C3156 C3157 1.349 . S
C3156 C3158 1.327 . S
C3156 H3181 0.950 . S
C3157 C3156 1.349 . S
C3157 C3173 1.349 . S
C3158 C3156 1.327 . S
C3158 C3177 1.429 . S
C3158 H3182 0.950 . S
C3159 C3176 1.574 . S
C3159 C3178 1.368 . S
C3159 H3183 0.949 . S
H3160 C3164 0.949 . S
C3161 C3162 1.349 . S
C3161 C3163 1.327 . S
C3161 H3184 0.950 . S
C3162 C3161 1.349 . S
C3162 C3174 1.349 . S
C3163 C3161 1.327 . S
C3163 C3179 1.429 . S
C3163 H3185 0.950 . S
C3164 H3160 0.949 . S
C3164 C3172 1.574 . S
C3164 C3180 1.368 . S
H3165 C3173 0.950 . S
H3166 C3171 0.950 . S
H3167 C3172 0.949 . S
H3168 C3174 0.950 . S
H3169 C3175 0.950 . S
H3170 C3176 0.949 . S
C3171 H3166 0.950 . S
C3171 C3173 1.327 . S
C3171 C3177 1.429 . S
C3172 C3164 1.574 . S
C3172 H3167 0.949 . S
C3172 C3178 1.368 . S
C3173 C3157 1.349 . S
C3173 H3165 0.950 . S
C3173 C3171 1.327 . S
C3174 C3162 1.349 . S
C3174 H3168 0.950 . S
C3174 C3175 1.327 . S
C3175 H3169 0.950 . S
C3175 C3174 1.327 . S
C3175 C3179 1.429 . S
C3176 C3159 1.574 . S
C3176 H3170 0.949 . S
C3176 C3180 1.368 . S
C3177 C3158 1.429 . S
C3177 C3171 1.429 . S
C3177 C3178 1.523 . S
C3178 C3159 1.368 . S
C3178 C3172 1.368 . S
C3178 C3177 1.523 . S
C3179 C3163 1.429 . S
C3179 C3175 1.429 . S
C3179 C3180 1.523 . S
C3180 C3164 1.368 . S
C3180 C3176 1.368 . S
C3180 C3179 1.523 . S
H3181 C3156 0.950 . S
H3182 C3158 0.950 . S
H3183 C3159 0.949 . S
H3184 C3161 0.950 . S
H3185 C3163 0.950 . S
C3186 C3187 1.349 . S
C3186 C3188 1.327 . S
C3186 H3211 0.950 . S
C3187 C3186 1.349 . S
C3187 C3203 1.349 . S
C3188 C3186 1.327 . S
C3188 C3207 1.429 . S
C3188 H3212 0.950 . S
C3189 C3206 1.574 . S
C3189 C3208 1.368 . S
C3189 H3213 0.949 . S
H3190 C3194 0.949 . S
C3191 C3192 1.349 . S
C3191 C3193 1.327 . S
C3191 H3214 0.950 . S
C3192 C3191 1.349 . S
C3192 C3204 1.349 . S
C3193 C3191 1.327 . S
C3193 C3209 1.429 . S
C3193 H3215 0.950 . S
C3194 H3190 0.949 . S
C3194 C3202 1.574 . S
C3194 C3210 1.368 . S
H3195 C3203 0.950 . S
H3196 C3201 0.950 . S
H3197 C3202 0.949 . S
H3198 C3204 0.950 . S
H3199 C3205 0.950 . S
H3200 C3206 0.949 . S
C3201 H3196 0.950 . S
C3201 C3203 1.327 . S
C3201 C3207 1.429 . S
C3202 C3194 1.574 . S
C3202 H3197 0.949 . S
C3202 C3208 1.368 . S
C3203 C3187 1.349 . S
C3203 H3195 0.950 . S
C3203 C3201 1.327 . S
C3204 C3192 1.349 . S
C3204 H3198 0.950 . S
C3204 C3205 1.327 . S
C3205 H3199 0.950 . S
C3205 C3204 1.327 . S
C3205 C3209 1.429 . S
C3206 C3189 1.574 . S
C3206 H3200 0.949 . S
C3206 C3210 1.368 . S
C3207 C3188 1.429 . S
C3207 C3201 1.429 . S
C3207 C3208 1.523 . S
C3208 C3189 1.368 . S
C3208 C3202 1.368 . S
C3208 C3207 1.523 . S
C3209 C3193 1.429 . S
C3209 C3205 1.429 . S
C3209 C3210 1.523 . S
C3210 C3194 1.368 . S
C3210 C3206 1.368 . S
C3210 C3209 1.523 . S
H3211 C3186 0.950 . S
H3212 C3188 0.950 . S
H3213 C3189 0.949 . S
H3214 C3191 0.950 . S
H3215 C3193 0.950 . S
C3216 C3217 1.349 . S
C3216 C3218 1.327 . S
C3216 H3241 0.950 . S
C3217 C3216 1.349 . S
C3217 C3233 1.349 . S
C3218 C3216 1.327 . S
C3218 C3237 1.429 . S
C3218 H3242 0.950 . S
C3219 C3236 1.574 . S
C3219 C3238 1.368 . S
C3219 H3243 0.949 . S
H3220 C3224 0.949 . S
C3221 C3222 1.349 . S
C3221 C3223 1.327 . S
C3221 H3244 0.950 . S
C3222 C3221 1.349 . S
C3222 C3234 1.349 . S
C3223 C3221 1.327 . S
C3223 C3239 1.429 . S
C3223 H3245 0.950 . S
C3224 H3220 0.949 . S
C3224 C3232 1.574 . S
C3224 C3240 1.368 . S
H3225 C3233 0.950 . S
H3226 C3231 0.950 . S
H3227 C3232 0.949 . S
H3228 C3234 0.950 . S
H3229 C3235 0.950 . S
H3230 C3236 0.949 . S
C3231 H3226 0.950 . S
C3231 C3233 1.327 . S
C3231 C3237 1.429 . S
C3232 C3224 1.574 . S
C3232 H3227 0.949 . S
C3232 C3238 1.368 . S
C3233 C3217 1.349 . S
C3233 H3225 0.950 . S
C3233 C3231 1.327 . S
C3234 C3222 1.349 . S
C3234 H3228 0.950 . S
C3234 C3235 1.327 . S
C3235 H3229 0.950 . S
C3235 C3234 1.327 . S
C3235 C3239 1.429 . S
C3236 C3219 1.574 . S
C3236 H3230 0.949 . S
C3236 C3240 1.368 . S
C3237 C3218 1.429 . S
C3237 C3231 1.429 . S
C3237 C3238 1.523 . S
C3238 C3219 1.368 . S
C3238 C3232 1.368 . S
C3238 C3237 1.523 . S
C3239 C3223 1.429 . S
C3239 C3235 1.429 . S
C3239 C3240 1.523 . S
C3240 C3224 1.368 . S
C3240 C3236 1.368 . S
C3240 C3239 1.523 . S
H3241 C3216 0.950 . S
H3242 C3218 0.950 . S
H3243 C3219 0.949 . S
H3244 C3221 0.950 . S
H3245 C3223 0.950 . S
C3246 C3247 1.349 . S
C3246 C3248 1.327 . S
C3246 H3271 0.950 . S
C3247 C3246 1.349 . S
C3247 C3263 1.349 . S
C3248 C3246 1.327 . S
C3248 C3267 1.429 . S
C3248 H3272 0.950 . S
C3249 C3266 1.574 . S
C3249 C3268 1.368 . S
C3249 H3273 0.949 . S
H3250 C3254 0.949 . S
C3251 C3252 1.349 . S
C3251 C3253 1.327 . S
C3251 H3274 0.950 . S
C3252 C3251 1.349 . S
C3252 C3264 1.349 . S
C3253 C3251 1.327 . S
C3253 C3269 1.429 . S
C3253 H3275 0.950 . S
C3254 H3250 0.949 . S
C3254 C3262 1.574 . S
C3254 C3270 1.368 . S
H3255 C3263 0.950 . S
H3256 C3261 0.950 . S
H3257 C3262 0.949 . S
H3258 C3264 0.950 . S
H3259 C3265 0.950 . S
H3260 C3266 0.949 . S
C3261 H3256 0.950 . S
C3261 C3263 1.327 . S
C3261 C3267 1.429 . S
C3262 C3254 1.574 . S
C3262 H3257 0.949 . S
C3262 C3268 1.368 . S
C3263 C3247 1.349 . S
C3263 H3255 0.950 . S
C3263 C3261 1.327 . S
C3264 C3252 1.349 . S
C3264 H3258 0.950 . S
C3264 C3265 1.327 . S
C3265 H3259 0.950 . S
C3265 C3264 1.327 . S
C3265 C3269 1.429 . S
C3266 C3249 1.574 . S
C3266 H3260 0.949 . S
C3266 C3270 1.368 . S
C3267 C3248 1.429 . S
C3267 C3261 1.429 . S
C3267 C3268 1.523 . S
C3268 C3249 1.368 . S
C3268 C3262 1.368 . S
C3268 C3267 1.523 . S
C3269 C3253 1.429 . S
C3269 C3265 1.429 . S
C3269 C3270 1.523 . S
C3270 C3254 1.368 . S
C3270 C3266 1.368 . S
C3270 C3269 1.523 . S
H3271 C3246 0.950 . S
H3272 C3248 0.950 . S
H3273 C3249 0.949 . S
H3274 C3251 0.950 . S
H3275 C3253 0.950 . S
C3276 C3277 1.349 . S
C3276 C3278 1.327 . S
C3276 H3301 0.950 . S
C3277 C3276 1.349 . S
C3277 C3293 1.349 . S
C3278 C3276 1.327 . S
C3278 C3297 1.429 . S
C3278 H3302 0.950 . S
C3279 C3296 1.574 . S
C3279 C3298 1.368 . S
C3279 H3303 0.949 . S
H3280 C3284 0.949 . S
C3281 C3282 1.349 . S
C3281 C3283 1.327 . S
C3281 H3304 0.950 . S
C3282 C3281 1.349 . S
C3282 C3294 1.349 . S
C3283 C3281 1.327 . S
C3283 C3299 1.429 . S
C3283 H3305 0.950 . S
C3284 H3280 0.949 . S
C3284 C3292 1.574 . S
C3284 C3300 1.368 . S
H3285 C3293 0.950 . S
H3286 C3291 0.950 . S
H3287 C3292 0.949 . S
H3288 C3294 0.950 . S
H3289 C3295 0.950 . S
H3290 C3296 0.949 . S
C3291 H3286 0.950 . S
C3291 C3293 1.327 . S
C3291 C3297 1.429 . S
C3292 C3284 1.574 . S
C3292 H3287 0.949 . S
C3292 C3298 1.368 . S
C3293 C3277 1.349 . S
C3293 H3285 0.950 . S
C3293 C3291 1.327 . S
C3294 C3282 1.349 . S
C3294 H3288 0.950 . S
C3294 C3295 1.327 . S
C3295 H3289 0.950 . S
C3295 C3294 1.327 . S
C3295 C3299 1.429 . S
C3296 C3279 1.574 . S
C3296 H3290 0.949 . S
C3296 C3300 1.368 . S
C3297 C3278 1.429 . S
C3297 C3291 1.429 . S
C3297 C3298 1.523 . S
C3298 C3279 1.368 . S
C3298 C3292 1.368 . S
C3298 C3297 1.523 . S
C3299 C3283 1.429 . S
C3299 C3295 1.429 . S
C3299 C3300 1.523 . S
C3300 C3284 1.368 . S
C3300 C3296 1.368 . S
C3300 C3299 1.523 . S
H3301 C3276 0.950 . S
H3302 C3278 0.950 . S
H3303 C3279 0.949 . S
H3304 C3281 0.950 . S
H3305 C3283 0.950 . S
C3306 C3307 1.349 . S
C3306 C3308 1.327 . S
C3306 H3331 0.950 . S
C3307 C3306 1.349 . S
C3307 C3323 1.349 . S
C3308 C3306 1.327 . S
C3308 C3327 1.429 . S
C3308 H3332 0.950 . S
C3309 C3326 1.574 . S
C3309 C3328 1.368 . S
C3309 H3333 0.949 . S
H3310 C3314 0.949 . S
C3311 C3312 1.349 . S
C3311 C3313 1.327 . S
C3311 H3334 0.950 . S
C3312 C3311 1.349 . S
C3312 C3324 1.349 . S
C3313 C3311 1.327 . S
C3313 C3329 1.429 . S
C3313 H3335 0.950 . S
C3314 H3310 0.949 . S
C3314 C3322 1.574 . S
C3314 C3330 1.368 . S
H3315 C3323 0.950 . S
H3316 C3321 0.950 . S
H3317 C3322 0.949 . S
H3318 C3324 0.950 . S
H3319 C3325 0.950 . S
H3320 C3326 0.949 . S
C3321 H3316 0.950 . S
C3321 C3323 1.327 . S
C3321 C3327 1.429 . S
C3322 C3314 1.574 . S
C3322 H3317 0.949 . S
C3322 C3328 1.368 . S
C3323 C3307 1.349 . S
C3323 H3315 0.950 . S
C3323 C3321 1.327 . S
C3324 C3312 1.349 . S
C3324 H3318 0.950 . S
C3324 C3325 1.327 . S
C3325 H3319 0.950 . S
C3325 C3324 1.327 . S
C3325 C3329 1.429 . S
C3326 C3309 1.574 . S
C3326 H3320 0.949 . S
C3326 C3330 1.368 . S
C3327 C3308 1.429 . S
C3327 C3321 1.429 . S
C3327 C3328 1.523 . S
C3328 C3309 1.368 . S
C3328 C3322 1.368 . S
C3328 C3327 1.523 . S
C3329 C3313 1.429 . S
C3329 C3325 1.429 . S
C3329 C3330 1.523 . S
C3330 C3314 1.368 . S
C3330 C3326 1.368 . S
C3330 C3329 1.523 . S
H3331 C3306 0.950 . S
H3332 C3308 0.950 . S
H3333 C3309 0.949 . S
H3334 C3311 0.950 . S
H3335 C3313 0.950 . S
C3336 C3337 1.349 . S
C3336 C3338 1.327 . S
C3336 H3361 0.950 . S
C3337 C3336 1.349 . S
C3337 C3353 1.349 . S
C3338 C3336 1.327 . S
C3338 C3357 1.429 . S
C3338 H3362 0.973 . S
C3339 C3356 1.574 . S
C3339 C3358 1.368 . S
C3339 H3363 0.949 . S
H3340 C3344 0.949 1_554 S
C3341 C3342 1.349 . S
C3341 C3343 1.327 . S
C3341 H3364 0.950 . S
C3342 C3341 1.349 . S
C3342 C3354 1.339 1_556 S
C3343 C3341 1.327 . S
C3343 C3359 1.429 . S
C3343 H3365 0.950 . S
C3344 H3340 0.949 1_556 S
C3344 C3352 1.574 . S
C3344 C3360 1.368 . S
H3345 C3353 0.950 . S
H3346 C3351 0.950 . S
H3347 C3352 0.949 1_554 S
H3348 C3354 0.961 . S
H3349 C3355 0.901 1_554 S
H3350 C3356 0.949 . S
C3351 H3346 0.950 . S
C3351 C3353 1.327 . S
C3351 C3357 1.429 . S
C3352 C3344 1.574 . S
C3352 H3347 0.949 1_556 S
C3352 C3358 1.368 . S
C3353 C3337 1.349 . S
C3353 H3345 0.950 . S
C3353 C3351 1.327 . S
C3354 C3342 1.339 1_554 S
C3354 H3348 0.961 . S
C3354 C3355 1.323 1_554 S
C3355 H3349 0.901 1_556 S
C3355 C3354 1.323 1_556 S
C3355 C3359 1.484 . S
C3356 C3339 1.574 . S
C3356 H3350 0.949 . S
C3356 C3360 1.368 . S
C3357 C3338 1.429 . S
C3357 C3351 1.429 . S
C3357 C3358 1.523 . S
C3358 C3339 1.368 . S
C3358 C3352 1.368 . S
C3358 C3357 1.523 . S
C3359 C3343 1.429 . S
C3359 C3355 1.484 . S
C3359 C3360 1.523 . S
C3360 C3344 1.368 . S
C3360 C3356 1.368 . S
C3360 C3359 1.523 . S
H3361 C3336 0.950 . S
H3362 C3338 0.973 . S
H3363 C3339 0.949 . S
H3364 C3341 0.950 . S
H3365 C3343 0.950 . S
C3366 C3367 1.349 . S
C3366 C3368 1.327 . S
C3366 H3391 0.950 . S
C3367 C3366 1.349 . S
C3367 C3383 1.349 . S
C3368 C3366 1.327 . S
C3368 C3387 1.429 . S
C3368 H3392 0.950 . S
C3369 C3386 1.574 . S
C3369 C3388 1.368 . S
C3369 H3393 0.949 . S
H3370 C3374 0.949 . S
C3371 C3372 1.349 . S
C3371 C3373 1.327 . S
C3371 H3394 0.950 . S
C3372 C3371 1.349 . S
C3372 C3384 1.349 . S
C3373 C3371 1.327 . S
C3373 C3389 1.429 . S
C3373 H3395 0.950 . S
C3374 H3370 0.949 . S
C3374 C3382 1.574 . S
C3374 C3390 1.368 . S
H3375 C3383 0.950 . S
H3376 C3381 0.950 . S
H3377 C3382 0.949 . S
H3378 C3384 0.950 . S
H3379 C3385 0.950 . S
H3380 C3386 0.949 . S
C3381 H3376 0.950 . S
C3381 C3383 1.327 . S
C3381 C3387 1.429 . S
C3382 C3374 1.574 . S
C3382 H3377 0.949 . S
C3382 C3388 1.368 . S
C3383 C3367 1.349 . S
C3383 H3375 0.950 . S
C3383 C3381 1.327 . S
C3384 C3372 1.349 . S
C3384 H3378 0.950 . S
C3384 C3385 1.327 . S
C3385 H3379 0.950 . S
C3385 C3384 1.327 . S
C3385 C3389 1.429 . S
C3386 C3369 1.574 . S
C3386 H3380 0.949 . S
C3386 C3390 1.368 . S
C3387 C3368 1.429 . S
C3387 C3381 1.429 . S
C3387 C3388 1.523 . S
C3388 C3369 1.368 . S
C3388 C3382 1.368 . S
C3388 C3387 1.523 . S
C3389 C3373 1.429 . S
C3389 C3385 1.429 . S
C3389 C3390 1.523 . S
C3390 C3374 1.368 . S
C3390 C3386 1.368 . S
C3390 C3389 1.523 . S
H3391 C3366 0.950 . S
H3392 C3368 0.950 . S
H3393 C3369 0.949 . S
H3394 C3371 0.950 . S
H3395 C3373 0.950 . S
C3396 C3397 1.349 . S
C3396 C3398 1.327 . S
C3396 H3421 0.950 . S
C3397 C3396 1.349 . S
C3397 C3413 1.349 . S
C3398 C3396 1.327 . S
C3398 C3417 1.429 . S
C3398 H3422 0.950 . S
C3399 C3416 1.574 . S
C3399 C3418 1.368 . S
C3399 H3423 0.949 . S
H3400 C3404 0.907 1_556 S
C3401 C3402 1.349 . S
C3401 C3403 1.327 . S
C3401 H3424 0.950 . S
C3402 C3401 1.349 . S
C3402 C3414 1.349 . S
C3403 C3401 1.327 . S
C3403 C3419 1.429 . S
C3403 H3425 0.950 . S
C3404 H3400 0.907 1_554 S
C3404 C3412 1.574 . S
C3404 C3420 1.368 . S
H3405 C3413 0.950 . S
H3406 C3411 0.950 . S
H3407 C3412 0.949 . S
H3408 C3414 0.950 1_556 S
H3409 C3415 0.950 1_556 S
H3410 C3416 0.949 . S
C3411 H3406 0.950 . S
C3411 C3413 1.327 . S
C3411 C3417 1.429 . S
C3412 C3404 1.574 . S
C3412 H3407 0.949 . S
C3412 C3418 1.368 . S
C3413 C3397 1.349 . S
C3413 H3405 0.950 . S
C3413 C3411 1.327 . S
C3414 C3402 1.349 . S
C3414 H3408 0.950 1_554 S
C3414 C3415 1.327 . S
C3415 H3409 0.950 1_554 S
C3415 C3414 1.327 . S
C3415 C3419 1.429 . S
C3416 C3399 1.574 . S
C3416 H3410 0.949 . S
C3416 C3420 1.368 . S
C3417 C3398 1.429 . S
C3417 C3411 1.429 . S
C3417 C3418 1.523 . S
C3418 C3399 1.368 . S
C3418 C3412 1.368 . S
C3418 C3417 1.523 . S
C3419 C3403 1.429 . S
C3419 C3415 1.429 . S
C3419 C3420 1.523 . S
C3420 C3404 1.368 . S
C3420 C3416 1.368 . S
C3420 C3419 1.523 . S
H3421 C3396 0.950 . S
H3422 C3398 0.950 . S
H3423 C3399 0.949 . S
H3424 C3401 0.950 . S
H3425 C3403 0.950 . S
C3426 C3427 1.349 . S
C3426 C3428 1.327 . S
C3426 H3451 0.950 . S
C3427 C3426 1.349 . S
C3427 C3443 1.349 . S
C3428 C3426 1.327 . S
C3428 C3447 1.429 . S
C3428 H3452 0.950 . S
C3429 C3446 1.574 . S
C3429 C3448 1.368 . S
C3429 H3453 0.962 . S
H3430 C3434 0.949 . S
C3431 C3432 1.398 . S
C3431 C3433 1.336 . S
C3431 H3454 0.896 1_554 S
C3432 C3431 1.398 . S
C3432 C3444 1.349 . S
C3433 C3431 1.336 . S
C3433 C3449 1.429 . S
C3433 H3455 0.950 1_554 S
C3434 H3430 0.949 . S
C3434 C3442 1.574 . S
C3434 C3450 1.368 . S
H3435 C3443 0.950 . S
H3436 C3441 0.950 . S
H3437 C3442 0.949 . S
H3438 C3444 0.950 . S
H3439 C3445 0.950 . S
H3440 C3446 0.949 1_556 S
C3441 H3436 0.950 . S
C3441 C3443 1.327 . S
C3441 C3447 1.429 . S
C3442 C3434 1.574 . S
C3442 H3437 0.949 . S
C3442 C3448 1.368 . S
C3443 C3427 1.349 . S
C3443 H3435 0.950 . S
C3443 C3441 1.327 . S
C3444 C3432 1.349 . S
C3444 H3438 0.950 . S
C3444 C3445 1.327 . S
C3445 H3439 0.950 . S
C3445 C3444 1.327 . S
C3445 C3449 1.429 . S
C3446 C3429 1.574 . S
C3446 H3440 0.949 1_554 S
C3446 C3450 1.368 . S
C3447 C3428 1.429 . S
C3447 C3441 1.429 . S
C3447 C3448 1.523 . S
C3448 C3429 1.368 . S
C3448 C3442 1.368 . S
C3448 C3447 1.523 . S
C3449 C3433 1.429 . S
C3449 C3445 1.429 . S
C3449 C3450 1.523 . S
C3450 C3434 1.368 . S
C3450 C3446 1.368 . S
C3450 C3449 1.523 . S
H3451 C3426 0.950 . S
H3452 C3428 0.950 . S
H3453 C3429 0.962 . S
H3454 C3431 0.896 1_556 S
H3455 C3433 0.950 1_556 S
C2022 C1009 1.510 . S
C2017 C331 1.499 . S
C2052 C1068 1.522 . S
C2047 C380 1.504 . S
C2077 C421 1.491 . S
C2082 C1185 1.517 . S
C2112 C1253 1.522 . S
C2107 C260 1.491 . S
C2142 C1332 1.510 . S
C2137 C620 1.491 . S
C2172 C1457 1.522 . S
C2167 C740 1.503 . S
C2197 C680 1.478 . S
C2202 C1517 1.510 . S
C2232 C1625 1.522 . S
C2227 C571 1.506 . S
C2257 C691 1.479 . S
C2262 C1721 1.518 . S
C2292 C1781 1.522 . S
C2287 C541 1.504 . S
C2317 C601 1.491 . S
C2322 C1684 1.502 . S
C2352 C1801 1.522 . S
C2347 C721 1.503 . S
C2377 C451 1.491 . S
C2382 C1869 1.517 . S
C2407 C241 1.490 . S
C2412 C1860 1.521 . S
C2437 C320 1.491 . S
C2442 C1889 1.502 . S
C2467 C391 1.504 . S
C2472 C1897 1.523 . S
C2497 C211 1.491 . S
C2502 C1281 1.518 . S
C2527 C841 1.491 . S
C2532 C1244 1.502 . S
C2562 C980 1.522 . S
C2557 C901 1.506 . S
C2592 C1077 1.510 . S
C2587 C500 1.491 . S
C2617 C271 1.490 . S
C2622 C1341 1.522 . S
C2652 C1633 1.510 . S
C2647 C661 1.472 . S
C2682 C1361 1.522 . S
C2677 C560 1.504 . S
C2712 C1545 1.522 . S
C2707 C751 1.503 . S
C2742 C1537 1.510 . S
C2737 C871 1.491 . S
C2767 C920 1.504 . S
C2772 C1605 1.521 . S
C2797 C481 1.491 . S
C2802 C1369 1.510 . S
C2832 C1420 1.522 . S
C2827 C800 1.490 . S
C2857 C200 1.491 . S
C2862 C1165 1.502 . S
C2892 C1273 1.522 . S
C2887 C20 1.504 . S
C2922 C989 1.510 . S
C2917 C80 1.471 . S
C2952 C1105 1.522 . S
C2947 C151 1.504 . S
C2977 C91 1.479 . S
C2982 C1809 1.510 . S
C3007 C121 1.504 . S
C3012 C1693 1.523 . S
C3037 C181 1.491 . S
C3042 C1772 1.510 . S
C3067 C1 1.503 . S
C3072 C1713 1.521 . S
C3102 C1957 1.510 . S
C3097 C511 1.491 . S
C3132 C1948 1.522 . S
C3127 C781 1.490 . S
C3162 C1977 1.510 . S
C3157 C860 1.491 . S
C3187 C931 1.504 . S
C3192 C1985 1.522 . S
C3217 C631 1.491 . S
C3222 C1449 1.510 . S
C3252 C1429 1.510 . S
C3247 C301 1.491 . S
C3282 C1508 1.522 . S
C3277 C361 1.504 . S
C3312 C1596 1.510 . S
C3307 C440 1.499 . S
C3337 C811 1.490 . S
C3342 C1156 1.523 . S
C3372 C1097 1.510 . S
C3367 C61 1.479 . S
C3397 C140 1.504 . S
C3402 C1193 1.521 . S
C3432 C1017 1.522 . S
C3427 C31 1.504 . S
