# Generated by pormake.
# Topology ctn, (3,4)-cn, num edge types: 1
# Building blocks:
#     Node 0, Type 0, BuildingBlock: BETDAH_clean_linker_0, # of connection points: 3
#     Node 1, Type 0, BuildingBlock: BETDAH_clean_linker_0, # of connection points: 3
#     Node 2, Type 0, BuildingBlock: BETDAH_clean_linker_0, # of connection points: 3
#     Node 3, Type 0, BuildingBlock: BETDAH_clean_linker_0, # of connection points: 3
#     Node 4, Type 0, BuildingBlock: BETDAH_clean_linker_0, # of connection points: 3
#     Node 5, Type 0, BuildingBlock: BETDAH_clean_linker_0, # of connection points: 3
#     Node 6, Type 0, BuildingBlock: BETDAH_clean_linker_0, # of connection points: 3
#     Node 7, Type 0, BuildingBlock: BETDAH_clean_linker_0, # of connection points: 3
#     Node 8, Type 0, BuildingBlock: BETDAH_clean_linker_0, # of connection points: 3
#     Node 9, Type 0, BuildingBlock: BETDAH_clean_linker_0, # of connection points: 3
#     Node 10, Type 0, BuildingBlock: BETDAH_clean_linker_0, # of connection points: 3
#     Node 11, Type 0, BuildingBlock: BETDAH_clean_linker_0, # of connection points: 3
#     Node 12, Type 0, BuildingBlock: BETDAH_clean_linker_0, # of connection points: 3
#     Node 13, Type 0, BuildingBlock: BETDAH_clean_linker_0, # of connection points: 3
#     Node 14, Type 0, BuildingBlock: BETDAH_clean_linker_0, # of connection points: 3
#     Node 15, Type 0, BuildingBlock: BETDAH_clean_linker_0, # of connection points: 3
#     Node 16, Type 1, BuildingBlock: UXUYUI_clean_sbu_0, # of connection points: 4
#     Node 17, Type 1, BuildingBlock: UXUYUI_clean_sbu_0, # of connection points: 4
#     Node 18, Type 1, BuildingBlock: UXUYUI_clean_sbu_0, # of connection points: 4
#     Node 19, Type 1, BuildingBlock: UXUYUI_clean_sbu_0, # of connection points: 4
#     Node 20, Type 1, BuildingBlock: UXUYUI_clean_sbu_0, # of connection points: 4
#     Node 21, Type 1, BuildingBlock: UXUYUI_clean_sbu_0, # of connection points: 4
#     Node 22, Type 1, BuildingBlock: UXUYUI_clean_sbu_0, # of connection points: 4
#     Node 23, Type 1, BuildingBlock: UXUYUI_clean_sbu_0, # of connection points: 4
#     Node 24, Type 1, BuildingBlock: UXUYUI_clean_sbu_0, # of connection points: 4
#     Node 25, Type 1, BuildingBlock: UXUYUI_clean_sbu_0, # of connection points: 4
#     Node 26, Type 1, BuildingBlock: UXUYUI_clean_sbu_0, # of connection points: 4
#     Node 27, Type 1, BuildingBlock: UXUYUI_clean_sbu_0, # of connection points: 4
#     Edge 28, Type (0, 1), BuildingBlock: KIFKEQ_clean_linker_1, # of connection points: 2
#     Edge 29, Type (0, 1), BuildingBlock: KIFKEQ_clean_linker_1, # of connection points: 2
#     Edge 30, Type (0, 1), BuildingBlock: KIFKEQ_clean_linker_1, # of connection points: 2
#     Edge 31, Type (0, 1), BuildingBlock: KIFKEQ_clean_linker_1, # of connection points: 2
#     Edge 32, Type (0, 1), BuildingBlock: KIFKEQ_clean_linker_1, # of connection points: 2
#     Edge 33, Type (0, 1), BuildingBlock: KIFKEQ_clean_linker_1, # of connection points: 2
#     Edge 34, Type (0, 1), BuildingBlock: KIFKEQ_clean_linker_1, # of connection points: 2
#     Edge 35, Type (0, 1), BuildingBlock: KIFKEQ_clean_linker_1, # of connection points: 2
#     Edge 36, Type (0, 1), BuildingBlock: KIFKEQ_clean_linker_1, # of connection points: 2
#     Edge 37, Type (0, 1), BuildingBlock: KIFKEQ_clean_linker_1, # of connection points: 2
#     Edge 38, Type (0, 1), BuildingBlock: KIFKEQ_clean_linker_1, # of connection points: 2
#     Edge 39, Type (0, 1), BuildingBlock: KIFKEQ_clean_linker_1, # of connection points: 2
#     Edge 40, Type (0, 1), BuildingBlock: KIFKEQ_clean_linker_1, # of connection points: 2
#     Edge 41, Type (0, 1), BuildingBlock: KIFKEQ_clean_linker_1, # of connection points: 2
#     Edge 42, Type (0, 1), BuildingBlock: KIFKEQ_clean_linker_1, # of connection points: 2
#     Edge 43, Type (0, 1), BuildingBlock: KIFKEQ_clean_linker_1, # of connection points: 2
#     Edge 44, Type (0, 1), BuildingBlock: KIFKEQ_clean_linker_1, # of connection points: 2
#     Edge 45, Type (0, 1), BuildingBlock: KIFKEQ_clean_linker_1, # of connection points: 2
#     Edge 46, Type (0, 1), BuildingBlock: KIFKEQ_clean_linker_1, # of connection points: 2
#     Edge 47, Type (0, 1), BuildingBlock: KIFKEQ_clean_linker_1, # of connection points: 2
#     Edge 48, Type (0, 1), BuildingBlock: KIFKEQ_clean_linker_1, # of connection points: 2
#     Edge 49, Type (0, 1), BuildingBlock: KIFKEQ_clean_linker_1, # of connection points: 2
#     Edge 50, Type (0, 1), BuildingBlock: KIFKEQ_clean_linker_1, # of connection points: 2
#     Edge 51, Type (0, 1), BuildingBlock: KIFKEQ_clean_linker_1, # of connection points: 2
#     Edge 52, Type (0, 1), BuildingBlock: KIFKEQ_clean_linker_1, # of connection points: 2
#     Edge 53, Type (0, 1), BuildingBlock: KIFKEQ_clean_linker_1, # of connection points: 2
#     Edge 54, Type (0, 1), BuildingBlock: KIFKEQ_clean_linker_1, # of connection points: 2
#     Edge 55, Type (0, 1), BuildingBlock: KIFKEQ_clean_linker_1, # of connection points: 2
#     Edge 56, Type (0, 1), BuildingBlock: KIFKEQ_clean_linker_1, # of connection points: 2
#     Edge 57, Type (0, 1), BuildingBlock: KIFKEQ_clean_linker_1, # of connection points: 2
#     Edge 58, Type (0, 1), BuildingBlock: KIFKEQ_clean_linker_1, # of connection points: 2
#     Edge 59, Type (0, 1), BuildingBlock: KIFKEQ_clean_linker_1, # of connection points: 2
#     Edge 60, Type (0, 1), BuildingBlock: KIFKEQ_clean_linker_1, # of connection points: 2
#     Edge 61, Type (0, 1), BuildingBlock: KIFKEQ_clean_linker_1, # of connection points: 2
#     Edge 62, Type (0, 1), BuildingBlock: KIFKEQ_clean_linker_1, # of connection points: 2
#     Edge 63, Type (0, 1), BuildingBlock: KIFKEQ_clean_linker_1, # of connection points: 2
#     Edge 64, Type (0, 1), BuildingBlock: KIFKEQ_clean_linker_1, # of connection points: 2
#     Edge 65, Type (0, 1), BuildingBlock: KIFKEQ_clean_linker_1, # of connection points: 2
#     Edge 66, Type (0, 1), BuildingBlock: KIFKEQ_clean_linker_1, # of connection points: 2
#     Edge 67, Type (0, 1), BuildingBlock: KIFKEQ_clean_linker_1, # of connection points: 2
#     Edge 68, Type (0, 1), BuildingBlock: KIFKEQ_clean_linker_1, # of connection points: 2
#     Edge 69, Type (0, 1), BuildingBlock: KIFKEQ_clean_linker_1, # of connection points: 2
#     Edge 70, Type (0, 1), BuildingBlock: KIFKEQ_clean_linker_1, # of connection points: 2
#     Edge 71, Type (0, 1), BuildingBlock: KIFKEQ_clean_linker_1, # of connection points: 2
#     Edge 72, Type (0, 1), BuildingBlock: KIFKEQ_clean_linker_1, # of connection points: 2
#     Edge 73, Type (0, 1), BuildingBlock: KIFKEQ_clean_linker_1, # of connection points: 2
#     Edge 74, Type (0, 1), BuildingBlock: KIFKEQ_clean_linker_1, # of connection points: 2
#     Edge 75, Type (0, 1), BuildingBlock: KIFKEQ_clean_linker_1, # of connection points: 2
# Relax obj value: 0.051
# Max RMSD: 0.165
# Mean RMSD: 0.106
data_MOF--net-ctn--node1-UXUYUI_clean_sbu_0--node2-BETDAH_clean_linker_0--edge1-KIFKEQ_clean_linker_1
_symmetry_space_group_name_H-M    P1
_symmetry_Int_Tables_number       1
_symmetry_cell_setting            triclinic
loop_
_symmetry_equiv_pos_as_xyz
'x, y, z'
_cell_length_a     68.12978
_cell_length_b     68.11853
_cell_length_c     69.021463
_cell_angle_alpha  98.185091
_cell_angle_beta   90.339944
_cell_angle_gamma 94.51283
loop_
_atom_site_label
_atom_site_type_symbol
_atom_site_fract_x
_atom_site_fract_y
_atom_site_fract_z
_atom_type_partial_charge
H0 H 0.07295 0.02184 0.09286 0.0
H1 H 0.08172 0.0313 0.03313 0.0
H2 H 0.03235 0.05445 0.06428 0.0
C3 C 0.06861 0.02848 0.08029 0.0
C4 C 0.05149 0.03888 0.08099 0.0
C5 C 0.07978 0.0259 0.06318 0.0
C6 C 0.07374 0.03392 0.04668 0.0
C7 C 0.05682 0.04436 0.04712 0.0
C8 C 0.04575 0.04688 0.06426 0.0
N9 N 0.04926 0.04911 0.02935 0.0
C10 C 0.04973 0.06835 0.02472 0.0
H11 H 0.32143 0.69827 0.25871 0.0
H12 H 0.35505 0.73337 0.22147 0.0
H13 H 0.29999 0.70268 0.2008 0.0
C14 C 0.32324 0.7041 0.24497 0.0
C15 C 0.30889 0.69846 0.23003 0.0
C16 C 0.34009 0.71662 0.2422 0.0
C17 C 0.34188 0.72437 0.22441 0.0
C18 C 0.32709 0.72008 0.20988 0.0
C19 C 0.31061 0.70708 0.21266 0.0
N20 N 0.33063 0.72646 0.19147 0.0
C21 C 0.31865 0.73864 0.183 0.0
H22 H 0.01442 0.44485 0.06356 0.0
H23 H 0.00376 0.50683 0.0747 0.0
H24 H 0.98021 0.47086 0.0225 0.0
C25 C 0.00722 0.45738 0.05961 0.0
C26 C 0.99664 0.45532 0.04173 0.0
C27 C 0.00989 0.47586 0.07172 0.0
C28 C 1.00158 0.49235 0.06581 0.0
C29 C 0.9906 0.49049 0.04835 0.0
C30 C 0.98811 0.472 0.03634 0.0
N31 N 0.98488 0.50794 0.04166 0.0
C32 C 0.9654 0.51227 0.03981 0.0
H33 H 0.77001 0.81003 0.19811 0.0
H34 H 0.71071 0.78684 0.20808 0.0
H35 H 0.73374 0.84265 0.23992 0.0
C36 C 0.7563 0.81117 0.20592 0.0
C37 C 0.75405 0.82787 0.22 0.0
C38 C 0.74076 0.79626 0.20141 0.0
C39 C 0.72292 0.798 0.21157 0.0
C40 C 0.72056 0.81468 0.22562 0.0
C41 C 0.73601 0.82952 0.22957 0.0
N42 N 0.70214 0.81815 0.23435 0.0
C43 C 0.69116 0.80467 0.24413 0.0
H44 H 0.06718 0.99803 0.45208 0.0
H45 H 0.07338 0.96435 0.49988 0.0
H46 H 0.0196 0.95748 0.46591 0.0
C47 C 0.06135 0.98688 0.46071 0.0
C48 C 0.04213 0.97815 0.45675 0.0
C49 C 0.07292 0.98197 0.47606 0.0
C50 C 0.06476 0.96821 0.48794 0.0
C51 C 0.04536 0.95954 0.48427 0.0
C52 C 0.03434 0.96456 0.46874 0.0
N53 N 0.03592 0.94602 0.49585 0.0
C54 C 0.0445 0.9362 0.5097 0.0
H55 H 0.26812 0.71077 0.83551 0.0
H56 H 0.21309 0.72839 0.81502 0.0
H57 H 0.23686 0.67538 0.78672 0.0
C58 C 0.25583 0.70846 0.82517 0.0
C59 C 0.25453 0.6916 0.81074 0.0
C60 C 0.24085 0.72174 0.82704 0.0
C61 C 0.22469 0.7183 0.81378 0.0
C62 C 0.22334 0.70155 0.79919 0.0
C63 C 0.23811 0.68827 0.79798 0.0
N64 N 0.20706 0.69691 0.78594 0.0
C65 C 0.1943 0.71026 0.78055 0.0
H66 H 0.94671 0.55545 0.51629 0.0
H67 H 0.99324 0.56781 0.47644 0.0
H68 H 0.95302 0.51595 0.46275 0.0
C69 C 0.95447 0.55149 0.50283 0.0
C70 C 0.9481 0.53392 0.49042 0.0
C71 C 0.97073 0.56397 0.49801 0.0
C72 C 0.98063 0.55857 0.48032 0.0
C73 C 0.97417 0.54113 0.46771 0.0
C74 C 0.95799 0.52913 0.47282 0.0
N75 N 0.98314 0.53493 0.44956 0.0
C76 C 1.00045 0.54315 0.44236 0.0
H77 H 0.83767 0.7614 0.82 0.0
H78 H 0.82109 0.81591 0.80163 0.0
H79 H 0.79276 0.79399 0.85044 0.0
C80 C 0.82864 0.77391 0.82166 0.0
C81 C 0.81453 0.7755 0.83654 0.0
C82 C 0.83132 0.7885 0.80903 0.0
C83 C 0.81934 0.80467 0.81127 0.0
C84 C 0.80533 0.80646 0.82616 0.0
C85 C 0.80327 0.79207 0.83873 0.0
N86 N 0.79343 0.82279 0.82968 0.0
C87 C 0.78929 0.83583 0.81666 0.0
H88 H 0.33504 0.26198 0.3193 0.0
H89 H 0.30858 0.30704 0.29192 0.0
H90 H 0.28204 0.28591 0.34199 0.0
C91 C 0.32346 0.27183 0.31835 0.0
C92 C 0.30852 0.27236 0.33236 0.0
C93 C 0.32385 0.28436 0.30363 0.0
C94 C 0.30886 0.29759 0.30324 0.0
C95 C 0.29386 0.29815 0.3172 0.0
C96 C 0.29385 0.28554 0.33151 0.0
N97 N 0.27813 0.31072 0.31736 0.0
C98 C 0.27623 0.32595 0.30617 0.0
H99 H 0.51851 0.94738 0.56693 0.0
H100 H 0.50349 0.00717 0.58532 0.0
H101 H 0.47516 0.97282 0.53432 0.0
C102 C 0.50968 0.95958 0.56512 0.0
C103 C 0.49637 0.95776 0.54913 0.0
C104 C 0.51247 0.97734 0.57824 0.0
C105 C 0.50162 0.99337 0.57529 0.0
C106 C 0.48802 0.99182 0.55976 0.0
C107 C 0.48541 0.97399 0.54657 0.0
N108 N 0.47796 0.00893 0.55773 0.0
C109 C 0.46065 0.00948 0.54709 0.0
H110 H 0.27142 0.30865 0.69447 0.0
H111 H 0.22865 0.27065 0.72078 0.0
H112 H 0.25505 0.32411 0.75431 0.0
C113 C 0.26254 0.30546 0.70677 0.0
C114 C 0.2642 0.31888 0.72427 0.0
C115 C 0.24978 0.28789 0.70518 0.0
C116 C 0.2385 0.28402 0.72157 0.0
C117 C 0.24051 0.29716 0.73927 0.0
C118 C 0.25337 0.31432 0.74046 0.0
N119 N 0.23117 0.29303 0.75673 0.0
C120 C 0.21253 0.28346 0.75805 0.0
H121 H 0.82244 0.20058 0.75639 0.0
H122 H 0.85614 0.23969 0.72325 0.0
H123 H 0.79818 0.21556 0.70302 0.0
C124 C 0.82357 0.20886 0.74408 0.0
C125 C 0.80814 0.20667 0.7301 0.0
C126 C 0.84097 0.22062 0.7417 0.0
C127 C 0.84274 0.23057 0.72528 0.0
C128 C 0.82726 0.22931 0.71159 0.0
C129 C 0.80994 0.21716 0.7139 0.0
N130 N 0.83023 0.23975 0.69531 0.0
C131 C 0.81557 0.24615 0.68413 0.0
H132 H 0.57302 0.52355 0.59052 0.0
H133 H 0.57599 0.54111 0.53284 0.0
H134 H 0.52716 0.55539 0.56946 0.0
C135 C 0.56712 0.53112 0.57928 0.0
C136 C 0.54932 0.54016 0.58262 0.0
C137 C 0.57697 0.53116 0.56134 0.0
C138 C 0.5689 0.54098 0.54683 0.0
C139 C 0.55106 0.54985 0.54991 0.0
C140 C 0.54135 0.54926 0.56765 0.0
N141 N 0.54109 0.55647 0.53428 0.0
C142 C 0.54724 0.57341 0.52614 0.0
H143 H 0.56592 0.503 0.95888 0.0
H144 H 0.57828 0.46171 0.99837 0.0
H145 H 0.52939 0.44839 0.95784 0.0
C146 C 0.56223 0.48915 0.96454 0.0
C147 C 0.54594 0.47658 0.9566 0.0
C148 C 0.57412 0.48389 0.97946 0.0
C149 C 0.5692 0.46595 0.98696 0.0
C150 C 0.55277 0.45333 0.97929 0.0
C151 C 0.54155 0.45861 0.96404 0.0
N152 N 0.54747 0.43468 0.9856 0.0
C153 C 0.55194 0.42914 0.00368 0.0
H154 H 0.76703 0.21155 0.33335 0.0
H155 H 0.71318 0.22998 0.31111 0.0
H156 H 0.73902 0.17883 0.28129 0.0
C157 C 0.75536 0.20969 0.32236 0.0
C158 C 0.75496 0.19361 0.3071 0.0
C159 C 0.74022 0.22278 0.32408 0.0
C160 C 0.72482 0.21995 0.30996 0.0
C161 C 0.72451 0.20411 0.29442 0.0
C162 C 0.73944 0.19102 0.29328 0.0
N163 N 0.70939 0.20044 0.27978 0.0
C164 C 0.69488 0.21303 0.27676 0.0
H165 H 0.44912 0.05745 0.01559 0.0
H166 H 0.49745 0.06795 0.97715 0.0
H167 H 0.45646 0.01655 0.9633 0.0
C168 C 0.45742 0.05293 1.00259 0.0
C169 C 0.4508 0.03557 0.99007 0.0
C170 C 0.47419 0.06488 0.99809 0.0
C171 C 0.48446 0.05905 0.98074 0.0
C172 C 0.47799 0.04151 0.96822 0.0
C173 C 0.46123 0.03008 0.97298 0.0
N174 N 0.48768 0.03451 0.95071 0.0
C175 C 0.50465 0.04307 0.94314 0.0
Li176 Li 0.28058 0.89601 0.02564 0.0
Li177 Li 0.26519 0.87193 0.04394 0.0
Li178 Li 0.25933 0.86782 0.00862 0.0
Li179 Li 0.24486 0.89593 0.03223 0.0
C180 C 0.30292 0.86406 0.02884 0.0
N181 N 0.34016 0.85786 0.0415 0.0
C182 C 0.31029 0.87381 0.04689 0.0
C183 C 0.31445 0.85113 0.01722 0.0
C184 C 0.32916 0.87049 0.05305 0.0
C185 C 0.33326 0.8482 0.02388 0.0
C186 C 0.26693 0.90958 0.06994 0.0
C187 C 0.24897 0.91967 0.09922 0.0
N188 N 0.2662 0.92682 0.10865 0.0
C189 C 0.28443 0.91726 0.07985 0.0
C190 C 0.24902 0.911 0.07962 0.0
C191 C 0.28377 0.92582 0.09945 0.0
C192 C 0.30314 0.93313 0.03093 0.0
N193 N 0.30327 0.91382 0.0226 0.0
C194 C 0.33471 0.92059 0.00867 0.0
C195 C 0.31863 0.90737 0.01162 0.0
C196 C 0.33497 0.94074 0.01688 0.0
C197 C 0.31887 0.9469 0.02823 0.0
H198 H 0.29061 0.93791 0.03937 0.0
H199 H 0.31827 0.89203 0.00488 0.0
C200 C 0.27615 0.83781 0.05884 0.0
N201 N 0.26892 0.85575 0.06456 0.0
C202 C 0.27943 0.82502 0.07245 0.0
C203 C 0.26726 0.84903 0.09771 0.0
C204 C 0.2643 0.86141 0.08359 0.0
C205 C 0.27505 0.83055 0.09227 0.0
H206 H 0.27938 0.83337 0.0436 0.0
H207 H 0.2581 0.8754 0.08789 0.0
C208 C 0.26788 0.90741 0.99346 0.0
N209 N 0.28839 0.92931 0.9683 0.0
C210 C 0.26599 0.92783 0.99464 0.0
C211 C 0.28014 0.89811 0.97944 0.0
C212 C 0.2765 0.93864 0.9818 0.0
C213 C 0.29039 0.90944 0.96685 0.0
C214 C 0.23108 0.85176 0.03948 0.0
C215 C 0.23324 0.83176 0.03254 0.0
C216 C 0.22123 0.85681 0.05697 0.0
C217 C 0.22567 0.81713 0.04335 0.0
C218 C 0.21387 0.84174 0.06735 0.0
N219 N 0.21624 0.82238 0.06039 0.0
C220 C 0.26335 0.83184 0.9836 0.0
C221 C 0.24518 0.85472 0.96961 0.0
C222 C 0.26142 0.81837 0.96628 0.0
N223 N 0.25529 0.8496 0.98493 0.0
C224 C 0.24301 0.84175 0.95194 0.0
C225 C 0.25126 0.82327 0.95003 0.0
H226 H 0.27135 0.82817 0.99601 0.0
H227 H 0.23907 0.86903 0.97101 0.0
C228 C 0.22748 0.9325 0.03865 0.0
N229 N 0.22342 0.91245 0.03686 0.0
C230 C 0.21237 0.94525 0.04199 0.0
C231 C 0.18922 0.91655 0.0423 0.0
C232 C 0.20474 0.90431 0.03857 0.0
C233 C 0.19295 0.9373 0.0439 0.0
H234 H 0.24252 0.93858 0.03759 0.0
H235 H 0.20189 0.88832 0.03707 0.0
O236 O 0.28451 0.86712 0.02246 0.0
O237 O 0.26729 0.90153 0.05063 0.0
O238 O 0.2583 0.89667 0.00636 0.0
O239 O 0.23898 0.86631 0.02944 0.0
H240 H 0.30151 0.88374 0.05608 0.0
H241 H 0.30894 0.84348 1.00319 0.0
H242 H 0.33504 0.87793 0.06701 0.0
H243 H 0.34237 0.83825 0.01503 0.0
H244 H 0.23523 0.92073 0.10693 0.0
H245 H 0.29839 0.91675 0.07246 0.0
H246 H 0.23532 0.9053 0.07219 0.0
H247 H 0.29721 0.93174 0.10732 0.0
H248 H 0.34683 0.91501 1.00003 0.0
H249 H 0.31817 0.9623 0.03459 0.0
H250 H 0.28564 0.81107 0.06749 0.0
H251 H 0.26326 0.85382 0.1127 0.0
H252 H 0.25663 0.93527 0.00544 0.0
H253 H 0.282 0.88238 0.97852 0.0
H254 H 0.27525 0.95447 0.9826 0.0
H255 H 0.30003 0.90247 0.95602 0.0
H256 H 0.24088 0.82761 0.01907 0.0
H257 H 0.2195 0.8722 0.0626 0.0
H258 H 0.22735 0.8016 0.03822 0.0
H259 H 0.20634 0.84544 0.08098 0.0
H260 H 0.26775 0.80422 0.96571 0.0
H261 H 0.2353 0.84636 0.9398 0.0
H262 H 0.21586 0.96119 0.04334 0.0
H263 H 0.17441 0.90986 0.04359 0.0
Li264 Li 0.14233 0.51648 0.28442 0.0
Li265 Li 0.16554 0.4938 0.26768 0.0
Li266 Li 0.16704 0.53014 0.26221 0.0
Li267 Li 0.14056 0.50559 0.2479 0.0
C268 C 0.17972 0.52726 0.30437 0.0
N269 N 0.19639 0.54482 0.33989 0.0
C270 C 0.18585 0.51549 0.31792 0.0
C271 C 0.18248 0.54798 0.30875 0.0
C272 C 0.19411 0.52463 0.33584 0.0
C273 C 0.19082 0.55657 0.32681 0.0
C274 C 0.13349 0.47042 0.27395 0.0
C275 C 0.13361 0.43493 0.26464 0.0
N276 N 0.12875 0.4322 0.28321 0.0
C277 C 0.12836 0.46726 0.2929 0.0
C278 C 0.13599 0.45414 0.25965 0.0
C279 C 0.12607 0.44783 0.2973 0.0
C280 C 0.10915 0.53026 0.30497 0.0
N281 N 0.12681 0.52284 0.30743 0.0
C282 C 0.12134 0.52419 0.34185 0.0
C283 C 0.13297 0.51962 0.32542 0.0
C284 C 0.10314 0.53215 0.33978 0.0
C285 C 0.09712 0.53517 0.32099 0.0
H286 H 0.10432 0.53228 0.29048 0.0
H287 H 0.14677 0.51323 0.32703 0.0
C288 C 0.19404 0.46583 0.25639 0.0
N289 N 0.18134 0.47201 0.27072 0.0
C290 C 0.20588 0.45031 0.2584 0.0
C291 C 0.19144 0.44777 0.28988 0.0
C292 C 0.17988 0.46329 0.28725 0.0
C293 C 0.20477 0.44109 0.27539 0.0
H294 H 0.19513 0.47309 0.24345 0.0
H295 H 0.16972 0.4684 0.29847 0.0
C296 C 0.13253 0.5515 0.26627 0.0
N297 N 0.12113 0.5899 0.27331 0.0
C298 C 0.12175 0.55903 0.25208 0.0
C299 C 0.13724 0.56342 0.28413 0.0
C300 C 0.1162 0.57851 0.25589 0.0
C301 C 0.13141 0.5828 0.2874 0.0
C302 C 0.16985 0.50119 0.22313 0.0
C303 C 0.17442 0.51625 0.21171 0.0
C304 C 0.16536 0.48166 0.21406 0.0
C305 C 0.17412 0.51154 0.19133 0.0
C306 C 0.16519 0.47756 0.19364 0.0
N307 N 0.16952 0.49247 0.18279 0.0
C308 C 0.20312 0.55387 0.26352 0.0
C309 C 0.17714 0.56692 0.24774 0.0
C310 C 0.2162 0.56974 0.25988 0.0
N311 N 0.18397 0.55278 0.25752 0.0
C312 C 0.18968 0.58311 0.24388 0.0
C313 C 0.20954 0.58464 0.2499 0.0
H314 H 0.20824 0.54232 0.27108 0.0
H315 H 0.16205 0.56546 0.24254 0.0
C316 C 0.11077 0.48293 0.22245 0.0
N317 N 0.12334 0.49965 0.2254 0.0
C318 C 0.09836 0.47911 0.20587 0.0
C319 C 0.11205 0.50978 0.19576 0.0
C320 C 0.12411 0.51301 0.2125 0.0
C321 C 0.09891 0.49263 0.19221 0.0
H322 H 0.11035 0.47258 0.23297 0.0
H323 H 0.13414 0.52624 0.21526 0.0
O324 O 0.17176 0.51852 0.28666 0.0
O325 O 0.136 0.48935 0.26942 0.0
O326 O 0.13813 0.53247 0.26273 0.0
O327 O 0.16963 0.50559 0.24309 0.0
H328 H 0.1841 0.49946 0.31474 0.0
H329 H 0.17846 0.55739 0.29826 0.0
H330 H 0.19875 0.51568 0.34651 0.0
H331 H 0.19297 0.57259 0.33039 0.0
H332 H 0.13563 0.4222 0.25375 0.0
H333 H 0.12628 0.47968 0.30412 0.0
H334 H 0.13988 0.45631 0.2449 0.0
H335 H 0.1222 0.44517 0.31193 0.0
H336 H 0.12659 0.5216 0.35603 0.0
H337 H 0.08304 0.54087 0.3186 0.0
H338 H 0.21608 0.44586 0.24694 0.0
H339 H 0.1898 0.44096 0.3031 0.0
H340 H 0.11772 0.54997 0.23827 0.0
H341 H 0.14501 0.55766 0.29549 0.0
H342 H 0.10795 0.58455 0.24499 0.0
H343 H 0.13498 0.59217 0.30118 0.0
H344 H 0.17797 0.53144 0.21849 0.0
H345 H 0.1619 0.46982 0.22268 0.0
H346 H 0.17749 0.52307 0.1823 0.0
H347 H 0.1616 0.46253 0.18642 0.0
H348 H 0.23135 0.57039 0.26493 0.0
H349 H 0.184 0.59406 0.23586 0.0
H350 H 0.08859 0.46563 0.20368 0.0
H351 H 0.11279 0.52079 0.18586 0.0
Li352 Li 0.75633 0.61939 0.00371 0.0
Li353 Li 0.77299 0.65011 0.02627 0.0
Li354 Li 0.77852 0.64446 0.99069 0.0
Li355 Li 0.79231 0.62319 0.0107 0.0
C356 C 0.74505 0.66053 0.99288 0.0
N357 N 0.73065 0.68492 0.96835 0.0
C358 C 0.7488 0.68116 0.99714 0.0
C359 C 0.73386 0.65229 0.97625 0.0
C360 C 0.74142 0.69325 0.98452 0.0
C361 C 0.72673 0.66488 0.96401 0.0
C362 C 0.77848 0.61038 0.04224 0.0
C363 C 0.79904 0.60822 0.0703 0.0
N364 N 0.79646 0.58803 0.06655 0.0
C365 C 0.77598 0.58962 0.03869 0.0
C366 C 0.79007 0.61979 0.05818 0.0
C367 C 0.78522 0.57857 0.05113 0.0
C368 C 0.73451 0.5815 0.99654 0.0
N369 N 0.73304 0.60145 1.00071 0.0
C370 C 0.69795 0.59639 1.00215 0.0
C371 C 0.71525 0.60905 0.0035 0.0
C372 C 0.69896 0.57567 0.99803 0.0
C373 C 0.71759 0.56828 0.99518 0.0
H374 H 0.74885 0.57585 0.9943 0.0
H375 H 0.71451 0.62496 0.00696 0.0
C376 C 0.77585 0.68817 0.04998 0.0
N377 N 0.76916 0.66873 0.04919 0.0
C378 C 0.77268 0.70184 0.06661 0.0
C379 C 0.75621 0.67513 0.08144 0.0
C380 C 0.75945 0.66205 0.06444 0.0
C381 C 0.76277 0.69536 0.08266 0.0
H382 H 0.78359 0.69307 0.03767 0.0
H383 H 0.75418 0.64653 0.06338 0.0
C384 C 0.77746 0.60662 0.96633 0.0
N385 N 0.77589 0.58954 0.9275 0.0
C386 C 0.79481 0.60251 0.95639 0.0
C387 C 0.75928 0.60173 0.95661 0.0
C388 C 0.79371 0.59397 0.93673 0.0
C389 C 0.75881 0.59318 0.93696 0.0
C390 C 0.81725 0.65685 0.00809 0.0
C391 C 0.82474 0.64858 0.99024 0.0
C392 C 0.82953 0.66951 0.0215 0.0
C393 C 0.84447 0.65311 0.98608 0.0
C394 C 0.8492 0.67368 0.01681 0.0
N395 N 0.8562 0.66546 0.99935 0.0
C396 C 0.79225 0.67829 0.97331 0.0
C397 C 0.77763 0.65233 0.95009 0.0
C398 C 0.79621 0.69024 0.95865 0.0
N399 N 0.78324 0.65961 0.96886 0.0
C400 C 0.78142 0.6637 0.93495 0.0
C401 C 0.79088 0.68298 0.93906 0.0
H402 H 0.79622 0.68405 0.98835 0.0
H403 H 0.77005 0.63777 0.94673 0.0
C404 C 0.81471 0.58956 0.00429 0.0
N405 N 0.81424 0.60799 0.01478 0.0
C406 C 0.83012 0.57778 0.00707 0.0
C407 C 0.84423 0.60408 0.03155 0.0
C408 C 0.8286 0.61539 0.02821 0.0
C409 C 0.84516 0.58498 0.0209 0.0
H410 H 0.80297 0.5839 0.99389 0.0
H411 H 0.82783 0.63002 0.03649 0.0
O412 O 0.75275 0.64843 0.00465 0.0
O413 O 0.77011 0.62144 0.02986 0.0
O414 O 0.77822 0.61467 0.98567 0.0
O415 O 0.79803 0.65247 0.01256 0.0
H416 H 0.75752 0.68775 0.0099 0.0
H417 H 0.73085 0.63634 0.97275 0.0
H418 H 0.74431 0.70924 0.98755 0.0
H419 H 0.71814 0.65871 0.95103 0.0
H420 H 0.80814 0.61529 0.08262 0.0
H421 H 0.76719 0.58211 0.02633 0.0
H422 H 0.79237 0.63585 0.06097 0.0
H423 H 0.78351 0.56249 0.0485 0.0
H424 H 0.68396 0.60276 0.00467 0.0
H425 H 0.71906 0.55246 0.99174 0.0
H426 H 0.77813 0.71727 0.06701 0.0
H427 H 0.74834 0.66955 0.09338 0.0
H428 H 0.80898 0.60575 0.96378 0.0
H429 H 0.7457 0.60468 0.96405 0.0
H430 H 0.80703 0.59078 0.92884 0.0
H431 H 0.74486 0.58946 0.92922 0.0
H432 H 0.81538 0.63884 0.9797 0.0
H433 H 0.82393 0.67599 0.03541 0.0
H434 H 0.85047 0.64682 0.97231 0.0
H435 H 0.8589 0.68343 0.02706 0.0
H436 H 0.80309 0.70513 0.96274 0.0
H437 H 0.77711 0.65729 0.92013 0.0
H438 H 0.83009 0.56307 0.99872 0.0
H439 H 0.85557 0.61032 0.04222 0.0
Li440 Li 0.89971 0.04083 0.27551 0.0
Li441 Li 0.92265 0.02049 0.28849 0.0
Li442 Li 0.92577 0.02697 0.25449 0.0
Li443 Li 0.897 0.00436 0.26529 0.0
C444 C 0.93361 0.06125 0.29414 0.0
N445 N 0.94306 0.09075 0.32532 0.0
C446 C 0.92289 0.06187 0.31139 0.0
C447 C 0.94917 0.07558 0.29277 0.0
C448 C 0.92788 0.07691 0.32698 0.0
C449 C 0.95371 0.0904 0.30868 0.0
C450 C 0.88222 0.01242 0.30519 0.0
C451 C 0.86826 0.98519 0.32085 0.0
N452 N 0.85871 0.99825 0.33347 0.0
C453 C 0.87228 0.02557 0.31833 0.0
C454 C 0.88023 0.99207 0.30647 0.0
C455 C 0.86047 0.01812 0.33251 0.0
C456 C 0.86353 0.05726 0.28227 0.0
N457 N 0.88307 0.06249 0.2808 0.0
C458 C 0.87719 0.09704 0.28642 0.0
C459 C 0.89006 0.08194 0.2826 0.0
C460 C 0.85688 0.09209 0.28821 0.0
C461 C 0.85015 0.07182 0.28593 0.0
H462 H 0.85831 0.04168 0.28047 0.0
H463 H 0.90561 0.08579 0.28107 0.0
C464 C 0.95794 0.01947 0.31053 0.0
N465 N 0.93797 0.01692 0.31132 0.0
C466 C 0.96972 0.01591 0.32615 0.0
C467 C 0.94019 0.00818 0.34362 0.0
C468 C 0.92903 0.01168 0.3276 0.0
C469 C 0.96087 0.00997 0.343 0.0
H470 H 0.96477 0.02396 0.29757 0.0
H471 H 0.91322 0.01014 0.32827 0.0
C472 C 0.88688 0.03855 0.23915 0.0
N473 N 0.86627 0.06508 0.22201 0.0
C474 C 0.86675 0.03446 0.23507 0.0
C475 C 0.89657 0.05607 0.23446 0.0
C476 C 0.85658 0.04808 0.22641 0.0
C477 C 0.88588 0.06931 0.22581 0.0
C478 C 0.93977 0.98945 0.27041 0.0
C479 C 0.95931 0.99237 0.26471 0.0
C480 C 0.93464 0.97517 0.28256 0.0
C481 C 0.97348 0.98112 0.27151 0.0
C482 C 0.94925 0.96425 0.28909 0.0
N483 N 0.9682 0.96744 0.28348 0.0
C484 C 0.96162 0.03821 0.23581 0.0
C485 C 0.93493 0.02478 0.21461 0.0
C486 C 0.9738 0.04009 0.21979 0.0
N487 N 0.94262 0.03052 0.23294 0.0
C488 C 0.94651 0.02655 0.19821 0.0
C489 C 0.96633 0.03413 0.2006 0.0
H490 H 0.96738 0.04261 0.25057 0.0
H491 H 0.91976 0.01878 0.21274 0.0
C492 C 0.85962 0.98321 0.25925 0.0
N493 N 0.8793 0.98138 0.25788 0.0
C494 C 0.84625 0.96651 0.25474 0.0
C495 C 0.87366 0.94635 0.24753 0.0
C496 C 0.88649 0.96347 0.25207 0.0
C497 C 0.85319 0.94768 0.2489 0.0
H498 H 0.85433 0.99763 0.26406 0.0
H499 H 0.90223 0.96243 0.25122 0.0
O500 O 0.92911 0.04662 0.27868 0.0
O501 O 0.89372 0.0195 0.29112 0.0
O502 O 0.89699 0.02576 0.2482 0.0
O503 O 0.92578 1.00062 0.26424 0.0
H504 H 0.91085 0.05088 0.31277 0.0
H505 H 0.95765 0.07526 0.27952 0.0
H506 H 0.91969 0.07758 0.34041 0.0
H507 H 0.96571 0.10161 0.30782 0.0
H508 H 0.86658 0.96948 0.322 0.0
H509 H 0.87374 0.04139 0.31764 0.0
H510 H 0.88785 0.98168 0.29652 0.0
H511 H 0.8527 0.02813 0.34278 0.0
H512 H 0.88314 0.11241 0.28817 0.0
H513 H 0.83465 0.06716 0.28669 0.0
H514 H 0.98557 0.01739 0.32483 0.0
H515 H 0.93261 0.00419 0.35642 0.0
H516 H 0.85904 0.021 0.23868 0.0
H517 H 0.91213 0.05952 0.23771 0.0
H518 H 0.84097 0.04517 0.22323 0.0
H519 H 0.89316 0.08298 0.2222 0.0
H520 H 0.96351 1.00331 0.25528 0.0
H521 H 0.9196 0.97268 0.28708 0.0
H522 H 0.98868 0.98331 0.26731 0.0
H523 H 0.94552 0.95328 0.29863 0.0
H524 H 0.98901 0.04579 0.22245 0.0
H525 H 0.93989 0.02212 0.18379 0.0
H526 H 0.83064 0.96837 0.25576 0.0
H527 H 0.87975 0.93218 0.24339 0.0
Li528 Li 0.27241 0.14717 0.52286 0.0
Li529 Li 0.25548 0.11645 0.50031 0.0
Li530 Li 0.29193 0.11982 0.5061 0.0
Li531 Li 0.27703 0.14203 0.48755 0.0
C532 C 0.27959 0.10824 0.53878 0.0
N533 N 0.29978 0.08819 0.56362 0.0
C534 C 0.27527 0.08783 0.53865 0.0
C535 C 0.29414 0.11848 0.55157 0.0
C536 C 0.28566 0.07796 0.55132 0.0
C537 C 0.30419 0.10807 0.56402 0.0
C538 C 0.24229 0.15731 0.49098 0.0
C539 C 0.2258 0.16187 0.46111 0.0
N540 N 0.22424 0.1813 0.46839 0.0
C541 C 0.24035 0.17727 0.49824 0.0
C542 C 0.2348 0.14948 0.47235 0.0
C543 C 0.23123 0.18918 0.48657 0.0
C544 C 0.27236 0.18533 0.5463 0.0
N545 N 0.26898 0.16538 0.54632 0.0
C546 C 0.25984 0.1707 0.58001 0.0
C547 C 0.26272 0.15794 0.56269 0.0
C548 C 0.26311 0.19138 0.58043 0.0
C549 C 0.2694 0.19866 0.56324 0.0
H550 H 0.2772 0.19091 0.53307 0.0
H551 H 0.25984 0.14205 0.56229 0.0
C552 C 0.23467 0.07823 0.49583 0.0
N553 N 0.23254 0.09805 0.49698 0.0
C554 C 0.2181 0.06453 0.49423 0.0
C555 C 0.19748 0.09183 0.49439 0.0
C556 C 0.21442 0.10502 0.49627 0.0
C557 C 0.19919 0.07128 0.49348 0.0
H558 H 0.24926 0.07307 0.49619 0.0
H559 H 0.21311 0.12085 0.4973 0.0
C560 C 0.31274 0.15885 0.50042 0.0
N561 N 0.34268 0.17879 0.4824 0.0
C562 C 0.32329 0.14865 0.48545 0.0
C563 C 0.31749 0.17916 0.50635 0.0
C564 C 0.33835 0.159 0.47648 0.0
C565 C 0.33267 0.18898 0.49703 0.0
C566 C 0.27726 0.10264 0.46311 0.0
C567 C 0.29513 0.09716 0.45502 0.0
C568 C 0.25979 0.09757 0.4522 0.0
C569 C 0.29526 0.087 0.43596 0.0
C570 C 0.26054 0.08741 0.43319 0.0
N571 N 0.27812 0.0824 0.42552 0.0
C572 C 0.31142 0.08427 0.50247 0.0
C573 C 0.33075 0.11273 0.51782 0.0
C574 C 0.32673 0.0722 0.5047 0.0
N575 N 0.31368 0.10413 0.50901 0.0
C576 C 0.34644 0.10122 0.52035 0.0
C577 C 0.34458 0.08062 0.51375 0.0
H578 H 0.29765 0.07781 0.49558 0.0
H579 H 0.33209 0.12852 0.52308 0.0
C580 C 0.28205 0.17781 0.47079 0.0
N581 N 0.28129 0.15767 0.46598 0.0
C582 C 0.28544 0.19029 0.4565 0.0
C583 C 0.28759 0.16123 0.43242 0.0
C584 C 0.28399 0.14929 0.44716 0.0
C585 C 0.28833 0.18206 0.43697 0.0
H586 H 0.28016 0.18424 0.48584 0.0
H587 H 0.28346 0.13338 0.44342 0.0
O588 O 0.27016 0.11807 0.52599 0.0
O589 O 0.25156 0.14552 0.50201 0.0
O590 O 0.29762 0.14905 0.50901 0.0
O591 O 0.27682 0.11249 0.48177 0.0
H592 H 0.26411 0.07967 0.52881 0.0
H593 H 0.29785 0.13424 0.55166 0.0
H594 H 0.28252 0.06214 0.55133 0.0
H595 H 0.31556 0.11578 0.57391 0.0
H596 H 0.22009 0.15604 0.4466 0.0
H597 H 0.24593 0.18354 0.51268 0.0
H598 H 0.23611 0.13405 0.46655 0.0
H599 H 0.22975 0.20469 0.49195 0.0
H600 H 0.25476 0.16446 0.59284 0.0
H601 H 0.27222 0.21449 0.56295 0.0
H602 H 0.22008 0.0488 0.49331 0.0
H603 H 0.18318 0.09766 0.49397 0.0
H604 H 0.31976 0.13295 0.48069 0.0
H605 H 0.30949 0.18726 0.51795 0.0
H606 H 0.34657 0.15131 0.46479 0.0
H607 H 0.33646 0.20471 0.50141 0.0
H608 H 0.30876 0.1007 0.46335 0.0
H609 H 0.24579 0.10135 0.45834 0.0
H610 H 0.309 0.08275 0.42947 0.0
H611 H 0.24715 0.08345 0.42454 0.0
H612 H 0.32465 0.05647 0.4992 0.0
H613 H 0.35976 0.10835 0.5277 0.0
H614 H 0.28614 0.20625 0.4608 0.0
H615 H 0.28954 0.15419 0.41755 0.0
Li616 Li 0.42303 0.51911 0.79083 0.0
Li617 Li 0.39986 0.5395 0.77808 0.0
Li618 Li 0.39761 0.50239 0.76761 0.0
Li619 Li 0.42561 0.52499 0.75704 0.0
C620 C 0.38407 0.51306 0.80951 0.0
N621 N 0.36316 0.50372 0.84161 0.0
C622 C 0.37809 0.52819 0.82356 0.0
C623 C 0.37916 0.49317 0.81166 0.0
C624 C 0.36761 0.52317 0.83972 0.0
C625 C 0.36866 0.48876 0.82803 0.0
C626 C 0.43398 0.56065 0.79526 0.0
C627 C 0.45136 0.59255 0.80625 0.0
N628 N 0.44336 0.59242 0.82425 0.0
C629 C 0.42596 0.56082 0.81385 0.0
C630 C 0.44682 0.57661 0.7914 0.0
C631 C 0.43088 0.57701 0.82832 0.0
C632 C 0.45768 0.52325 0.81503 0.0
N633 N 0.43868 0.51529 0.81339 0.0
C634 C 0.44263 0.50035 0.8424 0.0
C635 C 0.43109 0.50401 0.82671 0.0
C636 C 0.46239 0.50813 0.84439 0.0
C637 C 0.46984 0.51983 0.83044 0.0
H638 H 0.46353 0.53193 0.80411 0.0
H639 H 0.41619 0.49746 0.82504 0.0
C640 C 0.36374 0.55564 0.78553 0.0
N641 N 0.38317 0.56101 0.78347 0.0
C642 C 0.35028 0.57011 0.78939 0.0
C643 C 0.377 0.59549 0.78877 0.0
C644 C 0.38996 0.58049 0.78484 0.0
C645 C 0.35681 0.59041 0.79116 0.0
H646 H 0.35869 0.54004 0.7841 0.0
H647 H 0.4054 0.58445 0.78284 0.0
C648 C 0.43934 0.48775 0.77417 0.0
N649 N 0.46598 0.46588 0.79026 0.0
C650 C 0.45954 0.49217 0.77219 0.0
C651 C 0.43265 0.47214 0.78419 0.0
C652 C 0.47278 0.48094 0.78047 0.0
C653 C 0.44637 0.46128 0.79226 0.0
C654 C 0.39251 0.53712 0.73826 0.0
C655 C 0.37679 0.53231 0.72491 0.0
C656 C 0.40393 0.55516 0.73863 0.0
C657 C 0.37276 0.54564 0.71206 0.0
C658 C 0.39942 0.56808 0.72555 0.0
N659 N 0.38407 0.5631 0.71264 0.0
C660 C 0.36086 0.47941 0.764 0.0
C661 C 0.38785 0.4626 0.75045 0.0
C662 C 0.34812 0.46231 0.75887 0.0
N663 N 0.38033 0.47918 0.75987 0.0
C664 C 0.37564 0.44519 0.74499 0.0
C665 C 0.35546 0.44482 0.74927 0.0
H666 H 0.35529 0.49283 0.77152 0.0
H667 H 0.40338 0.46289 0.74723 0.0
C668 C 0.46049 0.53834 0.73836 0.0
N669 N 0.44252 0.52808 0.73551 0.0
C670 C 0.47291 0.54013 0.72251 0.0
C671 C 0.44804 0.52089 0.70113 0.0
C672 C 0.43615 0.51942 0.71737 0.0
C673 C 0.46678 0.53126 0.70354 0.0
H674 H 0.46523 0.54497 0.75298 0.0
H675 H 0.4218 0.51134 0.71553 0.0
O676 O 0.39402 0.51768 0.79339 0.0
O677 O 0.42931 0.54506 0.78078 0.0
O678 O 0.42617 0.49899 0.76677 0.0
O679 O 0.39652 0.52431 0.75105 0.0
H680 H 0.38142 0.54367 0.82197 0.0
H681 H 0.38365 0.48126 0.80094 0.0
H682 H 0.36295 0.53473 0.85072 0.0
H683 H 0.3649 0.47344 0.82995 0.0
H684 H 0.46123 0.60503 0.80347 0.0
H685 H 0.41617 0.54853 0.81711 0.0
H686 H 0.45312 0.5767 0.77705 0.0
H687 H 0.42479 0.57732 0.84278 0.0
H688 H 0.43604 0.49149 0.85285 0.0
H689 H 0.48503 0.52591 0.83111 0.0
H690 H 0.33486 0.56537 0.79067 0.0
H691 H 0.3828 0.61089 0.79011 0.0
H692 H 0.46491 0.50429 0.76456 0.0
H693 H 0.41705 0.46866 0.78595 0.0
H694 H 0.48847 0.48426 0.77917 0.0
H695 H 0.44143 0.44926 0.80019 0.0
H696 H 0.36779 0.51842 0.72451 0.0
H697 H 0.4161 0.55916 0.74893 0.0
H698 H 0.36064 0.54212 0.70163 0.0
H699 H 0.40812 0.58209 0.72567 0.0
H700 H 0.33276 0.4627 0.76272 0.0
H701 H 0.38194 0.43221 0.73737 0.0
H702 H 0.4873 0.54806 0.72516 0.0
H703 H 0.44251 0.51408 0.6868 0.0
Li704 Li 0.77546 0.39619 0.52291 0.0
Li705 Li 0.75888 0.37249 0.54086 0.0
Li706 Li 0.75382 0.36852 0.50539 0.0
Li707 Li 0.73963 0.39721 0.52872 0.0
C708 C 0.79647 0.36301 0.52629 0.0
N709 N 0.83287 0.35458 0.53928 0.0
C710 C 0.8041 0.37241 0.54438 0.0
C711 C 0.8073 0.34928 0.51482 0.0
C712 C 0.82253 0.36796 0.55069 0.0
C713 C 0.82569 0.34523 0.52164 0.0
C714 C 0.76176 0.41041 0.56677 0.0
C715 C 0.74439 0.42175 0.59609 0.0
N716 N 0.76188 0.42809 0.60538 0.0
C717 C 0.77955 0.4173 0.57653 0.0
C718 C 0.74401 0.41288 0.57654 0.0
C719 C 0.77931 0.42608 0.59608 0.0
C720 C 0.79852 0.43294 0.52836 0.0
N721 N 0.79869 0.41349 0.52048 0.0
C722 C 0.83086 0.41961 0.50785 0.0
C723 C 0.81442 0.40666 0.51037 0.0
C724 C 0.83108 0.4399 0.5156 0.0
C725 C 0.81458 0.44646 0.52606 0.0
H726 H 0.78569 0.43803 0.53611 0.0
H727 H 0.81411 0.39121 0.50396 0.0
C728 C 0.76757 0.3376 0.5556 0.0
N729 N 0.76183 0.35617 0.5615 0.0
C730 C 0.77061 0.32473 0.56921 0.0
C731 C 0.76141 0.35007 0.59486 0.0
C732 C 0.75853 0.36246 0.58073 0.0
C733 C 0.76768 0.33093 0.58921 0.0
H734 H 0.76991 0.33278 0.54023 0.0
H735 H 0.75362 0.37703 0.58521 0.0
C736 C 0.76383 0.40867 0.49094 0.0
N737 N 0.78537 0.43146 0.46724 0.0
C738 C 0.76182 0.42909 0.49248 0.0
C739 C 0.77673 0.39982 0.47729 0.0
C740 C 0.77286 0.44036 0.48038 0.0
C741 C 0.7875 0.4116 0.46545 0.0
C742 C 0.72392 0.35404 0.53637 0.0
C743 C 0.72476 0.3337 0.53013 0.0
C744 C 0.71425 0.36042 0.55365 0.0
C745 C 0.71611 0.32003 0.54146 0.0
C746 C 0.70579 0.34629 0.56458 0.0
N747 N 0.70691 0.32656 0.55832 0.0
C748 C 0.75523 0.33142 0.48137 0.0
C749 C 0.7426 0.3564 0.46533 0.0
C750 C 0.75315 0.31777 0.46418 0.0
N751 N 0.7499 0.35028 0.48165 0.0
C752 C 0.74057 0.34332 0.44772 0.0
C753 C 0.74586 0.3237 0.44701 0.0
H754 H 0.76125 0.32703 0.4945 0.0
H755 H 0.73854 0.3715 0.46593 0.0
C756 C 0.7236 0.43447 0.53608 0.0
N757 N 0.71874 0.41452 0.53285 0.0
C758 C 0.70893 0.4478 0.53896 0.0
C759 C 0.68448 0.41982 0.53564 0.0
C760 C 0.69963 0.40702 0.5326 0.0
C761 C 0.68898 0.44059 0.53878 0.0
H762 H 0.73893 0.44003 0.53638 0.0
H763 H 0.69616 0.39109 0.53009 0.0
O764 O 0.77845 0.36712 0.51978 0.0
O765 O 0.76171 0.40207 0.54753 0.0
O766 O 0.75373 0.39749 0.50313 0.0
O767 O 0.73289 0.36766 0.52583 0.0
H768 H 0.79581 0.38292 0.55347 0.0
H769 H 0.80156 0.34187 0.50078 0.0
H770 H 0.8286 0.37512 0.56468 0.0
H771 H 0.83427 0.33465 0.5129 0.0
H772 H 0.73077 0.42362 0.60386 0.0
H773 H 0.79341 0.416 0.56907 0.0
H774 H 0.73009 0.40791 0.56918 0.0
H775 H 0.79298 0.43139 0.60384 0.0
H776 H 0.84327 0.41374 0.49991 0.0
H777 H 0.81385 0.46196 0.53203 0.0
H778 H 0.77562 0.31023 0.56411 0.0
H779 H 0.75863 0.35541 0.61006 0.0
H780 H 0.75196 0.43618 0.503 0.0
H781 H 0.77866 0.38408 0.47611 0.0
H782 H 0.77152 0.4562 0.48147 0.0
H783 H 0.79763 0.40497 0.45493 0.0
H784 H 0.73219 0.32852 0.5168 0.0
H785 H 0.71344 0.37609 0.55867 0.0
H786 H 0.71677 0.30424 0.53689 0.0
H787 H 0.69837 0.35101 0.57806 0.0
H788 H 0.75762 0.30286 0.4642 0.0
H789 H 0.73479 0.34844 0.43484 0.0
H790 H 0.71325 0.4636 0.54102 0.0
H791 H 0.66943 0.41343 0.53573 0.0
Li792 Li 0.67361 0.99731 0.77072 0.0
Li793 Li 0.64938 0.01952 0.78643 0.0
Li794 Li 0.64887 0.00835 0.75004 0.0
Li795 Li 0.67449 0.03361 0.76478 0.0
C796 C 0.641 0.97333 0.77597 0.0
N797 N 0.63495 0.93511 0.785 0.0
C798 C 0.63434 0.97017 0.79448 0.0
C799 C 0.64437 0.95704 0.76198 0.0
C800 C 0.63141 0.95073 0.79877 0.0
C801 C 0.6413 0.93784 0.76686 0.0
C802 C 0.686 0.03001 0.80788 0.0
C803 C 0.6972 0.05801 0.8319 0.0
N804 N 0.70123 0.04531 0.84464 0.0
C805 C 0.69054 0.01724 0.82112 0.0
C806 C 0.68961 0.05057 0.81322 0.0
C807 C 0.6981 0.02525 0.83967 0.0
C808 C 0.70405 0.97114 0.76126 0.0
N809 N 0.68968 0.97585 0.77433 0.0
C810 C 0.69788 0.95001 0.79242 0.0
C811 C 0.68657 0.96572 0.7898 0.0
C812 C 0.71276 0.94469 0.77911 0.0
C813 C 0.71583 0.95559 0.7634 0.0
H814 H 0.70638 0.97945 0.74913 0.0
H815 H 0.67529 0.96981 0.80018 0.0
C816 C 0.61513 0.03268 0.80519 0.0
N817 N 0.63273 0.02562 0.80873 0.0
C818 C 0.60204 0.03719 0.82039 0.0
C819 C 0.62508 0.02659 0.8427 0.0
C820 C 0.63783 0.02245 0.82705 0.0
C821 C 0.60683 0.03405 0.83951 0.0
H822 H 0.61116 0.03474 0.79047 0.0
H823 H 0.65156 0.01625 0.82951 0.0
C824 C 0.67862 0.00392 0.72616 0.0
N825 N 0.67885 0.99378 0.68596 0.0
C826 C 0.682 0.01868 0.71415 0.0
C827 C 0.6756 0.98399 0.71774 0.0
C828 C 0.68201 0.01325 0.69385 0.0
C829 C 0.6757 0.97917 0.69738 0.0
C830 C 0.6398 0.05418 0.76843 0.0
C831 C 0.62842 0.06183 0.75479 0.0
C832 C 0.64511 0.06592 0.78624 0.0
C833 C 0.62283 0.08125 0.75908 0.0
C834 C 0.63921 0.08525 0.79001 0.0
N835 N 0.62831 0.09247 0.77645 0.0
C836 C 0.62048 0.98467 0.72367 0.0
C837 C 0.63203 0.01589 0.71494 0.0
C838 C 0.6079 0.98091 0.70722 0.0
N839 N 0.63216 1.00197 0.72722 0.0
C840 C 0.61968 0.01279 0.6984 0.0
C841 C 0.60725 0.99518 0.69441 0.0
H842 H 0.62068 0.97393 0.73376 0.0
H843 H 0.64148 0.02951 0.71809 0.0
C844 C 0.70939 0.05997 0.76746 0.0
N845 N 0.69066 0.05682 0.76015 0.0
C846 C 0.72136 0.07673 0.764 0.0
C847 C 0.69464 0.0866 0.74537 0.0
C848 C 0.68326 0.06961 0.74909 0.0
C849 C 0.71402 0.09042 0.75286 0.0
H850 H 0.71507 0.04939 0.77592 0.0
H851 H 0.66853 0.06655 0.74296 0.0
O852 O 0.6441 0.99227 0.77157 0.0
O853 O 0.6788 0.02239 0.78955 0.0
O854 O 0.67811 0.00898 0.74603 0.0
O855 O 0.64551 0.03521 0.7644 0.0
H856 H 0.63155 0.98259 0.80544 0.0
H857 H 0.64946 0.95921 0.74758 0.0
H858 H 0.62635 0.94807 0.81307 0.0
H859 H 0.64398 0.9251 0.75622 0.0
H860 H 0.69998 0.07389 0.83623 0.0
H861 H 0.68807 1.00132 0.81722 0.0
H862 H 0.68677 0.06072 0.80303 0.0
H863 H 0.7015 0.01552 0.85011 0.0
H864 H 0.69517 0.9423 0.80494 0.0
H865 H 0.72703 0.95196 0.7527 0.0
H866 H 0.5883 0.04311 0.81714 0.0
H867 H 0.62931 0.02349 0.85703 0.0
H868 H 0.68441 0.03416 0.72042 0.0
H869 H 0.67313 0.97239 0.72683 0.0
H870 H 0.68447 0.02453 0.68438 0.0
H871 H 0.67326 0.96382 0.69067 0.0
H872 H 0.62397 0.05289 0.74101 0.0
H873 H 0.65342 0.06006 0.79715 0.0
H874 H 0.6141 0.08738 0.74861 0.0
H875 H 0.64323 0.09449 0.80375 0.0
H876 H 0.59843 0.96723 0.70484 0.0
H877 H 0.61989 0.02407 0.6888 0.0
H878 H 0.73631 0.07876 0.76978 0.0
H879 H 0.68822 0.09671 0.73685 0.0
Li880 Li 0.04308 0.24913 0.88258 0.0
Li881 Li 0.02266 0.26724 0.91081 0.0
Li882 Li 0.02809 0.23144 0.90796 0.0
Li883 Li 0.00687 0.24247 0.88506 0.0
C884 C 0.0616 0.24838 0.92378 0.0
N885 N 0.08714 0.23415 0.94867 0.0
C886 C 0.05821 0.25067 0.94389 0.0
C887 C 0.07803 0.239 0.91632 0.0
C888 C 0.07127 0.24331 0.95623 0.0
C889 C 0.09077 0.2319 0.92915 0.0
C890 C 0.01058 0.27504 0.86863 0.0
C891 C 0.98245 0.29193 0.86067 0.0
N892 N 0.98614 0.28711 0.8413 0.0
C893 C 0.01418 0.27036 0.84866 0.0
C894 C 0.99465 0.28597 0.87473 0.0
C895 C 1.00162 0.27656 0.83507 0.0
C896 C 0.06366 0.24022 0.84735 0.0
N897 N 0.06434 0.25202 0.86502 0.0
C898 C 0.09488 0.26857 0.85709 0.0
C899 C 0.07954 0.26599 0.8701 0.0
C900 C 0.0946 0.25665 0.83865 0.0
C901 C 0.07872 0.24225 0.83391 0.0
H902 H 0.05128 0.22935 0.84362 0.0
H903 H 0.07969 0.27517 0.88425 0.0
C904 C 0.01566 0.29086 0.94692 0.0
N905 N 0.02006 0.29156 0.92783 0.0
C906 C 0.01251 0.3083 0.95946 0.0
C907 C 0.01875 0.32692 0.93253 0.0
C908 C 0.02181 0.30912 0.92052 0.0
C909 C 0.0139 0.32668 0.95229 0.0
H910 H 0.01417 0.27666 0.95229 0.0
H911 H 0.02537 0.30926 0.90529 0.0
C912 C 0.02648 0.20334 0.87543 0.0
N913 N 0.02515 0.16232 0.8683 0.0
C914 C 0.00884 0.19195 0.87744 0.0
C915 C 0.04338 0.19391 0.8695 0.0
C916 C 0.00849 0.17122 0.87385 0.0
C917 C 0.04243 0.17314 0.86605 0.0
C918 C 0.98447 0.24193 0.91871 0.0
C919 C 0.97531 0.22269 0.91751 0.0
C920 C 0.97386 0.25828 0.92527 0.0
C921 C 0.95555 0.22014 0.92259 0.0
C922 C 0.95413 0.2551 0.93024 0.0
N923 N 0.94546 0.23625 0.92878 0.0
C924 C 0.02034 0.20986 0.9397 0.0
C925 C 0.04662 0.19832 0.92011 0.0
C926 C 0.02261 0.19554 0.95201 0.0
N927 N 0.03211 0.21089 0.92397 0.0
C928 C 0.04946 0.1838 0.93207 0.0
C929 C 0.03729 0.18217 0.94825 0.0
H930 H 0.00927 0.22033 0.94286 0.0
H931 H 0.05617 0.19967 0.90787 0.0
C932 C 0.9866 0.22658 0.84994 0.0
N933 N 0.98385 0.23664 0.86809 0.0
C934 C 0.97132 0.22354 0.83595 0.0
C935 C 0.95041 0.24072 0.85969 0.0
C936 C 0.96618 0.24376 0.87308 0.0
C937 C 0.95295 0.2307 0.84078 0.0
H938 H 1.00088 0.22144 0.84612 0.0
H939 H 0.96445 0.2525 0.88714 0.0
O940 O 0.0487 0.25498 0.9114 0.0
O941 O 0.02227 0.26848 0.88212 0.0
O942 O 0.02714 0.22364 0.87891 0.0
O943 O 0.00387 0.24475 0.91406 0.0
H944 H 0.04549 0.25782 0.94985 0.0
H945 H 0.08077 0.23702 0.90075 0.0
H946 H 0.06877 0.24484 0.97182 0.0
H947 H 0.10349 0.2245 0.92358 0.0
H948 H 0.96997 0.30026 0.86516 0.0
H949 H 0.0264 0.2618 0.84373 0.0
H950 H 0.99154 0.28951 0.89014 0.0
H951 H 0.00414 0.27293 0.81956 0.0
H952 H 0.10693 0.27968 0.86149 0.0
H953 H 0.07773 0.2329 0.81982 0.0
H954 H 0.00858 0.30733 0.97448 0.0
H955 H 0.02027 0.34074 0.92642 0.0
H956 H 0.99556 0.19905 0.8816 0.0
H957 H 0.05713 0.20255 0.8678 0.0
H958 H 0.99495 0.1622 0.87542 0.0
H959 H 0.05542 0.16562 0.86161 0.0
H960 H 0.98341 0.20987 0.91286 0.0
H961 H 0.98067 0.27328 0.92624 0.0
H962 H 0.94827 0.20533 0.92168 0.0
H963 H 0.9457 0.26761 0.9352 0.0
H964 H 0.01314 0.19514 0.96451 0.0
H965 H 0.06093 0.1738 0.92853 0.0
H966 H 0.97386 0.21576 0.82149 0.0
H967 H 0.93657 0.24682 0.86384 0.0
Li968 Li 0.54111 0.75549 0.38538 0.0
Li969 Li 0.52113 0.77344 0.4123 0.0
Li970 Li 0.52694 0.73653 0.40941 0.0
Li971 Li 0.50569 0.74841 0.3865 0.0
C972 C 0.56554 0.76815 0.41467 0.0
N973 N 0.60397 0.78429 0.41387 0.0
C974 C 0.56995 0.78864 0.41967 0.0
C975 C 0.58069 0.75585 0.40937 0.0
C976 C 0.58947 0.79652 0.41917 0.0
C977 C 0.60002 0.7643 0.40901 0.0
C978 C 0.51101 0.78041 0.36879 0.0
C979 C 0.4851 0.79767 0.35647 0.0
N980 N 0.49036 0.79103 0.33785 0.0
C981 C 0.51622 0.77382 0.34955 0.0
C982 C 0.49537 0.79247 0.37232 0.0
C983 C 0.50557 0.77934 0.33409 0.0
C984 C 0.56882 0.74349 0.3561 0.0
N985 N 0.56263 0.75935 0.36808 0.0
C986 C 0.58582 0.78147 0.35427 0.0
C987 C 0.57073 0.77811 0.36734 0.0
C988 C 0.59253 0.76538 0.34165 0.0
C989 C 0.58383 0.74617 0.34277 0.0
H990 H 0.56191 0.72877 0.35667 0.0
H991 H 0.56526 0.79052 0.37673 0.0
C992 C 0.51573 0.79666 0.44897 0.0
N993 N 0.51803 0.79754 0.42956 0.0
C994 C 0.51256 0.81383 0.46191 0.0
C995 C 0.51451 0.83259 0.43469 0.0
C996 C 0.51767 0.81505 0.42228 0.0
C997 C 0.51181 0.83214 0.45482 0.0
H998 H 0.51603 0.78252 0.45435 0.0
H999 H 0.5198 0.81539 0.40682 0.0
C1000 C 0.52712 0.70932 0.37953 0.0
N1001 N 0.52935 0.66895 0.37923 0.0
C1002 C 0.51019 0.69626 0.3761 0.0
C1003 C 0.54521 0.70183 0.38268 0.0
C1004 C 0.51162 0.6759 0.37602 0.0
C1005 C 0.54602 0.68138 0.38253 0.0
C1006 C 0.48258 0.74709 0.41827 0.0
C1007 C 0.47259 0.72866 0.41147 0.0
C1008 C 0.47222 0.76235 0.42805 0.0
C1009 C 0.45238 0.72579 0.41454 0.0
C1010 C 0.45202 0.75888 0.43086 0.0
N1011 N 0.4426 0.74084 0.4241 0.0
C1012 C 0.54899 0.71582 0.43433 0.0
C1013 C 0.51658 0.70143 0.42691 0.0
C1014 C 0.55251 0.70102 0.44578 0.0
N1015 N 0.53125 0.71578 0.42513 0.0
C1016 C 0.51943 0.68641 0.43825 0.0
C1017 C 0.53757 0.68607 0.44796 0.0
H1018 H 0.5604 0.72743 0.43289 0.0
H1019 H 0.50266 0.70153 0.41945 0.0
C1020 C 0.48475 0.7324 0.35163 0.0
N1021 N 0.48268 0.74346 0.36942 0.0
C1022 C 0.46936 0.72965 0.33778 0.0
C1023 C 0.44982 0.74955 0.36082 0.0
C1024 C 0.46572 0.75225 0.37406 0.0
C1025 C 0.4516 0.73824 0.34237 0.0
H1026 H 0.49857 0.72609 0.348 0.0
H1027 H 0.46466 0.76185 0.3878 0.0
O1028 O 0.54646 0.76022 0.41467 0.0
O1029 O 0.52083 0.77462 0.38408 0.0
O1030 O 0.52596 0.72936 0.3801 0.0
O1031 O 0.50239 0.75022 0.41549 0.0
H1032 H 0.55841 0.79838 0.42376 0.0
H1033 H 0.57753 0.73998 0.4053 0.0
H1034 H 0.59309 0.81236 0.42293 0.0
H1035 H 0.61187 0.75498 0.4048 0.0
H1036 H 0.47287 0.80687 0.35897 0.0
H1037 H 0.52817 0.76432 0.34657 0.0
H1038 H 0.49098 0.79747 0.38714 0.0
H1039 H 0.50935 0.77425 0.31912 0.0
H1040 H 0.59182 0.79658 0.35372 0.0
H1041 H 0.58859 0.73331 0.33346 0.0
H1042 H 0.51035 0.81269 0.47724 0.0
H1043 H 0.51439 0.84638 0.42861 0.0
H1044 H 0.49605 0.70177 0.37368 0.0
H1045 H 0.55843 0.71172 0.38555 0.0
H1046 H 0.49862 0.66564 0.37346 0.0
H1047 H 0.5599 0.6754 0.38511 0.0
H1048 H 0.48022 0.71684 0.40348 0.0
H1049 H 0.47964 0.77674 0.43332 0.0
H1050 H 0.44445 0.71165 0.40922 0.0
H1051 H 0.44382 0.77057 0.43838 0.0
H1052 H 0.56665 0.7015 0.45315 0.0
H1053 H 0.50758 0.67506 0.43925 0.0
H1054 H 0.47129 0.72088 0.32365 0.0
H1055 H 0.43648 0.75673 0.36473 0.0
Li1056 Li 0.01597 0.78555 0.64257 0.0
Li1057 Li 0.9949 0.76989 0.6671 0.0
Li1058 Li 0.03023 0.76599 0.66493 0.0
Li1059 Li 0.00924 0.74965 0.63867 0.0
C1060 C 0.01013 0.80876 0.6792 0.0
N1061 N 0.99533 0.84448 0.69359 0.0
C1062 C 0.99277 0.81417 0.67123 0.0
C1063 C 0.01992 0.82147 0.69452 0.0
C1064 C 0.98554 0.8323 0.67871 0.0
C1065 C 0.01222 0.83948 0.70157 0.0
C1066 C 0.97612 0.75964 0.62586 0.0
C1067 C 0.95063 0.73288 0.61871 0.0
N1068 N 0.9498 0.7365 0.59986 0.0
C1069 C 0.97498 0.76314 0.60644 0.0
C1070 C 0.96382 0.74443 0.63209 0.0
C1071 C 0.96159 0.75126 0.59351 0.0
C1072 C 0.02188 0.80218 0.6079 0.0
N1073 N 0.02115 0.80743 0.62763 0.0
C1074 C 0.02985 0.84157 0.6242 0.0
C1075 C 0.02527 0.8267 0.63592 0.0
C1076 C 0.0306 0.83658 0.60374 0.0
C1077 C 0.02656 0.81652 0.59566 0.0
H1078 H 0.01911 0.78671 0.60166 0.0
H1079 H 0.02541 0.83061 0.65162 0.0
C1080 C 0.97668 0.77305 0.70415 0.0
N1081 N 0.97309 0.77289 0.68472 0.0
C1082 C 0.96139 0.77511 0.71758 0.0
C1083 C 0.93897 0.77709 0.69084 0.0
C1084 C 0.95471 0.77507 0.67794 0.0
C1085 C 0.94215 0.77707 0.711 0.0
H1086 H 0.99147 0.77158 0.70922 0.0
H1087 H 0.95225 0.77535 0.6625 0.0
C1088 C 0.05262 0.77397 0.63279 0.0
N1089 N 0.08858 0.79281 0.62523 0.0
C1090 C 0.0633 0.76665 0.61648 0.0
C1091 C 0.06021 0.79092 0.64524 0.0
C1092 C 0.08146 0.77637 0.61292 0.0
C1093 C 0.07842 0.80022 0.64117 0.0
C1094 C 0.01723 0.73113 0.67459 0.0
C1095 C 0.03053 0.71947 0.66386 0.0
C1096 C 0.01371 0.72886 0.69409 0.0
C1097 C 0.04016 0.70573 0.67288 0.0
C1098 C 0.02363 0.71494 0.70258 0.0
N1099 N 0.03654 0.70378 0.69189 0.0
C1100 C 0.05252 0.76797 0.70045 0.0
C1101 C 0.06844 0.75377 0.67205 0.0
C1102 C 0.06811 0.76413 0.71234 0.0
N1103 N 0.0529 0.76265 0.6807 0.0
C1104 C 0.08438 0.74986 0.68331 0.0
C1105 C 0.08432 0.75477 0.70382 0.0
H1106 H 0.03984 0.77473 0.70701 0.0
H1107 H 0.06829 0.74926 0.65639 0.0
C1108 C 0.00975 0.7269 0.60067 0.0
N1109 N 0.00471 0.72616 0.61961 0.0
C1110 C 0.00694 0.70986 0.58667 0.0
C1111 C 0.9939 0.69162 0.61194 0.0
C1112 C 0.99672 0.70904 0.62538 0.0
C1113 C 0.99911 0.69184 0.59229 0.0
H1114 H 0.01604 0.74073 0.59648 0.0
H1115 H 0.99261 0.70888 0.64047 0.0
O1116 O 0.01743 0.79098 0.67239 0.0
O1117 O 0.98958 0.77064 0.6386 0.0
O1118 O 0.03468 0.76472 0.63623 0.0
O1119 O 0.00802 0.74497 0.66612 0.0
H1120 H 0.98497 0.80456 0.65939 0.0
H1121 H 0.03332 0.81743 0.70089 0.0
H1122 H 0.97214 0.83669 0.67268 0.0
H1123 H 0.01965 0.84947 0.71341 0.0
H1124 H 0.94112 0.72098 0.6233 0.0
H1125 H 0.98437 0.77485 0.60138 0.0
H1126 H 0.96472 0.74136 0.64702 0.0
H1127 H 0.96059 0.75375 0.57842 0.0
H1128 H 0.03321 0.85677 0.63112 0.0
H1129 H 0.02686 0.81193 0.57999 0.0
H1130 H 0.96458 0.77488 0.73293 0.0
H1131 H 0.9245 0.77891 0.68511 0.0
H1132 H 0.05756 0.75361 0.60667 0.0
H1133 H 0.05215 0.79688 0.65789 0.0
H1134 H 0.08989 0.77086 0.60035 0.0
H1135 H 0.08446 0.81333 0.65067 0.0
H1136 H 0.03364 0.72125 0.64882 0.0
H1137 H 1.00348 0.73778 0.7026 0.0
H1138 H 0.05059 0.6967 0.66479 0.0
H1139 H 0.02107 0.71303 0.71768 0.0
H1140 H 0.06717 0.76794 0.72805 0.0
H1141 H 0.0966 0.74295 0.67595 0.0
H1142 H 0.01124 0.71067 0.57171 0.0
H1143 H 0.98754 0.67814 0.61684 0.0
Li1144 Li 0.51448 0.28764 0.14428 0.0
Li1145 Li 0.4915 0.27416 0.16626 0.0
Li1146 Li 0.52689 0.26818 0.16707 0.0
Li1147 Li 0.50569 0.2513 0.13842 0.0
C1148 C 0.51685 0.31368 0.17701 0.0
N1149 N 0.52163 0.35474 0.18381 0.0
C1150 C 0.50088 0.32466 0.18289 0.0
C1151 C 0.53527 0.32357 0.17472 0.0
C1152 C 0.5036 0.34542 0.18624 0.0
C1153 C 0.53738 0.34434 0.17817 0.0
C1154 C 0.47954 0.28562 0.12675 0.0
C1155 C 0.4751 0.29742 0.09582 0.0
N1156 N 0.46404 0.31174 0.10475 0.0
C1157 C 0.46812 0.30044 0.13563 0.0
C1158 C 0.48303 0.28404 0.10668 0.0
C1159 C 0.46039 0.31349 0.12425 0.0
C1160 C 0.53514 0.3066 0.11558 0.0
N1161 N 0.52122 0.30957 0.12952 0.0
C1162 C 0.51664 0.34168 0.12055 0.0
C1163 C 0.512 0.32676 0.13216 0.0
C1164 C 0.53089 0.33898 0.10595 0.0
C1165 C 0.54025 0.32113 0.10366 0.0
H1166 H 0.54208 0.29275 0.11343 0.0
H1167 H 0.50083 0.32886 0.1431 0.0
C1168 C 0.47217 0.28184 0.20248 0.0
N1169 N 0.46883 0.27707 0.18286 0.0
C1170 C 0.45642 0.28288 0.21541 0.0
C1171 C 0.43396 0.27464 0.18774 0.0
C1172 C 0.45017 0.27343 0.17534 0.0
C1173 C 0.43698 0.27924 0.20811 0.0
H1174 H 0.48714 0.28454 0.20811 0.0
H1175 H 0.44788 0.26934 0.15972 0.0
C1176 C 0.55077 0.26053 0.13795 0.0
N1177 N 0.58878 0.24923 0.13879 0.0
C1178 C 0.55435 0.2405 0.13326 0.0
C1179 C 0.56651 0.27483 0.14292 0.0
C1180 C 0.57368 0.23508 0.13379 0.0
C1181 C 0.58563 0.26881 0.14331 0.0
C1182 C 0.49293 0.23972 0.17997 0.0
C1183 C 0.49941 0.2416 0.19945 0.0
C1184 C 0.47453 0.22992 0.17445 0.0
C1185 C 0.48729 0.23365 0.21313 0.0
C1186 C 0.46283 0.22221 0.18858 0.0
N1187 N 0.4694 0.22422 0.20747 0.0
C1188 C 0.55864 0.27907 0.19499 0.0
C1189 C 0.55297 0.24461 0.18359 0.0
C1190 C 0.5744 0.27557 0.20682 0.0
N1191 N 0.54837 0.26368 0.18362 0.0
C1192 C 0.5686 0.24043 0.19515 0.0
C1193 C 0.5796 0.25602 0.20702 0.0
H1194 H 0.55459 0.29408 0.19494 0.0
H1195 H 0.54453 0.23263 0.17445 0.0
C1196 C 0.50465 0.2288 0.10035 0.0
N1197 N 0.50186 0.2276 0.11966 0.0
C1198 C 0.50283 0.21161 0.08647 0.0
C1199 C 0.49563 0.1922 0.1126 0.0
C1200 C 0.49752 0.20976 0.12596 0.0
C1201 C 0.49832 0.19294 0.09252 0.0
H1202 H 0.50864 0.24307 0.09576 0.0
H1203 H 0.49576 0.20911 0.14142 0.0
O1204 O 0.51449 0.29336 0.17376 0.0
O1205 O 0.48746 0.27288 0.13771 0.0
O1206 O 0.53192 0.26608 0.13807 0.0
O1207 O 0.50428 0.24798 0.1665 0.0
H1208 H 0.48652 0.31725 0.18471 0.0
H1209 H 0.54776 0.31529 0.17009 0.0
H1210 H 0.49136 0.35411 0.19072 0.0
H1211 H 0.55151 0.3522 0.17632 0.0
H1212 H 0.47779 0.29645 0.08029 0.0
H1213 H 0.46552 0.30208 0.15119 0.0
H1214 H 0.49194 0.27276 0.0996 0.0
H1215 H 0.45161 0.3251 0.13095 0.0
H1216 H 0.50912 0.35522 0.12302 0.0
H1217 H 0.55106 0.31815 0.09241 0.0
H1218 H 0.45943 0.2866 0.23099 0.0
H1219 H 0.41923 0.27151 0.18151 0.0
H1220 H 0.54232 0.22923 0.12948 0.0
H1221 H 0.56396 0.29039 0.14661 0.0
H1222 H 0.57668 0.21963 0.13031 0.0
H1223 H 0.59794 0.27969 0.14726 0.0
H1224 H 0.51354 0.24932 0.20398 0.0
H1225 H 0.4692 0.22858 0.15948 0.0
H1226 H 0.49206 0.23506 0.22828 0.0
H1227 H 0.44849 0.21471 0.18456 0.0
H1228 H 0.58224 0.28804 0.2159 0.0
H1229 H 0.57218 0.22516 0.19457 0.0
H1230 H 0.50537 0.21291 0.07121 0.0
H1231 H 0.49199 0.1782 0.11796 0.0
H1232 H 0.27245 0.74777 0.83982 0.0
H1233 H 0.21134 0.73328 0.85181 0.0
H1234 H 0.27472 0.77327 0.86854 0.0
H1235 H 0.21363 0.75844 0.88082 0.0
H1236 H 0.2198 0.81561 0.92409 0.0
H1237 H 0.21717 0.79294 0.89337 0.0
H1238 H 0.27574 0.77573 0.90308 0.0
H1239 H 0.2788 0.7992 0.93312 0.0
C1240 C 0.25949 0.75005 0.84862 0.0
C1241 C 0.24174 0.73846 0.84356 0.0
C1242 C 0.2608 0.76461 0.86516 0.0
C1243 C 0.24442 0.76786 0.87721 0.0
C1244 C 0.22651 0.75659 0.87182 0.0
C1245 C 0.22517 0.74212 0.85517 0.0
C1246 C 0.23224 0.80722 0.91955 0.0
C1247 C 0.24951 0.8093 0.93121 0.0
C1248 C 0.23063 0.79399 0.902 0.0
C1249 C 0.24623 0.78241 0.89564 0.0
C1250 C 0.26351 0.78456 0.90728 0.0
C1251 C 0.26515 0.79784 0.92475 0.0
H1252 H 1.00061 0.5582 0.40851 0.0
H1253 H 0.03804 0.53584 0.44944 0.0
H1254 H 0.02727 0.55792 0.38502 0.0
H1255 H 0.06513 0.53602 0.42624 0.0
H1256 H 0.0952 0.50998 0.36936 0.0
H1257 H 0.07234 0.51613 0.3961 0.0
H1258 H 0.05891 0.57085 0.37591 0.0
H1259 H 0.08163 0.56449 0.34896 0.0
C1260 C 0.01484 0.55389 0.41269 0.0
C1261 C 0.01746 0.54726 0.43075 0.0
C1262 C 0.03015 0.5537 0.39925 0.0
C1263 C 0.04839 0.54678 0.40361 0.0
C1264 C 0.05122 0.54113 0.42223 0.0
C1265 C 0.03584 0.54128 0.43564 0.0
C1266 C 0.08761 0.52348 0.37079 0.0
C1267 C 0.09018 0.53667 0.35692 0.0
C1268 C 0.07451 0.52707 0.3862 0.0
C1269 C 0.06368 0.544 0.38823 0.0
C1270 C 0.06672 0.55749 0.37466 0.0
C1271 C 0.07975 0.55385 0.35919 0.0
H1272 H 0.77968 0.76067 0.85046 0.0
H1273 H 0.84239 0.75567 0.85348 0.0
H1274 H 0.77457 0.73824 0.87462 0.0
H1275 H 0.83717 0.73219 0.87695 0.0
H1276 H 0.8228 0.70959 0.93537 0.0
H1277 H 0.82866 0.73083 0.91013 0.0
H1278 H 0.77462 0.70517 0.88052 0.0
H1279 H 0.76814 0.68491 0.90637 0.0
C1280 C 0.79242 0.75471 0.8562 0.0
C1281 C 0.81149 0.76024 0.8501 0.0
C1282 C 0.78945 0.74155 0.86993 0.0
C1283 C 0.80543 0.7333 0.87789 0.0
C1284 C 0.82449 0.73842 0.87142 0.0
C1285 C 0.82748 0.75171 0.85771 0.0
C1286 C 0.81202 0.70862 0.92362 0.0
C1287 C 0.79491 0.69551 0.92311 0.0
C1288 C 0.81556 0.72063 0.90891 0.0
C1289 C 0.80214 0.71984 0.89317 0.0
C1290 C 0.7852 0.70649 0.8925 0.0
C1291 C 0.7816 0.69459 0.90726 0.0
H1292 H 1.0024 0.98281 0.45523 0.0
H1293 H 0.05484 0.98503 0.42039 0.0
H1294 H 0.98303 0.99044 0.42784 0.0
H1295 H 0.03547 0.99324 0.39325 0.0
H1296 H 0.9965 0.02847 0.35739 0.0
H1297 H 0.01619 0.02091 0.38464 0.0
H1298 H 0.97237 0.97412 0.39414 0.0
H1299 H 0.95293 0.98118 0.36661 0.0
C1300 C 0.00982 0.98479 0.44173 0.0
C1301 C 0.03025 0.98323 0.44011 0.0
C1302 C 0.99869 0.98925 0.42604 0.0
C1303 C 0.00771 0.99245 0.40837 0.0
C1304 C 0.02812 0.9911 0.40676 0.0
C1305 C 0.03923 0.98645 0.42238 0.0
C1306 C 0.99113 0.01639 0.36509 0.0
C1307 C 0.97301 0.0055 0.35972 0.0
C1308 C 1.00242 0.01212 0.38078 0.0
C1309 C 0.99581 0.99697 0.39161 0.0
C1310 C 0.97773 0.98609 0.38629 0.0
C1311 C 0.96655 0.99022 0.37051 0.0
H1312 H 0.25158 0.29578 0.66723 0.0
H1313 H 0.24667 0.24696 0.70105 0.0
H1314 H 0.2544 0.27249 0.63753 0.0
H1315 H 0.24802 0.2235 0.6711 0.0
H1316 H 0.27507 0.1885 0.61775 0.0
H1317 H 0.27042 0.21137 0.64757 0.0
H1318 H 0.23856 0.24811 0.61424 0.0
H1319 H 0.24392 0.22552 0.58437 0.0
C1320 C 0.25094 0.28006 0.66836 0.0
C1321 C 0.24913 0.27337 0.6867 0.0
C1322 C 0.25227 0.2666 0.65119 0.0
C1323 C 0.25157 0.24598 0.65176 0.0
C1324 C 0.24902 0.23924 0.67002 0.0
C1325 C 0.2479 0.25274 0.68725 0.0
C1326 C 0.267 0.20143 0.61684 0.0
C1327 C 0.25994 0.20523 0.59868 0.0
C1328 C 0.26421 0.21453 0.63398 0.0
C1329 C 0.25406 0.2317 0.63348 0.0
C1330 C 0.24678 0.23531 0.61527 0.0
C1331 C 0.24979 0.22233 0.5981 0.0
H1332 H 0.5442 0.50874 0.60353 0.0
H1333 H 0.52957 0.56934 0.60385 0.0
H1334 H 0.52565 0.50692 0.63335 0.0
H1335 H 0.51021 0.56721 0.63315 0.0
H1336 H 0.49124 0.56318 0.69577 0.0
H1337 H 0.51231 0.56537 0.66759 0.0
H1338 H 0.49223 0.50497 0.64378 0.0
H1339 H 0.47195 0.50246 0.67234 0.0
C1340 C 0.53715 0.52174 0.61001 0.0
C1341 C 0.53844 0.53921 0.60123 0.0
C1342 C 0.52626 0.52061 0.62701 0.0
C1343 C 0.51629 0.53688 0.63567 0.0
C1344 C 0.51782 0.55444 0.62704 0.0
C1345 C 0.52875 0.55559 0.61007 0.0
C1346 C 0.49152 0.55027 0.68466 0.0
C1347 C 0.47981 0.53265 0.68638 0.0
C1348 C 0.50344 0.55161 0.66835 0.0
C1349 C 0.50398 0.53537 0.65332 0.0
C1350 C 0.4924 0.51772 0.65513 0.0
C1351 C 0.48052 0.51637 0.67143 0.0
H1352 H 0.81085 0.23629 0.64512 0.0
H1353 H 0.79527 0.27839 0.69415 0.0
H1354 H 0.79677 0.25624 0.62255 0.0
H1355 H 0.78075 0.29831 0.67172 0.0
H1356 H 0.7852 0.34137 0.62548 0.0
H1357 H 0.7935 0.31967 0.64892 0.0
H1358 H 0.76766 0.26872 0.61011 0.0
H1359 H 0.75935 0.29047 0.5866 0.0
C1360 C 0.80385 0.24955 0.65103 0.0
C1361 C 0.8039 0.25579 0.67127 0.0
C1362 C 0.79578 0.26101 0.63814 0.0
C1363 C 0.78772 0.27902 0.64527 0.0
C1364 C 0.78708 0.28471 0.66568 0.0
C1365 C 0.79516 0.27322 0.67855 0.0
C1366 C 0.78098 0.32559 0.62205 0.0
C1367 C 0.77167 0.31771 0.60406 0.0
C1368 C 0.78573 0.3131 0.63554 0.0
C1369 C 0.78128 0.29238 0.63145 0.0
C1370 C 0.77158 0.28455 0.61365 0.0
C1371 C 0.76683 0.29704 0.60014 0.0
H1372 H 0.53916 0.00878 0.59076 0.0
H1373 H 0.51848 0.95041 0.60324 0.0
H1374 H 0.56217 0.01257 0.61841 0.0
H1375 H 0.54139 0.95427 0.63113 0.0
H1376 H 0.59828 0.96098 0.66865 0.0
H1377 H 0.57582 0.95621 0.64034 0.0
H1378 H 0.56215 0.01751 0.65343 0.0
H1379 H 0.58467 0.02228 0.6815 0.0
C1380 C 0.53942 0.99681 0.59952 0.0
C1381 C 0.52689 0.97934 0.59485 0.0
C1382 C 0.55261 0.99899 0.61541 0.0
C1383 C 0.55358 0.98379 0.62715 0.0
C1384 C 0.54123 0.96619 0.62231 0.0
C1385 C 0.52807 0.96398 0.60633 0.0
C1386 C 0.59038 0.97339 0.66553 0.0
C1387 C 0.59338 0.99205 0.67728 0.0
C1388 C 0.57748 0.97066 0.64931 0.0
C1389 C 0.56722 0.9865 0.64449 0.0
C1390 C 0.57009 0.00508 0.65641 0.0
C1391 C 0.58301 0.00782 0.67254 0.0
H1392 H 0.83946 0.2292 0.78147 0.0
H1393 H 0.87963 0.21513 0.7344 0.0
H1394 H 0.8665 0.23168 0.8052 0.0
H1395 H 0.90662 0.21662 0.75804 0.0
H1396 H 0.95459 0.23982 0.8036 0.0
H1397 H 0.92768 0.23772 0.77978 0.0
H1398 H 0.88789 0.2137 0.82073 0.0
H1399 H 0.91474 0.21679 0.84477 0.0
C1400 C 0.85409 0.22645 0.77625 0.0
C1401 C 0.85747 0.22205 0.75611 0.0
C1402 C 0.86962 0.22773 0.78985 0.0
C1403 C 0.88889 0.2243 0.78366 0.0
C1404 C 0.89215 0.21976 0.76344 0.0
C1405 C 0.87667 0.2188 0.74984 0.0
C1406 C 0.94008 0.234 0.8074 0.0
C1407 C 0.93673 0.22846 0.826 0.0
C1408 C 0.92462 0.2327 0.79372 0.0
C1409 C 0.90546 0.22553 0.79821 0.0
C1410 C 0.90227 0.2197 0.8168 0.0
C1411 C 0.91768 0.22132 0.83057 0.0
H1412 H 0.49341 0.91943 0.55687 0.0
H1413 H 0.49659 0.95399 0.50904 0.0
H1414 H 0.49567 0.88907 0.53389 0.0
H1415 H 0.49911 0.92358 0.48594 0.0
H1416 H 0.48881 0.86205 0.4484 0.0
H1417 H 0.48287 0.89209 0.47074 0.0
H1418 H 0.52093 0.87405 0.51413 0.0
H1419 H 0.52679 0.84411 0.4919 0.0
C1420 C 0.49449 0.92051 0.5414 0.0
C1421 C 0.49498 0.93914 0.5348 0.0
C1422 C 0.4959 0.90312 0.52822 0.0
C1423 C 0.49791 0.90386 0.50806 0.0
C1424 C 0.49747 0.9224 0.50134 0.0
C1425 C 0.496 0.93985 0.51457 0.0
C1426 C 0.49601 0.86457 0.46266 0.0
C1427 C 0.50824 0.85059 0.46835 0.0
C1428 C 0.49259 0.8818 0.47548 0.0
C1429 C 0.5013 0.88548 0.49432 0.0
C1430 C 0.51361 0.87153 0.49992 0.0
C1431 C 0.51701 0.85434 0.48714 0.0
H1432 H 0.17854 0.3008 0.75633 0.0
H1433 H 0.2043 0.25099 0.77561 0.0
H1434 H 0.14826 0.29302 0.77364 0.0
H1435 H 0.17426 0.24326 0.79325 0.0
H1436 H 0.11255 0.22788 0.81468 0.0
H1437 H 0.13919 0.23248 0.7918 0.0
H1438 H 0.13998 0.29617 0.80801 0.0
H1439 H 0.11301 0.29161 0.83034 0.0
C1440 C 0.17745 0.28786 0.76388 0.0
C1441 C 0.1935 0.27631 0.76452 0.0
C1442 C 0.16026 0.28354 0.77399 0.0
C1443 C 0.15887 0.26764 0.78505 0.0
C1444 C 0.1747 0.25548 0.78477 0.0
C1445 C 0.19189 0.25985 0.77465 0.0
C1446 C 0.11824 0.24288 0.81317 0.0
C1447 C 0.11066 0.25937 0.82443 0.0
C1448 C 0.13363 0.2455 0.80016 0.0
C1449 C 0.14174 0.26469 0.798 0.0
C1450 C 0.13394 0.28118 0.80906 0.0
C1451 C 0.11863 0.27855 0.8221 0.0
H1452 H 0.56362 0.5765 0.49099 0.0
H1453 H 0.53545 0.60951 0.53952 0.0
H1454 H 0.56284 0.60479 0.47271 0.0
H1455 H 0.53483 0.63794 0.52151 0.0
H1456 H 0.51188 0.67108 0.47352 0.0
H1457 H 0.51642 0.6448 0.49323 0.0
H1458 H 0.57514 0.63946 0.47093 0.0
H1459 H 0.57038 0.66549 0.45072 0.0
C1460 C 0.5577 0.59003 0.49787 0.0
C1461 C 0.54972 0.59102 0.51663 0.0
C1462 C 0.55724 0.60623 0.48745 0.0
C1463 C 0.54862 0.62361 0.49556 0.0
C1464 C 0.54131 0.6247 0.5147 0.0
C1465 C 0.54183 0.60854 0.5251 0.0
C1466 C 0.52573 0.66425 0.47271 0.0
C1467 C 0.54072 0.67037 0.46044 0.0
C1468 C 0.52844 0.64932 0.48422 0.0
C1469 C 0.54619 0.64003 0.48376 0.0
C1470 C 0.56125 0.6462 0.47156 0.0
C1471 C 0.55857 0.66125 0.4601 0.0
H1472 H 0.84086 0.75543 0.78438 0.0
H1473 H 0.85735 0.81828 0.79952 0.0
H1474 H 0.86737 0.75286 0.7607 0.0
H1475 H 0.88356 0.81581 0.77552 0.0
H1476 H 0.94232 0.79882 0.74772 0.0
H1477 H 0.91542 0.80155 0.77088 0.0
H1478 H 0.87725 0.76293 0.72919 0.0
H1479 H 0.90431 0.75979 0.7062 0.0
C1480 C 0.85012 0.76871 0.78264 0.0
C1481 C 0.84696 0.78706 0.79391 0.0
C1482 C 0.86522 0.76728 0.76892 0.0
C1483 C 0.87766 0.78412 0.76619 0.0
C1484 C 0.87441 0.80249 0.77736 0.0
C1485 C 0.85922 0.80395 0.79098 0.0
C1486 C 0.92824 0.79079 0.74352 0.0
C1487 C 0.92555 0.77905 0.72506 0.0
C1488 C 0.91273 0.79253 0.75674 0.0
C1489 C 0.89411 0.78248 0.75194 0.0
C1490 C 0.89141 0.77074 0.73347 0.0
C1491 C 0.90689 0.76911 0.7202 0.0
H1492 H 0.04721 0.89682 0.50188 0.0
H1493 H 0.04825 0.9456 0.54912 0.0
H1494 H 0.04601 0.87319 0.52539 0.0
H1495 H 0.04769 0.92209 0.57294 0.0
H1496 H 0.01777 0.87404 0.60646 0.0
H1497 H 0.02447 0.89872 0.58453 0.0
H1498 H 0.06174 0.85914 0.55016 0.0
H1499 H 0.0547 0.83434 0.57192 0.0
C1500 C 0.04785 0.90246 0.51739 0.0
C1501 C 0.04808 0.92295 0.52377 0.0
C1502 C 0.04715 0.88894 0.53092 0.0
C1503 C 0.04662 0.89562 0.55118 0.0
C1504 C 0.04775 0.91632 0.5575 0.0
C1505 C 0.04836 0.92983 0.5439 0.0
C1506 C 0.02758 0.87069 0.59435 0.0
C1507 C 0.03556 0.85211 0.5909 0.0
C1508 C 0.03151 0.88491 0.58177 0.0
C1509 C 0.04365 0.88102 0.56544 0.0
C1510 C 0.05204 0.8626 0.56232 0.0
C1511 C 0.048 0.84834 0.57482 0.0
H1512 H 0.16257 0.72793 0.79657 0.0
H1513 H 0.19378 0.7147 0.74275 0.0
H1514 H 0.13601 0.74041 0.77855 0.0
H1515 H 0.16747 0.72707 0.72473 0.0
H1516 H 0.10524 0.72172 0.69774 0.0
H1517 H 0.13266 0.71356 0.71693 0.0
H1518 H 0.12794 0.76716 0.75767 0.0
H1519 H 0.1007 0.77583 0.73806 0.0
C1520 C 0.16389 0.72814 0.78097 0.0
C1521 C 0.18013 0.72054 0.77097 0.0
C1522 C 0.14874 0.73524 0.77065 0.0
C1523 C 0.14955 0.73453 0.75018 0.0
C1524 C 0.16627 0.72757 0.74044 0.0
C1525 C 0.1814 0.72065 0.75074 0.0
C1526 C 0.11017 0.73203 0.71057 0.0
C1527 C 0.1008 0.74961 0.71612 0.0
C1528 C 0.1259 0.72727 0.72164 0.0
C1529 C 0.13262 0.73981 0.73872 0.0
C1530 C 0.12305 0.75717 0.74461 0.0
C1531 C 0.10739 0.76208 0.73338 0.0
H1532 H 0.98378 0.60066 0.48852 0.0
H1533 H 0.97199 0.5697 0.53817 0.0
H1534 H 0.99242 0.63139 0.51068 0.0
H1535 H 0.97929 0.6005 0.56018 0.0
H1536 H 0.00895 0.65468 0.59695 0.0
H1537 H 0.00414 0.62411 0.57384 0.0
H1538 H 0.97806 0.65643 0.53204 0.0
H1539 H 0.98353 0.68713 0.55505 0.0
C1540 C 0.98311 0.60035 0.50415 0.0
C1541 C 0.97704 0.58263 0.51148 0.0
C1542 C 0.98779 0.61808 0.51689 0.0
C1543 C 0.98646 0.6186 0.53732 0.0
C1544 C 0.98075 0.60077 0.54461 0.0
C1545 C 0.97624 0.58307 0.53191 0.0
C1546 C 1.00217 0.65523 0.58282 0.0
C1547 C 0.99652 0.67331 0.57788 0.0
C1548 C 0.99934 0.63766 0.56955 0.0
C1549 C 0.99055 0.63763 0.55102 0.0
C1550 C 0.98514 0.65583 0.546 0.0
C1551 C 0.98819 0.67346 0.55923 0.0
H1552 H 0.77667 0.84577 0.19377 0.0
H1553 H 0.76738 0.84687 0.25571 0.0
H1554 H 0.80103 0.87421 0.20067 0.0
H1555 H 0.792 0.875 0.2627 0.0
H1556 H 0.81896 0.93871 0.26767 0.0
H1557 H 0.79585 0.90951 0.26036 0.0
H1558 H 0.83309 0.8856 0.2138 0.0
H1559 H 0.85568 0.91541 0.22038 0.0
C1560 C 0.78009 0.85188 0.20888 0.0
C1561 C 0.77004 0.84414 0.22419 0.0
C1562 C 0.79407 0.8682 0.21286 0.0
C1563 C 0.79843 0.87707 0.23226 0.0
C1564 C 0.78874 0.86889 0.24757 0.0
C1565 C 0.77468 0.85269 0.24358 0.0
C1566 C 0.82213 0.92738 0.25569 0.0
C1567 C 0.83921 0.92955 0.24457 0.0
C1568 C 0.80899 0.91043 0.25168 0.0
C1569 C 0.81259 0.89507 0.23653 0.0
C1570 C 0.8297 0.89719 0.22545 0.0
C1571 C 0.84281 0.91421 0.22939 0.0
H1572 H 0.74978 0.15305 0.30028 0.0
H1573 H 0.79507 0.20153 0.31066 0.0
H1574 H 0.77491 0.12926 0.29658 0.0
H1575 H 0.82033 0.17761 0.30716 0.0
H1576 H 0.85747 0.12828 0.27466 0.0
H1577 H 0.83359 0.15329 0.28053 0.0
H1578 H 0.8001 0.11652 0.3166 0.0
H1579 H 0.82411 0.09173 0.31118 0.0
C1580 C 0.76513 0.15862 0.30178 0.0
C1581 C 0.77042 0.17919 0.30568 0.0
C1582 C 0.77953 0.14497 0.29983 0.0
C1583 C 0.79964 0.15152 0.30157 0.0
C1584 C 0.80498 0.17209 0.30558 0.0
C1585 C 0.79052 0.18577 0.30775 0.0
C1586 C 0.84521 0.12562 0.2841 0.0
C1587 C 0.84273 0.10782 0.29231 0.0
C1588 C 0.83149 0.13998 0.28743 0.0
C1589 C 0.81487 0.13685 0.29893 0.0
C1590 C 0.81256 0.11925 0.3074 0.0
C1591 C 0.82633 0.10498 0.30421 0.0
H1592 H 0.42011 0.0201 0.96555 0.0
H1593 H 0.44137 0.0227 0.02494 0.0
H1594 H 0.3918 0.99818 0.97236 0.0
H1595 H 0.41331 1.00024 0.03173 0.0
H1596 H 0.35182 0.97251 0.04229 0.0
H1597 H 0.37871 0.99645 0.03612 0.0
H1598 H 0.38375 0.9651 0.97759 0.0
H1599 H 0.35614 0.94201 0.98332 0.0
C1600 C 0.41876 0.01588 0.98006 0.0
C1601 C 0.43302 0.02304 0.99468 0.0
C1602 C 0.40256 1.00321 0.98397 0.0
C1603 C 0.40028 0.99718 1.00256 0.0
C1604 C 0.41439 0.0047 0.01731 0.0
C1605 C 0.43052 0.01755 0.01343 0.0
C1606 C 0.35847 0.97087 0.028 0.0
C1607 C 0.35171 0.95525 0.01332 0.0
C1608 C 0.37412 0.98449 0.02455 0.0
C1609 C 0.3835 0.9828 0.00634 0.0
C1610 C 0.37676 0.96712 0.9917 0.0
C1611 C 0.36106 0.95362 0.99511 0.0
H1612 H 0.24825 0.32507 0.27828 0.0
H1613 H 0.28919 0.36454 0.31609 0.0
H1614 H 0.23262 0.35365 0.26916 0.0
H1615 H 0.27394 0.3933 0.30678 0.0
H1616 H 0.22364 0.43499 0.30895 0.0
H1617 H 0.24311 0.40763 0.31398 0.0
H1618 H 0.23497 0.38308 0.25297 0.0
H1619 H 0.21482 0.41016 0.24809 0.0
C1620 C 0.25427 0.33995 0.28413 0.0
C1621 C 0.26999 0.34273 0.29768 0.0
C1622 C 0.24533 0.35634 0.27894 0.0
C1623 C 0.25187 0.37585 0.28736 0.0
C1624 C 0.2683 0.37852 0.30024 0.0
C1625 C 0.27722 0.3621 0.3054 0.0
C1626 C 0.22589 0.42372 0.2966 0.0
C1627 C 0.21749 0.42476 0.27814 0.0
C1628 C 0.23733 0.40814 0.29942 0.0
C1629 C 0.24072 0.39311 0.28387 0.0
C1630 C 0.23256 0.39429 0.26532 0.0
C1631 C 0.22115 0.40993 0.26248 0.0
H1632 H 0.09154 0.99738 0.51118 0.0
H1633 H 0.10038 0.98912 0.44871 0.0
H1634 H 0.12299 0.01777 0.51596 0.0
H1635 H 0.13132 0.00979 0.4535 0.0
H1636 H 0.16778 0.07015 0.46851 0.0
H1637 H 0.13844 0.04683 0.46509 0.0
H1638 H 0.16071 0.01678 0.51062 0.0
H1639 H 0.19023 0.04019 0.51403 0.0
C1640 C 0.10031 0.9996 0.49852 0.0
C1641 C 0.09324 0.99187 0.47954 0.0
C1642 C 0.11827 0.01134 0.50126 0.0
C1643 C 0.12943 0.01568 0.48507 0.0
C1644 C 0.12285 0.00708 0.46623 0.0
C1645 C 0.10509 0.99524 0.46351 0.0
C1646 C 0.1664 0.05862 0.47784 0.0
C1647 C 0.18133 0.05701 0.49152 0.0
C1648 C 0.14967 0.04517 0.47579 0.0
C1649 C 0.14731 0.02991 0.48754 0.0
C1650 C 0.1621 0.02841 0.50141 0.0
C1651 C 0.17903 0.04171 0.50326 0.0
H1652 H 0.79249 0.17663 0.70254 0.0
H1653 H 0.78573 0.20359 0.76231 0.0
H1654 H 0.76859 0.14927 0.70764 0.0
H1655 H 0.76139 0.17667 0.76736 0.0
H1656 H 0.74074 0.11389 0.77771 0.0
H1657 H 0.76156 0.14279 0.77134 0.0
H1658 H 0.73557 0.13778 0.7134 0.0
H1659 H 0.71556 0.10808 0.71936 0.0
C1660 C 0.78546 0.17697 0.71661 0.0
C1661 C 0.79104 0.19217 0.73206 0.0
C1662 C 0.77176 0.16127 0.71957 0.0
C1663 C 0.76322 0.16052 0.73803 0.0
C1664 C 0.76802 0.17641 0.75311 0.0
C1665 C 0.78183 0.19196 0.75019 0.0
C1666 C 0.73959 0.11876 0.76351 0.0
C1667 C 0.72645 0.1085 0.74906 0.0
C1668 C 0.75134 0.13561 0.75995 0.0
C1669 C 0.75022 0.14282 0.74187 0.0
C1670 C 0.73699 0.13263 0.72744 0.0
C1671 C 0.72531 0.11569 0.73097 0.0
H1672 H 0.42459 0.00684 0.56258 0.0
H1673 H 0.45665 0.02551 0.51387 0.0
H1674 H 0.3957 0.02239 0.55268 0.0
H1675 H 0.42767 0.04077 0.50353 0.0
H1676 H 0.38416 0.08973 0.50978 0.0
H1677 H 0.41121 0.06993 0.5157 0.0
H1678 H 0.36958 0.02274 0.52902 0.0
H1679 H 0.3425 0.04294 0.52389 0.0
C1680 C 0.42517 0.01375 0.54937 0.0
C1681 C 0.44263 0.01486 0.53883 0.0
C1682 C 0.40865 0.02269 0.54368 0.0
C1683 C 0.40935 0.03302 0.52737 0.0
C1684 C 0.42668 0.03323 0.51633 0.0
C1685 C 0.44319 0.02429 0.52206 0.0
C1686 C 0.38074 0.07518 0.51408 0.0
C1687 C 0.3611 0.06803 0.51647 0.0
C1688 C 0.39628 0.06367 0.5172 0.0
C1689 C 0.39264 0.04465 0.5228 0.0
C1690 C 0.37297 0.03736 0.52489 0.0
C1691 C 0.35741 0.04889 0.52175 0.0
H1692 H 0.60707 0.5268 0.58683 0.0
H1693 H 0.58717 0.50907 0.52688 0.0
H1694 H 0.63383 0.50523 0.58132 0.0
H1695 H 0.6148 0.4887 0.52095 0.0
H1696 H 0.65184 0.43628 0.52199 0.0
H1697 H 0.62571 0.45858 0.52744 0.0
H1698 H 0.66412 0.49989 0.56665 0.0
H1699 H 0.68974 0.47688 0.56239 0.0
C1700 C 0.60845 0.51845 0.5724 0.0
C1701 C 0.59472 0.51966 0.55738 0.0
C1702 C 0.62405 0.50623 0.56915 0.0
C1703 C 0.62656 0.495 0.55069 0.0
C1704 C 0.61321 0.49674 0.53548 0.0
C1705 C 0.59748 0.50879 0.5388 0.0
C1706 C 0.65468 0.44996 0.53203 0.0
C1707 C 0.67302 0.4546 0.54178 0.0
C1708 C 0.63972 0.46299 0.5349 0.0
C1709 C 0.64269 0.48122 0.54744 0.0
C1710 C 0.66109 0.48594 0.55707 0.0
C1711 C 0.67597 0.4728 0.55437 0.0
H1712 H 0.77073 0.24954 0.3383 0.0
H1713 H 0.70981 0.23209 0.34848 0.0
H1714 H 0.77135 0.27457 0.36755 0.0
H1715 H 0.71044 0.2571 0.37778 0.0
H1716 H 0.73002 0.28512 0.44153 0.0
H1717 H 0.72793 0.26157 0.41116 0.0
H1718 H 0.75573 0.30674 0.38017 0.0
H1719 H 0.75779 0.33031 0.41055 0.0
C1720 C 0.75746 0.25113 0.34676 0.0
C1721 C 0.74022 0.23886 0.34111 0.0
C1722 C 0.75778 0.26553 0.36342 0.0
C1723 C 0.74096 0.26776 0.37499 0.0
C1724 C 0.72366 0.25562 0.36923 0.0
C1725 C 0.72325 0.24144 0.35238 0.0
C1726 C 0.73567 0.29001 0.42822 0.0
C1727 C 0.74408 0.30956 0.42843 0.0
C1728 C 0.73433 0.27658 0.41082 0.0
C1729 C 0.74166 0.28231 0.39329 0.0
C1730 C 0.75005 0.30187 0.39348 0.0
C1731 C 0.75111 0.31539 0.41083 0.0
H1732 H 0.50396 0.06038 0.91058 0.0
H1733 H 0.54215 0.03414 0.9479 0.0
H1734 H 0.5298 0.06085 0.88611 0.0
H1735 H 0.56807 0.03437 0.92342 0.0
H1736 H 0.61474 0.04891 0.87831 0.0
H1737 H 0.59129 0.05448 0.90483 0.0
H1738 H 0.54329 0.0338 0.86406 0.0
H1739 H 0.56654 0.02783 0.83776 0.0
C1740 C 0.51813 0.05525 0.91373 0.0
C1741 C 0.52126 0.04745 0.93111 0.0
C1742 C 0.53284 0.05528 0.89966 0.0
C1743 C 0.55094 0.04742 0.90269 0.0
C1744 C 0.55439 0.04066 0.92067 0.0
C1745 C 0.5396 0.04056 0.93471 0.0
C1746 C 0.59919 0.04542 0.87501 0.0
C1747 C 0.59262 0.03796 0.85578 0.0
C1748 C 0.58575 0.04871 0.89022 0.0
C1749 C 0.56539 0.04477 0.88656 0.0
C1750 C 0.55883 0.03743 0.86735 0.0
C1751 C 0.57222 0.03401 0.85221 0.0
H1752 H 0.31289 0.23225 0.32845 0.0
H1753 H 0.30249 0.28267 0.37145 0.0
H1754 H 0.30852 0.21031 0.35349 0.0
H1755 H 0.29867 0.261 0.39657 0.0
H1756 H 0.27 0.2153 0.43165 0.0
H1757 H 0.27595 0.23674 0.4066 0.0
H1758 H 0.3213 0.20009 0.38228 0.0
H1759 H 0.31499 0.17839 0.4072 0.0
C1760 C 0.31001 0.23868 0.34333 0.0
C1761 C 0.30787 0.25918 0.34791 0.0
C1762 C 0.30751 0.22611 0.35773 0.0
C1763 C 0.30298 0.23376 0.37712 0.0
C1764 C 0.3016 0.25441 0.38176 0.0
C1765 C 0.30391 0.26689 0.36736 0.0
C1766 C 0.28134 0.21188 0.42104 0.0
C1767 C 0.29204 0.19512 0.42151 0.0
C1768 C 0.28482 0.22424 0.40665 0.0
C1769 C 0.29924 0.22033 0.39237 0.0
C1770 C 0.30991 0.2035 0.39281 0.0
C1771 C 0.30631 0.19104 0.40715 0.0
H1772 H 0.50586 0.47032 0.95086 0.0
H1773 H 0.55831 0.49499 0.92526 0.0
H1774 H 0.48613 0.47801 0.92376 0.0
H1775 H 0.53838 0.50317 0.89848 0.0
H1776 H 0.49147 0.53274 0.86542 0.0
H1777 H 0.51185 0.5255 0.89236 0.0
H1778 H 0.48228 0.46658 0.8877 0.0
H1779 H 0.46232 0.47349 0.86048 0.0
C1780 C 0.51324 0.47729 0.93944 0.0
C1781 C 0.53376 0.48193 0.94031 0.0
C1782 C 0.50189 0.48175 0.92393 0.0
C1783 C 0.51069 0.49116 0.90895 0.0
C1784 C 0.53113 0.49611 0.90991 0.0
C1785 C 0.54254 0.49147 0.92534 0.0
C1786 C 0.48946 0.51814 0.86994 0.0
C1787 C 0.47509 0.50377 0.86075 0.0
C1788 C 0.50112 0.51403 0.88544 0.0
C1789 C 0.49859 0.49552 0.89226 0.0
C1790 C 0.48435 0.48112 0.88303 0.0
C1791 C 0.47285 0.48514 0.86743 0.0
H1792 H 0.71507 0.78289 0.17097 0.0
H1793 H 0.77146 0.77269 0.19484 0.0
H1794 H 0.71989 0.75788 0.1426 0.0
H1795 H 0.77631 0.74771 0.16645 0.0
H1796 H 0.76814 0.69053 0.12099 0.0
H1797 H 0.76199 0.71384 0.1503 0.0
H1798 H 0.74306 0.75562 0.11395 0.0
H1799 H 0.74915 0.73231 0.08465 0.0
C1800 C 0.72836 0.77509 0.17029 0.0
C1801 C 0.74288 0.77974 0.18514 0.0
C1802 C 0.73121 0.76093 0.15396 0.0
C1803 C 0.74853 0.7509 0.15223 0.0
C1804 C 0.76277 0.75511 0.16739 0.0
C1805 C 0.76004 0.76946 0.18359 0.0
C1806 C 0.76258 0.70466 0.11927 0.0
C1807 C 0.75915 0.70958 0.1005 0.0
C1808 C 0.75918 0.71805 0.13605 0.0
C1809 C 0.75199 0.73655 0.13444 0.0
C1810 C 0.74842 0.74141 0.11567 0.0
C1811 C 0.75209 0.72814 0.0989 0.0
H1812 H 0.01144 0.03212 0.08241 0.0
H1813 H 0.06314 0.04782 0.11955 0.0
H1814 H 0.99099 0.03189 0.11132 0.0
H1815 H 0.04268 0.0473 0.14852 0.0
H1816 H 0.9956 0.06313 0.19532 0.0
H1817 H 0.01617 0.06525 0.16672 0.0
H1818 H 0.98635 0.01066 0.13762 0.0
H1819 H 0.96615 0.0082 0.16625 0.0
C1820 C 0.01842 0.03575 0.09675 0.0
C1821 C 0.03893 0.04001 0.09866 0.0
C1822 C 0.00672 0.0354 0.11332 0.0
C1823 C 0.01521 0.03947 0.13224 0.0
C1824 C 0.03566 0.04422 0.13418 0.0
C1825 C 0.0474 0.04437 0.11758 0.0
C1826 C 0.99355 0.05144 0.18294 0.0
C1827 C 0.97906 0.03553 0.18318 0.0
C1828 C 0.00532 0.0527 0.1665 0.0
C1829 C 1.00282 0.0382 0.14982 0.0
C1830 C 0.98842 0.02229 0.15007 0.0
C1831 C 0.97678 0.02092 0.16652 0.0
H1832 H 0.33339 0.77557 0.1798 0.0
H1833 H 0.28431 0.73284 0.16204 0.0
H1834 H 0.3211 0.79814 0.15896 0.0
H1835 H 0.27143 0.75564 0.14146 0.0
H1836 H 0.27031 0.78969 0.08817 0.0
H1837 H 0.27914 0.76807 0.11148 0.0
H1838 H 0.29643 0.81966 0.15385 0.0
H1839 H 0.28866 0.84126 0.13015 0.0
C1840 C 0.31969 0.77125 0.17169 0.0
C1841 C 0.30969 0.75264 0.17251 0.0
C1842 C 0.31256 0.7842 0.1598 0.0
C1843 C 0.29523 0.77878 0.14844 0.0
C1844 C 0.28495 0.76023 0.14977 0.0
C1845 C 0.29216 0.74724 0.16167 0.0
C1846 C 0.27613 0.79646 0.1024 0.0
C1847 C 0.27895 0.81729 0.10712 0.0
C1848 C 0.28092 0.78402 0.11593 0.0
C1849 C 0.2886 0.79205 0.1346 0.0
C1850 C 0.29084 0.81289 0.13953 0.0
C1851 C 0.28613 0.82533 0.12598 0.0
H1852 H 0.03751 0.50628 0.08501 0.0
H1853 H 0.01089 0.45058 0.09927 0.0
H1854 H 0.05848 0.50988 0.11419 0.0
H1855 H 0.03244 0.45383 0.12817 0.0
H1856 H 0.06009 0.47804 0.18919 0.0
H1857 H 0.03839 0.47368 0.16036 0.0
H1858 H 0.08639 0.49493 0.12624 0.0
H1859 H 0.10805 0.49925 0.15498 0.0
C1860 C 0.03603 0.49485 0.09444 0.0
C1861 C 0.02243 0.47817 0.08981 0.0
C1862 C 0.04826 0.49678 0.11105 0.0
C1863 C 0.04725 0.48209 0.1235 0.0
C1864 C 0.03352 0.4655 0.11899 0.0
C1865 C 0.02129 0.46354 0.10233 0.0
C1866 C 0.06608 0.48156 0.17549 0.0
C1867 C 0.08581 0.48911 0.17447 0.0
C1868 C 0.05362 0.47907 0.15895 0.0
C1869 C 0.06059 0.48409 0.141 0.0
C1870 C 0.08041 0.4913 0.13992 0.0
C1871 C 0.09285 0.49377 0.15642 0.0
H1872 H 0.36473 0.75074 0.25233 0.0
H1873 H 0.35266 0.69108 0.2663 0.0
H1874 H 0.39181 0.75633 0.27638 0.0
H1875 H 0.37895 0.69722 0.29092 0.0
H1876 H 0.41321 0.72605 0.34787 0.0
H1877 H 0.38602 0.7214 0.32382 0.0
H1878 H 0.42559 0.74042 0.28029 0.0
H1879 H 0.45285 0.74479 0.30427 0.0
C1880 C 0.36777 0.73881 0.26045 0.0
C1881 C 0.35629 0.72047 0.25733 0.0
C1882 C 0.38324 0.74208 0.27428 0.0
C1883 C 0.38737 0.72724 0.28555 0.0
C1884 C 0.37589 0.70902 0.28261 0.0
C1885 C 0.36069 0.70559 0.26856 0.0
C1886 C 0.41605 0.72927 0.33317 0.0
C1887 C 0.43511 0.73569 0.32787 0.0
C1888 C 0.40055 0.72654 0.31942 0.0
C1889 C 0.40373 0.73057 0.30022 0.0
C1890 C 0.42273 0.73732 0.29502 0.0
C1891 C 0.43832 0.73968 0.30867 0.0
H1892 H 0.99064 0.41734 0.05056 0.0
H1893 H 1.00217 0.45005 1.0021 0.0
H1894 H 0.99357 0.38616 0.02888 0.0
H1895 H 0.00519 0.41893 0.98045 0.0
H1896 H 0.99393 0.35778 0.94338 0.0
H1897 H 0.98788 0.38844 0.96462 0.0
H1898 H 0.01935 0.36868 0.01186 0.0
H1899 H 0.02535 0.33805 0.99066 0.0
C1900 C 0.99373 0.41787 0.03525 0.0
C1901 C 0.99622 0.43622 0.0281 0.0
C1902 C 0.99549 0.4 0.02283 0.0
C1903 C 0.99981 0.39999 1.00292 0.0
C1904 C 1.00164 0.41831 0.99563 0.0
C1905 C 0.99986 0.43619 0.00806 0.0
C1906 C 0.99969 0.36004 0.95826 0.0
C1907 C 0.01016 0.34542 0.96528 0.0
C1908 C 0.99619 0.37763 0.97045 0.0
C1909 C 1.00307 0.38106 0.99 0.0
C1910 C 0.0135 0.36641 0.99702 0.0
C1911 C 0.01698 0.34883 0.98483 0.0
H1912 H 0.65306 0.79171 0.23708 0.0
H1913 H 0.70019 0.79574 0.27971 0.0
H1914 H 0.62976 0.78007 0.26063 0.0
H1915 H 0.67709 0.78374 0.30331 0.0
H1916 H 0.62597 0.79086 0.34674 0.0
H1917 H 0.65051 0.7976 0.3225 0.0
H1918 H 0.61935 0.75372 0.27947 0.0
H1919 H 0.59439 0.74751 0.30354 0.0
C1920 C 0.65847 0.78953 0.25136 0.0
C1921 C 0.67833 0.79437 0.25664 0.0
C1922 C 0.64517 0.78288 0.26486 0.0
C1923 C 0.6515 0.78109 0.28395 0.0
C1924 C 0.67164 0.78522 0.28885 0.0
C1925 C 0.68492 0.79185 0.27532 0.0
C1926 C 0.6243 0.7827 0.33209 0.0
C1927 C 0.60812 0.76871 0.32711 0.0
C1928 C 0.63853 0.78637 0.31823 0.0
C1929 C 0.63696 0.77618 0.29899 0.0
C1930 C 0.62095 0.76196 0.29408 0.0
C1931 C 0.60673 0.75825 0.30797 0.0
H1932 H 0.02506 0.09757 0.03308 0.0
H1933 H 0.07388 0.07977 0.99714 0.0
H1934 H 0.02278 0.1266 0.01608 0.0
H1935 H 0.07147 0.10835 0.97974 0.0
H1936 H 0.07174 0.16978 0.96135 0.0
H1937 H 0.07577 0.14385 0.98173 0.0
H1938 H 0.01254 0.13331 0.98445 0.0
H1939 H 0.00855 0.15929 0.96422 0.0
C1940 C 0.03544 0.10009 0.02169 0.0
C1941 C 0.04973 0.08669 0.01644 0.0
C1942 C 0.03405 0.11655 0.0118 0.0
C1943 C 0.04688 0.11983 0.99642 0.0
C1944 C 0.06152 0.10653 0.99164 0.0
C1945 C 0.0629 0.09013 1.00155 0.0
C1946 C 0.05869 0.16187 0.96623 0.0
C1947 C 0.03981 0.16662 0.96107 0.0
C1948 C 0.061 0.14699 0.97795 0.0
C1949 C 0.04449 0.13642 0.98479 0.0
C1950 C 0.02562 0.14134 0.97979 0.0
C1951 C 0.02331 0.15624 0.96812 0.0
H1952 H 0.34226 0.25173 0.28673 0.0
H1953 H 0.34207 0.31517 0.28663 0.0
H1954 H 0.36931 0.25064 0.26379 0.0
H1955 H 0.36865 0.31379 0.26304 0.0
H1956 H 0.40285 0.29756 0.20525 0.0
H1957 H 0.37519 0.29886 0.22782 0.0
H1958 H 0.40518 0.26374 0.26422 0.0
H1959 H 0.43279 0.26248 0.24171 0.0
C1960 C 0.34799 0.26549 0.28197 0.0
C1961 C 0.33992 0.28358 0.28881 0.0
C1962 C 0.36348 0.26481 0.26869 0.0
C1963 C 0.37118 0.28213 0.26162 0.0
C1964 C 0.36292 0.30015 0.26807 0.0
C1965 C 0.34759 0.3009 0.28157 0.0
C1966 C 0.40348 0.29006 0.21803 0.0
C1967 C 0.42003 0.27995 0.2217 0.0
C1968 C 0.38771 0.29093 0.23103 0.0
C1969 C 0.38797 0.28139 0.24781 0.0
C1970 C 0.40445 0.27112 0.25136 0.0
C1971 C 0.42033 0.27052 0.23855 0.0
H1972 H 0.53191 0.43784 0.03698 0.0
H1973 H 0.57271 0.39816 0.00884 0.0
H1974 H 0.52829 0.41778 0.06371 0.0
H1975 H 0.56893 0.37776 0.03524 0.0
H1976 H 0.56696 0.35106 0.09205 0.0
H1977 H 0.57422 0.37498 0.06938 0.0
H1978 H 0.51261 0.38552 0.06727 0.0
H1979 H 0.50537 0.36166 0.08986 0.0
C1980 C 0.54044 0.42505 0.03681 0.0
C1981 C 0.55276 0.41961 0.02109 0.0
C1982 C 0.5382 0.4134 0.05195 0.0
C1983 C 0.54816 0.39598 0.0516 0.0
C1984 C 0.56118 0.39114 0.03617 0.0
C1985 C 0.56339 0.40281 0.02104 0.0
C1986 C 0.55495 0.35844 0.08672 0.0
C1987 C 0.53555 0.35433 0.09281 0.0
C1988 C 0.55913 0.3722 0.07372 0.0
C1989 C 0.54403 0.38226 0.06645 0.0
C1990 C 0.5247 0.37839 0.07281 0.0
C1991 C 0.52052 0.36463 0.08579 0.0
H1992 H 0.6958 0.23421 0.24676 0.0
H1993 H 0.65801 0.21386 0.29088 0.0
H1994 H 0.66767 0.2465 0.23142 0.0
H1995 H 0.62975 0.22655 0.27594 0.0
H1996 H 0.58198 0.22495 0.228 0.0
H1997 H 0.60997 0.21703 0.24668 0.0
H1998 H 0.6431 0.27015 0.23363 0.0
H1999 H 0.61535 0.2776 0.21419 0.0
C2000 C 0.68149 0.2329 0.25345 0.0
C2001 C 0.67896 0.2233 0.27001 0.0
C2002 C 0.66536 0.23994 0.2447 0.0
C2003 C 0.64634 0.23743 0.25234 0.0
C2004 C 0.64409 0.22848 0.26947 0.0
C2005 C 0.66026 0.22141 0.27818 0.0
C2006 C 0.59526 0.2349 0.229 0.0
C2007 C 0.5964 0.25184 0.21941 0.0
C2008 C 0.61126 0.23051 0.23999 0.0
C2009 C 0.62886 0.24295 0.24174 0.0
C2010 C 0.62988 0.26011 0.23247 0.0
C2011 C 0.61386 0.2645 0.22147 0.0
H2012 H 0.47588 0.07036 0.03812 0.0
H2013 H 0.48653 0.10164 0.98853 0.0
H2014 H 0.48277 0.1013 0.06024 0.0
H2015 H 0.49422 0.13264 0.01077 0.0
H2016 H 0.48097 0.18698 0.05592 0.0
H2017 H 0.47718 0.15629 0.03276 0.0
H2018 H 0.50815 0.12613 0.07309 0.0
H2019 H 0.5118 0.15676 0.09626 0.0
C2020 C 0.47985 0.08385 0.03193 0.0
C2021 C 0.48047 0.08351 0.01151 0.0
C2022 C 0.48402 0.1016 0.04465 0.0
C2023 C 0.489 0.11956 0.03735 0.0
C2024 C 0.49018 0.11915 0.01693 0.0
C2025 C 0.48601 0.10133 0.00416 0.0
C2026 C 0.48716 0.17386 0.05976 0.0
C2027 C 0.49657 0.17435 0.07805 0.0
C2028 C 0.48503 0.15624 0.04644 0.0
C2029 C 0.49229 0.13864 0.05104 0.0
C2030 C 0.50204 0.13926 0.06917 0.0
C2031 C 0.50413 0.15685 0.0825 0.0
H2032 H 0.30219 0.3238 0.71165 0.0
H2033 H 0.25617 0.3561 0.74091 0.0
H2034 H 0.32428 0.35427 0.71612 0.0
H2035 H 0.27831 0.38634 0.7458 0.0
H2036 H 0.31729 0.44121 0.73542 0.0
H2037 H 0.29536 0.41098 0.7279 0.0
H2038 H 0.34171 0.37609 0.74348 0.0
H2039 H 0.3636 0.4063 0.75122 0.0
C2040 C 0.29674 0.33743 0.71888 0.0
C2041 C 0.27745 0.33752 0.72598 0.0
C2042 C 0.30945 0.35484 0.72162 0.0
C2043 C 0.30309 0.37274 0.73137 0.0
C2044 C 0.28365 0.37288 0.73807 0.0
C2045 C 0.27101 0.35549 0.73544 0.0
C2046 C 0.32279 0.42712 0.73738 0.0
C2047 C 0.34223 0.42627 0.74402 0.0
C2048 C 0.31022 0.40977 0.73301 0.0
C2049 C 0.31676 0.3911 0.7351 0.0
C2050 C 0.33628 0.39019 0.74143 0.0
C2051 C 0.34884 0.40754 0.74587 0.0
H2052 H 0.29467 0.69961 0.81201 0.0
H2053 H 0.24942 0.65097 0.80582 0.0
H2054 H 0.31996 0.67577 0.80835 0.0
H2055 H 0.27458 0.62722 0.80183 0.0
H2056 H 0.32486 0.59049 0.81523 0.0
H2057 H 0.30074 0.61518 0.82079 0.0
H2058 H 0.33241 0.65078 0.7824 0.0
H2059 H 0.35641 0.62592 0.7765 0.0
C2060 C 0.29014 0.68384 0.80998 0.0
C2061 C 0.27003 0.67719 0.80914 0.0
C2062 C 0.30461 0.67019 0.8077 0.0
C2063 C 0.29931 0.64958 0.80477 0.0
C2064 C 0.2792 0.64297 0.80424 0.0
C2065 C 0.26476 0.65659 0.80633 0.0
C2066 C 0.32664 0.60348 0.80781 0.0
C2067 C 0.34258 0.60605 0.79527 0.0
C2068 C 0.31281 0.61768 0.81106 0.0
C2069 C 0.31458 0.63493 0.80198 0.0
C2070 C 0.33072 0.63777 0.7898 0.0
C2071 C 0.34451 0.6235 0.78644 0.0
H2072 H 0.91321 0.54397 0.50771 0.0
H2073 H 0.94462 0.49318 0.48497 0.0
H2074 H 0.88507 0.52158 0.51458 0.0
H2075 H 0.9164 0.47098 0.4914 0.0
H2076 H 0.85386 0.44021 0.48296 0.0
H2077 H 0.88214 0.46296 0.47799 0.0
H2078 H 0.87527 0.49515 0.53577 0.0
H2079 H 0.8472 0.47205 0.54107 0.0
C2080 C 0.91423 0.52807 0.50435 0.0
C2081 C 0.93118 0.52044 0.4956 0.0
C2082 C 0.89807 0.51525 0.50825 0.0
C2083 C 0.89844 0.49452 0.50335 0.0
C2084 C 0.91551 0.48689 0.495 0.0
C2085 C 0.93168 0.49965 0.49127 0.0
C2086 C 0.85848 0.45193 0.49477 0.0
C2087 C 0.84823 0.45411 0.51249 0.0
C2088 C 0.87469 0.46503 0.49186 0.0
C2089 C 0.881 0.48081 0.50651 0.0
C2090 C 0.87065 0.48324 0.52413 0.0
C2091 C 0.85452 0.47 0.52713 0.0
H2092 H 0.80171 0.87477 0.81952 0.0
H2093 H 0.75791 0.83026 0.79206 0.0
H2094 H 0.78394 0.90088 0.80793 0.0
H2095 H 0.74017 0.8562 0.78014 0.0
H2096 H 0.70054 0.90858 0.78983 0.0
H2097 H 0.72054 0.88193 0.79595 0.0
H2098 H 0.77268 0.91589 0.78004 0.0
H2099 H 0.75266 0.94288 0.77442 0.0
C2100 C 0.78858 0.87058 0.81047 0.0
C2101 C 0.78122 0.8506 0.80646 0.0
C2102 C 0.77837 0.8855 0.80384 0.0
C2103 C 0.76049 0.88069 0.79323 0.0
C2104 C 0.75371 0.86048 0.7885 0.0
C2105 C 0.76396 0.8456 0.79511 0.0
C2106 C 0.71628 0.91041 0.78768 0.0
C2107 C 0.72498 0.92797 0.78176 0.0
C2108 C 0.72774 0.895 0.79094 0.0
C2109 C 0.74826 0.89669 0.78844 0.0
C2110 C 0.75695 0.91412 0.78223 0.0
C2111 C 0.74544 0.92953 0.77885 0.0
H2112 H 0.57738 0.52412 0.9905 0.0
H2113 H 0.6117 0.47309 0.98288 0.0
H2114 H 0.60743 0.5461 0.99668 0.0
H2115 H 0.64194 0.49505 0.98854 0.0
H2116 H 0.6927 0.54029 0.01265 0.0
H2117 H 0.66259 0.51808 0.01072 0.0
H2118 H 0.6339 0.55768 0.97808 0.0
H2119 H 0.66381 0.57991 0.98033 0.0
C2120 C 0.59139 0.51761 0.99029 0.0
C2121 C 0.59219 0.49689 0.98611 0.0
C2122 C 0.60866 0.53021 0.99367 0.0
C2123 C 0.62723 0.52244 0.99278 0.0
C2124 C 0.62795 0.50162 0.98949 0.0
C2125 C 0.61062 0.48898 0.98626 0.0
C2126 C 0.67997 0.54418 0.00499 0.0
C2127 C 0.68068 0.56193 0.9967 0.0
C2128 C 0.66268 0.53144 0.00388 0.0
C2129 C 0.64567 0.53607 0.99435 0.0
C2130 C 0.64649 0.55378 0.98595 0.0
C2131 C 0.66371 0.56655 0.98717 0.0
H2132 H 0.31355 0.66435 0.24529 0.0
H2133 H 0.26956 0.69508 0.21898 0.0
H2134 H 0.28907 0.63759 0.24937 0.0
H2135 H 0.24495 0.66754 0.22231 0.0
H2136 H 0.20307 0.62424 0.25294 0.0
H2137 H 0.22634 0.65186 0.247 0.0
H2138 H 0.27028 0.61045 0.23053 0.0
H2139 H 0.24718 0.58302 0.23672 0.0
C2140 C 0.29859 0.66547 0.24044 0.0
C2141 C 0.29351 0.68207 0.23205 0.0
C2142 C 0.28456 0.6499 0.24251 0.0
C2143 C 0.26502 0.65028 0.23607 0.0
C2144 C 0.25985 0.66682 0.22757 0.0
C2145 C 0.27397 0.68252 0.22551 0.0
C2146 C 0.21766 0.62105 0.24789 0.0
C2147 C 0.22335 0.60145 0.24553 0.0
C2148 C 0.23098 0.63688 0.24443 0.0
C2149 C 0.25027 0.63344 0.23846 0.0
C2150 C 0.25571 0.61374 0.23555 0.0
C2151 C 0.24246 0.59798 0.23911 0.0
H2152 H 0.95432 0.54544 0.06095 0.0
H2153 H 0.93475 0.49815 0.01505 0.0
H2154 H 0.9244 0.56198 0.05678 0.0
H2155 H 0.90431 0.51432 0.01105 0.0
H2156 H 0.86574 0.56211 0.99344 0.0
H2157 H 0.89362 0.54302 0.99872 0.0
H2158 H 0.88974 0.56066 0.06115 0.0
H2159 H 0.86205 0.57995 0.0558 0.0
C2160 C 0.94334 0.53844 0.0502 0.0
C2161 C 0.94664 0.52056 0.0384 0.0
C2162 C 0.92614 0.54784 0.04783 0.0
C2163 C 0.91183 0.53953 0.03357 0.0
C2164 C 0.91508 0.5213 0.02201 0.0
C2165 C 0.93237 0.51192 0.02438 0.0
C2166 C 0.87071 0.56174 0.0083 0.0
C2167 C 0.86173 0.57269 0.02418 0.0
C2168 C 0.88669 0.55073 0.01135 0.0
C2169 C 0.89405 0.55029 0.03038 0.0
C2170 C 0.88476 0.56092 0.04627 0.0
C2171 C 0.86886 0.572 0.04321 0.0
H2172 H 0.08105 0.98819 0.07183 0.0
H2173 H 0.11696 0.03576 0.05134 0.0
H2174 H 0.10829 0.96695 0.06739 0.0
H2175 H 0.14472 0.01507 0.0479 0.0
H2176 H 0.1842 0.96708 0.02357 0.0
H2177 H 0.15716 0.9885 0.02875 0.0
H2178 H 0.13858 0.95957 0.07823 0.0
H2179 H 0.16505 0.93748 0.07218 0.0
C2180 C 0.09496 0.9942 0.06673 0.0
C2181 C 0.09692 0.0136 0.06192 0.0
C2182 C 0.11067 0.98207 0.06425 0.0
C2183 C 0.12889 0.98914 0.05721 0.0
C2184 C 0.13089 0.00881 0.0529 0.0
C2185 C 0.11504 0.0208 0.05503 0.0
C2186 C 0.1743 0.96537 0.03555 0.0
C2187 C 0.17668 0.9506 0.04743 0.0
C2188 C 0.15883 0.97775 0.03866 0.0
C2189 C 0.14553 0.97596 0.054 0.0
C2190 C 0.14816 0.96125 0.06603 0.0
C2191 C 0.16342 0.94861 0.06266 0.0
loop_
_geom_bond_atom_site_label_1
_geom_bond_atom_site_label_2
_geom_bond_distance
_geom_bond_site_symmetry_2
_ccdc_geom_bond_type
H0 C3 0.929 . S
H1 C6 0.929 . S
H2 C8 0.930 . S
C3 H0 0.929 . S
C3 C4 1.398 . S
C3 C5 1.396 . S
C4 C3 1.398 . S
C4 C8 1.407 . S
C5 C3 1.396 . S
C5 C6 1.394 . S
C6 H1 0.929 . S
C6 C5 1.394 . S
C6 C7 1.382 . S
C7 C6 1.382 . S
C7 C8 1.392 . S
C7 N9 1.420 . S
C8 H2 0.930 . S
C8 C4 1.407 . S
C8 C7 1.392 . S
N9 C7 1.420 . S
N9 C10 1.244 . S
C10 N9 1.244 . S
H11 C14 0.929 . S
H12 C17 0.929 . S
H13 C19 0.930 . S
C14 H11 0.929 . S
C14 C15 1.398 . S
C14 C16 1.396 . S
C15 C14 1.398 . S
C15 C19 1.407 . S
C16 C14 1.396 . S
C16 C17 1.394 . S
C17 H12 0.929 . S
C17 C16 1.394 . S
C17 C18 1.382 . S
C18 C17 1.382 . S
C18 C19 1.392 . S
C18 N20 1.420 . S
C19 H13 0.930 . S
C19 C15 1.407 . S
C19 C18 1.392 . S
N20 C18 1.420 . S
N20 C21 1.244 . S
C21 N20 1.244 . S
H22 C25 0.929 . S
H23 C28 0.929 . S
H24 C30 0.942 . S
C25 H22 0.929 . S
C25 C26 1.398 1_455 S
C25 C27 1.396 . S
C26 C25 1.398 1_655 S
C26 C30 1.407 . S
C27 C25 1.396 . S
C27 C28 1.394 1_455 S
C28 H23 0.929 . S
C28 C27 1.394 1_655 S
C28 C29 1.382 . S
C29 C28 1.382 . S
C29 C30 1.392 . S
C29 N31 1.420 . S
C30 H24 0.942 . S
C30 C26 1.407 . S
C30 C29 1.392 . S
N31 C29 1.420 . S
N31 C32 1.244 . S
C32 N31 1.244 . S
H33 C36 0.929 . S
H34 C39 0.929 . S
H35 C41 0.930 . S
C36 H33 0.929 . S
C36 C37 1.398 . S
C36 C38 1.396 . S
C37 C36 1.398 . S
C37 C41 1.407 . S
C38 C36 1.396 . S
C38 C39 1.394 . S
C39 H34 0.929 . S
C39 C38 1.394 . S
C39 C40 1.382 . S
C40 C39 1.382 . S
C40 C41 1.392 . S
C40 N42 1.420 . S
C41 H35 0.930 . S
C41 C37 1.407 . S
C41 C40 1.392 . S
N42 C40 1.420 . S
N42 C43 1.244 . S
C43 N42 1.244 . S
H44 C47 0.929 . S
H45 C50 0.929 . S
H46 C52 0.930 . S
C47 H44 0.929 . S
C47 C48 1.398 . S
C47 C49 1.396 . S
C48 C47 1.398 . S
C48 C52 1.407 . S
C49 C47 1.396 . S
C49 C50 1.394 . S
C50 H45 0.929 . S
C50 C49 1.394 . S
C50 C51 1.382 . S
C51 C50 1.382 . S
C51 C52 1.392 . S
C51 N53 1.420 . S
C52 H46 0.930 . S
C52 C48 1.407 . S
C52 C51 1.392 . S
N53 C51 1.420 . S
N53 C54 1.244 . S
C54 N53 1.244 . S
H55 C58 0.929 . S
H56 C61 0.929 . S
H57 C63 0.930 . S
C58 H55 0.929 . S
C58 C59 1.398 . S
C58 C60 1.396 . S
C59 C58 1.398 . S
C59 C63 1.407 . S
C60 C58 1.396 . S
C60 C61 1.394 . S
C61 H56 0.929 . S
C61 C60 1.394 . S
C61 C62 1.382 . S
C62 C61 1.382 . S
C62 C63 1.392 . S
C62 N64 1.420 . S
C63 H57 0.930 . S
C63 C59 1.407 . S
C63 C62 1.392 . S
N64 C62 1.420 . S
N64 C65 1.244 . S
C65 N64 1.244 . S
H66 C69 0.929 . S
H67 C72 0.929 1_455 S
H68 C74 0.930 . S
C69 H66 0.929 . S
C69 C70 1.398 . S
C69 C71 1.396 . S
C70 C69 1.398 . S
C70 C74 1.407 . S
C71 C69 1.396 . S
C71 C72 1.394 . S
C72 H67 0.929 1_655 S
C72 C71 1.394 . S
C72 C73 1.382 . S
C73 C72 1.382 . S
C73 C74 1.392 . S
C73 N75 1.420 1_655 S
C74 H68 0.930 . S
C74 C70 1.407 . S
C74 C73 1.392 . S
N75 C73 1.420 1_455 S
N75 C76 1.244 . S
C76 N75 1.244 . S
H77 C80 0.929 . S
H78 C83 0.929 . S
H79 C85 0.930 . S
C80 H77 0.929 . S
C80 C81 1.398 . S
C80 C82 1.396 . S
C81 C80 1.398 . S
C81 C85 1.407 . S
C82 C80 1.396 . S
C82 C83 1.394 . S
C83 H78 0.929 . S
C83 C82 1.394 . S
C83 C84 1.382 . S
C84 C83 1.382 . S
C84 C85 1.392 . S
C84 N86 1.420 . S
C85 H79 0.930 . S
C85 C81 1.407 . S
C85 C84 1.392 . S
N86 C84 1.420 . S
N86 C87 1.244 . S
C87 N86 1.244 . S
H88 C91 0.929 . S
H89 C94 0.929 . S
H90 C96 0.930 . S
C91 H88 0.929 . S
C91 C92 1.398 . S
C91 C93 1.396 . S
C92 C91 1.398 . S
C92 C96 1.407 . S
C93 C91 1.396 . S
C93 C94 1.394 . S
C94 H89 0.929 . S
C94 C93 1.394 . S
C94 C95 1.382 . S
C95 C94 1.382 . S
C95 C96 1.392 . S
C95 N97 1.420 . S
C96 H90 0.930 . S
C96 C92 1.407 . S
C96 C95 1.392 . S
N97 C95 1.420 . S
N97 C98 1.244 . S
C98 N97 1.244 . S
H99 C102 0.929 . S
H100 C105 0.929 1_545 S
H101 C107 0.930 . S
C102 H99 0.929 . S
C102 C103 1.398 . S
C102 C104 1.396 . S
C103 C102 1.398 . S
C103 C107 1.407 . S
C104 C102 1.396 . S
C104 C105 1.394 . S
C105 H100 0.929 1_565 S
C105 C104 1.394 . S
C105 C106 1.382 . S
C106 C105 1.382 . S
C106 C107 1.392 . S
C106 N108 1.420 1_565 S
C107 H101 0.930 . S
C107 C103 1.407 . S
C107 C106 1.392 . S
N108 C106 1.420 1_545 S
N108 C109 1.244 . S
C109 N108 1.244 . S
H110 C113 0.929 . S
H111 C116 0.929 . S
H112 C118 0.930 . S
C113 H110 0.929 . S
C113 C114 1.398 . S
C113 C115 1.396 . S
C114 C113 1.398 . S
C114 C118 1.407 . S
C115 C113 1.396 . S
C115 C116 1.394 . S
C116 H111 0.929 . S
C116 C115 1.394 . S
C116 C117 1.382 . S
C117 C116 1.382 . S
C117 C118 1.392 . S
C117 N119 1.420 . S
C118 H112 0.930 . S
C118 C114 1.407 . S
C118 C117 1.392 . S
N119 C117 1.420 . S
N119 C120 1.244 . S
C120 N119 1.244 . S
H121 C124 0.929 . S
H122 C127 0.929 . S
H123 C129 0.930 . S
C124 H121 0.929 . S
C124 C125 1.398 . S
C124 C126 1.396 . S
C125 C124 1.398 . S
C125 C129 1.407 . S
C126 C124 1.396 . S
C126 C127 1.394 . S
C127 H122 0.929 . S
C127 C126 1.394 . S
C127 C128 1.382 . S
C128 C127 1.382 . S
C128 C129 1.392 . S
C128 N130 1.420 . S
C129 H123 0.930 . S
C129 C125 1.407 . S
C129 C128 1.392 . S
N130 C128 1.420 . S
N130 C131 1.244 . S
C131 N130 1.244 . S
H132 C135 0.929 . S
H133 C138 0.929 . S
H134 C140 0.930 . S
C135 H132 0.929 . S
C135 C136 1.398 . S
C135 C137 1.396 . S
C136 C135 1.398 . S
C136 C140 1.407 . S
C137 C135 1.396 . S
C137 C138 1.394 . S
C138 H133 0.929 . S
C138 C137 1.394 . S
C138 C139 1.382 . S
C139 C138 1.382 . S
C139 C140 1.392 . S
C139 N141 1.420 . S
C140 H134 0.930 . S
C140 C136 1.407 . S
C140 C139 1.392 . S
N141 C139 1.420 . S
N141 C142 1.244 . S
C142 N141 1.244 . S
H143 C146 0.929 . S
H144 C149 0.929 . S
H145 C151 0.930 . S
C146 H143 0.929 . S
C146 C147 1.398 . S
C146 C148 1.396 . S
C147 C146 1.398 . S
C147 C151 1.407 . S
C148 C146 1.396 . S
C148 C149 1.394 1_556 S
C149 H144 0.929 . S
C149 C148 1.394 1_554 S
C149 C150 1.382 . S
C150 C149 1.382 . S
C150 C151 1.392 1_554 S
C150 N152 1.420 . S
C151 H145 0.930 . S
C151 C147 1.407 . S
C151 C150 1.392 1_556 S
N152 C150 1.420 . S
N152 C153 1.244 . S
C153 N152 1.244 . S
H154 C157 0.929 . S
H155 C160 0.929 . S
H156 C162 0.930 . S
C157 H154 0.929 . S
C157 C158 1.398 . S
C157 C159 1.396 . S
C158 C157 1.398 . S
C158 C162 1.407 . S
C159 C157 1.396 . S
C159 C160 1.394 . S
C160 H155 0.929 . S
C160 C159 1.394 . S
C160 C161 1.382 . S
C161 C160 1.382 . S
C161 C162 1.392 . S
C161 N163 1.420 . S
C162 H156 0.930 . S
C162 C158 1.407 . S
C162 C161 1.392 . S
N163 C161 1.420 . S
N163 C164 1.244 . S
C164 N163 1.244 . S
H165 C168 0.929 1_554 S
H166 C171 0.929 . S
H167 C173 0.898 1_565 S
C168 H165 0.929 1_556 S
C168 C169 1.398 . S
C168 C170 1.396 . S
C169 C168 1.398 . S
C169 C173 1.407 . S
C170 C168 1.396 . S
C170 C171 1.394 . S
C171 H166 0.929 . S
C171 C170 1.394 . S
C171 C172 1.382 . S
C172 C171 1.382 . S
C172 C173 1.392 . S
C172 N174 1.420 . S
C173 H167 0.898 1_545 S
C173 C169 1.407 . S
C173 C172 1.392 . S
N174 C172 1.420 . S
N174 C175 1.244 . S
C175 N174 1.244 . S
Li176 N193 1.990 . S
Li176 O236 1.956 . S
Li176 O237 1.970 . S
Li176 O238 1.961 . S
Li177 N201 1.990 . S
Li177 O236 1.970 . S
Li177 O237 1.956 . S
Li177 O239 1.961 . S
Li178 N223 1.990 1_554 S
Li178 O236 1.961 . S
Li178 O238 1.956 . S
Li178 O239 1.970 . S
Li179 N229 1.990 . S
Li179 O237 1.961 . S
Li179 O238 1.970 . S
Li179 O239 1.956 . S
C180 C182 1.348 . S
C180 C183 1.356 . S
C180 O236 1.325 . S
N181 C184 1.314 . S
N181 C185 1.279 . S
C182 C180 1.348 . S
C182 C184 1.353 . S
C182 H240 0.929 . S
C183 C180 1.356 . S
C183 C185 1.358 . S
C183 H241 0.899 1_554 S
C184 N181 1.314 . S
C184 C182 1.353 . S
C184 H242 0.930 . S
C185 N181 1.279 . S
C185 C183 1.358 . S
C185 H243 0.930 1_554 S
C186 C189 1.348 . S
C186 C190 1.356 . S
C186 O237 1.325 . S
C187 N188 1.279 . S
C187 C190 1.358 . S
C187 H244 0.930 . S
N188 C187 1.279 . S
N188 C191 1.314 . S
C189 C186 1.348 . S
C189 C191 1.353 . S
C189 H245 0.929 . S
C190 C186 1.356 . S
C190 C187 1.358 . S
C190 H246 0.930 . S
C191 N188 1.314 . S
C191 C189 1.353 . S
C191 H247 0.930 . S
C192 N193 1.314 . S
C192 C197 1.353 . S
C192 H198 0.930 . S
N193 Li176 1.990 . S
N193 C192 1.314 . S
N193 C195 1.279 . S
C194 C195 1.358 . S
C194 C196 1.356 . S
C194 H248 0.930 . S
C195 N193 1.279 . S
C195 C194 1.358 . S
C195 H199 0.930 . S
C196 C194 1.356 . S
C196 C197 1.348 . S
C197 C192 1.353 . S
C197 C196 1.348 . S
C197 H249 0.929 . S
H198 C192 0.930 . S
H199 C195 0.930 . S
C200 N201 1.314 . S
C200 C202 1.353 . S
C200 H206 0.930 . S
N201 Li177 1.990 . S
N201 C200 1.314 . S
N201 C204 1.279 . S
C202 C200 1.353 . S
C202 C205 1.348 . S
C202 H250 0.929 . S
C203 C204 1.358 . S
C203 C205 1.356 . S
C203 H251 0.930 . S
C204 N201 1.279 . S
C204 C203 1.358 . S
C204 H207 0.930 . S
C205 C202 1.348 . S
C205 C203 1.356 . S
H206 C200 0.930 . S
H207 C204 0.930 . S
C208 C210 1.348 1_554 S
C208 C211 1.359 1_554 S
C208 O238 1.322 . S
N209 C212 1.314 . S
N209 C213 1.279 . S
C210 C208 1.348 1_556 S
C210 C212 1.353 . S
C210 H252 0.929 1_556 S
C211 C208 1.359 1_556 S
C211 C213 1.358 . S
C211 H253 0.930 . S
C212 N209 1.314 . S
C212 C210 1.353 . S
C212 H254 0.930 . S
C213 N209 1.279 . S
C213 C211 1.358 . S
C213 H255 0.930 . S
C214 C215 1.348 . S
C214 C216 1.356 . S
C214 O239 1.325 . S
C215 C214 1.348 . S
C215 C217 1.353 . S
C215 H256 0.929 . S
C216 C214 1.356 . S
C216 C218 1.358 . S
C216 H257 0.930 . S
C217 C215 1.353 . S
C217 N219 1.314 . S
C217 H258 0.930 . S
C218 C216 1.358 . S
C218 N219 1.279 . S
C218 H259 0.930 . S
N219 C217 1.314 . S
N219 C218 1.279 . S
C220 C222 1.353 . S
C220 N223 1.314 . S
C220 H226 0.904 1_556 S
C221 N223 1.279 . S
C221 C224 1.358 . S
C221 H227 0.930 . S
C222 C220 1.353 . S
C222 C225 1.348 . S
C222 H260 0.929 . S
N223 Li178 1.990 1_556 S
N223 C220 1.314 . S
N223 C221 1.279 . S
C224 C221 1.358 . S
C224 C225 1.356 . S
C224 H261 0.930 . S
C225 C222 1.348 . S
C225 C224 1.356 . S
H226 C220 0.904 1_554 S
H227 C221 0.930 . S
C228 N229 1.314 . S
C228 C230 1.353 . S
C228 H234 0.930 . S
N229 Li179 1.990 . S
N229 C228 1.314 . S
N229 C232 1.279 . S
C230 C228 1.353 . S
C230 C233 1.348 . S
C230 H262 0.929 . S
C231 C232 1.358 . S
C231 C233 1.356 . S
C231 H263 0.930 . S
C232 N229 1.279 . S
C232 C231 1.358 . S
C232 H235 0.930 . S
C233 C230 1.348 . S
C233 C231 1.356 . S
H234 C228 0.930 . S
H235 C232 0.930 . S
O236 Li176 1.956 . S
O236 Li177 1.970 . S
O236 Li178 1.961 . S
O236 C180 1.325 . S
O237 Li176 1.970 . S
O237 Li177 1.956 . S
O237 Li179 1.961 . S
O237 C186 1.325 . S
O238 Li176 1.961 . S
O238 Li178 1.956 . S
O238 Li179 1.970 . S
O238 C208 1.322 . S
O239 Li177 1.961 . S
O239 Li178 1.970 . S
O239 Li179 1.956 . S
O239 C214 1.325 . S
H240 C182 0.929 . S
H241 C183 0.899 1_556 S
H242 C184 0.930 . S
H243 C185 0.930 1_556 S
H244 C187 0.930 . S
H245 C189 0.929 . S
H246 C190 0.930 . S
H247 C191 0.930 . S
H248 C194 0.930 . S
H249 C197 0.929 . S
H250 C202 0.929 . S
H251 C203 0.930 . S
H252 C210 0.929 1_554 S
H253 C211 0.930 . S
H254 C212 0.930 . S
H255 C213 0.930 . S
H256 C215 0.929 . S
H257 C216 0.930 . S
H258 C217 0.930 . S
H259 C218 0.930 . S
H260 C222 0.929 . S
H261 C224 0.930 . S
H262 C230 0.929 . S
H263 C231 0.930 . S
Li264 N281 1.990 . S
Li264 O324 1.956 . S
Li264 O325 1.970 . S
Li264 O326 1.961 . S
Li265 N289 1.990 . S
Li265 O324 1.970 . S
Li265 O325 1.956 . S
Li265 O327 1.961 . S
Li266 N311 1.990 . S
Li266 O324 1.961 . S
Li266 O326 1.956 . S
Li266 O327 1.970 . S
Li267 N317 1.990 . S
Li267 O325 1.961 . S
Li267 O326 1.970 . S
Li267 O327 1.956 . S
C268 C270 1.348 . S
C268 C271 1.356 . S
C268 O324 1.325 . S
N269 C272 1.314 . S
N269 C273 1.279 . S
C270 C268 1.348 . S
C270 C272 1.353 . S
C270 H328 0.929 . S
C271 C268 1.356 . S
C271 C273 1.358 . S
C271 H329 0.930 . S
C272 N269 1.314 . S
C272 C270 1.353 . S
C272 H330 0.930 . S
C273 N269 1.279 . S
C273 C271 1.358 . S
C273 H331 0.930 . S
C274 C277 1.348 . S
C274 C278 1.356 . S
C274 O325 1.325 . S
C275 N276 1.279 . S
C275 C278 1.358 . S
C275 H332 0.930 . S
N276 C275 1.279 . S
N276 C279 1.314 . S
C277 C274 1.348 . S
C277 C279 1.353 . S
C277 H333 0.929 . S
C278 C274 1.356 . S
C278 C275 1.358 . S
C278 H334 0.930 . S
C279 N276 1.314 . S
C279 C277 1.353 . S
C279 H335 0.930 . S
C280 N281 1.314 . S
C280 C285 1.353 . S
C280 H286 0.930 . S
N281 Li264 1.990 . S
N281 C280 1.314 . S
N281 C283 1.279 . S
C282 C283 1.358 . S
C282 C284 1.356 . S
C282 H336 0.930 . S
C283 N281 1.279 . S
C283 C282 1.358 . S
C283 H287 0.930 . S
C284 C282 1.356 . S
C284 C285 1.348 . S
C285 C280 1.353 . S
C285 C284 1.348 . S
C285 H337 0.929 . S
H286 C280 0.930 . S
H287 C283 0.930 . S
C288 N289 1.314 . S
C288 C290 1.353 . S
C288 H294 0.930 . S
N289 Li265 1.990 . S
N289 C288 1.314 . S
N289 C292 1.279 . S
C290 C288 1.353 . S
C290 C293 1.348 . S
C290 H338 0.929 . S
C291 C292 1.358 . S
C291 C293 1.356 . S
C291 H339 0.930 . S
C292 N289 1.279 . S
C292 C291 1.358 . S
C292 H295 0.930 . S
C293 C290 1.348 . S
C293 C291 1.356 . S
H294 C288 0.930 . S
H295 C292 0.930 . S
C296 C298 1.348 . S
C296 C299 1.356 . S
C296 O326 1.325 . S
N297 C300 1.314 . S
N297 C301 1.279 . S
C298 C296 1.348 . S
C298 C300 1.353 . S
C298 H340 0.929 . S
C299 C296 1.356 . S
C299 C301 1.358 . S
C299 H341 0.930 . S
C300 N297 1.314 . S
C300 C298 1.353 . S
C300 H342 0.930 . S
C301 N297 1.279 . S
C301 C299 1.358 . S
C301 H343 0.930 . S
C302 C303 1.348 . S
C302 C304 1.356 . S
C302 O327 1.325 . S
C303 C302 1.348 . S
C303 C305 1.353 . S
C303 H344 0.929 . S
C304 C302 1.356 . S
C304 C306 1.358 . S
C304 H345 0.930 . S
C305 C303 1.353 . S
C305 N307 1.314 . S
C305 H346 0.930 . S
C306 C304 1.358 . S
C306 N307 1.279 . S
C306 H347 0.930 . S
N307 C305 1.314 . S
N307 C306 1.279 . S
C308 C310 1.353 . S
C308 N311 1.314 . S
C308 H314 0.930 . S
C309 N311 1.279 . S
C309 C312 1.358 . S
C309 H315 0.930 . S
C310 C308 1.353 . S
C310 C313 1.348 . S
C310 H348 0.929 . S
N311 Li266 1.990 . S
N311 C308 1.314 . S
N311 C309 1.279 . S
C312 C309 1.358 . S
C312 C313 1.356 . S
C312 H349 0.930 . S
C313 C310 1.348 . S
C313 C312 1.356 . S
H314 C308 0.930 . S
H315 C309 0.930 . S
C316 N317 1.314 . S
C316 C318 1.353 . S
C316 H322 0.930 . S
N317 Li267 1.990 . S
N317 C316 1.314 . S
N317 C320 1.279 . S
C318 C316 1.353 . S
C318 C321 1.348 . S
C318 H350 0.929 . S
C319 C320 1.358 . S
C319 C321 1.356 . S
C319 H351 0.930 . S
C320 N317 1.279 . S
C320 C319 1.358 . S
C320 H323 0.930 . S
C321 C318 1.348 . S
C321 C319 1.356 . S
H322 C316 0.930 . S
H323 C320 0.930 . S
O324 Li264 1.956 . S
O324 Li265 1.970 . S
O324 Li266 1.961 . S
O324 C268 1.325 . S
O325 Li264 1.970 . S
O325 Li265 1.956 . S
O325 Li267 1.961 . S
O325 C274 1.325 . S
O326 Li264 1.961 . S
O326 Li266 1.956 . S
O326 Li267 1.970 . S
O326 C296 1.325 . S
O327 Li265 1.961 . S
O327 Li266 1.970 . S
O327 Li267 1.956 . S
O327 C302 1.325 . S
H328 C270 0.929 . S
H329 C271 0.930 . S
H330 C272 0.930 . S
H331 C273 0.930 . S
H332 C275 0.930 . S
H333 C277 0.929 . S
H334 C278 0.930 . S
H335 C279 0.930 . S
H336 C282 0.930 . S
H337 C285 0.929 . S
H338 C290 0.929 . S
H339 C291 0.930 . S
H340 C298 0.929 . S
H341 C299 0.930 . S
H342 C300 0.930 . S
H343 C301 0.930 . S
H344 C303 0.929 . S
H345 C304 0.930 . S
H346 C305 0.930 . S
H347 C306 0.930 . S
H348 C310 0.929 . S
H349 C312 0.930 . S
H350 C318 0.929 . S
H351 C319 0.930 . S
Li352 N369 1.994 . S
Li352 O412 1.969 1_556 S
Li352 O413 1.927 1_556 S
Li352 O414 1.997 . S
Li353 N377 1.990 . S
Li353 O412 2.014 . S
Li353 O413 1.956 . S
Li353 O415 1.961 . S
Li354 N399 1.990 . S
Li354 O412 1.924 1_556 S
Li354 O414 1.956 . S
Li354 O415 1.970 1_556 S
Li355 N405 1.990 . S
Li355 O413 1.961 . S
Li355 O414 1.970 1_554 S
Li355 O415 1.956 . S
C356 C358 1.335 1_556 S
C356 C359 1.371 . S
C356 O412 1.317 1_556 S
N357 C360 1.314 1_556 S
N357 C361 1.279 . S
C358 C356 1.335 1_554 S
C358 C360 1.353 . S
C358 H416 0.929 . S
C359 C356 1.371 . S
C359 C361 1.358 . S
C359 H417 0.930 . S
C360 N357 1.314 1_554 S
C360 C358 1.353 . S
C360 H418 0.930 . S
C361 N357 1.279 . S
C361 C359 1.358 . S
C361 H419 0.930 . S
C362 C365 1.348 . S
C362 C366 1.356 . S
C362 O413 1.325 . S
C363 N364 1.279 . S
C363 C366 1.358 . S
C363 H420 0.930 . S
N364 C363 1.279 . S
N364 C367 1.314 . S
C365 C362 1.348 . S
C365 C367 1.353 . S
C365 H421 0.929 . S
C366 C362 1.356 . S
C366 C363 1.358 . S
C366 H422 0.930 . S
C367 N364 1.314 . S
C367 C365 1.353 . S
C367 H423 0.930 . S
C368 N369 1.314 . S
C368 C373 1.353 . S
C368 H374 0.930 . S
N369 Li352 1.994 . S
N369 C368 1.314 . S
N369 C371 1.279 . S
C370 C371 1.358 . S
C370 C372 1.356 . S
C370 H424 0.930 . S
C371 N369 1.279 . S
C371 C370 1.358 . S
C371 H375 0.930 1_556 S
C372 C370 1.356 . S
C372 C373 1.348 . S
C373 C368 1.353 . S
C373 C372 1.348 . S
C373 H425 0.929 . S
H374 C368 0.930 . S
H375 C371 0.930 1_554 S
C376 N377 1.314 . S
C376 C378 1.353 . S
C376 H382 0.930 . S
N377 Li353 1.990 . S
N377 C376 1.314 . S
N377 C380 1.279 . S
C378 C376 1.353 . S
C378 C381 1.348 . S
C378 H426 0.929 . S
C379 C380 1.358 . S
C379 C381 1.356 . S
C379 H427 0.930 . S
C380 N377 1.279 . S
C380 C379 1.358 . S
C380 H383 0.930 . S
C381 C378 1.348 . S
C381 C379 1.356 . S
H382 C376 0.930 . S
H383 C380 0.930 . S
C384 C386 1.348 . S
C384 C387 1.356 . S
C384 O414 1.325 . S
N385 C388 1.314 . S
N385 C389 1.279 . S
C386 C384 1.348 . S
C386 C388 1.353 . S
C386 H428 0.929 . S
C387 C384 1.356 . S
C387 C389 1.358 . S
C387 H429 0.930 . S
C388 N385 1.314 . S
C388 C386 1.353 . S
C388 H430 0.930 . S
C389 N385 1.279 . S
C389 C387 1.358 . S
C389 H431 0.930 . S
C390 C391 1.348 1_554 S
C390 C392 1.356 . S
C390 O415 1.325 . S
C391 C390 1.348 1_556 S
C391 C393 1.353 . S
C391 H432 0.929 . S
C392 C390 1.356 . S
C392 C394 1.358 . S
C392 H433 0.930 . S
C393 C391 1.353 . S
C393 N395 1.314 1_556 S
C393 H434 0.930 . S
C394 C392 1.358 . S
C394 N395 1.279 . S
C394 H435 0.930 . S
N395 C393 1.314 1_554 S
N395 C394 1.279 . S
C396 C398 1.353 . S
C396 N399 1.314 . S
C396 H402 0.930 . S
C397 N399 1.279 . S
C397 C400 1.358 . S
C397 H403 0.930 . S
C398 C396 1.353 . S
C398 C401 1.348 . S
C398 H436 0.929 . S
N399 Li354 1.990 . S
N399 C396 1.314 . S
N399 C397 1.279 . S
C400 C397 1.358 . S
C400 C401 1.356 . S
C400 H437 0.930 . S
C401 C398 1.348 . S
C401 C400 1.356 . S
H402 C396 0.930 . S
H403 C397 0.930 . S
C404 N405 1.314 . S
C404 C406 1.353 . S
C404 H410 0.930 . S
N405 Li355 1.990 . S
N405 C404 1.314 . S
N405 C408 1.279 . S
C406 C404 1.353 . S
C406 C409 1.348 . S
C406 H438 0.929 . S
C407 C408 1.358 . S
C407 C409 1.356 . S
C407 H439 0.930 . S
C408 N405 1.279 . S
C408 C407 1.358 . S
C408 H411 0.930 . S
C409 C406 1.348 . S
C409 C407 1.356 . S
H410 C404 0.930 . S
H411 C408 0.930 . S
O412 Li352 1.969 1_554 S
O412 Li353 2.014 . S
O412 Li354 1.924 1_554 S
O412 C356 1.317 1_554 S
O413 Li352 1.927 1_554 S
O413 Li353 1.956 . S
O413 Li355 1.961 . S
O413 C362 1.325 . S
O414 Li352 1.997 . S
O414 Li354 1.956 . S
O414 Li355 1.970 1_556 S
O414 C384 1.325 . S
O415 Li353 1.961 . S
O415 Li354 1.970 1_554 S
O415 Li355 1.956 . S
O415 C390 1.325 . S
H416 C358 0.929 . S
H417 C359 0.930 . S
H418 C360 0.930 . S
H419 C361 0.930 . S
H420 C363 0.930 . S
H421 C365 0.929 . S
H422 C366 0.930 . S
H423 C367 0.930 . S
H424 C370 0.930 . S
H425 C373 0.929 . S
H426 C378 0.929 . S
H427 C379 0.930 . S
H428 C386 0.929 . S
H429 C387 0.930 . S
H430 C388 0.930 . S
H431 C389 0.930 . S
H432 C391 0.929 . S
H433 C392 0.930 . S
H434 C393 0.930 . S
H435 C394 0.930 . S
H436 C398 0.929 . S
H437 C400 0.930 . S
H438 C406 0.929 . S
H439 C407 0.930 . S
Li440 N457 1.990 . S
Li440 O500 1.956 . S
Li440 O501 1.970 . S
Li440 O502 1.961 . S
Li441 N465 1.990 . S
Li441 O500 1.970 . S
Li441 O501 1.956 . S
Li441 O503 1.961 1_545 S
Li442 N487 1.990 . S
Li442 O500 1.961 . S
Li442 O502 1.956 . S
Li442 O503 1.970 1_545 S
Li443 N493 1.990 . S
Li443 O501 1.961 1_565 S
Li443 O502 1.970 1_565 S
Li443 O503 1.956 . S
C444 C446 1.348 . S
C444 C447 1.356 . S
C444 O500 1.325 . S
N445 C448 1.314 . S
N445 C449 1.279 . S
C446 C444 1.348 . S
C446 C448 1.353 . S
C446 H504 0.929 . S
C447 C444 1.356 . S
C447 C449 1.358 . S
C447 H505 0.930 . S
C448 N445 1.314 . S
C448 C446 1.353 . S
C448 H506 0.930 . S
C449 N445 1.279 . S
C449 C447 1.358 . S
C449 H507 0.930 . S
C450 C453 1.348 . S
C450 C454 1.356 1_545 S
C450 O501 1.325 . S
C451 N452 1.279 1_565 S
C451 C454 1.358 . S
C451 H508 0.930 . S
N452 C451 1.279 1_545 S
N452 C455 1.314 . S
C453 C450 1.348 . S
C453 C455 1.353 . S
C453 H509 0.929 . S
C454 C450 1.356 1_565 S
C454 C451 1.358 . S
C454 H510 0.930 . S
C455 N452 1.314 . S
C455 C453 1.353 . S
C455 H511 0.930 . S
C456 N457 1.314 . S
C456 C461 1.353 . S
C456 H462 0.930 . S
N457 Li440 1.990 . S
N457 C456 1.314 . S
N457 C459 1.279 . S
C458 C459 1.358 . S
C458 C460 1.356 . S
C458 H512 0.930 . S
C459 N457 1.279 . S
C459 C458 1.358 . S
C459 H463 0.930 . S
C460 C458 1.356 . S
C460 C461 1.348 . S
C461 C456 1.353 . S
C461 C460 1.348 . S
C461 H513 0.929 . S
H462 C456 0.930 . S
H463 C459 0.930 . S
C464 N465 1.314 . S
C464 C466 1.353 . S
C464 H470 0.930 . S
N465 Li441 1.990 . S
N465 C464 1.314 . S
N465 C468 1.279 . S
C466 C464 1.353 . S
C466 C469 1.348 . S
C466 H514 0.929 . S
C467 C468 1.358 . S
C467 C469 1.356 . S
C467 H515 0.930 . S
C468 N465 1.279 . S
C468 C467 1.358 . S
C468 H471 0.930 . S
C469 C466 1.348 . S
C469 C467 1.356 . S
H470 C464 0.930 . S
H471 C468 0.930 . S
C472 C474 1.348 . S
C472 C475 1.356 . S
C472 O502 1.325 . S
N473 C476 1.314 . S
N473 C477 1.279 . S
C474 C472 1.348 . S
C474 C476 1.353 . S
C474 H516 0.929 1_545 S
C475 C472 1.356 . S
C475 C477 1.358 . S
C475 H517 0.930 . S
C476 N473 1.314 . S
C476 C474 1.353 . S
C476 H518 0.930 1_545 S
C477 N473 1.279 . S
C477 C475 1.358 . S
C477 H519 0.930 . S
C478 C479 1.348 . S
C478 C480 1.356 . S
C478 O503 1.325 . S
C479 C478 1.348 . S
C479 C481 1.353 . S
C479 H520 0.929 . S
C480 C478 1.356 . S
C480 C482 1.358 . S
C480 H521 0.930 . S
C481 C479 1.353 . S
C481 N483 1.314 . S
C481 H522 0.930 . S
C482 C480 1.358 . S
C482 N483 1.279 . S
C482 H523 0.930 . S
N483 C481 1.314 . S
N483 C482 1.279 . S
C484 C486 1.353 . S
C484 N487 1.314 . S
C484 H490 0.930 . S
C485 N487 1.279 . S
C485 C488 1.358 . S
C485 H491 0.930 . S
C486 C484 1.353 . S
C486 C489 1.348 . S
C486 H524 0.929 . S
N487 Li442 1.990 . S
N487 C484 1.314 . S
N487 C485 1.279 . S
C488 C485 1.358 . S
C488 C489 1.356 . S
C488 H525 0.930 . S
C489 C486 1.348 . S
C489 C488 1.356 . S
H490 C484 0.930 . S
H491 C485 0.930 . S
C492 N493 1.314 . S
C492 C494 1.353 . S
C492 H498 0.930 . S
N493 Li443 1.990 . S
N493 C492 1.314 . S
N493 C496 1.279 . S
C494 C492 1.353 . S
C494 C497 1.348 . S
C494 H526 0.929 . S
C495 C496 1.358 . S
C495 C497 1.356 . S
C495 H527 0.930 . S
C496 N493 1.279 . S
C496 C495 1.358 . S
C496 H499 0.930 . S
C497 C494 1.348 . S
C497 C495 1.356 . S
H498 C492 0.930 . S
H499 C496 0.930 . S
O500 Li440 1.956 . S
O500 Li441 1.970 . S
O500 Li442 1.961 . S
O500 C444 1.325 . S
O501 Li440 1.970 . S
O501 Li441 1.956 . S
O501 Li443 1.961 1_545 S
O501 C450 1.325 . S
O502 Li440 1.961 . S
O502 Li442 1.956 . S
O502 Li443 1.970 1_545 S
O502 C472 1.325 . S
O503 Li441 1.961 1_565 S
O503 Li442 1.970 1_565 S
O503 Li443 1.956 . S
O503 C478 1.325 . S
H504 C446 0.929 . S
H505 C447 0.930 . S
H506 C448 0.930 . S
H507 C449 0.930 . S
H508 C451 0.930 . S
H509 C453 0.929 . S
H510 C454 0.930 . S
H511 C455 0.930 . S
H512 C458 0.930 . S
H513 C461 0.929 . S
H514 C466 0.929 . S
H515 C467 0.930 . S
H516 C474 0.929 1_565 S
H517 C475 0.930 . S
H518 C476 0.930 1_565 S
H519 C477 0.930 . S
H520 C479 0.929 . S
H521 C480 0.930 . S
H522 C481 0.930 . S
H523 C482 0.930 . S
H524 C486 0.929 . S
H525 C488 0.930 . S
H526 C494 0.929 . S
H527 C495 0.930 . S
Li528 N545 1.990 . S
Li528 O588 1.956 . S
Li528 O589 1.970 . S
Li528 O590 1.961 . S
Li529 N553 1.990 . S
Li529 O588 1.970 . S
Li529 O589 1.956 . S
Li529 O591 1.961 . S
Li530 N575 1.990 . S
Li530 O588 1.961 . S
Li530 O590 1.956 . S
Li530 O591 1.970 . S
Li531 N581 1.990 . S
Li531 O589 1.961 . S
Li531 O590 1.970 . S
Li531 O591 1.956 . S
C532 C534 1.348 . S
C532 C535 1.356 . S
C532 O588 1.325 . S
N533 C536 1.314 . S
N533 C537 1.279 . S
C534 C532 1.348 . S
C534 C536 1.353 . S
C534 H592 0.929 . S
C535 C532 1.356 . S
C535 C537 1.358 . S
C535 H593 0.930 . S
C536 N533 1.314 . S
C536 C534 1.353 . S
C536 H594 0.930 . S
C537 N533 1.279 . S
C537 C535 1.358 . S
C537 H595 0.930 . S
C538 C541 1.348 . S
C538 C542 1.356 . S
C538 O589 1.325 . S
C539 N540 1.279 . S
C539 C542 1.358 . S
C539 H596 0.930 . S
N540 C539 1.279 . S
N540 C543 1.314 . S
C541 C538 1.348 . S
C541 C543 1.353 . S
C541 H597 0.929 . S
C542 C538 1.356 . S
C542 C539 1.358 . S
C542 H598 0.930 . S
C543 N540 1.314 . S
C543 C541 1.353 . S
C543 H599 0.930 . S
C544 N545 1.314 . S
C544 C549 1.353 . S
C544 H550 0.930 . S
N545 Li528 1.990 . S
N545 C544 1.314 . S
N545 C547 1.279 . S
C546 C547 1.358 . S
C546 C548 1.356 . S
C546 H600 0.930 . S
C547 N545 1.279 . S
C547 C546 1.358 . S
C547 H551 0.930 . S
C548 C546 1.356 . S
C548 C549 1.348 . S
C549 C544 1.353 . S
C549 C548 1.348 . S
C549 H601 0.929 . S
H550 C544 0.930 . S
H551 C547 0.930 . S
C552 N553 1.314 . S
C552 C554 1.353 . S
C552 H558 0.930 . S
N553 Li529 1.990 . S
N553 C552 1.314 . S
N553 C556 1.279 . S
C554 C552 1.353 . S
C554 C557 1.348 . S
C554 H602 0.929 . S
C555 C556 1.358 . S
C555 C557 1.356 . S
C555 H603 0.930 . S
C556 N553 1.279 . S
C556 C555 1.358 . S
C556 H559 0.930 . S
C557 C554 1.348 . S
C557 C555 1.356 . S
H558 C552 0.930 . S
H559 C556 0.930 . S
C560 C562 1.348 . S
C560 C563 1.356 . S
C560 O590 1.325 . S
N561 C564 1.314 . S
N561 C565 1.279 . S
C562 C560 1.348 . S
C562 C564 1.353 . S
C562 H604 0.929 . S
C563 C560 1.356 . S
C563 C565 1.358 . S
C563 H605 0.930 . S
C564 N561 1.314 . S
C564 C562 1.353 . S
C564 H606 0.930 . S
C565 N561 1.279 . S
C565 C563 1.358 . S
C565 H607 0.930 . S
C566 C567 1.348 . S
C566 C568 1.356 . S
C566 O591 1.325 . S
C567 C566 1.348 . S
C567 C569 1.353 . S
C567 H608 0.929 . S
C568 C566 1.356 . S
C568 C570 1.358 . S
C568 H609 0.930 . S
C569 C567 1.353 . S
C569 N571 1.314 . S
C569 H610 0.930 . S
C570 C568 1.358 . S
C570 N571 1.279 . S
C570 H611 0.930 . S
N571 C569 1.314 . S
N571 C570 1.279 . S
C572 C574 1.353 . S
C572 N575 1.314 . S
C572 H578 0.930 . S
C573 N575 1.279 . S
C573 C576 1.358 . S
C573 H579 0.930 . S
C574 C572 1.353 . S
C574 C577 1.348 . S
C574 H612 0.929 . S
N575 Li530 1.990 . S
N575 C572 1.314 . S
N575 C573 1.279 . S
C576 C573 1.358 . S
C576 C577 1.356 . S
C576 H613 0.930 . S
C577 C574 1.348 . S
C577 C576 1.356 . S
H578 C572 0.930 . S
H579 C573 0.930 . S
C580 N581 1.314 . S
C580 C582 1.353 . S
C580 H586 0.930 . S
N581 Li531 1.990 . S
N581 C580 1.314 . S
N581 C584 1.279 . S
C582 C580 1.353 . S
C582 C585 1.348 . S
C582 H614 0.929 . S
C583 C584 1.358 . S
C583 C585 1.356 . S
C583 H615 0.930 . S
C584 N581 1.279 . S
C584 C583 1.358 . S
C584 H587 0.930 . S
C585 C582 1.348 . S
C585 C583 1.356 . S
H586 C580 0.930 . S
H587 C584 0.930 . S
O588 Li528 1.956 . S
O588 Li529 1.970 . S
O588 Li530 1.961 . S
O588 C532 1.325 . S
O589 Li528 1.970 . S
O589 Li529 1.956 . S
O589 Li531 1.961 . S
O589 C538 1.325 . S
O590 Li528 1.961 . S
O590 Li530 1.956 . S
O590 Li531 1.970 . S
O590 C560 1.325 . S
O591 Li529 1.961 . S
O591 Li530 1.970 . S
O591 Li531 1.956 . S
O591 C566 1.325 . S
H592 C534 0.929 . S
H593 C535 0.930 . S
H594 C536 0.930 . S
H595 C537 0.930 . S
H596 C539 0.930 . S
H597 C541 0.929 . S
H598 C542 0.930 . S
H599 C543 0.930 . S
H600 C546 0.930 . S
H601 C549 0.929 . S
H602 C554 0.929 . S
H603 C555 0.930 . S
H604 C562 0.929 . S
H605 C563 0.930 . S
H606 C564 0.930 . S
H607 C565 0.930 . S
H608 C567 0.929 . S
H609 C568 0.930 . S
H610 C569 0.930 . S
H611 C570 0.930 . S
H612 C574 0.929 . S
H613 C576 0.930 . S
H614 C582 0.929 . S
H615 C583 0.930 . S
Li616 N633 1.990 . S
Li616 O676 1.956 . S
Li616 O677 1.970 . S
Li616 O678 1.961 . S
Li617 N641 1.990 . S
Li617 O676 1.970 . S
Li617 O677 1.956 . S
Li617 O679 1.961 . S
Li618 N663 1.990 . S
Li618 O676 1.961 . S
Li618 O678 1.956 . S
Li618 O679 1.970 . S
Li619 N669 1.990 . S
Li619 O677 1.961 . S
Li619 O678 1.970 . S
Li619 O679 1.956 . S
C620 C622 1.348 . S
C620 C623 1.356 . S
C620 O676 1.325 . S
N621 C624 1.314 . S
N621 C625 1.279 . S
C622 C620 1.348 . S
C622 C624 1.353 . S
C622 H680 0.929 . S
C623 C620 1.356 . S
C623 C625 1.358 . S
C623 H681 0.930 . S
C624 N621 1.314 . S
C624 C622 1.353 . S
C624 H682 0.930 . S
C625 N621 1.279 . S
C625 C623 1.358 . S
C625 H683 0.930 . S
C626 C629 1.348 . S
C626 C630 1.356 . S
C626 O677 1.325 . S
C627 N628 1.279 . S
C627 C630 1.358 . S
C627 H684 0.930 . S
N628 C627 1.279 . S
N628 C631 1.314 . S
C629 C626 1.348 . S
C629 C631 1.353 . S
C629 H685 0.929 . S
C630 C626 1.356 . S
C630 C627 1.358 . S
C630 H686 0.930 . S
C631 N628 1.314 . S
C631 C629 1.353 . S
C631 H687 0.930 . S
C632 N633 1.314 . S
C632 C637 1.353 . S
C632 H638 0.930 . S
N633 Li616 1.990 . S
N633 C632 1.314 . S
N633 C635 1.279 . S
C634 C635 1.358 . S
C634 C636 1.356 . S
C634 H688 0.930 . S
C635 N633 1.279 . S
C635 C634 1.358 . S
C635 H639 0.930 . S
C636 C634 1.356 . S
C636 C637 1.348 . S
C637 C632 1.353 . S
C637 C636 1.348 . S
C637 H689 0.929 . S
H638 C632 0.930 . S
H639 C635 0.930 . S
C640 N641 1.314 . S
C640 C642 1.353 . S
C640 H646 0.930 . S
N641 Li617 1.990 . S
N641 C640 1.314 . S
N641 C644 1.279 . S
C642 C640 1.353 . S
C642 C645 1.348 . S
C642 H690 0.929 . S
C643 C644 1.358 . S
C643 C645 1.356 . S
C643 H691 0.930 . S
C644 N641 1.279 . S
C644 C643 1.358 . S
C644 H647 0.930 . S
C645 C642 1.348 . S
C645 C643 1.356 . S
H646 C640 0.930 . S
H647 C644 0.930 . S
C648 C650 1.348 . S
C648 C651 1.356 . S
C648 O678 1.325 . S
N649 C652 1.314 . S
N649 C653 1.279 . S
C650 C648 1.348 . S
C650 C652 1.353 . S
C650 H692 0.929 . S
C651 C648 1.356 . S
C651 C653 1.358 . S
C651 H693 0.930 . S
C652 N649 1.314 . S
C652 C650 1.353 . S
C652 H694 0.930 . S
C653 N649 1.279 . S
C653 C651 1.358 . S
C653 H695 0.930 . S
C654 C655 1.348 . S
C654 C656 1.356 . S
C654 O679 1.325 . S
C655 C654 1.348 . S
C655 C657 1.353 . S
C655 H696 0.929 . S
C656 C654 1.356 . S
C656 C658 1.358 . S
C656 H697 0.930 . S
C657 C655 1.353 . S
C657 N659 1.314 . S
C657 H698 0.930 . S
C658 C656 1.358 . S
C658 N659 1.279 . S
C658 H699 0.930 . S
N659 C657 1.314 . S
N659 C658 1.279 . S
C660 C662 1.353 . S
C660 N663 1.314 . S
C660 H666 0.930 . S
C661 N663 1.279 . S
C661 C664 1.358 . S
C661 H667 0.930 . S
C662 C660 1.353 . S
C662 C665 1.348 . S
C662 H700 0.929 . S
N663 Li618 1.990 . S
N663 C660 1.314 . S
N663 C661 1.279 . S
C664 C661 1.358 . S
C664 C665 1.356 . S
C664 H701 0.930 . S
C665 C662 1.348 . S
C665 C664 1.356 . S
H666 C660 0.930 . S
H667 C661 0.930 . S
C668 N669 1.314 . S
C668 C670 1.353 . S
C668 H674 0.930 . S
N669 Li619 1.990 . S
N669 C668 1.314 . S
N669 C672 1.279 . S
C670 C668 1.353 . S
C670 C673 1.348 . S
C670 H702 0.929 . S
C671 C672 1.358 . S
C671 C673 1.356 . S
C671 H703 0.930 . S
C672 N669 1.279 . S
C672 C671 1.358 . S
C672 H675 0.930 . S
C673 C670 1.348 . S
C673 C671 1.356 . S
H674 C668 0.930 . S
H675 C672 0.930 . S
O676 Li616 1.956 . S
O676 Li617 1.970 . S
O676 Li618 1.961 . S
O676 C620 1.325 . S
O677 Li616 1.970 . S
O677 Li617 1.956 . S
O677 Li619 1.961 . S
O677 C626 1.325 . S
O678 Li616 1.961 . S
O678 Li618 1.956 . S
O678 Li619 1.970 . S
O678 C648 1.325 . S
O679 Li617 1.961 . S
O679 Li618 1.970 . S
O679 Li619 1.956 . S
O679 C654 1.325 . S
H680 C622 0.929 . S
H681 C623 0.930 . S
H682 C624 0.930 . S
H683 C625 0.930 . S
H684 C627 0.930 . S
H685 C629 0.929 . S
H686 C630 0.930 . S
H687 C631 0.930 . S
H688 C634 0.930 . S
H689 C637 0.929 . S
H690 C642 0.929 . S
H691 C643 0.930 . S
H692 C650 0.929 . S
H693 C651 0.930 . S
H694 C652 0.930 . S
H695 C653 0.930 . S
H696 C655 0.929 . S
H697 C656 0.930 . S
H698 C657 0.930 . S
H699 C658 0.930 . S
H700 C662 0.929 . S
H701 C664 0.930 . S
H702 C670 0.929 . S
H703 C671 0.930 . S
Li704 N721 1.990 . S
Li704 O764 1.956 . S
Li704 O765 1.970 . S
Li704 O766 1.961 . S
Li705 N729 1.990 . S
Li705 O764 1.970 . S
Li705 O765 1.956 . S
Li705 O767 1.961 . S
Li706 N751 1.990 . S
Li706 O764 1.961 . S
Li706 O766 1.956 . S
Li706 O767 1.970 . S
Li707 N757 1.990 . S
Li707 O765 1.961 . S
Li707 O766 1.970 . S
Li707 O767 1.956 . S
C708 C710 1.348 . S
C708 C711 1.356 . S
C708 O764 1.325 . S
N709 C712 1.314 . S
N709 C713 1.279 . S
C710 C708 1.348 . S
C710 C712 1.353 . S
C710 H768 0.929 . S
C711 C708 1.356 . S
C711 C713 1.358 . S
C711 H769 0.930 . S
C712 N709 1.314 . S
C712 C710 1.353 . S
C712 H770 0.930 . S
C713 N709 1.279 . S
C713 C711 1.358 . S
C713 H771 0.930 . S
C714 C717 1.348 . S
C714 C718 1.356 . S
C714 O765 1.325 . S
C715 N716 1.279 . S
C715 C718 1.358 . S
C715 H772 0.930 . S
N716 C715 1.279 . S
N716 C719 1.314 . S
C717 C714 1.348 . S
C717 C719 1.353 . S
C717 H773 0.929 . S
C718 C714 1.356 . S
C718 C715 1.358 . S
C718 H774 0.930 . S
C719 N716 1.314 . S
C719 C717 1.353 . S
C719 H775 0.930 . S
C720 N721 1.314 . S
C720 C725 1.353 . S
C720 H726 0.930 . S
N721 Li704 1.990 . S
N721 C720 1.314 . S
N721 C723 1.279 . S
C722 C723 1.358 . S
C722 C724 1.356 . S
C722 H776 0.930 . S
C723 N721 1.279 . S
C723 C722 1.358 . S
C723 H727 0.930 . S
C724 C722 1.356 . S
C724 C725 1.348 . S
C725 C720 1.353 . S
C725 C724 1.348 . S
C725 H777 0.929 . S
H726 C720 0.930 . S
H727 C723 0.930 . S
C728 N729 1.314 . S
C728 C730 1.353 . S
C728 H734 0.930 . S
N729 Li705 1.990 . S
N729 C728 1.314 . S
N729 C732 1.279 . S
C730 C728 1.353 . S
C730 C733 1.348 . S
C730 H778 0.929 . S
C731 C732 1.358 . S
C731 C733 1.356 . S
C731 H779 0.930 . S
C732 N729 1.279 . S
C732 C731 1.358 . S
C732 H735 0.930 . S
C733 C730 1.348 . S
C733 C731 1.356 . S
H734 C728 0.930 . S
H735 C732 0.930 . S
C736 C738 1.348 . S
C736 C739 1.356 . S
C736 O766 1.325 . S
N737 C740 1.314 . S
N737 C741 1.279 . S
C738 C736 1.348 . S
C738 C740 1.353 . S
C738 H780 0.929 . S
C739 C736 1.356 . S
C739 C741 1.358 . S
C739 H781 0.930 . S
C740 N737 1.314 . S
C740 C738 1.353 . S
C740 H782 0.930 . S
C741 N737 1.279 . S
C741 C739 1.358 . S
C741 H783 0.930 . S
C742 C743 1.348 . S
C742 C744 1.356 . S
C742 O767 1.325 . S
C743 C742 1.348 . S
C743 C745 1.353 . S
C743 H784 0.929 . S
C744 C742 1.356 . S
C744 C746 1.358 . S
C744 H785 0.930 . S
C745 C743 1.353 . S
C745 N747 1.314 . S
C745 H786 0.930 . S
C746 C744 1.358 . S
C746 N747 1.279 . S
C746 H787 0.930 . S
N747 C745 1.314 . S
N747 C746 1.279 . S
C748 C750 1.353 . S
C748 N751 1.314 . S
C748 H754 0.930 . S
C749 N751 1.279 . S
C749 C752 1.358 . S
C749 H755 0.930 . S
C750 C748 1.353 . S
C750 C753 1.348 . S
C750 H788 0.929 . S
N751 Li706 1.990 . S
N751 C748 1.314 . S
N751 C749 1.279 . S
C752 C749 1.358 . S
C752 C753 1.356 . S
C752 H789 0.930 . S
C753 C750 1.348 . S
C753 C752 1.356 . S
H754 C748 0.930 . S
H755 C749 0.930 . S
C756 N757 1.314 . S
C756 C758 1.353 . S
C756 H762 0.930 . S
N757 Li707 1.990 . S
N757 C756 1.314 . S
N757 C760 1.279 . S
C758 C756 1.353 . S
C758 C761 1.348 . S
C758 H790 0.929 . S
C759 C760 1.358 . S
C759 C761 1.356 . S
C759 H791 0.930 . S
C760 N757 1.279 . S
C760 C759 1.358 . S
C760 H763 0.930 . S
C761 C758 1.348 . S
C761 C759 1.356 . S
H762 C756 0.930 . S
H763 C760 0.930 . S
O764 Li704 1.956 . S
O764 Li705 1.970 . S
O764 Li706 1.961 . S
O764 C708 1.325 . S
O765 Li704 1.970 . S
O765 Li705 1.956 . S
O765 Li707 1.961 . S
O765 C714 1.325 . S
O766 Li704 1.961 . S
O766 Li706 1.956 . S
O766 Li707 1.970 . S
O766 C736 1.325 . S
O767 Li705 1.961 . S
O767 Li706 1.970 . S
O767 Li707 1.956 . S
O767 C742 1.325 . S
H768 C710 0.929 . S
H769 C711 0.930 . S
H770 C712 0.930 . S
H771 C713 0.930 . S
H772 C715 0.930 . S
H773 C717 0.929 . S
H774 C718 0.930 . S
H775 C719 0.930 . S
H776 C722 0.930 . S
H777 C725 0.929 . S
H778 C730 0.929 . S
H779 C731 0.930 . S
H780 C738 0.929 . S
H781 C739 0.930 . S
H782 C740 0.930 . S
H783 C741 0.930 . S
H784 C743 0.929 . S
H785 C744 0.930 . S
H786 C745 0.930 . S
H787 C746 0.930 . S
H788 C750 0.929 . S
H789 C752 0.930 . S
H790 C758 0.929 . S
H791 C759 0.930 . S
Li792 N809 1.990 . S
Li792 O852 1.956 . S
Li792 O853 1.970 1_565 S
Li792 O854 1.961 . S
Li793 N817 1.990 . S
Li793 O852 1.970 1_545 S
Li793 O853 1.956 . S
Li793 O855 1.961 . S
Li794 N839 1.990 . S
Li794 O852 1.961 . S
Li794 O854 1.956 . S
Li794 O855 1.970 1_565 S
Li795 N845 1.990 . S
Li795 O853 1.961 . S
Li795 O854 1.970 1_545 S
Li795 O855 1.956 . S
C796 C798 1.348 . S
C796 C799 1.356 . S
C796 O852 1.325 . S
N797 C800 1.314 . S
N797 C801 1.279 . S
C798 C796 1.348 . S
C798 C800 1.353 . S
C798 H856 0.929 . S
C799 C796 1.356 . S
C799 C801 1.358 . S
C799 H857 0.930 . S
C800 N797 1.314 . S
C800 C798 1.353 . S
C800 H858 0.930 . S
C801 N797 1.279 . S
C801 C799 1.358 . S
C801 H859 0.930 . S
C802 C805 1.348 1_545 S
C802 C806 1.356 . S
C802 O853 1.325 . S
C803 N804 1.279 . S
C803 C806 1.358 . S
C803 H860 0.930 . S
N804 C803 1.279 . S
N804 C807 1.314 1_545 S
C805 C802 1.348 1_565 S
C805 C807 1.353 . S
C805 H861 0.929 . S
C806 C802 1.356 . S
C806 C803 1.358 . S
C806 H862 0.930 . S
C807 N804 1.314 1_565 S
C807 C805 1.353 . S
C807 H863 0.930 . S
C808 N809 1.314 . S
C808 C813 1.353 . S
C808 H814 0.930 . S
N809 Li792 1.990 . S
N809 C808 1.314 . S
N809 C811 1.279 . S
C810 C811 1.358 . S
C810 C812 1.356 . S
C810 H864 0.930 . S
C811 N809 1.279 . S
C811 C810 1.358 . S
C811 H815 0.930 . S
C812 C810 1.356 . S
C812 C813 1.348 . S
C813 C808 1.353 . S
C813 C812 1.348 . S
C813 H865 0.929 . S
H814 C808 0.930 . S
H815 C811 0.930 . S
C816 N817 1.314 . S
C816 C818 1.353 . S
C816 H822 0.930 . S
N817 Li793 1.990 . S
N817 C816 1.314 . S
N817 C820 1.279 . S
C818 C816 1.353 . S
C818 C821 1.348 . S
C818 H866 0.929 . S
C819 C820 1.358 . S
C819 C821 1.356 . S
C819 H867 0.930 . S
C820 N817 1.279 . S
C820 C819 1.358 . S
C820 H823 0.930 . S
C821 C818 1.348 . S
C821 C819 1.356 . S
H822 C816 0.930 . S
H823 C820 0.930 . S
C824 C826 1.348 1_565 S
C824 C827 1.356 . S
C824 O854 1.325 . S
N825 C828 1.314 1_565 S
N825 C829 1.279 . S
C826 C824 1.348 1_545 S
C826 C828 1.353 . S
C826 H868 0.929 . S
C827 C824 1.356 . S
C827 C829 1.358 . S
C827 H869 0.930 . S
C828 N825 1.314 1_545 S
C828 C826 1.353 . S
C828 H870 0.930 . S
C829 N825 1.279 . S
C829 C827 1.358 . S
C829 H871 0.930 . S
C830 C831 1.348 . S
C830 C832 1.356 . S
C830 O855 1.325 . S
C831 C830 1.348 . S
C831 C833 1.353 . S
C831 H872 0.929 . S
C832 C830 1.356 . S
C832 C834 1.358 . S
C832 H873 0.930 . S
C833 C831 1.353 . S
C833 N835 1.314 . S
C833 H874 0.930 . S
C834 C832 1.358 . S
C834 N835 1.279 . S
C834 H875 0.930 . S
N835 C833 1.314 . S
N835 C834 1.279 . S
C836 C838 1.353 . S
C836 N839 1.314 . S
C836 H842 0.930 . S
C837 N839 1.279 . S
C837 C840 1.358 . S
C837 H843 0.930 . S
C838 C836 1.353 . S
C838 C841 1.348 . S
C838 H876 0.929 . S
N839 Li794 1.990 . S
N839 C836 1.314 . S
N839 C837 1.279 . S
C840 C837 1.358 . S
C840 C841 1.356 . S
C840 H877 0.930 . S
C841 C838 1.348 . S
C841 C840 1.356 . S
H842 C836 0.930 . S
H843 C837 0.930 . S
C844 N845 1.314 . S
C844 C846 1.353 . S
C844 H850 0.930 . S
N845 Li795 1.990 . S
N845 C844 1.314 . S
N845 C848 1.279 . S
C846 C844 1.353 . S
C846 C849 1.348 . S
C846 H878 0.929 . S
C847 C848 1.358 . S
C847 C849 1.356 . S
C847 H879 0.930 . S
C848 N845 1.279 . S
C848 C847 1.358 . S
C848 H851 0.930 . S
C849 C846 1.348 . S
C849 C847 1.356 . S
H850 C844 0.930 . S
H851 C848 0.930 . S
O852 Li792 1.956 . S
O852 Li793 1.970 1_565 S
O852 Li794 1.961 . S
O852 C796 1.325 . S
O853 Li792 1.970 1_545 S
O853 Li793 1.956 . S
O853 Li795 1.961 . S
O853 C802 1.325 . S
O854 Li792 1.961 . S
O854 Li794 1.956 . S
O854 Li795 1.970 1_565 S
O854 C824 1.325 . S
O855 Li793 1.961 . S
O855 Li794 1.970 1_545 S
O855 Li795 1.956 . S
O855 C830 1.325 . S
H856 C798 0.929 . S
H857 C799 0.930 . S
H858 C800 0.930 . S
H859 C801 0.930 . S
H860 C803 0.930 . S
H861 C805 0.929 . S
H862 C806 0.930 . S
H863 C807 0.930 . S
H864 C810 0.930 . S
H865 C813 0.929 . S
H866 C818 0.929 . S
H867 C819 0.930 . S
H868 C826 0.929 . S
H869 C827 0.930 . S
H870 C828 0.930 . S
H871 C829 0.930 . S
H872 C831 0.929 . S
H873 C832 0.930 . S
H874 C833 0.930 . S
H875 C834 0.930 . S
H876 C838 0.929 . S
H877 C840 0.930 . S
H878 C846 0.929 . S
H879 C847 0.930 . S
Li880 N897 1.990 . S
Li880 O940 1.956 . S
Li880 O941 1.970 . S
Li880 O942 1.961 . S
Li881 N905 1.990 . S
Li881 O940 1.970 . S
Li881 O941 1.956 . S
Li881 O943 1.961 1_455 S
Li882 N927 1.990 . S
Li882 O940 1.961 . S
Li882 O942 1.956 . S
Li882 O943 1.970 1_455 S
Li883 N933 1.990 . S
Li883 O941 1.961 1_655 S
Li883 O942 1.970 1_655 S
Li883 O943 1.956 . S
C884 C886 1.348 . S
C884 C887 1.356 . S
C884 O940 1.325 . S
N885 C888 1.314 . S
N885 C889 1.279 . S
C886 C884 1.348 . S
C886 C888 1.353 . S
C886 H944 0.929 . S
C887 C884 1.356 . S
C887 C889 1.358 . S
C887 H945 0.930 . S
C888 N885 1.314 . S
C888 C886 1.353 . S
C888 H946 0.930 . S
C889 N885 1.279 . S
C889 C887 1.358 . S
C889 H947 0.930 . S
C890 C893 1.348 . S
C890 C894 1.356 1_455 S
C890 O941 1.325 . S
C891 N892 1.279 1_655 S
C891 C894 1.358 . S
C891 H948 0.930 . S
N892 C891 1.279 1_455 S
N892 C895 1.314 . S
C893 C890 1.348 . S
C893 C895 1.353 . S
C893 H949 0.929 . S
C894 C890 1.356 1_655 S
C894 C891 1.358 . S
C894 H950 0.930 . S
C895 N892 1.314 . S
C895 C893 1.353 . S
C895 H951 0.930 . S
C896 N897 1.314 . S
C896 C901 1.353 . S
C896 H902 0.930 . S
N897 Li880 1.990 . S
N897 C896 1.314 . S
N897 C899 1.279 . S
C898 C899 1.358 . S
C898 C900 1.356 . S
C898 H952 0.930 . S
C899 N897 1.279 . S
C899 C898 1.358 . S
C899 H903 0.930 . S
C900 C898 1.356 . S
C900 C901 1.348 . S
C901 C896 1.353 . S
C901 C900 1.348 . S
C901 H953 0.929 . S
H902 C896 0.930 . S
H903 C899 0.930 . S
C904 N905 1.314 . S
C904 C906 1.353 . S
C904 H910 0.930 . S
N905 Li881 1.990 . S
N905 C904 1.314 . S
N905 C908 1.279 . S
C906 C904 1.353 . S
C906 C909 1.348 . S
C906 H954 0.929 1_455 S
C907 C908 1.358 . S
C907 C909 1.356 . S
C907 H955 0.930 . S
C908 N905 1.279 . S
C908 C907 1.358 . S
C908 H911 0.930 . S
C909 C906 1.348 . S
C909 C907 1.356 . S
H910 C904 0.930 . S
H911 C908 0.930 . S
C912 C914 1.348 . S
C912 C915 1.356 . S
C912 O942 1.325 . S
N913 C916 1.314 . S
N913 C917 1.279 . S
C914 C912 1.348 . S
C914 C916 1.353 . S
C914 H956 0.929 1_455 S
C915 C912 1.356 . S
C915 C917 1.358 . S
C915 H957 0.930 . S
C916 N913 1.314 . S
C916 C914 1.353 . S
C916 H958 0.930 1_455 S
C917 N913 1.279 . S
C917 C915 1.358 . S
C917 H959 0.930 . S
C918 C919 1.348 . S
C918 C920 1.356 . S
C918 O943 1.325 . S
C919 C918 1.348 . S
C919 C921 1.353 . S
C919 H960 0.929 . S
C920 C918 1.356 . S
C920 C922 1.358 . S
C920 H961 0.930 . S
C921 C919 1.353 . S
C921 N923 1.314 . S
C921 H962 0.930 . S
C922 C920 1.358 . S
C922 N923 1.279 . S
C922 H963 0.930 . S
N923 C921 1.314 . S
N923 C922 1.279 . S
C924 C926 1.353 . S
C924 N927 1.314 . S
C924 H930 0.930 . S
C925 N927 1.279 . S
C925 C928 1.358 . S
C925 H931 0.930 . S
C926 C924 1.353 . S
C926 C929 1.348 . S
C926 H964 0.929 . S
N927 Li882 1.990 . S
N927 C924 1.314 . S
N927 C925 1.279 . S
C928 C925 1.358 . S
C928 C929 1.356 . S
C928 H965 0.930 . S
C929 C926 1.348 . S
C929 C928 1.356 . S
H930 C924 0.930 . S
H931 C925 0.930 . S
C932 N933 1.314 . S
C932 C934 1.353 . S
C932 H938 0.930 . S
N933 Li883 1.990 . S
N933 C932 1.314 . S
N933 C936 1.279 . S
C934 C932 1.353 . S
C934 C937 1.348 . S
C934 H966 0.929 . S
C935 C936 1.358 . S
C935 C937 1.356 . S
C935 H967 0.930 . S
C936 N933 1.279 . S
C936 C935 1.358 . S
C936 H939 0.930 . S
C937 C934 1.348 . S
C937 C935 1.356 . S
H938 C932 0.930 . S
H939 C936 0.930 . S
O940 Li880 1.956 . S
O940 Li881 1.970 . S
O940 Li882 1.961 . S
O940 C884 1.325 . S
O941 Li880 1.970 . S
O941 Li881 1.956 . S
O941 Li883 1.961 1_455 S
O941 C890 1.325 . S
O942 Li880 1.961 . S
O942 Li882 1.956 . S
O942 Li883 1.970 1_455 S
O942 C912 1.325 . S
O943 Li881 1.961 1_655 S
O943 Li882 1.970 1_655 S
O943 Li883 1.956 . S
O943 C918 1.325 . S
H944 C886 0.929 . S
H945 C887 0.930 . S
H946 C888 0.930 . S
H947 C889 0.930 . S
H948 C891 0.930 . S
H949 C893 0.929 . S
H950 C894 0.930 . S
H951 C895 0.930 . S
H952 C898 0.930 . S
H953 C901 0.929 . S
H954 C906 0.929 1_655 S
H955 C907 0.930 . S
H956 C914 0.929 1_655 S
H957 C915 0.930 . S
H958 C916 0.930 1_655 S
H959 C917 0.930 . S
H960 C919 0.929 . S
H961 C920 0.930 . S
H962 C921 0.930 . S
H963 C922 0.930 . S
H964 C926 0.929 . S
H965 C928 0.930 . S
H966 C934 0.929 . S
H967 C935 0.930 . S
Li968 N985 1.990 . S
Li968 O1028 1.956 . S
Li968 O1029 1.970 . S
Li968 O1030 1.961 . S
Li969 N993 1.990 . S
Li969 O1028 1.970 . S
Li969 O1029 1.956 . S
Li969 O1031 1.961 . S
Li970 N1015 1.990 . S
Li970 O1028 1.961 . S
Li970 O1030 1.956 . S
Li970 O1031 1.970 . S
Li971 N1021 1.990 . S
Li971 O1029 1.961 . S
Li971 O1030 1.970 . S
Li971 O1031 1.956 . S
C972 C974 1.348 . S
C972 C975 1.356 . S
C972 O1028 1.325 . S
N973 C976 1.314 . S
N973 C977 1.279 . S
C974 C972 1.348 . S
C974 C976 1.353 . S
C974 H1032 0.929 . S
C975 C972 1.356 . S
C975 C977 1.358 . S
C975 H1033 0.930 . S
C976 N973 1.314 . S
C976 C974 1.353 . S
C976 H1034 0.930 . S
C977 N973 1.279 . S
C977 C975 1.358 . S
C977 H1035 0.930 . S
C978 C981 1.348 . S
C978 C982 1.356 . S
C978 O1029 1.325 . S
C979 N980 1.279 . S
C979 C982 1.358 . S
C979 H1036 0.930 . S
N980 C979 1.279 . S
N980 C983 1.314 . S
C981 C978 1.348 . S
C981 C983 1.353 . S
C981 H1037 0.929 . S
C982 C978 1.356 . S
C982 C979 1.358 . S
C982 H1038 0.930 . S
C983 N980 1.314 . S
C983 C981 1.353 . S
C983 H1039 0.930 . S
C984 N985 1.314 . S
C984 C989 1.353 . S
C984 H990 0.930 . S
N985 Li968 1.990 . S
N985 C984 1.314 . S
N985 C987 1.279 . S
C986 C987 1.358 . S
C986 C988 1.356 . S
C986 H1040 0.930 . S
C987 N985 1.279 . S
C987 C986 1.358 . S
C987 H991 0.930 . S
C988 C986 1.356 . S
C988 C989 1.348 . S
C989 C984 1.353 . S
C989 C988 1.348 . S
C989 H1041 0.929 . S
H990 C984 0.930 . S
H991 C987 0.930 . S
C992 N993 1.314 . S
C992 C994 1.353 . S
C992 H998 0.930 . S
N993 Li969 1.990 . S
N993 C992 1.314 . S
N993 C996 1.279 . S
C994 C992 1.353 . S
C994 C997 1.348 . S
C994 H1042 0.929 . S
C995 C996 1.358 . S
C995 C997 1.356 . S
C995 H1043 0.930 . S
C996 N993 1.279 . S
C996 C995 1.358 . S
C996 H999 0.930 . S
C997 C994 1.348 . S
C997 C995 1.356 . S
H998 C992 0.930 . S
H999 C996 0.930 . S
C1000 C1002 1.348 . S
C1000 C1003 1.356 . S
C1000 O1030 1.325 . S
N1001 C1004 1.314 . S
N1001 C1005 1.279 . S
C1002 C1000 1.348 . S
C1002 C1004 1.353 . S
C1002 H1044 0.929 . S
C1003 C1000 1.356 . S
C1003 C1005 1.358 . S
C1003 H1045 0.930 . S
C1004 N1001 1.314 . S
C1004 C1002 1.353 . S
C1004 H1046 0.930 . S
C1005 N1001 1.279 . S
C1005 C1003 1.358 . S
C1005 H1047 0.930 . S
C1006 C1007 1.348 . S
C1006 C1008 1.356 . S
C1006 O1031 1.325 . S
C1007 C1006 1.348 . S
C1007 C1009 1.353 . S
C1007 H1048 0.929 . S
C1008 C1006 1.356 . S
C1008 C1010 1.358 . S
C1008 H1049 0.930 . S
C1009 C1007 1.353 . S
C1009 N1011 1.314 . S
C1009 H1050 0.930 . S
C1010 C1008 1.358 . S
C1010 N1011 1.279 . S
C1010 H1051 0.930 . S
N1011 C1009 1.314 . S
N1011 C1010 1.279 . S
C1012 C1014 1.353 . S
C1012 N1015 1.314 . S
C1012 H1018 0.930 . S
C1013 N1015 1.279 . S
C1013 C1016 1.358 . S
C1013 H1019 0.930 . S
C1014 C1012 1.353 . S
C1014 C1017 1.348 . S
C1014 H1052 0.929 . S
N1015 Li970 1.990 . S
N1015 C1012 1.314 . S
N1015 C1013 1.279 . S
C1016 C1013 1.358 . S
C1016 C1017 1.356 . S
C1016 H1053 0.930 . S
C1017 C1014 1.348 . S
C1017 C1016 1.356 . S
H1018 C1012 0.930 . S
H1019 C1013 0.930 . S
C1020 N1021 1.314 . S
C1020 C1022 1.353 . S
C1020 H1026 0.930 . S
N1021 Li971 1.990 . S
N1021 C1020 1.314 . S
N1021 C1024 1.279 . S
C1022 C1020 1.353 . S
C1022 C1025 1.348 . S
C1022 H1054 0.929 . S
C1023 C1024 1.358 . S
C1023 C1025 1.356 . S
C1023 H1055 0.930 . S
C1024 N1021 1.279 . S
C1024 C1023 1.358 . S
C1024 H1027 0.930 . S
C1025 C1022 1.348 . S
C1025 C1023 1.356 . S
H1026 C1020 0.930 . S
H1027 C1024 0.930 . S
O1028 Li968 1.956 . S
O1028 Li969 1.970 . S
O1028 Li970 1.961 . S
O1028 C972 1.325 . S
O1029 Li968 1.970 . S
O1029 Li969 1.956 . S
O1029 Li971 1.961 . S
O1029 C978 1.325 . S
O1030 Li968 1.961 . S
O1030 Li970 1.956 . S
O1030 Li971 1.970 . S
O1030 C1000 1.325 . S
O1031 Li969 1.961 . S
O1031 Li970 1.970 . S
O1031 Li971 1.956 . S
O1031 C1006 1.325 . S
H1032 C974 0.929 . S
H1033 C975 0.930 . S
H1034 C976 0.930 . S
H1035 C977 0.930 . S
H1036 C979 0.930 . S
H1037 C981 0.929 . S
H1038 C982 0.930 . S
H1039 C983 0.930 . S
H1040 C986 0.930 . S
H1041 C989 0.929 . S
H1042 C994 0.929 . S
H1043 C995 0.930 . S
H1044 C1002 0.929 . S
H1045 C1003 0.930 . S
H1046 C1004 0.930 . S
H1047 C1005 0.930 . S
H1048 C1007 0.929 . S
H1049 C1008 0.930 . S
H1050 C1009 0.930 . S
H1051 C1010 0.930 . S
H1052 C1014 0.929 . S
H1053 C1016 0.930 . S
H1054 C1022 0.929 . S
H1055 C1023 0.930 . S
Li1056 N1073 1.990 . S
Li1056 O1116 1.956 . S
Li1056 O1117 1.970 1_455 S
Li1056 O1118 1.961 . S
Li1057 N1081 1.990 . S
Li1057 O1116 1.970 1_655 S
Li1057 O1117 1.956 . S
Li1057 O1119 1.984 . S
Li1058 N1103 1.990 . S
Li1058 O1116 1.961 . S
Li1058 O1118 1.956 . S
Li1058 O1119 1.942 1_455 S
Li1059 N1109 1.987 1_455 S
Li1059 O1117 1.935 1_455 S
Li1059 O1118 2.004 . S
Li1059 O1119 1.953 1_455 S
C1060 C1062 1.348 1_455 S
C1060 C1063 1.356 . S
C1060 O1116 1.325 . S
N1061 C1064 1.314 1_455 S
N1061 C1065 1.279 . S
C1062 C1060 1.348 1_655 S
C1062 C1064 1.353 . S
C1062 H1120 0.929 . S
C1063 C1060 1.356 . S
C1063 C1065 1.358 . S
C1063 H1121 0.930 . S
C1064 N1061 1.314 1_655 S
C1064 C1062 1.353 . S
C1064 H1122 0.930 . S
C1065 N1061 1.279 . S
C1065 C1063 1.358 . S
C1065 H1123 0.930 . S
C1066 C1069 1.348 . S
C1066 C1070 1.356 . S
C1066 O1117 1.325 . S
C1067 N1068 1.279 . S
C1067 C1070 1.358 . S
C1067 H1124 0.930 . S
N1068 C1067 1.279 . S
N1068 C1071 1.314 . S
C1069 C1066 1.348 . S
C1069 C1071 1.353 . S
C1069 H1125 0.929 . S
C1070 C1066 1.356 . S
C1070 C1067 1.358 . S
C1070 H1126 0.930 . S
C1071 N1068 1.314 . S
C1071 C1069 1.353 . S
C1071 H1127 0.930 . S
C1072 N1073 1.314 . S
C1072 C1077 1.353 . S
C1072 H1078 0.930 . S
N1073 Li1056 1.990 . S
N1073 C1072 1.314 . S
N1073 C1075 1.279 . S
C1074 C1075 1.358 . S
C1074 C1076 1.356 . S
C1074 H1128 0.930 . S
C1075 N1073 1.279 . S
C1075 C1074 1.358 . S
C1075 H1079 0.930 . S
C1076 C1074 1.356 . S
C1076 C1077 1.348 . S
C1077 C1072 1.353 . S
C1077 C1076 1.348 . S
C1077 H1129 0.929 . S
H1078 C1072 0.930 . S
H1079 C1075 0.930 . S
C1080 N1081 1.314 . S
C1080 C1082 1.353 . S
C1080 H1086 0.930 . S
N1081 Li1057 1.990 . S
N1081 C1080 1.314 . S
N1081 C1084 1.279 . S
C1082 C1080 1.353 . S
C1082 C1085 1.348 . S
C1082 H1130 0.929 . S
C1083 C1084 1.358 . S
C1083 C1085 1.356 . S
C1083 H1131 0.930 . S
C1084 N1081 1.279 . S
C1084 C1083 1.358 . S
C1084 H1087 0.930 . S
C1085 C1082 1.348 . S
C1085 C1083 1.356 . S
H1086 C1080 0.930 . S
H1087 C1084 0.930 . S
C1088 C1090 1.348 . S
C1088 C1091 1.356 . S
C1088 O1118 1.325 . S
N1089 C1092 1.314 . S
N1089 C1093 1.279 . S
C1090 C1088 1.348 . S
C1090 C1092 1.353 . S
C1090 H1132 0.929 . S
C1091 C1088 1.356 . S
C1091 C1093 1.358 . S
C1091 H1133 0.930 . S
C1092 N1089 1.314 . S
C1092 C1090 1.353 . S
C1092 H1134 0.930 . S
C1093 N1089 1.279 . S
C1093 C1091 1.358 . S
C1093 H1135 0.930 . S
C1094 C1095 1.348 1_655 S
C1094 C1096 1.356 . S
C1094 O1119 1.331 . S
C1095 C1094 1.348 1_455 S
C1095 C1097 1.353 . S
C1095 H1136 0.929 . S
C1096 C1094 1.356 . S
C1096 C1098 1.358 . S
C1096 H1137 0.930 . S
C1097 C1095 1.353 . S
C1097 N1099 1.314 1_455 S
C1097 H1138 0.930 . S
C1098 C1096 1.358 . S
C1098 N1099 1.279 . S
C1098 H1139 0.930 . S
N1099 C1097 1.314 1_655 S
N1099 C1098 1.279 . S
C1100 C1102 1.353 . S
C1100 N1103 1.314 . S
C1100 H1106 0.930 . S
C1101 N1103 1.279 . S
C1101 C1104 1.358 . S
C1101 H1107 0.930 . S
C1102 C1100 1.353 . S
C1102 C1105 1.348 . S
C1102 H1140 0.929 . S
N1103 Li1058 1.990 . S
N1103 C1100 1.314 . S
N1103 C1101 1.279 . S
C1104 C1101 1.358 . S
C1104 C1105 1.356 . S
C1104 H1141 0.930 . S
C1105 C1102 1.348 . S
C1105 C1104 1.356 . S
H1106 C1100 0.930 . S
H1107 C1101 0.930 . S
C1108 N1109 1.314 . S
C1108 C1110 1.353 . S
C1108 H1114 0.930 . S
N1109 Li1059 1.987 1_655 S
N1109 C1108 1.314 . S
N1109 C1112 1.279 . S
C1110 C1108 1.353 . S
C1110 C1113 1.348 . S
C1110 H1142 0.929 . S
C1111 C1112 1.358 . S
C1111 C1113 1.356 . S
C1111 H1143 0.930 . S
C1112 N1109 1.279 . S
C1112 C1111 1.358 . S
C1112 H1115 0.930 . S
C1113 C1110 1.348 . S
C1113 C1111 1.356 . S
H1114 C1108 0.930 . S
H1115 C1112 0.930 . S
O1116 Li1056 1.956 . S
O1116 Li1057 1.970 1_455 S
O1116 Li1058 1.961 . S
O1116 C1060 1.325 . S
O1117 Li1056 1.970 1_655 S
O1117 Li1057 1.956 . S
O1117 Li1059 1.935 1_655 S
O1117 C1066 1.325 . S
O1118 Li1056 1.961 . S
O1118 Li1058 1.956 . S
O1118 Li1059 2.004 . S
O1118 C1088 1.325 . S
O1119 Li1057 1.984 . S
O1119 Li1058 1.942 1_655 S
O1119 Li1059 1.953 1_655 S
O1119 C1094 1.331 . S
H1120 C1062 0.929 . S
H1121 C1063 0.930 . S
H1122 C1064 0.930 . S
H1123 C1065 0.930 . S
H1124 C1067 0.930 . S
H1125 C1069 0.929 . S
H1126 C1070 0.930 . S
H1127 C1071 0.930 . S
H1128 C1074 0.930 . S
H1129 C1077 0.929 . S
H1130 C1082 0.929 . S
H1131 C1083 0.930 . S
H1132 C1090 0.929 . S
H1133 C1091 0.930 . S
H1134 C1092 0.930 . S
H1135 C1093 0.930 . S
H1136 C1095 0.929 . S
H1137 C1096 0.930 . S
H1138 C1097 0.930 . S
H1139 C1098 0.930 . S
H1140 C1102 0.929 . S
H1141 C1104 0.930 . S
H1142 C1110 0.929 . S
H1143 C1111 0.930 . S
Li1144 N1161 1.990 . S
Li1144 O1204 1.956 . S
Li1144 O1205 1.970 . S
Li1144 O1206 1.961 . S
Li1145 N1169 1.990 . S
Li1145 O1204 1.970 . S
Li1145 O1205 1.956 . S
Li1145 O1207 1.961 . S
Li1146 N1191 1.990 . S
Li1146 O1204 1.961 . S
Li1146 O1206 1.956 . S
Li1146 O1207 1.970 . S
Li1147 N1197 1.990 . S
Li1147 O1205 1.961 . S
Li1147 O1206 1.970 . S
Li1147 O1207 1.956 . S
C1148 C1150 1.348 . S
C1148 C1151 1.356 . S
C1148 O1204 1.325 . S
N1149 C1152 1.314 . S
N1149 C1153 1.279 . S
C1150 C1148 1.348 . S
C1150 C1152 1.353 . S
C1150 H1208 0.929 . S
C1151 C1148 1.356 . S
C1151 C1153 1.358 . S
C1151 H1209 0.930 . S
C1152 N1149 1.314 . S
C1152 C1150 1.353 . S
C1152 H1210 0.930 . S
C1153 N1149 1.279 . S
C1153 C1151 1.358 . S
C1153 H1211 0.930 . S
C1154 C1157 1.348 . S
C1154 C1158 1.356 . S
C1154 O1205 1.325 . S
C1155 N1156 1.279 . S
C1155 C1158 1.358 . S
C1155 H1212 0.930 . S
N1156 C1155 1.279 . S
N1156 C1159 1.314 . S
C1157 C1154 1.348 . S
C1157 C1159 1.353 . S
C1157 H1213 0.929 . S
C1158 C1154 1.356 . S
C1158 C1155 1.358 . S
C1158 H1214 0.930 . S
C1159 N1156 1.314 . S
C1159 C1157 1.353 . S
C1159 H1215 0.930 . S
C1160 N1161 1.314 . S
C1160 C1165 1.353 . S
C1160 H1166 0.930 . S
N1161 Li1144 1.990 . S
N1161 C1160 1.314 . S
N1161 C1163 1.279 . S
C1162 C1163 1.358 . S
C1162 C1164 1.356 . S
C1162 H1216 0.930 . S
C1163 N1161 1.279 . S
C1163 C1162 1.358 . S
C1163 H1167 0.930 . S
C1164 C1162 1.356 . S
C1164 C1165 1.348 . S
C1165 C1160 1.353 . S
C1165 C1164 1.348 . S
C1165 H1217 0.929 . S
H1166 C1160 0.930 . S
H1167 C1163 0.930 . S
C1168 N1169 1.314 . S
C1168 C1170 1.353 . S
C1168 H1174 0.930 . S
N1169 Li1145 1.990 . S
N1169 C1168 1.314 . S
N1169 C1172 1.279 . S
C1170 C1168 1.353 . S
C1170 C1173 1.348 . S
C1170 H1218 0.929 . S
C1171 C1172 1.358 . S
C1171 C1173 1.356 . S
C1171 H1219 0.930 . S
C1172 N1169 1.279 . S
C1172 C1171 1.358 . S
C1172 H1175 0.930 . S
C1173 C1170 1.348 . S
C1173 C1171 1.356 . S
H1174 C1168 0.930 . S
H1175 C1172 0.930 . S
C1176 C1178 1.348 . S
C1176 C1179 1.356 . S
C1176 O1206 1.325 . S
N1177 C1180 1.314 . S
N1177 C1181 1.279 . S
C1178 C1176 1.348 . S
C1178 C1180 1.353 . S
C1178 H1220 0.929 . S
C1179 C1176 1.356 . S
C1179 C1181 1.358 . S
C1179 H1221 0.930 . S
C1180 N1177 1.314 . S
C1180 C1178 1.353 . S
C1180 H1222 0.930 . S
C1181 N1177 1.279 . S
C1181 C1179 1.358 . S
C1181 H1223 0.930 . S
C1182 C1183 1.348 . S
C1182 C1184 1.356 . S
C1182 O1207 1.325 . S
C1183 C1182 1.348 . S
C1183 C1185 1.353 . S
C1183 H1224 0.929 . S
C1184 C1182 1.356 . S
C1184 C1186 1.358 . S
C1184 H1225 0.930 . S
C1185 C1183 1.353 . S
C1185 N1187 1.314 . S
C1185 H1226 0.930 . S
C1186 C1184 1.358 . S
C1186 N1187 1.279 . S
C1186 H1227 0.930 . S
N1187 C1185 1.314 . S
N1187 C1186 1.279 . S
C1188 C1190 1.353 . S
C1188 N1191 1.314 . S
C1188 H1194 0.930 . S
C1189 N1191 1.279 . S
C1189 C1192 1.358 . S
C1189 H1195 0.930 . S
C1190 C1188 1.353 . S
C1190 C1193 1.348 . S
C1190 H1228 0.929 . S
N1191 Li1146 1.990 . S
N1191 C1188 1.314 . S
N1191 C1189 1.279 . S
C1192 C1189 1.358 . S
C1192 C1193 1.356 . S
C1192 H1229 0.930 . S
C1193 C1190 1.348 . S
C1193 C1192 1.356 . S
H1194 C1188 0.930 . S
H1195 C1189 0.930 . S
C1196 N1197 1.314 . S
C1196 C1198 1.353 . S
C1196 H1202 0.930 . S
N1197 Li1147 1.990 . S
N1197 C1196 1.314 . S
N1197 C1200 1.279 . S
C1198 C1196 1.353 . S
C1198 C1201 1.348 . S
C1198 H1230 0.929 . S
C1199 C1200 1.358 . S
C1199 C1201 1.356 . S
C1199 H1231 0.930 . S
C1200 N1197 1.279 . S
C1200 C1199 1.358 . S
C1200 H1203 0.930 . S
C1201 C1198 1.348 . S
C1201 C1199 1.356 . S
H1202 C1196 0.930 . S
H1203 C1200 0.930 . S
O1204 Li1144 1.956 . S
O1204 Li1145 1.970 . S
O1204 Li1146 1.961 . S
O1204 C1148 1.325 . S
O1205 Li1144 1.970 . S
O1205 Li1145 1.956 . S
O1205 Li1147 1.961 . S
O1205 C1154 1.325 . S
O1206 Li1144 1.961 . S
O1206 Li1146 1.956 . S
O1206 Li1147 1.970 . S
O1206 C1176 1.325 . S
O1207 Li1145 1.961 . S
O1207 Li1146 1.970 . S
O1207 Li1147 1.956 . S
O1207 C1182 1.325 . S
H1208 C1150 0.929 . S
H1209 C1151 0.930 . S
H1210 C1152 0.930 . S
H1211 C1153 0.930 . S
H1212 C1155 0.930 . S
H1213 C1157 0.929 . S
H1214 C1158 0.930 . S
H1215 C1159 0.930 . S
H1216 C1162 0.930 . S
H1217 C1165 0.929 . S
H1218 C1170 0.929 . S
H1219 C1171 0.930 . S
H1220 C1178 0.929 . S
H1221 C1179 0.930 . S
H1222 C1180 0.930 . S
H1223 C1181 0.930 . S
H1224 C1183 0.929 . S
H1225 C1184 0.930 . S
H1226 C1185 0.930 . S
H1227 C1186 0.930 . S
H1228 C1190 0.929 . S
H1229 C1192 0.930 . S
H1230 C1198 0.929 . S
H1231 C1199 0.930 . S
H1232 C1240 0.950 . S
H1233 C1245 0.950 . S
H1234 C1242 0.950 . S
H1235 C1244 0.950 . S
H1236 C1246 0.950 . S
H1237 C1248 0.950 . S
H1238 C1250 0.950 . S
H1239 C1251 0.950 . S
C1240 H1232 0.950 . S
C1240 C1241 1.386 . S
C1240 C1242 1.391 . S
C1241 C1240 1.386 . S
C1241 C1245 1.393 . S
C1242 H1234 0.950 . S
C1242 C1240 1.391 . S
C1242 C1243 1.400 . S
C1243 C1242 1.400 . S
C1243 C1244 1.398 . S
C1243 C1249 1.491 . S
C1244 H1235 0.950 . S
C1244 C1243 1.398 . S
C1244 C1245 1.391 . S
C1245 H1233 0.950 . S
C1245 C1241 1.393 . S
C1245 C1244 1.391 . S
C1246 H1236 0.950 . S
C1246 C1247 1.386 . S
C1246 C1248 1.391 . S
C1247 C1246 1.386 . S
C1247 C1251 1.393 . S
C1248 H1237 0.950 . S
C1248 C1246 1.391 . S
C1248 C1249 1.400 . S
C1249 C1243 1.491 . S
C1249 C1248 1.400 . S
C1249 C1250 1.398 . S
C1250 H1238 0.950 . S
C1250 C1249 1.398 . S
C1250 C1251 1.391 . S
C1251 H1239 0.950 . S
C1251 C1247 1.393 . S
C1251 C1250 1.391 . S
H1252 C1260 0.950 . S
H1253 C1265 0.950 . S
H1254 C1262 0.950 . S
H1255 C1264 0.950 . S
H1256 C1266 0.950 . S
H1257 C1268 0.950 . S
H1258 C1270 0.950 . S
H1259 C1271 0.950 . S
C1260 H1252 0.950 . S
C1260 C1261 1.386 . S
C1260 C1262 1.391 . S
C1261 C1260 1.386 . S
C1261 C1265 1.393 . S
C1262 H1254 0.950 . S
C1262 C1260 1.391 . S
C1262 C1263 1.400 . S
C1263 C1262 1.400 . S
C1263 C1264 1.398 . S
C1263 C1269 1.491 . S
C1264 H1255 0.950 . S
C1264 C1263 1.398 . S
C1264 C1265 1.391 . S
C1265 H1253 0.950 . S
C1265 C1261 1.393 . S
C1265 C1264 1.391 . S
C1266 H1256 0.950 . S
C1266 C1267 1.386 . S
C1266 C1268 1.391 . S
C1267 C1266 1.386 . S
C1267 C1271 1.393 . S
C1268 H1257 0.950 . S
C1268 C1266 1.391 . S
C1268 C1269 1.400 . S
C1269 C1263 1.491 . S
C1269 C1268 1.400 . S
C1269 C1270 1.398 . S
C1270 H1258 0.950 . S
C1270 C1269 1.398 . S
C1270 C1271 1.391 . S
C1271 H1259 0.950 . S
C1271 C1267 1.393 . S
C1271 C1270 1.391 . S
H1272 C1280 0.950 . S
H1273 C1285 0.950 . S
H1274 C1282 0.950 . S
H1275 C1284 0.950 . S
H1276 C1286 0.950 . S
H1277 C1288 0.950 . S
H1278 C1290 0.950 . S
H1279 C1291 0.950 . S
C1280 H1272 0.950 . S
C1280 C1281 1.386 . S
C1280 C1282 1.391 . S
C1281 C1280 1.386 . S
C1281 C1285 1.393 . S
C1282 H1274 0.950 . S
C1282 C1280 1.391 . S
C1282 C1283 1.400 . S
C1283 C1282 1.400 . S
C1283 C1284 1.398 . S
C1283 C1289 1.491 . S
C1284 H1275 0.950 . S
C1284 C1283 1.398 . S
C1284 C1285 1.391 . S
C1285 H1273 0.950 . S
C1285 C1281 1.393 . S
C1285 C1284 1.391 . S
C1286 H1276 0.950 . S
C1286 C1287 1.386 . S
C1286 C1288 1.391 . S
C1287 C1286 1.386 . S
C1287 C1291 1.393 . S
C1288 H1277 0.950 . S
C1288 C1286 1.391 . S
C1288 C1289 1.400 . S
C1289 C1283 1.491 . S
C1289 C1288 1.400 . S
C1289 C1290 1.398 . S
C1290 H1278 0.950 . S
C1290 C1289 1.398 . S
C1290 C1291 1.391 . S
C1291 H1279 0.950 . S
C1291 C1287 1.393 . S
C1291 C1290 1.391 . S
H1292 C1300 0.950 . S
H1293 C1305 0.950 . S
H1294 C1302 0.950 1_655 S
H1295 C1304 0.950 . S
H1296 C1306 0.950 . S
H1297 C1308 0.950 . S
H1298 C1310 0.950 1_565 S
H1299 C1311 0.950 . S
C1300 H1292 0.950 . S
C1300 C1301 1.386 . S
C1300 C1302 1.391 . S
C1301 C1300 1.386 . S
C1301 C1305 1.393 . S
C1302 H1294 0.950 1_455 S
C1302 C1300 1.391 . S
C1302 C1303 1.400 . S
C1303 C1302 1.400 . S
C1303 C1304 1.398 . S
C1303 C1309 1.495 . S
C1304 H1295 0.950 . S
C1304 C1303 1.398 . S
C1304 C1305 1.391 . S
C1305 H1293 0.950 . S
C1305 C1301 1.393 . S
C1305 C1304 1.391 . S
C1306 H1296 0.950 . S
C1306 C1307 1.386 1_455 S
C1306 C1308 1.391 . S
C1307 C1306 1.386 1_655 S
C1307 C1311 1.393 . S
C1308 H1297 0.950 . S
C1308 C1306 1.391 . S
C1308 C1309 1.398 1_545 S
C1309 C1303 1.495 . S
C1309 C1308 1.398 1_565 S
C1309 C1310 1.396 1_465 S
C1310 H1298 0.950 1_545 S
C1310 C1309 1.396 1_645 S
C1310 C1311 1.391 . S
C1311 H1299 0.950 . S
C1311 C1307 1.393 . S
C1311 C1310 1.391 . S
H1312 C1320 0.950 . S
H1313 C1325 0.950 . S
H1314 C1322 0.950 . S
H1315 C1324 0.950 . S
H1316 C1326 0.950 . S
H1317 C1328 0.950 . S
H1318 C1330 0.950 . S
H1319 C1331 0.950 . S
C1320 H1312 0.950 . S
C1320 C1321 1.386 . S
C1320 C1322 1.391 . S
C1321 C1320 1.386 . S
C1321 C1325 1.393 . S
C1322 H1314 0.950 . S
C1322 C1320 1.391 . S
C1322 C1323 1.400 . S
C1323 C1322 1.400 . S
C1323 C1324 1.398 . S
C1323 C1329 1.491 . S
C1324 H1315 0.950 . S
C1324 C1323 1.398 . S
C1324 C1325 1.391 . S
C1325 H1313 0.950 . S
C1325 C1321 1.393 . S
C1325 C1324 1.391 . S
C1326 H1316 0.950 . S
C1326 C1327 1.386 . S
C1326 C1328 1.391 . S
C1327 C1326 1.386 . S
C1327 C1331 1.393 . S
C1328 H1317 0.950 . S
C1328 C1326 1.391 . S
C1328 C1329 1.400 . S
C1329 C1323 1.491 . S
C1329 C1328 1.400 . S
C1329 C1330 1.398 . S
C1330 H1318 0.950 . S
C1330 C1329 1.398 . S
C1330 C1331 1.391 . S
C1331 H1319 0.950 . S
C1331 C1327 1.393 . S
C1331 C1330 1.391 . S
H1332 C1340 0.950 . S
H1333 C1345 0.950 . S
H1334 C1342 0.950 . S
H1335 C1344 0.950 . S
H1336 C1346 0.950 . S
H1337 C1348 0.950 . S
H1338 C1350 0.950 . S
H1339 C1351 0.950 . S
C1340 H1332 0.950 . S
C1340 C1341 1.386 . S
C1340 C1342 1.391 . S
C1341 C1340 1.386 . S
C1341 C1345 1.393 . S
C1342 H1334 0.950 . S
C1342 C1340 1.391 . S
C1342 C1343 1.400 . S
C1343 C1342 1.400 . S
C1343 C1344 1.398 . S
C1343 C1349 1.491 . S
C1344 H1335 0.950 . S
C1344 C1343 1.398 . S
C1344 C1345 1.391 . S
C1345 H1333 0.950 . S
C1345 C1341 1.393 . S
C1345 C1344 1.391 . S
C1346 H1336 0.950 . S
C1346 C1347 1.386 . S
C1346 C1348 1.391 . S
C1347 C1346 1.386 . S
C1347 C1351 1.393 . S
C1348 H1337 0.950 . S
C1348 C1346 1.391 . S
C1348 C1349 1.400 . S
C1349 C1343 1.491 . S
C1349 C1348 1.400 . S
C1349 C1350 1.398 . S
C1350 H1338 0.950 . S
C1350 C1349 1.398 . S
C1350 C1351 1.391 . S
C1351 H1339 0.950 . S
C1351 C1347 1.393 . S
C1351 C1350 1.391 . S
H1352 C1360 0.950 . S
H1353 C1365 0.950 . S
H1354 C1362 0.950 . S
H1355 C1364 0.950 . S
H1356 C1366 0.950 . S
H1357 C1368 0.950 . S
H1358 C1370 0.950 . S
H1359 C1371 0.950 . S
C1360 H1352 0.950 . S
C1360 C1361 1.386 . S
C1360 C1362 1.391 . S
C1361 C1360 1.386 . S
C1361 C1365 1.393 . S
C1362 H1354 0.950 . S
C1362 C1360 1.391 . S
C1362 C1363 1.400 . S
C1363 C1362 1.400 . S
C1363 C1364 1.398 . S
C1363 C1369 1.491 . S
C1364 H1355 0.950 . S
C1364 C1363 1.398 . S
C1364 C1365 1.391 . S
C1365 H1353 0.950 . S
C1365 C1361 1.393 . S
C1365 C1364 1.391 . S
C1366 H1356 0.950 . S
C1366 C1367 1.386 . S
C1366 C1368 1.391 . S
C1367 C1366 1.386 . S
C1367 C1371 1.393 . S
C1368 H1357 0.950 . S
C1368 C1366 1.391 . S
C1368 C1369 1.400 . S
C1369 C1363 1.491 . S
C1369 C1368 1.400 . S
C1369 C1370 1.398 . S
C1370 H1358 0.950 . S
C1370 C1369 1.398 . S
C1370 C1371 1.391 . S
C1371 H1359 0.950 . S
C1371 C1367 1.393 . S
C1371 C1370 1.391 . S
H1372 C1380 0.950 1_545 S
H1373 C1385 0.950 . S
H1374 C1382 0.950 1_545 S
H1375 C1384 0.950 . S
H1376 C1386 0.950 . S
H1377 C1388 0.950 . S
H1378 C1390 0.950 1_545 S
H1379 C1391 0.950 1_545 S
C1380 H1372 0.950 1_565 S
C1380 C1381 1.386 . S
C1380 C1382 1.391 . S
C1381 C1380 1.386 . S
C1381 C1385 1.393 . S
C1382 H1374 0.950 1_565 S
C1382 C1380 1.391 . S
C1382 C1383 1.400 . S
C1383 C1382 1.400 . S
C1383 C1384 1.398 . S
C1383 C1389 1.491 . S
C1384 H1375 0.950 . S
C1384 C1383 1.398 . S
C1384 C1385 1.391 . S
C1385 H1373 0.950 . S
C1385 C1381 1.393 . S
C1385 C1384 1.391 . S
C1386 H1376 0.950 . S
C1386 C1387 1.386 . S
C1386 C1388 1.391 . S
C1387 C1386 1.386 . S
C1387 C1391 1.393 . S
C1388 H1377 0.950 . S
C1388 C1386 1.391 . S
C1388 C1389 1.400 . S
C1389 C1383 1.491 . S
C1389 C1388 1.400 . S
C1389 C1390 1.398 . S
C1390 H1378 0.950 1_565 S
C1390 C1389 1.398 . S
C1390 C1391 1.391 . S
C1391 H1379 0.950 1_565 S
C1391 C1387 1.393 . S
C1391 C1390 1.391 . S
H1392 C1400 0.950 . S
H1393 C1405 0.950 . S
H1394 C1402 0.950 . S
H1395 C1404 0.950 . S
H1396 C1406 0.950 . S
H1397 C1408 0.950 . S
H1398 C1410 0.950 . S
H1399 C1411 0.950 . S
C1400 H1392 0.950 . S
C1400 C1401 1.386 . S
C1400 C1402 1.391 . S
C1401 C1400 1.386 . S
C1401 C1405 1.393 . S
C1402 H1394 0.950 . S
C1402 C1400 1.391 . S
C1402 C1403 1.400 . S
C1403 C1402 1.400 . S
C1403 C1404 1.398 . S
C1403 C1409 1.491 . S
C1404 H1395 0.950 . S
C1404 C1403 1.398 . S
C1404 C1405 1.391 . S
C1405 H1393 0.950 . S
C1405 C1401 1.393 . S
C1405 C1404 1.391 . S
C1406 H1396 0.950 . S
C1406 C1407 1.386 . S
C1406 C1408 1.391 . S
C1407 C1406 1.386 . S
C1407 C1411 1.393 . S
C1408 H1397 0.950 . S
C1408 C1406 1.391 . S
C1408 C1409 1.400 . S
C1409 C1403 1.491 . S
C1409 C1408 1.400 . S
C1409 C1410 1.398 . S
C1410 H1398 0.950 . S
C1410 C1409 1.398 . S
C1410 C1411 1.391 . S
C1411 H1399 0.950 . S
C1411 C1407 1.393 . S
C1411 C1410 1.391 . S
H1412 C1420 0.950 . S
H1413 C1425 0.950 . S
H1414 C1422 0.950 . S
H1415 C1424 0.950 . S
H1416 C1426 0.950 . S
H1417 C1428 0.950 . S
H1418 C1430 0.950 . S
H1419 C1431 0.950 . S
C1420 H1412 0.950 . S
C1420 C1421 1.386 . S
C1420 C1422 1.391 . S
C1421 C1420 1.386 . S
C1421 C1425 1.393 . S
C1422 H1414 0.950 . S
C1422 C1420 1.391 . S
C1422 C1423 1.400 . S
C1423 C1422 1.400 . S
C1423 C1424 1.398 . S
C1423 C1429 1.491 . S
C1424 H1415 0.950 . S
C1424 C1423 1.398 . S
C1424 C1425 1.391 . S
C1425 H1413 0.950 . S
C1425 C1421 1.393 . S
C1425 C1424 1.391 . S
C1426 H1416 0.950 . S
C1426 C1427 1.386 . S
C1426 C1428 1.391 . S
C1427 C1426 1.386 . S
C1427 C1431 1.393 . S
C1428 H1417 0.950 . S
C1428 C1426 1.391 . S
C1428 C1429 1.400 . S
C1429 C1423 1.491 . S
C1429 C1428 1.400 . S
C1429 C1430 1.398 . S
C1430 H1418 0.950 . S
C1430 C1429 1.398 . S
C1430 C1431 1.391 . S
C1431 H1419 0.950 . S
C1431 C1427 1.393 . S
C1431 C1430 1.391 . S
H1432 C1440 0.950 . S
H1433 C1445 0.950 . S
H1434 C1442 0.950 . S
H1435 C1444 0.950 . S
H1436 C1446 0.950 . S
H1437 C1448 0.950 . S
H1438 C1450 0.950 . S
H1439 C1451 0.950 . S
C1440 H1432 0.950 . S
C1440 C1441 1.386 . S
C1440 C1442 1.391 . S
C1441 C1440 1.386 . S
C1441 C1445 1.393 . S
C1442 H1434 0.950 . S
C1442 C1440 1.391 . S
C1442 C1443 1.400 . S
C1443 C1442 1.400 . S
C1443 C1444 1.398 . S
C1443 C1449 1.491 . S
C1444 H1435 0.950 . S
C1444 C1443 1.398 . S
C1444 C1445 1.391 . S
C1445 H1433 0.950 . S
C1445 C1441 1.393 . S
C1445 C1444 1.391 . S
C1446 H1436 0.950 . S
C1446 C1447 1.386 . S
C1446 C1448 1.391 . S
C1447 C1446 1.386 . S
C1447 C1451 1.393 . S
C1448 H1437 0.950 . S
C1448 C1446 1.391 . S
C1448 C1449 1.400 . S
C1449 C1443 1.491 . S
C1449 C1448 1.400 . S
C1449 C1450 1.398 . S
C1450 H1438 0.950 . S
C1450 C1449 1.398 . S
C1450 C1451 1.391 . S
C1451 H1439 0.950 . S
C1451 C1447 1.393 . S
C1451 C1450 1.391 . S
H1452 C1460 0.950 . S
H1453 C1465 0.950 . S
H1454 C1462 0.950 . S
H1455 C1464 0.950 . S
H1456 C1466 0.950 . S
H1457 C1468 0.950 . S
H1458 C1470 0.950 . S
H1459 C1471 0.950 . S
C1460 H1452 0.950 . S
C1460 C1461 1.386 . S
C1460 C1462 1.391 . S
C1461 C1460 1.386 . S
C1461 C1465 1.393 . S
C1462 H1454 0.950 . S
C1462 C1460 1.391 . S
C1462 C1463 1.400 . S
C1463 C1462 1.400 . S
C1463 C1464 1.398 . S
C1463 C1469 1.491 . S
C1464 H1455 0.950 . S
C1464 C1463 1.398 . S
C1464 C1465 1.391 . S
C1465 H1453 0.950 . S
C1465 C1461 1.393 . S
C1465 C1464 1.391 . S
C1466 H1456 0.950 . S
C1466 C1467 1.386 . S
C1466 C1468 1.391 . S
C1467 C1466 1.386 . S
C1467 C1471 1.393 . S
C1468 H1457 0.950 . S
C1468 C1466 1.391 . S
C1468 C1469 1.400 . S
C1469 C1463 1.491 . S
C1469 C1468 1.400 . S
C1469 C1470 1.398 . S
C1470 H1458 0.950 . S
C1470 C1469 1.398 . S
C1470 C1471 1.391 . S
C1471 H1459 0.950 . S
C1471 C1467 1.393 . S
C1471 C1470 1.391 . S
H1472 C1480 0.950 . S
H1473 C1485 0.950 . S
H1474 C1482 0.950 . S
H1475 C1484 0.950 . S
H1476 C1486 0.950 . S
H1477 C1488 0.950 . S
H1478 C1490 0.950 . S
H1479 C1491 0.950 . S
C1480 H1472 0.950 . S
C1480 C1481 1.386 . S
C1480 C1482 1.391 . S
C1481 C1480 1.386 . S
C1481 C1485 1.393 . S
C1482 H1474 0.950 . S
C1482 C1480 1.391 . S
C1482 C1483 1.400 . S
C1483 C1482 1.400 . S
C1483 C1484 1.398 . S
C1483 C1489 1.491 . S
C1484 H1475 0.950 . S
C1484 C1483 1.398 . S
C1484 C1485 1.391 . S
C1485 H1473 0.950 . S
C1485 C1481 1.393 . S
C1485 C1484 1.391 . S
C1486 H1476 0.950 . S
C1486 C1487 1.386 . S
C1486 C1488 1.391 . S
C1487 C1486 1.386 . S
C1487 C1491 1.393 . S
C1488 H1477 0.950 . S
C1488 C1486 1.391 . S
C1488 C1489 1.400 . S
C1489 C1483 1.491 . S
C1489 C1488 1.400 . S
C1489 C1490 1.398 . S
C1490 H1478 0.950 . S
C1490 C1489 1.398 . S
C1490 C1491 1.391 . S
C1491 H1479 0.950 . S
C1491 C1487 1.393 . S
C1491 C1490 1.391 . S
H1492 C1500 0.950 . S
H1493 C1505 0.950 . S
H1494 C1502 0.950 . S
H1495 C1504 0.950 . S
H1496 C1506 0.950 . S
H1497 C1508 0.950 . S
H1498 C1510 0.950 . S
H1499 C1511 0.950 . S
C1500 H1492 0.950 . S
C1500 C1501 1.386 . S
C1500 C1502 1.391 . S
C1501 C1500 1.386 . S
C1501 C1505 1.393 . S
C1502 H1494 0.950 . S
C1502 C1500 1.391 . S
C1502 C1503 1.400 . S
C1503 C1502 1.400 . S
C1503 C1504 1.398 . S
C1503 C1509 1.491 . S
C1504 H1495 0.950 . S
C1504 C1503 1.398 . S
C1504 C1505 1.391 . S
C1505 H1493 0.950 . S
C1505 C1501 1.393 . S
C1505 C1504 1.391 . S
C1506 H1496 0.950 . S
C1506 C1507 1.386 . S
C1506 C1508 1.391 . S
C1507 C1506 1.386 . S
C1507 C1511 1.393 . S
C1508 H1497 0.950 . S
C1508 C1506 1.391 . S
C1508 C1509 1.400 . S
C1509 C1503 1.491 . S
C1509 C1508 1.400 . S
C1509 C1510 1.398 . S
C1510 H1498 0.950 . S
C1510 C1509 1.398 . S
C1510 C1511 1.391 . S
C1511 H1499 0.950 . S
C1511 C1507 1.393 . S
C1511 C1510 1.391 . S
H1512 C1520 0.950 . S
H1513 C1525 0.950 . S
H1514 C1522 0.950 . S
H1515 C1524 0.950 . S
H1516 C1526 0.950 . S
H1517 C1528 0.950 . S
H1518 C1530 0.950 . S
H1519 C1531 0.950 . S
C1520 H1512 0.950 . S
C1520 C1521 1.386 . S
C1520 C1522 1.391 . S
C1521 C1520 1.386 . S
C1521 C1525 1.393 . S
C1522 H1514 0.950 . S
C1522 C1520 1.391 . S
C1522 C1523 1.400 . S
C1523 C1522 1.400 . S
C1523 C1524 1.398 . S
C1523 C1529 1.491 . S
C1524 H1515 0.950 . S
C1524 C1523 1.398 . S
C1524 C1525 1.391 . S
C1525 H1513 0.950 . S
C1525 C1521 1.393 . S
C1525 C1524 1.391 . S
C1526 H1516 0.950 . S
C1526 C1527 1.386 . S
C1526 C1528 1.391 . S
C1527 C1526 1.386 . S
C1527 C1531 1.393 . S
C1528 H1517 0.950 . S
C1528 C1526 1.391 . S
C1528 C1529 1.400 . S
C1529 C1523 1.491 . S
C1529 C1528 1.400 . S
C1529 C1530 1.398 . S
C1530 H1518 0.950 . S
C1530 C1529 1.398 . S
C1530 C1531 1.391 . S
C1531 H1519 0.950 . S
C1531 C1527 1.393 . S
C1531 C1530 1.391 . S
H1532 C1540 0.950 . S
H1533 C1545 0.950 . S
H1534 C1542 0.950 . S
H1535 C1544 0.950 . S
H1536 C1546 0.950 . S
H1537 C1548 0.950 . S
H1538 C1550 0.950 . S
H1539 C1551 0.950 . S
C1540 H1532 0.950 . S
C1540 C1541 1.386 . S
C1540 C1542 1.391 . S
C1541 C1540 1.386 . S
C1541 C1545 1.393 1_655 S
C1542 H1534 0.950 . S
C1542 C1540 1.391 . S
C1542 C1543 1.400 . S
C1543 C1542 1.400 . S
C1543 C1544 1.398 1_655 S
C1543 C1549 1.491 . S
C1544 H1535 0.950 . S
C1544 C1543 1.398 1_455 S
C1544 C1545 1.391 . S
C1545 H1533 0.950 . S
C1545 C1541 1.393 1_455 S
C1545 C1544 1.391 . S
C1546 H1536 0.950 . S
C1546 C1547 1.386 1_455 S
C1546 C1548 1.391 . S
C1547 C1546 1.386 1_655 S
C1547 C1551 1.393 . S
C1548 H1537 0.950 . S
C1548 C1546 1.391 . S
C1548 C1549 1.400 1_455 S
C1549 C1543 1.491 . S
C1549 C1548 1.400 1_655 S
C1549 C1550 1.398 . S
C1550 H1538 0.950 . S
C1550 C1549 1.398 . S
C1550 C1551 1.391 . S
C1551 H1539 0.950 . S
C1551 C1547 1.393 . S
C1551 C1550 1.391 . S
H1552 C1560 0.950 . S
H1553 C1565 0.950 . S
H1554 C1562 0.950 . S
H1555 C1564 0.950 . S
H1556 C1566 0.950 . S
H1557 C1568 0.950 . S
H1558 C1570 0.950 . S
H1559 C1571 0.950 . S
C1560 H1552 0.950 . S
C1560 C1561 1.386 . S
C1560 C1562 1.391 . S
C1561 C1560 1.386 . S
C1561 C1565 1.393 . S
C1562 H1554 0.950 . S
C1562 C1560 1.391 . S
C1562 C1563 1.400 . S
C1563 C1562 1.400 . S
C1563 C1564 1.398 . S
C1563 C1569 1.491 . S
C1564 H1555 0.950 . S
C1564 C1563 1.398 . S
C1564 C1565 1.391 . S
C1565 H1553 0.950 . S
C1565 C1561 1.393 . S
C1565 C1564 1.391 . S
C1566 H1556 0.950 . S
C1566 C1567 1.386 . S
C1566 C1568 1.391 . S
C1567 C1566 1.386 . S
C1567 C1571 1.393 . S
C1568 H1557 0.950 . S
C1568 C1566 1.391 . S
C1568 C1569 1.400 . S
C1569 C1563 1.491 . S
C1569 C1568 1.400 . S
C1569 C1570 1.398 . S
C1570 H1558 0.950 . S
C1570 C1569 1.398 . S
C1570 C1571 1.391 . S
C1571 H1559 0.950 . S
C1571 C1567 1.393 . S
C1571 C1570 1.391 . S
H1572 C1580 0.950 . S
H1573 C1585 0.950 . S
H1574 C1582 0.950 . S
H1575 C1584 0.950 . S
H1576 C1586 0.950 . S
H1577 C1588 0.950 . S
H1578 C1590 0.950 . S
H1579 C1591 0.950 . S
C1580 H1572 0.950 . S
C1580 C1581 1.386 . S
C1580 C1582 1.391 . S
C1581 C1580 1.386 . S
C1581 C1585 1.393 . S
C1582 H1574 0.950 . S
C1582 C1580 1.391 . S
C1582 C1583 1.400 . S
C1583 C1582 1.400 . S
C1583 C1584 1.398 . S
C1583 C1589 1.491 . S
C1584 H1575 0.950 . S
C1584 C1583 1.398 . S
C1584 C1585 1.391 . S
C1585 H1573 0.950 . S
C1585 C1581 1.393 . S
C1585 C1584 1.391 . S
C1586 H1576 0.950 . S
C1586 C1587 1.386 . S
C1586 C1588 1.391 . S
C1587 C1586 1.386 . S
C1587 C1591 1.393 . S
C1588 H1577 0.950 . S
C1588 C1586 1.391 . S
C1588 C1589 1.400 . S
C1589 C1583 1.491 . S
C1589 C1588 1.400 . S
C1589 C1590 1.398 . S
C1590 H1578 0.950 . S
C1590 C1589 1.398 . S
C1590 C1591 1.391 . S
C1591 H1579 0.950 . S
C1591 C1587 1.393 . S
C1591 C1590 1.391 . S
H1592 C1600 0.950 . S
H1593 C1605 0.950 . S
H1594 C1602 0.950 . S
H1595 C1604 0.950 . S
H1596 C1606 0.950 . S
H1597 C1608 0.950 . S
H1598 C1610 0.950 . S
H1599 C1611 0.929 1_556 S
C1600 H1592 0.950 . S
C1600 C1601 1.386 1_565 S
C1600 C1602 1.391 . S
C1601 C1600 1.386 1_545 S
C1601 C1605 1.393 1_556 S
C1602 H1594 0.950 . S
C1602 C1600 1.391 . S
C1602 C1603 1.434 . S
C1603 C1602 1.434 . S
C1603 C1604 1.381 1_566 S
C1603 C1609 1.476 1_556 S
C1604 H1595 0.950 . S
C1604 C1603 1.381 1_544 S
C1604 C1605 1.391 . S
C1605 H1593 0.950 . S
C1605 C1601 1.393 1_554 S
C1605 C1604 1.391 . S
C1606 H1596 0.950 . S
C1606 C1607 1.386 . S
C1606 C1608 1.391 . S
C1607 C1606 1.386 . S
C1607 C1611 1.433 . S
C1608 H1597 0.950 . S
C1608 C1606 1.391 . S
C1608 C1609 1.400 . S
C1609 C1603 1.476 1_554 S
C1609 C1608 1.400 . S
C1609 C1610 1.398 1_554 S
C1610 H1598 0.950 . S
C1610 C1609 1.398 1_556 S
C1610 C1611 1.373 1_556 S
C1611 H1599 0.929 1_554 S
C1611 C1607 1.433 . S
C1611 C1610 1.373 1_554 S
H1612 C1620 0.950 . S
H1613 C1625 0.950 . S
H1614 C1622 0.950 . S
H1615 C1624 0.950 . S
H1616 C1626 0.950 . S
H1617 C1628 0.950 . S
H1618 C1630 0.950 . S
H1619 C1631 0.950 . S
C1620 H1612 0.950 . S
C1620 C1621 1.386 . S
C1620 C1622 1.391 . S
C1621 C1620 1.386 . S
C1621 C1625 1.393 . S
C1622 H1614 0.950 . S
C1622 C1620 1.391 . S
C1622 C1623 1.400 . S
C1623 C1622 1.400 . S
C1623 C1624 1.398 . S
C1623 C1629 1.491 . S
C1624 H1615 0.950 . S
C1624 C1623 1.398 . S
C1624 C1625 1.391 . S
C1625 H1613 0.950 . S
C1625 C1621 1.393 . S
C1625 C1624 1.391 . S
C1626 H1616 0.950 . S
C1626 C1627 1.386 . S
C1626 C1628 1.391 . S
C1627 C1626 1.386 . S
C1627 C1631 1.393 . S
C1628 H1617 0.950 . S
C1628 C1626 1.391 . S
C1628 C1629 1.400 . S
C1629 C1623 1.491 . S
C1629 C1628 1.400 . S
C1629 C1630 1.398 . S
C1630 H1618 0.950 . S
C1630 C1629 1.398 . S
C1630 C1631 1.391 . S
C1631 H1619 0.950 . S
C1631 C1627 1.393 . S
C1631 C1630 1.391 . S
H1632 C1640 0.950 1_565 S
H1633 C1645 0.950 . S
H1634 C1642 0.950 . S
H1635 C1644 0.950 . S
H1636 C1646 0.950 . S
H1637 C1648 0.950 . S
H1638 C1650 0.950 . S
H1639 C1651 0.950 . S
C1640 H1632 0.950 1_545 S
C1640 C1641 1.386 . S
C1640 C1642 1.391 . S
C1641 C1640 1.386 . S
C1641 C1645 1.393 . S
C1642 H1634 0.950 . S
C1642 C1640 1.391 . S
C1642 C1643 1.400 . S
C1643 C1642 1.400 . S
C1643 C1644 1.398 . S
C1643 C1649 1.491 . S
C1644 H1635 0.950 . S
C1644 C1643 1.398 . S
C1644 C1645 1.391 . S
C1645 H1633 0.950 . S
C1645 C1641 1.393 . S
C1645 C1644 1.391 . S
C1646 H1636 0.950 . S
C1646 C1647 1.386 . S
C1646 C1648 1.391 . S
C1647 C1646 1.386 . S
C1647 C1651 1.393 . S
C1648 H1637 0.950 . S
C1648 C1646 1.391 . S
C1648 C1649 1.400 . S
C1649 C1643 1.491 . S
C1649 C1648 1.400 . S
C1649 C1650 1.398 . S
C1650 H1638 0.950 . S
C1650 C1649 1.398 . S
C1650 C1651 1.391 . S
C1651 H1639 0.950 . S
C1651 C1647 1.393 . S
C1651 C1650 1.391 . S
H1652 C1660 0.950 . S
H1653 C1665 0.950 . S
H1654 C1662 0.950 . S
H1655 C1664 0.950 . S
H1656 C1666 0.950 . S
H1657 C1668 0.950 . S
H1658 C1670 0.950 . S
H1659 C1671 0.950 . S
C1660 H1652 0.950 . S
C1660 C1661 1.386 . S
C1660 C1662 1.391 . S
C1661 C1660 1.386 . S
C1661 C1665 1.393 . S
C1662 H1654 0.950 . S
C1662 C1660 1.391 . S
C1662 C1663 1.400 . S
C1663 C1662 1.400 . S
C1663 C1664 1.398 . S
C1663 C1669 1.491 . S
C1664 H1655 0.950 . S
C1664 C1663 1.398 . S
C1664 C1665 1.391 . S
C1665 H1653 0.950 . S
C1665 C1661 1.393 . S
C1665 C1664 1.391 . S
C1666 H1656 0.950 . S
C1666 C1667 1.386 . S
C1666 C1668 1.391 . S
C1667 C1666 1.386 . S
C1667 C1671 1.393 . S
C1668 H1657 0.950 . S
C1668 C1666 1.391 . S
C1668 C1669 1.400 . S
C1669 C1663 1.491 . S
C1669 C1668 1.400 . S
C1669 C1670 1.398 . S
C1670 H1658 0.950 . S
C1670 C1669 1.398 . S
C1670 C1671 1.391 . S
C1671 H1659 0.950 . S
C1671 C1667 1.393 . S
C1671 C1670 1.391 . S
H1672 C1680 0.950 . S
H1673 C1685 0.950 . S
H1674 C1682 0.950 . S
H1675 C1684 0.950 . S
H1676 C1686 0.950 . S
H1677 C1688 0.950 . S
H1678 C1690 0.950 . S
H1679 C1691 0.950 . S
C1680 H1672 0.950 . S
C1680 C1681 1.386 . S
C1680 C1682 1.391 . S
C1681 C1680 1.386 . S
C1681 C1685 1.393 . S
C1682 H1674 0.950 . S
C1682 C1680 1.391 . S
C1682 C1683 1.400 . S
C1683 C1682 1.400 . S
C1683 C1684 1.398 . S
C1683 C1689 1.491 . S
C1684 H1675 0.950 . S
C1684 C1683 1.398 . S
C1684 C1685 1.391 . S
C1685 H1673 0.950 . S
C1685 C1681 1.393 . S
C1685 C1684 1.391 . S
C1686 H1676 0.950 . S
C1686 C1687 1.386 . S
C1686 C1688 1.391 . S
C1687 C1686 1.386 . S
C1687 C1691 1.393 . S
C1688 H1677 0.950 . S
C1688 C1686 1.391 . S
C1688 C1689 1.400 . S
C1689 C1683 1.491 . S
C1689 C1688 1.400 . S
C1689 C1690 1.398 . S
C1690 H1678 0.950 . S
C1690 C1689 1.398 . S
C1690 C1691 1.391 . S
C1691 H1679 0.950 . S
C1691 C1687 1.393 . S
C1691 C1690 1.391 . S
H1692 C1700 0.950 . S
H1693 C1705 0.950 . S
H1694 C1702 0.950 . S
H1695 C1704 0.950 . S
H1696 C1706 0.950 . S
H1697 C1708 0.950 . S
H1698 C1710 0.950 . S
H1699 C1711 0.950 . S
C1700 H1692 0.950 . S
C1700 C1701 1.386 . S
C1700 C1702 1.391 . S
C1701 C1700 1.386 . S
C1701 C1705 1.393 . S
C1702 H1694 0.950 . S
C1702 C1700 1.391 . S
C1702 C1703 1.400 . S
C1703 C1702 1.400 . S
C1703 C1704 1.398 . S
C1703 C1709 1.491 . S
C1704 H1695 0.950 . S
C1704 C1703 1.398 . S
C1704 C1705 1.391 . S
C1705 H1693 0.950 . S
C1705 C1701 1.393 . S
C1705 C1704 1.391 . S
C1706 H1696 0.950 . S
C1706 C1707 1.386 . S
C1706 C1708 1.391 . S
C1707 C1706 1.386 . S
C1707 C1711 1.393 . S
C1708 H1697 0.950 . S
C1708 C1706 1.391 . S
C1708 C1709 1.400 . S
C1709 C1703 1.491 . S
C1709 C1708 1.400 . S
C1709 C1710 1.398 . S
C1710 H1698 0.950 . S
C1710 C1709 1.398 . S
C1710 C1711 1.391 . S
C1711 H1699 0.950 . S
C1711 C1707 1.393 . S
C1711 C1710 1.391 . S
H1712 C1720 0.950 . S
H1713 C1725 0.950 . S
H1714 C1722 0.950 . S
H1715 C1724 0.950 . S
H1716 C1726 0.950 . S
H1717 C1728 0.950 . S
H1718 C1730 0.950 . S
H1719 C1731 0.950 . S
C1720 H1712 0.950 . S
C1720 C1721 1.386 . S
C1720 C1722 1.391 . S
C1721 C1720 1.386 . S
C1721 C1725 1.393 . S
C1722 H1714 0.950 . S
C1722 C1720 1.391 . S
C1722 C1723 1.400 . S
C1723 C1722 1.400 . S
C1723 C1724 1.398 . S
C1723 C1729 1.491 . S
C1724 H1715 0.950 . S
C1724 C1723 1.398 . S
C1724 C1725 1.391 . S
C1725 H1713 0.950 . S
C1725 C1721 1.393 . S
C1725 C1724 1.391 . S
C1726 H1716 0.950 . S
C1726 C1727 1.386 . S
C1726 C1728 1.391 . S
C1727 C1726 1.386 . S
C1727 C1731 1.393 . S
C1728 H1717 0.950 . S
C1728 C1726 1.391 . S
C1728 C1729 1.400 . S
C1729 C1723 1.491 . S
C1729 C1728 1.400 . S
C1729 C1730 1.398 . S
C1730 H1718 0.950 . S
C1730 C1729 1.398 . S
C1730 C1731 1.391 . S
C1731 H1719 0.950 . S
C1731 C1727 1.393 . S
C1731 C1730 1.391 . S
H1732 C1740 0.950 . S
H1733 C1745 0.950 . S
H1734 C1742 0.950 . S
H1735 C1744 0.950 . S
H1736 C1746 0.950 . S
H1737 C1748 0.950 . S
H1738 C1750 0.950 . S
H1739 C1751 0.950 . S
C1740 H1732 0.950 . S
C1740 C1741 1.386 . S
C1740 C1742 1.391 . S
C1741 C1740 1.386 . S
C1741 C1745 1.393 . S
C1742 H1734 0.950 . S
C1742 C1740 1.391 . S
C1742 C1743 1.400 . S
C1743 C1742 1.400 . S
C1743 C1744 1.398 . S
C1743 C1749 1.491 . S
C1744 H1735 0.950 . S
C1744 C1743 1.398 . S
C1744 C1745 1.391 . S
C1745 H1733 0.950 . S
C1745 C1741 1.393 . S
C1745 C1744 1.391 . S
C1746 H1736 0.950 . S
C1746 C1747 1.386 . S
C1746 C1748 1.391 . S
C1747 C1746 1.386 . S
C1747 C1751 1.393 . S
C1748 H1737 0.950 . S
C1748 C1746 1.391 . S
C1748 C1749 1.400 . S
C1749 C1743 1.491 . S
C1749 C1748 1.400 . S
C1749 C1750 1.398 . S
C1750 H1738 0.950 . S
C1750 C1749 1.398 . S
C1750 C1751 1.391 . S
C1751 H1739 0.950 . S
C1751 C1747 1.393 . S
C1751 C1750 1.391 . S
H1752 C1760 0.950 . S
H1753 C1765 0.950 . S
H1754 C1762 0.950 . S
H1755 C1764 0.950 . S
H1756 C1766 0.950 . S
H1757 C1768 0.950 . S
H1758 C1770 0.950 . S
H1759 C1771 0.950 . S
C1760 H1752 0.950 . S
C1760 C1761 1.386 . S
C1760 C1762 1.391 . S
C1761 C1760 1.386 . S
C1761 C1765 1.393 . S
C1762 H1754 0.950 . S
C1762 C1760 1.391 . S
C1762 C1763 1.400 . S
C1763 C1762 1.400 . S
C1763 C1764 1.398 . S
C1763 C1769 1.491 . S
C1764 H1755 0.950 . S
C1764 C1763 1.398 . S
C1764 C1765 1.391 . S
C1765 H1753 0.950 . S
C1765 C1761 1.393 . S
C1765 C1764 1.391 . S
C1766 H1756 0.950 . S
C1766 C1767 1.386 . S
C1766 C1768 1.391 . S
C1767 C1766 1.386 . S
C1767 C1771 1.393 . S
C1768 H1757 0.950 . S
C1768 C1766 1.391 . S
C1768 C1769 1.400 . S
C1769 C1763 1.491 . S
C1769 C1768 1.400 . S
C1769 C1770 1.398 . S
C1770 H1758 0.950 . S
C1770 C1769 1.398 . S
C1770 C1771 1.391 . S
C1771 H1759 0.950 . S
C1771 C1767 1.393 . S
C1771 C1770 1.391 . S
H1772 C1780 0.950 . S
H1773 C1785 0.950 . S
H1774 C1782 0.950 . S
H1775 C1784 0.950 . S
H1776 C1786 0.950 . S
H1777 C1788 0.950 . S
H1778 C1790 0.950 . S
H1779 C1791 0.950 . S
C1780 H1772 0.950 . S
C1780 C1781 1.386 . S
C1780 C1782 1.391 . S
C1781 C1780 1.386 . S
C1781 C1785 1.393 . S
C1782 H1774 0.950 . S
C1782 C1780 1.391 . S
C1782 C1783 1.400 . S
C1783 C1782 1.400 . S
C1783 C1784 1.398 . S
C1783 C1789 1.491 . S
C1784 H1775 0.950 . S
C1784 C1783 1.398 . S
C1784 C1785 1.391 . S
C1785 H1773 0.950 . S
C1785 C1781 1.393 . S
C1785 C1784 1.391 . S
C1786 H1776 0.950 . S
C1786 C1787 1.386 . S
C1786 C1788 1.391 . S
C1787 C1786 1.386 . S
C1787 C1791 1.393 . S
C1788 H1777 0.950 . S
C1788 C1786 1.391 . S
C1788 C1789 1.400 . S
C1789 C1783 1.491 . S
C1789 C1788 1.400 . S
C1789 C1790 1.398 . S
C1790 H1778 0.950 . S
C1790 C1789 1.398 . S
C1790 C1791 1.391 . S
C1791 H1779 0.950 . S
C1791 C1787 1.393 . S
C1791 C1790 1.391 . S
H1792 C1800 0.950 . S
H1793 C1805 0.950 . S
H1794 C1802 0.950 . S
H1795 C1804 0.950 . S
H1796 C1806 0.950 . S
H1797 C1808 0.950 . S
H1798 C1810 0.950 . S
H1799 C1811 0.950 . S
C1800 H1792 0.950 . S
C1800 C1801 1.386 . S
C1800 C1802 1.391 . S
C1801 C1800 1.386 . S
C1801 C1805 1.393 . S
C1802 H1794 0.950 . S
C1802 C1800 1.391 . S
C1802 C1803 1.400 . S
C1803 C1802 1.400 . S
C1803 C1804 1.398 . S
C1803 C1809 1.491 . S
C1804 H1795 0.950 . S
C1804 C1803 1.398 . S
C1804 C1805 1.391 . S
C1805 H1793 0.950 . S
C1805 C1801 1.393 . S
C1805 C1804 1.391 . S
C1806 H1796 0.950 . S
C1806 C1807 1.386 . S
C1806 C1808 1.391 . S
C1807 C1806 1.386 . S
C1807 C1811 1.393 . S
C1808 H1797 0.950 . S
C1808 C1806 1.391 . S
C1808 C1809 1.400 . S
C1809 C1803 1.491 . S
C1809 C1808 1.400 . S
C1809 C1810 1.398 . S
C1810 H1798 0.950 . S
C1810 C1809 1.398 . S
C1810 C1811 1.391 . S
C1811 H1799 0.950 . S
C1811 C1807 1.393 . S
C1811 C1810 1.391 . S
H1812 C1820 0.950 . S
H1813 C1825 0.950 . S
H1814 C1822 0.932 1_655 S
H1815 C1824 0.950 . S
H1816 C1826 0.940 1_455 S
H1817 C1828 0.950 . S
H1818 C1830 0.950 . S
H1819 C1831 0.950 . S
C1820 H1812 0.950 . S
C1820 C1821 1.386 . S
C1820 C1822 1.391 . S
C1821 C1820 1.386 . S
C1821 C1825 1.393 . S
C1822 H1814 0.932 1_455 S
C1822 C1820 1.391 . S
C1822 C1823 1.400 . S
C1823 C1822 1.400 . S
C1823 C1824 1.398 . S
C1823 C1829 1.491 . S
C1824 H1815 0.950 . S
C1824 C1823 1.398 . S
C1824 C1825 1.391 . S
C1825 H1813 0.950 . S
C1825 C1821 1.393 . S
C1825 C1824 1.391 . S
C1826 H1816 0.940 1_655 S
C1826 C1827 1.426 . S
C1826 C1828 1.364 1_655 S
C1827 C1826 1.426 . S
C1827 C1831 1.393 . S
C1828 H1817 0.950 . S
C1828 C1826 1.364 1_455 S
C1828 C1829 1.400 . S
C1829 C1823 1.491 . S
C1829 C1828 1.400 . S
C1829 C1830 1.398 1_455 S
C1830 H1818 0.950 . S
C1830 C1829 1.398 1_655 S
C1830 C1831 1.391 . S
C1831 H1819 0.950 . S
C1831 C1827 1.393 . S
C1831 C1830 1.391 . S
H1832 C1840 0.950 . S
H1833 C1845 0.950 . S
H1834 C1842 0.950 . S
H1835 C1844 0.950 . S
H1836 C1846 0.950 . S
H1837 C1848 0.950 . S
H1838 C1850 0.950 . S
H1839 C1851 0.950 . S
C1840 H1832 0.950 . S
C1840 C1841 1.386 . S
C1840 C1842 1.391 . S
C1841 C1840 1.386 . S
C1841 C1845 1.393 . S
C1842 H1834 0.950 . S
C1842 C1840 1.391 . S
C1842 C1843 1.400 . S
C1843 C1842 1.400 . S
C1843 C1844 1.398 . S
C1843 C1849 1.491 . S
C1844 H1835 0.950 . S
C1844 C1843 1.398 . S
C1844 C1845 1.391 . S
C1845 H1833 0.950 . S
C1845 C1841 1.393 . S
C1845 C1844 1.391 . S
C1846 H1836 0.950 . S
C1846 C1847 1.386 . S
C1846 C1848 1.391 . S
C1847 C1846 1.386 . S
C1847 C1851 1.393 . S
C1848 H1837 0.950 . S
C1848 C1846 1.391 . S
C1848 C1849 1.400 . S
C1849 C1843 1.491 . S
C1849 C1848 1.400 . S
C1849 C1850 1.398 . S
C1850 H1838 0.950 . S
C1850 C1849 1.398 . S
C1850 C1851 1.391 . S
C1851 H1839 0.950 . S
C1851 C1847 1.393 . S
C1851 C1850 1.391 . S
H1852 C1860 0.950 . S
H1853 C1865 0.950 1_655 S
H1854 C1862 0.950 . S
H1855 C1864 0.950 . S
H1856 C1866 0.950 . S
H1857 C1868 0.950 . S
H1858 C1870 0.950 . S
H1859 C1871 0.950 . S
C1860 H1852 0.950 . S
C1860 C1861 1.386 . S
C1860 C1862 1.391 . S
C1861 C1860 1.386 . S
C1861 C1865 1.393 . S
C1862 H1854 0.950 . S
C1862 C1860 1.391 . S
C1862 C1863 1.400 . S
C1863 C1862 1.400 . S
C1863 C1864 1.398 . S
C1863 C1869 1.491 . S
C1864 H1855 0.950 . S
C1864 C1863 1.398 . S
C1864 C1865 1.391 . S
C1865 H1853 0.950 1_455 S
C1865 C1861 1.393 . S
C1865 C1864 1.391 . S
C1866 H1856 0.950 . S
C1866 C1867 1.386 . S
C1866 C1868 1.391 . S
C1867 C1866 1.386 . S
C1867 C1871 1.393 . S
C1868 H1857 0.950 . S
C1868 C1866 1.391 . S
C1868 C1869 1.400 . S
C1869 C1863 1.491 . S
C1869 C1868 1.400 . S
C1869 C1870 1.398 . S
C1870 H1858 0.950 . S
C1870 C1869 1.398 . S
C1870 C1871 1.391 . S
C1871 H1859 0.950 . S
C1871 C1867 1.393 . S
C1871 C1870 1.391 . S
H1872 C1880 0.950 . S
H1873 C1885 0.950 . S
H1874 C1882 0.950 . S
H1875 C1884 0.950 . S
H1876 C1886 0.950 . S
H1877 C1888 0.950 . S
H1878 C1890 0.950 . S
H1879 C1891 0.950 . S
C1880 H1872 0.950 . S
C1880 C1881 1.386 . S
C1880 C1882 1.391 . S
C1881 C1880 1.386 . S
C1881 C1885 1.393 . S
C1882 H1874 0.950 . S
C1882 C1880 1.391 . S
C1882 C1883 1.400 . S
C1883 C1882 1.400 . S
C1883 C1884 1.398 . S
C1883 C1889 1.491 . S
C1884 H1875 0.950 . S
C1884 C1883 1.398 . S
C1884 C1885 1.391 . S
C1885 H1873 0.950 . S
C1885 C1881 1.393 . S
C1885 C1884 1.391 . S
C1886 H1876 0.950 . S
C1886 C1887 1.386 . S
C1886 C1888 1.391 . S
C1887 C1886 1.386 . S
C1887 C1891 1.393 . S
C1888 H1877 0.950 . S
C1888 C1886 1.391 . S
C1888 C1889 1.400 . S
C1889 C1883 1.491 . S
C1889 C1888 1.400 . S
C1889 C1890 1.398 . S
C1890 H1878 0.950 . S
C1890 C1889 1.398 . S
C1890 C1891 1.391 . S
C1891 H1879 0.950 . S
C1891 C1887 1.393 . S
C1891 C1890 1.391 . S
H1892 C1900 0.950 . S
H1893 C1905 0.950 . S
H1894 C1902 0.950 . S
H1895 C1904 0.949 . S
H1896 C1906 0.950 . S
H1897 C1908 0.950 . S
H1898 C1910 0.950 1_554 S
H1899 C1911 0.950 . S
C1900 H1892 0.950 . S
C1900 C1901 1.386 . S
C1900 C1902 1.391 . S
C1901 C1900 1.386 . S
C1901 C1905 1.393 1_554 S
C1902 H1894 0.950 . S
C1902 C1900 1.391 . S
C1902 C1903 1.401 1_654 S
C1903 C1902 1.401 1_456 S
C1903 C1904 1.396 1_455 S
C1903 C1909 1.490 . S
C1904 H1895 0.949 . S
C1904 C1903 1.396 1_655 S
C1904 C1905 1.396 . S
C1905 H1893 0.950 . S
C1905 C1901 1.393 1_556 S
C1905 C1904 1.396 . S
C1906 H1896 0.950 . S
C1906 C1907 1.386 . S
C1906 C1908 1.391 . S
C1907 C1906 1.386 . S
C1907 C1911 1.393 . S
C1908 H1897 0.950 . S
C1908 C1906 1.391 . S
C1908 C1909 1.400 . S
C1909 C1903 1.490 . S
C1909 C1908 1.400 . S
C1909 C1910 1.398 . S
C1910 H1898 0.950 1_556 S
C1910 C1909 1.398 . S
C1910 C1911 1.391 . S
C1911 H1899 0.950 . S
C1911 C1907 1.393 . S
C1911 C1910 1.391 . S
H1912 C1920 0.950 . S
H1913 C1925 0.950 . S
H1914 C1922 0.950 . S
H1915 C1924 0.950 . S
H1916 C1926 0.950 . S
H1917 C1928 0.950 . S
H1918 C1930 0.950 . S
H1919 C1931 0.950 . S
C1920 H1912 0.950 . S
C1920 C1921 1.386 . S
C1920 C1922 1.391 . S
C1921 C1920 1.386 . S
C1921 C1925 1.393 . S
C1922 H1914 0.950 . S
C1922 C1920 1.391 . S
C1922 C1923 1.400 . S
C1923 C1922 1.400 . S
C1923 C1924 1.398 . S
C1923 C1929 1.491 . S
C1924 H1915 0.950 . S
C1924 C1923 1.398 . S
C1924 C1925 1.391 . S
C1925 H1913 0.950 . S
C1925 C1921 1.393 . S
C1925 C1924 1.391 . S
C1926 H1916 0.950 . S
C1926 C1927 1.386 . S
C1926 C1928 1.391 . S
C1927 C1926 1.386 . S
C1927 C1931 1.393 . S
C1928 H1917 0.950 . S
C1928 C1926 1.391 . S
C1928 C1929 1.400 . S
C1929 C1923 1.491 . S
C1929 C1928 1.400 . S
C1929 C1930 1.398 . S
C1930 H1918 0.950 . S
C1930 C1929 1.398 . S
C1930 C1931 1.391 . S
C1931 H1919 0.950 . S
C1931 C1927 1.393 . S
C1931 C1930 1.391 . S
H1932 C1940 0.950 . S
H1933 C1945 0.950 . S
H1934 C1942 0.950 . S
H1935 C1944 0.950 . S
H1936 C1946 0.950 . S
H1937 C1948 0.950 . S
H1938 C1950 0.950 . S
H1939 C1951 0.950 . S
C1940 H1932 0.950 . S
C1940 C1941 1.386 . S
C1940 C1942 1.391 . S
C1941 C1940 1.386 . S
C1941 C1945 1.393 1_554 S
C1942 H1934 0.950 . S
C1942 C1940 1.391 . S
C1942 C1943 1.400 1_554 S
C1943 C1942 1.400 1_556 S
C1943 C1944 1.398 . S
C1943 C1949 1.491 . S
C1944 H1935 0.950 . S
C1944 C1943 1.398 . S
C1944 C1945 1.391 . S
C1945 H1933 0.950 . S
C1945 C1941 1.393 1_556 S
C1945 C1944 1.391 . S
C1946 H1936 0.950 . S
C1946 C1947 1.386 . S
C1946 C1948 1.391 . S
C1947 C1946 1.386 . S
C1947 C1951 1.393 . S
C1948 H1937 0.950 . S
C1948 C1946 1.391 . S
C1948 C1949 1.400 . S
C1949 C1943 1.491 . S
C1949 C1948 1.400 . S
C1949 C1950 1.398 . S
C1950 H1938 0.950 . S
C1950 C1949 1.398 . S
C1950 C1951 1.391 . S
C1951 H1939 0.950 . S
C1951 C1947 1.393 . S
C1951 C1950 1.391 . S
H1952 C1960 0.950 . S
H1953 C1965 0.950 . S
H1954 C1962 0.950 . S
H1955 C1964 0.950 . S
H1956 C1966 0.950 . S
H1957 C1968 0.950 . S
H1958 C1970 0.950 . S
H1959 C1971 0.950 . S
C1960 H1952 0.950 . S
C1960 C1961 1.386 . S
C1960 C1962 1.391 . S
C1961 C1960 1.386 . S
C1961 C1965 1.393 . S
C1962 H1954 0.950 . S
C1962 C1960 1.391 . S
C1962 C1963 1.400 . S
C1963 C1962 1.400 . S
C1963 C1964 1.398 . S
C1963 C1969 1.491 . S
C1964 H1955 0.950 . S
C1964 C1963 1.398 . S
C1964 C1965 1.391 . S
C1965 H1953 0.950 . S
C1965 C1961 1.393 . S
C1965 C1964 1.391 . S
C1966 H1956 0.950 . S
C1966 C1967 1.386 . S
C1966 C1968 1.391 . S
C1967 C1966 1.386 . S
C1967 C1971 1.393 . S
C1968 H1957 0.950 . S
C1968 C1966 1.391 . S
C1968 C1969 1.400 . S
C1969 C1963 1.491 . S
C1969 C1968 1.400 . S
C1969 C1970 1.398 . S
C1970 H1958 0.950 . S
C1970 C1969 1.398 . S
C1970 C1971 1.391 . S
C1971 H1959 0.950 . S
C1971 C1967 1.393 . S
C1971 C1970 1.391 . S
H1972 C1980 0.950 . S
H1973 C1985 0.950 . S
H1974 C1982 0.950 . S
H1975 C1984 0.950 . S
H1976 C1986 0.950 . S
H1977 C1988 0.950 . S
H1978 C1990 0.950 . S
H1979 C1991 0.950 . S
C1980 H1972 0.950 . S
C1980 C1981 1.386 . S
C1980 C1982 1.391 . S
C1981 C1980 1.386 . S
C1981 C1985 1.393 . S
C1982 H1974 0.950 . S
C1982 C1980 1.391 . S
C1982 C1983 1.400 . S
C1983 C1982 1.400 . S
C1983 C1984 1.398 . S
C1983 C1989 1.491 . S
C1984 H1975 0.950 . S
C1984 C1983 1.398 . S
C1984 C1985 1.391 . S
C1985 H1973 0.950 . S
C1985 C1981 1.393 . S
C1985 C1984 1.391 . S
C1986 H1976 0.950 . S
C1986 C1987 1.386 . S
C1986 C1988 1.391 . S
C1987 C1986 1.386 . S
C1987 C1991 1.393 . S
C1988 H1977 0.950 . S
C1988 C1986 1.391 . S
C1988 C1989 1.400 . S
C1989 C1983 1.491 . S
C1989 C1988 1.400 . S
C1989 C1990 1.398 . S
C1990 H1978 0.950 . S
C1990 C1989 1.398 . S
C1990 C1991 1.391 . S
C1991 H1979 0.950 . S
C1991 C1987 1.393 . S
C1991 C1990 1.391 . S
H1992 C2000 0.950 . S
H1993 C2005 0.950 . S
H1994 C2002 0.950 . S
H1995 C2004 0.950 . S
H1996 C2006 0.950 . S
H1997 C2008 0.950 . S
H1998 C2010 0.950 . S
H1999 C2011 0.950 . S
C2000 H1992 0.950 . S
C2000 C2001 1.386 . S
C2000 C2002 1.391 . S
C2001 C2000 1.386 . S
C2001 C2005 1.393 . S
C2002 H1994 0.950 . S
C2002 C2000 1.391 . S
C2002 C2003 1.400 . S
C2003 C2002 1.400 . S
C2003 C2004 1.398 . S
C2003 C2009 1.491 . S
C2004 H1995 0.950 . S
C2004 C2003 1.398 . S
C2004 C2005 1.391 . S
C2005 H1993 0.950 . S
C2005 C2001 1.393 . S
C2005 C2004 1.391 . S
C2006 H1996 0.950 . S
C2006 C2007 1.386 . S
C2006 C2008 1.391 . S
C2007 C2006 1.386 . S
C2007 C2011 1.393 . S
C2008 H1997 0.950 . S
C2008 C2006 1.391 . S
C2008 C2009 1.400 . S
C2009 C2003 1.491 . S
C2009 C2008 1.400 . S
C2009 C2010 1.398 . S
C2010 H1998 0.950 . S
C2010 C2009 1.398 . S
C2010 C2011 1.391 . S
C2011 H1999 0.950 . S
C2011 C2007 1.393 . S
C2011 C2010 1.391 . S
H2012 C2020 0.950 . S
H2013 C2025 0.950 . S
H2014 C2022 0.950 . S
H2015 C2024 0.950 . S
H2016 C2026 0.950 . S
H2017 C2028 0.950 . S
H2018 C2030 0.950 . S
H2019 C2031 0.950 . S
C2020 H2012 0.950 . S
C2020 C2021 1.409 . S
C2020 C2022 1.391 . S
C2021 C2020 1.409 . S
C2021 C2025 1.387 1_554 S
C2022 H2014 0.950 . S
C2022 C2020 1.391 . S
C2022 C2023 1.400 . S
C2023 C2022 1.400 . S
C2023 C2024 1.398 . S
C2023 C2029 1.491 . S
C2024 H2015 0.950 . S
C2024 C2023 1.398 . S
C2024 C2025 1.391 1_554 S
C2025 H2013 0.950 . S
C2025 C2021 1.387 1_556 S
C2025 C2024 1.391 1_556 S
C2026 H2016 0.950 . S
C2026 C2027 1.386 . S
C2026 C2028 1.391 . S
C2027 C2026 1.386 . S
C2027 C2031 1.393 . S
C2028 H2017 0.950 . S
C2028 C2026 1.391 . S
C2028 C2029 1.400 . S
C2029 C2023 1.491 . S
C2029 C2028 1.400 . S
C2029 C2030 1.398 . S
C2030 H2018 0.950 . S
C2030 C2029 1.398 . S
C2030 C2031 1.391 . S
C2031 H2019 0.950 . S
C2031 C2027 1.393 . S
C2031 C2030 1.391 . S
H2032 C2040 0.950 . S
H2033 C2045 0.950 . S
H2034 C2042 0.950 . S
H2035 C2044 0.950 . S
H2036 C2046 0.950 . S
H2037 C2048 0.950 . S
H2038 C2050 0.950 . S
H2039 C2051 0.950 . S
C2040 H2032 0.950 . S
C2040 C2041 1.386 . S
C2040 C2042 1.391 . S
C2041 C2040 1.386 . S
C2041 C2045 1.393 . S
C2042 H2034 0.950 . S
C2042 C2040 1.391 . S
C2042 C2043 1.400 . S
C2043 C2042 1.400 . S
C2043 C2044 1.398 . S
C2043 C2049 1.491 . S
C2044 H2035 0.950 . S
C2044 C2043 1.398 . S
C2044 C2045 1.391 . S
C2045 H2033 0.950 . S
C2045 C2041 1.393 . S
C2045 C2044 1.391 . S
C2046 H2036 0.950 . S
C2046 C2047 1.386 . S
C2046 C2048 1.391 . S
C2047 C2046 1.386 . S
C2047 C2051 1.393 . S
C2048 H2037 0.950 . S
C2048 C2046 1.391 . S
C2048 C2049 1.400 . S
C2049 C2043 1.491 . S
C2049 C2048 1.400 . S
C2049 C2050 1.398 . S
C2050 H2038 0.950 . S
C2050 C2049 1.398 . S
C2050 C2051 1.391 . S
C2051 H2039 0.950 . S
C2051 C2047 1.393 . S
C2051 C2050 1.391 . S
H2052 C2060 0.950 . S
H2053 C2065 0.950 . S
H2054 C2062 0.950 . S
H2055 C2064 0.950 . S
H2056 C2066 0.950 . S
H2057 C2068 0.950 . S
H2058 C2070 0.950 . S
H2059 C2071 0.950 . S
C2060 H2052 0.950 . S
C2060 C2061 1.386 . S
C2060 C2062 1.391 . S
C2061 C2060 1.386 . S
C2061 C2065 1.393 . S
C2062 H2054 0.950 . S
C2062 C2060 1.391 . S
C2062 C2063 1.400 . S
C2063 C2062 1.400 . S
C2063 C2064 1.398 . S
C2063 C2069 1.491 . S
C2064 H2055 0.950 . S
C2064 C2063 1.398 . S
C2064 C2065 1.391 . S
C2065 H2053 0.950 . S
C2065 C2061 1.393 . S
C2065 C2064 1.391 . S
C2066 H2056 0.950 . S
C2066 C2067 1.386 . S
C2066 C2068 1.391 . S
C2067 C2066 1.386 . S
C2067 C2071 1.393 . S
C2068 H2057 0.950 . S
C2068 C2066 1.391 . S
C2068 C2069 1.400 . S
C2069 C2063 1.491 . S
C2069 C2068 1.400 . S
C2069 C2070 1.398 . S
C2070 H2058 0.950 . S
C2070 C2069 1.398 . S
C2070 C2071 1.391 . S
C2071 H2059 0.950 . S
C2071 C2067 1.393 . S
C2071 C2070 1.391 . S
H2072 C2080 0.950 . S
H2073 C2085 0.950 . S
H2074 C2082 0.950 . S
H2075 C2084 0.950 . S
H2076 C2086 0.950 . S
H2077 C2088 0.950 . S
H2078 C2090 0.950 . S
H2079 C2091 0.950 . S
C2080 H2072 0.950 . S
C2080 C2081 1.386 . S
C2080 C2082 1.391 . S
C2081 C2080 1.386 . S
C2081 C2085 1.393 . S
C2082 H2074 0.950 . S
C2082 C2080 1.391 . S
C2082 C2083 1.400 . S
C2083 C2082 1.400 . S
C2083 C2084 1.398 . S
C2083 C2089 1.491 . S
C2084 H2075 0.950 . S
C2084 C2083 1.398 . S
C2084 C2085 1.391 . S
C2085 H2073 0.950 . S
C2085 C2081 1.393 . S
C2085 C2084 1.391 . S
C2086 H2076 0.950 . S
C2086 C2087 1.386 . S
C2086 C2088 1.391 . S
C2087 C2086 1.386 . S
C2087 C2091 1.393 . S
C2088 H2077 0.950 . S
C2088 C2086 1.391 . S
C2088 C2089 1.400 . S
C2089 C2083 1.491 . S
C2089 C2088 1.400 . S
C2089 C2090 1.398 . S
C2090 H2078 0.950 . S
C2090 C2089 1.398 . S
C2090 C2091 1.391 . S
C2091 H2079 0.950 . S
C2091 C2087 1.393 . S
C2091 C2090 1.391 . S
H2092 C2100 0.950 . S
H2093 C2105 0.950 . S
H2094 C2102 0.950 . S
H2095 C2104 0.950 . S
H2096 C2106 0.950 . S
H2097 C2108 0.950 . S
H2098 C2110 0.950 . S
H2099 C2111 0.950 . S
C2100 H2092 0.950 . S
C2100 C2101 1.386 . S
C2100 C2102 1.391 . S
C2101 C2100 1.386 . S
C2101 C2105 1.393 . S
C2102 H2094 0.950 . S
C2102 C2100 1.391 . S
C2102 C2103 1.400 . S
C2103 C2102 1.400 . S
C2103 C2104 1.398 . S
C2103 C2109 1.491 . S
C2104 H2095 0.950 . S
C2104 C2103 1.398 . S
C2104 C2105 1.391 . S
C2105 H2093 0.950 . S
C2105 C2101 1.393 . S
C2105 C2104 1.391 . S
C2106 H2096 0.950 . S
C2106 C2107 1.386 . S
C2106 C2108 1.391 . S
C2107 C2106 1.386 . S
C2107 C2111 1.393 . S
C2108 H2097 0.950 . S
C2108 C2106 1.391 . S
C2108 C2109 1.400 . S
C2109 C2103 1.491 . S
C2109 C2108 1.400 . S
C2109 C2110 1.398 . S
C2110 H2098 0.950 . S
C2110 C2109 1.398 . S
C2110 C2111 1.391 . S
C2111 H2099 0.950 . S
C2111 C2107 1.393 . S
C2111 C2110 1.391 . S
H2112 C2120 0.950 . S
H2113 C2125 0.950 . S
H2114 C2122 0.950 . S
H2115 C2124 0.950 . S
H2116 C2126 0.950 . S
H2117 C2128 0.950 . S
H2118 C2130 0.950 . S
H2119 C2131 0.950 . S
C2120 H2112 0.950 . S
C2120 C2121 1.415 . S
C2120 C2122 1.391 . S
C2121 C2120 1.415 . S
C2121 C2125 1.372 1_556 S
C2122 H2114 0.950 . S
C2122 C2120 1.391 . S
C2122 C2123 1.400 . S
C2123 C2122 1.400 . S
C2123 C2124 1.398 1_556 S
C2123 C2129 1.491 . S
C2124 H2115 0.950 . S
C2124 C2123 1.398 1_554 S
C2124 C2125 1.391 . S
C2125 H2113 0.950 . S
C2125 C2121 1.372 1_554 S
C2125 C2124 1.391 . S
C2126 H2116 0.950 . S
C2126 C2127 1.386 1_554 S
C2126 C2128 1.391 . S
C2127 C2126 1.386 1_556 S
C2127 C2131 1.393 . S
C2128 H2117 0.950 . S
C2128 C2126 1.391 . S
C2128 C2129 1.400 1_554 S
C2129 C2123 1.491 . S
C2129 C2128 1.400 1_556 S
C2129 C2130 1.398 . S
C2130 H2118 0.950 . S
C2130 C2129 1.398 . S
C2130 C2131 1.391 . S
C2131 H2119 0.950 . S
C2131 C2127 1.393 . S
C2131 C2130 1.391 . S
H2132 C2140 0.950 . S
H2133 C2145 0.950 . S
H2134 C2142 0.950 . S
H2135 C2144 0.950 . S
H2136 C2146 0.950 . S
H2137 C2148 0.950 . S
H2138 C2150 0.950 . S
H2139 C2151 0.950 . S
C2140 H2132 0.950 . S
C2140 C2141 1.386 . S
C2140 C2142 1.391 . S
C2141 C2140 1.386 . S
C2141 C2145 1.393 . S
C2142 H2134 0.950 . S
C2142 C2140 1.391 . S
C2142 C2143 1.400 . S
C2143 C2142 1.400 . S
C2143 C2144 1.398 . S
C2143 C2149 1.491 . S
C2144 H2135 0.950 . S
C2144 C2143 1.398 . S
C2144 C2145 1.391 . S
C2145 H2133 0.950 . S
C2145 C2141 1.393 . S
C2145 C2144 1.391 . S
C2146 H2136 0.950 . S
C2146 C2147 1.386 . S
C2146 C2148 1.391 . S
C2147 C2146 1.386 . S
C2147 C2151 1.393 . S
C2148 H2137 0.950 . S
C2148 C2146 1.391 . S
C2148 C2149 1.400 . S
C2149 C2143 1.491 . S
C2149 C2148 1.400 . S
C2149 C2150 1.398 . S
C2150 H2138 0.950 . S
C2150 C2149 1.398 . S
C2150 C2151 1.391 . S
C2151 H2139 0.950 . S
C2151 C2147 1.393 . S
C2151 C2150 1.391 . S
H2152 C2160 0.950 . S
H2153 C2165 0.950 . S
H2154 C2162 0.950 . S
H2155 C2164 0.950 . S
H2156 C2166 0.926 1_556 S
H2157 C2168 0.950 1_556 S
H2158 C2170 0.950 . S
H2159 C2171 0.950 . S
C2160 H2152 0.950 . S
C2160 C2161 1.386 . S
C2160 C2162 1.391 . S
C2161 C2160 1.386 . S
C2161 C2165 1.393 . S
C2162 H2154 0.950 . S
C2162 C2160 1.391 . S
C2162 C2163 1.400 . S
C2163 C2162 1.400 . S
C2163 C2164 1.398 . S
C2163 C2169 1.491 . S
C2164 H2155 0.950 . S
C2164 C2163 1.398 . S
C2164 C2165 1.391 . S
C2165 H2153 0.950 . S
C2165 C2161 1.393 . S
C2165 C2164 1.391 . S
C2166 H2156 0.926 1_554 S
C2166 C2167 1.399 . S
C2166 C2168 1.404 . S
C2167 C2166 1.399 . S
C2167 C2171 1.393 . S
C2168 H2157 0.950 1_554 S
C2168 C2166 1.404 . S
C2168 C2169 1.400 . S
C2169 C2163 1.491 . S
C2169 C2168 1.400 . S
C2169 C2170 1.398 . S
C2170 H2158 0.950 . S
C2170 C2169 1.398 . S
C2170 C2171 1.391 . S
C2171 H2159 0.950 . S
C2171 C2167 1.393 . S
C2171 C2170 1.391 . S
H2172 C2180 0.950 . S
H2173 C2185 0.950 . S
H2174 C2182 0.950 . S
H2175 C2184 0.950 . S
H2176 C2186 0.950 . S
H2177 C2188 0.950 1_545 S
H2178 C2190 0.950 . S
H2179 C2191 0.950 . S
C2180 H2172 0.950 . S
C2180 C2181 1.386 1_565 S
C2180 C2182 1.391 . S
C2181 C2180 1.386 1_545 S
C2181 C2185 1.393 . S
C2182 H2174 0.950 . S
C2182 C2180 1.391 . S
C2182 C2183 1.400 . S
C2183 C2182 1.400 . S
C2183 C2184 1.398 1_565 S
C2183 C2189 1.491 . S
C2184 H2175 0.950 . S
C2184 C2183 1.398 1_545 S
C2184 C2185 1.391 . S
C2185 H2173 0.950 . S
C2185 C2181 1.393 . S
C2185 C2184 1.391 . S
C2186 H2176 0.950 . S
C2186 C2187 1.386 . S
C2186 C2188 1.391 . S
C2187 C2186 1.386 . S
C2187 C2191 1.393 . S
C2188 H2177 0.950 1_565 S
C2188 C2186 1.391 . S
C2188 C2189 1.400 . S
C2189 C2183 1.491 . S
C2189 C2188 1.400 . S
C2189 C2190 1.398 . S
C2190 H2178 0.950 . S
C2190 C2189 1.398 . S
C2190 C2191 1.391 . S
C2191 H2179 0.950 . S
C2191 C2187 1.393 . S
C2191 C2190 1.391 . S
C1247 C225 1.579 . S
C1241 C60 1.583 . S
C1267 C284 1.302 . S
C1261 C76 1.291 . S
C1281 C81 1.720 . S
C1287 C401 1.718 . S
C1307 C469 1.618 . S
C1301 C48 1.630 . S
C1327 C548 1.523 . S
C1321 C115 1.520 . S
C1347 C673 1.584 . S
C1341 C136 1.592 . S
C1361 C131 1.329 . S
C1367 C733 1.326 . S
C1387 C841 1.587 . S
C1381 C104 1.576 . S
C1401 C126 1.543 . S
C1407 C937 1.547 . S
C1427 C997 1.426 . S
C1421 C103 1.430 . S
C1441 C120 1.416 . S
C1447 C900 1.423 . S
C1467 C1017 1.407 . S
C1461 C142 1.409 . S
C1481 C82 1.477 . S
C1487 C1085 1.481 . S
C1501 C54 1.871 . S
C1507 C1076 1.878 . S
C1521 C65 1.401 . S
C1527 C1105 1.410 . S
C1541 C71 1.251 . S
C1547 C1113 1.268 . S
C1561 C37 1.604 . S
C1567 C497 1.603 . S
C1581 C158 2.049 . S
C1587 C460 2.044 . S
C1607 C196 1.378 . S
C1601 C169 1.384 . S
C1627 C293 1.231 . S
C1621 C98 1.226 . S
C1641 C49 1.765 1_545 S
C1647 C557 1.784 . S
C1667 C849 1.418 . S
C1661 C125 1.418 . S
C1687 C577 1.386 . S
C1681 C109 1.391 . S
C1707 C761 1.844 . S
C1701 C137 1.834 . S
C1727 C753 1.576 . S
C1721 C159 1.583 . S
C1741 C175 1.290 . S
C1747 C821 1.300 . S
C1761 C92 1.717 . S
C1767 C585 1.715 . S
C1787 C636 1.619 . S
C1781 C147 1.631 . S
C1801 C38 1.520 . S
C1807 C381 1.520 . S
C1827 C489 1.585 . S
C1821 C4 1.593 . S
C1847 C205 1.333 . S
C1841 C21 1.333 . S
C1867 C321 1.589 . S
C1861 C27 1.577 . S
C1881 C16 1.550 . S
C1887 C1025 1.555 . S
C1901 C26 1.432 . S
C1907 C909 1.430 . S
C1921 C43 1.415 . S
C1927 C988 1.420 . S
C1941 C10 1.408 . S
C1947 C929 1.411 . S
C1967 C1173 1.481 . S
C1961 C93 1.477 . S
C1987 C1164 1.878 . S
C1981 C153 1.875 . S
C2007 C1193 1.412 . S
C2001 C164 1.407 . S
C2021 C170 1.252 1_554 S
C2027 C1201 1.271 . S
C2041 C114 1.603 . S
C2047 C665 1.600 . S
C2067 C645 2.042 . S
C2061 C59 2.050 . S
C2087 C724 1.386 . S
C2081 C70 1.389 . S
C2107 C812 1.221 . S
C2101 C87 1.210 . S
C2121 C148 1.772 . S
C2127 C372 1.789 . S
C2147 C313 1.421 . S
C2141 C15 1.422 . S
C2161 C32 1.394 . S
C2167 C409 1.383 . S
C2187 C233 1.846 . S
C2181 C5 1.840 . S
