# Generated by pormake.
# Topology zzz, (3,6)-cn, num edge types: 1
# Building blocks:
#     Node 0, Type 0, BuildingBlock: VETTIZ_charged_linker_0, # of connection points: 3
#     Node 1, Type 0, BuildingBlock: VETTIZ_charged_linker_0, # of connection points: 3
#     Node 2, Type 0, BuildingBlock: VETTIZ_charged_linker_0, # of connection points: 3
#     Node 3, Type 0, BuildingBlock: VETTIZ_charged_linker_0, # of connection points: 3
#     Node 4, Type 0, BuildingBlock: VETTIZ_charged_linker_0, # of connection points: 3
#     Node 5, Type 0, BuildingBlock: VETTIZ_charged_linker_0, # of connection points: 3
#     Node 6, Type 0, BuildingBlock: VETTIZ_charged_linker_0, # of connection points: 3
#     Node 7, Type 0, BuildingBlock: VETTIZ_charged_linker_0, # of connection points: 3
#     Node 8, Type 1, BuildingBlock: KUMJIN_clean_sbu_0, # of connection points: 6
#     Node 9, Type 1, BuildingBlock: KUMJIN_clean_sbu_0, # of connection points: 6
#     Node 10, Type 1, BuildingBlock: KUMJIN_clean_sbu_0, # of connection points: 6
#     Node 11, Type 1, BuildingBlock: KUMJIN_clean_sbu_0, # of connection points: 6
#     Edge 12, Type (0, 1), BuildingBlock: XIVTED_clean_linker_0, # of connection points: 2
#     Edge 13, Type (0, 1), BuildingBlock: XIVTED_clean_linker_0, # of connection points: 2
#     Edge 14, Type (0, 1), BuildingBlock: XIVTED_clean_linker_0, # of connection points: 2
#     Edge 15, Type (0, 1), BuildingBlock: XIVTED_clean_linker_0, # of connection points: 2
#     Edge 16, Type (0, 1), BuildingBlock: XIVTED_clean_linker_0, # of connection points: 2
#     Edge 17, Type (0, 1), BuildingBlock: XIVTED_clean_linker_0, # of connection points: 2
#     Edge 18, Type (0, 1), BuildingBlock: XIVTED_clean_linker_0, # of connection points: 2
#     Edge 19, Type (0, 1), BuildingBlock: XIVTED_clean_linker_0, # of connection points: 2
#     Edge 20, Type (0, 1), BuildingBlock: XIVTED_clean_linker_0, # of connection points: 2
#     Edge 21, Type (0, 1), BuildingBlock: XIVTED_clean_linker_0, # of connection points: 2
#     Edge 22, Type (0, 1), BuildingBlock: XIVTED_clean_linker_0, # of connection points: 2
#     Edge 23, Type (0, 1), BuildingBlock: XIVTED_clean_linker_0, # of connection points: 2
#     Edge 24, Type (0, 1), BuildingBlock: XIVTED_clean_linker_0, # of connection points: 2
#     Edge 25, Type (0, 1), BuildingBlock: XIVTED_clean_linker_0, # of connection points: 2
#     Edge 26, Type (0, 1), BuildingBlock: XIVTED_clean_linker_0, # of connection points: 2
#     Edge 27, Type (0, 1), BuildingBlock: XIVTED_clean_linker_0, # of connection points: 2
#     Edge 28, Type (0, 1), BuildingBlock: XIVTED_clean_linker_0, # of connection points: 2
#     Edge 29, Type (0, 1), BuildingBlock: XIVTED_clean_linker_0, # of connection points: 2
#     Edge 30, Type (0, 1), BuildingBlock: XIVTED_clean_linker_0, # of connection points: 2
#     Edge 31, Type (0, 1), BuildingBlock: XIVTED_clean_linker_0, # of connection points: 2
#     Edge 32, Type (0, 1), BuildingBlock: XIVTED_clean_linker_0, # of connection points: 2
#     Edge 33, Type (0, 1), BuildingBlock: XIVTED_clean_linker_0, # of connection points: 2
#     Edge 34, Type (0, 1), BuildingBlock: XIVTED_clean_linker_0, # of connection points: 2
#     Edge 35, Type (0, 1), BuildingBlock: XIVTED_clean_linker_0, # of connection points: 2
# Relax obj value: 0.304
# Max RMSD: 0.228
# Mean RMSD: 0.215
data_MOF--net-zzz--node1-KUMJIN_clean_sbu_0--node2-VETTIZ_charged_linker_0--edge1-XIVTED_clean_linker_0
_symmetry_space_group_name_H-M    P1
_symmetry_Int_Tables_number       1
_symmetry_cell_setting            triclinic
loop_
_symmetry_equiv_pos_as_xyz
'x, y, z'
_cell_length_a     56.94402
_cell_length_b     56.931816
_cell_length_c     19.960054
_cell_angle_alpha  90.713004
_cell_angle_beta   90.126956
_cell_angle_gamma 89.969102
loop_
_atom_site_label
_atom_site_type_symbol
_atom_site_fract_x
_atom_site_fract_y
_atom_site_fract_z
_atom_type_partial_charge
C0 C 0.80411 0.5355 0.26808 0.0
C1 C 0.82639 0.54415 0.29011 0.0
C2 C 0.83683 0.56242 0.25429 0.0
C3 C 0.80448 0.56297 0.1753 0.0
C4 C 0.79326 0.5455 0.21037 0.0
C5 C 0.76922 0.54022 0.17869 0.0
H6 H 0.69659 0.56048 0.9054 0.0
C7 C 0.79005 0.56937 0.11663 0.0
C8 C 0.76898 0.55636 0.11723 0.0
H9 H 0.67783 0.51864 0.07622 0.0
H10 H 0.71649 0.52663 0.12617 0.0
H11 H 0.71543 0.60268 0.99008 0.0
H12 H 0.74784 0.54384 0.89068 0.0
H13 H 0.76703 0.56743 0.87873 0.0
H14 H 0.73751 0.56896 0.84605 0.0
H15 H 0.71848 0.60067 0.90076 0.0
H16 H 0.74099 0.61367 0.953 0.0
C17 C 0.75 0.54716 0.22931 0.0
C18 C 0.76804 0.51412 0.15808 0.0
C19 C 0.82821 0.62095 0.94333 0.0
C20 C 0.82246 0.62606 0.87646 0.0
C21 C 0.79938 0.62155 0.85406 0.0
C22 C 0.7832 0.61006 0.89539 0.0
C23 C 0.79022 0.60279 0.95968 0.0
C24 C 0.81214 0.60902 0.98318 0.0
C25 C 0.81745 0.59869 0.05031 0.0
C26 C 0.7953 0.58457 0.06283 0.0
C27 C 0.77943 0.5871 1.00998 0.0
C28 C 0.8201 0.61937 0.10128 0.0
C29 C 0.8395 0.5827 0.0425 0.0
C30 C 0.7001 0.5533 0.95434 0.0
C31 C 0.6834 0.53935 0.98679 0.0
C32 C 0.69004 0.5296 0.04934 0.0
C33 C 0.71243 0.53441 0.07877 0.0
C34 C 0.72841 0.54931 0.04592 0.0
C35 C 0.72169 0.55839 0.9847 0.0
C36 C 0.73953 0.57451 0.95587 0.0
C37 C 0.75813 0.57431 1.00976 0.0
C38 C 0.75231 0.55917 0.063 0.0
C39 C 0.72815 0.59918 0.9489 0.0
C40 C 0.74844 0.56336 0.88916 0.0
H41 H 0.83555 0.58549 0.17368 0.0
H42 H 0.79538 0.52171 0.29531 0.0
H43 H 0.7831 0.50944 0.12516 0.0
H44 H 0.75176 0.51 0.13012 0.0
H45 H 0.76871 0.50276 0.20292 0.0
H46 H 0.75291 0.56536 0.24841 0.0
H47 H 0.75016 0.53515 0.27278 0.0
H48 H 0.73232 0.54677 0.20664 0.0
H49 H 0.84582 0.62367 0.96246 0.0
H50 H 0.79431 0.62551 0.8031 0.0
H51 H 0.7663 0.60619 0.87416 0.0
H52 H 0.80955 0.63489 0.08607 0.0
H53 H 0.83867 0.62515 0.10559 0.0
H54 H 0.81336 0.61503 0.15164 0.0
H55 H 0.84064 0.57501 0.99107 0.0
H56 H 0.83924 0.56722 0.07525 0.0
H57 H 0.85593 0.59272 0.05188 0.0
H58 H 0.85373 0.56942 0.26975 0.0
C59 C 0.82612 0.5718 0.19798 0.0
C60 C 0.90047 0.79085 0.89635 0.0
C61 C 0.89834 0.8153 0.88813 0.0
C62 C 0.899 0.82971 0.94632 0.0
C63 C 0.91293 0.79694 0.01134 0.0
C64 C 0.90884 0.78215 0.95736 0.0
C65 C 0.91808 0.75777 0.96892 0.0
H66 H 0.00739 0.69594 0.04304 0.0
C67 C 0.92786 0.78439 0.05994 0.0
C68 C 0.93044 0.76128 0.03677 0.0
H69 H 0.93986 0.67204 0.96795 0.0
H70 H 0.92143 0.70632 0.01909 0.0
H71 H 1.00562 0.75653 0.03409 0.0
H72 H 0.97241 0.71848 0.19642 0.0
H73 H 0.99287 0.74091 0.21933 0.0
H74 H 1.00323 0.71442 0.17976 0.0
H75 H 0.02274 0.73659 0.0839 0.0
H76 H 0.01374 0.7645 0.11839 0.0
C77 C 0.93562 0.75129 0.91232 0.0
C78 C 0.89693 0.74068 0.97116 0.0
C79 C 0.96629 0.8332 0.24233 0.0
C80 C 0.9856 0.83084 0.28537 0.0
C81 C 0.99943 0.81013 0.27817 0.0
C82 C 0.99336 0.79206 0.23081 0.0
C83 C 0.97339 0.79471 0.18951 0.0
C84 C 0.96072 0.81545 0.19552 0.0
C85 C 0.9418 0.8174 0.144 0.0
C86 C 0.94286 0.79328 0.11128 0.0
C87 C 0.96163 0.77959 0.13645 0.0
C88 C 0.94889 0.83739 0.0953 0.0
C89 C 0.91803 0.82139 0.18003 0.0
C90 C 0.98878 0.69852 0.03505 0.0
C91 C 0.9755 0.68217 0.99474 0.0
C92 C 0.9509 0.6851 0.99236 0.0
C93 C 0.94021 0.7051 0.01919 0.0
C94 C 0.95416 0.72297 0.04597 0.0
C95 C 0.9772 0.71887 0.06223 0.0
C96 C 0.98553 0.7384 0.11105 0.0
C97 C 0.96471 0.75595 0.1101 0.0
C98 C 0.9474 0.74661 0.06696 0.0
C99 C 0.00825 0.74967 0.08546 0.0
C100 C 0.98876 0.72754 0.18066 0.0
H101 H 0.90676 0.83241 0.04991 0.0
H102 H 0.89826 0.77897 0.85411 0.0
H103 H 0.88108 0.74798 0.94624 0.0
H104 H 0.89192 0.7367 0.02359 0.0
H105 H 0.90066 0.72404 0.94364 0.0
H106 H 0.9501 0.76436 0.91028 0.0
H107 H 0.92675 0.75069 0.86275 0.0
H108 H 0.94353 0.73377 0.91899 0.0
H109 H 0.95587 0.84913 0.24348 0.0
H110 H 0.01475 0.8078 0.30958 0.0
H111 H 1.00451 0.77687 0.22668 0.0
H112 H 0.96721 0.84363 0.10342 0.0
H113 H 0.9374 0.85303 0.10148 0.0
H114 H 0.94856 0.83154 0.04215 0.0
H115 H 0.91655 0.80983 0.22435 0.0
H116 H 0.90278 0.81704 0.14782 0.0
H117 H 0.91628 0.83988 0.19777 0.0
H118 H 0.89666 0.84852 0.94367 0.0
C119 C 0.90574 0.82047 1.00813 0.0
C120 C 0.81431 0.98744 0.04685 0.0
C121 C 0.83053 0.97462 1.0059 0.0
C122 C 0.82655 0.95045 0.99487 0.0
C123 C 0.78932 0.95308 0.05143 0.0
C124 C 0.79395 0.97581 0.07135 0.0
C125 C 0.77567 0.98381 0.12337 0.0
H126 H 0.67517 0.95034 0.29638 0.0
C127 C 0.76749 0.94528 0.08141 0.0
C128 C 0.75968 0.962 0.12847 0.0
H129 H 0.70939 0.0177 0.31452 0.0
H130 H 0.73936 1.00475 0.2339 0.0
H131 H 0.66868 0.94319 0.17713 0.0
H132 H 0.72292 0.91695 0.28728 0.0
H133 H 0.71464 0.89591 0.22556 0.0
H134 H 0.69243 0.90921 0.27784 0.0
H135 H 0.67412 0.91319 0.16315 0.0
H136 H 0.68495 0.93485 0.10521 0.0
C137 C 0.76227 1.00511 0.09588 0.0
C138 C 0.78822 0.98931 0.19008 0.0
C139 C 0.71118 0.89602 0.94694 0.0
C140 C 0.68988 0.88507 0.96522 0.0
C141 C 0.68675 0.87906 0.03315 0.0
C142 C 0.7019 0.88803 0.08262 0.0
C143 C 0.72004 0.90308 0.0636 0.0
C144 C 0.72624 0.90451 0.99727 0.0
C145 C 0.74866 0.91811 0.98864 0.0
C146 C 0.75309 0.9264 0.06106 0.0
C147 C 0.73454 0.91974 0.10235 0.0
C148 C 0.74461 0.9391 0.94167 0.0
C149 C 0.7675 0.90128 0.96018 0.0
C150 C 0.68927 0.96234 0.28446 0.0
C151 C 0.68987 0.98493 0.31326 0.0
C152 C 0.70833 1.0001 0.29357 0.0
C153 C 0.72576 0.99258 0.24694 0.0
C154 C 0.72456 0.96982 0.21842 0.0
C155 C 0.70611 0.95542 0.237 0.0
C156 C 0.70574 0.93252 0.19938 0.0
C157 C 0.72731 0.93505 0.15535 0.0
C158 C 0.73887 0.95682 0.16676 0.0
C159 C 0.68234 0.93074 0.15894 0.0
C160 C 0.70899 0.91247 0.25009 0.0
H161 H 0.8049 0.92078 0.01533 0.0
H162 H 0.81764 1.00563 0.06014 0.0
H163 H 0.79932 0.97419 0.20522 0.0
H164 H 0.77568 0.99273 0.23113 0.0
H165 H 0.79974 1.00495 0.18521 0.0
H166 H 0.75498 1.00098 0.04537 0.0
H167 H 0.77416 0.02049 0.09144 0.0
H168 H 0.74739 0.01021 0.12831 0.0
H169 H 0.71502 0.90007 0.89538 0.0
H170 H 0.67156 0.86909 0.04871 0.0
H171 H 0.69852 0.88396 0.13407 0.0
H172 H 0.73015 0.95048 0.9607 0.0
H173 H 0.74005 0.93299 0.89021 0.0
H174 H 0.76072 0.94997 0.93787 0.0
H175 H 0.7599 0.88916 0.9218 0.0
H176 H 0.77529 0.8904 1.0004 0.0
H177 H 0.78147 0.91097 0.93361 0.0
H178 H 0.83919 0.93987 0.96737 0.0
C179 C 0.80636 0.93958 0.01898 0.0
C180 C 0.54179 0.72133 0.29145 0.0
C181 C 0.5505 0.69976 0.31692 0.0
C182 C 0.57025 0.6895 0.28642 0.0
C183 C 0.57169 0.72036 0.20435 0.0
C184 C 0.55309 0.73161 0.23532 0.0
C185 C 0.54795 0.75497 0.20124 0.0
H186 H 0.57589 0.82753 0.93742 0.0
C187 C 0.57907 0.73401 0.14571 0.0
C188 C 0.56579 0.75488 0.14345 0.0
H189 H 0.52359 0.84233 0.08832 0.0
H190 H 0.53328 0.80536 0.14381 0.0
H191 H 0.61617 0.80603 0.03172 0.0
H192 H 0.5599 0.77908 0.911 0.0
H193 H 0.58039 0.75618 0.91057 0.0
H194 H 0.5883 0.78425 0.87601 0.0
H195 H 0.6153 0.80654 0.94181 0.0
H196 H 0.62728 0.78182 0.98587 0.0
C197 C 0.55277 0.77505 0.25185 0.0
C198 C 0.52246 0.75477 0.17529 0.0
C199 C 0.62864 0.69254 0.97129 0.0
C200 C 0.63335 0.69787 0.90397 0.0
C201 C 0.63147 0.72143 0.88375 0.0
C202 C 0.62219 0.73861 0.92732 0.0
C203 C 0.61427 0.73204 0.99124 0.0
C204 C 0.61863 0.70961 0.01326 0.0
C205 C 0.60804 0.70516 0.08081 0.0
C206 C 0.59504 0.72812 0.0936 0.0
C207 C 0.59886 0.74376 0.04135 0.0
C208 C 0.6285 0.70157 0.13133 0.0
C209 C 0.59099 0.68394 0.07361 0.0
C210 C 0.56631 0.82305 0.9823 0.0
C211 C 0.54874 0.83794 1.00752 0.0
C212 C 0.53726 0.83127 0.06735 0.0
C213 C 0.54284 0.80978 0.09943 0.0
C214 C 0.56015 0.79481 0.07166 0.0
C215 C 0.57144 0.8019 0.01392 0.0
C216 C 0.58823 0.78401 0.98715 0.0
C217 C 0.58639 0.76527 0.0397 0.0
C218 C 0.56983 0.77117 0.08992 0.0
C219 C 0.61309 0.79508 0.98598 0.0
C220 C 0.57897 0.77544 0.91754 0.0
H221 H 0.59554 0.69046 0.21036 0.0
H222 H 0.52692 0.72994 0.31485 0.0
H223 H 0.51912 0.73866 0.14469 0.0
H224 H 0.51866 0.76993 0.1431 0.0
H225 H 0.50986 0.75505 0.21771 0.0
H226 H 0.57028 0.77275 0.27569 0.0
H227 H 0.53931 0.77528 0.29207 0.0
H228 H 0.55294 0.7924 0.22795 0.0
H229 H 0.6298 0.67468 0.98898 0.0
H230 H 0.63544 0.7262 0.83264 0.0
H231 H 0.62018 0.75597 0.90791 0.0
H232 H 0.64541 0.70868 0.11248 0.0
H233 H 0.63135 0.68266 0.14169 0.0
H234 H 0.62548 0.71112 0.17933 0.0
H235 H 0.58104 0.68482 0.02566 0.0
H236 H 0.57741 0.68328 0.11269 0.0
H237 H 0.60073 0.66703 0.07385 0.0
H238 H 0.57736 0.67312 0.30489 0.0
C239 C 0.58085 0.69964 0.23116 0.0
C240 C 0.32631 0.48601 0.2293 0.0
C241 C 0.34145 0.47361 0.27397 0.0
C242 C 0.33729 0.44942 0.28303 0.0
C243 C 0.30087 0.45193 0.22247 0.0
C244 C 0.30607 0.47437 0.20266 0.0
C245 C 0.2882 0.48216 0.14961 0.0
H246 H 0.18608 0.45006 0.97875 0.0
C247 C 0.27863 0.44444 0.19327 0.0
C248 C 0.27123 0.46101 0.14603 0.0
H249 H 0.22457 0.51418 0.94771 0.0
H250 H 0.25324 0.50246 0.03372 0.0
H251 H 0.22972 0.41421 0.99511 0.0
H252 H 0.18114 0.45196 0.10898 0.0
H253 H 0.19486 0.43772 0.17624 0.0
H254 H 0.17969 0.42098 0.11182 0.0
H255 H 0.19906 0.40868 1.00925 0.0
H256 H 0.22139 0.39602 0.062 0.0
C257 C 0.30111 0.48568 0.08285 0.0
C258 C 0.27572 0.50461 0.17429 0.0
C259 C 0.2242 0.39611 0.33422 0.0
C260 C 0.2009 0.38874 0.32165 0.0
C261 C 0.19381 0.38563 0.25412 0.0
C262 C 0.2079 0.39353 0.20181 0.0
C263 C 0.22879 0.40535 0.21706 0.0
C264 C 0.23778 0.40459 0.28106 0.0
C265 C 0.26167 0.41588 0.28527 0.0
C266 C 0.26354 0.42634 0.21478 0.0
C267 C 0.24344 0.42123 0.17722 0.0
C268 C 0.27986 0.39639 0.29996 0.0
C269 C 0.26177 0.43522 0.34029 0.0
C270 C 0.2009 0.46152 0.98876 0.0
C271 C 0.20319 0.48275 0.95468 0.0
C272 C 0.22236 0.49752 0.97249 0.0
C273 C 0.23905 0.49067 0.022 0.0
C274 C 0.23637 0.46902 0.05497 0.0
C275 C 0.2171 0.45528 0.0383 0.0
C276 C 0.21486 0.434 0.08075 0.0
C277 C 0.23669 0.43616 0.12396 0.0
C278 C 0.24978 0.45661 0.10922 0.0
C279 C 0.21616 0.41196 0.03459 0.0
C280 C 0.19157 0.43609 0.12157 0.0
H281 H 0.31594 0.41981 0.25895 0.0
H282 H 0.32984 0.50411 0.2168 0.0
H283 H 0.26799 0.50185 0.2247 0.0
H284 H 0.2613 0.50969 0.14034 0.0
H285 H 0.28831 0.51948 0.17796 0.0
H286 H 0.31146 0.46974 0.06942 0.0
H287 H 0.3134 0.50079 0.08669 0.0
H288 H 0.28883 0.48889 0.04114 0.0
H289 H 0.23098 0.3971 0.38483 0.0
H290 H 0.17648 0.37927 0.24114 0.0
H291 H 0.20144 0.39144 0.15167 0.0
H292 H 0.27203 0.38177 0.32882 0.0
H293 H 0.2944 0.40298 0.33212 0.0
H294 H 0.28704 0.38871 0.25281 0.0
H295 H 0.24786 0.44847 0.33058 0.0
H296 H 0.2789 0.44442 0.34248 0.0
H297 H 0.25874 0.42763 0.39051 0.0
H298 H 0.34957 0.43876 0.31099 0.0
C299 C 0.31746 0.43852 0.25607 0.0
C300 C 0.12465 0.22683 0.34644 0.0
C301 C 0.12865 0.20237 0.34665 0.0
C302 C 0.12841 0.19029 0.28426 0.0
C303 C 0.11184 0.22436 0.23078 0.0
C304 C 0.11551 0.2373 0.28863 0.0
C305 C 0.1058 0.26182 0.28343 0.0
H306 H 0.0164 0.32694 0.21445 0.0
C307 C 0.09622 0.23791 0.18641 0.0
C308 C 0.09316 0.26015 0.21541 0.0
H309 H 0.0836 0.34839 0.29744 0.0
H310 H 0.10169 0.3142 0.24566 0.0
H311 H 0.05063 0.30552 0.06274 0.0
H312 H 0.01766 0.26572 0.22195 0.0
H313 H 0.00932 0.25853 0.13743 0.0
H314 H 1.00051 0.28617 0.17396 0.0
H315 H 0.0198 0.30922 0.07988 0.0
H316 H 0.03028 0.28325 0.0377 0.0
C317 C 0.12673 0.27923 0.28467 0.0
C318 C 0.08845 0.2664 0.34177 0.0
C319 C 0.05577 0.19197 1.00155 0.0
C320 C 0.03551 0.19457 0.96233 0.0
C321 C 0.02165 0.21504 0.974 0.0
C322 C 0.02846 0.23255 0.02223 0.0
C323 C 0.04922 0.22958 0.06003 0.0
C324 C 0.06204 0.20914 0.04939 0.0
C325 C 0.08201 0.20671 0.09732 0.0
C326 C 0.0809 0.23003 0.13452 0.0
C327 C 0.06158 0.24388 0.11383 0.0
C328 C 0.10507 0.2044 0.05669 0.0
C329 C 0.07664 0.18538 0.14319 0.0
C330 C 0.03483 0.32377 0.22416 0.0
C331 C 0.04804 0.33951 0.26649 0.0
C332 C 0.07249 0.33579 0.27141 0.0
C333 C 0.08296 0.31574 0.24419 0.0
C334 C 0.06897 0.29851 0.21428 0.0
C335 C 0.04615 0.30331 0.1968 0.0
C336 C 0.03767 0.28449 0.14605 0.0
C337 C 0.05837 0.26682 0.14487 0.0
C338 C 0.07567 0.27525 0.18956 0.0
C339 C 0.03433 0.29619 0.07763 0.0
C340 C 0.01495 0.27305 0.17115 0.0
H341 H 0.1199 0.19105 0.18105 0.0
H342 H 0.12646 0.23721 0.39187 0.0
H343 H 0.07417 0.25308 0.34126 0.0
H344 H 0.08027 0.28396 0.33901 0.0
H345 H 0.09755 0.26573 0.39095 0.0
H346 H 0.14278 0.27144 0.3072 0.0
H347 H 0.12294 0.29495 0.31625 0.0
H348 H 0.13147 0.28481 0.23328 0.0
H349 H 0.06636 0.17622 0.99704 0.0
H350 H 1.00567 0.21759 0.94554 0.0
H351 H 0.01726 0.24756 0.02964 0.0
H352 H 0.10508 0.21674 0.0139 0.0
H353 H 0.10722 0.18632 0.03605 0.0
H354 H 0.12081 0.20897 0.08671 0.0
H355 H 0.05863 0.17823 0.13563 0.0
H356 H 0.07726 0.19018 0.19714 0.0
H357 H 0.08889 0.17055 0.13348 0.0
H358 H 0.13208 0.1717 0.28048 0.0
C359 C 0.12049 0.20135 0.22624 0.0
C360 C 0.31228 0.04462 0.9766 0.0
C361 C 0.33282 0.05559 0.95055 0.0
C362 C 0.33924 0.07776 0.9766 0.0
C363 C 0.30781 0.07657 0.05761 0.0
C364 C 0.29955 0.05596 0.02941 0.0
C365 C 0.27615 0.04924 0.06178 0.0
H366 H 0.19306 0.08018 0.30224 0.0
C367 C 0.29257 0.08376 0.11355 0.0
C368 C 0.27292 0.06875 0.11528 0.0
H369 H 0.18853 0.02018 0.16921 0.0
H370 H 0.22641 0.03076 0.11898 0.0
H371 H 0.23829 0.06964 0.34777 0.0
H372 H 0.21646 0.1189 0.20264 0.0
H373 H 0.23783 0.13268 0.25406 0.0
H374 H 0.21184 0.12052 0.29162 0.0
H375 H 0.23601 0.09994 0.37002 0.0
H376 H 0.26342 0.0872 0.34209 0.0
C377 C 0.27867 0.02489 0.09367 0.0
C378 C 0.25675 0.04996 1.00802 0.0
C379 C 0.32873 0.13029 0.30347 0.0
C380 C 0.32015 0.13605 0.36781 0.0
C381 C 0.29561 0.13731 0.37687 0.0
C382 C 0.28026 0.12934 0.3265 0.0
C383 C 0.28954 0.11979 0.26693 0.0
C384 C 0.31318 0.12202 0.25411 0.0
C385 C 0.31969 0.11244 0.18603 0.0
C386 C 0.29663 0.10057 0.16537 0.0
C387 C 0.27923 0.10481 0.21336 0.0
C388 C 0.33999 0.09453 0.19365 0.0
C389 C 0.32608 0.1336 0.14108 0.0
C390 C 0.1998 0.06957 0.26109 0.0
C391 C 0.1874 0.04977 0.23865 0.0
C392 C 0.19756 0.0358 0.18702 0.0
C393 C 0.21945 0.04198 0.15776 0.0
C394 C 0.23163 0.06205 0.18137 0.0
C395 C 0.22169 0.07502 0.23334 0.0
C396 C 0.23768 0.09372 0.25995 0.0
C397 C 0.25827 0.09135 0.21249 0.0
C398 C 0.25501 0.0729 0.16521 0.0
C399 C 0.24419 0.08752 0.3336 0.0
C400 C 0.22536 0.1178 0.25221 0.0
H401 H 0.33233 0.10525 0.04531 0.0
H402 H 0.30625 0.02801 0.956 0.0
H403 H 0.25704 0.06707 0.98175 0.0
H404 H 0.23907 0.04801 0.02969 0.0
H405 H 0.25937 0.03575 0.97009 0.0
H406 H 0.29426 0.02449 0.12729 0.0
H407 H 0.28094 0.01106 0.05445 0.0
H408 H 0.26324 0.02035 0.12428 0.0
H409 H 0.34737 0.12982 0.29357 0.0
H410 H 0.28833 0.14278 0.42464 0.0
H411 H 0.26184 0.12972 0.33724 0.0
H412 H 0.33534 0.08094 0.23091 0.0
H413 H 0.35639 0.10336 0.21046 0.0
H414 H 0.34427 0.08531 0.14638 0.0
H415 H 0.32519 0.15076 0.16827 0.0
H416 H 0.3138 0.13513 0.09801 0.0
H417 H 0.34433 0.13218 0.12181 0.0
H418 H 0.35446 0.08689 0.95745 0.0
C419 C 0.32672 0.08831 0.0287 0.0
C420 C 0.47872 0.30937 0.97214 0.0
C421 C 0.46948 0.33082 0.94757 0.0
C422 C 0.44969 0.34063 0.97913 0.0
C423 C 0.4493 0.30952 0.06052 0.0
C424 C 0.4679 0.29871 0.02834 0.0
C425 C 0.47371 0.27537 0.06142 0.0
H426 H 0.44686 0.19876 0.31653 0.0
C427 C 0.4426 0.29555 0.1192 0.0
C428 C 0.45624 0.27493 0.12 0.0
H429 H 0.49961 0.18778 0.16489 0.0
H430 H 0.49009 0.22589 0.11597 0.0
H431 H 0.4634 0.24715 0.34975 0.0
H432 H 0.4058 0.22378 0.22766 0.0
H433 H 0.39574 0.24654 0.28138 0.0
H434 H 0.40799 0.22032 0.31682 0.0
H435 H 0.43502 0.24222 0.38521 0.0
H436 H 0.44344 0.27055 0.35325 0.0
C437 C 0.49936 0.2761 0.08617 0.0
C438 C 0.46899 0.2554 1.01032 0.0
C439 C 0.39338 0.33544 0.29704 0.0
C440 C 0.38931 0.32998 0.36458 0.0
C441 C 0.39214 0.30647 0.38468 0.0
C442 C 0.40152 0.28955 0.34038 0.0
C443 C 0.40858 0.29631 0.27583 0.0
C444 C 0.40352 0.31868 0.25439 0.0
C445 C 0.41352 0.32354 0.1864 0.0
C446 C 0.42693 0.30092 0.17245 0.0
C447 C 0.42376 0.28499 0.22442 0.0
C448 C 0.43014 0.34512 0.19309 0.0
C449 C 0.39266 0.32679 0.13707 0.0
C450 C 0.45604 0.20429 0.27189 0.0
C451 C 0.47351 0.19004 0.24357 0.0
C452 C 0.4858 0.19836 0.18712 0.0
C453 C 0.48021 0.2204 0.15873 0.0
C454 C 0.46246 0.23446 0.1879 0.0
C455 C 0.45109 0.22624 0.24434 0.0
C456 C 0.43464 0.24393 0.27429 0.0
C457 C 0.43636 0.26351 0.22402 0.0
C458 C 0.45271 0.25827 0.17275 0.0
C459 C 0.4444 0.25134 0.34431 0.0
C460 C 0.40968 0.23316 0.27565 0.0
H461 H 0.42486 0.33899 0.05641 0.0
H462 H 0.49366 0.30113 0.948 0.0
H463 H 0.45138 0.25758 0.98695 0.0
H464 H 0.46904 0.23794 0.03357 0.0
H465 H 0.48232 0.25548 0.96976 0.0
H466 H 0.5027 0.29254 0.11532 0.0
H467 H 0.51174 0.27555 0.04322 0.0
H468 H 0.50355 0.2614 0.11964 0.0
H469 H 0.39157 0.35326 0.27944 0.0
H470 H 0.38871 0.30159 0.436 0.0
H471 H 0.40412 0.27221 0.3594 0.0
H472 H 0.44039 0.34438 0.24055 0.0
H473 H 0.42004 0.36181 0.19354 0.0
H474 H 0.44347 0.34614 0.1534 0.0
H475 H 0.37609 0.31908 0.15647 0.0
H476 H 0.39563 0.31758 0.08853 0.0
H477 H 0.38918 0.34567 0.1277 0.0
H478 H 0.44221 0.35695 0.96152 0.0
C479 C 0.43959 0.33014 0.03465 0.0
Eu480 Eu 0.02789 1.00306 0.68385 0.0
C481 C 0.94704 0.99272 0.48482 0.0
C482 C 0.96506 0.96965 0.39643 0.0
C483 C 0.92366 0.96451 0.42079 0.0
C484 C 0.96671 0.98652 0.44879 0.0
C485 C 0.92507 0.98244 0.46955 0.0
C486 C 0.94366 0.95811 0.38426 0.0
C487 C 0.907 0.0107 0.54421 0.0
N488 N 0.94895 0.01034 0.53065 0.0
C489 C 0.92913 0.0204 0.55699 0.0
C490 C 0.90501 0.99126 0.5014 0.0
Eu491 Eu 0.98735 0.0246 0.55647 0.0
N492 N 0.98708 0.99808 0.46193 0.0
C493 C 1.00586 0.995 0.41982 0.0
C494 C 0.98475 0.96539 0.35648 0.0
C495 C 1.00506 0.9785 0.36736 0.0
H496 H 0.93052 0.03562 0.58969 0.0
H497 H 0.02024 0.97578 0.33567 0.0
H498 H 0.94221 0.94482 0.34513 0.0
H499 H 0.89151 0.01829 0.56718 0.0
H500 H 0.02193 1.0046 0.42645 0.0
H501 H 1.00305 0.05579 0.90772 0.0
H502 H 0.98422 0.95254 0.31598 0.0
H503 H 0.08268 0.98635 0.64413 0.0
H504 H 0.99709 0.02676 0.81994 0.0
H505 H 0.12352 0.99969 0.66195 0.0
H506 H 0.90703 0.95615 0.40914 0.0
H507 H 0.04145 0.07529 0.92175 0.0
H508 H 0.08354 0.07832 0.88792 0.0
H509 H 0.88783 0.98386 0.49105 0.0
H510 H 0.11649 0.06311 0.82082 0.0
N511 N 0.0318 0.02947 0.77863 0.0
C512 C 0.01412 0.03471 0.82307 0.0
C513 C 0.03904 0.06236 0.88205 0.0
C514 C 0.05758 0.05581 0.84021 0.0
C515 C 0.01738 0.05137 0.87431 0.0
C516 C 0.05347 0.03892 0.78896 0.0
H517 H 0.13165 0.03345 0.73767 0.0
N518 N 0.06775 0.01297 0.70656 0.0
C519 C 0.1092 0.00867 0.68704 0.0
C520 C 0.07199 0.03047 0.7514 0.0
C521 C 0.08608 1.0012 0.67705 0.0
C522 C 0.1137 0.02776 0.72961 0.0
C523 C 0.09508 0.03855 0.76369 0.0
O524 O 0.04814 0.97482 0.73039 0.0
O525 O 1.00454 0.99218 0.59712 0.0
O526 O 0.96437 0.00965 0.63988 0.0
O527 O 0.9908 1.00451 0.7278 0.0
O528 O 0.03847 0.97902 0.5979 0.0
O529 O 0.01052 0.97417 0.73507 0.0
O530 O 0.96539 0.05473 0.53159 0.0
O531 O 0.01177 0.03549 0.64076 0.0
O532 O 0.05113 0.01669 0.59972 0.0
O533 O 0.02494 0.02928 0.51781 0.0
O534 O 0.97882 0.0508 0.63954 0.0
O535 O 0.99744 0.04853 0.47682 0.0
C536 C 0.01854 0.97805 0.5673 0.0
C537 C 0.02913 0.93867 0.70522 0.0
C538 C 1.00563 0.90596 0.66093 0.0
C539 C 0.00806 0.92587 0.70295 0.0
C540 C 0.02492 0.8987 0.62193 0.0
C541 C 0.04835 0.93068 0.66703 0.0
C542 C 0.04617 0.91085 0.62567 0.0
C543 C 0.96909 1.00531 0.70365 0.0
C544 C 0.02968 0.96187 0.73962 0.0
C545 C 0.09895 0.05644 0.81141 0.0
C546 C 0.08021 0.06508 0.84962 0.0
C547 C 0.99881 0.05072 0.66986 0.0
C548 C 0.98807 0.0878 0.50742 0.0
C549 C 0.01155 0.09324 0.52342 0.0
C550 C 0.01812 0.11636 0.54063 0.0
C551 C 1.00058 0.13378 0.54438 0.0
C552 C 0.97097 0.10548 0.51105 0.0
C553 C 0.9772 0.1283 0.53003 0.0
C554 C 0.04654 0.02534 0.53986 0.0
C555 C 0.98086 0.06352 0.4914 0.0
H556 H 0.99347 0.93167 0.73373 0.0
H557 H 0.0236 0.88372 0.58819 0.0
H558 H 0.06482 0.94018 0.66715 0.0
H559 H 0.06089 0.90513 0.59536 0.0
H560 H 0.02475 0.07954 0.52234 0.0
H561 H 1.00495 0.15188 0.556 0.0
H562 H 0.95275 0.10157 0.49986 0.0
H563 H 0.96391 0.14188 0.53263 0.0
Eu564 Eu 0.51779 0.03842 0.6998 0.0
C565 C 0.5322 0.94976 0.51631 0.0
C566 C 0.55664 0.96271 0.42489 0.0
C567 C 0.55903 0.92229 0.46189 0.0
C568 C 0.53965 0.96746 0.47474 0.0
C569 C 0.54134 0.92681 0.50921 0.0
C570 C 0.56669 0.94023 0.41986 0.0
C571 C 0.51336 0.914 0.59185 0.0
N572 N 0.51506 0.95465 0.56129 0.0
C573 C 0.5049 0.93701 0.59708 0.0
C574 C 0.53193 0.90894 0.54849 0.0
Eu575 Eu 0.5023 0.99422 0.57066 0.0
N576 N 0.52953 0.989 0.48088 0.0
C577 C 0.53437 1.00596 0.43488 0.0
C578 C 0.5626 0.9805 0.38045 0.0
C579 C 0.55112 1.00208 0.38481 0.0
H580 H 0.49075 0.94093 0.63148 0.0
H581 H 0.55525 0.01583 0.34979 0.0
H582 H 0.57995 0.93637 0.38244 0.0
H583 H 0.50566 0.90024 0.62161 0.0
H584 H 0.52593 0.02285 0.43665 0.0
H585 H 0.46016 0.01778 0.91137 0.0
H586 H 0.57561 0.97759 0.34169 0.0
H587 H 0.5348 0.09221 0.65526 0.0
H588 H 0.49146 0.0107 0.82986 0.0
H589 H 0.52051 0.13321 0.66191 0.0
H590 H 0.56646 0.90486 0.45623 0.0
H591 H 0.43947 0.05596 0.9146 0.0
H592 H 0.43636 0.09728 0.87274 0.0
H593 H 0.53847 0.8911 0.5445 0.0
H594 H 0.45277 0.12891 0.80407 0.0
N595 N 0.48867 0.04432 0.78454 0.0
C596 C 0.48292 0.02751 0.83008 0.0
C597 C 0.45336 0.05298 0.87845 0.0
C598 C 0.4604 0.07071 0.83508 0.0
C599 C 0.46504 0.03145 0.87689 0.0
C600 C 0.47855 0.06585 0.78883 0.0
H601 H 0.48453 0.14262 0.72627 0.0
N602 N 0.50646 0.07847 0.71167 0.0
C603 C 0.51095 0.11939 0.68667 0.0
C604 C 0.48769 0.08353 0.75063 0.0
C605 C 0.51896 0.09618 0.68289 0.0
C606 C 0.49061 0.12461 0.72283 0.0
C607 C 0.47905 0.10668 0.75692 0.0
O608 O 0.54962 0.05703 0.73066 0.0
O609 O 0.53131 0.01434 0.6189 0.0
O610 O 0.52419 0.97635 0.65079 0.0
O611 O 0.517 1.00094 0.74211 0.0
O612 O 0.54616 0.04735 0.62388 0.0
O613 O 0.53731 0.02789 0.78891 0.0
O614 O 0.47244 0.97205 0.54404 0.0
O615 O 0.4883 0.01887 0.65008 0.0
O616 O 0.50197 0.05877 0.61321 0.0
O617 O 0.50123 0.03108 0.52548 0.0
O618 O 0.47523 0.98502 0.64975 0.0
O619 O 0.47976 1.00307 0.48591 0.0
C620 C 0.54672 0.02739 0.59286 0.0
C621 C 0.57831 0.03076 0.76899 0.0
C622 C 0.60312 0.99576 0.75957 0.0
C623 C 0.58107 1.0062 0.77078 0.0
C624 C 0.62243 0.01034 0.74559 0.0
C625 C 0.59787 0.04489 0.75553 0.0
C626 C 0.61975 0.03469 0.74356 0.0
C627 C 0.5234 0.98032 0.71623 0.0
C628 C 0.55492 0.04172 0.776 0.0
C629 C 0.45989 0.11132 0.79926 0.0
C630 C 0.45056 0.09332 0.83836 0.0
C631 C 0.4734 1.0055 0.6773 0.0
C632 C 0.44001 0.99437 0.51171 0.0
C633 C 0.43455 0.01794 0.52703 0.0
C634 C 0.41136 0.02462 0.54218 0.0
C635 C 0.39383 0.00721 0.54383 0.0
C636 C 0.42221 0.97739 0.51307 0.0
C637 C 0.39928 0.98379 0.52951 0.0
C638 C 0.49957 0.05293 0.54904 0.0
C639 C 0.46443 0.98683 0.50037 0.0
H640 H 0.56607 0.99516 0.78057 0.0
H641 H 0.63981 1.00307 0.73825 0.0
H642 H 0.59615 0.06382 0.75339 0.0
H643 H 0.63476 0.04572 0.73317 0.0
H644 H 0.4483 0.03108 0.52764 0.0
H645 H 0.37571 0.01175 0.55401 0.0
H646 H 0.42615 0.95909 0.50243 0.0
H647 H 0.38563 0.97058 0.53053 0.0
Eu648 Eu 0.53481 0.50831 0.5807 0.0
C649 C 0.43421 0.49648 0.70037 0.0
C650 C 0.407 0.51395 0.62206 0.0
C651 C 0.39443 0.48125 0.69031 0.0
C652 C 0.42955 0.51279 0.65145 0.0
C653 C 0.41657 0.48082 0.72135 0.0
C654 C 0.38965 0.4978 0.64077 0.0
C655 C 0.44338 0.46671 0.80578 0.0
N656 N 0.45572 0.49656 0.72948 0.0
C657 C 0.46021 0.48267 0.78353 0.0
C658 C 0.42155 0.46556 0.77397 0.0
Eu659 Eu 0.48401 0.52299 0.68657 0.0
N660 N 0.44681 0.52799 0.63395 0.0
C661 C 0.44202 0.54586 0.59087 0.0
C662 C 0.40246 0.53149 0.57539 0.0
C663 C 0.41997 0.54769 0.56038 0.0
H664 H 0.47717 0.48336 0.80793 0.0
H665 H 0.41653 0.56158 0.52516 0.0
H666 H 0.37234 0.49825 0.61812 0.0
H667 H 0.44728 0.45528 0.84728 0.0
H668 H 0.45512 0.55866 0.57858 0.0
H669 H 0.60203 0.46757 0.73858 0.0
H670 H 0.38542 0.53291 0.55151 0.0
H671 H 0.54282 0.54779 0.45948 0.0
H672 H 0.56381 0.4707 0.68295 0.0
H673 H 0.57284 0.57634 0.42351 0.0
H674 H 0.38073 0.46921 0.70527 0.0
H675 H 0.63265 0.49748 0.71937 0.0
H676 H 0.64565 0.53341 0.65809 0.0
H677 H 0.4085 0.45322 0.79139 0.0
H678 H 0.63773 0.56307 0.57228 0.0
N679 N 0.57182 0.50276 0.63387 0.0
C680 C 0.57669 0.48408 0.67397 0.0
C681 C 0.61577 0.49902 0.69464 0.0
C682 C 0.61126 0.51729 0.65024 0.0
C683 C 0.59854 0.48211 0.70557 0.0
C684 C 0.58894 0.51852 0.61953 0.0
H685 H 0.61081 0.57893 0.4837 0.0
N686 N 0.56341 0.53486 0.54008 0.0
C687 C 0.57635 0.56493 0.46532 0.0
C688 C 0.58455 0.53515 0.57133 0.0
C689 C 0.55946 0.5487 0.48558 0.0
C690 C 0.59771 0.5664 0.49959 0.0
C691 C 0.60223 0.5511 0.55246 0.0
O692 O 0.54358 0.4988 0.47775 0.0
O693 O 0.49559 0.50869 0.58795 0.0
O694 O 0.48501 0.4835 0.66866 0.0
O695 O 0.52488 0.47771 0.65014 0.0
O696 O 0.50907 0.51883 0.49759 0.0
O697 O 0.54112 0.47165 0.55252 0.0
O698 O 0.47531 0.53301 0.78914 0.0
O699 O 0.52329 0.52241 0.67972 0.0
O700 O 0.5335 0.5479 0.59751 0.0
O701 O 0.49367 0.55346 0.6165 0.0
O702 O 0.50953 0.51218 0.76976 0.0
O703 O 0.47735 0.55973 0.71296 0.0
C704 C 0.48991 0.51491 0.52963 0.0
C705 C 0.52645 0.46345 0.44361 0.0
C706 C 0.48801 0.44641 0.41941 0.0
C707 C 0.50398 0.45654 0.46503 0.0
C708 C 0.49477 0.44333 0.35208 0.0
C709 C 0.53289 0.4601 0.37647 0.0
C710 C 0.51709 0.45008 0.33095 0.0
C711 C 0.50393 0.46999 0.6692 0.0
C712 C 0.54237 0.47635 0.48875 0.0
C713 C 0.62402 0.55078 0.58548 0.0
C714 C 0.62854 0.53389 0.6343 0.0
C715 C 0.52877 0.51582 0.73792 0.0
C716 C 0.49149 0.56894 0.82162 0.0
C717 C 0.51432 0.57504 0.80151 0.0
C718 C 0.52983 0.58583 0.84715 0.0
C719 C 0.52222 0.59045 0.91306 0.0
C720 C 0.48418 0.57377 0.88733 0.0
C721 C 0.49952 0.58451 0.93282 0.0
C722 C 0.51449 0.56127 0.59674 0.0
C723 C 0.47601 0.5554 0.77694 0.0
H724 H 0.49877 0.45943 0.51668 0.0
H725 H 0.483 0.43518 0.316 0.0
H726 H 0.55001 0.46562 0.35904 0.0
H727 H 0.52213 0.44755 0.27911 0.0
H728 H 0.52016 0.57102 0.751 0.0
H729 H 0.53367 0.59913 0.94902 0.0
H730 H 0.46675 0.56887 0.90372 0.0
H731 H 0.49382 0.5882 0.98357 0.0
Eu732 Eu 0.01971 0.53506 0.5751 0.0
C733 C 0.02829 0.43668 0.70444 0.0
C734 C 0.01159 0.40897 0.62479 0.0
C735 C 0.04331 0.39669 0.69803 0.0
C736 C 0.01259 0.43176 0.65342 0.0
C737 C 0.04343 0.41904 0.72856 0.0
C738 C 0.02742 0.39167 0.64616 0.0
C739 C 0.05616 0.4462 0.81517 0.0
N740 N 0.02788 0.45836 0.73305 0.0
C741 C 0.0408 0.46305 0.78962 0.0
C742 C 0.05776 0.4242 0.78388 0.0
Eu743 Eu 1.00281 0.48682 0.68407 0.0
N744 N 0.99755 0.44891 0.63393 0.0
C745 C 0.97974 0.44366 0.59014 0.0
C746 C 0.99434 0.40405 0.57674 0.0
C747 C 0.9781 0.42138 0.56021 0.0
H748 H 0.03983 0.48015 0.81354 0.0
H749 H 0.96431 0.41762 0.52427 0.0
H750 H 0.0271 0.37418 0.62412 0.0
H751 H 0.06683 0.45024 0.85875 0.0
H752 H 0.96683 0.45652 0.5768 0.0
H753 H 0.05989 0.60426 0.73209 0.0
H754 H 0.99304 0.38682 0.55339 0.0
H755 H 0.98231 0.54212 0.44648 0.0
H756 H 0.05705 0.56549 0.67926 0.0
H757 H 0.95516 0.57218 0.40287 0.0
H758 H 0.05499 0.383 0.71532 0.0
H759 H 0.03098 0.63509 0.7049 0.0
H760 H 0.99649 0.64785 0.63617 0.0
H761 H 0.06964 0.41115 0.80383 0.0
H762 H 0.96801 0.63918 0.5464 0.0
N763 N 0.02579 0.57302 0.62446 0.0
C764 C 0.04393 0.57825 0.66712 0.0
C765 C 0.02949 0.61787 0.68156 0.0
C766 C 0.01192 0.61302 0.63442 0.0
C767 C 0.04581 0.60051 0.69705 0.0
C768 C 0.01067 0.59023 0.60576 0.0
H769 H 0.95277 0.6112 0.45837 0.0
N770 N 0.99477 0.56375 0.52671 0.0
C771 C 0.96608 0.57612 0.44599 0.0
C772 C 0.99462 0.58541 0.55551 0.0
C773 C 0.98154 0.5592 0.47063 0.0
C774 C 0.96473 0.59808 0.47761 0.0
C775 C 0.9794 0.60313 0.53227 0.0
O776 O 0.03096 0.54488 0.47495 0.0
O777 O 0.01832 0.49576 0.58519 0.0
O778 O 0.04277 0.48765 0.67581 0.0
O779 O 0.04915 0.52687 0.65135 0.0
O780 O 0.0082 0.50869 0.49392 0.0
O781 O 0.05694 0.53487 0.54826 0.0
O782 O 0.99167 0.47899 0.78577 0.0
O783 O 1.00402 0.5261 0.67357 0.0
O784 O 0.97972 0.53437 0.58356 0.0
O785 O 0.97304 0.49532 0.60922 0.0
O786 O 0.01349 0.51344 0.76561 0.0
O787 O 0.96555 0.48331 0.70805 0.0
C788 C 0.01179 0.48972 0.52675 0.0
C789 C 0.06132 0.52048 0.43661 0.0
C790 C 0.07715 0.48142 0.4114 0.0
C791 C 0.07085 0.499 0.45817 0.0
C792 C 0.07343 0.48546 0.34277 0.0
C793 C 0.05813 0.52419 0.36782 0.0
C794 C 0.06403 0.50671 0.32131 0.0
C795 C 0.05638 0.5065 0.67603 0.0
C796 C 0.05251 0.53819 0.48493 0.0
C797 C 0.97976 0.62544 0.56297 0.0
C798 C 0.99599 0.63038 0.61402 0.0
C799 C 0.0102 0.53233 0.73217 0.0
C800 C 0.95803 0.49999 0.81519 0.0
C801 C 0.9518 0.52209 0.78977 0.0
C802 C 0.94304 0.53978 0.83259 0.0
C803 C 0.94085 0.53515 0.90142 0.0
C804 C 0.95554 0.49569 0.88379 0.0
C805 C 0.94704 0.51324 0.92666 0.0
C806 C 0.96593 0.51567 0.58427 0.0
C807 C 0.96958 0.48229 0.77236 0.0
H808 H 0.07312 0.49578 0.5112 0.0
H809 H 0.0785 0.4725 0.30534 0.0
H810 H 0.05063 0.54048 0.35015 0.0
H811 H 0.06142 0.50969 0.26836 0.0
H812 H 0.95408 0.52567 0.73698 0.0
H813 H 0.93371 0.54823 0.93557 0.0
H814 H 0.96062 0.4789 0.90434 0.0
H815 H 0.94519 0.50984 0.97961 0.0
H816 H 0.17495 0.00895 0.30279 0.0
H817 H 0.04976 0.05621 0.43455 0.0
H818 H 0.1486 0.07774 0.25585 0.0
H819 H 0.089 1.00224 0.53464 0.0
H820 H 0.08274 0.06124 0.35661 0.0
H821 H 0.14031 1.00261 0.37419 0.0
C822 C 0.16163 0.0225 0.30624 0.0
C823 C 0.16468 0.04385 0.27277 0.0
C824 C 0.08417 0.04836 0.39588 0.0
C825 C 0.12495 0.03683 0.35509 0.0
C826 C 0.06533 0.04553 0.44061 0.0
C827 C 0.06668 0.02917 0.49273 0.0
C828 C 0.10439 0.03427 0.40174 0.0
C829 C 0.08729 0.01554 0.49688 0.0
C830 C 0.14198 0.019 0.34765 0.0
C831 C 0.14698 0.06097 0.28042 0.0
N832 N 0.10515 0.01829 0.45207 0.0
N833 N 0.12797 0.0571 0.32042 0.0
H834 H 0.44434 0.1525 0.26112 0.0
H835 H 0.52294 0.09479 0.54402 0.0
H836 H 0.51455 0.17642 0.30424 0.0
H837 H 0.47024 0.05447 0.43914 0.0
H838 H 0.51783 0.12655 0.46396 0.0
H839 H 0.45133 0.11787 0.33085 0.0
C840 C 0.4614 0.15019 0.28428 0.0
C841 C 0.47901 0.16721 0.27615 0.0
C842 C 0.50727 0.11082 0.45851 0.0
C843 C 0.48686 0.12802 0.35805 0.0
C844 C 0.50991 0.0928 0.50504 0.0
C845 C 0.49645 0.07221 0.49987 0.0
C846 C 0.4908 0.10849 0.40641 0.0
C847 C 0.48068 0.0702 0.44581 0.0
C848 C 0.46534 0.13048 0.32424 0.0
C849 C 0.50064 0.16356 0.3083 0.0
N850 N 0.47804 0.08821 0.40177 0.0
N851 N 0.50384 0.14458 0.3485 0.0
H852 H 0.37653 0.50446 0.2316 0.0
H853 H 0.4557 0.48247 0.5587 0.0
H854 H 0.35284 0.46696 0.40518 0.0
H855 H 0.47279 0.53639 0.41761 0.0
H856 H 0.41871 0.47542 0.49891 0.0
H857 H 0.41225 0.51601 0.29448 0.0
C858 C 0.37859 0.49895 0.28301 0.0
C859 C 0.36162 0.48443 0.31251 0.0
C860 C 0.43041 0.48896 0.48107 0.0
C861 C 0.40273 0.49717 0.38445 0.0
C862 C 0.4515 0.4931 0.51572 0.0
C863 C 0.46698 0.51069 0.49484 0.0
C864 C 0.42497 0.50186 0.42325 0.0
C865 C 0.46109 0.52302 0.43642 0.0
C866 C 0.39909 0.5054 0.3188 0.0
C867 C 0.36551 0.47777 0.3795 0.0
N868 N 0.44064 0.5184 0.40272 0.0
N869 N 0.38557 0.48392 0.41253 0.0
H870 H 0.05708 0.3499 0.39776 0.0
H871 H 0.98843 0.47327 0.41625 0.0
H872 H 0.01683 0.37561 0.23092 0.0
H873 H 0.04301 0.4536 0.55414 0.0
H874 H 0.99462 0.43627 0.35375 0.0
H875 H 0.04745 0.38541 0.46152 0.0
C876 C 0.04595 0.36293 0.37449 0.0
C877 C 0.038 0.35958 0.30801 0.0
C878 C 1.00509 0.43988 0.39803 0.0
C879 C 0.02673 0.40095 0.38229 0.0
C880 C 1.00153 0.46101 0.43398 0.0
C881 C 0.01468 0.46633 0.49204 0.0
C882 C 0.02206 0.42373 0.4198 0.0
C883 C 0.03183 0.44997 0.51132 0.0
C884 C 0.04054 0.38335 0.4112 0.0
C885 C 0.02335 0.37717 0.28174 0.0
N886 N 0.03486 0.42946 0.47579 0.0
N887 N 0.01833 0.39709 0.31868 0.0
H888 H 0.83271 0.00821 0.9081 0.0
H889 H 0.96976 0.98491 0.82839 0.0
H890 H 0.87667 0.96297 0.02569 0.0
H891 H 0.92256 0.01921 0.69194 0.0
H892 H 0.93723 0.98065 0.90767 0.0
H893 H 0.86672 0.01714 0.83666 0.0
C894 C 0.84968 1.00077 0.92024 0.0
C895 C 0.85185 0.98508 0.9737 0.0
C896 C 0.93396 0.98908 0.86023 0.0
C897 C 0.89089 0.99467 0.89077 0.0
C898 C 0.9526 0.99152 0.81467 0.0
C899 C 0.94908 1.00216 0.7521 0.0
C900 C 0.91145 0.9976 0.84407 0.0
C901 C 0.92627 0.01044 0.73819 0.0
C902 C 0.86905 1.00558 0.8788 0.0
C903 C 0.87422 0.97539 0.98561 0.0
N904 N 0.90848 0.00803 0.78346 0.0
N905 N 0.89271 0.98023 0.94459 0.0
H906 H 0.53822 0.88313 0.05398 0.0
H907 H 0.54492 0.93831 0.6863 0.0
H908 H 0.54524 0.84243 0.87134 0.0
H909 H 0.51474 0.97682 0.85236 0.0
H910 H 0.54988 0.9044 0.75853 0.0
H911 H 0.53277 0.91868 0.98601 0.0
C912 C 0.53842 0.88156 0.99987 0.0
C913 C 0.54261 0.85963 0.96874 0.0
C914 C 0.54203 0.92021 0.77925 0.0
C915 C 0.53687 0.90035 0.89068 0.0
C916 C 0.53908 0.93963 0.73776 0.0
C917 C 0.5286 0.96035 0.76222 0.0
C918 C 0.53485 0.92141 0.84661 0.0
C919 C 0.52248 0.96117 0.83062 0.0
C920 C 0.53548 0.9019 0.96109 0.0
C921 C 0.54274 0.85888 0.89812 0.0
N922 N 0.5256 0.942 0.87028 0.0
N923 N 0.54017 0.8788 0.86193 0.0
H924 H 0.65858 0.5701 0.90688 0.0
H925 H 0.5464 0.4884 0.83724 0.0
H926 H 0.65258 0.50095 0.99177 0.0
H927 H 0.56313 0.54942 0.72146 0.0
H928 H 0.58338 0.49344 0.89984 0.0
H929 H 0.62291 0.56314 0.84361 0.0
C930 C 0.64996 0.55331 0.91246 0.0
C931 C 0.65949 0.53584 0.95422 0.0
C932 C 0.57909 0.50564 0.86045 0.0
C933 C 0.61669 0.52853 0.88372 0.0
C934 C 0.55798 0.50276 0.82463 0.0
C935 C 0.55194 0.51812 0.77269 0.0
C936 C 0.59414 0.52443 0.84565 0.0
C937 C 0.56735 0.53675 0.75966 0.0
C938 C 0.62914 0.54956 0.87662 0.0
C939 C 0.64626 0.51504 0.96063 0.0
N940 N 0.58763 0.53936 0.79575 0.0
N941 N 0.62562 0.512 0.926 0.0
H942 H 0.96576 0.67219 0.86379 0.0
H943 H 0.03421 0.5487 0.84146 0.0
H944 H 0.00741 0.64638 0.02764 0.0
H945 H 0.97984 0.56911 0.70384 0.0
H946 H 0.02863 0.58579 0.90385 0.0
H947 H 0.97533 0.63699 0.7985 0.0
C948 C 0.97722 0.65922 0.88599 0.0
C949 C 0.9856 0.66244 0.95209 0.0
C950 C 0.0181 0.58235 0.85959 0.0
C951 C 0.99675 0.62139 0.87618 0.0
C952 C 0.02131 0.56116 0.82368 0.0
C953 C 0.00799 0.55597 0.76585 0.0
C954 C 1.00128 0.5987 0.83806 0.0
C955 C 0.99114 0.57261 0.74649 0.0
C956 C 0.9826 0.63897 0.84845 0.0
C957 C 1.00058 0.64491 0.97713 0.0
N958 N 0.98841 0.59316 0.78204 0.0
N959 N 1.00553 0.62515 0.93944 0.0
H960 H 0.14535 0.15749 0.37654 0.0
H961 H 0.03847 0.149 0.62604 0.0
H962 H 0.10747 0.21581 0.46604 0.0
H963 H 0.05562 0.09893 0.46934 0.0
H964 H 0.07688 0.16741 0.61064 0.0
H965 H 0.12617 0.13132 0.45531 0.0
C966 C 0.13349 0.16505 0.41321 0.0
C967 C 0.12679 0.18885 0.41046 0.0
C968 C 0.07245 0.15189 0.58129 0.0
C969 C 0.1058 0.159 0.50295 0.0
C970 C 0.05045 0.14152 0.58947 0.0
C971 C 0.04333 0.12301 0.54688 0.0
C972 C 0.08743 0.14359 0.53051 0.0
C973 C 0.06005 0.11339 0.50265 0.0
C974 C 0.12278 0.15002 0.45875 0.0
C975 C 0.11275 0.1976 0.46328 0.0
N976 N 0.08111 0.12413 0.49452 0.0
N977 N 0.10223 0.18259 0.50602 0.0
H978 H 0.36688 0.14959 0.37832 0.0
H979 H 0.3798 0.045 0.62967 0.0
H980 H 0.31084 0.11839 0.49242 0.0
H981 H 0.42791 0.06184 0.47058 0.0
H982 H 0.36165 0.08368 0.61754 0.0
H983 H 0.39533 0.13038 0.45128 0.0
C984 C 0.36046 0.13933 0.41976 0.0
C985 C 0.33635 0.13454 0.42649 0.0
C986 C 0.37664 0.07913 0.58668 0.0
C987 C 0.36882 0.11292 0.51071 0.0
C988 C 0.38689 0.05699 0.59318 0.0
C989 C 0.40482 0.04981 0.54927 0.0
C990 C 0.38432 0.09408 0.53575 0.0
C991 C 0.41392 0.06642 0.50487 0.0
C992 C 0.37676 0.12844 0.46157 0.0
C993 C 0.32917 0.12215 0.48347 0.0
N994 N 0.40321 0.08757 0.49811 0.0
N995 N 0.34534 0.11119 0.52214 0.0
H996 H 0.41209 0.3327 0.48554 0.0
H997 H 0.44513 0.45188 0.35917 0.0
H998 H 0.36642 0.3728 0.35755 0.0
H999 H 0.47823 0.42082 0.53127 0.0
H1000 H 0.40971 0.4293 0.38156 0.0
H1001 H 0.42776 0.36895 0.53179 0.0
C1002 C 0.40451 0.34909 0.46901 0.0
C1003 C 0.38887 0.34965 0.41448 0.0
C1004 C 0.42447 0.42776 0.41554 0.0
C1005 C 0.40768 0.39137 0.46534 0.0
C1006 C 0.44479 0.44052 0.4023 0.0
C1007 C 0.46491 0.43752 0.44194 0.0
C1008 C 0.4246 0.41121 0.46725 0.0
C1009 C 0.46325 0.42328 0.49861 0.0
C1010 C 0.41375 0.36997 0.49513 0.0
C1011 C 0.37946 0.37156 0.39691 0.0
N1012 N 0.4437 0.41009 0.50841 0.0
N1013 N 0.38975 0.39162 0.42001 0.0
H1014 H 0.20107 0.41633 0.43637 0.0
H1015 H 0.07121 0.43606 0.36533 0.0
H1016 H 0.15831 0.36485 0.33198 0.0
H1017 H 0.11173 0.47757 0.50609 0.0
H1018 H 0.09882 0.40369 0.37929 0.0
H1019 H 0.16656 0.4308 0.49267 0.0
C1020 C 0.18465 0.40739 0.42635 0.0
C1021 C 0.18266 0.39016 0.37545 0.0
C1022 C 0.10138 0.41963 0.40854 0.0
C1023 C 0.14248 0.40781 0.43844 0.0
C1024 C 0.08566 0.4382 0.40022 0.0
C1025 C 0.08964 0.45985 0.43275 0.0
C1026 C 0.12153 0.423 0.44833 0.0
C1027 C 0.10818 0.46137 0.479 0.0
C1028 C 0.16468 0.41599 0.45851 0.0
C1029 C 0.16063 0.37928 0.36711 0.0
N1030 N 0.1238 0.44344 0.48399 0.0
N1031 N 0.14122 0.38892 0.39602 0.0
H1032 H 0.92129 0.79584 0.77887 0.0
H1033 H 0.96001 0.92215 0.67126 0.0
H1034 H 0.88493 0.85926 0.84061 0.0
H1035 H 1.00032 0.85819 0.65028 0.0
H1036 H 0.92527 0.89864 0.6968 0.0
H1037 H 0.94033 0.81737 0.69172 0.0
C1038 C 0.91653 0.81411 0.77355 0.0
C1039 C 0.90219 0.82587 0.82069 0.0
C1040 C 0.94163 0.88981 0.68502 0.0
C1041 C 0.92528 0.85097 0.72105 0.0
C1042 C 0.96155 0.90319 0.67116 0.0
C1043 C 0.98343 0.89219 0.66111 0.0
C1044 C 0.94357 0.86528 0.68824 0.0
C1045 C 0.98403 0.86756 0.65844 0.0
C1046 C 0.92784 0.82653 0.72352 0.0
C1047 C 0.89692 0.84962 0.80858 0.0
N1048 N 0.96452 0.855 0.6731 0.0
N1049 N 0.90911 0.86161 0.76147 0.0
H1050 H 0.68906 0.88148 0.82597 0.0
H1051 H 0.58162 0.96657 0.84966 0.0
H1052 H 0.64312 0.89058 0.99644 0.0
H1053 H 0.6322 0.96578 0.68868 0.0
H1054 H 0.59415 0.92736 0.88027 0.0
H1055 H 0.6593 0.89984 0.75566 0.0
C1056 C 0.67259 0.88674 0.8486 0.0
C1057 C 0.66938 0.88571 0.91839 0.0
C1058 C 0.60225 0.93556 0.83744 0.0
C1059 C 0.63509 0.90635 0.83777 0.0
C1060 C 0.595 0.95803 0.81957 0.0
C1061 C 0.60657 0.97003 0.76814 0.0
C1062 C 0.62153 0.92521 0.80471 0.0
C1063 C 0.62358 0.9577 0.73082 0.0
C1064 C 0.65552 0.89713 0.80816 0.0
C1065 C 0.64701 0.89154 0.94356 0.0
N1066 N 0.63101 0.93623 0.75096 0.0
N1067 N 0.63104 0.90222 0.9037 0.0
H1068 H 0.61071 0.69608 0.78278 0.0
H1069 H 0.57158 0.57982 0.91239 0.0
H1070 H 0.65471 0.65429 0.91105 0.0
H1071 H 0.5418 0.60956 0.73364 0.0
H1072 H 0.60776 0.60137 0.89244 0.0
H1073 H 0.59347 0.66047 0.73711 0.0
C1074 C 0.61763 0.67941 0.79939 0.0
C1075 C 0.63322 0.67826 0.85396 0.0
C1076 C 0.59366 0.60268 0.85619 0.0
C1077 C 0.61266 0.63735 0.80363 0.0
C1078 C 0.57288 0.59055 0.86809 0.0
C1079 C 0.55344 0.59363 0.82597 0.0
C1080 C 0.59487 0.61831 0.80238 0.0
C1081 C 0.55628 0.60708 0.7681 0.0
C1082 C 0.60748 0.65892 0.77357 0.0
C1083 C 0.64175 0.65601 0.87164 0.0
N1084 N 0.5764 0.61949 0.75897 0.0
N1085 N 0.63061 0.63639 0.84879 0.0
H1086 H 0.82754 0.60727 0.75009 0.0
H1087 H 0.94873 0.58439 0.88412 0.0
H1088 H 0.86261 0.65297 0.89225 0.0
H1089 H 0.91719 0.5465 0.7185 0.0
H1090 H 0.92487 0.61855 0.85686 0.0
H1091 H 0.86523 0.59653 0.70315 0.0
C1092 C 0.84305 0.61591 0.76987 0.0
C1093 C 0.84198 0.62989 0.8283 0.0
C1094 C 0.92353 0.603 0.82528 0.0
C1095 C 0.8854 0.61658 0.77672 0.0
C1096 C 0.93705 0.58341 0.84126 0.0
C1097 C 0.93412 0.56224 0.80547 0.0
C1098 C 0.90638 0.60108 0.7747 0.0
C1099 C 0.91955 0.56226 0.74867 0.0
C1100 C 0.86479 0.60949 0.7433 0.0
C1101 C 0.86277 0.64096 0.84976 0.0
N1102 N 0.90567 0.58112 0.7363 0.0
N1103 N 0.88378 0.63326 0.82606 0.0
H1104 H 0.99195 0.17463 0.93334 0.0
H1105 H 0.04194 0.07406 0.68017 0.0
H1106 H 0.06485 0.16958 0.87728 0.0
H1107 H 0.97107 0.07577 0.75475 0.0
H1108 H 0.05058 0.10995 0.74667 0.0
H1109 H 0.98358 0.14014 0.86176 0.0
C1110 C 1.00617 0.16656 0.90543 0.0
C1111 C 0.0292 0.17523 0.9123 0.0
C1112 C 0.03317 0.10239 0.74889 0.0
C1113 C 0.01974 0.13512 0.82989 0.0
C1114 C 0.02832 0.08172 0.71129 0.0
C1115 C 1.00591 0.07137 0.71323 0.0
C1116 C 0.01543 0.11307 0.78826 0.0
C1117 C 0.98872 0.08279 0.75255 0.0
C1118 C 1.00142 0.14663 0.86483 0.0
C1119 C 0.04685 0.16354 0.87481 0.0
N1120 N 0.99382 0.10275 0.78835 0.0
N1121 N 0.0418 0.14425 0.8358 0.0
H1122 H 0.34833 0.0757 0.83475 0.0
H1123 H 0.44826 0.97878 0.763 0.0
H1124 H 0.35483 0.01221 0.94842 0.0
H1125 H 0.44799 0.04714 0.67313 0.0
H1126 H 0.41173 0.98869 0.82178 0.0
H1127 H 0.38145 0.06317 0.76492 0.0
C1128 C 0.35639 0.05881 0.84412 0.0
C1129 C 0.3486 0.045 0.89784 0.0
C1130 C 0.41961 1.0016 0.78943 0.0
C1131 C 0.38721 0.03063 0.81805 0.0
C1132 C 0.44054 0.99597 0.75591 0.0
C1133 C 0.45165 0.0124 0.71463 0.0
C1134 C 0.40919 0.02373 0.78076 0.0
C1135 C 0.44049 0.03419 0.70607 0.0
C1136 C 0.37551 0.05177 0.80447 0.0
C1137 C 0.35993 0.02333 0.90735 0.0
N1138 N 0.41998 0.03922 0.73894 0.0
N1139 N 0.37872 0.01695 0.86843 0.0
H1140 H 0.51315 0.35139 0.93758 0.0
H1141 H 0.46519 0.44164 0.66643 0.0
H1142 H 0.44782 0.34273 0.83114 0.0
H1143 H 0.53674 0.44358 0.73715 0.0
H1144 H 0.45969 0.40417 0.7227 0.0
H1145 H 0.52393 0.38303 0.86023 0.0
C1146 C 0.50148 0.35554 0.89645 0.0
C1147 C 0.47963 0.34424 0.89056 0.0
C1148 C 0.47672 0.41256 0.7254 0.0
C1149 C 0.49138 0.38105 0.80339 0.0
C1150 C 0.47986 0.43405 0.69324 0.0
C1151 C 0.50148 0.44587 0.6969 0.0
C1152 C 0.49521 0.40275 0.76275 0.0
C1153 C 0.51984 0.43505 0.73239 0.0
C1154 C 0.50748 0.37382 0.8528 0.0
C1155 C 0.4649 0.35084 0.83733 0.0
N1156 N 0.51622 0.41431 0.7646 0.0
N1157 N 0.47087 0.36891 0.79669 0.0
H1158 H 0.18505 0.45396 0.85656 0.0
H1159 H 0.08258 0.5416 0.73788 0.0
H1160 H 0.17886 0.52463 0.93442 0.0
H1161 H 0.08417 0.46745 0.69209 0.0
H1162 H 0.11986 0.5376 0.79882 0.0
H1163 H 0.15098 0.46064 0.78502 0.0
C1164 C 0.17666 0.47104 0.85826 0.0
C1165 C 0.18491 0.48865 0.90256 0.0
C1166 C 0.11215 0.52224 0.77504 0.0
C1167 C 0.14527 0.49649 0.8196 0.0
C1168 C 0.09087 0.52454 0.73958 0.0
C1169 C 0.08004 0.50487 0.7092 0.0
C1170 C 0.12299 0.50011 0.77994 0.0
C1171 C 0.09164 0.48314 0.71471 0.0
C1172 C 0.15706 0.47482 0.81726 0.0
C1173 C 0.17332 0.51052 0.90119 0.0
N1174 N 0.11232 0.48139 0.74913 0.0
N1175 N 0.15404 0.51374 0.86098 0.0
H1176 H 0.95465 0.85544 0.36589 0.0
H1177 H 0.04773 0.95379 0.48473 0.0
H1178 H 0.0283 0.85213 0.31772 0.0
H1179 H 0.9768 0.95204 0.55859 0.0
H1180 H 0.04052 0.91725 0.42212 0.0
H1181 H 0.962 0.89053 0.43511 0.0
C1182 C 0.97246 0.86195 0.37008 0.0
C1183 C 0.99085 0.85056 0.33507 0.0
C1184 C 0.0264 0.92483 0.4515 0.0
C1185 C 0.9994 0.89145 0.41502 0.0
C1186 C 0.03047 0.94585 0.48718 0.0
C1187 C 0.01265 0.95659 0.52558 0.0
C1188 C 1.00428 0.91394 0.45407 0.0
C1189 C 0.99086 0.94496 0.52804 0.0
C1190 C 0.97662 0.8821 0.40989 0.0
C1191 C 0.01354 0.85998 0.34367 0.0
N1192 N 0.98726 0.92445 0.49255 0.0
N1193 N 0.01708 0.87985 0.38197 0.0
H1194 H 0.66887 0.95874 0.4119 0.0
H1195 H 0.56985 0.05459 0.50418 0.0
H1196 H 0.666 0.02742 0.32353 0.0
H1197 H 0.5714 0.98532 0.58815 0.0
H1198 H 0.60534 0.04524 0.43987 0.0
H1199 H 0.63423 0.9685 0.47878 0.0
C1200 C 0.66105 0.97596 0.40653 0.0
C1201 C 0.67051 0.99217 0.36098 0.0
C1202 C 0.59792 0.03197 0.4719 0.0
C1203 C 0.6304 1.00358 0.43884 0.0
C1204 C 0.57756 0.03727 0.50852 0.0
C1205 C 0.56717 0.02049 0.55013 0.0
C1206 C 0.60848 0.00976 0.47756 0.0
C1207 C 0.57833 0.99855 0.5551 0.0
C1208 C 0.64118 0.98152 0.44507 0.0
C1209 C 0.65962 0.01434 0.3579 0.0
N1210 N 0.59828 0.99382 0.51921 0.0
N1211 N 0.64018 0.01929 0.39577 0.0
H1212 H 0.571 0.69027 0.43672 0.0
H1213 H 0.48119 0.58661 0.52768 0.0
H1214 H 0.50762 0.67741 0.32425 0.0
H1215 H 0.55282 0.59042 0.59711 0.0
H1216 H 0.48668 0.62402 0.46953 0.0
H1217 H 0.56018 0.65892 0.51354 0.0
C1218 C 0.55434 0.68139 0.42965 0.0
C1219 C 0.54007 0.68674 0.37431 0.0
C1220 C 0.50111 0.6168 0.49811 0.0
C1221 C 0.52785 0.65 0.46127 0.0
C1222 C 0.49793 0.59548 0.53182 0.0
C1223 C 0.51657 0.58524 0.56748 0.0
C1224 C 0.52299 0.62823 0.50072 0.0
C1225 C 0.53798 0.59751 0.57001 0.0
C1226 C 0.54833 0.66321 0.47301 0.0
C1227 C 0.51893 0.6742 0.36682 0.0
N1228 N 0.54058 0.61822 0.53718 0.0
N1229 N 0.51358 0.65628 0.40927 0.0
H1230 H 0.83695 0.56834 0.40467 0.0
H1231 H 0.94028 0.48094 0.51944 0.0
H1232 H 0.84914 0.50165 0.30699 0.0
H1233 H 0.93758 0.55455 0.57162 0.0
H1234 H 0.90322 0.48516 0.45739 0.0
H1235 H 0.86897 0.56007 0.48308 0.0
C1236 C 0.84581 0.55151 0.4013 0.0
C1237 C 0.83994 0.53551 0.34963 0.0
C1238 C 0.91061 0.50034 0.48294 0.0
C1239 C 0.87755 0.52617 0.43858 0.0
C1240 C 0.93176 0.49791 0.51896 0.0
C1241 C 0.94223 0.51739 0.55127 0.0
C1242 C 0.89948 0.52238 0.47971 0.0
C1243 C 0.93035 0.53902 0.54746 0.0
C1244 C 0.8644 0.54696 0.44553 0.0
C1245 C 0.85262 0.51428 0.34676 0.0
N1246 N 0.90976 0.54089 0.51262 0.0
N1247 N 0.87088 0.51032 0.39008 0.0
loop_
_geom_bond_atom_site_label_1
_geom_bond_atom_site_label_2
_geom_bond_distance
_geom_bond_site_symmetry_2
_ccdc_geom_bond_type
C0 C1 1.391 . S
C0 C4 1.391 . S
C0 H42 0.948 . S
C1 C0 1.391 . S
C1 C2 1.391 . S
C2 C1 1.391 . S
C2 H58 0.947 . S
C2 C59 1.392 . S
C3 C4 1.391 . S
C3 C7 1.397 . S
C3 C59 1.419 . S
C4 C0 1.391 . S
C4 C3 1.391 . S
C4 C5 1.399 . S
C5 C4 1.399 . S
C5 C8 1.396 . S
C5 C17 1.453 . S
C5 C18 1.684 . S
H6 C30 0.948 . S
C7 C3 1.397 . S
C7 C8 1.394 . S
C7 C26 1.723 . S
C8 C5 1.396 . S
C8 C7 1.394 . S
C8 C38 1.723 . S
H9 C32 0.947 . S
H10 C33 0.948 . S
H11 C39 0.982 . S
H12 C40 0.979 . S
H13 C40 0.980 . S
H14 C40 0.983 . S
H15 C39 0.979 . S
H16 C39 0.977 . S
C17 C5 1.453 . S
C17 H46 0.982 . S
C17 H47 0.979 . S
C17 H48 0.977 . S
C18 C5 1.684 . S
C18 H43 0.979 . S
C18 H44 0.980 . S
C18 H45 0.983 . S
C19 C20 1.391 . S
C19 C24 1.391 . S
C19 H49 0.948 . S
C20 C19 1.391 . S
C20 C21 1.391 1_554 S
C21 C20 1.391 1_556 S
C21 C22 1.392 1_556 S
C21 H50 0.947 . S
C22 C21 1.392 1_554 S
C22 C23 1.419 . S
C22 H51 0.948 . S
C23 C22 1.419 . S
C23 C24 1.391 . S
C23 C27 1.397 . S
C24 C19 1.391 . S
C24 C23 1.391 . S
C24 C25 1.399 . S
C25 C24 1.399 . S
C25 C26 1.396 . S
C25 C28 1.453 . S
C25 C29 1.684 . S
C26 C7 1.723 . S
C26 C25 1.396 . S
C26 C27 1.394 . S
C27 C23 1.397 . S
C27 C26 1.394 . S
C27 C37 1.723 . S
C28 C25 1.453 . S
C28 H52 0.982 . S
C28 H53 0.979 . S
C28 H54 0.977 . S
C29 C25 1.684 . S
C29 H55 0.979 . S
C29 H56 0.980 . S
C29 H57 0.983 . S
C30 H6 0.948 . S
C30 C31 1.391 . S
C30 C35 1.391 . S
C31 C30 1.391 . S
C31 C32 1.391 . S
C32 H9 0.947 . S
C32 C31 1.391 . S
C32 C33 1.392 . S
C33 H10 0.948 . S
C33 C32 1.392 . S
C33 C34 1.419 . S
C34 C33 1.419 . S
C34 C35 1.391 . S
C34 C38 1.397 . S
C35 C30 1.391 . S
C35 C34 1.391 . S
C35 C36 1.399 . S
C36 C35 1.399 . S
C36 C37 1.396 . S
C36 C39 1.453 . S
C36 C40 1.684 . S
C37 C27 1.723 . S
C37 C36 1.396 . S
C37 C38 1.394 . S
C38 C8 1.723 . S
C38 C34 1.397 . S
C38 C37 1.394 . S
C39 H11 0.982 . S
C39 H15 0.979 . S
C39 H16 0.977 . S
C39 C36 1.453 . S
C40 H12 0.979 . S
C40 H13 0.980 . S
C40 H14 0.983 . S
C40 C36 1.684 . S
H41 C59 0.948 . S
H42 C0 0.948 . S
H43 C18 0.979 . S
H44 C18 0.980 . S
H45 C18 0.983 . S
H46 C17 0.982 . S
H47 C17 0.979 . S
H48 C17 0.977 . S
H49 C19 0.948 . S
H50 C21 0.947 . S
H51 C22 0.948 . S
H52 C28 0.982 . S
H53 C28 0.979 . S
H54 C28 0.977 . S
H55 C29 0.979 . S
H56 C29 0.980 . S
H57 C29 0.983 . S
H58 C2 0.947 . S
C59 C2 1.392 . S
C59 C3 1.419 . S
C59 H41 0.948 . S
C60 C61 1.391 . S
C60 C64 1.391 . S
C60 H102 0.948 1_554 S
C61 C60 1.391 . S
C61 C62 1.391 . S
C62 C61 1.391 . S
C62 H118 0.947 . S
C62 C119 1.392 . S
C63 C64 1.391 . S
C63 C67 1.397 . S
C63 C119 1.419 . S
C64 C60 1.391 . S
C64 C63 1.391 . S
C64 C65 1.399 . S
C65 C64 1.399 . S
C65 C68 1.396 . S
C65 C77 1.453 . S
C65 C78 1.684 . S
H66 C90 0.948 . S
C67 C63 1.397 . S
C67 C68 1.394 . S
C67 C86 1.723 . S
C68 C65 1.396 . S
C68 C67 1.394 . S
C68 C98 1.723 . S
H69 C92 0.947 . S
H70 C93 0.948 . S
H71 C99 0.982 . S
H72 C100 0.979 . S
H73 C100 0.980 . S
H74 C100 0.983 . S
H75 C99 0.979 . S
H76 C99 0.977 . S
C77 C65 1.453 . S
C77 H106 0.982 . S
C77 H107 0.979 1_554 S
C77 H108 0.977 . S
C78 C65 1.684 . S
C78 H103 0.979 . S
C78 H104 0.980 . S
C78 H105 0.983 1_554 S
C79 C80 1.391 . S
C79 C84 1.391 . S
C79 H109 0.948 . S
C80 C79 1.391 . S
C80 C81 1.391 . S
C81 C80 1.391 . S
C81 C82 1.392 . S
C81 H110 0.947 . S
C82 C81 1.392 . S
C82 C83 1.419 . S
C82 H111 0.948 . S
C83 C82 1.419 . S
C83 C84 1.391 . S
C83 C87 1.397 . S
C84 C79 1.391 . S
C84 C83 1.391 . S
C84 C85 1.399 . S
C85 C84 1.399 . S
C85 C86 1.396 . S
C85 C88 1.453 . S
C85 C89 1.684 . S
C86 C67 1.723 . S
C86 C85 1.396 . S
C86 C87 1.394 . S
C87 C83 1.397 . S
C87 C86 1.394 . S
C87 C97 1.723 . S
C88 C85 1.453 . S
C88 H112 0.982 . S
C88 H113 0.979 . S
C88 H114 0.977 . S
C89 C85 1.684 . S
C89 H115 0.979 . S
C89 H116 0.980 . S
C89 H117 0.983 . S
C90 H66 0.948 . S
C90 C91 1.391 . S
C90 C95 1.391 . S
C91 C90 1.391 . S
C91 C92 1.391 . S
C92 H69 0.947 . S
C92 C91 1.391 . S
C92 C93 1.392 . S
C93 H70 0.948 . S
C93 C92 1.392 . S
C93 C94 1.419 . S
C94 C93 1.419 . S
C94 C95 1.391 . S
C94 C98 1.397 . S
C95 C90 1.391 . S
C95 C94 1.391 . S
C95 C96 1.399 . S
C96 C95 1.399 . S
C96 C97 1.396 . S
C96 C99 1.453 . S
C96 C100 1.684 . S
C97 C87 1.723 . S
C97 C96 1.396 . S
C97 C98 1.394 . S
C98 C68 1.723 . S
C98 C94 1.397 . S
C98 C97 1.394 . S
C99 H71 0.982 . S
C99 H75 0.979 . S
C99 H76 0.977 . S
C99 C96 1.453 . S
C100 H72 0.979 . S
C100 H73 0.980 . S
C100 H74 0.983 . S
C100 C96 1.684 . S
H101 C119 0.948 . S
H102 C60 0.948 1_556 S
H103 C78 0.979 . S
H104 C78 0.980 . S
H105 C78 0.983 1_556 S
H106 C77 0.982 . S
H107 C77 0.979 1_556 S
H108 C77 0.977 . S
H109 C79 0.948 . S
H110 C81 0.947 . S
H111 C82 0.948 . S
H112 C88 0.982 . S
H113 C88 0.979 . S
H114 C88 0.977 . S
H115 C89 0.979 . S
H116 C89 0.980 . S
H117 C89 0.983 . S
H118 C62 0.947 . S
C119 C62 1.392 . S
C119 C63 1.419 . S
C119 H101 0.948 . S
C120 C121 1.391 . S
C120 C124 1.391 . S
C120 H162 0.948 . S
C121 C120 1.391 . S
C121 C122 1.391 . S
C122 C121 1.391 . S
C122 H178 0.947 . S
C122 C179 1.392 . S
C123 C124 1.391 . S
C123 C127 1.397 . S
C123 C179 1.419 . S
C124 C120 1.391 . S
C124 C123 1.391 . S
C124 C125 1.399 . S
C125 C124 1.399 . S
C125 C128 1.396 . S
C125 C137 1.453 . S
C125 C138 1.684 . S
H126 C150 0.948 . S
C127 C123 1.397 . S
C127 C128 1.394 . S
C127 C146 1.723 . S
C128 C125 1.396 . S
C128 C127 1.394 . S
C128 C158 1.723 . S
H129 C152 0.947 . S
H130 C153 0.948 . S
H131 C159 0.982 . S
H132 C160 0.979 . S
H133 C160 0.980 . S
H134 C160 0.983 . S
H135 C159 0.979 . S
H136 C159 0.977 . S
C137 C125 1.453 . S
C137 H166 0.982 . S
C137 H167 0.979 . S
C137 H168 0.977 . S
C138 C125 1.684 . S
C138 H163 0.979 . S
C138 H164 0.980 . S
C138 H165 0.983 . S
C139 C140 1.391 . S
C139 C144 1.391 . S
C139 H169 0.948 1_554 S
C140 C139 1.391 . S
C140 C141 1.391 . S
C141 C140 1.391 . S
C141 C142 1.392 . S
C141 H170 0.947 . S
C142 C141 1.392 . S
C142 C143 1.419 . S
C142 H171 0.948 . S
C143 C142 1.419 . S
C143 C144 1.391 . S
C143 C147 1.397 . S
C144 C139 1.391 . S
C144 C143 1.391 . S
C144 C145 1.399 . S
C145 C144 1.399 . S
C145 C146 1.396 . S
C145 C148 1.453 . S
C145 C149 1.684 . S
C146 C127 1.723 . S
C146 C145 1.396 . S
C146 C147 1.394 . S
C147 C143 1.397 . S
C147 C146 1.394 . S
C147 C157 1.723 . S
C148 C145 1.453 . S
C148 H172 0.982 . S
C148 H173 0.979 1_554 S
C148 H174 0.977 . S
C149 C145 1.684 . S
C149 H175 0.979 . S
C149 H176 0.980 . S
C149 H177 0.983 1_554 S
C150 H126 0.948 . S
C150 C151 1.391 . S
C150 C155 1.391 . S
C151 C150 1.391 . S
C151 C152 1.391 . S
C152 H129 0.947 . S
C152 C151 1.391 . S
C152 C153 1.392 . S
C153 H130 0.948 . S
C153 C152 1.392 . S
C153 C154 1.419 . S
C154 C153 1.419 . S
C154 C155 1.391 . S
C154 C158 1.397 . S
C155 C150 1.391 . S
C155 C154 1.391 . S
C155 C156 1.399 . S
C156 C155 1.399 . S
C156 C157 1.396 . S
C156 C159 1.453 . S
C156 C160 1.684 . S
C157 C147 1.723 . S
C157 C156 1.396 . S
C157 C158 1.394 . S
C158 C128 1.723 . S
C158 C154 1.397 . S
C158 C157 1.394 . S
C159 H131 0.982 . S
C159 H135 0.979 . S
C159 H136 0.977 . S
C159 C156 1.453 . S
C160 H132 0.979 . S
C160 H133 0.980 . S
C160 H134 0.983 . S
C160 C156 1.684 . S
H161 C179 0.948 . S
H162 C120 0.948 . S
H163 C138 0.979 . S
H164 C138 0.980 . S
H165 C138 0.983 . S
H166 C137 0.982 . S
H167 C137 0.979 . S
H168 C137 0.977 . S
H169 C139 0.948 1_556 S
H170 C141 0.947 . S
H171 C142 0.948 . S
H172 C148 0.982 . S
H173 C148 0.979 1_556 S
H174 C148 0.977 . S
H175 C149 0.979 . S
H176 C149 0.980 . S
H177 C149 0.983 1_556 S
H178 C122 0.947 . S
C179 C122 1.392 . S
C179 C123 1.419 . S
C179 H161 0.948 . S
C180 C181 1.391 . S
C180 C184 1.391 . S
C180 H222 0.948 . S
C181 C180 1.391 . S
C181 C182 1.391 . S
C182 C181 1.391 . S
C182 H238 0.947 . S
C182 C239 1.392 . S
C183 C184 1.391 . S
C183 C187 1.397 . S
C183 C239 1.419 . S
C184 C180 1.391 . S
C184 C183 1.391 . S
C184 C185 1.399 . S
C185 C184 1.399 . S
C185 C188 1.396 . S
C185 C197 1.453 . S
C185 C198 1.684 . S
H186 C210 0.948 . S
C187 C183 1.397 . S
C187 C188 1.394 . S
C187 C206 1.723 . S
C188 C185 1.396 . S
C188 C187 1.394 . S
C188 C218 1.723 . S
H189 C212 0.947 . S
H190 C213 0.948 . S
H191 C219 0.982 . S
H192 C220 0.979 . S
H193 C220 0.980 . S
H194 C220 0.983 . S
H195 C219 0.979 . S
H196 C219 0.977 . S
C197 C185 1.453 . S
C197 H226 0.982 . S
C197 H227 0.979 . S
C197 H228 0.977 . S
C198 C185 1.684 . S
C198 H223 0.979 . S
C198 H224 0.980 . S
C198 H225 0.983 . S
C199 C200 1.391 . S
C199 C204 1.391 . S
C199 H229 0.948 . S
C200 C199 1.391 . S
C200 C201 1.391 1_554 S
C201 C200 1.391 1_556 S
C201 C202 1.392 1_556 S
C201 H230 0.947 . S
C202 C201 1.392 1_554 S
C202 C203 1.419 . S
C202 H231 0.948 . S
C203 C202 1.419 . S
C203 C204 1.391 . S
C203 C207 1.397 . S
C204 C199 1.391 . S
C204 C203 1.391 . S
C204 C205 1.399 . S
C205 C204 1.399 . S
C205 C206 1.396 . S
C205 C208 1.453 . S
C205 C209 1.684 . S
C206 C187 1.723 . S
C206 C205 1.396 . S
C206 C207 1.394 . S
C207 C203 1.397 . S
C207 C206 1.394 . S
C207 C217 1.723 . S
C208 C205 1.453 . S
C208 H232 0.982 . S
C208 H233 0.979 . S
C208 H234 0.977 . S
C209 C205 1.684 . S
C209 H235 0.979 . S
C209 H236 0.980 . S
C209 H237 0.983 . S
C210 H186 0.948 . S
C210 C211 1.391 . S
C210 C215 1.391 . S
C211 C210 1.391 . S
C211 C212 1.391 . S
C212 H189 0.947 . S
C212 C211 1.391 . S
C212 C213 1.392 . S
C213 H190 0.948 . S
C213 C212 1.392 . S
C213 C214 1.419 . S
C214 C213 1.419 . S
C214 C215 1.391 . S
C214 C218 1.397 . S
C215 C210 1.391 . S
C215 C214 1.391 . S
C215 C216 1.399 . S
C216 C215 1.399 . S
C216 C217 1.396 . S
C216 C219 1.453 . S
C216 C220 1.684 . S
C217 C207 1.723 . S
C217 C216 1.396 . S
C217 C218 1.394 . S
C218 C188 1.723 . S
C218 C214 1.397 . S
C218 C217 1.394 . S
C219 H191 0.982 . S
C219 H195 0.979 . S
C219 H196 0.977 . S
C219 C216 1.453 . S
C220 H192 0.979 . S
C220 H193 0.980 . S
C220 H194 0.983 . S
C220 C216 1.684 . S
H221 C239 0.948 . S
H222 C180 0.948 . S
H223 C198 0.979 . S
H224 C198 0.980 . S
H225 C198 0.983 . S
H226 C197 0.982 . S
H227 C197 0.979 . S
H228 C197 0.977 . S
H229 C199 0.948 . S
H230 C201 0.947 . S
H231 C202 0.948 . S
H232 C208 0.982 . S
H233 C208 0.979 . S
H234 C208 0.977 . S
H235 C209 0.979 . S
H236 C209 0.980 . S
H237 C209 0.983 . S
H238 C182 0.947 . S
C239 C182 1.392 . S
C239 C183 1.419 . S
C239 H221 0.948 . S
C240 C241 1.391 . S
C240 C244 1.391 . S
C240 H282 0.948 1_554 S
C241 C240 1.391 . S
C241 C242 1.391 . S
C242 C241 1.391 . S
C242 H298 0.947 . S
C242 C299 1.392 . S
C243 C244 1.391 . S
C243 C247 1.397 . S
C243 C299 1.419 . S
C244 C240 1.391 . S
C244 C243 1.391 . S
C244 C245 1.399 1_554 S
C245 C244 1.399 1_556 S
C245 C248 1.396 . S
C245 C257 1.453 . S
C245 C258 1.684 . S
H246 C270 0.948 . S
C247 C243 1.397 . S
C247 C248 1.394 1_554 S
C247 C266 1.723 . S
C248 C245 1.396 . S
C248 C247 1.394 1_556 S
C248 C278 1.723 . S
H249 C272 0.947 . S
H250 C273 0.948 . S
H251 C279 0.982 . S
H252 C280 0.979 . S
H253 C280 0.980 . S
H254 C280 0.983 . S
H255 C279 0.979 . S
H256 C279 0.977 . S
C257 C245 1.453 . S
C257 H286 0.982 . S
C257 H287 0.979 . S
C257 H288 0.977 . S
C258 C245 1.684 . S
C258 H283 0.979 . S
C258 H284 0.980 . S
C258 H285 0.983 . S
C259 C260 1.391 . S
C259 C264 1.391 . S
C259 H289 0.948 . S
C260 C259 1.391 . S
C260 C261 1.391 . S
C261 C260 1.391 . S
C261 C262 1.392 . S
C261 H290 0.947 . S
C262 C261 1.392 . S
C262 C263 1.419 . S
C262 H291 0.948 . S
C263 C262 1.419 . S
C263 C264 1.391 . S
C263 C267 1.397 . S
C264 C259 1.391 . S
C264 C263 1.391 . S
C264 C265 1.399 . S
C265 C264 1.399 . S
C265 C266 1.396 . S
C265 C268 1.453 . S
C265 C269 1.684 . S
C266 C247 1.723 . S
C266 C265 1.396 . S
C266 C267 1.394 . S
C267 C263 1.397 . S
C267 C266 1.394 . S
C267 C277 1.723 1_554 S
C268 C265 1.453 . S
C268 H292 0.982 . S
C268 H293 0.979 . S
C268 H294 0.977 . S
C269 C265 1.684 . S
C269 H295 0.979 . S
C269 H296 0.980 . S
C269 H297 0.983 . S
C270 H246 0.948 . S
C270 C271 1.391 . S
C270 C275 1.391 . S
C271 C270 1.391 . S
C271 C272 1.391 . S
C272 H249 0.947 . S
C272 C271 1.391 . S
C272 C273 1.392 . S
C273 H250 0.948 . S
C273 C272 1.392 . S
C273 C274 1.419 . S
C274 C273 1.419 . S
C274 C275 1.391 . S
C274 C278 1.397 . S
C275 C270 1.391 . S
C275 C274 1.391 . S
C275 C276 1.399 . S
C276 C275 1.399 . S
C276 C277 1.396 . S
C276 C279 1.453 . S
C276 C280 1.684 . S
C277 C267 1.723 1_556 S
C277 C276 1.396 . S
C277 C278 1.394 . S
C278 C248 1.723 . S
C278 C274 1.397 . S
C278 C277 1.394 . S
C279 H251 0.982 . S
C279 H255 0.979 . S
C279 H256 0.977 . S
C279 C276 1.453 . S
C280 H252 0.979 . S
C280 H253 0.980 . S
C280 H254 0.983 . S
C280 C276 1.684 . S
H281 C299 0.948 . S
H282 C240 0.948 1_556 S
H283 C258 0.979 . S
H284 C258 0.980 . S
H285 C258 0.983 . S
H286 C257 0.982 . S
H287 C257 0.979 . S
H288 C257 0.977 . S
H289 C259 0.948 . S
H290 C261 0.947 . S
H291 C262 0.948 . S
H292 C268 0.982 . S
H293 C268 0.979 . S
H294 C268 0.977 . S
H295 C269 0.979 . S
H296 C269 0.980 . S
H297 C269 0.983 . S
H298 C242 0.947 . S
C299 C242 1.392 . S
C299 C243 1.419 . S
C299 H281 0.948 . S
C300 C301 1.391 . S
C300 C304 1.391 . S
C300 H342 0.948 . S
C301 C300 1.391 . S
C301 C302 1.391 . S
C302 C301 1.391 . S
C302 H358 0.947 . S
C302 C359 1.392 . S
C303 C304 1.391 . S
C303 C307 1.397 . S
C303 C359 1.419 . S
C304 C300 1.391 . S
C304 C303 1.391 . S
C304 C305 1.399 . S
C305 C304 1.399 . S
C305 C308 1.396 . S
C305 C317 1.453 . S
C305 C318 1.684 . S
H306 C330 0.948 1_556 S
C307 C303 1.397 . S
C307 C308 1.394 . S
C307 C326 1.723 1_554 S
C308 C305 1.396 . S
C308 C307 1.394 . S
C308 C338 1.723 . S
H309 C332 0.947 . S
H310 C333 0.948 . S
H311 C339 0.982 . S
H312 C340 0.979 . S
H313 C340 0.980 . S
H314 C340 0.983 . S
H315 C339 0.979 . S
H316 C339 0.977 . S
C317 C305 1.453 . S
C317 H346 0.982 . S
C317 H347 0.979 . S
C317 H348 0.977 . S
C318 C305 1.684 . S
C318 H343 0.979 . S
C318 H344 0.980 . S
C318 H345 0.983 . S
C319 C320 1.391 . S
C319 C324 1.391 . S
C319 H349 0.948 . S
C320 C319 1.391 . S
C320 C321 1.391 . S
C321 C320 1.391 . S
C321 C322 1.392 . S
C321 H350 0.947 . S
C322 C321 1.392 . S
C322 C323 1.419 . S
C322 H351 0.948 . S
C323 C322 1.419 . S
C323 C324 1.391 . S
C323 C327 1.397 . S
C324 C319 1.391 . S
C324 C323 1.391 . S
C324 C325 1.399 . S
C325 C324 1.399 . S
C325 C326 1.396 . S
C325 C328 1.453 . S
C325 C329 1.684 . S
C326 C307 1.723 1_556 S
C326 C325 1.396 . S
C326 C327 1.394 . S
C327 C323 1.397 . S
C327 C326 1.394 . S
C327 C337 1.723 . S
C328 C325 1.453 . S
C328 H352 0.982 . S
C328 H353 0.979 . S
C328 H354 0.977 . S
C329 C325 1.684 . S
C329 H355 0.979 . S
C329 H356 0.980 . S
C329 H357 0.983 . S
C330 H306 0.948 1_554 S
C330 C331 1.391 . S
C330 C335 1.391 . S
C331 C330 1.391 . S
C331 C332 1.391 . S
C332 H309 0.947 . S
C332 C331 1.391 . S
C332 C333 1.392 . S
C333 H310 0.948 . S
C333 C332 1.392 . S
C333 C334 1.419 . S
C334 C333 1.419 . S
C334 C335 1.391 . S
C334 C338 1.397 . S
C335 C330 1.391 . S
C335 C334 1.391 . S
C335 C336 1.399 1_554 S
C336 C335 1.399 1_556 S
C336 C337 1.396 . S
C336 C339 1.453 . S
C336 C340 1.684 . S
C337 C327 1.723 . S
C337 C336 1.396 . S
C337 C338 1.394 1_556 S
C338 C308 1.723 . S
C338 C334 1.397 . S
C338 C337 1.394 1_554 S
C339 H311 0.982 . S
C339 H315 0.979 . S
C339 H316 0.977 . S
C339 C336 1.453 . S
C340 H312 0.979 . S
C340 H313 0.980 . S
C340 H314 0.983 . S
C340 C336 1.684 . S
H341 C359 0.948 . S
H342 C300 0.948 . S
H343 C318 0.979 . S
H344 C318 0.980 . S
H345 C318 0.983 . S
H346 C317 0.982 . S
H347 C317 0.979 . S
H348 C317 0.977 . S
H349 C319 0.948 . S
H350 C321 0.947 . S
H351 C322 0.948 . S
H352 C328 0.982 . S
H353 C328 0.979 . S
H354 C328 0.977 . S
H355 C329 0.979 . S
H356 C329 0.980 . S
H357 C329 0.983 . S
H358 C302 0.947 . S
C359 C302 1.392 . S
C359 C303 1.419 . S
C359 H341 0.948 . S
C360 C361 1.391 . S
C360 C364 1.391 . S
C360 H402 0.948 . S
C361 C360 1.391 . S
C361 C362 1.391 . S
C362 C361 1.391 . S
C362 H418 0.947 . S
C362 C419 1.392 . S
C363 C364 1.391 . S
C363 C367 1.397 . S
C363 C419 1.419 . S
C364 C360 1.391 . S
C364 C363 1.391 . S
C364 C365 1.399 . S
C365 C364 1.399 . S
C365 C368 1.396 . S
C365 C377 1.453 . S
C365 C378 1.684 . S
H366 C390 0.948 . S
C367 C363 1.397 . S
C367 C368 1.394 . S
C367 C386 1.723 1_556 S
C368 C365 1.396 . S
C368 C367 1.394 . S
C368 C398 1.723 1_556 S
H369 C392 0.938 1_556 S
H370 C393 0.948 . S
H371 C399 0.982 . S
H372 C400 0.979 . S
H373 C400 0.980 . S
H374 C400 0.983 . S
H375 C399 0.979 . S
H376 C399 0.977 . S
C377 C365 1.453 . S
C377 H406 0.982 . S
C377 H407 0.979 . S
C377 H408 0.977 . S
C378 C365 1.684 . S
C378 H403 0.979 . S
C378 H404 0.980 . S
C378 H405 0.983 . S
C379 C380 1.391 . S
C379 C384 1.391 . S
C379 H409 0.948 . S
C380 C379 1.391 . S
C380 C381 1.391 . S
C381 C380 1.391 . S
C381 C382 1.392 . S
C381 H410 0.947 . S
C382 C381 1.392 . S
C382 C383 1.419 . S
C382 H411 0.948 . S
C383 C382 1.419 . S
C383 C384 1.391 . S
C383 C387 1.397 . S
C384 C379 1.391 . S
C384 C383 1.391 . S
C384 C385 1.399 . S
C385 C384 1.399 . S
C385 C386 1.396 . S
C385 C388 1.453 . S
C385 C389 1.684 . S
C386 C367 1.723 1_554 S
C386 C385 1.396 . S
C386 C387 1.394 . S
C387 C383 1.397 . S
C387 C386 1.394 . S
C387 C397 1.723 . S
C388 C385 1.453 . S
C388 H412 0.982 . S
C388 H413 0.979 . S
C388 H414 0.977 1_554 S
C389 C385 1.684 . S
C389 H415 0.979 . S
C389 H416 0.980 1_554 S
C389 H417 0.983 . S
C390 H366 0.948 . S
C390 C391 1.391 . S
C390 C395 1.391 . S
C391 C390 1.391 . S
C391 C392 1.404 . S
C392 H369 0.938 1_554 S
C392 C391 1.404 . S
C392 C393 1.388 1_554 S
C393 H370 0.948 . S
C393 C392 1.388 1_556 S
C393 C394 1.419 1_556 S
C394 C393 1.419 1_554 S
C394 C395 1.391 . S
C394 C398 1.397 . S
C395 C390 1.391 . S
C395 C394 1.391 . S
C395 C396 1.399 . S
C396 C395 1.399 . S
C396 C397 1.396 . S
C396 C399 1.453 . S
C396 C400 1.684 . S
C397 C387 1.723 . S
C397 C396 1.396 . S
C397 C398 1.394 . S
C398 C368 1.723 1_554 S
C398 C394 1.397 . S
C398 C397 1.394 . S
C399 H371 0.982 . S
C399 H375 0.979 . S
C399 H376 0.977 . S
C399 C396 1.453 . S
C400 H372 0.979 . S
C400 H373 0.980 . S
C400 H374 0.983 . S
C400 C396 1.684 . S
H401 C419 0.948 . S
H402 C360 0.948 . S
H403 C378 0.979 . S
H404 C378 0.980 . S
H405 C378 0.983 . S
H406 C377 0.982 . S
H407 C377 0.979 . S
H408 C377 0.977 . S
H409 C379 0.948 . S
H410 C381 0.947 . S
H411 C382 0.948 . S
H412 C388 0.982 . S
H413 C388 0.979 . S
H414 C388 0.977 1_556 S
H415 C389 0.979 . S
H416 C389 0.980 1_556 S
H417 C389 0.983 . S
H418 C362 0.947 . S
C419 C362 1.392 . S
C419 C363 1.419 . S
C419 H401 0.948 . S
C420 C421 1.391 . S
C420 C424 1.391 . S
C420 H462 0.948 . S
C421 C420 1.391 . S
C421 C422 1.391 . S
C422 C421 1.391 . S
C422 H478 0.947 . S
C422 C479 1.392 . S
C423 C424 1.391 . S
C423 C427 1.397 . S
C423 C479 1.419 . S
C424 C420 1.391 . S
C424 C423 1.391 . S
C424 C425 1.399 . S
C425 C424 1.399 . S
C425 C428 1.396 . S
C425 C437 1.453 . S
C425 C438 1.684 . S
H426 C450 0.948 . S
C427 C423 1.397 . S
C427 C428 1.394 . S
C427 C446 1.723 1_556 S
C428 C425 1.396 . S
C428 C427 1.394 . S
C428 C458 1.723 1_556 S
H429 C452 0.947 1_556 S
H430 C453 0.948 . S
H431 C459 0.982 . S
H432 C460 0.979 . S
H433 C460 0.980 . S
H434 C460 0.983 . S
H435 C459 0.979 . S
H436 C459 0.977 . S
C437 C425 1.453 . S
C437 H466 0.982 . S
C437 H467 0.979 . S
C437 H468 0.977 . S
C438 C425 1.684 . S
C438 H463 0.979 . S
C438 H464 0.980 . S
C438 H465 0.983 . S
C439 C440 1.391 . S
C439 C444 1.391 . S
C439 H469 0.948 . S
C440 C439 1.391 . S
C440 C441 1.391 . S
C441 C440 1.391 . S
C441 C442 1.392 . S
C441 H470 0.947 . S
C442 C441 1.392 . S
C442 C443 1.419 . S
C442 H471 0.948 . S
C443 C442 1.419 . S
C443 C444 1.391 . S
C443 C447 1.397 . S
C444 C439 1.391 . S
C444 C443 1.391 . S
C444 C445 1.399 . S
C445 C444 1.399 . S
C445 C446 1.396 . S
C445 C448 1.453 . S
C445 C449 1.684 . S
C446 C427 1.723 1_554 S
C446 C445 1.396 . S
C446 C447 1.394 . S
C447 C443 1.397 . S
C447 C446 1.394 . S
C447 C457 1.723 . S
C448 C445 1.453 . S
C448 H472 0.982 . S
C448 H473 0.979 . S
C448 H474 0.977 1_554 S
C449 C445 1.684 . S
C449 H475 0.979 . S
C449 H476 0.980 1_554 S
C449 H477 0.983 . S
C450 H426 0.948 . S
C450 C451 1.391 . S
C450 C455 1.391 . S
C451 C450 1.391 . S
C451 C452 1.391 . S
C452 H429 0.947 1_554 S
C452 C451 1.391 . S
C452 C453 1.392 1_554 S
C453 H430 0.948 . S
C453 C452 1.392 1_556 S
C453 C454 1.419 1_556 S
C454 C453 1.419 1_554 S
C454 C455 1.391 . S
C454 C458 1.397 . S
C455 C450 1.391 . S
C455 C454 1.391 . S
C455 C456 1.399 . S
C456 C455 1.399 . S
C456 C457 1.396 . S
C456 C459 1.453 . S
C456 C460 1.684 . S
C457 C447 1.723 . S
C457 C456 1.396 . S
C457 C458 1.394 . S
C458 C428 1.723 1_554 S
C458 C454 1.397 . S
C458 C457 1.394 . S
C459 H431 0.982 . S
C459 H435 0.979 . S
C459 H436 0.977 . S
C459 C456 1.453 . S
C460 H432 0.979 . S
C460 H433 0.980 . S
C460 H434 0.983 . S
C460 C456 1.684 . S
H461 C479 0.948 . S
H462 C420 0.948 . S
H463 C438 0.979 . S
H464 C438 0.980 . S
H465 C438 0.983 . S
H466 C437 0.982 . S
H467 C437 0.979 . S
H468 C437 0.977 . S
H469 C439 0.948 . S
H470 C441 0.947 . S
H471 C442 0.948 . S
H472 C448 0.982 . S
H473 C448 0.979 . S
H474 C448 0.977 1_556 S
H475 C449 0.979 . S
H476 C449 0.980 1_556 S
H477 C449 0.983 . S
H478 C422 0.947 . S
C479 C422 1.392 . S
C479 C423 1.419 . S
C479 H461 0.948 . S
Eu480 N511 2.657 1_565 S
Eu480 N518 2.609 . S
Eu480 O524 2.558 . S
Eu480 O525 2.612 1_455 S
Eu480 O527 2.339 1_455 S
Eu480 O528 2.563 . S
Eu480 O529 2.419 . S
Eu480 O531 2.380 1_565 S
Eu480 O532 2.432 . S
Eu480 C544 2.848 . S
C481 C484 1.429 1_545 S
C481 C485 1.411 . S
C481 N488 1.377 . S
C482 C484 1.420 . S
C482 C486 1.423 . S
C482 C494 1.392 . S
C483 C485 1.420 1_565 S
C483 C486 1.351 . S
C483 H506 0.931 . S
C484 C481 1.429 1_565 S
C484 C482 1.420 . S
C484 N492 1.365 . S
C485 C481 1.411 . S
C485 C483 1.420 1_545 S
C485 C490 1.395 . S
C486 C482 1.423 . S
C486 C483 1.351 . S
C486 H498 0.930 . S
C487 C489 1.400 . S
C487 C490 1.386 . S
C487 H499 0.930 . S
N488 C481 1.377 . S
N488 C489 1.321 . S
N488 Eu491 2.609 . S
C489 C487 1.400 . S
C489 N488 1.321 . S
C489 H496 0.930 . S
C490 C485 1.395 . S
C490 C487 1.386 . S
C490 H509 0.930 . S
Eu491 N488 2.609 . S
Eu491 N492 2.648 1_545 S
Eu491 O525 2.380 1_545 S
Eu491 O526 2.432 . S
Eu491 O530 2.558 . S
Eu491 O531 2.612 1_655 S
Eu491 O533 2.339 1_655 S
Eu491 O534 2.563 1_655 S
Eu491 O535 2.419 . S
Eu491 C555 2.848 . S
N492 C484 1.365 . S
N492 Eu491 2.648 1_565 S
N492 C493 1.340 1_655 S
C493 N492 1.340 1_455 S
C493 C495 1.412 1_455 S
C493 H500 0.929 . S
C494 C482 1.392 . S
C494 C495 1.388 . S
C494 H502 0.930 . S
C495 C493 1.412 1_655 S
C495 C494 1.388 . S
C495 H497 0.911 1_655 S
H496 C489 0.930 . S
H497 C495 0.911 1_455 S
H498 C486 0.930 . S
H499 C487 0.930 . S
H500 C493 0.929 . S
H501 C515 0.930 1_655 S
H502 C494 0.930 . S
H503 C521 0.930 . S
H504 C512 0.929 1_655 S
H505 C519 0.930 . S
H506 C483 0.931 . S
H507 C513 0.930 . S
H508 C546 0.930 . S
H509 C490 0.930 . S
H510 C545 0.931 . S
N511 Eu480 2.657 1_545 S
N511 C512 1.334 . S
N511 C516 1.362 . S
C512 H504 0.929 1_455 S
C512 N511 1.334 . S
C512 C515 1.413 . S
C513 H507 0.930 . S
C513 C514 1.392 . S
C513 C515 1.367 . S
C514 C513 1.392 . S
C514 C516 1.420 . S
C514 C546 1.423 . S
C515 H501 0.930 1_455 S
C515 C512 1.413 . S
C515 C513 1.367 . S
C516 N511 1.362 . S
C516 C514 1.420 . S
C516 C520 1.429 . S
H517 C522 0.928 . S
N518 Eu480 2.609 . S
N518 C520 1.377 1_565 S
N518 C521 1.321 . S
C519 H505 0.930 . S
C519 C521 1.400 . S
C519 C522 1.408 . S
C520 C516 1.429 . S
C520 N518 1.377 1_545 S
C520 C523 1.411 . S
C521 H503 0.930 . S
C521 N518 1.321 . S
C521 C519 1.400 . S
C522 H517 0.928 . S
C522 C519 1.408 . S
C522 C523 1.376 1_565 S
C523 C520 1.411 . S
C523 C522 1.376 1_545 S
C523 C545 1.420 . S
O524 Eu480 2.558 . S
O524 C544 1.257 . S
O525 Eu480 2.612 1_655 S
O525 Eu491 2.380 1_565 S
O525 C536 1.276 . S
O526 Eu491 2.432 . S
O526 C543 1.264 . S
O527 Eu480 2.339 1_655 S
O527 C543 1.254 1_565 S
O528 Eu480 2.563 . S
O528 C536 1.235 1_455 S
O529 Eu480 2.419 . S
O529 C544 1.249 . S
O530 Eu491 2.558 . S
O530 C555 1.257 . S
O531 Eu480 2.380 1_545 S
O531 Eu491 2.612 1_455 S
O531 C547 1.276 . S
O532 Eu480 2.432 . S
O532 C554 1.264 1_565 S
O533 Eu491 2.339 1_455 S
O533 C554 1.254 . S
O534 Eu491 2.563 1_455 S
O534 C547 1.235 . S
O535 Eu491 2.419 . S
O535 C555 1.249 . S
C536 O525 1.276 . S
C536 O528 1.235 1_655 S
C537 C539 1.393 . S
C537 C541 1.395 . S
C537 C544 1.492 . S
C538 C539 1.392 . S
C538 C540 1.386 . S
C539 C537 1.393 . S
C539 C538 1.392 . S
C539 H556 0.929 . S
C540 C538 1.386 . S
C540 C542 1.395 . S
C540 H557 0.930 . S
C541 C537 1.395 . S
C541 C542 1.379 . S
C541 H558 0.930 . S
C542 C540 1.395 . S
C542 C541 1.379 . S
C542 H559 0.930 . S
C543 O526 1.264 . S
C543 O527 1.254 1_545 S
C544 Eu480 2.848 . S
C544 O524 1.257 . S
C544 O529 1.249 . S
C544 C537 1.492 . S
C545 H510 0.931 . S
C545 C523 1.420 . S
C545 C546 1.351 . S
C546 H508 0.930 . S
C546 C514 1.423 . S
C546 C545 1.351 . S
C547 O531 1.276 . S
C547 O534 1.235 . S
C548 C549 1.393 . S
C548 C552 1.395 . S
C548 C555 1.492 . S
C549 C548 1.393 . S
C549 C550 1.392 . S
C549 H560 0.930 1_655 S
C550 C549 1.392 . S
C550 C551 1.386 . S
C551 C550 1.386 . S
C551 C553 1.395 . S
C551 H561 0.930 . S
C552 C548 1.395 . S
C552 C553 1.379 . S
C552 H562 0.930 . S
C553 C551 1.395 . S
C553 C552 1.379 . S
C553 H563 0.930 . S
C554 O532 1.264 1_545 S
C554 O533 1.254 . S
C555 Eu491 2.848 . S
C555 O530 1.257 . S
C555 O535 1.249 . S
C555 C548 1.492 . S
H556 C539 0.929 . S
H557 C540 0.930 . S
H558 C541 0.930 . S
H559 C542 0.930 . S
H560 C549 0.930 1_455 S
H561 C551 0.930 . S
H562 C552 0.930 . S
H563 C553 0.930 . S
Eu564 N595 2.657 . S
Eu564 N602 2.609 . S
Eu564 O608 2.558 . S
Eu564 O609 2.612 1_545 S
Eu564 O611 2.339 1_545 S
Eu564 O612 2.563 . S
Eu564 O613 2.419 . S
Eu564 O615 2.380 . S
Eu564 O616 2.432 . S
Eu564 C628 2.848 . S
C565 C568 1.429 . S
C565 C569 1.411 . S
C565 N572 1.377 . S
C566 C568 1.420 . S
C566 C570 1.423 . S
C566 C578 1.392 . S
C567 C569 1.420 . S
C567 C570 1.351 . S
C567 H590 0.931 . S
C568 C565 1.429 . S
C568 C566 1.420 . S
C568 N576 1.362 . S
C569 C565 1.411 . S
C569 C567 1.420 . S
C569 C574 1.395 . S
C570 C566 1.423 . S
C570 C567 1.351 . S
C570 H582 0.930 . S
C571 C573 1.400 . S
C571 C574 1.386 . S
C571 H583 0.930 . S
N572 C565 1.377 . S
N572 C573 1.321 . S
N572 Eu575 2.609 . S
C573 C571 1.400 . S
C573 N572 1.321 . S
C573 H580 0.930 . S
C574 C569 1.395 . S
C574 C571 1.386 . S
C574 H593 0.930 . S
Eu575 N572 2.609 . S
Eu575 N576 2.657 . S
Eu575 O609 2.380 . S
Eu575 O610 2.432 . S
Eu575 O614 2.558 . S
Eu575 O615 2.612 1_565 S
Eu575 O617 2.339 1_565 S
Eu575 O618 2.563 1_565 S
Eu575 O619 2.419 . S
Eu575 C639 2.848 . S
N576 C568 1.362 . S
N576 Eu575 2.657 . S
N576 C577 1.334 1_565 S
C577 N576 1.334 1_545 S
C577 C579 1.413 . S
C577 H584 0.929 . S
C578 C566 1.392 . S
C578 C579 1.367 1_565 S
C578 H586 0.930 . S
C579 C577 1.413 . S
C579 C578 1.367 1_545 S
C579 H581 0.930 . S
H580 C573 0.930 . S
H581 C579 0.930 . S
H582 C570 0.930 . S
H583 C571 0.930 . S
H584 C577 0.929 . S
H585 C599 0.930 1_565 S
H586 C578 0.930 . S
H587 C605 0.930 . S
H588 C596 0.929 1_565 S
H589 C603 0.930 . S
H590 C567 0.931 . S
H591 C597 0.930 . S
H592 C630 0.930 . S
H593 C574 0.930 . S
H594 C629 0.931 . S
N595 Eu564 2.657 . S
N595 C596 1.334 . S
N595 C600 1.362 . S
C596 H588 0.929 1_545 S
C596 N595 1.334 . S
C596 C599 1.413 . S
C597 H591 0.930 . S
C597 C598 1.392 . S
C597 C599 1.367 . S
C598 C597 1.392 . S
C598 C600 1.420 . S
C598 C630 1.423 . S
C599 H585 0.930 1_545 S
C599 C596 1.413 . S
C599 C597 1.367 . S
C600 N595 1.362 . S
C600 C598 1.420 . S
C600 C604 1.429 . S
H601 C606 0.930 . S
N602 Eu564 2.609 . S
N602 C604 1.377 . S
N602 C605 1.321 . S
C603 H589 0.930 . S
C603 C605 1.400 . S
C603 C606 1.386 . S
C604 C600 1.429 . S
C604 N602 1.377 . S
C604 C607 1.411 . S
C605 H587 0.930 . S
C605 N602 1.321 . S
C605 C603 1.400 . S
C606 H601 0.930 . S
C606 C603 1.386 . S
C606 C607 1.395 . S
C607 C604 1.411 . S
C607 C606 1.395 . S
C607 C629 1.420 . S
O608 Eu564 2.558 . S
O608 C628 1.257 . S
O609 Eu564 2.612 1_565 S
O609 Eu575 2.380 . S
O609 C620 1.276 . S
O610 Eu575 2.432 . S
O610 C627 1.264 . S
O611 Eu564 2.339 1_565 S
O611 C627 1.254 . S
O612 Eu564 2.563 . S
O612 C620 1.235 1_545 S
O613 Eu564 2.419 . S
O613 C628 1.249 . S
O614 Eu575 2.558 . S
O614 C639 1.257 . S
O615 Eu564 2.380 . S
O615 Eu575 2.612 1_545 S
O615 C631 1.276 . S
O616 Eu564 2.432 . S
O616 C638 1.264 . S
O617 Eu575 2.339 1_545 S
O617 C638 1.254 . S
O618 Eu575 2.563 1_545 S
O618 C631 1.235 . S
O619 Eu575 2.419 . S
O619 C639 1.249 . S
C620 O609 1.276 . S
C620 O612 1.235 1_565 S
C621 C623 1.393 . S
C621 C625 1.395 . S
C621 C628 1.492 . S
C622 C623 1.392 . S
C622 C624 1.386 . S
C623 C621 1.393 . S
C623 C622 1.392 . S
C623 H640 0.930 . S
C624 C622 1.386 . S
C624 C626 1.395 . S
C624 H641 0.930 . S
C625 C621 1.395 . S
C625 C626 1.379 . S
C625 H642 0.930 . S
C626 C624 1.395 . S
C626 C625 1.379 . S
C626 H643 0.930 . S
C627 O610 1.264 . S
C627 O611 1.254 . S
C628 Eu564 2.848 . S
C628 O608 1.257 . S
C628 O613 1.249 . S
C628 C621 1.492 . S
C629 H594 0.931 . S
C629 C607 1.420 . S
C629 C630 1.351 . S
C630 H592 0.930 . S
C630 C598 1.423 . S
C630 C629 1.351 . S
C631 O615 1.276 . S
C631 O618 1.235 . S
C632 C633 1.393 . S
C632 C636 1.395 . S
C632 C639 1.492 . S
C633 C632 1.393 . S
C633 C634 1.392 . S
C633 H644 0.930 1_565 S
C634 C633 1.392 . S
C634 C635 1.386 . S
C635 C634 1.386 . S
C635 C637 1.395 . S
C635 H645 0.930 . S
C636 C632 1.395 . S
C636 C637 1.379 . S
C636 H646 0.930 . S
C637 C635 1.395 . S
C637 C636 1.379 . S
C637 H647 0.930 . S
C638 O616 1.264 . S
C638 O617 1.254 . S
C639 Eu575 2.848 . S
C639 O614 1.257 . S
C639 O619 1.249 . S
C639 C632 1.492 . S
H640 C623 0.930 . S
H641 C624 0.930 . S
H642 C625 0.930 . S
H643 C626 0.930 . S
H644 C633 0.930 1_545 S
H645 C635 0.930 . S
H646 C636 0.930 . S
H647 C637 0.930 . S
Eu648 N679 2.657 . S
Eu648 N686 2.609 . S
Eu648 O692 2.558 . S
Eu648 O693 2.612 . S
Eu648 O695 2.339 . S
Eu648 O696 2.563 . S
Eu648 O697 2.419 . S
Eu648 O699 2.380 . S
Eu648 O700 2.432 . S
Eu648 C712 2.848 . S
C649 C652 1.429 . S
C649 C653 1.411 . S
C649 N656 1.377 . S
C650 C652 1.420 . S
C650 C654 1.423 . S
C650 C662 1.392 . S
C651 C653 1.420 . S
C651 C654 1.351 . S
C651 H674 0.931 . S
C652 C649 1.429 . S
C652 C650 1.420 . S
C652 N660 1.362 . S
C653 C649 1.411 . S
C653 C651 1.420 . S
C653 C658 1.395 . S
C654 C650 1.423 . S
C654 C651 1.351 . S
C654 H666 0.930 . S
C655 C657 1.400 . S
C655 C658 1.386 . S
C655 H667 0.930 . S
N656 C649 1.377 . S
N656 C657 1.321 . S
N656 Eu659 2.609 . S
C657 C655 1.400 . S
C657 N656 1.321 . S
C657 H664 0.930 . S
C658 C653 1.395 . S
C658 C655 1.386 . S
C658 H677 0.930 . S
Eu659 N656 2.609 . S
Eu659 N660 2.657 . S
Eu659 O693 2.380 . S
Eu659 O694 2.432 . S
Eu659 O698 2.558 . S
Eu659 O699 2.612 . S
Eu659 O701 2.339 . S
Eu659 O702 2.563 . S
Eu659 O703 2.419 . S
Eu659 C723 2.848 . S
N660 C652 1.362 . S
N660 Eu659 2.657 . S
N660 C661 1.334 . S
C661 N660 1.334 . S
C661 C663 1.413 . S
C661 H668 0.929 . S
C662 C650 1.392 . S
C662 C663 1.367 . S
C662 H670 0.930 . S
C663 C661 1.413 . S
C663 C662 1.367 . S
C663 H665 0.930 . S
H664 C657 0.930 . S
H665 C663 0.930 . S
H666 C654 0.930 . S
H667 C655 0.930 . S
H668 C661 0.929 . S
H669 C683 0.930 . S
H670 C662 0.930 . S
H671 C689 0.930 . S
H672 C680 0.929 . S
H673 C687 0.930 . S
H674 C651 0.931 . S
H675 C681 0.930 . S
H676 C714 0.930 . S
H677 C658 0.930 . S
H678 C713 0.931 . S
N679 Eu648 2.657 . S
N679 C680 1.334 . S
N679 C684 1.362 . S
C680 H672 0.929 . S
C680 N679 1.334 . S
C680 C683 1.413 . S
C681 H675 0.930 . S
C681 C682 1.392 . S
C681 C683 1.367 . S
C682 C681 1.392 . S
C682 C684 1.420 . S
C682 C714 1.423 . S
C683 H669 0.930 . S
C683 C680 1.413 . S
C683 C681 1.367 . S
C684 N679 1.362 . S
C684 C682 1.420 . S
C684 C688 1.429 . S
H685 C690 0.930 . S
N686 Eu648 2.609 . S
N686 C688 1.377 . S
N686 C689 1.321 . S
C687 H673 0.930 . S
C687 C689 1.400 . S
C687 C690 1.386 . S
C688 C684 1.429 . S
C688 N686 1.377 . S
C688 C691 1.411 . S
C689 H671 0.930 . S
C689 N686 1.321 . S
C689 C687 1.400 . S
C690 H685 0.930 . S
C690 C687 1.386 . S
C690 C691 1.395 . S
C691 C688 1.411 . S
C691 C690 1.395 . S
C691 C713 1.420 . S
O692 Eu648 2.558 . S
O692 C712 1.257 . S
O693 Eu648 2.612 . S
O693 Eu659 2.380 . S
O693 C704 1.276 . S
O694 Eu659 2.432 . S
O694 C711 1.264 . S
O695 Eu648 2.339 . S
O695 C711 1.254 . S
O696 Eu648 2.563 . S
O696 C704 1.235 . S
O697 Eu648 2.419 . S
O697 C712 1.249 . S
O698 Eu659 2.558 . S
O698 C723 1.257 . S
O699 Eu648 2.380 . S
O699 Eu659 2.612 . S
O699 C715 1.276 . S
O700 Eu648 2.432 . S
O700 C722 1.264 . S
O701 Eu659 2.339 . S
O701 C722 1.254 . S
O702 Eu659 2.563 . S
O702 C715 1.235 . S
O703 Eu659 2.419 . S
O703 C723 1.249 . S
C704 O693 1.276 . S
C704 O696 1.235 . S
C705 C707 1.393 . S
C705 C709 1.395 . S
C705 C712 1.492 . S
C706 C707 1.392 . S
C706 C708 1.386 . S
C707 C705 1.393 . S
C707 C706 1.392 . S
C707 H724 0.930 . S
C708 C706 1.386 . S
C708 C710 1.395 . S
C708 H725 0.930 . S
C709 C705 1.395 . S
C709 C710 1.379 . S
C709 H726 0.930 . S
C710 C708 1.395 . S
C710 C709 1.379 . S
C710 H727 0.930 . S
C711 O694 1.264 . S
C711 O695 1.254 . S
C712 Eu648 2.848 . S
C712 O692 1.257 . S
C712 O697 1.249 . S
C712 C705 1.492 . S
C713 H678 0.931 . S
C713 C691 1.420 . S
C713 C714 1.351 . S
C714 H676 0.930 . S
C714 C682 1.423 . S
C714 C713 1.351 . S
C715 O699 1.276 . S
C715 O702 1.235 . S
C716 C717 1.393 . S
C716 C720 1.395 . S
C716 C723 1.492 . S
C717 C716 1.393 . S
C717 C718 1.392 . S
C717 H728 0.930 . S
C718 C717 1.392 . S
C718 C719 1.386 . S
C719 C718 1.386 . S
C719 C721 1.395 . S
C719 H729 0.930 . S
C720 C716 1.395 . S
C720 C721 1.379 . S
C720 H730 0.930 . S
C721 C719 1.395 . S
C721 C720 1.379 . S
C721 H731 0.930 . S
C722 O700 1.264 . S
C722 O701 1.254 . S
C723 Eu659 2.848 . S
C723 O698 1.257 . S
C723 O703 1.249 . S
C723 C716 1.492 . S
H724 C707 0.930 . S
H725 C708 0.930 . S
H726 C709 0.930 . S
H727 C710 0.930 . S
H728 C717 0.930 . S
H729 C719 0.930 . S
H730 C720 0.930 . S
H731 C721 0.930 . S
Eu732 N763 2.657 . S
Eu732 N770 2.609 . S
Eu732 O776 2.558 . S
Eu732 O777 2.612 . S
Eu732 O779 2.339 . S
Eu732 O780 2.563 . S
Eu732 O781 2.419 . S
Eu732 O783 2.381 . S
Eu732 O784 2.432 1_455 S
Eu732 C796 2.848 . S
C733 C736 1.429 . S
C733 C737 1.411 . S
C733 N740 1.377 . S
C734 C736 1.420 . S
C734 C738 1.423 . S
C734 C746 1.392 . S
C735 C737 1.420 . S
C735 C738 1.351 . S
C735 H758 0.931 . S
C736 C733 1.429 . S
C736 C734 1.420 . S
C736 N744 1.362 . S
C737 C733 1.411 . S
C737 C735 1.420 . S
C737 C742 1.395 . S
C738 C734 1.423 . S
C738 C735 1.351 . S
C738 H750 0.930 . S
C739 C741 1.400 . S
C739 C742 1.386 1_455 S
C739 H751 0.930 . S
N740 C733 1.377 . S
N740 C741 1.321 1_655 S
N740 Eu743 2.609 . S
C741 C739 1.400 . S
C741 N740 1.321 1_455 S
C741 H748 0.930 . S
C742 C737 1.395 . S
C742 C739 1.386 1_655 S
C742 H761 0.930 . S
Eu743 N740 2.609 . S
Eu743 N744 2.657 . S
Eu743 O777 2.380 1_655 S
Eu743 O778 2.432 1_655 S
Eu743 O782 2.558 . S
Eu743 O783 2.612 1_655 S
Eu743 O785 2.339 . S
Eu743 O786 2.563 . S
Eu743 O787 2.419 . S
Eu743 C807 2.848 . S
N744 C736 1.362 . S
N744 Eu743 2.657 . S
N744 C745 1.334 . S
C745 N744 1.334 . S
C745 C747 1.413 . S
C745 H752 0.929 . S
C746 C734 1.392 . S
C746 C747 1.367 . S
C746 H754 0.930 . S
C747 C745 1.413 . S
C747 C746 1.367 . S
C747 H749 0.930 . S
H748 C741 0.930 . S
H749 C747 0.930 . S
H750 C738 0.930 . S
H751 C739 0.930 . S
H752 C745 0.929 . S
H753 C767 0.930 . S
H754 C746 0.930 . S
H755 C773 0.930 1_655 S
H756 C764 0.929 . S
H757 C771 0.932 . S
H758 C735 0.931 . S
H759 C765 0.930 . S
H760 C798 0.930 . S
H761 C742 0.930 . S
H762 C797 0.931 . S
N763 Eu732 2.657 . S
N763 C764 1.334 . S
N763 C768 1.362 . S
C764 H756 0.929 . S
C764 N763 1.334 . S
C764 C767 1.413 . S
C765 H759 0.930 . S
C765 C766 1.392 . S
C765 C767 1.367 . S
C766 C765 1.392 . S
C766 C768 1.420 . S
C766 C798 1.423 . S
C767 H753 0.930 . S
C767 C764 1.413 . S
C767 C765 1.367 . S
C768 N763 1.362 . S
C768 C766 1.420 . S
C768 C772 1.429 . S
H769 C774 0.930 . S
N770 Eu732 2.609 . S
N770 C772 1.377 . S
N770 C773 1.321 . S
C771 H757 0.932 . S
C771 C773 1.399 1_655 S
C771 C774 1.383 1_655 S
C772 C768 1.429 . S
C772 N770 1.377 . S
C772 C775 1.411 . S
C773 H755 0.930 1_455 S
C773 N770 1.321 . S
C773 C771 1.399 1_455 S
C774 H769 0.930 . S
C774 C771 1.383 1_455 S
C774 C775 1.395 . S
C775 C772 1.411 . S
C775 C774 1.395 . S
C775 C797 1.420 . S
O776 Eu732 2.558 . S
O776 C796 1.257 . S
O777 Eu732 2.612 . S
O777 Eu743 2.380 1_455 S
O777 C788 1.276 . S
O778 Eu743 2.432 1_455 S
O778 C795 1.264 . S
O779 Eu732 2.339 . S
O779 C795 1.254 . S
O780 Eu732 2.563 . S
O780 C788 1.235 . S
O781 Eu732 2.419 . S
O781 C796 1.249 . S
O782 Eu743 2.558 . S
O782 C807 1.257 . S
O783 Eu732 2.381 . S
O783 Eu743 2.612 1_455 S
O783 C799 1.275 1_455 S
O784 Eu732 2.432 1_655 S
O784 C806 1.264 . S
O785 Eu743 2.339 . S
O785 C806 1.254 . S
O786 Eu743 2.563 . S
O786 C799 1.235 . S
O787 Eu743 2.419 . S
O787 C807 1.249 . S
C788 O777 1.276 . S
C788 O780 1.235 . S
C789 C791 1.393 . S
C789 C793 1.395 . S
C789 C796 1.492 . S
C790 C791 1.392 . S
C790 C792 1.386 . S
C791 C789 1.393 . S
C791 C790 1.392 . S
C791 H808 0.930 . S
C792 C790 1.386 . S
C792 C794 1.395 . S
C792 H809 0.930 . S
C793 C789 1.395 . S
C793 C794 1.379 . S
C793 H810 0.930 . S
C794 C792 1.395 . S
C794 C793 1.379 . S
C794 H811 0.930 . S
C795 O778 1.264 . S
C795 O779 1.254 . S
C796 Eu732 2.848 . S
C796 O776 1.257 . S
C796 O781 1.249 . S
C796 C789 1.492 . S
C797 H762 0.931 . S
C797 C775 1.420 . S
C797 C798 1.351 . S
C798 H760 0.930 . S
C798 C766 1.423 . S
C798 C797 1.351 . S
C799 O783 1.275 1_655 S
C799 O786 1.235 . S
C800 C801 1.393 . S
C800 C804 1.395 . S
C800 C807 1.492 . S
C801 C800 1.393 . S
C801 C802 1.392 . S
C801 H812 0.930 . S
C802 C801 1.392 . S
C802 C803 1.386 . S
C803 C802 1.386 . S
C803 C805 1.395 . S
C803 H813 0.930 . S
C804 C800 1.395 . S
C804 C805 1.379 . S
C804 H814 0.930 . S
C805 C803 1.395 . S
C805 C804 1.379 . S
C805 H815 0.930 . S
C806 O784 1.264 . S
C806 O785 1.254 . S
C807 Eu743 2.848 . S
C807 O782 1.257 . S
C807 O787 1.249 . S
C807 C800 1.492 . S
H808 C791 0.930 . S
H809 C792 0.930 . S
H810 C793 0.930 . S
H811 C794 0.930 . S
H812 C801 0.930 . S
H813 C803 0.930 . S
H814 C804 0.930 . S
H815 C805 0.930 . S
H816 C822 0.930 . S
H817 C826 0.930 . S
H818 C831 0.929 . S
H819 C829 0.929 . S
H820 C824 0.929 . S
H821 C830 0.929 . S
C822 H816 0.930 . S
C822 C823 1.367 . S
C822 C830 1.378 . S
C823 C822 1.367 . S
C823 C831 1.433 . S
C824 H820 0.929 . S
C824 C826 1.378 . S
C824 C828 1.350 . S
C825 C828 1.463 . S
C825 C830 1.350 . S
C825 N833 1.427 . S
C826 H817 0.930 . S
C826 C824 1.378 . S
C826 C827 1.367 . S
C827 C826 1.367 . S
C827 C829 1.433 . S
C828 C824 1.350 . S
C828 C825 1.463 . S
C828 N832 1.427 . S
C829 H819 0.929 . S
C829 C827 1.433 . S
C829 N832 1.384 . S
C830 H821 0.929 . S
C830 C822 1.378 . S
C830 C825 1.350 . S
C831 H818 0.929 . S
C831 C823 1.433 . S
C831 N833 1.384 . S
N832 C828 1.427 . S
N832 C829 1.384 . S
N833 C825 1.427 . S
N833 C831 1.384 . S
H834 C840 0.930 . S
H835 C844 0.930 . S
H836 C849 0.929 . S
H837 C847 0.929 . S
H838 C842 0.929 . S
H839 C848 0.929 . S
C840 H834 0.930 . S
C840 C841 1.367 . S
C840 C848 1.378 . S
C841 C840 1.367 . S
C841 C849 1.433 . S
C842 H838 0.929 . S
C842 C844 1.378 . S
C842 C846 1.350 . S
C843 C846 1.463 . S
C843 C848 1.350 . S
C843 N851 1.427 . S
C844 H835 0.930 . S
C844 C842 1.378 . S
C844 C845 1.367 . S
C845 C844 1.367 . S
C845 C847 1.433 . S
C846 C842 1.350 . S
C846 C843 1.463 . S
C846 N850 1.427 . S
C847 H837 0.929 . S
C847 C845 1.433 . S
C847 N850 1.384 . S
C848 H839 0.929 . S
C848 C840 1.378 . S
C848 C843 1.350 . S
C849 H836 0.929 . S
C849 C841 1.433 . S
C849 N851 1.384 . S
N850 C846 1.427 . S
N850 C847 1.384 . S
N851 C843 1.427 . S
N851 C849 1.384 . S
H852 C858 0.930 . S
H853 C862 0.930 . S
H854 C867 0.929 . S
H855 C865 0.929 . S
H856 C860 0.929 . S
H857 C866 0.929 . S
C858 H852 0.930 . S
C858 C859 1.367 . S
C858 C866 1.378 . S
C859 C858 1.367 . S
C859 C867 1.433 . S
C860 H856 0.929 . S
C860 C862 1.378 . S
C860 C864 1.350 . S
C861 C864 1.463 . S
C861 C866 1.350 . S
C861 N869 1.427 . S
C862 H853 0.930 . S
C862 C860 1.378 . S
C862 C863 1.367 . S
C863 C862 1.367 . S
C863 C865 1.433 . S
C864 C860 1.350 . S
C864 C861 1.463 . S
C864 N868 1.427 . S
C865 H855 0.929 . S
C865 C863 1.433 . S
C865 N868 1.384 . S
C866 H857 0.929 . S
C866 C858 1.378 . S
C866 C861 1.350 . S
C867 H854 0.929 . S
C867 C859 1.433 . S
C867 N869 1.384 . S
N868 C864 1.427 . S
N868 C865 1.384 . S
N869 C861 1.427 . S
N869 C867 1.384 . S
H870 C876 0.930 . S
H871 C880 0.930 . S
H872 C885 0.929 . S
H873 C883 0.929 . S
H874 C878 0.929 . S
H875 C884 0.929 . S
C876 H870 0.930 . S
C876 C877 1.367 . S
C876 C884 1.378 . S
C877 C876 1.367 . S
C877 C885 1.433 . S
C878 H874 0.929 . S
C878 C880 1.378 . S
C878 C882 1.350 . S
C879 C882 1.463 . S
C879 C884 1.350 . S
C879 N887 1.427 . S
C880 H871 0.930 . S
C880 C878 1.378 . S
C880 C881 1.367 . S
C881 C880 1.367 . S
C881 C883 1.433 . S
C882 C878 1.350 . S
C882 C879 1.463 . S
C882 N886 1.427 . S
C883 H873 0.929 . S
C883 C881 1.433 . S
C883 N886 1.384 . S
C884 H875 0.929 . S
C884 C876 1.378 . S
C884 C879 1.350 . S
C885 H872 0.929 . S
C885 C877 1.433 . S
C885 N887 1.384 . S
N886 C882 1.427 . S
N886 C883 1.384 . S
N887 C879 1.427 . S
N887 C885 1.384 . S
H888 C894 0.930 . S
H889 C898 0.930 . S
H890 C903 0.929 . S
H891 C901 0.929 . S
H892 C896 0.929 . S
H893 C902 0.929 1_556 S
C894 H888 0.930 . S
C894 C895 1.367 . S
C894 C902 1.378 . S
C895 C894 1.367 . S
C895 C903 1.433 . S
C896 H892 0.929 . S
C896 C898 1.378 . S
C896 C900 1.350 . S
C897 C900 1.463 . S
C897 C902 1.350 1_556 S
C897 N905 1.427 . S
C898 H889 0.930 . S
C898 C896 1.378 . S
C898 C899 1.367 . S
C899 C898 1.367 . S
C899 C901 1.433 1_565 S
C900 C896 1.350 . S
C900 C897 1.463 . S
C900 N904 1.427 . S
C901 H891 0.929 . S
C901 C899 1.433 1_545 S
C901 N904 1.384 1_545 S
C902 H893 0.929 1_554 S
C902 C894 1.378 . S
C902 C897 1.350 1_554 S
C903 H890 0.929 . S
C903 C895 1.433 . S
C903 N905 1.384 1_554 S
N904 C900 1.427 . S
N904 C901 1.384 1_565 S
N905 C897 1.427 . S
N905 C903 1.384 1_556 S
H906 C912 0.930 . S
H907 C916 0.930 . S
H908 C921 0.929 . S
H909 C919 0.929 . S
H910 C914 0.929 . S
H911 C920 0.929 . S
C912 H906 0.930 . S
C912 C913 1.367 . S
C912 C920 1.378 1_554 S
C913 C912 1.367 . S
C913 C921 1.433 . S
C914 H910 0.929 . S
C914 C916 1.378 . S
C914 C918 1.350 . S
C915 C918 1.463 . S
C915 C920 1.350 . S
C915 N923 1.427 . S
C916 H907 0.930 . S
C916 C914 1.378 . S
C916 C917 1.367 . S
C917 C916 1.367 . S
C917 C919 1.433 . S
C918 C914 1.350 . S
C918 C915 1.463 . S
C918 N922 1.427 . S
C919 H909 0.929 . S
C919 C917 1.433 . S
C919 N922 1.384 . S
C920 H911 0.929 . S
C920 C912 1.378 1_556 S
C920 C915 1.350 . S
C921 H908 0.929 . S
C921 C913 1.433 . S
C921 N923 1.384 1_554 S
N922 C918 1.427 . S
N922 C919 1.384 . S
N923 C915 1.427 . S
N923 C921 1.384 1_556 S
H924 C930 0.930 . S
H925 C934 0.930 . S
H926 C939 0.929 . S
H927 C937 0.929 . S
H928 C932 0.929 . S
H929 C938 0.929 . S
C930 H924 0.930 . S
C930 C931 1.367 . S
C930 C938 1.378 1_554 S
C931 C930 1.367 . S
C931 C939 1.433 . S
C932 H928 0.929 . S
C932 C934 1.378 . S
C932 C936 1.350 . S
C933 C936 1.463 . S
C933 C938 1.350 . S
C933 N941 1.427 1_556 S
C934 H925 0.930 . S
C934 C932 1.378 . S
C934 C935 1.367 . S
C935 C934 1.367 . S
C935 C937 1.433 . S
C936 C932 1.350 . S
C936 C933 1.463 . S
C936 N940 1.427 . S
C937 H927 0.929 . S
C937 C935 1.433 . S
C937 N940 1.384 . S
C938 H929 0.929 . S
C938 C930 1.378 1_556 S
C938 C933 1.350 . S
C939 H926 0.929 . S
C939 C931 1.433 . S
C939 N941 1.384 . S
N940 C936 1.427 . S
N940 C937 1.384 . S
N941 C933 1.427 1_554 S
N941 C939 1.384 . S
H942 C948 0.930 . S
H943 C952 0.930 . S
H944 C957 0.929 . S
H945 C955 0.929 1_455 S
H946 C950 0.929 . S
H947 C956 0.929 . S
C948 H942 0.930 . S
C948 C949 1.367 . S
C948 C956 1.378 1_554 S
C949 C948 1.367 . S
C949 C957 1.433 . S
C950 H946 0.929 . S
C950 C952 1.378 . S
C950 C954 1.350 . S
C951 C954 1.463 . S
C951 C956 1.350 . S
C951 N959 1.427 . S
C952 H943 0.930 . S
C952 C950 1.378 . S
C952 C953 1.367 . S
C953 C952 1.367 . S
C953 C955 1.433 . S
C954 C950 1.350 . S
C954 C951 1.463 . S
C954 N958 1.427 . S
C955 H945 0.929 1_655 S
C955 C953 1.433 . S
C955 N958 1.384 . S
C956 H947 0.929 . S
C956 C948 1.378 1_556 S
C956 C951 1.350 . S
C957 H944 0.929 . S
C957 C949 1.433 . S
C957 N959 1.384 1_554 S
N958 C954 1.427 . S
N958 C955 1.384 . S
N959 C951 1.427 . S
N959 C957 1.384 1_556 S
H960 C966 0.930 . S
H961 C970 0.937 . S
H962 C975 0.929 . S
H963 C973 0.929 . S
H964 C968 0.929 . S
H965 C974 0.929 . S
C966 H960 0.930 . S
C966 C967 1.367 . S
C966 C974 1.378 . S
C967 C966 1.367 . S
C967 C975 1.433 . S
C968 H964 0.929 . S
C968 C970 1.371 1_455 S
C968 C972 1.350 . S
C969 C972 1.463 . S
C969 C974 1.350 . S
C969 N977 1.427 . S
C970 H961 0.937 . S
C970 C968 1.371 1_655 S
C970 C971 1.366 1_655 S
C971 C970 1.366 1_455 S
C971 C973 1.433 . S
C972 C968 1.350 . S
C972 C969 1.463 . S
C972 N976 1.427 . S
C973 H963 0.929 . S
C973 C971 1.433 . S
C973 N976 1.384 . S
C974 H965 0.929 . S
C974 C966 1.378 . S
C974 C969 1.350 . S
C975 H962 0.929 . S
C975 C967 1.433 . S
C975 N977 1.384 . S
N976 C972 1.427 . S
N976 C973 1.384 . S
N977 C969 1.427 . S
N977 C975 1.384 . S
H978 C984 0.930 . S
H979 C988 0.930 . S
H980 C993 0.929 . S
H981 C991 0.929 . S
H982 C986 0.929 . S
H983 C992 0.929 . S
C984 H978 0.930 . S
C984 C985 1.367 . S
C984 C992 1.378 . S
C985 C984 1.367 . S
C985 C993 1.433 . S
C986 H982 0.929 . S
C986 C988 1.378 1_545 S
C986 C990 1.350 . S
C987 C990 1.463 . S
C987 C992 1.350 . S
C987 N995 1.427 . S
C988 H979 0.930 . S
C988 C986 1.378 1_565 S
C988 C989 1.367 1_565 S
C989 C988 1.367 1_545 S
C989 C991 1.430 . S
C990 C986 1.350 . S
C990 C987 1.463 . S
C990 N994 1.427 . S
C991 H981 0.929 . S
C991 C989 1.430 . S
C991 N994 1.384 . S
C992 H983 0.929 . S
C992 C984 1.378 . S
C992 C987 1.350 . S
C993 H980 0.929 . S
C993 C985 1.433 . S
C993 N995 1.384 . S
N994 C990 1.427 . S
N994 C991 1.384 . S
N995 C987 1.427 . S
N995 C993 1.384 . S
H996 C1002 0.930 . S
H997 C1006 0.930 . S
H998 C1011 0.929 . S
H999 C1009 0.929 . S
H1000 C1004 0.929 . S
H1001 C1010 0.929 . S
C1002 H996 0.930 . S
C1002 C1003 1.367 . S
C1002 C1010 1.378 . S
C1003 C1002 1.367 . S
C1003 C1011 1.433 . S
C1004 H1000 0.929 . S
C1004 C1006 1.378 . S
C1004 C1008 1.350 . S
C1005 C1008 1.463 . S
C1005 C1010 1.350 . S
C1005 N1013 1.427 . S
C1006 H997 0.930 . S
C1006 C1004 1.378 . S
C1006 C1007 1.367 . S
C1007 C1006 1.367 . S
C1007 C1009 1.433 . S
C1008 C1004 1.350 . S
C1008 C1005 1.463 . S
C1008 N1012 1.427 . S
C1009 H999 0.929 . S
C1009 C1007 1.433 . S
C1009 N1012 1.384 . S
C1010 H1001 0.929 . S
C1010 C1002 1.378 . S
C1010 C1005 1.350 . S
C1011 H998 0.929 . S
C1011 C1003 1.433 . S
C1011 N1013 1.384 . S
N1012 C1008 1.427 . S
N1012 C1009 1.384 . S
N1013 C1005 1.427 . S
N1013 C1011 1.384 . S
H1014 C1020 0.930 . S
H1015 C1024 0.930 . S
H1016 C1029 0.929 . S
H1017 C1027 0.929 . S
H1018 C1022 0.929 . S
H1019 C1028 0.929 . S
C1020 H1014 0.930 . S
C1020 C1021 1.367 . S
C1020 C1028 1.378 . S
C1021 C1020 1.367 . S
C1021 C1029 1.433 . S
C1022 H1018 0.929 . S
C1022 C1024 1.378 . S
C1022 C1026 1.350 . S
C1023 C1026 1.463 . S
C1023 C1028 1.350 . S
C1023 N1031 1.427 . S
C1024 H1015 0.930 . S
C1024 C1022 1.378 . S
C1024 C1025 1.367 . S
C1025 C1024 1.367 . S
C1025 C1027 1.433 . S
C1026 C1022 1.350 . S
C1026 C1023 1.463 . S
C1026 N1030 1.427 . S
C1027 H1017 0.929 . S
C1027 C1025 1.433 . S
C1027 N1030 1.384 . S
C1028 H1019 0.929 . S
C1028 C1020 1.378 . S
C1028 C1023 1.350 . S
C1029 H1016 0.929 . S
C1029 C1021 1.433 . S
C1029 N1031 1.384 . S
N1030 C1026 1.427 . S
N1030 C1027 1.384 . S
N1031 C1023 1.427 . S
N1031 C1029 1.384 . S
H1032 C1038 0.930 . S
H1033 C1042 0.930 . S
H1034 C1047 0.929 . S
H1035 C1045 0.929 . S
H1036 C1040 0.929 . S
H1037 C1046 0.929 . S
C1038 H1032 0.930 . S
C1038 C1039 1.367 1_554 S
C1038 C1046 1.378 1_554 S
C1039 C1038 1.367 1_556 S
C1039 C1047 1.433 . S
C1040 H1036 0.929 . S
C1040 C1042 1.378 . S
C1040 C1044 1.350 . S
C1041 C1044 1.463 . S
C1041 C1046 1.350 . S
C1041 N1049 1.427 . S
C1042 H1033 0.930 . S
C1042 C1040 1.378 . S
C1042 C1043 1.367 1_655 S
C1043 C1042 1.367 1_455 S
C1043 C1045 1.433 . S
C1044 C1040 1.350 . S
C1044 C1041 1.463 . S
C1044 N1048 1.427 1_655 S
C1045 H1035 0.929 . S
C1045 C1043 1.433 . S
C1045 N1048 1.384 . S
C1046 H1037 0.929 . S
C1046 C1038 1.378 1_556 S
C1046 C1041 1.350 . S
C1047 H1034 0.929 . S
C1047 C1039 1.433 . S
C1047 N1049 1.384 . S
N1048 C1044 1.427 1_455 S
N1048 C1045 1.384 . S
N1049 C1041 1.427 . S
N1049 C1047 1.384 . S
H1050 C1056 0.930 . S
H1051 C1060 0.930 . S
H1052 C1065 0.929 . S
H1053 C1063 0.929 . S
H1054 C1058 0.929 . S
H1055 C1064 0.929 . S
C1056 H1050 0.930 . S
C1056 C1057 1.367 . S
C1056 C1064 1.378 . S
C1057 C1056 1.367 . S
C1057 C1065 1.433 1_556 S
C1058 H1054 0.929 . S
C1058 C1060 1.378 1_565 S
C1058 C1062 1.350 . S
C1059 C1062 1.463 . S
C1059 C1064 1.350 . S
C1059 N1067 1.427 1_556 S
C1060 H1051 0.930 . S
C1060 C1058 1.378 1_545 S
C1060 C1061 1.367 . S
C1061 C1060 1.367 . S
C1061 C1063 1.433 1_545 S
C1062 C1058 1.350 . S
C1062 C1059 1.463 . S
C1062 N1066 1.427 . S
C1063 H1053 0.929 . S
C1063 C1061 1.433 1_565 S
C1063 N1066 1.384 . S
C1064 H1055 0.929 . S
C1064 C1056 1.378 . S
C1064 C1059 1.350 . S
C1065 H1052 0.929 . S
C1065 C1057 1.433 1_554 S
C1065 N1067 1.384 . S
N1066 C1062 1.427 . S
N1066 C1063 1.384 . S
N1067 C1059 1.427 1_554 S
N1067 C1065 1.384 . S
H1068 C1074 0.930 1_554 S
H1069 C1078 0.930 . S
H1070 C1083 0.929 . S
H1071 C1081 0.929 . S
H1072 C1076 0.929 . S
H1073 C1082 0.929 . S
C1074 H1068 0.930 1_556 S
C1074 C1075 1.367 . S
C1074 C1082 1.378 . S
C1075 C1074 1.367 . S
C1075 C1083 1.433 . S
C1076 H1072 0.929 . S
C1076 C1078 1.378 . S
C1076 C1080 1.350 . S
C1077 C1080 1.463 . S
C1077 C1082 1.350 . S
C1077 N1085 1.427 . S
C1078 H1069 0.930 . S
C1078 C1076 1.378 . S
C1078 C1079 1.367 . S
C1079 C1078 1.367 . S
C1079 C1081 1.433 . S
C1080 C1076 1.350 . S
C1080 C1077 1.463 . S
C1080 N1084 1.427 . S
C1081 H1071 0.929 . S
C1081 C1079 1.433 . S
C1081 N1084 1.384 . S
C1082 H1073 0.929 . S
C1082 C1074 1.378 . S
C1082 C1077 1.350 . S
C1083 H1070 0.929 . S
C1083 C1075 1.433 . S
C1083 N1085 1.384 . S
N1084 C1080 1.427 . S
N1084 C1081 1.384 . S
N1085 C1077 1.427 . S
N1085 C1083 1.384 . S
H1086 C1092 0.930 . S
H1087 C1096 0.930 . S
H1088 C1101 0.929 . S
H1089 C1099 0.929 . S
H1090 C1094 0.929 . S
H1091 C1100 0.929 . S
C1092 H1086 0.930 . S
C1092 C1093 1.367 . S
C1092 C1100 1.378 . S
C1093 C1092 1.367 . S
C1093 C1101 1.433 . S
C1094 H1090 0.929 . S
C1094 C1096 1.378 . S
C1094 C1098 1.350 . S
C1095 C1098 1.463 . S
C1095 C1100 1.350 . S
C1095 N1103 1.427 . S
C1096 H1087 0.930 . S
C1096 C1094 1.378 . S
C1096 C1097 1.367 . S
C1097 C1096 1.367 . S
C1097 C1099 1.433 . S
C1098 C1094 1.350 . S
C1098 C1095 1.463 . S
C1098 N1102 1.427 . S
C1099 H1089 0.929 . S
C1099 C1097 1.433 . S
C1099 N1102 1.384 . S
C1100 H1091 0.929 . S
C1100 C1092 1.378 . S
C1100 C1095 1.350 . S
C1101 H1088 0.929 . S
C1101 C1093 1.433 . S
C1101 N1103 1.384 . S
N1102 C1098 1.427 . S
N1102 C1099 1.384 . S
N1103 C1095 1.427 . S
N1103 C1101 1.384 . S
H1104 C1110 0.930 . S
H1105 C1114 0.930 . S
H1106 C1119 0.929 . S
H1107 C1117 0.929 . S
H1108 C1112 0.929 . S
H1109 C1118 0.929 . S
C1110 H1104 0.930 . S
C1110 C1111 1.367 . S
C1110 C1118 1.378 . S
C1111 C1110 1.367 . S
C1111 C1119 1.433 . S
C1112 H1108 0.929 . S
C1112 C1114 1.378 . S
C1112 C1116 1.350 . S
C1113 C1116 1.463 . S
C1113 C1118 1.350 . S
C1113 N1121 1.427 . S
C1114 H1105 0.930 . S
C1114 C1112 1.378 . S
C1114 C1115 1.367 . S
C1115 C1114 1.367 . S
C1115 C1117 1.433 . S
C1116 C1112 1.350 . S
C1116 C1113 1.463 . S
C1116 N1120 1.427 . S
C1117 H1107 0.929 . S
C1117 C1115 1.433 . S
C1117 N1120 1.384 . S
C1118 H1109 0.929 . S
C1118 C1110 1.378 . S
C1118 C1113 1.350 . S
C1119 H1106 0.929 . S
C1119 C1111 1.433 . S
C1119 N1121 1.384 . S
N1120 C1116 1.427 . S
N1120 C1117 1.384 . S
N1121 C1113 1.427 . S
N1121 C1119 1.384 . S
H1122 C1128 0.930 . S
H1123 C1132 0.930 . S
H1124 C1137 0.929 . S
H1125 C1135 0.929 . S
H1126 C1130 0.929 . S
H1127 C1136 0.929 . S
C1128 H1122 0.930 . S
C1128 C1129 1.367 . S
C1128 C1136 1.378 . S
C1129 C1128 1.367 . S
C1129 C1137 1.433 . S
C1130 H1126 0.929 . S
C1130 C1132 1.378 . S
C1130 C1134 1.350 . S
C1131 C1134 1.463 . S
C1131 C1136 1.350 . S
C1131 N1139 1.427 . S
C1132 H1123 0.930 . S
C1132 C1130 1.378 . S
C1132 C1133 1.367 . S
C1133 C1132 1.367 . S
C1133 C1135 1.433 . S
C1134 C1130 1.350 . S
C1134 C1131 1.463 . S
C1134 N1138 1.427 . S
C1135 H1125 0.929 . S
C1135 C1133 1.433 . S
C1135 N1138 1.384 . S
C1136 H1127 0.929 . S
C1136 C1128 1.378 . S
C1136 C1131 1.350 . S
C1137 H1124 0.929 . S
C1137 C1129 1.433 . S
C1137 N1139 1.384 . S
N1138 C1134 1.427 . S
N1138 C1135 1.384 . S
N1139 C1131 1.427 . S
N1139 C1137 1.384 . S
H1140 C1146 0.930 . S
H1141 C1150 0.930 . S
H1142 C1155 0.929 . S
H1143 C1153 0.929 . S
H1144 C1148 0.929 . S
H1145 C1154 0.929 . S
C1146 H1140 0.930 . S
C1146 C1147 1.367 . S
C1146 C1154 1.378 . S
C1147 C1146 1.367 . S
C1147 C1155 1.433 . S
C1148 H1144 0.929 . S
C1148 C1150 1.378 . S
C1148 C1152 1.350 . S
C1149 C1152 1.463 . S
C1149 C1154 1.350 . S
C1149 N1157 1.427 . S
C1150 H1141 0.930 . S
C1150 C1148 1.378 . S
C1150 C1151 1.367 . S
C1151 C1150 1.367 . S
C1151 C1153 1.433 . S
C1152 C1148 1.350 . S
C1152 C1149 1.463 . S
C1152 N1156 1.427 . S
C1153 H1143 0.929 . S
C1153 C1151 1.433 . S
C1153 N1156 1.384 . S
C1154 H1145 0.929 . S
C1154 C1146 1.378 . S
C1154 C1149 1.350 . S
C1155 H1142 0.929 . S
C1155 C1147 1.433 . S
C1155 N1157 1.384 . S
N1156 C1152 1.427 . S
N1156 C1153 1.384 . S
N1157 C1149 1.427 . S
N1157 C1155 1.384 . S
H1158 C1164 0.930 . S
H1159 C1168 0.930 . S
H1160 C1173 0.929 . S
H1161 C1171 0.929 . S
H1162 C1166 0.929 . S
H1163 C1172 0.929 . S
C1164 H1158 0.930 . S
C1164 C1165 1.367 . S
C1164 C1172 1.378 . S
C1165 C1164 1.367 . S
C1165 C1173 1.433 . S
C1166 H1162 0.929 . S
C1166 C1168 1.378 . S
C1166 C1170 1.350 . S
C1167 C1170 1.463 . S
C1167 C1172 1.350 . S
C1167 N1175 1.427 . S
C1168 H1159 0.930 . S
C1168 C1166 1.378 . S
C1168 C1169 1.367 . S
C1169 C1168 1.367 . S
C1169 C1171 1.433 . S
C1170 C1166 1.350 . S
C1170 C1167 1.463 . S
C1170 N1174 1.427 . S
C1171 H1161 0.929 . S
C1171 C1169 1.433 . S
C1171 N1174 1.384 . S
C1172 H1163 0.929 . S
C1172 C1164 1.378 . S
C1172 C1167 1.350 . S
C1173 H1160 0.929 . S
C1173 C1165 1.433 . S
C1173 N1175 1.384 . S
N1174 C1170 1.427 . S
N1174 C1171 1.384 . S
N1175 C1167 1.427 . S
N1175 C1173 1.384 . S
H1176 C1182 0.930 . S
H1177 C1186 0.930 . S
H1178 C1191 0.929 . S
H1179 C1189 0.929 . S
H1180 C1184 0.929 . S
H1181 C1190 0.929 . S
C1182 H1176 0.930 . S
C1182 C1183 1.367 . S
C1182 C1190 1.378 . S
C1183 C1182 1.367 . S
C1183 C1191 1.433 . S
C1184 H1180 0.929 . S
C1184 C1186 1.378 . S
C1184 C1188 1.350 . S
C1185 C1188 1.463 . S
C1185 C1190 1.350 . S
C1185 N1193 1.427 . S
C1186 H1177 0.930 . S
C1186 C1184 1.378 . S
C1186 C1187 1.367 . S
C1187 C1186 1.367 . S
C1187 C1189 1.433 . S
C1188 C1184 1.350 . S
C1188 C1185 1.463 . S
C1188 N1192 1.427 . S
C1189 H1179 0.929 . S
C1189 C1187 1.433 . S
C1189 N1192 1.384 . S
C1190 H1181 0.929 . S
C1190 C1182 1.378 . S
C1190 C1185 1.350 . S
C1191 H1178 0.929 . S
C1191 C1183 1.433 . S
C1191 N1193 1.384 . S
N1192 C1188 1.427 . S
N1192 C1189 1.384 . S
N1193 C1185 1.427 . S
N1193 C1191 1.384 . S
H1194 C1200 0.930 . S
H1195 C1204 0.930 . S
H1196 C1209 0.929 . S
H1197 C1207 0.929 . S
H1198 C1202 0.929 . S
H1199 C1208 0.929 . S
C1200 H1194 0.930 . S
C1200 C1201 1.367 . S
C1200 C1208 1.378 . S
C1201 C1200 1.367 . S
C1201 C1209 1.433 . S
C1202 H1198 0.929 . S
C1202 C1204 1.378 . S
C1202 C1206 1.350 . S
C1203 C1206 1.463 . S
C1203 C1208 1.350 . S
C1203 N1211 1.427 . S
C1204 H1195 0.930 . S
C1204 C1202 1.378 . S
C1204 C1205 1.367 . S
C1205 C1204 1.367 . S
C1205 C1207 1.433 . S
C1206 C1202 1.350 . S
C1206 C1203 1.463 . S
C1206 N1210 1.427 . S
C1207 H1197 0.929 . S
C1207 C1205 1.433 . S
C1207 N1210 1.384 . S
C1208 H1199 0.929 . S
C1208 C1200 1.378 . S
C1208 C1203 1.350 . S
C1209 H1196 0.929 . S
C1209 C1201 1.433 . S
C1209 N1211 1.384 . S
N1210 C1206 1.427 . S
N1210 C1207 1.384 . S
N1211 C1203 1.427 . S
N1211 C1209 1.384 . S
H1212 C1218 0.930 . S
H1213 C1222 0.930 . S
H1214 C1227 0.929 . S
H1215 C1225 0.929 . S
H1216 C1220 0.929 . S
H1217 C1226 0.929 . S
C1218 H1212 0.930 . S
C1218 C1219 1.367 . S
C1218 C1226 1.378 . S
C1219 C1218 1.367 . S
C1219 C1227 1.433 . S
C1220 H1216 0.929 . S
C1220 C1222 1.378 . S
C1220 C1224 1.350 . S
C1221 C1224 1.463 . S
C1221 C1226 1.350 . S
C1221 N1229 1.427 . S
C1222 H1213 0.930 . S
C1222 C1220 1.378 . S
C1222 C1223 1.367 . S
C1223 C1222 1.367 . S
C1223 C1225 1.433 . S
C1224 C1220 1.350 . S
C1224 C1221 1.463 . S
C1224 N1228 1.427 . S
C1225 H1215 0.929 . S
C1225 C1223 1.433 . S
C1225 N1228 1.384 . S
C1226 H1217 0.929 . S
C1226 C1218 1.378 . S
C1226 C1221 1.350 . S
C1227 H1214 0.929 . S
C1227 C1219 1.433 . S
C1227 N1229 1.384 . S
N1228 C1224 1.427 . S
N1228 C1225 1.384 . S
N1229 C1221 1.427 . S
N1229 C1227 1.384 . S
H1230 C1236 0.930 . S
H1231 C1240 0.930 . S
H1232 C1245 0.929 . S
H1233 C1243 0.929 . S
H1234 C1238 0.929 . S
H1235 C1244 0.929 . S
C1236 H1230 0.930 . S
C1236 C1237 1.367 . S
C1236 C1244 1.378 . S
C1237 C1236 1.367 . S
C1237 C1245 1.433 . S
C1238 H1234 0.929 . S
C1238 C1240 1.378 . S
C1238 C1242 1.350 . S
C1239 C1242 1.463 . S
C1239 C1244 1.350 . S
C1239 N1247 1.427 . S
C1240 H1231 0.930 . S
C1240 C1238 1.378 . S
C1240 C1241 1.367 . S
C1241 C1240 1.367 . S
C1241 C1243 1.433 . S
C1242 C1238 1.350 . S
C1242 C1239 1.463 . S
C1242 N1246 1.427 . S
C1243 H1233 0.929 . S
C1243 C1241 1.433 . S
C1243 N1246 1.384 . S
C1244 H1235 0.929 . S
C1244 C1236 1.378 . S
C1244 C1239 1.350 . S
C1245 H1232 0.929 . S
C1245 C1237 1.433 . S
C1245 N1247 1.384 . S
N1246 C1242 1.427 . S
N1246 C1243 1.384 . S
N1247 C1239 1.427 . S
N1247 C1245 1.384 . S
C823 C391 2.394 . S
C827 C554 2.347 . S
C845 C638 2.371 . S
C841 C451 2.418 . S
C863 C704 2.290 . S
C859 C241 2.199 . S
C881 C788 2.262 . S
C877 C331 2.169 . S
C899 C543 2.353 1_565 S
C895 C121 2.134 . S
C913 C211 2.357 . S
C917 C627 2.372 . S
C931 C31 2.458 . S
C935 C715 2.280 . S
C949 C91 2.244 . S
C953 C799 2.263 . S
C971 C550 0.645 1_455 S
C967 C301 0.695 . S
C989 C634 0.587 1_545 S
C985 C380 0.605 . S
C1007 C706 0.558 . S
C1003 C440 0.564 . S
C1021 C260 0.697 . S
C1025 C790 0.608 . S
C1039 C61 0.658 1_556 S
C1043 C538 0.659 . S
C1061 C622 0.581 . S
C1057 C140 0.647 1_556 S
C1079 C718 0.576 . S
C1075 C200 0.602 1_556 S
C1093 C20 0.639 1_556 S
C1097 C802 0.619 . S
C1111 C320 2.875 . S
C1115 C547 2.924 . S
C1129 C361 2.549 . S
C1133 C631 2.888 . S
C1151 C711 2.950 . S
C1147 C421 2.436 . S
C1169 C795 2.979 . S
C1165 C271 2.764 . S
C1183 C80 2.931 . S
C1187 C536 2.919 . S
C1205 C620 2.881 . S
C1201 C151 2.890 . S
C1223 C722 2.944 . S
C1219 C181 2.372 . S
C1237 C1 2.397 . S
C1241 C806 2.979 . S
