# Generated by pormake.
# Topology rtl, (3,6)-cn, num edge types: 1
# Building blocks:
#     Node 0, Type 0, BuildingBlock: MIDCAF_clean_linker_0, # of connection points: 3
#     Node 1, Type 0, BuildingBlock: MIDCAF_clean_linker_0, # of connection points: 3
#     Node 2, Type 0, BuildingBlock: MIDCAF_clean_linker_0, # of connection points: 3
#     Node 3, Type 0, BuildingBlock: MIDCAF_clean_linker_0, # of connection points: 3
#     Node 4, Type 1, BuildingBlock: VOLQOD_clean_sbu_1, # of connection points: 6
#     Node 5, Type 1, BuildingBlock: VOLQOD_clean_sbu_1, # of connection points: 6
#     Edge 6, Type (0, 1), BuildingBlock: UVAHIK_clean_linker_0, # of connection points: 2
#     Edge 7, Type (0, 1), BuildingBlock: UVAHIK_clean_linker_0, # of connection points: 2
#     Edge 8, Type (0, 1), BuildingBlock: UVAHIK_clean_linker_0, # of connection points: 2
#     Edge 9, Type (0, 1), BuildingBlock: UVAHIK_clean_linker_0, # of connection points: 2
#     Edge 10, Type (0, 1), BuildingBlock: UVAHIK_clean_linker_0, # of connection points: 2
#     Edge 11, Type (0, 1), BuildingBlock: UVAHIK_clean_linker_0, # of connection points: 2
#     Edge 12, Type (0, 1), BuildingBlock: UVAHIK_clean_linker_0, # of connection points: 2
#     Edge 13, Type (0, 1), BuildingBlock: UVAHIK_clean_linker_0, # of connection points: 2
#     Edge 14, Type (0, 1), BuildingBlock: UVAHIK_clean_linker_0, # of connection points: 2
#     Edge 15, Type (0, 1), BuildingBlock: UVAHIK_clean_linker_0, # of connection points: 2
#     Edge 16, Type (0, 1), BuildingBlock: UVAHIK_clean_linker_0, # of connection points: 2
#     Edge 17, Type (0, 1), BuildingBlock: UVAHIK_clean_linker_0, # of connection points: 2
# Relax obj value: 0.080
# Max RMSD: 0.156
# Mean RMSD: 0.089
data_MOF--net-rtl--node1-VOLQOD_clean_sbu_1--node2-MIDCAF_clean_linker_0--edge1-UVAHIK_clean_linker_0
_symmetry_space_group_name_H-M    P1
_symmetry_Int_Tables_number       1
_symmetry_cell_setting            triclinic
loop_
_symmetry_equiv_pos_as_xyz
'x, y, z'
_cell_length_a     54.866744
_cell_length_b     47.400104
_cell_length_c     35.775511
_cell_angle_alpha  89.749785
_cell_angle_beta   90.301213
_cell_angle_gamma 89.961911
loop_
_atom_site_label
_atom_site_type_symbol
_atom_site_fract_x
_atom_site_fract_y
_atom_site_fract_z
_atom_type_partial_charge
C0 C 0.06454 0.76724 0.09792 0.0
C1 C 0.07552 0.76234 0.13286 0.0
C2 C 0.0931 0.74092 0.13634 0.0
C3 C 0.10038 0.72556 0.10495 0.0
H4 H 0.15874 0.67949 0.06421 0.0
H5 H 0.19679 0.65322 0.06479 0.0
H6 H 0.18384 0.62768 0.95056 0.0
H7 H 0.14618 0.65481 0.94952 0.0
H8 H 0.11539 0.70118 0.89912 0.0
H9 H 0.10262 0.72278 0.84014 0.0
H10 H 0.04867 0.77184 0.89881 0.0
H11 H 0.06078 0.74986 0.95716 0.0
H12 H 0.06304 0.75671 0.04015 0.0
H13 H 0.05065 0.78332 0.0946 0.0
H14 H 0.10186 0.73676 0.16301 0.0
H15 H 0.11451 0.70977 0.10826 0.0
N16 N 0.1183 0.69906 0.03697 0.0
N17 N 0.11776 0.69532 0.97149 0.0
N18 N 0.08959 0.72434 0.00166 0.0
C19 C 0.1276 0.68785 0.00511 0.0
C20 C 0.09867 0.71355 0.96958 0.0
C21 C 0.09915 0.71722 0.03544 0.0
C22 C 0.14948 0.66952 0.00669 0.0
C23 C 0.16386 0.66807 0.03929 0.0
C24 C 0.18568 0.65284 0.0397 0.0
C25 C 0.19354 0.63846 0.00763 0.0
C26 C 0.17864 0.639 0.97551 0.0
C27 C 0.15695 0.65444 0.97498 0.0
C28 C 0.0893 0.72394 0.93305 0.0
C29 C 0.10055 0.71624 0.89935 0.0
C30 C 0.09334 0.72876 0.86554 0.0
C31 C 0.07473 0.7492 0.86473 0.0
C32 C 0.06285 0.75595 0.89822 0.0
C33 C 0.06998 0.74344 0.93188 0.0
C34 C 0.09003 0.73124 0.06962 0.0
C35 C 0.07163 0.75184 0.06673 0.0
C36 C 0.55659 0.75867 0.40027 0.0
C37 C 0.57242 0.75453 0.36997 0.0
C38 C 0.59607 0.76595 0.37195 0.0
C39 C 0.604 0.78002 0.40407 0.0
H40 H 0.64947 0.84744 0.44781 0.0
H41 H 0.68803 0.87317 0.44948 0.0
H42 H 0.69542 0.85461 0.56722 0.0
H43 H 0.65699 0.82896 0.56583 0.0
H44 H 0.61003 0.80584 0.60915 0.0
H45 H 0.59624 0.78291 0.66632 0.0
H46 H 0.54853 0.72943 0.60135 0.0
H47 H 0.56163 0.75281 0.54454 0.0
H48 H 0.5522 0.77434 0.45579 0.0
H49 H 0.53804 0.75088 0.3994 0.0
H50 H 0.60888 0.76297 0.3494 0.0
H51 H 0.62261 0.78761 0.40524 0.0
N52 N 0.61799 0.81049 0.47208 0.0
N53 N 0.61713 0.80978 0.53767 0.0
N54 N 0.5877 0.78499 0.50349 0.0
C55 C 0.62758 0.81882 0.50539 0.0
C56 C 0.59714 0.7929 0.53696 0.0
C57 C 0.59794 0.79369 0.47098 0.0
C58 C 0.65016 0.83597 0.50663 0.0
C59 C 0.65922 0.84897 0.47412 0.0
C60 C 0.68123 0.86384 0.47507 0.0
C61 C 0.69474 0.86572 0.50842 0.0
C62 C 0.68548 0.85322 0.54104 0.0
C63 C 0.66338 0.83865 0.54022 0.0
C64 C 0.58712 0.78106 0.57211 0.0
C65 C 0.59638 0.78943 0.60708 0.0
C66 C 0.58857 0.77616 0.63988 0.0
C67 C 0.57141 0.75414 0.63848 0.0
C68 C 0.56153 0.74652 0.60363 0.0
C69 C 0.5692 0.75987 0.5709 0.0
C70 C 0.58858 0.78261 0.43509 0.0
C71 C 0.56464 0.77232 0.43254 0.0
C72 C 0.94561 0.24581 0.91263 0.0
C73 C 0.93437 0.24957 0.87763 0.0
C74 C 0.91581 0.26985 0.87383 0.0
C75 C 0.90787 0.28508 0.90491 0.0
H76 H 0.8485 0.3296 0.94224 0.0
H77 H 0.81006 0.35532 0.93918 0.0
H78 H 0.81764 0.37764 0.05551 0.0
H79 H 0.85616 0.352 0.0588 0.0
H80 H 0.88202 0.29257 0.10528 0.0
H81 H 0.8953 0.26918 0.16258 0.0
H82 H 0.96706 0.25773 0.11552 0.0
H83 H 0.95333 0.27984 0.05766 0.0
H84 H 0.94658 0.25705 0.97026 0.0
H85 H 0.96025 0.23066 0.91623 0.0
H86 H 0.90677 0.27312 0.84718 0.0
H87 H 0.89297 0.29986 0.9013 0.0
N88 N 0.88834 0.31083 0.97199 0.0
N89 N 0.88741 0.31431 0.03742 0.0
N90 N 0.91772 0.28747 0.00839 0.0
C91 C 0.8779 0.3213 0.00343 0.0
C92 C 0.90742 0.29753 0.04005 0.0
C93 C 0.90833 0.29395 0.97425 0.0
C94 C 0.85539 0.33854 0.00085 0.0
C95 C 0.84214 0.34016 0.96714 0.0
C96 C 0.82004 0.35478 0.96538 0.0
C97 C 0.81083 0.36835 0.99714 0.0
C98 C 0.8244 0.36753 0.03052 0.0
C99 C 0.84639 0.35267 0.03242 0.0
C100 C 0.91654 0.2877 0.07681 0.0
C101 C 0.90073 0.28543 0.10743 0.0
C102 C 0.90841 0.27207 0.14039 0.0
C103 C 0.93219 0.2611 0.1436 0.0
C104 C 0.94842 0.26513 0.11372 0.0
C105 C 0.94062 0.27802 0.08061 0.0
C106 C 0.91843 0.28041 0.94035 0.0
C107 C 0.9378 0.26108 0.94358 0.0
C108 C 0.44395 0.25333 0.60952 0.0
C109 C 0.42788 0.25483 0.63986 0.0
C110 C 0.40545 0.24064 0.6378 0.0
C111 C 0.39885 0.22602 0.60549 0.0
H112 H 0.34745 0.17417 0.56287 0.0
H113 H 0.30874 0.14935 0.56127 0.0
H114 H 0.31655 0.13617 0.44264 0.0
H115 H 0.35555 0.16109 0.44395 0.0
H116 H 0.39337 0.20218 0.40012 0.0
H117 H 0.40631 0.22727 0.34377 0.0
H118 H 0.45793 0.27512 0.40917 0.0
H119 H 0.44525 0.2503 0.46532 0.0
H120 H 0.44967 0.23905 0.5536 0.0
H121 H 0.4613 0.26421 0.61035 0.0
H122 H 0.39284 0.2413 0.66098 0.0
H123 H 0.38114 0.21597 0.60444 0.0
N124 N 0.38627 0.19632 0.53733 0.0
N125 N 0.38804 0.19536 0.47183 0.0
N126 N 0.41667 0.22152 0.50603 0.0
C127 C 0.37725 0.18696 0.50418 0.0
C128 C 0.40783 0.21262 0.47256 0.0
C129 C 0.40607 0.21343 0.53851 0.0
C130 C 0.35462 0.16986 0.50345 0.0
C131 C 0.34113 0.16585 0.53639 0.0
C132 C 0.31884 0.15174 0.53551 0.0
C133 C 0.30955 0.14108 0.50179 0.0
C134 C 0.32335 0.14413 0.46905 0.0
C135 C 0.34562 0.1585 0.46982 0.0
C136 C 0.41796 0.22448 0.43746 0.0
C137 C 0.40775 0.21772 0.40244 0.0
C138 C 0.4152 0.23199 0.37012 0.0
C139 C 0.43286 0.25338 0.37229 0.0
C140 C 0.44399 0.25902 0.40685 0.0
C141 C 0.43672 0.24468 0.43902 0.0
C142 C 0.4144 0.22568 0.57436 0.0
C143 C 0.43721 0.23905 0.57699 0.0
O144 O 0.94158 0.00772 0.50569 0.0
Zn145 Zn 0.97303 0.02993 0.50625 0.0
O146 O 0.00149 0.00488 0.50453 0.0
Zn147 Zn 0.02212 0.01088 0.54865 0.0
Zn148 Zn 0.99069 0.96562 0.50384 0.0
Zn149 Zn 0.02013 0.01284 0.45923 0.0
O150 O 0.0561 0.02222 0.53374 0.0
O151 O 0.05449 0.02459 0.47178 0.0
O152 O 0.97371 0.05367 0.55285 0.0
O153 O 0.00848 0.04181 0.58091 0.0
O154 O 0.02497 0.97551 0.58014 0.0
O155 O 0.00386 0.94395 0.5478 0.0
O156 O 0.00208 0.94562 0.45765 0.0
O157 O 0.97252 0.05684 0.46236 0.0
O158 O 0.02208 0.97865 0.42614 0.0
O159 O 0.00489 0.04431 0.42938 0.0
C160 C 0.93706 0.98136 0.50589 0.0
C161 C 0.06622 0.02707 0.5024 0.0
C162 C 0.01697 0.95049 0.57588 0.0
C163 C 0.98906 0.05654 0.57941 0.0
C164 C 0.01427 0.95346 0.42927 0.0
C165 C 0.98628 0.05993 0.43407 0.0
O166 O 0.95415 0.96317 0.5056 0.0
O167 O 0.56241 0.50637 0.00616 0.0
Zn168 Zn 0.53088 0.52841 0.00557 0.0
O169 O 0.50247 0.50339 0.00527 0.0
Zn170 Zn 0.48231 0.51128 0.96109 0.0
Zn171 Zn 0.5135 0.46417 0.00394 0.0
Zn172 Zn 0.48324 0.50959 0.05047 0.0
O173 O 0.44867 0.52373 0.97571 0.0
O174 O 0.44885 0.52168 0.03769 0.0
O175 O 0.53099 0.55349 0.96004 0.0
O176 O 0.49693 0.54236 0.92977 0.0
O177 O 0.47873 0.47674 0.92869 0.0
O178 O 0.50144 0.44458 0.95779 0.0
O179 O 0.5013 0.44218 0.04846 0.0
O180 O 0.5306 0.55385 0.05047 0.0
O181 O 0.48112 0.47411 0.08137 0.0
O182 O 0.49808 0.54011 0.08242 0.0
C183 C 0.56708 0.48007 0.00479 0.0
C184 C 0.43789 0.52664 0.00688 0.0
C185 C 0.48764 0.45195 0.93076 0.0
C186 C 0.51632 0.55698 0.93271 0.0
C187 C 0.48885 0.449 0.07698 0.0
C188 C 0.51663 0.55599 0.07863 0.0
O189 O 0.55008 0.46182 0.0036 0.0
C190 C 0.26545 0.14096 0.51877 0.0
C191 C 0.28509 0.12786 0.5008 0.0
C192 C 0.24237 0.12863 0.51841 0.0
C193 C 0.20459 0.07557 0.46908 0.0
H194 H 0.16464 0.08245 0.55765 0.0
C195 C 0.10207 0.04787 0.46899 0.0
C196 C 0.09202 0.03617 0.50162 0.0
C197 C 0.12618 0.05737 0.46867 0.0
C198 C 0.17561 0.07995 0.53281 0.0
H199 H 0.29605 0.09161 0.46829 0.0
H200 H 0.25575 0.0696 0.46829 0.0
H201 H 0.20571 0.10139 0.5579 0.0
H202 H 0.09969 0.02444 0.55917 0.0
H203 H 0.14187 0.04023 0.55833 0.0
H204 H 0.17468 0.05333 0.44442 0.0
C205 C 0.25807 0.08971 0.4821 0.0
C206 C 0.1991 0.09125 0.53276 0.0
C207 C 0.28116 0.10223 0.48216 0.0
C208 C 0.10678 0.03362 0.53368 0.0
C209 C 0.13096 0.04283 0.53324 0.0
C210 C 0.18113 0.06403 0.46924 0.0
C211 C 0.2384 0.10272 0.50037 0.0
C212 C 0.2138 0.08951 0.50076 0.0
C213 C 0.14091 0.05511 0.50086 0.0
C214 C 0.16626 0.0663 0.50102 0.0
H215 H 0.26786 0.16099 0.53277 0.0
H216 H 0.22757 0.13964 0.53198 0.0
H217 H 0.2153 0.07402 0.44383 0.0
H218 H 0.09116 0.05026 0.44385 0.0
H219 H 0.13306 0.06709 0.4434 0.0
C220 C 0.22676 0.61001 0.03889 0.0
C221 C 0.21774 0.62422 0.0071 0.0
C222 C 0.25013 0.59819 0.03893 0.0
C223 C 0.30915 0.6035 0.98953 0.0
H224 H 0.32335 0.53288 0.04031 0.0
C225 C 0.40111 0.54629 0.97411 0.0
C226 C 0.41223 0.5364 0.00717 0.0
C227 C 0.37714 0.55617 0.97438 0.0
C228 C 0.31966 0.55274 0.02627 0.0
H229 H 0.2263 0.63678 0.95022 0.0
H230 H 0.26645 0.61525 0.9498 0.0
H231 H 0.28171 0.55116 0.0397 0.0
H232 H 0.40663 0.52872 0.06637 0.0
H233 H 0.36463 0.54588 0.06669 0.0
H234 H 0.34703 0.60487 0.97572 0.0
C235 C 0.2557 0.61374 0.97504 0.0
C236 C 0.29583 0.56325 0.02596 0.0
C237 C 0.23246 0.62572 0.97508 0.0
C238 C 0.39865 0.53625 0.04042 0.0
C239 C 0.37456 0.54592 0.0406 0.0
C240 C 0.33288 0.59288 0.98958 0.0
C241 C 0.26499 0.60016 0.00711 0.0
C242 C 0.29027 0.58876 0.00752 0.0
C243 C 0.36364 0.55619 0.00763 0.0
C244 C 0.33839 0.56738 0.0079 0.0
H245 H 0.21583 0.60812 0.06388 0.0
H246 H 0.25673 0.58808 0.06423 0.0
H247 H 0.30569 0.62351 0.97577 0.0
H248 H 0.411 0.54669 0.94799 0.0
H249 H 0.3691 0.56368 0.94847 0.0
C250 C 0.73886 0.86627 0.52613 0.0
C251 C 0.71889 0.87971 0.50902 0.0
C252 C 0.76176 0.87905 0.52646 0.0
C253 C 0.79811 0.93481 0.47952 0.0
H254 H 0.8406 0.92365 0.56531 0.0
C255 C 0.89215 0.98978 0.49752 0.0
C256 C 0.91147 0.9715 0.50686 0.0
C257 C 0.86804 0.98019 0.49823 0.0
C258 C 0.82893 0.92686 0.54114 0.0
H259 H 0.70708 0.91719 0.47917 0.0
H260 H 0.74701 0.94 0.48055 0.0
H261 H 0.79941 0.90453 0.56623 0.0
H262 H 0.92059 0.92893 0.52464 0.0
H263 H 0.87855 0.91242 0.52642 0.0
H264 H 0.82777 0.95757 0.45483 0.0
C265 C 0.74514 0.91926 0.49301 0.0
C266 C 0.80536 0.9158 0.54153 0.0
C267 C 0.72225 0.90628 0.49231 0.0
C268 C 0.90616 0.94354 0.5172 0.0
C269 C 0.88208 0.93411 0.51844 0.0
C270 C 0.82162 0.9462 0.47936 0.0
C271 C 0.76521 0.90578 0.51007 0.0
C272 C 0.78976 0.9192 0.51048 0.0
C273 C 0.86281 0.9523 0.50889 0.0
C274 C 0.83736 0.94194 0.50994 0.0
H275 H 0.73687 0.84556 0.53868 0.0
H276 H 0.77685 0.86768 0.53907 0.0
H277 H 0.78676 0.93757 0.45492 0.0
H278 H 0.89566 0.01143 0.48934 0.0
H279 H 0.85347 0.99465 0.49089 0.0
C280 C 0.76664 0.36835 0.97961 0.0
C281 C 0.78661 0.38223 0.9959 0.0
C282 C 0.74357 0.38078 0.97952 0.0
C283 C 0.70711 0.43575 0.02709 0.0
H284 H 0.66325 0.42367 0.94331 0.0
C285 C 0.61195 0.48881 0.0129 0.0
C286 C 0.59274 0.47041 0.00374 0.0
C287 C 0.63615 0.47956 0.0115 0.0
C288 C 0.67529 0.42712 0.96695 0.0
H289 H 0.79825 0.42025 0.02422 0.0
H290 H 0.75802 0.44238 0.02333 0.0
H291 H 0.70474 0.40545 0.94079 0.0
H292 H 0.58393 0.42792 0.98577 0.0
H293 H 0.62612 0.412 0.98294 0.0
H294 H 0.67752 0.45777 0.05291 0.0
C295 C 0.76004 0.42157 0.01136 0.0
C296 C 0.69904 0.41659 0.96562 0.0
C297 C 0.7831 0.40897 0.01177 0.0
C298 C 0.59827 0.44263 0.99308 0.0
C299 C 0.62243 0.43353 0.99121 0.0
C300 C 0.6834 0.44657 0.02821 0.0
C301 C 0.73994 0.40755 0.9954 0.0
C302 C 0.71516 0.42038 0.9959 0.0
C303 C 0.6416 0.45189 0.00038 0.0
C304 C 0.66717 0.44198 -0.00163 0.0
H305 H 0.76873 0.34751 0.96772 0.0
H306 H 0.72848 0.36905 0.96771 0.0
H307 H 0.71886 0.43877 0.05114 0.0
H308 H 0.6083 0.51033 0.02129 0.0
H309 H 0.65062 0.49416 0.01856 0.0
C310 C 0.06853 0.81004 0.15998 0.0
C311 C 0.06934 0.78065 0.16488 0.0
C312 C 0.06215 0.8276 0.1895 0.0
C313 C 0.05642 0.83004 0.29253 0.0
H314 H 0.01712 0.89606 0.2698 0.0
C315 C 0.01622 0.90376 0.40571 0.0
C316 C 0.01972 0.93281 0.39955 0.0
C317 C 0.02175 0.88426 0.37781 0.0
C318 C 0.02821 0.87779 0.27651 0.0
H319 H 0.06439 0.74653 0.20457 0.0
H320 H 0.05268 0.77726 0.2563 0.0
H321 H 0.02748 0.86334 0.22008 0.0
H322 H 0.03159 0.96413 0.35915 0.0
H323 H 0.04093 0.93007 0.31037 0.0
H324 H 0.05675 0.84455 0.34922 0.0
C325 C 0.05735 0.78676 0.22971 0.0
C326 C 0.03424 0.85907 0.24803 0.0
C327 C 0.06399 0.76915 0.20014 0.0
C328 C 0.0287 0.94192 0.36482 0.0
C329 C 0.03394 0.92245 0.33681 0.0
C330 C 0.05016 0.84868 0.32113 0.0
C331 C 0.05618 0.81621 0.22462 0.0
C332 C 0.04872 0.83517 0.25554 0.0
C333 C 0.03057 0.89344 0.34305 0.0
C334 C 0.03627 0.87291 0.31326 0.0
H335 H 0.07304 0.8195 0.13328 0.0
H336 H 0.06208 0.85018 0.18478 0.0
H337 H 0.06781 0.81204 0.29925 0.0
H338 H 0.00941 0.89603 0.4322 0.0
H339 H 0.01884 0.86201 0.38324 0.0
C340 C 0.58296 0.73088 0.69925 0.0
C341 C 0.56494 0.73793 0.67271 0.0
C342 C 0.57745 0.71347 0.72965 0.0
C343 C 0.52604 0.68268 0.7835 0.0
H344 H 0.57386 0.62532 0.80889 0.0
C345 C 0.5044 0.58596 0.87666 0.0
C346 C 0.52181 0.57867 0.90404 0.0
C347 C 0.50953 0.60665 0.84989 0.0
C348 C 0.56044 0.6414 0.8024 0.0
H349 H 0.52668 0.7332 0.65843 0.0
H350 H 0.51728 0.70211 0.71071 0.0
H351 H 0.58291 0.65974 0.76022 0.0
H352 H 0.5583 0.58745 0.92466 0.0
H353 H 0.56725 0.62339 0.87776 0.0
H354 H 0.50337 0.66375 0.82525 0.0
C355 C 0.53562 0.7103 0.70829 0.0
C356 C 0.56564 0.66122 0.77459 0.0
C357 C 0.54109 0.72786 0.67801 0.0
C358 C 0.54448 0.59251 0.90397 0.0
C359 C 0.54966 0.61302 0.87701 0.0
C360 C 0.52077 0.6627 0.81116 0.0
C361 C 0.55384 0.70251 0.73416 0.0
C362 C 0.5485 0.68208 0.76472 0.0
C363 C 0.53225 0.62032 0.84972 0.0
C364 C 0.53791 0.64183 0.82082 0.0
H365 H 0.60157 0.73799 0.69592 0.0
H366 H 0.59183 0.70831 0.74937 0.0
H367 H 0.51256 0.69868 0.777 0.0
H368 H 0.48674 0.57577 0.87594 0.0
H369 H 0.49585 0.61164 0.82894 0.0
C370 C 0.95452 0.21998 0.17207 0.0
C371 C 0.9395 0.24379 0.17667 0.0
C372 C 0.96046 0.20271 0.20245 0.0
C373 C 0.93783 0.17912 0.29256 0.0
H374 H 0.00394 0.15225 0.30762 0.0
C375 C 0.96377 0.10366 0.41414 0.0
C376 C 0.98083 0.08236 0.40632 0.0
C377 C 0.95914 0.12517 0.38817 0.0
C378 C 0.98532 0.15928 0.30358 0.0
H379 H 0.91941 0.26828 0.2174 0.0
H380 H 0.92932 0.23749 0.27035 0.0
H381 H 0.99542 0.18693 0.25878 0.0
H382 H 0.00606 0.06671 0.36475 0.0
H383 H 0.99749 0.10359 0.31918 0.0
H384 H 0.92749 0.1508 0.33639 0.0
C385 C 0.93644 0.23239 0.24302 0.0
C386 C 0.9805 0.17927 0.27574 0.0
C387 C 0.93073 0.24994 0.21265 0.0
C388 C 0.99295 0.0829 0.37182 0.0
C389 C 0.98816 0.10422 0.34576 0.0
C390 C 0.94259 0.15888 0.3202 0.0
C391 C 0.95131 0.20857 0.23813 0.0
C392 C 0.95667 0.18914 0.26967 0.0
C393 C 0.97131 0.12574 0.35366 0.0
C394 C 0.96636 0.14843 0.32574 0.0
H395 H 0.96115 0.21407 0.14475 0.0
H396 H 0.97164 0.18422 0.19777 0.0
H397 H 0.91924 0.18618 0.28819 0.0
H398 H 0.95422 0.10396 0.44056 0.0
H399 H 0.94627 0.14156 0.39541 0.0
C400 C 0.45672 0.27118 0.68986 0.0
C401 C 0.43378 0.27275 0.67244 0.0
C402 C 0.46255 0.28922 0.7194 0.0
C403 C 0.43453 0.33891 0.78756 0.0
H404 H 0.50031 0.36847 0.7938 0.0
C405 C 0.46139 0.43499 0.87791 0.0
C406 C 0.48176 0.43115 0.90139 0.0
C407 C 0.45557 0.41492 0.8508 0.0
C408 C 0.48192 0.36022 0.79248 0.0
H409 H 0.39904 0.29449 0.6718 0.0
H410 H 0.40936 0.32651 0.72239 0.0
H411 H 0.49 0.33451 0.74523 0.0
H412 H 0.51222 0.4035 0.91442 0.0
H413 H 0.50226 0.36876 0.86647 0.0
H414 H 0.4264 0.36553 0.83415 0.0
C415 C 0.42266 0.31084 0.71429 0.0
C416 C 0.47601 0.34062 0.76483 0.0
C417 C 0.41673 0.29255 0.68517 0.0
C418 C 0.49636 0.40702 0.89685 0.0
C419 C 0.49075 0.3872 0.86934 0.0
C420 C 0.44037 0.35883 0.81483 0.0
C421 C 0.44568 0.30952 0.73173 0.0
C422 C 0.4522 0.32974 0.76194 0.0
C423 C 0.47023 0.39089 0.84625 0.0
C424 C 0.4641 0.36967 0.81749 0.0
H425 H 0.47011 0.25594 0.68069 0.0
H426 H 0.48028 0.28719 0.73257 0.0
H427 H 0.41615 0.33062 0.78676 0.0
H428 H 0.44976 0.45332 0.88079 0.0
H429 H 0.43974 0.4183 0.83312 0.0
C430 C 0.5502 0.71282 0.34332 0.0
C431 C 0.5648 0.73685 0.33762 0.0
C432 C 0.54395 0.69531 0.31353 0.0
C433 C 0.56534 0.6721 0.22264 0.0
H434 H 0.49938 0.64426 0.20996 0.0
C435 C 0.53861 0.59945 0.09992 0.0
C436 C 0.52187 0.57769 0.10722 0.0
C437 C 0.54326 0.62021 0.12662 0.0
C438 C 0.51796 0.65153 0.21336 0.0
H439 H 0.58377 0.76152 0.29558 0.0
H440 H 0.57333 0.73036 0.24367 0.0
H441 H 0.50828 0.67843 0.25892 0.0
H442 H 0.49712 0.56051 0.14854 0.0
H443 H 0.50577 0.59615 0.19551 0.0
H444 H 0.5753 0.64462 0.17803 0.0
C445 C 0.56679 0.72523 0.2714 0.0
C446 C 0.523 0.67123 0.24128 0.0
C447 C 0.57282 0.743 0.30117 0.0
C448 C 0.51001 0.57707 0.14192 0.0
C449 C 0.51485 0.59767 0.16878 0.0
C450 C 0.56037 0.65217 0.19497 0.0
C451 C 0.55238 0.70117 0.27736 0.0
C452 C 0.54676 0.68156 0.24634 0.0
C453 C 0.53148 0.61957 0.16144 0.0
C454 C 0.53664 0.64147 0.19013 0.0
H455 H 0.54414 0.70696 0.37104 0.0
H456 H 0.53312 0.67666 0.31902 0.0
H457 H 0.58389 0.67946 0.22626 0.0
H458 H 0.54793 0.60068 0.07334 0.0
H459 H 0.55588 0.63697 0.11972 0.0
C460 C 0.94364 0.20198 0.85148 0.0
C461 C 0.9411 0.23118 0.84587 0.0
C462 C 0.94966 0.18432 0.82185 0.0
C463 C 0.95 0.18063 0.71852 0.0
H464 H 0.99214 0.11643 0.73763 0.0
C465 C 0.96134 0.09046 0.61203 0.0
C466 C 0.98435 0.07764 0.60894 0.0
C467 C 0.95688 0.11025 0.64003 0.0
C468 C 0.98059 0.13443 0.73159 0.0
H469 H 0.94295 0.26484 0.80485 0.0
H470 H 0.95397 0.23401 0.75294 0.0
H471 H 0.98374 0.14948 0.7876 0.0
H472 H 0.02087 0.07602 0.63242 0.0
H473 H 0.01327 0.11096 0.6806 0.0
H474 H 0.94742 0.16595 0.66218 0.0
C475 C 0.95089 0.2247 0.7802 0.0
C476 C 0.97547 0.1532 0.76047 0.0
C477 C 0.94466 0.24238 0.8099 0.0
C478 C 0.00286 0.08528 0.63423 0.0
C479 C -0.00153 0.10526 0.66199 0.0
C480 C 0.95527 0.16195 0.68952 0.0
C481 C 0.95348 0.19543 0.78584 0.0
C482 C 0.95988 0.17636 0.75445 0.0
C483 C 0.97537 0.11788 0.66541 0.0
C484 C 0.97046 0.13844 0.69579 0.0
H485 H 0.94053 0.19267 0.87875 0.0
H486 H 0.95091 0.16185 0.8271 0.0
H487 H 0.93775 0.19809 0.71293 0.0
H488 H 0.94664 0.08497 0.5931 0.0
H489 H 0.93876 0.11916 0.64216 0.0
C490 C 0.43823 0.30089 0.3433 0.0
C491 C 0.43831 0.27141 0.33947 0.0
C492 C 0.44281 0.3183 0.31265 0.0
C493 C 0.4732 0.32129 0.22266 0.0
H494 H 0.4308 0.38555 0.20509 0.0
C495 C 0.48704 0.39852 0.09841 0.0
C496 C 0.48294 0.4273 0.10543 0.0
C497 C 0.48089 0.37808 0.12506 0.0
C498 C 0.443 0.36791 0.20982 0.0
H499 H 0.44336 0.23697 0.30066 0.0
H500 H 0.45182 0.26765 0.24673 0.0
H501 H 0.42137 0.35226 0.25499 0.0
H502 H 0.4696 0.45718 0.14632 0.0
H503 H 0.45954 0.42176 0.193 0.0
H504 H 0.4953 0.3374 0.17831 0.0
C505 C 0.4481 0.27714 0.2736 0.0
C506 C 0.4375 0.34877 0.23828 0.0
C507 C 0.44316 0.25964 0.3043 0.0
C508 C 0.47282 0.43519 0.13984 0.0
C509 C 0.46688 0.41481 0.16654 0.0
C510 C 0.47886 0.34063 0.19435 0.0
C511 C 0.44779 0.30663 0.2775 0.0
C512 C 0.45271 0.3255 0.24532 0.0
C513 C 0.47066 0.38598 0.15943 0.0
C514 C 0.464 0.36442 0.18795 0.0
H515 H 0.43427 0.31054 0.36999 0.0
H516 H 0.44269 0.34095 0.31652 0.0
H517 H 0.48531 0.30361 0.22771 0.0
H518 H 0.4947 0.3917 0.0721 0.0
H519 H 0.48381 0.35607 0.11845 0.0
C520 C 0.04458 0.77292 0.82178 0.0
C521 C 0.06875 0.765 0.82986 0.0
C522 C 0.03932 0.79075 0.79161 0.0
C523 C 0.06868 0.84467 0.73225 0.0
H524 H 0.00864 0.8391 0.67519 0.0
C525 C 0.03454 0.93549 0.63777 0.0
C526 C 0.02322 0.92841 0.60376 0.0
C527 C 0.04041 0.91454 0.66394 0.0
C528 C 0.02563 0.84082 0.69055 0.0
H529 H 0.10624 0.76877 0.81148 0.0
H530 H 0.09696 0.79897 0.75807 0.0
H531 H 0.01866 0.8028 0.72109 0.0
H532 H 0.00944 0.89368 0.57043 0.0
H533 H 0.02014 0.8572 0.61561 0.0
H534 H 0.07593 0.88232 0.70112 0.0
C535 C 0.08212 0.79195 0.77563 0.0
C536 C 0.03124 0.82016 0.71722 0.0
C537 C 0.0874 0.77425 0.80596 0.0
C538 C 0.018 0.89992 0.59646 0.0
C539 C 0.02402 0.87897 0.62249 0.0
C540 C 0.06315 0.86523 0.70543 0.0
C541 C 0.05809 0.80094 0.76859 0.0
C542 C 0.05274 0.82195 0.73863 0.0
C543 C 0.03526 0.88601 0.6566 0.0
C544 C 0.04145 0.8637 0.68446 0.0
H545 H 0.02973 0.76584 0.83928 0.0
H546 H 0.02062 0.79735 0.78723 0.0
H547 H 0.08524 0.84697 0.74855 0.0
H548 H 0.03871 0.95724 0.64437 0.0
H549 H 0.04868 0.92079 0.69017 0.0
loop_
_geom_bond_atom_site_label_1
_geom_bond_atom_site_label_2
_geom_bond_distance
_geom_bond_site_symmetry_2
_ccdc_geom_bond_type
C0 C1 1.384 . S
C0 H13 0.947 . S
C0 C35 1.382 . S
C1 C0 1.384 . S
C1 C2 1.378 . S
C2 C1 1.378 . S
C2 C3 1.378 . S
C2 H14 0.952 . S
C3 C2 1.378 . S
C3 H15 0.950 . S
C3 C34 1.383 . S
H4 C23 0.947 . S
H5 C24 0.946 . S
H6 C26 0.953 . S
H7 C27 0.945 . S
H8 C29 0.952 . S
H9 C30 0.949 . S
H10 C32 0.950 . S
H11 C33 0.948 . S
H12 C35 0.951 . S
H13 C0 0.947 . S
H14 C2 0.952 . S
H15 C3 0.950 . S
N16 C19 1.382 . S
N16 C21 1.363 . S
N17 C19 1.371 1_556 S
N17 C20 1.372 . S
N18 C20 1.361 1_554 S
N18 C21 1.377 . S
C19 N16 1.382 . S
C19 N17 1.371 1_554 S
C19 C22 1.480 . S
C20 N17 1.372 . S
C20 N18 1.361 1_556 S
C20 C28 1.457 . S
C21 N16 1.363 . S
C21 N18 1.377 . S
C21 C34 1.479 . S
C22 C19 1.480 . S
C22 C23 1.383 . S
C22 C27 1.385 1_554 S
C23 H4 0.947 . S
C23 C22 1.383 . S
C23 C24 1.388 . S
C24 H5 0.946 . S
C24 C23 1.388 . S
C24 C25 1.384 . S
C25 C24 1.384 . S
C25 C26 1.377 1_554 S
C26 H6 0.953 . S
C26 C25 1.377 1_556 S
C26 C27 1.369 . S
C27 H7 0.945 . S
C27 C22 1.385 1_556 S
C27 C26 1.369 . S
C28 C20 1.457 . S
C28 C29 1.372 . S
C28 C33 1.364 . S
C29 H8 0.952 . S
C29 C28 1.372 . S
C29 C30 1.389 . S
C30 H9 0.949 . S
C30 C29 1.389 . S
C30 C31 1.387 . S
C31 C30 1.387 . S
C31 C32 1.372 . S
C32 H10 0.950 . S
C32 C31 1.372 . S
C32 C33 1.379 . S
C33 H11 0.948 . S
C33 C28 1.364 . S
C33 C32 1.379 . S
C34 C3 1.383 . S
C34 C21 1.479 . S
C34 C35 1.398 . S
C35 C0 1.382 . S
C35 H12 0.951 . S
C35 C34 1.398 . S
C36 C37 1.384 . S
C36 H49 0.947 . S
C36 C71 1.382 . S
C37 C36 1.384 . S
C37 C38 1.378 . S
C38 C37 1.378 . S
C38 C39 1.378 . S
C38 H50 0.952 . S
C39 C38 1.378 . S
C39 H51 0.950 . S
C39 C70 1.383 . S
H40 C59 0.947 . S
H41 C60 0.946 . S
H42 C62 0.953 . S
H43 C63 0.945 . S
H44 C65 0.952 . S
H45 C66 0.949 . S
H46 C68 0.950 . S
H47 C69 0.948 . S
H48 C71 0.951 . S
H49 C36 0.947 . S
H50 C38 0.952 . S
H51 C39 0.950 . S
N52 C55 1.382 . S
N52 C57 1.363 . S
N53 C55 1.371 . S
N53 C56 1.372 . S
N54 C56 1.361 . S
N54 C57 1.377 . S
C55 N52 1.382 . S
C55 N53 1.371 . S
C55 C58 1.480 . S
C56 N53 1.372 . S
C56 N54 1.361 . S
C56 C64 1.457 . S
C57 N52 1.363 . S
C57 N54 1.377 . S
C57 C70 1.479 . S
C58 C55 1.480 . S
C58 C59 1.383 . S
C58 C63 1.385 . S
C59 H40 0.947 . S
C59 C58 1.383 . S
C59 C60 1.388 . S
C60 H41 0.946 . S
C60 C59 1.388 . S
C60 C61 1.384 . S
C61 C60 1.384 . S
C61 C62 1.377 . S
C62 H42 0.953 . S
C62 C61 1.377 . S
C62 C63 1.369 . S
C63 H43 0.945 . S
C63 C58 1.385 . S
C63 C62 1.369 . S
C64 C56 1.457 . S
C64 C65 1.372 . S
C64 C69 1.364 . S
C65 H44 0.952 . S
C65 C64 1.372 . S
C65 C66 1.389 . S
C66 H45 0.949 . S
C66 C65 1.389 . S
C66 C67 1.387 . S
C67 C66 1.387 . S
C67 C68 1.372 . S
C68 H46 0.950 . S
C68 C67 1.372 . S
C68 C69 1.379 . S
C69 H47 0.948 . S
C69 C64 1.364 . S
C69 C68 1.379 . S
C70 C39 1.383 . S
C70 C57 1.479 . S
C70 C71 1.398 . S
C71 C36 1.382 . S
C71 H48 0.951 . S
C71 C70 1.398 . S
C72 C73 1.384 . S
C72 H85 0.947 . S
C72 C107 1.382 . S
C73 C72 1.384 . S
C73 C74 1.378 . S
C74 C73 1.378 . S
C74 C75 1.378 . S
C74 H86 0.952 . S
C75 C74 1.378 . S
C75 H87 0.950 . S
C75 C106 1.383 . S
H76 C95 0.947 . S
H77 C96 0.946 . S
H78 C98 0.953 . S
H79 C99 0.945 . S
H80 C101 0.952 . S
H81 C102 0.949 . S
H82 C104 0.950 . S
H83 C105 0.948 . S
H84 C107 0.951 . S
H85 C72 0.947 . S
H86 C74 0.952 . S
H87 C75 0.950 . S
N88 C91 1.382 1_556 S
N88 C93 1.363 . S
N89 C91 1.371 . S
N89 C92 1.372 . S
N90 C92 1.361 . S
N90 C93 1.377 1_554 S
C91 N88 1.382 1_554 S
C91 N89 1.371 . S
C91 C94 1.480 . S
C92 N89 1.372 . S
C92 N90 1.361 . S
C92 C100 1.457 . S
C93 N88 1.363 . S
C93 N90 1.377 1_556 S
C93 C106 1.479 . S
C94 C91 1.480 . S
C94 C95 1.383 1_554 S
C94 C99 1.385 . S
C95 H76 0.947 . S
C95 C94 1.383 1_556 S
C95 C96 1.388 . S
C96 H77 0.946 . S
C96 C95 1.388 . S
C96 C97 1.384 1_556 S
C97 C96 1.384 1_554 S
C97 C98 1.377 . S
C98 H78 0.953 . S
C98 C97 1.377 . S
C98 C99 1.369 . S
C99 H79 0.945 . S
C99 C94 1.385 . S
C99 C98 1.369 . S
C100 C92 1.457 . S
C100 C101 1.372 . S
C100 C105 1.364 . S
C101 H80 0.952 . S
C101 C100 1.372 . S
C101 C102 1.389 . S
C102 H81 0.949 . S
C102 C101 1.389 . S
C102 C103 1.387 . S
C103 C102 1.387 . S
C103 C104 1.372 . S
C104 H82 0.950 . S
C104 C103 1.372 . S
C104 C105 1.379 . S
C105 H83 0.948 . S
C105 C100 1.364 . S
C105 C104 1.379 . S
C106 C75 1.383 . S
C106 C93 1.479 . S
C106 C107 1.398 . S
C107 C72 1.382 . S
C107 H84 0.951 . S
C107 C106 1.398 . S
C108 C109 1.384 . S
C108 H121 0.947 . S
C108 C143 1.382 . S
C109 C108 1.384 . S
C109 C110 1.378 . S
C110 C109 1.378 . S
C110 C111 1.378 . S
C110 H122 0.952 . S
C111 C110 1.378 . S
C111 H123 0.950 . S
C111 C142 1.383 . S
H112 C131 0.947 . S
H113 C132 0.946 . S
H114 C134 0.953 . S
H115 C135 0.945 . S
H116 C137 0.952 . S
H117 C138 0.949 . S
H118 C140 0.950 . S
H119 C141 0.948 . S
H120 C143 0.951 . S
H121 C108 0.947 . S
H122 C110 0.952 . S
H123 C111 0.950 . S
N124 C127 1.382 . S
N124 C129 1.363 . S
N125 C127 1.371 . S
N125 C128 1.372 . S
N126 C128 1.361 . S
N126 C129 1.377 . S
C127 N124 1.382 . S
C127 N125 1.371 . S
C127 C130 1.480 . S
C128 N125 1.372 . S
C128 N126 1.361 . S
C128 C136 1.457 . S
C129 N124 1.363 . S
C129 N126 1.377 . S
C129 C142 1.479 . S
C130 C127 1.480 . S
C130 C131 1.383 . S
C130 C135 1.385 . S
C131 H112 0.947 . S
C131 C130 1.383 . S
C131 C132 1.388 . S
C132 H113 0.946 . S
C132 C131 1.388 . S
C132 C133 1.384 . S
C133 C132 1.384 . S
C133 C134 1.377 . S
C134 H114 0.953 . S
C134 C133 1.377 . S
C134 C135 1.369 . S
C135 H115 0.945 . S
C135 C130 1.385 . S
C135 C134 1.369 . S
C136 C128 1.457 . S
C136 C137 1.372 . S
C136 C141 1.364 . S
C137 H116 0.952 . S
C137 C136 1.372 . S
C137 C138 1.389 . S
C138 H117 0.949 . S
C138 C137 1.389 . S
C138 C139 1.387 . S
C139 C138 1.387 . S
C139 C140 1.372 . S
C140 H118 0.950 . S
C140 C139 1.372 . S
C140 C141 1.379 . S
C141 H119 0.948 . S
C141 C136 1.364 . S
C141 C140 1.379 . S
C142 C111 1.383 . S
C142 C129 1.479 . S
C142 C143 1.398 . S
C143 C108 1.382 . S
C143 H120 0.951 . S
C143 C142 1.398 . S
O144 Zn145 1.953 1_565 S
O144 C160 1.225 . S
Zn145 O144 1.953 1_545 S
Zn145 O146 1.949 1_655 S
Zn145 O152 1.919 . S
Zn145 O157 1.924 . S
O146 Zn145 1.949 1_455 S
O146 Zn147 1.923 . S
O146 Zn148 1.950 1_445 S
O146 Zn149 1.945 . S
Zn147 O146 1.923 . S
Zn147 O150 1.933 . S
Zn147 O153 1.941 . S
Zn147 O154 1.965 1_545 S
Zn148 O146 1.950 1_665 S
Zn148 O155 1.938 1_655 S
Zn148 O156 1.906 1_655 S
Zn148 O166 1.953 . S
Zn149 O146 1.945 . S
Zn149 O151 1.932 . S
Zn149 O158 1.977 1_545 S
Zn149 O159 1.910 1_455 S
O150 Zn147 1.933 . S
O150 C161 1.226 . S
O151 Zn149 1.932 . S
O151 C161 1.307 . S
O152 Zn145 1.919 . S
O152 C163 1.253 . S
O153 Zn147 1.941 . S
O153 C163 1.283 1_455 S
O154 Zn147 1.965 1_565 S
O154 C162 1.303 . S
O155 Zn148 1.938 1_455 S
O155 C162 1.247 . S
O156 Zn148 1.906 1_455 S
O156 C164 1.304 . S
O157 Zn145 1.924 . S
O157 C165 1.311 . S
O158 Zn149 1.977 1_565 S
O158 C164 1.272 . S
O159 Zn149 1.910 1_655 S
O159 C165 1.231 . S
C160 O144 1.225 . S
C160 O166 1.298 . S
C161 O150 1.226 . S
C161 O151 1.307 . S
C162 O154 1.303 . S
C162 O155 1.247 . S
C163 O152 1.253 . S
C163 O153 1.283 1_655 S
C164 O156 1.304 . S
C164 O158 1.272 . S
C165 O157 1.311 . S
C165 O159 1.231 . S
O166 Zn148 1.953 . S
O166 C160 1.298 . S
O167 Zn168 1.954 . S
O167 C183 1.225 1_556 S
Zn168 O167 1.954 . S
Zn168 O169 1.946 1_556 S
Zn168 O175 1.934 . S
Zn168 O180 1.909 1_556 S
O169 Zn168 1.946 1_554 S
O169 Zn170 1.923 1_554 S
O169 Zn171 1.950 . S
O169 Zn172 1.945 . S
Zn170 O169 1.923 1_556 S
Zn170 O173 1.933 . S
Zn170 O176 1.941 . S
Zn170 O177 1.965 . S
Zn171 O169 1.950 . S
Zn171 O178 1.938 1_554 S
Zn171 O179 1.906 . S
Zn171 O189 1.953 . S
Zn172 O169 1.945 . S
Zn172 O174 1.932 . S
Zn172 O181 1.977 . S
Zn172 O182 1.910 . S
O173 Zn170 1.933 . S
O173 C184 1.226 1_556 S
O174 Zn172 1.932 . S
O174 C184 1.307 . S
O175 Zn168 1.934 . S
O175 C186 1.253 . S
O176 Zn170 1.941 . S
O176 C186 1.283 . S
O177 Zn170 1.965 . S
O177 C185 1.303 . S
O178 Zn171 1.938 1_556 S
O178 C185 1.247 . S
O179 Zn171 1.906 . S
O179 C187 1.304 . S
O180 Zn168 1.909 1_554 S
O180 C188 1.311 . S
O181 Zn172 1.977 . S
O181 C187 1.272 . S
O182 Zn172 1.910 . S
O182 C188 1.231 . S
C183 O167 1.225 1_554 S
C183 O189 1.298 . S
C184 O173 1.226 1_554 S
C184 O174 1.307 . S
C185 O177 1.303 . S
C185 O178 1.247 . S
C186 O175 1.253 . S
C186 O176 1.283 . S
C187 O179 1.304 . S
C187 O181 1.272 . S
C188 O180 1.311 . S
C188 O182 1.231 . S
O189 Zn171 1.953 . S
O189 C183 1.298 . S
C190 C191 1.349 . S
C190 C192 1.327 . S
C190 H215 0.950 . S
C191 C190 1.349 . S
C191 C207 1.349 . S
C192 C190 1.327 . S
C192 C211 1.429 . S
C192 H216 0.950 . S
C193 C210 1.574 . S
C193 C212 1.368 . S
C193 H217 0.949 . S
H194 C198 0.949 . S
C195 C196 1.349 . S
C195 C197 1.327 . S
C195 H218 0.950 . S
C196 C195 1.349 . S
C196 C208 1.349 . S
C197 C195 1.327 . S
C197 C213 1.429 . S
C197 H219 0.950 . S
C198 H194 0.949 . S
C198 C206 1.574 . S
C198 C214 1.368 . S
H199 C207 0.950 . S
H200 C205 0.950 . S
H201 C206 0.949 . S
H202 C208 0.950 . S
H203 C209 0.950 . S
H204 C210 0.949 . S
C205 H200 0.950 . S
C205 C207 1.327 . S
C205 C211 1.429 . S
C206 C198 1.574 . S
C206 H201 0.949 . S
C206 C212 1.368 . S
C207 C191 1.349 . S
C207 H199 0.950 . S
C207 C205 1.327 . S
C208 C196 1.349 . S
C208 H202 0.950 . S
C208 C209 1.327 . S
C209 H203 0.950 . S
C209 C208 1.327 . S
C209 C213 1.429 . S
C210 C193 1.574 . S
C210 H204 0.949 . S
C210 C214 1.368 . S
C211 C192 1.429 . S
C211 C205 1.429 . S
C211 C212 1.523 . S
C212 C193 1.368 . S
C212 C206 1.368 . S
C212 C211 1.523 . S
C213 C197 1.429 . S
C213 C209 1.429 . S
C213 C214 1.523 . S
C214 C198 1.368 . S
C214 C210 1.368 . S
C214 C213 1.523 . S
H215 C190 0.950 . S
H216 C192 0.950 . S
H217 C193 0.949 . S
H218 C195 0.950 . S
H219 C197 0.950 . S
C220 C221 1.349 . S
C220 C222 1.327 . S
C220 H245 0.950 . S
C221 C220 1.349 . S
C221 C237 1.349 1_554 S
C222 C220 1.327 . S
C222 C241 1.429 . S
C222 H246 0.950 . S
C223 C240 1.574 . S
C223 C242 1.368 1_556 S
C223 H247 0.949 . S
H224 C228 0.949 . S
C225 C226 1.349 1_556 S
C225 C227 1.327 . S
C225 H248 0.950 . S
C226 C225 1.349 1_554 S
C226 C238 1.349 . S
C227 C225 1.327 . S
C227 C243 1.429 1_556 S
C227 H249 0.950 . S
C228 H224 0.949 . S
C228 C236 1.574 . S
C228 C244 1.368 . S
H229 C237 0.950 . S
H230 C235 0.950 . S
H231 C236 0.949 . S
H232 C238 0.950 . S
H233 C239 0.950 . S
H234 C240 0.949 . S
C235 H230 0.950 . S
C235 C237 1.327 . S
C235 C241 1.429 1_556 S
C236 C228 1.574 . S
C236 H231 0.949 . S
C236 C242 1.368 . S
C237 C221 1.349 1_556 S
C237 H229 0.950 . S
C237 C235 1.327 . S
C238 C226 1.349 . S
C238 H232 0.950 . S
C238 C239 1.327 . S
C239 H233 0.950 . S
C239 C238 1.327 . S
C239 C243 1.429 . S
C240 C223 1.574 . S
C240 H234 0.949 . S
C240 C244 1.368 1_556 S
C241 C222 1.429 . S
C241 C235 1.429 1_554 S
C241 C242 1.523 . S
C242 C223 1.368 1_554 S
C242 C236 1.368 . S
C242 C241 1.523 . S
C243 C227 1.429 1_554 S
C243 C239 1.429 . S
C243 C244 1.523 . S
C244 C228 1.368 . S
C244 C240 1.368 1_554 S
C244 C243 1.523 . S
H245 C220 0.950 . S
H246 C222 0.950 . S
H247 C223 0.949 . S
H248 C225 0.950 . S
H249 C227 0.950 . S
C250 C251 1.349 . S
C250 C252 1.327 . S
C250 H275 0.950 . S
C251 C250 1.349 . S
C251 C267 1.349 . S
C252 C250 1.327 . S
C252 C271 1.429 . S
C252 H276 0.950 . S
C253 C270 1.574 . S
C253 C272 1.368 . S
C253 H277 0.949 . S
H254 C258 0.949 . S
C255 C256 1.349 . S
C255 C257 1.327 . S
C255 H278 0.950 . S
C256 C255 1.349 . S
C256 C268 1.349 . S
C257 C255 1.327 . S
C257 C273 1.429 . S
C257 H279 0.950 . S
C258 H254 0.949 . S
C258 C266 1.574 . S
C258 C274 1.368 . S
H259 C267 0.950 . S
H260 C265 0.950 . S
H261 C266 0.949 . S
H262 C268 0.950 . S
H263 C269 0.950 . S
H264 C270 0.949 . S
C265 H260 0.950 . S
C265 C267 1.327 . S
C265 C271 1.429 . S
C266 C258 1.574 . S
C266 H261 0.949 . S
C266 C272 1.368 . S
C267 C251 1.349 . S
C267 H259 0.950 . S
C267 C265 1.327 . S
C268 C256 1.349 . S
C268 H262 0.950 . S
C268 C269 1.327 . S
C269 H263 0.950 . S
C269 C268 1.327 . S
C269 C273 1.429 . S
C270 C253 1.574 . S
C270 H264 0.949 . S
C270 C274 1.368 . S
C271 C252 1.429 . S
C271 C265 1.429 . S
C271 C272 1.523 . S
C272 C253 1.368 . S
C272 C266 1.368 . S
C272 C271 1.523 . S
C273 C257 1.429 . S
C273 C269 1.429 . S
C273 C274 1.523 . S
C274 C258 1.368 . S
C274 C270 1.368 . S
C274 C273 1.523 . S
H275 C250 0.950 . S
H276 C252 0.950 . S
H277 C253 0.949 . S
H278 C255 0.950 . S
H279 C257 0.950 . S
C280 C281 1.349 1_556 S
C280 C282 1.327 . S
C280 H305 0.950 . S
C281 C280 1.349 1_554 S
C281 C297 1.349 . S
C282 C280 1.327 . S
C282 C301 1.429 1_556 S
C282 H306 0.950 . S
C283 C300 1.574 . S
C283 C302 1.368 . S
C283 H307 0.949 . S
H284 C288 0.949 . S
C285 C286 1.349 . S
C285 C287 1.327 . S
C285 H308 0.950 . S
C286 C285 1.349 . S
C286 C298 1.349 1_554 S
C287 C285 1.327 . S
C287 C303 1.429 . S
C287 H309 0.950 . S
C288 H284 0.949 . S
C288 C296 1.574 . S
C288 C304 1.368 1_556 S
H289 C297 0.950 . S
H290 C295 0.950 . S
H291 C296 0.949 . S
H292 C298 0.950 . S
H293 C299 0.950 . S
H294 C300 0.949 . S
C295 H290 0.950 . S
C295 C297 1.327 . S
C295 C301 1.429 . S
C296 C288 1.574 . S
C296 H291 0.949 . S
C296 C302 1.368 1_556 S
C297 C281 1.349 . S
C297 H289 0.950 . S
C297 C295 1.327 . S
C298 C286 1.349 1_556 S
C298 H292 0.950 . S
C298 C299 1.327 . S
C299 H293 0.950 . S
C299 C298 1.327 . S
C299 C303 1.429 1_556 S
C300 C283 1.574 . S
C300 H294 0.949 . S
C300 C304 1.368 . S
C301 C282 1.429 1_554 S
C301 C295 1.429 . S
C301 C302 1.523 . S
C302 C283 1.368 . S
C302 C296 1.368 1_554 S
C302 C301 1.523 . S
C303 C287 1.429 . S
C303 C299 1.429 1_554 S
C303 C304 1.523 . S
C304 C288 1.368 1_554 S
C304 C300 1.368 . S
C304 C303 1.523 . S
H305 C280 0.950 . S
H306 C282 0.950 . S
H307 C283 0.949 . S
H308 C285 0.950 . S
H309 C287 0.950 . S
C310 C311 1.349 . S
C310 C312 1.327 . S
C310 H335 0.950 . S
C311 C310 1.349 . S
C311 C327 1.349 . S
C312 C310 1.327 . S
C312 C331 1.429 . S
C312 H336 0.950 . S
C313 C330 1.574 . S
C313 C332 1.368 . S
C313 H337 0.949 . S
H314 C318 0.949 . S
C315 C316 1.349 . S
C315 C317 1.327 . S
C315 H338 0.950 . S
C316 C315 1.349 . S
C316 C328 1.349 . S
C317 C315 1.327 . S
C317 C333 1.429 . S
C317 H339 0.950 . S
C318 H314 0.949 . S
C318 C326 1.574 . S
C318 C334 1.368 . S
H319 C327 0.950 . S
H320 C325 0.950 . S
H321 C326 0.949 . S
H322 C328 0.950 . S
H323 C329 0.950 . S
H324 C330 0.949 . S
C325 H320 0.950 . S
C325 C327 1.327 . S
C325 C331 1.429 . S
C326 C318 1.574 . S
C326 H321 0.949 . S
C326 C332 1.368 . S
C327 C311 1.349 . S
C327 H319 0.950 . S
C327 C325 1.327 . S
C328 C316 1.349 . S
C328 H322 0.950 . S
C328 C329 1.327 . S
C329 H323 0.950 . S
C329 C328 1.327 . S
C329 C333 1.429 . S
C330 C313 1.574 . S
C330 H324 0.949 . S
C330 C334 1.368 . S
C331 C312 1.429 . S
C331 C325 1.429 . S
C331 C332 1.523 . S
C332 C313 1.368 . S
C332 C326 1.368 . S
C332 C331 1.523 . S
C333 C317 1.429 . S
C333 C329 1.429 . S
C333 C334 1.523 . S
C334 C318 1.368 . S
C334 C330 1.368 . S
C334 C333 1.523 . S
H335 C310 0.950 . S
H336 C312 0.950 . S
H337 C313 0.949 . S
H338 C315 0.950 . S
H339 C317 0.950 . S
C340 C341 1.349 . S
C340 C342 1.327 . S
C340 H365 0.950 . S
C341 C340 1.349 . S
C341 C357 1.349 . S
C342 C340 1.327 . S
C342 C361 1.429 . S
C342 H366 0.950 . S
C343 C360 1.574 . S
C343 C362 1.368 . S
C343 H367 0.949 . S
H344 C348 0.949 . S
C345 C346 1.349 . S
C345 C347 1.327 . S
C345 H368 0.950 . S
C346 C345 1.349 . S
C346 C358 1.349 . S
C347 C345 1.327 . S
C347 C363 1.429 . S
C347 H369 0.950 . S
C348 H344 0.949 . S
C348 C356 1.574 . S
C348 C364 1.368 . S
H349 C357 0.950 . S
H350 C355 0.950 . S
H351 C356 0.949 . S
H352 C358 0.950 . S
H353 C359 0.950 . S
H354 C360 0.949 . S
C355 H350 0.950 . S
C355 C357 1.327 . S
C355 C361 1.429 . S
C356 C348 1.574 . S
C356 H351 0.949 . S
C356 C362 1.368 . S
C357 C341 1.349 . S
C357 H349 0.950 . S
C357 C355 1.327 . S
C358 C346 1.349 . S
C358 H352 0.950 . S
C358 C359 1.327 . S
C359 H353 0.950 . S
C359 C358 1.327 . S
C359 C363 1.429 . S
C360 C343 1.574 . S
C360 H354 0.949 . S
C360 C364 1.368 . S
C361 C342 1.429 . S
C361 C355 1.429 . S
C361 C362 1.523 . S
C362 C343 1.368 . S
C362 C356 1.368 . S
C362 C361 1.523 . S
C363 C347 1.429 . S
C363 C359 1.429 . S
C363 C364 1.523 . S
C364 C348 1.368 . S
C364 C360 1.368 . S
C364 C363 1.523 . S
H365 C340 0.950 . S
H366 C342 0.950 . S
H367 C343 0.949 . S
H368 C345 0.950 . S
H369 C347 0.950 . S
C370 C371 1.349 . S
C370 C372 1.327 . S
C370 H395 0.950 . S
C371 C370 1.349 . S
C371 C387 1.349 . S
C372 C370 1.327 . S
C372 C391 1.429 . S
C372 H396 0.950 . S
C373 C390 1.574 . S
C373 C392 1.368 . S
C373 H397 0.949 . S
H374 C378 0.949 . S
C375 C376 1.349 . S
C375 C377 1.327 . S
C375 H398 0.950 . S
C376 C375 1.349 . S
C376 C388 1.349 . S
C377 C375 1.327 . S
C377 C393 1.429 . S
C377 H399 0.950 . S
C378 H374 0.949 . S
C378 C386 1.574 . S
C378 C394 1.368 . S
H379 C387 0.950 . S
H380 C385 0.950 . S
H381 C386 0.949 . S
H382 C388 0.950 . S
H383 C389 0.950 . S
H384 C390 0.949 . S
C385 H380 0.950 . S
C385 C387 1.327 . S
C385 C391 1.429 . S
C386 C378 1.574 . S
C386 H381 0.949 . S
C386 C392 1.368 . S
C387 C371 1.349 . S
C387 H379 0.950 . S
C387 C385 1.327 . S
C388 C376 1.349 . S
C388 H382 0.950 . S
C388 C389 1.327 . S
C389 H383 0.950 . S
C389 C388 1.327 . S
C389 C393 1.429 . S
C390 C373 1.574 . S
C390 H384 0.949 . S
C390 C394 1.368 . S
C391 C372 1.429 . S
C391 C385 1.429 . S
C391 C392 1.523 . S
C392 C373 1.368 . S
C392 C386 1.368 . S
C392 C391 1.523 . S
C393 C377 1.429 . S
C393 C389 1.429 . S
C393 C394 1.523 . S
C394 C378 1.368 . S
C394 C390 1.368 . S
C394 C393 1.523 . S
H395 C370 0.950 . S
H396 C372 0.950 . S
H397 C373 0.949 . S
H398 C375 0.950 . S
H399 C377 0.950 . S
C400 C401 1.349 . S
C400 C402 1.327 . S
C400 H425 0.950 . S
C401 C400 1.349 . S
C401 C417 1.349 . S
C402 C400 1.327 . S
C402 C421 1.429 . S
C402 H426 0.950 . S
C403 C420 1.574 . S
C403 C422 1.368 . S
C403 H427 0.949 . S
H404 C408 0.949 . S
C405 C406 1.349 . S
C405 C407 1.327 . S
C405 H428 0.950 . S
C406 C405 1.349 . S
C406 C418 1.349 . S
C407 C405 1.327 . S
C407 C423 1.429 . S
C407 H429 0.950 . S
C408 H404 0.949 . S
C408 C416 1.574 . S
C408 C424 1.368 . S
H409 C417 0.950 . S
H410 C415 0.950 . S
H411 C416 0.949 . S
H412 C418 0.950 . S
H413 C419 0.950 . S
H414 C420 0.949 . S
C415 H410 0.950 . S
C415 C417 1.327 . S
C415 C421 1.429 . S
C416 C408 1.574 . S
C416 H411 0.949 . S
C416 C422 1.368 . S
C417 C401 1.349 . S
C417 H409 0.950 . S
C417 C415 1.327 . S
C418 C406 1.349 . S
C418 H412 0.950 . S
C418 C419 1.327 . S
C419 H413 0.950 . S
C419 C418 1.327 . S
C419 C423 1.429 . S
C420 C403 1.574 . S
C420 H414 0.949 . S
C420 C424 1.368 . S
C421 C402 1.429 . S
C421 C415 1.429 . S
C421 C422 1.523 . S
C422 C403 1.368 . S
C422 C416 1.368 . S
C422 C421 1.523 . S
C423 C407 1.429 . S
C423 C419 1.429 . S
C423 C424 1.523 . S
C424 C408 1.368 . S
C424 C420 1.368 . S
C424 C423 1.523 . S
H425 C400 0.950 . S
H426 C402 0.950 . S
H427 C403 0.949 . S
H428 C405 0.950 . S
H429 C407 0.950 . S
C430 C431 1.349 . S
C430 C432 1.327 . S
C430 H455 0.950 . S
C431 C430 1.349 . S
C431 C447 1.349 . S
C432 C430 1.327 . S
C432 C451 1.429 . S
C432 H456 0.950 . S
C433 C450 1.574 . S
C433 C452 1.368 . S
C433 H457 0.949 . S
H434 C438 0.949 . S
C435 C436 1.349 . S
C435 C437 1.327 . S
C435 H458 0.950 . S
C436 C435 1.349 . S
C436 C448 1.349 . S
C437 C435 1.327 . S
C437 C453 1.429 . S
C437 H459 0.950 . S
C438 H434 0.949 . S
C438 C446 1.574 . S
C438 C454 1.368 . S
H439 C447 0.950 . S
H440 C445 0.950 . S
H441 C446 0.949 . S
H442 C448 0.950 . S
H443 C449 0.950 . S
H444 C450 0.949 . S
C445 H440 0.950 . S
C445 C447 1.327 . S
C445 C451 1.429 . S
C446 C438 1.574 . S
C446 H441 0.949 . S
C446 C452 1.368 . S
C447 C431 1.349 . S
C447 H439 0.950 . S
C447 C445 1.327 . S
C448 C436 1.349 . S
C448 H442 0.950 . S
C448 C449 1.327 . S
C449 H443 0.950 . S
C449 C448 1.327 . S
C449 C453 1.429 . S
C450 C433 1.574 . S
C450 H444 0.949 . S
C450 C454 1.368 . S
C451 C432 1.429 . S
C451 C445 1.429 . S
C451 C452 1.523 . S
C452 C433 1.368 . S
C452 C446 1.368 . S
C452 C451 1.523 . S
C453 C437 1.429 . S
C453 C449 1.429 . S
C453 C454 1.523 . S
C454 C438 1.368 . S
C454 C450 1.368 . S
C454 C453 1.523 . S
H455 C430 0.950 . S
H456 C432 0.950 . S
H457 C433 0.949 . S
H458 C435 0.950 . S
H459 C437 0.950 . S
C460 C461 1.349 . S
C460 C462 1.327 . S
C460 H485 0.950 . S
C461 C460 1.349 . S
C461 C477 1.349 . S
C462 C460 1.327 . S
C462 C481 1.429 . S
C462 H486 0.950 . S
C463 C480 1.574 . S
C463 C482 1.368 . S
C463 H487 0.949 . S
H464 C468 0.949 . S
C465 C466 1.349 . S
C465 C467 1.327 . S
C465 H488 0.950 . S
C466 C465 1.349 . S
C466 C478 1.349 . S
C467 C465 1.327 . S
C467 C483 1.429 . S
C467 H489 0.950 . S
C468 H464 0.949 . S
C468 C476 1.574 . S
C468 C484 1.368 . S
H469 C477 0.950 . S
H470 C475 0.950 . S
H471 C476 0.949 . S
H472 C478 0.963 . S
H473 C479 0.950 . S
H474 C480 0.949 . S
C475 H470 0.950 . S
C475 C477 1.327 . S
C475 C481 1.429 . S
C476 C468 1.574 . S
C476 H471 0.949 . S
C476 C482 1.368 . S
C477 C461 1.349 . S
C477 H469 0.950 . S
C477 C475 1.327 . S
C478 C466 1.349 . S
C478 H472 0.963 . S
C478 C479 1.327 . S
C479 H473 0.950 . S
C479 C478 1.327 . S
C479 C483 1.429 . S
C480 C463 1.574 . S
C480 H474 0.949 . S
C480 C484 1.368 . S
C481 C462 1.429 . S
C481 C475 1.429 . S
C481 C482 1.523 . S
C482 C463 1.368 . S
C482 C476 1.368 . S
C482 C481 1.523 . S
C483 C467 1.429 . S
C483 C479 1.429 . S
C483 C484 1.523 . S
C484 C468 1.368 . S
C484 C480 1.368 . S
C484 C483 1.523 . S
H485 C460 0.950 . S
H486 C462 0.950 . S
H487 C463 0.949 . S
H488 C465 0.950 . S
H489 C467 0.950 . S
C490 C491 1.349 . S
C490 C492 1.327 . S
C490 H515 0.950 . S
C491 C490 1.349 . S
C491 C507 1.349 . S
C492 C490 1.327 . S
C492 C511 1.429 . S
C492 H516 0.950 . S
C493 C510 1.574 . S
C493 C512 1.368 . S
C493 H517 0.949 . S
H494 C498 0.949 . S
C495 C496 1.349 . S
C495 C497 1.327 . S
C495 H518 0.950 . S
C496 C495 1.349 . S
C496 C508 1.349 . S
C497 C495 1.327 . S
C497 C513 1.429 . S
C497 H519 0.950 . S
C498 H494 0.949 . S
C498 C506 1.574 . S
C498 C514 1.368 . S
H499 C507 0.950 . S
H500 C505 0.950 . S
H501 C506 0.949 . S
H502 C508 0.950 . S
H503 C509 0.950 . S
H504 C510 0.949 . S
C505 H500 0.950 . S
C505 C507 1.327 . S
C505 C511 1.429 . S
C506 C498 1.574 . S
C506 H501 0.949 . S
C506 C512 1.368 . S
C507 C491 1.349 . S
C507 H499 0.950 . S
C507 C505 1.327 . S
C508 C496 1.349 . S
C508 H502 0.950 . S
C508 C509 1.327 . S
C509 H503 0.950 . S
C509 C508 1.327 . S
C509 C513 1.429 . S
C510 C493 1.574 . S
C510 H504 0.949 . S
C510 C514 1.368 . S
C511 C492 1.429 . S
C511 C505 1.429 . S
C511 C512 1.523 . S
C512 C493 1.368 . S
C512 C506 1.368 . S
C512 C511 1.523 . S
C513 C497 1.429 . S
C513 C509 1.429 . S
C513 C514 1.523 . S
C514 C498 1.368 . S
C514 C510 1.368 . S
C514 C513 1.523 . S
H515 C490 0.950 . S
H516 C492 0.950 . S
H517 C493 0.949 . S
H518 C495 0.950 . S
H519 C497 0.950 . S
C520 C521 1.349 . S
C520 C522 1.327 . S
C520 H545 0.950 . S
C521 C520 1.349 . S
C521 C537 1.349 . S
C522 C520 1.327 . S
C522 C541 1.429 . S
C522 H546 0.950 . S
C523 C540 1.574 . S
C523 C542 1.368 . S
C523 H547 0.949 . S
H524 C528 0.949 . S
C525 C526 1.349 . S
C525 C527 1.327 . S
C525 H548 0.950 . S
C526 C525 1.349 . S
C526 C538 1.349 . S
C527 C525 1.327 . S
C527 C543 1.429 . S
C527 H549 0.950 . S
C528 H524 0.949 . S
C528 C536 1.574 . S
C528 C544 1.368 . S
H529 C537 0.950 . S
H530 C535 0.950 . S
H531 C536 0.949 . S
H532 C538 0.950 1_655 S
H533 C539 0.950 1_655 S
H534 C540 0.949 . S
C535 H530 0.950 . S
C535 C537 1.327 . S
C535 C541 1.429 . S
C536 C528 1.574 . S
C536 H531 0.949 . S
C536 C542 1.368 . S
C537 C521 1.349 . S
C537 H529 0.950 . S
C537 C535 1.327 . S
C538 C526 1.349 . S
C538 H532 0.950 1_455 S
C538 C539 1.327 . S
C539 H533 0.950 1_455 S
C539 C538 1.327 . S
C539 C543 1.429 . S
C540 C523 1.574 . S
C540 H534 0.949 . S
C540 C544 1.368 . S
C541 C522 1.429 . S
C541 C535 1.429 . S
C541 C542 1.523 . S
C542 C523 1.368 . S
C542 C536 1.368 . S
C542 C541 1.523 . S
C543 C527 1.429 . S
C543 C539 1.429 . S
C543 C544 1.523 . S
C544 C528 1.368 . S
C544 C540 1.368 . S
C544 C543 1.523 . S
H545 C520 0.950 . S
H546 C522 0.950 . S
H547 C523 0.949 . S
H548 C525 0.950 . S
H549 C527 0.950 . S
C196 C161 1.628 . S
C191 C133 1.624 . S
C221 C25 1.579 . S
C226 C184 1.626 . S
C251 C61 1.602 . S
C256 C160 1.650 . S
C281 C97 1.645 . S
C286 C183 1.651 . S
C316 C164 1.583 . S
C311 C1 1.591 . S
C346 C186 1.612 . S
C341 C67 1.600 . S
C371 C103 1.638 . S
C376 C165 1.589 . S
C401 C109 1.616 . S
C406 C185 1.586 . S
C436 C188 1.589 . S
C431 C37 1.604 . S
C466 C163 1.611 . S
C461 C73 1.640 . S
C496 C187 1.583 . S
C491 C139 1.624 . S
C521 C31 1.578 . S
C526 C162 1.587 . S
