# Generated by pormake.
# Topology pto, (3,4)-cn, num edge types: 1
# Building blocks:
#     Node 0, Type 0, BuildingBlock: BELTOD_clean_linker_0, # of connection points: 3
#     Node 1, Type 0, BuildingBlock: BELTOD_clean_linker_0, # of connection points: 3
#     Node 2, Type 0, BuildingBlock: BELTOD_clean_linker_0, # of connection points: 3
#     Node 3, Type 0, BuildingBlock: BELTOD_clean_linker_0, # of connection points: 3
#     Node 4, Type 0, BuildingBlock: BELTOD_clean_linker_0, # of connection points: 3
#     Node 5, Type 0, BuildingBlock: BELTOD_clean_linker_0, # of connection points: 3
#     Node 6, Type 0, BuildingBlock: BELTOD_clean_linker_0, # of connection points: 3
#     Node 7, Type 0, BuildingBlock: BELTOD_clean_linker_0, # of connection points: 3
#     Node 8, Type 1, BuildingBlock: NAWXER_clean_sbu_0, # of connection points: 4
#     Node 9, Type 1, BuildingBlock: NAWXER_clean_sbu_0, # of connection points: 4
#     Node 10, Type 1, BuildingBlock: NAWXER_clean_sbu_0, # of connection points: 4
#     Node 11, Type 1, BuildingBlock: NAWXER_clean_sbu_0, # of connection points: 4
#     Node 12, Type 1, BuildingBlock: NAWXER_clean_sbu_0, # of connection points: 4
#     Node 13, Type 1, BuildingBlock: NAWXER_clean_sbu_0, # of connection points: 4
#     Edge 14, Type (0, 1), BuildingBlock: EZIPEK_clean_linker_0, # of connection points: 2
#     Edge 15, Type (0, 1), BuildingBlock: EZIPEK_clean_linker_0, # of connection points: 2
#     Edge 16, Type (0, 1), BuildingBlock: EZIPEK_clean_linker_0, # of connection points: 2
#     Edge 17, Type (0, 1), BuildingBlock: EZIPEK_clean_linker_0, # of connection points: 2
#     Edge 18, Type (0, 1), BuildingBlock: EZIPEK_clean_linker_0, # of connection points: 2
#     Edge 19, Type (0, 1), BuildingBlock: EZIPEK_clean_linker_0, # of connection points: 2
#     Edge 20, Type (0, 1), BuildingBlock: EZIPEK_clean_linker_0, # of connection points: 2
#     Edge 21, Type (0, 1), BuildingBlock: EZIPEK_clean_linker_0, # of connection points: 2
#     Edge 22, Type (0, 1), BuildingBlock: EZIPEK_clean_linker_0, # of connection points: 2
#     Edge 23, Type (0, 1), BuildingBlock: EZIPEK_clean_linker_0, # of connection points: 2
#     Edge 24, Type (0, 1), BuildingBlock: EZIPEK_clean_linker_0, # of connection points: 2
#     Edge 25, Type (0, 1), BuildingBlock: EZIPEK_clean_linker_0, # of connection points: 2
#     Edge 26, Type (0, 1), BuildingBlock: EZIPEK_clean_linker_0, # of connection points: 2
#     Edge 27, Type (0, 1), BuildingBlock: EZIPEK_clean_linker_0, # of connection points: 2
#     Edge 28, Type (0, 1), BuildingBlock: EZIPEK_clean_linker_0, # of connection points: 2
#     Edge 29, Type (0, 1), BuildingBlock: EZIPEK_clean_linker_0, # of connection points: 2
#     Edge 30, Type (0, 1), BuildingBlock: EZIPEK_clean_linker_0, # of connection points: 2
#     Edge 31, Type (0, 1), BuildingBlock: EZIPEK_clean_linker_0, # of connection points: 2
#     Edge 32, Type (0, 1), BuildingBlock: EZIPEK_clean_linker_0, # of connection points: 2
#     Edge 33, Type (0, 1), BuildingBlock: EZIPEK_clean_linker_0, # of connection points: 2
#     Edge 34, Type (0, 1), BuildingBlock: EZIPEK_clean_linker_0, # of connection points: 2
#     Edge 35, Type (0, 1), BuildingBlock: EZIPEK_clean_linker_0, # of connection points: 2
#     Edge 36, Type (0, 1), BuildingBlock: EZIPEK_clean_linker_0, # of connection points: 2
#     Edge 37, Type (0, 1), BuildingBlock: EZIPEK_clean_linker_0, # of connection points: 2
# Relax obj value: 0.000
# Max RMSD: 0.007
# Mean RMSD: 0.005
data_MOF--net-pto--node1-NAWXER_clean_sbu_0--node2-BELTOD_clean_linker_0--edge1-EZIPEK_clean_linker_0
_symmetry_space_group_name_H-M    P1
_symmetry_Int_Tables_number       1
_symmetry_cell_setting            triclinic
loop_
_symmetry_equiv_pos_as_xyz
'x, y, z'
_cell_length_a     37.722633
_cell_length_b     35.529689
_cell_length_c     33.074454
_cell_angle_alpha  89.123318
_cell_angle_beta   91.694185
_cell_angle_gamma 92.092736
loop_
_atom_site_label
_atom_site_type_symbol
_atom_site_fract_x
_atom_site_fract_y
_atom_site_fract_z
_atom_type_partial_charge
P0 P 0.27261 0.33913 0.27806 0.0
H1 H 0.3441 0.37403 0.27895 0.0
H2 H 0.39349 0.37101 0.23272 0.0
H3 H 0.33052 0.29595 0.15599 0.0
H4 H 0.28101 0.29848 0.20266 0.0
H5 H 0.25215 0.41713 0.28484 0.0
H6 H 0.20205 0.45167 0.25644 0.0
H7 H 0.16793 0.3546 0.18683 0.0
H8 H 0.21819 0.31968 0.21561 0.0
H9 H 0.30809 0.26916 0.29782 0.0
H10 H 0.20196 0.31011 0.30115 0.0
O11 O 0.28684 0.36244 0.31922 0.0
H12 H 0.28844 0.21151 0.33387 0.0
H13 H 0.18228 0.25212 0.33637 0.0
C14 C 0.30902 0.33612 0.24441 0.0
C15 C 0.34083 0.35677 0.25233 0.0
C16 C 0.36895 0.35528 0.2259 0.0
C17 C 0.36546 0.33345 0.19099 0.0
C18 C 0.33351 0.31311 0.18275 0.0
C19 C 0.30543 0.31443 0.20937 0.0
C20 C 0.23828 0.36554 0.25311 0.0
C21 C 0.23418 0.40328 0.26319 0.0
C22 C 0.20582 0.42313 0.24673 0.0
C23 C 0.18135 0.40559 0.21972 0.0
C24 C 0.18669 0.36856 0.20757 0.0
C25 C 0.21514 0.34865 0.22415 0.0
C26 C 0.25634 0.29357 0.29578 0.0
C27 C 0.28037 0.26527 0.30507 0.0
C28 C 0.26923 0.23247 0.32576 0.0
C29 C 0.23391 0.22758 0.33758 0.0
C30 C 0.20954 0.25527 0.32711 0.0
C31 C 0.2208 0.28825 0.30679 0.0
P32 P 0.25288 0.73557 0.68515 0.0
H33 H 0.23601 0.65642 0.66843 0.0
H34 H 0.1832 0.61579 0.68003 0.0
H35 H 0.13129 0.70902 0.73185 0.0
H36 H 0.18426 0.74984 0.72034 0.0
H37 H 0.20946 0.75904 0.61684 0.0
H38 H 0.19626 0.82075 0.58735 0.0
H39 H 0.25255 0.87509 0.68701 0.0
H40 H 0.2655 0.81307 0.71701 0.0
H41 H 0.2513 0.69438 0.76333 0.0
H42 H 0.322 0.77272 0.70166 0.0
O43 O 0.27444 0.71786 0.64686 0.0
H44 H 0.29603 0.687 0.81777 0.0
H45 H 0.36658 0.76575 0.75676 0.0
C46 C 0.21375 0.70622 0.69296 0.0
C47 C 0.21317 0.66829 0.68185 0.0
C48 C 0.18309 0.64517 0.68832 0.0
C49 C 0.15331 0.65968 0.70616 0.0
C50 C 0.15389 0.69761 0.71745 0.0
C51 C 0.18407 0.72074 0.71103 0.0
C52 C 0.23901 0.78148 0.66866 0.0
C53 C 0.21833 0.78419 0.63289 0.0
C54 C 0.2105 0.81933 0.61624 0.0
C55 C 0.22324 0.85238 0.63515 0.0
C56 C 0.24215 0.84982 0.67229 0.0
C57 C 0.24992 0.81446 0.68908 0.0
C58 C 0.283 0.73471 0.72864 0.0
C59 C 0.27608 0.71057 0.76174 0.0
C60 C 0.30169 0.70613 0.79277 0.0
C61 C 0.33462 0.72577 0.79124 0.0
C62 C 0.34133 0.75037 0.75849 0.0
C63 C 0.31581 0.75457 0.7273 0.0
P64 P 0.75332 0.76999 0.20128 0.0
H65 H 0.79714 0.77641 0.2756 0.0
H66 H 0.78958 0.81162 0.33769 0.0
H67 H 0.68303 0.83681 0.29834 0.0
H68 H 0.69058 0.80173 0.23592 0.0
H69 H 0.82787 0.78014 0.18032 0.0
H70 H 0.87705 0.73696 0.17989 0.0
H71 H 0.8078 0.64665 0.22264 0.0
H72 H 0.75838 0.68992 0.22322 0.0
H73 H 0.72845 0.77352 0.11734 0.0
H74 H 0.69551 0.71787 0.22756 0.0
O75 O 0.76538 0.80864 0.17504 0.0
H76 H 0.67578 0.74722 0.08156 0.0
H77 H 0.64279 0.69068 0.19122 0.0
C78 C 0.74416 0.7857 0.25141 0.0
C79 C 0.77165 0.7882 0.28087 0.0
C80 C 0.76739 0.80835 0.31632 0.0
C81 C 0.73565 0.82651 0.32271 0.0
C82 C 0.70749 0.82248 0.29423 0.0
C83 C 0.71182 0.8024 0.25867 0.0
C84 C 0.78935 0.7381 0.20135 0.0
C85 C 0.82308 0.75104 0.18936 0.0
C86 C 0.85113 0.72646 0.189 0.0
C87 C 0.84583 0.68864 0.20077 0.0
C88 C 0.81217 0.67569 0.21302 0.0
C89 C 0.78409 0.70035 0.21344 0.0
C90 C 0.71528 0.74852 0.17535 0.0
C91 C 0.70995 0.75555 0.13384 0.0
C92 C 0.6801 0.74027 0.1133 0.0
C93 C 0.65534 0.71727 0.13382 0.0
C94 C 0.66161 0.7085 0.17495 0.0
C95 C 0.69144 0.72417 0.19566 0.0
P96 P 0.7596 0.23109 0.77881 0.0
H97 H 0.69232 0.19791 0.80512 0.0
H98 H 0.64632 0.22119 0.84829 0.0
H99 H 0.69865 0.33111 0.84877 0.0
H100 H 0.74561 0.30747 0.80809 0.0
H101 H 0.7957 0.1678 0.74745 0.0
H102 H 0.78174 0.12376 0.69253 0.0
H103 H 0.68597 0.18215 0.66297 0.0
H104 H 0.69993 0.22652 0.71849 0.0
H105 H 0.83673 0.23739 0.78862 0.0
H106 H 0.75511 0.30047 0.72867 0.0
O107 O 0.77865 0.20505 0.81523 0.0
H108 H 0.87892 0.2887 0.77785 0.0
H109 H 0.79725 0.35278 0.71858 0.0
C110 C 0.72196 0.25107 0.80206 0.0
C111 C 0.69353 0.22722 0.81375 0.0
C112 C 0.66742 0.24044 0.83857 0.0
C113 C 0.66918 0.27787 0.85189 0.0
C114 C 0.6968 0.30217 0.83884 0.0
C115 C 0.7234 0.28866 0.81495 0.0
C116 C 0.74851 0.19994 0.73749 0.0
C117 C 0.77157 0.17111 0.72937 0.0
C118 C 0.76367 0.14601 0.69807 0.0
C119 C 0.73272 0.14955 0.67403 0.0
C120 C 0.70985 0.17888 0.68148 0.0
C121 C 0.7178 0.20409 0.71305 0.0
C122 C 0.79186 0.26664 0.76327 0.0
C123 C 0.82749 0.26317 0.77474 0.0
C124 C 0.8515 0.29356 0.76985 0.0
C125 C 0.83998 0.32924 0.75631 0.0
C126 C 0.80598 0.32927 0.73681 0.0
C127 C 0.7819 0.29854 0.74103 0.0
P128 P 0.79401 0.77925 0.82511 0.0
H129 H 0.76028 0.75154 0.89865 0.0
H130 H 0.69874 0.75117 0.9209 0.0
H131 H 0.66528 0.79675 0.80496 0.0
H132 H 0.72617 0.79522 0.78192 0.0
H133 H 0.86519 0.7646 0.80022 0.0
H134 H 0.90006 0.70782 0.79954 0.0
H135 H 0.81195 0.64274 0.84791 0.0
H136 H 0.77638 0.69936 0.84694 0.0
H137 H 0.78247 0.85788 0.80577 0.0
H138 H 0.81027 0.75903 0.74126 0.0
O139 O 0.81426 0.80523 0.86113 0.0
H140 H 0.78307 0.89459 0.7424 0.0
H141 H 0.8129 0.7963 0.6783 0.0
C142 C 0.74801 0.77329 0.83863 0.0
C143 C 0.7396 0.76057 0.87766 0.0
C144 C 0.70456 0.76061 0.89043 0.0
C145 C 0.67745 0.77412 0.86464 0.0
C146 C 0.68576 0.78619 0.82532 0.0
C147 C 0.72066 0.78533 0.81225 0.0
C148 C 0.81796 0.73621 0.82294 0.0
C149 C 0.8531 0.73803 0.81008 0.0
C150 C 0.87307 0.70571 0.80989 0.0
C151 C 0.85859 0.67101 0.82353 0.0
C152 C 0.82355 0.66919 0.83703 0.0
C153 C 0.80328 0.70154 0.83648 0.0
C154 C 0.79705 0.80596 0.77843 0.0
C155 C 0.78932 0.84426 0.77813 0.0
C156 C 0.7896 0.86515 0.74204 0.0
C157 C 0.79819 0.8482 0.70569 0.0
C158 C 0.80631 0.80991 0.70604 0.0
C159 C 0.80507 0.78875 0.74205 0.0
P160 P 0.81355 0.2388 0.22449 0.0
H161 H 0.87959 0.25979 0.2662 0.0
H162 H 0.91081 0.32059 0.27757 0.0
H163 H 0.82095 0.37805 0.22643 0.0
H164 H 0.78961 0.31707 0.21477 0.0
H165 H 0.82699 0.15871 0.23254 0.0
H166 H 0.82184 0.11387 0.2893 0.0
H167 H 0.79168 0.2033 0.36653 0.0
H168 H 0.79739 0.24847 0.30976 0.0
H169 H 0.78895 0.26192 0.14388 0.0
H170 H 0.74167 0.21958 0.25361 0.0
O171 O 0.8404 0.22202 0.19039 0.0
H172 H 0.73 0.26134 0.11014 0.0
H173 H 0.68302 0.21877 0.21974 0.0
C174 C 0.83236 0.28392 0.2396 0.0
C175 C 0.8662 0.28546 0.25833 0.0
C176 C 0.88395 0.32008 0.26498 0.0
C177 C 0.86805 0.35368 0.25308 0.0
C178 C 0.8334 0.35235 0.23626 0.0
C179 C 0.81565 0.31757 0.22941 0.0
C180 C 0.8131 0.20693 0.26721 0.0
C181 C 0.81997 0.16887 0.26184 0.0
C182 C 0.81703 0.14332 0.29412 0.0
C183 C 0.80669 0.15544 0.33204 0.0
C184 C 0.80011 0.19362 0.33756 0.0
C185 C 0.80335 0.21926 0.30528 0.0
C186 C 0.76981 0.2406 0.20115 0.0
C187 C 0.76598 0.25254 0.16069 0.0
C188 C 0.73247 0.25203 0.14141 0.0
C189 C 0.70233 0.23962 0.16239 0.0
C190 C 0.70607 0.22812 0.20302 0.0
C191 C 0.73957 0.22876 0.22234 0.0
P192 P 0.26257 0.29198 0.76379 0.0
H193 H 0.23406 0.28511 0.6813 0.0
H194 H 0.23702 0.23504 0.6312 0.0
H195 H 0.28522 0.1629 0.72159 0.0
H196 H 0.2808 0.212 0.772 0.0
H197 H 0.2482 0.35548 0.81379 0.0
H198 H 0.19383 0.38882 0.82576 0.0
H199 H 0.13235 0.30274 0.76194 0.0
H200 H 0.18687 0.26922 0.74987 0.0
H201 H 0.33676 0.27533 0.76322 0.0
H202 H 0.2568 0.28385 0.85295 0.0
O203 O 0.28156 0.327 0.73702 0.0
H204 H 0.38137 0.2636 0.81669 0.0
H205 H 0.30198 0.27331 0.9068 0.0
C206 C 0.25754 0.25252 0.73024 0.0
C207 C 0.24448 0.25821 0.69057 0.0
C208 C 0.24641 0.22982 0.66198 0.0
C209 C 0.26185 0.19555 0.67261 0.0
C210 C 0.27349 0.18928 0.71276 0.0
C211 C 0.27093 0.21739 0.7415 0.0
C212 C 0.2216 0.30987 0.78102 0.0
C213 C 0.22293 0.34308 0.80348 0.0
C214 C 0.19196 0.36208 0.81039 0.0
C215 C 0.15915 0.34812 0.79491 0.0
C216 C 0.15743 0.31366 0.77452 0.0
C217 C 0.18855 0.29465 0.76751 0.0
C218 C 0.2937 0.28112 0.80419 0.0
C219 C 0.3288 0.27449 0.79444 0.0
C220 C 0.35414 0.2675 0.82483 0.0
C221 C 0.34488 0.26749 0.86558 0.0
C222 C 0.30948 0.27292 0.87545 0.0
C223 C 0.28387 0.27937 0.8448 0.0
P224 P 0.29402 0.74596 0.28871 0.0
H225 H 0.36755 0.75626 0.26706 0.0
H226 H 0.3972 0.75977 0.20214 0.0
H227 H 0.29585 0.74759 0.13903 0.0
H228 H 0.26595 0.74438 0.20431 0.0
H229 H 0.30241 0.77613 0.36999 0.0
H230 H 0.29776 0.83963 0.3968 0.0
H231 H 0.27492 0.88254 0.27657 0.0
H232 H 0.27937 0.81879 0.24956 0.0
H233 H 0.27071 0.67374 0.25495 0.0
H234 H 0.22394 0.76282 0.32014 0.0
O235 O 0.32025 0.72147 0.32006 0.0
H236 H 0.21402 0.63745 0.25579 0.0
H237 H 0.16735 0.7264 0.32103 0.0
C238 C 0.31473 0.74892 0.24042 0.0
C239 C 0.35165 0.75436 0.23931 0.0
C240 C 0.36852 0.75672 0.20237 0.0
C241 C 0.34865 0.75406 0.16595 0.0
C242 C 0.31152 0.7499 0.16691 0.0
C243 C 0.29459 0.74764 0.20405 0.0
C244 C 0.29169 0.7929 0.30777 0.0
C245 C 0.29688 0.7992 0.34926 0.0
C246 C 0.29445 0.83538 0.36452 0.0
C247 C 0.28671 0.86571 0.33849 0.0
C248 C 0.28164 0.85952 0.29689 0.0
C249 C 0.28396 0.8232 0.28163 0.0
C250 C 0.25137 0.72129 0.28671 0.0
C251 C 0.2482 0.68563 0.26907 0.0
C252 C 0.21602 0.66483 0.2698 0.0
C253 C 0.18661 0.67928 0.28851 0.0
C254 C 0.1898 0.71485 0.30646 0.0
C255 C 0.22202 0.73569 0.30567 0.0
C256 C 0.96508 0.48466 0.2553 0.0
C257 C 0.05817 0.58509 0.27359 0.0
O258 O 0.97969 0.49496 0.28879 0.0
Zn259 Zn 0.01015 0.53589 0.26753 0.0
O260 O 0.97412 0.50178 0.22269 0.0
Zn261 Zn 0.01215 0.54362 0.20308 0.0
O262 O 0.0441 0.51274 0.17289 0.0
O263 O 0.0483 0.50368 0.23896 0.0
O264 O 0.04957 0.57809 0.23667 0.0
O265 O 0.04113 0.56837 0.30176 0.0
O266 O 0.9725 0.57386 0.24252 0.0
O267 O 0.9818 0.5806 0.17719 0.0
C268 C 0.05871 0.49671 0.2035 0.0
C269 C 0.96458 0.58896 0.20817 0.0
C270 C 0.94507 0.45216 0.74658 0.0
C271 C 0.0383 0.55163 0.73876 0.0
O272 O 0.9591 0.46173 0.78083 0.0
Zn273 Zn 0.99869 0.50021 0.80492 0.0
O274 O 0.95554 0.46834 0.71424 0.0
Zn275 Zn 0.99103 0.50175 0.74046 0.0
O276 O 0.02861 0.46226 0.76195 0.0
O277 O 0.03458 0.46708 0.82808 0.0
O278 O 0.02157 0.5358 0.70927 0.0
O279 O 0.03092 0.54165 0.77495 0.0
O280 O 0.97063 0.53106 0.83867 0.0
O281 O 0.95913 0.53933 0.77323 0.0
C282 C 0.04372 0.45228 0.79534 0.0
C283 C 0.95374 0.54769 0.81012 0.0
C284 C 0.21981 0.98826 0.53522 0.0
C285 C 0.21589 0.09677 0.44035 0.0
O286 O 0.19168 1.00196 0.51964 0.0
Zn287 Zn 0.21472 0.04243 0.48707 0.0
O288 O 0.24994 0.00315 0.52631 0.0
Zn289 Zn 0.27203 0.04509 0.48786 0.0
O290 O 0.29793 0.07621 0.5274 0.0
O291 O 0.23955 0.07739 0.5322 0.0
O292 O 0.24719 0.08655 0.45041 0.0
O293 O 0.18884 0.07919 0.45452 0.0
O294 O 0.23729 0.01004 0.44193 0.0
O295 O 0.2953 0.01267 0.45049 0.0
C296 C 0.27075 0.08811 0.54452 0.0
C297 C 0.26765 0.99887 0.43232 0.0
C298 C 0.53327 0.70041 0.02801 0.0
C299 C 0.44426 0.71212 0.91688 0.0
O300 O 0.51842 0.67305 0.00868 0.0
Zn301 Zn 0.48869 0.70363 0.97206 0.0
O302 O 0.52414 0.73404 0.01985 0.0
Zn303 Zn 0.48879 0.76349 0.98072 0.0
O304 O 0.45741 0.78281 0.0206 0.0
O305 O 0.45005 0.7217 0.01249 0.0
O306 O 0.45324 0.74338 0.93378 0.0
O307 O 0.45876 0.68192 0.92873 0.0
O308 O 0.52877 0.7354 0.9407 0.0
O309 O 0.52249 0.79594 0.95181 0.0
C310 C 0.44152 0.75178 0.02995 0.0
C311 C 0.53932 0.76981 0.93581 0.0
C312 C 0.78918 0.94398 0.56264 0.0
C313 C 0.78575 0.03886 0.45444 0.0
O314 O 0.75747 0.95053 0.54998 0.0
Zn315 Zn 0.73212 0.9848 0.50415 0.0
O316 O 0.81544 0.96028 0.54558 0.0
Zn317 Zn 0.78845 0.9896 0.50701 0.0
O318 O 0.76127 0.02741 0.54521 0.0
O319 O 0.70341 0.01583 0.53705 0.0
O320 O 0.81297 0.02409 0.4707 0.0
O321 O 0.75482 0.02719 0.46497 0.0
O322 O 0.70994 0.94906 0.46576 0.0
O323 O 0.7682 0.94766 0.46635 0.0
C324 C 0.72923 0.03439 0.55377 0.0
C325 C 0.73799 0.9356 0.45235 0.0
C326 C 0.56789 0.25075 0.07413 0.0
C327 C 0.46524 0.26276 0.97918 0.0
O328 O 0.54697 0.2239 0.06229 0.0
Zn329 Zn 0.51558 0.25375 0.02728 0.0
O330 O 0.56167 0.28454 0.06288 0.0
Zn331 Zn 0.52397 0.31403 0.02696 0.0
O332 O 0.50005 0.34321 0.06677 0.0
O333 O 0.4848 0.28262 0.06952 0.0
O334 O 0.47954 0.29383 0.9915 0.0
O335 O 0.47843 0.23188 0.99134 0.0
O336 O 0.55147 0.27473 0.98332 0.0
O337 O 0.55449 0.33685 0.98553 0.0
C338 C 0.48116 0.31627 0.08172 0.0
C339 C 0.56392 0.30631 0.96998 0.0
C340 C 0.11692 0.41496 0.23038 0.0
C341 C 0.14793 0.42464 0.20887 0.0
C342 C 0.11939 0.48008 0.17936 0.0
C343 C 0.08779 0.46975 0.19995 0.0
N344 N 0.0541 0.42222 0.23721 0.0
N345 N 0.17636 0.46068 0.1561 0.0
C346 C 0.08582 0.43545 0.22277 0.0
C347 C 0.14828 0.45527 0.18094 0.0
N348 N 0.11767 0.38763 0.25999 0.0
N349 N 0.12307 0.51467 0.16101 0.0
H350 H 0.19795 0.44309 0.15697 0.0
H351 H 0.17672 0.48023 0.13231 0.0
H352 H 0.10324 0.53431 0.15993 0.0
H353 H 0.14697 0.52531 0.14976 0.0
H354 H 0.0974 0.38291 0.28037 0.0
H355 H 0.13969 0.37148 0.26654 0.0
H356 H 0.05019 0.39529 0.24954 0.0
H357 H 0.03082 0.43681 0.23381 0.0
C358 C 0.0913 0.63381 0.69143 0.0
C359 C 0.12273 0.63409 0.71596 0.0
C360 C 0.09971 0.57989 0.75481 0.0
C361 C 0.06702 0.58085 0.73189 0.0
N362 N 0.02884 0.61591 0.68627 0.0
N363 N 0.15344 0.6139 0.77691 0.0
C364 C 0.06198 0.60983 0.70232 0.0
C365 C 0.12582 0.60917 0.74951 0.0
N366 N 0.08967 0.6559 0.65729 0.0
N367 N 0.107 0.55028 0.78025 0.0
H368 H 0.17333 0.63487 0.77396 0.0
H369 H 0.15479 0.59945 0.80454 0.0
H370 H 0.08937 0.52795 0.78629 0.0
H371 H 0.13216 0.54605 0.79299 0.0
H372 H 0.06895 0.65373 0.63582 0.0
H373 H 0.11037 0.67437 0.64884 0.0
H374 H 0.02313 0.63884 0.6675 0.0
H375 H 0.00623 0.60065 0.69528 0.0
C376 C 0.87988 0.63651 0.17133 0.0
C377 C 0.87618 0.66315 0.20225 0.0
C378 C 0.93236 0.64435 0.23408 0.0
C379 C 0.9346 0.61519 0.20522 0.0
N380 N 0.9055 0.57816 0.15226 0.0
N381 N 0.89509 0.68794 0.26709 0.0
C382 C 0.90709 0.60987 0.17525 0.0
C383 C 0.90134 0.66577 0.23478 0.0
N384 N 0.85771 0.63697 0.13791 0.0
N385 N 0.96032 0.65264 0.26003 0.0
H386 H 0.87282 0.70436 0.26866 0.0
H387 H 0.91028 0.68751 0.2939 0.0
H388 H 0.98345 0.63765 0.26132 0.0
H389 H 0.96187 0.6765 0.27799 0.0
H390 H 0.86161 0.62104 0.11235 0.0
H391 H 0.8371 0.65565 0.13434 0.0
H392 H 0.88405 0.57104 0.13299 0.0
H393 H 0.92362 0.5568 0.1555 0.0
C394 C 0.85492 0.40047 0.74443 0.0
C395 C 0.86435 0.36447 0.75997 0.0
C396 C 0.92585 0.38762 0.76816 0.0
C397 C 0.91783 0.421 0.74633 0.0
N398 N 0.87397 0.45959 0.71303 0.0
N399 N 0.90151 0.34296 0.81562 0.0
C400 C 0.88217 0.42744 0.73386 0.0
C401 C 0.89794 0.36289 0.78024 0.0
N402 N 0.82098 0.41178 0.74795 0.0
N403 N 0.96021 0.37923 0.77748 0.0
H404 H 0.87959 0.33052 0.82985 0.0
H405 H 0.92484 0.34373 0.83338 0.0
H406 H 0.98179 0.3959 0.76785 0.0
H407 H 0.96699 0.35371 0.79113 0.0
H408 H 0.81296 0.4388 0.7404 0.0
H409 H 0.8026 0.39627 0.76502 0.0
H410 H 0.84901 0.46359 0.69961 0.0
H411 H 0.89263 0.48105 0.7067 0.0
C412 C 0.22565 0.19912 0.40673 0.0
C413 C 0.22346 0.19499 0.36407 0.0
C414 C 0.206 0.12802 0.37262 0.0
C415 C 0.21253 0.13124 0.41489 0.0
N416 N 0.22849 0.16888 0.47304 0.0
N417 N 0.21178 0.15646 0.3056 0.0
C418 C 0.22191 0.16667 0.43222 0.0
C419 C 0.21328 0.15974 0.34677 0.0
N420 N 0.23121 0.23417 0.42281 0.0
N421 N 0.19304 0.09453 0.35741 0.0
H422 H 0.21567 0.17941 0.28598 0.0
H423 H 0.20831 0.13099 0.29066 0.0
H424 H 0.18803 0.07085 0.37568 0.0
H425 H 0.18484 0.09071 0.32741 0.0
H426 H 0.22932 0.23988 0.45341 0.0
H427 H 0.23544 0.25842 0.4052 0.0
H428 H 0.24009 0.19237 0.48726 0.0
H429 H 0.22359 0.14633 0.49292 0.0
C430 C 0.35713 0.7345 0.86304 0.0
C431 C 0.36221 0.72033 0.82385 0.0
C432 C 0.42154 0.70001 0.84542 0.0
C433 C 0.41534 0.71179 0.88533 0.0
N434 N 0.37397 0.73194 0.93421 0.0
N435 N 0.396 0.68273 0.77985 0.0
C436 C 0.38213 0.72659 0.89474 0.0
C437 C 0.39348 0.70099 0.81567 0.0
N438 N 0.32914 0.75678 0.86969 0.0
N439 N 0.45465 0.68965 0.83534 0.0
H440 H 0.37594 0.68263 0.75744 0.0
H441 H 0.41647 0.66493 0.77386 0.0
H442 H 0.47593 0.68871 0.85613 0.0
H443 H 0.46178 0.68498 0.8057 0.0
H444 H 0.32632 0.77133 0.89644 0.0
H445 H 0.31038 0.76356 0.8472 0.0
H446 H 0.34891 0.73915 0.9432 0.0
H447 H 0.3911 0.72533 0.9584 0.0
C448 C 0.71928 0.84442 0.39334 0.0
C449 C 0.73424 0.8545 0.35567 0.0
C450 C 0.75359 0.91624 0.38212 0.0
C451 C 0.73642 0.9075 0.41913 0.0
N452 N 0.70112 0.86403 0.45949 0.0
N453 N 0.75923 0.90217 0.31123 0.0
C454 C 0.71846 0.87187 0.42445 0.0
C455 C 0.74949 0.89104 0.34926 0.0
N456 N 0.707 0.80819 0.39972 0.0
N457 N 0.77466 0.94818 0.3783 0.0
H458 H 0.75733 0.88447 0.28633 0.0
H459 H 0.76617 0.92993 0.30344 0.0
H460 H 0.77794 0.96854 0.40041 0.0
H461 H 0.79144 0.95322 0.35422 0.0
H462 H 0.69927 0.79749 0.42769 0.0
H463 H 0.70653 0.78786 0.37726 0.0
H464 H 0.68409 0.84067 0.46355 0.0
H465 H 0.70247 0.88181 0.48431 0.0
C466 C 0.60622 0.29002 0.86869 0.0
C467 C 0.64259 0.29088 0.88063 0.0
C468 C 0.62697 0.3126 0.94786 0.0
C469 C 0.5905 0.30579 0.93772 0.0
N470 N 0.54603 0.28061 0.89029 0.0
N471 N 0.68745 0.29738 0.93405 0.0
C472 C 0.58024 0.29258 0.89857 0.0
C473 C 0.65307 0.30115 0.92077 0.0
N474 N 0.59648 0.28708 0.82871 0.0
N475 N 0.63678 0.32888 0.98385 0.0
H476 H 0.70721 0.28772 0.91589 0.0
H477 H 0.69575 0.30038 0.96417 0.0
H478 H 0.61861 0.33602 0.00534 0.0
H479 H 0.66272 0.3381 0.99095 0.0
H480 H 0.57045 0.28989 0.81794 0.0
H481 H 0.61492 0.2858 0.8059 0.0
H482 H 0.53805 0.26714 0.8636 0.0
H483 H 0.52638 0.28057 0.91164 0.0
C484 C 0.24808 0.89488 0.58177 0.0
C485 C 0.22264 0.88848 0.61189 0.0
C486 C 0.19663 0.94932 0.59469 0.0
C487 C 0.21929 0.9534 0.56111 0.0
N488 N 0.26207 0.92497 0.51843 0.0
N489 N 0.17005 0.90698 0.64468 0.0
C490 C 0.24382 0.92483 0.55355 0.0
C491 C 0.19606 0.91493 0.61766 0.0
N492 N 0.27688 0.87263 0.58045 0.0
N493 N 0.1772 0.97887 0.60611 0.0
H494 H 0.16961 0.88264 0.66275 0.0
H495 H 0.14773 0.92314 0.6471 0.0
H496 H 0.17793 0.00492 0.5912 0.0
H497 H 0.16303 0.97878 0.63266 0.0
H498 H 0.29849 0.8789 0.5623 0.0
H499 H 0.28097 0.84995 0.60021 0.0
H500 H 0.27651 0.9023 0.50933 0.0
H501 H 0.26023 0.94576 0.4962 0.0
C502 C 0.58999 0.72381 0.12043 0.0
C503 C 0.62165 0.70538 0.11239 0.0
C504 C 0.59343 0.67723 0.05161 0.0
C505 C 0.56148 0.69535 0.05995 0.0
N506 N 0.52674 0.72698 0.10836 0.0
N507 N 0.65085 0.65712 0.07719 0.0
C508 C 0.55894 0.71549 0.09653 0.0
C509 C 0.62235 0.67944 0.08029 0.0
N510 N 0.59003 0.75126 0.149 0.0
N511 N 0.59737 0.66048 0.01518 0.0
H512 H 0.67235 0.65831 0.09779 0.0
H513 H 0.65157 0.63513 0.05679 0.0
H514 H 0.5773 0.65843 0.99296 0.0
H515 H 0.62153 0.65104 0.00565 0.0
H516 H 0.56895 0.76896 0.15244 0.0
H517 H 0.61212 0.75863 0.16723 0.0
H518 H 0.52256 0.73805 0.13675 0.0
H519 H 0.50351 0.72215 0.09125 0.0
C520 C 0.70969 0.08627 0.65027 0.0
C521 C 0.72509 0.12228 0.64091 0.0
C522 C 0.73358 0.10264 0.57116 0.0
C523 C 0.72315 0.06519 0.58227 0.0
N524 N 0.70309 0.02024 0.63269 0.0
N525 N 0.75305 0.16504 0.59331 0.0
C526 C 0.71113 0.05676 0.62175 0.0
C527 C 0.73704 0.13071 0.6014 0.0
N528 N 0.69367 0.08045 0.68648 0.0
N529 N 0.73963 0.11134 0.53148 0.0
H530 H 0.75494 0.18671 0.61428 0.0
H531 H 0.76627 0.17143 0.56676 0.0
H532 H 0.73691 0.09146 0.5086 0.0
H533 H 0.74416 0.13868 0.52058 0.0
H534 H 0.67893 0.05607 0.69375 0.0
H535 H 0.69253 0.10145 0.70808 0.0
H536 H 0.69832 0.01154 0.66229 0.0
H537 H 0.70338 0.99799 0.61253 0.0
C538 C 0.39964 0.35543 0.13038 0.0
C539 C 0.39597 0.3305 0.16398 0.0
C540 C 0.45108 0.3006 0.14721 0.0
C541 C 0.45306 0.32309 0.11126 0.0
N542 N 0.42459 0.36632 0.06449 0.0
N543 N 0.41525 0.27631 0.20213 0.0
C544 C 0.42627 0.34929 0.10183 0.0
C545 C 0.42091 0.30227 0.1718 0.0
N546 N 0.37772 0.38509 0.12581 0.0
N547 N 0.4785 0.2783 0.15857 0.0
H548 H 0.39413 0.27728 0.2217 0.0
H549 H 0.42989 0.25218 0.20611 0.0
H550 H 0.50062 0.27533 0.14111 0.0
H551 H 0.48073 0.26501 0.18675 0.0
H552 H 0.38166 0.40668 0.10459 0.0
H553 H 0.35721 0.38976 0.14542 0.0
H554 H 0.40342 0.38236 0.05443 0.0
H555 H 0.44238 0.3615 0.04179 0.0
C556 C 0.87194 0.60644 0.798 0.0
C557 C 0.88072 0.63699 0.82405 0.0
C558 C 0.93741 0.60856 0.84251 0.0
C559 C 0.92761 0.57683 0.81847 0.0
N560 N 0.88131 0.5412 0.78254 0.0
N561 N 0.91729 0.66196 0.87909 0.0
C562 C 0.89351 0.57442 0.79908 0.0
C563 C 0.91203 0.63634 0.84892 0.0
N564 N 0.8441 0.60863 0.77077 0.0
N565 N 0.97149 0.6136 0.85717 0.0
H566 H 0.89896 0.6823 0.88511 0.0
H567 H 0.93794 0.66055 0.90063 0.0
H568 H 0.99141 0.59483 0.85215 0.0
H569 H 0.98085 0.63831 0.87104 0.0
H570 H 0.839 0.58893 0.74813 0.0
H571 H 0.828 0.63183 0.76832 0.0
H572 H 0.85542 0.53683 0.77129 0.0
H573 H 0.8958 0.51673 0.7841 0.0
C574 C 0.91191 0.39666 0.21892 0.0
C575 C 0.89004 0.38924 0.25232 0.0
C576 C 0.91198 0.44822 0.28327 0.0
C577 C 0.93819 0.45254 0.25322 0.0
N578 N 0.96528 0.42652 0.19411 0.0
N579 N 0.871 0.40572 0.31833 0.0
C580 C 0.93859 0.42583 0.22126 0.0
C581 C 0.89059 0.41437 0.28514 0.0
N582 N 0.907 0.37598 0.1845 0.0
N583 N 0.90593 0.47728 0.30848 0.0
H584 H 0.85414 0.38184 0.32001 0.0
H585 H 0.87343 0.42077 0.34512 0.0
H586 H 0.91897 0.50357 0.30616 0.0
H587 H 0.88506 0.47689 0.32844 0.0
H588 H 0.91895 0.38325 0.15733 0.0
H589 H 0.88844 0.35362 0.18176 0.0
H590 H 0.96931 0.40442 0.17462 0.0
H591 H 0.98544 0.44705 0.19257 0.0
C592 C 0.10257 0.36987 0.82471 0.0
C593 C 0.12813 0.37283 0.79417 0.0
C594 C 0.09973 0.42865 0.76574 0.0
C595 C 0.07255 0.42452 0.79479 0.0
N596 N 0.04375 0.38528 0.8453 0.0
N597 N 0.1468 0.39967 0.73055 0.0
C598 C 0.07279 0.39351 0.82258 0.0
C599 C 0.12531 0.40053 0.76312 0.0
N600 N 0.10701 0.34484 0.85605 0.0
N601 N 0.1025 0.46027 0.74175 0.0
H602 H 0.16655 0.38016 0.72776 0.0
H603 H 0.14296 0.41609 0.70453 0.0
H604 H 0.08457 0.48174 0.74128 0.0
H605 H 0.12457 0.46694 0.72447 0.0
H606 H 0.09153 0.34429 0.88163 0.0
H607 H 0.12789 0.32635 0.85777 0.0
H608 H 0.04099 0.36095 0.86305 0.0
H609 H 0.02071 0.40062 0.8432 0.0
C610 C 0.12446 0.66757 0.26092 0.0
C611 C 0.15222 0.65731 0.28821 0.0
C612 C 0.11818 0.59988 0.30736 0.0
C613 C 0.08921 0.61138 0.2821 0.0
N614 N 0.06248 0.66024 0.24108 0.0
N615 N 0.17273 0.61834 0.34368 0.0
C616 C 0.09168 0.64651 0.26084 0.0
C617 C 0.1481 0.62497 0.31353 0.0
N618 N 0.12989 0.69642 0.23369 0.0
N619 N 0.11852 0.56408 0.32309 0.0
H620 H 0.19509 0.63598 0.34882 0.0
H621 H 0.1693 0.59744 0.36581 0.0
H622 H 0.09812 0.54401 0.31813 0.0
H623 H 0.14068 0.553 0.33782 0.0
H624 H 0.11228 0.7022 0.20975 0.0
H625 H 0.15339 0.71279 0.23287 0.0
H626 H 0.06152 0.68749 0.22914 0.0
H627 H 0.0381 0.64567 0.23972 0.0
C628 C 0.77384 0.86164 0.6352 0.0
C629 C 0.79825 0.8708 0.66737 0.0
C630 C 0.81651 0.92877 0.63134 0.0
C631 C 0.79453 0.91782 0.59758 0.0
N632 N 0.75981 0.86859 0.5637 0.0
N633 N 0.84932 0.90797 0.69106 0.0
C634 C 0.77549 0.8826 0.59837 0.0
C635 C 0.8217 0.90275 0.66382 0.0
N636 N 0.74794 0.83422 0.64031 0.0
N637 N 0.83069 0.96464 0.63385 0.0
H638 H 0.85447 0.88902 0.71473 0.0
H639 H 0.86913 0.9289 0.68759 0.0
H640 H 0.82619 0.98543 0.61194 0.0
H641 H 0.84382 0.9749 0.6598 0.0
H642 H 0.72733 0.82924 0.61917 0.0
H643 H 0.7449 0.81897 0.66724 0.0
H644 H 0.74834 0.84151 0.56193 0.0
H645 H 0.76178 0.88229 0.53569 0.0
C646 C 0.64291 0.26832 0.15171 0.0
C647 C 0.66664 0.24005 0.14207 0.0
C648 C 0.62563 0.21782 0.08783 0.0
C649 C 0.60046 0.24416 0.0996 0.0
N650 N 0.58277 0.2893 0.14847 0.0
N651 N 0.67779 0.18298 0.10692 0.0
C652 C 0.60841 0.26779 0.13332 0.0
C653 C 0.65704 0.21317 0.11206 0.0
N654 N 0.65381 0.29675 0.17712 0.0
N655 N 0.62103 0.19919 0.05208 0.0
H656 H 0.70108 0.17884 0.12396 0.0
H657 H 0.67021 0.16039 0.08848 0.0
H658 H 0.59942 0.20279 0.03227 0.0
H659 H 0.64049 0.18296 0.04004 0.0
H660 H 0.63919 0.32061 0.1814 0.0
H661 H 0.67888 0.29829 0.19129 0.0
H662 H 0.58578 0.30359 0.1757 0.0
H663 H 0.55727 0.29015 0.13587 0.0
C664 C 0.24843 0.1313 0.6436 0.0
C665 C 0.26692 0.16671 0.64134 0.0
C666 C 0.29053 0.14992 0.57591 0.0
C667 C 0.27384 0.11364 0.57953 0.0
N668 N 0.24486 0.06655 0.62165 0.0
N669 N 0.31267 0.20589 0.61063 0.0
C670 C 0.25531 0.10333 0.61499 0.0
C671 C 0.29023 0.17484 0.60911 0.0
N672 N 0.22304 0.12494 0.67181 0.0
N673 N 0.30489 0.1615 0.54016 0.0
H674 H 0.31373 0.22444 0.63481 0.0
H675 H 0.3326 0.21115 0.58991 0.0
H676 H 0.30537 0.14439 0.51488 0.0
H677 H 0.3136 0.1892 0.53448 0.0
H678 H 0.20614 0.10109 0.67197 0.0
H679 H 0.21653 0.14501 0.69276 0.0
H680 H 0.2341 0.05678 0.64867 0.0
H681 H 0.25045 0.0451 0.60187 0.0
C682 C 0.38526 0.71831 0.1195 0.0
C683 C 0.36758 0.75165 0.12742 0.0
C684 C 0.39031 0.77995 0.06494 0.0
C685 C 0.41396 0.74987 0.06168 0.0
N686 N 0.43565 0.69088 0.09051 0.0
N687 N 0.35464 0.81572 0.10933 0.0
C688 C 0.41167 0.71888 0.08983 0.0
C689 C 0.37033 0.78291 0.10052 0.0
N690 N 0.3766 0.68582 0.14023 0.0
N691 N 0.38547 0.80456 0.03328 0.0
H692 H 0.33918 0.81858 0.13466 0.0
H693 H 0.35911 0.84071 0.09307 0.0
H694 H 0.39732 0.80154 0.00549 0.0
H695 H 0.36637 0.82503 0.03284 0.0
H696 H 0.38568 0.65959 0.13253 0.0
H697 H 0.35738 0.68437 0.16231 0.0
H698 H 0.4376 0.67124 0.11411 0.0
H699 H 0.45579 0.68838 0.07021 0.0
C700 C 0.77065 0.10161 0.36091 0.0
C701 C 0.80003 0.12737 0.36486 0.0
C702 C 0.815 0.09994 0.43123 0.0
C703 C 0.78949 0.07011 0.42415 0.0
N704 N 0.7454 0.04056 0.37856 0.0
N705 N 0.85312 0.14849 0.40146 0.0
C706 C 0.76775 0.07046 0.38811 0.0
C707 C 0.82307 0.12586 0.3994 0.0
N708 N 0.74487 0.10745 0.33176 0.0
N709 N 0.83008 0.10491 0.46896 0.0
H710 H 0.85987 0.16797 0.3788 0.0
H711 H 0.87277 0.14562 0.424 0.0
H712 H 0.82304 0.08828 0.49391 0.0
H713 H 0.84631 0.12824 0.47655 0.0
H714 H 0.72087 0.09199 0.33036 0.0
H715 H 0.74581 0.13021 0.31145 0.0
H716 H 0.7328 0.03758 0.35027 0.0
H717 H 0.7414 0.01706 0.39712 0.0
C718 C 0.37762 0.23526 0.9235 0.0
C719 C 0.3735 0.26682 0.89736 0.0
C720 C 0.43039 0.29385 0.92183 0.0
C721 C 0.43348 0.26387 0.95097 0.0
N722 N 0.4031 0.21271 0.98682 0.0
N723 N 0.39041 0.33117 0.88091 0.0
C724 C 0.40518 0.2363 0.95389 0.0
C725 C 0.3981 0.2977 0.89957 0.0
N726 N 0.35571 0.20407 0.91902 0.0
N727 N 0.45848 0.31781 0.91342 0.0
H728 H 0.36667 0.33538 0.86477 0.0
H729 H 0.40583 0.3558 0.88524 0.0
H730 H 0.48341 0.31665 0.9273 0.0
H731 H 0.45811 0.33683 0.8891 0.0
H732 H 0.35998 0.1788 0.93451 0.0
H733 H 0.33501 0.20254 0.89741 0.0
H734 H 0.38135 0.19447 0.99176 0.0
H735 H 0.42062 0.21462 0.01169 0.0
C736 C 0.24709 0.9071 0.37489 0.0
C737 C 0.27971 0.90275 0.35605 0.0
C738 C 0.29914 0.96618 0.37709 0.0
C739 C 0.26985 0.96722 0.40319 0.0
N740 N 0.21749 0.93362 0.4302 0.0
N741 N 0.33815 0.92707 0.34027 0.0
C742 C 0.24387 0.93666 0.40265 0.0
C743 C 0.30613 0.93207 0.35725 0.0
N744 N 0.21904 0.88272 0.36641 0.0
N745 N 0.31933 0.99813 0.36979 0.0
H746 H 0.34369 0.90286 0.3245 0.0
H747 H 0.35984 0.9458 0.3442 0.0
H748 H 0.31347 0.02426 0.38135 0.0
H749 H 0.33914 0.99967 0.34848 0.0
H750 H 0.19336 0.88711 0.37569 0.0
H751 H 0.22056 0.86033 0.34656 0.0
H752 H 0.20154 0.90929 0.4337 0.0
H753 H 0.21315 0.95271 0.45273 0.0
C754 C 0.63471 0.80094 0.91259 0.0
C755 C 0.64073 0.77707 0.87964 0.0
C756 C 0.57728 0.75934 0.8766 0.0
C757 C 0.57276 0.77753 0.91392 0.0
N758 N 0.59964 0.81083 0.97112 0.0
N759 N 0.61817 0.72943 0.8333 0.0
C760 C 0.60199 0.79747 0.93279 0.0
C761 C 0.61206 0.75535 0.86216 0.0
N762 N 0.66005 0.82734 0.9243 0.0
N763 N 0.54822 0.74622 0.85475 0.0
H764 H 0.64335 0.7248 0.82263 0.0
H765 H 0.59878 0.7101 0.82269 0.0
H766 H 0.52233 0.74968 0.864 0.0
H767 H 0.54964 0.73565 0.82565 0.0
H768 H 0.65565 0.84783 0.94561 0.0
H769 H 0.68407 0.83127 0.90968 0.0
H770 H 0.62154 0.82162 0.98769 0.0
H771 H 0.57684 0.80801 0.98803 0.0
loop_
_geom_bond_atom_site_label_1
_geom_bond_atom_site_label_2
_geom_bond_distance
_geom_bond_site_symmetry_2
_ccdc_geom_bond_type
P0 O11 1.490 . S
P0 C14 1.812 . S
P0 C20 1.803 . S
P0 C26 1.819 . S
H1 C15 0.941 . S
H2 C16 0.939 . S
H3 C18 0.940 . S
H4 C19 0.940 . S
H5 C21 0.939 . S
H6 C22 0.942 . S
H7 C24 0.940 . S
H8 C25 0.939 . S
H9 C27 0.941 . S
H10 C31 0.939 . S
O11 P0 1.490 . S
H12 C28 0.939 . S
H13 C30 0.940 . S
C14 P0 1.812 . S
C14 C15 1.389 . S
C14 C19 1.391 . S
C15 H1 0.941 . S
C15 C14 1.389 . S
C15 C16 1.397 . S
C16 H2 0.939 . S
C16 C15 1.397 . S
C16 C17 1.378 . S
C17 C16 1.378 . S
C17 C18 1.378 . S
C18 H3 0.940 . S
C18 C17 1.378 . S
C18 C19 1.396 . S
C19 H4 0.940 . S
C19 C14 1.391 . S
C19 C18 1.396 . S
C20 P0 1.803 . S
C20 C21 1.378 . S
C20 C25 1.400 . S
C21 H5 0.939 . S
C21 C20 1.378 . S
C21 C22 1.361 . S
C22 H6 0.942 . S
C22 C21 1.361 . S
C22 C23 1.369 . S
C23 C22 1.369 . S
C23 C24 1.404 . S
C24 H7 0.940 . S
C24 C23 1.404 . S
C24 C25 1.389 . S
C25 H8 0.939 . S
C25 C20 1.400 . S
C25 C24 1.389 . S
C26 P0 1.819 . S
C26 C27 1.391 . S
C26 C31 1.391 . S
C27 H9 0.941 . S
C27 C26 1.391 . S
C27 C28 1.396 . S
C28 H12 0.939 . S
C28 C27 1.396 . S
C28 C29 1.397 . S
C29 C28 1.397 . S
C29 C30 1.385 . S
C30 H13 0.940 . S
C30 C29 1.385 . S
C30 C31 1.388 . S
C31 H10 0.939 . S
C31 C26 1.391 . S
C31 C30 1.388 . S
P32 O43 1.490 . S
P32 C46 1.812 . S
P32 C52 1.803 . S
P32 C58 1.819 . S
H33 C47 0.941 . S
H34 C48 0.939 . S
H35 C50 0.940 . S
H36 C51 0.940 . S
H37 C53 0.939 . S
H38 C54 0.942 . S
H39 C56 0.940 . S
H40 C57 0.939 . S
H41 C59 0.941 . S
H42 C63 0.939 . S
O43 P32 1.490 . S
H44 C60 0.939 . S
H45 C62 0.940 . S
C46 P32 1.812 . S
C46 C47 1.389 . S
C46 C51 1.391 . S
C47 H33 0.941 . S
C47 C46 1.389 . S
C47 C48 1.397 . S
C48 H34 0.939 . S
C48 C47 1.397 . S
C48 C49 1.378 . S
C49 C48 1.378 . S
C49 C50 1.378 . S
C50 H35 0.940 . S
C50 C49 1.378 . S
C50 C51 1.396 . S
C51 H36 0.940 . S
C51 C46 1.391 . S
C51 C50 1.396 . S
C52 P32 1.803 . S
C52 C53 1.378 . S
C52 C57 1.400 . S
C53 H37 0.939 . S
C53 C52 1.378 . S
C53 C54 1.361 . S
C54 H38 0.942 . S
C54 C53 1.361 . S
C54 C55 1.369 . S
C55 C54 1.369 . S
C55 C56 1.404 . S
C56 H39 0.940 . S
C56 C55 1.404 . S
C56 C57 1.389 . S
C57 H40 0.939 . S
C57 C52 1.400 . S
C57 C56 1.389 . S
C58 P32 1.819 . S
C58 C59 1.391 . S
C58 C63 1.391 . S
C59 H41 0.941 . S
C59 C58 1.391 . S
C59 C60 1.396 . S
C60 H44 0.939 . S
C60 C59 1.396 . S
C60 C61 1.397 . S
C61 C60 1.397 . S
C61 C62 1.385 . S
C62 H45 0.940 . S
C62 C61 1.385 . S
C62 C63 1.388 . S
C63 H42 0.939 . S
C63 C58 1.391 . S
C63 C62 1.388 . S
P64 O75 1.490 . S
P64 C78 1.812 . S
P64 C84 1.803 . S
P64 C90 1.819 . S
H65 C79 0.941 . S
H66 C80 0.939 . S
H67 C82 0.940 . S
H68 C83 0.940 . S
H69 C85 0.939 . S
H70 C86 0.942 . S
H71 C88 0.940 . S
H72 C89 0.939 . S
H73 C91 0.941 . S
H74 C95 0.939 . S
O75 P64 1.490 . S
H76 C92 0.939 . S
H77 C94 0.940 . S
C78 P64 1.812 . S
C78 C79 1.389 . S
C78 C83 1.391 . S
C79 H65 0.941 . S
C79 C78 1.389 . S
C79 C80 1.397 . S
C80 H66 0.939 . S
C80 C79 1.397 . S
C80 C81 1.378 . S
C81 C80 1.378 . S
C81 C82 1.378 . S
C82 H67 0.940 . S
C82 C81 1.378 . S
C82 C83 1.396 . S
C83 H68 0.940 . S
C83 C78 1.391 . S
C83 C82 1.396 . S
C84 P64 1.803 . S
C84 C85 1.378 . S
C84 C89 1.400 . S
C85 H69 0.939 . S
C85 C84 1.378 . S
C85 C86 1.361 . S
C86 H70 0.942 . S
C86 C85 1.361 . S
C86 C87 1.369 . S
C87 C86 1.369 . S
C87 C88 1.404 . S
C88 H71 0.940 . S
C88 C87 1.404 . S
C88 C89 1.389 . S
C89 H72 0.939 . S
C89 C84 1.400 . S
C89 C88 1.389 . S
C90 P64 1.819 . S
C90 C91 1.391 . S
C90 C95 1.391 . S
C91 H73 0.941 . S
C91 C90 1.391 . S
C91 C92 1.396 . S
C92 H76 0.939 . S
C92 C91 1.396 . S
C92 C93 1.397 . S
C93 C92 1.397 . S
C93 C94 1.385 . S
C94 H77 0.940 . S
C94 C93 1.385 . S
C94 C95 1.388 . S
C95 H74 0.939 . S
C95 C90 1.391 . S
C95 C94 1.388 . S
P96 O107 1.490 . S
P96 C110 1.812 . S
P96 C116 1.803 . S
P96 C122 1.819 . S
H97 C111 0.941 . S
H98 C112 0.939 . S
H99 C114 0.940 . S
H100 C115 0.940 . S
H101 C117 0.939 . S
H102 C118 0.942 . S
H103 C120 0.940 . S
H104 C121 0.939 . S
H105 C123 0.941 . S
H106 C127 0.939 . S
O107 P96 1.490 . S
H108 C124 0.939 . S
H109 C126 0.940 . S
C110 P96 1.812 . S
C110 C111 1.389 . S
C110 C115 1.391 . S
C111 H97 0.941 . S
C111 C110 1.389 . S
C111 C112 1.397 . S
C112 H98 0.939 . S
C112 C111 1.397 . S
C112 C113 1.378 . S
C113 C112 1.378 . S
C113 C114 1.378 . S
C114 H99 0.940 . S
C114 C113 1.378 . S
C114 C115 1.396 . S
C115 H100 0.940 . S
C115 C110 1.391 . S
C115 C114 1.396 . S
C116 P96 1.803 . S
C116 C117 1.378 . S
C116 C121 1.400 . S
C117 H101 0.939 . S
C117 C116 1.378 . S
C117 C118 1.361 . S
C118 H102 0.942 . S
C118 C117 1.361 . S
C118 C119 1.369 . S
C119 C118 1.369 . S
C119 C120 1.404 . S
C120 H103 0.940 . S
C120 C119 1.404 . S
C120 C121 1.389 . S
C121 H104 0.939 . S
C121 C116 1.400 . S
C121 C120 1.389 . S
C122 P96 1.819 . S
C122 C123 1.391 . S
C122 C127 1.391 . S
C123 H105 0.941 . S
C123 C122 1.391 . S
C123 C124 1.396 . S
C124 H108 0.939 . S
C124 C123 1.396 . S
C124 C125 1.397 . S
C125 C124 1.397 . S
C125 C126 1.385 . S
C126 H109 0.940 . S
C126 C125 1.385 . S
C126 C127 1.388 . S
C127 H106 0.939 . S
C127 C122 1.391 . S
C127 C126 1.388 . S
P128 O139 1.490 . S
P128 C142 1.812 . S
P128 C148 1.803 . S
P128 C154 1.819 . S
H129 C143 0.941 . S
H130 C144 0.939 . S
H131 C146 0.940 . S
H132 C147 0.940 . S
H133 C149 0.939 . S
H134 C150 0.942 . S
H135 C152 0.940 . S
H136 C153 0.939 . S
H137 C155 0.941 . S
H138 C159 0.939 . S
O139 P128 1.490 . S
H140 C156 0.939 . S
H141 C158 0.940 . S
C142 P128 1.812 . S
C142 C143 1.389 . S
C142 C147 1.391 . S
C143 H129 0.941 . S
C143 C142 1.389 . S
C143 C144 1.397 . S
C144 H130 0.939 . S
C144 C143 1.397 . S
C144 C145 1.378 . S
C145 C144 1.378 . S
C145 C146 1.378 . S
C146 H131 0.940 . S
C146 C145 1.378 . S
C146 C147 1.396 . S
C147 H132 0.940 . S
C147 C142 1.391 . S
C147 C146 1.396 . S
C148 P128 1.803 . S
C148 C149 1.378 . S
C148 C153 1.400 . S
C149 H133 0.939 . S
C149 C148 1.378 . S
C149 C150 1.361 . S
C150 H134 0.942 . S
C150 C149 1.361 . S
C150 C151 1.369 . S
C151 C150 1.369 . S
C151 C152 1.404 . S
C152 H135 0.940 . S
C152 C151 1.404 . S
C152 C153 1.389 . S
C153 H136 0.939 . S
C153 C148 1.400 . S
C153 C152 1.389 . S
C154 P128 1.819 . S
C154 C155 1.391 . S
C154 C159 1.391 . S
C155 H137 0.941 . S
C155 C154 1.391 . S
C155 C156 1.396 . S
C156 H140 0.939 . S
C156 C155 1.396 . S
C156 C157 1.397 . S
C157 C156 1.397 . S
C157 C158 1.385 . S
C158 H141 0.940 . S
C158 C157 1.385 . S
C158 C159 1.388 . S
C159 H138 0.939 . S
C159 C154 1.391 . S
C159 C158 1.388 . S
P160 O171 1.490 . S
P160 C174 1.812 . S
P160 C180 1.803 . S
P160 C186 1.819 . S
H161 C175 0.941 . S
H162 C176 0.939 . S
H163 C178 0.940 . S
H164 C179 0.940 . S
H165 C181 0.939 . S
H166 C182 0.942 . S
H167 C184 0.940 . S
H168 C185 0.939 . S
H169 C187 0.941 . S
H170 C191 0.939 . S
O171 P160 1.490 . S
H172 C188 0.939 . S
H173 C190 0.940 . S
C174 P160 1.812 . S
C174 C175 1.389 . S
C174 C179 1.391 . S
C175 H161 0.941 . S
C175 C174 1.389 . S
C175 C176 1.397 . S
C176 H162 0.939 . S
C176 C175 1.397 . S
C176 C177 1.378 . S
C177 C176 1.378 . S
C177 C178 1.378 . S
C178 H163 0.940 . S
C178 C177 1.378 . S
C178 C179 1.396 . S
C179 H164 0.940 . S
C179 C174 1.391 . S
C179 C178 1.396 . S
C180 P160 1.803 . S
C180 C181 1.378 . S
C180 C185 1.400 . S
C181 H165 0.939 . S
C181 C180 1.378 . S
C181 C182 1.361 . S
C182 H166 0.942 . S
C182 C181 1.361 . S
C182 C183 1.369 . S
C183 C182 1.369 . S
C183 C184 1.404 . S
C184 H167 0.940 . S
C184 C183 1.404 . S
C184 C185 1.389 . S
C185 H168 0.939 . S
C185 C180 1.400 . S
C185 C184 1.389 . S
C186 P160 1.819 . S
C186 C187 1.391 . S
C186 C191 1.391 . S
C187 H169 0.941 . S
C187 C186 1.391 . S
C187 C188 1.396 . S
C188 H172 0.939 . S
C188 C187 1.396 . S
C188 C189 1.397 . S
C189 C188 1.397 . S
C189 C190 1.385 . S
C190 H173 0.940 . S
C190 C189 1.385 . S
C190 C191 1.388 . S
C191 H170 0.939 . S
C191 C186 1.391 . S
C191 C190 1.388 . S
P192 O203 1.490 . S
P192 C206 1.812 . S
P192 C212 1.803 . S
P192 C218 1.819 . S
H193 C207 0.941 . S
H194 C208 0.939 . S
H195 C210 0.940 . S
H196 C211 0.940 . S
H197 C213 0.939 . S
H198 C214 0.942 . S
H199 C216 0.940 . S
H200 C217 0.939 . S
H201 C219 0.941 . S
H202 C223 0.939 . S
O203 P192 1.490 . S
H204 C220 0.939 . S
H205 C222 0.940 . S
C206 P192 1.812 . S
C206 C207 1.389 . S
C206 C211 1.391 . S
C207 H193 0.941 . S
C207 C206 1.389 . S
C207 C208 1.397 . S
C208 H194 0.939 . S
C208 C207 1.397 . S
C208 C209 1.378 . S
C209 C208 1.378 . S
C209 C210 1.378 . S
C210 H195 0.940 . S
C210 C209 1.378 . S
C210 C211 1.396 . S
C211 H196 0.940 . S
C211 C206 1.391 . S
C211 C210 1.396 . S
C212 P192 1.803 . S
C212 C213 1.378 . S
C212 C217 1.400 . S
C213 H197 0.939 . S
C213 C212 1.378 . S
C213 C214 1.361 . S
C214 H198 0.942 . S
C214 C213 1.361 . S
C214 C215 1.369 . S
C215 C214 1.369 . S
C215 C216 1.404 . S
C216 H199 0.940 . S
C216 C215 1.404 . S
C216 C217 1.389 . S
C217 H200 0.939 . S
C217 C212 1.400 . S
C217 C216 1.389 . S
C218 P192 1.819 . S
C218 C219 1.391 . S
C218 C223 1.391 . S
C219 H201 0.941 . S
C219 C218 1.391 . S
C219 C220 1.396 . S
C220 H204 0.939 . S
C220 C219 1.396 . S
C220 C221 1.397 . S
C221 C220 1.397 . S
C221 C222 1.385 . S
C222 H205 0.940 . S
C222 C221 1.385 . S
C222 C223 1.388 . S
C223 H202 0.939 . S
C223 C218 1.391 . S
C223 C222 1.388 . S
P224 O235 1.490 . S
P224 C238 1.812 . S
P224 C244 1.803 . S
P224 C250 1.819 . S
H225 C239 0.941 . S
H226 C240 0.939 . S
H227 C242 0.940 . S
H228 C243 0.940 . S
H229 C245 0.939 . S
H230 C246 0.942 . S
H231 C248 0.940 . S
H232 C249 0.939 . S
H233 C251 0.941 . S
H234 C255 0.939 . S
O235 P224 1.490 . S
H236 C252 0.939 . S
H237 C254 0.940 . S
C238 P224 1.812 . S
C238 C239 1.389 . S
C238 C243 1.391 . S
C239 H225 0.941 . S
C239 C238 1.389 . S
C239 C240 1.397 . S
C240 H226 0.939 . S
C240 C239 1.397 . S
C240 C241 1.378 . S
C241 C240 1.378 . S
C241 C242 1.378 . S
C242 H227 0.940 . S
C242 C241 1.378 . S
C242 C243 1.396 . S
C243 H228 0.940 . S
C243 C238 1.391 . S
C243 C242 1.396 . S
C244 P224 1.803 . S
C244 C245 1.378 . S
C244 C249 1.400 . S
C245 H229 0.939 . S
C245 C244 1.378 . S
C245 C246 1.361 . S
C246 H230 0.942 . S
C246 C245 1.361 . S
C246 C247 1.369 . S
C247 C246 1.369 . S
C247 C248 1.404 . S
C248 H231 0.940 . S
C248 C247 1.404 . S
C248 C249 1.389 . S
C249 H232 0.939 . S
C249 C244 1.400 . S
C249 C248 1.389 . S
C250 P224 1.819 . S
C250 C251 1.391 . S
C250 C255 1.391 . S
C251 H233 0.941 . S
C251 C250 1.391 . S
C251 C252 1.396 . S
C252 H236 0.939 . S
C252 C251 1.396 . S
C252 C253 1.397 . S
C253 C252 1.397 . S
C253 C254 1.385 . S
C254 H237 0.940 . S
C254 C253 1.385 . S
C254 C255 1.388 . S
C255 H234 0.939 . S
C255 C250 1.391 . S
C255 C254 1.388 . S
C256 O258 1.247 . S
C256 O260 1.258 . S
C257 O264 1.247 . S
C257 O265 1.258 . S
O258 C256 1.247 . S
O258 Zn259 2.028 1_655 S
Zn259 O258 2.028 1_455 S
Zn259 O263 2.035 . S
Zn259 O265 2.035 . S
Zn259 O266 2.028 1_455 S
O260 C256 1.258 . S
O260 Zn261 2.035 1_655 S
Zn261 O260 2.035 1_455 S
Zn261 O262 2.028 . S
Zn261 O264 2.028 . S
Zn261 O267 2.035 1_455 S
O262 Zn261 2.028 . S
O262 C268 1.247 . S
O263 Zn259 2.035 . S
O263 C268 1.258 . S
O264 C257 1.247 . S
O264 Zn261 2.028 . S
O265 C257 1.258 . S
O265 Zn259 2.035 . S
O266 Zn259 2.028 1_655 S
O266 C269 1.247 . S
O267 Zn261 2.035 1_655 S
O267 C269 1.258 . S
C268 O262 1.247 . S
C268 O263 1.258 . S
C269 O266 1.247 . S
C269 O267 1.258 . S
C270 O272 1.247 . S
C270 O274 1.258 . S
C271 O278 1.247 . S
C271 O279 1.258 . S
O272 C270 1.247 . S
O272 Zn273 2.028 1_655 S
Zn273 O272 2.028 1_455 S
Zn273 O277 2.035 . S
Zn273 O279 2.035 . S
Zn273 O280 2.028 1_455 S
O274 C270 1.258 . S
O274 Zn275 2.035 . S
Zn275 O274 2.035 . S
Zn275 O276 2.028 1_655 S
Zn275 O278 2.028 1_655 S
Zn275 O281 2.035 . S
O276 Zn275 2.028 1_455 S
O276 C282 1.247 . S
O277 Zn273 2.035 . S
O277 C282 1.258 . S
O278 C271 1.247 . S
O278 Zn275 2.028 1_455 S
O279 C271 1.258 . S
O279 Zn273 2.035 . S
O280 Zn273 2.028 1_655 S
O280 C283 1.247 . S
O281 Zn275 2.035 . S
O281 C283 1.258 . S
C282 O276 1.247 . S
C282 O277 1.258 . S
C283 O280 1.247 . S
C283 O281 1.258 . S
C284 O286 1.247 . S
C284 O288 1.258 . S
C285 O292 1.247 . S
C285 O293 1.258 . S
O286 C284 1.247 . S
O286 Zn287 2.028 1_565 S
Zn287 O286 2.028 1_545 S
Zn287 O291 2.035 . S
Zn287 O293 2.035 . S
Zn287 O294 2.028 1_545 S
O288 C284 1.258 . S
O288 Zn289 2.035 1_565 S
Zn289 O288 2.035 1_545 S
Zn289 O290 2.028 . S
Zn289 O292 2.028 . S
Zn289 O295 2.035 1_545 S
O290 Zn289 2.028 . S
O290 C296 1.247 . S
O291 Zn287 2.035 . S
O291 C296 1.258 . S
O292 C285 1.247 . S
O292 Zn289 2.028 . S
O293 C285 1.258 . S
O293 Zn287 2.035 . S
O294 Zn287 2.028 1_565 S
O294 C297 1.247 . S
O295 Zn289 2.035 1_565 S
O295 C297 1.258 . S
C296 O290 1.247 . S
C296 O291 1.258 . S
C297 O294 1.247 . S
C297 O295 1.258 . S
C298 O300 1.247 . S
C298 O302 1.258 . S
C299 O306 1.247 . S
C299 O307 1.258 . S
O300 C298 1.247 . S
O300 Zn301 2.028 . S
Zn301 O300 2.028 . S
Zn301 O305 2.035 . S
Zn301 O307 2.035 1_554 S
Zn301 O308 2.028 1_554 S
O302 C298 1.258 . S
O302 Zn303 2.052 . S
Zn303 O302 2.052 . S
Zn303 O304 2.046 . S
Zn303 O306 2.011 1_554 S
Zn303 O309 2.018 1_554 S
O304 Zn303 2.046 . S
O304 C310 1.247 . S
O305 Zn301 2.035 . S
O305 C310 1.258 . S
O306 C299 1.247 . S
O306 Zn303 2.011 1_556 S
O307 C299 1.258 . S
O307 Zn301 2.035 1_556 S
O308 Zn301 2.028 1_556 S
O308 C311 1.247 . S
O309 Zn303 2.018 1_556 S
O309 C311 1.258 . S
C310 O304 1.247 . S
C310 O305 1.258 . S
C311 O308 1.247 . S
C311 O309 1.258 . S
C312 O314 1.247 . S
C312 O316 1.258 . S
C313 O320 1.247 . S
C313 O321 1.258 . S
O314 C312 1.247 . S
O314 Zn315 2.015 1_565 S
Zn315 O314 2.015 1_545 S
Zn315 O319 2.049 . S
Zn315 O321 2.049 . S
Zn315 O322 2.015 1_545 S
O316 C312 1.258 . S
O316 Zn317 2.035 1_565 S
Zn317 O316 2.035 1_545 S
Zn317 O318 2.028 . S
Zn317 O320 2.028 . S
Zn317 O323 2.035 1_545 S
O318 Zn317 2.028 . S
O318 C324 1.247 . S
O319 Zn315 2.049 . S
O319 C324 1.258 . S
O320 C313 1.247 . S
O320 Zn317 2.028 . S
O321 C313 1.258 . S
O321 Zn315 2.049 . S
O322 Zn315 2.015 1_565 S
O322 C325 1.247 . S
O323 Zn317 2.035 1_565 S
O323 C325 1.258 . S
C324 O318 1.247 . S
C324 O319 1.258 . S
C325 O322 1.247 . S
C325 O323 1.258 . S
C326 O328 1.247 . S
C326 O330 1.258 . S
C327 O334 1.247 . S
C327 O335 1.258 . S
O328 C326 1.247 . S
O328 Zn329 2.028 . S
Zn329 O328 2.028 . S
Zn329 O333 2.035 . S
Zn329 O335 2.035 1_554 S
Zn329 O336 2.028 1_554 S
O330 C326 1.258 . S
O330 Zn331 2.029 1_554 S
Zn331 O330 2.029 1_556 S
Zn331 O332 2.021 1_556 S
Zn331 O334 2.034 . S
Zn331 O337 2.042 . S
O332 Zn331 2.021 1_554 S
O332 C338 1.247 . S
O333 Zn329 2.035 . S
O333 C338 1.258 . S
O334 C327 1.247 . S
O334 Zn331 2.034 . S
O335 C327 1.258 . S
O335 Zn329 2.035 1_556 S
O336 Zn329 2.028 1_556 S
O336 C339 1.247 . S
O337 Zn331 2.042 . S
O337 C339 1.258 . S
C338 O332 1.247 . S
C338 O333 1.258 . S
C339 O336 1.247 . S
C339 O337 1.258 . S
C340 C341 1.363 . S
C340 C346 1.379 . S
C340 N348 1.356 . S
C341 C340 1.363 . S
C341 C347 1.363 . S
C342 C343 1.363 . S
C342 C347 1.379 . S
C342 N349 1.356 . S
C343 C342 1.363 . S
C343 C346 1.363 . S
N344 C346 1.356 . S
N344 H356 0.984 . S
N344 H357 0.985 . S
N345 C347 1.356 . S
N345 H350 0.984 . S
N345 H351 0.985 . S
C346 C340 1.379 . S
C346 C343 1.363 . S
C346 N344 1.356 . S
C347 C341 1.363 . S
C347 C342 1.379 . S
C347 N345 1.356 . S
N348 C340 1.356 . S
N348 H354 0.984 . S
N348 H355 0.984 . S
N349 C342 1.356 . S
N349 H352 0.984 . S
N349 H353 0.985 . S
H350 N345 0.984 . S
H351 N345 0.985 . S
H352 N349 0.984 . S
H353 N349 0.985 . S
H354 N348 0.984 . S
H355 N348 0.984 . S
H356 N344 0.984 . S
H357 N344 0.985 . S
C358 C359 1.363 . S
C358 C364 1.379 . S
C358 N366 1.356 . S
C359 C358 1.363 . S
C359 C365 1.363 . S
C360 C361 1.363 . S
C360 C365 1.379 . S
C360 N367 1.356 . S
C361 C360 1.363 . S
C361 C364 1.363 . S
N362 C364 1.356 . S
N362 H374 0.984 . S
N362 H375 0.985 . S
N363 C365 1.356 . S
N363 H368 0.984 . S
N363 H369 0.985 . S
C364 C358 1.379 . S
C364 C361 1.363 . S
C364 N362 1.356 . S
C365 C359 1.363 . S
C365 C360 1.379 . S
C365 N363 1.356 . S
N366 C358 1.356 . S
N366 H372 0.984 . S
N366 H373 0.984 . S
N367 C360 1.356 . S
N367 H370 0.984 . S
N367 H371 0.985 . S
H368 N363 0.984 . S
H369 N363 0.985 . S
H370 N367 0.984 . S
H371 N367 0.985 . S
H372 N366 0.984 . S
H373 N366 0.984 . S
H374 N362 0.984 . S
H375 N362 0.985 . S
C376 C377 1.363 . S
C376 C382 1.379 . S
C376 N384 1.356 . S
C377 C376 1.363 . S
C377 C383 1.363 . S
C378 C379 1.363 . S
C378 C383 1.379 . S
C378 N385 1.356 . S
C379 C378 1.363 . S
C379 C382 1.363 . S
N380 C382 1.356 . S
N380 H392 0.984 . S
N380 H393 0.985 . S
N381 C383 1.356 . S
N381 H386 0.984 . S
N381 H387 0.985 . S
C382 C376 1.379 . S
C382 C379 1.363 . S
C382 N380 1.356 . S
C383 C377 1.363 . S
C383 C378 1.379 . S
C383 N381 1.356 . S
N384 C376 1.356 . S
N384 H390 0.984 . S
N384 H391 0.984 . S
N385 C378 1.356 . S
N385 H388 0.984 . S
N385 H389 0.985 . S
H386 N381 0.984 . S
H387 N381 0.985 . S
H388 N385 0.984 . S
H389 N385 0.985 . S
H390 N384 0.984 . S
H391 N384 0.984 . S
H392 N380 0.984 . S
H393 N380 0.985 . S
C394 C395 1.363 . S
C394 C400 1.379 . S
C394 N402 1.356 . S
C395 C394 1.363 . S
C395 C401 1.363 . S
C396 C397 1.363 . S
C396 C401 1.379 . S
C396 N403 1.356 . S
C397 C396 1.363 . S
C397 C400 1.363 . S
N398 C400 1.356 . S
N398 H410 0.984 . S
N398 H411 0.985 . S
N399 C401 1.356 . S
N399 H404 0.984 . S
N399 H405 0.985 . S
C400 C394 1.379 . S
C400 C397 1.363 . S
C400 N398 1.356 . S
C401 C395 1.363 . S
C401 C396 1.379 . S
C401 N399 1.356 . S
N402 C394 1.356 . S
N402 H408 0.984 . S
N402 H409 0.984 . S
N403 C396 1.356 . S
N403 H406 0.984 . S
N403 H407 0.985 . S
H404 N399 0.984 . S
H405 N399 0.985 . S
H406 N403 0.984 . S
H407 N403 0.985 . S
H408 N402 0.984 . S
H409 N402 0.984 . S
H410 N398 0.984 . S
H411 N398 0.985 . S
C412 C413 1.363 . S
C412 C418 1.379 . S
C412 N420 1.356 . S
C413 C412 1.363 . S
C413 C419 1.363 . S
C414 C415 1.363 . S
C414 C419 1.379 . S
C414 N421 1.356 . S
C415 C414 1.363 . S
C415 C418 1.363 . S
N416 C418 1.356 . S
N416 H428 0.984 . S
N416 H429 0.985 . S
N417 C419 1.356 . S
N417 H422 0.984 . S
N417 H423 0.985 . S
C418 C412 1.379 . S
C418 C415 1.363 . S
C418 N416 1.356 . S
C419 C413 1.363 . S
C419 C414 1.379 . S
C419 N417 1.356 . S
N420 C412 1.356 . S
N420 H426 0.984 . S
N420 H427 0.984 . S
N421 C414 1.356 . S
N421 H424 0.984 . S
N421 H425 0.985 . S
H422 N417 0.984 . S
H423 N417 0.985 . S
H424 N421 0.984 . S
H425 N421 0.985 . S
H426 N420 0.984 . S
H427 N420 0.984 . S
H428 N416 0.984 . S
H429 N416 0.985 . S
C430 C431 1.363 . S
C430 C436 1.379 . S
C430 N438 1.356 . S
C431 C430 1.363 . S
C431 C437 1.363 . S
C432 C433 1.363 . S
C432 C437 1.379 . S
C432 N439 1.356 . S
C433 C432 1.363 . S
C433 C436 1.363 . S
N434 C436 1.356 . S
N434 H446 0.984 . S
N434 H447 0.985 . S
N435 C437 1.356 . S
N435 H440 0.984 . S
N435 H441 0.985 . S
C436 C430 1.379 . S
C436 C433 1.363 . S
C436 N434 1.356 . S
C437 C431 1.363 . S
C437 C432 1.379 . S
C437 N435 1.356 . S
N438 C430 1.356 . S
N438 H444 0.984 . S
N438 H445 0.984 . S
N439 C432 1.356 . S
N439 H442 0.984 . S
N439 H443 0.985 . S
H440 N435 0.984 . S
H441 N435 0.985 . S
H442 N439 0.984 . S
H443 N439 0.985 . S
H444 N438 0.984 . S
H445 N438 0.984 . S
H446 N434 0.984 . S
H447 N434 0.985 . S
C448 C449 1.363 . S
C448 C454 1.379 . S
C448 N456 1.356 . S
C449 C448 1.363 . S
C449 C455 1.363 . S
C450 C451 1.363 . S
C450 C455 1.379 . S
C450 N457 1.356 . S
C451 C450 1.363 . S
C451 C454 1.363 . S
N452 C454 1.356 . S
N452 H464 0.984 . S
N452 H465 0.985 . S
N453 C455 1.356 . S
N453 H458 0.984 . S
N453 H459 0.985 . S
C454 C448 1.379 . S
C454 C451 1.363 . S
C454 N452 1.356 . S
C455 C449 1.363 . S
C455 C450 1.379 . S
C455 N453 1.356 . S
N456 C448 1.356 . S
N456 H462 0.984 . S
N456 H463 0.984 . S
N457 C450 1.356 . S
N457 H460 0.984 . S
N457 H461 0.985 . S
H458 N453 0.984 . S
H459 N453 0.985 . S
H460 N457 0.984 . S
H461 N457 0.985 . S
H462 N456 0.984 . S
H463 N456 0.984 . S
H464 N452 0.984 . S
H465 N452 0.985 . S
C466 C467 1.363 . S
C466 C472 1.379 . S
C466 N474 1.356 . S
C467 C466 1.363 . S
C467 C473 1.363 . S
C468 C469 1.363 . S
C468 C473 1.379 . S
C468 N475 1.356 . S
C469 C468 1.363 . S
C469 C472 1.363 . S
N470 C472 1.356 . S
N470 H482 0.984 . S
N470 H483 0.985 . S
N471 C473 1.356 . S
N471 H476 0.984 . S
N471 H477 0.985 . S
C472 C466 1.379 . S
C472 C469 1.363 . S
C472 N470 1.356 . S
C473 C467 1.363 . S
C473 C468 1.379 . S
C473 N471 1.356 . S
N474 C466 1.356 . S
N474 H480 0.984 . S
N474 H481 0.984 . S
N475 C468 1.356 . S
N475 H478 0.984 . S
N475 H479 0.985 . S
H476 N471 0.984 . S
H477 N471 0.985 . S
H478 N475 0.984 . S
H479 N475 0.985 . S
H480 N474 0.984 . S
H481 N474 0.984 . S
H482 N470 0.984 . S
H483 N470 0.985 . S
C484 C485 1.363 . S
C484 C490 1.379 . S
C484 N492 1.356 . S
C485 C484 1.363 . S
C485 C491 1.363 . S
C486 C487 1.363 . S
C486 C491 1.379 . S
C486 N493 1.356 . S
C487 C486 1.363 . S
C487 C490 1.363 . S
N488 C490 1.356 . S
N488 H500 0.984 . S
N488 H501 0.985 . S
N489 C491 1.356 . S
N489 H494 0.984 . S
N489 H495 0.985 . S
C490 C484 1.379 . S
C490 C487 1.363 . S
C490 N488 1.356 . S
C491 C485 1.363 . S
C491 C486 1.379 . S
C491 N489 1.356 . S
N492 C484 1.356 . S
N492 H498 0.984 . S
N492 H499 0.984 . S
N493 C486 1.356 . S
N493 H496 0.984 . S
N493 H497 0.985 . S
H494 N489 0.984 . S
H495 N489 0.985 . S
H496 N493 0.984 . S
H497 N493 0.985 . S
H498 N492 0.984 . S
H499 N492 0.984 . S
H500 N488 0.984 . S
H501 N488 0.985 . S
C502 C503 1.363 . S
C502 C508 1.379 . S
C502 N510 1.356 . S
C503 C502 1.363 . S
C503 C509 1.363 . S
C504 C505 1.363 . S
C504 C509 1.379 . S
C504 N511 1.356 . S
C505 C504 1.363 . S
C505 C508 1.363 . S
N506 C508 1.356 . S
N506 H518 0.984 . S
N506 H519 0.985 . S
N507 C509 1.356 . S
N507 H512 0.984 . S
N507 H513 0.985 . S
C508 C502 1.379 . S
C508 C505 1.363 . S
C508 N506 1.356 . S
C509 C503 1.363 . S
C509 C504 1.379 . S
C509 N507 1.356 . S
N510 C502 1.356 . S
N510 H516 0.984 . S
N510 H517 0.984 . S
N511 C504 1.356 . S
N511 H514 0.984 . S
N511 H515 0.985 . S
H512 N507 0.984 . S
H513 N507 0.985 . S
H514 N511 0.984 . S
H515 N511 0.985 . S
H516 N510 0.984 . S
H517 N510 0.984 . S
H518 N506 0.984 . S
H519 N506 0.985 . S
C520 C521 1.363 . S
C520 C526 1.379 . S
C520 N528 1.356 . S
C521 C520 1.363 . S
C521 C527 1.363 . S
C522 C523 1.363 . S
C522 C527 1.379 . S
C522 N529 1.356 . S
C523 C522 1.363 . S
C523 C526 1.363 . S
N524 C526 1.356 . S
N524 H536 0.984 . S
N524 H537 0.985 . S
N525 C527 1.356 . S
N525 H530 0.984 . S
N525 H531 0.985 . S
C526 C520 1.379 . S
C526 C523 1.363 . S
C526 N524 1.356 . S
C527 C521 1.363 . S
C527 C522 1.379 . S
C527 N525 1.356 . S
N528 C520 1.356 . S
N528 H534 0.984 . S
N528 H535 0.984 . S
N529 C522 1.356 . S
N529 H532 0.984 . S
N529 H533 0.985 . S
H530 N525 0.984 . S
H531 N525 0.985 . S
H532 N529 0.984 . S
H533 N529 0.985 . S
H534 N528 0.984 . S
H535 N528 0.984 . S
H536 N524 0.984 . S
H537 N524 0.985 . S
C538 C539 1.363 . S
C538 C544 1.379 . S
C538 N546 1.356 . S
C539 C538 1.363 . S
C539 C545 1.363 . S
C540 C541 1.363 . S
C540 C545 1.379 . S
C540 N547 1.356 . S
C541 C540 1.363 . S
C541 C544 1.363 . S
N542 C544 1.356 . S
N542 H554 0.984 . S
N542 H555 0.985 . S
N543 C545 1.356 . S
N543 H548 0.984 . S
N543 H549 0.985 . S
C544 C538 1.379 . S
C544 C541 1.363 . S
C544 N542 1.356 . S
C545 C539 1.363 . S
C545 C540 1.379 . S
C545 N543 1.356 . S
N546 C538 1.356 . S
N546 H552 0.984 . S
N546 H553 0.984 . S
N547 C540 1.356 . S
N547 H550 0.984 . S
N547 H551 0.985 . S
H548 N543 0.984 . S
H549 N543 0.985 . S
H550 N547 0.984 . S
H551 N547 0.985 . S
H552 N546 0.984 . S
H553 N546 0.984 . S
H554 N542 0.984 . S
H555 N542 0.985 . S
C556 C557 1.363 . S
C556 C562 1.379 . S
C556 N564 1.356 . S
C557 C556 1.363 . S
C557 C563 1.363 . S
C558 C559 1.363 . S
C558 C563 1.379 . S
C558 N565 1.356 . S
C559 C558 1.363 . S
C559 C562 1.363 . S
N560 C562 1.356 . S
N560 H572 0.984 . S
N560 H573 0.985 . S
N561 C563 1.356 . S
N561 H566 0.984 . S
N561 H567 0.985 . S
C562 C556 1.379 . S
C562 C559 1.363 . S
C562 N560 1.356 . S
C563 C557 1.363 . S
C563 C558 1.379 . S
C563 N561 1.356 . S
N564 C556 1.356 . S
N564 H570 0.984 . S
N564 H571 0.984 . S
N565 C558 1.356 . S
N565 H568 0.984 . S
N565 H569 0.985 . S
H566 N561 0.984 . S
H567 N561 0.985 . S
H568 N565 0.984 . S
H569 N565 0.985 . S
H570 N564 0.984 . S
H571 N564 0.984 . S
H572 N560 0.984 . S
H573 N560 0.985 . S
C574 C575 1.363 . S
C574 C580 1.379 . S
C574 N582 1.356 . S
C575 C574 1.363 . S
C575 C581 1.363 . S
C576 C577 1.363 . S
C576 C581 1.379 . S
C576 N583 1.356 . S
C577 C576 1.363 . S
C577 C580 1.363 . S
N578 C580 1.356 . S
N578 H590 0.984 . S
N578 H591 0.985 . S
N579 C581 1.356 . S
N579 H584 0.984 . S
N579 H585 0.985 . S
C580 C574 1.379 . S
C580 C577 1.363 . S
C580 N578 1.356 . S
C581 C575 1.363 . S
C581 C576 1.379 . S
C581 N579 1.356 . S
N582 C574 1.356 . S
N582 H588 0.984 . S
N582 H589 0.984 . S
N583 C576 1.356 . S
N583 H586 0.984 . S
N583 H587 0.985 . S
H584 N579 0.984 . S
H585 N579 0.985 . S
H586 N583 0.984 . S
H587 N583 0.985 . S
H588 N582 0.984 . S
H589 N582 0.984 . S
H590 N578 0.984 . S
H591 N578 0.985 . S
C592 C593 1.363 . S
C592 C598 1.379 . S
C592 N600 1.356 . S
C593 C592 1.363 . S
C593 C599 1.363 . S
C594 C595 1.363 . S
C594 C599 1.379 . S
C594 N601 1.356 . S
C595 C594 1.363 . S
C595 C598 1.363 . S
N596 C598 1.356 . S
N596 H608 0.984 . S
N596 H609 0.985 . S
N597 C599 1.356 . S
N597 H602 0.984 . S
N597 H603 0.985 . S
C598 C592 1.379 . S
C598 C595 1.363 . S
C598 N596 1.356 . S
C599 C593 1.363 . S
C599 C594 1.379 . S
C599 N597 1.356 . S
N600 C592 1.356 . S
N600 H606 0.984 . S
N600 H607 0.984 . S
N601 C594 1.356 . S
N601 H604 0.984 . S
N601 H605 0.985 . S
H602 N597 0.984 . S
H603 N597 0.985 . S
H604 N601 0.984 . S
H605 N601 0.985 . S
H606 N600 0.984 . S
H607 N600 0.984 . S
H608 N596 0.984 . S
H609 N596 0.985 . S
C610 C611 1.363 . S
C610 C616 1.379 . S
C610 N618 1.356 . S
C611 C610 1.363 . S
C611 C617 1.363 . S
C612 C613 1.363 . S
C612 C617 1.379 . S
C612 N619 1.356 . S
C613 C612 1.363 . S
C613 C616 1.363 . S
N614 C616 1.356 . S
N614 H626 0.984 . S
N614 H627 0.985 . S
N615 C617 1.356 . S
N615 H620 0.984 . S
N615 H621 0.985 . S
C616 C610 1.379 . S
C616 C613 1.363 . S
C616 N614 1.356 . S
C617 C611 1.363 . S
C617 C612 1.379 . S
C617 N615 1.356 . S
N618 C610 1.356 . S
N618 H624 0.984 . S
N618 H625 0.984 . S
N619 C612 1.356 . S
N619 H622 0.984 . S
N619 H623 0.985 . S
H620 N615 0.984 . S
H621 N615 0.985 . S
H622 N619 0.984 . S
H623 N619 0.985 . S
H624 N618 0.984 . S
H625 N618 0.984 . S
H626 N614 0.984 . S
H627 N614 0.985 . S
C628 C629 1.363 . S
C628 C634 1.379 . S
C628 N636 1.356 . S
C629 C628 1.363 . S
C629 C635 1.363 . S
C630 C631 1.363 . S
C630 C635 1.379 . S
C630 N637 1.356 . S
C631 C630 1.363 . S
C631 C634 1.363 . S
N632 C634 1.356 . S
N632 H644 0.984 . S
N632 H645 0.985 . S
N633 C635 1.356 . S
N633 H638 0.984 . S
N633 H639 0.985 . S
C634 C628 1.379 . S
C634 C631 1.363 . S
C634 N632 1.356 . S
C635 C629 1.363 . S
C635 C630 1.379 . S
C635 N633 1.356 . S
N636 C628 1.356 . S
N636 H642 0.984 . S
N636 H643 0.984 . S
N637 C630 1.356 . S
N637 H640 0.984 . S
N637 H641 0.985 . S
H638 N633 0.984 . S
H639 N633 0.985 . S
H640 N637 0.984 . S
H641 N637 0.985 . S
H642 N636 0.984 . S
H643 N636 0.984 . S
H644 N632 0.984 . S
H645 N632 0.985 . S
C646 C647 1.363 . S
C646 C652 1.379 . S
C646 N654 1.356 . S
C647 C646 1.363 . S
C647 C653 1.363 . S
C648 C649 1.363 . S
C648 C653 1.379 . S
C648 N655 1.356 . S
C649 C648 1.363 . S
C649 C652 1.363 . S
N650 C652 1.356 . S
N650 H662 0.984 . S
N650 H663 0.985 . S
N651 C653 1.356 . S
N651 H656 0.984 . S
N651 H657 0.985 . S
C652 C646 1.379 . S
C652 C649 1.363 . S
C652 N650 1.356 . S
C653 C647 1.363 . S
C653 C648 1.379 . S
C653 N651 1.356 . S
N654 C646 1.356 . S
N654 H660 0.984 . S
N654 H661 0.984 . S
N655 C648 1.356 . S
N655 H658 0.984 . S
N655 H659 0.985 . S
H656 N651 0.984 . S
H657 N651 0.985 . S
H658 N655 0.984 . S
H659 N655 0.985 . S
H660 N654 0.984 . S
H661 N654 0.984 . S
H662 N650 0.984 . S
H663 N650 0.985 . S
C664 C665 1.363 . S
C664 C670 1.379 . S
C664 N672 1.356 . S
C665 C664 1.363 . S
C665 C671 1.363 . S
C666 C667 1.363 . S
C666 C671 1.379 . S
C666 N673 1.356 . S
C667 C666 1.363 . S
C667 C670 1.363 . S
N668 C670 1.356 . S
N668 H680 0.984 . S
N668 H681 0.985 . S
N669 C671 1.356 . S
N669 H674 0.984 . S
N669 H675 0.985 . S
C670 C664 1.379 . S
C670 C667 1.363 . S
C670 N668 1.356 . S
C671 C665 1.363 . S
C671 C666 1.379 . S
C671 N669 1.356 . S
N672 C664 1.356 . S
N672 H678 0.984 . S
N672 H679 0.984 . S
N673 C666 1.356 . S
N673 H676 0.984 . S
N673 H677 0.985 . S
H674 N669 0.984 . S
H675 N669 0.985 . S
H676 N673 0.984 . S
H677 N673 0.985 . S
H678 N672 0.984 . S
H679 N672 0.984 . S
H680 N668 0.984 . S
H681 N668 0.985 . S
C682 C683 1.363 . S
C682 C688 1.379 . S
C682 N690 1.356 . S
C683 C682 1.363 . S
C683 C689 1.363 . S
C684 C685 1.363 . S
C684 C689 1.379 . S
C684 N691 1.356 . S
C685 C684 1.363 . S
C685 C688 1.363 . S
N686 C688 1.356 . S
N686 H698 0.984 . S
N686 H699 0.985 . S
N687 C689 1.356 . S
N687 H692 0.984 . S
N687 H693 0.985 . S
C688 C682 1.379 . S
C688 C685 1.363 . S
C688 N686 1.356 . S
C689 C683 1.363 . S
C689 C684 1.379 . S
C689 N687 1.356 . S
N690 C682 1.356 . S
N690 H696 0.984 . S
N690 H697 0.984 . S
N691 C684 1.356 . S
N691 H694 0.984 . S
N691 H695 0.985 . S
H692 N687 0.984 . S
H693 N687 0.985 . S
H694 N691 0.984 . S
H695 N691 0.985 . S
H696 N690 0.984 . S
H697 N690 0.984 . S
H698 N686 0.984 . S
H699 N686 0.985 . S
C700 C701 1.363 . S
C700 C706 1.379 . S
C700 N708 1.356 . S
C701 C700 1.363 . S
C701 C707 1.363 . S
C702 C703 1.363 . S
C702 C707 1.379 . S
C702 N709 1.356 . S
C703 C702 1.363 . S
C703 C706 1.363 . S
N704 C706 1.356 . S
N704 H716 0.984 . S
N704 H717 0.985 . S
N705 C707 1.356 . S
N705 H710 0.984 . S
N705 H711 0.985 . S
C706 C700 1.379 . S
C706 C703 1.363 . S
C706 N704 1.356 . S
C707 C701 1.363 . S
C707 C702 1.379 . S
C707 N705 1.356 . S
N708 C700 1.356 . S
N708 H714 0.984 . S
N708 H715 0.984 . S
N709 C702 1.356 . S
N709 H712 0.984 . S
N709 H713 0.985 . S
H710 N705 0.984 . S
H711 N705 0.985 . S
H712 N709 0.984 . S
H713 N709 0.985 . S
H714 N708 0.984 . S
H715 N708 0.984 . S
H716 N704 0.984 . S
H717 N704 0.985 . S
C718 C719 1.363 . S
C718 C724 1.379 . S
C718 N726 1.356 . S
C719 C718 1.363 . S
C719 C725 1.363 . S
C720 C721 1.363 . S
C720 C725 1.379 . S
C720 N727 1.356 . S
C721 C720 1.363 . S
C721 C724 1.363 . S
N722 C724 1.356 . S
N722 H734 0.984 . S
N722 H735 0.985 . S
N723 C725 1.356 . S
N723 H728 0.984 . S
N723 H729 0.985 . S
C724 C718 1.379 . S
C724 C721 1.363 . S
C724 N722 1.356 . S
C725 C719 1.363 . S
C725 C720 1.379 . S
C725 N723 1.356 . S
N726 C718 1.356 . S
N726 H732 0.984 . S
N726 H733 0.984 . S
N727 C720 1.356 . S
N727 H730 0.984 . S
N727 H731 0.985 . S
H728 N723 0.984 . S
H729 N723 0.985 . S
H730 N727 0.984 . S
H731 N727 0.985 . S
H732 N726 0.984 . S
H733 N726 0.984 . S
H734 N722 0.984 . S
H735 N722 0.985 . S
C736 C737 1.363 . S
C736 C742 1.379 . S
C736 N744 1.356 . S
C737 C736 1.363 . S
C737 C743 1.363 . S
C738 C739 1.363 . S
C738 C743 1.379 . S
C738 N745 1.356 . S
C739 C738 1.363 . S
C739 C742 1.363 . S
N740 C742 1.356 . S
N740 H752 0.984 . S
N740 H753 0.985 . S
N741 C743 1.356 . S
N741 H746 0.984 . S
N741 H747 0.985 . S
C742 C736 1.379 . S
C742 C739 1.363 . S
C742 N740 1.356 . S
C743 C737 1.363 . S
C743 C738 1.379 . S
C743 N741 1.356 . S
N744 C736 1.356 . S
N744 H750 0.984 . S
N744 H751 0.984 . S
N745 C738 1.356 . S
N745 H748 0.984 . S
N745 H749 0.985 . S
H746 N741 0.984 . S
H747 N741 0.985 . S
H748 N745 0.984 . S
H749 N745 0.985 . S
H750 N744 0.984 . S
H751 N744 0.984 . S
H752 N740 0.984 . S
H753 N740 0.985 . S
C754 C755 1.363 . S
C754 C760 1.379 . S
C754 N762 1.356 . S
C755 C754 1.363 . S
C755 C761 1.363 . S
C756 C757 1.363 . S
C756 C761 1.379 . S
C756 N763 1.356 . S
C757 C756 1.363 . S
C757 C760 1.363 . S
N758 C760 1.356 . S
N758 H770 0.984 . S
N758 H771 0.985 . S
N759 C761 1.356 . S
N759 H764 0.984 . S
N759 H765 0.985 . S
C760 C754 1.379 . S
C760 C757 1.363 . S
C760 N758 1.356 . S
C761 C755 1.363 . S
C761 C756 1.379 . S
C761 N759 1.356 . S
N762 C754 1.356 . S
N762 H768 0.984 . S
N762 H769 0.984 . S
N763 C756 1.356 . S
N763 H766 0.984 . S
N763 H767 0.985 . S
H764 N759 0.984 . S
H765 N759 0.985 . S
H766 N763 0.984 . S
H767 N763 0.985 . S
H768 N762 0.984 . S
H769 N762 0.984 . S
H770 N758 0.984 . S
H771 N758 0.985 . S
C343 C268 1.513 . S
C341 C23 1.500 . S
C361 C271 1.500 . S
C359 C49 1.488 . S
C379 C269 1.508 . S
C377 C87 1.472 . S
C397 C270 1.511 . S
C395 C125 1.475 . S
C415 C285 1.512 . S
C413 C29 1.491 . S
C433 C299 1.499 . S
C431 C61 1.473 . S
C449 C81 1.471 . S
C451 C325 1.503 . S
C469 C339 1.503 . S
C467 C113 1.484 . S
C487 C284 1.494 . S
C485 C55 1.474 . S
C503 C93 1.477 . S
C505 C298 1.512 . S
C523 C324 1.499 . S
C521 C119 1.470 . S
C541 C338 1.509 . S
C539 C17 1.493 . S
C557 C151 1.473 . S
C559 C283 1.513 . S
C577 C256 1.500 . S
C575 C177 1.471 . S
C593 C215 1.497 . S
C595 C282 1.508 . S
C611 C253 1.489 . S
C613 C257 1.511 . S
C631 C312 1.512 . S
C629 C157 1.467 . S
C649 C326 1.499 . S
C647 C189 1.469 . S
C667 C296 1.503 . S
C665 C209 1.487 . S
C683 C241 1.482 . S
C685 C310 1.503 . S
C703 C313 1.494 . S
C701 C183 1.462 . S
C721 C327 1.512 . S
C719 C221 1.487 . S
C739 C297 1.499 . S
C737 C247 1.477 . S
C755 C145 1.480 . S
C757 C311 1.509 . S
