# Generated by pormake.
# Topology ptr, (4,4)-cn, num edge types: 1
# Building blocks:
#     Node 0, Type 0, BuildingBlock: QUQFOY_clean_sbu_1, # of connection points: 4
#     Node 1, Type 0, BuildingBlock: QUQFOY_clean_sbu_1, # of connection points: 4
#     Node 2, Type 0, BuildingBlock: QUQFOY_clean_sbu_1, # of connection points: 4
#     Node 3, Type 0, BuildingBlock: QUQFOY_clean_sbu_1, # of connection points: 4
#     Node 4, Type 0, BuildingBlock: QUQFOY_clean_sbu_1, # of connection points: 4
#     Node 5, Type 0, BuildingBlock: QUQFOY_clean_sbu_1, # of connection points: 4
#     Node 6, Type 0, BuildingBlock: QUQFOY_clean_sbu_1, # of connection points: 4
#     Node 7, Type 0, BuildingBlock: QUQFOY_clean_sbu_1, # of connection points: 4
#     Node 8, Type 0, BuildingBlock: QUQFOY_clean_sbu_1, # of connection points: 4
#     Node 9, Type 0, BuildingBlock: QUQFOY_clean_sbu_1, # of connection points: 4
#     Node 10, Type 0, BuildingBlock: QUQFOY_clean_sbu_1, # of connection points: 4
#     Node 11, Type 0, BuildingBlock: QUQFOY_clean_sbu_1, # of connection points: 4
#     Node 12, Type 0, BuildingBlock: QUQFOY_clean_sbu_1, # of connection points: 4
#     Node 13, Type 0, BuildingBlock: QUQFOY_clean_sbu_1, # of connection points: 4
#     Node 14, Type 0, BuildingBlock: QUQFOY_clean_sbu_1, # of connection points: 4
#     Node 15, Type 0, BuildingBlock: QUQFOY_clean_sbu_1, # of connection points: 4
#     Node 16, Type 0, BuildingBlock: QUQFOY_clean_sbu_1, # of connection points: 4
#     Node 17, Type 0, BuildingBlock: QUQFOY_clean_sbu_1, # of connection points: 4
#     Node 18, Type 1, BuildingBlock: GIZVER_clean_linker_0, # of connection points: 4
#     Node 19, Type 1, BuildingBlock: GIZVER_clean_linker_0, # of connection points: 4
#     Node 20, Type 1, BuildingBlock: GIZVER_clean_linker_0, # of connection points: 4
#     Node 21, Type 1, BuildingBlock: GIZVER_clean_linker_0, # of connection points: 4
#     Node 22, Type 1, BuildingBlock: GIZVER_clean_linker_0, # of connection points: 4
#     Node 23, Type 1, BuildingBlock: GIZVER_clean_linker_0, # of connection points: 4
#     Node 24, Type 1, BuildingBlock: GIZVER_clean_linker_0, # of connection points: 4
#     Node 25, Type 1, BuildingBlock: GIZVER_clean_linker_0, # of connection points: 4
#     Node 26, Type 1, BuildingBlock: GIZVER_clean_linker_0, # of connection points: 4
#     Node 27, Type 1, BuildingBlock: GIZVER_clean_linker_0, # of connection points: 4
#     Node 28, Type 1, BuildingBlock: GIZVER_clean_linker_0, # of connection points: 4
#     Node 29, Type 1, BuildingBlock: GIZVER_clean_linker_0, # of connection points: 4
#     Node 30, Type 1, BuildingBlock: GIZVER_clean_linker_0, # of connection points: 4
#     Node 31, Type 1, BuildingBlock: GIZVER_clean_linker_0, # of connection points: 4
#     Node 32, Type 1, BuildingBlock: GIZVER_clean_linker_0, # of connection points: 4
#     Node 33, Type 1, BuildingBlock: GIZVER_clean_linker_0, # of connection points: 4
#     Node 34, Type 1, BuildingBlock: GIZVER_clean_linker_0, # of connection points: 4
#     Node 35, Type 1, BuildingBlock: GIZVER_clean_linker_0, # of connection points: 4
#     Edge 36, Type (0, 1), BuildingBlock: XIVTED_clean_linker_0, # of connection points: 2
#     Edge 37, Type (0, 1), BuildingBlock: XIVTED_clean_linker_0, # of connection points: 2
#     Edge 38, Type (0, 1), BuildingBlock: XIVTED_clean_linker_0, # of connection points: 2
#     Edge 39, Type (0, 1), BuildingBlock: XIVTED_clean_linker_0, # of connection points: 2
#     Edge 40, Type (0, 1), BuildingBlock: XIVTED_clean_linker_0, # of connection points: 2
#     Edge 41, Type (0, 1), BuildingBlock: XIVTED_clean_linker_0, # of connection points: 2
#     Edge 42, Type (0, 1), BuildingBlock: XIVTED_clean_linker_0, # of connection points: 2
#     Edge 43, Type (0, 1), BuildingBlock: XIVTED_clean_linker_0, # of connection points: 2
#     Edge 44, Type (0, 1), BuildingBlock: XIVTED_clean_linker_0, # of connection points: 2
#     Edge 45, Type (0, 1), BuildingBlock: XIVTED_clean_linker_0, # of connection points: 2
#     Edge 46, Type (0, 1), BuildingBlock: XIVTED_clean_linker_0, # of connection points: 2
#     Edge 47, Type (0, 1), BuildingBlock: XIVTED_clean_linker_0, # of connection points: 2
#     Edge 48, Type (0, 1), BuildingBlock: XIVTED_clean_linker_0, # of connection points: 2
#     Edge 49, Type (0, 1), BuildingBlock: XIVTED_clean_linker_0, # of connection points: 2
#     Edge 50, Type (0, 1), BuildingBlock: XIVTED_clean_linker_0, # of connection points: 2
#     Edge 51, Type (0, 1), BuildingBlock: XIVTED_clean_linker_0, # of connection points: 2
#     Edge 52, Type (0, 1), BuildingBlock: XIVTED_clean_linker_0, # of connection points: 2
#     Edge 53, Type (0, 1), BuildingBlock: XIVTED_clean_linker_0, # of connection points: 2
#     Edge 54, Type (0, 1), BuildingBlock: XIVTED_clean_linker_0, # of connection points: 2
#     Edge 55, Type (0, 1), BuildingBlock: XIVTED_clean_linker_0, # of connection points: 2
#     Edge 56, Type (0, 1), BuildingBlock: XIVTED_clean_linker_0, # of connection points: 2
#     Edge 57, Type (0, 1), BuildingBlock: XIVTED_clean_linker_0, # of connection points: 2
#     Edge 58, Type (0, 1), BuildingBlock: XIVTED_clean_linker_0, # of connection points: 2
#     Edge 59, Type (0, 1), BuildingBlock: XIVTED_clean_linker_0, # of connection points: 2
#     Edge 60, Type (0, 1), BuildingBlock: XIVTED_clean_linker_0, # of connection points: 2
#     Edge 61, Type (0, 1), BuildingBlock: XIVTED_clean_linker_0, # of connection points: 2
#     Edge 62, Type (0, 1), BuildingBlock: XIVTED_clean_linker_0, # of connection points: 2
#     Edge 63, Type (0, 1), BuildingBlock: XIVTED_clean_linker_0, # of connection points: 2
#     Edge 64, Type (0, 1), BuildingBlock: XIVTED_clean_linker_0, # of connection points: 2
#     Edge 65, Type (0, 1), BuildingBlock: XIVTED_clean_linker_0, # of connection points: 2
#     Edge 66, Type (0, 1), BuildingBlock: XIVTED_clean_linker_0, # of connection points: 2
#     Edge 67, Type (0, 1), BuildingBlock: XIVTED_clean_linker_0, # of connection points: 2
#     Edge 68, Type (0, 1), BuildingBlock: XIVTED_clean_linker_0, # of connection points: 2
#     Edge 69, Type (0, 1), BuildingBlock: XIVTED_clean_linker_0, # of connection points: 2
#     Edge 70, Type (0, 1), BuildingBlock: XIVTED_clean_linker_0, # of connection points: 2
#     Edge 71, Type (0, 1), BuildingBlock: XIVTED_clean_linker_0, # of connection points: 2
#     Edge 72, Type (0, 1), BuildingBlock: XIVTED_clean_linker_0, # of connection points: 2
#     Edge 73, Type (0, 1), BuildingBlock: XIVTED_clean_linker_0, # of connection points: 2
#     Edge 74, Type (0, 1), BuildingBlock: XIVTED_clean_linker_0, # of connection points: 2
#     Edge 75, Type (0, 1), BuildingBlock: XIVTED_clean_linker_0, # of connection points: 2
#     Edge 76, Type (0, 1), BuildingBlock: XIVTED_clean_linker_0, # of connection points: 2
#     Edge 77, Type (0, 1), BuildingBlock: XIVTED_clean_linker_0, # of connection points: 2
#     Edge 78, Type (0, 1), BuildingBlock: XIVTED_clean_linker_0, # of connection points: 2
#     Edge 79, Type (0, 1), BuildingBlock: XIVTED_clean_linker_0, # of connection points: 2
#     Edge 80, Type (0, 1), BuildingBlock: XIVTED_clean_linker_0, # of connection points: 2
#     Edge 81, Type (0, 1), BuildingBlock: XIVTED_clean_linker_0, # of connection points: 2
#     Edge 82, Type (0, 1), BuildingBlock: XIVTED_clean_linker_0, # of connection points: 2
#     Edge 83, Type (0, 1), BuildingBlock: XIVTED_clean_linker_0, # of connection points: 2
#     Edge 84, Type (0, 1), BuildingBlock: XIVTED_clean_linker_0, # of connection points: 2
#     Edge 85, Type (0, 1), BuildingBlock: XIVTED_clean_linker_0, # of connection points: 2
#     Edge 86, Type (0, 1), BuildingBlock: XIVTED_clean_linker_0, # of connection points: 2
#     Edge 87, Type (0, 1), BuildingBlock: XIVTED_clean_linker_0, # of connection points: 2
#     Edge 88, Type (0, 1), BuildingBlock: XIVTED_clean_linker_0, # of connection points: 2
#     Edge 89, Type (0, 1), BuildingBlock: XIVTED_clean_linker_0, # of connection points: 2
#     Edge 90, Type (0, 1), BuildingBlock: XIVTED_clean_linker_0, # of connection points: 2
#     Edge 91, Type (0, 1), BuildingBlock: XIVTED_clean_linker_0, # of connection points: 2
#     Edge 92, Type (0, 1), BuildingBlock: XIVTED_clean_linker_0, # of connection points: 2
#     Edge 93, Type (0, 1), BuildingBlock: XIVTED_clean_linker_0, # of connection points: 2
#     Edge 94, Type (0, 1), BuildingBlock: XIVTED_clean_linker_0, # of connection points: 2
#     Edge 95, Type (0, 1), BuildingBlock: XIVTED_clean_linker_0, # of connection points: 2
#     Edge 96, Type (0, 1), BuildingBlock: XIVTED_clean_linker_0, # of connection points: 2
#     Edge 97, Type (0, 1), BuildingBlock: XIVTED_clean_linker_0, # of connection points: 2
#     Edge 98, Type (0, 1), BuildingBlock: XIVTED_clean_linker_0, # of connection points: 2
#     Edge 99, Type (0, 1), BuildingBlock: XIVTED_clean_linker_0, # of connection points: 2
#     Edge 100, Type (0, 1), BuildingBlock: XIVTED_clean_linker_0, # of connection points: 2
#     Edge 101, Type (0, 1), BuildingBlock: XIVTED_clean_linker_0, # of connection points: 2
#     Edge 102, Type (0, 1), BuildingBlock: XIVTED_clean_linker_0, # of connection points: 2
#     Edge 103, Type (0, 1), BuildingBlock: XIVTED_clean_linker_0, # of connection points: 2
#     Edge 104, Type (0, 1), BuildingBlock: XIVTED_clean_linker_0, # of connection points: 2
#     Edge 105, Type (0, 1), BuildingBlock: XIVTED_clean_linker_0, # of connection points: 2
#     Edge 106, Type (0, 1), BuildingBlock: XIVTED_clean_linker_0, # of connection points: 2
#     Edge 107, Type (0, 1), BuildingBlock: XIVTED_clean_linker_0, # of connection points: 2
# Relax obj value: 0.020
# Max RMSD: 0.064
# Mean RMSD: 0.054
data_MOF--net-ptr--node1-QUQFOY_clean_sbu_1--node2-GIZVER_clean_linker_0--edge1-XIVTED_clean_linker_0
_symmetry_space_group_name_H-M    P1
_symmetry_Int_Tables_number       1
_symmetry_cell_setting            triclinic
loop_
_symmetry_equiv_pos_as_xyz
'x, y, z'
_cell_length_a     80.729811
_cell_length_b     80.787439
_cell_length_c     50.862762
_cell_angle_alpha  90.262642
_cell_angle_beta   90.285
_cell_angle_gamma 119.97985
loop_
_atom_site_label
_atom_site_type_symbol
_atom_site_fract_x
_atom_site_fract_y
_atom_site_fract_z
_atom_type_partial_charge
O0 O 0.03342 0.41875 0.03525 0.0
Cd1 Cd 0.03833 0.40664 0.00252 0.0
Cd2 Cd 0.99864 0.38603 0.00223 0.0
O3 O 1.00196 0.40104 0.03668 0.0
O4 O 0.06596 0.4143 0.00499 0.0
O5 O 0.04269 0.3842 0.00604 0.0
C6 C 0.06079 0.39646 0.00705 0.0
C7 C 0.97606 0.35331 0.00083 0.0
C8 C 1.01761 0.41437 0.04612 0.0
C9 C 1.01866 0.41221 0.95623 0.0
O10 O 1.00303 0.40076 0.96743 0.0
O11 O 0.03458 0.41605 0.96654 0.0
O12 O 0.97101 0.36612 0.00088 0.0
O13 O 0.99414 0.35907 0.00204 0.0
O14 O 0.61759 0.62883 0.04408 0.0
Cd15 Cd 0.62824 0.6435 0.00937 0.0
Cd16 Cd 0.64854 0.62415 0.01113 0.0
O17 O 0.63519 0.61501 0.04691 0.0
O18 O 0.62006 0.66308 0.00937 0.0
O19 O 0.6504 0.6706 0.00977 0.0
C20 C 0.63786 0.67609 0.00999 0.0
C21 C 0.68122 0.6344 0.00741 0.0
C22 C 0.62235 0.61807 0.05615 0.0
C23 C 0.62024 0.61489 0.96647 0.0
O24 O 0.63182 0.61108 0.97833 0.0
O25 O 0.61739 0.62809 0.97493 0.0
O26 O 0.66866 0.61665 0.0106 0.0
O27 O 0.67528 0.64658 0.00691 0.0
O28 O 0.42157 0.02286 0.96447 0.0
Cd29 Cd 0.40903 0.02554 -0.00159 0.0
Cd30 Cd 0.38952 0.98684 -0.00598 0.0
O31 O 0.40359 0.99169 0.95881 0.0
O32 O 0.41653 0.05312 0.00033 0.0
O33 O 0.38656 0.02992 -0.00438 0.0
C34 C 0.39873 0.04799 -0.00256 0.0
C35 C 0.35635 0.96873 -0.00313 0.0
C36 C 0.41699 1.00778 0.95116 0.0
C37 C 0.41511 1.0035 0.04117 0.0
O38 O 0.4048 0.98854 0.02752 0.0
O39 O 0.41774 0.01964 0.03372 0.0
O40 O 0.36651 0.96074 -0.00732 0.0
O41 O 0.36503 0.98718 -0.00155 0.0
O42 O 1.00607 0.60728 0.96873 0.0
Cd43 Cd 1.00335 0.62012 0.00252 0.0
Cd44 Cd 0.0423 0.64009 -0.00065 0.0
O45 O 0.03736 0.62499 0.96469 0.0
O46 O 0.97592 0.61313 0.00366 0.0
O47 O 0.99953 0.64288 -0.00057 0.0
C48 C 0.98138 0.63098 0.00085 0.0
C49 C 0.06314 0.67312 0.00019 0.0
C50 C 0.02133 0.61165 0.9563 0.0
C51 C 0.02531 0.61508 0.0466 0.0
O52 O 0.04034 0.62573 0.03366 0.0
O53 O 1.00904 0.61169 0.03815 0.0
O54 O 0.06935 0.66127 -0.00213 0.0
O55 O 0.04486 0.6662 0.00141 0.0
O56 O 0.4217 0.39939 0.98286 0.0
Cd57 Cd 0.40925 0.384 0.01645 0.0
Cd58 Cd 0.39051 0.4048 0.01428 0.0
O59 O 0.40545 0.41462 0.97971 0.0
O60 O 0.41635 0.36362 0.01703 0.0
O61 O 0.38644 0.35728 0.01379 0.0
C62 C 0.39845 0.35113 0.0147 0.0
C63 C 0.35799 0.39554 0.01457 0.0
C64 C 0.41807 0.41105 0.97098 0.0
C65 C 0.41685 0.41169 0.06065 0.0
O66 O 0.40581 0.41623 0.04876 0.0
O67 O 0.41955 0.39856 0.05155 0.0
O68 O 0.37114 0.41326 0.01369 0.0
O69 O 0.36329 0.38287 0.01494 0.0
O70 O 0.61551 1.00277 0.03476 0.0
Cd71 Cd 0.62763 0.99796 0.00206 0.0
Cd72 Cd 0.64784 0.0375 0.00273 0.0
O73 O 0.63306 0.03421 0.03723 0.0
O74 O 0.61969 0.97027 0.00389 0.0
O75 O 0.64991 0.99328 0.00574 0.0
C76 C 0.63749 0.97524 0.00625 0.0
C77 C 0.68082 0.05906 0.00147 0.0
C78 C 0.61979 0.01848 0.04613 0.0
C79 C 0.62154 0.01748 0.9562 0.0
O80 O 0.63282 0.03315 0.96785 0.0
O81 O 0.61807 1.00164 0.96607 0.0
O82 O 0.66855 0.06484 0.00184 0.0
O83 O 0.67437 0.04086 0.00239 0.0
O84 O 0.71011 0.75766 0.3668 0.0
Cd85 Cd 0.71446 0.74583 0.3334 0.0
Cd86 Cd 0.67487 0.72342 0.33494 0.0
O87 O 0.67928 0.73699 0.37102 0.0
O88 O 0.74188 0.75266 0.33451 0.0
O89 O 0.71792 0.72285 0.3359 0.0
C90 C 0.73614 0.73467 0.33633 0.0
C91 C 0.65176 0.69078 0.33292 0.0
C92 C 0.69462 0.75132 0.37948 0.0
C93 C 0.69318 0.75098 0.28927 0.0
O94 O 0.67804 0.73915 0.30121 0.0
O95 O 0.70953 0.75505 0.29821 0.0
O96 O 0.64707 0.70381 0.33482 0.0
O97 O 0.66978 0.69624 0.33234 0.0
O98 O 0.28264 0.9598 0.37657 0.0
Cd99 Cd 0.29263 0.97394 0.34136 0.0
Cd100 Cd 0.31265 0.95413 0.34257 0.0
O101 O 0.29959 0.94524 0.3786 0.0
O102 O 0.2842 0.99333 0.34134 0.0
O103 O 0.3146 1.00109 0.34053 0.0
C104 C 0.30196 1.00644 0.34102 0.0
C105 C 0.34538 0.96456 0.33868 0.0
C106 C 0.28724 0.94882 0.38838 0.0
C107 C 0.28389 0.94498 0.29857 0.0
O108 O 0.29564 0.94114 0.3099 0.0
O109 O 0.28117 0.95816 0.3074 0.0
O110 O 0.33289 0.94677 0.34175 0.0
O111 O 0.33932 0.97665 0.33826 0.0
O112 O 0.09223 0.36384 0.31073 0.0
Cd113 Cd 0.07862 0.3657 0.34403 0.0
Cd114 Cd 0.05876 0.32709 0.33882 0.0
O115 O 0.0739 0.33277 0.30435 0.0
O116 O 0.08256 0.39215 0.34579 0.0
O117 O 0.05429 0.36632 0.33896 0.0
C118 C 0.06449 0.38471 0.3411 0.0
C119 C 0.02579 0.30561 0.3389 0.0
C120 C 0.08762 0.34885 0.2972 0.0
C121 C 0.08379 0.34359 0.38698 0.0
O122 O 0.07337 0.32883 0.37305 0.0
O123 O 0.0869 0.35993 0.37969 0.0
O124 O 0.03797 0.29984 0.33624 0.0
O125 O 0.03233 0.32379 0.34085 0.0
O126 O 0.66457 0.93554 0.31216 0.0
Cd127 Cd 0.6623 0.94842 0.34614 0.0
Cd128 Cd 0.70123 0.96805 0.34317 0.0
O129 O 0.69582 0.95358 0.30787 0.0
O130 O 0.63589 0.94465 0.34684 0.0
O131 O 0.66194 0.97294 0.34222 0.0
C132 C 0.6435 0.9628 0.34319 0.0
C133 C 0.72365 1.00082 0.34464 0.0
C134 C 0.67979 0.94026 0.29941 0.0
C135 C 0.68345 0.94185 0.38947 0.0
O136 O 0.69854 0.95259 0.37667 0.0
O137 O 0.6673 0.93908 0.38149 0.0
O138 O 0.72882 0.98817 0.34206 0.0
O139 O 0.70556 0.99488 0.34603 0.0
O140 O 0.09336 0.73405 0.31118 0.0
Cd141 Cd 0.08119 0.71952 0.34541 0.0
Cd142 Cd 0.06173 0.7394 0.34167 0.0
O143 O 0.07591 0.7479 0.30623 0.0
O144 O 0.08722 0.69841 0.34666 0.0
O145 O 0.05772 0.69332 0.34315 0.0
C146 C 0.06917 0.68648 0.34421 0.0
C147 C 0.02911 0.72969 0.34304 0.0
C148 C 0.08887 0.74462 0.29807 0.0
C149 C 0.0884 0.74783 0.38834 0.0
O150 O 0.07734 0.75195 0.37564 0.0
O151 O 0.09134 0.73463 0.3802 0.0
O152 O 0.04202 0.74741 0.34076 0.0
O153 O 0.03471 0.71724 0.34399 0.0
O154 O 0.28539 0.33564 0.36992 0.0
Cd155 Cd 0.29709 0.33056 0.33697 0.0
Cd156 Cd 0.31744 0.3705 0.3371 0.0
O157 O 0.30266 0.36713 0.37154 0.0
O158 O 0.28852 0.30271 0.33876 0.0
O159 O 0.31895 0.32515 0.34001 0.0
C160 C 0.30621 0.30722 0.34066 0.0
C161 C 0.35012 0.39342 0.33612 0.0
C162 C 0.28961 0.35146 0.38088 0.0
C163 C 0.29052 0.34997 0.29124 0.0
O164 O 0.30211 0.36574 0.30242 0.0
O165 O 0.28706 0.33419 0.30132 0.0
O166 O 0.33712 0.39823 0.33622 0.0
O167 O 0.34459 0.37541 0.3369 0.0
O168 O 0.37561 0.09071 0.70151 0.0
Cd169 Cd 0.3798 0.07938 0.66763 0.0
Cd170 Cd 0.33983 0.05818 0.66822 0.0
O171 O 0.34408 0.07367 0.70283 0.0
O172 O 0.4072 0.08612 0.66868 0.0
O173 O 0.38322 0.05631 0.6689 0.0
C174 C 0.40144 0.0681 0.66961 0.0
C175 C 0.31683 0.02547 0.66774 0.0
C176 C 0.35993 0.08652 0.71257 0.0
C177 C 0.35949 0.08474 0.62214 0.0
O178 O 0.344 0.07224 0.63267 0.0
O179 O 0.37557 0.08977 0.63291 0.0
O180 O 0.31203 0.03847 0.66774 0.0
O181 O 0.33487 0.03101 0.66853 0.0
O182 O 0.95207 0.29019 0.70697 0.0
Cd183 Cd 0.96403 0.3053 0.67287 0.0
Cd184 Cd 0.98398 0.28583 0.67614 0.0
O185 O 0.96919 0.27591 0.71082 0.0
O186 O 0.95639 0.32531 0.67209 0.0
O187 O 0.9865 0.3322 0.67476 0.0
C188 C 0.97424 0.33805 0.67397 0.0
C189 C 1.01701 0.29748 0.67539 0.0
C190 C 0.95623 0.27906 0.71931 0.0
C191 C 0.95783 0.27755 0.6292 0.0
O192 O 0.9689 0.27344 0.64188 0.0
O193 O 0.95457 0.29049 0.63765 0.0
O194 O 1.00491 0.27948 0.67728 0.0
O195 O 1.01035 0.30907 0.67445 0.0
O196 O 0.75202 0.68803 0.63353 0.0
Cd197 Cd 0.73949 0.68984 0.66807 0.0
Cd198 Cd 0.72169 0.65104 0.66341 0.0
O199 O 0.7359 0.6567 0.62819 0.0
O200 O 0.74644 0.71723 0.67087 0.0
O201 O 0.7166 0.69367 0.66679 0.0
C202 C 0.72851 0.71179 0.66893 0.0
C203 C 0.68857 0.63198 0.66611 0.0
C204 C 0.74841 0.67317 0.62032 0.0
C205 C 0.74748 0.6686 0.71019 0.0
O206 O 0.73738 0.65344 0.69682 0.0
O207 O 0.74934 0.68444 0.70273 0.0
O208 O 0.69924 0.62454 0.66199 0.0
O209 O 0.69672 0.65039 0.66777 0.0
O210 O 0.34003 0.27174 0.64004 0.0
Cd211 Cd 0.33879 0.28643 0.67292 0.0
Cd212 Cd 0.37743 0.30317 0.66905 0.0
O213 O 0.37125 0.2884 0.63414 0.0
O214 O 0.31213 0.28208 0.67435 0.0
O215 O 0.33754 0.31035 0.66711 0.0
C216 C 0.31921 0.3 0.66945 0.0
C217 C 0.3966 0.33633 0.6712 0.0
C218 C 0.35477 0.2753 0.62678 0.0
C219 C 0.35979 0.27977 0.71678 0.0
O220 O 0.37466 0.28783 0.70264 0.0
O221 O 0.34437 0.27908 0.70945 0.0
O222 O 0.40401 0.32555 0.66775 0.0
O223 O 0.3782 0.32823 0.67269 0.0
O224 O 0.75851 0.06697 0.64015 0.0
Cd225 Cd 0.74615 0.05163 0.67377 0.0
Cd226 Cd 0.72672 0.07175 0.67092 0.0
O227 O 0.74147 0.08132 0.6361 0.0
O228 O 0.75354 0.03148 0.67455 0.0
O229 O 0.72354 0.02485 0.67105 0.0
C230 C 0.73568 0.01887 0.6721 0.0
C231 C 0.69408 0.06194 0.6716 0.0
C232 C 0.75442 0.0781 0.62774 0.0
C233 C 0.75286 0.07913 0.71777 0.0
O234 O 0.74186 0.08351 0.70543 0.0
O235 O 0.7559 0.06616 0.70895 0.0
O236 O 0.70699 0.07972 0.67022 0.0
O237 O 0.6997 0.0495 0.67208 0.0
O238 O 0.95117 0.66373 0.7028 0.0
Cd239 Cd 0.96317 0.6602 0.66902 0.0
Cd240 Cd 0.98295 0.70019 0.67234 0.0
O241 O 0.96828 0.69509 0.70739 0.0
O242 O 0.95482 0.63238 0.66867 0.0
O243 O 0.98516 0.65496 0.67118 0.0
C244 C 0.97253 0.63698 0.67071 0.0
C245 C 1.01563 0.72309 0.67094 0.0
C246 C 0.95527 0.67892 0.71549 0.0
C247 C 0.95645 0.68114 0.62551 0.0
O248 O 0.9675 0.69648 0.63803 0.0
O249 O 0.95339 0.66508 0.63398 0.0
O250 O 1.00271 0.72795 0.6727 0.0
O251 O 1.01004 0.70505 0.67062 0.0
H252 H 0.16576 0.33597 0.13646 0.0
H253 H 0.16251 0.34795 0.05464 0.0
H254 H 0.13817 0.36738 0.11367 0.0
H255 H 0.16954 0.31686 0.09869 0.0
H256 H 0.17395 0.32653 0.06635 0.0
H257 H 0.19366 0.33565 0.13581 0.0
H258 H 0.25188 0.36682 0.11029 0.0
H259 H 0.20639 0.34748 0.05337 0.0
C260 C 0.16197 0.34287 0.12131 0.0
C261 C 0.15211 0.35243 0.12829 0.0
C262 C 0.16645 0.34172 0.09486 0.0
C263 C 0.16004 0.34953 0.07518 0.0
C264 C 0.14994 0.35889 0.08204 0.0
C265 C 0.14648 0.36066 0.10855 0.0
C266 C 0.17622 0.33049 0.08758 0.0
C267 C 0.19744 0.34127 0.094 0.0
C268 C 0.20386 0.34246 0.12018 0.0
C269 C 0.22348 0.35204 0.12622 0.0
C270 C 0.2367 0.36013 0.10588 0.0
C271 C 0.23068 0.3583 0.07967 0.0
C272 C 0.21104 0.34904 0.07371 0.0
H273 H 0.69896 0.84172 0.13261 0.0
H274 H 0.68383 0.82725 0.05086 0.0
H275 H 0.66773 0.78301 0.1081 0.0
H276 H 0.7156 0.86548 0.09528 0.0
H277 H 0.70512 0.86007 0.06317 0.0
H278 H 0.6953 0.86741 0.13375 0.0
H279 H 0.66419 0.89541 0.11154 0.0
H280 H 0.68474 0.87257 0.05181 0.0
C281 C 0.69158 0.83119 0.11728 0.0
C282 C 0.6826 0.81171 0.12361 0.0
C283 C 0.69141 0.83703 0.09123 0.0
C284 C 0.68316 0.82302 0.07119 0.0
C285 C 0.67461 0.80354 0.07737 0.0
C286 C 0.67394 0.79806 0.10356 0.0
C287 C 0.70171 0.85811 0.08449 0.0
C288 C 0.69036 0.86775 0.09197 0.0
C289 C 0.68867 0.87152 0.11859 0.0
C290 C 0.67894 0.88116 0.12583 0.0
C291 C 0.67103 0.88725 0.10618 0.0
C292 C 0.67327 0.88443 0.07955 0.0
C293 C 0.68281 0.87454 0.07243 0.0
H294 H 0.18638 0.81586 0.14311 0.0
H295 H 0.1799 0.80999 0.05897 0.0
H296 H 0.1309 0.78108 0.10902 0.0
H297 H 0.214 0.82278 0.11225 0.0
H298 H 0.21123 0.825 0.07787 0.0
H299 H 0.20728 0.84615 0.14298 0.0
H300 H 0.23932 0.9035 0.11607 0.0
H301 H 0.22887 0.85679 0.06431 0.0
C302 C 0.17734 0.81094 0.12579 0.0
C303 C 0.15755 0.79913 0.12887 0.0
C304 C 0.18551 0.81579 0.1006 0.0
C305 C 0.17365 0.80737 0.07838 0.0
C306 C 0.15391 0.79466 0.08127 0.0
C307 C 0.14597 0.79127 0.10651 0.0
C308 C 0.20707 0.82762 0.09761 0.0
C309 C 0.21505 0.84892 0.10197 0.0
C310 C 0.21407 0.85587 0.12697 0.0
C311 C 0.22308 0.87553 0.1322 0.0
C312 C 0.23272 0.88836 0.11191 0.0
C313 C 0.23596 0.88202 0.08767 0.0
C314 C 0.22645 0.86214 0.08258 0.0
H315 H 0.38399 0.21112 0.87433 0.0
H316 H 0.38408 0.21601 0.9584 0.0
H317 H 0.35821 0.24071 0.91064 0.0
H318 H 0.40662 0.20664 0.90399 0.0
H319 H 0.40223 0.20359 0.93836 0.0
H320 H 0.37988 0.18146 0.87231 0.0
H321 H 0.36093 0.12475 0.8994 0.0
H322 H 0.3866 0.17193 0.95394 0.0
C323 C 0.3791 0.21506 0.89173 0.0
C324 C 0.37001 0.22598 0.88922 0.0
C325 C 0.38336 0.21052 0.91664 0.0
C326 C 0.37947 0.2181 0.93926 0.0
C327 C 0.37084 0.22946 0.93711 0.0
C328 C 0.36515 0.23225 0.91219 0.0
C329 C 0.395 0.20056 0.91881 0.0
C330 C 0.38338 0.17914 0.91407 0.0
C331 C 0.37723 0.17183 0.88846 0.0
C332 C 0.3687 0.15215 0.88321 0.0
C333 C 0.36632 0.13973 0.90383 0.0
C334 C 0.37295 0.14668 0.92933 0.0
C335 C 0.38111 0.16639 0.93443 0.0
H336 H 0.87568 0.18594 0.87729 0.0
H337 H 0.87651 0.20122 0.9589 0.0
H338 H 0.90244 0.24491 0.90053 0.0
H339 H 0.87028 0.16288 0.91507 0.0
H340 H 0.86565 0.16842 0.94724 0.0
H341 H 0.8469 0.15832 0.87742 0.0
H342 H 0.78831 0.13174 0.90139 0.0
H343 H 0.83306 0.1574 0.95946 0.0
C344 C 0.87905 0.19663 0.89243 0.0
C345 C 0.889 0.21604 0.88565 0.0
C346 C 0.87381 0.19104 0.91872 0.0
C347 C 0.8796 0.20524 0.93845 0.0
C348 C 0.88985 0.22467 0.9318 0.0
C349 C 0.89405 0.22988 0.90544 0.0
C350 C 0.86368 0.17007 0.92594 0.0
C351 C 0.84255 0.15997 0.91909 0.0
C352 C 0.83648 0.15492 0.89277 0.0
C353 C 0.81694 0.14506 0.88619 0.0
C354 C 0.80344 0.14003 0.90617 0.0
C355 C 0.80911 0.14421 0.93253 0.0
C356 C 0.82868 0.15434 0.93901 0.0
H357 H 0.85477 0.6544 0.86727 0.0
H358 H 0.86118 0.64734 0.94987 0.0
H359 H 0.91047 0.67424 0.90014 0.0
H360 H 0.82861 0.62717 0.8967 0.0
H361 H 0.83018 0.63124 0.93119 0.0
H362 H 0.82561 0.65062 0.86601 0.0
H363 H 0.78959 0.67052 0.89746 0.0
H364 H 0.81571 0.64815 0.94939 0.0
C365 C 0.86375 0.65723 0.88443 0.0
C366 C 0.88365 0.66614 0.88117 0.0
C367 C 0.85546 0.65091 0.90933 0.0
C368 C 0.86744 0.65315 0.93094 0.0
C369 C 0.88736 0.6616 0.92781 0.0
C370 C 0.89529 0.66859 0.90304 0.0
C371 C 0.83391 0.63866 0.91192 0.0
C372 C 0.82321 0.64951 0.90836 0.0
C373 C 0.81988 0.65411 0.88295 0.0
C374 C 0.80819 0.66218 0.87902 0.0
C375 C 0.79959 0.66547 0.90074 0.0
C376 C 0.80192 0.66019 0.92614 0.0
C377 C 0.8141 0.65259 0.92991 0.0
H378 H 0.83364 0.66627 0.46444 0.0
H379 H 0.83508 0.68203 0.38319 0.0
H380 H 0.80713 0.69852 0.4406 0.0
H381 H 0.84003 0.64919 0.42695 0.0
H382 H 0.84526 0.65954 0.39501 0.0
H383 H 0.86285 0.66806 0.46556 0.0
H384 H 0.92183 0.69914 0.44321 0.0
H385 H 0.878 0.68047 0.38387 0.0
C386 C 0.83064 0.67381 0.44932 0.0
C387 C 0.82032 0.683 0.4558 0.0
C388 C 0.83666 0.67391 0.42332 0.0
C389 C 0.8314 0.68263 0.4035 0.0
C390 C 0.82084 0.6916 0.40985 0.0
C391 C 0.81579 0.69208 0.43599 0.0
C392 C 0.84687 0.66305 0.41639 0.0
C393 C 0.86788 0.67392 0.42397 0.0
C394 C 0.87352 0.67492 0.4505 0.0
C395 C 0.89297 0.68432 0.45762 0.0
C396 C 0.90679 0.69257 0.43799 0.0
C397 C 0.90153 0.69104 0.41146 0.0
C398 C 0.88207 0.68185 0.40445 0.0
H399 H 0.37075 0.1722 0.45939 0.0
H400 H 0.35022 0.15842 0.37948 0.0
H401 H 0.33449 0.11363 0.43539 0.0
H402 H 0.38475 0.19618 0.42316 0.0
H403 H 0.37376 0.19086 0.39134 0.0
H404 H 0.36403 0.1968 0.46254 0.0
H405 H 0.33402 0.22639 0.44261 0.0
H406 H 0.35418 0.20444 0.38121 0.0
C407 C 0.36186 0.1617 0.44474 0.0
C408 C 0.35276 0.14212 0.45085 0.0
C409 C 0.36031 0.1678 0.41933 0.0
C410 C 0.35048 0.15401 0.3995 0.0
C411 C 0.34144 0.13449 0.4054 0.0
C412 C 0.34193 0.12878 0.43115 0.0
C413 C 0.3707 0.18888 0.41276 0.0
C414 C 0.35952 0.19852 0.42095 0.0
C415 C 0.3577 0.20159 0.4478 0.0
C416 C 0.3483 0.2114 0.45577 0.0
C417 C 0.34061 0.21811 0.43665 0.0
C418 C 0.34281 0.21583 0.40982 0.0
C419 C 0.35222 0.20596 0.40196 0.0
H420 H 0.85245 0.15296 0.47387 0.0
H421 H 0.84524 0.13819 0.39154 0.0
H422 H 0.7965 0.11629 0.44231 0.0
H423 H 0.8785 0.15194 0.44416 0.0
H424 H 0.87653 0.1539 0.40966 0.0
H425 H 0.8812 0.17866 0.47463 0.0
H426 H 0.91611 0.23417 0.4421 0.0
H427 H 0.89024 0.18488 0.39106 0.0
C428 C 0.8433 0.1465 0.45691 0.0
C429 C 0.82349 0.13541 0.46062 0.0
C430 C 0.85133 0.14818 0.43188 0.0
C431 C 0.83916 0.13799 0.41056 0.0
C432 C 0.81929 0.12648 0.41414 0.0
C433 C 0.81162 0.12586 0.43905 0.0
C434 C 0.87287 0.15774 0.42894 0.0
C435 C 0.88322 0.17932 0.43222 0.0
C436 C 0.88661 0.18763 0.45751 0.0
C437 C 0.89796 0.20747 0.46104 0.0
C438 C 0.90627 0.21904 0.43908 0.0
C439 C 0.90393 0.21106 0.41381 0.0
C440 C 0.89193 0.1912 0.41043 0.0
H441 H 0.05125 0.54363 0.20247 0.0
H442 H 0.0505 0.5493 0.28659 0.0
H443 H 0.03126 0.57896 0.23597 0.0
H444 H 0.07154 0.53618 0.23392 0.0
H445 H 0.06618 0.53366 0.26812 0.0
H446 H 0.04074 0.51327 0.20253 0.0
H447 H 1.01644 0.45561 0.22774 0.0
H448 H 0.0526 0.50169 0.28051 0.0
C449 C 0.04715 0.54854 0.21971 0.0
C450 C 0.03944 0.56059 0.21643 0.0
C451 C 0.05021 0.54345 0.24497 0.0
C452 C 0.04697 0.55204 0.2671 0.0
C453 C 0.04033 0.56507 0.26401 0.0
C454 C 0.0359 0.56859 0.23866 0.0
C455 C 0.05962 0.53131 0.24817 0.0
C456 C 0.04623 0.51005 0.24331 0.0
C457 C 0.0381 0.50337 0.21822 0.0
C458 C 0.02766 0.48377 0.21241 0.0
C459 C 0.0248 0.4707 0.23227 0.0
C460 C 0.03451 0.47679 0.25655 0.0
C461 C 0.04471 0.49659 0.2622 0.0
H462 H 0.54325 0.52348 0.21396 0.0
H463 H 0.54716 0.53846 0.29623 0.0
H464 H 0.57195 0.58234 0.23795 0.0
H465 H 0.53896 0.50019 0.25138 0.0
H466 H 0.53479 0.50556 0.2839 0.0
H467 H 0.51503 0.49551 0.21455 0.0
H468 H 0.45687 0.46949 0.2401 0.0
H469 H 0.50243 0.49476 0.29709 0.0
C470 C 0.54728 0.5341 0.22937 0.0
C471 C 0.55741 0.55354 0.22278 0.0
C472 C 0.54279 0.52842 0.25578 0.0
C473 C 0.54958 0.54256 0.27574 0.0
C474 C 0.56002 0.56202 0.26922 0.0
C475 C 0.5634 0.56731 0.24281 0.0
C476 C 0.53257 0.50739 0.26274 0.0
C477 C 0.51134 0.49742 0.25641 0.0
C478 C 0.50488 0.49233 0.23021 0.0
C479 C 0.48525 0.48262 0.22419 0.0
C480 C 0.47206 0.47773 0.24454 0.0
C481 C 0.4781 0.48177 0.27078 0.0
C482 C 0.49776 0.4918 0.27674 0.0
H483 H 0.51959 0.99312 0.20008 0.0
H484 H 0.53012 0.9789 0.27723 0.0
H485 H 0.57695 0.01589 0.22729 0.0
H486 H 0.49606 0.9612 0.22967 0.0
H487 H 0.49819 0.96613 0.26392 0.0
H488 H 0.48898 0.98146 0.19825 0.0
H489 H 0.45343 1.00152 0.2307 0.0
H490 H 0.48228 0.9818 0.28218 0.0
C491 C 0.52929 0.99516 0.21599 0.0
C492 C 0.54897 1.00549 0.21103 0.0
C493 C 0.52227 0.98641 0.24046 0.0
C494 C 0.53548 0.98724 0.25952 0.0
C495 C 0.55535 0.99732 0.2547 0.0
C496 C 0.56178 1.00761 0.23115 0.0
C497 C 0.50092 0.97302 0.24432 0.0
C498 C 0.48864 0.98227 0.24077 0.0
C499 C 0.48389 0.98551 0.21536 0.0
C500 C 0.4719 0.99326 0.21174 0.0
C501 C 0.46372 0.99678 0.2337 0.0
C502 C 0.46691 0.99222 0.2591 0.0
C503 C 0.47982 0.98545 0.26262 0.0
H504 H 0.49949 0.99911 0.79359 0.0
H505 H 0.49998 0.01412 0.71217 0.0
H506 H 0.47392 0.03231 0.77031 0.0
H507 H 0.50507 0.98143 0.75604 0.0
H508 H 0.5101 0.99156 0.72395 0.0
H509 H 0.52835 1.00051 0.79424 0.0
H510 H 0.58712 0.03135 0.77092 0.0
H511 H 0.5428 1.01215 0.71223 0.0
C512 C 0.49653 1.00668 0.77848 0.0
C513 C 0.48675 0.01637 0.78518 0.0
C514 C 0.50205 1.00636 0.75232 0.0
C515 C 0.49671 0.01506 0.73258 0.0
C516 C 0.48663 0.02449 0.73916 0.0
C517 C 0.48217 0.02547 0.76545 0.0
C518 C 0.51194 0.99521 0.74528 0.0
C519 C 0.53302 1.00594 0.75251 0.0
C520 C 0.53889 1.00718 0.77898 0.0
C521 C 0.55839 0.01668 0.78581 0.0
C522 C 0.57204 0.0247 0.76593 0.0
C523 C 0.56654 0.02291 0.73947 0.0
C524 C 0.54703 0.01367 0.73275 0.0
H525 H 0.03339 0.50434 0.79589 0.0
H526 H 0.02119 0.48979 0.71359 0.0
H527 H 1.00333 0.44561 0.77129 0.0
H528 H 0.05178 0.52788 0.75844 0.0
H529 H 0.04168 0.52265 0.72613 0.0
H530 H 0.03251 0.53163 0.79616 0.0
H531 H 1.001 0.55888 0.77243 0.0
H532 H 0.02068 0.53434 0.71396 0.0
C533 C 0.02664 0.4938 0.7804 0.0
C534 C 1.01756 0.47433 0.78679 0.0
C535 C 0.02739 0.49962 0.75411 0.0
C536 C 1.01986 0.48559 0.73402 0.0
C537 C 1.01115 0.46611 0.74031 0.0
C538 C 1.00965 0.46066 0.76663 0.0
C539 C 0.038 0.52071 0.74736 0.0
C540 C 0.02685 0.53064 0.75436 0.0
C541 C 0.02559 0.53523 0.78078 0.0
C542 C 1.01592 0.54504 0.78747 0.0
C543 C 1.00773 0.55055 0.76749 0.0
C544 C 1.00964 0.54702 0.74103 0.0
C545 C 1.01903 0.53689 0.73446 0.0
H546 H 0.5195 0.48309 0.81839 0.0
H547 H 0.50932 0.46772 0.73685 0.0
H548 H 0.46233 0.45372 0.78921 0.0
H549 H 0.54505 0.48429 0.78567 0.0
H550 H 0.54135 0.48604 0.75146 0.0
H551 H 0.54372 0.5105 0.81678 0.0
H552 H 0.57511 0.56644 0.78532 0.0
H553 H 0.56008 0.51746 0.7357 0.0
C554 C 0.50987 0.47794 0.80176 0.0
C555 C 0.49021 0.46887 0.80646 0.0
C556 C 0.51693 0.47942 0.77611 0.0
C557 C 0.50382 0.4687 0.75579 0.0
C558 C 0.48394 0.4581 0.76072 0.0
C559 C 0.47748 0.46037 0.7854 0.0
C560 C 0.53842 0.48968 0.77137 0.0
C561 C 0.54828 0.51133 0.7748 0.0
C562 C 0.54942 0.51942 0.7998 0.0
C563 C 0.55904 0.53924 0.80363 0.0
C564 C 0.5679 0.55114 0.78222 0.0
C565 C 0.56971 0.54364 0.75808 0.0
C566 C 0.55905 0.52362 0.75413 0.0
H567 H 0.71068 0.86615 0.54083 0.0
H568 H 0.72003 0.88224 0.62273 0.0
H569 H 0.69259 0.90383 0.57198 0.0
H570 H 0.73848 0.86764 0.57025 0.0
H571 H 0.73498 0.86598 0.60481 0.0
H572 H 0.71616 0.84101 0.54042 0.0
H573 H 0.68967 0.78528 0.5751 0.0
H574 H 0.71594 0.83533 0.62432 0.0
C575 C 0.70856 0.87312 0.55762 0.0
C576 C 0.69991 0.88431 0.55383 0.0
C577 C 0.71544 0.87183 0.58258 0.0
C578 C 0.71388 0.8823 0.60376 0.0
C579 C 0.70551 0.89379 0.60013 0.0
C580 C 0.69812 0.89422 0.57528 0.0
C581 C 0.72724 0.86209 0.5856 0.0
C582 C 0.7156 0.84053 0.58273 0.0
C583 C 0.7112 0.83199 0.55755 0.0
C584 C 0.70192 0.812 0.55445 0.0
C585 C 0.69681 0.80067 0.57711 0.0
C586 C 0.70252 0.80886 0.60226 0.0
C587 C 0.71137 0.82884 0.60501 0.0
H588 H 0.20833 0.85835 0.54835 0.0
H589 H 0.21135 0.87344 0.63046 0.0
H590 H 0.23639 0.91722 0.57207 0.0
H591 H 0.20443 0.83541 0.58653 0.0
H592 H 0.19913 0.84057 0.61848 0.0
H593 H 0.18117 0.83003 0.54819 0.0
H594 H 0.1223 0.80135 0.57099 0.0
H595 H 0.16625 0.82835 0.6299 0.0
C596 C 0.21205 0.86896 0.56369 0.0
C597 C 0.22214 0.88839 0.55704 0.0
C598 C 0.20731 0.8633 0.59006 0.0
C599 C 0.21388 0.87749 0.60997 0.0
C600 C 0.22431 0.89695 0.60339 0.0
C601 C 0.22788 0.9022 0.57698 0.0
C602 C 0.19737 0.84226 0.59713 0.0
C603 C 0.17628 0.8316 0.58973 0.0
C604 C 0.17056 0.82635 0.56331 0.0
C605 C 0.1511 0.81582 0.55635 0.0
C606 C 0.13732 0.81019 0.57607 0.0
C607 C 0.14266 0.81439 0.60253 0.0
C608 C 0.16213 0.82529 0.60937 0.0
H609 H 0.19034 0.32799 0.53581 0.0
H610 H 0.20295 0.31492 0.61245 0.0
H611 H 0.24835 0.3519 0.5606 0.0
H612 H 0.16741 0.29712 0.56602 0.0
H613 H 0.17067 0.3016 0.60039 0.0
H614 H 0.16031 0.31863 0.53676 0.0
H615 H 0.12581 0.33823 0.57365 0.0
H616 H 0.15512 0.31676 0.62107 0.0
C617 C 0.20044 0.33046 0.55135 0.0
C618 C 0.21998 0.34098 0.54556 0.0
C619 C 0.19409 0.32204 0.57617 0.0
C620 C 0.20781 0.32311 0.59455 0.0
C621 C 0.22752 0.33324 0.58873 0.0
C622 C 0.2333 0.3435 0.5651 0.0
C623 C 0.17286 0.30875 0.58105 0.0
C624 C 0.16077 0.31832 0.5793 0.0
C625 C 0.15567 0.32234 0.5546 0.0
C626 C 0.14379 0.33033 0.55261 0.0
C627 C 0.13608 0.33336 0.57547 0.0
C628 C 0.1396 0.32803 0.60017 0.0
C629 C 0.15242 0.32102 0.60208 0.0
H630 H 0.9875 0.40692 0.07847 0.0
H631 H 0.05088 0.49827 0.16986 0.0
H632 H 0.04731 0.44733 0.06635 0.0
H633 H 0.99503 0.45286 0.19214 0.0
H634 H 0.047 0.48274 0.12737 0.0
H635 H 0.98784 0.42587 0.11646 0.0
C636 C 1.00069 0.41977 0.08375 0.0
C637 C 1.01746 0.42544 0.06931 0.0
C638 C 0.03546 0.47628 0.14138 0.0
C639 C 1.01784 0.44728 0.11248 0.0
C640 C 0.03754 0.4853 0.16557 0.0
C641 C 0.0233 0.47681 0.18473 0.0
C642 C 1.01904 0.45856 0.13624 0.0
C643 C 1.00648 0.45977 0.17808 0.0
C644 C 1.00085 0.43059 0.10539 0.0
C645 C 0.03409 0.44227 0.07701 0.0
N646 N 1.0049 0.45108 0.15449 0.0
N647 N 0.03385 0.45256 0.09803 0.0
H648 H 0.59599 0.62303 0.08354 0.0
H649 H 0.57519 0.54132 0.1885 0.0
H650 H 0.62475 0.59009 0.08346 0.0
H651 H 0.55421 0.58084 0.19554 0.0
H652 H 0.59008 0.5561 0.14665 0.0
H653 H 0.57793 0.60541 0.12199 0.0
C654 C 0.59857 0.61214 0.09164 0.0
C655 C 0.61201 0.60813 0.08028 0.0
C656 C 0.58205 0.5614 0.15723 0.0
C657 C 0.59117 0.58771 0.12423 0.0
C658 C 0.57338 0.55283 0.18093 0.0
C659 C 0.56353 0.55994 0.19548 0.0
C660 C 0.58076 0.57711 0.14801 0.0
C661 C 0.56182 0.57506 0.18499 0.0
C662 C 0.58821 0.60204 0.11358 0.0
C663 C 0.61465 0.59378 0.09164 0.0
N664 N 0.57044 0.5832 0.16199 0.0
N665 N 0.60432 0.58408 0.11296 0.0
H666 H 0.41612 0.97233 0.06025 0.0
H667 H 0.4708 0.02439 0.19325 0.0
H668 H 0.43551 0.03164 0.07772 0.0
H669 H 0.45975 0.96836 0.16987 0.0
H670 H 0.45806 0.02741 0.15094 0.0
H671 H 0.43177 0.97051 0.10046 0.0
C672 C 0.42364 0.98498 0.07254 0.0
C673 C 0.42443 1.00216 0.0656 0.0
C674 C 0.45858 0.01452 0.15493 0.0
C675 C 0.44243 1.00015 0.1117 0.0
C676 C 0.46583 1.0128 0.17907 0.0
C677 C 0.4663 0.9961 0.18505 0.0
C678 C 0.45154 0.99935 0.13671 0.0
C679 C 0.4598 0.98155 0.16595 0.0
C680 C 0.43266 0.98394 0.09545 0.0
C681 C 0.43449 0.01809 0.08227 0.0
N682 N 0.45253 0.98344 0.14272 0.0
N683 N 0.44302 0.01667 0.10458 0.0
H684 H 0.4145 0.97823 0.92138 0.0
H685 H 0.48977 0.0461 0.81466 0.0
H686 H 0.44461 0.03985 0.92671 0.0
H687 H 0.46697 0.98514 0.81649 0.0
H688 H 0.47374 0.04416 0.85614 0.0
H689 H 0.43342 0.98042 0.88284 0.0
C690 C 0.42503 0.99223 0.91441 0.0
C691 C 0.4279 1.00889 0.92728 0.0
C692 C 0.4724 0.03122 0.84766 0.0
C693 C 0.44969 1.01147 0.8832 0.0
C694 C 0.48156 0.03234 0.82402 0.0
C695 C 0.47963 0.01575 0.81215 0.0
C696 C 0.46102 0.01335 0.85938 0.0
C697 C 0.46892 0.99828 0.82511 0.0
C698 C 0.43592 0.99345 0.89249 0.0
C699 C 0.44186 0.02662 0.91742 0.0
N700 N 0.45984 0.9975 0.84791 0.0
N701 N 0.45218 0.02744 0.89594 0.0
H702 H 0.98739 0.40579 0.92701 0.0
H703 H 0.0476 0.48715 0.8216 0.0
H704 H 0.04893 0.4408 0.92968 0.0
H705 H 0.9874 0.4464 0.8136 0.0
H706 H 0.04791 0.47292 0.86396 0.0
H707 H 0.98682 0.42256 0.88758 0.0
C708 C 1.0008 0.41697 0.91929 0.0
C709 C 1.01825 0.42181 0.93167 0.0
C710 C 0.03461 0.4672 0.85303 0.0
C711 C 1.01766 0.44124 0.88652 0.0
C712 C 0.03438 0.47544 0.82901 0.0
C713 C 1.01746 0.46788 0.81407 0.0
C714 C 1.01776 0.45135 0.86217 0.0
C715 C 1.00079 0.45254 0.82441 0.0
C716 C 1.00046 0.42658 0.89677 0.0
C717 C 0.03516 0.43649 0.92074 0.0
N718 N 1.00138 0.44473 0.84773 0.0
N719 N 0.03444 0.44569 0.8988 0.0
H720 H 0.59688 0.62064 0.93275 0.0
H721 H 0.57069 0.5275 0.84655 0.0
H722 H 0.61853 0.5823 0.94778 0.0
H723 H 0.55766 0.57074 0.82158 0.0
H724 H 0.58337 0.54483 0.8878 0.0
H725 H 0.57862 0.60054 0.89523 0.0
C726 C 0.59781 0.60803 0.92818 0.0
C727 C 0.60938 0.60324 0.94335 0.0
C728 C 0.57754 0.55044 0.87346 0.0
C729 C 0.58834 0.58009 0.90071 0.0
C730 C 0.57003 0.54039 0.85001 0.0
C731 C 0.56313 0.5477 0.83052 0.0
C732 C 0.57822 0.56798 0.87751 0.0
C733 C 0.56303 0.56471 0.83597 0.0
C734 C 0.58735 0.59655 0.90681 0.0
C735 C 0.60995 0.58667 0.93656 0.0
N736 N 0.57064 0.57438 0.85888 0.0
N737 N 0.59959 0.57572 0.91578 0.0
H738 H 0.05128 0.61369 0.92851 0.0
H739 H 0.98556 0.54199 0.81506 0.0
H740 H 0.98957 0.58455 0.92963 0.0
H741 H 0.04617 0.56313 0.82165 0.0
H742 H 0.98658 0.55692 0.85744 0.0
H743 H 0.04968 0.59529 0.8894 0.0
C744 C 0.03738 0.60346 0.92052 0.0
C745 C 0.02053 0.60075 0.93235 0.0
C746 C 0.99962 0.55812 0.8498 0.0
C747 C 1.01861 0.57956 0.88753 0.0
C748 C 0.99904 0.54958 0.82564 0.0
C749 C 1.01582 0.55138 0.81484 0.0
C750 C 1.01717 0.56874 0.86313 0.0
C751 C 0.03289 0.56128 0.82938 0.0
C752 C 0.03649 0.59287 0.89825 0.0
C753 C 1.00294 0.58716 0.92117 0.0
N754 N 0.03317 0.56978 0.85265 0.0
N755 N 1.00245 0.57715 0.89933 0.0
H756 H 0.41278 0.43488 0.93801 0.0
H757 H 0.50208 0.45591 0.84783 0.0
H758 H 0.44927 0.41072 0.95083 0.0
H759 H 0.46051 0.47231 0.82651 0.0
H760 H 0.48569 0.4438 0.88948 0.0
H761 H 0.43224 0.45217 0.90014 0.0
C762 C 0.42485 0.43318 0.93287 0.0
C763 C 0.42931 0.42121 0.94755 0.0
C764 C 0.48026 0.45025 0.87585 0.0
C765 C 0.45176 0.44115 0.90445 0.0
C766 C 0.48978 0.45741 0.85219 0.0
C767 C 0.48262 0.4651 0.83363 0.0
C768 C 0.46343 0.45073 0.88101 0.0
C769 C 0.46638 0.46632 0.84019 0.0
C770 C 0.43598 0.4431 0.91129 0.0
C771 C 0.44518 0.41965 0.94001 0.0
N772 N 0.45723 0.45906 0.86326 0.0
N773 N 0.45581 0.42949 0.91902 0.0
H774 H 0.62722 0.04853 0.92759 0.0
H775 H 0.54601 0.98696 0.82039 0.0
H776 H 0.59321 0.98695 0.92889 0.0
H777 H 0.5861 0.04724 0.81322 0.0
H778 H 0.56045 0.98716 0.86301 0.0
H779 H 0.61015 0.04867 0.88793 0.0
C780 C 0.6162 0.03502 0.91953 0.0
C781 C 0.61173 0.01769 0.93158 0.0
C782 C 0.56597 1.00038 0.85221 0.0
C783 C 0.59197 0.01778 0.88618 0.0
C784 C 0.55761 1.0003 0.82804 0.0
C785 C 0.56494 0.0171 0.81324 0.0
C786 C 0.5817 0.01739 0.86167 0.0
C787 C 0.58015 0.03394 0.8239 0.0
C788 C 0.60642 0.03512 0.89688 0.0
C789 C 0.59723 1.00065 0.92021 0.0
N790 N 0.58808 0.03364 0.84737 0.0
N791 N 0.58787 1.00112 0.89818 0.0
H792 H 0.62718 0.04809 0.08008 0.0
H793 H 0.53467 0.98349 0.16678 0.0
H794 H 0.58662 0.98862 0.06455 0.0
H795 H 0.58044 0.03834 0.19324 0.0
H796 H 0.55064 0.98822 0.12474 0.0
H797 H 0.60799 0.04716 0.11791 0.0
C798 C 0.61425 0.03486 0.08458 0.0
C799 C 0.60861 0.01835 0.06923 0.0
C800 C 0.55709 0.99937 0.13959 0.0
C801 C 0.58649 0.01731 0.11216 0.0
C802 C 0.54781 0.99681 0.16352 0.0
C803 C 0.55626 1.01049 0.18371 0.0
C804 C 0.57502 0.01571 0.13572 0.0
C805 C 0.57354 0.0273 0.17835 0.0
C806 C 0.6033 0.03437 0.10612 0.0
C807 C 0.59167 1.00165 0.07592 0.0
N808 N 0.58247 0.02935 0.15497 0.0
N809 N 0.58125 1.00157 0.09684 0.0
H810 H 0.99708 0.59462 0.08234 0.0
H811 H 0.06417 0.57251 0.17489 0.0
H812 H 0.05678 0.6151 0.06702 0.0
H813 H 1.00846 0.56222 0.19786 0.0
H814 H 0.06031 0.58475 0.13275 0.0
H815 H 0.99982 0.57974 0.12264 0.0
C816 C 1.01077 0.596 0.08743 0.0
C817 C 0.02674 0.60621 0.07129 0.0
C818 C 0.04889 0.57972 0.14695 0.0
C819 C 0.02992 0.58907 0.11731 0.0
C820 C 0.05101 0.57257 0.1709 0.0
C821 C 0.03661 0.56636 0.18988 0.0
C822 C 0.0322 0.58058 0.1419 0.0
C823 C 1.01997 0.56702 0.18382 0.0
C824 C 1.01231 0.5875 0.11045 0.0
C825 C 0.0441 0.60747 0.0789 0.0
N826 N 1.01823 0.57404 0.16039 0.0
N827 N 0.04521 0.59899 0.10132 0.0
H828 H 0.44499 0.4092 0.08772 0.0
H829 H 0.45816 0.48636 0.19685 0.0
H830 H 0.41346 0.43942 0.08733 0.0
H831 H 0.49527 0.46245 0.19087 0.0
H832 H 0.44223 0.46998 0.15597 0.0
H833 H 0.46359 0.42854 0.1254 0.0
C834 C 0.44189 0.41982 0.09561 0.0
C835 C 0.42755 0.42261 0.08435 0.0
C836 C 0.45401 0.46848 0.16337 0.0
C837 C 0.44895 0.44493 0.12742 0.0
C838 C 0.46313 0.47787 0.18664 0.0
C839 C 0.47801 0.4757 0.19722 0.0
C840 C 0.45964 0.45662 0.15071 0.0
C841 C 0.48394 0.46459 0.18325 0.0
C842 C 0.45263 0.43096 0.11703 0.0
C843 C 0.42432 0.43671 0.09536 0.0
N844 N 0.47459 0.45527 0.16085 0.0
N845 N 0.43489 0.44729 0.1163 0.0
H846 H 0.71489 0.78937 0.39162 0.0
H847 H 0.70331 0.77948 0.54158 0.0
H848 H 0.67398 0.73466 0.42354 0.0
H849 H 0.69588 0.82395 0.50599 0.0
H850 H 0.69918 0.76468 0.4987 0.0
H851 H 0.71494 0.80463 0.43366 0.0
C852 C 0.70594 0.78061 0.40748 0.0
C853 C 0.69446 0.76074 0.40428 0.0
C854 C 0.69832 0.7776 0.50044 0.0
C855 C 0.69475 0.77797 0.45204 0.0
C856 C 0.70044 0.78605 0.52503 0.0
C857 C 0.69947 0.80291 0.52791 0.0
C858 C 0.69598 0.78635 0.47824 0.0
C859 C 0.69685 0.81108 0.50497 0.0
C860 C 0.70587 0.78932 0.43124 0.0
C861 C 0.683 0.75001 0.42528 0.0
N862 N 0.69541 0.80283 0.48101 0.0
N863 N 0.6837 0.75872 0.44851 0.0
H864 H 0.28983 0.92106 0.41604 0.0
H865 H 0.2188 0.91535 0.52916 0.0
H866 H 0.26165 0.95456 0.41647 0.0
H867 H 0.24049 0.87634 0.5235 0.0
H868 H 0.23386 0.92938 0.48728 0.0
H869 H 0.27203 0.90453 0.45535 0.0
C870 C 0.27998 0.92502 0.42445 0.0
C871 C 0.2773 0.9393 0.41294 0.0
C872 C 0.23518 0.91762 0.49499 0.0
C873 C 0.25677 0.92029 0.45786 0.0
C874 C 0.22654 0.90959 0.51885 0.0
C875 C 0.22845 0.89471 0.52978 0.0
C876 C 0.24601 0.91088 0.48205 0.0
C877 C 0.23856 0.8877 0.51563 0.0
C878 C 0.26973 0.91548 0.44681 0.0
C879 C 0.26424 0.9437 0.42464 0.0
N880 N 0.24715 0.89599 0.49261 0.0
N881 N 0.25452 0.93427 0.44646 0.0
H882 H 0.08402 0.31184 0.40501 0.0
H883 H 0.14243 0.36188 0.53662 0.0
H884 H 0.10487 0.37123 0.42393 0.0
H885 H 0.13044 0.30616 0.51004 0.0
H886 H 0.12853 0.36563 0.49576 0.0
H887 H 0.10024 0.30931 0.44406 0.0
C888 C 0.09194 0.32435 0.41742 0.0
C889 C 0.09303 0.34177 0.41117 0.0
C890 C 0.12911 0.35266 0.49874 0.0
C891 C 0.11174 0.33896 0.45596 0.0
C892 C 0.13703 0.35052 0.52203 0.0
C893 C 0.13757 0.33369 0.52668 0.0
C894 C 0.12148 0.33776 0.48007 0.0
C895 C 0.13047 0.31944 0.50712 0.0
C896 C 0.1013 0.32291 0.43966 0.0
C897 C 0.10361 0.35751 0.42797 0.0
N898 N 0.12256 0.32173 0.48477 0.0
N899 N 0.11251 0.35571 0.44963 0.0
H900 H 0.11496 0.38094 0.27233 0.0
H901 H 0.13497 0.3222 0.1619 0.0
H902 H 0.08554 0.31931 0.26795 0.0
H903 H 0.15465 0.38249 0.15664 0.0
H904 H 0.12076 0.32155 0.20456 0.0
H905 H 0.13303 0.3823 0.23313 0.0
C906 C 0.1123 0.3677 0.26316 0.0
C907 C 0.09861 0.34998 0.27338 0.0
C908 C 0.12833 0.33496 0.19418 0.0
C909 C 0.11937 0.35146 0.22865 0.0
C910 C 0.13661 0.33537 0.16997 0.0
C911 C 0.14592 0.35241 0.1557 0.0
C912 C 0.12946 0.35173 0.20423 0.0
C913 C 0.14741 0.36902 0.16692 0.0
C914 C 0.12263 0.36849 0.24079 0.0
C915 C 0.09583 0.33329 0.26068 0.0
N916 N 0.13918 0.36825 0.19046 0.0
N917 N 0.10612 0.33444 0.23901 0.0
H918 H 0.72234 0.77977 0.26155 0.0
H919 H 0.65331 0.78407 0.15199 0.0
H920 H 0.66081 0.74468 0.26286 0.0
H921 H 0.71389 0.82409 0.15599 0.0
H922 H 0.65569 0.77006 0.19331 0.0
H923 H 0.7196 0.79631 0.22313 0.0
C924 C 0.70825 0.77548 0.25374 0.0
C925 C 0.69178 0.76073 0.26545 0.0
C926 C 0.66845 0.78203 0.18535 0.0
C927 C 0.68855 0.77974 0.22147 0.0
C928 C 0.66708 0.79004 0.16179 0.0
C929 C 0.68344 0.80521 0.15055 0.0
C930 C 0.68636 0.78909 0.19768 0.0
C931 C 0.70091 0.81249 0.1641 0.0
C932 C 0.7067 0.78503 0.23186 0.0
C933 C 0.67391 0.75592 0.25449 0.0
N934 N 0.70196 0.80423 0.18683 0.0
N935 N 0.67278 0.76535 0.23311 0.0
H936 H 0.28157 0.91225 0.27919 0.0
H937 H 0.22064 0.90601 0.15212 0.0
H938 H 0.26066 0.95135 0.26551 0.0
H939 H 0.23373 0.86232 0.17447 0.0
H940 H 0.2333 0.92194 0.1946 0.0
H941 H 0.26301 0.89329 0.24142 0.0
C942 C 0.2731 0.91688 0.26822 0.0
C943 C 0.2728 0.93351 0.27546 0.0
C944 C 0.23307 0.90868 0.19037 0.0
C945 C 0.25138 0.91175 0.2321 0.0
C946 C 0.2258 0.89956 0.16618 0.0
C947 C 0.2262 0.88285 0.15967 0.0
C948 C 0.24098 0.90113 0.20802 0.0
C949 C 0.23296 0.87506 0.17867 0.0
C950 C 0.26238 0.90596 0.24672 0.0
C951 C 0.26139 0.93868 0.26059 0.0
N952 N 0.24032 0.8844 0.20179 0.0
N953 N 0.25124 0.92791 0.23949 0.0
H954 H 0.64803 0.91412 0.27175 0.0
H955 H 0.70851 0.89706 0.16137 0.0
H956 H 0.70973 0.94274 0.27121 0.0
H957 H 0.64843 0.87822 0.15312 0.0
H958 H 0.70839 0.90984 0.20503 0.0
H959 H 0.64725 0.89737 0.23114 0.0
C960 C 0.66141 0.91687 0.26314 0.0
C961 C 0.67898 0.92996 0.27484 0.0
C962 C 0.69519 0.90277 0.19375 0.0
C963 C 0.67816 0.91072 0.2285 0.0
C964 C 0.69521 0.8953 0.16895 0.0
C965 C 0.67847 0.88663 0.15358 0.0
C966 C 0.67829 0.90148 0.2033 0.0
C967 C 0.6617 0.88498 0.16424 0.0
C968 C 0.66095 0.9073 0.23996 0.0
C969 C 0.69586 0.9329 0.26281 0.0
N970 N 0.66205 0.89242 0.1884 0.0
N971 N 0.69502 0.92336 0.24032 0.0
H972 H 0.08107 0.76506 0.26203 0.0
H973 H 0.17025 0.7871 0.17068 0.0
H974 H 0.12038 0.74471 0.27816 0.0
H975 H 0.12502 0.7977 0.14702 0.0
H976 H 0.15415 0.77489 0.21265 0.0
H977 H 0.09868 0.77997 0.22188 0.0
C978 C 0.09339 0.76371 0.25715 0.0
C979 C 0.09919 0.75353 0.27348 0.0
C980 C 0.14779 0.77998 0.19834 0.0
C981 C 0.1195 0.77071 0.22764 0.0
C982 C 0.15708 0.78712 0.17449 0.0
C983 C 0.14894 0.7934 0.15534 0.0
C984 C 0.13029 0.7792 0.20315 0.0
C985 C 0.13168 0.79283 0.16117 0.0
C986 C 0.10344 0.77223 0.23422 0.0
C987 C 0.1153 0.75231 0.26614 0.0
N988 N 0.12291 0.78582 0.18452 0.0
N989 N 0.1249 0.76081 0.2438 0.0
H990 H 0.26174 0.3192 0.26485 0.0
H991 H 0.25092 0.38278 0.15346 0.0
H992 H 0.29513 0.38082 0.26308 0.0
H993 H 0.21298 0.322 0.15972 0.0
H994 H 0.26658 0.38238 0.19449 0.0
H995 H 0.24358 0.31981 0.22661 0.0
C996 C 0.26534 0.33286 0.25637 0.0
C997 C 0.28006 0.34999 0.2672 0.0
C998 C 0.2547 0.36914 0.18711 0.0
C999 C 0.25918 0.35077 0.2235 0.0
C1000 C 0.24573 0.36939 0.16374 0.0
C1001 C 0.23068 0.3524 0.1532 0.0
C1002 C 0.24874 0.35172 0.19995 0.0
C1003 C 0.22445 0.33544 0.1673 0.0
C1004 C 0.25487 0.33319 0.23462 0.0
C1005 C 0.28396 0.36725 0.25542 0.0
N1006 N 0.23365 0.33548 0.18982 0.0
N1007 N 0.27362 0.36718 0.23422 0.0
H1008 H 0.29674 0.38163 0.41347 0.0
H1009 H 0.20521 0.31807 0.50224 0.0
H1010 H 0.25682 0.32166 0.40039 0.0
H1011 H 0.25055 0.37386 0.52626 0.0
H1012 H 0.22078 0.32209 0.46 0.0
H1013 H 0.27755 0.38128 0.4509 0.0
C1014 C 0.28396 0.3684 0.41844 0.0
C1015 C 0.27849 0.3516 0.40389 0.0
C1016 C 0.22721 0.3336 0.47434 0.0
C1017 C 0.25636 0.35121 0.44637 0.0
C1018 C 0.21815 0.33144 0.49836 0.0
C1019 C 0.22665 0.3456 0.51795 0.0
C1020 C 0.24495 0.35002 0.4698 0.0
C1021 C 0.24364 0.36248 0.51184 0.0
C1022 C 0.273 0.36824 0.43974 0.0
C1023 C 0.26173 0.33491 0.41115 0.0
N1024 N 0.25237 0.36413 0.48841 0.0
N1025 N 0.25129 0.33516 0.43184 0.0
H1026 H 0.65528 0.92069 0.42508 0.0
H1027 H 0.72206 0.89352 0.50988 0.0
H1028 H 0.71437 0.9398 0.40738 0.0
H1029 H 0.66785 0.88493 0.53727 0.0
H1030 H 0.71706 0.90568 0.46847 0.0
H1031 H 0.6577 0.90362 0.46324 0.0
C1032 C 0.66876 0.92133 0.4292 0.0
C1033 C 0.68468 0.93182 0.41307 0.0
C1034 C 0.70615 0.90094 0.48342 0.0
C1035 C 0.68746 0.91211 0.45648 0.0
C1036 C 0.70889 0.89377 0.50694 0.0
C1037 C 0.69537 0.88826 0.52707 0.0
C1038 C 0.68975 0.90258 0.47996 0.0
C1039 C 0.6787 0.88919 0.52232 0.0
C1040 C 0.67011 0.91154 0.45096 0.0
C1041 C 0.70176 0.93204 0.41934 0.0
N1042 N 0.67641 0.89636 0.49932 0.0
N1043 N 0.70268 0.92233 0.44051 0.0
H1044 H 0.08321 0.77477 0.41403 0.0
H1045 H 0.16408 0.79805 0.52315 0.0
H1046 H 0.11667 0.74659 0.41701 0.0
H1047 H 0.12327 0.81756 0.52784 0.0
H1048 H 0.14994 0.78262 0.48085 0.0
H1049 H 0.10032 0.79349 0.4529 0.0
C1050 C 0.09414 0.77249 0.42285 0.0
C1051 C 0.09841 0.75898 0.41228 0.0
C1052 C 0.1442 0.79043 0.49103 0.0
C1053 C 0.11821 0.78054 0.45675 0.0
C1054 C 0.15239 0.7994 0.51501 0.0
C1055 C 0.14477 0.80902 0.52902 0.0
C1056 C 0.12835 0.79121 0.48096 0.0
C1057 C 0.12945 0.81013 0.51776 0.0
C1058 C 0.10393 0.78322 0.44505 0.0
C1059 C 0.11279 0.75673 0.42456 0.0
N1060 N 0.12169 0.80126 0.49447 0.0
N1061 N 0.12217 0.76741 0.44612 0.0
H1062 H 0.39018 0.11887 0.73312 0.0
H1063 H 0.33702 0.12024 0.86381 0.0
H1064 H 0.3305 0.0787 0.74657 0.0
H1065 H 0.39212 0.16644 0.84068 0.0
H1066 H 0.3337 0.10504 0.82079 0.0
H1067 H 0.39084 0.13641 0.77254 0.0
C1068 C 0.37719 0.1137 0.74438 0.0
C1069 C 0.36028 0.09718 0.73656 0.0
C1070 C 0.34638 0.11865 0.82498 0.0
C1071 C 0.36095 0.11733 0.7819 0.0
C1072 C 0.34827 0.12732 0.84949 0.0
C1073 C 0.36488 0.1446 0.85584 0.0
C1074 C 0.36134 0.12719 0.80681 0.0
C1075 C 0.379 0.15322 0.83656 0.0
C1076 C 0.37755 0.12382 0.76684 0.0
C1077 C 0.34386 0.09131 0.75188 0.0
N1078 N 0.37701 0.1443 0.81307 0.0
N1079 N 0.34464 0.1013 0.77394 0.0
H1080 H 0.92931 0.28407 0.74512 0.0
H1081 H 0.90763 0.20379 0.85291 0.0
H1082 H 0.95798 0.25107 0.74752 0.0
H1083 H 0.88622 0.24309 0.85706 0.0
H1084 H 0.92295 0.21805 0.81106 0.0
H1085 H 0.91082 0.26685 0.78353 0.0
C1086 C 0.93176 0.27323 0.75373 0.0
C1087 C 0.94532 0.26911 0.7431 0.0
C1088 C 0.91475 0.22344 0.82101 0.0
C1089 C 0.92401 0.24918 0.78706 0.0
C1090 C 0.90585 0.21516 0.84474 0.0
C1091 C 0.89573 0.22234 0.85848 0.0
C1092 C 0.91343 0.23892 0.81095 0.0
C1093 C 0.89406 0.23727 0.84719 0.0
C1094 C 0.92115 0.26337 0.77566 0.0
C1095 C 0.94778 0.25483 0.75511 0.0
N1096 N 0.9029 0.24512 0.82418 0.0
N1097 N 0.93723 0.24539 0.77642 0.0
H1098 H 0.7502 0.63835 0.72925 0.0
H1099 H 0.80674 0.69306 0.85995 0.0
H1100 H 0.76793 0.6974 0.74586 0.0
H1101 H 0.7965 0.63715 0.83743 0.0
H1102 H 0.79323 0.69527 0.81782 0.0
H1103 H 0.76724 0.63772 0.76871 0.0
C1104 C 0.75764 0.65118 0.7412 0.0
C1105 C 0.75755 0.66793 0.73425 0.0
C1106 C 0.79414 0.68261 0.82194 0.0
C1107 C 0.77716 0.66731 0.77947 0.0
C1108 C 0.80186 0.68136 0.84596 0.0
C1109 C 0.80272 0.6649 0.85217 0.0
C1110 C 0.78702 0.66719 0.80411 0.0
C1111 C 0.79627 0.65018 0.83333 0.0
C1112 C 0.76746 0.65084 0.76367 0.0
C1113 C 0.76756 0.68415 0.75044 0.0
N1114 N 0.78852 0.65159 0.81026 0.0
N1115 N 0.77688 0.68341 0.77234 0.0
H1116 H 0.77467 0.70598 0.59581 0.0
H1117 H 0.80137 0.6514 0.48682 0.0
H1118 H 0.74806 0.64454 0.59067 0.0
H1119 H 0.82115 0.71183 0.48517 0.0
H1120 H 0.78468 0.64902 0.52794 0.0
H1121 H 0.79406 0.70869 0.55763 0.0
C1122 C 0.77284 0.69305 0.58662 0.0
C1123 C 0.75962 0.67499 0.59644 0.0
C1124 C 0.7928 0.66283 0.51869 0.0
C1125 C 0.78197 0.67802 0.5528 0.0
C1126 C 0.80249 0.66422 0.49539 0.0
C1127 C 0.81259 0.68182 0.48255 0.0
C1128 C 0.79328 0.67918 0.52926 0.0
C1129 C 0.81336 0.69795 0.49432 0.0
C1130 C 0.78396 0.69461 0.56484 0.0
C1131 C 0.75796 0.65875 0.58372 0.0
N1132 N 0.80376 0.69622 0.51693 0.0
N1133 N 0.76902 0.66065 0.5626 0.0
H1134 H 0.33483 0.06802 0.58094 0.0
H1135 H 0.35709 0.15875 0.50019 0.0
H1136 H 0.38225 0.12185 0.60718 0.0
H1137 H 0.35471 0.10978 0.46157 0.0
H1138 H 0.35963 0.14573 0.5427 0.0
H1139 H 0.33403 0.08313 0.5395 0.0
C1140 C 0.34498 0.08303 0.57801 0.0
C1141 C 0.35873 0.0937 0.5973 0.0
C1142 C 0.35849 0.13796 0.52474 0.0
C1143 C 0.3575 0.11105 0.5506 0.0
C1144 C 0.35714 0.14537 0.50047 0.0
C1145 C 0.35523 0.13521 0.47703 0.0
C1146 C 0.35747 0.12013 0.52554 0.0
C1147 C 0.3553 0.11784 0.47892 0.0
C1148 C 0.34453 0.09159 0.55446 0.0
C1149 C 0.37158 0.11313 0.59259 0.0
N1150 N 0.35606 0.11073 0.5027 0.0
N1151 N 0.37055 0.12129 0.56973 0.0
H1152 H 0.95737 0.24578 0.60927 0.0
H1153 H 0.89852 0.23965 0.47943 0.0
H1154 H 0.93594 0.28427 0.59405 0.0
H1155 H 0.91056 0.19547 0.50288 0.0
H1156 H 0.912 0.25626 0.52124 0.0
H1157 H 0.94071 0.22752 0.56993 0.0
C1158 C 0.94921 0.25044 0.59763 0.0
C1159 C 0.94813 0.26665 0.60498 0.0
C1160 C 0.91149 0.24282 0.51738 0.0
C1161 C 0.92892 0.2457 0.55984 0.0
C1162 C 0.90379 0.23335 0.49356 0.0
C1163 C 0.90342 0.21617 0.48771 0.0
C1164 C 0.91911 0.2352 0.53537 0.0
C1165 C 0.91038 0.20857 0.5067 0.0
C1166 C 0.93959 0.23993 0.57522 0.0
C1167 C 0.93721 0.2719 0.58915 0.0
N1168 N 0.91811 0.21824 0.52955 0.0
N1169 N 0.9281 0.26151 0.56727 0.0
H1170 H 0.32192 0.24913 0.60107 0.0
H1171 H 0.37818 0.22614 0.49077 0.0
H1172 H 0.3834 0.27519 0.59844 0.0
H1173 H 0.31849 0.2093 0.48402 0.0
H1174 H 0.3792 0.2396 0.53428 0.0
H1175 H 0.31948 0.23056 0.56159 0.0
C1176 C 0.33489 0.25093 0.59225 0.0
C1177 C 0.3529 0.26386 0.60298 0.0
C1178 C 0.36583 0.23278 0.5234 0.0
C1179 C 0.35019 0.24253 0.558 0.0
C1180 C 0.36519 0.22491 0.49869 0.0
C1181 C 0.34825 0.21669 0.48372 0.0
C1182 C 0.3494 0.23239 0.53325 0.0
C1183 C 0.3319 0.21573 0.49482 0.0
C1184 C 0.33349 0.24031 0.56973 0.0
C1185 C 0.36922 0.26553 0.59075 0.0
N1186 N 0.33291 0.22362 0.51885 0.0
N1187 N 0.36747 0.25502 0.56893 0.0
H1188 H 0.78658 0.07915 0.60885 0.0
H1189 H 0.79134 0.13525 0.47805 0.0
H1190 H 0.74738 0.09962 0.59256 0.0
H1191 H 0.83642 0.12499 0.50363 0.0
H1192 H 0.77512 0.12283 0.51998 0.0
H1193 H 0.80482 0.09579 0.57006 0.0
C1194 C 0.78176 0.08711 0.59709 0.0
C1195 C 0.76535 0.0879 0.60394 0.0
C1196 C 0.78869 0.12355 0.51657 0.0
C1197 C 0.78627 0.10708 0.55943 0.0
C1198 C 0.79795 0.13066 0.49269 0.0
C1199 C 0.81523 0.13114 0.48738 0.0
C1200 C 0.79666 0.11664 0.53511 0.0
C1201 C 0.82322 0.12506 0.507 0.0
C1202 C 0.79227 0.09671 0.575 0.0
C1203 C 0.75991 0.09857 0.588 0.0
N1204 N 0.81376 0.11785 0.52986 0.0
N1205 N 0.77029 0.10766 0.5664 0.0
H1206 H 0.9615 0.71293 0.5994 0.0
H1207 H 0.88042 0.65389 0.49092 0.0
H1208 H 0.92824 0.65129 0.59706 0.0
H1209 H 0.92041 0.71434 0.48617 0.0
H1210 H 0.89479 0.65313 0.53315 0.0
H1211 H 0.94416 0.71404 0.56061 0.0
C1212 C 0.95058 0.69961 0.59073 0.0
C1213 C 0.94642 0.68198 0.60148 0.0
C1214 C 0.9003 0.66659 0.52298 0.0
C1215 C 0.92634 0.68318 0.55711 0.0
C1216 C 0.89196 0.66706 0.49904 0.0
C1217 C 0.8993 0.68419 0.48502 0.0
C1218 C 0.91601 0.68339 0.53299 0.0
C1219 C 0.91445 0.70081 0.49626 0.0
C1220 C 0.94065 0.70027 0.56859 0.0
C1221 C 0.93204 0.66521 0.58938 0.0
N1222 N 0.92236 0.69998 0.51949 0.0
N1223 N 0.92252 0.66623 0.56787 0.0
H1224 H 0.92309 0.64767 0.73374 0.0
H1225 H 0.91589 0.69832 0.86463 0.0
H1226 H 0.96176 0.70731 0.75119 0.0
H1227 H 0.87158 0.6429 0.8377 0.0
H1228 H 0.93283 0.70235 0.82321 0.0
H1229 H 0.90434 0.64581 0.77214 0.0
C1230 C 0.9277 0.66039 0.74569 0.0
C1231 C 0.94412 0.67767 0.73923 0.0
C1232 C 0.91927 0.68943 0.82621 0.0
C1233 C 0.92255 0.67561 0.78337 0.0
C1234 C 0.90959 0.68714 0.84981 0.0
C1235 C 0.89231 0.67025 0.85461 0.0
C1236 C 0.91174 0.67461 0.80742 0.0
C1237 C 0.88476 0.65623 0.83474 0.0
C1238 C 0.91688 0.65933 0.76756 0.0
C1239 C 0.94925 0.69368 0.75542 0.0
N1240 N 0.89463 0.65863 0.81217 0.0
N1241 N 0.93856 0.69224 0.77683 0.0
H1242 H 0.34141 0.27833 0.76222 0.0
H1243 H 0.36302 0.20767 0.84075 0.0
H1244 H 0.37917 0.26096 0.72793 0.0
H1245 H 0.37177 0.26006 0.87699 0.0
H1246 H 0.36024 0.22001 0.79792 0.0
H1247 H 0.34301 0.26404 0.80403 0.0
C1248 C 0.3499 0.27139 0.76348 0.0
C1249 C 0.36032 0.27093 0.7418 0.0
C1250 C 0.3626 0.22857 0.81548 0.0
C1251 C 0.3617 0.2542 0.78895 0.0
C1252 C 0.3643 0.22165 0.83992 0.0
C1253 C 0.36742 0.23264 0.86291 0.0
C1254 C 0.36351 0.24632 0.81413 0.0
C1255 C 0.36866 0.25059 0.8603 0.0
C1256 C 0.35081 0.2633 0.78723 0.0
C1257 C 0.37113 0.26177 0.74437 0.0
N1258 N 0.3665 0.25675 0.83646 0.0
N1259 N 0.37144 0.25359 0.76754 0.0
H1260 H 0.74787 0.1058 0.74464 0.0
H1261 H 0.82897 0.12683 0.85234 0.0
H1262 H 0.78089 0.07712 0.74581 0.0
H1263 H 0.78924 0.14763 0.85848 0.0
H1264 H 0.81437 0.11185 0.81007 0.0
H1265 H 0.76521 0.12394 0.78377 0.0
C1266 C 0.75874 0.10328 0.75313 0.0
C1267 C 0.76284 0.08982 0.74196 0.0
C1268 C 0.80895 0.11983 0.82056 0.0
C1269 C 0.7829 0.11071 0.78668 0.0
C1270 C 0.81741 0.12854 0.84454 0.0
C1271 C 0.81023 0.1384 0.85894 0.0
C1272 C 0.79327 0.12108 0.8109 0.0
C1273 C 0.79506 0.13998 0.84809 0.0
C1274 C 0.76866 0.11368 0.77546 0.0
C1275 C 0.77714 0.08724 0.75382 0.0
N1276 N 0.78703 0.13133 0.8248 0.0
N1277 N 0.78666 0.0976 0.77551 0.0
H1278 H 0.05529 0.36005 0.01033 0.0
H1279 H 0.15807 0.3952 0.07192 0.0
H1280 H 0.09928 0.41943 0.01468 0.0
H1281 H 0.12025 0.33663 0.04909 0.0
H1282 H 0.13766 0.40454 0.04803 0.0
H1283 H 0.0792 0.35103 0.02206 0.0
C1284 C 0.06999 0.37118 0.01351 0.0
C1285 C 0.07523 0.39054 0.01176 0.0
C1286 C 0.134 0.38969 0.04767 0.0
C1287 C 0.10264 0.38032 0.02532 0.0
C1288 C 0.14575 0.38442 0.06112 0.0
C1289 C 0.1409 0.36519 0.06214 0.0
C1290 C 0.11699 0.37554 0.03573 0.0
C1291 C 0.12457 0.35165 0.04838 0.0
C1292 C 0.08365 0.36603 0.02012 0.0
C1293 C 0.09452 0.40433 0.01597 0.0
N1294 N 0.113 0.35702 0.03609 0.0
N1295 N 0.10744 0.39897 0.02283 0.0
H1296 H 0.67405 0.70752 0.01088 0.0
H1297 H 0.63819 0.77578 0.06602 0.0
H1298 H 0.61443 0.69129 0.01468 0.0
H1299 H 0.69681 0.79624 0.04485 0.0
H1300 H 0.62886 0.74574 0.04277 0.0
H1301 H 0.6827 0.74076 0.01947 0.0
C1302 C 0.66278 0.71096 0.01323 0.0
C1303 C 0.64349 0.69654 0.01237 0.0
C1304 C 0.64371 0.75695 0.04255 0.0
C1305 C 0.65327 0.73453 0.02234 0.0
C1306 C 0.64897 0.77414 0.05559 0.0
C1307 C 0.66821 0.78848 0.05699 0.0
C1308 C 0.65791 0.7539 0.03147 0.0
C1309 C 0.68177 0.78556 0.04381 0.0
C1310 C 0.66772 0.72996 0.01806 0.0
C1311 C 0.62949 0.70187 0.01541 0.0
N1312 N 0.67642 0.76845 0.032 0.0
N1313 N 0.63466 0.72036 0.02058 0.0
H1314 H 0.33219 0.93093 0.98479 0.0
H1315 H 0.26833 0.91586 0.10157 0.0
H1316 H 0.33372 0.97957 0.02272 0.0
H1317 H 0.24024 0.88027 0.03334 0.0
H1318 H 0.29387 0.9379 0.074 0.0
H1319 H 0.29987 0.91044 0.0021 0.0
C1320 C 0.32559 0.93736 -0.00371 0.0
C1321 C 0.33572 0.95694 0.0026 0.0
C1322 C 0.28194 0.92542 0.065 0.0
C1323 C 0.29913 0.93362 0.02267 0.0
C1324 C 0.26701 0.91274 0.08073 0.0
C1325 C 0.25141 0.89607 0.06998 0.0
C1326 C 0.28201 0.92126 0.03835 0.0
C1327 C 0.25182 0.89273 0.0428 0.0
C1328 C 0.30715 0.92568 0.00601 0.0
C1329 C 0.32647 0.96455 0.01748 0.0
N1330 N 0.26705 0.90505 0.02797 0.0
N1331 N 0.30888 0.95278 0.02756 0.0
H1332 H 0.36304 0.04249 0.98569 0.0
H1333 H 0.40323 0.1536 0.96119 0.0
H1334 H 0.42094 0.08675 0.00285 0.0
H1335 H 0.34581 0.1097 0.94096 0.0
H1336 H 0.40788 0.12986 0.98446 0.0
H1337 H 0.3547 0.06717 0.97635 0.0
C1338 C 0.37394 0.05738 0.98781 0.0
C1339 C 0.39278 0.06255 -0.00527 0.0
C1340 C 0.39414 0.12545 0.97532 0.0
C1341 C 0.38336 0.09087 0.98402 0.0
C1342 C 0.39139 0.13908 0.96227 0.0
C1343 C 0.37418 0.13361 0.9488 0.0
C1344 C 0.37961 0.10616 0.9748 0.0
C1345 C 0.35944 0.11448 0.95067 0.0
C1346 C 0.36917 0.07148 0.98247 0.0
C1347 C 0.40629 0.08208 -0.00271 0.0
N1348 N 0.3626 0.1014 0.96303 0.0
N1349 N 0.40136 0.0955 -0.0083 0.0
H1350 H 0.93744 0.33765 -0.00508 0.0
H1351 H 0.91845 0.23205 0.96665 0.0
H1352 H 0.98138 0.3222 0.00017 0.0
H1353 H 0.88141 0.25287 0.94051 0.0
H1354 H 0.93835 0.26246 -0.00996 0.0
H1355 H 0.91391 0.30432 0.98561 0.0
C1356 C 0.94214 0.32723 -0.00561 0.0
C1357 C 0.9615 0.3328 -0.00201 0.0
C1358 C 0.92561 0.26019 0.97973 0.0
C1359 C 0.9345 0.29451 0.98736 0.0
C1360 C 0.91414 0.24278 0.9667 0.0
C1361 C 0.89826 0.24002 0.95188 0.0
C1362 C 0.92104 0.27481 0.9779 0.0
C1363 C 0.89349 0.25448 0.95194 0.0
C1364 C 0.92866 0.30818 0.98906 0.0
C1365 C 0.96665 0.31858 -0.00273 0.0
N1366 N 0.90492 0.27132 0.96455 0.0
N1367 N 0.95326 0.3001 -0.00818 0.0
H1368 H 0.69811 0.61247 0.01201 0.0
H1369 H 0.79323 0.68795 0.93945 0.0
H1370 H 0.71062 0.66944 -0.0078 0.0
H1371 H 0.78033 0.63099 0.95978 0.0
H1372 H 0.7659 0.68352 0.96543 0.0
H1373 H 0.73049 0.62088 -0.00057 0.0
C1374 C 0.70774 0.62684 0.00526 0.0
C1375 C 0.70154 0.6402 0.00286 0.0
C1376 C 0.76925 0.67212 0.96465 0.0
C1377 C 0.73874 0.64991 0.9882 0.0
C1378 C 0.7849 0.67467 0.94989 0.0
C1379 C 0.78896 0.65974 0.94719 0.0
C1380 C 0.75745 0.65445 0.97666 0.0
C1381 C 0.77779 0.64291 0.96134 0.0
C1382 C 0.72627 0.63164 -0.0019 0.0
C1383 C 0.71473 0.65864 -0.00579 0.0
N1384 N 0.76237 0.6406 0.97508 0.0
N1385 N 0.73263 0.66287 0.98688 0.0
H1386 H 0.94263 0.60954 0.00648 0.0
H1387 H 0.92361 0.68874 0.94348 0.0
H1388 H 0.98746 0.66665 0.98827 0.0
H1389 H 0.87957 0.63062 0.95801 0.0
H1390 H 0.94639 0.68294 0.9679 0.0
H1391 H 0.91889 0.61891 -0.00349 0.0
C1392 C 0.94751 0.62413 0.00063 0.0
C1393 C 0.96709 0.63726 -0.00214 0.0
C1394 C 0.93165 0.67156 0.9662 0.0
C1395 C 0.93987 0.64808 0.98624 0.0
C1396 C 0.91862 0.67489 0.95234 0.0
C1397 C 0.8997 0.66007 0.94838 0.0
C1398 C 0.92575 0.65325 0.97608 0.0
C1399 C 0.89397 0.64249 0.96057 0.0
C1400 C 0.93391 0.62948 -0.00504 0.0
C1401 C 0.97252 0.65601 -0.00954 0.0
N1402 N 0.90701 0.63948 0.97347 0.0
N1403 N 0.95898 0.6608 0.9846 0.0
H1404 H 0.42 0.334 0.02125 0.0
H1405 H 0.34254 0.23684 0.95281 0.0
H1406 H 0.36286 0.32139 0.00105 0.0
H1407 H 0.40045 0.25103 0.9708 0.0
H1408 H 0.34736 0.26446 0.97888 0.0
H1409 H 0.41094 0.30103 0.01089 0.0
C1410 C 0.40546 0.32424 0.01488 0.0
C1411 C 0.39225 0.33057 0.01164 0.0
C1412 C 0.35888 0.26129 0.97762 0.0
C1413 C 0.38177 0.29267 -0.00046 0.0
C1414 C 0.3561 0.24546 0.96285 0.0
C1415 C 0.37122 0.24177 0.95924 0.0
C1416 C 0.37693 0.27358 0.98881 0.0
C1417 C 0.38839 0.25329 0.97298 0.0
C1418 C 0.40028 0.30536 0.009 0.0
C1419 C 0.37356 0.31718 0.00362 0.0
N1420 N 0.39089 0.26886 0.98671 0.0
N1421 N 0.36895 0.29893 -0.00251 0.0
H1422 H 0.71086 0.05207 0.00018 0.0
H1423 H 0.78291 0.15477 0.94445 0.0
H1424 H 0.69796 0.09779 -0.00407 0.0
H1425 H 0.80022 0.1138 0.96395 0.0
H1426 H 0.75283 0.13536 0.96768 0.0
H1427 H 0.7444 0.07507 -0.00925 0.0
C1428 C 0.7151 0.06696 -0.00245 0.0
C1429 C 0.70151 0.07295 -0.00144 0.0
C1430 C 0.76336 0.13079 0.96751 0.0
C1431 C 0.73985 0.09935 0.98763 0.0
C1432 C 0.78058 0.14198 0.95447 0.0
C1433 C 0.79405 0.13594 0.95266 0.0
C1434 C 0.75938 0.11316 0.9782 0.0
C1435 C 0.79024 0.11903 0.96533 0.0
C1436 C 0.73427 0.08011 -0.00777 0.0
C1437 C 0.70787 0.09246 -0.00488 0.0
N1438 N 0.7731 0.10804 0.9772 0.0
N1439 N 0.72649 0.10488 0.98952 0.0
H1440 H 0.67376 0.98031 0.01041 0.0
H1441 H 0.63715 0.87694 0.06861 0.0
H1442 H 0.61416 0.9368 0.01254 0.0
H1443 H 0.69601 0.91438 0.04802 0.0
H1444 H 0.6283 0.89781 0.04518 0.0
H1445 H 0.68238 0.95609 0.02177 0.0
C1446 C 0.6625 0.96565 0.01302 0.0
C1447 C 0.6432 0.96063 0.01075 0.0
C1448 C 0.64311 0.9013 0.04522 0.0
C1449 C 0.65295 0.93287 0.02389 0.0
C1450 C 0.6481 0.88929 0.05842 0.0
C1451 C 0.66727 0.8939 0.05994 0.0
C1452 C 0.65747 0.91831 0.03404 0.0
C1453 C 0.68104 0.91025 0.04692 0.0
C1454 C 0.66743 0.95181 0.01942 0.0
C1455 C 0.62922 0.94138 0.01424 0.0
N1456 N 0.67592 0.92207 0.03487 0.0
N1457 N 0.63436 0.92829 0.02091 0.0
H1458 H 0.10178 0.69195 -0.00714 0.0
H1459 H 0.11726 0.78527 0.06754 0.0
H1460 H 0.05565 0.70151 0.01482 0.0
H1461 H 0.16293 0.77502 0.04568 0.0
H1462 H 0.09514 0.75801 0.04024 0.0
H1463 H 0.12466 0.72509 0.00423 0.0
C1464 C 0.09643 0.70109 -0.00022 0.0
C1465 C 0.07677 0.69385 0.00329 0.0
C1466 C 0.11008 0.76196 0.04094 0.0
C1467 C 0.10298 0.73188 0.0166 0.0
C1468 C 0.12273 0.77757 0.05645 0.0
C1469 C 0.14191 0.78225 0.05921 0.0
C1470 C 0.11663 0.75085 0.02825 0.0
C1471 C 0.14828 0.77194 0.04416 0.0
C1472 C 0.10953 0.72006 0.00625 0.0
C1473 C 0.07069 0.70645 0.01203 0.0
N1474 N 0.1356 0.75651 0.02974 0.0
N1475 N 0.08376 0.72477 0.01877 0.0
H1476 H 0.34319 0.4194 0.01722 0.0
H1477 H 0.23689 0.33544 0.04665 0.0
H1478 H 0.32628 0.35957 0.01622 0.0
H1479 H 0.25879 0.39439 0.06837 0.0
H1480 H 0.26695 0.34453 0.02377 0.0
H1481 H 0.31 0.4107 0.02487 0.0
C1482 C 0.33247 0.4044 0.01833 0.0
C1483 C 0.3376 0.39019 0.01645 0.0
C1484 C 0.26497 0.35554 0.03294 0.0
C1485 C 0.29947 0.38015 0.02514 0.0
C1486 C 0.24776 0.3504 0.04564 0.0
C1487 C 0.24542 0.36425 0.05917 0.0
C1488 C 0.27986 0.37466 0.0338 0.0
C1489 C 0.26006 0.38336 0.05794 0.0
C1490 C 0.31351 0.39946 0.0227 0.0
C1491 C 0.32302 0.371 0.01783 0.0
N1492 N 0.27674 0.38799 0.04573 0.0
N1493 N 0.30463 0.36654 0.02233 0.0
H1494 H 0.72936 0.69778 0.33826 0.0
H1495 H 0.83091 0.72852 0.4002 0.0
H1496 H 0.77482 0.7565 0.34361 0.0
H1497 H 0.79158 0.67069 0.37576 0.0
H1498 H 0.81172 0.73932 0.37616 0.0
H1499 H 0.75243 0.6875 0.34914 0.0
C1500 C 0.74421 0.70851 0.34145 0.0
C1501 C 0.75011 0.72804 0.34027 0.0
C1502 C 0.8075 0.72432 0.37544 0.0
C1503 C 0.77657 0.71638 0.3529 0.0
C1504 C 0.81856 0.71822 0.38896 0.0
C1505 C 0.8129 0.69877 0.38958 0.0
C1506 C 0.79036 0.71078 0.36308 0.0
C1507 C 0.79653 0.68586 0.37534 0.0
C1508 C 0.7574 0.70263 0.34758 0.0
C1509 C 0.76957 0.7413 0.34447 0.0
N1510 N 0.78562 0.69204 0.36303 0.0
N1511 N 0.78202 0.73524 0.35091 0.0
H1512 H 0.33792 0.03803 0.33844 0.0
H1513 H 0.30439 0.10676 0.39743 0.0
H1514 H 0.27847 0.02144 0.34725 0.0
H1515 H 0.36148 0.12729 0.369 0.0
H1516 H 0.29389 0.0764 0.37442 0.0
H1517 H 0.34659 0.07141 0.34565 0.0
C1518 C 0.32668 0.04142 0.34161 0.0
C1519 C 0.30746 0.02688 0.34258 0.0
C1520 C 0.3086 0.0877 0.37252 0.0
C1521 C 0.31727 0.06503 0.35097 0.0
C1522 C 0.31451 0.10508 0.38542 0.0
C1523 C 0.33374 0.1195 0.38482 0.0
C1524 C 0.32217 0.08457 0.35958 0.0
C1525 C 0.34647 0.11654 0.36958 0.0
C1526 C 0.33163 0.06049 0.34562 0.0
C1527 C 0.29349 0.03213 0.34658 0.0
N1528 N 0.34056 0.09924 0.35801 0.0
N1529 N 0.29868 0.05071 0.35098 0.0
H1530 H 0.99658 0.31243 0.35105 0.0
H1531 H 0.92463 0.20245 0.37954 0.0
H1532 H 1.00793 0.2668 0.33297 0.0
H1533 H 0.91336 0.24769 0.40048 0.0
H1534 H 0.95187 0.22512 0.35367 0.0
H1535 H 0.96348 0.28857 0.36125 0.0
C1536 C 0.99205 0.29741 0.34885 0.0
C1537 C 1.00513 0.29161 0.34154 0.0
C1538 C 0.94325 0.23005 0.36351 0.0
C1539 C 0.96731 0.26423 0.35325 0.0
C1540 C 0.9275 0.21702 0.37806 0.0
C1541 C 0.91684 0.22322 0.39256 0.0
C1542 C 0.94847 0.24946 0.36358 0.0
C1543 C 0.92143 0.24237 0.39003 0.0
C1544 C 0.97315 0.28379 0.35469 0.0
C1545 C 0.99843 0.27195 0.33887 0.0
N1546 N 0.9371 0.25488 0.37626 0.0
N1547 N 0.98007 0.259 0.34501 0.0
H1548 H 0.03146 0.37527 0.3145 0.0
H1549 H 0.04 0.47743 0.31095 0.0
H1550 H 0.07891 0.4224 0.35472 0.0
H1551 H 0.0339 0.44369 0.24136 0.0
H1552 H 0.04484 0.45451 0.33692 0.0
H1553 H 0.02126 0.39733 0.2984 0.0
C1554 C 0.03945 0.39014 0.32052 0.0
C1555 C 0.05622 0.39708 0.33565 0.0
C1556 C 0.04204 0.45216 0.31599 0.0
C1557 C 0.04443 0.42219 0.31764 0.0
C1558 C 0.0394 0.46526 0.30106 0.0
C1559 C 0.03612 0.46256 0.27371 0.0
C1560 C 0.04083 0.43604 0.30361 0.0
C1561 C 0.03545 0.44627 0.26233 0.0
C1562 C 0.03364 0.40268 0.31128 0.0
C1563 C 0.06603 0.41654 0.3428 0.0
N1564 N 0.03761 0.43367 0.27731 0.0
N1565 N 0.06008 0.42851 0.33354 0.0
H1566 H 0.61305 0.67577 0.33066 0.0
H1567 H 0.59048 0.5692 0.30018 0.0
H1568 H 0.65627 0.65922 0.32957 0.0
H1569 H 0.55239 0.59035 0.28127 0.0
H1570 H 0.61219 0.5998 0.322 0.0
H1571 H 0.58859 0.64252 0.32289 0.0
C1572 C 0.61741 0.66513 0.32901 0.0
C1573 C 0.63681 0.67037 0.33044 0.0
C1574 C 0.59885 0.59757 0.31367 0.0
C1575 C 0.60874 0.63214 0.32162 0.0
C1576 C 0.58636 0.58004 0.30159 0.0
C1577 C 0.56961 0.57729 0.28921 0.0
C1578 C 0.59446 0.61235 0.31334 0.0
C1579 C 0.5651 0.59192 0.29087 0.0
C1580 C 0.6034 0.64612 0.32459 0.0
C1581 C 0.64152 0.65587 0.32835 0.0
N1582 N 0.57754 0.60889 0.30247 0.0
N1583 N 0.6276 0.63742 0.32385 0.0
H1584 H 0.36249 0.94279 0.34291 0.0
H1585 H 0.45801 0.01973 0.27283 0.0
H1586 H 0.37477 0.99989 0.32444 0.0
H1587 H 0.44591 0.96299 0.2929 0.0
H1588 H 0.4304 0.01478 0.29857 0.0
H1589 H 0.39514 0.95168 0.3311 0.0
C1590 C 0.37211 0.95728 0.3366 0.0
C1591 C 0.36578 0.97055 0.33436 0.0
C1592 C 0.43399 1.00354 0.29783 0.0
C1593 C 0.40331 0.98083 0.32062 0.0
C1594 C 0.44982 1.00641 0.28326 0.0
C1595 C 0.45416 0.99168 0.2805 0.0
C1596 C 0.42227 0.98574 0.30956 0.0
C1597 C 0.44313 0.97475 0.29452 0.0
C1598 C 0.39081 0.96236 0.32989 0.0
C1599 C 0.37898 0.98915 0.3263 0.0
N1600 N 0.4275 0.97212 0.30804 0.0
N1601 N 0.39704 0.99367 0.31942 0.0
H1602 H 0.6056 0.94841 0.35484 0.0
H1603 H 0.58836 0.99773 0.23975 0.0
H1604 H 0.65351 0.99611 0.31771 0.0
H1605 H 0.55408 0.99024 0.30865 0.0
H1606 H 0.6106 0.9935 0.26652 0.0
H1607 H 0.58453 0.95984 0.33788 0.0
C1608 C 0.61174 0.96147 0.34357 0.0
C1609 C 0.63131 0.97124 0.33744 0.0
C1610 C 0.59835 0.99309 0.27584 0.0
C1611 C 0.60731 0.98403 0.31774 0.0
C1612 C 0.58558 0.99576 0.2606 0.0
C1613 C 0.56929 0.99502 0.27182 0.0
C1614 C 0.59464 0.98877 0.30246 0.0
C1615 C 0.56629 0.99097 0.2989 0.0
C1616 C 0.59973 0.96799 0.33405 0.0
C1617 C 0.63852 0.9881 0.32284 0.0
N1618 N 0.57871 0.98771 0.31325 0.0
N1619 N 0.62645 0.9937 0.31295 0.0
H1620 H 0.0329 0.65783 0.33122 0.0
H1621 H 0.06893 0.58421 0.30022 0.0
H1622 H 0.08955 0.66795 0.34912 0.0
H1623 H 1.01356 0.57522 0.27695 0.0
H1624 H 0.0738 0.61134 0.32733 0.0
H1625 H 0.0231 0.62469 0.31966 0.0
C1626 C 0.0432 0.65302 0.33311 0.0
C1627 C 0.06216 0.66578 0.34077 0.0
C1628 C 0.06041 0.60322 0.31671 0.0
C1629 C 0.05106 0.62789 0.32751 0.0
C1630 C 0.05752 0.58755 0.30146 0.0
C1631 C 0.04093 0.57759 0.28598 0.0
C1632 C 0.04665 0.60905 0.31638 0.0
C1633 C 0.02673 0.58274 0.28822 0.0
C1634 C 0.0376 0.6341 0.32648 0.0
C1635 C 0.07485 0.65871 0.34297 0.0
N1636 N 0.03005 0.5983 0.30271 0.0
N1637 N 0.06914 0.64034 0.3361 0.0
H1638 H 0.36539 0.43206 0.33228 0.0
H1639 H 0.47125 0.45246 0.30336 0.0
H1640 H 0.38156 0.3886 0.33488 0.0
H1641 H 0.4504 0.4904 0.28232 0.0
H1642 H 0.441 0.43188 0.32597 0.0
H1643 H 0.39867 0.45605 0.32437 0.0
C1644 C 0.37596 0.42755 0.33144 0.0
C1645 C 0.3706 0.40821 0.3339 0.0
C1646 C 0.44324 0.44497 0.31701 0.0
C1647 C 0.40886 0.43574 0.32487 0.0
C1648 C 0.46058 0.45683 0.30446 0.0
C1649 C 0.46328 0.47317 0.29122 0.0
C1650 C 0.42859 0.44957 0.31626 0.0
C1651 C 0.44886 0.47799 0.29255 0.0
C1652 C 0.39499 0.4413 0.32692 0.0
C1653 C 0.38501 0.40331 0.33284 0.0
N1654 N 0.43206 0.46614 0.30459 0.0
N1655 N 0.40347 0.41697 0.32818 0.0
H1656 H 0.28213 0.26888 0.34663 0.0
H1657 H 0.3655 0.24521 0.3773 0.0
H1658 H 0.34213 0.31123 0.34396 0.0
H1659 H 0.30696 0.20992 0.4011 0.0
H1660 H 0.3566 0.26665 0.35504 0.0
H1661 H 0.29064 0.2446 0.35702 0.0
C1662 C 0.29712 0.27308 0.34799 0.0
C1663 C 0.31144 0.29221 0.34469 0.0
C1664 C 0.34564 0.25399 0.36466 0.0
C1665 C 0.32127 0.26432 0.35655 0.0
C1666 C 0.35066 0.24166 0.37705 0.0
C1667 C 0.33689 0.22577 0.39085 0.0
C1668 C 0.32669 0.25028 0.36601 0.0
C1669 C 0.31794 0.22199 0.39051 0.0
C1670 C 0.30195 0.25917 0.35395 0.0
C1671 C 0.33062 0.2967 0.34656 0.0
N1672 N 0.31342 0.23421 0.37846 0.0
N1673 N 0.33498 0.28288 0.35252 0.0
H1674 H 0.76238 0.01742 0.3392 0.0
H1675 H 0.78303 0.11744 0.39882 0.0
H1676 H 0.71819 0.03103 0.35625 0.0
H1677 H 0.8266 0.10252 0.38453 0.0
H1678 H 0.75985 0.08843 0.37537 0.0
H1679 H 0.7865 0.05058 0.34829 0.0
C1680 C 0.75772 0.02743 0.34462 0.0
C1681 C 0.7382 0.02135 0.3473 0.0
C1682 C 0.77457 0.09168 0.3769 0.0
C1683 C 0.76587 0.05946 0.35789 0.0
C1684 C 0.78783 0.10829 0.39018 0.0
C1685 C 0.80674 0.11231 0.39393 0.0
C1686 C 0.78022 0.07891 0.3674 0.0
C1687 C 0.81221 0.10005 0.3821 0.0
C1688 C 0.77154 0.0464 0.34979 0.0
C1689 C 0.73307 0.03503 0.35414 0.0
N1690 N 0.79894 0.08376 0.36977 0.0
N1691 N 0.74681 0.05339 0.3595 0.0
H1692 H 1.01398 0.75321 0.34688 0.0
H1693 H 0.90808 0.66873 0.37773 0.0
H1694 H 0.99774 0.69355 0.34601 0.0
H1695 H 0.93038 0.72721 0.40228 0.0
H1696 H 0.93818 0.67814 0.35473 0.0
H1697 H 0.98091 0.74418 0.35629 0.0
C1698 C 1.00343 0.73818 0.34837 0.0
C1699 C 1.00872 0.72412 0.34597 0.0
C1700 C 0.9363 0.68898 0.36462 0.0
C1701 C 0.97074 0.71371 0.35667 0.0
C1702 C 0.91907 0.68366 0.37742 0.0
C1703 C 0.9168 0.69728 0.39168 0.0
C1704 C 0.95124 0.70805 0.36605 0.0
C1705 C 0.9316 0.71636 0.39129 0.0
C1706 C 0.98454 0.73306 0.35377 0.0
C1707 C 0.99435 0.70487 0.34796 0.0
N1708 N 0.94825 0.72117 0.37887 0.0
N1709 N 0.97603 0.70023 0.35338 0.0
H1710 H 0.39458 0.03115 0.6705 0.0
H1711 H 0.49696 0.06143 0.7292 0.0
H1712 H 0.44018 0.08978 0.67623 0.0
H1713 H 0.4568 1.00358 0.70588 0.0
H1714 H 0.47758 0.07235 0.70597 0.0
H1715 H 0.41769 0.0207 0.68016 0.0
C1716 C 0.40947 0.04182 0.67352 0.0
C1717 C 0.4154 0.06137 0.67283 0.0
C1718 C 0.4732 0.05731 0.7053 0.0
C1719 C 0.44191 0.04953 0.68403 0.0
C1720 C 0.48438 0.05114 0.71835 0.0
C1721 C 0.47854 0.03166 0.71909 0.0
C1722 C 0.45578 0.04381 0.69353 0.0
C1723 C 0.46188 0.01877 0.70535 0.0
C1724 C 0.42268 0.03585 0.67896 0.0
C1725 C 0.43491 0.07456 0.67676 0.0
N1726 N 0.45088 0.02502 0.69351 0.0
N1727 N 0.44739 0.0684 0.6825 0.0
H1728 H 1.01069 0.36898 0.67716 0.0
H1729 H 0.97499 0.43892 0.72661 0.0
H1730 H 0.95133 0.35395 0.67678 0.0
H1731 H 0.03415 0.45804 0.71066 0.0
H1732 H 0.96591 0.40873 0.70393 0.0
H1733 H 1.01974 0.40234 0.6857 0.0
C1734 C 0.99957 0.37271 0.6786 0.0
C1735 C 0.98021 0.35859 0.67654 0.0
C1736 C 0.98086 0.41968 0.70473 0.0
C1737 C 0.99045 0.39673 0.68644 0.0
C1738 C 0.98598 0.43696 0.71743 0.0
C1739 C 1.00528 0.45098 0.7201 0.0
C1740 C 0.9952 0.41621 0.69528 0.0
C1741 C 1.01909 0.44764 0.70857 0.0
C1742 C 1.00474 0.39177 0.6834 0.0
C1743 C 0.96642 0.3643 0.67844 0.0
N1744 N 1.01382 0.43044 0.69705 0.0
N1745 N 0.97179 0.38284 0.68359 0.0
H1746 H 0.66471 0.6421 0.69003 0.0
H1747 H 0.57154 0.54079 0.70337 0.0
H1748 H 0.6656 0.59369 0.65535 0.0
H1749 H 0.60369 0.57621 0.76982 0.0
H1750 H 0.59812 0.56238 0.67465 0.0
H1751 H 0.63279 0.6204 0.70718 0.0
C1752 C 0.65801 0.627 0.68538 0.0
C1753 C 0.66795 0.61964 0.67163 0.0
C1754 C 0.5989 0.56539 0.69553 0.0
C1755 C 0.6314 0.59493 0.69077 0.0
C1756 C 0.58385 0.55307 0.712 0.0
C1757 C 0.58485 0.55673 0.73927 0.0
C1758 C 0.6147 0.58166 0.70636 0.0
C1759 C 0.6014 0.573 0.74903 0.0
C1760 C 0.63983 0.61467 0.69517 0.0
C1761 C 0.65851 0.5999 0.66621 0.0
N1762 N 0.61543 0.58485 0.73263 0.0
N1763 N 0.64078 0.58813 0.67607 0.0
H1764 H 0.69244 0.70585 0.65869 0.0
H1765 H 0.73192 0.81664 0.63618 0.0
H1766 H 0.75011 0.7504 0.67641 0.0
H1767 H 0.67432 0.77284 0.61667 0.0
H1768 H 0.73628 0.79319 0.66056 0.0
H1769 H 0.68346 0.73034 0.65156 0.0
C1770 C 0.70315 0.72075 0.66143 0.0
C1771 C 0.72213 0.72608 0.66774 0.0
C1772 C 0.72253 0.78874 0.65142 0.0
C1773 C 0.71197 0.75418 0.65961 0.0
C1774 C 0.71993 0.80224 0.63776 0.0
C1775 C 0.70284 0.79665 0.62388 0.0
C1776 C 0.708 0.76946 0.65103 0.0
C1777 C 0.68789 0.77768 0.62657 0.0
C1778 C 0.69801 0.73474 0.65738 0.0
C1779 C 0.73537 0.74561 0.67119 0.0
N1780 N 0.69095 0.76467 0.63932 0.0
N1781 N 0.7301 0.75892 0.66681 0.0
H1782 H 0.32167 0.99405 0.66698 0.0
H1783 H 0.21583 0.92463 0.61585 0.0
H1784 H 0.27813 1.01011 0.66317 0.0
H1785 H 0.25531 0.90501 0.63375 0.0
H1786 H 0.23725 0.95501 0.63794 0.0
H1787 H 0.29701 0.96071 0.65888 0.0
C1788 C 0.30692 0.99056 0.66472 0.0
C1789 C 0.30202 1.00496 0.66548 0.0
C1790 C 0.24107 0.94393 0.63769 0.0
C1791 C 0.27372 0.96684 0.65609 0.0
C1792 C 0.22872 0.92653 0.62533 0.0
C1793 C 0.23374 0.91229 0.62336 0.0
C1794 C 0.25881 0.9473 0.64754 0.0
C1795 C 0.25083 0.91557 0.63529 0.0
C1796 C 0.29283 0.97151 0.66016 0.0
C1797 C 0.28264 0.99955 0.66253 0.0
N1798 N 0.26294 0.93287 0.64648 0.0
N1799 N 0.26928 0.98101 0.65769 0.0
H1800 H 0.04621 0.33393 0.66564 0.0
H1801 H 0.11945 0.29788 0.63301 0.0
H1802 H 0.03505 0.27654 0.67891 0.0
H1803 H 0.1303 0.35476 0.61668 0.0
H1804 H 0.09177 0.29215 0.65907 0.0
H1805 H 0.07954 0.34376 0.65588 0.0
C1806 C 0.05081 0.32345 0.66685 0.0
C1807 C 0.03773 0.30432 0.67272 0.0
C1808 C 0.10042 0.30604 0.65027 0.0
C1809 C 0.07586 0.31544 0.66152 0.0
C1810 C 0.11641 0.30941 0.63565 0.0
C1811 C 0.12705 0.32673 0.62232 0.0
C1812 C 0.09496 0.32006 0.65144 0.0
C1813 C 0.12228 0.34107 0.62628 0.0
C1814 C 0.06986 0.32907 0.66128 0.0
C1815 C 0.04455 0.29139 0.67415 0.0
N1816 N 0.10639 0.3373 0.64004 0.0
N1817 N 0.06305 0.29714 0.66831 0.0
H1818 H 0.28162 0.28516 0.68332 0.0
H1819 H 0.25973 0.33327 0.57105 0.0
H1820 H 0.3278 0.33276 0.64345 0.0
H1821 H 0.22805 0.32635 0.64252 0.0
H1822 H 0.28285 0.32915 0.59579 0.0
H1823 H 0.2597 0.2961 0.66829 0.0
C1824 C 0.28721 0.29807 0.6718 0.0
C1825 C 0.30652 0.30797 0.66435 0.0
C1826 C 0.271 0.32884 0.60612 0.0
C1827 C 0.28157 0.32023 0.64695 0.0
C1828 C 0.25773 0.33146 0.59206 0.0
C1829 C 0.24193 0.33091 0.60464 0.0
C1830 C 0.26828 0.32475 0.6329 0.0
C1831 C 0.23989 0.32699 0.6318 0.0
C1832 C 0.27473 0.30432 0.66342 0.0
C1833 C 0.31303 0.32465 0.64954 0.0
N1834 N 0.25279 0.32379 0.645 0.0
N1835 N 0.30049 0.33001 0.64081 0.0
H1836 H 0.75776 1.00219 0.67729 0.0
H1837 H 0.6784 0.90287 0.61538 0.0
H1838 H 0.69997 0.9888 0.65992 0.0
H1839 H 0.73694 0.91772 0.62985 0.0
H1840 H 0.68426 0.93165 0.63936 0.0
H1841 H 0.74874 0.96916 0.66736 0.0
C1842 C 0.7431 0.99225 0.67163 0.0
C1843 C 0.72966 0.99836 0.66909 0.0
C1844 C 0.69573 0.92843 0.63773 0.0
C1845 C 0.71923 0.96041 0.65753 0.0
C1846 C 0.69237 0.91197 0.62413 0.0
C1847 C 0.70727 0.90799 0.62031 0.0
C1848 C 0.71415 0.9411 0.6475 0.0
C1849 C 0.72502 0.92016 0.63232 0.0
C1850 C 0.73795 0.97335 0.66598 0.0
C1851 C 0.71084 0.98477 0.66193 0.0
N1852 N 0.72804 0.93631 0.64498 0.0
N1853 N 0.70623 0.96649 0.65609 0.0
H1854 H 0.04697 0.71819 0.66822 0.0
H1855 H 0.11453 0.82245 0.61384 0.0
H1856 H 0.03086 0.7617 0.66633 0.0
H1857 H 0.13542 0.78439 0.63389 0.0
H1858 H 0.08465 0.80145 0.63663 0.0
H1859 H 0.08001 0.74266 0.65867 0.0
C1860 C 0.0504 0.7329 0.66607 0.0
C1861 C 0.03605 0.73784 0.66783 0.0
C1862 C 0.09591 0.79788 0.63667 0.0
C1863 C 0.07382 0.76591 0.65673 0.0
C1864 C 0.11301 0.80997 0.62388 0.0
C1865 C 0.12746 0.80522 0.62238 0.0
C1866 C 0.09305 0.78063 0.64741 0.0
C1867 C 0.12468 0.78865 0.63505 0.0
C1868 C 0.06928 0.74688 0.66069 0.0
C1869 C 0.04138 0.75717 0.66498 0.0
N1870 N 0.10766 0.77676 0.64666 0.0
N1871 N 0.05974 0.77041 0.65927 0.0
H1872 H 0.94863 0.59844 0.67469 0.0
H1873 H 0.03231 0.57583 0.70792 0.0
H1874 H 1.00852 0.64125 0.67431 0.0
H1875 H 0.9736 0.54009 0.73063 0.0
H1876 H 0.0233 0.59678 0.68458 0.0
H1877 H 0.95727 0.57418 0.68463 0.0
C1878 C 0.96363 0.60274 0.6764 0.0
C1879 C 0.97787 0.62199 0.67396 0.0
C1880 C 1.01232 0.5841 0.69414 0.0
C1881 C 0.98784 0.59415 0.68532 0.0
C1882 C 1.01741 0.57204 0.70713 0.0
C1883 C 1.00362 0.55619 0.72098 0.0
C1884 C 0.99329 0.58017 0.69496 0.0
C1885 C 0.98459 0.55211 0.71997 0.0
C1886 C 0.96853 0.58885 0.68212 0.0
C1887 C 0.99707 0.62662 0.67626 0.0
N1888 N 0.98 0.5641 0.70738 0.0
N1889 N 1.00149 0.61282 0.682 0.0
H1890 H 0.43499 0.35892 0.66136 0.0
H1891 H 0.45046 0.42526 0.77352 0.0
H1892 H 0.38641 0.36098 0.69252 0.0
H1893 H 0.48579 0.45372 0.70612 0.0
H1894 H 0.42868 0.39966 0.74543 0.0
H1895 H 0.45597 0.3918 0.67732 0.0
C1896 C 0.42869 0.36641 0.67105 0.0
C1897 C 0.40895 0.35711 0.676 0.0
C1898 C 0.44104 0.4117 0.73673 0.0
C1899 C 0.43281 0.39438 0.69435 0.0
C1900 C 0.45358 0.42674 0.75276 0.0
C1901 C 0.47007 0.44255 0.74244 0.0
C1902 C 0.44517 0.41163 0.71017 0.0
C1903 C 0.47344 0.44208 0.7153 0.0
C1904 C 0.44066 0.38516 0.67993 0.0
C1905 C 0.40154 0.36751 0.68847 0.0
N1906 N 0.46126 0.42669 0.70014 0.0
N1907 N 0.41354 0.3854 0.69783 0.0
H1908 H 0.67875 0.08531 0.67501 0.0
H1909 H 0.57316 1.00045 0.70615 0.0
H1910 H 0.66279 0.02572 0.67404 0.0
H1911 H 0.59497 0.0591 0.72943 0.0
H1912 H 0.60321 1.00992 0.68294 0.0
H1913 H 0.64559 0.07612 0.68396 0.0
C1914 C 0.66825 0.07026 0.67638 0.0
C1915 C 0.67364 0.05626 0.67412 0.0
C1916 C 0.60122 0.02078 0.69258 0.0
C1917 C 0.63555 0.04567 0.68433 0.0
C1918 C 0.58403 0.01542 0.7055 0.0
C1919 C 0.58166 0.02908 0.71948 0.0
C1920 C 0.61603 0.03993 0.69364 0.0
C1921 C 0.59628 0.04822 0.71866 0.0
C1922 C 0.6493 0.06504 0.68152 0.0
C1923 C 0.65932 0.03699 0.67591 0.0
N1924 N 0.61291 0.05306 0.70616 0.0
N1925 N 0.64094 0.03226 0.68112 0.0
loop_
_geom_bond_atom_site_label_1
_geom_bond_atom_site_label_2
_geom_bond_distance
_geom_bond_site_symmetry_2
_ccdc_geom_bond_type
O0 Cd1 2.223 . S
O0 C8 1.315 . S
Cd1 O0 2.223 . S
Cd1 O4 2.297 . S
Cd1 O5 2.439 . S
Cd1 O11 2.240 1_554 S
Cd2 O3 2.240 . S
Cd2 O10 2.223 1_554 S
Cd2 O12 2.297 1_554 S
Cd2 O13 2.439 1_554 S
O3 Cd2 2.240 . S
O3 C8 1.279 1_655 S
O4 Cd1 2.297 . S
O4 C6 1.247 . S
O5 Cd1 2.439 . S
O5 C6 1.208 . S
C6 O4 1.247 . S
C6 O5 1.208 . S
C7 O12 1.247 . S
C7 O13 1.208 . S
C8 O0 1.315 . S
C8 O3 1.279 1_455 S
C9 O10 1.315 . S
C9 O11 1.279 1_655 S
O10 Cd2 2.223 1_556 S
O10 C9 1.315 . S
O11 Cd1 2.240 1_556 S
O11 C9 1.279 1_455 S
O12 Cd2 2.297 1_556 S
O12 C7 1.247 . S
O13 Cd2 2.439 1_556 S
O13 C7 1.208 . S
O14 Cd15 2.223 . S
O14 C22 1.315 . S
Cd15 O14 2.223 . S
Cd15 O18 2.297 . S
Cd15 O19 2.439 . S
Cd15 O25 2.240 1_554 S
Cd16 O17 2.240 . S
Cd16 O24 2.223 1_554 S
Cd16 O26 2.297 1_554 S
Cd16 O27 2.439 1_554 S
O17 Cd16 2.240 . S
O17 C22 1.279 . S
O18 Cd15 2.297 . S
O18 C20 1.247 . S
O19 Cd15 2.439 . S
O19 C20 1.208 . S
C20 O18 1.247 . S
C20 O19 1.208 . S
C21 O26 1.247 . S
C21 O27 1.208 . S
C22 O14 1.315 . S
C22 O17 1.279 . S
C23 O24 1.315 . S
C23 O25 1.279 . S
O24 Cd16 2.223 1_556 S
O24 C23 1.315 . S
O25 Cd15 2.240 1_556 S
O25 C23 1.279 . S
O26 Cd16 2.297 1_556 S
O26 C21 1.247 . S
O27 Cd16 2.439 1_556 S
O27 C21 1.208 . S
O28 Cd29 2.223 1_556 S
O28 C36 1.315 . S
Cd29 O28 2.223 1_554 S
Cd29 O32 2.297 1_554 S
Cd29 O33 2.439 1_554 S
Cd29 O39 2.240 . S
Cd30 O31 2.240 1_554 S
Cd30 O38 2.223 . S
Cd30 O40 2.297 . S
Cd30 O41 2.439 . S
O31 Cd30 2.240 1_556 S
O31 C36 1.279 1_565 S
O32 Cd29 2.297 1_556 S
O32 C34 1.247 . S
O33 Cd29 2.439 1_556 S
O33 C34 1.208 . S
C34 O32 1.247 . S
C34 O33 1.208 . S
C35 O40 1.247 . S
C35 O41 1.208 . S
C36 O28 1.315 . S
C36 O31 1.279 1_545 S
C37 O38 1.315 . S
C37 O39 1.279 1_565 S
O38 Cd30 2.223 . S
O38 C37 1.315 . S
O39 Cd29 2.240 . S
O39 C37 1.279 1_545 S
O40 Cd30 2.297 . S
O40 C35 1.247 . S
O41 Cd30 2.439 . S
O41 C35 1.208 . S
O42 Cd43 2.223 1_556 S
O42 C50 1.315 . S
Cd43 O42 2.223 1_554 S
Cd43 O46 2.297 1_554 S
Cd43 O47 2.439 1_554 S
Cd43 O53 2.240 . S
Cd44 O45 2.240 1_554 S
Cd44 O52 2.223 . S
Cd44 O54 2.297 . S
Cd44 O55 2.439 . S
O45 Cd44 2.240 1_556 S
O45 C50 1.279 1_455 S
O46 Cd43 2.297 1_556 S
O46 C48 1.247 . S
O47 Cd43 2.439 1_556 S
O47 C48 1.208 . S
C48 O46 1.247 . S
C48 O47 1.208 . S
C49 O54 1.247 . S
C49 O55 1.208 . S
C50 O42 1.315 . S
C50 O45 1.279 1_655 S
C51 O52 1.315 . S
C51 O53 1.279 1_455 S
O52 Cd44 2.223 . S
O52 C51 1.315 . S
O53 Cd43 2.240 . S
O53 C51 1.279 1_655 S
O54 Cd44 2.297 . S
O54 C49 1.247 . S
O55 Cd44 2.439 . S
O55 C49 1.208 . S
O56 Cd57 2.223 1_556 S
O56 C64 1.315 . S
Cd57 O56 2.223 1_554 S
Cd57 O60 2.297 1_554 S
Cd57 O61 2.439 1_554 S
Cd57 O67 2.240 . S
Cd58 O59 2.240 1_554 S
Cd58 O66 2.223 . S
Cd58 O68 2.297 . S
Cd58 O69 2.439 . S
O59 Cd58 2.240 1_556 S
O59 C64 1.279 . S
O60 Cd57 2.297 1_556 S
O60 C62 1.247 . S
O61 Cd57 2.439 1_556 S
O61 C62 1.208 . S
C62 O60 1.247 . S
C62 O61 1.208 . S
C63 O68 1.247 . S
C63 O69 1.208 . S
C64 O56 1.315 . S
C64 O59 1.279 . S
C65 O66 1.315 . S
C65 O67 1.279 . S
O66 Cd58 2.223 . S
O66 C65 1.315 . S
O67 Cd57 2.240 . S
O67 C65 1.279 . S
O68 Cd58 2.297 . S
O68 C63 1.247 . S
O69 Cd58 2.439 . S
O69 C63 1.208 . S
O70 Cd71 2.223 . S
O70 C78 1.315 . S
Cd71 O70 2.223 . S
Cd71 O74 2.297 . S
Cd71 O75 2.439 . S
Cd71 O81 2.240 1_554 S
Cd72 O73 2.240 . S
Cd72 O80 2.223 1_554 S
Cd72 O82 2.297 1_554 S
Cd72 O83 2.439 1_554 S
O73 Cd72 2.240 . S
O73 C78 1.279 1_545 S
O74 Cd71 2.297 . S
O74 C76 1.247 . S
O75 Cd71 2.439 . S
O75 C76 1.208 . S
C76 O74 1.247 . S
C76 O75 1.208 . S
C77 O82 1.247 . S
C77 O83 1.208 . S
C78 O70 1.315 . S
C78 O73 1.279 1_565 S
C79 O80 1.315 . S
C79 O81 1.279 1_545 S
O80 Cd72 2.223 1_556 S
O80 C79 1.315 . S
O81 Cd71 2.240 1_556 S
O81 C79 1.279 1_565 S
O82 Cd72 2.297 1_556 S
O82 C77 1.247 . S
O83 Cd72 2.439 1_556 S
O83 C77 1.208 . S
O84 Cd85 2.223 . S
O84 C92 1.315 . S
Cd85 O84 2.223 . S
Cd85 O88 2.297 . S
Cd85 O89 2.439 . S
Cd85 O95 2.240 . S
Cd86 O87 2.240 . S
Cd86 O94 2.223 . S
Cd86 O96 2.297 . S
Cd86 O97 2.439 . S
O87 Cd86 2.240 . S
O87 C92 1.279 . S
O88 Cd85 2.297 . S
O88 C90 1.247 . S
O89 Cd85 2.439 . S
O89 C90 1.208 . S
C90 O88 1.247 . S
C90 O89 1.208 . S
C91 O96 1.247 . S
C91 O97 1.208 . S
C92 O84 1.315 . S
C92 O87 1.279 . S
C93 O94 1.315 . S
C93 O95 1.279 . S
O94 Cd86 2.223 . S
O94 C93 1.315 . S
O95 Cd85 2.240 . S
O95 C93 1.279 . S
O96 Cd86 2.297 . S
O96 C91 1.247 . S
O97 Cd86 2.439 . S
O97 C91 1.208 . S
O98 Cd99 2.223 . S
O98 C106 1.315 . S
Cd99 O98 2.223 . S
Cd99 O102 2.297 1_565 S
Cd99 O103 2.439 1_565 S
Cd99 O109 2.240 . S
Cd100 O101 2.240 . S
Cd100 O108 2.223 . S
Cd100 O110 2.297 . S
Cd100 O111 2.439 . S
O101 Cd100 2.240 . S
O101 C106 1.279 . S
O102 Cd99 2.297 1_545 S
O102 C104 1.247 . S
O103 Cd99 2.439 1_545 S
O103 C104 1.208 . S
C104 O102 1.247 . S
C104 O103 1.208 . S
C105 O110 1.247 . S
C105 O111 1.208 . S
C106 O98 1.315 . S
C106 O101 1.279 . S
C107 O108 1.315 . S
C107 O109 1.279 . S
O108 Cd100 2.223 . S
O108 C107 1.315 . S
O109 Cd99 2.240 . S
O109 C107 1.279 . S
O110 Cd100 2.297 . S
O110 C105 1.247 . S
O111 Cd100 2.439 . S
O111 C105 1.208 . S
O112 Cd113 2.223 . S
O112 C120 1.315 . S
Cd113 O112 2.223 . S
Cd113 O116 2.297 . S
Cd113 O117 2.439 . S
Cd113 O123 2.240 . S
Cd114 O115 2.240 . S
Cd114 O122 2.223 . S
Cd114 O124 2.297 1_455 S
Cd114 O125 2.439 1_455 S
O115 Cd114 2.240 . S
O115 C120 1.279 . S
O116 Cd113 2.297 . S
O116 C118 1.247 . S
O117 Cd113 2.439 . S
O117 C118 1.208 . S
C118 O116 1.247 . S
C118 O117 1.208 . S
C119 O124 1.247 . S
C119 O125 1.208 . S
C120 O112 1.315 . S
C120 O115 1.279 . S
C121 O122 1.315 . S
C121 O123 1.279 . S
O122 Cd114 2.223 . S
O122 C121 1.315 . S
O123 Cd113 2.240 . S
O123 C121 1.279 . S
O124 Cd114 2.297 1_655 S
O124 C119 1.247 . S
O125 Cd114 2.439 1_655 S
O125 C119 1.208 . S
O126 Cd127 2.223 . S
O126 C134 1.315 . S
Cd127 O126 2.223 . S
Cd127 O130 2.297 . S
Cd127 O131 2.439 . S
Cd127 O137 2.240 . S
Cd128 O129 2.240 . S
Cd128 O136 2.223 . S
Cd128 O138 2.297 1_565 S
Cd128 O139 2.439 1_565 S
O129 Cd128 2.240 . S
O129 C134 1.279 . S
O130 Cd127 2.297 . S
O130 C132 1.247 . S
O131 Cd127 2.439 . S
O131 C132 1.208 . S
C132 O130 1.247 . S
C132 O131 1.208 . S
C133 O138 1.247 . S
C133 O139 1.208 . S
C134 O126 1.315 . S
C134 O129 1.279 . S
C135 O136 1.315 . S
C135 O137 1.279 . S
O136 Cd128 2.223 . S
O136 C135 1.315 . S
O137 Cd127 2.240 . S
O137 C135 1.279 . S
O138 Cd128 2.297 1_545 S
O138 C133 1.247 . S
O139 Cd128 2.439 1_545 S
O139 C133 1.208 . S
O140 Cd141 2.223 . S
O140 C148 1.315 . S
Cd141 O140 2.223 . S
Cd141 O144 2.297 . S
Cd141 O145 2.439 . S
Cd141 O151 2.240 . S
Cd142 O143 2.240 . S
Cd142 O150 2.223 . S
Cd142 O152 2.297 1_455 S
Cd142 O153 2.439 1_455 S
O143 Cd142 2.240 . S
O143 C148 1.279 . S
O144 Cd141 2.297 . S
O144 C146 1.247 . S
O145 Cd141 2.439 . S
O145 C146 1.208 . S
C146 O144 1.247 . S
C146 O145 1.208 . S
C147 O152 1.247 . S
C147 O153 1.208 . S
C148 O140 1.315 . S
C148 O143 1.279 . S
C149 O150 1.315 . S
C149 O151 1.279 . S
O150 Cd142 2.223 . S
O150 C149 1.315 . S
O151 Cd141 2.240 . S
O151 C149 1.279 . S
O152 Cd142 2.297 1_655 S
O152 C147 1.247 . S
O153 Cd142 2.439 1_655 S
O153 C147 1.208 . S
O154 Cd155 2.223 . S
O154 C162 1.315 . S
Cd155 O154 2.223 . S
Cd155 O158 2.297 . S
Cd155 O159 2.439 . S
Cd155 O165 2.240 . S
Cd156 O157 2.240 . S
Cd156 O164 2.223 . S
Cd156 O166 2.297 . S
Cd156 O167 2.439 . S
O157 Cd156 2.240 . S
O157 C162 1.279 . S
O158 Cd155 2.297 . S
O158 C160 1.247 . S
O159 Cd155 2.439 . S
O159 C160 1.208 . S
C160 O158 1.247 . S
C160 O159 1.208 . S
C161 O166 1.247 . S
C161 O167 1.208 . S
C162 O154 1.315 . S
C162 O157 1.279 . S
C163 O164 1.315 . S
C163 O165 1.279 . S
O164 Cd156 2.223 . S
O164 C163 1.315 . S
O165 Cd155 2.240 . S
O165 C163 1.279 . S
O166 Cd156 2.297 . S
O166 C161 1.247 . S
O167 Cd156 2.439 . S
O167 C161 1.208 . S
O168 Cd169 2.223 . S
O168 C176 1.315 . S
Cd169 O168 2.223 . S
Cd169 O172 2.297 . S
Cd169 O173 2.439 . S
Cd169 O179 2.240 . S
Cd170 O171 2.240 . S
Cd170 O178 2.223 . S
Cd170 O180 2.297 1_545 S
Cd170 O181 2.439 1_545 S
O171 Cd170 2.240 . S
O171 C176 1.279 . S
O172 Cd169 2.297 . S
O172 C174 1.247 . S
O173 Cd169 2.439 . S
O173 C174 1.208 . S
C174 O172 1.247 . S
C174 O173 1.208 . S
C175 O180 1.247 . S
C175 O181 1.208 . S
C176 O168 1.315 . S
C176 O171 1.279 . S
C177 O178 1.315 . S
C177 O179 1.279 . S
O178 Cd170 2.223 . S
O178 C177 1.315 . S
O179 Cd169 2.240 . S
O179 C177 1.279 . S
O180 Cd170 2.297 1_565 S
O180 C175 1.247 . S
O181 Cd170 2.439 1_565 S
O181 C175 1.208 . S
O182 Cd183 2.223 . S
O182 C190 1.315 . S
Cd183 O182 2.223 . S
Cd183 O186 2.297 . S
Cd183 O187 2.439 . S
Cd183 O193 2.240 . S
Cd184 O185 2.240 . S
Cd184 O192 2.223 . S
Cd184 O194 2.297 1_655 S
Cd184 O195 2.439 1_655 S
O185 Cd184 2.240 . S
O185 C190 1.279 . S
O186 Cd183 2.297 . S
O186 C188 1.247 . S
O187 Cd183 2.439 . S
O187 C188 1.208 . S
C188 O186 1.247 . S
C188 O187 1.208 . S
C189 O194 1.247 . S
C189 O195 1.208 . S
C190 O182 1.315 . S
C190 O185 1.279 . S
C191 O192 1.315 . S
C191 O193 1.279 . S
O192 Cd184 2.223 . S
O192 C191 1.315 . S
O193 Cd183 2.240 . S
O193 C191 1.279 . S
O194 Cd184 2.297 1_455 S
O194 C189 1.247 . S
O195 Cd184 2.439 1_455 S
O195 C189 1.208 . S
O196 Cd197 2.223 . S
O196 C204 1.315 . S
Cd197 O196 2.223 . S
Cd197 O200 2.297 . S
Cd197 O201 2.439 . S
Cd197 O207 2.240 . S
Cd198 O199 2.240 . S
Cd198 O206 2.223 . S
Cd198 O208 2.297 . S
Cd198 O209 2.439 . S
O199 Cd198 2.240 . S
O199 C204 1.279 . S
O200 Cd197 2.297 . S
O200 C202 1.247 . S
O201 Cd197 2.439 . S
O201 C202 1.208 . S
C202 O200 1.247 . S
C202 O201 1.208 . S
C203 O208 1.247 . S
C203 O209 1.208 . S
C204 O196 1.315 . S
C204 O199 1.279 . S
C205 O206 1.315 . S
C205 O207 1.279 . S
O206 Cd198 2.223 . S
O206 C205 1.315 . S
O207 Cd197 2.240 . S
O207 C205 1.279 . S
O208 Cd198 2.297 . S
O208 C203 1.247 . S
O209 Cd198 2.439 . S
O209 C203 1.208 . S
O210 Cd211 2.223 . S
O210 C218 1.315 . S
Cd211 O210 2.223 . S
Cd211 O214 2.297 . S
Cd211 O215 2.439 . S
Cd211 O221 2.240 . S
Cd212 O213 2.240 . S
Cd212 O220 2.223 . S
Cd212 O222 2.297 . S
Cd212 O223 2.439 . S
O213 Cd212 2.240 . S
O213 C218 1.279 . S
O214 Cd211 2.297 . S
O214 C216 1.247 . S
O215 Cd211 2.439 . S
O215 C216 1.208 . S
C216 O214 1.247 . S
C216 O215 1.208 . S
C217 O222 1.247 . S
C217 O223 1.208 . S
C218 O210 1.315 . S
C218 O213 1.279 . S
C219 O220 1.315 . S
C219 O221 1.279 . S
O220 Cd212 2.223 . S
O220 C219 1.315 . S
O221 Cd211 2.240 . S
O221 C219 1.279 . S
O222 Cd212 2.297 . S
O222 C217 1.247 . S
O223 Cd212 2.439 . S
O223 C217 1.208 . S
O224 Cd225 2.223 . S
O224 C232 1.315 . S
Cd225 O224 2.223 . S
Cd225 O228 2.297 1_545 S
Cd225 O229 2.439 1_545 S
Cd225 O235 2.240 . S
Cd226 O227 2.240 . S
Cd226 O234 2.223 . S
Cd226 O236 2.297 . S
Cd226 O237 2.439 . S
O227 Cd226 2.240 . S
O227 C232 1.279 . S
O228 Cd225 2.297 1_565 S
O228 C230 1.247 . S
O229 Cd225 2.439 1_565 S
O229 C230 1.208 . S
C230 O228 1.247 . S
C230 O229 1.208 . S
C231 O236 1.247 . S
C231 O237 1.208 . S
C232 O224 1.315 . S
C232 O227 1.279 . S
C233 O234 1.315 . S
C233 O235 1.279 . S
O234 Cd226 2.223 . S
O234 C233 1.315 . S
O235 Cd225 2.240 . S
O235 C233 1.279 . S
O236 Cd226 2.297 . S
O236 C231 1.247 . S
O237 Cd226 2.439 . S
O237 C231 1.208 . S
O238 Cd239 2.223 . S
O238 C246 1.315 . S
Cd239 O238 2.223 . S
Cd239 O242 2.297 . S
Cd239 O243 2.439 . S
Cd239 O249 2.240 . S
Cd240 O241 2.240 . S
Cd240 O248 2.223 . S
Cd240 O250 2.297 1_655 S
Cd240 O251 2.439 1_655 S
O241 Cd240 2.240 . S
O241 C246 1.279 . S
O242 Cd239 2.297 . S
O242 C244 1.247 . S
O243 Cd239 2.439 . S
O243 C244 1.208 . S
C244 O242 1.247 . S
C244 O243 1.208 . S
C245 O250 1.247 . S
C245 O251 1.208 . S
C246 O238 1.315 . S
C246 O241 1.279 . S
C247 O248 1.315 . S
C247 O249 1.279 . S
O248 Cd240 2.223 . S
O248 C247 1.315 . S
O249 Cd239 2.240 . S
O249 C247 1.279 . S
O250 Cd240 2.297 1_455 S
O250 C245 1.247 . S
O251 Cd240 2.439 1_455 S
O251 C245 1.208 . S
H252 C260 0.930 . S
H253 C263 0.930 . S
H254 C265 0.930 . S
H255 C266 0.970 . S
H256 C266 0.970 . S
H257 C268 0.930 . S
H258 C270 0.930 . S
H259 C272 0.930 . S
C260 H252 0.930 . S
C260 C261 1.382 . S
C260 C262 1.426 . S
C261 C260 1.382 . S
C261 C265 1.389 . S
C262 C260 1.426 . S
C262 C263 1.375 . S
C262 C266 1.532 . S
C263 H253 0.930 . S
C263 C262 1.375 . S
C263 C264 1.416 . S
C264 C263 1.416 . S
C264 C265 1.371 . S
C265 H254 0.930 . S
C265 C261 1.389 . S
C265 C264 1.371 . S
C266 H255 0.970 . S
C266 H256 0.970 . S
C266 C262 1.532 . S
C266 C267 1.499 . S
C267 C266 1.499 . S
C267 C268 1.370 . S
C267 C272 1.415 . S
C268 H257 0.930 . S
C268 C267 1.370 . S
C268 C269 1.407 . S
C269 C268 1.407 . S
C269 C270 1.365 . S
C270 H258 0.930 . S
C270 C269 1.365 . S
C270 C271 1.393 . S
C271 C270 1.393 . S
C271 C272 1.387 . S
C272 H259 0.930 . S
C272 C267 1.415 . S
C272 C271 1.387 . S
H273 C281 0.930 . S
H274 C284 0.930 . S
H275 C286 0.930 . S
H276 C287 0.970 . S
H277 C287 0.970 . S
H278 C289 0.930 . S
H279 C291 0.930 . S
H280 C293 0.930 . S
C281 H273 0.930 . S
C281 C282 1.382 . S
C281 C283 1.426 . S
C282 C281 1.382 . S
C282 C286 1.389 . S
C283 C281 1.426 . S
C283 C284 1.375 . S
C283 C287 1.532 . S
C284 H274 0.930 . S
C284 C283 1.375 . S
C284 C285 1.416 . S
C285 C284 1.416 . S
C285 C286 1.371 . S
C286 H275 0.930 . S
C286 C282 1.389 . S
C286 C285 1.371 . S
C287 H276 0.970 . S
C287 H277 0.970 . S
C287 C283 1.532 . S
C287 C288 1.499 . S
C288 C287 1.499 . S
C288 C289 1.370 . S
C288 C293 1.415 . S
C289 H278 0.930 . S
C289 C288 1.370 . S
C289 C290 1.407 . S
C290 C289 1.407 . S
C290 C291 1.365 . S
C291 H279 0.930 . S
C291 C290 1.365 . S
C291 C292 1.393 . S
C292 C291 1.393 . S
C292 C293 1.387 . S
C293 H280 0.930 . S
C293 C288 1.415 . S
C293 C292 1.387 . S
H294 C302 0.930 . S
H295 C305 0.930 . S
H296 C307 0.930 . S
H297 C308 0.970 . S
H298 C308 0.970 . S
H299 C310 0.930 . S
H300 C312 0.930 . S
H301 C314 0.930 . S
C302 H294 0.930 . S
C302 C303 1.382 . S
C302 C304 1.426 . S
C303 C302 1.382 . S
C303 C307 1.389 . S
C304 C302 1.426 . S
C304 C305 1.375 . S
C304 C308 1.532 . S
C305 H295 0.930 . S
C305 C304 1.375 . S
C305 C306 1.416 . S
C306 C305 1.416 . S
C306 C307 1.371 . S
C307 H296 0.930 . S
C307 C303 1.389 . S
C307 C306 1.371 . S
C308 H297 0.970 . S
C308 H298 0.970 . S
C308 C304 1.532 . S
C308 C309 1.499 . S
C309 C308 1.499 . S
C309 C310 1.370 . S
C309 C314 1.415 . S
C310 H299 0.930 . S
C310 C309 1.370 . S
C310 C311 1.407 . S
C311 C310 1.407 . S
C311 C312 1.365 . S
C312 H300 0.930 . S
C312 C311 1.365 . S
C312 C313 1.393 . S
C313 C312 1.393 . S
C313 C314 1.387 . S
C314 H301 0.930 . S
C314 C309 1.415 . S
C314 C313 1.387 . S
H315 C323 0.930 . S
H316 C326 0.930 . S
H317 C328 0.930 . S
H318 C329 0.970 . S
H319 C329 0.970 . S
H320 C331 0.930 . S
H321 C333 0.930 . S
H322 C335 0.930 . S
C323 H315 0.930 . S
C323 C324 1.382 . S
C323 C325 1.426 . S
C324 C323 1.382 . S
C324 C328 1.389 . S
C325 C323 1.426 . S
C325 C326 1.375 . S
C325 C329 1.532 . S
C326 H316 0.930 . S
C326 C325 1.375 . S
C326 C327 1.416 . S
C327 C326 1.416 . S
C327 C328 1.371 . S
C328 H317 0.930 . S
C328 C324 1.389 . S
C328 C327 1.371 . S
C329 H318 0.970 . S
C329 H319 0.970 . S
C329 C325 1.532 . S
C329 C330 1.499 . S
C330 C329 1.499 . S
C330 C331 1.370 . S
C330 C335 1.415 . S
C331 H320 0.930 . S
C331 C330 1.370 . S
C331 C332 1.407 . S
C332 C331 1.407 . S
C332 C333 1.365 . S
C333 H321 0.930 . S
C333 C332 1.365 . S
C333 C334 1.393 . S
C334 C333 1.393 . S
C334 C335 1.387 . S
C335 H322 0.930 . S
C335 C330 1.415 . S
C335 C334 1.387 . S
H336 C344 0.930 . S
H337 C347 0.930 . S
H338 C349 0.930 . S
H339 C350 0.970 . S
H340 C350 0.970 . S
H341 C352 0.930 . S
H342 C354 0.930 . S
H343 C356 0.930 . S
C344 H336 0.930 . S
C344 C345 1.382 . S
C344 C346 1.426 . S
C345 C344 1.382 . S
C345 C349 1.389 . S
C346 C344 1.426 . S
C346 C347 1.375 . S
C346 C350 1.532 . S
C347 H337 0.930 . S
C347 C346 1.375 . S
C347 C348 1.416 . S
C348 C347 1.416 . S
C348 C349 1.371 . S
C349 H338 0.930 . S
C349 C345 1.389 . S
C349 C348 1.371 . S
C350 H339 0.970 . S
C350 H340 0.970 . S
C350 C346 1.532 . S
C350 C351 1.499 . S
C351 C350 1.499 . S
C351 C352 1.370 . S
C351 C356 1.415 . S
C352 H341 0.930 . S
C352 C351 1.370 . S
C352 C353 1.407 . S
C353 C352 1.407 . S
C353 C354 1.365 . S
C354 H342 0.930 . S
C354 C353 1.365 . S
C354 C355 1.393 . S
C355 C354 1.393 . S
C355 C356 1.387 . S
C356 H343 0.930 . S
C356 C351 1.415 . S
C356 C355 1.387 . S
H357 C365 0.930 . S
H358 C368 0.930 . S
H359 C370 0.930 . S
H360 C371 0.970 . S
H361 C371 0.970 . S
H362 C373 0.930 . S
H363 C375 0.930 . S
H364 C377 0.930 . S
C365 H357 0.930 . S
C365 C366 1.382 . S
C365 C367 1.426 . S
C366 C365 1.382 . S
C366 C370 1.389 . S
C367 C365 1.426 . S
C367 C368 1.375 . S
C367 C371 1.532 . S
C368 H358 0.930 . S
C368 C367 1.375 . S
C368 C369 1.416 . S
C369 C368 1.416 . S
C369 C370 1.371 . S
C370 H359 0.930 . S
C370 C366 1.389 . S
C370 C369 1.371 . S
C371 H360 0.970 . S
C371 H361 0.970 . S
C371 C367 1.532 . S
C371 C372 1.499 . S
C372 C371 1.499 . S
C372 C373 1.370 . S
C372 C377 1.415 . S
C373 H362 0.930 . S
C373 C372 1.370 . S
C373 C374 1.407 . S
C374 C373 1.407 . S
C374 C375 1.365 . S
C375 H363 0.930 . S
C375 C374 1.365 . S
C375 C376 1.393 . S
C376 C375 1.393 . S
C376 C377 1.387 . S
C377 H364 0.930 . S
C377 C372 1.415 . S
C377 C376 1.387 . S
H378 C386 0.930 . S
H379 C389 0.930 . S
H380 C391 0.930 . S
H381 C392 0.970 . S
H382 C392 0.970 . S
H383 C394 0.930 . S
H384 C396 0.930 . S
H385 C398 0.930 . S
C386 H378 0.930 . S
C386 C387 1.382 . S
C386 C388 1.426 . S
C387 C386 1.382 . S
C387 C391 1.389 . S
C388 C386 1.426 . S
C388 C389 1.375 . S
C388 C392 1.532 . S
C389 H379 0.930 . S
C389 C388 1.375 . S
C389 C390 1.416 . S
C390 C389 1.416 . S
C390 C391 1.371 . S
C391 H380 0.930 . S
C391 C387 1.389 . S
C391 C390 1.371 . S
C392 H381 0.970 . S
C392 H382 0.970 . S
C392 C388 1.532 . S
C392 C393 1.499 . S
C393 C392 1.499 . S
C393 C394 1.370 . S
C393 C398 1.415 . S
C394 H383 0.930 . S
C394 C393 1.370 . S
C394 C395 1.407 . S
C395 C394 1.407 . S
C395 C396 1.365 . S
C396 H384 0.930 . S
C396 C395 1.365 . S
C396 C397 1.393 . S
C397 C396 1.393 . S
C397 C398 1.387 . S
C398 H385 0.930 . S
C398 C393 1.415 . S
C398 C397 1.387 . S
H399 C407 0.930 . S
H400 C410 0.930 . S
H401 C412 0.930 . S
H402 C413 0.970 . S
H403 C413 0.970 . S
H404 C415 0.930 . S
H405 C417 0.930 . S
H406 C419 0.930 . S
C407 H399 0.930 . S
C407 C408 1.382 . S
C407 C409 1.426 . S
C408 C407 1.382 . S
C408 C412 1.389 . S
C409 C407 1.426 . S
C409 C410 1.375 . S
C409 C413 1.532 . S
C410 H400 0.930 . S
C410 C409 1.375 . S
C410 C411 1.416 . S
C411 C410 1.416 . S
C411 C412 1.371 . S
C412 H401 0.930 . S
C412 C408 1.389 . S
C412 C411 1.371 . S
C413 H402 0.970 . S
C413 H403 0.970 . S
C413 C409 1.532 . S
C413 C414 1.499 . S
C414 C413 1.499 . S
C414 C415 1.370 . S
C414 C419 1.415 . S
C415 H404 0.930 . S
C415 C414 1.370 . S
C415 C416 1.407 . S
C416 C415 1.407 . S
C416 C417 1.365 . S
C417 H405 0.930 . S
C417 C416 1.365 . S
C417 C418 1.393 . S
C418 C417 1.393 . S
C418 C419 1.387 . S
C419 H406 0.930 . S
C419 C414 1.415 . S
C419 C418 1.387 . S
H420 C428 0.930 . S
H421 C431 0.930 . S
H422 C433 0.930 . S
H423 C434 0.970 . S
H424 C434 0.970 . S
H425 C436 0.930 . S
H426 C438 0.930 . S
H427 C440 0.930 . S
C428 H420 0.930 . S
C428 C429 1.382 . S
C428 C430 1.426 . S
C429 C428 1.382 . S
C429 C433 1.389 . S
C430 C428 1.426 . S
C430 C431 1.375 . S
C430 C434 1.532 . S
C431 H421 0.930 . S
C431 C430 1.375 . S
C431 C432 1.416 . S
C432 C431 1.416 . S
C432 C433 1.371 . S
C433 H422 0.930 . S
C433 C429 1.389 . S
C433 C432 1.371 . S
C434 H423 0.970 . S
C434 H424 0.970 . S
C434 C430 1.532 . S
C434 C435 1.499 . S
C435 C434 1.499 . S
C435 C436 1.370 . S
C435 C440 1.415 . S
C436 H425 0.930 . S
C436 C435 1.370 . S
C436 C437 1.407 . S
C437 C436 1.407 . S
C437 C438 1.365 . S
C438 H426 0.930 . S
C438 C437 1.365 . S
C438 C439 1.393 . S
C439 C438 1.393 . S
C439 C440 1.387 . S
C440 H427 0.930 . S
C440 C435 1.415 . S
C440 C439 1.387 . S
H441 C449 0.930 . S
H442 C452 0.930 . S
H443 C454 0.930 . S
H444 C455 0.970 . S
H445 C455 0.970 . S
H446 C457 0.930 . S
H447 C459 0.930 . S
H448 C461 0.930 . S
C449 H441 0.930 . S
C449 C450 1.382 . S
C449 C451 1.426 . S
C450 C449 1.382 . S
C450 C454 1.389 1_455 S
C451 C449 1.426 . S
C451 C452 1.375 . S
C451 C455 1.532 . S
C452 H442 0.930 . S
C452 C451 1.375 . S
C452 C453 1.416 . S
C453 C452 1.416 . S
C453 C454 1.371 1_455 S
C454 H443 0.930 . S
C454 C450 1.389 1_655 S
C454 C453 1.371 1_655 S
C455 H444 0.970 . S
C455 H445 0.970 . S
C455 C451 1.532 . S
C455 C456 1.499 . S
C456 C455 1.499 . S
C456 C457 1.370 . S
C456 C461 1.415 . S
C457 H446 0.930 . S
C457 C456 1.370 . S
C457 C458 1.411 . S
C458 C457 1.411 . S
C458 C459 1.369 1_455 S
C459 H447 0.930 . S
C459 C458 1.369 1_655 S
C459 C460 1.393 1_655 S
C460 C459 1.393 1_455 S
C460 C461 1.387 . S
C461 H448 0.930 . S
C461 C456 1.415 . S
C461 C460 1.387 . S
H462 C470 0.930 . S
H463 C473 0.930 . S
H464 C475 0.930 . S
H465 C476 0.970 . S
H466 C476 0.970 . S
H467 C478 0.930 . S
H468 C480 0.930 . S
H469 C482 0.930 . S
C470 H462 0.930 . S
C470 C471 1.382 . S
C470 C472 1.426 . S
C471 C470 1.382 . S
C471 C475 1.389 . S
C472 C470 1.426 . S
C472 C473 1.375 . S
C472 C476 1.532 . S
C473 H463 0.930 . S
C473 C472 1.375 . S
C473 C474 1.416 . S
C474 C473 1.416 . S
C474 C475 1.371 . S
C475 H464 0.930 . S
C475 C471 1.389 . S
C475 C474 1.371 . S
C476 H465 0.970 . S
C476 H466 0.970 . S
C476 C472 1.532 . S
C476 C477 1.499 . S
C477 C476 1.499 . S
C477 C478 1.370 . S
C477 C482 1.415 . S
C478 H467 0.930 . S
C478 C477 1.370 . S
C478 C479 1.407 . S
C479 C478 1.407 . S
C479 C480 1.365 . S
C480 H468 0.930 . S
C480 C479 1.365 . S
C480 C481 1.393 . S
C481 C480 1.393 . S
C481 C482 1.387 . S
C482 H469 0.930 . S
C482 C477 1.415 . S
C482 C481 1.387 . S
H483 C491 0.930 . S
H484 C494 0.930 . S
H485 C496 0.930 . S
H486 C497 0.970 . S
H487 C497 0.970 . S
H488 C499 0.930 . S
H489 C501 0.930 . S
H490 C503 0.930 . S
C491 H483 0.930 . S
C491 C492 1.382 . S
C491 C493 1.426 . S
C492 C491 1.382 . S
C492 C496 1.389 1_565 S
C493 C491 1.426 . S
C493 C494 1.375 . S
C493 C497 1.532 . S
C494 H484 0.930 . S
C494 C493 1.375 . S
C494 C495 1.416 . S
C495 C494 1.416 . S
C495 C496 1.371 1_565 S
C496 H485 0.930 . S
C496 C492 1.389 1_545 S
C496 C495 1.371 1_545 S
C497 H486 0.970 . S
C497 H487 0.970 . S
C497 C493 1.532 . S
C497 C498 1.499 . S
C498 C497 1.499 . S
C498 C499 1.370 . S
C498 C503 1.415 . S
C499 H488 0.930 . S
C499 C498 1.370 . S
C499 C500 1.451 . S
C500 C499 1.451 . S
C500 C501 1.347 1_565 S
C501 H489 0.930 . S
C501 C500 1.347 1_545 S
C501 C502 1.393 1_545 S
C502 C501 1.393 1_565 S
C502 C503 1.387 . S
C503 H490 0.930 . S
C503 C498 1.415 . S
C503 C502 1.387 . S
H504 C512 0.930 . S
H505 C515 0.930 . S
H506 C517 0.930 . S
H507 C518 0.970 . S
H508 C518 0.970 . S
H509 C520 0.930 . S
H510 C522 0.930 . S
H511 C524 0.930 . S
C512 H504 0.930 . S
C512 C513 1.382 . S
C512 C514 1.426 . S
C513 C512 1.382 . S
C513 C517 1.389 1_565 S
C514 C512 1.426 . S
C514 C515 1.375 . S
C514 C518 1.532 . S
C515 H505 0.930 . S
C515 C514 1.375 . S
C515 C516 1.416 . S
C516 C515 1.416 . S
C516 C517 1.371 1_565 S
C517 H506 0.930 . S
C517 C513 1.389 1_545 S
C517 C516 1.371 1_545 S
C518 H507 0.970 . S
C518 H508 0.970 . S
C518 C514 1.532 . S
C518 C519 1.499 . S
C519 C518 1.499 . S
C519 C520 1.370 . S
C519 C524 1.415 . S
C520 H509 0.930 . S
C520 C519 1.370 . S
C520 C521 1.407 . S
C521 C520 1.407 . S
C521 C522 1.365 1_565 S
C522 H510 0.930 . S
C522 C521 1.365 1_545 S
C522 C523 1.393 1_545 S
C523 C522 1.393 1_565 S
C523 C524 1.387 . S
C524 H511 0.930 . S
C524 C519 1.415 . S
C524 C523 1.387 . S
H525 C533 0.930 . S
H526 C536 0.930 . S
H527 C538 0.930 . S
H528 C539 0.970 . S
H529 C539 0.970 . S
H530 C541 0.930 . S
H531 C543 0.930 . S
H532 C545 0.930 . S
C533 H525 0.930 . S
C533 C534 1.382 . S
C533 C535 1.426 . S
C534 C533 1.382 . S
C534 C538 1.389 1_455 S
C535 C533 1.426 . S
C535 C536 1.375 . S
C535 C539 1.532 . S
C536 H526 0.930 . S
C536 C535 1.375 . S
C536 C537 1.416 . S
C537 C536 1.416 . S
C537 C538 1.371 1_455 S
C538 H527 0.930 . S
C538 C534 1.389 1_655 S
C538 C537 1.371 1_655 S
C539 H528 0.970 . S
C539 H529 0.970 . S
C539 C535 1.532 . S
C539 C540 1.499 . S
C540 C539 1.499 . S
C540 C541 1.370 . S
C540 C545 1.415 . S
C541 H530 0.930 . S
C541 C540 1.370 . S
C541 C542 1.407 . S
C542 C541 1.407 . S
C542 C543 1.365 1_455 S
C543 H531 0.930 . S
C543 C542 1.365 1_655 S
C543 C544 1.393 1_655 S
C544 C543 1.393 1_455 S
C544 C545 1.387 . S
C545 H532 0.930 . S
C545 C540 1.415 . S
C545 C544 1.387 . S
H546 C554 0.930 . S
H547 C557 0.930 . S
H548 C559 0.930 . S
H549 C560 0.970 . S
H550 C560 0.970 . S
H551 C562 0.930 . S
H552 C564 0.930 . S
H553 C566 0.930 . S
C554 H546 0.930 . S
C554 C555 1.382 . S
C554 C556 1.426 . S
C555 C554 1.382 . S
C555 C559 1.389 . S
C556 C554 1.426 . S
C556 C557 1.375 . S
C556 C560 1.532 . S
C557 H547 0.930 . S
C557 C556 1.375 . S
C557 C558 1.416 . S
C558 C557 1.416 . S
C558 C559 1.371 . S
C559 H548 0.930 . S
C559 C555 1.389 . S
C559 C558 1.371 . S
C560 H549 0.970 . S
C560 H550 0.970 . S
C560 C556 1.532 . S
C560 C561 1.499 . S
C561 C560 1.499 . S
C561 C562 1.370 . S
C561 C566 1.415 . S
C562 H551 0.930 . S
C562 C561 1.370 . S
C562 C563 1.407 . S
C563 C562 1.407 . S
C563 C564 1.365 . S
C564 H552 0.930 . S
C564 C563 1.365 . S
C564 C565 1.393 . S
C565 C564 1.393 . S
C565 C566 1.387 . S
C566 H553 0.930 . S
C566 C561 1.415 . S
C566 C565 1.387 . S
H567 C575 0.930 . S
H568 C578 0.930 . S
H569 C580 0.930 . S
H570 C581 0.970 . S
H571 C581 0.970 . S
H572 C583 0.930 . S
H573 C585 0.930 . S
H574 C587 0.930 . S
C575 H567 0.930 . S
C575 C576 1.382 . S
C575 C577 1.426 . S
C576 C575 1.382 . S
C576 C580 1.389 . S
C577 C575 1.426 . S
C577 C578 1.375 . S
C577 C581 1.532 . S
C578 H568 0.930 . S
C578 C577 1.375 . S
C578 C579 1.416 . S
C579 C578 1.416 . S
C579 C580 1.371 . S
C580 H569 0.930 . S
C580 C576 1.389 . S
C580 C579 1.371 . S
C581 H570 0.970 . S
C581 H571 0.970 . S
C581 C577 1.532 . S
C581 C582 1.499 . S
C582 C581 1.499 . S
C582 C583 1.370 . S
C582 C587 1.415 . S
C583 H572 0.930 . S
C583 C582 1.370 . S
C583 C584 1.407 . S
C584 C583 1.407 . S
C584 C585 1.365 . S
C585 H573 0.930 . S
C585 C584 1.365 . S
C585 C586 1.393 . S
C586 C585 1.393 . S
C586 C587 1.387 . S
C587 H574 0.930 . S
C587 C582 1.415 . S
C587 C586 1.387 . S
H588 C596 0.930 . S
H589 C599 0.930 . S
H590 C601 0.930 . S
H591 C602 0.970 . S
H592 C602 0.970 . S
H593 C604 0.930 . S
H594 C606 0.930 . S
H595 C608 0.930 . S
C596 H588 0.930 . S
C596 C597 1.382 . S
C596 C598 1.426 . S
C597 C596 1.382 . S
C597 C601 1.389 . S
C598 C596 1.426 . S
C598 C599 1.375 . S
C598 C602 1.532 . S
C599 H589 0.930 . S
C599 C598 1.375 . S
C599 C600 1.416 . S
C600 C599 1.416 . S
C600 C601 1.371 . S
C601 H590 0.930 . S
C601 C597 1.389 . S
C601 C600 1.371 . S
C602 H591 0.970 . S
C602 H592 0.970 . S
C602 C598 1.532 . S
C602 C603 1.499 . S
C603 C602 1.499 . S
C603 C604 1.370 . S
C603 C608 1.415 . S
C604 H593 0.930 . S
C604 C603 1.370 . S
C604 C605 1.407 . S
C605 C604 1.407 . S
C605 C606 1.365 . S
C606 H594 0.930 . S
C606 C605 1.365 . S
C606 C607 1.393 . S
C607 C606 1.393 . S
C607 C608 1.387 . S
C608 H595 0.930 . S
C608 C603 1.415 . S
C608 C607 1.387 . S
H609 C617 0.930 . S
H610 C620 0.930 . S
H611 C622 0.930 . S
H612 C623 0.970 . S
H613 C623 0.970 . S
H614 C625 0.930 . S
H615 C627 0.930 . S
H616 C629 0.930 . S
C617 H609 0.930 . S
C617 C618 1.382 . S
C617 C619 1.426 . S
C618 C617 1.382 . S
C618 C622 1.389 . S
C619 C617 1.426 . S
C619 C620 1.375 . S
C619 C623 1.532 . S
C620 H610 0.930 . S
C620 C619 1.375 . S
C620 C621 1.416 . S
C621 C620 1.416 . S
C621 C622 1.371 . S
C622 H611 0.930 . S
C622 C618 1.389 . S
C622 C621 1.371 . S
C623 H612 0.970 . S
C623 H613 0.970 . S
C623 C619 1.532 . S
C623 C624 1.499 . S
C624 C623 1.499 . S
C624 C625 1.370 . S
C624 C629 1.415 . S
C625 H614 0.930 . S
C625 C624 1.370 . S
C625 C626 1.407 . S
C626 C625 1.407 . S
C626 C627 1.365 . S
C627 H615 0.930 . S
C627 C626 1.365 . S
C627 C628 1.393 . S
C628 C627 1.393 . S
C628 C629 1.387 . S
C629 H616 0.930 . S
C629 C624 1.415 . S
C629 C628 1.387 . S
H630 C636 0.930 . S
H631 C640 0.930 . S
H632 C645 0.929 . S
H633 C643 0.929 . S
H634 C638 0.929 . S
H635 C644 0.929 . S
C636 H630 0.930 . S
C636 C637 1.347 1_655 S
C636 C644 1.378 . S
C637 C636 1.347 1_455 S
C637 C645 1.440 . S
C638 H634 0.929 . S
C638 C640 1.378 . S
C638 C642 1.350 1_455 S
C639 C642 1.463 . S
C639 C644 1.350 . S
C639 N647 1.427 1_655 S
C640 H631 0.930 . S
C640 C638 1.378 . S
C640 C641 1.367 1_455 S
C641 C640 1.367 1_655 S
C641 C643 1.433 . S
C642 C638 1.350 1_655 S
C642 C639 1.463 . S
C642 N646 1.427 . S
C643 H633 0.929 . S
C643 C641 1.433 . S
C643 N646 1.384 . S
C644 H635 0.929 . S
C644 C636 1.378 . S
C644 C639 1.350 . S
C645 H632 0.929 . S
C645 C637 1.440 . S
C645 N647 1.384 . S
N646 C642 1.427 . S
N646 C643 1.384 . S
N647 C639 1.427 1_455 S
N647 C645 1.384 . S
H648 C654 0.930 . S
H649 C658 0.930 . S
H650 C663 0.929 . S
H651 C661 0.929 . S
H652 C656 0.929 . S
H653 C662 0.929 . S
C654 H648 0.930 . S
C654 C655 1.367 . S
C654 C662 1.378 . S
C655 C654 1.367 . S
C655 C663 1.433 . S
C656 H652 0.929 . S
C656 C658 1.378 . S
C656 C660 1.350 . S
C657 C660 1.463 . S
C657 C662 1.350 . S
C657 N665 1.427 . S
C658 H649 0.930 . S
C658 C656 1.378 . S
C658 C659 1.367 . S
C659 C658 1.367 . S
C659 C661 1.433 . S
C660 C656 1.350 . S
C660 C657 1.463 . S
C660 N664 1.427 . S
C661 H651 0.929 . S
C661 C659 1.433 . S
C661 N664 1.384 . S
C662 H653 0.929 . S
C662 C654 1.378 . S
C662 C657 1.350 . S
C663 H650 0.929 . S
C663 C655 1.433 . S
C663 N665 1.384 . S
N664 C660 1.427 . S
N664 C661 1.384 . S
N665 C657 1.427 . S
N665 C663 1.384 . S
H666 C672 0.930 . S
H667 C676 0.930 . S
H668 C681 0.929 . S
H669 C679 0.929 . S
H670 C674 0.929 . S
H671 C680 0.929 . S
C672 H666 0.930 . S
C672 C673 1.433 . S
C672 C680 1.378 . S
C673 C672 1.433 . S
C673 C681 1.392 1_565 S
C674 H670 0.929 . S
C674 C676 1.378 . S
C674 C678 1.350 . S
C675 C678 1.457 . S
C675 C680 1.340 1_545 S
C675 N683 1.444 . S
C676 H667 0.930 . S
C676 C674 1.378 . S
C676 C677 1.367 . S
C677 C676 1.367 . S
C677 C679 1.433 1_545 S
C678 C674 1.350 . S
C678 C675 1.457 . S
C678 N682 1.427 1_545 S
C679 H669 0.929 . S
C679 C677 1.433 1_565 S
C679 N682 1.384 . S
C680 H671 0.929 . S
C680 C672 1.378 . S
C680 C675 1.340 1_565 S
C681 H668 0.929 . S
C681 C673 1.392 1_545 S
C681 N683 1.384 . S
N682 C678 1.427 1_565 S
N682 C679 1.384 . S
N683 C675 1.444 . S
N683 C681 1.384 . S
H684 C690 0.930 . S
H685 C694 0.930 . S
H686 C699 0.929 . S
H687 C697 0.929 . S
H688 C692 0.929 . S
H689 C698 0.929 . S
C690 H684 0.930 . S
C690 C691 1.361 1_565 S
C690 C698 1.378 . S
C691 C690 1.361 1_545 S
C691 C699 1.436 . S
C692 H688 0.929 . S
C692 C694 1.378 . S
C692 C696 1.350 1_545 S
C693 C696 1.463 . S
C693 C698 1.350 . S
C693 N701 1.427 1_565 S
C694 H685 0.930 . S
C694 C692 1.378 . S
C694 C695 1.367 1_545 S
C695 C694 1.367 1_565 S
C695 C697 1.433 . S
C696 C692 1.350 1_565 S
C696 C693 1.463 . S
C696 N700 1.427 . S
C697 H687 0.929 . S
C697 C695 1.433 . S
C697 N700 1.384 . S
C698 H689 0.929 . S
C698 C690 1.378 . S
C698 C693 1.350 . S
C699 H686 0.929 . S
C699 C691 1.436 . S
C699 N701 1.384 . S
N700 C696 1.427 . S
N700 C697 1.384 . S
N701 C693 1.427 1_545 S
N701 C699 1.384 . S
H702 C708 0.930 . S
H703 C712 0.930 . S
H704 C717 0.929 . S
H705 C715 0.929 . S
H706 C710 0.929 . S
H707 C716 0.929 . S
C708 H702 0.930 . S
C708 C709 1.394 . S
C708 C716 1.378 . S
C709 C708 1.394 . S
C709 C717 1.428 1_655 S
C710 H706 0.929 . S
C710 C712 1.378 . S
C710 C714 1.350 . S
C711 C714 1.451 . S
C711 C716 1.347 1_455 S
C711 N719 1.443 . S
C712 H703 0.930 . S
C712 C710 1.378 . S
C712 C713 1.367 . S
C713 C712 1.367 . S
C713 C715 1.433 1_455 S
C714 C710 1.350 . S
C714 C711 1.451 . S
C714 N718 1.427 1_455 S
C715 H705 0.929 . S
C715 C713 1.433 1_655 S
C715 N718 1.384 . S
C716 H707 0.929 . S
C716 C708 1.378 . S
C716 C711 1.347 1_655 S
C717 H704 0.929 . S
C717 C709 1.428 1_455 S
C717 N719 1.384 . S
N718 C714 1.427 1_655 S
N718 C715 1.384 . S
N719 C711 1.443 . S
N719 C717 1.384 . S
H720 C726 0.930 . S
H721 C730 0.930 . S
H722 C735 0.929 . S
H723 C733 0.929 . S
H724 C728 0.929 . S
H725 C734 0.929 . S
C726 H720 0.930 . S
C726 C727 1.367 . S
C726 C734 1.378 . S
C727 C726 1.367 . S
C727 C735 1.433 . S
C728 H724 0.929 . S
C728 C730 1.378 . S
C728 C732 1.350 . S
C729 C732 1.463 . S
C729 C734 1.350 . S
C729 N737 1.427 . S
C730 H721 0.930 . S
C730 C728 1.378 . S
C730 C731 1.367 . S
C731 C730 1.367 . S
C731 C733 1.433 . S
C732 C728 1.350 . S
C732 C729 1.463 . S
C732 N736 1.427 . S
C733 H723 0.929 . S
C733 C731 1.433 . S
C733 N736 1.384 . S
C734 H725 0.929 . S
C734 C726 1.378 . S
C734 C729 1.350 . S
C735 H722 0.929 . S
C735 C727 1.433 . S
C735 N737 1.384 . S
N736 C732 1.427 . S
N736 C733 1.384 . S
N737 C729 1.427 . S
N737 C735 1.384 . S
H738 C744 0.930 . S
H739 C748 0.930 . S
H740 C753 0.929 . S
H741 C751 0.929 . S
H742 C746 0.929 . S
H743 C752 0.929 . S
C744 H738 0.930 . S
C744 C745 1.341 1_455 S
C744 C752 1.378 . S
C745 C744 1.341 1_655 S
C745 C753 1.443 . S
C746 H742 0.929 . S
C746 C748 1.378 . S
C746 C750 1.358 . S
C747 C750 1.475 1_455 S
C747 C752 1.348 . S
C747 N755 1.432 1_455 S
C748 H739 0.930 . S
C748 C746 1.378 . S
C748 C749 1.369 1_655 S
C749 C748 1.369 1_455 S
C749 C751 1.432 . S
C750 C746 1.358 . S
C750 C747 1.475 1_655 S
C750 N754 1.404 1_655 S
C751 H741 0.929 . S
C751 C749 1.432 . S
C751 N754 1.384 . S
C752 H743 0.929 . S
C752 C744 1.378 . S
C752 C747 1.348 . S
C753 H740 0.929 . S
C753 C745 1.443 . S
C753 N755 1.384 . S
N754 C750 1.404 1_455 S
N754 C751 1.384 . S
N755 C747 1.432 1_655 S
N755 C753 1.384 . S
H756 C762 0.930 . S
H757 C766 0.930 . S
H758 C771 0.929 . S
H759 C769 0.929 . S
H760 C764 0.929 . S
H761 C770 0.929 . S
C762 H756 0.930 . S
C762 C763 1.367 . S
C762 C770 1.378 . S
C763 C762 1.367 . S
C763 C771 1.433 . S
C764 H760 0.929 . S
C764 C766 1.378 . S
C764 C768 1.350 . S
C765 C768 1.463 . S
C765 C770 1.350 . S
C765 N773 1.427 . S
C766 H757 0.930 . S
C766 C764 1.378 . S
C766 C767 1.367 . S
C767 C766 1.367 . S
C767 C769 1.433 . S
C768 C764 1.350 . S
C768 C765 1.463 . S
C768 N772 1.427 . S
C769 H759 0.929 . S
C769 C767 1.433 . S
C769 N772 1.384 . S
C770 H761 0.929 . S
C770 C762 1.378 . S
C770 C765 1.350 . S
C771 H758 0.929 . S
C771 C763 1.433 . S
C771 N773 1.384 . S
N772 C768 1.427 . S
N772 C769 1.384 . S
N773 C765 1.427 . S
N773 C771 1.384 . S
H774 C780 0.930 . S
H775 C784 0.930 . S
H776 C789 0.929 . S
H777 C787 0.929 . S
H778 C782 0.929 . S
H779 C788 0.929 . S
C780 H774 0.930 . S
C780 C781 1.367 . S
C780 C788 1.378 . S
C781 C780 1.367 . S
C781 C789 1.433 1_545 S
C782 H778 0.929 . S
C782 C784 1.378 . S
C782 C786 1.349 . S
C783 C786 1.483 1_545 S
C783 C788 1.377 . S
C783 N791 1.379 1_545 S
C784 H775 0.930 . S
C784 C782 1.378 . S
C784 C785 1.387 . S
C785 C784 1.387 . S
C785 C787 1.422 1_565 S
C786 C782 1.349 . S
C786 C783 1.483 1_565 S
C786 N790 1.429 1_565 S
C787 H777 0.929 . S
C787 C785 1.422 1_545 S
C787 N790 1.384 . S
C788 H779 0.929 . S
C788 C780 1.378 . S
C788 C783 1.377 . S
C789 H776 0.929 . S
C789 C781 1.433 1_565 S
C789 N791 1.384 . S
N790 C786 1.429 1_545 S
N790 C787 1.384 . S
N791 C783 1.379 1_565 S
N791 C789 1.384 . S
H792 C798 0.930 . S
H793 C802 0.930 . S
H794 C807 0.929 . S
H795 C805 0.929 . S
H796 C800 0.929 . S
H797 C806 0.929 . S
C798 H792 0.930 . S
C798 C799 1.356 1_545 S
C798 C806 1.378 . S
C799 C798 1.356 1_565 S
C799 C807 1.439 . S
C800 H796 0.929 . S
C800 C802 1.378 . S
C800 C804 1.367 . S
C801 C804 1.484 1_545 S
C801 C806 1.359 . S
C801 N809 1.410 1_545 S
C802 H793 0.930 . S
C802 C800 1.378 . S
C802 C803 1.369 1_565 S
C803 C802 1.369 1_545 S
C803 C805 1.432 . S
C804 C800 1.367 . S
C804 C801 1.484 1_565 S
C804 N808 1.397 1_565 S
C805 H795 0.929 . S
C805 C803 1.432 . S
C805 N808 1.384 . S
C806 H797 0.929 . S
C806 C798 1.378 . S
C806 C801 1.359 . S
C807 H794 0.929 . S
C807 C799 1.439 . S
C807 N809 1.384 . S
N808 C804 1.397 1_545 S
N808 C805 1.384 . S
N809 C801 1.410 1_565 S
N809 C807 1.384 . S
H810 C816 0.930 . S
H811 C820 0.930 . S
H812 C825 0.929 . S
H813 C823 0.929 . S
H814 C818 0.929 . S
H815 C824 0.929 . S
C816 H810 0.930 . S
C816 C817 1.373 1_655 S
C816 C824 1.378 . S
C817 C816 1.373 1_455 S
C817 C825 1.454 . S
C818 H814 0.929 . S
C818 C820 1.378 . S
C818 C822 1.362 . S
C819 C822 1.454 . S
C819 C824 1.345 1_455 S
C819 N827 1.427 . S
C820 H811 0.930 . S
C820 C818 1.378 . S
C820 C821 1.366 1_455 S
C821 C820 1.366 1_655 S
C821 C823 1.432 . S
C822 C818 1.362 . S
C822 C819 1.454 . S
C822 N826 1.430 1_455 S
C823 H813 0.929 . S
C823 C821 1.432 . S
C823 N826 1.384 . S
C824 H815 0.929 . S
C824 C816 1.378 . S
C824 C819 1.345 1_655 S
C825 H812 0.929 . S
C825 C817 1.454 . S
C825 N827 1.384 . S
N826 C822 1.430 1_655 S
N826 C823 1.384 . S
N827 C819 1.427 . S
N827 C825 1.384 . S
H828 C834 0.930 . S
H829 C838 0.930 . S
H830 C843 0.929 . S
H831 C841 0.929 . S
H832 C836 0.929 . S
H833 C842 0.929 . S
C834 H828 0.930 . S
C834 C835 1.367 . S
C834 C842 1.378 . S
C835 C834 1.367 . S
C835 C843 1.433 . S
C836 H832 0.929 . S
C836 C838 1.378 . S
C836 C840 1.350 . S
C837 C840 1.463 . S
C837 C842 1.350 . S
C837 N845 1.427 . S
C838 H829 0.930 . S
C838 C836 1.378 . S
C838 C839 1.367 . S
C839 C838 1.367 . S
C839 C841 1.433 . S
C840 C836 1.350 . S
C840 C837 1.463 . S
C840 N844 1.427 . S
C841 H831 0.929 . S
C841 C839 1.433 . S
C841 N844 1.384 . S
C842 H833 0.929 . S
C842 C834 1.378 . S
C842 C837 1.350 . S
C843 H830 0.929 . S
C843 C835 1.433 . S
C843 N845 1.384 . S
N844 C840 1.427 . S
N844 C841 1.384 . S
N845 C837 1.427 . S
N845 C843 1.384 . S
H846 C852 0.930 . S
H847 C856 0.930 . S
H848 C861 0.929 . S
H849 C859 0.929 . S
H850 C854 0.929 . S
H851 C860 0.929 . S
C852 H846 0.930 . S
C852 C853 1.367 . S
C852 C860 1.378 . S
C853 C852 1.367 . S
C853 C861 1.433 . S
C854 H850 0.929 . S
C854 C856 1.378 . S
C854 C858 1.350 . S
C855 C858 1.463 . S
C855 C860 1.350 . S
C855 N863 1.427 . S
C856 H847 0.930 . S
C856 C854 1.378 . S
C856 C857 1.367 . S
C857 C856 1.367 . S
C857 C859 1.433 . S
C858 C854 1.350 . S
C858 C855 1.463 . S
C858 N862 1.427 . S
C859 H849 0.929 . S
C859 C857 1.433 . S
C859 N862 1.384 . S
C860 H851 0.929 . S
C860 C852 1.378 . S
C860 C855 1.350 . S
C861 H848 0.929 . S
C861 C853 1.433 . S
C861 N863 1.384 . S
N862 C858 1.427 . S
N862 C859 1.384 . S
N863 C855 1.427 . S
N863 C861 1.384 . S
H864 C870 0.930 . S
H865 C874 0.930 . S
H866 C879 0.929 . S
H867 C877 0.929 . S
H868 C872 0.929 . S
H869 C878 0.929 . S
C870 H864 0.930 . S
C870 C871 1.367 . S
C870 C878 1.378 . S
C871 C870 1.367 . S
C871 C879 1.433 . S
C872 H868 0.929 . S
C872 C874 1.378 . S
C872 C876 1.350 . S
C873 C876 1.463 . S
C873 C878 1.350 . S
C873 N881 1.427 . S
C874 H865 0.930 . S
C874 C872 1.378 . S
C874 C875 1.367 . S
C875 C874 1.367 . S
C875 C877 1.433 . S
C876 C872 1.350 . S
C876 C873 1.463 . S
C876 N880 1.427 . S
C877 H867 0.929 . S
C877 C875 1.433 . S
C877 N880 1.384 . S
C878 H869 0.929 . S
C878 C870 1.378 . S
C878 C873 1.350 . S
C879 H866 0.929 . S
C879 C871 1.433 . S
C879 N881 1.384 . S
N880 C876 1.427 . S
N880 C877 1.384 . S
N881 C873 1.427 . S
N881 C879 1.384 . S
H882 C888 0.930 . S
H883 C892 0.930 . S
H884 C897 0.929 . S
H885 C895 0.929 . S
H886 C890 0.929 . S
H887 C896 0.929 . S
C888 H882 0.930 . S
C888 C889 1.367 . S
C888 C896 1.378 . S
C889 C888 1.367 . S
C889 C897 1.433 . S
C890 H886 0.929 . S
C890 C892 1.378 . S
C890 C894 1.350 . S
C891 C894 1.463 . S
C891 C896 1.350 . S
C891 N899 1.427 . S
C892 H883 0.930 . S
C892 C890 1.378 . S
C892 C893 1.367 . S
C893 C892 1.367 . S
C893 C895 1.433 . S
C894 C890 1.350 . S
C894 C891 1.463 . S
C894 N898 1.427 . S
C895 H885 0.929 . S
C895 C893 1.433 . S
C895 N898 1.384 . S
C896 H887 0.929 . S
C896 C888 1.378 . S
C896 C891 1.350 . S
C897 H884 0.929 . S
C897 C889 1.433 . S
C897 N899 1.384 . S
N898 C894 1.427 . S
N898 C895 1.384 . S
N899 C891 1.427 . S
N899 C897 1.384 . S
H900 C906 0.930 . S
H901 C910 0.930 . S
H902 C915 0.929 . S
H903 C913 0.929 . S
H904 C908 0.929 . S
H905 C914 0.929 . S
C906 H900 0.930 . S
C906 C907 1.367 . S
C906 C914 1.378 . S
C907 C906 1.367 . S
C907 C915 1.433 . S
C908 H904 0.929 . S
C908 C910 1.378 . S
C908 C912 1.350 . S
C909 C912 1.463 . S
C909 C914 1.350 . S
C909 N917 1.427 . S
C910 H901 0.930 . S
C910 C908 1.378 . S
C910 C911 1.367 . S
C911 C910 1.367 . S
C911 C913 1.433 . S
C912 C908 1.350 . S
C912 C909 1.463 . S
C912 N916 1.427 . S
C913 H903 0.929 . S
C913 C911 1.433 . S
C913 N916 1.384 . S
C914 H905 0.929 . S
C914 C906 1.378 . S
C914 C909 1.350 . S
C915 H902 0.929 . S
C915 C907 1.433 . S
C915 N917 1.384 . S
N916 C912 1.427 . S
N916 C913 1.384 . S
N917 C909 1.427 . S
N917 C915 1.384 . S
H918 C924 0.930 . S
H919 C928 0.930 . S
H920 C933 0.929 . S
H921 C931 0.929 . S
H922 C926 0.929 . S
H923 C932 0.929 . S
C924 H918 0.930 . S
C924 C925 1.367 . S
C924 C932 1.378 . S
C925 C924 1.367 . S
C925 C933 1.433 . S
C926 H922 0.929 . S
C926 C928 1.378 . S
C926 C930 1.350 . S
C927 C930 1.463 . S
C927 C932 1.350 . S
C927 N935 1.427 . S
C928 H919 0.930 . S
C928 C926 1.378 . S
C928 C929 1.367 . S
C929 C928 1.367 . S
C929 C931 1.433 . S
C930 C926 1.350 . S
C930 C927 1.463 . S
C930 N934 1.427 . S
C931 H921 0.929 . S
C931 C929 1.433 . S
C931 N934 1.384 . S
C932 H923 0.929 . S
C932 C924 1.378 . S
C932 C927 1.350 . S
C933 H920 0.929 . S
C933 C925 1.433 . S
C933 N935 1.384 . S
N934 C930 1.427 . S
N934 C931 1.384 . S
N935 C927 1.427 . S
N935 C933 1.384 . S
H936 C942 0.930 . S
H937 C946 0.930 . S
H938 C951 0.929 . S
H939 C949 0.929 . S
H940 C944 0.929 . S
H941 C950 0.929 . S
C942 H936 0.930 . S
C942 C943 1.367 . S
C942 C950 1.378 . S
C943 C942 1.367 . S
C943 C951 1.433 . S
C944 H940 0.929 . S
C944 C946 1.378 . S
C944 C948 1.350 . S
C945 C948 1.463 . S
C945 C950 1.350 . S
C945 N953 1.427 . S
C946 H937 0.930 . S
C946 C944 1.378 . S
C946 C947 1.367 . S
C947 C946 1.367 . S
C947 C949 1.433 . S
C948 C944 1.350 . S
C948 C945 1.463 . S
C948 N952 1.427 . S
C949 H939 0.929 . S
C949 C947 1.433 . S
C949 N952 1.384 . S
C950 H941 0.929 . S
C950 C942 1.378 . S
C950 C945 1.350 . S
C951 H938 0.929 . S
C951 C943 1.433 . S
C951 N953 1.384 . S
N952 C948 1.427 . S
N952 C949 1.384 . S
N953 C945 1.427 . S
N953 C951 1.384 . S
H954 C960 0.930 . S
H955 C964 0.930 . S
H956 C969 0.929 . S
H957 C967 0.929 . S
H958 C962 0.929 . S
H959 C968 0.929 . S
C960 H954 0.930 . S
C960 C961 1.367 . S
C960 C968 1.378 . S
C961 C960 1.367 . S
C961 C969 1.433 . S
C962 H958 0.929 . S
C962 C964 1.378 . S
C962 C966 1.350 . S
C963 C966 1.463 . S
C963 C968 1.350 . S
C963 N971 1.427 . S
C964 H955 0.930 . S
C964 C962 1.378 . S
C964 C965 1.367 . S
C965 C964 1.367 . S
C965 C967 1.433 . S
C966 C962 1.350 . S
C966 C963 1.463 . S
C966 N970 1.427 . S
C967 H957 0.929 . S
C967 C965 1.433 . S
C967 N970 1.384 . S
C968 H959 0.929 . S
C968 C960 1.378 . S
C968 C963 1.350 . S
C969 H956 0.929 . S
C969 C961 1.433 . S
C969 N971 1.384 . S
N970 C966 1.427 . S
N970 C967 1.384 . S
N971 C963 1.427 . S
N971 C969 1.384 . S
H972 C978 0.930 . S
H973 C982 0.930 . S
H974 C987 0.929 . S
H975 C985 0.929 . S
H976 C980 0.929 . S
H977 C986 0.929 . S
C978 H972 0.930 . S
C978 C979 1.367 . S
C978 C986 1.378 . S
C979 C978 1.367 . S
C979 C987 1.433 . S
C980 H976 0.929 . S
C980 C982 1.378 . S
C980 C984 1.350 . S
C981 C984 1.463 . S
C981 C986 1.350 . S
C981 N989 1.427 . S
C982 H973 0.930 . S
C982 C980 1.378 . S
C982 C983 1.367 . S
C983 C982 1.367 . S
C983 C985 1.433 . S
C984 C980 1.350 . S
C984 C981 1.463 . S
C984 N988 1.427 . S
C985 H975 0.929 . S
C985 C983 1.433 . S
C985 N988 1.384 . S
C986 H977 0.929 . S
C986 C978 1.378 . S
C986 C981 1.350 . S
C987 H974 0.929 . S
C987 C979 1.433 . S
C987 N989 1.384 . S
N988 C984 1.427 . S
N988 C985 1.384 . S
N989 C981 1.427 . S
N989 C987 1.384 . S
H990 C996 0.930 . S
H991 C1000 0.930 . S
H992 C1005 0.929 . S
H993 C1003 0.929 . S
H994 C998 0.929 . S
H995 C1004 0.929 . S
C996 H990 0.930 . S
C996 C997 1.367 . S
C996 C1004 1.378 . S
C997 C996 1.367 . S
C997 C1005 1.433 . S
C998 H994 0.929 . S
C998 C1000 1.378 . S
C998 C1002 1.350 . S
C999 C1002 1.463 . S
C999 C1004 1.350 . S
C999 N1007 1.427 . S
C1000 H991 0.930 . S
C1000 C998 1.378 . S
C1000 C1001 1.367 . S
C1001 C1000 1.367 . S
C1001 C1003 1.433 . S
C1002 C998 1.350 . S
C1002 C999 1.463 . S
C1002 N1006 1.427 . S
C1003 H993 0.929 . S
C1003 C1001 1.433 . S
C1003 N1006 1.384 . S
C1004 H995 0.929 . S
C1004 C996 1.378 . S
C1004 C999 1.350 . S
C1005 H992 0.929 . S
C1005 C997 1.433 . S
C1005 N1007 1.384 . S
N1006 C1002 1.427 . S
N1006 C1003 1.384 . S
N1007 C999 1.427 . S
N1007 C1005 1.384 . S
H1008 C1014 0.930 . S
H1009 C1018 0.930 . S
H1010 C1023 0.929 . S
H1011 C1021 0.929 . S
H1012 C1016 0.929 . S
H1013 C1022 0.929 . S
C1014 H1008 0.930 . S
C1014 C1015 1.367 . S
C1014 C1022 1.378 . S
C1015 C1014 1.367 . S
C1015 C1023 1.433 . S
C1016 H1012 0.929 . S
C1016 C1018 1.378 . S
C1016 C1020 1.350 . S
C1017 C1020 1.463 . S
C1017 C1022 1.350 . S
C1017 N1025 1.427 . S
C1018 H1009 0.930 . S
C1018 C1016 1.378 . S
C1018 C1019 1.367 . S
C1019 C1018 1.367 . S
C1019 C1021 1.433 . S
C1020 C1016 1.350 . S
C1020 C1017 1.463 . S
C1020 N1024 1.427 . S
C1021 H1011 0.929 . S
C1021 C1019 1.433 . S
C1021 N1024 1.384 . S
C1022 H1013 0.929 . S
C1022 C1014 1.378 . S
C1022 C1017 1.350 . S
C1023 H1010 0.929 . S
C1023 C1015 1.433 . S
C1023 N1025 1.384 . S
N1024 C1020 1.427 . S
N1024 C1021 1.384 . S
N1025 C1017 1.427 . S
N1025 C1023 1.384 . S
H1026 C1032 0.930 . S
H1027 C1036 0.930 . S
H1028 C1041 0.929 . S
H1029 C1039 0.929 . S
H1030 C1034 0.929 . S
H1031 C1040 0.929 . S
C1032 H1026 0.930 . S
C1032 C1033 1.367 . S
C1032 C1040 1.378 . S
C1033 C1032 1.367 . S
C1033 C1041 1.433 . S
C1034 H1030 0.929 . S
C1034 C1036 1.378 . S
C1034 C1038 1.350 . S
C1035 C1038 1.463 . S
C1035 C1040 1.350 . S
C1035 N1043 1.427 . S
C1036 H1027 0.930 . S
C1036 C1034 1.378 . S
C1036 C1037 1.367 . S
C1037 C1036 1.367 . S
C1037 C1039 1.433 . S
C1038 C1034 1.350 . S
C1038 C1035 1.463 . S
C1038 N1042 1.427 . S
C1039 H1029 0.929 . S
C1039 C1037 1.433 . S
C1039 N1042 1.384 . S
C1040 H1031 0.929 . S
C1040 C1032 1.378 . S
C1040 C1035 1.350 . S
C1041 H1028 0.929 . S
C1041 C1033 1.433 . S
C1041 N1043 1.384 . S
N1042 C1038 1.427 . S
N1042 C1039 1.384 . S
N1043 C1035 1.427 . S
N1043 C1041 1.384 . S
H1044 C1050 0.930 . S
H1045 C1054 0.930 . S
H1046 C1059 0.929 . S
H1047 C1057 0.929 . S
H1048 C1052 0.929 . S
H1049 C1058 0.929 . S
C1050 H1044 0.930 . S
C1050 C1051 1.367 . S
C1050 C1058 1.378 . S
C1051 C1050 1.367 . S
C1051 C1059 1.433 . S
C1052 H1048 0.929 . S
C1052 C1054 1.378 . S
C1052 C1056 1.350 . S
C1053 C1056 1.463 . S
C1053 C1058 1.350 . S
C1053 N1061 1.427 . S
C1054 H1045 0.930 . S
C1054 C1052 1.378 . S
C1054 C1055 1.367 . S
C1055 C1054 1.367 . S
C1055 C1057 1.433 . S
C1056 C1052 1.350 . S
C1056 C1053 1.463 . S
C1056 N1060 1.427 . S
C1057 H1047 0.929 . S
C1057 C1055 1.433 . S
C1057 N1060 1.384 . S
C1058 H1049 0.929 . S
C1058 C1050 1.378 . S
C1058 C1053 1.350 . S
C1059 H1046 0.929 . S
C1059 C1051 1.433 . S
C1059 N1061 1.384 . S
N1060 C1056 1.427 . S
N1060 C1057 1.384 . S
N1061 C1053 1.427 . S
N1061 C1059 1.384 . S
H1062 C1068 0.930 . S
H1063 C1072 0.930 . S
H1064 C1077 0.929 . S
H1065 C1075 0.929 . S
H1066 C1070 0.929 . S
H1067 C1076 0.929 . S
C1068 H1062 0.930 . S
C1068 C1069 1.367 . S
C1068 C1076 1.378 . S
C1069 C1068 1.367 . S
C1069 C1077 1.433 . S
C1070 H1066 0.929 . S
C1070 C1072 1.378 . S
C1070 C1074 1.350 . S
C1071 C1074 1.463 . S
C1071 C1076 1.350 . S
C1071 N1079 1.427 . S
C1072 H1063 0.930 . S
C1072 C1070 1.378 . S
C1072 C1073 1.367 . S
C1073 C1072 1.367 . S
C1073 C1075 1.433 . S
C1074 C1070 1.350 . S
C1074 C1071 1.463 . S
C1074 N1078 1.427 . S
C1075 H1065 0.929 . S
C1075 C1073 1.433 . S
C1075 N1078 1.384 . S
C1076 H1067 0.929 . S
C1076 C1068 1.378 . S
C1076 C1071 1.350 . S
C1077 H1064 0.929 . S
C1077 C1069 1.433 . S
C1077 N1079 1.384 . S
N1078 C1074 1.427 . S
N1078 C1075 1.384 . S
N1079 C1071 1.427 . S
N1079 C1077 1.384 . S
H1080 C1086 0.930 . S
H1081 C1090 0.930 . S
H1082 C1095 0.929 . S
H1083 C1093 0.929 . S
H1084 C1088 0.929 . S
H1085 C1094 0.929 . S
C1086 H1080 0.930 . S
C1086 C1087 1.367 . S
C1086 C1094 1.378 . S
C1087 C1086 1.367 . S
C1087 C1095 1.433 . S
C1088 H1084 0.929 . S
C1088 C1090 1.378 . S
C1088 C1092 1.350 . S
C1089 C1092 1.463 . S
C1089 C1094 1.350 . S
C1089 N1097 1.427 . S
C1090 H1081 0.930 . S
C1090 C1088 1.378 . S
C1090 C1091 1.367 . S
C1091 C1090 1.367 . S
C1091 C1093 1.433 . S
C1092 C1088 1.350 . S
C1092 C1089 1.463 . S
C1092 N1096 1.427 . S
C1093 H1083 0.929 . S
C1093 C1091 1.433 . S
C1093 N1096 1.384 . S
C1094 H1085 0.929 . S
C1094 C1086 1.378 . S
C1094 C1089 1.350 . S
C1095 H1082 0.929 . S
C1095 C1087 1.433 . S
C1095 N1097 1.384 . S
N1096 C1092 1.427 . S
N1096 C1093 1.384 . S
N1097 C1089 1.427 . S
N1097 C1095 1.384 . S
H1098 C1104 0.930 . S
H1099 C1108 0.930 . S
H1100 C1113 0.929 . S
H1101 C1111 0.929 . S
H1102 C1106 0.929 . S
H1103 C1112 0.929 . S
C1104 H1098 0.930 . S
C1104 C1105 1.367 . S
C1104 C1112 1.378 . S
C1105 C1104 1.367 . S
C1105 C1113 1.433 . S
C1106 H1102 0.929 . S
C1106 C1108 1.378 . S
C1106 C1110 1.350 . S
C1107 C1110 1.463 . S
C1107 C1112 1.350 . S
C1107 N1115 1.427 . S
C1108 H1099 0.930 . S
C1108 C1106 1.378 . S
C1108 C1109 1.367 . S
C1109 C1108 1.367 . S
C1109 C1111 1.433 . S
C1110 C1106 1.350 . S
C1110 C1107 1.463 . S
C1110 N1114 1.427 . S
C1111 H1101 0.929 . S
C1111 C1109 1.433 . S
C1111 N1114 1.384 . S
C1112 H1103 0.929 . S
C1112 C1104 1.378 . S
C1112 C1107 1.350 . S
C1113 H1100 0.929 . S
C1113 C1105 1.433 . S
C1113 N1115 1.384 . S
N1114 C1110 1.427 . S
N1114 C1111 1.384 . S
N1115 C1107 1.427 . S
N1115 C1113 1.384 . S
H1116 C1122 0.930 . S
H1117 C1126 0.930 . S
H1118 C1131 0.929 . S
H1119 C1129 0.929 . S
H1120 C1124 0.929 . S
H1121 C1130 0.929 . S
C1122 H1116 0.930 . S
C1122 C1123 1.367 . S
C1122 C1130 1.378 . S
C1123 C1122 1.367 . S
C1123 C1131 1.433 . S
C1124 H1120 0.929 . S
C1124 C1126 1.378 . S
C1124 C1128 1.350 . S
C1125 C1128 1.463 . S
C1125 C1130 1.350 . S
C1125 N1133 1.427 . S
C1126 H1117 0.930 . S
C1126 C1124 1.378 . S
C1126 C1127 1.367 . S
C1127 C1126 1.367 . S
C1127 C1129 1.433 . S
C1128 C1124 1.350 . S
C1128 C1125 1.463 . S
C1128 N1132 1.427 . S
C1129 H1119 0.929 . S
C1129 C1127 1.433 . S
C1129 N1132 1.384 . S
C1130 H1121 0.929 . S
C1130 C1122 1.378 . S
C1130 C1125 1.350 . S
C1131 H1118 0.929 . S
C1131 C1123 1.433 . S
C1131 N1133 1.384 . S
N1132 C1128 1.427 . S
N1132 C1129 1.384 . S
N1133 C1125 1.427 . S
N1133 C1131 1.384 . S
H1134 C1140 0.930 . S
H1135 C1144 0.930 . S
H1136 C1149 0.929 . S
H1137 C1147 0.929 . S
H1138 C1142 0.929 . S
H1139 C1148 0.929 . S
C1140 H1134 0.930 . S
C1140 C1141 1.367 . S
C1140 C1148 1.378 . S
C1141 C1140 1.367 . S
C1141 C1149 1.433 . S
C1142 H1138 0.929 . S
C1142 C1144 1.378 . S
C1142 C1146 1.350 . S
C1143 C1146 1.463 . S
C1143 C1148 1.350 . S
C1143 N1151 1.427 . S
C1144 H1135 0.930 . S
C1144 C1142 1.378 . S
C1144 C1145 1.367 . S
C1145 C1144 1.367 . S
C1145 C1147 1.433 . S
C1146 C1142 1.350 . S
C1146 C1143 1.463 . S
C1146 N1150 1.427 . S
C1147 H1137 0.929 . S
C1147 C1145 1.433 . S
C1147 N1150 1.384 . S
C1148 H1139 0.929 . S
C1148 C1140 1.378 . S
C1148 C1143 1.350 . S
C1149 H1136 0.929 . S
C1149 C1141 1.433 . S
C1149 N1151 1.384 . S
N1150 C1146 1.427 . S
N1150 C1147 1.384 . S
N1151 C1143 1.427 . S
N1151 C1149 1.384 . S
H1152 C1158 0.930 . S
H1153 C1162 0.930 . S
H1154 C1167 0.929 . S
H1155 C1165 0.929 . S
H1156 C1160 0.929 . S
H1157 C1166 0.929 . S
C1158 H1152 0.930 . S
C1158 C1159 1.367 . S
C1158 C1166 1.378 . S
C1159 C1158 1.367 . S
C1159 C1167 1.433 . S
C1160 H1156 0.929 . S
C1160 C1162 1.378 . S
C1160 C1164 1.350 . S
C1161 C1164 1.463 . S
C1161 C1166 1.350 . S
C1161 N1169 1.427 . S
C1162 H1153 0.930 . S
C1162 C1160 1.378 . S
C1162 C1163 1.367 . S
C1163 C1162 1.367 . S
C1163 C1165 1.433 . S
C1164 C1160 1.350 . S
C1164 C1161 1.463 . S
C1164 N1168 1.427 . S
C1165 H1155 0.929 . S
C1165 C1163 1.433 . S
C1165 N1168 1.384 . S
C1166 H1157 0.929 . S
C1166 C1158 1.378 . S
C1166 C1161 1.350 . S
C1167 H1154 0.929 . S
C1167 C1159 1.433 . S
C1167 N1169 1.384 . S
N1168 C1164 1.427 . S
N1168 C1165 1.384 . S
N1169 C1161 1.427 . S
N1169 C1167 1.384 . S
H1170 C1176 0.930 . S
H1171 C1180 0.930 . S
H1172 C1185 0.929 . S
H1173 C1183 0.929 . S
H1174 C1178 0.929 . S
H1175 C1184 0.929 . S
C1176 H1170 0.930 . S
C1176 C1177 1.367 . S
C1176 C1184 1.378 . S
C1177 C1176 1.367 . S
C1177 C1185 1.433 . S
C1178 H1174 0.929 . S
C1178 C1180 1.378 . S
C1178 C1182 1.350 . S
C1179 C1182 1.463 . S
C1179 C1184 1.350 . S
C1179 N1187 1.427 . S
C1180 H1171 0.930 . S
C1180 C1178 1.378 . S
C1180 C1181 1.367 . S
C1181 C1180 1.367 . S
C1181 C1183 1.433 . S
C1182 C1178 1.350 . S
C1182 C1179 1.463 . S
C1182 N1186 1.427 . S
C1183 H1173 0.929 . S
C1183 C1181 1.433 . S
C1183 N1186 1.384 . S
C1184 H1175 0.929 . S
C1184 C1176 1.378 . S
C1184 C1179 1.350 . S
C1185 H1172 0.929 . S
C1185 C1177 1.433 . S
C1185 N1187 1.384 . S
N1186 C1182 1.427 . S
N1186 C1183 1.384 . S
N1187 C1179 1.427 . S
N1187 C1185 1.384 . S
H1188 C1194 0.930 . S
H1189 C1198 0.930 . S
H1190 C1203 0.929 . S
H1191 C1201 0.929 . S
H1192 C1196 0.929 . S
H1193 C1202 0.929 . S
C1194 H1188 0.930 . S
C1194 C1195 1.367 . S
C1194 C1202 1.378 . S
C1195 C1194 1.367 . S
C1195 C1203 1.433 . S
C1196 H1192 0.929 . S
C1196 C1198 1.378 . S
C1196 C1200 1.350 . S
C1197 C1200 1.463 . S
C1197 C1202 1.350 . S
C1197 N1205 1.427 . S
C1198 H1189 0.930 . S
C1198 C1196 1.378 . S
C1198 C1199 1.367 . S
C1199 C1198 1.367 . S
C1199 C1201 1.433 . S
C1200 C1196 1.350 . S
C1200 C1197 1.463 . S
C1200 N1204 1.427 . S
C1201 H1191 0.929 . S
C1201 C1199 1.433 . S
C1201 N1204 1.384 . S
C1202 H1193 0.929 . S
C1202 C1194 1.378 . S
C1202 C1197 1.350 . S
C1203 H1190 0.929 . S
C1203 C1195 1.433 . S
C1203 N1205 1.384 . S
N1204 C1200 1.427 . S
N1204 C1201 1.384 . S
N1205 C1197 1.427 . S
N1205 C1203 1.384 . S
H1206 C1212 0.930 . S
H1207 C1216 0.930 . S
H1208 C1221 0.929 . S
H1209 C1219 0.929 . S
H1210 C1214 0.929 . S
H1211 C1220 0.929 . S
C1212 H1206 0.930 . S
C1212 C1213 1.367 . S
C1212 C1220 1.378 . S
C1213 C1212 1.367 . S
C1213 C1221 1.433 . S
C1214 H1210 0.929 . S
C1214 C1216 1.378 . S
C1214 C1218 1.350 . S
C1215 C1218 1.463 . S
C1215 C1220 1.350 . S
C1215 N1223 1.427 . S
C1216 H1207 0.930 . S
C1216 C1214 1.378 . S
C1216 C1217 1.367 . S
C1217 C1216 1.367 . S
C1217 C1219 1.433 . S
C1218 C1214 1.350 . S
C1218 C1215 1.463 . S
C1218 N1222 1.427 . S
C1219 H1209 0.929 . S
C1219 C1217 1.433 . S
C1219 N1222 1.384 . S
C1220 H1211 0.929 . S
C1220 C1212 1.378 . S
C1220 C1215 1.350 . S
C1221 H1208 0.929 . S
C1221 C1213 1.433 . S
C1221 N1223 1.384 . S
N1222 C1218 1.427 . S
N1222 C1219 1.384 . S
N1223 C1215 1.427 . S
N1223 C1221 1.384 . S
H1224 C1230 0.930 . S
H1225 C1234 0.930 . S
H1226 C1239 0.929 . S
H1227 C1237 0.929 . S
H1228 C1232 0.929 . S
H1229 C1238 0.929 . S
C1230 H1224 0.930 . S
C1230 C1231 1.367 . S
C1230 C1238 1.378 . S
C1231 C1230 1.367 . S
C1231 C1239 1.433 . S
C1232 H1228 0.929 . S
C1232 C1234 1.378 . S
C1232 C1236 1.350 . S
C1233 C1236 1.463 . S
C1233 C1238 1.350 . S
C1233 N1241 1.427 . S
C1234 H1225 0.930 . S
C1234 C1232 1.378 . S
C1234 C1235 1.367 . S
C1235 C1234 1.367 . S
C1235 C1237 1.433 . S
C1236 C1232 1.350 . S
C1236 C1233 1.463 . S
C1236 N1240 1.427 . S
C1237 H1227 0.929 . S
C1237 C1235 1.433 . S
C1237 N1240 1.384 . S
C1238 H1229 0.929 . S
C1238 C1230 1.378 . S
C1238 C1233 1.350 . S
C1239 H1226 0.929 . S
C1239 C1231 1.433 . S
C1239 N1241 1.384 . S
N1240 C1236 1.427 . S
N1240 C1237 1.384 . S
N1241 C1233 1.427 . S
N1241 C1239 1.384 . S
H1242 C1248 0.930 . S
H1243 C1252 0.930 . S
H1244 C1257 0.929 . S
H1245 C1255 0.929 . S
H1246 C1250 0.929 . S
H1247 C1256 0.929 . S
C1248 H1242 0.930 . S
C1248 C1249 1.367 . S
C1248 C1256 1.378 . S
C1249 C1248 1.367 . S
C1249 C1257 1.433 . S
C1250 H1246 0.929 . S
C1250 C1252 1.378 . S
C1250 C1254 1.350 . S
C1251 C1254 1.463 . S
C1251 C1256 1.350 . S
C1251 N1259 1.427 . S
C1252 H1243 0.930 . S
C1252 C1250 1.378 . S
C1252 C1253 1.367 . S
C1253 C1252 1.367 . S
C1253 C1255 1.433 . S
C1254 C1250 1.350 . S
C1254 C1251 1.463 . S
C1254 N1258 1.427 . S
C1255 H1245 0.929 . S
C1255 C1253 1.433 . S
C1255 N1258 1.384 . S
C1256 H1247 0.929 . S
C1256 C1248 1.378 . S
C1256 C1251 1.350 . S
C1257 H1244 0.929 . S
C1257 C1249 1.433 . S
C1257 N1259 1.384 . S
N1258 C1254 1.427 . S
N1258 C1255 1.384 . S
N1259 C1251 1.427 . S
N1259 C1257 1.384 . S
H1260 C1266 0.930 . S
H1261 C1270 0.930 . S
H1262 C1275 0.929 . S
H1263 C1273 0.929 . S
H1264 C1268 0.929 . S
H1265 C1274 0.929 . S
C1266 H1260 0.930 . S
C1266 C1267 1.367 . S
C1266 C1274 1.378 . S
C1267 C1266 1.367 . S
C1267 C1275 1.433 . S
C1268 H1264 0.929 . S
C1268 C1270 1.378 . S
C1268 C1272 1.350 . S
C1269 C1272 1.463 . S
C1269 C1274 1.350 . S
C1269 N1277 1.427 . S
C1270 H1261 0.930 . S
C1270 C1268 1.378 . S
C1270 C1271 1.367 . S
C1271 C1270 1.367 . S
C1271 C1273 1.433 . S
C1272 C1268 1.350 . S
C1272 C1269 1.463 . S
C1272 N1276 1.427 . S
C1273 H1263 0.929 . S
C1273 C1271 1.433 . S
C1273 N1276 1.384 . S
C1274 H1265 0.929 . S
C1274 C1266 1.378 . S
C1274 C1269 1.350 . S
C1275 H1262 0.929 . S
C1275 C1267 1.433 . S
C1275 N1277 1.384 . S
N1276 C1272 1.427 . S
N1276 C1273 1.384 . S
N1277 C1269 1.427 . S
N1277 C1275 1.384 . S
H1278 C1284 0.930 . S
H1279 C1288 0.930 . S
H1280 C1293 0.929 . S
H1281 C1291 0.929 . S
H1282 C1286 0.929 . S
H1283 C1292 0.929 . S
C1284 H1278 0.930 . S
C1284 C1285 1.367 . S
C1284 C1292 1.378 . S
C1285 C1284 1.367 . S
C1285 C1293 1.433 . S
C1286 H1282 0.929 . S
C1286 C1288 1.378 . S
C1286 C1290 1.350 . S
C1287 C1290 1.463 . S
C1287 C1292 1.350 . S
C1287 N1295 1.427 . S
C1288 H1279 0.930 . S
C1288 C1286 1.378 . S
C1288 C1289 1.367 . S
C1289 C1288 1.367 . S
C1289 C1291 1.433 . S
C1290 C1286 1.350 . S
C1290 C1287 1.463 . S
C1290 N1294 1.427 . S
C1291 H1281 0.929 . S
C1291 C1289 1.433 . S
C1291 N1294 1.384 . S
C1292 H1283 0.929 . S
C1292 C1284 1.378 . S
C1292 C1287 1.350 . S
C1293 H1280 0.929 . S
C1293 C1285 1.433 . S
C1293 N1295 1.384 . S
N1294 C1290 1.427 . S
N1294 C1291 1.384 . S
N1295 C1287 1.427 . S
N1295 C1293 1.384 . S
H1296 C1302 0.930 . S
H1297 C1306 0.930 . S
H1298 C1311 0.929 . S
H1299 C1309 0.929 . S
H1300 C1304 0.929 . S
H1301 C1310 0.929 . S
C1302 H1296 0.930 . S
C1302 C1303 1.367 . S
C1302 C1310 1.378 . S
C1303 C1302 1.367 . S
C1303 C1311 1.433 . S
C1304 H1300 0.929 . S
C1304 C1306 1.378 . S
C1304 C1308 1.350 . S
C1305 C1308 1.463 . S
C1305 C1310 1.350 . S
C1305 N1313 1.427 . S
C1306 H1297 0.930 . S
C1306 C1304 1.378 . S
C1306 C1307 1.367 . S
C1307 C1306 1.367 . S
C1307 C1309 1.433 . S
C1308 C1304 1.350 . S
C1308 C1305 1.463 . S
C1308 N1312 1.427 . S
C1309 H1299 0.929 . S
C1309 C1307 1.433 . S
C1309 N1312 1.384 . S
C1310 H1301 0.929 . S
C1310 C1302 1.378 . S
C1310 C1305 1.350 . S
C1311 H1298 0.929 . S
C1311 C1303 1.433 . S
C1311 N1313 1.384 . S
N1312 C1308 1.427 . S
N1312 C1309 1.384 . S
N1313 C1305 1.427 . S
N1313 C1311 1.384 . S
H1314 C1320 0.930 . S
H1315 C1324 0.930 . S
H1316 C1329 0.929 . S
H1317 C1327 0.929 . S
H1318 C1322 0.929 . S
H1319 C1328 0.929 . S
C1320 H1314 0.930 . S
C1320 C1321 1.367 . S
C1320 C1328 1.378 . S
C1321 C1320 1.367 . S
C1321 C1329 1.433 . S
C1322 H1318 0.929 . S
C1322 C1324 1.378 . S
C1322 C1326 1.350 . S
C1323 C1326 1.463 . S
C1323 C1328 1.350 . S
C1323 N1331 1.427 . S
C1324 H1315 0.930 . S
C1324 C1322 1.378 . S
C1324 C1325 1.367 . S
C1325 C1324 1.367 . S
C1325 C1327 1.433 . S
C1326 C1322 1.350 . S
C1326 C1323 1.463 . S
C1326 N1330 1.427 . S
C1327 H1317 0.929 . S
C1327 C1325 1.433 . S
C1327 N1330 1.384 . S
C1328 H1319 0.929 . S
C1328 C1320 1.378 . S
C1328 C1323 1.350 . S
C1329 H1316 0.929 . S
C1329 C1321 1.433 . S
C1329 N1331 1.384 . S
N1330 C1326 1.427 . S
N1330 C1327 1.384 . S
N1331 C1323 1.427 . S
N1331 C1329 1.384 . S
H1332 C1338 0.930 . S
H1333 C1342 0.930 . S
H1334 C1347 0.929 . S
H1335 C1345 0.929 . S
H1336 C1340 0.929 . S
H1337 C1346 0.929 . S
C1338 H1332 0.930 . S
C1338 C1339 1.367 . S
C1338 C1346 1.378 . S
C1339 C1338 1.367 . S
C1339 C1347 1.433 . S
C1340 H1336 0.929 . S
C1340 C1342 1.378 . S
C1340 C1344 1.350 . S
C1341 C1344 1.463 . S
C1341 C1346 1.350 . S
C1341 N1349 1.427 . S
C1342 H1333 0.930 . S
C1342 C1340 1.378 . S
C1342 C1343 1.367 . S
C1343 C1342 1.367 . S
C1343 C1345 1.433 . S
C1344 C1340 1.350 . S
C1344 C1341 1.463 . S
C1344 N1348 1.427 . S
C1345 H1335 0.929 . S
C1345 C1343 1.433 . S
C1345 N1348 1.384 . S
C1346 H1337 0.929 . S
C1346 C1338 1.378 . S
C1346 C1341 1.350 . S
C1347 H1334 0.929 . S
C1347 C1339 1.433 . S
C1347 N1349 1.384 . S
N1348 C1344 1.427 . S
N1348 C1345 1.384 . S
N1349 C1341 1.427 . S
N1349 C1347 1.384 . S
H1350 C1356 0.930 . S
H1351 C1360 0.930 . S
H1352 C1365 0.929 . S
H1353 C1363 0.929 . S
H1354 C1358 0.929 . S
H1355 C1364 0.929 . S
C1356 H1350 0.930 . S
C1356 C1357 1.367 . S
C1356 C1364 1.378 . S
C1357 C1356 1.367 . S
C1357 C1365 1.433 . S
C1358 H1354 0.929 . S
C1358 C1360 1.378 . S
C1358 C1362 1.350 . S
C1359 C1362 1.463 . S
C1359 C1364 1.350 . S
C1359 N1367 1.427 . S
C1360 H1351 0.930 . S
C1360 C1358 1.378 . S
C1360 C1361 1.367 . S
C1361 C1360 1.367 . S
C1361 C1363 1.433 . S
C1362 C1358 1.350 . S
C1362 C1359 1.463 . S
C1362 N1366 1.427 . S
C1363 H1353 0.929 . S
C1363 C1361 1.433 . S
C1363 N1366 1.384 . S
C1364 H1355 0.929 . S
C1364 C1356 1.378 . S
C1364 C1359 1.350 . S
C1365 H1352 0.929 . S
C1365 C1357 1.433 . S
C1365 N1367 1.384 . S
N1366 C1362 1.427 . S
N1366 C1363 1.384 . S
N1367 C1359 1.427 . S
N1367 C1365 1.384 . S
H1368 C1374 0.930 . S
H1369 C1378 0.930 . S
H1370 C1383 0.929 . S
H1371 C1381 0.929 . S
H1372 C1376 0.929 . S
H1373 C1382 0.929 . S
C1374 H1368 0.930 . S
C1374 C1375 1.367 . S
C1374 C1382 1.378 . S
C1375 C1374 1.367 . S
C1375 C1383 1.433 . S
C1376 H1372 0.929 . S
C1376 C1378 1.378 . S
C1376 C1380 1.350 . S
C1377 C1380 1.463 . S
C1377 C1382 1.350 . S
C1377 N1385 1.427 . S
C1378 H1369 0.930 . S
C1378 C1376 1.378 . S
C1378 C1379 1.367 . S
C1379 C1378 1.367 . S
C1379 C1381 1.433 . S
C1380 C1376 1.350 . S
C1380 C1377 1.463 . S
C1380 N1384 1.427 . S
C1381 H1371 0.929 . S
C1381 C1379 1.433 . S
C1381 N1384 1.384 . S
C1382 H1373 0.929 . S
C1382 C1374 1.378 . S
C1382 C1377 1.350 . S
C1383 H1370 0.929 . S
C1383 C1375 1.433 . S
C1383 N1385 1.384 . S
N1384 C1380 1.427 . S
N1384 C1381 1.384 . S
N1385 C1377 1.427 . S
N1385 C1383 1.384 . S
H1386 C1392 0.930 . S
H1387 C1396 0.930 . S
H1388 C1401 0.929 . S
H1389 C1399 0.929 . S
H1390 C1394 0.929 . S
H1391 C1400 0.929 . S
C1392 H1386 0.930 . S
C1392 C1393 1.367 . S
C1392 C1400 1.378 . S
C1393 C1392 1.367 . S
C1393 C1401 1.433 . S
C1394 H1390 0.929 . S
C1394 C1396 1.378 . S
C1394 C1398 1.350 . S
C1395 C1398 1.463 . S
C1395 C1400 1.350 . S
C1395 N1403 1.427 . S
C1396 H1387 0.930 . S
C1396 C1394 1.378 . S
C1396 C1397 1.367 . S
C1397 C1396 1.367 . S
C1397 C1399 1.433 . S
C1398 C1394 1.350 . S
C1398 C1395 1.463 . S
C1398 N1402 1.427 . S
C1399 H1389 0.929 . S
C1399 C1397 1.433 . S
C1399 N1402 1.384 . S
C1400 H1391 0.929 . S
C1400 C1392 1.378 . S
C1400 C1395 1.350 . S
C1401 H1388 0.929 . S
C1401 C1393 1.433 . S
C1401 N1403 1.384 . S
N1402 C1398 1.427 . S
N1402 C1399 1.384 . S
N1403 C1395 1.427 . S
N1403 C1401 1.384 . S
H1404 C1410 0.930 . S
H1405 C1414 0.930 . S
H1406 C1419 0.929 1_554 S
H1407 C1417 0.929 . S
H1408 C1412 0.929 . S
H1409 C1418 0.929 . S
C1410 H1404 0.930 . S
C1410 C1411 1.367 . S
C1410 C1418 1.378 . S
C1411 C1410 1.367 . S
C1411 C1419 1.433 . S
C1412 H1408 0.929 . S
C1412 C1414 1.378 . S
C1412 C1416 1.350 . S
C1413 C1416 1.463 . S
C1413 C1418 1.350 . S
C1413 N1421 1.427 . S
C1414 H1405 0.930 . S
C1414 C1412 1.378 . S
C1414 C1415 1.367 . S
C1415 C1414 1.367 . S
C1415 C1417 1.433 . S
C1416 C1412 1.350 . S
C1416 C1413 1.463 . S
C1416 N1420 1.427 . S
C1417 H1407 0.929 . S
C1417 C1415 1.433 . S
C1417 N1420 1.384 . S
C1418 H1409 0.929 . S
C1418 C1410 1.378 . S
C1418 C1413 1.350 . S
C1419 H1406 0.929 1_556 S
C1419 C1411 1.433 . S
C1419 N1421 1.384 . S
N1420 C1416 1.427 . S
N1420 C1417 1.384 . S
N1421 C1413 1.427 . S
N1421 C1419 1.384 . S
H1422 C1428 0.930 . S
H1423 C1432 0.930 . S
H1424 C1437 0.929 1_554 S
H1425 C1435 0.929 . S
H1426 C1430 0.929 . S
H1427 C1436 0.929 . S
C1428 H1422 0.930 . S
C1428 C1429 1.367 . S
C1428 C1436 1.378 . S
C1429 C1428 1.367 . S
C1429 C1437 1.433 . S
C1430 H1426 0.929 . S
C1430 C1432 1.378 . S
C1430 C1434 1.350 . S
C1431 C1434 1.463 . S
C1431 C1436 1.350 . S
C1431 N1439 1.427 . S
C1432 H1423 0.930 . S
C1432 C1430 1.378 . S
C1432 C1433 1.367 . S
C1433 C1432 1.367 . S
C1433 C1435 1.433 . S
C1434 C1430 1.350 . S
C1434 C1431 1.463 . S
C1434 N1438 1.427 . S
C1435 H1425 0.929 . S
C1435 C1433 1.433 . S
C1435 N1438 1.384 . S
C1436 H1427 0.929 . S
C1436 C1428 1.378 . S
C1436 C1431 1.350 . S
C1437 H1424 0.929 1_556 S
C1437 C1429 1.433 . S
C1437 N1439 1.384 . S
N1438 C1434 1.427 . S
N1438 C1435 1.384 . S
N1439 C1431 1.427 . S
N1439 C1437 1.384 . S
H1440 C1446 0.930 . S
H1441 C1450 0.930 . S
H1442 C1455 0.929 . S
H1443 C1453 0.929 . S
H1444 C1448 0.929 . S
H1445 C1454 0.929 . S
C1446 H1440 0.930 . S
C1446 C1447 1.367 . S
C1446 C1454 1.378 . S
C1447 C1446 1.367 . S
C1447 C1455 1.433 . S
C1448 H1444 0.929 . S
C1448 C1450 1.378 . S
C1448 C1452 1.350 . S
C1449 C1452 1.463 . S
C1449 C1454 1.350 . S
C1449 N1457 1.427 . S
C1450 H1441 0.930 . S
C1450 C1448 1.378 . S
C1450 C1451 1.367 . S
C1451 C1450 1.367 . S
C1451 C1453 1.433 . S
C1452 C1448 1.350 . S
C1452 C1449 1.463 . S
C1452 N1456 1.427 . S
C1453 H1443 0.929 . S
C1453 C1451 1.433 . S
C1453 N1456 1.384 . S
C1454 H1445 0.929 . S
C1454 C1446 1.378 . S
C1454 C1449 1.350 . S
C1455 H1442 0.929 . S
C1455 C1447 1.433 . S
C1455 N1457 1.384 . S
N1456 C1452 1.427 . S
N1456 C1453 1.384 . S
N1457 C1449 1.427 . S
N1457 C1455 1.384 . S
H1458 C1464 0.930 . S
H1459 C1468 0.930 . S
H1460 C1473 0.929 . S
H1461 C1471 0.929 . S
H1462 C1466 0.929 . S
H1463 C1472 0.929 . S
C1464 H1458 0.930 . S
C1464 C1465 1.367 . S
C1464 C1472 1.378 . S
C1465 C1464 1.367 . S
C1465 C1473 1.433 . S
C1466 H1462 0.929 . S
C1466 C1468 1.378 . S
C1466 C1470 1.350 . S
C1467 C1470 1.463 . S
C1467 C1472 1.350 . S
C1467 N1475 1.427 . S
C1468 H1459 0.930 . S
C1468 C1466 1.378 . S
C1468 C1469 1.367 . S
C1469 C1468 1.367 . S
C1469 C1471 1.433 . S
C1470 C1466 1.350 . S
C1470 C1467 1.463 . S
C1470 N1474 1.427 . S
C1471 H1461 0.929 . S
C1471 C1469 1.433 . S
C1471 N1474 1.384 . S
C1472 H1463 0.929 . S
C1472 C1464 1.378 . S
C1472 C1467 1.350 . S
C1473 H1460 0.929 . S
C1473 C1465 1.433 . S
C1473 N1475 1.384 . S
N1474 C1470 1.427 . S
N1474 C1471 1.384 . S
N1475 C1467 1.427 . S
N1475 C1473 1.384 . S
H1476 C1482 0.930 . S
H1477 C1486 0.930 . S
H1478 C1491 0.929 . S
H1479 C1489 0.929 . S
H1480 C1484 0.929 . S
H1481 C1490 0.929 . S
C1482 H1476 0.930 . S
C1482 C1483 1.367 . S
C1482 C1490 1.378 . S
C1483 C1482 1.367 . S
C1483 C1491 1.433 . S
C1484 H1480 0.929 . S
C1484 C1486 1.378 . S
C1484 C1488 1.350 . S
C1485 C1488 1.463 . S
C1485 C1490 1.350 . S
C1485 N1493 1.427 . S
C1486 H1477 0.930 . S
C1486 C1484 1.378 . S
C1486 C1487 1.367 . S
C1487 C1486 1.367 . S
C1487 C1489 1.433 . S
C1488 C1484 1.350 . S
C1488 C1485 1.463 . S
C1488 N1492 1.427 . S
C1489 H1479 0.929 . S
C1489 C1487 1.433 . S
C1489 N1492 1.384 . S
C1490 H1481 0.929 . S
C1490 C1482 1.378 . S
C1490 C1485 1.350 . S
C1491 H1478 0.929 . S
C1491 C1483 1.433 . S
C1491 N1493 1.384 . S
N1492 C1488 1.427 . S
N1492 C1489 1.384 . S
N1493 C1485 1.427 . S
N1493 C1491 1.384 . S
H1494 C1500 0.930 . S
H1495 C1504 0.930 . S
H1496 C1509 0.929 . S
H1497 C1507 0.929 . S
H1498 C1502 0.929 . S
H1499 C1508 0.929 . S
C1500 H1494 0.930 . S
C1500 C1501 1.367 . S
C1500 C1508 1.378 . S
C1501 C1500 1.367 . S
C1501 C1509 1.433 . S
C1502 H1498 0.929 . S
C1502 C1504 1.378 . S
C1502 C1506 1.350 . S
C1503 C1506 1.463 . S
C1503 C1508 1.350 . S
C1503 N1511 1.427 . S
C1504 H1495 0.930 . S
C1504 C1502 1.378 . S
C1504 C1505 1.367 . S
C1505 C1504 1.367 . S
C1505 C1507 1.433 . S
C1506 C1502 1.350 . S
C1506 C1503 1.463 . S
C1506 N1510 1.427 . S
C1507 H1497 0.929 . S
C1507 C1505 1.433 . S
C1507 N1510 1.384 . S
C1508 H1499 0.929 . S
C1508 C1500 1.378 . S
C1508 C1503 1.350 . S
C1509 H1496 0.929 . S
C1509 C1501 1.433 . S
C1509 N1511 1.384 . S
N1510 C1506 1.427 . S
N1510 C1507 1.384 . S
N1511 C1503 1.427 . S
N1511 C1509 1.384 . S
H1512 C1518 0.930 . S
H1513 C1522 0.930 . S
H1514 C1527 0.929 . S
H1515 C1525 0.929 . S
H1516 C1520 0.929 . S
H1517 C1526 0.929 . S
C1518 H1512 0.930 . S
C1518 C1519 1.367 . S
C1518 C1526 1.378 . S
C1519 C1518 1.367 . S
C1519 C1527 1.433 . S
C1520 H1516 0.929 . S
C1520 C1522 1.378 . S
C1520 C1524 1.350 . S
C1521 C1524 1.463 . S
C1521 C1526 1.350 . S
C1521 N1529 1.427 . S
C1522 H1513 0.930 . S
C1522 C1520 1.378 . S
C1522 C1523 1.367 . S
C1523 C1522 1.367 . S
C1523 C1525 1.433 . S
C1524 C1520 1.350 . S
C1524 C1521 1.463 . S
C1524 N1528 1.427 . S
C1525 H1515 0.929 . S
C1525 C1523 1.433 . S
C1525 N1528 1.384 . S
C1526 H1517 0.929 . S
C1526 C1518 1.378 . S
C1526 C1521 1.350 . S
C1527 H1514 0.929 . S
C1527 C1519 1.433 . S
C1527 N1529 1.384 . S
N1528 C1524 1.427 . S
N1528 C1525 1.384 . S
N1529 C1521 1.427 . S
N1529 C1527 1.384 . S
H1530 C1536 0.930 . S
H1531 C1540 0.930 . S
H1532 C1545 0.929 . S
H1533 C1543 0.929 . S
H1534 C1538 0.929 . S
H1535 C1544 0.929 . S
C1536 H1530 0.930 . S
C1536 C1537 1.367 . S
C1536 C1544 1.378 . S
C1537 C1536 1.367 . S
C1537 C1545 1.433 . S
C1538 H1534 0.929 . S
C1538 C1540 1.378 . S
C1538 C1542 1.350 . S
C1539 C1542 1.463 . S
C1539 C1544 1.350 . S
C1539 N1547 1.427 . S
C1540 H1531 0.930 . S
C1540 C1538 1.378 . S
C1540 C1541 1.367 . S
C1541 C1540 1.367 . S
C1541 C1543 1.433 . S
C1542 C1538 1.350 . S
C1542 C1539 1.463 . S
C1542 N1546 1.427 . S
C1543 H1533 0.929 . S
C1543 C1541 1.433 . S
C1543 N1546 1.384 . S
C1544 H1535 0.929 . S
C1544 C1536 1.378 . S
C1544 C1539 1.350 . S
C1545 H1532 0.929 . S
C1545 C1537 1.433 . S
C1545 N1547 1.384 . S
N1546 C1542 1.427 . S
N1546 C1543 1.384 . S
N1547 C1539 1.427 . S
N1547 C1545 1.384 . S
H1548 C1554 0.930 1_655 S
H1549 C1558 0.930 . S
H1550 C1563 0.929 . S
H1551 C1561 0.929 . S
H1552 C1556 0.929 . S
H1553 C1562 0.907 1_655 S
C1554 H1548 0.930 1_455 S
C1554 C1555 1.367 . S
C1554 C1562 1.409 . S
C1555 C1554 1.367 . S
C1555 C1563 1.433 . S
C1556 H1552 0.929 . S
C1556 C1558 1.378 . S
C1556 C1560 1.350 . S
C1557 C1560 1.463 . S
C1557 C1562 1.344 . S
C1557 N1565 1.427 . S
C1558 H1549 0.930 . S
C1558 C1556 1.378 . S
C1558 C1559 1.367 . S
C1559 C1558 1.367 . S
C1559 C1561 1.433 1_455 S
C1560 C1556 1.350 . S
C1560 C1557 1.463 . S
C1560 N1564 1.427 1_455 S
C1561 H1551 0.929 . S
C1561 C1559 1.433 1_655 S
C1561 N1564 1.384 . S
C1562 H1553 0.907 1_455 S
C1562 C1554 1.409 . S
C1562 C1557 1.344 . S
C1563 H1550 0.929 . S
C1563 C1555 1.433 . S
C1563 N1565 1.384 . S
N1564 C1560 1.427 1_655 S
N1564 C1561 1.384 . S
N1565 C1557 1.427 . S
N1565 C1563 1.384 . S
H1566 C1572 0.930 . S
H1567 C1576 0.930 . S
H1568 C1581 0.929 . S
H1569 C1579 0.929 . S
H1570 C1574 0.929 . S
H1571 C1580 0.929 . S
C1572 H1566 0.930 . S
C1572 C1573 1.367 . S
C1572 C1580 1.378 . S
C1573 C1572 1.367 . S
C1573 C1581 1.433 . S
C1574 H1570 0.929 . S
C1574 C1576 1.378 . S
C1574 C1578 1.350 . S
C1575 C1578 1.463 . S
C1575 C1580 1.350 . S
C1575 N1583 1.427 . S
C1576 H1567 0.930 . S
C1576 C1574 1.378 . S
C1576 C1577 1.367 . S
C1577 C1576 1.367 . S
C1577 C1579 1.433 . S
C1578 C1574 1.350 . S
C1578 C1575 1.463 . S
C1578 N1582 1.427 . S
C1579 H1569 0.929 . S
C1579 C1577 1.433 . S
C1579 N1582 1.384 . S
C1580 H1571 0.929 . S
C1580 C1572 1.378 . S
C1580 C1575 1.350 . S
C1581 H1568 0.929 . S
C1581 C1573 1.433 . S
C1581 N1583 1.384 . S
N1582 C1578 1.427 . S
N1582 C1579 1.384 . S
N1583 C1575 1.427 . S
N1583 C1581 1.384 . S
H1584 C1590 0.930 . S
H1585 C1594 0.930 . S
H1586 C1599 0.929 . S
H1587 C1597 0.929 . S
H1588 C1592 0.929 . S
H1589 C1598 0.929 . S
C1590 H1584 0.930 . S
C1590 C1591 1.367 . S
C1590 C1598 1.378 . S
C1591 C1590 1.367 . S
C1591 C1599 1.433 1_565 S
C1592 H1588 0.929 . S
C1592 C1594 1.378 . S
C1592 C1596 1.350 1_545 S
C1593 C1596 1.463 . S
C1593 C1598 1.350 . S
C1593 N1601 1.427 1_565 S
C1594 H1585 0.930 . S
C1594 C1592 1.378 . S
C1594 C1595 1.367 1_545 S
C1595 C1594 1.367 1_565 S
C1595 C1597 1.433 . S
C1596 C1592 1.350 1_565 S
C1596 C1593 1.463 . S
C1596 N1600 1.427 . S
C1597 H1587 0.929 . S
C1597 C1595 1.433 . S
C1597 N1600 1.384 . S
C1598 H1589 0.929 . S
C1598 C1590 1.378 . S
C1598 C1593 1.350 . S
C1599 H1586 0.929 . S
C1599 C1591 1.433 1_545 S
C1599 N1601 1.384 . S
N1600 C1596 1.427 . S
N1600 C1597 1.384 . S
N1601 C1593 1.427 1_545 S
N1601 C1599 1.384 . S
H1602 C1608 0.930 . S
H1603 C1612 0.930 1_545 S
H1604 C1617 0.929 . S
H1605 C1615 0.929 . S
H1606 C1610 0.929 . S
H1607 C1616 0.929 . S
C1608 H1602 0.930 . S
C1608 C1609 1.367 . S
C1608 C1616 1.378 . S
C1609 C1608 1.367 . S
C1609 C1617 1.433 . S
C1610 H1606 0.929 . S
C1610 C1612 1.378 . S
C1610 C1614 1.350 . S
C1611 C1614 1.463 . S
C1611 C1616 1.350 . S
C1611 N1619 1.427 . S
C1612 H1603 0.930 1_565 S
C1612 C1610 1.378 . S
C1612 C1613 1.367 . S
C1613 C1612 1.367 . S
C1613 C1615 1.433 . S
C1614 C1610 1.350 . S
C1614 C1611 1.463 . S
C1614 N1618 1.427 . S
C1615 H1605 0.929 . S
C1615 C1613 1.433 . S
C1615 N1618 1.384 . S
C1616 H1607 0.929 . S
C1616 C1608 1.378 . S
C1616 C1611 1.350 . S
C1617 H1604 0.929 . S
C1617 C1609 1.433 . S
C1617 N1619 1.384 . S
N1618 C1614 1.427 . S
N1618 C1615 1.384 . S
N1619 C1611 1.427 . S
N1619 C1617 1.384 . S
H1620 C1626 0.929 1_655 S
H1621 C1630 0.930 . S
H1622 C1635 0.929 . S
H1623 C1633 0.929 . S
H1624 C1628 0.929 . S
H1625 C1634 0.929 . S
C1626 H1620 0.929 1_455 S
C1626 C1627 1.367 . S
C1626 C1634 1.379 1_455 S
C1627 C1626 1.367 . S
C1627 C1635 1.433 . S
C1628 H1624 0.929 . S
C1628 C1630 1.378 . S
C1628 C1632 1.350 . S
C1629 C1632 1.463 . S
C1629 C1634 1.350 1_455 S
C1629 N1637 1.427 . S
C1630 H1621 0.930 . S
C1630 C1628 1.378 . S
C1630 C1631 1.367 . S
C1631 C1630 1.367 . S
C1631 C1633 1.433 1_455 S
C1632 C1628 1.350 . S
C1632 C1629 1.463 . S
C1632 N1636 1.427 1_455 S
C1633 H1623 0.929 . S
C1633 C1631 1.433 1_655 S
C1633 N1636 1.384 . S
C1634 H1625 0.929 . S
C1634 C1626 1.379 1_655 S
C1634 C1629 1.350 1_655 S
C1635 H1622 0.929 . S
C1635 C1627 1.433 . S
C1635 N1637 1.384 . S
N1636 C1632 1.427 1_655 S
N1636 C1633 1.384 . S
N1637 C1629 1.427 . S
N1637 C1635 1.384 . S
H1638 C1644 0.930 . S
H1639 C1648 0.930 . S
H1640 C1653 0.929 . S
H1641 C1651 0.929 . S
H1642 C1646 0.929 . S
H1643 C1652 0.929 . S
C1644 H1638 0.930 . S
C1644 C1645 1.367 . S
C1644 C1652 1.378 . S
C1645 C1644 1.367 . S
C1645 C1653 1.433 . S
C1646 H1642 0.929 . S
C1646 C1648 1.378 . S
C1646 C1650 1.350 . S
C1647 C1650 1.463 . S
C1647 C1652 1.350 . S
C1647 N1655 1.427 . S
C1648 H1639 0.930 . S
C1648 C1646 1.378 . S
C1648 C1649 1.367 . S
C1649 C1648 1.367 . S
C1649 C1651 1.433 . S
C1650 C1646 1.350 . S
C1650 C1647 1.463 . S
C1650 N1654 1.427 . S
C1651 H1641 0.929 . S
C1651 C1649 1.433 . S
C1651 N1654 1.384 . S
C1652 H1643 0.929 . S
C1652 C1644 1.378 . S
C1652 C1647 1.350 . S
C1653 H1640 0.929 . S
C1653 C1645 1.433 . S
C1653 N1655 1.384 . S
N1654 C1650 1.427 . S
N1654 C1651 1.384 . S
N1655 C1647 1.427 . S
N1655 C1653 1.384 . S
H1656 C1662 0.930 . S
H1657 C1666 0.930 . S
H1658 C1671 0.929 . S
H1659 C1669 0.929 . S
H1660 C1664 0.929 . S
H1661 C1670 0.929 . S
C1662 H1656 0.930 . S
C1662 C1663 1.367 . S
C1662 C1670 1.378 . S
C1663 C1662 1.367 . S
C1663 C1671 1.433 . S
C1664 H1660 0.929 . S
C1664 C1666 1.378 . S
C1664 C1668 1.350 . S
C1665 C1668 1.463 . S
C1665 C1670 1.350 . S
C1665 N1673 1.427 . S
C1666 H1657 0.930 . S
C1666 C1664 1.378 . S
C1666 C1667 1.367 . S
C1667 C1666 1.367 . S
C1667 C1669 1.433 . S
C1668 C1664 1.350 . S
C1668 C1665 1.463 . S
C1668 N1672 1.427 . S
C1669 H1659 0.929 . S
C1669 C1667 1.433 . S
C1669 N1672 1.384 . S
C1670 H1661 0.929 . S
C1670 C1662 1.378 . S
C1670 C1665 1.350 . S
C1671 H1658 0.929 . S
C1671 C1663 1.433 . S
C1671 N1673 1.384 . S
N1672 C1668 1.427 . S
N1672 C1669 1.384 . S
N1673 C1665 1.427 . S
N1673 C1671 1.384 . S
H1674 C1680 0.930 . S
H1675 C1684 0.930 . S
H1676 C1689 0.929 . S
H1677 C1687 0.929 . S
H1678 C1682 0.929 . S
H1679 C1688 0.929 . S
C1680 H1674 0.930 . S
C1680 C1681 1.367 . S
C1680 C1688 1.378 . S
C1681 C1680 1.367 . S
C1681 C1689 1.433 . S
C1682 H1678 0.929 . S
C1682 C1684 1.378 . S
C1682 C1686 1.350 . S
C1683 C1686 1.463 . S
C1683 C1688 1.350 . S
C1683 N1691 1.427 . S
C1684 H1675 0.930 . S
C1684 C1682 1.378 . S
C1684 C1685 1.367 . S
C1685 C1684 1.367 . S
C1685 C1687 1.433 . S
C1686 C1682 1.350 . S
C1686 C1683 1.463 . S
C1686 N1690 1.427 . S
C1687 H1677 0.929 . S
C1687 C1685 1.433 . S
C1687 N1690 1.384 . S
C1688 H1679 0.929 . S
C1688 C1680 1.378 . S
C1688 C1683 1.350 . S
C1689 H1676 0.929 . S
C1689 C1681 1.433 . S
C1689 N1691 1.384 . S
N1690 C1686 1.427 . S
N1690 C1687 1.384 . S
N1691 C1683 1.427 . S
N1691 C1689 1.384 . S
H1692 C1698 0.930 . S
H1693 C1702 0.930 . S
H1694 C1707 0.929 . S
H1695 C1705 0.929 . S
H1696 C1700 0.929 . S
H1697 C1706 0.929 . S
C1698 H1692 0.930 . S
C1698 C1699 1.367 . S
C1698 C1706 1.378 . S
C1699 C1698 1.367 . S
C1699 C1707 1.433 . S
C1700 H1696 0.929 . S
C1700 C1702 1.378 . S
C1700 C1704 1.350 . S
C1701 C1704 1.463 . S
C1701 C1706 1.350 . S
C1701 N1709 1.427 . S
C1702 H1693 0.930 . S
C1702 C1700 1.378 . S
C1702 C1703 1.367 . S
C1703 C1702 1.367 . S
C1703 C1705 1.433 . S
C1704 C1700 1.350 . S
C1704 C1701 1.463 . S
C1704 N1708 1.427 . S
C1705 H1695 0.929 . S
C1705 C1703 1.433 . S
C1705 N1708 1.384 . S
C1706 H1697 0.929 . S
C1706 C1698 1.378 . S
C1706 C1701 1.350 . S
C1707 H1694 0.929 . S
C1707 C1699 1.433 . S
C1707 N1709 1.384 . S
N1708 C1704 1.427 . S
N1708 C1705 1.384 . S
N1709 C1701 1.427 . S
N1709 C1707 1.384 . S
H1710 C1716 0.934 . S
H1711 C1720 0.930 . S
H1712 C1725 0.929 . S
H1713 C1723 0.929 . S
H1714 C1718 0.929 . S
H1715 C1724 0.929 . S
C1716 H1710 0.934 . S
C1716 C1717 1.357 1_565 S
C1716 C1724 1.384 . S
C1717 C1716 1.357 1_545 S
C1717 C1725 1.433 . S
C1718 H1714 0.929 . S
C1718 C1720 1.378 . S
C1718 C1722 1.350 . S
C1719 C1722 1.463 . S
C1719 C1724 1.350 1_545 S
C1719 N1727 1.427 . S
C1720 H1711 0.930 . S
C1720 C1718 1.378 . S
C1720 C1721 1.367 . S
C1721 C1720 1.367 . S
C1721 C1723 1.433 1_545 S
C1722 C1718 1.350 . S
C1722 C1719 1.463 . S
C1722 N1726 1.427 1_545 S
C1723 H1713 0.929 . S
C1723 C1721 1.433 1_565 S
C1723 N1726 1.384 . S
C1724 H1715 0.929 . S
C1724 C1716 1.384 . S
C1724 C1719 1.350 1_565 S
C1725 H1712 0.929 . S
C1725 C1717 1.433 . S
C1725 N1727 1.384 . S
N1726 C1722 1.427 1_565 S
N1726 C1723 1.384 . S
N1727 C1719 1.427 . S
N1727 C1725 1.384 . S
H1728 C1734 0.917 1_455 S
H1729 C1738 0.930 . S
H1730 C1743 0.929 . S
H1731 C1741 0.929 . S
H1732 C1736 0.929 . S
H1733 C1742 0.929 1_455 S
C1734 H1728 0.917 1_655 S
C1734 C1735 1.367 . S
C1734 C1742 1.378 . S
C1735 C1734 1.367 . S
C1735 C1743 1.433 . S
C1736 H1732 0.929 . S
C1736 C1738 1.378 . S
C1736 C1740 1.350 . S
C1737 C1740 1.463 . S
C1737 C1742 1.350 . S
C1737 N1745 1.427 . S
C1738 H1729 0.930 . S
C1738 C1736 1.378 . S
C1738 C1739 1.367 . S
C1739 C1738 1.367 . S
C1739 C1741 1.433 1_655 S
C1740 C1736 1.350 . S
C1740 C1737 1.463 . S
C1740 N1744 1.429 1_655 S
C1741 H1731 0.929 . S
C1741 C1739 1.433 1_455 S
C1741 N1744 1.375 . S
C1742 H1733 0.929 1_655 S
C1742 C1734 1.378 . S
C1742 C1737 1.350 . S
C1743 H1730 0.929 . S
C1743 C1735 1.433 . S
C1743 N1745 1.384 . S
N1744 C1740 1.429 1_455 S
N1744 C1741 1.375 . S
N1745 C1737 1.427 . S
N1745 C1743 1.384 . S
H1746 C1752 0.930 . S
H1747 C1756 0.930 . S
H1748 C1761 0.929 . S
H1749 C1759 0.929 . S
H1750 C1754 0.929 . S
H1751 C1760 0.929 . S
C1752 H1746 0.930 . S
C1752 C1753 1.367 . S
C1752 C1760 1.378 . S
C1753 C1752 1.367 . S
C1753 C1761 1.433 . S
C1754 H1750 0.929 . S
C1754 C1756 1.378 . S
C1754 C1758 1.350 . S
C1755 C1758 1.463 . S
C1755 C1760 1.350 . S
C1755 N1763 1.427 . S
C1756 H1747 0.930 . S
C1756 C1754 1.378 . S
C1756 C1757 1.367 . S
C1757 C1756 1.367 . S
C1757 C1759 1.433 . S
C1758 C1754 1.350 . S
C1758 C1755 1.463 . S
C1758 N1762 1.427 . S
C1759 H1749 0.929 . S
C1759 C1757 1.433 . S
C1759 N1762 1.384 . S
C1760 H1751 0.929 . S
C1760 C1752 1.378 . S
C1760 C1755 1.350 . S
C1761 H1748 0.929 . S
C1761 C1753 1.433 . S
C1761 N1763 1.384 . S
N1762 C1758 1.427 . S
N1762 C1759 1.384 . S
N1763 C1755 1.427 . S
N1763 C1761 1.384 . S
H1764 C1770 0.930 . S
H1765 C1774 0.930 . S
H1766 C1779 0.929 . S
H1767 C1777 0.929 . S
H1768 C1772 0.929 . S
H1769 C1778 0.929 . S
C1770 H1764 0.930 . S
C1770 C1771 1.367 . S
C1770 C1778 1.378 . S
C1771 C1770 1.367 . S
C1771 C1779 1.433 . S
C1772 H1768 0.929 . S
C1772 C1774 1.378 . S
C1772 C1776 1.350 . S
C1773 C1776 1.463 . S
C1773 C1778 1.350 . S
C1773 N1781 1.427 . S
C1774 H1765 0.930 . S
C1774 C1772 1.378 . S
C1774 C1775 1.367 . S
C1775 C1774 1.367 . S
C1775 C1777 1.433 . S
C1776 C1772 1.350 . S
C1776 C1773 1.463 . S
C1776 N1780 1.427 . S
C1777 H1767 0.929 . S
C1777 C1775 1.433 . S
C1777 N1780 1.384 . S
C1778 H1769 0.929 . S
C1778 C1770 1.378 . S
C1778 C1773 1.350 . S
C1779 H1766 0.929 . S
C1779 C1771 1.433 . S
C1779 N1781 1.384 . S
N1780 C1776 1.427 . S
N1780 C1777 1.384 . S
N1781 C1773 1.427 . S
N1781 C1779 1.384 . S
H1782 C1788 0.930 . S
H1783 C1792 0.930 . S
H1784 C1797 0.929 . S
H1785 C1795 0.929 . S
H1786 C1790 0.929 . S
H1787 C1796 0.929 . S
C1788 H1782 0.930 . S
C1788 C1789 1.367 . S
C1788 C1796 1.378 . S
C1789 C1788 1.367 . S
C1789 C1797 1.433 . S
C1790 H1786 0.929 . S
C1790 C1792 1.378 . S
C1790 C1794 1.350 . S
C1791 C1794 1.463 . S
C1791 C1796 1.350 . S
C1791 N1799 1.427 . S
C1792 H1783 0.930 . S
C1792 C1790 1.378 . S
C1792 C1793 1.367 . S
C1793 C1792 1.367 . S
C1793 C1795 1.433 . S
C1794 C1790 1.350 . S
C1794 C1791 1.463 . S
C1794 N1798 1.427 . S
C1795 H1785 0.929 . S
C1795 C1793 1.433 . S
C1795 N1798 1.384 . S
C1796 H1787 0.929 . S
C1796 C1788 1.378 . S
C1796 C1791 1.350 . S
C1797 H1784 0.929 . S
C1797 C1789 1.433 . S
C1797 N1799 1.384 . S
N1798 C1794 1.427 . S
N1798 C1795 1.384 . S
N1799 C1791 1.427 . S
N1799 C1797 1.384 . S
H1800 C1806 0.930 . S
H1801 C1810 0.930 . S
H1802 C1815 0.929 . S
H1803 C1813 0.929 . S
H1804 C1808 0.929 . S
H1805 C1814 0.929 . S
C1806 H1800 0.930 . S
C1806 C1807 1.367 . S
C1806 C1814 1.378 . S
C1807 C1806 1.367 . S
C1807 C1815 1.433 . S
C1808 H1804 0.929 . S
C1808 C1810 1.378 . S
C1808 C1812 1.350 . S
C1809 C1812 1.463 . S
C1809 C1814 1.350 . S
C1809 N1817 1.427 . S
C1810 H1801 0.930 . S
C1810 C1808 1.378 . S
C1810 C1811 1.367 . S
C1811 C1810 1.367 . S
C1811 C1813 1.433 . S
C1812 C1808 1.350 . S
C1812 C1809 1.463 . S
C1812 N1816 1.427 . S
C1813 H1803 0.929 . S
C1813 C1811 1.433 . S
C1813 N1816 1.384 . S
C1814 H1805 0.929 . S
C1814 C1806 1.378 . S
C1814 C1809 1.350 . S
C1815 H1802 0.929 . S
C1815 C1807 1.433 . S
C1815 N1817 1.384 . S
N1816 C1812 1.427 . S
N1816 C1813 1.384 . S
N1817 C1809 1.427 . S
N1817 C1815 1.384 . S
H1818 C1824 0.930 . S
H1819 C1828 0.930 . S
H1820 C1833 0.929 . S
H1821 C1831 0.929 . S
H1822 C1826 0.929 . S
H1823 C1832 0.929 . S
C1824 H1818 0.930 . S
C1824 C1825 1.367 . S
C1824 C1832 1.378 . S
C1825 C1824 1.367 . S
C1825 C1833 1.433 . S
C1826 H1822 0.929 . S
C1826 C1828 1.378 . S
C1826 C1830 1.350 . S
C1827 C1830 1.463 . S
C1827 C1832 1.350 . S
C1827 N1835 1.427 . S
C1828 H1819 0.930 . S
C1828 C1826 1.378 . S
C1828 C1829 1.367 . S
C1829 C1828 1.367 . S
C1829 C1831 1.433 . S
C1830 C1826 1.350 . S
C1830 C1827 1.463 . S
C1830 N1834 1.427 . S
C1831 H1821 0.929 . S
C1831 C1829 1.433 . S
C1831 N1834 1.384 . S
C1832 H1823 0.929 . S
C1832 C1824 1.378 . S
C1832 C1827 1.350 . S
C1833 H1820 0.929 . S
C1833 C1825 1.433 . S
C1833 N1835 1.384 . S
N1834 C1830 1.427 . S
N1834 C1831 1.384 . S
N1835 C1827 1.427 . S
N1835 C1833 1.384 . S
H1836 C1842 0.930 . S
H1837 C1846 0.930 . S
H1838 C1851 0.929 . S
H1839 C1849 0.929 . S
H1840 C1844 0.929 . S
H1841 C1850 0.929 . S
C1842 H1836 0.930 . S
C1842 C1843 1.367 . S
C1842 C1850 1.378 . S
C1843 C1842 1.367 . S
C1843 C1851 1.433 . S
C1844 H1840 0.929 . S
C1844 C1846 1.378 . S
C1844 C1848 1.350 . S
C1845 C1848 1.463 . S
C1845 C1850 1.350 . S
C1845 N1853 1.427 . S
C1846 H1837 0.930 . S
C1846 C1844 1.378 . S
C1846 C1847 1.367 . S
C1847 C1846 1.367 . S
C1847 C1849 1.433 . S
C1848 C1844 1.350 . S
C1848 C1845 1.463 . S
C1848 N1852 1.427 . S
C1849 H1839 0.929 . S
C1849 C1847 1.433 . S
C1849 N1852 1.384 . S
C1850 H1841 0.929 . S
C1850 C1842 1.378 . S
C1850 C1845 1.350 . S
C1851 H1838 0.929 . S
C1851 C1843 1.433 . S
C1851 N1853 1.384 . S
N1852 C1848 1.427 . S
N1852 C1849 1.384 . S
N1853 C1845 1.427 . S
N1853 C1851 1.384 . S
H1854 C1860 0.930 . S
H1855 C1864 0.930 . S
H1856 C1869 0.929 . S
H1857 C1867 0.929 . S
H1858 C1862 0.929 . S
H1859 C1868 0.929 . S
C1860 H1854 0.930 . S
C1860 C1861 1.367 . S
C1860 C1868 1.378 . S
C1861 C1860 1.367 . S
C1861 C1869 1.433 . S
C1862 H1858 0.929 . S
C1862 C1864 1.378 . S
C1862 C1866 1.350 . S
C1863 C1866 1.463 . S
C1863 C1868 1.350 . S
C1863 N1871 1.427 . S
C1864 H1855 0.930 . S
C1864 C1862 1.378 . S
C1864 C1865 1.367 . S
C1865 C1864 1.367 . S
C1865 C1867 1.433 . S
C1866 C1862 1.350 . S
C1866 C1863 1.463 . S
C1866 N1870 1.427 . S
C1867 H1857 0.929 . S
C1867 C1865 1.433 . S
C1867 N1870 1.384 . S
C1868 H1859 0.929 . S
C1868 C1860 1.378 . S
C1868 C1863 1.350 . S
C1869 H1856 0.929 . S
C1869 C1861 1.433 . S
C1869 N1871 1.384 . S
N1870 C1866 1.427 . S
N1870 C1867 1.384 . S
N1871 C1863 1.427 . S
N1871 C1869 1.384 . S
H1872 C1878 0.930 . S
H1873 C1882 0.930 . S
H1874 C1887 0.943 . S
H1875 C1885 0.929 . S
H1876 C1880 0.929 . S
H1877 C1886 0.929 . S
C1878 H1872 0.930 . S
C1878 C1879 1.367 . S
C1878 C1886 1.378 . S
C1879 C1878 1.367 . S
C1879 C1887 1.398 1_655 S
C1880 H1876 0.929 . S
C1880 C1882 1.378 . S
C1880 C1884 1.350 1_455 S
C1881 C1884 1.463 . S
C1881 C1886 1.350 . S
C1881 N1889 1.427 1_655 S
C1882 H1873 0.930 . S
C1882 C1880 1.378 . S
C1882 C1883 1.367 1_455 S
C1883 C1882 1.367 1_655 S
C1883 C1885 1.433 . S
C1884 C1880 1.350 1_655 S
C1884 C1881 1.463 . S
C1884 N1888 1.427 . S
C1885 H1875 0.929 . S
C1885 C1883 1.433 . S
C1885 N1888 1.384 . S
C1886 H1877 0.929 . S
C1886 C1878 1.378 . S
C1886 C1881 1.350 . S
C1887 H1874 0.943 . S
C1887 C1879 1.398 1_455 S
C1887 N1889 1.407 . S
N1888 C1884 1.427 . S
N1888 C1885 1.384 . S
N1889 C1881 1.427 1_455 S
N1889 C1887 1.407 . S
H1890 C1896 0.930 . S
H1891 C1900 0.930 . S
H1892 C1905 0.929 . S
H1893 C1903 0.929 . S
H1894 C1898 0.929 . S
H1895 C1904 0.929 . S
C1896 H1890 0.930 . S
C1896 C1897 1.367 . S
C1896 C1904 1.378 . S
C1897 C1896 1.367 . S
C1897 C1905 1.433 . S
C1898 H1894 0.929 . S
C1898 C1900 1.378 . S
C1898 C1902 1.350 . S
C1899 C1902 1.463 . S
C1899 C1904 1.350 . S
C1899 N1907 1.427 . S
C1900 H1891 0.930 . S
C1900 C1898 1.378 . S
C1900 C1901 1.367 . S
C1901 C1900 1.367 . S
C1901 C1903 1.433 . S
C1902 C1898 1.350 . S
C1902 C1899 1.463 . S
C1902 N1906 1.427 . S
C1903 H1893 0.929 . S
C1903 C1901 1.433 . S
C1903 N1906 1.384 . S
C1904 H1895 0.929 . S
C1904 C1896 1.378 . S
C1904 C1899 1.350 . S
C1905 H1892 0.929 . S
C1905 C1897 1.433 . S
C1905 N1907 1.384 . S
N1906 C1902 1.427 . S
N1906 C1903 1.384 . S
N1907 C1899 1.427 . S
N1907 C1905 1.384 . S
H1908 C1914 0.930 . S
H1909 C1918 0.930 . S
H1910 C1923 0.929 . S
H1911 C1921 0.929 . S
H1912 C1916 0.929 . S
H1913 C1922 0.929 . S
C1914 H1908 0.930 . S
C1914 C1915 1.367 . S
C1914 C1922 1.378 . S
C1915 C1914 1.367 . S
C1915 C1923 1.433 1_545 S
C1916 H1912 0.929 . S
C1916 C1918 1.378 . S
C1916 C1920 1.350 1_565 S
C1917 C1920 1.463 . S
C1917 C1922 1.350 . S
C1917 N1925 1.427 1_545 S
C1918 H1909 0.930 . S
C1918 C1916 1.378 . S
C1918 C1919 1.367 1_565 S
C1919 C1918 1.367 1_545 S
C1919 C1921 1.433 . S
C1920 C1916 1.350 1_545 S
C1920 C1917 1.463 . S
C1920 N1924 1.427 . S
C1921 H1911 0.929 . S
C1921 C1919 1.433 . S
C1921 N1924 1.384 . S
C1922 H1913 0.929 . S
C1922 C1914 1.378 . S
C1922 C1917 1.350 . S
C1923 H1910 0.929 . S
C1923 C1915 1.433 1_565 S
C1923 N1925 1.384 . S
N1924 C1920 1.427 . S
N1924 C1921 1.384 . S
N1925 C1917 1.427 1_565 S
N1925 C1923 1.384 . S
C637 C8 1.579 . S
C641 C458 1.498 1_655 S
C655 C22 1.546 . S
C659 C471 1.518 . S
C677 C500 1.459 1_545 S
C673 C37 1.530 . S
C691 C36 1.549 . S
C695 C513 1.514 . S
C709 C9 1.537 . S
C713 C534 1.524 . S
C727 C23 1.553 . S
C731 C563 1.486 . S
C745 C50 1.573 . S
C749 C542 1.502 . S
C767 C555 1.484 . S
C763 C64 1.540 . S
C785 C521 1.480 . S
C781 C79 1.531 . S
C799 C78 1.542 . S
C803 C492 1.479 1_545 S
C821 C450 1.489 1_655 S
C817 C51 1.529 . S
C835 C65 1.543 . S
C839 C479 1.502 . S
C853 C92 1.555 . S
C857 C584 1.484 . S
C871 C106 1.553 . S
C875 C597 1.519 . S
C893 C626 1.481 . S
C889 C121 1.542 . S
C907 C120 1.537 . S
C911 C261 1.506 . S
C925 C93 1.556 . S
C929 C282 1.523 . S
C943 C107 1.548 . S
C947 C311 1.493 . S
C961 C134 1.541 . S
C965 C290 1.496 . S
C979 C148 1.538 . S
C983 C303 1.485 . S
C1001 C269 1.492 . S
C997 C163 1.538 . S
C1019 C618 1.479 . S
C1015 C162 1.535 . S
C1037 C576 1.495 . S
C1033 C135 1.545 . S
C1055 C605 1.490 . S
C1051 C149 1.535 . S
C1069 C176 1.554 . S
C1073 C332 1.499 . S
C1087 C190 1.544 . S
C1091 C345 1.513 . S
C1105 C205 1.541 . S
C1109 C374 1.483 . S
C1123 C204 1.539 . S
C1127 C387 1.503 . S
C1145 C408 1.525 . S
C1141 C177 1.552 . S
C1163 C437 1.493 . S
C1159 C191 1.549 . S
C1181 C416 1.495 . S
C1177 C218 1.541 . S
C1199 C429 1.500 . S
C1195 C232 1.535 . S
C1213 C247 1.531 . S
C1217 C395 1.491 . S
C1235 C366 1.493 . S
C1231 C246 1.531 . S
C1249 C219 1.542 . S
C1253 C324 1.501 . S
C1271 C353 1.492 . S
C1267 C233 1.534 . S
C1289 C264 1.420 . S
C1285 C6 1.489 . S
C1303 C20 1.482 . S
C1307 C285 1.411 . S
C1325 C313 1.416 . S
C1321 C35 1.476 . S
C1343 C334 1.417 . S
C1339 C34 1.468 . S
C1361 C348 1.391 . S
C1357 C7 1.474 . S
C1379 C376 1.431 . S
C1375 C21 1.472 . S
C1393 C48 1.489 . S
C1397 C369 1.401 . S
C1411 C62 1.484 . S
C1415 C327 1.403 . S
C1429 C77 1.485 . S
C1433 C355 1.442 . S
C1447 C76 1.477 . S
C1451 C292 1.442 . S
C1469 C306 1.406 . S
C1465 C49 1.484 . S
C1483 C63 1.479 . S
C1487 C271 1.430 . S
C1505 C390 1.419 . S
C1501 C90 1.493 . S
C1519 C104 1.477 . S
C1523 C411 1.394 . S
C1537 C119 1.481 . S
C1541 C439 1.431 . S
C1559 C460 1.425 . S
C1555 C118 1.467 . S
C1573 C91 1.476 . S
C1577 C474 1.393 . S
C1591 C105 1.472 . S
C1595 C502 1.433 . S
C1609 C132 1.491 . S
C1613 C495 1.390 . S
C1627 C146 1.485 . S
C1631 C453 1.385 . S
C1649 C481 1.437 . S
C1645 C161 1.479 . S
C1663 C160 1.470 . S
C1667 C418 1.422 . S
C1681 C133 1.482 . S
C1685 C432 1.403 . S
C1703 C397 1.430 . S
C1699 C147 1.481 . S
C1721 C516 1.405 1_545 S
C1717 C174 1.483 . S
C1735 C188 1.477 . S
C1739 C537 1.395 1_655 S
C1753 C203 1.479 . S
C1757 C565 1.432 . S
C1775 C586 1.415 . S
C1771 C202 1.474 . S
C1793 C600 1.414 . S
C1789 C175 1.485 . S
C1807 C189 1.484 . S
C1811 C628 1.432 . S
C1825 C216 1.493 . S
C1829 C621 1.391 . S
C1843 C230 1.485 . S
C1847 C579 1.403 . S
C1865 C607 1.445 . S
C1861 C245 1.487 . S
C1883 C544 1.433 1_655 S
C1879 C244 1.468 . S
C1901 C558 1.384 . S
C1897 C217 1.486 . S
C1915 C231 1.480 . S
C1919 C523 1.430 1_545 S
