# Generated by pormake.
# Topology wbl, (4,4)-cn, num edge types: 1
# Building blocks:
#     Node 0, Type 0, BuildingBlock: MIFKUJ_clean_linker_1, # of connection points: 4
#     Node 1, Type 0, BuildingBlock: MIFKUJ_clean_linker_1, # of connection points: 4
#     Node 2, Type 0, BuildingBlock: MIFKUJ_clean_linker_1, # of connection points: 4
#     Node 3, Type 0, BuildingBlock: MIFKUJ_clean_linker_1, # of connection points: 4
#     Node 4, Type 0, BuildingBlock: MIFKUJ_clean_linker_1, # of connection points: 4
#     Node 5, Type 0, BuildingBlock: MIFKUJ_clean_linker_1, # of connection points: 4
#     Node 6, Type 0, BuildingBlock: MIFKUJ_clean_linker_1, # of connection points: 4
#     Node 7, Type 0, BuildingBlock: MIFKUJ_clean_linker_1, # of connection points: 4
#     Node 8, Type 1, BuildingBlock: QUQFOY_clean_sbu_1, # of connection points: 4
#     Node 9, Type 1, BuildingBlock: QUQFOY_clean_sbu_1, # of connection points: 4
#     Node 10, Type 1, BuildingBlock: QUQFOY_clean_sbu_1, # of connection points: 4
#     Node 11, Type 1, BuildingBlock: QUQFOY_clean_sbu_1, # of connection points: 4
#     Node 12, Type 1, BuildingBlock: QUQFOY_clean_sbu_1, # of connection points: 4
#     Node 13, Type 1, BuildingBlock: QUQFOY_clean_sbu_1, # of connection points: 4
#     Node 14, Type 1, BuildingBlock: QUQFOY_clean_sbu_1, # of connection points: 4
#     Node 15, Type 1, BuildingBlock: QUQFOY_clean_sbu_1, # of connection points: 4
#     Edge 16, Type (0, 1), None
#     Edge 17, Type (0, 1), None
#     Edge 18, Type (0, 1), None
#     Edge 19, Type (0, 1), None
#     Edge 20, Type (0, 1), None
#     Edge 21, Type (0, 1), None
#     Edge 22, Type (0, 1), None
#     Edge 23, Type (0, 1), None
#     Edge 24, Type (0, 1), None
#     Edge 25, Type (0, 1), None
#     Edge 26, Type (0, 1), None
#     Edge 27, Type (0, 1), None
#     Edge 28, Type (0, 1), None
#     Edge 29, Type (0, 1), None
#     Edge 30, Type (0, 1), None
#     Edge 31, Type (0, 1), None
#     Edge 32, Type (0, 1), None
#     Edge 33, Type (0, 1), None
#     Edge 34, Type (0, 1), None
#     Edge 35, Type (0, 1), None
#     Edge 36, Type (0, 1), None
#     Edge 37, Type (0, 1), None
#     Edge 38, Type (0, 1), None
#     Edge 39, Type (0, 1), None
#     Edge 40, Type (0, 1), None
#     Edge 41, Type (0, 1), None
#     Edge 42, Type (0, 1), None
#     Edge 43, Type (0, 1), None
#     Edge 44, Type (0, 1), None
#     Edge 45, Type (0, 1), None
#     Edge 46, Type (0, 1), None
#     Edge 47, Type (0, 1), None
# Relax obj value: 0.174
# Max RMSD: 0.203
# Mean RMSD: 0.157
data_MOF--net-wbl--node1-QUQFOY_clean_sbu_1--node2-MIFKUJ_clean_linker_1--edge1-none
_symmetry_space_group_name_H-M    P1
_symmetry_Int_Tables_number       1
_symmetry_cell_setting            triclinic
loop_
_symmetry_equiv_pos_as_xyz
'x, y, z'
_cell_length_a     24.998638
_cell_length_b     24.959068
_cell_length_c     41.907086
_cell_angle_alpha  93.466078
_cell_angle_beta   93.276913
_cell_angle_gamma 90.447949
loop_
_atom_site_label
_atom_site_type_symbol
_atom_site_fract_x
_atom_site_fract_y
_atom_site_fract_z
_atom_type_partial_charge
H0 H 0.11265 0.22403 0.40575 0.0
H1 H 0.05664 0.25592 0.44947 0.0
H2 H 0.94452 0.12602 0.4234 0.0
H3 H 0.99917 0.09566 0.37954 0.0
H4 H 0.14557 0.10651 0.40746 0.0
H5 H 0.06384 0.23173 0.33382 0.0
H6 H 0.97975 0.27351 0.3155 0.0
H7 H 0.91551 0.11666 0.284 0.0
H8 H 0.99915 0.07564 0.30196 0.0
H9 H 0.11968 0.95939 0.30411 0.0
H10 H 0.17448 0.88707 0.28106 0.0
H11 H 0.31178 0.99408 0.28844 0.0
H12 H 0.25776 0.0648 0.3131 0.0
H13 H 0.10547 0.08126 0.29023 0.0
H14 H 0.15581 0.95497 0.36441 0.0
H15 H 0.19223 0.89814 0.40553 0.0
H16 H 0.28277 0.03319 0.4501 0.0
H17 H 0.24916 0.08928 0.40762 0.0
C18 C 0.05958 0.15793 0.38927 0.0
C19 C 0.07508 0.20366 0.40893 0.0
C20 C 0.0433 0.22167 0.43385 0.0
C21 C 0.99679 0.19295 0.43987 0.0
C22 C 0.98048 0.14856 0.41935 0.0
C23 C 0.01135 0.13148 0.39413 0.0
C24 C 0.09709 0.13153 0.36743 0.0
C25 C 0.13882 0.10275 0.38159 0.0
C26 C 0.08494 0.12417 0.33413 0.0
C27 C 0.03772 0.15056 0.31917 0.0
C28 C 0.03181 0.20661 0.32245 0.0
C29 C 0.98382 0.23042 0.31206 0.0
C30 C 0.94081 0.19836 0.2987 0.0
C31 C 0.94768 0.14249 0.29454 0.0
C32 C 0.9957 0.11892 0.30447 0.0
C33 C 0.18499 0.01706 0.31066 0.0
C34 C 0.1613 0.96749 0.30003 0.0
C35 C 0.1925 0.92635 0.28678 0.0
C36 C 0.24723 0.93509 0.28273 0.0
C37 C 0.26952 0.98639 0.29079 0.0
C38 C 0.23886 0.02675 0.30511 0.0
C39 C 0.15534 0.05669 0.33037 0.0
C40 C 0.11485 0.08732 0.31579 0.0
C41 C 0.16682 0.06391 0.36384 0.0
C42 C 0.20039 0.02642 0.3824 0.0
C43 C 0.18615 0.9717 0.38168 0.0
C44 C 0.2063 0.93931 0.40558 0.0
C45 C 0.23948 0.96166 0.43116 0.0
C46 C 0.2567 0.01526 0.43074 0.0
C47 C 0.23784 0.04718 0.40636 0.0
H48 H 0.04521 0.48292 0.54606 0.0
H49 H 0.99433 0.40066 0.52933 0.0
H50 H 0.84984 0.47561 0.56098 0.0
H51 H 0.90046 0.55815 0.57642 0.0
H52 H 0.04371 0.59806 0.53865 0.0
H53 H 0.04956 0.48867 0.63877 0.0
H54 H 0.01514 0.43815 0.68162 0.0
H55 H 0.87016 0.53086 0.67821 0.0
H56 H 0.90612 0.58339 0.63618 0.0
H57 H 0.04167 0.72503 0.66063 0.0
H58 H 0.09934 0.76813 0.70387 0.0
H59 H 0.23883 0.70526 0.65898 0.0
H60 H 0.1809 0.65978 0.61657 0.0
H61 H 0.03792 0.62135 0.65684 0.0
H62 H 0.0567 0.75003 0.57711 0.0
H63 H 0.1137 0.81602 0.55499 0.0
H64 H 0.22174 0.6904 0.52544 0.0
H65 H 0.16307 0.6238 0.54753 0.0
C66 C 0.97678 0.52614 0.56313 0.0
C67 C 1.00223 0.48227 0.54821 0.0
C68 C 0.97307 0.43528 0.5387 0.0
C69 C 0.91827 0.43148 0.54438 0.0
C70 C 0.89211 0.47717 0.55664 0.0
C71 C 0.92104 0.52428 0.56559 0.0
C72 C 0.00886 0.56978 0.58072 0.0
C73 C 0.0425 0.60328 0.56447 0.0
C74 C 0.00718 0.57712 0.61434 0.0
C75 C 0.98002 0.53908 0.634 0.0
C76 C 0.00978 0.49716 0.64662 0.0
C77 C 0.99027 0.46868 0.67121 0.0
C78 C 0.94017 0.48091 0.68316 0.0
C79 C 0.90871 0.52053 0.66915 0.0
C80 C 0.92904 0.55023 0.64509 0.0
C81 C 0.10683 0.68899 0.63534 0.0
C82 C 0.08473 0.72154 0.65964 0.0
C83 C 0.11765 0.74597 0.68438 0.0
C84 C 0.17335 0.73926 0.6849 0.0
C85 C 0.19594 0.71107 0.65904 0.0
C86 C 0.16283 0.68548 0.63461 0.0
C87 C 0.07154 0.65102 0.61506 0.0
C88 C 0.03805 0.61761 0.63089 0.0
C89 C 0.07376 0.64418 0.58139 0.0
C90 C 0.10558 0.68209 0.56395 0.0
C91 C 0.09213 0.7365 0.56538 0.0
C92 C 0.12504 0.77423 0.55274 0.0
C93 C 0.17273 0.75865 0.53857 0.0
C94 C 0.18547 0.70375 0.53626 0.0
C95 C 0.15183 0.66566 0.54865 0.0
H96 H 0.50324 0.68078 0.86699 0.0
H97 H 0.46131 0.73752 0.90808 0.0
H98 H 0.39661 0.59628 0.94702 0.0
H99 H 0.43525 0.5399 0.90479 0.0
H100 H 0.53488 0.52848 0.90228 0.0
H101 H 0.52768 0.6696 0.79963 0.0
H102 H 0.45999 0.73392 0.78111 0.0
H103 H 0.33481 0.62364 0.80314 0.0
H104 H 0.40175 0.56103 0.82136 0.0
H105 H 0.58268 0.39455 0.82213 0.0
H106 H 0.65808 0.34226 0.80328 0.0
H107 H 0.72745 0.48559 0.76915 0.0
H108 H 0.65286 0.53812 0.78913 0.0
H109 H 0.54544 0.54711 0.78564 0.0
H110 H 0.53594 0.41478 0.89205 0.0
H111 H 0.58471 0.3766 0.93767 0.0
H112 H 0.72645 0.46504 0.91755 0.0
H113 H 0.67783 0.50318 0.87192 0.0
C114 C 0.47233 0.60591 0.88261 0.0
C115 C 0.47803 0.6621 0.88339 0.0
C116 C 0.45449 0.69452 0.90705 0.0
C117 C 0.42643 0.671 0.93078 0.0
C118 C 0.41857 0.6152 0.92909 0.0
C119 C 0.44064 0.58304 0.90498 0.0
C120 C 0.50527 0.57053 0.86185 0.0
C121 C 0.53601 0.53161 0.87659 0.0
C122 C 0.50811 0.57583 0.82859 0.0
C123 C 0.46952 0.61069 0.81186 0.0
C124 C 0.48554 0.65916 0.79969 0.0
C125 C 0.44691 0.69603 0.78944 0.0
C126 C 0.39196 0.68448 0.79113 0.0
C127 C 0.37665 0.6345 0.80183 0.0
C128 C 0.41489 0.5982 0.81204 0.0
C129 C 0.61288 0.47063 0.80797 0.0
C130 C 0.61369 0.41465 0.81015 0.0
C131 C 0.65665 0.38466 0.79914 0.0
C132 C 0.69908 0.40987 0.78508 0.0
C133 C 0.69536 0.46492 0.77984 0.0
C134 C 0.65269 0.49509 0.79131 0.0
C135 C 0.57474 0.50404 0.82633 0.0
C136 C 0.54346 0.54317 0.81117 0.0
C137 C 0.57002 0.49807 0.85945 0.0
C138 C 0.60341 0.46166 0.8786 0.0
C139 C 0.57826 0.42386 0.89651 0.0
C140 C 0.60597 0.40212 0.92251 0.0
C141 C 0.65904 0.41793 0.93074 0.0
C142 C 0.6856 0.45191 0.91117 0.0
C143 C 0.65799 0.4735 0.88509 0.0
H144 H 0.57953 0.92225 0.09251 0.0
H145 H 0.52404 0.84637 0.07154 0.0
H146 H 0.41526 0.95446 0.02443 0.0
H147 H 0.47164 0.03098 0.04604 0.0
H148 H 0.58761 0.0541 0.04086 0.0
H149 H 0.61697 0.97594 0.1642 0.0
H150 H 0.57655 0.92881 0.20595 0.0
H151 H 0.41899 0.97105 0.16815 0.0
H152 H 0.46037 0.01922 0.12611 0.0
H153 H 0.60763 0.2037 0.14125 0.0
H154 H 0.65913 0.25318 0.18529 0.0
H155 H 0.792 0.14645 0.17237 0.0
H156 H 0.73948 0.09525 0.12964 0.0
H157 H 0.60764 0.0819 0.15921 0.0
H158 H 0.5947 0.18101 0.0448 0.0
H159 H 0.65109 0.25034 0.02449 0.0
H160 H 0.79255 0.16353 0.05386 0.0
H161 H 0.73562 0.09288 0.0725 0.0
C162 C 0.52953 0.98217 0.07098 0.0
C163 C 0.54378 0.92966 0.07764 0.0
C164 C 0.51182 0.88628 0.0656 0.0
C165 C 0.46481 0.89427 0.04643 0.0
C166 C 0.45098 0.94697 0.03926 0.0
C167 C 0.48329 0.99063 0.05138 0.0
C168 C 0.56211 0.0277 0.08597 0.0
C169 C 0.59158 0.06045 0.06671 0.0
C170 C 0.56831 0.03548 0.11972 0.0
C171 C 0.54177 1.00119 0.14205 0.0
C172 C 0.57367 0.97477 0.16468 0.0
C173 C 0.55041 0.94799 0.18867 0.0
C174 C 0.4945 0.94681 0.1907 0.0
C175 C 0.46221 0.97161 0.16735 0.0
C176 C 0.48573 0.99874 0.14319 0.0
C177 C 0.67026 0.14664 0.1317 0.0
C178 C 0.64873 0.19251 0.1469 0.0
C179 C 0.67795 0.22052 0.17205 0.0
C180 C 0.72934 0.20352 0.18173 0.0
C181 C 0.75278 0.16068 0.1647 0.0
C182 C 0.72301 0.1318 0.14011 0.0
C183 C 0.63349 0.10692 0.11445 0.0
C184 C 0.60314 0.07561 0.13332 0.0
C185 C 0.62841 0.0993 0.08077 0.0
C186 C 0.66101 0.13246 0.06079 0.0
C187 C 0.63773 0.17577 0.04559 0.0
C188 C 0.67016 0.2154 0.03399 0.0
C189 C 0.72642 0.21278 0.03798 0.0
C190 C 0.74943 0.16688 0.05063 0.0
C191 C 0.71692 0.12669 0.0615 0.0
H192 H 0.05201 0.74098 0.90435 0.0
H193 H 0.1025 0.77939 0.86215 0.0
H194 H 0.20437 0.64059 0.86029 0.0
H195 H 0.15577 0.60384 0.90325 0.0
H196 H 0.0201 0.61012 0.88479 0.0
H197 H 0.08654 0.74701 0.96429 0.0
H198 H 0.16924 0.79697 0.98008 0.0
H199 H 0.24148 0.65194 0.01279 0.0
H200 H 0.15921 0.60169 0.99567 0.0
H201 H 0.02176 0.48093 0.99281 0.0
H202 H 0.95572 0.42185 0.01517 0.0
H203 H 0.83015 0.5314 0.98823 0.0
H204 H 0.89546 0.58865 0.96584 0.0
H205 H 0.0472 0.60154 0.00258 0.0
H206 H 0.98741 0.46445 0.92451 0.0
H207 H 0.94392 0.40556 0.88174 0.0
H208 H 0.87664 0.54382 0.83784 0.0
H209 H 0.91751 0.60236 0.88146 0.0
C210 C 0.10091 0.67007 0.90724 0.0
C211 C 0.08658 0.72001 0.89567 0.0
C212 C 0.11514 0.74173 0.87155 0.0
C213 C 0.15685 0.71261 0.85797 0.0
C214 C 0.17214 0.66363 0.87037 0.0
C215 C 0.14477 0.64282 0.89502 0.0
C216 C 0.06459 0.64106 0.92709 0.0
C217 C 0.02463 0.60936 0.91068 0.0
C218 C 0.07335 0.63832 0.96058 0.0
C219 C 0.11725 0.67036 0.97799 0.0
C220 C 0.1199 0.72613 0.97533 0.0
C221 C 0.16709 0.75471 0.9845 0.0
C222 C 0.21206 0.72822 0.99724 0.0
C223 C 0.20745 0.67347 0.00303 0.0
C224 C 0.16042 0.64466 0.9933 0.0
C225 C 0.96338 0.53912 0.97766 0.0
C226 C 0.98003 0.49236 0.99232 0.0
C227 C 0.94226 0.45852 0.00488 0.0
C228 C 0.88751 0.47157 0.00338 0.0
C229 C 0.87181 0.51975 0.98986 0.0
C230 C 0.90917 0.55283 0.97706 0.0
C231 C 1.00065 0.57148 0.96008 0.0
C232 C 0.04121 0.60333 0.97685 0.0
C233 C 0.99289 0.57425 0.92651 0.0
C234 C 0.95578 0.53796 0.90626 0.0
C235 C 0.96109 0.48196 0.90665 0.0
C236 C 0.93666 0.44832 0.88202 0.0
C237 C 0.90789 0.47044 0.85634 0.0
C238 C 0.89927 0.52596 0.85723 0.0
C239 C 0.92244 0.55935 0.88219 0.0
H240 H 0.56384 0.6375 0.24166 0.0
H241 H 0.52419 0.7216 0.26006 0.0
H242 H 0.36687 0.66079 0.22748 0.0
H243 H 0.40733 0.57576 0.20882 0.0
H244 H 0.55828 0.53216 0.25165 0.0
H245 H 0.54552 0.63872 0.16115 0.0
H246 H 0.51347 0.69381 0.11792 0.0
H247 H 0.37822 0.58641 0.09683 0.0
H248 H 0.41185 0.52972 0.13972 0.0
H249 H 0.55383 0.3929 0.13223 0.0
H250 H 0.61122 0.36093 0.08986 0.0
H251 H 0.74379 0.45332 0.1357 0.0
H252 H 0.68561 0.48822 0.17669 0.0
H253 H 0.53378 0.49617 0.13404 0.0
H254 H 0.57893 0.38136 0.22687 0.0
H255 H 0.65075 0.32889 0.25135 0.0
H256 H 0.75391 0.46922 0.25984 0.0
H257 H 0.68036 0.52249 0.237 0.0
C258 C 0.48865 0.60039 0.22385 0.0
C259 C 0.52072 0.64164 0.23907 0.0
C260 C 0.49793 0.68997 0.24925 0.0
C261 C 0.44242 0.69805 0.24476 0.0
C262 C 0.40972 0.65569 0.23114 0.0
C263 C 0.43279 0.60725 0.22052 0.0
C264 C 0.51477 0.55341 0.20824 0.0
C265 C 0.55229 0.52358 0.22601 0.0
C266 C 0.50766 0.54243 0.17482 0.0
C267 C 0.48079 0.58051 0.15369 0.0
C268 C 0.50825 0.62771 0.14779 0.0
C269 C 0.49013 0.65888 0.12301 0.0
C270 C 0.44363 0.644 0.10412 0.0
C271 C 0.41401 0.59869 0.1113 0.0
C272 C 0.43306 0.56649 0.1357 0.0
C273 C 0.61535 0.44241 0.15811 0.0
C274 C 0.59565 0.40506 0.13375 0.0
C275 C 0.62831 0.38711 0.10945 0.0
C276 C 0.68164 0.40517 0.10949 0.0
C277 C 0.70288 0.43855 0.13532 0.0
C278 C 0.66972 0.45781 0.15914 0.0
C279 C 0.57707 0.47432 0.17717 0.0
C280 C 0.53743 0.50195 0.15997 0.0
C281 C 0.58402 0.48463 0.21075 0.0
C282 C 0.6246 0.45554 0.22991 0.0
C283 C 0.61638 0.40122 0.235 0.0
C284 C 0.65737 0.37145 0.24921 0.0
C285 C 0.70786 0.39513 0.25763 0.0
C286 C 0.71526 0.45018 0.25383 0.0
C287 C 0.67343 0.48048 0.24072 0.0
H288 H 0.57156 0.93325 0.39788 0.0
H289 H 0.52706 0.87576 0.35497 0.0
H290 H 0.37649 0.95197 0.37285 0.0
H291 H 0.4216 0.01062 0.4158 0.0
H292 H 0.55297 0.04888 0.38271 0.0
H293 H 0.54447 0.91739 0.46316 0.0
H294 H 0.47752 0.85703 0.48235 0.0
H295 H 0.39508 0.99391 0.52332 0.0
H296 H 0.46101 0.05398 0.50294 0.0
H297 H 0.60511 0.18869 0.49606 0.0
H298 H 0.68467 0.24083 0.51784 0.0
H299 H 0.78602 0.12519 0.4702 0.0
H300 H 0.70769 0.07403 0.4495 0.0
H301 H 0.57886 0.06986 0.50107 0.0
H302 H 0.61579 0.19836 0.41503 0.0
H303 H 0.66696 0.23695 0.37319 0.0
H304 H 0.70696 0.07686 0.33775 0.0
H305 H 0.6572 0.03925 0.37928 0.0
C306 C 0.49974 0.97603 0.40983 0.0
C307 C 0.52854 0.93605 0.3935 0.0
C308 C 0.50324 0.90334 0.36907 0.0
C309 C 0.44871 0.90973 0.36095 0.0
C310 C 0.41857 0.94614 0.37922 0.0
C311 C 0.44417 0.97949 0.40364 0.0
C312 C 0.53035 0.02036 0.42731 0.0
C313 C 0.5584 0.05403 0.40863 0.0
C314 C 0.53674 0.02626 0.46101 0.0
C315 C 0.50686 0.99027 0.48086 0.0
C316 C 0.51267 0.9343 0.47697 0.0
C317 C 0.47451 0.89976 0.48809 0.0
C318 C 0.43048 0.92061 0.50394 0.0
C319 C 0.42844 0.97643 0.51115 0.0
C320 C 0.46617 0.01099 0.49953 0.0
C321 C 0.6507 0.12784 0.47099 0.0
C322 C 0.6447 0.17478 0.49064 0.0
C323 C 0.69005 0.20463 0.50285 0.0
C324 C 0.74175 0.18763 0.49553 0.0
C325 C 0.74702 0.14005 0.4762 0.0
C326 C 0.70218 0.11047 0.4643 0.0
C327 C 0.60412 0.09693 0.45608 0.0
C328 C 0.57253 0.066 0.47522 0.0
C329 C 0.59671 0.09069 0.42231 0.0
C330 C 0.63228 0.11591 0.40009 0.0
C331 C 0.63633 0.17185 0.39847 0.0
C332 C 0.66527 0.19377 0.37448 0.0
C333 C 0.69019 0.15992 0.3518 0.0
C334 C 0.68758 0.10415 0.35443 0.0
C335 C 0.6592 0.08251 0.37829 0.0
H336 H 0.09042 0.21807 0.75381 0.0
H337 H 0.02923 0.28727 0.77238 0.0
H338 H 0.8942 0.19114 0.73281 0.0
H339 H 0.95625 0.1217 0.71377 0.0
H340 H 0.10419 0.10117 0.75801 0.0
H341 H 0.03467 0.23531 0.68003 0.0
H342 H 0.97546 0.27373 0.63857 0.0
H343 H 0.94856 0.11561 0.59268 0.0
H344 H 0.00481 0.07711 0.63471 0.0
H345 H 0.15547 0.96626 0.67346 0.0
H346 H 0.19487 0.91893 0.62763 0.0
H347 H 0.25828 0.06864 0.59902 0.0
H348 H 0.21998 0.1159 0.6452 0.0
H349 H 0.10862 0.10374 0.64004 0.0
H350 H 0.11547 0.99681 0.7565 0.0
H351 H 0.16903 0.92266 0.77541 0.0
H352 H 0.30804 0.9881 0.73425 0.0
H353 H 0.25477 0.06375 0.71664 0.0
C354 C 0.02794 0.16495 0.73231 0.0
C355 C 0.04764 0.21109 0.74991 0.0
C356 C 0.01259 0.25082 0.76022 0.0
C357 C 0.95699 0.24486 0.7536 0.0
C358 C 0.93684 0.19672 0.73821 0.0
C359 C 0.97219 0.1571 0.72741 0.0
C360 C 0.0661 0.13051 0.71499 0.0
C361 C 0.1052 0.10144 0.73219 0.0
C362 C 0.06659 0.12965 0.6813 0.0
C363 C 0.02408 0.15327 0.66051 0.0
C364 C 0.01435 0.20875 0.66177 0.0
C365 C 0.98079 0.23066 0.63806 0.0
C366 C 0.95809 0.19746 0.61247 0.0
C367 C 0.96594 0.14193 0.61212 0.0
C368 C 0.99802 0.12 0.63611 0.0
C369 C 0.18501 0.04454 0.6628 0.0
C370 C 0.18032 0.98849 0.6584 0.0
C371 C 0.20266 0.96156 0.63221 0.0
C372 C 0.22966 0.99044 0.61019 0.0
C373 C 0.23829 0.04569 0.61607 0.0
C374 C 0.21644 0.07255 0.64239 0.0
C375 C 0.14704 0.07485 0.6827 0.0
C376 C 0.10796 0.10346 0.66593 0.0
C377 C 0.14491 0.07195 0.71628 0.0
C378 C 0.18055 0.03518 0.73424 0.0
C379 C 0.15793 0.99648 0.75258 0.0
C380 C 0.18872 0.95392 0.76341 0.0
C381 C 0.2426 0.94893 0.75581 0.0
C382 C 0.26649 0.99046 0.74018 0.0
C383 C 0.23589 0.03355 0.72987 0.0
O384 O 0.38942 0.74914 0.95621 0.0
Cd385 Cd 0.3516 0.78586 0.99396 0.0
Cd386 Cd 0.41455 0.7247 0.03103 0.0
O387 O 0.41788 0.68461 0.98649 0.0
O388 O 0.27426 0.79465 0.98195 0.0
O389 O 0.30522 0.73559 0.01586 0.0
C390 C 0.26523 0.75504 0.99952 0.0
C391 C 0.43039 0.67307 0.07528 0.0
C392 C 0.41006 0.70323 0.95905 0.0
C393 C 0.43176 0.84717 0.03388 0.0
O394 O 0.44816 0.8005 0.03965 0.0
O395 O 0.38832 0.8527 0.01724 0.0
O396 O 0.46808 0.68603 0.05754 0.0
O397 O 0.38225 0.68761 0.06744 0.0
O398 O 0.39278 0.84973 0.32756 0.0
Cd399 Cd 0.35239 0.83028 0.28426 0.0
Cd400 Cd 0.43787 0.87211 0.25885 0.0
O401 O 0.4456 0.90597 0.30488 0.0
O402 O 0.2751 0.84455 0.28945 0.0
O403 O 0.32898 0.89712 0.26426 0.0
C404 C 0.28345 0.88957 0.27665 0.0
C405 C 0.47124 0.91972 0.21731 0.0
C406 C 0.42737 0.88745 0.32975 0.0
C407 C 0.4208 0.75177 0.253 0.0
O408 O 0.45263 0.79168 0.25366 0.0
O409 O 0.37238 0.75844 0.26014 0.0
O410 O 0.50218 0.90053 0.23928 0.0
O411 O 0.42025 0.91375 0.21934 0.0
O412 O 0.25931 0.8815 0.45773 0.0
Cd413 Cd 0.29702 0.84942 0.49721 0.0
Cd414 Cd 0.23935 0.91724 0.52913 0.0
O415 O 0.24937 0.95615 0.48741 0.0
O416 O 0.3751 0.84209 0.48974 0.0
O417 O 0.34204 0.90591 0.52179 0.0
C418 C 0.38215 0.88679 0.50688 0.0
C419 C 0.23679 0.96554 0.57822 0.0
C420 C 0.25079 0.93166 0.45996 0.0
C421 C 0.20888 0.80065 0.5277 0.0
O422 O 0.19265 0.84877 0.52818 0.0
O423 O 0.25617 0.79019 0.51952 0.0
O424 O 0.19862 0.96806 0.55644 0.0
O425 O 0.27846 0.93763 0.57183 0.0
O426 O 0.25538 0.76938 0.71218 0.0
Cd427 Cd 0.29639 0.80854 0.75084 0.0
Cd428 Cd 0.22938 0.7502 0.78469 0.0
O429 O 0.18658 0.75362 0.74111 0.0
O430 O 0.30916 0.88438 0.74081 0.0
O431 O 0.24983 0.85959 0.77474 0.0
C432 C 0.26991 0.89677 0.75861 0.0
C433 C 0.18167 0.72957 0.82912 0.0
C434 C 0.20657 0.75606 0.71398 0.0
C435 C 0.34962 0.72334 0.78255 0.0
O436 O 0.30133 0.71051 0.78655 0.0
O437 O 0.36031 0.76821 0.77145 0.0
O438 O 0.18902 0.69475 0.80602 0.0
O439 O 0.19875 0.77793 0.82658 0.0
O440 O 0.89601 0.25603 0.58745 0.0
Cd441 Cd 0.85928 0.29275 0.54926 0.0
Cd442 Cd 0.91335 0.22118 0.51219 0.0
O443 O 0.94457 0.20287 0.55668 0.0
O444 O 0.85208 0.37048 0.56097 0.0
O445 O 0.90943 0.33783 0.52638 0.0
C446 C 0.89103 0.37853 0.54275 0.0
C447 C 0.96698 0.20543 0.46864 0.0
C448 C 0.93142 0.22016 0.58427 0.0
C449 C 0.79096 0.21702 0.50828 0.0
O450 O 0.83573 0.19846 0.50047 0.0
O451 O 0.78929 0.25832 0.52748 0.0
O452 O 0.94697 0.16695 0.4833 0.0
O453 O 0.95879 0.25398 0.47944 0.0
O454 O 0.87747 0.38891 0.82816 0.0
Cd455 Cd 0.8377 0.35187 0.78814 0.0
Cd456 Cd 0.90393 0.41123 0.7577 0.0
O457 O 0.89797 0.45708 0.80001 0.0
O458 O 0.76185 0.34105 0.79833 0.0
O459 O 0.78814 0.40177 0.76572 0.0
C460 C 0.75057 0.38174 0.78155 0.0
C461 C 0.92423 0.45572 0.71211 0.0
C462 C 0.89273 0.43735 0.82692 0.0
C463 C 0.92199 0.29122 0.76023 0.0
O464 O 0.94174 0.33805 0.75917 0.0
O465 O 0.87336 0.28528 0.76674 0.0
O466 O 0.9593 0.44964 0.73521 0.0
O467 O 0.87612 0.4384 0.71511 0.0
O468 O 0.76259 0.38565 0.08357 0.0
Cd469 Cd 0.79579 0.34746 0.04439 0.0
Cd470 Cd 0.72913 0.40514 0.01215 0.0
O471 O 0.68881 0.39561 0.05335 0.0
O472 O 0.80375 0.2695 0.05219 0.0
O473 O 0.73985 0.30145 0.01994 0.0
C474 C 0.75934 0.26172 0.03501 0.0
C475 C 0.68262 0.40967 0.96281 0.0
C476 C 0.71253 0.39424 0.08096 0.0
C477 C 0.8456 0.4353 0.01429 0.0
O478 O 0.79762 0.45162 0.01386 0.0
O479 O 0.85579 0.38786 0.02228 0.0
O480 O 0.68089 0.44789 0.98473 0.0
O481 O 0.70833 0.36668 0.96926 0.0
O482 O 0.79747 0.24821 0.21552 0.0
Cd483 Cd 0.81451 0.29165 0.2582 0.0
Cd484 Cd 0.76738 0.21112 0.28321 0.0
O485 O 0.72989 0.21091 0.2379 0.0
O486 O 0.79921 0.36876 0.25204 0.0
O487 O 0.74665 0.31476 0.27712 0.0
C488 C 0.75389 0.36001 0.2644 0.0
C489 C 0.71852 0.18126 0.32509 0.0
C490 C 0.75322 0.22265 0.21303 0.0
C491 C 0.88812 0.22165 0.28989 0.0
O492 O 0.8472 0.19087 0.2872 0.0
O493 O 0.8833 0.271 0.28436 0.0
O494 O 0.73413 0.14901 0.30244 0.0
O495 O 0.72907 0.23173 0.32364 0.0
loop_
_geom_bond_atom_site_label_1
_geom_bond_atom_site_label_2
_geom_bond_distance
_geom_bond_site_symmetry_2
_ccdc_geom_bond_type
H0 C19 0.949 . S
H1 C20 0.950 1_455 S
H2 C22 0.950 . S
H3 C23 0.950 . S
H4 C25 0.950 . S
H5 C28 0.950 . S
H6 C29 0.950 . S
H7 C31 0.951 . S
H8 C32 0.949 1_565 S
H9 C34 0.949 . S
H10 C35 0.950 . S
H11 C37 0.950 . S
H12 C38 0.950 . S
H13 C40 0.950 1_565 S
H14 C43 0.950 . S
H15 C44 0.950 . S
H16 C46 0.951 . S
H17 C47 0.949 . S
C18 C19 1.376 . S
C18 C23 1.386 1_455 S
C18 C24 1.483 . S
C19 H0 0.949 . S
C19 C18 1.376 . S
C19 C20 1.397 1_455 S
C20 H1 0.950 1_655 S
C20 C19 1.397 1_655 S
C20 C21 1.391 . S
C21 C20 1.391 . S
C21 C22 1.405 . S
C22 H2 0.950 . S
C22 C21 1.405 . S
C22 C23 1.367 . S
C23 H3 0.950 . S
C23 C18 1.386 1_655 S
C23 C22 1.367 . S
C24 C18 1.483 . S
C24 C25 1.382 . S
C24 C26 1.403 . S
C25 H4 0.950 . S
C25 C24 1.382 . S
C25 C41 1.411 1_545 S
C26 C24 1.403 . S
C26 C27 1.489 . S
C26 C40 1.411 . S
C27 C26 1.489 . S
C27 C28 1.383 . S
C27 C32 1.382 1_455 S
C28 H5 0.950 . S
C28 C27 1.383 . S
C28 C29 1.395 1_455 S
C29 H6 0.950 . S
C29 C28 1.395 1_655 S
C29 C30 1.288 . S
C30 C29 1.288 . S
C30 C31 1.392 . S
C31 H7 0.951 . S
C31 C30 1.392 . S
C31 C32 1.392 . S
C32 H8 0.949 1_545 S
C32 C27 1.382 1_655 S
C32 C31 1.392 . S
C33 C34 1.376 . S
C33 C38 1.386 . S
C33 C39 1.483 . S
C34 H9 0.949 . S
C34 C33 1.376 . S
C34 C35 1.397 . S
C35 H10 0.950 . S
C35 C34 1.397 . S
C35 C36 1.391 . S
C36 C35 1.391 . S
C36 C37 1.405 . S
C37 H11 0.950 . S
C37 C36 1.405 . S
C37 C38 1.367 . S
C38 H12 0.950 . S
C38 C33 1.386 . S
C38 C37 1.367 . S
C39 C33 1.483 . S
C39 C40 1.382 1_565 S
C39 C41 1.403 . S
C40 H13 0.950 1_545 S
C40 C26 1.411 . S
C40 C39 1.382 1_545 S
C41 C25 1.411 1_565 S
C41 C39 1.403 . S
C41 C42 1.489 . S
C42 C41 1.489 . S
C42 C43 1.383 . S
C42 C47 1.382 1_565 S
C43 H14 0.950 . S
C43 C42 1.383 . S
C43 C44 1.395 . S
C44 H15 0.950 . S
C44 C43 1.395 . S
C44 C45 1.288 . S
C45 C44 1.288 . S
C45 C46 1.392 . S
C46 H16 0.951 . S
C46 C45 1.392 . S
C46 C47 1.392 1_565 S
C47 H17 0.949 . S
C47 C42 1.382 1_545 S
C47 C46 1.392 1_545 S
H48 C67 0.949 . S
H49 C68 0.950 1_455 S
H50 C70 0.950 . S
H51 C71 0.950 . S
H52 C73 0.950 . S
H53 C76 0.936 1_455 S
H54 C77 0.950 . S
H55 C79 0.951 . S
H56 C80 0.949 . S
H57 C82 0.949 . S
H58 C83 0.950 . S
H59 C85 0.950 . S
H60 C86 0.950 . S
H61 C88 0.950 . S
H62 C91 0.950 . S
H63 C92 0.950 . S
H64 C94 0.951 . S
H65 C95 0.949 . S
C66 C67 1.376 1_655 S
C66 C71 1.386 . S
C66 C72 1.483 1_655 S
C67 H48 0.949 . S
C67 C66 1.376 1_455 S
C67 C68 1.397 1_455 S
C68 H49 0.950 1_655 S
C68 C67 1.397 1_655 S
C68 C69 1.391 . S
C69 C68 1.391 . S
C69 C70 1.405 . S
C70 H50 0.950 . S
C70 C69 1.405 . S
C70 C71 1.367 . S
C71 H51 0.950 . S
C71 C66 1.386 . S
C71 C70 1.367 . S
C72 C66 1.483 1_455 S
C72 C73 1.382 . S
C72 C74 1.403 . S
C73 H52 0.950 . S
C73 C72 1.382 . S
C73 C89 1.411 . S
C74 C72 1.403 . S
C74 C75 1.489 1_455 S
C74 C88 1.411 . S
C75 C74 1.489 1_655 S
C75 C76 1.383 . S
C75 C80 1.382 . S
C76 H53 0.936 1_655 S
C76 C75 1.383 . S
C76 C77 1.395 . S
C77 H54 0.950 . S
C77 C76 1.395 . S
C77 C78 1.288 . S
C78 C77 1.288 . S
C78 C79 1.392 . S
C79 H55 0.951 . S
C79 C78 1.392 . S
C79 C80 1.392 . S
C80 H56 0.949 . S
C80 C75 1.382 . S
C80 C79 1.392 . S
C81 C82 1.376 . S
C81 C86 1.386 . S
C81 C87 1.483 . S
C82 H57 0.949 . S
C82 C81 1.376 . S
C82 C83 1.397 . S
C83 H58 0.950 . S
C83 C82 1.397 . S
C83 C84 1.391 . S
C84 C83 1.391 . S
C84 C85 1.405 . S
C85 H59 0.950 . S
C85 C84 1.405 . S
C85 C86 1.367 . S
C86 H60 0.950 . S
C86 C81 1.386 . S
C86 C85 1.367 . S
C87 C81 1.483 . S
C87 C88 1.382 . S
C87 C89 1.403 . S
C88 H61 0.950 . S
C88 C74 1.411 . S
C88 C87 1.382 . S
C89 C73 1.411 . S
C89 C87 1.403 . S
C89 C90 1.489 . S
C90 C89 1.489 . S
C90 C91 1.383 . S
C90 C95 1.382 . S
C91 H62 0.950 . S
C91 C90 1.383 . S
C91 C92 1.395 . S
C92 H63 0.950 . S
C92 C91 1.395 . S
C92 C93 1.288 . S
C93 C92 1.288 . S
C93 C94 1.392 . S
C94 H64 0.951 . S
C94 C93 1.392 . S
C94 C95 1.392 . S
C95 H65 0.949 . S
C95 C90 1.382 . S
C95 C94 1.392 . S
H96 C115 0.949 . S
H97 C116 0.950 . S
H98 C118 0.950 . S
H99 C119 0.950 . S
H100 C121 0.950 . S
H101 C124 0.950 . S
H102 C125 0.950 . S
H103 C127 0.951 . S
H104 C128 0.949 . S
H105 C130 0.949 . S
H106 C131 0.950 . S
H107 C133 0.950 . S
H108 C134 0.950 . S
H109 C136 0.950 . S
H110 C139 0.950 . S
H111 C140 0.950 . S
H112 C142 0.951 . S
H113 C143 0.949 . S
C114 C115 1.376 . S
C114 C119 1.386 . S
C114 C120 1.483 . S
C115 H96 0.949 . S
C115 C114 1.376 . S
C115 C116 1.397 . S
C116 H97 0.950 . S
C116 C115 1.397 . S
C116 C117 1.391 . S
C117 C116 1.391 . S
C117 C118 1.405 . S
C118 H98 0.950 . S
C118 C117 1.405 . S
C118 C119 1.367 . S
C119 H99 0.950 . S
C119 C114 1.386 . S
C119 C118 1.367 . S
C120 C114 1.483 . S
C120 C121 1.382 . S
C120 C122 1.403 . S
C121 H100 0.950 . S
C121 C120 1.382 . S
C121 C137 1.411 . S
C122 C120 1.403 . S
C122 C123 1.489 . S
C122 C136 1.411 . S
C123 C122 1.489 . S
C123 C124 1.383 . S
C123 C128 1.382 . S
C124 H101 0.950 . S
C124 C123 1.383 . S
C124 C125 1.395 . S
C125 H102 0.950 . S
C125 C124 1.395 . S
C125 C126 1.288 . S
C126 C125 1.288 . S
C126 C127 1.392 . S
C127 H103 0.951 . S
C127 C126 1.392 . S
C127 C128 1.392 . S
C128 H104 0.949 . S
C128 C123 1.382 . S
C128 C127 1.392 . S
C129 C130 1.376 . S
C129 C134 1.386 . S
C129 C135 1.483 . S
C130 H105 0.949 . S
C130 C129 1.376 . S
C130 C131 1.397 . S
C131 H106 0.950 . S
C131 C130 1.397 . S
C131 C132 1.391 . S
C132 C131 1.391 . S
C132 C133 1.405 . S
C133 H107 0.950 . S
C133 C132 1.405 . S
C133 C134 1.367 . S
C134 H108 0.950 . S
C134 C129 1.386 . S
C134 C133 1.367 . S
C135 C129 1.483 . S
C135 C136 1.382 . S
C135 C137 1.403 . S
C136 H109 0.950 . S
C136 C122 1.411 . S
C136 C135 1.382 . S
C137 C121 1.411 . S
C137 C135 1.403 . S
C137 C138 1.489 . S
C138 C137 1.489 . S
C138 C139 1.383 . S
C138 C143 1.382 . S
C139 H110 0.950 . S
C139 C138 1.383 . S
C139 C140 1.395 . S
C140 H111 0.950 . S
C140 C139 1.395 . S
C140 C141 1.288 . S
C141 C140 1.288 . S
C141 C142 1.392 . S
C142 H112 0.951 . S
C142 C141 1.392 . S
C142 C143 1.392 . S
C143 H113 0.949 . S
C143 C138 1.382 . S
C143 C142 1.392 . S
H144 C163 0.949 . S
H145 C164 0.950 1_556 S
H146 C166 0.950 . S
H147 C167 0.950 . S
H148 C169 0.950 . S
H149 C172 0.950 . S
H150 C173 0.950 . S
H151 C175 0.951 . S
H152 C176 0.949 . S
H153 C178 0.949 . S
H154 C179 0.950 . S
H155 C181 0.950 . S
H156 C182 0.950 . S
H157 C184 0.950 . S
H158 C187 0.950 . S
H159 C188 0.950 . S
H160 C190 0.951 1_556 S
H161 C191 0.949 . S
C162 C163 1.376 . S
C162 C167 1.386 . S
C162 C168 1.483 . S
C163 H144 0.949 . S
C163 C162 1.376 . S
C163 C164 1.397 . S
C164 H145 0.950 1_554 S
C164 C163 1.397 . S
C164 C165 1.391 . S
C165 C164 1.391 . S
C165 C166 1.405 . S
C166 H146 0.950 . S
C166 C165 1.405 . S
C166 C167 1.367 . S
C167 H147 0.950 . S
C167 C162 1.386 . S
C167 C166 1.367 . S
C168 C162 1.483 . S
C168 C169 1.382 . S
C168 C170 1.403 . S
C169 H148 0.950 . S
C169 C168 1.382 . S
C169 C185 1.411 1_565 S
C170 C168 1.403 . S
C170 C171 1.489 . S
C170 C184 1.411 1_565 S
C171 C170 1.489 . S
C171 C172 1.383 . S
C171 C176 1.382 . S
C172 H149 0.950 . S
C172 C171 1.383 . S
C172 C173 1.395 . S
C173 H150 0.950 . S
C173 C172 1.395 . S
C173 C174 1.288 . S
C174 C173 1.288 . S
C174 C175 1.392 . S
C175 H151 0.951 . S
C175 C174 1.392 . S
C175 C176 1.392 . S
C176 H152 0.949 . S
C176 C171 1.382 . S
C176 C175 1.392 . S
C177 C178 1.376 . S
C177 C182 1.386 . S
C177 C183 1.483 . S
C178 H153 0.949 . S
C178 C177 1.376 . S
C178 C179 1.397 . S
C179 H154 0.950 . S
C179 C178 1.397 . S
C179 C180 1.391 . S
C180 C179 1.391 . S
C180 C181 1.405 . S
C181 H155 0.950 . S
C181 C180 1.405 . S
C181 C182 1.367 . S
C182 H156 0.950 . S
C182 C177 1.386 . S
C182 C181 1.367 . S
C183 C177 1.483 . S
C183 C184 1.382 . S
C183 C185 1.403 . S
C184 H157 0.950 . S
C184 C170 1.411 1_545 S
C184 C183 1.382 . S
C185 C169 1.411 1_545 S
C185 C183 1.403 . S
C185 C186 1.489 . S
C186 C185 1.489 . S
C186 C187 1.383 . S
C186 C191 1.382 . S
C187 H158 0.950 . S
C187 C186 1.383 . S
C187 C188 1.395 . S
C188 H159 0.950 . S
C188 C187 1.395 . S
C188 C189 1.288 . S
C189 C188 1.288 . S
C189 C190 1.392 . S
C190 H160 0.951 1_554 S
C190 C189 1.392 . S
C190 C191 1.392 . S
C191 H161 0.949 . S
C191 C186 1.382 . S
C191 C190 1.392 . S
H192 C211 0.949 . S
H193 C212 0.950 . S
H194 C214 0.950 . S
H195 C215 0.950 . S
H196 C217 0.950 . S
H197 C220 0.950 . S
H198 C221 0.950 . S
H199 C223 0.951 . S
H200 C224 0.949 . S
H201 C226 0.949 . S
H202 C227 0.950 . S
H203 C229 0.950 . S
H204 C230 0.950 . S
H205 C232 0.950 . S
H206 C235 0.950 . S
H207 C236 0.950 . S
H208 C238 0.951 . S
H209 C239 0.949 . S
C210 C211 1.376 . S
C210 C215 1.386 . S
C210 C216 1.483 . S
C211 H192 0.949 . S
C211 C210 1.376 . S
C211 C212 1.397 . S
C212 H193 0.950 . S
C212 C211 1.397 . S
C212 C213 1.391 . S
C213 C212 1.391 . S
C213 C214 1.405 . S
C214 H194 0.950 . S
C214 C213 1.405 . S
C214 C215 1.367 . S
C215 H195 0.950 . S
C215 C210 1.386 . S
C215 C214 1.367 . S
C216 C210 1.483 . S
C216 C217 1.382 1_455 S
C216 C218 1.403 . S
C217 H196 0.950 . S
C217 C216 1.382 1_655 S
C217 C233 1.411 . S
C218 C216 1.403 . S
C218 C219 1.489 . S
C218 C232 1.411 . S
C219 C218 1.489 . S
C219 C220 1.383 . S
C219 C224 1.382 1_556 S
C220 H197 0.950 . S
C220 C219 1.383 . S
C220 C221 1.395 1_556 S
C221 H198 0.950 . S
C221 C220 1.395 1_554 S
C221 C222 1.288 . S
C222 C221 1.288 . S
C222 C223 1.392 . S
C223 H199 0.951 . S
C223 C222 1.392 . S
C223 C224 1.392 . S
C224 H200 0.949 . S
C224 C219 1.382 1_554 S
C224 C223 1.392 . S
C225 C226 1.376 . S
C225 C230 1.386 . S
C225 C231 1.483 . S
C226 H201 0.949 . S
C226 C225 1.376 . S
C226 C227 1.397 1_556 S
C227 H202 0.950 . S
C227 C226 1.397 1_554 S
C227 C228 1.391 . S
C228 C227 1.391 . S
C228 C229 1.405 1_554 S
C229 H203 0.950 . S
C229 C228 1.405 1_556 S
C229 C230 1.367 . S
C230 H204 0.950 . S
C230 C225 1.386 . S
C230 C229 1.367 . S
C231 C225 1.483 . S
C231 C232 1.382 1_655 S
C231 C233 1.403 . S
C232 H205 0.950 . S
C232 C218 1.411 . S
C232 C231 1.382 1_455 S
C233 C217 1.411 . S
C233 C231 1.403 . S
C233 C234 1.489 . S
C234 C233 1.489 . S
C234 C235 1.383 . S
C234 C239 1.382 . S
C235 H206 0.950 . S
C235 C234 1.383 . S
C235 C236 1.395 . S
C236 H207 0.950 . S
C236 C235 1.395 . S
C236 C237 1.288 . S
C237 C236 1.288 . S
C237 C238 1.392 . S
C238 H208 0.951 . S
C238 C237 1.392 . S
C238 C239 1.392 . S
C239 H209 0.949 . S
C239 C234 1.382 . S
C239 C238 1.392 . S
H240 C259 0.949 . S
H241 C260 0.950 . S
H242 C262 0.950 . S
H243 C263 0.950 . S
H244 C265 0.950 . S
H245 C268 0.950 . S
H246 C269 0.950 . S
H247 C271 0.951 . S
H248 C272 0.949 . S
H249 C274 0.949 . S
H250 C275 0.950 . S
H251 C277 0.950 . S
H252 C278 0.950 . S
H253 C280 0.950 . S
H254 C283 0.950 . S
H255 C284 0.950 . S
H256 C286 0.951 . S
H257 C287 0.949 . S
C258 C259 1.376 . S
C258 C263 1.386 . S
C258 C264 1.483 . S
C259 H240 0.949 . S
C259 C258 1.376 . S
C259 C260 1.397 . S
C260 H241 0.950 . S
C260 C259 1.397 . S
C260 C261 1.391 . S
C261 C260 1.391 . S
C261 C262 1.405 . S
C262 H242 0.950 . S
C262 C261 1.405 . S
C262 C263 1.367 . S
C263 H243 0.950 . S
C263 C258 1.386 . S
C263 C262 1.367 . S
C264 C258 1.483 . S
C264 C265 1.382 . S
C264 C266 1.403 . S
C265 H244 0.950 . S
C265 C264 1.382 . S
C265 C281 1.411 . S
C266 C264 1.403 . S
C266 C267 1.489 . S
C266 C280 1.411 . S
C267 C266 1.489 . S
C267 C268 1.383 . S
C267 C272 1.382 . S
C268 H245 0.950 . S
C268 C267 1.383 . S
C268 C269 1.395 . S
C269 H246 0.950 . S
C269 C268 1.395 . S
C269 C270 1.288 . S
C270 C269 1.288 . S
C270 C271 1.392 . S
C271 H247 0.951 . S
C271 C270 1.392 . S
C271 C272 1.392 . S
C272 H248 0.949 . S
C272 C267 1.382 . S
C272 C271 1.392 . S
C273 C274 1.376 . S
C273 C278 1.386 . S
C273 C279 1.483 . S
C274 H249 0.949 . S
C274 C273 1.376 . S
C274 C275 1.397 . S
C275 H250 0.950 . S
C275 C274 1.397 . S
C275 C276 1.391 . S
C276 C275 1.391 . S
C276 C277 1.405 . S
C277 H251 0.950 . S
C277 C276 1.405 . S
C277 C278 1.367 . S
C278 H252 0.950 . S
C278 C273 1.386 . S
C278 C277 1.367 . S
C279 C273 1.483 . S
C279 C280 1.382 . S
C279 C281 1.403 . S
C280 H253 0.950 . S
C280 C266 1.411 . S
C280 C279 1.382 . S
C281 C265 1.411 . S
C281 C279 1.403 . S
C281 C282 1.489 . S
C282 C281 1.489 . S
C282 C283 1.383 . S
C282 C287 1.382 . S
C283 H254 0.950 . S
C283 C282 1.383 . S
C283 C284 1.395 . S
C284 H255 0.950 . S
C284 C283 1.395 . S
C284 C285 1.288 . S
C285 C284 1.288 . S
C285 C286 1.392 . S
C286 H256 0.951 . S
C286 C285 1.392 . S
C286 C287 1.392 . S
C287 H257 0.949 . S
C287 C282 1.382 . S
C287 C286 1.392 . S
H288 C307 0.949 . S
H289 C308 0.950 . S
H290 C310 0.950 . S
H291 C311 0.950 . S
H292 C313 0.948 1_565 S
H293 C316 0.950 . S
H294 C317 0.950 . S
H295 C319 0.951 1_545 S
H296 C320 0.949 . S
H297 C322 0.949 . S
H298 C323 0.950 . S
H299 C325 0.950 . S
H300 C326 0.950 . S
H301 C328 0.950 . S
H302 C331 0.950 . S
H303 C332 0.950 . S
H304 C334 0.951 . S
H305 C335 0.949 1_565 S
C306 C307 1.376 . S
C306 C311 1.386 . S
C306 C312 1.483 . S
C307 H288 0.949 . S
C307 C306 1.376 . S
C307 C308 1.397 . S
C308 H289 0.950 . S
C308 C307 1.397 . S
C308 C309 1.391 . S
C309 C308 1.391 . S
C309 C310 1.405 . S
C310 H290 0.950 . S
C310 C309 1.405 . S
C310 C311 1.367 . S
C311 H291 0.950 . S
C311 C306 1.386 . S
C311 C310 1.367 . S
C312 C306 1.483 . S
C312 C313 1.378 1_565 S
C312 C314 1.403 . S
C313 H292 0.948 1_545 S
C313 C312 1.378 1_545 S
C313 C329 1.417 . S
C314 C312 1.403 . S
C314 C315 1.489 . S
C314 C328 1.411 1_565 S
C315 C314 1.489 . S
C315 C316 1.383 . S
C315 C320 1.382 1_565 S
C316 H293 0.950 . S
C316 C315 1.383 . S
C316 C317 1.395 . S
C317 H294 0.950 . S
C317 C316 1.395 . S
C317 C318 1.288 . S
C318 C317 1.288 . S
C318 C319 1.392 . S
C319 H295 0.951 1_565 S
C319 C318 1.392 . S
C319 C320 1.392 1_565 S
C320 H296 0.949 . S
C320 C315 1.382 1_545 S
C320 C319 1.392 1_545 S
C321 C322 1.376 . S
C321 C326 1.386 . S
C321 C327 1.483 . S
C322 H297 0.949 . S
C322 C321 1.376 . S
C322 C323 1.397 . S
C323 H298 0.950 . S
C323 C322 1.397 . S
C323 C324 1.391 . S
C324 C323 1.391 . S
C324 C325 1.405 . S
C325 H299 0.950 . S
C325 C324 1.405 . S
C325 C326 1.367 . S
C326 H300 0.950 . S
C326 C321 1.386 . S
C326 C325 1.367 . S
C327 C321 1.483 . S
C327 C328 1.382 . S
C327 C329 1.403 . S
C328 H301 0.950 . S
C328 C314 1.411 1_545 S
C328 C327 1.382 . S
C329 C313 1.417 . S
C329 C327 1.403 . S
C329 C330 1.489 . S
C330 C329 1.489 . S
C330 C331 1.383 . S
C330 C335 1.382 . S
C331 H302 0.950 . S
C331 C330 1.383 . S
C331 C332 1.395 . S
C332 H303 0.950 . S
C332 C331 1.395 . S
C332 C333 1.288 . S
C333 C332 1.288 . S
C333 C334 1.392 . S
C334 H304 0.951 . S
C334 C333 1.392 . S
C334 C335 1.392 . S
C335 H305 0.949 1_545 S
C335 C330 1.382 . S
C335 C334 1.392 . S
H336 C355 0.949 . S
H337 C356 0.950 1_455 S
H338 C358 0.950 . S
H339 C359 0.950 . S
H340 C361 0.950 . S
H341 C364 0.950 . S
H342 C365 0.950 1_455 S
H343 C367 0.951 . S
H344 C368 0.949 . S
H345 C370 0.949 . S
H346 C371 0.950 . S
H347 C373 0.950 . S
H348 C374 0.950 . S
H349 C376 0.950 . S
H350 C379 0.950 . S
H351 C380 0.964 . S
H352 C382 0.951 . S
H353 C383 0.949 . S
C354 C355 1.376 . S
C354 C359 1.386 1_455 S
C354 C360 1.483 . S
C355 H336 0.949 . S
C355 C354 1.376 . S
C355 C356 1.397 1_455 S
C356 H337 0.950 1_655 S
C356 C355 1.397 1_655 S
C356 C357 1.391 . S
C357 C356 1.391 . S
C357 C358 1.405 . S
C358 H338 0.950 . S
C358 C357 1.405 . S
C358 C359 1.367 . S
C359 H339 0.950 . S
C359 C354 1.386 1_655 S
C359 C358 1.367 . S
C360 C354 1.483 . S
C360 C361 1.382 . S
C360 C362 1.403 . S
C361 H340 0.950 . S
C361 C360 1.382 . S
C361 C377 1.411 . S
C362 C360 1.403 . S
C362 C363 1.489 . S
C362 C376 1.411 . S
C363 C362 1.489 . S
C363 C364 1.383 . S
C363 C368 1.382 1_455 S
C364 H341 0.950 . S
C364 C363 1.383 . S
C364 C365 1.395 1_455 S
C365 H342 0.950 1_655 S
C365 C364 1.395 1_655 S
C365 C366 1.288 . S
C366 C365 1.288 . S
C366 C367 1.392 . S
C367 H343 0.951 . S
C367 C366 1.392 . S
C367 C368 1.392 . S
C368 H344 0.949 . S
C368 C363 1.382 1_655 S
C368 C367 1.392 . S
C369 C370 1.376 . S
C369 C374 1.386 . S
C369 C375 1.483 . S
C370 H345 0.949 . S
C370 C369 1.376 . S
C370 C371 1.397 1_545 S
C371 H346 0.950 . S
C371 C370 1.397 1_565 S
C371 C372 1.392 . S
C372 C371 1.392 . S
C372 C373 1.393 1_565 S
C373 H347 0.950 . S
C373 C372 1.393 1_545 S
C373 C374 1.367 . S
C374 H348 0.950 . S
C374 C369 1.386 . S
C374 C373 1.367 . S
C375 C369 1.483 . S
C375 C376 1.382 . S
C375 C377 1.403 . S
C376 H349 0.950 . S
C376 C362 1.411 . S
C376 C375 1.382 . S
C377 C361 1.411 . S
C377 C375 1.403 . S
C377 C378 1.489 . S
C378 C377 1.489 . S
C378 C379 1.383 . S
C378 C383 1.382 . S
C379 H350 0.950 . S
C379 C378 1.383 . S
C379 C380 1.387 1_545 S
C380 H351 0.964 . S
C380 C379 1.387 1_565 S
C380 C381 1.284 1_565 S
C381 C380 1.284 1_545 S
C381 C382 1.392 . S
C382 H352 0.951 . S
C382 C381 1.392 . S
C382 C383 1.392 . S
C383 H353 0.949 . S
C383 C378 1.382 . S
C383 C382 1.392 . S
O384 Cd385 2.223 1_556 S
O384 C392 1.315 . S
Cd385 O384 2.223 1_554 S
Cd385 O388 2.297 1_554 S
Cd385 O389 2.439 . S
Cd385 O395 2.240 . S
Cd386 O387 2.236 1_554 S
Cd386 O394 2.223 . S
Cd386 O396 2.297 . S
Cd386 O397 2.439 . S
O387 Cd386 2.236 1_556 S
O387 C392 1.283 . S
O388 Cd385 2.297 1_556 S
O388 C390 1.247 1_556 S
O389 Cd385 2.439 . S
O389 C390 1.208 . S
C390 O388 1.247 1_554 S
C390 O389 1.208 . S
C391 O396 1.247 . S
C391 O397 1.208 . S
C392 O384 1.315 . S
C392 O387 1.283 . S
C393 O394 1.315 . S
C393 O395 1.279 . S
O394 Cd386 2.223 . S
O394 C393 1.315 . S
O395 Cd385 2.240 . S
O395 C393 1.279 . S
O396 Cd386 2.297 . S
O396 C391 1.247 . S
O397 Cd386 2.439 . S
O397 C391 1.208 . S
O398 Cd399 2.223 . S
O398 C406 1.315 . S
Cd399 O398 2.223 . S
Cd399 O402 2.297 . S
Cd399 O403 2.439 . S
Cd399 O409 2.240 . S
Cd400 O401 2.240 . S
Cd400 O408 2.223 . S
Cd400 O410 2.297 . S
Cd400 O411 2.439 . S
O401 Cd400 2.240 . S
O401 C406 1.279 . S
O402 Cd399 2.297 . S
O402 C404 1.247 . S
O403 Cd399 2.439 . S
O403 C404 1.208 . S
C404 O402 1.247 . S
C404 O403 1.208 . S
C405 O410 1.247 . S
C405 O411 1.208 . S
C406 O398 1.315 . S
C406 O401 1.279 . S
C407 O408 1.315 . S
C407 O409 1.279 . S
O408 Cd400 2.223 . S
O408 C407 1.315 . S
O409 Cd399 2.240 . S
O409 C407 1.279 . S
O410 Cd400 2.297 . S
O410 C405 1.247 . S
O411 Cd400 2.439 . S
O411 C405 1.208 . S
O412 Cd413 2.223 . S
O412 C420 1.315 . S
Cd413 O412 2.223 . S
Cd413 O416 2.297 . S
Cd413 O417 2.439 . S
Cd413 O423 2.240 . S
Cd414 O415 2.240 . S
Cd414 O422 2.223 . S
Cd414 O424 2.297 . S
Cd414 O425 2.439 . S
O415 Cd414 2.240 . S
O415 C420 1.279 . S
O416 Cd413 2.297 . S
O416 C418 1.247 . S
O417 Cd413 2.439 . S
O417 C418 1.208 . S
C418 O416 1.247 . S
C418 O417 1.208 . S
C419 O424 1.247 . S
C419 O425 1.208 . S
C420 O412 1.315 . S
C420 O415 1.279 . S
C421 O422 1.315 . S
C421 O423 1.279 . S
O422 Cd414 2.223 . S
O422 C421 1.315 . S
O423 Cd413 2.240 . S
O423 C421 1.279 . S
O424 Cd414 2.297 . S
O424 C419 1.247 . S
O425 Cd414 2.439 . S
O425 C419 1.208 . S
O426 Cd427 2.223 . S
O426 C434 1.315 . S
Cd427 O426 2.223 . S
Cd427 O430 2.297 . S
Cd427 O431 2.439 . S
Cd427 O437 2.240 . S
Cd428 O429 2.240 . S
Cd428 O436 2.223 . S
Cd428 O438 2.297 . S
Cd428 O439 2.439 . S
O429 Cd428 2.240 . S
O429 C434 1.279 . S
O430 Cd427 2.297 . S
O430 C432 1.247 . S
O431 Cd427 2.439 . S
O431 C432 1.208 . S
C432 O430 1.247 . S
C432 O431 1.208 . S
C433 O438 1.247 . S
C433 O439 1.208 . S
C434 O426 1.315 . S
C434 O429 1.279 . S
C435 O436 1.315 . S
C435 O437 1.279 . S
O436 Cd428 2.223 . S
O436 C435 1.315 . S
O437 Cd427 2.240 . S
O437 C435 1.279 . S
O438 Cd428 2.297 . S
O438 C433 1.247 . S
O439 Cd428 2.439 . S
O439 C433 1.208 . S
O440 Cd441 2.223 . S
O440 C448 1.315 . S
Cd441 O440 2.223 . S
Cd441 O444 2.297 . S
Cd441 O445 2.439 . S
Cd441 O451 2.240 . S
Cd442 O443 2.240 . S
Cd442 O450 2.223 . S
Cd442 O452 2.297 . S
Cd442 O453 2.439 . S
O443 Cd442 2.240 . S
O443 C448 1.279 . S
O444 Cd441 2.297 . S
O444 C446 1.247 . S
O445 Cd441 2.439 . S
O445 C446 1.208 . S
C446 O444 1.247 . S
C446 O445 1.208 . S
C447 O452 1.247 . S
C447 O453 1.208 . S
C448 O440 1.315 . S
C448 O443 1.279 . S
C449 O450 1.315 . S
C449 O451 1.279 . S
O450 Cd442 2.223 . S
O450 C449 1.315 . S
O451 Cd441 2.240 . S
O451 C449 1.279 . S
O452 Cd442 2.297 . S
O452 C447 1.247 . S
O453 Cd442 2.439 . S
O453 C447 1.208 . S
O454 Cd455 2.223 . S
O454 C462 1.315 . S
Cd455 O454 2.223 . S
Cd455 O458 2.297 . S
Cd455 O459 2.439 . S
Cd455 O465 2.240 . S
Cd456 O457 2.240 . S
Cd456 O464 2.223 . S
Cd456 O466 2.297 . S
Cd456 O467 2.439 . S
O457 Cd456 2.240 . S
O457 C462 1.279 . S
O458 Cd455 2.297 . S
O458 C460 1.247 . S
O459 Cd455 2.439 . S
O459 C460 1.208 . S
C460 O458 1.247 . S
C460 O459 1.208 . S
C461 O466 1.247 . S
C461 O467 1.208 . S
C462 O454 1.315 . S
C462 O457 1.279 . S
C463 O464 1.315 . S
C463 O465 1.279 . S
O464 Cd456 2.223 . S
O464 C463 1.315 . S
O465 Cd455 2.240 . S
O465 C463 1.279 . S
O466 Cd456 2.297 . S
O466 C461 1.247 . S
O467 Cd456 2.439 . S
O467 C461 1.208 . S
O468 Cd469 2.223 . S
O468 C476 1.315 . S
Cd469 O468 2.223 . S
Cd469 O472 2.297 . S
Cd469 O473 2.439 . S
Cd469 O479 2.240 1_554 S
Cd470 O471 2.240 1_556 S
Cd470 O478 2.223 . S
Cd470 O480 2.297 . S
Cd470 O481 2.439 . S
O471 Cd470 2.240 1_554 S
O471 C476 1.279 . S
O472 Cd469 2.297 . S
O472 C474 1.247 . S
O473 Cd469 2.439 . S
O473 C474 1.208 . S
C474 O472 1.247 . S
C474 O473 1.208 . S
C475 O480 1.247 . S
C475 O481 1.208 . S
C476 O468 1.315 . S
C476 O471 1.279 . S
C477 O478 1.315 . S
C477 O479 1.279 . S
O478 Cd470 2.223 . S
O478 C477 1.315 . S
O479 Cd469 2.240 1_556 S
O479 C477 1.279 . S
O480 Cd470 2.297 . S
O480 C475 1.247 . S
O481 Cd470 2.439 . S
O481 C475 1.208 . S
O482 Cd483 2.223 . S
O482 C490 1.315 . S
Cd483 O482 2.223 . S
Cd483 O486 2.297 . S
Cd483 O487 2.439 . S
Cd483 O493 2.240 . S
Cd484 O485 2.240 . S
Cd484 O492 2.223 . S
Cd484 O494 2.297 . S
Cd484 O495 2.439 . S
O485 Cd484 2.240 . S
O485 C490 1.279 . S
O486 Cd483 2.297 . S
O486 C488 1.247 . S
O487 Cd483 2.439 . S
O487 C488 1.208 . S
C488 O486 1.247 . S
C488 O487 1.208 . S
C489 O494 1.247 . S
C489 O495 1.208 . S
C490 O482 1.315 . S
C490 O485 1.279 . S
C491 O492 1.315 . S
C491 O493 1.279 . S
O492 Cd484 2.223 . S
O492 C491 1.315 . S
O493 Cd483 2.240 . S
O493 C491 1.279 . S
O494 Cd484 2.297 . S
O494 C489 1.247 . S
O495 Cd484 2.439 . S
O495 C489 1.208 . S
C404 C36 1.868 . S
C421 C93 1.650 . S
C435 C126 1.937 . S
C165 C393 1.890 . S
C222 C390 1.946 . S
C261 C407 1.583 . S
C418 C318 1.915 . S
C432 C381 1.943 1_565 S
C132 C460 1.852 . S
C474 C189 2.040 . S
C30 C491 1.654 . S
C446 C69 1.898 . S
C324 C449 1.860 . S
C357 C463 1.861 . S
C477 C228 1.599 1_556 S
C285 C488 1.942 . S
C420 C45 2.360 . S
C434 C84 2.871 . S
C117 C392 2.780 . S
C174 C405 2.143 . S
C213 C433 1.668 . S
C391 C270 1.904 . S
C406 C309 2.286 . S
C419 C372 1.802 . S
C475 C141 1.761 . S
C490 C180 2.289 . S
C21 C447 1.978 . S
C461 C78 1.635 . S
C489 C333 2.318 . S
C366 C448 2.696 . S
C462 C237 2.894 . S
C476 C276 2.382 . S
