# Generated by pormake.
# Topology rtl, (3,6)-cn, num edge types: 1
# Building blocks:
#     Node 0, Type 0, BuildingBlock: QEWDON_clean_linker_0, # of connection points: 3
#     Node 1, Type 0, BuildingBlock: QEWDON_clean_linker_0, # of connection points: 3
#     Node 2, Type 0, BuildingBlock: QEWDON_clean_linker_0, # of connection points: 3
#     Node 3, Type 0, BuildingBlock: QEWDON_clean_linker_0, # of connection points: 3
#     Node 4, Type 1, BuildingBlock: KUMBUR_clean_sbu_1, # of connection points: 6
#     Node 5, Type 1, BuildingBlock: KUMBUR_clean_sbu_1, # of connection points: 6
#     Edge 6, Type (0, 1), BuildingBlock: ZUJKAS_clean_linker_0, # of connection points: 2
#     Edge 7, Type (0, 1), BuildingBlock: ZUJKAS_clean_linker_0, # of connection points: 2
#     Edge 8, Type (0, 1), BuildingBlock: ZUJKAS_clean_linker_0, # of connection points: 2
#     Edge 9, Type (0, 1), BuildingBlock: ZUJKAS_clean_linker_0, # of connection points: 2
#     Edge 10, Type (0, 1), BuildingBlock: ZUJKAS_clean_linker_0, # of connection points: 2
#     Edge 11, Type (0, 1), BuildingBlock: ZUJKAS_clean_linker_0, # of connection points: 2
#     Edge 12, Type (0, 1), BuildingBlock: ZUJKAS_clean_linker_0, # of connection points: 2
#     Edge 13, Type (0, 1), BuildingBlock: ZUJKAS_clean_linker_0, # of connection points: 2
#     Edge 14, Type (0, 1), BuildingBlock: ZUJKAS_clean_linker_0, # of connection points: 2
#     Edge 15, Type (0, 1), BuildingBlock: ZUJKAS_clean_linker_0, # of connection points: 2
#     Edge 16, Type (0, 1), BuildingBlock: ZUJKAS_clean_linker_0, # of connection points: 2
#     Edge 17, Type (0, 1), BuildingBlock: ZUJKAS_clean_linker_0, # of connection points: 2
# Relax obj value: 0.084
# Max RMSD: 0.264
# Mean RMSD: 0.205
data_MOF--net-rtl--node1-KUMBUR_clean_sbu_1--node2-QEWDON_clean_linker_0--edge1-ZUJKAS_clean_linker_0
_symmetry_space_group_name_H-M    P1
_symmetry_Int_Tables_number       1
_symmetry_cell_setting            triclinic
loop_
_symmetry_equiv_pos_as_xyz
'x, y, z'
_cell_length_a     47.596792
_cell_length_b     47.337311
_cell_length_c     33.522679
_cell_angle_alpha  81.609598
_cell_angle_beta   100.47721
_cell_angle_gamma 90.804602
loop_
_atom_site_label
_atom_site_type_symbol
_atom_site_fract_x
_atom_site_fract_y
_atom_site_fract_z
_atom_type_partial_charge
H0 H 0.27112 0.85685 0.08634 0.0
C1 C 0.25938 0.86483 0.05613 0.0
C2 C 0.23512 0.88282 0.05107 0.0
C3 C 0.26966 0.85799 0.02187 0.0
H4 H 0.20427 0.90881 1.00507 0.0
C5 C 0.22172 0.89356 0.01071 0.0
C6 C 0.23081 0.88554 0.97652 0.0
C7 C 0.2547 0.86755 0.98222 0.0
C8 C 0.29911 0.84702 0.02659 0.0
H9 H 0.26286 0.86266 0.9558 0.0
C10 C 0.30569 0.81761 0.03236 0.0
C11 C 0.33397 0.80863 0.0334 0.0
C12 C 0.3208 0.86704 0.02243 0.0
H13 H 0.31598 0.88973 0.01756 0.0
C14 C 0.34872 0.85807 0.02371 0.0
H15 H 0.28899 0.80201 0.03494 0.0
C16 C 0.35528 0.82904 0.02901 0.0
H17 H 0.37705 0.82243 0.02933 0.0
H18 H 0.36526 0.87366 0.02007 0.0
H19 H 0.71002 0.74752 0.57232 0.0
C20 C 0.699 0.73853 0.59669 0.0
C21 C 0.67443 0.72184 0.58761 0.0
C22 C 0.70998 0.74269 0.63743 0.0
H23 H 0.64289 0.69575 0.61365 0.0
C24 C 0.66114 0.70934 0.61997 0.0
C25 C 0.67159 0.71312 0.66069 0.0
C26 C 0.69541 0.73057 0.66885 0.0
C27 C 0.73796 0.75718 0.64848 0.0
H28 H 0.70339 0.73369 0.70023 0.0
C29 C 0.74688 0.78099 0.62308 0.0
C30 C 0.77322 0.79413 0.63562 0.0
C31 C 0.75639 0.74659 0.68546 0.0
H32 H 0.75116 0.72772 0.705 0.0
C33 C 0.78214 0.75982 0.69778 0.0
H34 H 0.73342 0.78953 0.59431 0.0
C35 C 0.79045 0.7835 0.67321 0.0
H36 H 0.8107 0.79335 0.68326 0.0
H37 H 0.79585 0.75152 0.72643 0.0
H38 H 0.79353 0.18375 0.08838 0.0
C39 C 0.8037 0.17845 0.06397 0.0
C40 C 0.83041 0.16432 0.07352 0.0
C41 C 0.78945 0.18414 0.02299 0.0
H42 H 0.86351 0.14539 0.04995 0.0
C43 C 0.84295 0.15631 0.04205 0.0
C44 C 0.82873 0.16116 1.00106 0.0
C45 C 0.80214 0.17547 0.9919 0.0
C46 C 0.75955 0.19504 0.01242 0.0
H47 H 0.79044 0.1787 0.96065 0.0
C48 C 0.75169 0.22207 0.02037 0.0
C49 C 0.72333 0.23239 1.00653 0.0
C50 C 0.73873 0.17826 0.99194 0.0
H51 H 0.74424 0.15741 0.98568 0.0
C52 C 0.71069 0.1881 0.9792 0.0
H53 H 0.76769 0.23532 0.03568 0.0
C54 C 0.70302 0.21492 0.9863 0.0
H55 H 0.68099 0.22196 0.9761 0.0
H56 H 0.69484 0.17494 0.96353 0.0
H57 H 0.36409 0.28203 0.5103 0.0
C58 C 0.37074 0.29486 0.4842 0.0
C59 C 0.3891 0.31797 0.49035 0.0
C60 C 0.36291 0.28703 0.4448 0.0
H61 H 0.41372 0.35088 0.46228 0.0
C62 C 0.39891 0.33366 0.45688 0.0
C63 C 0.39039 0.32701 0.41703 0.0
C64 C 0.37218 0.30372 0.41135 0.0
C65 C 0.34846 0.2595 0.4388 0.0
H66 H 0.36551 0.29811 0.38088 0.0
C67 C 0.32352 0.25119 0.4546 0.0
C68 C 0.31082 0.22476 0.44796 0.0
C69 C 0.36042 0.24092 0.41704 0.0
H70 H 0.37979 0.2465 0.40515 0.0
C71 C 0.3479 0.21479 0.41083 0.0
H72 H 0.31394 0.26521 0.47135 0.0
C73 C 0.32325 0.20674 0.42613 0.0
H74 H 0.31371 0.18639 0.42078 0.0
H75 H 0.35736 0.20072 0.39408 0.0
Tb76 Tb 0.04553 0.99142 0.49843 0.0
C77 C 0.99158 0.11029 0.49592 0.0
N78 N 1.01621 0.09853 0.51915 0.0
C79 C 0.04022 0.14303 0.50728 0.0
C80 C 0.99042 0.139 0.4772 0.0
C81 C 0.04029 0.11456 0.52563 0.0
C82 C 1.0152 0.15531 0.48291 0.0
C83 C 0.9415 0.10489 0.46719 0.0
C84 C 0.96744 0.09331 0.49072 0.0
C85 C 0.94019 0.1336 0.44889 0.0
C86 C 0.9646 0.15055 0.45367 0.0
Tb87 Tb 1.01271 0.05244 0.54888 0.0
N88 N 0.96951 0.06544 0.50858 0.0
C89 C 0.91755 0.08736 0.46317 0.0
C90 C 0.94579 0.04881 0.50657 0.0
C91 C 0.91967 0.05929 0.48324 0.0
H92 H 0.05931 0.10582 0.54612 0.0
H93 H 0.90102 0.04585 0.48146 0.0
H94 H 1.00449 0.93428 0.50339 0.0
H95 H 0.1586 1.00453 0.55358 0.0
H96 H 0.94642 0.02786 0.5238 0.0
H97 H 0.8972 0.09547 0.44539 0.0
H98 H 0.11165 0.0184 0.51226 0.0
H99 H 0.05934 0.15563 0.51248 0.0
H100 H 0.92036 0.14294 0.43104 0.0
H101 H 0.96324 0.17264 0.43925 0.0
H102 H 1.00856 0.88424 0.53679 0.0
H103 H 1.01517 0.17747 0.46904 0.0
H104 H 0.16609 0.95635 0.59411 0.0
N105 N 0.04693 0.94467 0.528 0.0
C106 C 0.07258 0.93467 0.54994 0.0
C107 C 0.02667 0.89826 0.54118 0.0
C108 C 0.07614 0.90606 0.56915 0.0
C109 C 0.02419 0.92683 0.52291 0.0
C110 C 0.05272 0.88785 0.56462 0.0
N111 N 0.0909 0.98078 0.53429 0.0
C112 C 0.11369 0.99844 0.53234 0.0
C113 C 0.12226 0.9438 0.57594 0.0
C114 C 0.09526 0.95337 0.55345 0.0
C115 C 0.14501 0.96284 0.57719 0.0
C116 C 0.1408 0.99013 0.55466 0.0
H117 H 0.0546 0.86569 0.57873 0.0
H118 H 0.10597 0.87473 0.60729 0.0
H119 H 0.1464 0.90776 0.61319 0.0
O120 O 0.06846 0.99831 0.44829 0.0
O121 O 0.04798 0.98454 0.56557 0.0
O122 O 0.04997 0.02919 0.58652 0.0
O123 O 0.04077 0.96197 0.45761 0.0
O124 O 0.06203 0.03536 0.49065 0.0
O125 O 0.05874 0.05365 0.55008 0.0
O126 O 0.98836 0.04684 0.59653 0.0
O127 O 1.0111 0.05791 0.4822 0.0
O128 O 1.00654 1.01307 0.4633 0.0
O129 O 1.01325 0.08445 0.58583 0.0
O130 O 0.99459 1.00928 0.55726 0.0
O131 O 1.00002 0.98737 0.50138 0.0
C132 C 0.05549 1.00151 0.59344 0.0
C133 C 0.05998 0.9658 0.39606 0.0
C134 C 0.08628 0.96139 0.3412 0.0
C135 C 0.06354 0.94589 0.32236 0.0
C136 C 0.03753 0.95018 0.37664 0.0
C137 C 0.0394 0.94025 0.34007 0.0
C138 C 0.08459 0.97116 0.37838 0.0
C139 C 0.07062 0.0527 0.51779 0.0
C140 C 0.05854 0.97461 0.43607 0.0
C141 C 0.10284 0.8966 0.5922 0.0
C142 C 0.12584 0.91544 0.59564 0.0
C143 C 1.00151 0.0407 0.45564 0.0
C144 C 1.00171 0.0739 0.65197 0.0
C145 C 0.98266 0.07788 0.71391 0.0
C146 C 1.00952 0.0871 0.73212 0.0
C147 C 0.02845 0.08288 0.67099 0.0
C148 C 0.97884 0.07142 0.67362 0.0
C149 C 0.03221 0.08954 0.71078 0.0
C150 C 0.98731 0.98999 0.53256 0.0
C151 C 0.99603 0.07138 0.60794 0.0
H152 H 0.06469 0.93773 0.29411 0.0
H153 H 0.01857 0.94538 0.38988 0.0
H154 H 0.02216 0.92801 0.32549 0.0
H155 H 0.10229 0.98269 0.39344 0.0
H156 H 1.01277 0.09313 0.76257 0.0
H157 H 0.04621 0.08563 0.6547 0.0
H158 H 0.95797 0.06517 0.65881 0.0
H159 H 0.05264 0.09717 0.72487 0.0
Tb160 Tb 0.50213 0.50233 0.99801 0.0
C161 C 0.61812 0.55937 0.06308 0.0
N162 N 0.60696 0.53338 0.07385 0.0
C163 C 0.65261 0.51105 0.07837 0.0
C164 C 0.64685 0.56201 0.05792 0.0
C165 C 0.62412 0.50957 0.08349 0.0
C166 C 0.66395 0.53733 0.065 0.0
C167 C 0.61191 0.61087 0.04782 0.0
C168 C 0.6008 0.58352 0.05801 0.0
C169 C 0.64034 0.61351 0.04183 0.0
C170 C 0.65773 0.58915 0.04679 0.0
Tb171 Tb 0.56076 0.53433 0.08319 0.0
N172 N 0.57311 0.58019 0.06307 0.0
C173 C 0.59404 0.63474 0.04376 0.0
C174 C 0.5558 0.60345 0.06005 0.0
C175 C 0.56592 0.631 0.05007 0.0
H176 H 0.61642 0.48949 0.0965 0.0
H177 H 0.55208 0.64937 0.04755 0.0
H178 H 0.44741 0.54997 0.97517 0.0
H179 H 0.50008 0.38825 0.03641 0.0
H180 H 0.53448 0.60109 0.06644 0.0
H181 H 0.60176 0.6561 0.03594 0.0
H182 H 0.52054 0.43477 0.01231 0.0
H183 H 0.66597 0.492 0.08557 0.0
H184 H 0.64915 0.63433 0.03362 0.0
H185 H 0.67971 0.59157 0.04251 0.0
H186 H 0.39968 0.55335 0.99223 0.0
H187 H 0.68613 0.53846 0.06145 0.0
H188 H 0.45329 0.38697 0.05907 0.0
N189 N 0.45643 0.50824 0.0089 0.0
C190 C 0.44461 0.48431 0.02639 0.0
C191 C 0.4123 0.53396 1.00282 0.0
C192 C 0.41655 0.48467 0.03445 0.0
C193 C 0.43986 0.53224 0.99431 0.0
C194 C 0.40078 0.51023 0.02375 0.0
N195 N 0.48626 0.45908 0.02318 0.0
C196 C 0.50028 0.43419 0.02262 0.0
C197 C 0.4472 0.43289 0.04663 0.0
C198 C 0.45969 0.45873 0.03265 0.0
C199 C 0.46223 0.40731 0.04872 0.0
C200 C 0.48868 0.40794 0.03599 0.0
H201 H 0.37918 0.51143 0.02947 0.0
H202 H 0.3832 0.45915 0.05757 0.0
H203 H 0.40999 0.41377 0.06799 0.0
O204 O 0.5142 0.48431 0.94937 0.0
O205 O 0.51148 0.48081 0.06172 0.0
O206 O 0.52048 0.51762 0.09902 0.0
O207 O 0.47097 0.49783 0.94648 0.0
O208 O 0.54719 0.48936 0.00739 0.0
O209 O 0.56576 0.4894 0.07605 0.0
O210 O 0.56976 0.55899 0.13165 0.0
O211 O 0.56615 0.54256 0.0181 0.0
O212 O 0.52137 0.54237 0.97594 0.0
O213 O 0.58113 0.51366 0.14109 0.0
O214 O 0.51726 0.55164 0.07251 0.0
O215 O 0.49636 0.54745 1.00522 0.0
C216 C 0.51094 0.49192 0.09517 0.0
C217 C 0.48461 0.49364 0.88352 0.0
C218 C 0.47379 0.47774 0.81655 0.0
C219 C 0.46977 0.50629 0.798 0.0
C220 C 0.48087 0.52212 0.86465 0.0
C221 C 0.47357 0.52836 0.82196 0.0
C222 C 0.48145 0.47152 0.85933 0.0
C223 C 0.56387 0.47833 0.04174 0.0
C224 C 0.48842 0.486 0.92817 0.0
C225 C 0.40463 0.45923 0.05087 0.0
C226 C 0.41986 0.43337 0.05673 0.0
C227 C 0.54841 0.54982 0.98286 0.0
C228 C 0.59337 0.53882 0.20064 0.0
C229 C 0.60117 0.56424 0.26016 0.0
C230 C 0.61538 0.54001 0.28396 0.0
C231 C 0.60784 0.51494 0.22516 0.0
C232 C 0.59034 0.56375 0.21825 0.0
C233 C 0.61882 0.51562 0.26648 0.0
C234 C 0.49839 0.55945 0.03885 0.0
C235 C 0.5813 0.53717 0.15717 0.0
H236 H 0.4635 0.51144 0.76502 0.0
H237 H 0.4829 0.53937 0.88294 0.0
H238 H 0.47029 0.55032 0.80744 0.0
H239 H 0.48378 0.44943 0.87386 0.0
H240 H 0.62413 0.5401 0.31614 0.0
H241 H 0.61068 0.49564 0.21242 0.0
H242 H 0.57934 0.58244 0.1998 0.0
H243 H 0.63 0.49713 0.28509 0.0
H244 H 0.25634 0.23688 0.40901 0.0
H245 H 0.21335 0.21099 0.42347 0.0
H246 H 0.26338 0.16273 0.53149 0.0
H247 H 0.30623 0.18871 0.51705 0.0
H248 H 0.20996 0.15099 0.42669 0.0
H249 H 0.1911 0.18365 0.57218 0.0
H250 H 0.21307 0.20402 0.54002 0.0
H251 H 0.22694 0.17195 0.57288 0.0
C252 C 0.25779 0.22156 0.4367 0.0
C253 C 0.2843 0.21517 0.46251 0.0
C254 C 0.23337 0.20659 0.44472 0.0
C255 C 0.23508 0.18509 0.47877 0.0
C256 C 0.26139 0.17961 0.50556 0.0
H257 H 0.11908 0.05967 0.57192 0.0
H258 H 0.15922 0.09094 0.56058 0.0
C259 C 0.28582 0.1945 0.49743 0.0
C260 C 0.21019 0.16651 0.48396 0.0
H261 H 0.16463 0.14442 0.54961 0.0
C262 C 0.19986 0.14965 0.45341 0.0
C263 C 0.1974 0.16446 0.51913 0.0
C264 C 0.2075 0.18213 0.55283 0.0
C265 C 0.17749 0.13033 0.45743 0.0
C266 C 0.16426 0.12858 0.49237 0.0
C267 C 0.17459 0.14565 0.52278 0.0
C268 C 0.14004 0.109 0.49853 0.0
C269 C 0.16924 0.11129 0.42485 0.0
C270 C 0.11569 0.10865 0.46768 0.0
C271 C 0.09329 0.08995 0.47368 0.0
C272 C 0.09425 0.07225 0.51129 0.0
C273 C 0.11795 0.07326 0.5427 0.0
C274 C 0.14082 0.09115 0.53618 0.0
H275 H 0.18719 0.10838 0.40871 0.0
H276 H 0.16257 0.0899 0.43803 0.0
H277 H 0.15124 0.12137 0.40156 0.0
H278 H 0.11382 0.12296 0.43902 0.0
H279 H 0.0749 0.08981 0.44932 0.0
H280 H 0.3464 0.76969 0.10277 0.0
H281 H 0.37156 0.7236 0.1093 0.0
H282 H 0.36688 0.73477 0.97828 0.0
H283 H 0.34186 0.7806 0.97178 0.0
H284 H 0.35687 0.67092 0.05777 0.0
H285 H 0.45592 0.73223 0.04242 0.0
H286 H 0.42682 0.74599 0.06217 0.0
H287 H 0.42365 0.74544 0.00815 0.0
C288 C 0.34988 0.76168 0.07537 0.0
C289 C 0.34197 0.77829 0.03672 0.0
C290 C 0.36436 0.73556 0.07912 0.0
C291 C 0.37116 0.72601 0.04425 0.0
C292 C 0.36179 0.74186 1.00548 0.0
H293 H 0.47266 0.59893 0.97512 0.0
H294 H 0.44108 0.63876 0.97881 0.0
C295 C 0.34737 0.76785 1.00175 0.0
C296 C 0.39016 0.70094 0.04806 0.0
H297 H 0.4574 0.68289 0.03765 0.0
C298 C 0.37892 0.67342 0.0538 0.0
C299 C 0.41896 0.70442 0.04319 0.0
C300 C 0.43229 0.73356 0.03891 0.0
C301 C 0.39555 0.64923 0.05313 0.0
C302 C 0.42397 0.65285 0.04654 0.0
C303 C 0.43544 0.68031 0.04207 0.0
C304 C 0.44216 0.62834 0.0441 0.0
C305 C 0.38253 0.61999 0.05835 0.0
C306 C 0.45316 0.60952 0.0796 0.0
C307 C 0.47114 0.58694 0.07757 0.0
C308 C 0.47834 0.58272 0.03996 0.0
C309 C 0.46715 0.60151 1.00435 0.0
C310 C 0.44928 0.62426 1.00647 0.0
H311 H 0.35913 0.62109 0.05753 0.0
H312 H 0.38659 0.60788 0.03393 0.0
H313 H 0.39269 0.6079 0.08828 0.0
H314 H 0.4481 0.61252 0.10894 0.0
H315 H 0.47944 0.57277 0.10554 0.0
H316 H 0.80094 0.79262 0.57197 0.0
H317 H 0.83316 0.82947 0.54732 0.0
H318 H 0.80482 0.88672 0.62127 0.0
H319 H 0.77291 0.8498 0.64622 0.0
H320 H 0.82723 0.89118 0.51109 0.0
H321 H 0.89159 0.87083 0.66871 0.0
H322 H 0.86386 0.84702 0.65026 0.0
H323 H 0.85465 0.88023 0.66483 0.0
C324 C 0.80072 0.81353 0.58146 0.0
C325 C 0.78423 0.8186 0.61049 0.0
C326 C 0.81929 0.83445 0.56771 0.0
C327 C 0.82172 0.86062 0.58304 0.0
C328 C 0.8035 0.86654 0.60943 0.0
H329 H 0.9568 0.98645 0.59511 0.0
H330 H 0.91538 0.95709 0.6044 0.0
C331 C 0.78502 0.84562 0.62325 0.0
C332 C 0.84526 0.88035 0.57501 0.0
H333 H 0.90831 0.90572 0.62177 0.0
C334 C 0.84496 0.89455 0.5352 0.0
C335 C 0.86829 0.88469 0.60661 0.0
C336 C 0.86989 0.86978 0.64999 0.0
C337 C 0.86672 0.91358 0.52626 0.0
C338 C 0.89025 0.91752 0.55773 0.0
C339 C 0.89046 0.903 0.59752 0.0
C340 C 0.91483 0.93648 0.55057 0.0
C341 C 0.86348 0.92986 0.48343 0.0
C342 C 0.92861 0.93509 0.51719 0.0
C343 C 0.95137 0.95308 0.5106 0.0
C344 C 0.96243 0.9715 0.53883 0.0
C345 C 0.94913 0.9724 0.57283 0.0
C346 C 0.92543 0.95541 0.57831 0.0
H347 H 0.84063 0.93242 0.46858 0.0
H348 H 0.87301 0.9514 0.48336 0.0
H349 H 0.87416 0.91768 0.46438 0.0
H350 H 0.92188 0.92005 0.49607 0.0
H351 H 0.96022 0.95247 0.48321 0.0
H352 H 0.6916 0.27186 0.9496 0.0
H353 H 0.66838 0.31484 0.9613 0.0
H354 H 0.71031 0.30144 0.08789 0.0
H355 H 0.73345 0.25776 0.07658 0.0
H356 H 0.63401 0.30844 0.03896 0.0
H357 H 0.71628 0.39249 0.02416 0.0
H358 H 0.71422 0.36286 0.99537 0.0
H359 H 0.72651 0.35685 0.0497 0.0
C360 C 0.69617 0.27818 0.97988 0.0
C361 C 0.71403 0.26117 0.01236 0.0
C362 C 0.68293 0.30277 0.98644 0.0
C363 C 0.68748 0.31109 0.02547 0.0
C364 C 0.70657 0.29524 0.05754 0.0
H365 H 0.59351 0.44285 0.10765 0.0
H366 H 0.6239 0.40173 0.10639 0.0
C367 C 0.71988 0.27045 0.05099 0.0
C368 C 0.67043 0.33511 0.03279 0.0
H369 H 0.67087 0.40727 0.03274 0.0
C370 C 0.64214 0.32999 0.03818 0.0
C371 C 0.68108 0.36315 0.03121 0.0
C372 C 0.71118 0.36947 0.02477 0.0
C373 C 0.62408 0.3524 0.04159 0.0
C374 C 0.63461 0.3805 0.03939 0.0
C375 C 0.663 0.38559 0.03457 0.0
C376 C 0.61599 0.40503 0.04031 0.0
C377 C 0.59362 0.34622 0.04646 0.0
C378 C 0.60141 0.42023 1.00354 0.0
C379 C 0.58426 0.44386 1.00407 0.0
C380 C 0.58145 0.45275 0.04145 0.0
C381 C 0.59563 0.43696 0.07831 0.0
C382 C 0.6129 0.4134 0.07771 0.0
H383 H 0.58887 0.32305 0.04874 0.0
H384 H 0.58935 0.35411 0.07441 0.0
H385 H 0.57882 0.35781 0.01983 0.0
H386 H 0.60342 0.41388 0.97441 0.0
H387 H 0.57347 0.45531 0.97511 0.0
H388 H 0.26385 0.88401 0.1315 0.0
H389 H 0.24507 0.8988 0.18816 0.0
H390 H 0.16473 0.92151 0.10769 0.0
H391 H 0.1808 0.90207 0.05375 0.0
H392 H 0.22796 0.94622 0.20436 0.0
H393 H 0.13366 0.87687 0.19502 0.0
H394 H 0.16122 0.87293 0.16581 0.0
H395 H 0.13252 0.89873 0.1466 0.0
C396 C 0.24181 0.89107 0.12586 0.0
C397 C 0.22423 0.8917 0.0869 0.0
C398 C 0.23126 0.90008 0.15845 0.0
C399 C 0.20317 0.91068 0.15267 0.0
C400 C 0.18607 0.91238 0.1137 0.0
H401 H 0.08895 0.9908 0.26662 0.0
H402 H 0.12438 0.98315 0.2247 0.0
C403 C 0.19591 0.90197 0.082 0.0
C404 C 0.19141 0.92026 0.18676 0.0
H405 H 0.13103 0.91811 0.22857 0.0
C406 C 0.20695 0.93971 0.21008 0.0
C407 C 0.16413 0.9115 0.1949 0.0
C408 C 0.14717 0.88862 0.17451 0.0
C409 C 0.19526 0.95162 0.23968 0.0
C410 C 0.16733 0.94424 0.2454 0.0
C411 C 0.15229 0.92413 0.22333 0.0
C412 C 0.15248 0.95696 0.27367 0.0
C413 C 0.21235 0.97244 0.264 0.0
C414 C 0.15744 0.94604 0.31562 0.0
C415 C 0.13719 0.95051 0.3397 0.0
C416 C 0.11178 0.96568 0.32179 0.0
C417 C 0.10846 0.97913 0.28101 0.0
C418 C 0.12867 0.97478 0.2571 0.0
H419 H 0.23316 0.97739 0.25416 0.0
H420 H 0.19993 0.99259 0.26076 0.0
H421 H 0.21646 0.96333 0.297 0.0
H422 H 0.17552 0.93192 0.32874 0.0
H423 H 0.14002 0.93973 0.371 0.0
H424 H 0.66285 0.73099 0.73244 0.0
H425 H 0.64286 0.70356 0.7883 0.0
H426 H 0.62982 0.63219 0.72073 0.0
H427 H 0.6516 0.65835 0.66663 0.0
H428 H 0.59128 0.68194 0.79042 0.0
H429 H 0.66918 0.59221 0.82832 0.0
H430 H 0.6748 0.62445 0.79495 0.0
H431 H 0.65262 0.59657 0.77533 0.0
C432 C 0.6562 0.70927 0.72977 0.0
C433 C 0.65884 0.69703 0.69475 0.0
C434 C 0.64455 0.69368 0.76164 0.0
C435 C 0.63529 0.66555 0.75918 0.0
C436 C 0.63748 0.65352 0.72401 0.0
H437 H 0.5483 0.53718 0.90596 0.0
H438 H 0.56797 0.56607 0.85036 0.0
C439 C 0.64947 0.66885 0.69256 0.0
C440 C 0.62247 0.64896 0.79257 0.0
H441 H 0.62589 0.58464 0.85488 0.0
C442 C 0.59902 0.66077 0.80474 0.0
C443 C 0.63256 0.6213 0.81143 0.0
C444 C 0.65886 0.60804 0.80214 0.0
C445 C 0.58496 0.64543 0.83434 0.0
C446 C 0.59467 0.61756 0.85242 0.0
C447 C 0.61822 0.60584 0.84055 0.0
C448 C 0.58152 0.60061 0.88501 0.0
C449 C 0.5595 0.65899 0.84547 0.0
C450 C 0.58245 0.61046 0.92268 0.0
C451 C 0.57117 0.59408 0.95401 0.0
C452 C 0.55936 0.56731 0.9489 0.0
C453 C 0.55776 0.55763 0.9109 0.0
C454 C 0.56899 0.57407 0.87926 0.0
H455 H 0.55033 0.67696 0.82172 0.0
H456 H 0.54254 0.64307 0.84972 0.0
H457 H 0.56627 0.66759 0.87477 0.0
H458 H 0.59211 0.63074 0.92802 0.0
H459 H 0.57107 0.60267 0.98185 0.0
H460 H 0.87677 0.18692 0.11757 0.0
H461 H 0.90436 0.16569 0.18432 0.0
H462 H 0.84385 0.09721 0.19057 0.0
H463 H 0.81619 0.11858 0.12405 0.0
H464 H 0.8867 0.15014 0.26329 0.0
H465 H 0.92262 0.05683 0.20143 0.0
H466 H 0.90702 0.08852 0.16868 0.0
H467 H 0.88464 0.06289 0.19233 0.0
C468 C 0.86912 0.16771 0.1338 0.0
C469 C 0.84422 0.15456 0.11633 0.0
C470 C 0.88492 0.15551 0.17165 0.0
C471 C 0.87634 0.12969 0.19208 0.0
C472 C 0.85099 0.11697 0.17509 0.0
H473 H 0.9577 0.01548 0.4096 0.0
H474 H 0.92638 0.03727 0.34653 0.0
C475 C 0.83505 0.12933 0.13747 0.0
C476 C 0.8942 0.11585 0.23079 0.0
H477 H 0.936 0.05709 0.27276 0.0
C478 C 0.89753 0.12981 0.26543 0.0
C479 C 0.9081 0.08922 0.23349 0.0
C480 C 0.90568 0.07351 0.19698 0.0
C481 C 0.9141 0.11772 0.30296 0.0
C482 C 0.92856 0.09135 0.30555 0.0
C483 C 0.92504 0.07731 0.27084 0.0
C484 C 0.94763 0.0781 0.34377 0.0
C485 C 0.91513 0.13291 0.33974 0.0
C486 C 0.9703 0.09355 0.36291 0.0
C487 C 0.98784 0.0813 0.39919 0.0
C488 C 0.9836 0.05306 0.41645 0.0
C489 C 0.96154 0.03723 0.39672 0.0
C490 C 0.94362 0.0497 0.36079 0.0
H491 H 0.89633 0.14732 0.33611 0.0
H492 H 0.9158 0.11739 0.36812 0.0
H493 H 0.93456 0.14619 0.34339 0.0
H494 H 0.97454 0.11511 0.34976 0.0
H495 H 1.0049 0.09388 0.41358 0.0
H496 H 0.4441 0.31871 0.52978 0.0
H497 H 0.46225 0.33802 0.59338 0.0
H498 H 0.3758 0.3557 0.60576 0.0
H499 H 0.35763 0.33561 0.54264 0.0
H500 H 0.45532 0.39247 0.60419 0.0
H501 H 0.4099 0.32099 0.72167 0.0
H502 H 0.41136 0.31157 0.67179 0.0
H503 H 0.38339 0.33477 0.67819 0.0
C504 C 0.42902 0.3261 0.54675 0.0
C505 C 0.3995 0.32552 0.53172 0.0
C506 C 0.43938 0.33717 0.58293 0.0
C507 C 0.42041 0.34799 0.60467 0.0
C508 C 0.39083 0.34677 0.59017 0.0
H509 H 0.42222 0.4585 0.78367 0.0
H510 H 0.41229 0.42354 0.73577 0.0
C511 C 0.38044 0.33537 0.55412 0.0
C512 C 0.43163 0.36295 0.64017 0.0
H513 H 0.42688 0.36621 0.73984 0.0
C514 C 0.44945 0.38648 0.63405 0.0
C515 C 0.42406 0.35505 0.67913 0.0
C516 C 0.40636 0.32903 0.68829 0.0
C517 C 0.45873 0.40319 0.66514 0.0
C518 C 0.45029 0.39591 0.70368 0.0
C519 C 0.43327 0.3718 0.71026 0.0
C520 C 0.4568 0.41451 0.73614 0.0
C521 C 0.4764 0.42924 0.65579 0.0
C522 C 0.48512 0.4203 0.75333 0.0
C523 C 0.49077 0.44025 0.78072 0.0
C524 C 0.46816 0.45457 0.79123 0.0
C525 C 0.43991 0.44781 0.77557 0.0
C526 C 0.43428 0.42783 0.74841 0.0
H527 H 0.47575 0.43527 0.62233 0.0
H528 H 0.46886 0.44779 0.66797 0.0
H529 H 0.499 0.42469 0.67064 0.0
H530 H 0.50282 0.40988 0.74487 0.0
H531 H 0.51271 0.44512 0.79273 0.0
H532 H 0.70549 0.71231 0.52885 0.0
H533 H 0.68808 0.69453 0.46422 0.0
H534 H 0.60208 0.69428 0.48839 0.0
H535 H 0.61877 0.7149 0.55049 0.0
H536 H 0.66659 0.64577 0.45578 0.0
H537 H 0.58359 0.72413 0.37167 0.0
H538 H 0.60789 0.73125 0.41691 0.0
H539 H 0.57647 0.71013 0.42133 0.0
C540 C 0.68272 0.70964 0.51969 0.0
C541 C 0.66367 0.71494 0.54537 0.0
C542 C 0.67278 0.69907 0.48282 0.0
C543 C 0.64363 0.69322 0.4709 0.0
C544 C 0.62451 0.69926 0.49592 0.0
H545 H 0.56943 0.57004 0.31804 0.0
H546 H 0.57626 0.60556 0.36537 0.0
C547 C 0.63428 0.71056 0.53213 0.0
C548 C 0.63384 0.67829 0.43465 0.0
H549 H 0.58306 0.67857 0.34779 0.0
C550 C 0.64859 0.65331 0.43195 0.0
C551 C 0.61003 0.68774 0.40357 0.0
C552 C 0.59379 0.71493 0.40331 0.0
C553 C 0.6402 0.63756 0.39954 0.0
C554 C 0.61635 0.64683 0.36893 0.0
C555 C 0.60141 0.67164 0.37136 0.0
C556 C 0.60681 0.63025 0.33482 0.0
C557 C 0.65672 0.61081 0.39827 0.0
C558 C 0.62074 0.63323 0.30096 0.0
C559 C 0.61664 0.61312 0.27368 0.0
C560 C 0.59873 0.58973 0.28021 0.0
C561 C 0.58315 0.58807 0.31227 0.0
C562 C 0.58706 0.60828 0.33929 0.0
H563 H 0.67389 0.60564 0.42558 0.0
H564 H 0.64203 0.59242 0.39641 0.0
H565 H 0.66656 0.61356 0.37037 0.0
H566 H 0.63622 0.64995 0.29727 0.0
H567 H 0.62917 0.61457 0.24954 0.0
H568 H 0.82577 0.18492 0.92043 0.0
H569 H 0.84374 0.16501 0.86672 0.0
H570 H 0.87849 0.09238 0.95418 0.0
H571 H 0.85849 0.11081 0.0072 0.0
H572 H 0.89592 0.156 0.86051 0.0
H573 H 0.84231 0.0514 0.86357 0.0
H574 H 0.83226 0.07886 0.89056 0.0
H575 H 0.86262 0.05582 0.91272 0.0
C576 C 0.83664 0.16438 0.92815 0.0
C577 C 0.84057 0.14956 0.96837 0.0
C578 C 0.84709 0.15309 0.89737 0.0
C579 C 0.86199 0.12686 0.90607 0.0
C580 C 0.86633 0.11219 0.94625 0.0
H581 H 0.98167 0.05195 0.79154 0.0
H582 H 0.94707 0.06033 0.83451 0.0
C583 C 0.85541 0.12319 0.97689 0.0
C584 C 0.87481 0.11609 0.8738 0.0
H585 H 0.882 0.05729 0.82779 0.0
C586 C 0.89242 0.13457 0.85294 0.0
C587 C 0.87044 0.08801 0.864 0.0
C588 C 0.85065 0.0675 0.88363 0.0
C589 C 0.90633 0.12564 0.82345 0.0
C590 C 0.90245 0.09748 0.81429 0.0
C591 C 0.8847 0.07895 0.83473 0.0
C592 C 0.9188 0.08669 0.78597 0.0
C593 C 0.9259 0.14611 0.80322 0.0
C594 C 0.91351 0.09756 0.74399 0.0
C595 C 0.93326 0.09276 0.71933 0.0
C596 C 0.95859 0.0772 0.73656 0.0
C597 C 0.96248 0.0643 0.77772 0.0
C598 C 0.94268 0.06893 0.8022 0.0
H599 H 0.92993 0.16559 0.81822 0.0
H600 H 0.94672 0.13558 0.80392 0.0
H601 H 0.91603 0.15279 0.77062 0.0
H602 H 0.89509 0.11125 0.73096 0.0
H603 H 0.92976 0.10295 0.68771 0.0
H604 H 0.40558 0.3074 0.35024 0.0
H605 H 0.42621 0.33465 0.29498 0.0
H606 H 0.42308 0.41099 0.35009 0.0
H607 H 0.40114 0.38449 0.40429 0.0
H608 H 0.40223 0.3904 0.2405 0.0
H609 H 0.50989 0.39711 0.33646 0.0
H610 H 0.48473 0.36962 0.34837 0.0
H611 H 0.47981 0.40514 0.3588 0.0
C612 C 0.4087 0.33009 0.35032 0.0
C613 C 0.40173 0.34363 0.38208 0.0
C614 C 0.42075 0.34555 0.31885 0.0
C615 C 0.42644 0.37469 0.31886 0.0
C616 C 0.41915 0.3884 0.34992 0.0
H617 H 0.49516 0.51015 0.16202 0.0
H618 H 0.47531 0.48122 0.21707 0.0
C619 C 0.40676 0.37312 0.38103 0.0
C620 C 0.44011 0.39095 0.28653 0.0
H621 H 0.50185 0.4247 0.27043 0.0
C622 C 0.42403 0.39779 0.2469 0.0
C623 C 0.46857 0.40045 0.29513 0.0
C624 C 0.48696 0.39261 0.33688 0.0
C625 C 0.43557 0.4145 0.21574 0.0
C626 C 0.46388 0.42435 0.22453 0.0
C627 C 0.48005 0.41727 0.26403 0.0
C628 C 0.47714 0.44159 0.19264 0.0
C629 C 0.41741 0.42189 0.1737 0.0
C630 C 0.48546 0.42864 0.16158 0.0
C631 C 0.49728 0.44493 0.13076 0.0
C632 C 0.50031 0.47459 0.1297 0.0
C633 C 0.49274 0.4874 0.16162 0.0
C634 C 0.48136 0.47096 0.193 0.0
H635 H 0.39459 0.41656 0.17359 0.0
H636 H 0.41895 0.44499 0.16226 0.0
H637 H 0.4254 0.40977 0.15199 0.0
H638 H 0.4828 0.4059 0.16122 0.0
H639 H 0.50413 0.4342 0.10784 0.0
H640 H 0.20778 0.85636 0.91413 0.0
H641 H 0.17852 0.87611 0.84788 0.0
H642 H 0.19005 0.96099 0.88016 0.0
H643 H 0.21933 0.94142 0.94598 0.0
H644 H 0.12681 0.90986 0.83817 0.0
H645 H 0.21029 0.96852 0.76434 0.0
H646 H 0.21886 0.94084 0.808 0.0
H647 H 0.20858 0.97592 0.81492 0.0
C648 C 0.20445 0.87925 0.90661 0.0
C649 C 0.21578 0.89741 0.93494 0.0
C650 C 0.18765 0.89048 0.86903 0.0
C651 C 0.18236 0.92001 0.85907 0.0
C652 C 0.1942 0.93819 0.88702 0.0
H653 H 0.085 0.03046 0.65241 0.0
H654 H 0.11441 1.01047 0.71773 0.0
C655 C 0.21078 0.927 0.92462 0.0
C656 C 0.16347 0.93181 0.82024 0.0
H657 H 0.16226 0.97661 0.73041 0.0
C658 C 0.13454 0.92428 0.81441 0.0
C659 C 0.1736 0.95095 0.78972 0.0
C660 C 0.20457 0.95942 0.79425 0.0
C661 C 0.11535 0.93567 0.77893 0.0
C662 C 0.12557 0.95449 0.74805 0.0
C663 C 0.15449 0.9621 0.75405 0.0
C664 C 0.10671 0.96641 0.70914 0.0
C665 C 0.08417 0.92809 0.77536 0.0
C666 C 0.09254 0.94829 0.68263 0.0
C667 C 0.07532 0.95964 0.64556 0.0
C668 C 0.07252 0.98936 0.63371 0.0
C669 C 0.08668 1.00746 0.66045 0.0
C670 C 0.10362 0.99608 0.69776 0.0
H671 H 0.07859 0.92024 0.80579 0.0
H672 H 0.07026 0.94678 0.76075 0.0
H673 H 0.0795 0.91084 0.75607 0.0
H674 H 0.095 0.92532 0.69041 0.0
H675 H 0.06422 0.94508 0.62626 0.0
loop_
_geom_bond_atom_site_label_1
_geom_bond_atom_site_label_2
_geom_bond_distance
_geom_bond_site_symmetry_2
_ccdc_geom_bond_type
H0 C1 0.949 . S
C1 H0 0.949 . S
C1 C2 1.395 . S
C1 C3 1.391 . S
C2 C1 1.395 . S
C2 C5 1.390 . S
C3 C1 1.391 . S
C3 C7 1.387 1_554 S
C3 C8 1.491 . S
H4 C5 0.950 . S
C5 C2 1.390 . S
C5 H4 0.950 . S
C5 C6 1.378 1_554 S
C6 C5 1.378 1_556 S
C6 C7 1.409 . S
C7 C3 1.387 1_556 S
C7 C6 1.409 . S
C7 H9 0.951 . S
C8 C3 1.491 . S
C8 C10 1.382 . S
C8 C12 1.404 1_554 S
H9 C7 0.951 . S
C10 C8 1.382 . S
C10 C11 1.390 . S
C10 H15 0.949 . S
C11 C10 1.390 . S
C11 C16 1.399 . S
C12 C8 1.404 1_556 S
C12 H13 0.950 . S
C12 C14 1.375 . S
H13 C12 0.950 . S
C14 C12 1.375 . S
C14 C16 1.382 1_556 S
C14 H18 0.950 . S
H15 C10 0.949 . S
C16 C11 1.399 . S
C16 C14 1.382 1_554 S
C16 H17 0.952 . S
H17 C16 0.952 . S
H18 C14 0.950 . S
H19 C20 0.949 . S
C20 H19 0.949 . S
C20 C21 1.395 . S
C20 C22 1.391 . S
C21 C20 1.395 . S
C21 C24 1.390 . S
C22 C20 1.391 . S
C22 C26 1.387 . S
C22 C27 1.491 . S
H23 C24 0.950 . S
C24 C21 1.390 . S
C24 H23 0.950 . S
C24 C25 1.378 . S
C25 C24 1.378 . S
C25 C26 1.409 . S
C26 C22 1.387 . S
C26 C25 1.409 . S
C26 H28 0.951 . S
C27 C22 1.491 . S
C27 C29 1.382 . S
C27 C31 1.404 . S
H28 C26 0.951 . S
C29 C27 1.382 . S
C29 C30 1.390 . S
C29 H34 0.949 . S
C30 C29 1.390 . S
C30 C35 1.399 . S
C31 C27 1.404 . S
C31 H32 0.950 . S
C31 C33 1.375 . S
H32 C31 0.950 . S
C33 C31 1.375 . S
C33 C35 1.382 . S
C33 H37 0.950 . S
H34 C29 0.949 . S
C35 C30 1.399 . S
C35 C33 1.382 . S
C35 H36 0.952 . S
H36 C35 0.952 . S
H37 C33 0.950 . S
H38 C39 0.949 . S
C39 H38 0.949 . S
C39 C40 1.395 . S
C39 C41 1.391 . S
C40 C39 1.395 . S
C40 C43 1.390 . S
C41 C39 1.391 . S
C41 C45 1.387 1_554 S
C41 C46 1.491 1_554 S
H42 C43 0.950 . S
C43 C40 1.390 . S
C43 H42 0.950 . S
C43 C44 1.378 1_554 S
C44 C43 1.378 1_556 S
C44 C45 1.409 . S
C45 C41 1.387 1_556 S
C45 C44 1.409 . S
C45 H47 0.951 . S
C46 C41 1.491 1_556 S
C46 C48 1.382 1_556 S
C46 C50 1.404 . S
H47 C45 0.951 . S
C48 C46 1.382 1_554 S
C48 C49 1.390 . S
C48 H53 0.949 . S
C49 C48 1.390 . S
C49 C54 1.399 1_554 S
C50 C46 1.404 . S
C50 H51 0.950 . S
C50 C52 1.375 . S
H51 C50 0.950 . S
C52 C50 1.375 . S
C52 C54 1.382 . S
C52 H56 0.950 . S
H53 C48 0.949 . S
C54 C49 1.399 1_556 S
C54 C52 1.382 . S
C54 H55 0.952 . S
H55 C54 0.952 . S
H56 C52 0.950 . S
H57 C58 0.949 . S
C58 H57 0.949 . S
C58 C59 1.395 . S
C58 C60 1.391 . S
C59 C58 1.395 . S
C59 C62 1.390 . S
C60 C58 1.391 . S
C60 C64 1.387 . S
C60 C65 1.491 . S
H61 C62 0.950 . S
C62 C59 1.390 . S
C62 H61 0.950 . S
C62 C63 1.378 . S
C63 C62 1.378 . S
C63 C64 1.409 . S
C64 C60 1.387 . S
C64 C63 1.409 . S
C64 H66 0.951 . S
C65 C60 1.491 . S
C65 C67 1.382 . S
C65 C69 1.404 . S
H66 C64 0.951 . S
C67 C65 1.382 . S
C67 C68 1.390 . S
C67 H72 0.949 . S
C68 C67 1.390 . S
C68 C73 1.399 . S
C69 C65 1.404 . S
C69 H70 0.950 . S
C69 C71 1.375 . S
H70 C69 0.950 . S
C71 C69 1.375 . S
C71 C73 1.382 . S
C71 H75 0.950 . S
H72 C67 0.949 . S
C73 C68 1.399 . S
C73 C71 1.382 . S
C73 H74 0.952 . S
H74 C73 0.952 . S
H75 C71 0.950 . S
Tb76 N105 2.617 . S
Tb76 N111 2.572 . S
Tb76 O120 2.465 . S
Tb76 O121 2.387 . S
Tb76 O123 2.428 . S
Tb76 O124 2.308 1_565 S
Tb76 O128 2.349 1_565 S
Tb76 O131 2.393 1_455 S
Tb76 C140 2.802 . S
C77 N78 1.379 . S
C77 C80 1.416 . S
C77 C84 1.424 . S
N78 C77 1.379 . S
N78 C81 1.334 1_655 S
N78 Tb87 2.617 . S
C79 C81 1.390 . S
C79 C82 1.339 1_455 S
C79 H99 0.930 . S
C80 C77 1.416 . S
C80 C82 1.416 . S
C80 C86 1.448 . S
C81 N78 1.334 1_455 S
C81 C79 1.390 . S
C81 H92 0.930 . S
C82 C79 1.339 1_655 S
C82 C80 1.416 . S
C82 H103 0.930 . S
C83 C84 1.413 . S
C83 C85 1.427 . S
C83 C89 1.416 . S
C84 C77 1.424 . S
C84 C83 1.413 . S
C84 N88 1.361 . S
C85 C83 1.427 . S
C85 C86 1.328 . S
C85 H100 0.929 . S
C86 C80 1.448 . S
C86 C85 1.328 . S
C86 H101 0.930 . S
Tb87 N78 2.617 . S
Tb87 N88 2.572 . S
Tb87 O122 2.349 1_655 S
Tb87 O125 2.393 1_655 S
Tb87 O126 2.465 . S
Tb87 O127 2.387 . S
Tb87 O129 2.428 1_655 S
Tb87 O130 2.308 1_545 S
Tb87 C151 2.802 . S
N88 C84 1.361 . S
N88 Tb87 2.572 . S
N88 C90 1.340 . S
C89 C83 1.416 . S
C89 C91 1.332 . S
C89 H97 0.931 . S
C90 N88 1.340 . S
C90 C91 1.407 . S
C90 H96 0.930 . S
C91 C89 1.332 . S
C91 C90 1.407 . S
C91 H93 0.929 . S
H92 C81 0.930 . S
H93 C91 0.929 . S
H94 C109 0.930 1_655 S
H95 C116 0.929 . S
H96 C90 0.930 . S
H97 C89 0.931 . S
H98 C112 0.930 . S
H99 C79 0.930 . S
H100 C85 0.929 . S
H101 C86 0.930 . S
H102 C107 0.930 1_655 S
H103 C82 0.930 . S
H104 C115 0.931 . S
N105 Tb76 2.617 . S
N105 C106 1.379 . S
N105 C109 1.334 . S
C106 N105 1.379 . S
C106 C108 1.416 . S
C106 C114 1.424 . S
C107 H102 0.930 1_455 S
C107 C109 1.390 . S
C107 C110 1.339 . S
C108 C106 1.416 . S
C108 C110 1.416 . S
C108 C141 1.448 . S
C109 H94 0.930 1_455 S
C109 N105 1.334 . S
C109 C107 1.390 . S
C110 C107 1.339 . S
C110 C108 1.416 . S
C110 H117 0.930 . S
N111 Tb76 2.572 . S
N111 C112 1.340 . S
N111 C114 1.361 . S
C112 H98 0.930 . S
C112 N111 1.340 . S
C112 C116 1.407 . S
C113 C114 1.413 . S
C113 C115 1.416 . S
C113 C142 1.427 . S
C114 C106 1.424 . S
C114 N111 1.361 . S
C114 C113 1.413 . S
C115 H104 0.931 . S
C115 C113 1.416 . S
C115 C116 1.332 . S
C116 H95 0.929 . S
C116 C112 1.407 . S
C116 C115 1.332 . S
H117 C110 0.930 . S
H118 C141 0.930 . S
H119 C142 0.929 . S
O120 Tb76 2.465 . S
O120 C140 1.264 . S
O121 Tb76 2.387 . S
O121 C132 1.264 . S
O122 Tb87 2.349 1_455 S
O122 C132 1.243 1_545 S
O123 Tb76 2.428 . S
O123 C140 1.256 . S
O124 Tb76 2.308 1_545 S
O124 C139 1.266 . S
O125 Tb87 2.393 1_455 S
O125 C139 1.248 . S
O126 Tb87 2.465 . S
O126 C151 1.264 . S
O127 Tb87 2.387 . S
O127 C143 1.264 . S
O128 Tb76 2.349 1_545 S
O128 C143 1.243 1_455 S
O129 Tb87 2.428 1_455 S
O129 C151 1.256 1_455 S
O130 Tb87 2.308 1_565 S
O130 C150 1.266 . S
O131 Tb76 2.393 1_655 S
O131 C150 1.248 . S
C132 O121 1.264 . S
C132 O122 1.243 1_565 S
C133 C136 1.399 . S
C133 C138 1.383 . S
C133 C140 1.496 . S
C134 C135 1.399 . S
C134 C138 1.389 . S
C135 C134 1.399 . S
C135 C137 1.380 . S
C135 H152 0.929 . S
C136 C133 1.399 . S
C136 C137 1.392 . S
C136 H153 0.929 . S
C137 C135 1.380 . S
C137 C136 1.392 . S
C137 H154 0.929 . S
C138 C133 1.383 . S
C138 C134 1.389 . S
C138 H155 0.931 . S
C139 O124 1.266 . S
C139 O125 1.248 . S
C140 Tb76 2.802 . S
C140 O120 1.264 . S
C140 O123 1.256 . S
C140 C133 1.496 . S
C141 C108 1.448 . S
C141 H118 0.930 . S
C141 C142 1.328 . S
C142 C113 1.427 . S
C142 H119 0.929 . S
C142 C141 1.328 . S
C143 O127 1.264 . S
C143 O128 1.243 1_655 S
C144 C147 1.399 . S
C144 C148 1.383 . S
C144 C151 1.496 . S
C145 C146 1.399 . S
C145 C148 1.389 . S
C146 C145 1.399 . S
C146 C149 1.380 . S
C146 H156 0.929 . S
C147 C144 1.399 . S
C147 C149 1.392 . S
C147 H157 0.929 1_655 S
C148 C144 1.383 . S
C148 C145 1.389 . S
C148 H158 0.931 . S
C149 C146 1.380 . S
C149 C147 1.392 . S
C149 H159 0.929 . S
C150 O130 1.266 . S
C150 O131 1.248 . S
C151 Tb87 2.802 . S
C151 O126 1.264 . S
C151 O129 1.256 1_655 S
C151 C144 1.496 . S
H152 C135 0.929 . S
H153 C136 0.929 . S
H154 C137 0.929 . S
H155 C138 0.931 . S
H156 C146 0.929 . S
H157 C147 0.929 1_455 S
H158 C148 0.931 . S
H159 C149 0.929 . S
Tb160 N189 2.617 . S
Tb160 N195 2.572 1_556 S
Tb160 O204 2.465 . S
Tb160 O205 2.387 1_556 S
Tb160 O207 2.428 . S
Tb160 O208 2.308 1_556 S
Tb160 O212 2.349 . S
Tb160 O215 2.393 1_556 S
Tb160 C224 2.802 . S
C161 N162 1.379 . S
C161 C164 1.416 . S
C161 C168 1.424 . S
N162 C161 1.379 . S
N162 C165 1.334 . S
N162 Tb171 2.617 . S
C163 C165 1.390 . S
C163 C166 1.339 . S
C163 H183 0.930 . S
C164 C161 1.416 . S
C164 C166 1.416 . S
C164 C170 1.448 . S
C165 N162 1.334 . S
C165 C163 1.390 . S
C165 H176 0.930 . S
C166 C163 1.339 . S
C166 C164 1.416 . S
C166 H187 0.930 . S
C167 C168 1.413 . S
C167 C169 1.427 . S
C167 C173 1.416 . S
C168 C161 1.424 . S
C168 C167 1.413 . S
C168 N172 1.361 . S
C169 C167 1.427 . S
C169 C170 1.328 . S
C169 H184 0.929 . S
C170 C164 1.448 . S
C170 C169 1.328 . S
C170 H185 0.930 . S
Tb171 N162 2.617 . S
Tb171 N172 2.572 . S
Tb171 O206 2.349 . S
Tb171 O209 2.393 . S
Tb171 O210 2.465 . S
Tb171 O211 2.387 . S
Tb171 O213 2.428 . S
Tb171 O214 2.308 . S
Tb171 C235 2.802 . S
N172 C168 1.361 . S
N172 Tb171 2.572 . S
N172 C174 1.340 . S
C173 C167 1.416 . S
C173 C175 1.332 . S
C173 H181 0.931 . S
C174 N172 1.340 . S
C174 C175 1.407 . S
C174 H180 0.930 . S
C175 C173 1.332 . S
C175 C174 1.407 . S
C175 H177 0.929 . S
H176 C165 0.930 . S
H177 C175 0.929 . S
H178 C193 0.930 . S
H179 C200 0.929 . S
H180 C174 0.930 . S
H181 C173 0.931 . S
H182 C196 0.930 . S
H183 C163 0.930 . S
H184 C169 0.929 . S
H185 C170 0.930 . S
H186 C191 0.930 . S
H187 C166 0.930 . S
H188 C199 0.931 . S
N189 Tb160 2.617 . S
N189 C190 1.379 1_556 S
N189 C193 1.334 . S
C190 N189 1.379 1_554 S
C190 C192 1.416 . S
C190 C198 1.424 . S
C191 H186 0.930 . S
C191 C193 1.390 . S
C191 C194 1.339 1_556 S
C192 C190 1.416 . S
C192 C194 1.416 . S
C192 C225 1.448 . S
C193 H178 0.930 . S
C193 N189 1.334 . S
C193 C191 1.390 . S
C194 C191 1.339 1_554 S
C194 C192 1.416 . S
C194 H201 0.930 . S
N195 Tb160 2.572 1_554 S
N195 C196 1.340 . S
N195 C198 1.361 . S
C196 H182 0.930 . S
C196 N195 1.340 . S
C196 C200 1.407 . S
C197 C198 1.413 . S
C197 C199 1.416 . S
C197 C226 1.427 . S
C198 C190 1.424 . S
C198 N195 1.361 . S
C198 C197 1.413 . S
C199 H188 0.931 . S
C199 C197 1.416 . S
C199 C200 1.332 . S
C200 H179 0.929 . S
C200 C196 1.407 . S
C200 C199 1.332 . S
H201 C194 0.930 . S
H202 C225 0.930 . S
H203 C226 0.929 . S
O204 Tb160 2.465 . S
O204 C224 1.264 . S
O205 Tb160 2.387 1_554 S
O205 C216 1.264 . S
O206 Tb171 2.349 . S
O206 C216 1.243 . S
O207 Tb160 2.428 . S
O207 C224 1.256 . S
O208 Tb160 2.308 1_554 S
O208 C223 1.266 . S
O209 Tb171 2.393 . S
O209 C223 1.248 . S
O210 Tb171 2.465 . S
O210 C235 1.264 . S
O211 Tb171 2.387 . S
O211 C227 1.264 1_554 S
O212 Tb160 2.349 . S
O212 C227 1.243 . S
O213 Tb171 2.428 . S
O213 C235 1.256 . S
O214 Tb171 2.308 . S
O214 C234 1.266 . S
O215 Tb160 2.393 1_554 S
O215 C234 1.248 . S
C216 O205 1.264 . S
C216 O206 1.243 . S
C217 C220 1.399 . S
C217 C222 1.383 . S
C217 C224 1.496 . S
C218 C219 1.399 . S
C218 C222 1.389 . S
C219 C218 1.399 . S
C219 C221 1.380 . S
C219 H236 0.929 . S
C220 C217 1.399 . S
C220 C221 1.392 . S
C220 H237 0.929 . S
C221 C219 1.380 . S
C221 C220 1.392 . S
C221 H238 0.929 . S
C222 C217 1.383 . S
C222 C218 1.389 . S
C222 H239 0.931 . S
C223 O208 1.266 . S
C223 O209 1.248 . S
C224 Tb160 2.802 . S
C224 O204 1.264 . S
C224 O207 1.256 . S
C224 C217 1.496 . S
C225 C192 1.448 . S
C225 H202 0.930 . S
C225 C226 1.328 . S
C226 C197 1.427 . S
C226 H203 0.929 . S
C226 C225 1.328 . S
C227 O211 1.264 1_556 S
C227 O212 1.243 . S
C228 C231 1.399 . S
C228 C232 1.383 . S
C228 C235 1.496 . S
C229 C230 1.399 . S
C229 C232 1.389 . S
C230 C229 1.399 . S
C230 C233 1.380 . S
C230 H240 0.929 . S
C231 C228 1.399 . S
C231 C233 1.392 . S
C231 H241 0.929 . S
C232 C228 1.383 . S
C232 C229 1.389 . S
C232 H242 0.931 . S
C233 C230 1.380 . S
C233 C231 1.392 . S
C233 H243 0.929 . S
C234 O214 1.266 . S
C234 O215 1.248 . S
C235 Tb171 2.802 . S
C235 O210 1.264 . S
C235 O213 1.256 . S
C235 C228 1.496 . S
H236 C219 0.929 . S
H237 C220 0.929 . S
H238 C221 0.929 . S
H239 C222 0.931 . S
H240 C230 0.929 . S
H241 C231 0.929 . S
H242 C232 0.931 . S
H243 C233 0.929 . S
H244 C252 0.929 . S
H245 C254 0.930 . S
H246 C256 0.930 . S
H247 C259 0.929 . S
H248 C262 0.930 . S
H249 C264 0.960 . S
H250 C264 0.960 . S
H251 C264 0.960 . S
C252 H244 0.929 . S
C252 C253 1.377 . S
C252 C254 1.384 . S
C253 C252 1.377 . S
C253 C259 1.390 . S
C254 H245 0.930 . S
C254 C252 1.384 . S
C254 C255 1.372 . S
C255 C254 1.372 . S
C255 C256 1.400 . S
C255 C260 1.490 . S
C256 H246 0.930 . S
C256 C255 1.400 . S
C256 C259 1.386 . S
H257 C273 0.930 . S
H258 C274 0.931 . S
C259 H247 0.929 . S
C259 C253 1.390 . S
C259 C256 1.386 . S
C260 C255 1.490 . S
C260 C262 1.395 . S
C260 C263 1.403 . S
H261 C267 0.930 . S
C262 H248 0.930 . S
C262 C260 1.395 . S
C262 C265 1.403 . S
C263 C260 1.403 . S
C263 C264 1.524 . S
C263 C267 1.400 . S
C264 H249 0.960 . S
C264 H250 0.960 . S
C264 H251 0.960 . S
C264 C263 1.524 . S
C265 C262 1.403 . S
C265 C266 1.392 . S
C265 C269 1.495 . S
C266 C265 1.392 . S
C266 C267 1.385 . S
C266 C268 1.478 . S
C267 H261 0.930 . S
C267 C263 1.400 . S
C267 C266 1.385 . S
C268 C266 1.478 . S
C268 C270 1.381 . S
C268 C274 1.383 . S
C269 C265 1.495 . S
C269 H275 0.959 . S
C269 H276 0.961 . S
C269 H277 0.960 . S
C270 C268 1.381 . S
C270 C271 1.394 . S
C270 H278 0.930 . S
C271 C270 1.394 . S
C271 C272 1.383 . S
C271 H279 0.929 . S
C272 C271 1.383 . S
C272 C273 1.377 . S
C273 H257 0.930 . S
C273 C272 1.377 . S
C273 C274 1.379 . S
C274 H258 0.931 . S
C274 C268 1.383 . S
C274 C273 1.379 . S
H275 C269 0.959 . S
H276 C269 0.961 . S
H277 C269 0.960 . S
H278 C270 0.930 . S
H279 C271 0.929 . S
H280 C288 0.929 . S
H281 C290 0.930 . S
H282 C292 0.930 1_556 S
H283 C295 0.929 1_556 S
H284 C298 0.930 . S
H285 C300 0.960 . S
H286 C300 0.960 . S
H287 C300 0.960 . S
C288 H280 0.929 . S
C288 C289 1.377 . S
C288 C290 1.384 . S
C289 C288 1.377 . S
C289 C295 1.390 . S
C290 H281 0.930 . S
C290 C288 1.384 . S
C290 C291 1.372 . S
C291 C290 1.372 . S
C291 C292 1.400 . S
C291 C296 1.490 . S
C292 H282 0.930 1_554 S
C292 C291 1.400 . S
C292 C295 1.386 . S
H293 C309 0.930 1_556 S
H294 C310 0.931 1_556 S
C295 H283 0.929 1_554 S
C295 C289 1.390 . S
C295 C292 1.386 . S
C296 C291 1.490 . S
C296 C298 1.395 . S
C296 C299 1.403 . S
H297 C303 0.930 . S
C298 H284 0.930 . S
C298 C296 1.395 . S
C298 C301 1.403 . S
C299 C296 1.403 . S
C299 C300 1.524 . S
C299 C303 1.400 . S
C300 H285 0.960 . S
C300 H286 0.960 . S
C300 H287 0.960 . S
C300 C299 1.524 . S
C301 C298 1.403 . S
C301 C302 1.392 . S
C301 C305 1.495 . S
C302 C301 1.392 . S
C302 C303 1.385 . S
C302 C304 1.478 . S
C303 H297 0.930 . S
C303 C299 1.400 . S
C303 C302 1.385 . S
C304 C302 1.478 . S
C304 C306 1.381 . S
C304 C310 1.383 . S
C305 C301 1.495 . S
C305 H311 0.959 . S
C305 H312 0.961 . S
C305 H313 0.960 . S
C306 C304 1.381 . S
C306 C307 1.394 . S
C306 H314 0.930 . S
C307 C306 1.394 . S
C307 C308 1.383 . S
C307 H315 0.929 . S
C308 C307 1.383 . S
C308 C309 1.377 . S
C309 H293 0.930 1_554 S
C309 C308 1.377 . S
C309 C310 1.379 . S
C310 H294 0.931 1_554 S
C310 C304 1.383 . S
C310 C309 1.379 . S
H311 C305 0.959 . S
H312 C305 0.961 . S
H313 C305 0.960 . S
H314 C306 0.930 . S
H315 C307 0.929 . S
H316 C324 0.929 . S
H317 C326 0.930 . S
H318 C328 0.930 . S
H319 C331 0.929 . S
H320 C334 0.930 . S
H321 C336 0.960 . S
H322 C336 0.960 . S
H323 C336 0.960 . S
C324 H316 0.929 . S
C324 C325 1.377 . S
C324 C326 1.384 . S
C325 C324 1.377 . S
C325 C331 1.390 . S
C326 H317 0.930 . S
C326 C324 1.384 . S
C326 C327 1.372 . S
C327 C326 1.372 . S
C327 C328 1.400 . S
C327 C332 1.490 . S
C328 H318 0.930 . S
C328 C327 1.400 . S
C328 C331 1.386 . S
H329 C345 0.930 . S
H330 C346 0.931 . S
C331 H319 0.929 . S
C331 C325 1.390 . S
C331 C328 1.386 . S
C332 C327 1.490 . S
C332 C334 1.395 . S
C332 C335 1.403 . S
H333 C339 0.930 . S
C334 H320 0.930 . S
C334 C332 1.395 . S
C334 C337 1.403 . S
C335 C332 1.403 . S
C335 C336 1.524 . S
C335 C339 1.400 . S
C336 H321 0.960 . S
C336 H322 0.960 . S
C336 H323 0.960 . S
C336 C335 1.524 . S
C337 C334 1.403 . S
C337 C338 1.392 . S
C337 C341 1.495 . S
C338 C337 1.392 . S
C338 C339 1.385 . S
C338 C340 1.478 . S
C339 H333 0.930 . S
C339 C335 1.400 . S
C339 C338 1.385 . S
C340 C338 1.478 . S
C340 C342 1.381 . S
C340 C346 1.383 . S
C341 C337 1.495 . S
C341 H347 0.959 . S
C341 H348 0.961 . S
C341 H349 0.960 . S
C342 C340 1.381 . S
C342 C343 1.394 . S
C342 H350 0.930 . S
C343 C342 1.394 . S
C343 C344 1.383 . S
C343 H351 0.929 . S
C344 C343 1.383 . S
C344 C345 1.377 . S
C345 H329 0.930 . S
C345 C344 1.377 . S
C345 C346 1.379 . S
C346 H330 0.931 . S
C346 C340 1.383 . S
C346 C345 1.379 . S
H347 C341 0.959 . S
H348 C341 0.961 . S
H349 C341 0.960 . S
H350 C342 0.930 . S
H351 C343 0.929 . S
H352 C360 0.929 . S
H353 C362 0.930 . S
H354 C364 0.930 . S
H355 C367 0.929 . S
H356 C370 0.930 . S
H357 C372 0.960 . S
H358 C372 0.960 1_556 S
H359 C372 0.960 . S
C360 H352 0.929 . S
C360 C361 1.377 1_556 S
C360 C362 1.384 . S
C361 C360 1.377 1_554 S
C361 C367 1.390 . S
C362 H353 0.930 . S
C362 C360 1.384 . S
C362 C363 1.372 1_556 S
C363 C362 1.372 1_554 S
C363 C364 1.400 . S
C363 C368 1.490 . S
C364 H354 0.930 . S
C364 C363 1.400 . S
C364 C367 1.386 . S
H365 C381 0.930 . S
H366 C382 0.931 . S
C367 H355 0.929 . S
C367 C361 1.390 . S
C367 C364 1.386 . S
C368 C363 1.490 . S
C368 C370 1.395 . S
C368 C371 1.403 . S
H369 C375 0.930 . S
C370 H356 0.930 . S
C370 C368 1.395 . S
C370 C373 1.403 . S
C371 C368 1.403 . S
C371 C372 1.524 . S
C371 C375 1.400 . S
C372 H357 0.960 . S
C372 H358 0.960 1_554 S
C372 H359 0.960 . S
C372 C371 1.524 . S
C373 C370 1.403 . S
C373 C374 1.392 . S
C373 C377 1.495 . S
C374 C373 1.392 . S
C374 C375 1.385 . S
C374 C376 1.478 . S
C375 H369 0.930 . S
C375 C371 1.400 . S
C375 C374 1.385 . S
C376 C374 1.478 . S
C376 C378 1.381 1_554 S
C376 C382 1.383 . S
C377 C373 1.495 . S
C377 H383 0.959 . S
C377 H384 0.961 . S
C377 H385 0.960 . S
C378 C376 1.381 1_556 S
C378 C379 1.394 . S
C378 H386 0.930 . S
C379 C378 1.394 . S
C379 C380 1.383 1_556 S
C379 H387 0.929 . S
C380 C379 1.383 1_554 S
C380 C381 1.377 . S
C381 H365 0.930 . S
C381 C380 1.377 . S
C381 C382 1.379 . S
C382 H366 0.931 . S
C382 C376 1.383 . S
C382 C381 1.379 . S
H383 C377 0.959 . S
H384 C377 0.961 . S
H385 C377 0.960 . S
H386 C378 0.930 . S
H387 C379 0.929 . S
H388 C396 0.929 . S
H389 C398 0.930 . S
H390 C400 0.930 . S
H391 C403 0.929 . S
H392 C406 0.930 . S
H393 C408 0.960 . S
H394 C408 0.960 . S
H395 C408 0.960 . S
C396 H388 0.929 . S
C396 C397 1.377 . S
C396 C398 1.384 . S
C397 C396 1.377 . S
C397 C403 1.390 . S
C398 H389 0.930 . S
C398 C396 1.384 . S
C398 C399 1.372 . S
C399 C398 1.372 . S
C399 C400 1.400 . S
C399 C404 1.490 . S
C400 H390 0.930 . S
C400 C399 1.400 . S
C400 C403 1.386 . S
H401 C417 0.930 . S
H402 C418 0.931 . S
C403 H391 0.929 . S
C403 C397 1.390 . S
C403 C400 1.386 . S
C404 C399 1.490 . S
C404 C406 1.395 . S
C404 C407 1.403 . S
H405 C411 0.930 . S
C406 H392 0.930 . S
C406 C404 1.395 . S
C406 C409 1.403 . S
C407 C404 1.403 . S
C407 C408 1.524 . S
C407 C411 1.400 . S
C408 H393 0.960 . S
C408 H394 0.960 . S
C408 H395 0.960 . S
C408 C407 1.524 . S
C409 C406 1.403 . S
C409 C410 1.392 . S
C409 C413 1.495 . S
C410 C409 1.392 . S
C410 C411 1.385 . S
C410 C412 1.478 . S
C411 H405 0.930 . S
C411 C407 1.400 . S
C411 C410 1.385 . S
C412 C410 1.478 . S
C412 C414 1.381 . S
C412 C418 1.383 . S
C413 C409 1.495 . S
C413 H419 0.959 . S
C413 H420 0.961 . S
C413 H421 0.960 . S
C414 C412 1.381 . S
C414 C415 1.394 . S
C414 H422 0.930 . S
C415 C414 1.394 . S
C415 C416 1.383 . S
C415 H423 0.929 . S
C416 C415 1.383 . S
C416 C417 1.377 . S
C417 H401 0.930 . S
C417 C416 1.377 . S
C417 C418 1.379 . S
C418 H402 0.931 . S
C418 C412 1.383 . S
C418 C417 1.379 . S
H419 C413 0.959 . S
H420 C413 0.961 . S
H421 C413 0.960 . S
H422 C414 0.930 . S
H423 C415 0.929 . S
H424 C432 0.929 . S
H425 C434 0.930 . S
H426 C436 0.930 . S
H427 C439 0.929 . S
H428 C442 0.930 . S
H429 C444 0.960 . S
H430 C444 0.960 . S
H431 C444 0.960 . S
C432 H424 0.929 . S
C432 C433 1.377 . S
C432 C434 1.384 . S
C433 C432 1.377 . S
C433 C439 1.390 . S
C434 H425 0.930 . S
C434 C432 1.384 . S
C434 C435 1.372 . S
C435 C434 1.372 . S
C435 C436 1.400 . S
C435 C440 1.490 . S
C436 H426 0.930 . S
C436 C435 1.400 . S
C436 C439 1.386 . S
H437 C453 0.930 . S
H438 C454 0.931 . S
C439 H427 0.929 . S
C439 C433 1.390 . S
C439 C436 1.386 . S
C440 C435 1.490 . S
C440 C442 1.395 . S
C440 C443 1.403 . S
H441 C447 0.930 . S
C442 H428 0.930 . S
C442 C440 1.395 . S
C442 C445 1.403 . S
C443 C440 1.403 . S
C443 C444 1.524 . S
C443 C447 1.400 . S
C444 H429 0.960 . S
C444 H430 0.960 . S
C444 H431 0.960 . S
C444 C443 1.524 . S
C445 C442 1.403 . S
C445 C446 1.392 . S
C445 C449 1.495 . S
C446 C445 1.392 . S
C446 C447 1.385 . S
C446 C448 1.478 . S
C447 H441 0.930 . S
C447 C443 1.400 . S
C447 C446 1.385 . S
C448 C446 1.478 . S
C448 C450 1.381 . S
C448 C454 1.383 . S
C449 C445 1.495 . S
C449 H455 0.959 . S
C449 H456 0.961 . S
C449 H457 0.960 . S
C450 C448 1.381 . S
C450 C451 1.394 . S
C450 H458 0.930 . S
C451 C450 1.394 . S
C451 C452 1.383 . S
C451 H459 0.929 . S
C452 C451 1.383 . S
C452 C453 1.377 . S
C453 H437 0.930 . S
C453 C452 1.377 . S
C453 C454 1.379 . S
C454 H438 0.931 . S
C454 C448 1.383 . S
C454 C453 1.379 . S
H455 C449 0.959 . S
H456 C449 0.961 . S
H457 C449 0.960 . S
H458 C450 0.930 . S
H459 C451 0.929 . S
H460 C468 0.929 . S
H461 C470 0.930 . S
H462 C472 0.930 . S
H463 C475 0.929 . S
H464 C478 0.930 . S
H465 C480 0.960 . S
H466 C480 0.960 . S
H467 C480 0.960 . S
C468 H460 0.929 . S
C468 C469 1.377 . S
C468 C470 1.384 . S
C469 C468 1.377 . S
C469 C475 1.390 . S
C470 H461 0.930 . S
C470 C468 1.384 . S
C470 C471 1.372 . S
C471 C470 1.372 . S
C471 C472 1.400 . S
C471 C476 1.490 . S
C472 H462 0.930 . S
C472 C471 1.400 . S
C472 C475 1.386 . S
H473 C489 0.930 . S
H474 C490 0.931 . S
C475 H463 0.929 . S
C475 C469 1.390 . S
C475 C472 1.386 . S
C476 C471 1.490 . S
C476 C478 1.395 . S
C476 C479 1.403 . S
H477 C483 0.930 . S
C478 H464 0.930 . S
C478 C476 1.395 . S
C478 C481 1.403 . S
C479 C476 1.403 . S
C479 C480 1.524 . S
C479 C483 1.400 . S
C480 H465 0.960 . S
C480 H466 0.960 . S
C480 H467 0.960 . S
C480 C479 1.524 . S
C481 C478 1.403 . S
C481 C482 1.392 . S
C481 C485 1.495 . S
C482 C481 1.392 . S
C482 C483 1.385 . S
C482 C484 1.478 . S
C483 H477 0.930 . S
C483 C479 1.400 . S
C483 C482 1.385 . S
C484 C482 1.478 . S
C484 C486 1.381 . S
C484 C490 1.383 . S
C485 C481 1.495 . S
C485 H491 0.959 . S
C485 H492 0.961 . S
C485 H493 0.960 . S
C486 C484 1.381 . S
C486 C487 1.394 . S
C486 H494 0.930 . S
C487 C486 1.394 . S
C487 C488 1.383 . S
C487 H495 0.929 . S
C488 C487 1.383 . S
C488 C489 1.377 . S
C489 H473 0.930 . S
C489 C488 1.377 . S
C489 C490 1.379 . S
C490 H474 0.931 . S
C490 C484 1.383 . S
C490 C489 1.379 . S
H491 C485 0.959 . S
H492 C485 0.961 . S
H493 C485 0.960 . S
H494 C486 0.930 . S
H495 C487 0.929 . S
H496 C504 0.929 . S
H497 C506 0.930 . S
H498 C508 0.930 . S
H499 C511 0.929 . S
H500 C514 0.930 . S
H501 C516 0.960 . S
H502 C516 0.960 . S
H503 C516 0.960 . S
C504 H496 0.929 . S
C504 C505 1.377 . S
C504 C506 1.384 . S
C505 C504 1.377 . S
C505 C511 1.390 . S
C506 H497 0.930 . S
C506 C504 1.384 . S
C506 C507 1.372 . S
C507 C506 1.372 . S
C507 C508 1.400 . S
C507 C512 1.490 . S
C508 H498 0.930 . S
C508 C507 1.400 . S
C508 C511 1.386 . S
H509 C525 0.930 . S
H510 C526 0.931 . S
C511 H499 0.929 . S
C511 C505 1.390 . S
C511 C508 1.386 . S
C512 C507 1.490 . S
C512 C514 1.395 . S
C512 C515 1.403 . S
H513 C519 0.930 . S
C514 H500 0.930 . S
C514 C512 1.395 . S
C514 C517 1.403 . S
C515 C512 1.403 . S
C515 C516 1.524 . S
C515 C519 1.400 . S
C516 H501 0.960 . S
C516 H502 0.960 . S
C516 H503 0.960 . S
C516 C515 1.524 . S
C517 C514 1.403 . S
C517 C518 1.392 . S
C517 C521 1.495 . S
C518 C517 1.392 . S
C518 C519 1.385 . S
C518 C520 1.478 . S
C519 H513 0.930 . S
C519 C515 1.400 . S
C519 C518 1.385 . S
C520 C518 1.478 . S
C520 C522 1.381 . S
C520 C526 1.383 . S
C521 C517 1.495 . S
C521 H527 0.959 . S
C521 H528 0.961 . S
C521 H529 0.960 . S
C522 C520 1.381 . S
C522 C523 1.394 . S
C522 H530 0.930 . S
C523 C522 1.394 . S
C523 C524 1.383 . S
C523 H531 0.929 . S
C524 C523 1.383 . S
C524 C525 1.377 . S
C525 H509 0.930 . S
C525 C524 1.377 . S
C525 C526 1.379 . S
C526 H510 0.931 . S
C526 C520 1.383 . S
C526 C525 1.379 . S
H527 C521 0.959 . S
H528 C521 0.961 . S
H529 C521 0.960 . S
H530 C522 0.930 . S
H531 C523 0.929 . S
H532 C540 0.929 . S
H533 C542 0.930 . S
H534 C544 0.930 . S
H535 C547 0.929 . S
H536 C550 0.930 . S
H537 C552 0.960 . S
H538 C552 0.960 . S
H539 C552 0.960 . S
C540 H532 0.929 . S
C540 C541 1.377 . S
C540 C542 1.384 . S
C541 C540 1.377 . S
C541 C547 1.390 . S
C542 H533 0.930 . S
C542 C540 1.384 . S
C542 C543 1.372 . S
C543 C542 1.372 . S
C543 C544 1.400 . S
C543 C548 1.490 . S
C544 H534 0.930 . S
C544 C543 1.400 . S
C544 C547 1.386 . S
H545 C561 0.930 . S
H546 C562 0.931 . S
C547 H535 0.929 . S
C547 C541 1.390 . S
C547 C544 1.386 . S
C548 C543 1.490 . S
C548 C550 1.395 . S
C548 C551 1.403 . S
H549 C555 0.930 . S
C550 H536 0.930 . S
C550 C548 1.395 . S
C550 C553 1.403 . S
C551 C548 1.403 . S
C551 C552 1.524 . S
C551 C555 1.400 . S
C552 H537 0.960 . S
C552 H538 0.960 . S
C552 H539 0.960 . S
C552 C551 1.524 . S
C553 C550 1.403 . S
C553 C554 1.392 . S
C553 C557 1.495 . S
C554 C553 1.392 . S
C554 C555 1.385 . S
C554 C556 1.478 . S
C555 H549 0.930 . S
C555 C551 1.400 . S
C555 C554 1.385 . S
C556 C554 1.478 . S
C556 C558 1.381 . S
C556 C562 1.383 . S
C557 C553 1.495 . S
C557 H563 0.959 . S
C557 H564 0.961 . S
C557 H565 0.960 . S
C558 C556 1.381 . S
C558 C559 1.394 . S
C558 H566 0.930 . S
C559 C558 1.394 . S
C559 C560 1.383 . S
C559 H567 0.929 . S
C560 C559 1.383 . S
C560 C561 1.377 . S
C561 H545 0.930 . S
C561 C560 1.377 . S
C561 C562 1.379 . S
C562 H546 0.931 . S
C562 C556 1.383 . S
C562 C561 1.379 . S
H563 C557 0.959 . S
H564 C557 0.961 . S
H565 C557 0.960 . S
H566 C558 0.930 . S
H567 C559 0.929 . S
H568 C576 0.929 . S
H569 C578 0.930 . S
H570 C580 0.930 . S
H571 C583 0.929 . S
H572 C586 0.930 . S
H573 C588 0.960 . S
H574 C588 0.960 . S
H575 C588 0.960 . S
C576 H568 0.929 . S
C576 C577 1.377 . S
C576 C578 1.384 . S
C577 C576 1.377 . S
C577 C583 1.390 . S
C578 H569 0.930 . S
C578 C576 1.384 . S
C578 C579 1.372 . S
C579 C578 1.372 . S
C579 C580 1.400 . S
C579 C584 1.490 . S
C580 H570 0.930 . S
C580 C579 1.400 . S
C580 C583 1.386 . S
H581 C597 0.930 . S
H582 C598 0.931 . S
C583 H571 0.929 . S
C583 C577 1.390 . S
C583 C580 1.386 . S
C584 C579 1.490 . S
C584 C586 1.395 . S
C584 C587 1.403 . S
H585 C591 0.930 . S
C586 H572 0.930 . S
C586 C584 1.395 . S
C586 C589 1.403 . S
C587 C584 1.403 . S
C587 C588 1.524 . S
C587 C591 1.400 . S
C588 H573 0.960 . S
C588 H574 0.960 . S
C588 H575 0.960 . S
C588 C587 1.524 . S
C589 C586 1.403 . S
C589 C590 1.392 . S
C589 C593 1.495 . S
C590 C589 1.392 . S
C590 C591 1.385 . S
C590 C592 1.478 . S
C591 H585 0.930 . S
C591 C587 1.400 . S
C591 C590 1.385 . S
C592 C590 1.478 . S
C592 C594 1.381 . S
C592 C598 1.383 . S
C593 C589 1.495 . S
C593 H599 0.959 . S
C593 H600 0.961 . S
C593 H601 0.960 . S
C594 C592 1.381 . S
C594 C595 1.394 . S
C594 H602 0.930 . S
C595 C594 1.394 . S
C595 C596 1.383 . S
C595 H603 0.929 . S
C596 C595 1.383 . S
C596 C597 1.377 . S
C597 H581 0.930 . S
C597 C596 1.377 . S
C597 C598 1.379 . S
C598 H582 0.931 . S
C598 C592 1.383 . S
C598 C597 1.379 . S
H599 C593 0.959 . S
H600 C593 0.961 . S
H601 C593 0.960 . S
H602 C594 0.930 . S
H603 C595 0.929 . S
H604 C612 0.929 . S
H605 C614 0.930 . S
H606 C616 0.930 . S
H607 C619 0.929 . S
H608 C622 0.930 . S
H609 C624 0.960 . S
H610 C624 0.960 . S
H611 C624 0.960 . S
C612 H604 0.929 . S
C612 C613 1.377 . S
C612 C614 1.384 . S
C613 C612 1.377 . S
C613 C619 1.390 . S
C614 H605 0.930 . S
C614 C612 1.384 . S
C614 C615 1.372 . S
C615 C614 1.372 . S
C615 C616 1.400 . S
C615 C620 1.490 . S
C616 H606 0.930 . S
C616 C615 1.400 . S
C616 C619 1.386 . S
H617 C633 0.930 . S
H618 C634 0.931 . S
C619 H607 0.929 . S
C619 C613 1.390 . S
C619 C616 1.386 . S
C620 C615 1.490 . S
C620 C622 1.395 . S
C620 C623 1.403 . S
H621 C627 0.930 . S
C622 H608 0.930 . S
C622 C620 1.395 . S
C622 C625 1.403 . S
C623 C620 1.403 . S
C623 C624 1.524 . S
C623 C627 1.400 . S
C624 H609 0.960 . S
C624 H610 0.960 . S
C624 H611 0.960 . S
C624 C623 1.524 . S
C625 C622 1.403 . S
C625 C626 1.392 . S
C625 C629 1.495 . S
C626 C625 1.392 . S
C626 C627 1.385 . S
C626 C628 1.478 . S
C627 H621 0.930 . S
C627 C623 1.400 . S
C627 C626 1.385 . S
C628 C626 1.478 . S
C628 C630 1.381 . S
C628 C634 1.383 . S
C629 C625 1.495 . S
C629 H635 0.959 . S
C629 H636 0.961 . S
C629 H637 0.960 . S
C630 C628 1.381 . S
C630 C631 1.394 . S
C630 H638 0.930 . S
C631 C630 1.394 . S
C631 C632 1.383 . S
C631 H639 0.929 . S
C632 C631 1.383 . S
C632 C633 1.377 . S
C633 H617 0.930 . S
C633 C632 1.377 . S
C633 C634 1.379 . S
C634 H618 0.931 . S
C634 C628 1.383 . S
C634 C633 1.379 . S
H635 C629 0.959 . S
H636 C629 0.961 . S
H637 C629 0.960 . S
H638 C630 0.930 . S
H639 C631 0.929 . S
H640 C648 0.929 . S
H641 C650 0.930 . S
H642 C652 0.930 . S
H643 C655 0.929 . S
H644 C658 0.930 . S
H645 C660 0.960 . S
H646 C660 0.960 . S
H647 C660 0.960 . S
C648 H640 0.929 . S
C648 C649 1.377 . S
C648 C650 1.384 . S
C649 C648 1.377 . S
C649 C655 1.390 . S
C650 H641 0.930 . S
C650 C648 1.384 . S
C650 C651 1.372 . S
C651 C650 1.372 . S
C651 C652 1.400 . S
C651 C656 1.490 . S
C652 H642 0.930 . S
C652 C651 1.400 . S
C652 C655 1.386 . S
H653 C669 0.930 1_545 S
H654 C670 0.931 . S
C655 H643 0.929 . S
C655 C649 1.390 . S
C655 C652 1.386 . S
C656 C651 1.490 . S
C656 C658 1.395 . S
C656 C659 1.403 . S
H657 C663 0.930 . S
C658 H644 0.930 . S
C658 C656 1.395 . S
C658 C661 1.403 . S
C659 C656 1.403 . S
C659 C660 1.524 . S
C659 C663 1.400 . S
C660 H645 0.960 . S
C660 H646 0.960 . S
C660 H647 0.960 . S
C660 C659 1.524 . S
C661 C658 1.403 . S
C661 C662 1.392 . S
C661 C665 1.495 . S
C662 C661 1.392 . S
C662 C663 1.385 . S
C662 C664 1.478 . S
C663 H657 0.930 . S
C663 C659 1.400 . S
C663 C662 1.385 . S
C664 C662 1.478 . S
C664 C666 1.381 . S
C664 C670 1.383 . S
C665 C661 1.495 . S
C665 H671 0.959 . S
C665 H672 0.961 . S
C665 H673 0.960 . S
C666 C664 1.381 . S
C666 C667 1.394 . S
C666 H674 0.930 . S
C667 C666 1.394 . S
C667 C668 1.383 . S
C667 H675 0.929 . S
C668 C667 1.383 . S
C668 C669 1.377 . S
C669 H653 0.930 1_565 S
C669 C668 1.377 . S
C669 C670 1.379 . S
C670 H654 0.931 . S
C670 C664 1.383 . S
C670 C669 1.379 . S
H671 C665 0.959 . S
H672 C665 0.961 . S
H673 C665 0.960 . S
H674 C666 0.930 . S
H675 C667 0.929 . S
C272 C139 1.745 . S
C253 C68 1.692 . S
C289 C11 1.614 . S
C308 C234 1.736 . S
C325 C30 1.653 . S
C344 C150 1.739 . S
C361 C49 1.650 . S
C380 C223 1.706 . S
C416 C134 1.570 . S
C397 C2 1.705 . S
C452 C227 1.824 . S
C433 C25 1.820 . S
C469 C40 1.712 . S
C488 C143 1.723 . S
C505 C59 1.693 . S
C524 C218 1.523 . S
C560 C229 1.407 . S
C541 C21 1.617 . S
C596 C145 1.405 . S
C577 C44 1.640 . S
C632 C216 1.695 . S
C613 C63 1.707 . S
C649 C6 1.644 . S
C668 C132 1.642 . S
