# Generated by pormake.
# Topology eea, (3,6)-cn, num edge types: 1
# Building blocks:
#     Node 0, Type 0, BuildingBlock: BETDAH_clean_linker_0, # of connection points: 3
#     Node 1, Type 0, BuildingBlock: BETDAH_clean_linker_0, # of connection points: 3
#     Node 2, Type 0, BuildingBlock: BETDAH_clean_linker_0, # of connection points: 3
#     Node 3, Type 0, BuildingBlock: BETDAH_clean_linker_0, # of connection points: 3
#     Node 4, Type 0, BuildingBlock: BETDAH_clean_linker_0, # of connection points: 3
#     Node 5, Type 0, BuildingBlock: BETDAH_clean_linker_0, # of connection points: 3
#     Node 6, Type 0, BuildingBlock: BETDAH_clean_linker_0, # of connection points: 3
#     Node 7, Type 0, BuildingBlock: BETDAH_clean_linker_0, # of connection points: 3
#     Node 8, Type 0, BuildingBlock: BETDAH_clean_linker_0, # of connection points: 3
#     Node 9, Type 0, BuildingBlock: BETDAH_clean_linker_0, # of connection points: 3
#     Node 10, Type 0, BuildingBlock: BETDAH_clean_linker_0, # of connection points: 3
#     Node 11, Type 0, BuildingBlock: BETDAH_clean_linker_0, # of connection points: 3
#     Node 12, Type 0, BuildingBlock: BETDAH_clean_linker_0, # of connection points: 3
#     Node 13, Type 0, BuildingBlock: BETDAH_clean_linker_0, # of connection points: 3
#     Node 14, Type 0, BuildingBlock: BETDAH_clean_linker_0, # of connection points: 3
#     Node 15, Type 0, BuildingBlock: BETDAH_clean_linker_0, # of connection points: 3
#     Node 16, Type 0, BuildingBlock: BETDAH_clean_linker_0, # of connection points: 3
#     Node 17, Type 0, BuildingBlock: BETDAH_clean_linker_0, # of connection points: 3
#     Node 18, Type 1, BuildingBlock: HISSIN_clean_sbu_0, # of connection points: 6
#     Node 19, Type 1, BuildingBlock: HISSIN_clean_sbu_0, # of connection points: 6
#     Node 20, Type 1, BuildingBlock: HISSIN_clean_sbu_0, # of connection points: 6
#     Node 21, Type 1, BuildingBlock: HISSIN_clean_sbu_0, # of connection points: 6
#     Node 22, Type 1, BuildingBlock: HISSIN_clean_sbu_0, # of connection points: 6
#     Node 23, Type 1, BuildingBlock: HISSIN_clean_sbu_0, # of connection points: 6
#     Node 24, Type 1, BuildingBlock: HISSIN_clean_sbu_0, # of connection points: 6
#     Node 25, Type 1, BuildingBlock: HISSIN_clean_sbu_0, # of connection points: 6
#     Node 26, Type 1, BuildingBlock: HISSIN_clean_sbu_0, # of connection points: 6
#     Edge 27, Type (0, 1), BuildingBlock: TEMPAE_clean_linker_10, # of connection points: 2
#     Edge 28, Type (0, 1), BuildingBlock: TEMPAE_clean_linker_10, # of connection points: 2
#     Edge 29, Type (0, 1), BuildingBlock: TEMPAE_clean_linker_10, # of connection points: 2
#     Edge 30, Type (0, 1), BuildingBlock: TEMPAE_clean_linker_10, # of connection points: 2
#     Edge 31, Type (0, 1), BuildingBlock: TEMPAE_clean_linker_10, # of connection points: 2
#     Edge 32, Type (0, 1), BuildingBlock: TEMPAE_clean_linker_10, # of connection points: 2
#     Edge 33, Type (0, 1), BuildingBlock: TEMPAE_clean_linker_10, # of connection points: 2
#     Edge 34, Type (0, 1), BuildingBlock: TEMPAE_clean_linker_10, # of connection points: 2
#     Edge 35, Type (0, 1), BuildingBlock: TEMPAE_clean_linker_10, # of connection points: 2
#     Edge 36, Type (0, 1), BuildingBlock: TEMPAE_clean_linker_10, # of connection points: 2
#     Edge 37, Type (0, 1), BuildingBlock: TEMPAE_clean_linker_10, # of connection points: 2
#     Edge 38, Type (0, 1), BuildingBlock: TEMPAE_clean_linker_10, # of connection points: 2
#     Edge 39, Type (0, 1), BuildingBlock: TEMPAE_clean_linker_10, # of connection points: 2
#     Edge 40, Type (0, 1), BuildingBlock: TEMPAE_clean_linker_10, # of connection points: 2
#     Edge 41, Type (0, 1), BuildingBlock: TEMPAE_clean_linker_10, # of connection points: 2
#     Edge 42, Type (0, 1), BuildingBlock: TEMPAE_clean_linker_10, # of connection points: 2
#     Edge 43, Type (0, 1), BuildingBlock: TEMPAE_clean_linker_10, # of connection points: 2
#     Edge 44, Type (0, 1), BuildingBlock: TEMPAE_clean_linker_10, # of connection points: 2
#     Edge 45, Type (0, 1), BuildingBlock: TEMPAE_clean_linker_10, # of connection points: 2
#     Edge 46, Type (0, 1), BuildingBlock: TEMPAE_clean_linker_10, # of connection points: 2
#     Edge 47, Type (0, 1), BuildingBlock: TEMPAE_clean_linker_10, # of connection points: 2
#     Edge 48, Type (0, 1), BuildingBlock: TEMPAE_clean_linker_10, # of connection points: 2
#     Edge 49, Type (0, 1), BuildingBlock: TEMPAE_clean_linker_10, # of connection points: 2
#     Edge 50, Type (0, 1), BuildingBlock: TEMPAE_clean_linker_10, # of connection points: 2
#     Edge 51, Type (0, 1), BuildingBlock: TEMPAE_clean_linker_10, # of connection points: 2
#     Edge 52, Type (0, 1), BuildingBlock: TEMPAE_clean_linker_10, # of connection points: 2
#     Edge 53, Type (0, 1), BuildingBlock: TEMPAE_clean_linker_10, # of connection points: 2
#     Edge 54, Type (0, 1), BuildingBlock: TEMPAE_clean_linker_10, # of connection points: 2
#     Edge 55, Type (0, 1), BuildingBlock: TEMPAE_clean_linker_10, # of connection points: 2
#     Edge 56, Type (0, 1), BuildingBlock: TEMPAE_clean_linker_10, # of connection points: 2
#     Edge 57, Type (0, 1), BuildingBlock: TEMPAE_clean_linker_10, # of connection points: 2
#     Edge 58, Type (0, 1), BuildingBlock: TEMPAE_clean_linker_10, # of connection points: 2
#     Edge 59, Type (0, 1), BuildingBlock: TEMPAE_clean_linker_10, # of connection points: 2
#     Edge 60, Type (0, 1), BuildingBlock: TEMPAE_clean_linker_10, # of connection points: 2
#     Edge 61, Type (0, 1), BuildingBlock: TEMPAE_clean_linker_10, # of connection points: 2
#     Edge 62, Type (0, 1), BuildingBlock: TEMPAE_clean_linker_10, # of connection points: 2
#     Edge 63, Type (0, 1), BuildingBlock: TEMPAE_clean_linker_10, # of connection points: 2
#     Edge 64, Type (0, 1), BuildingBlock: TEMPAE_clean_linker_10, # of connection points: 2
#     Edge 65, Type (0, 1), BuildingBlock: TEMPAE_clean_linker_10, # of connection points: 2
#     Edge 66, Type (0, 1), BuildingBlock: TEMPAE_clean_linker_10, # of connection points: 2
#     Edge 67, Type (0, 1), BuildingBlock: TEMPAE_clean_linker_10, # of connection points: 2
#     Edge 68, Type (0, 1), BuildingBlock: TEMPAE_clean_linker_10, # of connection points: 2
#     Edge 69, Type (0, 1), BuildingBlock: TEMPAE_clean_linker_10, # of connection points: 2
#     Edge 70, Type (0, 1), BuildingBlock: TEMPAE_clean_linker_10, # of connection points: 2
#     Edge 71, Type (0, 1), BuildingBlock: TEMPAE_clean_linker_10, # of connection points: 2
#     Edge 72, Type (0, 1), BuildingBlock: TEMPAE_clean_linker_10, # of connection points: 2
#     Edge 73, Type (0, 1), BuildingBlock: TEMPAE_clean_linker_10, # of connection points: 2
#     Edge 74, Type (0, 1), BuildingBlock: TEMPAE_clean_linker_10, # of connection points: 2
#     Edge 75, Type (0, 1), BuildingBlock: TEMPAE_clean_linker_10, # of connection points: 2
#     Edge 76, Type (0, 1), BuildingBlock: TEMPAE_clean_linker_10, # of connection points: 2
#     Edge 77, Type (0, 1), BuildingBlock: TEMPAE_clean_linker_10, # of connection points: 2
#     Edge 78, Type (0, 1), BuildingBlock: TEMPAE_clean_linker_10, # of connection points: 2
#     Edge 79, Type (0, 1), BuildingBlock: TEMPAE_clean_linker_10, # of connection points: 2
#     Edge 80, Type (0, 1), BuildingBlock: TEMPAE_clean_linker_10, # of connection points: 2
# Relax obj value: 0.057
# Max RMSD: 0.204
# Mean RMSD: 0.144
data_MOF--net-eea--node1-HISSIN_clean_sbu_0--node2-BETDAH_clean_linker_0--edge1-TEMPAE_clean_linker_10
_symmetry_space_group_name_H-M    P1
_symmetry_Int_Tables_number       1
_symmetry_cell_setting            triclinic
loop_
_symmetry_equiv_pos_as_xyz
'x, y, z'
_cell_length_a     55.384727
_cell_length_b     55.565799
_cell_length_c     70.517805
_cell_angle_alpha  93.297647
_cell_angle_beta   93.512983
_cell_angle_gamma 119.84738
loop_
_atom_site_label
_atom_site_type_symbol
_atom_site_fract_x
_atom_site_fract_y
_atom_site_fract_z
_atom_type_partial_charge
H0 H 0.25774 0.08392 0.42454 0.0
H1 H 0.28739 0.17063 0.41822 0.0
H2 H 0.26074 0.11175 0.36857 0.0
C3 C 0.26187 0.10045 0.41553 0.0
C4 C 0.25725 0.09429 0.39557 0.0
C5 C 0.2731 0.12798 0.42388 0.0
C6 C 0.27893 0.14933 0.41202 0.0
C7 C 0.27454 0.14335 0.39209 0.0
C8 C 0.26419 0.11605 0.38398 0.0
N9 N 0.28095 0.16457 0.37985 0.0
C10 C 0.27225 0.18388 0.3825 0.0
H11 H 0.9504 0.18803 0.42984 0.0
H12 H 0.87537 0.10743 0.4185 0.0
H13 H 0.93341 0.13855 0.37632 0.0
C14 C 0.93701 0.16911 0.42049 0.0
C15 C 0.94485 0.16587 0.40236 0.0
C16 C 0.91181 0.14819 0.42647 0.0
C17 C 0.89494 0.12353 0.41421 0.0
C18 C 0.90284 0.12014 0.39611 0.0
C19 C 0.92749 0.14141 0.39029 0.0
N20 N 0.88647 0.09592 0.38315 0.0
C21 C 0.86396 0.07124 0.38757 0.0
H22 H 0.84193 0.76815 0.44366 0.0
H23 H 0.90221 0.74178 0.43563 0.0
H24 H 0.87057 0.76688 0.38846 0.0
C25 C 0.85536 0.76477 0.43466 0.0
C26 C 0.85436 0.76911 0.41524 0.0
C27 C 0.87242 0.75476 0.44232 0.0
C28 C 0.88971 0.75048 0.43034 0.0
C29 C 0.88936 0.75532 0.41104 0.0
C30 C 0.87149 0.76427 0.40355 0.0
N31 N 0.90286 0.74638 0.39835 0.0
C32 C 0.9311 0.76213 0.3958 0.0
H33 H 0.06385 0.23684 0.5766 0.0
H34 H 0.13802 0.23128 0.58996 0.0
H35 H 0.07545 0.20692 0.62921 0.0
C36 C 0.07616 0.23126 0.58594 0.0
C37 C 0.06645 0.22119 0.60337 0.0
C38 C 0.10218 0.23538 0.58096 0.0
C39 C 0.11818 0.22859 0.59364 0.0
C40 C 0.10839 0.21824 0.61105 0.0
C41 C 0.08281 0.21489 0.61577 0.0
N42 N 0.12342 0.2111 0.62448 0.0
C43 C 0.14816 0.21102 0.62227 0.0
H44 H 0.74435 0.81891 0.59838 0.0
H45 H 0.72988 0.88816 0.60516 0.0
H46 H 0.75649 0.86154 0.65408 0.0
C47 C 0.74396 0.83514 0.60741 0.0
C48 C 0.75192 0.83841 0.62712 0.0
C49 C 0.73571 0.85285 0.59931 0.0
C50 C 0.73576 0.87409 0.61122 0.0
C51 C 0.74318 0.87709 0.63097 0.0
C52 C 0.75083 0.85905 0.6388 0.0
N53 N 0.74313 0.89803 0.64336 0.0
C54 C 0.74861 0.92364 0.63773 0.0
H55 H 0.17631 0.92737 0.58215 0.0
H56 H 0.0962 0.85303 0.56855 0.0
H57 H 0.11553 0.90077 0.62308 0.0
C58 C 0.15605 0.91234 0.58625 0.0
C59 C 0.14848 0.91653 0.60431 0.0
C60 C 0.13735 0.88965 0.57315 0.0
C61 C 0.11083 0.87094 0.57836 0.0
C62 C 0.1028 0.87467 0.59621 0.0
C63 C 0.12162 0.89762 0.60926 0.0
N64 N 0.0754 0.85483 0.60006 0.0
C65 C 0.0639 0.85287 0.61725 0.0
H66 H 0.92346 0.42047 0.75642 0.0
H67 H 0.95459 0.50806 0.75259 0.0
H68 H 0.9311 0.45222 0.70157 0.0
C69 C 0.92838 0.4377 0.74794 0.0
C70 C 0.92518 0.43285 0.72793 0.0
C71 C 0.93926 0.46479 0.75707 0.0
C72 C 0.94629 0.48707 0.74584 0.0
C73 C 0.94347 0.4824 0.72583 0.0
C74 C 0.93332 0.4555 0.71703 0.0
N75 N 0.95167 0.50456 0.71421 0.0
C76 C 0.94389 0.52461 0.71676 0.0
H77 H 0.61321 0.52615 0.76667 0.0
H78 H 0.53678 0.44751 0.75186 0.0
H79 H 0.59849 0.47962 0.71216 0.0
C80 C 0.59983 0.50813 0.75656 0.0
C81 C 0.60916 0.50535 0.7389 0.0
C82 C 0.57375 0.48725 0.76149 0.0
C83 C 0.55702 0.4635 0.7484 0.0
C84 C 0.56608 0.46086 0.7306 0.0
C85 C 0.59188 0.4818 0.726 0.0
N86 N 0.54981 0.43778 0.71672 0.0
C87 C 0.52633 0.41299 0.71992 0.0
H88 H 0.50245 0.09568 0.77377 0.0
H89 H 0.58541 0.10933 0.7866 0.0
H90 H 0.56463 0.13428 0.73446 0.0
C91 C 0.52327 0.10255 0.76966 0.0
C92 C 0.53081 0.11475 0.7524 0.0
C93 C 0.54272 0.10046 0.78217 0.0
C94 C 0.57006 0.11077 0.77719 0.0
C95 C 0.57803 0.12264 0.76004 0.0
C96 C 0.55838 0.12463 0.74756 0.0
N97 N 0.60656 0.13387 0.75677 0.0
C98 C 0.61749 0.13748 0.73922 0.0
H99 H 0.73019 0.5744 0.91096 0.0
H100 H 0.80779 0.57584 0.92577 0.0
H101 H 0.74545 0.55034 0.96518 0.0
C102 C 0.74368 0.57098 0.92086 0.0
C103 C 0.73466 0.56168 0.93857 0.0
C104 C 0.77027 0.57662 0.91612 0.0
C105 C 0.78719 0.57135 0.92905 0.0
C106 C 0.77807 0.56178 0.94674 0.0
C107 C 0.75217 0.55749 0.95144 0.0
N108 N 0.79469 0.55742 0.96069 0.0
C109 C 0.81624 0.55234 0.95716 0.0
H110 H 0.42262 0.15958 0.92928 0.0
H111 H 0.3973 0.22093 0.9375 0.0
H112 H 0.41941 0.19018 0.98603 0.0
C113 C 0.41863 0.17304 0.9387 0.0
C114 C 0.42238 0.17293 0.95859 0.0
C115 C 0.40938 0.19017 0.93091 0.0
C116 C 0.40471 0.20785 0.94329 0.0
C117 C 0.40819 0.20764 0.96315 0.0
C118 C 0.41652 0.18991 0.97066 0.0
N119 N 0.40323 0.22493 0.97592 0.0
C120 C 0.40947 0.25155 0.97223 0.0
H121 H 0.82788 0.25569 0.91219 0.0
H122 H 0.77201 0.1671 0.90813 0.0
H123 H 0.78518 0.21723 0.96058 0.0
C124 C 0.81286 0.23737 0.91844 0.0
C125 C 0.80785 0.23982 0.93759 0.0
C126 C 0.80011 0.21128 0.90765 0.0
C127 C 0.78197 0.18747 0.9162 0.0
C128 C 0.77606 0.18949 0.93504 0.0
C129 C 0.78902 0.21572 0.9458 0.0
N130 N 0.75868 0.16437 0.94299 0.0
C131 C 0.73995 0.16105 0.95624 0.0
H132 H 0.58773 0.74942 0.09044 0.0
H133 H 0.62244 0.83785 0.08826 0.0
H134 H 0.59208 0.7829 0.03643 0.0
C135 C 0.59316 0.76711 0.08234 0.0
C136 C 0.58807 0.76275 0.06233 0.0
C137 C 0.60587 0.79412 0.09194 0.0
C138 C 0.61235 0.81681 0.08124 0.0
C139 C 0.60738 0.81261 0.06124 0.0
C140 C 0.59574 0.78579 0.05188 0.0
N141 N 0.61506 0.83531 0.05021 0.0
C142 C 0.60531 0.85375 0.05304 0.0
H143 H 0.27622 0.84912 0.09992 0.0
H144 H 0.20276 0.76762 0.08661 0.0
H145 H 0.26275 0.80206 0.04592 0.0
C146 C 0.26373 0.83024 0.09034 0.0
C147 C 0.27264 0.82805 0.07242 0.0
C148 C 0.23823 0.80872 0.09555 0.0
C149 C 0.22214 0.78452 0.0827 0.0
C150 C 0.23107 0.78222 0.06478 0.0
C151 C 0.25602 0.80407 0.05975 0.0
N152 N 0.21559 0.75852 0.05123 0.0
C153 C 0.19276 0.73337 0.0547 0.0
H154 H 0.17146 0.42822 0.10985 0.0
H155 H 0.24016 0.41497 0.09909 0.0
H156 H 0.19621 0.4296 0.05319 0.0
C157 C 0.18572 0.42746 0.10028 0.0
C158 C 0.18189 0.43055 0.08088 0.0
C159 C 0.20645 0.42148 0.10712 0.0
C160 C 0.22423 0.41976 0.09424 0.0
C161 C 0.22048 0.4228 0.07481 0.0
C162 C 0.19917 0.42777 0.06826 0.0
N163 N 0.2354 0.41753 0.0611 0.0
C164 C 0.26441 0.43106 0.06182 0.0
H165 H 0.39718 0.90689 0.24532 0.0
H166 H 0.47624 0.9113 0.26007 0.0
H167 H 0.41445 0.88508 0.29992 0.0
C168 C 0.41114 0.90416 0.25527 0.0
C169 C 0.40254 0.89505 0.2731 0.0
C170 C 0.43789 0.91052 0.25044 0.0
C171 C 0.45551 0.90623 0.26343 0.0
C172 C 0.44691 0.89704 0.2813 0.0
C173 C 0.42077 0.89197 0.28605 0.0
N174 N 0.46436 0.89408 0.29543 0.0
C175 C 0.4858 0.88874 0.29207 0.0
H176 H 0.08064 0.48248 0.26199 0.0
H177 H 0.05875 0.54657 0.26968 0.0
H178 H 0.09254 0.52472 0.31777 0.0
C179 C 0.07918 0.49798 0.27114 0.0
C180 C 0.08815 0.50204 0.2907 0.0
C181 C 0.0684 0.51391 0.2634 0.0
C182 C 0.06682 0.53402 0.27548 0.0
C183 C 0.07545 0.5378 0.2951 0.0
C184 C 0.08583 0.52165 0.30261 0.0
N185 N 0.07377 0.55759 0.30764 0.0
C186 C 0.07921 0.58337 0.30242 0.0
H187 H 0.50057 0.58993 0.2486 0.0
H188 H 0.44999 0.50088 0.2477 0.0
H189 H 0.46526 0.55308 0.29945 0.0
C190 C 0.48756 0.57171 0.25574 0.0
C191 C 0.48438 0.5749 0.27521 0.0
C192 C 0.47503 0.54515 0.24558 0.0
C193 C 0.459 0.52161 0.25511 0.0
C194 C 0.45496 0.52441 0.27432 0.0
C195 C 0.4676 0.55105 0.2844 0.0
N196 N 0.44067 0.49993 0.28364 0.0
C197 C 0.41883 0.49447 0.29459 0.0
Eu198 Eu 0.49815 0.99729 0.99726 0.0
Eu199 Eu 0.51514 0.0267 0.04199 0.0
C200 C 0.48887 0.04819 0.01043 0.0
C201 C 0.49099 0.99 0.94254 0.0
C202 C 0.47006 0.99333 0.93281 0.0
C203 C 0.52013 0.00946 0.91669 0.0
C204 C 0.4742 0.00476 0.91529 0.0
C205 C 0.51601 0.99807 0.93419 0.0
C206 C 0.49929 0.01296 0.90699 0.0
C207 C 0.4867 0.97787 0.96115 0.0
O208 O 0.46865 0.99681 0.03799 0.0
O209 O 0.46637 0.96538 0.01444 0.0
C210 C 0.45563 0.97182 0.02865 0.0
O211 O 0.5257 0.98318 0.01153 0.0
O212 O 0.50552 0.04381 0.06721 0.0
O213 O 0.54258 0.04 0.06864 0.0
O214 O 0.51552 0.98639 0.04215 0.0
C215 C 0.52533 0.97674 0.02914 0.0
O216 O 0.5357 0.03992 0.99662 0.0
O217 O 0.55507 0.0479 0.02767 0.0
O218 O 0.50812 0.05625 0.02499 0.0
O219 O 0.50903 0.98242 0.9717 0.0
O220 O 0.46873 0.97979 0.97135 0.0
O221 O 0.47794 0.02341 1.00098 0.0
C222 C 0.5176 0.03029 0.09566 0.0
C223 C 0.50357 0.00105 0.09446 0.0
C224 C 0.51577 0.03177 0.13003 0.0
C225 C 0.49574 0.98724 0.11093 0.0
C226 C 0.52364 0.04556 0.11353 0.0
C227 C 0.50172 0.00242 0.12895 0.0
C228 C 0.52578 0.04476 0.0783 0.0
C229 C 0.55724 0.05305 0.00968 0.0
H230 H 0.45042 0.98706 0.93872 0.0
H231 H 0.53984 0.01586 0.91087 0.0
H232 H 0.45757 0.00681 0.9081 0.0
H233 H 0.53254 0.99568 0.94119 0.0
H234 H 0.49871 0.98888 0.08076 0.0
H235 H 0.52034 0.04412 0.1436 0.0
H236 H 0.48527 0.96468 0.10955 0.0
H237 H 0.53434 0.06813 0.11472 0.0
Eu238 Eu 0.00812 0.48726 0.99019 0.0
Eu239 Eu 0.9825 0.48044 0.03188 0.0
C240 C 0.95316 0.43073 0.99831 0.0
C241 C 0.01577 0.48796 0.93669 0.0
C242 C 0.98855 0.48288 0.93185 0.0
C243 C 0.02233 0.48629 0.90304 0.0
C244 C 0.97838 0.47981 0.91269 0.0
C245 C 0.03249 0.48945 0.92219 0.0
C246 C 0.99523 0.48163 0.89806 0.0
C247 C 0.02738 0.493 0.95675 0.0
O248 O 0.01005 0.46116 0.03281 0.0
O249 O 0.03969 0.48553 0.01093 0.0
C250 C 0.03395 0.47038 0.02541 0.0
O251 O 0.02721 0.53035 0.00568 0.0
O252 O 0.96166 0.45473 0.05444 0.0
O253 O 0.97361 0.49845 0.05698 0.0
O254 O 0.02506 0.51909 0.03642 0.0
C255 C 0.03564 0.53739 0.02398 0.0
O256 O 0.96805 0.48779 0.98444 0.0
O257 O 0.96491 0.50246 0.0148 0.0
O258 O 0.94882 0.44493 0.01184 0.0
O259 O 0.02635 0.51267 0.96701 0.0
O260 O 0.02048 0.47109 0.96588 0.0
O261 O 0.97718 0.44143 0.99092 0.0
C262 C 0.97619 0.47918 0.08552 0.0
C263 C 0.9736 0.49706 0.09905 0.0
C264 C 1.00127 0.46883 0.11028 0.0
C265 C 0.98486 0.50094 0.118 0.0
C266 C 0.99024 0.46516 0.09127 0.0
C267 C 0.99873 0.4868 0.12382 0.0
C268 C 0.96437 0.47574 0.06556 0.0
C269 C 0.95792 0.4988 0.99625 0.0
H270 H 0.97533 0.48163 0.9429 0.0
H271 H 0.03594 0.48814 0.89214 0.0
H272 H 0.95733 0.47594 0.90931 0.0
H273 H 0.0536 0.49351 0.9257 0.0
H274 H 0.96285 0.50807 0.09494 0.0
H275 H 0.01208 0.45787 0.11436 0.0
H276 H 0.98237 0.51471 0.12818 0.0
H277 H 0.9928 0.45142 0.08111 0.0
Eu278 Eu 0.5125 0.50825 0.01862 0.0
Eu279 Eu 0.48859 0.51332 0.97588 0.0
C280 C 0.5179 0.56547 0.00719 0.0
C281 C 0.52457 0.50985 0.07246 0.0
C282 C 0.50245 0.51469 0.07537 0.0
C283 C 0.53512 0.51358 0.10677 0.0
C284 C 0.49655 0.51877 0.09388 0.0
C285 C 0.54093 0.50943 0.08823 0.0
C286 C 0.51277 0.51816 0.10982 0.0
C287 C 0.5304 0.50481 0.05305 0.0
O288 O 0.53508 0.53052 0.97607 0.0
O289 O 0.54115 0.50527 0.99844 0.0
C290 C 0.54955 0.52014 0.9839 0.0
O291 O 0.4815 0.46504 0.00543 0.0
O292 O 0.4924 0.53817 0.95218 0.0
O293 O 0.46008 0.49468 0.94969 0.0
O294 O 0.48831 0.47258 0.9743 0.0
C295 C 0.47995 0.45561 0.98769 0.0
O296 O 0.47451 0.51169 0.02338 0.0
O297 O 0.45124 0.49611 0.99316 0.0
O298 O 0.4963 0.55143 0.9943 0.0
O299 O 0.50978 0.48388 0.04238 0.0
O300 O 0.54323 0.52668 0.04379 0.0
O301 O 0.53121 0.55375 0.01473 0.0
C302 C 0.48276 0.51254 0.92231 0.0
C303 C 0.49992 0.50067 0.92127 0.0
C304 C 0.48517 0.51836 0.88846 0.0
C305 C 0.50962 0.49763 0.90395 0.0
C306 C 0.47542 0.52132 0.90581 0.0
C307 C 0.50248 0.50655 0.88731 0.0
C308 C 0.47358 0.51683 0.94073 0.0
C309 C 0.4514 0.50114 0.01171 0.0
H310 H 0.4896 0.51506 0.06331 0.0
H311 H 0.54827 0.51341 0.11871 0.0
H312 H 0.47902 0.52192 0.0957 0.0
H313 H 0.55815 0.50582 0.08622 0.0
H314 H 0.50594 0.4939 0.93391 0.0
H315 H 0.47958 0.52582 0.87603 0.0
H316 H 0.52258 0.48813 0.90357 0.0
H317 H 0.46242 0.53078 0.90639 0.0
Eu318 Eu 0.17303 0.33423 0.32778 0.0
Eu319 Eu 0.18685 0.36038 0.3736 0.0
C320 C 0.16515 0.38628 0.34176 0.0
C321 C 0.1691 0.32862 0.2733 0.0
C322 C 0.18702 0.35741 0.2729 0.0
C323 C 0.16159 0.32329 0.23862 0.0
C324 C 0.19237 0.36902 0.25545 0.0
C325 C 0.15636 0.3117 0.25606 0.0
C326 C 0.17976 0.35208 0.23807 0.0
C327 C 0.16407 0.31594 0.29151 0.0
O328 O 0.14032 0.33239 0.36751 0.0
O329 O 0.13876 0.30201 0.34343 0.0
C330 C 0.12724 0.30807 0.35731 0.0
O331 O 0.19972 0.31958 0.34256 0.0
O332 O 0.17635 0.37585 0.39918 0.0
O333 O 0.2124 0.37037 0.40088 0.0
O334 O 0.18536 0.31908 0.37223 0.0
C335 C 0.19696 0.31098 0.35962 0.0
O336 O 0.21085 0.37696 0.32906 0.0
O337 O 0.22789 0.38271 0.36053 0.0
O338 O 0.18072 0.39158 0.35803 0.0
O339 O 0.18634 0.32143 0.30255 0.0
O340 O 0.14527 0.31727 0.30108 0.0
O341 O 0.15627 0.36349 0.33017 0.0
C342 C 0.18608 0.3599 0.42784 0.0
C343 C 0.20164 0.34941 0.43707 0.0
C344 C 0.153 0.34218 0.45181 0.0
C345 C 0.19291 0.33536 0.45339 0.0
C346 C 0.16173 0.35623 0.43549 0.0
C347 C 0.16846 0.33154 0.46099 0.0
C348 C 0.19532 0.37481 0.41047 0.0
C349 C 0.23142 0.38923 0.34285 0.0
H350 H 0.19698 0.37086 0.28608 0.0
H351 H 0.15179 0.30958 0.22553 0.0
H352 H 0.2062 0.3913 0.25557 0.0
H353 H 0.14255 0.28943 0.25607 0.0
H354 H 0.22066 0.3521 0.43173 0.0
H355 H 0.13391 0.33938 0.4571 0.0
H356 H 0.20559 0.32785 0.46023 0.0
H357 H 0.14929 0.36414 0.42884 0.0
Eu358 Eu 0.67988 0.82702 0.32569 0.0
Eu359 Eu 0.65402 0.81814 0.36728 0.0
C360 C 0.6262 0.76905 0.33315 0.0
C361 C 0.68853 0.8306 0.27209 0.0
C362 C 0.66926 0.80387 0.26314 0.0
C363 C 0.68737 0.85019 0.24234 0.0
C364 C 0.65928 0.80036 0.24388 0.0
C365 C 0.69749 0.85365 0.26151 0.0
C366 C 0.66824 0.82349 0.23323 0.0
C367 C 0.69945 0.83518 0.2924 0.0
O368 O 0.68326 0.80071 0.368 0.0
O369 O 0.71225 0.82612 0.34611 0.0
C370 C 0.70715 0.81077 0.36045 0.0
O371 O 0.69722 0.86944 0.3418 0.0
O372 O 0.63472 0.79151 0.38984 0.0
O373 O 0.64257 0.83393 0.39208 0.0
O374 O 0.69582 0.85764 0.37236 0.0
C375 C 0.70586 0.87624 0.36008 0.0
O376 O 0.63881 0.82561 0.32007 0.0
O377 O 0.6354 0.83963 0.35052 0.0
O378 O 0.6213 0.78241 0.34694 0.0
O379 O 0.69697 0.85374 0.30291 0.0
O380 O 0.69425 0.8134 0.30131 0.0
O381 O 0.65013 0.78076 0.32564 0.0
C382 C 0.64651 0.81551 0.42058 0.0
C383 C 0.67547 0.83184 0.42574 0.0
C384 C 0.63947 0.80675 0.45366 0.0
C385 C 0.68635 0.83578 0.44481 0.0
C386 C 0.62861 0.80293 0.43461 0.0
C387 C 0.66845 0.82329 0.45898 0.0
C388 C 0.63476 0.81138 0.40066 0.0
C389 C 0.62824 0.836 0.33199 0.0
H390 H 0.66193 0.78568 0.27095 0.0
H391 H 0.69439 0.86851 0.2347 0.0
H392 H 0.64485 0.77947 0.23726 0.0
H393 H 0.71227 0.87447 0.26812 0.0
H394 H 0.68961 0.84154 0.41502 0.0
H395 H 0.62514 0.79712 0.46428 0.0
H396 H 0.70877 0.84838 0.44845 0.0
H397 H 0.60621 0.79025 0.43084 0.0
Eu398 Eu 0.17733 0.83698 0.35104 0.0
Eu399 Eu 0.1553 0.84473 0.30858 0.0
C400 C 0.1843 0.89564 0.3412 0.0
C401 C 0.19173 0.84035 0.40468 0.0
C402 C 0.17963 0.85701 0.40777 0.0
C403 C 0.19677 0.83797 0.43881 0.0
C404 C 0.17596 0.86399 0.42631 0.0
C405 C 0.20047 0.83104 0.42027 0.0
C406 C 0.18425 0.85432 0.44202 0.0
C407 C 0.19396 0.83145 0.3852 0.0
O408 O 0.20178 0.86154 0.30945 0.0
O409 O 0.20613 0.83426 0.33085 0.0
C410 C 0.21554 0.85023 0.31694 0.0
O411 O 0.14704 0.7943 0.33674 0.0
O412 O 0.16086 0.87032 0.28506 0.0
O413 O 0.12678 0.82759 0.28233 0.0
O414 O 0.1544 0.80364 0.3059 0.0
C415 C 0.14581 0.78587 0.31881 0.0
O416 O 0.14014 0.84196 0.35573 0.0
O417 O 0.11745 0.82747 0.32536 0.0
O418 O 0.16362 0.88274 0.32749 0.0
O419 O 0.17037 0.81303 0.37556 0.0
O420 O 0.20978 0.85119 0.375 0.0
O421 O 0.19641 0.88296 0.34903 0.0
C422 C 0.15046 0.84445 0.2552 0.0
C423 C 0.16775 0.83269 0.25468 0.0
C424 C 0.15178 0.84773 0.22103 0.0
C425 C 0.17695 0.82841 0.23745 0.0
C426 C 0.14252 0.85193 0.2383 0.0
C427 C 0.16913 0.83592 0.2204 0.0
C428 C 0.14148 0.84957 0.27348 0.0
C429 C 0.1173 0.8322 0.34388 0.0
H430 H 0.17257 0.86419 0.39583 0.0
H431 H 0.20364 0.83047 0.45064 0.0
H432 H 0.16594 0.87632 0.42829 0.0
H433 H 0.2098 0.81811 0.41808 0.0
H434 H 0.17431 0.82701 0.26765 0.0
H435 H 0.14516 0.85349 0.20814 0.0
H436 H 0.1906 0.81966 0.23754 0.0
H437 H 0.12924 0.8611 0.23846 0.0
Eu438 Eu 0.83822 0.67138 0.66481 0.0
Eu439 Eu 0.85415 0.6994 0.70984 0.0
C440 C 0.82952 0.72174 0.67737 0.0
C441 C 0.8343 0.66557 0.61013 0.0
C442 C 0.8258 0.68424 0.60427 0.0
C443 C 0.85602 0.66952 0.58056 0.0
C444 C 0.83214 0.69521 0.58667 0.0
C445 C 0.84952 0.65841 0.5981 0.0
C446 C 0.84726 0.68794 0.57452 0.0
C447 C 0.82722 0.65314 0.62851 0.0
O448 O 0.81747 0.65631 0.70943 0.0
O449 O 0.79788 0.65157 0.679 0.0
C450 C 0.79563 0.64489 0.69667 0.0
O451 O 0.84575 0.64185 0.68125 0.0
O452 O 0.84202 0.71458 0.73459 0.0
O453 O 0.88063 0.71363 0.7371 0.0
O454 O 0.87484 0.67351 0.7062 0.0
C455 C 0.86481 0.64946 0.69584 0.0
O456 O 0.88459 0.70243 0.66879 0.0
O457 O 0.88799 0.73195 0.69437 0.0
O458 O 0.82737 0.71422 0.69479 0.0
O459 O 0.84763 0.65415 0.63947 0.0
O460 O 0.81063 0.65817 0.63825 0.0
O461 O 0.84039 0.71263 0.6649 0.0
C462 C 0.85368 0.7012 0.76363 0.0
C463 C 0.87355 0.69941 0.77593 0.0
C464 C 0.81779 0.67346 0.78399 0.0
C465 C 0.86559 0.68462 0.79201 0.0
C466 C 0.82571 0.68812 0.76791 0.0
C467 C 0.83758 0.67139 0.79623 0.0
C468 C 0.86206 0.7161 0.74624 0.0
C469 C 0.89818 0.72658 0.67937 0.0
H470 H 0.81404 0.69025 0.61318 0.0
H471 H 0.86807 0.66375 0.57177 0.0
H472 H 0.82465 0.70898 0.58245 0.0
H473 H 0.85638 0.64412 0.60226 0.0
H474 H 0.89524 0.70926 0.77303 0.0
H475 H 0.79615 0.66401 0.78694 0.0
H476 H 0.88135 0.68325 0.80098 0.0
H477 H 0.80979 0.6891 0.75883 0.0
Eu478 Eu 0.35199 0.16255 0.65715 0.0
Eu479 Eu 0.32715 0.15404 0.69911 0.0
C480 C 0.29853 0.10514 0.66469 0.0
C481 C 0.35738 0.16395 0.60321 0.0
C482 C 0.3421 0.13716 0.59325 0.0
C483 C 0.35072 0.18351 0.57466 0.0
C484 C 0.33134 0.13362 0.5742 0.0
C485 C 0.36161 0.18708 0.59369 0.0
C486 C 0.3356 0.15676 0.56468 0.0
C487 C 0.36954 0.16807 0.62324 0.0
O488 O 0.36935 0.15731 0.70407 0.0
O489 O 0.37215 0.14237 0.67378 0.0
C490 C 0.3804 0.14741 0.69218 0.0
O491 O 0.38422 0.19971 0.67677 0.0
O492 O 0.3143 0.12946 0.72337 0.0
O493 O 0.31061 0.16643 0.72271 0.0
O494 O 0.35609 0.20031 0.69912 0.0
C495 C 0.37929 0.21271 0.69083 0.0
O496 O 0.32337 0.18055 0.65657 0.0
O497 O 0.29508 0.15661 0.67927 0.0
O498 O 0.30733 0.11129 0.68296 0.0
O499 O 0.3709 0.18853 0.63422 0.0
O500 O 0.36216 0.14581 0.63212 0.0
O501 O 0.3094 0.12392 0.65259 0.0
C502 C 0.32088 0.15506 0.75273 0.0
C503 C 0.34934 0.17475 0.75741 0.0
C504 C 0.31562 0.149 0.78629 0.0
C505 C 0.3609 0.18151 0.77649 0.0
C506 C 0.3041 0.14233 0.76725 0.0
C507 C 0.34418 0.16861 0.79115 0.0
C508 C 0.30868 0.14667 0.73277 0.0
C509 C 0.3001 0.17169 0.66474 0.0
H510 H 0.33851 0.11887 0.6001 0.0
H511 H 0.35465 0.20177 0.56763 0.0
H512 H 0.31956 0.11272 0.56692 0.0
H513 H 0.37354 0.208 0.60091 0.0
H514 H 0.36261 0.18468 0.74631 0.0
H515 H 0.30226 0.13831 0.79716 0.0
H516 H 0.38289 0.19687 0.77976 0.0
H517 H 0.28215 0.12689 0.76383 0.0
Eu518 Eu 0.84311 0.17642 0.68082 0.0
Eu519 Eu 0.82358 0.18484 0.63782 0.0
C520 C 0.85317 0.23586 0.67033 0.0
C521 C 0.85181 0.17611 0.73513 0.0
C522 C 0.86512 0.20353 0.74413 0.0
C523 C 0.82774 0.15941 0.76341 0.0
C524 C 0.85975 0.20878 0.76259 0.0
C525 C 0.83325 0.15413 0.74504 0.0
C526 C 0.84088 0.18678 0.77238 0.0
C527 C 0.85693 0.16997 0.71554 0.0
O528 O 0.86985 0.20003 0.63949 0.0
O529 O 0.87238 0.17254 0.66152 0.0
C530 C 0.88267 0.18812 0.6475 0.0
O531 O 0.81103 0.13436 0.66654 0.0
O532 O 0.8309 0.21059 0.61422 0.0
O533 O 0.79617 0.16815 0.61107 0.0
O534 O 0.82089 0.14286 0.63598 0.0
C535 C 0.81063 0.12534 0.64891 0.0
O536 O 0.80662 0.18296 0.68454 0.0
O537 O 0.78505 0.16999 0.6538 0.0
O538 O 0.83283 0.22347 0.65637 0.0
O539 O 0.83524 0.1508 0.70453 0.0
O540 O 0.87308 0.19099 0.70635 0.0
O541 O 0.86425 0.22249 0.67851 0.0
C542 C 0.82122 0.18476 0.58446 0.0
C543 C 0.83847 0.17293 0.58452 0.0
C544 C 0.82375 0.18785 0.55036 0.0
C545 C 0.84832 0.16859 0.56761 0.0
C546 C 0.81389 0.19216 0.56731 0.0
C547 C 0.84116 0.17608 0.55031 0.0
C548 C 0.81167 0.19008 0.60241 0.0
C549 C 0.78444 0.17468 0.67227 0.0
H550 H 0.8796 0.22096 0.73692 0.0
H551 H 0.81343 0.14198 0.7707 0.0
H552 H 0.87006 0.23011 0.76911 0.0
H553 H 0.82292 0.13278 0.73855 0.0
H554 H 0.84441 0.16715 0.59768 0.0
H555 H 0.81814 0.1942 0.53736 0.0
H556 H 0.86136 0.15917 0.56807 0.0
H557 H 0.80076 0.2015 0.56705 0.0
C558 C 0.32444 0.86076 0.07836 0.0
C559 C 0.29929 0.85058 0.06665 0.0
C560 C 0.35007 0.88041 0.07227 0.0
C561 C 0.35042 0.8904 0.05418 0.0
C562 C 0.32495 0.88068 0.04253 0.0
C563 C 0.29973 0.86074 0.04885 0.0
C564 C 0.37681 0.89008 0.08502 0.0
C565 C 0.32433 0.89124 0.02335 0.0
C566 C 0.41339 0.95944 0.04575 0.0
C567 C 0.42836 0.95079 0.03459 0.0
C568 C 0.38796 0.94004 0.0521 0.0
C569 C 0.37738 0.91119 0.04745 0.0
C570 C 0.39238 0.90227 0.03621 0.0
C571 C 0.4176 0.9222 0.02977 0.0
C572 C 0.37238 0.95044 0.06375 0.0
C573 C 0.38193 0.87167 0.03116 0.0
H574 H 0.32413 0.8527 0.09204 0.0
H575 H 0.28024 0.85303 0.03985 0.0
H576 H 0.39097 0.885 0.07748 0.0
H577 H 0.38791 0.91306 0.08838 0.0
H578 H 0.37296 0.88027 0.09864 0.0
H579 H 0.30271 0.88213 0.01627 0.0
H580 H 0.33414 0.91429 0.02508 0.0
H581 H 0.33669 0.88611 0.01381 0.0
H582 H 0.42147 0.98151 0.04946 0.0
H583 H 0.42916 0.91537 0.02128 0.0
H584 H 0.37 0.9424 0.07796 0.0
H585 H 0.35102 0.94249 0.05657 0.0
H586 H 0.38321 0.97357 0.06586 0.0
H587 H 0.37954 0.86113 0.04439 0.0
H588 H 0.39628 0.86814 0.0226 0.0
H589 H 0.36099 0.86162 0.02291 0.0
C590 C 0.1554 0.45628 0.08291 0.0
C591 C 0.15921 0.43563 0.07356 0.0
C592 C 0.13478 0.46201 0.07564 0.0
C593 C 0.11734 0.44649 0.05874 0.0
C594 C 0.12073 0.42521 0.04948 0.0
C595 C 0.14167 0.42013 0.05696 0.0
C596 C 0.132 0.48502 0.08583 0.0
C597 C 0.10237 0.40796 0.03158 0.0
C598 C 0.04848 0.44519 0.04775 0.0
C599 C 0.05521 0.46415 0.03392 0.0
C600 C 0.06849 0.4393 0.05599 0.0
C601 C 0.09598 0.45288 0.05043 0.0
C602 C 0.10297 0.47222 0.03662 0.0
C603 C 0.0825 0.47752 0.02848 0.0
C604 C 0.06014 0.41836 0.07054 0.0
C605 C 0.13212 0.48735 0.03044 0.0
H606 H 0.16903 0.46843 0.09567 0.0
H607 H 0.14426 0.40386 0.04984 0.0
H608 H 0.13606 0.50144 0.07618 0.0
H609 H 0.11034 0.47676 0.08969 0.0
H610 H 0.14675 0.49474 0.09902 0.0
H611 H 0.10708 0.3916 0.02646 0.0
H612 H 0.08001 0.39776 0.03423 0.0
H613 H 0.10525 0.42163 0.02004 0.0
H614 H 0.02748 0.43475 0.05207 0.0
H615 H 0.08801 0.49236 0.01793 0.0
H616 H 0.07374 0.42823 0.08416 0.0
H617 H 0.06311 0.40085 0.06541 0.0
H618 H 0.03798 0.40976 0.07344 0.0
H619 H 0.14763 0.49894 0.04303 0.0
H620 H 0.1344 0.5023 0.01992 0.0
H621 H 0.13737 0.47209 0.02394 0.0
C622 C 0.55306 0.71164 0.05948 0.0
C623 C 0.57553 0.73422 0.05239 0.0
C624 C 0.54221 0.68432 0.05101 0.0
C625 C 0.55409 0.6795 0.03505 0.0
C626 C 0.57611 0.70229 0.0274 0.0
C627 C 0.58662 0.72939 0.0362 0.0
C628 C 0.51869 0.66054 0.05955 0.0
C629 C 0.58931 0.69794 0.0104 0.0
C630 C 0.54965 0.60928 0.02823 0.0
C631 C 0.52742 0.5949 0.01376 0.0
C632 C 0.55859 0.63685 0.03515 0.0
C633 C 0.54505 0.65049 0.02738 0.0
C634 C 0.5228 0.63629 0.01262 0.0
C635 C 0.5142 0.60859 0.00599 0.0
C636 C 0.58237 0.65129 0.05094 0.0
C637 C 0.50798 0.65029 0.00398 0.0
H638 H 0.5441 0.71532 0.07179 0.0
H639 H 0.60416 0.74672 0.03076 0.0
H640 H 0.50121 0.64735 0.04836 0.0
H641 H 0.52621 0.6471 0.06551 0.0
H642 H 0.51051 0.66795 0.07114 0.0
H643 H 0.6045 0.71796 0.00518 0.0
H644 H 0.60042 0.68667 0.01435 0.0
H645 H 0.57296 0.68486 0.99853 0.0
H646 H 0.56001 0.59892 0.03437 0.0
H647 H 0.49703 0.59766 0.99479 0.0
H648 H 0.57509 0.65747 0.06365 0.0
H649 H 0.59958 0.67063 0.04628 0.0
H650 H 0.59091 0.63784 0.05525 0.0
H651 H 0.49816 0.65629 0.01515 0.0
H652 H 0.49151 0.6366 0.9923 0.0
H653 H 0.52328 0.66973 0.99822 0.0
C654 C 0.83919 0.26975 0.96667 0.0
C655 C 0.82442 0.26734 0.94912 0.0
C656 C 0.8587 0.29606 0.97612 0.0
C657 C 0.8634 0.3205 0.96786 0.0
C658 C 0.84735 0.31813 0.9507 0.0
C659 C 0.82812 0.2916 0.94153 0.0
C660 C 0.87538 0.29768 0.99438 0.0
C661 C 0.85147 0.34363 0.94152 0.0
C662 C 0.90358 0.39132 0.99721 0.0
C663 C 0.93033 0.40222 0.99097 0.0
C664 C 0.88164 0.36465 0.99 0.0
C665 C 0.88656 0.34841 0.97627 0.0
C666 C 0.91359 0.35913 0.97009 0.0
C667 C 0.93509 0.38589 0.97747 0.0
C668 C 0.8531 0.354 0.99687 0.0
C669 C 0.91975 0.34243 0.95552 0.0
H670 H 0.83662 0.25107 0.9725 0.0
H671 H 0.81654 0.2898 0.92804 0.0
H672 H 0.89757 0.30584 0.99179 0.0
H673 H 0.87498 0.31235 0.00554 0.0
H674 H 0.86736 0.277 0.99991 0.0
H675 H 0.83563 0.33831 0.92917 0.0
H676 H 0.85032 0.35852 0.95209 0.0
H677 H 0.87258 0.35448 0.93647 0.0
H678 H 0.89963 0.40375 0.00762 0.0
H679 H 0.95566 0.39402 0.97258 0.0
H680 H 0.84615 0.33376 0.00278 0.0
H681 H 0.83759 0.35026 0.98468 0.0
H682 H 0.85288 0.36886 0.008 0.0
H683 H 0.91452 0.32201 0.96057 0.0
H684 H 0.94205 0.35341 0.95263 0.0
H685 H 0.9065 0.33814 0.9419 0.0
C686 C 0.68254 0.53923 0.932 0.0
C687 C 0.70719 0.5567 0.94397 0.0
C688 C 0.65628 0.53287 0.93769 0.0
C689 C 0.65476 0.54465 0.95563 0.0
C690 C 0.67971 0.56295 0.96751 0.0
C691 C 0.70558 0.56857 0.96159 0.0
C692 C 0.63014 0.51303 0.92473 0.0
C693 C 0.67906 0.57639 0.98655 0.0
C694 C 0.58924 0.54755 0.96466 0.0
C695 C 0.57611 0.5259 0.97633 0.0
C696 C 0.61471 0.55374 0.95769 0.0
C697 C 0.62714 0.53759 0.96221 0.0
C698 C 0.61369 0.51531 0.97365 0.0
C699 C 0.58846 0.50989 0.98071 0.0
C700 C 0.62861 0.57795 0.94581 0.0
C701 C 0.62606 0.49732 0.97853 0.0
H702 H 0.68378 0.52989 0.91843 0.0
H703 H 0.72467 0.58231 0.97077 0.0
H704 H 0.61686 0.49442 0.9321 0.0
H705 H 0.61766 0.52313 0.92139 0.0
H706 H 0.63492 0.50602 0.91112 0.0
H707 H 0.70038 0.59105 0.9937 0.0
H708 H 0.66768 0.58797 0.98463 0.0
H709 H 0.66759 0.5601 0.99614 0.0
H710 H 0.57988 0.56009 0.96124 0.0
H711 H 0.57832 0.49296 0.98957 0.0
H712 H 0.63211 0.57075 0.93179 0.0
H713 H 0.64943 0.59372 0.9531 0.0
H714 H 0.61599 0.58817 0.9433 0.0
H715 H 0.62974 0.48841 0.96527 0.0
H716 H 0.61231 0.47994 0.98675 0.0
H717 H 0.64664 0.51019 0.98711 0.0
C718 C 0.41988 0.13959 0.98185 0.0
C719 C 0.43265 0.15533 0.96684 0.0
C720 C 0.42953 0.12306 0.98993 0.0
C721 C 0.45255 0.12233 0.98286 0.0
C722 C 0.46574 0.13842 0.96786 0.0
C723 C 0.45557 0.15468 0.95999 0.0
C724 C 0.41476 0.10596 0.00577 0.0
C725 C 0.49038 0.13819 0.95998 0.0
C726 C 0.49107 0.09456 0.01272 0.0
C727 C 0.47928 0.06724 0.00399 0.0
C728 C 0.48252 0.11279 0.00606 0.0
C729 C 0.46173 0.10341 0.99034 0.0
C730 C 0.44962 0.07582 0.98159 0.0
C731 C 0.45853 0.05811 0.9885 0.0
C732 C 0.49586 0.14212 0.01572 0.0
C733 C 0.42737 0.06502 0.9648 0.0
H734 H 0.402 0.13987 0.98706 0.0
H735 H 0.46574 0.16714 0.94858 0.0
H736 H 0.40525 0.08344 1.00099 0.0
H737 H 0.42998 0.11072 0.01838 0.0
H738 H 0.39801 0.10986 0.01024 0.0
H739 H 0.49907 0.15285 0.9489 0.0
H740 H 0.50722 0.14389 0.97167 0.0
H741 H 0.48393 0.11687 0.95359 0.0
H742 H 0.50714 0.1018 0.02465 0.0
H743 H 0.44923 0.03705 0.98161 0.0
H744 H 0.47956 0.14603 0.02105 0.0
H745 H 0.50635 0.15734 0.00527 0.0
H746 H 0.51153 0.1461 0.02789 0.0
H747 H 0.40921 0.06683 0.96877 0.0
H748 H 0.41986 0.0429 0.95975 0.0
H749 H 0.43572 0.07783 0.95276 0.0
C750 C 0.70198 0.16432 0.97078 0.0
C751 C 0.717 0.15054 0.96795 0.0
C752 C 0.67695 0.15159 0.97954 0.0
C753 C 0.66672 0.12438 0.98524 0.0
C754 C 0.68265 0.11103 0.98306 0.0
C755 C 0.70765 0.12435 0.97446 0.0
C756 C 0.66079 0.16665 0.98185 0.0
C757 C 0.67249 0.08198 0.98875 0.0
C758 C 0.6078 0.09045 0.01712 0.0
C759 C 0.58483 0.07332 0.00363 0.0
C760 C 0.6344 0.10822 0.01135 0.0
C761 C 0.63818 0.10857 0.99166 0.0
C762 C 0.6149 0.09191 0.97799 0.0
C763 C 0.58855 0.07467 0.98413 0.0
C764 C 0.6586 0.12599 0.02634 0.0
C765 C 0.618 0.0914 0.95686 0.0
H766 H 0.70925 0.18453 0.96554 0.0
H767 H 0.7193 0.11369 0.97204 0.0
H768 H 0.64151 0.15633 0.9717 0.0
H769 H 0.65421 0.16565 0.99647 0.0
H770 H 0.67323 0.18888 0.9791 0.0
H771 H 0.68827 0.07537 0.98738 0.0
H772 H 0.66722 0.08081 0.00372 0.0
H773 H 0.6531 0.06692 0.97955 0.0
H774 H 0.60512 0.08972 0.03221 0.0
H775 H 0.57101 0.06154 0.97355 0.0
H776 H 0.66991 0.14791 0.02284 0.0
H777 H 0.67371 0.11838 0.02657 0.0
H778 H 0.6517 0.12557 0.04084 0.0
H779 H 0.62783 0.11285 0.95248 0.0
H780 H 0.59761 0.07832 0.94804 0.0
H781 H 0.63198 0.08305 0.95368 0.0
C782 C 0.86586 0.56523 0.96007 0.0
C783 C 0.83757 0.54466 0.95756 0.0
C784 C 0.88659 0.55818 0.96424 0.0
C785 C 0.87859 0.52997 0.96614 0.0
C786 C 0.85 0.50903 0.96261 0.0
C787 C 0.82979 0.51668 0.95838 0.0
C788 C 0.91684 0.58107 0.9677 0.0
C789 C 0.84055 0.47875 0.96452 0.0
C790 C 0.93284 0.50689 0.96866 0.0
C791 C 0.93799 0.50717 0.98846 0.0
C792 C 0.9139 0.51465 0.96115 0.0
C793 C 0.89959 0.52268 0.97371 0.0
C794 C 0.90478 0.5231 0.99368 0.0
C795 C 0.92395 0.51545 1.00081 0.0
C796 C 0.90908 0.51412 0.93979 0.0
C797 C 0.88981 0.53134 0.00757 0.0
H798 H 0.87168 0.58692 0.95961 0.0
H799 H 0.80776 0.5009 0.95662 0.0
H800 H 0.92416 0.58393 0.9831 0.0
H801 H 0.93018 0.57534 0.95971 0.0
H802 H 0.91991 0.60127 0.96344 0.0
H803 H 0.81803 0.46481 0.9595 0.0
H804 H 0.85303 0.47211 0.95627 0.0
H805 H 0.84403 0.47601 0.97971 0.0
H806 H 0.94368 0.50067 0.95899 0.0
H807 H 0.92771 0.5157 0.0161 0.0
H808 H 0.91336 0.53492 0.93606 0.0
H809 H 0.88685 0.49902 0.93473 0.0
H810 H 0.92251 0.50822 0.93199 0.0
H811 H 0.8939 0.55268 0.00562 0.0
H812 H 0.8964 0.53086 0.02268 0.0
H813 H 0.86687 0.517 0.00473 0.0
C814 C 0.44731 0.29936 0.97107 0.0
C815 C 0.41867 0.28028 0.97 0.0
C816 C 0.45712 0.32802 0.97145 0.0
C817 C 0.43766 0.33752 0.97075 0.0
C818 C 0.40855 0.318 0.96862 0.0
C819 C 0.39936 0.28943 0.96835 0.0
C820 C 0.48829 0.34815 0.9738 0.0
C821 C 0.3872 0.32735 0.96772 0.0
C822 C 0.46202 0.40787 0.99773 0.0
C823 C 0.46875 0.42539 0.98301 0.0
C824 C 0.45166 0.37925 0.99384 0.0
C825 C 0.44779 0.36775 0.97472 0.0
C826 C 0.45425 0.38518 0.95973 0.0
C827 C 0.46476 0.41389 0.96406 0.0
C828 C 0.44517 0.36137 0.01026 0.0
C829 C 0.45023 0.37353 0.93917 0.0
H830 H 0.46208 0.29196 0.97235 0.0
H831 H 0.37716 0.27437 0.96753 0.0
H832 H 0.49401 0.36376 0.9633 0.0
H833 H 0.49455 0.35971 0.98826 0.0
H834 H 0.50047 0.33737 0.97202 0.0
H835 H 0.36561 0.30964 0.96367 0.0
H836 H 0.38782 0.33751 0.9819 0.0
H837 H 0.39216 0.34298 0.95731 0.0
H838 H 0.46505 0.41653 0.01243 0.0
H839 H 0.46983 0.42729 0.9526 0.0
H840 H 0.45819 0.35134 0.01064 0.0
H841 H 0.42294 0.34446 0.00826 0.0
H842 H 0.44908 0.37355 0.02429 0.0
H843 H 0.46359 0.3641 0.93723 0.0
H844 H 0.45551 0.38974 0.92914 0.0
H845 H 0.4282 0.35671 0.93534 0.0
C846 C 0.14232 0.70035 0.0546 0.0
C847 C 0.16972 0.70542 0.05501 0.0
C848 C 0.1195 0.67292 0.0517 0.0
C849 C 0.12446 0.65033 0.04897 0.0
C850 C 0.15231 0.65552 0.05029 0.0
C851 C 0.17466 0.68311 0.05329 0.0
C852 C 0.09015 0.66824 0.05052 0.0
C853 C 0.15853 0.63208 0.04743 0.0
C854 C 0.06608 0.57529 0.05012 0.0
C855 C 0.05777 0.56647 0.03057 0.0
C856 C 0.0874 0.60269 0.0564 0.0
C857 C 0.1008 0.62164 0.04281 0.0
C858 C 0.0923 0.61294 0.02309 0.0
C859 C 0.07088 0.58554 0.01723 0.0
C860 C 0.09581 0.61127 0.07754 0.0
C861 C 0.10614 0.63247 0.00812 0.0
H862 H 0.1387 0.71783 0.0558 0.0
H863 H 0.19601 0.68729 0.05347 0.0
H864 H 0.08031 0.66109 0.03558 0.0
H865 H 0.07713 0.65167 0.0595 0.0
H866 H 0.08982 0.68752 0.05515 0.0
H867 H 0.18115 0.63936 0.05064 0.0
H868 H 0.14649 0.61545 0.05664 0.0
H869 H 0.15194 0.62261 0.03239 0.0
H870 H 0.05602 0.56076 0.06056 0.0
H871 H 0.06465 0.57899 1.0021 0.0
H872 H 0.09434 0.63003 0.08168 0.0
H873 H 0.11793 0.61693 0.08099 0.0
H874 H 0.08252 0.59444 0.08629 0.0
H875 H 0.10447 0.65146 0.01061 0.0
H876 H 0.09669 0.62264 0.99339 0.0
H877 H 0.12875 0.63926 0.00915 0.0
C878 C 0.30658 0.4279 0.05766 0.0
C879 C 0.29349 0.44386 0.05829 0.0
C880 C 0.33318 0.43851 0.05114 0.0
C881 C 0.3468 0.46565 0.04502 0.0
C882 C 0.33391 0.48217 0.04632 0.0
C883 C 0.30729 0.47099 0.0529 0.0
C884 C 0.34617 0.42025 0.05006 0.0
C885 C 0.3477 0.51119 0.04003 0.0
C886 C 0.42472 0.49942 0.03964 0.0
C887 C 0.42472 0.49365 0.01996 0.0
C888 C 0.39962 0.49083 0.04795 0.0
C889 C 0.37376 0.4761 0.03634 0.0
C890 C 0.3736 0.47072 0.01642 0.0
C891 C 0.39904 0.47956 0.00848 0.0
C892 C 0.40076 0.49709 0.06921 0.0
C893 C 0.34649 0.45512 0.00352 0.0
H894 H 0.29559 0.40675 0.06161 0.0
H895 H 0.29685 0.48311 0.05317 0.0
H896 H 0.34786 0.41523 0.03491 0.0
H897 H 0.36768 0.43146 0.05751 0.0
H898 H 0.33375 0.40041 0.05647 0.0
H899 H 0.33595 0.52206 0.04327 0.0
H900 H 0.36936 0.52388 0.04714 0.0
H901 H 0.34916 0.51005 0.02442 0.0
H902 H 0.44438 0.5104 0.04868 0.0
H903 H 0.39872 0.47495 0.99329 0.0
H904 H 0.38971 0.47731 0.07591 0.0
H905 H 0.38985 0.50888 0.07211 0.0
H906 H 0.42258 0.50936 0.07618 0.0
H907 H 0.33362 0.43383 0.00789 0.0
H908 H 0.34994 0.4533 0.98828 0.0
H909 H 0.33422 0.46584 0.0049 0.0
C910 C 0.56448 0.85987 0.05016 0.0
C911 C 0.59345 0.87162 0.05356 0.0
C912 C 0.5526 0.87685 0.04801 0.0
C913 C 0.5703 0.90618 0.04926 0.0
C914 C 0.59959 0.9181 0.05356 0.0
C915 C 0.61087 0.90056 0.0556 0.0
C916 C 0.52132 0.86335 0.04343 0.0
C917 C 0.6191 0.94925 0.05507 0.0
C918 C 0.54556 0.94675 0.02038 0.0
C919 C 0.53634 0.95833 0.0344 0.0
C920 C 0.55656 0.9297 0.02508 0.0
C921 C 0.55848 0.92412 0.04428 0.0
C922 C 0.54912 0.93561 0.05851 0.0
C923 C 0.53811 0.95257 0.05339 0.0
C924 C 0.5662 0.91772 0.00946 0.0
C925 C 0.55088 0.93011 0.07912 0.0
H926 H 0.55118 0.83735 0.04852 0.0
H927 H 0.63335 0.90943 0.05814 0.0
H928 H 0.51281 0.87312 0.05308 0.0
H929 H 0.51654 0.86663 0.02861 0.0
H930 H 0.51033 0.84057 0.04473 0.0
H931 H 0.64091 0.95529 0.06028 0.0
H932 H 0.61919 0.95683 0.04084 0.0
H933 H 0.61175 0.96002 0.06487 0.0
H934 H 0.54425 0.95101 0.00567 0.0
H935 H 0.53108 0.96146 0.06433 0.0
H936 H 0.55458 0.89461 0.00871 0.0
H937 H 0.58874 0.9248 0.01272 0.0
H938 H 0.56311 0.92393 0.99523 0.0
H939 H 0.53897 0.90735 0.08032 0.0
H940 H 0.54253 0.94046 0.08844 0.0
H941 H 0.57297 0.93768 0.08451 0.0
C942 C 0.99673 0.19839 0.40712 0.0
C943 C 0.97119 0.18775 0.3958 0.0
C944 C 0.022 0.21764 0.40041 0.0
C945 C 0.02159 0.22675 0.38209 0.0
C946 C 0.99576 0.21645 0.37078 0.0
C947 C 0.9709 0.19694 0.37772 0.0
C948 C 0.04915 0.22798 0.41283 0.0
C949 C 0.99437 0.22606 0.35134 0.0
C950 C 0.084 0.29574 0.37308 0.0
C951 C 0.09936 0.28707 0.36237 0.0
C952 C 0.05846 0.27634 0.37927 0.0
C953 C 0.04815 0.2475 0.37491 0.0
C954 C 0.06334 0.23856 0.36389 0.0
C955 C 0.0887 0.2585 0.35761 0.0
C956 C 0.04267 0.28675 0.39069 0.0
C957 C 0.05313 0.20796 0.35911 0.0
H958 H 0.997 0.19107 0.42101 0.0
H959 H 0.95111 0.18887 0.36902 0.0
H960 H 0.06332 0.22307 0.40516 0.0
H961 H 0.05992 0.25098 0.41595 0.0
H962 H 0.04592 0.21853 0.42658 0.0
H963 H 0.97257 0.21627 0.34444 0.0
H964 H 0.00368 0.24905 0.35264 0.0
H965 H 0.0068 0.22097 0.34186 0.0
H966 H 0.092 0.31781 0.37671 0.0
H967 H 0.10057 0.25168 0.34946 0.0
H968 H 0.041 0.27958 0.40516 0.0
H969 H 0.02105 0.27798 0.38374 0.0
H970 H 0.05298 0.30987 0.3922 0.0
H971 H 0.05161 0.19789 0.37248 0.0
H972 H 0.06719 0.20443 0.35024 0.0
H973 H 0.03185 0.19744 0.35133 0.0
C974 C 0.81694 0.76196 0.38988 0.0
C975 C 0.83382 0.77653 0.40691 0.0
C976 C 0.79652 0.76771 0.38225 0.0
C977 C 0.79295 0.78868 0.3918 0.0
C978 C 0.81016 0.80371 0.40889 0.0
C979 C 0.83028 0.79737 0.41628 0.0
C980 C 0.77847 0.75102 0.36411 0.0
C981 C 0.80723 0.82642 0.4194 0.0
C982 C 0.75625 0.81928 0.3629 0.0
C983 C 0.72908 0.80512 0.36853 0.0
C984 C 0.77729 0.81438 0.37051 0.0
C985 C 0.77102 0.79465 0.38398 0.0
C986 C 0.74365 0.78029 0.38973 0.0
C987 C 0.72307 0.78579 0.38202 0.0
C988 C 0.80626 0.83032 0.36413 0.0
C989 C 0.73604 0.75894 0.40394 0.0
H990 H 0.81922 0.74552 0.38272 0.0
H991 H 0.84339 0.80882 0.42937 0.0
H992 H 0.75614 0.73972 0.36684 0.0
H993 H 0.78058 0.76518 0.35305 0.0
H994 H 0.78405 0.73561 0.35832 0.0
H995 H 0.8226 0.83657 0.43226 0.0
H996 H 0.81015 0.84258 0.40978 0.0
H997 H 0.78583 0.81762 0.42388 0.0
H998 H 0.76122 0.8344 0.35259 0.0
H999 H 0.70218 0.77472 0.38647 0.0
H1000 H 0.81188 0.81559 0.35724 0.0
H1001 H 0.82187 0.84186 0.37668 0.0
H1002 H 0.80793 0.84542 0.3539 0.0
H1003 H 0.73957 0.74196 0.3984 0.0
H1004 H 0.71387 0.74963 0.40698 0.0
H1005 H 0.74971 0.7687 0.41755 0.0
C1006 C 0.25681 0.05951 0.37111 0.0
C1007 C 0.24546 0.06521 0.38683 0.0
C1008 C 0.24606 0.03211 0.36283 0.0
C1009 C 0.22346 0.00989 0.37048 0.0
C1010 C 0.21166 0.01553 0.38618 0.0
C1011 C 0.22283 0.04315 0.39418 0.0
C1012 C 0.25931 0.02687 0.34617 0.0
C1013 C 0.18753 0.99236 0.39471 0.0
C1014 C 0.18215 0.93969 0.34062 0.0
C1015 C 0.19425 0.92498 0.34836 0.0
C1016 C 0.19142 0.96741 0.34766 0.0
C1017 C 0.21326 0.98062 0.36277 0.0
C1018 C 0.22555 0.96589 0.37061 0.0
C1019 C 0.21592 0.9383 0.36332 0.0
C1020 C 0.17785 0.98254 0.33898 0.0
C1021 C 0.24889 0.97926 0.38674 0.0
H1022 H 0.27451 0.07646 0.36551 0.0
H1023 H 0.21374 0.0475 0.40615 0.0
H1024 H 0.26886 0.01424 0.3503 0.0
H1025 H 0.24315 0.01475 0.334 0.0
H1026 H 0.27576 0.04655 0.34129 0.0
H1027 H 0.17996 0.00037 0.40635 0.0
H1028 H 0.16986 0.97983 0.3835 0.0
H1029 H 0.19406 0.97811 0.40054 0.0
H1030 H 0.16539 0.92957 0.32909 0.0
H1031 H 0.22541 0.92716 0.36947 0.0
H1032 H 0.19383 0.00156 0.33318 0.0
H1033 H 0.16865 0.98939 0.35013 0.0
H1034 H 0.16112 0.96933 0.32731 0.0
H1035 H 0.26692 0.99821 0.38234 0.0
H1036 H 0.25624 0.96493 0.39122 0.0
H1037 H 0.24171 0.98594 0.39929 0.0
C1038 C 0.50275 0.62641 0.27826 0.0
C1039 C 0.50094 0.60296 0.28603 0.0
C1040 C 0.52162 0.65348 0.28678 0.0
C1041 C 0.53922 0.65719 0.30345 0.0
C1042 C 0.53656 0.63356 0.31187 0.0
C1043 C 0.51739 0.6067 0.30307 0.0
C1044 C 0.52356 0.67811 0.27749 0.0
C1045 C 0.55495 0.63664 0.32962 0.0
C1046 C 0.60916 0.72486 0.31175 0.0
C1047 C 0.60404 0.7403 0.32573 0.0
C1048 C 0.58831 0.69773 0.30452 0.0
C1049 C 0.56159 0.68576 0.31133 0.0
C1050 C 0.55626 0.70119 0.32544 0.0
C1051 C 0.57754 0.72823 0.33249 0.0
C1052 C 0.59485 0.68191 0.28951 0.0
C1053 C 0.52801 0.6892 0.33298 0.0
H1054 H 0.48986 0.62358 0.26518 0.0
H1055 H 0.51632 0.58867 0.30902 0.0
H1056 H 0.52202 0.69264 0.28814 0.0
H1057 H 0.54421 0.6898 0.27188 0.0
H1058 H 0.5069 0.67168 0.26551 0.0
H1059 H 0.54875 0.6163 0.33524 0.0
H1060 H 0.57701 0.64615 0.32636 0.0
H1061 H 0.55411 0.6508 0.34097 0.0
H1062 H 0.62953 0.73393 0.30643 0.0
H1063 H 0.5733 0.73998 0.34326 0.0
H1064 H 0.58055 0.67663 0.27627 0.0
H1065 H 0.59136 0.66198 0.29455 0.0
H1066 H 0.61677 0.694 0.28593 0.0
H1067 H 0.51161 0.68413 0.32111 0.0
H1068 H 0.5273 0.70379 0.34408 0.0
H1069 H 0.52271 0.66946 0.33918 0.0
C1070 C 0.35029 0.8712 0.26654 0.0
C1071 C 0.37477 0.88916 0.27853 0.0
C1072 C 0.32383 0.86421 0.27214 0.0
C1073 C 0.32189 0.87583 0.29001 0.0
C1074 C 0.34663 0.89449 0.30195 0.0
C1075 C 0.37274 0.90076 0.29612 0.0
C1076 C 0.29793 0.844 0.25911 0.0
C1077 C 0.34553 0.90774 0.32094 0.0
C1078 C 0.25574 0.87799 0.29817 0.0
C1079 C 0.24241 0.85622 0.30973 0.0
C1080 C 0.28148 0.88445 0.29154 0.0
C1081 C 0.29405 0.8685 0.29633 0.0
C1082 C 0.28045 0.84616 0.30768 0.0
C1083 C 0.2549 0.84041 0.31437 0.0
C1084 C 0.29547 0.90868 0.27969 0.0
C1085 C 0.293 0.82843 0.31288 0.0
H1086 H 0.35184 0.86204 0.253 0.0
H1087 H 0.39168 0.91487 0.30533 0.0
H1088 H 0.28467 0.82547 0.26655 0.0
H1089 H 0.2853 0.85385 0.25547 0.0
H1090 H 0.30301 0.83692 0.24565 0.0
H1091 H 0.36671 0.92242 0.32828 0.0
H1092 H 0.33412 0.91926 0.31886 0.0
H1093 H 0.33387 0.89136 0.33042 0.0
H1094 H 0.24631 0.89038 0.29454 0.0
H1095 H 0.24464 0.82343 0.32317 0.0
H1096 H 0.2993 0.90155 0.26577 0.0
H1097 H 0.31614 0.92457 0.28712 0.0
H1098 H 0.28275 0.91874 0.27697 0.0
H1099 H 0.29701 0.81955 0.29975 0.0
H1100 H 0.2792 0.81105 0.32107 0.0
H1101 H 0.31344 0.84149 0.32158 0.0
C1102 C 0.08434 0.4573 0.29877 0.0
C1103 C 0.10049 0.48625 0.2988 0.0
C1104 C 0.09571 0.44222 0.30695 0.0
C1105 C 0.12408 0.45646 0.31485 0.0
C1106 C 0.14049 0.48574 0.31476 0.0
C1107 C 0.12835 0.50036 0.30692 0.0
C1108 C 0.07741 0.41107 0.3071 0.0
C1109 C 0.17098 0.50152 0.32256 0.0
C1110 C 0.14776 0.41932 0.34844 0.0
C1111 C 0.15736 0.40657 0.33566 0.0
C1112 C 0.13708 0.43597 0.34192 0.0
C1113 C 0.13685 0.44045 0.32234 0.0
C1114 C 0.14786 0.42866 0.30963 0.0
C1115 C 0.15759 0.41151 0.3164 0.0
C1116 C 0.12496 0.44774 0.35579 0.0
C1117 C 0.14876 0.43358 0.28877 0.0
H1118 H 0.0627 0.44658 0.29259 0.0
H1119 H 0.14074 0.52281 0.30684 0.0
H1120 H 0.08563 0.40014 0.29827 0.0
H1121 H 0.07777 0.40524 0.32186 0.0
H1122 H 0.05536 0.40348 0.3015 0.0
H1123 H 0.18072 0.52432 0.32162 0.0
H1124 H 0.17328 0.49794 0.3377 0.0
H1125 H 0.18273 0.49372 0.3145 0.0
H1126 H 0.14739 0.41522 0.3633 0.0
H1127 H 0.16527 0.40176 0.30658 0.0
H1128 H 0.10227 0.43869 0.35147 0.0
H1129 H 0.13495 0.47064 0.3555 0.0
H1130 H 0.12771 0.44324 0.37066 0.0
H1131 H 0.12715 0.4239 0.28162 0.0
H1132 H 0.16004 0.42475 0.28117 0.0
H1133 H 0.15917 0.45627 0.28728 0.0
C1134 C 0.37967 0.4543 0.30613 0.0
C1135 C 0.39384 0.48289 0.30433 0.0
C1136 C 0.35403 0.44154 0.31398 0.0
C1137 C 0.34237 0.45789 0.32021 0.0
C1138 C 0.35716 0.48708 0.31891 0.0
C1139 C 0.38281 0.49928 0.31086 0.0
C1140 C 0.33894 0.41037 0.31496 0.0
C1141 C 0.34551 0.50519 0.3255 0.0
C1142 C 0.26332 0.41648 0.31891 0.0
C1143 C 0.25963 0.40978 0.33782 0.0
C1144 C 0.29008 0.43327 0.31323 0.0
C1145 C 0.31385 0.44384 0.32678 0.0
C1146 C 0.31024 0.43842 0.3461 0.0
C1147 C 0.28316 0.4214 0.35139 0.0
C1148 C 0.29293 0.43845 0.29247 0.0
C1149 C 0.33505 0.44951 0.36099 0.0
H1150 H 0.38835 0.44174 0.30095 0.0
H1151 H 0.39392 0.52145 0.30934 0.0
H1152 H 0.33394 0.40553 0.32975 0.0
H1153 H 0.31883 0.40037 0.30568 0.0
H1154 H 0.35146 0.40091 0.31034 0.0
H1155 H 0.36064 0.52773 0.3251 0.0
H1156 H 0.32617 0.4996 0.31622 0.0
H1157 H 0.33969 0.50154 0.34028 0.0
H1158 H 0.24534 0.40787 0.30829 0.0
H1159 H 0.28057 0.41651 0.36605 0.0
H1160 H 0.30338 0.42781 0.28605 0.0
H1161 H 0.30622 0.46106 0.29115 0.0
H1162 H 0.27235 0.43069 0.28406 0.0
H1163 H 0.34698 0.43872 0.35823 0.0
H1164 H 0.32865 0.44634 0.37569 0.0
H1165 H 0.34942 0.4721 0.36019 0.0
C1166 C 0.53539 0.90142 0.29523 0.0
C1167 C 0.50706 0.88094 0.2929 0.0
C1168 C 0.55605 0.89439 0.29975 0.0
C1169 C 0.54797 0.86629 0.30218 0.0
C1170 C 0.51932 0.84542 0.29893 0.0
C1171 C 0.49918 0.85305 0.29435 0.0
C1172 C 0.58636 0.91721 0.30291 0.0
C1173 C 0.50978 0.81526 0.3014 0.0
C1174 C 0.60212 0.84305 0.30451 0.0
C1175 C 0.60787 0.84393 0.32431 0.0
C1176 C 0.58295 0.85058 0.29707 0.0
C1177 C 0.56905 0.85904 0.3097 0.0
C1178 C 0.5748 0.86003 0.32968 0.0
C1179 C 0.59417 0.85255 0.33673 0.0
C1180 C 0.5775 0.84939 0.2757 0.0
C1181 C 0.56031 0.86878 0.34365 0.0
H1182 H 0.5413 0.92306 0.29432 0.0
H1183 H 0.47713 0.83734 0.29276 0.0
H1184 H 0.59396 0.92032 0.31827 0.0
H1185 H 0.59947 0.91121 0.29486 0.0
H1186 H 0.58944 0.93734 0.29849 0.0
H1187 H 0.48714 0.80131 0.29674 0.0
H1188 H 0.52189 0.80814 0.29314 0.0
H1189 H 0.5137 0.81311 0.31666 0.0
H1190 H 0.61266 0.83655 0.29476 0.0
H1191 H 0.5984 0.85329 0.35202 0.0
H1192 H 0.58184 0.8701 0.27171 0.0
H1193 H 0.55513 0.83436 0.271 0.0
H1194 H 0.59053 0.84305 0.26782 0.0
H1195 H 0.56444 0.89006 0.34146 0.0
H1196 H 0.56728 0.86867 0.35874 0.0
H1197 H 0.53733 0.85451 0.34111 0.0
C1198 C 0.11617 0.63114 0.29986 0.0
C1199 C 0.08768 0.61164 0.29916 0.0
C1200 C 0.12539 0.65965 0.29995 0.0
C1201 C 0.10548 0.66859 0.29938 0.0
C1202 C 0.0765 0.64861 0.29737 0.0
C1203 C 0.06791 0.6202 0.2974 0.0
C1204 C 0.15645 0.68026 0.30217 0.0
C1205 C 0.05467 0.65732 0.29658 0.0
C1206 C 0.12845 0.73767 0.32772 0.0
C1207 C 0.13499 0.75586 0.31342 0.0
C1208 C 0.1186 0.70926 0.32323 0.0
C1209 C 0.11502 0.69861 0.30391 0.0
C1210 C 0.12126 0.7167 0.28933 0.0
C1211 C 0.13129 0.74522 0.29427 0.0
C1212 C 0.11236 0.69069 0.33924 0.0
C1213 C 0.11751 0.70596 0.26859 0.0
H1214 H 0.13132 0.62421 0.30126 0.0
H1215 H 0.04583 0.60485 0.29689 0.0
H1216 H 0.16169 0.69623 0.29198 0.0
H1217 H 0.16278 0.69129 0.31679 0.0
H1218 H 0.16894 0.66992 0.29985 0.0
H1219 H 0.03333 0.63939 0.29213 0.0
H1220 H 0.05467 0.66667 0.31092 0.0
H1221 H 0.05955 0.67342 0.28654 0.0
H1222 H 0.13126 0.74565 0.34257 0.0
H1223 H 0.13622 0.75914 0.28313 0.0
H1224 H 0.12574 0.68105 0.33926 0.0
H1225 H 0.09026 0.67351 0.33705 0.0
H1226 H 0.11602 0.70225 0.35349 0.0
H1227 H 0.13131 0.69713 0.26628 0.0
H1228 H 0.12243 0.72256 0.25893 0.0
H1229 H 0.09565 0.68887 0.26457 0.0
C1230 C 0.84547 0.02104 0.38721 0.0
C1231 C 0.84099 0.04364 0.38901 0.0
C1232 C 0.82285 0.9936 0.38508 0.0
C1233 C 0.7952 0.98887 0.38471 0.0
C1234 C 0.79081 0.01179 0.3877 0.0
C1235 C 0.81388 0.03907 0.38971 0.0
C1236 C 0.82846 0.9698 0.38188 0.0
C1237 C 0.7617 0.0076 0.38757 0.0
C1238 C 0.74026 0.92458 0.35335 0.0
C1239 C 0.72776 0.90535 0.36671 0.0
C1240 C 0.76182 0.95191 0.35912 0.0
C1241 C 0.7711 0.96039 0.37877 0.0
C1242 C 0.75821 0.94134 0.39241 0.0
C1243 C 0.73673 0.91397 0.38621 0.0
C1244 C 0.77509 0.97155 0.34409 0.0
C1245 C 0.76743 0.94973 0.41349 0.0
H1246 H 0.86659 0.02485 0.38656 0.0
H1247 H 0.81063 0.05677 0.391 0.0
H1248 H 0.81665 0.95331 0.39126 0.0
H1249 H 0.8212 0.96026 0.36689 0.0
H1250 H 0.85107 0.97675 0.38463 0.0
H1251 H 0.76199 0.02703 0.3927 0.0
H1252 H 0.75107 0.00078 0.37281 0.0
H1253 H 0.74904 0.99098 0.39663 0.0
H1254 H 0.73351 0.91819 0.33825 0.0
H1255 H 0.72713 0.8993 0.39665 0.0
H1256 H 0.7976 0.97805 0.34454 0.0
H1257 H 0.7738 0.99068 0.34701 0.0
H1258 H 0.76495 0.96191 0.32945 0.0
H1259 H 0.78944 0.95475 0.41648 0.0
H1260 H 0.75418 0.93301 0.42233 0.0
H1261 H 0.76672 0.96882 0.41796 0.0
C1262 C 0.97232 0.80195 0.38464 0.0
C1263 C 0.95945 0.77512 0.39057 0.0
C1264 C 0.99868 0.81343 0.37759 0.0
C1265 C 0.01222 0.7975 0.37635 0.0
C1266 C 0.99936 0.77054 0.38276 0.0
C1267 C 0.97309 0.75969 0.38979 0.0
C1268 C 0.01171 0.84226 0.37103 0.0
C1269 C 0.01298 0.75283 0.38169 0.0
C1270 C 0.06501 0.81133 0.34021 0.0
C1271 C 0.09056 0.82531 0.35186 0.0
C1272 C 0.03945 0.8028 0.34792 0.0
C1273 C 0.03934 0.80846 0.36776 0.0
C1274 C 0.06509 0.8233 0.3795 0.0
C1275 C 0.09032 0.83148 0.37144 0.0
C1276 C 0.01248 0.78697 0.33489 0.0
C1277 C 0.06596 0.82993 0.40068 0.0
H1278 H 0.9615 0.81371 0.38513 0.0
H1279 H 0.96287 0.7388 0.39425 0.0
H1280 H 0.03322 0.85557 0.37826 0.0
H1281 H 0.01346 0.841 0.35546 0.0
H1282 H 0.9993 0.85253 0.37394 0.0
H1283 H 1.00072 0.73274 0.38785 0.0
H1284 H 0.01523 0.74831 0.36658 0.0
H1285 H 0.0343 0.76429 0.38943 0.0
H1286 H 0.06488 0.80642 0.32509 0.0
H1287 H 0.10988 0.84236 0.38061 0.0
H1288 H 0.99986 0.79732 0.33624 0.0
H1289 H 0.99987 0.76559 0.33915 0.0
H1290 H 0.01616 0.7854 0.31967 0.0
H1291 H 0.0542 0.84094 0.40331 0.0
H1292 H 0.0877 0.84307 0.40764 0.0
H1293 H 0.05566 0.81029 0.40761 0.0
C1294 C 0.23228 0.19123 0.37892 0.0
C1295 C 0.26107 0.20232 0.38299 0.0
C1296 C 0.2211 0.20882 0.37691 0.0
C1297 C 0.23932 0.23809 0.37901 0.0
C1298 C 0.26839 0.2493 0.38396 0.0
C1299 C 0.27898 0.23116 0.38583 0.0
C1300 C 0.19004 0.19607 0.37159 0.0
C1301 C 0.28843 0.28039 0.3864 0.0
C1302 C 0.21723 0.28111 0.35071 0.0
C1303 C 0.20735 0.29203 0.36469 0.0
C1304 C 0.22765 0.26354 0.35524 0.0
C1305 C 0.22835 0.25679 0.37424 0.0
C1306 C 0.2184 0.26768 0.38845 0.0
C1307 C 0.20794 0.28514 0.38349 0.0
C1308 C 0.23791 0.25219 0.33965 0.0
C1309 C 0.21892 0.26098 0.40886 0.0
H1310 H 0.2186 0.16877 0.37668 0.0
H1311 H 0.30131 0.23951 0.38891 0.0
H1312 H 0.18129 0.20552 0.38129 0.0
H1313 H 0.18625 0.20044 0.35689 0.0
H1314 H 0.1785 0.17312 0.37218 0.0
H1315 H 0.30987 0.28574 0.39205 0.0
H1316 H 0.28954 0.28888 0.37241 0.0
H1317 H 0.28086 0.2909 0.39623 0.0
H1318 H 0.2168 0.28625 0.33614 0.0
H1319 H 0.20045 0.29358 0.3944 0.0
H1320 H 0.22589 0.22905 0.33823 0.0
H1321 H 0.26022 0.25876 0.34341 0.0
H1322 H 0.23584 0.25939 0.32558 0.0
H1323 H 0.20636 0.23811 0.40946 0.0
H1324 H 0.21056 0.27126 0.41823 0.0
H1325 H 0.24068 0.26775 0.41464 0.0
C1326 C 0.64578 0.55509 0.7361 0.0
C1327 C 0.637 0.52659 0.73371 0.0
C1328 C 0.67135 0.57502 0.73008 0.0
C1329 C 0.68861 0.56622 0.72163 0.0
C1330 C 0.68004 0.53751 0.71951 0.0
C1331 C 0.65437 0.51809 0.72555 0.0
C1332 C 0.67976 0.60545 0.73254 0.0
C1333 C 0.69797 0.52727 0.71082 0.0
C1334 C 0.74354 0.61278 0.69016 0.0
C1335 C 0.76808 0.62459 0.70277 0.0
C1336 C 0.71743 0.59408 0.69617 0.0
C1337 C 0.71587 0.58696 0.71523 0.0
C1338 C 0.74055 0.59892 0.72803 0.0
C1339 C 0.76628 0.61754 0.72167 0.0
C1340 C 0.69153 0.58182 0.68213 0.0
C1341 C 0.73987 0.59183 0.74843 0.0
H1342 H 0.63232 0.56173 0.74226 0.0
H1343 H 0.64785 0.4961 0.7239 0.0
H1344 H 0.70021 0.61763 0.74137 0.0
H1345 H 0.68243 0.6138 0.71842 0.0
H1346 H 0.66406 0.6089 0.73941 0.0
H1347 H 0.68831 0.50425 0.71024 0.0
H1348 H 0.70151 0.53343 0.69611 0.0
H1349 H 0.71877 0.53711 0.71924 0.0
H1350 H 0.74467 0.6182 0.67559 0.0
H1351 H 0.78505 0.62658 0.73161 0.0
H1352 H 0.67585 0.58636 0.68786 0.0
H1353 H 0.68184 0.5588 0.68003 0.0
H1354 H 0.69613 0.59011 0.66802 0.0
H1355 H 0.7251 0.59631 0.75568 0.0
H1356 H 0.76079 0.60371 0.75678 0.0
H1357 H 0.73219 0.56922 0.74864 0.0
C1358 C 0.48193 0.09692 0.73723 0.0
C1359 C 0.51001 0.11841 0.74031 0.0
C1360 C 0.46122 0.10114 0.72815 0.0
C1361 C 0.46869 0.1275 0.7219 0.0
C1362 C 0.49719 0.14891 0.72416 0.0
C1363 C 0.5175 0.14411 0.73332 0.0
C1364 C 0.43117 0.07766 0.72592 0.0
C1365 C 0.50607 0.17729 0.71765 0.0
C1366 C 0.41595 0.13254 0.68732 0.0
C1367 C 0.40307 0.14236 0.69968 0.0
C1368 C 0.4375 0.12788 0.69428 0.0
C1369 C 0.44643 0.1331 0.71409 0.0
C1370 C 0.4336 0.1431 0.72662 0.0
C1371 C 0.41215 0.1476 0.71928 0.0
C1372 C 0.45061 0.11721 0.68045 0.0
C1373 C 0.44241 0.1489 0.74785 0.0
H1374 H 0.47601 0.07688 0.74234 0.0
H1375 H 0.53908 0.16091 0.73577 0.0
H1376 H 0.41857 0.0835 0.73471 0.0
H1377 H 0.42211 0.07392 0.71085 0.0
H1378 H 0.42906 0.0579 0.73038 0.0
H1379 H 0.52919 0.1909 0.71899 0.0
H1380 H 0.49777 0.1752 0.70256 0.0
H1381 H 0.4972 0.1877 0.72635 0.0
H1382 H 0.40922 0.12847 0.67214 0.0
H1383 H 0.40245 0.15522 0.729 0.0
H1384 H 0.4474 0.09676 0.68417 0.0
H1385 H 0.47352 0.13178 0.68149 0.0
H1386 H 0.44171 0.1147 0.66543 0.0
H1387 H 0.43898 0.1295 0.75379 0.0
H1388 H 0.43068 0.15702 0.75564 0.0
H1389 H 0.4651 0.16435 0.75061 0.0
C1390 C 0.89048 0.38164 0.72487 0.0
C1391 C 0.91373 0.40421 0.71843 0.0
C1392 C 0.87971 0.3544 0.71626 0.0
C1393 C 0.89251 0.34964 0.70084 0.0
C1394 C 0.91569 0.37237 0.69405 0.0
C1395 C 0.92605 0.39939 0.70295 0.0
C1396 C 0.85496 0.33066 0.72389 0.0
C1397 C 0.92995 0.36807 0.67769 0.0
C1398 C 0.88479 0.27805 0.69285 0.0
C1399 C 0.86361 0.26528 0.67755 0.0
C1400 C 0.89444 0.30551 0.70044 0.0
C1401 C 0.88269 0.32069 0.69256 0.0
C1402 C 0.86151 0.30811 0.67701 0.0
C1403 C 0.85219 0.2805 0.66968 0.0
C1404 C 0.91706 0.3182 0.71706 0.0
C1405 C 0.84857 0.32375 0.66824 0.0
H1406 H 0.88062 0.38532 0.73664 0.0
H1407 H 0.94421 0.4167 0.69805 0.0
H1408 H 0.8379 0.31867 0.7122 0.0
H1409 H 0.86114 0.31609 0.72961 0.0
H1410 H 0.84668 0.33803 0.73543 0.0
H1411 H 0.94669 0.38809 0.67342 0.0
H1412 H 0.93936 0.35532 0.68182 0.0
H1413 H 0.91443 0.35643 0.66511 0.0
H1414 H 0.89377 0.26651 0.69908 0.0
H1415 H 0.83581 0.27081 0.65788 0.0
H1416 H 0.9092 0.32419 0.72952 0.0
H1417 H 0.93534 0.33747 0.71327 0.0
H1418 H 0.92422 0.30367 0.72139 0.0
H1419 H 0.83846 0.32984 0.67915 0.0
H1420 H 0.83266 0.31117 0.656 0.0
H1421 H 0.86505 0.34325 0.66323 0.0
C1422 C 0.19686 0.94848 0.62004 0.0
C1423 C 0.16873 0.94149 0.61733 0.0
C1424 C 0.21736 0.97422 0.62956 0.0
C1425 C 0.20956 0.9935 0.63654 0.0
C1426 C 0.18095 0.98591 0.63484 0.0
C1427 C 0.16081 0.95991 0.62527 0.0
C1428 C 0.24757 0.98134 0.63121 0.0
C1429 C 0.1718 0.00587 0.64216 0.0
C1430 C 0.26347 0.05604 0.67024 0.0
C1431 C 0.27552 0.07662 0.65764 0.0
C1432 C 0.24166 0.029 0.66368 0.0
C1433 C 0.23165 0.02237 0.64405 0.0
C1434 C 0.24352 0.04311 0.6313 0.0
C1435 C 0.26529 0.06993 0.63823 0.0
C1436 C 0.22956 0.00743 0.67769 0.0
C1437 C 0.23345 0.03688 0.61025 0.0
H1438 H 0.20297 0.9341 0.6141 0.0
H1439 H 0.13912 0.95464 0.6231 0.0
H1440 H 0.25953 0.99829 0.62218 0.0
H1441 H 0.25721 0.98908 0.64615 0.0
H1442 H 0.24983 0.96315 0.62663 0.0
H1443 H 0.14866 0.99576 0.64163 0.0
H1444 H 0.18104 0.01445 0.65709 0.0
H1445 H 0.17945 0.0237 0.63337 0.0
H1446 H 0.27114 0.06099 0.68527 0.0
H1447 H 0.27434 0.08565 0.62837 0.0
H1448 H 0.23315 0.98992 0.67377 0.0
H1449 H 0.2066 0.99863 0.67709 0.0
H1450 H 0.23895 0.01617 0.69259 0.0
H1451 H 0.23695 0.02028 0.60389 0.0
H1452 H 0.24432 0.05552 0.60233 0.0
H1453 H 0.21062 0.02901 0.60818 0.0
C1454 C 0.01464 0.20173 0.59669 0.0
C1455 C 0.03939 0.21742 0.60895 0.0
C1456 C 0.98869 0.19648 0.60244 0.0
C1457 C 0.98758 0.20764 0.62075 0.0
C1458 C 0.01267 0.22409 0.63297 0.0
C1459 C 0.03819 0.22856 0.62699 0.0
C1460 C 0.96241 0.17855 0.58908 0.0
C1461 C 0.01255 0.23692 0.65241 0.0
C1462 C 0.92441 0.2151 0.62976 0.0
C1463 C 0.90937 0.19282 0.64061 0.0
C1464 C 0.94979 0.22011 0.62318 0.0
C1465 C 0.96024 0.20211 0.62722 0.0
C1466 C 0.94494 0.17931 0.63791 0.0
C1467 C 0.91984 0.1751 0.64463 0.0
C1468 C 0.96566 0.24495 0.61216 0.0
C1469 C 0.95511 0.15936 0.64224 0.0
H1470 H 0.01549 0.1929 0.5828 0.0
H1471 H 0.05734 0.24091 0.63643 0.0
H1472 H 0.94786 0.15993 0.59597 0.0
H1473 H 0.95147 0.19026 0.58602 0.0
H1474 H 0.96682 0.17148 0.57533 0.0
H1475 H 0.03396 0.24997 0.6599 0.0
H1476 H 1.00277 0.25005 0.65099 0.0
H1477 H 0.99982 0.22026 0.66142 0.0
H1478 H 0.91655 0.22898 0.62663 0.0
H1479 H 0.90825 0.1577 0.65285 0.0
H1480 H 0.96871 0.238 0.5979 0.0
H1481 H 0.98674 0.25911 0.61978 0.0
H1482 H 0.95469 0.25692 0.61019 0.0
H1483 H 0.95827 0.15042 0.62878 0.0
H1484 H 0.94023 0.142 0.65 0.0
H1485 H 0.97564 0.17068 0.65105 0.0
C1486 C 0.74809 0.79209 0.63091 0.0
C1487 C 0.76243 0.82107 0.63548 0.0
C1488 C 0.75829 0.7757 0.63855 0.0
C1489 C 0.78355 0.78868 0.65087 0.0
C1490 C 0.79797 0.81791 0.65564 0.0
C1491 C 0.78718 0.83374 0.64793 0.0
C1492 C 0.74224 0.74454 0.63326 0.0
C1493 C 0.82516 0.83255 0.66852 0.0
C1494 C 0.80088 0.7447 0.68215 0.0
C1495 C 0.8186 0.73982 0.6712 0.0
C1496 C 0.7892 0.76052 0.6757 0.0
C1497 C 0.79567 0.77192 0.658 0.0
C1498 C 0.8139 0.76743 0.64706 0.0
C1499 C 0.82504 0.75136 0.65375 0.0
C1500 C 0.76967 0.76474 0.68767 0.0
C1501 C 0.82156 0.7795 0.62822 0.0
H1502 H 0.72881 0.78225 0.62143 0.0
H1503 H 0.79849 0.85619 0.65131 0.0
H1504 H 0.75519 0.73818 0.62533 0.0
H1505 H 0.73754 0.73353 0.64636 0.0
H1506 H 0.72227 0.73754 0.62427 0.0
H1507 H 0.83323 0.85529 0.67138 0.0
H1508 H 0.82229 0.82339 0.68234 0.0
H1509 H 0.84122 0.82955 0.66184 0.0
H1510 H 0.79569 0.7357 0.69558 0.0
H1511 H 0.83881 0.7478 0.64522 0.0
H1512 H 0.74891 0.75617 0.67937 0.0
H1513 H 0.77791 0.78734 0.69136 0.0
H1514 H 0.76679 0.75452 0.70109 0.0
H1515 H 0.80243 0.77144 0.6181 0.0
H1516 H 0.83633 0.77436 0.62158 0.0
H1517 H 0.83129 0.80253 0.63032 0.0
C1518 C 0.04878 0.82815 0.64585 0.0
C1519 C 0.04551 0.8438 0.63216 0.0
C1520 C 0.02694 0.81244 0.65692 0.0
C1521 C 1.00127 0.81219 0.65388 0.0
C1522 C 0.99891 0.82988 0.64111 0.0
C1523 C 0.02114 0.84547 0.63035 0.0
C1524 C 0.03047 0.79418 0.67054 0.0
C1525 C 0.97197 0.83025 0.63738 0.0
C1526 C 0.93451 0.74358 0.65645 0.0
C1527 C 0.9253 0.74835 0.67361 0.0
C1528 C 0.95932 0.76407 0.65011 0.0
C1529 C 0.97564 0.79009 0.66124 0.0
C1530 C 0.96686 0.79496 0.67878 0.0
C1531 C 0.9417 0.77406 0.68474 0.0
C1532 C 0.96779 0.75798 0.63125 0.0
C1533 C 0.98382 0.82235 0.69109 0.0
H1534 H 0.06762 0.82669 0.64702 0.0
H1535 H 0.01862 0.85738 0.61952 0.0
H1536 H 0.02152 0.79492 0.68406 0.0
H1537 H 0.01902 0.77223 0.66402 0.0
H1538 H 0.05283 0.80047 0.67387 0.0
H1539 H 0.97487 0.84803 0.62942 0.0
H1540 H 0.95618 0.81058 0.62882 0.0
H1541 H 0.96339 0.83148 0.65097 0.0
H1542 H 0.92206 0.72387 0.64768 0.0
H1543 H 0.93482 0.77794 0.69804 0.0
H1544 H 0.98894 0.76043 0.63336 0.0
H1545 H 0.96883 0.7731 0.62125 0.0
H1546 H 0.95295 0.73657 0.62445 0.0
H1547 H 0.00571 0.82704 0.69417 0.0
H1548 H 0.97501 0.8223 0.70483 0.0
H1549 H 0.98457 0.83948 0.68333 0.0
C1550 C 0.19632 0.22828 0.63634 0.0
C1551 C 0.17284 0.20836 0.62436 0.0
C1552 C 0.21836 0.22353 0.64167 0.0
C1553 C 0.21668 0.19816 0.6349 0.0
C1554 C 0.19346 0.17856 0.62205 0.0
C1555 C 0.17169 0.18386 0.617 0.0
C1556 C 0.2427 0.24499 0.65536 0.0
C1557 C 0.19089 0.15135 0.61442 0.0
C1558 C 0.2825 0.1924 0.64054 0.0
C1559 C 0.27879 0.1785 0.65709 0.0
C1560 C 0.26245 0.1988 0.63308 0.0
C1561 C 0.2381 0.19125 0.6424 0.0
C1562 C 0.23422 0.17723 0.65909 0.0
C1563 C 0.25454 0.17099 0.6662 0.0
C1564 C 0.26732 0.21364 0.61522 0.0
C1565 C 0.2086 0.16886 0.66952 0.0
H1566 H 0.19688 0.24704 0.64223 0.0
H1567 H 0.15324 0.16832 0.60794 0.0
H1568 H 0.24241 0.23637 0.66921 0.0
H1569 H 0.2628 0.25007 0.64973 0.0
H1570 H 0.24205 0.26456 0.658 0.0
H1571 H 0.17298 0.13959 0.60322 0.0
H1572 H 0.21038 0.15517 0.60838 0.0
H1573 H 0.1879 0.13813 0.62627 0.0
H1574 H 0.30107 0.19823 0.6333 0.0
H1575 H 0.25141 0.16027 0.67897 0.0
H1576 H 0.26799 0.23379 0.61824 0.0
H1577 H 0.24972 0.20095 0.60399 0.0
H1578 H 0.28715 0.21778 0.60952 0.0
H1579 H 0.20737 0.18761 0.67417 0.0
H1580 H 0.20866 0.15803 0.68226 0.0
H1581 H 0.18943 0.15484 0.65979 0.0
C1582 C 0.78505 0.97218 0.63697 0.0
C1583 C 0.75678 0.95171 0.63402 0.0
C1584 C 0.79338 0.0004 0.63634 0.0
C1585 C 0.7728 0.00807 0.63269 0.0
C1586 C 0.74429 0.98712 0.62851 0.0
C1587 C 0.73656 0.95902 0.62933 0.0
C1588 C 0.82396 0.02206 0.64095 0.0
C1589 C 0.7218 0.99446 0.62442 0.0
C1590 C 0.78983 0.07709 0.65848 0.0
C1591 C 0.79945 0.09513 0.6441 0.0
C1592 C 0.78055 0.04866 0.65476 0.0
C1593 C 0.78068 0.03783 0.63614 0.0
C1594 C 0.78961 0.05568 0.62138 0.0
C1595 C 0.799 0.08422 0.62555 0.0
C1596 C 0.7713 0.03036 0.67095 0.0
C1597 C 0.78979 0.04474 0.60133 0.0
H1598 H 0.80054 0.96622 0.64061 0.0
H1599 H 0.71467 0.94292 0.62708 0.0
H1600 H 0.83079 0.0376 0.63036 0.0
H1601 H 0.82712 0.03343 0.65517 0.0
H1602 H 0.83754 0.01262 0.6412 0.0
H1603 H 0.70151 0.97591 0.61865 0.0
H1604 H 0.71867 0.0036 0.6378 0.0
H1605 H 0.72817 0.01034 0.61408 0.0
H1606 H 0.78998 0.08523 0.67286 0.0
H1607 H 0.80631 0.09801 0.61435 0.0
H1608 H 0.7852 0.02158 0.67351 0.0
H1609 H 0.74974 0.01258 0.66713 0.0
H1610 H 0.7717 0.04192 0.68447 0.0
H1611 H 0.80514 0.03744 0.60124 0.0
H1612 H 0.79534 0.06085 0.59118 0.0
H1613 H 0.76895 0.02654 0.59618 0.0
C1614 C 0.50549 0.36556 0.72973 0.0
C1615 C 0.50266 0.38537 0.71999 0.0
C1616 C 0.48438 0.33735 0.72711 0.0
C1617 C 0.46017 0.32899 0.71433 0.0
C1618 C 0.45676 0.34936 0.70525 0.0
C1619 C 0.47818 0.3774 0.70818 0.0
C1620 C 0.48874 0.31632 0.73713 0.0
C1621 C 0.43129 0.34135 0.69155 0.0
C1622 C 0.42425 0.25648 0.68774 0.0
C1623 C 0.40037 0.24218 0.69736 0.0
C1624 C 0.44398 0.2846 0.69331 0.0
C1625 C 0.43984 0.29884 0.70894 0.0
C1626 C 0.41604 0.28447 0.71894 0.0
C1627 C 0.39655 0.25632 0.71301 0.0
C1628 C 0.4691 0.29919 0.68225 0.0
C1629 C 0.41101 0.29893 0.73573 0.0
H1630 H 0.52469 0.37193 0.73873 0.0
H1631 H 0.47631 0.3929 0.70055 0.0
H1632 H 0.4698 0.30225 0.74394 0.0
H1633 H 0.49232 0.30317 0.72654 0.0
H1634 H 0.50697 0.32647 0.74822 0.0
H1635 H 0.43055 0.35987 0.68714 0.0
H1636 H 0.43146 0.32917 0.67858 0.0
H1637 H 0.41189 0.32787 0.69812 0.0
H1638 H 0.42745 0.24581 0.67565 0.0
H1639 H 0.37824 0.24545 0.72061 0.0
H1640 H 0.48867 0.30798 0.69202 0.0
H1641 H 0.46895 0.31685 0.67578 0.0
H1642 H 0.46954 0.285 0.6707 0.0
H1643 H 0.42937 0.30816 0.74666 0.0
H1644 H 0.39209 0.28453 0.74247 0.0
H1645 H 0.40843 0.3163 0.73101 0.0
C1646 C 0.63997 0.12003 0.71784 0.0
C1647 C 0.63561 0.14171 0.72428 0.0
C1648 C 0.66226 0.12512 0.70702 0.0
C1649 C 0.68064 0.15261 0.70263 0.0
C1650 C 0.67511 0.17422 0.70813 0.0
C1651 C 0.65271 0.16852 0.71903 0.0
C1652 C 0.66732 0.10146 0.70153 0.0
C1653 C 0.69398 0.20375 0.70366 0.0
C1654 C 0.75649 0.17204 0.69953 0.0
C1655 C 0.75799 0.17005 0.67974 0.0
C1656 C 0.73159 0.1667 0.70705 0.0
C1657 C 0.7074 0.1593 0.69454 0.0
C1658 C 0.70881 0.15768 0.67454 0.0
C1659 C 0.73404 0.16296 0.66738 0.0
C1660 C 0.73108 0.16855 0.72848 0.0
C1661 C 0.68359 0.15008 0.66073 0.0
H1662 H 0.62694 0.09937 0.72221 0.0
H1663 H 0.64953 0.18535 0.7243 0.0
H1664 H 0.67113 0.10104 0.68629 0.0
H1665 H 0.68632 0.10462 0.71015 0.0
H1666 H 0.64943 0.08088 0.70397 0.0
H1667 H 0.68473 0.21717 0.70648 0.0
H1668 H 0.71432 0.21286 0.7126 0.0
H1669 H 0.69835 0.2041 0.6885 0.0
H1670 H 0.77474 0.17741 0.70928 0.0
H1671 H 0.73492 0.1614 0.65207 0.0
H1672 H 0.71537 0.14804 0.73275 0.0
H1673 H 0.72477 0.18386 0.73308 0.0
H1674 H 0.75174 0.17486 0.73626 0.0
H1675 H 0.66653 0.12874 0.66252 0.0
H1676 H 0.68836 0.15082 0.64563 0.0
H1677 H 0.6756 0.16451 0.66383 0.0
C1678 C 0.94791 0.56795 0.70707 0.0
C1679 C 0.93423 0.5443 0.71681 0.0
C1680 C 0.93689 0.58565 0.70486 0.0
C1681 C 0.9116 0.57932 0.71258 0.0
C1682 C 0.89822 0.5558 0.72298 0.0
C1683 C 0.90972 0.53843 0.72493 0.0
C1684 C 0.95176 0.61052 0.69369 0.0
C1685 C 0.8713 0.54845 0.73146 0.0
C1686 C 0.89416 0.63726 0.71714 0.0
C1687 C 0.87581 0.63083 0.70056 0.0
C1688 C 0.90552 0.62036 0.72146 0.0
C1689 C 0.89848 0.59654 0.70887 0.0
C1690 C 0.87962 0.58966 0.69229 0.0
C1691 C 0.86846 0.60685 0.68836 0.0
C1692 C 0.92541 0.62823 0.73934 0.0
C1693 C 0.87166 0.56444 0.67849 0.0
H1694 H 0.96679 0.57214 0.70069 0.0
H1695 H 0.89917 0.51987 0.73232 0.0
H1696 H 0.93824 0.60789 0.68056 0.0
H1697 H 0.95587 0.62981 0.70224 0.0
H1698 H 0.97196 0.61334 0.68951 0.0
H1699 H 0.86464 0.53065 0.74026 0.0
H1700 H 0.87371 0.5667 0.74048 0.0
H1701 H 0.8544 0.54287 0.71984 0.0
H1702 H 0.89983 0.65564 0.72674 0.0
H1703 H 0.8543 0.6017 0.67554 0.0
H1704 H 0.94634 0.633 0.73545 0.0
H1705 H 0.91794 0.61047 0.74819 0.0
H1706 H 0.92771 0.64666 0.7481 0.0
H1707 H 0.89057 0.56662 0.67239 0.0
H1708 H 0.85607 0.5615 0.66656 0.0
H1709 H 0.86283 0.54536 0.68608 0.0
C1710 C 0.46241 0.91452 0.22081 0.0
C1711 C 0.44779 0.92313 0.23235 0.0
C1712 C 0.47169 0.92644 0.20373 0.0
C1713 C 0.46637 0.9476 0.19811 0.0
C1714 C 0.45177 0.95646 0.20977 0.0
C1715 C 0.4427 0.94416 0.2267 0.0
C1716 C 0.48708 0.91634 0.19164 0.0
C1717 C 0.44581 0.97907 0.20442 0.0
C1718 C 0.51088 0.99815 0.16365 0.0
C1719 C 0.4931 0.98771 0.14651 0.0
C1720 C 0.5027 0.98497 0.18043 0.0
C1721 C 0.4761 0.96068 0.18011 0.0
C1722 C 0.45826 0.94973 0.1628 0.0
C1723 C 0.46693 0.96338 0.14624 0.0
C1724 C 0.52237 0.99733 0.19858 0.0
C1725 C 0.42971 0.92391 0.16184 0.0
H1726 H 0.46627 0.89817 0.225 0.0
H1727 H 0.4319 0.95135 0.23571 0.0
H1728 H 0.47558 0.908 0.17719 0.0
H1729 H 0.5081 0.934 0.18982 0.0
H1730 H 0.48962 0.8998 0.198 0.0
H1731 H 0.4341 0.9835 0.21499 0.0
H1732 H 0.46575 0.9986 0.20328 0.0
H1733 H 0.43343 0.97288 0.19023 0.0
H1734 H 0.53132 0.01664 0.16395 0.0
H1735 H 0.45288 0.95531 0.13316 0.0
H1736 H 0.5264 0.98144 0.20448 0.0
H1737 H 0.51258 0.00384 0.20949 0.0
H1738 H 0.54271 0.01571 0.1963 0.0
H1739 H 0.43157 0.90651 0.16732 0.0
H1740 H 0.419 0.91715 0.14708 0.0
H1741 H 0.41637 0.92798 0.17109 0.0
C1742 C 0.03281 0.50693 0.23681 0.0
C1743 C 0.0587 0.50954 0.24276 0.0
C1744 C 0.02333 0.50289 0.21735 0.0
C1745 C 0.04029 0.50172 0.2035 0.0
C1746 C 0.06647 0.50437 0.20943 0.0
C1747 C 0.0753 0.5081 0.22901 0.0
C1748 C 0.99514 0.49983 0.21161 0.0
C1749 C 0.08527 0.50355 0.19508 0.0
C1750 C 0.00494 0.46748 0.15376 0.0
C1751 C 0.01026 0.49065 0.14402 0.0
C1752 C 0.0148 0.47078 0.17309 0.0
C1753 C 0.03062 0.49792 0.18283 0.0
C1754 C 0.03655 0.52142 0.17294 0.0
C1755 C 0.02615 0.51749 0.15368 0.0
C1756 C 0.00781 0.4452 0.1832 0.0
C1757 C 0.05366 0.5507 0.18277 0.0
H1758 H 0.0198 0.50771 0.24742 0.0
H1759 H 0.09545 0.51038 0.23358 0.0
H1760 H 0.99769 0.51663 0.20272 0.0
H1761 H 0.98157 0.47966 0.20279 0.0
H1762 H 0.98431 0.50073 0.22414 0.0
H1763 H 0.10498 0.50591 0.20203 0.0
H1764 H 0.07417 0.48353 0.1858 0.0
H1765 H 0.09062 0.5205 0.18569 0.0
H1766 H 0.99245 0.4467 0.14637 0.0
H1767 H 0.03057 0.53545 0.14611 0.0
H1768 H 0.99526 0.44421 0.19512 0.0
H1769 H 0.02727 0.44642 0.18951 0.0
H1770 H 0.99581 0.42561 0.17349 0.0
H1771 H 0.04277 0.55348 0.19466 0.0
H1772 H 0.05734 0.56676 0.17286 0.0
H1773 H 0.0742 0.55434 0.18905 0.0
C1774 C 0.50682 0.55706 0.21956 0.0
C1775 C 0.47986 0.54187 0.22533 0.0
C1776 C 0.51189 0.5536 0.20062 0.0
C1777 C 0.48946 0.5345 0.18711 0.0
C1778 C 0.46212 0.51932 0.19279 0.0
C1779 C 0.45767 0.52314 0.21185 0.0
C1780 C 0.54136 0.57006 0.19515 0.0
C1781 C 0.43764 0.49888 0.17876 0.0
C1782 C 0.49918 0.54243 0.13448 0.0
C1783 C 0.50633 0.5221 0.12954 0.0
C1784 C 0.49335 0.54651 0.15311 0.0
C1785 C 0.49477 0.52993 0.16716 0.0
C1786 C 0.50177 0.50926 0.16224 0.0
C1787 C 0.50742 0.50557 0.14351 0.0
C1788 C 0.48595 0.56876 0.15781 0.0
C1789 C 0.50344 0.49111 0.17682 0.0
H1790 H 0.52414 0.57125 0.22997 0.0
H1791 H 0.43674 0.51157 0.2162 0.0
H1792 H 0.54856 0.55559 0.19019 0.0
H1793 H 0.54187 0.58227 0.18312 0.0
H1794 H 0.55634 0.58462 0.20723 0.0
H1795 H 0.4176 0.48921 0.18535 0.0
H1796 H 0.43556 0.50956 0.16647 0.0
H1797 H 0.4413 0.48209 0.17303 0.0
H1798 H 0.49861 0.5555 0.12384 0.0
H1799 H 0.51246 0.48951 0.13973 0.0
H1800 H 0.50174 0.58467 0.16897 0.0
H1801 H 0.46541 0.55947 0.16369 0.0
H1802 H 0.48497 0.57934 0.14514 0.0
H1803 H 0.51937 0.50431 0.18887 0.0
H1804 H 0.50897 0.47584 0.17066 0.0
H1805 H 0.48308 0.47953 0.18279 0.0
C1806 C 0.92576 0.45101 0.78976 0.0
C1807 C 0.94494 0.46971 0.77825 0.0
C1808 C 0.93231 0.45346 0.80958 0.0
C1809 C 0.95865 0.47517 0.81812 0.0
C1810 C 0.97761 0.49483 0.80671 0.0
C1811 C 0.97053 0.49185 0.78691 0.0
C1812 C 0.91146 0.43219 0.82127 0.0
C1813 C 0.00589 0.51831 0.81529 0.0
C1814 C 0.97062 0.49301 0.87204 0.0
C1815 C 0.98489 0.4792 0.87768 0.0
C1816 C 0.96172 0.49172 0.85273 0.0
C1817 C 0.96718 0.47623 0.83873 0.0
C1818 C 0.98121 0.46193 0.84437 0.0
C1819 C 0.98989 0.46361 0.86375 0.0
C1820 C 0.94689 0.5073 0.84726 0.0
C1821 C 0.98726 0.44502 0.8299 0.0
H1822 H 0.90577 0.43409 0.78318 0.0
H1823 H 0.98559 0.5062 0.77812 0.0
H1824 H 0.92011 0.41962 0.82716 0.0
H1825 H 0.90761 0.44276 0.83356 0.0
H1826 H 0.89115 0.41782 0.81271 0.0
H1827 H 0.01726 0.5331 0.80477 0.0
H1828 H 0.00353 0.53004 0.82761 0.0
H1829 H 0.01887 0.50961 0.82071 0.0
H1830 H 0.96697 0.50536 0.8827 0.0
H1831 H 1.00055 0.45257 0.86804 0.0
H1832 H 0.92633 0.49279 0.8391 0.0
H1833 H 0.95938 0.52339 0.83781 0.0
H1834 H 0.94346 0.51766 0.85991 0.0
H1835 H 0.96746 0.42867 0.82172 0.0
H1836 H 0.99801 0.43483 0.83665 0.0
H1837 H 1.00063 0.45866 0.81951 0.0
C1838 C 0.56708 0.51592 0.78729 0.0
C1839 C 0.56392 0.49027 0.78022 0.0
C1840 C 0.55747 0.51893 0.80477 0.0
C1841 C 0.54443 0.49576 0.81551 0.0
C1842 C 0.54138 0.46988 0.80854 0.0
C1843 C 0.55112 0.46744 0.79099 0.0
C1844 C 0.561 0.54685 0.81165 0.0
C1845 C 0.52779 0.44472 0.81961 0.0
C1846 C 0.54085 0.50926 0.86856 0.0
C1847 C 0.51323 0.50375 0.86889 0.0
C1848 C 0.55125 0.50668 0.85133 0.0
C1849 C 0.53369 0.49852 0.83394 0.0
C1850 C 0.50583 0.49299 0.83416 0.0
C1851 C 0.49594 0.4956 0.8516 0.0
C1852 C 0.58107 0.51278 0.85173 0.0
C1853 C 0.48643 0.48422 0.81594 0.0
H1854 H 0.57663 0.53357 0.77896 0.0
H1855 H 0.54895 0.44765 0.78577 0.0
H1856 H 0.54021 0.5447 0.81314 0.0
H1857 H 0.57308 0.55432 0.82596 0.0
H1858 H 0.57194 0.56291 0.80177 0.0
H1859 H 0.52722 0.42616 0.81231 0.0
H1860 H 0.53932 0.4495 0.83401 0.0
H1861 H 0.50604 0.43943 0.82164 0.0
H1862 H 0.55454 0.51597 0.88178 0.0
H1863 H 0.47447 0.49091 0.85171 0.0
H1864 H 0.59303 0.53015 0.84301 0.0
H1865 H 0.58146 0.49427 0.84534 0.0
H1866 H 0.59189 0.51849 0.86646 0.0
H1867 H 0.49565 0.50032 0.80584 0.0
H1868 H 0.46546 0.48096 0.8185 0.0
H1869 H 0.48377 0.46456 0.80889 0.0
C1870 C 0.50886 0.06373 0.80144 0.0
C1871 C 0.53478 0.08794 0.80058 0.0
C1872 C 0.50164 0.05122 0.81856 0.0
C1873 C 0.52081 0.06313 0.83524 0.0
C1874 C 0.5468 0.08779 0.83454 0.0
C1875 C 0.55341 0.09992 0.81728 0.0
C1876 C 0.4737 0.02499 0.81871 0.0
C1877 C 0.56782 0.1012 0.852 0.0
C1878 C 0.49569 0.04468 0.8843 0.0
C1879 C 0.50383 0.02512 0.88832 0.0
C1880 C 0.50067 0.05689 0.86698 0.0
C1881 C 0.51414 0.04942 0.85332 0.0
C1882 C 0.52204 0.02942 0.85717 0.0
C1883 C 0.51678 0.01752 0.87458 0.0
C1884 C 0.49193 0.07814 0.86343 0.0
C1885 C 0.53638 0.02081 0.84299 0.0
H1886 H 0.49443 0.05416 0.78859 0.0
H1887 H 0.57325 0.1189 0.81689 0.0
H1888 H 0.47695 0.0075 0.82214 0.0
H1889 H 0.46197 0.02786 0.82999 0.0
H1890 H 0.46066 0.01901 0.80478 0.0
H1891 H 0.58684 0.12066 0.8492 0.0
H1892 H 0.5582 0.10619 0.86382 0.0
H1893 H 0.57424 0.08642 0.85696 0.0
H1894 H 0.48596 0.05092 0.89489 0.0
H1895 H 0.52273 0.0021 0.8774 0.0
H1896 H 0.47814 0.07177 0.84983 0.0
H1897 H 0.51065 0.0986 0.86197 0.0
H1898 H 0.4807 0.08088 0.87514 0.0
H1899 H 0.52325 0.01271 0.82907 0.0
H1900 H 0.54062 0.00452 0.84795 0.0
H1901 H 0.55653 0.0392 0.84047 0.0
C1902 C 0.14093 0.26828 0.56251 0.0
C1903 C 0.11281 0.24763 0.56284 0.0
C1904 C 0.15071 0.28136 0.54587 0.0
C1905 C 0.13196 0.2737 0.52912 0.0
C1906 C 0.10371 0.25242 0.52922 0.0
C1907 C 0.09452 0.23964 0.54602 0.0
C1908 C 0.18099 0.3039 0.54638 0.0
C1909 C 0.08303 0.2435 0.51168 0.0
C1910 C 0.14853 0.32648 0.49265 0.0
C1911 C 0.15924 0.31672 0.47849 0.0
C1912 C 0.13969 0.31274 0.50915 0.0
C1913 C 0.14159 0.2886 0.51169 0.0
C1914 C 0.15244 0.27866 0.49751 0.0
C1915 C 0.1611 0.29279 0.48111 0.0
C1916 C 0.12829 0.32409 0.52391 0.0
C1917 C 0.15476 0.25298 0.49961 0.0
H1918 H 0.15518 0.27486 0.57544 0.0
H1919 H 0.07287 0.22341 0.54601 0.0
H1920 H 0.19088 0.29899 0.53469 0.0
H1921 H 0.1823 0.32407 0.54403 0.0
H1922 H 0.19322 0.30649 0.56019 0.0
H1923 H 0.06206 0.22598 0.51387 0.0
H1924 H 0.08073 0.26136 0.50774 0.0
H1925 H 0.09083 0.23701 0.49941 0.0
H1926 H 0.14738 0.34515 0.49094 0.0
H1927 H 0.16898 0.28483 0.47018 0.0
H1928 H 0.14103 0.32929 0.53788 0.0
H1929 H 0.10658 0.308 0.52593 0.0
H1930 H 0.1282 0.34306 0.51983 0.0
H1931 H 0.16789 0.25588 0.51303 0.0
H1932 H 0.16402 0.24815 0.48746 0.0
H1933 H 0.13375 0.23475 0.50061 0.0
C1934 C 0.74164 0.84337 0.56516 0.0
C1935 C 0.72689 0.84907 0.5785 0.0
C1936 C 0.73318 0.83932 0.5455 0.0
C1937 C 0.70949 0.84114 0.53903 0.0
C1938 C 0.69466 0.84712 0.55239 0.0
C1939 C 0.70349 0.85093 0.57196 0.0
C1940 C 0.74952 0.83299 0.53167 0.0
C1941 C 0.6693 0.84923 0.54604 0.0
C1942 C 0.70001 0.85445 0.4876 0.0
C1943 C 0.67983 0.82771 0.47929 0.0
C1944 C 0.71013 0.85909 0.50699 0.0
C1945 C 0.6999 0.8364 0.51829 0.0
C1946 C 0.6799 0.80928 0.5099 0.0
C1947 C 0.67006 0.80527 0.49051 0.0
C1948 C 0.73135 0.88833 0.51546 0.0
C1949 C 0.66866 0.78454 0.52145 0.0
H1950 H 0.75997 0.8423 0.57009 0.0
H1951 H 0.69176 0.85494 0.58218 0.0
H1952 H 0.73561 0.81257 0.52323 0.0
H1953 H 0.75752 0.849 0.52142 0.0
H1954 H 0.76751 0.83238 0.53901 0.0
H1955 H 0.66051 0.85469 0.55821 0.0
H1956 H 0.67485 0.86528 0.53588 0.0
H1957 H 0.65278 0.82908 0.53841 0.0
H1958 H 0.7074 0.8719 0.47904 0.0
H1959 H 0.65475 0.7845 0.48408 0.0
H1960 H 0.7502 0.88878 0.52224 0.0
H1961 H 0.72242 0.8952 0.5268 0.0
H1962 H 0.73788 0.90352 0.50459 0.0
H1963 H 0.68616 0.78252 0.52811 0.0
H1964 H 0.65378 0.76469 0.51265 0.0
H1965 H 0.65777 0.78771 0.53319 0.0
C1966 C 0.17212 0.88984 0.55183 0.0
C1967 C 0.14529 0.88562 0.55395 0.0
C1968 C 0.17967 0.88568 0.5338 0.0
C1969 C 0.15988 0.87693 0.51755 0.0
C1970 C 0.13285 0.87283 0.51957 0.0
C1971 C 0.12593 0.87732 0.53772 0.0
C1972 C 0.20871 0.89031 0.53219 0.0
C1973 C 0.11116 0.8635 0.50257 0.0
C1974 C 0.1843 0.88723 0.46793 0.0
C1975 C 0.17899 0.86048 0.46162 0.0
C1976 C 0.17858 0.89302 0.48622 0.0
C1977 C 0.16717 0.8715 0.49844 0.0
C1978 C 0.16202 0.84453 0.49222 0.0
C1979 C 0.16802 0.83935 0.47389 0.0
C1980 C 0.1845 0.92208 0.49241 0.0
C1981 C 0.14969 0.82099 0.50479 0.0
H1982 H 0.18709 0.89595 0.56432 0.0
H1983 H 0.10533 0.87449 0.53919 0.0
H1984 H 0.20737 0.87051 0.52671 0.0
H1985 H 0.21921 0.90564 0.5218 0.0
H1986 H 0.22194 0.89801 0.5461 0.0
H1987 H 0.09116 0.86143 0.50655 0.0
H1988 H 0.1192 0.87863 0.49175 0.0
H1989 H 0.10683 0.84307 0.49571 0.0
H1990 H 0.19307 0.90371 0.45858 0.0
H1991 H 0.1635 0.81854 0.46899 0.0
H1992 H 0.19884 0.93049 0.50582 0.0
H1993 H 0.16479 0.92147 0.49545 0.0
H1994 H 0.19405 0.93665 0.4814 0.0
H1995 H 0.16297 0.82695 0.51859 0.0
H1996 H 0.14765 0.80142 0.49801 0.0
H1997 H 0.12867 0.8168 0.50803 0.0
C1998 C 0.62491 0.78353 0.12144 0.0
C1999 C 0.61369 0.79857 0.11295 0.0
C2000 C 0.63277 0.78751 0.14114 0.0
C2001 C 0.62974 0.80733 0.15269 0.0
C2002 C 0.61848 0.82265 0.14427 0.0
C2003 C 0.6105 0.81802 0.1245 0.0
C2004 C 0.64464 0.77072 0.14957 0.0
C2005 C 0.61512 0.84409 0.15614 0.0
C2006 C 0.63002 0.80064 0.20602 0.0
C2007 C 0.65803 0.81985 0.21266 0.0
C2008 C 0.62038 0.79666 0.18658 0.0
C2009 C 0.63912 0.81244 0.17348 0.0
C2010 C 0.66726 0.8322 0.18012 0.0
C2011 C 0.67641 0.83554 0.19958 0.0
C2012 C 0.59025 0.77526 0.18 0.0
C2013 C 0.68788 0.84947 0.1666 0.0
H2014 H 0.62805 0.7689 0.11261 0.0
H2015 H 0.60162 0.82954 0.1181 0.0
H2016 H 0.66646 0.78487 0.15601 0.0
H2017 H 0.63232 0.75932 0.16114 0.0
H2018 H 0.64464 0.75538 0.13874 0.0
H2019 H 0.60573 0.85401 0.14746 0.0
H2020 H 0.60168 0.83423 0.16763 0.0
H2021 H 0.63582 0.8606 0.16315 0.0
H2022 H 0.61556 0.78874 0.21605 0.0
H2023 H 0.69818 0.85013 0.2045 0.0
H2024 H 0.58936 0.75877 0.16984 0.0
H2025 H 0.57995 0.78514 0.17229 0.0
H2026 H 0.57814 0.76529 0.19206 0.0
H2027 H 0.69089 0.83565 0.15622 0.0
H2028 H 0.70859 0.86503 0.17419 0.0
H2029 H 0.67959 0.86064 0.15829 0.0
C2030 C 0.19972 0.80349 0.1151 0.0
C2031 C 0.22805 0.8119 0.11413 0.0
C2032 C 0.1899 0.80697 0.13236 0.0
C2033 C 0.20885 0.81929 0.14911 0.0
C2034 C 0.23744 0.82769 0.14828 0.0
C2035 C 0.24667 0.82386 0.13083 0.0
C2036 C 0.15927 0.79773 0.13263 0.0
C2037 C 0.2583 0.84086 0.16582 0.0
C2038 C 0.18877 0.8523 0.18942 0.0
C2039 C 0.17922 0.83162 0.2021 0.0
C2040 C 0.19857 0.84861 0.1722 0.0
C2041 C 0.19878 0.8236 0.16746 0.0
C2042 C 0.18916 0.80264 0.18017 0.0
C2043 C 0.17954 0.80691 0.19733 0.0
C2044 C 0.20881 0.87155 0.15909 0.0
C2045 C 0.18887 0.77561 0.1756 0.0
H2046 H 0.18524 0.79464 0.10224 0.0
H2047 H 0.26851 0.83009 0.1303 0.0
H2048 H 0.15005 0.78256 0.14332 0.0
H2049 H 0.1569 0.81589 0.13697 0.0
H2050 H 0.14713 0.78791 0.11849 0.0
H2051 H 0.27977 0.84619 0.16281 0.0
H2052 H 0.25887 0.86016 0.17158 0.0
H2053 H 0.2518 0.82645 0.17715 0.0
H2054 H 0.18896 0.87161 0.19311 0.0
H2055 H 0.1719 0.79069 0.20692 0.0
H2056 H 0.19634 0.86351 0.14493 0.0
H2057 H 0.23092 0.87869 0.15678 0.0
H2058 H 0.20738 0.88977 0.16488 0.0
H2059 H 0.17547 0.7646 0.16206 0.0
H2060 H 0.18097 0.7615 0.18707 0.0
H2061 H 0.2103 0.77993 0.17348 0.0
C2062 C 0.20329 0.42946 0.14219 0.0
C2063 C 0.2075 0.41459 0.12722 0.0
C2064 C 0.20065 0.42099 0.16072 0.0
C2065 C 0.20237 0.39709 0.16449 0.0
C2066 C 0.20785 0.38271 0.14967 0.0
C2067 C 0.21029 0.39157 0.13124 0.0
C2068 C 0.19496 0.43701 0.17611 0.0
C2069 C 0.20996 0.35721 0.15307 0.0
C2070 C 0.21292 0.38406 0.21609 0.0
C2071 C 0.18559 0.36424 0.21941 0.0
C2072 C 0.21873 0.39504 0.19836 0.0
C2073 C 0.19668 0.3861 0.18356 0.0
C2074 C 0.16901 0.36635 0.1869 0.0
C2075 C 0.16383 0.35566 0.20473 0.0
C2076 C 0.24852 0.41594 0.19536 0.0
C2077 C 0.14484 0.3564 0.1716 0.0
H2078 H 0.20152 0.4475 0.13931 0.0
H2079 H 0.21318 0.37969 0.11978 0.0
H2080 H 0.1738 0.42356 0.18058 0.0
H2081 H 0.21022 0.44301 0.1889 0.0
H2082 H 0.19606 0.45617 0.17124 0.0
H2083 H 0.21654 0.34973 0.14054 0.0
H2084 H 0.22514 0.36176 0.16566 0.0
H2085 H 0.18934 0.34012 0.15622 0.0
H2086 H 0.22992 0.39059 0.22726 0.0
H2087 H 0.1426 0.34068 0.20723 0.0
H2088 H 0.24981 0.4354 0.19104 0.0
H2089 H 0.25548 0.40749 0.18361 0.0
H2090 H 0.2632 0.42121 0.20841 0.0
H2091 H 0.14331 0.37442 0.16702 0.0
H2092 H 0.12453 0.34121 0.17652 0.0
H2093 H 0.14844 0.3464 0.15886 0.0
C2094 C 0.77599 0.6106 0.89241 0.0
C2095 C 0.78078 0.58943 0.89818 0.0
C2096 C 0.78569 0.6231 0.87565 0.0
C2097 C 0.8008 0.61445 0.86436 0.0
C2098 C 0.8059 0.59323 0.87011 0.0
C2099 C 0.79582 0.58095 0.88695 0.0
C2100 C 0.77981 0.64567 0.87006 0.0
C2101 C 0.82198 0.58348 0.85848 0.0
C2102 C 0.80314 0.63093 0.81265 0.0
C2103 C 0.82897 0.65582 0.81343 0.0
C2104 C 0.79403 0.61688 0.82898 0.0
C2105 C 0.81122 0.62779 0.84656 0.0
C2106 C 0.83766 0.6524 0.84735 0.0
C2107 C 0.84616 0.66615 0.83082 0.0
C2108 C 0.76566 0.59074 0.82753 0.0
C2109 C 0.85667 0.66465 0.86579 0.0
H2110 H 0.76493 0.61773 0.90117 0.0
H2111 H 0.79945 0.56449 0.89121 0.0
H2112 H 0.79979 0.66533 0.86932 0.0
H2113 H 0.76806 0.63962 0.85565 0.0
H2114 H 0.76751 0.6498 0.88029 0.0
H2115 H 0.8244 0.56696 0.86497 0.0
H2116 H 0.81109 0.57524 0.84386 0.0
H2117 H 0.84307 0.60131 0.85704 0.0
H2118 H 0.78992 0.62244 0.79922 0.0
H2119 H 0.86599 0.68549 0.83168 0.0
H2120 H 0.75183 0.59425 0.83663 0.0
H2121 H 0.76767 0.57337 0.83289 0.0
H2122 H 0.75539 0.58424 0.81265 0.0
H2123 H 0.84666 0.6716 0.87626 0.0
H2124 H 0.87735 0.68275 0.86374 0.0
H2125 H 0.86004 0.64861 0.87212 0.0
C2126 C 0.41146 0.21292 0.90084 0.0
C2127 C 0.40322 0.18859 0.90993 0.0
C2128 C 0.40405 0.21151 0.88124 0.0
C2129 C 0.38785 0.18513 0.87053 0.0
C2130 C 0.38003 0.16052 0.87954 0.0
C2131 C 0.38785 0.16256 0.89912 0.0
C2132 C 0.41301 0.23819 0.87208 0.0
C2133 C 0.36261 0.13199 0.86864 0.0
C2134 C 0.34142 0.17731 0.82602 0.0
C2135 C 0.35643 0.1749 0.81142 0.0
C2136 C 0.35172 0.18126 0.84529 0.0
C2137 C 0.3778 0.18306 0.85012 0.0
C2138 C 0.39351 0.18155 0.83547 0.0
C2139 C 0.3826 0.1774 0.81629 0.0
C2140 C 0.33435 0.18279 0.86051 0.0
C2141 C 0.42146 0.18352 0.84007 0.0
H2142 H 0.42362 0.2331 0.90911 0.0
H2143 H 0.38111 0.14369 0.90612 0.0
H2144 H 0.42416 0.23853 0.85946 0.0
H2145 H 0.3943 0.23932 0.86694 0.0
H2146 H 0.42691 0.25701 0.88212 0.0
H2147 H 0.35936 0.11498 0.87755 0.0
H2148 H 0.34184 0.12884 0.86336 0.0
H2149 H 0.37282 0.13032 0.85598 0.0
H2150 H 0.32143 0.17591 0.82238 0.0
H2151 H 0.39421 0.17528 0.80512 0.0
H2152 H 0.34676 0.20235 0.87016 0.0
H2153 H 0.32837 0.16517 0.86936 0.0
H2154 H 0.31497 0.18198 0.85437 0.0
H2155 H 0.43549 0.20257 0.84984 0.0
H2156 H 0.43196 0.18398 0.82705 0.0
H2157 H 0.41853 0.16537 0.84755 0.0
C2158 C 0.81171 0.18752 0.88141 0.0
C2159 C 0.80645 0.20875 0.88768 0.0
C2160 C 0.81757 0.18472 0.8626 0.0
C2161 C 0.81819 0.20359 0.8497 0.0
C2162 C 0.81304 0.22515 0.85595 0.0
C2163 C 0.80728 0.2275 0.87488 0.0
C2164 C 0.8231 0.16154 0.85652 0.0
C2165 C 0.81339 0.24558 0.8426 0.0
C2166 C 0.85697 0.20998 0.8059 0.0
C2167 C 0.83502 0.19218 0.79197 0.0
C2168 C 0.85177 0.21422 0.8247 0.0
C2169 C 0.82393 0.20048 0.82963 0.0
C2170 C 0.80163 0.18297 0.81551 0.0
C2171 C 0.80745 0.17898 0.79688 0.0
C2172 C 0.87612 0.23292 0.83937 0.0
C2173 C 0.77164 0.16814 0.82016 0.0
H2174 H 0.81154 0.17324 0.89131 0.0
H2175 H 0.803 0.24379 0.8796 0.0
H2176 H 0.80752 0.14764 0.8445 0.0
H2177 H 0.84408 0.1704 0.85132 0.0
H2178 H 0.8221 0.14879 0.86834 0.0
H2179 H 0.80928 0.26134 0.84973 0.0
H2180 H 0.83399 0.25658 0.83685 0.0
H2181 H 0.79733 0.23423 0.83025 0.0
H2182 H 0.87833 0.22003 0.80223 0.0
H2183 H 0.79038 0.16551 0.78608 0.0
H2184 H 0.87736 0.22064 0.85087 0.0
H2185 H 0.87297 0.24955 0.84613 0.0
H2186 H 0.8964 0.24285 0.83309 0.0
H2187 H 0.76897 0.15356 0.83103 0.0
H2188 H 0.75664 0.15613 0.80739 0.0
H2189 H 0.76624 0.18344 0.82638 0.0
C2190 C 0.30647 0.15674 0.45246 0.0
C2191 C 0.28025 0.13445 0.44489 0.0
C2192 C 0.31471 0.16148 0.47217 0.0
C2193 C 0.29623 0.14354 0.48461 0.0
C2194 C 0.26933 0.12164 0.47713 0.0
C2195 C 0.26169 0.1173 0.45734 0.0
C2196 C 0.34362 0.18498 0.47958 0.0
C2197 C 0.24894 0.10224 0.48995 0.0
C2198 C 0.3285 0.13542 0.53111 0.0
C2199 C 0.32496 0.15305 0.54425 0.0
C2200 C 0.31912 0.13208 0.5117 0.0
C2201 C 0.30575 0.14662 0.50525 0.0
C2202 C 0.30188 0.16428 0.51846 0.0
C2203 C 0.31163 0.16736 0.53781 0.0
C2204 C 0.32383 0.11321 0.49803 0.0
C2205 C 0.28752 0.17994 0.51213 0.0
H2206 H 0.32102 0.16986 0.44289 0.0
H2207 H 0.24128 0.10023 0.45156 0.0
H2208 H 0.34235 0.19846 0.49124 0.0
H2209 H 0.35626 0.17628 0.48567 0.0
H2210 H 0.35477 0.1981 0.46822 0.0
H2211 H 0.22815 0.08756 0.48208 0.0
H2212 H 0.25741 0.08993 0.49651 0.0
H2213 H 0.24613 0.11441 0.50176 0.0
H2214 H 0.33912 0.12461 0.53598 0.0
H2215 H 0.30859 0.18079 0.54795 0.0
H2216 H 0.33686 0.12533 0.48695 0.0
H2217 H 0.30353 0.09659 0.49058 0.0
H2218 H 0.33437 0.10322 0.50537 0.0
H2219 H 0.29934 0.19415 0.50148 0.0
H2220 H 0.28569 0.19243 0.52424 0.0
H2221 H 0.26624 0.16508 0.50506 0.0
C2222 C 0.89072 0.13059 0.45687 0.0
C2223 C 0.90267 0.15244 0.4452 0.0
C2224 C 0.88112 0.13409 0.47423 0.0
C2225 C 0.88349 0.16006 0.48009 0.0
C2226 C 0.89581 0.18228 0.46849 0.0
C2227 C 0.90523 0.1782 0.45121 0.0
C2228 C 0.86824 0.10994 0.48624 0.0
C2229 C 0.89865 0.21026 0.47419 0.0
C2230 C 0.83458 0.16188 0.51503 0.0
C2231 C 0.85197 0.17178 0.53233 0.0
C2232 C 0.84453 0.15788 0.49797 0.0
C2233 C 0.87257 0.16385 0.49816 0.0
C2234 C 0.89022 0.17371 0.51558 0.0
C2235 C 0.87973 0.1776 0.53242 0.0
C2236 C 0.82503 0.14726 0.47971 0.0
C2237 C 0.92025 0.18037 0.51639 0.0
H2238 H 0.88898 0.11074 0.45245 0.0
H2239 H 0.91405 0.19507 0.44216 0.0
H2240 H 0.87979 0.11608 0.50072 0.0
H2241 H 0.8463 0.10418 0.48799 0.0
H2242 H 0.86836 0.09126 0.47983 0.0
H2243 H 0.90939 0.22562 0.46385 0.0
H2244 H 0.87763 0.20776 0.47523 0.0
H2245 H 0.91059 0.21884 0.4885 0.0
H2246 H 0.813 0.15694 0.51486 0.0
H2247 H 0.89345 0.18562 0.54565 0.0
H2248 H 0.82305 0.12747 0.47353 0.0
H2249 H 0.83377 0.16253 0.46903 0.0
H2250 H 0.80381 0.14355 0.48197 0.0
H2251 H 0.92112 0.16178 0.51079 0.0
H2252 H 0.93103 0.18721 0.53113 0.0
H2253 H 0.93194 0.19714 0.50717 0.0
C2254 C 0.84416 0.73315 0.46951 0.0
C2255 C 0.87032 0.74658 0.46226 0.0
C2256 C 0.84148 0.72462 0.488 0.0
C2257 C 0.86548 0.72923 0.4996 0.0
C2258 C 0.89197 0.74276 0.49245 0.0
C2259 C 0.89409 0.75134 0.47391 0.0
C2260 C 0.81284 0.71032 0.49504 0.0
C2261 C 0.91804 0.74795 0.50432 0.0
C2262 C 0.85992 0.72654 0.55314 0.0
C2263 C 0.8533 0.69904 0.55548 0.0
C2264 C 0.86444 0.73681 0.53514 0.0
C2265 C 0.86257 0.71929 0.51903 0.0
C2266 C 0.85656 0.69176 0.52135 0.0
C2267 C 0.85187 0.68195 0.53947 0.0
C2268 C 0.87068 0.76624 0.53329 0.0
C2269 C 0.85446 0.67241 0.50458 0.0
H2270 H 0.82552 0.72872 0.46056 0.0
H2271 H 0.91442 0.76187 0.46856 0.0
H2272 H 0.80703 0.68882 0.49805 0.0
H2273 H 0.81309 0.72162 0.50862 0.0
H2274 H 0.79642 0.70917 0.48453 0.0
H2275 H 0.9371 0.75899 0.49679 0.0
H2276 H 0.921 0.76056 0.51794 0.0
H2277 H 0.91576 0.72782 0.50799 0.0
H2278 H 0.86159 0.74013 0.56542 0.0
H2279 H 0.84639 0.66057 0.54096 0.0
H2280 H 0.85387 0.76587 0.52365 0.0
H2281 H 0.89055 0.77811 0.5268 0.0
H2282 H 0.87236 0.77753 0.54728 0.0
H2283 H 0.8367 0.66815 0.49408 0.0
H2284 H 0.85129 0.65222 0.50893 0.0
H2285 H 0.87375 0.68241 0.4972 0.0
loop_
_geom_bond_atom_site_label_1
_geom_bond_atom_site_label_2
_geom_bond_distance
_geom_bond_site_symmetry_2
_ccdc_geom_bond_type
H0 C3 0.929 . S
H1 C6 0.929 . S
H2 C8 0.930 . S
C3 H0 0.929 . S
C3 C4 1.398 . S
C3 C5 1.396 . S
C4 C3 1.398 . S
C4 C8 1.407 . S
C5 C3 1.396 . S
C5 C6 1.394 . S
C6 H1 0.929 . S
C6 C5 1.394 . S
C6 C7 1.382 . S
C7 C6 1.382 . S
C7 C8 1.392 . S
C7 N9 1.420 . S
C8 H2 0.930 . S
C8 C4 1.407 . S
C8 C7 1.392 . S
N9 C7 1.420 . S
N9 C10 1.244 . S
C10 N9 1.244 . S
H11 C14 0.929 . S
H12 C17 0.929 . S
H13 C19 0.930 . S
C14 H11 0.929 . S
C14 C15 1.398 . S
C14 C16 1.396 . S
C15 C14 1.398 . S
C15 C19 1.407 . S
C16 C14 1.396 . S
C16 C17 1.394 . S
C17 H12 0.929 . S
C17 C16 1.394 . S
C17 C18 1.382 . S
C18 C17 1.382 . S
C18 C19 1.392 . S
C18 N20 1.420 . S
C19 H13 0.930 . S
C19 C15 1.407 . S
C19 C18 1.392 . S
N20 C18 1.420 . S
N20 C21 1.244 . S
C21 N20 1.244 . S
H22 C25 0.929 . S
H23 C28 0.929 . S
H24 C30 0.930 . S
C25 H22 0.929 . S
C25 C26 1.398 . S
C25 C27 1.396 . S
C26 C25 1.398 . S
C26 C30 1.407 . S
C27 C25 1.396 . S
C27 C28 1.394 . S
C28 H23 0.929 . S
C28 C27 1.394 . S
C28 C29 1.382 . S
C29 C28 1.382 . S
C29 C30 1.392 . S
C29 N31 1.420 . S
C30 H24 0.930 . S
C30 C26 1.407 . S
C30 C29 1.392 . S
N31 C29 1.420 . S
N31 C32 1.244 . S
C32 N31 1.244 . S
H33 C36 0.929 . S
H34 C39 0.929 . S
H35 C41 0.930 . S
C36 H33 0.929 . S
C36 C37 1.398 . S
C36 C38 1.396 . S
C37 C36 1.398 . S
C37 C41 1.407 . S
C38 C36 1.396 . S
C38 C39 1.394 . S
C39 H34 0.929 . S
C39 C38 1.394 . S
C39 C40 1.382 . S
C40 C39 1.382 . S
C40 C41 1.392 . S
C40 N42 1.420 . S
C41 H35 0.930 . S
C41 C37 1.407 . S
C41 C40 1.392 . S
N42 C40 1.420 . S
N42 C43 1.244 . S
C43 N42 1.244 . S
H44 C47 0.929 . S
H45 C50 0.929 . S
H46 C52 0.930 . S
C47 H44 0.929 . S
C47 C48 1.398 . S
C47 C49 1.396 . S
C48 C47 1.398 . S
C48 C52 1.407 . S
C49 C47 1.396 . S
C49 C50 1.394 . S
C50 H45 0.929 . S
C50 C49 1.394 . S
C50 C51 1.382 . S
C51 C50 1.382 . S
C51 C52 1.392 . S
C51 N53 1.420 . S
C52 H46 0.930 . S
C52 C48 1.407 . S
C52 C51 1.392 . S
N53 C51 1.420 . S
N53 C54 1.244 . S
C54 N53 1.244 . S
H55 C58 0.929 . S
H56 C61 0.929 . S
H57 C63 0.930 . S
C58 H55 0.929 . S
C58 C59 1.398 . S
C58 C60 1.396 . S
C59 C58 1.398 . S
C59 C63 1.407 . S
C60 C58 1.396 . S
C60 C61 1.394 . S
C61 H56 0.929 . S
C61 C60 1.394 . S
C61 C62 1.382 . S
C62 C61 1.382 . S
C62 C63 1.392 . S
C62 N64 1.420 . S
C63 H57 0.930 . S
C63 C59 1.407 . S
C63 C62 1.392 . S
N64 C62 1.420 . S
N64 C65 1.244 . S
C65 N64 1.244 . S
H66 C69 0.929 . S
H67 C72 0.929 . S
H68 C74 0.930 . S
C69 H66 0.929 . S
C69 C70 1.398 . S
C69 C71 1.396 . S
C70 C69 1.398 . S
C70 C74 1.407 . S
C71 C69 1.396 . S
C71 C72 1.394 . S
C72 H67 0.929 . S
C72 C71 1.394 . S
C72 C73 1.382 . S
C73 C72 1.382 . S
C73 C74 1.392 . S
C73 N75 1.420 . S
C74 H68 0.930 . S
C74 C70 1.407 . S
C74 C73 1.392 . S
N75 C73 1.420 . S
N75 C76 1.244 . S
C76 N75 1.244 . S
H77 C80 0.929 . S
H78 C83 0.929 . S
H79 C85 0.930 . S
C80 H77 0.929 . S
C80 C81 1.398 . S
C80 C82 1.396 . S
C81 C80 1.398 . S
C81 C85 1.407 . S
C82 C80 1.396 . S
C82 C83 1.394 . S
C83 H78 0.929 . S
C83 C82 1.394 . S
C83 C84 1.382 . S
C84 C83 1.382 . S
C84 C85 1.392 . S
C84 N86 1.420 . S
C85 H79 0.930 . S
C85 C81 1.407 . S
C85 C84 1.392 . S
N86 C84 1.420 . S
N86 C87 1.244 . S
C87 N86 1.244 . S
H88 C91 0.929 . S
H89 C94 0.929 . S
H90 C96 0.930 . S
C91 H88 0.929 . S
C91 C92 1.398 . S
C91 C93 1.396 . S
C92 C91 1.398 . S
C92 C96 1.407 . S
C93 C91 1.396 . S
C93 C94 1.394 . S
C94 H89 0.929 . S
C94 C93 1.394 . S
C94 C95 1.382 . S
C95 C94 1.382 . S
C95 C96 1.392 . S
C95 N97 1.420 . S
C96 H90 0.930 . S
C96 C92 1.407 . S
C96 C95 1.392 . S
N97 C95 1.420 . S
N97 C98 1.244 . S
C98 N97 1.244 . S
H99 C102 0.929 . S
H100 C105 0.929 . S
H101 C107 0.930 . S
C102 H99 0.929 . S
C102 C103 1.398 . S
C102 C104 1.396 . S
C103 C102 1.398 . S
C103 C107 1.407 . S
C104 C102 1.396 . S
C104 C105 1.394 . S
C105 H100 0.929 . S
C105 C104 1.394 . S
C105 C106 1.382 . S
C106 C105 1.382 . S
C106 C107 1.392 . S
C106 N108 1.420 . S
C107 H101 0.930 . S
C107 C103 1.407 . S
C107 C106 1.392 . S
N108 C106 1.420 . S
N108 C109 1.244 . S
C109 N108 1.244 . S
H110 C113 0.929 . S
H111 C116 0.929 . S
H112 C118 0.930 . S
C113 H110 0.929 . S
C113 C114 1.398 . S
C113 C115 1.396 . S
C114 C113 1.398 . S
C114 C118 1.407 . S
C115 C113 1.396 . S
C115 C116 1.394 . S
C116 H111 0.929 . S
C116 C115 1.394 . S
C116 C117 1.382 . S
C117 C116 1.382 . S
C117 C118 1.392 . S
C117 N119 1.420 . S
C118 H112 0.930 . S
C118 C114 1.407 . S
C118 C117 1.392 . S
N119 C117 1.420 . S
N119 C120 1.244 . S
C120 N119 1.244 . S
H121 C124 0.929 . S
H122 C127 0.929 . S
H123 C129 0.930 . S
C124 H121 0.929 . S
C124 C125 1.398 . S
C124 C126 1.396 . S
C125 C124 1.398 . S
C125 C129 1.407 . S
C126 C124 1.396 . S
C126 C127 1.394 . S
C127 H122 0.929 . S
C127 C126 1.394 . S
C127 C128 1.382 . S
C128 C127 1.382 . S
C128 C129 1.392 . S
C128 N130 1.420 . S
C129 H123 0.930 . S
C129 C125 1.407 . S
C129 C128 1.392 . S
N130 C128 1.420 . S
N130 C131 1.244 . S
C131 N130 1.244 . S
H132 C135 0.929 . S
H133 C138 0.929 . S
H134 C140 0.930 . S
C135 H132 0.929 . S
C135 C136 1.398 . S
C135 C137 1.396 . S
C136 C135 1.398 . S
C136 C140 1.407 . S
C137 C135 1.396 . S
C137 C138 1.394 . S
C138 H133 0.929 . S
C138 C137 1.394 . S
C138 C139 1.382 . S
C139 C138 1.382 . S
C139 C140 1.392 . S
C139 N141 1.420 . S
C140 H134 0.930 . S
C140 C136 1.407 . S
C140 C139 1.392 . S
N141 C139 1.420 . S
N141 C142 1.244 . S
C142 N141 1.244 . S
H143 C146 0.929 . S
H144 C149 0.929 . S
H145 C151 0.930 . S
C146 H143 0.929 . S
C146 C147 1.398 . S
C146 C148 1.396 . S
C147 C146 1.398 . S
C147 C151 1.407 . S
C148 C146 1.396 . S
C148 C149 1.394 . S
C149 H144 0.929 . S
C149 C148 1.394 . S
C149 C150 1.382 . S
C150 C149 1.382 . S
C150 C151 1.392 . S
C150 N152 1.420 . S
C151 H145 0.930 . S
C151 C147 1.407 . S
C151 C150 1.392 . S
N152 C150 1.420 . S
N152 C153 1.244 . S
C153 N152 1.244 . S
H154 C157 0.929 . S
H155 C160 0.929 . S
H156 C162 0.930 . S
C157 H154 0.929 . S
C157 C158 1.398 . S
C157 C159 1.396 . S
C158 C157 1.398 . S
C158 C162 1.407 . S
C159 C157 1.396 . S
C159 C160 1.394 . S
C160 H155 0.929 . S
C160 C159 1.394 . S
C160 C161 1.382 . S
C161 C160 1.382 . S
C161 C162 1.392 . S
C161 N163 1.420 . S
C162 H156 0.930 . S
C162 C158 1.407 . S
C162 C161 1.392 . S
N163 C161 1.420 . S
N163 C164 1.244 . S
C164 N163 1.244 . S
H165 C168 0.929 . S
H166 C171 0.929 . S
H167 C173 0.930 . S
C168 H165 0.929 . S
C168 C169 1.398 . S
C168 C170 1.396 . S
C169 C168 1.398 . S
C169 C173 1.407 . S
C170 C168 1.396 . S
C170 C171 1.394 . S
C171 H166 0.929 . S
C171 C170 1.394 . S
C171 C172 1.382 . S
C172 C171 1.382 . S
C172 C173 1.392 . S
C172 N174 1.420 . S
C173 H167 0.930 . S
C173 C169 1.407 . S
C173 C172 1.392 . S
N174 C172 1.420 . S
N174 C175 1.244 . S
C175 N174 1.244 . S
H176 C179 0.929 . S
H177 C182 0.929 . S
H178 C184 0.930 . S
C179 H176 0.929 . S
C179 C180 1.398 . S
C179 C181 1.396 . S
C180 C179 1.398 . S
C180 C184 1.407 . S
C181 C179 1.396 . S
C181 C182 1.394 . S
C182 H177 0.929 . S
C182 C181 1.394 . S
C182 C183 1.382 . S
C183 C182 1.382 . S
C183 C184 1.392 . S
C183 N185 1.420 . S
C184 H178 0.930 . S
C184 C180 1.407 . S
C184 C183 1.392 . S
N185 C183 1.420 . S
N185 C186 1.244 . S
C186 N185 1.244 . S
H187 C190 0.929 . S
H188 C193 0.929 . S
H189 C195 0.930 . S
C190 H187 0.929 . S
C190 C191 1.398 . S
C190 C192 1.396 . S
C191 C190 1.398 . S
C191 C195 1.407 . S
C192 C190 1.396 . S
C192 C193 1.394 . S
C193 H188 0.929 . S
C193 C192 1.394 . S
C193 C194 1.382 . S
C194 C193 1.382 . S
C194 C195 1.392 . S
C194 N196 1.420 . S
C195 H189 0.930 . S
C195 C191 1.407 . S
C195 C194 1.392 . S
N196 C194 1.420 . S
N196 C197 1.244 . S
C197 N196 1.244 . S
Eu198 C207 2.828 1_565 S
Eu198 O209 2.392 . S
Eu198 O211 2.418 . S
Eu198 O216 2.373 1_565 S
Eu198 O219 2.488 . S
Eu198 O220 2.471 1_565 S
Eu198 O221 2.349 1_565 S
Eu199 O208 2.373 1_545 S
Eu199 O212 2.488 . S
Eu199 O213 2.471 1_545 S
Eu199 O214 2.349 1_545 S
Eu199 O217 2.392 . S
Eu199 O218 2.418 . S
Eu199 C228 2.828 . S
C200 O218 1.244 . S
C200 O221 1.265 1_554 S
C201 C202 1.379 . S
C201 C205 1.373 1_545 S
C201 C207 1.505 . S
C202 C201 1.379 . S
C202 C204 1.369 . S
C202 H230 0.930 . S
C203 C205 1.383 1_545 S
C203 C206 1.382 . S
C203 H231 0.930 1_545 S
C204 C202 1.369 . S
C204 C206 1.392 . S
C204 H232 0.930 . S
C205 C201 1.373 1_565 S
C205 C203 1.383 1_565 S
C205 H233 0.931 . S
C206 C203 1.382 . S
C206 C204 1.392 . S
C207 Eu198 2.828 1_545 S
C207 C201 1.505 . S
C207 O219 1.249 1_545 S
C207 O220 1.244 . S
O208 Eu199 2.373 1_565 S
O208 C210 1.258 . S
O209 Eu198 2.392 . S
O209 C210 1.242 1_556 S
C210 O208 1.258 . S
C210 O209 1.242 1_554 S
O211 Eu198 2.418 . S
O211 C215 1.244 1_556 S
O212 Eu199 2.488 . S
O212 C228 1.249 . S
O213 Eu199 2.471 1_565 S
O213 C228 1.244 1_565 S
O214 Eu199 2.349 1_565 S
O214 C215 1.265 . S
C215 O211 1.244 1_554 S
C215 O214 1.265 . S
O216 Eu198 2.373 1_545 S
O216 C229 1.258 . S
O217 Eu199 2.392 . S
O217 C229 1.242 1_554 S
O218 Eu199 2.418 . S
O218 C200 1.244 . S
O219 Eu198 2.488 . S
O219 C207 1.249 1_565 S
O220 Eu198 2.471 1_545 S
O220 C207 1.244 . S
O221 Eu198 2.349 1_545 S
O221 C200 1.265 1_556 S
C222 C223 1.379 . S
C222 C226 1.373 1_565 S
C222 C228 1.505 1_565 S
C223 C222 1.379 . S
C223 C225 1.369 . S
C223 H234 0.930 . S
C224 C226 1.383 . S
C224 C227 1.382 1_545 S
C224 H235 0.930 . S
C225 C223 1.369 . S
C225 C227 1.392 . S
C225 H236 0.930 . S
C226 C222 1.373 1_545 S
C226 C224 1.383 . S
C226 H237 0.931 . S
C227 C224 1.382 1_565 S
C227 C225 1.392 . S
C228 Eu199 2.828 . S
C228 O212 1.249 . S
C228 O213 1.244 1_545 S
C228 C222 1.505 1_545 S
C229 O216 1.258 . S
C229 O217 1.242 1_556 S
H230 C202 0.930 . S
H231 C203 0.930 1_565 S
H232 C204 0.930 . S
H233 C205 0.931 . S
H234 C223 0.930 . S
H235 C224 0.930 . S
H236 C225 0.930 . S
H237 C226 0.931 . S
Eu238 C247 2.817 1_455 S
Eu238 O249 2.392 1_556 S
Eu238 O251 2.418 . S
Eu238 O256 2.373 1_455 S
Eu238 O259 2.488 . S
Eu238 O260 2.471 1_455 S
Eu238 O261 2.349 1_455 S
Eu239 O248 2.373 1_655 S
Eu239 O252 2.488 . S
Eu239 O253 2.471 1_655 S
Eu239 O254 2.349 1_655 S
Eu239 O257 2.392 . S
Eu239 O258 2.418 . S
Eu239 C268 2.828 1_655 S
C240 O258 1.244 . S
C240 O261 1.265 1_554 S
C241 C242 1.379 . S
C241 C245 1.373 1_655 S
C241 C247 1.518 . S
C242 C241 1.379 . S
C242 C244 1.369 . S
C242 H270 0.930 . S
C243 C245 1.383 1_655 S
C243 C246 1.382 . S
C243 H271 0.930 1_655 S
C244 C242 1.369 . S
C244 C246 1.392 . S
C244 H272 0.930 . S
C245 C241 1.373 1_455 S
C245 C243 1.383 1_455 S
C245 H273 0.931 . S
C246 C243 1.382 . S
C246 C244 1.392 . S
C247 Eu238 2.817 1_655 S
C247 C241 1.518 . S
C247 O259 1.234 1_655 S
C247 O260 1.248 . S
O248 Eu239 2.373 1_455 S
O248 C250 1.258 . S
O249 Eu238 2.392 1_554 S
O249 C250 1.242 . S
C250 O248 1.258 . S
C250 O249 1.242 . S
O251 Eu238 2.418 . S
O251 C255 1.244 1_556 S
O252 Eu239 2.488 . S
O252 C268 1.249 1_655 S
O253 Eu239 2.471 1_455 S
O253 C268 1.244 . S
O254 Eu239 2.349 1_455 S
O254 C255 1.265 . S
C255 O251 1.244 1_554 S
C255 O254 1.265 . S
O256 Eu238 2.373 1_655 S
O256 C269 1.258 . S
O257 Eu239 2.392 . S
O257 C269 1.242 1_554 S
O258 Eu239 2.418 . S
O258 C240 1.244 . S
O259 Eu238 2.488 . S
O259 C247 1.234 1_455 S
O260 Eu238 2.471 1_655 S
O260 C247 1.248 . S
O261 Eu238 2.349 1_655 S
O261 C240 1.265 1_556 S
C262 C263 1.379 . S
C262 C266 1.360 1_455 S
C262 C268 1.505 . S
C263 C262 1.379 . S
C263 C265 1.369 . S
C263 H274 0.930 . S
C264 C266 1.368 1_455 S
C264 C267 1.382 . S
C264 H275 0.930 1_455 S
C265 C263 1.369 . S
C265 C267 1.392 . S
C265 H276 0.930 . S
C266 C262 1.360 1_655 S
C266 C264 1.368 1_655 S
C266 H277 0.961 . S
C267 C264 1.382 . S
C267 C265 1.392 . S
C268 Eu239 2.828 1_455 S
C268 O252 1.249 1_455 S
C268 O253 1.244 . S
C268 C262 1.505 . S
C269 O256 1.258 . S
C269 O257 1.242 1_556 S
H270 C242 0.930 . S
H271 C243 0.930 1_455 S
H272 C244 0.930 . S
H273 C245 0.931 . S
H274 C263 0.930 . S
H275 C264 0.930 1_655 S
H276 C265 0.930 . S
H277 C266 0.961 . S
Eu278 C287 2.828 . S
Eu278 O289 2.392 . S
Eu278 O291 2.418 . S
Eu278 O296 2.373 . S
Eu278 O299 2.488 . S
Eu278 O300 2.471 . S
Eu278 O301 2.349 . S
Eu279 O288 2.373 . S
Eu279 O292 2.488 . S
Eu279 O293 2.471 . S
Eu279 O294 2.351 1_556 S
Eu279 O297 2.392 1_556 S
Eu279 O298 2.418 . S
Eu279 C308 2.828 . S
C280 O298 1.244 1_554 S
C280 O301 1.265 . S
C281 C282 1.379 . S
C281 C285 1.373 . S
C281 C287 1.505 . S
C282 C281 1.379 . S
C282 C284 1.369 . S
C282 H310 0.930 . S
C283 C285 1.383 . S
C283 C286 1.382 . S
C283 H311 0.930 . S
C284 C282 1.369 . S
C284 C286 1.392 . S
C284 H312 0.930 . S
C285 C281 1.373 . S
C285 C283 1.383 . S
C285 H313 0.931 . S
C286 C283 1.382 . S
C286 C284 1.392 . S
C287 Eu278 2.828 . S
C287 C281 1.505 . S
C287 O299 1.249 . S
C287 O300 1.244 . S
O288 Eu279 2.373 . S
O288 C290 1.258 . S
O289 Eu278 2.392 . S
O289 C290 1.242 1_554 S
C290 O288 1.258 . S
C290 O289 1.242 1_556 S
O291 Eu278 2.418 . S
O291 C295 1.244 . S
O292 Eu279 2.488 . S
O292 C308 1.249 . S
O293 Eu279 2.471 . S
O293 C308 1.244 . S
O294 Eu279 2.351 1_554 S
O294 C295 1.263 . S
C295 O291 1.244 . S
C295 O294 1.263 . S
O296 Eu278 2.373 . S
O296 C309 1.258 . S
O297 Eu279 2.392 1_554 S
O297 C309 1.242 . S
O298 Eu279 2.418 . S
O298 C280 1.244 1_556 S
O299 Eu278 2.488 . S
O299 C287 1.249 . S
O300 Eu278 2.471 . S
O300 C287 1.244 . S
O301 Eu278 2.349 . S
O301 C280 1.265 . S
C302 C303 1.379 . S
C302 C306 1.373 . S
C302 C308 1.505 . S
C303 C302 1.379 . S
C303 C305 1.369 . S
C303 H314 0.930 . S
C304 C306 1.383 . S
C304 C307 1.382 . S
C304 H315 0.930 . S
C305 C303 1.369 . S
C305 C307 1.392 . S
C305 H316 0.930 . S
C306 C302 1.373 . S
C306 C304 1.383 . S
C306 H317 0.931 . S
C307 C304 1.382 . S
C307 C305 1.392 . S
C308 Eu279 2.828 . S
C308 O292 1.249 . S
C308 O293 1.244 . S
C308 C302 1.505 . S
C309 O296 1.258 . S
C309 O297 1.242 . S
H310 C282 0.930 . S
H311 C283 0.930 . S
H312 C284 0.930 . S
H313 C285 0.931 . S
H314 C303 0.930 . S
H315 C304 0.930 . S
H316 C305 0.930 . S
H317 C306 0.931 . S
Eu318 C327 2.828 . S
Eu318 O329 2.392 . S
Eu318 O331 2.418 . S
Eu318 O336 2.373 . S
Eu318 O339 2.488 . S
Eu318 O340 2.471 . S
Eu318 O341 2.349 . S
Eu319 O328 2.373 . S
Eu319 O332 2.488 . S
Eu319 O333 2.471 . S
Eu319 O334 2.349 . S
Eu319 O337 2.392 . S
Eu319 O338 2.418 . S
Eu319 C348 2.828 . S
C320 O338 1.244 . S
C320 O341 1.265 . S
C321 C322 1.379 . S
C321 C325 1.373 . S
C321 C327 1.505 . S
C322 C321 1.379 . S
C322 C324 1.369 . S
C322 H350 0.930 . S
C323 C325 1.383 . S
C323 C326 1.382 . S
C323 H351 0.930 . S
C324 C322 1.369 . S
C324 C326 1.392 . S
C324 H352 0.930 . S
C325 C321 1.373 . S
C325 C323 1.383 . S
C325 H353 0.931 . S
C326 C323 1.382 . S
C326 C324 1.392 . S
C327 Eu318 2.828 . S
C327 C321 1.505 . S
C327 O339 1.249 . S
C327 O340 1.244 . S
O328 Eu319 2.373 . S
O328 C330 1.258 . S
O329 Eu318 2.392 . S
O329 C330 1.242 . S
C330 O328 1.258 . S
C330 O329 1.242 . S
O331 Eu318 2.418 . S
O331 C335 1.244 . S
O332 Eu319 2.488 . S
O332 C348 1.249 . S
O333 Eu319 2.471 . S
O333 C348 1.244 . S
O334 Eu319 2.349 . S
O334 C335 1.265 . S
C335 O331 1.244 . S
C335 O334 1.265 . S
O336 Eu318 2.373 . S
O336 C349 1.258 . S
O337 Eu319 2.392 . S
O337 C349 1.242 . S
O338 Eu319 2.418 . S
O338 C320 1.244 . S
O339 Eu318 2.488 . S
O339 C327 1.249 . S
O340 Eu318 2.471 . S
O340 C327 1.244 . S
O341 Eu318 2.349 . S
O341 C320 1.265 . S
C342 C343 1.379 . S
C342 C346 1.373 . S
C342 C348 1.505 . S
C343 C342 1.379 . S
C343 C345 1.369 . S
C343 H354 0.930 . S
C344 C346 1.383 . S
C344 C347 1.382 . S
C344 H355 0.930 . S
C345 C343 1.369 . S
C345 C347 1.392 . S
C345 H356 0.930 . S
C346 C342 1.373 . S
C346 C344 1.383 . S
C346 H357 0.931 . S
C347 C344 1.382 . S
C347 C345 1.392 . S
C348 Eu319 2.828 . S
C348 O332 1.249 . S
C348 O333 1.244 . S
C348 C342 1.505 . S
C349 O336 1.258 . S
C349 O337 1.242 . S
H350 C322 0.930 . S
H351 C323 0.930 . S
H352 C324 0.930 . S
H353 C325 0.931 . S
H354 C343 0.930 . S
H355 C344 0.930 . S
H356 C345 0.930 . S
H357 C346 0.931 . S
Eu358 C367 2.828 . S
Eu358 O369 2.392 . S
Eu358 O371 2.418 . S
Eu358 O376 2.373 . S
Eu358 O379 2.488 . S
Eu358 O380 2.471 . S
Eu358 O381 2.349 . S
Eu359 O368 2.373 . S
Eu359 O372 2.488 . S
Eu359 O373 2.471 . S
Eu359 O374 2.349 . S
Eu359 O377 2.392 . S
Eu359 O378 2.418 . S
Eu359 C388 2.828 . S
C360 O378 1.244 . S
C360 O381 1.265 . S
C361 C362 1.379 . S
C361 C365 1.373 . S
C361 C367 1.505 . S
C362 C361 1.379 . S
C362 C364 1.369 . S
C362 H390 0.930 . S
C363 C365 1.383 . S
C363 C366 1.382 . S
C363 H391 0.930 . S
C364 C362 1.369 . S
C364 C366 1.392 . S
C364 H392 0.930 . S
C365 C361 1.373 . S
C365 C363 1.383 . S
C365 H393 0.931 . S
C366 C363 1.382 . S
C366 C364 1.392 . S
C367 Eu358 2.828 . S
C367 C361 1.505 . S
C367 O379 1.249 . S
C367 O380 1.244 . S
O368 Eu359 2.373 . S
O368 C370 1.258 . S
O369 Eu358 2.392 . S
O369 C370 1.242 . S
C370 O368 1.258 . S
C370 O369 1.242 . S
O371 Eu358 2.418 . S
O371 C375 1.244 . S
O372 Eu359 2.488 . S
O372 C388 1.249 . S
O373 Eu359 2.471 . S
O373 C388 1.244 . S
O374 Eu359 2.349 . S
O374 C375 1.265 . S
C375 O371 1.244 . S
C375 O374 1.265 . S
O376 Eu358 2.373 . S
O376 C389 1.258 . S
O377 Eu359 2.392 . S
O377 C389 1.242 . S
O378 Eu359 2.418 . S
O378 C360 1.244 . S
O379 Eu358 2.488 . S
O379 C367 1.249 . S
O380 Eu358 2.471 . S
O380 C367 1.244 . S
O381 Eu358 2.349 . S
O381 C360 1.265 . S
C382 C383 1.379 . S
C382 C386 1.373 . S
C382 C388 1.505 . S
C383 C382 1.379 . S
C383 C385 1.369 . S
C383 H394 0.930 . S
C384 C386 1.383 . S
C384 C387 1.382 . S
C384 H395 0.930 . S
C385 C383 1.369 . S
C385 C387 1.392 . S
C385 H396 0.930 . S
C386 C382 1.373 . S
C386 C384 1.383 . S
C386 H397 0.931 . S
C387 C384 1.382 . S
C387 C385 1.392 . S
C388 Eu359 2.828 . S
C388 O372 1.249 . S
C388 O373 1.244 . S
C388 C382 1.505 . S
C389 O376 1.258 . S
C389 O377 1.242 . S
H390 C362 0.930 . S
H391 C363 0.930 . S
H392 C364 0.930 . S
H393 C365 0.931 . S
H394 C383 0.930 . S
H395 C384 0.930 . S
H396 C385 0.930 . S
H397 C386 0.931 . S
Eu398 C407 2.828 . S
Eu398 O409 2.392 . S
Eu398 O411 2.418 . S
Eu398 O416 2.373 . S
Eu398 O419 2.488 . S
Eu398 O420 2.471 . S
Eu398 O421 2.349 . S
Eu399 O408 2.373 . S
Eu399 O412 2.488 . S
Eu399 O413 2.471 . S
Eu399 O414 2.349 . S
Eu399 O417 2.392 . S
Eu399 O418 2.418 . S
Eu399 C428 2.828 . S
C400 O418 1.244 . S
C400 O421 1.265 . S
C401 C402 1.379 . S
C401 C405 1.373 . S
C401 C407 1.505 . S
C402 C401 1.379 . S
C402 C404 1.369 . S
C402 H430 0.930 . S
C403 C405 1.383 . S
C403 C406 1.382 . S
C403 H431 0.930 . S
C404 C402 1.369 . S
C404 C406 1.392 . S
C404 H432 0.930 . S
C405 C401 1.373 . S
C405 C403 1.383 . S
C405 H433 0.931 . S
C406 C403 1.382 . S
C406 C404 1.392 . S
C407 Eu398 2.828 . S
C407 C401 1.505 . S
C407 O419 1.249 . S
C407 O420 1.244 . S
O408 Eu399 2.373 . S
O408 C410 1.258 . S
O409 Eu398 2.392 . S
O409 C410 1.242 . S
C410 O408 1.258 . S
C410 O409 1.242 . S
O411 Eu398 2.418 . S
O411 C415 1.244 . S
O412 Eu399 2.488 . S
O412 C428 1.249 . S
O413 Eu399 2.471 . S
O413 C428 1.244 . S
O414 Eu399 2.349 . S
O414 C415 1.265 . S
C415 O411 1.244 . S
C415 O414 1.265 . S
O416 Eu398 2.373 . S
O416 C429 1.258 . S
O417 Eu399 2.392 . S
O417 C429 1.242 . S
O418 Eu399 2.418 . S
O418 C400 1.244 . S
O419 Eu398 2.488 . S
O419 C407 1.249 . S
O420 Eu398 2.471 . S
O420 C407 1.244 . S
O421 Eu398 2.349 . S
O421 C400 1.265 . S
C422 C423 1.379 . S
C422 C426 1.373 . S
C422 C428 1.505 . S
C423 C422 1.379 . S
C423 C425 1.369 . S
C423 H434 0.930 . S
C424 C426 1.383 . S
C424 C427 1.382 . S
C424 H435 0.930 . S
C425 C423 1.369 . S
C425 C427 1.392 . S
C425 H436 0.930 . S
C426 C422 1.373 . S
C426 C424 1.383 . S
C426 H437 0.931 . S
C427 C424 1.382 . S
C427 C425 1.392 . S
C428 Eu399 2.828 . S
C428 O412 1.249 . S
C428 O413 1.244 . S
C428 C422 1.505 . S
C429 O416 1.258 . S
C429 O417 1.242 . S
H430 C402 0.930 . S
H431 C403 0.930 . S
H432 C404 0.930 . S
H433 C405 0.931 . S
H434 C423 0.930 . S
H435 C424 0.930 . S
H436 C425 0.930 . S
H437 C426 0.931 . S
Eu438 C447 2.828 . S
Eu438 O449 2.392 . S
Eu438 O451 2.418 . S
Eu438 O456 2.373 . S
Eu438 O459 2.488 . S
Eu438 O460 2.471 . S
Eu438 O461 2.349 . S
Eu439 O448 2.373 . S
Eu439 O452 2.488 . S
Eu439 O453 2.471 . S
Eu439 O454 2.349 . S
Eu439 O457 2.392 . S
Eu439 O458 2.418 . S
Eu439 C468 2.828 . S
C440 O458 1.244 . S
C440 O461 1.265 . S
C441 C442 1.379 . S
C441 C445 1.373 . S
C441 C447 1.505 . S
C442 C441 1.379 . S
C442 C444 1.369 . S
C442 H470 0.930 . S
C443 C445 1.383 . S
C443 C446 1.382 . S
C443 H471 0.930 . S
C444 C442 1.369 . S
C444 C446 1.392 . S
C444 H472 0.930 . S
C445 C441 1.373 . S
C445 C443 1.383 . S
C445 H473 0.931 . S
C446 C443 1.382 . S
C446 C444 1.392 . S
C447 Eu438 2.828 . S
C447 C441 1.505 . S
C447 O459 1.249 . S
C447 O460 1.244 . S
O448 Eu439 2.373 . S
O448 C450 1.258 . S
O449 Eu438 2.392 . S
O449 C450 1.242 . S
C450 O448 1.258 . S
C450 O449 1.242 . S
O451 Eu438 2.418 . S
O451 C455 1.244 . S
O452 Eu439 2.488 . S
O452 C468 1.249 . S
O453 Eu439 2.471 . S
O453 C468 1.244 . S
O454 Eu439 2.349 . S
O454 C455 1.265 . S
C455 O451 1.244 . S
C455 O454 1.265 . S
O456 Eu438 2.373 . S
O456 C469 1.258 . S
O457 Eu439 2.392 . S
O457 C469 1.242 . S
O458 Eu439 2.418 . S
O458 C440 1.244 . S
O459 Eu438 2.488 . S
O459 C447 1.249 . S
O460 Eu438 2.471 . S
O460 C447 1.244 . S
O461 Eu438 2.349 . S
O461 C440 1.265 . S
C462 C463 1.379 . S
C462 C466 1.373 . S
C462 C468 1.505 . S
C463 C462 1.379 . S
C463 C465 1.369 . S
C463 H474 0.930 . S
C464 C466 1.383 . S
C464 C467 1.382 . S
C464 H475 0.930 . S
C465 C463 1.369 . S
C465 C467 1.392 . S
C465 H476 0.930 . S
C466 C462 1.373 . S
C466 C464 1.383 . S
C466 H477 0.931 . S
C467 C464 1.382 . S
C467 C465 1.392 . S
C468 Eu439 2.828 . S
C468 O452 1.249 . S
C468 O453 1.244 . S
C468 C462 1.505 . S
C469 O456 1.258 . S
C469 O457 1.242 . S
H470 C442 0.930 . S
H471 C443 0.930 . S
H472 C444 0.930 . S
H473 C445 0.931 . S
H474 C463 0.930 . S
H475 C464 0.930 . S
H476 C465 0.930 . S
H477 C466 0.931 . S
Eu478 C487 2.828 . S
Eu478 O489 2.392 . S
Eu478 O491 2.418 . S
Eu478 O496 2.373 . S
Eu478 O499 2.488 . S
Eu478 O500 2.471 . S
Eu478 O501 2.349 . S
Eu479 O488 2.373 . S
Eu479 O492 2.488 . S
Eu479 O493 2.471 . S
Eu479 O494 2.349 . S
Eu479 O497 2.392 . S
Eu479 O498 2.418 . S
Eu479 C508 2.828 . S
C480 O498 1.244 . S
C480 O501 1.265 . S
C481 C482 1.379 . S
C481 C485 1.373 . S
C481 C487 1.505 . S
C482 C481 1.379 . S
C482 C484 1.369 . S
C482 H510 0.930 . S
C483 C485 1.383 . S
C483 C486 1.382 . S
C483 H511 0.930 . S
C484 C482 1.369 . S
C484 C486 1.392 . S
C484 H512 0.930 . S
C485 C481 1.373 . S
C485 C483 1.383 . S
C485 H513 0.931 . S
C486 C483 1.382 . S
C486 C484 1.392 . S
C487 Eu478 2.828 . S
C487 C481 1.505 . S
C487 O499 1.249 . S
C487 O500 1.244 . S
O488 Eu479 2.373 . S
O488 C490 1.258 . S
O489 Eu478 2.392 . S
O489 C490 1.242 . S
C490 O488 1.258 . S
C490 O489 1.242 . S
O491 Eu478 2.418 . S
O491 C495 1.244 . S
O492 Eu479 2.488 . S
O492 C508 1.249 . S
O493 Eu479 2.471 . S
O493 C508 1.244 . S
O494 Eu479 2.349 . S
O494 C495 1.265 . S
C495 O491 1.244 . S
C495 O494 1.265 . S
O496 Eu478 2.373 . S
O496 C509 1.258 . S
O497 Eu479 2.392 . S
O497 C509 1.242 . S
O498 Eu479 2.418 . S
O498 C480 1.244 . S
O499 Eu478 2.488 . S
O499 C487 1.249 . S
O500 Eu478 2.471 . S
O500 C487 1.244 . S
O501 Eu478 2.349 . S
O501 C480 1.265 . S
C502 C503 1.379 . S
C502 C506 1.373 . S
C502 C508 1.505 . S
C503 C502 1.379 . S
C503 C505 1.369 . S
C503 H514 0.930 . S
C504 C506 1.383 . S
C504 C507 1.382 . S
C504 H515 0.930 . S
C505 C503 1.369 . S
C505 C507 1.392 . S
C505 H516 0.930 . S
C506 C502 1.373 . S
C506 C504 1.383 . S
C506 H517 0.931 . S
C507 C504 1.382 . S
C507 C505 1.392 . S
C508 Eu479 2.828 . S
C508 O492 1.249 . S
C508 O493 1.244 . S
C508 C502 1.505 . S
C509 O496 1.258 . S
C509 O497 1.242 . S
H510 C482 0.930 . S
H511 C483 0.930 . S
H512 C484 0.930 . S
H513 C485 0.931 . S
H514 C503 0.930 . S
H515 C504 0.930 . S
H516 C505 0.930 . S
H517 C506 0.931 . S
Eu518 C527 2.828 . S
Eu518 O529 2.392 . S
Eu518 O531 2.418 . S
Eu518 O536 2.373 . S
Eu518 O539 2.488 . S
Eu518 O540 2.471 . S
Eu518 O541 2.349 . S
Eu519 O528 2.373 . S
Eu519 O532 2.488 . S
Eu519 O533 2.471 . S
Eu519 O534 2.349 . S
Eu519 O537 2.392 . S
Eu519 O538 2.418 . S
Eu519 C548 2.828 . S
C520 O538 1.244 . S
C520 O541 1.265 . S
C521 C522 1.379 . S
C521 C525 1.373 . S
C521 C527 1.505 . S
C522 C521 1.379 . S
C522 C524 1.369 . S
C522 H550 0.930 . S
C523 C525 1.383 . S
C523 C526 1.382 . S
C523 H551 0.930 . S
C524 C522 1.369 . S
C524 C526 1.392 . S
C524 H552 0.930 . S
C525 C521 1.373 . S
C525 C523 1.383 . S
C525 H553 0.931 . S
C526 C523 1.382 . S
C526 C524 1.392 . S
C527 Eu518 2.828 . S
C527 C521 1.505 . S
C527 O539 1.249 . S
C527 O540 1.244 . S
O528 Eu519 2.373 . S
O528 C530 1.258 . S
O529 Eu518 2.392 . S
O529 C530 1.242 . S
C530 O528 1.258 . S
C530 O529 1.242 . S
O531 Eu518 2.418 . S
O531 C535 1.244 . S
O532 Eu519 2.488 . S
O532 C548 1.249 . S
O533 Eu519 2.471 . S
O533 C548 1.244 . S
O534 Eu519 2.349 . S
O534 C535 1.265 . S
C535 O531 1.244 . S
C535 O534 1.265 . S
O536 Eu518 2.373 . S
O536 C549 1.258 . S
O537 Eu519 2.392 . S
O537 C549 1.242 . S
O538 Eu519 2.418 . S
O538 C520 1.244 . S
O539 Eu518 2.488 . S
O539 C527 1.249 . S
O540 Eu518 2.471 . S
O540 C527 1.244 . S
O541 Eu518 2.349 . S
O541 C520 1.265 . S
C542 C543 1.379 . S
C542 C546 1.373 . S
C542 C548 1.505 . S
C543 C542 1.379 . S
C543 C545 1.369 . S
C543 H554 0.930 . S
C544 C546 1.383 . S
C544 C547 1.382 . S
C544 H555 0.930 . S
C545 C543 1.369 . S
C545 C547 1.392 . S
C545 H556 0.930 . S
C546 C542 1.373 . S
C546 C544 1.383 . S
C546 H557 0.931 . S
C547 C544 1.382 . S
C547 C545 1.392 . S
C548 Eu519 2.828 . S
C548 O532 1.249 . S
C548 O533 1.244 . S
C548 C542 1.505 . S
C549 O536 1.258 . S
C549 O537 1.242 . S
H550 C522 0.930 . S
H551 C523 0.930 . S
H552 C524 0.930 . S
H553 C525 0.931 . S
H554 C543 0.930 . S
H555 C544 0.930 . S
H556 C545 0.930 . S
H557 C546 0.931 . S
C558 C559 1.391 . S
C558 C560 1.394 . S
C558 H574 0.931 . S
C559 C558 1.391 . S
C559 C563 1.376 . S
C560 C558 1.394 . S
C560 C561 1.369 . S
C560 C564 1.531 . S
C561 C560 1.369 . S
C561 C562 1.410 . S
C561 C569 1.503 . S
C562 C561 1.410 . S
C562 C563 1.392 . S
C562 C565 1.540 . S
C563 C559 1.376 . S
C563 C562 1.392 . S
C563 H575 0.929 . S
C564 C560 1.531 . S
C564 H576 0.960 . S
C564 H577 0.962 . S
C564 H578 0.960 . S
C565 C562 1.540 . S
C565 H579 0.949 1_554 S
C565 H580 0.950 1_554 S
C565 H581 0.950 1_554 S
C566 C567 1.370 . S
C566 C568 1.363 . S
C566 H582 0.931 . S
C567 C566 1.370 . S
C567 C571 1.408 . S
C568 C566 1.363 . S
C568 C569 1.370 . S
C568 C572 1.524 . S
C569 C561 1.503 . S
C569 C568 1.370 . S
C569 C570 1.403 . S
C570 C569 1.403 . S
C570 C571 1.404 . S
C570 C573 1.539 . S
C571 C567 1.408 . S
C571 C570 1.404 . S
C571 H583 0.930 . S
C572 C568 1.524 . S
C572 H584 0.956 . S
C572 H585 0.961 . S
C572 H586 0.961 . S
C573 C570 1.539 . S
C573 H587 0.958 . S
C573 H588 0.961 . S
C573 H589 0.960 . S
H574 C558 0.931 . S
H575 C563 0.929 . S
H576 C564 0.960 . S
H577 C564 0.962 . S
H578 C564 0.960 . S
H579 C565 0.949 1_556 S
H580 C565 0.950 1_556 S
H581 C565 0.950 1_556 S
H582 C566 0.931 . S
H583 C571 0.930 . S
H584 C572 0.956 . S
H585 C572 0.961 . S
H586 C572 0.961 . S
H587 C573 0.958 . S
H588 C573 0.961 . S
H589 C573 0.960 . S
C590 C591 1.391 . S
C590 C592 1.394 . S
C590 H606 0.931 . S
C591 C590 1.391 . S
C591 C595 1.376 . S
C592 C590 1.394 . S
C592 C593 1.369 . S
C592 C596 1.531 . S
C593 C592 1.369 . S
C593 C594 1.410 . S
C593 C601 1.503 . S
C594 C593 1.410 . S
C594 C595 1.392 . S
C594 C597 1.511 . S
C595 C591 1.376 . S
C595 C594 1.392 . S
C595 H607 0.929 . S
C596 C592 1.531 . S
C596 H608 0.960 . S
C596 H609 0.962 . S
C596 H610 0.960 . S
C597 C594 1.511 . S
C597 H611 0.961 . S
C597 H612 0.961 . S
C597 H613 0.961 . S
C598 C599 1.370 . S
C598 C600 1.363 . S
C598 H614 0.931 . S
C599 C598 1.370 . S
C599 C603 1.408 . S
C600 C598 1.363 . S
C600 C601 1.370 . S
C600 C604 1.524 . S
C601 C593 1.503 . S
C601 C600 1.370 . S
C601 C602 1.403 . S
C602 C601 1.403 . S
C602 C603 1.404 . S
C602 C605 1.539 . S
C603 C599 1.408 . S
C603 C602 1.404 . S
C603 H615 0.930 . S
C604 C600 1.524 . S
C604 H616 0.956 . S
C604 H617 0.961 . S
C604 H618 0.961 . S
C605 C602 1.539 . S
C605 H619 0.958 . S
C605 H620 0.961 . S
C605 H621 0.960 . S
H606 C590 0.931 . S
H607 C595 0.929 . S
H608 C596 0.960 . S
H609 C596 0.962 . S
H610 C596 0.960 . S
H611 C597 0.961 . S
H612 C597 0.961 . S
H613 C597 0.961 . S
H614 C598 0.931 . S
H615 C603 0.930 . S
H616 C604 0.956 . S
H617 C604 0.961 . S
H618 C604 0.961 . S
H619 C605 0.958 . S
H620 C605 0.961 . S
H621 C605 0.960 . S
C622 C623 1.391 . S
C622 C624 1.394 . S
C622 H638 0.931 . S
C623 C622 1.391 . S
C623 C627 1.376 . S
C624 C622 1.394 . S
C624 C625 1.369 . S
C624 C628 1.531 . S
C625 C624 1.369 . S
C625 C626 1.410 . S
C625 C633 1.503 . S
C626 C625 1.410 . S
C626 C627 1.392 . S
C626 C629 1.511 . S
C627 C623 1.376 . S
C627 C626 1.392 . S
C627 H639 0.929 . S
C628 C624 1.531 . S
C628 H640 0.960 . S
C628 H641 0.962 . S
C628 H642 0.960 . S
C629 C626 1.511 . S
C629 H643 0.961 . S
C629 H644 0.961 . S
C629 H645 0.961 . S
C630 C631 1.370 . S
C630 C632 1.363 . S
C630 H646 0.931 . S
C631 C630 1.370 . S
C631 C635 1.408 . S
C632 C630 1.363 . S
C632 C633 1.370 . S
C632 C636 1.524 . S
C633 C625 1.503 . S
C633 C632 1.370 . S
C633 C634 1.403 . S
C634 C633 1.403 . S
C634 C635 1.404 . S
C634 C637 1.539 1_554 S
C635 C631 1.408 . S
C635 C634 1.404 . S
C635 H647 0.930 1_554 S
C636 C632 1.524 . S
C636 H648 0.956 . S
C636 H649 0.961 . S
C636 H650 0.961 . S
C637 C634 1.539 1_556 S
C637 H651 0.958 . S
C637 H652 0.961 . S
C637 H653 0.960 . S
H638 C622 0.931 . S
H639 C627 0.929 . S
H640 C628 0.960 . S
H641 C628 0.962 . S
H642 C628 0.960 . S
H643 C629 0.961 . S
H644 C629 0.961 . S
H645 C629 0.961 . S
H646 C630 0.931 . S
H647 C635 0.930 1_556 S
H648 C636 0.956 . S
H649 C636 0.961 . S
H650 C636 0.961 . S
H651 C637 0.958 . S
H652 C637 0.961 . S
H653 C637 0.960 . S
C654 C655 1.391 . S
C654 C656 1.394 . S
C654 H670 0.931 . S
C655 C654 1.391 . S
C655 C659 1.376 . S
C656 C654 1.394 . S
C656 C657 1.369 . S
C656 C660 1.531 . S
C657 C656 1.369 . S
C657 C658 1.410 . S
C657 C665 1.503 . S
C658 C657 1.410 . S
C658 C659 1.392 . S
C658 C661 1.511 . S
C659 C655 1.376 . S
C659 C658 1.392 . S
C659 H671 0.929 . S
C660 C656 1.531 . S
C660 H672 0.960 . S
C660 H673 0.939 1_556 S
C660 H674 0.960 . S
C661 C658 1.511 . S
C661 H675 0.961 . S
C661 H676 0.961 . S
C661 H677 0.961 . S
C662 C663 1.370 1_554 S
C662 C664 1.363 1_554 S
C662 H678 0.931 . S
C663 C662 1.370 1_556 S
C663 C667 1.408 . S
C664 C662 1.363 1_556 S
C664 C665 1.370 . S
C664 C668 1.524 1_556 S
C665 C657 1.503 . S
C665 C664 1.370 . S
C665 C666 1.403 . S
C666 C665 1.403 . S
C666 C667 1.404 . S
C666 C669 1.539 . S
C667 C663 1.408 . S
C667 C666 1.404 . S
C667 H679 0.930 . S
C668 C664 1.524 1_554 S
C668 H680 0.956 . S
C668 H681 0.961 . S
C668 H682 0.961 . S
C669 C666 1.539 . S
C669 H683 0.958 . S
C669 H684 0.961 . S
C669 H685 0.960 . S
H670 C654 0.931 . S
H671 C659 0.929 . S
H672 C660 0.960 . S
H673 C660 0.939 1_554 S
H674 C660 0.960 . S
H675 C661 0.961 . S
H676 C661 0.961 . S
H677 C661 0.961 . S
H678 C662 0.931 . S
H679 C667 0.930 . S
H680 C668 0.956 . S
H681 C668 0.961 . S
H682 C668 0.961 . S
H683 C669 0.958 . S
H684 C669 0.961 . S
H685 C669 0.960 . S
C686 C687 1.391 . S
C686 C688 1.394 . S
C686 H702 0.931 . S
C687 C686 1.391 . S
C687 C691 1.376 . S
C688 C686 1.394 . S
C688 C689 1.369 . S
C688 C692 1.531 . S
C689 C688 1.369 . S
C689 C690 1.410 . S
C689 C697 1.503 . S
C690 C689 1.410 . S
C690 C691 1.392 . S
C690 C693 1.511 . S
C691 C687 1.376 . S
C691 C690 1.392 . S
C691 H703 0.929 . S
C692 C688 1.531 . S
C692 H704 0.960 . S
C692 H705 0.962 . S
C692 H706 0.960 . S
C693 C690 1.511 . S
C693 H707 0.961 . S
C693 H708 0.961 . S
C693 H709 0.961 1_556 S
C694 C695 1.370 . S
C694 C696 1.363 . S
C694 H710 0.931 . S
C695 C694 1.370 . S
C695 C699 1.408 . S
C696 C694 1.363 . S
C696 C697 1.370 . S
C696 C700 1.524 . S
C697 C689 1.503 . S
C697 C696 1.370 . S
C697 C698 1.403 . S
C698 C697 1.403 . S
C698 C699 1.404 . S
C698 C701 1.539 . S
C699 C695 1.408 . S
C699 C698 1.404 . S
C699 H711 0.930 1_556 S
C700 C696 1.524 . S
C700 H712 0.956 . S
C700 H713 0.961 . S
C700 H714 0.961 . S
C701 C698 1.539 . S
C701 H715 0.958 . S
C701 H716 0.961 1_556 S
C701 H717 0.960 . S
H702 C686 0.931 . S
H703 C691 0.929 . S
H704 C692 0.960 . S
H705 C692 0.962 . S
H706 C692 0.960 . S
H707 C693 0.961 . S
H708 C693 0.961 . S
H709 C693 0.961 1_554 S
H710 C694 0.931 . S
H711 C699 0.930 1_554 S
H712 C700 0.956 . S
H713 C700 0.961 . S
H714 C700 0.961 . S
H715 C701 0.958 . S
H716 C701 0.961 1_554 S
H717 C701 0.960 . S
C718 C719 1.391 . S
C718 C720 1.394 . S
C718 H734 0.931 . S
C719 C718 1.391 . S
C719 C723 1.376 . S
C720 C718 1.394 . S
C720 C721 1.369 . S
C720 C724 1.531 . S
C721 C720 1.369 . S
C721 C722 1.410 . S
C721 C729 1.503 . S
C722 C721 1.410 . S
C722 C723 1.392 . S
C722 C725 1.511 1_556 S
C723 C719 1.376 . S
C723 C722 1.392 . S
C723 H735 0.929 . S
C724 C720 1.531 . S
C724 H736 0.960 . S
C724 H737 0.962 . S
C724 H738 0.960 . S
C725 C722 1.511 1_554 S
C725 H739 0.961 . S
C725 H740 0.961 . S
C725 H741 0.961 1_554 S
C726 C727 1.370 1_554 S
C726 C728 1.363 . S
C726 H742 0.931 . S
C727 C726 1.370 1_556 S
C727 C731 1.408 . S
C728 C726 1.363 . S
C728 C729 1.370 1_554 S
C728 C732 1.524 . S
C729 C721 1.503 . S
C729 C728 1.370 1_556 S
C729 C730 1.403 . S
C730 C729 1.403 . S
C730 C731 1.404 . S
C730 C733 1.539 . S
C731 C727 1.408 . S
C731 C730 1.404 . S
C731 H743 0.930 . S
C732 C728 1.524 . S
C732 H744 0.956 . S
C732 H745 0.961 . S
C732 H746 0.961 . S
C733 C730 1.539 . S
C733 H747 0.958 . S
C733 H748 0.961 . S
C733 H749 0.960 . S
H734 C718 0.931 . S
H735 C723 0.929 . S
H736 C724 0.960 . S
H737 C724 0.962 . S
H738 C724 0.960 . S
H739 C725 0.961 . S
H740 C725 0.961 . S
H741 C725 0.961 1_556 S
H742 C726 0.931 . S
H743 C731 0.930 . S
H744 C732 0.956 . S
H745 C732 0.961 . S
H746 C732 0.961 . S
H747 C733 0.958 . S
H748 C733 0.961 . S
H749 C733 0.960 . S
C750 C751 1.391 . S
C750 C752 1.394 . S
C750 H766 0.931 . S
C751 C750 1.391 . S
C751 C755 1.376 . S
C752 C750 1.394 . S
C752 C753 1.369 . S
C752 C756 1.531 . S
C753 C752 1.369 . S
C753 C754 1.410 . S
C753 C761 1.503 . S
C754 C753 1.410 . S
C754 C755 1.392 . S
C754 C757 1.511 1_556 S
C755 C751 1.376 . S
C755 C754 1.392 . S
C755 H767 0.929 . S
C756 C752 1.531 . S
C756 H768 0.960 . S
C756 H769 0.962 . S
C756 H770 0.960 . S
C757 C754 1.511 1_554 S
C757 H771 0.961 . S
C757 H772 0.961 . S
C757 H773 0.961 . S
C758 C759 1.370 . S
C758 C760 1.363 . S
C758 H774 0.931 1_556 S
C759 C758 1.370 . S
C759 C763 1.408 . S
C760 C758 1.363 . S
C760 C761 1.370 . S
C760 C764 1.524 . S
C761 C753 1.503 . S
C761 C760 1.370 . S
C761 C762 1.403 . S
C762 C761 1.403 . S
C762 C763 1.404 . S
C762 C765 1.539 . S
C763 C759 1.408 . S
C763 C762 1.404 . S
C763 H775 0.930 . S
C764 C760 1.524 . S
C764 H776 0.956 . S
C764 H777 0.961 1_556 S
C764 H778 0.961 1_556 S
C765 C762 1.539 . S
C765 H779 0.958 . S
C765 H780 0.961 . S
C765 H781 0.960 . S
H766 C750 0.931 . S
H767 C755 0.929 . S
H768 C756 0.960 . S
H769 C756 0.962 . S
H770 C756 0.960 . S
H771 C757 0.961 . S
H772 C757 0.961 . S
H773 C757 0.961 . S
H774 C758 0.931 1_554 S
H775 C763 0.930 . S
H776 C764 0.956 . S
H777 C764 0.961 1_554 S
H778 C764 0.961 1_554 S
H779 C765 0.958 . S
H780 C765 0.961 . S
H781 C765 0.960 . S
C782 C783 1.391 . S
C782 C784 1.394 . S
C782 H798 0.931 . S
C783 C782 1.391 . S
C783 C787 1.376 . S
C784 C782 1.394 . S
C784 C785 1.369 . S
C784 C788 1.531 . S
C785 C784 1.369 . S
C785 C786 1.410 . S
C785 C793 1.503 . S
C786 C785 1.410 . S
C786 C787 1.392 . S
C786 C789 1.511 . S
C787 C783 1.376 . S
C787 C786 1.392 . S
C787 H799 0.929 . S
C788 C784 1.531 . S
C788 H800 0.960 . S
C788 H801 0.962 . S
C788 H802 0.960 . S
C789 C786 1.511 . S
C789 H803 0.961 . S
C789 H804 0.961 . S
C789 H805 0.961 . S
C790 C791 1.370 . S
C790 C792 1.363 . S
C790 H806 0.931 . S
C791 C790 1.370 . S
C791 C795 1.408 . S
C792 C790 1.363 . S
C792 C793 1.370 . S
C792 C796 1.524 . S
C793 C785 1.503 . S
C793 C792 1.370 . S
C793 C794 1.403 . S
C794 C793 1.403 . S
C794 C795 1.404 . S
C794 C797 1.539 1_556 S
C795 C791 1.408 . S
C795 C794 1.404 . S
C795 H807 0.930 1_556 S
C796 C792 1.524 . S
C796 H808 0.956 . S
C796 H809 0.961 . S
C796 H810 0.961 . S
C797 C794 1.539 1_554 S
C797 H811 0.958 . S
C797 H812 0.961 . S
C797 H813 0.960 . S
H798 C782 0.931 . S
H799 C787 0.929 . S
H800 C788 0.960 . S
H801 C788 0.962 . S
H802 C788 0.960 . S
H803 C789 0.961 . S
H804 C789 0.961 . S
H805 C789 0.961 . S
H806 C790 0.931 . S
H807 C795 0.930 1_554 S
H808 C796 0.956 . S
H809 C796 0.961 . S
H810 C796 0.961 . S
H811 C797 0.958 . S
H812 C797 0.961 . S
H813 C797 0.960 . S
C814 C815 1.391 . S
C814 C816 1.394 . S
C814 H830 0.931 . S
C815 C814 1.391 . S
C815 C819 1.376 . S
C816 C814 1.394 . S
C816 C817 1.369 . S
C816 C820 1.531 . S
C817 C816 1.369 . S
C817 C818 1.430 . S
C817 C825 1.503 . S
C818 C817 1.430 . S
C818 C819 1.391 . S
C818 C821 1.493 1_556 S
C819 C815 1.376 . S
C819 C818 1.391 . S
C819 H831 0.929 1_556 S
C820 C816 1.531 . S
C820 H832 0.960 . S
C820 H833 0.962 . S
C820 H834 0.960 . S
C821 C818 1.493 1_554 S
C821 H835 0.961 . S
C821 H836 0.961 . S
C821 H837 0.961 . S
C822 C823 1.375 . S
C822 C824 1.363 . S
C822 H838 0.931 . S
C823 C822 1.375 . S
C823 C827 1.403 1_554 S
C824 C822 1.363 . S
C824 C825 1.370 1_554 S
C824 C828 1.524 . S
C825 C817 1.503 . S
C825 C824 1.370 1_556 S
C825 C826 1.403 . S
C826 C825 1.403 . S
C826 C827 1.404 . S
C826 C829 1.539 . S
C827 C823 1.403 1_556 S
C827 C826 1.404 . S
C827 H839 0.930 . S
C828 C824 1.524 . S
C828 H840 0.956 . S
C828 H841 0.961 . S
C828 H842 0.961 . S
C829 C826 1.539 . S
C829 H843 0.958 . S
C829 H844 0.961 . S
C829 H845 0.960 . S
H830 C814 0.931 . S
H831 C819 0.929 1_554 S
H832 C820 0.960 . S
H833 C820 0.962 . S
H834 C820 0.960 . S
H835 C821 0.961 . S
H836 C821 0.961 . S
H837 C821 0.961 . S
H838 C822 0.931 . S
H839 C827 0.930 . S
H840 C828 0.956 . S
H841 C828 0.961 . S
H842 C828 0.961 . S
H843 C829 0.958 . S
H844 C829 0.961 . S
H845 C829 0.960 . S
C846 C847 1.391 . S
C846 C848 1.394 . S
C846 H862 0.931 . S
C847 C846 1.391 . S
C847 C851 1.376 . S
C848 C846 1.394 . S
C848 C849 1.369 . S
C848 C852 1.531 . S
C849 C848 1.369 . S
C849 C850 1.410 . S
C849 C857 1.503 . S
C850 C849 1.410 . S
C850 C851 1.392 . S
C850 C853 1.511 1_554 S
C851 C847 1.376 . S
C851 C850 1.392 . S
C851 H863 0.929 . S
C852 C848 1.531 . S
C852 H864 0.960 . S
C852 H865 0.962 . S
C852 H866 0.960 . S
C853 C850 1.511 1_556 S
C853 H867 0.961 . S
C853 H868 0.963 . S
C853 H869 0.961 . S
C854 C855 1.370 . S
C854 C856 1.363 . S
C854 H870 0.931 . S
C855 C854 1.370 . S
C855 C859 1.408 . S
C856 C854 1.363 . S
C856 C857 1.370 . S
C856 C860 1.524 . S
C857 C849 1.503 . S
C857 C856 1.370 . S
C857 C858 1.403 . S
C858 C857 1.403 . S
C858 C859 1.404 . S
C858 C861 1.539 1_554 S
C859 C855 1.408 . S
C859 C858 1.404 . S
C859 H871 0.930 1_554 S
C860 C856 1.524 . S
C860 H872 0.956 . S
C860 H873 0.961 . S
C860 H874 0.961 . S
C861 C858 1.539 1_556 S
C861 H875 0.958 1_556 S
C861 H876 0.961 . S
C861 H877 0.960 . S
H862 C846 0.931 . S
H863 C851 0.929 . S
H864 C852 0.960 . S
H865 C852 0.962 . S
H866 C852 0.960 . S
H867 C853 0.961 . S
H868 C853 0.963 . S
H869 C853 0.961 . S
H870 C854 0.931 . S
H871 C859 0.930 1_556 S
H872 C860 0.956 . S
H873 C860 0.961 . S
H874 C860 0.961 . S
H875 C861 0.958 1_554 S
H876 C861 0.961 . S
H877 C861 0.960 . S
C878 C879 1.391 . S
C878 C880 1.394 . S
C878 H894 0.931 . S
C879 C878 1.391 . S
C879 C883 1.376 . S
C880 C878 1.394 . S
C880 C881 1.369 . S
C880 C884 1.531 . S
C881 C880 1.369 . S
C881 C882 1.410 . S
C881 C889 1.503 . S
C882 C881 1.410 . S
C882 C883 1.392 . S
C882 C885 1.511 . S
C883 C879 1.376 . S
C883 C882 1.392 . S
C883 H895 0.929 . S
C884 C880 1.531 . S
C884 H896 0.960 . S
C884 H897 0.962 . S
C884 H898 0.960 . S
C885 C882 1.511 . S
C885 H899 0.961 . S
C885 H900 0.961 . S
C885 H901 0.961 . S
C886 C887 1.370 . S
C886 C888 1.363 . S
C886 H902 0.931 . S
C887 C886 1.370 . S
C887 C891 1.408 . S
C888 C886 1.363 . S
C888 C889 1.370 . S
C888 C892 1.524 . S
C889 C881 1.503 . S
C889 C888 1.370 . S
C889 C890 1.403 . S
C890 C889 1.403 . S
C890 C891 1.404 . S
C890 C893 1.539 . S
C891 C887 1.408 . S
C891 C890 1.404 . S
C891 H903 0.930 . S
C892 C888 1.524 . S
C892 H904 0.956 . S
C892 H905 0.961 . S
C892 H906 0.961 . S
C893 C890 1.539 . S
C893 H907 0.958 . S
C893 H908 0.961 1_554 S
C893 H909 0.960 . S
H894 C878 0.931 . S
H895 C883 0.929 . S
H896 C884 0.960 . S
H897 C884 0.962 . S
H898 C884 0.960 . S
H899 C885 0.961 . S
H900 C885 0.961 . S
H901 C885 0.961 . S
H902 C886 0.931 . S
H903 C891 0.930 . S
H904 C892 0.956 . S
H905 C892 0.961 . S
H906 C892 0.961 . S
H907 C893 0.958 . S
H908 C893 0.961 1_556 S
H909 C893 0.960 . S
C910 C911 1.391 . S
C910 C912 1.394 . S
C910 H926 0.931 . S
C911 C910 1.391 . S
C911 C915 1.376 . S
C912 C910 1.394 . S
C912 C913 1.369 . S
C912 C916 1.531 . S
C913 C912 1.369 . S
C913 C914 1.410 . S
C913 C921 1.503 . S
C914 C913 1.410 . S
C914 C915 1.392 . S
C914 C917 1.511 . S
C915 C911 1.376 . S
C915 C914 1.392 . S
C915 H927 0.929 . S
C916 C912 1.531 . S
C916 H928 0.960 . S
C916 H929 0.962 . S
C916 H930 0.960 . S
C917 C914 1.511 . S
C917 H931 0.961 . S
C917 H932 0.961 . S
C917 H933 0.961 . S
C918 C919 1.370 1_556 S
C918 C920 1.363 1_556 S
C918 H934 0.931 . S
C919 C918 1.370 1_554 S
C919 C923 1.408 . S
C920 C918 1.363 1_554 S
C920 C921 1.370 . S
C920 C924 1.524 1_554 S
C921 C913 1.503 . S
C921 C920 1.370 . S
C921 C922 1.403 . S
C922 C921 1.403 . S
C922 C923 1.404 . S
C922 C925 1.539 . S
C923 C919 1.408 . S
C923 C922 1.404 . S
C923 H935 0.930 . S
C924 C920 1.524 1_556 S
C924 H936 0.956 . S
C924 H937 0.961 . S
C924 H938 0.961 . S
C925 C922 1.539 . S
C925 H939 0.958 . S
C925 H940 0.961 . S
C925 H941 0.960 . S
H926 C910 0.931 . S
H927 C915 0.929 . S
H928 C916 0.960 . S
H929 C916 0.962 . S
H930 C916 0.960 . S
H931 C917 0.961 . S
H932 C917 0.961 . S
H933 C917 0.961 . S
H934 C918 0.931 . S
H935 C923 0.930 . S
H936 C924 0.956 . S
H937 C924 0.961 . S
H938 C924 0.961 . S
H939 C925 0.958 . S
H940 C925 0.961 . S
H941 C925 0.960 . S
C942 C943 1.391 . S
C942 C944 1.394 . S
C942 H958 0.931 . S
C943 C942 1.391 . S
C943 C947 1.376 . S
C944 C942 1.394 . S
C944 C945 1.369 . S
C944 C948 1.531 1_655 S
C945 C944 1.369 . S
C945 C946 1.410 . S
C945 C953 1.503 1_655 S
C946 C945 1.410 . S
C946 C947 1.392 . S
C946 C949 1.511 . S
C947 C943 1.376 . S
C947 C946 1.392 . S
C947 H959 0.929 . S
C948 C944 1.531 1_455 S
C948 H960 0.960 . S
C948 H961 0.962 . S
C948 H962 0.960 1_455 S
C949 C946 1.511 . S
C949 H963 0.961 . S
C949 H964 0.961 . S
C949 H965 0.961 . S
C950 C951 1.370 . S
C950 C952 1.363 . S
C950 H966 0.931 . S
C951 C950 1.370 . S
C951 C955 1.408 . S
C952 C950 1.363 . S
C952 C953 1.370 . S
C952 C956 1.484 1_455 S
C953 C945 1.503 1_455 S
C953 C952 1.370 . S
C953 C954 1.403 . S
C954 C953 1.403 . S
C954 C955 1.404 . S
C954 C957 1.539 . S
C955 C951 1.408 . S
C955 C954 1.404 . S
C955 H967 0.930 . S
C956 C952 1.484 1_655 S
C956 H968 0.956 . S
C956 H969 1.000 . S
C956 H970 0.965 1_655 S
C957 C954 1.539 . S
C957 H971 0.958 . S
C957 H972 0.961 . S
C957 H973 0.960 1_455 S
H958 C942 0.931 . S
H959 C947 0.929 . S
H960 C948 0.960 . S
H961 C948 0.962 . S
H962 C948 0.960 1_655 S
H963 C949 0.961 . S
H964 C949 0.961 . S
H965 C949 0.961 . S
H966 C950 0.931 . S
H967 C955 0.930 . S
H968 C956 0.956 . S
H969 C956 1.000 . S
H970 C956 0.965 1_455 S
H971 C957 0.958 . S
H972 C957 0.961 . S
H973 C957 0.960 1_655 S
C974 C975 1.391 . S
C974 C976 1.394 . S
C974 H990 0.931 . S
C975 C974 1.391 . S
C975 C979 1.376 . S
C976 C974 1.394 . S
C976 C977 1.369 . S
C976 C980 1.531 . S
C977 C976 1.369 . S
C977 C978 1.410 . S
C977 C985 1.503 . S
C978 C977 1.410 . S
C978 C979 1.392 . S
C978 C981 1.511 . S
C979 C975 1.376 . S
C979 C978 1.392 . S
C979 H991 0.929 . S
C980 C976 1.531 . S
C980 H992 0.960 . S
C980 H993 0.962 . S
C980 H994 0.960 . S
C981 C978 1.511 . S
C981 H995 0.961 . S
C981 H996 0.961 . S
C981 H997 0.961 . S
C982 C983 1.370 . S
C982 C984 1.363 . S
C982 H998 0.931 . S
C983 C982 1.370 . S
C983 C987 1.408 . S
C984 C982 1.363 . S
C984 C985 1.370 . S
C984 C988 1.524 . S
C985 C977 1.503 . S
C985 C984 1.370 . S
C985 C986 1.403 . S
C986 C985 1.403 . S
C986 C987 1.404 . S
C986 C989 1.539 . S
C987 C983 1.408 . S
C987 C986 1.404 . S
C987 H999 0.930 . S
C988 C984 1.524 . S
C988 H1000 0.956 . S
C988 H1001 0.961 . S
C988 H1002 0.961 . S
C989 C986 1.539 . S
C989 H1003 0.958 . S
C989 H1004 0.961 . S
C989 H1005 0.960 . S
H990 C974 0.931 . S
H991 C979 0.929 . S
H992 C980 0.960 . S
H993 C980 0.962 . S
H994 C980 0.960 . S
H995 C981 0.961 . S
H996 C981 0.961 . S
H997 C981 0.961 . S
H998 C982 0.931 . S
H999 C987 0.930 . S
H1000 C988 0.956 . S
H1001 C988 0.961 . S
H1002 C988 0.961 . S
H1003 C989 0.958 . S
H1004 C989 0.961 . S
H1005 C989 0.960 . S
C1006 C1007 1.391 . S
C1006 C1008 1.394 . S
C1006 H1022 0.931 . S
C1007 C1006 1.391 . S
C1007 C1011 1.376 . S
C1008 C1006 1.394 . S
C1008 C1009 1.369 . S
C1008 C1012 1.531 . S
C1009 C1008 1.369 . S
C1009 C1010 1.410 . S
C1009 C1017 1.503 . S
C1010 C1009 1.410 . S
C1010 C1011 1.392 . S
C1010 C1013 1.511 . S
C1011 C1007 1.376 . S
C1011 C1010 1.392 . S
C1011 H1023 0.929 . S
C1012 C1008 1.531 . S
C1012 H1024 0.960 . S
C1012 H1025 0.962 . S
C1012 H1026 0.960 . S
C1013 C1010 1.511 . S
C1013 H1027 0.961 . S
C1013 H1028 0.961 . S
C1013 H1029 0.961 . S
C1014 C1015 1.370 . S
C1014 C1016 1.363 . S
C1014 H1030 0.931 . S
C1015 C1014 1.370 . S
C1015 C1019 1.408 . S
C1016 C1014 1.363 . S
C1016 C1017 1.370 1_565 S
C1016 C1020 1.524 1_565 S
C1017 C1009 1.503 . S
C1017 C1016 1.370 1_545 S
C1017 C1018 1.403 1_545 S
C1018 C1017 1.403 1_565 S
C1018 C1019 1.404 . S
C1018 C1021 1.539 . S
C1019 C1015 1.408 . S
C1019 C1018 1.404 . S
C1019 H1031 0.930 . S
C1020 C1016 1.524 1_545 S
C1020 H1032 0.956 . S
C1020 H1033 0.961 . S
C1020 H1034 0.961 . S
C1021 C1018 1.539 . S
C1021 H1035 0.958 1_565 S
C1021 H1036 0.961 . S
C1021 H1037 0.960 1_565 S
H1022 C1006 0.931 . S
H1023 C1011 0.929 . S
H1024 C1012 0.960 . S
H1025 C1012 0.962 . S
H1026 C1012 0.960 . S
H1027 C1013 0.961 . S
H1028 C1013 0.961 . S
H1029 C1013 0.961 . S
H1030 C1014 0.931 . S
H1031 C1019 0.930 . S
H1032 C1020 0.956 . S
H1033 C1020 0.961 . S
H1034 C1020 0.961 . S
H1035 C1021 0.958 1_545 S
H1036 C1021 0.961 . S
H1037 C1021 0.960 1_545 S
C1038 C1039 1.391 . S
C1038 C1040 1.394 . S
C1038 H1054 0.931 . S
C1039 C1038 1.391 . S
C1039 C1043 1.376 . S
C1040 C1038 1.394 . S
C1040 C1041 1.369 . S
C1040 C1044 1.531 . S
C1041 C1040 1.369 . S
C1041 C1042 1.410 . S
C1041 C1049 1.503 . S
C1042 C1041 1.410 . S
C1042 C1043 1.392 . S
C1042 C1045 1.511 . S
C1043 C1039 1.376 . S
C1043 C1042 1.392 . S
C1043 H1055 0.929 . S
C1044 C1040 1.531 . S
C1044 H1056 0.960 . S
C1044 H1057 0.962 . S
C1044 H1058 0.960 . S
C1045 C1042 1.511 . S
C1045 H1059 0.961 . S
C1045 H1060 0.961 . S
C1045 H1061 0.961 . S
C1046 C1047 1.370 . S
C1046 C1048 1.363 . S
C1046 H1062 0.931 . S
C1047 C1046 1.370 . S
C1047 C1051 1.408 . S
C1048 C1046 1.363 . S
C1048 C1049 1.370 . S
C1048 C1052 1.524 . S
C1049 C1041 1.503 . S
C1049 C1048 1.370 . S
C1049 C1050 1.403 . S
C1050 C1049 1.403 . S
C1050 C1051 1.404 . S
C1050 C1053 1.539 . S
C1051 C1047 1.408 . S
C1051 C1050 1.404 . S
C1051 H1063 0.930 . S
C1052 C1048 1.524 . S
C1052 H1064 0.956 . S
C1052 H1065 0.961 . S
C1052 H1066 0.961 . S
C1053 C1050 1.539 . S
C1053 H1067 0.958 . S
C1053 H1068 0.961 . S
C1053 H1069 0.960 . S
H1054 C1038 0.931 . S
H1055 C1043 0.929 . S
H1056 C1044 0.960 . S
H1057 C1044 0.962 . S
H1058 C1044 0.960 . S
H1059 C1045 0.961 . S
H1060 C1045 0.961 . S
H1061 C1045 0.961 . S
H1062 C1046 0.931 . S
H1063 C1051 0.930 . S
H1064 C1052 0.956 . S
H1065 C1052 0.961 . S
H1066 C1052 0.961 . S
H1067 C1053 0.958 . S
H1068 C1053 0.961 . S
H1069 C1053 0.960 . S
C1070 C1071 1.391 . S
C1070 C1072 1.394 . S
C1070 H1086 0.931 . S
C1071 C1070 1.391 . S
C1071 C1075 1.376 . S
C1072 C1070 1.394 . S
C1072 C1073 1.369 . S
C1072 C1076 1.531 . S
C1073 C1072 1.369 . S
C1073 C1074 1.410 . S
C1073 C1081 1.503 . S
C1074 C1073 1.410 . S
C1074 C1075 1.392 . S
C1074 C1077 1.511 . S
C1075 C1071 1.376 . S
C1075 C1074 1.392 . S
C1075 H1087 0.929 . S
C1076 C1072 1.531 . S
C1076 H1088 0.960 . S
C1076 H1089 0.962 . S
C1076 H1090 0.960 . S
C1077 C1074 1.511 . S
C1077 H1091 0.961 . S
C1077 H1092 0.961 . S
C1077 H1093 0.961 . S
C1078 C1079 1.370 . S
C1078 C1080 1.363 . S
C1078 H1094 0.931 . S
C1079 C1078 1.370 . S
C1079 C1083 1.408 . S
C1080 C1078 1.363 . S
C1080 C1081 1.370 . S
C1080 C1084 1.524 . S
C1081 C1073 1.503 . S
C1081 C1080 1.370 . S
C1081 C1082 1.403 . S
C1082 C1081 1.403 . S
C1082 C1083 1.404 . S
C1082 C1085 1.539 . S
C1083 C1079 1.408 . S
C1083 C1082 1.404 . S
C1083 H1095 0.930 . S
C1084 C1080 1.524 . S
C1084 H1096 0.956 . S
C1084 H1097 0.961 . S
C1084 H1098 0.961 . S
C1085 C1082 1.539 . S
C1085 H1099 0.958 . S
C1085 H1100 0.961 . S
C1085 H1101 0.960 . S
H1086 C1070 0.931 . S
H1087 C1075 0.929 . S
H1088 C1076 0.960 . S
H1089 C1076 0.962 . S
H1090 C1076 0.960 . S
H1091 C1077 0.961 . S
H1092 C1077 0.961 . S
H1093 C1077 0.961 . S
H1094 C1078 0.931 . S
H1095 C1083 0.930 . S
H1096 C1084 0.956 . S
H1097 C1084 0.961 . S
H1098 C1084 0.961 . S
H1099 C1085 0.958 . S
H1100 C1085 0.961 . S
H1101 C1085 0.960 . S
C1102 C1103 1.391 . S
C1102 C1104 1.394 . S
C1102 H1118 0.931 . S
C1103 C1102 1.391 . S
C1103 C1107 1.376 . S
C1104 C1102 1.394 . S
C1104 C1105 1.369 . S
C1104 C1108 1.531 . S
C1105 C1104 1.369 . S
C1105 C1106 1.410 . S
C1105 C1113 1.503 . S
C1106 C1105 1.410 . S
C1106 C1107 1.392 . S
C1106 C1109 1.511 . S
C1107 C1103 1.376 . S
C1107 C1106 1.392 . S
C1107 H1119 0.929 . S
C1108 C1104 1.531 . S
C1108 H1120 0.960 . S
C1108 H1121 0.962 . S
C1108 H1122 0.960 . S
C1109 C1106 1.511 . S
C1109 H1123 0.961 . S
C1109 H1124 0.961 . S
C1109 H1125 0.961 . S
C1110 C1111 1.370 . S
C1110 C1112 1.363 . S
C1110 H1126 0.931 . S
C1111 C1110 1.370 . S
C1111 C1115 1.408 . S
C1112 C1110 1.363 . S
C1112 C1113 1.370 . S
C1112 C1116 1.524 . S
C1113 C1105 1.503 . S
C1113 C1112 1.370 . S
C1113 C1114 1.403 . S
C1114 C1113 1.403 . S
C1114 C1115 1.404 . S
C1114 C1117 1.539 . S
C1115 C1111 1.408 . S
C1115 C1114 1.404 . S
C1115 H1127 0.930 . S
C1116 C1112 1.524 . S
C1116 H1128 0.956 . S
C1116 H1129 0.961 . S
C1116 H1130 0.961 . S
C1117 C1114 1.539 . S
C1117 H1131 0.958 . S
C1117 H1132 0.961 . S
C1117 H1133 0.960 . S
H1118 C1102 0.931 . S
H1119 C1107 0.929 . S
H1120 C1108 0.960 . S
H1121 C1108 0.962 . S
H1122 C1108 0.960 . S
H1123 C1109 0.961 . S
H1124 C1109 0.961 . S
H1125 C1109 0.961 . S
H1126 C1110 0.931 . S
H1127 C1115 0.930 . S
H1128 C1116 0.956 . S
H1129 C1116 0.961 . S
H1130 C1116 0.961 . S
H1131 C1117 0.958 . S
H1132 C1117 0.961 . S
H1133 C1117 0.960 . S
C1134 C1135 1.391 . S
C1134 C1136 1.394 . S
C1134 H1150 0.931 . S
C1135 C1134 1.391 . S
C1135 C1139 1.376 . S
C1136 C1134 1.394 . S
C1136 C1137 1.369 . S
C1136 C1140 1.531 . S
C1137 C1136 1.369 . S
C1137 C1138 1.410 . S
C1137 C1145 1.503 . S
C1138 C1137 1.410 . S
C1138 C1139 1.392 . S
C1138 C1141 1.511 . S
C1139 C1135 1.376 . S
C1139 C1138 1.392 . S
C1139 H1151 0.929 . S
C1140 C1136 1.531 . S
C1140 H1152 0.960 . S
C1140 H1153 0.962 . S
C1140 H1154 0.960 . S
C1141 C1138 1.511 . S
C1141 H1155 0.961 . S
C1141 H1156 0.961 . S
C1141 H1157 0.961 . S
C1142 C1143 1.370 . S
C1142 C1144 1.363 . S
C1142 H1158 0.931 . S
C1143 C1142 1.370 . S
C1143 C1147 1.408 . S
C1144 C1142 1.363 . S
C1144 C1145 1.370 . S
C1144 C1148 1.524 . S
C1145 C1137 1.503 . S
C1145 C1144 1.370 . S
C1145 C1146 1.403 . S
C1146 C1145 1.403 . S
C1146 C1147 1.404 . S
C1146 C1149 1.539 . S
C1147 C1143 1.408 . S
C1147 C1146 1.404 . S
C1147 H1159 0.930 . S
C1148 C1144 1.524 . S
C1148 H1160 0.956 . S
C1148 H1161 0.961 . S
C1148 H1162 0.961 . S
C1149 C1146 1.539 . S
C1149 H1163 0.958 . S
C1149 H1164 0.961 . S
C1149 H1165 0.960 . S
H1150 C1134 0.931 . S
H1151 C1139 0.929 . S
H1152 C1140 0.960 . S
H1153 C1140 0.962 . S
H1154 C1140 0.960 . S
H1155 C1141 0.961 . S
H1156 C1141 0.961 . S
H1157 C1141 0.961 . S
H1158 C1142 0.931 . S
H1159 C1147 0.930 . S
H1160 C1148 0.956 . S
H1161 C1148 0.961 . S
H1162 C1148 0.961 . S
H1163 C1149 0.958 . S
H1164 C1149 0.961 . S
H1165 C1149 0.960 . S
C1166 C1167 1.391 . S
C1166 C1168 1.394 . S
C1166 H1182 0.931 . S
C1167 C1166 1.391 . S
C1167 C1171 1.376 . S
C1168 C1166 1.394 . S
C1168 C1169 1.369 . S
C1168 C1172 1.531 . S
C1169 C1168 1.369 . S
C1169 C1170 1.410 . S
C1169 C1177 1.503 . S
C1170 C1169 1.410 . S
C1170 C1171 1.392 . S
C1170 C1173 1.511 . S
C1171 C1167 1.376 . S
C1171 C1170 1.392 . S
C1171 H1183 0.929 . S
C1172 C1168 1.531 . S
C1172 H1184 0.960 . S
C1172 H1185 0.962 . S
C1172 H1186 0.960 . S
C1173 C1170 1.511 . S
C1173 H1187 0.961 . S
C1173 H1188 0.961 . S
C1173 H1189 0.961 . S
C1174 C1175 1.370 . S
C1174 C1176 1.363 . S
C1174 H1190 0.931 . S
C1175 C1174 1.370 . S
C1175 C1179 1.408 . S
C1176 C1174 1.363 . S
C1176 C1177 1.370 . S
C1176 C1180 1.524 . S
C1177 C1169 1.503 . S
C1177 C1176 1.370 . S
C1177 C1178 1.403 . S
C1178 C1177 1.403 . S
C1178 C1179 1.404 . S
C1178 C1181 1.539 . S
C1179 C1175 1.408 . S
C1179 C1178 1.404 . S
C1179 H1191 0.930 . S
C1180 C1176 1.524 . S
C1180 H1192 0.956 . S
C1180 H1193 0.961 . S
C1180 H1194 0.961 . S
C1181 C1178 1.539 . S
C1181 H1195 0.958 . S
C1181 H1196 0.961 . S
C1181 H1197 0.960 . S
H1182 C1166 0.931 . S
H1183 C1171 0.929 . S
H1184 C1172 0.960 . S
H1185 C1172 0.962 . S
H1186 C1172 0.960 . S
H1187 C1173 0.961 . S
H1188 C1173 0.961 . S
H1189 C1173 0.961 . S
H1190 C1174 0.931 . S
H1191 C1179 0.930 . S
H1192 C1180 0.956 . S
H1193 C1180 0.961 . S
H1194 C1180 0.961 . S
H1195 C1181 0.958 . S
H1196 C1181 0.961 . S
H1197 C1181 0.960 . S
C1198 C1199 1.391 . S
C1198 C1200 1.394 . S
C1198 H1214 0.931 . S
C1199 C1198 1.391 . S
C1199 C1203 1.376 . S
C1200 C1198 1.394 . S
C1200 C1201 1.369 . S
C1200 C1204 1.531 . S
C1201 C1200 1.369 . S
C1201 C1202 1.410 . S
C1201 C1209 1.503 . S
C1202 C1201 1.410 . S
C1202 C1203 1.392 . S
C1202 C1205 1.511 . S
C1203 C1199 1.376 . S
C1203 C1202 1.392 . S
C1203 H1215 0.929 . S
C1204 C1200 1.531 . S
C1204 H1216 0.960 . S
C1204 H1217 0.962 . S
C1204 H1218 0.960 . S
C1205 C1202 1.511 . S
C1205 H1219 0.961 . S
C1205 H1220 0.961 . S
C1205 H1221 0.961 . S
C1206 C1207 1.370 . S
C1206 C1208 1.363 . S
C1206 H1222 0.931 . S
C1207 C1206 1.370 . S
C1207 C1211 1.408 . S
C1208 C1206 1.363 . S
C1208 C1209 1.370 . S
C1208 C1212 1.524 . S
C1209 C1201 1.503 . S
C1209 C1208 1.370 . S
C1209 C1210 1.403 . S
C1210 C1209 1.403 . S
C1210 C1211 1.404 . S
C1210 C1213 1.539 . S
C1211 C1207 1.408 . S
C1211 C1210 1.404 . S
C1211 H1223 0.930 . S
C1212 C1208 1.524 . S
C1212 H1224 0.956 . S
C1212 H1225 0.961 . S
C1212 H1226 0.961 . S
C1213 C1210 1.539 . S
C1213 H1227 0.958 . S
C1213 H1228 0.961 . S
C1213 H1229 0.960 . S
H1214 C1198 0.931 . S
H1215 C1203 0.929 . S
H1216 C1204 0.960 . S
H1217 C1204 0.962 . S
H1218 C1204 0.960 . S
H1219 C1205 0.961 . S
H1220 C1205 0.961 . S
H1221 C1205 0.961 . S
H1222 C1206 0.931 . S
H1223 C1211 0.930 . S
H1224 C1212 0.956 . S
H1225 C1212 0.961 . S
H1226 C1212 0.961 . S
H1227 C1213 0.958 . S
H1228 C1213 0.961 . S
H1229 C1213 0.960 . S
C1230 C1231 1.391 . S
C1230 C1232 1.394 1_545 S
C1230 H1246 0.931 . S
C1231 C1230 1.391 . S
C1231 C1235 1.376 . S
C1232 C1230 1.394 1_565 S
C1232 C1233 1.369 . S
C1232 C1236 1.531 . S
C1233 C1232 1.369 . S
C1233 C1234 1.410 . S
C1233 C1241 1.503 . S
C1234 C1233 1.410 . S
C1234 C1235 1.392 1_565 S
C1234 C1237 1.511 . S
C1235 C1231 1.376 . S
C1235 C1234 1.392 1_545 S
C1235 H1247 0.929 . S
C1236 C1232 1.531 . S
C1236 H1248 0.960 . S
C1236 H1249 0.962 . S
C1236 H1250 0.960 . S
C1237 C1234 1.511 . S
C1237 H1251 0.961 . S
C1237 H1252 0.961 . S
C1237 H1253 0.961 . S
C1238 C1239 1.370 . S
C1238 C1240 1.363 . S
C1238 H1254 0.931 . S
C1239 C1238 1.370 . S
C1239 C1243 1.408 . S
C1240 C1238 1.363 . S
C1240 C1241 1.370 . S
C1240 C1244 1.524 . S
C1241 C1233 1.503 . S
C1241 C1240 1.370 . S
C1241 C1242 1.403 . S
C1242 C1241 1.403 . S
C1242 C1243 1.404 . S
C1242 C1245 1.539 . S
C1243 C1239 1.408 . S
C1243 C1242 1.404 . S
C1243 H1255 0.930 . S
C1244 C1240 1.524 . S
C1244 H1256 0.956 . S
C1244 H1257 0.961 . S
C1244 H1258 0.961 . S
C1245 C1242 1.539 . S
C1245 H1259 0.958 . S
C1245 H1260 0.961 . S
C1245 H1261 0.960 . S
H1246 C1230 0.931 . S
H1247 C1235 0.929 . S
H1248 C1236 0.960 . S
H1249 C1236 0.962 . S
H1250 C1236 0.960 . S
H1251 C1237 0.961 . S
H1252 C1237 0.961 . S
H1253 C1237 0.961 . S
H1254 C1238 0.931 . S
H1255 C1243 0.930 . S
H1256 C1244 0.956 . S
H1257 C1244 0.961 . S
H1258 C1244 0.961 . S
H1259 C1245 0.958 . S
H1260 C1245 0.961 . S
H1261 C1245 0.960 . S
C1262 C1263 1.391 . S
C1262 C1264 1.394 1_655 S
C1262 H1278 0.931 . S
C1263 C1262 1.391 . S
C1263 C1267 1.376 1_655 S
C1264 C1262 1.394 1_455 S
C1264 C1265 1.369 . S
C1264 C1268 1.531 . S
C1265 C1264 1.369 . S
C1265 C1266 1.410 . S
C1265 C1273 1.503 . S
C1266 C1265 1.410 . S
C1266 C1267 1.392 . S
C1266 C1269 1.511 . S
C1267 C1263 1.376 1_455 S
C1267 C1266 1.392 . S
C1267 H1279 0.929 . S
C1268 C1264 1.531 . S
C1268 H1280 0.960 . S
C1268 H1281 0.962 . S
C1268 H1282 0.960 . S
C1269 C1266 1.511 . S
C1269 H1283 0.961 . S
C1269 H1284 0.961 . S
C1269 H1285 0.961 . S
C1270 C1271 1.370 . S
C1270 C1272 1.363 . S
C1270 H1286 0.931 . S
C1271 C1270 1.370 . S
C1271 C1275 1.408 . S
C1272 C1270 1.363 . S
C1272 C1273 1.370 . S
C1272 C1276 1.524 . S
C1273 C1265 1.503 . S
C1273 C1272 1.370 . S
C1273 C1274 1.403 . S
C1274 C1273 1.403 . S
C1274 C1275 1.404 . S
C1274 C1277 1.539 . S
C1275 C1271 1.408 . S
C1275 C1274 1.404 . S
C1275 H1287 0.930 . S
C1276 C1272 1.524 . S
C1276 H1288 0.956 . S
C1276 H1289 0.961 . S
C1276 H1290 0.961 . S
C1277 C1274 1.539 . S
C1277 H1291 0.958 . S
C1277 H1292 0.961 . S
C1277 H1293 0.960 . S
H1278 C1262 0.931 . S
H1279 C1267 0.929 . S
H1280 C1268 0.960 . S
H1281 C1268 0.962 . S
H1282 C1268 0.960 . S
H1283 C1269 0.961 . S
H1284 C1269 0.961 . S
H1285 C1269 0.961 . S
H1286 C1270 0.931 . S
H1287 C1275 0.930 . S
H1288 C1276 0.956 . S
H1289 C1276 0.961 . S
H1290 C1276 0.961 . S
H1291 C1277 0.958 . S
H1292 C1277 0.961 . S
H1293 C1277 0.960 . S
C1294 C1295 1.391 . S
C1294 C1296 1.394 . S
C1294 H1310 0.931 . S
C1295 C1294 1.391 . S
C1295 C1299 1.376 . S
C1296 C1294 1.394 . S
C1296 C1297 1.369 . S
C1296 C1300 1.531 . S
C1297 C1296 1.369 . S
C1297 C1298 1.410 . S
C1297 C1305 1.503 . S
C1298 C1297 1.410 . S
C1298 C1299 1.392 . S
C1298 C1301 1.511 . S
C1299 C1295 1.376 . S
C1299 C1298 1.392 . S
C1299 H1311 0.929 . S
C1300 C1296 1.531 . S
C1300 H1312 0.960 . S
C1300 H1313 0.962 . S
C1300 H1314 0.960 . S
C1301 C1298 1.511 . S
C1301 H1315 0.961 . S
C1301 H1316 0.961 . S
C1301 H1317 0.961 . S
C1302 C1303 1.370 . S
C1302 C1304 1.363 . S
C1302 H1318 0.931 . S
C1303 C1302 1.370 . S
C1303 C1307 1.408 . S
C1304 C1302 1.363 . S
C1304 C1305 1.370 . S
C1304 C1308 1.524 . S
C1305 C1297 1.503 . S
C1305 C1304 1.370 . S
C1305 C1306 1.403 . S
C1306 C1305 1.403 . S
C1306 C1307 1.404 . S
C1306 C1309 1.539 . S
C1307 C1303 1.408 . S
C1307 C1306 1.404 . S
C1307 H1319 0.930 . S
C1308 C1304 1.524 . S
C1308 H1320 0.956 . S
C1308 H1321 0.961 . S
C1308 H1322 0.961 . S
C1309 C1306 1.539 . S
C1309 H1323 0.958 . S
C1309 H1324 0.961 . S
C1309 H1325 0.960 . S
H1310 C1294 0.931 . S
H1311 C1299 0.929 . S
H1312 C1300 0.960 . S
H1313 C1300 0.962 . S
H1314 C1300 0.960 . S
H1315 C1301 0.961 . S
H1316 C1301 0.961 . S
H1317 C1301 0.961 . S
H1318 C1302 0.931 . S
H1319 C1307 0.930 . S
H1320 C1308 0.956 . S
H1321 C1308 0.961 . S
H1322 C1308 0.961 . S
H1323 C1309 0.958 . S
H1324 C1309 0.961 . S
H1325 C1309 0.960 . S
C1326 C1327 1.391 . S
C1326 C1328 1.394 . S
C1326 H1342 0.931 . S
C1327 C1326 1.391 . S
C1327 C1331 1.376 . S
C1328 C1326 1.394 . S
C1328 C1329 1.369 . S
C1328 C1332 1.531 . S
C1329 C1328 1.369 . S
C1329 C1330 1.410 . S
C1329 C1337 1.503 . S
C1330 C1329 1.410 . S
C1330 C1331 1.392 . S
C1330 C1333 1.511 . S
C1331 C1327 1.376 . S
C1331 C1330 1.392 . S
C1331 H1343 0.929 . S
C1332 C1328 1.531 . S
C1332 H1344 0.960 . S
C1332 H1345 0.962 . S
C1332 H1346 0.960 . S
C1333 C1330 1.511 . S
C1333 H1347 0.961 . S
C1333 H1348 0.961 . S
C1333 H1349 0.961 . S
C1334 C1335 1.370 . S
C1334 C1336 1.363 . S
C1334 H1350 0.931 . S
C1335 C1334 1.370 . S
C1335 C1339 1.408 . S
C1336 C1334 1.363 . S
C1336 C1337 1.370 . S
C1336 C1340 1.524 . S
C1337 C1329 1.503 . S
C1337 C1336 1.370 . S
C1337 C1338 1.403 . S
C1338 C1337 1.403 . S
C1338 C1339 1.404 . S
C1338 C1341 1.539 . S
C1339 C1335 1.408 . S
C1339 C1338 1.404 . S
C1339 H1351 0.930 . S
C1340 C1336 1.524 . S
C1340 H1352 0.956 . S
C1340 H1353 0.961 . S
C1340 H1354 0.961 . S
C1341 C1338 1.539 . S
C1341 H1355 0.958 . S
C1341 H1356 0.961 . S
C1341 H1357 0.960 . S
H1342 C1326 0.931 . S
H1343 C1331 0.929 . S
H1344 C1332 0.960 . S
H1345 C1332 0.962 . S
H1346 C1332 0.960 . S
H1347 C1333 0.961 . S
H1348 C1333 0.961 . S
H1349 C1333 0.961 . S
H1350 C1334 0.931 . S
H1351 C1339 0.930 . S
H1352 C1340 0.956 . S
H1353 C1340 0.961 . S
H1354 C1340 0.961 . S
H1355 C1341 0.958 . S
H1356 C1341 0.961 . S
H1357 C1341 0.960 . S
C1358 C1359 1.391 . S
C1358 C1360 1.394 . S
C1358 H1374 0.931 . S
C1359 C1358 1.391 . S
C1359 C1363 1.376 . S
C1360 C1358 1.394 . S
C1360 C1361 1.369 . S
C1360 C1364 1.531 . S
C1361 C1360 1.369 . S
C1361 C1362 1.410 . S
C1361 C1369 1.503 . S
C1362 C1361 1.410 . S
C1362 C1363 1.392 . S
C1362 C1365 1.511 . S
C1363 C1359 1.376 . S
C1363 C1362 1.392 . S
C1363 H1375 0.929 . S
C1364 C1360 1.531 . S
C1364 H1376 0.960 . S
C1364 H1377 0.962 . S
C1364 H1378 0.960 . S
C1365 C1362 1.511 . S
C1365 H1379 0.961 . S
C1365 H1380 0.961 . S
C1365 H1381 0.961 . S
C1366 C1367 1.370 . S
C1366 C1368 1.363 . S
C1366 H1382 0.931 . S
C1367 C1366 1.370 . S
C1367 C1371 1.408 . S
C1368 C1366 1.363 . S
C1368 C1369 1.370 . S
C1368 C1372 1.524 . S
C1369 C1361 1.503 . S
C1369 C1368 1.370 . S
C1369 C1370 1.403 . S
C1370 C1369 1.403 . S
C1370 C1371 1.404 . S
C1370 C1373 1.539 . S
C1371 C1367 1.408 . S
C1371 C1370 1.404 . S
C1371 H1383 0.930 . S
C1372 C1368 1.524 . S
C1372 H1384 0.956 . S
C1372 H1385 0.961 . S
C1372 H1386 0.961 . S
C1373 C1370 1.539 . S
C1373 H1387 0.958 . S
C1373 H1388 0.961 . S
C1373 H1389 0.960 . S
H1374 C1358 0.931 . S
H1375 C1363 0.929 . S
H1376 C1364 0.960 . S
H1377 C1364 0.962 . S
H1378 C1364 0.960 . S
H1379 C1365 0.961 . S
H1380 C1365 0.961 . S
H1381 C1365 0.961 . S
H1382 C1366 0.931 . S
H1383 C1371 0.930 . S
H1384 C1372 0.956 . S
H1385 C1372 0.961 . S
H1386 C1372 0.961 . S
H1387 C1373 0.958 . S
H1388 C1373 0.961 . S
H1389 C1373 0.960 . S
C1390 C1391 1.391 . S
C1390 C1392 1.394 . S
C1390 H1406 0.931 . S
C1391 C1390 1.391 . S
C1391 C1395 1.376 . S
C1392 C1390 1.394 . S
C1392 C1393 1.369 . S
C1392 C1396 1.531 . S
C1393 C1392 1.369 . S
C1393 C1394 1.410 . S
C1393 C1401 1.503 . S
C1394 C1393 1.410 . S
C1394 C1395 1.392 . S
C1394 C1397 1.511 . S
C1395 C1391 1.376 . S
C1395 C1394 1.392 . S
C1395 H1407 0.929 . S
C1396 C1392 1.531 . S
C1396 H1408 0.960 . S
C1396 H1409 0.962 . S
C1396 H1410 0.960 . S
C1397 C1394 1.511 . S
C1397 H1411 0.961 . S
C1397 H1412 0.961 . S
C1397 H1413 0.961 . S
C1398 C1399 1.370 . S
C1398 C1400 1.363 . S
C1398 H1414 0.931 . S
C1399 C1398 1.370 . S
C1399 C1403 1.408 . S
C1400 C1398 1.363 . S
C1400 C1401 1.370 . S
C1400 C1404 1.524 . S
C1401 C1393 1.503 . S
C1401 C1400 1.370 . S
C1401 C1402 1.403 . S
C1402 C1401 1.403 . S
C1402 C1403 1.404 . S
C1402 C1405 1.539 . S
C1403 C1399 1.408 . S
C1403 C1402 1.404 . S
C1403 H1415 0.930 . S
C1404 C1400 1.524 . S
C1404 H1416 0.956 . S
C1404 H1417 0.961 . S
C1404 H1418 0.961 . S
C1405 C1402 1.539 . S
C1405 H1419 0.958 . S
C1405 H1420 0.961 . S
C1405 H1421 0.960 . S
H1406 C1390 0.931 . S
H1407 C1395 0.929 . S
H1408 C1396 0.960 . S
H1409 C1396 0.962 . S
H1410 C1396 0.960 . S
H1411 C1397 0.961 . S
H1412 C1397 0.961 . S
H1413 C1397 0.961 . S
H1414 C1398 0.931 . S
H1415 C1403 0.930 . S
H1416 C1404 0.956 . S
H1417 C1404 0.961 . S
H1418 C1404 0.961 . S
H1419 C1405 0.958 . S
H1420 C1405 0.961 . S
H1421 C1405 0.960 . S
C1422 C1423 1.391 . S
C1422 C1424 1.394 . S
C1422 H1438 0.931 . S
C1423 C1422 1.391 . S
C1423 C1427 1.376 . S
C1424 C1422 1.394 . S
C1424 C1425 1.369 . S
C1424 C1428 1.531 . S
C1425 C1424 1.369 . S
C1425 C1426 1.410 . S
C1425 C1433 1.503 1_565 S
C1426 C1425 1.410 . S
C1426 C1427 1.392 . S
C1426 C1429 1.511 . S
C1427 C1423 1.376 . S
C1427 C1426 1.392 . S
C1427 H1439 0.929 . S
C1428 C1424 1.531 . S
C1428 H1440 0.960 . S
C1428 H1441 0.962 . S
C1428 H1442 0.960 . S
C1429 C1426 1.511 . S
C1429 H1443 0.961 . S
C1429 H1444 0.961 1_565 S
C1429 H1445 0.961 . S
C1430 C1431 1.370 . S
C1430 C1432 1.363 . S
C1430 H1446 0.931 . S
C1431 C1430 1.370 . S
C1431 C1435 1.408 . S
C1432 C1430 1.363 . S
C1432 C1433 1.370 . S
C1432 C1436 1.524 1_545 S
C1433 C1425 1.503 1_545 S
C1433 C1432 1.370 . S
C1433 C1434 1.403 . S
C1434 C1433 1.403 . S
C1434 C1435 1.404 . S
C1434 C1437 1.539 . S
C1435 C1431 1.408 . S
C1435 C1434 1.404 . S
C1435 H1447 0.930 . S
C1436 C1432 1.524 1_565 S
C1436 H1448 0.956 . S
C1436 H1449 0.961 . S
C1436 H1450 0.961 . S
C1437 C1434 1.539 . S
C1437 H1451 0.958 . S
C1437 H1452 0.961 . S
C1437 H1453 0.960 . S
H1438 C1422 0.931 . S
H1439 C1427 0.929 . S
H1440 C1428 0.960 . S
H1441 C1428 0.962 . S
H1442 C1428 0.960 . S
H1443 C1429 0.961 . S
H1444 C1429 0.961 1_545 S
H1445 C1429 0.961 . S
H1446 C1430 0.931 . S
H1447 C1435 0.930 . S
H1448 C1436 0.956 . S
H1449 C1436 0.961 . S
H1450 C1436 0.961 . S
H1451 C1437 0.958 . S
H1452 C1437 0.961 . S
H1453 C1437 0.960 . S
C1454 C1455 1.391 . S
C1454 C1456 1.394 . S
C1454 H1470 0.931 . S
C1455 C1454 1.391 . S
C1455 C1459 1.376 . S
C1456 C1454 1.394 . S
C1456 C1457 1.369 . S
C1456 C1460 1.531 1_455 S
C1457 C1456 1.369 . S
C1457 C1458 1.410 . S
C1457 C1465 1.503 1_455 S
C1458 C1457 1.410 . S
C1458 C1459 1.392 . S
C1458 C1461 1.511 . S
C1459 C1455 1.376 . S
C1459 C1458 1.392 . S
C1459 H1471 0.929 . S
C1460 C1456 1.531 1_655 S
C1460 H1472 0.960 . S
C1460 H1473 0.962 . S
C1460 H1474 0.960 . S
C1461 C1458 1.511 . S
C1461 H1475 0.961 . S
C1461 H1476 0.961 . S
C1461 H1477 0.961 . S
C1462 C1463 1.370 . S
C1462 C1464 1.363 . S
C1462 H1478 0.931 . S
C1463 C1462 1.370 . S
C1463 C1467 1.408 . S
C1464 C1462 1.363 . S
C1464 C1465 1.370 . S
C1464 C1468 1.524 1_655 S
C1465 C1457 1.503 1_655 S
C1465 C1464 1.370 . S
C1465 C1466 1.403 . S
C1466 C1465 1.403 . S
C1466 C1467 1.404 . S
C1466 C1469 1.539 . S
C1467 C1463 1.408 . S
C1467 C1466 1.404 . S
C1467 H1479 0.930 . S
C1468 C1464 1.524 1_455 S
C1468 H1480 0.956 . S
C1468 H1481 0.961 . S
C1468 H1482 0.961 . S
C1469 C1466 1.539 . S
C1469 H1483 0.958 . S
C1469 H1484 0.961 . S
C1469 H1485 0.960 . S
H1470 C1454 0.931 . S
H1471 C1459 0.929 . S
H1472 C1460 0.960 . S
H1473 C1460 0.962 . S
H1474 C1460 0.960 . S
H1475 C1461 0.961 . S
H1476 C1461 0.961 . S
H1477 C1461 0.961 . S
H1478 C1462 0.931 . S
H1479 C1467 0.930 . S
H1480 C1468 0.956 . S
H1481 C1468 0.961 . S
H1482 C1468 0.961 . S
H1483 C1469 0.958 . S
H1484 C1469 0.961 . S
H1485 C1469 0.960 . S
C1486 C1487 1.391 . S
C1486 C1488 1.394 . S
C1486 H1502 0.931 . S
C1487 C1486 1.391 . S
C1487 C1491 1.376 . S
C1488 C1486 1.394 . S
C1488 C1489 1.369 . S
C1488 C1492 1.531 . S
C1489 C1488 1.369 . S
C1489 C1490 1.410 . S
C1489 C1497 1.503 . S
C1490 C1489 1.410 . S
C1490 C1491 1.392 . S
C1490 C1493 1.511 . S
C1491 C1487 1.376 . S
C1491 C1490 1.392 . S
C1491 H1503 0.929 . S
C1492 C1488 1.531 . S
C1492 H1504 0.960 . S
C1492 H1505 0.962 . S
C1492 H1506 0.960 . S
C1493 C1490 1.511 . S
C1493 H1507 0.961 . S
C1493 H1508 0.961 . S
C1493 H1509 0.961 . S
C1494 C1495 1.370 . S
C1494 C1496 1.363 . S
C1494 H1510 0.931 . S
C1495 C1494 1.370 . S
C1495 C1499 1.408 . S
C1496 C1494 1.363 . S
C1496 C1497 1.370 . S
C1496 C1500 1.524 . S
C1497 C1489 1.503 . S
C1497 C1496 1.370 . S
C1497 C1498 1.403 . S
C1498 C1497 1.403 . S
C1498 C1499 1.404 . S
C1498 C1501 1.539 . S
C1499 C1495 1.408 . S
C1499 C1498 1.404 . S
C1499 H1511 0.930 . S
C1500 C1496 1.524 . S
C1500 H1512 0.956 . S
C1500 H1513 0.961 . S
C1500 H1514 0.961 . S
C1501 C1498 1.539 . S
C1501 H1515 0.958 . S
C1501 H1516 0.961 . S
C1501 H1517 0.960 . S
H1502 C1486 0.931 . S
H1503 C1491 0.929 . S
H1504 C1492 0.960 . S
H1505 C1492 0.962 . S
H1506 C1492 0.960 . S
H1507 C1493 0.961 . S
H1508 C1493 0.961 . S
H1509 C1493 0.961 . S
H1510 C1494 0.931 . S
H1511 C1499 0.930 . S
H1512 C1500 0.956 . S
H1513 C1500 0.961 . S
H1514 C1500 0.961 . S
H1515 C1501 0.958 . S
H1516 C1501 0.961 . S
H1517 C1501 0.960 . S
C1518 C1519 1.391 . S
C1518 C1520 1.394 1_455 S
C1518 H1534 0.931 . S
C1519 C1518 1.391 . S
C1519 C1523 1.376 . S
C1520 C1518 1.394 1_655 S
C1520 C1521 1.369 . S
C1520 C1524 1.531 . S
C1521 C1520 1.369 . S
C1521 C1522 1.410 . S
C1521 C1529 1.503 . S
C1522 C1521 1.410 . S
C1522 C1523 1.392 1_655 S
C1522 C1525 1.511 . S
C1523 C1519 1.376 . S
C1523 C1522 1.392 1_455 S
C1523 H1535 0.929 . S
C1524 C1520 1.531 . S
C1524 H1536 0.960 . S
C1524 H1537 0.962 . S
C1524 H1538 0.960 1_655 S
C1525 C1522 1.511 . S
C1525 H1539 0.961 . S
C1525 H1540 0.961 . S
C1525 H1541 0.961 . S
C1526 C1527 1.370 . S
C1526 C1528 1.363 . S
C1526 H1542 0.931 . S
C1527 C1526 1.370 . S
C1527 C1531 1.408 . S
C1528 C1526 1.363 . S
C1528 C1529 1.370 . S
C1528 C1532 1.524 . S
C1529 C1521 1.503 . S
C1529 C1528 1.370 . S
C1529 C1530 1.403 . S
C1530 C1529 1.403 . S
C1530 C1531 1.404 . S
C1530 C1533 1.539 . S
C1531 C1527 1.408 . S
C1531 C1530 1.404 . S
C1531 H1543 0.930 . S
C1532 C1528 1.524 . S
C1532 H1544 0.956 . S
C1532 H1545 0.961 . S
C1532 H1546 0.961 . S
C1533 C1530 1.539 . S
C1533 H1547 0.958 . S
C1533 H1548 0.961 . S
C1533 H1549 0.960 . S
H1534 C1518 0.931 . S
H1535 C1523 0.929 . S
H1536 C1524 0.960 . S
H1537 C1524 0.962 . S
H1538 C1524 0.960 1_455 S
H1539 C1525 0.961 . S
H1540 C1525 0.961 . S
H1541 C1525 0.961 . S
H1542 C1526 0.931 . S
H1543 C1531 0.930 . S
H1544 C1532 0.956 . S
H1545 C1532 0.961 . S
H1546 C1532 0.961 . S
H1547 C1533 0.958 . S
H1548 C1533 0.961 . S
H1549 C1533 0.960 . S
C1550 C1551 1.391 . S
C1550 C1552 1.394 . S
C1550 H1566 0.931 . S
C1551 C1550 1.391 . S
C1551 C1555 1.376 . S
C1552 C1550 1.394 . S
C1552 C1553 1.369 . S
C1552 C1556 1.531 . S
C1553 C1552 1.369 . S
C1553 C1554 1.410 . S
C1553 C1561 1.503 . S
C1554 C1553 1.410 . S
C1554 C1555 1.392 . S
C1554 C1557 1.511 . S
C1555 C1551 1.376 . S
C1555 C1554 1.392 . S
C1555 H1567 0.929 . S
C1556 C1552 1.531 . S
C1556 H1568 0.960 . S
C1556 H1569 0.962 . S
C1556 H1570 0.960 . S
C1557 C1554 1.511 . S
C1557 H1571 0.961 . S
C1557 H1572 0.961 . S
C1557 H1573 0.961 . S
C1558 C1559 1.370 . S
C1558 C1560 1.363 . S
C1558 H1574 0.931 . S
C1559 C1558 1.370 . S
C1559 C1563 1.408 . S
C1560 C1558 1.363 . S
C1560 C1561 1.370 . S
C1560 C1564 1.524 . S
C1561 C1553 1.503 . S
C1561 C1560 1.370 . S
C1561 C1562 1.403 . S
C1562 C1561 1.403 . S
C1562 C1563 1.404 . S
C1562 C1565 1.539 . S
C1563 C1559 1.408 . S
C1563 C1562 1.404 . S
C1563 H1575 0.930 . S
C1564 C1560 1.524 . S
C1564 H1576 0.956 . S
C1564 H1577 0.961 . S
C1564 H1578 0.961 . S
C1565 C1562 1.539 . S
C1565 H1579 0.958 . S
C1565 H1580 0.961 . S
C1565 H1581 0.960 . S
H1566 C1550 0.931 . S
H1567 C1555 0.929 . S
H1568 C1556 0.960 . S
H1569 C1556 0.962 . S
H1570 C1556 0.960 . S
H1571 C1557 0.961 . S
H1572 C1557 0.961 . S
H1573 C1557 0.961 . S
H1574 C1558 0.931 . S
H1575 C1563 0.930 . S
H1576 C1564 0.956 . S
H1577 C1564 0.961 . S
H1578 C1564 0.961 . S
H1579 C1565 0.958 . S
H1580 C1565 0.961 . S
H1581 C1565 0.960 . S
C1582 C1583 1.391 . S
C1582 C1584 1.394 1_565 S
C1582 H1598 0.931 . S
C1583 C1582 1.391 . S
C1583 C1587 1.376 . S
C1584 C1582 1.394 1_545 S
C1584 C1585 1.369 . S
C1584 C1588 1.531 . S
C1585 C1584 1.369 . S
C1585 C1586 1.410 . S
C1585 C1593 1.503 . S
C1586 C1585 1.410 . S
C1586 C1587 1.392 1_545 S
C1586 C1589 1.511 . S
C1587 C1583 1.376 . S
C1587 C1586 1.392 1_565 S
C1587 H1599 0.929 . S
C1588 C1584 1.531 . S
C1588 H1600 0.960 . S
C1588 H1601 0.962 . S
C1588 H1602 0.960 . S
C1589 C1586 1.511 . S
C1589 H1603 0.961 . S
C1589 H1604 0.961 . S
C1589 H1605 0.961 . S
C1590 C1591 1.370 . S
C1590 C1592 1.363 . S
C1590 H1606 0.931 . S
C1591 C1590 1.370 . S
C1591 C1595 1.408 . S
C1592 C1590 1.363 . S
C1592 C1593 1.370 . S
C1592 C1596 1.524 . S
C1593 C1585 1.503 . S
C1593 C1592 1.370 . S
C1593 C1594 1.403 . S
C1594 C1593 1.403 . S
C1594 C1595 1.404 . S
C1594 C1597 1.539 . S
C1595 C1591 1.408 . S
C1595 C1594 1.404 . S
C1595 H1607 0.930 . S
C1596 C1592 1.524 . S
C1596 H1608 0.956 . S
C1596 H1609 0.961 . S
C1596 H1610 0.961 . S
C1597 C1594 1.539 . S
C1597 H1611 0.958 . S
C1597 H1612 0.961 . S
C1597 H1613 0.960 . S
H1598 C1582 0.931 . S
H1599 C1587 0.929 . S
H1600 C1588 0.960 . S
H1601 C1588 0.962 . S
H1602 C1588 0.960 . S
H1603 C1589 0.961 . S
H1604 C1589 0.961 . S
H1605 C1589 0.961 . S
H1606 C1590 0.931 . S
H1607 C1595 0.930 . S
H1608 C1596 0.956 . S
H1609 C1596 0.961 . S
H1610 C1596 0.961 . S
H1611 C1597 0.958 . S
H1612 C1597 0.961 . S
H1613 C1597 0.960 . S
C1614 C1615 1.391 . S
C1614 C1616 1.394 . S
C1614 H1630 0.931 . S
C1615 C1614 1.391 . S
C1615 C1619 1.376 . S
C1616 C1614 1.394 . S
C1616 C1617 1.369 . S
C1616 C1620 1.531 . S
C1617 C1616 1.369 . S
C1617 C1618 1.410 . S
C1617 C1625 1.503 . S
C1618 C1617 1.410 . S
C1618 C1619 1.392 . S
C1618 C1621 1.511 . S
C1619 C1615 1.376 . S
C1619 C1618 1.392 . S
C1619 H1631 0.929 . S
C1620 C1616 1.531 . S
C1620 H1632 0.960 . S
C1620 H1633 0.962 . S
C1620 H1634 0.960 . S
C1621 C1618 1.511 . S
C1621 H1635 0.961 . S
C1621 H1636 0.961 . S
C1621 H1637 0.961 . S
C1622 C1623 1.370 . S
C1622 C1624 1.363 . S
C1622 H1638 0.931 . S
C1623 C1622 1.370 . S
C1623 C1627 1.408 . S
C1624 C1622 1.363 . S
C1624 C1625 1.370 . S
C1624 C1628 1.524 . S
C1625 C1617 1.503 . S
C1625 C1624 1.370 . S
C1625 C1626 1.403 . S
C1626 C1625 1.403 . S
C1626 C1627 1.404 . S
C1626 C1629 1.539 . S
C1627 C1623 1.408 . S
C1627 C1626 1.404 . S
C1627 H1639 0.930 . S
C1628 C1624 1.524 . S
C1628 H1640 0.956 . S
C1628 H1641 0.961 . S
C1628 H1642 0.961 . S
C1629 C1626 1.539 . S
C1629 H1643 0.958 . S
C1629 H1644 0.961 . S
C1629 H1645 0.960 . S
H1630 C1614 0.931 . S
H1631 C1619 0.929 . S
H1632 C1620 0.960 . S
H1633 C1620 0.962 . S
H1634 C1620 0.960 . S
H1635 C1621 0.961 . S
H1636 C1621 0.961 . S
H1637 C1621 0.961 . S
H1638 C1622 0.931 . S
H1639 C1627 0.930 . S
H1640 C1628 0.956 . S
H1641 C1628 0.961 . S
H1642 C1628 0.961 . S
H1643 C1629 0.958 . S
H1644 C1629 0.961 . S
H1645 C1629 0.960 . S
C1646 C1647 1.391 . S
C1646 C1648 1.394 . S
C1646 H1662 0.931 . S
C1647 C1646 1.391 . S
C1647 C1651 1.376 . S
C1648 C1646 1.394 . S
C1648 C1649 1.369 . S
C1648 C1652 1.531 . S
C1649 C1648 1.369 . S
C1649 C1650 1.410 . S
C1649 C1657 1.503 . S
C1650 C1649 1.410 . S
C1650 C1651 1.392 . S
C1650 C1653 1.511 . S
C1651 C1647 1.376 . S
C1651 C1650 1.392 . S
C1651 H1663 0.929 . S
C1652 C1648 1.531 . S
C1652 H1664 0.960 . S
C1652 H1665 0.962 . S
C1652 H1666 0.960 . S
C1653 C1650 1.511 . S
C1653 H1667 0.961 . S
C1653 H1668 0.961 . S
C1653 H1669 0.961 . S
C1654 C1655 1.370 . S
C1654 C1656 1.363 . S
C1654 H1670 0.931 . S
C1655 C1654 1.370 . S
C1655 C1659 1.408 . S
C1656 C1654 1.363 . S
C1656 C1657 1.370 . S
C1656 C1660 1.524 . S
C1657 C1649 1.503 . S
C1657 C1656 1.370 . S
C1657 C1658 1.403 . S
C1658 C1657 1.403 . S
C1658 C1659 1.404 . S
C1658 C1661 1.539 . S
C1659 C1655 1.408 . S
C1659 C1658 1.404 . S
C1659 H1671 0.930 . S
C1660 C1656 1.524 . S
C1660 H1672 0.956 . S
C1660 H1673 0.961 . S
C1660 H1674 0.961 . S
C1661 C1658 1.539 . S
C1661 H1675 0.958 . S
C1661 H1676 0.961 . S
C1661 H1677 0.960 . S
H1662 C1646 0.931 . S
H1663 C1651 0.929 . S
H1664 C1652 0.960 . S
H1665 C1652 0.962 . S
H1666 C1652 0.960 . S
H1667 C1653 0.961 . S
H1668 C1653 0.961 . S
H1669 C1653 0.961 . S
H1670 C1654 0.931 . S
H1671 C1659 0.930 . S
H1672 C1660 0.956 . S
H1673 C1660 0.961 . S
H1674 C1660 0.961 . S
H1675 C1661 0.958 . S
H1676 C1661 0.961 . S
H1677 C1661 0.960 . S
C1678 C1679 1.391 . S
C1678 C1680 1.394 . S
C1678 H1694 0.931 . S
C1679 C1678 1.391 . S
C1679 C1683 1.376 . S
C1680 C1678 1.394 . S
C1680 C1681 1.369 . S
C1680 C1684 1.531 . S
C1681 C1680 1.369 . S
C1681 C1682 1.410 . S
C1681 C1689 1.503 . S
C1682 C1681 1.410 . S
C1682 C1683 1.392 . S
C1682 C1685 1.511 . S
C1683 C1679 1.376 . S
C1683 C1682 1.392 . S
C1683 H1695 0.929 . S
C1684 C1680 1.531 . S
C1684 H1696 0.960 . S
C1684 H1697 0.962 . S
C1684 H1698 0.960 . S
C1685 C1682 1.511 . S
C1685 H1699 0.961 . S
C1685 H1700 0.961 . S
C1685 H1701 0.961 . S
C1686 C1687 1.370 . S
C1686 C1688 1.363 . S
C1686 H1702 0.931 . S
C1687 C1686 1.370 . S
C1687 C1691 1.408 . S
C1688 C1686 1.363 . S
C1688 C1689 1.370 . S
C1688 C1692 1.524 . S
C1689 C1681 1.503 . S
C1689 C1688 1.370 . S
C1689 C1690 1.403 . S
C1690 C1689 1.403 . S
C1690 C1691 1.404 . S
C1690 C1693 1.539 . S
C1691 C1687 1.408 . S
C1691 C1690 1.404 . S
C1691 H1703 0.930 . S
C1692 C1688 1.524 . S
C1692 H1704 0.956 . S
C1692 H1705 0.961 . S
C1692 H1706 0.961 . S
C1693 C1690 1.539 . S
C1693 H1707 0.958 . S
C1693 H1708 0.961 . S
C1693 H1709 0.960 . S
H1694 C1678 0.931 . S
H1695 C1683 0.929 . S
H1696 C1684 0.960 . S
H1697 C1684 0.962 . S
H1698 C1684 0.960 . S
H1699 C1685 0.961 . S
H1700 C1685 0.961 . S
H1701 C1685 0.961 . S
H1702 C1686 0.931 . S
H1703 C1691 0.930 . S
H1704 C1692 0.956 . S
H1705 C1692 0.961 . S
H1706 C1692 0.961 . S
H1707 C1693 0.958 . S
H1708 C1693 0.961 . S
H1709 C1693 0.960 . S
C1710 C1711 1.391 . S
C1710 C1712 1.394 . S
C1710 H1726 0.931 . S
C1711 C1710 1.391 . S
C1711 C1715 1.376 . S
C1712 C1710 1.394 . S
C1712 C1713 1.369 . S
C1712 C1716 1.531 . S
C1713 C1712 1.369 . S
C1713 C1714 1.410 . S
C1713 C1721 1.503 . S
C1714 C1713 1.410 . S
C1714 C1715 1.392 . S
C1714 C1717 1.511 . S
C1715 C1711 1.376 . S
C1715 C1714 1.392 . S
C1715 H1727 0.929 . S
C1716 C1712 1.531 . S
C1716 H1728 0.960 . S
C1716 H1729 0.962 . S
C1716 H1730 0.960 . S
C1717 C1714 1.511 . S
C1717 H1731 0.961 . S
C1717 H1732 0.961 . S
C1717 H1733 0.961 . S
C1718 C1719 1.370 . S
C1718 C1720 1.363 . S
C1718 H1734 0.931 1_565 S
C1719 C1718 1.370 . S
C1719 C1723 1.408 . S
C1720 C1718 1.363 . S
C1720 C1721 1.370 . S
C1720 C1724 1.524 . S
C1721 C1713 1.503 . S
C1721 C1720 1.370 . S
C1721 C1722 1.403 . S
C1722 C1721 1.403 . S
C1722 C1723 1.404 . S
C1722 C1725 1.539 . S
C1723 C1719 1.408 . S
C1723 C1722 1.404 . S
C1723 H1735 0.930 . S
C1724 C1720 1.524 . S
C1724 H1736 0.956 . S
C1724 H1737 0.961 . S
C1724 H1738 0.961 1_565 S
C1725 C1722 1.539 . S
C1725 H1739 0.958 . S
C1725 H1740 0.961 . S
C1725 H1741 0.960 . S
H1726 C1710 0.931 . S
H1727 C1715 0.929 . S
H1728 C1716 0.960 . S
H1729 C1716 0.962 . S
H1730 C1716 0.960 . S
H1731 C1717 0.961 . S
H1732 C1717 0.961 . S
H1733 C1717 0.961 . S
H1734 C1718 0.931 1_545 S
H1735 C1723 0.930 . S
H1736 C1724 0.956 . S
H1737 C1724 0.961 . S
H1738 C1724 0.961 1_545 S
H1739 C1725 0.958 . S
H1740 C1725 0.961 . S
H1741 C1725 0.960 . S
C1742 C1743 1.391 . S
C1742 C1744 1.394 . S
C1742 H1758 0.931 . S
C1743 C1742 1.391 . S
C1743 C1747 1.376 . S
C1744 C1742 1.394 . S
C1744 C1745 1.369 . S
C1744 C1748 1.531 . S
C1745 C1744 1.369 . S
C1745 C1746 1.410 . S
C1745 C1753 1.503 . S
C1746 C1745 1.410 . S
C1746 C1747 1.392 . S
C1746 C1749 1.511 . S
C1747 C1743 1.376 . S
C1747 C1746 1.392 . S
C1747 H1759 0.929 . S
C1748 C1744 1.531 . S
C1748 H1760 0.960 . S
C1748 H1761 0.962 . S
C1748 H1762 0.960 . S
C1749 C1746 1.511 . S
C1749 H1763 0.961 . S
C1749 H1764 0.961 . S
C1749 H1765 0.961 . S
C1750 C1751 1.370 . S
C1750 C1752 1.363 . S
C1750 H1766 0.931 . S
C1751 C1750 1.370 . S
C1751 C1755 1.408 . S
C1752 C1750 1.363 . S
C1752 C1753 1.370 . S
C1752 C1756 1.524 . S
C1753 C1745 1.503 . S
C1753 C1752 1.370 . S
C1753 C1754 1.403 . S
C1754 C1753 1.403 . S
C1754 C1755 1.404 . S
C1754 C1757 1.539 . S
C1755 C1751 1.408 . S
C1755 C1754 1.404 . S
C1755 H1767 0.930 . S
C1756 C1752 1.524 . S
C1756 H1768 0.956 1_455 S
C1756 H1769 0.961 . S
C1756 H1770 0.961 1_455 S
C1757 C1754 1.539 . S
C1757 H1771 0.958 . S
C1757 H1772 0.961 . S
C1757 H1773 0.960 . S
H1758 C1742 0.931 . S
H1759 C1747 0.929 . S
H1760 C1748 0.960 . S
H1761 C1748 0.962 . S
H1762 C1748 0.960 . S
H1763 C1749 0.961 . S
H1764 C1749 0.961 . S
H1765 C1749 0.961 . S
H1766 C1750 0.931 . S
H1767 C1755 0.930 . S
H1768 C1756 0.956 1_655 S
H1769 C1756 0.961 . S
H1770 C1756 0.961 1_655 S
H1771 C1757 0.958 . S
H1772 C1757 0.961 . S
H1773 C1757 0.960 . S
C1774 C1775 1.391 . S
C1774 C1776 1.394 . S
C1774 H1790 0.931 . S
C1775 C1774 1.391 . S
C1775 C1779 1.376 . S
C1776 C1774 1.394 . S
C1776 C1777 1.369 . S
C1776 C1780 1.531 . S
C1777 C1776 1.369 . S
C1777 C1778 1.410 . S
C1777 C1785 1.503 . S
C1778 C1777 1.410 . S
C1778 C1779 1.392 . S
C1778 C1781 1.511 . S
C1779 C1775 1.376 . S
C1779 C1778 1.392 . S
C1779 H1791 0.929 . S
C1780 C1776 1.531 . S
C1780 H1792 0.960 . S
C1780 H1793 0.962 . S
C1780 H1794 0.960 . S
C1781 C1778 1.511 . S
C1781 H1795 0.961 . S
C1781 H1796 0.961 . S
C1781 H1797 0.961 . S
C1782 C1783 1.370 . S
C1782 C1784 1.363 . S
C1782 H1798 0.931 . S
C1783 C1782 1.370 . S
C1783 C1787 1.408 . S
C1784 C1782 1.363 . S
C1784 C1785 1.370 . S
C1784 C1788 1.524 . S
C1785 C1777 1.503 . S
C1785 C1784 1.370 . S
C1785 C1786 1.403 . S
C1786 C1785 1.403 . S
C1786 C1787 1.404 . S
C1786 C1789 1.539 . S
C1787 C1783 1.408 . S
C1787 C1786 1.404 . S
C1787 H1799 0.930 . S
C1788 C1784 1.524 . S
C1788 H1800 0.956 . S
C1788 H1801 0.961 . S
C1788 H1802 0.961 . S
C1789 C1786 1.539 . S
C1789 H1803 0.958 . S
C1789 H1804 0.961 . S
C1789 H1805 0.960 . S
H1790 C1774 0.931 . S
H1791 C1779 0.929 . S
H1792 C1780 0.960 . S
H1793 C1780 0.962 . S
H1794 C1780 0.960 . S
H1795 C1781 0.961 . S
H1796 C1781 0.961 . S
H1797 C1781 0.961 . S
H1798 C1782 0.931 . S
H1799 C1787 0.930 . S
H1800 C1788 0.956 . S
H1801 C1788 0.961 . S
H1802 C1788 0.961 . S
H1803 C1789 0.958 . S
H1804 C1789 0.961 . S
H1805 C1789 0.960 . S
C1806 C1807 1.391 . S
C1806 C1808 1.394 . S
C1806 H1822 0.931 . S
C1807 C1806 1.391 . S
C1807 C1811 1.376 . S
C1808 C1806 1.394 . S
C1808 C1809 1.369 . S
C1808 C1812 1.531 . S
C1809 C1808 1.369 . S
C1809 C1810 1.410 . S
C1809 C1817 1.503 . S
C1810 C1809 1.410 . S
C1810 C1811 1.392 . S
C1810 C1813 1.527 . S
C1811 C1807 1.376 . S
C1811 C1810 1.392 . S
C1811 H1823 0.929 . S
C1812 C1808 1.531 . S
C1812 H1824 0.960 . S
C1812 H1825 0.962 . S
C1812 H1826 0.960 . S
C1813 C1810 1.527 . S
C1813 H1827 0.974 1_655 S
C1813 H1828 0.981 . S
C1813 H1829 0.914 1_655 S
C1814 C1815 1.370 . S
C1814 C1816 1.363 . S
C1814 H1830 0.931 . S
C1815 C1814 1.370 . S
C1815 C1819 1.408 . S
C1816 C1814 1.363 . S
C1816 C1817 1.370 . S
C1816 C1820 1.524 . S
C1817 C1809 1.503 . S
C1817 C1816 1.370 . S
C1817 C1818 1.403 . S
C1818 C1817 1.403 . S
C1818 C1819 1.404 . S
C1818 C1821 1.539 . S
C1819 C1815 1.408 . S
C1819 C1818 1.404 . S
C1819 H1831 0.930 . S
C1820 C1816 1.524 . S
C1820 H1832 0.956 . S
C1820 H1833 0.961 . S
C1820 H1834 0.961 . S
C1821 C1818 1.539 . S
C1821 H1835 0.958 . S
C1821 H1836 0.961 1_655 S
C1821 H1837 0.960 1_655 S
H1822 C1806 0.931 . S
H1823 C1811 0.929 . S
H1824 C1812 0.960 . S
H1825 C1812 0.962 . S
H1826 C1812 0.960 . S
H1827 C1813 0.974 1_455 S
H1828 C1813 0.981 . S
H1829 C1813 0.914 1_455 S
H1830 C1814 0.931 . S
H1831 C1819 0.930 . S
H1832 C1820 0.956 . S
H1833 C1820 0.961 . S
H1834 C1820 0.961 . S
H1835 C1821 0.958 . S
H1836 C1821 0.961 1_455 S
H1837 C1821 0.960 1_455 S
C1838 C1839 1.391 . S
C1838 C1840 1.394 . S
C1838 H1854 0.931 . S
C1839 C1838 1.391 . S
C1839 C1843 1.376 . S
C1840 C1838 1.394 . S
C1840 C1841 1.369 . S
C1840 C1844 1.531 . S
C1841 C1840 1.369 . S
C1841 C1842 1.410 . S
C1841 C1849 1.503 . S
C1842 C1841 1.410 . S
C1842 C1843 1.392 . S
C1842 C1845 1.511 . S
C1843 C1839 1.376 . S
C1843 C1842 1.392 . S
C1843 H1855 0.929 . S
C1844 C1840 1.531 . S
C1844 H1856 0.960 . S
C1844 H1857 0.962 . S
C1844 H1858 0.960 . S
C1845 C1842 1.511 . S
C1845 H1859 0.961 . S
C1845 H1860 0.961 . S
C1845 H1861 0.961 . S
C1846 C1847 1.370 . S
C1846 C1848 1.363 . S
C1846 H1862 0.931 . S
C1847 C1846 1.370 . S
C1847 C1851 1.408 . S
C1848 C1846 1.363 . S
C1848 C1849 1.370 . S
C1848 C1852 1.524 . S
C1849 C1841 1.503 . S
C1849 C1848 1.370 . S
C1849 C1850 1.403 . S
C1850 C1849 1.403 . S
C1850 C1851 1.404 . S
C1850 C1853 1.539 . S
C1851 C1847 1.408 . S
C1851 C1850 1.404 . S
C1851 H1863 0.930 . S
C1852 C1848 1.524 . S
C1852 H1864 0.956 . S
C1852 H1865 0.961 . S
C1852 H1866 0.961 . S
C1853 C1850 1.539 . S
C1853 H1867 0.958 . S
C1853 H1868 0.961 . S
C1853 H1869 0.960 . S
H1854 C1838 0.931 . S
H1855 C1843 0.929 . S
H1856 C1844 0.960 . S
H1857 C1844 0.962 . S
H1858 C1844 0.960 . S
H1859 C1845 0.961 . S
H1860 C1845 0.961 . S
H1861 C1845 0.961 . S
H1862 C1846 0.931 . S
H1863 C1851 0.930 . S
H1864 C1852 0.956 . S
H1865 C1852 0.961 . S
H1866 C1852 0.961 . S
H1867 C1853 0.958 . S
H1868 C1853 0.961 . S
H1869 C1853 0.960 . S
C1870 C1871 1.391 . S
C1870 C1872 1.394 . S
C1870 H1886 0.931 . S
C1871 C1870 1.391 . S
C1871 C1875 1.376 . S
C1872 C1870 1.394 . S
C1872 C1873 1.369 . S
C1872 C1876 1.531 . S
C1873 C1872 1.369 . S
C1873 C1874 1.410 . S
C1873 C1881 1.503 . S
C1874 C1873 1.410 . S
C1874 C1875 1.392 . S
C1874 C1877 1.511 . S
C1875 C1871 1.376 . S
C1875 C1874 1.392 . S
C1875 H1887 0.929 . S
C1876 C1872 1.531 . S
C1876 H1888 0.960 . S
C1876 H1889 0.962 . S
C1876 H1890 0.960 . S
C1877 C1874 1.511 . S
C1877 H1891 0.961 . S
C1877 H1892 0.961 . S
C1877 H1893 0.961 . S
C1878 C1879 1.370 . S
C1878 C1880 1.363 . S
C1878 H1894 0.931 . S
C1879 C1878 1.370 . S
C1879 C1883 1.408 . S
C1880 C1878 1.363 . S
C1880 C1881 1.370 . S
C1880 C1884 1.524 . S
C1881 C1873 1.503 . S
C1881 C1880 1.370 . S
C1881 C1882 1.403 . S
C1882 C1881 1.403 . S
C1882 C1883 1.404 . S
C1882 C1885 1.539 . S
C1883 C1879 1.408 . S
C1883 C1882 1.404 . S
C1883 H1895 0.930 . S
C1884 C1880 1.524 . S
C1884 H1896 0.956 . S
C1884 H1897 0.961 . S
C1884 H1898 0.961 . S
C1885 C1882 1.539 . S
C1885 H1899 0.958 1_545 S
C1885 H1900 0.961 1_545 S
C1885 H1901 0.960 . S
H1886 C1870 0.931 . S
H1887 C1875 0.929 . S
H1888 C1876 0.960 . S
H1889 C1876 0.962 . S
H1890 C1876 0.960 . S
H1891 C1877 0.961 . S
H1892 C1877 0.961 . S
H1893 C1877 0.961 . S
H1894 C1878 0.931 . S
H1895 C1883 0.930 . S
H1896 C1884 0.956 . S
H1897 C1884 0.961 . S
H1898 C1884 0.961 . S
H1899 C1885 0.958 1_565 S
H1900 C1885 0.961 1_565 S
H1901 C1885 0.960 . S
C1902 C1903 1.391 . S
C1902 C1904 1.394 . S
C1902 H1918 0.931 . S
C1903 C1902 1.391 . S
C1903 C1907 1.376 . S
C1904 C1902 1.394 . S
C1904 C1905 1.369 . S
C1904 C1908 1.531 . S
C1905 C1904 1.369 . S
C1905 C1906 1.410 . S
C1905 C1913 1.503 . S
C1906 C1905 1.410 . S
C1906 C1907 1.392 . S
C1906 C1909 1.511 . S
C1907 C1903 1.376 . S
C1907 C1906 1.392 . S
C1907 H1919 0.929 . S
C1908 C1904 1.531 . S
C1908 H1920 0.960 . S
C1908 H1921 0.962 . S
C1908 H1922 0.960 . S
C1909 C1906 1.511 . S
C1909 H1923 0.961 . S
C1909 H1924 0.961 . S
C1909 H1925 0.961 . S
C1910 C1911 1.370 . S
C1910 C1912 1.363 . S
C1910 H1926 0.931 . S
C1911 C1910 1.370 . S
C1911 C1915 1.408 . S
C1912 C1910 1.363 . S
C1912 C1913 1.370 . S
C1912 C1916 1.524 . S
C1913 C1905 1.503 . S
C1913 C1912 1.370 . S
C1913 C1914 1.403 . S
C1914 C1913 1.403 . S
C1914 C1915 1.404 . S
C1914 C1917 1.539 . S
C1915 C1911 1.408 . S
C1915 C1914 1.404 . S
C1915 H1927 0.930 . S
C1916 C1912 1.524 . S
C1916 H1928 0.956 . S
C1916 H1929 0.961 . S
C1916 H1930 0.961 . S
C1917 C1914 1.539 . S
C1917 H1931 0.958 . S
C1917 H1932 0.961 . S
C1917 H1933 0.960 . S
H1918 C1902 0.931 . S
H1919 C1907 0.929 . S
H1920 C1908 0.960 . S
H1921 C1908 0.962 . S
H1922 C1908 0.960 . S
H1923 C1909 0.961 . S
H1924 C1909 0.961 . S
H1925 C1909 0.961 . S
H1926 C1910 0.931 . S
H1927 C1915 0.930 . S
H1928 C1916 0.956 . S
H1929 C1916 0.961 . S
H1930 C1916 0.961 . S
H1931 C1917 0.958 . S
H1932 C1917 0.961 . S
H1933 C1917 0.960 . S
C1934 C1935 1.391 . S
C1934 C1936 1.394 . S
C1934 H1950 0.931 . S
C1935 C1934 1.391 . S
C1935 C1939 1.376 . S
C1936 C1934 1.394 . S
C1936 C1937 1.369 . S
C1936 C1940 1.531 . S
C1937 C1936 1.369 . S
C1937 C1938 1.410 . S
C1937 C1945 1.503 . S
C1938 C1937 1.410 . S
C1938 C1939 1.392 . S
C1938 C1941 1.511 . S
C1939 C1935 1.376 . S
C1939 C1938 1.392 . S
C1939 H1951 0.929 . S
C1940 C1936 1.531 . S
C1940 H1952 0.960 . S
C1940 H1953 0.962 . S
C1940 H1954 0.960 . S
C1941 C1938 1.511 . S
C1941 H1955 0.961 . S
C1941 H1956 0.961 . S
C1941 H1957 0.961 . S
C1942 C1943 1.370 . S
C1942 C1944 1.363 . S
C1942 H1958 0.931 . S
C1943 C1942 1.370 . S
C1943 C1947 1.408 . S
C1944 C1942 1.363 . S
C1944 C1945 1.370 . S
C1944 C1948 1.524 . S
C1945 C1937 1.503 . S
C1945 C1944 1.370 . S
C1945 C1946 1.403 . S
C1946 C1945 1.403 . S
C1946 C1947 1.404 . S
C1946 C1949 1.539 . S
C1947 C1943 1.408 . S
C1947 C1946 1.404 . S
C1947 H1959 0.930 . S
C1948 C1944 1.524 . S
C1948 H1960 0.956 . S
C1948 H1961 0.961 . S
C1948 H1962 0.961 . S
C1949 C1946 1.539 . S
C1949 H1963 0.958 . S
C1949 H1964 0.961 . S
C1949 H1965 0.960 . S
H1950 C1934 0.931 . S
H1951 C1939 0.929 . S
H1952 C1940 0.960 . S
H1953 C1940 0.962 . S
H1954 C1940 0.960 . S
H1955 C1941 0.961 . S
H1956 C1941 0.961 . S
H1957 C1941 0.961 . S
H1958 C1942 0.931 . S
H1959 C1947 0.930 . S
H1960 C1948 0.956 . S
H1961 C1948 0.961 . S
H1962 C1948 0.961 . S
H1963 C1949 0.958 . S
H1964 C1949 0.961 . S
H1965 C1949 0.960 . S
C1966 C1967 1.391 . S
C1966 C1968 1.394 . S
C1966 H1982 0.931 . S
C1967 C1966 1.391 . S
C1967 C1971 1.376 . S
C1968 C1966 1.394 . S
C1968 C1969 1.369 . S
C1968 C1972 1.531 . S
C1969 C1968 1.369 . S
C1969 C1970 1.410 . S
C1969 C1977 1.503 . S
C1970 C1969 1.410 . S
C1970 C1971 1.392 . S
C1970 C1973 1.511 . S
C1971 C1967 1.376 . S
C1971 C1970 1.392 . S
C1971 H1983 0.929 . S
C1972 C1968 1.531 . S
C1972 H1984 0.960 . S
C1972 H1985 0.962 . S
C1972 H1986 0.960 . S
C1973 C1970 1.511 . S
C1973 H1987 0.961 . S
C1973 H1988 0.961 . S
C1973 H1989 0.961 . S
C1974 C1975 1.370 . S
C1974 C1976 1.363 . S
C1974 H1990 0.931 . S
C1975 C1974 1.370 . S
C1975 C1979 1.408 . S
C1976 C1974 1.363 . S
C1976 C1977 1.370 . S
C1976 C1980 1.524 . S
C1977 C1969 1.503 . S
C1977 C1976 1.370 . S
C1977 C1978 1.403 . S
C1978 C1977 1.403 . S
C1978 C1979 1.404 . S
C1978 C1981 1.539 . S
C1979 C1975 1.408 . S
C1979 C1978 1.404 . S
C1979 H1991 0.930 . S
C1980 C1976 1.524 . S
C1980 H1992 0.956 . S
C1980 H1993 0.961 . S
C1980 H1994 0.961 . S
C1981 C1978 1.539 . S
C1981 H1995 0.958 . S
C1981 H1996 0.961 . S
C1981 H1997 0.960 . S
H1982 C1966 0.931 . S
H1983 C1971 0.929 . S
H1984 C1972 0.960 . S
H1985 C1972 0.962 . S
H1986 C1972 0.960 . S
H1987 C1973 0.961 . S
H1988 C1973 0.961 . S
H1989 C1973 0.961 . S
H1990 C1974 0.931 . S
H1991 C1979 0.930 . S
H1992 C1980 0.956 . S
H1993 C1980 0.961 . S
H1994 C1980 0.961 . S
H1995 C1981 0.958 . S
H1996 C1981 0.961 . S
H1997 C1981 0.960 . S
C1998 C1999 1.391 . S
C1998 C2000 1.394 . S
C1998 H2014 0.931 . S
C1999 C1998 1.391 . S
C1999 C2003 1.376 . S
C2000 C1998 1.394 . S
C2000 C2001 1.369 . S
C2000 C2004 1.531 . S
C2001 C2000 1.369 . S
C2001 C2002 1.410 . S
C2001 C2009 1.503 . S
C2002 C2001 1.410 . S
C2002 C2003 1.392 . S
C2002 C2005 1.511 . S
C2003 C1999 1.376 . S
C2003 C2002 1.392 . S
C2003 H2015 0.929 . S
C2004 C2000 1.531 . S
C2004 H2016 0.960 . S
C2004 H2017 0.962 . S
C2004 H2018 0.960 . S
C2005 C2002 1.511 . S
C2005 H2019 0.961 . S
C2005 H2020 0.961 . S
C2005 H2021 0.961 . S
C2006 C2007 1.370 . S
C2006 C2008 1.363 . S
C2006 H2022 0.931 . S
C2007 C2006 1.370 . S
C2007 C2011 1.408 . S
C2008 C2006 1.363 . S
C2008 C2009 1.370 . S
C2008 C2012 1.524 . S
C2009 C2001 1.503 . S
C2009 C2008 1.370 . S
C2009 C2010 1.403 . S
C2010 C2009 1.403 . S
C2010 C2011 1.404 . S
C2010 C2013 1.539 . S
C2011 C2007 1.408 . S
C2011 C2010 1.404 . S
C2011 H2023 0.930 . S
C2012 C2008 1.524 . S
C2012 H2024 0.956 . S
C2012 H2025 0.961 . S
C2012 H2026 0.961 . S
C2013 C2010 1.539 . S
C2013 H2027 0.958 . S
C2013 H2028 0.961 . S
C2013 H2029 0.960 . S
H2014 C1998 0.931 . S
H2015 C2003 0.929 . S
H2016 C2004 0.960 . S
H2017 C2004 0.962 . S
H2018 C2004 0.960 . S
H2019 C2005 0.961 . S
H2020 C2005 0.961 . S
H2021 C2005 0.961 . S
H2022 C2006 0.931 . S
H2023 C2011 0.930 . S
H2024 C2012 0.956 . S
H2025 C2012 0.961 . S
H2026 C2012 0.961 . S
H2027 C2013 0.958 . S
H2028 C2013 0.961 . S
H2029 C2013 0.960 . S
C2030 C2031 1.391 . S
C2030 C2032 1.394 . S
C2030 H2046 0.931 . S
C2031 C2030 1.391 . S
C2031 C2035 1.376 . S
C2032 C2030 1.394 . S
C2032 C2033 1.369 . S
C2032 C2036 1.531 . S
C2033 C2032 1.369 . S
C2033 C2034 1.410 . S
C2033 C2041 1.503 . S
C2034 C2033 1.410 . S
C2034 C2035 1.392 . S
C2034 C2037 1.511 . S
C2035 C2031 1.376 . S
C2035 C2034 1.392 . S
C2035 H2047 0.929 . S
C2036 C2032 1.531 . S
C2036 H2048 0.960 . S
C2036 H2049 0.962 . S
C2036 H2050 0.960 . S
C2037 C2034 1.511 . S
C2037 H2051 0.961 . S
C2037 H2052 0.961 . S
C2037 H2053 0.961 . S
C2038 C2039 1.370 . S
C2038 C2040 1.363 . S
C2038 H2054 0.931 . S
C2039 C2038 1.370 . S
C2039 C2043 1.408 . S
C2040 C2038 1.363 . S
C2040 C2041 1.370 . S
C2040 C2044 1.524 . S
C2041 C2033 1.503 . S
C2041 C2040 1.370 . S
C2041 C2042 1.403 . S
C2042 C2041 1.403 . S
C2042 C2043 1.404 . S
C2042 C2045 1.539 . S
C2043 C2039 1.408 . S
C2043 C2042 1.404 . S
C2043 H2055 0.930 . S
C2044 C2040 1.524 . S
C2044 H2056 0.956 . S
C2044 H2057 0.961 . S
C2044 H2058 0.961 . S
C2045 C2042 1.539 . S
C2045 H2059 0.958 . S
C2045 H2060 0.961 . S
C2045 H2061 0.960 . S
H2046 C2030 0.931 . S
H2047 C2035 0.929 . S
H2048 C2036 0.960 . S
H2049 C2036 0.962 . S
H2050 C2036 0.960 . S
H2051 C2037 0.961 . S
H2052 C2037 0.961 . S
H2053 C2037 0.961 . S
H2054 C2038 0.931 . S
H2055 C2043 0.930 . S
H2056 C2044 0.956 . S
H2057 C2044 0.961 . S
H2058 C2044 0.961 . S
H2059 C2045 0.958 . S
H2060 C2045 0.961 . S
H2061 C2045 0.960 . S
C2062 C2063 1.391 . S
C2062 C2064 1.394 . S
C2062 H2078 0.931 . S
C2063 C2062 1.391 . S
C2063 C2067 1.376 . S
C2064 C2062 1.394 . S
C2064 C2065 1.369 . S
C2064 C2068 1.531 . S
C2065 C2064 1.369 . S
C2065 C2066 1.410 . S
C2065 C2073 1.503 . S
C2066 C2065 1.410 . S
C2066 C2067 1.392 . S
C2066 C2069 1.511 . S
C2067 C2063 1.376 . S
C2067 C2066 1.392 . S
C2067 H2079 0.929 . S
C2068 C2064 1.531 . S
C2068 H2080 0.960 . S
C2068 H2081 0.962 . S
C2068 H2082 0.960 . S
C2069 C2066 1.511 . S
C2069 H2083 0.961 . S
C2069 H2084 0.961 . S
C2069 H2085 0.961 . S
C2070 C2071 1.370 . S
C2070 C2072 1.363 . S
C2070 H2086 0.931 . S
C2071 C2070 1.370 . S
C2071 C2075 1.408 . S
C2072 C2070 1.363 . S
C2072 C2073 1.370 . S
C2072 C2076 1.524 . S
C2073 C2065 1.503 . S
C2073 C2072 1.370 . S
C2073 C2074 1.403 . S
C2074 C2073 1.403 . S
C2074 C2075 1.404 . S
C2074 C2077 1.539 . S
C2075 C2071 1.408 . S
C2075 C2074 1.404 . S
C2075 H2087 0.930 . S
C2076 C2072 1.524 . S
C2076 H2088 0.956 . S
C2076 H2089 0.961 . S
C2076 H2090 0.961 . S
C2077 C2074 1.539 . S
C2077 H2091 0.958 . S
C2077 H2092 0.961 . S
C2077 H2093 0.960 . S
H2078 C2062 0.931 . S
H2079 C2067 0.929 . S
H2080 C2068 0.960 . S
H2081 C2068 0.962 . S
H2082 C2068 0.960 . S
H2083 C2069 0.961 . S
H2084 C2069 0.961 . S
H2085 C2069 0.961 . S
H2086 C2070 0.931 . S
H2087 C2075 0.930 . S
H2088 C2076 0.956 . S
H2089 C2076 0.961 . S
H2090 C2076 0.961 . S
H2091 C2077 0.958 . S
H2092 C2077 0.961 . S
H2093 C2077 0.960 . S
C2094 C2095 1.391 . S
C2094 C2096 1.394 . S
C2094 H2110 0.931 . S
C2095 C2094 1.391 . S
C2095 C2099 1.376 . S
C2096 C2094 1.394 . S
C2096 C2097 1.369 . S
C2096 C2100 1.531 . S
C2097 C2096 1.369 . S
C2097 C2098 1.410 . S
C2097 C2105 1.503 . S
C2098 C2097 1.410 . S
C2098 C2099 1.392 . S
C2098 C2101 1.511 . S
C2099 C2095 1.376 . S
C2099 C2098 1.392 . S
C2099 H2111 0.929 . S
C2100 C2096 1.531 . S
C2100 H2112 0.960 . S
C2100 H2113 0.962 . S
C2100 H2114 0.960 . S
C2101 C2098 1.511 . S
C2101 H2115 0.961 . S
C2101 H2116 0.961 . S
C2101 H2117 0.961 . S
C2102 C2103 1.370 . S
C2102 C2104 1.363 . S
C2102 H2118 0.931 . S
C2103 C2102 1.370 . S
C2103 C2107 1.408 . S
C2104 C2102 1.363 . S
C2104 C2105 1.370 . S
C2104 C2108 1.524 . S
C2105 C2097 1.503 . S
C2105 C2104 1.370 . S
C2105 C2106 1.403 . S
C2106 C2105 1.403 . S
C2106 C2107 1.404 . S
C2106 C2109 1.539 . S
C2107 C2103 1.408 . S
C2107 C2106 1.404 . S
C2107 H2119 0.930 . S
C2108 C2104 1.524 . S
C2108 H2120 0.956 . S
C2108 H2121 0.961 . S
C2108 H2122 0.961 . S
C2109 C2106 1.539 . S
C2109 H2123 0.958 . S
C2109 H2124 0.961 . S
C2109 H2125 0.960 . S
H2110 C2094 0.931 . S
H2111 C2099 0.929 . S
H2112 C2100 0.960 . S
H2113 C2100 0.962 . S
H2114 C2100 0.960 . S
H2115 C2101 0.961 . S
H2116 C2101 0.961 . S
H2117 C2101 0.961 . S
H2118 C2102 0.931 . S
H2119 C2107 0.930 . S
H2120 C2108 0.956 . S
H2121 C2108 0.961 . S
H2122 C2108 0.961 . S
H2123 C2109 0.958 . S
H2124 C2109 0.961 . S
H2125 C2109 0.960 . S
C2126 C2127 1.391 . S
C2126 C2128 1.394 . S
C2126 H2142 0.931 . S
C2127 C2126 1.391 . S
C2127 C2131 1.376 . S
C2128 C2126 1.394 . S
C2128 C2129 1.369 . S
C2128 C2132 1.531 . S
C2129 C2128 1.369 . S
C2129 C2130 1.410 . S
C2129 C2137 1.503 . S
C2130 C2129 1.410 . S
C2130 C2131 1.392 . S
C2130 C2133 1.511 . S
C2131 C2127 1.376 . S
C2131 C2130 1.392 . S
C2131 H2143 0.929 . S
C2132 C2128 1.531 . S
C2132 H2144 0.960 . S
C2132 H2145 0.962 . S
C2132 H2146 0.960 . S
C2133 C2130 1.511 . S
C2133 H2147 0.961 . S
C2133 H2148 0.961 . S
C2133 H2149 0.961 . S
C2134 C2135 1.370 . S
C2134 C2136 1.363 . S
C2134 H2150 0.931 . S
C2135 C2134 1.370 . S
C2135 C2139 1.408 . S
C2136 C2134 1.363 . S
C2136 C2137 1.370 . S
C2136 C2140 1.524 . S
C2137 C2129 1.503 . S
C2137 C2136 1.370 . S
C2137 C2138 1.403 . S
C2138 C2137 1.403 . S
C2138 C2139 1.404 . S
C2138 C2141 1.539 . S
C2139 C2135 1.408 . S
C2139 C2138 1.404 . S
C2139 H2151 0.930 . S
C2140 C2136 1.524 . S
C2140 H2152 0.956 . S
C2140 H2153 0.961 . S
C2140 H2154 0.961 . S
C2141 C2138 1.539 . S
C2141 H2155 0.958 . S
C2141 H2156 0.961 . S
C2141 H2157 0.960 . S
H2142 C2126 0.931 . S
H2143 C2131 0.929 . S
H2144 C2132 0.960 . S
H2145 C2132 0.962 . S
H2146 C2132 0.960 . S
H2147 C2133 0.961 . S
H2148 C2133 0.961 . S
H2149 C2133 0.961 . S
H2150 C2134 0.931 . S
H2151 C2139 0.930 . S
H2152 C2140 0.956 . S
H2153 C2140 0.961 . S
H2154 C2140 0.961 . S
H2155 C2141 0.958 . S
H2156 C2141 0.961 . S
H2157 C2141 0.960 . S
C2158 C2159 1.391 . S
C2158 C2160 1.394 . S
C2158 H2174 0.931 . S
C2159 C2158 1.391 . S
C2159 C2163 1.376 . S
C2160 C2158 1.394 . S
C2160 C2161 1.369 . S
C2160 C2164 1.531 . S
C2161 C2160 1.369 . S
C2161 C2162 1.410 . S
C2161 C2169 1.503 . S
C2162 C2161 1.410 . S
C2162 C2163 1.392 . S
C2162 C2165 1.511 . S
C2163 C2159 1.376 . S
C2163 C2162 1.392 . S
C2163 H2175 0.929 . S
C2164 C2160 1.531 . S
C2164 H2176 0.960 . S
C2164 H2177 0.962 . S
C2164 H2178 0.960 . S
C2165 C2162 1.511 . S
C2165 H2179 0.961 . S
C2165 H2180 0.961 . S
C2165 H2181 0.961 . S
C2166 C2167 1.370 . S
C2166 C2168 1.363 . S
C2166 H2182 0.931 . S
C2167 C2166 1.370 . S
C2167 C2171 1.408 . S
C2168 C2166 1.363 . S
C2168 C2169 1.370 . S
C2168 C2172 1.524 . S
C2169 C2161 1.503 . S
C2169 C2168 1.370 . S
C2169 C2170 1.403 . S
C2170 C2169 1.403 . S
C2170 C2171 1.404 . S
C2170 C2173 1.539 . S
C2171 C2167 1.408 . S
C2171 C2170 1.404 . S
C2171 H2183 0.930 . S
C2172 C2168 1.524 . S
C2172 H2184 0.956 . S
C2172 H2185 0.961 . S
C2172 H2186 0.961 . S
C2173 C2170 1.539 . S
C2173 H2187 0.958 . S
C2173 H2188 0.961 . S
C2173 H2189 0.960 . S
H2174 C2158 0.931 . S
H2175 C2163 0.929 . S
H2176 C2164 0.960 . S
H2177 C2164 0.962 . S
H2178 C2164 0.960 . S
H2179 C2165 0.961 . S
H2180 C2165 0.961 . S
H2181 C2165 0.961 . S
H2182 C2166 0.931 . S
H2183 C2171 0.930 . S
H2184 C2172 0.956 . S
H2185 C2172 0.961 . S
H2186 C2172 0.961 . S
H2187 C2173 0.958 . S
H2188 C2173 0.961 . S
H2189 C2173 0.960 . S
C2190 C2191 1.391 . S
C2190 C2192 1.394 . S
C2190 H2206 0.931 . S
C2191 C2190 1.391 . S
C2191 C2195 1.376 . S
C2192 C2190 1.394 . S
C2192 C2193 1.369 . S
C2192 C2196 1.531 . S
C2193 C2192 1.369 . S
C2193 C2194 1.410 . S
C2193 C2201 1.503 . S
C2194 C2193 1.410 . S
C2194 C2195 1.392 . S
C2194 C2197 1.511 . S
C2195 C2191 1.376 . S
C2195 C2194 1.392 . S
C2195 H2207 0.929 . S
C2196 C2192 1.531 . S
C2196 H2208 0.960 . S
C2196 H2209 0.962 . S
C2196 H2210 0.960 . S
C2197 C2194 1.511 . S
C2197 H2211 0.961 . S
C2197 H2212 0.961 . S
C2197 H2213 0.961 . S
C2198 C2199 1.370 . S
C2198 C2200 1.363 . S
C2198 H2214 0.931 . S
C2199 C2198 1.370 . S
C2199 C2203 1.408 . S
C2200 C2198 1.363 . S
C2200 C2201 1.370 . S
C2200 C2204 1.524 . S
C2201 C2193 1.503 . S
C2201 C2200 1.370 . S
C2201 C2202 1.403 . S
C2202 C2201 1.403 . S
C2202 C2203 1.404 . S
C2202 C2205 1.539 . S
C2203 C2199 1.408 . S
C2203 C2202 1.404 . S
C2203 H2215 0.930 . S
C2204 C2200 1.524 . S
C2204 H2216 0.956 . S
C2204 H2217 0.961 . S
C2204 H2218 0.961 . S
C2205 C2202 1.539 . S
C2205 H2219 0.958 . S
C2205 H2220 0.961 . S
C2205 H2221 0.960 . S
H2206 C2190 0.931 . S
H2207 C2195 0.929 . S
H2208 C2196 0.960 . S
H2209 C2196 0.962 . S
H2210 C2196 0.960 . S
H2211 C2197 0.961 . S
H2212 C2197 0.961 . S
H2213 C2197 0.961 . S
H2214 C2198 0.931 . S
H2215 C2203 0.930 . S
H2216 C2204 0.956 . S
H2217 C2204 0.961 . S
H2218 C2204 0.961 . S
H2219 C2205 0.958 . S
H2220 C2205 0.961 . S
H2221 C2205 0.960 . S
C2222 C2223 1.391 . S
C2222 C2224 1.394 . S
C2222 H2238 0.931 . S
C2223 C2222 1.391 . S
C2223 C2227 1.376 . S
C2224 C2222 1.394 . S
C2224 C2225 1.369 . S
C2224 C2228 1.531 . S
C2225 C2224 1.369 . S
C2225 C2226 1.410 . S
C2225 C2233 1.503 . S
C2226 C2225 1.410 . S
C2226 C2227 1.392 . S
C2226 C2229 1.511 . S
C2227 C2223 1.376 . S
C2227 C2226 1.392 . S
C2227 H2239 0.929 . S
C2228 C2224 1.531 . S
C2228 H2240 0.960 . S
C2228 H2241 0.962 . S
C2228 H2242 0.960 . S
C2229 C2226 1.511 . S
C2229 H2243 0.961 . S
C2229 H2244 0.961 . S
C2229 H2245 0.961 . S
C2230 C2231 1.370 . S
C2230 C2232 1.363 . S
C2230 H2246 0.931 . S
C2231 C2230 1.370 . S
C2231 C2235 1.408 . S
C2232 C2230 1.363 . S
C2232 C2233 1.370 . S
C2232 C2236 1.524 . S
C2233 C2225 1.503 . S
C2233 C2232 1.370 . S
C2233 C2234 1.403 . S
C2234 C2233 1.403 . S
C2234 C2235 1.404 . S
C2234 C2237 1.539 . S
C2235 C2231 1.408 . S
C2235 C2234 1.404 . S
C2235 H2247 0.930 . S
C2236 C2232 1.524 . S
C2236 H2248 0.956 . S
C2236 H2249 0.961 . S
C2236 H2250 0.961 . S
C2237 C2234 1.539 . S
C2237 H2251 0.958 . S
C2237 H2252 0.961 . S
C2237 H2253 0.960 . S
H2238 C2222 0.931 . S
H2239 C2227 0.929 . S
H2240 C2228 0.960 . S
H2241 C2228 0.962 . S
H2242 C2228 0.960 . S
H2243 C2229 0.961 . S
H2244 C2229 0.961 . S
H2245 C2229 0.961 . S
H2246 C2230 0.931 . S
H2247 C2235 0.930 . S
H2248 C2236 0.956 . S
H2249 C2236 0.961 . S
H2250 C2236 0.961 . S
H2251 C2237 0.958 . S
H2252 C2237 0.961 . S
H2253 C2237 0.960 . S
C2254 C2255 1.391 . S
C2254 C2256 1.394 . S
C2254 H2270 0.931 . S
C2255 C2254 1.391 . S
C2255 C2259 1.376 . S
C2256 C2254 1.394 . S
C2256 C2257 1.369 . S
C2256 C2260 1.531 . S
C2257 C2256 1.369 . S
C2257 C2258 1.410 . S
C2257 C2265 1.503 . S
C2258 C2257 1.410 . S
C2258 C2259 1.392 . S
C2258 C2261 1.511 . S
C2259 C2255 1.376 . S
C2259 C2258 1.392 . S
C2259 H2271 0.929 . S
C2260 C2256 1.531 . S
C2260 H2272 0.960 . S
C2260 H2273 0.962 . S
C2260 H2274 0.960 . S
C2261 C2258 1.511 . S
C2261 H2275 0.961 . S
C2261 H2276 0.961 . S
C2261 H2277 0.961 . S
C2262 C2263 1.370 . S
C2262 C2264 1.363 . S
C2262 H2278 0.931 . S
C2263 C2262 1.370 . S
C2263 C2267 1.408 . S
C2264 C2262 1.363 . S
C2264 C2265 1.370 . S
C2264 C2268 1.524 . S
C2265 C2257 1.503 . S
C2265 C2264 1.370 . S
C2265 C2266 1.403 . S
C2266 C2265 1.403 . S
C2266 C2267 1.404 . S
C2266 C2269 1.539 . S
C2267 C2263 1.408 . S
C2267 C2266 1.404 . S
C2267 H2279 0.930 . S
C2268 C2264 1.524 . S
C2268 H2280 0.956 . S
C2268 H2281 0.961 . S
C2268 H2282 0.961 . S
C2269 C2266 1.539 . S
C2269 H2283 0.958 . S
C2269 H2284 0.961 . S
C2269 H2285 0.960 . S
H2270 C2254 0.931 . S
H2271 C2259 0.929 . S
H2272 C2260 0.960 . S
H2273 C2260 0.962 . S
H2274 C2260 0.960 . S
H2275 C2261 0.961 . S
H2276 C2261 0.961 . S
H2277 C2261 0.961 . S
H2278 C2262 0.931 . S
H2279 C2267 0.930 . S
H2280 C2268 0.956 . S
H2281 C2268 0.961 . S
H2282 C2268 0.961 . S
H2283 C2269 0.958 . S
H2284 C2269 0.961 . S
H2285 C2269 0.960 . S
C559 C147 1.657 . S
C567 C210 1.676 . S
C591 C158 1.792 . S
C599 C250 1.788 . S
C623 C136 1.613 . S
C631 C280 1.577 . S
C655 C125 1.461 . S
C663 C240 1.467 1_556 S
C695 C290 1.501 . S
C687 C103 1.501 . S
C719 C114 1.335 . S
C727 C200 1.355 1_556 S
C759 C229 1.666 . S
C751 C131 1.650 . S
C791 C269 1.673 . S
C783 C109 1.677 . S
C815 C120 1.637 . S
C823 C295 1.682 . S
C847 C153 1.522 . S
C855 C255 1.501 . S
C879 C164 1.468 . S
C887 C309 1.459 . S
C919 C215 1.478 . S
C911 C142 1.428 . S
C951 C330 1.676 . S
C943 C15 1.662 . S
C975 C26 1.784 . S
C983 C370 1.796 . S
C1007 C4 1.573 . S
C1015 C400 1.590 . S
C1039 C191 1.491 . S
C1047 C360 1.449 . S
C1071 C169 1.500 . S
C1079 C410 1.500 . S
C1103 C180 1.335 . S
C1111 C320 1.357 . S
C1135 C197 1.668 . S
C1143 C349 1.664 . S
C1167 C175 1.665 . S
C1175 C389 1.674 . S
C1207 C415 1.682 . S
C1199 C186 1.634 . S
C1231 C21 1.482 . S
C1239 C375 1.516 . S
C1271 C429 1.466 . S
C1263 C32 1.438 . S
C1295 C10 1.439 . S
C1303 C335 1.475 . S
C1335 C450 1.677 . S
C1327 C81 1.653 . S
C1359 C92 1.783 . S
C1367 C490 1.796 . S
C1399 C520 1.575 . S
C1391 C70 1.594 . S
C1431 C480 1.460 . S
C1423 C59 1.458 . S
C1463 C530 1.500 . S
C1455 C37 1.499 . S
C1487 C48 1.335 . S
C1495 C440 1.356 . S
C1519 C65 1.635 . S
C1527 C469 1.675 . S
C1551 C43 1.678 . S
C1559 C509 1.673 . S
C1591 C535 1.684 . S
C1583 C54 1.623 . S
C1615 C87 1.504 . S
C1623 C495 1.509 . S
C1647 C98 1.451 . S
C1655 C549 1.465 . S
C1679 C76 1.469 . S
C1687 C455 1.463 . S
C1711 C170 1.481 . S
C1719 C227 1.472 . S
C1751 C267 1.910 . S
C1743 C181 1.927 . S
C1775 C192 1.571 . S
C1783 C286 1.568 . S
C1807 C71 1.772 . S
C1815 C246 1.771 . S
C1839 C82 1.681 . S
C1847 C307 1.652 . S
C1879 C206 1.310 . S
C1871 C93 1.305 . S
C1903 C38 1.489 . S
C1911 C347 1.467 . S
C1935 C49 1.935 . S
C1943 C387 1.901 . S
C1967 C60 1.572 . S
C1975 C406 1.570 . S
C1999 C137 1.785 . S
C2007 C366 1.771 . S
C2039 C427 1.659 . S
C2031 C148 1.675 . S
C2063 C159 1.287 . S
C2071 C326 1.308 . S
C2095 C104 1.504 . S
C2103 C467 1.453 . S
C2127 C115 1.923 . S
C2135 C507 1.911 . S
C2167 C526 1.573 . S
C2159 C126 1.568 . S
C2191 C5 1.780 . S
C2199 C486 1.781 . S
C2223 C16 1.665 . S
C2231 C547 1.665 . S
C2255 C27 1.301 . S
C2263 C446 1.309 . S
