# Generated by pormake.
# Topology zzz, (3,6)-cn, num edge types: 1
# Building blocks:
#     Node 0, Type 0, BuildingBlock: BETDIP_clean_linker_0, # of connection points: 3
#     Node 1, Type 0, BuildingBlock: BETDIP_clean_linker_0, # of connection points: 3
#     Node 2, Type 0, BuildingBlock: BETDIP_clean_linker_0, # of connection points: 3
#     Node 3, Type 0, BuildingBlock: BETDIP_clean_linker_0, # of connection points: 3
#     Node 4, Type 0, BuildingBlock: BETDIP_clean_linker_0, # of connection points: 3
#     Node 5, Type 0, BuildingBlock: BETDIP_clean_linker_0, # of connection points: 3
#     Node 6, Type 0, BuildingBlock: BETDIP_clean_linker_0, # of connection points: 3
#     Node 7, Type 0, BuildingBlock: BETDIP_clean_linker_0, # of connection points: 3
#     Node 8, Type 1, BuildingBlock: NUHQIS_clean_sbu_0, # of connection points: 6
#     Node 9, Type 1, BuildingBlock: NUHQIS_clean_sbu_0, # of connection points: 6
#     Node 10, Type 1, BuildingBlock: NUHQIS_clean_sbu_0, # of connection points: 6
#     Node 11, Type 1, BuildingBlock: NUHQIS_clean_sbu_0, # of connection points: 6
#     Edge 12, Type (0, 1), BuildingBlock: MIFKUJ_clean_linker_0, # of connection points: 2
#     Edge 13, Type (0, 1), BuildingBlock: MIFKUJ_clean_linker_0, # of connection points: 2
#     Edge 14, Type (0, 1), BuildingBlock: MIFKUJ_clean_linker_0, # of connection points: 2
#     Edge 15, Type (0, 1), BuildingBlock: MIFKUJ_clean_linker_0, # of connection points: 2
#     Edge 16, Type (0, 1), BuildingBlock: MIFKUJ_clean_linker_0, # of connection points: 2
#     Edge 17, Type (0, 1), BuildingBlock: MIFKUJ_clean_linker_0, # of connection points: 2
#     Edge 18, Type (0, 1), BuildingBlock: MIFKUJ_clean_linker_0, # of connection points: 2
#     Edge 19, Type (0, 1), BuildingBlock: MIFKUJ_clean_linker_0, # of connection points: 2
#     Edge 20, Type (0, 1), BuildingBlock: MIFKUJ_clean_linker_0, # of connection points: 2
#     Edge 21, Type (0, 1), BuildingBlock: MIFKUJ_clean_linker_0, # of connection points: 2
#     Edge 22, Type (0, 1), BuildingBlock: MIFKUJ_clean_linker_0, # of connection points: 2
#     Edge 23, Type (0, 1), BuildingBlock: MIFKUJ_clean_linker_0, # of connection points: 2
#     Edge 24, Type (0, 1), BuildingBlock: MIFKUJ_clean_linker_0, # of connection points: 2
#     Edge 25, Type (0, 1), BuildingBlock: MIFKUJ_clean_linker_0, # of connection points: 2
#     Edge 26, Type (0, 1), BuildingBlock: MIFKUJ_clean_linker_0, # of connection points: 2
#     Edge 27, Type (0, 1), BuildingBlock: MIFKUJ_clean_linker_0, # of connection points: 2
#     Edge 28, Type (0, 1), BuildingBlock: MIFKUJ_clean_linker_0, # of connection points: 2
#     Edge 29, Type (0, 1), BuildingBlock: MIFKUJ_clean_linker_0, # of connection points: 2
#     Edge 30, Type (0, 1), BuildingBlock: MIFKUJ_clean_linker_0, # of connection points: 2
#     Edge 31, Type (0, 1), BuildingBlock: MIFKUJ_clean_linker_0, # of connection points: 2
#     Edge 32, Type (0, 1), BuildingBlock: MIFKUJ_clean_linker_0, # of connection points: 2
#     Edge 33, Type (0, 1), BuildingBlock: MIFKUJ_clean_linker_0, # of connection points: 2
#     Edge 34, Type (0, 1), BuildingBlock: MIFKUJ_clean_linker_0, # of connection points: 2
#     Edge 35, Type (0, 1), BuildingBlock: MIFKUJ_clean_linker_0, # of connection points: 2
# Relax obj value: 0.207
# Max RMSD: 0.141
# Mean RMSD: 0.133
data_MOF--net-zzz--node1-NUHQIS_clean_sbu_0--node2-BETDIP_clean_linker_0--edge1-MIFKUJ_clean_linker_0
_symmetry_space_group_name_H-M    P1
_symmetry_Int_Tables_number       1
_symmetry_cell_setting            triclinic
loop_
_symmetry_equiv_pos_as_xyz
'x, y, z'
_cell_length_a     68.339221
_cell_length_b     68.095411
_cell_length_c     17.933578
_cell_angle_alpha  89.989265
_cell_angle_beta   90.033578
_cell_angle_gamma 89.85475
loop_
_atom_site_label
_atom_site_type_symbol
_atom_site_fract_x
_atom_site_fract_y
_atom_site_fract_z
_atom_type_partial_charge
H0 H 0.75321 0.52027 0.41845 0.0
H1 H 0.74127 0.54362 0.19881 0.0
H2 H 0.79969 0.54341 0.28219 0.0
H3 H 0.71432 0.55752 0.28337 0.0
C4 C 0.70991 0.54224 0.28834 0.0
C5 C 0.75816 0.52749 0.3681 0.0
C6 C 0.77841 0.53133 0.35766 0.0
C7 C 0.74442 0.53272 0.31169 0.0
C8 C 0.75126 0.54096 0.24469 0.0
C9 C 0.77105 0.54494 0.23487 0.0
C10 C 0.7843 0.54068 0.2918 0.0
N11 N 0.72393 0.52889 0.31928 0.0
H12 H 0.99838 0.7487 0.41137 0.0
H13 H 1.00014 0.73866 0.17398 0.0
H14 H 0.01187 0.79611 0.26094 0.0
H15 H 0.96813 0.72127 0.23344 0.0
C16 C 0.97987 0.71202 0.25477 0.0
C17 C 1.00082 0.75409 0.35534 0.0
C18 C 1.00553 0.77412 0.34357 0.0
C19 C 0.9989 0.74118 0.29372 0.0
C20 C 1.00177 0.74843 0.22129 0.0
C21 C 1.00624 0.76816 0.20913 0.0
C22 C 1.00837 0.78078 0.27037 0.0
N23 N 0.99386 0.72099 0.30315 0.0
H24 H 0.76292 0.99319 0.36199 0.0
H25 H 0.76693 0.01755 0.13993 0.0
H26 H 0.71366 0.02316 0.26419 0.0
H27 H 0.78313 0.98388 0.13501 0.0
C28 C 0.79393 0.98952 0.17403 0.0
C29 C 0.75643 1.0012 0.316 0.0
C30 C 0.73688 1.00801 0.32116 0.0
C31 C 0.76742 1.00454 0.25011 0.0
C32 C 0.7587 0.01483 0.19052 0.0
C33 C 0.73931 0.02132 0.1952 0.0
C34 C 0.72869 0.01805 0.26064 0.0
N35 N 0.78707 0.99751 0.24294 0.0
H36 H 0.50768 0.76882 0.44418 0.0
H37 H 0.52267 0.78041 0.21494 0.0
H38 H 0.52132 0.72102 0.29632 0.0
H39 H 0.54117 0.80837 0.32184 0.0
C40 C 0.5257 0.81173 0.31547 0.0
C41 C 0.51205 0.76355 0.38968 0.0
C42 C 0.51478 0.7432 0.37749 0.0
C43 C 0.51518 0.77707 0.33086 0.0
C44 C 0.52066 0.77008 0.26028 0.0
C45 C 0.52283 0.74993 0.24711 0.0
C46 C 0.51999 0.73668 0.30615 0.0
N47 N 0.5118 0.79759 0.34046 0.0
H48 H 0.2656 0.49116 0.01844 0.0
H49 H 0.2769 0.51801 0.23221 0.0
H50 H 0.21837 0.51629 0.1457 0.0
H51 H 0.30513 0.5294 0.12714 0.0
C52 C 0.30855 0.51406 0.13802 0.0
C53 C 0.26038 0.49868 0.0678 0.0
C54 C 0.24025 0.50326 0.0752 0.0
C55 C 0.27379 0.5043 0.1243 0.0
C56 C 0.26682 0.51408 0.18798 0.0
C57 C 0.24687 0.51798 0.19659 0.0
C58 C 0.23379 0.51275 0.13986 0.0
N59 N 0.29414 0.49975 0.11918 0.0
H60 H 0.02826 0.26281 0.0165 0.0
H61 H 0.99567 0.27344 0.21874 0.0
H62 H 0.99624 0.21596 0.12129 0.0
H63 H 0.98823 0.30174 0.13427 0.0
C64 C 1.00363 0.30559 0.13839 0.0
C65 C 0.01902 0.25755 0.06123 0.0
C66 C 0.01276 0.23773 0.06203 0.0
C67 C 0.01249 0.27071 0.1173 0.0
C68 C 1.00045 0.2636 0.17486 0.0
C69 C 0.99441 0.244 0.1763 0.0
C70 C 1.00063 0.23125 0.11986 0.0
N71 N 0.01763 0.29107 0.11633 0.0
H72 H 0.25265 0.01386 1.00198 0.0
H73 H 0.24656 0.99995 0.2357 0.0
H74 H 0.30325 0.99889 0.13349 0.0
H75 H 0.22047 0.98007 0.16174 0.0
C76 C 0.21416 0.99448 0.15104 0.0
C77 C 0.25913 1.01 0.05513 0.0
C78 C 0.27959 1.0069 0.06069 0.0
C79 C 0.24702 1.00699 0.11832 0.0
C80 C 0.25566 1.0018 0.18676 0.0
C81 C 0.27589 0.99914 0.19286 0.0
C82 C 0.28763 1.0016 0.12964 0.0
N83 N 0.22618 1.00856 0.11387 0.0
H84 H 0.50474 0.25193 0.02312 0.0
H85 H 0.51581 0.2457 0.25868 0.0
H86 H 0.51605 0.30292 0.15771 0.0
H87 H 0.53806 0.22015 0.18491 0.0
C88 C 0.52397 0.21352 0.17237 0.0
C89 C 0.5077 0.25845 0.07702 0.0
C90 C 0.50976 0.27905 0.0836 0.0
C91 C 0.51045 0.24627 0.1403 0.0
C92 C 0.51433 0.25496 0.20985 0.0
C93 C 0.51606 0.27537 0.21708 0.0
C94 C 0.51396 0.28717 0.15349 0.0
N95 N 0.50971 0.22534 0.13491 0.0
Tb96 Tb 0.02419 1.00025 0.76453 0.0
Eu97 Eu 0.99488 0.01309 0.63324 0.0
C98 C 0.04082 0.01181 0.60572 0.0
C99 C 0.01401 0.04479 0.74626 0.0
C100 C 0.0442 0.96439 0.88527 0.0
C101 C 0.0577 0.93156 0.87014 0.0
C102 C 0.06025 0.95194 0.87228 0.0
C103 C 0.02587 0.95606 0.90111 0.0
C104 C 0.02333 0.93582 0.89886 0.0
C105 C 0.03906 0.92336 0.88107 0.0
C106 C 0.04532 0.98524 0.86378 0.0
O107 O 0.99576 1.00591 0.81725 0.0
O108 O 0.97708 0.99678 0.71888 0.0
O109 O 1.00363 0.98195 0.60422 0.0
O110 O 0.01101 0.97287 0.72382 0.0
C111 C 0.97889 1.0 0.79047 0.0
O112 O 0.96468 0.01939 0.6023 0.0
O113 O 0.9876 0.02294 0.52053 0.0
O114 O 0.02488 0.02199 0.59226 0.0
O115 O 0.04163 0.99969 0.66257 0.0
O116 O 0.02811 0.03213 0.76079 0.0
O117 O 0.99816 0.03925 0.71037 0.0
C118 C 1.00732 0.9682 0.65388 0.0
O119 O 0.0513 0.98813 0.79588 0.0
O120 O 0.03004 0.99602 0.87873 0.0
C121 C 0.96351 0.04757 0.52997 0.0
C122 C 0.9506 0.08681 0.53525 0.0
C123 C 0.93807 0.07191 0.50942 0.0
C124 C 0.94447 0.05237 0.50719 0.0
C125 C 0.97607 0.06244 0.55498 0.0
C126 C 0.96972 0.08184 0.55735 0.0
C127 C 0.96954 0.02703 0.53849 0.0
H128 H 0.07019 0.9223 0.85778 0.0
H129 H 0.07446 0.95802 0.85897 0.0
H130 H 0.01306 0.96518 0.91 0.0
H131 H 1.00872 0.93006 0.90672 0.0
H132 H 0.92326 0.07532 0.4921 0.0
H133 H 0.93446 0.04098 0.48938 0.0
H134 H 0.99073 0.059 0.57411 0.0
H135 H 0.9799 0.09299 0.57587 0.0
Tb136 Tb 0.51635 0.0206 0.77205 0.0
Eu137 Eu 0.50449 0.98986 0.64001 0.0
C138 C 0.50924 0.03601 0.60732 0.0
C139 C 0.47181 1.00867 0.7497 0.0
C140 C 0.54327 0.05893 0.87538 0.0
C141 C 0.57452 0.07052 0.82932 0.0
C142 C 0.55755 0.05949 0.81939 0.0
C143 C 0.54539 0.0707 0.93883 0.0
C144 C 0.56231 0.08193 0.94859 0.0
C145 C 0.57744 0.08133 0.89532 0.0
C146 C 0.52742 0.04448 0.87147 0.0
O147 O 0.52078 0.99109 0.81864 0.0
O148 O 0.49894 0.97394 0.74796 0.0
O149 O 0.5373 0.9877 0.65235 0.0
O150 O 0.54228 0.0184 0.70039 0.0
C151 C 0.50971 0.97555 0.80808 0.0
O152 O 0.50492 0.96017 0.59391 0.0
O153 O 0.491 0.9838 0.53247 0.0
O154 O 0.51212 0.01821 0.58118 0.0
O155 O 0.50679 0.03909 0.67911 0.0
O156 O 0.48571 0.0138 0.79673 0.0
O157 O 0.47587 1.00231 0.68216 0.0
C158 C 0.54893 1.00255 0.66673 0.0
O159 O 0.5134 0.04816 0.82434 0.0
O160 O 0.53321 0.0263 0.86711 0.0
C161 C 0.47491 0.95366 0.53304 0.0
C162 C 0.4355 0.94168 0.52777 0.0
C163 C 0.44629 0.94006 0.59434 0.0
C164 C 0.46576 0.94619 0.59715 0.0
C165 C 0.4648 0.95365 0.46521 0.0
C166 C 0.44525 0.94782 0.46256 0.0
C167 C 0.4932 0.96484 0.53914 0.0
H168 H 0.58591 0.06937 0.78757 0.0
H169 H 0.55611 0.0505 0.76991 0.0
H170 H 0.53442 0.0705 0.98244 0.0
H171 H 0.56398 0.09025 0.99958 0.0
H172 H 0.43943 0.935 0.64523 0.0
H173 H 0.47323 0.94616 0.65045 0.0
H174 H 0.47156 0.95953 0.41534 0.0
H175 H 0.43749 0.94955 0.41034 0.0
Tb176 Tb 0.49586 0.51456 0.7815 0.0
Eu177 Eu 0.5255 0.50403 0.6465 0.0
C178 C 0.4782 0.50397 0.62044 0.0
C179 C 0.50784 0.4706 0.75814 0.0
C180 C 0.479 0.54886 0.91519 0.0
C181 C 0.46895 0.58312 0.91466 0.0
C182 C 0.46426 0.56319 0.90979 0.0
C183 C 0.49824 0.55474 0.9314 0.0
C184 C 0.5029 0.57459 0.93651 0.0
C185 C 0.48846 0.58901 0.92537 0.0
C186 C 0.47556 0.5292 0.88372 0.0
O187 O 0.52418 0.50878 0.83453 0.0
O188 O 0.54365 0.51792 0.73778 0.0
O189 O 0.51637 0.535 0.62069 0.0
O190 O 0.5083 0.54243 0.741 0.0
C191 C 0.54128 0.5144 0.80909 0.0
O192 O 0.55506 0.50443 0.59974 0.0
O193 O 0.53197 0.48887 0.54254 0.0
O194 O 0.49576 0.50128 0.59239 0.0
O195 O 0.47544 0.50878 0.69065 0.0
O196 O 0.49356 0.48256 0.77768 0.0
O197 O 0.52286 0.47689 0.71908 0.0
C198 C 0.5121 0.54799 0.67215 0.0
O199 O 0.47043 0.52959 0.81385 0.0
O200 O 0.48899 0.51592 0.89596 0.0
C201 C 0.562 0.47304 0.5501 0.0
C202 C 0.57249 0.43308 0.55806 0.0
C203 C 0.57303 0.4449 0.62231 0.0
C204 C 0.56767 0.46468 0.61847 0.0
C205 C 0.56313 0.46179 0.48501 0.0
C206 C 0.56827 0.44198 0.48887 0.0
C207 C 0.55077 0.49143 0.54896 0.0
H208 H 0.45746 0.59393 0.90727 0.0
H209 H 0.44938 0.55902 0.89616 0.0
H210 H 0.51005 0.54413 0.93437 0.0
H211 H 0.51809 0.57862 0.94426 0.0
H212 H 0.57652 0.43864 0.67623 0.0
H213 H 0.56667 0.47302 0.66977 0.0
H214 H 0.55849 0.4679 0.43203 0.0
H215 H 0.56739 0.43338 0.43823 0.0
Tb216 Tb 1.0051 0.49345 0.76617 0.0
Eu217 Eu 0.01611 0.52393 0.63581 0.0
C218 C 0.01635 0.47741 0.60563 0.0
C219 C 0.04908 0.50393 0.74063 0.0
C220 C 0.97665 0.47921 0.92073 0.0
C221 C 0.94204 0.47532 0.94669 0.0
C222 C 0.96013 0.46715 0.92742 0.0
C223 C 0.97524 0.49913 0.94104 0.0
C224 C 0.95721 0.50729 0.95926 0.0
C225 C 0.94036 0.49564 0.95867 0.0
C226 C 0.99285 0.47301 0.87235 0.0
O227 O 0.01032 0.52169 0.8207 0.0
O228 O 1.00048 0.54127 0.72553 0.0
O229 O 0.98502 0.51476 0.61139 0.0
O230 O 0.9774 0.50747 0.7322 0.0
C231 C 1.0039 0.53871 0.79672 0.0
O232 O 0.02184 0.55441 0.60686 0.0
O233 O 0.02336 0.53217 0.52124 0.0
O234 O 0.02497 0.49417 0.59002 0.0
O235 O 1.00563 0.47534 0.66594 0.0
O236 O 0.0367 0.48957 0.75386 0.0
O237 O 0.0432 0.52015 0.70747 0.0
C238 C 0.97189 0.51135 0.66327 0.0
O239 O 0.9876 0.47015 0.80341 0.0
O240 O 1.0088 0.48343 0.87638 0.0
C241 C 0.04692 0.55787 0.51801 0.0
C242 C 0.08574 0.57012 0.49278 0.0
C243 C 0.07326 0.58132 0.53813 0.0
C244 C 0.05398 0.57532 0.5502 0.0
C245 C 0.05919 0.54712 0.47022 0.0
C246 C 0.0784 0.55317 0.45784 0.0
C247 C 0.02746 0.55027 0.53929 0.0
H248 H 0.92916 0.46608 0.94627 0.0
H249 H 0.96083 0.45185 0.91103 0.0
H250 H 0.98767 0.50887 0.93627 0.0
H251 H 0.95625 0.52294 0.96949 0.0
H252 H 0.07848 0.59455 0.56501 0.0
H253 H 0.04479 0.58404 0.58667 0.0
H254 H 0.05421 0.53367 0.44426 0.0
H255 H 0.08774 0.54412 0.42317 0.0
H256 H 0.19015 0.02756 0.13827 0.0
H257 H 0.15907 0.03358 0.20425 0.0
H258 H 0.16543 0.97808 0.31817 0.0
H259 H 0.1956 0.97179 0.25048 0.0
H260 H 0.13017 0.98083 0.28076 0.0
H261 H 0.17479 0.02643 0.39891 0.0
H262 H 0.19785 0.05423 0.40265 0.0
H263 H 0.15345 0.09256 0.31506 0.0
H264 H 0.1302 0.06492 0.31001 0.0
H265 H 0.07353 0.98862 0.60582 0.0
H266 H 0.10102 0.98904 0.51935 0.0
H267 H 0.07499 0.03766 0.4013 0.0
H268 H 0.0471 0.03729 0.488 0.0
H269 H 0.11682 0.0414 0.42578 0.0
H270 H 0.07124 0.995 0.32445 0.0
H271 H 0.04879 0.96674 0.33029 0.0
H272 H 0.09638 0.92912 0.39494 0.0
H273 H 0.11907 0.95722 0.39061 0.0
C274 C 0.1848 0.01669 0.17727 0.0
C275 C 0.19531 0.99917 0.18907 0.0
C276 C 0.16708 0.02017 0.21546 0.0
C277 C 0.15977 1.00637 0.26722 0.0
C278 C 0.17045 0.98897 0.27855 0.0
C279 C 0.18783 0.98539 0.23985 0.0
C280 C 0.14106 1.00953 0.30975 0.0
C281 C 0.12743 0.99408 0.31272 0.0
C282 C 0.1369 0.02698 0.35022 0.0
C283 C 0.15085 0.04357 0.35321 0.0
C284 C 0.17 0.04076 0.37992 0.0
C285 C 0.18309 0.05649 0.38237 0.0
C286 C 0.17714 0.07514 0.35887 0.0
C287 C 0.15806 0.0781 0.33308 0.0
C288 C 0.14492 0.06241 0.33044 0.0
C289 C 0.07357 0.99951 0.56181 0.0
C290 C 0.05793 0.01287 0.55395 0.0
C291 C 0.08937 0.9997 0.51217 0.0
C292 C 0.09007 0.01327 0.45329 0.0
C293 C 0.07479 0.02702 0.44621 0.0
C294 C 0.05881 0.02674 0.49569 0.0
C295 C 0.10653 0.01245 0.39839 0.0
C296 C 0.11958 0.0283 0.39298 0.0
C297 C 0.11037 0.99527 0.35638 0.0
C298 C 0.09683 0.97825 0.35764 0.0
C299 C 0.0769 0.98072 0.34032 0.0
C300 C 0.06413 0.96473 0.34333 0.0
C301 C 0.07114 0.94616 0.36309 0.0
C302 C 0.09096 0.94352 0.37965 0.0
C303 C 0.10379 0.95947 0.37683 0.0
H304 H 0.06123 0.9338 0.36548 0.0
H305 H 0.18729 0.0873 0.36082 0.0
H306 H 0.55001 0.19021 0.24202 0.0
H307 H 0.54483 0.15856 0.30215 0.0
H308 H 0.48428 0.15963 0.23412 0.0
H309 H 0.48944 0.19181 0.17433 0.0
H310 H 0.48651 0.14807 0.37398 0.0
H311 H 0.51794 0.12743 0.15227 0.0
H312 H 0.54263 0.12674 0.05204 0.0
H313 H 0.58733 0.11239 0.21141 0.0
H314 H 0.56296 0.11319 0.31279 0.0
H315 H 0.50933 0.03576 0.45367 0.0
H316 H 0.50863 0.06394 0.36886 0.0
H317 H 0.50821 0.10328 0.55731 0.0
H318 H 0.50837 0.07525 0.64209 0.0
H319 H 0.53224 0.09209 0.34015 0.0
H320 H 0.48518 0.14569 0.5195 0.0
H321 H 0.45778 0.14411 0.60875 0.0
H322 H 0.43941 0.08923 0.51428 0.0
H323 H 0.46653 0.09061 0.42379 0.0
C324 C 0.53561 0.18363 0.23904 0.0
C325 C 0.52019 0.1935 0.20296 0.0
C326 C 0.53268 0.16542 0.27328 0.0
C327 C 0.51422 0.15638 0.2721 0.0
C328 C 0.49871 0.16617 0.23569 0.0
C329 C 0.50167 0.18453 0.20115 0.0
C330 C 0.51124 0.13722 0.31194 0.0
C331 C 0.49647 0.13582 0.36622 0.0
C332 C 0.52384 0.12088 0.30098 0.0
C333 C 0.53862 0.12053 0.24028 0.0
C334 C 0.53306 0.12429 0.16607 0.0
C335 C 0.547 0.12385 0.10903 0.0
C336 C 0.56655 0.1196 0.12541 0.0
C337 C 0.57219 0.11571 0.19884 0.0
C338 C 0.55831 0.11612 0.2561 0.0
C339 C 0.50898 0.0504 0.47716 0.0
C340 C 0.50878 0.05313 0.55502 0.0
C341 C 0.50862 0.06657 0.42843 0.0
C342 C 0.50807 0.08591 0.45614 0.0
C343 C 0.50814 0.08862 0.53394 0.0
C344 C 0.50834 0.07249 0.58262 0.0
C345 C 0.50798 0.10322 0.40415 0.0
C346 C 0.52219 0.10428 0.34761 0.0
C347 C 0.49452 0.11901 0.41164 0.0
C348 C 0.47801 0.11819 0.46528 0.0
C349 C 0.47524 0.13334 0.51753 0.0
C350 C 0.45977 0.13246 0.56839 0.0
C351 C 0.4469 0.11655 0.56732 0.0
C352 C 0.44943 0.10151 0.51522 0.0
C353 C 0.46486 0.10232 0.46419 0.0
H354 H 0.43494 0.1159 0.60679 0.0
H355 H 0.57732 0.11927 0.08118 0.0
H356 H 0.31983 0.47951 0.20913 0.0
H357 H 0.34838 0.47487 0.29132 0.0
H358 H 0.36673 0.53422 0.24579 0.0
H359 H 0.3382 0.53898 0.16578 0.0
H360 H 0.38769 0.47627 0.27989 0.0
H361 H 0.38478 0.55566 0.39836 0.0
H362 H 0.36024 0.58146 0.42334 0.0
H363 H 0.31532 0.53774 0.44087 0.0
H364 H 0.33962 0.51166 0.41713 0.0
H365 H 0.47705 0.49919 0.46779 0.0
H366 H 0.44824 0.49788 0.38688 0.0
H367 H 0.41072 0.50275 0.5793 0.0
H368 H 0.43939 0.50457 0.66016 0.0
H369 H 0.39734 0.52577 0.47944 0.0
H370 H 0.41678 0.45867 0.47692 0.0
H371 H 0.43918 0.43051 0.46184 0.0
H372 H 0.44745 0.44533 0.23128 0.0
H373 H 0.4253 0.47376 0.24525 0.0
C374 C 0.33009 0.49146 0.21611 0.0
C375 C 0.32671 0.50966 0.18121 0.0
C376 C 0.34643 0.4888 0.26313 0.0
C377 C 0.35963 0.50431 0.27616 0.0
C378 C 0.35664 0.52213 0.23829 0.0
C379 C 0.34035 0.52481 0.19208 0.0
C380 C 0.37608 0.50238 0.33122 0.0
C381 C 0.38979 0.48709 0.32351 0.0
C382 C 0.37869 0.51615 0.38975 0.0
C383 C 0.36401 0.53173 0.40528 0.0
C384 C 0.36968 0.55155 0.40792 0.0
C385 C 0.35581 0.56622 0.4218 0.0
C386 C 0.33622 0.56125 0.43347 0.0
C387 C 0.33048 0.54158 0.43158 0.0
C388 C 0.3443 0.52684 0.41785 0.0
C389 C 0.46267 0.49984 0.49308 0.0
C390 C 0.46067 0.50201 0.57085 0.0
C391 C 0.44613 0.49899 0.44657 0.0
C392 C 0.42712 0.50003 0.47656 0.0
C393 C 0.42512 0.50196 0.55428 0.0
C394 C 0.44162 0.50295 0.60069 0.0
C395 C 0.40934 0.49994 0.42715 0.0
C396 C 0.39531 0.5149 0.43593 0.0
C397 C 0.40622 0.48556 0.37107 0.0
C398 C 0.41951 0.46845 0.36233 0.0
C399 C 0.42348 0.45601 0.42314 0.0
C400 C 0.43612 0.43999 0.41477 0.0
C401 C 0.44477 0.43616 0.34569 0.0
C402 C 0.44076 0.44833 0.28478 0.0
C403 C 0.42814 0.46439 0.29287 0.0
H404 H 0.45455 0.42375 0.33932 0.0
H405 H 0.3255 0.57263 0.44411 0.0
H406 H 0.97951 0.32464 0.23147 0.0
H407 H 0.98525 0.35435 0.30318 0.0
H408 H 0.04386 0.35781 0.21484 0.0
H409 H 0.03837 0.32698 0.14542 0.0
H410 H 0.045 0.36952 0.3523 0.0
H411 H 1.0046 0.38847 0.15053 0.0
H412 H 0.977 0.38722 0.06207 0.0
H413 H 0.93642 0.39533 0.24223 0.0
H414 H 0.96376 0.39636 0.33195 0.0
H415 H 0.0435 0.4709 0.494 0.0
H416 H 0.04514 0.44282 0.40762 0.0
H417 H 0.99397 0.4179 0.51083 0.0
H418 H 0.99245 0.44546 0.59762 0.0
H419 H 0.99276 0.42025 0.34971 0.0
H420 H 0.03598 0.39876 0.55056 0.0
H421 H 0.06503 0.40213 0.6312 0.0
H422 H 0.10226 0.40209 0.43842 0.0
H423 H 0.07339 0.39901 0.35654 0.0
C424 C 0.99368 0.33167 0.2273 0.0
C425 C 1.00841 0.32355 0.18223 0.0
C426 C 0.99691 0.34884 0.26802 0.0
C427 C 0.01479 0.35891 0.263 0.0
C428 C 0.02984 0.35054 0.21935 0.0
C429 C 0.02671 0.33294 0.17953 0.0
C430 C 0.01736 0.37802 0.3038 0.0
C431 C 0.03372 0.38074 0.35041 0.0
C432 C 1.00279 0.39295 0.30179 0.0
C433 C 0.98626 0.39237 0.24805 0.0
C434 C 0.98979 0.38986 0.17136 0.0
C435 C 0.97419 0.38921 0.12098 0.0
C436 C 0.95497 0.39116 0.14653 0.0
C437 C 0.95132 0.39381 0.22252 0.0
C438 C 0.96687 0.39446 0.27316 0.0
C439 C 0.03266 0.45939 0.49841 0.0
C440 C 0.01787 0.46047 0.55303 0.0
C441 C 0.03364 0.44333 0.44913 0.0
C442 C 0.01969 0.4282 0.45274 0.0
C443 C 1.00491 0.42935 0.50688 0.0
C444 C 1.00412 0.44514 0.55675 0.0
C445 C 0.01994 0.4113 0.39957 0.0
C446 C 1.00411 0.40908 0.35054 0.0
C447 C 0.0352 0.39719 0.39808 0.0
C448 C 0.05251 0.39888 0.44742 0.0
C449 C 0.05034 0.39965 0.52534 0.0
C450 C 0.06678 0.40147 0.57127 0.0
C451 C 0.08547 0.40238 0.53993 0.0
C452 C 0.08777 0.40142 0.4626 0.0
C453 C 0.07138 0.39962 0.41642 0.0
H454 H 0.09817 0.40376 0.57555 0.0
H455 H 0.94291 0.39066 0.10743 0.0
H456 H 0.80833 0.97312 0.04923 0.0
H457 H 0.84152 0.97427 0.99982 0.0
H458 H 0.86016 1.00751 0.19171 0.0
H459 H 0.82652 1.00654 0.2414 0.0
H460 H 0.875 0.02314 0.06509 0.0
H461 H 0.87405 0.95935 0.17081 0.0
H462 H 0.86152 0.92623 0.19852 0.0
H463 H 0.86433 0.9113 0.96617 0.0
H464 H 0.87661 0.94444 0.93684 0.0
H465 H 0.97448 0.0125 0.93554 0.0
H466 H 0.94519 1.01031 0.01418 0.0
H467 H 0.91462 0.9806 0.8369 0.0
H468 H 0.94371 0.98282 0.75803 0.0
H469 H 0.9084 0.96301 0.97368 0.0
H470 H 0.90655 0.02852 0.86961 0.0
H471 H 0.91979 0.06153 0.84459 0.0
H472 H 0.9233 0.0728 0.0798 0.0
H473 H 0.91033 0.03973 0.10621 0.0
C474 C 0.81952 0.98052 0.08146 0.0
C475 C 0.81479 0.9896 0.1495 0.0
C476 C 0.83857 0.98111 0.05318 0.0
C477 C 0.85357 0.99074 0.09224 0.0
C478 C 0.84892 0.9999 0.16052 0.0
C479 C 0.82972 0.99925 0.18914 0.0
C480 C 0.87376 0.99156 0.05965 0.0
C481 C 0.88247 1.00994 0.04661 0.0
C482 C 0.88356 0.97442 0.03435 0.0
C483 C 0.87612 0.95446 0.05158 0.0
C484 C 0.87185 0.94907 0.12552 0.0
C485 C 0.86482 0.93027 0.14153 0.0
C486 C 0.86209 0.91668 0.08413 0.0
C487 C 0.86643 0.92185 0.01058 0.0
C488 C 0.87345 0.94063 0.99423 0.0
C489 C 0.96156 1.00541 0.91338 0.0
C490 C 0.9615 0.99789 0.84018 0.0
C491 C 0.94477 1.00424 0.95838 0.0
C492 C 0.92757 0.99541 0.93146 0.0
C493 C 0.92765 0.98749 0.85911 0.0
C494 C 0.94433 0.98883 0.81389 0.0
C495 C 0.90935 0.99456 0.97773 0.0
C496 C 0.90103 0.97617 0.99318 0.0
C497 C 0.90002 0.01166 0.00573 0.0
C498 C 0.90769 0.03157 0.98989 0.0
C499 C 0.9103 0.03798 0.916 0.0
C500 C 0.91773 0.05671 0.90156 0.0
C501 C 0.92244 0.06923 0.96057 0.0
C502 C 0.91968 0.06307 0.03415 0.0
C503 C 0.91228 0.04434 0.04888 0.0
H504 H 0.92819 0.08373 0.94929 0.0
H505 H 0.85666 0.90214 0.09665 0.0
H506 H 0.54746 0.84462 0.30166 0.0
H507 H 0.54112 0.87351 0.22374 0.0
H508 H 0.48609 0.84863 0.15461 0.0
H509 H 0.49215 0.81984 0.23469 0.0
H510 H 0.51157 0.86089 0.03464 0.0
H511 H 0.48322 0.88696 0.25663 0.0
H512 H 0.48079 0.89659 0.38883 0.0
H513 H 0.53032 0.93466 0.36344 0.0
H514 H 0.53321 0.92509 0.23123 0.0
H515 H 0.48543 0.94355 0.8136 0.0
H516 H 0.48522 0.91689 0.90466 0.0
H517 H 0.53357 0.94369 0.0207 0.0
H518 H 0.53347 0.97077 0.93083 0.0
H519 H 0.50881 0.9302 0.11911 0.0
H520 H 0.53888 0.90263 0.90097 0.0
H521 H 0.54132 0.89384 0.7679 0.0
H522 H 0.48953 0.8586 0.78637 0.0
H523 H 0.48664 0.86739 0.91941 0.0
C524 C 0.5338 0.8455 0.2711 0.0
C525 C 0.52023 0.83005 0.27487 0.0
C526 C 0.5302 0.86203 0.22656 0.0
C527 C 0.5131 0.86334 0.18335 0.0
C528 C 0.49935 0.84802 0.1877 0.0
C529 C 0.50276 0.83162 0.23379 0.0
C530 C 0.51047 0.88003 0.12999 0.0
C531 C 0.51059 0.87603 0.05316 0.0
C532 C 0.5098 0.89985 0.15388 0.0
C533 C 0.50856 0.90512 0.2341 0.0
C534 C 0.49377 0.89718 0.27943 0.0
C535 C 0.49225 0.90269 0.35433 0.0
C536 C 0.50542 0.91619 0.38457 0.0
C537 C 0.52014 0.92418 0.33997 0.0
C538 C 0.52172 0.91873 0.26502 0.0
C539 C 0.49605 0.94382 0.85843 0.0
C540 C 0.50956 0.95934 0.86431 0.0
C541 C 0.49597 0.92845 0.91052 0.0
C542 C 0.5096 0.92795 0.96933 0.0
C543 C 0.5229 0.9436 0.97601 0.0
C544 C 0.52287 0.95909 0.92426 0.0
C545 C 0.51008 0.91112 0.02347 0.0
C546 C 0.50967 0.91507 0.10046 0.0
C547 C 0.51066 0.89123 0.99979 0.0
C548 C 0.51243 0.88583 0.91994 0.0
C549 C 0.52793 0.89311 0.87652 0.0
C550 C 0.52941 0.88812 0.80113 0.0
C551 C 0.51556 0.87571 0.76865 0.0
C552 C 0.50023 0.86823 0.81157 0.0
C553 C 0.49867 0.8732 0.88699 0.0
H554 H 0.51673 0.87186 0.71026 0.0
H555 H 0.50417 0.9205 0.44247 0.0
H556 H 0.69957 0.55846 0.15756 0.0
H557 H 0.6712 0.55154 0.07977 0.0
H558 H 0.65322 0.50625 0.23334 0.0
H559 H 0.68272 0.51243 0.30931 0.0
H560 H 0.64349 0.49484 0.10183 0.0
H561 H 0.63193 0.55499 0.22842 0.0
H562 H 0.63862 0.5885 0.27377 0.0
H563 H 0.64183 0.60938 0.04818 0.0
H564 H 0.63539 0.57595 1.00143 0.0
H565 H 0.54498 0.49981 0.95141 0.0
H566 H 0.57315 0.50246 0.03569 0.0
H567 H 0.60412 0.53607 0.87005 0.0
H568 H 0.57619 0.5332 0.78503 0.0
H569 H 0.60507 0.55258 0.01681 0.0
H570 H 0.61637 0.49008 0.89492 0.0
H571 H 0.607 0.45654 0.85763 0.0
H572 H 0.60084 0.44021 0.08769 0.0
H573 H 0.60988 0.47376 0.12633 0.0
C574 C 0.68968 0.54686 0.1744 0.0
C575 C 0.69332 0.53607 0.23975 0.0
C576 C 0.67327 0.54303 0.13017 0.0
C577 C 0.65945 0.52883 0.15151 0.0
C578 C 0.66344 0.51744 0.2156 0.0
C579 C 0.68031 0.52095 0.25911 0.0
C580 C 0.64088 0.52637 0.10716 0.0
C581 C 0.63498 0.50749 0.08443 0.0
C582 C 0.62951 0.54276 0.08361 0.0
C583 C 0.63333 0.56292 0.11144 0.0
C584 C 0.63418 0.56671 0.18848 0.0
C585 C 0.63791 0.58569 0.21443 0.0
C586 C 0.64069 0.60105 0.16389 0.0
C587 C 0.63969 0.59747 0.08727 0.0
C588 C 0.63597 0.57851 0.06101 0.0
C589 C 0.55777 0.50778 0.93282 0.0
C590 C 0.55826 0.51628 0.86118 0.0
C591 C 0.57392 0.50921 0.98107 0.0
C592 C 0.59086 0.51938 0.95927 0.0
C593 C 0.59127 0.52811 0.88824 0.0
C594 C 0.57527 0.52642 0.83954 0.0
C595 C 0.60807 0.52122 0.01054 0.0
C596 C 0.61362 0.53998 0.0347 0.0
C597 C 0.61875 0.50472 0.03671 0.0
C598 C 0.61361 0.48449 0.01349 0.0
C599 C 0.61287 0.47938 0.93755 0.0
C600 C 0.60764 0.46036 0.91616 0.0
C601 C 0.60328 0.44626 0.97025 0.0
C602 C 0.6042 0.45115 0.04585 0.0
C603 C 0.60939 0.47016 0.06752 0.0
H604 H 0.59922 0.43155 0.95359 0.0
H605 H 0.64359 0.61573 0.18409 0.0
H606 H 1.00773 0.68303 0.28324 0.0
H607 H 0.01194 0.65178 0.21614 0.0
H608 H 0.96307 0.66653 0.07406 0.0
H609 H 0.95843 0.69709 0.14253 0.0
H610 H 0.9604 0.63025 0.10242 0.0
H611 H 0.01383 0.67098 0.02158 0.0
H612 H 0.04321 0.69153 0.03721 0.0
H613 H 0.07369 0.64304 0.13753 0.0
H614 H 0.04438 0.62226 0.12335 0.0
H615 H 0.98221 0.57233 0.77785 0.0
H616 H 0.9781 0.59966 0.86567 0.0
H617 H 0.01553 0.57021 0.02375 0.0
H618 H 0.01931 0.5426 0.93709 0.0
H619 H 0.02478 0.61154 0.99621 0.0
H620 H 0.9707 0.57023 0.06378 0.0
H621 H 0.94085 0.55068 0.04292 0.0
H622 H 0.91128 0.60166 0.95783 0.0
H623 H 0.941 0.6215 0.97749 0.0
C624 C 0.99784 0.67948 0.23804 0.0
C625 C 0.98275 0.69255 0.21814 0.0
C626 C 1.00032 0.66165 0.1992 0.0
C627 C 0.988 0.65672 0.13882 0.0
C628 C 0.97279 0.66975 0.12019 0.0
C629 C 0.97018 0.68733 0.15936 0.0
C630 C 0.99083 0.63828 0.09391 0.0
C631 C 0.97449 0.62634 0.0788 0.0
C632 C 1.00922 0.6327 0.06373 0.0
C633 C 0.02685 0.64514 0.07222 0.0
C634 C 0.02675 0.66475 0.04747 0.0
C635 C 0.0434 0.67643 0.05599 0.0
C636 C 0.06029 0.66861 0.08856 0.0
C637 C 0.06059 0.64908 0.11247 0.0
C638 C 0.04397 0.63734 0.10418 0.0
C639 C 0.98952 0.57163 0.83138 0.0
C640 C 1.00111 0.55525 0.85026 0.0
C641 C 0.98711 0.58725 0.88164 0.0
C642 C 0.99649 0.58702 0.95144 0.0
C643 C 1.00816 0.57075 0.97029 0.0
C644 C 0.01025 0.55493 0.92068 0.0
C645 C 0.99432 0.6039 0.00406 0.0
C646 C 0.01076 0.61548 0.02044 0.0
C647 C 0.97598 0.60931 0.0344 0.0
C648 C 0.95817 0.59732 0.02148 0.0
C649 C 0.95791 0.57723 0.03984 0.0
C650 C 0.941 0.5661 0.02838 0.0
C651 C 0.92422 0.5749 0.99883 0.0
C652 C 0.92431 0.59485 0.98063 0.0
C653 C 0.94117 0.60606 0.99203 0.0
H654 H 0.91111 0.5663 0.9904 0.0
H655 H 0.07316 0.67768 0.09509 0.0
H656 H 0.99815 0.25112 0.32582 0.0
H657 H 0.98164 0.23379 0.42727 0.0
H658 H 0.94694 0.20201 0.26669 0.0
H659 H 0.96284 0.21973 0.16542 0.0
H660 H 0.92679 0.20765 0.3983 0.0
H661 H 0.9908 0.18474 0.3136 0.0
H662 H 0.02608 0.18868 0.28891 0.0
H663 H 0.03587 0.20291 0.51927 0.0
H664 H 1.00054 0.19932 0.54491 0.0
H665 H 0.9301 0.10624 0.42729 0.0
H666 H 0.92768 0.14166 0.4117 0.0
H667 H 0.9556 0.15027 0.62499 0.0
H668 H 0.95773 0.1147 0.64174 0.0
H669 H 0.97695 0.164 0.51097 0.0
H670 H 0.91241 0.17277 0.59439 0.0
H671 H 0.87727 0.16588 0.60989 0.0
H672 H 0.86794 0.17509 0.37571 0.0
H673 H 0.90308 0.18175 0.35843 0.0
C674 C 0.98651 0.24096 0.31231 0.0
C675 C 0.98206 0.23644 0.23771 0.0
C676 C 0.9771 0.23108 0.37031 0.0
C677 C 0.96328 0.21645 0.35432 0.0
C678 C 0.95755 0.21326 0.28023 0.0
C679 C 0.96686 0.22317 0.22237 0.0
C680 C 0.95758 0.20193 0.4115 0.0
C681 C 0.93766 0.19815 0.4238 0.0
C682 C 0.97186 0.18992 0.44609 0.0
C683 C 0.99306 0.19209 0.43089 0.0
C684 C 1.00048 0.18888 0.35878 0.0
C685 C 0.02047 0.19102 0.34464 0.0
C686 C 0.03321 0.19612 0.40244 0.0
C687 C 0.02597 0.19903 0.47452 0.0
C688 C 1.00597 0.19697 0.48887 0.0
C689 C 0.93494 0.11562 0.47242 0.0
C690 C 0.94453 0.10771 0.53488 0.0
C691 C 0.93346 0.13592 0.46361 0.0
C692 C 0.94153 0.1486 0.51712 0.0
C693 C 0.9493 0.14073 0.58309 0.0
C694 C 0.95069 0.12042 0.59212 0.0
C695 C 0.94604 0.16904 0.49543 0.0
C696 C 0.96589 0.17393 0.48912 0.0
C697 C 0.93166 0.18175 0.46543 0.0
C698 C 0.91045 0.17775 0.47514 0.0
C699 C 0.90291 0.17321 0.54605 0.0
C700 C 0.88297 0.16936 0.55518 0.0
C701 C 0.87039 0.17005 0.49383 0.0
C702 C 0.87771 0.1746 0.42321 0.0
C703 C 0.89764 0.17846 0.41375 0.0
H704 H 0.85495 0.16706 0.50101 0.0
H705 H 0.04869 0.19776 0.39144 0.0
H706 H 0.26311 0.97095 0.2907 0.0
H707 H 0.28109 0.95746 0.3975 0.0
H708 H 0.32773 0.9988 0.35716 0.0
H709 H 0.30938 0.01301 0.25486 0.0
H710 H 0.31303 0.93848 0.39262 0.0
H711 H 0.35238 1.01047 0.47784 0.0
H712 H 0.34408 0.04416 0.51761 0.0
H713 H 0.28742 0.02456 0.58906 0.0
H714 H 0.2957 0.99065 0.55171 0.0
H715 H 0.41195 0.92738 0.41628 0.0
H716 H 0.37696 0.93193 0.40443 0.0
H717 H 0.37428 0.95424 0.6297 0.0
H718 H 0.40967 0.95179 0.63884 0.0
H719 H 0.35642 0.97773 0.55592 0.0
H720 H 0.34815 0.91019 0.56603 0.0
H721 H 0.35412 0.87489 0.5456 0.0
H722 H 0.34289 0.88205 0.31159 0.0
H723 H 0.33716 0.91743 0.33022 0.0
C724 C 0.27688 0.97759 0.30663 0.0
C725 C 0.28498 0.9929 0.26404 0.0
C726 C 0.28718 0.9698 0.36734 0.0
C727 C 0.30567 0.97724 0.38628 0.0
C728 C 0.31326 0.99313 0.34562 0.0
C729 C 0.30292 1.00103 0.28594 0.0
C730 C 0.31855 0.96697 0.44031 0.0
C731 C 0.32233 0.94689 0.42965 0.0
C732 C 0.32995 0.97759 0.49196 0.0
C733 C 0.32484 0.998 0.5134 0.0
C734 C 0.33834 0.0133 0.50358 0.0
C735 C 0.33358 0.03245 0.5252 0.0
C736 C 0.31526 0.03649 0.5562 0.0
C737 C 0.30163 0.0214 0.56527 0.0
C738 C 0.30636 1.00222 0.54389 0.0
C739 C 0.40395 0.93313 0.46362 0.0
C740 C 0.41382 0.93956 0.52786 0.0
C741 C 0.38373 0.93532 0.45744 0.0
C742 C 0.37272 0.94329 0.51643 0.0
C743 C 0.38235 0.9481 0.58318 0.0
C744 C 0.40268 0.94644 0.58864 0.0
C745 C 0.35211 0.94953 0.50323 0.0
C746 C 0.34681 0.96889 0.52171 0.0
C747 C 0.33883 0.93789 0.46173 0.0
C748 C 0.34219 0.91654 0.44968 0.0
C749 C 0.34704 0.90428 0.51012 0.0
C750 C 0.35038 0.88423 0.49885 0.0
C751 C 0.34887 0.87623 0.42736 0.0
C752 C 0.344 0.88826 0.36698 0.0
C753 C 0.34065 0.90831 0.37792 0.0
H754 H 0.35147 0.86071 0.41875 0.0
H755 H 0.31158 0.05132 0.57288 0.0
H756 H 0.54136 0.26194 0.32524 0.0
H757 H 0.55214 0.27938 0.437 0.0
H758 H 0.51377 0.32767 0.38084 0.0
H759 H 0.50179 0.30971 0.27387 0.0
H760 H 0.57219 0.30938 0.4435 0.0
H761 H 0.50106 0.35562 0.50421 0.0
H762 H 0.46592 0.349 0.52283 0.0
H763 H 0.47908 0.28961 0.58571 0.0
H764 H 0.51427 0.29578 0.56697 0.0
H765 H 0.58869 0.40719 0.45866 0.0
H766 H 0.58238 0.37232 0.45111 0.0
H767 H 0.55363 0.37408 0.66551 0.0
H768 H 0.55805 0.40951 0.66948 0.0
H769 H 0.53127 0.35679 0.5842 0.0
H770 H 0.59677 0.34377 0.62707 0.0
H771 H 0.63267 0.34703 0.62375 0.0
H772 H 0.6327 0.33427 0.38934 0.0
H773 H 0.5968 0.33124 0.39077 0.0
C774 C 0.53468 0.27595 0.33839 0.0
C775 C 0.52087 0.28454 0.28999 0.0
C776 C 0.54098 0.28598 0.40209 0.0
C777 C 0.53369 0.30481 0.41825 0.0
C778 C 0.51929 0.31296 0.37149 0.0
C779 C 0.51274 0.30283 0.30896 0.0
C780 C 0.54288 0.31734 0.4763 0.0
C781 C 0.56331 0.31953 0.47555 0.0
C782 C 0.53152 0.32982 0.52222 0.0
C783 C 0.51034 0.32621 0.53455 0.0
C784 C 0.49649 0.34121 0.52282 0.0
C785 C 0.47655 0.33751 0.53307 0.0
C786 C 0.47029 0.31896 0.55595 0.0
C787 C 0.48394 0.30399 0.56809 0.0
C788 C 0.50388 0.30755 0.55729 0.0
C789 C 0.58119 0.40018 0.50466 0.0
C790 C 0.57354 0.41132 0.56377 0.0
C791 C 0.57793 0.38002 0.50113 0.0
C792 C 0.56761 0.37033 0.55805 0.0
C793 C 0.56156 0.38114 0.62064 0.0
C794 C 0.56434 0.40146 0.62324 0.0
C795 C 0.56043 0.34999 0.54525 0.0
C796 C 0.54037 0.34625 0.55493 0.0
C797 C 0.57232 0.33553 0.51087 0.0
C798 C 0.59401 0.33722 0.50918 0.0
C799 C 0.60441 0.34173 0.5747 0.0
C800 C 0.62477 0.34354 0.57314 0.0
C801 C 0.63496 0.34084 0.5064 0.0
C802 C 0.62479 0.3363 0.44106 0.0
C803 C 0.60443 0.33447 0.44227 0.0
H804 H 0.65072 0.34227 0.50531 0.0
H805 H 0.45486 0.31616 0.564 0.0
H806 H 0.21704 0.50527 0.28242 0.0
H807 H 0.19964 0.52376 0.37742 0.0
H808 H 0.2422 0.57034 0.36145 0.0
H809 H 0.25954 0.55181 0.26393 0.0
H810 H 0.20394 0.54124 0.50948 0.0
H811 H 0.21359 0.61349 0.3637 0.0
H812 H 0.22739 0.6274 0.2479 0.0
H813 H 0.21181 0.57502 0.12871 0.0
H814 H 0.19736 0.56113 0.24322 0.0
H815 H 0.11139 0.58143 0.60214 0.0
H816 H 0.14703 0.58433 0.59122 0.0
H817 H 0.14278 0.57224 0.35541 0.0
H818 H 0.10738 0.57016 0.36556 0.0
H819 H 0.17163 0.59663 0.37823 0.0
H820 H 0.14768 0.53542 0.49605 0.0
H821 H 0.13316 0.51554 0.59694 0.0
H822 H 0.17478 0.53893 0.75258 0.0
H823 H 0.18936 0.55919 0.65273 0.0
C824 C 0.22291 0.51927 0.30029 0.0
C825 C 0.23927 0.52738 0.26484 0.0
C826 C 0.21312 0.52974 0.35531 0.0
C827 C 0.21948 0.54857 0.37589 0.0
C828 C 0.237 0.5559 0.34595 0.0
C829 C 0.24685 0.54534 0.29038 0.0
C830 C 0.20553 0.56124 0.41685 0.0
C831 C 0.1972 0.55382 0.48246 0.0
C832 C 0.19684 0.57773 0.38184 0.0
C833 C 0.2047 0.58621 0.31206 0.0
C834 C 0.21301 0.60504 0.31259 0.0
C835 C 0.22088 0.61293 0.24718 0.0
C836 C 0.22047 0.6021 0.18099 0.0
C837 C 0.21203 0.58343 0.1799 0.0
C838 C 0.20394 0.57558 0.24492 0.0
C839 C 0.11807 0.58003 0.54763 0.0
C840 C 0.10668 0.57525 0.48478 0.0
C841 C 0.13842 0.58159 0.54159 0.0
C842 C 0.14762 0.57822 0.47277 0.0
C843 C 0.13606 0.57492 0.40919 0.0
C844 C 0.11582 0.57349 0.4151 0.0
C845 C 0.16906 0.57535 0.46665 0.0
C846 C 0.17894 0.5849 0.40844 0.0
C847 C 0.17882 0.56031 0.50682 0.0
C848 C 0.16935 0.54905 0.56742 0.0
C849 C 0.15353 0.53653 0.55204 0.0
C850 C 0.14534 0.52517 0.6089 0.0
C851 C 0.15304 0.52604 0.681 0.0
C852 C 0.16881 0.53838 0.69669 0.0
C853 C 0.177 0.54982 0.64008 0.0
H854 H 0.14689 0.51704 0.72452 0.0
H855 H 0.22668 0.60817 0.13054 0.0
H856 H 0.02573 0.75232 0.08898 0.0
H857 H 0.02999 0.76728 0.96528 0.0
H858 H 0.99454 0.81658 0.03481 0.0
H859 H 0.98969 0.80147 0.15576 0.0
H860 H 0.98804 0.80852 0.89051 0.0
H861 H 0.04873 0.81527 0.05774 0.0
H862 H 0.07665 0.79901 0.1202 0.0
H863 H 0.09162 0.76977 0.91572 0.0
H864 H 0.06369 0.78582 0.85243 0.0
H865 H 0.01558 0.89993 0.96516 0.0
H866 H 1.00888 0.86525 0.9486 0.0
H867 H 0.04842 0.86313 0.76147 0.0
H868 H 0.05464 0.89847 0.77548 0.0
H869 H 0.05549 0.8348 0.87456 0.0
H870 H 1.00388 0.85326 0.72136 0.0
H871 H 0.97596 0.87226 0.67283 0.0
H872 H 0.94211 0.85674 0.86529 0.0
H873 H 0.96984 0.83771 0.91506 0.0
C874 C 0.01855 0.76616 0.0769 0.0
C875 C 1.00773 0.77599 0.13235 0.0
C876 C 0.021 0.77466 0.00636 0.0
C877 C 0.01269 0.7931 0.99081 0.0
C878 C 1.001 0.80228 0.04504 0.0
C879 C 0.99851 0.79381 0.11481 0.0
C880 C 0.01801 0.80468 0.92391 0.0
C881 C 1.00281 0.81413 0.88526 0.0
C882 C 0.03746 0.81109 0.91305 0.0
C883 C 0.05418 0.80159 0.95072 0.0
C884 C 0.05801 0.80536 0.02633 0.0
C885 C 0.07379 0.79618 0.06182 0.0
C886 C 0.08588 0.78334 0.02197 0.0
C887 C 0.08223 0.77969 0.94652 0.0
C888 C 0.06644 0.78881 0.91083 0.0
C889 C 0.02256 0.89229 0.91932 0.0
C890 C 0.03562 0.90201 0.87163 0.0
C891 C 0.01864 0.87245 0.90969 0.0
C892 C 0.02779 0.86177 0.8526 0.0
C893 C 0.04099 0.87125 0.80498 0.0
C894 C 0.04474 0.89132 0.81392 0.0
C895 C 0.02505 0.84029 0.8511 0.0
C896 C 0.04082 0.82873 0.87517 0.0
C897 C 1.00597 0.83228 0.85035 0.0
C898 C 0.98899 0.84371 0.82117 0.0
C899 C 0.99048 0.8538 0.75304 0.0
C900 C 0.97468 0.86464 0.72545 0.0
C901 C 0.95724 0.86567 0.76576 0.0
C902 C 0.95559 0.85584 0.83383 0.0
C903 C 0.97135 0.84492 0.86156 0.0
H904 H 0.94504 0.87411 0.74435 0.0
H905 H 0.0981 0.77625 0.04952 0.0
H906 H 0.75164 0.05328 0.11461 0.0
H907 H 0.73195 0.07244 0.02536 0.0
H908 H 0.68504 0.03046 0.04748 0.0
H909 H 0.70472 1.01125 0.13364 0.0
H910 H 0.68521 0.04338 0.91247 0.0
H911 H 0.68924 0.07223 0.1633 0.0
H912 H 0.7074 0.08723 0.26772 0.0
H913 H 0.72795 0.13284 0.12227 0.0
H914 H 0.71004 0.11795 0.01684 0.0
H915 H 0.59624 0.07985 0.02949 0.0
H916 H 0.63127 0.08201 0.04942 0.0
H917 H 0.63933 0.10104 0.82237 0.0
H918 H 0.60396 0.09918 0.80166 0.0
H919 H 0.6663 0.10799 0.0188 0.0
H920 H 0.65576 0.06989 0.76231 0.0
H921 H 0.63038 0.05164 0.69295 0.0
H922 H 0.61581 0.01941 0.89106 0.0
H923 H 0.64093 0.03766 0.9615 0.0
C924 C 0.73734 0.04795 0.09835 0.0
C925 C 0.72948 0.03103 0.13168 0.0
C926 C 0.7261 0.05891 0.0478 0.0
C927 C 0.7069 0.05306 0.03055 0.0
C928 C 0.69979 0.03532 0.05965 0.0
C929 C 0.71096 0.02442 0.10951 0.0
C930 C 0.69298 0.06611 0.9907 0.0
C931 C 0.6816 0.05789 0.93359 0.0
C932 C 0.68793 0.08488 0.01907 0.0
C933 C 0.69855 0.09388 0.08224 0.0
C934 C 0.69772 0.08541 0.15365 0.0
C935 C 0.70795 0.09388 0.21295 0.0
C936 C 0.71887 0.11095 0.20158 0.0
C937 C 0.71953 0.1196 0.13093 0.0
C938 C 0.70936 0.11115 0.0714 0.0
C939 C 0.60522 0.08544 0.98456 0.0
C940 C 0.5973 0.08884 0.91327 0.0
C941 C 0.62534 0.08671 0.99624 0.0
C942 C 0.63786 0.09136 0.93699 0.0
C943 C 0.62986 0.09725 0.86855 0.0
C944 C 0.60967 0.096 0.8567 0.0
C945 C 0.6585 0.08498 0.94229 0.0
C946 C 0.67092 0.0943 0.99329 0.0
C947 C 0.66416 0.06681 0.91079 0.0
C948 C 0.65019 0.05501 0.86675 0.0
C949 C 0.64722 0.05879 0.79069 0.0
C950 C 0.63282 0.04854 0.75139 0.0
C951 C 0.6215 0.03437 0.78765 0.0
C952 C 0.62461 0.03036 0.86308 0.0
C953 C 0.6389 0.04063 0.90264 0.0
H954 H 0.6103 0.0265 0.7576 0.0
H955 H 0.72678 0.11749 0.24755 0.0
H956 H 0.54727 0.72017 0.20559 0.0
H957 H 0.54599 0.70183 0.09008 0.0
H958 H 0.50573 0.74443 0.99799 0.0
H959 H 0.50599 0.76219 0.11631 0.0
H960 H 0.48961 0.71198 0.98989 0.0
H961 H 0.55044 0.73065 0.90243 0.0
H962 H 0.58516 0.74032 0.90154 0.0
H963 H 0.60174 0.68279 0.97682 0.0
H964 H 0.56715 0.67282 0.97945 0.0
H965 H 0.47565 0.61679 0.82567 0.0
H966 H 0.48549 0.65139 0.81854 0.0
H967 H 0.52411 0.64275 0.00623 0.0
H968 H 0.5143 0.60848 0.01408 0.0
H969 H 0.54052 0.66667 0.89349 0.0
H970 H 0.47654 0.65844 0.02943 0.0
H971 H 0.44153 0.64956 0.02674 0.0
H972 H 0.43191 0.68991 0.84618 0.0
H973 H 0.46689 0.69897 0.8481 0.0
C974 C 0.53846 0.72587 0.16021 0.0
C975 C 0.52633 0.74229 0.17079 0.0
C976 C 0.53802 0.71557 0.09321 0.0
C977 C 0.52575 0.72169 0.03461 0.0
C978 C 0.51527 0.73935 0.04228 0.0
C979 C 0.5155 0.74956 0.10995 0.0
C980 C 0.52069 0.70739 0.97504 0.0
C981 C 0.50083 0.70257 0.96624 0.0
C982 C 0.53511 0.69518 0.94219 0.0
C983 C 0.55609 0.70096 0.94078 0.0
C984 C 0.56146 0.72006 0.91911 0.0
C985 C 0.58114 0.7256 0.9183 0.0
C986 C 0.59564 0.71217 0.93899 0.0
C987 C 0.59049 0.69316 0.96054 0.0
C988 C 0.57083 0.68753 0.96145 0.0
C989 C 0.48615 0.62235 0.86566 0.0
C990 C 0.49407 0.60998 0.921 0.0
C991 C 0.49195 0.642 0.86074 0.0
C992 C 0.50561 0.64955 0.91156 0.0
C993 C 0.51379 0.63711 0.96567 0.0
C994 C 0.50806 0.61756 0.97049 0.0
C995 C 0.5099 0.67076 0.91617 0.0
C996 C 0.52949 0.67682 0.91374 0.0
C997 C 0.49528 0.68432 0.93755 0.0
C998 C 0.47428 0.67914 0.93803 0.0
C999 C 0.46694 0.66534 0.98905 0.0
C1000 C 0.44712 0.6603 0.98775 0.0
C1001 C 0.43452 0.6691 0.93611 0.0
C1002 C 0.44169 0.68305 0.88597 0.0
C1003 C 0.46149 0.68814 0.88712 0.0
H1004 H 0.41919 0.66516 0.93512 0.0
H1005 H 0.61087 0.71649 0.93837 0.0
H1006 H 0.7743 0.51993 0.1206 0.0
H1007 H 0.80036 0.52113 0.02902 0.0
H1008 H 0.81221 0.58136 0.08943 0.0
H1009 H 0.78708 0.57939 0.1866 0.0
H1010 H 0.81822 0.53572 0.92112 0.0
H1011 H 0.85816 0.58896 0.10312 0.0
H1012 H 0.85831 0.60425 0.22804 0.0
H1013 H 0.83286 0.55217 0.32146 0.0
H1014 H 0.83242 0.53669 0.19698 0.0
H1015 H 0.92686 0.52604 0.8749 0.0
H1016 H 0.8945 0.54167 0.88108 0.0
H1017 H 0.87842 0.50255 0.05993 0.0
H1018 H 0.91044 0.48634 0.05189 0.0
H1019 H 0.87655 0.54733 0.07956 0.0
H1020 H 0.8623 0.49252 0.91657 0.0
H1021 H 0.86367 0.47328 0.80077 0.0
H1022 H 0.83681 0.5208 0.68131 0.0
H1023 H 0.83675 0.541 0.79499 0.0
C1024 C 0.78186 0.53371 0.11183 0.0
C1025 C 0.77906 0.54944 0.16093 0.0
C1026 C 0.79683 0.53444 0.05934 0.0
C1027 C 0.80891 0.55107 0.05465 0.0
C1028 C 0.80362 0.56809 0.09429 0.0
C1029 C 0.78909 0.5671 0.14898 0.0
C1030 C 0.82886 0.5486 0.02312 0.0
C1031 C 0.83106 0.53862 0.95492 0.0
C1032 C 0.84573 0.55241 0.06691 0.0
C1033 C 0.84498 0.56186 0.14097 0.0
C1034 C 0.85246 0.58088 0.15037 0.0
C1035 C 0.8526 0.58956 0.22098 0.0
C1036 C 0.84551 0.57922 0.28257 0.0
C1037 C 0.83823 0.5602 0.27368 0.0
C1038 C 0.83797 0.55149 0.20312 0.0
C1039 C 0.91629 0.52067 0.91486 0.0
C1040 C 0.92099 0.50502 0.96303 0.0
C1041 C 0.89787 0.52951 0.91794 0.0
C1042 C 0.88419 0.52305 0.97031 0.0
C1043 C 0.88888 0.50751 0.01865 0.0
C1044 C 0.90707 0.49833 0.01426 0.0
C1045 C 0.86555 0.53346 0.9805 0.0
C1046 C 0.86384 0.54512 0.04418 0.0
C1047 C 0.84919 0.53061 0.9335 0.0
C1048 C 0.85018 0.51863 0.86425 0.0
C1049 C 0.85743 0.49925 0.86519 0.0
C1050 C 0.85794 0.48812 0.7997 0.0
C1051 C 0.85069 0.49595 0.73323 0.0
C1052 C 0.84291 0.51492 0.7322 0.0
C1053 C 0.84277 0.52628 0.79708 0.0
H1054 H 0.85084 0.48721 0.68285 0.0
H1055 H 0.8458 0.58593 0.33717 0.0
H1056 H 0.98873 0.22394 0.95447 0.0
H1057 H 0.99178 0.19244 0.88975 0.0
H1058 H 0.04993 0.18521 0.97884 0.0
H1059 H 0.04678 0.21683 0.04445 0.0
H1060 H 0.04431 0.1694 0.82629 0.0
H1061 H 0.01702 0.16562 0.07187 0.0
H1062 H 0.99465 0.17608 0.17212 0.0
H1063 H 0.94521 0.16006 0.0376 0.0
H1064 H 0.96731 0.1499 0.93574 0.0
H1065 H 0.04588 0.06367 0.80751 0.0
H1066 H 0.04803 0.09782 0.85034 0.0
H1067 H 0.98792 0.1074 0.78706 0.0
H1068 H 0.98568 0.07345 0.74355 0.0
H1069 H 0.99594 0.12216 0.92781 0.0
H1070 H 0.02334 0.12606 0.68215 0.0
H1071 H 0.04571 0.11704 0.57989 0.0
H1072 H 0.0951 0.13293 0.71497 0.0
H1073 H 0.07301 0.1418 0.8185 0.0
C1074 C 1.00252 0.21608 0.95738 0.0
C1075 C 0.01766 0.22305 0.00336 0.0
C1076 C 1.00418 0.19795 0.92103 0.0
C1077 C 0.02101 0.18628 0.92995 0.0
C1078 C 0.03684 0.19394 0.97079 0.0
C1079 C 0.03511 0.21211 0.00773 0.0
C1080 C 0.02089 0.16531 0.90477 0.0
C1081 C 0.03394 0.159 0.8492 0.0
C1082 C 1.00717 0.15172 0.93383 0.0
C1083 C 0.99382 0.15717 0.99584 0.0
C1084 C 1.00137 0.16444 0.06344 0.0
C1085 C 0.98875 0.17031 0.12059 0.0
C1086 C 0.96852 0.16878 0.11119 0.0
C1087 C 0.96089 0.16127 0.04474 0.0
C1088 C 0.97346 0.15545 0.98726 0.0
C1089 C 0.03311 0.07303 0.80254 0.0
C1090 C 0.0156 0.06566 0.77204 0.0
C1091 C 0.03439 0.09262 0.82691 0.0
C1092 C 0.01815 0.10532 0.82193 0.0
C1093 C 1.00065 0.09797 0.79183 0.0
C1094 C 0.99942 0.07849 0.7667 0.0
C1095 C 0.0193 0.12617 0.84871 0.0
C1096 C 1.0064 0.13249 0.90491 0.0
C1097 C 0.03321 0.1397 0.82041 0.0
C1098 C 0.04653 0.13437 0.75837 0.0
C1099 C 0.03898 0.12746 0.69031 0.0
C1100 C 0.05161 0.12241 0.63206 0.0
C1101 C 0.07182 0.12435 0.64101 0.0
C1102 C 0.07944 0.1314 0.70817 0.0
C1103 C 0.06687 0.13645 0.76664 0.0
H1104 H 0.08158 0.12044 0.59583 0.0
H1105 H 0.95876 0.17337 0.15546 0.0
H1106 H 0.29783 0.97646 0.99323 0.0
H1107 H 0.3288 0.9779 0.92501 0.0
H1108 H 0.32529 0.04107 0.9217 0.0
H1109 H 0.2943 0.03963 0.99151 0.0
H1110 H 0.34368 0.02009 0.78282 0.0
H1111 H 0.34894 0.02765 0.05234 0.0
H1112 H 0.34097 0.01785 0.18114 0.0
H1113 H 0.36518 0.96055 0.14136 0.0
H1114 H 0.37313 0.96999 0.01191 0.0
H1115 H 0.45572 0.02853 0.86856 0.0
H1116 H 0.4214 0.02908 0.90855 0.0
H1117 H 0.4066 0.98923 0.73059 0.0
H1118 H 0.44054 0.98934 0.68838 0.0
H1119 H 0.39677 1.00063 0.95752 0.0
H1120 H 0.37059 0.99485 0.66896 0.0
H1121 H 0.38187 1.00425 0.54305 0.0
H1122 H 0.39987 0.06052 0.62594 0.0
H1123 H 0.38988 0.05089 0.75322 0.0
C1124 C 0.30317 0.99062 0.97477 0.0
C1125 C 0.29344 1.00792 0.99665 0.0
C1126 C 0.32098 0.99144 0.9363 0.0
C1127 C 0.32948 1.00959 0.91845 0.0
C1128 C 0.31896 0.02689 0.9343 0.0
C1129 C 0.30115 0.02607 0.97364 0.0
C1130 C 0.35041 1.01037 0.89435 0.0
C1131 C 0.35524 0.01586 0.8211 0.0
C1132 C 0.36567 1.00499 0.94399 0.0
C1133 C 0.36148 0.99947 0.02236 0.0
C1134 C 0.35247 0.01293 0.07098 0.0
C1135 C 0.34796 1.00744 0.14409 0.0
C1136 C 0.35248 0.98856 0.16936 0.0
C1137 C 0.36165 0.97517 0.12167 0.0
C1138 C 0.36621 0.98059 0.04847 0.0
C1139 C 0.44511 0.02003 0.83746 0.0
C1140 C 0.45093 1.00914 0.77447 0.0
C1141 C 0.42546 0.02032 0.86056 0.0
C1142 C 0.41113 1.00961 0.82166 0.0
C1143 C 0.41706 0.99827 0.76004 0.0
C1144 C 0.43661 0.99824 0.73618 0.0
C1145 C 0.3901 1.01016 0.84577 0.0
C1146 C 0.38523 1.0049 0.9192 0.0
C1147 C 0.37485 0.01584 0.79659 0.0
C1148 C 0.37928 0.02228 0.71988 0.0
C1149 C 0.37671 1.00931 0.65987 0.0
C1150 C 0.38306 0.01459 0.58858 0.0
C1151 C 0.39123 0.0331 0.5762 0.0
C1152 C 0.39341 0.04624 0.63547 0.0
C1153 C 0.38763 0.0408 0.70732 0.0
H1154 H 0.39601 0.03719 0.52083 0.0
H1155 H 0.34891 0.98432 0.22592 0.0
H1156 H 0.54014 0.29584 0.01106 0.0
H1157 H 0.53922 0.32657 0.94012 0.0
H1158 H 0.4762 0.32619 0.94812 0.0
H1159 H 0.47716 0.29536 0.01971 0.0
H1160 H 0.49231 0.34264 0.80992 0.0
H1161 H 0.49744 0.34989 0.07617 0.0
H1162 H 0.5117 0.34297 0.19975 0.0
H1163 H 0.56709 0.36545 0.12647 0.0
H1164 H 0.55323 0.37221 1.00191 0.0
H1165 H 0.4765 0.44838 0.80491 0.0
H1166 H 0.47663 0.41385 0.84509 0.0
H1167 H 0.53891 0.4109 0.80959 0.0
H1168 H 0.53886 0.44511 0.76731 0.0
H1169 H 0.52291 0.39595 0.95835 0.0
H1170 H 0.51827 0.38812 0.69252 0.0
H1171 H 0.50417 0.39579 0.56937 0.0
H1172 H 0.44805 0.37517 0.64283 0.0
H1173 H 0.46183 0.36754 0.76686 0.0
C1174 C 0.52608 0.30182 0.99459 0.0
C1175 C 0.50872 0.29296 0.01962 0.0
C1176 C 0.52556 0.31953 0.95473 0.0
C1177 C 0.50765 0.32889 0.93931 0.0
C1178 C 0.4902 0.31926 0.95894 0.0
C1179 C 0.49073 0.30153 0.99932 0.0
C1180 C 0.50737 0.3497 0.91202 0.0
C1181 C 0.49882 0.35429 0.84279 0.0
C1182 C 0.51607 0.36501 0.95415 0.0
C1183 C 0.52435 0.36137 0.02946 0.0
C1184 C 0.5127 0.35324 0.08623 0.0
C1185 C 0.5207 0.34935 0.15647 0.0
C1186 C 0.54031 0.35371 0.17089 0.0
C1187 C 0.55192 0.36205 0.11517 0.0
C1188 C 0.54399 0.36592 0.04474 0.0
C1189 C 0.49022 0.44039 0.80553 0.0
C1190 C 0.50765 0.44962 0.78288 0.0
C1191 C 0.49027 0.42063 0.8284 0.0
C1192 C 0.50779 0.40976 0.83059 0.0
C1193 C 0.52522 0.41896 0.80863 0.0
C1194 C 0.52513 0.43855 0.78422 0.0
C1195 C 0.50794 0.38886 0.85632 0.0
C1196 C 0.51643 0.38427 0.92549 0.0
C1197 C 0.49922 0.37361 0.81421 0.0
C1198 C 0.49101 0.37751 0.73918 0.0
C1199 C 0.50289 0.38535 0.68257 0.0
C1200 C 0.49496 0.3897 0.61265 0.0
C1201 C 0.47517 0.38617 0.59855 0.0
C1202 C 0.46334 0.37804 0.65407 0.0
C1203 C 0.47122 0.37364 0.72412 0.0
H1204 H 0.46904 0.38955 0.54437 0.0
H1205 H 0.54648 0.35066 0.22529 0.0
H1206 H 0.23007 0.52567 0.9554 0.0
H1207 H 0.19912 0.52412 0.88594 0.0
H1208 H 0.18398 0.47089 1.00244 0.0
H1209 H 0.21498 0.47245 0.07143 0.0
H1210 H 0.1708 0.46969 0.85815 0.0
H1211 H 0.16832 0.51528 0.06349 0.0
H1212 H 0.17787 0.54409 0.13826 0.0
H1213 H 0.1667 0.58189 0.95126 0.0
H1214 H 0.15738 0.55326 0.87494 0.0
H1215 H 0.06655 0.47393 0.81985 0.0
H1216 H 0.10026 0.47205 0.86546 0.0
H1217 H 0.11271 0.52808 0.76412 0.0
H1218 H 0.07904 0.53017 0.71933 0.0
H1219 H 0.12784 0.52761 0.89672 0.0
H1220 H 0.1298 0.48289 0.69113 0.0
H1221 H 0.11935 0.45457 0.61539 0.0
H1222 H 0.13128 0.41574 0.79861 0.0
H1223 H 0.14157 0.44387 0.87584 0.0
C1224 C 0.22051 0.5132 0.9637 0.0
C1225 C 0.22518 0.4989 0.01747 0.0
C1226 C 0.20265 0.51247 0.92486 0.0
C1227 C 0.18894 0.49754 0.93958 0.0
C1228 C 0.19421 0.48255 0.98976 0.0
C1229 C 0.21204 0.48333 0.02875 0.0
C1230 C 0.16862 0.49839 0.90774 0.0
C1231 C 0.16137 0.4823 0.86716 0.0
C1232 C 0.15626 0.51495 0.91794 0.0
C1233 C 0.16235 0.5321 0.96327 0.0
C1234 C 0.16811 0.52971 0.03804 0.0
C1235 C 0.17345 0.54602 0.08076 0.0
C1236 C 0.17288 0.56481 0.04952 0.0
C1237 C 0.16713 0.56732 0.97536 0.0
C1238 C 0.16183 0.55107 0.93234 0.0
C1239 C 0.07648 0.48581 0.80672 0.0
C1240 C 0.06993 0.5022 0.76565 0.0
C1241 C 0.09587 0.48467 0.83268 0.0
C1242 C 0.10932 0.4998 0.81778 0.0
C1243 C 0.1028 0.51614 0.77653 0.0
C1244 C 0.08343 0.5173 0.75069 0.0
C1245 C 0.12996 0.49894 0.8468 0.0
C1246 C 0.13728 0.51503 0.88718 0.0
C1247 C 0.14239 0.48245 0.83587 0.0
C1248 C 0.13628 0.46551 0.78949 0.0
C1249 C 0.13007 0.46833 0.71545 0.0
C1250 C 0.12419 0.45231 0.67222 0.0
C1251 C 0.12461 0.43338 0.70224 0.0
C1252 C 0.13094 0.43042 0.77548 0.0
C1253 C 0.13682 0.44639 0.81898 0.0
H1254 H 0.12008 0.42099 0.6687 0.0
H1255 H 0.17679 0.57745 0.08283 0.0
H1256 H 0.03707 0.79586 0.38539 0.0
H1257 H 0.03684 0.82643 0.4571 0.0
H1258 H 0.97558 0.81824 0.50505 0.0
H1259 H 0.97587 0.78753 0.43293 0.0
H1260 H 0.98064 0.8534 0.45127 0.0
H1261 H 0.00979 0.81846 0.64796 0.0
H1262 H 0.03218 0.79691 0.71838 0.0
H1263 H 0.08068 0.8337 0.65935 0.0
H1264 H 0.05859 0.85546 0.58826 0.0
H1265 H 1.00823 0.9354 0.74376 0.0
H1266 H 1.00736 0.90083 0.70638 0.0
H1267 H 1.00566 0.91829 0.47521 0.0
H1268 H 1.00588 0.9528 0.5124 0.0
H1269 H 0.02956 0.8772 0.63417 0.0
H1270 H 0.98124 0.88549 0.36922 0.0
H1271 H 0.95468 0.90671 0.32197 0.0
H1272 H 0.93802 0.92096 0.54638 0.0
H1273 H 0.96429 0.89968 0.59497 0.0
C1274 C 0.02375 0.80019 0.41373 0.0
C1275 C 1.00657 0.78909 0.40443 0.0
C1276 C 0.02359 0.81777 0.45462 0.0
C1277 C 1.00619 0.82485 0.48685 0.0
C1278 C 0.98922 0.81322 0.48089 0.0
C1279 C 0.98943 0.79549 0.44044 0.0
C1280 C 1.00534 0.84522 0.51919 0.0
C1281 C 0.99133 0.85852 0.4915 0.0
C1282 C 0.01898 0.85206 0.57284 0.0
C1283 C 0.03256 0.83845 0.61183 0.0
C1284 C 0.02528 0.82178 0.64889 0.0
C1285 C 0.0379 0.80958 0.68928 0.0
C1286 C 0.05786 0.81387 0.69296 0.0
C1287 C 0.06523 0.83036 0.65624 0.0
C1288 C 0.05266 0.84265 0.61596 0.0
C1289 C 1.00758 0.93191 0.68494 0.0
C1290 C 1.0069 0.94703 0.63125 0.0
C1291 C 1.00717 0.91205 0.66351 0.0
C1292 C 1.00613 0.90671 0.58774 0.0
C1293 C 1.00595 0.92182 0.53407 0.0
C1294 C 1.00614 0.94166 0.55549 0.0
C1295 C 1.00518 0.88547 0.56477 0.0
C1296 C 0.01893 0.87207 0.59378 0.0
C1297 C 0.99086 0.87835 0.51425 0.0
C1298 C 0.97487 0.89108 0.48568 0.0
C1299 C 0.97186 0.89308 0.40848 0.0
C1300 C 0.95686 0.90514 0.38147 0.0
C1301 C 0.9447 0.91521 0.43114 0.0
C1302 C 0.94748 0.91319 0.50795 0.0
C1303 C 0.96244 0.90114 0.53526 0.0
H1304 H 0.93311 0.92456 0.41011 0.0
H1305 H 0.06759 0.80446 0.72453 0.0
H1306 H 0.72203 0.03495 0.41737 0.0
H1307 H 0.69234 0.03151 0.49206 0.0
H1308 H 0.69055 0.96973 0.43958 0.0
H1309 H 0.72026 0.97333 0.36376 0.0
H1310 H 0.65684 0.98578 0.40678 0.0
H1311 H 0.69693 0.98737 0.62493 0.0
H1312 H 0.72196 0.99929 0.71295 0.0
H1313 H 0.69125 0.05407 0.73448 0.0
H1314 H 0.66626 0.04263 0.6452 0.0
H1315 H 0.5699 0.97044 0.61931 0.0
H1316 H 0.60369 0.9693 0.57432 0.0
H1317 H 0.6087 0.0318 0.60674 0.0
H1318 H 0.57514 0.03296 0.65433 0.0
H1319 H 0.64135 0.01309 0.65611 0.0
H1320 H 0.60235 0.0121 0.43288 0.0
H1321 H 0.57658 0.99971 0.34897 0.0
H1322 H 0.60533 0.94364 0.33857 0.0
H1323 H 0.63116 0.95562 0.42327 0.0
C1324 C 0.71581 0.02045 0.42472 0.0
C1325 C 0.72374 1.00433 0.38595 0.0
C1326 C 0.69871 0.01849 0.4672 0.0
C1327 C 0.68902 1.00033 0.47201 0.0
C1328 C 0.69765 0.98392 0.43706 0.0
C1329 C 0.71484 0.98589 0.39462 0.0
C1330 C 0.66892 0.99909 0.5056 0.0
C1331 C 0.65361 0.99141 0.46201 0.0
C1332 C 0.66433 1.00695 0.57677 0.0
C1333 C 0.67974 0.01416 0.62822 0.0
C1334 C 0.69562 1.00204 0.64779 0.0
C1335 C 0.70979 1.0087 0.69799 0.0
C1336 C 0.70819 0.02742 0.7293 0.0
C1337 C 0.69246 0.03956 0.71022 0.0
C1338 C 0.67829 0.03299 0.65988 0.0
C1339 C 0.57819 0.98396 0.61726 0.0
C1340 C 0.56971 1.00179 0.64073 0.0
C1341 C 0.59755 0.98329 0.59117 0.0
C1342 C 0.60887 1.00048 0.58668 0.0
C1343 C 0.60042 0.01829 0.61011 0.0
C1344 C 0.58115 0.01893 0.63722 0.0
C1345 C 0.62939 0.99995 0.55707 0.0
C1346 C 0.6447 1.00737 0.60118 0.0
C1347 C 0.634 0.99188 0.48635 0.0
C1348 C 0.61857 0.98469 0.43505 0.0
C1349 C 0.6031 0.99708 0.41315 0.0
C1350 C 0.5885 0.99014 0.36537 0.0
C1351 C 0.58929 0.97088 0.33864 0.0
C1352 C 0.60472 0.95855 0.35943 0.0
C1353 C 0.61935 0.96541 0.40727 0.0
H1354 H 0.57796 0.96554 0.30168 0.0
H1355 H 0.71914 0.03252 0.76837 0.0
H1356 H 0.4835 0.71922 0.39969 0.0
H1357 H 0.48307 0.6884 0.4705 0.0
H1358 H 0.54113 0.70058 0.55247 0.0
H1359 H 0.54147 0.73142 0.48134 0.0
H1360 H 0.54031 0.66522 0.49532 0.0
H1361 H 0.50144 0.69929 0.67012 0.0
H1362 H 0.47462 0.72001 0.71781 0.0
H1363 H 0.43251 0.67768 0.64302 0.0
H1364 H 0.45904 0.65691 0.59304 0.0
H1365 H 0.50827 0.57974 0.76658 0.0
H1366 H 0.50942 0.61473 0.73482 0.0
H1367 H 0.5172 0.59993 0.50309 0.0
H1368 H 0.51672 0.56504 0.5345 0.0
H1369 H 0.48755 0.6383 0.65495 0.0
H1370 H 0.54469 0.63336 0.41456 0.0
H1371 H 0.57384 0.61378 0.38149 0.0
H1372 H 0.58324 0.60006 0.61248 0.0
H1373 H 0.55432 0.61978 0.64703 0.0
C1374 C 0.49581 0.71569 0.43537 0.0
C1375 C 0.51232 0.72799 0.43652 0.0
C1376 C 0.49564 0.69797 0.47558 0.0
C1377 C 0.51206 0.692 0.51734 0.0
C1378 C 0.52824 0.70475 0.52098 0.0
C1379 C 0.52835 0.72253 0.48111 0.0
C1380 C 0.51308 0.67174 0.55052 0.0
C1381 C 0.52874 0.65941 0.53029 0.0
C1382 C 0.49832 0.66408 0.59791 0.0
C1383 C 0.48226 0.67664 0.62695 0.0
C1384 C 0.48645 0.69451 0.66288 0.0
C1385 C 0.47129 0.70627 0.69035 0.0
C1386 C 0.45187 0.7002 0.68318 0.0
C1387 C 0.44756 0.68238 0.64838 0.0
C1388 C 0.46266 0.67062 0.62036 0.0
C1389 C 0.51031 0.58389 0.70884 0.0
C1390 C 0.51256 0.56942 0.65326 0.0
C1391 C 0.51083 0.60398 0.6907 0.0
C1392 C 0.51356 0.61017 0.61657 0.0
C1393 C 0.51547 0.59571 0.56094 0.0
C1394 C 0.51511 0.57566 0.57903 0.0
C1395 C 0.51433 0.63163 0.59698 0.0
C1396 C 0.49907 0.64416 0.61991 0.0
C1397 C 0.5297 0.63965 0.55353 0.0
C1398 C 0.54722 0.62791 0.53325 0.0
C1399 C 0.55303 0.62623 0.45831 0.0
C1400 C 0.5695 0.6151 0.43931 0.0
C1401 C 0.58035 0.60563 0.49482 0.0
C1402 C 0.57478 0.60734 0.5695 0.0
C1403 C 0.55834 0.61847 0.58881 0.0
H1404 H 0.59309 0.59701 0.47998 0.0
H1405 H 0.44016 0.70928 0.7049 0.0
H1406 H 0.78422 0.53985 0.50772 0.0
H1407 H 0.81463 0.53482 0.57929 0.0
H1408 H 0.84003 0.50473 0.3908 0.0
H1409 H 0.80962 0.50863 0.32232 0.0
H1410 H 0.8532 0.48793 0.50262 0.0
H1411 H 0.84511 0.55742 0.44573 0.0
H1412 H 0.82846 0.58959 0.45418 0.0
H1413 H 0.83694 0.58994 0.69128 0.0
H1414 H 0.85315 0.55762 0.68437 0.0
H1415 H 0.95497 0.51038 0.52467 0.0
H1416 H 0.92017 0.51204 0.49262 0.0
H1417 H 0.90541 0.51729 0.7253 0.0
H1418 H 0.94035 0.515 0.75808 0.0
H1419 H 0.88577 0.54603 0.6132 0.0
H1420 H 0.8943 0.47779 0.67055 0.0
H1421 H 0.91115 0.44576 0.66446 0.0
H1422 H 0.90295 0.44423 0.4271 0.0
H1423 H 0.88628 0.47641 0.4317 0.0
C1424 C 0.79609 0.53158 0.48286 0.0
C1425 C 0.79443 0.52466 0.40921 0.0
C1426 C 0.81369 0.52901 0.52325 0.0
C1427 C 0.83014 0.51984 0.49021 0.0
C1428 C 0.82787 0.51193 0.41833 0.0
C1429 C 0.81034 0.51416 0.37891 0.0
C1430 C 0.84995 0.51876 0.52759 0.0
C1431 C 0.86023 0.50079 0.52605 0.0
C1432 C 0.85932 0.53524 0.56094 0.0
C1433 C 0.84991 0.55487 0.56463 0.0
C1434 C 0.84321 0.56427 0.49964 0.0
C1435 C 0.83391 0.58255 0.50414 0.0
C1436 C 0.8316 0.59176 0.57318 0.0
C1437 C 0.83864 0.58275 0.63786 0.0
C1438 C 0.84782 0.56441 0.63369 0.0
C1439 C 0.94438 0.51192 0.56923 0.0
C1440 C 0.95057 0.51262 0.64411 0.0
C1441 C 0.92443 0.51286 0.55073 0.0
C1442 C 0.9101 0.51488 0.60637 0.0
C1443 C 0.91616 0.51585 0.68124 0.0
C1444 C 0.93615 0.51448 0.69994 0.0
C1445 C 0.88886 0.5155 0.58538 0.0
C1446 C 0.87849 0.53329 0.58992 0.0
C1447 C 0.87939 0.49898 0.55441 0.0
C1448 C 0.88922 0.47958 0.55139 0.0
C1449 C 0.89624 0.4707 0.61699 0.0
C1450 C 0.90573 0.45251 0.61383 0.0
C1451 C 0.90817 0.44299 0.54541 0.0
C1452 C 0.90107 0.45163 0.48004 0.0
C1453 C 0.89158 0.46983 0.4829 0.0
H1454 H 0.91552 0.42891 0.54306 0.0
H1455 H 0.82442 0.60592 0.57652 0.0
loop_
_geom_bond_atom_site_label_1
_geom_bond_atom_site_label_2
_geom_bond_distance
_geom_bond_site_symmetry_2
_ccdc_geom_bond_type
H0 C5 0.930 . S
H1 C8 0.930 . S
H2 C10 0.930 . S
H3 C4 1.016 . S
C4 H3 1.016 . S
C4 N11 1.286 . S
C5 H0 0.930 . S
C5 C6 1.397 . S
C5 C7 1.361 . S
C6 C5 1.397 . S
C6 C10 1.390 . S
C7 C5 1.361 . S
C7 C8 1.393 . S
C7 N11 1.413 . S
C8 H1 0.930 . S
C8 C7 1.393 . S
C8 C9 1.399 . S
C9 C8 1.399 . S
C9 C10 1.381 . S
C10 H2 0.930 . S
C10 C6 1.390 . S
C10 C9 1.381 . S
N11 C4 1.286 . S
N11 C7 1.413 . S
H12 C17 0.930 . S
H13 C20 0.930 . S
H14 C22 0.930 . S
H15 C16 1.029 . S
C16 H15 1.029 . S
C16 N23 1.268 1_655 S
C17 H12 0.930 . S
C17 C18 1.407 . S
C17 C19 1.361 . S
C18 C17 1.407 . S
C18 C22 1.385 1_455 S
C19 C17 1.361 . S
C19 C20 1.393 . S
C19 N23 1.413 . S
C20 H13 0.930 . S
C20 C19 1.393 . S
C20 C21 1.402 . S
C21 C20 1.402 . S
C21 C22 1.379 1_455 S
C22 H14 0.930 . S
C22 C18 1.385 1_655 S
C22 C21 1.379 1_655 S
N23 C16 1.268 1_455 S
N23 C19 1.413 . S
H24 C29 0.930 . S
H25 C32 0.930 . S
H26 C34 0.930 . S
H27 C28 1.029 . S
C28 H27 1.029 . S
C28 N35 1.268 1_565 S
C29 H24 0.930 . S
C29 C30 1.407 . S
C29 C31 1.361 . S
C30 C29 1.407 . S
C30 C34 1.385 1_545 S
C31 C29 1.361 . S
C31 C32 1.393 . S
C31 N35 1.413 . S
C32 H25 0.930 . S
C32 C31 1.393 . S
C32 C33 1.402 . S
C33 C32 1.402 . S
C33 C34 1.379 1_545 S
C34 H26 0.930 . S
C34 C30 1.385 1_565 S
C34 C33 1.379 1_565 S
N35 C28 1.268 1_545 S
N35 C31 1.413 . S
H36 C41 0.930 . S
H37 C44 0.930 . S
H38 C46 0.930 . S
H39 C40 1.016 . S
C40 H39 1.016 . S
C40 N47 1.286 . S
C41 H36 0.930 . S
C41 C42 1.397 . S
C41 C43 1.361 . S
C42 C41 1.397 . S
C42 C46 1.390 . S
C43 C41 1.361 . S
C43 C44 1.393 . S
C43 N47 1.413 . S
C44 H37 0.930 . S
C44 C43 1.393 . S
C44 C45 1.399 . S
C45 C44 1.399 . S
C45 C46 1.381 . S
C46 H38 0.930 . S
C46 C42 1.390 . S
C46 C45 1.381 . S
N47 C40 1.286 . S
N47 C43 1.413 . S
H48 C53 0.930 . S
H49 C56 0.930 . S
H50 C58 0.930 . S
H51 C52 1.016 . S
C52 H51 1.016 . S
C52 N59 1.286 . S
C53 H48 0.930 . S
C53 C54 1.397 . S
C53 C55 1.361 1_556 S
C54 C53 1.397 . S
C54 C58 1.390 1_556 S
C55 C53 1.361 1_554 S
C55 C56 1.393 . S
C55 N59 1.413 . S
C56 H49 0.930 . S
C56 C55 1.393 . S
C56 C57 1.399 . S
C57 C56 1.399 . S
C57 C58 1.381 . S
C58 H50 0.930 . S
C58 C54 1.390 1_554 S
C58 C57 1.381 . S
N59 C52 1.286 . S
N59 C55 1.413 . S
H60 C65 0.930 . S
H61 C68 0.930 . S
H62 C70 0.930 . S
H63 C64 1.025 . S
C64 H63 1.025 . S
C64 N71 1.274 1_655 S
C65 H60 0.930 . S
C65 C66 1.410 . S
C65 C67 1.361 1_556 S
C66 C65 1.410 . S
C66 C70 1.384 1_456 S
C67 C65 1.361 1_554 S
C67 C68 1.393 . S
C67 N71 1.413 . S
C68 H61 0.930 . S
C68 C67 1.393 . S
C68 C69 1.404 . S
C69 C68 1.404 . S
C69 C70 1.378 1_455 S
C70 H62 0.930 . S
C70 C66 1.384 1_654 S
C70 C69 1.378 1_655 S
N71 C64 1.274 1_455 S
N71 C67 1.413 . S
H72 C77 0.930 . S
H73 C80 0.930 . S
H74 C82 0.930 . S
H75 C76 1.025 . S
C76 H75 1.025 . S
C76 N83 1.274 1_565 S
C77 H72 0.930 . S
C77 C78 1.410 . S
C77 C79 1.361 1_556 S
C78 C77 1.410 . S
C78 C82 1.384 1_546 S
C79 C77 1.361 1_554 S
C79 C80 1.393 . S
C79 N83 1.413 . S
C80 H73 0.930 . S
C80 C79 1.393 . S
C80 C81 1.404 . S
C81 C80 1.404 . S
C81 C82 1.378 1_545 S
C82 H74 0.930 . S
C82 C78 1.384 1_564 S
C82 C81 1.378 1_565 S
N83 C76 1.274 1_545 S
N83 C79 1.413 . S
H84 C89 0.930 . S
H85 C92 0.930 . S
H86 C94 0.930 . S
H87 C88 1.016 . S
C88 H87 1.016 . S
C88 N95 1.286 . S
C89 H84 0.930 . S
C89 C90 1.397 . S
C89 C91 1.361 1_556 S
C90 C89 1.397 . S
C90 C94 1.390 1_556 S
C91 C89 1.361 1_554 S
C91 C92 1.393 . S
C91 N95 1.413 . S
C92 H85 0.930 . S
C92 C91 1.393 . S
C92 C93 1.399 . S
C93 C92 1.399 . S
C93 C94 1.381 . S
C94 H86 0.930 . S
C94 C90 1.390 1_554 S
C94 C93 1.381 . S
N95 C88 1.286 . S
N95 C91 1.413 . S
Tb96 C106 2.825 . S
Tb96 O107 2.347 1_455 S
Tb96 O110 2.366 . S
Tb96 O115 2.418 . S
Tb96 O116 2.384 1_565 S
Tb96 O119 2.479 . S
Tb96 O120 2.471 . S
Eu97 O108 2.418 . S
Eu97 O109 2.384 1_545 S
Eu97 O112 2.479 . S
Eu97 O113 2.471 . S
Eu97 O114 2.347 1_655 S
Eu97 O117 2.366 . S
Eu97 C127 2.825 . S
C98 O114 1.259 1_565 S
C98 O115 1.265 . S
C99 O116 1.255 . S
C99 O117 1.265 1_455 S
C100 C102 1.380 . S
C100 C103 1.374 . S
C100 C106 1.507 . S
C101 C102 1.384 . S
C101 C105 1.387 . S
C101 H128 0.930 . S
C102 C100 1.380 . S
C102 C101 1.384 . S
C102 H129 0.931 . S
C103 C100 1.374 . S
C103 C104 1.390 . S
C103 H130 0.930 1_455 S
C104 C103 1.390 . S
C104 C105 1.391 . S
C104 H131 0.930 1_455 S
C105 C101 1.387 . S
C105 C104 1.391 . S
C106 Tb96 2.825 . S
C106 C100 1.507 . S
C106 O119 1.238 . S
C106 O120 1.247 . S
O107 Tb96 2.347 1_655 S
O107 C111 1.259 1_565 S
O108 Eu97 2.418 . S
O108 C111 1.265 . S
O109 Eu97 2.384 1_565 S
O109 C118 1.255 . S
O110 Tb96 2.366 . S
O110 C118 1.265 1_455 S
C111 O107 1.259 1_545 S
C111 O108 1.265 . S
O112 Eu97 2.479 . S
O112 C127 1.238 . S
O113 Eu97 2.471 . S
O113 C127 1.247 . S
O114 Eu97 2.347 1_455 S
O114 C98 1.259 1_545 S
O115 Tb96 2.418 . S
O115 C98 1.265 . S
O116 Tb96 2.384 1_545 S
O116 C99 1.255 . S
O117 Eu97 2.366 . S
O117 C99 1.265 1_655 S
C118 O109 1.255 . S
C118 O110 1.265 1_655 S
O119 Tb96 2.479 . S
O119 C106 1.238 . S
O120 Tb96 2.471 . S
O120 C106 1.247 . S
C121 C124 1.380 . S
C121 C125 1.374 . S
C121 C127 1.507 . S
C122 C123 1.387 . S
C122 C126 1.391 . S
C123 C122 1.387 . S
C123 C124 1.384 . S
C123 H132 0.930 . S
C124 C121 1.380 . S
C124 C123 1.384 . S
C124 H133 0.931 . S
C125 C121 1.374 . S
C125 C126 1.390 . S
C125 H134 0.930 1_655 S
C126 C122 1.391 . S
C126 C125 1.390 . S
C126 H135 0.930 1_655 S
C127 Eu97 2.825 . S
C127 O112 1.238 . S
C127 O113 1.247 . S
C127 C121 1.507 . S
H128 C101 0.930 . S
H129 C102 0.931 . S
H130 C103 0.930 1_655 S
H131 C104 0.930 1_655 S
H132 C123 0.930 . S
H133 C124 0.931 . S
H134 C125 0.930 1_455 S
H135 C126 0.930 1_455 S
Tb136 C146 2.825 . S
Tb136 O147 2.347 1_545 S
Tb136 O150 2.366 . S
Tb136 O155 2.418 . S
Tb136 O156 2.384 . S
Tb136 O159 2.479 . S
Tb136 O160 2.471 . S
Eu137 O148 2.418 . S
Eu137 O149 2.384 . S
Eu137 O152 2.479 . S
Eu137 O153 2.471 . S
Eu137 O154 2.347 1_565 S
Eu137 O157 2.366 . S
Eu137 C167 2.825 . S
C138 O154 1.259 . S
C138 O155 1.265 . S
C139 O156 1.255 . S
C139 O157 1.265 1_545 S
C140 C142 1.380 . S
C140 C143 1.374 . S
C140 C146 1.507 . S
C141 C142 1.384 . S
C141 C145 1.387 . S
C141 H168 0.930 . S
C142 C140 1.380 . S
C142 C141 1.384 . S
C142 H169 0.931 . S
C143 C140 1.374 . S
C143 C144 1.390 . S
C143 H170 0.930 1_545 S
C144 C143 1.390 . S
C144 C145 1.391 . S
C144 H171 0.930 1_545 S
C145 C141 1.387 . S
C145 C144 1.391 . S
C146 Tb136 2.825 . S
C146 C140 1.507 . S
C146 O159 1.238 . S
C146 O160 1.247 . S
O147 Tb136 2.347 1_565 S
O147 C151 1.259 . S
O148 Eu137 2.418 . S
O148 C151 1.265 . S
O149 Eu137 2.384 . S
O149 C158 1.255 . S
O150 Tb136 2.366 . S
O150 C158 1.265 1_545 S
C151 O147 1.259 . S
C151 O148 1.265 . S
O152 Eu137 2.479 . S
O152 C167 1.238 . S
O153 Eu137 2.471 . S
O153 C167 1.247 . S
O154 Eu137 2.347 1_545 S
O154 C138 1.259 . S
O155 Tb136 2.418 . S
O155 C138 1.265 . S
O156 Tb136 2.384 . S
O156 C139 1.255 . S
O157 Eu137 2.366 . S
O157 C139 1.265 1_565 S
C158 O149 1.255 . S
C158 O150 1.265 1_565 S
O159 Tb136 2.479 . S
O159 C146 1.238 . S
O160 Tb136 2.471 . S
O160 C146 1.247 . S
C161 C164 1.380 . S
C161 C165 1.374 . S
C161 C167 1.507 . S
C162 C163 1.387 . S
C162 C166 1.391 . S
C163 C162 1.387 . S
C163 C164 1.384 . S
C163 H172 0.930 . S
C164 C161 1.380 . S
C164 C163 1.384 . S
C164 H173 0.931 . S
C165 C161 1.374 . S
C165 C166 1.390 . S
C165 H174 0.930 1_565 S
C166 C162 1.391 . S
C166 C165 1.390 . S
C166 H175 0.930 1_565 S
C167 Eu137 2.825 . S
C167 O152 1.238 . S
C167 O153 1.247 . S
C167 C161 1.507 . S
H168 C141 0.930 . S
H169 C142 0.931 . S
H170 C143 0.930 1_565 S
H171 C144 0.930 1_565 S
H172 C163 0.930 . S
H173 C164 0.931 . S
H174 C165 0.930 1_545 S
H175 C166 0.930 1_545 S
Tb176 C186 2.825 . S
Tb176 O187 2.347 . S
Tb176 O190 2.366 . S
Tb176 O195 2.418 . S
Tb176 O196 2.384 . S
Tb176 O199 2.479 . S
Tb176 O200 2.471 . S
Eu177 O188 2.418 . S
Eu177 O189 2.384 . S
Eu177 O192 2.479 . S
Eu177 O193 2.471 . S
Eu177 O194 2.347 . S
Eu177 O197 2.366 . S
Eu177 C207 2.825 . S
C178 O194 1.259 . S
C178 O195 1.265 . S
C179 O196 1.255 . S
C179 O197 1.265 . S
C180 C182 1.380 . S
C180 C183 1.374 . S
C180 C186 1.507 . S
C181 C182 1.384 . S
C181 C185 1.387 . S
C181 H208 0.930 . S
C182 C180 1.380 . S
C182 C181 1.384 . S
C182 H209 0.931 . S
C183 C180 1.374 . S
C183 C184 1.390 . S
C183 H210 0.930 . S
C184 C183 1.390 . S
C184 C185 1.391 . S
C184 H211 0.930 . S
C185 C181 1.387 . S
C185 C184 1.391 . S
C186 Tb176 2.825 . S
C186 C180 1.507 . S
C186 O199 1.238 . S
C186 O200 1.247 . S
O187 Tb176 2.347 . S
O187 C191 1.259 . S
O188 Eu177 2.418 . S
O188 C191 1.265 . S
O189 Eu177 2.384 . S
O189 C198 1.255 . S
O190 Tb176 2.366 . S
O190 C198 1.265 . S
C191 O187 1.259 . S
C191 O188 1.265 . S
O192 Eu177 2.479 . S
O192 C207 1.238 . S
O193 Eu177 2.471 . S
O193 C207 1.247 . S
O194 Eu177 2.347 . S
O194 C178 1.259 . S
O195 Tb176 2.418 . S
O195 C178 1.265 . S
O196 Tb176 2.384 . S
O196 C179 1.255 . S
O197 Eu177 2.366 . S
O197 C179 1.265 . S
C198 O189 1.255 . S
C198 O190 1.265 . S
O199 Tb176 2.479 . S
O199 C186 1.238 . S
O200 Tb176 2.471 . S
O200 C186 1.247 . S
C201 C204 1.380 . S
C201 C205 1.374 . S
C201 C207 1.507 . S
C202 C203 1.387 . S
C202 C206 1.391 . S
C203 C202 1.387 . S
C203 C204 1.384 . S
C203 H212 0.930 . S
C204 C201 1.380 . S
C204 C203 1.384 . S
C204 H213 0.931 . S
C205 C201 1.374 . S
C205 C206 1.390 . S
C205 H214 0.930 . S
C206 C202 1.391 . S
C206 C205 1.390 . S
C206 H215 0.930 . S
C207 Eu177 2.825 . S
C207 O192 1.238 . S
C207 O193 1.247 . S
C207 C201 1.507 . S
H208 C181 0.930 . S
H209 C182 0.931 . S
H210 C183 0.930 . S
H211 C184 0.930 . S
H212 C203 0.930 . S
H213 C204 0.931 . S
H214 C205 0.930 . S
H215 C206 0.930 . S
Tb216 C226 2.825 . S
Tb216 O227 2.347 . S
Tb216 O230 2.366 . S
Tb216 O235 2.418 . S
Tb216 O236 2.384 1_655 S
Tb216 O239 2.479 . S
Tb216 O240 2.471 . S
Eu217 O228 2.418 . S
Eu217 O229 2.384 1_455 S
Eu217 O232 2.479 . S
Eu217 O233 2.471 . S
Eu217 O234 2.347 . S
Eu217 O237 2.366 . S
Eu217 C247 2.825 . S
C218 O234 1.259 1_655 S
C218 O235 1.265 . S
C219 O236 1.255 . S
C219 O237 1.265 . S
C220 C222 1.380 . S
C220 C223 1.374 . S
C220 C226 1.507 . S
C221 C222 1.384 . S
C221 C225 1.387 . S
C221 H248 0.930 . S
C222 C220 1.380 . S
C222 C221 1.384 . S
C222 H249 0.931 . S
C223 C220 1.374 . S
C223 C224 1.390 . S
C223 H250 0.930 . S
C224 C223 1.390 . S
C224 C225 1.391 . S
C224 H251 0.930 . S
C225 C221 1.387 . S
C225 C224 1.391 . S
C226 Tb216 2.825 . S
C226 C220 1.507 . S
C226 O239 1.238 . S
C226 O240 1.247 . S
O227 Tb216 2.347 . S
O227 C231 1.259 1_655 S
O228 Eu217 2.418 . S
O228 C231 1.265 . S
O229 Eu217 2.384 1_655 S
O229 C238 1.255 . S
O230 Tb216 2.366 . S
O230 C238 1.265 . S
C231 O227 1.259 1_455 S
C231 O228 1.265 . S
O232 Eu217 2.479 . S
O232 C247 1.238 . S
O233 Eu217 2.471 . S
O233 C247 1.247 . S
O234 Eu217 2.347 . S
O234 C218 1.259 1_455 S
O235 Tb216 2.418 . S
O235 C218 1.265 . S
O236 Tb216 2.384 1_455 S
O236 C219 1.255 . S
O237 Eu217 2.366 . S
O237 C219 1.265 . S
C238 O229 1.255 . S
C238 O230 1.265 . S
O239 Tb216 2.479 . S
O239 C226 1.238 . S
O240 Tb216 2.471 . S
O240 C226 1.247 . S
C241 C244 1.380 . S
C241 C245 1.374 . S
C241 C247 1.507 . S
C242 C243 1.387 . S
C242 C246 1.391 . S
C243 C242 1.387 . S
C243 C244 1.384 . S
C243 H252 0.930 . S
C244 C241 1.380 . S
C244 C243 1.384 . S
C244 H253 0.931 . S
C245 C241 1.374 . S
C245 C246 1.390 . S
C245 H254 0.930 . S
C246 C242 1.391 . S
C246 C245 1.390 . S
C246 H255 0.930 . S
C247 Eu217 2.825 . S
C247 O232 1.238 . S
C247 O233 1.247 . S
C247 C241 1.507 . S
H248 C221 0.930 . S
H249 C222 0.931 . S
H250 C223 0.930 . S
H251 C224 0.930 . S
H252 C243 0.930 . S
H253 C244 0.931 . S
H254 C245 0.930 . S
H255 C246 0.930 . S
H256 C274 0.951 . S
H257 C276 0.951 . S
H258 C278 0.950 . S
H259 C279 0.950 . S
H260 C281 0.950 . S
H261 C284 0.950 . S
H262 C285 0.950 . S
H263 C287 0.950 . S
H264 C288 0.950 . S
H265 C289 0.951 . S
H266 C291 0.951 . S
H267 C293 0.950 . S
H268 C294 0.950 . S
H269 C296 0.950 . S
H270 C299 0.950 . S
H271 C300 0.950 . S
H272 C302 0.950 . S
H273 C303 0.950 . S
C274 H256 0.951 . S
C274 C275 1.366 . S
C274 C276 1.388 . S
C275 C274 1.366 . S
C275 C279 1.384 1_545 S
C276 H257 0.951 . S
C276 C274 1.388 . S
C276 C277 1.366 . S
C277 C276 1.366 . S
C277 C278 1.414 1_545 S
C277 C280 1.499 . S
C278 H258 0.950 . S
C278 C277 1.414 1_565 S
C278 C279 1.374 . S
C279 H259 0.950 . S
C279 C275 1.384 1_565 S
C279 C278 1.374 . S
C280 C277 1.499 . S
C280 C281 1.373 1_545 S
C280 C282 1.389 . S
C281 H260 0.950 . S
C281 C280 1.373 1_565 S
C281 C297 1.377 . S
C282 C280 1.389 . S
C282 C283 1.524 . S
C282 C296 1.377 . S
C283 C282 1.524 . S
C283 C284 1.397 . S
C283 C288 1.363 . S
C284 H261 0.950 . S
C284 C283 1.397 . S
C284 C285 1.334 . S
C285 H262 0.950 . S
C285 C284 1.334 . S
C285 C286 1.287 . S
C286 C285 1.287 . S
C286 C287 1.524 . S
C286 H305 0.913 . S
C287 H263 0.950 . S
C287 C286 1.524 . S
C287 C288 1.415 . S
C288 H264 0.950 . S
C288 C283 1.363 . S
C288 C287 1.415 . S
C289 H265 0.951 . S
C289 C290 1.358 1_565 S
C289 C291 1.388 . S
C290 C289 1.358 1_545 S
C290 C294 1.392 . S
C291 H266 0.951 . S
C291 C289 1.388 . S
C291 C292 1.370 . S
C292 C291 1.370 . S
C292 C293 1.408 1_565 S
C292 C295 1.499 . S
C293 H267 0.950 . S
C293 C292 1.408 1_545 S
C293 C294 1.374 . S
C294 H268 0.950 . S
C294 C290 1.392 . S
C294 C293 1.374 . S
C295 C292 1.499 . S
C295 C296 1.352 1_565 S
C295 C297 1.409 . S
C296 H269 0.950 . S
C296 C282 1.377 . S
C296 C295 1.352 1_545 S
C297 C281 1.377 . S
C297 C295 1.409 . S
C297 C298 1.524 . S
C298 C297 1.524 . S
C298 C299 1.397 . S
C298 C303 1.363 . S
C299 H270 0.950 . S
C299 C298 1.397 . S
C299 C300 1.334 . S
C300 H271 0.950 . S
C300 C299 1.334 . S
C300 C301 1.287 . S
C301 C300 1.287 . S
C301 C302 1.524 . S
C301 H304 0.999 . S
C302 H272 0.950 . S
C302 C301 1.524 . S
C302 C303 1.415 . S
C303 H273 0.950 . S
C303 C298 1.363 . S
C303 C302 1.415 . S
H304 C301 0.999 . S
H305 C286 0.913 . S
H306 C324 0.951 . S
H307 C326 0.951 . S
H308 C328 0.950 . S
H309 C329 0.950 . S
H310 C331 0.950 . S
H311 C334 0.950 . S
H312 C335 0.950 . S
H313 C337 0.950 . S
H314 C338 0.950 . S
H315 C339 0.951 . S
H316 C341 0.951 . S
H317 C343 0.950 . S
H318 C344 0.950 . S
H319 C346 0.950 . S
H320 C349 0.950 . S
H321 C350 0.950 . S
H322 C352 0.950 . S
H323 C353 0.950 . S
C324 H306 0.951 . S
C324 C325 1.366 . S
C324 C326 1.388 . S
C325 C324 1.366 . S
C325 C329 1.385 . S
C326 H307 0.951 . S
C326 C324 1.388 . S
C326 C327 1.366 . S
C327 C326 1.366 . S
C327 C328 1.414 . S
C327 C330 1.499 . S
C328 H308 0.950 . S
C328 C327 1.414 . S
C328 C329 1.374 . S
C329 H309 0.950 . S
C329 C325 1.385 . S
C329 C328 1.374 . S
C330 C327 1.499 . S
C330 C331 1.373 . S
C330 C332 1.389 . S
C331 H310 0.950 . S
C331 C330 1.373 . S
C331 C347 1.377 . S
C332 C330 1.389 . S
C332 C333 1.524 . S
C332 C346 1.377 . S
C333 C332 1.524 . S
C333 C334 1.397 . S
C333 C338 1.363 . S
C334 H311 0.950 . S
C334 C333 1.397 . S
C334 C335 1.334 . S
C335 H312 0.950 . S
C335 C334 1.334 . S
C335 C336 1.287 . S
C336 C335 1.287 . S
C336 C337 1.524 . S
C336 H355 0.913 . S
C337 H313 0.950 . S
C337 C336 1.524 . S
C337 C338 1.415 . S
C338 H314 0.950 . S
C338 C333 1.363 . S
C338 C337 1.415 . S
C339 H315 0.951 . S
C339 C340 1.366 . S
C339 C341 1.388 . S
C340 C339 1.366 . S
C340 C344 1.385 . S
C341 H316 0.951 . S
C341 C339 1.388 . S
C341 C342 1.366 . S
C342 C341 1.366 . S
C342 C343 1.414 . S
C342 C345 1.499 . S
C343 H317 0.950 . S
C343 C342 1.414 . S
C343 C344 1.374 . S
C344 H318 0.950 . S
C344 C340 1.385 . S
C344 C343 1.374 . S
C345 C342 1.499 . S
C345 C346 1.373 . S
C345 C347 1.389 . S
C346 H319 0.950 . S
C346 C332 1.377 . S
C346 C345 1.373 . S
C347 C331 1.377 . S
C347 C345 1.389 . S
C347 C348 1.524 . S
C348 C347 1.524 . S
C348 C349 1.397 . S
C348 C353 1.363 . S
C349 H320 0.950 . S
C349 C348 1.397 . S
C349 C350 1.334 . S
C350 H321 0.950 . S
C350 C349 1.334 . S
C350 C351 1.287 . S
C351 C350 1.287 . S
C351 C352 1.524 . S
C351 H354 0.999 . S
C352 H322 0.950 . S
C352 C351 1.524 . S
C352 C353 1.415 . S
C353 H323 0.950 . S
C353 C348 1.363 . S
C353 C352 1.415 . S
H354 C351 0.999 . S
H355 C336 0.913 . S
H356 C374 0.951 . S
H357 C376 0.951 . S
H358 C378 0.950 . S
H359 C379 0.950 . S
H360 C381 0.950 . S
H361 C384 0.950 . S
H362 C385 0.950 . S
H363 C387 0.950 . S
H364 C388 0.950 . S
H365 C389 0.951 . S
H366 C391 0.951 . S
H367 C393 0.950 . S
H368 C394 0.950 . S
H369 C396 0.950 . S
H370 C399 0.950 . S
H371 C400 0.950 . S
H372 C402 0.950 . S
H373 C403 0.950 . S
C374 H356 0.951 . S
C374 C375 1.366 . S
C374 C376 1.388 . S
C375 C374 1.366 . S
C375 C379 1.385 . S
C376 H357 0.951 . S
C376 C374 1.388 . S
C376 C377 1.366 . S
C377 C376 1.366 . S
C377 C378 1.414 . S
C377 C380 1.499 . S
C378 H358 0.950 . S
C378 C377 1.414 . S
C378 C379 1.374 . S
C379 H359 0.950 . S
C379 C375 1.385 . S
C379 C378 1.374 . S
C380 C377 1.499 . S
C380 C381 1.373 . S
C380 C382 1.389 . S
C381 H360 0.950 . S
C381 C380 1.373 . S
C381 C397 1.377 . S
C382 C380 1.389 . S
C382 C383 1.524 . S
C382 C396 1.377 . S
C383 C382 1.524 . S
C383 C384 1.397 . S
C383 C388 1.363 . S
C384 H361 0.950 . S
C384 C383 1.397 . S
C384 C385 1.334 . S
C385 H362 0.950 . S
C385 C384 1.334 . S
C385 C386 1.287 . S
C386 C385 1.287 . S
C386 C387 1.524 . S
C386 H405 0.913 . S
C387 H363 0.950 . S
C387 C386 1.524 . S
C387 C388 1.415 . S
C388 H364 0.950 . S
C388 C383 1.363 . S
C388 C387 1.415 . S
C389 H365 0.951 . S
C389 C390 1.366 . S
C389 C391 1.388 . S
C390 C389 1.366 . S
C390 C394 1.385 . S
C391 H366 0.951 . S
C391 C389 1.388 . S
C391 C392 1.366 . S
C392 C391 1.366 . S
C392 C393 1.414 . S
C392 C395 1.499 . S
C393 H367 0.950 . S
C393 C392 1.414 . S
C393 C394 1.374 . S
C394 H368 0.950 . S
C394 C390 1.385 . S
C394 C393 1.374 . S
C395 C392 1.499 . S
C395 C396 1.373 . S
C395 C397 1.389 . S
C396 H369 0.950 . S
C396 C382 1.377 . S
C396 C395 1.373 . S
C397 C381 1.377 . S
C397 C395 1.389 . S
C397 C398 1.524 . S
C398 C397 1.524 . S
C398 C399 1.397 . S
C398 C403 1.363 . S
C399 H370 0.950 . S
C399 C398 1.397 . S
C399 C400 1.334 . S
C400 H371 0.950 . S
C400 C399 1.334 . S
C400 C401 1.287 . S
C401 C400 1.287 . S
C401 C402 1.524 . S
C401 H404 0.999 . S
C402 H372 0.950 . S
C402 C401 1.524 . S
C402 C403 1.415 . S
C403 H373 0.950 . S
C403 C398 1.363 . S
C403 C402 1.415 . S
H404 C401 0.999 . S
H405 C386 0.913 . S
H406 C424 0.951 . S
H407 C426 0.951 . S
H408 C428 0.950 . S
H409 C429 0.950 . S
H410 C431 0.950 . S
H411 C434 0.950 . S
H412 C435 0.950 . S
H413 C437 0.950 . S
H414 C438 0.950 . S
H415 C439 0.951 . S
H416 C441 0.951 . S
H417 C443 0.950 . S
H418 C444 0.950 . S
H419 C446 0.950 . S
H420 C449 0.950 . S
H421 C450 0.950 . S
H422 C452 0.950 . S
H423 C453 0.950 . S
C424 H406 0.951 . S
C424 C425 1.363 1_655 S
C424 C426 1.388 . S
C425 C424 1.363 1_455 S
C425 C429 1.387 . S
C426 H407 0.951 . S
C426 C424 1.388 . S
C426 C427 1.380 . S
C427 C426 1.380 . S
C427 C428 1.399 1_655 S
C427 C430 1.498 . S
C428 H408 0.950 . S
C428 C427 1.399 1_455 S
C428 C429 1.374 . S
C429 H409 0.950 . S
C429 C425 1.387 . S
C429 C428 1.374 . S
C430 C427 1.498 . S
C430 C431 1.364 1_655 S
C430 C432 1.399 . S
C431 H410 0.950 . S
C431 C430 1.364 1_455 S
C431 C447 1.377 . S
C432 C430 1.399 . S
C432 C433 1.524 . S
C432 C446 1.377 . S
C433 C432 1.524 . S
C433 C434 1.397 . S
C433 C438 1.363 . S
C434 H411 0.950 . S
C434 C433 1.397 . S
C434 C435 1.334 . S
C435 H412 0.950 . S
C435 C434 1.334 . S
C435 C436 1.287 . S
C436 C435 1.287 . S
C436 C437 1.524 . S
C436 H455 0.913 . S
C437 H413 0.950 . S
C437 C436 1.524 . S
C437 C438 1.415 . S
C438 H414 0.950 . S
C438 C433 1.363 . S
C438 C437 1.415 . S
C439 H415 0.951 . S
C439 C440 1.385 . S
C439 C441 1.388 . S
C440 C439 1.385 . S
C440 C444 1.367 1_455 S
C441 H416 0.951 . S
C441 C439 1.388 . S
C441 C442 1.366 . S
C442 C441 1.366 . S
C442 C443 1.414 1_455 S
C442 C445 1.499 . S
C443 H417 0.950 . S
C443 C442 1.414 1_655 S
C443 C444 1.374 . S
C444 H418 0.950 . S
C444 C440 1.367 1_655 S
C444 C443 1.374 . S
C445 C442 1.499 . S
C445 C446 1.373 1_455 S
C445 C447 1.389 . S
C446 H419 0.950 . S
C446 C432 1.377 . S
C446 C445 1.373 1_655 S
C447 C431 1.377 . S
C447 C445 1.389 . S
C447 C448 1.524 . S
C448 C447 1.524 . S
C448 C449 1.397 . S
C448 C453 1.363 . S
C449 H420 0.950 . S
C449 C448 1.397 . S
C449 C450 1.334 . S
C450 H421 0.950 . S
C450 C449 1.334 . S
C450 C451 1.287 . S
C451 C450 1.287 . S
C451 C452 1.524 . S
C451 H454 0.999 . S
C452 H422 0.950 . S
C452 C451 1.524 . S
C452 C453 1.415 . S
C453 H423 0.950 . S
C453 C448 1.363 . S
C453 C452 1.415 . S
H454 C451 0.999 . S
H455 C436 0.913 . S
H456 C474 0.951 . S
H457 C476 0.951 . S
H458 C478 0.950 . S
H459 C479 0.950 . S
H460 C481 0.950 . S
H461 C484 0.950 . S
H462 C485 0.950 . S
H463 C487 0.950 1_556 S
H464 C488 0.950 1_556 S
H465 C489 0.951 . S
H466 C491 0.951 1_554 S
H467 C493 0.950 . S
H468 C494 0.950 . S
H469 C496 0.950 1_556 S
H470 C499 0.950 . S
H471 C500 0.950 . S
H472 C502 0.950 . S
H473 C503 0.950 . S
C474 H456 0.951 . S
C474 C475 1.366 1_565 S
C474 C476 1.388 . S
C475 C474 1.366 1_545 S
C475 C479 1.384 . S
C476 H457 0.951 . S
C476 C474 1.388 . S
C476 C477 1.386 . S
C477 C476 1.386 . S
C477 C478 1.392 1_565 S
C477 C480 1.499 . S
C478 H458 0.950 . S
C478 C477 1.392 1_545 S
C478 C479 1.374 . S
C479 H459 0.950 . S
C479 C475 1.384 . S
C479 C478 1.374 . S
C480 C477 1.499 . S
C480 C481 1.327 1_565 S
C480 C482 1.434 . S
C481 H460 0.950 . S
C481 C480 1.327 1_545 S
C481 C497 1.377 . S
C482 C480 1.434 . S
C482 C483 1.524 . S
C482 C496 1.377 . S
C483 C482 1.524 . S
C483 C484 1.397 . S
C483 C488 1.363 . S
C484 H461 0.950 . S
C484 C483 1.397 . S
C484 C485 1.334 . S
C485 H462 0.950 . S
C485 C484 1.334 . S
C485 C486 1.287 . S
C486 C485 1.287 . S
C486 C487 1.524 . S
C486 H505 0.913 . S
C487 H463 0.950 1_554 S
C487 C486 1.524 . S
C487 C488 1.415 . S
C488 H464 0.950 1_554 S
C488 C483 1.363 . S
C488 C487 1.415 . S
C489 H465 0.951 . S
C489 C490 1.357 1_545 S
C489 C491 1.388 . S
C490 C489 1.357 1_565 S
C490 C494 1.393 . S
C491 H466 0.951 1_556 S
C491 C489 1.388 . S
C491 C492 1.377 . S
C492 C491 1.377 . S
C492 C493 1.401 1_545 S
C492 C495 1.505 . S
C493 H467 0.950 . S
C493 C492 1.401 1_565 S
C493 C494 1.374 . S
C494 H468 0.950 . S
C494 C490 1.393 . S
C494 C493 1.374 . S
C495 C492 1.505 . S
C495 C496 1.347 1_546 S
C495 C497 1.407 1_556 S
C496 H469 0.950 1_554 S
C496 C482 1.377 . S
C496 C495 1.347 1_564 S
C497 C481 1.377 . S
C497 C495 1.407 1_554 S
C497 C498 1.524 . S
C498 C497 1.524 . S
C498 C499 1.397 1_554 S
C498 C503 1.363 . S
C499 H470 0.950 . S
C499 C498 1.397 1_556 S
C499 C500 1.334 . S
C500 H471 0.950 . S
C500 C499 1.334 . S
C500 C501 1.287 . S
C501 C500 1.287 . S
C501 C502 1.524 1_556 S
C501 H504 0.999 . S
C502 H472 0.950 . S
C502 C501 1.524 1_554 S
C502 C503 1.415 . S
C503 H473 0.950 . S
C503 C498 1.363 . S
C503 C502 1.415 . S
H504 C501 0.999 . S
H505 C486 0.913 . S
H506 C524 0.951 . S
H507 C526 0.951 . S
H508 C528 0.950 . S
H509 C529 0.950 . S
H510 C531 0.950 . S
H511 C534 0.950 . S
H512 C535 0.950 . S
H513 C537 0.950 . S
H514 C538 0.950 . S
H515 C539 0.951 . S
H516 C541 0.951 . S
H517 C543 0.950 . S
H518 C544 0.950 . S
H519 C546 0.950 . S
H520 C549 0.950 . S
H521 C550 0.950 . S
H522 C552 0.950 . S
H523 C553 0.950 . S
C524 H506 0.951 . S
C524 C525 1.366 . S
C524 C526 1.388 . S
C525 C524 1.366 . S
C525 C529 1.385 . S
C526 H507 0.951 . S
C526 C524 1.388 . S
C526 C527 1.366 . S
C527 C526 1.366 . S
C527 C528 1.414 . S
C527 C530 1.499 . S
C528 H508 0.950 . S
C528 C527 1.414 . S
C528 C529 1.374 . S
C529 H509 0.950 . S
C529 C525 1.385 . S
C529 C528 1.374 . S
C530 C527 1.499 . S
C530 C531 1.373 . S
C530 C532 1.389 . S
C531 H510 0.950 . S
C531 C530 1.373 . S
C531 C547 1.377 1_554 S
C532 C530 1.389 . S
C532 C533 1.524 . S
C532 C546 1.377 . S
C533 C532 1.524 . S
C533 C534 1.397 . S
C533 C538 1.363 . S
C534 H511 0.950 . S
C534 C533 1.397 . S
C534 C535 1.334 . S
C535 H512 0.950 . S
C535 C534 1.334 . S
C535 C536 1.287 . S
C536 C535 1.287 . S
C536 C537 1.524 . S
C536 H555 0.913 . S
C537 H513 0.950 . S
C537 C536 1.524 . S
C537 C538 1.415 . S
C538 H514 0.950 . S
C538 C533 1.363 . S
C538 C537 1.415 . S
C539 H515 0.951 . S
C539 C540 1.366 . S
C539 C541 1.388 . S
C540 C539 1.366 . S
C540 C544 1.385 . S
C541 H516 0.951 . S
C541 C539 1.388 . S
C541 C542 1.366 . S
C542 C541 1.366 . S
C542 C543 1.414 . S
C542 C545 1.499 1_556 S
C543 H517 0.950 . S
C543 C542 1.414 . S
C543 C544 1.374 . S
C544 H518 0.950 . S
C544 C540 1.385 . S
C544 C543 1.374 . S
C545 C542 1.499 1_554 S
C545 C546 1.373 . S
C545 C547 1.389 1_554 S
C546 H519 0.950 . S
C546 C532 1.377 . S
C546 C545 1.373 . S
C547 C531 1.377 1_556 S
C547 C545 1.389 1_556 S
C547 C548 1.524 . S
C548 C547 1.524 . S
C548 C549 1.397 . S
C548 C553 1.363 . S
C549 H520 0.950 . S
C549 C548 1.397 . S
C549 C550 1.334 . S
C550 H521 0.950 . S
C550 C549 1.334 . S
C550 C551 1.287 . S
C551 C550 1.287 . S
C551 C552 1.524 . S
C551 H554 0.999 . S
C552 H522 0.950 . S
C552 C551 1.524 . S
C552 C553 1.415 . S
C553 H523 0.950 . S
C553 C548 1.363 . S
C553 C552 1.415 . S
H554 C551 0.999 . S
H555 C536 0.913 . S
H556 C574 0.951 . S
H557 C576 0.951 . S
H558 C578 0.950 . S
H559 C579 0.950 . S
H560 C581 0.950 . S
H561 C584 0.950 . S
H562 C585 0.950 . S
H563 C587 0.950 1_556 S
H564 C588 0.950 1_556 S
H565 C589 0.951 . S
H566 C591 0.951 1_554 S
H567 C593 0.950 . S
H568 C594 0.950 . S
H569 C596 0.950 1_556 S
H570 C599 0.950 . S
H571 C600 0.950 . S
H572 C602 0.950 . S
H573 C603 0.950 . S
C574 H556 0.951 . S
C574 C575 1.366 . S
C574 C576 1.388 . S
C575 C574 1.366 . S
C575 C579 1.385 . S
C576 H557 0.951 . S
C576 C574 1.388 . S
C576 C577 1.366 . S
C577 C576 1.366 . S
C577 C578 1.414 . S
C577 C580 1.499 . S
C578 H558 0.950 . S
C578 C577 1.414 . S
C578 C579 1.374 . S
C579 H559 0.950 . S
C579 C575 1.385 . S
C579 C578 1.374 . S
C580 C577 1.499 . S
C580 C581 1.373 . S
C580 C582 1.389 . S
C581 H560 0.950 . S
C581 C580 1.373 . S
C581 C597 1.377 . S
C582 C580 1.389 . S
C582 C583 1.524 . S
C582 C596 1.377 . S
C583 C582 1.524 . S
C583 C584 1.397 . S
C583 C588 1.363 . S
C584 H561 0.950 . S
C584 C583 1.397 . S
C584 C585 1.334 . S
C585 H562 0.950 . S
C585 C584 1.334 . S
C585 C586 1.287 . S
C586 C585 1.287 . S
C586 C587 1.524 . S
C586 H605 0.913 . S
C587 H563 0.950 1_554 S
C587 C586 1.524 . S
C587 C588 1.415 . S
C588 H564 0.950 1_554 S
C588 C583 1.363 . S
C588 C587 1.415 . S
C589 H565 0.951 . S
C589 C590 1.366 . S
C589 C591 1.388 . S
C590 C589 1.366 . S
C590 C594 1.385 . S
C591 H566 0.951 1_556 S
C591 C589 1.388 . S
C591 C592 1.366 . S
C592 C591 1.366 . S
C592 C593 1.414 . S
C592 C595 1.505 . S
C593 H567 0.950 . S
C593 C592 1.414 . S
C593 C594 1.374 . S
C594 H568 0.950 . S
C594 C590 1.385 . S
C594 C593 1.374 . S
C595 C592 1.505 . S
C595 C596 1.372 1_556 S
C595 C597 1.383 1_556 S
C596 H569 0.950 1_554 S
C596 C582 1.377 . S
C596 C595 1.372 1_554 S
C597 C581 1.377 . S
C597 C595 1.383 1_554 S
C597 C598 1.524 . S
C598 C597 1.524 . S
C598 C599 1.397 1_554 S
C598 C603 1.363 . S
C599 H570 0.950 . S
C599 C598 1.397 1_556 S
C599 C600 1.334 . S
C600 H571 0.950 . S
C600 C599 1.334 . S
C600 C601 1.287 1_556 S
C601 C600 1.287 1_554 S
C601 C602 1.524 . S
C601 H604 0.999 . S
C602 H572 0.950 . S
C602 C601 1.524 . S
C602 C603 1.415 . S
C603 H573 0.950 . S
C603 C598 1.363 . S
C603 C602 1.415 . S
H604 C601 0.999 . S
H605 C586 0.913 . S
H606 C624 0.951 . S
H607 C626 0.951 . S
H608 C628 0.950 . S
H609 C629 0.950 . S
H610 C631 0.950 . S
H611 C634 0.950 . S
H612 C635 0.950 . S
H613 C637 0.950 . S
H614 C638 0.950 . S
H615 C639 0.951 . S
H616 C641 0.951 . S
H617 C643 0.950 . S
H618 C644 0.950 . S
H619 C646 0.950 1_556 S
H620 C649 0.950 . S
H621 C650 0.950 . S
H622 C652 0.950 . S
H623 C653 0.950 . S
C624 H606 0.951 . S
C624 C625 1.362 1_455 S
C624 C626 1.388 . S
C625 C624 1.362 1_655 S
C625 C629 1.388 . S
C626 H607 0.951 . S
C626 C624 1.388 . S
C626 C627 1.375 . S
C627 C626 1.375 . S
C627 C628 1.404 1_455 S
C627 C630 1.498 1_455 S
C628 H608 0.950 . S
C628 C627 1.404 1_655 S
C628 C629 1.374 . S
C629 H609 0.950 . S
C629 C625 1.388 . S
C629 C628 1.374 . S
C630 C627 1.498 1_655 S
C630 C631 1.377 . S
C630 C632 1.386 1_655 S
C631 H610 0.950 . S
C631 C630 1.377 . S
C631 C647 1.377 . S
C632 C630 1.386 1_455 S
C632 C633 1.524 . S
C632 C646 1.377 . S
C633 C632 1.524 . S
C633 C634 1.397 . S
C633 C638 1.363 . S
C634 H611 0.950 . S
C634 C633 1.397 . S
C634 C635 1.334 . S
C635 H612 0.950 . S
C635 C634 1.334 . S
C635 C636 1.287 . S
C636 C635 1.287 . S
C636 C637 1.524 . S
C636 H655 0.913 . S
C637 H613 0.950 . S
C637 C636 1.524 . S
C637 C638 1.415 . S
C638 H614 0.950 . S
C638 C633 1.363 . S
C638 C637 1.415 . S
C639 H615 0.951 . S
C639 C640 1.393 . S
C639 C641 1.388 . S
C640 C639 1.393 . S
C640 C644 1.358 1_655 S
C641 H616 0.951 . S
C641 C639 1.388 . S
C641 C642 1.366 . S
C642 C641 1.366 . S
C642 C643 1.414 1_655 S
C642 C645 1.500 1_556 S
C643 H617 0.950 . S
C643 C642 1.414 1_455 S
C643 C644 1.374 . S
C644 H618 0.950 . S
C644 C640 1.358 1_455 S
C644 C643 1.374 . S
C645 C642 1.500 1_554 S
C645 C646 1.338 1_655 S
C645 C647 1.424 . S
C646 H619 0.950 1_554 S
C646 C632 1.377 . S
C646 C645 1.338 1_455 S
C647 C631 1.377 . S
C647 C645 1.424 . S
C647 C648 1.524 . S
C648 C647 1.524 . S
C648 C649 1.397 . S
C648 C653 1.363 . S
C649 H620 0.950 . S
C649 C648 1.397 . S
C649 C650 1.334 . S
C650 H621 0.950 . S
C650 C649 1.334 . S
C650 C651 1.287 . S
C651 C650 1.287 . S
C651 C652 1.524 . S
C651 H654 0.999 . S
C652 H622 0.950 . S
C652 C651 1.524 . S
C652 C653 1.415 . S
C653 H623 0.950 . S
C653 C648 1.363 . S
C653 C652 1.415 . S
H654 C651 0.999 . S
H655 C636 0.913 . S
H656 C674 0.951 . S
H657 C676 0.951 . S
H658 C678 0.950 . S
H659 C679 0.950 . S
H660 C681 0.950 . S
H661 C684 0.950 . S
H662 C685 0.950 . S
H663 C687 0.950 . S
H664 C688 0.950 . S
H665 C689 0.951 . S
H666 C691 0.951 . S
H667 C693 0.950 1_455 S
H668 C694 0.955 . S
H669 C696 0.950 . S
H670 C699 0.950 . S
H671 C700 0.950 . S
H672 C702 0.950 . S
H673 C703 0.950 . S
C674 H656 0.951 . S
C674 C675 1.400 . S
C674 C676 1.388 . S
C675 C674 1.400 . S
C675 C679 1.344 1_455 S
C676 H657 0.951 . S
C676 C674 1.388 . S
C676 C677 1.366 1_455 S
C677 C676 1.366 1_655 S
C677 C678 1.414 . S
C677 C680 1.499 . S
C678 H658 0.950 . S
C678 C677 1.414 . S
C678 C679 1.374 . S
C679 H659 0.950 . S
C679 C675 1.344 1_655 S
C679 C678 1.374 . S
C680 C677 1.499 . S
C680 C681 1.373 . S
C680 C682 1.389 1_655 S
C681 H660 0.950 . S
C681 C680 1.373 . S
C681 C697 1.377 . S
C682 C680 1.389 1_455 S
C682 C683 1.524 . S
C682 C696 1.377 . S
C683 C682 1.524 . S
C683 C684 1.397 . S
C683 C688 1.363 . S
C684 H661 0.950 . S
C684 C683 1.397 . S
C684 C685 1.334 . S
C685 H662 0.950 . S
C685 C684 1.334 . S
C685 C686 1.287 . S
C686 C685 1.287 . S
C686 C687 1.524 . S
C686 H705 0.913 . S
C687 H663 0.950 . S
C687 C686 1.524 . S
C687 C688 1.415 . S
C688 H664 0.950 . S
C688 C683 1.363 . S
C688 C687 1.415 . S
C689 H665 0.951 . S
C689 C690 1.366 . S
C689 C691 1.388 . S
C690 C689 1.366 . S
C690 C694 1.385 . S
C691 H666 0.951 . S
C691 C689 1.388 . S
C691 C692 1.366 . S
C692 C691 1.366 . S
C692 C693 1.414 . S
C692 C695 1.499 . S
C693 H667 0.950 1_655 S
C693 C692 1.414 . S
C693 C694 1.374 . S
C694 H668 0.955 . S
C694 C690 1.385 . S
C694 C693 1.374 . S
C695 C692 1.499 . S
C695 C696 1.373 1_655 S
C695 C697 1.389 . S
C696 H669 0.950 . S
C696 C682 1.377 . S
C696 C695 1.373 1_455 S
C697 C681 1.377 . S
C697 C695 1.389 . S
C697 C698 1.524 . S
C698 C697 1.524 . S
C698 C699 1.397 . S
C698 C703 1.363 . S
C699 H670 0.950 . S
C699 C698 1.397 . S
C699 C700 1.334 . S
C700 H671 0.950 . S
C700 C699 1.334 . S
C700 C701 1.287 . S
C701 C700 1.287 . S
C701 C702 1.524 . S
C701 H704 0.999 . S
C702 H672 0.950 . S
C702 C701 1.524 . S
C702 C703 1.415 . S
C703 H673 0.950 . S
C703 C698 1.363 . S
C703 C702 1.415 . S
H704 C701 0.999 . S
H705 C686 0.913 . S
H706 C724 0.951 . S
H707 C726 0.951 . S
H708 C728 0.949 . S
H709 C729 0.950 . S
H710 C731 0.950 . S
H711 C734 0.950 . S
H712 C735 0.950 . S
H713 C737 0.950 . S
H714 C738 0.950 . S
H715 C739 0.951 . S
H716 C741 0.951 . S
H717 C743 0.950 . S
H718 C744 0.950 . S
H719 C746 0.925 1_545 S
H720 C749 0.950 . S
H721 C750 0.950 . S
H722 C752 0.950 . S
H723 C753 0.950 . S
C724 H706 0.951 . S
C724 C725 1.356 1_565 S
C724 C726 1.388 . S
C725 C724 1.356 1_545 S
C725 C729 1.390 . S
C726 H707 0.951 . S
C726 C724 1.388 . S
C726 C727 1.366 . S
C727 C726 1.366 . S
C727 C728 1.413 1_565 S
C727 C730 1.499 . S
C728 H708 0.949 . S
C728 C727 1.413 1_545 S
C728 C729 1.374 . S
C729 H709 0.950 . S
C729 C725 1.390 . S
C729 C728 1.374 . S
C730 C727 1.499 . S
C730 C731 1.373 . S
C730 C732 1.389 1_565 S
C731 H710 0.950 . S
C731 C730 1.373 . S
C731 C747 1.377 . S
C732 C730 1.389 1_545 S
C732 C733 1.524 . S
C732 C746 1.366 1_545 S
C733 C732 1.524 . S
C733 C734 1.397 . S
C733 C738 1.363 . S
C734 H711 0.950 . S
C734 C733 1.397 . S
C734 C735 1.334 . S
C735 H712 0.950 . S
C735 C734 1.334 . S
C735 C736 1.287 . S
C736 C735 1.287 . S
C736 C737 1.524 . S
C736 H755 0.913 . S
C737 H713 0.950 . S
C737 C736 1.524 . S
C737 C738 1.415 . S
C738 H714 0.950 . S
C738 C733 1.363 . S
C738 C737 1.415 . S
C739 H715 0.951 . S
C739 C740 1.366 . S
C739 C741 1.388 . S
C740 C739 1.366 . S
C740 C744 1.385 . S
C741 H716 0.951 . S
C741 C739 1.388 . S
C741 C742 1.366 . S
C742 C741 1.366 . S
C742 C743 1.414 . S
C742 C745 1.499 . S
C743 H717 0.950 . S
C743 C742 1.414 . S
C743 C744 1.374 . S
C744 H718 0.950 . S
C744 C740 1.385 . S
C744 C743 1.374 . S
C745 C742 1.499 . S
C745 C746 1.413 . S
C745 C747 1.389 . S
C746 H719 0.925 1_565 S
C746 C732 1.366 1_565 S
C746 C745 1.413 . S
C747 C731 1.377 . S
C747 C745 1.389 . S
C747 C748 1.524 . S
C748 C747 1.524 . S
C748 C749 1.397 . S
C748 C753 1.363 . S
C749 H720 0.950 . S
C749 C748 1.397 . S
C749 C750 1.334 . S
C750 H721 0.950 . S
C750 C749 1.334 . S
C750 C751 1.287 . S
C751 C750 1.287 . S
C751 C752 1.524 . S
C751 H754 0.999 . S
C752 H722 0.950 . S
C752 C751 1.524 . S
C752 C753 1.415 . S
C753 H723 0.950 . S
C753 C748 1.363 . S
C753 C752 1.415 . S
H754 C751 0.999 . S
H755 C736 0.913 . S
H756 C774 0.951 . S
H757 C776 0.951 . S
H758 C778 0.950 . S
H759 C779 0.950 . S
H760 C781 0.950 . S
H761 C784 0.950 . S
H762 C785 0.950 . S
H763 C787 0.950 . S
H764 C788 0.950 . S
H765 C789 0.951 . S
H766 C791 0.951 . S
H767 C793 0.950 . S
H768 C794 0.950 . S
H769 C796 0.950 . S
H770 C799 0.950 . S
H771 C800 0.950 . S
H772 C802 0.950 . S
H773 C803 0.950 . S
C774 H756 0.951 . S
C774 C775 1.366 . S
C774 C776 1.388 . S
C775 C774 1.366 . S
C775 C779 1.385 . S
C776 H757 0.951 . S
C776 C774 1.388 . S
C776 C777 1.366 . S
C777 C776 1.366 . S
C777 C778 1.414 . S
C777 C780 1.499 . S
C778 H758 0.950 . S
C778 C777 1.414 . S
C778 C779 1.374 . S
C779 H759 0.950 . S
C779 C775 1.385 . S
C779 C778 1.374 . S
C780 C777 1.499 . S
C780 C781 1.373 . S
C780 C782 1.389 . S
C781 H760 0.950 . S
C781 C780 1.373 . S
C781 C797 1.377 . S
C782 C780 1.389 . S
C782 C783 1.524 . S
C782 C796 1.377 . S
C783 C782 1.524 . S
C783 C784 1.397 . S
C783 C788 1.363 . S
C784 H761 0.950 . S
C784 C783 1.397 . S
C784 C785 1.334 . S
C785 H762 0.950 . S
C785 C784 1.334 . S
C785 C786 1.287 . S
C786 C785 1.287 . S
C786 C787 1.524 . S
C786 H805 0.913 . S
C787 H763 0.950 . S
C787 C786 1.524 . S
C787 C788 1.415 . S
C788 H764 0.950 . S
C788 C783 1.363 . S
C788 C787 1.415 . S
C789 H765 0.951 . S
C789 C790 1.366 . S
C789 C791 1.388 . S
C790 C789 1.366 . S
C790 C794 1.385 . S
C791 H766 0.951 . S
C791 C789 1.388 . S
C791 C792 1.366 . S
C792 C791 1.366 . S
C792 C793 1.414 . S
C792 C795 1.499 . S
C793 H767 0.950 . S
C793 C792 1.414 . S
C793 C794 1.374 . S
C794 H768 0.950 . S
C794 C790 1.385 . S
C794 C793 1.374 . S
C795 C792 1.499 . S
C795 C796 1.373 . S
C795 C797 1.389 . S
C796 H769 0.950 . S
C796 C782 1.377 . S
C796 C795 1.373 . S
C797 C781 1.377 . S
C797 C795 1.389 . S
C797 C798 1.524 . S
C798 C797 1.524 . S
C798 C799 1.397 . S
C798 C803 1.363 . S
C799 H770 0.950 . S
C799 C798 1.397 . S
C799 C800 1.334 . S
C800 H771 0.950 . S
C800 C799 1.334 . S
C800 C801 1.287 . S
C801 C800 1.287 . S
C801 C802 1.524 . S
C801 H804 0.999 . S
C802 H772 0.950 . S
C802 C801 1.524 . S
C802 C803 1.415 . S
C803 H773 0.950 . S
C803 C798 1.363 . S
C803 C802 1.415 . S
H804 C801 0.999 . S
H805 C786 0.913 . S
H806 C824 0.951 . S
H807 C826 0.951 . S
H808 C828 0.950 . S
H809 C829 0.950 . S
H810 C831 0.950 . S
H811 C834 0.950 . S
H812 C835 0.950 . S
H813 C837 0.950 1_556 S
H814 C838 0.950 . S
H815 C839 0.951 . S
H816 C841 0.951 . S
H817 C843 0.950 . S
H818 C844 0.950 . S
H819 C846 0.950 . S
H820 C849 0.950 . S
H821 C850 0.950 . S
H822 C852 0.950 . S
H823 C853 0.950 . S
C824 H806 0.951 . S
C824 C825 1.366 . S
C824 C826 1.388 . S
C825 C824 1.366 . S
C825 C829 1.385 . S
C826 H807 0.951 . S
C826 C824 1.388 . S
C826 C827 1.366 . S
C827 C826 1.366 . S
C827 C828 1.414 . S
C827 C830 1.499 . S
C828 H808 0.950 . S
C828 C827 1.414 . S
C828 C829 1.374 . S
C829 H809 0.950 . S
C829 C825 1.385 . S
C829 C828 1.374 . S
C830 C827 1.499 . S
C830 C831 1.373 . S
C830 C832 1.389 . S
C831 H810 0.950 . S
C831 C830 1.373 . S
C831 C847 1.377 . S
C832 C830 1.389 . S
C832 C833 1.524 . S
C832 C846 1.377 . S
C833 C832 1.524 . S
C833 C834 1.397 . S
C833 C838 1.363 . S
C834 H811 0.950 . S
C834 C833 1.397 . S
C834 C835 1.334 . S
C835 H812 0.950 . S
C835 C834 1.334 . S
C835 C836 1.287 1_554 S
C836 C835 1.287 1_556 S
C836 C837 1.524 1_556 S
C836 H855 0.913 . S
C837 H813 0.950 1_554 S
C837 C836 1.524 1_554 S
C837 C838 1.415 . S
C838 H814 0.950 . S
C838 C833 1.363 . S
C838 C837 1.415 . S
C839 H815 0.951 . S
C839 C840 1.366 . S
C839 C841 1.388 . S
C840 C839 1.366 . S
C840 C844 1.385 . S
C841 H816 0.951 . S
C841 C839 1.388 . S
C841 C842 1.366 . S
C842 C841 1.366 . S
C842 C843 1.414 . S
C842 C845 1.499 . S
C843 H817 0.950 . S
C843 C842 1.414 . S
C843 C844 1.374 . S
C844 H818 0.950 . S
C844 C840 1.385 . S
C844 C843 1.374 . S
C845 C842 1.499 . S
C845 C846 1.373 . S
C845 C847 1.389 . S
C846 H819 0.950 . S
C846 C832 1.377 . S
C846 C845 1.373 . S
C847 C831 1.377 . S
C847 C845 1.389 . S
C847 C848 1.524 . S
C848 C847 1.524 . S
C848 C849 1.397 . S
C848 C853 1.363 . S
C849 H820 0.950 . S
C849 C848 1.397 . S
C849 C850 1.334 . S
C850 H821 0.950 . S
C850 C849 1.334 . S
C850 C851 1.287 . S
C851 C850 1.287 . S
C851 C852 1.524 . S
C851 H854 0.999 . S
C852 H822 0.950 . S
C852 C851 1.524 . S
C852 C853 1.415 . S
C853 H823 0.950 . S
C853 C848 1.363 . S
C853 C852 1.415 . S
H854 C851 0.999 . S
H855 C836 0.913 . S
H856 C874 0.951 . S
H857 C876 0.951 . S
H858 C878 0.950 . S
H859 C879 0.950 . S
H860 C881 0.950 . S
H861 C884 0.950 . S
H862 C885 0.950 . S
H863 C887 0.950 . S
H864 C888 0.950 . S
H865 C889 0.951 1_655 S
H866 C891 0.900 1_655 S
H867 C893 0.950 . S
H868 C894 0.950 . S
H869 C896 0.950 . S
H870 C899 0.950 1_455 S
H871 C900 0.950 . S
H872 C902 0.950 . S
H873 C903 0.950 . S
C874 H856 0.951 . S
C874 C875 1.366 1_455 S
C874 C876 1.388 . S
C875 C874 1.366 1_655 S
C875 C879 1.385 . S
C876 H857 0.951 . S
C876 C874 1.388 . S
C876 C877 1.366 . S
C877 C876 1.366 . S
C877 C878 1.414 1_455 S
C877 C880 1.499 . S
C878 H858 0.950 . S
C878 C877 1.414 1_655 S
C878 C879 1.374 . S
C879 H859 0.950 . S
C879 C875 1.385 . S
C879 C878 1.374 . S
C880 C877 1.499 . S
C880 C881 1.373 1_455 S
C880 C882 1.389 . S
C881 H860 0.950 . S
C881 C880 1.373 1_655 S
C881 C897 1.377 . S
C882 C880 1.389 . S
C882 C883 1.524 . S
C882 C896 1.377 . S
C883 C882 1.524 . S
C883 C884 1.397 . S
C883 C888 1.363 . S
C884 H861 0.950 . S
C884 C883 1.397 . S
C884 C885 1.334 . S
C885 H862 0.950 . S
C885 C884 1.334 . S
C885 C886 1.287 . S
C886 C885 1.287 . S
C886 C887 1.524 . S
C886 H905 0.913 . S
C887 H863 0.950 . S
C887 C886 1.524 . S
C887 C888 1.415 . S
C888 H864 0.950 . S
C888 C883 1.363 . S
C888 C887 1.415 . S
C889 H865 0.951 1_455 S
C889 C890 1.366 1_554 S
C889 C891 1.397 . S
C890 C889 1.366 1_556 S
C890 C894 1.385 . S
C891 H866 0.900 1_455 S
C891 C889 1.397 . S
C891 C892 1.408 . S
C892 C891 1.408 . S
C892 C893 1.414 . S
C892 C895 1.499 . S
C893 H867 0.950 . S
C893 C892 1.414 . S
C893 C894 1.374 1_554 S
C894 H868 0.950 . S
C894 C890 1.385 . S
C894 C893 1.374 1_556 S
C895 C892 1.499 . S
C895 C896 1.373 . S
C895 C897 1.389 1_455 S
C896 H869 0.950 . S
C896 C882 1.377 . S
C896 C895 1.373 . S
C897 C881 1.377 . S
C897 C895 1.389 1_655 S
C897 C898 1.524 . S
C898 C897 1.524 . S
C898 C899 1.397 1_554 S
C898 C903 1.363 . S
C899 H870 0.950 1_655 S
C899 C898 1.397 1_556 S
C899 C900 1.334 . S
C900 H871 0.950 . S
C900 C899 1.334 . S
C900 C901 1.287 . S
C901 C900 1.287 . S
C901 C902 1.524 . S
C901 H904 0.999 . S
C902 H872 0.950 . S
C902 C901 1.524 . S
C902 C903 1.415 1_556 S
C903 H873 0.950 . S
C903 C898 1.363 . S
C903 C902 1.415 1_554 S
H904 C901 0.999 . S
H905 C886 0.913 . S
H906 C924 0.951 . S
H907 C926 0.951 . S
H908 C928 0.950 . S
H909 C929 0.950 . S
H910 C931 0.938 1_565 S
H911 C934 0.950 . S
H912 C935 0.950 . S
H913 C937 0.950 . S
H914 C938 0.950 . S
H915 C939 0.951 1_565 S
H916 C941 0.949 1_566 S
H917 C943 0.950 . S
H918 C944 0.950 . S
H919 C946 0.950 . S
H920 C949 0.950 . S
H921 C950 0.950 . S
H922 C952 0.950 . S
H923 C953 0.950 . S
C924 H906 0.951 . S
C924 C925 1.326 1_545 S
C924 C926 1.388 . S
C925 C924 1.326 1_565 S
C925 C929 1.419 . S
C926 H907 0.951 . S
C926 C924 1.388 . S
C926 C927 1.366 . S
C927 C926 1.366 . S
C927 C928 1.414 1_545 S
C927 C930 1.499 . S
C928 H908 0.950 . S
C928 C927 1.414 1_565 S
C928 C929 1.374 . S
C929 H909 0.950 . S
C929 C925 1.419 . S
C929 C928 1.374 . S
C930 C927 1.499 . S
C930 C931 1.373 . S
C930 C932 1.389 . S
C931 H910 0.938 1_545 S
C931 C930 1.373 . S
C931 C947 1.377 . S
C932 C930 1.389 . S
C932 C933 1.524 . S
C932 C946 1.377 . S
C933 C932 1.524 . S
C933 C934 1.397 1_545 S
C933 C938 1.363 . S
C934 H911 0.950 . S
C934 C933 1.397 1_565 S
C934 C935 1.334 . S
C935 H912 0.950 . S
C935 C934 1.334 . S
C935 C936 1.287 1_565 S
C936 C935 1.287 1_545 S
C936 C937 1.524 . S
C936 H955 0.913 . S
C937 H913 0.950 . S
C937 C936 1.524 . S
C937 C938 1.415 . S
C938 H914 0.950 . S
C938 C933 1.363 . S
C938 C937 1.415 . S
C939 H915 0.951 1_545 S
C939 C940 1.366 . S
C939 C941 1.388 1_556 S
C940 C939 1.366 . S
C940 C944 1.385 1_556 S
C941 H916 0.949 1_544 S
C941 C939 1.388 1_554 S
C941 C942 1.366 . S
C942 C941 1.366 . S
C942 C943 1.414 . S
C942 C945 1.499 . S
C943 H917 0.950 . S
C943 C942 1.414 . S
C943 C944 1.374 . S
C944 H918 0.950 . S
C944 C940 1.385 1_554 S
C944 C943 1.374 . S
C945 C942 1.499 . S
C945 C946 1.373 . S
C945 C947 1.389 . S
C946 H919 0.950 . S
C946 C932 1.377 . S
C946 C945 1.373 . S
C947 C931 1.377 . S
C947 C945 1.389 . S
C947 C948 1.524 1_554 S
C948 C947 1.524 1_556 S
C948 C949 1.397 . S
C948 C953 1.363 1_545 S
C949 H920 0.950 . S
C949 C948 1.397 . S
C949 C950 1.334 . S
C950 H921 0.950 . S
C950 C949 1.334 . S
C950 C951 1.287 . S
C951 C950 1.287 . S
C951 C952 1.524 1_545 S
C951 H954 0.999 . S
C952 H922 0.950 . S
C952 C951 1.524 1_565 S
C952 C953 1.415 . S
C953 H923 0.950 . S
C953 C948 1.363 1_565 S
C953 C952 1.415 . S
H954 C951 0.999 . S
H955 C936 0.913 . S
H956 C974 0.951 . S
H957 C976 0.951 . S
H958 C978 0.950 . S
H959 C979 0.950 . S
H960 C981 0.950 . S
H961 C984 0.950 . S
H962 C985 0.950 . S
H963 C987 0.950 . S
H964 C988 0.950 . S
H965 C989 0.951 . S
H966 C991 0.951 . S
H967 C993 0.950 . S
H968 C994 0.950 . S
H969 C996 0.950 . S
H970 C999 0.950 . S
H971 C1000 0.950 . S
H972 C1002 0.950 . S
H973 C1003 0.950 . S
C974 H956 0.951 . S
C974 C975 1.366 . S
C974 C976 1.388 . S
C975 C974 1.366 . S
C975 C979 1.385 . S
C976 H957 0.951 . S
C976 C974 1.388 . S
C976 C977 1.366 . S
C977 C976 1.366 . S
C977 C978 1.414 . S
C977 C980 1.499 . S
C978 H958 0.950 . S
C978 C977 1.414 . S
C978 C979 1.374 . S
C979 H959 0.950 . S
C979 C975 1.385 . S
C979 C978 1.374 . S
C980 C977 1.499 . S
C980 C981 1.373 . S
C980 C982 1.389 . S
C981 H960 0.950 . S
C981 C980 1.373 . S
C981 C997 1.377 . S
C982 C980 1.389 . S
C982 C983 1.524 . S
C982 C996 1.377 . S
C983 C982 1.524 . S
C983 C984 1.397 . S
C983 C988 1.363 . S
C984 H961 0.950 . S
C984 C983 1.397 . S
C984 C985 1.334 . S
C985 H962 0.950 . S
C985 C984 1.334 . S
C985 C986 1.287 . S
C986 C985 1.287 . S
C986 C987 1.524 . S
C986 H1005 0.913 . S
C987 H963 0.950 . S
C987 C986 1.524 . S
C987 C988 1.415 . S
C988 H964 0.950 . S
C988 C983 1.363 . S
C988 C987 1.415 . S
C989 H965 0.951 . S
C989 C990 1.366 . S
C989 C991 1.388 1_556 S
C990 C989 1.366 . S
C990 C994 1.385 1_556 S
C991 H966 0.951 . S
C991 C989 1.388 1_554 S
C991 C992 1.366 . S
C992 C991 1.366 . S
C992 C993 1.414 . S
C992 C995 1.499 . S
C993 H967 0.950 . S
C993 C992 1.414 . S
C993 C994 1.374 . S
C994 H968 0.950 . S
C994 C990 1.385 1_554 S
C994 C993 1.374 . S
C995 C992 1.499 . S
C995 C996 1.373 . S
C995 C997 1.389 . S
C996 H969 0.950 . S
C996 C982 1.377 . S
C996 C995 1.373 . S
C997 C981 1.377 . S
C997 C995 1.389 . S
C997 C998 1.524 . S
C998 C997 1.524 . S
C998 C999 1.397 . S
C998 C1003 1.363 . S
C999 H970 0.950 . S
C999 C998 1.397 . S
C999 C1000 1.334 . S
C1000 H971 0.950 . S
C1000 C999 1.334 . S
C1000 C1001 1.287 . S
C1001 C1000 1.287 . S
C1001 C1002 1.524 . S
C1001 H1004 0.999 . S
C1002 H972 0.950 . S
C1002 C1001 1.524 . S
C1002 C1003 1.415 . S
C1003 H973 0.950 . S
C1003 C998 1.363 . S
C1003 C1002 1.415 . S
H1004 C1001 0.999 . S
H1005 C986 0.913 . S
H1006 C1024 0.951 . S
H1007 C1026 0.951 . S
H1008 C1028 0.950 . S
H1009 C1029 0.950 . S
H1010 C1031 0.950 . S
H1011 C1034 0.950 . S
H1012 C1035 0.950 . S
H1013 C1037 0.950 . S
H1014 C1038 0.950 . S
H1015 C1039 0.951 . S
H1016 C1041 0.951 . S
H1017 C1043 0.950 . S
H1018 C1044 0.950 . S
H1019 C1046 0.950 . S
H1020 C1049 0.950 . S
H1021 C1050 0.950 . S
H1022 C1052 0.950 . S
H1023 C1053 0.950 . S
C1024 H1006 0.951 . S
C1024 C1025 1.366 . S
C1024 C1026 1.388 . S
C1025 C1024 1.366 . S
C1025 C1029 1.385 . S
C1026 H1007 0.951 . S
C1026 C1024 1.388 . S
C1026 C1027 1.366 . S
C1027 C1026 1.366 . S
C1027 C1028 1.414 . S
C1027 C1030 1.499 . S
C1028 H1008 0.950 . S
C1028 C1027 1.414 . S
C1028 C1029 1.374 . S
C1029 H1009 0.950 . S
C1029 C1025 1.385 . S
C1029 C1028 1.374 . S
C1030 C1027 1.499 . S
C1030 C1031 1.373 . S
C1030 C1032 1.389 . S
C1031 H1010 0.950 . S
C1031 C1030 1.373 . S
C1031 C1047 1.377 . S
C1032 C1030 1.389 . S
C1032 C1033 1.524 . S
C1032 C1046 1.377 . S
C1033 C1032 1.524 . S
C1033 C1034 1.397 . S
C1033 C1038 1.363 . S
C1034 H1011 0.950 . S
C1034 C1033 1.397 . S
C1034 C1035 1.334 . S
C1035 H1012 0.950 . S
C1035 C1034 1.334 . S
C1035 C1036 1.287 . S
C1036 C1035 1.287 . S
C1036 C1037 1.524 . S
C1036 H1055 0.913 . S
C1037 H1013 0.950 . S
C1037 C1036 1.524 . S
C1037 C1038 1.415 . S
C1038 H1014 0.950 . S
C1038 C1033 1.363 . S
C1038 C1037 1.415 . S
C1039 H1015 0.951 . S
C1039 C1040 1.366 . S
C1039 C1041 1.388 . S
C1040 C1039 1.366 . S
C1040 C1044 1.385 1_556 S
C1041 H1016 0.951 . S
C1041 C1039 1.388 . S
C1041 C1042 1.366 1_556 S
C1042 C1041 1.366 1_554 S
C1042 C1043 1.414 . S
C1042 C1045 1.499 . S
C1043 H1017 0.950 . S
C1043 C1042 1.414 . S
C1043 C1044 1.374 . S
C1044 H1018 0.950 . S
C1044 C1040 1.385 1_554 S
C1044 C1043 1.374 . S
C1045 C1042 1.499 . S
C1045 C1046 1.373 . S
C1045 C1047 1.389 . S
C1046 H1019 0.950 . S
C1046 C1032 1.377 . S
C1046 C1045 1.373 . S
C1047 C1031 1.377 . S
C1047 C1045 1.389 . S
C1047 C1048 1.524 . S
C1048 C1047 1.524 . S
C1048 C1049 1.397 . S
C1048 C1053 1.363 1_554 S
C1049 H1020 0.950 . S
C1049 C1048 1.397 . S
C1049 C1050 1.334 . S
C1050 H1021 0.950 . S
C1050 C1049 1.334 . S
C1050 C1051 1.287 1_554 S
C1051 C1050 1.287 1_556 S
C1051 C1052 1.524 . S
C1051 H1054 0.999 . S
C1052 H1022 0.950 . S
C1052 C1051 1.524 . S
C1052 C1053 1.415 . S
C1053 H1023 0.950 . S
C1053 C1048 1.363 1_556 S
C1053 C1052 1.415 . S
H1054 C1051 0.999 . S
H1055 C1036 0.913 . S
H1056 C1074 0.951 . S
H1057 C1076 0.951 . S
H1058 C1078 0.950 . S
H1059 C1079 0.950 . S
H1060 C1081 0.950 . S
H1061 C1084 0.950 1_455 S
H1062 C1085 0.950 . S
H1063 C1087 0.950 . S
H1064 C1088 0.950 . S
H1065 C1089 0.951 . S
H1066 C1091 0.951 . S
H1067 C1093 0.950 . S
H1068 C1094 0.950 . S
H1069 C1096 0.950 . S
H1070 C1099 1.007 . S
H1071 C1100 0.950 . S
H1072 C1102 0.950 . S
H1073 C1103 0.950 . S
C1074 H1056 0.951 . S
C1074 C1075 1.325 1_655 S
C1074 C1076 1.388 . S
C1075 C1074 1.325 1_455 S
C1075 C1079 1.428 . S
C1076 H1057 0.951 . S
C1076 C1074 1.388 . S
C1076 C1077 1.366 1_655 S
C1077 C1076 1.366 1_455 S
C1077 C1078 1.414 . S
C1077 C1080 1.499 . S
C1078 H1058 0.950 . S
C1078 C1077 1.414 . S
C1078 C1079 1.374 . S
C1079 H1059 0.950 . S
C1079 C1075 1.428 . S
C1079 C1078 1.374 . S
C1080 C1077 1.499 . S
C1080 C1081 1.373 . S
C1080 C1082 1.389 1_455 S
C1081 H1060 0.950 . S
C1081 C1080 1.373 . S
C1081 C1097 1.377 . S
C1082 C1080 1.389 1_655 S
C1082 C1083 1.524 . S
C1082 C1096 1.377 . S
C1083 C1082 1.524 . S
C1083 C1084 1.397 1_556 S
C1083 C1088 1.363 . S
C1084 H1061 0.950 1_655 S
C1084 C1083 1.397 1_554 S
C1084 C1085 1.334 . S
C1085 H1062 0.950 . S
C1085 C1084 1.334 . S
C1085 C1086 1.287 . S
C1086 C1085 1.287 . S
C1086 C1087 1.524 . S
C1086 H1105 0.913 . S
C1087 H1063 0.950 . S
C1087 C1086 1.524 . S
C1087 C1088 1.415 1_554 S
C1088 H1064 0.950 . S
C1088 C1083 1.363 . S
C1088 C1087 1.415 1_556 S
C1089 H1065 0.951 . S
C1089 C1090 1.366 . S
C1089 C1091 1.388 . S
C1090 C1089 1.366 . S
C1090 C1094 1.385 1_455 S
C1091 H1066 0.951 . S
C1091 C1089 1.388 . S
C1091 C1092 1.366 . S
C1092 C1091 1.366 . S
C1092 C1093 1.414 1_455 S
C1092 C1095 1.499 . S
C1093 H1067 0.950 . S
C1093 C1092 1.414 1_655 S
C1093 C1094 1.374 . S
C1094 H1068 0.950 . S
C1094 C1090 1.385 1_655 S
C1094 C1093 1.374 . S
C1095 C1092 1.499 . S
C1095 C1096 1.373 1_455 S
C1095 C1097 1.389 . S
C1096 H1069 0.950 . S
C1096 C1082 1.377 . S
C1096 C1095 1.373 1_655 S
C1097 C1081 1.377 . S
C1097 C1095 1.389 . S
C1097 C1098 1.524 . S
C1098 C1097 1.524 . S
C1098 C1099 1.397 . S
C1098 C1103 1.363 . S
C1099 H1070 1.007 . S
C1099 C1098 1.397 . S
C1099 C1100 1.334 . S
C1100 H1071 0.950 . S
C1100 C1099 1.334 . S
C1100 C1101 1.287 . S
C1101 C1100 1.287 . S
C1101 C1102 1.524 . S
C1101 H1104 0.999 . S
C1102 H1072 0.950 . S
C1102 C1101 1.524 . S
C1102 C1103 1.415 . S
C1103 H1073 0.950 . S
C1103 C1098 1.363 . S
C1103 C1102 1.415 . S
H1104 C1101 0.999 . S
H1105 C1086 0.913 . S
H1106 C1124 0.951 . S
H1107 C1126 0.951 . S
H1108 C1128 0.950 . S
H1109 C1129 0.950 . S
H1110 C1131 0.950 . S
H1111 C1134 0.950 1_556 S
H1112 C1135 0.950 . S
H1113 C1137 0.950 . S
H1114 C1138 0.950 . S
H1115 C1139 0.951 . S
H1116 C1141 0.951 . S
H1117 C1143 0.950 . S
H1118 C1144 0.950 . S
H1119 C1146 0.950 . S
H1120 C1149 0.950 . S
H1121 C1150 0.950 . S
H1122 C1152 0.950 . S
H1123 C1153 0.950 . S
C1124 H1106 0.951 . S
C1124 C1125 1.336 1_565 S
C1124 C1126 1.388 . S
C1125 C1124 1.336 1_545 S
C1125 C1129 1.418 . S
C1126 H1107 0.951 . S
C1126 C1124 1.388 . S
C1126 C1127 1.366 1_565 S
C1127 C1126 1.366 1_545 S
C1127 C1128 1.414 . S
C1127 C1130 1.499 . S
C1128 H1108 0.950 . S
C1128 C1127 1.414 . S
C1128 C1129 1.374 . S
C1129 H1109 0.950 . S
C1129 C1125 1.418 . S
C1129 C1128 1.374 . S
C1130 C1127 1.499 . S
C1130 C1131 1.373 . S
C1130 C1132 1.389 . S
C1131 H1110 0.950 . S
C1131 C1130 1.373 . S
C1131 C1147 1.377 . S
C1132 C1130 1.389 . S
C1132 C1133 1.524 1_556 S
C1132 C1146 1.377 . S
C1133 C1132 1.524 1_554 S
C1133 C1134 1.397 . S
C1133 C1138 1.363 1_545 S
C1134 H1111 0.950 1_554 S
C1134 C1133 1.397 . S
C1134 C1135 1.334 . S
C1135 H1112 0.950 . S
C1135 C1134 1.334 . S
C1135 C1136 1.287 . S
C1136 C1135 1.287 . S
C1136 C1137 1.524 1_545 S
C1136 H1155 0.913 . S
C1137 H1113 0.950 . S
C1137 C1136 1.524 1_565 S
C1137 C1138 1.415 . S
C1138 H1114 0.950 . S
C1138 C1133 1.363 1_565 S
C1138 C1137 1.415 . S
C1139 H1115 0.951 . S
C1139 C1140 1.366 . S
C1139 C1141 1.388 . S
C1140 C1139 1.366 . S
C1140 C1144 1.385 1_545 S
C1141 H1116 0.951 . S
C1141 C1139 1.388 . S
C1141 C1142 1.366 . S
C1142 C1141 1.366 . S
C1142 C1143 1.414 1_545 S
C1142 C1145 1.499 . S
C1143 H1117 0.950 . S
C1143 C1142 1.414 1_565 S
C1143 C1144 1.374 . S
C1144 H1118 0.950 . S
C1144 C1140 1.385 1_565 S
C1144 C1143 1.374 . S
C1145 C1142 1.499 . S
C1145 C1146 1.373 . S
C1145 C1147 1.389 . S
C1146 H1119 0.950 . S
C1146 C1132 1.377 . S
C1146 C1145 1.373 . S
C1147 C1131 1.377 . S
C1147 C1145 1.389 . S
C1147 C1148 1.524 . S
C1148 C1147 1.524 . S
C1148 C1149 1.397 1_545 S
C1148 C1153 1.363 . S
C1149 H1120 0.950 . S
C1149 C1148 1.397 1_565 S
C1149 C1150 1.334 . S
C1150 H1121 0.950 . S
C1150 C1149 1.334 . S
C1150 C1151 1.287 . S
C1151 C1150 1.287 . S
C1151 C1152 1.524 1_565 S
C1151 H1154 0.999 . S
C1152 H1122 0.950 . S
C1152 C1151 1.524 1_545 S
C1152 C1153 1.415 . S
C1153 H1123 0.950 . S
C1153 C1148 1.363 . S
C1153 C1152 1.415 . S
H1154 C1151 0.999 . S
H1155 C1136 0.913 . S
H1156 C1174 0.951 . S
H1157 C1176 0.951 . S
H1158 C1178 0.950 . S
H1159 C1179 0.950 . S
H1160 C1181 0.950 . S
H1161 C1184 0.950 . S
H1162 C1185 0.950 . S
H1163 C1187 0.950 . S
H1164 C1188 0.950 . S
H1165 C1189 0.951 . S
H1166 C1191 0.951 . S
H1167 C1193 0.950 . S
H1168 C1194 0.950 . S
H1169 C1196 0.950 . S
H1170 C1199 0.950 . S
H1171 C1200 0.950 . S
H1172 C1202 0.950 . S
H1173 C1203 0.950 . S
C1174 H1156 0.951 . S
C1174 C1175 1.366 . S
C1174 C1176 1.388 . S
C1175 C1174 1.366 . S
C1175 C1179 1.385 . S
C1176 H1157 0.951 . S
C1176 C1174 1.388 . S
C1176 C1177 1.366 . S
C1177 C1176 1.366 . S
C1177 C1178 1.414 . S
C1177 C1180 1.499 . S
C1178 H1158 0.950 . S
C1178 C1177 1.414 . S
C1178 C1179 1.374 . S
C1179 H1159 0.950 . S
C1179 C1175 1.385 . S
C1179 C1178 1.374 . S
C1180 C1177 1.499 . S
C1180 C1181 1.373 . S
C1180 C1182 1.389 . S
C1181 H1160 0.950 . S
C1181 C1180 1.373 . S
C1181 C1197 1.377 . S
C1182 C1180 1.389 . S
C1182 C1183 1.524 1_556 S
C1182 C1196 1.377 . S
C1183 C1182 1.524 1_554 S
C1183 C1184 1.397 . S
C1183 C1188 1.363 . S
C1184 H1161 0.950 . S
C1184 C1183 1.397 . S
C1184 C1185 1.334 . S
C1185 H1162 0.950 . S
C1185 C1184 1.334 . S
C1185 C1186 1.287 . S
C1186 C1185 1.287 . S
C1186 C1187 1.524 . S
C1186 H1205 0.913 . S
C1187 H1163 0.950 . S
C1187 C1186 1.524 . S
C1187 C1188 1.415 . S
C1188 H1164 0.950 . S
C1188 C1183 1.363 . S
C1188 C1187 1.415 . S
C1189 H1165 0.951 . S
C1189 C1190 1.366 . S
C1189 C1191 1.388 . S
C1190 C1189 1.366 . S
C1190 C1194 1.385 . S
C1191 H1166 0.951 . S
C1191 C1189 1.388 . S
C1191 C1192 1.366 . S
C1192 C1191 1.366 . S
C1192 C1193 1.414 . S
C1192 C1195 1.499 . S
C1193 H1167 0.950 . S
C1193 C1192 1.414 . S
C1193 C1194 1.374 . S
C1194 H1168 0.950 . S
C1194 C1190 1.385 . S
C1194 C1193 1.374 . S
C1195 C1192 1.499 . S
C1195 C1196 1.373 . S
C1195 C1197 1.389 . S
C1196 H1169 0.950 . S
C1196 C1182 1.377 . S
C1196 C1195 1.373 . S
C1197 C1181 1.377 . S
C1197 C1195 1.389 . S
C1197 C1198 1.524 . S
C1198 C1197 1.524 . S
C1198 C1199 1.397 . S
C1198 C1203 1.363 . S
C1199 H1170 0.950 . S
C1199 C1198 1.397 . S
C1199 C1200 1.334 . S
C1200 H1171 0.950 . S
C1200 C1199 1.334 . S
C1200 C1201 1.287 . S
C1201 C1200 1.287 . S
C1201 C1202 1.524 . S
C1201 H1204 0.999 . S
C1202 H1172 0.950 . S
C1202 C1201 1.524 . S
C1202 C1203 1.415 . S
C1203 H1173 0.950 . S
C1203 C1198 1.363 . S
C1203 C1202 1.415 . S
H1204 C1201 0.999 . S
H1205 C1186 0.913 . S
H1206 C1224 0.951 . S
H1207 C1226 0.951 . S
H1208 C1228 0.950 . S
H1209 C1229 0.950 1_554 S
H1210 C1231 0.950 . S
H1211 C1234 0.950 . S
H1212 C1235 0.950 . S
H1213 C1237 0.950 . S
H1214 C1238 0.950 . S
H1215 C1239 0.951 . S
H1216 C1241 0.951 . S
H1217 C1243 0.950 . S
H1218 C1244 0.950 . S
H1219 C1246 0.950 . S
H1220 C1249 0.950 . S
H1221 C1250 0.950 . S
H1222 C1252 0.950 . S
H1223 C1253 0.950 . S
C1224 H1206 0.951 . S
C1224 C1225 1.366 . S
C1224 C1226 1.388 . S
C1225 C1224 1.366 . S
C1225 C1229 1.385 . S
C1226 H1207 0.951 . S
C1226 C1224 1.388 . S
C1226 C1227 1.366 . S
C1227 C1226 1.366 . S
C1227 C1228 1.414 . S
C1227 C1230 1.499 . S
C1228 H1208 0.950 . S
C1228 C1227 1.414 . S
C1228 C1229 1.374 . S
C1229 H1209 0.950 1_556 S
C1229 C1225 1.385 . S
C1229 C1228 1.374 . S
C1230 C1227 1.499 . S
C1230 C1231 1.373 . S
C1230 C1232 1.389 . S
C1231 H1210 0.950 . S
C1231 C1230 1.373 . S
C1231 C1247 1.377 . S
C1232 C1230 1.389 . S
C1232 C1233 1.524 . S
C1232 C1246 1.377 . S
C1233 C1232 1.524 . S
C1233 C1234 1.397 . S
C1233 C1238 1.363 . S
C1234 H1211 0.950 . S
C1234 C1233 1.397 . S
C1234 C1235 1.334 . S
C1235 H1212 0.950 . S
C1235 C1234 1.334 . S
C1235 C1236 1.287 . S
C1236 C1235 1.287 . S
C1236 C1237 1.524 . S
C1236 H1255 0.913 . S
C1237 H1213 0.950 . S
C1237 C1236 1.524 . S
C1237 C1238 1.415 . S
C1238 H1214 0.950 . S
C1238 C1233 1.363 . S
C1238 C1237 1.415 . S
C1239 H1215 0.951 . S
C1239 C1240 1.366 . S
C1239 C1241 1.388 . S
C1240 C1239 1.366 . S
C1240 C1244 1.385 . S
C1241 H1216 0.951 . S
C1241 C1239 1.388 . S
C1241 C1242 1.366 . S
C1242 C1241 1.366 . S
C1242 C1243 1.414 . S
C1242 C1245 1.499 . S
C1243 H1217 0.950 . S
C1243 C1242 1.414 . S
C1243 C1244 1.374 . S
C1244 H1218 0.950 . S
C1244 C1240 1.385 . S
C1244 C1243 1.374 . S
C1245 C1242 1.499 . S
C1245 C1246 1.373 . S
C1245 C1247 1.389 . S
C1246 H1219 0.950 . S
C1246 C1232 1.377 . S
C1246 C1245 1.373 . S
C1247 C1231 1.377 . S
C1247 C1245 1.389 . S
C1247 C1248 1.524 . S
C1248 C1247 1.524 . S
C1248 C1249 1.397 . S
C1248 C1253 1.363 1_556 S
C1249 H1220 0.950 . S
C1249 C1248 1.397 . S
C1249 C1250 1.334 . S
C1250 H1221 0.950 . S
C1250 C1249 1.334 . S
C1250 C1251 1.287 1_556 S
C1251 C1250 1.287 1_554 S
C1251 C1252 1.524 . S
C1251 H1254 0.999 . S
C1252 H1222 0.950 . S
C1252 C1251 1.524 . S
C1252 C1253 1.415 . S
C1253 H1223 0.950 . S
C1253 C1248 1.363 1_554 S
C1253 C1252 1.415 . S
H1254 C1251 0.999 . S
H1255 C1236 0.913 . S
H1256 C1274 0.951 . S
H1257 C1276 0.951 . S
H1258 C1278 0.950 . S
H1259 C1279 0.950 . S
H1260 C1281 0.950 . S
H1261 C1284 0.950 . S
H1262 C1285 0.950 . S
H1263 C1287 0.950 . S
H1264 C1288 0.950 . S
H1265 C1289 0.951 . S
H1266 C1291 0.951 . S
H1267 C1293 0.950 . S
H1268 C1294 0.950 . S
H1269 C1296 0.950 . S
H1270 C1299 0.950 . S
H1271 C1300 0.950 . S
H1272 C1302 0.950 . S
H1273 C1303 0.950 . S
C1274 H1256 0.951 . S
C1274 C1275 1.338 1_455 S
C1274 C1276 1.388 . S
C1275 C1274 1.338 1_655 S
C1275 C1279 1.415 . S
C1276 H1257 0.951 . S
C1276 C1274 1.388 . S
C1276 C1277 1.366 1_455 S
C1277 C1276 1.366 1_655 S
C1277 C1278 1.414 . S
C1277 C1280 1.499 . S
C1278 H1258 0.950 . S
C1278 C1277 1.414 . S
C1278 C1279 1.374 . S
C1279 H1259 0.950 . S
C1279 C1275 1.415 . S
C1279 C1278 1.374 . S
C1280 C1277 1.499 . S
C1280 C1281 1.373 . S
C1280 C1282 1.389 1_655 S
C1281 H1260 0.950 . S
C1281 C1280 1.373 . S
C1281 C1297 1.377 . S
C1282 C1280 1.389 1_455 S
C1282 C1283 1.524 . S
C1282 C1296 1.377 . S
C1283 C1282 1.524 . S
C1283 C1284 1.397 . S
C1283 C1288 1.363 . S
C1284 H1261 0.950 . S
C1284 C1283 1.397 . S
C1284 C1285 1.334 . S
C1285 H1262 0.950 . S
C1285 C1284 1.334 . S
C1285 C1286 1.287 . S
C1286 C1285 1.287 . S
C1286 C1287 1.524 . S
C1286 H1305 0.913 . S
C1287 H1263 0.950 . S
C1287 C1286 1.524 . S
C1287 C1288 1.415 . S
C1288 H1264 0.950 . S
C1288 C1283 1.363 . S
C1288 C1287 1.415 . S
C1289 H1265 0.951 . S
C1289 C1290 1.366 . S
C1289 C1291 1.388 . S
C1290 C1289 1.366 . S
C1290 C1294 1.385 1_655 S
C1291 H1266 0.951 . S
C1291 C1289 1.388 . S
C1291 C1292 1.366 . S
C1292 C1291 1.366 . S
C1292 C1293 1.414 1_655 S
C1292 C1295 1.499 . S
C1293 H1267 0.950 . S
C1293 C1292 1.414 1_455 S
C1293 C1294 1.374 . S
C1294 H1268 0.950 . S
C1294 C1290 1.385 1_455 S
C1294 C1293 1.374 . S
C1295 C1292 1.499 . S
C1295 C1296 1.373 1_655 S
C1295 C1297 1.389 . S
C1296 H1269 0.950 . S
C1296 C1282 1.377 . S
C1296 C1295 1.373 1_455 S
C1297 C1281 1.377 . S
C1297 C1295 1.389 . S
C1297 C1298 1.524 . S
C1298 C1297 1.524 . S
C1298 C1299 1.397 . S
C1298 C1303 1.363 . S
C1299 H1270 0.950 . S
C1299 C1298 1.397 . S
C1299 C1300 1.334 . S
C1300 H1271 0.950 . S
C1300 C1299 1.334 . S
C1300 C1301 1.287 . S
C1301 C1300 1.287 . S
C1301 C1302 1.524 . S
C1301 H1304 0.999 . S
C1302 H1272 0.950 . S
C1302 C1301 1.524 . S
C1302 C1303 1.415 . S
C1303 H1273 0.950 . S
C1303 C1298 1.363 . S
C1303 C1302 1.415 . S
H1304 C1301 0.999 . S
H1305 C1286 0.913 . S
H1306 C1324 0.951 . S
H1307 C1326 0.951 . S
H1308 C1328 0.950 . S
H1309 C1329 0.950 . S
H1310 C1331 0.950 . S
H1311 C1334 0.950 . S
H1312 C1335 0.950 . S
H1313 C1337 0.950 . S
H1314 C1338 0.950 . S
H1315 C1339 0.951 . S
H1316 C1341 0.951 . S
H1317 C1343 0.950 . S
H1318 C1344 0.950 . S
H1319 C1346 0.950 . S
H1320 C1349 0.950 . S
H1321 C1350 0.950 . S
H1322 C1352 0.950 . S
H1323 C1353 0.950 . S
C1324 H1306 0.951 . S
C1324 C1325 1.340 1_545 S
C1324 C1326 1.388 . S
C1325 C1324 1.340 1_565 S
C1325 C1329 1.412 . S
C1326 H1307 0.951 . S
C1326 C1324 1.388 . S
C1326 C1327 1.366 1_545 S
C1327 C1326 1.366 1_565 S
C1327 C1328 1.414 . S
C1327 C1330 1.499 . S
C1328 H1308 0.950 . S
C1328 C1327 1.414 . S
C1328 C1329 1.374 . S
C1329 H1309 0.950 . S
C1329 C1325 1.412 . S
C1329 C1328 1.374 . S
C1330 C1327 1.499 . S
C1330 C1331 1.373 . S
C1330 C1332 1.389 1_565 S
C1331 H1310 0.950 . S
C1331 C1330 1.373 . S
C1331 C1347 1.377 . S
C1332 C1330 1.389 1_545 S
C1332 C1333 1.524 . S
C1332 C1346 1.377 . S
C1333 C1332 1.524 . S
C1333 C1334 1.397 . S
C1333 C1338 1.363 . S
C1334 H1311 0.950 . S
C1334 C1333 1.397 . S
C1334 C1335 1.334 . S
C1335 H1312 0.950 . S
C1335 C1334 1.334 . S
C1335 C1336 1.287 . S
C1336 C1335 1.287 . S
C1336 C1337 1.524 . S
C1336 H1355 0.913 . S
C1337 H1313 0.950 . S
C1337 C1336 1.524 . S
C1337 C1338 1.415 . S
C1338 H1314 0.950 . S
C1338 C1333 1.363 . S
C1338 C1337 1.415 . S
C1339 H1315 0.951 . S
C1339 C1340 1.366 . S
C1339 C1341 1.388 . S
C1340 C1339 1.366 . S
C1340 C1344 1.385 1_565 S
C1341 H1316 0.951 . S
C1341 C1339 1.388 . S
C1341 C1342 1.366 . S
C1342 C1341 1.366 . S
C1342 C1343 1.414 1_565 S
C1342 C1345 1.499 . S
C1343 H1317 0.950 . S
C1343 C1342 1.414 1_545 S
C1343 C1344 1.374 . S
C1344 H1318 0.950 . S
C1344 C1340 1.385 1_545 S
C1344 C1343 1.374 . S
C1345 C1342 1.499 . S
C1345 C1346 1.373 1_565 S
C1345 C1347 1.389 . S
C1346 H1319 0.950 . S
C1346 C1332 1.377 . S
C1346 C1345 1.373 1_545 S
C1347 C1331 1.377 . S
C1347 C1345 1.389 . S
C1347 C1348 1.524 . S
C1348 C1347 1.524 . S
C1348 C1349 1.397 . S
C1348 C1353 1.363 . S
C1349 H1320 0.950 . S
C1349 C1348 1.397 . S
C1349 C1350 1.334 . S
C1350 H1321 0.950 . S
C1350 C1349 1.334 . S
C1350 C1351 1.287 . S
C1351 C1350 1.287 . S
C1351 C1352 1.524 . S
C1351 H1354 0.999 . S
C1352 H1322 0.950 . S
C1352 C1351 1.524 . S
C1352 C1353 1.415 . S
C1353 H1323 0.950 . S
C1353 C1348 1.363 . S
C1353 C1352 1.415 . S
H1354 C1351 0.999 . S
H1355 C1336 0.913 . S
H1356 C1374 0.951 . S
H1357 C1376 0.951 . S
H1358 C1378 0.950 . S
H1359 C1379 0.950 . S
H1360 C1381 0.950 . S
H1361 C1384 0.950 . S
H1362 C1385 0.950 . S
H1363 C1387 0.950 . S
H1364 C1388 0.950 . S
H1365 C1389 0.951 . S
H1366 C1391 0.951 . S
H1367 C1393 0.950 . S
H1368 C1394 0.950 . S
H1369 C1396 0.950 . S
H1370 C1399 0.950 . S
H1371 C1400 0.950 . S
H1372 C1402 0.950 . S
H1373 C1403 0.950 . S
C1374 H1356 0.951 . S
C1374 C1375 1.366 . S
C1374 C1376 1.388 . S
C1375 C1374 1.366 . S
C1375 C1379 1.385 . S
C1376 H1357 0.951 . S
C1376 C1374 1.388 . S
C1376 C1377 1.366 . S
C1377 C1376 1.366 . S
C1377 C1378 1.414 . S
C1377 C1380 1.499 . S
C1378 H1358 0.950 . S
C1378 C1377 1.414 . S
C1378 C1379 1.374 . S
C1379 H1359 0.950 . S
C1379 C1375 1.385 . S
C1379 C1378 1.374 . S
C1380 C1377 1.499 . S
C1380 C1381 1.373 . S
C1380 C1382 1.389 . S
C1381 H1360 0.950 . S
C1381 C1380 1.373 . S
C1381 C1397 1.377 . S
C1382 C1380 1.389 . S
C1382 C1383 1.524 . S
C1382 C1396 1.377 . S
C1383 C1382 1.524 . S
C1383 C1384 1.397 . S
C1383 C1388 1.363 . S
C1384 H1361 0.950 . S
C1384 C1383 1.397 . S
C1384 C1385 1.334 . S
C1385 H1362 0.950 . S
C1385 C1384 1.334 . S
C1385 C1386 1.287 . S
C1386 C1385 1.287 . S
C1386 C1387 1.524 . S
C1386 H1405 0.913 . S
C1387 H1363 0.950 . S
C1387 C1386 1.524 . S
C1387 C1388 1.415 . S
C1388 H1364 0.950 . S
C1388 C1383 1.363 . S
C1388 C1387 1.415 . S
C1389 H1365 0.951 . S
C1389 C1390 1.366 . S
C1389 C1391 1.388 . S
C1390 C1389 1.366 . S
C1390 C1394 1.385 . S
C1391 H1366 0.951 . S
C1391 C1389 1.388 . S
C1391 C1392 1.366 . S
C1392 C1391 1.366 . S
C1392 C1393 1.414 . S
C1392 C1395 1.499 . S
C1393 H1367 0.950 . S
C1393 C1392 1.414 . S
C1393 C1394 1.374 . S
C1394 H1368 0.950 . S
C1394 C1390 1.385 . S
C1394 C1393 1.374 . S
C1395 C1392 1.499 . S
C1395 C1396 1.373 . S
C1395 C1397 1.389 . S
C1396 H1369 0.950 . S
C1396 C1382 1.377 . S
C1396 C1395 1.373 . S
C1397 C1381 1.377 . S
C1397 C1395 1.389 . S
C1397 C1398 1.524 . S
C1398 C1397 1.524 . S
C1398 C1399 1.397 . S
C1398 C1403 1.363 . S
C1399 H1370 0.950 . S
C1399 C1398 1.397 . S
C1399 C1400 1.334 . S
C1400 H1371 0.950 . S
C1400 C1399 1.334 . S
C1400 C1401 1.287 . S
C1401 C1400 1.287 . S
C1401 C1402 1.524 . S
C1401 H1404 0.999 . S
C1402 H1372 0.950 . S
C1402 C1401 1.524 . S
C1402 C1403 1.415 . S
C1403 H1373 0.950 . S
C1403 C1398 1.363 . S
C1403 C1402 1.415 . S
H1404 C1401 0.999 . S
H1405 C1386 0.913 . S
H1406 C1424 0.951 . S
H1407 C1426 0.951 . S
H1408 C1428 0.950 . S
H1409 C1429 0.950 . S
H1410 C1431 0.950 . S
H1411 C1434 0.950 . S
H1412 C1435 0.950 . S
H1413 C1437 0.950 . S
H1414 C1438 0.950 . S
H1415 C1439 0.951 . S
H1416 C1441 0.951 . S
H1417 C1443 0.950 . S
H1418 C1444 0.950 . S
H1419 C1446 0.950 . S
H1420 C1449 0.950 . S
H1421 C1450 0.950 . S
H1422 C1452 0.950 . S
H1423 C1453 0.950 . S
C1424 H1406 0.951 . S
C1424 C1425 1.366 . S
C1424 C1426 1.388 . S
C1425 C1424 1.366 . S
C1425 C1429 1.385 . S
C1426 H1407 0.951 . S
C1426 C1424 1.388 . S
C1426 C1427 1.366 . S
C1427 C1426 1.366 . S
C1427 C1428 1.414 . S
C1427 C1430 1.499 . S
C1428 H1408 0.950 . S
C1428 C1427 1.414 . S
C1428 C1429 1.374 . S
C1429 H1409 0.950 . S
C1429 C1425 1.385 . S
C1429 C1428 1.374 . S
C1430 C1427 1.499 . S
C1430 C1431 1.373 . S
C1430 C1432 1.389 . S
C1431 H1410 0.950 . S
C1431 C1430 1.373 . S
C1431 C1447 1.377 . S
C1432 C1430 1.389 . S
C1432 C1433 1.524 . S
C1432 C1446 1.377 . S
C1433 C1432 1.524 . S
C1433 C1434 1.397 . S
C1433 C1438 1.363 . S
C1434 H1411 0.950 . S
C1434 C1433 1.397 . S
C1434 C1435 1.334 . S
C1435 H1412 0.950 . S
C1435 C1434 1.334 . S
C1435 C1436 1.287 . S
C1436 C1435 1.287 . S
C1436 C1437 1.524 . S
C1436 H1455 0.913 . S
C1437 H1413 0.950 . S
C1437 C1436 1.524 . S
C1437 C1438 1.415 . S
C1438 H1414 0.950 . S
C1438 C1433 1.363 . S
C1438 C1437 1.415 . S
C1439 H1415 0.951 . S
C1439 C1440 1.366 . S
C1439 C1441 1.388 . S
C1440 C1439 1.366 . S
C1440 C1444 1.385 . S
C1441 H1416 0.951 . S
C1441 C1439 1.388 . S
C1441 C1442 1.366 . S
C1442 C1441 1.366 . S
C1442 C1443 1.414 . S
C1442 C1445 1.499 . S
C1443 H1417 0.950 . S
C1443 C1442 1.414 . S
C1443 C1444 1.374 . S
C1444 H1418 0.950 . S
C1444 C1440 1.385 . S
C1444 C1443 1.374 . S
C1445 C1442 1.499 . S
C1445 C1446 1.373 . S
C1445 C1447 1.389 . S
C1446 H1419 0.950 . S
C1446 C1432 1.377 . S
C1446 C1445 1.373 . S
C1447 C1431 1.377 . S
C1447 C1445 1.389 . S
C1447 C1448 1.524 . S
C1448 C1447 1.524 . S
C1448 C1449 1.397 . S
C1448 C1453 1.363 . S
C1449 H1420 0.950 . S
C1449 C1448 1.397 . S
C1449 C1450 1.334 . S
C1450 H1421 0.950 . S
C1450 C1449 1.334 . S
C1450 C1451 1.287 . S
C1451 C1450 1.287 . S
C1451 C1452 1.524 . S
C1451 H1454 0.999 . S
C1452 H1422 0.950 . S
C1452 C1451 1.524 . S
C1452 C1453 1.415 . S
C1453 H1423 0.950 . S
C1453 C1448 1.363 . S
C1453 C1452 1.415 . S
H1454 C1451 0.999 . S
H1455 C1436 0.913 . S
C275 C76 1.747 1_545 S
C290 C98 1.849 1_545 S
C340 C138 1.859 . S
C325 C88 1.744 . S
C390 C178 1.860 . S
C375 C52 1.752 . S
C440 C218 1.854 1_455 S
C425 C64 1.748 1_455 S
C490 C111 1.855 1_565 S
C475 C28 1.754 1_545 S
C525 C40 1.749 . S
C540 C151 1.863 . S
C575 C4 1.751 . S
C590 C191 1.860 . S
C625 C16 1.749 . S
C640 C231 1.856 1_655 S
C690 C122 0.295 . S
C675 C69 0.365 . S
C740 C162 0.298 . S
C725 C81 0.366 . S
C790 C202 0.302 . S
C775 C93 0.370 . S
C825 C57 0.370 . S
C840 C242 0.294 . S
C875 C21 0.375 1_655 S
C890 C105 0.299 . S
C940 C145 0.300 . S
C925 C33 0.370 1_565 S
C990 C185 0.302 . S
C975 C45 0.379 . S
C1025 C9 0.378 . S
C1040 C225 0.303 . S
C1075 C66 1.899 . S
C1090 C99 2.093 . S
C1125 C78 1.892 . S
C1140 C139 2.094 . S
C1190 C179 2.092 . S
C1175 C90 1.890 . S
C1240 C219 2.097 . S
C1225 C54 1.890 . S
C1275 C18 1.899 1_655 S
C1290 C118 2.109 . S
C1340 C158 2.095 . S
C1325 C30 1.893 1_565 S
C1390 C198 2.090 . S
C1375 C42 1.892 . S
C1425 C6 1.899 . S
C1440 C238 2.103 . S
