# Generated by pormake.
# Topology tbo, (3,4)-cn, num edge types: 1
# Building blocks:
#     Node 0, Type 0, BuildingBlock: VETTIZ_charged_linker_0, # of connection points: 3
#     Node 1, Type 0, BuildingBlock: VETTIZ_charged_linker_0, # of connection points: 3
#     Node 2, Type 0, BuildingBlock: VETTIZ_charged_linker_0, # of connection points: 3
#     Node 3, Type 0, BuildingBlock: VETTIZ_charged_linker_0, # of connection points: 3
#     Node 4, Type 0, BuildingBlock: VETTIZ_charged_linker_0, # of connection points: 3
#     Node 5, Type 0, BuildingBlock: VETTIZ_charged_linker_0, # of connection points: 3
#     Node 6, Type 0, BuildingBlock: VETTIZ_charged_linker_0, # of connection points: 3
#     Node 7, Type 0, BuildingBlock: VETTIZ_charged_linker_0, # of connection points: 3
#     Node 8, Type 0, BuildingBlock: VETTIZ_charged_linker_0, # of connection points: 3
#     Node 9, Type 0, BuildingBlock: VETTIZ_charged_linker_0, # of connection points: 3
#     Node 10, Type 0, BuildingBlock: VETTIZ_charged_linker_0, # of connection points: 3
#     Node 11, Type 0, BuildingBlock: VETTIZ_charged_linker_0, # of connection points: 3
#     Node 12, Type 0, BuildingBlock: VETTIZ_charged_linker_0, # of connection points: 3
#     Node 13, Type 0, BuildingBlock: VETTIZ_charged_linker_0, # of connection points: 3
#     Node 14, Type 0, BuildingBlock: VETTIZ_charged_linker_0, # of connection points: 3
#     Node 15, Type 0, BuildingBlock: VETTIZ_charged_linker_0, # of connection points: 3
#     Node 16, Type 0, BuildingBlock: VETTIZ_charged_linker_0, # of connection points: 3
#     Node 17, Type 0, BuildingBlock: VETTIZ_charged_linker_0, # of connection points: 3
#     Node 18, Type 0, BuildingBlock: VETTIZ_charged_linker_0, # of connection points: 3
#     Node 19, Type 0, BuildingBlock: VETTIZ_charged_linker_0, # of connection points: 3
#     Node 20, Type 0, BuildingBlock: VETTIZ_charged_linker_0, # of connection points: 3
#     Node 21, Type 0, BuildingBlock: VETTIZ_charged_linker_0, # of connection points: 3
#     Node 22, Type 0, BuildingBlock: VETTIZ_charged_linker_0, # of connection points: 3
#     Node 23, Type 0, BuildingBlock: VETTIZ_charged_linker_0, # of connection points: 3
#     Node 24, Type 0, BuildingBlock: VETTIZ_charged_linker_0, # of connection points: 3
#     Node 25, Type 0, BuildingBlock: VETTIZ_charged_linker_0, # of connection points: 3
#     Node 26, Type 0, BuildingBlock: VETTIZ_charged_linker_0, # of connection points: 3
#     Node 27, Type 0, BuildingBlock: VETTIZ_charged_linker_0, # of connection points: 3
#     Node 28, Type 0, BuildingBlock: VETTIZ_charged_linker_0, # of connection points: 3
#     Node 29, Type 0, BuildingBlock: VETTIZ_charged_linker_0, # of connection points: 3
#     Node 30, Type 0, BuildingBlock: VETTIZ_charged_linker_0, # of connection points: 3
#     Node 31, Type 0, BuildingBlock: VETTIZ_charged_linker_0, # of connection points: 3
#     Node 32, Type 1, BuildingBlock: ESEHIV_clean_sbu_0, # of connection points: 4
#     Node 33, Type 1, BuildingBlock: ESEHIV_clean_sbu_0, # of connection points: 4
#     Node 34, Type 1, BuildingBlock: ESEHIV_clean_sbu_0, # of connection points: 4
#     Node 35, Type 1, BuildingBlock: ESEHIV_clean_sbu_0, # of connection points: 4
#     Node 36, Type 1, BuildingBlock: ESEHIV_clean_sbu_0, # of connection points: 4
#     Node 37, Type 1, BuildingBlock: ESEHIV_clean_sbu_0, # of connection points: 4
#     Node 38, Type 1, BuildingBlock: ESEHIV_clean_sbu_0, # of connection points: 4
#     Node 39, Type 1, BuildingBlock: ESEHIV_clean_sbu_0, # of connection points: 4
#     Node 40, Type 1, BuildingBlock: ESEHIV_clean_sbu_0, # of connection points: 4
#     Node 41, Type 1, BuildingBlock: ESEHIV_clean_sbu_0, # of connection points: 4
#     Node 42, Type 1, BuildingBlock: ESEHIV_clean_sbu_0, # of connection points: 4
#     Node 43, Type 1, BuildingBlock: ESEHIV_clean_sbu_0, # of connection points: 4
#     Node 44, Type 1, BuildingBlock: ESEHIV_clean_sbu_0, # of connection points: 4
#     Node 45, Type 1, BuildingBlock: ESEHIV_clean_sbu_0, # of connection points: 4
#     Node 46, Type 1, BuildingBlock: ESEHIV_clean_sbu_0, # of connection points: 4
#     Node 47, Type 1, BuildingBlock: ESEHIV_clean_sbu_0, # of connection points: 4
#     Node 48, Type 1, BuildingBlock: ESEHIV_clean_sbu_0, # of connection points: 4
#     Node 49, Type 1, BuildingBlock: ESEHIV_clean_sbu_0, # of connection points: 4
#     Node 50, Type 1, BuildingBlock: ESEHIV_clean_sbu_0, # of connection points: 4
#     Node 51, Type 1, BuildingBlock: ESEHIV_clean_sbu_0, # of connection points: 4
#     Node 52, Type 1, BuildingBlock: ESEHIV_clean_sbu_0, # of connection points: 4
#     Node 53, Type 1, BuildingBlock: ESEHIV_clean_sbu_0, # of connection points: 4
#     Node 54, Type 1, BuildingBlock: ESEHIV_clean_sbu_0, # of connection points: 4
#     Node 55, Type 1, BuildingBlock: ESEHIV_clean_sbu_0, # of connection points: 4
#     Edge 56, Type (0, 1), BuildingBlock: UVAHIK_clean_linker_0, # of connection points: 2
#     Edge 57, Type (0, 1), BuildingBlock: UVAHIK_clean_linker_0, # of connection points: 2
#     Edge 58, Type (0, 1), BuildingBlock: UVAHIK_clean_linker_0, # of connection points: 2
#     Edge 59, Type (0, 1), BuildingBlock: UVAHIK_clean_linker_0, # of connection points: 2
#     Edge 60, Type (0, 1), BuildingBlock: UVAHIK_clean_linker_0, # of connection points: 2
#     Edge 61, Type (0, 1), BuildingBlock: UVAHIK_clean_linker_0, # of connection points: 2
#     Edge 62, Type (0, 1), BuildingBlock: UVAHIK_clean_linker_0, # of connection points: 2
#     Edge 63, Type (0, 1), BuildingBlock: UVAHIK_clean_linker_0, # of connection points: 2
#     Edge 64, Type (0, 1), BuildingBlock: UVAHIK_clean_linker_0, # of connection points: 2
#     Edge 65, Type (0, 1), BuildingBlock: UVAHIK_clean_linker_0, # of connection points: 2
#     Edge 66, Type (0, 1), BuildingBlock: UVAHIK_clean_linker_0, # of connection points: 2
#     Edge 67, Type (0, 1), BuildingBlock: UVAHIK_clean_linker_0, # of connection points: 2
#     Edge 68, Type (0, 1), BuildingBlock: UVAHIK_clean_linker_0, # of connection points: 2
#     Edge 69, Type (0, 1), BuildingBlock: UVAHIK_clean_linker_0, # of connection points: 2
#     Edge 70, Type (0, 1), BuildingBlock: UVAHIK_clean_linker_0, # of connection points: 2
#     Edge 71, Type (0, 1), BuildingBlock: UVAHIK_clean_linker_0, # of connection points: 2
#     Edge 72, Type (0, 1), BuildingBlock: UVAHIK_clean_linker_0, # of connection points: 2
#     Edge 73, Type (0, 1), BuildingBlock: UVAHIK_clean_linker_0, # of connection points: 2
#     Edge 74, Type (0, 1), BuildingBlock: UVAHIK_clean_linker_0, # of connection points: 2
#     Edge 75, Type (0, 1), BuildingBlock: UVAHIK_clean_linker_0, # of connection points: 2
#     Edge 76, Type (0, 1), BuildingBlock: UVAHIK_clean_linker_0, # of connection points: 2
#     Edge 77, Type (0, 1), BuildingBlock: UVAHIK_clean_linker_0, # of connection points: 2
#     Edge 78, Type (0, 1), BuildingBlock: UVAHIK_clean_linker_0, # of connection points: 2
#     Edge 79, Type (0, 1), BuildingBlock: UVAHIK_clean_linker_0, # of connection points: 2
#     Edge 80, Type (0, 1), BuildingBlock: UVAHIK_clean_linker_0, # of connection points: 2
#     Edge 81, Type (0, 1), BuildingBlock: UVAHIK_clean_linker_0, # of connection points: 2
#     Edge 82, Type (0, 1), BuildingBlock: UVAHIK_clean_linker_0, # of connection points: 2
#     Edge 83, Type (0, 1), BuildingBlock: UVAHIK_clean_linker_0, # of connection points: 2
#     Edge 84, Type (0, 1), BuildingBlock: UVAHIK_clean_linker_0, # of connection points: 2
#     Edge 85, Type (0, 1), BuildingBlock: UVAHIK_clean_linker_0, # of connection points: 2
#     Edge 86, Type (0, 1), BuildingBlock: UVAHIK_clean_linker_0, # of connection points: 2
#     Edge 87, Type (0, 1), BuildingBlock: UVAHIK_clean_linker_0, # of connection points: 2
#     Edge 88, Type (0, 1), BuildingBlock: UVAHIK_clean_linker_0, # of connection points: 2
#     Edge 89, Type (0, 1), BuildingBlock: UVAHIK_clean_linker_0, # of connection points: 2
#     Edge 90, Type (0, 1), BuildingBlock: UVAHIK_clean_linker_0, # of connection points: 2
#     Edge 91, Type (0, 1), BuildingBlock: UVAHIK_clean_linker_0, # of connection points: 2
#     Edge 92, Type (0, 1), BuildingBlock: UVAHIK_clean_linker_0, # of connection points: 2
#     Edge 93, Type (0, 1), BuildingBlock: UVAHIK_clean_linker_0, # of connection points: 2
#     Edge 94, Type (0, 1), BuildingBlock: UVAHIK_clean_linker_0, # of connection points: 2
#     Edge 95, Type (0, 1), BuildingBlock: UVAHIK_clean_linker_0, # of connection points: 2
#     Edge 96, Type (0, 1), BuildingBlock: UVAHIK_clean_linker_0, # of connection points: 2
#     Edge 97, Type (0, 1), BuildingBlock: UVAHIK_clean_linker_0, # of connection points: 2
#     Edge 98, Type (0, 1), BuildingBlock: UVAHIK_clean_linker_0, # of connection points: 2
#     Edge 99, Type (0, 1), BuildingBlock: UVAHIK_clean_linker_0, # of connection points: 2
#     Edge 100, Type (0, 1), BuildingBlock: UVAHIK_clean_linker_0, # of connection points: 2
#     Edge 101, Type (0, 1), BuildingBlock: UVAHIK_clean_linker_0, # of connection points: 2
#     Edge 102, Type (0, 1), BuildingBlock: UVAHIK_clean_linker_0, # of connection points: 2
#     Edge 103, Type (0, 1), BuildingBlock: UVAHIK_clean_linker_0, # of connection points: 2
#     Edge 104, Type (0, 1), BuildingBlock: UVAHIK_clean_linker_0, # of connection points: 2
#     Edge 105, Type (0, 1), BuildingBlock: UVAHIK_clean_linker_0, # of connection points: 2
#     Edge 106, Type (0, 1), BuildingBlock: UVAHIK_clean_linker_0, # of connection points: 2
#     Edge 107, Type (0, 1), BuildingBlock: UVAHIK_clean_linker_0, # of connection points: 2
#     Edge 108, Type (0, 1), BuildingBlock: UVAHIK_clean_linker_0, # of connection points: 2
#     Edge 109, Type (0, 1), BuildingBlock: UVAHIK_clean_linker_0, # of connection points: 2
#     Edge 110, Type (0, 1), BuildingBlock: UVAHIK_clean_linker_0, # of connection points: 2
#     Edge 111, Type (0, 1), BuildingBlock: UVAHIK_clean_linker_0, # of connection points: 2
#     Edge 112, Type (0, 1), BuildingBlock: UVAHIK_clean_linker_0, # of connection points: 2
#     Edge 113, Type (0, 1), BuildingBlock: UVAHIK_clean_linker_0, # of connection points: 2
#     Edge 114, Type (0, 1), BuildingBlock: UVAHIK_clean_linker_0, # of connection points: 2
#     Edge 115, Type (0, 1), BuildingBlock: UVAHIK_clean_linker_0, # of connection points: 2
#     Edge 116, Type (0, 1), BuildingBlock: UVAHIK_clean_linker_0, # of connection points: 2
#     Edge 117, Type (0, 1), BuildingBlock: UVAHIK_clean_linker_0, # of connection points: 2
#     Edge 118, Type (0, 1), BuildingBlock: UVAHIK_clean_linker_0, # of connection points: 2
#     Edge 119, Type (0, 1), BuildingBlock: UVAHIK_clean_linker_0, # of connection points: 2
#     Edge 120, Type (0, 1), BuildingBlock: UVAHIK_clean_linker_0, # of connection points: 2
#     Edge 121, Type (0, 1), BuildingBlock: UVAHIK_clean_linker_0, # of connection points: 2
#     Edge 122, Type (0, 1), BuildingBlock: UVAHIK_clean_linker_0, # of connection points: 2
#     Edge 123, Type (0, 1), BuildingBlock: UVAHIK_clean_linker_0, # of connection points: 2
#     Edge 124, Type (0, 1), BuildingBlock: UVAHIK_clean_linker_0, # of connection points: 2
#     Edge 125, Type (0, 1), BuildingBlock: UVAHIK_clean_linker_0, # of connection points: 2
#     Edge 126, Type (0, 1), BuildingBlock: UVAHIK_clean_linker_0, # of connection points: 2
#     Edge 127, Type (0, 1), BuildingBlock: UVAHIK_clean_linker_0, # of connection points: 2
#     Edge 128, Type (0, 1), BuildingBlock: UVAHIK_clean_linker_0, # of connection points: 2
#     Edge 129, Type (0, 1), BuildingBlock: UVAHIK_clean_linker_0, # of connection points: 2
#     Edge 130, Type (0, 1), BuildingBlock: UVAHIK_clean_linker_0, # of connection points: 2
#     Edge 131, Type (0, 1), BuildingBlock: UVAHIK_clean_linker_0, # of connection points: 2
#     Edge 132, Type (0, 1), BuildingBlock: UVAHIK_clean_linker_0, # of connection points: 2
#     Edge 133, Type (0, 1), BuildingBlock: UVAHIK_clean_linker_0, # of connection points: 2
#     Edge 134, Type (0, 1), BuildingBlock: UVAHIK_clean_linker_0, # of connection points: 2
#     Edge 135, Type (0, 1), BuildingBlock: UVAHIK_clean_linker_0, # of connection points: 2
#     Edge 136, Type (0, 1), BuildingBlock: UVAHIK_clean_linker_0, # of connection points: 2
#     Edge 137, Type (0, 1), BuildingBlock: UVAHIK_clean_linker_0, # of connection points: 2
#     Edge 138, Type (0, 1), BuildingBlock: UVAHIK_clean_linker_0, # of connection points: 2
#     Edge 139, Type (0, 1), BuildingBlock: UVAHIK_clean_linker_0, # of connection points: 2
#     Edge 140, Type (0, 1), BuildingBlock: UVAHIK_clean_linker_0, # of connection points: 2
#     Edge 141, Type (0, 1), BuildingBlock: UVAHIK_clean_linker_0, # of connection points: 2
#     Edge 142, Type (0, 1), BuildingBlock: UVAHIK_clean_linker_0, # of connection points: 2
#     Edge 143, Type (0, 1), BuildingBlock: UVAHIK_clean_linker_0, # of connection points: 2
#     Edge 144, Type (0, 1), BuildingBlock: UVAHIK_clean_linker_0, # of connection points: 2
#     Edge 145, Type (0, 1), BuildingBlock: UVAHIK_clean_linker_0, # of connection points: 2
#     Edge 146, Type (0, 1), BuildingBlock: UVAHIK_clean_linker_0, # of connection points: 2
#     Edge 147, Type (0, 1), BuildingBlock: UVAHIK_clean_linker_0, # of connection points: 2
#     Edge 148, Type (0, 1), BuildingBlock: UVAHIK_clean_linker_0, # of connection points: 2
#     Edge 149, Type (0, 1), BuildingBlock: UVAHIK_clean_linker_0, # of connection points: 2
#     Edge 150, Type (0, 1), BuildingBlock: UVAHIK_clean_linker_0, # of connection points: 2
#     Edge 151, Type (0, 1), BuildingBlock: UVAHIK_clean_linker_0, # of connection points: 2
# Relax obj value: 0.001
# Max RMSD: 0.113
# Mean RMSD: 0.046
data_MOF--net-tbo--node1-ESEHIV_clean_sbu_0--node2-VETTIZ_charged_linker_0--edge1-UVAHIK_clean_linker_0
_symmetry_space_group_name_H-M    P1
_symmetry_Int_Tables_number       1
_symmetry_cell_setting            triclinic
loop_
_symmetry_equiv_pos_as_xyz
'x, y, z'
_cell_length_a     112.2695
_cell_length_b     112.26589
_cell_length_c     112.27346
_cell_angle_alpha  90.019122
_cell_angle_beta   91.583264
_cell_angle_gamma 90.468976
loop_
_atom_site_label
_atom_site_type_symbol
_atom_site_fract_x
_atom_site_fract_y
_atom_site_fract_z
_atom_type_partial_charge
C0 C 0.18886 0.18973 0.1468 0.0
C1 C 0.199 0.18659 0.14043 0.0
C2 C 0.2055 0.17645 0.14412 0.0
C3 C 0.19175 0.17281 0.16004 0.0
C4 C 0.18548 0.18282 0.15655 0.0
C5 C 0.17513 0.18521 0.16442 0.0
H6 H 0.1423 0.16952 0.21168 0.0
C7 C 0.18581 0.16759 0.17046 0.0
C8 C 0.17611 0.17488 0.1731 0.0
H9 H 0.13795 0.20023 0.18877 0.0
H10 H 0.15451 0.19392 0.17716 0.0
H11 H 0.14657 0.15115 0.19127 0.0
H12 H 0.17115 0.17095 0.2138 0.0
H13 H 0.17643 0.15628 0.21294 0.0
H14 H 0.16204 0.15895 0.21909 0.0
H15 H 0.14996 0.1467 0.20631 0.0
H16 H 0.15871 0.14172 0.19402 0.0
C17 C 0.16352 0.18448 0.15665 0.0
C18 C 0.17732 0.19738 0.17066 0.0
C19 C 0.20078 0.12874 0.18885 0.0
C20 C 0.19649 0.12151 0.19806 0.0
C21 C 0.18651 0.1253 0.20436 0.0
C22 C 0.1808 0.13599 0.20149 0.0
C23 C 0.18503 0.14303 0.19215 0.0
C24 C 0.19486 0.13939 0.18598 0.0
C25 C 0.19782 0.14791 0.17611 0.0
C26 C 0.18812 0.15719 0.17736 0.0
C27 C 0.18072 0.15429 0.18683 0.0
C28 C 0.19659 0.14111 0.16413 0.0
C29 C 0.21039 0.1532 0.17879 0.0
C30 C 0.14499 0.17496 0.20424 0.0
C31 C 0.1388 0.18542 0.20119 0.0
C32 C 0.14246 0.19208 0.19126 0.0
C33 C 0.15215 0.18844 0.18457 0.0
C34 C 0.1583 0.17801 0.18779 0.0
C35 C 0.15465 0.17144 0.19746 0.0
C36 C 0.16213 0.16054 0.1995 0.0
C37 C 0.17102 0.16177 0.18961 0.0
C38 C 0.16873 0.172 0.18278 0.0
C39 C 0.15399 0.1494 0.19779 0.0
C40 C 0.16824 0.1616 0.212 0.0
H41 H 0.20726 0.16199 0.15618 0.0
H42 H 0.18353 0.19735 0.14422 0.0
H43 H 0.187 0.19903 0.17239 0.0
H44 H 0.17334 0.19786 0.17953 0.0
H45 H 0.17389 0.20483 0.16506 0.0
H46 H 0.16404 0.17719 0.14997 0.0
H47 H 0.16197 0.19293 0.15172 0.0
H48 H 0.15558 0.18236 0.16184 0.0
H49 H 0.20837 0.12601 0.18379 0.0
H50 H 0.18313 0.11998 0.21159 0.0
H51 H 0.17326 0.13832 0.20664 0.0
H52 H 0.18875 0.13499 0.16412 0.0
H53 H 0.20461 0.13566 0.16256 0.0
H54 H 0.19504 0.14702 0.15641 0.0
H55 H 0.21197 0.15442 0.18854 0.0
H56 H 0.21162 0.16216 0.17494 0.0
H57 H 0.21744 0.14722 0.17552 0.0
H58 H 0.21348 0.17391 0.13959 0.0
C59 C 0.20193 0.16956 0.15384 0.0
C60 C 0.84013 0.14352 0.19532 0.0
C61 C 0.82999 0.13742 0.19078 0.0
C62 C 0.82418 0.14182 0.18039 0.0
C63 C 0.8384 0.15819 0.17946 0.0
C64 C 0.84413 0.15381 0.18957 0.0
C65 C 0.85475 0.16129 0.19334 0.0
H66 H 0.8906 0.20901 0.18421 0.0
C67 C 0.84476 0.16918 0.17584 0.0
C68 C 0.85433 0.17102 0.18398 0.0
H69 H 0.89395 0.18196 0.21149 0.0
H70 H 0.87608 0.17229 0.20396 0.0
H71 H 0.86291 0.21263 0.1863 0.0
H72 H 0.88296 0.19084 0.1627 0.0
H73 H 0.87188 0.19818 0.15417 0.0
H74 H 0.88299 0.20683 0.16225 0.0
H75 H 0.86973 0.21874 0.17337 0.0
H76 H 0.85486 0.21243 0.17268 0.0
C77 C 0.85256 0.16624 0.20598 0.0
C78 C 0.86605 0.15352 0.19244 0.0
C79 C 0.83069 0.19246 0.13915 0.0
C80 C 0.83447 0.2033 0.13407 0.0
C81 C 0.84398 0.20961 0.13972 0.0
C82 C 0.84979 0.20513 0.14994 0.0
C83 C 0.84603 0.19424 0.15475 0.0
C84 C 0.83651 0.18818 0.1495 0.0
C85 C 0.83336 0.17708 0.15632 0.0
C86 C 0.84275 0.17738 0.16635 0.0
C87 C 0.85021 0.18741 0.16528 0.0
C88 C 0.8206 0.17852 0.16102 0.0
C89 C 0.83488 0.16621 0.14803 0.0
C90 C 0.88741 0.20106 0.18861 0.0
C91 C 0.89378 0.1962 0.1984 0.0
C92 C 0.88935 0.18578 0.20381 0.0
C93 C 0.87892 0.18019 0.19945 0.0
C94 C 0.87278 0.18501 0.18953 0.0
C95 C 0.87701 0.1953 0.18431 0.0
C96 C 0.86936 0.19905 0.17377 0.0
C97 C 0.85995 0.18922 0.17346 0.0
C98 C 0.862 0.18105 0.18273 0.0
C99 C 0.86396 0.21138 0.17655 0.0
C100 C 0.87714 0.19881 0.16259 0.0
H101 H 0.8235 0.15505 0.16688 0.0
H102 H 0.84495 0.1403 0.20314 0.0
H103 H 0.86504 0.14692 0.18507 0.0
H104 H 0.87408 0.15874 0.19026 0.0
H105 H 0.86781 0.14848 0.2008 0.0
H106 H 0.84302 0.16859 0.20695 0.0
H107 H 0.85487 0.15955 0.21294 0.0
H108 H 0.85753 0.17457 0.20792 0.0
H109 H 0.82344 0.18731 0.13513 0.0
H110 H 0.8469 0.21815 0.13635 0.0
H111 H 0.85697 0.21037 0.15373 0.0
H112 H 0.81883 0.18797 0.16331 0.0
H113 H 0.81378 0.17569 0.15421 0.0
H114 H 0.81917 0.17356 0.16935 0.0
H115 H 0.84303 0.16727 0.14269 0.0
H116 H 0.83609 0.15778 0.15295 0.0
H117 H 0.82714 0.16524 0.14172 0.0
H118 H 0.8163 0.13737 0.17673 0.0
C119 C 0.82833 0.15215 0.17472 0.0
C120 C 0.86787 0.83722 0.19074 0.0
C121 C 0.87483 0.8277 0.18681 0.0
C122 C 0.87139 0.82173 0.1762 0.0
C123 C 0.8544 0.83474 0.17358 0.0
C124 C 0.85777 0.84062 0.18397 0.0
C125 C 0.84964 0.85082 0.18661 0.0
H126 H 0.80213 0.8847 0.17052 0.0
C127 C 0.84358 0.84056 0.16859 0.0
C128 C 0.84076 0.85001 0.17617 0.0
H129 H 0.82609 0.88896 0.20107 0.0
H130 H 0.83686 0.87149 0.19535 0.0
H131 H 0.79956 0.85569 0.17265 0.0
H132 H 0.82214 0.87849 0.15203 0.0
H133 H 0.81721 0.86673 0.14276 0.0
H134 H 0.80648 0.87679 0.14877 0.0
H135 H 0.79398 0.86408 0.16013 0.0
H136 H 0.80032 0.84949 0.15832 0.0
C137 C 0.84367 0.84825 0.19863 0.0
C138 C 0.85708 0.86251 0.18639 0.0
C139 C 0.82432 0.82499 0.13006 0.0
C140 C 0.81441 0.82865 0.12308 0.0
C141 C 0.80765 0.83836 0.12701 0.0
C142 C 0.81076 0.8444 0.1376 0.0
C143 C 0.82078 0.84074 0.14438 0.0
C144 C 0.82733 0.83114 0.1406 0.0
C145 C 0.83776 0.82857 0.14887 0.0
C146 C 0.83639 0.83818 0.15824 0.0
C147 C 0.82643 0.8453 0.15557 0.0
C148 C 0.83601 0.81592 0.15408 0.0
C149 C 0.84935 0.83025 0.14183 0.0
C150 C 0.80962 0.88178 0.17604 0.0
C151 C 0.8133 0.88828 0.18623 0.0
C152 C 0.82317 0.88423 0.19309 0.0
C153 C 0.8294 0.87404 0.18977 0.0
C154 C 0.8258 0.8678 0.17942 0.0
C155 C 0.81601 0.87163 0.17279 0.0
C156 C 0.8136 0.86395 0.16197 0.0
C157 C 0.82362 0.85495 0.16318 0.0
C158 C 0.83072 0.85726 0.17343 0.0
C159 C 0.8012 0.85801 0.1632 0.0
C160 C 0.81482 0.87183 0.15074 0.0
H161 H 0.8591 0.82024 0.16162 0.0
H162 H 0.87036 0.84208 0.19878 0.0
H163 H 0.86424 0.86197 0.17975 0.0
H164 H 0.85179 0.87032 0.1836 0.0
H165 H 0.86142 0.86434 0.19522 0.0
H166 H 0.84148 0.83861 0.19948 0.0
H167 H 0.84967 0.85074 0.20627 0.0
H168 H 0.83508 0.85285 0.19951 0.0
H169 H 0.82979 0.81766 0.12725 0.0
H170 H 0.79988 0.84127 0.12191 0.0
H171 H 0.80527 0.85172 0.14007 0.0
H172 H 0.82645 0.8142 0.1559 0.0
H173 H 0.83893 0.80898 0.14776 0.0
H174 H 0.84072 0.81465 0.16274 0.0
H175 H 0.84829 0.83735 0.13497 0.0
H176 H 0.857 0.83325 0.1475 0.0
H177 H 0.85176 0.82192 0.13717 0.0
H178 H 0.87653 0.81429 0.17305 0.0
C179 C 0.86122 0.82517 0.1696 0.0
C180 C 0.18096 0.86964 0.19006 0.0
C181 C 0.1752 0.87442 0.19993 0.0
C182 C 0.16448 0.86911 0.2036 0.0
C183 C 0.16546 0.85451 0.18774 0.0
C184 C 0.17591 0.85977 0.18409 0.0
C185 C 0.18068 0.85381 0.17322 0.0
H186 H 0.17528 0.81117 0.13067 0.0
C187 C 0.16261 0.84443 0.17963 0.0
C188 C 0.17146 0.844 0.17107 0.0
H189 H 0.20226 0.83873 0.13458 0.0
H190 H 0.19304 0.84591 0.15226 0.0
H191 H 0.17469 0.80435 0.15889 0.0
H192 H 0.153 0.82785 0.13719 0.0
H193 H 0.1436 0.81948 0.14632 0.0
H194 H 0.15245 0.81194 0.13555 0.0
H195 H 0.16396 0.79882 0.14806 0.0
H196 H 0.1598 0.8025 0.16302 0.0
C197 C 0.19311 0.84872 0.17655 0.0
C198 C 0.18065 0.86304 0.16293 0.0
C199 C 0.12577 0.81909 0.18642 0.0
C200 C 0.12073 0.80909 0.18059 0.0
C201 C 0.1266 0.80424 0.17078 0.0
C202 C 0.13719 0.80942 0.16673 0.0
C203 C 0.14201 0.81954 0.17256 0.0
C204 C 0.13633 0.82412 0.1823 0.0
C205 C 0.14274 0.83477 0.18756 0.0
C206 C 0.15318 0.83591 0.17935 0.0
C207 C 0.15271 0.82701 0.17054 0.0
C208 C 0.14682 0.83162 0.20047 0.0
C209 C 0.13431 0.84562 0.18655 0.0
C210 C 0.17924 0.81869 0.13541 0.0
C211 C 0.18948 0.82443 0.13115 0.0
C212 C 0.19428 0.83426 0.13753 0.0
C213 C 0.18894 0.83839 0.14785 0.0
C214 C 0.17863 0.83268 0.1519 0.0
C215 C 0.17395 0.82298 0.14573 0.0
C216 C 0.16286 0.81816 0.15133 0.0
C217 C 0.16162 0.82664 0.16178 0.0
C218 C 0.17092 0.8351 0.16206 0.0
C219 C 0.16533 0.80525 0.1555 0.0
C220 C 0.15238 0.8193 0.14216 0.0
H221 H 0.15147 0.85555 0.20087 0.0
H222 H 0.18911 0.87362 0.18692 0.0
H223 H 0.17326 0.86951 0.16379 0.0
H224 H 0.17905 0.85894 0.15408 0.0
H225 H 0.18912 0.8682 0.1629 0.0
H226 H 0.19322 0.84495 0.18572 0.0
H227 H 0.2001 0.85577 0.17629 0.0
H228 H 0.19568 0.84126 0.17077 0.0
H229 H 0.12163 0.82292 0.19412 0.0
H230 H 0.12288 0.79657 0.16611 0.0
H231 H 0.14118 0.80539 0.15915 0.0
H232 H 0.14958 0.82214 0.20111 0.0
H233 H 0.13951 0.83295 0.2068 0.0
H234 H 0.15473 0.83676 0.2036 0.0
H235 H 0.12858 0.84507 0.17832 0.0
H236 H 0.13914 0.85418 0.18578 0.0
H237 H 0.12834 0.84606 0.19426 0.0
H238 H 0.15994 0.87257 0.21124 0.0
C239 C 0.15961 0.85919 0.1976 0.0
C240 C 0.19081 0.82498 0.87939 0.0
C241 C 0.18536 0.81435 0.88319 0.0
C242 C 0.17552 0.80978 0.8765 0.0
C243 C 0.17658 0.82644 0.86276 0.0
C244 C 0.18632 0.83082 0.86921 0.0
C245 C 0.19111 0.84219 0.86402 0.0
H246 H 0.18761 0.88523 0.82181 0.0
C247 C 0.17406 0.83476 0.85277 0.0
C248 C 0.18258 0.84399 0.85346 0.0
H249 H 0.21347 0.88197 0.85088 0.0
H250 H 0.20379 0.864 0.85742 0.0
H251 H 0.16485 0.87804 0.83689 0.0
H252 H 0.18743 0.85736 0.81456 0.0
H253 H 0.17263 0.85286 0.81149 0.0
H254 H 0.17704 0.86805 0.80864 0.0
H255 H 0.16422 0.8792 0.82094 0.0
H256 H 0.1556 0.86816 0.82869 0.0
C257 C 0.19003 0.85218 0.87344 0.0
C258 C 0.20401 0.83989 0.86004 0.0
C259 C 0.13904 0.82676 0.82403 0.0
C260 C 0.13446 0.83284 0.81395 0.0
C261 C 0.14005 0.84355 0.81048 0.0
C262 C 0.15004 0.84804 0.81684 0.0
C263 C 0.15455 0.84181 0.82682 0.0
C264 C 0.14903 0.83137 0.83029 0.0
C265 C 0.15504 0.82595 0.84112 0.0
C266 C 0.16509 0.83482 0.84357 0.0
C267 C 0.16477 0.84409 0.83516 0.0
C268 C 0.14598 0.82572 0.85128 0.0
C269 C 0.15978 0.81354 0.83762 0.0
C270 C 0.19124 0.8806 0.82953 0.0
C271 C 0.20133 0.88509 0.83583 0.0
C272 C 0.20563 0.87883 0.84594 0.0
C273 C 0.20003 0.86833 0.84969 0.0
C274 C 0.18998 0.86396 0.8433 0.0
C275 C 0.18574 0.87008 0.8334 0.0
C276 C 0.17494 0.86412 0.82773 0.0
C277 C 0.17345 0.85338 0.83581 0.0
C278 C 0.18229 0.85333 0.8449 0.0
C279 C 0.16431 0.87279 0.82848 0.0
C280 C 0.17805 0.86044 0.8149 0.0
H281 H 0.16354 0.81187 0.86172 0.0
H282 H 0.19849 0.82865 0.8842 0.0
H283 H 0.20493 0.83064 0.85664 0.0
H284 H 0.20666 0.84564 0.85257 0.0
H285 H 0.21052 0.84107 0.86759 0.0
H286 H 0.18171 0.85106 0.87851 0.0
H287 H 0.19765 0.85203 0.87996 0.0
H288 H 0.18938 0.86116 0.86948 0.0
H289 H 0.1349 0.81861 0.82707 0.0
H290 H 0.13683 0.84835 0.80269 0.0
H291 H 0.15391 0.85618 0.81369 0.0
H292 H 0.14042 0.83388 0.85108 0.0
H293 H 0.13988 0.81791 0.85041 0.0
H294 H 0.15028 0.82567 0.86024 0.0
H295 H 0.16291 0.81357 0.82831 0.0
H296 H 0.16761 0.8108 0.84309 0.0
H297 H 0.15271 0.8066 0.83823 0.0
H298 H 0.17108 0.80168 0.87927 0.0
C299 C 0.1711 0.81576 0.86635 0.0
C300 C 0.14913 0.19332 0.83022 0.0
C301 C 0.1442 0.20315 0.83611 0.0
C302 C 0.14926 0.20667 0.84723 0.0
C303 C 0.16399 0.19107 0.84621 0.0
C304 C 0.15895 0.18743 0.83543 0.0
C305 C 0.16521 0.17677 0.83046 0.0
H306 H 0.20944 0.13612 0.8357 0.0
C307 C 0.17417 0.18322 0.84911 0.0
C308 C 0.17493 0.17477 0.83994 0.0
H309 H 0.18242 0.13904 0.80766 0.0
H310 H 0.17403 0.15598 0.81752 0.0
H311 H 0.21508 0.16413 0.83759 0.0
H312 H 0.19193 0.14135 0.85766 0.0
H313 H 0.19986 0.15071 0.8677 0.0
H314 H 0.20788 0.14038 0.8587 0.0
H315 H 0.22078 0.15366 0.84835 0.0
H316 H 0.2164 0.16847 0.8526 0.0
C317 C 0.17044 0.18035 0.81834 0.0
C318 C 0.1562 0.16625 0.82976 0.0
C319 C 0.199 0.1907 0.88689 0.0
C320 C 0.20917 0.18526 0.89198 0.0
C321 C 0.21433 0.17566 0.88594 0.0
C322 C 0.2093 0.17143 0.87511 0.0
C323 C 0.19904 0.1769 0.87022 0.0
C324 C 0.19414 0.18643 0.87608 0.0
C325 C 0.18342 0.19135 0.86954 0.0
C326 C 0.18258 0.18316 0.8588 0.0
C327 C 0.19171 0.17468 0.85923 0.0
C328 C 0.18629 0.20438 0.86597 0.0
C329 C 0.17251 0.18991 0.87761 0.0
C330 C 0.20176 0.14045 0.83163 0.0
C331 C 0.1966 0.13618 0.82086 0.0
C332 C 0.1865 0.14201 0.816 0.0
C333 C 0.18167 0.15191 0.82172 0.0
C334 C 0.18697 0.15608 0.83244 0.0
C335 C 0.19683 0.15035 0.83723 0.0
C336 C 0.20128 0.156 0.84869 0.0
C337 C 0.19242 0.16603 0.85003 0.0
C338 C 0.18406 0.16606 0.84045 0.0
C339 C 0.21408 0.16077 0.84683 0.0
C340 C 0.2003 0.14667 0.85877 0.0
H341 H 0.16248 0.20392 0.86071 0.0
H342 H 0.14554 0.19036 0.82166 0.0
H343 H 0.14987 0.16663 0.83721 0.0
H344 H 0.1605 0.15747 0.8307 0.0
H345 H 0.15086 0.16644 0.82128 0.0
H346 H 0.17413 0.18958 0.81874 0.0
H347 H 0.16348 0.18006 0.81112 0.0
H348 H 0.17797 0.17473 0.81578 0.0
H349 H 0.19494 0.19823 0.89117 0.0
H350 H 0.22213 0.17129 0.88969 0.0
H351 H 0.21357 0.16403 0.871 0.0
H352 H 0.19581 0.20538 0.86361 0.0
H353 H 0.18464 0.21062 0.87341 0.0
H354 H 0.18123 0.20736 0.85796 0.0
H355 H 0.17326 0.18173 0.88316 0.0
H356 H 0.16403 0.18878 0.8725 0.0
H357 H 0.17176 0.19761 0.88376 0.0
H358 H 0.14553 0.21398 0.85215 0.0
C359 C 0.15909 0.20074 0.85226 0.0
C360 C 0.83382 0.14123 0.83033 0.0
C361 C 0.83742 0.13508 0.82016 0.0
C362 C 0.84757 0.13914 0.81418 0.0
C363 C 0.85047 0.15503 0.82869 0.0
C364 C 0.84043 0.15111 0.8344 0.0
C365 C 0.83772 0.15859 0.84507 0.0
H366 H 0.85146 0.20526 0.88109 0.0
C367 C 0.85537 0.16542 0.83537 0.0
C368 C 0.84791 0.16754 0.84497 0.0
H369 H 0.82165 0.18071 0.88299 0.0
H370 H 0.82852 0.17016 0.86592 0.0
H371 H 0.85094 0.20792 0.85204 0.0
H372 H 0.87078 0.18545 0.87635 0.0
H373 H 0.88033 0.18906 0.86476 0.0
H374 H 0.87481 0.20076 0.87412 0.0
H375 H 0.86212 0.21347 0.86241 0.0
H376 H 0.86598 0.20803 0.84796 0.0
C377 C 0.82547 0.16459 0.84274 0.0
C378 C 0.83836 0.1505 0.85626 0.0
C379 C 0.89334 0.18589 0.822 0.0
C380 C 0.90037 0.19518 0.8269 0.0
C381 C 0.89676 0.20076 0.83744 0.0
C382 C 0.88629 0.1972 0.843 0.0
C383 C 0.87936 0.18788 0.83803 0.0
C384 C 0.88298 0.18231 0.82776 0.0
C385 C 0.87478 0.1722 0.8241 0.0
C386 C 0.8656 0.17272 0.83377 0.0
C387 C 0.86826 0.182 0.84185 0.0
C388 C 0.86926 0.1751 0.81166 0.0
C389 C 0.88201 0.1605 0.82464 0.0
C390 C 0.84646 0.19756 0.87787 0.0
C391 C 0.83589 0.19393 0.88337 0.0
C392 C 0.82965 0.18389 0.87881 0.0
C393 C 0.83371 0.1777 0.86892 0.0
C394 C 0.84418 0.18151 0.86345 0.0
C395 C 0.85041 0.19125 0.86796 0.0
C396 C 0.86142 0.19388 0.861 0.0
C397 C 0.86062 0.18424 0.85148 0.0
C398 C 0.8505 0.17704 0.853 0.0
C399 C 0.86017 0.20651 0.85558 0.0
C400 C 0.87246 0.19231 0.86944 0.0
H401 H 0.86179 0.15168 0.81351 0.0
H402 H 0.82595 0.13849 0.835 0.0
H403 H 0.84552 0.14377 0.85549 0.0
H404 H 0.84067 0.15543 0.86452 0.0
H405 H 0.82983 0.14561 0.85743 0.0
H406 H 0.82397 0.16651 0.83309 0.0
H407 H 0.81805 0.15874 0.84559 0.0
H408 H 0.82477 0.17334 0.84714 0.0
H409 H 0.89598 0.18135 0.81398 0.0
H410 H 0.902 0.208 0.84132 0.0
H411 H 0.88401 0.20184 0.85096 0.0
H412 H 0.86721 0.18476 0.81091 0.0
H413 H 0.8755 0.17287 0.8045 0.0
H414 H 0.86068 0.17049 0.80987 0.0
H415 H 0.88872 0.16073 0.83212 0.0
H416 H 0.87645 0.15258 0.82639 0.0
H417 H 0.88686 0.15909 0.81627 0.0
H418 H 0.85056 0.13453 0.80635 0.0
C419 C 0.85411 0.14907 0.8184 0.0
C420 C 0.8308 0.83845 0.86841 0.0
C421 C 0.82059 0.84409 0.87264 0.0
C422 C 0.81614 0.85414 0.86648 0.0
C423 C 0.83182 0.85264 0.85212 0.0
C424 C 0.83623 0.84285 0.85819 0.0
C425 C 0.84707 0.83783 0.85247 0.0
H426 H 0.88576 0.83884 0.80726 0.0
C427 C 0.83939 0.85479 0.84174 0.0
C428 C 0.84833 0.84612 0.84188 0.0
H429 H 0.88576 0.81549 0.83795 0.0
H430 H 0.86851 0.82539 0.84525 0.0
H431 H 0.88108 0.86265 0.82248 0.0
H432 H 0.85745 0.83931 0.80235 0.0
H433 H 0.85317 0.85404 0.79929 0.0
H434 H 0.86781 0.84917 0.79538 0.0
H435 H 0.88066 0.86237 0.80649 0.0
H436 H 0.87073 0.87161 0.81473 0.0
C437 C 0.85776 0.839 0.86145 0.0
C438 C 0.84414 0.82489 0.84853 0.0
C439 C 0.83024 0.88933 0.81375 0.0
C440 C 0.8355 0.89351 0.8033 0.0
C441 C 0.84521 0.88724 0.79875 0.0
C442 C 0.84973 0.87712 0.80461 0.0
C443 C 0.84447 0.87317 0.81515 0.0
C444 C 0.83483 0.87921 0.81949 0.0
C445 C 0.83024 0.87365 0.83068 0.0
C446 C 0.83886 0.86342 0.83248 0.0
C447 C 0.84719 0.86318 0.82337 0.0
C448 C 0.83146 0.88296 0.84084 0.0
C449 C 0.81732 0.8692 0.82807 0.0
C450 C 0.88214 0.83589 0.81561 0.0
C451 C 0.88716 0.82622 0.82193 0.0
C452 C 0.88198 0.8227 0.83271 0.0
C453 C 0.87199 0.82853 0.83701 0.0
C454 C 0.86706 0.83809 0.83055 0.0
C455 C 0.8722 0.8417 0.8201 0.0
C456 C 0.866 0.85231 0.81465 0.0
C457 C 0.85622 0.85437 0.82348 0.0
C458 C 0.85684 0.84596 0.83274 0.0
C459 C 0.87503 0.86282 0.81446 0.0
C460 C 0.86087 0.84863 0.80222 0.0
H461 H 0.81782 0.86607 0.85199 0.0
H462 H 0.83456 0.83081 0.873 0.0
H463 H 0.83488 0.82422 0.84477 0.0
H464 H 0.84985 0.82168 0.84139 0.0
H465 H 0.84486 0.81865 0.8562 0.0
H466 H 0.85685 0.84697 0.86724 0.0
H467 H 0.85841 0.83108 0.86735 0.0
H468 H 0.86635 0.84036 0.85704 0.0
H469 H 0.82263 0.8938 0.81739 0.0
H470 H 0.84949 0.8903 0.79076 0.0
H471 H 0.85718 0.87281 0.80074 0.0
H472 H 0.83985 0.88822 0.84009 0.0
H473 H 0.82393 0.88932 0.8405 0.0
H474 H 0.83203 0.8789 0.84978 0.0
H475 H 0.81617 0.86616 0.81866 0.0
H476 H 0.81491 0.86135 0.83344 0.0
H477 H 0.81078 0.87638 0.82952 0.0
H478 H 0.80822 0.85858 0.86942 0.0
C479 C 0.82169 0.85844 0.85628 0.0
C480 C 0.19246 0.6375 0.6793 0.0
C481 C 0.20147 0.63124 0.67355 0.0
C482 C 0.20576 0.63565 0.66272 0.0
C483 C 0.19241 0.65245 0.66365 0.0
C484 C 0.18802 0.64801 0.67415 0.0
C485 C 0.17826 0.65565 0.6789 0.0
H486 H 0.14445 0.70521 0.67422 0.0
C487 C 0.18614 0.66366 0.66084 0.0
C488 C 0.17779 0.66558 0.66969 0.0
H489 H 0.14226 0.67655 0.69989 0.0
H490 H 0.15848 0.66663 0.69074 0.0
H491 H 0.14785 0.68762 0.65113 0.0
H492 H 0.17325 0.70662 0.67378 0.0
H493 H 0.17782 0.70784 0.65898 0.0
H494 H 0.1638 0.71417 0.66311 0.0
H495 H 0.14889 0.7036 0.6514 0.0
H496 H 0.15836 0.69484 0.6422 0.0
C497 C 0.16658 0.64816 0.67884 0.0
C498 C 0.18237 0.66031 0.69134 0.0
C499 C 0.19794 0.68738 0.62459 0.0
C500 C 0.19445 0.69843 0.61988 0.0
C501 C 0.18577 0.70506 0.6258 0.0
C502 C 0.18053 0.70061 0.63615 0.0
C503 C 0.18407 0.68946 0.64068 0.0
C504 C 0.19274 0.68314 0.63494 0.0
C505 C 0.19583 0.67171 0.64119 0.0
C506 C 0.18749 0.67209 0.65156 0.0
C507 C 0.18054 0.68245 0.65122 0.0
C508 C 0.19277 0.66125 0.63258 0.0
C509 C 0.2091 0.67247 0.64537 0.0
C510 C 0.1474 0.69676 0.67783 0.0
C511 C 0.14206 0.69178 0.68792 0.0
C512 C 0.14632 0.68079 0.69233 0.0
C513 C 0.15571 0.67494 0.68692 0.0
C514 C 0.16093 0.68002 0.67689 0.0
C515 C 0.15676 0.69072 0.67245 0.0
C516 C 0.1633 0.69458 0.66152 0.0
C517 C 0.17194 0.68435 0.66011 0.0
C518 C 0.17055 0.6759 0.66922 0.0
C519 C 0.15418 0.6953 0.65096 0.0
C520 C 0.16986 0.70647 0.66438 0.0
H521 H 0.20503 0.64911 0.64956 0.0
H522 H 0.18887 0.63423 0.68754 0.0
H523 H 0.19191 0.6631 0.69131 0.0
H524 H 0.17748 0.66827 0.69416 0.0
H525 H 0.18145 0.65328 0.69822 0.0
H526 H 0.16663 0.64105 0.67193 0.0
H527 H 0.1653 0.64376 0.68757 0.0
H528 H 0.15862 0.6535 0.67651 0.0
H529 H 0.20476 0.68219 0.62039 0.0
H530 H 0.18295 0.71361 0.62233 0.0
H531 H 0.17393 0.70601 0.64021 0.0
H532 H 0.18478 0.66328 0.62689 0.0
H533 H 0.20025 0.65946 0.62658 0.0
H534 H 0.19041 0.65295 0.63728 0.0
H535 H 0.21167 0.68175 0.64787 0.0
H536 H 0.21107 0.66719 0.65347 0.0
H537 H 0.21508 0.6696 0.6382 0.0
H538 H 0.21276 0.63103 0.65819 0.0
C539 C 0.20131 0.6462 0.65776 0.0
C540 C 0.8417 0.65012 0.68785 0.0
C541 C 0.83132 0.6435 0.68497 0.0
C542 C 0.82416 0.64702 0.67508 0.0
C543 C 0.83767 0.66347 0.6712 0.0
C544 C 0.84466 0.66002 0.6809 0.0
C545 C 0.85532 0.66806 0.68285 0.0
H546 H 0.88782 0.71614 0.66645 0.0
C547 C 0.84323 0.67418 0.66595 0.0
C548 C 0.85356 0.67693 0.67276 0.0
H549 H 0.89493 0.69146 0.69529 0.0
H550 H 0.87705 0.68049 0.69016 0.0
H551 H 0.8591 0.71801 0.67042 0.0
H552 H 0.87976 0.69613 0.6473 0.0
H553 H 0.86718 0.70102 0.63909 0.0
H554 H 0.87785 0.71181 0.64483 0.0
H555 H 0.86648 0.72395 0.65771 0.0
H556 H 0.85173 0.7175 0.65641 0.0
C557 C 0.85431 0.67404 0.69523 0.0
C558 C 0.8667 0.66052 0.68138 0.0
C559 C 0.82397 0.69365 0.62942 0.0
C560 C 0.8268 0.70384 0.62276 0.0
C561 C 0.83706 0.71054 0.62607 0.0
C562 C 0.84433 0.70718 0.63584 0.0
C563 C 0.84134 0.69701 0.64244 0.0
C564 C 0.83129 0.69044 0.63919 0.0
C565 C 0.82935 0.68005 0.64739 0.0
C566 C 0.83993 0.6814 0.65602 0.0
C567 C 0.84695 0.69134 0.65307 0.0
C568 C 0.81734 0.68184 0.65361 0.0
C569 C 0.83003 0.66846 0.63995 0.0
C570 C 0.88543 0.70843 0.67169 0.0
C571 C 0.89284 0.70462 0.68125 0.0
C572 C 0.88948 0.69447 0.68778 0.0
C573 C 0.87904 0.68813 0.68482 0.0
C574 C 0.87182 0.69189 0.67516 0.0
C575 C 0.87503 0.70188 0.66876 0.0
C576 C 0.86632 0.70432 0.6586 0.0
C577 C 0.8574 0.69416 0.66001 0.0
C578 C 0.86067 0.68696 0.66977 0.0
C579 C 0.86061 0.71661 0.66077 0.0
C580 C 0.87305 0.70338 0.64679 0.0
H581 H 0.82148 0.6591 0.66077 0.0
H582 H 0.84732 0.64778 0.69547 0.0
H583 H 0.86517 0.65333 0.67467 0.0
H584 H 0.87426 0.66574 0.67797 0.0
H585 H 0.86947 0.65621 0.68991 0.0
H586 H 0.84486 0.67607 0.69711 0.0
H587 H 0.85774 0.66812 0.70245 0.0
H588 H 0.85898 0.68272 0.69587 0.0
H589 H 0.81606 0.6884 0.62723 0.0
H590 H 0.83952 0.71836 0.62103 0.0
H591 H 0.852 0.71265 0.63788 0.0
H592 H 0.81564 0.69145 0.65518 0.0
H593 H 0.80977 0.67825 0.6481 0.0
H594 H 0.81717 0.67775 0.66256 0.0
H595 H 0.83708 0.66921 0.63322 0.0
H596 H 0.83247 0.6606 0.64536 0.0
H597 H 0.82145 0.66662 0.6351 0.0
H598 H 0.8162 0.642 0.67258 0.0
C599 C 0.82728 0.65693 0.66819 0.0
C600 C 0.88165 0.34672 0.6945 0.0
C601 C 0.88833 0.33674 0.69125 0.0
C602 C 0.88469 0.33019 0.68103 0.0
C603 C 0.86789 0.34337 0.67772 0.0
C604 C 0.87152 0.34984 0.68766 0.0
C605 C 0.86335 0.36007 0.69004 0.0
H606 H 0.81333 0.39098 0.67601 0.0
C607 C 0.85685 0.34883 0.67276 0.0
C608 C 0.85415 0.35862 0.67995 0.0
H609 H 0.83935 0.39754 0.70446 0.0
H610 H 0.85086 0.38093 0.69808 0.0
H611 H 0.81274 0.36262 0.67863 0.0
H612 H 0.83323 0.38511 0.65558 0.0
H613 H 0.82747 0.37303 0.64718 0.0
H614 H 0.81737 0.38331 0.65384 0.0
H615 H 0.80608 0.37009 0.66602 0.0
H616 H 0.81302 0.35575 0.66459 0.0
C617 C 0.85784 0.35805 0.7024 0.0
C618 C 0.87061 0.37182 0.68894 0.0
C619 C 0.83615 0.33072 0.63613 0.0
C620 C 0.82551 0.33333 0.62976 0.0
C621 C 0.81862 0.34302 0.63357 0.0
C622 C 0.82225 0.34995 0.64346 0.0
C623 C 0.83289 0.34718 0.64972 0.0
C624 C 0.83959 0.33765 0.64605 0.0
C625 C 0.85045 0.33576 0.65394 0.0
C626 C 0.84924 0.34578 0.66289 0.0
C627 C 0.83896 0.3525 0.66036 0.0
C628 C 0.84933 0.32333 0.65985 0.0
C629 C 0.86163 0.33739 0.64631 0.0
C630 C 0.82156 0.38887 0.68079 0.0
C631 C 0.82532 0.39552 0.69087 0.0
C632 C 0.83608 0.39243 0.69684 0.0
C633 C 0.84282 0.38279 0.69307 0.0
C634 C 0.83886 0.37607 0.68318 0.0
C635 C 0.82845 0.37918 0.67713 0.0
C636 C 0.82574 0.37095 0.66676 0.0
C637 C 0.83622 0.36244 0.66764 0.0
C638 C 0.84384 0.3655 0.67732 0.0
C639 C 0.81374 0.36453 0.66899 0.0
C640 C 0.82586 0.37842 0.65518 0.0
H641 H 0.87227 0.32811 0.6666 0.0
H642 H 0.8841 0.35188 0.70236 0.0
H643 H 0.87769 0.37093 0.68226 0.0
H644 H 0.86514 0.37934 0.68568 0.0
H645 H 0.87503 0.3743 0.69757 0.0
H646 H 0.85596 0.34843 0.70389 0.0
H647 H 0.864 0.36114 0.70969 0.0
H648 H 0.84916 0.36245 0.70332 0.0
H649 H 0.84179 0.32348 0.63345 0.0
H650 H 0.81027 0.34517 0.62903 0.0
H651 H 0.81659 0.35715 0.6459 0.0
H652 H 0.83985 0.32108 0.66154 0.0
H653 H 0.85287 0.31624 0.65405 0.0
H654 H 0.85383 0.32285 0.6687 0.0
H655 H 0.86032 0.34474 0.63977 0.0
H656 H 0.86966 0.33997 0.65163 0.0
H657 H 0.86352 0.32916 0.64123 0.0
H658 H 0.88975 0.32257 0.67821 0.0
C659 C 0.87455 0.33346 0.67426 0.0
C660 C 0.19309 0.38646 0.69968 0.0
C661 C 0.18809 0.39139 0.70989 0.0
C662 C 0.17838 0.38549 0.71507 0.0
C663 C 0.1786 0.37029 0.69964 0.0
C664 C 0.18825 0.376 0.69474 0.0
C665 C 0.19256 0.36977 0.68386 0.0
H666 H 0.18693 0.32496 0.64383 0.0
C667 C 0.17569 0.35971 0.69216 0.0
C668 C 0.1839 0.35937 0.68295 0.0
H669 H 0.21293 0.35362 0.64507 0.0
H670 H 0.20427 0.36135 0.6628 0.0
H671 H 0.18809 0.31932 0.67199 0.0
H672 H 0.16449 0.34116 0.6506 0.0
H673 H 0.15579 0.33326 0.66074 0.0
H674 H 0.16414 0.32518 0.64994 0.0
H675 H 0.17681 0.31305 0.66218 0.0
H676 H 0.17364 0.31723 0.67728 0.0
C677 C 0.20551 0.36561 0.68648 0.0
C678 C 0.19113 0.3784 0.67313 0.0
C679 C 0.14007 0.33341 0.70152 0.0
C680 C 0.1351 0.32313 0.69611 0.0
C681 C 0.14074 0.31818 0.68622 0.0
C682 C 0.151 0.32351 0.68165 0.0
C683 C 0.15571 0.33391 0.68702 0.0
C684 C 0.15032 0.33861 0.69687 0.0
C685 C 0.15666 0.3496 0.70154 0.0
C686 C 0.16663 0.35083 0.69276 0.0
C687 C 0.16601 0.34163 0.68425 0.0
C688 C 0.16147 0.34697 0.71432 0.0
C689 C 0.14788 0.36015 0.70067 0.0
C690 C 0.1908 0.33285 0.64799 0.0
C691 C 0.2006 0.33872 0.64298 0.0
C692 C 0.20527 0.34903 0.64861 0.0
C693 C 0.20027 0.35348 0.65898 0.0
C694 C 0.19043 0.3476 0.66381 0.0
C695 C 0.18586 0.33745 0.65835 0.0
C696 C 0.17531 0.33247 0.66475 0.0
C697 C 0.17434 0.34129 0.67495 0.0
C698 C 0.18322 0.35011 0.67433 0.0
C699 C 0.1785 0.31982 0.66925 0.0
C700 C 0.16432 0.33292 0.65611 0.0
H701 H 0.16613 0.37096 0.71425 0.0
H702 H 0.20071 0.39062 0.69561 0.0
H703 H 0.1831 0.38405 0.67401 0.0
H704 H 0.18972 0.37375 0.66454 0.0
H705 H 0.19897 0.38445 0.67252 0.0
H706 H 0.20679 0.36304 0.696 0.0
H707 H 0.21204 0.37281 0.6846 0.0
H708 H 0.20785 0.35755 0.68143 0.0
H709 H 0.13607 0.33733 0.70926 0.0
H710 H 0.13707 0.31032 0.68185 0.0
H711 H 0.15479 0.31938 0.67403 0.0
H712 H 0.1643 0.33753 0.71519 0.0
H713 H 0.15454 0.34857 0.721 0.0
H714 H 0.16952 0.35225 0.71676 0.0
H715 H 0.14246 0.35969 0.69224 0.0
H716 H 0.1524 0.36891 0.70047 0.0
H717 H 0.14165 0.36002 0.70819 0.0
H718 H 0.17434 0.38912 0.72292 0.0
C719 C 0.17359 0.37498 0.70998 0.0
C720 C 0.1959 0.32166 0.38727 0.0
C721 C 0.19026 0.31168 0.39231 0.0
C722 C 0.18011 0.30677 0.38641 0.0
C723 C 0.18119 0.32186 0.37098 0.0
C724 C 0.19126 0.32655 0.37665 0.0
C725 C 0.19619 0.33714 0.37012 0.0
H726 H 0.19191 0.37605 0.32407 0.0
C727 C 0.17856 0.32917 0.36026 0.0
C728 C 0.18736 0.33809 0.35967 0.0
H729 H 0.21887 0.37473 0.35232 0.0
H730 H 0.20921 0.3576 0.36076 0.0
H731 H 0.16958 0.37052 0.34081 0.0
H732 H 0.19089 0.34763 0.31929 0.0
H733 H 0.17595 0.34307 0.31741 0.0
H734 H 0.18032 0.35785 0.31287 0.0
H735 H 0.16876 0.37077 0.32482 0.0
H736 H 0.15995 0.36048 0.33327 0.0
C737 C 0.19569 0.3481 0.37847 0.0
C738 C 0.20886 0.334 0.36603 0.0
C739 C 0.14157 0.32015 0.33468 0.0
C740 C 0.13653 0.32541 0.32436 0.0
C741 C 0.14257 0.33503 0.31908 0.0
C742 C 0.15329 0.33948 0.32413 0.0
C743 C 0.15808 0.33425 0.33459 0.0
C744 C 0.15226 0.32468 0.3396 0.0
C745 C 0.15865 0.32012 0.35061 0.0
C746 C 0.1692 0.32863 0.35149 0.0
C747 C 0.16883 0.33693 0.34211 0.0
C748 C 0.15026 0.32152 0.36124 0.0
C749 C 0.16258 0.30715 0.34822 0.0
C750 C 0.19579 0.37201 0.33202 0.0
C751 C 0.20617 0.37683 0.33755 0.0
C752 C 0.2108 0.37135 0.34797 0.0
C753 C 0.20521 0.36133 0.35283 0.0
C754 C 0.19482 0.35668 0.34726 0.0
C755 C 0.19029 0.36199 0.33702 0.0
C756 C 0.17914 0.35582 0.33236 0.0
C757 C 0.17778 0.34592 0.34146 0.0
C758 C 0.18699 0.34649 0.35018 0.0
C759 C 0.16877 0.36482 0.33272 0.0
C760 C 0.18158 0.35087 0.31979 0.0
H761 H 0.16775 0.30769 0.37183 0.0
H762 H 0.20381 0.32555 0.39147 0.0
H763 H 0.20944 0.32439 0.36371 0.0
H764 H 0.21136 0.33875 0.35785 0.0
H765 H 0.21565 0.33586 0.37318 0.0
H766 H 0.18747 0.34786 0.38379 0.0
H767 H 0.20345 0.34833 0.38482 0.0
H768 H 0.19527 0.35664 0.37361 0.0
H769 H 0.13729 0.3126 0.33885 0.0
H770 H 0.13886 0.33928 0.31116 0.0
H771 H 0.15739 0.3469 0.31976 0.0
H772 H 0.1452 0.32999 0.36051 0.0
H773 H 0.14368 0.31409 0.3615 0.0
H774 H 0.15506 0.32206 0.36993 0.0
H775 H 0.16468 0.30584 0.33868 0.0
H776 H 0.17086 0.30475 0.35317 0.0
H777 H 0.15543 0.30068 0.35043 0.0
H778 H 0.17553 0.29916 0.39013 0.0
C779 C 0.17556 0.31179 0.3758 0.0
C780 C 0.19366 0.62645 0.32098 0.0
C781 C 0.18895 0.6205 0.3108 0.0
C782 C 0.17872 0.62519 0.30498 0.0
C783 C 0.17832 0.64155 0.31909 0.0
C784 C 0.18824 0.63691 0.32493 0.0
C785 C 0.19216 0.64441 0.33551 0.0
H786 H 0.18491 0.69459 0.36836 0.0
C787 C 0.17507 0.65271 0.32516 0.0
C788 C 0.1832 0.65449 0.33478 0.0
H789 H 0.21026 0.66648 0.37505 0.0
H790 H 0.2026 0.65577 0.35764 0.0
H791 H 0.1629 0.67713 0.36244 0.0
H792 H 0.18766 0.69618 0.3409 0.0
H793 H 0.17413 0.6962 0.33271 0.0
H794 H 0.17506 0.70334 0.34714 0.0
H795 H 0.16281 0.69302 0.36066 0.0
H796 H 0.15464 0.68334 0.35052 0.0
C797 C 0.19076 0.63685 0.34693 0.0
C798 C 0.20502 0.64889 0.33353 0.0
C799 C 0.13937 0.67683 0.31009 0.0
C800 C 0.13502 0.68805 0.31336 0.0
C801 C 0.14101 0.69459 0.32242 0.0
C802 C 0.15105 0.68995 0.32835 0.0
C803 C 0.15526 0.67867 0.32515 0.0
C804 C 0.14961 0.6724 0.31599 0.0
C805 C 0.15593 0.66095 0.31332 0.0
C806 C 0.166 0.66121 0.3227 0.0
C807 C 0.16541 0.67154 0.32966 0.0
C808 C 0.14718 0.65047 0.31535 0.0
C809 C 0.16065 0.66173 0.30049 0.0
C810 C 0.18892 0.68619 0.36601 0.0
C811 C 0.19827 0.68143 0.37301 0.0
C812 C 0.20302 0.67032 0.3698 0.0
C813 C 0.19857 0.66414 0.35969 0.0
C814 C 0.18919 0.66907 0.35277 0.0
C815 C 0.1845 0.67989 0.35608 0.0
C816 C 0.1743 0.68367 0.34809 0.0
C817 C 0.17357 0.67335 0.33938 0.0
C818 C 0.18235 0.66483 0.34205 0.0
C819 C 0.16304 0.68444 0.35574 0.0
C820 C 0.17785 0.6955 0.34191 0.0
H821 H 0.16565 0.6387 0.30422 0.0
H822 H 0.20153 0.62316 0.32565 0.0
H823 H 0.206 0.65193 0.32417 0.0
H824 H 0.20752 0.65662 0.33914 0.0
H825 H 0.21156 0.64168 0.33525 0.0
H826 H 0.18292 0.63076 0.34605 0.0
H827 H 0.19876 0.6313 0.3487 0.0
H828 H 0.18906 0.64232 0.35487 0.0
H829 H 0.135 0.67173 0.30302 0.0
H830 H 0.13775 0.70323 0.32506 0.0
H831 H 0.1551 0.69533 0.33526 0.0
H832 H 0.1421 0.65192 0.32359 0.0
H833 H 0.14063 0.64961 0.30779 0.0
H834 H 0.1517 0.64186 0.31665 0.0
H835 H 0.16256 0.67112 0.29793 0.0
H836 H 0.16922 0.65712 0.29951 0.0
H837 H 0.15404 0.65809 0.29387 0.0
H838 H 0.17472 0.62072 0.2973 0.0
C839 C 0.1734 0.63563 0.30906 0.0
C840 C 0.82132 0.63904 0.3301 0.0
C841 C 0.82345 0.63253 0.31967 0.0
C842 C 0.83336 0.6356 0.31283 0.0
C843 C 0.83863 0.65157 0.32656 0.0
C844 C 0.82897 0.64852 0.33333 0.0
C845 C 0.82778 0.65662 0.34391 0.0
H846 H 0.84738 0.70468 0.3755 0.0
C847 C 0.84469 0.66193 0.33224 0.0
C848 C 0.83838 0.66493 0.34243 0.0
H849 H 0.81682 0.68214 0.38202 0.0
H850 H 0.82153 0.66987 0.36522 0.0
H851 H 0.84383 0.70553 0.34684 0.0
H852 H 0.86527 0.68336 0.37006 0.0
H853 H 0.87363 0.68614 0.35737 0.0
H854 H 0.86949 0.69842 0.36675 0.0
H855 H 0.85646 0.71105 0.35539 0.0
H856 H 0.85813 0.70451 0.34091 0.0
C857 C 0.81575 0.66324 0.34252 0.0
C858 C 0.82907 0.64898 0.35536 0.0
C859 C 0.8813 0.68009 0.31339 0.0
C860 C 0.88907 0.68943 0.3168 0.0
C861 C 0.88702 0.69567 0.32745 0.0
C862 C 0.8773 0.69274 0.3345 0.0
C863 C 0.86956 0.68342 0.33094 0.0
C864 C 0.87171 0.67718 0.32061 0.0
C865 C 0.86283 0.66726 0.31847 0.0
C866 C 0.85492 0.66865 0.32913 0.0
C867 C 0.85883 0.67821 0.33635 0.0
C868 C 0.856 0.66979 0.30657 0.0
C869 C 0.86964 0.65529 0.31879 0.0
C870 C 0.84177 0.69703 0.37338 0.0
C871 C 0.83165 0.69445 0.38007 0.0
C872 C 0.82454 0.68446 0.37691 0.0
C873 C 0.82733 0.6773 0.36716 0.0
C874 C 0.83732 0.68013 0.36042 0.0
C875 C 0.84441 0.6898 0.36362 0.0
C876 C 0.85464 0.69147 0.35538 0.0
C877 C 0.85241 0.68132 0.34662 0.0
C878 C 0.84225 0.67471 0.34963 0.0
C879 C 0.85333 0.7038 0.34931 0.0
C880 C 0.86642 0.68987 0.3627 0.0
H881 H 0.84831 0.64692 0.3106 0.0
H882 H 0.81371 0.63699 0.33548 0.0
H883 H 0.8359 0.64196 0.35428 0.0
H884 H 0.83219 0.65418 0.3632 0.0
H885 H 0.82053 0.64448 0.35742 0.0
H886 H 0.8135 0.66501 0.33297 0.0
H887 H 0.80834 0.6579 0.3462 0.0
H888 H 0.81593 0.67213 0.34674 0.0
H889 H 0.88275 0.67501 0.30536 0.0
H890 H 0.89285 0.70295 0.33022 0.0
H891 H 0.87618 0.69788 0.34245 0.0
H892 H 0.85433 0.67949 0.3055 0.0
H893 H 0.86118 0.66683 0.29883 0.0
H894 H 0.84708 0.66558 0.30605 0.0
H895 H 0.87738 0.65571 0.32518 0.0
H896 H 0.86416 0.64778 0.32195 0.0
H897 H 0.8731 0.65307 0.30989 0.0
H898 H 0.8353 0.63063 0.30485 0.0
C899 C 0.84095 0.64504 0.31622 0.0
C900 C 0.82773 0.3279 0.38499 0.0
C901 C 0.81744 0.33356 0.38901 0.0
C902 C 0.81384 0.3443 0.38353 0.0
C903 C 0.83039 0.34331 0.37009 0.0
C904 C 0.83401 0.33289 0.37558 0.0
C905 C 0.845 0.32784 0.37016 0.0
H906 H 0.88745 0.33128 0.32856 0.0
C907 C 0.83877 0.34596 0.36045 0.0
C908 C 0.84735 0.33692 0.36048 0.0
H909 H 0.88311 0.30435 0.35567 0.0
H910 H 0.866 0.31462 0.36295 0.0
H911 H 0.88247 0.35346 0.3452 0.0
H912 H 0.85945 0.33325 0.32136 0.0
H913 H 0.85598 0.34836 0.31936 0.0
H914 H 0.87075 0.34325 0.3162 0.0
H915 H 0.88295 0.35506 0.32932 0.0
H916 H 0.87289 0.36367 0.3381 0.0
C917 C 0.85509 0.32776 0.37986 0.0
C918 C 0.84176 0.31542 0.36492 0.0
C919 C 0.83248 0.38238 0.33405 0.0
C920 C 0.83877 0.38708 0.32442 0.0
C921 C 0.84906 0.38117 0.32071 0.0
C922 C 0.85299 0.37076 0.32641 0.0
C923 C 0.84658 0.36614 0.33597 0.0
C924 C 0.83654 0.37197 0.33968 0.0
C925 C 0.83095 0.36581 0.35008 0.0
C926 C 0.83925 0.35531 0.35193 0.0
C927 C 0.84836 0.35554 0.34361 0.0
C928 C 0.83143 0.37445 0.36084 0.0
C929 C 0.81821 0.36176 0.34615 0.0
C930 C 0.88276 0.32754 0.336 0.0
C931 C 0.88668 0.31697 0.34153 0.0
C932 C 0.88039 0.31254 0.35133 0.0
C933 C 0.87039 0.31849 0.3555 0.0
C934 C 0.86657 0.32901 0.34985 0.0
C935 C 0.87275 0.33338 0.34029 0.0
C936 C 0.86745 0.34471 0.33544 0.0
C937 C 0.85704 0.34639 0.34362 0.0
C938 C 0.85655 0.33715 0.35202 0.0
C939 C 0.87689 0.35479 0.33697 0.0
C940 C 0.86323 0.3424 0.32238 0.0
H941 H 0.81697 0.35732 0.37026 0.0
H942 H 0.83088 0.31974 0.3891 0.0
H943 H 0.83253 0.31532 0.36104 0.0
H944 H 0.84744 0.31283 0.3575 0.0
H945 H 0.84226 0.30843 0.37191 0.0
H946 H 0.85447 0.33563 0.38584 0.0
H947 H 0.85457 0.31965 0.38548 0.0
H948 H 0.86407 0.32842 0.37613 0.0
H949 H 0.82462 0.38677 0.33723 0.0
H950 H 0.854 0.38449 0.31323 0.0
H951 H 0.86084 0.36667 0.3231 0.0
H952 H 0.83975 0.37991 0.36091 0.0
H953 H 0.82378 0.38067 0.36051 0.0
H954 H 0.83163 0.36979 0.36951 0.0
H955 H 0.81802 0.35861 0.33675 0.0
H956 H 0.8149 0.35414 0.35134 0.0
H957 H 0.81181 0.36921 0.34676 0.0
H958 H 0.8059 0.3488 0.38636 0.0
C959 C 0.82024 0.34919 0.37412 0.0
C960 C 0.68957 0.19918 0.63064 0.0
C961 C 0.69909 0.19567 0.62358 0.0
C962 C 0.70568 0.1855 0.62697 0.0
C963 C 0.69309 0.18239 0.64392 0.0
C964 C 0.68671 0.19242 0.64068 0.0
C965 C 0.67662 0.19472 0.6489 0.0
H966 H 0.6442 0.17728 0.69588 0.0
C967 C 0.68759 0.17715 0.65457 0.0
C968 C 0.67789 0.18434 0.65749 0.0
H969 H 0.63964 0.20892 0.67427 0.0
H970 H 0.65634 0.20329 0.66252 0.0
H971 H 0.64962 0.15947 0.67504 0.0
H972 H 0.67242 0.18004 0.69867 0.0
H973 H 0.67928 0.16618 0.69709 0.0
H974 H 0.66469 0.1669 0.7034 0.0
H975 H 0.65225 0.15544 0.69034 0.0
H976 H 0.66181 0.15037 0.67874 0.0
C977 C 0.66479 0.19405 0.64149 0.0
C978 C 0.67897 0.20685 0.65517 0.0
C979 C 0.7048 0.13964 0.67397 0.0
C980 C 0.70132 0.1328 0.68383 0.0
C981 C 0.69091 0.13603 0.68978 0.0
C982 C 0.68431 0.14599 0.68626 0.0
C983 C 0.68803 0.15288 0.67662 0.0
C984 C 0.69803 0.14962 0.67053 0.0
C985 C 0.70037 0.15795 0.6603 0.0
C986 C 0.69029 0.16684 0.66147 0.0
C987 C 0.68313 0.16379 0.67108 0.0
C988 C 0.69921 0.1507 0.64857 0.0
C989 C 0.71273 0.16387 0.66251 0.0
C990 C 0.64683 0.1831 0.6887 0.0
C991 C 0.64048 0.19356 0.68604 0.0
C992 C 0.64419 0.20071 0.67645 0.0
C993 C 0.65398 0.19747 0.66967 0.0
C994 C 0.66021 0.18699 0.67249 0.0
C995 C 0.65663 0.18005 0.68192 0.0
C996 C 0.66447 0.1694 0.68387 0.0
C997 C 0.67331 0.17103 0.67401 0.0
C998 C 0.67075 0.18129 0.66731 0.0
C999 C 0.6567 0.15803 0.68201 0.0
C1000 C 0.67051 0.17055 0.69642 0.0
H1001 H 0.7081 0.17124 0.63916 0.0
H1002 H 0.68425 0.20686 0.62823 0.0
H1003 H 0.68869 0.20843 0.65674 0.0
H1004 H 0.67513 0.20729 0.66411 0.0
H1005 H 0.67548 0.21434 0.64967 0.0
H1006 H 0.66506 0.18674 0.63481 0.0
H1007 H 0.66314 0.2025 0.63658 0.0
H1008 H 0.65699 0.192 0.64692 0.0
H1009 H 0.71271 0.1374 0.66915 0.0
H1010 H 0.68777 0.13078 0.69716 0.0
H1011 H 0.67654 0.14792 0.69123 0.0
H1012 H 0.69228 0.1436 0.64923 0.0
H1013 H 0.70774 0.14632 0.6465 0.0
H1014 H 0.69626 0.15616 0.64087 0.0
H1015 H 0.71407 0.16625 0.67208 0.0
H1016 H 0.7138 0.17232 0.65762 0.0
H1017 H 0.72001 0.15776 0.66008 0.0
H1018 H 0.71316 0.18269 0.6218 0.0
C1019 C 0.70275 0.17888 0.63709 0.0
C1020 C 0.34648 0.14379 0.69765 0.0
C1021 C 0.33575 0.13775 0.69479 0.0
C1022 C 0.32861 0.14189 0.68513 0.0
C1023 C 0.34283 0.15779 0.68147 0.0
C1024 C 0.34982 0.15373 0.69092 0.0
C1025 C 0.36088 0.16118 0.6929 0.0
H1026 H 0.39465 0.2089 0.67795 0.0
C1027 C 0.34881 0.16837 0.6764 0.0
C1028 C 0.35941 0.17039 0.68308 0.0
H1029 H 0.40146 0.18302 0.70578 0.0
H1030 H 0.38345 0.17241 0.70016 0.0
H1031 H 0.36596 0.21102 0.68196 0.0
H1032 H 0.3869 0.19019 0.65827 0.0
H1033 H 0.37388 0.19402 0.65022 0.0
H1034 H 0.38392 0.20563 0.65552 0.0
H1035 H 0.37404 0.21735 0.66988 0.0
H1036 H 0.35911 0.21161 0.66769 0.0
C1037 C 0.36037 0.16687 0.70546 0.0
C1038 C 0.37185 0.15316 0.69103 0.0
C1039 C 0.32984 0.19032 0.64103 0.0
C1040 C 0.33335 0.20043 0.63452 0.0
C1041 C 0.34425 0.20611 0.63767 0.0
C1042 C 0.35141 0.20199 0.64718 0.0
C1043 C 0.34773 0.19201 0.65368 0.0
C1044 C 0.33715 0.18628 0.65053 0.0
C1045 C 0.33479 0.17572 0.65842 0.0
C1046 C 0.34568 0.17607 0.66677 0.0
C1047 C 0.3532 0.18568 0.66397 0.0
C1048 C 0.32314 0.17803 0.66509 0.0
C1049 C 0.33447 0.16438 0.65054 0.0
C1050 C 0.3922 0.20099 0.68286 0.0
C1051 C 0.39951 0.19679 0.69231 0.0
C1052 C 0.39608 0.18636 0.69837 0.0
C1053 C 0.38556 0.18024 0.69514 0.0
C1054 C 0.37833 0.18453 0.6857 0.0
C1055 C 0.38173 0.19469 0.67967 0.0
C1056 C 0.37307 0.19771 0.66967 0.0
C1057 C 0.36386 0.18779 0.67081 0.0
C1058 C 0.36697 0.18015 0.68026 0.0
C1059 C 0.36776 0.2101 0.67231 0.0
C1060 C 0.37972 0.19696 0.65777 0.0
H1061 H 0.32628 0.15451 0.67122 0.0
H1062 H 0.35211 0.14097 0.7051 0.0
H1063 H 0.36989 0.14628 0.68409 0.0
H1064 H 0.37962 0.15813 0.68772 0.0
H1065 H 0.37449 0.14844 0.69938 0.0
H1066 H 0.35109 0.16943 0.7075 0.0
H1067 H 0.36348 0.16054 0.71246 0.0
H1068 H 0.36559 0.17521 0.70631 0.0
H1069 H 0.32152 0.18575 0.63892 0.0
H1070 H 0.34735 0.21373 0.63268 0.0
H1071 H 0.35956 0.20675 0.64909 0.0
H1072 H 0.32241 0.18761 0.66751 0.0
H1073 H 0.31518 0.17563 0.65946 0.0
H1074 H 0.32272 0.17321 0.67363 0.0
H1075 H 0.34118 0.16501 0.64345 0.0
H1076 H 0.3368 0.15623 0.65554 0.0
H1077 H 0.32559 0.16313 0.6461 0.0
H1078 H 0.32037 0.13735 0.68263 0.0
C1079 C 0.33209 0.15184 0.67846 0.0
C1080 C 0.37361 0.84672 0.69033 0.0
C1081 C 0.37951 0.83649 0.68635 0.0
C1082 C 0.37485 0.83055 0.67612 0.0
C1083 C 0.35872 0.84477 0.67431 0.0
C1084 C 0.36327 0.8506 0.68429 0.0
C1085 C 0.35572 0.86098 0.68776 0.0
H1086 H 0.30627 0.89425 0.67828 0.0
C1087 C 0.34767 0.85091 0.67034 0.0
C1088 C 0.34584 0.86038 0.67826 0.0
H1089 H 0.33347 0.89837 0.70603 0.0
H1090 H 0.34423 0.88177 0.69813 0.0
H1091 H 0.30415 0.86694 0.67968 0.0
H1092 H 0.32496 0.88898 0.6567 0.0
H1093 H 0.31823 0.8777 0.64791 0.0
H1094 H 0.309 0.88799 0.6557 0.0
H1095 H 0.29766 0.87403 0.66676 0.0
H1096 H 0.30435 0.85948 0.66596 0.0
C1097 C 0.35099 0.85857 0.70039 0.0
C1098 C 0.36331 0.8725 0.68673 0.0
C1099 C 0.32418 0.83666 0.63339 0.0
C1100 C 0.31322 0.84019 0.6282 0.0
C1101 C 0.30691 0.84953 0.63342 0.0
C1102 C 0.31147 0.85541 0.64357 0.0
C1103 C 0.32244 0.85184 0.64869 0.0
C1104 C 0.32854 0.8425 0.6437 0.0
C1105 C 0.33969 0.8395 0.65086 0.0
C1106 C 0.33941 0.8488 0.66071 0.0
C1107 C 0.32933 0.85605 0.6593 0.0
C1108 C 0.33831 0.82667 0.65576 0.0
C1109 C 0.35051 0.84131 0.6428 0.0
C1110 C 0.31462 0.89166 0.68257 0.0
C1111 C 0.31899 0.89763 0.69282 0.0
C1112 C 0.32981 0.89384 0.69822 0.0
C1113 C 0.33608 0.88421 0.69358 0.0
C1114 C 0.33149 0.87822 0.68344 0.0
C1115 C 0.32096 0.88202 0.67808 0.0
C1116 C 0.31737 0.87452 0.66745 0.0
C1117 C 0.32747 0.8656 0.66733 0.0
C1118 C 0.33571 0.86779 0.67671 0.0
C1119 C 0.30522 0.86845 0.66997 0.0
C1120 C 0.31728 0.88265 0.65631 0.0
H1121 H 0.36148 0.8297 0.6624 0.0
H1122 H 0.37695 0.85167 0.69802 0.0
H1123 H 0.36929 0.87198 0.67901 0.0
H1124 H 0.35789 0.88052 0.68506 0.0
H1125 H 0.369 0.87394 0.69486 0.0
H1126 H 0.34914 0.84891 0.70168 0.0
H1127 H 0.35761 0.86138 0.70739 0.0
H1128 H 0.34243 0.86296 0.70199 0.0
H1129 H 0.32911 0.82937 0.62964 0.0
H1130 H 0.29846 0.85238 0.62953 0.0
H1131 H 0.30625 0.86249 0.64706 0.0
H1132 H 0.32881 0.82445 0.65733 0.0
H1133 H 0.3417 0.81999 0.64941 0.0
H1134 H 0.34285 0.82545 0.66453 0.0
H1135 H 0.3496 0.8497 0.6376 0.0
H1136 H 0.35902 0.84217 0.64788 0.0
H1137 H 0.35121 0.83384 0.63637 0.0
H1138 H 0.37902 0.82255 0.67289 0.0
C1139 C 0.36456 0.83465 0.67008 0.0
C1140 C 0.68382 0.87751 0.68533 0.0
C1141 C 0.67821 0.88242 0.69525 0.0
C1142 C 0.66772 0.87691 0.69928 0.0
C1143 C 0.66865 0.862 0.68368 0.0
C1144 C 0.67888 0.86743 0.67968 0.0
C1145 C 0.68356 0.86142 0.66882 0.0
H1146 H 0.67832 0.8183 0.62685 0.0
C1147 C 0.66587 0.85172 0.67578 0.0
C1148 C 0.67455 0.85137 0.66704 0.0
H1149 H 0.70466 0.84654 0.62994 0.0
H1150 H 0.69569 0.8536 0.64779 0.0
H1151 H 0.67861 0.81166 0.65505 0.0
H1152 H 0.65578 0.83443 0.63377 0.0
H1153 H 0.64681 0.82588 0.64317 0.0
H1154 H 0.65563 0.8185 0.63226 0.0
H1155 H 0.6676 0.80577 0.64471 0.0
H1156 H 0.66396 0.80958 0.6598 0.0
C1157 C 0.69617 0.85665 0.67199 0.0
C1158 C 0.6831 0.87048 0.65838 0.0
C1159 C 0.62978 0.82552 0.68355 0.0
C1160 C 0.62496 0.8153 0.67793 0.0
C1161 C 0.63084 0.81049 0.6681 0.0
C1162 C 0.64121 0.8159 0.66383 0.0
C1163 C 0.6458 0.82622 0.66945 0.0
C1164 C 0.64015 0.83078 0.67922 0.0
C1165 C 0.64637 0.84167 0.68422 0.0
C1166 C 0.65665 0.84297 0.67581 0.0
C1167 C 0.65625 0.83394 0.66712 0.0
C1168 C 0.65074 0.83882 0.69711 0.0
C1169 C 0.63766 0.85229 0.6832 0.0
C1170 C 0.68219 0.82595 0.63144 0.0
C1171 C 0.69217 0.83193 0.6269 0.0
C1172 C 0.69687 0.8419 0.63311 0.0
C1173 C 0.69167 0.84596 0.64353 0.0
C1174 C 0.6816 0.84004 0.64785 0.0
C1175 C 0.67704 0.83018 0.64187 0.0
C1176 C 0.66621 0.82513 0.64777 0.0
C1177 C 0.66498 0.83367 0.65818 0.0
C1178 C 0.67406 0.84235 0.65816 0.0
C1179 C 0.66912 0.81233 0.65202 0.0
C1180 C 0.6555 0.82591 0.63882 0.0
H1181 H 0.65493 0.86301 0.69708 0.0
H1182 H 0.69196 0.88137 0.68202 0.0
H1183 H 0.67569 0.87689 0.65937 0.0
H1184 H 0.68127 0.86622 0.64964 0.0
H1185 H 0.69151 0.87573 0.658 0.0
H1186 H 0.69657 0.85309 0.68124 0.0
H1187 H 0.703 0.86383 0.67141 0.0
H1188 H 0.69876 0.84912 0.66632 0.0
H1189 H 0.62561 0.82933 0.69124 0.0
H1190 H 0.62728 0.80267 0.66356 0.0
H1191 H 0.64519 0.81189 0.65625 0.0
H1192 H 0.65391 0.82947 0.69779 0.0
H1193 H 0.64346 0.83991 0.70351 0.0
H1194 H 0.65845 0.84433 0.70008 0.0
H1195 H 0.63191 0.85155 0.675 0.0
H1196 H 0.64226 0.86097 0.68238 0.0
H1197 H 0.63172 0.85259 0.69094 0.0
H1198 H 0.66305 0.88055 0.70674 0.0
C1199 C 0.66294 0.86674 0.69358 0.0
C1200 C 0.6881 0.82293 0.37547 0.0
C1201 C 0.68303 0.81245 0.38009 0.0
C1202 C 0.67247 0.80789 0.37467 0.0
C1203 C 0.67242 0.82394 0.36016 0.0
C1204 C 0.68269 0.82848 0.36557 0.0
C1205 C 0.68703 0.8396 0.35952 0.0
H1206 H 0.68075 0.88031 0.31531 0.0
C1207 C 0.66921 0.83174 0.34994 0.0
C1208 C 0.67774 0.84093 0.34953 0.0
H1209 H 0.708 0.8788 0.34326 0.0
H1210 H 0.69886 0.86118 0.35126 0.0
H1211 H 0.65881 0.87381 0.33205 0.0
H1212 H 0.68029 0.85192 0.30971 0.0
H1213 H 0.66536 0.84736 0.30766 0.0
H1214 H 0.66965 0.86232 0.30372 0.0
H1215 H 0.65751 0.87425 0.31608 0.0
H1216 H 0.64927 0.86356 0.32467 0.0
C1217 C 0.68663 0.85001 0.36858 0.0
C1218 C 0.69957 0.83709 0.35469 0.0
C1219 C 0.6327 0.82197 0.32387 0.0
C1220 C 0.62738 0.82744 0.31379 0.0
C1221 C 0.63276 0.83779 0.30918 0.0
C1222 C 0.64315 0.84265 0.31456 0.0
C1223 C 0.64828 0.8371 0.32467 0.0
C1224 C 0.64304 0.82693 0.32914 0.0
C1225 C 0.64968 0.82221 0.33995 0.0
C1226 C 0.65975 0.83124 0.34127 0.0
C1227 C 0.65892 0.83995 0.33229 0.0
C1228 C 0.64123 0.82259 0.35063 0.0
C1229 C 0.6543 0.80962 0.33693 0.0
C1230 C 0.68479 0.87613 0.3231 0.0
C1231 C 0.69512 0.88102 0.32866 0.0
C1232 C 0.69997 0.87536 0.33889 0.0
C1233 C 0.69468 0.86505 0.34349 0.0
C1234 C 0.68439 0.86028 0.33784 0.0
C1235 C 0.67959 0.86582 0.32784 0.0
C1236 C 0.66854 0.85951 0.32311 0.0
C1237 C 0.66756 0.84927 0.33189 0.0
C1238 C 0.67689 0.84976 0.34048 0.0
C1239 C 0.65793 0.86819 0.3239 0.0
C1240 C 0.67096 0.85508 0.31035 0.0
H1241 H 0.65918 0.80958 0.36099 0.0
H1242 H 0.69611 0.8268 0.37951 0.0
H1243 H 0.70015 0.82777 0.35139 0.0
H1244 H 0.70176 0.84269 0.34696 0.0
H1245 H 0.70659 0.83832 0.36176 0.0
H1246 H 0.67897 0.84894 0.37458 0.0
H1247 H 0.69489 0.85039 0.37425 0.0
H1248 H 0.68525 0.85875 0.36427 0.0
H1249 H 0.62896 0.8139 0.32756 0.0
H1250 H 0.62882 0.84227 0.30151 0.0
H1251 H 0.64676 0.85057 0.31065 0.0
H1252 H 0.63537 0.83053 0.35008 0.0
H1253 H 0.6354 0.81456 0.35079 0.0
H1254 H 0.64604 0.82345 0.3593 0.0
H1255 H 0.65706 0.80916 0.3275 0.0
H1256 H 0.66234 0.80716 0.34223 0.0
H1257 H 0.64729 0.80274 0.33818 0.0
H1258 H 0.66842 0.79978 0.37794 0.0
C1259 C 0.66715 0.81356 0.36475 0.0
C1260 C 0.68817 0.12997 0.31913 0.0
C1261 C 0.68313 0.12457 0.30882 0.0
C1262 C 0.67253 0.12929 0.30379 0.0
C1263 C 0.67241 0.14467 0.31898 0.0
C1264 C 0.6827 0.13997 0.324 0.0
C1265 C 0.68705 0.1469 0.33477 0.0
H1266 H 0.68052 0.19327 0.37267 0.0
C1267 C 0.66922 0.15529 0.326 0.0
C1268 C 0.67778 0.15666 0.33526 0.0
H1269 H 0.7076 0.16606 0.37352 0.0
H1270 H 0.69876 0.15697 0.35599 0.0
H1271 H 0.65816 0.17543 0.36564 0.0
H1272 H 0.68083 0.19744 0.34422 0.0
H1273 H 0.66626 0.19836 0.33821 0.0
H1274 H 0.66943 0.20368 0.35315 0.0
H1275 H 0.65799 0.19142 0.36618 0.0
H1276 H 0.64924 0.18327 0.3552 0.0
C1277 C 0.68661 0.13856 0.34575 0.0
C1278 C 0.69961 0.15197 0.33219 0.0
C1279 C 0.63254 0.179 0.31385 0.0
C1280 C 0.62763 0.18964 0.31802 0.0
C1281 C 0.6333 0.19558 0.32772 0.0
C1282 C 0.64362 0.19091 0.33326 0.0
C1283 C 0.64841 0.18023 0.329 0.0
C1284 C 0.64292 0.17455 0.31937 0.0
C1285 C 0.64953 0.16364 0.31562 0.0
C1286 C 0.65977 0.16356 0.32472 0.0
C1287 C 0.65905 0.17323 0.33262 0.0
C1288 C 0.64118 0.15271 0.31702 0.0
C1289 C 0.65389 0.16568 0.30278 0.0
C1290 C 0.68458 0.1854 0.36902 0.0
C1291 C 0.69474 0.18034 0.37461 0.0
C1292 C 0.69967 0.17003 0.36958 0.0
C1293 C 0.69455 0.16478 0.35932 0.0
C1294 C 0.68436 0.16985 0.35392 0.0
C1295 C 0.67954 0.18 0.35875 0.0
C1296 C 0.66865 0.18407 0.35175 0.0
C1297 C 0.6677 0.17461 0.34205 0.0
C1298 C 0.67697 0.16634 0.34337 0.0
C1299 C 0.65789 0.18363 0.36007 0.0
C1300 C 0.67131 0.19657 0.34659 0.0
H1301 H 0.65915 0.14245 0.30449 0.0
H1302 H 0.69621 0.1265 0.32335 0.0
H1303 H 0.70017 0.15472 0.3227 0.0
H1304 H 0.70184 0.1601 0.33735 0.0
H1305 H 0.7066 0.14521 0.33396 0.0
H1306 H 0.67902 0.13215 0.34489 0.0
H1307 H 0.69491 0.13329 0.34675 0.0
H1308 H 0.68508 0.14338 0.35414 0.0
H1309 H 0.62851 0.17436 0.30627 0.0
H1310 H 0.62966 0.20379 0.33108 0.0
H1311 H 0.64748 0.19579 0.34064 0.0
H1312 H 0.63588 0.15353 0.3252 0.0
H1313 H 0.63481 0.1519 0.3093 0.0
H1314 H 0.64604 0.14426 0.31809 0.0
H1315 H 0.65572 0.17528 0.3011 0.0
H1316 H 0.66242 0.16123 0.3011 0.0
H1317 H 0.6471 0.16265 0.29603 0.0
H1318 H 0.66851 0.12543 0.29579 0.0
C1319 C 0.66715 0.13926 0.30881 0.0
C1320 C 0.3216 0.13609 0.34146 0.0
C1321 C 0.32525 0.12932 0.33169 0.0
C1322 C 0.33581 0.13267 0.32597 0.0
C1323 C 0.33863 0.14937 0.33952 0.0
C1324 C 0.32835 0.14601 0.34519 0.0
C1325 C 0.32555 0.15419 0.35532 0.0
H1326 H 0.34016 0.20276 0.38851 0.0
C1327 C 0.34341 0.16024 0.34547 0.0
C1328 C 0.33575 0.16309 0.35474 0.0
H1329 H 0.30976 0.17926 0.39226 0.0
H1330 H 0.31624 0.1674 0.37574 0.0
H1331 H 0.33769 0.20524 0.36136 0.0
H1332 H 0.35943 0.18231 0.38326 0.0
H1333 H 0.36845 0.18786 0.37193 0.0
H1334 H 0.36176 0.1981 0.38208 0.0
H1335 H 0.35164 0.21025 0.3678 0.0
H1336 H 0.3507 0.20317 0.35334 0.0
C1337 C 0.31334 0.16006 0.35252 0.0
C1338 C 0.32606 0.14687 0.36702 0.0
C1339 C 0.38106 0.18063 0.33073 0.0
C1340 C 0.38686 0.19129 0.33414 0.0
C1341 C 0.38246 0.19803 0.34359 0.0
C1342 C 0.37241 0.19423 0.34964 0.0
C1343 C 0.36658 0.18363 0.34613 0.0
C1344 C 0.37084 0.17704 0.33677 0.0
C1345 C 0.36304 0.16634 0.33399 0.0
C1346 C 0.35352 0.16757 0.3433 0.0
C1347 C 0.35575 0.17767 0.35041 0.0
C1348 C 0.35782 0.16774 0.32115 0.0
C1349 C 0.37058 0.155 0.33597 0.0
C1350 C 0.33479 0.19514 0.38574 0.0
C1351 C 0.32441 0.192 0.39175 0.0
C1352 C 0.31787 0.18183 0.38791 0.0
C1353 C 0.32161 0.17499 0.37825 0.0
C1354 C 0.33198 0.17833 0.37231 0.0
C1355 C 0.33835 0.18828 0.37609 0.0
C1356 C 0.349 0.1907 0.36865 0.0
C1357 C 0.34809 0.18049 0.35982 0.0
C1358 C 0.33814 0.17325 0.36199 0.0
C1359 C 0.34729 0.20299 0.3625 0.0
C1360 C 0.3603 0.18979 0.37684 0.0
H1361 H 0.3504 0.14474 0.32507 0.0
H1362 H 0.31366 0.13368 0.34621 0.0
H1363 H 0.33333 0.1402 0.36684 0.0
H1364 H 0.32809 0.15237 0.37497 0.0
H1365 H 0.31756 0.14196 0.36832 0.0
H1366 H 0.3122 0.16188 0.34281 0.0
H1367 H 0.30588 0.15416 0.35516 0.0
H1368 H 0.3124 0.16882 0.35684 0.0
H1369 H 0.38425 0.17538 0.32339 0.0
H1370 H 0.38687 0.20625 0.34632 0.0
H1371 H 0.36955 0.19975 0.35678 0.0
H1372 H 0.35599 0.17725 0.31909 0.0
H1373 H 0.36414 0.16444 0.31447 0.0
H1374 H 0.34916 0.16316 0.31977 0.0
H1375 H 0.37648 0.15596 0.34404 0.0
H1376 H 0.36512 0.14697 0.33758 0.0
H1377 H 0.37633 0.15333 0.32826 0.0
H1378 H 0.33879 0.12771 0.31835 0.0
C1379 C 0.3425 0.14263 0.32983 0.0
C1380 C 0.33179 0.82484 0.38408 0.0
C1381 C 0.32113 0.82879 0.38889 0.0
C1382 C 0.31469 0.83788 0.38299 0.0
C1383 C 0.32963 0.83896 0.36777 0.0
C1384 C 0.33578 0.8299 0.37352 0.0
C1385 C 0.34653 0.82609 0.36689 0.0
H1386 H 0.38097 0.83044 0.31873 0.0
C1387 C 0.33615 0.84207 0.35688 0.0
C1388 C 0.34596 0.83443 0.35628 0.0
H1389 H 0.38449 0.8064 0.34873 0.0
H1390 H 0.36763 0.81532 0.35775 0.0
H1391 H 0.3763 0.85354 0.33481 0.0
H1392 H 0.35222 0.82957 0.31609 0.0
H1393 H 0.34741 0.84423 0.31341 0.0
H1394 H 0.3619 0.83978 0.30865 0.0
H1395 H 0.37392 0.85431 0.31896 0.0
H1396 H 0.36453 0.86218 0.32907 0.0
C1397 C 0.35771 0.82851 0.37497 0.0
C1398 C 0.3447 0.81287 0.36316 0.0
C1399 C 0.32264 0.87674 0.33071 0.0
C1400 C 0.32716 0.88187 0.32029 0.0
C1401 C 0.33714 0.87662 0.31508 0.0
C1402 C 0.3426 0.8666 0.32021 0.0
C1403 C 0.3381 0.86172 0.33071 0.0
C1404 C 0.32823 0.86674 0.33575 0.0
C1405 C 0.32466 0.8603 0.3469 0.0
C1406 C 0.33424 0.85083 0.34789 0.0
C1407 C 0.34205 0.85168 0.33834 0.0
C1408 C 0.32546 0.86921 0.35741 0.0
C1409 C 0.31211 0.85477 0.34467 0.0
C1410 C 0.37815 0.82715 0.32727 0.0
C1411 C 0.384 0.81753 0.3329 0.0
C1412 C 0.38 0.81357 0.34403 0.0
C1413 C 0.37022 0.81883 0.34931 0.0
C1414 C 0.36431 0.82823 0.34348 0.0
C1415 C 0.36836 0.83235 0.33273 0.0
C1416 C 0.36108 0.84265 0.32805 0.0
C1417 C 0.35181 0.84374 0.33761 0.0
C1418 C 0.35377 0.83524 0.34659 0.0
C1419 C 0.36932 0.85378 0.32758 0.0
C1420 C 0.35537 0.83899 0.31587 0.0
H1421 H 0.31368 0.84996 0.36844 0.0
H1422 H 0.33678 0.81768 0.38828 0.0
H1423 H 0.33509 0.81074 0.36155 0.0
H1424 H 0.3489 0.81069 0.35465 0.0
H1425 H 0.34811 0.80673 0.37019 0.0
H1426 H 0.35664 0.83679 0.38028 0.0
H1427 H 0.35927 0.82108 0.38134 0.0
H1428 H 0.36586 0.83005 0.36989 0.0
H1429 H 0.31488 0.88041 0.33486 0.0
H1430 H 0.3409 0.88044 0.30715 0.0
H1431 H 0.3502 0.86311 0.31584 0.0
H1432 H 0.33374 0.8747 0.35698 0.0
H1433 H 0.31776 0.87537 0.35715 0.0
H1434 H 0.32589 0.86482 0.36619 0.0
H1435 H 0.31072 0.85217 0.33517 0.0
H1436 H 0.31076 0.84645 0.34972 0.0
H1437 H 0.30502 0.86119 0.34688 0.0
H1438 H 0.30642 0.84103 0.38656 0.0
C1439 C 0.31892 0.84304 0.3725 0.0
C1440 C 0.69276 0.64006 0.1796 0.0
C1441 C 0.70313 0.63618 0.17406 0.0
C1442 C 0.70718 0.6425 0.16407 0.0
C1443 C 0.69068 0.65622 0.16531 0.0
C1444 C 0.6867 0.65003 0.17509 0.0
C1445 C 0.67551 0.65526 0.1799 0.0
H1446 H 0.63281 0.69752 0.17691 0.0
C1447 C 0.68232 0.66611 0.16286 0.0
C1448 C 0.6734 0.66557 0.17137 0.0
H1449 H 0.63652 0.66868 0.20223 0.0
H1450 H 0.65404 0.66187 0.19242 0.0
H1451 H 0.63825 0.6823 0.15425 0.0
H1452 H 0.66126 0.7044 0.17635 0.0
H1453 H 0.66418 0.70755 0.16135 0.0
H1454 H 0.64954 0.71021 0.16688 0.0
H1455 H 0.63827 0.69823 0.15298 0.0
H1456 H 0.64839 0.68914 0.14474 0.0
C1457 C 0.66548 0.64572 0.17882 0.0
C1458 C 0.6783 0.65961 0.19279 0.0
C1459 C 0.68947 0.69438 0.12832 0.0
C1460 C 0.68304 0.70407 0.12352 0.0
C1461 C 0.67238 0.70741 0.12898 0.0
C1462 C 0.66828 0.70132 0.13899 0.0
C1463 C 0.67482 0.69169 0.14363 0.0
C1464 C 0.68518 0.68831 0.13825 0.0
C1465 C 0.69073 0.67759 0.14414 0.0
C1466 C 0.68205 0.67516 0.15401 0.0
C1467 C 0.67279 0.68351 0.15372 0.0
C1468 C 0.69082 0.66732 0.1349 0.0
C1469 C 0.70321 0.68127 0.14917 0.0
C1470 C 0.63747 0.6898 0.1804 0.0
C1471 C 0.63327 0.68365 0.19039 0.0
C1472 C 0.63948 0.67351 0.19449 0.0
C1473 C 0.64971 0.66961 0.18881 0.0
C1474 C 0.65381 0.67587 0.17888 0.0
C1475 C 0.64768 0.68576 0.1748 0.0
C1476 C 0.65324 0.69117 0.16399 0.0
C1477 C 0.6638 0.68301 0.16238 0.0
C1478 C 0.6641 0.67409 0.17114 0.0
C1479 C 0.6441 0.69029 0.15341 0.0
C1480 C 0.65723 0.70405 0.16719 0.0
H1481 H 0.70462 0.65691 0.1521 0.0
H1482 H 0.68931 0.63535 0.1872 0.0
H1483 H 0.68749 0.66335 0.19361 0.0
H1484 H 0.67247 0.66692 0.19557 0.0
H1485 H 0.67763 0.65216 0.19926 0.0
H1486 H 0.66644 0.64023 0.17066 0.0
H1487 H 0.66572 0.6396 0.18659 0.0
H1488 H 0.6565 0.64962 0.17788 0.0
H1489 H 0.69774 0.69158 0.12449 0.0
H1490 H 0.66705 0.71464 0.1254 0.0
H1491 H 0.66011 0.70432 0.14267 0.0
H1492 H 0.68293 0.66779 0.12871 0.0
H1493 H 0.69891 0.66777 0.12944 0.0
H1494 H 0.6902 0.65842 0.13902 0.0
H1495 H 0.70304 0.69042 0.15296 0.0
H1496 H 0.70637 0.67555 0.15658 0.0
H1497 H 0.70991 0.68121 0.14207 0.0
H1498 H 0.71522 0.63981 0.15972 0.0
C1499 C 0.70104 0.65248 0.15969 0.0
C1500 C 0.33614 0.63902 0.18893 0.0
C1501 C 0.32566 0.63257 0.18593 0.0
C1502 C 0.31874 0.63625 0.17592 0.0
C1503 C 0.33266 0.65241 0.1722 0.0
C1504 C 0.3394 0.64886 0.18204 0.0
C1505 C 0.35008 0.65679 0.1843 0.0
H1506 H 0.38278 0.7052 0.16934 0.0
C1507 C 0.33856 0.66299 0.16701 0.0
C1508 C 0.34876 0.6656 0.1741 0.0
H1509 H 0.38832 0.68148 0.19928 0.0
H1510 H 0.37143 0.66956 0.19277 0.0
H1511 H 0.35432 0.70639 0.17111 0.0
H1512 H 0.37725 0.68485 0.15009 0.0
H1513 H 0.36462 0.68778 0.14104 0.0
H1514 H 0.37398 0.7 0.14621 0.0
H1515 H 0.36283 0.71221 0.15909 0.0
H1516 H 0.34819 0.7059 0.15655 0.0
C1517 C 0.34874 0.66285 0.1966 0.0
C1518 C 0.36144 0.64915 0.18324 0.0
C1519 C 0.32073 0.68314 0.12993 0.0
C1520 C 0.3244 0.69303 0.12317 0.0
C1521 C 0.3352 0.69884 0.12642 0.0
C1522 C 0.34204 0.69516 0.13633 0.0
C1523 C 0.33814 0.6855 0.14315 0.0
C1524 C 0.32774 0.67954 0.13984 0.0
C1525 C 0.3252 0.66927 0.14808 0.0
C1526 C 0.33573 0.67016 0.15688 0.0
C1527 C 0.34322 0.67976 0.15397 0.0
C1528 C 0.31322 0.67164 0.15413 0.0
C1529 C 0.32542 0.65762 0.14071 0.0
C1530 C 0.38042 0.69737 0.17441 0.0
C1531 C 0.38687 0.69435 0.18489 0.0
C1532 C 0.38341 0.68413 0.19129 0.0
C1533 C 0.3736 0.67719 0.18747 0.0
C1534 C 0.36707 0.68048 0.17715 0.0
C1535 C 0.37056 0.69037 0.17076 0.0
C1536 C 0.36247 0.69257 0.16009 0.0
C1537 C 0.35346 0.68247 0.16123 0.0
C1538 C 0.35622 0.67542 0.17123 0.0
C1539 C 0.35666 0.70493 0.16166 0.0
C1540 C 0.3699 0.69134 0.14872 0.0
H1541 H 0.31651 0.64843 0.16159 0.0
H1542 H 0.34179 0.63643 0.19644 0.0
H1543 H 0.36033 0.64255 0.17589 0.0
H1544 H 0.36939 0.65445 0.18099 0.0
H1545 H 0.36335 0.64414 0.1916 0.0
H1546 H 0.3392 0.66434 0.19854 0.0
H1547 H 0.35257 0.65726 0.2039 0.0
H1548 H 0.35285 0.67182 0.19707 0.0
H1549 H 0.3125 0.67845 0.12771 0.0
H1550 H 0.33846 0.70626 0.12123 0.0
H1551 H 0.3501 0.70004 0.13831 0.0
H1552 H 0.31224 0.68128 0.15615 0.0
H1553 H 0.30555 0.66891 0.14825 0.0
H1554 H 0.3125 0.66712 0.16281 0.0
H1555 H 0.33256 0.658 0.13404 0.0
H1556 H 0.32746 0.6497 0.14618 0.0
H1557 H 0.31681 0.65614 0.1358 0.0
H1558 H 0.31053 0.63164 0.17347 0.0
C1559 C 0.32219 0.64608 0.16905 0.0
C1560 C 0.38297 0.33051 0.19782 0.0
C1561 C 0.38949 0.32108 0.19297 0.0
C1562 C 0.38528 0.31565 0.18235 0.0
C1563 C 0.3684 0.32894 0.18145 0.0
C1564 C 0.37252 0.33437 0.19183 0.0
C1565 C 0.36474 0.34465 0.19528 0.0
H1566 H 0.31661 0.37937 0.18264 0.0
C1567 C 0.35743 0.33505 0.17734 0.0
C1568 C 0.35523 0.34434 0.18534 0.0
H1569 H 0.34213 0.38295 0.21201 0.0
H1570 H 0.35255 0.36558 0.20527 0.0
H1571 H 0.31403 0.35039 0.18438 0.0
H1572 H 0.33548 0.3735 0.16289 0.0
H1573 H 0.32992 0.36196 0.1537 0.0
H1574 H 0.31966 0.37197 0.16053 0.0
H1575 H 0.30778 0.35915 0.17242 0.0
H1576 H 0.31384 0.34457 0.16985 0.0
C1577 C 0.35947 0.34186 0.20757 0.0
C1578 C 0.37236 0.35621 0.19498 0.0
C1579 C 0.33556 0.32019 0.13997 0.0
C1580 C 0.32527 0.32396 0.13368 0.0
C1581 C 0.31895 0.33379 0.13805 0.0
C1582 C 0.32284 0.33975 0.14846 0.0
C1583 C 0.3332 0.3359 0.1546 0.0
C1584 C 0.33933 0.32626 0.15031 0.0
C1585 C 0.35023 0.32347 0.15783 0.0
C1586 C 0.34959 0.33297 0.16741 0.0
C1587 C 0.33961 0.34025 0.16549 0.0
C1588 C 0.34863 0.31077 0.163 0.0
C1589 C 0.36133 0.32511 0.15003 0.0
C1590 C 0.32436 0.37635 0.1877 0.0
C1591 C 0.32855 0.38262 0.19786 0.0
C1592 C 0.33879 0.37842 0.20406 0.0
C1593 C 0.34482 0.36829 0.20016 0.0
C1594 C 0.34065 0.36226 0.18987 0.0
C1595 C 0.33053 0.36628 0.18387 0.0
C1596 C 0.32744 0.35883 0.17306 0.0
C1597 C 0.33741 0.34976 0.17349 0.0
C1598 C 0.34514 0.35179 0.18337 0.0
C1599 C 0.3151 0.35295 0.17489 0.0
C1600 C 0.32805 0.36692 0.16191 0.0
H1601 H 0.3721 0.31491 0.16857 0.0
H1602 H 0.38608 0.33492 0.20592 0.0
H1603 H 0.37883 0.35588 0.18766 0.0
H1604 H 0.36701 0.36424 0.19312 0.0
H1605 H 0.37752 0.35749 0.20347 0.0
H1606 H 0.35681 0.33231 0.20812 0.0
H1607 H 0.36611 0.34367 0.21488 0.0
H1608 H 0.35129 0.34689 0.20926 0.0
H1609 H 0.34074 0.3128 0.13678 0.0
H1610 H 0.31093 0.33682 0.13345 0.0
H1611 H 0.31764 0.34716 0.15131 0.0
H1612 H 0.33922 0.30917 0.16547 0.0
H1613 H 0.35097 0.30387 0.15639 0.0
H1614 H 0.3539 0.30929 0.17131 0.0
H1615 H 0.35971 0.33185 0.14291 0.0
H1616 H 0.36918 0.32858 0.15513 0.0
H1617 H 0.36372 0.31664 0.14561 0.0
H1618 H 0.39009 0.30832 0.17851 0.0
C1619 C 0.37479 0.31948 0.1766 0.0
C1620 C 0.69376 0.38768 0.18729 0.0
C1621 C 0.68944 0.3938 0.19723 0.0
C1622 C 0.67884 0.38974 0.20238 0.0
C1623 C 0.67714 0.37374 0.18793 0.0
C1624 C 0.68749 0.37771 0.18281 0.0
C1625 C 0.69088 0.37006 0.17241 0.0
H1626 H 0.67836 0.3228 0.13637 0.0
C1627 C 0.67288 0.36308 0.18132 0.0
C1628 C 0.68087 0.36085 0.1722 0.0
H1629 H 0.70852 0.34699 0.13515 0.0
H1630 H 0.70117 0.35781 0.15192 0.0
H1631 H 0.67964 0.31961 0.16464 0.0
H1632 H 0.65839 0.34258 0.14201 0.0
H1633 H 0.64911 0.33637 0.15279 0.0
H1634 H 0.65629 0.32672 0.14242 0.0
H1635 H 0.6672 0.31408 0.15584 0.0
H1636 H 0.66536 0.32012 0.17057 0.0
C1637 C 0.70314 0.3644 0.1754 0.0
C1638 C 0.69061 0.37792 0.16108 0.0
C1639 C 0.63542 0.34186 0.19445 0.0
C1640 C 0.62934 0.33156 0.19048 0.0
C1641 C 0.63367 0.32529 0.18063 0.0
C1642 C 0.64391 0.32925 0.17484 0.0
C1643 C 0.64993 0.33954 0.17899 0.0
C1644 C 0.64564 0.34564 0.18864 0.0
C1645 C 0.65327 0.35622 0.19204 0.0
C1646 C 0.66286 0.35551 0.18283 0.0
C1647 C 0.66087 0.34576 0.17518 0.0
C1648 C 0.65835 0.35421 0.20487 0.0
C1649 C 0.64559 0.36756 0.19046 0.0
C1650 C 0.68347 0.33036 0.13975 0.0
C1651 C 0.69404 0.33402 0.1343 0.0
C1652 C 0.70025 0.34405 0.13898 0.0
C1653 C 0.69601 0.35029 0.14881 0.0
C1654 C 0.68545 0.34649 0.15412 0.0
C1655 C 0.6794 0.33664 0.14961 0.0
C1656 C 0.66847 0.33372 0.15655 0.0
C1657 C 0.6689 0.34351 0.16588 0.0
C1658 C 0.67885 0.35099 0.16441 0.0
C1659 C 0.67012 0.32121 0.16217 0.0
C1660 C 0.65743 0.3348 0.14805 0.0
H1661 H 0.66472 0.37716 0.20218 0.0
H1662 H 0.70182 0.39061 0.18304 0.0
H1663 H 0.68301 0.38421 0.16119 0.0
H1664 H 0.68925 0.37273 0.15279 0.0
H1665 H 0.69893 0.38328 0.16046 0.0
H1666 H 0.70403 0.36226 0.18506 0.0
H1667 H 0.71055 0.37057 0.1732 0.0
H1668 H 0.70442 0.35582 0.17081 0.0
H1669 H 0.63245 0.34677 0.20212 0.0
H1670 H 0.62909 0.31737 0.17735 0.0
H1671 H 0.64675 0.32412 0.16739 0.0
H1672 H 0.65992 0.34458 0.20661 0.0
H1673 H 0.6521 0.35743 0.21163 0.0
H1674 H 0.66715 0.35848 0.20646 0.0
H1675 H 0.63922 0.36662 0.18275 0.0
H1676 H 0.65092 0.37559 0.18844 0.0
H1677 H 0.64031 0.36927 0.1985 0.0
H1678 H 0.67539 0.39411 0.21015 0.0
C1679 C 0.67268 0.37979 0.19778 0.0
C1680 C 0.69801 0.33616 0.88375 0.0
C1681 C 0.69332 0.32574 0.88882 0.0
C1682 C 0.68338 0.32015 0.88313 0.0
C1683 C 0.68304 0.33531 0.86771 0.0
C1684 C 0.69277 0.34076 0.87328 0.0
C1685 C 0.69673 0.35177 0.86684 0.0
H1686 H 0.69052 0.38967 0.82031 0.0
C1687 C 0.6798 0.34239 0.85697 0.0
C1688 C 0.6878 0.35204 0.85645 0.0
H1689 H 0.71598 0.39133 0.84989 0.0
H1690 H 0.70747 0.37358 0.85827 0.0
H1691 H 0.66813 0.38315 0.83613 0.0
H1692 H 0.69162 0.36078 0.81645 0.0
H1693 H 0.67691 0.35573 0.81376 0.0
H1694 H 0.68107 0.37059 0.80932 0.0
H1695 H 0.66731 0.38223 0.82017 0.0
H1696 H 0.65937 0.37187 0.82939 0.0
C1697 C 0.69534 0.36258 0.87529 0.0
C1698 C 0.7096 0.34974 0.86266 0.0
C1699 C 0.64494 0.32945 0.82996 0.0
C1700 C 0.63987 0.3341 0.81935 0.0
C1701 C 0.64483 0.34458 0.81454 0.0
C1702 C 0.65468 0.35024 0.82012 0.0
C1703 C 0.65967 0.34543 0.83068 0.0
C1704 C 0.65477 0.33521 0.83543 0.0
C1705 C 0.6612 0.33135 0.84671 0.0
C1706 C 0.67074 0.34096 0.84797 0.0
C1707 C 0.66983 0.34917 0.83854 0.0
C1708 C 0.6523 0.33178 0.857 0.0
C1709 C 0.6666 0.31891 0.84454 0.0
C1710 C 0.69428 0.38613 0.82855 0.0
C1711 C 0.70393 0.39191 0.83446 0.0
C1712 C 0.70847 0.38712 0.84524 0.0
C1713 C 0.70355 0.37676 0.85007 0.0
C1714 C 0.69391 0.37109 0.8441 0.0
C1715 C 0.68938 0.3758 0.83357 0.0
C1716 C 0.67889 0.3687 0.8287 0.0
C1717 C 0.67798 0.35891 0.83799 0.0
C1718 C 0.68686 0.36034 0.84694 0.0
C1719 C 0.66781 0.37686 0.82847 0.0
C1720 C 0.68217 0.36371 0.81637 0.0
H1721 H 0.67067 0.32023 0.86879 0.0
H1722 H 0.70573 0.34061 0.88774 0.0
H1723 H 0.71078 0.34036 0.85975 0.0
H1724 H 0.71188 0.35517 0.85485 0.0
H1725 H 0.71623 0.35155 0.86998 0.0
H1726 H 0.68782 0.36118 0.8814 0.0
H1727 H 0.70353 0.36408 0.88088 0.0
H1728 H 0.69309 0.37089 0.87047 0.0
H1729 H 0.64128 0.32153 0.83402 0.0
H1730 H 0.6412 0.34829 0.80632 0.0
H1731 H 0.65806 0.35813 0.81597 0.0
H1732 H 0.64618 0.33948 0.85592 0.0
H1733 H 0.64675 0.32355 0.85721 0.0
H1734 H 0.65672 0.33308 0.86582 0.0
H1735 H 0.66983 0.31817 0.83528 0.0
H1736 H 0.6745 0.31711 0.85031 0.0
H1737 H 0.65988 0.31174 0.84579 0.0
H1738 H 0.67948 0.31219 0.88689 0.0
C1739 C 0.67823 0.32487 0.87264 0.0
C1740 C 0.64406 0.68991 0.81966 0.0
C1741 C 0.63914 0.70004 0.825 0.0
C1742 C 0.64488 0.70489 0.83525 0.0
C1743 C 0.66002 0.68964 0.83475 0.0
C1744 C 0.65445 0.68487 0.82468 0.0
C1745 C 0.66085 0.67407 0.82021 0.0
H1746 H 0.70674 0.63538 0.82609 0.0
C1747 C 0.6706 0.68233 0.83773 0.0
C1748 C 0.67115 0.67318 0.82925 0.0
H1749 H 0.67833 0.63543 0.79926 0.0
H1750 H 0.66998 0.65292 0.80815 0.0
H1751 H 0.71132 0.6638 0.82614 0.0
H1752 H 0.68998 0.64121 0.84829 0.0
H1753 H 0.69736 0.6517 0.85755 0.0
H1754 H 0.70597 0.64126 0.84921 0.0
H1755 H 0.7178 0.65375 0.83689 0.0
H1756 H 0.71339 0.66857 0.84097 0.0
C1757 C 0.66521 0.67685 0.80753 0.0
C1758 C 0.65227 0.66323 0.82089 0.0
C1759 C 0.6972 0.69363 0.87336 0.0
C1760 C 0.70775 0.68885 0.87835 0.0
C1761 C 0.71245 0.67847 0.87325 0.0
C1762 C 0.70685 0.6731 0.86323 0.0
C1763 C 0.69642 0.67813 0.85824 0.0
C1764 C 0.69174 0.68819 0.86338 0.0
C1765 C 0.68062 0.69236 0.85695 0.0
C1766 C 0.67941 0.68321 0.84703 0.0
C1767 C 0.68867 0.67489 0.8478 0.0
C1768 C 0.68302 0.70505 0.85207 0.0
C1769 C 0.67018 0.69151 0.86568 0.0
C1770 C 0.69866 0.63909 0.82217 0.0
C1771 C 0.69321 0.63396 0.81192 0.0
C1772 C 0.68282 0.63925 0.80704 0.0
C1773 C 0.67792 0.64939 0.81227 0.0
C1774 C 0.68345 0.65436 0.82252 0.0
C1775 C 0.69366 0.64922 0.82729 0.0
C1776 C 0.69834 0.65574 0.8382 0.0
C1777 C 0.68925 0.66561 0.83921 0.0
C1778 C 0.68054 0.66476 0.82999 0.0
C1779 C 0.71091 0.6607 0.83554 0.0
C1780 C 0.69801 0.64708 0.84892 0.0
H1781 H 0.65913 0.70392 0.84793 0.0
H1782 H 0.63985 0.68587 0.81184 0.0
H1783 H 0.6467 0.6638 0.82891 0.0
H1784 H 0.65697 0.65467 0.8218 0.0
H1785 H 0.64615 0.66282 0.81295 0.0
H1786 H 0.66811 0.68632 0.80683 0.0
H1787 H 0.65801 0.6753 0.80071 0.0
H1788 H 0.6731 0.67165 0.80516 0.0
H1789 H 0.69321 0.70147 0.87715 0.0
H1790 H 0.7206 0.67463 0.87684 0.0
H1791 H 0.71093 0.66529 0.8597 0.0
H1792 H 0.69242 0.70603 0.84932 0.0
H1793 H 0.68143 0.71193 0.85895 0.0
H1794 H 0.67764 0.70713 0.84397 0.0
H1795 H 0.67127 0.68372 0.87173 0.0
H1796 H 0.66145 0.69005 0.86112 0.0
H1797 H 0.66975 0.69961 0.87133 0.0
H1798 H 0.64144 0.71279 0.83944 0.0
C1799 C 0.65523 0.69976 0.84015 0.0
C1800 C 0.3291 0.6407 0.82796 0.0
C1801 C 0.33276 0.63421 0.818 0.0
C1802 C 0.34322 0.63783 0.81225 0.0
C1803 C 0.34597 0.65424 0.82608 0.0
C1804 C 0.33582 0.65065 0.83183 0.0
C1805 C 0.33315 0.65862 0.84219 0.0
H1806 H 0.34859 0.70596 0.87693 0.0
C1807 C 0.35085 0.66493 0.83224 0.0
C1808 C 0.34339 0.66753 0.84172 0.0
H1809 H 0.31772 0.68286 0.87959 0.0
H1810 H 0.32403 0.67156 0.8627 0.0
H1811 H 0.3463 0.70882 0.84867 0.0
H1812 H 0.36745 0.6856 0.87103 0.0
H1813 H 0.37656 0.69065 0.85957 0.0
H1814 H 0.3705 0.70126 0.86978 0.0
H1815 H 0.3592 0.71402 0.85697 0.0
H1816 H 0.36031 0.7078 0.84222 0.0
C1817 C 0.32093 0.66457 0.83966 0.0
C1818 C 0.33376 0.65101 0.85369 0.0
C1819 C 0.38825 0.68525 0.81711 0.0
C1820 C 0.39497 0.69518 0.82113 0.0
C1821 C 0.39125 0.70139 0.83129 0.0
C1822 C 0.38109 0.69779 0.83735 0.0
C1823 C 0.3745 0.68785 0.83326 0.0
C1824 C 0.37812 0.68174 0.82332 0.0
C1825 C 0.37008 0.67129 0.82038 0.0
C1826 C 0.36099 0.67223 0.83012 0.0
C1827 C 0.36362 0.68196 0.83762 0.0
C1828 C 0.36437 0.67337 0.80784 0.0
C1829 C 0.37754 0.65976 0.82153 0.0
C1830 C 0.34311 0.69854 0.87384 0.0
C1831 C 0.33265 0.69531 0.87974 0.0
C1832 C 0.32593 0.68545 0.87542 0.0
C1833 C 0.32956 0.67893 0.86552 0.0
C1834 C 0.34003 0.68228 0.85977 0.0
C1835 C 0.34657 0.69198 0.86391 0.0
C1836 C 0.35728 0.69443 0.8565 0.0
C1837 C 0.35614 0.68455 0.84728 0.0
C1838 C 0.34605 0.67742 0.84927 0.0
C1839 C 0.35583 0.70694 0.85082 0.0
C1840 C 0.3686 0.69302 0.86458 0.0
H1841 H 0.35764 0.65004 0.81143 0.0
H1842 H 0.32108 0.63824 0.83254 0.0
H1843 H 0.3412 0.64453 0.85338 0.0
H1844 H 0.33559 0.65633 0.86181 0.0
H1845 H 0.32537 0.64585 0.8548 0.0
H1846 H 0.31949 0.66625 0.82996 0.0
H1847 H 0.31349 0.65882 0.84264 0.0
H1848 H 0.32024 0.67344 0.84385 0.0
H1849 H 0.39092 0.68021 0.80942 0.0
H1850 H 0.39613 0.70917 0.83449 0.0
H1851 H 0.37877 0.70292 0.845 0.0
H1852 H 0.3621 0.68292 0.80656 0.0
H1853 H 0.37058 0.67086 0.80075 0.0
H1854 H 0.35587 0.66851 0.80639 0.0
H1855 H 0.38462 0.66069 0.82861 0.0
H1856 H 0.37221 0.65196 0.82428 0.0
H1857 H 0.38197 0.65768 0.81307 0.0
H1858 H 0.3464 0.63289 0.80471 0.0
C1859 C 0.34981 0.64778 0.81622 0.0
C1860 C 0.33815 0.32895 0.88622 0.0
C1861 C 0.32768 0.33443 0.89004 0.0
C1862 C 0.32341 0.34451 0.88382 0.0
C1863 C 0.3398 0.34345 0.87027 0.0
C1864 C 0.34404 0.3336 0.87637 0.0
C1865 C 0.35525 0.32884 0.87111 0.0
H1866 H 0.39665 0.332 0.82837 0.0
C1867 C 0.3479 0.34595 0.86039 0.0
C1868 C 0.35699 0.33743 0.86084 0.0
H1869 H 0.39456 0.30669 0.85728 0.0
H1870 H 0.37707 0.31649 0.8644 0.0
H1871 H 0.39084 0.3549 0.84389 0.0
H1872 H 0.36857 0.33211 0.82176 0.0
H1873 H 0.36424 0.34687 0.81894 0.0
H1874 H 0.3792 0.34236 0.81578 0.0
H1875 H 0.39097 0.35555 0.82793 0.0
H1876 H 0.38059 0.36413 0.83635 0.0
C1877 C 0.36544 0.32988 0.88066 0.0
C1878 C 0.35267 0.31597 0.86671 0.0
C1879 C 0.33921 0.38044 0.83217 0.0
C1880 C 0.34501 0.3849 0.82212 0.0
C1881 C 0.35552 0.3793 0.81848 0.0
C1882 C 0.36012 0.36944 0.82467 0.0
C1883 C 0.35418 0.36507 0.83464 0.0
C1884 C 0.34394 0.37058 0.83826 0.0
C1885 C 0.33885 0.36473 0.84906 0.0
C1886 C 0.34773 0.3548 0.85134 0.0
C1887 C 0.35668 0.35503 0.84284 0.0
C1888 C 0.33905 0.37397 0.85933 0.0
C1889 C 0.32628 0.35982 0.84558 0.0
C1890 C 0.39237 0.32851 0.83618 0.0
C1891 C 0.39699 0.31851 0.84224 0.0
C1892 C 0.39126 0.31443 0.85251 0.0
C1893 C 0.38105 0.32009 0.85659 0.0
C1894 C 0.37648 0.32999 0.85036 0.0
C1895 C 0.38219 0.33408 0.84039 0.0
C1896 C 0.37618 0.34479 0.83497 0.0
C1897 C 0.36586 0.34639 0.84326 0.0
C1898 C 0.36604 0.33767 0.85223 0.0
C1899 C 0.38506 0.35543 0.8357 0.0
C1900 C 0.37186 0.34149 0.82216 0.0
H1901 H 0.32563 0.35669 0.86964 0.0
H1902 H 0.34177 0.32127 0.89085 0.0
H1903 H 0.3435 0.31522 0.86274 0.0
H1904 H 0.35858 0.31315 0.85956 0.0
H1905 H 0.35338 0.3095 0.87417 0.0
H1906 H 0.36442 0.33803 0.88618 0.0
H1907 H 0.36547 0.32209 0.88675 0.0
H1908 H 0.37432 0.33084 0.87676 0.0
H1909 H 0.33106 0.38442 0.83515 0.0
H1910 H 0.36028 0.38264 0.8109 0.0
H1911 H 0.36813 0.36562 0.82143 0.0
H1912 H 0.34706 0.37984 0.85893 0.0
H1913 H 0.33108 0.37975 0.85881 0.0
H1914 H 0.33966 0.36982 0.86824 0.0
H1915 H 0.326 0.35648 0.83624 0.0
H1916 H 0.32363 0.35208 0.851 0.0
H1917 H 0.31943 0.36685 0.84626 0.0
H1918 H 0.31528 0.34881 0.88644 0.0
C1919 C 0.32939 0.34904 0.874 0.0
Cu1920 Cu 0.25561 0.26424 0.01307 0.0
N1921 N 0.2547 0.27722 1.00261 0.0
N1922 N 0.25997 0.28896 0.98749 0.0
C1923 C 0.26153 0.27838 0.993 0.0
C1924 C 0.25176 0.29468 0.99389 0.0
C1925 C 0.24854 0.28744 1.0032 0.0
O1926 O 0.2554 0.25009 1.00297 0.0
C1927 C 0.27041 0.27643 0.02849 0.0
O1928 O 0.2619 0.28415 0.02638 0.0
H1929 H 0.26792 0.27174 0.99045 0.0
H1930 H 0.24254 0.28974 0.01017 0.0
N1931 N 0.24289 0.26316 0.02349 0.0
N1932 N 0.23244 0.25641 0.03878 0.0
C1933 C 0.24257 0.25548 0.03268 0.0
C1934 C 0.23254 0.26914 0.02374 0.0
C1935 C 0.22611 0.26503 0.03322 0.0
C1936 C 0.24523 0.24753 0.99828 0.0
O1937 O 0.23607 0.25409 1.00101 0.0
H1938 H 0.2497 0.24936 0.03487 0.0
H1939 H 0.2297 0.27578 0.01735 0.0
O1940 O 0.26982 0.26635 0.02325 0.0
H1941 H 0.24845 0.30355 0.99211 0.0
H1942 H 0.21733 0.26794 0.03564 0.0
Cu1943 Cu 0.76279 0.26033 0.0098 0.0
N1944 N 0.7488 0.26229 0.01952 0.0
N1945 N 0.737 0.26879 0.03377 0.0
C1946 C 0.74732 0.27051 0.02807 0.0
C1947 C 0.73184 0.25913 0.02855 0.0
C1948 C 0.73916 0.25513 0.01975 0.0
O1949 O 0.77141 0.25258 0.02395 0.0
C1950 C 0.75299 0.27873 0.99412 0.0
O1951 O 0.75783 0.28594 1.00213 0.0
H1952 H 0.75386 0.27734 0.03033 0.0
H1953 H 0.73768 0.24744 0.01407 0.0
N1954 N 0.77687 0.25852 1.00011 0.0
N1955 N 0.78914 0.25235 0.9861 0.0
C1956 C 0.77848 0.25069 0.99122 0.0
C1957 C 0.78671 0.26542 1.00059 0.0
C1958 C 0.79433 0.2616 0.992 0.0
C1959 C 0.77862 0.25831 0.0308 0.0
O1960 O 0.78085 0.2696 0.02865 0.0
H1961 H 0.77197 0.24398 0.98855 0.0
H1962 H 0.78813 0.27289 0.00656 0.0
O1963 O 0.75391 0.26754 0.99556 0.0
H1964 H 0.72341 0.25519 0.03095 0.0
H1965 H 0.80286 0.26557 0.99001 0.0
Cu1966 Cu 0.75019 0.77353 0.99718 0.0
N1967 N 0.75081 0.78724 0.98767 0.0
N1968 N 0.75683 0.79939 0.97318 0.0
C1969 C 0.75804 0.78861 0.97839 0.0
C1970 C 0.74851 0.80505 0.97949 0.0
C1971 C 0.7448 0.79753 0.9884 0.0
O1972 O 0.75069 0.76001 0.9863 0.0
C1973 C 0.76316 0.78417 0.01512 0.0
O1974 O 0.7547 0.79194 0.01296 0.0
H1975 H 0.76421 0.78184 0.97566 0.0
H1976 H 0.7383 0.79952 0.99502 0.0
N1977 N 0.73617 0.77233 0.0057 0.0
N1978 N 0.72393 0.76627 0.01988 0.0
C1979 C 0.73487 0.76532 0.0153 0.0
C1980 C 0.72566 0.77786 0.00406 0.0
C1981 C 0.7181 0.77419 0.01287 0.0
C1982 C 0.74289 0.76049 0.97785 0.0
O1983 O 0.73534 0.76937 0.97767 0.0
H1984 H 0.7419 0.75975 0.01896 0.0
H1985 H 0.72358 0.78404 0.99694 0.0
O1986 O 0.76322 0.77461 0.00899 0.0
H1987 H 0.74524 0.81394 0.97775 0.0
H1988 H 0.70898 0.77698 0.01392 0.0
Cu1989 Cu 0.26268 0.76437 0.00345 0.0
N1990 N 0.26055 0.77791 0.01294 0.0
N1991 N 0.25346 0.78887 0.02777 0.0
C1992 C 0.25358 0.77807 0.02249 0.0
C1993 C 0.26065 0.79581 0.02121 0.0
C1994 C 0.26502 0.78903 0.01207 0.0
O1995 O 0.265 0.75119 0.01462 0.0
C1996 C 0.24771 0.77284 0.98616 0.0
O1997 O 0.25543 0.78159 0.98777 0.0
H1998 H 0.24854 0.77038 0.02537 0.0
H1999 H 0.27089 0.79207 0.00523 0.0
N2000 N 0.27622 0.76525 0.99414 0.0
N2001 N 0.28876 0.7602 0.9799 0.0
C2002 C 0.27829 0.75781 0.98505 0.0
C2003 C 0.28576 0.77259 0.99485 0.0
C2004 C 0.29349 0.76953 0.98601 0.0
C2005 C 0.27353 0.75334 0.02208 0.0
O2006 O 0.2796 0.76332 0.02094 0.0
H2007 H 0.27215 0.7508 0.98223 0.0
H2008 H 0.28715 0.77951 1.00144 0.0
O2009 O 0.24901 0.76339 0.99234 0.0
H2010 H 0.26271 0.8051 0.0229 0.0
H2011 H 0.30204 0.77366 0.98439 0.0
Cu2012 Cu 0.01431 0.24879 0.27586 0.0
N2013 N 0.02486 0.23593 0.27588 0.0
N2014 N 0.04006 0.22473 0.2701 0.0
C2015 C 0.03447 0.2353 0.269 0.0
C2016 C 0.0337 0.21848 0.27803 0.0
C2017 C 0.02434 0.2254 0.28158 0.0
O2018 O 0.02433 0.26306 0.27688 0.0
C2019 C 0.99931 0.23752 0.25977 0.0
O2020 O 1.00197 0.22883 0.26717 0.0
H2021 H 0.03703 0.24233 0.26297 0.0
H2022 H 0.01741 0.22272 0.28753 0.0
N2023 N 0.00407 0.24854 0.28876 0.0
N2024 N 0.98878 0.2537 0.30001 0.0
C2025 C 0.99417 0.25517 0.28949 0.0
C2026 C 0.00498 0.24262 0.29917 0.0
C2027 C 0.99557 0.24579 0.30612 0.0
C2028 C 0.02908 0.26515 0.28711 0.0
O2029 O 0.02647 0.25809 0.296 0.0
H2030 H 0.99124 0.26124 0.28255 0.0
H2031 H 0.01216 0.23673 0.30173 0.0
O2032 O 0.00402 0.24775 0.2616 0.0
H2033 H 0.03557 0.20949 0.28098 0.0
H2034 H 0.99393 0.24254 0.315 0.0
Cu2035 Cu 0.76363 0.00805 0.25871 0.0
N2036 N 0.77743 0.01751 0.25785 0.0
N2037 N 0.78926 0.03239 0.25194 0.0
C2038 C 0.77844 0.0271 0.25075 0.0
C2039 C 0.7953 0.0258 0.26012 0.0
C2040 C 0.78797 0.01664 0.26376 0.0
O2041 O 0.75037 0.01912 0.25946 0.0
C2042 C 0.77285 0.9912 0.24426 0.0
O2043 O 0.78144 0.99278 0.2523 0.0
H2044 H 0.77136 0.03005 0.24475 0.0
H2045 H 0.7902 0.00983 0.27024 0.0
N2046 N 0.76341 0.99854 0.27236 0.0
N2047 N 0.75778 0.98378 0.28442 0.0
C2048 C 0.75677 0.98858 0.27341 0.0
C2049 C 0.76884 1.00016 0.28307 0.0
C2050 C 0.7654 0.99107 0.29053 0.0
C2051 C 0.75183 0.02702 0.26755 0.0
O2052 O 0.76141 0.02656 0.27451 0.0
H2053 H 0.75102 0.98515 0.26629 0.0
H2054 H 0.7747 0.00755 0.28539 0.0
O2055 O 0.76335 0.99724 0.2451 0.0
H2056 H 0.8043 0.02755 0.26338 0.0
H2057 H 0.76827 0.98996 0.29974 0.0
Cu2058 Cu 1.00245 0.75668 0.25568 0.0
N2059 N 0.99182 0.76943 0.25659 0.0
N2060 N 0.97698 0.7818 0.25164 0.0
C2061 C 0.9835 0.77239 0.24827 0.0
C2062 C 0.9815 0.78501 0.26244 0.0
C2063 C 0.99065 0.77736 0.26547 0.0
O2064 O 0.99329 0.74198 0.25644 0.0
C2065 C 0.01654 0.76909 0.24027 0.0
O2066 O 0.01331 0.77763 0.24747 0.0
H2067 H 0.98235 0.76785 0.23983 0.0
H2068 H 0.99602 0.77754 0.27361 0.0
N2069 N 0.01259 0.75613 0.26906 0.0
N2070 N 0.02799 0.74978 0.28029 0.0
C2071 C 0.02393 0.75228 0.26916 0.0
C2072 C 0.00939 0.7561 0.28053 0.0
C2073 C 0.01889 0.7522 0.28749 0.0
C2074 C 0.98413 0.73908 0.25015 0.0
O2075 O 0.98125 0.74538 0.24067 0.0
H2076 H 0.02869 0.75027 0.26115 0.0
H2077 H 1.00049 0.75783 0.2835 0.0
O2078 O 0.01245 0.75861 0.24188 0.0
H2079 H 0.97825 0.79219 0.26787 0.0
H2080 H 0.01888 0.75061 0.29699 0.0
Cu2081 Cu 0.24848 1.00079 0.27042 0.0
N2082 N 0.24918 0.01142 0.28328 0.0
N2083 N 0.2555 0.02706 0.29419 0.0
C2084 C 0.25593 0.02138 0.2836 0.0
C2085 C 0.24812 0.02037 0.30079 0.0
C2086 C 0.24426 0.01073 0.29407 0.0
O2087 O 0.24743 0.01071 0.25612 0.0
C2088 C 0.26371 0.98516 0.28146 0.0
O2089 O 0.25598 0.98713 0.28979 0.0
H2090 H 0.26142 0.02414 0.27629 0.0
H2091 H 0.23863 0.00354 0.29703 0.0
N2092 N 0.2353 0.99045 0.27064 0.0
N2093 N 0.22338 0.97527 0.26508 0.0
C2094 C 0.23374 0.98108 0.26325 0.0
C2095 C 0.22555 0.99062 0.27736 0.0
C2096 C 0.21821 0.98121 0.27399 0.0
C2097 C 0.23708 0.01432 0.25295 0.0
O2098 O 0.22785 0.01062 0.25889 0.0
H2099 H 0.24012 0.9786 0.25665 0.0
H2100 H 0.22368 0.99727 0.28398 0.0
O2101 O 0.26244 0.99058 0.27154 0.0
H2102 H 0.24576 0.02219 0.30989 0.0
H2103 H 0.20958 0.97914 0.27756 0.0
Cu2104 Cu 0.01445 0.75945 0.75461 0.0
N2105 N 0.02397 0.74585 0.75348 0.0
N2106 N 0.03887 0.73447 0.74736 0.0
C2107 C 0.03314 0.74493 0.74606 0.0
C2108 C 0.03305 0.72853 0.75591 0.0
C2109 C 0.02382 0.73555 0.75963 0.0
O2110 O 0.02567 0.77278 0.7561 0.0
C2111 C 0.998 0.74964 0.73926 0.0
O2112 O 1.00019 0.74092 0.74679 0.0
H2113 H 0.03575 0.75196 0.74005 0.0
H2114 H 0.01745 0.73325 0.7663 0.0
N2115 N 0.00495 0.75951 0.76803 0.0
N2116 N 0.99015 0.7649 0.77977 0.0
C2117 C 0.99524 0.76634 0.76911 0.0
C2118 C 0.00612 0.75358 0.77842 0.0
C2119 C 0.99693 0.75683 0.78565 0.0
C2120 C 0.03338 0.77128 0.76451 0.0
O2121 O 0.03245 0.76179 0.77128 0.0
H2122 H 0.99197 0.77225 0.76216 0.0
H2123 H 0.01326 0.74754 0.78073 0.0
O2124 O 1.00351 0.75952 0.74077 0.0
H2125 H 0.03523 0.71972 0.75915 0.0
H2126 H 0.99555 0.75375 0.79465 0.0
Cu2127 Cu 0.26889 0.01462 0.77051 0.0
N2128 N 0.28334 0.02285 0.76915 0.0
N2129 N 0.29596 0.03686 0.76282 0.0
C2130 C 0.28471 0.03252 0.76224 0.0
C2131 C 0.30194 0.02953 0.77037 0.0
C2132 C 0.29412 0.0209 0.77429 0.0
O2133 O 0.25651 0.02671 0.7708 0.0
C2134 C 0.27541 0.99475 0.75868 0.0
O2135 O 0.28284 0.99497 0.76793 0.0
H2136 H 0.27754 0.03621 0.7568 0.0
H2137 H 0.29614 0.01374 0.78044 0.0
N2138 N 0.26797 0.00578 0.78459 0.0
N2139 N 0.26228 0.99105 0.79665 0.0
C2140 C 0.26103 0.99605 0.78575 0.0
C2141 C 0.2738 0.0071 0.79514 0.0
C2142 C 0.27028 0.99803 0.80262 0.0
C2143 C 0.25857 0.03474 0.77865 0.0
O2144 O 0.2681 0.03377 0.78562 0.0
H2145 H 0.25518 0.99272 0.77867 0.0
H2146 H 0.28024 0.01407 0.79721 0.0
O2147 O 0.26789 1.00315 0.75746 0.0
H2148 H 0.31125 0.03042 0.77302 0.0
H2149 H 0.27357 0.99656 0.81165 0.0
Cu2150 Cu 0.01498 0.27392 0.76932 0.0
N2151 N 0.0054 0.28755 0.76829 0.0
N2152 N 0.99047 0.29917 0.7618 0.0
C2153 C 0.99566 0.28839 0.76109 0.0
C2154 C 0.99726 0.30537 0.7698 0.0
C2155 C 0.00645 0.29818 0.7738 0.0
O2156 O 0.00404 0.26055 0.7713 0.0
C2157 C 0.03035 0.28345 0.75368 0.0
O2158 O 0.02876 0.29222 0.76119 0.0
H2159 H 0.99262 0.28125 0.75525 0.0
H2160 H 0.01349 0.30064 0.78009 0.0
N2161 N 0.02565 0.27389 0.78241 0.0
N2162 N 0.04121 0.26799 0.79373 0.0
C2163 C 0.03501 0.2665 0.78336 0.0
C2164 C 0.02586 0.28027 0.79257 0.0
C2165 C 0.03552 0.2767 0.79955 0.0
C2166 C 0.99727 0.26207 0.7801 0.0
O2167 O 0.99878 0.27172 0.78661 0.0
H2168 H 0.03723 0.26016 0.77652 0.0
H2169 H 0.01936 0.28685 0.79489 0.0
O2170 O 0.02483 0.27364 0.75528 0.0
H2171 H 0.9957 0.31443 0.77261 0.0
H2172 H 0.03796 0.28002 0.80834 0.0
Cu2173 Cu 0.75551 0.01113 0.75566 0.0
N2174 N 0.75811 0.02036 0.7694 0.0
N2175 N 0.76585 0.03482 0.781 0.0
C2176 C 0.76542 0.02991 0.77002 0.0
C2177 C 0.75852 0.02804 0.78756 0.0
C2178 C 0.75375 0.01914 0.78039 0.0
O2179 O 0.75327 0.0224 0.74256 0.0
C2180 C 0.77056 0.99405 0.76396 0.0
O2181 O 0.76314 0.99525 0.77271 0.0
H2182 H 0.77049 0.03301 0.76256 0.0
H2183 H 0.7477 0.01217 0.78307 0.0
N2184 N 0.74179 1.00166 0.75644 0.0
N2185 N 0.72901 0.98681 0.75213 0.0
C2186 C 0.73959 0.99192 0.74971 0.0
C2187 C 0.73222 1.00281 0.76331 0.0
C2188 C 0.72435 0.99361 0.76072 0.0
C2189 C 0.74507 0.02989 0.74451 0.0
O2190 O 0.73911 0.02882 0.75436 0.0
H2191 H 0.74572 0.98859 0.74324 0.0
H2192 H 0.73096 0.00992 0.76963 0.0
O2193 O 0.76898 1.00035 0.75461 0.0
H2194 H 0.75666 0.02942 0.79687 0.0
H2195 H 0.71576 0.99218 0.76466 0.0
Cu2196 Cu 0.25368 0.76342 0.50142 0.0
N2197 N 0.25306 0.77863 0.50801 0.0
N2198 N 0.25769 0.79292 0.52123 0.0
C2199 C 0.25577 0.78117 0.5195 0.0
C2200 C 0.25604 0.798 0.51043 0.0
C2201 C 0.25314 0.78915 0.50228 0.0
O2202 O 0.25471 0.75243 0.51474 0.0
C2203 C 0.27623 0.76946 0.49195 0.0
O2204 O 0.27845 0.77477 0.50221 0.0
H2205 H 0.25742 0.77442 0.52622 0.0
H2206 H 0.25214 0.79018 0.49272 0.0
N2207 N 0.24011 0.75979 0.49214 0.0
N2208 N 0.22924 0.75092 0.4776 0.0
C2209 C 0.24029 0.7539 0.4817 0.0
C2210 C 0.22855 0.76071 0.49477 0.0
C2211 C 0.22181 0.75528 0.48579 0.0
C2212 C 0.25027 0.74197 0.51452 0.0
O2213 O 0.2465 0.7374 0.50431 0.0
H2214 H 0.24847 0.75157 0.47744 0.0
H2215 H 0.2253 0.76457 0.50287 0.0
O2216 O 0.26685 0.76311 0.49062 0.0
H2217 H 0.25747 0.80734 0.50846 0.0
H2218 H 0.21222 0.75417 0.48563 0.0
Cu2219 Cu 0.76387 0.76783 0.50103 0.0
N2220 N 0.77825 0.76776 0.49301 0.0
N2221 N 0.79123 0.7626 0.47921 0.0
C2222 C 0.78019 0.76096 0.48341 0.0
C2223 C 0.79649 0.77071 0.48657 0.0
C2224 C 0.78844 0.7739 0.49507 0.0
O2225 O 0.75116 0.76616 0.48892 0.0
C2226 C 0.77228 0.75802 0.52166 0.0
O2227 O 0.7784 0.76802 0.52103 0.0
H2228 H 0.77359 0.75486 0.47964 0.0
H2229 H 0.7899 0.78027 0.5022 0.0
N2230 N 0.76128 0.7821 0.50907 0.0
N2231 N 0.75416 0.79412 0.52303 0.0
C2232 C 0.75417 0.783 0.51847 0.0
C2233 C 0.7659 0.79306 0.5075 0.0
C2234 C 0.7615 0.80052 0.51611 0.0
C2235 C 0.75201 0.77366 0.48044 0.0
O2236 O 0.76075 0.78151 0.48091 0.0
H2237 H 0.74913 0.77554 0.52187 0.0
H2238 H 0.77213 0.79543 0.5007 0.0
O2239 O 0.76487 0.75545 0.51321 0.0
H2240 H 0.80543 0.77424 0.48575 0.0
H2241 H 0.76376 0.80983 0.51732 0.0
Cu2242 Cu 0.76267 0.25396 0.50321 0.0
N2243 N 0.76225 0.24018 0.49368 0.0
N2244 N 0.75642 0.22802 0.47876 0.0
C2245 C 0.75518 0.23882 0.48387 0.0
C2246 C 0.76462 0.22236 0.48567 0.0
C2247 C 0.76821 0.22987 0.49484 0.0
O2248 O 0.76292 0.26733 0.49215 0.0
C2249 C 0.74876 0.24346 0.51971 0.0
O2250 O 0.75707 0.23549 0.51818 0.0
H2251 H 0.74908 0.2456 0.48069 0.0
H2252 H 0.77457 0.22786 0.50194 0.0
N2253 N 0.77624 0.25532 0.51318 0.0
N2254 N 0.78788 0.2624 0.52809 0.0
C2255 C 0.77723 0.26311 0.52227 0.0
C2256 C 0.78667 0.24949 0.51316 0.0
C2257 C 0.79385 0.2538 0.52242 0.0
C2258 C 0.77121 0.26652 0.48466 0.0
O2259 O 0.77858 0.25751 0.48556 0.0
H2260 H 0.77018 0.26913 0.52463 0.0
H2261 H 0.789 0.24273 0.5068 0.0
O2262 O 0.74915 0.25311 0.51374 0.0
H2263 H 0.76786 0.21344 0.4842 0.0
H2264 H 0.80284 0.25099 0.52465 0.0
Cu2265 Cu 0.26687 0.27045 0.51618 0.0
N2266 N 0.26577 0.28468 0.52478 0.0
N2267 N 0.25997 0.29685 0.53923 0.0
C2268 C 0.25935 0.28575 0.53465 0.0
C2269 C 0.26704 0.30305 0.53188 0.0
C2270 C 0.27063 0.29551 0.52298 0.0
O2271 O 0.26915 0.2579 0.52804 0.0
C2272 C 0.25145 0.27832 0.49897 0.0
O2273 O 0.25933 0.287 0.49985 0.0
H2274 H 0.2542 0.27848 0.53828 0.0
H2275 H 0.27626 0.29782 0.51567 0.0
N2276 N 0.27993 0.27004 0.50628 0.0
N2277 N 0.29128 0.26335 0.49175 0.0
C2278 C 0.28108 0.26187 0.49765 0.0
C2279 C 0.28978 0.27694 0.50591 0.0
C2280 C 0.29678 0.27286 0.49686 0.0
C2281 C 0.27793 0.26019 0.53515 0.0
O2282 O 0.28425 0.26989 0.53335 0.0
H2283 H 0.27446 0.25504 0.49567 0.0
H2284 H 0.29183 0.28428 0.51186 0.0
O2285 O 0.25277 0.26923 0.50568 0.0
H2286 H 0.26956 0.31233 0.5329 0.0
H2287 H 0.30534 0.27646 0.49439 0.0
Cu2288 Cu 0.77206 0.51688 0.76186 0.0
N2289 N 0.78558 0.52658 0.76073 0.0
N2290 N 0.79702 0.54162 0.75447 0.0
C2291 C 0.78601 0.53666 0.75427 0.0
C2292 C 0.80378 0.53432 0.76136 0.0
C2293 C 0.79671 0.52505 0.76519 0.0
O2294 O 0.75836 0.52748 0.76198 0.0
C2295 C 0.78051 0.49726 0.75087 0.0
O2296 O 0.78765 0.49843 0.76027 0.0
H2297 H 0.77842 0.54005 0.74922 0.0
H2298 H 0.79956 0.51761 0.77065 0.0
N2299 N 0.77179 0.5082 0.7761 0.0
N2300 N 0.76596 0.49419 0.78886 0.0
C2301 C 0.76394 0.49937 0.77817 0.0
C2302 C 0.77902 0.5087 0.78586 0.0
C2303 C 0.77547 0.50001 0.79374 0.0
C2304 C 0.75815 0.53387 0.77137 0.0
O2305 O 0.76684 0.53278 0.77936 0.0
H2306 H 0.75708 0.49661 0.77176 0.0
H2307 H 0.78635 0.5149 0.78716 0.0
O2308 O 0.77241 0.50502 0.74909 0.0
H2309 H 0.81318 0.53553 0.76346 0.0
H2310 H 0.77951 0.49817 0.8024 0.0
Cu2311 Cu 0.27339 0.51044 0.75122 0.0
N2312 N 0.2871 0.50113 0.75207 0.0
N2313 N 0.2994 0.48657 0.75797 0.0
C2314 C 0.28831 0.49108 0.7585 0.0
C2315 C 0.30539 0.49413 0.75089 0.0
C2316 C 0.2978 0.5031 0.74729 0.0
O2317 O 0.25975 0.49969 0.75253 0.0
C2318 C 0.28258 0.53098 0.7606 0.0
O2319 O 0.2885 0.52976 0.75075 0.0
H2320 H 0.28124 0.48737 0.76376 0.0
H2321 H 0.3 0.51063 0.74175 0.0
N2322 N 0.27162 0.51817 0.73651 0.0
N2323 N 0.26458 0.53114 0.72304 0.0
C2324 C 0.26355 0.52669 0.73413 0.0
C2325 C 0.27794 0.5171 0.72655 0.0
C2326 C 0.27364 0.52514 0.71823 0.0
C2327 C 0.25838 0.49294 0.74346 0.0
O2328 O 0.26611 0.49371 0.73492 0.0
H2329 H 0.25727 0.52981 0.74056 0.0
H2330 H 0.28518 0.51095 0.72542 0.0
O2331 O 0.275 0.52295 0.76327 0.0
H2332 H 0.31461 0.49328 0.74848 0.0
H2333 H 0.27689 0.52643 0.70933 0.0
Cu2334 Cu 0.27142 0.5038 0.26496 0.0
N2335 N 0.27226 0.4943 0.27868 0.0
N2336 N 0.2675 0.47934 0.29091 0.0
C2337 C 0.26592 0.48417 0.27997 0.0
C2338 C 0.27519 0.48676 0.29674 0.0
C2339 C 0.27811 0.49597 0.28919 0.0
O2340 O 0.27269 0.49269 0.25164 0.0
C2341 C 0.25606 0.51924 0.27515 0.0
O2342 O 0.26467 0.51843 0.28326 0.0
H2343 H 0.25993 0.48066 0.27308 0.0
H2344 H 0.28377 0.50352 0.29139 0.0
N2345 N 0.28383 0.51501 0.26396 0.0
N2346 N 0.29387 0.53075 0.25707 0.0
C2347 C 0.28394 0.52394 0.25595 0.0
C2348 C 0.2941 0.51617 0.27036 0.0
C2349 C 0.30028 0.52591 0.26616 0.0
C2350 C 0.28294 0.48792 0.25104 0.0
O2351 O 0.29128 0.49117 0.25885 0.0
H2352 H 0.27678 0.52545 0.24948 0.0
H2353 H 0.29704 0.51024 0.2774 0.0
O2354 O 0.25682 0.51316 0.26559 0.0
H2355 H 0.27843 0.48569 0.30584 0.0
H2356 H 0.30894 0.52902 0.26937 0.0
Cu2357 Cu 0.77141 0.51195 0.24889 0.0
N2358 N 0.78575 0.50395 0.25164 0.0
N2359 N 0.79813 0.49009 0.25897 0.0
C2360 C 0.78691 0.49435 0.25872 0.0
C2361 C 0.80429 0.49743 0.2518 0.0
C2362 C 0.79662 0.50597 0.24728 0.0
O2363 O 0.75884 0.49993 0.24806 0.0
C2364 C 0.77719 0.53255 0.26048 0.0
O2365 O 0.78478 0.53252 0.25178 0.0
H2366 H 0.77961 0.49061 0.26363 0.0
H2367 H 0.79878 0.51307 0.24118 0.0
N2368 N 0.77091 0.52017 0.23442 0.0
N2369 N 0.76547 0.53418 0.22125 0.0
C2370 C 0.76401 0.52971 0.23227 0.0
C2371 C 0.77691 0.51841 0.22437 0.0
C2372 C 0.77356 0.52705 0.2162 0.0
C2373 C 0.76086 0.49148 0.24083 0.0
O2374 O 0.77072 0.4918 0.2348 0.0
H2375 H 0.75801 0.53327 0.23874 0.0
H2376 H 0.78332 0.51142 0.22311 0.0
O2377 O 0.76999 0.52379 0.26143 0.0
H2378 H 0.81361 0.49656 0.24976 0.0
H2379 H 0.77699 0.52811 0.20735 0.0
Cu2380 Cu 0.51994 0.25403 0.76711 0.0
N2381 N 0.51263 0.2547 0.78187 0.0
N2382 N 0.49924 0.25994 0.79527 0.0
C2383 C 0.5027 0.26093 0.78389 0.0
C2384 C 0.50744 0.25286 0.80066 0.0
C2385 C 0.51569 0.24965 0.79236 0.0
O2386 O 0.50722 0.25448 0.7549 0.0
C2387 C 0.54085 0.26468 0.7739 0.0
O2388 O 0.54099 0.25469 0.77999 0.0
H2389 H 0.49819 0.2662 0.77709 0.0
H2390 H 0.52335 0.24403 0.7939 0.0
N2391 N 0.52806 0.23978 0.76474 0.0
N2392 N 0.54124 0.22745 0.75687 0.0
C2393 C 0.53603 0.23822 0.75617 0.0
C2394 C 0.5281 0.22959 0.77106 0.0
C2395 C 0.5363 0.22197 0.76625 0.0
C2396 C 0.49923 0.24657 0.7566 0.0
O2397 O 0.50055 0.23938 0.76576 0.0
H2398 H 0.53829 0.24507 0.74981 0.0
H2399 H 0.52271 0.22787 0.77871 0.0
O2400 O 0.53187 0.26682 0.76705 0.0
H2401 H 0.5074 0.25005 0.80988 0.0
H2402 H 0.53848 0.21313 0.76942 0.0
Cu2403 Cu 0.50898 0.76931 0.7577 0.0
N2404 N 0.5204 0.76984 0.77023 0.0
N2405 N 0.53633 0.76422 0.78124 0.0
C2406 C 0.53011 0.76287 0.77085 0.0
C2407 C 0.5303 0.77244 0.78739 0.0
C2408 C 0.5205 0.77588 0.7806 0.0
O2409 O 0.51806 0.76923 0.74315 0.0
C2410 C 0.49445 0.7548 0.77043 0.0
O2411 O 0.49718 0.76323 0.77816 0.0
H2412 H 0.53225 0.75653 0.76397 0.0
H2413 H 0.51367 0.78194 0.78333 0.0
N2414 N 0.49877 0.78247 0.75718 0.0
N2415 N 0.48343 0.7938 0.75118 0.0
C2416 C 0.48912 0.78335 0.74983 0.0
C2417 C 0.49926 0.79277 0.76333 0.0
C2418 C 0.48977 0.79974 0.7597 0.0
C2419 C 0.52309 0.77913 0.74079 0.0
O2420 O 0.52136 0.78826 0.74783 0.0
H2421 H 0.48631 0.77642 0.74364 0.0
H2422 H 0.50617 0.79524 0.76976 0.0
O2423 O 0.49881 0.75537 0.76008 0.0
H2424 H 0.53267 0.77562 0.79625 0.0
H2425 H 0.48786 0.80862 0.76285 0.0
Cu2426 Cu 0.50682 0.74959 0.2595 0.0
N2427 N 0.49808 0.74991 0.27345 0.0
N2428 N 0.48429 0.75582 0.2861 0.0
C2429 C 0.4895 0.75786 0.2756 0.0
C2430 C 0.48985 0.74621 0.29077 0.0
C2431 C 0.49839 0.7426 0.28296 0.0
O2432 O 0.49513 0.74997 0.24628 0.0
C2433 C 0.52446 0.76269 0.27021 0.0
O2434 O 0.52277 0.75398 0.2778 0.0
H2435 H 0.48692 0.76481 0.26939 0.0
H2436 H 0.50438 0.73518 0.28414 0.0
N2437 N 0.5157 0.73569 0.25813 0.0
N2438 N 0.53019 0.72368 0.25216 0.0
C2439 C 0.52591 0.7349 0.25219 0.0
C2440 C 0.51335 0.72459 0.26198 0.0
C2441 C 0.52229 0.71717 0.25835 0.0
C2442 C 0.48669 0.7424 0.24736 0.0
O2443 O 0.48698 0.73516 0.25654 0.0
H2444 H 0.5299 0.7424 0.2477 0.0
H2445 H 0.50561 0.72202 0.26692 0.0
O2446 O 0.51819 0.76282 0.26056 0.0
H2447 H 0.48794 0.74212 0.29924 0.0
H2448 H 0.52288 0.70772 0.26013 0.0
Cu2449 Cu 0.50914 0.26248 0.2657 0.0
N2450 N 0.50295 0.2598 0.28066 0.0
N2451 N 0.49046 0.25228 0.29387 0.0
C2452 C 0.4918 0.25592 0.28254 0.0
C2453 C 0.50118 0.25401 0.29936 0.0
C2454 C 0.50888 0.25871 0.29117 0.0
O2455 O 0.49569 0.26351 0.25449 0.0
C2456 C 0.52037 0.23979 0.26731 0.0
O2457 O 0.51063 0.23619 0.2725 0.0
H2458 H 0.48509 0.25485 0.2755 0.0
H2459 H 0.51831 0.26043 0.29255 0.0
N2460 N 0.5177 0.27671 0.26538 0.0
N2461 N 0.53178 0.28956 0.25979 0.0
C2462 C 0.52775 0.27821 0.25931 0.0
C2463 C 0.51522 0.28746 0.26994 0.0
C2464 C 0.52391 0.29544 0.26648 0.0
C2465 C 0.49597 0.26913 0.24466 0.0
O2466 O 0.50622 0.27313 0.24087 0.0
H2467 H 0.5317 0.27117 0.2542 0.0
H2468 H 0.50752 0.28939 0.27517 0.0
O2469 O 0.52069 0.25013 0.26267 0.0
H2470 H 0.50342 0.25158 0.30848 0.0
H2471 H 0.52433 0.30483 0.26864 0.0
C2472 C 0.20135 0.20629 0.12993 0.0
C2473 C 0.20275 0.19384 0.13002 0.0
C2474 C 0.20458 0.21306 0.12007 0.0
C2475 C 0.21128 0.21028 0.08785 0.0
H2476 H 0.22439 0.24207 0.0924 0.0
C2477 C 0.23262 0.23753 0.05009 0.0
C2478 C 0.22903 0.24945 0.04894 0.0
C2479 C 0.22933 0.23075 0.05993 0.0
C2480 C 0.22065 0.23324 0.091 0.0
H2481 H 0.20874 0.17882 0.11964 0.0
H2482 H 0.2149 0.19066 0.10273 0.0
H2483 H 0.21918 0.23018 0.1097 0.0
H2484 H 0.21929 0.26364 0.05726 0.0
H2485 H 0.21364 0.25182 0.07457 0.0
H2486 H 0.21307 0.2133 0.06914 0.0
C2487 C 0.21101 0.19518 0.11019 0.0
C2488 C 0.21762 0.22642 0.10091 0.0
C2489 C 0.20764 0.18839 0.12 0.0
C2490 C 0.22211 0.25446 0.05787 0.0
C2491 C 0.21897 0.24773 0.06781 0.0
C2492 C 0.21446 0.21705 0.07796 0.0
C2493 C 0.20946 0.20761 0.11004 0.0
C2494 C 0.21285 0.21485 0.09948 0.0
C2495 C 0.22251 0.23579 0.06892 0.0
C2496 C 0.21914 0.22861 0.07943 0.0
H2497 H 0.19779 0.21086 0.13753 0.0
H2498 H 0.2031 0.22257 0.12027 0.0
H2499 H 0.20742 0.20152 0.08634 0.0
H2500 H 0.23785 0.23339 0.0433 0.0
H2501 H 0.23225 0.22159 0.06059 0.0
C2502 C 0.83514 0.21478 0.1148 0.0
C2503 C 0.82854 0.20816 0.12303 0.0
C2504 C 0.82956 0.2199 0.1048 0.0
C2505 C 0.80467 0.21733 0.08387 0.0
H2506 H 0.8081 0.25145 0.07969 0.0
C2507 C 0.77893 0.24227 0.04629 0.0
C2508 C 0.78428 0.25234 0.04121 0.0
C2509 C 0.78415 0.23676 0.05629 0.0
C2510 C 0.8072 0.24189 0.08054 0.0
H2511 H 0.81079 0.2016 0.12688 0.0
H2512 H 0.80121 0.21013 0.10907 0.0
H2513 H 0.8177 0.24179 0.09679 0.0
H2514 H 0.79943 0.26438 0.04243 0.0
H2515 H 0.80887 0.25448 0.05946 0.0
H2516 H 0.79463 0.21722 0.06742 0.0
C2517 C 0.81071 0.21142 0.11056 0.0
C2518 C 0.81264 0.23639 0.09042 0.0
C2519 C 0.81624 0.20648 0.12072 0.0
C2520 C 0.79504 0.2567 0.04623 0.0
C2521 C 0.8004 0.25104 0.05608 0.0
C2522 C 0.79943 0.22278 0.07384 0.0
C2523 C 0.8173 0.21831 0.10262 0.0
C2524 C 0.81141 0.22407 0.09218 0.0
C2525 C 0.79499 0.24104 0.06133 0.0
C2526 C 0.8006 0.23516 0.07202 0.0
H2527 H 0.84467 0.21601 0.11602 0.0
H2528 H 0.83486 0.22506 0.0987 0.0
H2529 H 0.80369 0.20779 0.085 0.0
H2530 H 0.77056 0.23877 0.04267 0.0
H2531 H 0.77954 0.22926 0.06016 0.0
C2532 C 0.80789 0.82926 0.10153 0.0
C2533 C 0.81128 0.82257 0.11162 0.0
C2534 C 0.80495 0.82363 0.09074 0.0
C2535 C 0.79431 0.79514 0.07802 0.0
H2536 H 0.80338 0.80993 0.04837 0.0
C2537 C 0.77723 0.7777 0.03174 0.0
C2538 C 0.77204 0.78676 0.02476 0.0
C2539 C 0.78427 0.7806 0.04189 0.0
C2540 C 0.80081 0.80566 0.05657 0.0
H2541 H 0.81419 0.80466 0.11827 0.0
H2542 H 0.80908 0.79481 0.09934 0.0
H2543 H 0.81121 0.81788 0.06725 0.0
H2544 H 0.77063 0.80588 0.02249 0.0
H2545 H 0.78292 0.81089 0.03992 0.0
H2546 H 0.7836 0.78315 0.06729 0.0
C2547 C 0.80868 0.80443 0.09982 0.0
C2548 C 0.80525 0.81024 0.06739 0.0
C2549 C 0.81169 0.81008 0.11063 0.0
C2550 C 0.77449 0.7987 0.02773 0.0
C2551 C 0.7816 0.80158 0.03769 0.0
C2552 C 0.78985 0.79054 0.06717 0.0
C2553 C 0.80529 0.81115 0.08974 0.0
C2554 C 0.80178 0.80528 0.07826 0.0
C2555 C 0.78639 0.7926 0.04504 0.0
C2556 C 0.79277 0.79599 0.05634 0.0
H2557 H 0.80761 0.83889 0.10194 0.0
H2558 H 0.8022 0.82908 0.08321 0.0
H2559 H 0.79141 0.79113 0.08623 0.0
H2560 H 0.77542 0.76842 0.02968 0.0
H2561 H 0.78788 0.77349 0.04738 0.0
C2562 C 0.19693 0.80815 0.11793 0.0
C2563 C 0.19518 0.82034 0.12009 0.0
C2564 C 0.20278 0.80441 0.10774 0.0
C2565 C 0.21126 0.81425 0.07765 0.0
H2566 H 0.23561 0.79011 0.08102 0.0
C2567 C 0.2439 0.80421 0.04012 0.0
C2568 C 0.24688 0.79225 0.03811 0.0
C2569 C 0.23736 0.80743 0.05004 0.0
C2570 C 0.22873 0.79675 0.07988 0.0
H2571 H 0.19785 0.83812 0.11306 0.0
H2572 H 0.20812 0.83162 0.09539 0.0
H2573 H 0.22429 0.79589 0.09829 0.0
H2574 H 0.24544 0.77432 0.0452 0.0
H2575 H 0.23383 0.77987 0.06226 0.0
H2576 H 0.21567 0.81511 0.05925 0.0
C2577 C 0.20496 0.82494 0.10153 0.0
C2578 C 0.22224 0.80005 0.08979 0.0
C2579 C 0.19919 0.82868 0.11173 0.0
C2580 C 0.2432 0.7836 0.04634 0.0
C2581 C 0.23665 0.78681 0.05623 0.0
C2582 C 0.21772 0.81091 0.06774 0.0
C2583 C 0.20691 0.81278 0.09946 0.0
C2584 C 0.21347 0.8089 0.08881 0.0
C2585 C 0.23362 0.79876 0.0582 0.0
C2586 C 0.2266 0.80217 0.06873 0.0
H2587 H 0.194 0.80152 0.12423 0.0
H2588 H 0.20404 0.79497 0.10634 0.0
H2589 H 0.20444 0.82097 0.07656 0.0
H2590 H 0.24648 0.81111 0.03396 0.0
H2591 H 0.23533 0.81674 0.05135 0.0
C2592 C 0.19297 0.81485 0.90442 0.0
C2593 C 0.18977 0.80822 0.89419 0.0
C2594 C 0.19718 0.80919 0.91477 0.0
C2595 C 0.21177 0.78185 0.92554 0.0
H2596 H 0.20274 0.7939 0.95634 0.0
C2597 C 0.23357 0.76501 0.97007 0.0
C2598 C 0.23794 0.77444 0.97721 0.0
C2599 C 0.22565 0.76729 0.96042 0.0
C2600 C 0.20532 0.7904 0.94781 0.0
H2601 H 0.18853 0.79037 0.88684 0.0
H2602 H 0.19587 0.78045 0.90499 0.0
H2603 H 0.19298 0.80154 0.93828 0.0
H2604 H 0.23701 0.79346 0.98033 0.0
H2605 H 0.22322 0.79738 0.96383 0.0
H2606 H 0.22441 0.77099 0.93512 0.0
C2607 C 0.19513 0.79006 0.90495 0.0
C2608 C 0.19977 0.79481 0.93746 0.0
C2609 C 0.19084 0.79574 0.89459 0.0
C2610 C 0.23381 0.78601 0.97496 0.0
C2611 C 0.22583 0.78825 0.96553 0.0
C2612 C 0.21735 0.77743 0.93593 0.0
C2613 C 0.19833 0.79673 0.91517 0.0
C2614 C 0.20317 0.79087 0.92617 0.0
C2615 C 0.22183 0.77899 0.95797 0.0
C2616 C 0.21445 0.78193 0.94716 0.0
H2617 H 0.19214 0.82446 0.90446 0.0
H2618 H 0.19972 0.81462 0.92241 0.0
H2619 H 0.21463 0.77865 0.91699 0.0
H2620 H 0.23669 0.75602 0.97157 0.0
H2621 H 0.22268 0.75997 0.95477 0.0
C2622 C 0.22654 0.19149 0.90537 0.0
C2623 C 0.21421 0.18965 0.90358 0.0
C2624 C 0.23105 0.19657 0.91601 0.0
C2625 C 0.2212 0.21579 0.94045 0.0
H2626 H 0.25009 0.20583 0.95724 0.0
C2627 C 0.23205 0.23359 0.9868 0.0
C2628 C 0.24354 0.23825 0.98901 0.0
C2629 C 0.22958 0.22651 0.97684 0.0
C2630 C 0.24207 0.20876 0.95258 0.0
H2631 H 0.19705 0.19096 0.91184 0.0
H2632 H 0.20485 0.19968 0.93031 0.0
H2633 H 0.24361 0.19561 0.9388 0.0
H2634 H 0.26168 0.23851 0.98291 0.0
H2635 H 0.25732 0.22607 0.96525 0.0
H2636 H 0.21956 0.22887 0.95409 0.0
C2637 C 0.21104 0.19753 0.92342 0.0
C2638 C 0.23836 0.20292 0.94203 0.0
C2639 C 0.20656 0.19252 0.91282 0.0
C2640 C 0.25274 0.23501 0.98143 0.0
C2641 C 0.25024 0.22792 0.97133 0.0
C2642 C 0.22487 0.22156 0.95093 0.0
C2643 C 0.2233 0.19988 0.92505 0.0
C2644 C 0.22776 0.20626 0.93596 0.0
C2645 C 0.23852 0.22396 0.96873 0.0
C2646 C 0.23522 0.218 0.95725 0.0
H2647 H 0.23266 0.1894 0.89839 0.0
H2648 H 0.24053 0.1983 0.91696 0.0
H2649 H 0.21319 0.21884 0.93584 0.0
H2650 H 0.2248 0.23578 0.99257 0.0
H2651 H 0.22053 0.22334 0.97526 0.0
C2652 C 0.8391 0.20476 0.90288 0.0
C2653 C 0.8313 0.20047 0.89382 0.0
C2654 C 0.83466 0.21047 0.91291 0.0
C2655 C 0.80741 0.21294 0.93035 0.0
H2656 H 0.82261 0.24145 0.94326 0.0
C2657 C 0.78622 0.24096 0.96734 0.0
C2658 C 0.79386 0.24603 0.97611 0.0
C2659 C 0.79085 0.23528 0.9574 0.0
C2660 C 0.81834 0.2334 0.93988 0.0
H2661 H 0.81273 0.19926 0.888 0.0
H2662 H 0.80503 0.20909 0.90549 0.0
H2663 H 0.83067 0.23194 0.92573 0.0
H2664 H 0.81237 0.24877 0.98149 0.0
H2665 H 0.82045 0.23876 0.96428 0.0
H2666 H 0.79513 0.21432 0.94451 0.0
C2667 C 0.81456 0.20786 0.90495 0.0
C2668 C 0.82296 0.22796 0.92981 0.0
C2669 C 0.81899 0.20222 0.89493 0.0
C2670 C 0.80624 0.24513 0.9748 0.0
C2671 C 0.81087 0.23941 0.96491 0.0
C2672 C 0.80282 0.21834 0.94044 0.0
C2673 C 0.82233 0.21197 0.9141 0.0
C2674 C 0.81753 0.2177 0.9249 0.0
C2675 C 0.80324 0.23449 0.95602 0.0
C2676 C 0.8082 0.22866 0.94533 0.0
H2677 H 0.84862 0.20346 0.90239 0.0
H2678 H 0.84088 0.21344 0.91986 0.0
H2679 H 0.80312 0.20493 0.92689 0.0
H2680 H 0.77665 0.24164 0.96799 0.0
H2681 H 0.7847 0.23175 0.95066 0.0
C2682 C 0.81296 0.82712 0.885 0.0
C2683 C 0.81446 0.83945 0.88331 0.0
C2684 C 0.80691 0.82276 0.89485 0.0
C2685 C 0.79714 0.83116 0.92495 0.0
H2686 H 0.7749 0.80484 0.92037 0.0
C2687 C 0.76489 0.81622 0.9615 0.0
C2688 C 0.76322 0.8039 0.96311 0.0
C2689 C 0.77121 0.82056 0.95183 0.0
C2690 C 0.78117 0.81211 0.92184 0.0
H2691 H 0.811 0.85684 0.89082 0.0
H2692 H 0.80028 0.84925 0.90786 0.0
H2693 H 0.78593 0.81234 0.90351 0.0
H2694 H 0.76674 0.78651 0.95561 0.0
H2695 H 0.77791 0.79405 0.9389 0.0
H2696 H 0.79235 0.83094 0.94328 0.0
C2697 C 0.80385 0.84294 0.90162 0.0
C2698 C 0.78751 0.81641 0.91217 0.0
C2699 C 0.80988 0.8473 0.89177 0.0
C2700 C 0.76797 0.79604 0.95475 0.0
C2701 C 0.77427 0.80037 0.94507 0.0
C2702 C 0.7908 0.82687 0.93462 0.0
C2703 C 0.80224 0.83062 0.90325 0.0
C2704 C 0.79557 0.82599 0.91359 0.0
C2705 C 0.77599 0.81269 0.94349 0.0
C2706 C 0.78273 0.81729 0.93319 0.0
H2707 H 0.81627 0.82082 0.87861 0.0
H2708 H 0.80595 0.81322 0.89589 0.0
H2709 H 0.8034 0.83844 0.9264 0.0
H2710 H 0.76145 0.82253 0.96781 0.0
H2711 H 0.77225 0.8301 0.95082 0.0
C2712 C 0.11829 0.19406 0.2028 0.0
C2713 C 0.12862 0.18943 0.20837 0.0
C2714 C 0.10876 0.19786 0.20956 0.0
C2715 C 0.09572 0.19477 0.23939 0.0
H2716 H 0.07867 0.22337 0.2302 0.0
C2717 C 0.05845 0.22902 0.25915 0.0
C2718 C 0.05021 0.22076 0.26359 0.0
C2719 C 0.06811 0.2252 0.25257 0.0
C2720 C 0.08339 0.21542 0.23296 0.0
H2721 H 0.13708 0.18535 0.22547 0.0
H2722 H 0.12049 0.192 0.23726 0.0
H2723 H 0.0954 0.21685 0.21853 0.0
H2724 H 0.04566 0.20197 0.26448 0.0
H2725 H 0.06244 0.19533 0.25298 0.0
H2726 H 0.08387 0.19348 0.25395 0.0
C2727 C 0.11966 0.19251 0.22764 0.0
C2728 C 0.0929 0.21159 0.22617 0.0
C2729 C 0.12919 0.18869 0.22088 0.0
C2730 C 0.05192 0.20857 0.26136 0.0
C2731 C 0.06156 0.20476 0.25476 0.0
C2732 C 0.08621 0.1986 0.24617 0.0
C2733 C 0.10932 0.19714 0.22208 0.0
C2734 C 0.09919 0.20121 0.2293 0.0
C2735 C 0.06976 0.21303 0.25024 0.0
C2736 C 0.07993 0.20898 0.24305 0.0
H2737 H 0.11749 0.19459 0.19318 0.0
H2738 H 0.10086 0.2012 0.20497 0.0
H2739 H 0.10027 0.18667 0.24199 0.0
H2740 H 0.05752 0.23845 0.26086 0.0
H2741 H 0.07436 0.23181 0.24941 0.0
C2742 C 0.82549 0.12605 0.20944 0.0
C2743 C 0.8255 0.12658 0.19693 0.0
C2744 C 0.82155 0.1158 0.21527 0.0
C2745 C 0.80332 0.08847 0.21084 0.0
H2746 H 0.82068 0.07769 0.23912 0.0
C2747 C 0.78523 0.0513 0.24123 0.0
C2748 C 0.79339 0.04289 0.24579 0.0
C2749 C 0.78919 0.06141 0.23518 0.0
C2750 C 0.81578 0.08052 0.23118 0.0
H2751 H 0.82135 0.11667 0.18073 0.0
H2752 H 0.81444 0.09879 0.1909 0.0
H2753 H 0.82753 0.09534 0.22859 0.0
H2754 H 0.81215 0.03856 0.24743 0.0
H2755 H 0.81906 0.05618 0.23689 0.0
H2756 H 0.79167 0.07354 0.21333 0.0
C2757 C 0.81737 0.10637 0.19621 0.0
C2758 C 0.81963 0.09073 0.22522 0.0
C2759 C 0.82133 0.11663 0.19038 0.0
C2760 C 0.80562 0.0449 0.24419 0.0
C2761 C 0.80959 0.05502 0.23813 0.0
C2762 C 0.79945 0.07827 0.21682 0.0
C2763 C 0.81749 0.10581 0.20874 0.0
C2764 C 0.81344 0.09485 0.21499 0.0
C2765 C 0.80142 0.06339 0.23353 0.0
C2766 C 0.80562 0.07418 0.22708 0.0
H2767 H 0.82843 0.13362 0.21477 0.0
H2768 H 0.82155 0.11577 0.22492 0.0
H2769 H 0.79828 0.09145 0.20305 0.0
H2770 H 0.77577 0.05019 0.24248 0.0
H2771 H 0.78267 0.06777 0.23194 0.0
C2772 C 0.89627 0.82159 0.18776 0.0
C2773 C 0.88568 0.82398 0.19366 0.0
C2774 C 0.90639 0.81771 0.19411 0.0
C2775 C 0.91982 0.81535 0.22474 0.0
H2776 H 0.93922 0.7914 0.20995 0.0
C2777 C 0.95962 0.77976 0.23776 0.0
C2778 C 0.96694 0.7869 0.24524 0.0
C2779 C 0.94985 0.78462 0.23158 0.0
C2780 C 0.93386 0.798 0.21429 0.0
H2781 H 0.87741 0.82423 0.21086 0.0
H2782 H 0.89499 0.8172 0.22195 0.0
H2783 H 0.92186 0.79909 0.19923 0.0
H2784 H 0.96978 0.80478 0.25204 0.0
H2785 H 0.95284 0.81338 0.24107 0.0
H2786 H 0.93158 0.81389 0.23999 0.0
C2787 C 0.89558 0.81856 0.21244 0.0
C2788 C 0.92397 0.80257 0.20804 0.0
C2789 C 0.88548 0.82256 0.20609 0.0
C2790 C 0.96424 0.79904 0.24642 0.0
C2791 C 0.9545 0.80394 0.24016 0.0
C2792 C 0.92968 0.81072 0.23103 0.0
C2793 C 0.90616 0.816 0.20652 0.0
C2794 C 0.9168 0.81129 0.21318 0.0
C2795 C 0.94718 0.79679 0.23264 0.0
C2796 C 0.93681 0.80195 0.2259 0.0
H2797 H 0.89675 0.82279 0.17821 0.0
H2798 H 0.91443 0.8161 0.18927 0.0
H2799 H 0.9146 0.82216 0.22894 0.0
H2800 H 0.96132 0.77033 0.23684 0.0
H2801 H 0.94428 0.77876 0.22611 0.0
C2802 C 0.19249 0.88543 0.20953 0.0
C2803 C 0.1803 0.8849 0.2064 0.0
C2804 C 0.19723 0.89518 0.21587 0.0
C2805 C 0.18822 0.92068 0.23474 0.0
H2806 H 0.22007 0.93218 0.22841 0.0
C2807 C 0.21139 0.95671 0.26418 0.0
C2808 C 0.21866 0.96513 0.25858 0.0
C2809 C 0.20684 0.94685 0.25786 0.0
C2810 C 0.21111 0.92918 0.23022 0.0
H2811 H 0.16357 0.89432 0.20713 0.0
H2812 H 0.17184 0.91147 0.2179 0.0
H2813 H 0.2118 0.91552 0.21699 0.0
H2814 H 0.22664 0.96998 0.2419 0.0
H2815 H 0.21851 0.95299 0.23079 0.0
H2816 H 0.18735 0.93463 0.24764 0.0
C2817 C 0.17772 0.90421 0.2158 0.0
C2818 C 0.20642 0.91948 0.22378 0.0
C2819 C 0.17297 0.8944 0.20958 0.0
C2820 C 0.22123 0.96353 0.24651 0.0
C2821 C 0.21658 0.95376 0.24015 0.0
C2822 C 0.19287 0.93044 0.24111 0.0
C2823 C 0.1899 0.90471 0.21911 0.0
C2824 C 0.19491 0.91508 0.22595 0.0
C2825 C 0.20934 0.94526 0.24575 0.0
C2826 C 0.20439 0.93483 0.23896 0.0
H2827 H 0.19833 0.87817 0.20731 0.0
H2828 H 0.2066 0.89513 0.21841 0.0
H2829 H 0.1794 0.91746 0.2368 0.0
H2830 H 0.20939 0.95763 0.27351 0.0
H2831 H 0.20149 0.9404 0.26255 0.0
C2832 C 0.11507 0.83544 0.80236 0.0
C2833 C 0.12406 0.82793 0.80697 0.0
C2834 C 0.10532 0.83075 0.79581 0.0
C2835 C 0.0955 0.80372 0.77898 0.0
H2836 H 0.06355 0.81441 0.78545 0.0
C2837 C 0.05433 0.7744 0.77139 0.0
C2838 C 0.04382 0.77923 0.7664 0.0
C2839 C 0.06414 0.78164 0.77415 0.0
C2840 C 0.07243 0.8115 0.78336 0.0
H2841 H 0.12986 0.80958 0.8081 0.0
H2842 H 0.11281 0.80139 0.79698 0.0
H2843 H 0.08074 0.8246 0.79482 0.0
H2844 H 0.0354 0.79545 0.7602 0.0
H2845 H 0.05269 0.80835 0.76535 0.0
H2846 H 0.08718 0.79032 0.76794 0.0
C2847 C 0.11335 0.81094 0.79827 0.0
C2848 C 0.08228 0.81731 0.78874 0.0
C2849 C 0.12306 0.81562 0.80482 0.0
C2850 C 0.04342 0.79151 0.764 0.0
C2851 C 0.05326 0.79886 0.76699 0.0
C2852 C 0.08567 0.7979 0.77367 0.0
C2853 C 0.10435 0.81843 0.79366 0.0
C2854 C 0.09393 0.81326 0.78688 0.0
C2855 C 0.0637 0.79396 0.77214 0.0
C2856 C 0.07403 0.8015 0.77606 0.0
H2857 H 0.1155 0.84496 0.80394 0.0
H2858 H 0.09859 0.83678 0.79234 0.0
H2859 H 0.10433 0.80055 0.77709 0.0
H2860 H 0.05495 0.76496 0.77329 0.0
H2861 H 0.07199 0.77761 0.77823 0.0
C2862 C 0.21426 0.12465 0.81406 0.0
C2863 C 0.20184 0.12582 0.81462 0.0
C2864 C 0.21924 0.11495 0.80824 0.0
C2865 C 0.21276 0.08416 0.79828 0.0
H2866 H 0.24163 0.08893 0.78066 0.0
C2867 C 0.23878 0.04522 0.77658 0.0
C2868 C 0.25094 0.04532 0.77991 0.0
C2869 C 0.23166 0.05516 0.77889 0.0
C2870 C 0.23355 0.08745 0.78552 0.0
H2871 H 0.1849 0.1176 0.80955 0.0
H2872 H 0.1936 0.10073 0.79923 0.0
H2873 H 0.23129 0.10609 0.78853 0.0
H2874 H 0.26526 0.05605 0.7878 0.0
H2875 H 0.25301 0.07324 0.79164 0.0
H2876 H 0.21522 0.06544 0.7954 0.0
C2877 C 0.19949 0.1073 0.80337 0.0
C2878 C 0.22765 0.09728 0.79009 0.0
C2879 C 0.19451 0.11704 0.80919 0.0
C2880 C 0.2559 0.05564 0.78518 0.0
C2881 C 0.24889 0.06556 0.7873 0.0
C2882 C 0.21866 0.07429 0.79364 0.0
C2883 C 0.21193 0.10615 0.80281 0.0
C2884 C 0.21737 0.09575 0.79682 0.0
C2885 C 0.23667 0.06541 0.78432 0.0
C2886 C 0.2293 0.07583 0.78751 0.0
H2887 H 0.22019 0.1313 0.81802 0.0
H2888 H 0.22885 0.11428 0.80816 0.0
H2889 H 0.2049 0.08264 0.80346 0.0
H2890 H 0.23472 0.03736 0.77253 0.0
H2891 H 0.22225 0.05482 0.77648 0.0
C2892 C 0.92203 0.20057 0.82789 0.0
C2893 C 0.91143 0.19916 0.82111 0.0
C2894 C 0.93225 0.20523 0.82273 0.0
C2895 C 0.94562 0.21395 0.79375 0.0
H2896 H 0.96276 0.23662 0.81399 0.0
C2897 C 0.98739 0.24173 0.77917 0.0
C2898 C 0.98763 0.25361 0.78314 0.0
C2899 C 0.97858 0.23379 0.78312 0.0
C2900 C 0.95806 0.23035 0.80818 0.0
H2901 H 0.90326 0.20112 0.80354 0.0
H2902 H 0.92098 0.20968 0.79457 0.0
H2903 H 0.94666 0.225 0.82208 0.0
H2904 H 0.97843 0.26665 0.79372 0.0
H2905 H 0.96316 0.25306 0.8003 0.0
H2906 H 0.95682 0.2199 0.77967 0.0
C2907 C 0.92153 0.20694 0.80381 0.0
C2908 C 0.9489 0.22352 0.81288 0.0
C2909 C 0.91135 0.20209 0.80895 0.0
C2910 C 0.97866 0.2575 0.79067 0.0
C2911 C 0.96991 0.24967 0.79451 0.0
C2912 C 0.95481 0.22088 0.789 0.0
C2913 C 0.93205 0.20881 0.81071 0.0
C2914 C 0.94243 0.21533 0.80572 0.0
C2915 C 0.9699 0.23765 0.79106 0.0
C2916 C 0.96096 0.22934 0.79612 0.0
H2917 H 0.92239 0.19817 0.83724 0.0
H2918 H 0.94025 0.20622 0.82826 0.0
H2919 H 0.94095 0.20762 0.788 0.0
H2920 H 0.99417 0.23849 0.77334 0.0
H2921 H 0.97878 0.22458 0.78028 0.0
C2922 C 0.82794 0.91445 0.80415 0.0
C2923 C 0.83099 0.90449 0.79733 0.0
C2924 C 0.82354 0.92473 0.79866 0.0
C2925 C 0.80806 0.93531 0.77143 0.0
H2926 H 0.81672 0.96629 0.78442 0.0
C2927 C 0.78482 0.97903 0.75579 0.0
C2928 C 0.78043 0.9855 0.76543 0.0
C2929 C 0.79303 0.96982 0.75783 0.0
C2930 C 0.81425 0.95771 0.78065 0.0
H2931 H 0.83184 0.89756 0.77935 0.0
H2932 H 0.82418 0.91561 0.76972 0.0
H2933 H 0.82714 0.94862 0.7916 0.0
H2934 H 0.7816 0.98787 0.78459 0.0
H2935 H 0.79591 0.9721 0.78808 0.0
H2936 H 0.79488 0.94443 0.76075 0.0
C2937 C 0.82516 0.91541 0.77934 0.0
C2938 C 0.82018 0.94758 0.7848 0.0
C2939 C 0.82964 0.90511 0.78485 0.0
C2940 C 0.7848 0.98301 0.77699 0.0
C2941 C 0.79308 0.97401 0.77899 0.0
C2942 C 0.80212 0.94548 0.76726 0.0
C2943 C 0.82206 0.92534 0.78619 0.0
C2944 C 0.8169 0.93621 0.78053 0.0
C2945 C 0.79713 0.96714 0.76949 0.0
C2946 C 0.80489 0.95674 0.77211 0.0
H2947 H 0.82899 0.91432 0.81377 0.0
H2948 H 0.82107 0.93214 0.80423 0.0
H2949 H 0.80528 0.92668 0.76798 0.0
H2950 H 0.78153 0.98074 0.7468 0.0
H2951 H 0.79603 0.96467 0.75034 0.0
C2952 C 0.19487 0.09981 0.20272 0.0
C2953 C 0.20208 0.10992 0.2011 0.0
C2954 C 0.19982 0.08912 0.20669 0.0
C2955 C 0.22802 0.07247 0.21153 0.0
H2956 H 0.20932 0.05634 0.23525 0.0
C2957 C 0.24394 0.03244 0.2417 0.0
C2958 C 0.23521 0.02371 0.24385 0.0
C2959 C 0.24102 0.04264 0.23499 0.0
C2960 C 0.2146 0.06064 0.22854 0.0
H2961 H 0.22023 0.11663 0.20186 0.0
H2962 H 0.22893 0.0979 0.20905 0.0
H2963 H 0.20213 0.07477 0.22655 0.0
H2964 H 0.21698 0.01824 0.23981 0.0
H2965 H 0.21201 0.03575 0.22804 0.0
H2966 H 0.24061 0.05824 0.21382 0.0
C2967 C 0.21944 0.09823 0.20712 0.0
C2968 C 0.21047 0.07122 0.22352 0.0
C2969 C 0.21447 0.10896 0.20303 0.0
C2970 C 0.22386 0.02489 0.23844 0.0
C2971 C 0.22098 0.03496 0.23175 0.0
C2972 C 0.23222 0.06182 0.21665 0.0
C2973 C 0.21211 0.08827 0.20927 0.0
C2974 C 0.21699 0.0772 0.2148 0.0
C2975 C 0.22936 0.04419 0.23035 0.0
C2976 C 0.22543 0.0557 0.22507 0.0
H2977 H 0.18533 0.10022 0.20105 0.0
H2978 H 0.19394 0.08155 0.20791 0.0
H2979 H 0.23327 0.07684 0.20484 0.0
H2980 H 0.25275 0.03178 0.2458 0.0
H2981 H 0.24767 0.04959 0.23405 0.0
C2982 C 0.21171 0.90463 0.84024 0.0
C2983 C 0.20743 0.89619 0.83187 0.0
C2984 C 0.21764 0.91493 0.83655 0.0
C2985 C 0.23427 0.9273 0.81133 0.0
H2986 H 0.22818 0.95768 0.82633 0.0
C2987 C 0.25229 0.97164 0.79267 0.0
C2988 C 0.25645 0.98036 0.80081 0.0
C2989 C 0.24647 0.96138 0.79661 0.0
C2990 C 0.2301 0.94925 0.82215 0.0
H2991 H 0.2061 0.892 0.81302 0.0
H2992 H 0.21628 0.91006 0.80657 0.0
H2993 H 0.21758 0.93988 0.83282 0.0
H2994 H 0.25774 0.98503 0.81954 0.0
H2995 H 0.24778 0.96701 0.82646 0.0
H2996 H 0.2468 0.93664 0.80067 0.0
C2997 C 0.21514 0.90865 0.81601 0.0
C2998 C 0.22401 0.93904 0.82586 0.0
C2999 C 0.20918 0.89836 0.8197 0.0
C3000 C 0.25473 0.97848 0.81303 0.0
C3001 C 0.24889 0.9682 0.81698 0.0
C3002 C 0.24037 0.9375 0.80763 0.0
C3003 C 0.21949 0.91705 0.82439 0.0
C3004 C 0.22599 0.92794 0.82048 0.0
C3005 C 0.24467 0.95953 0.80882 0.0
C3006 C 0.23834 0.94862 0.81296 0.0
H3007 H 0.2104 0.90331 0.84967 0.0
H3008 H 0.22096 0.92116 0.84326 0.0
H3009 H 0.23618 0.91887 0.80713 0.0
H3010 H 0.25359 0.97267 0.78321 0.0
H3011 H 0.24324 0.95497 0.79006 0.0
C3012 C 0.13305 0.22217 0.83217 0.0
C3013 C 0.13384 0.20974 0.83083 0.0
C3014 C 0.12314 0.22835 0.82772 0.0
C3015 C 0.09159 0.22376 0.8177 0.0
H3016 H 0.09518 0.25584 0.80541 0.0
C3017 C 0.05302 0.24949 0.79432 0.0
C3018 C 0.05154 0.26142 0.79778 0.0
C3019 C 0.06305 0.24311 0.79817 0.0
C3020 C 0.09403 0.24692 0.80891 0.0
H3021 H 0.12478 0.19412 0.82351 0.0
H3022 H 0.10771 0.20495 0.81533 0.0
H3023 H 0.11278 0.24476 0.81192 0.0
H3024 H 0.05946 0.276 0.80794 0.0
H3025 H 0.07706 0.26485 0.81462 0.0
H3026 H 0.07282 0.22592 0.81447 0.0
C3027 C 0.11465 0.2099 0.8201 0.0
C3028 C 0.10412 0.24056 0.81267 0.0
C3029 C 0.12455 0.2037 0.82465 0.0
C3030 C 0.06032 0.26681 0.80519 0.0
C3031 C 0.07044 0.26046 0.80892 0.0
C3032 C 0.08152 0.23008 0.81382 0.0
C3033 C 0.11376 0.22231 0.82166 0.0
C3034 C 0.10304 0.22892 0.81721 0.0
C3035 C 0.0719 0.24853 0.80547 0.0
C3036 C 0.08262 0.24176 0.80945 0.0
H3037 H 0.14011 0.22718 0.83668 0.0
H3038 H 0.12275 0.23786 0.82924 0.0
H3039 H 0.09034 0.21492 0.82133 0.0
H3040 H 0.04636 0.24505 0.78873 0.0
H3041 H 0.06396 0.23395 0.7953 0.0
C3042 C 0.82788 0.12283 0.80368 0.0
C3043 C 0.83057 0.12446 0.81587 0.0
C3044 C 0.82101 0.11306 0.79977 0.0
C3045 C 0.79929 0.09082 0.81055 0.0
H3046 H 0.8067 0.07395 0.78158 0.0
C3047 C 0.77624 0.04646 0.79697 0.0
C3048 C 0.77291 0.04499 0.78489 0.0
C3049 C 0.78326 0.05619 0.80068 0.0
C3050 C 0.80445 0.07865 0.78963 0.0
H3051 H 0.82854 0.11689 0.83347 0.0
H3052 H 0.81666 0.09984 0.82666 0.0
H3053 H 0.81917 0.09075 0.78813 0.0
H3054 H 0.77415 0.05284 0.7673 0.0
H3055 H 0.78642 0.06973 0.77377 0.0
H3056 H 0.7846 0.07869 0.81208 0.0
C3057 C 0.8196 0.10623 0.82013 0.0
C3058 C 0.81158 0.08828 0.79338 0.0
C3059 C 0.82644 0.116 0.82404 0.0
C3060 C 0.77671 0.05354 0.77663 0.0
C3061 C 0.78375 0.06325 0.78034 0.0
C3062 C 0.79218 0.08118 0.80683 0.0
C3063 C 0.81671 0.10469 0.80796 0.0
C3064 C 0.8091 0.09447 0.8039 0.0
C3065 C 0.78713 0.06468 0.7924 0.0
C3066 C 0.79468 0.07497 0.79633 0.0
H3067 H 0.83084 0.12926 0.79718 0.0
H3068 H 0.81883 0.11222 0.79035 0.0
H3069 H 0.79698 0.09552 0.81858 0.0
H3070 H 0.77363 0.03999 0.80356 0.0
H3071 H 0.78584 0.05695 0.81002 0.0
C3072 C 0.89896 0.80749 0.81897 0.0
C3073 C 0.89775 0.81987 0.81739 0.0
C3074 C 0.90897 0.80155 0.81492 0.0
C3075 C 0.94001 0.80694 0.80512 0.0
H3076 H 0.9367 0.77476 0.79283 0.0
C3077 C 0.97747 0.78276 0.78049 0.0
C3078 C 0.97986 0.771 0.78405 0.0
C3079 C 0.96752 0.78872 0.78465 0.0
C3080 C 0.93777 0.78371 0.79632 0.0
H3081 H 0.90629 0.83564 0.81024 0.0
H3082 H 0.9234 0.82522 0.8027 0.0
H3083 H 0.91917 0.78521 0.79956 0.0
H3084 H 0.97364 0.75622 0.79467 0.0
H3085 H 0.95612 0.7666 0.80186 0.0
H3086 H 0.9586 0.80547 0.80156 0.0
C3087 C 0.91674 0.82012 0.80734 0.0
C3088 C 0.92773 0.78971 0.80023 0.0
C3089 C 0.90679 0.82609 0.81151 0.0
C3090 C 0.97206 0.7653 0.79184 0.0
C3091 C 0.962 0.77121 0.79587 0.0
C3092 C 0.95002 0.80099 0.80107 0.0
C3093 C 0.91801 0.80777 0.80903 0.0
C3094 C 0.9287 0.8014 0.80473 0.0
C3095 C 0.95965 0.78299 0.79235 0.0
C3096 C 0.94901 0.7893 0.79666 0.0
H3097 H 0.89212 0.80233 0.82328 0.0
H3098 H 0.90965 0.79207 0.81655 0.0
H3099 H 0.9412 0.81583 0.80873 0.0
H3100 H 0.98338 0.78742 0.77459 0.0
H3101 H 0.96589 0.79777 0.78173 0.0
C3102 C 0.81393 0.90951 0.19313 0.0
C3103 C 0.80719 0.89946 0.18957 0.0
C3104 C 0.80833 0.91997 0.19658 0.0
C3105 C 0.78063 0.93116 0.20883 0.0
H3106 H 0.79442 0.96177 0.2007 0.0
C3107 C 0.76496 0.9757 0.22972 0.0
C3108 C 0.77453 0.9823 0.23475 0.0
C3109 C 0.76712 0.9662 0.22193 0.0
C3110 C 0.79042 0.9533 0.20301 0.0
H3111 H 0.78925 0.89255 0.18675 0.0
H3112 H 0.77941 0.91092 0.19282 0.0
H3113 H 0.8017 0.94372 0.19138 0.0
H3114 H 0.79373 0.98458 0.23512 0.0
H3115 H 0.79745 0.96831 0.22155 0.0
H3116 H 0.76964 0.94077 0.22081 0.0
C3117 C 0.78905 0.91065 0.19295 0.0
C3118 C 0.79462 0.94295 0.19771 0.0
C3119 C 0.79468 0.90017 0.1894 0.0
C3120 C 0.78617 0.97963 0.23142 0.0
C3121 C 0.7883 0.97034 0.22356 0.0
C3122 C 0.77642 0.94155 0.21416 0.0
C3123 C 0.79583 0.92067 0.19659 0.0
C3124 C 0.79006 0.93172 0.20085 0.0
C3125 C 0.77885 0.96335 0.21889 0.0
C3126 C 0.78156 0.95269 0.2116 0.0
H3127 H 0.82358 0.9093 0.19323 0.0
H3128 H 0.81383 0.92744 0.19948 0.0
H3129 H 0.77695 0.92264 0.21148 0.0
H3130 H 0.75591 0.97754 0.2322 0.0
H3131 H 0.75966 0.96098 0.21844 0.0
C3132 C 0.10009 0.81145 0.18812 0.0
C3133 C 0.10935 0.8039 0.18478 0.0
C3134 C 0.08971 0.80677 0.19291 0.0
C3135 C 0.07155 0.7794 0.19652 0.0
H3136 H 0.06017 0.79654 0.22389 0.0
C3137 C 0.03332 0.76283 0.22723 0.0
C3138 C 0.02575 0.77172 0.23143 0.0
C3139 C 0.0432 0.76593 0.22043 0.0
C3140 C 0.06313 0.79171 0.21617 0.0
H3141 H 0.11477 0.78547 0.18347 0.0
H3142 H 0.09656 0.77727 0.19191 0.0
H3143 H 0.07799 0.80345 0.21419 0.0
H3144 H 0.02202 0.79064 0.23105 0.0
H3145 H 0.03894 0.79595 0.2191 0.0
H3146 H 0.05657 0.76762 0.19863 0.0
C3147 C 0.09735 0.78682 0.19075 0.0
C3148 C 0.07337 0.79568 0.2106 0.0
C3149 C 0.10777 0.79151 0.18592 0.0
C3150 C 0.02779 0.7836 0.2281 0.0
C3151 C 0.03754 0.78666 0.2213 0.0
C3152 C 0.06124 0.7754 0.20213 0.0
C3153 C 0.0883 0.79443 0.19452 0.0
C3154 C 0.07763 0.78971 0.2006 0.0
C3155 C 0.04561 0.77794 0.21772 0.0
C3156 C 0.05681 0.78165 0.21191 0.0
H3157 H 0.10089 0.82101 0.18711 0.0
H3158 H 0.0828 0.81288 0.19545 0.0
H3159 H 0.0746 0.77461 0.18882 0.0
H3160 H 0.03198 0.7536 0.22969 0.0
H3161 H 0.04925 0.759 0.2178 0.0
C3162 C 0.91484 0.19449 0.20607 0.0
C3163 C 0.90511 0.20173 0.2029 0.0
C3164 C 0.9253 0.19947 0.21095 0.0
C3165 C 0.9426 0.22744 0.21512 0.0
H3166 H 0.95634 0.21005 0.2419 0.0
C3167 C 0.98207 0.24414 0.2466 0.0
C3168 C 0.99012 0.23529 0.25034 0.0
C3169 C 0.97198 0.2411 0.23951 0.0
C3170 C 0.95271 0.21496 0.23435 0.0
H3171 H 0.89889 0.21995 0.20201 0.0
H3172 H 0.91724 0.22868 0.21066 0.0
H3173 H 0.93812 0.20278 0.23222 0.0
H3174 H 0.99458 0.21662 0.24876 0.0
H3175 H 0.9773 0.21141 0.23629 0.0
H3176 H 0.95733 0.23969 0.21743 0.0
C3177 C 0.91676 0.21914 0.20927 0.0
C3178 C 0.94225 0.21078 0.22879 0.0
C3179 C 0.90625 0.21414 0.20434 0.0
C3180 C 0.98843 0.2236 0.24616 0.0
C3181 C 0.97848 0.2206 0.23907 0.0
C3182 C 0.95314 0.23166 0.22074 0.0
C3183 C 0.92632 0.21182 0.21284 0.0
C3184 C 0.93716 0.21683 0.21898 0.0
C3185 C 0.96988 0.22918 0.23607 0.0
C3186 C 0.95841 0.22532 0.23029 0.0
H3187 H 0.91436 0.18493 0.2048 0.0
H3188 H 0.9326 0.1936 0.21332 0.0
H3189 H 0.9389 0.2323 0.20758 0.0
H3190 H 0.98315 0.25322 0.24974 0.0
H3191 H 0.96551 0.24791 0.23731 0.0
C3192 C 0.20134 0.69535 0.59909 0.0
C3193 C 0.2 0.70295 0.6089 0.0
C3194 C 0.2072 0.69929 0.58899 0.0
C3195 C 0.22946 0.72098 0.5792 0.0
H3196 H 0.21615 0.71445 0.54762 0.0
C3197 C 0.24796 0.7425 0.53665 0.0
C3198 C 0.24709 0.73614 0.52587 0.0
C3199 C 0.24312 0.73785 0.54702 0.0
C3200 C 0.22014 0.71616 0.55636 0.0
H3201 H 0.20368 0.72066 0.61581 0.0
H3202 H 0.214 0.72757 0.5981 0.0
H3203 H 0.2055 0.70788 0.56507 0.0
H3204 H 0.24114 0.71954 0.51772 0.0
H3205 H 0.23305 0.71125 0.53589 0.0
H3206 H 0.24418 0.72913 0.57053 0.0
C3207 C 0.21051 0.71855 0.59827 0.0
C3208 C 0.21397 0.71246 0.56636 0.0
C3209 C 0.20452 0.71464 0.60834 0.0
C3210 C 0.24188 0.72472 0.52586 0.0
C3211 C 0.23713 0.72001 0.53626 0.0
C3212 C 0.2357 0.7246 0.56919 0.0
C3213 C 0.21197 0.71088 0.58851 0.0
C3214 C 0.21853 0.71488 0.57789 0.0
C3215 C 0.23737 0.72666 0.5469 0.0
C3216 C 0.23109 0.72229 0.55762 0.0
H3217 H 0.19788 0.68632 0.59925 0.0
H3218 H 0.20824 0.69315 0.58164 0.0
H3219 H 0.23328 0.72282 0.58798 0.0
H3220 H 0.25187 0.75135 0.53699 0.0
H3221 H 0.2434 0.7433 0.55498 0.0
C3222 C 0.81436 0.69933 0.60425 0.0
C3223 C 0.81898 0.70766 0.61257 0.0
C3224 C 0.80712 0.70303 0.59461 0.0
C3225 C 0.78812 0.72803 0.58436 0.0
H3226 H 0.79517 0.71733 0.5525 0.0
C3227 C 0.7778 0.75587 0.54306 0.0
C3228 C 0.77402 0.75044 0.53232 0.0
C3229 C 0.78082 0.74904 0.55301 0.0
C3230 C 0.7929 0.72021 0.56135 0.0
H3231 H 0.81939 0.72635 0.61741 0.0
H3232 H 0.80688 0.7328 0.6006 0.0
H3233 H 0.80549 0.70838 0.56972 0.0
H3234 H 0.77011 0.73358 0.52365 0.0
H3235 H 0.77564 0.72144 0.54121 0.0
H3236 H 0.77585 0.74013 0.57603 0.0
C3237 C 0.80879 0.7234 0.60154 0.0
C3238 C 0.79883 0.71511 0.57122 0.0
C3239 C 0.81608 0.71973 0.6111 0.0
C3240 C 0.77295 0.73797 0.53185 0.0
C3241 C 0.77618 0.73106 0.54185 0.0
C3242 C 0.7822 0.7331 0.57453 0.0
C3243 C 0.80423 0.71511 0.59316 0.0
C3244 C 0.79679 0.71925 0.58281 0.0
C3245 C 0.78027 0.73655 0.5525 0.0
C3246 C 0.78481 0.72954 0.56289 0.0
H3247 H 0.8165 0.68997 0.6051 0.0
H3248 H 0.80372 0.69642 0.58832 0.0
H3249 H 0.78613 0.73123 0.59319 0.0
H3250 H 0.77865 0.76547 0.54372 0.0
H3251 H 0.78408 0.75357 0.56099 0.0
C3252 C 0.82373 0.31361 0.61902 0.0
C3253 C 0.8216 0.32595 0.61925 0.0
C3254 C 0.82022 0.30672 0.60913 0.0
C3255 C 0.7991 0.30581 0.58361 0.0
H3256 H 0.82121 0.28344 0.57022 0.0
C3257 C 0.78812 0.28129 0.53942 0.0
C3258 C 0.79196 0.26949 0.53814 0.0
C3259 C 0.7919 0.28815 0.54923 0.0
C3260 C 0.81484 0.28949 0.57393 0.0
H3261 H 0.81413 0.34066 0.60903 0.0
H3262 H 0.80774 0.32856 0.59195 0.0
H3263 H 0.82732 0.29531 0.58756 0.0
H3264 H 0.80273 0.25562 0.54622 0.0
H3265 H 0.80911 0.26743 0.56354 0.0
H3266 H 0.7865 0.29986 0.57024 0.0
C3267 C 0.81212 0.32425 0.59949 0.0
C3268 C 0.81838 0.29634 0.58385 0.0
C3269 C 0.81575 0.33117 0.60932 0.0
C3270 C 0.79972 0.26472 0.5469 0.0
C3271 C 0.8034 0.27154 0.55681 0.0
C3272 C 0.79551 0.29887 0.57378 0.0
C3273 C 0.81436 0.31195 0.59926 0.0
C3274 C 0.81057 0.30461 0.58877 0.0
C3275 C 0.79952 0.28336 0.55813 0.0
C3276 C 0.80334 0.29065 0.56874 0.0
H3277 H 0.82797 0.30919 0.62657 0.0
H3278 H 0.82193 0.29723 0.60928 0.0
H3279 H 0.79283 0.31198 0.5873 0.0
H3280 H 0.7823 0.28529 0.53272 0.0
H3281 H 0.78892 0.29728 0.54974 0.0
C3282 C 0.20947 0.34211 0.62299 0.0
C3283 C 0.20601 0.33417 0.63196 0.0
C3284 C 0.21498 0.33794 0.61281 0.0
C3285 C 0.23243 0.31276 0.60194 0.0
H3286 H 0.22429 0.32564 0.57075 0.0
C3287 C 0.25091 0.29313 0.55874 0.0
C3288 C 0.25416 0.30111 0.54971 0.0
C3289 C 0.24499 0.29714 0.56874 0.0
C3290 C 0.22677 0.32206 0.57941 0.0
H3291 H 0.20554 0.3156 0.63723 0.0
H3292 H 0.21508 0.30829 0.61938 0.0
H3293 H 0.21374 0.33251 0.58813 0.0
H3294 H 0.25375 0.31962 0.54421 0.0
H3295 H 0.24367 0.32667 0.56179 0.0
H3296 H 0.24552 0.30237 0.59326 0.0
C3297 C 0.21361 0.31776 0.62028 0.0
C3298 C 0.2207 0.32598 0.58937 0.0
C3299 C 0.20803 0.32194 0.63044 0.0
C3300 C 0.25146 0.31324 0.55101 0.0
C3301 C 0.24555 0.31726 0.56104 0.0
C3302 C 0.23852 0.30886 0.59199 0.0
C3303 C 0.21721 0.32573 0.61138 0.0
C3304 C 0.22347 0.32138 0.60075 0.0
C3305 C 0.2422 0.30925 0.57 0.0
C3306 C 0.23577 0.31346 0.5806 0.0
H3307 H 0.2079 0.35158 0.62382 0.0
H3308 H 0.21773 0.34432 0.60618 0.0
H3309 H 0.23491 0.30919 0.61061 0.0
H3310 H 0.25298 0.28376 0.55814 0.0
H3311 H 0.24246 0.29071 0.57541 0.0
C3312 C 0.19832 0.31415 0.41325 0.0
C3313 C 0.19476 0.30659 0.4038 0.0
C3314 C 0.20241 0.30944 0.42411 0.0
C3315 C 0.21601 0.28283 0.43768 0.0
H3316 H 0.20717 0.29811 0.46708 0.0
C3317 C 0.23707 0.26951 0.48364 0.0
C3318 C 0.24165 0.2794 0.48998 0.0
C3319 C 0.22924 0.27117 0.4738 0.0
C3320 C 0.20971 0.29372 0.45896 0.0
H3321 H 0.19284 0.28813 0.39834 0.0
H3322 H 0.20001 0.27989 0.41738 0.0
H3323 H 0.19783 0.30434 0.44827 0.0
H3324 H 0.24114 0.29864 0.4915 0.0
H3325 H 0.22751 0.30149 0.47464 0.0
H3326 H 0.22821 0.27249 0.44837 0.0
C3327 C 0.19961 0.28947 0.41635 0.0
C3328 C 0.20439 0.29732 0.44817 0.0
C3329 C 0.19543 0.29419 0.40548 0.0
C3330 C 0.23777 0.29084 0.48676 0.0
C3331 C 0.22989 0.29247 0.47712 0.0
C3332 C 0.22137 0.27924 0.4485 0.0
C3333 C 0.20311 0.29704 0.42581 0.0
C3334 C 0.20773 0.29217 0.43736 0.0
C3335 C 0.22572 0.28271 0.47034 0.0
C3336 C 0.21853 0.2849 0.45922 0.0
H3337 H 0.1978 0.32373 0.4123 0.0
H3338 H 0.2052 0.31553 0.43115 0.0
H3339 H 0.21881 0.27871 0.4295 0.0
H3340 H 0.24 0.2606 0.4859 0.0
H3341 H 0.22613 0.26346 0.46877 0.0
C3342 C 0.20474 0.70043 0.3831 0.0
C3343 C 0.20277 0.68807 0.38371 0.0
C3344 C 0.20792 0.70695 0.39332 0.0
C3345 C 0.21947 0.70401 0.42454 0.0
H3346 H 0.20562 0.73534 0.42779 0.0
C3347 C 0.23474 0.7365 0.46194 0.0
C3348 C 0.22617 0.74377 0.4672 0.0
C3349 C 0.23181 0.72955 0.45193 0.0
C3350 C 0.20948 0.72656 0.42711 0.0
H3351 H 0.20283 0.67281 0.39551 0.0
H3352 H 0.20825 0.6842 0.41344 0.0
H3353 H 0.20077 0.7234 0.41022 0.0
H3354 H 0.20771 0.74932 0.46587 0.0
H3355 H 0.20253 0.73695 0.44864 0.0
H3356 H 0.2279 0.70704 0.44161 0.0
C3357 C 0.2075 0.68885 0.40501 0.0
C3358 C 0.20683 0.71976 0.41692 0.0
C3359 C 0.20439 0.68231 0.39474 0.0
C3360 C 0.21455 0.7438 0.46216 0.0
C3361 C 0.2116 0.73679 0.45217 0.0
C3362 C 0.22207 0.71079 0.43477 0.0
C3363 C 0.20914 0.7013 0.40446 0.0
C3364 C 0.21186 0.70843 0.41545 0.0
C3365 C 0.22021 0.72957 0.44691 0.0
C3366 C 0.21717 0.72219 0.43616 0.0
H3367 H 0.20373 0.70509 0.37469 0.0
H3368 H 0.2094 0.71645 0.39246 0.0
H3369 H 0.22358 0.69537 0.4237 0.0
H3370 H 0.24374 0.73603 0.46557 0.0
H3371 H 0.23873 0.72425 0.44806 0.0
C3372 C 0.81632 0.70531 0.39165 0.0
C3373 C 0.8283 0.70226 0.39013 0.0
C3374 C 0.81309 0.71262 0.40108 0.0
C3375 C 0.82314 0.72303 0.43087 0.0
H3376 H 0.79892 0.74702 0.42553 0.0
C3377 C 0.80849 0.75514 0.46817 0.0
C3378 C 0.79615 0.7569 0.46894 0.0
C3379 C 0.81313 0.74921 0.45836 0.0
C3380 C 0.80563 0.7403 0.42719 0.0
H3381 H 0.84629 0.70448 0.39738 0.0
H3382 H 0.84064 0.71736 0.41382 0.0
H3383 H 0.80568 0.73524 0.40882 0.0
H3384 H 0.77908 0.75416 0.45978 0.0
H3385 H 0.7871 0.74369 0.44289 0.0
H3386 H 0.82295 0.72798 0.44929 0.0
C3387 C 0.83375 0.71402 0.40774 0.0
C3388 C 0.80951 0.73355 0.41761 0.0
C3389 C 0.83699 0.70673 0.39825 0.0
C3390 C 0.7886 0.7528 0.45958 0.0
C3391 C 0.79323 0.74693 0.4498 0.0
C3392 C 0.81924 0.72978 0.44047 0.0
C3393 C 0.82175 0.71706 0.40925 0.0
C3394 C 0.81819 0.72472 0.41935 0.0
C3395 C 0.80554 0.745 0.44908 0.0
C3396 C 0.81032 0.73839 0.43877 0.0
H3397 H 0.80942 0.70214 0.38548 0.0
H3398 H 0.80376 0.71467 0.40206 0.0
H3399 H 0.82976 0.71622 0.43253 0.0
H3400 H 0.81454 0.75812 0.47524 0.0
H3401 H 0.82267 0.74796 0.45803 0.0
C3402 C 0.80553 0.33518 0.40767 0.0
C3403 C 0.81039 0.32812 0.39869 0.0
C3404 C 0.79904 0.32994 0.41682 0.0
C3405 C 0.78306 0.30197 0.42462 0.0
H3406 H 0.78961 0.31161 0.45734 0.0
C3407 C 0.77743 0.2707 0.46406 0.0
C3408 C 0.77244 0.27488 0.47459 0.0
C3409 C 0.77965 0.27844 0.45468 0.0
C3410 C 0.7875 0.30898 0.44823 0.0
H3411 H 0.81199 0.31004 0.39215 0.0
H3412 H 0.801 0.30092 0.40815 0.0
H3413 H 0.79837 0.32287 0.44106 0.0
H3414 H 0.76568 0.29042 0.48352 0.0
H3415 H 0.76988 0.30419 0.46702 0.0
H3416 H 0.77265 0.28777 0.4318 0.0
C3417 C 0.80204 0.31052 0.4081 0.0
C3418 C 0.79253 0.31542 0.4389 0.0
C3419 C 0.80851 0.31574 0.399 0.0
C3420 C 0.76948 0.28698 0.47546 0.0
C3421 C 0.77194 0.29484 0.46608 0.0
C3422 C 0.77811 0.29553 0.43392 0.0
C3423 C 0.79722 0.31753 0.41714 0.0
C3424 C 0.79066 0.31176 0.42699 0.0
C3425 C 0.77711 0.29061 0.45561 0.0
C3426 C 0.78055 0.29875 0.44584 0.0
H3427 H 0.80688 0.34474 0.40775 0.0
H3428 H 0.79541 0.33561 0.4236 0.0
H3429 H 0.78118 0.29908 0.41555 0.0
H3430 H 0.77975 0.26141 0.4631 0.0
H3431 H 0.78376 0.27493 0.44681 0.0
C3432 C 0.13093 0.69726 0.70625 0.0
C3433 C 0.13196 0.69777 0.6938 0.0
C3434 C 0.12106 0.70209 0.71177 0.0
C3435 C 0.08986 0.71141 0.70532 0.0
H3436 H 0.09288 0.72483 0.7371 0.0
C3437 C 0.05093 0.7342 0.72927 0.0
C3438 C 0.04922 0.73066 0.74111 0.0
C3439 C 0.06105 0.73065 0.72325 0.0
C3440 C 0.0919 0.72104 0.72825 0.0
H3441 H 0.12347 0.70413 0.67745 0.0
H3442 H 0.10651 0.71299 0.68711 0.0
H3443 H 0.11066 0.71848 0.72695 0.0
H3444 H 0.05682 0.72072 0.75596 0.0
H3445 H 0.07458 0.71458 0.74548 0.0
H3446 H 0.07107 0.7142 0.70663 0.0
C3447 C 0.1132 0.70856 0.6926 0.0
C3448 C 0.10209 0.71736 0.72242 0.0
C3449 C 0.12304 0.70362 0.68706 0.0
C3450 C 0.05785 0.7235 0.74681 0.0
C3451 C 0.06806 0.72009 0.74085 0.0
C3452 C 0.07969 0.71523 0.7111 0.0
C3453 C 0.11199 0.70772 0.70502 0.0
C3454 C 0.10121 0.71235 0.71093 0.0
C3455 C 0.06976 0.72362 0.729 0.0
C3456 C 0.08059 0.71996 0.72268 0.0
H3457 H 0.13772 0.69303 0.71179 0.0
H3458 H 0.12044 0.70111 0.72132 0.0
H3459 H 0.08876 0.70742 0.69657 0.0
H3460 H 0.04438 0.73963 0.72462 0.0
H3461 H 0.06216 0.73354 0.71414 0.0
C3462 C 0.81602 0.63109 0.69535 0.0
C3463 C 0.82794 0.63302 0.69229 0.0
C3464 C 0.81287 0.62131 0.70235 0.0
C3465 C 0.8231 0.59151 0.71181 0.0
H3466 H 0.80054 0.59556 0.73699 0.0
C3467 C 0.81275 0.55379 0.74512 0.0
C3468 C 0.80078 0.55216 0.74815 0.0
C3469 C 0.81628 0.56379 0.73863 0.0
C3470 C 0.80675 0.59424 0.72992 0.0
H3471 H 0.84587 0.62607 0.69405 0.0
H3472 H 0.84038 0.60907 0.70635 0.0
H3473 H 0.80619 0.61263 0.72492 0.0
H3474 H 0.7832 0.56004 0.74697 0.0
H3475 H 0.78928 0.57728 0.73546 0.0
H3476 H 0.8236 0.5731 0.71672 0.0
C3477 C 0.83346 0.6151 0.70329 0.0
C3478 C 0.80999 0.60404 0.72299 0.0
C3479 C 0.83662 0.6249 0.69634 0.0
C3480 C 0.79246 0.56089 0.74467 0.0
C3481 C 0.79599 0.57087 0.73818 0.0
C3482 C 0.81983 0.5817 0.71871 0.0
C3483 C 0.82155 0.61319 0.7064 0.0
C3484 C 0.81819 0.60279 0.71384 0.0
C3485 C 0.80793 0.57243 0.73502 0.0
C3486 C 0.8116 0.58293 0.72783 0.0
H3487 H 0.80913 0.63723 0.69248 0.0
H3488 H 0.80359 0.62004 0.70448 0.0
H3489 H 0.82931 0.59021 0.70472 0.0
H3490 H 0.8194 0.54723 0.74755 0.0
H3491 H 0.82558 0.56477 0.73648 0.0
C3492 C 0.907 0.34161 0.70329 0.0
C3493 C 0.89895 0.33306 0.69856 0.0
C3494 C 0.91688 0.33814 0.71029 0.0
C3495 C 0.92824 0.31324 0.72883 0.0
H3496 H 0.95898 0.3284 0.72457 0.0
C3497 C 0.97154 0.29497 0.75067 0.0
C3498 C 0.98004 0.3032 0.75518 0.0
C3499 C 0.96158 0.29881 0.74402 0.0
C3500 C 0.95043 0.32418 0.72599 0.0
H3501 H 0.89495 0.31414 0.69761 0.0
H3502 H 0.91226 0.30809 0.70965 0.0
H3503 H 0.94182 0.3347 0.71242 0.0
H3504 H 0.98464 0.32198 0.75619 0.0
H3505 H 0.96716 0.3287 0.74479 0.0
H3506 H 0.93683 0.30272 0.74239 0.0
C3507 C 0.91089 0.31749 0.70802 0.0
C3508 C 0.94059 0.32779 0.71901 0.0
C3509 C 0.90103 0.32095 0.701 0.0
C3510 C 0.97825 0.31539 0.75295 0.0
C3511 C 0.96828 0.31924 0.74629 0.0
C3512 C 0.93807 0.30964 0.73582 0.0
C3513 C 0.91893 0.32604 0.71277 0.0
C3514 C 0.92938 0.32233 0.72031 0.0
C3515 C 0.95984 0.31099 0.74171 0.0
C3516 C 0.94931 0.31503 0.73445 0.0
H3517 H 0.90572 0.351 0.7015 0.0
H3518 H 0.92283 0.34496 0.71388 0.0
H3519 H 0.9197 0.30899 0.73021 0.0
H3520 H 0.97252 0.28553 0.75232 0.0
H3521 H 0.95534 0.29219 0.74054 0.0
C3522 C 0.19633 0.41197 0.70725 0.0
C3523 C 0.19306 0.4027 0.71494 0.0
C3524 C 0.20211 0.42214 0.71169 0.0
C3525 C 0.20916 0.44023 0.73836 0.0
H3526 H 0.23674 0.44917 0.72023 0.0
C3527 C 0.2442 0.47765 0.75167 0.0
C3528 C 0.24845 0.48431 0.74206 0.0
C3529 C 0.23633 0.46801 0.74957 0.0
C3530 C 0.229 0.4469 0.72534 0.0
H3531 H 0.19276 0.39713 0.73342 0.0
H3532 H 0.20291 0.41506 0.74122 0.0
H3533 H 0.22503 0.4318 0.71434 0.0
H3534 H 0.24707 0.48689 0.72295 0.0
H3535 H 0.23321 0.4705 0.71936 0.0
H3536 H 0.21322 0.45554 0.74933 0.0
C3537 C 0.20096 0.41438 0.73174 0.0
C3538 C 0.22229 0.43692 0.72196 0.0
C3539 C 0.19515 0.40413 0.72728 0.0
C3540 C 0.24408 0.48177 0.73051 0.0
C3541 C 0.2362 0.47233 0.72844 0.0
C3542 C 0.21591 0.45033 0.74175 0.0
C3543 C 0.20477 0.42334 0.72394 0.0
C3544 C 0.21216 0.43359 0.72825 0.0
C3545 C 0.2326 0.46502 0.73786 0.0
C3546 C 0.22576 0.45391 0.73509 0.0
H3547 H 0.19457 0.41128 0.69774 0.0
H3548 H 0.20468 0.42901 0.70548 0.0
H3549 H 0.20141 0.43784 0.7434 0.0
H3550 H 0.24748 0.47943 0.76066 0.0
H3551 H 0.23368 0.46256 0.75701 0.0
C3552 C 0.12308 0.3193 0.307 0.0
C3553 C 0.12493 0.32094 0.31934 0.0
C3554 C 0.11234 0.31442 0.30248 0.0
C3555 C 0.08739 0.29547 0.31207 0.0
H3556 H 0.07087 0.30655 0.28342 0.0
C3557 C 0.04069 0.27856 0.30072 0.0
C3558 C 0.03842 0.27436 0.28909 0.0
C3559 C 0.05077 0.28546 0.3034 0.0
C3560 C 0.07545 0.30331 0.29137 0.0
H3561 H 0.1167 0.31938 0.33652 0.0
H3562 H 0.09806 0.31096 0.32868 0.0
H3563 H 0.08959 0.31621 0.29007 0.0
H3564 H 0.04454 0.27473 0.27096 0.0
H3565 H 0.06239 0.28684 0.27571 0.0
H3566 H 0.0734 0.28261 0.31346 0.0
C3567 C 0.10498 0.31314 0.3225 0.0
C3568 C 0.08616 0.30883 0.29518 0.0
C3569 C 0.11567 0.31797 0.327 0.0
C3570 C 0.04606 0.27789 0.28 0.0
C3571 C 0.05627 0.28479 0.28272 0.0
C3572 C 0.07675 0.29001 0.30831 0.0
C3573 C 0.10325 0.31109 0.31021 0.0
C3574 C 0.09215 0.30506 0.30569 0.0
C3575 C 0.05893 0.28827 0.29456 0.0
C3576 C 0.07053 0.29396 0.29803 0.0
H3577 H 0.13007 0.32145 0.30088 0.0
H3578 H 0.11132 0.3129 0.29298 0.0
H3579 H 0.09192 0.29211 0.32001 0.0
H3580 H 0.03487 0.27612 0.30788 0.0
H3581 H 0.05238 0.28827 0.31254 0.0
C3582 C 0.19914 0.60078 0.31408 0.0
C3583 C 0.19462 0.60949 0.30621 0.0
C3584 C 0.20432 0.5904 0.30973 0.0
C3585 C 0.21828 0.57779 0.28298 0.0
H3586 H 0.2133 0.54785 0.29936 0.0
C3587 C 0.24035 0.53372 0.26791 0.0
C3588 C 0.24624 0.52765 0.27727 0.0
C3589 C 0.23243 0.54299 0.27039 0.0
C3590 C 0.21479 0.55614 0.29468 0.0
H3591 H 0.19225 0.61412 0.28753 0.0
H3592 H 0.20106 0.59594 0.27998 0.0
H3593 H 0.20297 0.56563 0.30585 0.0
H3594 H 0.24797 0.52605 0.29648 0.0
H3595 H 0.23419 0.54192 0.30075 0.0
H3596 H 0.23026 0.56829 0.27192 0.0
C3597 C 0.20067 0.59717 0.28952 0.0
C3598 C 0.20891 0.56636 0.29845 0.0
C3599 C 0.19549 0.60755 0.29387 0.0
C3600 C 0.2436 0.53058 0.28907 0.0
C3601 C 0.23563 0.53966 0.29153 0.0
C3602 C 0.22415 0.56755 0.27919 0.0
C3603 C 0.20514 0.58843 0.29739 0.0
C3604 C 0.21076 0.57738 0.29281 0.0
C3605 C 0.23012 0.54616 0.28225 0.0
C3606 C 0.22266 0.55665 0.28516 0.0
H3607 H 0.19854 0.6019 0.32362 0.0
H3608 H 0.20782 0.58397 0.31608 0.0
H3609 H 0.22 0.58613 0.27847 0.0
H3610 H 0.24228 0.5317 0.25873 0.0
H3611 H 0.22826 0.54779 0.26304 0.0
C3612 C 0.91067 0.69451 0.31454 0.0
C3613 C 0.89929 0.69271 0.30933 0.0
C3614 C 0.92025 0.6979 0.30758 0.0
C3615 C 0.93002 0.70035 0.27608 0.0
H3616 H 0.9527 0.72289 0.29007 0.0
C3617 C 0.96413 0.7288 0.24972 0.0
C3618 C 0.9755 0.73044 0.25509 0.0
C3619 C 0.95524 0.72248 0.25565 0.0
C3620 C 0.94653 0.71648 0.28608 0.0
H3621 H 0.889 0.693 0.29273 0.0
H3622 H 0.90562 0.6993 0.28058 0.0
H3623 H 0.93633 0.71561 0.30181 0.0
H3624 H 0.98668 0.72591 0.2705 0.0
H3625 H 0.97122 0.71499 0.28076 0.0
H3626 H 0.94013 0.70167 0.26016 0.0
C3627 C 0.90726 0.6978 0.29001 0.0
C3628 C 0.93713 0.71226 0.29283 0.0
C3629 C 0.89771 0.69424 0.29697 0.0
C3630 C 0.978 0.72494 0.26613 0.0
C3631 C 0.96913 0.71872 0.27206 0.0
C3632 C 0.93937 0.7047 0.26927 0.0
C3633 C 0.91866 0.69977 0.29523 0.0
C3634 C 0.92875 0.7041 0.28796 0.0
C3635 C 0.95755 0.71776 0.26707 0.0
C3636 C 0.94775 0.71278 0.27422 0.0
H3637 H 0.91218 0.69321 0.32403 0.0
H3638 H 0.92892 0.69904 0.31191 0.0
H3639 H 0.92385 0.69396 0.27206 0.0
H3640 H 0.96189 0.73289 0.24123 0.0
H3641 H 0.94639 0.72188 0.25159 0.0
C3642 C 0.84278 0.40679 0.31462 0.0
C3643 C 0.83459 0.39801 0.31814 0.0
C3644 C 0.83891 0.41688 0.30837 0.0
C3645 C 0.81406 0.42773 0.28926 0.0
H3646 H 0.82727 0.45896 0.29671 0.0
C3647 C 0.7945 0.47064 0.26867 0.0
C3648 C 0.80243 0.47976 0.26539 0.0
C3649 C 0.79856 0.46073 0.27506 0.0
C3650 C 0.8236 0.45029 0.2944 0.0
H3651 H 0.8159 0.393 0.31788 0.0
H3652 H 0.80912 0.41068 0.30709 0.0
H3653 H 0.83399 0.44167 0.30812 0.0
H3654 H 0.82092 0.4855 0.26629 0.0
H3655 H 0.82807 0.46806 0.27721 0.0
H3656 H 0.80372 0.4363 0.2755 0.0
C3657 C 0.81856 0.4097 0.30908 0.0
C3658 C 0.82744 0.44038 0.30097 0.0
C3659 C 0.82242 0.39963 0.31538 0.0
C3660 C 0.81457 0.47863 0.26858 0.0
C3661 C 0.81865 0.46868 0.27497 0.0
C3662 C 0.81025 0.43763 0.28267 0.0
C3663 C 0.82676 0.41842 0.30545 0.0
C3664 C 0.82269 0.42898 0.2985 0.0
C3665 C 0.81068 0.45961 0.27831 0.0
C3666 C 0.81494 0.44905 0.28518 0.0
H3667 H 0.8522 0.40588 0.31671 0.0
H3668 H 0.84547 0.42337 0.30563 0.0
H3669 H 0.81037 0.41906 0.28698 0.0
H3670 H 0.78512 0.47108 0.26624 0.0
H3671 H 0.79214 0.45399 0.27758 0.0
C3672 C 0.21023 0.62001 0.69093 0.0
C3673 C 0.20661 0.62028 0.67887 0.0
C3674 C 0.21589 0.60997 0.69571 0.0
C3675 C 0.23259 0.58327 0.68643 0.0
H3676 H 0.22802 0.57352 0.71911 0.0
C3677 C 0.26286 0.5485 0.70961 0.0
C3678 C 0.2577 0.54061 0.71772 0.0
C3679 C 0.2563 0.55797 0.7048 0.0
C3680 C 0.22931 0.57602 0.70991 0.0
H3681 H 0.20556 0.61011 0.66247 0.0
H3682 H 0.21512 0.59246 0.67085 0.0
H3683 H 0.21666 0.5901 0.7109 0.0
H3684 H 0.24151 0.53621 0.72686 0.0
H3685 H 0.22994 0.55253 0.71828 0.0
H3686 H 0.24495 0.56896 0.68531 0.0
C3687 C 0.21396 0.60011 0.67656 0.0
C3688 C 0.2229 0.58566 0.70525 0.0
C3689 C 0.20842 0.61019 0.67176 0.0
C3690 C 0.24577 0.54226 0.72077 0.0
C3691 C 0.23917 0.55165 0.71587 0.0
C3692 C 0.23892 0.57358 0.69105 0.0
C3693 C 0.21794 0.59993 0.68855 0.0
C3694 C 0.2245 0.58945 0.69346 0.0
C3695 C 0.24437 0.55968 0.70789 0.0
C3696 C 0.23742 0.56986 0.70288 0.0
H3697 H 0.20905 0.62771 0.69658 0.0
H3698 H 0.21898 0.61023 0.70493 0.0
H3699 H 0.2342 0.58602 0.67737 0.0
H3700 H 0.27208 0.54755 0.70723 0.0
H3701 H 0.26068 0.56408 0.69885 0.0
C3702 C 0.21682 0.39649 0.34013 0.0
C3703 C 0.21218 0.38752 0.33254 0.0
C3704 C 0.22276 0.40639 0.33551 0.0
C3705 C 0.22676 0.42366 0.30775 0.0
H3706 H 0.25521 0.43543 0.3244 0.0
C3707 C 0.25723 0.45991 0.28777 0.0
C3708 C 0.26167 0.46885 0.29552 0.0
C3709 C 0.25128 0.44992 0.29219 0.0
C3710 C 0.24721 0.43234 0.31971 0.0
H3711 H 0.21015 0.38197 0.31409 0.0
H3712 H 0.22053 0.39924 0.30601 0.0
H3713 H 0.24456 0.41825 0.33221 0.0
H3714 H 0.26323 0.4742 0.31407 0.0
H3715 H 0.25292 0.45679 0.32176 0.0
H3716 H 0.22943 0.43776 0.29524 0.0
C3717 C 0.21945 0.39869 0.31555 0.0
C3718 C 0.24109 0.42248 0.32419 0.0
C3719 C 0.21349 0.38878 0.32018 0.0
C3720 C 0.2601 0.46745 0.30783 0.0
C3721 C 0.25417 0.45745 0.31226 0.0
C3722 C 0.23289 0.43351 0.30326 0.0
C3723 C 0.22422 0.40758 0.32316 0.0
C3724 C 0.23077 0.41803 0.3183 0.0
C3725 C 0.24964 0.44857 0.30449 0.0
C3726 C 0.24318 0.438 0.30919 0.0
H3727 H 0.21578 0.39592 0.34968 0.0
H3728 H 0.2261 0.41317 0.34162 0.0
H3729 H 0.21875 0.42058 0.30307 0.0
H3730 H 0.25843 0.46056 0.27826 0.0
H3731 H 0.24809 0.44316 0.28596 0.0
C3732 C 0.11309 0.68719 0.30899 0.0
C3733 C 0.1241 0.69299 0.3077 0.0
C3734 C 0.10253 0.69273 0.30518 0.0
C3735 C 0.08969 0.71519 0.28536 0.0
H3736 H 0.06677 0.72025 0.31002 0.0
C3737 C 0.04946 0.74637 0.27779 0.0
C3738 C 0.0388 0.74358 0.28343 0.0
C3739 C 0.05986 0.74002 0.2805 0.0
C3740 C 0.07291 0.71875 0.30292 0.0
H3741 H 0.13287 0.70878 0.30105 0.0
H3742 H 0.11441 0.7183 0.29398 0.0
H3743 H 0.08461 0.70871 0.31443 0.0
H3744 H 0.03052 0.73178 0.29605 0.0
H3745 H 0.04841 0.72036 0.30044 0.0
H3746 H 0.07793 0.72487 0.2737 0.0
C3747 C 0.11394 0.70956 0.29803 0.0
C3748 C 0.08317 0.71216 0.3055 0.0
C3749 C 0.12446 0.70414 0.30207 0.0
C3750 C 0.03869 0.73427 0.29176 0.0
C3751 C 0.049 0.72775 0.29429 0.0
C3752 C 0.0793 0.72158 0.28269 0.0
C3753 C 0.10286 0.70403 0.29981 0.0
C3754 C 0.09169 0.7104 0.29677 0.0
C3755 C 0.05977 0.73053 0.28872 0.0
C3756 C 0.07079 0.72354 0.29147 0.0
H3757 H 0.11263 0.67863 0.31341 0.0
H3758 H 0.09409 0.68828 0.30661 0.0
H3759 H 0.09613 0.71391 0.27847 0.0
H3760 H 0.04975 0.75355 0.27137 0.0
H3761 H 0.06798 0.74264 0.27619 0.0
C3762 C 0.81124 0.61415 0.32385 0.0
C3763 C 0.8153 0.62272 0.31573 0.0
C3764 C 0.80404 0.6046 0.3199 0.0
C3765 C 0.78486 0.59445 0.29431 0.0
H3766 H 0.79468 0.5627 0.30371 0.0
C3767 C 0.77993 0.55418 0.26389 0.0
C3768 C 0.77705 0.54294 0.2685 0.0
C3769 C 0.78139 0.56398 0.27139 0.0
C3770 C 0.79162 0.5715 0.3012 0.0
H3771 H 0.8146 0.62825 0.29724 0.0
H3772 H 0.80223 0.61162 0.29035 0.0
H3773 H 0.80356 0.58003 0.31381 0.0
H3774 H 0.77303 0.53315 0.28452 0.0
H3775 H 0.7759 0.55043 0.29787 0.0
H3776 H 0.77338 0.58594 0.2813 0.0
C3777 C 0.80452 0.61226 0.29977 0.0
C3778 C 0.79672 0.58144 0.30698 0.0
C3779 C 0.81175 0.62172 0.30368 0.0
C3780 C 0.7752 0.54175 0.28077 0.0
C3781 C 0.7769 0.55159 0.28838 0.0
C3782 C 0.77979 0.58455 0.28854 0.0
C3783 C 0.80066 0.60352 0.30779 0.0
C3784 C 0.79373 0.59303 0.30327 0.0
C3785 C 0.78018 0.56277 0.28375 0.0
C3786 C 0.78345 0.57298 0.29162 0.0
H3787 H 0.81388 0.61466 0.33319 0.0
H3788 H 0.80118 0.59804 0.32631 0.0
H3789 H 0.78215 0.60326 0.29144 0.0
H3790 H 0.78136 0.55534 0.25445 0.0
H3791 H 0.78406 0.57241 0.26756 0.0
C3792 C 0.89899 0.30928 0.32482 0.0
C3793 C 0.89723 0.31054 0.33712 0.0
C3794 C 0.90883 0.30309 0.32069 0.0
C3795 C 0.93137 0.28081 0.33009 0.0
H3796 H 0.9484 0.2926 0.30287 0.0
C3797 C 0.97641 0.26125 0.3163 0.0
C3798 C 0.97832 0.25977 0.30406 0.0
C3799 C 0.96641 0.26731 0.32021 0.0
C3800 C 0.94366 0.28911 0.31039 0.0
H3801 H 0.90463 0.30648 0.35468 0.0
H3802 H 0.92177 0.29573 0.34748 0.0
H3803 H 0.93126 0.3035 0.30991 0.0
H3804 H 0.97098 0.26335 0.28635 0.0
H3805 H 0.95358 0.27394 0.29317 0.0
H3806 H 0.94379 0.26644 0.3306 0.0
C3807 C 0.91543 0.29934 0.34103 0.0
C3808 C 0.93383 0.29536 0.31444 0.0
C3809 C 0.9056 0.30551 0.34516 0.0
C3810 C 0.96992 0.26447 0.29583 0.0
C3811 C 0.95993 0.27055 0.29975 0.0
C3812 C 0.9412 0.27457 0.32606 0.0
C3813 C 0.91715 0.29801 0.32874 0.0
C3814 C 0.92757 0.29131 0.32436 0.0
C3815 C 0.95806 0.27207 0.31199 0.0
C3816 C 0.94749 0.27865 0.31617 0.0
H3817 H 0.89264 0.3129 0.31838 0.0
H3818 H 0.90978 0.3021 0.31117 0.0
H3819 H 0.92664 0.27731 0.33762 0.0
H3820 H 0.98276 0.25793 0.32289 0.0
H3821 H 0.96535 0.26847 0.32969 0.0
C3822 C 0.817 0.40708 0.70776 0.0
C3823 C 0.81818 0.4056 0.69542 0.0
C3824 C 0.81153 0.41715 0.7123 0.0
C3825 C 0.79153 0.44219 0.70612 0.0
H3826 H 0.81019 0.45695 0.73178 0.0
C3827 C 0.77968 0.48695 0.73078 0.0
C3828 C 0.78197 0.48671 0.74315 0.0
C3829 C 0.78297 0.47726 0.72364 0.0
C3830 C 0.8048 0.45291 0.72468 0.0
H3831 H 0.81388 0.41329 0.67813 0.0
H3832 H 0.80414 0.43099 0.68616 0.0
H3833 H 0.81786 0.43958 0.72175 0.0
H3834 H 0.78849 0.47582 0.75785 0.0
H3835 H 0.7939 0.45906 0.7456 0.0
H3836 H 0.77834 0.45555 0.70932 0.0
C3837 C 0.80755 0.42429 0.69227 0.0
C3838 C 0.80922 0.44295 0.71893 0.0
C3839 C 0.81311 0.41416 0.68769 0.0
C3840 C 0.78684 0.47639 0.74831 0.0
C3841 C 0.79 0.46678 0.74127 0.0
C3842 C 0.78705 0.45221 0.71197 0.0
C3843 C 0.80703 0.42602 0.70465 0.0
C3844 C 0.80253 0.43728 0.70979 0.0
C3845 C 0.78853 0.46724 0.72882 0.0
C3846 C 0.79352 0.45747 0.72154 0.0
H3847 H 0.8205 0.40051 0.71397 0.0
H3848 H 0.81101 0.4181 0.72188 0.0
H3849 H 0.78622 0.43801 0.69906 0.0
H3850 H 0.77593 0.49481 0.72658 0.0
H3851 H 0.78168 0.47784 0.71406 0.0
C3852 C 0.11449 0.32517 0.70381 0.0
C3853 C 0.12393 0.31779 0.70062 0.0
C3854 C 0.10409 0.32031 0.70837 0.0
C3855 C 0.08645 0.29243 0.7113 0.0
H3856 H 0.07294 0.30976 0.73749 0.0
C3857 C 0.04713 0.27621 0.7412 0.0
C3858 C 0.03913 0.2852 0.74429 0.0
C3859 C 0.05716 0.27903 0.73449 0.0
C3860 C 0.07653 0.30486 0.73011 0.0
H3861 H 0.12976 0.29947 0.69953 0.0
H3862 H 0.11156 0.29094 0.70766 0.0
H3863 H 0.09123 0.31691 0.72886 0.0
H3864 H 0.03464 0.30379 0.74189 0.0
H3865 H 0.05182 0.30859 0.73006 0.0
H3866 H 0.07163 0.28029 0.71278 0.0
C3867 C 0.11218 0.3005 0.70649 0.0
C3868 C 0.08702 0.30898 0.72514 0.0
C3869 C 0.12261 0.30538 0.70186 0.0
C3870 C 0.04075 0.29672 0.73975 0.0
C3871 C 0.05063 0.2995 0.73304 0.0
C3872 C 0.0759 0.28825 0.71635 0.0
C3873 C 0.10286 0.30793 0.70994 0.0
C3874 C 0.09201 0.30297 0.71553 0.0
C3875 C 0.05923 0.29084 0.73079 0.0
C3876 C 0.07073 0.29458 0.72566 0.0
H3877 H 0.11512 0.33474 0.70272 0.0
H3878 H 0.09699 0.32628 0.71067 0.0
H3879 H 0.09006 0.2876 0.70389 0.0
H3880 H 0.04611 0.26727 0.74467 0.0
H3881 H 0.06364 0.27217 0.73284 0.0
C3882 C 0.90464 0.72337 0.68589 0.0
C3883 C 0.90418 0.71092 0.68446 0.0
C3884 C 0.9151 0.72898 0.69026 0.0
C3885 C 0.94169 0.72172 0.70869 0.0
H3886 H 0.95483 0.75173 0.69776 0.0
C3887 C 0.98764 0.73612 0.72495 0.0
C3888 C 0.98888 0.74762 0.72973 0.0
C3889 C 0.97769 0.73301 0.71793 0.0
C3890 C 0.95118 0.74339 0.70094 0.0
H3891 H 0.91453 0.69474 0.68556 0.0
H3892 H 0.93269 0.70446 0.69299 0.0
H3893 H 0.9365 0.74362 0.68822 0.0
H3894 H 0.98108 0.76517 0.73029 0.0
H3895 H 0.96337 0.75966 0.71798 0.0
H3896 H 0.95621 0.72138 0.72135 0.0
C3897 C 0.92493 0.70989 0.69112 0.0
C3898 C 0.94071 0.73875 0.6955 0.0
C3899 C 0.91453 0.70431 0.68683 0.0
C3900 C 0.98035 0.75626 0.72664 0.0
C3901 C 0.97022 0.75309 0.71963 0.0
C3902 C 0.95208 0.72631 0.71406 0.0
C3903 C 0.92526 0.72224 0.69323 0.0
C3904 C 0.93599 0.72773 0.69919 0.0
C3905 C 0.96859 0.74128 0.71563 0.0
C3906 C 0.9571 0.73706 0.71012 0.0
H3907 H 0.89678 0.72869 0.68413 0.0
H3908 H 0.91506 0.73851 0.69179 0.0
H3909 H 0.93812 0.71341 0.71202 0.0
H3910 H 0.99416 0.72932 0.72708 0.0
H3911 H 0.97685 0.72393 0.71472 0.0
C3912 C 0.70201 0.21486 0.61233 0.0
C3913 C 0.70195 0.20233 0.61255 0.0
C3914 C 0.70476 0.22105 0.60191 0.0
C3915 C 0.7064 0.21715 0.56919 0.0
H3916 H 0.72954 0.24297 0.57089 0.0
C3917 C 0.73632 0.22912 0.53072 0.0
C3918 C 0.73961 0.241 0.52861 0.0
C3919 C 0.72923 0.22615 0.54027 0.0
C3920 C 0.72287 0.23596 0.57027 0.0
H3921 H 0.70449 0.18649 0.60189 0.0
H3922 H 0.70942 0.19722 0.58382 0.0
H3923 H 0.72213 0.2343 0.58926 0.0
H3924 H 0.73773 0.2592 0.5346 0.0
H3925 H 0.7253 0.25398 0.55159 0.0
H3926 H 0.70744 0.21851 0.55024 0.0
C3927 C 0.70726 0.2023 0.59167 0.0
C3928 C 0.71864 0.23096 0.5808 0.0
C3929 C 0.70459 0.19614 0.60208 0.0
C3930 C 0.73523 0.24998 0.53598 0.0
C3931 C 0.72822 0.24697 0.54574 0.0
C3932 C 0.71061 0.22214 0.5587 0.0
C3933 C 0.7074 0.21483 0.59144 0.0
C3934 C 0.71065 0.22124 0.58037 0.0
C3935 C 0.72533 0.23498 0.54809 0.0
C3936 C 0.71918 0.23134 0.55911 0.0
H3937 H 0.70008 0.2199 0.62027 0.0
H3938 H 0.70476 0.23069 0.60202 0.0
H3939 H 0.70004 0.20986 0.56855 0.0
H3940 H 0.73958 0.22201 0.52517 0.0
H3941 H 0.72732 0.21682 0.54188 0.0
C3942 C 0.32479 0.21755 0.62288 0.0
C3943 C 0.32578 0.20518 0.62452 0.0
C3944 C 0.31855 0.22215 0.61303 0.0
C3945 C 0.29586 0.21624 0.58964 0.0
H3946 H 0.31302 0.24101 0.57304 0.0
C3947 C 0.27874 0.24031 0.54579 0.0
C3948 C 0.28114 0.25262 0.54552 0.0
C3949 C 0.2833 0.23328 0.55522 0.0
C3950 C 0.30805 0.23417 0.57761 0.0
H3951 H 0.32046 0.18795 0.61728 0.0
H3952 H 0.30935 0.1961 0.60006 0.0
H3953 H 0.32249 0.23109 0.58998 0.0
H3954 H 0.28935 0.26734 0.55531 0.0
H3955 H 0.29696 0.2553 0.57164 0.0
H3956 H 0.28128 0.21961 0.5773 0.0
C3957 C 0.3135 0.20217 0.60645 0.0
C3958 C 0.31349 0.22848 0.58731 0.0
C3959 C 0.31985 0.19753 0.61632 0.0
C3960 C 0.28755 0.25784 0.55511 0.0
C3961 C 0.29198 0.25092 0.56447 0.0
C3962 C 0.29034 0.22204 0.5799 0.0
C3963 C 0.31304 0.21454 0.60457 0.0
C3964 C 0.30739 0.21966 0.59362 0.0
C3965 C 0.29027 0.23852 0.56449 0.0
C3966 C 0.29628 0.23129 0.57398 0.0
H3967 H 0.32893 0.22372 0.62918 0.0
H3968 H 0.31813 0.23173 0.61195 0.0
H3969 H 0.29097 0.20944 0.59434 0.0
H3970 H 0.2738 0.23606 0.53851 0.0
H3971 H 0.28179 0.22375 0.55502 0.0
C3972 C 0.31459 0.83419 0.60679 0.0
C3973 C 0.30823 0.83424 0.61739 0.0
C3974 C 0.30937 0.82952 0.5963 0.0
C3975 C 0.28708 0.80857 0.58466 0.0
H3976 H 0.28442 0.82935 0.55717 0.0
C3977 C 0.25894 0.79465 0.54312 0.0
C3978 C 0.26272 0.79831 0.53189 0.0
C3979 C 0.26441 0.79921 0.55352 0.0
C3980 C 0.28525 0.82331 0.56465 0.0
H3981 H 0.29167 0.82917 0.6255 0.0
H3982 H 0.2827 0.82061 0.60723 0.0
H3983 H 0.29482 0.83633 0.57524 0.0
H3984 H 0.27525 0.80949 0.52267 0.0
H3985 H 0.28515 0.81712 0.54072 0.0
H3986 H 0.27795 0.79537 0.57411 0.0
C3987 C 0.29163 0.82431 0.60701 0.0
C3988 C 0.29117 0.82736 0.57502 0.0
C3989 C 0.29673 0.82921 0.61742 0.0
C3990 C 0.27203 0.80669 0.53123 0.0
C3991 C 0.27768 0.81107 0.54162 0.0
C3992 C 0.28137 0.80441 0.57422 0.0
C3993 C 0.29782 0.82459 0.59631 0.0
C3994 C 0.29206 0.82006 0.58515 0.0
C3995 C 0.27401 0.80734 0.55295 0.0
C3996 C 0.28026 0.81175 0.56407 0.0
H3997 H 0.32344 0.8381 0.60655 0.0
H3998 H 0.31433 0.82979 0.58816 0.0
H3999 H 0.28773 0.80274 0.59234 0.0
H4000 H 0.25173 0.78824 0.54384 0.0
H4001 H 0.26107 0.79632 0.56201 0.0
C4002 C 0.70132 0.83632 0.60724 0.0
C4003 C 0.69772 0.82793 0.61573 0.0
C4004 C 0.70703 0.8327 0.59696 0.0
C4005 C 0.71255 0.80635 0.57799 0.0
H4006 H 0.73913 0.82544 0.56725 0.0
C4007 C 0.74438 0.7899 0.5421 0.0
C4008 C 0.74785 0.79809 0.53334 0.0
C4009 C 0.73809 0.79364 0.55197 0.0
C4010 C 0.73165 0.82008 0.57005 0.0
H4011 H 0.69718 0.80912 0.62003 0.0
H4012 H 0.70727 0.80277 0.60213 0.0
H4013 H 0.72839 0.83162 0.58474 0.0
H4014 H 0.74737 0.81669 0.52818 0.0
H4015 H 0.73644 0.82324 0.54547 0.0
H4016 H 0.71592 0.79474 0.56335 0.0
C4017 C 0.70552 0.81216 0.60333 0.0
C4018 C 0.72547 0.82363 0.58008 0.0
C4019 C 0.69975 0.81579 0.6136 0.0
C4020 C 0.74496 0.81016 0.53479 0.0
C4021 C 0.73869 0.81391 0.54471 0.0
C4022 C 0.71876 0.80278 0.56798 0.0
C4023 C 0.70933 0.82058 0.59493 0.0
C4024 C 0.71584 0.81681 0.58419 0.0
C4025 C 0.73512 0.80568 0.55338 0.0
C4026 C 0.7284 0.80959 0.5639 0.0
H4027 H 0.69968 0.84572 0.60851 0.0
H4028 H 0.7096 0.83941 0.59058 0.0
H4029 H 0.70508 0.80098 0.58078 0.0
H4030 H 0.74666 0.78058 0.54146 0.0
H4031 H 0.73568 0.7871 0.5586 0.0
C4032 C 0.68212 0.80125 0.39954 0.0
C4033 C 0.68888 0.80619 0.39036 0.0
C4034 C 0.68771 0.79546 0.4092 0.0
C4035 C 0.71632 0.78137 0.41854 0.0
H4036 H 0.70664 0.78851 0.45064 0.0
C4037 C 0.74789 0.778 0.45909 0.0
C4038 C 0.74373 0.77373 0.46998 0.0
C4039 C 0.74013 0.77946 0.44931 0.0
C4040 C 0.7093 0.78623 0.44173 0.0
H4041 H 0.70683 0.80867 0.38408 0.0
H4042 H 0.71655 0.79884 0.40097 0.0
H4043 H 0.69503 0.79618 0.43361 0.0
H4044 H 0.7282 0.76732 0.47912 0.0
H4045 H 0.71441 0.7701 0.46191 0.0
H4046 H 0.73083 0.77181 0.42665 0.0
C4047 C 0.70692 0.79931 0.40067 0.0
C4048 C 0.70266 0.79064 0.43196 0.0
C4049 C 0.70135 0.80511 0.39105 0.0
C4050 C 0.73164 0.77058 0.4708 0.0
C4051 C 0.72376 0.77224 0.461 0.0
C4052 C 0.72295 0.777 0.42828 0.0
C4053 C 0.70019 0.79441 0.40988 0.0
C4054 C 0.7063 0.78855 0.42025 0.0
C4055 C 0.72794 0.77682 0.45019 0.0
C4056 C 0.71972 0.77966 0.43999 0.0
H4057 H 0.67251 0.80201 0.39934 0.0
H4058 H 0.68226 0.79175 0.41611 0.0
H4059 H 0.71921 0.77933 0.40965 0.0
H4060 H 0.75718 0.78045 0.45816 0.0
H4061 H 0.74362 0.78314 0.44119 0.0
C4062 C 0.70161 0.19807 0.38691 0.0
C4063 C 0.70028 0.18566 0.38564 0.0
C4064 C 0.70741 0.20293 0.39704 0.0
C4065 C 0.72891 0.19489 0.42129 0.0
H4066 H 0.71754 0.22342 0.43659 0.0
C4067 C 0.74847 0.21114 0.46662 0.0
C4068 C 0.75014 0.22347 0.46828 0.0
C4069 C 0.7423 0.20674 0.45653 0.0
C4070 C 0.72092 0.21553 0.43234 0.0
H4071 H 0.70351 0.16868 0.39432 0.0
H4072 H 0.71357 0.17712 0.41188 0.0
H4073 H 0.7068 0.21546 0.41909 0.0
H4074 H 0.74676 0.2408 0.46041 0.0
H4075 H 0.73605 0.23313 0.44281 0.0
H4076 H 0.74303 0.19494 0.43448 0.0
C4077 C 0.7104 0.18311 0.40495 0.0
C4078 C 0.71475 0.21096 0.42231 0.0
C4079 C 0.70461 0.17826 0.39487 0.0
C4080 C 0.74549 0.23127 0.45954 0.0
C4081 C 0.73934 0.22686 0.44944 0.0
C4082 C 0.73508 0.19946 0.4313 0.0
C4083 C 0.71201 0.19549 0.40612 0.0
C4084 C 0.71863 0.20054 0.41669 0.0
C4085 C 0.73766 0.21454 0.44779 0.0
C4086 C 0.73114 0.2098 0.437 0.0
H4087 H 0.69848 0.20402 0.37993 0.0
H4088 H 0.70858 0.2125 0.39759 0.0
H4089 H 0.7323 0.18698 0.41706 0.0
H4090 H 0.75175 0.20487 0.47323 0.0
H4091 H 0.74102 0.1972 0.45567 0.0
C4092 C 0.31564 0.19398 0.41206 0.0
C4093 C 0.32048 0.19934 0.40194 0.0
C4094 C 0.31242 0.20091 0.4218 0.0
C4095 C 0.30597 0.23212 0.43063 0.0
H4096 H 0.31207 0.22004 0.46255 0.0
C4097 C 0.30185 0.26126 0.47284 0.0
C4098 C 0.29529 0.25616 0.48205 0.0
C4099 C 0.30518 0.25435 0.46312 0.0
C4100 C 0.31026 0.22349 0.45368 0.0
H4101 H 0.32534 0.21628 0.39403 0.0
H4102 H 0.32019 0.22824 0.41112 0.0
H4103 H 0.31709 0.20791 0.4454 0.0
H4104 H 0.28746 0.23978 0.48852 0.0
H4105 H 0.29332 0.2277 0.47161 0.0
H4106 H 0.29934 0.2478 0.43899 0.0
C4107 C 0.31871 0.21871 0.4115 0.0
C4108 C 0.31307 0.21653 0.44384 0.0
C4109 C 0.32184 0.21181 0.40174 0.0
C4110 C 0.29239 0.24397 0.48149 0.0
C4111 C 0.29583 0.23704 0.47187 0.0
C4112 C 0.30328 0.23913 0.44047 0.0
C4113 C 0.31401 0.21335 0.42169 0.0
C4114 C 0.31093 0.22073 0.43218 0.0
C4115 C 0.30216 0.24217 0.46253 0.0
C4116 C 0.30536 0.23487 0.45209 0.0
H4117 H 0.31456 0.1844 0.41258 0.0
H4118 H 0.30865 0.19648 0.42941 0.0
H4119 H 0.30399 0.23559 0.4218 0.0
H4120 H 0.30415 0.27064 0.47301 0.0
H4121 H 0.31014 0.25851 0.45608 0.0
C4122 C 0.32415 0.82184 0.40993 0.0
C4123 C 0.31664 0.8231 0.39981 0.0
C4124 C 0.32021 0.81579 0.41999 0.0
C4125 C 0.29263 0.80389 0.43386 0.0
H4126 H 0.31532 0.78537 0.45265 0.0
C4127 C 0.27784 0.77092 0.46981 0.0
C4128 C 0.28279 0.77315 0.48126 0.0
C4129 C 0.28267 0.77628 0.45979 0.0
C4130 C 0.30892 0.79053 0.44749 0.0
H4131 H 0.29918 0.81901 0.39219 0.0
H4132 H 0.29238 0.80806 0.40952 0.0
H4133 H 0.32204 0.79643 0.43533 0.0
H4134 H 0.2972 0.7821 0.49102 0.0
H4135 H 0.30586 0.79119 0.47338 0.0
H4136 H 0.27947 0.79761 0.44586 0.0
C4137 C 0.30119 0.81205 0.40993 0.0
C4138 C 0.31275 0.79696 0.4376 0.0
C4139 C 0.30508 0.81829 0.39996 0.0
C4140 C 0.29317 0.78021 0.48234 0.0
C4141 C 0.29813 0.78542 0.47226 0.0
C4142 C 0.28878 0.79729 0.4436 0.0
C4143 C 0.30872 0.81065 0.42009 0.0
C4144 C 0.30467 0.80378 0.43065 0.0
C4145 C 0.29268 0.78381 0.46095 0.0
C4146 C 0.29688 0.79057 0.45051 0.0
H4147 H 0.33309 0.82555 0.41006 0.0
H4148 H 0.32619 0.81519 0.42769 0.0
H4149 H 0.28616 0.8092 0.42896 0.0
H4150 H 0.26985 0.76554 0.46861 0.0
H4151 H 0.2784 0.77479 0.45114 0.0
C4152 C 0.62002 0.20238 0.68787 0.0
C4153 C 0.63009 0.19701 0.69326 0.0
C4154 C 0.61024 0.20549 0.69465 0.0
C4155 C 0.59525 0.19835 0.72246 0.0
H4156 H 0.58105 0.22952 0.71861 0.0
C4157 C 0.5596 0.21581 0.75428 0.0
C4158 C 0.55061 0.22317 0.74951 0.0
C4159 C 0.56911 0.21231 0.7473 0.0
C4160 C 0.58476 0.2207 0.71968 0.0
H4161 H 0.63777 0.19096 0.71014 0.0
H4162 H 0.62061 0.19613 0.72185 0.0
H4163 H 0.5979 0.22406 0.70658 0.0
H4164 H 0.54426 0.23221 0.73357 0.0
H4165 H 0.5606 0.22588 0.72129 0.0
H4166 H 0.58203 0.19487 0.7354 0.0
C4167 C 0.62028 0.19784 0.71235 0.0
C4168 C 0.59446 0.2176 0.7128 0.0
C4169 C 0.6301 0.19485 0.70561 0.0
C4170 C 0.55116 0.22669 0.73754 0.0
C4171 C 0.56057 0.2231 0.73052 0.0
C4172 C 0.58547 0.2014 0.72926 0.0
C4173 C 0.61024 0.2032 0.70695 0.0
C4174 C 0.59984 0.20641 0.71415 0.0
C4175 C 0.56978 0.21599 0.73534 0.0
C4176 C 0.5801 0.21263 0.72799 0.0
H4177 H 0.61958 0.20401 0.67836 0.0
H4178 H 0.60258 0.2095 0.69021 0.0
H4179 H 0.59913 0.18961 0.72359 0.0
H4180 H 0.55949 0.21307 0.76352 0.0
H4181 H 0.5761 0.20698 0.7514 0.0
C4182 C 0.31999 0.12582 0.70507 0.0
C4183 C 0.33195 0.12728 0.70193 0.0
C4184 C 0.31645 0.11609 0.71194 0.0
C4185 C 0.32545 0.08576 0.72114 0.0
H4186 H 0.30286 0.0906 0.74615 0.0
C4187 C 0.3126 0.04819 0.75395 0.0
C4188 C 0.30047 0.04718 0.75664 0.0
C4189 C 0.31682 0.05804 0.74763 0.0
C4190 C 0.30908 0.08906 0.73913 0.0
H4191 H 0.34954 0.11949 0.70344 0.0
H4192 H 0.3434 0.1026 0.71556 0.0
H4193 H 0.30938 0.1075 0.73432 0.0
H4194 H 0.28337 0.05599 0.75506 0.0
H4195 H 0.29065 0.07296 0.74389 0.0
H4196 H 0.32508 0.06728 0.7259 0.0
C4197 C 0.33673 0.10895 0.71263 0.0
C4198 C 0.31282 0.09876 0.73234 0.0
C4199 C 0.34028 0.11871 0.70579 0.0
C4200 C 0.29272 0.05635 0.753 0.0
C4201 C 0.29694 0.06619 0.74672 0.0
C4202 C 0.3217 0.07604 0.72793 0.0
C4203 C 0.32478 0.10754 0.71583 0.0
C4204 C 0.321 0.09723 0.72321 0.0
C4205 C 0.30903 0.06715 0.7439 0.0
C4206 C 0.3134 0.07755 0.73697 0.0
H4207 H 0.31336 0.13231 0.70235 0.0
H4208 H 0.30715 0.11521 0.71412 0.0
H4209 H 0.33165 0.08423 0.71409 0.0
H4210 H 0.3188 0.04126 0.75654 0.0
H4211 H 0.32622 0.05855 0.74573 0.0
C4212 C 0.39968 0.82661 0.68682 0.0
C4213 C 0.39032 0.83195 0.69293 0.0
C4214 C 0.40976 0.82234 0.69304 0.0
C4215 C 0.42729 0.82618 0.72084 0.0
H4216 H 0.43913 0.79456 0.7144 0.0
C4217 C 0.46476 0.80533 0.75012 0.0
C4218 C 0.473 0.7979 0.74466 0.0
C4219 C 0.45466 0.80935 0.7438 0.0
C4220 C 0.4361 0.80349 0.7162 0.0
H4221 H 0.38427 0.83671 0.71051 0.0
H4222 H 0.40198 0.82962 0.72122 0.0
H4223 H 0.42178 0.80193 0.70323 0.0
H4224 H 0.47721 0.78902 0.7282 0.0
H4225 H 0.45983 0.79627 0.71702 0.0
H4226 H 0.44171 0.82795 0.73356 0.0
C4227 C 0.4015 0.82879 0.71161 0.0
C4228 C 0.4261 0.80768 0.70981 0.0
C4229 C 0.39136 0.83291 0.70543 0.0
C4230 C 0.47093 0.7946 0.7327 0.0
C4231 C 0.46092 0.79874 0.72631 0.0
C4232 C 0.43738 0.82206 0.72711 0.0
C4233 C 0.4108 0.82344 0.70549 0.0
C4234 C 0.42155 0.81905 0.71211 0.0
C4235 C 0.45261 0.80617 0.73176 0.0
C4236 C 0.44191 0.81062 0.72495 0.0
H4237 H 0.39934 0.82587 0.67721 0.0
H4238 H 0.41684 0.81836 0.68807 0.0
H4239 H 0.42408 0.83505 0.72269 0.0
H4240 H 0.46603 0.80789 0.75937 0.0
H4241 H 0.44838 0.81483 0.74842 0.0
C4242 C 0.68275 0.8946 0.71373 0.0
C4243 C 0.68325 0.89326 0.70128 0.0
C4244 C 0.68755 0.90475 0.71937 0.0
C4245 C 0.7098 0.92843 0.71581 0.0
H4246 H 0.69163 0.9456 0.73904 0.0
C4247 C 0.72591 0.97376 0.73458 0.0
C4248 C 0.72376 0.97638 0.74656 0.0
C4249 C 0.72086 0.96364 0.72916 0.0
C4250 C 0.69692 0.94082 0.73272 0.0
H4251 H 0.68901 0.90178 0.68503 0.0
H4252 H 0.69765 0.91926 0.69493 0.0
H4253 H 0.68311 0.9278 0.72954 0.0
H4254 H 0.71478 0.97037 0.76231 0.0
H4255 H 0.7062 0.95251 0.75299 0.0
H4256 H 0.72372 0.9412 0.71911 0.0
C4257 C 0.69359 0.91241 0.7003 0.0
C4258 C 0.692 0.93065 0.72725 0.0
C4259 C 0.68867 0.90235 0.69464 0.0
C4260 C 0.71646 0.96864 0.75302 0.0
C4261 C 0.71152 0.95843 0.74764 0.0
C4262 C 0.71478 0.93851 0.72138 0.0
C4263 C 0.69308 0.91371 0.71271 0.0
C4264 C 0.69837 0.92439 0.71869 0.0
C4265 C 0.71364 0.95578 0.73563 0.0
C4266 C 0.70839 0.9449 0.72986 0.0
H4267 H 0.67884 0.88773 0.71918 0.0
H4268 H 0.68715 0.90546 0.72897 0.0
H4269 H 0.71498 0.92368 0.70936 0.0
H4270 H 0.73133 0.97966 0.72933 0.0
H4271 H 0.7225 0.96208 0.71983 0.0
C4272 C 0.61457 0.82185 0.29576 0.0
C4273 C 0.61625 0.82234 0.30823 0.0
C4274 C 0.60436 0.81644 0.29063 0.0
C4275 C 0.58177 0.79385 0.2976 0.0
H4276 H 0.56314 0.80707 0.27123 0.0
C4277 C 0.53647 0.77399 0.28526 0.0
C4278 C 0.53364 0.77181 0.2732 0.0
C4279 C 0.54618 0.78115 0.28859 0.0
C4280 C 0.56834 0.80321 0.27851 0.0
H4281 H 0.60815 0.8181 0.32504 0.0
H4282 H 0.59051 0.8086 0.31615 0.0
H4283 H 0.58098 0.8177 0.27885 0.0
H4284 H 0.53838 0.77594 0.25509 0.0
H4285 H 0.55569 0.78845 0.26094 0.0
H4286 H 0.56934 0.77937 0.29732 0.0
C4287 C 0.59717 0.8122 0.31032 0.0
C4288 C 0.57853 0.8093 0.28287 0.0
C4289 C 0.60732 0.81762 0.31542 0.0
C4290 C 0.54037 0.77749 0.26446 0.0
C4291 C 0.55026 0.78464 0.26782 0.0
C4292 C 0.57168 0.78778 0.29324 0.0
C4293 C 0.59565 0.81137 0.29787 0.0
C4294 C 0.58522 0.80477 0.29263 0.0
C4295 C 0.55347 0.78622 0.27995 0.0
C4296 C 0.56467 0.79249 0.28382 0.0
H4297 H 0.62131 0.82532 0.28995 0.0
H4298 H 0.60346 0.81589 0.28102 0.0
H4299 H 0.58689 0.78995 0.30491 0.0
H4300 H 0.53132 0.7699 0.29221 0.0
H4301 H 0.54815 0.78247 0.298 0.0
C4302 C 0.68239 0.10477 0.29816 0.0
C4303 C 0.68908 0.1143 0.30312 0.0
C4304 C 0.68804 0.09527 0.2926 0.0
C4305 C 0.71671 0.08719 0.27908 0.0
H4306 H 0.70668 0.05463 0.28498 0.0
C4307 C 0.74774 0.04756 0.27441 0.0
C4308 C 0.74348 0.03701 0.26901 0.0
C4309 C 0.74008 0.05695 0.2766 0.0
C4310 C 0.70944 0.06368 0.28307 0.0
H4311 H 0.707 0.12129 0.30599 0.0
H4312 H 0.71683 0.10465 0.29664 0.0
H4313 H 0.69525 0.07113 0.29298 0.0
H4314 H 0.72783 0.02807 0.26151 0.0
H4315 H 0.71421 0.04459 0.26562 0.0
H4316 H 0.73115 0.07974 0.26958 0.0
C4317 C 0.70719 0.10458 0.29687 0.0
C4318 C 0.70291 0.07315 0.28766 0.0
C4319 C 0.70156 0.11405 0.30241 0.0
C4320 C 0.73135 0.03612 0.26565 0.0
C4321 C 0.72357 0.04552 0.26806 0.0
C4322 C 0.72325 0.07776 0.27457 0.0
C4323 C 0.70052 0.09508 0.29183 0.0
C4324 C 0.70666 0.08502 0.28598 0.0
C4325 C 0.7279 0.05602 0.27358 0.0
C4326 C 0.71986 0.0659 0.27676 0.0
H4327 H 0.67277 0.1046 0.29865 0.0
H4328 H 0.68261 0.08815 0.28877 0.0
H4329 H 0.71968 0.09621 0.27733 0.0
H4330 H 0.75705 0.04857 0.27704 0.0
H4331 H 0.74366 0.06485 0.281 0.0
C4332 C 0.39698 0.20672 0.32205 0.0
C4333 C 0.39742 0.1957 0.32793 0.0
C4334 C 0.40729 0.21175 0.31745 0.0
C4335 C 0.43911 0.21323 0.3231 0.0
H4336 H 0.44025 0.22729 0.29162 0.0
C4337 C 0.48172 0.2362 0.30594 0.0
C4338 C 0.48027 0.24604 0.29834 0.0
C4339 C 0.47184 0.22946 0.30933 0.0
C4340 C 0.44005 0.22358 0.30051 0.0
H4341 H 0.4088 0.18116 0.33352 0.0
H4342 H 0.42703 0.19011 0.32565 0.0
H4343 H 0.42257 0.21621 0.29738 0.0
H4344 H 0.46739 0.25687 0.28873 0.0
H4345 H 0.45009 0.24549 0.295 0.0
H4346 H 0.45632 0.22098 0.32649 0.0
C4347 C 0.41867 0.19477 0.3245 0.0
C4348 C 0.42994 0.21714 0.30375 0.0
C4349 C 0.40827 0.18962 0.32891 0.0
C4350 C 0.46874 0.24924 0.2945 0.0
C4351 C 0.45885 0.24264 0.29802 0.0
C4352 C 0.44915 0.21983 0.31993 0.0
C4353 C 0.41828 0.20595 0.31887 0.0
C4354 C 0.42935 0.21197 0.3151 0.0
C4355 C 0.46027 0.23253 0.30533 0.0
C4356 C 0.44973 0.22519 0.30863 0.0
H4357 H 0.38868 0.21156 0.32128 0.0
H4358 H 0.40676 0.22042 0.31324 0.0
H4359 H 0.4388 0.20946 0.33197 0.0
H4360 H 0.49054 0.23343 0.30888 0.0
H4361 H 0.47334 0.22167 0.31482 0.0
C4362 C 0.3181 0.90213 0.32249 0.0
C4363 C 0.32176 0.89284 0.31507 0.0
C4364 C 0.31332 0.91257 0.31763 0.0
C4365 C 0.29871 0.92484 0.29046 0.0
H4366 H 0.30664 0.95504 0.30557 0.0
C4367 C 0.27796 0.96958 0.27442 0.0
C4368 C 0.27309 0.97619 0.2837 0.0
C4369 C 0.28557 0.95998 0.277 0.0
C4370 C 0.30434 0.94668 0.30124 0.0
H4371 H 0.32306 0.88722 0.29666 0.0
H4372 H 0.31485 0.90553 0.28818 0.0
H4373 H 0.3164 0.93693 0.31256 0.0
H4374 H 0.27281 0.97836 0.30289 0.0
H4375 H 0.28605 0.96188 0.30734 0.0
H4376 H 0.28646 0.93462 0.27929 0.0
C4377 C 0.31563 0.9047 0.29777 0.0
C4378 C 0.30989 0.93629 0.30528 0.0
C4379 C 0.32044 0.89424 0.30264 0.0
C4380 C 0.2764 0.97341 0.29553 0.0
C4381 C 0.28406 0.96399 0.29809 0.0
C4382 C 0.29316 0.93526 0.28639 0.0
C4383 C 0.31207 0.91402 0.30521 0.0
C4384 C 0.30694 0.92519 0.30014 0.0
C4385 C 0.28857 0.95701 0.28889 0.0
C4386 C 0.2957 0.94626 0.29194 0.0
H4387 H 0.31909 0.90142 0.33209 0.0
H4388 H 0.3105 0.91948 0.32364 0.0
H4389 H 0.29617 0.91644 0.28633 0.0
H4390 H 0.27551 0.97148 0.26522 0.0
H4391 H 0.28896 0.9548 0.26972 0.0
C4392 C 0.7131 0.11408 0.68013 0.0
C4393 C 0.70831 0.12233 0.68812 0.0
C4394 C 0.71844 0.10358 0.68438 0.0
C4395 C 0.71512 0.08273 0.7082 0.0
H4396 H 0.74782 0.0725 0.70513 0.0
C4397 C 0.73491 0.04908 0.74042 0.0
C4398 C 0.74224 0.03994 0.73636 0.0
C4399 C 0.73155 0.05844 0.73298 0.0
C4400 C 0.7386 0.07512 0.70586 0.0
H4401 H 0.70632 0.12643 0.70685 0.0
H4402 H 0.71521 0.10804 0.71413 0.0
H4403 H 0.7408 0.09048 0.69461 0.0
H4404 H 0.75213 0.03368 0.7213 0.0
H4405 H 0.74604 0.05018 0.70806 0.0
H4406 H 0.71276 0.06761 0.71941 0.0
C4407 C 0.71474 0.10965 0.70462 0.0
C4408 C 0.73462 0.08541 0.69988 0.0
C4409 C 0.70957 0.12014 0.70042 0.0
C4410 C 0.74642 0.04057 0.72467 0.0
C4411 C 0.74297 0.05001 0.71711 0.0
C4412 C 0.71902 0.07247 0.71403 0.0
C4413 C 0.71896 0.10115 0.69665 0.0
C4414 C 0.72295 0.08947 0.70134 0.0
C4415 C 0.73529 0.05893 0.72116 0.0
C4416 C 0.73092 0.06876 0.71331 0.0
H4417 H 0.71227 0.11549 0.6706 0.0
H4418 H 0.72164 0.09712 0.67807 0.0
H4419 H 0.70602 0.0856 0.70931 0.0
H4420 H 0.73169 0.04905 0.74942 0.0
H4421 H 0.72595 0.06532 0.73653 0.0
C4422 C 0.70541 0.90082 0.33161 0.0
C4423 C 0.70091 0.89192 0.32386 0.0
C4424 C 0.71124 0.91087 0.32717 0.0
C4425 C 0.72743 0.92153 0.301 0.0
H4426 H 0.7222 0.95274 0.31463 0.0
C4427 C 0.74725 0.96455 0.28087 0.0
C4428 C 0.7516 0.97338 0.2888 0.0
C4429 C 0.74098 0.95465 0.28504 0.0
C4430 C 0.72388 0.94407 0.31082 0.0
H4431 H 0.69897 0.88667 0.30531 0.0
H4432 H 0.70901 0.9043 0.29754 0.0
H4433 H 0.71121 0.93555 0.32197 0.0
H4434 H 0.75271 0.9786 0.30741 0.0
H4435 H 0.74204 0.96122 0.31469 0.0
H4436 H 0.74016 0.93002 0.2899 0.0
C4437 C 0.70812 0.90344 0.30708 0.0
C4438 C 0.71755 0.93421 0.31502 0.0
C4439 C 0.70225 0.8934 0.31153 0.0
C4440 C 0.7496 0.97196 0.30103 0.0
C4441 C 0.74334 0.96205 0.30521 0.0
C4442 C 0.73378 0.93139 0.29682 0.0
C4443 C 0.71274 0.91227 0.31485 0.0
C4444 C 0.71927 0.92281 0.31019 0.0
C4445 C 0.73891 0.95328 0.29726 0.0
C4446 C 0.73211 0.94278 0.30169 0.0
H4447 H 0.70442 0.90004 0.34115 0.0
H4448 H 0.71477 0.91744 0.33342 0.0
H4449 H 0.72911 0.91286 0.29721 0.0
H4450 H 0.74872 0.96524 0.27141 0.0
H4451 H 0.73762 0.94814 0.27864 0.0
C4452 C 0.60674 0.1872 0.30984 0.0
C4453 C 0.61672 0.19455 0.31215 0.0
C4454 C 0.59652 0.19174 0.30414 0.0
C4455 C 0.58173 0.22046 0.29611 0.0
H4456 H 0.56229 0.20015 0.2753 0.0
C4457 C 0.54268 0.23898 0.26768 0.0
C4458 C 0.53167 0.23323 0.26939 0.0
C4459 C 0.55331 0.23376 0.27172 0.0
C4460 C 0.56764 0.20591 0.28111 0.0
H4461 H 0.62394 0.21234 0.31012 0.0
H4462 H 0.60631 0.22022 0.2998 0.0
H4463 H 0.58041 0.19227 0.28478 0.0
H4464 H 0.52331 0.21714 0.27597 0.0
H4465 H 0.54196 0.20791 0.28275 0.0
H4466 H 0.56904 0.23415 0.29218 0.0
C4467 C 0.60615 0.21103 0.30271 0.0
C4468 C 0.57799 0.20138 0.28662 0.0
C4469 C 0.6163 0.20652 0.30859 0.0
C4470 C 0.53162 0.2218 0.27452 0.0
C4471 C 0.5423 0.21651 0.2784 0.0
C4472 C 0.5715 0.22502 0.29044 0.0
C4473 C 0.59608 0.20372 0.30042 0.0
C4474 C 0.58516 0.20858 0.29428 0.0
C4475 C 0.55321 0.22261 0.27738 0.0
C4476 C 0.56431 0.21778 0.28293 0.0
H4477 H 0.60679 0.17795 0.31259 0.0
H4478 H 0.5889 0.18587 0.3028 0.0
H4479 H 0.5868 0.22624 0.30212 0.0
H4480 H 0.54307 0.24779 0.26377 0.0
H4481 H 0.56161 0.2386 0.27068 0.0
C4482 C 0.3055 0.11935 0.32719 0.0
C4483 C 0.31803 0.11889 0.32744 0.0
C4484 C 0.29868 0.10951 0.32342 0.0
C4485 C 0.30001 0.08166 0.306 0.0
H4486 H 0.27204 0.07297 0.32367 0.0
C4487 C 0.26633 0.04569 0.28934 0.0
C4488 C 0.26211 0.03759 0.29785 0.0
C4489 C 0.27305 0.05569 0.29286 0.0
C4490 C 0.27986 0.07524 0.31868 0.0
H4491 H 0.33316 0.10766 0.32394 0.0
H4492 H 0.32123 0.09051 0.3173 0.0
H4493 H 0.28413 0.09009 0.33001 0.0
H4494 H 0.26176 0.03376 0.31679 0.0
H4495 H 0.27338 0.05123 0.3229 0.0
H4496 H 0.29582 0.0667 0.29477 0.0
C4497 C 0.31671 0.09854 0.31991 0.0
C4498 C 0.28672 0.08513 0.32224 0.0
C4499 C 0.32355 0.10838 0.32371 0.0
C4500 C 0.26469 0.03986 0.30998 0.0
C4501 C 0.27138 0.04988 0.3135 0.0
C4502 C 0.29311 0.0718 0.30241 0.0
C4503 C 0.30419 0.09897 0.31978 0.0
C4504 C 0.29689 0.08846 0.31595 0.0
C4505 C 0.27569 0.05789 0.30498 0.0
C4506 C 0.28296 0.06846 0.30872 0.0
H4507 H 0.30095 0.12737 0.32978 0.0
H4508 H 0.28906 0.11021 0.32324 0.0
H4509 H 0.30772 0.08405 0.30091 0.0
H4510 H 0.26436 0.04437 0.27994 0.0
H4511 H 0.27607 0.06179 0.28608 0.0
C4512 C 0.39542 0.79907 0.32819 0.0
C4513 C 0.3942 0.8115 0.32729 0.0
C4514 C 0.40529 0.79338 0.32357 0.0
C4515 C 0.42904 0.79637 0.30195 0.0
H4516 H 0.44508 0.77296 0.32195 0.0
C4517 C 0.47311 0.77451 0.28844 0.0
C4518 C 0.47458 0.76235 0.29101 0.0
C4519 C 0.46353 0.7808 0.29294 0.0
C4520 C 0.44063 0.77935 0.31617 0.0
H4521 H 0.40233 0.82765 0.32055 0.0
H4522 H 0.41952 0.81764 0.31227 0.0
H4523 H 0.42781 0.78335 0.32933 0.0
H4524 H 0.46706 0.74723 0.30021 0.0
H4525 H 0.45022 0.7581 0.30792 0.0
H4526 H 0.4417 0.79222 0.2887 0.0
C4527 C 0.41279 0.81234 0.3166 0.0
C4528 C 0.43075 0.78533 0.32043 0.0
C4529 C 0.40293 0.81806 0.32131 0.0
C4530 C 0.46627 0.75663 0.29822 0.0
C4531 C 0.45663 0.76288 0.30265 0.0
C4532 C 0.43888 0.79031 0.29765 0.0
C4533 C 0.41414 0.79996 0.31784 0.0
C4534 C 0.42481 0.79386 0.31335 0.0
C4535 C 0.45512 0.77505 0.30006 0.0
C4536 C 0.44478 0.78168 0.30469 0.0
H4537 H 0.38873 0.79369 0.33247 0.0
H4538 H 0.40597 0.7838 0.32445 0.0
H4539 H 0.42457 0.80281 0.29626 0.0
H4540 H 0.47947 0.77922 0.28306 0.0
H4541 H 0.46279 0.7902 0.29094 0.0
C4542 C 0.3109 0.90822 0.71048 0.0
C4543 C 0.31218 0.90755 0.69809 0.0
C4544 C 0.30452 0.91749 0.71552 0.0
C4545 C 0.29466 0.94819 0.71023 0.0
H4546 H 0.27502 0.94161 0.73737 0.0
C4547 C 0.27313 0.98574 0.73813 0.0
C4548 C 0.27588 0.98458 0.75036 0.0
C4549 C 0.27514 0.97621 0.73033 0.0
C4550 C 0.28043 0.9436 0.72977 0.0
H4551 H 0.30777 0.91614 0.68126 0.0
H4552 H 0.29657 0.93238 0.69011 0.0
H4553 H 0.28345 0.92514 0.72634 0.0
H4554 H 0.28224 0.97244 0.7641 0.0
H4555 H 0.28557 0.95597 0.75066 0.0
H4556 H 0.29193 0.9667 0.71396 0.0
C4557 C 0.30054 0.92571 0.6959 0.0
C4558 C 0.2853 0.93416 0.72348 0.0
C4559 C 0.30688 0.91637 0.69084 0.0
C4560 C 0.2801 0.97363 0.7547 0.0
C4561 C 0.28192 0.96414 0.747 0.0
C4562 C 0.28977 0.95766 0.71655 0.0
C4563 C 0.29926 0.92635 0.70831 0.0
C4564 C 0.29279 0.93635 0.71388 0.0
C4565 C 0.27968 0.96535 0.7347 0.0
C4566 C 0.28293 0.95546 0.72662 0.0
H4567 H 0.31475 0.90151 0.71631 0.0
H4568 H 0.30386 0.9178 0.72513 0.0
H4569 H 0.30042 0.95018 0.7029 0.0
H4570 H 0.26991 0.99411 0.73456 0.0
H4571 H 0.27331 0.97738 0.72088 0.0
C4572 C 0.61252 0.79739 0.68332 0.0
C4573 C 0.61374 0.80982 0.68221 0.0
C4574 C 0.60203 0.79236 0.68766 0.0
C4575 C 0.57024 0.79907 0.69255 0.0
H4576 H 0.57263 0.77521 0.71745 0.0
C4577 C 0.53402 0.79195 0.72665 0.0
C4578 C 0.53157 0.78049 0.73101 0.0
C4579 C 0.54313 0.79383 0.71866 0.0
C4580 C 0.57177 0.78168 0.71033 0.0
H4581 H 0.60478 0.82667 0.68449 0.0
H4582 H 0.58661 0.81794 0.69215 0.0
H4583 H 0.59057 0.7818 0.70742 0.0
H4584 H 0.53651 0.7619 0.7301 0.0
H4585 H 0.55262 0.76521 0.71605 0.0
H4586 H 0.55153 0.79923 0.69568 0.0
C4587 C 0.5937 0.81205 0.68961 0.0
C4588 C 0.58206 0.78548 0.7046 0.0
C4589 C 0.60418 0.81707 0.68536 0.0
C4590 C 0.53815 0.77082 0.72683 0.0
C4591 C 0.54743 0.77273 0.71888 0.0
C4592 C 0.55998 0.79527 0.69826 0.0
C4593 C 0.5925 0.79964 0.69087 0.0
C4594 C 0.58145 0.79447 0.69588 0.0
C4595 C 0.55012 0.78431 0.71486 0.0
C4596 C 0.56066 0.78679 0.70746 0.0
H4597 H 0.61975 0.79157 0.68104 0.0
H4598 H 0.60137 0.78276 0.68847 0.0
H4599 H 0.56942 0.80582 0.68569 0.0
H4600 H 0.52909 0.79958 0.72969 0.0
H4601 H 0.54503 0.80287 0.71589 0.0
C4602 C 0.41074 0.21565 0.69764 0.0
C4603 C 0.41063 0.20322 0.69606 0.0
C4604 C 0.42089 0.22146 0.70243 0.0
C4605 C 0.44677 0.2148 0.722 0.0
H4606 H 0.45773 0.24651 0.71366 0.0
C4607 C 0.4783 0.23994 0.75343 0.0
C4608 C 0.48862 0.24496 0.74865 0.0
C4609 C 0.4688 0.2363 0.74603 0.0
C4610 C 0.45481 0.23762 0.71602 0.0
H4611 H 0.42134 0.18729 0.69738 0.0
H4612 H 0.43902 0.19738 0.70557 0.0
H4613 H 0.44157 0.23697 0.70182 0.0
H4614 H 0.4968 0.25083 0.7324 0.0
H4615 H 0.48005 0.24428 0.71927 0.0
H4616 H 0.4599 0.21534 0.7361 0.0
C4617 C 0.4312 0.20263 0.70344 0.0
C4618 C 0.44551 0.2322 0.70931 0.0
C4619 C 0.42107 0.19684 0.69874 0.0
C4620 C 0.48893 0.24699 0.73631 0.0
C4621 C 0.47937 0.24324 0.72882 0.0
C4622 C 0.45597 0.22021 0.72867 0.0
C4623 C 0.43114 0.21496 0.70568 0.0
C4624 C 0.44135 0.22073 0.71228 0.0
C4625 C 0.46939 0.23746 0.73361 0.0
C4626 C 0.46 0.23173 0.72589 0.0
H4627 H 0.40282 0.22081 0.69569 0.0
H4628 H 0.42051 0.23095 0.7041 0.0
H4629 H 0.44372 0.20605 0.72467 0.0
H4630 H 0.47771 0.23845 0.76293 0.0
H4631 H 0.46112 0.2322 0.75004 0.0
C4632 C 0.69304 0.70452 0.10368 0.0
C4633 C 0.68731 0.7106 0.11284 0.0
C4634 C 0.69698 0.71062 0.09365 0.0
C4635 C 0.70358 0.74122 0.08242 0.0
H4636 H 0.70213 0.72542 0.05169 0.0
C4637 C 0.7115 0.7656 0.03772 0.0
C4638 C 0.7195 0.76007 0.03011 0.0
C4639 C 0.70746 0.75967 0.04782 0.0
C4640 C 0.70264 0.72992 0.06023 0.0
H4641 H 0.68141 0.728 0.11858 0.0
H4642 H 0.6877 0.73848 0.10089 0.0
H4643 H 0.69521 0.71495 0.06924 0.0
H4644 H 0.72933 0.7439 0.02695 0.0
H4645 H 0.72215 0.73346 0.04449 0.0
H4646 H 0.71074 0.75629 0.07324 0.0
C4647 C 0.68942 0.72902 0.10155 0.0
C4648 C 0.69874 0.7239 0.07033 0.0
C4649 C 0.68562 0.72295 0.11166 0.0
C4650 C 0.72325 0.74842 0.03271 0.0
C4651 C 0.71907 0.74242 0.04269 0.0
C4652 C 0.70732 0.74728 0.07229 0.0
C4653 C 0.69517 0.72296 0.0924 0.0
C4654 C 0.69921 0.72944 0.08159 0.0
C4655 C 0.71119 0.748 0.05039 0.0
C4656 C 0.70695 0.74167 0.0611 0.0
H4657 H 0.69438 0.69499 0.10415 0.0
H4658 H 0.70153 0.70564 0.08691 0.0
H4659 H 0.7043 0.74572 0.09094 0.0
H4660 H 0.70853 0.7746 0.03598 0.0
H4661 H 0.70134 0.76415 0.05357 0.0
C4662 C 0.31627 0.70981 0.11075 0.0
C4663 C 0.31711 0.69749 0.11281 0.0
C4664 C 0.31051 0.71416 0.1005 0.0
C4665 C 0.28865 0.70848 0.07663 0.0
H4666 H 0.30786 0.73131 0.05956 0.0
C4667 C 0.27352 0.73321 0.03236 0.0
C4668 C 0.27667 0.74536 0.03219 0.0
C4669 C 0.27768 0.72583 0.04171 0.0
C4670 C 0.30233 0.72499 0.06423 0.0
H4671 H 0.3119 0.68009 0.10593 0.0
H4672 H 0.30155 0.6878 0.08801 0.0
H4673 H 0.31629 0.72131 0.077 0.0
H4674 H 0.28592 0.75943 0.04208 0.0
H4675 H 0.29287 0.74682 0.05818 0.0
H4676 H 0.27452 0.71257 0.06397 0.0
C4677 C 0.30551 0.69402 0.09437 0.0
C4678 C 0.30718 0.71925 0.07421 0.0
C4679 C 0.31142 0.68963 0.10464 0.0
C4680 C 0.28352 0.75007 0.04176 0.0
C4681 C 0.28758 0.7428 0.05101 0.0
C4682 C 0.28371 0.71435 0.06661 0.0
C4683 C 0.30529 0.70633 0.09208 0.0
C4684 C 0.30032 0.71118 0.08071 0.0
C4685 C 0.28501 0.73055 0.05098 0.0
C4686 C 0.29042 0.72295 0.06054 0.0
H4687 H 0.32022 0.71616 0.11699 0.0
H4688 H 0.31027 0.7237 0.09907 0.0
H4689 H 0.28319 0.70225 0.08148 0.0
H4690 H 0.2682 0.72935 0.02512 0.0
H4691 H 0.2755 0.71642 0.04148 0.0
C4692 C 0.32162 0.3053 0.12162 0.0
C4693 C 0.3213 0.3178 0.1225 0.0
C4694 C 0.3181 0.29954 0.11102 0.0
C4695 C 0.31352 0.3049 0.07868 0.0
H4696 H 0.29232 0.27749 0.07973 0.0
C4697 C 0.28243 0.29151 0.03974 0.0
C4698 C 0.2798 0.27945 0.0375 0.0
C4699 C 0.28978 0.29486 0.04938 0.0
C4700 C 0.29845 0.28497 0.07927 0.0
H4701 H 0.31714 0.33403 0.11285 0.0
H4702 H 0.31085 0.32401 0.09445 0.0
H4703 H 0.30041 0.28605 0.09829 0.0
H4704 H 0.28318 0.26138 0.04333 0.0
H4705 H 0.2961 0.26727 0.06041 0.0
H4706 H 0.31131 0.30404 0.05971 0.0
C4707 C 0.31392 0.31865 0.10192 0.0
C4708 C 0.30305 0.28991 0.08991 0.0
C4709 C 0.31738 0.3244 0.11253 0.0
C4710 C 0.28513 0.27073 0.04482 0.0
C4711 C 0.29242 0.27411 0.05463 0.0
C4712 C 0.30894 0.29997 0.06807 0.0
C4713 C 0.31426 0.30616 0.10103 0.0
C4714 C 0.31038 0.30012 0.08975 0.0
C4715 C 0.29463 0.28624 0.05714 0.0
C4716 C 0.30109 0.29015 0.06824 0.0
H4717 H 0.3245 0.29995 0.12918 0.0
H4718 H 0.31851 0.28992 0.11062 0.0
H4719 H 0.31937 0.3126 0.07823 0.0
H4720 H 0.27848 0.29843 0.03423 0.0
H4721 H 0.29116 0.30427 0.0511 0.0
C4722 C 0.70409 0.33351 0.11449 0.0
C4723 C 0.69859 0.32741 0.12385 0.0
C4724 C 0.70833 0.32729 0.10469 0.0
C4725 C 0.70436 0.29933 0.08797 0.0
H4726 H 0.73572 0.3064 0.07607 0.0
C4727 C 0.72568 0.26994 0.05231 0.0
C4728 C 0.73268 0.27549 0.0437 0.0
C4729 C 0.72158 0.27638 0.06201 0.0
C4730 C 0.72687 0.30442 0.07915 0.0
H4731 H 0.69349 0.30989 0.13023 0.0
H4732 H 0.70064 0.29914 0.11302 0.0
H4733 H 0.72843 0.3175 0.09303 0.0
H4734 H 0.74068 0.29222 0.03843 0.0
H4735 H 0.73332 0.30357 0.0552 0.0
H4736 H 0.70265 0.28641 0.07403 0.0
C4737 C 0.70158 0.30875 0.11326 0.0
C4738 C 0.72271 0.31077 0.0889 0.0
C4739 C 0.69745 0.31494 0.12312 0.0
C4740 C 0.73543 0.28766 0.04499 0.0
C4741 C 0.73123 0.29415 0.05464 0.0
C4742 C 0.70846 0.29306 0.07815 0.0
C4743 C 0.70707 0.31485 0.10394 0.0
C4744 C 0.71144 0.30825 0.09346 0.0
C4745 C 0.72425 0.2886 0.0633 0.0
C4746 C 0.7198 0.29546 0.07364 0.0
H4747 H 0.70496 0.34312 0.11462 0.0
H4748 H 0.7124 0.33226 0.09758 0.0
H4749 H 0.69555 0.2973 0.09117 0.0
H4750 H 0.72357 0.26053 0.05169 0.0
H4751 H 0.71645 0.27172 0.0686 0.0
C4752 C 0.70028 0.30837 0.9013 0.0
C4753 C 0.69882 0.32073 0.89993 0.0
C4754 C 0.7058 0.30372 0.91159 0.0
C4755 C 0.7141 0.31126 0.94295 0.0
H4756 H 0.73642 0.28533 0.93985 0.0
C4757 C 0.74506 0.29586 0.98197 0.0
C4758 C 0.74657 0.28352 0.98345 0.0
C4759 C 0.73904 0.30034 0.97187 0.0
C4760 C 0.73011 0.29249 0.94089 0.0
H4761 H 0.70179 0.33786 0.9085 0.0
H4762 H 0.71164 0.3298 0.9263 0.0
H4763 H 0.72615 0.29316 0.92215 0.0
H4764 H 0.74291 0.26623 0.97545 0.0
H4765 H 0.73238 0.27405 0.95791 0.0
H4766 H 0.71814 0.31062 0.9617 0.0
C4767 C 0.70842 0.32367 0.91946 0.0
C4768 C 0.72421 0.29697 0.93074 0.0
C4769 C 0.7029 0.32831 0.90918 0.0
C4770 C 0.74193 0.27578 0.9746 0.0
C4771 C 0.73595 0.28027 0.96449 0.0
C4772 C 0.72003 0.30679 0.95311 0.0
C4773 C 0.71 0.31132 0.92079 0.0
C4774 C 0.71614 0.30642 0.93163 0.0
C4775 C 0.73444 0.2926 0.963 0.0
C4776 C 0.72811 0.29735 0.9522 0.0
H4777 H 0.69734 0.30228 0.89431 0.0
H4778 H 0.70674 0.29416 0.91237 0.0
H4779 H 0.70781 0.31842 0.94401 0.0
H4780 H 0.74854 0.30207 0.9886 0.0
H4781 H 0.73815 0.3099 0.97093 0.0
C4782 C 0.7189 0.68833 0.8982 0.0
C4783 C 0.71392 0.69489 0.88864 0.0
C4784 C 0.72436 0.69416 0.90799 0.0
C4785 C 0.73711 0.72355 0.91731 0.0
H4786 H 0.72951 0.71346 0.94927 0.0
C4787 C 0.73747 0.75542 0.95685 0.0
C4788 C 0.74247 0.75185 0.96788 0.0
C4789 C 0.73633 0.74742 0.9474 0.0
C4790 C 0.73191 0.71625 0.94041 0.0
H4791 H 0.71111 0.71273 0.88176 0.0
H4792 H 0.7203 0.72284 0.89882 0.0
H4793 H 0.72294 0.70132 0.93217 0.0
H4794 H 0.7503 0.73709 0.97764 0.0
H4795 H 0.748 0.72284 0.961 0.0
H4796 H 0.74558 0.73874 0.92551 0.0
C4797 C 0.72014 0.71319 0.89876 0.0
C4798 C 0.72814 0.7093 0.9306 0.0
C4799 C 0.7147 0.70739 0.88902 0.0
C4800 C 0.74646 0.74008 0.96921 0.0
C4801 C 0.74509 0.73194 0.95974 0.0
C4802 C 0.74079 0.7305 0.92707 0.0
C4803 C 0.72502 0.70668 0.90839 0.0
C4804 C 0.73039 0.71307 0.91891 0.0
C4805 C 0.74 0.73556 0.94874 0.0
C4806 C 0.73793 0.72711 0.9387 0.0
H4807 H 0.71839 0.67869 0.89822 0.0
H4808 H 0.72808 0.68887 0.91522 0.0
H4809 H 0.73928 0.72657 0.90846 0.0
H4810 H 0.73437 0.76445 0.95551 0.0
H4811 H 0.73224 0.75045 0.9391 0.0
C4812 C 0.33021 0.71465 0.8908 0.0
C4813 C 0.32872 0.7022 0.89027 0.0
C4814 C 0.32646 0.7211 0.90065 0.0
C4815 C 0.31776 0.71743 0.93225 0.0
H4816 H 0.3035 0.74846 0.92737 0.0
C4817 C 0.29155 0.74166 0.96847 0.0
C4818 C 0.29386 0.75388 0.97011 0.0
C4819 C 0.29636 0.73552 0.95892 0.0
C4820 C 0.30758 0.73986 0.92888 0.0
H4821 H 0.32222 0.6868 0.8999 0.0
H4822 H 0.31526 0.69807 0.9168 0.0
H4823 H 0.31067 0.7374 0.91034 0.0
H4824 H 0.30298 0.76927 0.96297 0.0
H4825 H 0.31134 0.75855 0.94618 0.0
H4826 H 0.31436 0.71981 0.95078 0.0
C4827 C 0.31954 0.70285 0.90969 0.0
C4828 C 0.31173 0.73351 0.91912 0.0
C4829 C 0.32338 0.69639 0.89988 0.0
C4830 C 0.30112 0.75984 0.96198 0.0
C4831 C 0.30581 0.75373 0.95233 0.0
C4832 C 0.31351 0.72372 0.94198 0.0
C4833 C 0.32103 0.7153 0.91022 0.0
C4834 C 0.31684 0.72219 0.92066 0.0
C4835 C 0.30349 0.7415 0.9507 0.0
C4836 C 0.30833 0.73499 0.9404 0.0
H4837 H 0.33414 0.71947 0.88352 0.0
H4838 H 0.3279 0.73065 0.90079 0.0
H4839 H 0.32186 0.70886 0.93384 0.0
H4840 H 0.28611 0.73679 0.97465 0.0
H4841 H 0.29433 0.72613 0.95785 0.0
C4842 C 0.31611 0.33737 0.90865 0.0
C4843 C 0.32112 0.32962 0.90035 0.0
C4844 C 0.30959 0.33289 0.91811 0.0
C4845 C 0.30429 0.30561 0.93577 0.0
H4846 H 0.27514 0.32159 0.94399 0.0
C4847 C 0.27145 0.28561 0.96928 0.0
C4848 C 0.2664 0.29348 0.97746 0.0
C4849 C 0.27804 0.28996 0.9598 0.0
C4850 C 0.28332 0.31709 0.9419 0.0
H4851 H 0.3232 0.31106 0.89554 0.0
H4852 H 0.31182 0.30324 0.91205 0.0
H4853 H 0.28697 0.32926 0.92777 0.0
H4854 H 0.26443 0.31211 0.98204 0.0
H4855 H 0.27589 0.31967 0.96553 0.0
H4856 H 0.30064 0.29344 0.94991 0.0
C4857 C 0.31306 0.31279 0.91132 0.0
C4858 C 0.29011 0.3215 0.9326 0.0
C4859 C 0.31959 0.31727 0.90185 0.0
C4860 C 0.26802 0.3058 0.97583 0.0
C4861 C 0.27461 0.31014 0.96635 0.0
C4862 C 0.2975 0.3012 0.94508 0.0
C4863 C 0.30791 0.32055 0.91952 0.0
C4864 C 0.30069 0.31583 0.92942 0.0
C4865 C 0.27975 0.30227 0.95825 0.0
C4866 C 0.28693 0.3069 0.94827 0.0
H4867 H 0.3173 0.34692 0.90789 0.0
H4868 H 0.30593 0.33911 0.92438 0.0
H4869 H 0.31247 0.30112 0.93367 0.0
H4870 H 0.27023 0.27609 0.97014 0.0
H4871 H 0.28169 0.28365 0.95361 0.0
C4872 C 0.61389 0.67957 0.20033 0.0
C4873 C 0.62252 0.68778 0.19657 0.0
C4874 C 0.60386 0.68343 0.20631 0.0
C4875 C 0.58588 0.71035 0.21206 0.0
H4876 H 0.57418 0.69154 0.2383 0.0
C4877 C 0.54989 0.72755 0.24342 0.0
C4878 C 0.5407 0.71954 0.24633 0.0
C4879 C 0.55988 0.72364 0.23743 0.0
C4880 C 0.57728 0.69683 0.23092 0.0
H4881 H 0.62744 0.70649 0.19622 0.0
H4882 H 0.61003 0.71323 0.20678 0.0
H4883 H 0.59155 0.68486 0.22766 0.0
H4884 H 0.53497 0.70105 0.24515 0.0
H4885 H 0.55247 0.69424 0.23485 0.0
H4886 H 0.57166 0.72238 0.21544 0.0
C4887 C 0.61088 0.70382 0.20491 0.0
C4888 C 0.58722 0.693 0.2248 0.0
C4889 C 0.62087 0.69995 0.19887 0.0
C4890 C 0.54189 0.70747 0.24323 0.0
C4891 C 0.55193 0.70355 0.23729 0.0
C4892 C 0.57598 0.71421 0.21823 0.0
C4893 C 0.60225 0.6956 0.20874 0.0
C4894 C 0.59165 0.6997 0.21527 0.0
C4895 C 0.561 0.7116 0.23426 0.0
C4896 C 0.57156 0.7075 0.22773 0.0
H4897 H 0.61481 0.67015 0.19853 0.0
H4898 H 0.59731 0.67687 0.20892 0.0
H4899 H 0.58891 0.71564 0.20465 0.0
H4900 H 0.54943 0.73686 0.24585 0.0
H4901 H 0.56681 0.73003 0.2354 0.0
C4902 C 0.32393 0.62212 0.20569 0.0
C4903 C 0.32198 0.62213 0.19326 0.0
C4904 C 0.32075 0.61225 0.21255 0.0
C4905 C 0.31332 0.57992 0.21006 0.0
H4906 H 0.30156 0.58451 0.24188 0.0
C4907 C 0.29318 0.54166 0.23792 0.0
C4908 C 0.297 0.54094 0.24993 0.0
C4909 C 0.2962 0.55152 0.23097 0.0
C4910 C 0.30492 0.58308 0.23304 0.0
H4911 H 0.31506 0.61163 0.17834 0.0
H4912 H 0.30907 0.59467 0.19031 0.0
H4913 H 0.30652 0.60179 0.22978 0.0
H4914 H 0.30689 0.55007 0.26408 0.0
H4915 H 0.31212 0.56735 0.25197 0.0
H4916 H 0.31147 0.56119 0.21331 0.0
C4917 C 0.31332 0.6022 0.19477 0.0
C4918 C 0.30781 0.59299 0.2261 0.0
C4919 C 0.3166 0.61203 0.18789 0.0
C4920 C 0.30389 0.55032 0.25484 0.0
C4921 C 0.30679 0.56026 0.24794 0.0
C4922 C 0.31031 0.57002 0.21696 0.0
C4923 C 0.3154 0.60213 0.20719 0.0
C4924 C 0.3121 0.59156 0.21452 0.0
C4925 C 0.303 0.56096 0.23591 0.0
C4926 C 0.30612 0.57149 0.22855 0.0
H4927 H 0.32787 0.62977 0.2102 0.0
H4928 H 0.32265 0.61252 0.22205 0.0
H4929 H 0.3168 0.57841 0.20129 0.0
H4930 H 0.28797 0.53453 0.23383 0.0
H4931 H 0.29309 0.55183 0.22176 0.0
C4932 C 0.4109 0.31528 0.19201 0.0
C4933 C 0.40068 0.31677 0.19877 0.0
C4934 C 0.42116 0.31018 0.19705 0.0
C4935 C 0.43573 0.30161 0.22608 0.0
H4936 H 0.45412 0.28111 0.20584 0.0
C4937 C 0.47381 0.27189 0.24455 0.0
C4938 C 0.48467 0.27284 0.23863 0.0
C4939 C 0.46339 0.27678 0.23958 0.0
C4940 C 0.4491 0.28686 0.21158 0.0
H4941 H 0.39323 0.31429 0.21617 0.0
H4942 H 0.41103 0.30504 0.22497 0.0
H4943 H 0.43638 0.29086 0.19769 0.0
H4944 H 0.49294 0.27925 0.2226 0.0
H4945 H 0.47466 0.28756 0.21381 0.0
H4946 H 0.4484 0.29731 0.24004 0.0
C4947 C 0.41126 0.30805 0.21582 0.0
C4948 C 0.43896 0.29252 0.2069 0.0
C4949 C 0.40103 0.31333 0.21079 0.0
C4950 C 0.48474 0.27836 0.22739 0.0
C4951 C 0.47426 0.2831 0.22235 0.0
C4952 C 0.4458 0.29581 0.23079 0.0
C4953 C 0.42143 0.30624 0.20896 0.0
C4954 C 0.43216 0.30007 0.21406 0.0
C4955 C 0.46353 0.28258 0.2285 0.0
C4956 C 0.45263 0.28843 0.22357 0.0
H4957 H 0.41091 0.31799 0.18275 0.0
H4958 H 0.42888 0.30927 0.19156 0.0
H4959 H 0.43089 0.30746 0.23184 0.0
H4960 H 0.47343 0.26773 0.25324 0.0
H4961 H 0.45522 0.27612 0.24446 0.0
C4962 C 0.70853 0.40411 0.20357 0.0
C4963 C 0.69604 0.40418 0.20247 0.0
C4964 C 0.7147 0.4136 0.20901 0.0
C4965 C 0.71179 0.44531 0.21748 0.0
H4966 H 0.73961 0.4384 0.23746 0.0
C4967 C 0.74034 0.48225 0.24125 0.0
C4968 C 0.75255 0.48132 0.23902 0.0
C4969 C 0.73254 0.47278 0.23835 0.0
C4970 C 0.73184 0.44047 0.23192 0.0
H4971 H 0.68025 0.4145 0.20598 0.0
H4972 H 0.69099 0.43093 0.2157 0.0
H4973 H 0.72775 0.42205 0.22897 0.0
H4974 H 0.76626 0.46964 0.23255 0.0
H4975 H 0.75278 0.45323 0.22768 0.0
H4976 H 0.71603 0.46376 0.22038 0.0
C4977 C 0.69603 0.42356 0.21228 0.0
C4978 C 0.72509 0.43111 0.22699 0.0
C4979 C 0.68987 0.41407 0.20681 0.0
C4980 C 0.75688 0.47066 0.23431 0.0
C4981 C 0.74917 0.4612 0.2316 0.0
C4982 C 0.71853 0.45469 0.22248 0.0
C4983 C 0.70852 0.4234 0.21353 0.0
C4984 C 0.71514 0.4334 0.21949 0.0
C4985 C 0.7369 0.4622 0.23341 0.0
C4986 C 0.72878 0.45236 0.22952 0.0
H4987 H 0.71357 0.39659 0.20043 0.0
H4988 H 0.72433 0.41327 0.20963 0.0
H4989 H 0.70423 0.4474 0.21169 0.0
H4990 H 0.73678 0.49039 0.24485 0.0
H4991 H 0.72312 0.47376 0.23988 0.0
C4992 C 0.61999 0.33447 0.80829 0.0
C4993 C 0.62954 0.32796 0.81332 0.0
C4994 C 0.6101 0.32858 0.80305 0.0
C4995 C 0.5945 0.29958 0.80383 0.0
H4996 H 0.57933 0.30933 0.77397 0.0
C4997 C 0.562 0.26848 0.77962 0.0
C4998 C 0.55101 0.27305 0.77559 0.0
C4999 C 0.57131 0.27607 0.78314 0.0
C5000 C 0.5834 0.3066 0.78237 0.0
H5001 H 0.63642 0.31018 0.81625 0.0
H5002 H 0.61926 0.29996 0.8072 0.0
H5003 H 0.59619 0.32095 0.78237 0.0
H5004 H 0.54136 0.28921 0.77138 0.0
H5005 H 0.55781 0.30267 0.77768 0.0
H5006 H 0.58188 0.28525 0.80389 0.0
C5007 C 0.61926 0.3096 0.80751 0.0
C5008 C 0.59304 0.31323 0.78719 0.0
C5009 C 0.6291 0.31546 0.81272 0.0
C5010 C 0.54975 0.28545 0.77445 0.0
C5011 C 0.55915 0.29313 0.77807 0.0
C5012 C 0.58493 0.29299 0.79905 0.0
C5013 C 0.60956 0.31606 0.80276 0.0
C5014 C 0.59884 0.30964 0.79786 0.0
C5015 C 0.56989 0.28847 0.78282 0.0
C5016 C 0.57942 0.29625 0.78815 0.0
H5017 H 0.61999 0.3441 0.80867 0.0
H5018 H 0.60275 0.33381 0.79953 0.0
H5019 H 0.59853 0.29674 0.81222 0.0
H5020 H 0.56333 0.25896 0.7804 0.0
H5021 H 0.57957 0.27219 0.78642 0.0
C5022 C 0.70276 0.61382 0.81362 0.0
C5023 C 0.69825 0.62308 0.80642 0.0
C5024 C 0.70747 0.60359 0.80852 0.0
C5025 C 0.72044 0.59224 0.78085 0.0
H5026 H 0.71542 0.56164 0.796 0.0
C5027 C 0.74248 0.54853 0.76445 0.0
C5028 C 0.74855 0.54245 0.77368 0.0
C5029 C 0.73454 0.55772 0.76711 0.0
C5030 C 0.71689 0.57012 0.79164 0.0
H5031 H 0.69526 0.62881 0.78814 0.0
H5032 H 0.70332 0.61084 0.77922 0.0
H5033 H 0.70519 0.57915 0.80327 0.0
H5034 H 0.75065 0.54077 0.79287 0.0
H5035 H 0.7368 0.55648 0.79745 0.0
H5036 H 0.73235 0.58316 0.76936 0.0
C5037 C 0.70328 0.61156 0.78884 0.0
C5038 C 0.71107 0.58017 0.79585 0.0
C5039 C 0.69855 0.62181 0.79396 0.0
C5040 C 0.74614 0.54532 0.78555 0.0
C5041 C 0.73812 0.55429 0.78819 0.0
C5042 C 0.72624 0.58214 0.7766 0.0
C5043 C 0.70778 0.6023 0.79606 0.0
C5044 C 0.71301 0.59142 0.79072 0.0
C5045 C 0.73237 0.56075 0.77903 0.0
C5046 C 0.72478 0.57103 0.78217 0.0
H5047 H 0.70256 0.61442 0.82324 0.0
H5048 H 0.71101 0.59674 0.81437 0.0
H5049 H 0.7222 0.60077 0.77672 0.0
H5050 H 0.74424 0.54654 0.75523 0.0
H5051 H 0.73019 0.56253 0.75987 0.0
C5052 C 0.40596 0.69972 0.80234 0.0
C5053 C 0.40581 0.69915 0.81486 0.0
C5054 C 0.41592 0.70432 0.79658 0.0
C5055 C 0.44127 0.72467 0.80247 0.0
H5056 H 0.45438 0.71163 0.77369 0.0
C5057 C 0.48527 0.74242 0.78601 0.0
C5058 C 0.48588 0.74545 0.77392 0.0
C5059 C 0.47597 0.73538 0.79008 0.0
C5060 C 0.45074 0.71542 0.78167 0.0
H5061 H 0.41631 0.70226 0.83108 0.0
H5062 H 0.4336 0.71023 0.82109 0.0
H5063 H 0.43708 0.70196 0.78262 0.0
H5064 H 0.47763 0.74289 0.75643 0.0
H5065 H 0.46108 0.73058 0.76362 0.0
H5066 H 0.45474 0.73813 0.8016 0.0
C5067 C 0.42593 0.7074 0.81571 0.0
C5068 C 0.44085 0.70989 0.78678 0.0
C5069 C 0.41601 0.70284 0.82144 0.0
C5070 C 0.47738 0.74064 0.7658 0.0
C5071 C 0.46792 0.73362 0.76992 0.0
C5072 C 0.45109 0.73016 0.7974 0.0
C5073 C 0.42592 0.70845 0.80323 0.0
C5074 C 0.43612 0.71437 0.79736 0.0
C5075 C 0.4669 0.7313 0.78219 0.0
C5076 C 0.45609 0.72551 0.78706 0.0
H5077 H 0.39822 0.697 0.79701 0.0
H5078 H 0.41561 0.70506 0.78696 0.0
H5079 H 0.43767 0.72857 0.81042 0.0
H5080 H 0.4918 0.74587 0.79245 0.0
H5081 H 0.47566 0.73347 0.79952 0.0
C5082 C 0.34028 0.3956 0.80292 0.0
C5083 C 0.34015 0.39531 0.81544 0.0
C5084 C 0.3358 0.40541 0.79663 0.0
C5085 C 0.31576 0.43115 0.79934 0.0
H5086 H 0.33296 0.44329 0.77236 0.0
C5087 C 0.29621 0.46704 0.76768 0.0
C5088 C 0.30397 0.47618 0.76409 0.0
C5089 C 0.30059 0.45711 0.77385 0.0
C5090 C 0.32809 0.44005 0.77991 0.0
H5091 H 0.33529 0.40521 0.83115 0.0
H5092 H 0.32743 0.4223 0.82017 0.0
H5093 H 0.34072 0.42624 0.78347 0.0
H5094 H 0.32245 0.48201 0.76428 0.0
H5095 H 0.33007 0.46468 0.77498 0.0
H5096 H 0.30322 0.44508 0.79589 0.0
C5097 C 0.33087 0.41486 0.81522 0.0
C5098 C 0.33247 0.4302 0.78621 0.0
C5099 C 0.33537 0.40506 0.82151 0.0
C5100 C 0.31623 0.47508 0.76674 0.0
C5101 C 0.3206 0.46514 0.77289 0.0
C5102 C 0.31136 0.44097 0.79302 0.0
C5103 C 0.33106 0.41517 0.8027 0.0
C5104 C 0.32637 0.42563 0.796 0.0
C5105 C 0.31283 0.45606 0.77656 0.0
C5106 C 0.31748 0.44555 0.78324 0.0
H5107 H 0.3437 0.38817 0.79795 0.0
H5108 H 0.3359 0.40528 0.78699 0.0
H5109 H 0.31079 0.42779 0.80677 0.0
H5110 H 0.28675 0.46747 0.76563 0.0
H5111 H 0.29439 0.45018 0.77638 0.0
C5112 C 0.71435 0.6172 0.17081 0.0
C5113 C 0.70973 0.62563 0.17868 0.0
C5114 C 0.72059 0.60731 0.17515 0.0
C5115 C 0.73739 0.59646 0.2017 0.0
H5116 H 0.73169 0.56528 0.1877 0.0
C5117 C 0.75546 0.55357 0.22357 0.0
C5118 C 0.75972 0.54454 0.21616 0.0
C5119 C 0.74967 0.56349 0.21873 0.0
C5120 C 0.73351 0.57395 0.19161 0.0
H5121 H 0.70815 0.63029 0.19731 0.0
H5122 H 0.7189 0.61297 0.2049 0.0
H5123 H 0.72092 0.58247 0.17981 0.0
H5124 H 0.76126 0.53896 0.19778 0.0
H5125 H 0.75134 0.55641 0.1893 0.0
H5126 H 0.74997 0.58798 0.21349 0.0
C5127 C 0.71777 0.61406 0.19535 0.0
C5128 C 0.72732 0.58381 0.18709 0.0
C5129 C 0.71149 0.62392 0.191 0.0
C5130 C 0.75816 0.54576 0.20375 0.0
C5131 C 0.75235 0.55571 0.19889 0.0
C5132 C 0.74359 0.58662 0.20619 0.0
C5133 C 0.72241 0.60564 0.18748 0.0
C5134 C 0.72914 0.59517 0.19213 0.0
C5135 C 0.74801 0.56469 0.20633 0.0
C5136 C 0.74168 0.57522 0.20126 0.0
H5137 H 0.71304 0.61819 0.16126 0.0
H5138 H 0.72413 0.60105 0.16885 0.0
H5139 H 0.73916 0.60512 0.20565 0.0
H5140 H 0.75665 0.55304 0.23315 0.0
H5141 H 0.74634 0.57015 0.22474 0.0
C5142 C 0.71209 0.41262 0.83692 0.0
C5143 C 0.70936 0.40286 0.82948 0.0
C5144 C 0.7178 0.42271 0.83246 0.0
C5145 C 0.7253 0.43813 0.80429 0.0
H5146 H 0.7491 0.45382 0.82463 0.0
C5147 C 0.74733 0.4826 0.79087 0.0
C5148 C 0.75949 0.48427 0.79375 0.0
C5149 C 0.74109 0.47281 0.7953 0.0
C5150 C 0.74257 0.44949 0.81877 0.0
H5151 H 0.71037 0.39603 0.8115 0.0
H5152 H 0.72057 0.41354 0.8037 0.0
H5153 H 0.73857 0.4364 0.83192 0.0
H5154 H 0.77465 0.47695 0.80348 0.0
H5155 H 0.76386 0.45974 0.81107 0.0
H5156 H 0.72963 0.45097 0.79098 0.0
C5157 C 0.7181 0.41353 0.81295 0.0
C5158 C 0.73638 0.43959 0.82302 0.0
C5159 C 0.71227 0.40348 0.81741 0.0
C5160 C 0.76526 0.47598 0.80123 0.0
C5161 C 0.75904 0.46612 0.80559 0.0
C5162 C 0.73156 0.448 0.8 0.0
C5163 C 0.72104 0.42324 0.82045 0.0
C5164 C 0.72763 0.43379 0.81586 0.0
C5165 C 0.74688 0.46438 0.80265 0.0
C5166 C 0.74026 0.45383 0.8072 0.0
H5167 H 0.70978 0.41247 0.84623 0.0
H5168 H 0.71965 0.4301 0.83843 0.0
H5169 H 0.71856 0.43399 0.79855 0.0
H5170 H 0.74259 0.48894 0.78527 0.0
H5171 H 0.73168 0.47193 0.79305 0.0
C5172 C 0.62635 0.70697 0.80758 0.0
C5173 C 0.62811 0.70564 0.81995 0.0
C5174 C 0.61622 0.71274 0.80293 0.0
C5175 C 0.58578 0.72224 0.8108 0.0
H5176 H 0.58942 0.74467 0.78487 0.0
C5177 C 0.54903 0.75573 0.79746 0.0
C5178 C 0.54668 0.75762 0.78524 0.0
C5179 C 0.55886 0.74905 0.80133 0.0
C5180 C 0.58822 0.73833 0.79202 0.0
H5181 H 0.62038 0.70898 0.83712 0.0
H5182 H 0.60292 0.71921 0.82907 0.0
H5183 H 0.6066 0.73338 0.79218 0.0
H5184 H 0.55304 0.75412 0.76753 0.0
H5185 H 0.57014 0.74237 0.77427 0.0
H5186 H 0.56743 0.72729 0.81073 0.0
C5187 C 0.60929 0.71574 0.82292 0.0
C5188 C 0.59807 0.73184 0.7962 0.0
C5189 C 0.6194 0.71 0.82755 0.0
C5190 C 0.5545 0.75274 0.77699 0.0
C5191 C 0.56437 0.74611 0.78087 0.0
C5192 C 0.57594 0.72875 0.80664 0.0
C5193 C 0.6076 0.71727 0.81055 0.0
C5194 C 0.597 0.72378 0.80571 0.0
C5195 C 0.56664 0.74412 0.79309 0.0
C5196 C 0.57705 0.73695 0.79726 0.0
H5197 H 0.63292 0.7038 0.80147 0.0
H5198 H 0.61514 0.71363 0.79336 0.0
H5199 H 0.58456 0.71596 0.81799 0.0
H5200 H 0.54315 0.75922 0.80407 0.0
H5201 H 0.56042 0.74782 0.81081 0.0
C5202 C 0.32425 0.62196 0.80111 0.0
C5203 C 0.32578 0.62376 0.81345 0.0
C5204 C 0.3185 0.61176 0.79669 0.0
C5205 C 0.29814 0.58703 0.80356 0.0
H5206 H 0.31445 0.57172 0.77777 0.0
C5207 C 0.28374 0.54173 0.78041 0.0
C5208 C 0.2849 0.54171 0.76797 0.0
C5209 C 0.28776 0.55159 0.78719 0.0
C5210 C 0.30973 0.57592 0.78491 0.0
H5211 H 0.322 0.61641 0.83082 0.0
H5212 H 0.31181 0.59852 0.82302 0.0
H5213 H 0.32327 0.58924 0.78727 0.0
H5214 H 0.29016 0.55229 0.75281 0.0
H5215 H 0.29685 0.56935 0.76446 0.0
H5216 H 0.28448 0.57365 0.80096 0.0
C5217 C 0.31511 0.60507 0.81682 0.0
C5218 C 0.31479 0.58596 0.79035 0.0
C5219 C 0.32094 0.61531 0.82127 0.0
C5220 C 0.28938 0.55193 0.7624 0.0
C5221 C 0.29327 0.56171 0.76908 0.0
C5222 C 0.29302 0.57691 0.79804 0.0
C5223 C 0.31408 0.60308 0.80447 0.0
C5224 C 0.30894 0.59182 0.79954 0.0
C5225 C 0.29292 0.56152 0.78157 0.0
C5226 C 0.29864 0.57145 0.78844 0.0
H5227 H 0.32757 0.62842 0.79483 0.0
H5228 H 0.31759 0.61061 0.78712 0.0
H5229 H 0.29346 0.59135 0.81065 0.0
H5230 H 0.2803 0.53395 0.78492 0.0
H5231 H 0.28734 0.55123 0.7968 0.0
C5232 C 0.41668 0.30835 0.84568 0.0
C5233 C 0.40762 0.31228 0.83776 0.0
C5234 C 0.42663 0.30244 0.84144 0.0
C5235 C 0.4368 0.28519 0.81569 0.0
H5236 H 0.46848 0.29322 0.82795 0.0
C5237 C 0.47909 0.26862 0.79317 0.0
C5238 C 0.48892 0.2653 0.80043 0.0
C5239 C 0.46919 0.27402 0.79807 0.0
C5240 C 0.45969 0.29074 0.82455 0.0
H5241 H 0.40188 0.31298 0.81918 0.0
H5242 H 0.41929 0.30279 0.81176 0.0
H5243 H 0.45121 0.3033 0.83586 0.0
H5244 H 0.49595 0.26508 0.81862 0.0
H5245 H 0.47854 0.27428 0.82721 0.0
H5246 H 0.44521 0.27262 0.80441 0.0
C5247 C 0.41866 0.30421 0.82127 0.0
C5248 C 0.44979 0.29654 0.82907 0.0
C5249 C 0.40875 0.31017 0.8255 0.0
C5250 C 0.48852 0.26743 0.81276 0.0
C5251 C 0.47859 0.27284 0.81767 0.0
C5252 C 0.44667 0.27936 0.8112 0.0
C5253 C 0.42772 0.30026 0.82918 0.0
C5254 C 0.43824 0.29389 0.82463 0.0
C5255 C 0.4688 0.27623 0.81038 0.0
C5256 C 0.45826 0.28213 0.8155 0.0
H5257 H 0.41612 0.30993 0.85517 0.0
H5258 H 0.43341 0.29944 0.84777 0.0
H5259 H 0.428 0.28279 0.81222 0.0
H5260 H 0.47897 0.26698 0.78367 0.0
H5261 H 0.46189 0.27663 0.79214 0.0
C5262 C 0.30997 0.3944 0.20174 0.0
C5263 C 0.32249 0.39367 0.2018 0.0
C5264 C 0.30436 0.40484 0.20541 0.0
C5265 C 0.30986 0.43718 0.20985 0.0
H5266 H 0.28356 0.43547 0.23148 0.0
C5267 C 0.29761 0.4762 0.23982 0.0
C5268 C 0.28565 0.47836 0.24243 0.0
C5269 C 0.30073 0.46636 0.23304 0.0
C5270 C 0.29074 0.43612 0.22525 0.0
H5271 H 0.33887 0.40348 0.20561 0.0
H5272 H 0.32913 0.42156 0.21211 0.0
H5273 H 0.29173 0.41713 0.22337 0.0
H5274 H 0.26751 0.47204 0.23965 0.0
H5275 H 0.273 0.45466 0.22769 0.0
H5276 H 0.30906 0.45611 0.21189 0.0
C5277 C 0.32363 0.41409 0.20916 0.0
C5278 C 0.29545 0.4256 0.22063 0.0
C5279 C 0.32923 0.40366 0.20557 0.0
C5280 C 0.27679 0.47064 0.23772 0.0
C5281 C 0.27995 0.46064 0.23097 0.0
C5282 C 0.30515 0.44767 0.21443 0.0
C5283 C 0.31112 0.41484 0.20912 0.0
C5284 C 0.30527 0.426 0.21311 0.0
C5285 C 0.292 0.45832 0.22869 0.0
C5286 C 0.29573 0.44727 0.22244 0.0
H5287 H 0.30451 0.38684 0.19898 0.0
H5288 H 0.29471 0.40512 0.20523 0.0
H5289 H 0.31723 0.43784 0.20385 0.0
H5290 H 0.30466 0.48197 0.2433 0.0
H5291 H 0.3101 0.46481 0.23162 0.0
C5292 C 0.61005 0.33538 0.20053 0.0
C5293 C 0.61869 0.32728 0.19683 0.0
C5294 C 0.6004 0.33149 0.20714 0.0
C5295 C 0.58343 0.30437 0.21542 0.0
H5296 H 0.57349 0.32392 0.2418 0.0
C5297 C 0.55122 0.28681 0.2504 0.0
C5298 C 0.54187 0.29432 0.25361 0.0
C5299 C 0.56054 0.2911 0.2436 0.0
C5300 C 0.57609 0.31843 0.23439 0.0
H5301 H 0.62394 0.30875 0.19709 0.0
H5302 H 0.60716 0.30195 0.20871 0.0
H5303 H 0.58967 0.33077 0.22938 0.0
H5304 H 0.53522 0.31238 0.25242 0.0
H5305 H 0.55162 0.31992 0.24063 0.0
H5306 H 0.56993 0.29197 0.22054 0.0
C5307 C 0.60772 0.31129 0.20635 0.0
C5308 C 0.58534 0.32235 0.22725 0.0
C5309 C 0.61735 0.31517 0.19969 0.0
C5310 C 0.5423 0.30637 0.25019 0.0
C5311 C 0.55169 0.31068 0.24341 0.0
C5312 C 0.57422 0.30043 0.22259 0.0
C5313 C 0.59917 0.31942 0.21024 0.0
C5314 C 0.58916 0.31535 0.21769 0.0
C5315 C 0.56081 0.30304 0.23989 0.0
C5316 C 0.57048 0.30738 0.23219 0.0
H5317 H 0.61076 0.34474 0.19831 0.0
H5318 H 0.59387 0.33795 0.20978 0.0
H5319 H 0.58598 0.29885 0.20802 0.0
H5320 H 0.55134 0.27756 0.25311 0.0
H5321 H 0.56758 0.28505 0.24125 0.0
C5322 C 0.398 0.70469 0.20162 0.0
C5323 C 0.39693 0.70196 0.18942 0.0
C5324 C 0.40749 0.71165 0.20603 0.0
C5325 C 0.43823 0.72058 0.19989 0.0
H5326 H 0.43305 0.74286 0.2256 0.0
C5327 C 0.47727 0.74359 0.22671 0.0
C5328 C 0.47628 0.74176 0.23902 0.0
C5329 C 0.46748 0.74125 0.21894 0.0
C5330 C 0.43465 0.73672 0.21838 0.0
H5331 H 0.40498 0.70448 0.17227 0.0
H5332 H 0.42166 0.71669 0.18003 0.0
H5333 H 0.416 0.73374 0.21511 0.0
H5334 H 0.46421 0.73674 0.25294 0.0
H5335 H 0.44727 0.73292 0.23958 0.0
H5336 H 0.45693 0.72328 0.20351 0.0
C5337 C 0.41512 0.71339 0.18616 0.0
C5338 C 0.42488 0.73146 0.2124 0.0
C5339 C 0.40554 0.70648 0.18171 0.0
C5340 C 0.46525 0.73818 0.24347 0.0
C5341 C 0.4555 0.73607 0.23581 0.0
C5342 C 0.44803 0.72587 0.20589 0.0
C5343 C 0.41621 0.71605 0.19838 0.0
C5344 C 0.42655 0.723 0.20337 0.0
C5345 C 0.45653 0.73734 0.22344 0.0
C5346 C 0.44634 0.73368 0.21548 0.0
H5347 H 0.39145 0.70148 0.20778 0.0
H5348 H 0.40813 0.71337 0.21552 0.0
H5349 H 0.43982 0.71408 0.193 0.0
H5350 H 0.48571 0.74628 0.22306 0.0
H5351 H 0.46851 0.74233 0.20944 0.0
loop_
_geom_bond_atom_site_label_1
_geom_bond_atom_site_label_2
_geom_bond_distance
_geom_bond_site_symmetry_2
_ccdc_geom_bond_type
C0 C1 1.391 . S
C0 C4 1.391 . S
C0 H42 0.948 . S
C1 C0 1.391 . S
C1 C2 1.391 . S
C2 C1 1.391 . S
C2 H58 0.947 . S
C2 C59 1.392 . S
C3 C4 1.391 . S
C3 C7 1.397 . S
C3 C59 1.419 . S
C4 C0 1.391 . S
C4 C3 1.391 . S
C4 C5 1.399 . S
C5 C4 1.399 . S
C5 C8 1.396 . S
C5 C17 1.453 . S
C5 C18 1.684 . S
H6 C30 0.948 . S
C7 C3 1.397 . S
C7 C8 1.394 . S
C7 C26 1.723 . S
C8 C5 1.396 . S
C8 C7 1.394 . S
C8 C38 1.723 . S
H9 C32 0.947 . S
H10 C33 0.948 . S
H11 C39 0.982 . S
H12 C40 0.979 . S
H13 C40 0.980 . S
H14 C40 0.983 . S
H15 C39 0.979 . S
H16 C39 0.977 . S
C17 C5 1.453 . S
C17 H46 0.982 . S
C17 H47 0.979 . S
C17 H48 0.977 . S
C18 C5 1.684 . S
C18 H43 0.979 . S
C18 H44 0.980 . S
C18 H45 0.983 . S
C19 C20 1.391 . S
C19 C24 1.391 . S
C19 H49 0.948 . S
C20 C19 1.391 . S
C20 C21 1.391 . S
C21 C20 1.391 . S
C21 C22 1.392 . S
C21 H50 0.947 . S
C22 C21 1.392 . S
C22 C23 1.419 . S
C22 H51 0.948 . S
C23 C22 1.419 . S
C23 C24 1.391 . S
C23 C27 1.397 . S
C24 C19 1.391 . S
C24 C23 1.391 . S
C24 C25 1.399 . S
C25 C24 1.399 . S
C25 C26 1.396 . S
C25 C28 1.453 . S
C25 C29 1.684 . S
C26 C7 1.723 . S
C26 C25 1.396 . S
C26 C27 1.394 . S
C27 C23 1.397 . S
C27 C26 1.394 . S
C27 C37 1.723 . S
C28 C25 1.453 . S
C28 H52 0.982 . S
C28 H53 0.979 . S
C28 H54 0.977 . S
C29 C25 1.684 . S
C29 H55 0.979 . S
C29 H56 0.980 . S
C29 H57 0.983 . S
C30 H6 0.948 . S
C30 C31 1.391 . S
C30 C35 1.391 . S
C31 C30 1.391 . S
C31 C32 1.391 . S
C32 H9 0.947 . S
C32 C31 1.391 . S
C32 C33 1.392 . S
C33 H10 0.948 . S
C33 C32 1.392 . S
C33 C34 1.419 . S
C34 C33 1.419 . S
C34 C35 1.391 . S
C34 C38 1.397 . S
C35 C30 1.391 . S
C35 C34 1.391 . S
C35 C36 1.399 . S
C36 C35 1.399 . S
C36 C37 1.396 . S
C36 C39 1.453 . S
C36 C40 1.684 . S
C37 C27 1.723 . S
C37 C36 1.396 . S
C37 C38 1.394 . S
C38 C8 1.723 . S
C38 C34 1.397 . S
C38 C37 1.394 . S
C39 H11 0.982 . S
C39 H15 0.979 . S
C39 H16 0.977 . S
C39 C36 1.453 . S
C40 H12 0.979 . S
C40 H13 0.980 . S
C40 H14 0.983 . S
C40 C36 1.684 . S
H41 C59 0.948 . S
H42 C0 0.948 . S
H43 C18 0.979 . S
H44 C18 0.980 . S
H45 C18 0.983 . S
H46 C17 0.982 . S
H47 C17 0.979 . S
H48 C17 0.977 . S
H49 C19 0.948 . S
H50 C21 0.947 . S
H51 C22 0.948 . S
H52 C28 0.982 . S
H53 C28 0.979 . S
H54 C28 0.977 . S
H55 C29 0.979 . S
H56 C29 0.980 . S
H57 C29 0.983 . S
H58 C2 0.947 . S
C59 C2 1.392 . S
C59 C3 1.419 . S
C59 H41 0.948 . S
C60 C61 1.391 . S
C60 C64 1.391 . S
C60 H102 0.948 . S
C61 C60 1.391 . S
C61 C62 1.391 . S
C62 C61 1.391 . S
C62 H118 0.947 . S
C62 C119 1.392 . S
C63 C64 1.391 . S
C63 C67 1.397 . S
C63 C119 1.419 . S
C64 C60 1.391 . S
C64 C63 1.391 . S
C64 C65 1.399 . S
C65 C64 1.399 . S
C65 C68 1.396 . S
C65 C77 1.453 . S
C65 C78 1.684 . S
H66 C90 0.948 . S
C67 C63 1.397 . S
C67 C68 1.394 . S
C67 C86 1.723 . S
C68 C65 1.396 . S
C68 C67 1.394 . S
C68 C98 1.723 . S
H69 C92 0.947 . S
H70 C93 0.948 . S
H71 C99 0.982 . S
H72 C100 0.979 . S
H73 C100 0.980 . S
H74 C100 0.983 . S
H75 C99 0.979 . S
H76 C99 0.977 . S
C77 C65 1.453 . S
C77 H106 0.982 . S
C77 H107 0.979 . S
C77 H108 0.977 . S
C78 C65 1.684 . S
C78 H103 0.979 . S
C78 H104 0.980 . S
C78 H105 0.983 . S
C79 C80 1.391 . S
C79 C84 1.391 . S
C79 H109 0.948 . S
C80 C79 1.391 . S
C80 C81 1.391 . S
C81 C80 1.391 . S
C81 C82 1.392 . S
C81 H110 0.947 . S
C82 C81 1.392 . S
C82 C83 1.419 . S
C82 H111 0.948 . S
C83 C82 1.419 . S
C83 C84 1.391 . S
C83 C87 1.397 . S
C84 C79 1.391 . S
C84 C83 1.391 . S
C84 C85 1.399 . S
C85 C84 1.399 . S
C85 C86 1.396 . S
C85 C88 1.453 . S
C85 C89 1.684 . S
C86 C67 1.723 . S
C86 C85 1.396 . S
C86 C87 1.394 . S
C87 C83 1.397 . S
C87 C86 1.394 . S
C87 C97 1.723 . S
C88 C85 1.453 . S
C88 H112 0.982 . S
C88 H113 0.979 . S
C88 H114 0.977 . S
C89 C85 1.684 . S
C89 H115 0.979 . S
C89 H116 0.980 . S
C89 H117 0.983 . S
C90 H66 0.948 . S
C90 C91 1.391 . S
C90 C95 1.391 . S
C91 C90 1.391 . S
C91 C92 1.391 . S
C92 H69 0.947 . S
C92 C91 1.391 . S
C92 C93 1.392 . S
C93 H70 0.948 . S
C93 C92 1.392 . S
C93 C94 1.419 . S
C94 C93 1.419 . S
C94 C95 1.391 . S
C94 C98 1.397 . S
C95 C90 1.391 . S
C95 C94 1.391 . S
C95 C96 1.399 . S
C96 C95 1.399 . S
C96 C97 1.396 . S
C96 C99 1.453 . S
C96 C100 1.684 . S
C97 C87 1.723 . S
C97 C96 1.396 . S
C97 C98 1.394 . S
C98 C68 1.723 . S
C98 C94 1.397 . S
C98 C97 1.394 . S
C99 H71 0.982 . S
C99 H75 0.979 . S
C99 H76 0.977 . S
C99 C96 1.453 . S
C100 H72 0.979 . S
C100 H73 0.980 . S
C100 H74 0.983 . S
C100 C96 1.684 . S
H101 C119 0.948 . S
H102 C60 0.948 . S
H103 C78 0.979 . S
H104 C78 0.980 . S
H105 C78 0.983 . S
H106 C77 0.982 . S
H107 C77 0.979 . S
H108 C77 0.977 . S
H109 C79 0.948 . S
H110 C81 0.947 . S
H111 C82 0.948 . S
H112 C88 0.982 . S
H113 C88 0.979 . S
H114 C88 0.977 . S
H115 C89 0.979 . S
H116 C89 0.980 . S
H117 C89 0.983 . S
H118 C62 0.947 . S
C119 C62 1.392 . S
C119 C63 1.419 . S
C119 H101 0.948 . S
C120 C121 1.391 . S
C120 C124 1.391 . S
C120 H162 0.948 . S
C121 C120 1.391 . S
C121 C122 1.391 . S
C122 C121 1.391 . S
C122 H178 0.947 . S
C122 C179 1.392 . S
C123 C124 1.391 . S
C123 C127 1.397 . S
C123 C179 1.419 . S
C124 C120 1.391 . S
C124 C123 1.391 . S
C124 C125 1.399 . S
C125 C124 1.399 . S
C125 C128 1.396 . S
C125 C137 1.453 . S
C125 C138 1.684 . S
H126 C150 0.948 . S
C127 C123 1.397 . S
C127 C128 1.394 . S
C127 C146 1.723 . S
C128 C125 1.396 . S
C128 C127 1.394 . S
C128 C158 1.723 . S
H129 C152 0.947 . S
H130 C153 0.948 . S
H131 C159 0.982 . S
H132 C160 0.979 . S
H133 C160 0.980 . S
H134 C160 0.983 . S
H135 C159 0.979 . S
H136 C159 0.977 . S
C137 C125 1.453 . S
C137 H166 0.982 . S
C137 H167 0.979 . S
C137 H168 0.977 . S
C138 C125 1.684 . S
C138 H163 0.979 . S
C138 H164 0.980 . S
C138 H165 0.983 . S
C139 C140 1.391 . S
C139 C144 1.391 . S
C139 H169 0.948 . S
C140 C139 1.391 . S
C140 C141 1.391 . S
C141 C140 1.391 . S
C141 C142 1.392 . S
C141 H170 0.947 . S
C142 C141 1.392 . S
C142 C143 1.419 . S
C142 H171 0.948 . S
C143 C142 1.419 . S
C143 C144 1.391 . S
C143 C147 1.397 . S
C144 C139 1.391 . S
C144 C143 1.391 . S
C144 C145 1.399 . S
C145 C144 1.399 . S
C145 C146 1.396 . S
C145 C148 1.453 . S
C145 C149 1.684 . S
C146 C127 1.723 . S
C146 C145 1.396 . S
C146 C147 1.394 . S
C147 C143 1.397 . S
C147 C146 1.394 . S
C147 C157 1.723 . S
C148 C145 1.453 . S
C148 H172 0.982 . S
C148 H173 0.979 . S
C148 H174 0.977 . S
C149 C145 1.684 . S
C149 H175 0.979 . S
C149 H176 0.980 . S
C149 H177 0.983 . S
C150 H126 0.948 . S
C150 C151 1.391 . S
C150 C155 1.391 . S
C151 C150 1.391 . S
C151 C152 1.391 . S
C152 H129 0.947 . S
C152 C151 1.391 . S
C152 C153 1.392 . S
C153 H130 0.948 . S
C153 C152 1.392 . S
C153 C154 1.419 . S
C154 C153 1.419 . S
C154 C155 1.391 . S
C154 C158 1.397 . S
C155 C150 1.391 . S
C155 C154 1.391 . S
C155 C156 1.399 . S
C156 C155 1.399 . S
C156 C157 1.396 . S
C156 C159 1.453 . S
C156 C160 1.684 . S
C157 C147 1.723 . S
C157 C156 1.396 . S
C157 C158 1.394 . S
C158 C128 1.723 . S
C158 C154 1.397 . S
C158 C157 1.394 . S
C159 H131 0.982 . S
C159 H135 0.979 . S
C159 H136 0.977 . S
C159 C156 1.453 . S
C160 H132 0.979 . S
C160 H133 0.980 . S
C160 H134 0.983 . S
C160 C156 1.684 . S
H161 C179 0.948 . S
H162 C120 0.948 . S
H163 C138 0.979 . S
H164 C138 0.980 . S
H165 C138 0.983 . S
H166 C137 0.982 . S
H167 C137 0.979 . S
H168 C137 0.977 . S
H169 C139 0.948 . S
H170 C141 0.947 . S
H171 C142 0.948 . S
H172 C148 0.982 . S
H173 C148 0.979 . S
H174 C148 0.977 . S
H175 C149 0.979 . S
H176 C149 0.980 . S
H177 C149 0.983 . S
H178 C122 0.947 . S
C179 C122 1.392 . S
C179 C123 1.419 . S
C179 H161 0.948 . S
C180 C181 1.391 . S
C180 C184 1.391 . S
C180 H222 0.948 . S
C181 C180 1.391 . S
C181 C182 1.391 . S
C182 C181 1.391 . S
C182 H238 0.947 . S
C182 C239 1.392 . S
C183 C184 1.391 . S
C183 C187 1.397 . S
C183 C239 1.419 . S
C184 C180 1.391 . S
C184 C183 1.391 . S
C184 C185 1.399 . S
C185 C184 1.399 . S
C185 C188 1.396 . S
C185 C197 1.453 . S
C185 C198 1.684 . S
H186 C210 0.948 . S
C187 C183 1.397 . S
C187 C188 1.394 . S
C187 C206 1.723 . S
C188 C185 1.396 . S
C188 C187 1.394 . S
C188 C218 1.723 . S
H189 C212 0.947 . S
H190 C213 0.948 . S
H191 C219 0.982 . S
H192 C220 0.979 . S
H193 C220 0.980 . S
H194 C220 0.983 . S
H195 C219 0.979 . S
H196 C219 0.977 . S
C197 C185 1.453 . S
C197 H226 0.982 . S
C197 H227 0.979 . S
C197 H228 0.977 . S
C198 C185 1.684 . S
C198 H223 0.979 . S
C198 H224 0.980 . S
C198 H225 0.983 . S
C199 C200 1.391 . S
C199 C204 1.391 . S
C199 H229 0.948 . S
C200 C199 1.391 . S
C200 C201 1.391 . S
C201 C200 1.391 . S
C201 C202 1.392 . S
C201 H230 0.947 . S
C202 C201 1.392 . S
C202 C203 1.419 . S
C202 H231 0.948 . S
C203 C202 1.419 . S
C203 C204 1.391 . S
C203 C207 1.397 . S
C204 C199 1.391 . S
C204 C203 1.391 . S
C204 C205 1.399 . S
C205 C204 1.399 . S
C205 C206 1.396 . S
C205 C208 1.453 . S
C205 C209 1.684 . S
C206 C187 1.723 . S
C206 C205 1.396 . S
C206 C207 1.394 . S
C207 C203 1.397 . S
C207 C206 1.394 . S
C207 C217 1.723 . S
C208 C205 1.453 . S
C208 H232 0.982 . S
C208 H233 0.979 . S
C208 H234 0.977 . S
C209 C205 1.684 . S
C209 H235 0.979 . S
C209 H236 0.980 . S
C209 H237 0.983 . S
C210 H186 0.948 . S
C210 C211 1.391 . S
C210 C215 1.391 . S
C211 C210 1.391 . S
C211 C212 1.391 . S
C212 H189 0.947 . S
C212 C211 1.391 . S
C212 C213 1.392 . S
C213 H190 0.948 . S
C213 C212 1.392 . S
C213 C214 1.419 . S
C214 C213 1.419 . S
C214 C215 1.391 . S
C214 C218 1.397 . S
C215 C210 1.391 . S
C215 C214 1.391 . S
C215 C216 1.399 . S
C216 C215 1.399 . S
C216 C217 1.396 . S
C216 C219 1.453 . S
C216 C220 1.684 . S
C217 C207 1.723 . S
C217 C216 1.396 . S
C217 C218 1.394 . S
C218 C188 1.723 . S
C218 C214 1.397 . S
C218 C217 1.394 . S
C219 H191 0.982 . S
C219 H195 0.979 . S
C219 H196 0.977 . S
C219 C216 1.453 . S
C220 H192 0.979 . S
C220 H193 0.980 . S
C220 H194 0.983 . S
C220 C216 1.684 . S
H221 C239 0.948 . S
H222 C180 0.948 . S
H223 C198 0.979 . S
H224 C198 0.980 . S
H225 C198 0.983 . S
H226 C197 0.982 . S
H227 C197 0.979 . S
H228 C197 0.977 . S
H229 C199 0.948 . S
H230 C201 0.947 . S
H231 C202 0.948 . S
H232 C208 0.982 . S
H233 C208 0.979 . S
H234 C208 0.977 . S
H235 C209 0.979 . S
H236 C209 0.980 . S
H237 C209 0.983 . S
H238 C182 0.947 . S
C239 C182 1.392 . S
C239 C183 1.419 . S
C239 H221 0.948 . S
C240 C241 1.391 . S
C240 C244 1.391 . S
C240 H282 0.948 . S
C241 C240 1.391 . S
C241 C242 1.391 . S
C242 C241 1.391 . S
C242 H298 0.947 . S
C242 C299 1.392 . S
C243 C244 1.391 . S
C243 C247 1.397 . S
C243 C299 1.419 . S
C244 C240 1.391 . S
C244 C243 1.391 . S
C244 C245 1.399 . S
C245 C244 1.399 . S
C245 C248 1.396 . S
C245 C257 1.453 . S
C245 C258 1.684 . S
H246 C270 0.948 . S
C247 C243 1.397 . S
C247 C248 1.394 . S
C247 C266 1.723 . S
C248 C245 1.396 . S
C248 C247 1.394 . S
C248 C278 1.723 . S
H249 C272 0.947 . S
H250 C273 0.948 . S
H251 C279 0.982 . S
H252 C280 0.979 . S
H253 C280 0.980 . S
H254 C280 0.983 . S
H255 C279 0.979 . S
H256 C279 0.977 . S
C257 C245 1.453 . S
C257 H286 0.982 . S
C257 H287 0.979 . S
C257 H288 0.977 . S
C258 C245 1.684 . S
C258 H283 0.979 . S
C258 H284 0.980 . S
C258 H285 0.983 . S
C259 C260 1.391 . S
C259 C264 1.391 . S
C259 H289 0.948 . S
C260 C259 1.391 . S
C260 C261 1.391 . S
C261 C260 1.391 . S
C261 C262 1.392 . S
C261 H290 0.947 . S
C262 C261 1.392 . S
C262 C263 1.419 . S
C262 H291 0.948 . S
C263 C262 1.419 . S
C263 C264 1.391 . S
C263 C267 1.397 . S
C264 C259 1.391 . S
C264 C263 1.391 . S
C264 C265 1.399 . S
C265 C264 1.399 . S
C265 C266 1.396 . S
C265 C268 1.453 . S
C265 C269 1.684 . S
C266 C247 1.723 . S
C266 C265 1.396 . S
C266 C267 1.394 . S
C267 C263 1.397 . S
C267 C266 1.394 . S
C267 C277 1.723 . S
C268 C265 1.453 . S
C268 H292 0.982 . S
C268 H293 0.979 . S
C268 H294 0.977 . S
C269 C265 1.684 . S
C269 H295 0.979 . S
C269 H296 0.980 . S
C269 H297 0.983 . S
C270 H246 0.948 . S
C270 C271 1.391 . S
C270 C275 1.391 . S
C271 C270 1.391 . S
C271 C272 1.391 . S
C272 H249 0.947 . S
C272 C271 1.391 . S
C272 C273 1.392 . S
C273 H250 0.948 . S
C273 C272 1.392 . S
C273 C274 1.419 . S
C274 C273 1.419 . S
C274 C275 1.391 . S
C274 C278 1.397 . S
C275 C270 1.391 . S
C275 C274 1.391 . S
C275 C276 1.399 . S
C276 C275 1.399 . S
C276 C277 1.396 . S
C276 C279 1.453 . S
C276 C280 1.684 . S
C277 C267 1.723 . S
C277 C276 1.396 . S
C277 C278 1.394 . S
C278 C248 1.723 . S
C278 C274 1.397 . S
C278 C277 1.394 . S
C279 H251 0.982 . S
C279 H255 0.979 . S
C279 H256 0.977 . S
C279 C276 1.453 . S
C280 H252 0.979 . S
C280 H253 0.980 . S
C280 H254 0.983 . S
C280 C276 1.684 . S
H281 C299 0.948 . S
H282 C240 0.948 . S
H283 C258 0.979 . S
H284 C258 0.980 . S
H285 C258 0.983 . S
H286 C257 0.982 . S
H287 C257 0.979 . S
H288 C257 0.977 . S
H289 C259 0.948 . S
H290 C261 0.947 . S
H291 C262 0.948 . S
H292 C268 0.982 . S
H293 C268 0.979 . S
H294 C268 0.977 . S
H295 C269 0.979 . S
H296 C269 0.980 . S
H297 C269 0.983 . S
H298 C242 0.947 . S
C299 C242 1.392 . S
C299 C243 1.419 . S
C299 H281 0.948 . S
C300 C301 1.391 . S
C300 C304 1.391 . S
C300 H342 0.948 . S
C301 C300 1.391 . S
C301 C302 1.391 . S
C302 C301 1.391 . S
C302 H358 0.947 . S
C302 C359 1.392 . S
C303 C304 1.391 . S
C303 C307 1.397 . S
C303 C359 1.419 . S
C304 C300 1.391 . S
C304 C303 1.391 . S
C304 C305 1.399 . S
C305 C304 1.399 . S
C305 C308 1.396 . S
C305 C317 1.453 . S
C305 C318 1.684 . S
H306 C330 0.948 . S
C307 C303 1.397 . S
C307 C308 1.394 . S
C307 C326 1.723 . S
C308 C305 1.396 . S
C308 C307 1.394 . S
C308 C338 1.723 . S
H309 C332 0.947 . S
H310 C333 0.948 . S
H311 C339 0.982 . S
H312 C340 0.979 . S
H313 C340 0.980 . S
H314 C340 0.983 . S
H315 C339 0.979 . S
H316 C339 0.977 . S
C317 C305 1.453 . S
C317 H346 0.982 . S
C317 H347 0.979 . S
C317 H348 0.977 . S
C318 C305 1.684 . S
C318 H343 0.979 . S
C318 H344 0.980 . S
C318 H345 0.983 . S
C319 C320 1.391 . S
C319 C324 1.391 . S
C319 H349 0.948 . S
C320 C319 1.391 . S
C320 C321 1.391 . S
C321 C320 1.391 . S
C321 C322 1.392 . S
C321 H350 0.947 . S
C322 C321 1.392 . S
C322 C323 1.419 . S
C322 H351 0.948 . S
C323 C322 1.419 . S
C323 C324 1.391 . S
C323 C327 1.397 . S
C324 C319 1.391 . S
C324 C323 1.391 . S
C324 C325 1.399 . S
C325 C324 1.399 . S
C325 C326 1.396 . S
C325 C328 1.453 . S
C325 C329 1.684 . S
C326 C307 1.723 . S
C326 C325 1.396 . S
C326 C327 1.394 . S
C327 C323 1.397 . S
C327 C326 1.394 . S
C327 C337 1.723 . S
C328 C325 1.453 . S
C328 H352 0.982 . S
C328 H353 0.979 . S
C328 H354 0.977 . S
C329 C325 1.684 . S
C329 H355 0.979 . S
C329 H356 0.980 . S
C329 H357 0.983 . S
C330 H306 0.948 . S
C330 C331 1.391 . S
C330 C335 1.391 . S
C331 C330 1.391 . S
C331 C332 1.391 . S
C332 H309 0.947 . S
C332 C331 1.391 . S
C332 C333 1.392 . S
C333 H310 0.948 . S
C333 C332 1.392 . S
C333 C334 1.419 . S
C334 C333 1.419 . S
C334 C335 1.391 . S
C334 C338 1.397 . S
C335 C330 1.391 . S
C335 C334 1.391 . S
C335 C336 1.399 . S
C336 C335 1.399 . S
C336 C337 1.396 . S
C336 C339 1.453 . S
C336 C340 1.684 . S
C337 C327 1.723 . S
C337 C336 1.396 . S
C337 C338 1.394 . S
C338 C308 1.723 . S
C338 C334 1.397 . S
C338 C337 1.394 . S
C339 H311 0.982 . S
C339 H315 0.979 . S
C339 H316 0.977 . S
C339 C336 1.453 . S
C340 H312 0.979 . S
C340 H313 0.980 . S
C340 H314 0.983 . S
C340 C336 1.684 . S
H341 C359 0.948 . S
H342 C300 0.948 . S
H343 C318 0.979 . S
H344 C318 0.980 . S
H345 C318 0.983 . S
H346 C317 0.982 . S
H347 C317 0.979 . S
H348 C317 0.977 . S
H349 C319 0.948 . S
H350 C321 0.947 . S
H351 C322 0.948 . S
H352 C328 0.982 . S
H353 C328 0.979 . S
H354 C328 0.977 . S
H355 C329 0.979 . S
H356 C329 0.980 . S
H357 C329 0.983 . S
H358 C302 0.947 . S
C359 C302 1.392 . S
C359 C303 1.419 . S
C359 H341 0.948 . S
C360 C361 1.391 . S
C360 C364 1.391 . S
C360 H402 0.948 . S
C361 C360 1.391 . S
C361 C362 1.391 . S
C362 C361 1.391 . S
C362 H418 0.947 . S
C362 C419 1.392 . S
C363 C364 1.391 . S
C363 C367 1.397 . S
C363 C419 1.419 . S
C364 C360 1.391 . S
C364 C363 1.391 . S
C364 C365 1.399 . S
C365 C364 1.399 . S
C365 C368 1.396 . S
C365 C377 1.453 . S
C365 C378 1.684 . S
H366 C390 0.948 . S
C367 C363 1.397 . S
C367 C368 1.394 . S
C367 C386 1.723 . S
C368 C365 1.396 . S
C368 C367 1.394 . S
C368 C398 1.723 . S
H369 C392 0.947 . S
H370 C393 0.948 . S
H371 C399 0.982 . S
H372 C400 0.979 . S
H373 C400 0.980 . S
H374 C400 0.983 . S
H375 C399 0.979 . S
H376 C399 0.977 . S
C377 C365 1.453 . S
C377 H406 0.982 . S
C377 H407 0.979 . S
C377 H408 0.977 . S
C378 C365 1.684 . S
C378 H403 0.979 . S
C378 H404 0.980 . S
C378 H405 0.983 . S
C379 C380 1.391 . S
C379 C384 1.391 . S
C379 H409 0.948 . S
C380 C379 1.391 . S
C380 C381 1.391 . S
C381 C380 1.391 . S
C381 C382 1.392 . S
C381 H410 0.947 . S
C382 C381 1.392 . S
C382 C383 1.419 . S
C382 H411 0.948 . S
C383 C382 1.419 . S
C383 C384 1.391 . S
C383 C387 1.397 . S
C384 C379 1.391 . S
C384 C383 1.391 . S
C384 C385 1.399 . S
C385 C384 1.399 . S
C385 C386 1.396 . S
C385 C388 1.453 . S
C385 C389 1.684 . S
C386 C367 1.723 . S
C386 C385 1.396 . S
C386 C387 1.394 . S
C387 C383 1.397 . S
C387 C386 1.394 . S
C387 C397 1.723 . S
C388 C385 1.453 . S
C388 H412 0.982 . S
C388 H413 0.979 . S
C388 H414 0.977 . S
C389 C385 1.684 . S
C389 H415 0.979 . S
C389 H416 0.980 . S
C389 H417 0.983 . S
C390 H366 0.948 . S
C390 C391 1.391 . S
C390 C395 1.391 . S
C391 C390 1.391 . S
C391 C392 1.391 . S
C392 H369 0.947 . S
C392 C391 1.391 . S
C392 C393 1.392 . S
C393 H370 0.948 . S
C393 C392 1.392 . S
C393 C394 1.419 . S
C394 C393 1.419 . S
C394 C395 1.391 . S
C394 C398 1.397 . S
C395 C390 1.391 . S
C395 C394 1.391 . S
C395 C396 1.399 . S
C396 C395 1.399 . S
C396 C397 1.396 . S
C396 C399 1.453 . S
C396 C400 1.684 . S
C397 C387 1.723 . S
C397 C396 1.396 . S
C397 C398 1.394 . S
C398 C368 1.723 . S
C398 C394 1.397 . S
C398 C397 1.394 . S
C399 H371 0.982 . S
C399 H375 0.979 . S
C399 H376 0.977 . S
C399 C396 1.453 . S
C400 H372 0.979 . S
C400 H373 0.980 . S
C400 H374 0.983 . S
C400 C396 1.684 . S
H401 C419 0.948 . S
H402 C360 0.948 . S
H403 C378 0.979 . S
H404 C378 0.980 . S
H405 C378 0.983 . S
H406 C377 0.982 . S
H407 C377 0.979 . S
H408 C377 0.977 . S
H409 C379 0.948 . S
H410 C381 0.947 . S
H411 C382 0.948 . S
H412 C388 0.982 . S
H413 C388 0.979 . S
H414 C388 0.977 . S
H415 C389 0.979 . S
H416 C389 0.980 . S
H417 C389 0.983 . S
H418 C362 0.947 . S
C419 C362 1.392 . S
C419 C363 1.419 . S
C419 H401 0.948 . S
C420 C421 1.391 . S
C420 C424 1.391 . S
C420 H462 0.948 . S
C421 C420 1.391 . S
C421 C422 1.391 . S
C422 C421 1.391 . S
C422 H478 0.947 . S
C422 C479 1.392 . S
C423 C424 1.391 . S
C423 C427 1.397 . S
C423 C479 1.419 . S
C424 C420 1.391 . S
C424 C423 1.391 . S
C424 C425 1.399 . S
C425 C424 1.399 . S
C425 C428 1.396 . S
C425 C437 1.453 . S
C425 C438 1.684 . S
H426 C450 0.948 . S
C427 C423 1.397 . S
C427 C428 1.394 . S
C427 C446 1.723 . S
C428 C425 1.396 . S
C428 C427 1.394 . S
C428 C458 1.723 . S
H429 C452 0.947 . S
H430 C453 0.948 . S
H431 C459 0.982 . S
H432 C460 0.979 . S
H433 C460 0.980 . S
H434 C460 0.983 . S
H435 C459 0.979 . S
H436 C459 0.977 . S
C437 C425 1.453 . S
C437 H466 0.982 . S
C437 H467 0.979 . S
C437 H468 0.977 . S
C438 C425 1.684 . S
C438 H463 0.979 . S
C438 H464 0.980 . S
C438 H465 0.983 . S
C439 C440 1.391 . S
C439 C444 1.391 . S
C439 H469 0.948 . S
C440 C439 1.391 . S
C440 C441 1.391 . S
C441 C440 1.391 . S
C441 C442 1.392 . S
C441 H470 0.947 . S
C442 C441 1.392 . S
C442 C443 1.419 . S
C442 H471 0.948 . S
C443 C442 1.419 . S
C443 C444 1.391 . S
C443 C447 1.397 . S
C444 C439 1.391 . S
C444 C443 1.391 . S
C444 C445 1.399 . S
C445 C444 1.399 . S
C445 C446 1.396 . S
C445 C448 1.453 . S
C445 C449 1.684 . S
C446 C427 1.723 . S
C446 C445 1.396 . S
C446 C447 1.394 . S
C447 C443 1.397 . S
C447 C446 1.394 . S
C447 C457 1.723 . S
C448 C445 1.453 . S
C448 H472 0.982 . S
C448 H473 0.979 . S
C448 H474 0.977 . S
C449 C445 1.684 . S
C449 H475 0.979 . S
C449 H476 0.980 . S
C449 H477 0.983 . S
C450 H426 0.948 . S
C450 C451 1.391 . S
C450 C455 1.391 . S
C451 C450 1.391 . S
C451 C452 1.391 . S
C452 H429 0.947 . S
C452 C451 1.391 . S
C452 C453 1.392 . S
C453 H430 0.948 . S
C453 C452 1.392 . S
C453 C454 1.419 . S
C454 C453 1.419 . S
C454 C455 1.391 . S
C454 C458 1.397 . S
C455 C450 1.391 . S
C455 C454 1.391 . S
C455 C456 1.399 . S
C456 C455 1.399 . S
C456 C457 1.396 . S
C456 C459 1.453 . S
C456 C460 1.684 . S
C457 C447 1.723 . S
C457 C456 1.396 . S
C457 C458 1.394 . S
C458 C428 1.723 . S
C458 C454 1.397 . S
C458 C457 1.394 . S
C459 H431 0.982 . S
C459 H435 0.979 . S
C459 H436 0.977 . S
C459 C456 1.453 . S
C460 H432 0.979 . S
C460 H433 0.980 . S
C460 H434 0.983 . S
C460 C456 1.684 . S
H461 C479 0.948 . S
H462 C420 0.948 . S
H463 C438 0.979 . S
H464 C438 0.980 . S
H465 C438 0.983 . S
H466 C437 0.982 . S
H467 C437 0.979 . S
H468 C437 0.977 . S
H469 C439 0.948 . S
H470 C441 0.947 . S
H471 C442 0.948 . S
H472 C448 0.982 . S
H473 C448 0.979 . S
H474 C448 0.977 . S
H475 C449 0.979 . S
H476 C449 0.980 . S
H477 C449 0.983 . S
H478 C422 0.947 . S
C479 C422 1.392 . S
C479 C423 1.419 . S
C479 H461 0.948 . S
C480 C481 1.391 . S
C480 C484 1.391 . S
C480 H522 0.948 . S
C481 C480 1.391 . S
C481 C482 1.391 . S
C482 C481 1.391 . S
C482 H538 0.947 . S
C482 C539 1.392 . S
C483 C484 1.391 . S
C483 C487 1.397 . S
C483 C539 1.419 . S
C484 C480 1.391 . S
C484 C483 1.391 . S
C484 C485 1.399 . S
C485 C484 1.399 . S
C485 C488 1.396 . S
C485 C497 1.453 . S
C485 C498 1.684 . S
H486 C510 0.948 . S
C487 C483 1.397 . S
C487 C488 1.394 . S
C487 C506 1.723 . S
C488 C485 1.396 . S
C488 C487 1.394 . S
C488 C518 1.723 . S
H489 C512 0.947 . S
H490 C513 0.948 . S
H491 C519 0.982 . S
H492 C520 0.979 . S
H493 C520 0.980 . S
H494 C520 0.983 . S
H495 C519 0.979 . S
H496 C519 0.977 . S
C497 C485 1.453 . S
C497 H526 0.982 . S
C497 H527 0.979 . S
C497 H528 0.977 . S
C498 C485 1.684 . S
C498 H523 0.979 . S
C498 H524 0.980 . S
C498 H525 0.983 . S
C499 C500 1.391 . S
C499 C504 1.391 . S
C499 H529 0.948 . S
C500 C499 1.391 . S
C500 C501 1.391 . S
C501 C500 1.391 . S
C501 C502 1.392 . S
C501 H530 0.947 . S
C502 C501 1.392 . S
C502 C503 1.419 . S
C502 H531 0.948 . S
C503 C502 1.419 . S
C503 C504 1.391 . S
C503 C507 1.397 . S
C504 C499 1.391 . S
C504 C503 1.391 . S
C504 C505 1.399 . S
C505 C504 1.399 . S
C505 C506 1.396 . S
C505 C508 1.453 . S
C505 C509 1.684 . S
C506 C487 1.723 . S
C506 C505 1.396 . S
C506 C507 1.394 . S
C507 C503 1.397 . S
C507 C506 1.394 . S
C507 C517 1.723 . S
C508 C505 1.453 . S
C508 H532 0.982 . S
C508 H533 0.979 . S
C508 H534 0.977 . S
C509 C505 1.684 . S
C509 H535 0.979 . S
C509 H536 0.980 . S
C509 H537 0.983 . S
C510 H486 0.948 . S
C510 C511 1.391 . S
C510 C515 1.391 . S
C511 C510 1.391 . S
C511 C512 1.391 . S
C512 H489 0.947 . S
C512 C511 1.391 . S
C512 C513 1.392 . S
C513 H490 0.948 . S
C513 C512 1.392 . S
C513 C514 1.419 . S
C514 C513 1.419 . S
C514 C515 1.391 . S
C514 C518 1.397 . S
C515 C510 1.391 . S
C515 C514 1.391 . S
C515 C516 1.399 . S
C516 C515 1.399 . S
C516 C517 1.396 . S
C516 C519 1.453 . S
C516 C520 1.684 . S
C517 C507 1.723 . S
C517 C516 1.396 . S
C517 C518 1.394 . S
C518 C488 1.723 . S
C518 C514 1.397 . S
C518 C517 1.394 . S
C519 H491 0.982 . S
C519 H495 0.979 . S
C519 H496 0.977 . S
C519 C516 1.453 . S
C520 H492 0.979 . S
C520 H493 0.980 . S
C520 H494 0.983 . S
C520 C516 1.684 . S
H521 C539 0.948 . S
H522 C480 0.948 . S
H523 C498 0.979 . S
H524 C498 0.980 . S
H525 C498 0.983 . S
H526 C497 0.982 . S
H527 C497 0.979 . S
H528 C497 0.977 . S
H529 C499 0.948 . S
H530 C501 0.947 . S
H531 C502 0.948 . S
H532 C508 0.982 . S
H533 C508 0.979 . S
H534 C508 0.977 . S
H535 C509 0.979 . S
H536 C509 0.980 . S
H537 C509 0.983 . S
H538 C482 0.947 . S
C539 C482 1.392 . S
C539 C483 1.419 . S
C539 H521 0.948 . S
C540 C541 1.391 . S
C540 C544 1.391 . S
C540 H582 0.948 . S
C541 C540 1.391 . S
C541 C542 1.391 . S
C542 C541 1.391 . S
C542 H598 0.947 . S
C542 C599 1.392 . S
C543 C544 1.391 . S
C543 C547 1.397 . S
C543 C599 1.419 . S
C544 C540 1.391 . S
C544 C543 1.391 . S
C544 C545 1.399 . S
C545 C544 1.399 . S
C545 C548 1.396 . S
C545 C557 1.453 . S
C545 C558 1.684 . S
H546 C570 0.948 . S
C547 C543 1.397 . S
C547 C548 1.394 . S
C547 C566 1.723 . S
C548 C545 1.396 . S
C548 C547 1.394 . S
C548 C578 1.723 . S
H549 C572 0.947 . S
H550 C573 0.948 . S
H551 C579 0.982 . S
H552 C580 0.979 . S
H553 C580 0.980 . S
H554 C580 0.983 . S
H555 C579 0.979 . S
H556 C579 0.977 . S
C557 C545 1.453 . S
C557 H586 0.982 . S
C557 H587 0.979 . S
C557 H588 0.977 . S
C558 C545 1.684 . S
C558 H583 0.979 . S
C558 H584 0.980 . S
C558 H585 0.983 . S
C559 C560 1.391 . S
C559 C564 1.391 . S
C559 H589 0.948 . S
C560 C559 1.391 . S
C560 C561 1.391 . S
C561 C560 1.391 . S
C561 C562 1.392 . S
C561 H590 0.947 . S
C562 C561 1.392 . S
C562 C563 1.419 . S
C562 H591 0.948 . S
C563 C562 1.419 . S
C563 C564 1.391 . S
C563 C567 1.397 . S
C564 C559 1.391 . S
C564 C563 1.391 . S
C564 C565 1.399 . S
C565 C564 1.399 . S
C565 C566 1.396 . S
C565 C568 1.453 . S
C565 C569 1.684 . S
C566 C547 1.723 . S
C566 C565 1.396 . S
C566 C567 1.394 . S
C567 C563 1.397 . S
C567 C566 1.394 . S
C567 C577 1.723 . S
C568 C565 1.453 . S
C568 H592 0.982 . S
C568 H593 0.979 . S
C568 H594 0.977 . S
C569 C565 1.684 . S
C569 H595 0.979 . S
C569 H596 0.980 . S
C569 H597 0.983 . S
C570 H546 0.948 . S
C570 C571 1.391 . S
C570 C575 1.391 . S
C571 C570 1.391 . S
C571 C572 1.391 . S
C572 H549 0.947 . S
C572 C571 1.391 . S
C572 C573 1.392 . S
C573 H550 0.948 . S
C573 C572 1.392 . S
C573 C574 1.419 . S
C574 C573 1.419 . S
C574 C575 1.391 . S
C574 C578 1.397 . S
C575 C570 1.391 . S
C575 C574 1.391 . S
C575 C576 1.399 . S
C576 C575 1.399 . S
C576 C577 1.396 . S
C576 C579 1.453 . S
C576 C580 1.684 . S
C577 C567 1.723 . S
C577 C576 1.396 . S
C577 C578 1.394 . S
C578 C548 1.723 . S
C578 C574 1.397 . S
C578 C577 1.394 . S
C579 H551 0.982 . S
C579 H555 0.979 . S
C579 H556 0.977 . S
C579 C576 1.453 . S
C580 H552 0.979 . S
C580 H553 0.980 . S
C580 H554 0.983 . S
C580 C576 1.684 . S
H581 C599 0.948 . S
H582 C540 0.948 . S
H583 C558 0.979 . S
H584 C558 0.980 . S
H585 C558 0.983 . S
H586 C557 0.982 . S
H587 C557 0.979 . S
H588 C557 0.977 . S
H589 C559 0.948 . S
H590 C561 0.947 . S
H591 C562 0.948 . S
H592 C568 0.982 . S
H593 C568 0.979 . S
H594 C568 0.977 . S
H595 C569 0.979 . S
H596 C569 0.980 . S
H597 C569 0.983 . S
H598 C542 0.947 . S
C599 C542 1.392 . S
C599 C543 1.419 . S
C599 H581 0.948 . S
C600 C601 1.391 . S
C600 C604 1.391 . S
C600 H642 0.948 . S
C601 C600 1.391 . S
C601 C602 1.391 . S
C602 C601 1.391 . S
C602 H658 0.947 . S
C602 C659 1.392 . S
C603 C604 1.391 . S
C603 C607 1.397 . S
C603 C659 1.419 . S
C604 C600 1.391 . S
C604 C603 1.391 . S
C604 C605 1.399 . S
C605 C604 1.399 . S
C605 C608 1.396 . S
C605 C617 1.453 . S
C605 C618 1.684 . S
H606 C630 0.948 . S
C607 C603 1.397 . S
C607 C608 1.394 . S
C607 C626 1.723 . S
C608 C605 1.396 . S
C608 C607 1.394 . S
C608 C638 1.723 . S
H609 C632 0.947 . S
H610 C633 0.948 . S
H611 C639 0.982 . S
H612 C640 0.979 . S
H613 C640 0.980 . S
H614 C640 0.983 . S
H615 C639 0.979 . S
H616 C639 0.977 . S
C617 C605 1.453 . S
C617 H646 0.982 . S
C617 H647 0.979 . S
C617 H648 0.977 . S
C618 C605 1.684 . S
C618 H643 0.979 . S
C618 H644 0.980 . S
C618 H645 0.983 . S
C619 C620 1.391 . S
C619 C624 1.391 . S
C619 H649 0.948 . S
C620 C619 1.391 . S
C620 C621 1.391 . S
C621 C620 1.391 . S
C621 C622 1.392 . S
C621 H650 0.947 . S
C622 C621 1.392 . S
C622 C623 1.419 . S
C622 H651 0.948 . S
C623 C622 1.419 . S
C623 C624 1.391 . S
C623 C627 1.397 . S
C624 C619 1.391 . S
C624 C623 1.391 . S
C624 C625 1.399 . S
C625 C624 1.399 . S
C625 C626 1.396 . S
C625 C628 1.453 . S
C625 C629 1.684 . S
C626 C607 1.723 . S
C626 C625 1.396 . S
C626 C627 1.394 . S
C627 C623 1.397 . S
C627 C626 1.394 . S
C627 C637 1.723 . S
C628 C625 1.453 . S
C628 H652 0.982 . S
C628 H653 0.979 . S
C628 H654 0.977 . S
C629 C625 1.684 . S
C629 H655 0.979 . S
C629 H656 0.980 . S
C629 H657 0.983 . S
C630 H606 0.948 . S
C630 C631 1.391 . S
C630 C635 1.391 . S
C631 C630 1.391 . S
C631 C632 1.391 . S
C632 H609 0.947 . S
C632 C631 1.391 . S
C632 C633 1.392 . S
C633 H610 0.948 . S
C633 C632 1.392 . S
C633 C634 1.419 . S
C634 C633 1.419 . S
C634 C635 1.391 . S
C634 C638 1.397 . S
C635 C630 1.391 . S
C635 C634 1.391 . S
C635 C636 1.399 . S
C636 C635 1.399 . S
C636 C637 1.396 . S
C636 C639 1.453 . S
C636 C640 1.684 . S
C637 C627 1.723 . S
C637 C636 1.396 . S
C637 C638 1.394 . S
C638 C608 1.723 . S
C638 C634 1.397 . S
C638 C637 1.394 . S
C639 H611 0.982 . S
C639 H615 0.979 . S
C639 H616 0.977 . S
C639 C636 1.453 . S
C640 H612 0.979 . S
C640 H613 0.980 . S
C640 H614 0.983 . S
C640 C636 1.684 . S
H641 C659 0.948 . S
H642 C600 0.948 . S
H643 C618 0.979 . S
H644 C618 0.980 . S
H645 C618 0.983 . S
H646 C617 0.982 . S
H647 C617 0.979 . S
H648 C617 0.977 . S
H649 C619 0.948 . S
H650 C621 0.947 . S
H651 C622 0.948 . S
H652 C628 0.982 . S
H653 C628 0.979 . S
H654 C628 0.977 . S
H655 C629 0.979 . S
H656 C629 0.980 . S
H657 C629 0.983 . S
H658 C602 0.947 . S
C659 C602 1.392 . S
C659 C603 1.419 . S
C659 H641 0.948 . S
C660 C661 1.391 . S
C660 C664 1.391 . S
C660 H702 0.948 . S
C661 C660 1.391 . S
C661 C662 1.391 . S
C662 C661 1.391 . S
C662 H718 0.947 . S
C662 C719 1.392 . S
C663 C664 1.391 . S
C663 C667 1.397 . S
C663 C719 1.419 . S
C664 C660 1.391 . S
C664 C663 1.391 . S
C664 C665 1.399 . S
C665 C664 1.399 . S
C665 C668 1.396 . S
C665 C677 1.453 . S
C665 C678 1.684 . S
H666 C690 0.948 . S
C667 C663 1.397 . S
C667 C668 1.394 . S
C667 C686 1.723 . S
C668 C665 1.396 . S
C668 C667 1.394 . S
C668 C698 1.723 . S
H669 C692 0.947 . S
H670 C693 0.948 . S
H671 C699 0.982 . S
H672 C700 0.979 . S
H673 C700 0.980 . S
H674 C700 0.983 . S
H675 C699 0.979 . S
H676 C699 0.977 . S
C677 C665 1.453 . S
C677 H706 0.982 . S
C677 H707 0.979 . S
C677 H708 0.977 . S
C678 C665 1.684 . S
C678 H703 0.979 . S
C678 H704 0.980 . S
C678 H705 0.983 . S
C679 C680 1.391 . S
C679 C684 1.391 . S
C679 H709 0.948 . S
C680 C679 1.391 . S
C680 C681 1.391 . S
C681 C680 1.391 . S
C681 C682 1.392 . S
C681 H710 0.947 . S
C682 C681 1.392 . S
C682 C683 1.419 . S
C682 H711 0.948 . S
C683 C682 1.419 . S
C683 C684 1.391 . S
C683 C687 1.397 . S
C684 C679 1.391 . S
C684 C683 1.391 . S
C684 C685 1.399 . S
C685 C684 1.399 . S
C685 C686 1.396 . S
C685 C688 1.453 . S
C685 C689 1.684 . S
C686 C667 1.723 . S
C686 C685 1.396 . S
C686 C687 1.394 . S
C687 C683 1.397 . S
C687 C686 1.394 . S
C687 C697 1.723 . S
C688 C685 1.453 . S
C688 H712 0.982 . S
C688 H713 0.979 . S
C688 H714 0.977 . S
C689 C685 1.684 . S
C689 H715 0.979 . S
C689 H716 0.980 . S
C689 H717 0.983 . S
C690 H666 0.948 . S
C690 C691 1.391 . S
C690 C695 1.391 . S
C691 C690 1.391 . S
C691 C692 1.391 . S
C692 H669 0.947 . S
C692 C691 1.391 . S
C692 C693 1.392 . S
C693 H670 0.948 . S
C693 C692 1.392 . S
C693 C694 1.419 . S
C694 C693 1.419 . S
C694 C695 1.391 . S
C694 C698 1.397 . S
C695 C690 1.391 . S
C695 C694 1.391 . S
C695 C696 1.399 . S
C696 C695 1.399 . S
C696 C697 1.396 . S
C696 C699 1.453 . S
C696 C700 1.684 . S
C697 C687 1.723 . S
C697 C696 1.396 . S
C697 C698 1.394 . S
C698 C668 1.723 . S
C698 C694 1.397 . S
C698 C697 1.394 . S
C699 H671 0.982 . S
C699 H675 0.979 . S
C699 H676 0.977 . S
C699 C696 1.453 . S
C700 H672 0.979 . S
C700 H673 0.980 . S
C700 H674 0.983 . S
C700 C696 1.684 . S
H701 C719 0.948 . S
H702 C660 0.948 . S
H703 C678 0.979 . S
H704 C678 0.980 . S
H705 C678 0.983 . S
H706 C677 0.982 . S
H707 C677 0.979 . S
H708 C677 0.977 . S
H709 C679 0.948 . S
H710 C681 0.947 . S
H711 C682 0.948 . S
H712 C688 0.982 . S
H713 C688 0.979 . S
H714 C688 0.977 . S
H715 C689 0.979 . S
H716 C689 0.980 . S
H717 C689 0.983 . S
H718 C662 0.947 . S
C719 C662 1.392 . S
C719 C663 1.419 . S
C719 H701 0.948 . S
C720 C721 1.391 . S
C720 C724 1.391 . S
C720 H762 0.948 . S
C721 C720 1.391 . S
C721 C722 1.391 . S
C722 C721 1.391 . S
C722 H778 0.947 . S
C722 C779 1.392 . S
C723 C724 1.391 . S
C723 C727 1.397 . S
C723 C779 1.419 . S
C724 C720 1.391 . S
C724 C723 1.391 . S
C724 C725 1.399 . S
C725 C724 1.399 . S
C725 C728 1.396 . S
C725 C737 1.453 . S
C725 C738 1.684 . S
H726 C750 0.948 . S
C727 C723 1.397 . S
C727 C728 1.394 . S
C727 C746 1.723 . S
C728 C725 1.396 . S
C728 C727 1.394 . S
C728 C758 1.723 . S
H729 C752 0.947 . S
H730 C753 0.948 . S
H731 C759 0.982 . S
H732 C760 0.979 . S
H733 C760 0.980 . S
H734 C760 0.983 . S
H735 C759 0.979 . S
H736 C759 0.977 . S
C737 C725 1.453 . S
C737 H766 0.982 . S
C737 H767 0.979 . S
C737 H768 0.977 . S
C738 C725 1.684 . S
C738 H763 0.979 . S
C738 H764 0.980 . S
C738 H765 0.983 . S
C739 C740 1.391 . S
C739 C744 1.391 . S
C739 H769 0.948 . S
C740 C739 1.391 . S
C740 C741 1.391 . S
C741 C740 1.391 . S
C741 C742 1.392 . S
C741 H770 0.947 . S
C742 C741 1.392 . S
C742 C743 1.419 . S
C742 H771 0.948 . S
C743 C742 1.419 . S
C743 C744 1.391 . S
C743 C747 1.397 . S
C744 C739 1.391 . S
C744 C743 1.391 . S
C744 C745 1.399 . S
C745 C744 1.399 . S
C745 C746 1.396 . S
C745 C748 1.453 . S
C745 C749 1.684 . S
C746 C727 1.723 . S
C746 C745 1.396 . S
C746 C747 1.394 . S
C747 C743 1.397 . S
C747 C746 1.394 . S
C747 C757 1.723 . S
C748 C745 1.453 . S
C748 H772 0.982 . S
C748 H773 0.979 . S
C748 H774 0.977 . S
C749 C745 1.684 . S
C749 H775 0.979 . S
C749 H776 0.980 . S
C749 H777 0.983 . S
C750 H726 0.948 . S
C750 C751 1.391 . S
C750 C755 1.391 . S
C751 C750 1.391 . S
C751 C752 1.391 . S
C752 H729 0.947 . S
C752 C751 1.391 . S
C752 C753 1.392 . S
C753 H730 0.948 . S
C753 C752 1.392 . S
C753 C754 1.419 . S
C754 C753 1.419 . S
C754 C755 1.391 . S
C754 C758 1.397 . S
C755 C750 1.391 . S
C755 C754 1.391 . S
C755 C756 1.399 . S
C756 C755 1.399 . S
C756 C757 1.396 . S
C756 C759 1.453 . S
C756 C760 1.684 . S
C757 C747 1.723 . S
C757 C756 1.396 . S
C757 C758 1.394 . S
C758 C728 1.723 . S
C758 C754 1.397 . S
C758 C757 1.394 . S
C759 H731 0.982 . S
C759 H735 0.979 . S
C759 H736 0.977 . S
C759 C756 1.453 . S
C760 H732 0.979 . S
C760 H733 0.980 . S
C760 H734 0.983 . S
C760 C756 1.684 . S
H761 C779 0.948 . S
H762 C720 0.948 . S
H763 C738 0.979 . S
H764 C738 0.980 . S
H765 C738 0.983 . S
H766 C737 0.982 . S
H767 C737 0.979 . S
H768 C737 0.977 . S
H769 C739 0.948 . S
H770 C741 0.947 . S
H771 C742 0.948 . S
H772 C748 0.982 . S
H773 C748 0.979 . S
H774 C748 0.977 . S
H775 C749 0.979 . S
H776 C749 0.980 . S
H777 C749 0.983 . S
H778 C722 0.947 . S
C779 C722 1.392 . S
C779 C723 1.419 . S
C779 H761 0.948 . S
C780 C781 1.391 . S
C780 C784 1.391 . S
C780 H822 0.948 . S
C781 C780 1.391 . S
C781 C782 1.391 . S
C782 C781 1.391 . S
C782 H838 0.947 . S
C782 C839 1.392 . S
C783 C784 1.391 . S
C783 C787 1.397 . S
C783 C839 1.419 . S
C784 C780 1.391 . S
C784 C783 1.391 . S
C784 C785 1.399 . S
C785 C784 1.399 . S
C785 C788 1.396 . S
C785 C797 1.453 . S
C785 C798 1.684 . S
H786 C810 0.948 . S
C787 C783 1.397 . S
C787 C788 1.394 . S
C787 C806 1.723 . S
C788 C785 1.396 . S
C788 C787 1.394 . S
C788 C818 1.723 . S
H789 C812 0.947 . S
H790 C813 0.948 . S
H791 C819 0.982 . S
H792 C820 0.979 . S
H793 C820 0.980 . S
H794 C820 0.983 . S
H795 C819 0.979 . S
H796 C819 0.977 . S
C797 C785 1.453 . S
C797 H826 0.982 . S
C797 H827 0.979 . S
C797 H828 0.977 . S
C798 C785 1.684 . S
C798 H823 0.979 . S
C798 H824 0.980 . S
C798 H825 0.983 . S
C799 C800 1.391 . S
C799 C804 1.391 . S
C799 H829 0.948 . S
C800 C799 1.391 . S
C800 C801 1.391 . S
C801 C800 1.391 . S
C801 C802 1.392 . S
C801 H830 0.947 . S
C802 C801 1.392 . S
C802 C803 1.419 . S
C802 H831 0.948 . S
C803 C802 1.419 . S
C803 C804 1.391 . S
C803 C807 1.397 . S
C804 C799 1.391 . S
C804 C803 1.391 . S
C804 C805 1.399 . S
C805 C804 1.399 . S
C805 C806 1.396 . S
C805 C808 1.453 . S
C805 C809 1.684 . S
C806 C787 1.723 . S
C806 C805 1.396 . S
C806 C807 1.394 . S
C807 C803 1.397 . S
C807 C806 1.394 . S
C807 C817 1.723 . S
C808 C805 1.453 . S
C808 H832 0.982 . S
C808 H833 0.979 . S
C808 H834 0.977 . S
C809 C805 1.684 . S
C809 H835 0.979 . S
C809 H836 0.980 . S
C809 H837 0.983 . S
C810 H786 0.948 . S
C810 C811 1.391 . S
C810 C815 1.391 . S
C811 C810 1.391 . S
C811 C812 1.391 . S
C812 H789 0.947 . S
C812 C811 1.391 . S
C812 C813 1.392 . S
C813 H790 0.948 . S
C813 C812 1.392 . S
C813 C814 1.419 . S
C814 C813 1.419 . S
C814 C815 1.391 . S
C814 C818 1.397 . S
C815 C810 1.391 . S
C815 C814 1.391 . S
C815 C816 1.399 . S
C816 C815 1.399 . S
C816 C817 1.396 . S
C816 C819 1.453 . S
C816 C820 1.684 . S
C817 C807 1.723 . S
C817 C816 1.396 . S
C817 C818 1.394 . S
C818 C788 1.723 . S
C818 C814 1.397 . S
C818 C817 1.394 . S
C819 H791 0.982 . S
C819 H795 0.979 . S
C819 H796 0.977 . S
C819 C816 1.453 . S
C820 H792 0.979 . S
C820 H793 0.980 . S
C820 H794 0.983 . S
C820 C816 1.684 . S
H821 C839 0.948 . S
H822 C780 0.948 . S
H823 C798 0.979 . S
H824 C798 0.980 . S
H825 C798 0.983 . S
H826 C797 0.982 . S
H827 C797 0.979 . S
H828 C797 0.977 . S
H829 C799 0.948 . S
H830 C801 0.947 . S
H831 C802 0.948 . S
H832 C808 0.982 . S
H833 C808 0.979 . S
H834 C808 0.977 . S
H835 C809 0.979 . S
H836 C809 0.980 . S
H837 C809 0.983 . S
H838 C782 0.947 . S
C839 C782 1.392 . S
C839 C783 1.419 . S
C839 H821 0.948 . S
C840 C841 1.391 . S
C840 C844 1.391 . S
C840 H882 0.948 . S
C841 C840 1.391 . S
C841 C842 1.391 . S
C842 C841 1.391 . S
C842 H898 0.947 . S
C842 C899 1.392 . S
C843 C844 1.391 . S
C843 C847 1.397 . S
C843 C899 1.419 . S
C844 C840 1.391 . S
C844 C843 1.391 . S
C844 C845 1.399 . S
C845 C844 1.399 . S
C845 C848 1.396 . S
C845 C857 1.453 . S
C845 C858 1.684 . S
H846 C870 0.948 . S
C847 C843 1.397 . S
C847 C848 1.394 . S
C847 C866 1.723 . S
C848 C845 1.396 . S
C848 C847 1.394 . S
C848 C878 1.723 . S
H849 C872 0.947 . S
H850 C873 0.948 . S
H851 C879 0.982 . S
H852 C880 0.979 . S
H853 C880 0.980 . S
H854 C880 0.983 . S
H855 C879 0.979 . S
H856 C879 0.977 . S
C857 C845 1.453 . S
C857 H886 0.982 . S
C857 H887 0.979 . S
C857 H888 0.977 . S
C858 C845 1.684 . S
C858 H883 0.979 . S
C858 H884 0.980 . S
C858 H885 0.983 . S
C859 C860 1.391 . S
C859 C864 1.391 . S
C859 H889 0.948 . S
C860 C859 1.391 . S
C860 C861 1.391 . S
C861 C860 1.391 . S
C861 C862 1.392 . S
C861 H890 0.947 . S
C862 C861 1.392 . S
C862 C863 1.419 . S
C862 H891 0.948 . S
C863 C862 1.419 . S
C863 C864 1.391 . S
C863 C867 1.397 . S
C864 C859 1.391 . S
C864 C863 1.391 . S
C864 C865 1.399 . S
C865 C864 1.399 . S
C865 C866 1.396 . S
C865 C868 1.453 . S
C865 C869 1.684 . S
C866 C847 1.723 . S
C866 C865 1.396 . S
C866 C867 1.394 . S
C867 C863 1.397 . S
C867 C866 1.394 . S
C867 C877 1.723 . S
C868 C865 1.453 . S
C868 H892 0.982 . S
C868 H893 0.979 . S
C868 H894 0.977 . S
C869 C865 1.684 . S
C869 H895 0.979 . S
C869 H896 0.980 . S
C869 H897 0.983 . S
C870 H846 0.948 . S
C870 C871 1.391 . S
C870 C875 1.391 . S
C871 C870 1.391 . S
C871 C872 1.391 . S
C872 H849 0.947 . S
C872 C871 1.391 . S
C872 C873 1.392 . S
C873 H850 0.948 . S
C873 C872 1.392 . S
C873 C874 1.419 . S
C874 C873 1.419 . S
C874 C875 1.391 . S
C874 C878 1.397 . S
C875 C870 1.391 . S
C875 C874 1.391 . S
C875 C876 1.399 . S
C876 C875 1.399 . S
C876 C877 1.396 . S
C876 C879 1.453 . S
C876 C880 1.684 . S
C877 C867 1.723 . S
C877 C876 1.396 . S
C877 C878 1.394 . S
C878 C848 1.723 . S
C878 C874 1.397 . S
C878 C877 1.394 . S
C879 H851 0.982 . S
C879 H855 0.979 . S
C879 H856 0.977 . S
C879 C876 1.453 . S
C880 H852 0.979 . S
C880 H853 0.980 . S
C880 H854 0.983 . S
C880 C876 1.684 . S
H881 C899 0.948 . S
H882 C840 0.948 . S
H883 C858 0.979 . S
H884 C858 0.980 . S
H885 C858 0.983 . S
H886 C857 0.982 . S
H887 C857 0.979 . S
H888 C857 0.977 . S
H889 C859 0.948 . S
H890 C861 0.947 . S
H891 C862 0.948 . S
H892 C868 0.982 . S
H893 C868 0.979 . S
H894 C868 0.977 . S
H895 C869 0.979 . S
H896 C869 0.980 . S
H897 C869 0.983 . S
H898 C842 0.947 . S
C899 C842 1.392 . S
C899 C843 1.419 . S
C899 H881 0.948 . S
C900 C901 1.391 . S
C900 C904 1.391 . S
C900 H942 0.948 . S
C901 C900 1.391 . S
C901 C902 1.391 . S
C902 C901 1.391 . S
C902 H958 0.947 . S
C902 C959 1.392 . S
C903 C904 1.391 . S
C903 C907 1.397 . S
C903 C959 1.419 . S
C904 C900 1.391 . S
C904 C903 1.391 . S
C904 C905 1.399 . S
C905 C904 1.399 . S
C905 C908 1.396 . S
C905 C917 1.453 . S
C905 C918 1.684 . S
H906 C930 0.948 . S
C907 C903 1.397 . S
C907 C908 1.394 . S
C907 C926 1.723 . S
C908 C905 1.396 . S
C908 C907 1.394 . S
C908 C938 1.723 . S
H909 C932 0.947 . S
H910 C933 0.948 . S
H911 C939 0.982 . S
H912 C940 0.979 . S
H913 C940 0.980 . S
H914 C940 0.983 . S
H915 C939 0.979 . S
H916 C939 0.977 . S
C917 C905 1.453 . S
C917 H946 0.982 . S
C917 H947 0.979 . S
C917 H948 0.977 . S
C918 C905 1.684 . S
C918 H943 0.979 . S
C918 H944 0.980 . S
C918 H945 0.983 . S
C919 C920 1.391 . S
C919 C924 1.391 . S
C919 H949 0.948 . S
C920 C919 1.391 . S
C920 C921 1.391 . S
C921 C920 1.391 . S
C921 C922 1.392 . S
C921 H950 0.947 . S
C922 C921 1.392 . S
C922 C923 1.419 . S
C922 H951 0.948 . S
C923 C922 1.419 . S
C923 C924 1.391 . S
C923 C927 1.397 . S
C924 C919 1.391 . S
C924 C923 1.391 . S
C924 C925 1.399 . S
C925 C924 1.399 . S
C925 C926 1.396 . S
C925 C928 1.453 . S
C925 C929 1.684 . S
C926 C907 1.723 . S
C926 C925 1.396 . S
C926 C927 1.394 . S
C927 C923 1.397 . S
C927 C926 1.394 . S
C927 C937 1.723 . S
C928 C925 1.453 . S
C928 H952 0.982 . S
C928 H953 0.979 . S
C928 H954 0.977 . S
C929 C925 1.684 . S
C929 H955 0.979 . S
C929 H956 0.980 . S
C929 H957 0.983 . S
C930 H906 0.948 . S
C930 C931 1.391 . S
C930 C935 1.391 . S
C931 C930 1.391 . S
C931 C932 1.391 . S
C932 H909 0.947 . S
C932 C931 1.391 . S
C932 C933 1.392 . S
C933 H910 0.948 . S
C933 C932 1.392 . S
C933 C934 1.419 . S
C934 C933 1.419 . S
C934 C935 1.391 . S
C934 C938 1.397 . S
C935 C930 1.391 . S
C935 C934 1.391 . S
C935 C936 1.399 . S
C936 C935 1.399 . S
C936 C937 1.396 . S
C936 C939 1.453 . S
C936 C940 1.684 . S
C937 C927 1.723 . S
C937 C936 1.396 . S
C937 C938 1.394 . S
C938 C908 1.723 . S
C938 C934 1.397 . S
C938 C937 1.394 . S
C939 H911 0.982 . S
C939 H915 0.979 . S
C939 H916 0.977 . S
C939 C936 1.453 . S
C940 H912 0.979 . S
C940 H913 0.980 . S
C940 H914 0.983 . S
C940 C936 1.684 . S
H941 C959 0.948 . S
H942 C900 0.948 . S
H943 C918 0.979 . S
H944 C918 0.980 . S
H945 C918 0.983 . S
H946 C917 0.982 . S
H947 C917 0.979 . S
H948 C917 0.977 . S
H949 C919 0.948 . S
H950 C921 0.947 . S
H951 C922 0.948 . S
H952 C928 0.982 . S
H953 C928 0.979 . S
H954 C928 0.977 . S
H955 C929 0.979 . S
H956 C929 0.980 . S
H957 C929 0.983 . S
H958 C902 0.947 . S
C959 C902 1.392 . S
C959 C903 1.419 . S
C959 H941 0.948 . S
C960 C961 1.391 . S
C960 C964 1.391 . S
C960 H1002 0.948 . S
C961 C960 1.391 . S
C961 C962 1.391 . S
C962 C961 1.391 . S
C962 H1018 0.947 . S
C962 C1019 1.392 . S
C963 C964 1.391 . S
C963 C967 1.397 . S
C963 C1019 1.419 . S
C964 C960 1.391 . S
C964 C963 1.391 . S
C964 C965 1.399 . S
C965 C964 1.399 . S
C965 C968 1.396 . S
C965 C977 1.453 . S
C965 C978 1.684 . S
H966 C990 0.948 . S
C967 C963 1.397 . S
C967 C968 1.394 . S
C967 C986 1.723 . S
C968 C965 1.396 . S
C968 C967 1.394 . S
C968 C998 1.723 . S
H969 C992 0.947 . S
H970 C993 0.948 . S
H971 C999 0.982 . S
H972 C1000 0.979 . S
H973 C1000 0.980 . S
H974 C1000 0.983 . S
H975 C999 0.979 . S
H976 C999 0.977 . S
C977 C965 1.453 . S
C977 H1006 0.982 . S
C977 H1007 0.979 . S
C977 H1008 0.977 . S
C978 C965 1.684 . S
C978 H1003 0.979 . S
C978 H1004 0.980 . S
C978 H1005 0.983 . S
C979 C980 1.391 . S
C979 C984 1.391 . S
C979 H1009 0.948 . S
C980 C979 1.391 . S
C980 C981 1.391 . S
C981 C980 1.391 . S
C981 C982 1.392 . S
C981 H1010 0.947 . S
C982 C981 1.392 . S
C982 C983 1.419 . S
C982 H1011 0.948 . S
C983 C982 1.419 . S
C983 C984 1.391 . S
C983 C987 1.397 . S
C984 C979 1.391 . S
C984 C983 1.391 . S
C984 C985 1.399 . S
C985 C984 1.399 . S
C985 C986 1.396 . S
C985 C988 1.453 . S
C985 C989 1.684 . S
C986 C967 1.723 . S
C986 C985 1.396 . S
C986 C987 1.394 . S
C987 C983 1.397 . S
C987 C986 1.394 . S
C987 C997 1.723 . S
C988 C985 1.453 . S
C988 H1012 0.982 . S
C988 H1013 0.979 . S
C988 H1014 0.977 . S
C989 C985 1.684 . S
C989 H1015 0.979 . S
C989 H1016 0.980 . S
C989 H1017 0.983 . S
C990 H966 0.948 . S
C990 C991 1.391 . S
C990 C995 1.391 . S
C991 C990 1.391 . S
C991 C992 1.391 . S
C992 H969 0.947 . S
C992 C991 1.391 . S
C992 C993 1.392 . S
C993 H970 0.948 . S
C993 C992 1.392 . S
C993 C994 1.419 . S
C994 C993 1.419 . S
C994 C995 1.391 . S
C994 C998 1.397 . S
C995 C990 1.391 . S
C995 C994 1.391 . S
C995 C996 1.399 . S
C996 C995 1.399 . S
C996 C997 1.396 . S
C996 C999 1.453 . S
C996 C1000 1.684 . S
C997 C987 1.723 . S
C997 C996 1.396 . S
C997 C998 1.394 . S
C998 C968 1.723 . S
C998 C994 1.397 . S
C998 C997 1.394 . S
C999 H971 0.982 . S
C999 H975 0.979 . S
C999 H976 0.977 . S
C999 C996 1.453 . S
C1000 H972 0.979 . S
C1000 H973 0.980 . S
C1000 H974 0.983 . S
C1000 C996 1.684 . S
H1001 C1019 0.948 . S
H1002 C960 0.948 . S
H1003 C978 0.979 . S
H1004 C978 0.980 . S
H1005 C978 0.983 . S
H1006 C977 0.982 . S
H1007 C977 0.979 . S
H1008 C977 0.977 . S
H1009 C979 0.948 . S
H1010 C981 0.947 . S
H1011 C982 0.948 . S
H1012 C988 0.982 . S
H1013 C988 0.979 . S
H1014 C988 0.977 . S
H1015 C989 0.979 . S
H1016 C989 0.980 . S
H1017 C989 0.983 . S
H1018 C962 0.947 . S
C1019 C962 1.392 . S
C1019 C963 1.419 . S
C1019 H1001 0.948 . S
C1020 C1021 1.391 . S
C1020 C1024 1.391 . S
C1020 H1062 0.948 . S
C1021 C1020 1.391 . S
C1021 C1022 1.391 . S
C1022 C1021 1.391 . S
C1022 H1078 0.947 . S
C1022 C1079 1.392 . S
C1023 C1024 1.391 . S
C1023 C1027 1.397 . S
C1023 C1079 1.419 . S
C1024 C1020 1.391 . S
C1024 C1023 1.391 . S
C1024 C1025 1.399 . S
C1025 C1024 1.399 . S
C1025 C1028 1.396 . S
C1025 C1037 1.453 . S
C1025 C1038 1.684 . S
H1026 C1050 0.948 . S
C1027 C1023 1.397 . S
C1027 C1028 1.394 . S
C1027 C1046 1.723 . S
C1028 C1025 1.396 . S
C1028 C1027 1.394 . S
C1028 C1058 1.723 . S
H1029 C1052 0.947 . S
H1030 C1053 0.948 . S
H1031 C1059 0.982 . S
H1032 C1060 0.979 . S
H1033 C1060 0.980 . S
H1034 C1060 0.983 . S
H1035 C1059 0.979 . S
H1036 C1059 0.977 . S
C1037 C1025 1.453 . S
C1037 H1066 0.982 . S
C1037 H1067 0.979 . S
C1037 H1068 0.977 . S
C1038 C1025 1.684 . S
C1038 H1063 0.979 . S
C1038 H1064 0.980 . S
C1038 H1065 0.983 . S
C1039 C1040 1.391 . S
C1039 C1044 1.391 . S
C1039 H1069 0.948 . S
C1040 C1039 1.391 . S
C1040 C1041 1.391 . S
C1041 C1040 1.391 . S
C1041 C1042 1.392 . S
C1041 H1070 0.947 . S
C1042 C1041 1.392 . S
C1042 C1043 1.419 . S
C1042 H1071 0.948 . S
C1043 C1042 1.419 . S
C1043 C1044 1.391 . S
C1043 C1047 1.397 . S
C1044 C1039 1.391 . S
C1044 C1043 1.391 . S
C1044 C1045 1.399 . S
C1045 C1044 1.399 . S
C1045 C1046 1.396 . S
C1045 C1048 1.453 . S
C1045 C1049 1.684 . S
C1046 C1027 1.723 . S
C1046 C1045 1.396 . S
C1046 C1047 1.394 . S
C1047 C1043 1.397 . S
C1047 C1046 1.394 . S
C1047 C1057 1.723 . S
C1048 C1045 1.453 . S
C1048 H1072 0.982 . S
C1048 H1073 0.979 . S
C1048 H1074 0.977 . S
C1049 C1045 1.684 . S
C1049 H1075 0.979 . S
C1049 H1076 0.980 . S
C1049 H1077 0.983 . S
C1050 H1026 0.948 . S
C1050 C1051 1.391 . S
C1050 C1055 1.391 . S
C1051 C1050 1.391 . S
C1051 C1052 1.391 . S
C1052 H1029 0.947 . S
C1052 C1051 1.391 . S
C1052 C1053 1.392 . S
C1053 H1030 0.948 . S
C1053 C1052 1.392 . S
C1053 C1054 1.419 . S
C1054 C1053 1.419 . S
C1054 C1055 1.391 . S
C1054 C1058 1.397 . S
C1055 C1050 1.391 . S
C1055 C1054 1.391 . S
C1055 C1056 1.399 . S
C1056 C1055 1.399 . S
C1056 C1057 1.396 . S
C1056 C1059 1.453 . S
C1056 C1060 1.684 . S
C1057 C1047 1.723 . S
C1057 C1056 1.396 . S
C1057 C1058 1.394 . S
C1058 C1028 1.723 . S
C1058 C1054 1.397 . S
C1058 C1057 1.394 . S
C1059 H1031 0.982 . S
C1059 H1035 0.979 . S
C1059 H1036 0.977 . S
C1059 C1056 1.453 . S
C1060 H1032 0.979 . S
C1060 H1033 0.980 . S
C1060 H1034 0.983 . S
C1060 C1056 1.684 . S
H1061 C1079 0.948 . S
H1062 C1020 0.948 . S
H1063 C1038 0.979 . S
H1064 C1038 0.980 . S
H1065 C1038 0.983 . S
H1066 C1037 0.982 . S
H1067 C1037 0.979 . S
H1068 C1037 0.977 . S
H1069 C1039 0.948 . S
H1070 C1041 0.947 . S
H1071 C1042 0.948 . S
H1072 C1048 0.982 . S
H1073 C1048 0.979 . S
H1074 C1048 0.977 . S
H1075 C1049 0.979 . S
H1076 C1049 0.980 . S
H1077 C1049 0.983 . S
H1078 C1022 0.947 . S
C1079 C1022 1.392 . S
C1079 C1023 1.419 . S
C1079 H1061 0.948 . S
C1080 C1081 1.391 . S
C1080 C1084 1.391 . S
C1080 H1122 0.948 . S
C1081 C1080 1.391 . S
C1081 C1082 1.391 . S
C1082 C1081 1.391 . S
C1082 H1138 0.947 . S
C1082 C1139 1.392 . S
C1083 C1084 1.391 . S
C1083 C1087 1.397 . S
C1083 C1139 1.419 . S
C1084 C1080 1.391 . S
C1084 C1083 1.391 . S
C1084 C1085 1.399 . S
C1085 C1084 1.399 . S
C1085 C1088 1.396 . S
C1085 C1097 1.453 . S
C1085 C1098 1.684 . S
H1086 C1110 0.948 . S
C1087 C1083 1.397 . S
C1087 C1088 1.394 . S
C1087 C1106 1.723 . S
C1088 C1085 1.396 . S
C1088 C1087 1.394 . S
C1088 C1118 1.723 . S
H1089 C1112 0.947 . S
H1090 C1113 0.948 . S
H1091 C1119 0.982 . S
H1092 C1120 0.979 . S
H1093 C1120 0.980 . S
H1094 C1120 0.983 . S
H1095 C1119 0.979 . S
H1096 C1119 0.977 . S
C1097 C1085 1.453 . S
C1097 H1126 0.982 . S
C1097 H1127 0.979 . S
C1097 H1128 0.977 . S
C1098 C1085 1.684 . S
C1098 H1123 0.979 . S
C1098 H1124 0.980 . S
C1098 H1125 0.983 . S
C1099 C1100 1.391 . S
C1099 C1104 1.391 . S
C1099 H1129 0.948 . S
C1100 C1099 1.391 . S
C1100 C1101 1.391 . S
C1101 C1100 1.391 . S
C1101 C1102 1.392 . S
C1101 H1130 0.947 . S
C1102 C1101 1.392 . S
C1102 C1103 1.419 . S
C1102 H1131 0.948 . S
C1103 C1102 1.419 . S
C1103 C1104 1.391 . S
C1103 C1107 1.397 . S
C1104 C1099 1.391 . S
C1104 C1103 1.391 . S
C1104 C1105 1.399 . S
C1105 C1104 1.399 . S
C1105 C1106 1.396 . S
C1105 C1108 1.453 . S
C1105 C1109 1.684 . S
C1106 C1087 1.723 . S
C1106 C1105 1.396 . S
C1106 C1107 1.394 . S
C1107 C1103 1.397 . S
C1107 C1106 1.394 . S
C1107 C1117 1.723 . S
C1108 C1105 1.453 . S
C1108 H1132 0.982 . S
C1108 H1133 0.979 . S
C1108 H1134 0.977 . S
C1109 C1105 1.684 . S
C1109 H1135 0.979 . S
C1109 H1136 0.980 . S
C1109 H1137 0.983 . S
C1110 H1086 0.948 . S
C1110 C1111 1.391 . S
C1110 C1115 1.391 . S
C1111 C1110 1.391 . S
C1111 C1112 1.391 . S
C1112 H1089 0.947 . S
C1112 C1111 1.391 . S
C1112 C1113 1.392 . S
C1113 H1090 0.948 . S
C1113 C1112 1.392 . S
C1113 C1114 1.419 . S
C1114 C1113 1.419 . S
C1114 C1115 1.391 . S
C1114 C1118 1.397 . S
C1115 C1110 1.391 . S
C1115 C1114 1.391 . S
C1115 C1116 1.399 . S
C1116 C1115 1.399 . S
C1116 C1117 1.396 . S
C1116 C1119 1.453 . S
C1116 C1120 1.684 . S
C1117 C1107 1.723 . S
C1117 C1116 1.396 . S
C1117 C1118 1.394 . S
C1118 C1088 1.723 . S
C1118 C1114 1.397 . S
C1118 C1117 1.394 . S
C1119 H1091 0.982 . S
C1119 H1095 0.979 . S
C1119 H1096 0.977 . S
C1119 C1116 1.453 . S
C1120 H1092 0.979 . S
C1120 H1093 0.980 . S
C1120 H1094 0.983 . S
C1120 C1116 1.684 . S
H1121 C1139 0.948 . S
H1122 C1080 0.948 . S
H1123 C1098 0.979 . S
H1124 C1098 0.980 . S
H1125 C1098 0.983 . S
H1126 C1097 0.982 . S
H1127 C1097 0.979 . S
H1128 C1097 0.977 . S
H1129 C1099 0.948 . S
H1130 C1101 0.947 . S
H1131 C1102 0.948 . S
H1132 C1108 0.982 . S
H1133 C1108 0.979 . S
H1134 C1108 0.977 . S
H1135 C1109 0.979 . S
H1136 C1109 0.980 . S
H1137 C1109 0.983 . S
H1138 C1082 0.947 . S
C1139 C1082 1.392 . S
C1139 C1083 1.419 . S
C1139 H1121 0.948 . S
C1140 C1141 1.391 . S
C1140 C1144 1.391 . S
C1140 H1182 0.948 . S
C1141 C1140 1.391 . S
C1141 C1142 1.391 . S
C1142 C1141 1.391 . S
C1142 H1198 0.947 . S
C1142 C1199 1.392 . S
C1143 C1144 1.391 . S
C1143 C1147 1.397 . S
C1143 C1199 1.419 . S
C1144 C1140 1.391 . S
C1144 C1143 1.391 . S
C1144 C1145 1.399 . S
C1145 C1144 1.399 . S
C1145 C1148 1.396 . S
C1145 C1157 1.453 . S
C1145 C1158 1.684 . S
H1146 C1170 0.948 . S
C1147 C1143 1.397 . S
C1147 C1148 1.394 . S
C1147 C1166 1.723 . S
C1148 C1145 1.396 . S
C1148 C1147 1.394 . S
C1148 C1178 1.723 . S
H1149 C1172 0.947 . S
H1150 C1173 0.948 . S
H1151 C1179 0.982 . S
H1152 C1180 0.979 . S
H1153 C1180 0.980 . S
H1154 C1180 0.983 . S
H1155 C1179 0.979 . S
H1156 C1179 0.977 . S
C1157 C1145 1.453 . S
C1157 H1186 0.982 . S
C1157 H1187 0.979 . S
C1157 H1188 0.977 . S
C1158 C1145 1.684 . S
C1158 H1183 0.979 . S
C1158 H1184 0.980 . S
C1158 H1185 0.983 . S
C1159 C1160 1.391 . S
C1159 C1164 1.391 . S
C1159 H1189 0.948 . S
C1160 C1159 1.391 . S
C1160 C1161 1.391 . S
C1161 C1160 1.391 . S
C1161 C1162 1.392 . S
C1161 H1190 0.947 . S
C1162 C1161 1.392 . S
C1162 C1163 1.419 . S
C1162 H1191 0.948 . S
C1163 C1162 1.419 . S
C1163 C1164 1.391 . S
C1163 C1167 1.397 . S
C1164 C1159 1.391 . S
C1164 C1163 1.391 . S
C1164 C1165 1.399 . S
C1165 C1164 1.399 . S
C1165 C1166 1.396 . S
C1165 C1168 1.453 . S
C1165 C1169 1.684 . S
C1166 C1147 1.723 . S
C1166 C1165 1.396 . S
C1166 C1167 1.394 . S
C1167 C1163 1.397 . S
C1167 C1166 1.394 . S
C1167 C1177 1.723 . S
C1168 C1165 1.453 . S
C1168 H1192 0.982 . S
C1168 H1193 0.979 . S
C1168 H1194 0.977 . S
C1169 C1165 1.684 . S
C1169 H1195 0.979 . S
C1169 H1196 0.980 . S
C1169 H1197 0.983 . S
C1170 H1146 0.948 . S
C1170 C1171 1.391 . S
C1170 C1175 1.391 . S
C1171 C1170 1.391 . S
C1171 C1172 1.391 . S
C1172 H1149 0.947 . S
C1172 C1171 1.391 . S
C1172 C1173 1.392 . S
C1173 H1150 0.948 . S
C1173 C1172 1.392 . S
C1173 C1174 1.419 . S
C1174 C1173 1.419 . S
C1174 C1175 1.391 . S
C1174 C1178 1.397 . S
C1175 C1170 1.391 . S
C1175 C1174 1.391 . S
C1175 C1176 1.399 . S
C1176 C1175 1.399 . S
C1176 C1177 1.396 . S
C1176 C1179 1.453 . S
C1176 C1180 1.684 . S
C1177 C1167 1.723 . S
C1177 C1176 1.396 . S
C1177 C1178 1.394 . S
C1178 C1148 1.723 . S
C1178 C1174 1.397 . S
C1178 C1177 1.394 . S
C1179 H1151 0.982 . S
C1179 H1155 0.979 . S
C1179 H1156 0.977 . S
C1179 C1176 1.453 . S
C1180 H1152 0.979 . S
C1180 H1153 0.980 . S
C1180 H1154 0.983 . S
C1180 C1176 1.684 . S
H1181 C1199 0.948 . S
H1182 C1140 0.948 . S
H1183 C1158 0.979 . S
H1184 C1158 0.980 . S
H1185 C1158 0.983 . S
H1186 C1157 0.982 . S
H1187 C1157 0.979 . S
H1188 C1157 0.977 . S
H1189 C1159 0.948 . S
H1190 C1161 0.947 . S
H1191 C1162 0.948 . S
H1192 C1168 0.982 . S
H1193 C1168 0.979 . S
H1194 C1168 0.977 . S
H1195 C1169 0.979 . S
H1196 C1169 0.980 . S
H1197 C1169 0.983 . S
H1198 C1142 0.947 . S
C1199 C1142 1.392 . S
C1199 C1143 1.419 . S
C1199 H1181 0.948 . S
C1200 C1201 1.391 . S
C1200 C1204 1.391 . S
C1200 H1242 0.948 . S
C1201 C1200 1.391 . S
C1201 C1202 1.391 . S
C1202 C1201 1.391 . S
C1202 H1258 0.947 . S
C1202 C1259 1.392 . S
C1203 C1204 1.391 . S
C1203 C1207 1.397 . S
C1203 C1259 1.419 . S
C1204 C1200 1.391 . S
C1204 C1203 1.391 . S
C1204 C1205 1.399 . S
C1205 C1204 1.399 . S
C1205 C1208 1.396 . S
C1205 C1217 1.453 . S
C1205 C1218 1.684 . S
H1206 C1230 0.948 . S
C1207 C1203 1.397 . S
C1207 C1208 1.394 . S
C1207 C1226 1.723 . S
C1208 C1205 1.396 . S
C1208 C1207 1.394 . S
C1208 C1238 1.723 . S
H1209 C1232 0.947 . S
H1210 C1233 0.948 . S
H1211 C1239 0.982 . S
H1212 C1240 0.979 . S
H1213 C1240 0.980 . S
H1214 C1240 0.983 . S
H1215 C1239 0.979 . S
H1216 C1239 0.977 . S
C1217 C1205 1.453 . S
C1217 H1246 0.982 . S
C1217 H1247 0.979 . S
C1217 H1248 0.977 . S
C1218 C1205 1.684 . S
C1218 H1243 0.979 . S
C1218 H1244 0.980 . S
C1218 H1245 0.983 . S
C1219 C1220 1.391 . S
C1219 C1224 1.391 . S
C1219 H1249 0.948 . S
C1220 C1219 1.391 . S
C1220 C1221 1.391 . S
C1221 C1220 1.391 . S
C1221 C1222 1.392 . S
C1221 H1250 0.947 . S
C1222 C1221 1.392 . S
C1222 C1223 1.419 . S
C1222 H1251 0.948 . S
C1223 C1222 1.419 . S
C1223 C1224 1.391 . S
C1223 C1227 1.397 . S
C1224 C1219 1.391 . S
C1224 C1223 1.391 . S
C1224 C1225 1.399 . S
C1225 C1224 1.399 . S
C1225 C1226 1.396 . S
C1225 C1228 1.453 . S
C1225 C1229 1.684 . S
C1226 C1207 1.723 . S
C1226 C1225 1.396 . S
C1226 C1227 1.394 . S
C1227 C1223 1.397 . S
C1227 C1226 1.394 . S
C1227 C1237 1.723 . S
C1228 C1225 1.453 . S
C1228 H1252 0.982 . S
C1228 H1253 0.979 . S
C1228 H1254 0.977 . S
C1229 C1225 1.684 . S
C1229 H1255 0.979 . S
C1229 H1256 0.980 . S
C1229 H1257 0.983 . S
C1230 H1206 0.948 . S
C1230 C1231 1.391 . S
C1230 C1235 1.391 . S
C1231 C1230 1.391 . S
C1231 C1232 1.391 . S
C1232 H1209 0.947 . S
C1232 C1231 1.391 . S
C1232 C1233 1.392 . S
C1233 H1210 0.948 . S
C1233 C1232 1.392 . S
C1233 C1234 1.419 . S
C1234 C1233 1.419 . S
C1234 C1235 1.391 . S
C1234 C1238 1.397 . S
C1235 C1230 1.391 . S
C1235 C1234 1.391 . S
C1235 C1236 1.399 . S
C1236 C1235 1.399 . S
C1236 C1237 1.396 . S
C1236 C1239 1.453 . S
C1236 C1240 1.684 . S
C1237 C1227 1.723 . S
C1237 C1236 1.396 . S
C1237 C1238 1.394 . S
C1238 C1208 1.723 . S
C1238 C1234 1.397 . S
C1238 C1237 1.394 . S
C1239 H1211 0.982 . S
C1239 H1215 0.979 . S
C1239 H1216 0.977 . S
C1239 C1236 1.453 . S
C1240 H1212 0.979 . S
C1240 H1213 0.980 . S
C1240 H1214 0.983 . S
C1240 C1236 1.684 . S
H1241 C1259 0.948 . S
H1242 C1200 0.948 . S
H1243 C1218 0.979 . S
H1244 C1218 0.980 . S
H1245 C1218 0.983 . S
H1246 C1217 0.982 . S
H1247 C1217 0.979 . S
H1248 C1217 0.977 . S
H1249 C1219 0.948 . S
H1250 C1221 0.947 . S
H1251 C1222 0.948 . S
H1252 C1228 0.982 . S
H1253 C1228 0.979 . S
H1254 C1228 0.977 . S
H1255 C1229 0.979 . S
H1256 C1229 0.980 . S
H1257 C1229 0.983 . S
H1258 C1202 0.947 . S
C1259 C1202 1.392 . S
C1259 C1203 1.419 . S
C1259 H1241 0.948 . S
C1260 C1261 1.391 . S
C1260 C1264 1.391 . S
C1260 H1302 0.948 . S
C1261 C1260 1.391 . S
C1261 C1262 1.391 . S
C1262 C1261 1.391 . S
C1262 H1318 0.947 . S
C1262 C1319 1.392 . S
C1263 C1264 1.391 . S
C1263 C1267 1.397 . S
C1263 C1319 1.419 . S
C1264 C1260 1.391 . S
C1264 C1263 1.391 . S
C1264 C1265 1.399 . S
C1265 C1264 1.399 . S
C1265 C1268 1.396 . S
C1265 C1277 1.453 . S
C1265 C1278 1.684 . S
H1266 C1290 0.948 . S
C1267 C1263 1.397 . S
C1267 C1268 1.394 . S
C1267 C1286 1.723 . S
C1268 C1265 1.396 . S
C1268 C1267 1.394 . S
C1268 C1298 1.723 . S
H1269 C1292 0.947 . S
H1270 C1293 0.948 . S
H1271 C1299 0.982 . S
H1272 C1300 0.979 . S
H1273 C1300 0.980 . S
H1274 C1300 0.983 . S
H1275 C1299 0.979 . S
H1276 C1299 0.977 . S
C1277 C1265 1.453 . S
C1277 H1306 0.982 . S
C1277 H1307 0.979 . S
C1277 H1308 0.977 . S
C1278 C1265 1.684 . S
C1278 H1303 0.979 . S
C1278 H1304 0.980 . S
C1278 H1305 0.983 . S
C1279 C1280 1.391 . S
C1279 C1284 1.391 . S
C1279 H1309 0.948 . S
C1280 C1279 1.391 . S
C1280 C1281 1.391 . S
C1281 C1280 1.391 . S
C1281 C1282 1.392 . S
C1281 H1310 0.947 . S
C1282 C1281 1.392 . S
C1282 C1283 1.419 . S
C1282 H1311 0.948 . S
C1283 C1282 1.419 . S
C1283 C1284 1.391 . S
C1283 C1287 1.397 . S
C1284 C1279 1.391 . S
C1284 C1283 1.391 . S
C1284 C1285 1.399 . S
C1285 C1284 1.399 . S
C1285 C1286 1.396 . S
C1285 C1288 1.453 . S
C1285 C1289 1.684 . S
C1286 C1267 1.723 . S
C1286 C1285 1.396 . S
C1286 C1287 1.394 . S
C1287 C1283 1.397 . S
C1287 C1286 1.394 . S
C1287 C1297 1.723 . S
C1288 C1285 1.453 . S
C1288 H1312 0.982 . S
C1288 H1313 0.979 . S
C1288 H1314 0.977 . S
C1289 C1285 1.684 . S
C1289 H1315 0.979 . S
C1289 H1316 0.980 . S
C1289 H1317 0.983 . S
C1290 H1266 0.948 . S
C1290 C1291 1.391 . S
C1290 C1295 1.391 . S
C1291 C1290 1.391 . S
C1291 C1292 1.391 . S
C1292 H1269 0.947 . S
C1292 C1291 1.391 . S
C1292 C1293 1.392 . S
C1293 H1270 0.948 . S
C1293 C1292 1.392 . S
C1293 C1294 1.419 . S
C1294 C1293 1.419 . S
C1294 C1295 1.391 . S
C1294 C1298 1.397 . S
C1295 C1290 1.391 . S
C1295 C1294 1.391 . S
C1295 C1296 1.399 . S
C1296 C1295 1.399 . S
C1296 C1297 1.396 . S
C1296 C1299 1.453 . S
C1296 C1300 1.684 . S
C1297 C1287 1.723 . S
C1297 C1296 1.396 . S
C1297 C1298 1.394 . S
C1298 C1268 1.723 . S
C1298 C1294 1.397 . S
C1298 C1297 1.394 . S
C1299 H1271 0.982 . S
C1299 H1275 0.979 . S
C1299 H1276 0.977 . S
C1299 C1296 1.453 . S
C1300 H1272 0.979 . S
C1300 H1273 0.980 . S
C1300 H1274 0.983 . S
C1300 C1296 1.684 . S
H1301 C1319 0.948 . S
H1302 C1260 0.948 . S
H1303 C1278 0.979 . S
H1304 C1278 0.980 . S
H1305 C1278 0.983 . S
H1306 C1277 0.982 . S
H1307 C1277 0.979 . S
H1308 C1277 0.977 . S
H1309 C1279 0.948 . S
H1310 C1281 0.947 . S
H1311 C1282 0.948 . S
H1312 C1288 0.982 . S
H1313 C1288 0.979 . S
H1314 C1288 0.977 . S
H1315 C1289 0.979 . S
H1316 C1289 0.980 . S
H1317 C1289 0.983 . S
H1318 C1262 0.947 . S
C1319 C1262 1.392 . S
C1319 C1263 1.419 . S
C1319 H1301 0.948 . S
C1320 C1321 1.391 . S
C1320 C1324 1.391 . S
C1320 H1362 0.948 . S
C1321 C1320 1.391 . S
C1321 C1322 1.391 . S
C1322 C1321 1.391 . S
C1322 H1378 0.947 . S
C1322 C1379 1.392 . S
C1323 C1324 1.391 . S
C1323 C1327 1.397 . S
C1323 C1379 1.419 . S
C1324 C1320 1.391 . S
C1324 C1323 1.391 . S
C1324 C1325 1.399 . S
C1325 C1324 1.399 . S
C1325 C1328 1.396 . S
C1325 C1337 1.453 . S
C1325 C1338 1.684 . S
H1326 C1350 0.948 . S
C1327 C1323 1.397 . S
C1327 C1328 1.394 . S
C1327 C1346 1.723 . S
C1328 C1325 1.396 . S
C1328 C1327 1.394 . S
C1328 C1358 1.723 . S
H1329 C1352 0.947 . S
H1330 C1353 0.948 . S
H1331 C1359 0.982 . S
H1332 C1360 0.979 . S
H1333 C1360 0.980 . S
H1334 C1360 0.983 . S
H1335 C1359 0.979 . S
H1336 C1359 0.977 . S
C1337 C1325 1.453 . S
C1337 H1366 0.982 . S
C1337 H1367 0.979 . S
C1337 H1368 0.977 . S
C1338 C1325 1.684 . S
C1338 H1363 0.979 . S
C1338 H1364 0.980 . S
C1338 H1365 0.983 . S
C1339 C1340 1.391 . S
C1339 C1344 1.391 . S
C1339 H1369 0.948 . S
C1340 C1339 1.391 . S
C1340 C1341 1.391 . S
C1341 C1340 1.391 . S
C1341 C1342 1.392 . S
C1341 H1370 0.947 . S
C1342 C1341 1.392 . S
C1342 C1343 1.419 . S
C1342 H1371 0.948 . S
C1343 C1342 1.419 . S
C1343 C1344 1.391 . S
C1343 C1347 1.397 . S
C1344 C1339 1.391 . S
C1344 C1343 1.391 . S
C1344 C1345 1.399 . S
C1345 C1344 1.399 . S
C1345 C1346 1.396 . S
C1345 C1348 1.453 . S
C1345 C1349 1.684 . S
C1346 C1327 1.723 . S
C1346 C1345 1.396 . S
C1346 C1347 1.394 . S
C1347 C1343 1.397 . S
C1347 C1346 1.394 . S
C1347 C1357 1.723 . S
C1348 C1345 1.453 . S
C1348 H1372 0.982 . S
C1348 H1373 0.979 . S
C1348 H1374 0.977 . S
C1349 C1345 1.684 . S
C1349 H1375 0.979 . S
C1349 H1376 0.980 . S
C1349 H1377 0.983 . S
C1350 H1326 0.948 . S
C1350 C1351 1.391 . S
C1350 C1355 1.391 . S
C1351 C1350 1.391 . S
C1351 C1352 1.391 . S
C1352 H1329 0.947 . S
C1352 C1351 1.391 . S
C1352 C1353 1.392 . S
C1353 H1330 0.948 . S
C1353 C1352 1.392 . S
C1353 C1354 1.419 . S
C1354 C1353 1.419 . S
C1354 C1355 1.391 . S
C1354 C1358 1.397 . S
C1355 C1350 1.391 . S
C1355 C1354 1.391 . S
C1355 C1356 1.399 . S
C1356 C1355 1.399 . S
C1356 C1357 1.396 . S
C1356 C1359 1.453 . S
C1356 C1360 1.684 . S
C1357 C1347 1.723 . S
C1357 C1356 1.396 . S
C1357 C1358 1.394 . S
C1358 C1328 1.723 . S
C1358 C1354 1.397 . S
C1358 C1357 1.394 . S
C1359 H1331 0.982 . S
C1359 H1335 0.979 . S
C1359 H1336 0.977 . S
C1359 C1356 1.453 . S
C1360 H1332 0.979 . S
C1360 H1333 0.980 . S
C1360 H1334 0.983 . S
C1360 C1356 1.684 . S
H1361 C1379 0.948 . S
H1362 C1320 0.948 . S
H1363 C1338 0.979 . S
H1364 C1338 0.980 . S
H1365 C1338 0.983 . S
H1366 C1337 0.982 . S
H1367 C1337 0.979 . S
H1368 C1337 0.977 . S
H1369 C1339 0.948 . S
H1370 C1341 0.947 . S
H1371 C1342 0.948 . S
H1372 C1348 0.982 . S
H1373 C1348 0.979 . S
H1374 C1348 0.977 . S
H1375 C1349 0.979 . S
H1376 C1349 0.980 . S
H1377 C1349 0.983 . S
H1378 C1322 0.947 . S
C1379 C1322 1.392 . S
C1379 C1323 1.419 . S
C1379 H1361 0.948 . S
C1380 C1381 1.391 . S
C1380 C1384 1.391 . S
C1380 H1422 0.948 . S
C1381 C1380 1.391 . S
C1381 C1382 1.391 . S
C1382 C1381 1.391 . S
C1382 H1438 0.947 . S
C1382 C1439 1.392 . S
C1383 C1384 1.391 . S
C1383 C1387 1.397 . S
C1383 C1439 1.419 . S
C1384 C1380 1.391 . S
C1384 C1383 1.391 . S
C1384 C1385 1.399 . S
C1385 C1384 1.399 . S
C1385 C1388 1.396 . S
C1385 C1397 1.453 . S
C1385 C1398 1.684 . S
H1386 C1410 0.948 . S
C1387 C1383 1.397 . S
C1387 C1388 1.394 . S
C1387 C1406 1.723 . S
C1388 C1385 1.396 . S
C1388 C1387 1.394 . S
C1388 C1418 1.723 . S
H1389 C1412 0.947 . S
H1390 C1413 0.948 . S
H1391 C1419 0.982 . S
H1392 C1420 0.979 . S
H1393 C1420 0.980 . S
H1394 C1420 0.983 . S
H1395 C1419 0.979 . S
H1396 C1419 0.977 . S
C1397 C1385 1.453 . S
C1397 H1426 0.982 . S
C1397 H1427 0.979 . S
C1397 H1428 0.977 . S
C1398 C1385 1.684 . S
C1398 H1423 0.979 . S
C1398 H1424 0.980 . S
C1398 H1425 0.983 . S
C1399 C1400 1.391 . S
C1399 C1404 1.391 . S
C1399 H1429 0.948 . S
C1400 C1399 1.391 . S
C1400 C1401 1.391 . S
C1401 C1400 1.391 . S
C1401 C1402 1.392 . S
C1401 H1430 0.947 . S
C1402 C1401 1.392 . S
C1402 C1403 1.419 . S
C1402 H1431 0.948 . S
C1403 C1402 1.419 . S
C1403 C1404 1.391 . S
C1403 C1407 1.397 . S
C1404 C1399 1.391 . S
C1404 C1403 1.391 . S
C1404 C1405 1.399 . S
C1405 C1404 1.399 . S
C1405 C1406 1.396 . S
C1405 C1408 1.453 . S
C1405 C1409 1.684 . S
C1406 C1387 1.723 . S
C1406 C1405 1.396 . S
C1406 C1407 1.394 . S
C1407 C1403 1.397 . S
C1407 C1406 1.394 . S
C1407 C1417 1.723 . S
C1408 C1405 1.453 . S
C1408 H1432 0.982 . S
C1408 H1433 0.979 . S
C1408 H1434 0.977 . S
C1409 C1405 1.684 . S
C1409 H1435 0.979 . S
C1409 H1436 0.980 . S
C1409 H1437 0.983 . S
C1410 H1386 0.948 . S
C1410 C1411 1.391 . S
C1410 C1415 1.391 . S
C1411 C1410 1.391 . S
C1411 C1412 1.391 . S
C1412 H1389 0.947 . S
C1412 C1411 1.391 . S
C1412 C1413 1.392 . S
C1413 H1390 0.948 . S
C1413 C1412 1.392 . S
C1413 C1414 1.419 . S
C1414 C1413 1.419 . S
C1414 C1415 1.391 . S
C1414 C1418 1.397 . S
C1415 C1410 1.391 . S
C1415 C1414 1.391 . S
C1415 C1416 1.399 . S
C1416 C1415 1.399 . S
C1416 C1417 1.396 . S
C1416 C1419 1.453 . S
C1416 C1420 1.684 . S
C1417 C1407 1.723 . S
C1417 C1416 1.396 . S
C1417 C1418 1.394 . S
C1418 C1388 1.723 . S
C1418 C1414 1.397 . S
C1418 C1417 1.394 . S
C1419 H1391 0.982 . S
C1419 H1395 0.979 . S
C1419 H1396 0.977 . S
C1419 C1416 1.453 . S
C1420 H1392 0.979 . S
C1420 H1393 0.980 . S
C1420 H1394 0.983 . S
C1420 C1416 1.684 . S
H1421 C1439 0.948 . S
H1422 C1380 0.948 . S
H1423 C1398 0.979 . S
H1424 C1398 0.980 . S
H1425 C1398 0.983 . S
H1426 C1397 0.982 . S
H1427 C1397 0.979 . S
H1428 C1397 0.977 . S
H1429 C1399 0.948 . S
H1430 C1401 0.947 . S
H1431 C1402 0.948 . S
H1432 C1408 0.982 . S
H1433 C1408 0.979 . S
H1434 C1408 0.977 . S
H1435 C1409 0.979 . S
H1436 C1409 0.980 . S
H1437 C1409 0.983 . S
H1438 C1382 0.947 . S
C1439 C1382 1.392 . S
C1439 C1383 1.419 . S
C1439 H1421 0.948 . S
C1440 C1441 1.391 . S
C1440 C1444 1.391 . S
C1440 H1482 0.948 . S
C1441 C1440 1.391 . S
C1441 C1442 1.391 . S
C1442 C1441 1.391 . S
C1442 H1498 0.947 . S
C1442 C1499 1.392 . S
C1443 C1444 1.391 . S
C1443 C1447 1.397 . S
C1443 C1499 1.419 . S
C1444 C1440 1.391 . S
C1444 C1443 1.391 . S
C1444 C1445 1.399 . S
C1445 C1444 1.399 . S
C1445 C1448 1.396 . S
C1445 C1457 1.453 . S
C1445 C1458 1.684 . S
H1446 C1470 0.948 . S
C1447 C1443 1.397 . S
C1447 C1448 1.394 . S
C1447 C1466 1.723 . S
C1448 C1445 1.396 . S
C1448 C1447 1.394 . S
C1448 C1478 1.723 . S
H1449 C1472 0.947 . S
H1450 C1473 0.948 . S
H1451 C1479 0.982 . S
H1452 C1480 0.979 . S
H1453 C1480 0.980 . S
H1454 C1480 0.983 . S
H1455 C1479 0.979 . S
H1456 C1479 0.977 . S
C1457 C1445 1.453 . S
C1457 H1486 0.982 . S
C1457 H1487 0.979 . S
C1457 H1488 0.977 . S
C1458 C1445 1.684 . S
C1458 H1483 0.979 . S
C1458 H1484 0.980 . S
C1458 H1485 0.983 . S
C1459 C1460 1.391 . S
C1459 C1464 1.391 . S
C1459 H1489 0.948 . S
C1460 C1459 1.391 . S
C1460 C1461 1.391 . S
C1461 C1460 1.391 . S
C1461 C1462 1.392 . S
C1461 H1490 0.947 . S
C1462 C1461 1.392 . S
C1462 C1463 1.419 . S
C1462 H1491 0.948 . S
C1463 C1462 1.419 . S
C1463 C1464 1.391 . S
C1463 C1467 1.397 . S
C1464 C1459 1.391 . S
C1464 C1463 1.391 . S
C1464 C1465 1.399 . S
C1465 C1464 1.399 . S
C1465 C1466 1.396 . S
C1465 C1468 1.453 . S
C1465 C1469 1.684 . S
C1466 C1447 1.723 . S
C1466 C1465 1.396 . S
C1466 C1467 1.394 . S
C1467 C1463 1.397 . S
C1467 C1466 1.394 . S
C1467 C1477 1.723 . S
C1468 C1465 1.453 . S
C1468 H1492 0.982 . S
C1468 H1493 0.979 . S
C1468 H1494 0.977 . S
C1469 C1465 1.684 . S
C1469 H1495 0.979 . S
C1469 H1496 0.980 . S
C1469 H1497 0.983 . S
C1470 H1446 0.948 . S
C1470 C1471 1.391 . S
C1470 C1475 1.391 . S
C1471 C1470 1.391 . S
C1471 C1472 1.391 . S
C1472 H1449 0.947 . S
C1472 C1471 1.391 . S
C1472 C1473 1.392 . S
C1473 H1450 0.948 . S
C1473 C1472 1.392 . S
C1473 C1474 1.419 . S
C1474 C1473 1.419 . S
C1474 C1475 1.391 . S
C1474 C1478 1.397 . S
C1475 C1470 1.391 . S
C1475 C1474 1.391 . S
C1475 C1476 1.399 . S
C1476 C1475 1.399 . S
C1476 C1477 1.396 . S
C1476 C1479 1.453 . S
C1476 C1480 1.684 . S
C1477 C1467 1.723 . S
C1477 C1476 1.396 . S
C1477 C1478 1.394 . S
C1478 C1448 1.723 . S
C1478 C1474 1.397 . S
C1478 C1477 1.394 . S
C1479 H1451 0.982 . S
C1479 H1455 0.979 . S
C1479 H1456 0.977 . S
C1479 C1476 1.453 . S
C1480 H1452 0.979 . S
C1480 H1453 0.980 . S
C1480 H1454 0.983 . S
C1480 C1476 1.684 . S
H1481 C1499 0.948 . S
H1482 C1440 0.948 . S
H1483 C1458 0.979 . S
H1484 C1458 0.980 . S
H1485 C1458 0.983 . S
H1486 C1457 0.982 . S
H1487 C1457 0.979 . S
H1488 C1457 0.977 . S
H1489 C1459 0.948 . S
H1490 C1461 0.947 . S
H1491 C1462 0.948 . S
H1492 C1468 0.982 . S
H1493 C1468 0.979 . S
H1494 C1468 0.977 . S
H1495 C1469 0.979 . S
H1496 C1469 0.980 . S
H1497 C1469 0.983 . S
H1498 C1442 0.947 . S
C1499 C1442 1.392 . S
C1499 C1443 1.419 . S
C1499 H1481 0.948 . S
C1500 C1501 1.391 . S
C1500 C1504 1.391 . S
C1500 H1542 0.948 . S
C1501 C1500 1.391 . S
C1501 C1502 1.391 . S
C1502 C1501 1.391 . S
C1502 H1558 0.947 . S
C1502 C1559 1.392 . S
C1503 C1504 1.391 . S
C1503 C1507 1.397 . S
C1503 C1559 1.419 . S
C1504 C1500 1.391 . S
C1504 C1503 1.391 . S
C1504 C1505 1.399 . S
C1505 C1504 1.399 . S
C1505 C1508 1.396 . S
C1505 C1517 1.453 . S
C1505 C1518 1.684 . S
H1506 C1530 0.948 . S
C1507 C1503 1.397 . S
C1507 C1508 1.394 . S
C1507 C1526 1.723 . S
C1508 C1505 1.396 . S
C1508 C1507 1.394 . S
C1508 C1538 1.723 . S
H1509 C1532 0.947 . S
H1510 C1533 0.948 . S
H1511 C1539 0.982 . S
H1512 C1540 0.979 . S
H1513 C1540 0.980 . S
H1514 C1540 0.983 . S
H1515 C1539 0.979 . S
H1516 C1539 0.977 . S
C1517 C1505 1.453 . S
C1517 H1546 0.982 . S
C1517 H1547 0.979 . S
C1517 H1548 0.977 . S
C1518 C1505 1.684 . S
C1518 H1543 0.979 . S
C1518 H1544 0.980 . S
C1518 H1545 0.983 . S
C1519 C1520 1.391 . S
C1519 C1524 1.391 . S
C1519 H1549 0.948 . S
C1520 C1519 1.391 . S
C1520 C1521 1.391 . S
C1521 C1520 1.391 . S
C1521 C1522 1.392 . S
C1521 H1550 0.947 . S
C1522 C1521 1.392 . S
C1522 C1523 1.419 . S
C1522 H1551 0.948 . S
C1523 C1522 1.419 . S
C1523 C1524 1.391 . S
C1523 C1527 1.397 . S
C1524 C1519 1.391 . S
C1524 C1523 1.391 . S
C1524 C1525 1.399 . S
C1525 C1524 1.399 . S
C1525 C1526 1.396 . S
C1525 C1528 1.453 . S
C1525 C1529 1.684 . S
C1526 C1507 1.723 . S
C1526 C1525 1.396 . S
C1526 C1527 1.394 . S
C1527 C1523 1.397 . S
C1527 C1526 1.394 . S
C1527 C1537 1.723 . S
C1528 C1525 1.453 . S
C1528 H1552 0.982 . S
C1528 H1553 0.979 . S
C1528 H1554 0.977 . S
C1529 C1525 1.684 . S
C1529 H1555 0.979 . S
C1529 H1556 0.980 . S
C1529 H1557 0.983 . S
C1530 H1506 0.948 . S
C1530 C1531 1.391 . S
C1530 C1535 1.391 . S
C1531 C1530 1.391 . S
C1531 C1532 1.391 . S
C1532 H1509 0.947 . S
C1532 C1531 1.391 . S
C1532 C1533 1.392 . S
C1533 H1510 0.948 . S
C1533 C1532 1.392 . S
C1533 C1534 1.419 . S
C1534 C1533 1.419 . S
C1534 C1535 1.391 . S
C1534 C1538 1.397 . S
C1535 C1530 1.391 . S
C1535 C1534 1.391 . S
C1535 C1536 1.399 . S
C1536 C1535 1.399 . S
C1536 C1537 1.396 . S
C1536 C1539 1.453 . S
C1536 C1540 1.684 . S
C1537 C1527 1.723 . S
C1537 C1536 1.396 . S
C1537 C1538 1.394 . S
C1538 C1508 1.723 . S
C1538 C1534 1.397 . S
C1538 C1537 1.394 . S
C1539 H1511 0.982 . S
C1539 H1515 0.979 . S
C1539 H1516 0.977 . S
C1539 C1536 1.453 . S
C1540 H1512 0.979 . S
C1540 H1513 0.980 . S
C1540 H1514 0.983 . S
C1540 C1536 1.684 . S
H1541 C1559 0.948 . S
H1542 C1500 0.948 . S
H1543 C1518 0.979 . S
H1544 C1518 0.980 . S
H1545 C1518 0.983 . S
H1546 C1517 0.982 . S
H1547 C1517 0.979 . S
H1548 C1517 0.977 . S
H1549 C1519 0.948 . S
H1550 C1521 0.947 . S
H1551 C1522 0.948 . S
H1552 C1528 0.982 . S
H1553 C1528 0.979 . S
H1554 C1528 0.977 . S
H1555 C1529 0.979 . S
H1556 C1529 0.980 . S
H1557 C1529 0.983 . S
H1558 C1502 0.947 . S
C1559 C1502 1.392 . S
C1559 C1503 1.419 . S
C1559 H1541 0.948 . S
C1560 C1561 1.391 . S
C1560 C1564 1.391 . S
C1560 H1602 0.948 . S
C1561 C1560 1.391 . S
C1561 C1562 1.391 . S
C1562 C1561 1.391 . S
C1562 H1618 0.947 . S
C1562 C1619 1.392 . S
C1563 C1564 1.391 . S
C1563 C1567 1.397 . S
C1563 C1619 1.419 . S
C1564 C1560 1.391 . S
C1564 C1563 1.391 . S
C1564 C1565 1.399 . S
C1565 C1564 1.399 . S
C1565 C1568 1.396 . S
C1565 C1577 1.453 . S
C1565 C1578 1.684 . S
H1566 C1590 0.948 . S
C1567 C1563 1.397 . S
C1567 C1568 1.394 . S
C1567 C1586 1.723 . S
C1568 C1565 1.396 . S
C1568 C1567 1.394 . S
C1568 C1598 1.723 . S
H1569 C1592 0.947 . S
H1570 C1593 0.948 . S
H1571 C1599 0.982 . S
H1572 C1600 0.979 . S
H1573 C1600 0.980 . S
H1574 C1600 0.983 . S
H1575 C1599 0.979 . S
H1576 C1599 0.977 . S
C1577 C1565 1.453 . S
C1577 H1606 0.982 . S
C1577 H1607 0.979 . S
C1577 H1608 0.977 . S
C1578 C1565 1.684 . S
C1578 H1603 0.979 . S
C1578 H1604 0.980 . S
C1578 H1605 0.983 . S
C1579 C1580 1.391 . S
C1579 C1584 1.391 . S
C1579 H1609 0.948 . S
C1580 C1579 1.391 . S
C1580 C1581 1.391 . S
C1581 C1580 1.391 . S
C1581 C1582 1.392 . S
C1581 H1610 0.947 . S
C1582 C1581 1.392 . S
C1582 C1583 1.419 . S
C1582 H1611 0.948 . S
C1583 C1582 1.419 . S
C1583 C1584 1.391 . S
C1583 C1587 1.397 . S
C1584 C1579 1.391 . S
C1584 C1583 1.391 . S
C1584 C1585 1.399 . S
C1585 C1584 1.399 . S
C1585 C1586 1.396 . S
C1585 C1588 1.453 . S
C1585 C1589 1.684 . S
C1586 C1567 1.723 . S
C1586 C1585 1.396 . S
C1586 C1587 1.394 . S
C1587 C1583 1.397 . S
C1587 C1586 1.394 . S
C1587 C1597 1.723 . S
C1588 C1585 1.453 . S
C1588 H1612 0.982 . S
C1588 H1613 0.979 . S
C1588 H1614 0.977 . S
C1589 C1585 1.684 . S
C1589 H1615 0.979 . S
C1589 H1616 0.980 . S
C1589 H1617 0.983 . S
C1590 H1566 0.948 . S
C1590 C1591 1.391 . S
C1590 C1595 1.391 . S
C1591 C1590 1.391 . S
C1591 C1592 1.391 . S
C1592 H1569 0.947 . S
C1592 C1591 1.391 . S
C1592 C1593 1.392 . S
C1593 H1570 0.948 . S
C1593 C1592 1.392 . S
C1593 C1594 1.419 . S
C1594 C1593 1.419 . S
C1594 C1595 1.391 . S
C1594 C1598 1.397 . S
C1595 C1590 1.391 . S
C1595 C1594 1.391 . S
C1595 C1596 1.399 . S
C1596 C1595 1.399 . S
C1596 C1597 1.396 . S
C1596 C1599 1.453 . S
C1596 C1600 1.684 . S
C1597 C1587 1.723 . S
C1597 C1596 1.396 . S
C1597 C1598 1.394 . S
C1598 C1568 1.723 . S
C1598 C1594 1.397 . S
C1598 C1597 1.394 . S
C1599 H1571 0.982 . S
C1599 H1575 0.979 . S
C1599 H1576 0.977 . S
C1599 C1596 1.453 . S
C1600 H1572 0.979 . S
C1600 H1573 0.980 . S
C1600 H1574 0.983 . S
C1600 C1596 1.684 . S
H1601 C1619 0.948 . S
H1602 C1560 0.948 . S
H1603 C1578 0.979 . S
H1604 C1578 0.980 . S
H1605 C1578 0.983 . S
H1606 C1577 0.982 . S
H1607 C1577 0.979 . S
H1608 C1577 0.977 . S
H1609 C1579 0.948 . S
H1610 C1581 0.947 . S
H1611 C1582 0.948 . S
H1612 C1588 0.982 . S
H1613 C1588 0.979 . S
H1614 C1588 0.977 . S
H1615 C1589 0.979 . S
H1616 C1589 0.980 . S
H1617 C1589 0.983 . S
H1618 C1562 0.947 . S
C1619 C1562 1.392 . S
C1619 C1563 1.419 . S
C1619 H1601 0.948 . S
C1620 C1621 1.391 . S
C1620 C1624 1.391 . S
C1620 H1662 0.948 . S
C1621 C1620 1.391 . S
C1621 C1622 1.391 . S
C1622 C1621 1.391 . S
C1622 H1678 0.947 . S
C1622 C1679 1.392 . S
C1623 C1624 1.391 . S
C1623 C1627 1.397 . S
C1623 C1679 1.419 . S
C1624 C1620 1.391 . S
C1624 C1623 1.391 . S
C1624 C1625 1.399 . S
C1625 C1624 1.399 . S
C1625 C1628 1.396 . S
C1625 C1637 1.453 . S
C1625 C1638 1.684 . S
H1626 C1650 0.948 . S
C1627 C1623 1.397 . S
C1627 C1628 1.394 . S
C1627 C1646 1.723 . S
C1628 C1625 1.396 . S
C1628 C1627 1.394 . S
C1628 C1658 1.723 . S
H1629 C1652 0.947 . S
H1630 C1653 0.948 . S
H1631 C1659 0.982 . S
H1632 C1660 0.979 . S
H1633 C1660 0.980 . S
H1634 C1660 0.983 . S
H1635 C1659 0.979 . S
H1636 C1659 0.977 . S
C1637 C1625 1.453 . S
C1637 H1666 0.982 . S
C1637 H1667 0.979 . S
C1637 H1668 0.977 . S
C1638 C1625 1.684 . S
C1638 H1663 0.979 . S
C1638 H1664 0.980 . S
C1638 H1665 0.983 . S
C1639 C1640 1.391 . S
C1639 C1644 1.391 . S
C1639 H1669 0.948 . S
C1640 C1639 1.391 . S
C1640 C1641 1.391 . S
C1641 C1640 1.391 . S
C1641 C1642 1.392 . S
C1641 H1670 0.947 . S
C1642 C1641 1.392 . S
C1642 C1643 1.419 . S
C1642 H1671 0.948 . S
C1643 C1642 1.419 . S
C1643 C1644 1.391 . S
C1643 C1647 1.397 . S
C1644 C1639 1.391 . S
C1644 C1643 1.391 . S
C1644 C1645 1.399 . S
C1645 C1644 1.399 . S
C1645 C1646 1.396 . S
C1645 C1648 1.453 . S
C1645 C1649 1.684 . S
C1646 C1627 1.723 . S
C1646 C1645 1.396 . S
C1646 C1647 1.394 . S
C1647 C1643 1.397 . S
C1647 C1646 1.394 . S
C1647 C1657 1.723 . S
C1648 C1645 1.453 . S
C1648 H1672 0.982 . S
C1648 H1673 0.979 . S
C1648 H1674 0.977 . S
C1649 C1645 1.684 . S
C1649 H1675 0.979 . S
C1649 H1676 0.980 . S
C1649 H1677 0.983 . S
C1650 H1626 0.948 . S
C1650 C1651 1.391 . S
C1650 C1655 1.391 . S
C1651 C1650 1.391 . S
C1651 C1652 1.391 . S
C1652 H1629 0.947 . S
C1652 C1651 1.391 . S
C1652 C1653 1.392 . S
C1653 H1630 0.948 . S
C1653 C1652 1.392 . S
C1653 C1654 1.419 . S
C1654 C1653 1.419 . S
C1654 C1655 1.391 . S
C1654 C1658 1.397 . S
C1655 C1650 1.391 . S
C1655 C1654 1.391 . S
C1655 C1656 1.399 . S
C1656 C1655 1.399 . S
C1656 C1657 1.396 . S
C1656 C1659 1.453 . S
C1656 C1660 1.684 . S
C1657 C1647 1.723 . S
C1657 C1656 1.396 . S
C1657 C1658 1.394 . S
C1658 C1628 1.723 . S
C1658 C1654 1.397 . S
C1658 C1657 1.394 . S
C1659 H1631 0.982 . S
C1659 H1635 0.979 . S
C1659 H1636 0.977 . S
C1659 C1656 1.453 . S
C1660 H1632 0.979 . S
C1660 H1633 0.980 . S
C1660 H1634 0.983 . S
C1660 C1656 1.684 . S
H1661 C1679 0.948 . S
H1662 C1620 0.948 . S
H1663 C1638 0.979 . S
H1664 C1638 0.980 . S
H1665 C1638 0.983 . S
H1666 C1637 0.982 . S
H1667 C1637 0.979 . S
H1668 C1637 0.977 . S
H1669 C1639 0.948 . S
H1670 C1641 0.947 . S
H1671 C1642 0.948 . S
H1672 C1648 0.982 . S
H1673 C1648 0.979 . S
H1674 C1648 0.977 . S
H1675 C1649 0.979 . S
H1676 C1649 0.980 . S
H1677 C1649 0.983 . S
H1678 C1622 0.947 . S
C1679 C1622 1.392 . S
C1679 C1623 1.419 . S
C1679 H1661 0.948 . S
C1680 C1681 1.391 . S
C1680 C1684 1.391 . S
C1680 H1722 0.948 . S
C1681 C1680 1.391 . S
C1681 C1682 1.391 . S
C1682 C1681 1.391 . S
C1682 H1738 0.947 . S
C1682 C1739 1.392 . S
C1683 C1684 1.391 . S
C1683 C1687 1.397 . S
C1683 C1739 1.419 . S
C1684 C1680 1.391 . S
C1684 C1683 1.391 . S
C1684 C1685 1.399 . S
C1685 C1684 1.399 . S
C1685 C1688 1.396 . S
C1685 C1697 1.453 . S
C1685 C1698 1.684 . S
H1686 C1710 0.948 . S
C1687 C1683 1.397 . S
C1687 C1688 1.394 . S
C1687 C1706 1.723 . S
C1688 C1685 1.396 . S
C1688 C1687 1.394 . S
C1688 C1718 1.723 . S
H1689 C1712 0.947 . S
H1690 C1713 0.948 . S
H1691 C1719 0.982 . S
H1692 C1720 0.979 . S
H1693 C1720 0.980 . S
H1694 C1720 0.983 . S
H1695 C1719 0.979 . S
H1696 C1719 0.977 . S
C1697 C1685 1.453 . S
C1697 H1726 0.982 . S
C1697 H1727 0.979 . S
C1697 H1728 0.977 . S
C1698 C1685 1.684 . S
C1698 H1723 0.979 . S
C1698 H1724 0.980 . S
C1698 H1725 0.983 . S
C1699 C1700 1.391 . S
C1699 C1704 1.391 . S
C1699 H1729 0.948 . S
C1700 C1699 1.391 . S
C1700 C1701 1.391 . S
C1701 C1700 1.391 . S
C1701 C1702 1.392 . S
C1701 H1730 0.947 . S
C1702 C1701 1.392 . S
C1702 C1703 1.419 . S
C1702 H1731 0.948 . S
C1703 C1702 1.419 . S
C1703 C1704 1.391 . S
C1703 C1707 1.397 . S
C1704 C1699 1.391 . S
C1704 C1703 1.391 . S
C1704 C1705 1.399 . S
C1705 C1704 1.399 . S
C1705 C1706 1.396 . S
C1705 C1708 1.453 . S
C1705 C1709 1.684 . S
C1706 C1687 1.723 . S
C1706 C1705 1.396 . S
C1706 C1707 1.394 . S
C1707 C1703 1.397 . S
C1707 C1706 1.394 . S
C1707 C1717 1.723 . S
C1708 C1705 1.453 . S
C1708 H1732 0.982 . S
C1708 H1733 0.979 . S
C1708 H1734 0.977 . S
C1709 C1705 1.684 . S
C1709 H1735 0.979 . S
C1709 H1736 0.980 . S
C1709 H1737 0.983 . S
C1710 H1686 0.948 . S
C1710 C1711 1.391 . S
C1710 C1715 1.391 . S
C1711 C1710 1.391 . S
C1711 C1712 1.391 . S
C1712 H1689 0.947 . S
C1712 C1711 1.391 . S
C1712 C1713 1.392 . S
C1713 H1690 0.948 . S
C1713 C1712 1.392 . S
C1713 C1714 1.419 . S
C1714 C1713 1.419 . S
C1714 C1715 1.391 . S
C1714 C1718 1.397 . S
C1715 C1710 1.391 . S
C1715 C1714 1.391 . S
C1715 C1716 1.399 . S
C1716 C1715 1.399 . S
C1716 C1717 1.396 . S
C1716 C1719 1.453 . S
C1716 C1720 1.684 . S
C1717 C1707 1.723 . S
C1717 C1716 1.396 . S
C1717 C1718 1.394 . S
C1718 C1688 1.723 . S
C1718 C1714 1.397 . S
C1718 C1717 1.394 . S
C1719 H1691 0.982 . S
C1719 H1695 0.979 . S
C1719 H1696 0.977 . S
C1719 C1716 1.453 . S
C1720 H1692 0.979 . S
C1720 H1693 0.980 . S
C1720 H1694 0.983 . S
C1720 C1716 1.684 . S
H1721 C1739 0.948 . S
H1722 C1680 0.948 . S
H1723 C1698 0.979 . S
H1724 C1698 0.980 . S
H1725 C1698 0.983 . S
H1726 C1697 0.982 . S
H1727 C1697 0.979 . S
H1728 C1697 0.977 . S
H1729 C1699 0.948 . S
H1730 C1701 0.947 . S
H1731 C1702 0.948 . S
H1732 C1708 0.982 . S
H1733 C1708 0.979 . S
H1734 C1708 0.977 . S
H1735 C1709 0.979 . S
H1736 C1709 0.980 . S
H1737 C1709 0.983 . S
H1738 C1682 0.947 . S
C1739 C1682 1.392 . S
C1739 C1683 1.419 . S
C1739 H1721 0.948 . S
C1740 C1741 1.391 . S
C1740 C1744 1.391 . S
C1740 H1782 0.948 . S
C1741 C1740 1.391 . S
C1741 C1742 1.391 . S
C1742 C1741 1.391 . S
C1742 H1798 0.947 . S
C1742 C1799 1.392 . S
C1743 C1744 1.391 . S
C1743 C1747 1.397 . S
C1743 C1799 1.419 . S
C1744 C1740 1.391 . S
C1744 C1743 1.391 . S
C1744 C1745 1.399 . S
C1745 C1744 1.399 . S
C1745 C1748 1.396 . S
C1745 C1757 1.453 . S
C1745 C1758 1.684 . S
H1746 C1770 0.948 . S
C1747 C1743 1.397 . S
C1747 C1748 1.394 . S
C1747 C1766 1.723 . S
C1748 C1745 1.396 . S
C1748 C1747 1.394 . S
C1748 C1778 1.723 . S
H1749 C1772 0.947 . S
H1750 C1773 0.948 . S
H1751 C1779 0.982 . S
H1752 C1780 0.979 . S
H1753 C1780 0.980 . S
H1754 C1780 0.983 . S
H1755 C1779 0.979 . S
H1756 C1779 0.977 . S
C1757 C1745 1.453 . S
C1757 H1786 0.982 . S
C1757 H1787 0.979 . S
C1757 H1788 0.977 . S
C1758 C1745 1.684 . S
C1758 H1783 0.979 . S
C1758 H1784 0.980 . S
C1758 H1785 0.983 . S
C1759 C1760 1.391 . S
C1759 C1764 1.391 . S
C1759 H1789 0.948 . S
C1760 C1759 1.391 . S
C1760 C1761 1.391 . S
C1761 C1760 1.391 . S
C1761 C1762 1.392 . S
C1761 H1790 0.947 . S
C1762 C1761 1.392 . S
C1762 C1763 1.419 . S
C1762 H1791 0.948 . S
C1763 C1762 1.419 . S
C1763 C1764 1.391 . S
C1763 C1767 1.397 . S
C1764 C1759 1.391 . S
C1764 C1763 1.391 . S
C1764 C1765 1.399 . S
C1765 C1764 1.399 . S
C1765 C1766 1.396 . S
C1765 C1768 1.453 . S
C1765 C1769 1.684 . S
C1766 C1747 1.723 . S
C1766 C1765 1.396 . S
C1766 C1767 1.394 . S
C1767 C1763 1.397 . S
C1767 C1766 1.394 . S
C1767 C1777 1.723 . S
C1768 C1765 1.453 . S
C1768 H1792 0.982 . S
C1768 H1793 0.979 . S
C1768 H1794 0.977 . S
C1769 C1765 1.684 . S
C1769 H1795 0.979 . S
C1769 H1796 0.980 . S
C1769 H1797 0.983 . S
C1770 H1746 0.948 . S
C1770 C1771 1.391 . S
C1770 C1775 1.391 . S
C1771 C1770 1.391 . S
C1771 C1772 1.391 . S
C1772 H1749 0.947 . S
C1772 C1771 1.391 . S
C1772 C1773 1.392 . S
C1773 H1750 0.948 . S
C1773 C1772 1.392 . S
C1773 C1774 1.419 . S
C1774 C1773 1.419 . S
C1774 C1775 1.391 . S
C1774 C1778 1.397 . S
C1775 C1770 1.391 . S
C1775 C1774 1.391 . S
C1775 C1776 1.399 . S
C1776 C1775 1.399 . S
C1776 C1777 1.396 . S
C1776 C1779 1.453 . S
C1776 C1780 1.684 . S
C1777 C1767 1.723 . S
C1777 C1776 1.396 . S
C1777 C1778 1.394 . S
C1778 C1748 1.723 . S
C1778 C1774 1.397 . S
C1778 C1777 1.394 . S
C1779 H1751 0.982 . S
C1779 H1755 0.979 . S
C1779 H1756 0.977 . S
C1779 C1776 1.453 . S
C1780 H1752 0.979 . S
C1780 H1753 0.980 . S
C1780 H1754 0.983 . S
C1780 C1776 1.684 . S
H1781 C1799 0.948 . S
H1782 C1740 0.948 . S
H1783 C1758 0.979 . S
H1784 C1758 0.980 . S
H1785 C1758 0.983 . S
H1786 C1757 0.982 . S
H1787 C1757 0.979 . S
H1788 C1757 0.977 . S
H1789 C1759 0.948 . S
H1790 C1761 0.947 . S
H1791 C1762 0.948 . S
H1792 C1768 0.982 . S
H1793 C1768 0.979 . S
H1794 C1768 0.977 . S
H1795 C1769 0.979 . S
H1796 C1769 0.980 . S
H1797 C1769 0.983 . S
H1798 C1742 0.947 . S
C1799 C1742 1.392 . S
C1799 C1743 1.419 . S
C1799 H1781 0.948 . S
C1800 C1801 1.391 . S
C1800 C1804 1.391 . S
C1800 H1842 0.948 . S
C1801 C1800 1.391 . S
C1801 C1802 1.391 . S
C1802 C1801 1.391 . S
C1802 H1858 0.947 . S
C1802 C1859 1.392 . S
C1803 C1804 1.391 . S
C1803 C1807 1.397 . S
C1803 C1859 1.419 . S
C1804 C1800 1.391 . S
C1804 C1803 1.391 . S
C1804 C1805 1.399 . S
C1805 C1804 1.399 . S
C1805 C1808 1.396 . S
C1805 C1817 1.453 . S
C1805 C1818 1.684 . S
H1806 C1830 0.948 . S
C1807 C1803 1.397 . S
C1807 C1808 1.394 . S
C1807 C1826 1.723 . S
C1808 C1805 1.396 . S
C1808 C1807 1.394 . S
C1808 C1838 1.723 . S
H1809 C1832 0.947 . S
H1810 C1833 0.948 . S
H1811 C1839 0.982 . S
H1812 C1840 0.979 . S
H1813 C1840 0.980 . S
H1814 C1840 0.983 . S
H1815 C1839 0.979 . S
H1816 C1839 0.977 . S
C1817 C1805 1.453 . S
C1817 H1846 0.982 . S
C1817 H1847 0.979 . S
C1817 H1848 0.977 . S
C1818 C1805 1.684 . S
C1818 H1843 0.979 . S
C1818 H1844 0.980 . S
C1818 H1845 0.983 . S
C1819 C1820 1.391 . S
C1819 C1824 1.391 . S
C1819 H1849 0.948 . S
C1820 C1819 1.391 . S
C1820 C1821 1.391 . S
C1821 C1820 1.391 . S
C1821 C1822 1.392 . S
C1821 H1850 0.947 . S
C1822 C1821 1.392 . S
C1822 C1823 1.419 . S
C1822 H1851 0.948 . S
C1823 C1822 1.419 . S
C1823 C1824 1.391 . S
C1823 C1827 1.397 . S
C1824 C1819 1.391 . S
C1824 C1823 1.391 . S
C1824 C1825 1.399 . S
C1825 C1824 1.399 . S
C1825 C1826 1.396 . S
C1825 C1828 1.453 . S
C1825 C1829 1.684 . S
C1826 C1807 1.723 . S
C1826 C1825 1.396 . S
C1826 C1827 1.394 . S
C1827 C1823 1.397 . S
C1827 C1826 1.394 . S
C1827 C1837 1.723 . S
C1828 C1825 1.453 . S
C1828 H1852 0.982 . S
C1828 H1853 0.979 . S
C1828 H1854 0.977 . S
C1829 C1825 1.684 . S
C1829 H1855 0.979 . S
C1829 H1856 0.980 . S
C1829 H1857 0.983 . S
C1830 H1806 0.948 . S
C1830 C1831 1.391 . S
C1830 C1835 1.391 . S
C1831 C1830 1.391 . S
C1831 C1832 1.391 . S
C1832 H1809 0.947 . S
C1832 C1831 1.391 . S
C1832 C1833 1.392 . S
C1833 H1810 0.948 . S
C1833 C1832 1.392 . S
C1833 C1834 1.419 . S
C1834 C1833 1.419 . S
C1834 C1835 1.391 . S
C1834 C1838 1.397 . S
C1835 C1830 1.391 . S
C1835 C1834 1.391 . S
C1835 C1836 1.399 . S
C1836 C1835 1.399 . S
C1836 C1837 1.396 . S
C1836 C1839 1.453 . S
C1836 C1840 1.684 . S
C1837 C1827 1.723 . S
C1837 C1836 1.396 . S
C1837 C1838 1.394 . S
C1838 C1808 1.723 . S
C1838 C1834 1.397 . S
C1838 C1837 1.394 . S
C1839 H1811 0.982 . S
C1839 H1815 0.979 . S
C1839 H1816 0.977 . S
C1839 C1836 1.453 . S
C1840 H1812 0.979 . S
C1840 H1813 0.980 . S
C1840 H1814 0.983 . S
C1840 C1836 1.684 . S
H1841 C1859 0.948 . S
H1842 C1800 0.948 . S
H1843 C1818 0.979 . S
H1844 C1818 0.980 . S
H1845 C1818 0.983 . S
H1846 C1817 0.982 . S
H1847 C1817 0.979 . S
H1848 C1817 0.977 . S
H1849 C1819 0.948 . S
H1850 C1821 0.947 . S
H1851 C1822 0.948 . S
H1852 C1828 0.982 . S
H1853 C1828 0.979 . S
H1854 C1828 0.977 . S
H1855 C1829 0.979 . S
H1856 C1829 0.980 . S
H1857 C1829 0.983 . S
H1858 C1802 0.947 . S
C1859 C1802 1.392 . S
C1859 C1803 1.419 . S
C1859 H1841 0.948 . S
C1860 C1861 1.391 . S
C1860 C1864 1.391 . S
C1860 H1902 0.948 . S
C1861 C1860 1.391 . S
C1861 C1862 1.391 . S
C1862 C1861 1.391 . S
C1862 H1918 0.947 . S
C1862 C1919 1.392 . S
C1863 C1864 1.391 . S
C1863 C1867 1.397 . S
C1863 C1919 1.419 . S
C1864 C1860 1.391 . S
C1864 C1863 1.391 . S
C1864 C1865 1.399 . S
C1865 C1864 1.399 . S
C1865 C1868 1.396 . S
C1865 C1877 1.453 . S
C1865 C1878 1.684 . S
H1866 C1890 0.948 . S
C1867 C1863 1.397 . S
C1867 C1868 1.394 . S
C1867 C1886 1.723 . S
C1868 C1865 1.396 . S
C1868 C1867 1.394 . S
C1868 C1898 1.723 . S
H1869 C1892 0.947 . S
H1870 C1893 0.948 . S
H1871 C1899 0.982 . S
H1872 C1900 0.979 . S
H1873 C1900 0.980 . S
H1874 C1900 0.983 . S
H1875 C1899 0.979 . S
H1876 C1899 0.977 . S
C1877 C1865 1.453 . S
C1877 H1906 0.982 . S
C1877 H1907 0.979 . S
C1877 H1908 0.977 . S
C1878 C1865 1.684 . S
C1878 H1903 0.979 . S
C1878 H1904 0.980 . S
C1878 H1905 0.983 . S
C1879 C1880 1.391 . S
C1879 C1884 1.391 . S
C1879 H1909 0.948 . S
C1880 C1879 1.391 . S
C1880 C1881 1.391 . S
C1881 C1880 1.391 . S
C1881 C1882 1.392 . S
C1881 H1910 0.947 . S
C1882 C1881 1.392 . S
C1882 C1883 1.419 . S
C1882 H1911 0.948 . S
C1883 C1882 1.419 . S
C1883 C1884 1.391 . S
C1883 C1887 1.397 . S
C1884 C1879 1.391 . S
C1884 C1883 1.391 . S
C1884 C1885 1.399 . S
C1885 C1884 1.399 . S
C1885 C1886 1.396 . S
C1885 C1888 1.453 . S
C1885 C1889 1.684 . S
C1886 C1867 1.723 . S
C1886 C1885 1.396 . S
C1886 C1887 1.394 . S
C1887 C1883 1.397 . S
C1887 C1886 1.394 . S
C1887 C1897 1.723 . S
C1888 C1885 1.453 . S
C1888 H1912 0.982 . S
C1888 H1913 0.979 . S
C1888 H1914 0.977 . S
C1889 C1885 1.684 . S
C1889 H1915 0.979 . S
C1889 H1916 0.980 . S
C1889 H1917 0.983 . S
C1890 H1866 0.948 . S
C1890 C1891 1.391 . S
C1890 C1895 1.391 . S
C1891 C1890 1.391 . S
C1891 C1892 1.391 . S
C1892 H1869 0.947 . S
C1892 C1891 1.391 . S
C1892 C1893 1.392 . S
C1893 H1870 0.948 . S
C1893 C1892 1.392 . S
C1893 C1894 1.419 . S
C1894 C1893 1.419 . S
C1894 C1895 1.391 . S
C1894 C1898 1.397 . S
C1895 C1890 1.391 . S
C1895 C1894 1.391 . S
C1895 C1896 1.399 . S
C1896 C1895 1.399 . S
C1896 C1897 1.396 . S
C1896 C1899 1.453 . S
C1896 C1900 1.684 . S
C1897 C1887 1.723 . S
C1897 C1896 1.396 . S
C1897 C1898 1.394 . S
C1898 C1868 1.723 . S
C1898 C1894 1.397 . S
C1898 C1897 1.394 . S
C1899 H1871 0.982 . S
C1899 H1875 0.979 . S
C1899 H1876 0.977 . S
C1899 C1896 1.453 . S
C1900 H1872 0.979 . S
C1900 H1873 0.980 . S
C1900 H1874 0.983 . S
C1900 C1896 1.684 . S
H1901 C1919 0.948 . S
H1902 C1860 0.948 . S
H1903 C1878 0.979 . S
H1904 C1878 0.980 . S
H1905 C1878 0.983 . S
H1906 C1877 0.982 . S
H1907 C1877 0.979 . S
H1908 C1877 0.977 . S
H1909 C1879 0.948 . S
H1910 C1881 0.947 . S
H1911 C1882 0.948 . S
H1912 C1888 0.982 . S
H1913 C1888 0.979 . S
H1914 C1888 0.977 . S
H1915 C1889 0.979 . S
H1916 C1889 0.980 . S
H1917 C1889 0.983 . S
H1918 C1862 0.947 . S
C1919 C1862 1.392 . S
C1919 C1863 1.419 . S
C1919 H1901 0.948 . S
Cu1920 N1921 1.999 . S
Cu1920 O1926 1.974 1_554 S
Cu1920 N1931 1.985 . S
Cu1920 O1940 1.959 . S
N1921 Cu1920 1.999 . S
N1921 C1923 1.263 1_554 S
N1921 C1925 1.389 . S
N1922 C1923 1.358 . S
N1922 C1924 1.400 . S
C1923 N1921 1.263 1_556 S
C1923 N1922 1.358 . S
C1923 H1929 0.930 . S
C1924 N1922 1.400 . S
C1924 C1925 1.351 1_556 S
C1924 H1941 0.930 . S
C1925 N1921 1.389 . S
C1925 C1924 1.351 1_554 S
C1925 H1930 0.930 . S
O1926 Cu1920 1.974 1_556 S
O1926 C1936 1.282 . S
C1927 O1928 1.261 . S
C1927 O1940 1.251 . S
O1928 C1927 1.261 . S
H1929 C1923 0.930 . S
H1930 C1925 0.930 . S
N1931 Cu1920 1.985 . S
N1931 C1933 1.335 . S
N1931 C1934 1.390 . S
N1932 C1933 1.345 . S
N1932 C1935 1.336 . S
C1933 N1931 1.335 . S
C1933 N1932 1.345 . S
C1933 H1938 0.930 . S
C1934 N1931 1.390 . S
C1934 C1935 1.346 . S
C1934 H1939 0.930 . S
C1935 N1932 1.336 . S
C1935 C1934 1.346 . S
C1935 H1942 0.929 . S
C1936 O1926 1.282 . S
C1936 O1937 1.216 . S
O1937 C1936 1.216 . S
H1938 C1933 0.930 . S
H1939 C1934 0.930 . S
O1940 Cu1920 1.959 . S
O1940 C1927 1.251 . S
H1941 C1924 0.930 . S
H1942 C1935 0.929 . S
Cu1943 N1944 1.999 . S
Cu1943 O1949 1.974 . S
Cu1943 N1954 1.985 1_554 S
Cu1943 O1963 1.959 1_554 S
N1944 Cu1943 1.999 . S
N1944 C1946 1.263 . S
N1944 C1948 1.389 . S
N1945 C1946 1.358 . S
N1945 C1947 1.400 . S
C1946 N1944 1.263 . S
C1946 N1945 1.358 . S
C1946 H1952 0.930 . S
C1947 N1945 1.400 . S
C1947 C1948 1.351 . S
C1947 H1964 0.930 . S
C1948 N1944 1.389 . S
C1948 C1947 1.351 . S
C1948 H1953 0.930 . S
O1949 Cu1943 1.974 . S
O1949 C1959 1.282 . S
C1950 O1951 1.261 . S
C1950 O1963 1.251 . S
O1951 C1950 1.261 . S
H1952 C1946 0.930 . S
H1953 C1948 0.930 . S
N1954 Cu1943 1.985 1_556 S
N1954 C1956 1.335 . S
N1954 C1957 1.390 . S
N1955 C1956 1.345 . S
N1955 C1958 1.336 . S
C1956 N1954 1.335 . S
C1956 N1955 1.345 . S
C1956 H1961 0.930 . S
C1957 N1954 1.390 . S
C1957 C1958 1.346 . S
C1957 H1962 0.930 1_556 S
C1958 N1955 1.336 . S
C1958 C1957 1.346 . S
C1958 H1965 0.929 . S
C1959 O1949 1.282 . S
C1959 O1960 1.216 . S
O1960 C1959 1.216 . S
H1961 C1956 0.930 . S
H1962 C1957 0.930 1_554 S
O1963 Cu1943 1.959 1_556 S
O1963 C1950 1.251 . S
H1964 C1947 0.930 . S
H1965 C1958 0.929 . S
Cu1966 N1967 1.964 1_554 S
Cu1966 O1972 1.931 1_554 S
Cu1966 N1977 2.020 . S
Cu1966 O1986 2.002 . S
N1967 Cu1966 1.964 1_556 S
N1967 C1969 1.263 . S
N1967 C1971 1.389 . S
N1968 C1969 1.358 . S
N1968 C1970 1.400 . S
C1969 N1967 1.263 . S
C1969 N1968 1.358 . S
C1969 H1975 0.930 . S
C1970 N1968 1.400 . S
C1970 C1971 1.351 . S
C1970 H1987 0.930 . S
C1971 N1967 1.389 . S
C1971 C1970 1.351 . S
C1971 H1976 0.930 . S
O1972 Cu1966 1.931 1_556 S
O1972 C1982 1.282 . S
C1973 O1974 1.261 . S
C1973 O1986 1.251 . S
O1974 C1973 1.261 . S
H1975 C1969 0.930 . S
H1976 C1971 0.930 . S
N1977 Cu1966 2.020 . S
N1977 C1979 1.335 . S
N1977 C1980 1.390 . S
N1978 C1979 1.345 . S
N1978 C1981 1.336 . S
C1979 N1977 1.335 . S
C1979 N1978 1.345 . S
C1979 H1984 0.930 . S
C1980 N1977 1.390 . S
C1980 C1981 1.346 . S
C1980 H1985 0.992 . S
C1981 N1978 1.336 . S
C1981 C1980 1.346 . S
C1981 H1988 0.929 . S
C1982 O1972 1.282 . S
C1982 O1983 1.216 . S
O1983 C1982 1.216 . S
H1984 C1979 0.930 . S
H1985 C1980 0.992 . S
O1986 Cu1966 2.002 . S
O1986 C1973 1.251 . S
H1987 C1970 0.930 . S
H1988 C1981 0.929 . S
Cu1989 N1990 2.047 . S
Cu1989 O1995 2.030 . S
Cu1989 N2000 1.941 1_554 S
Cu1989 O2009 1.904 1_554 S
N1990 Cu1989 2.047 . S
N1990 C1992 1.263 . S
N1990 C1994 1.389 . S
N1991 C1992 1.358 . S
N1991 C1993 1.400 . S
C1992 N1990 1.263 . S
C1992 N1991 1.358 . S
C1992 H1998 0.930 . S
C1993 N1991 1.400 . S
C1993 C1994 1.351 . S
C1993 H2010 0.930 . S
C1994 N1990 1.389 . S
C1994 C1993 1.351 . S
C1994 H1999 0.930 . S
O1995 Cu1989 2.030 . S
O1995 C2005 1.282 . S
C1996 O1997 1.261 . S
C1996 O2009 1.251 . S
O1997 C1996 1.261 . S
H1998 C1992 0.930 . S
H1999 C1994 0.930 . S
N2000 Cu1989 1.941 1_556 S
N2000 C2002 1.335 . S
N2000 C2003 1.390 . S
N2001 C2002 1.345 . S
N2001 C2004 1.336 . S
C2002 N2000 1.335 . S
C2002 N2001 1.345 . S
C2002 H2007 0.930 . S
C2003 N2000 1.390 . S
C2003 C2004 1.346 . S
C2003 H2008 0.883 1_556 S
C2004 N2001 1.336 . S
C2004 C2003 1.346 . S
C2004 H2011 0.929 . S
C2005 O1995 1.282 . S
C2005 O2006 1.216 . S
O2006 C2005 1.216 . S
H2007 C2002 0.930 . S
H2008 C2003 0.883 1_554 S
O2009 Cu1989 1.904 1_556 S
O2009 C1996 1.251 . S
H2010 C1993 0.930 . S
H2011 C2004 0.929 . S
Cu2012 N2013 1.999 . S
Cu2012 O2018 1.974 . S
Cu2012 N2023 1.985 1_455 S
Cu2012 O2032 1.959 1_455 S
N2013 Cu2012 1.999 . S
N2013 C2015 1.263 . S
N2013 C2017 1.389 . S
N2014 C2015 1.358 . S
N2014 C2016 1.400 . S
C2015 N2013 1.263 . S
C2015 N2014 1.358 . S
C2015 H2021 0.930 . S
C2016 N2014 1.400 . S
C2016 C2017 1.351 . S
C2016 H2033 0.930 . S
C2017 N2013 1.389 . S
C2017 C2016 1.351 . S
C2017 H2022 0.930 . S
O2018 Cu2012 1.974 . S
O2018 C2028 1.282 . S
C2019 O2020 1.261 . S
C2019 O2032 1.251 . S
O2020 C2019 1.261 . S
H2021 C2015 0.930 . S
H2022 C2017 0.930 . S
N2023 Cu2012 1.985 1_655 S
N2023 C2025 1.335 . S
N2023 C2026 1.389 . S
N2024 C2025 1.345 . S
N2024 C2027 1.336 . S
C2025 N2023 1.335 . S
C2025 N2024 1.345 . S
C2025 H2030 0.930 . S
C2026 N2023 1.389 . S
C2026 C2027 1.341 . S
C2026 H2031 0.936 1_655 S
C2027 N2024 1.336 . S
C2027 C2026 1.341 . S
C2027 H2034 0.929 . S
C2028 O2018 1.282 . S
C2028 O2029 1.216 . S
O2029 C2028 1.216 . S
H2030 C2025 0.930 . S
H2031 C2026 0.936 1_455 S
O2032 Cu2012 1.959 1_655 S
O2032 C2019 1.251 . S
H2033 C2016 0.930 . S
H2034 C2027 0.929 . S
Cu2035 N2036 1.999 . S
Cu2035 O2041 1.974 . S
Cu2035 N2046 1.985 1_545 S
Cu2035 O2055 1.959 1_545 S
N2036 Cu2035 1.999 . S
N2036 C2038 1.263 . S
N2036 C2040 1.389 . S
N2037 C2038 1.358 . S
N2037 C2039 1.400 . S
C2038 N2036 1.263 . S
C2038 N2037 1.358 . S
C2038 H2044 0.930 . S
C2039 N2037 1.400 . S
C2039 C2040 1.351 . S
C2039 H2056 0.930 . S
C2040 N2036 1.389 . S
C2040 C2039 1.351 . S
C2040 H2045 0.930 . S
O2041 Cu2035 1.974 . S
O2041 C2051 1.282 . S
C2042 O2043 1.261 . S
C2042 O2055 1.251 . S
O2043 C2042 1.261 . S
H2044 C2038 0.930 . S
H2045 C2040 0.930 . S
N2046 Cu2035 1.985 1_565 S
N2046 C2048 1.335 . S
N2046 C2049 1.390 . S
N2047 C2048 1.345 . S
N2047 C2050 1.336 . S
C2048 N2046 1.335 . S
C2048 N2047 1.345 . S
C2048 H2053 0.930 . S
C2049 N2046 1.390 . S
C2049 C2050 1.346 . S
C2049 H2054 0.930 1_565 S
C2050 N2047 1.336 . S
C2050 C2049 1.346 . S
C2050 H2057 0.929 . S
C2051 O2041 1.282 . S
C2051 O2052 1.216 . S
O2052 C2051 1.216 . S
H2053 C2048 0.930 . S
H2054 C2049 0.930 1_545 S
O2055 Cu2035 1.959 1_565 S
O2055 C2042 1.251 . S
H2056 C2039 0.930 . S
H2057 C2050 0.929 . S
Cu2058 N2059 1.998 1_455 S
Cu2058 O2064 1.972 1_455 S
Cu2058 N2069 1.986 . S
Cu2058 O2078 1.961 . S
N2059 Cu2058 1.998 1_655 S
N2059 C2061 1.263 . S
N2059 C2063 1.389 . S
N2060 C2061 1.358 . S
N2060 C2062 1.400 . S
C2061 N2059 1.263 . S
C2061 N2060 1.358 . S
C2061 H2067 0.930 . S
C2062 N2060 1.400 . S
C2062 C2063 1.351 . S
C2062 H2079 0.930 . S
C2063 N2059 1.389 . S
C2063 C2062 1.351 . S
C2063 H2068 0.930 . S
O2064 Cu2058 1.972 1_655 S
O2064 C2074 1.282 . S
C2065 O2066 1.261 . S
C2065 O2078 1.251 . S
O2066 C2065 1.261 . S
H2067 C2061 0.930 . S
H2068 C2063 0.930 . S
N2069 Cu2058 1.986 . S
N2069 C2071 1.335 . S
N2069 C2072 1.390 . S
N2070 C2071 1.345 . S
N2070 C2073 1.336 . S
C2071 N2069 1.335 . S
C2071 N2070 1.345 . S
C2071 H2076 0.930 . S
C2072 N2069 1.390 . S
C2072 C2073 1.346 . S
C2072 H2077 0.930 . S
C2073 N2070 1.336 . S
C2073 C2072 1.346 . S
C2073 H2080 0.929 . S
C2074 O2064 1.282 . S
C2074 O2075 1.216 . S
O2075 C2074 1.216 . S
H2076 C2071 0.930 . S
H2077 C2072 0.930 . S
O2078 Cu2058 1.961 . S
O2078 C2065 1.251 . S
H2079 C2062 0.930 . S
H2080 C2073 0.929 . S
Cu2081 N2082 1.990 1_565 S
Cu2081 O2087 1.962 1_565 S
Cu2081 N2092 1.994 . S
Cu2081 O2101 1.971 . S
N2082 Cu2081 1.990 1_545 S
N2082 C2084 1.263 . S
N2082 C2086 1.389 . S
N2083 C2084 1.358 . S
N2083 C2085 1.400 . S
C2084 N2082 1.263 . S
C2084 N2083 1.358 . S
C2084 H2090 0.930 . S
C2085 N2083 1.400 . S
C2085 C2086 1.351 . S
C2085 H2102 0.930 . S
C2086 N2082 1.389 . S
C2086 C2085 1.351 . S
C2086 H2091 0.930 . S
O2087 Cu2081 1.962 1_545 S
O2087 C2097 1.282 . S
C2088 O2089 1.261 . S
C2088 O2101 1.251 . S
O2089 C2088 1.261 . S
H2090 C2084 0.930 . S
H2091 C2086 0.930 . S
N2092 Cu2081 1.994 . S
N2092 C2094 1.335 . S
N2092 C2095 1.390 . S
N2093 C2094 1.345 . S
N2093 C2096 1.336 . S
C2094 N2092 1.335 . S
C2094 N2093 1.345 . S
C2094 H2099 0.930 . S
C2095 N2092 1.390 . S
C2095 C2096 1.346 . S
C2095 H2100 1.021 . S
C2096 N2093 1.336 . S
C2096 C2095 1.346 . S
C2096 H2103 0.929 . S
C2097 O2087 1.282 . S
C2097 O2098 1.216 . S
O2098 C2097 1.216 . S
H2099 C2094 0.930 . S
H2100 C2095 1.021 . S
O2101 Cu2081 1.971 . S
O2101 C2088 1.251 . S
H2102 C2085 0.930 . S
H2103 C2096 0.929 . S
Cu2104 N2105 1.999 . S
Cu2104 O2110 1.974 . S
Cu2104 N2115 1.985 1_455 S
Cu2104 O2124 1.959 1_455 S
N2105 Cu2104 1.999 . S
N2105 C2107 1.263 . S
N2105 C2109 1.389 . S
N2106 C2107 1.358 . S
N2106 C2108 1.400 . S
C2107 N2105 1.263 . S
C2107 N2106 1.358 . S
C2107 H2113 0.930 . S
C2108 N2106 1.400 . S
C2108 C2109 1.351 . S
C2108 H2125 0.930 . S
C2109 N2105 1.389 . S
C2109 C2108 1.351 . S
C2109 H2114 0.930 . S
O2110 Cu2104 1.974 . S
O2110 C2120 1.282 . S
C2111 O2112 1.261 . S
C2111 O2124 1.251 . S
O2112 C2111 1.261 . S
H2113 C2107 0.930 . S
H2114 C2109 0.930 . S
N2115 Cu2104 1.985 1_655 S
N2115 C2117 1.335 . S
N2115 C2118 1.401 . S
N2116 C2117 1.345 . S
N2116 C2119 1.336 . S
C2117 N2115 1.335 . S
C2117 N2116 1.345 . S
C2117 H2122 0.930 . S
C2118 N2115 1.401 . S
C2118 C2119 1.391 . S
C2118 H2123 0.885 1_655 S
C2119 N2116 1.336 . S
C2119 C2118 1.391 . S
C2119 H2126 0.929 . S
C2120 O2110 1.282 . S
C2120 O2121 1.216 . S
O2121 C2120 1.216 . S
H2122 C2117 0.930 . S
H2123 C2118 0.885 1_455 S
O2124 Cu2104 1.959 1_655 S
O2124 C2111 1.251 . S
H2125 C2108 0.930 . S
H2126 C2119 0.929 . S
Cu2127 N2128 1.999 . S
Cu2127 O2133 1.974 . S
Cu2127 N2138 1.985 1_545 S
Cu2127 O2147 1.959 1_545 S
N2128 Cu2127 1.999 . S
N2128 C2130 1.263 . S
N2128 C2132 1.389 . S
N2129 C2130 1.358 . S
N2129 C2131 1.400 . S
C2130 N2128 1.263 . S
C2130 N2129 1.358 . S
C2130 H2136 0.930 . S
C2131 N2129 1.400 . S
C2131 C2132 1.351 . S
C2131 H2148 0.930 . S
C2132 N2128 1.389 . S
C2132 C2131 1.351 . S
C2132 H2137 0.930 . S
O2133 Cu2127 1.974 . S
O2133 C2143 1.282 . S
C2134 O2135 1.261 . S
C2134 O2147 1.251 . S
O2135 C2134 1.261 . S
H2136 C2130 0.930 . S
H2137 C2132 0.930 . S
N2138 Cu2127 1.985 1_565 S
N2138 C2140 1.335 . S
N2138 C2141 1.376 1_565 S
N2139 C2140 1.345 . S
N2139 C2142 1.336 . S
C2140 N2138 1.335 . S
C2140 N2139 1.345 . S
C2140 H2145 0.930 . S
C2141 N2138 1.376 1_545 S
C2141 C2142 1.270 1_545 S
C2141 H2146 1.010 . S
C2142 N2139 1.336 . S
C2142 C2141 1.270 1_565 S
C2142 H2149 0.929 . S
C2143 O2133 1.282 . S
C2143 O2144 1.216 . S
O2144 C2143 1.216 . S
H2145 C2140 0.930 . S
H2146 C2141 1.010 . S
O2147 Cu2127 1.959 1_565 S
O2147 C2134 1.251 . S
H2148 C2131 0.930 . S
H2149 C2142 0.929 . S
Cu2150 N2151 1.999 . S
Cu2150 O2156 1.974 . S
Cu2150 N2161 1.985 . S
Cu2150 O2170 1.959 . S
N2151 Cu2150 1.999 . S
N2151 C2153 1.263 1_455 S
N2151 C2155 1.389 . S
N2152 C2153 1.358 . S
N2152 C2154 1.400 . S
C2153 N2151 1.263 1_655 S
C2153 N2152 1.358 . S
C2153 H2159 0.930 . S
C2154 N2152 1.400 . S
C2154 C2155 1.351 1_655 S
C2154 H2171 0.930 . S
C2155 N2151 1.389 . S
C2155 C2154 1.351 1_455 S
C2155 H2160 0.930 . S
O2156 Cu2150 1.974 . S
O2156 C2166 1.282 1_455 S
C2157 O2158 1.261 . S
C2157 O2170 1.251 . S
O2158 C2157 1.261 . S
H2159 C2153 0.930 . S
H2160 C2155 0.930 . S
N2161 Cu2150 1.985 . S
N2161 C2163 1.335 . S
N2161 C2164 1.390 . S
N2162 C2163 1.345 . S
N2162 C2165 1.336 . S
C2163 N2161 1.335 . S
C2163 N2162 1.345 . S
C2163 H2168 0.930 . S
C2164 N2161 1.390 . S
C2164 C2165 1.346 . S
C2164 H2169 0.930 . S
C2165 N2162 1.336 . S
C2165 C2164 1.346 . S
C2165 H2172 0.929 . S
C2166 O2156 1.282 1_655 S
C2166 O2167 1.216 1_655 S
O2167 C2166 1.216 1_455 S
H2168 C2163 0.930 . S
H2169 C2164 0.930 . S
O2170 Cu2150 1.959 . S
O2170 C2157 1.251 . S
H2171 C2154 0.930 . S
H2172 C2165 0.929 . S
Cu2173 N2174 1.999 . S
Cu2173 O2179 1.974 . S
Cu2173 N2184 2.026 . S
Cu2173 O2193 1.959 1_545 S
N2174 Cu2173 1.999 . S
N2174 C2176 1.263 . S
N2174 C2178 1.389 . S
N2175 C2176 1.358 . S
N2175 C2177 1.400 . S
C2176 N2174 1.263 . S
C2176 N2175 1.358 . S
C2176 H2182 0.930 . S
C2177 N2175 1.400 . S
C2177 C2178 1.351 . S
C2177 H2194 0.930 . S
C2178 N2174 1.389 . S
C2178 C2177 1.351 . S
C2178 H2183 0.930 . S
O2179 Cu2173 1.974 . S
O2179 C2189 1.282 . S
C2180 O2181 1.259 1_565 S
C2180 O2193 1.251 . S
O2181 C2180 1.259 1_545 S
H2182 C2176 0.930 . S
H2183 C2178 0.930 . S
N2184 Cu2173 2.026 . S
N2184 C2186 1.271 1_545 S
N2184 C2187 1.406 . S
N2185 C2186 1.345 . S
N2185 C2188 1.336 . S
C2186 N2184 1.271 1_565 S
C2186 N2185 1.345 . S
C2186 H2191 0.930 . S
C2187 N2184 1.406 . S
C2187 C2188 1.346 1_545 S
C2187 H2192 0.930 . S
C2188 N2185 1.336 . S
C2188 C2187 1.346 1_565 S
C2188 H2195 0.929 . S
C2189 O2179 1.282 . S
C2189 O2190 1.216 . S
O2190 C2189 1.216 . S
H2191 C2186 0.930 . S
H2192 C2187 0.930 . S
O2193 Cu2173 1.959 1_565 S
O2193 C2180 1.251 . S
H2194 C2177 0.930 . S
H2195 C2188 0.929 . S
Cu2196 N2197 1.999 . S
Cu2196 O2202 1.974 . S
Cu2196 N2207 1.985 . S
Cu2196 O2216 1.959 . S
N2197 Cu2196 1.999 . S
N2197 C2199 1.263 . S
N2197 C2201 1.389 . S
N2198 C2199 1.358 . S
N2198 C2200 1.400 . S
C2199 N2197 1.263 . S
C2199 N2198 1.358 . S
C2199 H2205 0.930 . S
C2200 N2198 1.400 . S
C2200 C2201 1.351 . S
C2200 H2217 0.930 . S
C2201 N2197 1.389 . S
C2201 C2200 1.351 . S
C2201 H2206 0.930 . S
O2202 Cu2196 1.974 . S
O2202 C2212 1.282 . S
C2203 O2204 1.261 . S
C2203 O2216 1.251 . S
O2204 C2203 1.261 . S
H2205 C2199 0.930 . S
H2206 C2201 0.930 . S
N2207 Cu2196 1.985 . S
N2207 C2209 1.335 . S
N2207 C2210 1.390 . S
N2208 C2209 1.345 . S
N2208 C2211 1.336 . S
C2209 N2207 1.335 . S
C2209 N2208 1.345 . S
C2209 H2214 0.930 . S
C2210 N2207 1.390 . S
C2210 C2211 1.346 . S
C2210 H2215 0.930 . S
C2211 N2208 1.336 . S
C2211 C2210 1.346 . S
C2211 H2218 0.929 . S
C2212 O2202 1.282 . S
C2212 O2213 1.216 . S
O2213 C2212 1.216 . S
H2214 C2209 0.930 . S
H2215 C2210 0.930 . S
O2216 Cu2196 1.959 . S
O2216 C2203 1.251 . S
H2217 C2200 0.930 . S
H2218 C2211 0.929 . S
Cu2219 N2220 1.999 . S
Cu2219 O2225 1.974 . S
Cu2219 N2230 1.985 . S
Cu2219 O2239 1.959 . S
N2220 Cu2219 1.999 . S
N2220 C2222 1.263 . S
N2220 C2224 1.389 . S
N2221 C2222 1.358 . S
N2221 C2223 1.400 . S
C2222 N2220 1.263 . S
C2222 N2221 1.358 . S
C2222 H2228 0.930 . S
C2223 N2221 1.400 . S
C2223 C2224 1.351 . S
C2223 H2240 0.930 . S
C2224 N2220 1.389 . S
C2224 C2223 1.351 . S
C2224 H2229 0.930 . S
O2225 Cu2219 1.974 . S
O2225 C2235 1.282 . S
C2226 O2227 1.261 . S
C2226 O2239 1.251 . S
O2227 C2226 1.261 . S
H2228 C2222 0.930 . S
H2229 C2224 0.930 . S
N2230 Cu2219 1.985 . S
N2230 C2232 1.335 . S
N2230 C2233 1.390 . S
N2231 C2232 1.345 . S
N2231 C2234 1.336 . S
C2232 N2230 1.335 . S
C2232 N2231 1.345 . S
C2232 H2237 0.930 . S
C2233 N2230 1.390 . S
C2233 C2234 1.346 . S
C2233 H2238 0.930 . S
C2234 N2231 1.336 . S
C2234 C2233 1.346 . S
C2234 H2241 0.929 . S
C2235 O2225 1.282 . S
C2235 O2236 1.216 . S
O2236 C2235 1.216 . S
H2237 C2232 0.930 . S
H2238 C2233 0.930 . S
O2239 Cu2219 1.959 . S
O2239 C2226 1.251 . S
H2240 C2223 0.930 . S
H2241 C2234 0.929 . S
Cu2242 N2243 1.999 . S
Cu2242 O2248 1.974 . S
Cu2242 N2253 1.985 . S
Cu2242 O2262 1.959 . S
N2243 Cu2242 1.999 . S
N2243 C2245 1.263 . S
N2243 C2247 1.389 . S
N2244 C2245 1.358 . S
N2244 C2246 1.400 . S
C2245 N2243 1.263 . S
C2245 N2244 1.358 . S
C2245 H2251 0.930 . S
C2246 N2244 1.400 . S
C2246 C2247 1.351 . S
C2246 H2263 0.930 . S
C2247 N2243 1.389 . S
C2247 C2246 1.351 . S
C2247 H2252 0.930 . S
O2248 Cu2242 1.974 . S
O2248 C2258 1.282 . S
C2249 O2250 1.261 . S
C2249 O2262 1.251 . S
O2250 C2249 1.261 . S
H2251 C2245 0.930 . S
H2252 C2247 0.930 . S
N2253 Cu2242 1.985 . S
N2253 C2255 1.335 . S
N2253 C2256 1.390 . S
N2254 C2255 1.345 . S
N2254 C2257 1.336 . S
C2255 N2253 1.335 . S
C2255 N2254 1.345 . S
C2255 H2260 0.930 . S
C2256 N2253 1.390 . S
C2256 C2257 1.346 . S
C2256 H2261 0.930 . S
C2257 N2254 1.336 . S
C2257 C2256 1.346 . S
C2257 H2264 0.929 . S
C2258 O2248 1.282 . S
C2258 O2259 1.216 . S
O2259 C2258 1.216 . S
H2260 C2255 0.930 . S
H2261 C2256 0.930 . S
O2262 Cu2242 1.959 . S
O2262 C2249 1.251 . S
H2263 C2246 0.930 . S
H2264 C2257 0.929 . S
Cu2265 N2266 1.999 . S
Cu2265 O2271 1.974 . S
Cu2265 N2276 1.985 . S
Cu2265 O2285 1.959 . S
N2266 Cu2265 1.999 . S
N2266 C2268 1.263 . S
N2266 C2270 1.389 . S
N2267 C2268 1.358 . S
N2267 C2269 1.400 . S
C2268 N2266 1.263 . S
C2268 N2267 1.358 . S
C2268 H2274 0.930 . S
C2269 N2267 1.400 . S
C2269 C2270 1.351 . S
C2269 H2286 0.930 . S
C2270 N2266 1.389 . S
C2270 C2269 1.351 . S
C2270 H2275 0.930 . S
O2271 Cu2265 1.974 . S
O2271 C2281 1.282 . S
C2272 O2273 1.261 . S
C2272 O2285 1.251 . S
O2273 C2272 1.261 . S
H2274 C2268 0.930 . S
H2275 C2270 0.930 . S
N2276 Cu2265 1.985 . S
N2276 C2278 1.335 . S
N2276 C2279 1.390 . S
N2277 C2278 1.345 . S
N2277 C2280 1.336 . S
C2278 N2276 1.335 . S
C2278 N2277 1.345 . S
C2278 H2283 0.930 . S
C2279 N2276 1.390 . S
C2279 C2280 1.346 . S
C2279 H2284 0.930 . S
C2280 N2277 1.336 . S
C2280 C2279 1.346 . S
C2280 H2287 0.929 . S
C2281 O2271 1.282 . S
C2281 O2282 1.216 . S
O2282 C2281 1.216 . S
H2283 C2278 0.930 . S
H2284 C2279 0.930 . S
O2285 Cu2265 1.959 . S
O2285 C2272 1.251 . S
H2286 C2269 0.930 . S
H2287 C2280 0.929 . S
Cu2288 N2289 1.999 . S
Cu2288 O2294 1.974 . S
Cu2288 N2299 1.985 . S
Cu2288 O2308 1.959 . S
N2289 Cu2288 1.999 . S
N2289 C2291 1.263 . S
N2289 C2293 1.389 . S
N2290 C2291 1.358 . S
N2290 C2292 1.400 . S
C2291 N2289 1.263 . S
C2291 N2290 1.358 . S
C2291 H2297 0.930 . S
C2292 N2290 1.400 . S
C2292 C2293 1.351 . S
C2292 H2309 0.930 . S
C2293 N2289 1.389 . S
C2293 C2292 1.351 . S
C2293 H2298 0.930 . S
O2294 Cu2288 1.974 . S
O2294 C2304 1.282 . S
C2295 O2296 1.261 . S
C2295 O2308 1.251 . S
O2296 C2295 1.261 . S
H2297 C2291 0.930 . S
H2298 C2293 0.930 . S
N2299 Cu2288 1.985 . S
N2299 C2301 1.335 . S
N2299 C2302 1.390 . S
N2300 C2301 1.345 . S
N2300 C2303 1.336 . S
C2301 N2299 1.335 . S
C2301 N2300 1.345 . S
C2301 H2306 0.930 . S
C2302 N2299 1.390 . S
C2302 C2303 1.346 . S
C2302 H2307 0.930 . S
C2303 N2300 1.336 . S
C2303 C2302 1.346 . S
C2303 H2310 0.929 . S
C2304 O2294 1.282 . S
C2304 O2305 1.216 . S
O2305 C2304 1.216 . S
H2306 C2301 0.930 . S
H2307 C2302 0.930 . S
O2308 Cu2288 1.959 . S
O2308 C2295 1.251 . S
H2309 C2292 0.930 . S
H2310 C2303 0.929 . S
Cu2311 N2312 1.999 . S
Cu2311 O2317 1.974 . S
Cu2311 N2322 1.985 . S
Cu2311 O2331 1.959 . S
N2312 Cu2311 1.999 . S
N2312 C2314 1.263 . S
N2312 C2316 1.389 . S
N2313 C2314 1.358 . S
N2313 C2315 1.400 . S
C2314 N2312 1.263 . S
C2314 N2313 1.358 . S
C2314 H2320 0.930 . S
C2315 N2313 1.400 . S
C2315 C2316 1.351 . S
C2315 H2332 0.930 . S
C2316 N2312 1.389 . S
C2316 C2315 1.351 . S
C2316 H2321 0.930 . S
O2317 Cu2311 1.974 . S
O2317 C2327 1.282 . S
C2318 O2319 1.261 . S
C2318 O2331 1.251 . S
O2319 C2318 1.261 . S
H2320 C2314 0.930 . S
H2321 C2316 0.930 . S
N2322 Cu2311 1.985 . S
N2322 C2324 1.335 . S
N2322 C2325 1.390 . S
N2323 C2324 1.345 . S
N2323 C2326 1.336 . S
C2324 N2322 1.335 . S
C2324 N2323 1.345 . S
C2324 H2329 0.930 . S
C2325 N2322 1.390 . S
C2325 C2326 1.346 . S
C2325 H2330 0.930 . S
C2326 N2323 1.336 . S
C2326 C2325 1.346 . S
C2326 H2333 0.929 . S
C2327 O2317 1.282 . S
C2327 O2328 1.216 . S
O2328 C2327 1.216 . S
H2329 C2324 0.930 . S
H2330 C2325 0.930 . S
O2331 Cu2311 1.959 . S
O2331 C2318 1.251 . S
H2332 C2315 0.930 . S
H2333 C2326 0.929 . S
Cu2334 N2335 1.999 . S
Cu2334 O2340 1.974 . S
Cu2334 N2345 1.985 . S
Cu2334 O2354 1.959 . S
N2335 Cu2334 1.999 . S
N2335 C2337 1.263 . S
N2335 C2339 1.389 . S
N2336 C2337 1.358 . S
N2336 C2338 1.400 . S
C2337 N2335 1.263 . S
C2337 N2336 1.358 . S
C2337 H2343 0.930 . S
C2338 N2336 1.400 . S
C2338 C2339 1.351 . S
C2338 H2355 0.930 . S
C2339 N2335 1.389 . S
C2339 C2338 1.351 . S
C2339 H2344 0.930 . S
O2340 Cu2334 1.974 . S
O2340 C2350 1.282 . S
C2341 O2342 1.261 . S
C2341 O2354 1.251 . S
O2342 C2341 1.261 . S
H2343 C2337 0.930 . S
H2344 C2339 0.930 . S
N2345 Cu2334 1.985 . S
N2345 C2347 1.335 . S
N2345 C2348 1.390 . S
N2346 C2347 1.345 . S
N2346 C2349 1.336 . S
C2347 N2345 1.335 . S
C2347 N2346 1.345 . S
C2347 H2352 0.930 . S
C2348 N2345 1.390 . S
C2348 C2349 1.346 . S
C2348 H2353 0.930 . S
C2349 N2346 1.336 . S
C2349 C2348 1.346 . S
C2349 H2356 0.929 . S
C2350 O2340 1.282 . S
C2350 O2351 1.216 . S
O2351 C2350 1.216 . S
H2352 C2347 0.930 . S
H2353 C2348 0.930 . S
O2354 Cu2334 1.959 . S
O2354 C2341 1.251 . S
H2355 C2338 0.930 . S
H2356 C2349 0.929 . S
Cu2357 N2358 1.999 . S
Cu2357 O2363 1.974 . S
Cu2357 N2368 1.985 . S
Cu2357 O2377 1.959 . S
N2358 Cu2357 1.999 . S
N2358 C2360 1.263 . S
N2358 C2362 1.389 . S
N2359 C2360 1.358 . S
N2359 C2361 1.400 . S
C2360 N2358 1.263 . S
C2360 N2359 1.358 . S
C2360 H2366 0.930 . S
C2361 N2359 1.400 . S
C2361 C2362 1.351 . S
C2361 H2378 0.930 . S
C2362 N2358 1.389 . S
C2362 C2361 1.351 . S
C2362 H2367 0.930 . S
O2363 Cu2357 1.974 . S
O2363 C2373 1.282 . S
C2364 O2365 1.261 . S
C2364 O2377 1.251 . S
O2365 C2364 1.261 . S
H2366 C2360 0.930 . S
H2367 C2362 0.930 . S
N2368 Cu2357 1.985 . S
N2368 C2370 1.335 . S
N2368 C2371 1.390 . S
N2369 C2370 1.345 . S
N2369 C2372 1.336 . S
C2370 N2368 1.335 . S
C2370 N2369 1.345 . S
C2370 H2375 0.930 . S
C2371 N2368 1.390 . S
C2371 C2372 1.346 . S
C2371 H2376 0.930 . S
C2372 N2369 1.336 . S
C2372 C2371 1.346 . S
C2372 H2379 0.929 . S
C2373 O2363 1.282 . S
C2373 O2374 1.216 . S
O2374 C2373 1.216 . S
H2375 C2370 0.930 . S
H2376 C2371 0.930 . S
O2377 Cu2357 1.959 . S
O2377 C2364 1.251 . S
H2378 C2361 0.930 . S
H2379 C2372 0.929 . S
Cu2380 N2381 1.999 . S
Cu2380 O2386 1.974 . S
Cu2380 N2391 1.985 . S
Cu2380 O2400 1.959 . S
N2381 Cu2380 1.999 . S
N2381 C2383 1.263 . S
N2381 C2385 1.389 . S
N2382 C2383 1.358 . S
N2382 C2384 1.400 . S
C2383 N2381 1.263 . S
C2383 N2382 1.358 . S
C2383 H2389 0.930 . S
C2384 N2382 1.400 . S
C2384 C2385 1.351 . S
C2384 H2401 0.930 . S
C2385 N2381 1.389 . S
C2385 C2384 1.351 . S
C2385 H2390 0.930 . S
O2386 Cu2380 1.974 . S
O2386 C2396 1.282 . S
C2387 O2388 1.261 . S
C2387 O2400 1.251 . S
O2388 C2387 1.261 . S
H2389 C2383 0.930 . S
H2390 C2385 0.930 . S
N2391 Cu2380 1.985 . S
N2391 C2393 1.335 . S
N2391 C2394 1.390 . S
N2392 C2393 1.345 . S
N2392 C2395 1.336 . S
C2393 N2391 1.335 . S
C2393 N2392 1.345 . S
C2393 H2398 0.930 . S
C2394 N2391 1.390 . S
C2394 C2395 1.346 . S
C2394 H2399 0.930 . S
C2395 N2392 1.336 . S
C2395 C2394 1.346 . S
C2395 H2402 0.929 . S
C2396 O2386 1.282 . S
C2396 O2397 1.216 . S
O2397 C2396 1.216 . S
H2398 C2393 0.930 . S
H2399 C2394 0.930 . S
O2400 Cu2380 1.959 . S
O2400 C2387 1.251 . S
H2401 C2384 0.930 . S
H2402 C2395 0.929 . S
Cu2403 N2404 1.999 . S
Cu2403 O2409 1.974 . S
Cu2403 N2414 1.985 . S
Cu2403 O2423 1.959 . S
N2404 Cu2403 1.999 . S
N2404 C2406 1.263 . S
N2404 C2408 1.389 . S
N2405 C2406 1.358 . S
N2405 C2407 1.400 . S
C2406 N2404 1.263 . S
C2406 N2405 1.358 . S
C2406 H2412 0.930 . S
C2407 N2405 1.400 . S
C2407 C2408 1.351 . S
C2407 H2424 0.930 . S
C2408 N2404 1.389 . S
C2408 C2407 1.351 . S
C2408 H2413 0.930 . S
O2409 Cu2403 1.974 . S
O2409 C2419 1.282 . S
C2410 O2411 1.261 . S
C2410 O2423 1.251 . S
O2411 C2410 1.261 . S
H2412 C2406 0.930 . S
H2413 C2408 0.930 . S
N2414 Cu2403 1.985 . S
N2414 C2416 1.335 . S
N2414 C2417 1.390 . S
N2415 C2416 1.345 . S
N2415 C2418 1.336 . S
C2416 N2414 1.335 . S
C2416 N2415 1.345 . S
C2416 H2421 0.930 . S
C2417 N2414 1.390 . S
C2417 C2418 1.346 . S
C2417 H2422 0.930 . S
C2418 N2415 1.336 . S
C2418 C2417 1.346 . S
C2418 H2425 0.929 . S
C2419 O2409 1.282 . S
C2419 O2420 1.216 . S
O2420 C2419 1.216 . S
H2421 C2416 0.930 . S
H2422 C2417 0.930 . S
O2423 Cu2403 1.959 . S
O2423 C2410 1.251 . S
H2424 C2407 0.930 . S
H2425 C2418 0.929 . S
Cu2426 N2427 1.999 . S
Cu2426 O2432 1.974 . S
Cu2426 N2437 1.985 . S
Cu2426 O2446 1.959 . S
N2427 Cu2426 1.999 . S
N2427 C2429 1.263 . S
N2427 C2431 1.389 . S
N2428 C2429 1.358 . S
N2428 C2430 1.400 . S
C2429 N2427 1.263 . S
C2429 N2428 1.358 . S
C2429 H2435 0.930 . S
C2430 N2428 1.400 . S
C2430 C2431 1.351 . S
C2430 H2447 0.930 . S
C2431 N2427 1.389 . S
C2431 C2430 1.351 . S
C2431 H2436 0.930 . S
O2432 Cu2426 1.974 . S
O2432 C2442 1.282 . S
C2433 O2434 1.261 . S
C2433 O2446 1.251 . S
O2434 C2433 1.261 . S
H2435 C2429 0.930 . S
H2436 C2431 0.930 . S
N2437 Cu2426 1.985 . S
N2437 C2439 1.335 . S
N2437 C2440 1.390 . S
N2438 C2439 1.345 . S
N2438 C2441 1.336 . S
C2439 N2437 1.335 . S
C2439 N2438 1.345 . S
C2439 H2444 0.930 . S
C2440 N2437 1.390 . S
C2440 C2441 1.346 . S
C2440 H2445 0.930 . S
C2441 N2438 1.336 . S
C2441 C2440 1.346 . S
C2441 H2448 0.929 . S
C2442 O2432 1.282 . S
C2442 O2443 1.216 . S
O2443 C2442 1.216 . S
H2444 C2439 0.930 . S
H2445 C2440 0.930 . S
O2446 Cu2426 1.959 . S
O2446 C2433 1.251 . S
H2447 C2430 0.930 . S
H2448 C2441 0.929 . S
Cu2449 N2450 1.999 . S
Cu2449 O2455 1.974 . S
Cu2449 N2460 1.985 . S
Cu2449 O2469 1.959 . S
N2450 Cu2449 1.999 . S
N2450 C2452 1.263 . S
N2450 C2454 1.389 . S
N2451 C2452 1.358 . S
N2451 C2453 1.400 . S
C2452 N2450 1.263 . S
C2452 N2451 1.358 . S
C2452 H2458 0.930 . S
C2453 N2451 1.400 . S
C2453 C2454 1.351 . S
C2453 H2470 0.930 . S
C2454 N2450 1.389 . S
C2454 C2453 1.351 . S
C2454 H2459 0.930 . S
O2455 Cu2449 1.974 . S
O2455 C2465 1.282 . S
C2456 O2457 1.261 . S
C2456 O2469 1.251 . S
O2457 C2456 1.261 . S
H2458 C2452 0.930 . S
H2459 C2454 0.930 . S
N2460 Cu2449 1.985 . S
N2460 C2462 1.335 . S
N2460 C2463 1.390 . S
N2461 C2462 1.345 . S
N2461 C2464 1.336 . S
C2462 N2460 1.335 . S
C2462 N2461 1.345 . S
C2462 H2467 0.930 . S
C2463 N2460 1.390 . S
C2463 C2464 1.346 . S
C2463 H2468 0.930 . S
C2464 N2461 1.336 . S
C2464 C2463 1.346 . S
C2464 H2471 0.929 . S
C2465 O2455 1.282 . S
C2465 O2466 1.216 . S
O2466 C2465 1.216 . S
H2467 C2462 0.930 . S
H2468 C2463 0.930 . S
O2469 Cu2449 1.959 . S
O2469 C2456 1.251 . S
H2470 C2453 0.930 . S
H2471 C2464 0.929 . S
C2472 C2473 1.349 . S
C2472 C2474 1.327 . S
C2472 H2497 0.950 . S
C2473 C2472 1.349 . S
C2473 C2489 1.349 . S
C2474 C2472 1.327 . S
C2474 C2493 1.429 . S
C2474 H2498 0.950 . S
C2475 C2492 1.574 . S
C2475 C2494 1.368 . S
C2475 H2499 0.949 . S
H2476 C2480 0.949 . S
C2477 C2478 1.349 . S
C2477 C2479 1.327 . S
C2477 H2500 0.950 . S
C2478 C2477 1.349 . S
C2478 C2490 1.349 . S
C2479 C2477 1.327 . S
C2479 C2495 1.429 . S
C2479 H2501 0.950 . S
C2480 H2476 0.949 . S
C2480 C2488 1.574 . S
C2480 C2496 1.368 . S
H2481 C2489 0.950 . S
H2482 C2487 0.950 . S
H2483 C2488 0.949 . S
H2484 C2490 0.950 . S
H2485 C2491 0.950 . S
H2486 C2492 0.949 . S
C2487 H2482 0.950 . S
C2487 C2489 1.327 . S
C2487 C2493 1.429 . S
C2488 C2480 1.574 . S
C2488 H2483 0.949 . S
C2488 C2494 1.368 . S
C2489 C2473 1.349 . S
C2489 H2481 0.950 . S
C2489 C2487 1.327 . S
C2490 C2478 1.349 . S
C2490 H2484 0.950 . S
C2490 C2491 1.327 . S
C2491 H2485 0.950 . S
C2491 C2490 1.327 . S
C2491 C2495 1.429 . S
C2492 C2475 1.574 . S
C2492 H2486 0.949 . S
C2492 C2496 1.368 . S
C2493 C2474 1.429 . S
C2493 C2487 1.429 . S
C2493 C2494 1.523 . S
C2494 C2475 1.368 . S
C2494 C2488 1.368 . S
C2494 C2493 1.523 . S
C2495 C2479 1.429 . S
C2495 C2491 1.429 . S
C2495 C2496 1.523 . S
C2496 C2480 1.368 . S
C2496 C2492 1.368 . S
C2496 C2495 1.523 . S
H2497 C2472 0.950 . S
H2498 C2474 0.950 . S
H2499 C2475 0.949 . S
H2500 C2477 0.950 . S
H2501 C2479 0.950 . S
C2502 C2503 1.349 . S
C2502 C2504 1.327 . S
C2502 H2527 0.950 . S
C2503 C2502 1.349 . S
C2503 C2519 1.349 . S
C2504 C2502 1.327 . S
C2504 C2523 1.429 . S
C2504 H2528 0.950 . S
C2505 C2522 1.574 . S
C2505 C2524 1.368 . S
C2505 H2529 0.949 . S
H2506 C2510 0.949 . S
C2507 C2508 1.349 . S
C2507 C2509 1.327 . S
C2507 H2530 0.950 . S
C2508 C2507 1.349 . S
C2508 C2520 1.349 . S
C2509 C2507 1.327 . S
C2509 C2525 1.429 . S
C2509 H2531 0.950 . S
C2510 H2506 0.949 . S
C2510 C2518 1.574 . S
C2510 C2526 1.368 . S
H2511 C2519 0.950 . S
H2512 C2517 0.950 . S
H2513 C2518 0.949 . S
H2514 C2520 0.950 . S
H2515 C2521 0.950 . S
H2516 C2522 0.949 . S
C2517 H2512 0.950 . S
C2517 C2519 1.327 . S
C2517 C2523 1.429 . S
C2518 C2510 1.574 . S
C2518 H2513 0.949 . S
C2518 C2524 1.368 . S
C2519 C2503 1.349 . S
C2519 H2511 0.950 . S
C2519 C2517 1.327 . S
C2520 C2508 1.349 . S
C2520 H2514 0.950 . S
C2520 C2521 1.327 . S
C2521 H2515 0.950 . S
C2521 C2520 1.327 . S
C2521 C2525 1.429 . S
C2522 C2505 1.574 . S
C2522 H2516 0.949 . S
C2522 C2526 1.368 . S
C2523 C2504 1.429 . S
C2523 C2517 1.429 . S
C2523 C2524 1.523 . S
C2524 C2505 1.368 . S
C2524 C2518 1.368 . S
C2524 C2523 1.523 . S
C2525 C2509 1.429 . S
C2525 C2521 1.429 . S
C2525 C2526 1.523 . S
C2526 C2510 1.368 . S
C2526 C2522 1.368 . S
C2526 C2525 1.523 . S
H2527 C2502 0.950 . S
H2528 C2504 0.950 . S
H2529 C2505 0.949 . S
H2530 C2507 0.950 . S
H2531 C2509 0.950 . S
C2532 C2533 1.349 . S
C2532 C2534 1.327 . S
C2532 H2557 0.950 . S
C2533 C2532 1.349 . S
C2533 C2549 1.349 . S
C2534 C2532 1.327 . S
C2534 C2553 1.429 . S
C2534 H2558 0.950 . S
C2535 C2552 1.574 . S
C2535 C2554 1.368 . S
C2535 H2559 0.949 . S
H2536 C2540 0.949 . S
C2537 C2538 1.349 . S
C2537 C2539 1.327 . S
C2537 H2560 0.950 . S
C2538 C2537 1.349 . S
C2538 C2550 1.349 . S
C2539 C2537 1.327 . S
C2539 C2555 1.429 . S
C2539 H2561 0.950 . S
C2540 H2536 0.949 . S
C2540 C2548 1.574 . S
C2540 C2556 1.368 . S
H2541 C2549 0.950 . S
H2542 C2547 0.950 . S
H2543 C2548 0.949 . S
H2544 C2550 0.950 . S
H2545 C2551 0.950 . S
H2546 C2552 0.949 . S
C2547 H2542 0.950 . S
C2547 C2549 1.327 . S
C2547 C2553 1.429 . S
C2548 C2540 1.574 . S
C2548 H2543 0.949 . S
C2548 C2554 1.368 . S
C2549 C2533 1.349 . S
C2549 H2541 0.950 . S
C2549 C2547 1.327 . S
C2550 C2538 1.349 . S
C2550 H2544 0.950 . S
C2550 C2551 1.327 . S
C2551 H2545 0.950 . S
C2551 C2550 1.327 . S
C2551 C2555 1.429 . S
C2552 C2535 1.574 . S
C2552 H2546 0.949 . S
C2552 C2556 1.368 . S
C2553 C2534 1.429 . S
C2553 C2547 1.429 . S
C2553 C2554 1.523 . S
C2554 C2535 1.368 . S
C2554 C2548 1.368 . S
C2554 C2553 1.523 . S
C2555 C2539 1.429 . S
C2555 C2551 1.429 . S
C2555 C2556 1.523 . S
C2556 C2540 1.368 . S
C2556 C2552 1.368 . S
C2556 C2555 1.523 . S
H2557 C2532 0.950 . S
H2558 C2534 0.950 . S
H2559 C2535 0.949 . S
H2560 C2537 0.950 . S
H2561 C2539 0.950 . S
C2562 C2563 1.349 . S
C2562 C2564 1.327 . S
C2562 H2587 0.950 . S
C2563 C2562 1.349 . S
C2563 C2579 1.349 . S
C2564 C2562 1.327 . S
C2564 C2583 1.429 . S
C2564 H2588 0.950 . S
C2565 C2582 1.574 . S
C2565 C2584 1.368 . S
C2565 H2589 0.949 . S
H2566 C2570 0.949 . S
C2567 C2568 1.349 . S
C2567 C2569 1.327 . S
C2567 H2590 0.950 . S
C2568 C2567 1.349 . S
C2568 C2580 1.349 . S
C2569 C2567 1.327 . S
C2569 C2585 1.429 . S
C2569 H2591 0.950 . S
C2570 H2566 0.949 . S
C2570 C2578 1.574 . S
C2570 C2586 1.368 . S
H2571 C2579 0.950 . S
H2572 C2577 0.950 . S
H2573 C2578 0.949 . S
H2574 C2580 0.950 . S
H2575 C2581 0.950 . S
H2576 C2582 0.949 . S
C2577 H2572 0.950 . S
C2577 C2579 1.327 . S
C2577 C2583 1.429 . S
C2578 C2570 1.574 . S
C2578 H2573 0.949 . S
C2578 C2584 1.368 . S
C2579 C2563 1.349 . S
C2579 H2571 0.950 . S
C2579 C2577 1.327 . S
C2580 C2568 1.349 . S
C2580 H2574 0.950 . S
C2580 C2581 1.327 . S
C2581 H2575 0.950 . S
C2581 C2580 1.327 . S
C2581 C2585 1.429 . S
C2582 C2565 1.574 . S
C2582 H2576 0.949 . S
C2582 C2586 1.368 . S
C2583 C2564 1.429 . S
C2583 C2577 1.429 . S
C2583 C2584 1.523 . S
C2584 C2565 1.368 . S
C2584 C2578 1.368 . S
C2584 C2583 1.523 . S
C2585 C2569 1.429 . S
C2585 C2581 1.429 . S
C2585 C2586 1.523 . S
C2586 C2570 1.368 . S
C2586 C2582 1.368 . S
C2586 C2585 1.523 . S
H2587 C2562 0.950 . S
H2588 C2564 0.950 . S
H2589 C2565 0.949 . S
H2590 C2567 0.950 . S
H2591 C2569 0.950 . S
C2592 C2593 1.349 . S
C2592 C2594 1.327 . S
C2592 H2617 0.950 . S
C2593 C2592 1.349 . S
C2593 C2609 1.349 . S
C2594 C2592 1.327 . S
C2594 C2613 1.429 . S
C2594 H2618 0.950 . S
C2595 C2612 1.574 . S
C2595 C2614 1.368 . S
C2595 H2619 0.949 . S
H2596 C2600 0.949 . S
C2597 C2598 1.349 . S
C2597 C2599 1.327 . S
C2597 H2620 0.950 . S
C2598 C2597 1.349 . S
C2598 C2610 1.349 . S
C2599 C2597 1.327 . S
C2599 C2615 1.429 . S
C2599 H2621 0.950 . S
C2600 H2596 0.949 . S
C2600 C2608 1.574 . S
C2600 C2616 1.368 . S
H2601 C2609 0.950 . S
H2602 C2607 0.950 . S
H2603 C2608 0.949 . S
H2604 C2610 0.950 . S
H2605 C2611 0.950 . S
H2606 C2612 0.949 . S
C2607 H2602 0.950 . S
C2607 C2609 1.327 . S
C2607 C2613 1.429 . S
C2608 C2600 1.574 . S
C2608 H2603 0.949 . S
C2608 C2614 1.368 . S
C2609 C2593 1.349 . S
C2609 H2601 0.950 . S
C2609 C2607 1.327 . S
C2610 C2598 1.349 . S
C2610 H2604 0.950 . S
C2610 C2611 1.327 . S
C2611 H2605 0.950 . S
C2611 C2610 1.327 . S
C2611 C2615 1.429 . S
C2612 C2595 1.574 . S
C2612 H2606 0.949 . S
C2612 C2616 1.368 . S
C2613 C2594 1.429 . S
C2613 C2607 1.429 . S
C2613 C2614 1.523 . S
C2614 C2595 1.368 . S
C2614 C2608 1.368 . S
C2614 C2613 1.523 . S
C2615 C2599 1.429 . S
C2615 C2611 1.429 . S
C2615 C2616 1.523 . S
C2616 C2600 1.368 . S
C2616 C2612 1.368 . S
C2616 C2615 1.523 . S
H2617 C2592 0.950 . S
H2618 C2594 0.950 . S
H2619 C2595 0.949 . S
H2620 C2597 0.950 . S
H2621 C2599 0.950 . S
C2622 C2623 1.349 . S
C2622 C2624 1.327 . S
C2622 H2647 0.950 . S
C2623 C2622 1.349 . S
C2623 C2639 1.349 . S
C2624 C2622 1.327 . S
C2624 C2643 1.429 . S
C2624 H2648 0.950 . S
C2625 C2642 1.574 . S
C2625 C2644 1.368 . S
C2625 H2649 0.949 . S
H2626 C2630 0.949 . S
C2627 C2628 1.349 . S
C2627 C2629 1.327 . S
C2627 H2650 0.950 . S
C2628 C2627 1.349 . S
C2628 C2640 1.349 . S
C2629 C2627 1.327 . S
C2629 C2645 1.429 . S
C2629 H2651 0.950 . S
C2630 H2626 0.949 . S
C2630 C2638 1.574 . S
C2630 C2646 1.368 . S
H2631 C2639 0.950 . S
H2632 C2637 0.950 . S
H2633 C2638 0.949 . S
H2634 C2640 0.950 . S
H2635 C2641 0.950 . S
H2636 C2642 0.949 . S
C2637 H2632 0.950 . S
C2637 C2639 1.327 . S
C2637 C2643 1.429 . S
C2638 C2630 1.574 . S
C2638 H2633 0.949 . S
C2638 C2644 1.368 . S
C2639 C2623 1.349 . S
C2639 H2631 0.950 . S
C2639 C2637 1.327 . S
C2640 C2628 1.349 . S
C2640 H2634 0.950 . S
C2640 C2641 1.327 . S
C2641 H2635 0.950 . S
C2641 C2640 1.327 . S
C2641 C2645 1.429 . S
C2642 C2625 1.574 . S
C2642 H2636 0.949 . S
C2642 C2646 1.368 . S
C2643 C2624 1.429 . S
C2643 C2637 1.429 . S
C2643 C2644 1.523 . S
C2644 C2625 1.368 . S
C2644 C2638 1.368 . S
C2644 C2643 1.523 . S
C2645 C2629 1.429 . S
C2645 C2641 1.429 . S
C2645 C2646 1.523 . S
C2646 C2630 1.368 . S
C2646 C2642 1.368 . S
C2646 C2645 1.523 . S
H2647 C2622 0.950 . S
H2648 C2624 0.950 . S
H2649 C2625 0.949 . S
H2650 C2627 0.950 . S
H2651 C2629 0.950 . S
C2652 C2653 1.349 . S
C2652 C2654 1.327 . S
C2652 H2677 0.950 . S
C2653 C2652 1.349 . S
C2653 C2669 1.349 . S
C2654 C2652 1.327 . S
C2654 C2673 1.429 . S
C2654 H2678 0.950 . S
C2655 C2672 1.574 . S
C2655 C2674 1.368 . S
C2655 H2679 0.949 . S
H2656 C2660 0.949 . S
C2657 C2658 1.349 . S
C2657 C2659 1.327 . S
C2657 H2680 0.950 . S
C2658 C2657 1.349 . S
C2658 C2670 1.349 . S
C2659 C2657 1.327 . S
C2659 C2675 1.429 . S
C2659 H2681 0.950 . S
C2660 H2656 0.949 . S
C2660 C2668 1.574 . S
C2660 C2676 1.368 . S
H2661 C2669 0.950 . S
H2662 C2667 0.950 . S
H2663 C2668 0.949 . S
H2664 C2670 0.950 . S
H2665 C2671 0.950 . S
H2666 C2672 0.949 . S
C2667 H2662 0.950 . S
C2667 C2669 1.327 . S
C2667 C2673 1.429 . S
C2668 C2660 1.574 . S
C2668 H2663 0.949 . S
C2668 C2674 1.368 . S
C2669 C2653 1.349 . S
C2669 H2661 0.950 . S
C2669 C2667 1.327 . S
C2670 C2658 1.349 . S
C2670 H2664 0.950 . S
C2670 C2671 1.327 . S
C2671 H2665 0.950 . S
C2671 C2670 1.327 . S
C2671 C2675 1.429 . S
C2672 C2655 1.574 . S
C2672 H2666 0.949 . S
C2672 C2676 1.368 . S
C2673 C2654 1.429 . S
C2673 C2667 1.429 . S
C2673 C2674 1.523 . S
C2674 C2655 1.368 . S
C2674 C2668 1.368 . S
C2674 C2673 1.523 . S
C2675 C2659 1.429 . S
C2675 C2671 1.429 . S
C2675 C2676 1.523 . S
C2676 C2660 1.368 . S
C2676 C2672 1.368 . S
C2676 C2675 1.523 . S
H2677 C2652 0.950 . S
H2678 C2654 0.950 . S
H2679 C2655 0.949 . S
H2680 C2657 0.950 . S
H2681 C2659 0.950 . S
C2682 C2683 1.349 . S
C2682 C2684 1.327 . S
C2682 H2707 0.950 . S
C2683 C2682 1.349 . S
C2683 C2699 1.349 . S
C2684 C2682 1.327 . S
C2684 C2703 1.429 . S
C2684 H2708 0.950 . S
C2685 C2702 1.574 . S
C2685 C2704 1.368 . S
C2685 H2709 0.949 . S
H2686 C2690 0.949 . S
C2687 C2688 1.349 . S
C2687 C2689 1.327 . S
C2687 H2710 0.950 . S
C2688 C2687 1.349 . S
C2688 C2700 1.349 . S
C2689 C2687 1.327 . S
C2689 C2705 1.429 . S
C2689 H2711 0.950 . S
C2690 H2686 0.949 . S
C2690 C2698 1.574 . S
C2690 C2706 1.368 . S
H2691 C2699 0.950 . S
H2692 C2697 0.950 . S
H2693 C2698 0.949 . S
H2694 C2700 0.950 . S
H2695 C2701 0.950 . S
H2696 C2702 0.949 . S
C2697 H2692 0.950 . S
C2697 C2699 1.327 . S
C2697 C2703 1.429 . S
C2698 C2690 1.574 . S
C2698 H2693 0.949 . S
C2698 C2704 1.368 . S
C2699 C2683 1.349 . S
C2699 H2691 0.950 . S
C2699 C2697 1.327 . S
C2700 C2688 1.349 . S
C2700 H2694 0.950 . S
C2700 C2701 1.327 . S
C2701 H2695 0.950 . S
C2701 C2700 1.327 . S
C2701 C2705 1.429 . S
C2702 C2685 1.574 . S
C2702 H2696 0.949 . S
C2702 C2706 1.368 . S
C2703 C2684 1.429 . S
C2703 C2697 1.429 . S
C2703 C2704 1.523 . S
C2704 C2685 1.368 . S
C2704 C2698 1.368 . S
C2704 C2703 1.523 . S
C2705 C2689 1.429 . S
C2705 C2701 1.429 . S
C2705 C2706 1.523 . S
C2706 C2690 1.368 . S
C2706 C2702 1.368 . S
C2706 C2705 1.523 . S
H2707 C2682 0.950 . S
H2708 C2684 0.950 . S
H2709 C2685 0.949 . S
H2710 C2687 0.950 . S
H2711 C2689 0.950 . S
C2712 C2713 1.349 . S
C2712 C2714 1.327 . S
C2712 H2737 0.950 . S
C2713 C2712 1.349 . S
C2713 C2729 1.349 . S
C2714 C2712 1.327 . S
C2714 C2733 1.429 . S
C2714 H2738 0.950 . S
C2715 C2732 1.574 . S
C2715 C2734 1.368 . S
C2715 H2739 0.949 . S
H2716 C2720 0.949 . S
C2717 C2718 1.349 . S
C2717 C2719 1.327 . S
C2717 H2740 0.950 . S
C2718 C2717 1.349 . S
C2718 C2730 1.349 . S
C2719 C2717 1.327 . S
C2719 C2735 1.429 . S
C2719 H2741 0.950 . S
C2720 H2716 0.949 . S
C2720 C2728 1.574 . S
C2720 C2736 1.368 . S
H2721 C2729 0.950 . S
H2722 C2727 0.950 . S
H2723 C2728 0.949 . S
H2724 C2730 0.950 . S
H2725 C2731 0.950 . S
H2726 C2732 0.949 . S
C2727 H2722 0.950 . S
C2727 C2729 1.327 . S
C2727 C2733 1.429 . S
C2728 C2720 1.574 . S
C2728 H2723 0.949 . S
C2728 C2734 1.368 . S
C2729 C2713 1.349 . S
C2729 H2721 0.950 . S
C2729 C2727 1.327 . S
C2730 C2718 1.349 . S
C2730 H2724 0.950 . S
C2730 C2731 1.327 . S
C2731 H2725 0.950 . S
C2731 C2730 1.327 . S
C2731 C2735 1.429 . S
C2732 C2715 1.574 . S
C2732 H2726 0.949 . S
C2732 C2736 1.368 . S
C2733 C2714 1.429 . S
C2733 C2727 1.429 . S
C2733 C2734 1.523 . S
C2734 C2715 1.368 . S
C2734 C2728 1.368 . S
C2734 C2733 1.523 . S
C2735 C2719 1.429 . S
C2735 C2731 1.429 . S
C2735 C2736 1.523 . S
C2736 C2720 1.368 . S
C2736 C2732 1.368 . S
C2736 C2735 1.523 . S
H2737 C2712 0.950 . S
H2738 C2714 0.950 . S
H2739 C2715 0.949 . S
H2740 C2717 0.950 . S
H2741 C2719 0.950 . S
C2742 C2743 1.349 . S
C2742 C2744 1.327 . S
C2742 H2767 0.950 . S
C2743 C2742 1.349 . S
C2743 C2759 1.349 . S
C2744 C2742 1.327 . S
C2744 C2763 1.429 . S
C2744 H2768 0.950 . S
C2745 C2762 1.574 . S
C2745 C2764 1.368 . S
C2745 H2769 0.949 . S
H2746 C2750 0.949 . S
C2747 C2748 1.349 . S
C2747 C2749 1.327 . S
C2747 H2770 0.950 . S
C2748 C2747 1.349 . S
C2748 C2760 1.349 . S
C2749 C2747 1.327 . S
C2749 C2765 1.429 . S
C2749 H2771 0.950 . S
C2750 H2746 0.949 . S
C2750 C2758 1.574 . S
C2750 C2766 1.368 . S
H2751 C2759 0.950 . S
H2752 C2757 0.950 . S
H2753 C2758 0.949 . S
H2754 C2760 0.950 . S
H2755 C2761 0.950 . S
H2756 C2762 0.949 . S
C2757 H2752 0.950 . S
C2757 C2759 1.327 . S
C2757 C2763 1.429 . S
C2758 C2750 1.574 . S
C2758 H2753 0.949 . S
C2758 C2764 1.368 . S
C2759 C2743 1.349 . S
C2759 H2751 0.950 . S
C2759 C2757 1.327 . S
C2760 C2748 1.349 . S
C2760 H2754 0.950 . S
C2760 C2761 1.327 . S
C2761 H2755 0.950 . S
C2761 C2760 1.327 . S
C2761 C2765 1.429 . S
C2762 C2745 1.574 . S
C2762 H2756 0.949 . S
C2762 C2766 1.368 . S
C2763 C2744 1.429 . S
C2763 C2757 1.429 . S
C2763 C2764 1.523 . S
C2764 C2745 1.368 . S
C2764 C2758 1.368 . S
C2764 C2763 1.523 . S
C2765 C2749 1.429 . S
C2765 C2761 1.429 . S
C2765 C2766 1.523 . S
C2766 C2750 1.368 . S
C2766 C2762 1.368 . S
C2766 C2765 1.523 . S
H2767 C2742 0.950 . S
H2768 C2744 0.950 . S
H2769 C2745 0.949 . S
H2770 C2747 0.950 . S
H2771 C2749 0.950 . S
C2772 C2773 1.349 . S
C2772 C2774 1.327 . S
C2772 H2797 0.950 . S
C2773 C2772 1.349 . S
C2773 C2789 1.349 . S
C2774 C2772 1.327 . S
C2774 C2793 1.429 . S
C2774 H2798 0.950 . S
C2775 C2792 1.574 . S
C2775 C2794 1.368 . S
C2775 H2799 0.949 . S
H2776 C2780 0.949 . S
C2777 C2778 1.349 . S
C2777 C2779 1.327 . S
C2777 H2800 0.950 . S
C2778 C2777 1.349 . S
C2778 C2790 1.349 . S
C2779 C2777 1.327 . S
C2779 C2795 1.429 . S
C2779 H2801 0.950 . S
C2780 H2776 0.949 . S
C2780 C2788 1.574 . S
C2780 C2796 1.368 . S
H2781 C2789 0.950 . S
H2782 C2787 0.950 . S
H2783 C2788 0.949 . S
H2784 C2790 0.950 . S
H2785 C2791 0.950 . S
H2786 C2792 0.949 . S
C2787 H2782 0.950 . S
C2787 C2789 1.327 . S
C2787 C2793 1.429 . S
C2788 C2780 1.574 . S
C2788 H2783 0.949 . S
C2788 C2794 1.368 . S
C2789 C2773 1.349 . S
C2789 H2781 0.950 . S
C2789 C2787 1.327 . S
C2790 C2778 1.349 . S
C2790 H2784 0.950 . S
C2790 C2791 1.327 . S
C2791 H2785 0.950 . S
C2791 C2790 1.327 . S
C2791 C2795 1.429 . S
C2792 C2775 1.574 . S
C2792 H2786 0.949 . S
C2792 C2796 1.368 . S
C2793 C2774 1.429 . S
C2793 C2787 1.429 . S
C2793 C2794 1.523 . S
C2794 C2775 1.368 . S
C2794 C2788 1.368 . S
C2794 C2793 1.523 . S
C2795 C2779 1.429 . S
C2795 C2791 1.429 . S
C2795 C2796 1.523 . S
C2796 C2780 1.368 . S
C2796 C2792 1.368 . S
C2796 C2795 1.523 . S
H2797 C2772 0.950 . S
H2798 C2774 0.950 . S
H2799 C2775 0.949 . S
H2800 C2777 0.950 . S
H2801 C2779 0.950 . S
C2802 C2803 1.349 . S
C2802 C2804 1.327 . S
C2802 H2827 0.950 . S
C2803 C2802 1.349 . S
C2803 C2819 1.349 . S
C2804 C2802 1.327 . S
C2804 C2823 1.429 . S
C2804 H2828 0.950 . S
C2805 C2822 1.574 . S
C2805 C2824 1.368 . S
C2805 H2829 0.949 . S
H2806 C2810 0.949 . S
C2807 C2808 1.349 . S
C2807 C2809 1.327 . S
C2807 H2830 0.950 . S
C2808 C2807 1.349 . S
C2808 C2820 1.349 . S
C2809 C2807 1.327 . S
C2809 C2825 1.429 . S
C2809 H2831 0.950 . S
C2810 H2806 0.949 . S
C2810 C2818 1.574 . S
C2810 C2826 1.368 . S
H2811 C2819 0.950 . S
H2812 C2817 0.950 . S
H2813 C2818 0.949 . S
H2814 C2820 0.950 . S
H2815 C2821 0.950 . S
H2816 C2822 0.949 . S
C2817 H2812 0.950 . S
C2817 C2819 1.327 . S
C2817 C2823 1.429 . S
C2818 C2810 1.574 . S
C2818 H2813 0.949 . S
C2818 C2824 1.368 . S
C2819 C2803 1.349 . S
C2819 H2811 0.950 . S
C2819 C2817 1.327 . S
C2820 C2808 1.349 . S
C2820 H2814 0.950 . S
C2820 C2821 1.327 . S
C2821 H2815 0.950 . S
C2821 C2820 1.327 . S
C2821 C2825 1.429 . S
C2822 C2805 1.574 . S
C2822 H2816 0.949 . S
C2822 C2826 1.368 . S
C2823 C2804 1.429 . S
C2823 C2817 1.429 . S
C2823 C2824 1.523 . S
C2824 C2805 1.368 . S
C2824 C2818 1.368 . S
C2824 C2823 1.523 . S
C2825 C2809 1.429 . S
C2825 C2821 1.429 . S
C2825 C2826 1.523 . S
C2826 C2810 1.368 . S
C2826 C2822 1.368 . S
C2826 C2825 1.523 . S
H2827 C2802 0.950 . S
H2828 C2804 0.950 . S
H2829 C2805 0.949 . S
H2830 C2807 0.950 . S
H2831 C2809 0.950 . S
C2832 C2833 1.349 . S
C2832 C2834 1.327 . S
C2832 H2857 0.950 . S
C2833 C2832 1.349 . S
C2833 C2849 1.349 . S
C2834 C2832 1.327 . S
C2834 C2853 1.429 . S
C2834 H2858 0.950 . S
C2835 C2852 1.574 . S
C2835 C2854 1.368 . S
C2835 H2859 0.949 . S
H2836 C2840 0.949 . S
C2837 C2838 1.349 . S
C2837 C2839 1.327 . S
C2837 H2860 0.950 . S
C2838 C2837 1.349 . S
C2838 C2850 1.349 . S
C2839 C2837 1.327 . S
C2839 C2855 1.429 . S
C2839 H2861 0.950 . S
C2840 H2836 0.949 . S
C2840 C2848 1.574 . S
C2840 C2856 1.368 . S
H2841 C2849 0.950 . S
H2842 C2847 0.950 . S
H2843 C2848 0.949 . S
H2844 C2850 0.950 . S
H2845 C2851 0.950 . S
H2846 C2852 0.949 . S
C2847 H2842 0.950 . S
C2847 C2849 1.327 . S
C2847 C2853 1.429 . S
C2848 C2840 1.574 . S
C2848 H2843 0.949 . S
C2848 C2854 1.368 . S
C2849 C2833 1.349 . S
C2849 H2841 0.950 . S
C2849 C2847 1.327 . S
C2850 C2838 1.349 . S
C2850 H2844 0.950 . S
C2850 C2851 1.327 . S
C2851 H2845 0.950 . S
C2851 C2850 1.327 . S
C2851 C2855 1.429 . S
C2852 C2835 1.574 . S
C2852 H2846 0.949 . S
C2852 C2856 1.368 . S
C2853 C2834 1.429 . S
C2853 C2847 1.429 . S
C2853 C2854 1.523 . S
C2854 C2835 1.368 . S
C2854 C2848 1.368 . S
C2854 C2853 1.523 . S
C2855 C2839 1.429 . S
C2855 C2851 1.429 . S
C2855 C2856 1.523 . S
C2856 C2840 1.368 . S
C2856 C2852 1.368 . S
C2856 C2855 1.523 . S
H2857 C2832 0.950 . S
H2858 C2834 0.950 . S
H2859 C2835 0.949 . S
H2860 C2837 0.950 . S
H2861 C2839 0.950 . S
C2862 C2863 1.349 . S
C2862 C2864 1.327 . S
C2862 H2887 0.950 . S
C2863 C2862 1.349 . S
C2863 C2879 1.349 . S
C2864 C2862 1.327 . S
C2864 C2883 1.429 . S
C2864 H2888 0.950 . S
C2865 C2882 1.574 . S
C2865 C2884 1.368 . S
C2865 H2889 0.949 . S
H2866 C2870 0.949 . S
C2867 C2868 1.349 . S
C2867 C2869 1.327 . S
C2867 H2890 0.950 . S
C2868 C2867 1.349 . S
C2868 C2880 1.349 . S
C2869 C2867 1.327 . S
C2869 C2885 1.429 . S
C2869 H2891 0.950 . S
C2870 H2866 0.949 . S
C2870 C2878 1.574 . S
C2870 C2886 1.368 . S
H2871 C2879 0.950 . S
H2872 C2877 0.950 . S
H2873 C2878 0.949 . S
H2874 C2880 0.950 . S
H2875 C2881 0.950 . S
H2876 C2882 0.949 . S
C2877 H2872 0.950 . S
C2877 C2879 1.327 . S
C2877 C2883 1.429 . S
C2878 C2870 1.574 . S
C2878 H2873 0.949 . S
C2878 C2884 1.368 . S
C2879 C2863 1.349 . S
C2879 H2871 0.950 . S
C2879 C2877 1.327 . S
C2880 C2868 1.349 . S
C2880 H2874 0.950 . S
C2880 C2881 1.327 . S
C2881 H2875 0.950 . S
C2881 C2880 1.327 . S
C2881 C2885 1.429 . S
C2882 C2865 1.574 . S
C2882 H2876 0.949 . S
C2882 C2886 1.368 . S
C2883 C2864 1.429 . S
C2883 C2877 1.429 . S
C2883 C2884 1.523 . S
C2884 C2865 1.368 . S
C2884 C2878 1.368 . S
C2884 C2883 1.523 . S
C2885 C2869 1.429 . S
C2885 C2881 1.429 . S
C2885 C2886 1.523 . S
C2886 C2870 1.368 . S
C2886 C2882 1.368 . S
C2886 C2885 1.523 . S
H2887 C2862 0.950 . S
H2888 C2864 0.950 . S
H2889 C2865 0.949 . S
H2890 C2867 0.950 . S
H2891 C2869 0.950 . S
C2892 C2893 1.349 . S
C2892 C2894 1.327 . S
C2892 H2917 0.950 . S
C2893 C2892 1.349 . S
C2893 C2909 1.349 . S
C2894 C2892 1.327 . S
C2894 C2913 1.429 . S
C2894 H2918 0.950 . S
C2895 C2912 1.574 . S
C2895 C2914 1.368 . S
C2895 H2919 0.949 . S
H2896 C2900 0.949 . S
C2897 C2898 1.349 . S
C2897 C2899 1.327 . S
C2897 H2920 0.950 . S
C2898 C2897 1.349 . S
C2898 C2910 1.349 . S
C2899 C2897 1.327 . S
C2899 C2915 1.429 . S
C2899 H2921 0.950 . S
C2900 H2896 0.949 . S
C2900 C2908 1.574 . S
C2900 C2916 1.368 . S
H2901 C2909 0.950 . S
H2902 C2907 0.950 . S
H2903 C2908 0.949 . S
H2904 C2910 0.950 . S
H2905 C2911 0.950 . S
H2906 C2912 0.949 . S
C2907 H2902 0.950 . S
C2907 C2909 1.327 . S
C2907 C2913 1.429 . S
C2908 C2900 1.574 . S
C2908 H2903 0.949 . S
C2908 C2914 1.368 . S
C2909 C2893 1.349 . S
C2909 H2901 0.950 . S
C2909 C2907 1.327 . S
C2910 C2898 1.349 . S
C2910 H2904 0.950 . S
C2910 C2911 1.327 . S
C2911 H2905 0.950 . S
C2911 C2910 1.327 . S
C2911 C2915 1.429 . S
C2912 C2895 1.574 . S
C2912 H2906 0.949 . S
C2912 C2916 1.368 . S
C2913 C2894 1.429 . S
C2913 C2907 1.429 . S
C2913 C2914 1.523 . S
C2914 C2895 1.368 . S
C2914 C2908 1.368 . S
C2914 C2913 1.523 . S
C2915 C2899 1.429 . S
C2915 C2911 1.429 . S
C2915 C2916 1.523 . S
C2916 C2900 1.368 . S
C2916 C2912 1.368 . S
C2916 C2915 1.523 . S
H2917 C2892 0.950 . S
H2918 C2894 0.950 . S
H2919 C2895 0.949 . S
H2920 C2897 0.950 . S
H2921 C2899 0.950 . S
C2922 C2923 1.349 . S
C2922 C2924 1.327 . S
C2922 H2947 0.950 . S
C2923 C2922 1.349 . S
C2923 C2939 1.349 . S
C2924 C2922 1.327 . S
C2924 C2943 1.429 . S
C2924 H2948 0.950 . S
C2925 C2942 1.574 . S
C2925 C2944 1.368 . S
C2925 H2949 0.949 . S
H2926 C2930 0.949 . S
C2927 C2928 1.349 . S
C2927 C2929 1.327 . S
C2927 H2950 0.950 . S
C2928 C2927 1.349 . S
C2928 C2940 1.349 . S
C2929 C2927 1.327 . S
C2929 C2945 1.429 . S
C2929 H2951 0.950 . S
C2930 H2926 0.949 . S
C2930 C2938 1.574 . S
C2930 C2946 1.368 . S
H2931 C2939 0.950 . S
H2932 C2937 0.950 . S
H2933 C2938 0.949 . S
H2934 C2940 0.950 . S
H2935 C2941 0.950 . S
H2936 C2942 0.949 . S
C2937 H2932 0.950 . S
C2937 C2939 1.327 . S
C2937 C2943 1.429 . S
C2938 C2930 1.574 . S
C2938 H2933 0.949 . S
C2938 C2944 1.368 . S
C2939 C2923 1.349 . S
C2939 H2931 0.950 . S
C2939 C2937 1.327 . S
C2940 C2928 1.349 . S
C2940 H2934 0.950 . S
C2940 C2941 1.327 . S
C2941 H2935 0.950 . S
C2941 C2940 1.327 . S
C2941 C2945 1.429 . S
C2942 C2925 1.574 . S
C2942 H2936 0.949 . S
C2942 C2946 1.368 . S
C2943 C2924 1.429 . S
C2943 C2937 1.429 . S
C2943 C2944 1.523 . S
C2944 C2925 1.368 . S
C2944 C2938 1.368 . S
C2944 C2943 1.523 . S
C2945 C2929 1.429 . S
C2945 C2941 1.429 . S
C2945 C2946 1.523 . S
C2946 C2930 1.368 . S
C2946 C2942 1.368 . S
C2946 C2945 1.523 . S
H2947 C2922 0.950 . S
H2948 C2924 0.950 . S
H2949 C2925 0.949 . S
H2950 C2927 0.950 . S
H2951 C2929 0.950 . S
C2952 C2953 1.349 . S
C2952 C2954 1.327 . S
C2952 H2977 0.950 . S
C2953 C2952 1.349 . S
C2953 C2969 1.349 . S
C2954 C2952 1.327 . S
C2954 C2973 1.429 . S
C2954 H2978 0.950 . S
C2955 C2972 1.574 . S
C2955 C2974 1.368 . S
C2955 H2979 0.949 . S
H2956 C2960 0.949 . S
C2957 C2958 1.349 . S
C2957 C2959 1.327 . S
C2957 H2980 0.950 . S
C2958 C2957 1.349 . S
C2958 C2970 1.349 . S
C2959 C2957 1.327 . S
C2959 C2975 1.429 . S
C2959 H2981 0.950 . S
C2960 H2956 0.949 . S
C2960 C2968 1.574 . S
C2960 C2976 1.368 . S
H2961 C2969 0.950 . S
H2962 C2967 0.950 . S
H2963 C2968 0.949 . S
H2964 C2970 0.950 . S
H2965 C2971 0.950 . S
H2966 C2972 0.949 . S
C2967 H2962 0.950 . S
C2967 C2969 1.327 . S
C2967 C2973 1.429 . S
C2968 C2960 1.574 . S
C2968 H2963 0.949 . S
C2968 C2974 1.368 . S
C2969 C2953 1.349 . S
C2969 H2961 0.950 . S
C2969 C2967 1.327 . S
C2970 C2958 1.349 . S
C2970 H2964 0.950 . S
C2970 C2971 1.327 . S
C2971 H2965 0.950 . S
C2971 C2970 1.327 . S
C2971 C2975 1.429 . S
C2972 C2955 1.574 . S
C2972 H2966 0.949 . S
C2972 C2976 1.368 . S
C2973 C2954 1.429 . S
C2973 C2967 1.429 . S
C2973 C2974 1.523 . S
C2974 C2955 1.368 . S
C2974 C2968 1.368 . S
C2974 C2973 1.523 . S
C2975 C2959 1.429 . S
C2975 C2971 1.429 . S
C2975 C2976 1.523 . S
C2976 C2960 1.368 . S
C2976 C2972 1.368 . S
C2976 C2975 1.523 . S
H2977 C2952 0.950 . S
H2978 C2954 0.950 . S
H2979 C2955 0.949 . S
H2980 C2957 0.950 . S
H2981 C2959 0.950 . S
C2982 C2983 1.349 . S
C2982 C2984 1.327 . S
C2982 H3007 0.950 . S
C2983 C2982 1.349 . S
C2983 C2999 1.349 . S
C2984 C2982 1.327 . S
C2984 C3003 1.429 . S
C2984 H3008 0.950 . S
C2985 C3002 1.574 . S
C2985 C3004 1.368 . S
C2985 H3009 0.949 . S
H2986 C2990 0.949 . S
C2987 C2988 1.349 . S
C2987 C2989 1.327 . S
C2987 H3010 0.950 . S
C2988 C2987 1.349 . S
C2988 C3000 1.349 . S
C2989 C2987 1.327 . S
C2989 C3005 1.429 . S
C2989 H3011 0.950 . S
C2990 H2986 0.949 . S
C2990 C2998 1.574 . S
C2990 C3006 1.368 . S
H2991 C2999 0.950 . S
H2992 C2997 0.950 . S
H2993 C2998 0.949 . S
H2994 C3000 0.950 . S
H2995 C3001 0.950 . S
H2996 C3002 0.949 . S
C2997 H2992 0.950 . S
C2997 C2999 1.327 . S
C2997 C3003 1.429 . S
C2998 C2990 1.574 . S
C2998 H2993 0.949 . S
C2998 C3004 1.368 . S
C2999 C2983 1.349 . S
C2999 H2991 0.950 . S
C2999 C2997 1.327 . S
C3000 C2988 1.349 . S
C3000 H2994 0.950 . S
C3000 C3001 1.327 . S
C3001 H2995 0.950 . S
C3001 C3000 1.327 . S
C3001 C3005 1.429 . S
C3002 C2985 1.574 . S
C3002 H2996 0.949 . S
C3002 C3006 1.368 . S
C3003 C2984 1.429 . S
C3003 C2997 1.429 . S
C3003 C3004 1.523 . S
C3004 C2985 1.368 . S
C3004 C2998 1.368 . S
C3004 C3003 1.523 . S
C3005 C2989 1.429 . S
C3005 C3001 1.429 . S
C3005 C3006 1.523 . S
C3006 C2990 1.368 . S
C3006 C3002 1.368 . S
C3006 C3005 1.523 . S
H3007 C2982 0.950 . S
H3008 C2984 0.950 . S
H3009 C2985 0.949 . S
H3010 C2987 0.950 . S
H3011 C2989 0.950 . S
C3012 C3013 1.349 . S
C3012 C3014 1.327 . S
C3012 H3037 0.950 . S
C3013 C3012 1.349 . S
C3013 C3029 1.349 . S
C3014 C3012 1.327 . S
C3014 C3033 1.429 . S
C3014 H3038 0.950 . S
C3015 C3032 1.574 . S
C3015 C3034 1.368 . S
C3015 H3039 0.949 . S
H3016 C3020 0.949 . S
C3017 C3018 1.349 . S
C3017 C3019 1.327 . S
C3017 H3040 0.950 . S
C3018 C3017 1.349 . S
C3018 C3030 1.349 . S
C3019 C3017 1.327 . S
C3019 C3035 1.429 . S
C3019 H3041 0.950 . S
C3020 H3016 0.949 . S
C3020 C3028 1.574 . S
C3020 C3036 1.368 . S
H3021 C3029 0.950 . S
H3022 C3027 0.950 . S
H3023 C3028 0.949 . S
H3024 C3030 0.950 . S
H3025 C3031 0.950 . S
H3026 C3032 0.949 . S
C3027 H3022 0.950 . S
C3027 C3029 1.327 . S
C3027 C3033 1.429 . S
C3028 C3020 1.574 . S
C3028 H3023 0.949 . S
C3028 C3034 1.368 . S
C3029 C3013 1.349 . S
C3029 H3021 0.950 . S
C3029 C3027 1.327 . S
C3030 C3018 1.349 . S
C3030 H3024 0.950 . S
C3030 C3031 1.327 . S
C3031 H3025 0.950 . S
C3031 C3030 1.327 . S
C3031 C3035 1.429 . S
C3032 C3015 1.574 . S
C3032 H3026 0.949 . S
C3032 C3036 1.368 . S
C3033 C3014 1.429 . S
C3033 C3027 1.429 . S
C3033 C3034 1.523 . S
C3034 C3015 1.368 . S
C3034 C3028 1.368 . S
C3034 C3033 1.523 . S
C3035 C3019 1.429 . S
C3035 C3031 1.429 . S
C3035 C3036 1.523 . S
C3036 C3020 1.368 . S
C3036 C3032 1.368 . S
C3036 C3035 1.523 . S
H3037 C3012 0.950 . S
H3038 C3014 0.950 . S
H3039 C3015 0.949 . S
H3040 C3017 0.950 . S
H3041 C3019 0.950 . S
C3042 C3043 1.349 . S
C3042 C3044 1.327 . S
C3042 H3067 0.950 . S
C3043 C3042 1.349 . S
C3043 C3059 1.349 . S
C3044 C3042 1.327 . S
C3044 C3063 1.429 . S
C3044 H3068 0.950 . S
C3045 C3062 1.574 . S
C3045 C3064 1.368 . S
C3045 H3069 0.949 . S
H3046 C3050 0.949 . S
C3047 C3048 1.349 . S
C3047 C3049 1.327 . S
C3047 H3070 0.950 . S
C3048 C3047 1.349 . S
C3048 C3060 1.349 . S
C3049 C3047 1.327 . S
C3049 C3065 1.429 . S
C3049 H3071 0.950 . S
C3050 H3046 0.949 . S
C3050 C3058 1.574 . S
C3050 C3066 1.368 . S
H3051 C3059 0.950 . S
H3052 C3057 0.950 . S
H3053 C3058 0.949 . S
H3054 C3060 0.950 . S
H3055 C3061 0.950 . S
H3056 C3062 0.949 . S
C3057 H3052 0.950 . S
C3057 C3059 1.327 . S
C3057 C3063 1.429 . S
C3058 C3050 1.574 . S
C3058 H3053 0.949 . S
C3058 C3064 1.368 . S
C3059 C3043 1.349 . S
C3059 H3051 0.950 . S
C3059 C3057 1.327 . S
C3060 C3048 1.349 . S
C3060 H3054 0.950 . S
C3060 C3061 1.327 . S
C3061 H3055 0.950 . S
C3061 C3060 1.327 . S
C3061 C3065 1.429 . S
C3062 C3045 1.574 . S
C3062 H3056 0.949 . S
C3062 C3066 1.368 . S
C3063 C3044 1.429 . S
C3063 C3057 1.429 . S
C3063 C3064 1.523 . S
C3064 C3045 1.368 . S
C3064 C3058 1.368 . S
C3064 C3063 1.523 . S
C3065 C3049 1.429 . S
C3065 C3061 1.429 . S
C3065 C3066 1.523 . S
C3066 C3050 1.368 . S
C3066 C3062 1.368 . S
C3066 C3065 1.523 . S
H3067 C3042 0.950 . S
H3068 C3044 0.950 . S
H3069 C3045 0.949 . S
H3070 C3047 0.950 . S
H3071 C3049 0.950 . S
C3072 C3073 1.349 . S
C3072 C3074 1.327 . S
C3072 H3097 0.950 . S
C3073 C3072 1.349 . S
C3073 C3089 1.349 . S
C3074 C3072 1.327 . S
C3074 C3093 1.429 . S
C3074 H3098 0.950 . S
C3075 C3092 1.574 . S
C3075 C3094 1.368 . S
C3075 H3099 0.949 . S
H3076 C3080 0.949 . S
C3077 C3078 1.349 . S
C3077 C3079 1.327 . S
C3077 H3100 0.950 . S
C3078 C3077 1.349 . S
C3078 C3090 1.349 . S
C3079 C3077 1.327 . S
C3079 C3095 1.429 . S
C3079 H3101 0.950 . S
C3080 H3076 0.949 . S
C3080 C3088 1.574 . S
C3080 C3096 1.368 . S
H3081 C3089 0.950 . S
H3082 C3087 0.950 . S
H3083 C3088 0.949 . S
H3084 C3090 0.950 . S
H3085 C3091 0.950 . S
H3086 C3092 0.949 . S
C3087 H3082 0.950 . S
C3087 C3089 1.327 . S
C3087 C3093 1.429 . S
C3088 C3080 1.574 . S
C3088 H3083 0.949 . S
C3088 C3094 1.368 . S
C3089 C3073 1.349 . S
C3089 H3081 0.950 . S
C3089 C3087 1.327 . S
C3090 C3078 1.349 . S
C3090 H3084 0.950 . S
C3090 C3091 1.327 . S
C3091 H3085 0.950 . S
C3091 C3090 1.327 . S
C3091 C3095 1.429 . S
C3092 C3075 1.574 . S
C3092 H3086 0.949 . S
C3092 C3096 1.368 . S
C3093 C3074 1.429 . S
C3093 C3087 1.429 . S
C3093 C3094 1.523 . S
C3094 C3075 1.368 . S
C3094 C3088 1.368 . S
C3094 C3093 1.523 . S
C3095 C3079 1.429 . S
C3095 C3091 1.429 . S
C3095 C3096 1.523 . S
C3096 C3080 1.368 . S
C3096 C3092 1.368 . S
C3096 C3095 1.523 . S
H3097 C3072 0.950 . S
H3098 C3074 0.950 . S
H3099 C3075 0.949 . S
H3100 C3077 0.950 . S
H3101 C3079 0.950 . S
C3102 C3103 1.349 . S
C3102 C3104 1.327 . S
C3102 H3127 0.950 . S
C3103 C3102 1.349 . S
C3103 C3119 1.349 . S
C3104 C3102 1.327 . S
C3104 C3123 1.429 . S
C3104 H3128 0.950 . S
C3105 C3122 1.574 . S
C3105 C3124 1.368 . S
C3105 H3129 0.949 . S
H3106 C3110 0.949 . S
C3107 C3108 1.349 . S
C3107 C3109 1.327 . S
C3107 H3130 0.950 . S
C3108 C3107 1.349 . S
C3108 C3120 1.349 . S
C3109 C3107 1.327 . S
C3109 C3125 1.429 . S
C3109 H3131 0.950 . S
C3110 H3106 0.949 . S
C3110 C3118 1.574 . S
C3110 C3126 1.368 . S
H3111 C3119 0.950 . S
H3112 C3117 0.950 . S
H3113 C3118 0.949 . S
H3114 C3120 0.950 . S
H3115 C3121 0.950 . S
H3116 C3122 0.949 . S
C3117 H3112 0.950 . S
C3117 C3119 1.327 . S
C3117 C3123 1.429 . S
C3118 C3110 1.574 . S
C3118 H3113 0.949 . S
C3118 C3124 1.368 . S
C3119 C3103 1.349 . S
C3119 H3111 0.950 . S
C3119 C3117 1.327 . S
C3120 C3108 1.349 . S
C3120 H3114 0.950 . S
C3120 C3121 1.327 . S
C3121 H3115 0.950 . S
C3121 C3120 1.327 . S
C3121 C3125 1.429 . S
C3122 C3105 1.574 . S
C3122 H3116 0.949 . S
C3122 C3126 1.368 . S
C3123 C3104 1.429 . S
C3123 C3117 1.429 . S
C3123 C3124 1.523 . S
C3124 C3105 1.368 . S
C3124 C3118 1.368 . S
C3124 C3123 1.523 . S
C3125 C3109 1.429 . S
C3125 C3121 1.429 . S
C3125 C3126 1.523 . S
C3126 C3110 1.368 . S
C3126 C3122 1.368 . S
C3126 C3125 1.523 . S
H3127 C3102 0.950 . S
H3128 C3104 0.950 . S
H3129 C3105 0.949 . S
H3130 C3107 0.950 . S
H3131 C3109 0.950 . S
C3132 C3133 1.349 . S
C3132 C3134 1.327 . S
C3132 H3157 0.950 . S
C3133 C3132 1.349 . S
C3133 C3149 1.349 . S
C3134 C3132 1.327 . S
C3134 C3153 1.429 . S
C3134 H3158 0.950 . S
C3135 C3152 1.574 . S
C3135 C3154 1.368 . S
C3135 H3159 0.949 . S
H3136 C3140 0.949 . S
C3137 C3138 1.349 . S
C3137 C3139 1.327 . S
C3137 H3160 0.950 . S
C3138 C3137 1.349 . S
C3138 C3150 1.349 . S
C3139 C3137 1.327 . S
C3139 C3155 1.429 . S
C3139 H3161 0.950 . S
C3140 H3136 0.949 . S
C3140 C3148 1.574 . S
C3140 C3156 1.368 . S
H3141 C3149 0.950 . S
H3142 C3147 0.950 . S
H3143 C3148 0.949 . S
H3144 C3150 0.950 . S
H3145 C3151 0.950 . S
H3146 C3152 0.949 . S
C3147 H3142 0.950 . S
C3147 C3149 1.327 . S
C3147 C3153 1.429 . S
C3148 C3140 1.574 . S
C3148 H3143 0.949 . S
C3148 C3154 1.368 . S
C3149 C3133 1.349 . S
C3149 H3141 0.950 . S
C3149 C3147 1.327 . S
C3150 C3138 1.349 . S
C3150 H3144 0.950 . S
C3150 C3151 1.327 . S
C3151 H3145 0.950 . S
C3151 C3150 1.327 . S
C3151 C3155 1.429 . S
C3152 C3135 1.574 . S
C3152 H3146 0.949 . S
C3152 C3156 1.368 . S
C3153 C3134 1.429 . S
C3153 C3147 1.429 . S
C3153 C3154 1.523 . S
C3154 C3135 1.368 . S
C3154 C3148 1.368 . S
C3154 C3153 1.523 . S
C3155 C3139 1.429 . S
C3155 C3151 1.429 . S
C3155 C3156 1.523 . S
C3156 C3140 1.368 . S
C3156 C3152 1.368 . S
C3156 C3155 1.523 . S
H3157 C3132 0.950 . S
H3158 C3134 0.950 . S
H3159 C3135 0.949 . S
H3160 C3137 0.950 . S
H3161 C3139 0.950 . S
C3162 C3163 1.349 . S
C3162 C3164 1.327 . S
C3162 H3187 0.950 . S
C3163 C3162 1.349 . S
C3163 C3179 1.349 . S
C3164 C3162 1.327 . S
C3164 C3183 1.429 . S
C3164 H3188 0.950 . S
C3165 C3182 1.574 . S
C3165 C3184 1.368 . S
C3165 H3189 0.949 . S
H3166 C3170 0.949 . S
C3167 C3168 1.349 . S
C3167 C3169 1.327 . S
C3167 H3190 0.950 . S
C3168 C3167 1.349 . S
C3168 C3180 1.349 . S
C3169 C3167 1.327 . S
C3169 C3185 1.429 . S
C3169 H3191 0.950 . S
C3170 H3166 0.949 . S
C3170 C3178 1.574 . S
C3170 C3186 1.368 . S
H3171 C3179 0.950 . S
H3172 C3177 0.950 . S
H3173 C3178 0.949 . S
H3174 C3180 0.950 . S
H3175 C3181 0.950 . S
H3176 C3182 0.949 . S
C3177 H3172 0.950 . S
C3177 C3179 1.327 . S
C3177 C3183 1.429 . S
C3178 C3170 1.574 . S
C3178 H3173 0.949 . S
C3178 C3184 1.368 . S
C3179 C3163 1.349 . S
C3179 H3171 0.950 . S
C3179 C3177 1.327 . S
C3180 C3168 1.349 . S
C3180 H3174 0.950 . S
C3180 C3181 1.327 . S
C3181 H3175 0.950 . S
C3181 C3180 1.327 . S
C3181 C3185 1.429 . S
C3182 C3165 1.574 . S
C3182 H3176 0.949 . S
C3182 C3186 1.368 . S
C3183 C3164 1.429 . S
C3183 C3177 1.429 . S
C3183 C3184 1.523 . S
C3184 C3165 1.368 . S
C3184 C3178 1.368 . S
C3184 C3183 1.523 . S
C3185 C3169 1.429 . S
C3185 C3181 1.429 . S
C3185 C3186 1.523 . S
C3186 C3170 1.368 . S
C3186 C3182 1.368 . S
C3186 C3185 1.523 . S
H3187 C3162 0.950 . S
H3188 C3164 0.950 . S
H3189 C3165 0.949 . S
H3190 C3167 0.950 . S
H3191 C3169 0.950 . S
C3192 C3193 1.349 . S
C3192 C3194 1.327 . S
C3192 H3217 0.950 . S
C3193 C3192 1.349 . S
C3193 C3209 1.349 . S
C3194 C3192 1.327 . S
C3194 C3213 1.429 . S
C3194 H3218 0.950 . S
C3195 C3212 1.574 . S
C3195 C3214 1.368 . S
C3195 H3219 0.949 . S
H3196 C3200 0.949 . S
C3197 C3198 1.349 . S
C3197 C3199 1.327 . S
C3197 H3220 0.950 . S
C3198 C3197 1.349 . S
C3198 C3210 1.349 . S
C3199 C3197 1.327 . S
C3199 C3215 1.429 . S
C3199 H3221 0.950 . S
C3200 H3196 0.949 . S
C3200 C3208 1.574 . S
C3200 C3216 1.368 . S
H3201 C3209 0.950 . S
H3202 C3207 0.950 . S
H3203 C3208 0.949 . S
H3204 C3210 0.950 . S
H3205 C3211 0.950 . S
H3206 C3212 0.949 . S
C3207 H3202 0.950 . S
C3207 C3209 1.327 . S
C3207 C3213 1.429 . S
C3208 C3200 1.574 . S
C3208 H3203 0.949 . S
C3208 C3214 1.368 . S
C3209 C3193 1.349 . S
C3209 H3201 0.950 . S
C3209 C3207 1.327 . S
C3210 C3198 1.349 . S
C3210 H3204 0.950 . S
C3210 C3211 1.327 . S
C3211 H3205 0.950 . S
C3211 C3210 1.327 . S
C3211 C3215 1.429 . S
C3212 C3195 1.574 . S
C3212 H3206 0.949 . S
C3212 C3216 1.368 . S
C3213 C3194 1.429 . S
C3213 C3207 1.429 . S
C3213 C3214 1.523 . S
C3214 C3195 1.368 . S
C3214 C3208 1.368 . S
C3214 C3213 1.523 . S
C3215 C3199 1.429 . S
C3215 C3211 1.429 . S
C3215 C3216 1.523 . S
C3216 C3200 1.368 . S
C3216 C3212 1.368 . S
C3216 C3215 1.523 . S
H3217 C3192 0.950 . S
H3218 C3194 0.950 . S
H3219 C3195 0.949 . S
H3220 C3197 0.950 . S
H3221 C3199 0.950 . S
C3222 C3223 1.349 . S
C3222 C3224 1.327 . S
C3222 H3247 0.950 . S
C3223 C3222 1.349 . S
C3223 C3239 1.349 . S
C3224 C3222 1.327 . S
C3224 C3243 1.429 . S
C3224 H3248 0.950 . S
C3225 C3242 1.574 . S
C3225 C3244 1.368 . S
C3225 H3249 0.949 . S
H3226 C3230 0.949 . S
C3227 C3228 1.349 . S
C3227 C3229 1.327 . S
C3227 H3250 0.950 . S
C3228 C3227 1.349 . S
C3228 C3240 1.349 . S
C3229 C3227 1.327 . S
C3229 C3245 1.429 . S
C3229 H3251 0.950 . S
C3230 H3226 0.949 . S
C3230 C3238 1.574 . S
C3230 C3246 1.368 . S
H3231 C3239 0.950 . S
H3232 C3237 0.950 . S
H3233 C3238 0.949 . S
H3234 C3240 0.950 . S
H3235 C3241 0.950 . S
H3236 C3242 0.949 . S
C3237 H3232 0.950 . S
C3237 C3239 1.327 . S
C3237 C3243 1.429 . S
C3238 C3230 1.574 . S
C3238 H3233 0.949 . S
C3238 C3244 1.368 . S
C3239 C3223 1.349 . S
C3239 H3231 0.950 . S
C3239 C3237 1.327 . S
C3240 C3228 1.349 . S
C3240 H3234 0.950 . S
C3240 C3241 1.327 . S
C3241 H3235 0.950 . S
C3241 C3240 1.327 . S
C3241 C3245 1.429 . S
C3242 C3225 1.574 . S
C3242 H3236 0.949 . S
C3242 C3246 1.368 . S
C3243 C3224 1.429 . S
C3243 C3237 1.429 . S
C3243 C3244 1.523 . S
C3244 C3225 1.368 . S
C3244 C3238 1.368 . S
C3244 C3243 1.523 . S
C3245 C3229 1.429 . S
C3245 C3241 1.429 . S
C3245 C3246 1.523 . S
C3246 C3230 1.368 . S
C3246 C3242 1.368 . S
C3246 C3245 1.523 . S
H3247 C3222 0.950 . S
H3248 C3224 0.950 . S
H3249 C3225 0.949 . S
H3250 C3227 0.950 . S
H3251 C3229 0.950 . S
C3252 C3253 1.349 . S
C3252 C3254 1.327 . S
C3252 H3277 0.950 . S
C3253 C3252 1.349 . S
C3253 C3269 1.349 . S
C3254 C3252 1.327 . S
C3254 C3273 1.429 . S
C3254 H3278 0.950 . S
C3255 C3272 1.574 . S
C3255 C3274 1.368 . S
C3255 H3279 0.949 . S
H3256 C3260 0.949 . S
C3257 C3258 1.349 . S
C3257 C3259 1.327 . S
C3257 H3280 0.950 . S
C3258 C3257 1.349 . S
C3258 C3270 1.349 . S
C3259 C3257 1.327 . S
C3259 C3275 1.429 . S
C3259 H3281 0.950 . S
C3260 H3256 0.949 . S
C3260 C3268 1.574 . S
C3260 C3276 1.368 . S
H3261 C3269 0.950 . S
H3262 C3267 0.950 . S
H3263 C3268 0.949 . S
H3264 C3270 0.950 . S
H3265 C3271 0.950 . S
H3266 C3272 0.949 . S
C3267 H3262 0.950 . S
C3267 C3269 1.327 . S
C3267 C3273 1.429 . S
C3268 C3260 1.574 . S
C3268 H3263 0.949 . S
C3268 C3274 1.368 . S
C3269 C3253 1.349 . S
C3269 H3261 0.950 . S
C3269 C3267 1.327 . S
C3270 C3258 1.349 . S
C3270 H3264 0.950 . S
C3270 C3271 1.327 . S
C3271 H3265 0.950 . S
C3271 C3270 1.327 . S
C3271 C3275 1.429 . S
C3272 C3255 1.574 . S
C3272 H3266 0.949 . S
C3272 C3276 1.368 . S
C3273 C3254 1.429 . S
C3273 C3267 1.429 . S
C3273 C3274 1.523 . S
C3274 C3255 1.368 . S
C3274 C3268 1.368 . S
C3274 C3273 1.523 . S
C3275 C3259 1.429 . S
C3275 C3271 1.429 . S
C3275 C3276 1.523 . S
C3276 C3260 1.368 . S
C3276 C3272 1.368 . S
C3276 C3275 1.523 . S
H3277 C3252 0.950 . S
H3278 C3254 0.950 . S
H3279 C3255 0.949 . S
H3280 C3257 0.950 . S
H3281 C3259 0.950 . S
C3282 C3283 1.349 . S
C3282 C3284 1.327 . S
C3282 H3307 0.950 . S
C3283 C3282 1.349 . S
C3283 C3299 1.349 . S
C3284 C3282 1.327 . S
C3284 C3303 1.429 . S
C3284 H3308 0.950 . S
C3285 C3302 1.574 . S
C3285 C3304 1.368 . S
C3285 H3309 0.949 . S
H3286 C3290 0.949 . S
C3287 C3288 1.349 . S
C3287 C3289 1.327 . S
C3287 H3310 0.950 . S
C3288 C3287 1.349 . S
C3288 C3300 1.349 . S
C3289 C3287 1.327 . S
C3289 C3305 1.429 . S
C3289 H3311 0.950 . S
C3290 H3286 0.949 . S
C3290 C3298 1.574 . S
C3290 C3306 1.368 . S
H3291 C3299 0.950 . S
H3292 C3297 0.950 . S
H3293 C3298 0.949 . S
H3294 C3300 0.950 . S
H3295 C3301 0.950 . S
H3296 C3302 0.949 . S
C3297 H3292 0.950 . S
C3297 C3299 1.327 . S
C3297 C3303 1.429 . S
C3298 C3290 1.574 . S
C3298 H3293 0.949 . S
C3298 C3304 1.368 . S
C3299 C3283 1.349 . S
C3299 H3291 0.950 . S
C3299 C3297 1.327 . S
C3300 C3288 1.349 . S
C3300 H3294 0.950 . S
C3300 C3301 1.327 . S
C3301 H3295 0.950 . S
C3301 C3300 1.327 . S
C3301 C3305 1.429 . S
C3302 C3285 1.574 . S
C3302 H3296 0.949 . S
C3302 C3306 1.368 . S
C3303 C3284 1.429 . S
C3303 C3297 1.429 . S
C3303 C3304 1.523 . S
C3304 C3285 1.368 . S
C3304 C3298 1.368 . S
C3304 C3303 1.523 . S
C3305 C3289 1.429 . S
C3305 C3301 1.429 . S
C3305 C3306 1.523 . S
C3306 C3290 1.368 . S
C3306 C3302 1.368 . S
C3306 C3305 1.523 . S
H3307 C3282 0.950 . S
H3308 C3284 0.950 . S
H3309 C3285 0.949 . S
H3310 C3287 0.950 . S
H3311 C3289 0.950 . S
C3312 C3313 1.349 . S
C3312 C3314 1.327 . S
C3312 H3337 0.950 . S
C3313 C3312 1.349 . S
C3313 C3329 1.349 . S
C3314 C3312 1.327 . S
C3314 C3333 1.429 . S
C3314 H3338 0.950 . S
C3315 C3332 1.574 . S
C3315 C3334 1.368 . S
C3315 H3339 0.949 . S
H3316 C3320 0.949 . S
C3317 C3318 1.349 . S
C3317 C3319 1.327 . S
C3317 H3340 0.950 . S
C3318 C3317 1.349 . S
C3318 C3330 1.349 . S
C3319 C3317 1.327 . S
C3319 C3335 1.429 . S
C3319 H3341 0.950 . S
C3320 H3316 0.949 . S
C3320 C3328 1.574 . S
C3320 C3336 1.368 . S
H3321 C3329 0.950 . S
H3322 C3327 0.950 . S
H3323 C3328 0.949 . S
H3324 C3330 0.950 . S
H3325 C3331 0.950 . S
H3326 C3332 0.949 . S
C3327 H3322 0.950 . S
C3327 C3329 1.327 . S
C3327 C3333 1.429 . S
C3328 C3320 1.574 . S
C3328 H3323 0.949 . S
C3328 C3334 1.368 . S
C3329 C3313 1.349 . S
C3329 H3321 0.950 . S
C3329 C3327 1.327 . S
C3330 C3318 1.349 . S
C3330 H3324 0.950 . S
C3330 C3331 1.327 . S
C3331 H3325 0.950 . S
C3331 C3330 1.327 . S
C3331 C3335 1.429 . S
C3332 C3315 1.574 . S
C3332 H3326 0.949 . S
C3332 C3336 1.368 . S
C3333 C3314 1.429 . S
C3333 C3327 1.429 . S
C3333 C3334 1.523 . S
C3334 C3315 1.368 . S
C3334 C3328 1.368 . S
C3334 C3333 1.523 . S
C3335 C3319 1.429 . S
C3335 C3331 1.429 . S
C3335 C3336 1.523 . S
C3336 C3320 1.368 . S
C3336 C3332 1.368 . S
C3336 C3335 1.523 . S
H3337 C3312 0.950 . S
H3338 C3314 0.950 . S
H3339 C3315 0.949 . S
H3340 C3317 0.950 . S
H3341 C3319 0.950 . S
C3342 C3343 1.349 . S
C3342 C3344 1.327 . S
C3342 H3367 0.950 . S
C3343 C3342 1.349 . S
C3343 C3359 1.349 . S
C3344 C3342 1.327 . S
C3344 C3363 1.429 . S
C3344 H3368 0.950 . S
C3345 C3362 1.574 . S
C3345 C3364 1.368 . S
C3345 H3369 0.949 . S
H3346 C3350 0.949 . S
C3347 C3348 1.349 . S
C3347 C3349 1.327 . S
C3347 H3370 0.950 . S
C3348 C3347 1.349 . S
C3348 C3360 1.349 . S
C3349 C3347 1.327 . S
C3349 C3365 1.429 . S
C3349 H3371 0.950 . S
C3350 H3346 0.949 . S
C3350 C3358 1.574 . S
C3350 C3366 1.368 . S
H3351 C3359 0.950 . S
H3352 C3357 0.950 . S
H3353 C3358 0.949 . S
H3354 C3360 0.950 . S
H3355 C3361 0.950 . S
H3356 C3362 0.949 . S
C3357 H3352 0.950 . S
C3357 C3359 1.327 . S
C3357 C3363 1.429 . S
C3358 C3350 1.574 . S
C3358 H3353 0.949 . S
C3358 C3364 1.368 . S
C3359 C3343 1.349 . S
C3359 H3351 0.950 . S
C3359 C3357 1.327 . S
C3360 C3348 1.349 . S
C3360 H3354 0.950 . S
C3360 C3361 1.327 . S
C3361 H3355 0.950 . S
C3361 C3360 1.327 . S
C3361 C3365 1.429 . S
C3362 C3345 1.574 . S
C3362 H3356 0.949 . S
C3362 C3366 1.368 . S
C3363 C3344 1.429 . S
C3363 C3357 1.429 . S
C3363 C3364 1.523 . S
C3364 C3345 1.368 . S
C3364 C3358 1.368 . S
C3364 C3363 1.523 . S
C3365 C3349 1.429 . S
C3365 C3361 1.429 . S
C3365 C3366 1.523 . S
C3366 C3350 1.368 . S
C3366 C3362 1.368 . S
C3366 C3365 1.523 . S
H3367 C3342 0.950 . S
H3368 C3344 0.950 . S
H3369 C3345 0.949 . S
H3370 C3347 0.950 . S
H3371 C3349 0.950 . S
C3372 C3373 1.349 . S
C3372 C3374 1.327 . S
C3372 H3397 0.950 . S
C3373 C3372 1.349 . S
C3373 C3389 1.349 . S
C3374 C3372 1.327 . S
C3374 C3393 1.429 . S
C3374 H3398 0.950 . S
C3375 C3392 1.574 . S
C3375 C3394 1.368 . S
C3375 H3399 0.949 . S
H3376 C3380 0.949 . S
C3377 C3378 1.349 . S
C3377 C3379 1.327 . S
C3377 H3400 0.950 . S
C3378 C3377 1.349 . S
C3378 C3390 1.349 . S
C3379 C3377 1.327 . S
C3379 C3395 1.429 . S
C3379 H3401 0.950 . S
C3380 H3376 0.949 . S
C3380 C3388 1.574 . S
C3380 C3396 1.368 . S
H3381 C3389 0.950 . S
H3382 C3387 0.950 . S
H3383 C3388 0.949 . S
H3384 C3390 0.950 . S
H3385 C3391 0.950 . S
H3386 C3392 0.949 . S
C3387 H3382 0.950 . S
C3387 C3389 1.327 . S
C3387 C3393 1.429 . S
C3388 C3380 1.574 . S
C3388 H3383 0.949 . S
C3388 C3394 1.368 . S
C3389 C3373 1.349 . S
C3389 H3381 0.950 . S
C3389 C3387 1.327 . S
C3390 C3378 1.349 . S
C3390 H3384 0.950 . S
C3390 C3391 1.327 . S
C3391 H3385 0.950 . S
C3391 C3390 1.327 . S
C3391 C3395 1.429 . S
C3392 C3375 1.574 . S
C3392 H3386 0.949 . S
C3392 C3396 1.368 . S
C3393 C3374 1.429 . S
C3393 C3387 1.429 . S
C3393 C3394 1.523 . S
C3394 C3375 1.368 . S
C3394 C3388 1.368 . S
C3394 C3393 1.523 . S
C3395 C3379 1.429 . S
C3395 C3391 1.429 . S
C3395 C3396 1.523 . S
C3396 C3380 1.368 . S
C3396 C3392 1.368 . S
C3396 C3395 1.523 . S
H3397 C3372 0.950 . S
H3398 C3374 0.950 . S
H3399 C3375 0.949 . S
H3400 C3377 0.950 . S
H3401 C3379 0.950 . S
C3402 C3403 1.349 . S
C3402 C3404 1.327 . S
C3402 H3427 0.950 . S
C3403 C3402 1.349 . S
C3403 C3419 1.349 . S
C3404 C3402 1.327 . S
C3404 C3423 1.429 . S
C3404 H3428 0.950 . S
C3405 C3422 1.574 . S
C3405 C3424 1.368 . S
C3405 H3429 0.949 . S
H3406 C3410 0.949 . S
C3407 C3408 1.349 . S
C3407 C3409 1.327 . S
C3407 H3430 0.950 . S
C3408 C3407 1.349 . S
C3408 C3420 1.349 . S
C3409 C3407 1.327 . S
C3409 C3425 1.429 . S
C3409 H3431 0.950 . S
C3410 H3406 0.949 . S
C3410 C3418 1.574 . S
C3410 C3426 1.368 . S
H3411 C3419 0.950 . S
H3412 C3417 0.950 . S
H3413 C3418 0.949 . S
H3414 C3420 0.950 . S
H3415 C3421 0.950 . S
H3416 C3422 0.949 . S
C3417 H3412 0.950 . S
C3417 C3419 1.327 . S
C3417 C3423 1.429 . S
C3418 C3410 1.574 . S
C3418 H3413 0.949 . S
C3418 C3424 1.368 . S
C3419 C3403 1.349 . S
C3419 H3411 0.950 . S
C3419 C3417 1.327 . S
C3420 C3408 1.349 . S
C3420 H3414 0.950 . S
C3420 C3421 1.327 . S
C3421 H3415 0.950 . S
C3421 C3420 1.327 . S
C3421 C3425 1.429 . S
C3422 C3405 1.574 . S
C3422 H3416 0.949 . S
C3422 C3426 1.368 . S
C3423 C3404 1.429 . S
C3423 C3417 1.429 . S
C3423 C3424 1.523 . S
C3424 C3405 1.368 . S
C3424 C3418 1.368 . S
C3424 C3423 1.523 . S
C3425 C3409 1.429 . S
C3425 C3421 1.429 . S
C3425 C3426 1.523 . S
C3426 C3410 1.368 . S
C3426 C3422 1.368 . S
C3426 C3425 1.523 . S
H3427 C3402 0.950 . S
H3428 C3404 0.950 . S
H3429 C3405 0.949 . S
H3430 C3407 0.950 . S
H3431 C3409 0.950 . S
C3432 C3433 1.349 . S
C3432 C3434 1.327 . S
C3432 H3457 0.950 . S
C3433 C3432 1.349 . S
C3433 C3449 1.349 . S
C3434 C3432 1.327 . S
C3434 C3453 1.429 . S
C3434 H3458 0.950 . S
C3435 C3452 1.574 . S
C3435 C3454 1.368 . S
C3435 H3459 0.949 . S
H3436 C3440 0.949 . S
C3437 C3438 1.349 . S
C3437 C3439 1.327 . S
C3437 H3460 0.950 . S
C3438 C3437 1.349 . S
C3438 C3450 1.349 . S
C3439 C3437 1.327 . S
C3439 C3455 1.429 . S
C3439 H3461 0.950 . S
C3440 H3436 0.949 . S
C3440 C3448 1.574 . S
C3440 C3456 1.368 . S
H3441 C3449 0.950 . S
H3442 C3447 0.950 . S
H3443 C3448 0.949 . S
H3444 C3450 0.950 . S
H3445 C3451 0.950 . S
H3446 C3452 0.949 . S
C3447 H3442 0.950 . S
C3447 C3449 1.327 . S
C3447 C3453 1.429 . S
C3448 C3440 1.574 . S
C3448 H3443 0.949 . S
C3448 C3454 1.368 . S
C3449 C3433 1.349 . S
C3449 H3441 0.950 . S
C3449 C3447 1.327 . S
C3450 C3438 1.349 . S
C3450 H3444 0.950 . S
C3450 C3451 1.327 . S
C3451 H3445 0.950 . S
C3451 C3450 1.327 . S
C3451 C3455 1.429 . S
C3452 C3435 1.574 . S
C3452 H3446 0.949 . S
C3452 C3456 1.368 . S
C3453 C3434 1.429 . S
C3453 C3447 1.429 . S
C3453 C3454 1.523 . S
C3454 C3435 1.368 . S
C3454 C3448 1.368 . S
C3454 C3453 1.523 . S
C3455 C3439 1.429 . S
C3455 C3451 1.429 . S
C3455 C3456 1.523 . S
C3456 C3440 1.368 . S
C3456 C3452 1.368 . S
C3456 C3455 1.523 . S
H3457 C3432 0.950 . S
H3458 C3434 0.950 . S
H3459 C3435 0.949 . S
H3460 C3437 0.950 . S
H3461 C3439 0.950 . S
C3462 C3463 1.349 . S
C3462 C3464 1.327 . S
C3462 H3487 0.950 . S
C3463 C3462 1.349 . S
C3463 C3479 1.349 . S
C3464 C3462 1.327 . S
C3464 C3483 1.429 . S
C3464 H3488 0.950 . S
C3465 C3482 1.574 . S
C3465 C3484 1.368 . S
C3465 H3489 0.949 . S
H3466 C3470 0.949 . S
C3467 C3468 1.349 . S
C3467 C3469 1.327 . S
C3467 H3490 0.950 . S
C3468 C3467 1.349 . S
C3468 C3480 1.349 . S
C3469 C3467 1.327 . S
C3469 C3485 1.429 . S
C3469 H3491 0.950 . S
C3470 H3466 0.949 . S
C3470 C3478 1.574 . S
C3470 C3486 1.368 . S
H3471 C3479 0.950 . S
H3472 C3477 0.950 . S
H3473 C3478 0.949 . S
H3474 C3480 0.950 . S
H3475 C3481 0.950 . S
H3476 C3482 0.949 . S
C3477 H3472 0.950 . S
C3477 C3479 1.327 . S
C3477 C3483 1.429 . S
C3478 C3470 1.574 . S
C3478 H3473 0.949 . S
C3478 C3484 1.368 . S
C3479 C3463 1.349 . S
C3479 H3471 0.950 . S
C3479 C3477 1.327 . S
C3480 C3468 1.349 . S
C3480 H3474 0.950 . S
C3480 C3481 1.327 . S
C3481 H3475 0.950 . S
C3481 C3480 1.327 . S
C3481 C3485 1.429 . S
C3482 C3465 1.574 . S
C3482 H3476 0.949 . S
C3482 C3486 1.368 . S
C3483 C3464 1.429 . S
C3483 C3477 1.429 . S
C3483 C3484 1.523 . S
C3484 C3465 1.368 . S
C3484 C3478 1.368 . S
C3484 C3483 1.523 . S
C3485 C3469 1.429 . S
C3485 C3481 1.429 . S
C3485 C3486 1.523 . S
C3486 C3470 1.368 . S
C3486 C3482 1.368 . S
C3486 C3485 1.523 . S
H3487 C3462 0.950 . S
H3488 C3464 0.950 . S
H3489 C3465 0.949 . S
H3490 C3467 0.950 . S
H3491 C3469 0.950 . S
C3492 C3493 1.349 . S
C3492 C3494 1.327 . S
C3492 H3517 0.950 . S
C3493 C3492 1.349 . S
C3493 C3509 1.349 . S
C3494 C3492 1.327 . S
C3494 C3513 1.429 . S
C3494 H3518 0.950 . S
C3495 C3512 1.574 . S
C3495 C3514 1.368 . S
C3495 H3519 0.949 . S
H3496 C3500 0.949 . S
C3497 C3498 1.349 . S
C3497 C3499 1.327 . S
C3497 H3520 0.950 . S
C3498 C3497 1.349 . S
C3498 C3510 1.349 . S
C3499 C3497 1.327 . S
C3499 C3515 1.429 . S
C3499 H3521 0.950 . S
C3500 H3496 0.949 . S
C3500 C3508 1.574 . S
C3500 C3516 1.368 . S
H3501 C3509 0.950 . S
H3502 C3507 0.950 . S
H3503 C3508 0.949 . S
H3504 C3510 0.950 . S
H3505 C3511 0.950 . S
H3506 C3512 0.949 . S
C3507 H3502 0.950 . S
C3507 C3509 1.327 . S
C3507 C3513 1.429 . S
C3508 C3500 1.574 . S
C3508 H3503 0.949 . S
C3508 C3514 1.368 . S
C3509 C3493 1.349 . S
C3509 H3501 0.950 . S
C3509 C3507 1.327 . S
C3510 C3498 1.349 . S
C3510 H3504 0.950 . S
C3510 C3511 1.327 . S
C3511 H3505 0.950 . S
C3511 C3510 1.327 . S
C3511 C3515 1.429 . S
C3512 C3495 1.574 . S
C3512 H3506 0.949 . S
C3512 C3516 1.368 . S
C3513 C3494 1.429 . S
C3513 C3507 1.429 . S
C3513 C3514 1.523 . S
C3514 C3495 1.368 . S
C3514 C3508 1.368 . S
C3514 C3513 1.523 . S
C3515 C3499 1.429 . S
C3515 C3511 1.429 . S
C3515 C3516 1.523 . S
C3516 C3500 1.368 . S
C3516 C3512 1.368 . S
C3516 C3515 1.523 . S
H3517 C3492 0.950 . S
H3518 C3494 0.950 . S
H3519 C3495 0.949 . S
H3520 C3497 0.950 . S
H3521 C3499 0.950 . S
C3522 C3523 1.349 . S
C3522 C3524 1.327 . S
C3522 H3547 0.950 . S
C3523 C3522 1.349 . S
C3523 C3539 1.349 . S
C3524 C3522 1.327 . S
C3524 C3543 1.429 . S
C3524 H3548 0.950 . S
C3525 C3542 1.574 . S
C3525 C3544 1.368 . S
C3525 H3549 0.949 . S
H3526 C3530 0.949 . S
C3527 C3528 1.349 . S
C3527 C3529 1.327 . S
C3527 H3550 0.950 . S
C3528 C3527 1.349 . S
C3528 C3540 1.349 . S
C3529 C3527 1.327 . S
C3529 C3545 1.429 . S
C3529 H3551 0.950 . S
C3530 H3526 0.949 . S
C3530 C3538 1.574 . S
C3530 C3546 1.368 . S
H3531 C3539 0.950 . S
H3532 C3537 0.950 . S
H3533 C3538 0.949 . S
H3534 C3540 0.950 . S
H3535 C3541 0.950 . S
H3536 C3542 0.949 . S
C3537 H3532 0.950 . S
C3537 C3539 1.327 . S
C3537 C3543 1.429 . S
C3538 C3530 1.574 . S
C3538 H3533 0.949 . S
C3538 C3544 1.368 . S
C3539 C3523 1.349 . S
C3539 H3531 0.950 . S
C3539 C3537 1.327 . S
C3540 C3528 1.349 . S
C3540 H3534 0.950 . S
C3540 C3541 1.327 . S
C3541 H3535 0.950 . S
C3541 C3540 1.327 . S
C3541 C3545 1.429 . S
C3542 C3525 1.574 . S
C3542 H3536 0.949 . S
C3542 C3546 1.368 . S
C3543 C3524 1.429 . S
C3543 C3537 1.429 . S
C3543 C3544 1.523 . S
C3544 C3525 1.368 . S
C3544 C3538 1.368 . S
C3544 C3543 1.523 . S
C3545 C3529 1.429 . S
C3545 C3541 1.429 . S
C3545 C3546 1.523 . S
C3546 C3530 1.368 . S
C3546 C3542 1.368 . S
C3546 C3545 1.523 . S
H3547 C3522 0.950 . S
H3548 C3524 0.950 . S
H3549 C3525 0.949 . S
H3550 C3527 0.950 . S
H3551 C3529 0.950 . S
C3552 C3553 1.349 . S
C3552 C3554 1.327 . S
C3552 H3577 0.950 . S
C3553 C3552 1.349 . S
C3553 C3569 1.349 . S
C3554 C3552 1.327 . S
C3554 C3573 1.429 . S
C3554 H3578 0.950 . S
C3555 C3572 1.574 . S
C3555 C3574 1.368 . S
C3555 H3579 0.949 . S
H3556 C3560 0.949 . S
C3557 C3558 1.349 . S
C3557 C3559 1.327 . S
C3557 H3580 0.950 . S
C3558 C3557 1.349 . S
C3558 C3570 1.349 . S
C3559 C3557 1.327 . S
C3559 C3575 1.429 . S
C3559 H3581 0.950 . S
C3560 H3556 0.949 . S
C3560 C3568 1.574 . S
C3560 C3576 1.368 . S
H3561 C3569 0.950 . S
H3562 C3567 0.950 . S
H3563 C3568 0.949 . S
H3564 C3570 0.950 . S
H3565 C3571 0.950 . S
H3566 C3572 0.949 . S
C3567 H3562 0.950 . S
C3567 C3569 1.327 . S
C3567 C3573 1.429 . S
C3568 C3560 1.574 . S
C3568 H3563 0.949 . S
C3568 C3574 1.368 . S
C3569 C3553 1.349 . S
C3569 H3561 0.950 . S
C3569 C3567 1.327 . S
C3570 C3558 1.349 . S
C3570 H3564 0.950 . S
C3570 C3571 1.327 . S
C3571 H3565 0.950 . S
C3571 C3570 1.327 . S
C3571 C3575 1.429 . S
C3572 C3555 1.574 . S
C3572 H3566 0.949 . S
C3572 C3576 1.368 . S
C3573 C3554 1.429 . S
C3573 C3567 1.429 . S
C3573 C3574 1.523 . S
C3574 C3555 1.368 . S
C3574 C3568 1.368 . S
C3574 C3573 1.523 . S
C3575 C3559 1.429 . S
C3575 C3571 1.429 . S
C3575 C3576 1.523 . S
C3576 C3560 1.368 . S
C3576 C3572 1.368 . S
C3576 C3575 1.523 . S
H3577 C3552 0.950 . S
H3578 C3554 0.950 . S
H3579 C3555 0.949 . S
H3580 C3557 0.950 . S
H3581 C3559 0.950 . S
C3582 C3583 1.349 . S
C3582 C3584 1.327 . S
C3582 H3607 0.950 . S
C3583 C3582 1.349 . S
C3583 C3599 1.349 . S
C3584 C3582 1.327 . S
C3584 C3603 1.429 . S
C3584 H3608 0.950 . S
C3585 C3602 1.574 . S
C3585 C3604 1.368 . S
C3585 H3609 0.949 . S
H3586 C3590 0.949 . S
C3587 C3588 1.349 . S
C3587 C3589 1.327 . S
C3587 H3610 0.950 . S
C3588 C3587 1.349 . S
C3588 C3600 1.349 . S
C3589 C3587 1.327 . S
C3589 C3605 1.429 . S
C3589 H3611 0.950 . S
C3590 H3586 0.949 . S
C3590 C3598 1.574 . S
C3590 C3606 1.368 . S
H3591 C3599 0.950 . S
H3592 C3597 0.950 . S
H3593 C3598 0.949 . S
H3594 C3600 0.950 . S
H3595 C3601 0.950 . S
H3596 C3602 0.949 . S
C3597 H3592 0.950 . S
C3597 C3599 1.327 . S
C3597 C3603 1.429 . S
C3598 C3590 1.574 . S
C3598 H3593 0.949 . S
C3598 C3604 1.368 . S
C3599 C3583 1.349 . S
C3599 H3591 0.950 . S
C3599 C3597 1.327 . S
C3600 C3588 1.349 . S
C3600 H3594 0.950 . S
C3600 C3601 1.327 . S
C3601 H3595 0.950 . S
C3601 C3600 1.327 . S
C3601 C3605 1.429 . S
C3602 C3585 1.574 . S
C3602 H3596 0.949 . S
C3602 C3606 1.368 . S
C3603 C3584 1.429 . S
C3603 C3597 1.429 . S
C3603 C3604 1.523 . S
C3604 C3585 1.368 . S
C3604 C3598 1.368 . S
C3604 C3603 1.523 . S
C3605 C3589 1.429 . S
C3605 C3601 1.429 . S
C3605 C3606 1.523 . S
C3606 C3590 1.368 . S
C3606 C3602 1.368 . S
C3606 C3605 1.523 . S
H3607 C3582 0.950 . S
H3608 C3584 0.950 . S
H3609 C3585 0.949 . S
H3610 C3587 0.950 . S
H3611 C3589 0.950 . S
C3612 C3613 1.349 . S
C3612 C3614 1.327 . S
C3612 H3637 0.950 . S
C3613 C3612 1.349 . S
C3613 C3629 1.349 . S
C3614 C3612 1.327 . S
C3614 C3633 1.429 . S
C3614 H3638 0.950 . S
C3615 C3632 1.574 . S
C3615 C3634 1.368 . S
C3615 H3639 0.949 . S
H3616 C3620 0.949 . S
C3617 C3618 1.349 . S
C3617 C3619 1.327 . S
C3617 H3640 0.950 . S
C3618 C3617 1.349 . S
C3618 C3630 1.349 . S
C3619 C3617 1.327 . S
C3619 C3635 1.429 . S
C3619 H3641 0.950 . S
C3620 H3616 0.949 . S
C3620 C3628 1.574 . S
C3620 C3636 1.368 . S
H3621 C3629 0.950 . S
H3622 C3627 0.950 . S
H3623 C3628 0.949 . S
H3624 C3630 0.950 . S
H3625 C3631 0.950 . S
H3626 C3632 0.949 . S
C3627 H3622 0.950 . S
C3627 C3629 1.327 . S
C3627 C3633 1.429 . S
C3628 C3620 1.574 . S
C3628 H3623 0.949 . S
C3628 C3634 1.368 . S
C3629 C3613 1.349 . S
C3629 H3621 0.950 . S
C3629 C3627 1.327 . S
C3630 C3618 1.349 . S
C3630 H3624 0.950 . S
C3630 C3631 1.327 . S
C3631 H3625 0.950 . S
C3631 C3630 1.327 . S
C3631 C3635 1.429 . S
C3632 C3615 1.574 . S
C3632 H3626 0.949 . S
C3632 C3636 1.368 . S
C3633 C3614 1.429 . S
C3633 C3627 1.429 . S
C3633 C3634 1.523 . S
C3634 C3615 1.368 . S
C3634 C3628 1.368 . S
C3634 C3633 1.523 . S
C3635 C3619 1.429 . S
C3635 C3631 1.429 . S
C3635 C3636 1.523 . S
C3636 C3620 1.368 . S
C3636 C3632 1.368 . S
C3636 C3635 1.523 . S
H3637 C3612 0.950 . S
H3638 C3614 0.950 . S
H3639 C3615 0.949 . S
H3640 C3617 0.950 . S
H3641 C3619 0.950 . S
C3642 C3643 1.349 . S
C3642 C3644 1.327 . S
C3642 H3667 0.950 . S
C3643 C3642 1.349 . S
C3643 C3659 1.349 . S
C3644 C3642 1.327 . S
C3644 C3663 1.429 . S
C3644 H3668 0.950 . S
C3645 C3662 1.574 . S
C3645 C3664 1.368 . S
C3645 H3669 0.949 . S
H3646 C3650 0.949 . S
C3647 C3648 1.349 . S
C3647 C3649 1.327 . S
C3647 H3670 0.950 . S
C3648 C3647 1.349 . S
C3648 C3660 1.349 . S
C3649 C3647 1.327 . S
C3649 C3665 1.429 . S
C3649 H3671 0.950 . S
C3650 H3646 0.949 . S
C3650 C3658 1.574 . S
C3650 C3666 1.368 . S
H3651 C3659 0.950 . S
H3652 C3657 0.950 . S
H3653 C3658 0.949 . S
H3654 C3660 0.950 . S
H3655 C3661 0.950 . S
H3656 C3662 0.949 . S
C3657 H3652 0.950 . S
C3657 C3659 1.327 . S
C3657 C3663 1.429 . S
C3658 C3650 1.574 . S
C3658 H3653 0.949 . S
C3658 C3664 1.368 . S
C3659 C3643 1.349 . S
C3659 H3651 0.950 . S
C3659 C3657 1.327 . S
C3660 C3648 1.349 . S
C3660 H3654 0.950 . S
C3660 C3661 1.327 . S
C3661 H3655 0.950 . S
C3661 C3660 1.327 . S
C3661 C3665 1.429 . S
C3662 C3645 1.574 . S
C3662 H3656 0.949 . S
C3662 C3666 1.368 . S
C3663 C3644 1.429 . S
C3663 C3657 1.429 . S
C3663 C3664 1.523 . S
C3664 C3645 1.368 . S
C3664 C3658 1.368 . S
C3664 C3663 1.523 . S
C3665 C3649 1.429 . S
C3665 C3661 1.429 . S
C3665 C3666 1.523 . S
C3666 C3650 1.368 . S
C3666 C3662 1.368 . S
C3666 C3665 1.523 . S
H3667 C3642 0.950 . S
H3668 C3644 0.950 . S
H3669 C3645 0.949 . S
H3670 C3647 0.950 . S
H3671 C3649 0.950 . S
C3672 C3673 1.349 . S
C3672 C3674 1.327 . S
C3672 H3697 0.950 . S
C3673 C3672 1.349 . S
C3673 C3689 1.349 . S
C3674 C3672 1.327 . S
C3674 C3693 1.429 . S
C3674 H3698 0.950 . S
C3675 C3692 1.574 . S
C3675 C3694 1.368 . S
C3675 H3699 0.949 . S
H3676 C3680 0.949 . S
C3677 C3678 1.349 . S
C3677 C3679 1.327 . S
C3677 H3700 0.950 . S
C3678 C3677 1.349 . S
C3678 C3690 1.349 . S
C3679 C3677 1.327 . S
C3679 C3695 1.429 . S
C3679 H3701 0.950 . S
C3680 H3676 0.949 . S
C3680 C3688 1.574 . S
C3680 C3696 1.368 . S
H3681 C3689 0.950 . S
H3682 C3687 0.950 . S
H3683 C3688 0.949 . S
H3684 C3690 0.950 . S
H3685 C3691 0.950 . S
H3686 C3692 0.949 . S
C3687 H3682 0.950 . S
C3687 C3689 1.327 . S
C3687 C3693 1.429 . S
C3688 C3680 1.574 . S
C3688 H3683 0.949 . S
C3688 C3694 1.368 . S
C3689 C3673 1.349 . S
C3689 H3681 0.950 . S
C3689 C3687 1.327 . S
C3690 C3678 1.349 . S
C3690 H3684 0.950 . S
C3690 C3691 1.327 . S
C3691 H3685 0.950 . S
C3691 C3690 1.327 . S
C3691 C3695 1.429 . S
C3692 C3675 1.574 . S
C3692 H3686 0.949 . S
C3692 C3696 1.368 . S
C3693 C3674 1.429 . S
C3693 C3687 1.429 . S
C3693 C3694 1.523 . S
C3694 C3675 1.368 . S
C3694 C3688 1.368 . S
C3694 C3693 1.523 . S
C3695 C3679 1.429 . S
C3695 C3691 1.429 . S
C3695 C3696 1.523 . S
C3696 C3680 1.368 . S
C3696 C3692 1.368 . S
C3696 C3695 1.523 . S
H3697 C3672 0.950 . S
H3698 C3674 0.950 . S
H3699 C3675 0.949 . S
H3700 C3677 0.950 . S
H3701 C3679 0.950 . S
C3702 C3703 1.349 . S
C3702 C3704 1.327 . S
C3702 H3727 0.950 . S
C3703 C3702 1.349 . S
C3703 C3719 1.349 . S
C3704 C3702 1.327 . S
C3704 C3723 1.429 . S
C3704 H3728 0.950 . S
C3705 C3722 1.574 . S
C3705 C3724 1.368 . S
C3705 H3729 0.949 . S
H3706 C3710 0.949 . S
C3707 C3708 1.349 . S
C3707 C3709 1.327 . S
C3707 H3730 0.950 . S
C3708 C3707 1.349 . S
C3708 C3720 1.349 . S
C3709 C3707 1.327 . S
C3709 C3725 1.429 . S
C3709 H3731 0.950 . S
C3710 H3706 0.949 . S
C3710 C3718 1.574 . S
C3710 C3726 1.368 . S
H3711 C3719 0.950 . S
H3712 C3717 0.950 . S
H3713 C3718 0.949 . S
H3714 C3720 0.950 . S
H3715 C3721 0.950 . S
H3716 C3722 0.949 . S
C3717 H3712 0.950 . S
C3717 C3719 1.327 . S
C3717 C3723 1.429 . S
C3718 C3710 1.574 . S
C3718 H3713 0.949 . S
C3718 C3724 1.368 . S
C3719 C3703 1.349 . S
C3719 H3711 0.950 . S
C3719 C3717 1.327 . S
C3720 C3708 1.349 . S
C3720 H3714 0.950 . S
C3720 C3721 1.327 . S
C3721 H3715 0.950 . S
C3721 C3720 1.327 . S
C3721 C3725 1.429 . S
C3722 C3705 1.574 . S
C3722 H3716 0.949 . S
C3722 C3726 1.368 . S
C3723 C3704 1.429 . S
C3723 C3717 1.429 . S
C3723 C3724 1.523 . S
C3724 C3705 1.368 . S
C3724 C3718 1.368 . S
C3724 C3723 1.523 . S
C3725 C3709 1.429 . S
C3725 C3721 1.429 . S
C3725 C3726 1.523 . S
C3726 C3710 1.368 . S
C3726 C3722 1.368 . S
C3726 C3725 1.523 . S
H3727 C3702 0.950 . S
H3728 C3704 0.950 . S
H3729 C3705 0.949 . S
H3730 C3707 0.950 . S
H3731 C3709 0.950 . S
C3732 C3733 1.349 . S
C3732 C3734 1.327 . S
C3732 H3757 0.950 . S
C3733 C3732 1.349 . S
C3733 C3749 1.349 . S
C3734 C3732 1.327 . S
C3734 C3753 1.429 . S
C3734 H3758 0.950 . S
C3735 C3752 1.574 . S
C3735 C3754 1.368 . S
C3735 H3759 0.949 . S
H3736 C3740 0.949 . S
C3737 C3738 1.349 . S
C3737 C3739 1.327 . S
C3737 H3760 0.950 . S
C3738 C3737 1.349 . S
C3738 C3750 1.349 . S
C3739 C3737 1.327 . S
C3739 C3755 1.429 . S
C3739 H3761 0.950 . S
C3740 H3736 0.949 . S
C3740 C3748 1.574 . S
C3740 C3756 1.368 . S
H3741 C3749 0.950 . S
H3742 C3747 0.950 . S
H3743 C3748 0.949 . S
H3744 C3750 0.950 . S
H3745 C3751 0.950 . S
H3746 C3752 0.949 . S
C3747 H3742 0.950 . S
C3747 C3749 1.327 . S
C3747 C3753 1.429 . S
C3748 C3740 1.574 . S
C3748 H3743 0.949 . S
C3748 C3754 1.368 . S
C3749 C3733 1.349 . S
C3749 H3741 0.950 . S
C3749 C3747 1.327 . S
C3750 C3738 1.349 . S
C3750 H3744 0.950 . S
C3750 C3751 1.327 . S
C3751 H3745 0.950 . S
C3751 C3750 1.327 . S
C3751 C3755 1.429 . S
C3752 C3735 1.574 . S
C3752 H3746 0.949 . S
C3752 C3756 1.368 . S
C3753 C3734 1.429 . S
C3753 C3747 1.429 . S
C3753 C3754 1.523 . S
C3754 C3735 1.368 . S
C3754 C3748 1.368 . S
C3754 C3753 1.523 . S
C3755 C3739 1.429 . S
C3755 C3751 1.429 . S
C3755 C3756 1.523 . S
C3756 C3740 1.368 . S
C3756 C3752 1.368 . S
C3756 C3755 1.523 . S
H3757 C3732 0.950 . S
H3758 C3734 0.950 . S
H3759 C3735 0.949 . S
H3760 C3737 0.950 . S
H3761 C3739 0.950 . S
C3762 C3763 1.349 . S
C3762 C3764 1.327 . S
C3762 H3787 0.950 . S
C3763 C3762 1.349 . S
C3763 C3779 1.349 . S
C3764 C3762 1.327 . S
C3764 C3783 1.429 . S
C3764 H3788 0.950 . S
C3765 C3782 1.574 . S
C3765 C3784 1.368 . S
C3765 H3789 0.949 . S
H3766 C3770 0.949 . S
C3767 C3768 1.349 . S
C3767 C3769 1.327 . S
C3767 H3790 0.950 . S
C3768 C3767 1.349 . S
C3768 C3780 1.349 . S
C3769 C3767 1.327 . S
C3769 C3785 1.429 . S
C3769 H3791 0.950 . S
C3770 H3766 0.949 . S
C3770 C3778 1.574 . S
C3770 C3786 1.368 . S
H3771 C3779 0.950 . S
H3772 C3777 0.950 . S
H3773 C3778 0.949 . S
H3774 C3780 0.950 . S
H3775 C3781 0.950 . S
H3776 C3782 0.949 . S
C3777 H3772 0.950 . S
C3777 C3779 1.327 . S
C3777 C3783 1.429 . S
C3778 C3770 1.574 . S
C3778 H3773 0.949 . S
C3778 C3784 1.368 . S
C3779 C3763 1.349 . S
C3779 H3771 0.950 . S
C3779 C3777 1.327 . S
C3780 C3768 1.349 . S
C3780 H3774 0.950 . S
C3780 C3781 1.327 . S
C3781 H3775 0.950 . S
C3781 C3780 1.327 . S
C3781 C3785 1.429 . S
C3782 C3765 1.574 . S
C3782 H3776 0.949 . S
C3782 C3786 1.368 . S
C3783 C3764 1.429 . S
C3783 C3777 1.429 . S
C3783 C3784 1.523 . S
C3784 C3765 1.368 . S
C3784 C3778 1.368 . S
C3784 C3783 1.523 . S
C3785 C3769 1.429 . S
C3785 C3781 1.429 . S
C3785 C3786 1.523 . S
C3786 C3770 1.368 . S
C3786 C3782 1.368 . S
C3786 C3785 1.523 . S
H3787 C3762 0.950 . S
H3788 C3764 0.950 . S
H3789 C3765 0.949 . S
H3790 C3767 0.950 . S
H3791 C3769 0.950 . S
C3792 C3793 1.349 . S
C3792 C3794 1.327 . S
C3792 H3817 0.950 . S
C3793 C3792 1.349 . S
C3793 C3809 1.349 . S
C3794 C3792 1.327 . S
C3794 C3813 1.429 . S
C3794 H3818 0.950 . S
C3795 C3812 1.574 . S
C3795 C3814 1.368 . S
C3795 H3819 0.949 . S
H3796 C3800 0.949 . S
C3797 C3798 1.349 . S
C3797 C3799 1.327 . S
C3797 H3820 0.950 . S
C3798 C3797 1.349 . S
C3798 C3810 1.349 . S
C3799 C3797 1.327 . S
C3799 C3815 1.429 . S
C3799 H3821 0.950 . S
C3800 H3796 0.949 . S
C3800 C3808 1.574 . S
C3800 C3816 1.368 . S
H3801 C3809 0.950 . S
H3802 C3807 0.950 . S
H3803 C3808 0.949 . S
H3804 C3810 0.950 . S
H3805 C3811 0.950 . S
H3806 C3812 0.949 . S
C3807 H3802 0.950 . S
C3807 C3809 1.327 . S
C3807 C3813 1.429 . S
C3808 C3800 1.574 . S
C3808 H3803 0.949 . S
C3808 C3814 1.368 . S
C3809 C3793 1.349 . S
C3809 H3801 0.950 . S
C3809 C3807 1.327 . S
C3810 C3798 1.349 . S
C3810 H3804 0.950 . S
C3810 C3811 1.327 . S
C3811 H3805 0.950 . S
C3811 C3810 1.327 . S
C3811 C3815 1.429 . S
C3812 C3795 1.574 . S
C3812 H3806 0.949 . S
C3812 C3816 1.368 . S
C3813 C3794 1.429 . S
C3813 C3807 1.429 . S
C3813 C3814 1.523 . S
C3814 C3795 1.368 . S
C3814 C3808 1.368 . S
C3814 C3813 1.523 . S
C3815 C3799 1.429 . S
C3815 C3811 1.429 . S
C3815 C3816 1.523 . S
C3816 C3800 1.368 . S
C3816 C3812 1.368 . S
C3816 C3815 1.523 . S
H3817 C3792 0.950 . S
H3818 C3794 0.950 . S
H3819 C3795 0.949 . S
H3820 C3797 0.950 . S
H3821 C3799 0.950 . S
C3822 C3823 1.349 . S
C3822 C3824 1.327 . S
C3822 H3847 0.950 . S
C3823 C3822 1.349 . S
C3823 C3839 1.349 . S
C3824 C3822 1.327 . S
C3824 C3843 1.429 . S
C3824 H3848 0.950 . S
C3825 C3842 1.574 . S
C3825 C3844 1.368 . S
C3825 H3849 0.949 . S
H3826 C3830 0.949 . S
C3827 C3828 1.349 . S
C3827 C3829 1.327 . S
C3827 H3850 0.950 . S
C3828 C3827 1.349 . S
C3828 C3840 1.349 . S
C3829 C3827 1.327 . S
C3829 C3845 1.429 . S
C3829 H3851 0.950 . S
C3830 H3826 0.949 . S
C3830 C3838 1.574 . S
C3830 C3846 1.368 . S
H3831 C3839 0.950 . S
H3832 C3837 0.950 . S
H3833 C3838 0.949 . S
H3834 C3840 0.950 . S
H3835 C3841 0.950 . S
H3836 C3842 0.949 . S
C3837 H3832 0.950 . S
C3837 C3839 1.327 . S
C3837 C3843 1.429 . S
C3838 C3830 1.574 . S
C3838 H3833 0.949 . S
C3838 C3844 1.368 . S
C3839 C3823 1.349 . S
C3839 H3831 0.950 . S
C3839 C3837 1.327 . S
C3840 C3828 1.349 . S
C3840 H3834 0.950 . S
C3840 C3841 1.327 . S
C3841 H3835 0.950 . S
C3841 C3840 1.327 . S
C3841 C3845 1.429 . S
C3842 C3825 1.574 . S
C3842 H3836 0.949 . S
C3842 C3846 1.368 . S
C3843 C3824 1.429 . S
C3843 C3837 1.429 . S
C3843 C3844 1.523 . S
C3844 C3825 1.368 . S
C3844 C3838 1.368 . S
C3844 C3843 1.523 . S
C3845 C3829 1.429 . S
C3845 C3841 1.429 . S
C3845 C3846 1.523 . S
C3846 C3830 1.368 . S
C3846 C3842 1.368 . S
C3846 C3845 1.523 . S
H3847 C3822 0.950 . S
H3848 C3824 0.950 . S
H3849 C3825 0.949 . S
H3850 C3827 0.950 . S
H3851 C3829 0.950 . S
C3852 C3853 1.349 . S
C3852 C3854 1.327 . S
C3852 H3877 0.950 . S
C3853 C3852 1.349 . S
C3853 C3869 1.349 . S
C3854 C3852 1.327 . S
C3854 C3873 1.429 . S
C3854 H3878 0.950 . S
C3855 C3872 1.574 . S
C3855 C3874 1.368 . S
C3855 H3879 0.949 . S
H3856 C3860 0.949 . S
C3857 C3858 1.349 . S
C3857 C3859 1.327 . S
C3857 H3880 0.950 . S
C3858 C3857 1.349 . S
C3858 C3870 1.349 . S
C3859 C3857 1.327 . S
C3859 C3875 1.429 . S
C3859 H3881 0.950 . S
C3860 H3856 0.949 . S
C3860 C3868 1.574 . S
C3860 C3876 1.368 . S
H3861 C3869 0.950 . S
H3862 C3867 0.950 . S
H3863 C3868 0.949 . S
H3864 C3870 0.950 . S
H3865 C3871 0.950 . S
H3866 C3872 0.949 . S
C3867 H3862 0.950 . S
C3867 C3869 1.327 . S
C3867 C3873 1.429 . S
C3868 C3860 1.574 . S
C3868 H3863 0.949 . S
C3868 C3874 1.368 . S
C3869 C3853 1.349 . S
C3869 H3861 0.950 . S
C3869 C3867 1.327 . S
C3870 C3858 1.349 . S
C3870 H3864 0.950 . S
C3870 C3871 1.327 . S
C3871 H3865 0.950 . S
C3871 C3870 1.327 . S
C3871 C3875 1.429 . S
C3872 C3855 1.574 . S
C3872 H3866 0.949 . S
C3872 C3876 1.368 . S
C3873 C3854 1.429 . S
C3873 C3867 1.429 . S
C3873 C3874 1.523 . S
C3874 C3855 1.368 . S
C3874 C3868 1.368 . S
C3874 C3873 1.523 . S
C3875 C3859 1.429 . S
C3875 C3871 1.429 . S
C3875 C3876 1.523 . S
C3876 C3860 1.368 . S
C3876 C3872 1.368 . S
C3876 C3875 1.523 . S
H3877 C3852 0.950 . S
H3878 C3854 0.950 . S
H3879 C3855 0.949 . S
H3880 C3857 0.950 . S
H3881 C3859 0.950 . S
C3882 C3883 1.349 . S
C3882 C3884 1.327 . S
C3882 H3907 0.950 . S
C3883 C3882 1.349 . S
C3883 C3899 1.349 . S
C3884 C3882 1.327 . S
C3884 C3903 1.429 . S
C3884 H3908 0.950 . S
C3885 C3902 1.574 . S
C3885 C3904 1.368 . S
C3885 H3909 0.949 . S
H3886 C3890 0.949 . S
C3887 C3888 1.349 . S
C3887 C3889 1.327 . S
C3887 H3910 0.950 . S
C3888 C3887 1.349 . S
C3888 C3900 1.349 . S
C3889 C3887 1.327 . S
C3889 C3905 1.429 . S
C3889 H3911 0.950 . S
C3890 H3886 0.949 . S
C3890 C3898 1.574 . S
C3890 C3906 1.368 . S
H3891 C3899 0.950 . S
H3892 C3897 0.950 . S
H3893 C3898 0.949 . S
H3894 C3900 0.950 . S
H3895 C3901 0.950 . S
H3896 C3902 0.949 . S
C3897 H3892 0.950 . S
C3897 C3899 1.327 . S
C3897 C3903 1.429 . S
C3898 C3890 1.574 . S
C3898 H3893 0.949 . S
C3898 C3904 1.368 . S
C3899 C3883 1.349 . S
C3899 H3891 0.950 . S
C3899 C3897 1.327 . S
C3900 C3888 1.349 . S
C3900 H3894 0.950 . S
C3900 C3901 1.327 . S
C3901 H3895 0.950 . S
C3901 C3900 1.327 . S
C3901 C3905 1.429 . S
C3902 C3885 1.574 . S
C3902 H3896 0.949 . S
C3902 C3906 1.368 . S
C3903 C3884 1.429 . S
C3903 C3897 1.429 . S
C3903 C3904 1.523 . S
C3904 C3885 1.368 . S
C3904 C3898 1.368 . S
C3904 C3903 1.523 . S
C3905 C3889 1.429 . S
C3905 C3901 1.429 . S
C3905 C3906 1.523 . S
C3906 C3890 1.368 . S
C3906 C3902 1.368 . S
C3906 C3905 1.523 . S
H3907 C3882 0.950 . S
H3908 C3884 0.950 . S
H3909 C3885 0.949 . S
H3910 C3887 0.950 . S
H3911 C3889 0.950 . S
C3912 C3913 1.349 . S
C3912 C3914 1.327 . S
C3912 H3937 0.950 . S
C3913 C3912 1.349 . S
C3913 C3929 1.349 . S
C3914 C3912 1.327 . S
C3914 C3933 1.429 . S
C3914 H3938 0.950 . S
C3915 C3932 1.574 . S
C3915 C3934 1.368 . S
C3915 H3939 0.949 . S
H3916 C3920 0.949 . S
C3917 C3918 1.349 . S
C3917 C3919 1.327 . S
C3917 H3940 0.950 . S
C3918 C3917 1.349 . S
C3918 C3930 1.349 . S
C3919 C3917 1.327 . S
C3919 C3935 1.429 . S
C3919 H3941 0.950 . S
C3920 H3916 0.949 . S
C3920 C3928 1.574 . S
C3920 C3936 1.368 . S
H3921 C3929 0.950 . S
H3922 C3927 0.950 . S
H3923 C3928 0.949 . S
H3924 C3930 0.950 . S
H3925 C3931 0.950 . S
H3926 C3932 0.949 . S
C3927 H3922 0.950 . S
C3927 C3929 1.327 . S
C3927 C3933 1.429 . S
C3928 C3920 1.574 . S
C3928 H3923 0.949 . S
C3928 C3934 1.368 . S
C3929 C3913 1.349 . S
C3929 H3921 0.950 . S
C3929 C3927 1.327 . S
C3930 C3918 1.349 . S
C3930 H3924 0.950 . S
C3930 C3931 1.327 . S
C3931 H3925 0.950 . S
C3931 C3930 1.327 . S
C3931 C3935 1.429 . S
C3932 C3915 1.574 . S
C3932 H3926 0.949 . S
C3932 C3936 1.368 . S
C3933 C3914 1.429 . S
C3933 C3927 1.429 . S
C3933 C3934 1.523 . S
C3934 C3915 1.368 . S
C3934 C3928 1.368 . S
C3934 C3933 1.523 . S
C3935 C3919 1.429 . S
C3935 C3931 1.429 . S
C3935 C3936 1.523 . S
C3936 C3920 1.368 . S
C3936 C3932 1.368 . S
C3936 C3935 1.523 . S
H3937 C3912 0.950 . S
H3938 C3914 0.950 . S
H3939 C3915 0.949 . S
H3940 C3917 0.950 . S
H3941 C3919 0.950 . S
C3942 C3943 1.349 . S
C3942 C3944 1.327 . S
C3942 H3967 0.950 . S
C3943 C3942 1.349 . S
C3943 C3959 1.349 . S
C3944 C3942 1.327 . S
C3944 C3963 1.429 . S
C3944 H3968 0.950 . S
C3945 C3962 1.574 . S
C3945 C3964 1.368 . S
C3945 H3969 0.949 . S
H3946 C3950 0.949 . S
C3947 C3948 1.349 . S
C3947 C3949 1.327 . S
C3947 H3970 0.950 . S
C3948 C3947 1.349 . S
C3948 C3960 1.349 . S
C3949 C3947 1.327 . S
C3949 C3965 1.429 . S
C3949 H3971 0.950 . S
C3950 H3946 0.949 . S
C3950 C3958 1.574 . S
C3950 C3966 1.368 . S
H3951 C3959 0.950 . S
H3952 C3957 0.950 . S
H3953 C3958 0.949 . S
H3954 C3960 0.950 . S
H3955 C3961 0.950 . S
H3956 C3962 0.949 . S
C3957 H3952 0.950 . S
C3957 C3959 1.327 . S
C3957 C3963 1.429 . S
C3958 C3950 1.574 . S
C3958 H3953 0.949 . S
C3958 C3964 1.368 . S
C3959 C3943 1.349 . S
C3959 H3951 0.950 . S
C3959 C3957 1.327 . S
C3960 C3948 1.349 . S
C3960 H3954 0.950 . S
C3960 C3961 1.327 . S
C3961 H3955 0.950 . S
C3961 C3960 1.327 . S
C3961 C3965 1.429 . S
C3962 C3945 1.574 . S
C3962 H3956 0.949 . S
C3962 C3966 1.368 . S
C3963 C3944 1.429 . S
C3963 C3957 1.429 . S
C3963 C3964 1.523 . S
C3964 C3945 1.368 . S
C3964 C3958 1.368 . S
C3964 C3963 1.523 . S
C3965 C3949 1.429 . S
C3965 C3961 1.429 . S
C3965 C3966 1.523 . S
C3966 C3950 1.368 . S
C3966 C3962 1.368 . S
C3966 C3965 1.523 . S
H3967 C3942 0.950 . S
H3968 C3944 0.950 . S
H3969 C3945 0.949 . S
H3970 C3947 0.950 . S
H3971 C3949 0.950 . S
C3972 C3973 1.349 . S
C3972 C3974 1.327 . S
C3972 H3997 0.950 . S
C3973 C3972 1.349 . S
C3973 C3989 1.349 . S
C3974 C3972 1.327 . S
C3974 C3993 1.429 . S
C3974 H3998 0.950 . S
C3975 C3992 1.574 . S
C3975 C3994 1.368 . S
C3975 H3999 0.949 . S
H3976 C3980 0.949 . S
C3977 C3978 1.349 . S
C3977 C3979 1.327 . S
C3977 H4000 0.950 . S
C3978 C3977 1.349 . S
C3978 C3990 1.349 . S
C3979 C3977 1.327 . S
C3979 C3995 1.429 . S
C3979 H4001 0.950 . S
C3980 H3976 0.949 . S
C3980 C3988 1.574 . S
C3980 C3996 1.368 . S
H3981 C3989 0.950 . S
H3982 C3987 0.950 . S
H3983 C3988 0.949 . S
H3984 C3990 0.950 . S
H3985 C3991 0.950 . S
H3986 C3992 0.949 . S
C3987 H3982 0.950 . S
C3987 C3989 1.327 . S
C3987 C3993 1.429 . S
C3988 C3980 1.574 . S
C3988 H3983 0.949 . S
C3988 C3994 1.368 . S
C3989 C3973 1.349 . S
C3989 H3981 0.950 . S
C3989 C3987 1.327 . S
C3990 C3978 1.349 . S
C3990 H3984 0.950 . S
C3990 C3991 1.327 . S
C3991 H3985 0.950 . S
C3991 C3990 1.327 . S
C3991 C3995 1.429 . S
C3992 C3975 1.574 . S
C3992 H3986 0.949 . S
C3992 C3996 1.368 . S
C3993 C3974 1.429 . S
C3993 C3987 1.429 . S
C3993 C3994 1.523 . S
C3994 C3975 1.368 . S
C3994 C3988 1.368 . S
C3994 C3993 1.523 . S
C3995 C3979 1.429 . S
C3995 C3991 1.429 . S
C3995 C3996 1.523 . S
C3996 C3980 1.368 . S
C3996 C3992 1.368 . S
C3996 C3995 1.523 . S
H3997 C3972 0.950 . S
H3998 C3974 0.950 . S
H3999 C3975 0.949 . S
H4000 C3977 0.950 . S
H4001 C3979 0.950 . S
C4002 C4003 1.349 . S
C4002 C4004 1.327 . S
C4002 H4027 0.950 . S
C4003 C4002 1.349 . S
C4003 C4019 1.349 . S
C4004 C4002 1.327 . S
C4004 C4023 1.429 . S
C4004 H4028 0.950 . S
C4005 C4022 1.574 . S
C4005 C4024 1.368 . S
C4005 H4029 0.949 . S
H4006 C4010 0.949 . S
C4007 C4008 1.349 . S
C4007 C4009 1.327 . S
C4007 H4030 0.950 . S
C4008 C4007 1.349 . S
C4008 C4020 1.349 . S
C4009 C4007 1.327 . S
C4009 C4025 1.429 . S
C4009 H4031 0.950 . S
C4010 H4006 0.949 . S
C4010 C4018 1.574 . S
C4010 C4026 1.368 . S
H4011 C4019 0.950 . S
H4012 C4017 0.950 . S
H4013 C4018 0.949 . S
H4014 C4020 0.950 . S
H4015 C4021 0.950 . S
H4016 C4022 0.949 . S
C4017 H4012 0.950 . S
C4017 C4019 1.327 . S
C4017 C4023 1.429 . S
C4018 C4010 1.574 . S
C4018 H4013 0.949 . S
C4018 C4024 1.368 . S
C4019 C4003 1.349 . S
C4019 H4011 0.950 . S
C4019 C4017 1.327 . S
C4020 C4008 1.349 . S
C4020 H4014 0.950 . S
C4020 C4021 1.327 . S
C4021 H4015 0.950 . S
C4021 C4020 1.327 . S
C4021 C4025 1.429 . S
C4022 C4005 1.574 . S
C4022 H4016 0.949 . S
C4022 C4026 1.368 . S
C4023 C4004 1.429 . S
C4023 C4017 1.429 . S
C4023 C4024 1.523 . S
C4024 C4005 1.368 . S
C4024 C4018 1.368 . S
C4024 C4023 1.523 . S
C4025 C4009 1.429 . S
C4025 C4021 1.429 . S
C4025 C4026 1.523 . S
C4026 C4010 1.368 . S
C4026 C4022 1.368 . S
C4026 C4025 1.523 . S
H4027 C4002 0.950 . S
H4028 C4004 0.950 . S
H4029 C4005 0.949 . S
H4030 C4007 0.950 . S
H4031 C4009 0.950 . S
C4032 C4033 1.349 . S
C4032 C4034 1.327 . S
C4032 H4057 0.950 . S
C4033 C4032 1.349 . S
C4033 C4049 1.349 . S
C4034 C4032 1.327 . S
C4034 C4053 1.429 . S
C4034 H4058 0.950 . S
C4035 C4052 1.574 . S
C4035 C4054 1.368 . S
C4035 H4059 0.949 . S
H4036 C4040 0.949 . S
C4037 C4038 1.349 . S
C4037 C4039 1.327 . S
C4037 H4060 0.950 . S
C4038 C4037 1.349 . S
C4038 C4050 1.349 . S
C4039 C4037 1.327 . S
C4039 C4055 1.429 . S
C4039 H4061 0.950 . S
C4040 H4036 0.949 . S
C4040 C4048 1.574 . S
C4040 C4056 1.368 . S
H4041 C4049 0.950 . S
H4042 C4047 0.950 . S
H4043 C4048 0.949 . S
H4044 C4050 0.950 . S
H4045 C4051 0.950 . S
H4046 C4052 0.949 . S
C4047 H4042 0.950 . S
C4047 C4049 1.327 . S
C4047 C4053 1.429 . S
C4048 C4040 1.574 . S
C4048 H4043 0.949 . S
C4048 C4054 1.368 . S
C4049 C4033 1.349 . S
C4049 H4041 0.950 . S
C4049 C4047 1.327 . S
C4050 C4038 1.349 . S
C4050 H4044 0.950 . S
C4050 C4051 1.327 . S
C4051 H4045 0.950 . S
C4051 C4050 1.327 . S
C4051 C4055 1.429 . S
C4052 C4035 1.574 . S
C4052 H4046 0.949 . S
C4052 C4056 1.368 . S
C4053 C4034 1.429 . S
C4053 C4047 1.429 . S
C4053 C4054 1.523 . S
C4054 C4035 1.368 . S
C4054 C4048 1.368 . S
C4054 C4053 1.523 . S
C4055 C4039 1.429 . S
C4055 C4051 1.429 . S
C4055 C4056 1.523 . S
C4056 C4040 1.368 . S
C4056 C4052 1.368 . S
C4056 C4055 1.523 . S
H4057 C4032 0.950 . S
H4058 C4034 0.950 . S
H4059 C4035 0.949 . S
H4060 C4037 0.950 . S
H4061 C4039 0.950 . S
C4062 C4063 1.349 . S
C4062 C4064 1.327 . S
C4062 H4087 0.950 . S
C4063 C4062 1.349 . S
C4063 C4079 1.349 . S
C4064 C4062 1.327 . S
C4064 C4083 1.429 . S
C4064 H4088 0.950 . S
C4065 C4082 1.574 . S
C4065 C4084 1.368 . S
C4065 H4089 0.949 . S
H4066 C4070 0.949 . S
C4067 C4068 1.349 . S
C4067 C4069 1.327 . S
C4067 H4090 0.950 . S
C4068 C4067 1.349 . S
C4068 C4080 1.349 . S
C4069 C4067 1.327 . S
C4069 C4085 1.429 . S
C4069 H4091 0.950 . S
C4070 H4066 0.949 . S
C4070 C4078 1.574 . S
C4070 C4086 1.368 . S
H4071 C4079 0.950 . S
H4072 C4077 0.950 . S
H4073 C4078 0.949 . S
H4074 C4080 0.950 . S
H4075 C4081 0.950 . S
H4076 C4082 0.949 . S
C4077 H4072 0.950 . S
C4077 C4079 1.327 . S
C4077 C4083 1.429 . S
C4078 C4070 1.574 . S
C4078 H4073 0.949 . S
C4078 C4084 1.368 . S
C4079 C4063 1.349 . S
C4079 H4071 0.950 . S
C4079 C4077 1.327 . S
C4080 C4068 1.349 . S
C4080 H4074 0.950 . S
C4080 C4081 1.327 . S
C4081 H4075 0.950 . S
C4081 C4080 1.327 . S
C4081 C4085 1.429 . S
C4082 C4065 1.574 . S
C4082 H4076 0.949 . S
C4082 C4086 1.368 . S
C4083 C4064 1.429 . S
C4083 C4077 1.429 . S
C4083 C4084 1.523 . S
C4084 C4065 1.368 . S
C4084 C4078 1.368 . S
C4084 C4083 1.523 . S
C4085 C4069 1.429 . S
C4085 C4081 1.429 . S
C4085 C4086 1.523 . S
C4086 C4070 1.368 . S
C4086 C4082 1.368 . S
C4086 C4085 1.523 . S
H4087 C4062 0.950 . S
H4088 C4064 0.950 . S
H4089 C4065 0.949 . S
H4090 C4067 0.950 . S
H4091 C4069 0.950 . S
C4092 C4093 1.349 . S
C4092 C4094 1.327 . S
C4092 H4117 0.950 . S
C4093 C4092 1.349 . S
C4093 C4109 1.349 . S
C4094 C4092 1.327 . S
C4094 C4113 1.429 . S
C4094 H4118 0.950 . S
C4095 C4112 1.574 . S
C4095 C4114 1.368 . S
C4095 H4119 0.949 . S
H4096 C4100 0.949 . S
C4097 C4098 1.349 . S
C4097 C4099 1.327 . S
C4097 H4120 0.950 . S
C4098 C4097 1.349 . S
C4098 C4110 1.349 . S
C4099 C4097 1.327 . S
C4099 C4115 1.429 . S
C4099 H4121 0.950 . S
C4100 H4096 0.949 . S
C4100 C4108 1.574 . S
C4100 C4116 1.368 . S
H4101 C4109 0.950 . S
H4102 C4107 0.950 . S
H4103 C4108 0.949 . S
H4104 C4110 0.950 . S
H4105 C4111 0.950 . S
H4106 C4112 0.949 . S
C4107 H4102 0.950 . S
C4107 C4109 1.327 . S
C4107 C4113 1.429 . S
C4108 C4100 1.574 . S
C4108 H4103 0.949 . S
C4108 C4114 1.368 . S
C4109 C4093 1.349 . S
C4109 H4101 0.950 . S
C4109 C4107 1.327 . S
C4110 C4098 1.349 . S
C4110 H4104 0.950 . S
C4110 C4111 1.327 . S
C4111 H4105 0.950 . S
C4111 C4110 1.327 . S
C4111 C4115 1.429 . S
C4112 C4095 1.574 . S
C4112 H4106 0.949 . S
C4112 C4116 1.368 . S
C4113 C4094 1.429 . S
C4113 C4107 1.429 . S
C4113 C4114 1.523 . S
C4114 C4095 1.368 . S
C4114 C4108 1.368 . S
C4114 C4113 1.523 . S
C4115 C4099 1.429 . S
C4115 C4111 1.429 . S
C4115 C4116 1.523 . S
C4116 C4100 1.368 . S
C4116 C4112 1.368 . S
C4116 C4115 1.523 . S
H4117 C4092 0.950 . S
H4118 C4094 0.950 . S
H4119 C4095 0.949 . S
H4120 C4097 0.950 . S
H4121 C4099 0.950 . S
C4122 C4123 1.349 . S
C4122 C4124 1.327 . S
C4122 H4147 0.950 . S
C4123 C4122 1.349 . S
C4123 C4139 1.349 . S
C4124 C4122 1.327 . S
C4124 C4143 1.429 . S
C4124 H4148 0.950 . S
C4125 C4142 1.574 . S
C4125 C4144 1.368 . S
C4125 H4149 0.949 . S
H4126 C4130 0.949 . S
C4127 C4128 1.349 . S
C4127 C4129 1.327 . S
C4127 H4150 0.950 . S
C4128 C4127 1.349 . S
C4128 C4140 1.349 . S
C4129 C4127 1.327 . S
C4129 C4145 1.429 . S
C4129 H4151 0.950 . S
C4130 H4126 0.949 . S
C4130 C4138 1.574 . S
C4130 C4146 1.368 . S
H4131 C4139 0.950 . S
H4132 C4137 0.950 . S
H4133 C4138 0.949 . S
H4134 C4140 0.950 . S
H4135 C4141 0.950 . S
H4136 C4142 0.949 . S
C4137 H4132 0.950 . S
C4137 C4139 1.327 . S
C4137 C4143 1.429 . S
C4138 C4130 1.574 . S
C4138 H4133 0.949 . S
C4138 C4144 1.368 . S
C4139 C4123 1.349 . S
C4139 H4131 0.950 . S
C4139 C4137 1.327 . S
C4140 C4128 1.349 . S
C4140 H4134 0.950 . S
C4140 C4141 1.327 . S
C4141 H4135 0.950 . S
C4141 C4140 1.327 . S
C4141 C4145 1.429 . S
C4142 C4125 1.574 . S
C4142 H4136 0.949 . S
C4142 C4146 1.368 . S
C4143 C4124 1.429 . S
C4143 C4137 1.429 . S
C4143 C4144 1.523 . S
C4144 C4125 1.368 . S
C4144 C4138 1.368 . S
C4144 C4143 1.523 . S
C4145 C4129 1.429 . S
C4145 C4141 1.429 . S
C4145 C4146 1.523 . S
C4146 C4130 1.368 . S
C4146 C4142 1.368 . S
C4146 C4145 1.523 . S
H4147 C4122 0.950 . S
H4148 C4124 0.950 . S
H4149 C4125 0.949 . S
H4150 C4127 0.950 . S
H4151 C4129 0.950 . S
C4152 C4153 1.349 . S
C4152 C4154 1.327 . S
C4152 H4177 0.950 . S
C4153 C4152 1.349 . S
C4153 C4169 1.349 . S
C4154 C4152 1.327 . S
C4154 C4173 1.429 . S
C4154 H4178 0.950 . S
C4155 C4172 1.574 . S
C4155 C4174 1.368 . S
C4155 H4179 0.949 . S
H4156 C4160 0.949 . S
C4157 C4158 1.349 . S
C4157 C4159 1.327 . S
C4157 H4180 0.950 . S
C4158 C4157 1.349 . S
C4158 C4170 1.349 . S
C4159 C4157 1.327 . S
C4159 C4175 1.429 . S
C4159 H4181 0.950 . S
C4160 H4156 0.949 . S
C4160 C4168 1.574 . S
C4160 C4176 1.368 . S
H4161 C4169 0.950 . S
H4162 C4167 0.950 . S
H4163 C4168 0.949 . S
H4164 C4170 0.950 . S
H4165 C4171 0.950 . S
H4166 C4172 0.949 . S
C4167 H4162 0.950 . S
C4167 C4169 1.327 . S
C4167 C4173 1.429 . S
C4168 C4160 1.574 . S
C4168 H4163 0.949 . S
C4168 C4174 1.368 . S
C4169 C4153 1.349 . S
C4169 H4161 0.950 . S
C4169 C4167 1.327 . S
C4170 C4158 1.349 . S
C4170 H4164 0.950 . S
C4170 C4171 1.327 . S
C4171 H4165 0.950 . S
C4171 C4170 1.327 . S
C4171 C4175 1.429 . S
C4172 C4155 1.574 . S
C4172 H4166 0.949 . S
C4172 C4176 1.368 . S
C4173 C4154 1.429 . S
C4173 C4167 1.429 . S
C4173 C4174 1.523 . S
C4174 C4155 1.368 . S
C4174 C4168 1.368 . S
C4174 C4173 1.523 . S
C4175 C4159 1.429 . S
C4175 C4171 1.429 . S
C4175 C4176 1.523 . S
C4176 C4160 1.368 . S
C4176 C4172 1.368 . S
C4176 C4175 1.523 . S
H4177 C4152 0.950 . S
H4178 C4154 0.950 . S
H4179 C4155 0.949 . S
H4180 C4157 0.950 . S
H4181 C4159 0.950 . S
C4182 C4183 1.349 . S
C4182 C4184 1.327 . S
C4182 H4207 0.950 . S
C4183 C4182 1.349 . S
C4183 C4199 1.349 . S
C4184 C4182 1.327 . S
C4184 C4203 1.429 . S
C4184 H4208 0.950 . S
C4185 C4202 1.574 . S
C4185 C4204 1.368 . S
C4185 H4209 0.949 . S
H4186 C4190 0.949 . S
C4187 C4188 1.349 . S
C4187 C4189 1.327 . S
C4187 H4210 0.950 . S
C4188 C4187 1.349 . S
C4188 C4200 1.349 . S
C4189 C4187 1.327 . S
C4189 C4205 1.429 . S
C4189 H4211 0.950 . S
C4190 H4186 0.949 . S
C4190 C4198 1.574 . S
C4190 C4206 1.368 . S
H4191 C4199 0.950 . S
H4192 C4197 0.950 . S
H4193 C4198 0.949 . S
H4194 C4200 0.950 . S
H4195 C4201 0.950 . S
H4196 C4202 0.949 . S
C4197 H4192 0.950 . S
C4197 C4199 1.327 . S
C4197 C4203 1.429 . S
C4198 C4190 1.574 . S
C4198 H4193 0.949 . S
C4198 C4204 1.368 . S
C4199 C4183 1.349 . S
C4199 H4191 0.950 . S
C4199 C4197 1.327 . S
C4200 C4188 1.349 . S
C4200 H4194 0.950 . S
C4200 C4201 1.327 . S
C4201 H4195 0.950 . S
C4201 C4200 1.327 . S
C4201 C4205 1.429 . S
C4202 C4185 1.574 . S
C4202 H4196 0.949 . S
C4202 C4206 1.368 . S
C4203 C4184 1.429 . S
C4203 C4197 1.429 . S
C4203 C4204 1.523 . S
C4204 C4185 1.368 . S
C4204 C4198 1.368 . S
C4204 C4203 1.523 . S
C4205 C4189 1.429 . S
C4205 C4201 1.429 . S
C4205 C4206 1.523 . S
C4206 C4190 1.368 . S
C4206 C4202 1.368 . S
C4206 C4205 1.523 . S
H4207 C4182 0.950 . S
H4208 C4184 0.950 . S
H4209 C4185 0.949 . S
H4210 C4187 0.950 . S
H4211 C4189 0.950 . S
C4212 C4213 1.349 . S
C4212 C4214 1.327 . S
C4212 H4237 0.950 . S
C4213 C4212 1.349 . S
C4213 C4229 1.349 . S
C4214 C4212 1.327 . S
C4214 C4233 1.429 . S
C4214 H4238 0.950 . S
C4215 C4232 1.574 . S
C4215 C4234 1.368 . S
C4215 H4239 0.949 . S
H4216 C4220 0.949 . S
C4217 C4218 1.349 . S
C4217 C4219 1.327 . S
C4217 H4240 0.950 . S
C4218 C4217 1.349 . S
C4218 C4230 1.349 . S
C4219 C4217 1.327 . S
C4219 C4235 1.429 . S
C4219 H4241 0.950 . S
C4220 H4216 0.949 . S
C4220 C4228 1.574 . S
C4220 C4236 1.368 . S
H4221 C4229 0.950 . S
H4222 C4227 0.950 . S
H4223 C4228 0.949 . S
H4224 C4230 0.950 . S
H4225 C4231 0.950 . S
H4226 C4232 0.949 . S
C4227 H4222 0.950 . S
C4227 C4229 1.327 . S
C4227 C4233 1.429 . S
C4228 C4220 1.574 . S
C4228 H4223 0.949 . S
C4228 C4234 1.368 . S
C4229 C4213 1.349 . S
C4229 H4221 0.950 . S
C4229 C4227 1.327 . S
C4230 C4218 1.349 . S
C4230 H4224 0.950 . S
C4230 C4231 1.327 . S
C4231 H4225 0.950 . S
C4231 C4230 1.327 . S
C4231 C4235 1.429 . S
C4232 C4215 1.574 . S
C4232 H4226 0.949 . S
C4232 C4236 1.368 . S
C4233 C4214 1.429 . S
C4233 C4227 1.429 . S
C4233 C4234 1.523 . S
C4234 C4215 1.368 . S
C4234 C4228 1.368 . S
C4234 C4233 1.523 . S
C4235 C4219 1.429 . S
C4235 C4231 1.429 . S
C4235 C4236 1.523 . S
C4236 C4220 1.368 . S
C4236 C4232 1.368 . S
C4236 C4235 1.523 . S
H4237 C4212 0.950 . S
H4238 C4214 0.950 . S
H4239 C4215 0.949 . S
H4240 C4217 0.950 . S
H4241 C4219 0.950 . S
C4242 C4243 1.349 . S
C4242 C4244 1.327 . S
C4242 H4267 0.950 . S
C4243 C4242 1.349 . S
C4243 C4259 1.349 . S
C4244 C4242 1.327 . S
C4244 C4263 1.429 . S
C4244 H4268 0.950 . S
C4245 C4262 1.574 . S
C4245 C4264 1.368 . S
C4245 H4269 0.949 . S
H4246 C4250 0.949 . S
C4247 C4248 1.349 . S
C4247 C4249 1.327 . S
C4247 H4270 0.950 . S
C4248 C4247 1.349 . S
C4248 C4260 1.349 . S
C4249 C4247 1.327 . S
C4249 C4265 1.429 . S
C4249 H4271 0.950 . S
C4250 H4246 0.949 . S
C4250 C4258 1.574 . S
C4250 C4266 1.368 . S
H4251 C4259 0.950 . S
H4252 C4257 0.950 . S
H4253 C4258 0.949 . S
H4254 C4260 0.950 . S
H4255 C4261 0.950 . S
H4256 C4262 0.949 . S
C4257 H4252 0.950 . S
C4257 C4259 1.327 . S
C4257 C4263 1.429 . S
C4258 C4250 1.574 . S
C4258 H4253 0.949 . S
C4258 C4264 1.368 . S
C4259 C4243 1.349 . S
C4259 H4251 0.950 . S
C4259 C4257 1.327 . S
C4260 C4248 1.349 . S
C4260 H4254 0.950 . S
C4260 C4261 1.327 . S
C4261 H4255 0.950 . S
C4261 C4260 1.327 . S
C4261 C4265 1.429 . S
C4262 C4245 1.574 . S
C4262 H4256 0.949 . S
C4262 C4266 1.368 . S
C4263 C4244 1.429 . S
C4263 C4257 1.429 . S
C4263 C4264 1.523 . S
C4264 C4245 1.368 . S
C4264 C4258 1.368 . S
C4264 C4263 1.523 . S
C4265 C4249 1.429 . S
C4265 C4261 1.429 . S
C4265 C4266 1.523 . S
C4266 C4250 1.368 . S
C4266 C4262 1.368 . S
C4266 C4265 1.523 . S
H4267 C4242 0.950 . S
H4268 C4244 0.950 . S
H4269 C4245 0.949 . S
H4270 C4247 0.950 . S
H4271 C4249 0.950 . S
C4272 C4273 1.349 . S
C4272 C4274 1.327 . S
C4272 H4297 0.950 . S
C4273 C4272 1.349 . S
C4273 C4289 1.349 . S
C4274 C4272 1.327 . S
C4274 C4293 1.429 . S
C4274 H4298 0.950 . S
C4275 C4292 1.574 . S
C4275 C4294 1.368 . S
C4275 H4299 0.949 . S
H4276 C4280 0.949 . S
C4277 C4278 1.349 . S
C4277 C4279 1.327 . S
C4277 H4300 0.950 . S
C4278 C4277 1.349 . S
C4278 C4290 1.349 . S
C4279 C4277 1.327 . S
C4279 C4295 1.429 . S
C4279 H4301 0.950 . S
C4280 H4276 0.949 . S
C4280 C4288 1.574 . S
C4280 C4296 1.368 . S
H4281 C4289 0.950 . S
H4282 C4287 0.950 . S
H4283 C4288 0.949 . S
H4284 C4290 0.950 . S
H4285 C4291 0.950 . S
H4286 C4292 0.949 . S
C4287 H4282 0.950 . S
C4287 C4289 1.327 . S
C4287 C4293 1.429 . S
C4288 C4280 1.574 . S
C4288 H4283 0.949 . S
C4288 C4294 1.368 . S
C4289 C4273 1.349 . S
C4289 H4281 0.950 . S
C4289 C4287 1.327 . S
C4290 C4278 1.349 . S
C4290 H4284 0.950 . S
C4290 C4291 1.327 . S
C4291 H4285 0.950 . S
C4291 C4290 1.327 . S
C4291 C4295 1.429 . S
C4292 C4275 1.574 . S
C4292 H4286 0.949 . S
C4292 C4296 1.368 . S
C4293 C4274 1.429 . S
C4293 C4287 1.429 . S
C4293 C4294 1.523 . S
C4294 C4275 1.368 . S
C4294 C4288 1.368 . S
C4294 C4293 1.523 . S
C4295 C4279 1.429 . S
C4295 C4291 1.429 . S
C4295 C4296 1.523 . S
C4296 C4280 1.368 . S
C4296 C4292 1.368 . S
C4296 C4295 1.523 . S
H4297 C4272 0.950 . S
H4298 C4274 0.950 . S
H4299 C4275 0.949 . S
H4300 C4277 0.950 . S
H4301 C4279 0.950 . S
C4302 C4303 1.349 . S
C4302 C4304 1.327 . S
C4302 H4327 0.950 . S
C4303 C4302 1.349 . S
C4303 C4319 1.349 . S
C4304 C4302 1.327 . S
C4304 C4323 1.429 . S
C4304 H4328 0.950 . S
C4305 C4322 1.574 . S
C4305 C4324 1.368 . S
C4305 H4329 0.949 . S
H4306 C4310 0.949 . S
C4307 C4308 1.349 . S
C4307 C4309 1.327 . S
C4307 H4330 0.950 . S
C4308 C4307 1.349 . S
C4308 C4320 1.349 . S
C4309 C4307 1.327 . S
C4309 C4325 1.429 . S
C4309 H4331 0.950 . S
C4310 H4306 0.949 . S
C4310 C4318 1.574 . S
C4310 C4326 1.368 . S
H4311 C4319 0.950 . S
H4312 C4317 0.950 . S
H4313 C4318 0.949 . S
H4314 C4320 0.950 . S
H4315 C4321 0.950 . S
H4316 C4322 0.949 . S
C4317 H4312 0.950 . S
C4317 C4319 1.327 . S
C4317 C4323 1.429 . S
C4318 C4310 1.574 . S
C4318 H4313 0.949 . S
C4318 C4324 1.368 . S
C4319 C4303 1.349 . S
C4319 H4311 0.950 . S
C4319 C4317 1.327 . S
C4320 C4308 1.349 . S
C4320 H4314 0.950 . S
C4320 C4321 1.327 . S
C4321 H4315 0.950 . S
C4321 C4320 1.327 . S
C4321 C4325 1.429 . S
C4322 C4305 1.574 . S
C4322 H4316 0.949 . S
C4322 C4326 1.368 . S
C4323 C4304 1.429 . S
C4323 C4317 1.429 . S
C4323 C4324 1.523 . S
C4324 C4305 1.368 . S
C4324 C4318 1.368 . S
C4324 C4323 1.523 . S
C4325 C4309 1.429 . S
C4325 C4321 1.429 . S
C4325 C4326 1.523 . S
C4326 C4310 1.368 . S
C4326 C4322 1.368 . S
C4326 C4325 1.523 . S
H4327 C4302 0.950 . S
H4328 C4304 0.950 . S
H4329 C4305 0.949 . S
H4330 C4307 0.950 . S
H4331 C4309 0.950 . S
C4332 C4333 1.349 . S
C4332 C4334 1.327 . S
C4332 H4357 0.950 . S
C4333 C4332 1.349 . S
C4333 C4349 1.349 . S
C4334 C4332 1.327 . S
C4334 C4353 1.429 . S
C4334 H4358 0.950 . S
C4335 C4352 1.574 . S
C4335 C4354 1.368 . S
C4335 H4359 0.949 . S
H4336 C4340 0.949 . S
C4337 C4338 1.349 . S
C4337 C4339 1.327 . S
C4337 H4360 0.950 . S
C4338 C4337 1.349 . S
C4338 C4350 1.349 . S
C4339 C4337 1.327 . S
C4339 C4355 1.429 . S
C4339 H4361 0.950 . S
C4340 H4336 0.949 . S
C4340 C4348 1.574 . S
C4340 C4356 1.368 . S
H4341 C4349 0.950 . S
H4342 C4347 0.950 . S
H4343 C4348 0.949 . S
H4344 C4350 0.950 . S
H4345 C4351 0.950 . S
H4346 C4352 0.949 . S
C4347 H4342 0.950 . S
C4347 C4349 1.327 . S
C4347 C4353 1.429 . S
C4348 C4340 1.574 . S
C4348 H4343 0.949 . S
C4348 C4354 1.368 . S
C4349 C4333 1.349 . S
C4349 H4341 0.950 . S
C4349 C4347 1.327 . S
C4350 C4338 1.349 . S
C4350 H4344 0.950 . S
C4350 C4351 1.327 . S
C4351 H4345 0.950 . S
C4351 C4350 1.327 . S
C4351 C4355 1.429 . S
C4352 C4335 1.574 . S
C4352 H4346 0.949 . S
C4352 C4356 1.368 . S
C4353 C4334 1.429 . S
C4353 C4347 1.429 . S
C4353 C4354 1.523 . S
C4354 C4335 1.368 . S
C4354 C4348 1.368 . S
C4354 C4353 1.523 . S
C4355 C4339 1.429 . S
C4355 C4351 1.429 . S
C4355 C4356 1.523 . S
C4356 C4340 1.368 . S
C4356 C4352 1.368 . S
C4356 C4355 1.523 . S
H4357 C4332 0.950 . S
H4358 C4334 0.950 . S
H4359 C4335 0.949 . S
H4360 C4337 0.950 . S
H4361 C4339 0.950 . S
C4362 C4363 1.349 . S
C4362 C4364 1.327 . S
C4362 H4387 0.950 . S
C4363 C4362 1.349 . S
C4363 C4379 1.349 . S
C4364 C4362 1.327 . S
C4364 C4383 1.429 . S
C4364 H4388 0.950 . S
C4365 C4382 1.574 . S
C4365 C4384 1.368 . S
C4365 H4389 0.949 . S
H4366 C4370 0.949 . S
C4367 C4368 1.349 . S
C4367 C4369 1.327 . S
C4367 H4390 0.950 . S
C4368 C4367 1.349 . S
C4368 C4380 1.349 . S
C4369 C4367 1.327 . S
C4369 C4385 1.429 . S
C4369 H4391 0.950 . S
C4370 H4366 0.949 . S
C4370 C4378 1.574 . S
C4370 C4386 1.368 . S
H4371 C4379 0.950 . S
H4372 C4377 0.950 . S
H4373 C4378 0.949 . S
H4374 C4380 0.950 . S
H4375 C4381 0.950 . S
H4376 C4382 0.949 . S
C4377 H4372 0.950 . S
C4377 C4379 1.327 . S
C4377 C4383 1.429 . S
C4378 C4370 1.574 . S
C4378 H4373 0.949 . S
C4378 C4384 1.368 . S
C4379 C4363 1.349 . S
C4379 H4371 0.950 . S
C4379 C4377 1.327 . S
C4380 C4368 1.349 . S
C4380 H4374 0.950 . S
C4380 C4381 1.327 . S
C4381 H4375 0.950 . S
C4381 C4380 1.327 . S
C4381 C4385 1.429 . S
C4382 C4365 1.574 . S
C4382 H4376 0.949 . S
C4382 C4386 1.368 . S
C4383 C4364 1.429 . S
C4383 C4377 1.429 . S
C4383 C4384 1.523 . S
C4384 C4365 1.368 . S
C4384 C4378 1.368 . S
C4384 C4383 1.523 . S
C4385 C4369 1.429 . S
C4385 C4381 1.429 . S
C4385 C4386 1.523 . S
C4386 C4370 1.368 . S
C4386 C4382 1.368 . S
C4386 C4385 1.523 . S
H4387 C4362 0.950 . S
H4388 C4364 0.950 . S
H4389 C4365 0.949 . S
H4390 C4367 0.950 . S
H4391 C4369 0.950 . S
C4392 C4393 1.349 . S
C4392 C4394 1.327 . S
C4392 H4417 0.950 . S
C4393 C4392 1.349 . S
C4393 C4409 1.349 . S
C4394 C4392 1.327 . S
C4394 C4413 1.429 . S
C4394 H4418 0.950 . S
C4395 C4412 1.574 . S
C4395 C4414 1.368 . S
C4395 H4419 0.949 . S
H4396 C4400 0.949 . S
C4397 C4398 1.349 . S
C4397 C4399 1.327 . S
C4397 H4420 0.950 . S
C4398 C4397 1.349 . S
C4398 C4410 1.349 . S
C4399 C4397 1.327 . S
C4399 C4415 1.429 . S
C4399 H4421 0.950 . S
C4400 H4396 0.949 . S
C4400 C4408 1.574 . S
C4400 C4416 1.368 . S
H4401 C4409 0.950 . S
H4402 C4407 0.950 . S
H4403 C4408 0.949 . S
H4404 C4410 0.950 . S
H4405 C4411 0.950 . S
H4406 C4412 0.949 . S
C4407 H4402 0.950 . S
C4407 C4409 1.327 . S
C4407 C4413 1.429 . S
C4408 C4400 1.574 . S
C4408 H4403 0.949 . S
C4408 C4414 1.368 . S
C4409 C4393 1.349 . S
C4409 H4401 0.950 . S
C4409 C4407 1.327 . S
C4410 C4398 1.349 . S
C4410 H4404 0.950 . S
C4410 C4411 1.327 . S
C4411 H4405 0.950 . S
C4411 C4410 1.327 . S
C4411 C4415 1.429 . S
C4412 C4395 1.574 . S
C4412 H4406 0.949 . S
C4412 C4416 1.368 . S
C4413 C4394 1.429 . S
C4413 C4407 1.429 . S
C4413 C4414 1.523 . S
C4414 C4395 1.368 . S
C4414 C4408 1.368 . S
C4414 C4413 1.523 . S
C4415 C4399 1.429 . S
C4415 C4411 1.429 . S
C4415 C4416 1.523 . S
C4416 C4400 1.368 . S
C4416 C4412 1.368 . S
C4416 C4415 1.523 . S
H4417 C4392 0.950 . S
H4418 C4394 0.950 . S
H4419 C4395 0.949 . S
H4420 C4397 0.950 . S
H4421 C4399 0.950 . S
C4422 C4423 1.349 . S
C4422 C4424 1.327 . S
C4422 H4447 0.950 . S
C4423 C4422 1.349 . S
C4423 C4439 1.349 . S
C4424 C4422 1.327 . S
C4424 C4443 1.429 . S
C4424 H4448 0.950 . S
C4425 C4442 1.574 . S
C4425 C4444 1.368 . S
C4425 H4449 0.949 . S
H4426 C4430 0.949 . S
C4427 C4428 1.349 . S
C4427 C4429 1.327 . S
C4427 H4450 0.950 . S
C4428 C4427 1.349 . S
C4428 C4440 1.349 . S
C4429 C4427 1.327 . S
C4429 C4445 1.429 . S
C4429 H4451 0.950 . S
C4430 H4426 0.949 . S
C4430 C4438 1.574 . S
C4430 C4446 1.368 . S
H4431 C4439 0.950 . S
H4432 C4437 0.950 . S
H4433 C4438 0.949 . S
H4434 C4440 0.950 . S
H4435 C4441 0.950 . S
H4436 C4442 0.949 . S
C4437 H4432 0.950 . S
C4437 C4439 1.327 . S
C4437 C4443 1.429 . S
C4438 C4430 1.574 . S
C4438 H4433 0.949 . S
C4438 C4444 1.368 . S
C4439 C4423 1.349 . S
C4439 H4431 0.950 . S
C4439 C4437 1.327 . S
C4440 C4428 1.349 . S
C4440 H4434 0.950 . S
C4440 C4441 1.327 . S
C4441 H4435 0.950 . S
C4441 C4440 1.327 . S
C4441 C4445 1.429 . S
C4442 C4425 1.574 . S
C4442 H4436 0.949 . S
C4442 C4446 1.368 . S
C4443 C4424 1.429 . S
C4443 C4437 1.429 . S
C4443 C4444 1.523 . S
C4444 C4425 1.368 . S
C4444 C4438 1.368 . S
C4444 C4443 1.523 . S
C4445 C4429 1.429 . S
C4445 C4441 1.429 . S
C4445 C4446 1.523 . S
C4446 C4430 1.368 . S
C4446 C4442 1.368 . S
C4446 C4445 1.523 . S
H4447 C4422 0.950 . S
H4448 C4424 0.950 . S
H4449 C4425 0.949 . S
H4450 C4427 0.950 . S
H4451 C4429 0.950 . S
C4452 C4453 1.349 . S
C4452 C4454 1.327 . S
C4452 H4477 0.950 . S
C4453 C4452 1.349 . S
C4453 C4469 1.349 . S
C4454 C4452 1.327 . S
C4454 C4473 1.429 . S
C4454 H4478 0.950 . S
C4455 C4472 1.574 . S
C4455 C4474 1.368 . S
C4455 H4479 0.949 . S
H4456 C4460 0.949 . S
C4457 C4458 1.349 . S
C4457 C4459 1.327 . S
C4457 H4480 0.950 . S
C4458 C4457 1.349 . S
C4458 C4470 1.349 . S
C4459 C4457 1.327 . S
C4459 C4475 1.429 . S
C4459 H4481 0.950 . S
C4460 H4456 0.949 . S
C4460 C4468 1.574 . S
C4460 C4476 1.368 . S
H4461 C4469 0.950 . S
H4462 C4467 0.950 . S
H4463 C4468 0.949 . S
H4464 C4470 0.950 . S
H4465 C4471 0.950 . S
H4466 C4472 0.949 . S
C4467 H4462 0.950 . S
C4467 C4469 1.327 . S
C4467 C4473 1.429 . S
C4468 C4460 1.574 . S
C4468 H4463 0.949 . S
C4468 C4474 1.368 . S
C4469 C4453 1.349 . S
C4469 H4461 0.950 . S
C4469 C4467 1.327 . S
C4470 C4458 1.349 . S
C4470 H4464 0.950 . S
C4470 C4471 1.327 . S
C4471 H4465 0.950 . S
C4471 C4470 1.327 . S
C4471 C4475 1.429 . S
C4472 C4455 1.574 . S
C4472 H4466 0.949 . S
C4472 C4476 1.368 . S
C4473 C4454 1.429 . S
C4473 C4467 1.429 . S
C4473 C4474 1.523 . S
C4474 C4455 1.368 . S
C4474 C4468 1.368 . S
C4474 C4473 1.523 . S
C4475 C4459 1.429 . S
C4475 C4471 1.429 . S
C4475 C4476 1.523 . S
C4476 C4460 1.368 . S
C4476 C4472 1.368 . S
C4476 C4475 1.523 . S
H4477 C4452 0.950 . S
H4478 C4454 0.950 . S
H4479 C4455 0.949 . S
H4480 C4457 0.950 . S
H4481 C4459 0.950 . S
C4482 C4483 1.349 . S
C4482 C4484 1.327 . S
C4482 H4507 0.950 . S
C4483 C4482 1.349 . S
C4483 C4499 1.349 . S
C4484 C4482 1.327 . S
C4484 C4503 1.429 . S
C4484 H4508 0.950 . S
C4485 C4502 1.574 . S
C4485 C4504 1.368 . S
C4485 H4509 0.949 . S
H4486 C4490 0.949 . S
C4487 C4488 1.349 . S
C4487 C4489 1.327 . S
C4487 H4510 0.950 . S
C4488 C4487 1.349 . S
C4488 C4500 1.349 . S
C4489 C4487 1.327 . S
C4489 C4505 1.429 . S
C4489 H4511 0.950 . S
C4490 H4486 0.949 . S
C4490 C4498 1.574 . S
C4490 C4506 1.368 . S
H4491 C4499 0.950 . S
H4492 C4497 0.950 . S
H4493 C4498 0.949 . S
H4494 C4500 0.950 . S
H4495 C4501 0.950 . S
H4496 C4502 0.949 . S
C4497 H4492 0.950 . S
C4497 C4499 1.327 . S
C4497 C4503 1.429 . S
C4498 C4490 1.574 . S
C4498 H4493 0.949 . S
C4498 C4504 1.368 . S
C4499 C4483 1.349 . S
C4499 H4491 0.950 . S
C4499 C4497 1.327 . S
C4500 C4488 1.349 . S
C4500 H4494 0.950 . S
C4500 C4501 1.327 . S
C4501 H4495 0.950 . S
C4501 C4500 1.327 . S
C4501 C4505 1.429 . S
C4502 C4485 1.574 . S
C4502 H4496 0.949 . S
C4502 C4506 1.368 . S
C4503 C4484 1.429 . S
C4503 C4497 1.429 . S
C4503 C4504 1.523 . S
C4504 C4485 1.368 . S
C4504 C4498 1.368 . S
C4504 C4503 1.523 . S
C4505 C4489 1.429 . S
C4505 C4501 1.429 . S
C4505 C4506 1.523 . S
C4506 C4490 1.368 . S
C4506 C4502 1.368 . S
C4506 C4505 1.523 . S
H4507 C4482 0.950 . S
H4508 C4484 0.950 . S
H4509 C4485 0.949 . S
H4510 C4487 0.950 . S
H4511 C4489 0.950 . S
C4512 C4513 1.349 . S
C4512 C4514 1.327 . S
C4512 H4537 0.950 . S
C4513 C4512 1.349 . S
C4513 C4529 1.349 . S
C4514 C4512 1.327 . S
C4514 C4533 1.429 . S
C4514 H4538 0.950 . S
C4515 C4532 1.574 . S
C4515 C4534 1.368 . S
C4515 H4539 0.949 . S
H4516 C4520 0.949 . S
C4517 C4518 1.349 . S
C4517 C4519 1.327 . S
C4517 H4540 0.950 . S
C4518 C4517 1.349 . S
C4518 C4530 1.349 . S
C4519 C4517 1.327 . S
C4519 C4535 1.429 . S
C4519 H4541 0.950 . S
C4520 H4516 0.949 . S
C4520 C4528 1.574 . S
C4520 C4536 1.368 . S
H4521 C4529 0.950 . S
H4522 C4527 0.950 . S
H4523 C4528 0.949 . S
H4524 C4530 0.950 . S
H4525 C4531 0.950 . S
H4526 C4532 0.949 . S
C4527 H4522 0.950 . S
C4527 C4529 1.327 . S
C4527 C4533 1.429 . S
C4528 C4520 1.574 . S
C4528 H4523 0.949 . S
C4528 C4534 1.368 . S
C4529 C4513 1.349 . S
C4529 H4521 0.950 . S
C4529 C4527 1.327 . S
C4530 C4518 1.349 . S
C4530 H4524 0.950 . S
C4530 C4531 1.327 . S
C4531 H4525 0.950 . S
C4531 C4530 1.327 . S
C4531 C4535 1.429 . S
C4532 C4515 1.574 . S
C4532 H4526 0.949 . S
C4532 C4536 1.368 . S
C4533 C4514 1.429 . S
C4533 C4527 1.429 . S
C4533 C4534 1.523 . S
C4534 C4515 1.368 . S
C4534 C4528 1.368 . S
C4534 C4533 1.523 . S
C4535 C4519 1.429 . S
C4535 C4531 1.429 . S
C4535 C4536 1.523 . S
C4536 C4520 1.368 . S
C4536 C4532 1.368 . S
C4536 C4535 1.523 . S
H4537 C4512 0.950 . S
H4538 C4514 0.950 . S
H4539 C4515 0.949 . S
H4540 C4517 0.950 . S
H4541 C4519 0.950 . S
C4542 C4543 1.349 . S
C4542 C4544 1.327 . S
C4542 H4567 0.950 . S
C4543 C4542 1.349 . S
C4543 C4559 1.349 . S
C4544 C4542 1.327 . S
C4544 C4563 1.429 . S
C4544 H4568 0.950 . S
C4545 C4562 1.574 . S
C4545 C4564 1.368 . S
C4545 H4569 0.949 . S
H4546 C4550 0.949 . S
C4547 C4548 1.349 . S
C4547 C4549 1.327 . S
C4547 H4570 0.950 . S
C4548 C4547 1.349 . S
C4548 C4560 1.349 . S
C4549 C4547 1.327 . S
C4549 C4565 1.429 . S
C4549 H4571 0.950 . S
C4550 H4546 0.949 . S
C4550 C4558 1.574 . S
C4550 C4566 1.368 . S
H4551 C4559 0.950 . S
H4552 C4557 0.950 . S
H4553 C4558 0.949 . S
H4554 C4560 0.950 . S
H4555 C4561 0.950 . S
H4556 C4562 0.949 . S
C4557 H4552 0.950 . S
C4557 C4559 1.327 . S
C4557 C4563 1.429 . S
C4558 C4550 1.574 . S
C4558 H4553 0.949 . S
C4558 C4564 1.368 . S
C4559 C4543 1.349 . S
C4559 H4551 0.950 . S
C4559 C4557 1.327 . S
C4560 C4548 1.349 . S
C4560 H4554 0.950 . S
C4560 C4561 1.327 . S
C4561 H4555 0.950 . S
C4561 C4560 1.327 . S
C4561 C4565 1.429 . S
C4562 C4545 1.574 . S
C4562 H4556 0.949 . S
C4562 C4566 1.368 . S
C4563 C4544 1.429 . S
C4563 C4557 1.429 . S
C4563 C4564 1.523 . S
C4564 C4545 1.368 . S
C4564 C4558 1.368 . S
C4564 C4563 1.523 . S
C4565 C4549 1.429 . S
C4565 C4561 1.429 . S
C4565 C4566 1.523 . S
C4566 C4550 1.368 . S
C4566 C4562 1.368 . S
C4566 C4565 1.523 . S
H4567 C4542 0.950 . S
H4568 C4544 0.950 . S
H4569 C4545 0.949 . S
H4570 C4547 0.950 . S
H4571 C4549 0.950 . S
C4572 C4573 1.349 . S
C4572 C4574 1.327 . S
C4572 H4597 0.950 . S
C4573 C4572 1.349 . S
C4573 C4589 1.349 . S
C4574 C4572 1.327 . S
C4574 C4593 1.429 . S
C4574 H4598 0.950 . S
C4575 C4592 1.574 . S
C4575 C4594 1.368 . S
C4575 H4599 0.949 . S
H4576 C4580 0.949 . S
C4577 C4578 1.349 . S
C4577 C4579 1.327 . S
C4577 H4600 0.950 . S
C4578 C4577 1.349 . S
C4578 C4590 1.349 . S
C4579 C4577 1.327 . S
C4579 C4595 1.429 . S
C4579 H4601 0.950 . S
C4580 H4576 0.949 . S
C4580 C4588 1.574 . S
C4580 C4596 1.368 . S
H4581 C4589 0.950 . S
H4582 C4587 0.950 . S
H4583 C4588 0.949 . S
H4584 C4590 0.950 . S
H4585 C4591 0.950 . S
H4586 C4592 0.949 . S
C4587 H4582 0.950 . S
C4587 C4589 1.327 . S
C4587 C4593 1.429 . S
C4588 C4580 1.574 . S
C4588 H4583 0.949 . S
C4588 C4594 1.368 . S
C4589 C4573 1.349 . S
C4589 H4581 0.950 . S
C4589 C4587 1.327 . S
C4590 C4578 1.349 . S
C4590 H4584 0.950 . S
C4590 C4591 1.327 . S
C4591 H4585 0.950 . S
C4591 C4590 1.327 . S
C4591 C4595 1.429 . S
C4592 C4575 1.574 . S
C4592 H4586 0.949 . S
C4592 C4596 1.368 . S
C4593 C4574 1.429 . S
C4593 C4587 1.429 . S
C4593 C4594 1.523 . S
C4594 C4575 1.368 . S
C4594 C4588 1.368 . S
C4594 C4593 1.523 . S
C4595 C4579 1.429 . S
C4595 C4591 1.429 . S
C4595 C4596 1.523 . S
C4596 C4580 1.368 . S
C4596 C4592 1.368 . S
C4596 C4595 1.523 . S
H4597 C4572 0.950 . S
H4598 C4574 0.950 . S
H4599 C4575 0.949 . S
H4600 C4577 0.950 . S
H4601 C4579 0.950 . S
C4602 C4603 1.349 . S
C4602 C4604 1.327 . S
C4602 H4627 0.950 . S
C4603 C4602 1.349 . S
C4603 C4619 1.349 . S
C4604 C4602 1.327 . S
C4604 C4623 1.429 . S
C4604 H4628 0.950 . S
C4605 C4622 1.574 . S
C4605 C4624 1.368 . S
C4605 H4629 0.949 . S
H4606 C4610 0.949 . S
C4607 C4608 1.349 . S
C4607 C4609 1.327 . S
C4607 H4630 0.950 . S
C4608 C4607 1.349 . S
C4608 C4620 1.349 . S
C4609 C4607 1.327 . S
C4609 C4625 1.429 . S
C4609 H4631 0.950 . S
C4610 H4606 0.949 . S
C4610 C4618 1.574 . S
C4610 C4626 1.368 . S
H4611 C4619 0.950 . S
H4612 C4617 0.950 . S
H4613 C4618 0.949 . S
H4614 C4620 0.950 . S
H4615 C4621 0.950 . S
H4616 C4622 0.949 . S
C4617 H4612 0.950 . S
C4617 C4619 1.327 . S
C4617 C4623 1.429 . S
C4618 C4610 1.574 . S
C4618 H4613 0.949 . S
C4618 C4624 1.368 . S
C4619 C4603 1.349 . S
C4619 H4611 0.950 . S
C4619 C4617 1.327 . S
C4620 C4608 1.349 . S
C4620 H4614 0.950 . S
C4620 C4621 1.327 . S
C4621 H4615 0.950 . S
C4621 C4620 1.327 . S
C4621 C4625 1.429 . S
C4622 C4605 1.574 . S
C4622 H4616 0.949 . S
C4622 C4626 1.368 . S
C4623 C4604 1.429 . S
C4623 C4617 1.429 . S
C4623 C4624 1.523 . S
C4624 C4605 1.368 . S
C4624 C4618 1.368 . S
C4624 C4623 1.523 . S
C4625 C4609 1.429 . S
C4625 C4621 1.429 . S
C4625 C4626 1.523 . S
C4626 C4610 1.368 . S
C4626 C4622 1.368 . S
C4626 C4625 1.523 . S
H4627 C4602 0.950 . S
H4628 C4604 0.950 . S
H4629 C4605 0.949 . S
H4630 C4607 0.950 . S
H4631 C4609 0.950 . S
C4632 C4633 1.349 . S
C4632 C4634 1.327 . S
C4632 H4657 0.950 . S
C4633 C4632 1.349 . S
C4633 C4649 1.349 . S
C4634 C4632 1.327 . S
C4634 C4653 1.429 . S
C4634 H4658 0.950 . S
C4635 C4652 1.574 . S
C4635 C4654 1.368 . S
C4635 H4659 0.949 . S
H4636 C4640 0.949 . S
C4637 C4638 1.349 . S
C4637 C4639 1.327 . S
C4637 H4660 0.950 . S
C4638 C4637 1.349 . S
C4638 C4650 1.349 . S
C4639 C4637 1.327 . S
C4639 C4655 1.429 . S
C4639 H4661 0.950 . S
C4640 H4636 0.949 . S
C4640 C4648 1.574 . S
C4640 C4656 1.368 . S
H4641 C4649 0.950 . S
H4642 C4647 0.950 . S
H4643 C4648 0.949 . S
H4644 C4650 0.950 . S
H4645 C4651 0.950 . S
H4646 C4652 0.949 . S
C4647 H4642 0.950 . S
C4647 C4649 1.327 . S
C4647 C4653 1.429 . S
C4648 C4640 1.574 . S
C4648 H4643 0.949 . S
C4648 C4654 1.368 . S
C4649 C4633 1.349 . S
C4649 H4641 0.950 . S
C4649 C4647 1.327 . S
C4650 C4638 1.349 . S
C4650 H4644 0.950 . S
C4650 C4651 1.327 . S
C4651 H4645 0.950 . S
C4651 C4650 1.327 . S
C4651 C4655 1.429 . S
C4652 C4635 1.574 . S
C4652 H4646 0.949 . S
C4652 C4656 1.368 . S
C4653 C4634 1.429 . S
C4653 C4647 1.429 . S
C4653 C4654 1.523 . S
C4654 C4635 1.368 . S
C4654 C4648 1.368 . S
C4654 C4653 1.523 . S
C4655 C4639 1.429 . S
C4655 C4651 1.429 . S
C4655 C4656 1.523 . S
C4656 C4640 1.368 . S
C4656 C4652 1.368 . S
C4656 C4655 1.523 . S
H4657 C4632 0.950 . S
H4658 C4634 0.950 . S
H4659 C4635 0.949 . S
H4660 C4637 0.950 . S
H4661 C4639 0.950 . S
C4662 C4663 1.349 . S
C4662 C4664 1.327 . S
C4662 H4687 0.950 . S
C4663 C4662 1.349 . S
C4663 C4679 1.349 . S
C4664 C4662 1.327 . S
C4664 C4683 1.429 . S
C4664 H4688 0.950 . S
C4665 C4682 1.574 . S
C4665 C4684 1.368 . S
C4665 H4689 0.949 . S
H4666 C4670 0.949 . S
C4667 C4668 1.349 . S
C4667 C4669 1.327 . S
C4667 H4690 0.950 . S
C4668 C4667 1.349 . S
C4668 C4680 1.349 . S
C4669 C4667 1.327 . S
C4669 C4685 1.429 . S
C4669 H4691 0.950 . S
C4670 H4666 0.949 . S
C4670 C4678 1.574 . S
C4670 C4686 1.368 . S
H4671 C4679 0.950 . S
H4672 C4677 0.950 . S
H4673 C4678 0.949 . S
H4674 C4680 0.950 . S
H4675 C4681 0.950 . S
H4676 C4682 0.949 . S
C4677 H4672 0.950 . S
C4677 C4679 1.327 . S
C4677 C4683 1.429 . S
C4678 C4670 1.574 . S
C4678 H4673 0.949 . S
C4678 C4684 1.368 . S
C4679 C4663 1.349 . S
C4679 H4671 0.950 . S
C4679 C4677 1.327 . S
C4680 C4668 1.349 . S
C4680 H4674 0.950 . S
C4680 C4681 1.327 . S
C4681 H4675 0.950 . S
C4681 C4680 1.327 . S
C4681 C4685 1.429 . S
C4682 C4665 1.574 . S
C4682 H4676 0.949 . S
C4682 C4686 1.368 . S
C4683 C4664 1.429 . S
C4683 C4677 1.429 . S
C4683 C4684 1.523 . S
C4684 C4665 1.368 . S
C4684 C4678 1.368 . S
C4684 C4683 1.523 . S
C4685 C4669 1.429 . S
C4685 C4681 1.429 . S
C4685 C4686 1.523 . S
C4686 C4670 1.368 . S
C4686 C4682 1.368 . S
C4686 C4685 1.523 . S
H4687 C4662 0.950 . S
H4688 C4664 0.950 . S
H4689 C4665 0.949 . S
H4690 C4667 0.950 . S
H4691 C4669 0.950 . S
C4692 C4693 1.349 . S
C4692 C4694 1.327 . S
C4692 H4717 0.950 . S
C4693 C4692 1.349 . S
C4693 C4709 1.349 . S
C4694 C4692 1.327 . S
C4694 C4713 1.429 . S
C4694 H4718 0.950 . S
C4695 C4712 1.574 . S
C4695 C4714 1.368 . S
C4695 H4719 0.949 . S
H4696 C4700 0.949 . S
C4697 C4698 1.349 . S
C4697 C4699 1.327 . S
C4697 H4720 0.950 . S
C4698 C4697 1.349 . S
C4698 C4710 1.349 . S
C4699 C4697 1.327 . S
C4699 C4715 1.429 . S
C4699 H4721 0.950 . S
C4700 H4696 0.949 . S
C4700 C4708 1.574 . S
C4700 C4716 1.368 . S
H4701 C4709 0.950 . S
H4702 C4707 0.950 . S
H4703 C4708 0.949 . S
H4704 C4710 0.950 . S
H4705 C4711 0.950 . S
H4706 C4712 0.949 . S
C4707 H4702 0.950 . S
C4707 C4709 1.327 . S
C4707 C4713 1.429 . S
C4708 C4700 1.574 . S
C4708 H4703 0.949 . S
C4708 C4714 1.368 . S
C4709 C4693 1.349 . S
C4709 H4701 0.950 . S
C4709 C4707 1.327 . S
C4710 C4698 1.349 . S
C4710 H4704 0.950 . S
C4710 C4711 1.327 . S
C4711 H4705 0.950 . S
C4711 C4710 1.327 . S
C4711 C4715 1.429 . S
C4712 C4695 1.574 . S
C4712 H4706 0.949 . S
C4712 C4716 1.368 . S
C4713 C4694 1.429 . S
C4713 C4707 1.429 . S
C4713 C4714 1.523 . S
C4714 C4695 1.368 . S
C4714 C4708 1.368 . S
C4714 C4713 1.523 . S
C4715 C4699 1.429 . S
C4715 C4711 1.429 . S
C4715 C4716 1.523 . S
C4716 C4700 1.368 . S
C4716 C4712 1.368 . S
C4716 C4715 1.523 . S
H4717 C4692 0.950 . S
H4718 C4694 0.950 . S
H4719 C4695 0.949 . S
H4720 C4697 0.950 . S
H4721 C4699 0.950 . S
C4722 C4723 1.349 . S
C4722 C4724 1.327 . S
C4722 H4747 0.950 . S
C4723 C4722 1.349 . S
C4723 C4739 1.349 . S
C4724 C4722 1.327 . S
C4724 C4743 1.429 . S
C4724 H4748 0.950 . S
C4725 C4742 1.574 . S
C4725 C4744 1.368 . S
C4725 H4749 0.949 . S
H4726 C4730 0.949 . S
C4727 C4728 1.349 . S
C4727 C4729 1.327 . S
C4727 H4750 0.950 . S
C4728 C4727 1.349 . S
C4728 C4740 1.349 . S
C4729 C4727 1.327 . S
C4729 C4745 1.429 . S
C4729 H4751 0.950 . S
C4730 H4726 0.949 . S
C4730 C4738 1.574 . S
C4730 C4746 1.368 . S
H4731 C4739 0.950 . S
H4732 C4737 0.950 . S
H4733 C4738 0.949 . S
H4734 C4740 0.950 . S
H4735 C4741 0.950 . S
H4736 C4742 0.949 . S
C4737 H4732 0.950 . S
C4737 C4739 1.327 . S
C4737 C4743 1.429 . S
C4738 C4730 1.574 . S
C4738 H4733 0.949 . S
C4738 C4744 1.368 . S
C4739 C4723 1.349 . S
C4739 H4731 0.950 . S
C4739 C4737 1.327 . S
C4740 C4728 1.349 . S
C4740 H4734 0.950 . S
C4740 C4741 1.327 . S
C4741 H4735 0.950 . S
C4741 C4740 1.327 . S
C4741 C4745 1.429 . S
C4742 C4725 1.574 . S
C4742 H4736 0.949 . S
C4742 C4746 1.368 . S
C4743 C4724 1.429 . S
C4743 C4737 1.429 . S
C4743 C4744 1.523 . S
C4744 C4725 1.368 . S
C4744 C4738 1.368 . S
C4744 C4743 1.523 . S
C4745 C4729 1.429 . S
C4745 C4741 1.429 . S
C4745 C4746 1.523 . S
C4746 C4730 1.368 . S
C4746 C4742 1.368 . S
C4746 C4745 1.523 . S
H4747 C4722 0.950 . S
H4748 C4724 0.950 . S
H4749 C4725 0.949 . S
H4750 C4727 0.950 . S
H4751 C4729 0.950 . S
C4752 C4753 1.349 . S
C4752 C4754 1.327 . S
C4752 H4777 0.950 . S
C4753 C4752 1.349 . S
C4753 C4769 1.349 . S
C4754 C4752 1.327 . S
C4754 C4773 1.429 . S
C4754 H4778 0.950 . S
C4755 C4772 1.574 . S
C4755 C4774 1.368 . S
C4755 H4779 0.949 . S
H4756 C4760 0.949 . S
C4757 C4758 1.349 . S
C4757 C4759 1.327 . S
C4757 H4780 0.950 . S
C4758 C4757 1.349 . S
C4758 C4770 1.349 . S
C4759 C4757 1.327 . S
C4759 C4775 1.429 . S
C4759 H4781 0.950 . S
C4760 H4756 0.949 . S
C4760 C4768 1.574 . S
C4760 C4776 1.368 . S
H4761 C4769 0.950 . S
H4762 C4767 0.950 . S
H4763 C4768 0.949 . S
H4764 C4770 0.950 . S
H4765 C4771 0.950 . S
H4766 C4772 0.949 . S
C4767 H4762 0.950 . S
C4767 C4769 1.327 . S
C4767 C4773 1.429 . S
C4768 C4760 1.574 . S
C4768 H4763 0.949 . S
C4768 C4774 1.368 . S
C4769 C4753 1.349 . S
C4769 H4761 0.950 . S
C4769 C4767 1.327 . S
C4770 C4758 1.349 . S
C4770 H4764 0.950 . S
C4770 C4771 1.327 . S
C4771 H4765 0.950 . S
C4771 C4770 1.327 . S
C4771 C4775 1.429 . S
C4772 C4755 1.574 . S
C4772 H4766 0.949 . S
C4772 C4776 1.368 . S
C4773 C4754 1.429 . S
C4773 C4767 1.429 . S
C4773 C4774 1.523 . S
C4774 C4755 1.368 . S
C4774 C4768 1.368 . S
C4774 C4773 1.523 . S
C4775 C4759 1.429 . S
C4775 C4771 1.429 . S
C4775 C4776 1.523 . S
C4776 C4760 1.368 . S
C4776 C4772 1.368 . S
C4776 C4775 1.523 . S
H4777 C4752 0.950 . S
H4778 C4754 0.950 . S
H4779 C4755 0.949 . S
H4780 C4757 0.950 . S
H4781 C4759 0.950 . S
C4782 C4783 1.349 . S
C4782 C4784 1.327 . S
C4782 H4807 0.950 . S
C4783 C4782 1.349 . S
C4783 C4799 1.349 . S
C4784 C4782 1.327 . S
C4784 C4803 1.429 . S
C4784 H4808 0.950 . S
C4785 C4802 1.574 . S
C4785 C4804 1.368 . S
C4785 H4809 0.949 . S
H4786 C4790 0.949 . S
C4787 C4788 1.349 . S
C4787 C4789 1.327 . S
C4787 H4810 0.950 . S
C4788 C4787 1.349 . S
C4788 C4800 1.349 . S
C4789 C4787 1.327 . S
C4789 C4805 1.429 . S
C4789 H4811 0.950 . S
C4790 H4786 0.949 . S
C4790 C4798 1.574 . S
C4790 C4806 1.368 . S
H4791 C4799 0.950 . S
H4792 C4797 0.950 . S
H4793 C4798 0.949 . S
H4794 C4800 0.950 . S
H4795 C4801 0.950 . S
H4796 C4802 0.949 . S
C4797 H4792 0.950 . S
C4797 C4799 1.327 . S
C4797 C4803 1.429 . S
C4798 C4790 1.574 . S
C4798 H4793 0.949 . S
C4798 C4804 1.368 . S
C4799 C4783 1.349 . S
C4799 H4791 0.950 . S
C4799 C4797 1.327 . S
C4800 C4788 1.349 . S
C4800 H4794 0.950 . S
C4800 C4801 1.327 . S
C4801 H4795 0.950 . S
C4801 C4800 1.327 . S
C4801 C4805 1.429 . S
C4802 C4785 1.574 . S
C4802 H4796 0.949 . S
C4802 C4806 1.368 . S
C4803 C4784 1.429 . S
C4803 C4797 1.429 . S
C4803 C4804 1.523 . S
C4804 C4785 1.368 . S
C4804 C4798 1.368 . S
C4804 C4803 1.523 . S
C4805 C4789 1.429 . S
C4805 C4801 1.429 . S
C4805 C4806 1.523 . S
C4806 C4790 1.368 . S
C4806 C4802 1.368 . S
C4806 C4805 1.523 . S
H4807 C4782 0.950 . S
H4808 C4784 0.950 . S
H4809 C4785 0.949 . S
H4810 C4787 0.950 . S
H4811 C4789 0.950 . S
C4812 C4813 1.349 . S
C4812 C4814 1.327 . S
C4812 H4837 0.950 . S
C4813 C4812 1.349 . S
C4813 C4829 1.349 . S
C4814 C4812 1.327 . S
C4814 C4833 1.429 . S
C4814 H4838 0.950 . S
C4815 C4832 1.574 . S
C4815 C4834 1.368 . S
C4815 H4839 0.949 . S
H4816 C4820 0.949 . S
C4817 C4818 1.349 . S
C4817 C4819 1.327 . S
C4817 H4840 0.950 . S
C4818 C4817 1.349 . S
C4818 C4830 1.349 . S
C4819 C4817 1.327 . S
C4819 C4835 1.429 . S
C4819 H4841 0.950 . S
C4820 H4816 0.949 . S
C4820 C4828 1.574 . S
C4820 C4836 1.368 . S
H4821 C4829 0.950 . S
H4822 C4827 0.950 . S
H4823 C4828 0.949 . S
H4824 C4830 0.950 . S
H4825 C4831 0.950 . S
H4826 C4832 0.949 . S
C4827 H4822 0.950 . S
C4827 C4829 1.327 . S
C4827 C4833 1.429 . S
C4828 C4820 1.574 . S
C4828 H4823 0.949 . S
C4828 C4834 1.368 . S
C4829 C4813 1.349 . S
C4829 H4821 0.950 . S
C4829 C4827 1.327 . S
C4830 C4818 1.349 . S
C4830 H4824 0.950 . S
C4830 C4831 1.327 . S
C4831 H4825 0.950 . S
C4831 C4830 1.327 . S
C4831 C4835 1.429 . S
C4832 C4815 1.574 . S
C4832 H4826 0.949 . S
C4832 C4836 1.368 . S
C4833 C4814 1.429 . S
C4833 C4827 1.429 . S
C4833 C4834 1.523 . S
C4834 C4815 1.368 . S
C4834 C4828 1.368 . S
C4834 C4833 1.523 . S
C4835 C4819 1.429 . S
C4835 C4831 1.429 . S
C4835 C4836 1.523 . S
C4836 C4820 1.368 . S
C4836 C4832 1.368 . S
C4836 C4835 1.523 . S
H4837 C4812 0.950 . S
H4838 C4814 0.950 . S
H4839 C4815 0.949 . S
H4840 C4817 0.950 . S
H4841 C4819 0.950 . S
C4842 C4843 1.349 . S
C4842 C4844 1.327 . S
C4842 H4867 0.950 . S
C4843 C4842 1.349 . S
C4843 C4859 1.349 . S
C4844 C4842 1.327 . S
C4844 C4863 1.429 . S
C4844 H4868 0.950 . S
C4845 C4862 1.574 . S
C4845 C4864 1.368 . S
C4845 H4869 0.949 . S
H4846 C4850 0.949 . S
C4847 C4848 1.349 . S
C4847 C4849 1.327 . S
C4847 H4870 0.950 . S
C4848 C4847 1.349 . S
C4848 C4860 1.349 . S
C4849 C4847 1.327 . S
C4849 C4865 1.429 . S
C4849 H4871 0.950 . S
C4850 H4846 0.949 . S
C4850 C4858 1.574 . S
C4850 C4866 1.368 . S
H4851 C4859 0.950 . S
H4852 C4857 0.950 . S
H4853 C4858 0.949 . S
H4854 C4860 0.950 . S
H4855 C4861 0.950 . S
H4856 C4862 0.949 . S
C4857 H4852 0.950 . S
C4857 C4859 1.327 . S
C4857 C4863 1.429 . S
C4858 C4850 1.574 . S
C4858 H4853 0.949 . S
C4858 C4864 1.368 . S
C4859 C4843 1.349 . S
C4859 H4851 0.950 . S
C4859 C4857 1.327 . S
C4860 C4848 1.349 . S
C4860 H4854 0.950 . S
C4860 C4861 1.327 . S
C4861 H4855 0.950 . S
C4861 C4860 1.327 . S
C4861 C4865 1.429 . S
C4862 C4845 1.574 . S
C4862 H4856 0.949 . S
C4862 C4866 1.368 . S
C4863 C4844 1.429 . S
C4863 C4857 1.429 . S
C4863 C4864 1.523 . S
C4864 C4845 1.368 . S
C4864 C4858 1.368 . S
C4864 C4863 1.523 . S
C4865 C4849 1.429 . S
C4865 C4861 1.429 . S
C4865 C4866 1.523 . S
C4866 C4850 1.368 . S
C4866 C4862 1.368 . S
C4866 C4865 1.523 . S
H4867 C4842 0.950 . S
H4868 C4844 0.950 . S
H4869 C4845 0.949 . S
H4870 C4847 0.950 . S
H4871 C4849 0.950 . S
C4872 C4873 1.349 . S
C4872 C4874 1.327 . S
C4872 H4897 0.950 . S
C4873 C4872 1.349 . S
C4873 C4889 1.349 . S
C4874 C4872 1.327 . S
C4874 C4893 1.429 . S
C4874 H4898 0.950 . S
C4875 C4892 1.574 . S
C4875 C4894 1.368 . S
C4875 H4899 0.949 . S
H4876 C4880 0.949 . S
C4877 C4878 1.349 . S
C4877 C4879 1.327 . S
C4877 H4900 0.950 . S
C4878 C4877 1.349 . S
C4878 C4890 1.349 . S
C4879 C4877 1.327 . S
C4879 C4895 1.429 . S
C4879 H4901 0.950 . S
C4880 H4876 0.949 . S
C4880 C4888 1.574 . S
C4880 C4896 1.368 . S
H4881 C4889 0.950 . S
H4882 C4887 0.950 . S
H4883 C4888 0.949 . S
H4884 C4890 0.950 . S
H4885 C4891 0.950 . S
H4886 C4892 0.949 . S
C4887 H4882 0.950 . S
C4887 C4889 1.327 . S
C4887 C4893 1.429 . S
C4888 C4880 1.574 . S
C4888 H4883 0.949 . S
C4888 C4894 1.368 . S
C4889 C4873 1.349 . S
C4889 H4881 0.950 . S
C4889 C4887 1.327 . S
C4890 C4878 1.349 . S
C4890 H4884 0.950 . S
C4890 C4891 1.327 . S
C4891 H4885 0.950 . S
C4891 C4890 1.327 . S
C4891 C4895 1.429 . S
C4892 C4875 1.574 . S
C4892 H4886 0.949 . S
C4892 C4896 1.368 . S
C4893 C4874 1.429 . S
C4893 C4887 1.429 . S
C4893 C4894 1.523 . S
C4894 C4875 1.368 . S
C4894 C4888 1.368 . S
C4894 C4893 1.523 . S
C4895 C4879 1.429 . S
C4895 C4891 1.429 . S
C4895 C4896 1.523 . S
C4896 C4880 1.368 . S
C4896 C4892 1.368 . S
C4896 C4895 1.523 . S
H4897 C4872 0.950 . S
H4898 C4874 0.950 . S
H4899 C4875 0.949 . S
H4900 C4877 0.950 . S
H4901 C4879 0.950 . S
C4902 C4903 1.349 . S
C4902 C4904 1.327 . S
C4902 H4927 0.950 . S
C4903 C4902 1.349 . S
C4903 C4919 1.349 . S
C4904 C4902 1.327 . S
C4904 C4923 1.429 . S
C4904 H4928 0.950 . S
C4905 C4922 1.574 . S
C4905 C4924 1.368 . S
C4905 H4929 0.949 . S
H4906 C4910 0.949 . S
C4907 C4908 1.349 . S
C4907 C4909 1.327 . S
C4907 H4930 0.950 . S
C4908 C4907 1.349 . S
C4908 C4920 1.349 . S
C4909 C4907 1.327 . S
C4909 C4925 1.429 . S
C4909 H4931 0.950 . S
C4910 H4906 0.949 . S
C4910 C4918 1.574 . S
C4910 C4926 1.368 . S
H4911 C4919 0.950 . S
H4912 C4917 0.950 . S
H4913 C4918 0.949 . S
H4914 C4920 0.950 . S
H4915 C4921 0.950 . S
H4916 C4922 0.949 . S
C4917 H4912 0.950 . S
C4917 C4919 1.327 . S
C4917 C4923 1.429 . S
C4918 C4910 1.574 . S
C4918 H4913 0.949 . S
C4918 C4924 1.368 . S
C4919 C4903 1.349 . S
C4919 H4911 0.950 . S
C4919 C4917 1.327 . S
C4920 C4908 1.349 . S
C4920 H4914 0.950 . S
C4920 C4921 1.327 . S
C4921 H4915 0.950 . S
C4921 C4920 1.327 . S
C4921 C4925 1.429 . S
C4922 C4905 1.574 . S
C4922 H4916 0.949 . S
C4922 C4926 1.368 . S
C4923 C4904 1.429 . S
C4923 C4917 1.429 . S
C4923 C4924 1.523 . S
C4924 C4905 1.368 . S
C4924 C4918 1.368 . S
C4924 C4923 1.523 . S
C4925 C4909 1.429 . S
C4925 C4921 1.429 . S
C4925 C4926 1.523 . S
C4926 C4910 1.368 . S
C4926 C4922 1.368 . S
C4926 C4925 1.523 . S
H4927 C4902 0.950 . S
H4928 C4904 0.950 . S
H4929 C4905 0.949 . S
H4930 C4907 0.950 . S
H4931 C4909 0.950 . S
C4932 C4933 1.349 . S
C4932 C4934 1.327 . S
C4932 H4957 0.950 . S
C4933 C4932 1.349 . S
C4933 C4949 1.349 . S
C4934 C4932 1.327 . S
C4934 C4953 1.429 . S
C4934 H4958 0.950 . S
C4935 C4952 1.574 . S
C4935 C4954 1.368 . S
C4935 H4959 0.949 . S
H4936 C4940 0.949 . S
C4937 C4938 1.349 . S
C4937 C4939 1.327 . S
C4937 H4960 0.950 . S
C4938 C4937 1.349 . S
C4938 C4950 1.349 . S
C4939 C4937 1.327 . S
C4939 C4955 1.429 . S
C4939 H4961 0.950 . S
C4940 H4936 0.949 . S
C4940 C4948 1.574 . S
C4940 C4956 1.368 . S
H4941 C4949 0.950 . S
H4942 C4947 0.950 . S
H4943 C4948 0.949 . S
H4944 C4950 0.950 . S
H4945 C4951 0.950 . S
H4946 C4952 0.949 . S
C4947 H4942 0.950 . S
C4947 C4949 1.327 . S
C4947 C4953 1.429 . S
C4948 C4940 1.574 . S
C4948 H4943 0.949 . S
C4948 C4954 1.368 . S
C4949 C4933 1.349 . S
C4949 H4941 0.950 . S
C4949 C4947 1.327 . S
C4950 C4938 1.349 . S
C4950 H4944 0.950 . S
C4950 C4951 1.327 . S
C4951 H4945 0.950 . S
C4951 C4950 1.327 . S
C4951 C4955 1.429 . S
C4952 C4935 1.574 . S
C4952 H4946 0.949 . S
C4952 C4956 1.368 . S
C4953 C4934 1.429 . S
C4953 C4947 1.429 . S
C4953 C4954 1.523 . S
C4954 C4935 1.368 . S
C4954 C4948 1.368 . S
C4954 C4953 1.523 . S
C4955 C4939 1.429 . S
C4955 C4951 1.429 . S
C4955 C4956 1.523 . S
C4956 C4940 1.368 . S
C4956 C4952 1.368 . S
C4956 C4955 1.523 . S
H4957 C4932 0.950 . S
H4958 C4934 0.950 . S
H4959 C4935 0.949 . S
H4960 C4937 0.950 . S
H4961 C4939 0.950 . S
C4962 C4963 1.349 . S
C4962 C4964 1.327 . S
C4962 H4987 0.950 . S
C4963 C4962 1.349 . S
C4963 C4979 1.349 . S
C4964 C4962 1.327 . S
C4964 C4983 1.429 . S
C4964 H4988 0.950 . S
C4965 C4982 1.574 . S
C4965 C4984 1.368 . S
C4965 H4989 0.949 . S
H4966 C4970 0.949 . S
C4967 C4968 1.349 . S
C4967 C4969 1.327 . S
C4967 H4990 0.950 . S
C4968 C4967 1.349 . S
C4968 C4980 1.349 . S
C4969 C4967 1.327 . S
C4969 C4985 1.429 . S
C4969 H4991 0.950 . S
C4970 H4966 0.949 . S
C4970 C4978 1.574 . S
C4970 C4986 1.368 . S
H4971 C4979 0.950 . S
H4972 C4977 0.950 . S
H4973 C4978 0.949 . S
H4974 C4980 0.950 . S
H4975 C4981 0.950 . S
H4976 C4982 0.949 . S
C4977 H4972 0.950 . S
C4977 C4979 1.327 . S
C4977 C4983 1.429 . S
C4978 C4970 1.574 . S
C4978 H4973 0.949 . S
C4978 C4984 1.368 . S
C4979 C4963 1.349 . S
C4979 H4971 0.950 . S
C4979 C4977 1.327 . S
C4980 C4968 1.349 . S
C4980 H4974 0.950 . S
C4980 C4981 1.327 . S
C4981 H4975 0.950 . S
C4981 C4980 1.327 . S
C4981 C4985 1.429 . S
C4982 C4965 1.574 . S
C4982 H4976 0.949 . S
C4982 C4986 1.368 . S
C4983 C4964 1.429 . S
C4983 C4977 1.429 . S
C4983 C4984 1.523 . S
C4984 C4965 1.368 . S
C4984 C4978 1.368 . S
C4984 C4983 1.523 . S
C4985 C4969 1.429 . S
C4985 C4981 1.429 . S
C4985 C4986 1.523 . S
C4986 C4970 1.368 . S
C4986 C4982 1.368 . S
C4986 C4985 1.523 . S
H4987 C4962 0.950 . S
H4988 C4964 0.950 . S
H4989 C4965 0.949 . S
H4990 C4967 0.950 . S
H4991 C4969 0.950 . S
C4992 C4993 1.349 . S
C4992 C4994 1.327 . S
C4992 H5017 0.950 . S
C4993 C4992 1.349 . S
C4993 C5009 1.349 . S
C4994 C4992 1.327 . S
C4994 C5013 1.429 . S
C4994 H5018 0.950 . S
C4995 C5012 1.574 . S
C4995 C5014 1.368 . S
C4995 H5019 0.949 . S
H4996 C5000 0.949 . S
C4997 C4998 1.349 . S
C4997 C4999 1.327 . S
C4997 H5020 0.950 . S
C4998 C4997 1.349 . S
C4998 C5010 1.349 . S
C4999 C4997 1.327 . S
C4999 C5015 1.429 . S
C4999 H5021 0.950 . S
C5000 H4996 0.949 . S
C5000 C5008 1.574 . S
C5000 C5016 1.368 . S
H5001 C5009 0.950 . S
H5002 C5007 0.950 . S
H5003 C5008 0.949 . S
H5004 C5010 0.950 . S
H5005 C5011 0.950 . S
H5006 C5012 0.949 . S
C5007 H5002 0.950 . S
C5007 C5009 1.327 . S
C5007 C5013 1.429 . S
C5008 C5000 1.574 . S
C5008 H5003 0.949 . S
C5008 C5014 1.368 . S
C5009 C4993 1.349 . S
C5009 H5001 0.950 . S
C5009 C5007 1.327 . S
C5010 C4998 1.349 . S
C5010 H5004 0.950 . S
C5010 C5011 1.327 . S
C5011 H5005 0.950 . S
C5011 C5010 1.327 . S
C5011 C5015 1.429 . S
C5012 C4995 1.574 . S
C5012 H5006 0.949 . S
C5012 C5016 1.368 . S
C5013 C4994 1.429 . S
C5013 C5007 1.429 . S
C5013 C5014 1.523 . S
C5014 C4995 1.368 . S
C5014 C5008 1.368 . S
C5014 C5013 1.523 . S
C5015 C4999 1.429 . S
C5015 C5011 1.429 . S
C5015 C5016 1.523 . S
C5016 C5000 1.368 . S
C5016 C5012 1.368 . S
C5016 C5015 1.523 . S
H5017 C4992 0.950 . S
H5018 C4994 0.950 . S
H5019 C4995 0.949 . S
H5020 C4997 0.950 . S
H5021 C4999 0.950 . S
C5022 C5023 1.349 . S
C5022 C5024 1.327 . S
C5022 H5047 0.950 . S
C5023 C5022 1.349 . S
C5023 C5039 1.349 . S
C5024 C5022 1.327 . S
C5024 C5043 1.429 . S
C5024 H5048 0.950 . S
C5025 C5042 1.574 . S
C5025 C5044 1.368 . S
C5025 H5049 0.949 . S
H5026 C5030 0.949 . S
C5027 C5028 1.349 . S
C5027 C5029 1.327 . S
C5027 H5050 0.950 . S
C5028 C5027 1.349 . S
C5028 C5040 1.349 . S
C5029 C5027 1.327 . S
C5029 C5045 1.429 . S
C5029 H5051 0.950 . S
C5030 H5026 0.949 . S
C5030 C5038 1.574 . S
C5030 C5046 1.368 . S
H5031 C5039 0.950 . S
H5032 C5037 0.950 . S
H5033 C5038 0.949 . S
H5034 C5040 0.950 . S
H5035 C5041 0.950 . S
H5036 C5042 0.949 . S
C5037 H5032 0.950 . S
C5037 C5039 1.327 . S
C5037 C5043 1.429 . S
C5038 C5030 1.574 . S
C5038 H5033 0.949 . S
C5038 C5044 1.368 . S
C5039 C5023 1.349 . S
C5039 H5031 0.950 . S
C5039 C5037 1.327 . S
C5040 C5028 1.349 . S
C5040 H5034 0.950 . S
C5040 C5041 1.327 . S
C5041 H5035 0.950 . S
C5041 C5040 1.327 . S
C5041 C5045 1.429 . S
C5042 C5025 1.574 . S
C5042 H5036 0.949 . S
C5042 C5046 1.368 . S
C5043 C5024 1.429 . S
C5043 C5037 1.429 . S
C5043 C5044 1.523 . S
C5044 C5025 1.368 . S
C5044 C5038 1.368 . S
C5044 C5043 1.523 . S
C5045 C5029 1.429 . S
C5045 C5041 1.429 . S
C5045 C5046 1.523 . S
C5046 C5030 1.368 . S
C5046 C5042 1.368 . S
C5046 C5045 1.523 . S
H5047 C5022 0.950 . S
H5048 C5024 0.950 . S
H5049 C5025 0.949 . S
H5050 C5027 0.950 . S
H5051 C5029 0.950 . S
C5052 C5053 1.349 . S
C5052 C5054 1.327 . S
C5052 H5077 0.950 . S
C5053 C5052 1.349 . S
C5053 C5069 1.349 . S
C5054 C5052 1.327 . S
C5054 C5073 1.429 . S
C5054 H5078 0.950 . S
C5055 C5072 1.574 . S
C5055 C5074 1.368 . S
C5055 H5079 0.949 . S
H5056 C5060 0.949 . S
C5057 C5058 1.349 . S
C5057 C5059 1.327 . S
C5057 H5080 0.950 . S
C5058 C5057 1.349 . S
C5058 C5070 1.349 . S
C5059 C5057 1.327 . S
C5059 C5075 1.429 . S
C5059 H5081 0.950 . S
C5060 H5056 0.949 . S
C5060 C5068 1.574 . S
C5060 C5076 1.368 . S
H5061 C5069 0.950 . S
H5062 C5067 0.950 . S
H5063 C5068 0.949 . S
H5064 C5070 0.950 . S
H5065 C5071 0.950 . S
H5066 C5072 0.949 . S
C5067 H5062 0.950 . S
C5067 C5069 1.327 . S
C5067 C5073 1.429 . S
C5068 C5060 1.574 . S
C5068 H5063 0.949 . S
C5068 C5074 1.368 . S
C5069 C5053 1.349 . S
C5069 H5061 0.950 . S
C5069 C5067 1.327 . S
C5070 C5058 1.349 . S
C5070 H5064 0.950 . S
C5070 C5071 1.327 . S
C5071 H5065 0.950 . S
C5071 C5070 1.327 . S
C5071 C5075 1.429 . S
C5072 C5055 1.574 . S
C5072 H5066 0.949 . S
C5072 C5076 1.368 . S
C5073 C5054 1.429 . S
C5073 C5067 1.429 . S
C5073 C5074 1.523 . S
C5074 C5055 1.368 . S
C5074 C5068 1.368 . S
C5074 C5073 1.523 . S
C5075 C5059 1.429 . S
C5075 C5071 1.429 . S
C5075 C5076 1.523 . S
C5076 C5060 1.368 . S
C5076 C5072 1.368 . S
C5076 C5075 1.523 . S
H5077 C5052 0.950 . S
H5078 C5054 0.950 . S
H5079 C5055 0.949 . S
H5080 C5057 0.950 . S
H5081 C5059 0.950 . S
C5082 C5083 1.349 . S
C5082 C5084 1.327 . S
C5082 H5107 0.950 . S
C5083 C5082 1.349 . S
C5083 C5099 1.349 . S
C5084 C5082 1.327 . S
C5084 C5103 1.429 . S
C5084 H5108 0.950 . S
C5085 C5102 1.574 . S
C5085 C5104 1.368 . S
C5085 H5109 0.949 . S
H5086 C5090 0.949 . S
C5087 C5088 1.349 . S
C5087 C5089 1.327 . S
C5087 H5110 0.950 . S
C5088 C5087 1.349 . S
C5088 C5100 1.349 . S
C5089 C5087 1.327 . S
C5089 C5105 1.429 . S
C5089 H5111 0.950 . S
C5090 H5086 0.949 . S
C5090 C5098 1.574 . S
C5090 C5106 1.368 . S
H5091 C5099 0.950 . S
H5092 C5097 0.950 . S
H5093 C5098 0.949 . S
H5094 C5100 0.950 . S
H5095 C5101 0.950 . S
H5096 C5102 0.949 . S
C5097 H5092 0.950 . S
C5097 C5099 1.327 . S
C5097 C5103 1.429 . S
C5098 C5090 1.574 . S
C5098 H5093 0.949 . S
C5098 C5104 1.368 . S
C5099 C5083 1.349 . S
C5099 H5091 0.950 . S
C5099 C5097 1.327 . S
C5100 C5088 1.349 . S
C5100 H5094 0.950 . S
C5100 C5101 1.327 . S
C5101 H5095 0.950 . S
C5101 C5100 1.327 . S
C5101 C5105 1.429 . S
C5102 C5085 1.574 . S
C5102 H5096 0.949 . S
C5102 C5106 1.368 . S
C5103 C5084 1.429 . S
C5103 C5097 1.429 . S
C5103 C5104 1.523 . S
C5104 C5085 1.368 . S
C5104 C5098 1.368 . S
C5104 C5103 1.523 . S
C5105 C5089 1.429 . S
C5105 C5101 1.429 . S
C5105 C5106 1.523 . S
C5106 C5090 1.368 . S
C5106 C5102 1.368 . S
C5106 C5105 1.523 . S
H5107 C5082 0.950 . S
H5108 C5084 0.950 . S
H5109 C5085 0.949 . S
H5110 C5087 0.950 . S
H5111 C5089 0.950 . S
C5112 C5113 1.349 . S
C5112 C5114 1.327 . S
C5112 H5137 0.950 . S
C5113 C5112 1.349 . S
C5113 C5129 1.349 . S
C5114 C5112 1.327 . S
C5114 C5133 1.429 . S
C5114 H5138 0.950 . S
C5115 C5132 1.574 . S
C5115 C5134 1.368 . S
C5115 H5139 0.949 . S
H5116 C5120 0.949 . S
C5117 C5118 1.349 . S
C5117 C5119 1.327 . S
C5117 H5140 0.950 . S
C5118 C5117 1.349 . S
C5118 C5130 1.349 . S
C5119 C5117 1.327 . S
C5119 C5135 1.429 . S
C5119 H5141 0.950 . S
C5120 H5116 0.949 . S
C5120 C5128 1.574 . S
C5120 C5136 1.368 . S
H5121 C5129 0.950 . S
H5122 C5127 0.950 . S
H5123 C5128 0.949 . S
H5124 C5130 0.950 . S
H5125 C5131 0.950 . S
H5126 C5132 0.949 . S
C5127 H5122 0.950 . S
C5127 C5129 1.327 . S
C5127 C5133 1.429 . S
C5128 C5120 1.574 . S
C5128 H5123 0.949 . S
C5128 C5134 1.368 . S
C5129 C5113 1.349 . S
C5129 H5121 0.950 . S
C5129 C5127 1.327 . S
C5130 C5118 1.349 . S
C5130 H5124 0.950 . S
C5130 C5131 1.327 . S
C5131 H5125 0.950 . S
C5131 C5130 1.327 . S
C5131 C5135 1.429 . S
C5132 C5115 1.574 . S
C5132 H5126 0.949 . S
C5132 C5136 1.368 . S
C5133 C5114 1.429 . S
C5133 C5127 1.429 . S
C5133 C5134 1.523 . S
C5134 C5115 1.368 . S
C5134 C5128 1.368 . S
C5134 C5133 1.523 . S
C5135 C5119 1.429 . S
C5135 C5131 1.429 . S
C5135 C5136 1.523 . S
C5136 C5120 1.368 . S
C5136 C5132 1.368 . S
C5136 C5135 1.523 . S
H5137 C5112 0.950 . S
H5138 C5114 0.950 . S
H5139 C5115 0.949 . S
H5140 C5117 0.950 . S
H5141 C5119 0.950 . S
C5142 C5143 1.349 . S
C5142 C5144 1.327 . S
C5142 H5167 0.950 . S
C5143 C5142 1.349 . S
C5143 C5159 1.349 . S
C5144 C5142 1.327 . S
C5144 C5163 1.429 . S
C5144 H5168 0.950 . S
C5145 C5162 1.574 . S
C5145 C5164 1.368 . S
C5145 H5169 0.949 . S
H5146 C5150 0.949 . S
C5147 C5148 1.349 . S
C5147 C5149 1.327 . S
C5147 H5170 0.950 . S
C5148 C5147 1.349 . S
C5148 C5160 1.349 . S
C5149 C5147 1.327 . S
C5149 C5165 1.429 . S
C5149 H5171 0.950 . S
C5150 H5146 0.949 . S
C5150 C5158 1.574 . S
C5150 C5166 1.368 . S
H5151 C5159 0.950 . S
H5152 C5157 0.950 . S
H5153 C5158 0.949 . S
H5154 C5160 0.950 . S
H5155 C5161 0.950 . S
H5156 C5162 0.949 . S
C5157 H5152 0.950 . S
C5157 C5159 1.327 . S
C5157 C5163 1.429 . S
C5158 C5150 1.574 . S
C5158 H5153 0.949 . S
C5158 C5164 1.368 . S
C5159 C5143 1.349 . S
C5159 H5151 0.950 . S
C5159 C5157 1.327 . S
C5160 C5148 1.349 . S
C5160 H5154 0.950 . S
C5160 C5161 1.327 . S
C5161 H5155 0.950 . S
C5161 C5160 1.327 . S
C5161 C5165 1.429 . S
C5162 C5145 1.574 . S
C5162 H5156 0.949 . S
C5162 C5166 1.368 . S
C5163 C5144 1.429 . S
C5163 C5157 1.429 . S
C5163 C5164 1.523 . S
C5164 C5145 1.368 . S
C5164 C5158 1.368 . S
C5164 C5163 1.523 . S
C5165 C5149 1.429 . S
C5165 C5161 1.429 . S
C5165 C5166 1.523 . S
C5166 C5150 1.368 . S
C5166 C5162 1.368 . S
C5166 C5165 1.523 . S
H5167 C5142 0.950 . S
H5168 C5144 0.950 . S
H5169 C5145 0.949 . S
H5170 C5147 0.950 . S
H5171 C5149 0.950 . S
C5172 C5173 1.349 . S
C5172 C5174 1.327 . S
C5172 H5197 0.950 . S
C5173 C5172 1.349 . S
C5173 C5189 1.349 . S
C5174 C5172 1.327 . S
C5174 C5193 1.429 . S
C5174 H5198 0.950 . S
C5175 C5192 1.574 . S
C5175 C5194 1.368 . S
C5175 H5199 0.949 . S
H5176 C5180 0.949 . S
C5177 C5178 1.349 . S
C5177 C5179 1.327 . S
C5177 H5200 0.950 . S
C5178 C5177 1.349 . S
C5178 C5190 1.349 . S
C5179 C5177 1.327 . S
C5179 C5195 1.429 . S
C5179 H5201 0.950 . S
C5180 H5176 0.949 . S
C5180 C5188 1.574 . S
C5180 C5196 1.368 . S
H5181 C5189 0.950 . S
H5182 C5187 0.950 . S
H5183 C5188 0.949 . S
H5184 C5190 0.950 . S
H5185 C5191 0.950 . S
H5186 C5192 0.949 . S
C5187 H5182 0.950 . S
C5187 C5189 1.327 . S
C5187 C5193 1.429 . S
C5188 C5180 1.574 . S
C5188 H5183 0.949 . S
C5188 C5194 1.368 . S
C5189 C5173 1.349 . S
C5189 H5181 0.950 . S
C5189 C5187 1.327 . S
C5190 C5178 1.349 . S
C5190 H5184 0.950 . S
C5190 C5191 1.327 . S
C5191 H5185 0.950 . S
C5191 C5190 1.327 . S
C5191 C5195 1.429 . S
C5192 C5175 1.574 . S
C5192 H5186 0.949 . S
C5192 C5196 1.368 . S
C5193 C5174 1.429 . S
C5193 C5187 1.429 . S
C5193 C5194 1.523 . S
C5194 C5175 1.368 . S
C5194 C5188 1.368 . S
C5194 C5193 1.523 . S
C5195 C5179 1.429 . S
C5195 C5191 1.429 . S
C5195 C5196 1.523 . S
C5196 C5180 1.368 . S
C5196 C5192 1.368 . S
C5196 C5195 1.523 . S
H5197 C5172 0.950 . S
H5198 C5174 0.950 . S
H5199 C5175 0.949 . S
H5200 C5177 0.950 . S
H5201 C5179 0.950 . S
C5202 C5203 1.349 . S
C5202 C5204 1.327 . S
C5202 H5227 0.950 . S
C5203 C5202 1.349 . S
C5203 C5219 1.349 . S
C5204 C5202 1.327 . S
C5204 C5223 1.429 . S
C5204 H5228 0.950 . S
C5205 C5222 1.574 . S
C5205 C5224 1.368 . S
C5205 H5229 0.949 . S
H5206 C5210 0.949 . S
C5207 C5208 1.349 . S
C5207 C5209 1.327 . S
C5207 H5230 0.950 . S
C5208 C5207 1.349 . S
C5208 C5220 1.349 . S
C5209 C5207 1.327 . S
C5209 C5225 1.429 . S
C5209 H5231 0.950 . S
C5210 H5206 0.949 . S
C5210 C5218 1.574 . S
C5210 C5226 1.368 . S
H5211 C5219 0.950 . S
H5212 C5217 0.950 . S
H5213 C5218 0.949 . S
H5214 C5220 0.950 . S
H5215 C5221 0.950 . S
H5216 C5222 0.949 . S
C5217 H5212 0.950 . S
C5217 C5219 1.327 . S
C5217 C5223 1.429 . S
C5218 C5210 1.574 . S
C5218 H5213 0.949 . S
C5218 C5224 1.368 . S
C5219 C5203 1.349 . S
C5219 H5211 0.950 . S
C5219 C5217 1.327 . S
C5220 C5208 1.349 . S
C5220 H5214 0.950 . S
C5220 C5221 1.327 . S
C5221 H5215 0.950 . S
C5221 C5220 1.327 . S
C5221 C5225 1.429 . S
C5222 C5205 1.574 . S
C5222 H5216 0.949 . S
C5222 C5226 1.368 . S
C5223 C5204 1.429 . S
C5223 C5217 1.429 . S
C5223 C5224 1.523 . S
C5224 C5205 1.368 . S
C5224 C5218 1.368 . S
C5224 C5223 1.523 . S
C5225 C5209 1.429 . S
C5225 C5221 1.429 . S
C5225 C5226 1.523 . S
C5226 C5210 1.368 . S
C5226 C5222 1.368 . S
C5226 C5225 1.523 . S
H5227 C5202 0.950 . S
H5228 C5204 0.950 . S
H5229 C5205 0.949 . S
H5230 C5207 0.950 . S
H5231 C5209 0.950 . S
C5232 C5233 1.349 . S
C5232 C5234 1.327 . S
C5232 H5257 0.950 . S
C5233 C5232 1.349 . S
C5233 C5249 1.349 . S
C5234 C5232 1.327 . S
C5234 C5253 1.429 . S
C5234 H5258 0.950 . S
C5235 C5252 1.574 . S
C5235 C5254 1.368 . S
C5235 H5259 0.949 . S
H5236 C5240 0.949 . S
C5237 C5238 1.349 . S
C5237 C5239 1.327 . S
C5237 H5260 0.950 . S
C5238 C5237 1.349 . S
C5238 C5250 1.349 . S
C5239 C5237 1.327 . S
C5239 C5255 1.429 . S
C5239 H5261 0.950 . S
C5240 H5236 0.949 . S
C5240 C5248 1.574 . S
C5240 C5256 1.368 . S
H5241 C5249 0.950 . S
H5242 C5247 0.950 . S
H5243 C5248 0.949 . S
H5244 C5250 0.950 . S
H5245 C5251 0.950 . S
H5246 C5252 0.949 . S
C5247 H5242 0.950 . S
C5247 C5249 1.327 . S
C5247 C5253 1.429 . S
C5248 C5240 1.574 . S
C5248 H5243 0.949 . S
C5248 C5254 1.368 . S
C5249 C5233 1.349 . S
C5249 H5241 0.950 . S
C5249 C5247 1.327 . S
C5250 C5238 1.349 . S
C5250 H5244 0.950 . S
C5250 C5251 1.327 . S
C5251 H5245 0.950 . S
C5251 C5250 1.327 . S
C5251 C5255 1.429 . S
C5252 C5235 1.574 . S
C5252 H5246 0.949 . S
C5252 C5256 1.368 . S
C5253 C5234 1.429 . S
C5253 C5247 1.429 . S
C5253 C5254 1.523 . S
C5254 C5235 1.368 . S
C5254 C5248 1.368 . S
C5254 C5253 1.523 . S
C5255 C5239 1.429 . S
C5255 C5251 1.429 . S
C5255 C5256 1.523 . S
C5256 C5240 1.368 . S
C5256 C5252 1.368 . S
C5256 C5255 1.523 . S
H5257 C5232 0.950 . S
H5258 C5234 0.950 . S
H5259 C5235 0.949 . S
H5260 C5237 0.950 . S
H5261 C5239 0.950 . S
C5262 C5263 1.349 . S
C5262 C5264 1.327 . S
C5262 H5287 0.950 . S
C5263 C5262 1.349 . S
C5263 C5279 1.349 . S
C5264 C5262 1.327 . S
C5264 C5283 1.429 . S
C5264 H5288 0.950 . S
C5265 C5282 1.574 . S
C5265 C5284 1.368 . S
C5265 H5289 0.949 . S
H5266 C5270 0.949 . S
C5267 C5268 1.349 . S
C5267 C5269 1.327 . S
C5267 H5290 0.950 . S
C5268 C5267 1.349 . S
C5268 C5280 1.349 . S
C5269 C5267 1.327 . S
C5269 C5285 1.429 . S
C5269 H5291 0.950 . S
C5270 H5266 0.949 . S
C5270 C5278 1.574 . S
C5270 C5286 1.368 . S
H5271 C5279 0.950 . S
H5272 C5277 0.950 . S
H5273 C5278 0.949 . S
H5274 C5280 0.950 . S
H5275 C5281 0.950 . S
H5276 C5282 0.949 . S
C5277 H5272 0.950 . S
C5277 C5279 1.327 . S
C5277 C5283 1.429 . S
C5278 C5270 1.574 . S
C5278 H5273 0.949 . S
C5278 C5284 1.368 . S
C5279 C5263 1.349 . S
C5279 H5271 0.950 . S
C5279 C5277 1.327 . S
C5280 C5268 1.349 . S
C5280 H5274 0.950 . S
C5280 C5281 1.327 . S
C5281 H5275 0.950 . S
C5281 C5280 1.327 . S
C5281 C5285 1.429 . S
C5282 C5265 1.574 . S
C5282 H5276 0.949 . S
C5282 C5286 1.368 . S
C5283 C5264 1.429 . S
C5283 C5277 1.429 . S
C5283 C5284 1.523 . S
C5284 C5265 1.368 . S
C5284 C5278 1.368 . S
C5284 C5283 1.523 . S
C5285 C5269 1.429 . S
C5285 C5281 1.429 . S
C5285 C5286 1.523 . S
C5286 C5270 1.368 . S
C5286 C5282 1.368 . S
C5286 C5285 1.523 . S
H5287 C5262 0.950 . S
H5288 C5264 0.950 . S
H5289 C5265 0.949 . S
H5290 C5267 0.950 . S
H5291 C5269 0.950 . S
C5292 C5293 1.349 . S
C5292 C5294 1.327 . S
C5292 H5317 0.950 . S
C5293 C5292 1.349 . S
C5293 C5309 1.349 . S
C5294 C5292 1.327 . S
C5294 C5313 1.429 . S
C5294 H5318 0.950 . S
C5295 C5312 1.574 . S
C5295 C5314 1.368 . S
C5295 H5319 0.949 . S
H5296 C5300 0.949 . S
C5297 C5298 1.349 . S
C5297 C5299 1.327 . S
C5297 H5320 0.950 . S
C5298 C5297 1.349 . S
C5298 C5310 1.349 . S
C5299 C5297 1.327 . S
C5299 C5315 1.429 . S
C5299 H5321 0.950 . S
C5300 H5296 0.949 . S
C5300 C5308 1.574 . S
C5300 C5316 1.368 . S
H5301 C5309 0.950 . S
H5302 C5307 0.950 . S
H5303 C5308 0.949 . S
H5304 C5310 0.950 . S
H5305 C5311 0.950 . S
H5306 C5312 0.949 . S
C5307 H5302 0.950 . S
C5307 C5309 1.327 . S
C5307 C5313 1.429 . S
C5308 C5300 1.574 . S
C5308 H5303 0.949 . S
C5308 C5314 1.368 . S
C5309 C5293 1.349 . S
C5309 H5301 0.950 . S
C5309 C5307 1.327 . S
C5310 C5298 1.349 . S
C5310 H5304 0.950 . S
C5310 C5311 1.327 . S
C5311 H5305 0.950 . S
C5311 C5310 1.327 . S
C5311 C5315 1.429 . S
C5312 C5295 1.574 . S
C5312 H5306 0.949 . S
C5312 C5316 1.368 . S
C5313 C5294 1.429 . S
C5313 C5307 1.429 . S
C5313 C5314 1.523 . S
C5314 C5295 1.368 . S
C5314 C5308 1.368 . S
C5314 C5313 1.523 . S
C5315 C5299 1.429 . S
C5315 C5311 1.429 . S
C5315 C5316 1.523 . S
C5316 C5300 1.368 . S
C5316 C5312 1.368 . S
C5316 C5315 1.523 . S
H5317 C5292 0.950 . S
H5318 C5294 0.950 . S
H5319 C5295 0.949 . S
H5320 C5297 0.950 . S
H5321 C5299 0.950 . S
C5322 C5323 1.349 . S
C5322 C5324 1.327 . S
C5322 H5347 0.950 . S
C5323 C5322 1.349 . S
C5323 C5339 1.349 . S
C5324 C5322 1.327 . S
C5324 C5343 1.429 . S
C5324 H5348 0.950 . S
C5325 C5342 1.574 . S
C5325 C5344 1.368 . S
C5325 H5349 0.949 . S
H5326 C5330 0.949 . S
C5327 C5328 1.349 . S
C5327 C5329 1.327 . S
C5327 H5350 0.950 . S
C5328 C5327 1.349 . S
C5328 C5340 1.349 . S
C5329 C5327 1.327 . S
C5329 C5345 1.429 . S
C5329 H5351 0.950 . S
C5330 H5326 0.949 . S
C5330 C5338 1.574 . S
C5330 C5346 1.368 . S
H5331 C5339 0.950 . S
H5332 C5337 0.950 . S
H5333 C5338 0.949 . S
H5334 C5340 0.950 . S
H5335 C5341 0.950 . S
H5336 C5342 0.949 . S
C5337 H5332 0.950 . S
C5337 C5339 1.327 . S
C5337 C5343 1.429 . S
C5338 C5330 1.574 . S
C5338 H5333 0.949 . S
C5338 C5344 1.368 . S
C5339 C5323 1.349 . S
C5339 H5331 0.950 . S
C5339 C5337 1.327 . S
C5340 C5328 1.349 . S
C5340 H5334 0.950 . S
C5340 C5341 1.327 . S
C5341 H5335 0.950 . S
C5341 C5340 1.327 . S
C5341 C5345 1.429 . S
C5342 C5325 1.574 . S
C5342 H5336 0.949 . S
C5342 C5346 1.368 . S
C5343 C5324 1.429 . S
C5343 C5337 1.429 . S
C5343 C5344 1.523 . S
C5344 C5325 1.368 . S
C5344 C5338 1.368 . S
C5344 C5343 1.523 . S
C5345 C5329 1.429 . S
C5345 C5341 1.429 . S
C5345 C5346 1.523 . S
C5346 C5330 1.368 . S
C5346 C5342 1.368 . S
C5346 C5345 1.523 . S
H5347 C5322 0.950 . S
H5348 C5324 0.950 . S
H5349 C5325 0.949 . S
H5350 C5327 0.950 . S
H5351 C5329 0.950 . S
C2478 N1932 1.449 . S
C2473 C1 1.457 . S
C2508 C1959 1.583 . S
C2503 C80 1.565 . S
C2533 C140 1.490 . S
C2538 C1973 1.496 . S
C2568 N1991 1.447 . S
C2563 C211 1.465 . S
C2593 C241 1.549 . S
C2598 C1996 1.571 . S
C2623 C320 1.475 . S
C2628 C1936 1.483 . S
C2653 C391 1.400 . S
C2658 N1955 1.389 . S
C2688 N1968 1.444 . S
C2683 C421 1.466 . S
C2718 N2014 1.401 . S
C2713 C31 1.410 . S
C2743 C61 1.509 . S
C2748 N2037 1.500 . S
C2773 C121 1.522 . S
C2778 N2060 1.531 . S
C2808 N2093 1.422 . S
C2803 C181 1.454 . S
C2833 C260 1.512 . S
C2838 C2120 1.531 . S
C2868 C2143 1.547 . S
C2863 C331 1.533 . S
C2893 C380 1.464 . S
C2898 C2166 1.484 . S
C2928 C2180 1.429 . S
C2923 C440 1.403 . S
C2953 C20 1.393 . S
C2958 C2097 1.414 . S
C2983 C271 1.469 . S
C2988 N2139 1.457 . S
C3018 N2162 1.433 . S
C3013 C301 1.449 . S
C3043 C361 1.450 . S
C3048 N2175 1.433 . S
C3078 N2116 1.410 . S
C3073 C451 1.425 . S
C3108 C2042 1.658 . S
C3103 C151 1.636 . S
C3133 C200 1.500 . S
C3138 C2065 1.504 . S
C3168 C2019 1.585 . S
C3163 C91 1.559 . S
C3198 C2212 1.441 . S
C3193 C500 1.421 . S
C3223 C560 1.589 . S
C3228 C2226 1.608 . S
C3253 C620 1.483 . S
C3258 N2254 1.460 . S
C3288 N2267 1.437 . S
C3283 C691 1.455 . S
C3313 C721 1.561 . S
C3318 C2272 1.583 . S
C3343 C811 1.462 . S
C3348 N2208 1.438 . S
C3373 C871 1.490 . S
C3378 N2221 1.482 . S
C3403 C901 1.412 . S
C3408 C2258 1.428 . S
C3438 N2106 1.402 . S
C3433 C511 1.412 . S
C3463 C541 1.505 . S
C3468 N2290 1.483 . S
C3498 N2152 1.441 . S
C3493 C601 1.449 . S
C3523 C661 1.496 . S
C3528 C2327 1.503 . S
C3553 C740 1.544 . S
C3558 C2028 1.568 . S
C3588 C2341 1.580 . S
C3583 C781 1.556 . S
C3613 C860 1.523 . S
C3618 C2074 1.542 . S
C3648 N2359 1.390 . S
C3643 C920 1.401 . S
C3673 C481 1.435 . S
C3678 N2323 1.422 . S
C3708 N2336 1.487 . S
C3703 C751 1.501 . S
C3733 C800 1.438 . S
C3738 N2070 1.421 . S
C3768 C2364 1.437 . S
C3763 C841 1.418 . S
C3793 C931 1.401 . S
C3798 N2024 1.388 . S
C3823 C631 1.535 . S
C3828 C2295 1.557 . S
C3853 C680 1.536 . S
C3858 C2157 1.552 . S
C3883 C571 1.569 . S
C3888 C2111 1.597 . S
C3913 C961 1.482 . S
C3918 C2249 1.511 . S
C3948 C2281 1.536 . S
C3943 C1040 1.524 . S
C3973 C1100 1.452 . S
C3978 N2198 1.431 . S
C4003 C1171 1.430 . S
C4008 N2231 1.413 . S
C4033 C1201 1.561 . S
C4038 C2235 1.577 . S
C4063 C1291 1.529 . S
C4068 N2244 1.516 . S
C4098 N2277 1.370 . S
C4093 C1351 1.387 . S
C4123 C1381 1.467 . S
C4128 C2203 1.492 . S
C4158 N2392 1.427 . S
C4153 C991 1.436 . S
C4183 C1021 1.448 . S
C4188 N2129 1.436 . S
C4218 N2415 1.374 . S
C4213 C1081 1.389 . S
C4243 C1141 1.461 . S
C4248 N2185 1.435 . S
C4273 C1220 1.520 . S
C4278 C2433 1.548 . S
C4303 C1261 1.623 . S
C4308 C2051 1.643 . S
C4338 N2451 1.389 . S
C4333 C1340 1.408 . S
C4363 C1400 1.452 . S
C4368 C2088 1.484 . S
C4398 C2189 1.473 . S
C4393 C980 1.444 . S
C4428 N2047 1.491 . S
C4423 C1231 1.510 . S
C4453 C1280 1.539 . S
C4458 C2456 1.568 . S
C4483 C1321 1.382 . S
C4488 N2083 1.355 . S
C4518 N2428 1.461 . S
C4513 C1411 1.474 . S
C4548 C2134 1.553 . S
C4543 C1111 1.527 . S
C4578 C2419 1.541 . S
C4573 C1160 1.530 . S
C4608 C2396 1.551 . S
C4603 C1051 1.527 . S
C4633 C1460 1.377 . S
C4638 N1978 1.355 . S
C4663 C1520 1.537 . S
C4668 C2005 1.552 . S
C4698 C1927 1.535 . S
C4693 C1580 1.515 . S
C4728 N1945 1.383 . S
C4723 C1651 1.403 . S
C4758 C1950 1.579 . S
C4753 C1681 1.561 . S
C4788 C1982 1.481 . S
C4783 C1760 1.484 . S
C4818 N2001 1.485 . S
C4813 C1831 1.495 . S
C4843 C1861 1.476 . S
C4848 N1922 1.468 . S
C4873 C1471 1.347 . S
C4878 N2438 1.337 . S
C4908 N2346 1.458 . S
C4903 C1501 1.470 . S
C4938 C2465 1.567 . S
C4933 C1561 1.540 . S
C4968 C2373 1.382 . S
C4963 C1621 1.375 . S
C4993 C1700 1.550 . S
C4998 C2387 1.578 . S
C5028 C2304 1.572 . S
C5023 C1771 1.559 . S
C5058 C2410 1.632 . S
C5053 C1820 1.609 . S
C5083 C1880 1.448 . S
C5088 N2313 1.440 . S
C5118 N2369 1.345 . S
C5113 C1441 1.357 . S
C5148 N2300 1.465 . S
C5143 C1711 1.475 . S
C5178 N2405 1.391 . S
C5173 C1741 1.401 . S
C5203 C1801 1.490 . S
C5208 C2318 1.505 . S
C5233 C1891 1.412 . S
C5238 N2382 1.402 . S
C5263 C1591 1.629 . S
C5268 C2350 1.647 . S
C5293 C1640 1.421 . S
C5298 N2461 1.402 . S
C5328 C2442 1.527 . S
C5323 C1531 1.507 . S
