# Generated by pormake.
# Topology rtl, (3,6)-cn, num edge types: 1
# Building blocks:
#     Node 0, Type 0, BuildingBlock: PAMTOO_clean_linker_0, # of connection points: 3
#     Node 1, Type 0, BuildingBlock: PAMTOO_clean_linker_0, # of connection points: 3
#     Node 2, Type 0, BuildingBlock: PAMTOO_clean_linker_0, # of connection points: 3
#     Node 3, Type 0, BuildingBlock: PAMTOO_clean_linker_0, # of connection points: 3
#     Node 4, Type 1, BuildingBlock: KUMBUR_clean_sbu_1, # of connection points: 6
#     Node 5, Type 1, BuildingBlock: KUMBUR_clean_sbu_1, # of connection points: 6
#     Edge 6, Type (0, 1), BuildingBlock: OJICUG_clean_linker_0, # of connection points: 2
#     Edge 7, Type (0, 1), BuildingBlock: OJICUG_clean_linker_0, # of connection points: 2
#     Edge 8, Type (0, 1), BuildingBlock: OJICUG_clean_linker_0, # of connection points: 2
#     Edge 9, Type (0, 1), BuildingBlock: OJICUG_clean_linker_0, # of connection points: 2
#     Edge 10, Type (0, 1), BuildingBlock: OJICUG_clean_linker_0, # of connection points: 2
#     Edge 11, Type (0, 1), BuildingBlock: OJICUG_clean_linker_0, # of connection points: 2
#     Edge 12, Type (0, 1), BuildingBlock: OJICUG_clean_linker_0, # of connection points: 2
#     Edge 13, Type (0, 1), BuildingBlock: OJICUG_clean_linker_0, # of connection points: 2
#     Edge 14, Type (0, 1), BuildingBlock: OJICUG_clean_linker_0, # of connection points: 2
#     Edge 15, Type (0, 1), BuildingBlock: OJICUG_clean_linker_0, # of connection points: 2
#     Edge 16, Type (0, 1), BuildingBlock: OJICUG_clean_linker_0, # of connection points: 2
#     Edge 17, Type (0, 1), BuildingBlock: OJICUG_clean_linker_0, # of connection points: 2
# Relax obj value: 0.053
# Max RMSD: 0.238
# Mean RMSD: 0.175
data_MOF--net-rtl--node1-KUMBUR_clean_sbu_1--node2-PAMTOO_clean_linker_0--edge1-OJICUG_clean_linker_0
_symmetry_space_group_name_H-M    P1
_symmetry_Int_Tables_number       1
_symmetry_cell_setting            triclinic
loop_
_symmetry_equiv_pos_as_xyz
'x, y, z'
_cell_length_a     25.704693
_cell_length_b     26.321645
_cell_length_c     20.588286
_cell_angle_alpha  75.307501
_cell_angle_beta   98.53569
_cell_angle_gamma 91.801482
loop_
_atom_site_label
_atom_site_type_symbol
_atom_site_fract_x
_atom_site_fract_y
_atom_site_fract_z
_atom_type_partial_charge
H0 H 0.15065 0.93115 0.98138 0.0
H1 H 0.25547 0.81717 0.12401 0.0
H2 H 0.2425 0.82891 0.90983 0.0
H3 H 0.2455 0.72393 0.99535 0.0
C4 C 0.2766 0.72796 0.03756 0.0
O5 O 0.29 0.78014 0.03026 0.0
H6 H 0.26021 0.71302 0.08589 0.0
C7 C 0.18032 0.90057 0.99198 0.0
C8 C 0.1945 0.8835 0.93802 0.0
C9 C 0.20179 0.87722 0.05934 0.0
C10 C 0.2383 0.83571 0.07239 0.0
C11 C 0.25337 0.81863 0.01829 0.0
C12 C 0.23115 0.84242 0.95129 0.0
H13 H 0.63422 0.61691 0.70247 0.0
H14 H 0.735 0.72338 0.58322 0.0
H15 H 0.73509 0.72123 0.7932 0.0
H16 H 0.75226 0.83054 0.69803 0.0
C17 C 0.76954 0.81657 0.65918 0.0
O18 O 0.77899 0.76299 0.68248 0.0
H19 H 0.74007 0.82472 0.61229 0.0
C20 C 0.66307 0.64809 0.69776 0.0
C21 C 0.68186 0.6665 0.75493 0.0
C22 C 0.68085 0.66861 0.63518 0.0
C23 C 0.72003 0.7075 0.63071 0.0
C24 C 0.73968 0.72682 0.68735 0.0
C25 C 0.71989 0.70671 0.74938 0.0
H26 H 0.89231 0.10797 0.15219 0.0
H27 H 0.79113 0.22585 0.01036 0.0
H28 H 0.80928 0.21672 0.22422 0.0
H29 H 0.70284 0.22887 0.15559 0.0
C30 C 0.70838 0.25794 0.10739 0.0
O31 O 0.76144 0.26614 0.10436 0.0
H32 H 0.69054 0.24121 0.06477 0.0
C33 C 0.86433 0.14006 0.14181 0.0
C34 C 0.85257 0.15864 0.19584 0.0
C35 C 0.84287 0.16389 0.07461 0.0
C36 C 0.80834 0.20699 0.06184 0.0
C37 C 0.79563 0.22554 0.11604 0.0
C38 C 0.81858 0.20188 0.18274 0.0
H39 H 0.4234 0.40438 0.43609 0.0
H40 H 0.31909 0.30251 0.55525 0.0
H41 H 0.32208 0.29889 0.34781 0.0
H42 H 0.21334 0.28044 0.39408 0.0
C43 C 0.22665 0.26438 0.44929 0.0
O44 O 0.28057 0.25615 0.45991 0.0
H45 H 0.21692 0.29425 0.4755 0.0
C46 C 0.39388 0.37379 0.44107 0.0
C47 C 0.37571 0.35376 0.38499 0.0
C48 C 0.37362 0.3562 0.50255 0.0
C49 C 0.33454 0.31723 0.50784 0.0
C50 C 0.31591 0.29618 0.45238 0.0
C51 C 0.33619 0.31506 0.39057 0.0
Tb52 Tb 0.05375 0.96762 0.52754 0.0
C53 C 0.93891 0.17547 0.51568 0.0
N54 N 0.985 0.15712 0.55508 0.0
C55 C 0.02155 0.24367 0.52871 0.0
C56 C 0.93277 0.22868 0.47975 0.0
C57 C 0.02579 0.19051 0.56313 0.0
C58 C 0.97494 0.26282 0.48651 0.0
C59 C 0.85037 0.15738 0.46788 0.0
C60 C 0.89838 0.14018 0.50961 0.0
C61 C 0.84406 0.21033 0.43182 0.0
C62 C 0.88516 0.24589 0.43774 0.0
Tb63 Tb 0.98799 0.06949 0.60744 0.0
N64 N 0.90669 0.08874 0.54321 0.0
C65 C 0.81018 0.12083 0.46359 0.0
C66 C 0.86621 0.05391 0.54274 0.0
C67 C 0.8179 0.06905 0.50201 0.0
H68 H 0.06117 0.17648 0.59746 0.0
H69 H 0.78635 0.0409 0.50112 0.0
H70 H 0.97869 0.86145 0.53935 0.0
H71 H 0.25575 0.99475 0.63361 0.0
H72 H 0.86981 0.01493 0.57503 0.0
H73 H 0.77272 0.13241 0.43206 0.0
H74 H 0.17169 0.02216 0.56194 0.0
H75 H 0.05412 0.26989 0.53506 0.0
H76 H 0.80757 0.22417 0.39919 0.0
H77 H 0.87976 0.28657 0.40948 0.0
H78 H 0.98597 0.7677 0.59973 0.0
H79 H 0.97182 0.30399 0.45973 0.0
H80 H 0.26977 0.90239 0.69926 0.0
N81 N 0.05599 0.87994 0.57944 0.0
C82 C 0.10244 0.86105 0.61742 0.0
C83 C 0.01891 0.79361 0.60556 0.0
C84 C 0.10858 0.80759 0.65225 0.0
C85 C 0.01463 0.84698 0.5722 0.0
C86 C 0.06601 0.77383 0.64598 0.0
N87 N 0.13512 0.94772 0.59107 0.0
C88 C 0.17558 0.98253 0.59244 0.0
C89 C 0.1917 0.87818 0.66386 0.0
C90 C 0.14339 0.896 0.62332 0.0
C91 C 0.23209 0.91446 0.66858 0.0
C92 C 0.22416 0.96671 0.63205 0.0
H93 H 0.06914 0.73248 0.67193 0.0
H94 H 0.16203 0.74882 0.72007 0.0
H95 H 0.23481 0.81061 0.73018 0.0
O96 O 0.10352 0.9822 0.45274 0.0
O97 O 0.05699 0.94992 0.63813 0.0
O98 O 0.05996 0.02954 0.66594 0.0
O99 O 0.04769 0.91954 0.45904 0.0
O100 O 0.08167 0.04998 0.50596 0.0
O101 O 0.07195 0.08199 0.59864 0.0
O102 O 0.93742 0.05553 0.68124 0.0
O103 O 0.98612 0.08752 0.49718 0.0
O104 O 0.98194 1.00805 0.46919 0.0
O105 O 0.9944 0.11713 0.67649 0.0
O106 O 0.96103 0.98688 0.6296 0.0
O107 O 0.96976 0.95537 0.53635 0.0
C108 C 0.07196 0.97935 0.68018 0.0
C109 C 0.07169 0.95884 0.35158 0.0
C110 C 0.09442 0.95349 0.24264 0.0
C111 C 0.05329 0.98903 0.20955 0.0
C112 C 0.031 0.99427 0.3178 0.0
C113 C 0.02168 0.00904 0.24702 0.0
C114 C 0.10304 0.93813 0.31395 0.0
C115 C 0.0935 0.0839 0.54364 0.0
C116 C 0.08363 0.94493 0.42586 0.0
C117 C 0.15661 0.78973 0.69276 0.0
C118 C 0.19805 0.82493 0.69856 0.0
C119 C 0.97114 0.0585 0.4547 0.0
C120 C 0.96919 0.0776 0.78316 0.0
C121 C 0.94633 0.08328 0.89187 0.0
C122 C 0.98599 0.04609 0.92515 0.0
C123 C 1.00841 0.0405 0.81708 0.0
C124 C 0.93853 0.09927 0.8206 0.0
C125 C 0.01695 0.02509 0.88786 0.0
C126 C 0.94826 0.95355 0.59135 0.0
C127 C 0.95784 0.09221 0.70888 0.0
H128 H 0.04544 1.00114 0.15464 0.0
H129 H 1.00691 0.0108 0.34615 0.0
H130 H 0.99017 0.03639 0.22114 0.0
H131 H 0.13497 0.91127 0.34014 0.0
H132 H 0.99322 0.03348 0.98006 0.0
H133 H 0.03189 0.02314 0.78885 0.0
H134 H 0.90771 0.12741 0.79426 0.0
H135 H 0.04733 0.99647 0.91388 0.0
Tb136 Tb 0.46957 0.48625 0.99525 0.0
C137 C 0.67572 0.5831 0.08033 0.0
N138 N 0.65318 0.53895 0.11464 0.0
C139 C 0.73534 0.49268 0.13287 0.0
C140 C 0.72821 0.58305 0.06793 0.0
C141 C 0.68347 0.49514 0.14498 0.0
C142 C 0.75751 0.53651 0.09295 0.0
C143 C 0.66987 0.67706 0.03044 0.0
C144 C 0.64716 0.62943 0.06174 0.0
C145 C 0.72128 0.67684 0.01503 0.0
C146 C 0.75035 0.62986 0.03353 0.0
Tb147 Tb 0.56682 0.5477 0.1275 0.0
N148 N 0.59706 0.62782 0.07557 0.0
C149 C 0.64034 0.72341 0.01632 0.0
C150 C 0.569 0.67312 0.06534 0.0
C151 C 0.58993 0.72149 0.03469 0.0
H152 H 0.66835 0.46217 0.17979 0.0
H153 H 0.56721 0.75722 0.02524 0.0
H154 H 0.35445 0.53925 0.98982 0.0
H155 H 0.52768 0.28175 0.04632 0.0
H156 H 0.53016 0.67164 0.07988 0.0
H157 H 0.65638 0.76087 0.99234 0.0
H158 H 0.53312 0.37644 0.9946 0.0
H159 H 0.75853 0.45731 0.15555 0.0
H160 H 0.73925 0.71289 0.99005 0.0
H161 H 0.79043 0.63047 0.0229 0.0
H162 H 0.26881 0.51082 0.02776 0.0
H163 H 0.79795 0.53476 0.0845 0.0
H164 H 0.45213 0.24651 0.10533 0.0
N165 N 0.38946 0.46358 0.0282 0.0
C166 C 0.38192 0.41181 0.05594 0.0
C167 C 0.30049 0.48265 0.03663 0.0
C168 C 0.33393 0.39362 0.07835 0.0
C169 C 0.34906 0.49877 0.01567 0.0
C170 C 0.29309 0.42994 0.06896 0.0
N171 N 0.46647 0.39637 0.03377 0.0
C172 C 0.5022 0.36236 0.02457 0.0
C173 C 0.41589 0.3229 0.08749 0.0
C174 C 0.42239 0.37718 0.06048 0.0
C175 C 0.45551 0.28849 0.08505 0.0
C176 C 0.4983 0.30825 0.05204 0.0
H177 H 0.25552 0.41757 0.08535 0.0
H178 H 0.29188 0.32519 0.12694 0.0
H179 H 0.3637 0.26314 0.13488 0.0
O180 O 0.44255 0.44888 0.91753 0.0
O181 O 0.44883 0.4843 0.09623 0.0
O182 O 0.52693 0.47376 0.16855 0.0
O183 O 0.43548 0.53232 0.90001 0.0
O184 O 0.5521 0.45924 0.02019 0.0
O185 O 0.57838 0.46417 0.13087 0.0
O186 O 0.54041 0.58227 0.19817 0.0
O187 O 0.5538 0.58515 0.01748 0.0
O188 O 0.54527 0.51755 0.96611 0.0
O189 O 0.61883 0.5517 0.21555 0.0
O190 O 0.48537 0.57689 0.10409 0.0
O191 O 0.45225 0.56787 0.9958 0.0
C192 C 0.47647 0.46351 0.15566 0.0
C193 C 0.45135 0.49884 0.80779 0.0
C194 C 0.45196 0.47087 0.70308 0.0
C195 C 0.49195 0.50763 0.6862 0.0
C196 C 0.49159 0.53477 0.79003 0.0
C197 C 0.51155 0.53915 0.72944 0.0
C198 C 0.43169 0.46704 0.76415 0.0
C199 C 0.58155 0.44313 0.0798 0.0
C200 C 0.43062 0.4927 0.8725 0.0
C201 C 0.32819 0.33994 0.10848 0.0
C202 C 0.36918 0.30464 0.11323 0.0
C203 C 0.56494 0.56347 0.97046 0.0
C204 C 0.57977 0.55293 0.31179 0.0
C205 C 0.59527 0.56412 0.42712 0.0
C206 C 0.56608 0.51833 0.44851 0.0
C207 C 0.55111 0.50721 0.334 0.0
C208 C 0.60231 0.58093 0.35855 0.0
C209 C 0.54447 0.48994 0.4022 0.0
C210 C 0.45213 0.59 0.0469 0.0
C211 C 0.58429 0.57376 0.23966 0.0
H212 H 0.50781 0.5125 0.63912 0.0
H213 H 0.50768 0.5594 0.8229 0.0
H214 H 0.54238 0.56711 0.71591 0.0
H215 H 0.40135 0.43862 0.77855 0.0
H216 H 0.56018 0.50442 0.50112 0.0
H217 H 0.5334 0.48544 0.29848 0.0
H218 H 0.62389 0.61667 0.34115 0.0
H219 H 0.52208 0.45476 0.4191 0.0
C220 C 0.17321 0.18477 0.43083 0.0
C221 C 0.19717 0.21397 0.47554 0.0
H222 H 0.12176 0.1214 0.41693 0.0
C223 C 0.19009 0.1975 0.54419 0.0
H224 H 0.17815 0.19623 0.37774 0.0
C225 C 0.15775 0.15448 0.56686 0.0
C226 C 0.13152 0.1269 0.52139 0.0
H227 H 0.2084 0.21893 0.57996 0.0
H228 H 0.15256 0.14341 0.61986 0.0
C229 C 0.14084 0.14184 0.45341 0.0
C230 C 0.33325 0.68109 0.97951 0.0
C231 C 0.32431 0.69556 0.03815 0.0
H232 H 0.38056 0.63665 0.93591 0.0
C233 C 0.35983 0.67835 0.09806 0.0
H234 H 0.30681 0.69446 0.93238 0.0
C235 C 0.40203 0.64529 0.10026 0.0
C236 C 0.40984 0.62873 0.04245 0.0
H237 H 0.35413 0.68949 0.1437 0.0
H238 H 0.42774 0.63172 0.14795 0.0
C239 C 0.37547 0.64795 0.98164 0.0
C240 C 0.83523 0.85653 0.57909 0.0
C241 C 0.81958 0.847 0.64379 0.0
H242 H 0.88731 0.89794 0.51128 0.0
C243 C 0.84897 0.86972 0.69228 0.0
H244 H 0.81339 0.83955 0.54066 0.0
C245 C 0.89131 0.90313 0.6756 0.0
C246 C 0.90584 0.91444 0.61007 0.0
H247 H 0.83809 0.86299 0.74261 0.0
H248 H 0.91215 0.92085 0.71395 0.0
C249 C 0.87768 0.88997 0.56234 0.0
C250 C 0.66226 0.31856 0.15925 0.0
C251 C 0.68056 0.30884 0.10239 0.0
H252 H 0.61636 0.36873 0.19672 0.0
C253 C 0.66992 0.34591 0.03964 0.0
H254 H 0.67025 0.29075 0.20837 0.0
C255 C 0.63934 0.39049 0.03304 0.0
C256 C 0.61873 0.39896 0.08908 0.0
H257 H 0.68394 0.3395 0.99526 0.0
H258 H 0.63065 0.41772 0.98356 0.0
C259 C 0.63159 0.36321 0.15265 0.0
C260 C 0.16577 0.86091 0.17018 0.0
C261 C 0.18338 0.89616 0.11429 0.0
H262 H 0.12335 0.85153 0.2549 0.0
C263 C 0.17655 0.95039 0.10591 0.0
H264 H 0.17018 0.81894 0.1777 0.0
C265 C 0.14918 0.96883 0.14902 0.0
C266 C 0.12859 0.93359 0.20225 0.0
H267 H 0.19053 0.97861 0.06404 0.0
H268 H 0.143 0.01075 0.1397 0.0
C269 C 0.13871 0.87953 0.21402 0.0
C270 C 0.63044 0.67149 0.84839 0.0
C271 C 0.66027 0.64197 0.81893 0.0
H272 H 0.57539 0.66969 0.91802 0.0
C273 C 0.66094 0.58689 0.84294 0.0
H274 H 0.62826 0.71384 0.82995 0.0
C275 C 0.63079 0.56174 0.89294 0.0
C276 C 0.59927 0.59098 0.92054 0.0
H277 H 0.68317 0.56307 0.82074 0.0
H278 H 0.63139 0.51923 0.9091 0.0
C279 C 0.59997 0.64617 0.89846 0.0
C280 C 0.90988 0.16355 0.30293 0.0
C281 C 0.87858 0.13361 0.26506 0.0
H282 H 0.96583 0.16286 0.39087 0.0
C283 C 0.87715 0.07877 0.29023 0.0
H284 H 0.91236 0.20575 0.28389 0.0
C285 C 0.90699 0.05418 0.35207 0.0
C286 C 0.93934 0.08398 0.38928 0.0
H287 H 0.85343 0.0549 0.26149 0.0
H288 H 0.90501 0.01189 0.37044 0.0
C289 C 0.9405 0.13889 0.36403 0.0
C290 C 0.35891 0.39768 0.5962 0.0
C291 C 0.39363 0.37977 0.56001 0.0
H292 H 0.34979 0.44125 0.6689 0.0
C293 C 0.44781 0.38861 0.57506 0.0
H294 H 0.31693 0.39184 0.58538 0.0
C295 C 0.46664 0.4167 0.62277 0.0
C296 C 0.43184 0.43694 0.65675 0.0
H297 H 0.47572 0.37454 0.54891 0.0
H298 H 0.50861 0.42306 0.63245 0.0
C299 C 0.3778 0.42606 0.644 0.0
C300 C 0.69047 0.63646 0.53172 0.0
C301 C 0.65837 0.64763 0.57615 0.0
H302 H 0.6956 0.60106 0.44956 0.0
C303 C 0.60465 0.63451 0.56735 0.0
H304 H 0.73198 0.6457 0.53721 0.0
C305 C 0.58431 0.60804 0.51853 0.0
C306 C 0.61678 0.59498 0.47608 0.0
H307 H 0.57831 0.64376 0.59927 0.0
H308 H 0.54308 0.59747 0.51422 0.0
C309 C 0.66975 0.61061 0.48186 0.0
C310 C 0.87864 0.17856 0.96394 0.0
C311 C 0.85975 0.14409 0.01945 0.0
H312 H 0.92134 0.1862 0.87983 0.0
C313 C 0.86436 0.08964 0.02757 0.0
H314 H 0.87598 0.22067 0.95668 0.0
C315 C 0.89093 0.07008 0.98466 0.0
C316 C 0.91291 0.10445 0.93193 0.0
H317 H 0.8494 0.06206 0.0692 0.0
H318 H 0.89549 0.02796 0.9938 0.0
C319 C 0.90489 0.15885 0.92033 0.0
C320 C 0.36993 0.4082 0.26468 0.0
C321 C 0.39916 0.3748 0.32165 0.0
H322 H 0.37183 0.46427 0.16921 0.0
C323 C 0.45345 0.36898 0.32228 0.0
H324 H 0.32835 0.41451 0.26366 0.0
C325 C 0.47819 0.39658 0.26765 0.0
C326 C 0.44943 0.43152 0.21156 0.0
H327 H 0.47707 0.34419 0.36616 0.0
H328 H 0.52016 0.3915 0.27012 0.0
C329 C 0.39492 0.43666 0.21058 0.0
C330 C 0.1384 0.87641 0.83102 0.0
C331 C 0.16808 0.90755 0.86867 0.0
H332 H 0.0825 0.87493 0.74376 0.0
C333 C 0.16688 0.96245 0.84354 0.0
H334 H 0.13788 0.8341 0.85012 0.0
C335 C 0.136 0.98589 0.78201 0.0
C336 C 0.10515 0.95486 0.74504 0.0
H337 H 0.18922 0.98722 0.87219 0.0
H338 H 0.1359 0.02828 0.7638 0.0
C339 C 0.10667 0.89989 0.77024 0.0
loop_
_geom_bond_atom_site_label_1
_geom_bond_atom_site_label_2
_geom_bond_distance
_geom_bond_site_symmetry_2
_ccdc_geom_bond_type
H0 C7 0.929 . S
H1 C10 0.930 . S
H2 C12 0.929 . S
H3 C4 0.969 . S
C4 H3 0.969 . S
C4 O5 1.550 . S
C4 H6 0.973 . S
O5 C4 1.550 . S
O5 C11 1.412 . S
H6 C4 0.973 . S
C7 H0 0.929 . S
C7 C8 1.400 1_554 S
C7 C9 1.364 . S
C8 C7 1.400 1_556 S
C8 C12 1.377 . S
C9 C7 1.364 . S
C9 C10 1.374 . S
C10 H1 0.930 . S
C10 C9 1.374 . S
C10 C11 1.383 . S
C11 O5 1.412 . S
C11 C10 1.383 . S
C11 C12 1.394 1_554 S
C12 H2 0.929 . S
C12 C8 1.377 . S
C12 C11 1.394 1_556 S
H13 C20 0.929 . S
H14 C23 0.930 . S
H15 C25 0.929 . S
H16 C17 0.969 . S
C17 H16 0.969 . S
C17 O18 1.550 . S
C17 H19 0.973 . S
O18 C17 1.550 . S
O18 C24 1.412 . S
H19 C17 0.973 . S
C20 H13 0.929 . S
C20 C21 1.400 . S
C20 C22 1.364 . S
C21 C20 1.400 . S
C21 C25 1.377 . S
C22 C20 1.364 . S
C22 C23 1.374 . S
C23 H14 0.930 . S
C23 C22 1.374 . S
C23 C24 1.383 . S
C24 O18 1.412 . S
C24 C23 1.383 . S
C24 C25 1.394 . S
C25 H15 0.929 . S
C25 C21 1.377 . S
C25 C24 1.394 . S
H26 C33 0.929 . S
H27 C36 0.930 . S
H28 C38 0.929 . S
H29 C30 0.969 . S
C30 H29 0.969 . S
C30 O31 1.550 . S
C30 H32 0.973 . S
O31 C30 1.550 . S
O31 C37 1.412 . S
H32 C30 0.973 . S
C33 H26 0.929 . S
C33 C34 1.400 . S
C33 C35 1.364 . S
C34 C33 1.400 . S
C34 C38 1.377 . S
C35 C33 1.364 . S
C35 C36 1.374 . S
C36 H27 0.930 . S
C36 C35 1.374 . S
C36 C37 1.383 . S
C37 O31 1.412 . S
C37 C36 1.383 . S
C37 C38 1.394 . S
C38 H28 0.929 . S
C38 C34 1.377 . S
C38 C37 1.394 . S
H39 C46 0.929 . S
H40 C49 0.930 . S
H41 C51 0.929 . S
H42 C43 0.969 . S
C43 H42 0.969 . S
C43 O44 1.550 . S
C43 H45 0.973 . S
O44 C43 1.550 . S
O44 C50 1.412 . S
H45 C43 0.973 . S
C46 H39 0.929 . S
C46 C47 1.400 . S
C46 C48 1.364 . S
C47 C46 1.400 . S
C47 C51 1.377 . S
C48 C46 1.364 . S
C48 C49 1.374 . S
C49 H40 0.930 . S
C49 C48 1.374 . S
C49 C50 1.383 . S
C50 O44 1.412 . S
C50 C49 1.383 . S
C50 C51 1.394 . S
C51 H41 0.929 . S
C51 C47 1.377 . S
C51 C50 1.394 . S
Tb52 N81 2.617 . S
Tb52 N87 2.572 . S
Tb52 O96 2.465 . S
Tb52 O97 2.387 . S
Tb52 O99 2.428 . S
Tb52 O100 2.308 1_565 S
Tb52 O104 2.349 1_465 S
Tb52 O107 2.393 1_455 S
Tb52 C116 2.802 . S
C53 N54 1.379 . S
C53 C56 1.416 . S
C53 C60 1.424 . S
N54 C53 1.379 . S
N54 C57 1.334 1_655 S
N54 Tb63 2.617 . S
C55 C57 1.390 . S
C55 C58 1.339 1_455 S
C55 H75 0.930 . S
C56 C53 1.416 . S
C56 C58 1.416 . S
C56 C62 1.448 . S
C57 N54 1.334 1_455 S
C57 C55 1.390 . S
C57 H68 0.930 . S
C58 C55 1.339 1_655 S
C58 C56 1.416 . S
C58 H79 0.930 . S
C59 C60 1.413 . S
C59 C61 1.427 . S
C59 C65 1.416 . S
C60 C53 1.424 . S
C60 C59 1.413 . S
C60 N64 1.361 . S
C61 C59 1.427 . S
C61 C62 1.328 . S
C61 H76 0.929 . S
C62 C56 1.448 . S
C62 C61 1.328 . S
C62 H77 0.930 . S
Tb63 N54 2.617 . S
Tb63 N64 2.572 . S
Tb63 O98 2.349 1_655 S
Tb63 O101 2.393 1_655 S
Tb63 O102 2.465 . S
Tb63 O103 2.387 . S
Tb63 O105 2.428 . S
Tb63 O106 2.308 1_545 S
Tb63 C127 2.802 . S
N64 C60 1.361 . S
N64 Tb63 2.572 . S
N64 C66 1.340 . S
C65 C59 1.416 . S
C65 C67 1.332 . S
C65 H73 0.931 . S
C66 N64 1.340 . S
C66 C67 1.407 . S
C66 H72 0.930 . S
C67 C65 1.332 . S
C67 C66 1.407 . S
C67 H69 0.929 . S
H68 C57 0.930 . S
H69 C67 0.929 . S
H70 C85 0.930 1_655 S
H71 C92 0.929 . S
H72 C66 0.930 . S
H73 C65 0.931 . S
H74 C88 0.930 . S
H75 C55 0.930 . S
H76 C61 0.929 . S
H77 C62 0.930 . S
H78 C83 0.930 1_655 S
H79 C58 0.930 . S
H80 C91 0.931 . S
N81 Tb52 2.617 . S
N81 C82 1.379 . S
N81 C85 1.334 . S
C82 N81 1.379 . S
C82 C84 1.416 . S
C82 C90 1.424 . S
C83 H78 0.930 1_455 S
C83 C85 1.390 . S
C83 C86 1.339 . S
C84 C82 1.416 . S
C84 C86 1.416 . S
C84 C117 1.448 . S
C85 H70 0.930 1_455 S
C85 N81 1.334 . S
C85 C83 1.390 . S
C86 C83 1.339 . S
C86 C84 1.416 . S
C86 H93 0.930 . S
N87 Tb52 2.572 . S
N87 C88 1.340 . S
N87 C90 1.361 . S
C88 H74 0.930 . S
C88 N87 1.340 . S
C88 C92 1.407 . S
C89 C90 1.413 . S
C89 C91 1.416 . S
C89 C118 1.427 . S
C90 C82 1.424 . S
C90 N87 1.361 . S
C90 C89 1.413 . S
C91 H80 0.931 . S
C91 C89 1.416 . S
C91 C92 1.332 . S
C92 H71 0.929 . S
C92 C88 1.407 . S
C92 C91 1.332 . S
H93 C86 0.930 . S
H94 C117 0.930 . S
H95 C118 0.929 . S
O96 Tb52 2.465 . S
O96 C116 1.264 . S
O97 Tb52 2.387 . S
O97 C108 1.264 . S
O98 Tb63 2.349 1_455 S
O98 C108 1.243 1_545 S
O99 Tb52 2.428 . S
O99 C116 1.256 . S
O100 Tb52 2.308 1_545 S
O100 C115 1.266 . S
O101 Tb63 2.393 1_455 S
O101 C115 1.248 . S
O102 Tb63 2.465 . S
O102 C127 1.264 . S
O103 Tb63 2.387 . S
O103 C119 1.264 . S
O104 Tb52 2.349 1_645 S
O104 C119 1.243 . S
O105 Tb63 2.428 . S
O105 C127 1.256 . S
O106 Tb63 2.308 1_565 S
O106 C126 1.266 . S
O107 Tb52 2.393 1_655 S
O107 C126 1.248 . S
C108 O97 1.264 . S
C108 O98 1.243 1_565 S
C109 C112 1.399 . S
C109 C114 1.383 . S
C109 C116 1.496 . S
C110 C111 1.399 . S
C110 C114 1.389 . S
C111 C110 1.399 . S
C111 C113 1.380 . S
C111 H128 0.929 . S
C112 C109 1.399 . S
C112 C113 1.392 . S
C112 H129 0.929 . S
C113 C111 1.380 . S
C113 C112 1.392 . S
C113 H130 0.929 . S
C114 C109 1.383 . S
C114 C110 1.389 . S
C114 H131 0.931 . S
C115 O100 1.266 . S
C115 O101 1.248 . S
C116 Tb52 2.802 . S
C116 O96 1.264 . S
C116 O99 1.256 . S
C116 C109 1.496 . S
C117 C84 1.448 . S
C117 H94 0.930 . S
C117 C118 1.328 . S
C118 C89 1.427 . S
C118 H95 0.929 . S
C118 C117 1.328 . S
C119 O103 1.264 . S
C119 O104 1.243 . S
C120 C123 1.399 . S
C120 C124 1.383 . S
C120 C127 1.496 . S
C121 C122 1.399 . S
C121 C124 1.389 . S
C122 C121 1.399 . S
C122 C125 1.380 . S
C122 H132 0.929 . S
C123 C120 1.399 . S
C123 C125 1.392 . S
C123 H133 0.929 . S
C124 C120 1.383 . S
C124 C121 1.389 . S
C124 H134 0.931 . S
C125 C122 1.380 . S
C125 C123 1.392 . S
C125 H135 0.929 . S
C126 O106 1.266 . S
C126 O107 1.248 . S
C127 Tb63 2.802 . S
C127 O102 1.264 . S
C127 O105 1.256 . S
C127 C120 1.496 . S
H128 C111 0.929 . S
H129 C112 0.929 . S
H130 C113 0.929 . S
H131 C114 0.931 . S
H132 C122 0.929 . S
H133 C123 0.929 . S
H134 C124 0.931 . S
H135 C125 0.929 . S
Tb136 N165 2.617 . S
Tb136 N171 2.572 1_556 S
Tb136 O180 2.465 . S
Tb136 O181 2.387 1_556 S
Tb136 O183 2.428 . S
Tb136 O184 2.308 1_556 S
Tb136 O188 2.349 . S
Tb136 O191 2.393 1_556 S
Tb136 C200 2.802 . S
C137 N138 1.379 . S
C137 C140 1.416 . S
C137 C144 1.424 . S
N138 C137 1.379 . S
N138 C141 1.334 . S
N138 Tb147 2.617 . S
C139 C141 1.390 . S
C139 C142 1.339 . S
C139 H159 0.930 . S
C140 C137 1.416 . S
C140 C142 1.416 . S
C140 C146 1.448 . S
C141 N138 1.334 . S
C141 C139 1.390 . S
C141 H152 0.930 . S
C142 C139 1.339 . S
C142 C140 1.416 . S
C142 H163 0.930 . S
C143 C144 1.413 . S
C143 C145 1.427 . S
C143 C149 1.416 . S
C144 C137 1.424 . S
C144 C143 1.413 . S
C144 N148 1.361 . S
C145 C143 1.427 . S
C145 C146 1.328 . S
C145 H160 0.929 . S
C146 C140 1.448 . S
C146 C145 1.328 . S
C146 H161 0.930 . S
Tb147 N138 2.617 . S
Tb147 N148 2.572 . S
Tb147 O182 2.349 . S
Tb147 O185 2.393 . S
Tb147 O186 2.465 . S
Tb147 O187 2.387 . S
Tb147 O189 2.428 . S
Tb147 O190 2.308 . S
Tb147 C211 2.802 . S
N148 C144 1.361 . S
N148 Tb147 2.572 . S
N148 C150 1.340 . S
C149 C143 1.416 . S
C149 C151 1.332 . S
C149 H157 0.931 . S
C150 N148 1.340 . S
C150 C151 1.407 . S
C150 H156 0.930 . S
C151 C149 1.332 . S
C151 C150 1.407 . S
C151 H153 0.929 . S
H152 C141 0.930 . S
H153 C151 0.929 . S
H154 C169 0.930 . S
H155 C176 0.929 . S
H156 C150 0.930 . S
H157 C149 0.931 . S
H158 C172 0.930 . S
H159 C139 0.930 . S
H160 C145 0.929 . S
H161 C146 0.930 . S
H162 C167 0.930 . S
H163 C142 0.930 . S
H164 C175 0.931 . S
N165 Tb136 2.617 . S
N165 C166 1.379 1_556 S
N165 C169 1.334 . S
C166 N165 1.379 1_554 S
C166 C168 1.416 . S
C166 C174 1.424 . S
C167 H162 0.930 . S
C167 C169 1.390 . S
C167 C170 1.339 1_556 S
C168 C166 1.416 . S
C168 C170 1.416 . S
C168 C201 1.448 . S
C169 H154 0.930 . S
C169 N165 1.334 . S
C169 C167 1.390 . S
C170 C167 1.339 1_554 S
C170 C168 1.416 . S
C170 H177 0.930 . S
N171 Tb136 2.572 1_554 S
N171 C172 1.340 . S
N171 C174 1.361 . S
C172 H158 0.930 . S
C172 N171 1.340 . S
C172 C176 1.407 . S
C173 C174 1.413 . S
C173 C175 1.416 . S
C173 C202 1.427 . S
C174 C166 1.424 . S
C174 N171 1.361 . S
C174 C173 1.413 . S
C175 H164 0.931 . S
C175 C173 1.416 . S
C175 C176 1.332 . S
C176 H155 0.929 . S
C176 C172 1.407 . S
C176 C175 1.332 . S
H177 C170 0.930 . S
H178 C201 0.930 . S
H179 C202 0.929 . S
O180 Tb136 2.465 . S
O180 C200 1.264 . S
O181 Tb136 2.387 1_554 S
O181 C192 1.264 . S
O182 Tb147 2.349 . S
O182 C192 1.243 . S
O183 Tb136 2.428 . S
O183 C200 1.256 . S
O184 Tb136 2.308 1_554 S
O184 C199 1.266 . S
O185 Tb147 2.393 . S
O185 C199 1.248 . S
O186 Tb147 2.465 . S
O186 C211 1.264 . S
O187 Tb147 2.387 . S
O187 C203 1.264 1_554 S
O188 Tb136 2.349 . S
O188 C203 1.243 . S
O189 Tb147 2.428 . S
O189 C211 1.256 . S
O190 Tb147 2.308 . S
O190 C210 1.266 . S
O191 Tb136 2.393 1_554 S
O191 C210 1.248 . S
C192 O181 1.264 . S
C192 O182 1.243 . S
C193 C196 1.399 . S
C193 C198 1.383 . S
C193 C200 1.496 . S
C194 C195 1.399 . S
C194 C198 1.389 . S
C195 C194 1.399 . S
C195 C197 1.380 . S
C195 H212 0.929 . S
C196 C193 1.399 . S
C196 C197 1.392 . S
C196 H213 0.929 . S
C197 C195 1.380 . S
C197 C196 1.392 . S
C197 H214 0.929 . S
C198 C193 1.383 . S
C198 C194 1.389 . S
C198 H215 0.931 . S
C199 O184 1.266 . S
C199 O185 1.248 . S
C200 Tb136 2.802 . S
C200 O180 1.264 . S
C200 O183 1.256 . S
C200 C193 1.496 . S
C201 C168 1.448 . S
C201 H178 0.930 . S
C201 C202 1.328 . S
C202 C173 1.427 . S
C202 H179 0.929 . S
C202 C201 1.328 . S
C203 O187 1.264 1_556 S
C203 O188 1.243 . S
C204 C207 1.399 . S
C204 C208 1.383 . S
C204 C211 1.496 . S
C205 C206 1.399 . S
C205 C208 1.389 . S
C206 C205 1.399 . S
C206 C209 1.380 . S
C206 H216 0.929 . S
C207 C204 1.399 . S
C207 C209 1.392 . S
C207 H217 0.929 . S
C208 C204 1.383 . S
C208 C205 1.389 . S
C208 H218 0.931 . S
C209 C206 1.380 . S
C209 C207 1.392 . S
C209 H219 0.929 . S
C210 O190 1.266 . S
C210 O191 1.248 . S
C211 Tb147 2.802 . S
C211 O186 1.264 . S
C211 O189 1.256 . S
C211 C204 1.496 . S
H212 C195 0.929 . S
H213 C196 0.929 . S
H214 C197 0.929 . S
H215 C198 0.931 . S
H216 C206 0.929 . S
H217 C207 0.929 . S
H218 C208 0.931 . S
H219 C209 0.929 . S
C220 C221 1.387 . S
C220 H224 0.950 . S
C220 C229 1.390 . S
C221 C220 1.387 . S
C221 C223 1.387 . S
H222 C229 0.950 . S
C223 C221 1.387 . S
C223 C225 1.390 . S
C223 H227 0.950 . S
H224 C220 0.950 . S
C225 C223 1.390 . S
C225 C226 1.387 . S
C225 H228 0.950 . S
C226 C225 1.387 . S
C226 C229 1.387 . S
H227 C223 0.950 . S
H228 C225 0.950 . S
C229 C220 1.390 . S
C229 H222 0.950 . S
C229 C226 1.387 . S
C230 C231 1.369 1_556 S
C230 H234 0.962 . S
C230 C239 1.396 . S
C231 C230 1.369 1_554 S
C231 C233 1.387 . S
H232 C239 0.950 . S
C233 C231 1.387 . S
C233 C235 1.390 . S
C233 H237 0.950 . S
H234 C230 0.962 . S
C235 C233 1.390 . S
C235 C236 1.387 . S
C235 H238 0.950 . S
C236 C235 1.387 . S
C236 C239 1.387 1_554 S
H237 C233 0.950 . S
H238 C235 0.950 . S
C239 C230 1.396 . S
C239 H232 0.950 . S
C239 C236 1.387 1_556 S
C240 C241 1.387 . S
C240 H244 0.950 . S
C240 C249 1.390 . S
C241 C240 1.387 . S
C241 C243 1.387 . S
H242 C249 0.950 . S
C243 C241 1.387 . S
C243 C245 1.390 . S
C243 H247 0.950 . S
H244 C240 0.950 . S
C245 C243 1.390 . S
C245 C246 1.387 . S
C245 H248 0.950 . S
C246 C245 1.387 . S
C246 C249 1.387 . S
H247 C243 0.950 . S
H248 C245 0.950 . S
C249 C240 1.390 . S
C249 H242 0.950 . S
C249 C246 1.387 . S
C250 C251 1.387 . S
C250 H254 0.950 . S
C250 C259 1.390 . S
C251 C250 1.387 . S
C251 C253 1.387 . S
H252 C259 0.950 . S
C253 C251 1.387 . S
C253 C255 1.390 . S
C253 H257 0.950 1_554 S
H254 C250 0.950 . S
C255 C253 1.390 . S
C255 C256 1.387 . S
C255 H258 0.950 1_554 S
C256 C255 1.387 . S
C256 C259 1.387 . S
H257 C253 0.950 1_556 S
H258 C255 0.950 1_556 S
C259 C250 1.390 . S
C259 H252 0.950 . S
C259 C256 1.387 . S
C260 C261 1.387 . S
C260 H264 0.950 . S
C260 C269 1.390 . S
C261 C260 1.387 . S
C261 C263 1.387 . S
H262 C269 0.950 . S
C263 C261 1.387 . S
C263 C265 1.390 . S
C263 H267 0.950 . S
H264 C260 0.950 . S
C265 C263 1.390 . S
C265 C266 1.387 . S
C265 H268 0.950 . S
C266 C265 1.387 . S
C266 C269 1.387 . S
H267 C263 0.950 . S
H268 C265 0.950 . S
C269 C260 1.390 . S
C269 H262 0.950 . S
C269 C266 1.387 . S
C270 C271 1.387 . S
C270 H274 0.950 . S
C270 C279 1.390 . S
C271 C270 1.387 . S
C271 C273 1.387 . S
H272 C279 0.950 . S
C273 C271 1.387 . S
C273 C275 1.390 . S
C273 H277 0.950 . S
H274 C270 0.950 . S
C275 C273 1.390 . S
C275 C276 1.387 . S
C275 H278 0.950 . S
C276 C275 1.387 . S
C276 C279 1.387 . S
H277 C273 0.950 . S
H278 C275 0.950 . S
C279 C270 1.390 . S
C279 H272 0.950 . S
C279 C276 1.387 . S
C280 C281 1.387 . S
C280 H284 0.950 . S
C280 C289 1.390 . S
C281 C280 1.387 . S
C281 C283 1.387 . S
H282 C289 0.950 . S
C283 C281 1.387 . S
C283 C285 1.390 . S
C283 H287 0.950 . S
H284 C280 0.950 . S
C285 C283 1.390 . S
C285 C286 1.387 . S
C285 H288 0.950 1_545 S
C286 C285 1.387 . S
C286 C289 1.387 . S
H287 C283 0.950 . S
H288 C285 0.950 1_565 S
C289 C280 1.390 . S
C289 H282 0.950 . S
C289 C286 1.387 . S
C290 C291 1.387 . S
C290 H294 0.950 . S
C290 C299 1.390 . S
C291 C290 1.387 . S
C291 C293 1.387 . S
H292 C299 0.950 . S
C293 C291 1.387 . S
C293 C295 1.390 . S
C293 H297 0.950 . S
H294 C290 0.950 . S
C295 C293 1.390 . S
C295 C296 1.387 . S
C295 H298 0.950 . S
C296 C295 1.387 . S
C296 C299 1.387 . S
H297 C293 0.950 . S
H298 C295 0.950 . S
C299 C290 1.390 . S
C299 H292 0.950 . S
C299 C296 1.387 . S
C300 C301 1.387 . S
C300 H304 0.950 . S
C300 C309 1.390 . S
C301 C300 1.387 . S
C301 C303 1.387 . S
H302 C309 0.950 . S
C303 C301 1.387 . S
C303 C305 1.390 . S
C303 H307 0.950 . S
H304 C300 0.950 . S
C305 C303 1.390 . S
C305 C306 1.387 . S
C305 H308 0.950 . S
C306 C305 1.387 . S
C306 C309 1.387 . S
H307 C303 0.950 . S
H308 C305 0.950 . S
C309 C300 1.390 . S
C309 H302 0.950 . S
C309 C306 1.387 . S
C310 C311 1.387 . S
C310 H314 0.950 . S
C310 C319 1.390 . S
C311 C310 1.387 . S
C311 C313 1.387 1_556 S
H312 C319 0.950 . S
C313 C311 1.387 1_554 S
C313 C315 1.390 1_554 S
C313 H317 0.950 . S
H314 C310 0.950 . S
C315 C313 1.390 1_556 S
C315 C316 1.387 . S
C315 H318 0.950 . S
C316 C315 1.387 . S
C316 C319 1.387 . S
H317 C313 0.950 . S
H318 C315 0.950 . S
C319 C310 1.390 . S
C319 H312 0.950 . S
C319 C316 1.387 . S
C320 C321 1.387 . S
C320 H324 0.950 . S
C320 C329 1.390 . S
C321 C320 1.387 . S
C321 C323 1.387 . S
H322 C329 0.950 . S
C323 C321 1.387 . S
C323 C325 1.390 . S
C323 H327 0.950 . S
H324 C320 0.950 . S
C325 C323 1.390 . S
C325 C326 1.387 . S
C325 H328 0.950 . S
C326 C325 1.387 . S
C326 C329 1.387 . S
H327 C323 0.950 . S
H328 C325 0.950 . S
C329 C320 1.390 . S
C329 H322 0.950 . S
C329 C326 1.387 . S
C330 C331 1.387 . S
C330 H334 0.950 . S
C330 C339 1.390 . S
C331 C330 1.387 . S
C331 C333 1.387 . S
H332 C339 0.950 . S
C333 C331 1.387 . S
C333 C335 1.390 . S
C333 H337 0.950 . S
H334 C330 0.950 . S
C335 C333 1.390 . S
C335 C336 1.387 . S
C335 H338 0.950 1_565 S
C336 C335 1.387 . S
C336 C339 1.387 . S
H337 C333 0.950 . S
H338 C335 0.950 1_545 S
C339 C330 1.390 . S
C339 H332 0.950 . S
C339 C336 1.387 . S
C226 C115 1.634 . S
C221 C43 1.536 . S
C231 C4 1.576 . S
C236 C210 1.628 . S
C241 C17 1.576 . S
C246 C126 1.634 . S
C251 C30 1.632 . S
C256 C199 1.628 . S
C266 C110 1.384 . S
C261 C9 1.559 . S
C276 C203 1.654 . S
C271 C21 1.646 . S
C281 C34 1.615 . S
C286 C119 1.629 . S
C291 C48 1.570 . S
C296 C194 1.396 . S
C306 C205 1.397 . S
C301 C22 1.571 . S
C316 C121 1.379 . S
C311 C35 1.560 1_556 S
C326 C192 1.654 . S
C321 C47 1.642 . S
C331 C8 1.609 . S
C336 C108 1.630 . S
