# Generated by pormake.
# Topology the, (3,8)-cn, num edge types: 1
# Building blocks:
#     Node 0, Type 0, BuildingBlock: BETDAH_clean_linker_0, # of connection points: 3
#     Node 1, Type 0, BuildingBlock: BETDAH_clean_linker_0, # of connection points: 3
#     Node 2, Type 0, BuildingBlock: BETDAH_clean_linker_0, # of connection points: 3
#     Node 3, Type 0, BuildingBlock: BETDAH_clean_linker_0, # of connection points: 3
#     Node 4, Type 0, BuildingBlock: BETDAH_clean_linker_0, # of connection points: 3
#     Node 5, Type 0, BuildingBlock: BETDAH_clean_linker_0, # of connection points: 3
#     Node 6, Type 0, BuildingBlock: BETDAH_clean_linker_0, # of connection points: 3
#     Node 7, Type 0, BuildingBlock: BETDAH_clean_linker_0, # of connection points: 3
#     Node 8, Type 1, BuildingBlock: GIZVER_clean_sbu_0, # of connection points: 8
#     Node 9, Type 1, BuildingBlock: GIZVER_clean_sbu_0, # of connection points: 8
#     Node 10, Type 1, BuildingBlock: GIZVER_clean_sbu_0, # of connection points: 8
#     Edge 11, Type (0, 1), BuildingBlock: CIFDUS_clean_linker_0, # of connection points: 2
#     Edge 12, Type (0, 1), BuildingBlock: CIFDUS_clean_linker_0, # of connection points: 2
#     Edge 13, Type (0, 1), BuildingBlock: CIFDUS_clean_linker_0, # of connection points: 2
#     Edge 14, Type (0, 1), BuildingBlock: CIFDUS_clean_linker_0, # of connection points: 2
#     Edge 15, Type (0, 1), BuildingBlock: CIFDUS_clean_linker_0, # of connection points: 2
#     Edge 16, Type (0, 1), BuildingBlock: CIFDUS_clean_linker_0, # of connection points: 2
#     Edge 17, Type (0, 1), BuildingBlock: CIFDUS_clean_linker_0, # of connection points: 2
#     Edge 18, Type (0, 1), BuildingBlock: CIFDUS_clean_linker_0, # of connection points: 2
#     Edge 19, Type (0, 1), BuildingBlock: CIFDUS_clean_linker_0, # of connection points: 2
#     Edge 20, Type (0, 1), BuildingBlock: CIFDUS_clean_linker_0, # of connection points: 2
#     Edge 21, Type (0, 1), BuildingBlock: CIFDUS_clean_linker_0, # of connection points: 2
#     Edge 22, Type (0, 1), BuildingBlock: CIFDUS_clean_linker_0, # of connection points: 2
#     Edge 23, Type (0, 1), BuildingBlock: CIFDUS_clean_linker_0, # of connection points: 2
#     Edge 24, Type (0, 1), BuildingBlock: CIFDUS_clean_linker_0, # of connection points: 2
#     Edge 25, Type (0, 1), BuildingBlock: CIFDUS_clean_linker_0, # of connection points: 2
#     Edge 26, Type (0, 1), BuildingBlock: CIFDUS_clean_linker_0, # of connection points: 2
#     Edge 27, Type (0, 1), BuildingBlock: CIFDUS_clean_linker_0, # of connection points: 2
#     Edge 28, Type (0, 1), BuildingBlock: CIFDUS_clean_linker_0, # of connection points: 2
#     Edge 29, Type (0, 1), BuildingBlock: CIFDUS_clean_linker_0, # of connection points: 2
#     Edge 30, Type (0, 1), BuildingBlock: CIFDUS_clean_linker_0, # of connection points: 2
#     Edge 31, Type (0, 1), BuildingBlock: CIFDUS_clean_linker_0, # of connection points: 2
#     Edge 32, Type (0, 1), BuildingBlock: CIFDUS_clean_linker_0, # of connection points: 2
#     Edge 33, Type (0, 1), BuildingBlock: CIFDUS_clean_linker_0, # of connection points: 2
#     Edge 34, Type (0, 1), BuildingBlock: CIFDUS_clean_linker_0, # of connection points: 2
# Relax obj value: 0.073
# Max RMSD: 0.198
# Mean RMSD: 0.127
data_MOF--net-the--node1-GIZVER_clean_sbu_0--node2-BETDAH_clean_linker_0--edge1-CIFDUS_clean_linker_0
_symmetry_space_group_name_H-M    P1
_symmetry_Int_Tables_number       1
_symmetry_cell_setting            triclinic
loop_
_symmetry_equiv_pos_as_xyz
'x, y, z'
_cell_length_a     36.003333
_cell_length_b     33.895744
_cell_length_c     31.84845
_cell_angle_alpha  86.999473
_cell_angle_beta   95.652606
_cell_angle_gamma 110.98712
loop_
_atom_site_label
_atom_site_type_symbol
_atom_site_fract_x
_atom_site_fract_y
_atom_site_fract_z
_atom_type_partial_charge
H0 H 0.42245 0.30353 0.3557 0.0
H1 H 0.40266 0.31074 0.48539 0.0
H2 H 0.36064 0.38334 0.39031 0.0
C3 C 0.41031 0.31606 0.37946 0.0
C4 C 0.39082 0.34479 0.36769 0.0
C5 C 0.41441 0.30348 0.42175 0.0
C6 C 0.39932 0.32007 0.45255 0.0
C7 C 0.37971 0.34845 0.44157 0.0
C8 C 0.37543 0.36097 0.399 0.0
N9 N 0.36551 0.3642 0.4745 0.0
C10 C 0.33425 0.37927 0.46907 0.0
H11 H 0.76918 0.27173 0.38104 0.0
H12 H 0.81067 0.36366 0.28164 0.0
H13 H 0.68996 0.27677 0.27162 0.0
C14 C 0.7638 0.28535 0.35057 0.0
C15 C 0.72565 0.26939 0.32837 0.0
C16 C 0.7949 0.31939 0.33411 0.0
C17 C 0.78748 0.337 0.29467 0.0
C18 C 0.74965 0.3225 0.2727 0.0
C19 C 0.71883 0.28866 0.28946 0.0
N20 N 0.74394 0.34245 0.23353 0.0
C21 C 0.70814 0.34671 0.21758 0.0
H22 H 0.77509 0.63428 0.29253 0.0
H23 H 0.82949 0.7407 0.3745 0.0
H24 H 0.73071 0.73679 0.28632 0.0
C25 C 0.77742 0.66492 0.30315 0.0
C26 C 0.75092 0.68387 0.2836 0.0
C27 C 0.80637 0.6847 0.33608 0.0
C28 C 0.80689 0.72349 0.35051 0.0
C29 C 0.77851 0.7411 0.33428 0.0
C30 C 0.75074 0.72151 0.30055 0.0
N31 N 0.78157 0.78077 0.34995 0.0
C32 C 0.74961 0.79208 0.35896 0.0
H33 H 0.30032 0.74286 0.39964 0.0
H34 H 0.37113 0.77727 0.29303 0.0
H35 H 0.26259 0.67015 0.28587 0.0
C36 C 0.30454 0.73772 0.36747 0.0
C37 C 0.27649 0.70316 0.34528 0.0
C38 C 0.33869 0.76516 0.34907 0.0
C39 C 0.34544 0.75649 0.30828 0.0
C40 C 0.31856 0.72149 0.28631 0.0
C41 C 0.28392 0.69564 0.30437 0.0
N42 N 0.32452 0.71437 0.24446 0.0
C43 C 0.3457 0.68901 0.23561 0.0
H44 H 0.35759 0.73799 0.65901 0.0
H45 H 0.30048 0.65335 0.75803 0.0
H46 H 0.41343 0.75213 0.78635 0.0
C47 C 0.35739 0.72802 0.69191 0.0
C48 C 0.38927 0.75014 0.72102 0.0
C49 C 0.3253 0.6929 0.7048 0.0
C50 C 0.32505 0.68025 0.7475 0.0
C51 C 0.35722 0.70077 0.77656 0.0
C52 C 0.38933 0.73559 0.76333 0.0
N53 N 0.35548 0.68759 0.81953 0.0
C54 C 0.38323 0.67233 0.84111 0.0
H55 H 0.45111 0.28288 0.75609 0.0
H56 H 0.35098 0.32229 0.7664 0.0
H57 H 0.33777 0.21922 0.6867 0.0
C58 C 0.42022 0.27928 0.74739 0.0
C59 C 0.39654 0.24731 0.71912 0.0
C60 C 0.4037 0.30587 0.76546 0.0
C61 C 0.3638 0.30165 0.75335 0.0
C62 C 0.34032 0.27055 0.72466 0.0
C63 C 0.35646 0.24311 0.70869 0.0
N64 N 0.2997 0.26466 0.71272 0.0
C65 C 0.28616 0.29718 0.699 0.0
H66 H 0.80277 0.31295 0.66319 0.0
H67 H 0.81978 0.37466 0.7824 0.0
H68 H 0.71755 0.26252 0.75542 0.0
C69 C 0.79329 0.31445 0.69414 0.0
C70 C 0.75752 0.2839 0.70591 0.0
C71 C 0.81657 0.34706 0.72161 0.0
C72 C 0.80249 0.34981 0.76074 0.0
C73 C 0.76681 0.31923 0.77285 0.0
C74 C 0.74513 0.28585 0.7459 0.0
N75 N 0.75289 0.32034 0.81271 0.0
C76 C 0.74804 0.35586 0.82769 0.0
H77 H 0.8216 0.64758 0.73699 0.0
H78 H 0.80502 0.6809 0.60601 0.0
H79 H 0.72472 0.6899 0.69254 0.0
C80 C 0.8058 0.65971 0.71188 0.0
C81 C 0.77167 0.6682 0.71988 0.0
C82 C 0.81775 0.6639 0.6707 0.0
C83 C 0.7961 0.67761 0.63794 0.0
C84 C 0.76342 0.68794 0.6458 0.0
C85 C 0.75105 0.68325 0.68677 0.0
N86 N 0.74247 0.70107 0.61136 0.0
C87 C 0.72885 0.73413 0.61393 0.0
Co88 Co 0.12508 0.46087 0.55701 0.0
Co89 Co 0.08413 0.44129 0.48302 0.0
Co90 Co 0.05322 0.50339 0.5267 0.0
O91 O 0.07153 0.45429 0.53493 0.0
H92 H 0.05176 0.42981 0.54674 0.0
O93 O 0.03519 0.55291 0.51911 0.0
Co94 Co 0.98183 0.54643 0.4973 0.0
Co95 Co 0.02192 0.56451 0.57124 0.0
H96 H 0.05509 0.57755 0.50769 0.0
O97 O 0.09442 0.39208 0.47242 0.0
O98 O 0.13773 0.4524 0.50007 0.0
O99 O 0.08404 0.48077 0.43734 0.0
O100 O 0.09136 0.53169 0.48196 0.0
O101 O 1.01082 0.47035 0.48265 0.0
O102 O 0.93428 0.54552 0.47467 0.0
O103 O 0.99155 0.60174 0.48321 0.0
O104 O 0.96418 0.48771 0.50831 0.0
O105 O 0.01525 0.4748 0.57127 0.0
O106 O 0.02088 0.52442 0.61666 0.0
O107 O 0.96858 0.55473 0.55414 0.0
O108 O 0.0133 0.61346 0.58407 0.0
C109 C 0.15243 0.42071 0.58433 0.0
C110 C 0.13205 0.54294 0.56938 0.0
C111 C 0.09672 0.51964 0.44631 0.0
C112 C 0.1308 0.4157 0.48428 0.0
C113 C 0.95388 0.58567 0.4694 0.0
C114 C 0.97404 0.46328 0.48662 0.0
C115 C 1.00904 0.48585 0.60694 0.0
C116 C 0.97658 0.59039 0.57273 0.0
O117 O 0.1728 0.4608 0.57921 0.0
O118 O 0.1146 0.40597 0.57095 0.0
O119 O 0.09497 0.53586 0.57099 0.0
O120 O 0.14311 0.52008 0.54676 0.0
Co121 Co 0.5975 0.9407 0.49475 0.0
Co122 Co 0.61467 0.9635 0.57394 0.0
Co123 Co 0.56031 0.01346 0.52959 0.0
O124 O 0.60419 0.99106 0.52414 0.0
H125 H 0.62851 0.01358 0.51756 0.0
O126 O 0.51769 0.03766 0.53668 0.0
Co127 Co 0.53297 0.09402 0.55996 0.0
Co128 Co 0.50582 0.06134 0.48569 0.0
H129 H 0.494 0.01738 0.54758 0.0
O130 O 0.66113 0.95071 0.58746 0.0
O131 O 0.60557 0.91246 0.54871 0.0
O132 O 0.57626 0.95077 0.615 0.0
O133 O 0.53191 0.96844 0.57202 0.0
O134 O 0.5956 0.05101 0.57538 0.0
O135 O 0.5436 0.14402 0.58243 0.0
O136 O 0.48517 0.08944 0.57975 0.0
O137 O 0.58519 0.1064 0.54525 0.0
O138 O 0.58811 0.05752 0.48605 0.0
O139 O 0.54102 0.06878 0.44173 0.0
O140 O 0.51706 0.1155 0.5046 0.0
O141 O 0.45824 0.07073 0.4755 0.0
C142 C 0.63472 0.91759 0.46614 0.0
C143 C 0.51943 0.93705 0.47976 0.0
C144 C 0.54082 0.94924 0.60501 0.0
C145 C 0.63982 0.91588 0.56844 0.0
C146 C 0.50672 0.128 0.59159 0.0
C147 C 0.60581 0.09108 0.57121 0.0
C148 C 0.57724 0.07299 0.4515 0.0
C149 C 0.48033 0.10792 0.48927 0.0
O150 O 0.59668 0.89589 0.46631 0.0
O151 O 0.64931 0.95407 0.4848 0.0
O152 O 0.52493 0.97621 0.48312 0.0
O153 O 0.54234 0.9207 0.50065 0.0
Co154 Co 0.49529 0.53439 0.10847 0.0
Co155 Co 0.48317 0.45656 0.09746 0.0
Co156 Co 0.54597 0.51512 0.03017 0.0
O157 O 0.49606 0.5028 0.0603 0.0
H158 H 0.47338 0.5001 0.04021 0.0
O159 O 0.59542 0.52652 1.00018 0.0
Co160 Co 0.59218 0.50528 0.94483 0.0
Co161 Co 0.61424 0.58095 0.97665 0.0
H162 H 0.61661 0.52199 1.01852 0.0
O163 O 0.43154 0.42668 0.11329 0.0
O164 O 0.47818 0.48309 0.14478 0.0
O165 O 0.52417 0.43265 0.11013 0.0
O166 O 0.56693 0.47553 0.06687 0.0
O167 O 0.51405 0.46715 0.9907 0.0
O168 O 0.59385 0.48508 0.89496 0.0
O169 O 0.6421 0.50328 0.94847 0.0
O170 O 0.53933 0.50309 0.93457 0.0
O171 O 0.52565 0.55512 0.9928 0.0
O172 O 0.57834 0.61154 0.97696 0.0
O173 O 0.61024 0.56321 0.92157 0.0
O174 O 0.6655 0.60693 0.95609 0.0
C175 C 0.45512 0.55716 0.13079 0.0
C176 C 0.57755 0.56391 0.10885 0.0
C177 C 0.55785 0.44584 0.09489 0.0
C178 C 0.44426 0.45188 0.14514 0.0
C179 C 0.62913 0.48722 0.91111 0.0
C180 C 0.51344 0.47127 0.95046 0.0
C181 C 0.54091 0.59311 0.97844 0.0
C182 C 0.64698 0.58858 0.9214 0.0
O183 O 0.4903 0.56441 0.15038 0.0
O184 O 0.44463 0.53362 0.09731 0.0
O185 O 0.57889 0.56335 0.06893 0.0
O186 O 0.5476 0.53945 0.12646 0.0
H187 H 0.25706 0.33043 0.46008 0.0
H188 H 0.33756 0.45849 0.47976 0.0
H189 H 0.28104 0.48121 0.48677 0.0
H190 H 0.20921 0.46407 0.48893 0.0
H191 H 0.12805 0.33603 0.46862 0.0
H192 H 0.18437 0.31358 0.4604 0.0
C193 C 0.26192 0.36334 0.46538 0.0
C194 C 0.30089 0.39304 0.46905 0.0
C195 C 0.22935 0.37593 0.46962 0.0
C196 C 0.30747 0.43544 0.47644 0.0
C197 C 0.27529 0.44829 0.48066 0.0
C198 C 0.20379 0.43122 0.48274 0.0
C199 C 0.16454 0.40172 0.47944 0.0
C200 C 0.23616 0.41872 0.47765 0.0
C201 C 0.15801 0.35935 0.47116 0.0
C202 C 0.19017 0.34651 0.46648 0.0
H203 H 0.73077 0.19926 0.37199 0.0
H204 H 0.64617 0.25836 0.32539 0.0
H205 H 0.59253 0.20059 0.35529 0.0
H206 H 0.56999 0.13555 0.39808 0.0
H207 H 0.65493 0.07888 0.44958 0.0
H208 H 0.70799 0.13355 0.41459 0.0
C209 C 0.70069 0.19977 0.3686 0.0
C210 C 0.6928 0.23339 0.34626 0.0
C211 C 0.66992 0.16679 0.38677 0.0
C212 C 0.6533 0.2328 0.3417 0.0
C213 C 0.62252 0.19982 0.35908 0.0
C214 C 0.59995 0.13465 0.40112 0.0
C215 C 0.60834 0.10288 0.42622 0.0
C216 C 0.63051 0.16684 0.38194 0.0
C217 C 0.64758 0.10283 0.43036 0.0
C218 C 0.67797 0.1342 0.41048 0.0
H219 H 0.8465 0.69403 0.41611 0.0
H220 H 0.83562 0.63164 0.29787 0.0
H221 H 0.87924 0.59573 0.32876 0.0
H222 H 0.91949 0.57992 0.38988 0.0
H223 H 0.9394 0.65014 0.50387 0.0
H224 H 0.89449 0.6862 0.47354 0.0
C225 C 0.85409 0.67345 0.3964 0.0
C226 C 0.83613 0.66515 0.35463 0.0
C227 C 0.8813 0.65435 0.41361 0.0
C228 C 0.84685 0.63767 0.33056 0.0
C229 C 0.87255 0.61738 0.34801 0.0
C230 C 0.91443 0.60368 0.4077 0.0
C231 C 0.93238 0.61231 0.44901 0.0
C232 C 0.8896 0.6251 0.38958 0.0
C233 C 0.92586 0.64311 0.47195 0.0
C234 C 0.90006 0.66354 0.45465 0.0
H235 H 0.42005 0.79711 0.35042 0.0
H236 H 0.32179 0.81752 0.40136 0.0
H237 H 0.36862 0.87513 0.44393 0.0
H238 H 0.43834 0.91731 0.47025 0.0
H239 H 0.53539 0.89667 0.41747 0.0
H240 H 0.48842 0.84276 0.37136 0.0
C241 C 0.40868 0.81458 0.37013 0.0
C242 C 0.36729 0.80239 0.37282 0.0
C243 C 0.43575 0.84797 0.39429 0.0
C244 C 0.35347 0.82535 0.39923 0.0
C245 C 0.38026 0.85864 0.42342 0.0
C246 C 0.44898 0.90155 0.44795 0.0
C247 C 0.4902 0.91064 0.44738 0.0
C248 C 0.42156 0.86991 0.42172 0.0
C249 C 0.50377 0.88975 0.41878 0.0
C250 C 0.47691 0.8589 0.3924 0.0
H251 H 0.2446 0.66648 0.70925 0.0
H252 H 0.33397 0.66351 0.62995 0.0
H253 H 0.28198 0.61873 0.58002 0.0
H254 H 0.21158 0.57738 0.56076 0.0
H255 H 0.12147 0.5811 0.63872 0.0
H256 H 0.17318 0.62882 0.68708 0.0
C257 C 0.25257 0.65609 0.68094 0.0
C258 C 0.29309 0.66813 0.67339 0.0
C259 C 0.22243 0.63046 0.65218 0.0
C260 C 0.30302 0.65491 0.63634 0.0
C261 C 0.27332 0.62914 0.60788 0.0
C262 C 0.20317 0.58883 0.58819 0.0
C263 C 0.1627 0.57534 0.59629 0.0
C264 C 0.23299 0.6163 0.61573 0.0
C265 C 0.15235 0.59095 0.6317 0.0
C266 C 0.18195 0.61809 0.65949 0.0
H267 H 0.46778 0.26798 0.68434 0.0
H268 H 0.36177 0.16171 0.70862 0.0
H269 H 0.38514 0.11547 0.67063 0.0
H270 H 0.43562 0.10508 0.62902 0.0
H271 H 0.54164 0.21214 0.60577 0.0
H272 H 0.51841 0.2575 0.64437 0.0
C273 C 0.45005 0.2346 0.68186 0.0
C274 C 0.413 0.21857 0.69935 0.0
C275 C 0.46356 0.20807 0.65965 0.0
C276 C 0.39024 0.17518 0.69518 0.0
C277 C 0.4036 0.1486 0.67341 0.0
C278 C 0.45354 0.13833 0.63232 0.0
C279 C 0.49043 0.15484 0.61438 0.0
C280 C 0.4401 0.1647 0.65509 0.0
C281 C 0.51322 0.19816 0.61923 0.0
C282 C 0.49999 0.22437 0.64143 0.0
H283 H 0.87267 0.33143 0.68057 0.0
H284 H 0.84735 0.43273 0.73368 0.0
H285 H 0.90794 0.4841 0.70759 0.0
H286 H 0.96443 0.50081 0.66408 0.0
H287 H 0.98672 0.39991 0.60634 0.0
H288 H 0.93089 0.34784 0.6398 0.0
C289 C 0.88027 0.36476 0.68636 0.0
C290 C 0.85512 0.37813 0.70872 0.0
C291 C 0.91461 0.39423 0.67036 0.0
C292 C 0.86614 0.4214 0.71683 0.0
C293 C 0.9007 0.45087 0.70167 0.0
C294 C 0.95767 0.46739 0.6595 0.0
C295 C 0.97986 0.45429 0.63278 0.0
C296 C 0.92474 0.43771 0.67773 0.0
C297 C 0.9702 0.41085 0.62676 0.0
C298 C 0.93815 0.38108 0.64572 0.0
H299 H 0.66773 0.74275 0.56539 0.0
H300 H 0.76391 0.80582 0.65757 0.0
H301 H 0.74585 0.86935 0.65052 0.0
H302 H 0.70262 0.90656 0.61754 0.0
H303 H 0.60508 0.84164 0.52679 0.0
H304 H 0.62411 0.77952 0.53318 0.0
C305 C 0.68436 0.77042 0.58409 0.0
C306 C 0.71665 0.77011 0.61216 0.0
C307 C 0.67389 0.80652 0.57968 0.0
C308 C 0.7386 0.80577 0.63608 0.0
C309 C 0.72842 0.84197 0.63187 0.0
C310 C 0.68567 0.87891 0.59902 0.0
C311 C 0.65275 0.87902 0.5714 0.0
C312 C 0.69618 0.84274 0.60361 0.0
C313 C 0.63084 0.84272 0.54795 0.0
C314 C 0.64151 0.80698 0.55175 0.0
H315 H 0.38302 0.22988 0.46433 0.0
H316 H 0.48872 0.30755 0.406 0.0
H317 H 0.52036 0.25533 0.42579 0.0
H318 H 0.51651 0.18602 0.4571 0.0
H319 H 0.40826 0.10571 0.50928 0.0
H320 H 0.37907 0.16071 0.49534 0.0
C321 C 0.41309 0.23535 0.45628 0.0
C322 C 0.43369 0.27228 0.43391 0.0
C323 C 0.43053 0.20484 0.46684 0.0
C324 C 0.47238 0.27908 0.42306 0.0
C325 C 0.49044 0.24938 0.43448 0.0
C326 C 0.48675 0.18099 0.46583 0.0
C327 C 0.46445 0.14231 0.4843 0.0
C328 C 0.46966 0.21199 0.45608 0.0
C329 C 0.42572 0.13545 0.49495 0.0
C330 C 0.40909 0.16676 0.48692 0.0
H331 H 0.8083 0.33496 0.41831 0.0
H332 H 0.87 0.34871 0.30595 0.0
H333 H 0.93284 0.39036 0.34469 0.0
H334 H 0.96882 0.4297 0.40888 0.0
H335 H 0.90553 0.41643 0.51995 0.0
H336 H 0.84539 0.36688 0.48386 0.0
C337 C 0.83561 0.34605 0.40246 0.0
C338 C 0.83416 0.33899 0.35909 0.0
C339 C 0.87158 0.3703 0.42481 0.0
C340 C 0.86998 0.35429 0.33913 0.0
C341 C 0.90604 0.37802 0.36131 0.0
C342 C 0.94214 0.41502 0.42538 0.0
C343 C 0.94153 0.42686 0.4669 0.0
C344 C 0.90704 0.38726 0.40393 0.0
C345 C 0.90662 0.40802 0.48784 0.0
C346 C 0.87214 0.37978 0.46719 0.0
H347 H 0.76985 0.86673 0.39569 0.0
H348 H 0.66882 0.75647 0.3577 0.0
H349 H 0.62389 0.78576 0.38746 0.0
H350 H 0.61384 0.84255 0.42536 0.0
H351 H 0.71569 0.95265 0.46347 0.0
H352 H 0.75975 0.92371 0.43275 0.0
C353 C 0.73791 0.84935 0.39374 0.0
C354 C 0.72241 0.80975 0.37441 0.0
C355 C 0.71251 0.86634 0.41109 0.0
C356 C 0.68119 0.78717 0.37225 0.0
C357 C 0.65562 0.80389 0.38936 0.0
C358 C 0.64565 0.86033 0.42684 0.0
C359 C 0.66129 0.89993 0.44668 0.0
C360 C 0.67097 0.84342 0.40902 0.0
C361 C 0.70268 0.92227 0.44836 0.0
C362 C 0.72798 0.9057 0.43078 0.0
H363 H 0.23664 0.61816 0.33427 0.0
H364 H 0.23273 0.72434 0.4008 0.0
H365 H 0.17603 0.67763 0.43658 0.0
H366 H 0.12902 0.60589 0.45138 0.0
H367 H 0.13026 0.50139 0.38017 0.0
H368 H 0.18524 0.54871 0.3427 0.0
C369 C 0.22305 0.63158 0.35579 0.0
C370 C 0.23983 0.67496 0.36502 0.0
C371 C 0.18951 0.6048 0.37537 0.0
C372 C 0.22164 0.69102 0.39377 0.0
C373 C 0.18876 0.66435 0.41402 0.0
C374 C 0.1409 0.59357 0.42721 0.0
C375 C 0.12551 0.54997 0.419 0.0
C376 C 0.17272 0.62106 0.40547 0.0
C377 C 0.14128 0.53471 0.38734 0.0
C378 C 0.17303 0.56174 0.36596 0.0
H379 H 0.38328 0.81432 0.66866 0.0
H380 H 0.46964 0.77171 0.7418 0.0
H381 H 0.52397 0.83202 0.71573 0.0
H382 H 0.54703 0.89385 0.66841 0.0
H383 H 0.46066 0.93523 0.59334 0.0
H384 H 0.4064 0.87853 0.62409 0.0
C385 C 0.414 0.81815 0.67882 0.0
C386 C 0.4223 0.78821 0.7069 0.0
C387 C 0.44514 0.85272 0.66337 0.0
C388 C 0.4623 0.79427 0.72043 0.0
C389 C 0.49342 0.82869 0.70535 0.0
C390 C 0.51639 0.89098 0.65912 0.0
C391 C 0.50814 0.9189 0.62833 0.0
C392 C 0.48521 0.85778 0.67637 0.0
C393 C 0.46809 0.91434 0.61684 0.0
C394 C 0.43694 0.88174 0.63429 0.0
H395 H 0.21174 0.27594 0.66308 0.0
H396 H 0.31914 0.38252 0.69285 0.0
H397 H 0.28732 0.43068 0.65907 0.0
H398 H 0.22867 0.442 0.62114 0.0
H399 H 0.12118 0.33467 0.59178 0.0
H400 H 0.15326 0.28722 0.62509 0.0
C401 C 0.22797 0.30978 0.66224 0.0
C402 C 0.26743 0.32601 0.68046 0.0
C403 C 0.20949 0.33699 0.64275 0.0
C404 C 0.28857 0.36965 0.67913 0.0
C405 C 0.27041 0.39703 0.65977 0.0
C406 C 0.21223 0.40823 0.62199 0.0
C407 C 0.17241 0.39201 0.6041 0.0
C408 C 0.23085 0.38104 0.64145 0.0
C409 C 0.1517 0.34812 0.60547 0.0
C410 C 0.17004 0.3209 0.62451 0.0
H411 H 0.72445 0.19832 0.71803 0.0
H412 H 0.73319 0.29778 0.62508 0.0
H413 H 0.68878 0.24648 0.57464 0.0
H414 H 0.64527 0.17423 0.55791 0.0
H415 H 0.63686 0.07348 0.64921 0.0
H416 H 0.68368 0.12424 0.6992 0.0
C417 C 0.71661 0.20858 0.68667 0.0
C418 C 0.73194 0.25176 0.67528 0.0
C419 C 0.69123 0.17874 0.65759 0.0
C420 C 0.72197 0.2647 0.63444 0.0
C421 C 0.69648 0.23542 0.60566 0.0
C422 C 0.65385 0.16327 0.58867 0.0
C423 C 0.63736 0.12023 0.59999 0.0
C424 C 0.68067 0.19249 0.61702 0.0
C425 C 0.64918 0.10646 0.63972 0.0
C426 C 0.67576 0.13551 0.66838 0.0
H427 H 0.81637 0.61054 0.61073 0.0
H428 H 0.8943 0.69148 0.7075 0.0
H429 H 0.95143 0.67747 0.68437 0.0
H430 H 0.97896 0.64348 0.63499 0.0
H431 H 0.89918 0.56033 0.54042 0.0
H432 H 0.84304 0.57483 0.56359 0.0
C433 C 0.84591 0.625 0.62677 0.0
C434 C 0.85145 0.65216 0.66046 0.0
C435 C 0.87823 0.61698 0.61323 0.0
C436 C 0.88954 0.67028 0.68158 0.0
C437 C 0.92212 0.66257 0.66812 0.0
C438 C 0.94934 0.6289 0.61923 0.0
C439 C 0.94337 0.60147 0.58553 0.0
C440 C 0.91685 0.63635 0.63361 0.0
C441 C 0.90469 0.58196 0.56607 0.0
C442 C 0.87249 0.59003 0.57944 0.0
H443 H 0.41209 0.42526 0.33642 0.0
H444 H 0.36497 0.29517 0.29847 0.0
H445 H 0.3714 0.3174 0.22444 0.0
H446 H 0.39872 0.37332 0.17176 0.0
H447 H 0.45019 0.5032 0.21045 0.0
H448 H 0.43293 0.4818 0.28245 0.0
C449 C 0.40236 0.4019 0.3118 0.0
C450 C 0.38839 0.35867 0.32283 0.0
C451 C 0.40717 0.41492 0.26936 0.0
C452 C 0.37623 0.32864 0.29069 0.0
C453 C 0.3799 0.34134 0.24839 0.0
C454 C 0.40521 0.39705 0.19568 0.0
C455 C 0.42592 0.43978 0.18574 0.0
C456 C 0.39655 0.38433 0.23746 0.0
C457 C 0.43445 0.47007 0.21727 0.0
C458 C 0.42476 0.45783 0.25856 0.0
H459 H 0.4566 0.71007 0.88054 0.0
H460 H 0.36352 0.58931 0.85718 0.0
H461 H 0.40277 0.55381 0.90051 0.0
H462 H 0.46438 0.55705 0.9437 0.0
H463 H 0.55852 0.67782 0.96532 0.0
H464 H 0.5181 0.71337 0.92471 0.0
C465 C 0.44516 0.676 0.88498 0.0
C466 C 0.40757 0.6521 0.86572 0.0
C467 C 0.46796 0.65587 0.90991 0.0
C468 C 0.39264 0.6081 0.87166 0.0
C469 C 0.41498 0.58787 0.89652 0.0
C470 C 0.47581 0.5912 0.94005 0.0
C471 C 0.5144 0.6147 0.95773 0.0
C472 C 0.45273 0.61141 0.91578 0.0
C473 C 0.52895 0.65892 0.95208 0.0
C474 C 0.50589 0.67931 0.92871 0.0
H475 H 0.39282 0.31241 0.84837 0.0
H476 H 0.46939 0.37395 0.75045 0.0
H477 H 0.50832 0.43123 0.7983 0.0
H478 H 0.5199 0.46421 0.867 0.0
H479 H 0.44848 0.40046 0.96831 0.0
H480 H 0.4077 0.34398 0.92 0.0
C481 C 0.41817 0.33835 0.83775 0.0
C482 C 0.42826 0.33909 0.79588 0.0
C483 C 0.44104 0.37081 0.8659 0.0
C484 C 0.46124 0.37265 0.78248 0.0
C485 C 0.48335 0.40545 0.8098 0.0
C486 C 0.49573 0.43787 0.87896 0.0
C487 C 0.48756 0.43678 0.9216 0.0
C488 C 0.47346 0.40492 0.85148 0.0
C489 C 0.45562 0.40231 0.93584 0.0
C490 C 0.43232 0.36993 0.90817 0.0
H491 H 0.69557 0.3897 0.79231 0.0
H492 H 0.77419 0.39173 0.90377 0.0
H493 H 0.74704 0.43702 0.9388 0.0
H494 H 0.69592 0.46984 0.93992 0.0
H495 H 0.61595 0.46538 0.82849 0.0
H496 H 0.64877 0.42789 0.79117 0.0
C497 C 0.70722 0.4009 0.82394 0.0
C498 C 0.73681 0.38787 0.84556 0.0
C499 C 0.69091 0.42618 0.844 0.0
C500 C 0.75155 0.40186 0.88661 0.0
C501 C 0.73587 0.42751 0.90665 0.0
C502 C 0.68613 0.46129 0.90726 0.0
C503 C 0.65319 0.47003 0.88727 0.0
C504 C 0.70481 0.43901 0.88603 0.0
C505 C 0.64091 0.45868 0.84489 0.0
C506 C 0.65966 0.43717 0.82344 0.0
H507 H 0.69676 0.61883 0.73479 0.0
H508 H 0.81016 0.6924 0.79802 0.0
H509 H 0.78204 0.67373 0.86662 0.0
H510 H 0.72435 0.6372 0.90826 0.0
H511 H 0.61193 0.56187 0.8434 0.0
H512 H 0.6406 0.58024 0.77598 0.0
C513 C 0.71519 0.631 0.76363 0.0
C514 C 0.75519 0.65742 0.76152 0.0
C515 C 0.69904 0.61964 0.80266 0.0
C516 C 0.77916 0.67218 0.79904 0.0
C517 C 0.76309 0.66151 0.83815 0.0
C518 C 0.7062 0.62475 0.87937 0.0
C519 C 0.66594 0.59844 0.88102 0.0
C520 C 0.72296 0.63534 0.84035 0.0
C521 C 0.64295 0.58227 0.84326 0.0
C522 C 0.65926 0.59283 0.80453 0.0
H523 H 0.674 0.67943 0.25961 0.0
H524 H 0.76912 0.6451 0.21908 0.0
H525 H 0.72568 0.60843 0.15889 0.0
H526 H 0.65845 0.5811 0.12004 0.0
H527 H 0.56449 0.61703 0.16043 0.0
H528 H 0.6097 0.65879 0.21696 0.0
C529 C 0.68557 0.6646 0.23733 0.0
C530 C 0.72473 0.66447 0.24483 0.0
C531 C 0.66049 0.6438 0.20222 0.0
C532 C 0.73879 0.64475 0.21523 0.0
C533 C 0.71403 0.62399 0.18036 0.0
C534 C 0.64834 0.59904 0.14055 0.0
C535 C 0.60817 0.59595 0.13604 0.0
C536 C 0.67453 0.62261 0.17383 0.0
C537 C 0.59524 0.61877 0.16335 0.0
C538 C 0.62106 0.64257 0.19587 0.0
H539 H 0.32793 0.63742 0.16932 0.0
H540 H 0.41411 0.68573 0.27515 0.0
H541 H 0.45494 0.64736 0.25302 0.0
H542 H 0.46733 0.60265 0.20201 0.0
H543 H 0.38162 0.55455 0.09534 0.0
H544 H 0.33921 0.58988 0.11943 0.0
C545 C 0.35553 0.63913 0.18757 0.0
C546 C 0.36824 0.66414 0.22374 0.0
C547 C 0.37887 0.61716 0.17443 0.0
C548 C 0.40393 0.66649 0.24725 0.0
C549 C 0.42722 0.64465 0.23454 0.0
C550 C 0.43929 0.59965 0.18403 0.0
C551 C 0.42787 0.5761 0.14669 0.0
C552 C 0.4152 0.62026 0.19794 0.0
C553 C 0.39126 0.57247 0.1241 0.0
C554 C 0.367 0.59277 0.13783 0.0
H555 H 0.70881 0.39474 0.14858 0.0
H556 H 0.63386 0.32353 0.24403 0.0
H557 H 0.57939 0.3465 0.21324 0.0
H558 H 0.55449 0.38944 0.16071 0.0
H559 H 0.63094 0.46156 0.0661 0.0
H560 H 0.68325 0.43556 0.09483 0.0
C561 C 0.68033 0.38403 0.16228 0.0
C562 C 0.67493 0.3575 0.1982 0.0
C563 C 0.64956 0.39769 0.14465 0.0
C564 C 0.63831 0.34387 0.21614 0.0
C565 C 0.60733 0.35709 0.19861 0.0
C566 C 0.58245 0.39926 0.14613 0.0
C567 C 0.5886 0.42765 0.11126 0.0
C568 C 0.61276 0.38438 0.16307 0.0
C569 C 0.62521 0.43997 0.09299 0.0
C570 C 0.65527 0.4251 0.10942 0.0
loop_
_geom_bond_atom_site_label_1
_geom_bond_atom_site_label_2
_geom_bond_distance
_geom_bond_site_symmetry_2
_ccdc_geom_bond_type
H0 C3 0.929 . S
H1 C6 0.929 . S
H2 C8 0.930 . S
C3 H0 0.929 . S
C3 C4 1.398 . S
C3 C5 1.396 . S
C4 C3 1.398 . S
C4 C8 1.407 . S
C5 C3 1.396 . S
C5 C6 1.394 . S
C6 H1 0.929 . S
C6 C5 1.394 . S
C6 C7 1.382 . S
C7 C6 1.382 . S
C7 C8 1.392 . S
C7 N9 1.420 . S
C8 H2 0.930 . S
C8 C4 1.407 . S
C8 C7 1.392 . S
N9 C7 1.420 . S
N9 C10 1.244 . S
C10 N9 1.244 . S
H11 C14 0.929 . S
H12 C17 0.929 . S
H13 C19 0.930 . S
C14 H11 0.929 . S
C14 C15 1.398 . S
C14 C16 1.396 . S
C15 C14 1.398 . S
C15 C19 1.407 . S
C16 C14 1.396 . S
C16 C17 1.394 . S
C17 H12 0.929 . S
C17 C16 1.394 . S
C17 C18 1.382 . S
C18 C17 1.382 . S
C18 C19 1.392 . S
C18 N20 1.420 . S
C19 H13 0.930 . S
C19 C15 1.407 . S
C19 C18 1.392 . S
N20 C18 1.420 . S
N20 C21 1.244 . S
C21 N20 1.244 . S
H22 C25 0.929 . S
H23 C28 0.929 . S
H24 C30 0.930 . S
C25 H22 0.929 . S
C25 C26 1.398 . S
C25 C27 1.396 . S
C26 C25 1.398 . S
C26 C30 1.407 . S
C27 C25 1.396 . S
C27 C28 1.394 . S
C28 H23 0.929 . S
C28 C27 1.394 . S
C28 C29 1.382 . S
C29 C28 1.382 . S
C29 C30 1.392 . S
C29 N31 1.420 . S
C30 H24 0.930 . S
C30 C26 1.407 . S
C30 C29 1.392 . S
N31 C29 1.420 . S
N31 C32 1.244 . S
C32 N31 1.244 . S
H33 C36 0.929 . S
H34 C39 0.929 . S
H35 C41 0.930 . S
C36 H33 0.929 . S
C36 C37 1.398 . S
C36 C38 1.396 . S
C37 C36 1.398 . S
C37 C41 1.407 . S
C38 C36 1.396 . S
C38 C39 1.394 . S
C39 H34 0.929 . S
C39 C38 1.394 . S
C39 C40 1.382 . S
C40 C39 1.382 . S
C40 C41 1.392 . S
C40 N42 1.420 . S
C41 H35 0.930 . S
C41 C37 1.407 . S
C41 C40 1.392 . S
N42 C40 1.420 . S
N42 C43 1.244 . S
C43 N42 1.244 . S
H44 C47 0.929 . S
H45 C50 0.929 . S
H46 C52 0.930 . S
C47 H44 0.929 . S
C47 C48 1.398 . S
C47 C49 1.396 . S
C48 C47 1.398 . S
C48 C52 1.407 . S
C49 C47 1.396 . S
C49 C50 1.394 . S
C50 H45 0.929 . S
C50 C49 1.394 . S
C50 C51 1.382 . S
C51 C50 1.382 . S
C51 C52 1.392 . S
C51 N53 1.420 . S
C52 H46 0.930 . S
C52 C48 1.407 . S
C52 C51 1.392 . S
N53 C51 1.420 . S
N53 C54 1.244 . S
C54 N53 1.244 . S
H55 C58 0.929 . S
H56 C61 0.929 . S
H57 C63 0.930 . S
C58 H55 0.929 . S
C58 C59 1.398 . S
C58 C60 1.396 . S
C59 C58 1.398 . S
C59 C63 1.407 . S
C60 C58 1.396 . S
C60 C61 1.394 . S
C61 H56 0.929 . S
C61 C60 1.394 . S
C61 C62 1.382 . S
C62 C61 1.382 . S
C62 C63 1.392 . S
C62 N64 1.420 . S
C63 H57 0.930 . S
C63 C59 1.407 . S
C63 C62 1.392 . S
N64 C62 1.420 . S
N64 C65 1.244 . S
C65 N64 1.244 . S
H66 C69 0.929 . S
H67 C72 0.929 . S
H68 C74 0.930 . S
C69 H66 0.929 . S
C69 C70 1.398 . S
C69 C71 1.396 . S
C70 C69 1.398 . S
C70 C74 1.407 . S
C71 C69 1.396 . S
C71 C72 1.394 . S
C72 H67 0.929 . S
C72 C71 1.394 . S
C72 C73 1.382 . S
C73 C72 1.382 . S
C73 C74 1.392 . S
C73 N75 1.420 . S
C74 H68 0.930 . S
C74 C70 1.407 . S
C74 C73 1.392 . S
N75 C73 1.420 . S
N75 C76 1.244 . S
C76 N75 1.244 . S
H77 C80 0.929 . S
H78 C83 0.929 . S
H79 C85 0.930 . S
C80 H77 0.929 . S
C80 C81 1.398 . S
C80 C82 1.396 . S
C81 C80 1.398 . S
C81 C85 1.407 . S
C82 C80 1.396 . S
C82 C83 1.394 . S
C83 H78 0.929 . S
C83 C82 1.394 . S
C83 C84 1.382 . S
C84 C83 1.382 . S
C84 C85 1.392 . S
C84 N86 1.420 . S
C85 H79 0.930 . S
C85 C81 1.407 . S
C85 C84 1.392 . S
N86 C84 1.420 . S
N86 C87 1.244 . S
C87 N86 1.244 . S
Co88 O91 2.042 . S
Co88 O98 2.264 . S
Co88 O117 2.286 . S
Co88 O118 2.069 . S
Co88 O120 2.015 . S
Co89 O91 2.122 . S
Co89 O97 2.073 . S
Co89 O98 2.327 . S
Co89 O99 1.976 . S
Co90 O91 2.087 . S
Co90 O93 2.087 . S
Co90 O100 2.111 . S
Co90 O101 2.143 1_455 S
Co90 O105 2.111 1_455 S
Co90 O119 2.143 . S
O91 Co88 2.042 . S
O91 Co89 2.122 . S
O91 Co90 2.087 . S
O91 H92 0.980 . S
H92 O91 0.980 . S
O93 Co90 2.087 . S
O93 Co94 2.042 1_455 S
O93 Co95 2.122 1_455 S
O93 H96 0.980 . S
Co94 O93 2.042 1_655 S
Co94 O102 2.286 . S
Co94 O103 2.069 . S
Co94 O104 2.015 . S
Co94 O107 2.264 . S
Co95 O93 2.122 1_655 S
Co95 O106 1.976 . S
Co95 O107 2.327 . S
Co95 O108 2.073 . S
H96 O93 0.980 . S
O97 Co89 2.073 . S
O97 C112 1.245 . S
O98 Co88 2.264 . S
O98 Co89 2.327 . S
O98 C112 1.257 . S
O99 Co89 1.976 . S
O99 C111 1.251 . S
O100 Co90 2.111 . S
O100 C111 1.274 . S
O101 Co90 2.143 1_655 S
O101 C114 1.246 . S
O102 Co94 2.286 . S
O102 C113 1.259 . S
O103 Co94 2.069 . S
O103 C113 1.289 . S
O104 Co94 2.015 . S
O104 C114 1.257 . S
O105 Co90 2.111 1_655 S
O105 C115 1.274 . S
O106 Co95 1.976 . S
O106 C115 1.251 . S
O107 Co94 2.264 . S
O107 Co95 2.327 . S
O107 C116 1.257 . S
O108 Co95 2.073 . S
O108 C116 1.245 . S
C109 O117 1.259 . S
C109 O118 1.289 . S
C110 O119 1.246 . S
C110 O120 1.257 . S
C111 O99 1.251 . S
C111 O100 1.274 . S
C112 O97 1.245 . S
C112 O98 1.257 . S
C113 O102 1.259 . S
C113 O103 1.289 . S
C114 O101 1.246 . S
C114 O104 1.257 . S
C115 O105 1.274 . S
C115 O106 1.251 . S
C116 O107 1.257 . S
C116 O108 1.245 . S
O117 Co88 2.286 . S
O117 C109 1.259 . S
O118 Co88 2.069 . S
O118 C109 1.289 . S
O119 Co90 2.143 . S
O119 C110 1.246 . S
O120 Co88 2.015 . S
O120 C110 1.257 . S
Co121 O124 2.042 . S
Co121 O131 2.264 . S
Co121 O150 2.286 . S
Co121 O151 2.069 . S
Co121 O153 2.015 . S
Co122 O124 2.122 . S
Co122 O130 2.073 . S
Co122 O131 2.327 . S
Co122 O132 1.976 . S
Co123 O124 2.087 1_545 S
Co123 O126 2.087 . S
Co123 O133 2.111 1_545 S
Co123 O134 2.143 . S
Co123 O138 2.111 . S
Co123 O152 2.143 1_545 S
O124 Co121 2.042 . S
O124 Co122 2.122 . S
O124 Co123 2.087 1_565 S
O124 H125 0.980 1_565 S
H125 O124 0.980 1_545 S
O126 Co123 2.087 . S
O126 Co127 2.042 . S
O126 Co128 2.122 . S
O126 H129 0.980 . S
Co127 O126 2.042 . S
Co127 O135 2.286 . S
Co127 O136 2.069 . S
Co127 O137 2.015 . S
Co127 O140 2.264 . S
Co128 O126 2.122 . S
Co128 O139 1.976 . S
Co128 O140 2.327 . S
Co128 O141 2.073 . S
H129 O126 0.980 . S
O130 Co122 2.073 . S
O130 C145 1.245 . S
O131 Co121 2.264 . S
O131 Co122 2.327 . S
O131 C145 1.257 . S
O132 Co122 1.976 . S
O132 C144 1.251 . S
O133 Co123 2.111 1_565 S
O133 C144 1.274 . S
O134 Co123 2.143 . S
O134 C147 1.246 . S
O135 Co127 2.286 . S
O135 C146 1.259 . S
O136 Co127 2.069 . S
O136 C146 1.289 . S
O137 Co127 2.015 . S
O137 C147 1.257 . S
O138 Co123 2.111 . S
O138 C148 1.274 . S
O139 Co128 1.976 . S
O139 C148 1.251 . S
O140 Co127 2.264 . S
O140 Co128 2.327 . S
O140 C149 1.257 . S
O141 Co128 2.073 . S
O141 C149 1.245 . S
C142 O150 1.259 . S
C142 O151 1.289 . S
C143 O152 1.246 . S
C143 O153 1.257 . S
C144 O132 1.251 . S
C144 O133 1.274 . S
C145 O130 1.245 . S
C145 O131 1.257 . S
C146 O135 1.259 . S
C146 O136 1.289 . S
C147 O134 1.246 . S
C147 O137 1.257 . S
C148 O138 1.274 . S
C148 O139 1.251 . S
C149 O140 1.257 . S
C149 O141 1.245 . S
O150 Co121 2.286 . S
O150 C142 1.259 . S
O151 Co121 2.069 . S
O151 C142 1.289 . S
O152 Co123 2.143 1_565 S
O152 C143 1.246 . S
O153 Co121 2.015 . S
O153 C143 1.257 . S
Co154 O157 2.042 . S
Co154 O164 2.264 . S
Co154 O183 2.286 . S
Co154 O184 2.069 . S
Co154 O186 2.015 . S
Co155 O157 2.122 . S
Co155 O163 2.073 . S
Co155 O164 2.327 . S
Co155 O165 1.976 . S
Co156 O157 2.087 . S
Co156 O159 2.087 1_554 S
Co156 O166 2.111 . S
Co156 O167 2.143 1_554 S
Co156 O171 2.111 1_554 S
Co156 O185 2.143 . S
O157 Co154 2.042 . S
O157 Co155 2.122 . S
O157 Co156 2.087 . S
O157 H158 0.980 . S
H158 O157 0.980 . S
O159 Co156 2.087 1_556 S
O159 Co160 2.042 . S
O159 Co161 2.122 . S
O159 H162 0.980 . S
Co160 O159 2.042 . S
Co160 O168 2.286 . S
Co160 O169 2.069 . S
Co160 O170 2.015 . S
Co160 O173 2.264 . S
Co161 O159 2.122 . S
Co161 O172 1.976 . S
Co161 O173 2.327 . S
Co161 O174 2.073 . S
H162 O159 0.980 . S
O163 Co155 2.073 . S
O163 C178 1.245 . S
O164 Co154 2.264 . S
O164 Co155 2.327 . S
O164 C178 1.257 . S
O165 Co155 1.976 . S
O165 C177 1.251 . S
O166 Co156 2.111 . S
O166 C177 1.274 . S
O167 Co156 2.143 1_556 S
O167 C180 1.246 . S
O168 Co160 2.286 . S
O168 C179 1.259 . S
O169 Co160 2.069 . S
O169 C179 1.289 . S
O170 Co160 2.015 . S
O170 C180 1.257 . S
O171 Co156 2.111 1_556 S
O171 C181 1.274 . S
O172 Co161 1.976 . S
O172 C181 1.251 . S
O173 Co160 2.264 . S
O173 Co161 2.327 . S
O173 C182 1.257 . S
O174 Co161 2.073 . S
O174 C182 1.245 . S
C175 O183 1.259 . S
C175 O184 1.289 . S
C176 O185 1.246 . S
C176 O186 1.257 . S
C177 O165 1.251 . S
C177 O166 1.274 . S
C178 O163 1.245 . S
C178 O164 1.257 . S
C179 O168 1.259 . S
C179 O169 1.289 . S
C180 O167 1.246 . S
C180 O170 1.257 . S
C181 O171 1.274 . S
C181 O172 1.251 . S
C182 O173 1.257 . S
C182 O174 1.245 . S
O183 Co154 2.286 . S
O183 C175 1.259 . S
O184 Co154 2.069 . S
O184 C175 1.289 . S
O185 Co156 2.143 . S
O185 C176 1.246 . S
O186 Co154 2.015 . S
O186 C176 1.257 . S
H187 C193 0.930 . S
H188 C196 0.930 . S
H189 C197 0.930 . S
H190 C198 0.930 . S
H191 C201 0.930 . S
H192 C202 0.930 . S
C193 H187 0.930 . S
C193 C194 1.355 . S
C193 C195 1.415 . S
C194 C193 1.355 . S
C194 C196 1.419 . S
C195 C193 1.415 . S
C195 C200 1.425 . S
C195 C202 1.409 . S
C196 H188 0.930 . S
C196 C194 1.419 . S
C196 C197 1.362 . S
C197 H189 0.930 . S
C197 C196 1.362 . S
C197 C200 1.409 . S
C198 H190 0.930 . S
C198 C199 1.355 . S
C198 C200 1.415 . S
C199 C198 1.355 . S
C199 C201 1.419 . S
C200 C195 1.425 . S
C200 C197 1.409 . S
C200 C198 1.415 . S
C201 H191 0.930 . S
C201 C199 1.419 . S
C201 C202 1.362 . S
C202 H192 0.930 . S
C202 C195 1.409 . S
C202 C201 1.362 . S
H203 C209 0.930 . S
H204 C212 0.930 . S
H205 C213 0.930 . S
H206 C214 0.930 . S
H207 C217 0.930 . S
H208 C218 0.930 . S
C209 H203 0.930 . S
C209 C210 1.355 . S
C209 C211 1.415 . S
C210 C209 1.355 . S
C210 C212 1.419 . S
C211 C209 1.415 . S
C211 C216 1.425 . S
C211 C218 1.409 . S
C212 H204 0.930 . S
C212 C210 1.419 . S
C212 C213 1.362 . S
C213 H205 0.930 . S
C213 C212 1.362 . S
C213 C216 1.409 . S
C214 H206 0.930 . S
C214 C215 1.355 . S
C214 C216 1.415 . S
C215 C214 1.355 . S
C215 C217 1.419 . S
C216 C211 1.425 . S
C216 C213 1.409 . S
C216 C214 1.415 . S
C217 H207 0.930 . S
C217 C215 1.419 . S
C217 C218 1.362 . S
C218 H208 0.930 . S
C218 C211 1.409 . S
C218 C217 1.362 . S
H219 C225 0.930 . S
H220 C228 0.930 . S
H221 C229 0.930 . S
H222 C230 0.930 . S
H223 C233 0.930 . S
H224 C234 0.930 . S
C225 H219 0.930 . S
C225 C226 1.355 . S
C225 C227 1.415 . S
C226 C225 1.355 . S
C226 C228 1.419 . S
C227 C225 1.415 . S
C227 C232 1.425 . S
C227 C234 1.409 . S
C228 H220 0.930 . S
C228 C226 1.419 . S
C228 C229 1.362 . S
C229 H221 0.930 . S
C229 C228 1.362 . S
C229 C232 1.409 . S
C230 H222 0.930 . S
C230 C231 1.355 . S
C230 C232 1.415 . S
C231 C230 1.355 . S
C231 C233 1.419 . S
C232 C227 1.425 . S
C232 C229 1.409 . S
C232 C230 1.415 . S
C233 H223 0.930 . S
C233 C231 1.419 . S
C233 C234 1.362 . S
C234 H224 0.930 . S
C234 C227 1.409 . S
C234 C233 1.362 . S
H235 C241 0.930 . S
H236 C244 0.930 . S
H237 C245 0.930 . S
H238 C246 0.930 . S
H239 C249 0.930 . S
H240 C250 0.930 . S
C241 H235 0.930 . S
C241 C242 1.355 . S
C241 C243 1.415 . S
C242 C241 1.355 . S
C242 C244 1.419 . S
C243 C241 1.415 . S
C243 C248 1.425 . S
C243 C250 1.409 . S
C244 H236 0.930 . S
C244 C242 1.419 . S
C244 C245 1.362 . S
C245 H237 0.930 . S
C245 C244 1.362 . S
C245 C248 1.409 . S
C246 H238 0.930 . S
C246 C247 1.355 . S
C246 C248 1.415 . S
C247 C246 1.355 . S
C247 C249 1.419 . S
C248 C243 1.425 . S
C248 C245 1.409 . S
C248 C246 1.415 . S
C249 H239 0.930 . S
C249 C247 1.419 . S
C249 C250 1.362 . S
C250 H240 0.930 . S
C250 C243 1.409 . S
C250 C249 1.362 . S
H251 C257 0.930 . S
H252 C260 0.930 . S
H253 C261 0.930 . S
H254 C262 0.930 . S
H255 C265 0.930 . S
H256 C266 0.930 . S
C257 H251 0.930 . S
C257 C258 1.355 . S
C257 C259 1.415 . S
C258 C257 1.355 . S
C258 C260 1.419 . S
C259 C257 1.415 . S
C259 C264 1.425 . S
C259 C266 1.409 . S
C260 H252 0.930 . S
C260 C258 1.419 . S
C260 C261 1.362 . S
C261 H253 0.930 . S
C261 C260 1.362 . S
C261 C264 1.409 . S
C262 H254 0.930 . S
C262 C263 1.355 . S
C262 C264 1.415 . S
C263 C262 1.355 . S
C263 C265 1.419 . S
C264 C259 1.425 . S
C264 C261 1.409 . S
C264 C262 1.415 . S
C265 H255 0.930 . S
C265 C263 1.419 . S
C265 C266 1.362 . S
C266 H256 0.930 . S
C266 C259 1.409 . S
C266 C265 1.362 . S
H267 C273 0.930 . S
H268 C276 0.930 . S
H269 C277 0.930 . S
H270 C278 0.930 . S
H271 C281 0.930 . S
H272 C282 0.930 . S
C273 H267 0.930 . S
C273 C274 1.355 . S
C273 C275 1.415 . S
C274 C273 1.355 . S
C274 C276 1.419 . S
C275 C273 1.415 . S
C275 C280 1.425 . S
C275 C282 1.409 . S
C276 H268 0.930 . S
C276 C274 1.419 . S
C276 C277 1.362 . S
C277 H269 0.930 . S
C277 C276 1.362 . S
C277 C280 1.409 . S
C278 H270 0.930 . S
C278 C279 1.355 . S
C278 C280 1.415 . S
C279 C278 1.355 . S
C279 C281 1.419 . S
C280 C275 1.425 . S
C280 C277 1.409 . S
C280 C278 1.415 . S
C281 H271 0.930 . S
C281 C279 1.419 . S
C281 C282 1.362 . S
C282 H272 0.930 . S
C282 C275 1.409 . S
C282 C281 1.362 . S
H283 C289 0.930 . S
H284 C292 0.930 . S
H285 C293 0.930 . S
H286 C294 0.930 . S
H287 C297 0.930 . S
H288 C298 0.930 . S
C289 H283 0.930 . S
C289 C290 1.355 . S
C289 C291 1.415 . S
C290 C289 1.355 . S
C290 C292 1.419 . S
C291 C289 1.415 . S
C291 C296 1.425 . S
C291 C298 1.409 . S
C292 H284 0.930 . S
C292 C290 1.419 . S
C292 C293 1.362 . S
C293 H285 0.930 . S
C293 C292 1.362 . S
C293 C296 1.409 . S
C294 H286 0.930 . S
C294 C295 1.355 . S
C294 C296 1.415 . S
C295 C294 1.355 . S
C295 C297 1.419 . S
C296 C291 1.425 . S
C296 C293 1.409 . S
C296 C294 1.415 . S
C297 H287 0.930 . S
C297 C295 1.419 . S
C297 C298 1.362 . S
C298 H288 0.930 . S
C298 C291 1.409 . S
C298 C297 1.362 . S
H299 C305 0.930 . S
H300 C308 0.930 . S
H301 C309 0.930 . S
H302 C310 0.930 . S
H303 C313 0.930 . S
H304 C314 0.930 . S
C305 H299 0.930 . S
C305 C306 1.355 . S
C305 C307 1.415 . S
C306 C305 1.355 . S
C306 C308 1.419 . S
C307 C305 1.415 . S
C307 C312 1.425 . S
C307 C314 1.409 . S
C308 H300 0.930 . S
C308 C306 1.419 . S
C308 C309 1.362 . S
C309 H301 0.930 . S
C309 C308 1.362 . S
C309 C312 1.409 . S
C310 H302 0.930 . S
C310 C311 1.355 . S
C310 C312 1.415 . S
C311 C310 1.355 . S
C311 C313 1.419 . S
C312 C307 1.425 . S
C312 C309 1.409 . S
C312 C310 1.415 . S
C313 H303 0.930 . S
C313 C311 1.419 . S
C313 C314 1.362 . S
C314 H304 0.930 . S
C314 C307 1.409 . S
C314 C313 1.362 . S
H315 C321 0.930 . S
H316 C324 0.930 . S
H317 C325 0.930 . S
H318 C326 0.930 . S
H319 C329 0.930 . S
H320 C330 0.930 . S
C321 H315 0.930 . S
C321 C322 1.355 . S
C321 C323 1.415 . S
C322 C321 1.355 . S
C322 C324 1.419 . S
C323 C321 1.415 . S
C323 C328 1.425 . S
C323 C330 1.409 . S
C324 H316 0.930 . S
C324 C322 1.419 . S
C324 C325 1.362 . S
C325 H317 0.930 . S
C325 C324 1.362 . S
C325 C328 1.409 . S
C326 H318 0.930 . S
C326 C327 1.355 . S
C326 C328 1.415 . S
C327 C326 1.355 . S
C327 C329 1.419 . S
C328 C323 1.425 . S
C328 C325 1.409 . S
C328 C326 1.415 . S
C329 H319 0.930 . S
C329 C327 1.419 . S
C329 C330 1.362 . S
C330 H320 0.930 . S
C330 C323 1.409 . S
C330 C329 1.362 . S
H331 C337 0.930 . S
H332 C340 0.930 . S
H333 C341 0.930 . S
H334 C342 0.930 . S
H335 C345 0.930 . S
H336 C346 0.930 . S
C337 H331 0.930 . S
C337 C338 1.355 . S
C337 C339 1.415 . S
C338 C337 1.355 . S
C338 C340 1.419 . S
C339 C337 1.415 . S
C339 C344 1.425 . S
C339 C346 1.409 . S
C340 H332 0.930 . S
C340 C338 1.419 . S
C340 C341 1.362 . S
C341 H333 0.930 . S
C341 C340 1.362 . S
C341 C344 1.409 . S
C342 H334 0.930 . S
C342 C343 1.355 . S
C342 C344 1.415 . S
C343 C342 1.355 . S
C343 C345 1.419 . S
C344 C339 1.425 . S
C344 C341 1.409 . S
C344 C342 1.415 . S
C345 H335 0.930 . S
C345 C343 1.419 . S
C345 C346 1.362 . S
C346 H336 0.930 . S
C346 C339 1.409 . S
C346 C345 1.362 . S
H347 C353 0.930 . S
H348 C356 0.930 . S
H349 C357 0.930 . S
H350 C358 0.930 . S
H351 C361 0.930 . S
H352 C362 0.930 . S
C353 H347 0.930 . S
C353 C354 1.355 . S
C353 C355 1.415 . S
C354 C353 1.355 . S
C354 C356 1.419 . S
C355 C353 1.415 . S
C355 C360 1.425 . S
C355 C362 1.409 . S
C356 H348 0.930 . S
C356 C354 1.419 . S
C356 C357 1.362 . S
C357 H349 0.930 . S
C357 C356 1.362 . S
C357 C360 1.409 . S
C358 H350 0.930 . S
C358 C359 1.355 . S
C358 C360 1.415 . S
C359 C358 1.355 . S
C359 C361 1.419 . S
C360 C355 1.425 . S
C360 C357 1.409 . S
C360 C358 1.415 . S
C361 H351 0.930 . S
C361 C359 1.419 . S
C361 C362 1.362 . S
C362 H352 0.930 . S
C362 C355 1.409 . S
C362 C361 1.362 . S
H363 C369 0.930 . S
H364 C372 0.930 . S
H365 C373 0.930 . S
H366 C374 0.930 . S
H367 C377 0.930 . S
H368 C378 0.930 . S
C369 H363 0.930 . S
C369 C370 1.355 . S
C369 C371 1.415 . S
C370 C369 1.355 . S
C370 C372 1.419 . S
C371 C369 1.415 . S
C371 C376 1.425 . S
C371 C378 1.409 . S
C372 H364 0.930 . S
C372 C370 1.419 . S
C372 C373 1.362 . S
C373 H365 0.930 . S
C373 C372 1.362 . S
C373 C376 1.409 . S
C374 H366 0.930 . S
C374 C375 1.355 . S
C374 C376 1.415 . S
C375 C374 1.355 . S
C375 C377 1.419 . S
C376 C371 1.425 . S
C376 C373 1.409 . S
C376 C374 1.415 . S
C377 H367 0.930 . S
C377 C375 1.419 . S
C377 C378 1.362 . S
C378 H368 0.930 . S
C378 C371 1.409 . S
C378 C377 1.362 . S
H379 C385 0.930 . S
H380 C388 0.930 . S
H381 C389 0.930 . S
H382 C390 0.930 . S
H383 C393 0.930 . S
H384 C394 0.930 . S
C385 H379 0.930 . S
C385 C386 1.355 . S
C385 C387 1.415 . S
C386 C385 1.355 . S
C386 C388 1.419 . S
C387 C385 1.415 . S
C387 C392 1.425 . S
C387 C394 1.409 . S
C388 H380 0.930 . S
C388 C386 1.419 . S
C388 C389 1.362 . S
C389 H381 0.930 . S
C389 C388 1.362 . S
C389 C392 1.409 . S
C390 H382 0.930 . S
C390 C391 1.355 . S
C390 C392 1.415 . S
C391 C390 1.355 . S
C391 C393 1.419 . S
C392 C387 1.425 . S
C392 C389 1.409 . S
C392 C390 1.415 . S
C393 H383 0.930 . S
C393 C391 1.419 . S
C393 C394 1.362 . S
C394 H384 0.930 . S
C394 C387 1.409 . S
C394 C393 1.362 . S
H395 C401 0.930 . S
H396 C404 0.930 . S
H397 C405 0.930 . S
H398 C406 0.930 . S
H399 C409 0.930 . S
H400 C410 0.930 . S
C401 H395 0.930 . S
C401 C402 1.355 . S
C401 C403 1.415 . S
C402 C401 1.355 . S
C402 C404 1.419 . S
C403 C401 1.415 . S
C403 C408 1.425 . S
C403 C410 1.409 . S
C404 H396 0.930 . S
C404 C402 1.419 . S
C404 C405 1.362 . S
C405 H397 0.930 . S
C405 C404 1.362 . S
C405 C408 1.409 . S
C406 H398 0.930 . S
C406 C407 1.355 . S
C406 C408 1.415 . S
C407 C406 1.355 . S
C407 C409 1.419 . S
C408 C403 1.425 . S
C408 C405 1.409 . S
C408 C406 1.415 . S
C409 H399 0.930 . S
C409 C407 1.419 . S
C409 C410 1.362 . S
C410 H400 0.930 . S
C410 C403 1.409 . S
C410 C409 1.362 . S
H411 C417 0.930 . S
H412 C420 0.930 . S
H413 C421 0.930 . S
H414 C422 0.930 . S
H415 C425 0.930 . S
H416 C426 0.930 . S
C417 H411 0.930 . S
C417 C418 1.355 . S
C417 C419 1.415 . S
C418 C417 1.355 . S
C418 C420 1.419 . S
C419 C417 1.415 . S
C419 C424 1.425 . S
C419 C426 1.409 . S
C420 H412 0.930 . S
C420 C418 1.419 . S
C420 C421 1.362 . S
C421 H413 0.930 . S
C421 C420 1.362 . S
C421 C424 1.409 . S
C422 H414 0.930 . S
C422 C423 1.355 . S
C422 C424 1.415 . S
C423 C422 1.355 . S
C423 C425 1.419 . S
C424 C419 1.425 . S
C424 C421 1.409 . S
C424 C422 1.415 . S
C425 H415 0.930 . S
C425 C423 1.419 . S
C425 C426 1.362 . S
C426 H416 0.930 . S
C426 C419 1.409 . S
C426 C425 1.362 . S
H427 C433 0.930 . S
H428 C436 0.930 . S
H429 C437 0.930 . S
H430 C438 0.930 . S
H431 C441 0.930 . S
H432 C442 0.930 . S
C433 H427 0.930 . S
C433 C434 1.355 . S
C433 C435 1.415 . S
C434 C433 1.355 . S
C434 C436 1.419 . S
C435 C433 1.415 . S
C435 C440 1.425 . S
C435 C442 1.409 . S
C436 H428 0.930 . S
C436 C434 1.419 . S
C436 C437 1.362 . S
C437 H429 0.930 . S
C437 C436 1.362 . S
C437 C440 1.409 . S
C438 H430 0.930 . S
C438 C439 1.355 . S
C438 C440 1.415 . S
C439 C438 1.355 . S
C439 C441 1.419 . S
C440 C435 1.425 . S
C440 C437 1.409 . S
C440 C438 1.415 . S
C441 H431 0.930 . S
C441 C439 1.419 . S
C441 C442 1.362 . S
C442 H432 0.930 . S
C442 C435 1.409 . S
C442 C441 1.362 . S
H443 C449 0.930 . S
H444 C452 0.930 . S
H445 C453 0.930 . S
H446 C454 0.930 . S
H447 C457 0.930 . S
H448 C458 0.930 . S
C449 H443 0.930 . S
C449 C450 1.355 . S
C449 C451 1.415 . S
C450 C449 1.355 . S
C450 C452 1.419 . S
C451 C449 1.415 . S
C451 C456 1.425 . S
C451 C458 1.409 . S
C452 H444 0.930 . S
C452 C450 1.419 . S
C452 C453 1.362 . S
C453 H445 0.930 . S
C453 C452 1.362 . S
C453 C456 1.409 . S
C454 H446 0.930 . S
C454 C455 1.355 . S
C454 C456 1.415 . S
C455 C454 1.355 . S
C455 C457 1.419 . S
C456 C451 1.425 . S
C456 C453 1.409 . S
C456 C454 1.415 . S
C457 H447 0.930 . S
C457 C455 1.419 . S
C457 C458 1.362 . S
C458 H448 0.930 . S
C458 C451 1.409 . S
C458 C457 1.362 . S
H459 C465 0.930 . S
H460 C468 0.930 . S
H461 C469 0.930 . S
H462 C470 0.930 . S
H463 C473 0.930 . S
H464 C474 0.930 . S
C465 H459 0.930 . S
C465 C466 1.355 . S
C465 C467 1.415 . S
C466 C465 1.355 . S
C466 C468 1.419 . S
C467 C465 1.415 . S
C467 C472 1.425 . S
C467 C474 1.409 . S
C468 H460 0.930 . S
C468 C466 1.419 . S
C468 C469 1.362 . S
C469 H461 0.930 . S
C469 C468 1.362 . S
C469 C472 1.409 . S
C470 H462 0.930 . S
C470 C471 1.355 . S
C470 C472 1.415 . S
C471 C470 1.355 . S
C471 C473 1.419 . S
C472 C467 1.425 . S
C472 C469 1.409 . S
C472 C470 1.415 . S
C473 H463 0.930 . S
C473 C471 1.419 . S
C473 C474 1.362 . S
C474 H464 0.930 . S
C474 C467 1.409 . S
C474 C473 1.362 . S
H475 C481 0.930 . S
H476 C484 0.930 . S
H477 C485 0.930 . S
H478 C486 0.930 . S
H479 C489 0.930 . S
H480 C490 0.930 . S
C481 H475 0.930 . S
C481 C482 1.355 . S
C481 C483 1.415 . S
C482 C481 1.355 . S
C482 C484 1.419 . S
C483 C481 1.415 . S
C483 C488 1.425 . S
C483 C490 1.409 . S
C484 H476 0.930 . S
C484 C482 1.419 . S
C484 C485 1.362 . S
C485 H477 0.930 . S
C485 C484 1.362 . S
C485 C488 1.409 . S
C486 H478 0.930 . S
C486 C487 1.355 . S
C486 C488 1.415 . S
C487 C486 1.355 . S
C487 C489 1.419 . S
C488 C483 1.425 . S
C488 C485 1.409 . S
C488 C486 1.415 . S
C489 H479 0.930 . S
C489 C487 1.419 . S
C489 C490 1.362 . S
C490 H480 0.930 . S
C490 C483 1.409 . S
C490 C489 1.362 . S
H491 C497 0.930 . S
H492 C500 0.930 . S
H493 C501 0.930 . S
H494 C502 0.930 . S
H495 C505 0.930 . S
H496 C506 0.930 . S
C497 H491 0.930 . S
C497 C498 1.355 . S
C497 C499 1.415 . S
C498 C497 1.355 . S
C498 C500 1.419 . S
C499 C497 1.415 . S
C499 C504 1.425 . S
C499 C506 1.409 . S
C500 H492 0.930 . S
C500 C498 1.419 . S
C500 C501 1.362 . S
C501 H493 0.930 . S
C501 C500 1.362 . S
C501 C504 1.409 . S
C502 H494 0.930 . S
C502 C503 1.355 . S
C502 C504 1.415 . S
C503 C502 1.355 . S
C503 C505 1.419 . S
C504 C499 1.425 . S
C504 C501 1.409 . S
C504 C502 1.415 . S
C505 H495 0.930 . S
C505 C503 1.419 . S
C505 C506 1.362 . S
C506 H496 0.930 . S
C506 C499 1.409 . S
C506 C505 1.362 . S
H507 C513 0.930 . S
H508 C516 0.930 . S
H509 C517 0.930 . S
H510 C518 0.930 . S
H511 C521 0.930 . S
H512 C522 0.930 . S
C513 H507 0.930 . S
C513 C514 1.355 . S
C513 C515 1.415 . S
C514 C513 1.355 . S
C514 C516 1.419 . S
C515 C513 1.415 . S
C515 C520 1.425 . S
C515 C522 1.409 . S
C516 H508 0.930 . S
C516 C514 1.419 . S
C516 C517 1.362 . S
C517 H509 0.930 . S
C517 C516 1.362 . S
C517 C520 1.409 . S
C518 H510 0.930 . S
C518 C519 1.355 . S
C518 C520 1.415 . S
C519 C518 1.355 . S
C519 C521 1.419 . S
C520 C515 1.425 . S
C520 C517 1.409 . S
C520 C518 1.415 . S
C521 H511 0.930 . S
C521 C519 1.419 . S
C521 C522 1.362 . S
C522 H512 0.930 . S
C522 C515 1.409 . S
C522 C521 1.362 . S
H523 C529 0.930 . S
H524 C532 0.930 . S
H525 C533 0.930 . S
H526 C534 0.930 . S
H527 C537 0.930 . S
H528 C538 0.930 . S
C529 H523 0.930 . S
C529 C530 1.355 . S
C529 C531 1.415 . S
C530 C529 1.355 . S
C530 C532 1.419 . S
C531 C529 1.415 . S
C531 C536 1.425 . S
C531 C538 1.409 . S
C532 H524 0.930 . S
C532 C530 1.419 . S
C532 C533 1.362 . S
C533 H525 0.930 . S
C533 C532 1.362 . S
C533 C536 1.409 . S
C534 H526 0.930 . S
C534 C535 1.355 . S
C534 C536 1.415 . S
C535 C534 1.355 . S
C535 C537 1.419 . S
C536 C531 1.425 . S
C536 C533 1.409 . S
C536 C534 1.415 . S
C537 H527 0.930 . S
C537 C535 1.419 . S
C537 C538 1.362 . S
C538 H528 0.930 . S
C538 C531 1.409 . S
C538 C537 1.362 . S
H539 C545 0.930 . S
H540 C548 0.930 . S
H541 C549 0.930 . S
H542 C550 0.930 . S
H543 C553 0.930 . S
H544 C554 0.930 . S
C545 H539 0.930 . S
C545 C546 1.355 . S
C545 C547 1.415 . S
C546 C545 1.355 . S
C546 C548 1.419 . S
C547 C545 1.415 . S
C547 C552 1.425 . S
C547 C554 1.409 . S
C548 H540 0.930 . S
C548 C546 1.419 . S
C548 C549 1.362 . S
C549 H541 0.930 . S
C549 C548 1.362 . S
C549 C552 1.409 . S
C550 H542 0.930 . S
C550 C551 1.355 . S
C550 C552 1.415 . S
C551 C550 1.355 . S
C551 C553 1.419 . S
C552 C547 1.425 . S
C552 C549 1.409 . S
C552 C550 1.415 . S
C553 H543 0.930 . S
C553 C551 1.419 . S
C553 C554 1.362 . S
C554 H544 0.930 . S
C554 C547 1.409 . S
C554 C553 1.362 . S
H555 C561 0.930 . S
H556 C564 0.930 . S
H557 C565 0.930 . S
H558 C566 0.930 . S
H559 C569 0.930 . S
H560 C570 0.930 . S
C561 H555 0.930 . S
C561 C562 1.355 . S
C561 C563 1.415 . S
C562 C561 1.355 . S
C562 C564 1.419 . S
C563 C561 1.415 . S
C563 C568 1.425 . S
C563 C570 1.409 . S
C564 H556 0.930 . S
C564 C562 1.419 . S
C564 C565 1.362 . S
C565 H557 0.930 . S
C565 C564 1.362 . S
C565 C568 1.409 . S
C566 H558 0.930 . S
C566 C567 1.355 . S
C566 C568 1.415 . S
C567 C566 1.355 . S
C567 C569 1.419 . S
C568 C563 1.425 . S
C568 C565 1.409 . S
C568 C566 1.415 . S
C569 H559 0.930 . S
C569 C567 1.419 . S
C569 C570 1.362 . S
C570 H560 0.930 . S
C570 C563 1.409 . S
C570 C569 1.362 . S
C199 C112 1.448 . S
C194 C10 1.487 . S
C215 C148 1.397 . S
C210 C15 1.430 . S
C231 C113 1.608 . S
C226 C27 1.635 . S
C247 C143 1.504 . S
C242 C38 1.591 . S
C263 C110 1.486 . S
C258 C49 1.512 . S
C274 C59 1.826 . S
C279 C146 1.821 . S
C290 C71 0.848 . S
C295 C115 0.889 . S
C311 C145 1.451 . S
C306 C87 1.532 . S
C327 C149 1.718 . S
C322 C5 1.738 . S
C343 C114 1.190 . S
C338 C16 1.256 . S
C359 C142 1.595 . S
C354 C32 1.547 . S
C375 C111 1.142 . S
C370 C37 1.333 . S
C391 C144 1.663 . S
C386 C48 1.778 . S
C402 C65 1.304 . S
C407 C109 1.305 . S
C418 C70 1.186 . S
C423 C147 1.176 . S
C439 C116 1.494 . S
C434 C82 1.568 . S
C455 C178 1.746 . S
C450 C4 1.877 . S
C466 C54 1.937 . S
C471 C181 1.767 . S
C487 C180 1.857 . S
C482 C60 1.937 . S
C498 C76 1.327 . S
C503 C179 1.290 . S
C519 C182 1.824 . S
C514 C81 1.977 . S
C530 C26 1.844 . S
C535 C176 1.734 . S
C551 C175 1.898 . S
C546 C43 1.933 . S
C562 C21 1.239 . S
C567 C177 1.221 . S
